# Generated by pormake.
# Topology rho, (4)-cn, num edge types: 1
# Building blocks:
#     Node 0, Type 0, BuildingBlock: QUQFOY_clean_sbu_1, # of connection points: 4
#     Node 1, Type 0, BuildingBlock: QUQFOY_clean_sbu_1, # of connection points: 4
#     Node 2, Type 0, BuildingBlock: QUQFOY_clean_sbu_1, # of connection points: 4
#     Node 3, Type 0, BuildingBlock: QUQFOY_clean_sbu_1, # of connection points: 4
#     Node 4, Type 0, BuildingBlock: QUQFOY_clean_sbu_1, # of connection points: 4
#     Node 5, Type 0, BuildingBlock: QUQFOY_clean_sbu_1, # of connection points: 4
#     Node 6, Type 0, BuildingBlock: QUQFOY_clean_sbu_1, # of connection points: 4
#     Node 7, Type 0, BuildingBlock: QUQFOY_clean_sbu_1, # of connection points: 4
#     Node 8, Type 0, BuildingBlock: QUQFOY_clean_sbu_1, # of connection points: 4
#     Node 9, Type 0, BuildingBlock: QUQFOY_clean_sbu_1, # of connection points: 4
#     Node 10, Type 0, BuildingBlock: QUQFOY_clean_sbu_1, # of connection points: 4
#     Node 11, Type 0, BuildingBlock: QUQFOY_clean_sbu_1, # of connection points: 4
#     Node 12, Type 0, BuildingBlock: QUQFOY_clean_sbu_1, # of connection points: 4
#     Node 13, Type 0, BuildingBlock: QUQFOY_clean_sbu_1, # of connection points: 4
#     Node 14, Type 0, BuildingBlock: QUQFOY_clean_sbu_1, # of connection points: 4
#     Node 15, Type 0, BuildingBlock: QUQFOY_clean_sbu_1, # of connection points: 4
#     Node 16, Type 0, BuildingBlock: QUQFOY_clean_sbu_1, # of connection points: 4
#     Node 17, Type 0, BuildingBlock: QUQFOY_clean_sbu_1, # of connection points: 4
#     Node 18, Type 0, BuildingBlock: QUQFOY_clean_sbu_1, # of connection points: 4
#     Node 19, Type 0, BuildingBlock: QUQFOY_clean_sbu_1, # of connection points: 4
#     Node 20, Type 0, BuildingBlock: QUQFOY_clean_sbu_1, # of connection points: 4
#     Node 21, Type 0, BuildingBlock: QUQFOY_clean_sbu_1, # of connection points: 4
#     Node 22, Type 0, BuildingBlock: QUQFOY_clean_sbu_1, # of connection points: 4
#     Node 23, Type 0, BuildingBlock: QUQFOY_clean_sbu_1, # of connection points: 4
#     Node 24, Type 0, BuildingBlock: QUQFOY_clean_sbu_1, # of connection points: 4
#     Node 25, Type 0, BuildingBlock: QUQFOY_clean_sbu_1, # of connection points: 4
#     Node 26, Type 0, BuildingBlock: QUQFOY_clean_sbu_1, # of connection points: 4
#     Node 27, Type 0, BuildingBlock: QUQFOY_clean_sbu_1, # of connection points: 4
#     Node 28, Type 0, BuildingBlock: QUQFOY_clean_sbu_1, # of connection points: 4
#     Node 29, Type 0, BuildingBlock: QUQFOY_clean_sbu_1, # of connection points: 4
#     Node 30, Type 0, BuildingBlock: QUQFOY_clean_sbu_1, # of connection points: 4
#     Node 31, Type 0, BuildingBlock: QUQFOY_clean_sbu_1, # of connection points: 4
#     Node 32, Type 0, BuildingBlock: QUQFOY_clean_sbu_1, # of connection points: 4
#     Node 33, Type 0, BuildingBlock: QUQFOY_clean_sbu_1, # of connection points: 4
#     Node 34, Type 0, BuildingBlock: QUQFOY_clean_sbu_1, # of connection points: 4
#     Node 35, Type 0, BuildingBlock: QUQFOY_clean_sbu_1, # of connection points: 4
#     Node 36, Type 0, BuildingBlock: QUQFOY_clean_sbu_1, # of connection points: 4
#     Node 37, Type 0, BuildingBlock: QUQFOY_clean_sbu_1, # of connection points: 4
#     Node 38, Type 0, BuildingBlock: QUQFOY_clean_sbu_1, # of connection points: 4
#     Node 39, Type 0, BuildingBlock: QUQFOY_clean_sbu_1, # of connection points: 4
#     Node 40, Type 0, BuildingBlock: QUQFOY_clean_sbu_1, # of connection points: 4
#     Node 41, Type 0, BuildingBlock: QUQFOY_clean_sbu_1, # of connection points: 4
#     Node 42, Type 0, BuildingBlock: QUQFOY_clean_sbu_1, # of connection points: 4
#     Node 43, Type 0, BuildingBlock: QUQFOY_clean_sbu_1, # of connection points: 4
#     Node 44, Type 0, BuildingBlock: QUQFOY_clean_sbu_1, # of connection points: 4
#     Node 45, Type 0, BuildingBlock: QUQFOY_clean_sbu_1, # of connection points: 4
#     Node 46, Type 0, BuildingBlock: QUQFOY_clean_sbu_1, # of connection points: 4
#     Node 47, Type 0, BuildingBlock: QUQFOY_clean_sbu_1, # of connection points: 4
#     Edge 48, Type (0, 0), BuildingBlock: CIFDUS_clean_linker_0, # of connection points: 2
#     Edge 49, Type (0, 0), BuildingBlock: CIFDUS_clean_linker_0, # of connection points: 2
#     Edge 50, Type (0, 0), BuildingBlock: CIFDUS_clean_linker_0, # of connection points: 2
#     Edge 51, Type (0, 0), BuildingBlock: CIFDUS_clean_linker_0, # of connection points: 2
#     Edge 52, Type (0, 0), BuildingBlock: CIFDUS_clean_linker_0, # of connection points: 2
#     Edge 53, Type (0, 0), BuildingBlock: CIFDUS_clean_linker_0, # of connection points: 2
#     Edge 54, Type (0, 0), BuildingBlock: CIFDUS_clean_linker_0, # of connection points: 2
#     Edge 55, Type (0, 0), BuildingBlock: CIFDUS_clean_linker_0, # of connection points: 2
#     Edge 56, Type (0, 0), BuildingBlock: CIFDUS_clean_linker_0, # of connection points: 2
#     Edge 57, Type (0, 0), BuildingBlock: CIFDUS_clean_linker_0, # of connection points: 2
#     Edge 58, Type (0, 0), BuildingBlock: CIFDUS_clean_linker_0, # of connection points: 2
#     Edge 59, Type (0, 0), BuildingBlock: CIFDUS_clean_linker_0, # of connection points: 2
#     Edge 60, Type (0, 0), BuildingBlock: CIFDUS_clean_linker_0, # of connection points: 2
#     Edge 61, Type (0, 0), BuildingBlock: CIFDUS_clean_linker_0, # of connection points: 2
#     Edge 62, Type (0, 0), BuildingBlock: CIFDUS_clean_linker_0, # of connection points: 2
#     Edge 63, Type (0, 0), BuildingBlock: CIFDUS_clean_linker_0, # of connection points: 2
#     Edge 64, Type (0, 0), BuildingBlock: CIFDUS_clean_linker_0, # of connection points: 2
#     Edge 65, Type (0, 0), BuildingBlock: CIFDUS_clean_linker_0, # of connection points: 2
#     Edge 66, Type (0, 0), BuildingBlock: CIFDUS_clean_linker_0, # of connection points: 2
#     Edge 67, Type (0, 0), BuildingBlock: CIFDUS_clean_linker_0, # of connection points: 2
#     Edge 68, Type (0, 0), BuildingBlock: CIFDUS_clean_linker_0, # of connection points: 2
#     Edge 69, Type (0, 0), BuildingBlock: CIFDUS_clean_linker_0, # of connection points: 2
#     Edge 70, Type (0, 0), BuildingBlock: CIFDUS_clean_linker_0, # of connection points: 2
#     Edge 71, Type (0, 0), BuildingBlock: CIFDUS_clean_linker_0, # of connection points: 2
#     Edge 72, Type (0, 0), BuildingBlock: CIFDUS_clean_linker_0, # of connection points: 2
#     Edge 73, Type (0, 0), BuildingBlock: CIFDUS_clean_linker_0, # of connection points: 2
#     Edge 74, Type (0, 0), BuildingBlock: CIFDUS_clean_linker_0, # of connection points: 2
#     Edge 75, Type (0, 0), BuildingBlock: CIFDUS_clean_linker_0, # of connection points: 2
#     Edge 76, Type (0, 0), BuildingBlock: CIFDUS_clean_linker_0, # of connection points: 2
#     Edge 77, Type (0, 0), BuildingBlock: CIFDUS_clean_linker_0, # of connection points: 2
#     Edge 78, Type (0, 0), BuildingBlock: CIFDUS_clean_linker_0, # of connection points: 2
#     Edge 79, Type (0, 0), BuildingBlock: CIFDUS_clean_linker_0, # of connection points: 2
#     Edge 80, Type (0, 0), BuildingBlock: CIFDUS_clean_linker_0, # of connection points: 2
#     Edge 81, Type (0, 0), BuildingBlock: CIFDUS_clean_linker_0, # of connection points: 2
#     Edge 82, Type (0, 0), BuildingBlock: CIFDUS_clean_linker_0, # of connection points: 2
#     Edge 83, Type (0, 0), BuildingBlock: CIFDUS_clean_linker_0, # of connection points: 2
#     Edge 84, Type (0, 0), BuildingBlock: CIFDUS_clean_linker_0, # of connection points: 2
#     Edge 85, Type (0, 0), BuildingBlock: CIFDUS_clean_linker_0, # of connection points: 2
#     Edge 86, Type (0, 0), BuildingBlock: CIFDUS_clean_linker_0, # of connection points: 2
#     Edge 87, Type (0, 0), BuildingBlock: CIFDUS_clean_linker_0, # of connection points: 2
#     Edge 88, Type (0, 0), BuildingBlock: CIFDUS_clean_linker_0, # of connection points: 2
#     Edge 89, Type (0, 0), BuildingBlock: CIFDUS_clean_linker_0, # of connection points: 2
#     Edge 90, Type (0, 0), BuildingBlock: CIFDUS_clean_linker_0, # of connection points: 2
#     Edge 91, Type (0, 0), BuildingBlock: CIFDUS_clean_linker_0, # of connection points: 2
#     Edge 92, Type (0, 0), BuildingBlock: CIFDUS_clean_linker_0, # of connection points: 2
#     Edge 93, Type (0, 0), BuildingBlock: CIFDUS_clean_linker_0, # of connection points: 2
#     Edge 94, Type (0, 0), BuildingBlock: CIFDUS_clean_linker_0, # of connection points: 2
#     Edge 95, Type (0, 0), BuildingBlock: CIFDUS_clean_linker_0, # of connection points: 2
#     Edge 96, Type (0, 0), BuildingBlock: CIFDUS_clean_linker_0, # of connection points: 2
#     Edge 97, Type (0, 0), BuildingBlock: CIFDUS_clean_linker_0, # of connection points: 2
#     Edge 98, Type (0, 0), BuildingBlock: CIFDUS_clean_linker_0, # of connection points: 2
#     Edge 99, Type (0, 0), BuildingBlock: CIFDUS_clean_linker_0, # of connection points: 2
#     Edge 100, Type (0, 0), BuildingBlock: CIFDUS_clean_linker_0, # of connection points: 2
#     Edge 101, Type (0, 0), BuildingBlock: CIFDUS_clean_linker_0, # of connection points: 2
#     Edge 102, Type (0, 0), BuildingBlock: CIFDUS_clean_linker_0, # of connection points: 2
#     Edge 103, Type (0, 0), BuildingBlock: CIFDUS_clean_linker_0, # of connection points: 2
#     Edge 104, Type (0, 0), BuildingBlock: CIFDUS_clean_linker_0, # of connection points: 2
#     Edge 105, Type (0, 0), BuildingBlock: CIFDUS_clean_linker_0, # of connection points: 2
#     Edge 106, Type (0, 0), BuildingBlock: CIFDUS_clean_linker_0, # of connection points: 2
#     Edge 107, Type (0, 0), BuildingBlock: CIFDUS_clean_linker_0, # of connection points: 2
#     Edge 108, Type (0, 0), BuildingBlock: CIFDUS_clean_linker_0, # of connection points: 2
#     Edge 109, Type (0, 0), BuildingBlock: CIFDUS_clean_linker_0, # of connection points: 2
#     Edge 110, Type (0, 0), BuildingBlock: CIFDUS_clean_linker_0, # of connection points: 2
#     Edge 111, Type (0, 0), BuildingBlock: CIFDUS_clean_linker_0, # of connection points: 2
#     Edge 112, Type (0, 0), BuildingBlock: CIFDUS_clean_linker_0, # of connection points: 2
#     Edge 113, Type (0, 0), BuildingBlock: CIFDUS_clean_linker_0, # of connection points: 2
#     Edge 114, Type (0, 0), BuildingBlock: CIFDUS_clean_linker_0, # of connection points: 2
#     Edge 115, Type (0, 0), BuildingBlock: CIFDUS_clean_linker_0, # of connection points: 2
#     Edge 116, Type (0, 0), BuildingBlock: CIFDUS_clean_linker_0, # of connection points: 2
#     Edge 117, Type (0, 0), BuildingBlock: CIFDUS_clean_linker_0, # of connection points: 2
#     Edge 118, Type (0, 0), BuildingBlock: CIFDUS_clean_linker_0, # of connection points: 2
#     Edge 119, Type (0, 0), BuildingBlock: CIFDUS_clean_linker_0, # of connection points: 2
#     Edge 120, Type (0, 0), BuildingBlock: CIFDUS_clean_linker_0, # of connection points: 2
#     Edge 121, Type (0, 0), BuildingBlock: CIFDUS_clean_linker_0, # of connection points: 2
#     Edge 122, Type (0, 0), BuildingBlock: CIFDUS_clean_linker_0, # of connection points: 2
#     Edge 123, Type (0, 0), BuildingBlock: CIFDUS_clean_linker_0, # of connection points: 2
#     Edge 124, Type (0, 0), BuildingBlock: CIFDUS_clean_linker_0, # of connection points: 2
#     Edge 125, Type (0, 0), BuildingBlock: CIFDUS_clean_linker_0, # of connection points: 2
#     Edge 126, Type (0, 0), BuildingBlock: CIFDUS_clean_linker_0, # of connection points: 2
#     Edge 127, Type (0, 0), BuildingBlock: CIFDUS_clean_linker_0, # of connection points: 2
#     Edge 128, Type (0, 0), BuildingBlock: CIFDUS_clean_linker_0, # of connection points: 2
#     Edge 129, Type (0, 0), BuildingBlock: CIFDUS_clean_linker_0, # of connection points: 2
#     Edge 130, Type (0, 0), BuildingBlock: CIFDUS_clean_linker_0, # of connection points: 2
#     Edge 131, Type (0, 0), BuildingBlock: CIFDUS_clean_linker_0, # of connection points: 2
#     Edge 132, Type (0, 0), BuildingBlock: CIFDUS_clean_linker_0, # of connection points: 2
#     Edge 133, Type (0, 0), BuildingBlock: CIFDUS_clean_linker_0, # of connection points: 2
#     Edge 134, Type (0, 0), BuildingBlock: CIFDUS_clean_linker_0, # of connection points: 2
#     Edge 135, Type (0, 0), BuildingBlock: CIFDUS_clean_linker_0, # of connection points: 2
#     Edge 136, Type (0, 0), BuildingBlock: CIFDUS_clean_linker_0, # of connection points: 2
#     Edge 137, Type (0, 0), BuildingBlock: CIFDUS_clean_linker_0, # of connection points: 2
#     Edge 138, Type (0, 0), BuildingBlock: CIFDUS_clean_linker_0, # of connection points: 2
#     Edge 139, Type (0, 0), BuildingBlock: CIFDUS_clean_linker_0, # of connection points: 2
#     Edge 140, Type (0, 0), BuildingBlock: CIFDUS_clean_linker_0, # of connection points: 2
#     Edge 141, Type (0, 0), BuildingBlock: CIFDUS_clean_linker_0, # of connection points: 2
#     Edge 142, Type (0, 0), BuildingBlock: CIFDUS_clean_linker_0, # of connection points: 2
#     Edge 143, Type (0, 0), BuildingBlock: CIFDUS_clean_linker_0, # of connection points: 2
# Relax obj value: 0.016
# Max RMSD: 0.059
# Mean RMSD: 0.059
data_MOF--net-rho--node1-QUQFOY_clean_sbu_1--edge1-CIFDUS_clean_linker_0
_symmetry_space_group_name_H-M    P1
_symmetry_Int_Tables_number       1
_symmetry_cell_setting            triclinic
loop_
_symmetry_equiv_pos_as_xyz
'x, y, z'
_cell_length_a     66.983919
_cell_length_b     66.985037
_cell_length_c     67.015238
_cell_angle_alpha  89.981132
_cell_angle_beta   90.13692
_cell_angle_gamma 89.984443
loop_
_atom_site_label
_atom_site_type_symbol
_atom_site_fract_x
_atom_site_fract_y
_atom_site_fract_z
_atom_type_partial_charge
O0 O 0.10774 0.24447 0.44321 0.0
Cd1 Cd 0.10284 0.23551 0.41409 0.0
Cd2 Cd 0.10343 0.27875 0.40975 0.0
O3 O 0.11209 0.27693 0.43939 0.0
O4 O 0.10674 0.20602 0.41583 0.0
O5 O 0.12672 0.22547 0.39837 0.0
C6 C 0.12248 0.20786 0.40498 0.0
C7 C 0.11512 0.30573 0.39056 0.0
C8 C 0.11182 0.26153 0.45048 0.0
C9 C 0.06513 0.2554 0.40011 0.0
O10 O 0.07418 0.27183 0.40297 0.0
O11 O 0.07416 0.23886 0.40261 0.0
O12 O 0.10329 0.30819 0.40544 0.0
O13 O 0.12117 0.28782 0.38686 0.0
O14 O 0.73856 0.07211 0.40273 0.0
Cd15 Cd 0.73319 0.10194 0.40771 0.0
Cd16 Cd 0.77603 0.10102 0.40573 0.0
O17 O 0.77082 0.07197 0.39604 0.0
O18 O 0.7036 0.10311 0.4046 0.0
O19 O 0.7241 0.11818 0.38377 0.0
C20 C 0.70608 0.1132 0.38845 0.0
C21 C 0.80322 0.11949 0.39334 0.0
C22 C 0.75421 0.06284 0.39735 0.0
C23 C 0.75534 0.112 0.44507 0.0
O24 O 0.77096 0.10706 0.43552 0.0
O25 O 0.73843 0.11241 0.43638 0.0
O26 O 0.80565 0.10381 0.40418 0.0
O27 O 0.78517 0.12424 0.38846 0.0
O28 O 0.90383 0.76365 0.43938 0.0
Cd29 Cd 0.90889 0.77228 0.4102 0.0
Cd30 Cd 0.91529 0.73049 0.40648 0.0
O31 O 0.90569 0.73094 0.43586 0.0
O32 O 0.89966 0.80056 0.40943 0.0
O33 O 0.88498 0.77663 0.39214 0.0
C34 C 0.88559 0.79515 0.39747 0.0
C35 C 0.90652 0.70292 0.38662 0.0
C36 C 0.90262 0.74619 0.44674 0.0
C37 C 0.94997 0.75892 0.39835 0.0
O38 O 0.94359 0.74117 0.40053 0.0
O39 O 0.93828 0.77368 0.40071 0.0
O40 O 0.91866 0.70138 0.40145 0.0
O41 O 0.89865 0.7202 0.38326 0.0
O42 O 0.26845 0.93631 0.40056 0.0
Cd43 Cd 0.2739 0.90657 0.4064 0.0
Cd44 Cd 0.23094 0.90796 0.40611 0.0
O45 O 0.23571 0.9371 0.39653 0.0
O46 O 0.30353 0.90548 0.40377 0.0
O47 O 0.2834 0.88946 0.38323 0.0
C48 C 0.30135 0.89456 0.38813 0.0
C49 C 0.20445 0.88859 0.39356 0.0
C50 C 0.25257 0.94587 0.39641 0.0
C51 C 0.25275 0.89725 0.44475 0.0
O52 O 0.2367 0.90203 0.43578 0.0
O53 O 0.26927 0.89685 0.43543 0.0
O54 O 0.20143 0.90415 0.40443 0.0
O55 O 0.22267 0.88451 0.38875 0.0
O56 O 0.07034 0.7428 0.60756 0.0
Cd57 Cd 0.09849 0.73174 0.6012 0.0
Cd58 Cd 0.10521 0.77351 0.59663 0.0
O59 O 0.07594 0.77526 0.60635 0.0
O60 O 0.09532 0.70266 0.60663 0.0
O61 O 0.11586 0.72164 0.62401 0.0
C62 C 0.10806 0.70428 0.62094 0.0
C63 C 0.12871 0.79677 0.60819 0.0
C64 C 0.06415 0.76068 0.60928 0.0
C65 C 0.11067 0.74681 0.56047 0.0
O66 O 0.10984 0.76438 0.56759 0.0
O67 O 0.1075 0.73177 0.5716 0.0
O68 O 0.11442 0.80179 0.59633 0.0
O69 O 0.12937 0.77846 0.61419 0.0
O70 O 0.24348 0.10808 0.57489 0.0
Cd71 Cd 0.23792 0.10173 0.60451 0.0
Cd72 Cd 0.28093 0.10255 0.60335 0.0
O73 O 0.27613 0.11278 0.57446 0.0
O74 O 0.20825 0.10436 0.60559 0.0
O75 O 0.22835 0.12464 0.62196 0.0
C76 C 0.21041 0.11984 0.61676 0.0
C77 C 0.30757 0.11414 0.62309 0.0
C78 C 0.25933 0.11272 0.56555 0.0
C79 C 0.25958 0.06348 0.61323 0.0
O80 O 0.27543 0.07276 0.60851 0.0
O81 O 0.24291 0.07258 0.61388 0.0
O82 O 0.31046 0.10386 0.60712 0.0
O83 O 0.28942 0.11909 0.6273 0.0
O84 O 0.93895 0.27369 0.607 0.0
Cd85 Cd 0.90992 0.28147 0.60026 0.0
Cd86 Cd 0.90913 0.23871 0.59651 0.0
O87 O 0.93804 0.24075 0.60775 0.0
O88 O 0.91111 0.31091 0.60452 0.0
O89 O 0.89258 0.29123 0.62319 0.0
C90 C 0.89932 0.3089 0.6195 0.0
C91 C 0.88674 0.21418 0.60773 0.0
C92 C 0.94756 0.25704 0.61003 0.0
C93 C 0.901 0.26418 0.55968 0.0
O94 O 0.9046 0.24708 0.56713 0.0
O95 O 0.90114 0.27969 0.57063 0.0
O96 O 0.90192 0.20976 0.5968 0.0
O97 O 0.88472 0.23257 0.61318 0.0
O98 O 0.76541 0.90001 0.56876 0.0
Cd99 Cd 0.77384 0.90511 0.59803 0.0
Cd100 Cd 0.73131 0.90638 0.60228 0.0
O101 O 0.73274 0.89775 0.57261 0.0
O102 O 0.80264 0.89729 0.59922 0.0
O103 O 0.7791 0.88111 0.61562 0.0
C104 C 0.79766 0.88261 0.61062 0.0
C105 C 0.70396 0.89532 0.62137 0.0
C106 C 0.7481 0.89696 0.56151 0.0
C107 C 0.75601 0.94402 0.61095 0.0
O108 O 0.7392 0.93543 0.60887 0.0
O109 O 0.77215 0.9344 0.60818 0.0
O110 O 0.70187 0.9074 0.60659 0.0
O111 O 0.7217 0.88875 0.6251 0.0
O112 O 0.40266 0.07115 0.2653 0.0
Cd113 Cd 0.40831 0.09988 0.27489 0.0
Cd114 Cd 0.40698 0.10517 0.23267 0.0
O115 O 0.39763 0.07564 0.23303 0.0
O116 O 0.40475 0.09739 0.30436 0.0
O117 O 0.38493 0.11591 0.28567 0.0
C118 C 0.38922 0.10863 0.30301 0.0
C119 C 0.39401 0.12817 0.20951 0.0
C120 C 0.39813 0.06424 0.24821 0.0
C121 C 0.44625 0.11234 0.25486 0.0
O122 O 0.43676 0.11018 0.23856 0.0
O123 O 0.43739 0.11016 0.2715 0.0
O124 O 0.40496 0.11334 0.20408 0.0
O125 O 0.38935 0.1294 0.22816 0.0
O126 O 0.93846 0.39916 0.26374 0.0
Cd127 Cd 0.90921 0.40384 0.27217 0.0
Cd128 Cd 0.90481 0.4034 0.231 0.0
O129 O 0.93438 0.3941 0.23144 0.0
O130 O 0.90867 0.39607 0.30097 0.0
O131 O 0.89227 0.37947 0.27766 0.0
C132 C 0.89773 0.38099 0.29612 0.0
C133 C 0.88138 0.39079 0.20811 0.0
C134 C 0.94565 0.3948 0.24675 0.0
C135 C 0.89723 0.4423 0.25343 0.0
O136 O 0.89988 0.43312 0.23705 0.0
O137 O 0.89887 0.43306 0.26996 0.0
O138 O 0.89629 0.40153 0.20249 0.0
O139 O 0.88041 0.386 0.22676 0.0
O140 O 0.57466 0.90001 0.24166 0.0
Cd141 Cd 0.60458 0.90451 0.23629 0.0
Cd142 Cd 0.60359 0.90489 0.2787 0.0
O143 O 0.57441 0.89504 0.27423 0.0
O144 O 0.60698 0.89755 0.20739 0.0
O145 O 0.6213 0.87985 0.23124 0.0
C146 C 0.61704 0.88196 0.21254 0.0
C147 C 0.62305 0.89409 0.30597 0.0
C148 C 0.56531 0.89556 0.25753 0.0
C149 C 0.61443 0.94314 0.25594 0.0
O150 O 0.60944 0.93437 0.272 0.0
O151 O 0.61496 0.93359 0.23953 0.0
O152 O 0.60724 0.90476 0.30831 0.0
O153 O 0.62724 0.88829 0.28808 0.0
O154 O 0.11083 0.57472 0.23726 0.0
Cd155 Cd 0.10613 0.60467 0.23217 0.0
Cd156 Cd 0.10726 0.60428 0.27318 0.0
O157 O 0.11684 0.57496 0.26963 0.0
O158 O 0.11267 0.60754 0.20327 0.0
O159 O 0.13055 0.62169 0.22711 0.0
C160 C 0.12822 0.61768 0.20838 0.0
C161 C 0.12138 0.62643 0.29638 0.0
C162 C 0.11574 0.56558 0.25315 0.0
C163 C 0.06794 0.61417 0.25252 0.0
O164 O 0.07728 0.60954 0.2684 0.0
O165 O 0.07703 0.61468 0.23587 0.0
O166 O 0.11103 0.6112 0.30194 0.0
O167 O 0.12485 0.62845 0.27752 0.0
O168 O 0.43411 0.90275 0.77433 0.0
Cd169 Cd 0.40442 0.9087 0.77997 0.0
Cd170 Cd 0.40456 0.90669 0.73822 0.0
O171 O 0.43341 0.89606 0.74209 0.0
O172 O 0.40297 0.90531 0.80952 0.0
O173 O 0.38728 0.88526 0.78862 0.0
C174 C 0.39222 0.88961 0.80675 0.0
C175 C 0.38258 0.8936 0.71428 0.0
C176 C 0.44293 0.89714 0.75851 0.0
C177 C 0.39565 0.94656 0.75807 0.0
O178 O 0.4003 0.93686 0.74246 0.0
O179 O 0.39478 0.93778 0.77489 0.0
O180 O 0.39832 0.90343 0.70929 0.0
O181 O 0.37991 0.88998 0.73303 0.0
O182 O 0.10803 0.43286 0.77088 0.0
Cd183 Cd 0.10153 0.40334 0.77665 0.0
Cd184 Cd 0.10343 0.40355 0.73489 0.0
O185 O 0.11443 0.43237 0.73859 0.0
O186 O 0.10456 0.40218 0.80626 0.0
O187 O 0.12459 0.38591 0.78588 0.0
C188 C 0.12012 0.39117 0.80386 0.0
C189 C 0.11654 0.38037 0.71218 0.0
C190 C 0.11362 0.44175 0.75509 0.0
C191 C 0.06346 0.39539 0.75475 0.0
O192 O 0.07319 0.39981 0.7391 0.0
O193 O 0.07226 0.39439 0.77157 0.0
O194 O 0.10712 0.39608 0.70627 0.0
O195 O 0.11981 0.37847 0.7311 0.0
O196 O 0.60741 0.06847 0.74271 0.0
Cd197 Cd 0.60245 0.09674 0.73141 0.0
Cd198 Cd 0.59709 0.10288 0.77502 0.0
O199 O 0.60638 0.07333 0.77532 0.0
O200 O 0.60826 0.09264 0.70247 0.0
O201 O 0.62638 0.11256 0.72136 0.0
C202 C 0.62338 0.10435 0.70418 0.0
C203 C 0.60473 0.12302 0.80287 0.0
C204 C 0.60891 0.06183 0.76043 0.0
C205 C 0.56198 0.10997 0.74618 0.0
O206 O 0.56894 0.10862 0.7638 0.0
O207 O 0.57309 0.10678 0.73113 0.0
O208 O 0.59271 0.1081 0.804 0.0
O209 O 0.61321 0.12628 0.78591 0.0
O210 O 0.90042 0.57775 0.77146 0.0
Cd211 Cd 0.90659 0.60731 0.77732 0.0
Cd212 Cd 0.91089 0.60683 0.73632 0.0
O213 O 0.90012 0.57782 0.73855 0.0
O214 O 0.8991 0.60959 0.80601 0.0
O215 O 0.88307 0.62574 0.78218 0.0
C216 C 0.88458 0.62108 0.80082 0.0
C217 C 0.89836 0.62962 0.71281 0.0
C218 C 0.89784 0.56864 0.75502 0.0
C219 C 0.94769 0.61487 0.76153 0.0
O220 O 0.9404 0.61109 0.74439 0.0
O221 O 0.93643 0.61546 0.77678 0.0
O222 O 0.9093 0.61468 0.70758 0.0
O223 O 0.89377 0.63122 0.73147 0.0
O224 O 0.25892 0.40471 0.0684 0.0
Cd225 Cd 0.26734 0.4098 0.0976 0.0
Cd226 Cd 0.22501 0.4112 0.10148 0.0
O227 O 0.22633 0.40147 0.07209 0.0
O228 O 0.29615 0.40216 0.09804 0.0
O229 O 0.27313 0.3857 0.11489 0.0
C230 C 0.29152 0.38727 0.10931 0.0
C231 C 0.1984 0.40076 0.12188 0.0
C232 C 0.24178 0.40099 0.06109 0.0
C233 C 0.24975 0.44894 0.1096 0.0
O234 O 0.23295 0.44047 0.10705 0.0
O235 O 0.26588 0.43909 0.10766 0.0
O236 O 0.1957 0.41214 0.10665 0.0
O237 O 0.21629 0.39437 0.12519 0.0
O238 O 0.24537 0.57167 0.89749 0.0
Cd239 Cd 0.2371 0.60099 0.9021 0.0
Cd240 Cd 0.27846 0.60521 0.90122 0.0
O241 O 0.27757 0.57567 0.89186 0.0
O242 O 0.20813 0.60148 0.89492 0.0
O243 O 0.23107 0.61764 0.87765 0.0
C244 C 0.21266 0.61222 0.87961 0.0
C245 C 0.30161 0.62803 0.88812 0.0
C246 C 0.26227 0.56445 0.89276 0.0
C247 C 0.25639 0.61349 0.94019 0.0
O248 O 0.2727 0.61052 0.93097 0.0
O249 O 0.23978 0.61181 0.93108 0.0
O250 O 0.3071 0.61312 0.89895 0.0
O251 O 0.28289 0.62942 0.88363 0.0
O252 O 0.39823 0.27666 0.93494 0.0
Cd253 Cd 0.40434 0.28197 0.90524 0.0
Cd254 Cd 0.40225 0.24028 0.90571 0.0
O255 O 0.39201 0.24431 0.93464 0.0
O256 O 0.40095 0.31149 0.90327 0.0
O257 O 0.38102 0.29033 0.88775 0.0
C258 C 0.38534 0.30854 0.89241 0.0
C259 C 0.38863 0.21659 0.88383 0.0
C260 C 0.39287 0.26085 0.94394 0.0
C261 C 0.4421 0.2599 0.89648 0.0
O262 O 0.43237 0.24428 0.90107 0.0
O263 O 0.43341 0.27678 0.89582 0.0
O264 O 0.39852 0.2114 0.89951 0.0
O265 O 0.38524 0.23541 0.8812 0.0
O266 O 0.76571 0.44343 0.90324 0.0
Cd267 Cd 0.77652 0.41503 0.9086 0.0
Cd268 Cd 0.73422 0.40901 0.9126 0.0
O269 O 0.7331 0.43857 0.90341 0.0
O270 O 0.80559 0.41861 0.90329 0.0
O271 O 0.78663 0.39891 0.88497 0.0
C272 C 0.80391 0.40682 0.88823 0.0
C273 C 0.71023 0.38601 0.90137 0.0
C274 C 0.74803 0.45009 0.90125 0.0
C275 C 0.76099 0.40216 0.9488 0.0
O276 O 0.74353 0.40371 0.94149 0.0
O277 O 0.77626 0.40505 0.93793 0.0
O278 O 0.70573 0.40038 0.9133 0.0
O279 O 0.72838 0.38511 0.89496 0.0
O280 O 0.60972 0.74596 0.9418 0.0
Cd281 Cd 0.60458 0.73524 0.91332 0.0
Cd282 Cd 0.59902 0.77873 0.90799 0.0
O283 O 0.60852 0.77866 0.93748 0.0
O284 O 0.6099 0.70612 0.91694 0.0
O285 O 0.62828 0.72499 0.89731 0.0
C286 C 0.62496 0.70771 0.90517 0.0
C287 C 0.60741 0.80613 0.88759 0.0
C288 C 0.61119 0.76357 0.94873 0.0
C289 C 0.56393 0.75032 0.90055 0.0
O290 O 0.57068 0.76797 0.90238 0.0
O291 O 0.57526 0.7353 0.90321 0.0
O292 O 0.59547 0.80782 0.90249 0.0
O293 O 0.61537 0.78886 0.88449 0.0
O294 O 0.73748 0.60608 0.07747 0.0
Cd295 Cd 0.73179 0.60045 0.10718 0.0
Cd296 Cd 0.77498 0.60091 0.10627 0.0
O297 O 0.77002 0.61142 0.07755 0.0
O298 O 0.70222 0.60388 0.10825 0.0
O299 O 0.72291 0.62403 0.12407 0.0
C300 C 0.70484 0.61962 0.11895 0.0
C301 C 0.80314 0.61141 0.1245 0.0
C302 C 0.75337 0.611 0.06837 0.0
C303 C 0.75287 0.56215 0.11648 0.0
O304 O 0.76879 0.57123 0.11162 0.0
O305 O 0.7363 0.57143 0.11713 0.0
O306 O 0.80468 0.60089 0.10851 0.0
O307 O 0.78549 0.6171 0.1297 0.0
O308 O 0.43658 0.77558 0.10852 0.0
Cd309 Cd 0.40684 0.78194 0.10371 0.0
Cd310 Cd 0.40704 0.74061 0.09906 0.0
O311 O 0.43616 0.74268 0.10979 0.0
O312 O 0.40521 0.81043 0.11227 0.0
O313 O 0.38964 0.78618 0.12818 0.0
C314 C 0.3945 0.80482 0.12719 0.0
C315 C 0.38453 0.71603 0.10983 0.0
C316 C 0.44557 0.75911 0.1114 0.0
C317 C 0.39752 0.76652 0.06294 0.0
O318 O 0.40213 0.74947 0.06992 0.0
O319 O 0.397 0.78171 0.07432 0.0
O320 O 0.39973 0.7117 0.09888 0.0
O321 O 0.3827 0.73431 0.11573 0.0
O322 O 0.56744 0.23716 0.10779 0.0
Cd323 Cd 0.59699 0.23069 0.10204 0.0
Cd324 Cd 0.59806 0.27248 0.10428 0.0
O325 O 0.56875 0.26952 0.11385 0.0
O326 O 0.59758 0.2011 0.10528 0.0
O327 O 0.61387 0.22141 0.12546 0.0
C328 C 0.60843 0.20346 0.12099 0.0
C329 C 0.62039 0.29538 0.11852 0.0
C330 C 0.5589 0.25331 0.11293 0.0
C331 C 0.6074 0.25255 0.06456 0.0
O332 O 0.60331 0.26831 0.07429 0.0
O333 O 0.60709 0.2356 0.07314 0.0
O334 O 0.60516 0.30112 0.10822 0.0
O335 O 0.6223 0.27648 0.12191 0.0
O336 O 0.90229 0.77131 0.57401 0.0
Cd337 Cd 0.90756 0.77826 0.60349 0.0
Cd338 Cd 0.9068 0.73462 0.60392 0.0
O339 O 0.89719 0.73871 0.57466 0.0
O340 O 0.9041 0.80789 0.60316 0.0
O341 O 0.88368 0.78796 0.61949 0.0
C342 C 0.88809 0.80576 0.61354 0.0
C343 C 0.89619 0.70709 0.62306 0.0
C344 C 0.89772 0.75516 0.56516 0.0
C345 C 0.94555 0.75712 0.61405 0.0
O346 O 0.93627 0.74112 0.60979 0.0
O347 O 0.93656 0.77387 0.61383 0.0
O348 O 0.90689 0.70498 0.60728 0.0
O349 O 0.89026 0.72491 0.62743 0.0
O350 O 0.26934 0.93779 0.60924 0.0
Cd351 Cd 0.27902 0.90903 0.60363 0.0
Cd352 Cd 0.23588 0.90459 0.59923 0.0
O353 O 0.23661 0.93375 0.60945 0.0
O354 O 0.30822 0.91103 0.60924 0.0
O355 O 0.28818 0.89205 0.6271 0.0
C356 C 0.30588 0.89905 0.62406 0.0
C357 C 0.20808 0.8848 0.60754 0.0
C358 C 0.25186 0.94485 0.61157 0.0
C359 C 0.263 0.89752 0.56319 0.0
O360 O 0.24561 0.89959 0.57046 0.0
O361 O 0.27838 0.89953 0.57418 0.0
O362 O 0.20663 0.90011 0.59605 0.0
O363 O 0.22539 0.88091 0.6151 0.0
O364 O 0.1112 0.23444 0.57821 0.0
Cd365 Cd 0.10636 0.22876 0.608 0.0
Cd366 Cd 0.10196 0.27085 0.60721 0.0
O367 O 0.11213 0.26737 0.57811 0.0
O368 O 0.11469 0.20024 0.61051 0.0
O369 O 0.13071 0.22478 0.62557 0.0
C370 C 0.12957 0.20601 0.62126 0.0
C371 C 0.11179 0.29887 0.62611 0.0
C372 C 0.11375 0.2508 0.56896 0.0
C373 C 0.06567 0.24477 0.61673 0.0
O374 O 0.07294 0.26183 0.61263 0.0
O375 O 0.07681 0.22938 0.61712 0.0
O376 O 0.10036 0.30044 0.61071 0.0
O377 O 0.11842 0.28131 0.63053 0.0
O378 O 0.74957 0.06963 0.60961 0.0
Cd379 Cd 0.73931 0.09838 0.60506 0.0
Cd380 Cd 0.78209 0.10307 0.59781 0.0
O381 O 0.78224 0.07348 0.60712 0.0
O382 O 0.71071 0.09629 0.61331 0.0
O383 O 0.73237 0.11526 0.62926 0.0
C384 C 0.71448 0.10818 0.62792 0.0
C385 C 0.80969 0.12363 0.60541 0.0
C386 C 0.76713 0.06242 0.61031 0.0
C387 C 0.75232 0.11066 0.5638 0.0
O388 O 0.77021 0.10873 0.56991 0.0
O389 O 0.73775 0.1082 0.57571 0.0
O390 O 0.81104 0.10873 0.59337 0.0
O391 O 0.79268 0.12659 0.61393 0.0
O392 O 0.93987 0.26266 0.39746 0.0
Cd393 Cd 0.91108 0.2724 0.4028 0.0
Cd394 Cd 0.90586 0.23005 0.40237 0.0
O395 O 0.93543 0.23025 0.39328 0.0
O396 O 0.91357 0.30191 0.39906 0.0
O397 O 0.89496 0.28322 0.37939 0.0
C398 C 0.90218 0.30059 0.38363 0.0
C399 C 0.88275 0.20695 0.38946 0.0
C400 C 0.94683 0.24544 0.3935 0.0
C401 C 0.89882 0.2528 0.44119 0.0
O402 O 0.90099 0.23631 0.43206 0.0
O403 O 0.90084 0.26928 0.43194 0.0
O404 O 0.89756 0.20146 0.40045 0.0
O405 O 0.88156 0.22563 0.38479 0.0
O406 O 0.77378 0.89874 0.4338 0.0
Cd407 Cd 0.78057 0.90389 0.40427 0.0
Cd408 Cd 0.73821 0.90743 0.4044 0.0
O409 O 0.74087 0.89731 0.43362 0.0
O410 O 0.81005 0.89992 0.40503 0.0
O411 O 0.79011 0.88009 0.38798 0.0
C412 C 0.80789 0.88426 0.39416 0.0
C413 C 0.71406 0.89484 0.38225 0.0
C414 C 0.75741 0.89589 0.4429 0.0
C415 C 0.76305 0.94416 0.39479 0.0
O416 O 0.74612 0.93682 0.39926 0.0
O417 O 0.77851 0.93312 0.39438 0.0
O418 O 0.70926 0.90602 0.39715 0.0
O419 O 0.73264 0.88997 0.38039 0.0
O420 O 0.07763 0.73761 0.39734 0.0
Cd421 Cd 0.10724 0.73188 0.40357 0.0
Cd422 Cd 0.10669 0.77413 0.40236 0.0
O423 O 0.07758 0.77021 0.39235 0.0
O424 O 0.10839 0.70225 0.40047 0.0
O425 O 0.12457 0.72271 0.38046 0.0
C426 C 0.11937 0.7047 0.38493 0.0
C427 C 0.12848 0.79805 0.38896 0.0
C428 C 0.06845 0.75355 0.39265 0.0
C429 C 0.11584 0.75347 0.44182 0.0
O430 O 0.11153 0.76934 0.43234 0.0
O431 O 0.11638 0.73673 0.43284 0.0
O432 O 0.11295 0.8031 0.3991 0.0
O433 O 0.13102 0.77928 0.38527 0.0
O434 O 0.24614 0.11044 0.44021 0.0
Cd435 Cd 0.2356 0.10584 0.41157 0.0
Cd436 Cd 0.27698 0.09967 0.40556 0.0
O437 O 0.27866 0.10896 0.43508 0.0
O438 O 0.2072 0.11479 0.41323 0.0
O439 O 0.22948 0.13006 0.39445 0.0
C440 C 0.21148 0.12922 0.40129 0.0
C441 C 0.3009 0.11043 0.38228 0.0
C442 C 0.26394 0.11166 0.44675 0.0
C443 C 0.24855 0.06473 0.39908 0.0
O444 O 0.26637 0.07113 0.40049 0.0
O445 O 0.23388 0.07647 0.40186 0.0
O446 O 0.30534 0.09822 0.39646 0.0
O447 O 0.28287 0.11725 0.38165 0.0
O448 O 0.6071 0.93382 0.73714 0.0
Cd449 Cd 0.60192 0.90398 0.73165 0.0
Cd450 Cd 0.59803 0.90496 0.77272 0.0
O451 O 0.60833 0.93408 0.77003 0.0
O452 O 0.60973 0.90148 0.70307 0.0
O453 O 0.62613 0.88636 0.72735 0.0
C454 C 0.62465 0.89068 0.70861 0.0
C455 C 0.61005 0.88299 0.79718 0.0
C456 C 0.60994 0.94314 0.75342 0.0
C457 C 0.56134 0.89522 0.74789 0.0
O458 O 0.56867 0.89989 0.76477 0.0
O459 O 0.57245 0.89452 0.73253 0.0
O460 O 0.59898 0.89807 0.80167 0.0
O461 O 0.61525 0.8809 0.77874 0.0
O462 O 0.07582 0.60586 0.73686 0.0
Cd463 Cd 0.10565 0.60118 0.73123 0.0
Cd464 Cd 0.10425 0.59605 0.77329 0.0
O465 O 0.07524 0.60672 0.76975 0.0
O466 O 0.10711 0.60885 0.70253 0.0
O467 O 0.12262 0.62574 0.72616 0.0
C468 C 0.11766 0.62409 0.70759 0.0
C469 C 0.12372 0.60577 0.80092 0.0
C470 C 0.06636 0.60853 0.75304 0.0
C471 C 0.1148 0.56036 0.74682 0.0
O472 O 0.10991 0.56715 0.76386 0.0
O473 O 0.11548 0.57187 0.73173 0.0
O474 O 0.10835 0.59437 0.80278 0.0
O475 O 0.12769 0.6125 0.7833 0.0
O476 O 0.43508 0.11229 0.77369 0.0
Cd477 Cd 0.40575 0.10639 0.78113 0.0
Cd478 Cd 0.40486 0.10169 0.73899 0.0
O479 O 0.43416 0.11161 0.74076 0.0
O480 O 0.40607 0.11159 0.81045 0.0
O481 O 0.38826 0.12977 0.78958 0.0
C482 C 0.3943 0.1265 0.80759 0.0
C483 C 0.38271 0.11404 0.71477 0.0
C484 C 0.44378 0.11421 0.75694 0.0
C485 C 0.39612 0.06549 0.76474 0.0
O486 O 0.39966 0.0725 0.74746 0.0
O487 O 0.39659 0.07681 0.77998 0.0
O488 O 0.39744 0.10258 0.71012 0.0
O489 O 0.38096 0.11925 0.73325 0.0
O490 O 0.89967 0.44312 0.76437 0.0
Cd491 Cd 0.90411 0.41414 0.77403 0.0
Cd492 Cd 0.90924 0.409 0.73281 0.0
O493 O 0.90048 0.43865 0.73176 0.0
O494 O 0.89578 0.41529 0.80257 0.0
O495 O 0.87982 0.39717 0.78014 0.0
C496 C 0.88112 0.40361 0.79827 0.0
C497 C 0.89737 0.38631 0.7089 0.0
C498 C 0.89821 0.45005 0.74675 0.0
C499 C 0.94473 0.40128 0.76009 0.0
O500 O 0.93799 0.40328 0.74244 0.0
O501 O 0.93332 0.40388 0.77502 0.0
O502 O 0.90962 0.4004 0.70433 0.0
O503 O 0.89114 0.38544 0.72711 0.0
O504 O 0.57166 0.10755 0.24371 0.0
Cd505 Cd 0.60051 0.10254 0.23405 0.0
Cd506 Cd 0.60615 0.09771 0.27509 0.0
O507 O 0.57657 0.10675 0.27627 0.0
O508 O 0.5999 0.1112 0.20555 0.0
O509 O 0.61799 0.12657 0.22844 0.0
C510 C 0.61177 0.1256 0.2102 0.0
C511 C 0.62917 0.1102 0.29843 0.0
C512 C 0.56499 0.10915 0.26139 0.0
C513 C 0.61289 0.06179 0.24822 0.0
O514 O 0.61148 0.06875 0.26582 0.0
O515 O 0.61009 0.07308 0.2332 0.0
O516 O 0.6152 0.09801 0.30349 0.0
O517 O 0.62983 0.11588 0.28002 0.0
O518 O 0.90333 0.56772 0.24242 0.0
Cd519 Cd 0.90831 0.59674 0.23306 0.0
Cd520 Cd 0.91395 0.60187 0.27374 0.0
O521 O 0.9047 0.57239 0.27498 0.0
O522 O 0.89835 0.59729 0.20499 0.0
O523 O 0.88436 0.61475 0.22917 0.0
C524 C 0.88441 0.60924 0.21069 0.0
C525 C 0.90277 0.62472 0.29774 0.0
C526 C 0.90196 0.56093 0.2601 0.0
C527 C 0.94931 0.60893 0.24636 0.0
O528 O 0.94268 0.60721 0.26404 0.0
O529 O 0.93775 0.6063 0.23151 0.0
O530 O 0.91489 0.61045 0.30217 0.0
O531 O 0.89624 0.62567 0.27961 0.0
O532 O 0.40099 0.93625 0.27477 0.0
Cd533 Cd 0.40562 0.90628 0.28008 0.0
Cd534 Cd 0.41102 0.90761 0.23827 0.0
O535 O 0.40104 0.93675 0.24185 0.0
O536 O 0.3969 0.90332 0.30838 0.0
O537 O 0.38115 0.88879 0.28334 0.0
C538 C 0.38212 0.89269 0.3022 0.0
C539 C 0.40107 0.88936 0.20995 0.0
C540 C 0.39891 0.94571 0.25845 0.0
C541 C 0.44651 0.89671 0.26489 0.0
O542 O 0.43979 0.90131 0.24772 0.0
O543 O 0.43498 0.8965 0.27995 0.0
O544 O 0.41291 0.90444 0.20873 0.0
O545 O 0.39416 0.88486 0.22736 0.0
O546 O 0.1078 0.43988 0.24622 0.0
Cd547 Cd 0.10239 0.41052 0.23836 0.0
Cd548 Cd 0.10338 0.4065 0.27933 0.0
O549 O 0.11309 0.43584 0.27847 0.0
O550 O 0.10896 0.40943 0.20936 0.0
O551 O 0.12631 0.39317 0.23227 0.0
C552 C 0.124 0.39826 0.2138 0.0
C553 C 0.11711 0.38377 0.30218 0.0
C554 C 0.11258 0.44704 0.26315 0.0
C555 C 0.06416 0.39862 0.25768 0.0
O556 O 0.07344 0.40148 0.274 0.0
O557 O 0.07329 0.40019 0.24113 0.0
O558 O 0.1063 0.39861 0.30785 0.0
O559 O 0.12106 0.38228 0.28338 0.0
O560 O 0.74637 0.61095 0.94239 0.0
Cd561 Cd 0.73841 0.60679 0.91293 0.0
Cd562 Cd 0.78058 0.60654 0.90926 0.0
O563 O 0.77886 0.61511 0.93895 0.0
O564 O 0.70956 0.61421 0.9122 0.0
O565 O 0.73275 0.63135 0.89627 0.0
C566 C 0.71427 0.62945 0.90146 0.0
C567 C 0.8075 0.61811 0.88991 0.0
C568 C 0.76338 0.61477 0.94991 0.0
C569 C 0.75682 0.56849 0.89983 0.0
O570 O 0.7734 0.5773 0.90266 0.0
O571 O 0.74045 0.57787 0.90201 0.0
O572 O 0.81 0.60625 0.9048 0.0
O573 O 0.7896 0.62427 0.8863 0.0
O574 O 0.76052 0.43649 0.11229 0.0
Cd575 Cd 0.76969 0.40778 0.10575 0.0
Cd576 Cd 0.72614 0.4033 0.10542 0.0
O577 O 0.7279 0.43258 0.11531 0.0
O578 O 0.79927 0.40972 0.10896 0.0
O579 O 0.78076 0.39062 0.12828 0.0
C580 C 0.79814 0.39766 0.12387 0.0
C581 C 0.69901 0.38361 0.11609 0.0
C582 C 0.74334 0.44362 0.11608 0.0
C583 C 0.75001 0.3963 0.06698 0.0
O584 O 0.7334 0.39812 0.07595 0.0
O585 O 0.76638 0.39853 0.07638 0.0
O586 O 0.69667 0.39894 0.10477 0.0
O587 O 0.71688 0.37965 0.12214 0.0
O588 O 0.61077 0.73844 0.07649 0.0
Cd589 Cd 0.60507 0.7324 0.1061 0.0
Cd590 Cd 0.60029 0.77467 0.10544 0.0
O591 O 0.61061 0.7714 0.07636 0.0
O592 O 0.61283 0.7037 0.10839 0.0
O593 O 0.62887 0.72768 0.12427 0.0
C594 C 0.62744 0.709 0.11972 0.0
C595 C 0.61028 0.80231 0.1248 0.0
C596 C 0.61297 0.75488 0.06728 0.0
C597 C 0.56412 0.74837 0.1146 0.0
O598 O 0.57129 0.76554 0.11079 0.0
O599 O 0.57536 0.73305 0.11472 0.0
O600 O 0.59882 0.8042 0.10946 0.0
O601 O 0.61685 0.78464 0.12888 0.0
O602 O 0.24447 0.57446 0.10586 0.0
Cd603 Cd 0.23421 0.60295 0.09993 0.0
Cd604 Cd 0.27779 0.60737 0.09405 0.0
O605 O 0.27723 0.57796 0.10384 0.0
O606 O 0.20502 0.59997 0.10526 0.0
O607 O 0.22416 0.61987 0.12312 0.0
C608 C 0.20676 0.61222 0.11993 0.0
C609 C 0.30549 0.62747 0.10253 0.0
C610 C 0.26196 0.56713 0.10707 0.0
C611 C 0.24923 0.61426 0.05886 0.0
O612 O 0.26692 0.61269 0.06564 0.0
O613 O 0.23426 0.61189 0.07028 0.0
O614 O 0.30697 0.61254 0.09056 0.0
O615 O 0.28823 0.63083 0.11038 0.0
O616 O 0.39519 0.27036 0.06949 0.0
Cd617 Cd 0.40044 0.28077 0.09804 0.0
Cd618 Cd 0.40467 0.23693 0.10314 0.0
O619 O 0.39501 0.23764 0.07372 0.0
O620 O 0.39563 0.31001 0.09463 0.0
O621 O 0.37684 0.29129 0.11402 0.0
C622 C 0.38045 0.30856 0.10627 0.0
C623 C 0.39619 0.20886 0.12264 0.0
C624 C 0.39301 0.25284 0.06251 0.0
C625 C 0.44057 0.26451 0.11075 0.0
O626 O 0.43324 0.2471 0.10882 0.0
O627 O 0.42973 0.27991 0.10819 0.0
O628 O 0.40805 0.20765 0.10763 0.0
O629 O 0.38841 0.22608 0.12642 0.0
O630 O 0.26788 0.40298 0.93339 0.0
Cd631 Cd 0.27248 0.4076 0.9033 0.0
Cd632 Cd 0.23175 0.40667 0.90394 0.0
O633 O 0.23546 0.39726 0.93324 0.0
O634 O 0.30125 0.40087 0.89956 0.0
O635 O 0.27684 0.38315 0.88619 0.0
C636 C 0.29572 0.38543 0.88949 0.0
C637 C 0.2089 0.39189 0.88189 0.0
C638 C 0.25199 0.39824 0.94259 0.0
C639 C 0.25205 0.44586 0.89363 0.0
O640 O 0.23619 0.43667 0.89852 0.0
O641 O 0.26864 0.4366 0.89302 0.0
O642 O 0.20309 0.40235 0.89693 0.0
O643 O 0.22784 0.38878 0.87996 0.0
O644 O 0.5677 0.24667 0.89943 0.0
Cd645 Cd 0.59636 0.23641 0.90439 0.0
Cd646 Cd 0.6017 0.27872 0.91136 0.0
O647 O 0.5724 0.27924 0.90134 0.0
O648 O 0.59479 0.208 0.8955 0.0
O649 O 0.61385 0.23024 0.88049 0.0
C650 C 0.60697 0.21224 0.88128 0.0
C651 C 0.62197 0.30656 0.90419 0.0
C652 C 0.56097 0.26439 0.89827 0.0
C653 C 0.60815 0.24916 0.94575 0.0
O654 O 0.60671 0.26703 0.93949 0.0
O655 O 0.60561 0.23456 0.93387 0.0
O656 O 0.60698 0.30764 0.91609 0.0
O657 O 0.62535 0.2896 0.89569 0.0
O658 O 0.43558 0.77252 0.90103 0.0
Cd659 Cd 0.40549 0.77681 0.9059 0.0
Cd660 Cd 0.40724 0.73489 0.90587 0.0
O661 O 0.43636 0.73988 0.89655 0.0
O662 O 0.40146 0.80557 0.89913 0.0
O663 O 0.38805 0.78109 0.88158 0.0
C664 C 0.39126 0.79999 0.88379 0.0
C665 C 0.38883 0.70765 0.89348 0.0
C666 C 0.44519 0.7567 0.89684 0.0
C667 C 0.39621 0.75665 0.94444 0.0
O668 O 0.40114 0.74066 0.93548 0.0
O669 O 0.3956 0.77314 0.93503 0.0
O670 O 0.40431 0.70527 0.90463 0.0
O671 O 0.3842 0.72566 0.88837 0.0
H672 H 0.11515 0.38587 0.34242 0.0
H673 H 0.1316 0.34621 0.29451 0.0
H674 H 0.13501 0.31862 0.31829 0.0
H675 H 0.129 0.30496 0.35214 0.0
H676 H 0.11135 0.34504 0.39934 0.0
H677 H 0.11294 0.37322 0.37647 0.0
C678 C 0.11979 0.37127 0.33718 0.0
C679 C 0.12286 0.36805 0.31669 0.0
C680 C 0.12134 0.35547 0.35084 0.0
C681 C 0.12909 0.34909 0.31021 0.0
C682 C 0.13092 0.33327 0.3238 0.0
C683 C 0.12594 0.31993 0.35749 0.0
C684 C 0.11984 0.32284 0.37738 0.0
C685 C 0.12646 0.33614 0.34407 0.0
C686 C 0.11587 0.34233 0.38407 0.0
C687 C 0.11673 0.35848 0.37098 0.0
H688 H 0.70672 0.12614 0.34962 0.0
H689 H 0.66677 0.10757 0.39657 0.0
H690 H 0.63904 0.10684 0.37306 0.0
H691 H 0.62687 0.10764 0.33866 0.0
H692 H 0.66628 0.12589 0.29126 0.0
H693 H 0.69334 0.13079 0.31543 0.0
C694 C 0.69187 0.12235 0.35478 0.0
C695 C 0.68893 0.11669 0.37482 0.0
C696 C 0.67589 0.12166 0.34104 0.0
C697 C 0.66955 0.11182 0.38123 0.0
C698 C 0.65364 0.11132 0.36777 0.0
C699 C 0.64131 0.11294 0.33362 0.0
C700 C 0.64463 0.11614 0.31316 0.0
C701 C 0.65677 0.11558 0.34755 0.0
C702 C 0.66334 0.12326 0.30693 0.0
C703 C 0.67886 0.12597 0.32074 0.0
H704 H 0.88963 0.70248 0.3493 0.0
H705 H 0.91613 0.66429 0.39403 0.0
H706 H 0.91536 0.63626 0.37098 0.0
H707 H 0.9104 0.62336 0.33734 0.0
H708 H 0.88474 0.6611 0.29185 0.0
H709 H 0.88168 0.68837 0.316 0.0
C710 C 0.89491 0.68794 0.35408 0.0
C711 C 0.90312 0.68558 0.37331 0.0
C712 C 0.89473 0.67181 0.34057 0.0
C713 C 0.90992 0.66662 0.37927 0.0
C714 C 0.90951 0.65054 0.36609 0.0
C715 C 0.9039 0.63747 0.33272 0.0
C716 C 0.89802 0.64025 0.31276 0.0
C717 C 0.90247 0.6531 0.34656 0.0
C718 C 0.88944 0.65856 0.30712 0.0
C719 C 0.88778 0.67421 0.32091 0.0
H720 H 0.38296 0.89454 0.34254 0.0
H721 H 0.34466 0.87865 0.29323 0.0
H722 H 0.31634 0.87536 0.31604 0.0
H723 H 0.3017 0.88117 0.34947 0.0
H724 H 0.34046 0.89802 0.3982 0.0
H725 H 0.36929 0.89655 0.37621 0.0
C726 C 0.3685 0.89005 0.33679 0.0
C727 C 0.3659 0.88709 0.31617 0.0
C728 C 0.35227 0.88852 0.34991 0.0
C729 C 0.34709 0.88107 0.30903 0.0
C730 C 0.33084 0.8793 0.32206 0.0
C731 C 0.31651 0.8841 0.35535 0.0
C732 C 0.31885 0.88992 0.37542 0.0
C733 C 0.33312 0.88359 0.34247 0.0
C734 C 0.33816 0.8937 0.38279 0.0
C735 C 0.3547 0.8929 0.37021 0.0
H736 H 0.10996 0.62323 0.66797 0.0
H737 H 0.13408 0.66113 0.71412 0.0
H738 H 0.13518 0.68918 0.69067 0.0
H739 H 0.12571 0.70376 0.65794 0.0
H740 H 0.10021 0.66545 0.61279 0.0
H741 H 0.10331 0.63682 0.63492 0.0
C742 C 0.11575 0.63753 0.67289 0.0
C743 C 0.12176 0.64009 0.69284 0.0
C744 C 0.11588 0.65364 0.6595 0.0
C745 C 0.12934 0.65873 0.69885 0.0
C746 C 0.12985 0.67482 0.68547 0.0
C747 C 0.12114 0.68909 0.65287 0.0
C748 C 0.11255 0.68682 0.63379 0.0
C749 C 0.12262 0.67259 0.66589 0.0
C750 C 0.10667 0.66769 0.62745 0.0
C751 C 0.10844 0.65126 0.64011 0.0
H752 H 0.30604 0.12786 0.6616 0.0
H753 H 0.3471 0.10853 0.61595 0.0
H754 H 0.37438 0.10869 0.64001 0.0
H755 H 0.3859 0.11059 0.67461 0.0
H756 H 0.34527 0.12947 0.72073 0.0
H757 H 0.31867 0.13345 0.69592 0.0
C758 C 0.32104 0.12409 0.65684 0.0
C759 C 0.32442 0.11799 0.63701 0.0
C760 C 0.33674 0.12391 0.6709 0.0
C761 C 0.34398 0.11313 0.63112 0.0
C762 C 0.35963 0.11315 0.6449 0.0
C763 C 0.3713 0.11584 0.67923 0.0
C764 C 0.36753 0.1195 0.69954 0.0
C765 C 0.35606 0.11791 0.66493 0.0
C766 C 0.34858 0.1265 0.7052 0.0
C767 C 0.33332 0.12869 0.69102 0.0
H768 H 0.88374 0.30867 0.65731 0.0
H769 H 0.90664 0.34794 0.61169 0.0
H770 H 0.90606 0.37583 0.63492 0.0
H771 H 0.90272 0.3883 0.66896 0.0
H772 H 0.88049 0.34951 0.71523 0.0
H773 H 0.87689 0.32237 0.69099 0.0
C774 C 0.88822 0.32342 0.65237 0.0
C775 C 0.89544 0.32613 0.63283 0.0
C776 C 0.88817 0.33947 0.66599 0.0
C777 C 0.9012 0.34535 0.62668 0.0
C778 C 0.90092 0.36135 0.63998 0.0
C779 C 0.89683 0.37399 0.67373 0.0
C780 C 0.89211 0.37087 0.69392 0.0
C781 C 0.89503 0.35845 0.6598 0.0
C782 C 0.88428 0.3523 0.69977 0.0
C783 C 0.88231 0.33674 0.68593 0.0
H784 H 0.70403 0.88006 0.65935 0.0
H785 H 0.66483 0.90059 0.6124 0.0
H786 H 0.63636 0.89849 0.63479 0.0
H787 H 0.62319 0.89471 0.66846 0.0
H788 H 0.66197 0.87539 0.71618 0.0
H789 H 0.68983 0.87279 0.69272 0.0
C790 C 0.68919 0.88369 0.65394 0.0
C791 C 0.68662 0.89068 0.63427 0.0
C792 C 0.6728 0.88283 0.66709 0.0
C793 C 0.66729 0.89536 0.62751 0.0
C794 C 0.65096 0.8942 0.64032 0.0
C795 C 0.63765 0.88963 0.67372 0.0
C796 C 0.64052 0.88548 0.6941 0.0
C797 C 0.65364 0.88856 0.66027 0.0
C798 C 0.65933 0.87873 0.70058 0.0
C799 C 0.67532 0.87735 0.68718 0.0
H800 H 0.35171 0.12511 0.30422 0.0
H801 H 0.39698 0.09804 0.34138 0.0
H802 H 0.37412 0.09779 0.36955 0.0
H803 H 0.34053 0.10229 0.38289 0.0
H804 H 0.29469 0.1289 0.34621 0.0
H805 H 0.31852 0.13249 0.31877 0.0
C806 C 0.35666 0.11947 0.31857 0.0
C807 C 0.37602 0.11144 0.32058 0.0
C808 C 0.34328 0.11912 0.3348 0.0
C809 C 0.38216 0.10418 0.33931 0.0
C810 C 0.36907 0.10398 0.35547 0.0
C811 C 0.33576 0.10909 0.36897 0.0
C812 C 0.31578 0.11513 0.36657 0.0
C813 C 0.34946 0.11093 0.35325 0.0
C814 C 0.30996 0.12408 0.34848 0.0
C815 C 0.32358 0.12606 0.33274 0.0
H816 H 0.88538 0.30195 0.34623 0.0
H817 H 0.91211 0.3391 0.39164 0.0
H818 H 0.91129 0.36763 0.36917 0.0
H819 H 0.90595 0.3814 0.3358 0.0
H820 H 0.87997 0.3446 0.28975 0.0
H821 H 0.8773 0.31678 0.3133 0.0
C822 C 0.89073 0.31636 0.3513 0.0
C823 C 0.89895 0.31827 0.37059 0.0
C824 C 0.89048 0.33281 0.33812 0.0
C825 C 0.90584 0.33709 0.37687 0.0
C826 C 0.90541 0.35347 0.36399 0.0
C827 C 0.89945 0.36739 0.33093 0.0
C828 C 0.89332 0.36509 0.31096 0.0
C829 C 0.89823 0.35139 0.34445 0.0
C830 C 0.88484 0.34682 0.30501 0.0
C831 C 0.88339 0.33085 0.31847 0.0
H832 H 0.67385 0.8991 0.38478 0.0
H833 H 0.7202 0.87859 0.3452 0.0
H834 H 0.69564 0.87437 0.31842 0.0
H835 H 0.6615 0.87999 0.30526 0.0
H836 H 0.61564 0.90105 0.34522 0.0
H837 H 0.6394 0.90131 0.37276 0.0
C838 C 0.67857 0.89345 0.37038 0.0
C839 C 0.6989 0.88938 0.36697 0.0
C840 C 0.66442 0.89125 0.35501 0.0
C841 C 0.70468 0.88189 0.34825 0.0
C842 C 0.69063 0.87956 0.33288 0.0
C843 C 0.65662 0.88425 0.32008 0.0
C844 C 0.63681 0.89067 0.32307 0.0
C845 C 0.67053 0.88468 0.33593 0.0
C846 C 0.63079 0.89618 0.3424 0.0
C847 C 0.64441 0.8964 0.3582 0.0
H848 H 0.11873 0.62439 0.33671 0.0
H849 H 0.1362 0.66389 0.289 0.0
H850 H 0.13953 0.69143 0.31278 0.0
H851 H 0.1334 0.70517 0.34653 0.0
H852 H 0.11497 0.66534 0.39366 0.0
H853 H 0.11631 0.63714 0.37079 0.0
C854 C 0.12359 0.63894 0.33152 0.0
C855 C 0.12699 0.64209 0.31105 0.0
C856 C 0.12514 0.65475 0.3452 0.0
C857 C 0.13344 0.66102 0.30466 0.0
C858 C 0.13523 0.67683 0.31825 0.0
C859 C 0.13009 0.69025 0.35188 0.0
C860 C 0.12389 0.68745 0.37176 0.0
C861 C 0.13053 0.67402 0.33848 0.0
C862 C 0.11962 0.668 0.37842 0.0
C863 C 0.12033 0.65182 0.36533 0.0
H864 H 0.38514 0.89879 0.67429 0.0
H865 H 0.34508 0.87807 0.72015 0.0
H866 H 0.31799 0.87581 0.69565 0.0
H867 H 0.30481 0.88345 0.66189 0.0
H868 H 0.34518 0.9055 0.61687 0.0
H869 H 0.37293 0.90338 0.64028 0.0
C870 C 0.37057 0.89348 0.67892 0.0
C871 C 0.36714 0.88879 0.69909 0.0
C872 C 0.355 0.89264 0.66489 0.0
C873 C 0.34817 0.88182 0.70474 0.0
C874 C 0.33262 0.88063 0.69074 0.0
C875 C 0.31975 0.88744 0.65713 0.0
C876 C 0.32285 0.89481 0.63769 0.0
C877 C 0.33571 0.88656 0.67087 0.0
C878 C 0.3423 0.89997 0.63178 0.0
C879 C 0.35822 0.89878 0.64517 0.0
H880 H 0.11121 0.38073 0.67203 0.0
H881 H 0.13203 0.34322 0.72011 0.0
H882 H 0.1344 0.31488 0.69718 0.0
H883 H 0.12703 0.29993 0.66414 0.0
H884 H 0.10503 0.33775 0.61678 0.0
H885 H 0.10678 0.36669 0.63869 0.0
C886 C 0.11657 0.36645 0.67748 0.0
C887 C 0.12128 0.36412 0.69783 0.0
C888 C 0.1175 0.35015 0.66433 0.0
C889 C 0.12827 0.34548 0.70454 0.0
C890 C 0.12953 0.32921 0.69144 0.0
C891 C 0.12295 0.31456 0.65854 0.0
C892 C 0.11574 0.31658 0.63886 0.0
C893 C 0.12366 0.33123 0.6714 0.0
C894 C 0.11047 0.33568 0.63188 0.0
C895 C 0.11145 0.35228 0.64441 0.0
H896 H 0.6753 0.09837 0.62627 0.0
H897 H 0.7189 0.12697 0.66412 0.0
H898 H 0.69406 0.1299 0.69074 0.0
H899 H 0.66056 0.12169 0.7042 0.0
H900 H 0.61766 0.09251 0.66586 0.0
H901 H 0.64154 0.09261 0.63858 0.0
C902 C 0.67937 0.10544 0.64026 0.0
C903 C 0.69901 0.11228 0.64322 0.0
C904 C 0.66511 0.10688 0.65552 0.0
C905 C 0.70391 0.12154 0.66142 0.0
C906 C 0.68971 0.12315 0.67669 0.0
C907 C 0.65636 0.11562 0.68979 0.0
C908 C 0.63735 0.10696 0.68719 0.0
C909 C 0.67035 0.11549 0.67406 0.0
C910 C 0.6322 0.09914 0.66839 0.0
C911 C 0.64587 0.09916 0.65273 0.0
H912 H 0.88281 0.70739 0.66171 0.0
H913 H 0.90278 0.66791 0.61492 0.0
H914 H 0.9034 0.64006 0.63826 0.0
H915 H 0.90184 0.62761 0.67253 0.0
H916 H 0.88248 0.66671 0.71981 0.0
H917 H 0.87785 0.69383 0.69574 0.0
C918 C 0.8869 0.69261 0.65655 0.0
C919 C 0.89291 0.68984 0.63659 0.0
C920 C 0.88755 0.67658 0.6702 0.0
C921 C 0.89822 0.67056 0.63019 0.0
C922 C 0.89864 0.65458 0.64356 0.0
C923 C 0.89636 0.64199 0.67757 0.0
C924 C 0.89273 0.64516 0.698 0.0
C925 C 0.89393 0.65754 0.6637 0.0
C926 C 0.88545 0.66385 0.70419 0.0
C927 C 0.88287 0.67941 0.69043 0.0
H928 H 0.33118 0.38835 0.10147 0.0
H929 H 0.28569 0.35094 0.12739 0.0
H930 H 0.30975 0.32358 0.13053 0.0
H931 H 0.34301 0.3093 0.12282 0.0
H932 H 0.38778 0.34708 0.09607 0.0
H933 H 0.36478 0.37519 0.0965 0.0
C934 C 0.32654 0.3743 0.10805 0.0
C935 C 0.30659 0.37168 0.11402 0.0
C936 C 0.34034 0.35859 0.10953 0.0
C937 C 0.30094 0.35339 0.12264 0.0
C938 C 0.31468 0.33769 0.12435 0.0
C939 C 0.34781 0.32376 0.11739 0.0
C940 C 0.36707 0.32598 0.10926 0.0
C941 C 0.33433 0.33995 0.1174 0.0
C942 C 0.37303 0.34485 0.10225 0.0
C943 C 0.35986 0.36098 0.10246 0.0
H944 H 0.35069 0.70773 0.87849 0.0
H945 H 0.39803 0.6684 0.89776 0.0
H946 H 0.37564 0.63987 0.89543 0.0
H947 H 0.34186 0.62663 0.89187 0.0
H948 H 0.2939 0.66554 0.87348 0.0
H949 H 0.3173 0.69353 0.8712 0.0
C950 C 0.35619 0.69287 0.88179 0.0
C951 C 0.37598 0.69028 0.88852 0.0
C952 C 0.34307 0.67643 0.88075 0.0
C953 C 0.38285 0.67089 0.89274 0.0
C954 C 0.37003 0.65453 0.89145 0.0
C955 C 0.33654 0.64115 0.88705 0.0
C956 C 0.31611 0.64401 0.88308 0.0
C957 C 0.34998 0.6572 0.88609 0.0
C958 C 0.30955 0.6629 0.87667 0.0
C959 C 0.32291 0.67896 0.87547 0.0
H960 H 0.33607 0.38815 0.89139 0.0
H961 H 0.2886 0.34754 0.87567 0.0
H962 H 0.31273 0.32027 0.87267 0.0
H963 H 0.34678 0.30717 0.87876 0.0
H964 H 0.39368 0.34811 0.89547 0.0
H965 H 0.37039 0.37596 0.89361 0.0
C966 C 0.331 0.37341 0.88699 0.0
C967 C 0.31051 0.36987 0.884 0.0
C968 C 0.34489 0.35776 0.88563 0.0
C969 C 0.30427 0.3507 0.87812 0.0
C970 C 0.31807 0.33505 0.87651 0.0
C971 C 0.35198 0.32224 0.88156 0.0
C972 C 0.37193 0.32548 0.88747 0.0
C973 C 0.33835 0.33827 0.88085 0.0
C974 C 0.3784 0.34512 0.89108 0.0
C975 C 0.36506 0.3611 0.89007 0.0
H976 H 0.65919 0.30787 0.88712 0.0
H977 H 0.61471 0.34468 0.91569 0.0
H978 H 0.63752 0.37291 0.91557 0.0
H979 H 0.67084 0.38644 0.91017 0.0
H980 H 0.71611 0.3501 0.88242 0.0
H981 H 0.69222 0.32259 0.87915 0.0
C982 C 0.65442 0.32216 0.89304 0.0
C983 C 0.6353 0.32406 0.90157 0.0
C984 C 0.66779 0.33843 0.89319 0.0
C985 C 0.62937 0.34269 0.9092 0.0
C986 C 0.64242 0.35889 0.90915 0.0
C987 C 0.67547 0.37259 0.90319 0.0
C988 C 0.6953 0.3703 0.89672 0.0
C989 C 0.66179 0.35681 0.90163 0.0
C990 C 0.70095 0.35228 0.88756 0.0
C991 C 0.68731 0.3365 0.88578 0.0
H992 H 0.67459 0.62811 0.90914 0.0
H993 H 0.72003 0.66609 0.88395 0.0
H994 H 0.69585 0.69337 0.88107 0.0
H995 H 0.66248 0.70738 0.88879 0.0
H996 H 0.6178 0.66905 0.91493 0.0
H997 H 0.64094 0.64105 0.91421 0.0
C998 C 0.6792 0.64226 0.90278 0.0
C999 C 0.69916 0.64506 0.89693 0.0
C1000 C 0.66534 0.65794 0.90147 0.0
C1001 C 0.70477 0.6635 0.88861 0.0
C1002 C 0.69096 0.67916 0.88704 0.0
C1003 C 0.65773 0.69283 0.89403 0.0
C1004 C 0.63846 0.69041 0.90207 0.0
C1005 C 0.6713 0.67671 0.89388 0.0
C1006 C 0.63258 0.67143 0.90883 0.0
C1007 C 0.64581 0.65536 0.90845 0.0
H1008 H 0.6251 0.66872 0.11717 0.0
H1009 H 0.66489 0.71619 0.13479 0.0
H1010 H 0.69221 0.69216 0.13848 0.0
H1011 H 0.70566 0.65819 0.13267 0.0
H1012 H 0.66544 0.61128 0.11431 0.0
H1013 H 0.63749 0.63448 0.11517 0.0
C1014 C 0.63967 0.67381 0.12212 0.0
C1015 C 0.64299 0.69427 0.12546 0.0
C1016 C 0.65533 0.65998 0.12393 0.0
C1017 C 0.66192 0.70054 0.13207 0.0
C1018 C 0.67759 0.6868 0.13407 0.0
C1019 C 0.69072 0.65297 0.12927 0.0
C1020 C 0.68773 0.63304 0.12321 0.0
C1021 C 0.67462 0.66655 0.12946 0.0
C1022 C 0.66824 0.62654 0.11884 0.0
C1023 C 0.65221 0.63983 0.11928 0.0
H1024 H 0.38544 0.67675 0.1001 0.0
H1025 H 0.34812 0.72121 0.12789 0.0
H1026 H 0.32065 0.69717 0.12972 0.0
H1027 H 0.30629 0.66431 0.1205 0.0
H1028 H 0.34397 0.62062 0.09187 0.0
H1029 H 0.37214 0.64349 0.09342 0.0
C1030 C 0.3714 0.68116 0.10681 0.0
C1031 C 0.36885 0.70083 0.11371 0.0
C1032 C 0.3556 0.66739 0.10752 0.0
C1033 C 0.35053 0.70618 0.12244 0.0
C1034 C 0.33476 0.69245 0.1234 0.0
C1035 C 0.32073 0.65971 0.11487 0.0
C1036 C 0.3229 0.64079 0.10593 0.0
C1037 C 0.33697 0.67313 0.11555 0.0
C1038 C 0.34176 0.63511 0.09869 0.0
C1039 C 0.35793 0.6482 0.09955 0.0
H1040 H 0.69946 0.34514 0.13013 0.0
H1041 H 0.65975 0.39234 0.11131 0.0
H1042 H 0.63146 0.36961 0.11289 0.0
H1043 H 0.61856 0.33567 0.11573 0.0
H1044 H 0.65787 0.28777 0.13337 0.0
H1045 H 0.68557 0.31143 0.13649 0.0
C1046 C 0.68455 0.35052 0.12676 0.0
C1047 C 0.68179 0.37038 0.1204 0.0
C1048 C 0.66826 0.33719 0.12733 0.0
C1049 C 0.66237 0.37709 0.11605 0.0
C1050 C 0.64614 0.36409 0.11692 0.0
C1051 C 0.6331 0.33041 0.12058 0.0
C1052 C 0.63616 0.30993 0.1241 0.0
C1053 C 0.649 0.34399 0.12193 0.0
C1054 C 0.65508 0.30344 0.13052 0.0
C1055 C 0.67098 0.31696 0.13219 0.0
H1056 H 0.60274 0.88496 0.83689 0.0
H1057 H 0.62795 0.84648 0.79191 0.0
H1058 H 0.63126 0.81962 0.8165 0.0
H1059 H 0.62378 0.80605 0.85009 0.0
H1060 H 0.59761 0.84486 0.89431 0.0
H1061 H 0.59805 0.87253 0.87078 0.0
C1062 C 0.60921 0.8708 0.83247 0.0
C1063 C 0.61492 0.86772 0.81252 0.0
C1064 C 0.61076 0.85536 0.84657 0.0
C1065 C 0.62339 0.84927 0.80715 0.0
C1066 C 0.62521 0.83386 0.8212 0.0
C1067 C 0.61849 0.82065 0.85465 0.0
C1068 C 0.61051 0.82328 0.87391 0.0
C1069 C 0.61847 0.83656 0.84085 0.0
C1070 C 0.60367 0.84231 0.87955 0.0
C1071 C 0.60389 0.85819 0.86609 0.0
H1072 H 0.17298 0.60416 0.88097 0.0
H1073 H 0.21826 0.62922 0.84277 0.0
H1074 H 0.19416 0.63125 0.81532 0.0
H1075 H 0.16101 0.62272 0.80126 0.0
H1076 H 0.11637 0.59688 0.83979 0.0
H1077 H 0.13936 0.59849 0.86793 0.0
C1078 C 0.17756 0.61033 0.86673 0.0
C1079 C 0.19748 0.61637 0.86393 0.0
C1080 C 0.16373 0.61116 0.85096 0.0
C1081 C 0.20305 0.62443 0.84537 0.0
C1082 C 0.18928 0.6255 0.82962 0.0
C1083 C 0.15622 0.61775 0.81588 0.0
C1084 C 0.13701 0.60952 0.8183 0.0
C1085 C 0.16969 0.61844 0.83208 0.0
C1086 C 0.13108 0.60313 0.83739 0.0
C1087 C 0.14425 0.60402 0.85354 0.0
H1088 H 0.3794 0.1646 0.80594 0.0
H1089 H 0.39866 0.11887 0.84711 0.0
H1090 H 0.39607 0.14225 0.87477 0.0
H1091 H 0.39221 0.17642 0.88675 0.0
H1092 H 0.37423 0.22292 0.84594 0.0
H1093 H 0.37209 0.19851 0.81883 0.0
C1094 C 0.38264 0.15968 0.82102 0.0
C1095 C 0.38942 0.14005 0.82439 0.0
C1096 C 0.3815 0.1734 0.83695 0.0
C1097 C 0.39361 0.13393 0.84403 0.0
C1098 C 0.39215 0.14731 0.8599 0.0
C1099 C 0.3875 0.18121 0.87201 0.0
C1100 C 0.3836 0.20153 0.86837 0.0
C1101 C 0.38672 0.16721 0.85645 0.0
C1102 C 0.37737 0.20739 0.84918 0.0
C1103 C 0.37625 0.19344 0.83363 0.0
H1104 H 0.88272 0.41177 0.83778 0.0
H1105 H 0.84463 0.38566 0.79285 0.0
H1106 H 0.81766 0.38254 0.81729 0.0
H1107 H 0.80397 0.39024 0.85078 0.0
H1108 H 0.84251 0.41708 0.89498 0.0
H1109 H 0.87018 0.41674 0.87154 0.0
C1110 C 0.8686 0.40518 0.83334 0.0
C1111 C 0.86566 0.39914 0.81345 0.0
C1112 C 0.85314 0.40368 0.84736 0.0
C1113 C 0.8473 0.39048 0.80804 0.0
C1114 C 0.83184 0.38877 0.82201 0.0
C1115 C 0.81851 0.39571 0.85535 0.0
C1116 C 0.82107 0.40384 0.87459 0.0
C1117 C 0.83443 0.39575 0.84162 0.0
C1118 C 0.84002 0.41089 0.88025 0.0
C1119 C 0.8559 0.41074 0.86684 0.0
H1120 H 0.62368 0.20379 0.15901 0.0
H1121 H 0.60197 0.16424 0.11296 0.0
H1122 H 0.60297 0.13627 0.13613 0.0
H1123 H 0.60644 0.12371 0.17019 0.0
H1124 H 0.6277 0.16276 0.21676 0.0
H1125 H 0.6307 0.19011 0.19267 0.0
C1126 C 0.61955 0.18898 0.15396 0.0
C1127 C 0.61255 0.18621 0.1343 0.0
C1128 C 0.61989 0.17287 0.16751 0.0
C1129 C 0.60725 0.16689 0.12802 0.0
C1130 C 0.60776 0.15085 0.14129 0.0
C1131 C 0.61198 0.13813 0.17505 0.0
C1132 C 0.61661 0.14124 0.19529 0.0
C1133 C 0.61347 0.15378 0.16119 0.0
C1134 C 0.62399 0.15996 0.20127 0.0
C1135 C 0.62561 0.17564 0.18751 0.0
H1136 H 0.88468 0.60595 0.17044 0.0
H1137 H 0.84779 0.62535 0.2194 0.0
H1138 H 0.8196 0.63002 0.19652 0.0
H1139 H 0.80451 0.6249 0.1631 0.0
H1140 H 0.84191 0.60502 0.11463 0.0
H1141 H 0.87078 0.60449 0.13674 0.0
C1142 C 0.87054 0.61145 0.1761 0.0
C1143 C 0.86828 0.61505 0.19664 0.0
C1144 C 0.85441 0.61391 0.16292 0.0
C1145 C 0.84993 0.62241 0.20366 0.0
C1146 C 0.83377 0.62499 0.19058 0.0
C1147 C 0.81905 0.62085 0.15731 0.0
C1148 C 0.82095 0.61479 0.13726 0.0
C1149 C 0.83568 0.62027 0.17025 0.0
C1150 C 0.83994 0.60958 0.13001 0.0
C1151 C 0.85649 0.60921 0.14267 0.0
H1152 H 0.40118 0.8447 0.12753 0.0
H1153 H 0.37809 0.79686 0.16386 0.0
H1154 H 0.3761 0.81944 0.19252 0.0
H1155 H 0.38449 0.85195 0.20811 0.0
H1156 H 0.40865 0.89903 0.17137 0.0
H1157 H 0.40652 0.87764 0.14211 0.0
C1158 C 0.39542 0.83923 0.14162 0.0
C1159 C 0.38997 0.81904 0.14356 0.0
C1160 C 0.39469 0.85217 0.15808 0.0
C1161 C 0.38242 0.81231 0.16193 0.0
C1162 C 0.38139 0.82521 0.17838 0.0
C1163 C 0.38896 0.85762 0.19364 0.0
C1164 C 0.39691 0.87703 0.19202 0.0
C1165 C 0.38801 0.84505 0.17677 0.0
C1166 C 0.40266 0.88411 0.17313 0.0
C1167 C 0.40147 0.87187 0.15634 0.0
H1168 H 0.2001 0.38562 0.15988 0.0
H1169 H 0.159 0.40765 0.1153 0.0
H1170 H 0.13189 0.40677 0.1394 0.0
H1171 H 0.12057 0.40331 0.17383 0.0
H1172 H 0.1613 0.38208 0.21905 0.0
H1173 H 0.18767 0.37881 0.19401 0.0
C1174 C 0.18514 0.38986 0.15536 0.0
C1175 C 0.18167 0.39689 0.13584 0.0
C1176 C 0.16954 0.38963 0.16947 0.0
C1177 C 0.16217 0.40235 0.13025 0.0
C1178 C 0.14662 0.40189 0.14405 0.0
C1179 C 0.13513 0.3977 0.1782 0.0
C1180 C 0.13899 0.39316 0.19834 0.0
C1181 C 0.15025 0.39613 0.16382 0.0
C1182 C 0.15791 0.38573 0.20366 0.0
C1183 C 0.17304 0.38395 0.18936 0.0
H1184 H 0.80657 0.63298 0.85179 0.0
H1185 H 0.84685 0.61324 0.89816 0.0
H1186 H 0.87478 0.6149 0.87506 0.0
H1187 H 0.88709 0.61788 0.84097 0.0
H1188 H 0.84724 0.63656 0.79389 0.0
H1189 H 0.81998 0.63974 0.81799 0.0
C1190 C 0.82153 0.62946 0.85692 0.0
C1191 C 0.82455 0.62277 0.87663 0.0
C1192 C 0.83761 0.63008 0.84338 0.0
C1193 C 0.84404 0.61823 0.88303 0.0
C1194 C 0.86005 0.61914 0.86982 0.0
C1195 C 0.87253 0.62296 0.83599 0.0
C1196 C 0.86916 0.62673 0.81562 0.0
C1197 C 0.8569 0.62439 0.84983 0.0
C1198 C 0.85025 0.63351 0.80949 0.0
C1199 C 0.83461 0.63521 0.82326 0.0
H1200 H 0.37892 0.85094 0.80561 0.0
H1201 H 0.39596 0.89796 0.84625 0.0
H1202 H 0.3948 0.87467 0.87413 0.0
H1203 H 0.39301 0.84035 0.88639 0.0
H1204 H 0.37694 0.79277 0.84608 0.0
H1205 H 0.37335 0.81686 0.81882 0.0
C1206 C 0.38196 0.85616 0.82063 0.0
C1207 C 0.38773 0.87615 0.82376 0.0
C1208 C 0.38163 0.84253 0.83667 0.0
C1209 C 0.39165 0.88265 0.84334 0.0
C1210 C 0.39104 0.86932 0.85933 0.0
C1211 C 0.3884 0.83525 0.87172 0.0
C1212 C 0.38548 0.81474 0.86826 0.0
C1213 C 0.3867 0.84911 0.85608 0.0
C1214 C 0.37934 0.80846 0.84918 0.0
C1215 C 0.37739 0.82223 0.83354 0.0
H1216 H 0.1685 0.39321 0.88404 0.0
H1217 H 0.21661 0.37703 0.84454 0.0
H1218 H 0.19281 0.3728 0.8171 0.0
H1219 H 0.15883 0.37795 0.80339 0.0
H1220 H 0.11127 0.39515 0.84319 0.0
H1221 H 0.13427 0.39447 0.87138 0.0
C1222 C 0.17378 0.38844 0.86952 0.0
C1223 C 0.19435 0.38569 0.86632 0.0
C1224 C 0.16008 0.38636 0.85375 0.0
C1225 C 0.20087 0.37931 0.84743 0.0
C1226 C 0.18726 0.37699 0.83168 0.0
C1227 C 0.15342 0.38111 0.8183 0.0
C1228 C 0.13337 0.3868 0.82111 0.0
C1229 C 0.16689 0.38109 0.83451 0.0
C1230 C 0.12664 0.39089 0.84054 0.0
C1231 C 0.13981 0.39057 0.8567 0.0
H1232 H 0.62183 0.16026 0.80393 0.0
H1233 H 0.59308 0.11611 0.84099 0.0
H1234 H 0.59286 0.1393 0.8689 0.0
H1235 H 0.598 0.17286 0.88203 0.0
H1236 H 0.62607 0.21774 0.84545 0.0
H1237 H 0.6296 0.19352 0.81828 0.0
C1238 C 0.61582 0.15564 0.81821 0.0
C1239 C 0.60733 0.1365 0.82026 0.0
C1240 C 0.61547 0.16924 0.83428 0.0
C1241 C 0.59956 0.13077 0.83889 0.0
C1242 C 0.5994 0.14405 0.8549 0.0
C1243 C 0.60509 0.17734 0.8682 0.0
C1244 C 0.61158 0.19715 0.86573 0.0
C1245 C 0.60685 0.16345 0.85263 0.0
C1246 C 0.6209 0.2026 0.84775 0.0
C1247 C 0.62285 0.18876 0.83217 0.0
H1248 H 0.88086 0.39758 0.16826 0.0
H1249 H 0.84474 0.37422 0.21608 0.0
H1250 H 0.81596 0.37229 0.19357 0.0
H1251 H 0.80018 0.38083 0.16116 0.0
H1252 H 0.83669 0.4053 0.11412 0.0
H1253 H 0.86609 0.40307 0.1354 0.0
C1254 C 0.86678 0.39176 0.17373 0.0
C1255 C 0.86495 0.38623 0.1939 0.0
C1256 C 0.85024 0.39108 0.16084 0.0
C1257 C 0.8466 0.37862 0.20064 0.0
C1258 C 0.83008 0.37762 0.18779 0.0
C1259 C 0.81463 0.38535 0.15548 0.0
C1260 C 0.81614 0.39341 0.13611 0.0
C1261 C 0.83158 0.38434 0.16798 0.0
C1262 C 0.83501 0.39922 0.129 0.0
C1263 C 0.85188 0.39796 0.14118 0.0
H1264 H 0.61022 0.88311 0.17262 0.0
H1265 H 0.63317 0.84483 0.2191 0.0
H1266 H 0.63499 0.81701 0.19548 0.0
H1267 H 0.62665 0.8027 0.16239 0.0
H1268 H 0.60269 0.84131 0.11663 0.0
H1269 H 0.60481 0.86975 0.13913 0.0
C1270 C 0.61592 0.86878 0.17757 0.0
C1271 C 0.62139 0.86607 0.19768 0.0
C1272 C 0.61656 0.85278 0.16403 0.0
C1273 C 0.62882 0.84737 0.20373 0.0
C1274 C 0.62976 0.8314 0.19023 0.0
C1275 C 0.62221 0.8174 0.15726 0.0
C1276 C 0.61435 0.81977 0.13786 0.0
C1277 C 0.62316 0.83378 0.17046 0.0
C1278 C 0.60863 0.83896 0.1315 0.0
C1279 C 0.60982 0.85528 0.14438 0.0
H1280 H 0.12663 0.61116 0.1685 0.0
H1281 H 0.16518 0.63435 0.21464 0.0
H1282 H 0.19267 0.63669 0.19073 0.0
H1283 H 0.20669 0.62863 0.15746 0.0
H1284 H 0.16783 0.60417 0.11218 0.0
H1285 H 0.13963 0.60596 0.13494 0.0
C1286 C 0.14094 0.61703 0.17332 0.0
C1287 C 0.14384 0.62241 0.19341 0.0
C1288 C 0.15676 0.61792 0.15963 0.0
C1289 C 0.16251 0.63007 0.19928 0.0
C1290 C 0.17829 0.6313 0.18562 0.0
C1291 C 0.19198 0.62402 0.1525 0.0
C1292 C 0.18945 0.6161 0.13317 0.0
C1293 C 0.17574 0.62475 0.16586 0.0
C1294 C 0.17028 0.61014 0.127 0.0
C1295 C 0.1541 0.61115 0.14002 0.0
H1296 H 0.3805 0.2076 0.16043 0.0
H1297 H 0.40494 0.17031 0.11397 0.0
H1298 H 0.40431 0.1416 0.13621 0.0
H1299 H 0.40007 0.12776 0.16958 0.0
H1300 H 0.37675 0.16466 0.21684 0.0
H1301 H 0.37339 0.19265 0.19354 0.0
C1302 C 0.38536 0.19312 0.1551 0.0
C1303 C 0.39293 0.19119 0.13559 0.0
C1304 C 0.38529 0.17658 0.16816 0.0
C1305 C 0.39921 0.1723 0.12895 0.0
C1306 C 0.39888 0.15583 0.14167 0.0
C1307 C 0.39398 0.14183 0.17478 0.0
C1308 C 0.38884 0.14412 0.19499 0.0
C1309 C 0.39245 0.15791 0.16143 0.0
C1310 C 0.38085 0.16246 0.20137 0.0
C1311 C 0.37903 0.17852 0.18807 0.0
H1312 H 0.84946 0.80544 0.62706 0.0
H1313 H 0.89584 0.84487 0.60603 0.0
H1314 H 0.87227 0.87253 0.60499 0.0
H1315 H 0.83791 0.88477 0.60663 0.0
H1316 H 0.79106 0.84574 0.62718 0.0
H1317 H 0.81536 0.81885 0.63203 0.0
C1318 C 0.85449 0.82017 0.62263 0.0
C1319 C 0.8744 0.82297 0.61646 0.0
C1320 C 0.8407 0.83609 0.62177 0.0
C1321 C 0.88061 0.84219 0.61072 0.0
C1322 C 0.86711 0.85805 0.61006 0.0
C1323 C 0.83301 0.87047 0.61241 0.0
C1324 C 0.81263 0.86724 0.61632 0.0
C1325 C 0.84702 0.85505 0.61499 0.0
C1326 C 0.80663 0.84865 0.62399 0.0
C1327 C 0.82053 0.83322 0.62669 0.0
H1328 H 0.88415 0.16667 0.3928 0.0
H1329 H 0.8452 0.21478 0.37497 0.0
H1330 H 0.81723 0.19138 0.37227 0.0
H1331 H 0.80308 0.15785 0.37898 0.0
H1332 H 0.8425 0.11031 0.39754 0.0
H1333 H 0.87097 0.1328 0.39574 0.0
C1334 C 0.86962 0.17202 0.38802 0.0
C1335 C 0.86674 0.1925 0.38432 0.0
C1336 C 0.85359 0.15856 0.38679 0.0
C1337 C 0.84784 0.19911 0.37795 0.0
C1338 C 0.8318 0.18573 0.37652 0.0
C1339 C 0.81795 0.15233 0.38223 0.0
C1340 C 0.82056 0.13244 0.38861 0.0
C1341 C 0.83437 0.16551 0.38148 0.0
C1342 C 0.83997 0.12556 0.39277 0.0
C1343 C 0.85631 0.13843 0.3918 0.0
H1344 H 0.80754 0.84542 0.38125 0.0
H1345 H 0.84704 0.89276 0.40009 0.0
H1346 H 0.875 0.86958 0.40082 0.0
H1347 H 0.8875 0.83538 0.3999 0.0
H1348 H 0.84853 0.78747 0.38168 0.0
H1349 H 0.82124 0.81133 0.37667 0.0
C1350 C 0.82235 0.85072 0.3851 0.0
C1351 C 0.82511 0.87077 0.39083 0.0
C1352 C 0.83844 0.83716 0.38582 0.0
C1353 C 0.84441 0.87739 0.39581 0.0
C1354 C 0.86045 0.86412 0.39628 0.0
C1355 C 0.8731 0.83016 0.39459 0.0
C1356 C 0.86998 0.80965 0.39142 0.0
C1357 C 0.8575 0.84389 0.39195 0.0
C1358 C 0.85132 0.80318 0.38429 0.0
C1359 C 0.83568 0.81682 0.38151 0.0
H1360 H 0.12539 0.8383 0.39219 0.0
H1361 H 0.16635 0.79181 0.37474 0.0
H1362 H 0.19333 0.81631 0.37228 0.0
H1363 H 0.20611 0.85033 0.37913 0.0
H1364 H 0.16481 0.89624 0.3975 0.0
H1365 H 0.13723 0.87266 0.39536 0.0
C1366 C 0.14014 0.83353 0.38753 0.0
C1367 C 0.14386 0.81318 0.38387 0.0
C1368 C 0.15563 0.84763 0.38648 0.0
C1369 C 0.16304 0.80735 0.37769 0.0
C1370 C 0.17853 0.82136 0.37639 0.0
C1371 C 0.19102 0.85526 0.38226 0.0
C1372 C 0.18761 0.87501 0.38868 0.0
C1373 C 0.17514 0.84146 0.38134 0.0
C1374 C 0.16794 0.88112 0.3927 0.0
C1375 C 0.15212 0.86762 0.39153 0.0
H1376 H 0.17188 0.12813 0.40924 0.0
H1377 H 0.21741 0.16583 0.38383 0.0
H1378 H 0.19334 0.19323 0.38097 0.0
H1379 H 0.16004 0.20738 0.38869 0.0
H1380 H 0.11508 0.16916 0.41453 0.0
H1381 H 0.13818 0.14113 0.41404 0.0
C1382 C 0.17653 0.14226 0.40287 0.0
C1383 C 0.19648 0.14496 0.39695 0.0
C1384 C 0.1627 0.15796 0.40144 0.0
C1385 C 0.20215 0.16333 0.38854 0.0
C1386 C 0.18841 0.17905 0.38698 0.0
C1387 C 0.15521 0.19284 0.39391 0.0
C1388 C 0.13587 0.19048 0.40181 0.0
C1389 C 0.16873 0.17668 0.39382 0.0
C1390 C 0.12989 0.1715 0.40851 0.0
C1391 C 0.14312 0.15542 0.40828 0.0
H1392 H 0.20998 0.15806 0.63142 0.0
H1393 H 0.17129 0.11009 0.61252 0.0
H1394 H 0.14246 0.1321 0.61461 0.0
H1395 H 0.12874 0.16572 0.61785 0.0
H1396 H 0.16699 0.21431 0.63584 0.0
H1397 H 0.19531 0.19131 0.63838 0.0
C1398 C 0.19518 0.15234 0.62816 0.0
C1399 C 0.19287 0.13248 0.6216 0.0
C1400 C 0.17856 0.16525 0.62905 0.0
C1401 C 0.17357 0.12533 0.61742 0.0
C1402 C 0.15703 0.13793 0.61857 0.0
C1403 C 0.14319 0.17127 0.62264 0.0
C1404 C 0.14577 0.19176 0.62643 0.0
C1405 C 0.15943 0.15805 0.62374 0.0
C1406 C 0.16457 0.19862 0.6328 0.0
C1407 C 0.18082 0.18548 0.63414 0.0
H1408 H 0.80998 0.16107 0.62205 0.0
H1409 H 0.84809 0.1172 0.59428 0.0
H1410 H 0.8757 0.1408 0.59425 0.0
H1411 H 0.88831 0.17462 0.5993 0.0
H1412 H 0.8505 0.21925 0.62614 0.0
H1413 H 0.82368 0.19464 0.62955 0.0
C1414 C 0.82442 0.1566 0.61629 0.0
C1415 C 0.82687 0.1374 0.60804 0.0
C1416 C 0.8403 0.17044 0.61601 0.0
C1417 C 0.84569 0.13189 0.60058 0.0
C1418 C 0.86153 0.1454 0.60053 0.0
C1419 C 0.8743 0.17896 0.60612 0.0
C1420 C 0.87141 0.19882 0.61231 0.0
C1421 C 0.85888 0.16484 0.60776 0.0
C1422 C 0.85315 0.20408 0.62121 0.0
C1423 C 0.83776 0.19002 0.62309 0.0
H1424 H 0.20727 0.84684 0.62291 0.0
H1425 H 0.16948 0.89304 0.59844 0.0
H1426 H 0.14118 0.8703 0.59835 0.0
H1427 H 0.12789 0.83664 0.602 0.0
H1428 H 0.16517 0.78974 0.62569 0.0
H1429 H 0.19279 0.81342 0.62956 0.0
C1430 C 0.19276 0.852 0.61789 0.0
C1431 C 0.19059 0.87158 0.6105 0.0
C1432 C 0.17646 0.83868 0.61758 0.0
C1433 C 0.17166 0.87802 0.60403 0.0
C1434 C 0.15543 0.86501 0.60394 0.0
C1435 C 0.14197 0.8316 0.60823 0.0
C1436 C 0.14452 0.8114 0.61333 0.0
C1437 C 0.15779 0.84519 0.61016 0.0
C1438 C 0.16282 0.80521 0.62159 0.0
C1439 C 0.17865 0.81873 0.62372 0.0
H1440 H 0.1186 0.23175 0.47712 0.0
H1441 H 0.11214 0.29572 0.47302 0.0
H1442 H 0.11374 0.29835 0.5094 0.0
H1443 H 0.11424 0.2821 0.54252 0.0
H1444 H 0.12059 0.218 0.54598 0.0
H1445 H 0.1219 0.21593 0.50979 0.0
C1446 C 0.11769 0.24631 0.48414 0.0
C1447 C 0.11503 0.26347 0.47232 0.0
C1448 C 0.11851 0.24771 0.50502 0.0
C1449 C 0.11414 0.28223 0.48172 0.0
C1450 C 0.11499 0.28375 0.50255 0.0
C1451 C 0.11618 0.26771 0.53537 0.0
C1452 C 0.11708 0.25023 0.54706 0.0
C1453 C 0.11677 0.26654 0.51439 0.0
C1454 C 0.11965 0.23172 0.53746 0.0
C1455 C 0.12039 0.23048 0.5167 0.0
H1456 H 0.77981 0.11926 0.53539 0.0
H1457 H 0.71662 0.10973 0.54347 0.0
H1458 H 0.71156 0.11123 0.50732 0.0
H1459 H 0.72567 0.11209 0.47322 0.0
H1460 H 0.78913 0.12059 0.46586 0.0
H1461 H 0.79338 0.12277 0.50186 0.0
C1462 C 0.76486 0.1177 0.52932 0.0
C1463 C 0.74866 0.11417 0.54219 0.0
C1464 C 0.7621 0.11827 0.50857 0.0
C1465 C 0.7294 0.1124 0.53396 0.0
C1466 C 0.72649 0.11318 0.51326 0.0
C1467 C 0.74037 0.11473 0.47949 0.0
C1468 C 0.75707 0.11597 0.4668 0.0
C1469 C 0.74282 0.11565 0.50037 0.0
C1470 C 0.77603 0.11936 0.47523 0.0
C1471 C 0.7785 0.12061 0.49585 0.0
H1472 H 0.89327 0.77513 0.47356 0.0
H1473 H 0.90382 0.71173 0.46891 0.0
H1474 H 0.90131 0.70847 0.50515 0.0
H1475 H 0.89903 0.72418 0.53846 0.0
H1476 H 0.8893 0.78777 0.54252 0.0
H1477 H 0.88841 0.79028 0.50631 0.0
C1478 C 0.89486 0.76054 0.4804 0.0
C1479 C 0.89894 0.74376 0.46847 0.0
C1480 C 0.89363 0.75879 0.50124 0.0
C1481 C 0.90075 0.72496 0.47768 0.0
C1482 C 0.89937 0.72307 0.49845 0.0
C1483 C 0.89639 0.73851 0.53142 0.0
C1484 C 0.89443 0.75577 0.54325 0.0
C1485 C 0.89622 0.73996 0.51043 0.0
C1486 C 0.89107 0.77425 0.53383 0.0
C1487 C 0.89057 0.77574 0.51308 0.0
H1488 H 0.28395 0.89609 0.47127 0.0
H1489 H 0.21985 0.89012 0.46739 0.0
H1490 H 0.21769 0.88793 0.50357 0.0
H1491 H 0.23344 0.89053 0.53631 0.0
H1492 H 0.29735 0.89747 0.54084 0.0
H1493 H 0.30011 0.8962 0.50447 0.0
C1494 C 0.26954 0.89402 0.47833 0.0
C1495 C 0.25208 0.89347 0.46657 0.0
C1496 C 0.26833 0.89307 0.49929 0.0
C1497 C 0.23353 0.8908 0.47602 0.0
C1498 C 0.23226 0.88955 0.49675 0.0
C1499 C 0.24803 0.89158 0.52942 0.0
C1500 C 0.26513 0.89429 0.54136 0.0
C1501 C 0.24948 0.89113 0.50854 0.0
C1502 C 0.28391 0.89543 0.53207 0.0
C1503 C 0.2855 0.89478 0.51124 0.0
H1504 H 0.11938 0.77539 0.53305 0.0
H1505 H 0.10971 0.71195 0.53893 0.0
H1506 H 0.11227 0.70805 0.50276 0.0
H1507 H 0.1146 0.72311 0.46918 0.0
H1508 H 0.12338 0.78675 0.46382 0.0
H1509 H 0.12399 0.79 0.49999 0.0
C1510 C 0.11799 0.76066 0.52649 0.0
C1511 C 0.11417 0.74404 0.53875 0.0
C1512 C 0.11925 0.75854 0.50569 0.0
C1513 C 0.11257 0.72505 0.5299 0.0
C1514 C 0.11399 0.7228 0.50918 0.0
C1515 C 0.11695 0.73763 0.47593 0.0
C1516 C 0.11878 0.75467 0.46374 0.0
C1517 C 0.11696 0.7395 0.49688 0.0
C1518 C 0.12175 0.77339 0.47279 0.0
C1519 C 0.12208 0.77529 0.49351 0.0
H1520 H 0.23616 0.12041 0.47487 0.0
H1521 H 0.29927 0.10973 0.46763 0.0
H1522 H 0.30386 0.11098 0.50384 0.0
H1523 H 0.28934 0.11214 0.53776 0.0
H1524 H 0.22597 0.12192 0.5443 0.0
H1525 H 0.22221 0.12412 0.50824 0.0
C1526 C 0.25099 0.11854 0.48114 0.0
C1527 C 0.2673 0.11478 0.46847 0.0
C1528 C 0.25348 0.119 0.50194 0.0
C1529 C 0.28641 0.11258 0.47697 0.0
C1530 C 0.28904 0.11322 0.49771 0.0
C1531 C 0.27477 0.11507 0.5313 0.0
C1532 C 0.25794 0.11668 0.54378 0.0
C1533 C 0.27261 0.116 0.51038 0.0
C1534 C 0.23916 0.12041 0.5351 0.0
C1535 C 0.23697 0.12167 0.51444 0.0
H1536 H 0.89368 0.23436 0.5332 0.0
H1537 H 0.90142 0.29821 0.53688 0.0
H1538 H 0.89988 0.30067 0.50049 0.0
H1539 H 0.89901 0.28425 0.46746 0.0
H1540 H 0.89133 0.22029 0.46441 0.0
H1541 H 0.89003 0.21844 0.50061 0.0
C1542 C 0.89488 0.24886 0.52609 0.0
C1543 C 0.89788 0.26603 0.5378 0.0
C1544 C 0.89408 0.25017 0.50519 0.0
C1545 C 0.89915 0.28471 0.52827 0.0
C1546 C 0.89834 0.28613 0.50743 0.0
C1547 C 0.89678 0.26995 0.4747 0.0
C1548 C 0.8955 0.25243 0.46312 0.0
C1549 C 0.89619 0.2689 0.4957 0.0
C1550 C 0.89256 0.23403 0.47284 0.0
C1551 C 0.89183 0.23291 0.49361 0.0
H1552 H 0.72635 0.8961 0.46961 0.0
H1553 H 0.79015 0.88766 0.46554 0.0
H1554 H 0.79261 0.88584 0.50168 0.0
H1555 H 0.77732 0.88933 0.53453 0.0
H1556 H 0.71366 0.89794 0.53927 0.0
H1557 H 0.71052 0.89678 0.50293 0.0
C1558 C 0.74074 0.89359 0.47662 0.0
C1559 C 0.75804 0.89226 0.46478 0.0
C1560 C 0.74215 0.89271 0.4976 0.0
C1561 C 0.77657 0.88896 0.47419 0.0
C1562 C 0.77804 0.88792 0.49492 0.0
C1563 C 0.76271 0.89078 0.52766 0.0
C1564 C 0.74581 0.89392 0.53966 0.0
C1565 C 0.76102 0.89023 0.50678 0.0
C1566 C 0.72697 0.89555 0.53044 0.0
C1567 C 0.72516 0.89496 0.50962 0.0
H1568 H 0.47371 0.1096 0.28521 0.0
H1569 H 0.46809 0.12303 0.2224 0.0
H1570 H 0.50421 0.12476 0.21933 0.0
H1571 H 0.53739 0.11966 0.23358 0.0
H1572 H 0.54367 0.1058 0.29617 0.0
H1573 H 0.50742 0.10727 0.30021 0.0
C1574 C 0.48038 0.1132 0.27093 0.0
C1575 C 0.46812 0.11596 0.25403 0.0
C1576 C 0.50133 0.11395 0.26915 0.0
C1577 C 0.47708 0.12062 0.23564 0.0
C1578 C 0.49779 0.1216 0.23383 0.0
C1579 C 0.53089 0.11712 0.24817 0.0
C1580 C 0.54328 0.11241 0.26448 0.0
C1581 C 0.51006 0.11782 0.25035 0.0
C1582 C 0.53453 0.10941 0.28332 0.0
C1583 C 0.51376 0.11018 0.28563 0.0
H1584 H 0.89064 0.53357 0.23241 0.0
H1585 H 0.90566 0.53942 0.29479 0.0
H1586 H 0.90371 0.50318 0.29884 0.0
H1587 H 0.90067 0.46954 0.28385 0.0
H1588 H 0.88607 0.46437 0.22126 0.0
H1589 H 0.88476 0.50052 0.21825 0.0
C1590 C 0.89333 0.52698 0.24696 0.0
C1591 C 0.89851 0.53924 0.2632 0.0
C1592 C 0.89234 0.50616 0.24915 0.0
C1593 C 0.9017 0.53038 0.28198 0.0
C1594 C 0.90065 0.50962 0.28431 0.0
C1595 C 0.89689 0.47633 0.26965 0.0
C1596 C 0.8937 0.46418 0.25278 0.0
C1597 C 0.8964 0.4973 0.26789 0.0
C1598 C 0.88882 0.47329 0.23447 0.0
C1599 C 0.88808 0.49401 0.23269 0.0
H1600 H 0.53807 0.89333 0.28809 0.0
H1601 H 0.54314 0.89034 0.22391 0.0
H1602 H 0.50703 0.88884 0.22075 0.0
H1603 H 0.47397 0.89112 0.23572 0.0
H1604 H 0.46811 0.89451 0.29974 0.0
H1605 H 0.50444 0.89284 0.30338 0.0
C1606 C 0.53128 0.89208 0.27344 0.0
C1607 C 0.54341 0.89219 0.25627 0.0
C1608 C 0.51031 0.89141 0.27164 0.0
C1609 C 0.53427 0.89052 0.2374 0.0
C1610 C 0.51356 0.88965 0.23554 0.0
C1611 C 0.48058 0.89131 0.25052 0.0
C1612 C 0.46828 0.89315 0.2674 0.0
C1613 C 0.50143 0.89055 0.2525 0.0
C1614 C 0.47718 0.89315 0.28645 0.0
C1615 C 0.49799 0.89228 0.28855 0.0
H1616 H 0.11813 0.53893 0.2842 0.0
H1617 H 0.11985 0.54274 0.21988 0.0
H1618 H 0.12044 0.50654 0.21747 0.0
H1619 H 0.11776 0.47382 0.23323 0.0
H1620 H 0.11565 0.4693 0.29742 0.0
H1621 H 0.11814 0.50563 0.30022 0.0
C1622 C 0.11893 0.53184 0.26968 0.0
C1623 C 0.11873 0.54362 0.25226 0.0
C1624 C 0.11905 0.51083 0.26833 0.0
C1625 C 0.11977 0.53412 0.23356 0.0
C1626 C 0.1201 0.51337 0.23213 0.0
C1627 C 0.118 0.48072 0.24787 0.0
C1628 C 0.1163 0.46881 0.26507 0.0
C1629 C 0.11928 0.50158 0.24936 0.0
C1630 C 0.11688 0.47807 0.28391 0.0
C1631 C 0.11824 0.49888 0.28552 0.0
H1632 H 0.46917 0.89311 0.72738 0.0
H1633 H 0.46584 0.89248 0.79174 0.0
H1634 H 0.502 0.89016 0.79396 0.0
H1635 H 0.53465 0.89117 0.77798 0.0
H1636 H 0.53873 0.8924 0.71373 0.0
H1637 H 0.5023 0.89137 0.71117 0.0
C1638 C 0.47635 0.89218 0.74187 0.0
C1639 C 0.46473 0.89319 0.75935 0.0
C1640 C 0.49733 0.89109 0.7431 0.0
C1641 C 0.47434 0.89195 0.77801 0.0
C1642 C 0.49507 0.89063 0.77933 0.0
C1643 C 0.52763 0.89103 0.76337 0.0
C1644 C 0.53946 0.89208 0.74609 0.0
C1645 C 0.50672 0.89067 0.76201 0.0
C1646 C 0.53003 0.89166 0.72731 0.0
C1647 C 0.50916 0.89115 0.72583 0.0
H1648 H 0.11682 0.46869 0.7243 0.0
H1649 H 0.11963 0.46388 0.78853 0.0
H1650 H 0.12191 0.49997 0.79143 0.0
H1651 H 0.12009 0.53299 0.7762 0.0
H1652 H 0.11686 0.5386 0.71213 0.0
H1653 H 0.11803 0.50224 0.70875 0.0
C1654 C 0.11825 0.47553 0.7389 0.0
C1655 C 0.1178 0.46351 0.75616 0.0
C1656 C 0.11933 0.4965 0.74055 0.0
C1657 C 0.11968 0.47269 0.77497 0.0
C1658 C 0.12099 0.49338 0.77668 0.0
C1659 C 0.11983 0.52632 0.76146 0.0
C1660 C 0.11816 0.53856 0.74448 0.0
C1661 C 0.12032 0.50545 0.75963 0.0
C1662 C 0.11809 0.52958 0.72549 0.0
C1663 C 0.11868 0.50875 0.72354 0.0
H1664 H 0.46984 0.1103 0.72564 0.0
H1665 H 0.46698 0.12649 0.78795 0.0
H1666 H 0.50321 0.12841 0.78948 0.0
H1667 H 0.53569 0.12249 0.77423 0.0
H1668 H 0.53929 0.10558 0.71221 0.0
H1669 H 0.50288 0.10724 0.70944 0.0
C1670 C 0.47713 0.11455 0.73946 0.0
C1671 C 0.46563 0.11801 0.75671 0.0
C1672 C 0.49815 0.11537 0.74036 0.0
C1673 C 0.47539 0.12352 0.77449 0.0
C1674 C 0.49616 0.12462 0.7754 0.0
C1675 C 0.52858 0.11935 0.76002 0.0
C1676 C 0.54026 0.11368 0.74353 0.0
C1677 C 0.50769 0.12007 0.7586 0.0
C1678 C 0.53072 0.10993 0.72518 0.0
C1679 C 0.50986 0.11079 0.72361 0.0
H1680 H 0.89985 0.5417 0.72424 0.0
H1681 H 0.88652 0.54653 0.78709 0.0
H1682 H 0.88386 0.51041 0.78959 0.0
H1683 H 0.88818 0.47739 0.77487 0.0
H1684 H 0.90202 0.47186 0.71226 0.0
H1685 H 0.90136 0.50821 0.70874 0.0
C1686 C 0.89607 0.53486 0.73841 0.0
C1687 C 0.89362 0.54688 0.75548 0.0
C1688 C 0.89479 0.51391 0.73986 0.0
C1689 C 0.8887 0.53771 0.77372 0.0
C1690 C 0.88718 0.51701 0.7752 0.0
C1691 C 0.89088 0.48408 0.76038 0.0
C1692 C 0.89536 0.47187 0.74392 0.0
C1693 C 0.89068 0.50495 0.75851 0.0
C1694 C 0.89858 0.48087 0.72522 0.0
C1695 C 0.89829 0.50168 0.72321 0.0
H1696 H 0.23323 0.54093 0.11841 0.0
H1697 H 0.29575 0.54415 0.10333 0.0
H1698 H 0.29807 0.50772 0.10457 0.0
H1699 H 0.28144 0.47478 0.10678 0.0
H1700 H 0.21867 0.47231 0.12113 0.0
H1701 H 0.21747 0.50852 0.12344 0.0
C1702 C 0.24746 0.53373 0.11559 0.0
C1703 C 0.26422 0.54533 0.11056 0.0
C1704 C 0.24862 0.51281 0.11606 0.0
C1705 C 0.28256 0.53565 0.10718 0.0
C1706 C 0.28389 0.51478 0.1078 0.0
C1707 C 0.26759 0.48215 0.1107 0.0
C1708 C 0.25013 0.47076 0.11354 0.0
C1709 C 0.26689 0.50317 0.11175 0.0
C1710 C 0.2323 0.48062 0.11864 0.0
C1711 C 0.23157 0.50138 0.11996 0.0
H1712 H 0.23223 0.53758 0.8888 0.0
H1713 H 0.2965 0.54201 0.88991 0.0
H1714 H 0.29917 0.50559 0.88865 0.0
H1715 H 0.28307 0.47237 0.89002 0.0
H1716 H 0.21869 0.46867 0.88941 0.0
H1717 H 0.21634 0.50485 0.88756 0.0
C1718 C 0.24686 0.53064 0.8886 0.0
C1719 C 0.26413 0.54257 0.88965 0.0
C1720 C 0.24829 0.50974 0.88807 0.0
C1721 C 0.28294 0.53323 0.88916 0.0
C1722 C 0.28448 0.51238 0.88851 0.0
C1723 C 0.26854 0.47947 0.88921 0.0
C1724 C 0.25109 0.46773 0.89006 0.0
C1725 C 0.26723 0.50045 0.88837 0.0
C1726 C 0.23239 0.47724 0.88898 0.0
C1727 C 0.231 0.49799 0.88793 0.0
H1728 H 0.47005 0.28977 0.89609 0.0
H1729 H 0.46329 0.226 0.88944 0.0
H1730 H 0.49936 0.22208 0.8877 0.0
H1731 H 0.5328 0.23617 0.89079 0.0
H1732 H 0.54017 0.29974 0.89843 0.0
H1733 H 0.50398 0.30427 0.89682 0.0
C1734 C 0.47647 0.27506 0.89398 0.0
C1735 C 0.46392 0.2582 0.89309 0.0
C1736 C 0.49737 0.27281 0.89329 0.0
C1737 C 0.47254 0.23924 0.89038 0.0
C1738 C 0.4932 0.23695 0.88938 0.0
C1739 C 0.52657 0.25108 0.89191 0.0
C1740 C 0.53926 0.26755 0.89491 0.0
C1741 C 0.50577 0.25355 0.89127 0.0
C1742 C 0.53081 0.28674 0.89618 0.0
C1743 C 0.51008 0.28936 0.89532 0.0
H1744 H 0.72583 0.54178 0.90228 0.0
H1745 H 0.78847 0.54619 0.88775 0.0
H1746 H 0.79069 0.51005 0.88514 0.0
H1747 H 0.77592 0.47716 0.89008 0.0
H1748 H 0.71356 0.47198 0.9052 0.0
H1749 H 0.71015 0.50836 0.90419 0.0
C1750 C 0.73988 0.53485 0.89822 0.0
C1751 C 0.757 0.54675 0.89547 0.0
C1752 C 0.74118 0.51387 0.897 0.0
C1753 C 0.77508 0.53746 0.8902 0.0
C1754 C 0.7764 0.51674 0.8887 0.0
C1755 C 0.7615 0.48393 0.89297 0.0
C1756 C 0.7451 0.47182 0.89795 0.0
C1757 C 0.75971 0.5048 0.8926 0.0
C1758 C 0.72648 0.48091 0.90138 0.0
C1759 C 0.72453 0.50174 0.9009 0.0
H1760 H 0.47267 0.72638 0.89694 0.0
H1761 H 0.46702 0.79021 0.8898 0.0
H1762 H 0.50317 0.79353 0.8886 0.0
H1763 H 0.53632 0.77891 0.89238 0.0
H1764 H 0.54259 0.71528 0.90048 0.0
H1765 H 0.50636 0.71132 0.89826 0.0
C1766 C 0.47935 0.74097 0.89483 0.0
C1767 C 0.46708 0.75803 0.89365 0.0
C1768 C 0.5003 0.74286 0.89446 0.0
C1769 C 0.47603 0.77683 0.89095 0.0
C1770 C 0.49675 0.77877 0.89027 0.0
C1771 C 0.52984 0.76411 0.89348 0.0
C1772 C 0.54223 0.74745 0.8968 0.0
C1773 C 0.50902 0.76197 0.89248 0.0
C1774 C 0.53347 0.7284 0.898 0.0
C1775 C 0.51271 0.72612 0.89679 0.0
H1776 H 0.7219 0.53547 0.11914 0.0
H1777 H 0.7862 0.53956 0.12184 0.0
H1778 H 0.78872 0.50339 0.12372 0.0
H1779 H 0.7731 0.47057 0.12171 0.0
H1780 H 0.70892 0.46581 0.11832 0.0
H1781 H 0.70598 0.50216 0.11987 0.0
C1782 C 0.73644 0.52846 0.12042 0.0
C1783 C 0.75383 0.5403 0.12012 0.0
C1784 C 0.73785 0.50748 0.12125 0.0
C1785 C 0.77255 0.5309 0.12181 0.0
C1786 C 0.77404 0.51016 0.12289 0.0
C1787 C 0.75842 0.47742 0.12151 0.0
C1788 C 0.74128 0.46541 0.11969 0.0
C1789 C 0.75684 0.4983 0.12215 0.0
C1790 C 0.7224 0.47463 0.11966 0.0
C1791 C 0.7207 0.49546 0.12046 0.0
H1792 H 0.53719 0.77791 0.12091 0.0
H1793 H 0.54166 0.71405 0.11385 0.0
H1794 H 0.50521 0.71137 0.11367 0.0
H1795 H 0.47199 0.72767 0.11264 0.0
H1796 H 0.46838 0.7917 0.11947 0.0
H1797 H 0.50445 0.79369 0.12269 0.0
C1798 C 0.53024 0.76335 0.11952 0.0
C1799 C 0.5422 0.74625 0.1172 0.0
C1800 C 0.50933 0.76194 0.11924 0.0
C1801 C 0.53286 0.72749 0.11565 0.0
C1802 C 0.51198 0.72596 0.11544 0.0
C1803 C 0.47908 0.74201 0.11507 0.0
C1804 C 0.46739 0.75951 0.11555 0.0
C1805 C 0.50005 0.74315 0.11679 0.0
C1806 C 0.4769 0.77797 0.1188 0.0
C1807 C 0.4976 0.77917 0.12065 0.0
H1808 H 0.53276 0.28484 0.11305 0.0
H1809 H 0.53585 0.22092 0.12084 0.0
H1810 H 0.49962 0.21912 0.12269 0.0
H1811 H 0.46708 0.23502 0.11915 0.0
H1812 H 0.46325 0.29874 0.11029 0.0
H1813 H 0.49965 0.30128 0.11207 0.0
C1814 C 0.52551 0.27058 0.11546 0.0
C1815 C 0.53706 0.25303 0.11661 0.0
C1816 C 0.5045 0.26956 0.11618 0.0
C1817 C 0.52738 0.23465 0.11969 0.0
C1818 C 0.50662 0.23358 0.12075 0.0
C1819 C 0.47413 0.24953 0.1178 0.0
C1820 C 0.46237 0.26662 0.11438 0.0
C1821 C 0.49503 0.25085 0.11852 0.0
C1822 C 0.47187 0.2853 0.11287 0.0
C1823 C 0.49273 0.28676 0.11381 0.0
H1824 H 0.61082 0.78575 0.04041 0.0
H1825 H 0.62375 0.72273 0.04495 0.0
H1826 H 0.62601 0.72034 0.00881 0.0
H1827 H 0.62146 0.73525 0.97588 0.0
H1828 H 0.60796 0.79804 0.97069 0.0
H1829 H 0.60905 0.8014 0.00702 0.0
C1830 C 0.61442 0.77156 0.03351 0.0
C1831 C 0.61688 0.75441 0.04547 0.0
C1832 C 0.61547 0.77018 0.01255 0.0
C1833 C 0.62156 0.73616 0.0362 0.0
C1834 C 0.62285 0.73474 0.01548 0.0
C1835 C 0.61894 0.74974 0.98263 0.0
C1836 C 0.61442 0.76631 0.97051 0.0
C1837 C 0.61936 0.75153 1.0035 0.0
C1838 C 0.61142 0.785 0.9796 0.0
C1839 C 0.61196 0.78692 1.00042 0.0
H1840 H 0.2258 0.6124 0.9674 0.0
H1841 H 0.289 0.62392 0.96204 0.0
H1842 H 0.2919 0.6269 0.99808 0.0
H1843 H 0.27735 0.62341 0.03122 0.0
H1844 H 0.21439 0.6113 0.03733 0.0
H1845 H 0.21056 0.61166 1.00102 0.0
C1846 C 0.24014 0.61584 0.9741 0.0
C1847 C 0.25718 0.6177 0.96195 0.0
C1848 C 0.24181 0.61732 0.99503 0.0
C1849 C 0.27565 0.62218 0.97095 0.0
C1850 C 0.27736 0.62389 0.99162 0.0
C1851 C 0.26272 0.62105 0.02467 0.0
C1852 C 0.24624 0.61713 0.03706 0.0
C1853 C 0.26066 0.62102 1.00382 0.0
C1854 C 0.22737 0.61431 0.02821 0.0
C1855 C 0.22517 0.61442 0.00741 0.0
H1856 H 0.38595 0.28188 0.0351 0.0
H1857 H 0.39287 0.21806 0.04076 0.0
H1858 H 0.39157 0.21458 1.00445 0.0
H1859 H 0.39152 0.2301 0.97093 0.0
H1860 H 0.38558 0.29411 0.96597 0.0
H1861 H 0.38332 0.29697 1.00208 0.0
C1862 C 0.38698 0.26715 0.02846 0.0
C1863 C 0.38971 0.25029 0.04071 0.0
C1864 C 0.38652 0.26528 0.00761 0.0
C1865 C 0.39083 0.23133 0.03175 0.0
C1866 C 0.39016 0.22933 0.01095 0.0
C1867 C 0.38943 0.24463 0.97775 0.0
C1868 C 0.38892 0.26187 0.9657 0.0
C1869 C 0.38845 0.24626 0.99869 0.0
C1870 C 0.38623 0.28059 0.97483 0.0
C1871 C 0.38494 0.28227 0.99552 0.0
H1872 H 0.78133 0.39953 0.04091 0.0
H1873 H 0.71831 0.38614 0.04358 0.0
H1874 H 0.71664 0.38519 0.00732 0.0
H1875 H 0.73217 0.39098 0.97493 0.0
H1876 H 0.79497 0.40497 0.97166 0.0
H1877 H 0.79761 0.40262 0.008 0.0
C1878 C 0.7673 0.39611 0.03357 0.0
C1879 C 0.74994 0.39313 0.04504 0.0
C1880 C 0.76633 0.39583 0.01257 0.0
C1881 C 0.73189 0.3887 0.03521 0.0
C1882 C 0.73088 0.38817 0.01443 0.0
C1883 C 0.7465 0.39335 0.9821 0.0
C1884 C 0.76328 0.39837 0.97053 0.0
C1885 C 0.74788 0.39219 1.00297 0.0
C1886 C 0.78177 0.40115 0.98015 0.0
C1887 C 0.78328 0.39988 1.00096 0.0
H1888 H 0.61628 0.2767 0.97432 0.0
H1889 H 0.60642 0.21356 0.96611 0.0
H1890 H 0.60704 0.20863 1.00228 0.0
H1891 H 0.60738 0.22284 0.03638 0.0
H1892 H 0.61633 0.28626 0.04384 0.0
H1893 H 0.61915 0.29038 0.00789 0.0
C1894 C 0.61446 0.26179 0.98037 0.0
C1895 C 0.61111 0.24558 0.96744 0.0
C1896 C 0.61452 0.25911 1.00113 0.0
C1897 C 0.60897 0.22636 0.97566 0.0
C1898 C 0.60924 0.22353 0.99637 0.0
C1899 C 0.61022 0.2375 0.03015 0.0
C1900 C 0.61143 0.25423 0.04285 0.0
C1901 C 0.61156 0.23988 0.00929 0.0
C1902 C 0.61511 0.27313 0.03447 0.0
C1903 C 0.61674 0.27554 0.01387 0.0
H1904 H 0.7843 0.61518 0.04195 0.0
H1905 H 0.71993 0.61564 0.04568 0.0
H1906 H 0.7175 0.61841 0.00957 0.0
H1907 H 0.73333 0.61806 0.97682 0.0
H1908 H 0.7976 0.61705 0.97245 0.0
H1909 H 0.80032 0.61737 0.00884 0.0
C1910 C 0.76975 0.61614 0.03489 0.0
C1911 C 0.75234 0.61499 0.04659 0.0
C1912 C 0.7684 0.61752 0.01395 0.0
C1913 C 0.73361 0.61629 0.03712 0.0
C1914 C 0.73217 0.61787 0.01641 0.0
C1915 C 0.74797 0.61809 0.98377 0.0
C1916 C 0.76522 0.61733 0.97185 0.0
C1917 C 0.74943 0.61806 1.00467 0.0
C1918 C 0.78405 0.61757 0.98121 0.0
C1919 C 0.78562 0.61768 1.00205 0.0
H1920 H 0.39407 0.78779 0.97101 0.0
H1921 H 0.39056 0.72351 0.96717 0.0
H1922 H 0.38912 0.72114 1.00334 0.0
H1923 H 0.39168 0.73683 0.03607 0.0
H1924 H 0.39567 0.80095 0.04069 0.0
H1925 H 0.39386 0.80383 1.00431 0.0
C1926 C 0.39269 0.77329 0.97808 0.0
C1927 C 0.39265 0.75586 0.9663 0.0
C1928 C 0.3921 0.77196 0.99907 0.0
C1929 C 0.39084 0.73719 0.97578 0.0
C1930 C 0.39003 0.73579 0.99652 0.0
C1931 C 0.39199 0.75148 0.02918 0.0
C1932 C 0.39404 0.76862 0.04113 0.0
C1933 C 0.39113 0.75301 0.00831 0.0
C1934 C 0.39416 0.78748 0.03188 0.0
C1935 C 0.3932 0.78914 0.01105 0.0
H1936 H 0.27173 0.3955 0.03442 0.0
H1937 H 0.20751 0.39856 0.03861 0.0
H1938 H 0.20481 0.3963 1.00227 0.0
H1939 H 0.22091 0.39619 0.96909 0.0
H1940 H 0.28525 0.39378 0.96555 0.0
H1941 H 0.28757 0.39291 1.00177 0.0
C1942 C 0.25709 0.39551 0.02745 0.0
C1943 C 0.23987 0.3974 0.03928 0.0
C1944 C 0.25565 0.39442 0.00658 0.0
C1945 C 0.22105 0.39718 0.02991 0.0
C1946 C 0.21948 0.39595 0.00909 0.0
C1947 C 0.23542 0.3952 0.97624 0.0
C1948 C 0.25287 0.39525 0.96454 0.0
C1949 C 0.23672 0.39496 0.99724 0.0
C1950 C 0.27155 0.39396 0.97411 0.0
C1951 C 0.27292 0.39348 0.99488 0.0
H1952 H 0.03945 0.61148 0.78383 0.0
H1953 H 0.04415 0.61518 0.71964 0.0
H1954 H 0.0082 0.61899 0.71684 0.0
H1955 H 0.97519 0.61884 0.73211 0.0
H1956 H 0.96972 0.61503 0.79615 0.0
H1957 H 0.00608 0.61399 0.79944 0.0
C1958 C 0.03263 0.61333 0.76926 0.0
C1959 C 0.04459 0.6128 0.75199 0.0
C1960 C 0.01174 0.61544 0.76766 0.0
C1961 C 0.03542 0.61532 0.73323 0.0
C1962 C 0.01479 0.61751 0.73156 0.0
C1963 C 0.9819 0.61797 0.74683 0.0
C1964 C 0.96967 0.61683 0.76382 0.0
C1965 C 1.00277 0.6172 0.74862 0.0
C1966 C 0.97872 0.61591 0.78278 0.0
C1967 C 0.99955 0.61522 0.78468 0.0
H1968 H 0.39273 0.97408 0.78825 0.0
H1969 H 0.3916 0.96841 0.72406 0.0
H1970 H 0.39016 1.00452 0.7206 0.0
H1971 H 0.39177 0.03775 0.73546 0.0
H1972 H 0.39345 0.04403 0.79955 0.0
H1973 H 0.3919 0.00776 0.80331 0.0
C1974 C 0.39191 0.98073 0.77352 0.0
C1975 C 0.39248 0.96846 0.75646 0.0
C1976 C 0.3913 1.00168 0.77157 0.0
C1977 C 0.39139 0.97741 0.73748 0.0
C1978 C 0.39057 0.99812 0.73545 0.0
C1979 C 0.39163 0.03125 0.75029 0.0
C1980 C 0.39291 0.04367 0.76717 0.0
C1981 C 0.39094 0.0104 0.75235 0.0
C1982 C 0.39253 0.03488 0.78625 0.0
C1983 C 0.39171 0.0141 0.78843 0.0
H1984 H 0.03577 0.39574 0.78482 0.0
H1985 H 0.0417 0.38934 0.72098 0.0
H1986 H 0.00556 0.389 0.7173 0.0
H1987 H 0.97239 0.39323 0.73165 0.0
H1988 H 0.96585 0.40053 0.79529 0.0
H1989 H 1.002 0.3976 0.79956 0.0
C1990 C 0.02915 0.39398 0.77015 0.0
C1991 C 0.0415 0.39275 0.7532 0.0
C1992 C 0.00821 0.39411 0.76804 0.0
C1993 C 0.03262 0.39052 0.73429 0.0
C1994 C 0.01191 0.39033 0.73213 0.0
C1995 C 0.97879 0.39401 0.74651 0.0
C1996 C 0.96636 0.39729 0.76308 0.0
C1997 C 0.99958 0.39257 0.74883 0.0
C1998 C 0.97501 0.39809 0.78222 0.0
C1999 C 0.99573 0.39647 0.78468 0.0
H2000 H 0.60814 0.9704 0.78394 0.0
H2001 H 0.62045 0.96502 0.72093 0.0
H2002 H 0.62294 1.00112 0.71804 0.0
H2003 H 0.61879 0.03424 0.73251 0.0
H2004 H 0.60579 0.04037 0.79525 0.0
H2005 H 0.60668 1.00406 0.79913 0.0
C2006 C 0.61165 0.97712 0.76965 0.0
C2007 C 0.61388 0.96495 0.75265 0.0
C2008 C 0.61282 0.99807 0.76797 0.0
C2009 C 0.61843 0.97396 0.73424 0.0
C2010 C 0.61986 0.99465 0.73254 0.0
C2011 C 0.61633 0.0277 0.7471 0.0
C2012 C 0.61201 0.04007 0.7635 0.0
C2013 C 0.61661 0.00686 0.74918 0.0
C2014 C 0.6091 0.03125 0.78233 0.0
C2015 C 0.60952 0.01045 0.78455 0.0
H2016 H 0.97256 0.38981 0.27661 0.0
H2017 H 0.96816 0.39422 0.21251 0.0
H2018 H 1.00461 0.39439 0.20998 0.0
H2019 H 0.03776 0.39614 0.22633 0.0
H2020 H 0.04135 0.39204 0.29059 0.0
H2021 H 0.00527 0.38885 0.29259 0.0
C2022 C 0.97952 0.39062 0.26203 0.0
C2023 C 0.96759 0.3922 0.2448 0.0
C2024 C 1.00042 0.39093 0.26071 0.0
C2025 C 0.97695 0.39301 0.22604 0.0
C2026 C 0.99782 0.39321 0.22459 0.0
C2027 C 0.03067 0.39432 0.24075 0.0
C2028 C 0.04235 0.39457 0.25828 0.0
C2029 C 0.00972 0.39262 0.24187 0.0
C2030 C 0.03283 0.39211 0.27683 0.0
C2031 C 0.01214 0.39028 0.27802 0.0
H2032 H 0.62196 0.03436 0.27668 0.0
H2033 H 0.6111 0.04012 0.21344 0.0
H2034 H 0.61252 1.00381 0.20976 0.0
H2035 H 0.61378 0.97019 0.22514 0.0
H2036 H 0.62376 0.96518 0.28863 0.0
H2037 H 0.62589 1.00132 0.29145 0.0
C2038 C 0.62009 0.02774 0.26202 0.0
C2039 C 0.61622 0.04002 0.24541 0.0
C2040 C 0.62066 0.00689 0.26005 0.0
C2041 C 0.61403 0.03108 0.22652 0.0
C2042 C 0.61477 0.01028 0.22441 0.0
C2043 C 0.61675 0.97701 0.23952 0.0
C2044 C 0.61841 0.96493 0.25667 0.0
C2045 C 0.61764 0.99799 0.24115 0.0
C2046 C 0.6222 0.97406 0.2752 0.0
C2047 C 0.62341 0.99477 0.27686 0.0
H2048 H 0.04046 0.61282 0.22215 0.0
H2049 H 0.04614 0.62256 0.28561 0.0
H2050 H 0.00998 0.62341 0.28891 0.0
H2051 H 0.97687 0.61848 0.27453 0.0
H2052 H 0.97052 0.60782 0.21132 0.0
H2053 H 0.00672 0.61045 0.20719 0.0
C2054 C 0.03378 0.61546 0.23663 0.0
C2055 C 0.04605 0.61745 0.25362 0.0
C2056 C 0.01282 0.61559 0.23854 0.0
C2057 C 0.0371 0.62079 0.2723 0.0
C2058 C 0.01638 0.62126 0.27423 0.0
C2059 C 0.98333 0.61689 0.25978 0.0
C2060 C 0.97095 0.61274 0.24331 0.0
C2061 C 1.00412 0.61818 0.25756 0.0
C2062 C 0.97966 0.61095 0.2243 0.0
C2063 C 1.00039 0.61239 0.22194 0.0
H2064 H 0.39167 0.03739 0.27774 0.0
H2065 H 0.39779 0.04191 0.21382 0.0
H2066 H 0.39711 0.00547 0.21106 0.0
H2067 H 0.39771 0.97226 0.22724 0.0
H2068 H 0.39187 0.9685 0.29133 0.0
H2069 H 0.38945 1.00464 0.29348 0.0
C2070 C 0.39268 0.03045 0.26315 0.0
C2071 C 0.39499 0.0424 0.24604 0.0
C2072 C 0.39248 0.00956 0.2617 0.0
C2073 C 0.39601 0.0331 0.22725 0.0
C2074 C 0.39573 0.01224 0.22567 0.0
C2075 C 0.39568 0.97933 0.24165 0.0
C2076 C 0.39523 0.96758 0.25911 0.0
C2077 C 0.39442 1.0003 0.24286 0.0
C2078 C 0.39248 0.97707 0.27764 0.0
C2079 C 0.39109 0.99779 0.27891 0.0
H2080 H 0.73893 0.03572 0.62183 0.0
H2081 H 0.80096 0.0398 0.60506 0.0
H2082 H 0.80363 1.00337 0.60553 0.0
H2083 H 0.78737 0.97023 0.60763 0.0
H2084 H 0.72507 0.96691 0.62381 0.0
H2085 H 0.72362 1.00306 0.62674 0.0
C2086 C 0.75312 0.02871 0.61846 0.0
C2087 C 0.76965 0.04055 0.61321 0.0
C2088 C 0.75449 0.00779 0.61852 0.0
C2089 C 0.78796 0.0311 0.60912 0.0
C2090 C 0.78948 0.01023 0.60929 0.0
C2091 C 0.77357 0.9774 0.61209 0.0
C2092 C 0.75631 0.96579 0.61526 0.0
C2093 C 0.77271 0.99839 0.61352 0.0
C2094 C 0.73855 0.9754 0.62105 0.0
C2095 C 0.73767 0.99613 0.62273 0.0
H2096 H 0.78475 0.03599 0.39232 0.0
H2097 H 0.72045 0.04046 0.39434 0.0
H2098 H 0.71758 1.00436 0.39208 0.0
H2099 H 0.7331 0.9714 0.39221 0.0
H2100 H 0.79732 0.96626 0.39071 0.0
H2101 H 0.80035 1.00262 0.38983 0.0
C2102 C 0.77012 0.02908 0.39202 0.0
C2103 C 0.75288 0.04101 0.39372 0.0
C2104 C 0.76851 0.00813 0.39091 0.0
C2105 C 0.73402 0.03173 0.39326 0.0
C2106 C 0.73233 0.01103 0.39197 0.0
C2107 C 0.74779 0.97817 0.39149 0.0
C2108 C 0.76494 0.96605 0.39172 0.0
C2109 C 0.74945 0.99906 0.39122 0.0
C2110 C 0.78383 0.97518 0.39061 0.0
C2111 C 0.78559 0.99601 0.39018 0.0
H2112 H 0.97752 0.73113 0.38798 0.0
H2113 H 0.97098 0.79411 0.39981 0.0
H2114 H 0.00713 0.79854 0.39702 0.0
H2115 H 0.04093 0.78382 0.39436 0.0
H2116 H 0.04678 0.72057 0.38335 0.0
H2117 H 0.01063 0.71707 0.38249 0.0
C2118 C 0.98393 0.74589 0.38979 0.0
C2119 C 0.97152 0.7622 0.39434 0.0
C2120 C 1.00469 0.74829 0.38838 0.0
C2121 C 0.98015 0.78125 0.39637 0.0
C2122 C 1.00085 0.78379 0.39484 0.0
C2123 C 0.03428 0.76935 0.39142 0.0
C2124 C 0.0466 0.75246 0.38912 0.0
C2125 C 0.01333 0.76732 0.39129 0.0
C2126 C 0.0377 0.7338 0.38538 0.0
C2127 C 0.017 0.73175 0.38491 0.0
H2128 H 0.27613 0.03652 0.38981 0.0
H2129 H 0.21314 0.04409 0.40089 0.0
H2130 H 0.20835 0.00792 0.39921 0.0
H2131 H 0.22269 0.97389 0.39756 0.0
H2132 H 0.28595 0.96701 0.3873 0.0
H2133 H 0.28987 1.00307 0.38556 0.0
C2134 C 0.26129 0.03033 0.39168 0.0
C2135 C 0.24507 0.04307 0.39567 0.0
C2136 C 0.25868 0.00955 0.39095 0.0
C2137 C 0.22593 0.03469 0.39786 0.0
C2138 C 0.22319 0.01397 0.39697 0.0
C2139 C 0.23727 0.98029 0.39463 0.0
C2140 C 0.25402 0.96769 0.39276 0.0
C2141 C 0.23954 1.0012 0.39395 0.0
C2142 C 0.27281 0.97628 0.38901 0.0
C2143 C 0.2751 0.99695 0.38802 0.0
H2144 H 0.03862 0.22412 0.39802 0.0
H2145 H 0.04286 0.28808 0.39072 0.0
H2146 H 0.00694 0.29024 0.38617 0.0
H2147 H 0.97405 0.27469 0.38718 0.0
H2148 H 0.96899 0.21093 0.39478 0.0
H2149 H 0.0054 0.20801 0.39593 0.0
C2150 C 0.03172 0.23849 0.39518 0.0
C2151 C 0.04352 0.25592 0.395 0.0
C2152 C 0.01084 0.23973 0.39269 0.0
C2153 C 0.03424 0.2744 0.39119 0.0
C2154 C 0.01363 0.2757 0.38857 0.0
C2155 C 0.98087 0.26009 0.38887 0.0
C2156 C 0.96875 0.2431 0.39111 0.0
C2157 C 1.00175 0.25855 0.38976 0.0
C2158 C 0.97792 0.22429 0.39304 0.0
C2159 C 0.99877 0.22262 0.39382 0.0
H2160 H 0.22896 0.03635 0.61443 0.0
H2161 H 0.29304 0.04138 0.61973 0.0
H2162 H 0.29603 0.00523 0.62144 0.0
H2163 H 0.28099 0.97219 0.61856 0.0
H2164 H 0.21708 0.96654 0.61241 0.0
H2165 H 0.21354 1.00283 0.61416 0.0
C2166 C 0.24354 0.02955 0.61624 0.0
C2167 C 0.26075 0.04163 0.61673 0.0
C2168 C 0.24525 0.00859 0.61694 0.0
C2169 C 0.27954 0.03251 0.61909 0.0
C2170 C 0.2813 0.01179 0.62007 0.0
C2171 C 0.26624 0.97883 0.6178 0.0
C2172 C 0.24937 0.96659 0.61515 0.0
C2173 C 0.26432 0.99968 0.61853 0.0
C2174 C 0.23036 0.97555 0.61438 0.0
C2175 C 0.22832 0.99633 0.61531 0.0
H2176 H 0.97347 0.2252 0.61207 0.0
H2177 H 0.97046 0.28921 0.61944 0.0
H2178 H 0.0064 0.29068 0.62402 0.0
H2179 H 0.03898 0.27451 0.62302 0.0
H2180 H 0.04288 0.21068 0.61541 0.0
H2181 H 0.00642 0.20845 0.61419 0.0
C2182 C 0.98065 0.23942 0.61493 0.0
C2183 C 0.96918 0.25708 0.61512 0.0
C2184 C 1.00155 0.24026 0.61744 0.0
C2185 C 0.97881 0.27537 0.61895 0.0
C2186 C 0.99943 0.27627 0.62159 0.0
C2187 C 0.03189 0.26005 0.62132 0.0
C2188 C 0.0437 0.24283 0.6191 0.0
C2189 C 0.01099 0.2589 0.6204 0.0
C2190 C 0.03419 0.2242 0.61714 0.0
C2191 C 0.01331 0.22293 0.61632 0.0
H2192 H 0.03614 0.73356 0.62029 0.0
H2193 H 0.04365 0.79613 0.60691 0.0
H2194 H 0.00756 0.80115 0.60923 0.0
H2195 H 0.97351 0.78698 0.61184 0.0
H2196 H 0.96669 0.72414 0.6245 0.0
H2197 H 1.00276 0.72015 0.62586 0.0
C2198 C 0.02995 0.74836 0.61807 0.0
C2199 C 0.04263 0.76437 0.6132 0.0
C2200 C 0.00921 0.7511 0.6192 0.0
C2201 C 0.03428 0.78348 0.61061 0.0
C2202 C 0.0136 0.78637 0.61187 0.0
C2203 C 0.97993 0.77251 0.61525 0.0
C2204 C 0.96735 0.75586 0.61784 0.0
C2205 C 1.00086 0.77018 0.61569 0.0
C2206 C 0.97596 0.73719 0.62221 0.0
C2207 C 0.99663 0.73485 0.62297 0.0
loop_
_geom_bond_atom_site_label_1
_geom_bond_atom_site_label_2
_geom_bond_distance
_geom_bond_site_symmetry_2
_ccdc_geom_bond_type
O0 Cd1 2.223 . S
O0 C8 1.315 . S
Cd1 O0 2.223 . S
Cd1 O4 2.297 . S
Cd1 O5 2.439 . S
Cd1 O11 2.240 . S
Cd2 O3 2.240 . S
Cd2 O10 2.223 . S
Cd2 O12 2.297 . S
Cd2 O13 2.439 . S
O3 Cd2 2.240 . S
O3 C8 1.279 . S
O4 Cd1 2.297 . S
O4 C6 1.247 . S
O5 Cd1 2.439 . S
O5 C6 1.208 . S
C6 O4 1.247 . S
C6 O5 1.208 . S
C7 O12 1.247 . S
C7 O13 1.208 . S
C8 O0 1.315 . S
C8 O3 1.279 . S
C9 O10 1.315 . S
C9 O11 1.279 . S
O10 Cd2 2.223 . S
O10 C9 1.315 . S
O11 Cd1 2.240 . S
O11 C9 1.279 . S
O12 Cd2 2.297 . S
O12 C7 1.247 . S
O13 Cd2 2.439 . S
O13 C7 1.208 . S
O14 Cd15 2.223 . S
O14 C22 1.315 . S
Cd15 O14 2.223 . S
Cd15 O18 2.297 . S
Cd15 O19 2.439 . S
Cd15 O25 2.240 . S
Cd16 O17 2.240 . S
Cd16 O24 2.223 . S
Cd16 O26 2.297 . S
Cd16 O27 2.439 . S
O17 Cd16 2.240 . S
O17 C22 1.279 . S
O18 Cd15 2.297 . S
O18 C20 1.247 . S
O19 Cd15 2.439 . S
O19 C20 1.208 . S
C20 O18 1.247 . S
C20 O19 1.208 . S
C21 O26 1.247 . S
C21 O27 1.208 . S
C22 O14 1.315 . S
C22 O17 1.279 . S
C23 O24 1.315 . S
C23 O25 1.279 . S
O24 Cd16 2.223 . S
O24 C23 1.315 . S
O25 Cd15 2.240 . S
O25 C23 1.279 . S
O26 Cd16 2.297 . S
O26 C21 1.247 . S
O27 Cd16 2.439 . S
O27 C21 1.208 . S
O28 Cd29 2.223 . S
O28 C36 1.315 . S
Cd29 O28 2.223 . S
Cd29 O32 2.297 . S
Cd29 O33 2.439 . S
Cd29 O39 2.240 . S
Cd30 O31 2.240 . S
Cd30 O38 2.223 . S
Cd30 O40 2.297 . S
Cd30 O41 2.439 . S
O31 Cd30 2.240 . S
O31 C36 1.279 . S
O32 Cd29 2.297 . S
O32 C34 1.247 . S
O33 Cd29 2.439 . S
O33 C34 1.208 . S
C34 O32 1.247 . S
C34 O33 1.208 . S
C35 O40 1.247 . S
C35 O41 1.208 . S
C36 O28 1.315 . S
C36 O31 1.279 . S
C37 O38 1.315 . S
C37 O39 1.279 . S
O38 Cd30 2.223 . S
O38 C37 1.315 . S
O39 Cd29 2.240 . S
O39 C37 1.279 . S
O40 Cd30 2.297 . S
O40 C35 1.247 . S
O41 Cd30 2.439 . S
O41 C35 1.208 . S
O42 Cd43 2.223 . S
O42 C50 1.315 . S
Cd43 O42 2.223 . S
Cd43 O46 2.297 . S
Cd43 O47 2.439 . S
Cd43 O53 2.240 . S
Cd44 O45 2.240 . S
Cd44 O52 2.223 . S
Cd44 O54 2.297 . S
Cd44 O55 2.439 . S
O45 Cd44 2.240 . S
O45 C50 1.279 . S
O46 Cd43 2.297 . S
O46 C48 1.247 . S
O47 Cd43 2.439 . S
O47 C48 1.208 . S
C48 O46 1.247 . S
C48 O47 1.208 . S
C49 O54 1.247 . S
C49 O55 1.208 . S
C50 O42 1.315 . S
C50 O45 1.279 . S
C51 O52 1.315 . S
C51 O53 1.279 . S
O52 Cd44 2.223 . S
O52 C51 1.315 . S
O53 Cd43 2.240 . S
O53 C51 1.279 . S
O54 Cd44 2.297 . S
O54 C49 1.247 . S
O55 Cd44 2.439 . S
O55 C49 1.208 . S
O56 Cd57 2.223 . S
O56 C64 1.315 . S
Cd57 O56 2.223 . S
Cd57 O60 2.297 . S
Cd57 O61 2.439 . S
Cd57 O67 2.240 . S
Cd58 O59 2.240 . S
Cd58 O66 2.223 . S
Cd58 O68 2.297 . S
Cd58 O69 2.439 . S
O59 Cd58 2.240 . S
O59 C64 1.279 . S
O60 Cd57 2.297 . S
O60 C62 1.247 . S
O61 Cd57 2.439 . S
O61 C62 1.208 . S
C62 O60 1.247 . S
C62 O61 1.208 . S
C63 O68 1.247 . S
C63 O69 1.208 . S
C64 O56 1.315 . S
C64 O59 1.279 . S
C65 O66 1.315 . S
C65 O67 1.279 . S
O66 Cd58 2.223 . S
O66 C65 1.315 . S
O67 Cd57 2.240 . S
O67 C65 1.279 . S
O68 Cd58 2.297 . S
O68 C63 1.247 . S
O69 Cd58 2.439 . S
O69 C63 1.208 . S
O70 Cd71 2.223 . S
O70 C78 1.315 . S
Cd71 O70 2.223 . S
Cd71 O74 2.297 . S
Cd71 O75 2.439 . S
Cd71 O81 2.240 . S
Cd72 O73 2.240 . S
Cd72 O80 2.223 . S
Cd72 O82 2.297 . S
Cd72 O83 2.439 . S
O73 Cd72 2.240 . S
O73 C78 1.279 . S
O74 Cd71 2.297 . S
O74 C76 1.247 . S
O75 Cd71 2.439 . S
O75 C76 1.208 . S
C76 O74 1.247 . S
C76 O75 1.208 . S
C77 O82 1.247 . S
C77 O83 1.208 . S
C78 O70 1.315 . S
C78 O73 1.279 . S
C79 O80 1.315 . S
C79 O81 1.279 . S
O80 Cd72 2.223 . S
O80 C79 1.315 . S
O81 Cd71 2.240 . S
O81 C79 1.279 . S
O82 Cd72 2.297 . S
O82 C77 1.247 . S
O83 Cd72 2.439 . S
O83 C77 1.208 . S
O84 Cd85 2.223 . S
O84 C92 1.315 . S
Cd85 O84 2.223 . S
Cd85 O88 2.297 . S
Cd85 O89 2.439 . S
Cd85 O95 2.240 . S
Cd86 O87 2.240 . S
Cd86 O94 2.223 . S
Cd86 O96 2.297 . S
Cd86 O97 2.439 . S
O87 Cd86 2.240 . S
O87 C92 1.279 . S
O88 Cd85 2.297 . S
O88 C90 1.247 . S
O89 Cd85 2.439 . S
O89 C90 1.208 . S
C90 O88 1.247 . S
C90 O89 1.208 . S
C91 O96 1.247 . S
C91 O97 1.208 . S
C92 O84 1.315 . S
C92 O87 1.279 . S
C93 O94 1.315 . S
C93 O95 1.279 . S
O94 Cd86 2.223 . S
O94 C93 1.315 . S
O95 Cd85 2.240 . S
O95 C93 1.279 . S
O96 Cd86 2.297 . S
O96 C91 1.247 . S
O97 Cd86 2.439 . S
O97 C91 1.208 . S
O98 Cd99 2.223 . S
O98 C106 1.315 . S
Cd99 O98 2.223 . S
Cd99 O102 2.297 . S
Cd99 O103 2.439 . S
Cd99 O109 2.240 . S
Cd100 O101 2.240 . S
Cd100 O108 2.223 . S
Cd100 O110 2.297 . S
Cd100 O111 2.439 . S
O101 Cd100 2.240 . S
O101 C106 1.279 . S
O102 Cd99 2.297 . S
O102 C104 1.247 . S
O103 Cd99 2.439 . S
O103 C104 1.208 . S
C104 O102 1.247 . S
C104 O103 1.208 . S
C105 O110 1.247 . S
C105 O111 1.208 . S
C106 O98 1.315 . S
C106 O101 1.279 . S
C107 O108 1.315 . S
C107 O109 1.279 . S
O108 Cd100 2.223 . S
O108 C107 1.315 . S
O109 Cd99 2.240 . S
O109 C107 1.279 . S
O110 Cd100 2.297 . S
O110 C105 1.247 . S
O111 Cd100 2.439 . S
O111 C105 1.208 . S
O112 Cd113 2.223 . S
O112 C120 1.315 . S
Cd113 O112 2.223 . S
Cd113 O116 2.297 . S
Cd113 O117 2.439 . S
Cd113 O123 2.240 . S
Cd114 O115 2.240 . S
Cd114 O122 2.223 . S
Cd114 O124 2.297 . S
Cd114 O125 2.439 . S
O115 Cd114 2.240 . S
O115 C120 1.279 . S
O116 Cd113 2.297 . S
O116 C118 1.247 . S
O117 Cd113 2.439 . S
O117 C118 1.208 . S
C118 O116 1.247 . S
C118 O117 1.208 . S
C119 O124 1.247 . S
C119 O125 1.208 . S
C120 O112 1.315 . S
C120 O115 1.279 . S
C121 O122 1.315 . S
C121 O123 1.279 . S
O122 Cd114 2.223 . S
O122 C121 1.315 . S
O123 Cd113 2.240 . S
O123 C121 1.279 . S
O124 Cd114 2.297 . S
O124 C119 1.247 . S
O125 Cd114 2.439 . S
O125 C119 1.208 . S
O126 Cd127 2.223 . S
O126 C134 1.315 . S
Cd127 O126 2.223 . S
Cd127 O130 2.297 . S
Cd127 O131 2.439 . S
Cd127 O137 2.240 . S
Cd128 O129 2.240 . S
Cd128 O136 2.223 . S
Cd128 O138 2.297 . S
Cd128 O139 2.439 . S
O129 Cd128 2.240 . S
O129 C134 1.279 . S
O130 Cd127 2.297 . S
O130 C132 1.247 . S
O131 Cd127 2.439 . S
O131 C132 1.208 . S
C132 O130 1.247 . S
C132 O131 1.208 . S
C133 O138 1.247 . S
C133 O139 1.208 . S
C134 O126 1.315 . S
C134 O129 1.279 . S
C135 O136 1.315 . S
C135 O137 1.279 . S
O136 Cd128 2.223 . S
O136 C135 1.315 . S
O137 Cd127 2.240 . S
O137 C135 1.279 . S
O138 Cd128 2.297 . S
O138 C133 1.247 . S
O139 Cd128 2.439 . S
O139 C133 1.208 . S
O140 Cd141 2.223 . S
O140 C148 1.315 . S
Cd141 O140 2.223 . S
Cd141 O144 2.297 . S
Cd141 O145 2.439 . S
Cd141 O151 2.240 . S
Cd142 O143 2.240 . S
Cd142 O150 2.223 . S
Cd142 O152 2.297 . S
Cd142 O153 2.439 . S
O143 Cd142 2.240 . S
O143 C148 1.279 . S
O144 Cd141 2.297 . S
O144 C146 1.247 . S
O145 Cd141 2.439 . S
O145 C146 1.208 . S
C146 O144 1.247 . S
C146 O145 1.208 . S
C147 O152 1.247 . S
C147 O153 1.208 . S
C148 O140 1.315 . S
C148 O143 1.279 . S
C149 O150 1.315 . S
C149 O151 1.279 . S
O150 Cd142 2.223 . S
O150 C149 1.315 . S
O151 Cd141 2.240 . S
O151 C149 1.279 . S
O152 Cd142 2.297 . S
O152 C147 1.247 . S
O153 Cd142 2.439 . S
O153 C147 1.208 . S
O154 Cd155 2.223 . S
O154 C162 1.315 . S
Cd155 O154 2.223 . S
Cd155 O158 2.297 . S
Cd155 O159 2.439 . S
Cd155 O165 2.240 . S
Cd156 O157 2.240 . S
Cd156 O164 2.223 . S
Cd156 O166 2.297 . S
Cd156 O167 2.439 . S
O157 Cd156 2.240 . S
O157 C162 1.279 . S
O158 Cd155 2.297 . S
O158 C160 1.247 . S
O159 Cd155 2.439 . S
O159 C160 1.208 . S
C160 O158 1.247 . S
C160 O159 1.208 . S
C161 O166 1.247 . S
C161 O167 1.208 . S
C162 O154 1.315 . S
C162 O157 1.279 . S
C163 O164 1.315 . S
C163 O165 1.279 . S
O164 Cd156 2.223 . S
O164 C163 1.315 . S
O165 Cd155 2.240 . S
O165 C163 1.279 . S
O166 Cd156 2.297 . S
O166 C161 1.247 . S
O167 Cd156 2.439 . S
O167 C161 1.208 . S
O168 Cd169 2.223 . S
O168 C176 1.315 . S
Cd169 O168 2.223 . S
Cd169 O172 2.297 . S
Cd169 O173 2.439 . S
Cd169 O179 2.240 . S
Cd170 O171 2.240 . S
Cd170 O178 2.223 . S
Cd170 O180 2.297 . S
Cd170 O181 2.439 . S
O171 Cd170 2.240 . S
O171 C176 1.279 . S
O172 Cd169 2.297 . S
O172 C174 1.247 . S
O173 Cd169 2.439 . S
O173 C174 1.208 . S
C174 O172 1.247 . S
C174 O173 1.208 . S
C175 O180 1.247 . S
C175 O181 1.208 . S
C176 O168 1.315 . S
C176 O171 1.279 . S
C177 O178 1.315 . S
C177 O179 1.279 . S
O178 Cd170 2.223 . S
O178 C177 1.315 . S
O179 Cd169 2.240 . S
O179 C177 1.279 . S
O180 Cd170 2.297 . S
O180 C175 1.247 . S
O181 Cd170 2.439 . S
O181 C175 1.208 . S
O182 Cd183 2.223 . S
O182 C190 1.315 . S
Cd183 O182 2.223 . S
Cd183 O186 2.297 . S
Cd183 O187 2.439 . S
Cd183 O193 2.240 . S
Cd184 O185 2.240 . S
Cd184 O192 2.223 . S
Cd184 O194 2.297 . S
Cd184 O195 2.439 . S
O185 Cd184 2.240 . S
O185 C190 1.279 . S
O186 Cd183 2.297 . S
O186 C188 1.247 . S
O187 Cd183 2.439 . S
O187 C188 1.208 . S
C188 O186 1.247 . S
C188 O187 1.208 . S
C189 O194 1.247 . S
C189 O195 1.208 . S
C190 O182 1.315 . S
C190 O185 1.279 . S
C191 O192 1.315 . S
C191 O193 1.279 . S
O192 Cd184 2.223 . S
O192 C191 1.315 . S
O193 Cd183 2.240 . S
O193 C191 1.279 . S
O194 Cd184 2.297 . S
O194 C189 1.247 . S
O195 Cd184 2.439 . S
O195 C189 1.208 . S
O196 Cd197 2.223 . S
O196 C204 1.315 . S
Cd197 O196 2.223 . S
Cd197 O200 2.297 . S
Cd197 O201 2.439 . S
Cd197 O207 2.240 . S
Cd198 O199 2.240 . S
Cd198 O206 2.223 . S
Cd198 O208 2.297 . S
Cd198 O209 2.439 . S
O199 Cd198 2.240 . S
O199 C204 1.279 . S
O200 Cd197 2.297 . S
O200 C202 1.247 . S
O201 Cd197 2.439 . S
O201 C202 1.208 . S
C202 O200 1.247 . S
C202 O201 1.208 . S
C203 O208 1.247 . S
C203 O209 1.208 . S
C204 O196 1.315 . S
C204 O199 1.279 . S
C205 O206 1.315 . S
C205 O207 1.279 . S
O206 Cd198 2.223 . S
O206 C205 1.315 . S
O207 Cd197 2.240 . S
O207 C205 1.279 . S
O208 Cd198 2.297 . S
O208 C203 1.247 . S
O209 Cd198 2.439 . S
O209 C203 1.208 . S
O210 Cd211 2.223 . S
O210 C218 1.315 . S
Cd211 O210 2.223 . S
Cd211 O214 2.297 . S
Cd211 O215 2.439 . S
Cd211 O221 2.240 . S
Cd212 O213 2.240 . S
Cd212 O220 2.223 . S
Cd212 O222 2.297 . S
Cd212 O223 2.439 . S
O213 Cd212 2.240 . S
O213 C218 1.279 . S
O214 Cd211 2.297 . S
O214 C216 1.247 . S
O215 Cd211 2.439 . S
O215 C216 1.208 . S
C216 O214 1.247 . S
C216 O215 1.208 . S
C217 O222 1.247 . S
C217 O223 1.208 . S
C218 O210 1.315 . S
C218 O213 1.279 . S
C219 O220 1.315 . S
C219 O221 1.279 . S
O220 Cd212 2.223 . S
O220 C219 1.315 . S
O221 Cd211 2.240 . S
O221 C219 1.279 . S
O222 Cd212 2.297 . S
O222 C217 1.247 . S
O223 Cd212 2.439 . S
O223 C217 1.208 . S
O224 Cd225 2.223 . S
O224 C232 1.315 . S
Cd225 O224 2.223 . S
Cd225 O228 2.297 . S
Cd225 O229 2.439 . S
Cd225 O235 2.240 . S
Cd226 O227 2.240 . S
Cd226 O234 2.223 . S
Cd226 O236 2.297 . S
Cd226 O237 2.439 . S
O227 Cd226 2.240 . S
O227 C232 1.279 . S
O228 Cd225 2.297 . S
O228 C230 1.247 . S
O229 Cd225 2.439 . S
O229 C230 1.208 . S
C230 O228 1.247 . S
C230 O229 1.208 . S
C231 O236 1.247 . S
C231 O237 1.208 . S
C232 O224 1.315 . S
C232 O227 1.279 . S
C233 O234 1.315 . S
C233 O235 1.279 . S
O234 Cd226 2.223 . S
O234 C233 1.315 . S
O235 Cd225 2.240 . S
O235 C233 1.279 . S
O236 Cd226 2.297 . S
O236 C231 1.247 . S
O237 Cd226 2.439 . S
O237 C231 1.208 . S
O238 Cd239 2.223 . S
O238 C246 1.315 . S
Cd239 O238 2.223 . S
Cd239 O242 2.297 . S
Cd239 O243 2.439 . S
Cd239 O249 2.240 . S
Cd240 O241 2.240 . S
Cd240 O248 2.223 . S
Cd240 O250 2.297 . S
Cd240 O251 2.439 . S
O241 Cd240 2.240 . S
O241 C246 1.279 . S
O242 Cd239 2.297 . S
O242 C244 1.247 . S
O243 Cd239 2.439 . S
O243 C244 1.208 . S
C244 O242 1.247 . S
C244 O243 1.208 . S
C245 O250 1.247 . S
C245 O251 1.208 . S
C246 O238 1.315 . S
C246 O241 1.279 . S
C247 O248 1.315 . S
C247 O249 1.279 . S
O248 Cd240 2.223 . S
O248 C247 1.315 . S
O249 Cd239 2.240 . S
O249 C247 1.279 . S
O250 Cd240 2.297 . S
O250 C245 1.247 . S
O251 Cd240 2.439 . S
O251 C245 1.208 . S
O252 Cd253 2.223 . S
O252 C260 1.315 . S
Cd253 O252 2.223 . S
Cd253 O256 2.297 . S
Cd253 O257 2.439 . S
Cd253 O263 2.240 . S
Cd254 O255 2.240 . S
Cd254 O262 2.223 . S
Cd254 O264 2.297 . S
Cd254 O265 2.439 . S
O255 Cd254 2.240 . S
O255 C260 1.279 . S
O256 Cd253 2.297 . S
O256 C258 1.247 . S
O257 Cd253 2.439 . S
O257 C258 1.208 . S
C258 O256 1.247 . S
C258 O257 1.208 . S
C259 O264 1.247 . S
C259 O265 1.208 . S
C260 O252 1.315 . S
C260 O255 1.279 . S
C261 O262 1.315 . S
C261 O263 1.279 . S
O262 Cd254 2.223 . S
O262 C261 1.315 . S
O263 Cd253 2.240 . S
O263 C261 1.279 . S
O264 Cd254 2.297 . S
O264 C259 1.247 . S
O265 Cd254 2.439 . S
O265 C259 1.208 . S
O266 Cd267 2.223 . S
O266 C274 1.315 . S
Cd267 O266 2.223 . S
Cd267 O270 2.297 . S
Cd267 O271 2.439 . S
Cd267 O277 2.240 . S
Cd268 O269 2.240 . S
Cd268 O276 2.223 . S
Cd268 O278 2.297 . S
Cd268 O279 2.439 . S
O269 Cd268 2.240 . S
O269 C274 1.279 . S
O270 Cd267 2.297 . S
O270 C272 1.247 . S
O271 Cd267 2.439 . S
O271 C272 1.208 . S
C272 O270 1.247 . S
C272 O271 1.208 . S
C273 O278 1.247 . S
C273 O279 1.208 . S
C274 O266 1.315 . S
C274 O269 1.279 . S
C275 O276 1.315 . S
C275 O277 1.279 . S
O276 Cd268 2.223 . S
O276 C275 1.315 . S
O277 Cd267 2.240 . S
O277 C275 1.279 . S
O278 Cd268 2.297 . S
O278 C273 1.247 . S
O279 Cd268 2.439 . S
O279 C273 1.208 . S
O280 Cd281 2.223 . S
O280 C288 1.315 . S
Cd281 O280 2.223 . S
Cd281 O284 2.297 . S
Cd281 O285 2.439 . S
Cd281 O291 2.240 . S
Cd282 O283 2.240 . S
Cd282 O290 2.223 . S
Cd282 O292 2.297 . S
Cd282 O293 2.439 . S
O283 Cd282 2.240 . S
O283 C288 1.279 . S
O284 Cd281 2.297 . S
O284 C286 1.247 . S
O285 Cd281 2.439 . S
O285 C286 1.208 . S
C286 O284 1.247 . S
C286 O285 1.208 . S
C287 O292 1.247 . S
C287 O293 1.208 . S
C288 O280 1.315 . S
C288 O283 1.279 . S
C289 O290 1.315 . S
C289 O291 1.279 . S
O290 Cd282 2.223 . S
O290 C289 1.315 . S
O291 Cd281 2.240 . S
O291 C289 1.279 . S
O292 Cd282 2.297 . S
O292 C287 1.247 . S
O293 Cd282 2.439 . S
O293 C287 1.208 . S
O294 Cd295 2.223 . S
O294 C302 1.315 . S
Cd295 O294 2.223 . S
Cd295 O298 2.297 . S
Cd295 O299 2.439 . S
Cd295 O305 2.240 . S
Cd296 O297 2.240 . S
Cd296 O304 2.223 . S
Cd296 O306 2.297 . S
Cd296 O307 2.439 . S
O297 Cd296 2.240 . S
O297 C302 1.279 . S
O298 Cd295 2.297 . S
O298 C300 1.247 . S
O299 Cd295 2.439 . S
O299 C300 1.208 . S
C300 O298 1.247 . S
C300 O299 1.208 . S
C301 O306 1.247 . S
C301 O307 1.208 . S
C302 O294 1.315 . S
C302 O297 1.279 . S
C303 O304 1.315 . S
C303 O305 1.279 . S
O304 Cd296 2.223 . S
O304 C303 1.315 . S
O305 Cd295 2.240 . S
O305 C303 1.279 . S
O306 Cd296 2.297 . S
O306 C301 1.247 . S
O307 Cd296 2.439 . S
O307 C301 1.208 . S
O308 Cd309 2.223 . S
O308 C316 1.315 . S
Cd309 O308 2.223 . S
Cd309 O312 2.297 . S
Cd309 O313 2.439 . S
Cd309 O319 2.240 . S
Cd310 O311 2.240 . S
Cd310 O318 2.223 . S
Cd310 O320 2.297 . S
Cd310 O321 2.439 . S
O311 Cd310 2.240 . S
O311 C316 1.279 . S
O312 Cd309 2.297 . S
O312 C314 1.247 . S
O313 Cd309 2.439 . S
O313 C314 1.208 . S
C314 O312 1.247 . S
C314 O313 1.208 . S
C315 O320 1.247 . S
C315 O321 1.208 . S
C316 O308 1.315 . S
C316 O311 1.279 . S
C317 O318 1.315 . S
C317 O319 1.279 . S
O318 Cd310 2.223 . S
O318 C317 1.315 . S
O319 Cd309 2.240 . S
O319 C317 1.279 . S
O320 Cd310 2.297 . S
O320 C315 1.247 . S
O321 Cd310 2.439 . S
O321 C315 1.208 . S
O322 Cd323 2.223 . S
O322 C330 1.315 . S
Cd323 O322 2.223 . S
Cd323 O326 2.297 . S
Cd323 O327 2.439 . S
Cd323 O333 2.240 . S
Cd324 O325 2.240 . S
Cd324 O332 2.223 . S
Cd324 O334 2.297 . S
Cd324 O335 2.439 . S
O325 Cd324 2.240 . S
O325 C330 1.279 . S
O326 Cd323 2.297 . S
O326 C328 1.247 . S
O327 Cd323 2.439 . S
O327 C328 1.208 . S
C328 O326 1.247 . S
C328 O327 1.208 . S
C329 O334 1.247 . S
C329 O335 1.208 . S
C330 O322 1.315 . S
C330 O325 1.279 . S
C331 O332 1.315 . S
C331 O333 1.279 . S
O332 Cd324 2.223 . S
O332 C331 1.315 . S
O333 Cd323 2.240 . S
O333 C331 1.279 . S
O334 Cd324 2.297 . S
O334 C329 1.247 . S
O335 Cd324 2.439 . S
O335 C329 1.208 . S
O336 Cd337 2.223 . S
O336 C344 1.315 . S
Cd337 O336 2.223 . S
Cd337 O340 2.297 . S
Cd337 O341 2.439 . S
Cd337 O347 2.240 . S
Cd338 O339 2.240 . S
Cd338 O346 2.223 . S
Cd338 O348 2.297 . S
Cd338 O349 2.439 . S
O339 Cd338 2.240 . S
O339 C344 1.279 . S
O340 Cd337 2.297 . S
O340 C342 1.247 . S
O341 Cd337 2.439 . S
O341 C342 1.208 . S
C342 O340 1.247 . S
C342 O341 1.208 . S
C343 O348 1.247 . S
C343 O349 1.208 . S
C344 O336 1.315 . S
C344 O339 1.279 . S
C345 O346 1.315 . S
C345 O347 1.279 . S
O346 Cd338 2.223 . S
O346 C345 1.315 . S
O347 Cd337 2.240 . S
O347 C345 1.279 . S
O348 Cd338 2.297 . S
O348 C343 1.247 . S
O349 Cd338 2.439 . S
O349 C343 1.208 . S
O350 Cd351 2.223 . S
O350 C358 1.315 . S
Cd351 O350 2.223 . S
Cd351 O354 2.297 . S
Cd351 O355 2.439 . S
Cd351 O361 2.240 . S
Cd352 O353 2.240 . S
Cd352 O360 2.223 . S
Cd352 O362 2.297 . S
Cd352 O363 2.439 . S
O353 Cd352 2.240 . S
O353 C358 1.279 . S
O354 Cd351 2.297 . S
O354 C356 1.247 . S
O355 Cd351 2.439 . S
O355 C356 1.208 . S
C356 O354 1.247 . S
C356 O355 1.208 . S
C357 O362 1.247 . S
C357 O363 1.208 . S
C358 O350 1.315 . S
C358 O353 1.279 . S
C359 O360 1.315 . S
C359 O361 1.279 . S
O360 Cd352 2.223 . S
O360 C359 1.315 . S
O361 Cd351 2.240 . S
O361 C359 1.279 . S
O362 Cd352 2.297 . S
O362 C357 1.247 . S
O363 Cd352 2.439 . S
O363 C357 1.208 . S
O364 Cd365 2.223 . S
O364 C372 1.315 . S
Cd365 O364 2.223 . S
Cd365 O368 2.297 . S
Cd365 O369 2.439 . S
Cd365 O375 2.240 . S
Cd366 O367 2.240 . S
Cd366 O374 2.223 . S
Cd366 O376 2.297 . S
Cd366 O377 2.439 . S
O367 Cd366 2.240 . S
O367 C372 1.279 . S
O368 Cd365 2.297 . S
O368 C370 1.247 . S
O369 Cd365 2.439 . S
O369 C370 1.208 . S
C370 O368 1.247 . S
C370 O369 1.208 . S
C371 O376 1.247 . S
C371 O377 1.208 . S
C372 O364 1.315 . S
C372 O367 1.279 . S
C373 O374 1.315 . S
C373 O375 1.279 . S
O374 Cd366 2.223 . S
O374 C373 1.315 . S
O375 Cd365 2.240 . S
O375 C373 1.279 . S
O376 Cd366 2.297 . S
O376 C371 1.247 . S
O377 Cd366 2.439 . S
O377 C371 1.208 . S
O378 Cd379 2.223 . S
O378 C386 1.315 . S
Cd379 O378 2.223 . S
Cd379 O382 2.297 . S
Cd379 O383 2.439 . S
Cd379 O389 2.240 . S
Cd380 O381 2.240 . S
Cd380 O388 2.223 . S
Cd380 O390 2.297 . S
Cd380 O391 2.439 . S
O381 Cd380 2.240 . S
O381 C386 1.279 . S
O382 Cd379 2.297 . S
O382 C384 1.247 . S
O383 Cd379 2.439 . S
O383 C384 1.208 . S
C384 O382 1.247 . S
C384 O383 1.208 . S
C385 O390 1.247 . S
C385 O391 1.208 . S
C386 O378 1.315 . S
C386 O381 1.279 . S
C387 O388 1.315 . S
C387 O389 1.279 . S
O388 Cd380 2.223 . S
O388 C387 1.315 . S
O389 Cd379 2.240 . S
O389 C387 1.279 . S
O390 Cd380 2.297 . S
O390 C385 1.247 . S
O391 Cd380 2.439 . S
O391 C385 1.208 . S
O392 Cd393 2.223 . S
O392 C400 1.315 . S
Cd393 O392 2.223 . S
Cd393 O396 2.297 . S
Cd393 O397 2.439 . S
Cd393 O403 2.240 . S
Cd394 O395 2.240 . S
Cd394 O402 2.223 . S
Cd394 O404 2.297 . S
Cd394 O405 2.439 . S
O395 Cd394 2.240 . S
O395 C400 1.279 . S
O396 Cd393 2.297 . S
O396 C398 1.247 . S
O397 Cd393 2.439 . S
O397 C398 1.208 . S
C398 O396 1.247 . S
C398 O397 1.208 . S
C399 O404 1.247 . S
C399 O405 1.208 . S
C400 O392 1.315 . S
C400 O395 1.279 . S
C401 O402 1.315 . S
C401 O403 1.279 . S
O402 Cd394 2.223 . S
O402 C401 1.315 . S
O403 Cd393 2.240 . S
O403 C401 1.279 . S
O404 Cd394 2.297 . S
O404 C399 1.247 . S
O405 Cd394 2.439 . S
O405 C399 1.208 . S
O406 Cd407 2.223 . S
O406 C414 1.315 . S
Cd407 O406 2.223 . S
Cd407 O410 2.297 . S
Cd407 O411 2.439 . S
Cd407 O417 2.240 . S
Cd408 O409 2.240 . S
Cd408 O416 2.223 . S
Cd408 O418 2.297 . S
Cd408 O419 2.439 . S
O409 Cd408 2.240 . S
O409 C414 1.279 . S
O410 Cd407 2.297 . S
O410 C412 1.247 . S
O411 Cd407 2.439 . S
O411 C412 1.208 . S
C412 O410 1.247 . S
C412 O411 1.208 . S
C413 O418 1.247 . S
C413 O419 1.208 . S
C414 O406 1.315 . S
C414 O409 1.279 . S
C415 O416 1.315 . S
C415 O417 1.279 . S
O416 Cd408 2.223 . S
O416 C415 1.315 . S
O417 Cd407 2.240 . S
O417 C415 1.279 . S
O418 Cd408 2.297 . S
O418 C413 1.247 . S
O419 Cd408 2.439 . S
O419 C413 1.208 . S
O420 Cd421 2.223 . S
O420 C428 1.315 . S
Cd421 O420 2.223 . S
Cd421 O424 2.297 . S
Cd421 O425 2.439 . S
Cd421 O431 2.240 . S
Cd422 O423 2.240 . S
Cd422 O430 2.223 . S
Cd422 O432 2.297 . S
Cd422 O433 2.439 . S
O423 Cd422 2.240 . S
O423 C428 1.279 . S
O424 Cd421 2.297 . S
O424 C426 1.247 . S
O425 Cd421 2.439 . S
O425 C426 1.208 . S
C426 O424 1.247 . S
C426 O425 1.208 . S
C427 O432 1.247 . S
C427 O433 1.208 . S
C428 O420 1.315 . S
C428 O423 1.279 . S
C429 O430 1.315 . S
C429 O431 1.279 . S
O430 Cd422 2.223 . S
O430 C429 1.315 . S
O431 Cd421 2.240 . S
O431 C429 1.279 . S
O432 Cd422 2.297 . S
O432 C427 1.247 . S
O433 Cd422 2.439 . S
O433 C427 1.208 . S
O434 Cd435 2.223 . S
O434 C442 1.315 . S
Cd435 O434 2.223 . S
Cd435 O438 2.297 . S
Cd435 O439 2.439 . S
Cd435 O445 2.240 . S
Cd436 O437 2.240 . S
Cd436 O444 2.223 . S
Cd436 O446 2.297 . S
Cd436 O447 2.439 . S
O437 Cd436 2.240 . S
O437 C442 1.279 . S
O438 Cd435 2.297 . S
O438 C440 1.247 . S
O439 Cd435 2.439 . S
O439 C440 1.208 . S
C440 O438 1.247 . S
C440 O439 1.208 . S
C441 O446 1.247 . S
C441 O447 1.208 . S
C442 O434 1.315 . S
C442 O437 1.279 . S
C443 O444 1.315 . S
C443 O445 1.279 . S
O444 Cd436 2.223 . S
O444 C443 1.315 . S
O445 Cd435 2.240 . S
O445 C443 1.279 . S
O446 Cd436 2.297 . S
O446 C441 1.247 . S
O447 Cd436 2.439 . S
O447 C441 1.208 . S
O448 Cd449 2.223 . S
O448 C456 1.315 . S
Cd449 O448 2.223 . S
Cd449 O452 2.297 . S
Cd449 O453 2.439 . S
Cd449 O459 2.240 . S
Cd450 O451 2.240 . S
Cd450 O458 2.223 . S
Cd450 O460 2.297 . S
Cd450 O461 2.439 . S
O451 Cd450 2.240 . S
O451 C456 1.279 . S
O452 Cd449 2.297 . S
O452 C454 1.247 . S
O453 Cd449 2.439 . S
O453 C454 1.208 . S
C454 O452 1.247 . S
C454 O453 1.208 . S
C455 O460 1.247 . S
C455 O461 1.208 . S
C456 O448 1.315 . S
C456 O451 1.279 . S
C457 O458 1.315 . S
C457 O459 1.279 . S
O458 Cd450 2.223 . S
O458 C457 1.315 . S
O459 Cd449 2.240 . S
O459 C457 1.279 . S
O460 Cd450 2.297 . S
O460 C455 1.247 . S
O461 Cd450 2.439 . S
O461 C455 1.208 . S
O462 Cd463 2.223 . S
O462 C470 1.315 . S
Cd463 O462 2.223 . S
Cd463 O466 2.297 . S
Cd463 O467 2.439 . S
Cd463 O473 2.240 . S
Cd464 O465 2.240 . S
Cd464 O472 2.223 . S
Cd464 O474 2.297 . S
Cd464 O475 2.439 . S
O465 Cd464 2.240 . S
O465 C470 1.279 . S
O466 Cd463 2.297 . S
O466 C468 1.247 . S
O467 Cd463 2.439 . S
O467 C468 1.208 . S
C468 O466 1.247 . S
C468 O467 1.208 . S
C469 O474 1.247 . S
C469 O475 1.208 . S
C470 O462 1.315 . S
C470 O465 1.279 . S
C471 O472 1.315 . S
C471 O473 1.279 . S
O472 Cd464 2.223 . S
O472 C471 1.315 . S
O473 Cd463 2.240 . S
O473 C471 1.279 . S
O474 Cd464 2.297 . S
O474 C469 1.247 . S
O475 Cd464 2.439 . S
O475 C469 1.208 . S
O476 Cd477 2.223 . S
O476 C484 1.315 . S
Cd477 O476 2.223 . S
Cd477 O480 2.297 . S
Cd477 O481 2.439 . S
Cd477 O487 2.240 . S
Cd478 O479 2.240 . S
Cd478 O486 2.223 . S
Cd478 O488 2.297 . S
Cd478 O489 2.439 . S
O479 Cd478 2.240 . S
O479 C484 1.279 . S
O480 Cd477 2.297 . S
O480 C482 1.247 . S
O481 Cd477 2.439 . S
O481 C482 1.208 . S
C482 O480 1.247 . S
C482 O481 1.208 . S
C483 O488 1.247 . S
C483 O489 1.208 . S
C484 O476 1.315 . S
C484 O479 1.279 . S
C485 O486 1.315 . S
C485 O487 1.279 . S
O486 Cd478 2.223 . S
O486 C485 1.315 . S
O487 Cd477 2.240 . S
O487 C485 1.279 . S
O488 Cd478 2.297 . S
O488 C483 1.247 . S
O489 Cd478 2.439 . S
O489 C483 1.208 . S
O490 Cd491 2.223 . S
O490 C498 1.315 . S
Cd491 O490 2.223 . S
Cd491 O494 2.297 . S
Cd491 O495 2.439 . S
Cd491 O501 2.240 . S
Cd492 O493 2.240 . S
Cd492 O500 2.223 . S
Cd492 O502 2.297 . S
Cd492 O503 2.439 . S
O493 Cd492 2.240 . S
O493 C498 1.279 . S
O494 Cd491 2.297 . S
O494 C496 1.247 . S
O495 Cd491 2.439 . S
O495 C496 1.208 . S
C496 O494 1.247 . S
C496 O495 1.208 . S
C497 O502 1.247 . S
C497 O503 1.208 . S
C498 O490 1.315 . S
C498 O493 1.279 . S
C499 O500 1.315 . S
C499 O501 1.279 . S
O500 Cd492 2.223 . S
O500 C499 1.315 . S
O501 Cd491 2.240 . S
O501 C499 1.279 . S
O502 Cd492 2.297 . S
O502 C497 1.247 . S
O503 Cd492 2.439 . S
O503 C497 1.208 . S
O504 Cd505 2.223 . S
O504 C512 1.315 . S
Cd505 O504 2.223 . S
Cd505 O508 2.297 . S
Cd505 O509 2.439 . S
Cd505 O515 2.240 . S
Cd506 O507 2.240 . S
Cd506 O514 2.223 . S
Cd506 O516 2.297 . S
Cd506 O517 2.439 . S
O507 Cd506 2.240 . S
O507 C512 1.279 . S
O508 Cd505 2.297 . S
O508 C510 1.247 . S
O509 Cd505 2.439 . S
O509 C510 1.208 . S
C510 O508 1.247 . S
C510 O509 1.208 . S
C511 O516 1.247 . S
C511 O517 1.208 . S
C512 O504 1.315 . S
C512 O507 1.279 . S
C513 O514 1.315 . S
C513 O515 1.279 . S
O514 Cd506 2.223 . S
O514 C513 1.315 . S
O515 Cd505 2.240 . S
O515 C513 1.279 . S
O516 Cd506 2.297 . S
O516 C511 1.247 . S
O517 Cd506 2.439 . S
O517 C511 1.208 . S
O518 Cd519 2.223 . S
O518 C526 1.315 . S
Cd519 O518 2.223 . S
Cd519 O522 2.297 . S
Cd519 O523 2.439 . S
Cd519 O529 2.240 . S
Cd520 O521 2.240 . S
Cd520 O528 2.223 . S
Cd520 O530 2.297 . S
Cd520 O531 2.439 . S
O521 Cd520 2.240 . S
O521 C526 1.279 . S
O522 Cd519 2.297 . S
O522 C524 1.247 . S
O523 Cd519 2.439 . S
O523 C524 1.208 . S
C524 O522 1.247 . S
C524 O523 1.208 . S
C525 O530 1.247 . S
C525 O531 1.208 . S
C526 O518 1.315 . S
C526 O521 1.279 . S
C527 O528 1.315 . S
C527 O529 1.279 . S
O528 Cd520 2.223 . S
O528 C527 1.315 . S
O529 Cd519 2.240 . S
O529 C527 1.279 . S
O530 Cd520 2.297 . S
O530 C525 1.247 . S
O531 Cd520 2.439 . S
O531 C525 1.208 . S
O532 Cd533 2.223 . S
O532 C540 1.315 . S
Cd533 O532 2.223 . S
Cd533 O536 2.297 . S
Cd533 O537 2.439 . S
Cd533 O543 2.240 . S
Cd534 O535 2.240 . S
Cd534 O542 2.223 . S
Cd534 O544 2.297 . S
Cd534 O545 2.439 . S
O535 Cd534 2.240 . S
O535 C540 1.279 . S
O536 Cd533 2.297 . S
O536 C538 1.247 . S
O537 Cd533 2.439 . S
O537 C538 1.208 . S
C538 O536 1.247 . S
C538 O537 1.208 . S
C539 O544 1.247 . S
C539 O545 1.208 . S
C540 O532 1.315 . S
C540 O535 1.279 . S
C541 O542 1.315 . S
C541 O543 1.279 . S
O542 Cd534 2.223 . S
O542 C541 1.315 . S
O543 Cd533 2.240 . S
O543 C541 1.279 . S
O544 Cd534 2.297 . S
O544 C539 1.247 . S
O545 Cd534 2.439 . S
O545 C539 1.208 . S
O546 Cd547 2.223 . S
O546 C554 1.315 . S
Cd547 O546 2.223 . S
Cd547 O550 2.297 . S
Cd547 O551 2.439 . S
Cd547 O557 2.240 . S
Cd548 O549 2.240 . S
Cd548 O556 2.223 . S
Cd548 O558 2.297 . S
Cd548 O559 2.439 . S
O549 Cd548 2.240 . S
O549 C554 1.279 . S
O550 Cd547 2.297 . S
O550 C552 1.247 . S
O551 Cd547 2.439 . S
O551 C552 1.208 . S
C552 O550 1.247 . S
C552 O551 1.208 . S
C553 O558 1.247 . S
C553 O559 1.208 . S
C554 O546 1.315 . S
C554 O549 1.279 . S
C555 O556 1.315 . S
C555 O557 1.279 . S
O556 Cd548 2.223 . S
O556 C555 1.315 . S
O557 Cd547 2.240 . S
O557 C555 1.279 . S
O558 Cd548 2.297 . S
O558 C553 1.247 . S
O559 Cd548 2.439 . S
O559 C553 1.208 . S
O560 Cd561 2.223 . S
O560 C568 1.315 . S
Cd561 O560 2.223 . S
Cd561 O564 2.297 . S
Cd561 O565 2.439 . S
Cd561 O571 2.240 . S
Cd562 O563 2.240 . S
Cd562 O570 2.223 . S
Cd562 O572 2.297 . S
Cd562 O573 2.439 . S
O563 Cd562 2.240 . S
O563 C568 1.279 . S
O564 Cd561 2.297 . S
O564 C566 1.247 . S
O565 Cd561 2.439 . S
O565 C566 1.208 . S
C566 O564 1.247 . S
C566 O565 1.208 . S
C567 O572 1.247 . S
C567 O573 1.208 . S
C568 O560 1.315 . S
C568 O563 1.279 . S
C569 O570 1.315 . S
C569 O571 1.279 . S
O570 Cd562 2.223 . S
O570 C569 1.315 . S
O571 Cd561 2.240 . S
O571 C569 1.279 . S
O572 Cd562 2.297 . S
O572 C567 1.247 . S
O573 Cd562 2.439 . S
O573 C567 1.208 . S
O574 Cd575 2.223 . S
O574 C582 1.315 . S
Cd575 O574 2.223 . S
Cd575 O578 2.297 . S
Cd575 O579 2.439 . S
Cd575 O585 2.240 . S
Cd576 O577 2.240 . S
Cd576 O584 2.223 . S
Cd576 O586 2.297 . S
Cd576 O587 2.439 . S
O577 Cd576 2.240 . S
O577 C582 1.279 . S
O578 Cd575 2.297 . S
O578 C580 1.247 . S
O579 Cd575 2.439 . S
O579 C580 1.208 . S
C580 O578 1.247 . S
C580 O579 1.208 . S
C581 O586 1.247 . S
C581 O587 1.208 . S
C582 O574 1.315 . S
C582 O577 1.279 . S
C583 O584 1.315 . S
C583 O585 1.279 . S
O584 Cd576 2.223 . S
O584 C583 1.315 . S
O585 Cd575 2.240 . S
O585 C583 1.279 . S
O586 Cd576 2.297 . S
O586 C581 1.247 . S
O587 Cd576 2.439 . S
O587 C581 1.208 . S
O588 Cd589 2.223 . S
O588 C596 1.315 . S
Cd589 O588 2.223 . S
Cd589 O592 2.297 . S
Cd589 O593 2.439 . S
Cd589 O599 2.240 . S
Cd590 O591 2.240 . S
Cd590 O598 2.223 . S
Cd590 O600 2.297 . S
Cd590 O601 2.439 . S
O591 Cd590 2.240 . S
O591 C596 1.279 . S
O592 Cd589 2.297 . S
O592 C594 1.247 . S
O593 Cd589 2.439 . S
O593 C594 1.208 . S
C594 O592 1.247 . S
C594 O593 1.208 . S
C595 O600 1.247 . S
C595 O601 1.208 . S
C596 O588 1.315 . S
C596 O591 1.279 . S
C597 O598 1.315 . S
C597 O599 1.279 . S
O598 Cd590 2.223 . S
O598 C597 1.315 . S
O599 Cd589 2.240 . S
O599 C597 1.279 . S
O600 Cd590 2.297 . S
O600 C595 1.247 . S
O601 Cd590 2.439 . S
O601 C595 1.208 . S
O602 Cd603 2.223 . S
O602 C610 1.315 . S
Cd603 O602 2.223 . S
Cd603 O606 2.297 . S
Cd603 O607 2.439 . S
Cd603 O613 2.240 . S
Cd604 O605 2.240 . S
Cd604 O612 2.223 . S
Cd604 O614 2.297 . S
Cd604 O615 2.439 . S
O605 Cd604 2.240 . S
O605 C610 1.279 . S
O606 Cd603 2.297 . S
O606 C608 1.247 . S
O607 Cd603 2.439 . S
O607 C608 1.208 . S
C608 O606 1.247 . S
C608 O607 1.208 . S
C609 O614 1.247 . S
C609 O615 1.208 . S
C610 O602 1.315 . S
C610 O605 1.279 . S
C611 O612 1.315 . S
C611 O613 1.279 . S
O612 Cd604 2.223 . S
O612 C611 1.315 . S
O613 Cd603 2.240 . S
O613 C611 1.279 . S
O614 Cd604 2.297 . S
O614 C609 1.247 . S
O615 Cd604 2.439 . S
O615 C609 1.208 . S
O616 Cd617 2.223 . S
O616 C624 1.315 . S
Cd617 O616 2.223 . S
Cd617 O620 2.297 . S
Cd617 O621 2.439 . S
Cd617 O627 2.240 . S
Cd618 O619 2.240 . S
Cd618 O626 2.223 . S
Cd618 O628 2.297 . S
Cd618 O629 2.439 . S
O619 Cd618 2.240 . S
O619 C624 1.279 . S
O620 Cd617 2.297 . S
O620 C622 1.247 . S
O621 Cd617 2.439 . S
O621 C622 1.208 . S
C622 O620 1.247 . S
C622 O621 1.208 . S
C623 O628 1.247 . S
C623 O629 1.208 . S
C624 O616 1.315 . S
C624 O619 1.279 . S
C625 O626 1.315 . S
C625 O627 1.279 . S
O626 Cd618 2.223 . S
O626 C625 1.315 . S
O627 Cd617 2.240 . S
O627 C625 1.279 . S
O628 Cd618 2.297 . S
O628 C623 1.247 . S
O629 Cd618 2.439 . S
O629 C623 1.208 . S
O630 Cd631 2.223 . S
O630 C638 1.315 . S
Cd631 O630 2.223 . S
Cd631 O634 2.297 . S
Cd631 O635 2.439 . S
Cd631 O641 2.240 . S
Cd632 O633 2.240 . S
Cd632 O640 2.223 . S
Cd632 O642 2.297 . S
Cd632 O643 2.439 . S
O633 Cd632 2.240 . S
O633 C638 1.279 . S
O634 Cd631 2.297 . S
O634 C636 1.247 . S
O635 Cd631 2.439 . S
O635 C636 1.208 . S
C636 O634 1.247 . S
C636 O635 1.208 . S
C637 O642 1.247 . S
C637 O643 1.208 . S
C638 O630 1.315 . S
C638 O633 1.279 . S
C639 O640 1.315 . S
C639 O641 1.279 . S
O640 Cd632 2.223 . S
O640 C639 1.315 . S
O641 Cd631 2.240 . S
O641 C639 1.279 . S
O642 Cd632 2.297 . S
O642 C637 1.247 . S
O643 Cd632 2.439 . S
O643 C637 1.208 . S
O644 Cd645 2.223 . S
O644 C652 1.315 . S
Cd645 O644 2.223 . S
Cd645 O648 2.297 . S
Cd645 O649 2.439 . S
Cd645 O655 2.240 . S
Cd646 O647 2.240 . S
Cd646 O654 2.223 . S
Cd646 O656 2.297 . S
Cd646 O657 2.439 . S
O647 Cd646 2.240 . S
O647 C652 1.279 . S
O648 Cd645 2.297 . S
O648 C650 1.247 . S
O649 Cd645 2.439 . S
O649 C650 1.208 . S
C650 O648 1.247 . S
C650 O649 1.208 . S
C651 O656 1.247 . S
C651 O657 1.208 . S
C652 O644 1.315 . S
C652 O647 1.279 . S
C653 O654 1.315 . S
C653 O655 1.279 . S
O654 Cd646 2.223 . S
O654 C653 1.315 . S
O655 Cd645 2.240 . S
O655 C653 1.279 . S
O656 Cd646 2.297 . S
O656 C651 1.247 . S
O657 Cd646 2.439 . S
O657 C651 1.208 . S
O658 Cd659 2.223 . S
O658 C666 1.315 . S
Cd659 O658 2.223 . S
Cd659 O662 2.297 . S
Cd659 O663 2.439 . S
Cd659 O669 2.240 . S
Cd660 O661 2.240 . S
Cd660 O668 2.223 . S
Cd660 O670 2.297 . S
Cd660 O671 2.439 . S
O661 Cd660 2.240 . S
O661 C666 1.279 . S
O662 Cd659 2.297 . S
O662 C664 1.247 . S
O663 Cd659 2.439 . S
O663 C664 1.208 . S
C664 O662 1.247 . S
C664 O663 1.208 . S
C665 O670 1.247 . S
C665 O671 1.208 . S
C666 O658 1.315 . S
C666 O661 1.279 . S
C667 O668 1.315 . S
C667 O669 1.279 . S
O668 Cd660 2.223 . S
O668 C667 1.315 . S
O669 Cd659 2.240 . S
O669 C667 1.279 . S
O670 Cd660 2.297 . S
O670 C665 1.247 . S
O671 Cd660 2.439 . S
O671 C665 1.208 . S
H672 C678 0.930 . S
H673 C681 0.930 . S
H674 C682 0.930 . S
H675 C683 0.930 . S
H676 C686 0.930 . S
H677 C687 0.930 . S
C678 H672 0.930 . S
C678 C679 1.355 . S
C678 C680 1.415 . S
C679 C678 1.355 . S
C679 C681 1.419 . S
C680 C678 1.415 . S
C680 C685 1.425 . S
C680 C687 1.409 . S
C681 H673 0.930 . S
C681 C679 1.419 . S
C681 C682 1.362 . S
C682 H674 0.930 . S
C682 C681 1.362 . S
C682 C685 1.409 . S
C683 H675 0.930 . S
C683 C684 1.355 . S
C683 C685 1.415 . S
C684 C683 1.355 . S
C684 C686 1.419 . S
C685 C680 1.425 . S
C685 C682 1.409 . S
C685 C683 1.415 . S
C686 H676 0.930 . S
C686 C684 1.419 . S
C686 C687 1.362 . S
C687 H677 0.930 . S
C687 C680 1.409 . S
C687 C686 1.362 . S
H688 C694 0.930 . S
H689 C697 0.930 . S
H690 C698 0.930 . S
H691 C699 0.930 . S
H692 C702 0.930 . S
H693 C703 0.930 . S
C694 H688 0.930 . S
C694 C695 1.355 . S
C694 C696 1.415 . S
C695 C694 1.355 . S
C695 C697 1.419 . S
C696 C694 1.415 . S
C696 C701 1.425 . S
C696 C703 1.409 . S
C697 H689 0.930 . S
C697 C695 1.419 . S
C697 C698 1.362 . S
C698 H690 0.930 . S
C698 C697 1.362 . S
C698 C701 1.409 . S
C699 H691 0.930 . S
C699 C700 1.355 . S
C699 C701 1.415 . S
C700 C699 1.355 . S
C700 C702 1.419 . S
C701 C696 1.425 . S
C701 C698 1.409 . S
C701 C699 1.415 . S
C702 H692 0.930 . S
C702 C700 1.419 . S
C702 C703 1.362 . S
C703 H693 0.930 . S
C703 C696 1.409 . S
C703 C702 1.362 . S
H704 C710 0.930 . S
H705 C713 0.930 . S
H706 C714 0.930 . S
H707 C715 0.930 . S
H708 C718 0.930 . S
H709 C719 0.930 . S
C710 H704 0.930 . S
C710 C711 1.355 . S
C710 C712 1.415 . S
C711 C710 1.355 . S
C711 C713 1.419 . S
C712 C710 1.415 . S
C712 C717 1.425 . S
C712 C719 1.409 . S
C713 H705 0.930 . S
C713 C711 1.419 . S
C713 C714 1.362 . S
C714 H706 0.930 . S
C714 C713 1.362 . S
C714 C717 1.409 . S
C715 H707 0.930 . S
C715 C716 1.355 . S
C715 C717 1.415 . S
C716 C715 1.355 . S
C716 C718 1.419 . S
C717 C712 1.425 . S
C717 C714 1.409 . S
C717 C715 1.415 . S
C718 H708 0.930 . S
C718 C716 1.419 . S
C718 C719 1.362 . S
C719 H709 0.930 . S
C719 C712 1.409 . S
C719 C718 1.362 . S
H720 C726 0.930 . S
H721 C729 0.930 . S
H722 C730 0.930 . S
H723 C731 0.930 . S
H724 C734 0.930 . S
H725 C735 0.930 . S
C726 H720 0.930 . S
C726 C727 1.355 . S
C726 C728 1.415 . S
C727 C726 1.355 . S
C727 C729 1.419 . S
C728 C726 1.415 . S
C728 C733 1.425 . S
C728 C735 1.409 . S
C729 H721 0.930 . S
C729 C727 1.419 . S
C729 C730 1.362 . S
C730 H722 0.930 . S
C730 C729 1.362 . S
C730 C733 1.409 . S
C731 H723 0.930 . S
C731 C732 1.355 . S
C731 C733 1.415 . S
C732 C731 1.355 . S
C732 C734 1.419 . S
C733 C728 1.425 . S
C733 C730 1.409 . S
C733 C731 1.415 . S
C734 H724 0.930 . S
C734 C732 1.419 . S
C734 C735 1.362 . S
C735 H725 0.930 . S
C735 C728 1.409 . S
C735 C734 1.362 . S
H736 C742 0.930 . S
H737 C745 0.930 . S
H738 C746 0.930 . S
H739 C747 0.930 . S
H740 C750 0.930 . S
H741 C751 0.930 . S
C742 H736 0.930 . S
C742 C743 1.355 . S
C742 C744 1.415 . S
C743 C742 1.355 . S
C743 C745 1.419 . S
C744 C742 1.415 . S
C744 C749 1.425 . S
C744 C751 1.409 . S
C745 H737 0.930 . S
C745 C743 1.419 . S
C745 C746 1.362 . S
C746 H738 0.930 . S
C746 C745 1.362 . S
C746 C749 1.409 . S
C747 H739 0.930 . S
C747 C748 1.355 . S
C747 C749 1.415 . S
C748 C747 1.355 . S
C748 C750 1.419 . S
C749 C744 1.425 . S
C749 C746 1.409 . S
C749 C747 1.415 . S
C750 H740 0.930 . S
C750 C748 1.419 . S
C750 C751 1.362 . S
C751 H741 0.930 . S
C751 C744 1.409 . S
C751 C750 1.362 . S
H752 C758 0.930 . S
H753 C761 0.930 . S
H754 C762 0.930 . S
H755 C763 0.930 . S
H756 C766 0.930 . S
H757 C767 0.930 . S
C758 H752 0.930 . S
C758 C759 1.355 . S
C758 C760 1.415 . S
C759 C758 1.355 . S
C759 C761 1.419 . S
C760 C758 1.415 . S
C760 C765 1.425 . S
C760 C767 1.409 . S
C761 H753 0.930 . S
C761 C759 1.419 . S
C761 C762 1.362 . S
C762 H754 0.930 . S
C762 C761 1.362 . S
C762 C765 1.409 . S
C763 H755 0.930 . S
C763 C764 1.355 . S
C763 C765 1.415 . S
C764 C763 1.355 . S
C764 C766 1.419 . S
C765 C760 1.425 . S
C765 C762 1.409 . S
C765 C763 1.415 . S
C766 H756 0.930 . S
C766 C764 1.419 . S
C766 C767 1.362 . S
C767 H757 0.930 . S
C767 C760 1.409 . S
C767 C766 1.362 . S
H768 C774 0.930 . S
H769 C777 0.930 . S
H770 C778 0.930 . S
H771 C779 0.930 . S
H772 C782 0.930 . S
H773 C783 0.930 . S
C774 H768 0.930 . S
C774 C775 1.355 . S
C774 C776 1.415 . S
C775 C774 1.355 . S
C775 C777 1.419 . S
C776 C774 1.415 . S
C776 C781 1.425 . S
C776 C783 1.409 . S
C777 H769 0.930 . S
C777 C775 1.419 . S
C777 C778 1.362 . S
C778 H770 0.930 . S
C778 C777 1.362 . S
C778 C781 1.409 . S
C779 H771 0.930 . S
C779 C780 1.355 . S
C779 C781 1.415 . S
C780 C779 1.355 . S
C780 C782 1.419 . S
C781 C776 1.425 . S
C781 C778 1.409 . S
C781 C779 1.415 . S
C782 H772 0.930 . S
C782 C780 1.419 . S
C782 C783 1.362 . S
C783 H773 0.930 . S
C783 C776 1.409 . S
C783 C782 1.362 . S
H784 C790 0.930 . S
H785 C793 0.930 . S
H786 C794 0.930 . S
H787 C795 0.930 . S
H788 C798 0.930 . S
H789 C799 0.930 . S
C790 H784 0.930 . S
C790 C791 1.355 . S
C790 C792 1.415 . S
C791 C790 1.355 . S
C791 C793 1.419 . S
C792 C790 1.415 . S
C792 C797 1.425 . S
C792 C799 1.409 . S
C793 H785 0.930 . S
C793 C791 1.419 . S
C793 C794 1.362 . S
C794 H786 0.930 . S
C794 C793 1.362 . S
C794 C797 1.409 . S
C795 H787 0.930 . S
C795 C796 1.355 . S
C795 C797 1.415 . S
C796 C795 1.355 . S
C796 C798 1.419 . S
C797 C792 1.425 . S
C797 C794 1.409 . S
C797 C795 1.415 . S
C798 H788 0.930 . S
C798 C796 1.419 . S
C798 C799 1.362 . S
C799 H789 0.930 . S
C799 C792 1.409 . S
C799 C798 1.362 . S
H800 C806 0.930 . S
H801 C809 0.930 . S
H802 C810 0.930 . S
H803 C811 0.930 . S
H804 C814 0.930 . S
H805 C815 0.930 . S
C806 H800 0.930 . S
C806 C807 1.355 . S
C806 C808 1.415 . S
C807 C806 1.355 . S
C807 C809 1.419 . S
C808 C806 1.415 . S
C808 C813 1.425 . S
C808 C815 1.409 . S
C809 H801 0.930 . S
C809 C807 1.419 . S
C809 C810 1.362 . S
C810 H802 0.930 . S
C810 C809 1.362 . S
C810 C813 1.409 . S
C811 H803 0.930 . S
C811 C812 1.355 . S
C811 C813 1.415 . S
C812 C811 1.355 . S
C812 C814 1.419 . S
C813 C808 1.425 . S
C813 C810 1.409 . S
C813 C811 1.415 . S
C814 H804 0.930 . S
C814 C812 1.419 . S
C814 C815 1.362 . S
C815 H805 0.930 . S
C815 C808 1.409 . S
C815 C814 1.362 . S
H816 C822 0.930 . S
H817 C825 0.930 . S
H818 C826 0.930 . S
H819 C827 0.930 . S
H820 C830 0.930 . S
H821 C831 0.930 . S
C822 H816 0.930 . S
C822 C823 1.355 . S
C822 C824 1.415 . S
C823 C822 1.355 . S
C823 C825 1.419 . S
C824 C822 1.415 . S
C824 C829 1.425 . S
C824 C831 1.409 . S
C825 H817 0.930 . S
C825 C823 1.419 . S
C825 C826 1.362 . S
C826 H818 0.930 . S
C826 C825 1.362 . S
C826 C829 1.409 . S
C827 H819 0.930 . S
C827 C828 1.355 . S
C827 C829 1.415 . S
C828 C827 1.355 . S
C828 C830 1.419 . S
C829 C824 1.425 . S
C829 C826 1.409 . S
C829 C827 1.415 . S
C830 H820 0.930 . S
C830 C828 1.419 . S
C830 C831 1.362 . S
C831 H821 0.930 . S
C831 C824 1.409 . S
C831 C830 1.362 . S
H832 C838 0.930 . S
H833 C841 0.930 . S
H834 C842 0.930 . S
H835 C843 0.930 . S
H836 C846 0.930 . S
H837 C847 0.930 . S
C838 H832 0.930 . S
C838 C839 1.355 . S
C838 C840 1.415 . S
C839 C838 1.355 . S
C839 C841 1.419 . S
C840 C838 1.415 . S
C840 C845 1.425 . S
C840 C847 1.409 . S
C841 H833 0.930 . S
C841 C839 1.419 . S
C841 C842 1.362 . S
C842 H834 0.930 . S
C842 C841 1.362 . S
C842 C845 1.409 . S
C843 H835 0.930 . S
C843 C844 1.355 . S
C843 C845 1.415 . S
C844 C843 1.355 . S
C844 C846 1.419 . S
C845 C840 1.425 . S
C845 C842 1.409 . S
C845 C843 1.415 . S
C846 H836 0.930 . S
C846 C844 1.419 . S
C846 C847 1.362 . S
C847 H837 0.930 . S
C847 C840 1.409 . S
C847 C846 1.362 . S
H848 C854 0.930 . S
H849 C857 0.930 . S
H850 C858 0.930 . S
H851 C859 0.930 . S
H852 C862 0.930 . S
H853 C863 0.930 . S
C854 H848 0.930 . S
C854 C855 1.355 . S
C854 C856 1.415 . S
C855 C854 1.355 . S
C855 C857 1.419 . S
C856 C854 1.415 . S
C856 C861 1.425 . S
C856 C863 1.409 . S
C857 H849 0.930 . S
C857 C855 1.419 . S
C857 C858 1.362 . S
C858 H850 0.930 . S
C858 C857 1.362 . S
C858 C861 1.409 . S
C859 H851 0.930 . S
C859 C860 1.355 . S
C859 C861 1.415 . S
C860 C859 1.355 . S
C860 C862 1.419 . S
C861 C856 1.425 . S
C861 C858 1.409 . S
C861 C859 1.415 . S
C862 H852 0.930 . S
C862 C860 1.419 . S
C862 C863 1.362 . S
C863 H853 0.930 . S
C863 C856 1.409 . S
C863 C862 1.362 . S
H864 C870 0.930 . S
H865 C873 0.930 . S
H866 C874 0.930 . S
H867 C875 0.930 . S
H868 C878 0.930 . S
H869 C879 0.930 . S
C870 H864 0.930 . S
C870 C871 1.355 . S
C870 C872 1.415 . S
C871 C870 1.355 . S
C871 C873 1.419 . S
C872 C870 1.415 . S
C872 C877 1.425 . S
C872 C879 1.409 . S
C873 H865 0.930 . S
C873 C871 1.419 . S
C873 C874 1.362 . S
C874 H866 0.930 . S
C874 C873 1.362 . S
C874 C877 1.409 . S
C875 H867 0.930 . S
C875 C876 1.355 . S
C875 C877 1.415 . S
C876 C875 1.355 . S
C876 C878 1.419 . S
C877 C872 1.425 . S
C877 C874 1.409 . S
C877 C875 1.415 . S
C878 H868 0.930 . S
C878 C876 1.419 . S
C878 C879 1.362 . S
C879 H869 0.930 . S
C879 C872 1.409 . S
C879 C878 1.362 . S
H880 C886 0.930 . S
H881 C889 0.930 . S
H882 C890 0.930 . S
H883 C891 0.930 . S
H884 C894 0.930 . S
H885 C895 0.930 . S
C886 H880 0.930 . S
C886 C887 1.355 . S
C886 C888 1.415 . S
C887 C886 1.355 . S
C887 C889 1.419 . S
C888 C886 1.415 . S
C888 C893 1.425 . S
C888 C895 1.409 . S
C889 H881 0.930 . S
C889 C887 1.419 . S
C889 C890 1.362 . S
C890 H882 0.930 . S
C890 C889 1.362 . S
C890 C893 1.409 . S
C891 H883 0.930 . S
C891 C892 1.355 . S
C891 C893 1.415 . S
C892 C891 1.355 . S
C892 C894 1.419 . S
C893 C888 1.425 . S
C893 C890 1.409 . S
C893 C891 1.415 . S
C894 H884 0.930 . S
C894 C892 1.419 . S
C894 C895 1.362 . S
C895 H885 0.930 . S
C895 C888 1.409 . S
C895 C894 1.362 . S
H896 C902 0.930 . S
H897 C905 0.930 . S
H898 C906 0.930 . S
H899 C907 0.930 . S
H900 C910 0.930 . S
H901 C911 0.930 . S
C902 H896 0.930 . S
C902 C903 1.355 . S
C902 C904 1.415 . S
C903 C902 1.355 . S
C903 C905 1.419 . S
C904 C902 1.415 . S
C904 C909 1.425 . S
C904 C911 1.409 . S
C905 H897 0.930 . S
C905 C903 1.419 . S
C905 C906 1.362 . S
C906 H898 0.930 . S
C906 C905 1.362 . S
C906 C909 1.409 . S
C907 H899 0.930 . S
C907 C908 1.355 . S
C907 C909 1.415 . S
C908 C907 1.355 . S
C908 C910 1.419 . S
C909 C904 1.425 . S
C909 C906 1.409 . S
C909 C907 1.415 . S
C910 H900 0.930 . S
C910 C908 1.419 . S
C910 C911 1.362 . S
C911 H901 0.930 . S
C911 C904 1.409 . S
C911 C910 1.362 . S
H912 C918 0.930 . S
H913 C921 0.930 . S
H914 C922 0.930 . S
H915 C923 0.930 . S
H916 C926 0.930 . S
H917 C927 0.930 . S
C918 H912 0.930 . S
C918 C919 1.355 . S
C918 C920 1.415 . S
C919 C918 1.355 . S
C919 C921 1.419 . S
C920 C918 1.415 . S
C920 C925 1.425 . S
C920 C927 1.409 . S
C921 H913 0.930 . S
C921 C919 1.419 . S
C921 C922 1.362 . S
C922 H914 0.930 . S
C922 C921 1.362 . S
C922 C925 1.409 . S
C923 H915 0.930 . S
C923 C924 1.355 . S
C923 C925 1.415 . S
C924 C923 1.355 . S
C924 C926 1.419 . S
C925 C920 1.425 . S
C925 C922 1.409 . S
C925 C923 1.415 . S
C926 H916 0.930 . S
C926 C924 1.419 . S
C926 C927 1.362 . S
C927 H917 0.930 . S
C927 C920 1.409 . S
C927 C926 1.362 . S
H928 C934 0.930 . S
H929 C937 0.930 . S
H930 C938 0.930 . S
H931 C939 0.930 . S
H932 C942 0.930 . S
H933 C943 0.930 . S
C934 H928 0.930 . S
C934 C935 1.355 . S
C934 C936 1.415 . S
C935 C934 1.355 . S
C935 C937 1.419 . S
C936 C934 1.415 . S
C936 C941 1.425 . S
C936 C943 1.409 . S
C937 H929 0.930 . S
C937 C935 1.419 . S
C937 C938 1.362 . S
C938 H930 0.930 . S
C938 C937 1.362 . S
C938 C941 1.409 . S
C939 H931 0.930 . S
C939 C940 1.355 . S
C939 C941 1.415 . S
C940 C939 1.355 . S
C940 C942 1.419 . S
C941 C936 1.425 . S
C941 C938 1.409 . S
C941 C939 1.415 . S
C942 H932 0.930 . S
C942 C940 1.419 . S
C942 C943 1.362 . S
C943 H933 0.930 . S
C943 C936 1.409 . S
C943 C942 1.362 . S
H944 C950 0.930 . S
H945 C953 0.930 . S
H946 C954 0.930 . S
H947 C955 0.930 . S
H948 C958 0.930 . S
H949 C959 0.930 . S
C950 H944 0.930 . S
C950 C951 1.355 . S
C950 C952 1.415 . S
C951 C950 1.355 . S
C951 C953 1.419 . S
C952 C950 1.415 . S
C952 C957 1.425 . S
C952 C959 1.409 . S
C953 H945 0.930 . S
C953 C951 1.419 . S
C953 C954 1.362 . S
C954 H946 0.930 . S
C954 C953 1.362 . S
C954 C957 1.409 . S
C955 H947 0.930 . S
C955 C956 1.355 . S
C955 C957 1.415 . S
C956 C955 1.355 . S
C956 C958 1.419 . S
C957 C952 1.425 . S
C957 C954 1.409 . S
C957 C955 1.415 . S
C958 H948 0.930 . S
C958 C956 1.419 . S
C958 C959 1.362 . S
C959 H949 0.930 . S
C959 C952 1.409 . S
C959 C958 1.362 . S
H960 C966 0.930 . S
H961 C969 0.930 . S
H962 C970 0.930 . S
H963 C971 0.930 . S
H964 C974 0.930 . S
H965 C975 0.930 . S
C966 H960 0.930 . S
C966 C967 1.355 . S
C966 C968 1.415 . S
C967 C966 1.355 . S
C967 C969 1.419 . S
C968 C966 1.415 . S
C968 C973 1.425 . S
C968 C975 1.409 . S
C969 H961 0.930 . S
C969 C967 1.419 . S
C969 C970 1.362 . S
C970 H962 0.930 . S
C970 C969 1.362 . S
C970 C973 1.409 . S
C971 H963 0.930 . S
C971 C972 1.355 . S
C971 C973 1.415 . S
C972 C971 1.355 . S
C972 C974 1.419 . S
C973 C968 1.425 . S
C973 C970 1.409 . S
C973 C971 1.415 . S
C974 H964 0.930 . S
C974 C972 1.419 . S
C974 C975 1.362 . S
C975 H965 0.930 . S
C975 C968 1.409 . S
C975 C974 1.362 . S
H976 C982 0.930 . S
H977 C985 0.930 . S
H978 C986 0.930 . S
H979 C987 0.930 . S
H980 C990 0.930 . S
H981 C991 0.930 . S
C982 H976 0.930 . S
C982 C983 1.355 . S
C982 C984 1.415 . S
C983 C982 1.355 . S
C983 C985 1.419 . S
C984 C982 1.415 . S
C984 C989 1.425 . S
C984 C991 1.409 . S
C985 H977 0.930 . S
C985 C983 1.419 . S
C985 C986 1.362 . S
C986 H978 0.930 . S
C986 C985 1.362 . S
C986 C989 1.409 . S
C987 H979 0.930 . S
C987 C988 1.355 . S
C987 C989 1.415 . S
C988 C987 1.355 . S
C988 C990 1.419 . S
C989 C984 1.425 . S
C989 C986 1.409 . S
C989 C987 1.415 . S
C990 H980 0.930 . S
C990 C988 1.419 . S
C990 C991 1.362 . S
C991 H981 0.930 . S
C991 C984 1.409 . S
C991 C990 1.362 . S
H992 C998 0.930 . S
H993 C1001 0.930 . S
H994 C1002 0.930 . S
H995 C1003 0.930 . S
H996 C1006 0.930 . S
H997 C1007 0.930 . S
C998 H992 0.930 . S
C998 C999 1.355 . S
C998 C1000 1.415 . S
C999 C998 1.355 . S
C999 C1001 1.419 . S
C1000 C998 1.415 . S
C1000 C1005 1.425 . S
C1000 C1007 1.409 . S
C1001 H993 0.930 . S
C1001 C999 1.419 . S
C1001 C1002 1.362 . S
C1002 H994 0.930 . S
C1002 C1001 1.362 . S
C1002 C1005 1.409 . S
C1003 H995 0.930 . S
C1003 C1004 1.355 . S
C1003 C1005 1.415 . S
C1004 C1003 1.355 . S
C1004 C1006 1.419 . S
C1005 C1000 1.425 . S
C1005 C1002 1.409 . S
C1005 C1003 1.415 . S
C1006 H996 0.930 . S
C1006 C1004 1.419 . S
C1006 C1007 1.362 . S
C1007 H997 0.930 . S
C1007 C1000 1.409 . S
C1007 C1006 1.362 . S
H1008 C1014 0.930 . S
H1009 C1017 0.930 . S
H1010 C1018 0.930 . S
H1011 C1019 0.930 . S
H1012 C1022 0.930 . S
H1013 C1023 0.930 . S
C1014 H1008 0.930 . S
C1014 C1015 1.355 . S
C1014 C1016 1.415 . S
C1015 C1014 1.355 . S
C1015 C1017 1.419 . S
C1016 C1014 1.415 . S
C1016 C1021 1.425 . S
C1016 C1023 1.409 . S
C1017 H1009 0.930 . S
C1017 C1015 1.419 . S
C1017 C1018 1.362 . S
C1018 H1010 0.930 . S
C1018 C1017 1.362 . S
C1018 C1021 1.409 . S
C1019 H1011 0.930 . S
C1019 C1020 1.355 . S
C1019 C1021 1.415 . S
C1020 C1019 1.355 . S
C1020 C1022 1.419 . S
C1021 C1016 1.425 . S
C1021 C1018 1.409 . S
C1021 C1019 1.415 . S
C1022 H1012 0.930 . S
C1022 C1020 1.419 . S
C1022 C1023 1.362 . S
C1023 H1013 0.930 . S
C1023 C1016 1.409 . S
C1023 C1022 1.362 . S
H1024 C1030 0.930 . S
H1025 C1033 0.930 . S
H1026 C1034 0.930 . S
H1027 C1035 0.930 . S
H1028 C1038 0.930 . S
H1029 C1039 0.930 . S
C1030 H1024 0.930 . S
C1030 C1031 1.355 . S
C1030 C1032 1.415 . S
C1031 C1030 1.355 . S
C1031 C1033 1.419 . S
C1032 C1030 1.415 . S
C1032 C1037 1.425 . S
C1032 C1039 1.409 . S
C1033 H1025 0.930 . S
C1033 C1031 1.419 . S
C1033 C1034 1.362 . S
C1034 H1026 0.930 . S
C1034 C1033 1.362 . S
C1034 C1037 1.409 . S
C1035 H1027 0.930 . S
C1035 C1036 1.355 . S
C1035 C1037 1.415 . S
C1036 C1035 1.355 . S
C1036 C1038 1.419 . S
C1037 C1032 1.425 . S
C1037 C1034 1.409 . S
C1037 C1035 1.415 . S
C1038 H1028 0.930 . S
C1038 C1036 1.419 . S
C1038 C1039 1.362 . S
C1039 H1029 0.930 . S
C1039 C1032 1.409 . S
C1039 C1038 1.362 . S
H1040 C1046 0.930 . S
H1041 C1049 0.930 . S
H1042 C1050 0.930 . S
H1043 C1051 0.930 . S
H1044 C1054 0.930 . S
H1045 C1055 0.930 . S
C1046 H1040 0.930 . S
C1046 C1047 1.355 . S
C1046 C1048 1.415 . S
C1047 C1046 1.355 . S
C1047 C1049 1.419 . S
C1048 C1046 1.415 . S
C1048 C1053 1.425 . S
C1048 C1055 1.409 . S
C1049 H1041 0.930 . S
C1049 C1047 1.419 . S
C1049 C1050 1.362 . S
C1050 H1042 0.930 . S
C1050 C1049 1.362 . S
C1050 C1053 1.409 . S
C1051 H1043 0.930 . S
C1051 C1052 1.355 . S
C1051 C1053 1.415 . S
C1052 C1051 1.355 . S
C1052 C1054 1.419 . S
C1053 C1048 1.425 . S
C1053 C1050 1.409 . S
C1053 C1051 1.415 . S
C1054 H1044 0.930 . S
C1054 C1052 1.419 . S
C1054 C1055 1.362 . S
C1055 H1045 0.930 . S
C1055 C1048 1.409 . S
C1055 C1054 1.362 . S
H1056 C1062 0.930 . S
H1057 C1065 0.930 . S
H1058 C1066 0.930 . S
H1059 C1067 0.930 . S
H1060 C1070 0.930 . S
H1061 C1071 0.930 . S
C1062 H1056 0.930 . S
C1062 C1063 1.355 . S
C1062 C1064 1.415 . S
C1063 C1062 1.355 . S
C1063 C1065 1.419 . S
C1064 C1062 1.415 . S
C1064 C1069 1.425 . S
C1064 C1071 1.409 . S
C1065 H1057 0.930 . S
C1065 C1063 1.419 . S
C1065 C1066 1.362 . S
C1066 H1058 0.930 . S
C1066 C1065 1.362 . S
C1066 C1069 1.409 . S
C1067 H1059 0.930 . S
C1067 C1068 1.355 . S
C1067 C1069 1.415 . S
C1068 C1067 1.355 . S
C1068 C1070 1.419 . S
C1069 C1064 1.425 . S
C1069 C1066 1.409 . S
C1069 C1067 1.415 . S
C1070 H1060 0.930 . S
C1070 C1068 1.419 . S
C1070 C1071 1.362 . S
C1071 H1061 0.930 . S
C1071 C1064 1.409 . S
C1071 C1070 1.362 . S
H1072 C1078 0.930 . S
H1073 C1081 0.930 . S
H1074 C1082 0.930 . S
H1075 C1083 0.930 . S
H1076 C1086 0.930 . S
H1077 C1087 0.930 . S
C1078 H1072 0.930 . S
C1078 C1079 1.355 . S
C1078 C1080 1.415 . S
C1079 C1078 1.355 . S
C1079 C1081 1.419 . S
C1080 C1078 1.415 . S
C1080 C1085 1.425 . S
C1080 C1087 1.409 . S
C1081 H1073 0.930 . S
C1081 C1079 1.419 . S
C1081 C1082 1.362 . S
C1082 H1074 0.930 . S
C1082 C1081 1.362 . S
C1082 C1085 1.409 . S
C1083 H1075 0.930 . S
C1083 C1084 1.355 . S
C1083 C1085 1.415 . S
C1084 C1083 1.355 . S
C1084 C1086 1.419 . S
C1085 C1080 1.425 . S
C1085 C1082 1.409 . S
C1085 C1083 1.415 . S
C1086 H1076 0.930 . S
C1086 C1084 1.419 . S
C1086 C1087 1.362 . S
C1087 H1077 0.930 . S
C1087 C1080 1.409 . S
C1087 C1086 1.362 . S
H1088 C1094 0.930 . S
H1089 C1097 0.930 . S
H1090 C1098 0.930 . S
H1091 C1099 0.930 . S
H1092 C1102 0.930 . S
H1093 C1103 0.930 . S
C1094 H1088 0.930 . S
C1094 C1095 1.355 . S
C1094 C1096 1.415 . S
C1095 C1094 1.355 . S
C1095 C1097 1.419 . S
C1096 C1094 1.415 . S
C1096 C1101 1.425 . S
C1096 C1103 1.409 . S
C1097 H1089 0.930 . S
C1097 C1095 1.419 . S
C1097 C1098 1.362 . S
C1098 H1090 0.930 . S
C1098 C1097 1.362 . S
C1098 C1101 1.409 . S
C1099 H1091 0.930 . S
C1099 C1100 1.355 . S
C1099 C1101 1.415 . S
C1100 C1099 1.355 . S
C1100 C1102 1.419 . S
C1101 C1096 1.425 . S
C1101 C1098 1.409 . S
C1101 C1099 1.415 . S
C1102 H1092 0.930 . S
C1102 C1100 1.419 . S
C1102 C1103 1.362 . S
C1103 H1093 0.930 . S
C1103 C1096 1.409 . S
C1103 C1102 1.362 . S
H1104 C1110 0.930 . S
H1105 C1113 0.930 . S
H1106 C1114 0.930 . S
H1107 C1115 0.930 . S
H1108 C1118 0.930 . S
H1109 C1119 0.930 . S
C1110 H1104 0.930 . S
C1110 C1111 1.355 . S
C1110 C1112 1.415 . S
C1111 C1110 1.355 . S
C1111 C1113 1.419 . S
C1112 C1110 1.415 . S
C1112 C1117 1.425 . S
C1112 C1119 1.409 . S
C1113 H1105 0.930 . S
C1113 C1111 1.419 . S
C1113 C1114 1.362 . S
C1114 H1106 0.930 . S
C1114 C1113 1.362 . S
C1114 C1117 1.409 . S
C1115 H1107 0.930 . S
C1115 C1116 1.355 . S
C1115 C1117 1.415 . S
C1116 C1115 1.355 . S
C1116 C1118 1.419 . S
C1117 C1112 1.425 . S
C1117 C1114 1.409 . S
C1117 C1115 1.415 . S
C1118 H1108 0.930 . S
C1118 C1116 1.419 . S
C1118 C1119 1.362 . S
C1119 H1109 0.930 . S
C1119 C1112 1.409 . S
C1119 C1118 1.362 . S
H1120 C1126 0.930 . S
H1121 C1129 0.930 . S
H1122 C1130 0.930 . S
H1123 C1131 0.930 . S
H1124 C1134 0.930 . S
H1125 C1135 0.930 . S
C1126 H1120 0.930 . S
C1126 C1127 1.355 . S
C1126 C1128 1.415 . S
C1127 C1126 1.355 . S
C1127 C1129 1.419 . S
C1128 C1126 1.415 . S
C1128 C1133 1.425 . S
C1128 C1135 1.409 . S
C1129 H1121 0.930 . S
C1129 C1127 1.419 . S
C1129 C1130 1.362 . S
C1130 H1122 0.930 . S
C1130 C1129 1.362 . S
C1130 C1133 1.409 . S
C1131 H1123 0.930 . S
C1131 C1132 1.355 . S
C1131 C1133 1.415 . S
C1132 C1131 1.355 . S
C1132 C1134 1.419 . S
C1133 C1128 1.425 . S
C1133 C1130 1.409 . S
C1133 C1131 1.415 . S
C1134 H1124 0.930 . S
C1134 C1132 1.419 . S
C1134 C1135 1.362 . S
C1135 H1125 0.930 . S
C1135 C1128 1.409 . S
C1135 C1134 1.362 . S
H1136 C1142 0.930 . S
H1137 C1145 0.930 . S
H1138 C1146 0.930 . S
H1139 C1147 0.930 . S
H1140 C1150 0.930 . S
H1141 C1151 0.930 . S
C1142 H1136 0.930 . S
C1142 C1143 1.355 . S
C1142 C1144 1.415 . S
C1143 C1142 1.355 . S
C1143 C1145 1.419 . S
C1144 C1142 1.415 . S
C1144 C1149 1.425 . S
C1144 C1151 1.409 . S
C1145 H1137 0.930 . S
C1145 C1143 1.419 . S
C1145 C1146 1.362 . S
C1146 H1138 0.930 . S
C1146 C1145 1.362 . S
C1146 C1149 1.409 . S
C1147 H1139 0.930 . S
C1147 C1148 1.355 . S
C1147 C1149 1.415 . S
C1148 C1147 1.355 . S
C1148 C1150 1.419 . S
C1149 C1144 1.425 . S
C1149 C1146 1.409 . S
C1149 C1147 1.415 . S
C1150 H1140 0.930 . S
C1150 C1148 1.419 . S
C1150 C1151 1.362 . S
C1151 H1141 0.930 . S
C1151 C1144 1.409 . S
C1151 C1150 1.362 . S
H1152 C1158 0.930 . S
H1153 C1161 0.930 . S
H1154 C1162 0.930 . S
H1155 C1163 0.930 . S
H1156 C1166 0.930 . S
H1157 C1167 0.930 . S
C1158 H1152 0.930 . S
C1158 C1159 1.355 . S
C1158 C1160 1.415 . S
C1159 C1158 1.355 . S
C1159 C1161 1.419 . S
C1160 C1158 1.415 . S
C1160 C1165 1.425 . S
C1160 C1167 1.409 . S
C1161 H1153 0.930 . S
C1161 C1159 1.419 . S
C1161 C1162 1.362 . S
C1162 H1154 0.930 . S
C1162 C1161 1.362 . S
C1162 C1165 1.409 . S
C1163 H1155 0.930 . S
C1163 C1164 1.355 . S
C1163 C1165 1.415 . S
C1164 C1163 1.355 . S
C1164 C1166 1.419 . S
C1165 C1160 1.425 . S
C1165 C1162 1.409 . S
C1165 C1163 1.415 . S
C1166 H1156 0.930 . S
C1166 C1164 1.419 . S
C1166 C1167 1.362 . S
C1167 H1157 0.930 . S
C1167 C1160 1.409 . S
C1167 C1166 1.362 . S
H1168 C1174 0.930 . S
H1169 C1177 0.930 . S
H1170 C1178 0.930 . S
H1171 C1179 0.930 . S
H1172 C1182 0.930 . S
H1173 C1183 0.930 . S
C1174 H1168 0.930 . S
C1174 C1175 1.355 . S
C1174 C1176 1.415 . S
C1175 C1174 1.355 . S
C1175 C1177 1.419 . S
C1176 C1174 1.415 . S
C1176 C1181 1.425 . S
C1176 C1183 1.409 . S
C1177 H1169 0.930 . S
C1177 C1175 1.419 . S
C1177 C1178 1.362 . S
C1178 H1170 0.930 . S
C1178 C1177 1.362 . S
C1178 C1181 1.409 . S
C1179 H1171 0.930 . S
C1179 C1180 1.355 . S
C1179 C1181 1.415 . S
C1180 C1179 1.355 . S
C1180 C1182 1.419 . S
C1181 C1176 1.425 . S
C1181 C1178 1.409 . S
C1181 C1179 1.415 . S
C1182 H1172 0.930 . S
C1182 C1180 1.419 . S
C1182 C1183 1.362 . S
C1183 H1173 0.930 . S
C1183 C1176 1.409 . S
C1183 C1182 1.362 . S
H1184 C1190 0.930 . S
H1185 C1193 0.930 . S
H1186 C1194 0.930 . S
H1187 C1195 0.930 . S
H1188 C1198 0.930 . S
H1189 C1199 0.930 . S
C1190 H1184 0.930 . S
C1190 C1191 1.355 . S
C1190 C1192 1.415 . S
C1191 C1190 1.355 . S
C1191 C1193 1.419 . S
C1192 C1190 1.415 . S
C1192 C1197 1.425 . S
C1192 C1199 1.409 . S
C1193 H1185 0.930 . S
C1193 C1191 1.419 . S
C1193 C1194 1.362 . S
C1194 H1186 0.930 . S
C1194 C1193 1.362 . S
C1194 C1197 1.409 . S
C1195 H1187 0.930 . S
C1195 C1196 1.355 . S
C1195 C1197 1.415 . S
C1196 C1195 1.355 . S
C1196 C1198 1.419 . S
C1197 C1192 1.425 . S
C1197 C1194 1.409 . S
C1197 C1195 1.415 . S
C1198 H1188 0.930 . S
C1198 C1196 1.419 . S
C1198 C1199 1.362 . S
C1199 H1189 0.930 . S
C1199 C1192 1.409 . S
C1199 C1198 1.362 . S
H1200 C1206 0.930 . S
H1201 C1209 0.930 . S
H1202 C1210 0.930 . S
H1203 C1211 0.930 . S
H1204 C1214 0.930 . S
H1205 C1215 0.930 . S
C1206 H1200 0.930 . S
C1206 C1207 1.355 . S
C1206 C1208 1.415 . S
C1207 C1206 1.355 . S
C1207 C1209 1.419 . S
C1208 C1206 1.415 . S
C1208 C1213 1.425 . S
C1208 C1215 1.409 . S
C1209 H1201 0.930 . S
C1209 C1207 1.419 . S
C1209 C1210 1.362 . S
C1210 H1202 0.930 . S
C1210 C1209 1.362 . S
C1210 C1213 1.409 . S
C1211 H1203 0.930 . S
C1211 C1212 1.355 . S
C1211 C1213 1.415 . S
C1212 C1211 1.355 . S
C1212 C1214 1.419 . S
C1213 C1208 1.425 . S
C1213 C1210 1.409 . S
C1213 C1211 1.415 . S
C1214 H1204 0.930 . S
C1214 C1212 1.419 . S
C1214 C1215 1.362 . S
C1215 H1205 0.930 . S
C1215 C1208 1.409 . S
C1215 C1214 1.362 . S
H1216 C1222 0.930 . S
H1217 C1225 0.930 . S
H1218 C1226 0.930 . S
H1219 C1227 0.930 . S
H1220 C1230 0.930 . S
H1221 C1231 0.930 . S
C1222 H1216 0.930 . S
C1222 C1223 1.355 . S
C1222 C1224 1.415 . S
C1223 C1222 1.355 . S
C1223 C1225 1.419 . S
C1224 C1222 1.415 . S
C1224 C1229 1.425 . S
C1224 C1231 1.409 . S
C1225 H1217 0.930 . S
C1225 C1223 1.419 . S
C1225 C1226 1.362 . S
C1226 H1218 0.930 . S
C1226 C1225 1.362 . S
C1226 C1229 1.409 . S
C1227 H1219 0.930 . S
C1227 C1228 1.355 . S
C1227 C1229 1.415 . S
C1228 C1227 1.355 . S
C1228 C1230 1.419 . S
C1229 C1224 1.425 . S
C1229 C1226 1.409 . S
C1229 C1227 1.415 . S
C1230 H1220 0.930 . S
C1230 C1228 1.419 . S
C1230 C1231 1.362 . S
C1231 H1221 0.930 . S
C1231 C1224 1.409 . S
C1231 C1230 1.362 . S
H1232 C1238 0.930 . S
H1233 C1241 0.930 . S
H1234 C1242 0.930 . S
H1235 C1243 0.930 . S
H1236 C1246 0.930 . S
H1237 C1247 0.930 . S
C1238 H1232 0.930 . S
C1238 C1239 1.355 . S
C1238 C1240 1.415 . S
C1239 C1238 1.355 . S
C1239 C1241 1.419 . S
C1240 C1238 1.415 . S
C1240 C1245 1.425 . S
C1240 C1247 1.409 . S
C1241 H1233 0.930 . S
C1241 C1239 1.419 . S
C1241 C1242 1.362 . S
C1242 H1234 0.930 . S
C1242 C1241 1.362 . S
C1242 C1245 1.409 . S
C1243 H1235 0.930 . S
C1243 C1244 1.355 . S
C1243 C1245 1.415 . S
C1244 C1243 1.355 . S
C1244 C1246 1.419 . S
C1245 C1240 1.425 . S
C1245 C1242 1.409 . S
C1245 C1243 1.415 . S
C1246 H1236 0.930 . S
C1246 C1244 1.419 . S
C1246 C1247 1.362 . S
C1247 H1237 0.930 . S
C1247 C1240 1.409 . S
C1247 C1246 1.362 . S
H1248 C1254 0.930 . S
H1249 C1257 0.930 . S
H1250 C1258 0.930 . S
H1251 C1259 0.930 . S
H1252 C1262 0.930 . S
H1253 C1263 0.930 . S
C1254 H1248 0.930 . S
C1254 C1255 1.355 . S
C1254 C1256 1.415 . S
C1255 C1254 1.355 . S
C1255 C1257 1.419 . S
C1256 C1254 1.415 . S
C1256 C1261 1.425 . S
C1256 C1263 1.409 . S
C1257 H1249 0.930 . S
C1257 C1255 1.419 . S
C1257 C1258 1.362 . S
C1258 H1250 0.930 . S
C1258 C1257 1.362 . S
C1258 C1261 1.409 . S
C1259 H1251 0.930 . S
C1259 C1260 1.355 . S
C1259 C1261 1.415 . S
C1260 C1259 1.355 . S
C1260 C1262 1.419 . S
C1261 C1256 1.425 . S
C1261 C1258 1.409 . S
C1261 C1259 1.415 . S
C1262 H1252 0.930 . S
C1262 C1260 1.419 . S
C1262 C1263 1.362 . S
C1263 H1253 0.930 . S
C1263 C1256 1.409 . S
C1263 C1262 1.362 . S
H1264 C1270 0.930 . S
H1265 C1273 0.930 . S
H1266 C1274 0.930 . S
H1267 C1275 0.930 . S
H1268 C1278 0.930 . S
H1269 C1279 0.930 . S
C1270 H1264 0.930 . S
C1270 C1271 1.355 . S
C1270 C1272 1.415 . S
C1271 C1270 1.355 . S
C1271 C1273 1.419 . S
C1272 C1270 1.415 . S
C1272 C1277 1.425 . S
C1272 C1279 1.409 . S
C1273 H1265 0.930 . S
C1273 C1271 1.419 . S
C1273 C1274 1.362 . S
C1274 H1266 0.930 . S
C1274 C1273 1.362 . S
C1274 C1277 1.409 . S
C1275 H1267 0.930 . S
C1275 C1276 1.355 . S
C1275 C1277 1.415 . S
C1276 C1275 1.355 . S
C1276 C1278 1.419 . S
C1277 C1272 1.425 . S
C1277 C1274 1.409 . S
C1277 C1275 1.415 . S
C1278 H1268 0.930 . S
C1278 C1276 1.419 . S
C1278 C1279 1.362 . S
C1279 H1269 0.930 . S
C1279 C1272 1.409 . S
C1279 C1278 1.362 . S
H1280 C1286 0.930 . S
H1281 C1289 0.930 . S
H1282 C1290 0.930 . S
H1283 C1291 0.930 . S
H1284 C1294 0.930 . S
H1285 C1295 0.930 . S
C1286 H1280 0.930 . S
C1286 C1287 1.355 . S
C1286 C1288 1.415 . S
C1287 C1286 1.355 . S
C1287 C1289 1.419 . S
C1288 C1286 1.415 . S
C1288 C1293 1.425 . S
C1288 C1295 1.409 . S
C1289 H1281 0.930 . S
C1289 C1287 1.419 . S
C1289 C1290 1.362 . S
C1290 H1282 0.930 . S
C1290 C1289 1.362 . S
C1290 C1293 1.409 . S
C1291 H1283 0.930 . S
C1291 C1292 1.355 . S
C1291 C1293 1.415 . S
C1292 C1291 1.355 . S
C1292 C1294 1.419 . S
C1293 C1288 1.425 . S
C1293 C1290 1.409 . S
C1293 C1291 1.415 . S
C1294 H1284 0.930 . S
C1294 C1292 1.419 . S
C1294 C1295 1.362 . S
C1295 H1285 0.930 . S
C1295 C1288 1.409 . S
C1295 C1294 1.362 . S
H1296 C1302 0.930 . S
H1297 C1305 0.930 . S
H1298 C1306 0.930 . S
H1299 C1307 0.930 . S
H1300 C1310 0.930 . S
H1301 C1311 0.930 . S
C1302 H1296 0.930 . S
C1302 C1303 1.355 . S
C1302 C1304 1.415 . S
C1303 C1302 1.355 . S
C1303 C1305 1.419 . S
C1304 C1302 1.415 . S
C1304 C1309 1.425 . S
C1304 C1311 1.409 . S
C1305 H1297 0.930 . S
C1305 C1303 1.419 . S
C1305 C1306 1.362 . S
C1306 H1298 0.930 . S
C1306 C1305 1.362 . S
C1306 C1309 1.409 . S
C1307 H1299 0.930 . S
C1307 C1308 1.355 . S
C1307 C1309 1.415 . S
C1308 C1307 1.355 . S
C1308 C1310 1.419 . S
C1309 C1304 1.425 . S
C1309 C1306 1.409 . S
C1309 C1307 1.415 . S
C1310 H1300 0.930 . S
C1310 C1308 1.419 . S
C1310 C1311 1.362 . S
C1311 H1301 0.930 . S
C1311 C1304 1.409 . S
C1311 C1310 1.362 . S
H1312 C1318 0.930 . S
H1313 C1321 0.930 . S
H1314 C1322 0.930 . S
H1315 C1323 0.930 . S
H1316 C1326 0.930 . S
H1317 C1327 0.930 . S
C1318 H1312 0.930 . S
C1318 C1319 1.355 . S
C1318 C1320 1.415 . S
C1319 C1318 1.355 . S
C1319 C1321 1.419 . S
C1320 C1318 1.415 . S
C1320 C1325 1.425 . S
C1320 C1327 1.409 . S
C1321 H1313 0.930 . S
C1321 C1319 1.419 . S
C1321 C1322 1.362 . S
C1322 H1314 0.930 . S
C1322 C1321 1.362 . S
C1322 C1325 1.409 . S
C1323 H1315 0.930 . S
C1323 C1324 1.355 . S
C1323 C1325 1.415 . S
C1324 C1323 1.355 . S
C1324 C1326 1.419 . S
C1325 C1320 1.425 . S
C1325 C1322 1.409 . S
C1325 C1323 1.415 . S
C1326 H1316 0.930 . S
C1326 C1324 1.419 . S
C1326 C1327 1.362 . S
C1327 H1317 0.930 . S
C1327 C1320 1.409 . S
C1327 C1326 1.362 . S
H1328 C1334 0.930 . S
H1329 C1337 0.930 . S
H1330 C1338 0.930 . S
H1331 C1339 0.930 . S
H1332 C1342 0.930 . S
H1333 C1343 0.930 . S
C1334 H1328 0.930 . S
C1334 C1335 1.355 . S
C1334 C1336 1.415 . S
C1335 C1334 1.355 . S
C1335 C1337 1.419 . S
C1336 C1334 1.415 . S
C1336 C1341 1.425 . S
C1336 C1343 1.409 . S
C1337 H1329 0.930 . S
C1337 C1335 1.419 . S
C1337 C1338 1.362 . S
C1338 H1330 0.930 . S
C1338 C1337 1.362 . S
C1338 C1341 1.409 . S
C1339 H1331 0.930 . S
C1339 C1340 1.355 . S
C1339 C1341 1.415 . S
C1340 C1339 1.355 . S
C1340 C1342 1.419 . S
C1341 C1336 1.425 . S
C1341 C1338 1.409 . S
C1341 C1339 1.415 . S
C1342 H1332 0.930 . S
C1342 C1340 1.419 . S
C1342 C1343 1.362 . S
C1343 H1333 0.930 . S
C1343 C1336 1.409 . S
C1343 C1342 1.362 . S
H1344 C1350 0.930 . S
H1345 C1353 0.930 . S
H1346 C1354 0.930 . S
H1347 C1355 0.930 . S
H1348 C1358 0.930 . S
H1349 C1359 0.930 . S
C1350 H1344 0.930 . S
C1350 C1351 1.355 . S
C1350 C1352 1.415 . S
C1351 C1350 1.355 . S
C1351 C1353 1.419 . S
C1352 C1350 1.415 . S
C1352 C1357 1.425 . S
C1352 C1359 1.409 . S
C1353 H1345 0.930 . S
C1353 C1351 1.419 . S
C1353 C1354 1.362 . S
C1354 H1346 0.930 . S
C1354 C1353 1.362 . S
C1354 C1357 1.409 . S
C1355 H1347 0.930 . S
C1355 C1356 1.355 . S
C1355 C1357 1.415 . S
C1356 C1355 1.355 . S
C1356 C1358 1.419 . S
C1357 C1352 1.425 . S
C1357 C1354 1.409 . S
C1357 C1355 1.415 . S
C1358 H1348 0.930 . S
C1358 C1356 1.419 . S
C1358 C1359 1.362 . S
C1359 H1349 0.930 . S
C1359 C1352 1.409 . S
C1359 C1358 1.362 . S
H1360 C1366 0.930 . S
H1361 C1369 0.930 . S
H1362 C1370 0.930 . S
H1363 C1371 0.930 . S
H1364 C1374 0.930 . S
H1365 C1375 0.930 . S
C1366 H1360 0.930 . S
C1366 C1367 1.355 . S
C1366 C1368 1.415 . S
C1367 C1366 1.355 . S
C1367 C1369 1.419 . S
C1368 C1366 1.415 . S
C1368 C1373 1.425 . S
C1368 C1375 1.409 . S
C1369 H1361 0.930 . S
C1369 C1367 1.419 . S
C1369 C1370 1.362 . S
C1370 H1362 0.930 . S
C1370 C1369 1.362 . S
C1370 C1373 1.409 . S
C1371 H1363 0.930 . S
C1371 C1372 1.355 . S
C1371 C1373 1.415 . S
C1372 C1371 1.355 . S
C1372 C1374 1.419 . S
C1373 C1368 1.425 . S
C1373 C1370 1.409 . S
C1373 C1371 1.415 . S
C1374 H1364 0.930 . S
C1374 C1372 1.419 . S
C1374 C1375 1.362 . S
C1375 H1365 0.930 . S
C1375 C1368 1.409 . S
C1375 C1374 1.362 . S
H1376 C1382 0.930 . S
H1377 C1385 0.930 . S
H1378 C1386 0.930 . S
H1379 C1387 0.930 . S
H1380 C1390 0.930 . S
H1381 C1391 0.930 . S
C1382 H1376 0.930 . S
C1382 C1383 1.355 . S
C1382 C1384 1.415 . S
C1383 C1382 1.355 . S
C1383 C1385 1.419 . S
C1384 C1382 1.415 . S
C1384 C1389 1.425 . S
C1384 C1391 1.409 . S
C1385 H1377 0.930 . S
C1385 C1383 1.419 . S
C1385 C1386 1.362 . S
C1386 H1378 0.930 . S
C1386 C1385 1.362 . S
C1386 C1389 1.409 . S
C1387 H1379 0.930 . S
C1387 C1388 1.355 . S
C1387 C1389 1.415 . S
C1388 C1387 1.355 . S
C1388 C1390 1.419 . S
C1389 C1384 1.425 . S
C1389 C1386 1.409 . S
C1389 C1387 1.415 . S
C1390 H1380 0.930 . S
C1390 C1388 1.419 . S
C1390 C1391 1.362 . S
C1391 H1381 0.930 . S
C1391 C1384 1.409 . S
C1391 C1390 1.362 . S
H1392 C1398 0.930 . S
H1393 C1401 0.930 . S
H1394 C1402 0.930 . S
H1395 C1403 0.930 . S
H1396 C1406 0.930 . S
H1397 C1407 0.930 . S
C1398 H1392 0.930 . S
C1398 C1399 1.355 . S
C1398 C1400 1.415 . S
C1399 C1398 1.355 . S
C1399 C1401 1.419 . S
C1400 C1398 1.415 . S
C1400 C1405 1.425 . S
C1400 C1407 1.409 . S
C1401 H1393 0.930 . S
C1401 C1399 1.419 . S
C1401 C1402 1.362 . S
C1402 H1394 0.930 . S
C1402 C1401 1.362 . S
C1402 C1405 1.409 . S
C1403 H1395 0.930 . S
C1403 C1404 1.355 . S
C1403 C1405 1.415 . S
C1404 C1403 1.355 . S
C1404 C1406 1.419 . S
C1405 C1400 1.425 . S
C1405 C1402 1.409 . S
C1405 C1403 1.415 . S
C1406 H1396 0.930 . S
C1406 C1404 1.419 . S
C1406 C1407 1.362 . S
C1407 H1397 0.930 . S
C1407 C1400 1.409 . S
C1407 C1406 1.362 . S
H1408 C1414 0.930 . S
H1409 C1417 0.930 . S
H1410 C1418 0.930 . S
H1411 C1419 0.930 . S
H1412 C1422 0.930 . S
H1413 C1423 0.930 . S
C1414 H1408 0.930 . S
C1414 C1415 1.355 . S
C1414 C1416 1.415 . S
C1415 C1414 1.355 . S
C1415 C1417 1.419 . S
C1416 C1414 1.415 . S
C1416 C1421 1.425 . S
C1416 C1423 1.409 . S
C1417 H1409 0.930 . S
C1417 C1415 1.419 . S
C1417 C1418 1.362 . S
C1418 H1410 0.930 . S
C1418 C1417 1.362 . S
C1418 C1421 1.409 . S
C1419 H1411 0.930 . S
C1419 C1420 1.355 . S
C1419 C1421 1.415 . S
C1420 C1419 1.355 . S
C1420 C1422 1.419 . S
C1421 C1416 1.425 . S
C1421 C1418 1.409 . S
C1421 C1419 1.415 . S
C1422 H1412 0.930 . S
C1422 C1420 1.419 . S
C1422 C1423 1.362 . S
C1423 H1413 0.930 . S
C1423 C1416 1.409 . S
C1423 C1422 1.362 . S
H1424 C1430 0.930 . S
H1425 C1433 0.930 . S
H1426 C1434 0.930 . S
H1427 C1435 0.930 . S
H1428 C1438 0.930 . S
H1429 C1439 0.930 . S
C1430 H1424 0.930 . S
C1430 C1431 1.355 . S
C1430 C1432 1.415 . S
C1431 C1430 1.355 . S
C1431 C1433 1.419 . S
C1432 C1430 1.415 . S
C1432 C1437 1.425 . S
C1432 C1439 1.409 . S
C1433 H1425 0.930 . S
C1433 C1431 1.419 . S
C1433 C1434 1.362 . S
C1434 H1426 0.930 . S
C1434 C1433 1.362 . S
C1434 C1437 1.409 . S
C1435 H1427 0.930 . S
C1435 C1436 1.355 . S
C1435 C1437 1.415 . S
C1436 C1435 1.355 . S
C1436 C1438 1.419 . S
C1437 C1432 1.425 . S
C1437 C1434 1.409 . S
C1437 C1435 1.415 . S
C1438 H1428 0.930 . S
C1438 C1436 1.419 . S
C1438 C1439 1.362 . S
C1439 H1429 0.930 . S
C1439 C1432 1.409 . S
C1439 C1438 1.362 . S
H1440 C1446 0.930 . S
H1441 C1449 0.930 . S
H1442 C1450 0.930 . S
H1443 C1451 0.930 . S
H1444 C1454 0.930 . S
H1445 C1455 0.930 . S
C1446 H1440 0.930 . S
C1446 C1447 1.355 . S
C1446 C1448 1.415 . S
C1447 C1446 1.355 . S
C1447 C1449 1.419 . S
C1448 C1446 1.415 . S
C1448 C1453 1.425 . S
C1448 C1455 1.409 . S
C1449 H1441 0.930 . S
C1449 C1447 1.419 . S
C1449 C1450 1.362 . S
C1450 H1442 0.930 . S
C1450 C1449 1.362 . S
C1450 C1453 1.409 . S
C1451 H1443 0.930 . S
C1451 C1452 1.355 . S
C1451 C1453 1.415 . S
C1452 C1451 1.355 . S
C1452 C1454 1.419 . S
C1453 C1448 1.425 . S
C1453 C1450 1.409 . S
C1453 C1451 1.415 . S
C1454 H1444 0.930 . S
C1454 C1452 1.419 . S
C1454 C1455 1.362 . S
C1455 H1445 0.930 . S
C1455 C1448 1.409 . S
C1455 C1454 1.362 . S
H1456 C1462 0.930 . S
H1457 C1465 0.930 . S
H1458 C1466 0.930 . S
H1459 C1467 0.930 . S
H1460 C1470 0.930 . S
H1461 C1471 0.930 . S
C1462 H1456 0.930 . S
C1462 C1463 1.355 . S
C1462 C1464 1.415 . S
C1463 C1462 1.355 . S
C1463 C1465 1.419 . S
C1464 C1462 1.415 . S
C1464 C1469 1.425 . S
C1464 C1471 1.409 . S
C1465 H1457 0.930 . S
C1465 C1463 1.419 . S
C1465 C1466 1.362 . S
C1466 H1458 0.930 . S
C1466 C1465 1.362 . S
C1466 C1469 1.409 . S
C1467 H1459 0.930 . S
C1467 C1468 1.355 . S
C1467 C1469 1.415 . S
C1468 C1467 1.355 . S
C1468 C1470 1.419 . S
C1469 C1464 1.425 . S
C1469 C1466 1.409 . S
C1469 C1467 1.415 . S
C1470 H1460 0.930 . S
C1470 C1468 1.419 . S
C1470 C1471 1.362 . S
C1471 H1461 0.930 . S
C1471 C1464 1.409 . S
C1471 C1470 1.362 . S
H1472 C1478 0.930 . S
H1473 C1481 0.930 . S
H1474 C1482 0.930 . S
H1475 C1483 0.930 . S
H1476 C1486 0.930 . S
H1477 C1487 0.930 . S
C1478 H1472 0.930 . S
C1478 C1479 1.355 . S
C1478 C1480 1.415 . S
C1479 C1478 1.355 . S
C1479 C1481 1.419 . S
C1480 C1478 1.415 . S
C1480 C1485 1.425 . S
C1480 C1487 1.409 . S
C1481 H1473 0.930 . S
C1481 C1479 1.419 . S
C1481 C1482 1.362 . S
C1482 H1474 0.930 . S
C1482 C1481 1.362 . S
C1482 C1485 1.409 . S
C1483 H1475 0.930 . S
C1483 C1484 1.355 . S
C1483 C1485 1.415 . S
C1484 C1483 1.355 . S
C1484 C1486 1.419 . S
C1485 C1480 1.425 . S
C1485 C1482 1.409 . S
C1485 C1483 1.415 . S
C1486 H1476 0.930 . S
C1486 C1484 1.419 . S
C1486 C1487 1.362 . S
C1487 H1477 0.930 . S
C1487 C1480 1.409 . S
C1487 C1486 1.362 . S
H1488 C1494 0.930 . S
H1489 C1497 0.930 . S
H1490 C1498 0.930 . S
H1491 C1499 0.930 . S
H1492 C1502 0.930 . S
H1493 C1503 0.930 . S
C1494 H1488 0.930 . S
C1494 C1495 1.355 . S
C1494 C1496 1.415 . S
C1495 C1494 1.355 . S
C1495 C1497 1.419 . S
C1496 C1494 1.415 . S
C1496 C1501 1.425 . S
C1496 C1503 1.409 . S
C1497 H1489 0.930 . S
C1497 C1495 1.419 . S
C1497 C1498 1.362 . S
C1498 H1490 0.930 . S
C1498 C1497 1.362 . S
C1498 C1501 1.409 . S
C1499 H1491 0.930 . S
C1499 C1500 1.355 . S
C1499 C1501 1.415 . S
C1500 C1499 1.355 . S
C1500 C1502 1.419 . S
C1501 C1496 1.425 . S
C1501 C1498 1.409 . S
C1501 C1499 1.415 . S
C1502 H1492 0.930 . S
C1502 C1500 1.419 . S
C1502 C1503 1.362 . S
C1503 H1493 0.930 . S
C1503 C1496 1.409 . S
C1503 C1502 1.362 . S
H1504 C1510 0.930 . S
H1505 C1513 0.930 . S
H1506 C1514 0.930 . S
H1507 C1515 0.930 . S
H1508 C1518 0.930 . S
H1509 C1519 0.930 . S
C1510 H1504 0.930 . S
C1510 C1511 1.355 . S
C1510 C1512 1.415 . S
C1511 C1510 1.355 . S
C1511 C1513 1.419 . S
C1512 C1510 1.415 . S
C1512 C1517 1.425 . S
C1512 C1519 1.409 . S
C1513 H1505 0.930 . S
C1513 C1511 1.419 . S
C1513 C1514 1.362 . S
C1514 H1506 0.930 . S
C1514 C1513 1.362 . S
C1514 C1517 1.409 . S
C1515 H1507 0.930 . S
C1515 C1516 1.355 . S
C1515 C1517 1.415 . S
C1516 C1515 1.355 . S
C1516 C1518 1.419 . S
C1517 C1512 1.425 . S
C1517 C1514 1.409 . S
C1517 C1515 1.415 . S
C1518 H1508 0.930 . S
C1518 C1516 1.419 . S
C1518 C1519 1.362 . S
C1519 H1509 0.930 . S
C1519 C1512 1.409 . S
C1519 C1518 1.362 . S
H1520 C1526 0.930 . S
H1521 C1529 0.930 . S
H1522 C1530 0.930 . S
H1523 C1531 0.930 . S
H1524 C1534 0.930 . S
H1525 C1535 0.930 . S
C1526 H1520 0.930 . S
C1526 C1527 1.355 . S
C1526 C1528 1.415 . S
C1527 C1526 1.355 . S
C1527 C1529 1.419 . S
C1528 C1526 1.415 . S
C1528 C1533 1.425 . S
C1528 C1535 1.409 . S
C1529 H1521 0.930 . S
C1529 C1527 1.419 . S
C1529 C1530 1.362 . S
C1530 H1522 0.930 . S
C1530 C1529 1.362 . S
C1530 C1533 1.409 . S
C1531 H1523 0.930 . S
C1531 C1532 1.355 . S
C1531 C1533 1.415 . S
C1532 C1531 1.355 . S
C1532 C1534 1.419 . S
C1533 C1528 1.425 . S
C1533 C1530 1.409 . S
C1533 C1531 1.415 . S
C1534 H1524 0.930 . S
C1534 C1532 1.419 . S
C1534 C1535 1.362 . S
C1535 H1525 0.930 . S
C1535 C1528 1.409 . S
C1535 C1534 1.362 . S
H1536 C1542 0.930 . S
H1537 C1545 0.930 . S
H1538 C1546 0.930 . S
H1539 C1547 0.930 . S
H1540 C1550 0.930 . S
H1541 C1551 0.930 . S
C1542 H1536 0.930 . S
C1542 C1543 1.355 . S
C1542 C1544 1.415 . S
C1543 C1542 1.355 . S
C1543 C1545 1.419 . S
C1544 C1542 1.415 . S
C1544 C1549 1.425 . S
C1544 C1551 1.409 . S
C1545 H1537 0.930 . S
C1545 C1543 1.419 . S
C1545 C1546 1.362 . S
C1546 H1538 0.930 . S
C1546 C1545 1.362 . S
C1546 C1549 1.409 . S
C1547 H1539 0.930 . S
C1547 C1548 1.355 . S
C1547 C1549 1.415 . S
C1548 C1547 1.355 . S
C1548 C1550 1.419 . S
C1549 C1544 1.425 . S
C1549 C1546 1.409 . S
C1549 C1547 1.415 . S
C1550 H1540 0.930 . S
C1550 C1548 1.419 . S
C1550 C1551 1.362 . S
C1551 H1541 0.930 . S
C1551 C1544 1.409 . S
C1551 C1550 1.362 . S
H1552 C1558 0.930 . S
H1553 C1561 0.930 . S
H1554 C1562 0.930 . S
H1555 C1563 0.930 . S
H1556 C1566 0.930 . S
H1557 C1567 0.930 . S
C1558 H1552 0.930 . S
C1558 C1559 1.355 . S
C1558 C1560 1.415 . S
C1559 C1558 1.355 . S
C1559 C1561 1.419 . S
C1560 C1558 1.415 . S
C1560 C1565 1.425 . S
C1560 C1567 1.409 . S
C1561 H1553 0.930 . S
C1561 C1559 1.419 . S
C1561 C1562 1.362 . S
C1562 H1554 0.930 . S
C1562 C1561 1.362 . S
C1562 C1565 1.409 . S
C1563 H1555 0.930 . S
C1563 C1564 1.355 . S
C1563 C1565 1.415 . S
C1564 C1563 1.355 . S
C1564 C1566 1.419 . S
C1565 C1560 1.425 . S
C1565 C1562 1.409 . S
C1565 C1563 1.415 . S
C1566 H1556 0.930 . S
C1566 C1564 1.419 . S
C1566 C1567 1.362 . S
C1567 H1557 0.930 . S
C1567 C1560 1.409 . S
C1567 C1566 1.362 . S
H1568 C1574 0.930 . S
H1569 C1577 0.930 . S
H1570 C1578 0.930 . S
H1571 C1579 0.930 . S
H1572 C1582 0.930 . S
H1573 C1583 0.930 . S
C1574 H1568 0.930 . S
C1574 C1575 1.355 . S
C1574 C1576 1.415 . S
C1575 C1574 1.355 . S
C1575 C1577 1.419 . S
C1576 C1574 1.415 . S
C1576 C1581 1.425 . S
C1576 C1583 1.409 . S
C1577 H1569 0.930 . S
C1577 C1575 1.419 . S
C1577 C1578 1.362 . S
C1578 H1570 0.930 . S
C1578 C1577 1.362 . S
C1578 C1581 1.409 . S
C1579 H1571 0.930 . S
C1579 C1580 1.355 . S
C1579 C1581 1.415 . S
C1580 C1579 1.355 . S
C1580 C1582 1.419 . S
C1581 C1576 1.425 . S
C1581 C1578 1.409 . S
C1581 C1579 1.415 . S
C1582 H1572 0.930 . S
C1582 C1580 1.419 . S
C1582 C1583 1.362 . S
C1583 H1573 0.930 . S
C1583 C1576 1.409 . S
C1583 C1582 1.362 . S
H1584 C1590 0.930 . S
H1585 C1593 0.930 . S
H1586 C1594 0.930 . S
H1587 C1595 0.930 . S
H1588 C1598 0.930 . S
H1589 C1599 0.930 . S
C1590 H1584 0.930 . S
C1590 C1591 1.355 . S
C1590 C1592 1.415 . S
C1591 C1590 1.355 . S
C1591 C1593 1.419 . S
C1592 C1590 1.415 . S
C1592 C1597 1.425 . S
C1592 C1599 1.409 . S
C1593 H1585 0.930 . S
C1593 C1591 1.419 . S
C1593 C1594 1.362 . S
C1594 H1586 0.930 . S
C1594 C1593 1.362 . S
C1594 C1597 1.409 . S
C1595 H1587 0.930 . S
C1595 C1596 1.355 . S
C1595 C1597 1.415 . S
C1596 C1595 1.355 . S
C1596 C1598 1.419 . S
C1597 C1592 1.425 . S
C1597 C1594 1.409 . S
C1597 C1595 1.415 . S
C1598 H1588 0.930 . S
C1598 C1596 1.419 . S
C1598 C1599 1.362 . S
C1599 H1589 0.930 . S
C1599 C1592 1.409 . S
C1599 C1598 1.362 . S
H1600 C1606 0.930 . S
H1601 C1609 0.930 . S
H1602 C1610 0.930 . S
H1603 C1611 0.930 . S
H1604 C1614 0.930 . S
H1605 C1615 0.930 . S
C1606 H1600 0.930 . S
C1606 C1607 1.355 . S
C1606 C1608 1.415 . S
C1607 C1606 1.355 . S
C1607 C1609 1.419 . S
C1608 C1606 1.415 . S
C1608 C1613 1.425 . S
C1608 C1615 1.409 . S
C1609 H1601 0.930 . S
C1609 C1607 1.419 . S
C1609 C1610 1.362 . S
C1610 H1602 0.930 . S
C1610 C1609 1.362 . S
C1610 C1613 1.409 . S
C1611 H1603 0.930 . S
C1611 C1612 1.355 . S
C1611 C1613 1.415 . S
C1612 C1611 1.355 . S
C1612 C1614 1.419 . S
C1613 C1608 1.425 . S
C1613 C1610 1.409 . S
C1613 C1611 1.415 . S
C1614 H1604 0.930 . S
C1614 C1612 1.419 . S
C1614 C1615 1.362 . S
C1615 H1605 0.930 . S
C1615 C1608 1.409 . S
C1615 C1614 1.362 . S
H1616 C1622 0.930 . S
H1617 C1625 0.930 . S
H1618 C1626 0.930 . S
H1619 C1627 0.930 . S
H1620 C1630 0.930 . S
H1621 C1631 0.930 . S
C1622 H1616 0.930 . S
C1622 C1623 1.355 . S
C1622 C1624 1.415 . S
C1623 C1622 1.355 . S
C1623 C1625 1.419 . S
C1624 C1622 1.415 . S
C1624 C1629 1.425 . S
C1624 C1631 1.409 . S
C1625 H1617 0.930 . S
C1625 C1623 1.419 . S
C1625 C1626 1.362 . S
C1626 H1618 0.930 . S
C1626 C1625 1.362 . S
C1626 C1629 1.409 . S
C1627 H1619 0.930 . S
C1627 C1628 1.355 . S
C1627 C1629 1.415 . S
C1628 C1627 1.355 . S
C1628 C1630 1.419 . S
C1629 C1624 1.425 . S
C1629 C1626 1.409 . S
C1629 C1627 1.415 . S
C1630 H1620 0.930 . S
C1630 C1628 1.419 . S
C1630 C1631 1.362 . S
C1631 H1621 0.930 . S
C1631 C1624 1.409 . S
C1631 C1630 1.362 . S
H1632 C1638 0.930 . S
H1633 C1641 0.930 . S
H1634 C1642 0.930 . S
H1635 C1643 0.930 . S
H1636 C1646 0.930 . S
H1637 C1647 0.930 . S
C1638 H1632 0.930 . S
C1638 C1639 1.355 . S
C1638 C1640 1.415 . S
C1639 C1638 1.355 . S
C1639 C1641 1.419 . S
C1640 C1638 1.415 . S
C1640 C1645 1.425 . S
C1640 C1647 1.409 . S
C1641 H1633 0.930 . S
C1641 C1639 1.419 . S
C1641 C1642 1.362 . S
C1642 H1634 0.930 . S
C1642 C1641 1.362 . S
C1642 C1645 1.409 . S
C1643 H1635 0.930 . S
C1643 C1644 1.355 . S
C1643 C1645 1.415 . S
C1644 C1643 1.355 . S
C1644 C1646 1.419 . S
C1645 C1640 1.425 . S
C1645 C1642 1.409 . S
C1645 C1643 1.415 . S
C1646 H1636 0.930 . S
C1646 C1644 1.419 . S
C1646 C1647 1.362 . S
C1647 H1637 0.930 . S
C1647 C1640 1.409 . S
C1647 C1646 1.362 . S
H1648 C1654 0.930 . S
H1649 C1657 0.930 . S
H1650 C1658 0.930 . S
H1651 C1659 0.930 . S
H1652 C1662 0.930 . S
H1653 C1663 0.930 . S
C1654 H1648 0.930 . S
C1654 C1655 1.355 . S
C1654 C1656 1.415 . S
C1655 C1654 1.355 . S
C1655 C1657 1.419 . S
C1656 C1654 1.415 . S
C1656 C1661 1.425 . S
C1656 C1663 1.409 . S
C1657 H1649 0.930 . S
C1657 C1655 1.419 . S
C1657 C1658 1.362 . S
C1658 H1650 0.930 . S
C1658 C1657 1.362 . S
C1658 C1661 1.409 . S
C1659 H1651 0.930 . S
C1659 C1660 1.355 . S
C1659 C1661 1.415 . S
C1660 C1659 1.355 . S
C1660 C1662 1.419 . S
C1661 C1656 1.425 . S
C1661 C1658 1.409 . S
C1661 C1659 1.415 . S
C1662 H1652 0.930 . S
C1662 C1660 1.419 . S
C1662 C1663 1.362 . S
C1663 H1653 0.930 . S
C1663 C1656 1.409 . S
C1663 C1662 1.362 . S
H1664 C1670 0.930 . S
H1665 C1673 0.930 . S
H1666 C1674 0.930 . S
H1667 C1675 0.930 . S
H1668 C1678 0.930 . S
H1669 C1679 0.930 . S
C1670 H1664 0.930 . S
C1670 C1671 1.355 . S
C1670 C1672 1.415 . S
C1671 C1670 1.355 . S
C1671 C1673 1.419 . S
C1672 C1670 1.415 . S
C1672 C1677 1.425 . S
C1672 C1679 1.409 . S
C1673 H1665 0.930 . S
C1673 C1671 1.419 . S
C1673 C1674 1.362 . S
C1674 H1666 0.930 . S
C1674 C1673 1.362 . S
C1674 C1677 1.409 . S
C1675 H1667 0.930 . S
C1675 C1676 1.355 . S
C1675 C1677 1.415 . S
C1676 C1675 1.355 . S
C1676 C1678 1.419 . S
C1677 C1672 1.425 . S
C1677 C1674 1.409 . S
C1677 C1675 1.415 . S
C1678 H1668 0.930 . S
C1678 C1676 1.419 . S
C1678 C1679 1.362 . S
C1679 H1669 0.930 . S
C1679 C1672 1.409 . S
C1679 C1678 1.362 . S
H1680 C1686 0.930 . S
H1681 C1689 0.930 . S
H1682 C1690 0.930 . S
H1683 C1691 0.930 . S
H1684 C1694 0.930 . S
H1685 C1695 0.930 . S
C1686 H1680 0.930 . S
C1686 C1687 1.355 . S
C1686 C1688 1.415 . S
C1687 C1686 1.355 . S
C1687 C1689 1.419 . S
C1688 C1686 1.415 . S
C1688 C1693 1.425 . S
C1688 C1695 1.409 . S
C1689 H1681 0.930 . S
C1689 C1687 1.419 . S
C1689 C1690 1.362 . S
C1690 H1682 0.930 . S
C1690 C1689 1.362 . S
C1690 C1693 1.409 . S
C1691 H1683 0.930 . S
C1691 C1692 1.355 . S
C1691 C1693 1.415 . S
C1692 C1691 1.355 . S
C1692 C1694 1.419 . S
C1693 C1688 1.425 . S
C1693 C1690 1.409 . S
C1693 C1691 1.415 . S
C1694 H1684 0.930 . S
C1694 C1692 1.419 . S
C1694 C1695 1.362 . S
C1695 H1685 0.930 . S
C1695 C1688 1.409 . S
C1695 C1694 1.362 . S
H1696 C1702 0.930 . S
H1697 C1705 0.930 . S
H1698 C1706 0.930 . S
H1699 C1707 0.930 . S
H1700 C1710 0.930 . S
H1701 C1711 0.930 . S
C1702 H1696 0.930 . S
C1702 C1703 1.355 . S
C1702 C1704 1.415 . S
C1703 C1702 1.355 . S
C1703 C1705 1.419 . S
C1704 C1702 1.415 . S
C1704 C1709 1.425 . S
C1704 C1711 1.409 . S
C1705 H1697 0.930 . S
C1705 C1703 1.419 . S
C1705 C1706 1.362 . S
C1706 H1698 0.930 . S
C1706 C1705 1.362 . S
C1706 C1709 1.409 . S
C1707 H1699 0.930 . S
C1707 C1708 1.355 . S
C1707 C1709 1.415 . S
C1708 C1707 1.355 . S
C1708 C1710 1.419 . S
C1709 C1704 1.425 . S
C1709 C1706 1.409 . S
C1709 C1707 1.415 . S
C1710 H1700 0.930 . S
C1710 C1708 1.419 . S
C1710 C1711 1.362 . S
C1711 H1701 0.930 . S
C1711 C1704 1.409 . S
C1711 C1710 1.362 . S
H1712 C1718 0.930 . S
H1713 C1721 0.930 . S
H1714 C1722 0.930 . S
H1715 C1723 0.930 . S
H1716 C1726 0.930 . S
H1717 C1727 0.930 . S
C1718 H1712 0.930 . S
C1718 C1719 1.355 . S
C1718 C1720 1.415 . S
C1719 C1718 1.355 . S
C1719 C1721 1.419 . S
C1720 C1718 1.415 . S
C1720 C1725 1.425 . S
C1720 C1727 1.409 . S
C1721 H1713 0.930 . S
C1721 C1719 1.419 . S
C1721 C1722 1.362 . S
C1722 H1714 0.930 . S
C1722 C1721 1.362 . S
C1722 C1725 1.409 . S
C1723 H1715 0.930 . S
C1723 C1724 1.355 . S
C1723 C1725 1.415 . S
C1724 C1723 1.355 . S
C1724 C1726 1.419 . S
C1725 C1720 1.425 . S
C1725 C1722 1.409 . S
C1725 C1723 1.415 . S
C1726 H1716 0.930 . S
C1726 C1724 1.419 . S
C1726 C1727 1.362 . S
C1727 H1717 0.930 . S
C1727 C1720 1.409 . S
C1727 C1726 1.362 . S
H1728 C1734 0.930 . S
H1729 C1737 0.930 . S
H1730 C1738 0.930 . S
H1731 C1739 0.930 . S
H1732 C1742 0.930 . S
H1733 C1743 0.930 . S
C1734 H1728 0.930 . S
C1734 C1735 1.355 . S
C1734 C1736 1.415 . S
C1735 C1734 1.355 . S
C1735 C1737 1.419 . S
C1736 C1734 1.415 . S
C1736 C1741 1.425 . S
C1736 C1743 1.409 . S
C1737 H1729 0.930 . S
C1737 C1735 1.419 . S
C1737 C1738 1.362 . S
C1738 H1730 0.930 . S
C1738 C1737 1.362 . S
C1738 C1741 1.409 . S
C1739 H1731 0.930 . S
C1739 C1740 1.355 . S
C1739 C1741 1.415 . S
C1740 C1739 1.355 . S
C1740 C1742 1.419 . S
C1741 C1736 1.425 . S
C1741 C1738 1.409 . S
C1741 C1739 1.415 . S
C1742 H1732 0.930 . S
C1742 C1740 1.419 . S
C1742 C1743 1.362 . S
C1743 H1733 0.930 . S
C1743 C1736 1.409 . S
C1743 C1742 1.362 . S
H1744 C1750 0.930 . S
H1745 C1753 0.930 . S
H1746 C1754 0.930 . S
H1747 C1755 0.930 . S
H1748 C1758 0.930 . S
H1749 C1759 0.930 . S
C1750 H1744 0.930 . S
C1750 C1751 1.355 . S
C1750 C1752 1.415 . S
C1751 C1750 1.355 . S
C1751 C1753 1.419 . S
C1752 C1750 1.415 . S
C1752 C1757 1.425 . S
C1752 C1759 1.409 . S
C1753 H1745 0.930 . S
C1753 C1751 1.419 . S
C1753 C1754 1.362 . S
C1754 H1746 0.930 . S
C1754 C1753 1.362 . S
C1754 C1757 1.409 . S
C1755 H1747 0.930 . S
C1755 C1756 1.355 . S
C1755 C1757 1.415 . S
C1756 C1755 1.355 . S
C1756 C1758 1.419 . S
C1757 C1752 1.425 . S
C1757 C1754 1.409 . S
C1757 C1755 1.415 . S
C1758 H1748 0.930 . S
C1758 C1756 1.419 . S
C1758 C1759 1.362 . S
C1759 H1749 0.930 . S
C1759 C1752 1.409 . S
C1759 C1758 1.362 . S
H1760 C1766 0.930 . S
H1761 C1769 0.930 . S
H1762 C1770 0.930 . S
H1763 C1771 0.930 . S
H1764 C1774 0.930 . S
H1765 C1775 0.930 . S
C1766 H1760 0.930 . S
C1766 C1767 1.355 . S
C1766 C1768 1.415 . S
C1767 C1766 1.355 . S
C1767 C1769 1.419 . S
C1768 C1766 1.415 . S
C1768 C1773 1.425 . S
C1768 C1775 1.409 . S
C1769 H1761 0.930 . S
C1769 C1767 1.419 . S
C1769 C1770 1.362 . S
C1770 H1762 0.930 . S
C1770 C1769 1.362 . S
C1770 C1773 1.409 . S
C1771 H1763 0.930 . S
C1771 C1772 1.355 . S
C1771 C1773 1.415 . S
C1772 C1771 1.355 . S
C1772 C1774 1.419 . S
C1773 C1768 1.425 . S
C1773 C1770 1.409 . S
C1773 C1771 1.415 . S
C1774 H1764 0.930 . S
C1774 C1772 1.419 . S
C1774 C1775 1.362 . S
C1775 H1765 0.930 . S
C1775 C1768 1.409 . S
C1775 C1774 1.362 . S
H1776 C1782 0.930 . S
H1777 C1785 0.930 . S
H1778 C1786 0.930 . S
H1779 C1787 0.930 . S
H1780 C1790 0.930 . S
H1781 C1791 0.930 . S
C1782 H1776 0.930 . S
C1782 C1783 1.355 . S
C1782 C1784 1.415 . S
C1783 C1782 1.355 . S
C1783 C1785 1.419 . S
C1784 C1782 1.415 . S
C1784 C1789 1.425 . S
C1784 C1791 1.409 . S
C1785 H1777 0.930 . S
C1785 C1783 1.419 . S
C1785 C1786 1.362 . S
C1786 H1778 0.930 . S
C1786 C1785 1.362 . S
C1786 C1789 1.409 . S
C1787 H1779 0.930 . S
C1787 C1788 1.355 . S
C1787 C1789 1.415 . S
C1788 C1787 1.355 . S
C1788 C1790 1.419 . S
C1789 C1784 1.425 . S
C1789 C1786 1.409 . S
C1789 C1787 1.415 . S
C1790 H1780 0.930 . S
C1790 C1788 1.419 . S
C1790 C1791 1.362 . S
C1791 H1781 0.930 . S
C1791 C1784 1.409 . S
C1791 C1790 1.362 . S
H1792 C1798 0.930 . S
H1793 C1801 0.930 . S
H1794 C1802 0.930 . S
H1795 C1803 0.930 . S
H1796 C1806 0.930 . S
H1797 C1807 0.930 . S
C1798 H1792 0.930 . S
C1798 C1799 1.355 . S
C1798 C1800 1.415 . S
C1799 C1798 1.355 . S
C1799 C1801 1.419 . S
C1800 C1798 1.415 . S
C1800 C1805 1.425 . S
C1800 C1807 1.409 . S
C1801 H1793 0.930 . S
C1801 C1799 1.419 . S
C1801 C1802 1.362 . S
C1802 H1794 0.930 . S
C1802 C1801 1.362 . S
C1802 C1805 1.409 . S
C1803 H1795 0.930 . S
C1803 C1804 1.355 . S
C1803 C1805 1.415 . S
C1804 C1803 1.355 . S
C1804 C1806 1.419 . S
C1805 C1800 1.425 . S
C1805 C1802 1.409 . S
C1805 C1803 1.415 . S
C1806 H1796 0.930 . S
C1806 C1804 1.419 . S
C1806 C1807 1.362 . S
C1807 H1797 0.930 . S
C1807 C1800 1.409 . S
C1807 C1806 1.362 . S
H1808 C1814 0.930 . S
H1809 C1817 0.930 . S
H1810 C1818 0.930 . S
H1811 C1819 0.930 . S
H1812 C1822 0.930 . S
H1813 C1823 0.930 . S
C1814 H1808 0.930 . S
C1814 C1815 1.355 . S
C1814 C1816 1.415 . S
C1815 C1814 1.355 . S
C1815 C1817 1.419 . S
C1816 C1814 1.415 . S
C1816 C1821 1.425 . S
C1816 C1823 1.409 . S
C1817 H1809 0.930 . S
C1817 C1815 1.419 . S
C1817 C1818 1.362 . S
C1818 H1810 0.930 . S
C1818 C1817 1.362 . S
C1818 C1821 1.409 . S
C1819 H1811 0.930 . S
C1819 C1820 1.355 . S
C1819 C1821 1.415 . S
C1820 C1819 1.355 . S
C1820 C1822 1.419 . S
C1821 C1816 1.425 . S
C1821 C1818 1.409 . S
C1821 C1819 1.415 . S
C1822 H1812 0.930 . S
C1822 C1820 1.419 . S
C1822 C1823 1.362 . S
C1823 H1813 0.930 . S
C1823 C1816 1.409 . S
C1823 C1822 1.362 . S
H1824 C1830 0.930 . S
H1825 C1833 0.930 . S
H1826 C1834 0.930 . S
H1827 C1835 0.930 . S
H1828 C1838 0.930 . S
H1829 C1839 0.930 . S
C1830 H1824 0.930 . S
C1830 C1831 1.355 . S
C1830 C1832 1.415 . S
C1831 C1830 1.355 . S
C1831 C1833 1.419 . S
C1832 C1830 1.415 . S
C1832 C1837 1.425 1_554 S
C1832 C1839 1.409 1_554 S
C1833 H1825 0.930 . S
C1833 C1831 1.419 . S
C1833 C1834 1.362 . S
C1834 H1826 0.930 . S
C1834 C1833 1.362 . S
C1834 C1837 1.409 1_554 S
C1835 H1827 0.930 . S
C1835 C1836 1.355 . S
C1835 C1837 1.415 . S
C1836 C1835 1.355 . S
C1836 C1838 1.419 . S
C1837 C1832 1.425 1_556 S
C1837 C1834 1.409 1_556 S
C1837 C1835 1.415 . S
C1838 H1828 0.930 . S
C1838 C1836 1.419 . S
C1838 C1839 1.362 . S
C1839 H1829 0.930 . S
C1839 C1832 1.409 1_556 S
C1839 C1838 1.362 . S
H1840 C1846 0.930 . S
H1841 C1849 0.930 . S
H1842 C1850 0.930 . S
H1843 C1851 0.930 . S
H1844 C1854 0.930 . S
H1845 C1855 0.930 . S
C1846 H1840 0.930 . S
C1846 C1847 1.355 . S
C1846 C1848 1.415 . S
C1847 C1846 1.355 . S
C1847 C1849 1.419 . S
C1848 C1846 1.415 . S
C1848 C1853 1.425 1_556 S
C1848 C1855 1.409 1_556 S
C1849 H1841 0.930 . S
C1849 C1847 1.419 . S
C1849 C1850 1.362 . S
C1850 H1842 0.930 . S
C1850 C1849 1.362 . S
C1850 C1853 1.409 1_556 S
C1851 H1843 0.930 . S
C1851 C1852 1.355 . S
C1851 C1853 1.415 . S
C1852 C1851 1.355 . S
C1852 C1854 1.419 . S
C1853 C1848 1.425 1_554 S
C1853 C1850 1.409 1_554 S
C1853 C1851 1.415 . S
C1854 H1844 0.930 . S
C1854 C1852 1.419 . S
C1854 C1855 1.362 . S
C1855 H1845 0.930 . S
C1855 C1848 1.409 1_554 S
C1855 C1854 1.362 . S
H1856 C1862 0.930 . S
H1857 C1865 0.930 . S
H1858 C1866 0.930 . S
H1859 C1867 0.930 . S
H1860 C1870 0.930 . S
H1861 C1871 0.930 . S
C1862 H1856 0.930 . S
C1862 C1863 1.355 . S
C1862 C1864 1.415 . S
C1863 C1862 1.355 . S
C1863 C1865 1.419 . S
C1864 C1862 1.415 . S
C1864 C1869 1.425 1_554 S
C1864 C1871 1.409 1_554 S
C1865 H1857 0.930 . S
C1865 C1863 1.419 . S
C1865 C1866 1.362 . S
C1866 H1858 0.930 . S
C1866 C1865 1.362 . S
C1866 C1869 1.409 1_554 S
C1867 H1859 0.930 . S
C1867 C1868 1.355 . S
C1867 C1869 1.415 . S
C1868 C1867 1.355 . S
C1868 C1870 1.419 . S
C1869 C1864 1.425 1_556 S
C1869 C1866 1.409 1_556 S
C1869 C1867 1.415 . S
C1870 H1860 0.930 . S
C1870 C1868 1.419 . S
C1870 C1871 1.362 . S
C1871 H1861 0.930 . S
C1871 C1864 1.409 1_556 S
C1871 C1870 1.362 . S
H1872 C1878 0.930 . S
H1873 C1881 0.930 . S
H1874 C1882 0.930 . S
H1875 C1883 0.930 . S
H1876 C1886 0.930 . S
H1877 C1887 0.930 . S
C1878 H1872 0.930 . S
C1878 C1879 1.355 . S
C1878 C1880 1.415 . S
C1879 C1878 1.355 . S
C1879 C1881 1.419 . S
C1880 C1878 1.415 . S
C1880 C1885 1.425 1_554 S
C1880 C1887 1.409 1_554 S
C1881 H1873 0.930 . S
C1881 C1879 1.419 . S
C1881 C1882 1.362 . S
C1882 H1874 0.930 . S
C1882 C1881 1.362 . S
C1882 C1885 1.409 1_554 S
C1883 H1875 0.930 . S
C1883 C1884 1.355 . S
C1883 C1885 1.415 . S
C1884 C1883 1.355 . S
C1884 C1886 1.419 . S
C1885 C1880 1.425 1_556 S
C1885 C1882 1.409 1_556 S
C1885 C1883 1.415 . S
C1886 H1876 0.930 . S
C1886 C1884 1.419 . S
C1886 C1887 1.362 . S
C1887 H1877 0.930 . S
C1887 C1880 1.409 1_556 S
C1887 C1886 1.362 . S
H1888 C1894 0.930 . S
H1889 C1897 0.930 . S
H1890 C1898 0.930 . S
H1891 C1899 0.930 . S
H1892 C1902 0.930 . S
H1893 C1903 0.930 . S
C1894 H1888 0.930 . S
C1894 C1895 1.355 . S
C1894 C1896 1.415 . S
C1895 C1894 1.355 . S
C1895 C1897 1.419 . S
C1896 C1894 1.415 . S
C1896 C1901 1.425 1_556 S
C1896 C1903 1.409 1_556 S
C1897 H1889 0.930 . S
C1897 C1895 1.419 . S
C1897 C1898 1.362 . S
C1898 H1890 0.930 . S
C1898 C1897 1.362 . S
C1898 C1901 1.409 1_556 S
C1899 H1891 0.930 . S
C1899 C1900 1.355 . S
C1899 C1901 1.415 . S
C1900 C1899 1.355 . S
C1900 C1902 1.419 . S
C1901 C1896 1.425 1_554 S
C1901 C1898 1.409 1_554 S
C1901 C1899 1.415 . S
C1902 H1892 0.930 . S
C1902 C1900 1.419 . S
C1902 C1903 1.362 . S
C1903 H1893 0.930 . S
C1903 C1896 1.409 1_554 S
C1903 C1902 1.362 . S
H1904 C1910 0.930 . S
H1905 C1913 0.930 . S
H1906 C1914 0.930 . S
H1907 C1915 0.930 . S
H1908 C1918 0.930 . S
H1909 C1919 0.930 . S
C1910 H1904 0.930 . S
C1910 C1911 1.355 . S
C1910 C1912 1.415 . S
C1911 C1910 1.355 . S
C1911 C1913 1.419 . S
C1912 C1910 1.415 . S
C1912 C1917 1.425 1_554 S
C1912 C1919 1.409 1_554 S
C1913 H1905 0.930 . S
C1913 C1911 1.419 . S
C1913 C1914 1.362 . S
C1914 H1906 0.930 . S
C1914 C1913 1.362 . S
C1914 C1917 1.409 1_554 S
C1915 H1907 0.930 . S
C1915 C1916 1.355 . S
C1915 C1917 1.415 . S
C1916 C1915 1.355 . S
C1916 C1918 1.419 . S
C1917 C1912 1.425 1_556 S
C1917 C1914 1.409 1_556 S
C1917 C1915 1.415 . S
C1918 H1908 0.930 . S
C1918 C1916 1.419 . S
C1918 C1919 1.362 . S
C1919 H1909 0.930 . S
C1919 C1912 1.409 1_556 S
C1919 C1918 1.362 . S
H1920 C1926 0.930 . S
H1921 C1929 0.930 . S
H1922 C1930 0.930 . S
H1923 C1931 0.930 . S
H1924 C1934 0.930 . S
H1925 C1935 0.930 . S
C1926 H1920 0.930 . S
C1926 C1927 1.355 . S
C1926 C1928 1.415 . S
C1927 C1926 1.355 . S
C1927 C1929 1.419 . S
C1928 C1926 1.415 . S
C1928 C1933 1.425 1_556 S
C1928 C1935 1.409 1_556 S
C1929 H1921 0.930 . S
C1929 C1927 1.419 . S
C1929 C1930 1.362 . S
C1930 H1922 0.930 . S
C1930 C1929 1.362 . S
C1930 C1933 1.409 1_556 S
C1931 H1923 0.930 . S
C1931 C1932 1.355 . S
C1931 C1933 1.415 . S
C1932 C1931 1.355 . S
C1932 C1934 1.419 . S
C1933 C1928 1.425 1_554 S
C1933 C1930 1.409 1_554 S
C1933 C1931 1.415 . S
C1934 H1924 0.930 . S
C1934 C1932 1.419 . S
C1934 C1935 1.362 . S
C1935 H1925 0.930 . S
C1935 C1928 1.409 1_554 S
C1935 C1934 1.362 . S
H1936 C1942 0.930 . S
H1937 C1945 0.930 . S
H1938 C1946 0.930 . S
H1939 C1947 0.930 . S
H1940 C1950 0.930 . S
H1941 C1951 0.930 . S
C1942 H1936 0.930 . S
C1942 C1943 1.355 . S
C1942 C1944 1.415 . S
C1943 C1942 1.355 . S
C1943 C1945 1.419 . S
C1944 C1942 1.415 . S
C1944 C1949 1.425 1_554 S
C1944 C1951 1.409 1_554 S
C1945 H1937 0.930 . S
C1945 C1943 1.419 . S
C1945 C1946 1.362 . S
C1946 H1938 0.930 . S
C1946 C1945 1.362 . S
C1946 C1949 1.409 1_554 S
C1947 H1939 0.930 . S
C1947 C1948 1.355 . S
C1947 C1949 1.415 . S
C1948 C1947 1.355 . S
C1948 C1950 1.419 . S
C1949 C1944 1.425 1_556 S
C1949 C1946 1.409 1_556 S
C1949 C1947 1.415 . S
C1950 H1940 0.930 . S
C1950 C1948 1.419 . S
C1950 C1951 1.362 . S
C1951 H1941 0.930 . S
C1951 C1944 1.409 1_556 S
C1951 C1950 1.362 . S
H1952 C1958 0.930 . S
H1953 C1961 0.930 . S
H1954 C1962 0.930 . S
H1955 C1963 0.930 . S
H1956 C1966 0.930 . S
H1957 C1967 0.930 . S
C1958 H1952 0.930 . S
C1958 C1959 1.355 . S
C1958 C1960 1.415 . S
C1959 C1958 1.355 . S
C1959 C1961 1.419 . S
C1960 C1958 1.415 . S
C1960 C1965 1.425 1_455 S
C1960 C1967 1.409 1_455 S
C1961 H1953 0.930 . S
C1961 C1959 1.419 . S
C1961 C1962 1.362 . S
C1962 H1954 0.930 . S
C1962 C1961 1.362 . S
C1962 C1965 1.409 1_455 S
C1963 H1955 0.930 . S
C1963 C1964 1.355 . S
C1963 C1965 1.415 . S
C1964 C1963 1.355 . S
C1964 C1966 1.419 . S
C1965 C1960 1.425 1_655 S
C1965 C1962 1.409 1_655 S
C1965 C1963 1.415 . S
C1966 H1956 0.930 . S
C1966 C1964 1.419 . S
C1966 C1967 1.362 . S
C1967 H1957 0.930 . S
C1967 C1960 1.409 1_655 S
C1967 C1966 1.362 . S
H1968 C1974 0.930 . S
H1969 C1977 0.930 . S
H1970 C1978 0.930 . S
H1971 C1979 0.930 . S
H1972 C1982 0.930 . S
H1973 C1983 0.930 . S
C1974 H1968 0.930 . S
C1974 C1975 1.355 . S
C1974 C1976 1.415 . S
C1975 C1974 1.355 . S
C1975 C1977 1.419 . S
C1976 C1974 1.415 . S
C1976 C1981 1.425 1_565 S
C1976 C1983 1.409 1_565 S
C1977 H1969 0.930 . S
C1977 C1975 1.419 . S
C1977 C1978 1.362 . S
C1978 H1970 0.930 . S
C1978 C1977 1.362 . S
C1978 C1981 1.409 1_565 S
C1979 H1971 0.930 . S
C1979 C1980 1.355 . S
C1979 C1981 1.415 . S
C1980 C1979 1.355 . S
C1980 C1982 1.419 . S
C1981 C1976 1.425 1_545 S
C1981 C1978 1.409 1_545 S
C1981 C1979 1.415 . S
C1982 H1972 0.930 . S
C1982 C1980 1.419 . S
C1982 C1983 1.362 . S
C1983 H1973 0.930 . S
C1983 C1976 1.409 1_545 S
C1983 C1982 1.362 . S
H1984 C1990 0.930 . S
H1985 C1993 0.930 . S
H1986 C1994 0.930 . S
H1987 C1995 0.930 . S
H1988 C1998 0.930 . S
H1989 C1999 0.930 . S
C1990 H1984 0.930 . S
C1990 C1991 1.355 . S
C1990 C1992 1.415 . S
C1991 C1990 1.355 . S
C1991 C1993 1.419 . S
C1992 C1990 1.415 . S
C1992 C1997 1.425 1_455 S
C1992 C1999 1.409 1_455 S
C1993 H1985 0.930 . S
C1993 C1991 1.419 . S
C1993 C1994 1.362 . S
C1994 H1986 0.930 . S
C1994 C1993 1.362 . S
C1994 C1997 1.409 1_455 S
C1995 H1987 0.930 . S
C1995 C1996 1.355 . S
C1995 C1997 1.415 . S
C1996 C1995 1.355 . S
C1996 C1998 1.419 . S
C1997 C1992 1.425 1_655 S
C1997 C1994 1.409 1_655 S
C1997 C1995 1.415 . S
C1998 H1988 0.930 . S
C1998 C1996 1.419 . S
C1998 C1999 1.362 . S
C1999 H1989 0.930 . S
C1999 C1992 1.409 1_655 S
C1999 C1998 1.362 . S
H2000 C2006 0.930 . S
H2001 C2009 0.930 . S
H2002 C2010 0.930 . S
H2003 C2011 0.930 . S
H2004 C2014 0.930 . S
H2005 C2015 0.930 . S
C2006 H2000 0.930 . S
C2006 C2007 1.355 . S
C2006 C2008 1.415 . S
C2007 C2006 1.355 . S
C2007 C2009 1.419 . S
C2008 C2006 1.415 . S
C2008 C2013 1.425 1_565 S
C2008 C2015 1.409 1_565 S
C2009 H2001 0.930 . S
C2009 C2007 1.419 . S
C2009 C2010 1.362 . S
C2010 H2002 0.930 . S
C2010 C2009 1.362 . S
C2010 C2013 1.409 1_565 S
C2011 H2003 0.930 . S
C2011 C2012 1.355 . S
C2011 C2013 1.415 . S
C2012 C2011 1.355 . S
C2012 C2014 1.419 . S
C2013 C2008 1.425 1_545 S
C2013 C2010 1.409 1_545 S
C2013 C2011 1.415 . S
C2014 H2004 0.930 . S
C2014 C2012 1.419 . S
C2014 C2015 1.362 . S
C2015 H2005 0.930 . S
C2015 C2008 1.409 1_545 S
C2015 C2014 1.362 . S
H2016 C2022 0.930 . S
H2017 C2025 0.930 . S
H2018 C2026 0.930 . S
H2019 C2027 0.930 . S
H2020 C2030 0.930 . S
H2021 C2031 0.930 . S
C2022 H2016 0.930 . S
C2022 C2023 1.355 . S
C2022 C2024 1.415 . S
C2023 C2022 1.355 . S
C2023 C2025 1.419 . S
C2024 C2022 1.415 . S
C2024 C2029 1.425 1_655 S
C2024 C2031 1.409 1_655 S
C2025 H2017 0.930 . S
C2025 C2023 1.419 . S
C2025 C2026 1.362 . S
C2026 H2018 0.930 . S
C2026 C2025 1.362 . S
C2026 C2029 1.409 1_655 S
C2027 H2019 0.930 . S
C2027 C2028 1.355 . S
C2027 C2029 1.415 . S
C2028 C2027 1.355 . S
C2028 C2030 1.419 . S
C2029 C2024 1.425 1_455 S
C2029 C2026 1.409 1_455 S
C2029 C2027 1.415 . S
C2030 H2020 0.930 . S
C2030 C2028 1.419 . S
C2030 C2031 1.362 . S
C2031 H2021 0.930 . S
C2031 C2024 1.409 1_455 S
C2031 C2030 1.362 . S
H2032 C2038 0.930 . S
H2033 C2041 0.930 . S
H2034 C2042 0.930 . S
H2035 C2043 0.930 . S
H2036 C2046 0.930 . S
H2037 C2047 0.930 . S
C2038 H2032 0.930 . S
C2038 C2039 1.355 . S
C2038 C2040 1.415 . S
C2039 C2038 1.355 . S
C2039 C2041 1.419 . S
C2040 C2038 1.415 . S
C2040 C2045 1.425 1_545 S
C2040 C2047 1.409 1_545 S
C2041 H2033 0.930 . S
C2041 C2039 1.419 . S
C2041 C2042 1.362 . S
C2042 H2034 0.930 . S
C2042 C2041 1.362 . S
C2042 C2045 1.409 1_545 S
C2043 H2035 0.930 . S
C2043 C2044 1.355 . S
C2043 C2045 1.415 . S
C2044 C2043 1.355 . S
C2044 C2046 1.419 . S
C2045 C2040 1.425 1_565 S
C2045 C2042 1.409 1_565 S
C2045 C2043 1.415 . S
C2046 H2036 0.930 . S
C2046 C2044 1.419 . S
C2046 C2047 1.362 . S
C2047 H2037 0.930 . S
C2047 C2040 1.409 1_565 S
C2047 C2046 1.362 . S
H2048 C2054 0.930 . S
H2049 C2057 0.930 . S
H2050 C2058 0.930 . S
H2051 C2059 0.930 . S
H2052 C2062 0.930 . S
H2053 C2063 0.930 . S
C2054 H2048 0.930 . S
C2054 C2055 1.355 . S
C2054 C2056 1.415 . S
C2055 C2054 1.355 . S
C2055 C2057 1.419 . S
C2056 C2054 1.415 . S
C2056 C2061 1.425 1_455 S
C2056 C2063 1.409 1_455 S
C2057 H2049 0.930 . S
C2057 C2055 1.419 . S
C2057 C2058 1.362 . S
C2058 H2050 0.930 . S
C2058 C2057 1.362 . S
C2058 C2061 1.409 1_455 S
C2059 H2051 0.930 . S
C2059 C2060 1.355 . S
C2059 C2061 1.415 . S
C2060 C2059 1.355 . S
C2060 C2062 1.419 . S
C2061 C2056 1.425 1_655 S
C2061 C2058 1.409 1_655 S
C2061 C2059 1.415 . S
C2062 H2052 0.930 . S
C2062 C2060 1.419 . S
C2062 C2063 1.362 . S
C2063 H2053 0.930 . S
C2063 C2056 1.409 1_655 S
C2063 C2062 1.362 . S
H2064 C2070 0.930 . S
H2065 C2073 0.930 . S
H2066 C2074 0.930 . S
H2067 C2075 0.930 . S
H2068 C2078 0.930 . S
H2069 C2079 0.930 . S
C2070 H2064 0.930 . S
C2070 C2071 1.355 . S
C2070 C2072 1.415 . S
C2071 C2070 1.355 . S
C2071 C2073 1.419 . S
C2072 C2070 1.415 . S
C2072 C2077 1.425 1_545 S
C2072 C2079 1.409 1_545 S
C2073 H2065 0.930 . S
C2073 C2071 1.419 . S
C2073 C2074 1.362 . S
C2074 H2066 0.930 . S
C2074 C2073 1.362 . S
C2074 C2077 1.409 1_545 S
C2075 H2067 0.930 . S
C2075 C2076 1.355 . S
C2075 C2077 1.415 . S
C2076 C2075 1.355 . S
C2076 C2078 1.419 . S
C2077 C2072 1.425 1_565 S
C2077 C2074 1.409 1_565 S
C2077 C2075 1.415 . S
C2078 H2068 0.930 . S
C2078 C2076 1.419 . S
C2078 C2079 1.362 . S
C2079 H2069 0.930 . S
C2079 C2072 1.409 1_565 S
C2079 C2078 1.362 . S
H2080 C2086 0.930 . S
H2081 C2089 0.930 . S
H2082 C2090 0.930 . S
H2083 C2091 0.930 . S
H2084 C2094 0.930 . S
H2085 C2095 0.930 . S
C2086 H2080 0.930 . S
C2086 C2087 1.355 . S
C2086 C2088 1.415 . S
C2087 C2086 1.355 . S
C2087 C2089 1.419 . S
C2088 C2086 1.415 . S
C2088 C2093 1.425 1_545 S
C2088 C2095 1.409 1_545 S
C2089 H2081 0.930 . S
C2089 C2087 1.419 . S
C2089 C2090 1.362 . S
C2090 H2082 0.930 . S
C2090 C2089 1.362 . S
C2090 C2093 1.409 1_545 S
C2091 H2083 0.930 . S
C2091 C2092 1.355 . S
C2091 C2093 1.415 . S
C2092 C2091 1.355 . S
C2092 C2094 1.419 . S
C2093 C2088 1.425 1_565 S
C2093 C2090 1.409 1_565 S
C2093 C2091 1.415 . S
C2094 H2084 0.930 . S
C2094 C2092 1.419 . S
C2094 C2095 1.362 . S
C2095 H2085 0.930 . S
C2095 C2088 1.409 1_565 S
C2095 C2094 1.362 . S
H2096 C2102 0.930 . S
H2097 C2105 0.930 . S
H2098 C2106 0.930 . S
H2099 C2107 0.930 . S
H2100 C2110 0.930 . S
H2101 C2111 0.930 . S
C2102 H2096 0.930 . S
C2102 C2103 1.355 . S
C2102 C2104 1.415 . S
C2103 C2102 1.355 . S
C2103 C2105 1.419 . S
C2104 C2102 1.415 . S
C2104 C2109 1.425 1_545 S
C2104 C2111 1.409 1_545 S
C2105 H2097 0.930 . S
C2105 C2103 1.419 . S
C2105 C2106 1.362 . S
C2106 H2098 0.930 . S
C2106 C2105 1.362 . S
C2106 C2109 1.409 1_545 S
C2107 H2099 0.930 . S
C2107 C2108 1.355 . S
C2107 C2109 1.415 . S
C2108 C2107 1.355 . S
C2108 C2110 1.419 . S
C2109 C2104 1.425 1_565 S
C2109 C2106 1.409 1_565 S
C2109 C2107 1.415 . S
C2110 H2100 0.930 . S
C2110 C2108 1.419 . S
C2110 C2111 1.362 . S
C2111 H2101 0.930 . S
C2111 C2104 1.409 1_565 S
C2111 C2110 1.362 . S
H2112 C2118 0.930 . S
H2113 C2121 0.930 . S
H2114 C2122 0.930 . S
H2115 C2123 0.930 . S
H2116 C2126 0.930 . S
H2117 C2127 0.930 . S
C2118 H2112 0.930 . S
C2118 C2119 1.355 . S
C2118 C2120 1.415 . S
C2119 C2118 1.355 . S
C2119 C2121 1.419 . S
C2120 C2118 1.415 . S
C2120 C2125 1.425 1_655 S
C2120 C2127 1.409 1_655 S
C2121 H2113 0.930 . S
C2121 C2119 1.419 . S
C2121 C2122 1.362 . S
C2122 H2114 0.930 . S
C2122 C2121 1.362 . S
C2122 C2125 1.409 1_655 S
C2123 H2115 0.930 . S
C2123 C2124 1.355 . S
C2123 C2125 1.415 . S
C2124 C2123 1.355 . S
C2124 C2126 1.419 . S
C2125 C2120 1.425 1_455 S
C2125 C2122 1.409 1_455 S
C2125 C2123 1.415 . S
C2126 H2116 0.930 . S
C2126 C2124 1.419 . S
C2126 C2127 1.362 . S
C2127 H2117 0.930 . S
C2127 C2120 1.409 1_455 S
C2127 C2126 1.362 . S
H2128 C2134 0.930 . S
H2129 C2137 0.930 . S
H2130 C2138 0.930 . S
H2131 C2139 0.930 . S
H2132 C2142 0.930 . S
H2133 C2143 0.930 . S
C2134 H2128 0.930 . S
C2134 C2135 1.355 . S
C2134 C2136 1.415 . S
C2135 C2134 1.355 . S
C2135 C2137 1.419 . S
C2136 C2134 1.415 . S
C2136 C2141 1.425 1_545 S
C2136 C2143 1.409 1_545 S
C2137 H2129 0.930 . S
C2137 C2135 1.419 . S
C2137 C2138 1.362 . S
C2138 H2130 0.930 . S
C2138 C2137 1.362 . S
C2138 C2141 1.409 1_545 S
C2139 H2131 0.930 . S
C2139 C2140 1.355 . S
C2139 C2141 1.415 . S
C2140 C2139 1.355 . S
C2140 C2142 1.419 . S
C2141 C2136 1.425 1_565 S
C2141 C2138 1.409 1_565 S
C2141 C2139 1.415 . S
C2142 H2132 0.930 . S
C2142 C2140 1.419 . S
C2142 C2143 1.362 . S
C2143 H2133 0.930 . S
C2143 C2136 1.409 1_565 S
C2143 C2142 1.362 . S
H2144 C2150 0.930 . S
H2145 C2153 0.930 . S
H2146 C2154 0.930 . S
H2147 C2155 0.930 . S
H2148 C2158 0.930 . S
H2149 C2159 0.930 . S
C2150 H2144 0.930 . S
C2150 C2151 1.355 . S
C2150 C2152 1.415 . S
C2151 C2150 1.355 . S
C2151 C2153 1.419 . S
C2152 C2150 1.415 . S
C2152 C2157 1.425 1_455 S
C2152 C2159 1.409 1_455 S
C2153 H2145 0.930 . S
C2153 C2151 1.419 . S
C2153 C2154 1.362 . S
C2154 H2146 0.930 . S
C2154 C2153 1.362 . S
C2154 C2157 1.409 1_455 S
C2155 H2147 0.930 . S
C2155 C2156 1.355 . S
C2155 C2157 1.415 . S
C2156 C2155 1.355 . S
C2156 C2158 1.419 . S
C2157 C2152 1.425 1_655 S
C2157 C2154 1.409 1_655 S
C2157 C2155 1.415 . S
C2158 H2148 0.930 . S
C2158 C2156 1.419 . S
C2158 C2159 1.362 . S
C2159 H2149 0.930 . S
C2159 C2152 1.409 1_655 S
C2159 C2158 1.362 . S
H2160 C2166 0.930 . S
H2161 C2169 0.930 . S
H2162 C2170 0.930 . S
H2163 C2171 0.930 . S
H2164 C2174 0.930 . S
H2165 C2175 0.930 . S
C2166 H2160 0.930 . S
C2166 C2167 1.355 . S
C2166 C2168 1.415 . S
C2167 C2166 1.355 . S
C2167 C2169 1.419 . S
C2168 C2166 1.415 . S
C2168 C2173 1.425 1_545 S
C2168 C2175 1.409 1_545 S
C2169 H2161 0.930 . S
C2169 C2167 1.419 . S
C2169 C2170 1.362 . S
C2170 H2162 0.930 . S
C2170 C2169 1.362 . S
C2170 C2173 1.409 1_545 S
C2171 H2163 0.930 . S
C2171 C2172 1.355 . S
C2171 C2173 1.415 . S
C2172 C2171 1.355 . S
C2172 C2174 1.419 . S
C2173 C2168 1.425 1_565 S
C2173 C2170 1.409 1_565 S
C2173 C2171 1.415 . S
C2174 H2164 0.930 . S
C2174 C2172 1.419 . S
C2174 C2175 1.362 . S
C2175 H2165 0.930 . S
C2175 C2168 1.409 1_565 S
C2175 C2174 1.362 . S
H2176 C2182 0.930 . S
H2177 C2185 0.930 . S
H2178 C2186 0.930 . S
H2179 C2187 0.930 . S
H2180 C2190 0.930 . S
H2181 C2191 0.930 . S
C2182 H2176 0.930 . S
C2182 C2183 1.355 . S
C2182 C2184 1.415 . S
C2183 C2182 1.355 . S
C2183 C2185 1.419 . S
C2184 C2182 1.415 . S
C2184 C2189 1.425 1_655 S
C2184 C2191 1.409 1_655 S
C2185 H2177 0.930 . S
C2185 C2183 1.419 . S
C2185 C2186 1.362 . S
C2186 H2178 0.930 . S
C2186 C2185 1.362 . S
C2186 C2189 1.409 1_655 S
C2187 H2179 0.930 . S
C2187 C2188 1.355 . S
C2187 C2189 1.415 . S
C2188 C2187 1.355 . S
C2188 C2190 1.419 . S
C2189 C2184 1.425 1_455 S
C2189 C2186 1.409 1_455 S
C2189 C2187 1.415 . S
C2190 H2180 0.930 . S
C2190 C2188 1.419 . S
C2190 C2191 1.362 . S
C2191 H2181 0.930 . S
C2191 C2184 1.409 1_455 S
C2191 C2190 1.362 . S
H2192 C2198 0.930 . S
H2193 C2201 0.930 . S
H2194 C2202 0.930 . S
H2195 C2203 0.930 . S
H2196 C2206 0.930 . S
H2197 C2207 0.930 . S
C2198 H2192 0.930 . S
C2198 C2199 1.355 . S
C2198 C2200 1.415 . S
C2199 C2198 1.355 . S
C2199 C2201 1.419 . S
C2200 C2198 1.415 . S
C2200 C2205 1.425 1_455 S
C2200 C2207 1.409 1_455 S
C2201 H2193 0.930 . S
C2201 C2199 1.419 . S
C2201 C2202 1.362 . S
C2202 H2194 0.930 . S
C2202 C2201 1.362 . S
C2202 C2205 1.409 1_455 S
C2203 H2195 0.930 . S
C2203 C2204 1.355 . S
C2203 C2205 1.415 . S
C2204 C2203 1.355 . S
C2204 C2206 1.419 . S
C2205 C2200 1.425 1_655 S
C2205 C2202 1.409 1_655 S
C2205 C2203 1.415 . S
C2206 H2196 0.930 . S
C2206 C2204 1.419 . S
C2206 C2207 1.362 . S
C2207 H2197 0.930 . S
C2207 C2200 1.409 1_655 S
C2207 C2206 1.362 . S
C679 C553 1.393 . S
C684 C7 1.398 . S
C695 C20 1.397 . S
C700 C511 1.394 . S
C711 C35 1.377 . S
C716 C525 1.413 . S
C727 C538 1.425 . S
C732 C48 1.365 . S
C743 C468 1.419 . S
C748 C62 1.372 . S
C759 C77 1.401 . S
C764 C483 1.390 . S
C775 C90 1.366 . S
C780 C497 1.424 . S
C791 C105 1.368 . S
C796 C454 1.422 . S
C807 C118 1.388 . S
C812 C441 1.402 . S
C823 C398 1.406 . S
C828 C132 1.384 . S
C839 C413 1.412 . S
C844 C147 1.378 . S
C855 C161 1.426 . S
C860 C426 1.364 . S
C871 C175 1.417 . S
C876 C356 1.373 . S
C887 C189 1.393 . S
C892 C371 1.398 . S
C903 C384 1.425 . S
C908 C202 1.365 . S
C919 C343 1.364 . S
C924 C217 1.426 . S
C935 C230 1.409 . S
C940 C622 1.381 . S
C951 C665 1.364 . S
C956 C245 1.426 . S
C967 C636 1.426 . S
C972 C258 1.364 . S
C983 C651 1.378 . S
C988 C273 1.412 . S
C999 C566 1.418 . S
C1004 C286 1.372 . S
C1015 C594 1.422 . S
C1020 C300 1.368 . S
C1031 C315 1.425 . S
C1036 C609 1.365 . S
C1047 C581 1.405 . S
C1052 C329 1.386 . S
C1063 C455 1.399 . S
C1068 C287 1.391 . S
C1079 C244 1.422 . S
C1084 C469 1.368 . S
C1095 C482 1.388 . S
C1100 C259 1.403 . S
C1111 C496 1.419 . S
C1116 C272 1.371 . S
C1127 C328 1.377 . S
C1132 C510 1.414 . S
C1143 C524 1.425 . S
C1148 C301 1.365 . S
C1159 C314 1.418 . S
C1164 C539 1.372 . S
C1175 C231 1.364 . S
C1180 C552 1.426 . S
C1191 C567 1.365 . S
C1196 C216 1.425 . S
C1207 C174 1.366 . S
C1212 C664 1.424 . S
C1223 C637 1.408 . S
C1228 C188 1.383 . S
C1239 C203 1.364 . S
C1244 C650 1.426 . S
C1255 C133 1.417 . S
C1260 C580 1.373 . S
C1271 C146 1.426 . S
C1276 C595 1.364 . S
C1287 C160 1.422 . S
C1292 C608 1.368 . S
C1303 C623 1.371 . S
C1308 C119 1.419 . S
C1319 C342 1.366 . S
C1324 C104 1.424 . S
C1335 C399 1.426 . S
C1340 C21 1.364 . S
C1351 C412 1.364 . S
C1356 C34 1.426 . S
C1367 C427 1.425 . S
C1372 C49 1.365 . S
C1383 C440 1.426 . S
C1388 C6 1.364 . S
C1399 C76 1.390 . S
C1404 C370 1.401 . S
C1415 C385 1.375 . S
C1420 C91 1.415 . S
C1431 C357 1.406 . S
C1436 C63 1.384 . S
C1447 C8 1.532 . S
C1452 C372 1.485 . S
C1463 C387 1.513 . S
C1468 C23 1.504 . S
C1479 C36 1.530 . S
C1484 C344 1.488 . S
C1495 C51 1.485 . S
C1500 C359 1.532 . S
C1511 C65 1.523 . S
C1516 C429 1.494 . S
C1527 C442 1.522 . S
C1532 C78 1.495 . S
C1543 C93 1.511 . S
C1548 C401 1.506 . S
C1559 C414 1.488 . S
C1564 C106 1.529 . S
C1575 C121 1.487 . S
C1580 C512 1.530 . S
C1591 C526 1.532 . S
C1596 C135 1.485 . S
C1607 C148 1.498 . S
C1612 C541 1.520 . S
C1623 C162 1.492 . S
C1628 C554 1.525 . S
C1639 C176 1.501 . S
C1644 C457 1.516 . S
C1655 C190 1.494 . S
C1660 C471 1.523 . S
C1671 C484 1.484 . S
C1676 C205 1.533 . S
C1687 C218 1.492 . S
C1692 C498 1.525 . S
C1703 C610 1.521 . S
C1708 C233 1.496 . S
C1719 C246 1.532 . S
C1724 C639 1.485 . S
C1735 C261 1.502 . S
C1740 C652 1.516 . S
C1751 C569 1.511 . S
C1756 C274 1.507 . S
C1767 C666 1.492 . S
C1772 C289 1.525 . S
C1783 C303 1.488 . S
C1788 C582 1.529 . S
C1799 C597 1.527 . S
C1804 C316 1.490 . S
C1815 C330 1.506 . S
C1820 C625 1.511 . S
C1831 C596 1.498 . S
C1836 C288 1.519 . S
C1847 C247 1.496 . S
C1852 C611 1.521 . S
C1863 C624 1.531 . S
C1868 C260 1.486 . S
C1879 C583 1.486 . S
C1884 C275 1.531 . S
C1895 C653 1.527 . S
C1900 C331 1.490 . S
C1911 C302 1.501 . S
C1916 C568 1.517 . S
C1927 C667 1.486 . S
C1932 C317 1.531 . S
C1943 C232 1.519 . S
C1948 C638 1.499 . S
C1959 C470 1.512 . S
C1964 C219 1.505 . S
C1975 C177 1.488 . S
C1980 C485 1.529 . S
C1991 C191 1.493 . S
C1996 C499 1.524 . S
C2007 C456 1.497 . S
C2012 C204 1.520 . S
C2023 C134 1.533 . S
C2028 C555 1.484 . S
C2039 C513 1.519 . S
C2044 C149 1.499 . S
C2055 C163 1.488 . S
C2060 C527 1.530 . S
C2071 C120 1.525 . S
C2076 C540 1.492 . S
C2087 C386 1.525 . S
C2092 C107 1.492 . S
C2103 C22 1.485 . S
C2108 C415 1.532 . S
C2119 C37 1.532 . S
C2124 C428 1.485 . S
C2135 C443 1.533 . S
C2140 C50 1.484 . S
C2151 C9 1.494 . S
C2156 C400 1.523 . S
C2167 C79 1.508 . S
C2172 C358 1.509 . S
C2183 C92 1.484 . S
C2188 C373 1.533 . S
C2199 C64 1.522 . S
C2204 C345 1.496 . S
