# Generated by pormake.
# Topology ecv, (8)-cn, num edge types: 1
# Building blocks:
#     Node 0, Type 0, BuildingBlock: TAGTUT_clean_sbu_3, # of connection points: 8
#     Node 1, Type 0, BuildingBlock: TAGTUT_clean_sbu_3, # of connection points: 8
#     Node 2, Type 0, BuildingBlock: TAGTUT_clean_sbu_3, # of connection points: 8
#     Node 3, Type 0, BuildingBlock: TAGTUT_clean_sbu_3, # of connection points: 8
#     Node 4, Type 0, BuildingBlock: TAGTUT_clean_sbu_3, # of connection points: 8
#     Node 5, Type 0, BuildingBlock: TAGTUT_clean_sbu_3, # of connection points: 8
#     Node 6, Type 0, BuildingBlock: TAGTUT_clean_sbu_3, # of connection points: 8
#     Node 7, Type 0, BuildingBlock: TAGTUT_clean_sbu_3, # of connection points: 8
#     Node 8, Type 0, BuildingBlock: TAGTUT_clean_sbu_3, # of connection points: 8
#     Node 9, Type 0, BuildingBlock: TAGTUT_clean_sbu_3, # of connection points: 8
#     Node 10, Type 0, BuildingBlock: TAGTUT_clean_sbu_3, # of connection points: 8
#     Node 11, Type 0, BuildingBlock: TAGTUT_clean_sbu_3, # of connection points: 8
#     Node 12, Type 0, BuildingBlock: TAGTUT_clean_sbu_3, # of connection points: 8
#     Node 13, Type 0, BuildingBlock: TAGTUT_clean_sbu_3, # of connection points: 8
#     Node 14, Type 0, BuildingBlock: TAGTUT_clean_sbu_3, # of connection points: 8
#     Node 15, Type 0, BuildingBlock: TAGTUT_clean_sbu_3, # of connection points: 8
#     Edge 16, Type (0, 0), BuildingBlock: MIFKUJ_clean_linker_0, # of connection points: 2
#     Edge 17, Type (0, 0), BuildingBlock: MIFKUJ_clean_linker_0, # of connection points: 2
#     Edge 18, Type (0, 0), BuildingBlock: MIFKUJ_clean_linker_0, # of connection points: 2
#     Edge 19, Type (0, 0), BuildingBlock: MIFKUJ_clean_linker_0, # of connection points: 2
#     Edge 20, Type (0, 0), BuildingBlock: MIFKUJ_clean_linker_0, # of connection points: 2
#     Edge 21, Type (0, 0), BuildingBlock: MIFKUJ_clean_linker_0, # of connection points: 2
#     Edge 22, Type (0, 0), BuildingBlock: MIFKUJ_clean_linker_0, # of connection points: 2
#     Edge 23, Type (0, 0), BuildingBlock: MIFKUJ_clean_linker_0, # of connection points: 2
#     Edge 24, Type (0, 0), BuildingBlock: MIFKUJ_clean_linker_0, # of connection points: 2
#     Edge 25, Type (0, 0), BuildingBlock: MIFKUJ_clean_linker_0, # of connection points: 2
#     Edge 26, Type (0, 0), BuildingBlock: MIFKUJ_clean_linker_0, # of connection points: 2
#     Edge 27, Type (0, 0), BuildingBlock: MIFKUJ_clean_linker_0, # of connection points: 2
#     Edge 28, Type (0, 0), BuildingBlock: MIFKUJ_clean_linker_0, # of connection points: 2
#     Edge 29, Type (0, 0), BuildingBlock: MIFKUJ_clean_linker_0, # of connection points: 2
#     Edge 30, Type (0, 0), BuildingBlock: MIFKUJ_clean_linker_0, # of connection points: 2
#     Edge 31, Type (0, 0), BuildingBlock: MIFKUJ_clean_linker_0, # of connection points: 2
#     Edge 32, Type (0, 0), BuildingBlock: MIFKUJ_clean_linker_0, # of connection points: 2
#     Edge 33, Type (0, 0), BuildingBlock: MIFKUJ_clean_linker_0, # of connection points: 2
#     Edge 34, Type (0, 0), BuildingBlock: MIFKUJ_clean_linker_0, # of connection points: 2
#     Edge 35, Type (0, 0), BuildingBlock: MIFKUJ_clean_linker_0, # of connection points: 2
#     Edge 36, Type (0, 0), BuildingBlock: MIFKUJ_clean_linker_0, # of connection points: 2
#     Edge 37, Type (0, 0), BuildingBlock: MIFKUJ_clean_linker_0, # of connection points: 2
#     Edge 38, Type (0, 0), BuildingBlock: MIFKUJ_clean_linker_0, # of connection points: 2
#     Edge 39, Type (0, 0), BuildingBlock: MIFKUJ_clean_linker_0, # of connection points: 2
#     Edge 40, Type (0, 0), BuildingBlock: MIFKUJ_clean_linker_0, # of connection points: 2
#     Edge 41, Type (0, 0), BuildingBlock: MIFKUJ_clean_linker_0, # of connection points: 2
#     Edge 42, Type (0, 0), BuildingBlock: MIFKUJ_clean_linker_0, # of connection points: 2
#     Edge 43, Type (0, 0), BuildingBlock: MIFKUJ_clean_linker_0, # of connection points: 2
#     Edge 44, Type (0, 0), BuildingBlock: MIFKUJ_clean_linker_0, # of connection points: 2
#     Edge 45, Type (0, 0), BuildingBlock: MIFKUJ_clean_linker_0, # of connection points: 2
#     Edge 46, Type (0, 0), BuildingBlock: MIFKUJ_clean_linker_0, # of connection points: 2
#     Edge 47, Type (0, 0), BuildingBlock: MIFKUJ_clean_linker_0, # of connection points: 2
#     Edge 48, Type (0, 0), BuildingBlock: MIFKUJ_clean_linker_0, # of connection points: 2
#     Edge 49, Type (0, 0), BuildingBlock: MIFKUJ_clean_linker_0, # of connection points: 2
#     Edge 50, Type (0, 0), BuildingBlock: MIFKUJ_clean_linker_0, # of connection points: 2
#     Edge 51, Type (0, 0), BuildingBlock: MIFKUJ_clean_linker_0, # of connection points: 2
#     Edge 52, Type (0, 0), BuildingBlock: MIFKUJ_clean_linker_0, # of connection points: 2
#     Edge 53, Type (0, 0), BuildingBlock: MIFKUJ_clean_linker_0, # of connection points: 2
#     Edge 54, Type (0, 0), BuildingBlock: MIFKUJ_clean_linker_0, # of connection points: 2
#     Edge 55, Type (0, 0), BuildingBlock: MIFKUJ_clean_linker_0, # of connection points: 2
#     Edge 56, Type (0, 0), BuildingBlock: MIFKUJ_clean_linker_0, # of connection points: 2
#     Edge 57, Type (0, 0), BuildingBlock: MIFKUJ_clean_linker_0, # of connection points: 2
#     Edge 58, Type (0, 0), BuildingBlock: MIFKUJ_clean_linker_0, # of connection points: 2
#     Edge 59, Type (0, 0), BuildingBlock: MIFKUJ_clean_linker_0, # of connection points: 2
#     Edge 60, Type (0, 0), BuildingBlock: MIFKUJ_clean_linker_0, # of connection points: 2
#     Edge 61, Type (0, 0), BuildingBlock: MIFKUJ_clean_linker_0, # of connection points: 2
#     Edge 62, Type (0, 0), BuildingBlock: MIFKUJ_clean_linker_0, # of connection points: 2
#     Edge 63, Type (0, 0), BuildingBlock: MIFKUJ_clean_linker_0, # of connection points: 2
#     Edge 64, Type (0, 0), BuildingBlock: MIFKUJ_clean_linker_0, # of connection points: 2
#     Edge 65, Type (0, 0), BuildingBlock: MIFKUJ_clean_linker_0, # of connection points: 2
#     Edge 66, Type (0, 0), BuildingBlock: MIFKUJ_clean_linker_0, # of connection points: 2
#     Edge 67, Type (0, 0), BuildingBlock: MIFKUJ_clean_linker_0, # of connection points: 2
#     Edge 68, Type (0, 0), BuildingBlock: MIFKUJ_clean_linker_0, # of connection points: 2
#     Edge 69, Type (0, 0), BuildingBlock: MIFKUJ_clean_linker_0, # of connection points: 2
#     Edge 70, Type (0, 0), BuildingBlock: MIFKUJ_clean_linker_0, # of connection points: 2
#     Edge 71, Type (0, 0), BuildingBlock: MIFKUJ_clean_linker_0, # of connection points: 2
#     Edge 72, Type (0, 0), BuildingBlock: MIFKUJ_clean_linker_0, # of connection points: 2
#     Edge 73, Type (0, 0), BuildingBlock: MIFKUJ_clean_linker_0, # of connection points: 2
#     Edge 74, Type (0, 0), BuildingBlock: MIFKUJ_clean_linker_0, # of connection points: 2
#     Edge 75, Type (0, 0), BuildingBlock: MIFKUJ_clean_linker_0, # of connection points: 2
#     Edge 76, Type (0, 0), BuildingBlock: MIFKUJ_clean_linker_0, # of connection points: 2
#     Edge 77, Type (0, 0), BuildingBlock: MIFKUJ_clean_linker_0, # of connection points: 2
#     Edge 78, Type (0, 0), BuildingBlock: MIFKUJ_clean_linker_0, # of connection points: 2
#     Edge 79, Type (0, 0), BuildingBlock: MIFKUJ_clean_linker_0, # of connection points: 2
# Relax obj value: 0.114
# Max RMSD: 0.208
# Mean RMSD: 0.192
data_MOF--net-ecv--node1-TAGTUT_clean_sbu_3--edge1-MIFKUJ_clean_linker_0
_symmetry_space_group_name_H-M    P1
_symmetry_Int_Tables_number       1
_symmetry_cell_setting            triclinic
loop_
_symmetry_equiv_pos_as_xyz
'x, y, z'
_cell_length_a     27.465121
_cell_length_b     30.488333
_cell_length_c     153.46141
_cell_angle_alpha  89.780301
_cell_angle_beta   90.046845
_cell_angle_gamma 90.080219
loop_
_atom_site_label
_atom_site_type_symbol
_atom_site_fract_x
_atom_site_fract_y
_atom_site_fract_z
_atom_type_partial_charge
C0 C 0.0081 0.07169 0.44831 0.0
C1 C 0.15522 0.16564 0.45703 0.0
C2 C 0.14091 0.22386 0.43228 0.0
Mg3 Mg 0.97367 0.046 0.42836 0.0
Mg4 Mg 0.056 0.02997 0.413 0.0
O5 O 0.02856 0.06888 0.42112 0.0
Mg6 Mg 0.0695 0.09181 0.43059 0.0
O7 O 0.1059 0.11653 0.44048 0.0
Mg8 Mg 0.05953 0.16556 0.44375 0.0
Mg9 Mg 0.16976 0.1327 0.43806 0.0
C10 C 0.13416 0.10587 0.41262 0.0
O11 O 0.12555 0.03491 0.43028 0.0
O12 O 0.93436 0.03749 0.41486 0.0
O13 O 0.19598 0.07076 0.43279 0.0
O14 O 0.0031 0.97686 0.42765 0.0
O15 O 0.99339 0.03034 0.40474 0.0
O16 O 0.06513 0.96584 0.41863 0.0
O17 O 0.01709 0.15063 0.43137 0.0
O18 O 0.94649 0.11645 0.42941 0.0
C19 C 0.97064 0.15152 0.43086 0.0
C20 C 0.9485 0.03342 0.40691 0.0
O21 O 0.11862 0.12286 0.41977 0.0
O22 O 0.11001 0.17326 0.45549 0.0
O23 O 0.11816 0.06959 0.40953 0.0
O24 O 0.10384 0.21996 0.4372 0.0
O25 O 0.18465 0.1507 0.45128 0.0
O26 O 0.16739 0.19105 0.43033 0.0
O27 O 0.02145 0.05694 0.44085 0.0
O28 O 0.01693 0.11133 0.45047 0.0
C29 C 0.03593 0.95218 0.42447 0.0
C30 C 0.17232 0.03585 0.43078 0.0
C31 C 0.97458 0.08871 0.8217 0.0
C32 C 0.9544 0.21337 0.84352 0.0
C33 C 0.03977 0.28971 0.82432 0.0
Mg34 Mg 0.06208 0.06561 0.8098 0.0
Mg35 Mg 0.1719 0.10097 0.81398 0.0
O36 O 0.10851 0.11673 0.81134 0.0
Mg37 Mg 0.07359 0.14805 0.82064 0.0
O38 O 0.03417 0.1762 0.82964 0.0
Mg39 Mg 0.9782 0.1939 0.82216 0.0
Mg40 Mg 0.06147 0.21819 0.83727 0.0
C41 C 0.17803 0.20154 0.81841 0.0
O42 O 0.12178 0.1224 0.83183 0.0
O43 O 0.1095 0.0496 0.79809 0.0
O44 O 0.12474 0.17985 0.84111 0.0
O45 O 0.10698 0.01623 0.81798 0.0
O46 O 0.18472 0.07419 0.80138 0.0
O47 O 0.1695 0.05196 0.82382 0.0
O48 O 0.02469 0.17741 0.8097 0.0
O49 O 0.01999 0.11587 0.80187 0.0
C50 C 0.01196 0.15702 0.80272 0.0
C51 C 0.15418 0.05668 0.79611 0.0
O52 O 0.13155 0.20405 0.81949 0.0
O53 O 0.94114 0.20562 0.83562 0.0
O54 O 0.19965 0.16504 0.81699 0.0
O55 O 0.00757 0.26299 0.82158 0.0
O56 O -0.00108 0.22004 0.84566 0.0
O57 O 0.06854 0.27987 0.83053 0.0
O58 O 0.02096 0.08966 0.82149 0.0
O59 O 0.95005 0.12398 0.82226 0.0
C60 C 0.14359 0.01757 0.82311 0.0
C61 C 0.13911 0.14195 0.83855 0.0
C62 C 0.0024 0.79958 0.56466 0.0
C63 C 0.9805 0.86682 0.59569 0.0
C64 C 0.83528 0.89738 0.58674 0.0
Mg65 Mg 0.95378 0.82664 0.54668 0.0
Mg66 Mg 0.90661 0.92469 0.54297 0.0
O67 O 0.91062 0.87643 0.55036 0.0
Mg68 Mg 0.92908 0.88168 0.56275 0.0
O69 O 0.94873 0.88166 0.57514 0.0
Mg70 Mg 0.918 0.82485 0.57884 0.0
Mg71 Mg 0.93593 0.93092 0.58207 0.0
C72 C 0.85169 0.96331 0.55938 0.0
O73 O 0.97928 0.94251 0.56094 0.0
O74 O 0.90676 0.82363 0.53465 0.0
O75 O 0.96897 0.97969 0.57352 0.0
O76 O 0.0044 0.87189 0.53832 0.0
O77 O 0.86991 0.88912 0.53285 0.0
O78 O 0.97833 0.94091 0.53858 0.0
O79 O 0.87854 0.82168 0.56551 0.0
O80 O 0.90035 0.78319 0.55384 0.0
C81 C 0.87522 0.78705 0.56079 0.0
C82 C 0.87693 0.84904 0.53069 0.0
O83 O 0.8661 0.9322 0.56446 0.0
O84 O 0.96262 0.83399 0.59155 0.0
O85 O 0.8662 0.96773 0.55149 0.0
O86 O 0.85244 0.85929 0.58515 0.0
O87 O 0.97508 0.90674 0.59324 0.0
O88 O 0.85985 0.93204 0.58518 0.0
O89 O 0.99168 0.8332 0.56 0.0
O90 O 0.9814 0.79187 0.57196 0.0
C91 C 0.00703 0.91173 0.53564 0.0
C92 C 0.9863 0.97643 0.56577 0.0
C93 C 0.86918 0.9614 0.1881 0.0
C94 C 0.83864 0.91727 0.21662 0.0
C95 C 0.96521 0.8363 0.2173 0.0
Mg96 Mg 0.91663 0.92102 0.17105 0.0
Mg97 Mg 0.92916 0.81548 0.16776 0.0
O98 O 0.94282 0.86307 0.17506 0.0
Mg99 Mg 0.91868 0.86359 0.18725 0.0
O100 O 0.89585 0.87106 0.19939 0.0
Mg101 Mg 0.93628 0.9211 0.20377 0.0
Mg102 Mg 0.86739 0.83286 0.20721 0.0
C103 C 0.97235 0.76622 0.18434 0.0
O104 O 0.8543 0.81556 0.1846 0.0
O105 O 0.96533 0.91054 0.15885 0.0
O106 O 0.83372 0.78928 0.19793 0.0
O107 O 0.85099 0.89054 0.16373 0.0
O108 O 0.97235 0.83752 0.15696 0.0
O109 O 0.85478 0.81753 0.16368 0.0
O110 O 0.98221 0.90983 0.19118 0.0
O111 O 0.97931 0.94998 0.17889 0.0
C112 C -0.00288 0.94203 0.18646 0.0
C113 C 0.98186 0.87712 0.15471 0.0
O114 O 0.96546 0.79946 0.18942 0.0
O115 O 0.87973 0.93329 0.21429 0.0
O116 O 0.95693 0.76537 0.17644 0.0
O117 O 0.97592 0.87312 0.21361 0.0
O118 O 0.82403 0.8793 0.21423 0.0
O119 O 0.92706 0.81444 0.21532 0.0
O120 O 0.87222 0.92547 0.18379 0.0
O121 O 0.89177 0.96611 0.19529 0.0
C122 C 0.83277 0.85315 0.16184 0.0
C123 C 0.83044 0.78926 0.1896 0.0
C124 C 0.02054 0.58351 0.94969 0.0
C125 C 0.17837 0.68059 0.95331 0.0
C126 C 0.1428 0.72866 0.92853 0.0
Mg127 Mg 0.97531 0.55025 0.93114 0.0
Mg128 Mg 0.0473 0.5284 0.91453 0.0
O129 O 0.0261 0.57007 0.92262 0.0
Mg130 Mg 0.07308 0.59613 0.93079 0.0
O131 O 0.11574 0.62433 0.93948 0.0
Mg132 Mg 0.07221 0.67466 0.94296 0.0
Mg133 Mg 0.17578 0.64128 0.93492 0.0
C134 C 0.12777 0.60111 0.91165 0.0
O135 O 0.12955 0.53905 0.93028 0.0
O136 O 0.92698 0.5388 0.91865 0.0
O137 O 0.1994 0.57789 0.93052 0.0
O138 O 0.00424 0.4803 0.93106 0.0
O139 O 0.97991 0.52895 0.90759 0.0
O140 O 0.0602 0.46729 0.92095 0.0
O141 O 0.02136 0.65558 0.93178 0.0
O142 O 0.94994 0.62107 0.93168 0.0
C143 C 0.97481 0.65643 0.93217 0.0
C144 C 0.93655 0.53402 0.91049 0.0
O145 O 0.11596 0.62182 0.91865 0.0
O146 O 0.13187 0.68557 0.95319 0.0
O147 O 0.1086 0.56431 0.90951 0.0
O148 O 0.11114 0.7266 0.93459 0.0
O149 O 0.2032 0.66574 0.94693 0.0
O150 O 0.16599 0.69466 0.92616 0.0
O151 O 0.03028 0.56604 0.9423 0.0
O152 O 0.03343 0.62299 0.95136 0.0
C153 C 0.03577 0.45523 0.92758 0.0
C154 C 0.17639 0.54141 0.92985 0.0
C155 C 0.97294 0.58759 0.32184 0.0
C156 C 0.95062 0.7063 0.3432 0.0
C157 C 0.03388 0.79088 0.32381 0.0
Mg158 Mg 0.06035 0.56267 0.30999 0.0
Mg159 Mg 0.16611 0.59418 0.31658 0.0
O160 O 0.10921 0.61449 0.31148 0.0
Mg161 Mg 0.07238 0.64762 0.32074 0.0
O162 O 0.03186 0.67725 0.32934 0.0
Mg163 Mg 0.97526 0.69284 0.32183 0.0
Mg164 Mg 0.05609 0.72101 0.33688 0.0
C165 C 0.17596 0.69704 0.3196 0.0
O166 O 0.12149 0.62942 0.33279 0.0
O167 O 0.11164 0.54447 0.29918 0.0
O168 O 0.12124 0.68963 0.34124 0.0
O169 O 0.10122 0.50887 0.31791 0.0
O170 O 0.18604 0.55843 0.30487 0.0
O171 O 0.13096 0.55678 0.32656 0.0
O172 O 0.02411 0.67532 0.30965 0.0
O173 O 0.02154 0.6143 0.30165 0.0
C174 C 0.0127 0.65529 0.30258 0.0
C175 C 0.15831 0.54462 0.2987 0.0
O176 O 0.12946 0.70214 0.31948 0.0
O177 O 0.93603 0.70232 0.33526 0.0
O178 O 0.19595 0.65896 0.31933 0.0
O179 O 0.00291 0.763 0.32104 0.0
O180 O 0.99466 0.71577 0.34519 0.0
O181 O 0.06165 0.78246 0.33022 0.0
O182 O 0.01938 0.58842 0.32162 0.0
O183 O 0.94884 0.62309 0.32224 0.0
C184 C 0.12908 0.51751 0.32426 0.0
C185 C 0.13799 0.65184 0.33925 0.0
C186 C 0.00232 0.30368 0.06586 0.0
C187 C 0.97338 0.37297 0.0957 0.0
C188 C 0.82897 0.4012 0.08675 0.0
Mg189 Mg 0.95749 0.3213 0.04673 0.0
Mg190 Mg 0.90884 0.41531 0.0416 0.0
O191 O 0.91078 0.37018 0.04956 0.0
Mg192 Mg 0.92538 0.3813 0.06208 0.0
O193 O 0.94054 0.38517 0.07474 0.0
Mg194 Mg 0.91172 0.32855 0.07887 0.0
Mg195 Mg 0.92976 0.43442 0.08165 0.0
C196 C 0.84367 0.45616 0.05638 0.0
O197 O 0.97399 0.44429 0.06024 0.0
O198 O 0.91438 0.3119 0.03416 0.0
O199 O 0.9618 0.48166 0.07277 0.0
O200 O 0.00817 0.36692 0.03789 0.0
O201 O 0.88 0.37725 0.03108 0.0
O202 O 0.98162 0.43482 0.03967 0.0
O203 O 0.87652 0.32094 0.06513 0.0
O204 O 0.90305 0.27868 0.05423 0.0
C205 C 0.87574 0.28462 0.06089 0.0
C206 C 0.88711 0.33659 0.02948 0.0
O207 O 0.85934 0.42994 0.06238 0.0
O208 O 0.95433 0.34006 0.09176 0.0
O209 O 0.86117 0.45675 0.04866 0.0
O210 O 0.84377 0.36253 0.08489 0.0
O211 O 0.96964 0.41245 0.09291 0.0
O212 O 0.85493 0.43514 0.08529 0.0
O213 O 0.99107 0.33417 0.06041 0.0
O214 O 0.97817 0.2979 0.07289 0.0
C215 C 0.01018 0.40796 0.03598 0.0
C216 C 0.97965 0.47862 0.06506 0.0
C217 C 0.00238 0.44135 0.68828 0.0
C218 C 0.98566 0.37591 0.65633 0.0
C219 C 0.8391 0.35013 0.66409 0.0
Mg220 Mg 0.94293 0.41519 0.70573 0.0
Mg221 Mg 0.89019 0.31822 0.70846 0.0
O222 O 0.90189 0.36589 0.7012 0.0
Mg223 Mg 0.92588 0.36114 0.68904 0.0
O224 O 0.95047 0.36184 0.67688 0.0
Mg225 Mg 0.92257 0.41942 0.67295 0.0
Mg226 Mg 0.93589 0.31338 0.66983 0.0
C227 C 0.84211 0.28318 0.69107 0.0
O228 O 0.97501 0.29907 0.69114 0.0
O229 O 0.89122 0.41672 0.71743 0.0
O230 O 0.9669 0.2633 0.67834 0.0
O231 O 0.99009 0.36793 0.7143 0.0
O232 O 0.84953 0.35292 0.71812 0.0
O233 O 0.95792 0.30049 0.71441 0.0
O234 O 0.87813 0.42195 0.68584 0.0
O235 O 0.89254 0.46031 0.69795 0.0
C236 C 0.87191 0.45642 0.69051 0.0
C237 C 0.85868 0.39172 0.72082 0.0
O238 O 0.8628 0.31234 0.68626 0.0
O239 O 0.97026 0.40958 0.66055 0.0
O240 O 0.85084 0.27841 0.69923 0.0
O241 O 0.85811 0.3876 0.66564 0.0
O242 O 0.9763 0.33642 0.65871 0.0
O243 O 0.86018 0.31461 0.66633 0.0
O244 O 0.98707 0.40891 0.69287 0.0
O245 O 0.98539 0.44971 0.68068 0.0
C246 C 0.98977 0.32805 0.71702 0.0
C247 C 0.98308 0.2657 0.68619 0.0
C248 C 0.513 0.08117 0.94916 0.0
C249 C 0.65732 0.17822 0.95489 0.0
C250 C 0.63976 0.22467 0.9284 0.0
Mg251 Mg 0.47128 0.04268 0.93043 0.0
Mg252 Mg 0.55035 0.01567 0.9154 0.0
O253 O 0.5239 0.06077 0.9222 0.0
Mg254 Mg 0.56762 0.09094 0.93036 0.0
O255 O 0.60655 0.12302 0.93909 0.0
Mg256 Mg 0.56057 0.17286 0.94178 0.0
Mg257 Mg 0.67019 0.13835 0.93648 0.0
C258 C 0.62321 0.09309 0.9113 0.0
O259 O 0.62634 0.03574 0.93067 0.0
O260 O 0.42821 0.02631 0.91749 0.0
O261 O 0.69541 0.07529 0.93207 0.0
O262 O 0.50175 0.97349 0.93156 0.0
O263 O 0.48635 0.00866 0.90776 0.0
O264 O 0.56449 0.95798 0.92299 0.0
O265 O 0.51438 0.1494 0.93027 0.0
O266 O 0.44402 0.11337 0.92978 0.0
C267 C 0.4678 0.14941 0.93009 0.0
C268 C 0.44185 0.01621 0.90971 0.0
O269 O 0.61085 0.11514 0.91812 0.0
O270 O 0.61259 0.18668 0.95312 0.0
O271 O 0.60807 0.05394 0.90988 0.0
O272 O 0.60284 0.22391 0.93347 0.0
O273 O 0.68648 0.16061 0.9494 0.0
O274 O 0.66739 0.19153 0.92757 0.0
O275 O 0.52343 0.06195 0.94196 0.0
O276 O 0.52166 0.12209 0.95014 0.0
C277 C 0.5359 0.94784 0.92919 0.0
C278 C 0.67317 0.03892 0.93071 0.0
C279 C 0.50647 0.1605 0.30132 0.0
C280 C 0.65123 0.06117 0.29448 0.0
C281 C 0.63524 0.01884 0.32069 0.0
Mg282 Mg 0.47207 0.19003 0.32121 0.0
Mg283 Mg 0.55849 0.22166 0.33543 0.0
O284 O 0.5285 0.1738 0.3288 0.0
Mg285 Mg 0.56721 0.14824 0.31938 0.0
O286 O 0.60229 0.11977 0.30972 0.0
Mg287 Mg 0.55601 0.06854 0.30761 0.0
Mg288 Mg 0.66516 0.10363 0.31265 0.0
C289 C 0.6355 0.14406 0.33694 0.0
O290 O 0.62441 0.20515 0.31875 0.0
O291 O 0.43547 0.20157 0.33456 0.0
O292 O 0.69309 0.16651 0.31657 0.0
O293 O 0.51107 0.24888 0.32202 0.0
O294 O 0.4954 0.22071 0.34393 0.0
O295 O 0.56617 0.28646 0.32841 0.0
O296 O 0.51426 0.08912 0.31962 0.0
O297 O 0.44253 0.12172 0.3209 0.0
C298 C 0.46782 0.08703 0.32007 0.0
C299 C 0.45078 0.2108 0.34226 0.0
O300 O 0.6164 0.12295 0.33053 0.0
O301 O 0.60586 0.05447 0.29603 0.0
O302 O 0.62242 0.18309 0.33911 0.0
O303 O 0.60003 0.01837 0.3153 0.0
O304 O 0.68062 0.07825 0.30001 0.0
O305 O 0.65904 0.05377 0.32218 0.0
O306 O 0.51831 0.17792 0.30864 0.0
O307 O 0.5138 0.1197 0.29992 0.0
C308 C 0.5342 0.28389 0.32248 0.0
C309 C 0.67116 0.20268 0.31816 0.0
C310 C 0.50099 0.80381 0.06559 0.0
C311 C 0.47096 0.87988 0.09512 0.0
C312 C 0.32696 0.90612 0.08532 0.0
Mg313 Mg 0.45439 0.82002 0.04643 0.0
Mg314 Mg 0.4168 0.91777 0.04103 0.0
O315 O 0.41189 0.87188 0.04897 0.0
Mg316 Mg 0.42614 0.88279 0.06142 0.0
O317 O 0.44101 0.88795 0.07406 0.0
Mg318 Mg 0.41081 0.83235 0.07843 0.0
Mg319 Mg 0.42806 0.93865 0.08047 0.0
C320 C 0.35053 0.96117 0.05535 0.0
O321 O 0.47616 0.9441 0.05931 0.0
O322 O 0.40769 0.81325 0.03426 0.0
O323 O 0.46164 0.9843 0.07141 0.0
O324 O 0.50687 0.86075 0.03726 0.0
O325 O 0.38504 0.88205 0.03054 0.0
O326 O 0.49078 0.9317 0.03815 0.0
O327 O 0.37508 0.82392 0.0648 0.0
O328 O 0.39919 0.78001 0.05408 0.0
C329 C 0.37269 0.78718 0.06076 0.0
C330 C 0.38476 0.8405 0.02938 0.0
O331 O 0.36215 0.9332 0.06133 0.0
O332 O 0.453 0.84601 0.09131 0.0
O333 O 0.3715 0.96254 0.0479 0.0
O334 O 0.34321 0.86746 0.08398 0.0
O335 O 0.46611 0.91885 0.09209 0.0
O336 O 0.35232 0.94017 0.08363 0.0
O337 O 0.49031 0.83351 0.05995 0.0
O338 O 0.47688 0.79969 0.07267 0.0
C339 C 0.51457 0.90038 0.03477 0.0
C340 C 0.481 0.97946 0.06385 0.0
C341 C 0.37698 0.95847 0.68935 0.0
C342 C 0.36707 0.89671 0.71971 0.0
C343 C 0.48936 0.82149 0.71472 0.0
Mg344 Mg 0.42306 0.91868 0.67169 0.0
Mg345 Mg 0.43754 0.81216 0.66858 0.0
O346 O 0.44973 0.86077 0.67563 0.0
Mg347 Mg 0.42563 0.86132 0.68774 0.0
O348 O 0.40235 0.86825 0.69984 0.0
Mg349 Mg 0.44891 0.9141 0.70422 0.0
Mg350 Mg 0.38852 0.82133 0.70701 0.0
C351 C 0.48097 0.76447 0.68515 0.0
O352 O 0.35994 0.81464 0.68503 0.0
O353 O 0.46978 0.90781 0.65923 0.0
O354 O 0.34416 0.78428 0.69819 0.0
O355 O 0.35696 0.88709 0.66468 0.0
O356 O 0.48029 0.83491 0.65784 0.0
O357 O 0.36342 0.81399 0.66451 0.0
O358 O 0.48998 0.90607 0.69125 0.0
O359 O 0.48771 0.94745 0.67913 0.0
C360 C 0.50583 0.9381 0.68661 0.0
C361 C 0.48774 0.8744 0.65528 0.0
O362 O 0.4725 0.7981 0.68999 0.0
O363 O 0.40003 0.91974 0.71598 0.0
O364 O 0.46624 0.76192 0.67722 0.0
O365 O 0.49302 0.86252 0.71281 0.0
O366 O 0.35531 0.85805 0.71725 0.0
O367 O 0.45679 0.79752 0.71121 0.0
O368 O 0.38019 0.92353 0.68471 0.0
O369 O 0.40018 0.96195 0.69657 0.0
C370 C 0.34002 0.84911 0.66286 0.0
C371 C 0.33645 0.78791 0.68999 0.0
C372 C 0.46623 0.64674 0.43118 0.0
C373 C 0.4439 0.52174 0.40892 0.0
C374 C 0.5418 0.44897 0.42522 0.0
Mg375 Mg 0.55698 0.66998 0.44247 0.0
Mg376 Mg 0.66747 0.63732 0.43759 0.0
O377 O 0.60454 0.6203 0.44035 0.0
Mg378 Mg 0.56784 0.59088 0.43099 0.0
O379 O 0.52603 0.56447 0.42207 0.0
Mg380 Mg 0.47431 0.54076 0.42991 0.0
Mg381 Mg 0.55343 0.52672 0.4138 0.0
C382 C 0.67407 0.53897 0.43162 0.0
O383 O 0.61235 0.62145 0.41979 0.0
O384 O 0.60712 0.68722 0.45364 0.0
O385 O 0.61003 0.56995 0.40925 0.0
O386 O 0.59842 0.72124 0.43407 0.0
O387 O 0.68257 0.66422 0.45015 0.0
O388 O 0.66227 0.68762 0.42818 0.0
O389 O 0.5239 0.55739 0.44199 0.0
O390 O 0.51856 0.61685 0.45052 0.0
C391 C 0.51132 0.57581 0.4492 0.0
C392 C 0.65239 0.68219 0.4554 0.0
O393 O 0.62738 0.53622 0.43095 0.0
O394 O 0.432 0.52914 0.4169 0.0
O395 O 0.69577 0.57491 0.43353 0.0
O396 O 0.50766 0.47159 0.42868 0.0
O397 O 0.48815 0.51857 0.40637 0.0
O398 O 0.57139 0.46603 0.41982 0.0
O399 O 0.51271 0.64702 0.43105 0.0
O400 O 0.44273 0.61058 0.43077 0.0
C401 C 0.63475 0.7209 0.42887 0.0
C402 C 0.62543 0.60636 0.41237 0.0
C403 C 0.47215 0.59241 0.82055 0.0
C404 C 0.44607 0.72236 0.84238 0.0
C405 C 0.53929 0.79319 0.82367 0.0
Mg406 Mg 0.56393 0.57572 0.80795 0.0
Mg407 Mg 0.67192 0.60993 0.81436 0.0
O408 O 0.60895 0.62584 0.81108 0.0
Mg409 Mg 0.57034 0.65275 0.82046 0.0
O410 O 0.52788 0.67862 0.82943 0.0
Mg411 Mg 0.47477 0.699 0.82148 0.0
Mg412 Mg 0.55478 0.7218 0.83684 0.0
C413 C 0.67261 0.70817 0.82054 0.0
O414 O 0.61742 0.62579 0.83196 0.0
O415 O 0.61773 0.56778 0.79661 0.0
O416 O 0.61669 0.68359 0.84118 0.0
O417 O 0.60765 0.52386 0.81536 0.0
O418 O 0.69188 0.58885 0.80153 0.0
O419 O 0.66639 0.55559 0.82301 0.0
O420 O 0.52348 0.68352 0.80953 0.0
O421 O 0.52099 0.6269 0.80042 0.0
C422 C 0.51001 0.66644 0.80229 0.0
C423 C 0.66355 0.57478 0.79552 0.0
O424 O 0.62582 0.70972 0.82045 0.0
O425 O 0.43402 0.71261 0.83451 0.0
O426 O 0.69653 0.67268 0.81923 0.0
O427 O 0.50515 0.76829 0.82098 0.0
O428 O 0.49036 0.72846 0.84474 0.0
O429 O 0.56775 0.78149 0.82978 0.0
O430 O 0.51865 0.59331 0.82001 0.0
O431 O 0.44795 0.6279 0.82151 0.0
C432 C 0.64229 0.52166 0.82086 0.0
C433 C 0.63281 0.64598 0.8388 0.0
C434 C 0.50093 0.30035 0.56412 0.0
C435 C 0.48806 0.36104 0.5958 0.0
C436 C 0.33901 0.39246 0.58849 0.0
Mg437 Mg 0.44698 0.33174 0.54662 0.0
Mg438 Mg 0.39637 0.42948 0.54442 0.0
O439 O 0.40448 0.3799 0.55124 0.0
Mg440 Mg 0.42687 0.38269 0.56347 0.0
O441 O 0.44976 0.37951 0.57568 0.0
Mg442 Mg 0.41975 0.3221 0.57922 0.0
Mg443 Mg 0.43866 0.42671 0.58313 0.0
C444 C 0.34842 0.46445 0.56172 0.0
O445 O 0.47593 0.44509 0.56176 0.0
O446 O 0.3981 0.33296 0.53465 0.0
O447 O 0.46772 0.47773 0.57485 0.0
O448 O 0.49639 0.38057 0.53857 0.0
O449 O 0.3578 0.39748 0.53409 0.0
O450 O 0.46547 0.44804 0.53947 0.0
O451 O 0.37779 0.32237 0.56606 0.0
O452 O 0.39443 0.2857 0.55381 0.0
C453 C 0.37227 0.28876 0.56112 0.0
C454 C 0.36698 0.35905 0.5312 0.0
O455 O 0.36452 0.43231 0.56634 0.0
O456 O 0.46732 0.3287 0.59188 0.0
O457 O 0.3596 0.47034 0.55369 0.0
O458 O 0.35461 0.35452 0.58633 0.0
O459 O 0.48246 0.40104 0.59343 0.0
O460 O 0.36423 0.42695 0.58717 0.0
O461 O 0.48839 0.33459 0.55976 0.0
O462 O 0.48202 0.29114 0.57154 0.0
C463 C 0.49678 0.42138 0.53643 0.0
C464 C 0.48315 0.47766 0.56695 0.0
C465 C 0.36495 0.45624 0.1905 0.0
C466 C 0.36545 0.38433 0.22068 0.0
C467 C 0.49854 0.32801 0.21506 0.0
Mg468 Mg 0.41158 0.42242 0.17232 0.0
Mg469 Mg 0.42999 0.31763 0.16853 0.0
O470 O 0.44191 0.36533 0.17588 0.0
Mg471 Mg 0.42067 0.36247 0.18822 0.0
O472 O 0.40004 0.36489 0.20059 0.0
Mg473 Mg 0.44129 0.41467 0.20493 0.0
Mg474 Mg 0.39928 0.31448 0.20747 0.0
C475 C 0.47753 0.26808 0.18462 0.0
O476 O 0.35919 0.31143 0.18584 0.0
O477 O 0.45881 0.41533 0.15967 0.0
O478 O 0.36162 0.27245 0.19842 0.0
O479 O 0.34669 0.38945 0.1651 0.0
O480 O 0.4699 0.34272 0.15764 0.0
O481 O 0.35568 0.31677 0.16457 0.0
O482 O 0.48203 0.41133 0.19173 0.0
O483 O 0.47386 0.45386 0.17986 0.0
C484 C 0.4937 0.44531 0.18724 0.0
C485 C 0.47644 0.38277 0.15538 0.0
O486 O 0.47103 0.30101 0.18975 0.0
O487 O 0.39181 0.41311 0.2168 0.0
O488 O 0.46071 0.26707 0.1768 0.0
O489 O 0.49308 0.36871 0.21312 0.0
O490 O 0.3626 0.34415 0.21832 0.0
O491 O 0.47093 0.29888 0.21176 0.0
O492 O 0.37011 0.42258 0.18556 0.0
O493 O 0.38776 0.45881 0.19775 0.0
C494 C 0.33115 0.35134 0.16302 0.0
C495 C 0.34678 0.27829 0.19057 0.0
H496 H 0.13189 0.29525 0.42121 0.0
H497 H 0.19156 0.35558 0.4202 0.0
H498 H 0.2669 0.3029 0.44266 0.0
H499 H 0.2058 0.24639 0.44407 0.0
H500 H 0.29358 0.38201 0.44104 0.0
H501 H 0.27761 0.25579 0.41982 0.0
H502 H 0.22644 0.2201 0.40875 0.0
H503 H 0.21826 0.34086 0.39433 0.0
H504 H 0.26905 0.37751 0.40545 0.0
H505 H 0.53656 0.38151 0.4374 0.0
H506 H 0.45899 0.34207 0.43754 0.0
H507 H 0.43329 0.38414 0.41101 0.0
H508 H 0.51486 0.41217 0.41028 0.0
H509 H 0.37002 0.33871 0.41322 0.0
H510 H 0.40978 0.45604 0.43405 0.0
H511 H 0.46114 0.48452 0.44595 0.0
H512 H 0.426 0.37215 0.46169 0.0
H513 H 0.3739 0.34334 0.4499 0.0
C514 C 0.16012 0.29821 0.4261 0.0
C515 C 0.16595 0.2659 0.43252 0.0
C516 C 0.19413 0.33244 0.42555 0.0
C517 C 0.23508 0.33251 0.4311 0.0
C518 C 0.2362 0.3036 0.43823 0.0
C519 C 0.20169 0.27072 0.43895 0.0
C520 C 0.282 0.35259 0.42848 0.0
C521 C 0.31032 0.37292 0.43491 0.0
C522 C 0.30387 0.34171 0.42044 0.0
C523 C 0.27671 0.31927 0.41345 0.0
C524 C 0.26509 0.27457 0.41425 0.0
C525 C 0.23593 0.25429 0.40799 0.0
C526 C 0.21888 0.27828 0.40083 0.0
C527 C 0.23139 0.32248 0.39989 0.0
C528 C 0.26033 0.34302 0.40616 0.0
C529 C 0.51596 0.37863 0.4314 0.0
C530 C 0.52946 0.40282 0.42402 0.0
C531 C 0.47033 0.35829 0.43161 0.0
C532 C 0.4373 0.36552 0.42471 0.0
C533 C 0.45625 0.37994 0.41668 0.0
C534 C 0.50383 0.39562 0.41623 0.0
C535 C 0.38343 0.36352 0.42607 0.0
C536 C 0.3538 0.34813 0.4193 0.0
C537 C 0.36061 0.37826 0.43384 0.0
C538 C 0.38813 0.39768 0.44114 0.0
C539 C 0.4126 0.4378 0.4401 0.0
C540 C 0.44187 0.45391 0.44682 0.0
C541 C 0.44678 0.43014 0.45457 0.0
C542 C 0.42196 0.39054 0.45569 0.0
C543 C 0.39221 0.37455 0.44904 0.0
H544 H 0.46979 0.4422 0.45972 0.0
H545 H 0.19608 0.26272 0.396 0.0
H546 H 0.01709 0.89243 0.41212 0.0
H547 H 0.94439 0.84807 0.41438 0.0
H548 H 0.96066 0.86113 0.44218 0.0
H549 H 0.03197 0.90797 0.4399 0.0
H550 H 0.90783 0.77367 0.4298 0.0
H551 H 0.90223 0.91917 0.44261 0.0
H552 H 0.91054 -0.00114 0.44453 0.0
H553 H 0.83775 0.02101 0.42017 0.0
H554 H 0.8327 0.94128 0.41774 0.0
H555 H 0.64255 0.79486 0.43839 0.0
H556 H 0.71898 0.83562 0.43847 0.0
H557 H 0.75671 0.77993 0.4136 0.0
H558 H 0.68083 0.73816 0.41359 0.0
H559 H 0.78087 0.88927 0.42776 0.0
H560 H 0.83133 0.72382 0.41627 0.0
H561 H 0.80939 0.64568 0.41818 0.0
H562 H 0.78014 0.66797 0.44529 0.0
H563 H 0.80109 0.74629 0.44348 0.0
C564 C 0.00726 0.88343 0.41873 0.0
C565 C 0.02819 0.90531 0.42583 0.0
C566 C 0.965 0.85886 0.42001 0.0
C567 C 0.94589 0.85403 0.42842 0.0
C568 C 0.97396 0.86645 0.43562 0.0
C569 C 0.01552 0.89208 0.43432 0.0
C570 C 0.89402 0.84318 0.4294 0.0
C571 C 0.88022 0.79901 0.42939 0.0
C572 C 0.85779 0.87638 0.42912 0.0
C573 C 0.86875 0.92396 0.42984 0.0
C574 C 0.8903 0.94083 0.43744 0.0
C575 C 0.89397 0.98614 0.43866 0.0
C576 C 0.8748 0.015 0.43247 0.0
C577 C 0.85294 -0.00138 0.42493 0.0
C578 C 0.85043 0.95339 0.42356 0.0
C579 C 0.66553 0.79353 0.43266 0.0
C580 C 0.6568 0.76239 0.42611 0.0
C581 C 0.70963 0.81629 0.4328 0.0
C582 C 0.74405 0.80887 0.42624 0.0
C583 C 0.73092 0.78474 0.41884 0.0
C584 C 0.68712 0.76169 0.41875 0.0
C585 C 0.79545 0.82023 0.4277 0.0
C586 C 0.80886 0.86425 0.42817 0.0
C587 C 0.8311 0.78726 0.42875 0.0
C588 C 0.81757 0.74062 0.42974 0.0
C589 C 0.82001 0.71195 0.42262 0.0
C590 C 0.80753 0.66776 0.42367 0.0
C591 C 0.79313 0.65194 0.43184 0.0
C592 C 0.79091 0.68032 0.43896 0.0
C593 C 0.80288 0.7246 0.43791 0.0
H594 H 0.78401 0.61766 0.43266 0.0
H595 H 0.87672 0.05004 0.43352 0.0
H596 H 0.19375 -0.00161 0.83802 0.0
H597 H 0.27066 0.95852 0.83724 0.0
H598 H 0.23054 0.90975 0.81185 0.0
H599 H 0.15243 0.94604 0.81298 0.0
H600 H 0.29594 0.86099 0.81741 0.0
H601 H 0.28495 0.01817 0.81497 0.0
H602 H 0.2665 0.09394 0.81949 0.0
H603 H 0.35854 0.0788 0.84192 0.0
H604 H 0.37779 0.00297 0.83751 0.0
H605 H 0.53178 0.82719 0.80728 0.0
H606 H 0.46745 0.88086 0.80465 0.0
H607 H 0.4676 0.91326 0.83198 0.0
H608 H 0.53411 0.86251 0.83444 0.0
H609 H 0.42163 0.97532 0.82245 0.0
H610 H 0.37913 0.80058 0.8252 0.0
H611 H 0.38931 0.72649 0.819 0.0
H612 H 0.39884 0.78149 0.79328 0.0
H613 H 0.38545 0.85564 0.79928 0.0
C614 C 0.19995 0.97647 0.83259 0.0
C615 C 0.16822 0.97653 0.82541 0.0
C616 C 0.24442 0.95461 0.83203 0.0
C617 C 0.25763 0.93395 0.82421 0.0
C618 C 0.22183 0.92667 0.81784 0.0
C619 C 0.17667 0.94712 0.81855 0.0
C620 C 0.30954 0.92647 0.82205 0.0
C621 C 0.32322 0.88624 0.81843 0.0
C622 C 0.34518 0.95981 0.82311 0.0
C623 C 0.33271 0.00493 0.82592 0.0
C624 C 0.30108 0.03096 0.82089 0.0
C625 C 0.29056 0.07391 0.82342 0.0
C626 C 0.31145 0.09118 0.83097 0.0
C627 C 0.34257 0.06542 0.83605 0.0
C628 C 0.35343 0.02251 0.83353 0.0
C629 C 0.52066 0.84839 0.81257 0.0
C630 C 0.53553 0.8393 0.82115 0.0
C631 C 0.48287 0.87806 0.81111 0.0
C632 C 0.46016 0.89792 0.81826 0.0
C633 C 0.4835 0.89693 0.8264 0.0
C634 C 0.52216 0.8682 0.8278 0.0
C635 C 0.40799 0.90966 0.818 0.0
C636 C 0.39401 0.95059 0.82124 0.0
C637 C 0.37175 0.87758 0.81628 0.0
C638 C 0.38294 0.83366 0.81271 0.0
C639 C 0.3839 0.79686 0.81824 0.0
C640 C 0.38984 0.75487 0.81476 0.0
C641 C 0.39573 0.74938 0.80579 0.0
C642 C 0.39478 0.78583 0.80024 0.0
C643 C 0.38758 0.82779 0.80367 0.0
H644 H 0.40037 0.71683 0.80313 0.0
H645 H 0.30376 0.12462 0.83285 0.0
H646 H 0.02309 0.35948 0.83456 0.0
H647 H 0.95349 0.40505 0.83073 0.0
H648 H 0.9678 0.36704 0.80383 0.0
H649 H 0.03683 0.32042 0.80771 0.0
H650 H 0.91721 0.46684 0.81402 0.0
H651 H 0.9043 0.31097 0.80457 0.0
H652 H 0.90891 0.23025 0.8052 0.0
H653 H 0.84959 0.23144 0.83107 0.0
H654 H 0.84725 0.31217 0.83078 0.0
H655 H 0.65091 0.45919 0.80851 0.0
H656 H 0.72692 0.41942 0.80643 0.0
H657 H 0.7699 0.44998 0.83262 0.0
H658 H 0.69517 0.49226 0.83472 0.0
H659 H 0.78968 0.35354 0.81885 0.0
H660 H 0.81811 0.51387 0.82834 0.0
H661 H 0.79526 0.59144 0.8263 0.0
H662 H 0.8165 0.57936 0.79871 0.0
H663 H 0.8367 0.50088 0.80055 0.0
C664 C 0.01385 0.3634 0.82774 0.0
C665 C 0.03343 0.33508 0.82148 0.0
C666 C 0.9734 0.3888 0.82558 0.0
C667 C 0.9544 0.38723 0.8171 0.0
C668 C 0.98127 0.36729 0.81047 0.0
C669 C 0.02143 0.34153 0.81266 0.0
C670 C 0.90277 0.3979 0.8158 0.0
C671 C 0.88935 0.44197 0.81492 0.0
C672 C 0.86637 0.36532 0.81695 0.0
C673 C 0.87698 0.3178 0.81774 0.0
C674 C 0.89432 0.2942 0.81053 0.0
C675 C 0.89615 0.24835 0.8108 0.0
C676 C 0.87981 0.22576 0.81818 0.0
C677 C 0.86267 0.24895 0.82538 0.0
C678 C 0.86169 0.29474 0.82521 0.0
C679 C 0.67525 0.45558 0.81402 0.0
C680 C 0.66804 0.47989 0.82171 0.0
C681 C 0.71896 0.43339 0.81275 0.0
C682 C 0.7543 0.434 0.81929 0.0
C683 C 0.743 0.45076 0.82751 0.0
C684 C 0.70007 0.47409 0.82873 0.0
C685 C 0.80477 0.42212 0.81735 0.0
C686 C 0.8177 0.37806 0.81771 0.0
C687 C 0.84048 0.45446 0.81564 0.0
C688 C 0.82772 0.50133 0.81456 0.0
C689 C 0.81676 0.52746 0.82182 0.0
C690 C 0.80427 0.57158 0.8207 0.0
C691 C 0.80392 0.59019 0.81237 0.0
C692 C 0.81611 0.56471 0.80514 0.0
C693 C 0.82772 0.52035 0.80621 0.0
H694 H 0.79454 0.62441 0.81151 0.0
H695 H 0.88024 0.19027 0.81831 0.0
H696 H 0.54234 0.48545 0.55246 0.0
H697 H 0.60529 0.54139 0.55002 0.0
H698 H 0.55941 0.60867 0.5733 0.0
H699 H 0.49569 0.55482 0.57551 0.0
H700 H 0.58804 0.66645 0.5622 0.0
H701 H 0.65494 0.52668 0.57269 0.0
H702 H 0.67015 0.44724 0.57129 0.0
H703 H 0.74312 0.46926 0.54692 0.0
H704 H 0.7279 0.54879 0.54814 0.0
H705 H 0.80273 0.78447 0.57339 0.0
H706 H 0.73402 0.73282 0.57409 0.0
H707 H 0.79113 0.66385 0.55182 0.0
H708 H 0.86029 0.71272 0.55144 0.0
H709 H 0.75597 0.60713 0.56156 0.0
H710 H 0.69419 0.74596 0.55105 0.0
H711 H 0.67742 0.82536 0.55175 0.0
H712 H 0.59387 0.80599 0.57509 0.0
H713 H 0.61059 0.72653 0.57458 0.0
C714 C 0.54495 0.51279 0.55692 0.0
C715 C 0.51466 0.51499 0.56429 0.0
C716 C 0.58125 0.54456 0.55557 0.0
C717 C 0.58825 0.57856 0.56165 0.0
C718 C 0.55533 0.58263 0.56857 0.0
C719 C 0.51891 0.55144 0.56985 0.0
C720 C 0.63166 0.60794 0.56137 0.0
C721 C 0.6248 0.65347 0.56209 0.0
C722 C 0.67974 0.59126 0.56108 0.0
C723 C 0.68998 0.5436 0.56048 0.0
C724 C 0.67416 0.51454 0.56703 0.0
C725 C 0.68274 0.46951 0.56626 0.0
C726 C 0.7075 0.45321 0.55902 0.0
C727 C 0.72391 0.48193 0.55253 0.0
C728 C 0.71536 0.52698 0.55326 0.0
C729 C 0.80101 0.75774 0.56877 0.0
C730 C 0.83692 0.75326 0.56231 0.0
C731 C 0.76137 0.72851 0.56909 0.0
C732 C 0.75643 0.69493 0.56285 0.0
C733 C 0.79357 0.68937 0.5567 0.0
C734 C 0.83331 0.71776 0.55648 0.0
C735 C 0.71255 0.66591 0.56245 0.0
C736 C 0.71933 0.62035 0.56161 0.0
C737 C 0.66441 0.68265 0.56254 0.0
C738 C 0.65407 0.73038 0.56282 0.0
C739 C 0.67248 0.75869 0.55635 0.0
C740 C 0.66295 0.80369 0.55672 0.0
C741 C 0.63472 0.82072 0.56347 0.0
C742 C 0.6158 0.79277 0.56987 0.0
C743 C 0.62526 0.74775 0.56954 0.0
H744 H 0.62741 0.85557 0.56374 0.0
H745 H 0.71403 0.41834 0.55843 0.0
H746 H 0.9823 0.06343 0.56956 0.0
H747 H 0.04688 0.11787 0.56741 0.0
H748 H 0.13314 0.02162 0.55393 0.0
H749 H 0.06784 0.96742 0.55576 0.0
H750 H 0.15238 0.0879 0.57406 0.0
H751 H 0.15498 0.06644 0.54146 0.0
H752 H 0.10875 0.06048 0.52771 0.0
H753 H 0.03958 0.18394 0.53285 0.0
H754 H 0.08477 0.19004 0.54673 0.0
H755 H 0.37553 0.20079 0.55836 0.0
H756 H 0.30686 0.14914 0.5586 0.0
H757 H 0.21158 0.25271 0.56707 0.0
H758 H 0.28061 0.30414 0.56721 0.0
H759 H 0.19634 0.18325 0.54898 0.0
H760 H 0.20198 0.20788 0.58079 0.0
H761 H 0.24571 0.212 0.59481 0.0
H762 H 0.29734 0.08028 0.59139 0.0
H763 H 0.25475 0.07586 0.57724 0.0
C764 C 0.0144 0.0543 0.5659 0.0
C765 C 0.02011 0.01123 0.56283 0.0
C766 C 0.05122 0.08539 0.56468 0.0
C767 C 0.09457 0.07387 0.56045 0.0
C768 C 0.09952 0.03147 0.55703 0.0
C769 C 0.06221 0.00052 0.55809 0.0
C770 C 0.13649 0.10445 0.5607 0.0
C771 C 0.16229 0.10847 0.56855 0.0
C772 C 0.149 0.13147 0.55355 0.0
C773 C 0.12263 0.12836 0.54516 0.0
C774 C 0.12949 0.09203 0.5397 0.0
C775 C 0.10356 0.08865 0.53188 0.0
C776 C 0.07106 0.12171 0.52943 0.0
C777 C 0.06458 0.15826 0.53478 0.0
C778 C 0.09032 0.16168 0.54262 0.0
C779 C 0.34018 0.21219 0.56051 0.0
C780 C 0.33349 0.25625 0.5629 0.0
C781 C 0.301 0.18282 0.56056 0.0
C782 C 0.25424 0.1972 0.56282 0.0
C783 C 0.24752 0.24097 0.56536 0.0
C784 C 0.287 0.27015 0.56553 0.0
C785 C 0.21247 0.16645 0.56234 0.0
C786 C 0.18668 0.16245 0.55446 0.0
C787 C 0.20009 0.13913 0.56945 0.0
C788 C 0.22603 0.14188 0.57789 0.0
C789 C 0.22336 0.18011 0.58296 0.0
C790 C 0.24776 0.18243 0.59094 0.0
C791 C 0.27451 0.1465 0.59397 0.0
C792 C 0.2768 0.10816 0.58902 0.0
C793 C 0.25259 0.10575 0.58102 0.0
H794 H 0.29328 0.1483 0.60016 0.0
H795 H 0.0511 0.11911 0.52337 0.0
H796 H 0.78739 0.95477 0.17768 0.0
H797 H 0.7184 0.00609 0.17738 0.0
H798 H 0.79783 0.09522 0.19389 0.0
H799 H 0.86667 0.04504 0.19409 0.0
H800 H 0.70626 0.07721 0.20044 0.0
H801 H 0.77969 0.12361 0.17375 0.0
H802 H 0.81463 0.11571 0.15905 0.0
H803 H 0.67875 0.06447 0.14966 0.0
H804 H 0.64314 0.07153 0.16436 0.0
H805 H 0.55347 0.26917 0.19629 0.0
H806 H 0.61794 0.21389 0.19757 0.0
H807 H 0.53945 0.12949 0.17995 0.0
H808 H 0.47563 0.18454 0.17856 0.0
H809 H 0.6299 0.14383 0.17428 0.0
H810 H 0.55534 0.10324 0.20148 0.0
H811 H 0.52223 0.11738 0.21613 0.0
H812 H 0.66226 0.1628 0.22469 0.0
H813 H 0.69611 0.1496 0.21005 0.0
C814 C 0.79067 0.98586 0.18103 0.0
C815 C 0.83245 0.99555 0.18596 0.0
C816 C 0.75105 0.015 0.18093 0.0
C817 C 0.75264 0.05415 0.18577 0.0
C818 C 0.79542 0.06494 0.19024 0.0
C819 C 0.83493 0.03624 0.19028 0.0
C820 C 0.70943 0.08336 0.18644 0.0
C821 C 0.68971 0.09207 0.19473 0.0
C822 C 0.68757 0.10239 0.179 0.0
C823 C 0.70895 0.09755 0.17018 0.0
C824 C 0.75741 0.11019 0.16858 0.0
C825 C 0.7773 0.10599 0.16024 0.0
C826 C 0.74898 0.08946 0.15344 0.0
C827 C 0.70067 0.07718 0.15495 0.0
C828 C 0.68061 0.08129 0.16328 0.0
C829 C 0.54935 0.2383 0.1929 0.0
C830 C 0.50988 0.23147 0.18722 0.0
C831 C 0.58628 0.20673 0.19361 0.0
C832 C 0.58385 0.16769 0.18876 0.0
C833 C 0.54248 0.15954 0.18366 0.0
C834 C 0.50592 0.19103 0.1829 0.0
C835 C 0.62614 0.13732 0.18826 0.0
C836 C 0.64597 0.1286 0.18 0.0
C837 C 0.64823 0.11869 0.19574 0.0
C838 C 0.6282 0.12578 0.20462 0.0
C839 C 0.57905 0.11651 0.20647 0.0
C840 C 0.56013 0.12434 0.21478 0.0
C841 C 0.59008 0.1411 0.22133 0.0
C842 C 0.63908 0.14987 0.2196 0.0
C843 C 0.65817 0.14217 0.2113 0.0
H844 H 0.57536 0.14722 0.22776 0.0
H845 H 0.76443 0.08628 0.14698 0.0
H846 H 0.0375 0.76196 0.19809 0.0
H847 H 0.10203 0.70718 0.20012 0.0
H848 H 0.04617 0.63384 0.17828 0.0
H849 H 0.98095 0.68664 0.17652 0.0
H850 H 0.08031 0.57885 0.18927 0.0
H851 H 0.14222 0.7151 0.17677 0.0
H852 H 0.15774 0.79485 0.17692 0.0
H853 H 0.24074 0.78105 0.20049 0.0
H854 H 0.22525 0.70126 0.20053 0.0
H855 H 0.29218 0.45788 0.17794 0.0
H856 H 0.2245 0.51033 0.17693 0.0
H857 H 0.28462 0.58327 0.19845 0.0
H858 H 0.35265 0.53298 0.1992 0.0
H859 H 0.24821 0.63852 0.18801 0.0
H860 H 0.18819 0.50281 0.20051 0.0
H861 H 0.17209 0.42316 0.20066 0.0
H862 H 0.08541 0.43583 0.17749 0.0
H863 H 0.1014 0.51552 0.17716 0.0
C864 C 0.03821 0.7335 0.19389 0.0
C865 C 0.00451 0.72928 0.18704 0.0
C866 C 0.07553 0.70242 0.19498 0.0
C867 C 0.08017 0.66698 0.18915 0.0
C868 C 0.04405 0.66097 0.18281 0.0
C869 C 0.00667 0.69151 0.18179 0.0
C870 C 0.12385 0.63771 0.18915 0.0
C871 C 0.117 0.59199 0.18894 0.0
C872 C 0.172 0.65449 0.18883 0.0
C873 C 0.18225 0.70229 0.18869 0.0
C874 C 0.16367 0.72911 0.182 0.0
C875 C 0.17244 0.77431 0.18205 0.0
C876 C 0.20011 0.79301 0.18872 0.0
C877 C 0.21926 0.76652 0.19533 0.0
C878 C 0.21054 0.72131 0.19532 0.0
C879 C 0.29141 0.48562 0.18232 0.0
C880 C 0.32769 0.49069 0.18872 0.0
C881 C 0.25236 0.51538 0.18182 0.0
C882 C 0.24847 0.55033 0.18778 0.0
C883 C 0.28621 0.55664 0.19381 0.0
C884 C 0.32525 0.52748 0.19424 0.0
C885 C 0.20471 0.57957 0.1881 0.0
C886 C 0.21156 0.62531 0.18836 0.0
C887 C 0.15657 0.5628 0.1885 0.0
C888 C 0.14636 0.51503 0.18876 0.0
C889 C 0.16587 0.48856 0.19543 0.0
C890 C 0.15675 0.44342 0.19555 0.0
C891 C 0.12785 0.42443 0.18908 0.0
C892 C 0.10784 0.45058 0.18249 0.0
C893 C 0.11686 0.49573 0.18234 0.0
H894 H 0.12089 0.38948 0.18918 0.0
H895 H 0.2068 0.82801 0.18875 0.0
H896 H 0.51841 0.92011 0.94575 0.0
H897 H 0.44929 0.87122 0.94723 0.0
H898 H 0.47495 0.82249 0.92128 0.0
H899 H 0.54298 0.873 0.91969 0.0
H900 H 0.40119 0.88299 0.92207 0.0
H901 H 0.44891 0.7549 0.93895 0.0
H902 H 0.4856 0.71776 0.95165 0.0
H903 H 0.38421 0.78184 0.96864 0.0
H904 H 0.34748 0.82002 0.95607 0.0
H905 H 0.19648 0.75285 0.91433 0.0
H906 H 0.2693 0.79752 0.91577 0.0
H907 H 0.21969 0.84321 0.9408 0.0
H908 H 0.1462 0.79916 0.93933 0.0
H909 H 0.30161 0.79146 0.94199 0.0
H910 H 0.25162 0.91648 0.92683 0.0
H911 H 0.2111 0.95887 0.91522 0.0
H912 H 0.31485 0.91173 0.89661 0.0
H913 H 0.35503 0.86771 0.90801 0.0
C914 C 0.51164 0.89654 0.94061 0.0
C915 C 0.53281 0.90251 0.93236 0.0
C916 C 0.47167 0.86865 0.94145 0.0
C917 C 0.45545 0.84511 0.93417 0.0
C918 C 0.48612 0.84165 0.92687 0.0
C919 C 0.52559 0.87021 0.92601 0.0
C920 C 0.40257 0.83817 0.93302 0.0
C921 C 0.37961 0.86202 0.9263 0.0
C922 C 0.37396 0.81415 0.93901 0.0
C923 C 0.39571 0.79064 0.94656 0.0
C924 C 0.4347 0.76139 0.9454 0.0
C925 C 0.45547 0.7401 0.95258 0.0
C926 C 0.43735 0.74754 0.96095 0.0
C927 C 0.39828 0.77616 0.96216 0.0
C928 C 0.37744 0.7976 0.955 0.0
C929 C 0.19953 0.77444 0.91989 0.0
C930 C 0.16673 0.77109 0.92687 0.0
C931 C 0.24143 0.79982 0.92074 0.0
C932 C 0.25043 0.82234 0.92854 0.0
C933 C 0.21361 0.82528 0.93481 0.0
C934 C 0.17129 0.80039 0.93389 0.0
C935 C 0.30101 0.83422 0.93075 0.0
C936 C 0.32341 0.81214 0.93774 0.0
C937 C 0.32907 0.8609 0.92517 0.0
C938 C 0.306 0.88823 0.91828 0.0
C939 C 0.26551 0.91469 0.92024 0.0
C940 C 0.24249 0.93894 0.91368 0.0
C941 C 0.25988 0.93738 0.90514 0.0
C942 C 0.30088 0.91223 0.90318 0.0
C943 C 0.32387 0.88767 0.9097 0.0
H944 H 0.24177 0.95586 0.90006 0.0
H945 H 0.45351 0.73104 0.9665 0.0
H946 H 0.67793 0.25438 0.91291 0.0
H947 H 0.75192 0.29893 0.91252 0.0
H948 H 0.73456 0.32564 0.94 0.0
H949 H 0.65757 0.28798 0.93992 0.0
H950 H 0.79131 0.37781 0.93577 0.0
H951 H 0.80628 0.21149 0.92602 0.0
H952 H 0.80343 0.15358 0.91475 0.0
H953 H 0.85707 0.24477 0.89562 0.0
H954 H 0.86062 0.30279 0.90676 0.0
H955 H 0.0266 0.41704 0.9437 0.0
H956 H 0.9632 0.36159 0.94554 0.0
H957 H 0.96704 0.33734 0.91782 0.0
H958 H 0.03363 0.38794 0.91627 0.0
H959 H 0.91808 0.28062 0.92347 0.0
H960 H 0.89977 0.44557 0.93036 0.0
H961 H 0.91692 0.50819 0.94012 0.0
H962 H 0.87782 0.43007 0.96234 0.0
H963 H 0.8592 0.36743 0.95272 0.0
C964 C 0.68853 0.27243 0.91867 0.0
C965 C 0.66298 0.26686 0.92651 0.0
C966 C 0.73196 0.29644 0.91857 0.0
C967 C 0.75172 0.31222 0.92643 0.0
C968 C 0.72158 0.31294 0.93384 0.0
C969 C 0.67681 0.29153 0.93379 0.0
C970 C 0.80473 0.32205 0.92746 0.0
C971 C 0.81877 0.35626 0.93307 0.0
C972 C 0.84172 0.29495 0.9239 0.0
C973 C 0.8332 0.26137 0.91717 0.0
C974 C 0.81681 0.21916 0.91938 0.0
C975 C 0.81553 0.18631 0.91304 0.0
C976 C 0.83067 0.19552 0.90452 0.0
C977 C 0.84579 0.2377 0.90224 0.0
C978 C 0.84741 0.27047 0.90855 0.0
C979 C 0.0164 0.39712 0.93815 0.0
C980 C 0.03208 0.40858 0.92973 0.0
C981 C 0.97901 0.36645 0.93915 0.0
C982 C 0.95683 0.34883 0.93169 0.0
C983 C 0.98168 0.35193 0.92368 0.0
C984 C 0.02051 0.38087 0.92278 0.0
C985 C 0.9044 0.33661 0.93157 0.0
C986 C 0.89033 0.30171 0.92625 0.0
C987 C 0.86774 0.36406 0.93512 0.0
C988 C 0.8787 0.40181 0.94085 0.0
C989 C 0.89485 0.44185 0.93733 0.0
C990 C 0.9048 0.47729 0.94283 0.0
C991 C 0.89899 0.47296 0.95183 0.0
C992 C 0.88252 0.43334 0.95537 0.0
C993 C 0.87198 0.39796 0.9499 0.0
H994 H 0.90699 0.50036 0.95607 0.0
H995 H 0.83072 0.17019 0.89963 0.0
H996 H 0.47344 0.27304 0.30906 0.0
H997 H 0.41143 0.32303 0.30629 0.0
H998 H 0.50175 0.42864 0.31613 0.0
H999 H 0.55798 0.37328 0.32196 0.0
H1000 H 0.43323 0.43358 0.32441 0.0
H1001 H 0.42432 0.40592 0.2927 0.0
H1002 H 0.42396 0.35473 0.28025 0.0
H1003 H 0.29648 0.29113 0.2904 0.0
H1004 H 0.29645 0.34094 0.30295 0.0
H1005 H 0.21725 0.55205 0.32841 0.0
H1006 H 0.29513 0.52276 0.3247 0.0
H1007 H 0.22813 0.39963 0.3176 0.0
H1008 H 0.1475 0.43127 0.32036 0.0
H1009 H 0.28681 0.42079 0.30582 0.0
H1010 H 0.30186 0.42195 0.33713 0.0
H1011 H 0.30195 0.45314 0.35194 0.0
H1012 H 0.41399 0.54411 0.3445 0.0
H1013 H 0.41353 0.51447 0.32957 0.0
C1014 C 0.48079 0.30703 0.31067 0.0
C1015 C 0.51822 0.31874 0.31649 0.0
C1016 C 0.44503 0.33687 0.30862 0.0
C1017 C 0.45004 0.38098 0.311 0.0
C1018 C 0.49521 0.39448 0.31461 0.0
C1019 C 0.52811 0.36313 0.31782 0.0
C1020 C 0.40538 0.4083 0.31218 0.0
C1021 C 0.40214 0.4316 0.32008 0.0
C1022 C 0.36272 0.4044 0.3069 0.0
C1023 C 0.36021 0.37778 0.29877 0.0
C1024 C 0.39586 0.38144 0.29223 0.0
C1025 C 0.39588 0.35237 0.28518 0.0
C1026 C 0.36014 0.31985 0.28453 0.0
C1027 C 0.32401 0.31646 0.29088 0.0
C1028 C 0.32388 0.34523 0.29794 0.0
C1029 C 0.21849 0.51834 0.32623 0.0
C1030 C 0.17578 0.49404 0.32457 0.0
C1031 C 0.26365 0.50153 0.32414 0.0
C1032 C 0.26777 0.45888 0.32094 0.0
C1033 C 0.22565 0.43294 0.31999 0.0
C1034 C 0.17975 0.45065 0.32168 0.0
C1035 C 0.31571 0.44258 0.31809 0.0
C1036 C 0.31912 0.4229 0.30987 0.0
C1037 C 0.358 0.44757 0.32323 0.0
C1038 C 0.35729 0.46621 0.33219 0.0
C1039 C 0.3261 0.44896 0.33862 0.0
C1040 C 0.32622 0.46637 0.34704 0.0
C1041 C 0.3579 0.5006 0.34916 0.0
C1042 C 0.3894 0.51763 0.34285 0.0
C1043 C 0.38909 0.50066 0.3344 0.0
H1044 H 0.35807 0.5139 0.35569 0.0
H1045 H 0.3605 0.29719 0.27911 0.0
H1046 H 0.69534 -0.00091 0.33416 0.0
H1047 H 0.77204 0.96177 0.33148 0.0
H1048 H 0.71606 0.91083 0.30729 0.0
H1049 H 0.63892 0.94841 0.30988 0.0
H1050 H 0.79151 0.87207 0.3268 0.0
H1051 H 0.77642 0.9347 0.29679 0.0
H1052 H 0.76129 0.99098 0.28551 0.0
H1053 H 0.8408 0.08563 0.30054 0.0
H1054 H 0.85567 0.03007 0.31196 0.0
H1055 H 0.01788 0.81702 0.30716 0.0
H1056 H 0.94943 0.86604 0.3048 0.0
H1057 H 0.96804 0.91813 0.33066 0.0
H1058 H 0.03399 0.86615 0.33332 0.0
H1059 H 0.90723 0.95128 0.30755 0.0
H1060 H 0.90265 0.898 0.33924 0.0
H1061 H 0.89803 0.84883 0.35195 0.0
H1062 H 0.83971 0.74743 0.33561 0.0
H1063 H 0.85035 0.79368 0.32279 0.0
C1064 C 0.69849 0.9783 0.32848 0.0
C1065 C 0.66229 0.97823 0.32205 0.0
C1066 C 0.74276 0.95828 0.3268 0.0
C1067 C 0.75047 0.93707 0.31883 0.0
C1068 C 0.71142 0.92981 0.31318 0.0
C1069 C 0.6669 0.94995 0.31485 0.0
C1070 C 0.79944 0.92117 0.31692 0.0
C1071 C 0.81683 0.88886 0.32247 0.0
C1072 C 0.83202 0.94389 0.31139 0.0
C1073 C 0.81619 0.97859 0.30529 0.0
C1074 C 0.78925 0.96788 0.29781 0.0
C1075 C 0.78117 -0.00047 0.29135 0.0
C1076 C 0.80022 0.04179 0.29231 0.0
C1077 C 0.82606 0.0529 0.29982 0.0
C1078 C 0.83416 0.02143 0.30629 0.0
C1079 C 0.00921 0.84071 0.31217 0.0
C1080 C 0.02815 0.83582 0.32062 0.0
C1081 C 0.96972 0.86843 0.31084 0.0
C1082 C 0.95167 0.8928 0.31784 0.0
C1083 C 0.97974 0.89696 0.32542 0.0
C1084 C 0.01841 0.8682 0.32684 0.0
C1085 C 0.89971 0.90402 0.3179 0.0
C1086 C 0.88195 0.93439 0.31184 0.0
C1087 C 0.86642 0.88061 0.3232 0.0
C1088 C 0.87991 0.8486 0.32997 0.0
C1089 C 0.89307 0.86393 0.33827 0.0
C1090 C 0.88898 0.83655 0.34554 0.0
C1091 C 0.86965 0.7945 0.34464 0.0
C1092 C 0.85681 0.77898 0.33638 0.0
C1093 C 0.86313 0.80539 0.32905 0.0
H1094 H 0.86339 0.77472 0.35038 0.0
H1095 H 0.7957 0.06583 0.28718 0.0
H1096 H 0.55835 0.97313 0.05256 0.0
H1097 H 0.62447 0.02669 0.05086 0.0
H1098 H 0.54676 0.11776 0.06717 0.0
H1099 H 0.48065 0.06503 0.06878 0.0
H1100 H 0.5965 0.16064 0.05452 0.0
H1101 H 0.6286 0.04687 0.07595 0.0
H1102 H 0.637 0.96966 0.08057 0.0
H1103 H 0.75242 0.95157 0.06208 0.0
H1104 H 0.74414 0.02855 0.05725 0.0
H1105 H 0.79005 0.29302 0.07009 0.0
H1106 H 0.72138 0.24138 0.07015 0.0
H1107 H 0.80597 0.14952 0.05517 0.0
H1108 H 0.87456 0.2001 0.05524 0.0
H1109 H 0.75301 0.1064 0.06659 0.0
H1110 H 0.72345 0.21951 0.04533 0.0
H1111 H 0.7134 0.29538 0.04 0.0
H1112 H 0.59338 0.31398 0.05751 0.0
H1113 H 0.6031 0.23832 0.06302 0.0
C1114 C 0.55472 0.00507 0.05556 0.0
C1115 C 0.51471 0.01454 0.06093 0.0
C1116 C 0.5927 0.03553 0.05464 0.0
C1117 C 0.59111 0.07581 0.05908 0.0
C1118 C 0.54906 0.08679 0.06375 0.0
C1119 C 0.51132 0.05647 0.06469 0.0
C1120 C 0.63469 0.10468 0.05968 0.0
C1121 C 0.63064 0.14889 0.05721 0.0
C1122 C 0.67946 0.08923 0.0631 0.0
C1123 C 0.68547 0.04335 0.06619 0.0
C1124 C 0.65566 0.02638 0.07285 0.0
C1125 C 0.66039 0.98267 0.0755 0.0
C1126 C 0.69516 0.95571 0.07161 0.0
C1127 C 0.72545 0.97249 0.06508 0.0
C1128 C 0.72078 0.01616 0.06238 0.0
C1129 C 0.79438 0.26138 0.067 0.0
C1130 C 0.8377 0.25095 0.06259 0.0
C1131 C 0.75491 0.23207 0.06695 0.0
C1132 C 0.75806 0.1919 0.06248 0.0
C1133 C 0.80239 0.18033 0.0586 0.0
C1134 C 0.84166 0.20945 0.05865 0.0
C1135 C 0.71491 0.16262 0.06146 0.0
C1136 C 0.719 0.11826 0.06387 0.0
C1137 C 0.67025 0.17791 0.05795 0.0
C1138 C 0.66437 0.22343 0.05466 0.0
C1139 C 0.69518 0.2399 0.04809 0.0
C1140 C 0.68949 0.28284 0.04503 0.0
C1141 C 0.65288 0.30954 0.04844 0.0
C1142 C 0.62178 0.29329 0.05489 0.0
C1143 C 0.62734 0.25037 0.05798 0.0
H1144 H 0.64852 0.34277 0.04606 0.0
H1145 H 0.69866 0.92183 0.07364 0.0
H1146 H 0.05556 0.47564 0.05335 0.0
H1147 H 0.12082 0.53024 0.05183 0.0
H1148 H 0.04472 0.6165 0.06937 0.0
H1149 H 0.97941 0.56291 0.07076 0.0
H1150 H 0.09048 0.6634 0.05722 0.0
H1151 H 0.13268 0.54485 0.07699 0.0
H1152 H 0.14492 0.46696 0.08082 0.0
H1153 H 0.25276 0.45544 0.06072 0.0
H1154 H 0.24082 0.53322 0.05672 0.0
H1155 H 0.28975 0.79588 0.07085 0.0
H1156 H 0.22101 0.74429 0.07162 0.0
H1157 H 0.29983 0.65305 0.05551 0.0
H1158 H 0.36851 0.70308 0.055 0.0
H1159 H 0.25189 0.60869 0.06686 0.0
H1160 H 0.21113 0.72749 0.04719 0.0
H1161 H 0.19774 0.80487 0.0431 0.0
H1162 H 0.08668 0.81575 0.06265 0.0
H1163 H 0.09976 0.7385 0.06691 0.0
C1164 C 0.05208 0.50679 0.05667 0.0
C1165 C 0.0127 0.51461 0.06229 0.0
C1166 C 0.08964 0.53782 0.05587 0.0
C1167 C 0.08835 0.57704 0.06069 0.0
C1168 C 0.0469 0.5864 0.06566 0.0
C1169 C 0.00956 0.55557 0.06646 0.0
C1170 C 0.13147 0.60665 0.06124 0.0
C1171 C 0.12571 0.6515 0.05938 0.0
C1172 C 0.17762 0.5912 0.06399 0.0
C1173 C 0.1856 0.54472 0.06651 0.0
C1174 C 0.15889 0.52565 0.07337 0.0
C1175 C 0.16577 0.48154 0.07557 0.0
C1176 C 0.19953 0.45625 0.071 0.0
C1177 C 0.22661 0.47507 0.06425 0.0
C1178 C 0.21986 0.51918 0.06202 0.0
C1179 C 0.29278 0.76439 0.06766 0.0
C1180 C 0.33452 0.75396 0.06278 0.0
C1181 C 0.25323 0.73509 0.068 0.0
C1182 C 0.25457 0.69509 0.06342 0.0
C1183 C 0.29747 0.68367 0.05905 0.0
C1184 C 0.33685 0.71257 0.05875 0.0
C1185 C 0.21115 0.66564 0.06279 0.0
C1186 C 0.21678 0.62073 0.06467 0.0
C1187 C 0.16493 0.68106 0.06003 0.0
C1188 C 0.15679 0.72738 0.05743 0.0
C1189 C 0.18406 0.74647 0.05065 0.0
C1190 C 0.17649 0.79028 0.04829 0.0
C1191 C 0.14148 0.81525 0.05263 0.0
C1192 C 0.11384 0.79639 0.0593 0.0
C1193 C 0.12127 0.75259 0.06169 0.0
H1194 H 0.13571 0.84917 0.0508 0.0
H1195 H 0.20475 0.42209 0.07271 0.0
H1196 H 0.47833 0.67722 0.68143 0.0
H1197 H 0.54468 0.62435 0.68329 0.0
H1198 H 0.6296 0.72214 0.69669 0.0
H1199 H 0.56257 0.77486 0.6951 0.0
H1200 H 0.6753 0.68154 0.68129 0.0
H1201 H 0.60087 0.64451 0.70828 0.0
H1202 H 0.53235 0.62551 0.71795 0.0
H1203 H 0.50867 0.50647 0.70369 0.0
H1204 H 0.57667 0.52511 0.69383 0.0
H1205 H 0.87356 0.5435 0.6942 0.0
H1206 H 0.80566 0.5952 0.69341 0.0
H1207 H 0.71592 0.49566 0.6816 0.0
H1208 H 0.78438 0.44375 0.68224 0.0
H1209 H 0.67264 0.53771 0.69653 0.0
H1210 H 0.74831 0.57677 0.66942 0.0
H1211 H 0.81644 0.59797 0.65983 0.0
H1212 H 0.83828 0.71543 0.67468 0.0
H1213 H 0.77062 0.69464 0.68444 0.0
C1214 C 0.51055 0.68701 0.68502 0.0
C1215 C 0.51524 0.73011 0.68814 0.0
C1216 C 0.54851 0.65686 0.68603 0.0
C1217 C 0.59228 0.66948 0.69004 0.0
C1218 C 0.5962 0.71183 0.69355 0.0
C1219 C 0.55769 0.74174 0.69272 0.0
C1220 C 0.63484 0.63934 0.68993 0.0
C1221 C 0.67512 0.6504 0.68474 0.0
C1222 C 0.63398 0.59832 0.69426 0.0
C1223 C 0.59362 0.58642 0.70026 0.0
C1224 C 0.58083 0.61443 0.70715 0.0
C1225 C 0.54212 0.60371 0.71268 0.0
C1226 C 0.51608 0.56486 0.71142 0.0
C1227 C 0.52885 0.53658 0.70465 0.0
C1228 C 0.56754 0.54718 0.6991 0.0
C1229 C 0.83974 0.53292 0.69123 0.0
C1230 C 0.83443 0.4896 0.68823 0.0
C1231 C 0.80086 0.56246 0.69082 0.0
C1232 C 0.75551 0.54926 0.68751 0.0
C1233 C 0.75051 0.5065 0.68422 0.0
C1234 C 0.78982 0.47705 0.68449 0.0
C1235 C 0.71318 0.57981 0.68785 0.0
C1236 C 0.67289 0.56884 0.69309 0.0
C1237 C 0.71415 0.62113 0.6836 0.0
C1238 C 0.75469 0.6339 0.67772 0.0
C1239 C 0.76789 0.60694 0.67069 0.0
C1240 C 0.80636 0.61893 0.66521 0.0
C1241 C 0.83175 0.65797 0.66666 0.0
C1242 C 0.8186 0.68517 0.67358 0.0
C1243 C 0.78015 0.67333 0.67908 0.0
H1244 H 0.86155 0.66718 0.66242 0.0
H1245 H 0.48607 0.55663 0.71569 0.0
H1246 H 0.98144 0.1789 0.682 0.0
H1247 H 0.04784 0.12601 0.6837 0.0
H1248 H 0.13178 0.22232 0.69771 0.0
H1249 H 0.06472 0.27511 0.69624 0.0
H1250 H 0.17888 0.18471 0.68242 0.0
H1251 H 0.10176 0.14084 0.70879 0.0
H1252 H 0.03308 0.11848 0.71814 0.0
H1253 H 0.01244 0.00275 0.70271 0.0
H1254 H 0.08072 0.0247 0.69319 0.0
H1255 H 0.37786 0.04466 0.69396 0.0
H1256 H 0.3095 0.09596 0.69382 0.0
H1257 H 0.21989 -0.00099 0.68116 0.0
H1258 H 0.28866 0.94743 0.6812 0.0
H1259 H 0.17588 0.03749 0.69631 0.0
H1260 H 0.25263 0.0836 0.66969 0.0
H1261 H 0.32131 0.1073 0.66046 0.0
H1262 H 0.34266 0.22032 0.67664 0.0
H1263 H 0.27442 0.197 0.68603 0.0
C1264 C 0.01347 0.18839 0.68566 0.0
C1265 C 0.01784 0.23117 0.68899 0.0
C1266 C 0.05146 0.15817 0.68661 0.0
C1267 C 0.09498 0.17031 0.69076 0.0
C1268 C 0.09857 0.2123 0.69446 0.0
C1269 C 0.06006 0.24229 0.69369 0.0
C1270 C 0.13781 0.14037 0.69053 0.0
C1271 C 0.17856 0.15281 0.68558 0.0
C1272 C 0.1369 0.09833 0.69447 0.0
C1273 C 0.09607 0.08467 0.70021 0.0
C1274 C 0.0823 0.11082 0.70734 0.0
C1275 C 0.04352 0.09817 0.71268 0.0
C1276 C 0.0183 0.05929 0.711 0.0
C1277 C 0.03199 0.03288 0.704 0.0
C1278 C 0.0708 0.04538 0.69863 0.0
C1279 C 0.34394 0.03453 0.69096 0.0
C1280 C 0.33886 0.99197 0.68755 0.0
C1281 C 0.30477 0.06387 0.69093 0.0
C1282 C 0.25934 0.05131 0.68755 0.0
C1283 C 0.2545 0.00937 0.68386 0.0
C1284 C 0.29403 0.98011 0.68377 0.0
C1285 C 0.21688 0.08172 0.68813 0.0
C1286 C 0.17621 0.06938 0.69316 0.0
C1287 C 0.21787 0.12401 0.68428 0.0
C1288 C 0.25872 0.13831 0.67862 0.0
C1289 C 0.27221 0.11332 0.67132 0.0
C1290 C 0.311 0.12674 0.66605 0.0
C1291 C 0.3364 0.16525 0.66797 0.0
C1292 C 0.32297 0.19049 0.67516 0.0
C1293 C 0.28419 0.17722 0.68046 0.0
H1294 H 0.36644 0.17556 0.66389 0.0
H1295 H 0.98822 0.04958 0.71514 0.0
H1296 H 0.26417 0.02712 0.42431 0.0
H1297 H 0.31415 0.96054 0.42398 0.0
H1298 H 0.19507 0.88605 0.43481 0.0
H1299 H 0.14419 0.95227 0.43488 0.0
H1300 H 0.2974 0.88424 0.4438 0.0
H1301 H 0.21094 0.86086 0.41672 0.0
H1302 H 0.1815 0.88253 0.40216 0.0
H1303 H 0.32884 0.90097 0.39353 0.0
H1304 H 0.35914 0.88009 0.40811 0.0
H1305 H 0.37529 0.6603 0.43788 0.0
H1306 H 0.32873 0.7289 0.438 0.0
H1307 H 0.4483 0.79603 0.42557 0.0
H1308 H 0.49584 0.72789 0.42571 0.0
H1309 H 0.3485 0.80361 0.41732 0.0
H1310 H 0.43683 0.82679 0.44346 0.0
H1311 H 0.4707 0.81108 0.45801 0.0
H1312 H 0.32625 0.79886 0.46842 0.0
H1313 H 0.29145 0.8137 0.45388 0.0
C1314 C 0.24841 0.9964 0.42649 0.0
C1315 C 0.20032 0.99485 0.42963 0.0
C1316 C 0.27698 0.95848 0.42631 0.0
C1317 C 0.25833 0.91855 0.42942 0.0
C1318 C 0.21006 0.91665 0.4324 0.0
C1319 C 0.181 0.95438 0.43238 0.0
C1320 C 0.29009 0.87933 0.42988 0.0
C1321 C 0.30798 0.86608 0.43804 0.0
C1322 C 0.30538 0.857 0.42231 0.0
C1323 C 0.28727 0.86948 0.41354 0.0
C1324 C 0.23705 0.87003 0.41175 0.0
C1325 C 0.22021 0.88205 0.40349 0.0
C1326 C 0.25327 0.89327 0.39693 0.0
C1327 C 0.30327 0.89236 0.39862 0.0
C1328 C 0.32029 0.88041 0.40689 0.0
C1329 C 0.39187 0.68978 0.43526 0.0
C1330 C 0.43919 0.68869 0.43177 0.0
C1331 C 0.36529 0.72892 0.43535 0.0
C1332 C 0.38509 0.76745 0.43178 0.0
C1333 C 0.43244 0.76662 0.42836 0.0
C1334 C 0.45955 0.72773 0.42847 0.0
C1335 C 0.35517 0.80789 0.43127 0.0
C1336 C 0.33779 0.82155 0.4231 0.0
C1337 C 0.34087 0.83098 0.43883 0.0
C1338 C 0.36152 0.82058 0.44753 0.0
C1339 C 0.41225 0.81999 0.44881 0.0
C1340 C 0.43164 0.81146 0.45707 0.0
C1341 C 0.40065 0.80378 0.46413 0.0
C1342 C 0.35021 0.80466 0.46294 0.0
C1343 C 0.33063 0.81311 0.45469 0.0
H1344 H 0.41572 0.79731 0.47052 0.0
H1345 H 0.24017 0.90255 0.39053 0.0
H1346 H 0.87313 0.16182 0.43329 0.0
H1347 H 0.82702 0.2299 0.43361 0.0
H1348 H 0.96001 0.30424 0.43111 0.0
H1349 H 0.00695 0.23574 0.4309 0.0
H1350 H 0.89438 0.34354 0.4424 0.0
H1351 H 0.89436 0.28745 0.41354 0.0
H1352 H 0.88539 0.23155 0.40209 0.0
H1353 H 0.73408 0.21671 0.40846 0.0
H1354 H 0.74232 0.272 0.42007 0.0
H1355 H 0.77181 0.53625 0.42868 0.0
H1356 H 0.82456 0.4721 0.4285 0.0
H1357 H 0.69971 0.38793 0.43201 0.0
H1358 H 0.6463 0.45232 0.43225 0.0
H1359 H 0.76587 0.35644 0.41975 0.0
H1360 H 0.76949 0.41381 0.44911 0.0
H1361 H 0.78115 0.47219 0.45999 0.0
H1362 H 0.92966 0.48803 0.45185 0.0
H1363 H 0.9187 0.43016 0.44082 0.0
C1364 C 0.89281 0.19257 0.43287 0.0
C1365 C 0.94374 0.19328 0.43193 0.0
C1366 C 0.86631 0.23151 0.43306 0.0
C1367 C 0.88996 0.2721 0.43221 0.0
C1368 C 0.94103 0.27322 0.43173 0.0
C1369 C 0.96776 0.23407 0.43159 0.0
C1370 C 0.86065 0.31276 0.43131 0.0
C1371 C 0.86677 0.34668 0.43738 0.0
C1372 C 0.82441 0.3167 0.42478 0.0
C1373 C 0.81907 0.28367 0.41774 0.0
C1374 C 0.85924 0.27205 0.41255 0.0
C1375 C 0.85429 0.24047 0.40602 0.0
C1376 C 0.80922 0.22053 0.40456 0.0
C1377 C 0.76899 0.23216 0.40961 0.0
C1378 C 0.77377 0.26365 0.41616 0.0
C1379 C 0.75536 0.50413 0.42939 0.0
C1380 C 0.70476 0.49944 0.43056 0.0
C1381 C 0.78568 0.46749 0.42929 0.0
C1382 C 0.76617 0.42535 0.4304 0.0
C1383 C 0.71549 0.42026 0.43118 0.0
C1384 C 0.68499 0.45704 0.43128 0.0
C1385 C 0.79886 0.38676 0.43094 0.0
C1386 C 0.79352 0.35331 0.42477 0.0
C1387 C 0.83619 0.38364 0.43731 0.0
C1388 C 0.84314 0.41784 0.44408 0.0
C1389 C 0.80456 0.4299 0.4496 0.0
C1390 C 0.81105 0.4629 0.4558 0.0
C1391 C 0.85608 0.48387 0.4566 0.0
C1392 C 0.89478 0.47178 0.45122 0.0
C1393 C 0.88846 0.43884 0.445 0.0
H1394 H 0.86101 0.50944 0.4614 0.0
H1395 H 0.80546 0.19615 0.39949 0.0
H1396 H 0.27484 0.20743 0.81471 0.0
H1397 H 0.32601 0.27235 0.81451 0.0
H1398 H 0.20337 0.35194 0.82199 0.0
H1399 H 0.15092 0.28678 0.8219 0.0
H1400 H 0.25801 0.39085 0.80924 0.0
H1401 H 0.28937 0.32046 0.83696 0.0
H1402 H 0.30959 0.2557 0.84592 0.0
H1403 H 0.44762 0.24481 0.833 0.0
H1404 H 0.42785 0.30911 0.82384 0.0
H1405 H 0.37606 0.57892 0.82394 0.0
H1406 H 0.33048 0.51064 0.82327 0.0
H1407 H 0.46043 0.44151 0.81564 0.0
H1408 H 0.50704 0.51024 0.81643 0.0
H1409 H 0.40623 0.39497 0.82778 0.0
H1410 H 0.37809 0.46477 0.80043 0.0
H1411 H 0.35825 0.5266 0.79066 0.0
H1412 H 0.21607 0.53605 0.80211 0.0
H1413 H 0.23531 0.47462 0.81204 0.0
C1414 C 0.25842 0.23862 0.81634 0.0
C1415 C 0.20862 0.24168 0.81846 0.0
C1416 C 0.28796 0.27577 0.81623 0.0
C1417 C 0.2688 0.31686 0.8184 0.0
C1418 C 0.21897 0.32042 0.82035 0.0
C1419 C 0.18909 0.28313 0.82037 0.0
C1420 C 0.30113 0.35588 0.81869 0.0
C1421 C 0.29001 0.39202 0.81338 0.0
C1422 C 0.34394 0.35665 0.82386 0.0
C1423 C 0.35703 0.3195 0.82969 0.0
C1424 C 0.32404 0.30426 0.83603 0.0
C1425 C 0.33538 0.26759 0.84113 0.0
C1426 C 0.37985 0.24614 0.84003 0.0
C1427 C 0.41319 0.26148 0.83385 0.0
C1428 C 0.40197 0.29808 0.82871 0.0
C1429 C 0.39519 0.54934 0.8221 0.0
C1430 C 0.44523 0.55024 0.82015 0.0
C1431 C 0.36895 0.51025 0.82172 0.0
C1432 C 0.39183 0.47109 0.81928 0.0
C1433 C 0.44202 0.47143 0.81751 0.0
C1434 C 0.46854 0.51073 0.81793 0.0
C1435 C 0.36249 0.43035 0.81846 0.0
C1436 C 0.37426 0.39381 0.82363 0.0
C1437 C 0.32046 0.42897 0.81311 0.0
C1438 C 0.30828 0.4653 0.80702 0.0
C1439 C 0.34268 0.48018 0.8009 0.0
C1440 C 0.33153 0.51514 0.79533 0.0
C1441 C 0.28596 0.5353 0.79578 0.0
C1442 C 0.25136 0.52041 0.80178 0.0
C1443 C 0.26234 0.48547 0.80737 0.0
H1444 H 0.27742 0.56241 0.79147 0.0
H1445 H 0.38847 0.21765 0.84397 0.0
H1446 H 0.65196 0.78907 0.81392 0.0
H1447 H 0.7062 0.85327 0.81378 0.0
H1448 H 0.81047 0.78281 0.82949 0.0
H1449 H 0.75743 0.71806 0.82936 0.0
H1450 H 0.7845 0.87921 0.83413 0.0
H1451 H 0.84302 0.78113 0.81182 0.0
H1452 H 0.83396 0.73342 0.79899 0.0
H1453 H 0.78308 0.84286 0.78385 0.0
H1454 H 0.79092 0.89112 0.79666 0.0
H1455 H -0.00055 0.0074 0.82767 0.0
H1456 H 0.94984 0.94031 0.82686 0.0
H1457 H 0.84251 0.00925 0.81156 0.0
H1458 H 0.89076 0.07665 0.81264 0.0
H1459 H 0.87174 0.91245 0.80652 0.0
H1460 H 0.80854 0.0091 0.82903 0.0
H1461 H 0.81838 0.05723 0.84179 0.0
H1462 H 0.87848 0.95002 0.85647 0.0
H1463 H 0.86993 0.90147 0.84371 0.0
C1464 C 0.68609 0.78765 0.81746 0.0
C1465 C 0.70079 0.74879 0.82163 0.0
C1466 C 0.71702 0.8241 0.81733 0.0
C1467 C 0.7623 0.82238 0.82157 0.0
C1468 C 0.77568 0.78451 0.82617 0.0
C1469 C 0.74545 0.74771 0.82609 0.0
C1470 C 0.79676 0.85934 0.82085 0.0
C1471 C 0.80393 0.88625 0.82813 0.0
C1472 C 0.82157 0.86851 0.81298 0.0
C1473 C 0.81684 0.83963 0.80525 0.0
C1474 C 0.82926 0.79494 0.80579 0.0
C1475 C 0.82449 0.7678 0.79851 0.0
C1476 C 0.80777 0.78506 0.79061 0.0
C1477 C 0.7959 0.82952 0.78998 0.0
C1478 C 0.8005 0.85678 0.79725 0.0
C1479 C 0.96558 0.00795 0.82405 0.0
C1480 C 0.9484 0.04714 0.82034 0.0
C1481 C 0.93747 0.96974 0.82356 0.0
C1482 C 0.89265 0.97012 0.81916 0.0
C1483 C 0.87709 0.00847 0.81496 0.0
C1484 C 0.90443 0.0469 0.81565 0.0
C1485 C 0.85937 0.93223 0.8198 0.0
C1486 C 0.85236 0.90527 0.81252 0.0
C1487 C 0.83461 0.92294 0.82766 0.0
C1488 C 0.8392 0.95182 0.83538 0.0
C1489 C 0.82437 0.99592 0.83495 0.0
C1490 C 0.82962 0.02325 0.84218 0.0
C1491 C 0.84918 0.00673 0.84993 0.0
C1492 C 0.86343 0.9628 0.85046 0.0
C1493 C 0.8584 0.93536 0.84323 0.0
H1494 H 0.85316 0.02792 0.85553 0.0
H1495 H 0.80416 0.76403 0.78498 0.0
H1496 H 0.59678 0.30843 0.55976 0.0
H1497 H 0.65399 0.24745 0.55787 0.0
H1498 H 0.53415 0.1557 0.55854 0.0
H1499 H 0.47747 0.21649 0.5607 0.0
H1500 H 0.59769 0.13336 0.57014 0.0
H1501 H 0.60635 0.16908 0.54007 0.0
H1502 H 0.61605 0.21544 0.52698 0.0
H1503 H 0.76156 0.24847 0.53487 0.0
H1504 H 0.75252 0.20276 0.54806 0.0
H1505 H 0.75621 0.94802 0.56282 0.0
H1506 H 0.69192 0.00377 0.56322 0.0
H1507 H 0.80118 0.10572 0.56261 0.0
H1508 H 0.865 0.04995 0.56182 0.0
H1509 H 0.73818 0.11849 0.55015 0.0
H1510 H 0.7243 0.08318 0.58094 0.0
H1511 H 0.71127 0.03456 0.5936 0.0
H1512 H 0.57148 0.997 0.58352 0.0
H1513 H 0.58385 0.04514 0.57075 0.0
C1514 C 0.58272 0.27536 0.55916 0.0
C1515 C 0.53299 0.26692 0.56034 0.0
C1516 C 0.61534 0.24047 0.5581 0.0
C1517 C 0.59843 0.19682 0.55811 0.0
C1518 C 0.54814 0.18894 0.55859 0.0
C1519 C 0.51577 0.22366 0.55974 0.0
C1520 C 0.63319 0.15953 0.55872 0.0
C1521 C 0.62796 0.12971 0.56567 0.0
C1522 C 0.6731 0.15496 0.55298 0.0
C1523 C 0.67856 0.18284 0.5451 0.0
C1524 C 0.64025 0.18657 0.53906 0.0
C1525 C 0.64568 0.21265 0.53161 0.0
C1526 C 0.68935 0.23498 0.53011 0.0
C1527 C 0.72773 0.2312 0.53604 0.0
C1528 C 0.72249 0.20517 0.5435 0.0
C1529 C 0.76629 0.98236 0.5631 0.0
C1530 C 0.81526 0.99498 0.56238 0.0
C1531 C 0.72961 0.01423 0.5633 0.0
C1532 C 0.74162 0.05909 0.56292 0.0
C1533 C 0.79094 0.0714 0.56284 0.0
C1534 C 0.8274 0.03963 0.56249 0.0
C1535 C 0.70342 0.09316 0.56171 0.0
C1536 C 0.70784 0.12217 0.55461 0.0
C1537 C 0.66241 0.09662 0.56723 0.0
C1538 C 0.65524 0.06741 0.57486 0.0
C1539 C 0.69099 0.06425 0.58139 0.0
C1540 C 0.68368 0.03684 0.58859 0.0
C1541 C 0.64066 0.01264 0.58934 0.0
C1542 C 0.6048 0.01575 0.58291 0.0
C1543 C 0.61192 0.04313 0.5757 0.0
H1544 H 0.63499 0.99166 0.59492 0.0
H1545 H 0.69348 0.25515 0.52433 0.0
H1546 H 0.36307 0.55102 0.56336 0.0
H1547 H 0.29971 0.60665 0.56462 0.0
H1548 H 0.19235 0.50516 0.56875 0.0
H1549 H 0.25641 0.44918 0.56753 0.0
H1550 H 0.16969 0.55742 0.55498 0.0
H1551 H 0.21166 0.57936 0.58455 0.0
H1552 H 0.26345 0.59107 0.59746 0.0
H1553 H 0.31464 0.71278 0.58666 0.0
H1554 H 0.26362 0.70156 0.57362 0.0
H1555 H 0.98142 0.71354 0.56381 0.0
H1556 H 0.03959 0.65363 0.56231 0.0
H1557 H 0.15379 0.74722 0.55692 0.0
H1558 H 0.09505 0.80761 0.55839 0.0
H1559 H 0.16964 0.69645 0.57163 0.0
H1560 H 0.12291 0.67199 0.54184 0.0
H1561 H 0.06599 0.65892 0.52969 0.0
H1562 H 0.01762 0.53957 0.54186 0.0
H1563 H 0.07376 0.55218 0.55415 0.0
C1564 C 0.32627 0.54081 0.56493 0.0
C1565 C 0.31437 0.49616 0.56543 0.0
C1566 C 0.29006 0.57253 0.56562 0.0
C1567 C 0.24128 0.56003 0.56675 0.0
C1568 C 0.22982 0.51542 0.56788 0.0
C1569 C 0.26634 0.48357 0.56729 0.0
C1570 C 0.2025 0.59324 0.56556 0.0
C1571 C 0.16898 0.5875 0.55873 0.0
C1572 C 0.20249 0.63285 0.57031 0.0
C1573 C 0.23412 0.63938 0.57806 0.0
C1574 C 0.23435 0.6084 0.58488 0.0
C1575 C 0.26347 0.61502 0.59223 0.0
C1576 C 0.2924 0.65259 0.59287 0.0
C1577 C 0.29224 0.68366 0.58615 0.0
C1578 C 0.26318 0.67721 0.57878 0.0
C1579 C 0.01864 0.72116 0.562 0.0
C1580 C 0.03418 0.76494 0.56129 0.0
C1581 C 0.05175 0.68693 0.56111 0.0
C1582 C 0.101 0.69602 0.55955 0.0
C1583 C 0.11583 0.73965 0.55812 0.0
C1584 C 0.08239 0.77404 0.55891 0.0
C1585 C 0.1375 0.66105 0.56095 0.0
C1586 C 0.17042 0.6664 0.56787 0.0
C1587 C 0.13628 0.62089 0.55637 0.0
C1588 C 0.10228 0.61331 0.54898 0.0
C1589 C 0.09982 0.64317 0.54198 0.0
C1590 C 0.06776 0.63578 0.53505 0.0
C1591 C 0.03811 0.5985 0.53501 0.0
C1592 C 0.04056 0.56846 0.5419 0.0
C1593 C 0.07255 0.5757 0.54884 0.0
H1594 H 0.01333 0.59285 0.52965 0.0
H1595 H 0.31486 0.65769 0.59858 0.0
H1596 H 0.58834 0.43613 0.1924 0.0
H1597 H 0.64766 0.49639 0.19347 0.0
H1598 H 0.53142 0.5904 0.19054 0.0
H1599 H 0.47264 0.53051 0.18936 0.0
H1600 H 0.59902 0.59735 0.17777 0.0
H1601 H 0.59672 0.58805 0.20892 0.0
H1602 H 0.60314 0.5524 0.22332 0.0
H1603 H 0.75125 0.51681 0.21791 0.0
H1604 H 0.74552 0.55172 0.20342 0.0
H1605 H 0.73631 0.79659 0.18439 0.0
H1606 H 0.67864 0.73525 0.18324 0.0
H1607 H 0.79731 0.64367 0.18612 0.0
H1608 H 0.85466 0.70493 0.18727 0.0
H1609 H 0.72943 0.63448 0.19881 0.0
H1610 H 0.7328 0.64715 0.1679 0.0
H1611 H 0.72537 0.67975 0.15324 0.0
H1612 H 0.57437 0.70712 0.1579 0.0
H1613 H 0.58118 0.67604 0.1727 0.0
C1614 C 0.57549 0.46971 0.19236 0.0
C1615 C 0.5263 0.479 0.19076 0.0
C1616 C 0.60928 0.50407 0.19293 0.0
C1617 C 0.59389 0.54781 0.19196 0.0
C1618 C 0.54405 0.5569 0.19122 0.0
C1619 C 0.51054 0.52275 0.1906 0.0
C1620 C 0.6296 0.58342 0.1904 0.0
C1621 C 0.62708 0.60611 0.18243 0.0
C1622 C 0.66713 0.59349 0.19636 0.0
C1623 C 0.67048 0.57203 0.20503 0.0
C1624 C 0.63049 0.57219 0.21075 0.0
C1625 C 0.63405 0.55222 0.21895 0.0
C1626 C 0.67752 0.53222 0.22152 0.0
C1627 C 0.71757 0.53224 0.21591 0.0
C1628 C 0.71419 0.55213 0.2077 0.0
C1629 C 0.75008 0.76331 0.18435 0.0
C1630 C 0.79963 0.75509 0.18583 0.0
C1631 C 0.71722 0.72833 0.18375 0.0
C1632 C 0.73374 0.68494 0.18468 0.0
C1633 C 0.78387 0.67689 0.18542 0.0
C1634 C 0.8166 0.71177 0.18599 0.0
C1635 C 0.6987 0.64872 0.18617 0.0
C1636 C 0.70134 0.62588 0.19414 0.0
C1637 C 0.66117 0.63858 0.18021 0.0
C1638 C 0.6577 0.65966 0.17148 0.0
C1639 C 0.69822 0.66087 0.16588 0.0
C1640 C 0.69407 0.67894 0.15752 0.0
C1641 C 0.64942 0.6954 0.15464 0.0
C1642 C 0.60891 0.69423 0.16013 0.0
C1643 C 0.61296 0.67658 0.16852 0.0
H1644 H 0.64619 0.70899 0.14814 0.0
H1645 H 0.68021 0.51681 0.22786 0.0
H1646 H 0.2561 0.29208 0.18383 0.0
H1647 H 0.19168 0.23612 0.18266 0.0
H1648 H 0.29601 0.13552 0.18923 0.0
H1649 H 0.35975 0.19105 0.19045 0.0
H1650 H 0.2287 0.10826 0.17693 0.0
H1651 H 0.23247 0.18425 0.20493 0.0
H1652 H 0.2272 0.25007 0.21418 0.0
H1653 H 0.08283 0.27531 0.20468 0.0
H1654 H 0.08751 0.20994 0.19527 0.0
H1655 H 0.09056 0.93368 0.19233 0.0
H1656 H 0.14929 0.99426 0.19364 0.0
H1657 H 0.03374 0.08762 0.18929 0.0
H1658 H 0.97539 0.02744 0.18808 0.0
H1659 H 0.10234 0.12204 0.19988 0.0
H1660 H 0.09493 0.05211 0.17205 0.0
H1661 H 0.09596 0.99014 0.16181 0.0
H1662 H 0.24123 0.95747 0.16988 0.0
H1663 H 0.24097 0.01941 0.18021 0.0
C1664 C 0.26536 0.2578 0.18468 0.0
C1665 C 0.3125 0.24554 0.18724 0.0
C1666 C 0.22862 0.22602 0.18411 0.0
C1667 C 0.23906 0.18188 0.18604 0.0
C1668 C 0.2872 0.1694 0.18777 0.0
C1669 C 0.32356 0.20104 0.18844 0.0
C1670 C 0.19992 0.14898 0.18713 0.0
C1671 C 0.20128 0.11113 0.18199 0.0
C1672 C 0.16348 0.15334 0.1936 0.0
C1673 C 0.16056 0.19244 0.19932 0.0
C1674 C 0.19974 0.20401 0.20476 0.0
C1675 C 0.19684 0.24121 0.21005 0.0
C1676 C 0.15476 0.26692 0.21 0.0
C1677 C 0.11544 0.25541 0.20469 0.0
C1678 C 0.11819 0.21827 0.19939 0.0
C1679 C 0.07763 0.96721 0.19204 0.0
C1680 C 0.02884 0.97618 0.19007 0.0
C1681 C 0.1111 0.00174 0.1927 0.0
C1682 C 0.09594 0.04536 0.19135 0.0
C1683 C 0.04627 0.0543 0.1903 0.0
C1684 C 0.01301 0.01993 0.18962 0.0
C1685 C 0.13196 0.08081 0.18982 0.0
C1686 C 0.12979 0.11918 0.19484 0.0
C1687 C 0.16724 0.07738 0.18314 0.0
C1688 C 0.16774 0.04008 0.17696 0.0
C1689 C 0.12697 0.03153 0.17168 0.0
C1690 C 0.12744 0.99644 0.16585 0.0
C1691 C 0.16854 0.9697 0.16521 0.0
C1692 C 0.20937 0.97816 0.17039 0.0
C1693 C 0.20913 0.01332 0.17622 0.0
H1694 H 0.1688 0.94254 0.16069 0.0
H1695 H 0.15257 0.29569 0.2141 0.0
H1696 H 0.27536 0.53591 0.92986 0.0
H1697 H 0.32546 0.47065 0.9302 0.0
H1698 H 0.19694 0.3895 0.92874 0.0
H1699 H 0.14574 0.4553 0.92884 0.0
H1700 H 0.25997 0.3595 0.94082 0.0
H1701 H 0.27369 0.40728 0.91073 0.0
H1702 H 0.28936 0.46409 0.89958 0.0
H1703 H 0.43479 0.4809 0.90931 0.0
H1704 H 0.41977 0.42456 0.92059 0.0
H1705 H 0.36926 0.15988 0.92972 0.0
H1706 H 0.32313 0.22785 0.92993 0.0
H1707 H 0.45664 0.3021 0.93143 0.0
H1708 H 0.50358 0.23372 0.9311 0.0
H1709 H 0.39461 0.33777 0.91972 0.0
H1710 H 0.38569 0.29215 0.94924 0.0
H1711 H 0.37254 0.24169 0.96161 0.0
H1712 H 0.22278 0.22603 0.95418 0.0
H1713 H 0.2352 0.27596 0.94168 0.0
C1714 C 0.25737 0.50432 0.92953 0.0
C1715 C 0.20621 0.50102 0.92922 0.0
C1716 C 0.28633 0.46691 0.9297 0.0
C1717 C 0.26512 0.42515 0.92932 0.0
C1718 C 0.21412 0.42148 0.92897 0.0
C1719 C 0.18487 0.45911 0.92894 0.0
C1720 C 0.29643 0.3855 0.92951 0.0
C1721 C 0.28882 0.3543 0.93611 0.0
C1722 C 0.33559 0.37983 0.92361 0.0
C1723 C 0.34552 0.41184 0.91652 0.0
C1724 C 0.30902 0.42307 0.91048 0.0
C1725 C 0.31776 0.45524 0.90415 0.0
C1726 C 0.36302 0.47615 0.90375 0.0
C1727 C 0.39976 0.46467 0.90963 0.0
C1728 C 0.39119 0.43255 0.91598 0.0
C1729 C 0.38906 0.19055 0.93014 0.0
C1730 C 0.44028 0.19123 0.93043 0.0
C1731 C 0.36249 0.22946 0.93029 0.0
C1732 C 0.38634 0.27006 0.93081 0.0
C1733 C 0.43748 0.27109 0.93105 0.0
C1734 C 0.46424 0.23198 0.93089 0.0
C1735 C 0.35738 0.31116 0.93091 0.0
C1736 C 0.3656 0.34277 0.9244 0.0
C1737 C 0.31922 0.31759 0.93697 0.0
C1738 C 0.31152 0.28747 0.94447 0.0
C1739 C 0.35006 0.27765 0.9502 0.0
C1740 C 0.34271 0.24921 0.95724 0.0
C1741 C 0.29689 0.23057 0.95866 0.0
C1742 C 0.25827 0.24045 0.95306 0.0
C1743 C 0.26543 0.26886 0.946 0.0
H1744 H 0.29127 0.20855 0.96412 0.0
H1745 H 0.36962 0.50122 0.89888 0.0
H1746 H 0.00979 0.74045 0.92993 0.0
H1747 H 0.96196 0.80845 0.92964 0.0
H1748 H 0.83245 0.735 0.93607 0.0
H1749 H 0.87941 0.66747 0.93632 0.0
H1750 H 0.81932 0.78527 0.9218 0.0
H1751 H 0.8859 0.80299 0.95079 0.0
H1752 H 0.95066 0.81018 0.96184 0.0
H1753 H 0.00702 0.92345 0.94852 0.0
H1754 H 0.94292 0.91662 0.93733 0.0
H1755 H 0.64798 0.95232 0.93297 0.0
H1756 H 0.70247 0.88875 0.93242 0.0
H1757 H 0.82212 0.97337 0.9253 0.0
H1758 H 0.76814 0.03668 0.92574 0.0
H1759 H 0.84477 0.92049 0.93907 0.0
H1760 H 0.77784 0.90616 0.9106 0.0
H1761 H 0.71413 0.90054 0.89934 0.0
H1762 H 0.66059 0.78219 0.91121 0.0
H1763 H 0.72358 0.78744 0.92263 0.0
C1764 C 0.97128 0.73897 0.93141 0.0
C1765 C 0.94832 0.69848 0.93303 0.0
C1766 C 0.94402 0.77782 0.93126 0.0
C1767 C 0.89357 0.77668 0.93279 0.0
C1768 C 0.87121 0.73657 0.93479 0.0
C1769 C 0.89822 0.69795 0.93493 0.0
C1770 C 0.86293 0.81634 0.93171 0.0
C1771 C 0.82453 0.81467 0.92566 0.0
C1772 C 0.87092 0.85524 0.9365 0.0
C1773 C 0.90999 0.8589 0.94315 0.0
C1774 C 0.91243 0.82912 0.95016 0.0
C1775 C 0.94894 0.83322 0.95646 0.0
C1776 C 0.98304 0.86715 0.95586 0.0
C1777 C 0.98065 0.89711 0.94896 0.0
C1778 C 0.94423 0.89315 0.94264 0.0
C1779 C 0.6856 0.95721 0.9311 0.0
C1780 C 0.70374 -0.00046 0.92945 0.0
C1781 C 0.71675 0.92093 0.93082 0.0
C1782 C 0.76639 0.92646 0.92886 0.0
C1783 C 0.78408 0.96846 0.9269 0.0
C1784 C 0.75308 0.00458 0.92716 0.0
C1785 C 0.80051 0.88892 0.92932 0.0
C1786 C 0.83967 0.8911 0.93521 0.0
C1787 C 0.79345 0.85055 0.92434 0.0
C1788 C 0.75509 0.84752 0.91755 0.0
C1789 C 0.75215 0.8792 0.91088 0.0
C1790 C 0.71624 0.87601 0.90445 0.0
C1791 C 0.68321 0.84111 0.90458 0.0
C1792 C 0.68613 0.80926 0.91113 0.0
C1793 C 0.72195 0.81231 0.91758 0.0
H1794 H 0.65545 0.83868 0.8996 0.0
H1795 H 0.01123 0.87029 0.96075 0.0
H1796 H 0.14996 0.78388 0.31883 0.0
H1797 H 0.20429 0.84746 0.31839 0.0
H1798 H 0.32894 0.76192 0.32014 0.0
H1799 H 0.27519 0.69836 0.32074 0.0
H1800 H 0.3397 0.83112 0.33058 0.0
H1801 H 0.29646 0.80711 0.30071 0.0
H1802 H 0.2416 0.79649 0.28816 0.0
H1803 H 0.17785 0.92295 0.29259 0.0
H1804 H 0.23189 0.9341 0.30524 0.0
H1805 H 0.50687 0.00403 0.31985 0.0
H1806 H 0.46239 0.93433 0.31911 0.0
H1807 H 0.32646 0.0049 0.31799 0.0
H1808 H 0.37021 0.07411 0.31856 0.0
H1809 H 0.32809 0.93905 0.30639 0.0
H1810 H 0.36642 0.95998 0.33697 0.0
H1811 H 0.42182 0.97118 0.34942 0.0
H1812 H 0.49535 0.85074 0.34349 0.0
H1813 H 0.44068 0.83907 0.33093 0.0
C1814 C 0.1889 0.77858 0.31918 0.0
C1815 C 0.20816 0.73598 0.31977 0.0
C1816 C 0.21991 0.81493 0.31887 0.0
C1817 C 0.27067 0.8093 0.3191 0.0
C1818 C 0.28991 0.76696 0.31992 0.0
C1819 C 0.25902 0.73066 0.32024 0.0
C1820 C 0.30377 0.84756 0.31851 0.0
C1821 C 0.33767 0.85439 0.32522 0.0
C1822 C 0.30079 0.87805 0.31155 0.0
C1823 C 0.26797 0.87127 0.30398 0.0
C1824 C 0.27046 0.8325 0.29906 0.0
C1825 C 0.23956 0.82642 0.29191 0.0
C1826 C 0.20618 0.85898 0.28959 0.0
C1827 C 0.20368 0.89773 0.2944 0.0
C1828 C 0.23447 0.90397 0.30155 0.0
C1829 C 0.46759 0.00463 0.31936 0.0
C1830 C 0.44216 0.04461 0.31927 0.0
C1831 C 0.44222 0.96483 0.31899 0.0
C1832 C 0.39112 0.96455 0.31855 0.0
C1833 C 0.36588 0.00441 0.3183 0.0
C1834 C 0.39105 0.04398 0.31866 0.0
C1835 C 0.36318 0.92305 0.31855 0.0
C1836 C 0.33036 0.91554 0.3117 0.0
C1837 C 0.36714 0.89199 0.32538 0.0
C1838 C 0.39982 0.89889 0.33295 0.0
C1839 C 0.39464 0.93605 0.33828 0.0
C1840 C 0.42586 0.94246 0.34536 0.0
C1841 C 0.46219 0.91176 0.34723 0.0
C1842 C 0.46726 0.87452 0.34203 0.0
C1843 C 0.43614 0.86798 0.33493 0.0
H1844 H 0.48632 0.91677 0.35271 0.0
H1845 H 0.18233 0.85423 0.28406 0.0
H1846 H 0.00615 0.50271 0.32347 0.0
H1847 H 0.95767 0.43511 0.32236 0.0
H1848 H 0.82998 0.51191 0.31643 0.0
H1849 H 0.87749 0.57885 0.31757 0.0
H1850 H 0.81301 0.45495 0.32939 0.0
H1851 H 0.88602 0.45231 0.30087 0.0
H1852 H 0.95389 0.45209 0.29036 0.0
H1853 H 0.00797 0.3324 0.30154 0.0
H1854 H 0.94076 0.33221 0.31221 0.0
H1855 H 0.64417 0.2893 0.31667 0.0
H1856 H 0.6977 0.35369 0.31716 0.0
H1857 H 0.82108 0.26983 0.32216 0.0
H1858 H 0.76823 0.20572 0.32164 0.0
H1859 H 0.84308 0.32861 0.30988 0.0
H1860 H 0.77106 0.33136 0.3384 0.0
H1861 H 0.70423 0.33189 0.34912 0.0
H1862 H 0.64963 0.45177 0.33809 0.0
H1863 H 0.71585 0.45168 0.32723 0.0
C1864 C 0.9679 0.50501 0.32183 0.0
C1865 C 0.94565 0.54614 0.32069 0.0
C1866 C 0.94027 0.46644 0.32119 0.0
C1867 C 0.89018 0.46856 0.31933 0.0
C1868 C 0.86845 0.50952 0.31794 0.0
C1869 C 0.89578 0.54781 0.31861 0.0
C1870 C 0.85916 0.42873 0.31934 0.0
C1871 C 0.81927 0.42753 0.32505 0.0
C1872 C 0.86818 0.39252 0.31384 0.0
C1873 C 0.90864 0.39255 0.30742 0.0
C1874 C 0.91263 0.42616 0.30115 0.0
C1875 C 0.95093 0.42606 0.29515 0.0
C1876 C 0.98531 0.39233 0.2953 0.0
C1877 C 0.98136 0.35855 0.30144 0.0
C1878 C 0.94315 0.35852 0.30746 0.0
C1879 C 0.68254 0.28469 0.318 0.0
C1880 C 0.70184 0.24239 0.31912 0.0
C1881 C 0.71317 0.32147 0.31825 0.0
C1882 C 0.76347 0.31656 0.31971 0.0
C1883 C 0.78253 0.27442 0.32096 0.0
C1884 C 0.75212 0.23779 0.32069 0.0
C1885 C 0.79651 0.35515 0.31987 0.0
C1886 C 0.83686 0.35604 0.31422 0.0
C1887 C 0.78807 0.39118 0.32544 0.0
C1888 C 0.74811 0.39124 0.33194 0.0
C1889 C 0.74456 0.35763 0.33821 0.0
C1890 C 0.70685 0.3579 0.34432 0.0
C1891 C 0.67262 0.39177 0.34427 0.0
C1892 C 0.67612 0.42552 0.33811 0.0
C1893 C 0.71376 0.42539 0.33198 0.0
H1894 H 0.64346 0.39193 0.34901 0.0
H1895 H 0.01493 0.39231 0.29066 0.0
H1896 H 0.54692 0.75687 0.07798 0.0
H1897 H 0.60282 0.69659 0.07615 0.0
H1898 H 0.60118 0.71625 0.04829 0.0
H1899 H 0.54263 0.77692 0.05006 0.0
H1900 H 0.58949 0.62911 0.05307 0.0
H1901 H 0.70094 0.74496 0.05998 0.0
H1902 H 0.73056 0.80866 0.06831 0.0
H1903 H 0.7397 0.72934 0.09143 0.0
H1904 H 0.70957 0.66522 0.08326 0.0
H1905 H 0.79225 0.50053 0.04419 0.0
H1906 H 0.73074 0.55559 0.04627 0.0
H1907 H 0.73819 0.53638 0.07412 0.0
H1908 H 0.80231 0.48088 0.07209 0.0
H1909 H 0.74483 0.62177 0.06957 0.0
H1910 H 0.637 0.50439 0.06235 0.0
H1911 H 0.60785 0.44097 0.05388 0.0
H1912 H 0.59218 0.52266 0.03121 0.0
H1913 H 0.6219 0.58649 0.03949 0.0
C1914 C 0.55844 0.74878 0.07143 0.0
C1915 C 0.54007 0.77153 0.06414 0.0
C1916 C 0.59076 0.71435 0.07041 0.0
C1917 C 0.60652 0.70221 0.06211 0.0
C1918 C 0.58939 0.72534 0.05477 0.0
C1919 C 0.55642 0.76011 0.05578 0.0
C1920 C 0.63963 0.66427 0.06129 0.0
C1921 C 0.62391 0.62767 0.05653 0.0
C1922 C 0.68355 0.66203 0.06611 0.0
C1923 C 0.70275 0.70031 0.07101 0.0
C1924 C 0.70907 0.74112 0.06685 0.0
C1925 C 0.72596 0.7773 0.07154 0.0
C1926 C 0.73696 0.77304 0.08039 0.0
C1927 C 0.7312 0.73256 0.08457 0.0
C1928 C 0.71432 0.69626 0.0799 0.0
C1929 C 0.78102 0.50754 0.0508 0.0
C1930 C 0.8029 0.48662 0.05801 0.0
C1931 C 0.74513 0.53882 0.05195 0.0
C1932 C 0.72935 0.54967 0.06032 0.0
C1933 C 0.74984 0.52815 0.06758 0.0
C1934 C 0.78632 0.49653 0.06643 0.0
C1935 C 0.6949 0.5865 0.06133 0.0
C1936 C 0.71035 0.62301 0.06613 0.0
C1937 C 0.65083 0.58858 0.05653 0.0
C1938 C 0.63196 0.5503 0.05155 0.0
C1939 C 0.62758 0.50885 0.05555 0.0
C1940 C 0.61092 0.47279 0.05078 0.0
C1941 C 0.59823 0.47778 0.04201 0.0
C1942 C 0.60201 0.51886 0.038 0.0
C1943 C 0.61867 0.55502 0.04274 0.0
H1944 H 0.58542 0.44982 0.03833 0.0
H1945 H 0.75005 0.80109 0.084 0.0
H1946 H 0.30155 0.98314 0.07051 0.0
H1947 H 0.23596 0.03781 0.07189 0.0
H1948 H 0.2409 0.06107 0.04417 0.0
H1949 H 0.30505 0.00758 0.0427 0.0
H1950 H 0.25263 0.13633 0.05412 0.0
H1951 H 0.14864 0.01078 0.05142 0.0
H1952 H 0.11597 0.93783 0.05522 0.0
H1953 H 0.07447 0.98498 0.08047 0.0
H1954 H 0.10764 0.0581 0.07687 0.0
H1955 H 0.04422 0.2813 0.05007 0.0
H1956 H 0.10049 0.21964 0.04754 0.0
H1957 H 0.10089 0.19063 0.07507 0.0
H1958 H 0.0465 0.25161 0.07767 0.0
H1959 H 0.08315 0.11639 0.06454 0.0
H1960 H 0.1934 0.23994 0.06745 0.0
H1961 H 0.22658 0.31262 0.06355 0.0
H1962 H 0.25616 0.26763 0.03761 0.0
H1963 H 0.22243 0.19483 0.04132 0.0
C1964 C 0.28835 -0.00021 0.06474 0.0
C1965 C 0.30942 0.99175 0.05655 0.0
C1966 C 0.25084 0.03071 0.06552 0.0
C1967 C 0.23413 0.05351 0.05812 0.0
C1968 C 0.25372 0.04408 0.04995 0.0
C1969 C 0.29074 0.01357 0.04916 0.0
C1970 C 0.19925 0.08997 0.0588 0.0
C1971 C 0.21537 0.13189 0.05631 0.0
C1972 C 0.15094 0.08393 0.06171 0.0
C1973 C 0.13129 0.03984 0.06392 0.0
C1974 C 0.13311 0.0055 0.05782 0.0
C1975 C 0.11436 0.96413 0.05993 0.0
C1976 C 0.09332 0.95673 0.06809 0.0
C1977 C 0.09089 0.99073 0.07415 0.0
C1978 C 0.10965 0.03216 0.07208 0.0
C1979 C 0.05694 0.26208 0.05556 0.0
C1980 C 0.04052 0.271 0.06404 0.0
C1981 C 0.08863 0.22679 0.05412 0.0
C1982 C 0.10392 0.20032 0.06113 0.0
C1983 C 0.08871 0.21017 0.06957 0.0
C1984 C 0.05775 0.24526 0.07102 0.0
C1985 C 0.13672 0.16265 0.05988 0.0
C1986 C 0.12031 0.1206 0.06229 0.0
C1987 C 0.1848 0.16838 0.05687 0.0
C1988 C 0.20476 0.21218 0.05462 0.0
C1989 C 0.20647 0.24571 0.06088 0.0
C1990 C 0.22549 0.28688 0.05872 0.0
C1991 C 0.2433 0.29479 0.05033 0.0
C1992 C 0.24222 0.2615 0.0441 0.0
C1993 C 0.22316 0.22028 0.04623 0.0
H1994 H 0.25806 0.32667 0.04867 0.0
H1995 H 0.07879 0.92469 0.0697 0.0
H1996 H 0.49083 0.00967 0.69663 0.0
H1997 H 0.5472 0.0718 0.69811 0.0
H1998 H 0.65816 -0.00192 0.68471 0.0
H1999 H 0.60201 0.93606 0.68333 0.0
H2000 H 0.69669 0.05049 0.69749 0.0
H2001 H 0.57833 0.06362 0.67373 0.0
H2002 H 0.49453 0.06776 0.66799 0.0
H2003 H 0.4672 0.18164 0.6836 0.0
H2004 H 0.55064 0.17776 0.68955 0.0
H2005 H 0.8518 0.20935 0.68137 0.0
H2006 H 0.78968 0.15171 0.68006 0.0
H2007 H 0.68445 0.23646 0.6923 0.0
H2008 H 0.74621 0.29402 0.69347 0.0
H2009 H 0.64 0.18141 0.68103 0.0
H2010 H 0.75256 0.17288 0.70464 0.0
H2011 H 0.83391 0.17191 0.71144 0.0
H2012 H 0.86861 0.05329 0.69781 0.0
H2013 H 0.7877 0.05402 0.69079 0.0
C2014 C 0.52799 0.00625 0.69436 0.0
C2015 C 0.54269 0.96819 0.68999 0.0
C2016 C 0.5599 0.04181 0.69511 0.0
C2017 C 0.60651 0.03978 0.69136 0.0
C2018 C 0.62235 0.00034 0.68763 0.0
C2019 C 0.59048 0.96486 0.68689 0.0
C2020 C 0.63704 0.07961 0.69044 0.0
C2021 C 0.68446 0.07895 0.69383 0.0
C2022 C 0.62043 0.11731 0.68588 0.0
C2023 C 0.5706 0.12013 0.68215 0.0
C2024 C 0.55438 0.0894 0.67598 0.0
C2025 C 0.50694 0.0917 0.67269 0.0
C2026 C 0.47552 0.12486 0.67545 0.0
C2027 C 0.49155 0.15592 0.68148 0.0
C2028 C 0.53891 0.15369 0.68481 0.0
C2029 C 0.81477 0.21617 0.68338 0.0
C2030 C 0.80333 0.25575 0.68749 0.0
C2031 C 0.77948 0.18325 0.68271 0.0
C2032 C 0.73284 0.18953 0.68629 0.0
C2033 C 0.72019 0.23086 0.68954 0.0
C2034 C 0.75538 0.26371 0.69019 0.0
C2035 C 0.7001 0.15166 0.68786 0.0
C2036 C 0.65224 0.1529 0.68467 0.0
C2037 C 0.71586 0.11485 0.69277 0.0
C2038 C 0.76422 0.11374 0.69712 0.0
C2039 C 0.77763 0.14673 0.70305 0.0
C2040 C 0.82367 0.14623 0.70694 0.0
C2041 C 0.85646 0.11261 0.70504 0.0
C2042 C 0.84319 0.07935 0.69926 0.0
C2043 C 0.79724 0.07979 0.69532 0.0
H2044 H 0.8921 0.11227 0.70806 0.0
H2045 H 0.4388 0.12654 0.6729 0.0
H2046 H 0.98456 0.51649 0.69701 0.0
H2047 H 0.04073 0.57894 0.69808 0.0
H2048 H 0.15559 0.49965 0.68723 0.0
H2049 H 0.09969 0.4372 0.68635 0.0
H2050 H 0.19137 0.55774 0.6989 0.0
H2051 H 0.0787 0.56054 0.67431 0.0
H2052 H -0.00337 0.56133 0.66777 0.0
H2053 H 0.96351 0.68065 0.68129 0.0
H2054 H 0.04519 0.6802 0.68802 0.0
H2055 H 0.34686 0.71233 0.68096 0.0
H2056 H 0.28549 0.65382 0.6803 0.0
H2057 H 0.17895 0.74118 0.6914 0.0
H2058 H 0.24014 0.79951 0.69199 0.0
H2059 H 0.13647 0.6819 0.68032 0.0
H2060 H 0.246 0.68245 0.70457 0.0
H2061 H 0.32644 0.68391 0.71171 0.0
H2062 H 0.36307 0.56109 0.69981 0.0
H2063 H 0.2831 0.55931 0.69246 0.0
C2064 C 0.02245 0.51203 0.69526 0.0
C2065 C 0.03834 0.47219 0.69172 0.0
C2066 C 0.05429 0.54776 0.69576 0.0
C2067 C 0.10201 0.54419 0.69254 0.0
C2068 C 0.11891 0.50317 0.68972 0.0
C2069 C 0.08716 0.46744 0.68927 0.0
C2070 C 0.13267 0.58369 0.69114 0.0
C2071 C 0.17952 0.58469 0.69479 0.0
C2072 C 0.11669 0.61941 0.68593 0.0
C2073 C 0.06791 0.62009 0.68174 0.0
C2074 C 0.05384 0.58682 0.67593 0.0
C2075 C 0.00738 0.58721 0.67219 0.0
C2076 C 0.97483 0.62096 0.67414 0.0
C2077 C 0.98874 0.65449 0.6798 0.0
C2078 C 0.03511 0.65419 0.68358 0.0
C2079 C 0.30967 0.7195 0.68282 0.0
C2080 C 0.29777 0.76019 0.68645 0.0
C2081 C 0.27483 0.68605 0.68255 0.0
C2082 C 0.22802 0.69297 0.68599 0.0
C2083 C 0.21484 0.73512 0.68874 0.0
C2084 C 0.24967 0.76846 0.68903 0.0
C2085 C 0.19549 0.65534 0.68791 0.0
C2086 C 0.14828 0.6549 0.68443 0.0
C2087 C 0.21084 0.62037 0.69337 0.0
C2088 C 0.25871 0.62097 0.69789 0.0
C2089 C 0.27132 0.6559 0.70342 0.0
C2090 C 0.31684 0.65678 0.70751 0.0
C2091 C 0.3499 0.62266 0.70619 0.0
C2092 C 0.33744 0.58753 0.70081 0.0
C2093 C 0.29202 0.58657 0.69668 0.0
H2094 H 0.38512 0.62339 0.70936 0.0
H2095 H 0.93887 0.62118 0.67124 0.0
H2096 H 0.22969 0.08664 0.41244 0.0
H2097 H 0.2871 0.10552 0.40085 0.0
H2098 H 0.17957 0.18957 0.38901 0.0
H2099 H 0.12136 0.16954 0.40052 0.0
H2100 H 0.22745 0.11098 0.37901 0.0
H2101 H 0.31707 0.27248 0.38864 0.0
H2102 H 0.36644 0.31132 0.39946 0.0
H2103 H 0.39828 0.18944 0.41238 0.0
H2104 H 0.35309 0.14963 0.40107 0.0
H2105 H 0.35068 0.21057 0.34244 0.0
H2106 H 0.29764 0.18991 0.35467 0.0
H2107 H 0.42448 0.16521 0.37057 0.0
H2108 H 0.47698 0.18762 0.35865 0.0
H2109 H 0.36795 0.21293 0.37885 0.0
H2110 H 0.34865 0.08165 0.363 0.0
H2111 H 0.32968 0.03171 0.35086 0.0
H2112 H 0.18126 0.07572 0.35087 0.0
H2113 H 0.19947 0.12641 0.36294 0.0
C2114 C 0.21932 0.11091 0.40761 0.0
C2115 C 0.17194 0.12794 0.40749 0.0
C2116 C 0.25223 0.1219 0.40101 0.0
C2117 C 0.23848 0.15063 0.39429 0.0
C2118 C 0.19141 0.16855 0.39431 0.0
C2119 C 0.15838 0.15743 0.40089 0.0
C2120 C 0.27001 0.15651 0.38656 0.0
C2121 C 0.25811 0.13346 0.37892 0.0
C2122 C 0.31086 0.18462 0.38655 0.0
C2123 C 0.32898 0.20819 0.3943 0.0
C2124 C 0.33344 0.25408 0.39393 0.0
C2125 C 0.3617 0.27622 0.40006 0.0
C2126 C 0.38467 0.25297 0.40677 0.0
C2127 C 0.37961 0.2075 0.4073 0.0
C2128 C 0.35265 0.18505 0.40101 0.0
C2129 C 0.36703 0.20121 0.3486 0.0
C2130 C 0.41793 0.20191 0.34967 0.0
C2131 C 0.33677 0.18869 0.35552 0.0
C2132 C 0.35706 0.17576 0.36353 0.0
C2133 C 0.4079 0.1754 0.36449 0.0
C2134 C 0.43793 0.18875 0.35768 0.0
C2135 C 0.32609 0.16722 0.37127 0.0
C2136 C 0.33736 0.19033 0.37887 0.0
C2137 C 0.28642 0.13753 0.37131 0.0
C2138 C 0.27565 0.1084 0.36381 0.0
C2139 C 0.31213 0.08121 0.36033 0.0
C2140 C 0.30146 0.0526 0.35349 0.0
C2141 C 0.25434 0.05067 0.35007 0.0
C2142 C 0.21779 0.07735 0.3535 0.0
C2143 C 0.22827 0.10602 0.36035 0.0
H2144 H 0.24612 0.0284 0.34479 0.0
H2145 H 0.40719 0.26994 0.41146 0.0
H2146 H 0.71651 0.18041 0.34402 0.0
H2147 H 0.77066 0.14754 0.35493 0.0
H2148 H 0.68958 0.02654 0.35358 0.0
H2149 H 0.63605 0.05892 0.34243 0.0
H2150 H 0.70136 0.07609 0.37123 0.0
H2151 H 0.79103 0.01357 0.34697 0.0
H2152 H 0.835 0.01675 0.33294 0.0
H2153 H 0.93602 0.10955 0.34364 0.0
H2154 H 0.89255 0.10744 0.35768 0.0
H2155 H 0.86053 0.99161 0.40472 0.0
H2156 H 0.80527 -0.00112 0.39215 0.0
H2157 H 0.90165 0.09573 0.38088 0.0
H2158 H 0.95726 0.08685 0.3931 0.0
H2159 H 0.87763 0.0435 0.36894 0.0
H2160 H 0.79005 0.12026 0.39118 0.0
H2161 H 0.74841 0.13066 0.40525 0.0
H2162 H 0.64569 0.02974 0.39872 0.0
H2163 H 0.68726 0.01814 0.38466 0.0
C2164 C 0.71091 0.14652 0.34593 0.0
C2165 C 0.67214 0.12216 0.34244 0.0
C2166 C 0.74183 0.1278 0.35212 0.0
C2167 C 0.73387 0.08477 0.35504 0.0
C2168 C 0.69622 0.05979 0.35137 0.0
C2169 C 0.66592 0.07821 0.345 0.0
C2170 C 0.76211 0.06805 0.36254 0.0
C2171 C 0.73968 0.06783 0.37075 0.0
C2172 C 0.81236 0.05917 0.36187 0.0
C2173 C 0.83827 0.06053 0.35337 0.0
C2174 C 0.82235 0.03494 0.34631 0.0
C2175 C 0.84725 0.03646 0.33836 0.0
C2176 C 0.88815 0.06334 0.3374 0.0
C2177 C 0.90433 0.08873 0.34439 0.0
C2178 C 0.87963 0.08733 0.35234 0.0
C2179 C 0.86944 0.0145 0.39955 0.0
C2180 C 0.91305 0.03847 0.3998 0.0
C2181 C 0.83797 0.01873 0.39239 0.0
C2182 C 0.84928 0.04787 0.38554 0.0
C2183 C 0.89235 0.07256 0.38598 0.0
C2184 C 0.92406 0.0676 0.39299 0.0
C2185 C 0.81737 0.05264 0.37776 0.0
C2186 C 0.83908 0.05071 0.36947 0.0
C2187 C 0.76686 0.06137 0.37841 0.0
C2188 C 0.74224 0.06785 0.38692 0.0
C2189 C 0.75892 0.09993 0.39278 0.0
C2190 C 0.73526 0.10614 0.40074 0.0
C2191 C 0.69453 0.08081 0.40288 0.0
C2192 C 0.67734 0.04925 0.39706 0.0
C2193 C 0.70096 0.04281 0.3891 0.0
H2194 H 0.67621 0.08573 0.40905 0.0
H2195 H 0.90733 0.06444 0.33124 0.0
H2196 H 0.34153 0.00596 0.9091 0.0
H2197 H 0.28818 0.0223 0.89649 0.0
H2198 H 0.41338 0.0606 0.88139 0.0
H2199 H 0.46632 0.04365 0.8936 0.0
H2200 H 0.32439 0.12213 0.8825 0.0
H2201 H 0.38439 0.9771 0.8757 0.0
H2202 H 0.39824 0.89818 0.87813 0.0
H2203 H 0.244 0.87657 0.87977 0.0
H2204 H 0.22929 0.95572 0.87758 0.0
H2205 H 0.23418 0.16228 0.84086 0.0
H2206 H 0.2887 0.13239 0.85204 0.0
H2207 H 0.17468 0.04427 0.86051 0.0
H2208 H 0.12214 0.07142 0.84877 0.0
H2209 H 0.25598 0.00671 0.86331 0.0
H2210 H 0.19638 0.15381 0.86962 0.0
H2211 H 0.18498 0.23196 0.86589 0.0
H2212 H 0.33993 0.24967 0.86458 0.0
H2213 H 0.35222 0.17156 0.86823 0.0
C2214 C 0.3575 0.01715 0.90303 0.0
C2215 C 0.40816 0.02245 0.90228 0.0
C2216 C 0.32717 0.02643 0.89588 0.0
C2217 C 0.34719 0.04198 0.88802 0.0
C2218 C 0.39743 0.04815 0.88736 0.0
C2219 C 0.4276 0.03798 0.89435 0.0
C2220 C 0.3164 0.0527 0.88042 0.0
C2221 C 0.30923 0.09699 0.8783 0.0
C2222 C 0.29696 0.01977 0.87499 0.0
C2223 C 0.30578 0.97249 0.87665 0.0
C2224 C 0.35345 0.95571 0.87676 0.0
C2225 C 0.36145 0.91087 0.87804 0.0
C2226 C 0.32202 0.88235 0.8791 0.0
C2227 C 0.27451 0.89868 0.87894 0.0
C2228 C 0.26633 0.94356 0.87771 0.0
C2229 C 0.22165 0.13554 0.84495 0.0
C2230 C 0.17436 0.119 0.84405 0.0
C2231 C 0.25239 0.11888 0.85141 0.0
C2232 C 0.23508 0.0874 0.85738 0.0
C2233 C 0.18876 0.06889 0.85607 0.0
C2234 C 0.15873 0.08437 0.84939 0.0
C2235 C 0.26323 0.07635 0.86537 0.0
C2236 C 0.27021 0.03201 0.86757 0.0
C2237 C 0.28257 0.10932 0.8709 0.0
C2238 C 0.27519 0.15681 0.86916 0.0
C2239 C 0.22799 0.17443 0.86856 0.0
C2240 C 0.22139 0.21868 0.86644 0.0
C2241 C 0.26171 0.24575 0.86499 0.0
C2242 C 0.30874 0.22869 0.86572 0.0
C2243 C 0.31555 0.18445 0.86783 0.0
H2244 H 0.25652 0.27993 0.86331 0.0
H2245 H 0.32829 0.84762 0.88007 0.0
H2246 H 0.6409 0.06048 0.89518 0.0
H2247 H 0.69669 0.08779 0.88426 0.0
H2248 H 0.73173 0.19825 0.90058 0.0
H2249 H 0.67534 0.17076 0.91172 0.0
H2250 H 0.73062 0.22096 0.88358 0.0
H2251 H 0.79729 0.10254 0.90046 0.0
H2252 H 0.80165 0.02892 0.90687 0.0
H2253 H 0.80617 0.97224 0.88133 0.0
H2254 H 0.80119 0.04575 0.8747 0.0
H2255 H 0.95601 0.24987 0.85975 0.0
H2256 H 0.90195 0.23252 0.87202 0.0
H2257 H 0.82032 0.1441 0.85571 0.0
H2258 H 0.87323 0.16203 0.84337 0.0
H2259 H 0.85464 0.11262 0.87413 0.0
H2260 H 0.75763 0.2216 0.85833 0.0
H2261 H 0.76233 0.29055 0.84991 0.0
H2262 H 0.81753 0.35763 0.87241 0.0
H2263 H 0.81371 0.28873 0.88094 0.0
C2264 C 0.66055 0.0905 0.89655 0.0
C2265 C 0.65493 0.11263 0.90453 0.0
C2266 C 0.69245 0.1061 0.89025 0.0
C2267 C 0.72028 0.14373 0.8918 0.0
C2268 C 0.71209 0.16804 0.89942 0.0
C2269 C 0.67984 0.15238 0.90579 0.0
C2270 C 0.75932 0.15578 0.8856 0.0
C2271 C 0.75815 0.19743 0.88166 0.0
C2272 C 0.79506 0.12475 0.88298 0.0
C2273 C 0.79904 0.08025 0.88704 0.0
C2274 C 0.79941 0.07471 0.89616 0.0
C2275 C 0.80182 0.03279 0.89986 0.0
C2276 C 0.80426 0.9959 0.89452 0.0
C2277 C 0.80437 0.00088 0.88547 0.0
C2278 C 0.80181 0.04274 0.88173 0.0
C2279 C 0.92615 0.22717 0.85876 0.0
C2280 C 0.9185 0.20767 0.85059 0.0
C2281 C 0.89571 0.21701 0.86578 0.0
C2282 C 0.85781 0.18659 0.86476 0.0
C2283 C 0.84981 0.1673 0.85661 0.0
C2284 C 0.87957 0.17811 0.84955 0.0
C2285 C 0.82461 0.17682 0.87208 0.0
C2286 C 0.82726 0.13592 0.87622 0.0
C2287 C 0.78996 0.20785 0.87483 0.0
C2288 C 0.78535 0.25028 0.87025 0.0
C2289 C 0.7701 0.25126 0.8615 0.0
C2290 C 0.7729 0.29015 0.8567 0.0
C2291 C 0.79056 0.32825 0.86062 0.0
C2292 C 0.80403 0.32795 0.8694 0.0
C2293 C 0.80143 0.28903 0.87423 0.0
H2294 H 0.79435 0.35784 0.85681 0.0
H2295 H 0.806 0.96347 0.89739 0.0
H2296 H 0.52184 0.95231 0.64859 0.0
H2297 H 0.57813 0.96214 0.63636 0.0
H2298 H 0.58207 0.82205 0.63258 0.0
H2299 H 0.52657 0.81178 0.64475 0.0
H2300 H 0.67248 0.85765 0.6325 0.0
H2301 H 0.51509 0.88726 0.6195 0.0
H2302 H 0.43676 0.92609 0.61808 0.0
H2303 H 0.51244 0.04788 0.61414 0.0
H2304 H 0.59127 0.00985 0.61565 0.0
H2305 H 0.77454 0.83043 0.59141 0.0
H2306 H 0.71102 0.83264 0.60247 0.0
H2307 H 0.7285 0.9727 0.60463 0.0
H2308 H 0.79239 0.97107 0.59352 0.0
H2309 H 0.6302 0.9429 0.60599 0.0
H2310 H 0.78795 0.91362 0.61819 0.0
H2311 H 0.86649 0.87518 0.61963 0.0
H2312 H 0.79158 0.75471 0.62527 0.0
H2313 H 0.71251 0.79223 0.6237 0.0
C2314 C 0.53448 0.92363 0.64512 0.0
C2315 C 0.5197 0.88127 0.64765 0.0
C2316 C 0.56661 0.92932 0.63814 0.0
C2317 C 0.58411 0.89278 0.63358 0.0
C2318 C 0.56915 0.85062 0.63606 0.0
C2319 C 0.53723 0.84489 0.64301 0.0
C2320 C 0.61827 0.8979 0.62622 0.0
C2321 C 0.6632 0.87615 0.62667 0.0
C2322 C 0.6065 0.923 0.61875 0.0
C2323 C 0.55908 0.9458 0.6178 0.0
C2324 C 0.51503 0.92238 0.61841 0.0
C2325 C 0.47054 0.94423 0.61757 0.0
C2326 C 0.46962 0.98944 0.61605 0.0
C2327 C 0.5132 0.01288 0.61534 0.0
C2328 C 0.5578 0.99119 0.61618 0.0
C2329 C 0.7643 0.86193 0.59408 0.0
C2330 C 0.78936 0.90047 0.59172 0.0
C2331 C 0.72805 0.86305 0.60042 0.0
C2332 C 0.71609 0.90268 0.60448 0.0
C2333 C 0.73769 0.94179 0.60159 0.0
C2334 C 0.77417 0.94074 0.59525 0.0
C2335 C 0.68416 0.9025 0.61221 0.0
C2336 C 0.63982 0.9251 0.61185 0.0
C2337 C 0.69657 0.8784 0.61979 0.0
C2338 C 0.7442 0.8557 0.62074 0.0
C2339 C 0.78816 0.87884 0.61965 0.0
C2340 C 0.83281 0.85722 0.6205 0.0
C2341 C 0.83402 0.81251 0.62251 0.0
C2342 C 0.79058 0.78933 0.62369 0.0
C2343 C 0.74584 0.81077 0.62283 0.0
H2344 H 0.86862 0.79585 0.62318 0.0
H2345 H 0.43514 0.0063 0.61541 0.0
H2346 H 0.07566 0.84813 0.59449 0.0
H2347 H 0.13428 0.84123 0.60645 0.0
H2348 H 0.01833 0.8601 0.62506 0.0
H2349 H 0.95989 0.86849 0.613 0.0
H2350 H 0.0967 0.91157 0.6284 0.0
H2351 H 0.07274 0.75613 0.62088 0.0
H2352 H 0.07376 0.6944 0.61052 0.0
H2353 H 0.2247 0.71881 0.60506 0.0
H2354 H 0.22449 0.78089 0.61533 0.0
H2355 H 0.24469 0.87205 0.66555 0.0
H2356 H 0.179 0.87057 0.65464 0.0
H2357 H 0.28116 0.82369 0.63539 0.0
H2358 H 0.3449 0.82183 0.64642 0.0
H2359 H 0.206 0.78401 0.63263 0.0
H2360 H 0.23842 0.93541 0.63714 0.0
H2361 H 0.24872 0.00491 0.6451 0.0
H2362 H 0.09918 -6e-05 0.65318 0.0
H2363 H 0.08813 0.93003 0.64536 0.0
C2364 C 0.06284 0.85013 0.60116 0.0
C2365 C 0.01367 0.85831 0.60293 0.0
C2366 C 0.09616 0.84608 0.60797 0.0
C2367 C 0.08051 0.84943 0.61665 0.0
C2368 C 0.03104 0.85715 0.6184 0.0
C2369 C -0.00224 0.86172 0.61157 0.0
C2370 C 0.11617 0.84718 0.62387 0.0
C2371 C 0.12009 0.88339 0.62946 0.0
C2372 C 0.14842 0.81138 0.62489 0.0
C2373 C 0.1485 0.77331 0.61886 0.0
C2374 C 0.1061 0.74842 0.61746 0.0
C2375 C 0.10655 0.71335 0.6116 0.0
C2376 C 0.14925 0.70273 0.60713 0.0
C2377 C 0.19166 0.72704 0.60853 0.0
C2378 C 0.19141 0.7621 0.61438 0.0
C2379 C 0.25241 0.86081 0.659 0.0
C2380 C 0.29918 0.84646 0.65677 0.0
C2381 C 0.21524 0.86044 0.65275 0.0
C2382 C 0.22511 0.84755 0.64412 0.0
C2383 C 0.27221 0.83334 0.64198 0.0
C2384 C 0.30866 0.8323 0.64827 0.0
C2385 C 0.18691 0.84858 0.63725 0.0
C2386 C 0.18247 0.81218 0.63169 0.0
C2387 C 0.15603 0.88525 0.63595 0.0
C2388 C 0.16263 0.92709 0.64076 0.0
C2389 C 0.20784 0.94888 0.64068 0.0
C2390 C 0.2138 0.98841 0.64516 0.0
C2391 C 0.17469 0.00674 0.64967 0.0
C2392 C 0.12949 0.98563 0.6497 0.0
C2393 C 0.12336 0.94605 0.64524 0.0
H2394 H 0.17936 0.03735 0.65313 0.0
H2395 H 0.1495 0.67564 0.60259 0.0
H2396 H 0.76152 0.91529 0.1603 0.0
H2397 H 0.69515 0.91699 0.14959 0.0
H2398 H 0.74019 0.79099 0.13984 0.0
H2399 H 0.80567 0.78839 0.15065 0.0
H2400 H 0.72896 0.86553 0.127 0.0
H2401 H 0.65067 0.79073 0.15083 0.0
H2402 H 0.62371 0.78362 0.16607 0.0
H2403 H 0.53087 0.89567 0.16291 0.0
H2404 H 0.55901 0.90475 0.14776 0.0
H2405 H 0.53282 0.81227 0.09849 0.0
H2406 H 0.59143 0.80655 0.11051 0.0
H2407 H 0.53737 0.92759 0.12124 0.0
H2408 H 0.47976 0.93426 0.10907 0.0
H2409 H 0.55252 0.85644 0.13374 0.0
H2410 H 0.63118 0.93793 0.11145 0.0
H2411 H 0.66234 0.95635 0.09684 0.0
H2412 H 0.75539 0.84337 0.09754 0.0
H2413 H 0.72358 0.8234 0.11204 0.0
C2414 C 0.7567 0.88761 0.15598 0.0
C2415 C 0.78866 0.85164 0.15633 0.0
C2416 C 0.71898 0.88872 0.14986 0.0
C2417 C 0.71319 0.85424 0.14392 0.0
C2418 C 0.74434 0.81793 0.14437 0.0
C2419 C 0.78137 0.81635 0.1506 0.0
C2420 C 0.67541 0.85653 0.13708 0.0
C2421 C 0.69038 0.86281 0.12843 0.0
C2422 C 0.62519 0.85474 0.13908 0.0
C2423 C 0.6075 0.84873 0.14816 0.0
C2424 C 0.62498 0.8142 0.1534 0.0
C2425 C 0.60944 0.80977 0.16203 0.0
C2426 C 0.57551 0.83909 0.16545 0.0
C2427 C 0.55718 0.87299 0.16025 0.0
C2428 C 0.57308 0.87788 0.15165 0.0
C2429 C 0.53299 0.83729 0.10349 0.0
C2430 C 0.50181 0.87367 0.10289 0.0
C2431 C 0.5666 0.83412 0.1103 0.0
C2432 C 0.56873 0.86677 0.11671 0.0
C2433 C 0.53618 0.90213 0.11634 0.0
C2434 C 0.50343 0.9059 0.1094 0.0
C2435 C 0.6061 0.86477 0.12363 0.0
C2436 C 0.5911 0.85876 0.13229 0.0
C2437 C 0.65633 0.86781 0.12168 0.0
C2438 C 0.67419 0.87864 0.11278 0.0
C2439 C 0.65747 0.91642 0.10842 0.0
C2440 C 0.67536 0.92723 0.10015 0.0
C2441 C 0.71049 0.90081 0.09622 0.0
C2442 C 0.72779 0.86355 0.10054 0.0
C2443 C 0.70977 0.85242 0.10878 0.0
H2444 H 0.72457 0.90939 0.08985 0.0
H2445 H 0.56342 0.83553 0.17212 0.0
H2446 H 0.05159 0.93977 0.153 0.0
H2447 H 0.11062 0.94779 0.14116 0.0
H2448 H 0.04346 0.83909 0.12773 0.0
H2449 H 0.9868 0.82931 0.13986 0.0
H2450 H 0.13754 0.83179 0.127 0.0
H2451 H 0.02509 0.9566 0.12243 0.0
H2452 H 0.98545 0.02436 0.12759 0.0
H2453 H 0.12542 0.08264 0.13227 0.0
H2454 H 0.16581 0.01517 0.1272 0.0
H2455 H 0.24848 0.85092 0.08619 0.0
H2456 H 0.18586 0.85012 0.09753 0.0
H2457 H 0.24729 0.96807 0.10854 0.0
H2458 H 0.30738 0.97057 0.09692 0.0
H2459 H 0.15902 0.97232 0.11108 0.0
H2460 H 0.27422 0.85825 0.11604 0.0
H2461 H 0.32342 0.79231 0.11314 0.0
H2462 H 0.19316 0.71571 0.11025 0.0
H2463 H 0.14312 0.78132 0.11302 0.0
C2464 C 0.04943 0.91793 0.14748 0.0
C2465 C 0.01467 0.8842 0.14728 0.0
C2466 C 0.08295 0.92257 0.1407 0.0
C2467 C 0.08089 0.8946 0.13344 0.0
C2468 C 0.04576 0.8611 0.13324 0.0
C2469 C 0.01327 0.85565 0.14014 0.0
C2470 C 0.11551 0.89942 0.12608 0.0
C2471 C 0.14174 0.86232 0.12342 0.0
C2472 C 0.12295 0.93984 0.12172 0.0
C2473 C 0.09841 0.98084 0.12446 0.0
C2474 C 0.04735 0.9839 0.12455 0.0
C2475 C 0.02478 0.02223 0.12747 0.0
C2476 C 0.0529 0.05776 0.13026 0.0
C2477 C 0.10367 0.05513 0.1301 0.0
C2478 C 0.12641 0.01691 0.12719 0.0
C2479 C 0.24754 0.87734 0.09088 0.0
C2480 C 0.2828 0.91074 0.09069 0.0
C2481 C 0.21225 0.87654 0.09744 0.0
C2482 C 0.21282 0.90819 0.10409 0.0
C2483 C 0.2461 0.94309 0.10354 0.0
C2484 C 0.28039 0.94462 0.09685 0.0
C2485 C 0.18025 0.90425 0.11179 0.0
C2486 C 0.15472 0.94157 0.11458 0.0
C2487 C 0.17483 0.86434 0.11648 0.0
C2488 C 0.20487 0.8249 0.11464 0.0
C2489 C 0.25603 0.82746 0.1147 0.0
C2490 C 0.28409 0.7901 0.1131 0.0
C2491 C 0.26143 0.74988 0.11148 0.0
C2492 C 0.21066 0.74691 0.11148 0.0
C2493 C 0.18243 0.78418 0.11307 0.0
H2494 H 0.28321 0.72099 0.11026 0.0
H2495 H 0.03535 0.08733 0.13254 0.0
H2496 H 0.37547 0.66117 0.84378 0.0
H2497 H 0.32277 0.6473 0.85623 0.0
H2498 H 0.37925 0.76286 0.86895 0.0
H2499 H 0.43535 0.77456 0.8567 0.0
H2500 H 0.37422 0.70191 0.88024 0.0
H2501 H 0.25717 0.75336 0.8589 0.0
H2502 H 0.21668 0.75392 0.84454 0.0
H2503 H 0.17338 0.6197 0.84815 0.0
H2504 H 0.21407 0.61815 0.86247 0.0
H2505 H 0.1562 0.68697 0.90944 0.0
H2506 H 0.21444 0.71564 0.89863 0.0
H2507 H 0.23808 0.58453 0.88915 0.0
H2508 H 0.18256 0.5556 0.90012 0.0
H2509 H 0.19991 0.66239 0.87697 0.0
H2510 H 0.32585 0.60617 0.89634 0.0
H2511 H 0.36763 0.60021 0.91052 0.0
H2512 H 0.39312 0.73925 0.91049 0.0
H2513 H 0.35086 0.74604 0.89633 0.0
C2514 C 0.37587 0.68414 0.84915 0.0
C2515 C 0.4088 0.71934 0.84924 0.0
C2516 C 0.34557 0.67629 0.85628 0.0
C2517 C 0.34587 0.70467 0.86348 0.0
C2518 C 0.37806 0.74059 0.86347 0.0
C2519 C 0.40975 0.74753 0.85645 0.0
C2520 C 0.31439 0.69541 0.87117 0.0
C2521 C 0.33584 0.69429 0.87951 0.0
C2522 C 0.26445 0.68431 0.87027 0.0
C2523 C 0.23885 0.68564 0.86175 0.0
C2524 C 0.2391 0.72396 0.85662 0.0
C2525 C 0.21613 0.72442 0.84848 0.0
C2526 C 0.19253 0.68686 0.84543 0.0
C2527 C 0.19165 0.64878 0.85052 0.0
C2528 C 0.21456 0.64812 0.85866 0.0
C2529 C 0.17524 0.66426 0.90527 0.0
C2530 C 0.16511 0.61912 0.90569 0.0
C2531 C 0.20804 0.68063 0.89906 0.0
C2532 C 0.23051 0.65201 0.89317 0.0
C2533 C 0.22119 0.60697 0.89369 0.0
C2534 C 0.1892 0.59063 0.89994 0.0
C2535 C 0.25995 0.66888 0.88586 0.0
C2536 C 0.23803 0.6712 0.87764 0.0
C2537 C 0.30931 0.6806 0.88685 0.0
C2538 C 0.3345 0.67672 0.89536 0.0
C2539 C 0.33979 0.63555 0.89941 0.0
C2540 C 0.36374 0.63198 0.90742 0.0
C2541 C 0.38285 0.66936 0.91142 0.0
C2542 C 0.37819 0.71035 0.90739 0.0
C2543 C 0.35427 0.71407 0.89937 0.0
H2544 H 0.4014 0.66655 0.91762 0.0
H2545 H 0.17487 0.68727 0.83912 0.0
H2546 H 0.94648 0.58689 0.89663 0.0
H2547 H 0.88677 0.60449 0.88541 0.0
H2548 H 0.78135 0.52134 0.89817 0.0
H2549 H 0.84132 0.50455 0.90975 0.0
H2550 H 0.80345 0.50587 0.87915 0.0
H2551 H 0.75499 0.62061 0.8988 0.0
H2552 H 0.76599 0.68406 0.90854 0.0
H2553 H 0.82923 0.75809 0.88756 0.0
H2554 H 0.81918 0.69499 0.87771 0.0
H2555 H 0.6266 0.56665 0.84691 0.0
H2556 H 0.67437 0.54336 0.85958 0.0
H2557 H 0.76794 0.65629 0.85638 0.0
H2558 H 0.71819 0.68075 0.84408 0.0
H2559 H 0.74176 0.65453 0.87204 0.0
H2560 H 0.81658 0.54229 0.85431 0.0
H2561 H 0.81846 0.48131 0.84383 0.0
H2562 H 0.71839 0.40821 0.85978 0.0
H2563 H 0.71776 0.46818 0.87055 0.0
C2564 C 0.91052 0.57238 0.89708 0.0
C2565 C 0.89861 0.5438 0.90396 0.0
C2566 C 0.87634 0.58285 0.89071 0.0
C2567 C 0.82969 0.56445 0.891 0.0
C2568 C 0.81722 0.53607 0.8979 0.0
C2569 C 0.85133 0.5264 0.90446 0.0
C2570 C 0.79627 0.57241 0.8836 0.0
C2571 C 0.78876 0.53811 0.87769 0.0
C2572 C 0.7794 0.61502 0.88153 0.0
C2573 C 0.78659 0.6528 0.88752 0.0
C2574 C 0.77174 0.65022 0.89628 0.0
C2575 C 0.77766 0.68621 0.90182 0.0
C2576 C 0.79833 0.72506 0.89867 0.0
C2577 C 0.8132 0.72799 0.88999 0.0
C2578 C 0.80732 0.69212 0.88442 0.0
C2579 C 0.65833 0.58559 0.84877 0.0
C2580 C 0.66893 0.62536 0.84457 0.0
C2581 C 0.68572 0.57233 0.85602 0.0
C2582 C 0.72488 0.59812 0.85901 0.0
C2583 C 0.73761 0.63608 0.85431 0.0
C2584 C 0.70956 0.64983 0.84723 0.0
C2585 C 0.74969 0.58812 0.86744 0.0
C2586 C 0.75569 0.62209 0.87353 0.0
C2587 C 0.76674 0.54568 0.86957 0.0
C2588 C 0.76666 0.50975 0.86315 0.0
C2589 C 0.7949 0.51322 0.85555 0.0
C2590 C 0.79592 0.47877 0.84959 0.0
C2591 C 0.76807 0.44109 0.85109 0.0
C2592 C 0.73979 0.43749 0.85862 0.0
C2593 C 0.73951 0.47147 0.8647 0.0
H2594 H 0.76869 0.41444 0.84645 0.0
H2595 H 0.80274 0.75291 0.90297 0.0
H2596 H 0.19865 0.69749 0.34989 0.0
H2597 H 0.25619 0.66833 0.36046 0.0
H2598 H 0.22523 0.53685 0.35169 0.0
H2599 H 0.16462 0.56572 0.34157 0.0
H2600 H 0.21834 0.54049 0.36844 0.0
H2601 H 0.33322 0.59376 0.34785 0.0
H2602 H 0.37516 0.64563 0.3381 0.0
H2603 H 0.41407 0.72568 0.35998 0.0
H2604 H 0.37193 0.67452 0.36989 0.0
H2605 H 0.43375 0.46985 0.39465 0.0
H2606 H 0.38371 0.48583 0.38172 0.0
H2607 H 0.32542 0.59998 0.39448 0.0
H2608 H 0.37351 0.5831 0.40753 0.0
H2609 H 0.38409 0.59701 0.3747 0.0
H2610 H 0.24508 0.55776 0.39364 0.0
H2611 H 0.20391 0.50702 0.4038 0.0
H2612 H 0.21092 0.40461 0.3847 0.0
H2613 H 0.25343 0.45451 0.37454 0.0
C2614 C 0.20428 0.66234 0.35015 0.0
C2615 C 0.17715 0.63389 0.34482 0.0
C2616 C 0.23773 0.64576 0.35613 0.0
C2617 C 0.24558 0.60043 0.35679 0.0
C2618 C 0.21995 0.57201 0.35125 0.0
C2619 C 0.18575 0.58858 0.34537 0.0
C2620 C 0.27634 0.58272 0.36391 0.0
C2621 C 0.25495 0.55239 0.36967 0.0
C2622 C 0.32384 0.59889 0.36564 0.0
C2623 C 0.34931 0.62995 0.35965 0.0
C2624 C 0.35062 0.62235 0.35061 0.0
C2625 C 0.37444 0.65173 0.34504 0.0
C2626 C 0.3973 0.68892 0.34842 0.0
C2627 C 0.39642 0.69679 0.35738 0.0
C2628 C 0.37263 0.66751 0.36298 0.0
C2629 C 0.40896 0.49745 0.39477 0.0
C2630 C 0.40666 0.52487 0.40209 0.0
C2631 C 0.3809 0.50674 0.38739 0.0
C2632 C 0.35124 0.54406 0.3872 0.0
C2633 C 0.34796 0.57084 0.39458 0.0
C2634 C 0.37491 0.5609 0.40204 0.0
C2635 C 0.32519 0.55629 0.37917 0.0
C2636 C 0.34768 0.58515 0.37329 0.0
C2637 C 0.2786 0.53948 0.37733 0.0
C2638 C 0.25325 0.5095 0.38342 0.0
C2639 C 0.23859 0.52419 0.39168 0.0
C2640 C 0.21491 0.49562 0.39743 0.0
C2641 C 0.20516 0.45245 0.39493 0.0
C2642 C 0.21887 0.43789 0.38667 0.0
C2643 C 0.24282 0.46627 0.38091 0.0
H2644 H 0.18677 0.43037 0.39939 0.0
H2645 H 0.41567 0.71166 0.34409 0.0
H2646 H 0.605 0.6599 0.39885 0.0
H2647 H 0.66266 0.68364 0.38758 0.0
H2648 H 0.78091 0.62749 0.40241 0.0
H2649 H 0.72325 0.60479 0.41379 0.0
H2650 H 0.80772 0.70302 0.39348 0.0
H2651 H 0.72156 0.56603 0.38772 0.0
H2652 H 0.64664 0.5223 0.38583 0.0
H2653 H 0.60233 0.6059 0.3647 0.0
H2654 H 0.67668 0.65048 0.36653 0.0
H2655 H 0.97605 0.6882 0.35999 0.0
H2656 H 0.92373 0.66661 0.37191 0.0
H2657 H 0.79832 0.67674 0.35502 0.0
H2658 H 0.85245 0.68669 0.34265 0.0
H2659 H 0.77401 0.6264 0.36564 0.0
H2660 H 0.85554 0.76677 0.37128 0.0
H2661 H 0.9292 0.81249 0.37296 0.0
H2662 H 0.97833 0.72982 0.3939 0.0
H2663 H 0.90521 0.68344 0.3923 0.0
C2664 C 0.64358 0.6543 0.39982 0.0
C2665 C 0.66022 0.63087 0.4071 0.0
C2666 C 0.67633 0.66748 0.39339 0.0
C2667 C 0.72574 0.65636 0.39411 0.0
C2668 C 0.74286 0.6362 0.40175 0.0
C2669 C 0.71012 0.62338 0.40823 0.0
C2670 C 0.75844 0.66093 0.38653 0.0
C2671 C 0.80054 0.68643 0.38736 0.0
C2672 C 0.74851 0.63949 0.37856 0.0
C2673 C 0.70452 0.61179 0.37731 0.0
C2674 C 0.69576 0.57517 0.38269 0.0
C2675 C 0.65339 0.55024 0.38163 0.0
C2676 C 0.6197 0.56137 0.37516 0.0
C2677 C 0.62843 0.59734 0.36971 0.0
C2678 C 0.6707 0.62241 0.37075 0.0
C2679 C 0.93727 0.68594 0.35878 0.0
C2680 C 0.91776 0.69377 0.35045 0.0
C2681 C 0.90712 0.67418 0.3657 0.0
C2682 C 0.85632 0.6741 0.36467 0.0
C2683 C 0.83715 0.67841 0.35619 0.0
C2684 C 0.86796 0.68592 0.3491 0.0
C2685 C 0.82332 0.67014 0.37235 0.0
C2686 C 0.78119 0.64411 0.37162 0.0
C2687 C 0.83265 0.69208 0.38036 0.0
C2688 C 0.87502 0.7216 0.38165 0.0
C2689 C 0.88194 0.75854 0.37627 0.0
C2690 C 0.92368 0.78445 0.37719 0.0
C2691 C 0.95844 0.77403 0.38352 0.0
C2692 C 0.95138 0.73787 0.389 0.0
C2693 C 0.90975 0.71183 0.38811 0.0
H2694 H 0.99084 0.79399 0.38419 0.0
H2695 H 0.58688 0.54209 0.37437 0.0
H2696 H 0.47477 0.33883 0.1401 0.0
H2697 H 0.53147 0.34612 0.12792 0.0
H2698 H 0.60693 0.44964 0.14156 0.0
H2699 H 0.54803 0.4441 0.15352 0.0
H2700 H 0.606 0.46945 0.12561 0.0
H2701 H 0.64904 0.33859 0.14069 0.0
H2702 H 0.63725 0.26601 0.14753 0.0
H2703 H 0.59466 0.2122 0.12285 0.0
H2704 H 0.60559 0.28461 0.11588 0.0
H2705 H 0.82097 0.45622 0.10035 0.0
H2706 H 0.75975 0.45534 0.11175 0.0
H2707 H 0.67955 0.35579 0.09783 0.0
H2708 H 0.7437 0.35406 0.08667 0.0
H2709 H 0.68388 0.33494 0.11409 0.0
H2710 H 0.64571 0.47412 0.0995 0.0
H2711 H 0.6691 0.54712 0.09387 0.0
H2712 H 0.71536 0.58557 0.11946 0.0
H2713 H 0.69274 0.51271 0.12522 0.0
C2714 C 0.5031 0.36355 0.14041 0.0
C2715 C 0.50722 0.39094 0.1477 0.0
C2716 C 0.53582 0.36738 0.13351 0.0
C2717 C 0.57447 0.39753 0.13391 0.0
C2718 C 0.57761 0.42596 0.1411 0.0
C2719 C 0.54395 0.42293 0.14791 0.0
C2720 C 0.61153 0.39921 0.12686 0.0
C2721 C 0.62331 0.44002 0.12315 0.0
C2722 C 0.63427 0.36087 0.12361 0.0
C2723 C 0.62764 0.31719 0.12778 0.0
C2724 C 0.6368 0.31137 0.13673 0.0
C2725 C 0.63034 0.27024 0.14063 0.0
C2726 C 0.61509 0.23455 0.13563 0.0
C2727 C 0.6064 0.23989 0.12672 0.0
C2728 C 0.61277 0.28097 0.12279 0.0
C2729 C 0.78967 0.43489 0.0996 0.0
C2730 C 0.78652 0.40579 0.09254 0.0
C2731 C 0.75451 0.43447 0.10613 0.0
C2732 C 0.71408 0.40641 0.10557 0.0
C2733 C 0.71019 0.37802 0.09839 0.0
C2734 C 0.74648 0.3773 0.09198 0.0
C2735 C 0.67744 0.40504 0.11271 0.0
C2736 C 0.66607 0.36426 0.11648 0.0
C2737 C 0.65617 0.44354 0.11619 0.0
C2738 C 0.66766 0.48793 0.11277 0.0
C2739 C 0.66083 0.49818 0.10392 0.0
C2740 C 0.67402 0.5395 0.10071 0.0
C2741 C 0.69374 0.57094 0.1063 0.0
C2742 C 0.70005 0.56122 0.11514 0.0
C2743 C 0.68694 0.51996 0.11838 0.0
H2744 H 0.70409 0.60285 0.1038 0.0
H2745 H 0.61011 0.20274 0.13866 0.0
H2746 H 0.23856 0.38356 0.16489 0.0
H2747 H 0.17382 0.38341 0.15372 0.0
H2748 H 0.2698 0.31648 0.13597 0.0
H2749 H 0.3332 0.31453 0.14719 0.0
H2750 H 0.2181 0.40076 0.12987 0.0
H2751 H 0.19877 0.25586 0.14127 0.0
H2752 H 0.18964 0.20058 0.15291 0.0
H2753 H 0.05438 0.25913 0.16065 0.0
H2754 H 0.06335 0.31549 0.14916 0.0
H2755 H 0.06062 0.33276 0.09545 0.0
H2756 H 0.11908 0.32652 0.10752 0.0
H2757 H 0.01615 0.38842 0.12475 0.0
H2758 H 0.95826 0.39616 0.11257 0.0
H2759 H 0.07044 0.30682 0.13128 0.0
H2760 H 0.09216 0.45078 0.11822 0.0
H2761 H 0.10539 0.50091 0.1058 0.0
H2762 H 0.24128 0.43762 0.10019 0.0
H2763 H 0.22837 0.38646 0.11248 0.0
C2764 C 0.24519 0.36812 0.15865 0.0
C2765 C 0.29018 0.3483 0.1569 0.0
C2766 C 0.20856 0.36825 0.15229 0.0
C2767 C 0.21733 0.34995 0.14405 0.0
C2768 C 0.26245 0.33059 0.1423 0.0
C2769 C 0.2983 0.32914 0.14873 0.0
C2770 C 0.17967 0.35126 0.13718 0.0
C2771 C 0.1859 0.38014 0.13014 0.0
C2772 C 0.13797 0.32418 0.13758 0.0
C2773 C 0.13218 0.29038 0.14447 0.0
C2774 C 0.16744 0.25737 0.14554 0.0
C2775 C 0.16223 0.22575 0.15209 0.0
C2776 C 0.12158 0.22648 0.15755 0.0
C2777 C 0.08596 0.25873 0.15644 0.0
C2778 C 0.0911 0.29055 0.14991 0.0
C2779 C 0.05041 0.34441 0.10186 0.0
C2780 C 0.00526 0.36474 0.10318 0.0
C2781 C 0.08368 0.34095 0.10871 0.0
C2782 C 0.07177 0.35709 0.11698 0.0
C2783 C 0.02577 0.37574 0.11839 0.0
C2784 C 0.99292 0.38019 0.11148 0.0
C2785 C 0.10852 0.35674 0.12401 0.0
C2786 C 0.10232 0.32783 0.13106 0.0
C2787 C 0.15079 0.38322 0.12352 0.0
C2788 C 0.15897 0.4144 0.11621 0.0
C2789 C 0.12461 0.44722 0.11428 0.0
C2790 C 0.1321 0.47588 0.10727 0.0
C2791 C 0.17407 0.47236 0.10219 0.0
C2792 C 0.20873 0.44025 0.10412 0.0
C2793 C 0.20135 0.41141 0.11111 0.0
H2794 H 0.17982 0.49459 0.09677 0.0
H2795 H 0.11759 0.20195 0.16262 0.0
H2796 H 0.48077 0.3008 0.60907 0.0
H2797 H 0.53762 0.29162 0.62138 0.0
H2798 H 0.63035 0.39232 0.61057 0.0
H2799 H 0.57345 0.40242 0.5985 0.0
H2800 H 0.68173 0.3187 0.61639 0.0
H2801 H 0.56727 0.4234 0.62563 0.0
H2802 H 0.48782 0.45708 0.62882 0.0
H2803 H 0.45715 0.35528 0.64744 0.0
H2804 H 0.53629 0.32047 0.64424 0.0
H2805 H 0.80905 0.41211 0.65254 0.0
H2806 H 0.74609 0.405 0.64141 0.0
H2807 H 0.70819 0.2771 0.65137 0.0
H2808 H 0.77263 0.28321 0.66245 0.0
H2809 H 0.62803 0.35613 0.64632 0.0
H2810 H 0.76363 0.26233 0.63666 0.0
H2811 H 0.8503 0.24995 0.6333 0.0
H2812 H 0.84714 0.35499 0.61461 0.0
H2813 H 0.76095 0.36902 0.61806 0.0
C2814 C 0.51349 0.32063 0.60933 0.0
C2815 C 0.52271 0.35251 0.60292 0.0
C2816 C 0.54575 0.31548 0.61634 0.0
C2817 C 0.58802 0.34139 0.61686 0.0
C2818 C 0.59798 0.37201 0.61027 0.0
C2819 C 0.56535 0.37789 0.60342 0.0
C2820 C 0.62126 0.33818 0.62441 0.0
C2821 C 0.66993 0.32643 0.62295 0.0
C2822 C 0.60595 0.34942 0.63291 0.0
C2823 C 0.55736 0.36886 0.63458 0.0
C2824 C 0.54325 0.40771 0.63029 0.0
C2825 C 0.4984 0.42716 0.63214 0.0
C2826 C 0.4675 0.40833 0.63833 0.0
C2827 C 0.48119 0.3698 0.64264 0.0
C2828 C 0.52602 0.35016 0.64081 0.0
C2829 C 0.78687 0.3827 0.65249 0.0
C2830 C 0.79585 0.34812 0.65837 0.0
C2831 C 0.75113 0.37867 0.64609 0.0
C2832 C 0.72312 0.3404 0.64555 0.0
C2833 C 0.72989 0.30675 0.65169 0.0
C2834 C 0.76653 0.31031 0.658 0.0
C2835 C 0.68807 0.33546 0.63834 0.0
C2836 C 0.63928 0.3466 0.63983 0.0
C2837 C 0.70386 0.32571 0.62979 0.0
C2838 C 0.75588 0.31714 0.62773 0.0
C2839 C 0.78158 0.2833 0.63194 0.0
C2840 C 0.83067 0.27594 0.63001 0.0
C2841 C 0.85434 0.30187 0.62379 0.0
C2842 C 0.82892 0.33513 0.61947 0.0
C2843 C 0.77995 0.34282 0.62142 0.0
H2844 H 0.89228 0.29607 0.62228 0.0
H2845 H 0.43299 0.42365 0.63981 0.0
H2846 H 0.31131 0.45961 0.59905 0.0
H2847 H 0.2454 0.45906 0.60972 0.0
H2848 H 0.19864 0.33238 0.60053 0.0
H2849 H 0.26544 0.33202 0.58992 0.0
H2850 H 0.12035 0.39864 0.60471 0.0
H2851 H 0.258 0.32346 0.6164 0.0
H2852 H 0.34434 0.31182 0.62011 0.0
H2853 H 0.34238 0.42585 0.63643 0.0
H2854 H 0.2562 0.43874 0.63267 0.0
H2855 H 0.99635 0.32032 0.64265 0.0
H2856 H 0.0513 0.32811 0.63022 0.0
H2857 H 0.10077 0.45272 0.64008 0.0
H2858 H 0.04505 0.44557 0.65252 0.0
H2859 H 0.17664 0.38781 0.63541 0.0
H2860 H 0.03551 0.46055 0.62349 0.0
H2861 H 0.94805 0.46675 0.62006 0.0
H2862 H 0.95571 0.34978 0.60463 0.0
H2863 H 0.04327 0.34271 0.60803 0.0
C2864 C 0.28647 0.43199 0.59915 0.0
C2865 C 0.29385 0.39566 0.59369 0.0
C2866 C 0.24894 0.43171 0.60528 0.0
C2867 C 0.21763 0.39553 0.60593 0.0
C2868 C 0.22261 0.36055 0.6001 0.0
C2869 C 0.26079 0.36039 0.59407 0.0
C2870 C 0.18251 0.39292 0.6132 0.0
C2871 C 0.13255 0.39587 0.61141 0.0
C2872 C 0.19871 0.38963 0.62194 0.0
C2873 C 0.2508 0.38249 0.62414 0.0
C2874 C 0.27615 0.34647 0.62068 0.0
C2875 C 0.32503 0.33954 0.62281 0.0
C2876 C 0.3489 0.36816 0.62847 0.0
C2877 C 0.32391 0.40377 0.63202 0.0
C2878 C 0.27502 0.41093 0.62989 0.0
C2879 C 0.01865 0.34955 0.64215 0.0
C2880 C 0.01648 0.38235 0.64855 0.0
C2881 C 0.0499 0.35396 0.63504 0.0
C2882 C 0.07994 0.39094 0.63426 0.0
C2883 C 0.07773 0.42395 0.6406 0.0
C2884 C 0.04577 0.41994 0.64765 0.0
C2885 C 0.11455 0.39421 0.62693 0.0
C2886 C 0.16449 0.39104 0.62871 0.0
C2887 C 0.09829 0.39664 0.6182 0.0
C2888 C 0.04586 0.401 0.61604 0.0
C2889 C 0.01848 0.43602 0.6194 0.0
C2890 C 0.96893 0.43973 0.61746 0.0
C2891 C 0.94636 0.40869 0.61213 0.0
C2892 C 0.9733 0.37385 0.60874 0.0
C2893 C 0.02292 0.37003 0.61066 0.0
H2894 H 0.90805 0.41177 0.6106 0.0
H2895 H 0.38668 0.36257 0.63013 0.0
H2896 H 0.26934 0.35264 0.52907 0.0
H2897 H 0.22727 0.31572 0.51695 0.0
H2898 H 0.36562 0.29342 0.50439 0.0
H2899 H 0.40754 0.32902 0.51654 0.0
H2900 H 0.28968 0.32783 0.49357 0.0
H2901 H 0.32403 0.21531 0.51474 0.0
H2902 H 0.32118 0.17943 0.52914 0.0
H2903 H 0.16541 0.17176 0.52755 0.0
H2904 H 0.16715 0.20839 0.5132 0.0
H2905 H 0.25043 0.16778 0.46209 0.0
H2906 H 0.28229 0.196 0.47582 0.0
H2907 H 0.13608 0.21622 0.48514 0.0
H2908 H 0.10347 0.18757 0.4715 0.0
H2909 H 0.20934 0.18343 0.49804 0.0
H2910 H 0.17838 0.29415 0.47605 0.0
H2911 H 0.18551 0.32869 0.46156 0.0
H2912 H 0.3403 0.33915 0.46486 0.0
H2913 H 0.3344 0.30309 0.47919 0.0
C2914 C 0.29031 0.34038 0.52362 0.0
C2915 C 0.34121 0.34338 0.52358 0.0
C2916 C 0.26653 0.31916 0.5168 0.0
C2917 C 0.29373 0.30175 0.50992 0.0
C2918 C 0.3444 0.30663 0.50972 0.0
C2919 C 0.36813 0.3269 0.51659 0.0
C2920 C 0.2699 0.2779 0.50287 0.0
C2921 C 0.27227 0.29618 0.49452 0.0
C2922 C 0.24687 0.23699 0.50426 0.0
C2923 C 0.24567 0.21538 0.51295 0.0
C2924 C 0.28907 0.20662 0.51751 0.0
C2925 C 0.28767 0.18595 0.52566 0.0
C2926 C 0.2431 0.1734 0.52927 0.0
C2927 C 0.19986 0.18153 0.52475 0.0
C2928 C 0.20103 0.20229 0.51661 0.0
C2929 C 0.22497 0.17725 0.46713 0.0
C2930 C 0.17446 0.17632 0.46568 0.0
C2931 C 0.24325 0.19315 0.47495 0.0
C2932 C 0.21122 0.20808 0.48138 0.0
C2933 C 0.16095 0.20426 0.48022 0.0
C2934 C 0.14256 0.18846 0.4724 0.0
C2935 C 0.23 0.23314 0.48874 0.0
C2936 C 0.22643 0.21524 0.49713 0.0
C2937 C 0.25247 0.27431 0.48739 0.0
C2938 C 0.25601 0.29523 0.47865 0.0
C2939 C 0.21406 0.30301 0.47361 0.0
C2940 C 0.21788 0.32297 0.46542 0.0
C2941 C 0.26337 0.33601 0.46226 0.0
C2942 C 0.30513 0.32887 0.46727 0.0
C2943 C 0.30158 0.30854 0.47542 0.0
H2944 H 0.26623 0.3519 0.45597 0.0
H2945 H 0.24209 0.15719 0.53556 0.0
H2946 H 0.96049 0.87574 0.52232 0.0
H2947 H 0.96208 0.89776 0.50724 0.0
H2948 H 0.08561 0.98171 0.51248 0.0
H2949 H 0.07839 0.96426 0.52811 0.0
H2950 H 0.03542 0.02295 0.50276 0.0
H2951 H 0.08039 0.8709 0.49948 0.0
H2952 H 0.07175 0.79098 0.50158 0.0
H2953 H 0.93229 0.79404 0.48893 0.0
H2954 H 0.93999 0.87388 0.48677 0.0
H2955 H 0.08588 0.03775 0.45634 0.0
H2956 H 0.08906 0.00601 0.47103 0.0
H2957 H 0.93235 0.00828 0.47232 0.0
H2958 H 0.92922 0.04285 0.45776 0.0
H2959 H 0.00192 0.92263 0.47812 0.0
H2960 H 0.96069 0.07689 0.48176 0.0
H2961 H 0.97098 0.15691 0.48052 0.0
H2962 H 0.11018 0.14788 0.49316 0.0
H2963 H 0.10191 0.06762 0.49403 0.0
C2964 C 0.98868 0.89822 0.52024 0.0
C2965 C 0.01997 0.91755 0.52637 0.0
C2966 C 0.99008 0.91046 0.5115 0.0
C2967 C 0.02519 0.94027 0.50845 0.0
C2968 C 0.05819 0.95836 0.51455 0.0
C2969 C 0.05478 0.94794 0.52348 0.0
C2970 C 0.02419 0.95543 0.49912 0.0
C2971 C 0.02932 0.00054 0.4974 0.0
C2972 C 0.01446 0.92686 0.49199 0.0
C2973 C 0.01062 0.87851 0.49304 0.0
C2974 C 0.04786 0.85454 0.49716 0.0
C2975 C 0.04313 0.80923 0.49835 0.0
C2976 C 0.00146 0.78747 0.49541 0.0
C2977 C 0.96455 0.81092 0.49121 0.0
C2978 C 0.96914 0.85618 0.48998 0.0
C2979 C 0.05203 0.03019 0.45966 0.0
C2980 C 0.00718 0.04145 0.45583 0.0
C2981 C 0.05396 0.01264 0.46808 0.0
C2982 C 0.01102 0.0053 0.47278 0.0
C2983 C 0.96591 0.01398 0.46879 0.0
C2984 C 0.96404 0.033 0.46044 0.0
C2985 C 0.01376 0.98946 0.48193 0.0
C2986 C 0.00889 0.94443 0.48355 0.0
C2987 C 0.02471 0.01788 0.48893 0.0
C2988 C 0.03118 0.06591 0.48774 0.0
C2989 C 0.99422 0.0917 0.484 0.0
C2990 C -0.00041 0.13724 0.48341 0.0
C2991 C 0.04135 0.1575 0.48669 0.0
C2992 C 0.07805 0.13222 0.49052 0.0
C2993 C 0.07316 0.08666 0.49101 0.0
H2994 H 0.04513 0.19279 0.48633 0.0
H2995 H -0.00219 0.75243 0.49637 0.0
H2996 H 0.27341 0.88147 0.72463 0.0
H2997 H 0.22914 0.9185 0.73638 0.0
H2998 H 0.35786 0.99347 0.74258 0.0
H2999 H 0.40187 0.95769 0.73078 0.0
H3000 H 0.30895 0.93883 0.75642 0.0
H3001 H 0.28573 0.04802 0.73413 0.0
H3002 H 0.26018 0.07422 0.71963 0.0
H3003 H 0.1123 0.03835 0.72527 0.0
H3004 H 0.1372 0.0108 0.73975 0.0
H3005 H 0.24119 0.07838 0.78882 0.0
H3006 H 0.26824 0.06282 0.77407 0.0
H3007 H 0.12978 0.00263 0.76828 0.0
H3008 H 0.10169 0.01852 0.78304 0.0
H3009 H 0.17854 0.05088 0.75365 0.0
H3010 H 0.20361 0.93832 0.77571 0.0
H3011 H 0.23001 0.91359 0.79028 0.0
H3012 H 0.37588 0.95627 0.7848 0.0
H3013 H 0.35002 0.9823 0.77026 0.0
C3014 C 0.29207 0.90585 0.72852 0.0
C3015 C 0.34088 0.91677 0.7269 0.0
C3016 C 0.26675 0.92715 0.73511 0.0
C3017 C 0.29047 0.95881 0.74015 0.0
C3018 C 0.33921 0.96942 0.7386 0.0
C3019 C 0.36417 0.94889 0.73193 0.0
C3020 C 0.26604 0.97809 0.7476 0.0
C3021 C 0.28066 0.96352 0.75584 0.0
C3022 C 0.22876 0.00961 0.74667 0.0
C3023 C 0.21353 0.02655 0.73799 0.0
C3024 C 0.24788 0.04506 0.73224 0.0
C3025 C 0.23349 0.0603 0.72403 0.0
C3026 C 0.18469 0.05774 0.72151 0.0
C3027 C 0.15014 0.04014 0.72722 0.0
C3028 C 0.16438 0.02467 0.73543 0.0
C3029 C 0.21623 0.06214 0.78442 0.0
C3030 C 0.1699 0.04831 0.78716 0.0
C3031 C 0.23147 0.05404 0.77597 0.0
C3032 C 0.20091 0.03146 0.77022 0.0
C3033 C 0.15349 0.02031 0.7727 0.0
C3034 C 0.13801 0.02864 0.78115 0.0
C3035 C 0.22196 0.01184 0.76244 0.0
C3036 C 0.20662 0.02603 0.75419 0.0
C3037 C 0.25872 0.97975 0.76331 0.0
C3038 C 0.27474 0.9627 0.77193 0.0
C3039 C 0.24122 0.94275 0.77764 0.0
C3040 C 0.25609 0.9285 0.78589 0.0
C3041 C 0.30457 0.93346 0.78848 0.0
C3042 C 0.33831 0.95253 0.78279 0.0
C3043 C 0.32357 0.96706 0.77455 0.0
H3044 H 0.316 0.92243 0.79487 0.0
H3045 H 0.17368 0.06953 0.71515 0.0
H3046 H -0.00217 0.24648 0.80012 0.0
H3047 H -0.00098 0.28591 0.78605 0.0
H3048 H 0.01624 0.16329 0.77256 0.0
H3049 H 0.01234 0.12381 0.78624 0.0
H3050 H 0.09062 0.24352 0.76948 0.0
H3051 H 0.92389 0.18694 0.76865 0.0
H3052 H 0.84136 0.17775 0.77469 0.0
H3053 H 0.82248 0.31753 0.77496 0.0
H3054 H 0.90548 0.32752 0.76907 0.0
H3055 H 0.01936 0.24801 0.72332 0.0
H3056 H 0.03098 0.22933 0.73875 0.0
H3057 H 0.01888 0.36583 0.74554 0.0
H3058 H 0.00925 0.38501 0.73017 0.0
H3059 H 0.94438 0.29037 0.75289 0.0
H3060 H 0.10912 0.34528 0.75143 0.0
H3061 H 0.19065 0.35125 0.74482 0.0
H3062 H 0.21256 0.21293 0.7484 0.0
H3063 H 0.13075 0.20605 0.75493 0.0
C3064 C 0.00061 0.22789 0.79414 0.0
C3065 C 0.00471 0.18183 0.7944 0.0
C3066 C 0.00178 0.25047 0.78612 0.0
C3067 C 0.00827 0.2274 0.77828 0.0
C3068 C 0.01144 0.18168 0.77853 0.0
C3069 C 0.00882 0.15917 0.78643 0.0
C3070 C 0.01249 0.25006 0.76973 0.0
C3071 C 0.05871 0.25415 0.76588 0.0
C3072 C 0.97092 0.26381 0.76504 0.0
C3073 C 0.92119 0.258 0.76859 0.0
C3074 C 0.90244 0.21573 0.77013 0.0
C3075 C 0.85552 0.21036 0.77349 0.0
C3076 C 0.82678 0.24704 0.77526 0.0
C3077 C 0.84488 0.28916 0.77363 0.0
C3078 C 0.89188 0.29469 0.77028 0.0
C3079 C 0.02146 0.27422 0.72805 0.0
C3080 C 0.01377 0.31801 0.72547 0.0
C3081 C 0.02756 0.26348 0.73688 0.0
C3082 C 0.02523 0.2962 0.74328 0.0
C3083 C 0.02082 0.34014 0.74069 0.0
C3084 C 0.01598 0.35103 0.73187 0.0
C3085 C 0.0225 0.2839 0.75263 0.0
C3086 C 0.97645 0.28106 0.75658 0.0
C3087 C 0.06421 0.27116 0.75739 0.0
C3088 C 0.11362 0.27508 0.75358 0.0
C3089 C 0.13113 0.31606 0.75073 0.0
C3090 C 0.17744 0.31963 0.74702 0.0
C3091 C 0.20672 0.28246 0.74616 0.0
C3092 C 0.1898 0.24168 0.74906 0.0
C3093 C 0.14349 0.23794 0.75278 0.0
H3094 H 0.24255 0.28529 0.74328 0.0
H3095 H 0.79043 0.24283 0.77785 0.0
H3096 H 0.74001 0.66407 0.46294 0.0
H3097 H 0.76744 0.68659 0.47739 0.0
H3098 H 0.63089 0.7528 0.48168 0.0
H3099 H 0.60279 0.7305 0.4673 0.0
H3100 H 0.72152 0.80334 0.48333 0.0
H3101 H 0.64532 0.6674 0.49269 0.0
H3102 H 0.63293 0.5877 0.491 0.0
H3103 H 0.78412 0.56504 0.49647 0.0
H3104 H 0.79767 0.64462 0.49806 0.0
H3105 H 0.788 0.87536 0.52494 0.0
H3106 H 0.73908 0.84087 0.51353 0.0
H3107 H 0.85291 0.7458 0.50925 0.0
H3108 H 0.90146 0.7794 0.52073 0.0
H3109 H 0.76431 0.7078 0.50846 0.0
H3110 H 0.84799 0.83211 0.4969 0.0
H3111 H 0.87464 0.90928 0.49613 0.0
H3112 H 0.72661 0.9505 0.49244 0.0
H3113 H 0.69885 0.87361 0.49344 0.0
C3114 C 0.71577 0.68331 0.46696 0.0
C3115 C 0.66946 0.69585 0.46399 0.0
C3116 C 0.73127 0.69565 0.47521 0.0
C3117 C 0.70069 0.72072 0.48051 0.0
C3118 C 0.65445 0.73304 0.47762 0.0
C3119 C 0.63874 0.72047 0.46941 0.0
C3120 C 0.71915 0.738 0.4887 0.0
C3121 C 0.72977 0.78285 0.48894 0.0
C3122 C 0.73155 0.71023 0.49572 0.0
C3123 C 0.72261 0.66213 0.49542 0.0
C3124 C 0.67597 0.64547 0.49352 0.0
C3125 C 0.66875 0.60031 0.49257 0.0
C3126 C 0.70784 0.57145 0.49353 0.0
C3127 C 0.75396 0.58752 0.49567 0.0
C3128 C 0.7614 0.63265 0.49662 0.0
C3129 C 0.80251 0.84721 0.52153 0.0
C3130 C 0.84848 0.83019 0.52361 0.0
C3131 C 0.77447 0.82735 0.51512 0.0
C3132 C 0.79266 0.79093 0.51062 0.0
C3133 C 0.83825 0.77358 0.51276 0.0
C3134 C 0.86603 0.79307 0.51923 0.0
C3135 C 0.76633 0.77343 0.50312 0.0
C3136 C 0.75472 0.72857 0.50296 0.0
C3137 C 0.75464 0.80078 0.49598 0.0
C3138 C 0.77123 0.84712 0.49537 0.0
C3139 C 0.82103 0.85764 0.49602 0.0
C3140 C 0.83637 0.90132 0.49553 0.0
C3141 C 0.80234 0.93475 0.49425 0.0
C3142 C 0.75291 0.92456 0.49346 0.0
C3143 C 0.73733 0.88095 0.494 0.0
H3144 H 0.8143 0.96854 0.49384 0.0
H3145 H 0.70243 0.53664 0.49261 0.0
H3146 H 0.84734 0.00488 0.21948 0.0
H3147 H 0.80468 0.0478 0.23042 0.0
H3148 H 0.71535 0.93567 0.23676 0.0
H3149 H 0.75794 0.89214 0.22582 0.0
H3150 H 0.66932 0.02246 0.23892 0.0
H3151 H 0.82244 0.94312 0.24382 0.0
H3152 H 0.9098 0.9291 0.24175 0.0
H3153 H 0.94325 0.05854 0.2509 0.0
H3154 H 0.85574 0.07392 0.25275 0.0
H3155 H 0.62391 0.99711 0.28323 0.0
H3156 H 0.65055 0.98902 0.26808 0.0
H3157 H 0.74306 0.10281 0.27074 0.0
H3158 H 0.71644 0.11109 0.28584 0.0
H3159 H 0.78922 0.03396 0.26306 0.0
H3160 H 0.64632 0.1162 0.25922 0.0
H3161 H 0.561 0.13752 0.26172 0.0
H3162 H 0.51237 0.01513 0.251 0.0
H3163 H 0.59757 0.99285 0.24851 0.0
C3164 C 0.81803 0.98948 0.22309 0.0
C3165 C 0.8072 0.94464 0.22208 0.0
C3166 C 0.79326 0.01433 0.22922 0.0
C3167 C 0.75777 0.99447 0.23444 0.0
C3168 C 0.74289 0.95129 0.23276 0.0
C3169 C 0.76766 0.92634 0.2266 0.0
C3170 C 0.74429 0.01445 0.24275 0.0
C3171 C 0.6954 0.02525 0.2442 0.0
C3172 C 0.77925 0.01947 0.24948 0.0
C3173 C 0.8321 0.00997 0.24829 0.0
C3174 C 0.84817 0.96895 0.24526 0.0
C3175 C 0.89784 0.9607 0.24413 0.0
C3176 C 0.93207 0.99295 0.24616 0.0
C3177 C 0.91667 0.03358 0.2493 0.0
C3178 C 0.86699 0.04211 0.25036 0.0
C3179 C 0.65001 0.02019 0.28055 0.0
C3180 C 0.66886 0.05422 0.28565 0.0
C3181 C 0.66495 0.01576 0.27195 0.0
C3182 C 0.69827 0.04569 0.26835 0.0
C3183 C 0.71728 0.07955 0.27345 0.0
C3184 C 0.70232 0.08399 0.28204 0.0
C3185 C 0.71404 0.04064 0.25929 0.0
C3186 C 0.76337 0.03252 0.25771 0.0
C3187 C 0.67995 0.03934 0.25241 0.0
C3188 C 0.62843 0.05276 0.25371 0.0
C3189 C 0.61747 0.09371 0.25743 0.0
C3190 C 0.5691 0.106 0.25885 0.0
C3191 C 0.53126 0.07765 0.25654 0.0
C3192 C 0.54174 0.03705 0.25278 0.0
C3193 C 0.59008 0.02463 0.25134 0.0
H3194 H 0.49382 0.08715 0.25765 0.0
H3195 H 0.97051 0.98641 0.24534 0.0
H3196 H 0.98605 0.62391 0.28662 0.0
H3197 H 0.99052 0.66163 0.27262 0.0
H3198 H 0.02925 0.78183 0.28562 0.0
H3199 H 0.02544 0.74402 0.29975 0.0
H3200 H 0.95988 0.79301 0.27271 0.0
H3201 H 0.11926 0.72396 0.27448 0.0
H3202 H 0.1804 0.66481 0.27558 0.0
H3203 H 0.11086 0.59591 0.25463 0.0
H3204 H 0.04926 0.65436 0.25343 0.0
H3205 H -0.00297 0.88944 0.23044 0.0
H3206 H 0.0119 0.86702 0.24559 0.0
H3207 H -0.00254 0.73132 0.23811 0.0
H3208 H 0.98295 0.75358 0.22306 0.0
H3209 H 0.06602 0.73712 0.24915 0.0
H3210 H 0.90325 0.78977 0.24788 0.0
H3211 H 0.82871 0.83461 0.24729 0.0
H3212 H 0.88704 0.92076 0.26675 0.0
H3213 H 0.96231 0.8768 0.26737 0.0
C3214 C 0.995 0.65852 0.28656 0.0
C3215 C 0.00544 0.68082 0.29437 0.0
C3216 C -0.00183 0.67992 0.27851 0.0
C3217 C 0.01165 0.72424 0.27803 0.0
C3218 C 0.0195 0.7474 0.28581 0.0
C3219 C 0.01668 0.72587 0.29391 0.0
C3220 C 0.0153 0.74646 0.26938 0.0
C3221 C 0.98398 0.78164 0.2676 0.0
C3222 C 0.04523 0.73032 0.26261 0.0
C3223 C 0.07958 0.69344 0.2639 0.0
C3224 C 0.1166 0.69587 0.2702 0.0
C3225 C 0.15146 0.6626 0.27081 0.0
C3226 C 0.14951 0.62687 0.26515 0.0
C3227 C 0.11233 0.62375 0.25898 0.0
C3228 C 0.07751 0.65691 0.25833 0.0
C3229 C -0.00099 0.85478 0.23198 0.0
C3230 C 0.98952 0.82318 0.22552 0.0
C3231 C 0.00642 0.84204 0.24069 0.0
C3232 C 0.00486 0.79747 0.24307 0.0
C3233 C -0.00133 0.76593 0.23649 0.0
C3234 C 0.99088 0.77861 0.22785 0.0
C3235 C 0.00929 0.78291 0.25234 0.0
C3236 C 0.0425 0.74934 0.25428 0.0
C3237 C 0.9795 0.79934 0.25914 0.0
C3238 C 0.93874 0.83025 0.25759 0.0
C3239 C 0.90083 0.81896 0.25185 0.0
C3240 C 0.85818 0.84393 0.25159 0.0
C3241 C 0.85289 0.88004 0.25708 0.0
C3242 C 0.89101 0.89245 0.26258 0.0
C3243 C 0.93376 0.86767 0.26285 0.0
H3244 H 0.81927 0.8985 0.25707 0.0
H3245 H 0.17694 0.60171 0.26549 0.0
H3246 H 0.37457 0.87089 0.013 0.0
H3247 H 0.32196 0.84081 0.00162 0.0
H3248 H 0.26993 0.74204 0.01963 0.0
H3249 H 0.32349 0.77176 0.03094 0.0
H3250 H 0.30503 0.70666 0.00557 0.0
H3251 H 0.18838 0.8169 0.01099 0.0
H3252 H 0.15492 0.89043 0.01388 0.0
H3253 H 0.2093 0.93647 0.98927 0.0
H3254 H 0.24352 0.86341 0.98626 0.0
H3255 H 0.1734 0.63162 0.96774 0.0
H3256 H 0.20098 0.65306 0.98231 0.0
H3257 H 0.27126 0.76729 0.97121 0.0
H3258 H 0.24067 0.74703 0.95674 0.0
H3259 H 0.20677 0.78805 0.98378 0.0
H3260 H 0.3363 0.67987 0.98007 0.0
H3261 H 0.37013 0.60601 0.97761 0.0
H3262 H 0.28968 0.55627 -0.0005 0.0
H3263 H 0.25504 0.62974 0.00204 0.0
C3264 C 0.35111 0.84334 0.0145 0.0
C3265 C 0.35301 0.82312 0.02267 0.0
C3266 C 0.32076 0.8265 0.00809 0.0
C3267 C 0.29153 0.78973 0.00987 0.0
C3268 C 0.29207 0.77061 0.01818 0.0
C3269 C 0.32296 0.78711 0.02456 0.0
C3270 C 0.26761 0.76716 0.00263 0.0
C3271 C 0.28237 0.72401 0.0009 0.0
C3272 C 0.23851 0.79015 0.99657 0.0
C3273 C 0.21866 0.83454 -0.00159 0.0
C3274 C 0.19356 0.84276 0.00622 0.0
C3275 C 0.17434 0.88437 0.00787 0.0
C3276 C 0.17999 0.91809 0.00177 0.0
C3277 C 0.20486 0.91029 0.99399 0.0
C3278 C 0.22406 0.86874 0.9923 0.0
C3279 C 0.19466 0.6613 0.96852 0.0
C3280 C 0.20351 0.68892 0.9614 0.0
C3281 C 0.21105 0.67305 0.97674 0.0
C3282 C 0.23751 0.71196 0.97779 0.0
C3283 C 0.2502 0.73743 0.97048 0.0
C3284 C 0.23307 0.72595 0.96228 0.0
C3285 C 0.24712 0.72895 0.98653 0.0
C3286 C 0.22874 0.77061 0.98854 0.0
C3287 C 0.27273 0.70457 0.99287 0.0
C3288 C 0.29261 0.66018 0.99117 0.0
C3289 C 0.32539 0.65307 0.98429 0.0
C3290 C 0.34485 0.61131 0.9829 0.0
C3291 C 0.33194 0.57644 0.98838 0.0
C3292 C 0.29958 0.58327 0.99526 0.0
C3293 C 0.28006 0.62496 0.99668 0.0
H3294 H 0.34712 0.54417 0.9873 0.0
H3295 H 0.16507 0.95026 0.00306 0.0
H3296 H 0.96482 0.6061 0.96365 0.0
H3297 H 0.96296 0.56927 0.97784 0.0
H3298 H 0.04886 0.46345 0.9674 0.0
H3299 H 0.04834 0.49903 0.95306 0.0
H3300 H 0.98805 0.4337 0.97967 0.0
H3301 H 0.09229 0.5649 0.97698 0.0
H3302 H 0.10148 0.64474 0.97482 0.0
H3303 H 0.01739 0.66941 0.99775 0.0
H3304 H 0.00377 0.59016 -0.00031 0.0
H3305 H 0.04782 0.35775 0.02245 0.0
H3306 H 0.05483 0.38054 0.00718 0.0
H3307 H 0.0125 0.51196 0.01441 0.0
H3308 H 0.01212 0.49095 0.02948 0.0
H3309 H 0.062 0.52516 0.00276 0.0
H3310 H 0.92523 0.41857 0.00201 0.0
H3311 H 0.8829 0.34736 0.00297 0.0
H3312 H -0.00114 0.28603 0.98875 0.0
H3313 H 0.04094 0.35742 0.98745 0.0
C3314 C 0.98183 0.57421 0.96431 0.0
C3315 C 0.00719 0.55569 0.95727 0.0
C3316 C 0.98127 0.55341 0.97246 0.0
C3317 C 0.00776 0.51456 0.97382 0.0
C3318 C 0.02899 0.49385 0.96658 0.0
C3319 C 0.02844 0.5141 0.95836 0.0
C3320 C 0.01664 0.49735 0.98282 0.0
C3321 C 0.0043 0.45369 0.98474 0.0
C3322 C 0.03664 0.52366 0.98955 0.0
C3323 C 0.04675 0.57133 0.98845 0.0
C3324 C 0.07548 0.58726 0.98154 0.0
C3325 C 0.08147 0.63245 0.98035 0.0
C3326 C 0.06089 0.66201 0.98621 0.0
C3327 C 0.03351 0.6465 0.99323 0.0
C3328 C 0.02618 0.60146 0.99432 0.0
C3329 C 0.04211 0.39191 0.02079 0.0
C3330 C 0.02906 0.42232 0.02728 0.0
C3331 C 0.04459 0.40475 0.01196 0.0
C3332 C 0.03239 0.44787 0.00938 0.0
C3333 C 0.02238 0.4785 0.01599 0.0
C3334 C 0.02204 0.46627 0.02474 0.0
C3335 C 0.02952 0.46223 -3e-05 0.0
C3336 C 0.04471 0.50508 0.99783 0.0
C3337 C 0.00879 0.43635 0.99323 0.0
C3338 C 0.98662 0.39293 0.99481 0.0
C3339 C 0.94202 0.3897 -0.00077 0.0
C3340 C 0.9179 0.34938 -0.00024 0.0
C3341 C 0.93846 0.31202 0.99601 0.0
C3342 C 0.98312 0.31493 0.9917 0.0
C3343 C 0.00697 0.35533 0.99101 0.0
H3344 H 0.91965 0.28089 0.99636 0.0
H3345 H 0.06593 0.69693 0.98527 0.0
H3346 H 0.25149 0.5167 0.29562 0.0
H3347 H 0.28604 0.49597 0.28152 0.0
H3348 H 0.14915 0.52667 0.26901 0.0
H3349 H 0.11454 0.54623 0.28295 0.0
H3350 H 0.17391 0.45548 0.26364 0.0
H3351 H 0.25902 0.59023 0.26627 0.0
H3352 H 0.31044 0.64889 0.27233 0.0
H3353 H 0.43241 0.56106 0.27311 0.0
H3354 H 0.38128 0.50157 0.26722 0.0
H3355 H 0.30126 0.45088 0.22105 0.0
H3356 H 0.26119 0.48109 0.23401 0.0
H3357 H 0.3302 0.38232 0.24998 0.0
H3358 H 0.36885 0.35095 0.23698 0.0
H3359 H 0.33796 0.49313 0.25241 0.0
H3360 H 0.23691 0.35695 0.2505 0.0
H3361 H 0.18089 0.30849 0.24244 0.0
H3362 H 0.08351 0.41649 0.23814 0.0
H3363 H 0.13946 0.46576 0.24604 0.0
C3364 C 0.22908 0.51918 0.28983 0.0
C3365 C 0.18023 0.53232 0.29037 0.0
C3366 C 0.24894 0.50789 0.28177 0.0
C3367 C 0.22038 0.51048 0.27419 0.0
C3368 C 0.17193 0.52449 0.27476 0.0
C3369 C 0.15205 0.5353 0.28276 0.0
C3370 C 0.2389 0.49431 0.26578 0.0
C3371 C 0.20957 0.46448 0.26117 0.0
C3372 C 0.28536 0.50596 0.2625 0.0
C3373 C 0.31587 0.54114 0.26642 0.0
C3374 C 0.29647 0.58315 0.26788 0.0
C3375 C 0.32568 0.61665 0.27124 0.0
C3376 C 0.37464 0.60867 0.27313 0.0
C3377 C 0.39442 0.56717 0.27167 0.0
C3378 C 0.36529 0.53353 0.26832 0.0
C3379 C 0.30691 0.43528 0.22733 0.0
C3380 C 0.33751 0.39874 0.22815 0.0
C3381 C 0.28427 0.45246 0.23466 0.0
C3382 C 0.29308 0.43366 0.24283 0.0
C3383 C 0.32306 0.39674 0.24365 0.0
C3384 C 0.34473 0.37886 0.23628 0.0
C3385 C 0.27337 0.45422 0.25063 0.0
C3386 C 0.30235 0.48489 0.255 0.0
C3387 C 0.226 0.44481 0.25355 0.0
C3388 C 0.19276 0.41515 0.24873 0.0
C3389 C 0.20394 0.3705 0.24772 0.0
C3390 C 0.17209 0.34285 0.24321 0.0
C3391 C 0.12877 0.35944 0.23974 0.0
C3392 C 0.11715 0.40371 0.2408 0.0
C3393 C 0.14892 0.43149 0.24529 0.0
H3394 H 0.10414 0.33796 0.23627 0.0
H3395 H 0.39727 0.63469 0.27571 0.0
H3396 H 0.60167 0.18824 0.96941 0.0
H3397 H 0.62982 0.19951 0.98432 0.0
H3398 H 0.77892 0.19292 0.97561 0.0
H3399 H 0.75125 0.18107 0.96067 0.0
H3400 H 0.75936 0.15269 0.99271 0.0
H3401 H 0.73043 0.29097 0.97583 0.0
H3402 H 0.67399 0.33547 0.96694 0.0
H3403 H 0.56832 0.33166 0.98755 0.0
H3404 H 0.62416 0.28687 0.99653 0.0
H3405 H 0.91785 0.27883 0.01731 0.0
H3406 H 0.8677 0.24154 0.0065 0.0
H3407 H 0.73978 0.30652 0.01655 0.0
H3408 H 0.79088 0.34673 0.02682 0.0
H3409 H 0.73141 0.30801 0.00089 0.0
H3410 H 0.76954 0.18951 0.0197 0.0
H3411 H 0.823 0.14335 0.02881 0.0
H3412 H 0.90237 0.10348 0.00609 0.0
H3413 H 0.84987 0.14988 0.99685 0.0
C3414 C 0.64048 0.18914 0.97066 0.0
C3415 C 0.67437 0.18497 0.96385 0.0
C3416 C 0.65636 0.19483 0.97919 0.0
C3417 C 0.70627 0.19703 0.981 0.0
C3418 C 0.7402 0.19084 0.9743 0.0
C3419 C 0.72437 0.18478 0.96577 0.0
C3420 C 0.72333 0.21318 0.98945 0.0
C3421 C 0.75323 0.18647 0.99461 0.0
C3422 C 0.7135 0.25666 0.992 0.0
C3423 C 0.6813 0.28567 0.98682 0.0
C3424 C 0.69522 0.29983 0.97846 0.0
C3425 C 0.66333 0.32498 0.97341 0.0
C3426 C 0.61759 0.33638 0.97667 0.0
C3427 C 0.60378 0.32286 0.98503 0.0
C3428 C 0.63556 0.29769 0.99011 0.0
C3429 C 0.87906 0.28523 0.01711 0.0
C3430 C 0.85801 0.31585 0.02272 0.0
C3431 C 0.85024 0.26345 0.01105 0.0
C3432 C 0.79962 0.27029 0.01083 0.0
C3433 C 0.77867 0.30069 0.01656 0.0
C3434 C 0.8078 0.32378 0.02238 0.0
C3435 C 0.76924 0.24802 0.00422 0.0
C3436 C 0.73665 0.27367 -0.00067 0.0
C3437 C 0.77561 0.2031 0.00212 0.0
C3438 C 0.80572 0.17327 0.00758 0.0
C3439 C 0.79835 0.17086 0.01664 0.0
C3440 C 0.82857 0.14471 0.02184 0.0
C3441 C 0.86607 0.12051 0.01803 0.0
C3442 C 0.87325 0.12219 0.00903 0.0
C3443 C 0.84317 0.14831 0.0038 0.0
H3444 H 0.88956 0.10045 0.02207 0.0
H3445 H 0.59286 0.35568 0.97273 0.0
H3446 H 0.6213 0.60008 0.78057 0.0
H3447 H 0.64828 0.58322 0.76569 0.0
H3448 H 0.77985 0.52619 0.7761 0.0
H3449 H 0.75122 0.54052 0.79094 0.0
H3450 H 0.77829 0.58223 0.75769 0.0
H3451 H 0.71689 0.44906 0.77466 0.0
H3452 H 0.65329 0.42214 0.78472 0.0
H3453 H 0.54232 0.46727 0.76712 0.0
H3454 H 0.60545 0.49502 0.75703 0.0
H3455 H 0.89551 0.42064 0.7359 0.0
H3456 H 0.85194 0.46023 0.74729 0.0
H3457 H 0.7171 0.44363 0.73317 0.0
H3458 H 0.76075 0.40192 0.7219 0.0
H3459 H 0.70437 0.43736 0.75084 0.0
H3460 H 0.7745 0.53878 0.73106 0.0
H3461 H 0.83956 0.56719 0.72152 0.0
H3462 H 0.9308 0.5893 0.74381 0.0
H3463 H 0.86655 0.56042 0.75349 0.0
C3464 C 0.65568 0.58362 0.77959 0.0
C3465 C 0.68337 0.56981 0.78676 0.0
C3466 C 0.67162 0.57524 0.77117 0.0
C3467 C 0.71596 0.55371 0.76989 0.0
C3468 C 0.74577 0.54341 0.77703 0.0
C3469 C 0.72938 0.55125 0.78547 0.0
C3470 C 0.72618 0.53309 0.76151 0.0
C3471 C 0.76196 0.55088 0.75608 0.0
C3472 C 0.7035 0.49298 0.75939 0.0
C3473 C 0.66568 0.4737 0.76509 0.0
C3474 C 0.67888 0.4529 0.77293 0.0
C3475 C 0.64298 0.43773 0.77865 0.0
C3476 C 0.59378 0.44294 0.77655 0.0
C3477 C 0.58043 0.46323 0.76872 0.0
C3478 C 0.61623 0.47863 0.763 0.0
C3479 C 0.85643 0.4248 0.73535 0.0
C3480 C 0.83115 0.40895 0.72811 0.0
C3481 C 0.83169 0.44751 0.74179 0.0
C3482 C 0.78173 0.45594 0.74088 0.0
C3483 C 0.75578 0.43775 0.73389 0.0
C3484 C 0.78052 0.41403 0.72752 0.0
C3485 C 0.75798 0.48566 0.74707 0.0
C3486 C 0.71955 0.46954 0.75216 0.0
C3487 C 0.77766 0.52783 0.74873 0.0
C3488 C 0.81562 0.54742 0.74301 0.0
C3489 C 0.80842 0.54973 0.73393 0.0
C3490 C 0.8452 0.56584 0.7285 0.0
C3491 C 0.88929 0.58004 0.73206 0.0
C3492 C 0.89658 0.57837 0.74107 0.0
C3493 C 0.85993 0.56224 0.74654 0.0
H3494 H 0.91779 0.59235 0.72784 0.0
H3495 H 0.56602 0.4313 0.781 0.0
H3496 H 0.53818 0.10669 0.9655 0.0
H3497 H 0.5403 0.06351 0.97878 0.0
H3498 H 0.47963 0.95284 0.96516 0.0
H3499 H 0.47898 0.99593 0.95147 0.0
H3500 H 0.43851 0.98864 0.98423 0.0
H3501 H 0.57236 0.92755 0.96853 0.0
H3502 H 0.64555 0.92976 0.95927 0.0
H3503 H 0.72071 0.00523 0.97865 0.0
H3504 H 0.64749 0.00437 0.98796 0.0
H3505 H 0.49543 0.84818 0.02086 0.0
H3506 H 0.495 0.87039 0.00555 0.0
H3507 H 0.56491 0.99217 0.0123 0.0
H3508 H 0.56317 0.97109 0.02779 0.0
H3509 H 0.59886 0.94008 0.99564 0.0
H3510 H 0.46226 0.00289 0.01098 0.0
H3511 H 0.38709 0.00428 0.01969 0.0
H3512 H 0.31385 0.92719 0.00034 0.0
H3513 H 0.38943 0.92328 0.99171 0.0
C3514 C 0.52451 0.07337 0.96524 0.0
C3515 C 0.50792 0.05499 0.95735 0.0
C3516 C 0.52614 0.04862 0.97289 0.0
C3517 C 0.51043 0.00498 0.97297 0.0
C3518 C 0.49214 0.98654 0.96522 0.0
C3519 C 0.49162 0.01117 0.95742 0.0
C3520 C 0.51423 0.97965 0.98125 0.0
C3521 C 0.47322 0.97676 0.98665 0.0
C3522 C 0.55993 0.96556 0.98448 0.0
C3523 C 0.60412 0.96639 0.9789 0.0
C3524 C 0.60422 0.94517 0.97077 0.0
C3525 C 0.64578 0.94605 0.96552 0.0
C3526 C 0.68771 0.96774 0.96836 0.0
C3527 C 0.68816 0.98852 0.97646 0.0
C3528 C 0.64662 0.98785 0.98172 0.0
C3529 C 0.51247 0.87902 0.01909 0.0
C3530 C 0.53011 0.9076 0.02558 0.0
C3531 C 0.51152 0.89189 0.01032 0.0
C3532 C 0.52937 0.9331 0.00779 0.0
C3533 C 0.55079 0.96023 0.01412 0.0
C3534 C 0.55031 0.94798 0.02296 0.0
C3535 C 0.52301 0.94891 -0.00134 0.0
C3536 C 0.56379 0.95067 0.99315 0.0
C3537 C 0.47686 0.96164 0.99532 0.0
C3538 C 0.43214 0.96181 0.00079 0.0
C3539 C 0.43069 0.98506 0.00869 0.0
C3540 C 0.38784 0.98649 0.0136 0.0
C3541 C 0.34579 0.96561 0.01059 0.0
C3542 C 0.34652 0.94319 0.00267 0.0
C3543 C 0.3895 0.94103 0.99781 0.0
H3544 H 0.31259 0.96696 0.01438 0.0
H3545 H 0.71988 0.96832 0.96429 0.0
H3546 H 0.44259 0.2237 0.29502 0.0
H3547 H 0.44799 0.26151 0.28076 0.0
H3548 H 0.58387 0.1958 0.27559 0.0
H3549 H 0.57873 0.1587 0.28964 0.0
H3550 H 0.58837 0.27966 0.27004 0.0
H3551 H 0.4763 0.15601 0.26765 0.0
H3552 H 0.40241 0.1141 0.27146 0.0
H3553 H 0.31351 0.22498 0.26473 0.0
H3554 H 0.38702 0.26758 0.26091 0.0
H3555 H 0.52453 0.24619 0.22093 0.0
H3556 H 0.53402 0.22484 0.23622 0.0
H3557 H 0.5328 0.3609 0.24371 0.0
H3558 H 0.52384 0.38262 0.22848 0.0
H3559 H 0.45901 0.24781 0.24839 0.0
H3560 H 0.58551 0.37414 0.25835 0.0
H3561 H 0.66115 0.41246 0.25402 0.0
H3562 H 0.72225 0.29054 0.24538 0.0
H3563 H 0.64657 0.2518 0.24954 0.0
C3564 C 0.47377 0.21799 0.29086 0.0
C3565 C 0.50992 0.18797 0.29336 0.0
C3566 C 0.47682 0.23941 0.28272 0.0
C3567 C 0.51619 0.23123 0.27705 0.0
C3568 C 0.55324 0.20282 0.2798 0.0
C3569 C 0.55007 0.18142 0.28783 0.0
C3570 C 0.51813 0.2495 0.26801 0.0
C3571 C 0.55971 0.27304 0.26536 0.0
C3572 C 0.48126 0.24068 0.2618 0.0
C3573 C 0.43713 0.21503 0.26405 0.0
C3574 C 0.44101 0.17147 0.26701 0.0
C3575 C 0.3992 0.14759 0.26916 0.0
C3576 C 0.35329 0.16689 0.26835 0.0
C3577 C 0.34909 0.21007 0.26536 0.0
C3578 C 0.39081 0.23407 0.26318 0.0
C3579 C 0.52828 0.27172 0.22578 0.0
C3580 C 0.52307 0.31619 0.22342 0.0
C3581 C 0.53321 0.2594 0.23455 0.0
C3582 C 0.53363 0.29121 0.24114 0.0
C3583 C 0.53306 0.33571 0.23875 0.0
C3584 C 0.52824 0.34811 0.22999 0.0
C3585 C 0.52913 0.27779 0.25046 0.0
C3586 C 0.48714 0.25504 0.25314 0.0
C3587 C 0.56542 0.28732 0.25669 0.0
C3588 C 0.61066 0.31029 0.25421 0.0
C3589 C 0.61518 0.35565 0.25552 0.0
C3590 C 0.65791 0.37742 0.25308 0.0
C3591 C 0.69648 0.35395 0.24942 0.0
C3592 C 0.69231 0.30869 0.24818 0.0
C3593 C 0.64947 0.28686 0.25055 0.0
H3594 H 0.72959 0.37083 0.24756 0.0
H3595 H 0.32096 0.14836 0.27003 0.0
H3596 H 0.44068 0.65215 0.78993 0.0
H3597 H 0.43886 0.6845 0.77531 0.0
H3598 H 0.55542 0.77225 0.78253 0.0
H3599 H 0.55445 0.74224 0.79733 0.0
H3600 H 0.50171 0.81113 0.77117 0.0
H3601 H 0.56431 0.65611 0.77237 0.0
H3602 H 0.55169 0.57597 0.77436 0.0
H3603 H 0.43632 0.57792 0.7556 0.0
H3604 H 0.44683 0.65756 0.75363 0.0
H3605 H 0.5515 0.86231 0.72658 0.0
H3606 H 0.56387 0.84045 0.74183 0.0
H3607 H 0.47649 0.72459 0.73735 0.0
H3608 H 0.47114 0.74235 0.72223 0.0
H3609 H 0.52711 0.70097 0.74802 0.0
H3610 H 0.43943 0.84133 0.7481 0.0
H3611 H 0.42811 0.92081 0.7458 0.0
H3612 H 0.55724 0.94736 0.76066 0.0
H3613 H 0.56916 0.86799 0.76309 0.0
C3614 C 0.46445 0.6796 0.78847 0.0
C3615 C 0.49767 0.6947 0.79476 0.0
C3616 C 0.46418 0.69749 0.78005 0.0
C3617 C 0.49881 0.7293 0.77762 0.0
C3618 C 0.52891 0.74718 0.78414 0.0
C3619 C 0.52805 0.73029 0.79265 0.0
C3620 C 0.50593 0.74221 0.76829 0.0
C3621 C 0.50717 0.78701 0.76608 0.0
C3622 C 0.51191 0.71097 0.76154 0.0
C3623 C 0.50623 0.66294 0.7629 0.0
C3624 C 0.53614 0.63947 0.76871 0.0
C3625 C 0.52942 0.59421 0.76982 0.0
C3626 C 0.49359 0.57209 0.7651 0.0
C3627 C 0.46412 0.59506 0.75926 0.0
C3628 C 0.47033 0.64022 0.75815 0.0
C3629 C 0.53687 0.83124 0.72881 0.0
C3630 C 0.50984 0.80452 0.7231 0.0
C3631 C 0.54269 0.81927 0.73764 0.0
C3632 C 0.5195 0.78152 0.74104 0.0
C3633 C 0.49528 0.75382 0.73514 0.0
C3634 C 0.49192 0.76434 0.72633 0.0
C3635 C 0.51866 0.77011 0.75062 0.0
C3636 C 0.52045 0.72546 0.75298 0.0
C3637 C 0.51173 0.80133 0.75737 0.0
C3638 C 0.5056 0.8488 0.75564 0.0
C3639 C 0.46562 0.86414 0.7508 0.0
C3640 C 0.45903 0.90916 0.7495 0.0
C3641 C 0.4921 0.93912 0.75302 0.0
C3642 C 0.53176 0.92413 0.7579 0.0
C3643 C 0.53841 0.87915 0.75925 0.0
H3644 H 0.48687 0.97395 0.75201 0.0
H3645 H 0.4886 0.53714 0.76598 0.0
H3646 H 0.53593 0.36913 0.52363 0.0
H3647 H 0.54432 0.38987 0.50825 0.0
H3648 H 0.51459 0.52448 0.51472 0.0
H3649 H 0.50794 0.5047 0.53009 0.0
H3650 H 0.44717 0.46228 0.50104 0.0
H3651 H 0.60447 0.53106 0.50865 0.0
H3652 H 0.68526 0.52417 0.51554 0.0
H3653 H 0.72064 0.41818 0.49833 0.0
H3654 H 0.63951 0.42392 0.49146 0.0
H3655 H 0.45103 0.59223 0.46284 0.0
H3656 H 0.45417 0.55916 0.47734 0.0
H3657 H 0.56368 0.46831 0.4685 0.0
H3658 H 0.56077 0.50184 0.45395 0.0
H3659 H 0.59203 0.49974 0.48318 0.0
H3660 H 0.44161 0.43083 0.47478 0.0
H3661 H 0.35856 0.42672 0.46857 0.0
H3662 H 0.30863 0.52102 0.4872 0.0
H3663 H 0.39126 0.52584 0.49348 0.0
C3664 C 0.53345 0.40349 0.52187 0.0
C3665 C 0.52077 0.43514 0.52815 0.0
C3666 C 0.53753 0.41515 0.51304 0.0
C3667 C 0.5291 0.45853 0.51035 0.0
C3668 C 0.52077 0.49074 0.51666 0.0
C3669 C 0.51749 0.47934 0.52547 0.0
C3670 C 0.52505 0.46989 0.50096 0.0
C3671 C 0.4787 0.47081 0.49712 0.0
C3672 C 0.56629 0.47948 0.49583 0.0
C3673 C 0.61584 0.47762 0.49961 0.0
C3674 C 0.62932 0.50604 0.50639 0.0
C3675 C 0.67514 0.50232 0.5103 0.0
C3676 C 0.70799 0.4706 0.50741 0.0
C3677 C 0.69513 0.44268 0.50057 0.0
C3678 C 0.64926 0.44618 0.49667 0.0
C3679 C 0.47455 0.56422 0.46391 0.0
C3680 C 0.5047 0.54894 0.45719 0.0
C3681 C 0.47643 0.54527 0.47223 0.0
C3682 C 0.50866 0.51059 0.47406 0.0
C3683 C 0.53831 0.49481 0.46729 0.0
C3684 C 0.53609 0.51355 0.45893 0.0
C3685 C 0.5136 0.49317 0.48316 0.0
C3686 C 0.56023 0.49097 0.487 0.0
C3687 C 0.47245 0.48168 0.48827 0.0
C3688 C 0.42275 0.47914 0.4845 0.0
C3689 C 0.41301 0.45105 0.47746 0.0
C3690 C 0.36604 0.44847 0.47396 0.0
C3691 C 0.32852 0.47377 0.47745 0.0
C3692 C 0.33778 0.50152 0.48449 0.0
C3693 C 0.38462 0.5041 0.48804 0.0
H3694 H 0.29222 0.47173 0.47473 0.0
H3695 H 0.74347 0.46779 0.51043 0.0
loop_
_geom_bond_atom_site_label_1
_geom_bond_atom_site_label_2
_geom_bond_distance
_geom_bond_site_symmetry_2
_ccdc_geom_bond_type
C0 O27 1.312 . S
C0 O28 1.208 . S
C1 O22 1.331 . S
C1 O25 1.244 . S
C2 O24 1.264 . S
C2 O26 1.273 . S
Mg3 O5 1.936 1_655 S
Mg3 O12 2.081 . S
Mg3 O14 2.023 . S
Mg3 O18 2.031 . S
Mg3 O27 2.291 1_655 S
Mg4 O5 1.963 . S
Mg4 O15 1.942 . S
Mg4 O16 1.955 1_545 S
Mg4 O23 1.986 . S
O5 Mg3 1.936 1_455 S
O5 Mg4 1.963 . S
O5 Mg6 1.915 . S
Mg6 O5 1.915 . S
Mg6 O7 1.915 . S
Mg6 O11 2.013 . S
Mg6 O17 2.114 . S
Mg6 O21 2.013 . S
Mg6 O27 2.114 . S
O7 Mg6 1.915 . S
O7 Mg8 1.936 . S
O7 Mg9 1.963 . S
Mg8 O7 1.936 . S
Mg8 O17 2.291 . S
Mg8 O22 2.081 . S
Mg8 O24 2.023 . S
Mg8 O28 2.031 . S
Mg9 O7 1.963 . S
Mg9 O13 1.986 . S
Mg9 O25 1.942 . S
Mg9 O26 1.955 . S
C10 O21 1.191 . S
C10 O23 1.307 . S
O11 Mg6 2.013 . S
O11 C30 1.191 . S
O12 Mg3 2.081 . S
O12 C20 1.331 . S
O13 Mg9 1.986 . S
O13 C30 1.307 . S
O14 Mg3 2.023 . S
O14 C29 1.264 1_645 S
O15 Mg4 1.942 . S
O15 C20 1.244 1_455 S
O16 Mg4 1.955 1_565 S
O16 C29 1.273 . S
O17 Mg6 2.114 . S
O17 Mg8 2.291 . S
O17 C19 1.312 . S
O18 Mg3 2.031 . S
O18 C19 1.208 1_655 S
C19 O17 1.312 . S
C19 O18 1.208 1_455 S
C20 O12 1.331 . S
C20 O15 1.244 1_655 S
O21 Mg6 2.013 . S
O21 C10 1.191 . S
O22 C1 1.331 . S
O22 Mg8 2.081 . S
O23 Mg4 1.986 . S
O23 C10 1.307 . S
O24 C2 1.264 . S
O24 Mg8 2.023 . S
O25 C1 1.244 . S
O25 Mg9 1.942 . S
O26 C2 1.273 . S
O26 Mg9 1.955 . S
O27 C0 1.312 . S
O27 Mg3 2.291 1_455 S
O27 Mg6 2.114 . S
O28 C0 1.208 . S
O28 Mg8 2.031 . S
C29 O14 1.264 1_465 S
C29 O16 1.273 . S
C30 O11 1.191 . S
C30 O13 1.307 . S
C31 O58 1.312 . S
C31 O59 1.208 1_455 S
C32 O53 1.331 . S
C32 O56 1.244 1_655 S
C33 O55 1.264 1_455 S
C33 O57 1.273 . S
Mg34 O36 1.936 . S
Mg34 O43 2.081 . S
Mg34 O45 2.023 . S
Mg34 O49 2.031 . S
Mg34 O58 2.291 . S
Mg35 O36 1.963 . S
Mg35 O46 1.942 . S
Mg35 O47 1.955 . S
Mg35 O54 1.986 . S
O36 Mg34 1.936 . S
O36 Mg35 1.963 . S
O36 Mg37 1.915 . S
Mg37 O36 1.915 . S
Mg37 O38 1.915 . S
Mg37 O42 2.013 . S
Mg37 O48 2.114 . S
Mg37 O52 2.013 . S
Mg37 O58 2.114 . S
O38 Mg37 1.915 . S
O38 Mg39 1.936 1_455 S
O38 Mg40 1.963 . S
Mg39 O38 1.936 1_655 S
Mg39 O48 2.291 1_655 S
Mg39 O53 2.081 . S
Mg39 O55 2.023 . S
Mg39 O59 2.031 . S
Mg40 O38 1.963 . S
Mg40 O44 1.986 . S
Mg40 O56 1.942 . S
Mg40 O57 1.955 . S
C41 O52 1.191 . S
C41 O54 1.307 . S
O42 Mg37 2.013 . S
O42 C61 1.191 . S
O43 Mg34 2.081 . S
O43 C51 1.331 . S
O44 Mg40 1.986 . S
O44 C61 1.307 . S
O45 Mg34 2.023 . S
O45 C60 1.264 . S
O46 Mg35 1.942 . S
O46 C51 1.244 . S
O47 Mg35 1.955 . S
O47 C60 1.273 . S
O48 Mg37 2.114 . S
O48 Mg39 2.291 1_455 S
O48 C50 1.312 . S
O49 Mg34 2.031 . S
O49 C50 1.208 . S
C50 O48 1.312 . S
C50 O49 1.208 . S
C51 O43 1.331 . S
C51 O46 1.244 . S
O52 Mg37 2.013 . S
O52 C41 1.191 . S
O53 C32 1.331 . S
O53 Mg39 2.081 . S
O54 Mg35 1.986 . S
O54 C41 1.307 . S
O55 C33 1.264 1_655 S
O55 Mg39 2.023 . S
O56 C32 1.244 1_455 S
O56 Mg40 1.942 . S
O57 C33 1.273 . S
O57 Mg40 1.955 . S
O58 C31 1.312 . S
O58 Mg34 2.291 . S
O58 Mg37 2.114 . S
O59 C31 1.208 1_655 S
O59 Mg39 2.031 . S
C60 O45 1.264 . S
C60 O47 1.273 . S
C61 O42 1.191 . S
C61 O44 1.307 . S
C62 O89 1.312 . S
C62 O90 1.208 . S
C63 O84 1.331 . S
C63 O87 1.244 . S
C64 O86 1.264 . S
C64 O88 1.273 . S
Mg65 O67 1.936 . S
Mg65 O74 2.081 . S
Mg65 O76 2.023 . S
Mg65 O80 2.031 . S
Mg65 O89 2.291 . S
Mg66 O67 1.963 . S
Mg66 O77 1.942 . S
Mg66 O78 1.955 . S
Mg66 O85 1.986 . S
O67 Mg65 1.936 . S
O67 Mg66 1.963 . S
O67 Mg68 1.915 . S
Mg68 O67 1.915 . S
Mg68 O69 1.915 . S
Mg68 O73 2.013 . S
Mg68 O79 2.114 . S
Mg68 O83 2.013 . S
Mg68 O89 2.114 . S
O69 Mg68 1.915 . S
O69 Mg70 1.936 . S
O69 Mg71 1.963 . S
Mg70 O69 1.936 . S
Mg70 O79 2.291 . S
Mg70 O84 2.081 . S
Mg70 O86 2.023 . S
Mg70 O90 2.031 . S
Mg71 O69 1.963 . S
Mg71 O75 1.986 . S
Mg71 O87 1.942 . S
Mg71 O88 1.955 . S
C72 O83 1.191 . S
C72 O85 1.307 . S
O73 Mg68 2.013 . S
O73 C92 1.191 . S
O74 Mg65 2.081 . S
O74 C82 1.331 . S
O75 Mg71 1.986 . S
O75 C92 1.307 . S
O76 Mg65 2.023 . S
O76 C91 1.264 . S
O77 Mg66 1.942 . S
O77 C82 1.244 . S
O78 Mg66 1.955 . S
O78 C91 1.273 . S
O79 Mg68 2.114 . S
O79 Mg70 2.291 . S
O79 C81 1.312 . S
O80 Mg65 2.031 . S
O80 C81 1.208 . S
C81 O79 1.312 . S
C81 O80 1.208 . S
C82 O74 1.331 . S
C82 O77 1.244 . S
O83 Mg68 2.013 . S
O83 C72 1.191 . S
O84 C63 1.331 . S
O84 Mg70 2.081 . S
O85 Mg66 1.986 . S
O85 C72 1.307 . S
O86 C64 1.264 . S
O86 Mg70 2.023 . S
O87 C63 1.244 . S
O87 Mg71 1.942 . S
O88 C64 1.273 . S
O88 Mg71 1.955 . S
O89 C62 1.312 . S
O89 Mg65 2.291 . S
O89 Mg68 2.114 . S
O90 C62 1.208 . S
O90 Mg70 2.031 . S
C91 O76 1.264 . S
C91 O78 1.273 . S
C92 O73 1.191 . S
C92 O75 1.307 . S
C93 O120 1.312 . S
C93 O121 1.208 . S
C94 O115 1.331 . S
C94 O118 1.244 . S
C95 O117 1.264 . S
C95 O119 1.273 . S
Mg96 O98 1.936 . S
Mg96 O105 2.081 . S
Mg96 O107 2.023 . S
Mg96 O111 2.031 . S
Mg96 O120 2.291 . S
Mg97 O98 1.963 . S
Mg97 O108 1.942 . S
Mg97 O109 1.955 . S
Mg97 O116 1.986 . S
O98 Mg96 1.936 . S
O98 Mg97 1.963 . S
O98 Mg99 1.915 . S
Mg99 O98 1.915 . S
Mg99 O100 1.915 . S
Mg99 O104 2.013 . S
Mg99 O110 2.114 . S
Mg99 O114 2.013 . S
Mg99 O120 2.114 . S
O100 Mg99 1.915 . S
O100 Mg101 1.936 . S
O100 Mg102 1.963 . S
Mg101 O100 1.936 . S
Mg101 O110 2.291 . S
Mg101 O115 2.081 . S
Mg101 O117 2.023 . S
Mg101 O121 2.031 . S
Mg102 O100 1.963 . S
Mg102 O106 1.986 . S
Mg102 O118 1.942 . S
Mg102 O119 1.955 . S
C103 O114 1.191 . S
C103 O116 1.307 . S
O104 Mg99 2.013 . S
O104 C123 1.191 . S
O105 Mg96 2.081 . S
O105 C113 1.331 . S
O106 Mg102 1.986 . S
O106 C123 1.307 . S
O107 Mg96 2.023 . S
O107 C122 1.264 . S
O108 Mg97 1.942 . S
O108 C113 1.244 . S
O109 Mg97 1.955 . S
O109 C122 1.273 . S
O110 Mg99 2.114 . S
O110 Mg101 2.291 . S
O110 C112 1.312 . S
O111 Mg96 2.031 . S
O111 C112 1.208 . S
C112 O110 1.312 . S
C112 O111 1.208 . S
C113 O105 1.331 . S
C113 O108 1.244 . S
O114 Mg99 2.013 . S
O114 C103 1.191 . S
O115 C94 1.331 . S
O115 Mg101 2.081 . S
O116 Mg97 1.986 . S
O116 C103 1.307 . S
O117 C95 1.264 . S
O117 Mg101 2.023 . S
O118 C94 1.244 . S
O118 Mg102 1.942 . S
O119 C95 1.273 . S
O119 Mg102 1.955 . S
O120 C93 1.312 . S
O120 Mg96 2.291 . S
O120 Mg99 2.114 . S
O121 C93 1.208 . S
O121 Mg101 2.031 . S
C122 O107 1.264 . S
C122 O109 1.273 . S
C123 O104 1.191 . S
C123 O106 1.307 . S
C124 O151 1.312 . S
C124 O152 1.208 . S
C125 O146 1.331 . S
C125 O149 1.244 . S
C126 O148 1.264 . S
C126 O150 1.273 . S
Mg127 O129 1.936 1_655 S
Mg127 O136 2.081 . S
Mg127 O138 2.023 . S
Mg127 O142 2.031 . S
Mg127 O151 2.291 1_655 S
Mg128 O129 1.963 . S
Mg128 O139 1.942 . S
Mg128 O140 1.955 . S
Mg128 O147 1.986 . S
O129 Mg127 1.936 1_455 S
O129 Mg128 1.963 . S
O129 Mg130 1.915 . S
Mg130 O129 1.915 . S
Mg130 O131 1.915 . S
Mg130 O135 2.013 . S
Mg130 O141 2.114 . S
Mg130 O145 2.013 . S
Mg130 O151 2.114 . S
O131 Mg130 1.915 . S
O131 Mg132 1.936 . S
O131 Mg133 1.963 . S
Mg132 O131 1.936 . S
Mg132 O141 2.291 . S
Mg132 O146 2.081 . S
Mg132 O148 2.023 . S
Mg132 O152 2.031 . S
Mg133 O131 1.963 . S
Mg133 O137 1.986 . S
Mg133 O149 1.942 . S
Mg133 O150 1.955 . S
C134 O145 1.191 . S
C134 O147 1.307 . S
O135 Mg130 2.013 . S
O135 C154 1.191 . S
O136 Mg127 2.081 . S
O136 C144 1.331 . S
O137 Mg133 1.986 . S
O137 C154 1.307 . S
O138 Mg127 2.023 . S
O138 C153 1.264 1_655 S
O139 Mg128 1.942 . S
O139 C144 1.244 1_455 S
O140 Mg128 1.955 . S
O140 C153 1.273 . S
O141 Mg130 2.114 . S
O141 Mg132 2.291 . S
O141 C143 1.312 . S
O142 Mg127 2.031 . S
O142 C143 1.208 1_655 S
C143 O141 1.312 . S
C143 O142 1.208 1_455 S
C144 O136 1.331 . S
C144 O139 1.244 1_655 S
O145 Mg130 2.013 . S
O145 C134 1.191 . S
O146 C125 1.331 . S
O146 Mg132 2.081 . S
O147 Mg128 1.986 . S
O147 C134 1.307 . S
O148 C126 1.264 . S
O148 Mg132 2.023 . S
O149 C125 1.244 . S
O149 Mg133 1.942 . S
O150 C126 1.273 . S
O150 Mg133 1.955 . S
O151 C124 1.312 . S
O151 Mg127 2.291 1_455 S
O151 Mg130 2.114 . S
O152 C124 1.208 . S
O152 Mg132 2.031 . S
C153 O138 1.264 1_455 S
C153 O140 1.273 . S
C154 O135 1.191 . S
C154 O137 1.307 . S
C155 O182 1.312 . S
C155 O183 1.208 1_455 S
C156 O177 1.331 . S
C156 O180 1.244 1_655 S
C157 O179 1.264 1_455 S
C157 O181 1.273 . S
Mg158 O160 1.936 . S
Mg158 O167 2.081 . S
Mg158 O169 2.023 . S
Mg158 O173 2.031 . S
Mg158 O182 2.291 . S
Mg159 O160 1.963 . S
Mg159 O170 1.942 . S
Mg159 O171 1.955 . S
Mg159 O178 1.986 . S
O160 Mg158 1.936 . S
O160 Mg159 1.963 . S
O160 Mg161 1.915 . S
Mg161 O160 1.915 . S
Mg161 O162 1.915 . S
Mg161 O166 2.013 . S
Mg161 O172 2.114 . S
Mg161 O176 2.013 . S
Mg161 O182 2.114 . S
O162 Mg161 1.915 . S
O162 Mg163 1.936 1_455 S
O162 Mg164 1.963 . S
Mg163 O162 1.936 1_655 S
Mg163 O172 2.291 1_655 S
Mg163 O177 2.081 . S
Mg163 O179 2.023 . S
Mg163 O183 2.031 . S
Mg164 O162 1.963 . S
Mg164 O168 1.986 . S
Mg164 O180 1.942 . S
Mg164 O181 1.955 . S
C165 O176 1.191 . S
C165 O178 1.307 . S
O166 Mg161 2.013 . S
O166 C185 1.191 . S
O167 Mg158 2.081 . S
O167 C175 1.331 . S
O168 Mg164 1.986 . S
O168 C185 1.307 . S
O169 Mg158 2.023 . S
O169 C184 1.264 . S
O170 Mg159 1.942 . S
O170 C175 1.244 . S
O171 Mg159 1.955 . S
O171 C184 1.273 . S
O172 Mg161 2.114 . S
O172 Mg163 2.291 1_455 S
O172 C174 1.312 . S
O173 Mg158 2.031 . S
O173 C174 1.208 . S
C174 O172 1.312 . S
C174 O173 1.208 . S
C175 O167 1.331 . S
C175 O170 1.244 . S
O176 Mg161 2.013 . S
O176 C165 1.191 . S
O177 C156 1.331 . S
O177 Mg163 2.081 . S
O178 Mg159 1.986 . S
O178 C165 1.307 . S
O179 C157 1.264 1_655 S
O179 Mg163 2.023 . S
O180 C156 1.244 1_455 S
O180 Mg164 1.942 . S
O181 C157 1.273 . S
O181 Mg164 1.955 . S
O182 C155 1.312 . S
O182 Mg158 2.291 . S
O182 Mg161 2.114 . S
O183 C155 1.208 1_655 S
O183 Mg163 2.031 . S
C184 O169 1.264 . S
C184 O171 1.273 . S
C185 O166 1.191 . S
C185 O168 1.307 . S
C186 O213 1.312 . S
C186 O214 1.208 . S
C187 O208 1.331 . S
C187 O211 1.244 . S
C188 O210 1.264 . S
C188 O212 1.273 . S
Mg189 O191 1.936 . S
Mg189 O198 2.081 . S
Mg189 O200 2.023 . S
Mg189 O204 2.031 . S
Mg189 O213 2.291 . S
Mg190 O191 1.963 . S
Mg190 O201 1.942 . S
Mg190 O202 1.955 . S
Mg190 O209 1.986 . S
O191 Mg189 1.936 . S
O191 Mg190 1.963 . S
O191 Mg192 1.915 . S
Mg192 O191 1.915 . S
Mg192 O193 1.915 . S
Mg192 O197 2.013 . S
Mg192 O203 2.114 . S
Mg192 O207 2.013 . S
Mg192 O213 2.114 . S
O193 Mg192 1.915 . S
O193 Mg194 1.936 . S
O193 Mg195 1.963 . S
Mg194 O193 1.936 . S
Mg194 O203 2.291 . S
Mg194 O208 2.081 . S
Mg194 O210 2.023 . S
Mg194 O214 2.031 . S
Mg195 O193 1.963 . S
Mg195 O199 1.986 . S
Mg195 O211 1.942 . S
Mg195 O212 1.955 . S
C196 O207 1.191 . S
C196 O209 1.307 . S
O197 Mg192 2.013 . S
O197 C216 1.191 . S
O198 Mg189 2.081 . S
O198 C206 1.331 . S
O199 Mg195 1.986 . S
O199 C216 1.307 . S
O200 Mg189 2.023 . S
O200 C215 1.264 . S
O201 Mg190 1.942 . S
O201 C206 1.244 . S
O202 Mg190 1.955 . S
O202 C215 1.273 . S
O203 Mg192 2.114 . S
O203 Mg194 2.291 . S
O203 C205 1.312 . S
O204 Mg189 2.031 . S
O204 C205 1.208 . S
C205 O203 1.312 . S
C205 O204 1.208 . S
C206 O198 1.331 . S
C206 O201 1.244 . S
O207 Mg192 2.013 . S
O207 C196 1.191 . S
O208 C187 1.331 . S
O208 Mg194 2.081 . S
O209 Mg190 1.986 . S
O209 C196 1.307 . S
O210 C188 1.264 . S
O210 Mg194 2.023 . S
O211 C187 1.244 . S
O211 Mg195 1.942 . S
O212 C188 1.273 . S
O212 Mg195 1.955 . S
O213 C186 1.312 . S
O213 Mg189 2.291 . S
O213 Mg192 2.114 . S
O214 C186 1.208 . S
O214 Mg194 2.031 . S
C215 O200 1.264 . S
C215 O202 1.273 . S
C216 O197 1.191 . S
C216 O199 1.307 . S
C217 O244 1.312 . S
C217 O245 1.208 . S
C218 O239 1.331 . S
C218 O242 1.244 . S
C219 O241 1.264 . S
C219 O243 1.273 . S
Mg220 O222 1.936 . S
Mg220 O229 2.081 . S
Mg220 O231 2.023 . S
Mg220 O235 2.031 . S
Mg220 O244 2.291 . S
Mg221 O222 1.963 . S
Mg221 O232 1.942 . S
Mg221 O233 1.955 . S
Mg221 O240 1.986 . S
O222 Mg220 1.936 . S
O222 Mg221 1.963 . S
O222 Mg223 1.915 . S
Mg223 O222 1.915 . S
Mg223 O224 1.915 . S
Mg223 O228 2.013 . S
Mg223 O234 2.114 . S
Mg223 O238 2.013 . S
Mg223 O244 2.114 . S
O224 Mg223 1.915 . S
O224 Mg225 1.936 . S
O224 Mg226 1.963 . S
Mg225 O224 1.936 . S
Mg225 O234 2.291 . S
Mg225 O239 2.081 . S
Mg225 O241 2.023 . S
Mg225 O245 2.031 . S
Mg226 O224 1.963 . S
Mg226 O230 1.986 . S
Mg226 O242 1.942 . S
Mg226 O243 1.955 . S
C227 O238 1.191 . S
C227 O240 1.307 . S
O228 Mg223 2.013 . S
O228 C247 1.191 . S
O229 Mg220 2.081 . S
O229 C237 1.331 . S
O230 Mg226 1.986 . S
O230 C247 1.307 . S
O231 Mg220 2.023 . S
O231 C246 1.264 . S
O232 Mg221 1.942 . S
O232 C237 1.244 . S
O233 Mg221 1.955 . S
O233 C246 1.273 . S
O234 Mg223 2.114 . S
O234 Mg225 2.291 . S
O234 C236 1.312 . S
O235 Mg220 2.031 . S
O235 C236 1.208 . S
C236 O234 1.312 . S
C236 O235 1.208 . S
C237 O229 1.331 . S
C237 O232 1.244 . S
O238 Mg223 2.013 . S
O238 C227 1.191 . S
O239 C218 1.331 . S
O239 Mg225 2.081 . S
O240 Mg221 1.986 . S
O240 C227 1.307 . S
O241 C219 1.264 . S
O241 Mg225 2.023 . S
O242 C218 1.244 . S
O242 Mg226 1.942 . S
O243 C219 1.273 . S
O243 Mg226 1.955 . S
O244 C217 1.312 . S
O244 Mg220 2.291 . S
O244 Mg223 2.114 . S
O245 C217 1.208 . S
O245 Mg225 2.031 . S
C246 O231 1.264 . S
C246 O233 1.273 . S
C247 O228 1.191 . S
C247 O230 1.307 . S
C248 O275 1.312 . S
C248 O276 1.208 . S
C249 O270 1.331 . S
C249 O273 1.244 . S
C250 O272 1.264 . S
C250 O274 1.273 . S
Mg251 O253 1.936 . S
Mg251 O260 2.081 . S
Mg251 O262 2.023 . S
Mg251 O266 2.031 . S
Mg251 O275 2.291 . S
Mg252 O253 1.963 . S
Mg252 O263 1.942 . S
Mg252 O264 1.955 1_545 S
Mg252 O271 1.986 . S
O253 Mg251 1.936 . S
O253 Mg252 1.963 . S
O253 Mg254 1.915 . S
Mg254 O253 1.915 . S
Mg254 O255 1.915 . S
Mg254 O259 2.013 . S
Mg254 O265 2.114 . S
Mg254 O269 2.013 . S
Mg254 O275 2.114 . S
O255 Mg254 1.915 . S
O255 Mg256 1.936 . S
O255 Mg257 1.963 . S
Mg256 O255 1.936 . S
Mg256 O265 2.291 . S
Mg256 O270 2.081 . S
Mg256 O272 2.023 . S
Mg256 O276 2.031 . S
Mg257 O255 1.963 . S
Mg257 O261 1.986 . S
Mg257 O273 1.942 . S
Mg257 O274 1.955 . S
C258 O269 1.191 . S
C258 O271 1.307 . S
O259 Mg254 2.013 . S
O259 C278 1.191 . S
O260 Mg251 2.081 . S
O260 C268 1.331 . S
O261 Mg257 1.986 . S
O261 C278 1.307 . S
O262 Mg251 2.023 . S
O262 C277 1.264 1_545 S
O263 Mg252 1.942 . S
O263 C268 1.244 . S
O264 Mg252 1.955 1_565 S
O264 C277 1.273 . S
O265 Mg254 2.114 . S
O265 Mg256 2.291 . S
O265 C267 1.312 . S
O266 Mg251 2.031 . S
O266 C267 1.208 . S
C267 O265 1.312 . S
C267 O266 1.208 . S
C268 O260 1.331 . S
C268 O263 1.244 . S
O269 Mg254 2.013 . S
O269 C258 1.191 . S
O270 C249 1.331 . S
O270 Mg256 2.081 . S
O271 Mg252 1.986 . S
O271 C258 1.307 . S
O272 C250 1.264 . S
O272 Mg256 2.023 . S
O273 C249 1.244 . S
O273 Mg257 1.942 . S
O274 C250 1.273 . S
O274 Mg257 1.955 . S
O275 C248 1.312 . S
O275 Mg251 2.291 . S
O275 Mg254 2.114 . S
O276 C248 1.208 . S
O276 Mg256 2.031 . S
C277 O262 1.264 1_565 S
C277 O264 1.273 . S
C278 O259 1.191 . S
C278 O261 1.307 . S
C279 O306 1.312 . S
C279 O307 1.208 . S
C280 O301 1.331 . S
C280 O304 1.244 . S
C281 O303 1.264 . S
C281 O305 1.273 . S
Mg282 O284 1.936 . S
Mg282 O291 2.081 . S
Mg282 O293 2.023 . S
Mg282 O297 2.031 . S
Mg282 O306 2.291 . S
Mg283 O284 1.963 . S
Mg283 O294 1.942 . S
Mg283 O295 1.955 . S
Mg283 O302 1.986 . S
O284 Mg282 1.936 . S
O284 Mg283 1.963 . S
O284 Mg285 1.915 . S
Mg285 O284 1.915 . S
Mg285 O286 1.915 . S
Mg285 O290 2.013 . S
Mg285 O296 2.114 . S
Mg285 O300 2.013 . S
Mg285 O306 2.114 . S
O286 Mg285 1.915 . S
O286 Mg287 1.936 . S
O286 Mg288 1.963 . S
Mg287 O286 1.936 . S
Mg287 O296 2.291 . S
Mg287 O301 2.081 . S
Mg287 O303 2.023 . S
Mg287 O307 2.031 . S
Mg288 O286 1.963 . S
Mg288 O292 1.986 . S
Mg288 O304 1.942 . S
Mg288 O305 1.955 . S
C289 O300 1.191 . S
C289 O302 1.307 . S
O290 Mg285 2.013 . S
O290 C309 1.191 . S
O291 Mg282 2.081 . S
O291 C299 1.331 . S
O292 Mg288 1.986 . S
O292 C309 1.307 . S
O293 Mg282 2.023 . S
O293 C308 1.264 . S
O294 Mg283 1.942 . S
O294 C299 1.244 . S
O295 Mg283 1.955 . S
O295 C308 1.273 . S
O296 Mg285 2.114 . S
O296 Mg287 2.291 . S
O296 C298 1.312 . S
O297 Mg282 2.031 . S
O297 C298 1.208 . S
C298 O296 1.312 . S
C298 O297 1.208 . S
C299 O291 1.331 . S
C299 O294 1.244 . S
O300 Mg285 2.013 . S
O300 C289 1.191 . S
O301 C280 1.331 . S
O301 Mg287 2.081 . S
O302 Mg283 1.986 . S
O302 C289 1.307 . S
O303 C281 1.264 . S
O303 Mg287 2.023 . S
O304 C280 1.244 . S
O304 Mg288 1.942 . S
O305 C281 1.273 . S
O305 Mg288 1.955 . S
O306 C279 1.312 . S
O306 Mg282 2.291 . S
O306 Mg285 2.114 . S
O307 C279 1.208 . S
O307 Mg287 2.031 . S
C308 O293 1.264 . S
C308 O295 1.273 . S
C309 O290 1.191 . S
C309 O292 1.307 . S
C310 O337 1.312 . S
C310 O338 1.208 . S
C311 O332 1.331 . S
C311 O335 1.244 . S
C312 O334 1.264 . S
C312 O336 1.273 . S
Mg313 O315 1.936 . S
Mg313 O322 2.081 . S
Mg313 O324 2.023 . S
Mg313 O328 2.031 . S
Mg313 O337 2.291 . S
Mg314 O315 1.963 . S
Mg314 O325 1.942 . S
Mg314 O326 1.955 . S
Mg314 O333 1.986 . S
O315 Mg313 1.936 . S
O315 Mg314 1.963 . S
O315 Mg316 1.915 . S
Mg316 O315 1.915 . S
Mg316 O317 1.915 . S
Mg316 O321 2.013 . S
Mg316 O327 2.114 . S
Mg316 O331 2.013 . S
Mg316 O337 2.114 . S
O317 Mg316 1.915 . S
O317 Mg318 1.936 . S
O317 Mg319 1.963 . S
Mg318 O317 1.936 . S
Mg318 O327 2.291 . S
Mg318 O332 2.081 . S
Mg318 O334 2.023 . S
Mg318 O338 2.031 . S
Mg319 O317 1.963 . S
Mg319 O323 1.986 . S
Mg319 O335 1.942 . S
Mg319 O336 1.955 . S
C320 O331 1.191 . S
C320 O333 1.307 . S
O321 Mg316 2.013 . S
O321 C340 1.191 . S
O322 Mg313 2.081 . S
O322 C330 1.331 . S
O323 Mg319 1.986 . S
O323 C340 1.307 . S
O324 Mg313 2.023 . S
O324 C339 1.264 . S
O325 Mg314 1.942 . S
O325 C330 1.244 . S
O326 Mg314 1.955 . S
O326 C339 1.273 . S
O327 Mg316 2.114 . S
O327 Mg318 2.291 . S
O327 C329 1.312 . S
O328 Mg313 2.031 . S
O328 C329 1.208 . S
C329 O327 1.312 . S
C329 O328 1.208 . S
C330 O322 1.331 . S
C330 O325 1.244 . S
O331 Mg316 2.013 . S
O331 C320 1.191 . S
O332 C311 1.331 . S
O332 Mg318 2.081 . S
O333 Mg314 1.986 . S
O333 C320 1.307 . S
O334 C312 1.264 . S
O334 Mg318 2.023 . S
O335 C311 1.244 . S
O335 Mg319 1.942 . S
O336 C312 1.273 . S
O336 Mg319 1.955 . S
O337 C310 1.312 . S
O337 Mg313 2.291 . S
O337 Mg316 2.114 . S
O338 C310 1.208 . S
O338 Mg318 2.031 . S
C339 O324 1.264 . S
C339 O326 1.273 . S
C340 O321 1.191 . S
C340 O323 1.307 . S
C341 O368 1.312 . S
C341 O369 1.208 . S
C342 O363 1.331 . S
C342 O366 1.244 . S
C343 O365 1.264 . S
C343 O367 1.273 . S
Mg344 O346 1.936 . S
Mg344 O353 2.081 . S
Mg344 O355 2.023 . S
Mg344 O359 2.031 . S
Mg344 O368 2.291 . S
Mg345 O346 1.963 . S
Mg345 O356 1.942 . S
Mg345 O357 1.955 . S
Mg345 O364 1.986 . S
O346 Mg344 1.936 . S
O346 Mg345 1.963 . S
O346 Mg347 1.915 . S
Mg347 O346 1.915 . S
Mg347 O348 1.915 . S
Mg347 O352 2.013 . S
Mg347 O358 2.114 . S
Mg347 O362 2.013 . S
Mg347 O368 2.114 . S
O348 Mg347 1.915 . S
O348 Mg349 1.936 . S
O348 Mg350 1.963 . S
Mg349 O348 1.936 . S
Mg349 O358 2.291 . S
Mg349 O363 2.081 . S
Mg349 O365 2.023 . S
Mg349 O369 2.031 . S
Mg350 O348 1.963 . S
Mg350 O354 1.986 . S
Mg350 O366 1.942 . S
Mg350 O367 1.955 . S
C351 O362 1.191 . S
C351 O364 1.307 . S
O352 Mg347 2.013 . S
O352 C371 1.191 . S
O353 Mg344 2.081 . S
O353 C361 1.331 . S
O354 Mg350 1.986 . S
O354 C371 1.307 . S
O355 Mg344 2.023 . S
O355 C370 1.264 . S
O356 Mg345 1.942 . S
O356 C361 1.244 . S
O357 Mg345 1.955 . S
O357 C370 1.273 . S
O358 Mg347 2.114 . S
O358 Mg349 2.291 . S
O358 C360 1.312 . S
O359 Mg344 2.031 . S
O359 C360 1.208 . S
C360 O358 1.312 . S
C360 O359 1.208 . S
C361 O353 1.331 . S
C361 O356 1.244 . S
O362 Mg347 2.013 . S
O362 C351 1.191 . S
O363 C342 1.331 . S
O363 Mg349 2.081 . S
O364 Mg345 1.986 . S
O364 C351 1.307 . S
O365 C343 1.264 . S
O365 Mg349 2.023 . S
O366 C342 1.244 . S
O366 Mg350 1.942 . S
O367 C343 1.273 . S
O367 Mg350 1.955 . S
O368 C341 1.312 . S
O368 Mg344 2.291 . S
O368 Mg347 2.114 . S
O369 C341 1.208 . S
O369 Mg349 2.031 . S
C370 O355 1.264 . S
C370 O357 1.273 . S
C371 O352 1.191 . S
C371 O354 1.307 . S
C372 O399 1.312 . S
C372 O400 1.208 . S
C373 O394 1.331 . S
C373 O397 1.244 . S
C374 O396 1.264 . S
C374 O398 1.273 . S
Mg375 O377 1.936 . S
Mg375 O384 2.081 . S
Mg375 O386 2.023 . S
Mg375 O390 2.031 . S
Mg375 O399 2.291 . S
Mg376 O377 1.963 . S
Mg376 O387 1.942 . S
Mg376 O388 1.955 . S
Mg376 O395 1.986 . S
O377 Mg375 1.936 . S
O377 Mg376 1.963 . S
O377 Mg378 1.915 . S
Mg378 O377 1.915 . S
Mg378 O379 1.915 . S
Mg378 O383 2.013 . S
Mg378 O389 2.114 . S
Mg378 O393 2.013 . S
Mg378 O399 2.114 . S
O379 Mg378 1.915 . S
O379 Mg380 1.936 . S
O379 Mg381 1.963 . S
Mg380 O379 1.936 . S
Mg380 O389 2.291 . S
Mg380 O394 2.081 . S
Mg380 O396 2.023 . S
Mg380 O400 2.031 . S
Mg381 O379 1.963 . S
Mg381 O385 1.986 . S
Mg381 O397 1.942 . S
Mg381 O398 1.955 . S
C382 O393 1.191 . S
C382 O395 1.307 . S
O383 Mg378 2.013 . S
O383 C402 1.191 . S
O384 Mg375 2.081 . S
O384 C392 1.331 . S
O385 Mg381 1.986 . S
O385 C402 1.307 . S
O386 Mg375 2.023 . S
O386 C401 1.264 . S
O387 Mg376 1.942 . S
O387 C392 1.244 . S
O388 Mg376 1.955 . S
O388 C401 1.273 . S
O389 Mg378 2.114 . S
O389 Mg380 2.291 . S
O389 C391 1.312 . S
O390 Mg375 2.031 . S
O390 C391 1.208 . S
C391 O389 1.312 . S
C391 O390 1.208 . S
C392 O384 1.331 . S
C392 O387 1.244 . S
O393 Mg378 2.013 . S
O393 C382 1.191 . S
O394 C373 1.331 . S
O394 Mg380 2.081 . S
O395 Mg376 1.986 . S
O395 C382 1.307 . S
O396 C374 1.264 . S
O396 Mg380 2.023 . S
O397 C373 1.244 . S
O397 Mg381 1.942 . S
O398 C374 1.273 . S
O398 Mg381 1.955 . S
O399 C372 1.312 . S
O399 Mg375 2.291 . S
O399 Mg378 2.114 . S
O400 C372 1.208 . S
O400 Mg380 2.031 . S
C401 O386 1.264 . S
C401 O388 1.273 . S
C402 O383 1.191 . S
C402 O385 1.307 . S
C403 O430 1.312 . S
C403 O431 1.208 . S
C404 O425 1.331 . S
C404 O428 1.244 . S
C405 O427 1.264 . S
C405 O429 1.273 . S
Mg406 O408 1.936 . S
Mg406 O415 2.081 . S
Mg406 O417 2.023 . S
Mg406 O421 2.031 . S
Mg406 O430 2.291 . S
Mg407 O408 1.963 . S
Mg407 O418 1.942 . S
Mg407 O419 1.955 . S
Mg407 O426 1.986 . S
O408 Mg406 1.936 . S
O408 Mg407 1.963 . S
O408 Mg409 1.915 . S
Mg409 O408 1.915 . S
Mg409 O410 1.915 . S
Mg409 O414 2.013 . S
Mg409 O420 2.114 . S
Mg409 O424 2.013 . S
Mg409 O430 2.114 . S
O410 Mg409 1.915 . S
O410 Mg411 1.936 . S
O410 Mg412 1.963 . S
Mg411 O410 1.936 . S
Mg411 O420 2.291 . S
Mg411 O425 2.081 . S
Mg411 O427 2.023 . S
Mg411 O431 2.031 . S
Mg412 O410 1.963 . S
Mg412 O416 1.986 . S
Mg412 O428 1.942 . S
Mg412 O429 1.955 . S
C413 O424 1.191 . S
C413 O426 1.307 . S
O414 Mg409 2.013 . S
O414 C433 1.191 . S
O415 Mg406 2.081 . S
O415 C423 1.331 . S
O416 Mg412 1.986 . S
O416 C433 1.307 . S
O417 Mg406 2.023 . S
O417 C432 1.264 . S
O418 Mg407 1.942 . S
O418 C423 1.244 . S
O419 Mg407 1.955 . S
O419 C432 1.273 . S
O420 Mg409 2.114 . S
O420 Mg411 2.291 . S
O420 C422 1.312 . S
O421 Mg406 2.031 . S
O421 C422 1.208 . S
C422 O420 1.312 . S
C422 O421 1.208 . S
C423 O415 1.331 . S
C423 O418 1.244 . S
O424 Mg409 2.013 . S
O424 C413 1.191 . S
O425 C404 1.331 . S
O425 Mg411 2.081 . S
O426 Mg407 1.986 . S
O426 C413 1.307 . S
O427 C405 1.264 . S
O427 Mg411 2.023 . S
O428 C404 1.244 . S
O428 Mg412 1.942 . S
O429 C405 1.273 . S
O429 Mg412 1.955 . S
O430 C403 1.312 . S
O430 Mg406 2.291 . S
O430 Mg409 2.114 . S
O431 C403 1.208 . S
O431 Mg411 2.031 . S
C432 O417 1.264 . S
C432 O419 1.273 . S
C433 O414 1.191 . S
C433 O416 1.307 . S
C434 O461 1.312 . S
C434 O462 1.208 . S
C435 O456 1.331 . S
C435 O459 1.244 . S
C436 O458 1.264 . S
C436 O460 1.273 . S
Mg437 O439 1.936 . S
Mg437 O446 2.081 . S
Mg437 O448 2.023 . S
Mg437 O452 2.031 . S
Mg437 O461 2.291 . S
Mg438 O439 1.963 . S
Mg438 O449 1.942 . S
Mg438 O450 1.955 . S
Mg438 O457 1.986 . S
O439 Mg437 1.936 . S
O439 Mg438 1.963 . S
O439 Mg440 1.915 . S
Mg440 O439 1.915 . S
Mg440 O441 1.915 . S
Mg440 O445 2.013 . S
Mg440 O451 2.114 . S
Mg440 O455 2.013 . S
Mg440 O461 2.114 . S
O441 Mg440 1.915 . S
O441 Mg442 1.936 . S
O441 Mg443 1.963 . S
Mg442 O441 1.936 . S
Mg442 O451 2.291 . S
Mg442 O456 2.081 . S
Mg442 O458 2.023 . S
Mg442 O462 2.031 . S
Mg443 O441 1.963 . S
Mg443 O447 1.986 . S
Mg443 O459 1.942 . S
Mg443 O460 1.955 . S
C444 O455 1.191 . S
C444 O457 1.307 . S
O445 Mg440 2.013 . S
O445 C464 1.191 . S
O446 Mg437 2.081 . S
O446 C454 1.331 . S
O447 Mg443 1.986 . S
O447 C464 1.307 . S
O448 Mg437 2.023 . S
O448 C463 1.264 . S
O449 Mg438 1.942 . S
O449 C454 1.244 . S
O450 Mg438 1.955 . S
O450 C463 1.273 . S
O451 Mg440 2.114 . S
O451 Mg442 2.291 . S
O451 C453 1.312 . S
O452 Mg437 2.031 . S
O452 C453 1.208 . S
C453 O451 1.312 . S
C453 O452 1.208 . S
C454 O446 1.331 . S
C454 O449 1.244 . S
O455 Mg440 2.013 . S
O455 C444 1.191 . S
O456 C435 1.331 . S
O456 Mg442 2.081 . S
O457 Mg438 1.986 . S
O457 C444 1.307 . S
O458 C436 1.264 . S
O458 Mg442 2.023 . S
O459 C435 1.244 . S
O459 Mg443 1.942 . S
O460 C436 1.273 . S
O460 Mg443 1.955 . S
O461 C434 1.312 . S
O461 Mg437 2.291 . S
O461 Mg440 2.114 . S
O462 C434 1.208 . S
O462 Mg442 2.031 . S
C463 O448 1.264 . S
C463 O450 1.273 . S
C464 O445 1.191 . S
C464 O447 1.307 . S
C465 O492 1.312 . S
C465 O493 1.208 . S
C466 O487 1.331 . S
C466 O490 1.244 . S
C467 O489 1.264 . S
C467 O491 1.273 . S
Mg468 O470 1.936 . S
Mg468 O477 2.081 . S
Mg468 O479 2.023 . S
Mg468 O483 2.031 . S
Mg468 O492 2.291 . S
Mg469 O470 1.963 . S
Mg469 O480 1.942 . S
Mg469 O481 1.955 . S
Mg469 O488 1.986 . S
O470 Mg468 1.936 . S
O470 Mg469 1.963 . S
O470 Mg471 1.915 . S
Mg471 O470 1.915 . S
Mg471 O472 1.915 . S
Mg471 O476 2.013 . S
Mg471 O482 2.114 . S
Mg471 O486 2.013 . S
Mg471 O492 2.114 . S
O472 Mg471 1.915 . S
O472 Mg473 1.936 . S
O472 Mg474 1.963 . S
Mg473 O472 1.936 . S
Mg473 O482 2.291 . S
Mg473 O487 2.081 . S
Mg473 O489 2.023 . S
Mg473 O493 2.031 . S
Mg474 O472 1.963 . S
Mg474 O478 1.986 . S
Mg474 O490 1.942 . S
Mg474 O491 1.955 . S
C475 O486 1.191 . S
C475 O488 1.307 . S
O476 Mg471 2.013 . S
O476 C495 1.191 . S
O477 Mg468 2.081 . S
O477 C485 1.331 . S
O478 Mg474 1.986 . S
O478 C495 1.307 . S
O479 Mg468 2.023 . S
O479 C494 1.264 . S
O480 Mg469 1.942 . S
O480 C485 1.244 . S
O481 Mg469 1.955 . S
O481 C494 1.273 . S
O482 Mg471 2.114 . S
O482 Mg473 2.291 . S
O482 C484 1.312 . S
O483 Mg468 2.031 . S
O483 C484 1.208 . S
C484 O482 1.312 . S
C484 O483 1.208 . S
C485 O477 1.331 . S
C485 O480 1.244 . S
O486 Mg471 2.013 . S
O486 C475 1.191 . S
O487 C466 1.331 . S
O487 Mg473 2.081 . S
O488 Mg469 1.986 . S
O488 C475 1.307 . S
O489 C467 1.264 . S
O489 Mg473 2.023 . S
O490 C466 1.244 . S
O490 Mg474 1.942 . S
O491 C467 1.273 . S
O491 Mg474 1.955 . S
O492 C465 1.312 . S
O492 Mg468 2.291 . S
O492 Mg471 2.114 . S
O493 C465 1.208 . S
O493 Mg473 2.031 . S
C494 O479 1.264 . S
C494 O481 1.273 . S
C495 O476 1.191 . S
C495 O478 1.307 . S
H496 C514 0.951 . S
H497 C516 0.951 . S
H498 C518 0.950 . S
H499 C519 0.950 . S
H500 C521 0.950 . S
H501 C524 0.950 . S
H502 C525 0.950 . S
H503 C527 0.950 . S
H504 C528 0.950 . S
H505 C529 0.951 . S
H506 C531 0.951 . S
H507 C533 0.950 . S
H508 C534 0.950 . S
H509 C536 0.950 . S
H510 C539 0.950 . S
H511 C540 0.950 . S
H512 C542 0.950 . S
H513 C543 0.950 . S
C514 H496 0.951 . S
C514 C515 1.366 . S
C514 C516 1.388 . S
C515 C514 1.366 . S
C515 C519 1.385 . S
C516 H497 0.951 . S
C516 C514 1.388 . S
C516 C517 1.366 . S
C517 C516 1.366 . S
C517 C518 1.414 . S
C517 C520 1.499 . S
C518 H498 0.950 . S
C518 C517 1.414 . S
C518 C519 1.374 . S
C519 H499 0.950 . S
C519 C515 1.385 . S
C519 C518 1.374 . S
C520 C517 1.499 . S
C520 C521 1.373 . S
C520 C522 1.389 . S
C521 H500 0.950 . S
C521 C520 1.373 . S
C521 C537 1.377 . S
C522 C520 1.389 . S
C522 C523 1.524 . S
C522 C536 1.377 . S
C523 C522 1.524 . S
C523 C524 1.397 . S
C523 C528 1.363 . S
C524 H501 0.950 . S
C524 C523 1.397 . S
C524 C525 1.334 . S
C525 H502 0.950 . S
C525 C524 1.334 . S
C525 C526 1.287 . S
C526 C525 1.287 . S
C526 C527 1.524 . S
C526 H545 0.913 . S
C527 H503 0.950 . S
C527 C526 1.524 . S
C527 C528 1.415 . S
C528 H504 0.950 . S
C528 C523 1.363 . S
C528 C527 1.415 . S
C529 H505 0.951 . S
C529 C530 1.366 . S
C529 C531 1.388 . S
C530 C529 1.366 . S
C530 C534 1.385 . S
C531 H506 0.951 . S
C531 C529 1.388 . S
C531 C532 1.366 . S
C532 C531 1.366 . S
C532 C533 1.414 . S
C532 C535 1.499 . S
C533 H507 0.950 . S
C533 C532 1.414 . S
C533 C534 1.374 . S
C534 H508 0.950 . S
C534 C530 1.385 . S
C534 C533 1.374 . S
C535 C532 1.499 . S
C535 C536 1.373 . S
C535 C537 1.389 . S
C536 H509 0.950 . S
C536 C522 1.377 . S
C536 C535 1.373 . S
C537 C521 1.377 . S
C537 C535 1.389 . S
C537 C538 1.524 . S
C538 C537 1.524 . S
C538 C539 1.397 . S
C538 C543 1.363 . S
C539 H510 0.950 . S
C539 C538 1.397 . S
C539 C540 1.334 . S
C540 H511 0.950 . S
C540 C539 1.334 . S
C540 C541 1.287 . S
C541 C540 1.287 . S
C541 C542 1.524 . S
C541 H544 0.999 . S
C542 H512 0.950 . S
C542 C541 1.524 . S
C542 C543 1.415 . S
C543 H513 0.950 . S
C543 C538 1.363 . S
C543 C542 1.415 . S
H544 C541 0.999 . S
H545 C526 0.913 . S
H546 C564 0.944 1_545 S
H547 C566 0.951 . S
H548 C568 0.950 . S
H549 C569 0.950 . S
H550 C571 0.950 . S
H551 C574 0.950 . S
H552 C575 0.950 . S
H553 C577 0.950 . S
H554 C578 0.950 . S
H555 C579 0.951 . S
H556 C581 0.951 . S
H557 C583 0.950 . S
H558 C584 0.950 . S
H559 C586 0.950 . S
H560 C589 0.950 . S
H561 C590 0.950 . S
H562 C592 0.950 . S
H563 C593 0.950 . S
C564 H546 0.944 1_565 S
C564 C565 1.366 1_655 S
C564 C566 1.388 . S
C565 C564 1.366 1_455 S
C565 C569 1.385 . S
C566 H547 0.951 . S
C566 C564 1.388 . S
C566 C567 1.366 . S
C567 C566 1.366 . S
C567 C568 1.414 . S
C567 C570 1.499 . S
C568 H548 0.950 . S
C568 C567 1.414 . S
C568 C569 1.374 1_655 S
C569 H549 0.950 . S
C569 C565 1.385 . S
C569 C568 1.374 1_455 S
C570 C567 1.499 . S
C570 C571 1.373 . S
C570 C572 1.389 . S
C571 H550 0.950 . S
C571 C570 1.373 . S
C571 C587 1.377 . S
C572 C570 1.389 . S
C572 C573 1.524 . S
C572 C586 1.377 . S
C573 C572 1.524 . S
C573 C574 1.397 . S
C573 C578 1.363 . S
C574 H551 0.950 . S
C574 C573 1.397 . S
C574 C575 1.334 1_565 S
C575 H552 0.950 . S
C575 C574 1.334 1_545 S
C575 C576 1.287 . S
C576 C575 1.287 . S
C576 C577 1.524 . S
C576 H595 0.913 . S
C577 H553 0.950 . S
C577 C576 1.524 . S
C577 C578 1.415 1_545 S
C578 H554 0.950 . S
C578 C573 1.363 . S
C578 C577 1.415 1_565 S
C579 H555 0.951 . S
C579 C580 1.366 . S
C579 C581 1.388 . S
C580 C579 1.366 . S
C580 C584 1.385 . S
C581 H556 0.951 . S
C581 C579 1.388 . S
C581 C582 1.366 . S
C582 C581 1.366 . S
C582 C583 1.414 . S
C582 C585 1.499 . S
C583 H557 0.950 . S
C583 C582 1.414 . S
C583 C584 1.374 . S
C584 H558 0.950 . S
C584 C580 1.385 . S
C584 C583 1.374 . S
C585 C582 1.499 . S
C585 C586 1.373 . S
C585 C587 1.389 . S
C586 H559 0.950 . S
C586 C572 1.377 . S
C586 C585 1.373 . S
C587 C571 1.377 . S
C587 C585 1.389 . S
C587 C588 1.524 . S
C588 C587 1.524 . S
C588 C589 1.397 . S
C588 C593 1.363 . S
C589 H560 0.950 . S
C589 C588 1.397 . S
C589 C590 1.334 . S
C590 H561 0.950 . S
C590 C589 1.334 . S
C590 C591 1.287 . S
C591 C590 1.287 . S
C591 C592 1.524 . S
C591 H594 0.999 . S
C592 H562 0.950 . S
C592 C591 1.524 . S
C592 C593 1.415 . S
C593 H563 0.950 . S
C593 C588 1.363 . S
C593 C592 1.415 . S
H594 C591 0.999 . S
H595 C576 0.913 . S
H596 C614 0.951 1_545 S
H597 C616 0.951 . S
H598 C618 0.950 . S
H599 C619 0.950 1_545 S
H600 C621 0.950 . S
H601 C624 0.950 . S
H602 C625 0.950 . S
H603 C627 0.950 . S
H604 C628 0.950 . S
H605 C629 0.951 . S
H606 C631 0.951 . S
H607 C633 0.950 . S
H608 C634 0.950 . S
H609 C636 0.950 . S
H610 C639 0.950 . S
H611 C640 0.950 . S
H612 C642 0.950 . S
H613 C643 0.950 . S
C614 H596 0.951 1_565 S
C614 C615 1.366 1_565 S
C614 C616 1.388 . S
C615 C614 1.366 1_545 S
C615 C619 1.385 1_545 S
C616 H597 0.951 . S
C616 C614 1.388 . S
C616 C617 1.366 . S
C617 C616 1.366 . S
C617 C618 1.414 . S
C617 C620 1.499 . S
C618 H598 0.950 . S
C618 C617 1.414 . S
C618 C619 1.374 . S
C619 H599 0.950 1_565 S
C619 C615 1.385 1_565 S
C619 C618 1.374 . S
C620 C617 1.499 . S
C620 C621 1.373 . S
C620 C622 1.389 . S
C621 H600 0.950 . S
C621 C620 1.373 . S
C621 C637 1.377 . S
C622 C620 1.389 . S
C622 C623 1.524 . S
C622 C636 1.377 . S
C623 C622 1.524 . S
C623 C624 1.397 1_565 S
C623 C628 1.363 . S
C624 H601 0.950 . S
C624 C623 1.397 1_545 S
C624 C625 1.334 . S
C625 H602 0.950 . S
C625 C624 1.334 . S
C625 C626 1.287 . S
C626 C625 1.287 . S
C626 C627 1.524 . S
C626 H645 0.913 . S
C627 H603 0.950 . S
C627 C626 1.524 . S
C627 C628 1.415 1_545 S
C628 H604 0.950 . S
C628 C623 1.363 . S
C628 C627 1.415 1_565 S
C629 H605 0.951 . S
C629 C630 1.366 . S
C629 C631 1.388 . S
C630 C629 1.366 . S
C630 C634 1.385 . S
C631 H606 0.951 . S
C631 C629 1.388 . S
C631 C632 1.366 . S
C632 C631 1.366 . S
C632 C633 1.414 . S
C632 C635 1.499 . S
C633 H607 0.950 . S
C633 C632 1.414 . S
C633 C634 1.374 . S
C634 H608 0.950 . S
C634 C630 1.385 . S
C634 C633 1.374 . S
C635 C632 1.499 . S
C635 C636 1.373 . S
C635 C637 1.389 . S
C636 H609 0.950 . S
C636 C622 1.377 . S
C636 C635 1.373 . S
C637 C621 1.377 . S
C637 C635 1.389 . S
C637 C638 1.524 . S
C638 C637 1.524 . S
C638 C639 1.397 . S
C638 C643 1.363 . S
C639 H610 0.950 . S
C639 C638 1.397 . S
C639 C640 1.334 . S
C640 H611 0.950 . S
C640 C639 1.334 . S
C640 C641 1.287 . S
C641 C640 1.287 . S
C641 C642 1.524 . S
C641 H644 0.999 . S
C642 H612 0.950 . S
C642 C641 1.524 . S
C642 C643 1.415 . S
C643 H613 0.950 . S
C643 C638 1.363 . S
C643 C642 1.415 . S
H644 C641 0.999 . S
H645 C626 0.913 . S
H646 C664 0.951 . S
H647 C666 0.951 . S
H648 C668 0.950 . S
H649 C669 0.957 . S
H650 C671 0.950 . S
H651 C674 0.950 . S
H652 C675 0.950 . S
H653 C677 0.950 . S
H654 C678 0.950 . S
H655 C679 0.951 . S
H656 C681 0.951 . S
H657 C683 0.950 . S
H658 C684 0.950 . S
H659 C686 0.950 . S
H660 C689 0.950 . S
H661 C690 0.950 . S
H662 C692 0.950 . S
H663 C693 0.950 . S
C664 H646 0.951 . S
C664 C665 1.366 1_655 S
C664 C666 1.388 . S
C665 C664 1.366 1_455 S
C665 C669 1.385 . S
C666 H647 0.951 . S
C666 C664 1.388 . S
C666 C667 1.366 . S
C667 C666 1.366 . S
C667 C668 1.414 . S
C667 C670 1.499 . S
C668 H648 0.950 . S
C668 C667 1.414 . S
C668 C669 1.366 1_655 S
C669 H649 0.957 . S
C669 C665 1.385 . S
C669 C668 1.366 1_455 S
C670 C667 1.499 . S
C670 C671 1.373 . S
C670 C672 1.389 . S
C671 H650 0.950 . S
C671 C670 1.373 . S
C671 C687 1.377 . S
C672 C670 1.389 . S
C672 C673 1.524 . S
C672 C686 1.377 . S
C673 C672 1.524 . S
C673 C674 1.397 . S
C673 C678 1.363 . S
C674 H651 0.950 . S
C674 C673 1.397 . S
C674 C675 1.334 . S
C675 H652 0.950 . S
C675 C674 1.334 . S
C675 C676 1.287 . S
C676 C675 1.287 . S
C676 C677 1.524 . S
C676 H695 0.913 . S
C677 H653 0.950 . S
C677 C676 1.524 . S
C677 C678 1.415 . S
C678 H654 0.950 . S
C678 C673 1.363 . S
C678 C677 1.415 . S
C679 H655 0.951 . S
C679 C680 1.366 . S
C679 C681 1.388 . S
C680 C679 1.366 . S
C680 C684 1.385 . S
C681 H656 0.951 . S
C681 C679 1.388 . S
C681 C682 1.366 . S
C682 C681 1.366 . S
C682 C683 1.414 . S
C682 C685 1.499 . S
C683 H657 0.950 . S
C683 C682 1.414 . S
C683 C684 1.374 . S
C684 H658 0.950 . S
C684 C680 1.385 . S
C684 C683 1.374 . S
C685 C682 1.499 . S
C685 C686 1.373 . S
C685 C687 1.389 . S
C686 H659 0.950 . S
C686 C672 1.377 . S
C686 C685 1.373 . S
C687 C671 1.377 . S
C687 C685 1.389 . S
C687 C688 1.524 . S
C688 C687 1.524 . S
C688 C689 1.397 . S
C688 C693 1.363 . S
C689 H660 0.950 . S
C689 C688 1.397 . S
C689 C690 1.334 . S
C690 H661 0.950 . S
C690 C689 1.334 . S
C690 C691 1.287 . S
C691 C690 1.287 . S
C691 C692 1.524 . S
C691 H694 0.999 . S
C692 H662 0.950 . S
C692 C691 1.524 . S
C692 C693 1.415 . S
C693 H663 0.950 . S
C693 C688 1.363 . S
C693 C692 1.415 . S
H694 C691 0.999 . S
H695 C676 0.913 . S
H696 C714 0.951 . S
H697 C716 0.951 . S
H698 C718 0.950 . S
H699 C719 0.950 . S
H700 C721 0.950 . S
H701 C724 0.950 . S
H702 C725 0.950 . S
H703 C727 0.950 . S
H704 C728 0.950 . S
H705 C729 0.951 . S
H706 C731 0.951 . S
H707 C733 0.950 . S
H708 C734 0.950 . S
H709 C736 0.950 . S
H710 C739 0.950 . S
H711 C740 0.950 . S
H712 C742 0.950 . S
H713 C743 0.950 . S
C714 H696 0.951 . S
C714 C715 1.366 . S
C714 C716 1.388 . S
C715 C714 1.366 . S
C715 C719 1.385 . S
C716 H697 0.951 . S
C716 C714 1.388 . S
C716 C717 1.366 . S
C717 C716 1.366 . S
C717 C718 1.414 . S
C717 C720 1.499 . S
C718 H698 0.950 . S
C718 C717 1.414 . S
C718 C719 1.374 . S
C719 H699 0.950 . S
C719 C715 1.385 . S
C719 C718 1.374 . S
C720 C717 1.499 . S
C720 C721 1.373 . S
C720 C722 1.389 . S
C721 H700 0.950 . S
C721 C720 1.373 . S
C721 C737 1.377 . S
C722 C720 1.389 . S
C722 C723 1.524 . S
C722 C736 1.377 . S
C723 C722 1.524 . S
C723 C724 1.397 . S
C723 C728 1.363 . S
C724 H701 0.950 . S
C724 C723 1.397 . S
C724 C725 1.334 . S
C725 H702 0.950 . S
C725 C724 1.334 . S
C725 C726 1.287 . S
C726 C725 1.287 . S
C726 C727 1.524 . S
C726 H745 0.913 . S
C727 H703 0.950 . S
C727 C726 1.524 . S
C727 C728 1.415 . S
C728 H704 0.950 . S
C728 C723 1.363 . S
C728 C727 1.415 . S
C729 H705 0.951 . S
C729 C730 1.366 . S
C729 C731 1.388 . S
C730 C729 1.366 . S
C730 C734 1.385 . S
C731 H706 0.951 . S
C731 C729 1.388 . S
C731 C732 1.366 . S
C732 C731 1.366 . S
C732 C733 1.414 . S
C732 C735 1.499 . S
C733 H707 0.950 . S
C733 C732 1.414 . S
C733 C734 1.374 . S
C734 H708 0.950 . S
C734 C730 1.385 . S
C734 C733 1.374 . S
C735 C732 1.499 . S
C735 C736 1.373 . S
C735 C737 1.389 . S
C736 H709 0.950 . S
C736 C722 1.377 . S
C736 C735 1.373 . S
C737 C721 1.377 . S
C737 C735 1.389 . S
C737 C738 1.524 . S
C738 C737 1.524 . S
C738 C739 1.397 . S
C738 C743 1.363 . S
C739 H710 0.950 . S
C739 C738 1.397 . S
C739 C740 1.334 . S
C740 H711 0.950 . S
C740 C739 1.334 . S
C740 C741 1.287 . S
C741 C740 1.287 . S
C741 C742 1.524 . S
C741 H744 0.999 . S
C742 H712 0.950 . S
C742 C741 1.524 . S
C742 C743 1.415 . S
C743 H713 0.950 . S
C743 C738 1.363 . S
C743 C742 1.415 . S
H744 C741 0.999 . S
H745 C726 0.913 . S
H746 C764 0.951 1_655 S
H747 C766 0.951 . S
H748 C768 0.956 . S
H749 C769 0.950 . S
H750 C771 0.950 . S
H751 C774 0.950 . S
H752 C775 0.950 . S
H753 C777 0.950 . S
H754 C778 0.950 . S
H755 C779 0.951 . S
H756 C781 0.951 . S
H757 C783 0.950 . S
H758 C784 0.950 . S
H759 C786 0.950 . S
H760 C789 0.950 . S
H761 C790 0.950 . S
H762 C792 0.950 . S
H763 C793 0.950 . S
C764 H746 0.951 1_455 S
C764 C765 1.366 1_545 S
C764 C766 1.388 . S
C765 C764 1.366 1_565 S
C765 C769 1.385 . S
C766 H747 0.951 . S
C766 C764 1.388 . S
C766 C767 1.366 . S
C767 C766 1.366 . S
C767 C768 1.414 . S
C767 C770 1.499 . S
C768 H748 0.956 . S
C768 C767 1.414 . S
C768 C769 1.374 1_545 S
C769 H749 0.950 . S
C769 C765 1.385 . S
C769 C768 1.374 1_565 S
C770 C767 1.499 . S
C770 C771 1.373 . S
C770 C772 1.389 . S
C771 H750 0.950 . S
C771 C770 1.373 . S
C771 C787 1.377 . S
C772 C770 1.389 . S
C772 C773 1.524 . S
C772 C786 1.377 . S
C773 C772 1.524 . S
C773 C774 1.397 . S
C773 C778 1.363 . S
C774 H751 0.950 . S
C774 C773 1.397 . S
C774 C775 1.334 . S
C775 H752 0.950 . S
C775 C774 1.334 . S
C775 C776 1.287 . S
C776 C775 1.287 . S
C776 C777 1.524 . S
C776 H795 0.913 . S
C777 H753 0.950 . S
C777 C776 1.524 . S
C777 C778 1.415 . S
C778 H754 0.950 . S
C778 C773 1.363 . S
C778 C777 1.415 . S
C779 H755 0.951 . S
C779 C780 1.366 . S
C779 C781 1.388 . S
C780 C779 1.366 . S
C780 C784 1.385 . S
C781 H756 0.951 . S
C781 C779 1.388 . S
C781 C782 1.366 . S
C782 C781 1.366 . S
C782 C783 1.414 . S
C782 C785 1.499 . S
C783 H757 0.950 . S
C783 C782 1.414 . S
C783 C784 1.374 . S
C784 H758 0.950 . S
C784 C780 1.385 . S
C784 C783 1.374 . S
C785 C782 1.499 . S
C785 C786 1.373 . S
C785 C787 1.389 . S
C786 H759 0.950 . S
C786 C772 1.377 . S
C786 C785 1.373 . S
C787 C771 1.377 . S
C787 C785 1.389 . S
C787 C788 1.524 . S
C788 C787 1.524 . S
C788 C789 1.397 . S
C788 C793 1.363 . S
C789 H760 0.950 . S
C789 C788 1.397 . S
C789 C790 1.334 . S
C790 H761 0.950 . S
C790 C789 1.334 . S
C790 C791 1.287 . S
C791 C790 1.287 . S
C791 C792 1.524 . S
C791 H794 0.999 . S
C792 H762 0.950 . S
C792 C791 1.524 . S
C792 C793 1.415 . S
C793 H763 0.950 . S
C793 C788 1.363 . S
C793 C792 1.415 . S
H794 C791 0.999 . S
H795 C776 0.913 . S
H796 C814 0.951 . S
H797 C816 0.951 . S
H798 C818 0.950 . S
H799 C819 0.950 . S
H800 C821 0.950 . S
H801 C824 0.950 . S
H802 C825 0.950 . S
H803 C827 0.950 . S
H804 C828 0.950 . S
H805 C829 0.951 . S
H806 C831 0.951 . S
H807 C833 0.950 . S
H808 C834 0.950 . S
H809 C836 0.950 . S
H810 C839 0.950 . S
H811 C840 0.950 . S
H812 C842 0.950 . S
H813 C843 0.950 . S
C814 H796 0.951 . S
C814 C815 1.366 . S
C814 C816 1.388 1_565 S
C815 C814 1.366 . S
C815 C819 1.385 1_565 S
C816 H797 0.951 . S
C816 C814 1.388 1_545 S
C816 C817 1.366 . S
C817 C816 1.366 . S
C817 C818 1.414 . S
C817 C820 1.499 . S
C818 H798 0.950 . S
C818 C817 1.414 . S
C818 C819 1.374 . S
C819 H799 0.950 . S
C819 C815 1.385 1_545 S
C819 C818 1.374 . S
C820 C817 1.499 . S
C820 C821 1.373 . S
C820 C822 1.389 . S
C821 H800 0.950 . S
C821 C820 1.373 . S
C821 C837 1.377 . S
C822 C820 1.389 . S
C822 C823 1.524 . S
C822 C836 1.377 . S
C823 C822 1.524 . S
C823 C824 1.397 . S
C823 C828 1.363 . S
C824 H801 0.950 . S
C824 C823 1.397 . S
C824 C825 1.334 . S
C825 H802 0.950 . S
C825 C824 1.334 . S
C825 C826 1.287 . S
C826 C825 1.287 . S
C826 C827 1.524 . S
C826 H845 0.913 . S
C827 H803 0.950 . S
C827 C826 1.524 . S
C827 C828 1.415 . S
C828 H804 0.950 . S
C828 C823 1.363 . S
C828 C827 1.415 . S
C829 H805 0.951 . S
C829 C830 1.366 . S
C829 C831 1.388 . S
C830 C829 1.366 . S
C830 C834 1.385 . S
C831 H806 0.951 . S
C831 C829 1.388 . S
C831 C832 1.366 . S
C832 C831 1.366 . S
C832 C833 1.414 . S
C832 C835 1.499 . S
C833 H807 0.950 . S
C833 C832 1.414 . S
C833 C834 1.374 . S
C834 H808 0.950 . S
C834 C830 1.385 . S
C834 C833 1.374 . S
C835 C832 1.499 . S
C835 C836 1.373 . S
C835 C837 1.389 . S
C836 H809 0.950 . S
C836 C822 1.377 . S
C836 C835 1.373 . S
C837 C821 1.377 . S
C837 C835 1.389 . S
C837 C838 1.524 . S
C838 C837 1.524 . S
C838 C839 1.397 . S
C838 C843 1.363 . S
C839 H810 0.950 . S
C839 C838 1.397 . S
C839 C840 1.334 . S
C840 H811 0.950 . S
C840 C839 1.334 . S
C840 C841 1.287 . S
C841 C840 1.287 . S
C841 C842 1.524 . S
C841 H844 0.999 . S
C842 H812 0.950 . S
C842 C841 1.524 . S
C842 C843 1.415 . S
C843 H813 0.950 . S
C843 C838 1.363 . S
C843 C842 1.415 . S
H844 C841 0.999 . S
H845 C826 0.913 . S
H846 C864 0.951 . S
H847 C866 0.951 . S
H848 C868 0.950 . S
H849 C869 0.953 . S
H850 C871 0.950 . S
H851 C874 0.950 . S
H852 C875 0.950 . S
H853 C877 0.950 . S
H854 C878 0.950 . S
H855 C879 0.951 . S
H856 C881 0.951 . S
H857 C883 0.950 . S
H858 C884 0.950 . S
H859 C886 0.950 . S
H860 C889 0.950 . S
H861 C890 0.950 . S
H862 C892 0.950 . S
H863 C893 0.950 . S
C864 H846 0.951 . S
C864 C865 1.366 . S
C864 C866 1.388 . S
C865 C864 1.366 . S
C865 C869 1.385 . S
C866 H847 0.951 . S
C866 C864 1.388 . S
C866 C867 1.366 . S
C867 C866 1.366 . S
C867 C868 1.414 . S
C867 C870 1.499 . S
C868 H848 0.950 . S
C868 C867 1.414 . S
C868 C869 1.374 . S
C869 H849 0.953 . S
C869 C865 1.385 . S
C869 C868 1.374 . S
C870 C867 1.499 . S
C870 C871 1.373 . S
C870 C872 1.389 . S
C871 H850 0.950 . S
C871 C870 1.373 . S
C871 C887 1.377 . S
C872 C870 1.389 . S
C872 C873 1.524 . S
C872 C886 1.377 . S
C873 C872 1.524 . S
C873 C874 1.397 . S
C873 C878 1.363 . S
C874 H851 0.950 . S
C874 C873 1.397 . S
C874 C875 1.334 . S
C875 H852 0.950 . S
C875 C874 1.334 . S
C875 C876 1.287 . S
C876 C875 1.287 . S
C876 C877 1.524 . S
C876 H895 0.913 . S
C877 H853 0.950 . S
C877 C876 1.524 . S
C877 C878 1.415 . S
C878 H854 0.950 . S
C878 C873 1.363 . S
C878 C877 1.415 . S
C879 H855 0.951 . S
C879 C880 1.366 . S
C879 C881 1.388 . S
C880 C879 1.366 . S
C880 C884 1.385 . S
C881 H856 0.951 . S
C881 C879 1.388 . S
C881 C882 1.366 . S
C882 C881 1.366 . S
C882 C883 1.414 . S
C882 C885 1.499 . S
C883 H857 0.950 . S
C883 C882 1.414 . S
C883 C884 1.374 . S
C884 H858 0.950 . S
C884 C880 1.385 . S
C884 C883 1.374 . S
C885 C882 1.499 . S
C885 C886 1.373 . S
C885 C887 1.389 . S
C886 H859 0.950 . S
C886 C872 1.377 . S
C886 C885 1.373 . S
C887 C871 1.377 . S
C887 C885 1.389 . S
C887 C888 1.524 . S
C888 C887 1.524 . S
C888 C889 1.397 . S
C888 C893 1.363 . S
C889 H860 0.950 . S
C889 C888 1.397 . S
C889 C890 1.334 . S
C890 H861 0.950 . S
C890 C889 1.334 . S
C890 C891 1.287 . S
C891 C890 1.287 . S
C891 C892 1.524 . S
C891 H894 0.999 . S
C892 H862 0.950 . S
C892 C891 1.524 . S
C892 C893 1.415 . S
C893 H863 0.950 . S
C893 C888 1.363 . S
C893 C892 1.415 . S
H894 C891 0.999 . S
H895 C876 0.913 . S
H896 C914 0.951 . S
H897 C916 0.951 . S
H898 C918 0.950 . S
H899 C919 0.950 . S
H900 C921 0.950 . S
H901 C924 0.950 . S
H902 C925 0.950 . S
H903 C927 0.950 . S
H904 C928 0.950 . S
H905 C929 0.951 . S
H906 C931 0.951 . S
H907 C933 0.950 . S
H908 C934 0.950 . S
H909 C936 0.950 . S
H910 C939 0.950 . S
H911 C940 0.950 . S
H912 C942 0.950 . S
H913 C943 0.950 . S
C914 H896 0.951 . S
C914 C915 1.366 . S
C914 C916 1.388 . S
C915 C914 1.366 . S
C915 C919 1.385 . S
C916 H897 0.951 . S
C916 C914 1.388 . S
C916 C917 1.366 . S
C917 C916 1.366 . S
C917 C918 1.414 . S
C917 C920 1.499 . S
C918 H898 0.950 . S
C918 C917 1.414 . S
C918 C919 1.374 . S
C919 H899 0.950 . S
C919 C915 1.385 . S
C919 C918 1.374 . S
C920 C917 1.499 . S
C920 C921 1.373 . S
C920 C922 1.389 . S
C921 H900 0.950 . S
C921 C920 1.373 . S
C921 C937 1.377 . S
C922 C920 1.389 . S
C922 C923 1.524 . S
C922 C936 1.377 . S
C923 C922 1.524 . S
C923 C924 1.397 . S
C923 C928 1.363 . S
C924 H901 0.950 . S
C924 C923 1.397 . S
C924 C925 1.334 . S
C925 H902 0.950 . S
C925 C924 1.334 . S
C925 C926 1.287 . S
C926 C925 1.287 . S
C926 C927 1.524 . S
C926 H945 0.913 . S
C927 H903 0.950 . S
C927 C926 1.524 . S
C927 C928 1.415 . S
C928 H904 0.950 . S
C928 C923 1.363 . S
C928 C927 1.415 . S
C929 H905 0.951 . S
C929 C930 1.366 . S
C929 C931 1.388 . S
C930 C929 1.366 . S
C930 C934 1.385 . S
C931 H906 0.951 . S
C931 C929 1.388 . S
C931 C932 1.366 . S
C932 C931 1.366 . S
C932 C933 1.414 . S
C932 C935 1.499 . S
C933 H907 0.950 . S
C933 C932 1.414 . S
C933 C934 1.374 . S
C934 H908 0.950 . S
C934 C930 1.385 . S
C934 C933 1.374 . S
C935 C932 1.499 . S
C935 C936 1.373 . S
C935 C937 1.389 . S
C936 H909 0.950 . S
C936 C922 1.377 . S
C936 C935 1.373 . S
C937 C921 1.377 . S
C937 C935 1.389 . S
C937 C938 1.524 . S
C938 C937 1.524 . S
C938 C939 1.397 . S
C938 C943 1.363 . S
C939 H910 0.950 . S
C939 C938 1.397 . S
C939 C940 1.334 . S
C940 H911 0.950 . S
C940 C939 1.334 . S
C940 C941 1.287 . S
C941 C940 1.287 . S
C941 C942 1.524 . S
C941 H944 0.999 . S
C942 H912 0.950 . S
C942 C941 1.524 . S
C942 C943 1.415 . S
C943 H913 0.950 . S
C943 C938 1.363 . S
C943 C942 1.415 . S
H944 C941 0.999 . S
H945 C926 0.913 . S
H946 C964 0.951 . S
H947 C966 0.951 . S
H948 C968 0.950 . S
H949 C969 0.950 . S
H950 C971 0.950 . S
H951 C974 0.950 . S
H952 C975 0.950 . S
H953 C977 0.950 . S
H954 C978 0.950 . S
H955 C979 0.951 1_455 S
H956 C981 0.951 . S
H957 C983 0.950 . S
H958 C984 0.950 . S
H959 C986 0.950 . S
H960 C989 0.950 . S
H961 C990 0.950 . S
H962 C992 0.950 . S
H963 C993 0.950 . S
C964 H946 0.951 . S
C964 C965 1.366 . S
C964 C966 1.388 . S
C965 C964 1.366 . S
C965 C969 1.385 . S
C966 H947 0.951 . S
C966 C964 1.388 . S
C966 C967 1.366 . S
C967 C966 1.366 . S
C967 C968 1.414 . S
C967 C970 1.499 . S
C968 H948 0.950 . S
C968 C967 1.414 . S
C968 C969 1.374 . S
C969 H949 0.950 . S
C969 C965 1.385 . S
C969 C968 1.374 . S
C970 C967 1.499 . S
C970 C971 1.373 . S
C970 C972 1.389 . S
C971 H950 0.950 . S
C971 C970 1.373 . S
C971 C987 1.377 . S
C972 C970 1.389 . S
C972 C973 1.524 . S
C972 C986 1.377 . S
C973 C972 1.524 . S
C973 C974 1.397 . S
C973 C978 1.363 . S
C974 H951 0.950 . S
C974 C973 1.397 . S
C974 C975 1.334 . S
C975 H952 0.950 . S
C975 C974 1.334 . S
C975 C976 1.287 . S
C976 C975 1.287 . S
C976 C977 1.524 . S
C976 H995 0.913 . S
C977 H953 0.950 . S
C977 C976 1.524 . S
C977 C978 1.415 . S
C978 H954 0.950 . S
C978 C973 1.363 . S
C978 C977 1.415 . S
C979 H955 0.951 1_655 S
C979 C980 1.366 1_655 S
C979 C981 1.388 . S
C980 C979 1.366 1_455 S
C980 C984 1.385 1_455 S
C981 H956 0.951 . S
C981 C979 1.388 . S
C981 C982 1.366 . S
C982 C981 1.366 . S
C982 C983 1.414 . S
C982 C985 1.499 . S
C983 H957 0.950 . S
C983 C982 1.414 . S
C983 C984 1.374 . S
C984 H958 0.950 . S
C984 C980 1.385 1_655 S
C984 C983 1.374 . S
C985 C982 1.499 . S
C985 C986 1.373 . S
C985 C987 1.389 . S
C986 H959 0.950 . S
C986 C972 1.377 . S
C986 C985 1.373 . S
C987 C971 1.377 . S
C987 C985 1.389 . S
C987 C988 1.524 . S
C988 C987 1.524 . S
C988 C989 1.397 . S
C988 C993 1.363 . S
C989 H960 0.950 . S
C989 C988 1.397 . S
C989 C990 1.334 . S
C990 H961 0.950 . S
C990 C989 1.334 . S
C990 C991 1.287 . S
C991 C990 1.287 . S
C991 C992 1.524 . S
C991 H994 0.999 . S
C992 H962 0.950 . S
C992 C991 1.524 . S
C992 C993 1.415 . S
C993 H963 0.950 . S
C993 C988 1.363 . S
C993 C992 1.415 . S
H994 C991 0.999 . S
H995 C976 0.913 . S
H996 C1014 0.951 . S
H997 C1016 0.951 . S
H998 C1018 0.950 . S
H999 C1019 0.950 . S
H1000 C1021 0.950 . S
H1001 C1024 0.950 . S
H1002 C1025 0.950 . S
H1003 C1027 0.950 . S
H1004 C1028 0.950 . S
H1005 C1029 0.951 . S
H1006 C1031 0.951 . S
H1007 C1033 0.950 . S
H1008 C1034 0.950 . S
H1009 C1036 0.950 . S
H1010 C1039 0.950 . S
H1011 C1040 0.950 . S
H1012 C1042 0.950 . S
H1013 C1043 0.950 . S
C1014 H996 0.951 . S
C1014 C1015 1.366 . S
C1014 C1016 1.388 . S
C1015 C1014 1.366 . S
C1015 C1019 1.385 . S
C1016 H997 0.951 . S
C1016 C1014 1.388 . S
C1016 C1017 1.366 . S
C1017 C1016 1.366 . S
C1017 C1018 1.414 . S
C1017 C1020 1.499 . S
C1018 H998 0.950 . S
C1018 C1017 1.414 . S
C1018 C1019 1.374 . S
C1019 H999 0.950 . S
C1019 C1015 1.385 . S
C1019 C1018 1.374 . S
C1020 C1017 1.499 . S
C1020 C1021 1.373 . S
C1020 C1022 1.389 . S
C1021 H1000 0.950 . S
C1021 C1020 1.373 . S
C1021 C1037 1.377 . S
C1022 C1020 1.389 . S
C1022 C1023 1.524 . S
C1022 C1036 1.377 . S
C1023 C1022 1.524 . S
C1023 C1024 1.397 . S
C1023 C1028 1.363 . S
C1024 H1001 0.950 . S
C1024 C1023 1.397 . S
C1024 C1025 1.334 . S
C1025 H1002 0.950 . S
C1025 C1024 1.334 . S
C1025 C1026 1.287 . S
C1026 C1025 1.287 . S
C1026 C1027 1.524 . S
C1026 H1045 0.913 . S
C1027 H1003 0.950 . S
C1027 C1026 1.524 . S
C1027 C1028 1.415 . S
C1028 H1004 0.950 . S
C1028 C1023 1.363 . S
C1028 C1027 1.415 . S
C1029 H1005 0.951 . S
C1029 C1030 1.366 . S
C1029 C1031 1.388 . S
C1030 C1029 1.366 . S
C1030 C1034 1.385 . S
C1031 H1006 0.951 . S
C1031 C1029 1.388 . S
C1031 C1032 1.366 . S
C1032 C1031 1.366 . S
C1032 C1033 1.414 . S
C1032 C1035 1.499 . S
C1033 H1007 0.950 . S
C1033 C1032 1.414 . S
C1033 C1034 1.374 . S
C1034 H1008 0.950 . S
C1034 C1030 1.385 . S
C1034 C1033 1.374 . S
C1035 C1032 1.499 . S
C1035 C1036 1.373 . S
C1035 C1037 1.389 . S
C1036 H1009 0.950 . S
C1036 C1022 1.377 . S
C1036 C1035 1.373 . S
C1037 C1021 1.377 . S
C1037 C1035 1.389 . S
C1037 C1038 1.524 . S
C1038 C1037 1.524 . S
C1038 C1039 1.397 . S
C1038 C1043 1.363 . S
C1039 H1010 0.950 . S
C1039 C1038 1.397 . S
C1039 C1040 1.334 . S
C1040 H1011 0.950 . S
C1040 C1039 1.334 . S
C1040 C1041 1.287 . S
C1041 C1040 1.287 . S
C1041 C1042 1.524 . S
C1041 H1044 0.999 . S
C1042 H1012 0.950 . S
C1042 C1041 1.524 . S
C1042 C1043 1.415 . S
C1043 H1013 0.950 . S
C1043 C1038 1.363 . S
C1043 C1042 1.415 . S
H1044 C1041 0.999 . S
H1045 C1026 0.913 . S
H1046 C1064 0.951 . S
H1047 C1066 0.951 1_545 S
H1048 C1068 0.950 . S
H1049 C1069 0.950 . S
H1050 C1071 0.950 . S
H1051 C1074 0.950 . S
H1052 C1075 0.950 . S
H1053 C1077 0.950 . S
H1054 C1078 0.950 . S
H1055 C1079 0.951 . S
H1056 C1081 0.951 . S
H1057 C1083 0.950 . S
H1058 C1084 0.950 . S
H1059 C1086 0.950 . S
H1060 C1089 0.950 . S
H1061 C1090 0.950 . S
H1062 C1092 0.950 . S
H1063 C1093 0.950 . S
C1064 H1046 0.951 . S
C1064 C1065 1.366 . S
C1064 C1066 1.388 1_545 S
C1065 C1064 1.366 . S
C1065 C1069 1.385 1_545 S
C1066 H1047 0.951 1_565 S
C1066 C1064 1.388 1_565 S
C1066 C1067 1.366 . S
C1067 C1066 1.366 . S
C1067 C1068 1.414 . S
C1067 C1070 1.499 . S
C1068 H1048 0.950 . S
C1068 C1067 1.414 . S
C1068 C1069 1.374 . S
C1069 H1049 0.950 . S
C1069 C1065 1.385 1_565 S
C1069 C1068 1.374 . S
C1070 C1067 1.499 . S
C1070 C1071 1.373 . S
C1070 C1072 1.389 . S
C1071 H1050 0.950 . S
C1071 C1070 1.373 . S
C1071 C1087 1.377 . S
C1072 C1070 1.389 . S
C1072 C1073 1.524 . S
C1072 C1086 1.377 . S
C1073 C1072 1.524 . S
C1073 C1074 1.397 . S
C1073 C1078 1.363 . S
C1074 H1051 0.950 . S
C1074 C1073 1.397 . S
C1074 C1075 1.334 1_565 S
C1075 H1052 0.950 . S
C1075 C1074 1.334 1_545 S
C1075 C1076 1.287 . S
C1076 C1075 1.287 . S
C1076 C1077 1.524 . S
C1076 H1095 0.913 . S
C1077 H1053 0.950 . S
C1077 C1076 1.524 . S
C1077 C1078 1.415 1_545 S
C1078 H1054 0.950 . S
C1078 C1073 1.363 . S
C1078 C1077 1.415 1_565 S
C1079 H1055 0.951 . S
C1079 C1080 1.366 1_655 S
C1079 C1081 1.388 . S
C1080 C1079 1.366 1_455 S
C1080 C1084 1.385 . S
C1081 H1056 0.951 . S
C1081 C1079 1.388 . S
C1081 C1082 1.366 . S
C1082 C1081 1.366 . S
C1082 C1083 1.414 . S
C1082 C1085 1.499 . S
C1083 H1057 0.950 . S
C1083 C1082 1.414 . S
C1083 C1084 1.374 1_655 S
C1084 H1058 0.950 . S
C1084 C1080 1.385 . S
C1084 C1083 1.374 1_455 S
C1085 C1082 1.499 . S
C1085 C1086 1.373 . S
C1085 C1087 1.389 . S
C1086 H1059 0.950 . S
C1086 C1072 1.377 . S
C1086 C1085 1.373 . S
C1087 C1071 1.377 . S
C1087 C1085 1.389 . S
C1087 C1088 1.524 . S
C1088 C1087 1.524 . S
C1088 C1089 1.397 . S
C1088 C1093 1.363 . S
C1089 H1060 0.950 . S
C1089 C1088 1.397 . S
C1089 C1090 1.334 . S
C1090 H1061 0.950 . S
C1090 C1089 1.334 . S
C1090 C1091 1.287 . S
C1091 C1090 1.287 . S
C1091 C1092 1.524 . S
C1091 H1094 0.999 . S
C1092 H1062 0.950 . S
C1092 C1091 1.524 . S
C1092 C1093 1.415 . S
C1093 H1063 0.950 . S
C1093 C1088 1.363 . S
C1093 C1092 1.415 . S
H1094 C1091 0.999 . S
H1095 C1076 0.913 . S
H1096 C1114 0.951 . S
H1097 C1116 0.951 . S
H1098 C1118 0.950 . S
H1099 C1119 0.950 . S
H1100 C1121 0.950 . S
H1101 C1124 0.950 . S
H1102 C1125 0.950 . S
H1103 C1127 0.950 . S
H1104 C1128 0.950 . S
H1105 C1129 0.951 . S
H1106 C1131 0.951 . S
H1107 C1133 0.950 . S
H1108 C1134 0.950 . S
H1109 C1136 0.950 . S
H1110 C1139 0.950 . S
H1111 C1140 0.950 . S
H1112 C1142 0.950 . S
H1113 C1143 0.950 . S
C1114 H1096 0.951 . S
C1114 C1115 1.366 . S
C1114 C1116 1.388 1_565 S
C1115 C1114 1.366 . S
C1115 C1119 1.385 1_565 S
C1116 H1097 0.951 . S
C1116 C1114 1.388 1_545 S
C1116 C1117 1.366 . S
C1117 C1116 1.366 . S
C1117 C1118 1.414 . S
C1117 C1120 1.499 . S
C1118 H1098 0.950 . S
C1118 C1117 1.414 . S
C1118 C1119 1.374 . S
C1119 H1099 0.950 . S
C1119 C1115 1.385 1_545 S
C1119 C1118 1.374 . S
C1120 C1117 1.499 . S
C1120 C1121 1.373 . S
C1120 C1122 1.389 . S
C1121 H1100 0.950 . S
C1121 C1120 1.373 . S
C1121 C1137 1.377 . S
C1122 C1120 1.389 . S
C1122 C1123 1.524 . S
C1122 C1136 1.377 . S
C1123 C1122 1.524 . S
C1123 C1124 1.397 . S
C1123 C1128 1.363 . S
C1124 H1101 0.950 . S
C1124 C1123 1.397 . S
C1124 C1125 1.334 1_545 S
C1125 H1102 0.950 . S
C1125 C1124 1.334 1_565 S
C1125 C1126 1.287 . S
C1126 C1125 1.287 . S
C1126 C1127 1.524 . S
C1126 H1145 0.913 . S
C1127 H1103 0.950 . S
C1127 C1126 1.524 . S
C1127 C1128 1.415 1_565 S
C1128 H1104 0.950 . S
C1128 C1123 1.363 . S
C1128 C1127 1.415 1_545 S
C1129 H1105 0.951 . S
C1129 C1130 1.366 . S
C1129 C1131 1.388 . S
C1130 C1129 1.366 . S
C1130 C1134 1.385 . S
C1131 H1106 0.951 . S
C1131 C1129 1.388 . S
C1131 C1132 1.366 . S
C1132 C1131 1.366 . S
C1132 C1133 1.414 . S
C1132 C1135 1.499 . S
C1133 H1107 0.950 . S
C1133 C1132 1.414 . S
C1133 C1134 1.374 . S
C1134 H1108 0.950 . S
C1134 C1130 1.385 . S
C1134 C1133 1.374 . S
C1135 C1132 1.499 . S
C1135 C1136 1.373 . S
C1135 C1137 1.389 . S
C1136 H1109 0.950 . S
C1136 C1122 1.377 . S
C1136 C1135 1.373 . S
C1137 C1121 1.377 . S
C1137 C1135 1.389 . S
C1137 C1138 1.524 . S
C1138 C1137 1.524 . S
C1138 C1139 1.397 . S
C1138 C1143 1.363 . S
C1139 H1110 0.950 . S
C1139 C1138 1.397 . S
C1139 C1140 1.334 . S
C1140 H1111 0.950 . S
C1140 C1139 1.334 . S
C1140 C1141 1.287 . S
C1141 C1140 1.287 . S
C1141 C1142 1.524 . S
C1141 H1144 0.999 . S
C1142 H1112 0.950 . S
C1142 C1141 1.524 . S
C1142 C1143 1.415 . S
C1143 H1113 0.950 . S
C1143 C1138 1.363 . S
C1143 C1142 1.415 . S
H1144 C1141 0.999 . S
H1145 C1126 0.913 . S
H1146 C1164 0.951 . S
H1147 C1166 0.951 . S
H1148 C1168 0.950 . S
H1149 C1169 0.950 1_655 S
H1150 C1171 0.950 . S
H1151 C1174 0.950 . S
H1152 C1175 0.950 . S
H1153 C1177 0.950 . S
H1154 C1178 0.950 . S
H1155 C1179 0.951 . S
H1156 C1181 0.951 . S
H1157 C1183 0.950 . S
H1158 C1184 0.950 . S
H1159 C1186 0.950 . S
H1160 C1189 0.950 . S
H1161 C1190 0.950 . S
H1162 C1192 0.950 . S
H1163 C1193 0.950 . S
C1164 H1146 0.951 . S
C1164 C1165 1.366 . S
C1164 C1166 1.388 . S
C1165 C1164 1.366 . S
C1165 C1169 1.385 . S
C1166 H1147 0.951 . S
C1166 C1164 1.388 . S
C1166 C1167 1.366 . S
C1167 C1166 1.366 . S
C1167 C1168 1.414 . S
C1167 C1170 1.499 . S
C1168 H1148 0.950 . S
C1168 C1167 1.414 . S
C1168 C1169 1.374 . S
C1169 H1149 0.950 1_455 S
C1169 C1165 1.385 . S
C1169 C1168 1.374 . S
C1170 C1167 1.499 . S
C1170 C1171 1.373 . S
C1170 C1172 1.389 . S
C1171 H1150 0.950 . S
C1171 C1170 1.373 . S
C1171 C1187 1.377 . S
C1172 C1170 1.389 . S
C1172 C1173 1.524 . S
C1172 C1186 1.377 . S
C1173 C1172 1.524 . S
C1173 C1174 1.397 . S
C1173 C1178 1.363 . S
C1174 H1151 0.950 . S
C1174 C1173 1.397 . S
C1174 C1175 1.334 . S
C1175 H1152 0.950 . S
C1175 C1174 1.334 . S
C1175 C1176 1.287 . S
C1176 C1175 1.287 . S
C1176 C1177 1.524 . S
C1176 H1195 0.913 . S
C1177 H1153 0.950 . S
C1177 C1176 1.524 . S
C1177 C1178 1.415 . S
C1178 H1154 0.950 . S
C1178 C1173 1.363 . S
C1178 C1177 1.415 . S
C1179 H1155 0.951 . S
C1179 C1180 1.366 . S
C1179 C1181 1.388 . S
C1180 C1179 1.366 . S
C1180 C1184 1.385 . S
C1181 H1156 0.951 . S
C1181 C1179 1.388 . S
C1181 C1182 1.366 . S
C1182 C1181 1.366 . S
C1182 C1183 1.414 . S
C1182 C1185 1.499 . S
C1183 H1157 0.950 . S
C1183 C1182 1.414 . S
C1183 C1184 1.374 . S
C1184 H1158 0.950 . S
C1184 C1180 1.385 . S
C1184 C1183 1.374 . S
C1185 C1182 1.499 . S
C1185 C1186 1.373 . S
C1185 C1187 1.389 . S
C1186 H1159 0.950 . S
C1186 C1172 1.377 . S
C1186 C1185 1.373 . S
C1187 C1171 1.377 . S
C1187 C1185 1.389 . S
C1187 C1188 1.524 . S
C1188 C1187 1.524 . S
C1188 C1189 1.397 . S
C1188 C1193 1.363 . S
C1189 H1160 0.950 . S
C1189 C1188 1.397 . S
C1189 C1190 1.334 . S
C1190 H1161 0.950 . S
C1190 C1189 1.334 . S
C1190 C1191 1.287 . S
C1191 C1190 1.287 . S
C1191 C1192 1.524 . S
C1191 H1194 0.999 . S
C1192 H1162 0.950 . S
C1192 C1191 1.524 . S
C1192 C1193 1.415 . S
C1193 H1163 0.950 . S
C1193 C1188 1.363 . S
C1193 C1192 1.415 . S
H1194 C1191 0.999 . S
H1195 C1176 0.913 . S
H1196 C1214 0.951 . S
H1197 C1216 0.951 . S
H1198 C1218 0.950 . S
H1199 C1219 0.950 . S
H1200 C1221 0.950 . S
H1201 C1224 0.950 . S
H1202 C1225 0.950 . S
H1203 C1227 0.950 . S
H1204 C1228 0.950 . S
H1205 C1229 0.951 . S
H1206 C1231 0.951 . S
H1207 C1233 0.950 . S
H1208 C1234 0.950 . S
H1209 C1236 0.950 . S
H1210 C1239 0.950 . S
H1211 C1240 0.950 . S
H1212 C1242 0.950 . S
H1213 C1243 0.950 . S
C1214 H1196 0.951 . S
C1214 C1215 1.366 . S
C1214 C1216 1.388 . S
C1215 C1214 1.366 . S
C1215 C1219 1.385 . S
C1216 H1197 0.951 . S
C1216 C1214 1.388 . S
C1216 C1217 1.366 . S
C1217 C1216 1.366 . S
C1217 C1218 1.414 . S
C1217 C1220 1.499 . S
C1218 H1198 0.950 . S
C1218 C1217 1.414 . S
C1218 C1219 1.374 . S
C1219 H1199 0.950 . S
C1219 C1215 1.385 . S
C1219 C1218 1.374 . S
C1220 C1217 1.499 . S
C1220 C1221 1.373 . S
C1220 C1222 1.389 . S
C1221 H1200 0.950 . S
C1221 C1220 1.373 . S
C1221 C1237 1.377 . S
C1222 C1220 1.389 . S
C1222 C1223 1.524 . S
C1222 C1236 1.377 . S
C1223 C1222 1.524 . S
C1223 C1224 1.397 . S
C1223 C1228 1.363 . S
C1224 H1201 0.950 . S
C1224 C1223 1.397 . S
C1224 C1225 1.334 . S
C1225 H1202 0.950 . S
C1225 C1224 1.334 . S
C1225 C1226 1.287 . S
C1226 C1225 1.287 . S
C1226 C1227 1.524 . S
C1226 H1245 0.913 . S
C1227 H1203 0.950 . S
C1227 C1226 1.524 . S
C1227 C1228 1.415 . S
C1228 H1204 0.950 . S
C1228 C1223 1.363 . S
C1228 C1227 1.415 . S
C1229 H1205 0.951 . S
C1229 C1230 1.366 . S
C1229 C1231 1.388 . S
C1230 C1229 1.366 . S
C1230 C1234 1.385 . S
C1231 H1206 0.951 . S
C1231 C1229 1.388 . S
C1231 C1232 1.366 . S
C1232 C1231 1.366 . S
C1232 C1233 1.414 . S
C1232 C1235 1.499 . S
C1233 H1207 0.950 . S
C1233 C1232 1.414 . S
C1233 C1234 1.374 . S
C1234 H1208 0.950 . S
C1234 C1230 1.385 . S
C1234 C1233 1.374 . S
C1235 C1232 1.499 . S
C1235 C1236 1.373 . S
C1235 C1237 1.389 . S
C1236 H1209 0.950 . S
C1236 C1222 1.377 . S
C1236 C1235 1.373 . S
C1237 C1221 1.377 . S
C1237 C1235 1.389 . S
C1237 C1238 1.524 . S
C1238 C1237 1.524 . S
C1238 C1239 1.397 . S
C1238 C1243 1.363 . S
C1239 H1210 0.950 . S
C1239 C1238 1.397 . S
C1239 C1240 1.334 . S
C1240 H1211 0.950 . S
C1240 C1239 1.334 . S
C1240 C1241 1.287 . S
C1241 C1240 1.287 . S
C1241 C1242 1.524 . S
C1241 H1244 0.999 . S
C1242 H1212 0.950 . S
C1242 C1241 1.524 . S
C1242 C1243 1.415 . S
C1243 H1213 0.950 . S
C1243 C1238 1.363 . S
C1243 C1242 1.415 . S
H1244 C1241 0.999 . S
H1245 C1226 0.913 . S
H1246 C1264 0.951 1_655 S
H1247 C1266 0.951 . S
H1248 C1268 0.950 . S
H1249 C1269 0.950 . S
H1250 C1271 0.950 . S
H1251 C1274 0.950 . S
H1252 C1275 0.950 . S
H1253 C1277 0.950 1_655 S
H1254 C1278 0.950 . S
H1255 C1279 0.951 . S
H1256 C1281 0.951 . S
H1257 C1283 0.950 . S
H1258 C1284 0.950 . S
H1259 C1286 0.950 . S
H1260 C1289 0.950 . S
H1261 C1290 0.950 . S
H1262 C1292 0.950 . S
H1263 C1293 0.950 . S
C1264 H1246 0.951 1_455 S
C1264 C1265 1.366 . S
C1264 C1266 1.388 . S
C1265 C1264 1.366 . S
C1265 C1269 1.385 . S
C1266 H1247 0.951 . S
C1266 C1264 1.388 . S
C1266 C1267 1.366 . S
C1267 C1266 1.366 . S
C1267 C1268 1.414 . S
C1267 C1270 1.499 . S
C1268 H1248 0.950 . S
C1268 C1267 1.414 . S
C1268 C1269 1.374 . S
C1269 H1249 0.950 . S
C1269 C1265 1.385 . S
C1269 C1268 1.374 . S
C1270 C1267 1.499 . S
C1270 C1271 1.373 . S
C1270 C1272 1.389 . S
C1271 H1250 0.950 . S
C1271 C1270 1.373 . S
C1271 C1287 1.377 . S
C1272 C1270 1.389 . S
C1272 C1273 1.524 . S
C1272 C1286 1.377 . S
C1273 C1272 1.524 . S
C1273 C1274 1.397 . S
C1273 C1278 1.363 . S
C1274 H1251 0.950 . S
C1274 C1273 1.397 . S
C1274 C1275 1.334 . S
C1275 H1252 0.950 . S
C1275 C1274 1.334 . S
C1275 C1276 1.287 . S
C1276 C1275 1.287 . S
C1276 C1277 1.524 . S
C1276 H1295 0.913 1_455 S
C1277 H1253 0.950 1_455 S
C1277 C1276 1.524 . S
C1277 C1278 1.415 . S
C1278 H1254 0.950 . S
C1278 C1273 1.363 . S
C1278 C1277 1.415 . S
C1279 H1255 0.951 . S
C1279 C1280 1.366 1_545 S
C1279 C1281 1.388 . S
C1280 C1279 1.366 1_565 S
C1280 C1284 1.385 . S
C1281 H1256 0.951 . S
C1281 C1279 1.388 . S
C1281 C1282 1.366 . S
C1282 C1281 1.366 . S
C1282 C1283 1.414 . S
C1282 C1285 1.499 . S
C1283 H1257 0.950 . S
C1283 C1282 1.414 . S
C1283 C1284 1.374 1_545 S
C1284 H1258 0.950 . S
C1284 C1280 1.385 . S
C1284 C1283 1.374 1_565 S
C1285 C1282 1.499 . S
C1285 C1286 1.373 . S
C1285 C1287 1.389 . S
C1286 H1259 0.950 . S
C1286 C1272 1.377 . S
C1286 C1285 1.373 . S
C1287 C1271 1.377 . S
C1287 C1285 1.389 . S
C1287 C1288 1.524 . S
C1288 C1287 1.524 . S
C1288 C1289 1.397 . S
C1288 C1293 1.363 . S
C1289 H1260 0.950 . S
C1289 C1288 1.397 . S
C1289 C1290 1.334 . S
C1290 H1261 0.950 . S
C1290 C1289 1.334 . S
C1290 C1291 1.287 . S
C1291 C1290 1.287 . S
C1291 C1292 1.524 . S
C1291 H1294 0.999 . S
C1292 H1262 0.950 . S
C1292 C1291 1.524 . S
C1292 C1293 1.415 . S
C1293 H1263 0.950 . S
C1293 C1288 1.363 . S
C1293 C1292 1.415 . S
H1294 C1291 0.999 . S
H1295 C1276 0.913 1_655 S
H1296 C1314 0.951 1_545 S
H1297 C1316 0.951 . S
H1298 C1318 0.950 . S
H1299 C1319 0.950 . S
H1300 C1321 0.950 . S
H1301 C1324 0.950 . S
H1302 C1325 0.950 . S
H1303 C1327 0.950 . S
H1304 C1328 0.950 . S
H1305 C1329 0.951 . S
H1306 C1331 0.951 . S
H1307 C1333 0.950 . S
H1308 C1334 0.950 . S
H1309 C1336 0.950 . S
H1310 C1339 0.950 . S
H1311 C1340 0.950 . S
H1312 C1342 0.950 . S
H1313 C1343 0.950 . S
C1314 H1296 0.951 1_565 S
C1314 C1315 1.366 . S
C1314 C1316 1.388 . S
C1315 C1314 1.366 . S
C1315 C1319 1.385 . S
C1316 H1297 0.951 . S
C1316 C1314 1.388 . S
C1316 C1317 1.366 . S
C1317 C1316 1.366 . S
C1317 C1318 1.414 . S
C1317 C1320 1.499 . S
C1318 H1298 0.950 . S
C1318 C1317 1.414 . S
C1318 C1319 1.374 . S
C1319 H1299 0.950 . S
C1319 C1315 1.385 . S
C1319 C1318 1.374 . S
C1320 C1317 1.499 . S
C1320 C1321 1.373 . S
C1320 C1322 1.389 . S
C1321 H1300 0.950 . S
C1321 C1320 1.373 . S
C1321 C1337 1.377 . S
C1322 C1320 1.389 . S
C1322 C1323 1.524 . S
C1322 C1336 1.377 . S
C1323 C1322 1.524 . S
C1323 C1324 1.397 . S
C1323 C1328 1.363 . S
C1324 H1301 0.950 . S
C1324 C1323 1.397 . S
C1324 C1325 1.334 . S
C1325 H1302 0.950 . S
C1325 C1324 1.334 . S
C1325 C1326 1.287 . S
C1326 C1325 1.287 . S
C1326 C1327 1.524 . S
C1326 H1345 0.913 . S
C1327 H1303 0.950 . S
C1327 C1326 1.524 . S
C1327 C1328 1.415 . S
C1328 H1304 0.950 . S
C1328 C1323 1.363 . S
C1328 C1327 1.415 . S
C1329 H1305 0.951 . S
C1329 C1330 1.366 . S
C1329 C1331 1.388 . S
C1330 C1329 1.366 . S
C1330 C1334 1.385 . S
C1331 H1306 0.951 . S
C1331 C1329 1.388 . S
C1331 C1332 1.366 . S
C1332 C1331 1.366 . S
C1332 C1333 1.414 . S
C1332 C1335 1.499 . S
C1333 H1307 0.950 . S
C1333 C1332 1.414 . S
C1333 C1334 1.374 . S
C1334 H1308 0.950 . S
C1334 C1330 1.385 . S
C1334 C1333 1.374 . S
C1335 C1332 1.499 . S
C1335 C1336 1.373 . S
C1335 C1337 1.389 . S
C1336 H1309 0.950 . S
C1336 C1322 1.377 . S
C1336 C1335 1.373 . S
C1337 C1321 1.377 . S
C1337 C1335 1.389 . S
C1337 C1338 1.524 . S
C1338 C1337 1.524 . S
C1338 C1339 1.397 . S
C1338 C1343 1.363 . S
C1339 H1310 0.950 . S
C1339 C1338 1.397 . S
C1339 C1340 1.334 . S
C1340 H1311 0.950 . S
C1340 C1339 1.334 . S
C1340 C1341 1.287 . S
C1341 C1340 1.287 . S
C1341 C1342 1.524 . S
C1341 H1344 0.999 . S
C1342 H1312 0.950 . S
C1342 C1341 1.524 . S
C1342 C1343 1.415 . S
C1343 H1313 0.950 . S
C1343 C1338 1.363 . S
C1343 C1342 1.415 . S
H1344 C1341 0.999 . S
H1345 C1326 0.913 . S
H1346 C1364 0.951 . S
H1347 C1366 0.951 . S
H1348 C1368 0.950 . S
H1349 C1369 0.950 . S
H1350 C1371 0.950 . S
H1351 C1374 0.950 . S
H1352 C1375 0.950 . S
H1353 C1377 0.950 . S
H1354 C1378 0.950 . S
H1355 C1379 0.951 . S
H1356 C1381 0.951 . S
H1357 C1383 0.950 . S
H1358 C1384 0.950 . S
H1359 C1386 0.950 . S
H1360 C1389 0.950 . S
H1361 C1390 0.950 . S
H1362 C1392 0.950 . S
H1363 C1393 0.950 . S
C1364 H1346 0.951 . S
C1364 C1365 1.366 . S
C1364 C1366 1.388 . S
C1365 C1364 1.366 . S
C1365 C1369 1.385 1_655 S
C1366 H1347 0.951 . S
C1366 C1364 1.388 . S
C1366 C1367 1.366 . S
C1367 C1366 1.366 . S
C1367 C1368 1.414 . S
C1367 C1370 1.499 . S
C1368 H1348 0.950 . S
C1368 C1367 1.414 . S
C1368 C1369 1.374 1_655 S
C1369 H1349 0.950 . S
C1369 C1365 1.385 1_455 S
C1369 C1368 1.374 1_455 S
C1370 C1367 1.499 . S
C1370 C1371 1.373 . S
C1370 C1372 1.389 . S
C1371 H1350 0.950 . S
C1371 C1370 1.373 . S
C1371 C1387 1.377 . S
C1372 C1370 1.389 . S
C1372 C1373 1.524 . S
C1372 C1386 1.377 . S
C1373 C1372 1.524 . S
C1373 C1374 1.397 . S
C1373 C1378 1.363 . S
C1374 H1351 0.950 . S
C1374 C1373 1.397 . S
C1374 C1375 1.334 . S
C1375 H1352 0.950 . S
C1375 C1374 1.334 . S
C1375 C1376 1.287 . S
C1376 C1375 1.287 . S
C1376 C1377 1.524 . S
C1376 H1395 0.913 . S
C1377 H1353 0.950 . S
C1377 C1376 1.524 . S
C1377 C1378 1.415 . S
C1378 H1354 0.950 . S
C1378 C1373 1.363 . S
C1378 C1377 1.415 . S
C1379 H1355 0.951 . S
C1379 C1380 1.366 . S
C1379 C1381 1.388 . S
C1380 C1379 1.366 . S
C1380 C1384 1.385 . S
C1381 H1356 0.951 . S
C1381 C1379 1.388 . S
C1381 C1382 1.366 . S
C1382 C1381 1.366 . S
C1382 C1383 1.414 . S
C1382 C1385 1.499 . S
C1383 H1357 0.950 . S
C1383 C1382 1.414 . S
C1383 C1384 1.374 . S
C1384 H1358 0.950 . S
C1384 C1380 1.385 . S
C1384 C1383 1.374 . S
C1385 C1382 1.499 . S
C1385 C1386 1.373 . S
C1385 C1387 1.389 . S
C1386 H1359 0.950 . S
C1386 C1372 1.377 . S
C1386 C1385 1.373 . S
C1387 C1371 1.377 . S
C1387 C1385 1.389 . S
C1387 C1388 1.524 . S
C1388 C1387 1.524 . S
C1388 C1389 1.397 . S
C1388 C1393 1.363 . S
C1389 H1360 0.950 . S
C1389 C1388 1.397 . S
C1389 C1390 1.334 . S
C1390 H1361 0.950 . S
C1390 C1389 1.334 . S
C1390 C1391 1.287 . S
C1391 C1390 1.287 . S
C1391 C1392 1.524 . S
C1391 H1394 0.999 . S
C1392 H1362 0.950 . S
C1392 C1391 1.524 . S
C1392 C1393 1.415 . S
C1393 H1363 0.950 . S
C1393 C1388 1.363 . S
C1393 C1392 1.415 . S
H1394 C1391 0.999 . S
H1395 C1376 0.913 . S
H1396 C1414 0.951 . S
H1397 C1416 0.951 . S
H1398 C1418 0.950 . S
H1399 C1419 0.950 . S
H1400 C1421 0.950 . S
H1401 C1424 0.950 . S
H1402 C1425 0.950 . S
H1403 C1427 0.950 . S
H1404 C1428 0.950 . S
H1405 C1429 0.951 . S
H1406 C1431 0.951 . S
H1407 C1433 0.950 . S
H1408 C1434 0.950 . S
H1409 C1436 0.950 . S
H1410 C1439 0.950 . S
H1411 C1440 0.950 . S
H1412 C1442 0.950 . S
H1413 C1443 0.950 . S
C1414 H1396 0.951 . S
C1414 C1415 1.366 . S
C1414 C1416 1.388 . S
C1415 C1414 1.366 . S
C1415 C1419 1.385 . S
C1416 H1397 0.951 . S
C1416 C1414 1.388 . S
C1416 C1417 1.366 . S
C1417 C1416 1.366 . S
C1417 C1418 1.414 . S
C1417 C1420 1.499 . S
C1418 H1398 0.950 . S
C1418 C1417 1.414 . S
C1418 C1419 1.374 . S
C1419 H1399 0.950 . S
C1419 C1415 1.385 . S
C1419 C1418 1.374 . S
C1420 C1417 1.499 . S
C1420 C1421 1.373 . S
C1420 C1422 1.389 . S
C1421 H1400 0.950 . S
C1421 C1420 1.373 . S
C1421 C1437 1.377 . S
C1422 C1420 1.389 . S
C1422 C1423 1.524 . S
C1422 C1436 1.377 . S
C1423 C1422 1.524 . S
C1423 C1424 1.397 . S
C1423 C1428 1.363 . S
C1424 H1401 0.950 . S
C1424 C1423 1.397 . S
C1424 C1425 1.334 . S
C1425 H1402 0.950 . S
C1425 C1424 1.334 . S
C1425 C1426 1.287 . S
C1426 C1425 1.287 . S
C1426 C1427 1.524 . S
C1426 H1445 0.913 . S
C1427 H1403 0.950 . S
C1427 C1426 1.524 . S
C1427 C1428 1.415 . S
C1428 H1404 0.950 . S
C1428 C1423 1.363 . S
C1428 C1427 1.415 . S
C1429 H1405 0.951 . S
C1429 C1430 1.366 . S
C1429 C1431 1.388 . S
C1430 C1429 1.366 . S
C1430 C1434 1.385 . S
C1431 H1406 0.951 . S
C1431 C1429 1.388 . S
C1431 C1432 1.366 . S
C1432 C1431 1.366 . S
C1432 C1433 1.414 . S
C1432 C1435 1.499 . S
C1433 H1407 0.950 . S
C1433 C1432 1.414 . S
C1433 C1434 1.374 . S
C1434 H1408 0.950 . S
C1434 C1430 1.385 . S
C1434 C1433 1.374 . S
C1435 C1432 1.499 . S
C1435 C1436 1.373 . S
C1435 C1437 1.389 . S
C1436 H1409 0.950 . S
C1436 C1422 1.377 . S
C1436 C1435 1.373 . S
C1437 C1421 1.377 . S
C1437 C1435 1.389 . S
C1437 C1438 1.524 . S
C1438 C1437 1.524 . S
C1438 C1439 1.397 . S
C1438 C1443 1.363 . S
C1439 H1410 0.950 . S
C1439 C1438 1.397 . S
C1439 C1440 1.334 . S
C1440 H1411 0.950 . S
C1440 C1439 1.334 . S
C1440 C1441 1.287 . S
C1441 C1440 1.287 . S
C1441 C1442 1.524 . S
C1441 H1444 0.999 . S
C1442 H1412 0.950 . S
C1442 C1441 1.524 . S
C1442 C1443 1.415 . S
C1443 H1413 0.950 . S
C1443 C1438 1.363 . S
C1443 C1442 1.415 . S
H1444 C1441 0.999 . S
H1445 C1426 0.913 . S
H1446 C1464 0.951 . S
H1447 C1466 0.951 . S
H1448 C1468 0.950 . S
H1449 C1469 0.950 . S
H1450 C1471 0.950 . S
H1451 C1474 0.950 . S
H1452 C1475 0.950 . S
H1453 C1477 0.950 . S
H1454 C1478 0.950 . S
H1455 C1479 0.951 1_455 S
H1456 C1481 0.951 . S
H1457 C1483 0.950 . S
H1458 C1484 0.950 . S
H1459 C1486 0.950 . S
H1460 C1489 0.950 . S
H1461 C1490 0.950 . S
H1462 C1492 0.950 . S
H1463 C1493 0.950 . S
C1464 H1446 0.951 . S
C1464 C1465 1.366 . S
C1464 C1466 1.388 . S
C1465 C1464 1.366 . S
C1465 C1469 1.385 . S
C1466 H1447 0.951 . S
C1466 C1464 1.388 . S
C1466 C1467 1.366 . S
C1467 C1466 1.366 . S
C1467 C1468 1.414 . S
C1467 C1470 1.499 . S
C1468 H1448 0.950 . S
C1468 C1467 1.414 . S
C1468 C1469 1.374 . S
C1469 H1449 0.950 . S
C1469 C1465 1.385 . S
C1469 C1468 1.374 . S
C1470 C1467 1.499 . S
C1470 C1471 1.373 . S
C1470 C1472 1.389 . S
C1471 H1450 0.950 . S
C1471 C1470 1.373 . S
C1471 C1487 1.377 . S
C1472 C1470 1.389 . S
C1472 C1473 1.524 . S
C1472 C1486 1.377 . S
C1473 C1472 1.524 . S
C1473 C1474 1.397 . S
C1473 C1478 1.363 . S
C1474 H1451 0.950 . S
C1474 C1473 1.397 . S
C1474 C1475 1.334 . S
C1475 H1452 0.950 . S
C1475 C1474 1.334 . S
C1475 C1476 1.287 . S
C1476 C1475 1.287 . S
C1476 C1477 1.524 . S
C1476 H1495 0.913 . S
C1477 H1453 0.950 . S
C1477 C1476 1.524 . S
C1477 C1478 1.415 . S
C1478 H1454 0.950 . S
C1478 C1473 1.363 . S
C1478 C1477 1.415 . S
C1479 H1455 0.951 1_655 S
C1479 C1480 1.366 1_565 S
C1479 C1481 1.388 . S
C1480 C1479 1.366 1_545 S
C1480 C1484 1.385 . S
C1481 H1456 0.951 . S
C1481 C1479 1.388 . S
C1481 C1482 1.366 . S
C1482 C1481 1.366 . S
C1482 C1483 1.414 . S
C1482 C1485 1.499 . S
C1483 H1457 0.950 . S
C1483 C1482 1.414 . S
C1483 C1484 1.374 1_565 S
C1484 H1458 0.950 . S
C1484 C1480 1.385 . S
C1484 C1483 1.374 1_545 S
C1485 C1482 1.499 . S
C1485 C1486 1.373 . S
C1485 C1487 1.389 . S
C1486 H1459 0.950 . S
C1486 C1472 1.377 . S
C1486 C1485 1.373 . S
C1487 C1471 1.377 . S
C1487 C1485 1.389 . S
C1487 C1488 1.524 . S
C1488 C1487 1.524 . S
C1488 C1489 1.397 . S
C1488 C1493 1.363 . S
C1489 H1460 0.950 . S
C1489 C1488 1.397 . S
C1489 C1490 1.334 1_565 S
C1490 H1461 0.950 . S
C1490 C1489 1.334 1_545 S
C1490 C1491 1.287 1_545 S
C1491 C1490 1.287 1_565 S
C1491 C1492 1.524 . S
C1491 H1494 0.999 1_565 S
C1492 H1462 0.950 . S
C1492 C1491 1.524 . S
C1492 C1493 1.415 . S
C1493 H1463 0.950 . S
C1493 C1488 1.363 . S
C1493 C1492 1.415 . S
H1494 C1491 0.999 1_545 S
H1495 C1476 0.913 . S
H1496 C1514 0.951 . S
H1497 C1516 0.951 . S
H1498 C1518 0.950 . S
H1499 C1519 0.950 . S
H1500 C1521 0.950 . S
H1501 C1524 0.950 . S
H1502 C1525 0.950 . S
H1503 C1527 0.950 . S
H1504 C1528 0.950 . S
H1505 C1529 0.951 . S
H1506 C1531 0.949 1_565 S
H1507 C1533 0.950 . S
H1508 C1534 0.950 . S
H1509 C1536 0.950 . S
H1510 C1539 0.950 . S
H1511 C1540 0.950 . S
H1512 C1542 0.950 1_565 S
H1513 C1543 0.950 . S
C1514 H1496 0.951 . S
C1514 C1515 1.366 . S
C1514 C1516 1.388 . S
C1515 C1514 1.366 . S
C1515 C1519 1.385 . S
C1516 H1497 0.951 . S
C1516 C1514 1.388 . S
C1516 C1517 1.366 . S
C1517 C1516 1.366 . S
C1517 C1518 1.414 . S
C1517 C1520 1.499 . S
C1518 H1498 0.950 . S
C1518 C1517 1.414 . S
C1518 C1519 1.374 . S
C1519 H1499 0.950 . S
C1519 C1515 1.385 . S
C1519 C1518 1.374 . S
C1520 C1517 1.499 . S
C1520 C1521 1.373 . S
C1520 C1522 1.389 . S
C1521 H1500 0.950 . S
C1521 C1520 1.373 . S
C1521 C1537 1.377 . S
C1522 C1520 1.389 . S
C1522 C1523 1.524 . S
C1522 C1536 1.377 . S
C1523 C1522 1.524 . S
C1523 C1524 1.397 . S
C1523 C1528 1.363 . S
C1524 H1501 0.950 . S
C1524 C1523 1.397 . S
C1524 C1525 1.334 . S
C1525 H1502 0.950 . S
C1525 C1524 1.334 . S
C1525 C1526 1.287 . S
C1526 C1525 1.287 . S
C1526 C1527 1.524 . S
C1526 H1545 0.913 . S
C1527 H1503 0.950 . S
C1527 C1526 1.524 . S
C1527 C1528 1.415 . S
C1528 H1504 0.950 . S
C1528 C1523 1.363 . S
C1528 C1527 1.415 . S
C1529 H1505 0.951 . S
C1529 C1530 1.366 . S
C1529 C1531 1.388 1_565 S
C1530 C1529 1.366 . S
C1530 C1534 1.385 1_565 S
C1531 H1506 0.949 1_545 S
C1531 C1529 1.388 1_545 S
C1531 C1532 1.366 . S
C1532 C1531 1.366 . S
C1532 C1533 1.414 . S
C1532 C1535 1.499 . S
C1533 H1507 0.950 . S
C1533 C1532 1.414 . S
C1533 C1534 1.374 . S
C1534 H1508 0.950 . S
C1534 C1530 1.385 1_545 S
C1534 C1533 1.374 . S
C1535 C1532 1.499 . S
C1535 C1536 1.373 . S
C1535 C1537 1.389 . S
C1536 H1509 0.950 . S
C1536 C1522 1.377 . S
C1536 C1535 1.373 . S
C1537 C1521 1.377 . S
C1537 C1535 1.389 . S
C1537 C1538 1.524 . S
C1538 C1537 1.524 . S
C1538 C1539 1.397 . S
C1538 C1543 1.363 . S
C1539 H1510 0.950 . S
C1539 C1538 1.397 . S
C1539 C1540 1.334 . S
C1540 H1511 0.950 . S
C1540 C1539 1.334 . S
C1540 C1541 1.287 . S
C1541 C1540 1.287 . S
C1541 C1542 1.524 . S
C1541 H1544 0.999 1_545 S
C1542 H1512 0.950 1_545 S
C1542 C1541 1.524 . S
C1542 C1543 1.415 . S
C1543 H1513 0.950 . S
C1543 C1538 1.363 . S
C1543 C1542 1.415 . S
H1544 C1541 0.999 1_565 S
H1545 C1526 0.913 . S
H1546 C1564 0.951 . S
H1547 C1566 0.951 . S
H1548 C1568 0.950 . S
H1549 C1569 0.950 . S
H1550 C1571 0.950 . S
H1551 C1574 0.950 . S
H1552 C1575 0.950 . S
H1553 C1577 0.950 . S
H1554 C1578 0.950 . S
H1555 C1579 0.951 1_655 S
H1556 C1581 0.951 . S
H1557 C1583 0.950 . S
H1558 C1584 0.950 . S
H1559 C1586 0.950 . S
H1560 C1589 0.950 . S
H1561 C1590 0.950 . S
H1562 C1592 0.950 1_655 S
H1563 C1593 0.950 . S
C1564 H1546 0.951 . S
C1564 C1565 1.366 . S
C1564 C1566 1.388 . S
C1565 C1564 1.366 . S
C1565 C1569 1.385 . S
C1566 H1547 0.951 . S
C1566 C1564 1.388 . S
C1566 C1567 1.366 . S
C1567 C1566 1.366 . S
C1567 C1568 1.414 . S
C1567 C1570 1.499 . S
C1568 H1548 0.950 . S
C1568 C1567 1.414 . S
C1568 C1569 1.374 . S
C1569 H1549 0.950 . S
C1569 C1565 1.385 . S
C1569 C1568 1.374 . S
C1570 C1567 1.499 . S
C1570 C1571 1.373 . S
C1570 C1572 1.389 . S
C1571 H1550 0.950 . S
C1571 C1570 1.373 . S
C1571 C1587 1.377 . S
C1572 C1570 1.389 . S
C1572 C1573 1.524 . S
C1572 C1586 1.377 . S
C1573 C1572 1.524 . S
C1573 C1574 1.397 . S
C1573 C1578 1.363 . S
C1574 H1551 0.950 . S
C1574 C1573 1.397 . S
C1574 C1575 1.334 . S
C1575 H1552 0.950 . S
C1575 C1574 1.334 . S
C1575 C1576 1.287 . S
C1576 C1575 1.287 . S
C1576 C1577 1.524 . S
C1576 H1595 0.913 . S
C1577 H1553 0.950 . S
C1577 C1576 1.524 . S
C1577 C1578 1.415 . S
C1578 H1554 0.950 . S
C1578 C1573 1.363 . S
C1578 C1577 1.415 . S
C1579 H1555 0.951 1_455 S
C1579 C1580 1.366 . S
C1579 C1581 1.388 . S
C1580 C1579 1.366 . S
C1580 C1584 1.385 . S
C1581 H1556 0.951 . S
C1581 C1579 1.388 . S
C1581 C1582 1.366 . S
C1582 C1581 1.366 . S
C1582 C1583 1.414 . S
C1582 C1585 1.499 . S
C1583 H1557 0.950 . S
C1583 C1582 1.414 . S
C1583 C1584 1.374 . S
C1584 H1558 0.950 . S
C1584 C1580 1.385 . S
C1584 C1583 1.374 . S
C1585 C1582 1.499 . S
C1585 C1586 1.373 . S
C1585 C1587 1.389 . S
C1586 H1559 0.950 . S
C1586 C1572 1.377 . S
C1586 C1585 1.373 . S
C1587 C1571 1.377 . S
C1587 C1585 1.389 . S
C1587 C1588 1.524 . S
C1588 C1587 1.524 . S
C1588 C1589 1.397 . S
C1588 C1593 1.363 . S
C1589 H1560 0.950 . S
C1589 C1588 1.397 . S
C1589 C1590 1.334 . S
C1590 H1561 0.950 . S
C1590 C1589 1.334 . S
C1590 C1591 1.287 . S
C1591 C1590 1.287 . S
C1591 C1592 1.524 . S
C1591 H1594 0.999 1_455 S
C1592 H1562 0.950 1_455 S
C1592 C1591 1.524 . S
C1592 C1593 1.415 . S
C1593 H1563 0.950 . S
C1593 C1588 1.363 . S
C1593 C1592 1.415 . S
H1594 C1591 0.999 1_655 S
H1595 C1576 0.913 . S
H1596 C1614 0.951 . S
H1597 C1616 0.951 . S
H1598 C1618 0.950 . S
H1599 C1619 0.950 . S
H1600 C1621 0.950 . S
H1601 C1624 0.950 . S
H1602 C1625 0.950 . S
H1603 C1627 0.950 . S
H1604 C1628 0.950 . S
H1605 C1629 0.951 . S
H1606 C1631 0.951 . S
H1607 C1633 0.950 . S
H1608 C1634 0.950 . S
H1609 C1636 0.950 . S
H1610 C1639 0.950 . S
H1611 C1640 0.950 . S
H1612 C1642 0.950 . S
H1613 C1643 0.950 . S
C1614 H1596 0.951 . S
C1614 C1615 1.366 . S
C1614 C1616 1.388 . S
C1615 C1614 1.366 . S
C1615 C1619 1.385 . S
C1616 H1597 0.951 . S
C1616 C1614 1.388 . S
C1616 C1617 1.366 . S
C1617 C1616 1.366 . S
C1617 C1618 1.414 . S
C1617 C1620 1.499 . S
C1618 H1598 0.950 . S
C1618 C1617 1.414 . S
C1618 C1619 1.374 . S
C1619 H1599 0.950 . S
C1619 C1615 1.385 . S
C1619 C1618 1.374 . S
C1620 C1617 1.499 . S
C1620 C1621 1.373 . S
C1620 C1622 1.389 . S
C1621 H1600 0.950 . S
C1621 C1620 1.373 . S
C1621 C1637 1.377 . S
C1622 C1620 1.389 . S
C1622 C1623 1.524 . S
C1622 C1636 1.377 . S
C1623 C1622 1.524 . S
C1623 C1624 1.397 . S
C1623 C1628 1.363 . S
C1624 H1601 0.950 . S
C1624 C1623 1.397 . S
C1624 C1625 1.334 . S
C1625 H1602 0.950 . S
C1625 C1624 1.334 . S
C1625 C1626 1.287 . S
C1626 C1625 1.287 . S
C1626 C1627 1.524 . S
C1626 H1645 0.913 . S
C1627 H1603 0.950 . S
C1627 C1626 1.524 . S
C1627 C1628 1.415 . S
C1628 H1604 0.950 . S
C1628 C1623 1.363 . S
C1628 C1627 1.415 . S
C1629 H1605 0.951 . S
C1629 C1630 1.366 . S
C1629 C1631 1.388 . S
C1630 C1629 1.366 . S
C1630 C1634 1.385 . S
C1631 H1606 0.951 . S
C1631 C1629 1.388 . S
C1631 C1632 1.366 . S
C1632 C1631 1.366 . S
C1632 C1633 1.414 . S
C1632 C1635 1.499 . S
C1633 H1607 0.950 . S
C1633 C1632 1.414 . S
C1633 C1634 1.374 . S
C1634 H1608 0.950 . S
C1634 C1630 1.385 . S
C1634 C1633 1.374 . S
C1635 C1632 1.499 . S
C1635 C1636 1.373 . S
C1635 C1637 1.389 . S
C1636 H1609 0.950 . S
C1636 C1622 1.377 . S
C1636 C1635 1.373 . S
C1637 C1621 1.377 . S
C1637 C1635 1.389 . S
C1637 C1638 1.524 . S
C1638 C1637 1.524 . S
C1638 C1639 1.397 . S
C1638 C1643 1.363 . S
C1639 H1610 0.950 . S
C1639 C1638 1.397 . S
C1639 C1640 1.334 . S
C1640 H1611 0.950 . S
C1640 C1639 1.334 . S
C1640 C1641 1.287 . S
C1641 C1640 1.287 . S
C1641 C1642 1.524 . S
C1641 H1644 0.999 . S
C1642 H1612 0.950 . S
C1642 C1641 1.524 . S
C1642 C1643 1.415 . S
C1643 H1613 0.950 . S
C1643 C1638 1.363 . S
C1643 C1642 1.415 . S
H1644 C1641 0.999 . S
H1645 C1626 0.913 . S
H1646 C1664 0.951 . S
H1647 C1666 0.951 . S
H1648 C1668 0.950 . S
H1649 C1669 0.950 . S
H1650 C1671 0.950 . S
H1651 C1674 0.950 . S
H1652 C1675 0.950 . S
H1653 C1677 0.950 . S
H1654 C1678 0.950 . S
H1655 C1679 0.951 . S
H1656 C1681 0.951 . S
H1657 C1683 0.950 . S
H1658 C1684 0.950 1_655 S
H1659 C1686 0.950 . S
H1660 C1689 0.950 . S
H1661 C1690 0.950 . S
H1662 C1692 0.950 1_565 S
H1663 C1693 0.950 . S
C1664 H1646 0.951 . S
C1664 C1665 1.366 . S
C1664 C1666 1.388 . S
C1665 C1664 1.366 . S
C1665 C1669 1.385 . S
C1666 H1647 0.951 . S
C1666 C1664 1.388 . S
C1666 C1667 1.366 . S
C1667 C1666 1.366 . S
C1667 C1668 1.414 . S
C1667 C1670 1.499 . S
C1668 H1648 0.950 . S
C1668 C1667 1.414 . S
C1668 C1669 1.374 . S
C1669 H1649 0.950 . S
C1669 C1665 1.385 . S
C1669 C1668 1.374 . S
C1670 C1667 1.499 . S
C1670 C1671 1.373 . S
C1670 C1672 1.389 . S
C1671 H1650 0.950 . S
C1671 C1670 1.373 . S
C1671 C1687 1.377 . S
C1672 C1670 1.389 . S
C1672 C1673 1.524 . S
C1672 C1686 1.377 . S
C1673 C1672 1.524 . S
C1673 C1674 1.397 . S
C1673 C1678 1.363 . S
C1674 H1651 0.950 . S
C1674 C1673 1.397 . S
C1674 C1675 1.334 . S
C1675 H1652 0.950 . S
C1675 C1674 1.334 . S
C1675 C1676 1.287 . S
C1676 C1675 1.287 . S
C1676 C1677 1.524 . S
C1676 H1695 0.913 . S
C1677 H1653 0.950 . S
C1677 C1676 1.524 . S
C1677 C1678 1.415 . S
C1678 H1654 0.950 . S
C1678 C1673 1.363 . S
C1678 C1677 1.415 . S
C1679 H1655 0.951 . S
C1679 C1680 1.366 . S
C1679 C1681 1.388 1_565 S
C1680 C1679 1.366 . S
C1680 C1684 1.385 1_565 S
C1681 H1656 0.951 . S
C1681 C1679 1.388 1_545 S
C1681 C1682 1.366 . S
C1682 C1681 1.366 . S
C1682 C1683 1.414 . S
C1682 C1685 1.499 . S
C1683 H1657 0.950 . S
C1683 C1682 1.414 . S
C1683 C1684 1.374 . S
C1684 H1658 0.950 1_455 S
C1684 C1680 1.385 1_545 S
C1684 C1683 1.374 . S
C1685 C1682 1.499 . S
C1685 C1686 1.373 . S
C1685 C1687 1.389 . S
C1686 H1659 0.950 . S
C1686 C1672 1.377 . S
C1686 C1685 1.373 . S
C1687 C1671 1.377 . S
C1687 C1685 1.389 . S
C1687 C1688 1.524 . S
C1688 C1687 1.524 . S
C1688 C1689 1.397 . S
C1688 C1693 1.363 . S
C1689 H1660 0.950 . S
C1689 C1688 1.397 . S
C1689 C1690 1.334 . S
C1690 H1661 0.950 . S
C1690 C1689 1.334 . S
C1690 C1691 1.287 1_545 S
C1691 C1690 1.287 1_565 S
C1691 C1692 1.524 1_565 S
C1691 H1694 0.999 . S
C1692 H1662 0.950 1_545 S
C1692 C1691 1.524 1_545 S
C1692 C1693 1.415 . S
C1693 H1663 0.950 . S
C1693 C1688 1.363 . S
C1693 C1692 1.415 . S
H1694 C1691 0.999 . S
H1695 C1676 0.913 . S
H1696 C1714 0.951 . S
H1697 C1716 0.951 . S
H1698 C1718 0.950 . S
H1699 C1719 0.950 . S
H1700 C1721 0.950 . S
H1701 C1724 0.950 . S
H1702 C1725 0.950 . S
H1703 C1727 0.950 . S
H1704 C1728 0.950 . S
H1705 C1729 0.951 . S
H1706 C1731 0.951 . S
H1707 C1733 0.950 . S
H1708 C1734 0.950 . S
H1709 C1736 0.950 . S
H1710 C1739 0.950 . S
H1711 C1740 0.950 . S
H1712 C1742 0.950 . S
H1713 C1743 0.950 . S
C1714 H1696 0.951 . S
C1714 C1715 1.366 . S
C1714 C1716 1.388 . S
C1715 C1714 1.366 . S
C1715 C1719 1.385 . S
C1716 H1697 0.951 . S
C1716 C1714 1.388 . S
C1716 C1717 1.366 . S
C1717 C1716 1.366 . S
C1717 C1718 1.414 . S
C1717 C1720 1.499 . S
C1718 H1698 0.950 . S
C1718 C1717 1.414 . S
C1718 C1719 1.374 . S
C1719 H1699 0.950 . S
C1719 C1715 1.385 . S
C1719 C1718 1.374 . S
C1720 C1717 1.499 . S
C1720 C1721 1.373 . S
C1720 C1722 1.389 . S
C1721 H1700 0.950 . S
C1721 C1720 1.373 . S
C1721 C1737 1.377 . S
C1722 C1720 1.389 . S
C1722 C1723 1.524 . S
C1722 C1736 1.377 . S
C1723 C1722 1.524 . S
C1723 C1724 1.397 . S
C1723 C1728 1.363 . S
C1724 H1701 0.950 . S
C1724 C1723 1.397 . S
C1724 C1725 1.334 . S
C1725 H1702 0.950 . S
C1725 C1724 1.334 . S
C1725 C1726 1.287 . S
C1726 C1725 1.287 . S
C1726 C1727 1.524 . S
C1726 H1745 0.913 . S
C1727 H1703 0.950 . S
C1727 C1726 1.524 . S
C1727 C1728 1.415 . S
C1728 H1704 0.950 . S
C1728 C1723 1.363 . S
C1728 C1727 1.415 . S
C1729 H1705 0.951 . S
C1729 C1730 1.366 . S
C1729 C1731 1.388 . S
C1730 C1729 1.366 . S
C1730 C1734 1.385 . S
C1731 H1706 0.951 . S
C1731 C1729 1.388 . S
C1731 C1732 1.366 . S
C1732 C1731 1.366 . S
C1732 C1733 1.414 . S
C1732 C1735 1.499 . S
C1733 H1707 0.950 . S
C1733 C1732 1.414 . S
C1733 C1734 1.374 . S
C1734 H1708 0.950 . S
C1734 C1730 1.385 . S
C1734 C1733 1.374 . S
C1735 C1732 1.499 . S
C1735 C1736 1.373 . S
C1735 C1737 1.389 . S
C1736 H1709 0.950 . S
C1736 C1722 1.377 . S
C1736 C1735 1.373 . S
C1737 C1721 1.377 . S
C1737 C1735 1.389 . S
C1737 C1738 1.524 . S
C1738 C1737 1.524 . S
C1738 C1739 1.397 . S
C1738 C1743 1.363 . S
C1739 H1710 0.950 . S
C1739 C1738 1.397 . S
C1739 C1740 1.334 . S
C1740 H1711 0.950 . S
C1740 C1739 1.334 . S
C1740 C1741 1.287 . S
C1741 C1740 1.287 . S
C1741 C1742 1.524 . S
C1741 H1744 0.999 . S
C1742 H1712 0.950 . S
C1742 C1741 1.524 . S
C1742 C1743 1.415 . S
C1743 H1713 0.950 . S
C1743 C1738 1.363 . S
C1743 C1742 1.415 . S
H1744 C1741 0.999 . S
H1745 C1726 0.913 . S
H1746 C1764 0.960 . S
H1747 C1766 0.951 . S
H1748 C1768 0.950 . S
H1749 C1769 0.950 . S
H1750 C1771 0.950 . S
H1751 C1774 0.950 . S
H1752 C1775 0.950 . S
H1753 C1777 0.950 1_455 S
H1754 C1778 0.950 . S
H1755 C1779 0.951 . S
H1756 C1781 0.951 . S
H1757 C1783 0.950 . S
H1758 C1784 0.950 . S
H1759 C1786 0.950 . S
H1760 C1789 0.950 . S
H1761 C1790 0.950 . S
H1762 C1792 0.950 . S
H1763 C1793 0.950 . S
C1764 H1746 0.960 . S
C1764 C1765 1.364 1_455 S
C1764 C1766 1.381 1_455 S
C1765 C1764 1.364 1_655 S
C1765 C1769 1.385 . S
C1766 H1747 0.951 . S
C1766 C1764 1.381 1_655 S
C1766 C1767 1.366 . S
C1767 C1766 1.366 . S
C1767 C1768 1.414 . S
C1767 C1770 1.499 . S
C1768 H1748 0.950 . S
C1768 C1767 1.414 . S
C1768 C1769 1.374 . S
C1769 H1749 0.950 . S
C1769 C1765 1.385 . S
C1769 C1768 1.374 . S
C1770 C1767 1.499 . S
C1770 C1771 1.373 . S
C1770 C1772 1.389 . S
C1771 H1750 0.950 . S
C1771 C1770 1.373 . S
C1771 C1787 1.377 . S
C1772 C1770 1.389 . S
C1772 C1773 1.524 . S
C1772 C1786 1.377 . S
C1773 C1772 1.524 . S
C1773 C1774 1.397 . S
C1773 C1778 1.363 . S
C1774 H1751 0.950 . S
C1774 C1773 1.397 . S
C1774 C1775 1.334 . S
C1775 H1752 0.950 . S
C1775 C1774 1.334 . S
C1775 C1776 1.287 . S
C1776 C1775 1.287 . S
C1776 C1777 1.524 . S
C1776 H1795 0.913 1_655 S
C1777 H1753 0.950 1_655 S
C1777 C1776 1.524 . S
C1777 C1778 1.415 . S
C1778 H1754 0.950 . S
C1778 C1773 1.363 . S
C1778 C1777 1.415 . S
C1779 H1755 0.951 . S
C1779 C1780 1.366 . S
C1779 C1781 1.388 . S
C1780 C1779 1.366 . S
C1780 C1784 1.385 1_565 S
C1781 H1756 0.951 . S
C1781 C1779 1.388 . S
C1781 C1782 1.366 . S
C1782 C1781 1.366 . S
C1782 C1783 1.414 . S
C1782 C1785 1.499 . S
C1783 H1757 0.950 . S
C1783 C1782 1.414 . S
C1783 C1784 1.374 1_565 S
C1784 H1758 0.950 . S
C1784 C1780 1.385 1_545 S
C1784 C1783 1.374 1_545 S
C1785 C1782 1.499 . S
C1785 C1786 1.373 . S
C1785 C1787 1.389 . S
C1786 H1759 0.950 . S
C1786 C1772 1.377 . S
C1786 C1785 1.373 . S
C1787 C1771 1.377 . S
C1787 C1785 1.389 . S
C1787 C1788 1.524 . S
C1788 C1787 1.524 . S
C1788 C1789 1.397 . S
C1788 C1793 1.363 . S
C1789 H1760 0.950 . S
C1789 C1788 1.397 . S
C1789 C1790 1.334 . S
C1790 H1761 0.950 . S
C1790 C1789 1.334 . S
C1790 C1791 1.287 . S
C1791 C1790 1.287 . S
C1791 C1792 1.524 . S
C1791 H1794 0.999 . S
C1792 H1762 0.950 . S
C1792 C1791 1.524 . S
C1792 C1793 1.415 . S
C1793 H1763 0.950 . S
C1793 C1788 1.363 . S
C1793 C1792 1.415 . S
H1794 C1791 0.999 . S
H1795 C1776 0.913 1_455 S
H1796 C1814 0.951 . S
H1797 C1816 0.951 . S
H1798 C1818 0.950 . S
H1799 C1819 0.950 . S
H1800 C1821 0.950 . S
H1801 C1824 0.950 . S
H1802 C1825 0.950 . S
H1803 C1827 0.950 . S
H1804 C1828 0.950 . S
H1805 C1829 0.951 . S
H1806 C1831 0.951 . S
H1807 C1833 0.950 . S
H1808 C1834 0.950 . S
H1809 C1836 0.950 . S
H1810 C1839 0.950 . S
H1811 C1840 0.950 . S
H1812 C1842 0.950 . S
H1813 C1843 0.950 . S
C1814 H1796 0.951 . S
C1814 C1815 1.366 . S
C1814 C1816 1.388 . S
C1815 C1814 1.366 . S
C1815 C1819 1.385 . S
C1816 H1797 0.951 . S
C1816 C1814 1.388 . S
C1816 C1817 1.366 . S
C1817 C1816 1.366 . S
C1817 C1818 1.414 . S
C1817 C1820 1.499 . S
C1818 H1798 0.950 . S
C1818 C1817 1.414 . S
C1818 C1819 1.374 . S
C1819 H1799 0.950 . S
C1819 C1815 1.385 . S
C1819 C1818 1.374 . S
C1820 C1817 1.499 . S
C1820 C1821 1.373 . S
C1820 C1822 1.389 . S
C1821 H1800 0.950 . S
C1821 C1820 1.373 . S
C1821 C1837 1.377 . S
C1822 C1820 1.389 . S
C1822 C1823 1.524 . S
C1822 C1836 1.377 . S
C1823 C1822 1.524 . S
C1823 C1824 1.397 . S
C1823 C1828 1.363 . S
C1824 H1801 0.950 . S
C1824 C1823 1.397 . S
C1824 C1825 1.334 . S
C1825 H1802 0.950 . S
C1825 C1824 1.334 . S
C1825 C1826 1.287 . S
C1826 C1825 1.287 . S
C1826 C1827 1.524 . S
C1826 H1845 0.913 . S
C1827 H1803 0.950 . S
C1827 C1826 1.524 . S
C1827 C1828 1.415 . S
C1828 H1804 0.950 . S
C1828 C1823 1.363 . S
C1828 C1827 1.415 . S
C1829 H1805 0.951 . S
C1829 C1830 1.366 1_565 S
C1829 C1831 1.388 . S
C1830 C1829 1.366 1_545 S
C1830 C1834 1.385 . S
C1831 H1806 0.951 . S
C1831 C1829 1.388 . S
C1831 C1832 1.366 . S
C1832 C1831 1.366 . S
C1832 C1833 1.414 1_565 S
C1832 C1835 1.499 . S
C1833 H1807 0.950 . S
C1833 C1832 1.414 1_545 S
C1833 C1834 1.374 . S
C1834 H1808 0.950 . S
C1834 C1830 1.385 . S
C1834 C1833 1.374 . S
C1835 C1832 1.499 . S
C1835 C1836 1.373 . S
C1835 C1837 1.389 . S
C1836 H1809 0.950 . S
C1836 C1822 1.377 . S
C1836 C1835 1.373 . S
C1837 C1821 1.377 . S
C1837 C1835 1.389 . S
C1837 C1838 1.524 . S
C1838 C1837 1.524 . S
C1838 C1839 1.397 . S
C1838 C1843 1.363 . S
C1839 H1810 0.950 . S
C1839 C1838 1.397 . S
C1839 C1840 1.334 . S
C1840 H1811 0.950 . S
C1840 C1839 1.334 . S
C1840 C1841 1.287 . S
C1841 C1840 1.287 . S
C1841 C1842 1.524 . S
C1841 H1844 0.999 . S
C1842 H1812 0.950 . S
C1842 C1841 1.524 . S
C1842 C1843 1.415 . S
C1843 H1813 0.950 . S
C1843 C1838 1.363 . S
C1843 C1842 1.415 . S
H1844 C1841 0.999 . S
H1845 C1826 0.913 . S
H1846 C1864 0.965 . S
H1847 C1866 0.951 . S
H1848 C1868 0.950 . S
H1849 C1869 0.950 . S
H1850 C1871 0.950 . S
H1851 C1874 0.950 . S
H1852 C1875 0.950 . S
H1853 C1877 0.950 1_455 S
H1854 C1878 0.950 . S
H1855 C1879 0.951 . S
H1856 C1881 0.951 . S
H1857 C1883 0.950 . S
H1858 C1884 0.950 . S
H1859 C1886 0.950 . S
H1860 C1889 0.950 . S
H1861 C1890 0.950 . S
H1862 C1892 0.950 . S
H1863 C1893 0.950 . S
C1864 H1846 0.965 . S
C1864 C1865 1.362 1_455 S
C1864 C1866 1.377 1_455 S
C1865 C1864 1.362 1_655 S
C1865 C1869 1.385 . S
C1866 H1847 0.951 . S
C1866 C1864 1.377 1_655 S
C1866 C1867 1.366 . S
C1867 C1866 1.366 . S
C1867 C1868 1.414 . S
C1867 C1870 1.499 . S
C1868 H1848 0.950 . S
C1868 C1867 1.414 . S
C1868 C1869 1.374 . S
C1869 H1849 0.950 . S
C1869 C1865 1.385 . S
C1869 C1868 1.374 . S
C1870 C1867 1.499 . S
C1870 C1871 1.373 . S
C1870 C1872 1.389 . S
C1871 H1850 0.950 . S
C1871 C1870 1.373 . S
C1871 C1887 1.377 . S
C1872 C1870 1.389 . S
C1872 C1873 1.524 . S
C1872 C1886 1.377 . S
C1873 C1872 1.524 . S
C1873 C1874 1.397 . S
C1873 C1878 1.363 . S
C1874 H1851 0.950 . S
C1874 C1873 1.397 . S
C1874 C1875 1.334 . S
C1875 H1852 0.950 . S
C1875 C1874 1.334 . S
C1875 C1876 1.287 . S
C1876 C1875 1.287 . S
C1876 C1877 1.524 . S
C1876 H1895 0.913 1_655 S
C1877 H1853 0.950 1_655 S
C1877 C1876 1.524 . S
C1877 C1878 1.415 . S
C1878 H1854 0.950 . S
C1878 C1873 1.363 . S
C1878 C1877 1.415 . S
C1879 H1855 0.951 . S
C1879 C1880 1.366 . S
C1879 C1881 1.388 . S
C1880 C1879 1.366 . S
C1880 C1884 1.385 . S
C1881 H1856 0.951 . S
C1881 C1879 1.388 . S
C1881 C1882 1.366 . S
C1882 C1881 1.366 . S
C1882 C1883 1.414 . S
C1882 C1885 1.499 . S
C1883 H1857 0.950 . S
C1883 C1882 1.414 . S
C1883 C1884 1.374 . S
C1884 H1858 0.950 . S
C1884 C1880 1.385 . S
C1884 C1883 1.374 . S
C1885 C1882 1.499 . S
C1885 C1886 1.373 . S
C1885 C1887 1.389 . S
C1886 H1859 0.950 . S
C1886 C1872 1.377 . S
C1886 C1885 1.373 . S
C1887 C1871 1.377 . S
C1887 C1885 1.389 . S
C1887 C1888 1.524 . S
C1888 C1887 1.524 . S
C1888 C1889 1.397 . S
C1888 C1893 1.363 . S
C1889 H1860 0.950 . S
C1889 C1888 1.397 . S
C1889 C1890 1.334 . S
C1890 H1861 0.950 . S
C1890 C1889 1.334 . S
C1890 C1891 1.287 . S
C1891 C1890 1.287 . S
C1891 C1892 1.524 . S
C1891 H1894 0.999 . S
C1892 H1862 0.950 . S
C1892 C1891 1.524 . S
C1892 C1893 1.415 . S
C1893 H1863 0.950 . S
C1893 C1888 1.363 . S
C1893 C1892 1.415 . S
H1894 C1891 0.999 . S
H1895 C1876 0.913 1_455 S
H1896 C1914 0.951 . S
H1897 C1916 0.951 . S
H1898 C1918 0.950 . S
H1899 C1919 0.950 . S
H1900 C1921 0.950 . S
H1901 C1924 0.950 . S
H1902 C1925 0.950 . S
H1903 C1927 0.950 . S
H1904 C1928 0.950 . S
H1905 C1929 0.951 . S
H1906 C1931 0.951 . S
H1907 C1933 0.950 . S
H1908 C1934 0.950 . S
H1909 C1936 0.950 . S
H1910 C1939 0.950 . S
H1911 C1940 0.950 . S
H1912 C1942 0.950 . S
H1913 C1943 0.950 . S
C1914 H1896 0.951 . S
C1914 C1915 1.366 . S
C1914 C1916 1.388 . S
C1915 C1914 1.366 . S
C1915 C1919 1.385 . S
C1916 H1897 0.951 . S
C1916 C1914 1.388 . S
C1916 C1917 1.366 . S
C1917 C1916 1.366 . S
C1917 C1918 1.414 . S
C1917 C1920 1.499 . S
C1918 H1898 0.950 . S
C1918 C1917 1.414 . S
C1918 C1919 1.374 . S
C1919 H1899 0.950 . S
C1919 C1915 1.385 . S
C1919 C1918 1.374 . S
C1920 C1917 1.499 . S
C1920 C1921 1.373 . S
C1920 C1922 1.389 . S
C1921 H1900 0.950 . S
C1921 C1920 1.373 . S
C1921 C1937 1.377 . S
C1922 C1920 1.389 . S
C1922 C1923 1.524 . S
C1922 C1936 1.377 . S
C1923 C1922 1.524 . S
C1923 C1924 1.397 . S
C1923 C1928 1.363 . S
C1924 H1901 0.950 . S
C1924 C1923 1.397 . S
C1924 C1925 1.334 . S
C1925 H1902 0.950 . S
C1925 C1924 1.334 . S
C1925 C1926 1.287 . S
C1926 C1925 1.287 . S
C1926 C1927 1.524 . S
C1926 H1945 0.913 . S
C1927 H1903 0.950 . S
C1927 C1926 1.524 . S
C1927 C1928 1.415 . S
C1928 H1904 0.950 . S
C1928 C1923 1.363 . S
C1928 C1927 1.415 . S
C1929 H1905 0.951 . S
C1929 C1930 1.366 . S
C1929 C1931 1.388 . S
C1930 C1929 1.366 . S
C1930 C1934 1.385 . S
C1931 H1906 0.951 . S
C1931 C1929 1.388 . S
C1931 C1932 1.366 . S
C1932 C1931 1.366 . S
C1932 C1933 1.414 . S
C1932 C1935 1.499 . S
C1933 H1907 0.950 . S
C1933 C1932 1.414 . S
C1933 C1934 1.374 . S
C1934 H1908 0.950 . S
C1934 C1930 1.385 . S
C1934 C1933 1.374 . S
C1935 C1932 1.499 . S
C1935 C1936 1.373 . S
C1935 C1937 1.389 . S
C1936 H1909 0.950 . S
C1936 C1922 1.377 . S
C1936 C1935 1.373 . S
C1937 C1921 1.377 . S
C1937 C1935 1.389 . S
C1937 C1938 1.524 . S
C1938 C1937 1.524 . S
C1938 C1939 1.397 . S
C1938 C1943 1.363 . S
C1939 H1910 0.950 . S
C1939 C1938 1.397 . S
C1939 C1940 1.334 . S
C1940 H1911 0.950 . S
C1940 C1939 1.334 . S
C1940 C1941 1.287 . S
C1941 C1940 1.287 . S
C1941 C1942 1.524 . S
C1941 H1944 0.999 . S
C1942 H1912 0.950 . S
C1942 C1941 1.524 . S
C1942 C1943 1.415 . S
C1943 H1913 0.950 . S
C1943 C1938 1.363 . S
C1943 C1942 1.415 . S
H1944 C1941 0.999 . S
H1945 C1926 0.913 . S
H1946 C1964 0.951 . S
H1947 C1966 0.951 . S
H1948 C1968 0.950 . S
H1949 C1969 0.952 . S
H1950 C1971 0.950 . S
H1951 C1974 0.950 . S
H1952 C1975 0.950 . S
H1953 C1977 0.950 . S
H1954 C1978 0.950 . S
H1955 C1979 0.951 . S
H1956 C1981 0.951 . S
H1957 C1983 0.950 . S
H1958 C1984 0.950 . S
H1959 C1986 0.950 . S
H1960 C1989 0.950 . S
H1961 C1990 0.950 . S
H1962 C1992 0.950 . S
H1963 C1993 0.950 . S
C1964 H1946 0.951 . S
C1964 C1965 1.366 . S
C1964 C1966 1.388 1_565 S
C1965 C1964 1.366 . S
C1965 C1969 1.391 . S
C1966 H1947 0.951 . S
C1966 C1964 1.388 1_545 S
C1966 C1967 1.366 . S
C1967 C1966 1.366 . S
C1967 C1968 1.414 . S
C1967 C1970 1.499 . S
C1968 H1948 0.950 . S
C1968 C1967 1.414 . S
C1968 C1969 1.365 1_545 S
C1969 H1949 0.952 . S
C1969 C1965 1.391 . S
C1969 C1968 1.365 1_565 S
C1970 C1967 1.499 . S
C1970 C1971 1.373 . S
C1970 C1972 1.389 . S
C1971 H1950 0.950 . S
C1971 C1970 1.373 . S
C1971 C1987 1.377 . S
C1972 C1970 1.389 . S
C1972 C1973 1.524 . S
C1972 C1986 1.377 . S
C1973 C1972 1.524 . S
C1973 C1974 1.397 . S
C1973 C1978 1.363 . S
C1974 H1951 0.950 . S
C1974 C1973 1.397 . S
C1974 C1975 1.334 1_545 S
C1975 H1952 0.950 . S
C1975 C1974 1.334 1_565 S
C1975 C1976 1.287 . S
C1976 C1975 1.287 . S
C1976 C1977 1.524 . S
C1976 H1995 0.913 . S
C1977 H1953 0.950 . S
C1977 C1976 1.524 . S
C1977 C1978 1.415 1_565 S
C1978 H1954 0.950 . S
C1978 C1973 1.363 . S
C1978 C1977 1.415 1_545 S
C1979 H1955 0.951 . S
C1979 C1980 1.366 . S
C1979 C1981 1.388 . S
C1980 C1979 1.366 . S
C1980 C1984 1.385 . S
C1981 H1956 0.951 . S
C1981 C1979 1.388 . S
C1981 C1982 1.366 . S
C1982 C1981 1.366 . S
C1982 C1983 1.414 . S
C1982 C1985 1.499 . S
C1983 H1957 0.950 . S
C1983 C1982 1.414 . S
C1983 C1984 1.374 . S
C1984 H1958 0.950 . S
C1984 C1980 1.385 . S
C1984 C1983 1.374 . S
C1985 C1982 1.499 . S
C1985 C1986 1.373 . S
C1985 C1987 1.389 . S
C1986 H1959 0.950 . S
C1986 C1972 1.377 . S
C1986 C1985 1.373 . S
C1987 C1971 1.377 . S
C1987 C1985 1.389 . S
C1987 C1988 1.524 . S
C1988 C1987 1.524 . S
C1988 C1989 1.397 . S
C1988 C1993 1.363 . S
C1989 H1960 0.950 . S
C1989 C1988 1.397 . S
C1989 C1990 1.334 . S
C1990 H1961 0.950 . S
C1990 C1989 1.334 . S
C1990 C1991 1.287 . S
C1991 C1990 1.287 . S
C1991 C1992 1.524 . S
C1991 H1994 0.999 . S
C1992 H1962 0.950 . S
C1992 C1991 1.524 . S
C1992 C1993 1.415 . S
C1993 H1963 0.950 . S
C1993 C1988 1.363 . S
C1993 C1992 1.415 . S
H1994 C1991 0.999 . S
H1995 C1976 0.913 . S
H1996 C2014 0.951 . S
H1997 C2016 0.951 . S
H1998 C2018 0.950 . S
H1999 C2019 0.950 . S
H2000 C2021 0.950 . S
H2001 C2024 0.950 . S
H2002 C2025 0.950 . S
H2003 C2027 0.950 . S
H2004 C2028 0.950 . S
H2005 C2029 0.951 . S
H2006 C2031 0.951 . S
H2007 C2033 0.950 . S
H2008 C2034 0.950 . S
H2009 C2036 0.950 . S
H2010 C2039 0.950 . S
H2011 C2040 0.950 . S
H2012 C2042 0.950 . S
H2013 C2043 0.950 . S
C2014 H1996 0.951 . S
C2014 C2015 1.366 1_545 S
C2014 C2016 1.388 . S
C2015 C2014 1.366 1_565 S
C2015 C2019 1.385 . S
C2016 H1997 0.951 . S
C2016 C2014 1.388 . S
C2016 C2017 1.366 . S
C2017 C2016 1.366 . S
C2017 C2018 1.414 . S
C2017 C2020 1.499 . S
C2018 H1998 0.950 . S
C2018 C2017 1.414 . S
C2018 C2019 1.374 1_545 S
C2019 H1999 0.950 . S
C2019 C2015 1.385 . S
C2019 C2018 1.374 1_565 S
C2020 C2017 1.499 . S
C2020 C2021 1.373 . S
C2020 C2022 1.389 . S
C2021 H2000 0.950 . S
C2021 C2020 1.373 . S
C2021 C2037 1.377 . S
C2022 C2020 1.389 . S
C2022 C2023 1.524 . S
C2022 C2036 1.377 . S
C2023 C2022 1.524 . S
C2023 C2024 1.397 . S
C2023 C2028 1.363 . S
C2024 H2001 0.950 . S
C2024 C2023 1.397 . S
C2024 C2025 1.334 . S
C2025 H2002 0.950 . S
C2025 C2024 1.334 . S
C2025 C2026 1.287 . S
C2026 C2025 1.287 . S
C2026 C2027 1.524 . S
C2026 H2045 0.913 . S
C2027 H2003 0.950 . S
C2027 C2026 1.524 . S
C2027 C2028 1.415 . S
C2028 H2004 0.950 . S
C2028 C2023 1.363 . S
C2028 C2027 1.415 . S
C2029 H2005 0.951 . S
C2029 C2030 1.366 . S
C2029 C2031 1.388 . S
C2030 C2029 1.366 . S
C2030 C2034 1.385 . S
C2031 H2006 0.951 . S
C2031 C2029 1.388 . S
C2031 C2032 1.366 . S
C2032 C2031 1.366 . S
C2032 C2033 1.414 . S
C2032 C2035 1.499 . S
C2033 H2007 0.950 . S
C2033 C2032 1.414 . S
C2033 C2034 1.374 . S
C2034 H2008 0.950 . S
C2034 C2030 1.385 . S
C2034 C2033 1.374 . S
C2035 C2032 1.499 . S
C2035 C2036 1.373 . S
C2035 C2037 1.389 . S
C2036 H2009 0.950 . S
C2036 C2022 1.377 . S
C2036 C2035 1.373 . S
C2037 C2021 1.377 . S
C2037 C2035 1.389 . S
C2037 C2038 1.524 . S
C2038 C2037 1.524 . S
C2038 C2039 1.397 . S
C2038 C2043 1.363 . S
C2039 H2010 0.950 . S
C2039 C2038 1.397 . S
C2039 C2040 1.334 . S
C2040 H2011 0.950 . S
C2040 C2039 1.334 . S
C2040 C2041 1.287 . S
C2041 C2040 1.287 . S
C2041 C2042 1.524 . S
C2041 H2044 0.999 . S
C2042 H2012 0.950 . S
C2042 C2041 1.524 . S
C2042 C2043 1.415 . S
C2043 H2013 0.950 . S
C2043 C2038 1.363 . S
C2043 C2042 1.415 . S
H2044 C2041 0.999 . S
H2045 C2026 0.913 . S
H2046 C2064 0.951 1_655 S
H2047 C2066 0.951 . S
H2048 C2068 0.950 . S
H2049 C2069 0.950 . S
H2050 C2071 0.950 . S
H2051 C2074 0.950 . S
H2052 C2075 0.950 . S
H2053 C2077 0.950 . S
H2054 C2078 0.950 . S
H2055 C2079 0.951 . S
H2056 C2081 0.951 . S
H2057 C2083 0.950 . S
H2058 C2084 0.950 . S
H2059 C2086 0.950 . S
H2060 C2089 0.950 . S
H2061 C2090 0.950 . S
H2062 C2092 0.950 . S
H2063 C2093 0.950 . S
C2064 H2046 0.951 1_455 S
C2064 C2065 1.366 . S
C2064 C2066 1.388 . S
C2065 C2064 1.366 . S
C2065 C2069 1.385 . S
C2066 H2047 0.951 . S
C2066 C2064 1.388 . S
C2066 C2067 1.366 . S
C2067 C2066 1.366 . S
C2067 C2068 1.414 . S
C2067 C2070 1.499 . S
C2068 H2048 0.950 . S
C2068 C2067 1.414 . S
C2068 C2069 1.374 . S
C2069 H2049 0.950 . S
C2069 C2065 1.385 . S
C2069 C2068 1.374 . S
C2070 C2067 1.499 . S
C2070 C2071 1.373 . S
C2070 C2072 1.389 . S
C2071 H2050 0.950 . S
C2071 C2070 1.373 . S
C2071 C2087 1.377 . S
C2072 C2070 1.389 . S
C2072 C2073 1.524 . S
C2072 C2086 1.377 . S
C2073 C2072 1.524 . S
C2073 C2074 1.397 . S
C2073 C2078 1.363 . S
C2074 H2051 0.950 . S
C2074 C2073 1.397 . S
C2074 C2075 1.334 . S
C2075 H2052 0.950 . S
C2075 C2074 1.334 . S
C2075 C2076 1.287 1_455 S
C2076 C2075 1.287 1_655 S
C2076 C2077 1.524 . S
C2076 H2095 0.913 . S
C2077 H2053 0.950 . S
C2077 C2076 1.524 . S
C2077 C2078 1.415 1_655 S
C2078 H2054 0.950 . S
C2078 C2073 1.363 . S
C2078 C2077 1.415 1_455 S
C2079 H2055 0.951 . S
C2079 C2080 1.366 . S
C2079 C2081 1.388 . S
C2080 C2079 1.366 . S
C2080 C2084 1.385 . S
C2081 H2056 0.951 . S
C2081 C2079 1.388 . S
C2081 C2082 1.366 . S
C2082 C2081 1.366 . S
C2082 C2083 1.414 . S
C2082 C2085 1.499 . S
C2083 H2057 0.950 . S
C2083 C2082 1.414 . S
C2083 C2084 1.374 . S
C2084 H2058 0.950 . S
C2084 C2080 1.385 . S
C2084 C2083 1.374 . S
C2085 C2082 1.499 . S
C2085 C2086 1.373 . S
C2085 C2087 1.389 . S
C2086 H2059 0.950 . S
C2086 C2072 1.377 . S
C2086 C2085 1.373 . S
C2087 C2071 1.377 . S
C2087 C2085 1.389 . S
C2087 C2088 1.524 . S
C2088 C2087 1.524 . S
C2088 C2089 1.397 . S
C2088 C2093 1.363 . S
C2089 H2060 0.950 . S
C2089 C2088 1.397 . S
C2089 C2090 1.334 . S
C2090 H2061 0.950 . S
C2090 C2089 1.334 . S
C2090 C2091 1.287 . S
C2091 C2090 1.287 . S
C2091 C2092 1.524 . S
C2091 H2094 0.999 . S
C2092 H2062 0.950 . S
C2092 C2091 1.524 . S
C2092 C2093 1.415 . S
C2093 H2063 0.950 . S
C2093 C2088 1.363 . S
C2093 C2092 1.415 . S
H2094 C2091 0.999 . S
H2095 C2076 0.913 . S
H2096 C2114 0.951 . S
H2097 C2116 0.951 . S
H2098 C2118 0.950 . S
H2099 C2119 0.950 . S
H2100 C2121 0.950 . S
H2101 C2124 0.950 . S
H2102 C2125 0.950 . S
H2103 C2127 0.950 . S
H2104 C2128 0.950 . S
H2105 C2129 0.951 . S
H2106 C2131 0.951 . S
H2107 C2133 0.950 . S
H2108 C2134 0.950 . S
H2109 C2136 0.950 . S
H2110 C2139 0.950 . S
H2111 C2140 0.950 . S
H2112 C2142 0.950 . S
H2113 C2143 0.950 . S
C2114 H2096 0.951 . S
C2114 C2115 1.366 . S
C2114 C2116 1.388 . S
C2115 C2114 1.366 . S
C2115 C2119 1.385 . S
C2116 H2097 0.951 . S
C2116 C2114 1.388 . S
C2116 C2117 1.366 . S
C2117 C2116 1.366 . S
C2117 C2118 1.414 . S
C2117 C2120 1.499 . S
C2118 H2098 0.950 . S
C2118 C2117 1.414 . S
C2118 C2119 1.374 . S
C2119 H2099 0.950 . S
C2119 C2115 1.385 . S
C2119 C2118 1.374 . S
C2120 C2117 1.499 . S
C2120 C2121 1.373 . S
C2120 C2122 1.389 . S
C2121 H2100 0.950 . S
C2121 C2120 1.373 . S
C2121 C2137 1.377 . S
C2122 C2120 1.389 . S
C2122 C2123 1.524 . S
C2122 C2136 1.377 . S
C2123 C2122 1.524 . S
C2123 C2124 1.397 . S
C2123 C2128 1.363 . S
C2124 H2101 0.950 . S
C2124 C2123 1.397 . S
C2124 C2125 1.334 . S
C2125 H2102 0.950 . S
C2125 C2124 1.334 . S
C2125 C2126 1.287 . S
C2126 C2125 1.287 . S
C2126 C2127 1.524 . S
C2126 H2145 0.913 . S
C2127 H2103 0.950 . S
C2127 C2126 1.524 . S
C2127 C2128 1.415 . S
C2128 H2104 0.950 . S
C2128 C2123 1.363 . S
C2128 C2127 1.415 . S
C2129 H2105 0.951 . S
C2129 C2130 1.366 . S
C2129 C2131 1.388 . S
C2130 C2129 1.366 . S
C2130 C2134 1.385 . S
C2131 H2106 0.951 . S
C2131 C2129 1.388 . S
C2131 C2132 1.366 . S
C2132 C2131 1.366 . S
C2132 C2133 1.414 . S
C2132 C2135 1.499 . S
C2133 H2107 0.950 . S
C2133 C2132 1.414 . S
C2133 C2134 1.374 . S
C2134 H2108 0.950 . S
C2134 C2130 1.385 . S
C2134 C2133 1.374 . S
C2135 C2132 1.499 . S
C2135 C2136 1.373 . S
C2135 C2137 1.389 . S
C2136 H2109 0.950 . S
C2136 C2122 1.377 . S
C2136 C2135 1.373 . S
C2137 C2121 1.377 . S
C2137 C2135 1.389 . S
C2137 C2138 1.524 . S
C2138 C2137 1.524 . S
C2138 C2139 1.397 . S
C2138 C2143 1.363 . S
C2139 H2110 0.950 . S
C2139 C2138 1.397 . S
C2139 C2140 1.334 . S
C2140 H2111 0.950 . S
C2140 C2139 1.334 . S
C2140 C2141 1.287 . S
C2141 C2140 1.287 . S
C2141 C2142 1.524 . S
C2141 H2144 1.007 . S
C2142 H2112 0.950 . S
C2142 C2141 1.524 . S
C2142 C2143 1.415 . S
C2143 H2113 0.950 . S
C2143 C2138 1.363 . S
C2143 C2142 1.415 . S
H2144 C2141 1.007 . S
H2145 C2126 0.913 . S
H2146 C2164 0.951 . S
H2147 C2166 0.951 . S
H2148 C2168 0.950 . S
H2149 C2169 0.950 . S
H2150 C2171 0.950 . S
H2151 C2174 0.950 . S
H2152 C2175 0.950 . S
H2153 C2177 0.950 . S
H2154 C2178 0.950 . S
H2155 C2179 0.951 . S
H2156 C2181 0.951 . S
H2157 C2183 0.950 . S
H2158 C2184 0.950 . S
H2159 C2186 0.950 . S
H2160 C2189 0.950 . S
H2161 C2190 0.950 . S
H2162 C2192 0.950 . S
H2163 C2193 0.950 . S
C2164 H2146 0.951 . S
C2164 C2165 1.366 . S
C2164 C2166 1.388 . S
C2165 C2164 1.366 . S
C2165 C2169 1.385 . S
C2166 H2147 0.951 . S
C2166 C2164 1.388 . S
C2166 C2167 1.366 . S
C2167 C2166 1.366 . S
C2167 C2168 1.414 . S
C2167 C2170 1.499 . S
C2168 H2148 0.950 . S
C2168 C2167 1.414 . S
C2168 C2169 1.374 . S
C2169 H2149 0.950 . S
C2169 C2165 1.385 . S
C2169 C2168 1.374 . S
C2170 C2167 1.499 . S
C2170 C2171 1.373 . S
C2170 C2172 1.389 . S
C2171 H2150 0.950 . S
C2171 C2170 1.373 . S
C2171 C2187 1.377 . S
C2172 C2170 1.389 . S
C2172 C2173 1.524 . S
C2172 C2186 1.377 . S
C2173 C2172 1.524 . S
C2173 C2174 1.397 . S
C2173 C2178 1.363 . S
C2174 H2151 0.950 . S
C2174 C2173 1.397 . S
C2174 C2175 1.334 . S
C2175 H2152 0.950 . S
C2175 C2174 1.334 . S
C2175 C2176 1.287 . S
C2176 C2175 1.287 . S
C2176 C2177 1.524 . S
C2176 H2195 0.913 . S
C2177 H2153 0.950 . S
C2177 C2176 1.524 . S
C2177 C2178 1.415 . S
C2178 H2154 0.950 . S
C2178 C2173 1.363 . S
C2178 C2177 1.415 . S
C2179 H2155 0.951 . S
C2179 C2180 1.366 . S
C2179 C2181 1.388 . S
C2180 C2179 1.366 . S
C2180 C2184 1.385 . S
C2181 H2156 0.951 . S
C2181 C2179 1.388 . S
C2181 C2182 1.366 . S
C2182 C2181 1.366 . S
C2182 C2183 1.414 . S
C2182 C2185 1.499 . S
C2183 H2157 0.950 . S
C2183 C2182 1.414 . S
C2183 C2184 1.374 . S
C2184 H2158 0.950 . S
C2184 C2180 1.385 . S
C2184 C2183 1.374 . S
C2185 C2182 1.499 . S
C2185 C2186 1.373 . S
C2185 C2187 1.389 . S
C2186 H2159 0.950 . S
C2186 C2172 1.377 . S
C2186 C2185 1.373 . S
C2187 C2171 1.377 . S
C2187 C2185 1.389 . S
C2187 C2188 1.524 . S
C2188 C2187 1.524 . S
C2188 C2189 1.397 . S
C2188 C2193 1.363 . S
C2189 H2160 0.950 . S
C2189 C2188 1.397 . S
C2189 C2190 1.334 . S
C2190 H2161 0.950 . S
C2190 C2189 1.334 . S
C2190 C2191 1.287 . S
C2191 C2190 1.287 . S
C2191 C2192 1.524 . S
C2191 H2194 0.999 . S
C2192 H2162 0.950 . S
C2192 C2191 1.524 . S
C2192 C2193 1.415 . S
C2193 H2163 0.950 . S
C2193 C2188 1.363 . S
C2193 C2192 1.415 . S
H2194 C2191 0.999 . S
H2195 C2176 0.913 . S
H2196 C2214 0.951 . S
H2197 C2216 0.951 . S
H2198 C2218 0.950 . S
H2199 C2219 0.950 . S
H2200 C2221 0.950 . S
H2201 C2224 0.950 . S
H2202 C2225 0.950 . S
H2203 C2227 0.950 . S
H2204 C2228 0.950 1_545 S
H2205 C2229 0.951 . S
H2206 C2231 0.951 . S
H2207 C2233 0.950 . S
H2208 C2234 0.950 . S
H2209 C2236 0.950 . S
H2210 C2239 0.950 . S
H2211 C2240 0.950 . S
H2212 C2242 0.950 . S
H2213 C2243 0.950 . S
C2214 H2196 0.951 . S
C2214 C2215 1.366 . S
C2214 C2216 1.388 . S
C2215 C2214 1.366 . S
C2215 C2219 1.385 . S
C2216 H2197 0.951 . S
C2216 C2214 1.388 . S
C2216 C2217 1.366 . S
C2217 C2216 1.366 . S
C2217 C2218 1.414 . S
C2217 C2220 1.499 . S
C2218 H2198 0.950 . S
C2218 C2217 1.414 . S
C2218 C2219 1.374 . S
C2219 H2199 0.950 . S
C2219 C2215 1.385 . S
C2219 C2218 1.374 . S
C2220 C2217 1.499 . S
C2220 C2221 1.373 . S
C2220 C2222 1.389 . S
C2221 H2200 0.950 . S
C2221 C2220 1.373 . S
C2221 C2237 1.377 . S
C2222 C2220 1.389 . S
C2222 C2223 1.524 . S
C2222 C2236 1.377 . S
C2223 C2222 1.524 . S
C2223 C2224 1.397 . S
C2223 C2228 1.363 1_545 S
C2224 H2201 0.950 . S
C2224 C2223 1.397 . S
C2224 C2225 1.334 1_545 S
C2225 H2202 0.950 . S
C2225 C2224 1.334 1_565 S
C2225 C2226 1.287 . S
C2226 C2225 1.287 . S
C2226 C2227 1.524 . S
C2226 H2245 0.913 . S
C2227 H2203 0.950 . S
C2227 C2226 1.524 . S
C2227 C2228 1.415 . S
C2228 H2204 0.950 1_565 S
C2228 C2223 1.363 1_565 S
C2228 C2227 1.415 . S
C2229 H2205 0.951 . S
C2229 C2230 1.366 . S
C2229 C2231 1.388 . S
C2230 C2229 1.366 . S
C2230 C2234 1.385 . S
C2231 H2206 0.951 . S
C2231 C2229 1.388 . S
C2231 C2232 1.366 . S
C2232 C2231 1.366 . S
C2232 C2233 1.414 . S
C2232 C2235 1.499 . S
C2233 H2207 0.950 . S
C2233 C2232 1.414 . S
C2233 C2234 1.374 . S
C2234 H2208 0.950 . S
C2234 C2230 1.385 . S
C2234 C2233 1.374 . S
C2235 C2232 1.499 . S
C2235 C2236 1.373 . S
C2235 C2237 1.389 . S
C2236 H2209 0.950 . S
C2236 C2222 1.377 . S
C2236 C2235 1.373 . S
C2237 C2221 1.377 . S
C2237 C2235 1.389 . S
C2237 C2238 1.524 . S
C2238 C2237 1.524 . S
C2238 C2239 1.397 . S
C2238 C2243 1.363 . S
C2239 H2210 0.950 . S
C2239 C2238 1.397 . S
C2239 C2240 1.334 . S
C2240 H2211 0.950 . S
C2240 C2239 1.334 . S
C2240 C2241 1.287 . S
C2241 C2240 1.287 . S
C2241 C2242 1.524 . S
C2241 H2244 0.999 . S
C2242 H2212 0.950 . S
C2242 C2241 1.524 . S
C2242 C2243 1.415 . S
C2243 H2213 0.950 . S
C2243 C2238 1.363 . S
C2243 C2242 1.415 . S
H2244 C2241 0.999 . S
H2245 C2226 0.913 . S
H2246 C2264 0.951 . S
H2247 C2266 0.951 . S
H2248 C2268 0.950 . S
H2249 C2269 0.950 . S
H2250 C2271 0.950 . S
H2251 C2274 0.950 . S
H2252 C2275 0.950 . S
H2253 C2277 0.950 . S
H2254 C2278 0.950 . S
H2255 C2279 0.951 . S
H2256 C2281 0.951 . S
H2257 C2283 0.950 . S
H2258 C2284 0.950 . S
H2259 C2286 0.950 . S
H2260 C2289 0.950 . S
H2261 C2290 0.950 . S
H2262 C2292 0.950 . S
H2263 C2293 0.950 . S
C2264 H2246 0.951 . S
C2264 C2265 1.366 . S
C2264 C2266 1.388 . S
C2265 C2264 1.366 . S
C2265 C2269 1.385 . S
C2266 H2247 0.951 . S
C2266 C2264 1.388 . S
C2266 C2267 1.366 . S
C2267 C2266 1.366 . S
C2267 C2268 1.414 . S
C2267 C2270 1.499 . S
C2268 H2248 0.950 . S
C2268 C2267 1.414 . S
C2268 C2269 1.374 . S
C2269 H2249 0.950 . S
C2269 C2265 1.385 . S
C2269 C2268 1.374 . S
C2270 C2267 1.499 . S
C2270 C2271 1.373 . S
C2270 C2272 1.389 . S
C2271 H2250 0.950 . S
C2271 C2270 1.373 . S
C2271 C2287 1.377 . S
C2272 C2270 1.389 . S
C2272 C2273 1.524 . S
C2272 C2286 1.377 . S
C2273 C2272 1.524 . S
C2273 C2274 1.397 . S
C2273 C2278 1.363 . S
C2274 H2251 0.950 . S
C2274 C2273 1.397 . S
C2274 C2275 1.334 . S
C2275 H2252 0.950 . S
C2275 C2274 1.334 . S
C2275 C2276 1.287 1_545 S
C2276 C2275 1.287 1_565 S
C2276 C2277 1.524 . S
C2276 H2295 0.913 . S
C2277 H2253 0.950 . S
C2277 C2276 1.524 . S
C2277 C2278 1.415 1_565 S
C2278 H2254 0.950 . S
C2278 C2273 1.363 . S
C2278 C2277 1.415 1_545 S
C2279 H2255 0.951 . S
C2279 C2280 1.366 . S
C2279 C2281 1.388 . S
C2280 C2279 1.366 . S
C2280 C2284 1.385 . S
C2281 H2256 0.951 . S
C2281 C2279 1.388 . S
C2281 C2282 1.366 . S
C2282 C2281 1.366 . S
C2282 C2283 1.414 . S
C2282 C2285 1.499 . S
C2283 H2257 0.950 . S
C2283 C2282 1.414 . S
C2283 C2284 1.374 . S
C2284 H2258 0.950 . S
C2284 C2280 1.385 . S
C2284 C2283 1.374 . S
C2285 C2282 1.499 . S
C2285 C2286 1.373 . S
C2285 C2287 1.389 . S
C2286 H2259 0.950 . S
C2286 C2272 1.377 . S
C2286 C2285 1.373 . S
C2287 C2271 1.377 . S
C2287 C2285 1.389 . S
C2287 C2288 1.524 . S
C2288 C2287 1.524 . S
C2288 C2289 1.397 . S
C2288 C2293 1.363 . S
C2289 H2260 0.950 . S
C2289 C2288 1.397 . S
C2289 C2290 1.334 . S
C2290 H2261 0.950 . S
C2290 C2289 1.334 . S
C2290 C2291 1.287 . S
C2291 C2290 1.287 . S
C2291 C2292 1.524 . S
C2291 H2294 0.999 . S
C2292 H2262 0.950 . S
C2292 C2291 1.524 . S
C2292 C2293 1.415 . S
C2293 H2263 0.950 . S
C2293 C2288 1.363 . S
C2293 C2292 1.415 . S
H2294 C2291 0.999 . S
H2295 C2276 0.913 . S
H2296 C2314 0.951 . S
H2297 C2316 0.951 . S
H2298 C2318 0.950 . S
H2299 C2319 0.950 . S
H2300 C2321 0.950 . S
H2301 C2324 0.950 . S
H2302 C2325 0.950 . S
H2303 C2327 0.950 1_545 S
H2304 C2328 0.950 . S
H2305 C2329 0.951 . S
H2306 C2331 0.951 . S
H2307 C2333 0.950 . S
H2308 C2334 0.950 . S
H2309 C2336 0.950 . S
H2310 C2339 0.950 . S
H2311 C2340 0.950 . S
H2312 C2342 0.950 . S
H2313 C2343 0.950 . S
C2314 H2296 0.951 . S
C2314 C2315 1.366 . S
C2314 C2316 1.388 . S
C2315 C2314 1.366 . S
C2315 C2319 1.385 . S
C2316 H2297 0.951 . S
C2316 C2314 1.388 . S
C2316 C2317 1.366 . S
C2317 C2316 1.366 . S
C2317 C2318 1.414 . S
C2317 C2320 1.499 . S
C2318 H2298 0.950 . S
C2318 C2317 1.414 . S
C2318 C2319 1.374 . S
C2319 H2299 0.950 . S
C2319 C2315 1.385 . S
C2319 C2318 1.374 . S
C2320 C2317 1.499 . S
C2320 C2321 1.373 . S
C2320 C2322 1.389 . S
C2321 H2300 0.950 . S
C2321 C2320 1.373 . S
C2321 C2337 1.377 . S
C2322 C2320 1.389 . S
C2322 C2323 1.524 . S
C2322 C2336 1.377 . S
C2323 C2322 1.524 . S
C2323 C2324 1.397 . S
C2323 C2328 1.363 . S
C2324 H2301 0.950 . S
C2324 C2323 1.397 . S
C2324 C2325 1.334 . S
C2325 H2302 0.950 . S
C2325 C2324 1.334 . S
C2325 C2326 1.287 . S
C2326 C2325 1.287 . S
C2326 C2327 1.524 . S
C2326 H2345 0.913 . S
C2327 H2303 0.950 1_565 S
C2327 C2326 1.524 . S
C2327 C2328 1.415 . S
C2328 H2304 0.950 . S
C2328 C2323 1.363 . S
C2328 C2327 1.415 . S
C2329 H2305 0.951 . S
C2329 C2330 1.366 . S
C2329 C2331 1.388 . S
C2330 C2329 1.366 . S
C2330 C2334 1.385 . S
C2331 H2306 0.951 . S
C2331 C2329 1.388 . S
C2331 C2332 1.366 . S
C2332 C2331 1.366 . S
C2332 C2333 1.414 . S
C2332 C2335 1.499 . S
C2333 H2307 0.950 . S
C2333 C2332 1.414 . S
C2333 C2334 1.374 . S
C2334 H2308 0.950 . S
C2334 C2330 1.385 . S
C2334 C2333 1.374 . S
C2335 C2332 1.499 . S
C2335 C2336 1.373 . S
C2335 C2337 1.389 . S
C2336 H2309 0.950 . S
C2336 C2322 1.377 . S
C2336 C2335 1.373 . S
C2337 C2321 1.377 . S
C2337 C2335 1.389 . S
C2337 C2338 1.524 . S
C2338 C2337 1.524 . S
C2338 C2339 1.397 . S
C2338 C2343 1.363 . S
C2339 H2310 0.950 . S
C2339 C2338 1.397 . S
C2339 C2340 1.334 . S
C2340 H2311 0.950 . S
C2340 C2339 1.334 . S
C2340 C2341 1.287 . S
C2341 C2340 1.287 . S
C2341 C2342 1.524 . S
C2341 H2344 0.999 . S
C2342 H2312 0.950 . S
C2342 C2341 1.524 . S
C2342 C2343 1.415 . S
C2343 H2313 0.950 . S
C2343 C2338 1.363 . S
C2343 C2342 1.415 . S
H2344 C2341 0.999 . S
H2345 C2326 0.913 . S
H2346 C2364 0.951 . S
H2347 C2366 0.951 . S
H2348 C2368 0.950 . S
H2349 C2369 0.950 1_655 S
H2350 C2371 0.950 . S
H2351 C2374 0.950 . S
H2352 C2375 0.950 . S
H2353 C2377 0.950 . S
H2354 C2378 0.950 . S
H2355 C2379 0.951 . S
H2356 C2381 0.951 . S
H2357 C2383 0.950 . S
H2358 C2384 0.950 . S
H2359 C2386 0.950 . S
H2360 C2389 0.950 . S
H2361 C2390 0.950 . S
H2362 C2392 0.950 . S
H2363 C2393 0.950 . S
C2364 H2346 0.951 . S
C2364 C2365 1.366 . S
C2364 C2366 1.388 . S
C2365 C2364 1.366 . S
C2365 C2369 1.385 . S
C2366 H2347 0.951 . S
C2366 C2364 1.388 . S
C2366 C2367 1.366 . S
C2367 C2366 1.366 . S
C2367 C2368 1.414 . S
C2367 C2370 1.499 . S
C2368 H2348 0.950 . S
C2368 C2367 1.414 . S
C2368 C2369 1.374 . S
C2369 H2349 0.950 1_455 S
C2369 C2365 1.385 . S
C2369 C2368 1.374 . S
C2370 C2367 1.499 . S
C2370 C2371 1.373 . S
C2370 C2372 1.389 . S
C2371 H2350 0.950 . S
C2371 C2370 1.373 . S
C2371 C2387 1.377 . S
C2372 C2370 1.389 . S
C2372 C2373 1.524 . S
C2372 C2386 1.377 . S
C2373 C2372 1.524 . S
C2373 C2374 1.397 . S
C2373 C2378 1.363 . S
C2374 H2351 0.950 . S
C2374 C2373 1.397 . S
C2374 C2375 1.334 . S
C2375 H2352 0.950 . S
C2375 C2374 1.334 . S
C2375 C2376 1.287 . S
C2376 C2375 1.287 . S
C2376 C2377 1.524 . S
C2376 H2395 0.913 . S
C2377 H2353 0.950 . S
C2377 C2376 1.524 . S
C2377 C2378 1.415 . S
C2378 H2354 0.950 . S
C2378 C2373 1.363 . S
C2378 C2377 1.415 . S
C2379 H2355 0.951 . S
C2379 C2380 1.366 . S
C2379 C2381 1.388 . S
C2380 C2379 1.366 . S
C2380 C2384 1.385 . S
C2381 H2356 0.951 . S
C2381 C2379 1.388 . S
C2381 C2382 1.366 . S
C2382 C2381 1.366 . S
C2382 C2383 1.414 . S
C2382 C2385 1.499 . S
C2383 H2357 0.950 . S
C2383 C2382 1.414 . S
C2383 C2384 1.374 . S
C2384 H2358 0.950 . S
C2384 C2380 1.385 . S
C2384 C2383 1.374 . S
C2385 C2382 1.499 . S
C2385 C2386 1.373 . S
C2385 C2387 1.389 . S
C2386 H2359 0.950 . S
C2386 C2372 1.377 . S
C2386 C2385 1.373 . S
C2387 C2371 1.377 . S
C2387 C2385 1.389 . S
C2387 C2388 1.524 . S
C2388 C2387 1.524 . S
C2388 C2389 1.397 . S
C2388 C2393 1.363 . S
C2389 H2360 0.950 . S
C2389 C2388 1.397 . S
C2389 C2390 1.334 1_565 S
C2390 H2361 0.950 . S
C2390 C2389 1.334 1_545 S
C2390 C2391 1.287 . S
C2391 C2390 1.287 . S
C2391 C2392 1.524 . S
C2391 H2394 0.999 . S
C2392 H2362 0.950 . S
C2392 C2391 1.524 . S
C2392 C2393 1.415 1_545 S
C2393 H2363 0.950 . S
C2393 C2388 1.363 . S
C2393 C2392 1.415 1_565 S
H2394 C2391 0.999 . S
H2395 C2376 0.913 . S
H2396 C2414 0.951 . S
H2397 C2416 0.951 . S
H2398 C2418 0.950 . S
H2399 C2419 0.950 . S
H2400 C2421 0.950 . S
H2401 C2424 0.950 . S
H2402 C2425 0.950 . S
H2403 C2427 0.950 . S
H2404 C2428 0.950 . S
H2405 C2429 0.951 . S
H2406 C2431 0.951 . S
H2407 C2433 0.950 . S
H2408 C2434 0.950 . S
H2409 C2436 0.950 . S
H2410 C2439 0.950 . S
H2411 C2440 0.950 . S
H2412 C2442 0.950 . S
H2413 C2443 0.950 . S
C2414 H2396 0.951 . S
C2414 C2415 1.366 . S
C2414 C2416 1.388 . S
C2415 C2414 1.366 . S
C2415 C2419 1.385 . S
C2416 H2397 0.951 . S
C2416 C2414 1.388 . S
C2416 C2417 1.366 . S
C2417 C2416 1.366 . S
C2417 C2418 1.414 . S
C2417 C2420 1.499 . S
C2418 H2398 0.950 . S
C2418 C2417 1.414 . S
C2418 C2419 1.374 . S
C2419 H2399 0.950 . S
C2419 C2415 1.385 . S
C2419 C2418 1.374 . S
C2420 C2417 1.499 . S
C2420 C2421 1.373 . S
C2420 C2422 1.389 . S
C2421 H2400 0.950 . S
C2421 C2420 1.373 . S
C2421 C2437 1.377 . S
C2422 C2420 1.389 . S
C2422 C2423 1.524 . S
C2422 C2436 1.377 . S
C2423 C2422 1.524 . S
C2423 C2424 1.397 . S
C2423 C2428 1.363 . S
C2424 H2401 0.950 . S
C2424 C2423 1.397 . S
C2424 C2425 1.334 . S
C2425 H2402 0.950 . S
C2425 C2424 1.334 . S
C2425 C2426 1.287 . S
C2426 C2425 1.287 . S
C2426 C2427 1.524 . S
C2426 H2445 0.913 . S
C2427 H2403 0.950 . S
C2427 C2426 1.524 . S
C2427 C2428 1.415 . S
C2428 H2404 0.950 . S
C2428 C2423 1.363 . S
C2428 C2427 1.415 . S
C2429 H2405 0.951 . S
C2429 C2430 1.366 . S
C2429 C2431 1.388 . S
C2430 C2429 1.366 . S
C2430 C2434 1.385 . S
C2431 H2406 0.951 . S
C2431 C2429 1.388 . S
C2431 C2432 1.366 . S
C2432 C2431 1.366 . S
C2432 C2433 1.414 . S
C2432 C2435 1.499 . S
C2433 H2407 0.950 . S
C2433 C2432 1.414 . S
C2433 C2434 1.374 . S
C2434 H2408 0.950 . S
C2434 C2430 1.385 . S
C2434 C2433 1.374 . S
C2435 C2432 1.499 . S
C2435 C2436 1.373 . S
C2435 C2437 1.389 . S
C2436 H2409 0.950 . S
C2436 C2422 1.377 . S
C2436 C2435 1.373 . S
C2437 C2421 1.377 . S
C2437 C2435 1.389 . S
C2437 C2438 1.524 . S
C2438 C2437 1.524 . S
C2438 C2439 1.397 . S
C2438 C2443 1.363 . S
C2439 H2410 0.950 . S
C2439 C2438 1.397 . S
C2439 C2440 1.334 . S
C2440 H2411 0.950 . S
C2440 C2439 1.334 . S
C2440 C2441 1.287 . S
C2441 C2440 1.287 . S
C2441 C2442 1.524 . S
C2441 H2444 0.999 . S
C2442 H2412 0.950 . S
C2442 C2441 1.524 . S
C2442 C2443 1.415 . S
C2443 H2413 0.950 . S
C2443 C2438 1.363 . S
C2443 C2442 1.415 . S
H2444 C2441 0.999 . S
H2445 C2426 0.913 . S
H2446 C2464 0.951 . S
H2447 C2466 0.951 . S
H2448 C2468 0.950 . S
H2449 C2469 0.950 . S
H2450 C2471 0.950 . S
H2451 C2474 0.950 . S
H2452 C2475 0.950 . S
H2453 C2477 0.950 . S
H2454 C2478 0.952 . S
H2455 C2479 0.951 . S
H2456 C2481 0.951 . S
H2457 C2483 0.950 . S
H2458 C2484 0.950 . S
H2459 C2486 0.950 . S
H2460 C2489 0.950 . S
H2461 C2490 0.950 . S
H2462 C2492 0.950 . S
H2463 C2493 0.950 . S
C2464 H2446 0.951 . S
C2464 C2465 1.366 . S
C2464 C2466 1.388 . S
C2465 C2464 1.366 . S
C2465 C2469 1.385 . S
C2466 H2447 0.951 . S
C2466 C2464 1.388 . S
C2466 C2467 1.366 . S
C2467 C2466 1.366 . S
C2467 C2468 1.414 . S
C2467 C2470 1.499 . S
C2468 H2448 0.950 . S
C2468 C2467 1.414 . S
C2468 C2469 1.374 . S
C2469 H2449 0.950 . S
C2469 C2465 1.385 . S
C2469 C2468 1.374 . S
C2470 C2467 1.499 . S
C2470 C2471 1.373 . S
C2470 C2472 1.389 . S
C2471 H2450 0.950 . S
C2471 C2470 1.373 . S
C2471 C2487 1.377 . S
C2472 C2470 1.389 . S
C2472 C2473 1.524 . S
C2472 C2486 1.377 . S
C2473 C2472 1.524 . S
C2473 C2474 1.397 . S
C2473 C2478 1.373 . S
C2474 H2451 0.950 . S
C2474 C2473 1.397 . S
C2474 C2475 1.334 1_565 S
C2475 H2452 0.950 . S
C2475 C2474 1.334 1_545 S
C2475 C2476 1.287 . S
C2476 C2475 1.287 . S
C2476 C2477 1.524 . S
C2476 H2495 0.913 . S
C2477 H2453 0.950 . S
C2477 C2476 1.524 . S
C2477 C2478 1.403 1_545 S
C2478 H2454 0.952 . S
C2478 C2473 1.373 . S
C2478 C2477 1.403 1_565 S
C2479 H2455 0.951 . S
C2479 C2480 1.366 . S
C2479 C2481 1.388 . S
C2480 C2479 1.366 . S
C2480 C2484 1.385 . S
C2481 H2456 0.951 . S
C2481 C2479 1.388 . S
C2481 C2482 1.366 . S
C2482 C2481 1.366 . S
C2482 C2483 1.414 . S
C2482 C2485 1.499 . S
C2483 H2457 0.950 . S
C2483 C2482 1.414 . S
C2483 C2484 1.374 . S
C2484 H2458 0.950 . S
C2484 C2480 1.385 . S
C2484 C2483 1.374 . S
C2485 C2482 1.499 . S
C2485 C2486 1.373 . S
C2485 C2487 1.389 . S
C2486 H2459 0.950 . S
C2486 C2472 1.377 . S
C2486 C2485 1.373 . S
C2487 C2471 1.377 . S
C2487 C2485 1.389 . S
C2487 C2488 1.524 . S
C2488 C2487 1.524 . S
C2488 C2489 1.397 . S
C2488 C2493 1.363 . S
C2489 H2460 0.950 . S
C2489 C2488 1.397 . S
C2489 C2490 1.334 . S
C2490 H2461 0.950 . S
C2490 C2489 1.334 . S
C2490 C2491 1.287 . S
C2491 C2490 1.287 . S
C2491 C2492 1.524 . S
C2491 H2494 0.999 . S
C2492 H2462 0.950 . S
C2492 C2491 1.524 . S
C2492 C2493 1.415 . S
C2493 H2463 0.950 . S
C2493 C2488 1.363 . S
C2493 C2492 1.415 . S
H2494 C2491 0.999 . S
H2495 C2476 0.913 . S
H2496 C2514 0.951 . S
H2497 C2516 0.951 . S
H2498 C2518 0.950 . S
H2499 C2519 0.950 . S
H2500 C2521 0.950 . S
H2501 C2524 0.950 . S
H2502 C2525 0.950 . S
H2503 C2527 0.950 . S
H2504 C2528 0.950 . S
H2505 C2529 0.951 . S
H2506 C2531 0.951 . S
H2507 C2533 0.950 . S
H2508 C2534 0.950 . S
H2509 C2536 0.950 . S
H2510 C2539 0.950 . S
H2511 C2540 0.950 . S
H2512 C2542 0.950 . S
H2513 C2543 0.950 . S
C2514 H2496 0.951 . S
C2514 C2515 1.366 . S
C2514 C2516 1.388 . S
C2515 C2514 1.366 . S
C2515 C2519 1.385 . S
C2516 H2497 0.951 . S
C2516 C2514 1.388 . S
C2516 C2517 1.366 . S
C2517 C2516 1.366 . S
C2517 C2518 1.414 . S
C2517 C2520 1.499 . S
C2518 H2498 0.950 . S
C2518 C2517 1.414 . S
C2518 C2519 1.374 . S
C2519 H2499 0.950 . S
C2519 C2515 1.385 . S
C2519 C2518 1.374 . S
C2520 C2517 1.499 . S
C2520 C2521 1.373 . S
C2520 C2522 1.389 . S
C2521 H2500 0.950 . S
C2521 C2520 1.373 . S
C2521 C2537 1.377 . S
C2522 C2520 1.389 . S
C2522 C2523 1.524 . S
C2522 C2536 1.377 . S
C2523 C2522 1.524 . S
C2523 C2524 1.397 . S
C2523 C2528 1.363 . S
C2524 H2501 0.950 . S
C2524 C2523 1.397 . S
C2524 C2525 1.334 . S
C2525 H2502 0.950 . S
C2525 C2524 1.334 . S
C2525 C2526 1.287 . S
C2526 C2525 1.287 . S
C2526 C2527 1.524 . S
C2526 H2545 0.913 . S
C2527 H2503 0.950 . S
C2527 C2526 1.524 . S
C2527 C2528 1.415 . S
C2528 H2504 0.950 . S
C2528 C2523 1.363 . S
C2528 C2527 1.415 . S
C2529 H2505 0.951 . S
C2529 C2530 1.366 . S
C2529 C2531 1.388 . S
C2530 C2529 1.366 . S
C2530 C2534 1.385 . S
C2531 H2506 0.951 . S
C2531 C2529 1.388 . S
C2531 C2532 1.366 . S
C2532 C2531 1.366 . S
C2532 C2533 1.414 . S
C2532 C2535 1.499 . S
C2533 H2507 0.950 . S
C2533 C2532 1.414 . S
C2533 C2534 1.374 . S
C2534 H2508 0.950 . S
C2534 C2530 1.385 . S
C2534 C2533 1.374 . S
C2535 C2532 1.499 . S
C2535 C2536 1.373 . S
C2535 C2537 1.389 . S
C2536 H2509 0.950 . S
C2536 C2522 1.377 . S
C2536 C2535 1.373 . S
C2537 C2521 1.377 . S
C2537 C2535 1.389 . S
C2537 C2538 1.524 . S
C2538 C2537 1.524 . S
C2538 C2539 1.397 . S
C2538 C2543 1.363 . S
C2539 H2510 0.950 . S
C2539 C2538 1.397 . S
C2539 C2540 1.334 . S
C2540 H2511 0.950 . S
C2540 C2539 1.334 . S
C2540 C2541 1.287 . S
C2541 C2540 1.287 . S
C2541 C2542 1.524 . S
C2541 H2544 0.999 . S
C2542 H2512 0.950 . S
C2542 C2541 1.524 . S
C2542 C2543 1.415 . S
C2543 H2513 0.950 . S
C2543 C2538 1.363 . S
C2543 C2542 1.415 . S
H2544 C2541 0.999 . S
H2545 C2526 0.913 . S
H2546 C2564 0.951 . S
H2547 C2566 0.951 . S
H2548 C2568 0.950 . S
H2549 C2569 0.950 . S
H2550 C2571 0.950 . S
H2551 C2574 0.950 . S
H2552 C2575 0.950 . S
H2553 C2577 0.950 . S
H2554 C2578 0.950 . S
H2555 C2579 0.951 . S
H2556 C2581 0.951 . S
H2557 C2583 0.950 . S
H2558 C2584 0.950 . S
H2559 C2586 0.950 . S
H2560 C2589 0.950 . S
H2561 C2590 0.950 . S
H2562 C2592 0.950 . S
H2563 C2593 0.950 . S
C2564 H2546 0.951 . S
C2564 C2565 1.366 . S
C2564 C2566 1.388 . S
C2565 C2564 1.366 . S
C2565 C2569 1.385 . S
C2566 H2547 0.951 . S
C2566 C2564 1.388 . S
C2566 C2567 1.366 . S
C2567 C2566 1.366 . S
C2567 C2568 1.414 . S
C2567 C2570 1.499 . S
C2568 H2548 0.950 . S
C2568 C2567 1.414 . S
C2568 C2569 1.374 . S
C2569 H2549 0.950 . S
C2569 C2565 1.385 . S
C2569 C2568 1.374 . S
C2570 C2567 1.499 . S
C2570 C2571 1.373 . S
C2570 C2572 1.389 . S
C2571 H2550 0.950 . S
C2571 C2570 1.373 . S
C2571 C2587 1.377 . S
C2572 C2570 1.389 . S
C2572 C2573 1.524 . S
C2572 C2586 1.377 . S
C2573 C2572 1.524 . S
C2573 C2574 1.397 . S
C2573 C2578 1.363 . S
C2574 H2551 0.950 . S
C2574 C2573 1.397 . S
C2574 C2575 1.334 . S
C2575 H2552 0.950 . S
C2575 C2574 1.334 . S
C2575 C2576 1.287 . S
C2576 C2575 1.287 . S
C2576 C2577 1.524 . S
C2576 H2595 0.913 . S
C2577 H2553 0.950 . S
C2577 C2576 1.524 . S
C2577 C2578 1.415 . S
C2578 H2554 0.950 . S
C2578 C2573 1.363 . S
C2578 C2577 1.415 . S
C2579 H2555 0.951 . S
C2579 C2580 1.366 . S
C2579 C2581 1.388 . S
C2580 C2579 1.366 . S
C2580 C2584 1.385 . S
C2581 H2556 0.951 . S
C2581 C2579 1.388 . S
C2581 C2582 1.366 . S
C2582 C2581 1.366 . S
C2582 C2583 1.414 . S
C2582 C2585 1.499 . S
C2583 H2557 0.950 . S
C2583 C2582 1.414 . S
C2583 C2584 1.374 . S
C2584 H2558 0.950 . S
C2584 C2580 1.385 . S
C2584 C2583 1.374 . S
C2585 C2582 1.499 . S
C2585 C2586 1.373 . S
C2585 C2587 1.389 . S
C2586 H2559 0.950 . S
C2586 C2572 1.377 . S
C2586 C2585 1.373 . S
C2587 C2571 1.377 . S
C2587 C2585 1.389 . S
C2587 C2588 1.524 . S
C2588 C2587 1.524 . S
C2588 C2589 1.397 . S
C2588 C2593 1.363 . S
C2589 H2560 0.950 . S
C2589 C2588 1.397 . S
C2589 C2590 1.334 . S
C2590 H2561 0.950 . S
C2590 C2589 1.334 . S
C2590 C2591 1.287 . S
C2591 C2590 1.287 . S
C2591 C2592 1.524 . S
C2591 H2594 0.999 . S
C2592 H2562 0.950 . S
C2592 C2591 1.524 . S
C2592 C2593 1.415 . S
C2593 H2563 0.950 . S
C2593 C2588 1.363 . S
C2593 C2592 1.415 . S
H2594 C2591 0.999 . S
H2595 C2576 0.913 . S
H2596 C2614 0.951 . S
H2597 C2616 0.951 . S
H2598 C2618 0.950 . S
H2599 C2619 0.950 . S
H2600 C2621 0.950 . S
H2601 C2624 0.950 . S
H2602 C2625 0.950 . S
H2603 C2627 0.950 . S
H2604 C2628 0.950 . S
H2605 C2629 0.951 . S
H2606 C2631 0.951 . S
H2607 C2633 0.950 . S
H2608 C2634 0.950 . S
H2609 C2636 0.950 . S
H2610 C2639 0.950 . S
H2611 C2640 0.950 . S
H2612 C2642 0.950 . S
H2613 C2643 0.950 . S
C2614 H2596 0.951 . S
C2614 C2615 1.366 . S
C2614 C2616 1.388 . S
C2615 C2614 1.366 . S
C2615 C2619 1.385 . S
C2616 H2597 0.951 . S
C2616 C2614 1.388 . S
C2616 C2617 1.366 . S
C2617 C2616 1.366 . S
C2617 C2618 1.414 . S
C2617 C2620 1.499 . S
C2618 H2598 0.950 . S
C2618 C2617 1.414 . S
C2618 C2619 1.374 . S
C2619 H2599 0.950 . S
C2619 C2615 1.385 . S
C2619 C2618 1.374 . S
C2620 C2617 1.499 . S
C2620 C2621 1.373 . S
C2620 C2622 1.389 . S
C2621 H2600 0.950 . S
C2621 C2620 1.373 . S
C2621 C2637 1.377 . S
C2622 C2620 1.389 . S
C2622 C2623 1.524 . S
C2622 C2636 1.377 . S
C2623 C2622 1.524 . S
C2623 C2624 1.397 . S
C2623 C2628 1.363 . S
C2624 H2601 0.950 . S
C2624 C2623 1.397 . S
C2624 C2625 1.334 . S
C2625 H2602 0.950 . S
C2625 C2624 1.334 . S
C2625 C2626 1.287 . S
C2626 C2625 1.287 . S
C2626 C2627 1.524 . S
C2626 H2645 0.913 . S
C2627 H2603 0.950 . S
C2627 C2626 1.524 . S
C2627 C2628 1.415 . S
C2628 H2604 0.950 . S
C2628 C2623 1.363 . S
C2628 C2627 1.415 . S
C2629 H2605 0.951 . S
C2629 C2630 1.366 . S
C2629 C2631 1.388 . S
C2630 C2629 1.366 . S
C2630 C2634 1.385 . S
C2631 H2606 0.951 . S
C2631 C2629 1.388 . S
C2631 C2632 1.366 . S
C2632 C2631 1.366 . S
C2632 C2633 1.414 . S
C2632 C2635 1.499 . S
C2633 H2607 0.950 . S
C2633 C2632 1.414 . S
C2633 C2634 1.374 . S
C2634 H2608 0.950 . S
C2634 C2630 1.385 . S
C2634 C2633 1.374 . S
C2635 C2632 1.499 . S
C2635 C2636 1.373 . S
C2635 C2637 1.389 . S
C2636 H2609 0.950 . S
C2636 C2622 1.377 . S
C2636 C2635 1.373 . S
C2637 C2621 1.377 . S
C2637 C2635 1.389 . S
C2637 C2638 1.524 . S
C2638 C2637 1.524 . S
C2638 C2639 1.397 . S
C2638 C2643 1.363 . S
C2639 H2610 0.950 . S
C2639 C2638 1.397 . S
C2639 C2640 1.334 . S
C2640 H2611 0.950 . S
C2640 C2639 1.334 . S
C2640 C2641 1.287 . S
C2641 C2640 1.287 . S
C2641 C2642 1.524 . S
C2641 H2644 0.999 . S
C2642 H2612 0.950 . S
C2642 C2641 1.524 . S
C2642 C2643 1.415 . S
C2643 H2613 0.950 . S
C2643 C2638 1.363 . S
C2643 C2642 1.415 . S
H2644 C2641 0.999 . S
H2645 C2626 0.913 . S
H2646 C2664 0.951 . S
H2647 C2666 0.951 . S
H2648 C2668 0.950 . S
H2649 C2669 0.950 . S
H2650 C2671 0.950 . S
H2651 C2674 0.950 . S
H2652 C2675 0.950 . S
H2653 C2677 0.950 . S
H2654 C2678 0.950 . S
H2655 C2679 0.951 . S
H2656 C2681 0.951 . S
H2657 C2683 0.950 . S
H2658 C2684 0.950 . S
H2659 C2686 0.950 . S
H2660 C2689 0.950 . S
H2661 C2690 0.950 . S
H2662 C2692 0.950 . S
H2663 C2693 0.950 . S
C2664 H2646 0.951 . S
C2664 C2665 1.366 . S
C2664 C2666 1.388 . S
C2665 C2664 1.366 . S
C2665 C2669 1.385 . S
C2666 H2647 0.951 . S
C2666 C2664 1.388 . S
C2666 C2667 1.366 . S
C2667 C2666 1.366 . S
C2667 C2668 1.414 . S
C2667 C2670 1.499 . S
C2668 H2648 0.950 . S
C2668 C2667 1.414 . S
C2668 C2669 1.374 . S
C2669 H2649 0.950 . S
C2669 C2665 1.385 . S
C2669 C2668 1.374 . S
C2670 C2667 1.499 . S
C2670 C2671 1.373 . S
C2670 C2672 1.389 . S
C2671 H2650 0.950 . S
C2671 C2670 1.373 . S
C2671 C2687 1.377 . S
C2672 C2670 1.389 . S
C2672 C2673 1.524 . S
C2672 C2686 1.377 . S
C2673 C2672 1.524 . S
C2673 C2674 1.397 . S
C2673 C2678 1.363 . S
C2674 H2651 0.950 . S
C2674 C2673 1.397 . S
C2674 C2675 1.334 . S
C2675 H2652 0.950 . S
C2675 C2674 1.334 . S
C2675 C2676 1.287 . S
C2676 C2675 1.287 . S
C2676 C2677 1.524 . S
C2676 H2695 0.913 . S
C2677 H2653 0.950 . S
C2677 C2676 1.524 . S
C2677 C2678 1.415 . S
C2678 H2654 0.950 . S
C2678 C2673 1.363 . S
C2678 C2677 1.415 . S
C2679 H2655 0.951 . S
C2679 C2680 1.366 . S
C2679 C2681 1.388 . S
C2680 C2679 1.366 . S
C2680 C2684 1.385 . S
C2681 H2656 0.951 . S
C2681 C2679 1.388 . S
C2681 C2682 1.366 . S
C2682 C2681 1.366 . S
C2682 C2683 1.414 . S
C2682 C2685 1.499 . S
C2683 H2657 0.950 . S
C2683 C2682 1.414 . S
C2683 C2684 1.374 . S
C2684 H2658 0.950 . S
C2684 C2680 1.385 . S
C2684 C2683 1.374 . S
C2685 C2682 1.499 . S
C2685 C2686 1.373 . S
C2685 C2687 1.389 . S
C2686 H2659 0.950 . S
C2686 C2672 1.377 . S
C2686 C2685 1.373 . S
C2687 C2671 1.377 . S
C2687 C2685 1.389 . S
C2687 C2688 1.524 . S
C2688 C2687 1.524 . S
C2688 C2689 1.397 . S
C2688 C2693 1.363 . S
C2689 H2660 0.950 . S
C2689 C2688 1.397 . S
C2689 C2690 1.334 . S
C2690 H2661 0.950 . S
C2690 C2689 1.334 . S
C2690 C2691 1.287 . S
C2691 C2690 1.287 . S
C2691 C2692 1.524 . S
C2691 H2694 0.999 1_655 S
C2692 H2662 0.950 . S
C2692 C2691 1.524 . S
C2692 C2693 1.415 . S
C2693 H2663 0.950 . S
C2693 C2688 1.363 . S
C2693 C2692 1.415 . S
H2694 C2691 0.999 1_455 S
H2695 C2676 0.913 . S
H2696 C2714 0.951 . S
H2697 C2716 0.951 . S
H2698 C2718 0.950 . S
H2699 C2719 0.950 . S
H2700 C2721 0.950 . S
H2701 C2724 0.950 . S
H2702 C2725 0.950 . S
H2703 C2727 0.950 . S
H2704 C2728 0.950 . S
H2705 C2729 0.951 . S
H2706 C2731 0.951 . S
H2707 C2733 0.950 . S
H2708 C2734 0.950 . S
H2709 C2736 0.950 . S
H2710 C2739 0.950 . S
H2711 C2740 0.950 . S
H2712 C2742 0.950 . S
H2713 C2743 0.950 . S
C2714 H2696 0.951 . S
C2714 C2715 1.366 . S
C2714 C2716 1.388 . S
C2715 C2714 1.366 . S
C2715 C2719 1.385 . S
C2716 H2697 0.951 . S
C2716 C2714 1.388 . S
C2716 C2717 1.366 . S
C2717 C2716 1.366 . S
C2717 C2718 1.414 . S
C2717 C2720 1.499 . S
C2718 H2698 0.950 . S
C2718 C2717 1.414 . S
C2718 C2719 1.374 . S
C2719 H2699 0.950 . S
C2719 C2715 1.385 . S
C2719 C2718 1.374 . S
C2720 C2717 1.499 . S
C2720 C2721 1.373 . S
C2720 C2722 1.389 . S
C2721 H2700 0.950 . S
C2721 C2720 1.373 . S
C2721 C2737 1.377 . S
C2722 C2720 1.389 . S
C2722 C2723 1.524 . S
C2722 C2736 1.377 . S
C2723 C2722 1.524 . S
C2723 C2724 1.397 . S
C2723 C2728 1.363 . S
C2724 H2701 0.950 . S
C2724 C2723 1.397 . S
C2724 C2725 1.334 . S
C2725 H2702 0.950 . S
C2725 C2724 1.334 . S
C2725 C2726 1.287 . S
C2726 C2725 1.287 . S
C2726 C2727 1.524 . S
C2726 H2745 0.913 . S
C2727 H2703 0.950 . S
C2727 C2726 1.524 . S
C2727 C2728 1.415 . S
C2728 H2704 0.950 . S
C2728 C2723 1.363 . S
C2728 C2727 1.415 . S
C2729 H2705 0.951 . S
C2729 C2730 1.366 . S
C2729 C2731 1.388 . S
C2730 C2729 1.366 . S
C2730 C2734 1.385 . S
C2731 H2706 0.951 . S
C2731 C2729 1.388 . S
C2731 C2732 1.366 . S
C2732 C2731 1.366 . S
C2732 C2733 1.414 . S
C2732 C2735 1.499 . S
C2733 H2707 0.950 . S
C2733 C2732 1.414 . S
C2733 C2734 1.374 . S
C2734 H2708 0.950 . S
C2734 C2730 1.385 . S
C2734 C2733 1.374 . S
C2735 C2732 1.499 . S
C2735 C2736 1.373 . S
C2735 C2737 1.389 . S
C2736 H2709 0.950 . S
C2736 C2722 1.377 . S
C2736 C2735 1.373 . S
C2737 C2721 1.377 . S
C2737 C2735 1.389 . S
C2737 C2738 1.524 . S
C2738 C2737 1.524 . S
C2738 C2739 1.397 . S
C2738 C2743 1.363 . S
C2739 H2710 0.950 . S
C2739 C2738 1.397 . S
C2739 C2740 1.334 . S
C2740 H2711 0.950 . S
C2740 C2739 1.334 . S
C2740 C2741 1.287 . S
C2741 C2740 1.287 . S
C2741 C2742 1.524 . S
C2741 H2744 0.999 . S
C2742 H2712 0.950 . S
C2742 C2741 1.524 . S
C2742 C2743 1.415 . S
C2743 H2713 0.950 . S
C2743 C2738 1.363 . S
C2743 C2742 1.415 . S
H2744 C2741 0.999 . S
H2745 C2726 0.913 . S
H2746 C2764 0.951 . S
H2747 C2766 0.951 . S
H2748 C2768 0.950 . S
H2749 C2769 0.950 . S
H2750 C2771 0.950 . S
H2751 C2774 0.950 . S
H2752 C2775 0.950 . S
H2753 C2777 0.950 . S
H2754 C2778 0.950 . S
H2755 C2779 0.951 . S
H2756 C2781 0.951 . S
H2757 C2783 0.950 . S
H2758 C2784 0.950 1_655 S
H2759 C2786 0.950 . S
H2760 C2789 0.950 . S
H2761 C2790 0.950 . S
H2762 C2792 0.950 . S
H2763 C2793 0.950 . S
C2764 H2746 0.951 . S
C2764 C2765 1.366 . S
C2764 C2766 1.388 . S
C2765 C2764 1.366 . S
C2765 C2769 1.385 . S
C2766 H2747 0.951 . S
C2766 C2764 1.388 . S
C2766 C2767 1.366 . S
C2767 C2766 1.366 . S
C2767 C2768 1.414 . S
C2767 C2770 1.499 . S
C2768 H2748 0.950 . S
C2768 C2767 1.414 . S
C2768 C2769 1.374 . S
C2769 H2749 0.950 . S
C2769 C2765 1.385 . S
C2769 C2768 1.374 . S
C2770 C2767 1.499 . S
C2770 C2771 1.373 . S
C2770 C2772 1.389 . S
C2771 H2750 0.950 . S
C2771 C2770 1.373 . S
C2771 C2787 1.377 . S
C2772 C2770 1.389 . S
C2772 C2773 1.524 . S
C2772 C2786 1.377 . S
C2773 C2772 1.524 . S
C2773 C2774 1.397 . S
C2773 C2778 1.363 . S
C2774 H2751 0.950 . S
C2774 C2773 1.397 . S
C2774 C2775 1.334 . S
C2775 H2752 0.950 . S
C2775 C2774 1.334 . S
C2775 C2776 1.287 . S
C2776 C2775 1.287 . S
C2776 C2777 1.524 . S
C2776 H2795 0.913 . S
C2777 H2753 0.950 . S
C2777 C2776 1.524 . S
C2777 C2778 1.415 . S
C2778 H2754 0.950 . S
C2778 C2773 1.363 . S
C2778 C2777 1.415 . S
C2779 H2755 0.951 . S
C2779 C2780 1.366 . S
C2779 C2781 1.388 . S
C2780 C2779 1.366 . S
C2780 C2784 1.385 . S
C2781 H2756 0.951 . S
C2781 C2779 1.388 . S
C2781 C2782 1.366 . S
C2782 C2781 1.366 . S
C2782 C2783 1.414 . S
C2782 C2785 1.499 . S
C2783 H2757 0.950 . S
C2783 C2782 1.414 . S
C2783 C2784 1.374 . S
C2784 H2758 0.950 1_455 S
C2784 C2780 1.385 . S
C2784 C2783 1.374 . S
C2785 C2782 1.499 . S
C2785 C2786 1.373 . S
C2785 C2787 1.389 . S
C2786 H2759 0.950 . S
C2786 C2772 1.377 . S
C2786 C2785 1.373 . S
C2787 C2771 1.377 . S
C2787 C2785 1.389 . S
C2787 C2788 1.524 . S
C2788 C2787 1.524 . S
C2788 C2789 1.397 . S
C2788 C2793 1.363 . S
C2789 H2760 0.950 . S
C2789 C2788 1.397 . S
C2789 C2790 1.334 . S
C2790 H2761 0.950 . S
C2790 C2789 1.334 . S
C2790 C2791 1.287 . S
C2791 C2790 1.287 . S
C2791 C2792 1.524 . S
C2791 H2794 0.999 . S
C2792 H2762 0.950 . S
C2792 C2791 1.524 . S
C2792 C2793 1.415 . S
C2793 H2763 0.950 . S
C2793 C2788 1.363 . S
C2793 C2792 1.415 . S
H2794 C2791 0.999 . S
H2795 C2776 0.913 . S
H2796 C2814 0.951 . S
H2797 C2816 0.951 . S
H2798 C2818 0.950 . S
H2799 C2819 0.950 . S
H2800 C2821 0.950 . S
H2801 C2824 0.950 . S
H2802 C2825 0.950 . S
H2803 C2827 0.950 . S
H2804 C2828 0.950 . S
H2805 C2829 0.951 . S
H2806 C2831 0.951 . S
H2807 C2833 0.950 . S
H2808 C2834 0.950 . S
H2809 C2836 0.950 . S
H2810 C2839 0.950 . S
H2811 C2840 0.950 . S
H2812 C2842 0.950 . S
H2813 C2843 0.950 . S
C2814 H2796 0.951 . S
C2814 C2815 1.366 . S
C2814 C2816 1.388 . S
C2815 C2814 1.366 . S
C2815 C2819 1.385 . S
C2816 H2797 0.951 . S
C2816 C2814 1.388 . S
C2816 C2817 1.366 . S
C2817 C2816 1.366 . S
C2817 C2818 1.414 . S
C2817 C2820 1.499 . S
C2818 H2798 0.950 . S
C2818 C2817 1.414 . S
C2818 C2819 1.374 . S
C2819 H2799 0.950 . S
C2819 C2815 1.385 . S
C2819 C2818 1.374 . S
C2820 C2817 1.499 . S
C2820 C2821 1.373 . S
C2820 C2822 1.389 . S
C2821 H2800 0.950 . S
C2821 C2820 1.373 . S
C2821 C2837 1.377 . S
C2822 C2820 1.389 . S
C2822 C2823 1.524 . S
C2822 C2836 1.377 . S
C2823 C2822 1.524 . S
C2823 C2824 1.397 . S
C2823 C2828 1.363 . S
C2824 H2801 0.950 . S
C2824 C2823 1.397 . S
C2824 C2825 1.334 . S
C2825 H2802 0.950 . S
C2825 C2824 1.334 . S
C2825 C2826 1.287 . S
C2826 C2825 1.287 . S
C2826 C2827 1.524 . S
C2826 H2845 0.913 . S
C2827 H2803 0.950 . S
C2827 C2826 1.524 . S
C2827 C2828 1.415 . S
C2828 H2804 0.950 . S
C2828 C2823 1.363 . S
C2828 C2827 1.415 . S
C2829 H2805 0.951 . S
C2829 C2830 1.366 . S
C2829 C2831 1.388 . S
C2830 C2829 1.366 . S
C2830 C2834 1.385 . S
C2831 H2806 0.951 . S
C2831 C2829 1.388 . S
C2831 C2832 1.366 . S
C2832 C2831 1.366 . S
C2832 C2833 1.414 . S
C2832 C2835 1.499 . S
C2833 H2807 0.950 . S
C2833 C2832 1.414 . S
C2833 C2834 1.374 . S
C2834 H2808 0.950 . S
C2834 C2830 1.385 . S
C2834 C2833 1.374 . S
C2835 C2832 1.499 . S
C2835 C2836 1.373 . S
C2835 C2837 1.389 . S
C2836 H2809 0.950 . S
C2836 C2822 1.377 . S
C2836 C2835 1.373 . S
C2837 C2821 1.377 . S
C2837 C2835 1.389 . S
C2837 C2838 1.524 . S
C2838 C2837 1.524 . S
C2838 C2839 1.397 . S
C2838 C2843 1.363 . S
C2839 H2810 0.950 . S
C2839 C2838 1.397 . S
C2839 C2840 1.334 . S
C2840 H2811 0.950 . S
C2840 C2839 1.334 . S
C2840 C2841 1.287 . S
C2841 C2840 1.287 . S
C2841 C2842 1.524 . S
C2841 H2844 0.999 . S
C2842 H2812 0.950 . S
C2842 C2841 1.524 . S
C2842 C2843 1.415 . S
C2843 H2813 0.950 . S
C2843 C2838 1.363 . S
C2843 C2842 1.415 . S
H2844 C2841 0.999 . S
H2845 C2826 0.913 . S
H2846 C2864 0.951 . S
H2847 C2866 0.951 . S
H2848 C2868 0.950 . S
H2849 C2869 0.950 . S
H2850 C2871 0.950 . S
H2851 C2874 0.950 . S
H2852 C2875 0.950 . S
H2853 C2877 0.950 . S
H2854 C2878 0.950 . S
H2855 C2879 0.951 . S
H2856 C2881 0.951 . S
H2857 C2883 0.950 . S
H2858 C2884 0.950 . S
H2859 C2886 0.950 . S
H2860 C2889 0.950 . S
H2861 C2890 0.950 . S
H2862 C2892 0.960 . S
H2863 C2893 0.950 . S
C2864 H2846 0.951 . S
C2864 C2865 1.366 . S
C2864 C2866 1.388 . S
C2865 C2864 1.366 . S
C2865 C2869 1.385 . S
C2866 H2847 0.951 . S
C2866 C2864 1.388 . S
C2866 C2867 1.366 . S
C2867 C2866 1.366 . S
C2867 C2868 1.414 . S
C2867 C2870 1.499 . S
C2868 H2848 0.950 . S
C2868 C2867 1.414 . S
C2868 C2869 1.374 . S
C2869 H2849 0.950 . S
C2869 C2865 1.385 . S
C2869 C2868 1.374 . S
C2870 C2867 1.499 . S
C2870 C2871 1.373 . S
C2870 C2872 1.389 . S
C2871 H2850 0.950 . S
C2871 C2870 1.373 . S
C2871 C2887 1.377 . S
C2872 C2870 1.389 . S
C2872 C2873 1.524 . S
C2872 C2886 1.377 . S
C2873 C2872 1.524 . S
C2873 C2874 1.397 . S
C2873 C2878 1.363 . S
C2874 H2851 0.950 . S
C2874 C2873 1.397 . S
C2874 C2875 1.334 . S
C2875 H2852 0.950 . S
C2875 C2874 1.334 . S
C2875 C2876 1.287 . S
C2876 C2875 1.287 . S
C2876 C2877 1.524 . S
C2876 H2895 0.913 . S
C2877 H2853 0.950 . S
C2877 C2876 1.524 . S
C2877 C2878 1.415 . S
C2878 H2854 0.950 . S
C2878 C2873 1.363 . S
C2878 C2877 1.415 . S
C2879 H2855 0.951 . S
C2879 C2880 1.366 . S
C2879 C2881 1.388 . S
C2880 C2879 1.366 . S
C2880 C2884 1.385 . S
C2881 H2856 0.951 . S
C2881 C2879 1.388 . S
C2881 C2882 1.366 . S
C2882 C2881 1.366 . S
C2882 C2883 1.414 . S
C2882 C2885 1.499 . S
C2883 H2857 0.950 . S
C2883 C2882 1.414 . S
C2883 C2884 1.374 . S
C2884 H2858 0.950 . S
C2884 C2880 1.385 . S
C2884 C2883 1.374 . S
C2885 C2882 1.499 . S
C2885 C2886 1.373 . S
C2885 C2887 1.389 . S
C2886 H2859 0.950 . S
C2886 C2872 1.377 . S
C2886 C2885 1.373 . S
C2887 C2871 1.377 . S
C2887 C2885 1.389 . S
C2887 C2888 1.524 . S
C2888 C2887 1.524 . S
C2888 C2889 1.397 . S
C2888 C2893 1.363 . S
C2889 H2860 0.950 . S
C2889 C2888 1.397 . S
C2889 C2890 1.334 1_455 S
C2890 H2861 0.950 . S
C2890 C2889 1.334 1_655 S
C2890 C2891 1.287 . S
C2891 C2890 1.287 . S
C2891 C2892 1.534 . S
C2891 H2894 0.999 . S
C2892 H2862 0.960 . S
C2892 C2891 1.534 . S
C2892 C2893 1.393 1_655 S
C2893 H2863 0.950 . S
C2893 C2888 1.363 . S
C2893 C2892 1.393 1_455 S
H2894 C2891 0.999 . S
H2895 C2876 0.913 . S
H2896 C2914 0.951 . S
H2897 C2916 0.951 . S
H2898 C2918 0.950 . S
H2899 C2919 0.950 . S
H2900 C2921 0.950 . S
H2901 C2924 0.950 . S
H2902 C2925 0.950 . S
H2903 C2927 0.950 . S
H2904 C2928 0.950 . S
H2905 C2929 0.951 . S
H2906 C2931 0.951 . S
H2907 C2933 0.950 . S
H2908 C2934 0.950 . S
H2909 C2936 0.950 . S
H2910 C2939 0.950 . S
H2911 C2940 0.950 . S
H2912 C2942 0.950 . S
H2913 C2943 0.950 . S
C2914 H2896 0.951 . S
C2914 C2915 1.366 . S
C2914 C2916 1.388 . S
C2915 C2914 1.366 . S
C2915 C2919 1.385 . S
C2916 H2897 0.951 . S
C2916 C2914 1.388 . S
C2916 C2917 1.366 . S
C2917 C2916 1.366 . S
C2917 C2918 1.414 . S
C2917 C2920 1.499 . S
C2918 H2898 0.950 . S
C2918 C2917 1.414 . S
C2918 C2919 1.374 . S
C2919 H2899 0.950 . S
C2919 C2915 1.385 . S
C2919 C2918 1.374 . S
C2920 C2917 1.499 . S
C2920 C2921 1.373 . S
C2920 C2922 1.389 . S
C2921 H2900 0.950 . S
C2921 C2920 1.373 . S
C2921 C2937 1.377 . S
C2922 C2920 1.389 . S
C2922 C2923 1.524 . S
C2922 C2936 1.377 . S
C2923 C2922 1.524 . S
C2923 C2924 1.397 . S
C2923 C2928 1.363 . S
C2924 H2901 0.950 . S
C2924 C2923 1.397 . S
C2924 C2925 1.334 . S
C2925 H2902 0.950 . S
C2925 C2924 1.334 . S
C2925 C2926 1.287 . S
C2926 C2925 1.287 . S
C2926 C2927 1.524 . S
C2926 H2945 0.913 . S
C2927 H2903 0.950 . S
C2927 C2926 1.524 . S
C2927 C2928 1.415 . S
C2928 H2904 0.950 . S
C2928 C2923 1.363 . S
C2928 C2927 1.415 . S
C2929 H2905 0.951 . S
C2929 C2930 1.366 . S
C2929 C2931 1.388 . S
C2930 C2929 1.366 . S
C2930 C2934 1.385 . S
C2931 H2906 0.951 . S
C2931 C2929 1.388 . S
C2931 C2932 1.366 . S
C2932 C2931 1.366 . S
C2932 C2933 1.414 . S
C2932 C2935 1.499 . S
C2933 H2907 0.950 . S
C2933 C2932 1.414 . S
C2933 C2934 1.374 . S
C2934 H2908 0.950 . S
C2934 C2930 1.385 . S
C2934 C2933 1.374 . S
C2935 C2932 1.499 . S
C2935 C2936 1.373 . S
C2935 C2937 1.389 . S
C2936 H2909 0.950 . S
C2936 C2922 1.377 . S
C2936 C2935 1.373 . S
C2937 C2921 1.377 . S
C2937 C2935 1.389 . S
C2937 C2938 1.524 . S
C2938 C2937 1.524 . S
C2938 C2939 1.397 . S
C2938 C2943 1.363 . S
C2939 H2910 0.950 . S
C2939 C2938 1.397 . S
C2939 C2940 1.334 . S
C2940 H2911 0.950 . S
C2940 C2939 1.334 . S
C2940 C2941 1.287 . S
C2941 C2940 1.287 . S
C2941 C2942 1.524 . S
C2941 H2944 0.999 . S
C2942 H2912 0.950 . S
C2942 C2941 1.524 . S
C2942 C2943 1.415 . S
C2943 H2913 0.950 . S
C2943 C2938 1.363 . S
C2943 C2942 1.415 . S
H2944 C2941 0.999 . S
H2945 C2926 0.913 . S
H2946 C2964 0.951 . S
H2947 C2966 0.951 . S
H2948 C2968 0.950 . S
H2949 C2969 0.950 . S
H2950 C2971 0.950 . S
H2951 C2974 0.950 . S
H2952 C2975 0.950 . S
H2953 C2977 0.950 . S
H2954 C2978 0.950 . S
H2955 C2979 0.951 . S
H2956 C2981 0.951 . S
H2957 C2983 0.950 . S
H2958 C2984 0.950 . S
H2959 C2986 0.950 1_655 S
H2960 C2989 0.950 . S
H2961 C2990 0.950 1_655 S
H2962 C2992 0.950 . S
H2963 C2993 0.950 . S
C2964 H2946 0.951 . S
C2964 C2965 1.367 1_655 S
C2964 C2966 1.388 . S
C2965 C2964 1.367 1_455 S
C2965 C2969 1.384 . S
C2966 H2947 0.951 . S
C2966 C2964 1.388 . S
C2966 C2967 1.366 1_655 S
C2967 C2966 1.366 1_455 S
C2967 C2968 1.414 . S
C2967 C2970 1.499 . S
C2968 H2948 0.950 . S
C2968 C2967 1.414 . S
C2968 C2969 1.374 . S
C2969 H2949 0.950 . S
C2969 C2965 1.384 . S
C2969 C2968 1.374 . S
C2970 C2967 1.499 . S
C2970 C2971 1.373 1_565 S
C2970 C2972 1.389 . S
C2971 H2950 0.950 . S
C2971 C2970 1.373 1_545 S
C2971 C2987 1.377 . S
C2972 C2970 1.389 . S
C2972 C2973 1.524 1_455 S
C2972 C2986 1.377 . S
C2973 C2972 1.524 1_655 S
C2973 C2974 1.397 1_655 S
C2973 C2978 1.363 . S
C2974 H2951 0.950 . S
C2974 C2973 1.397 1_455 S
C2974 C2975 1.334 . S
C2975 H2952 0.950 . S
C2975 C2974 1.334 . S
C2975 C2976 1.287 1_455 S
C2976 C2975 1.287 1_655 S
C2976 C2977 1.524 . S
C2976 H2995 0.913 . S
C2977 H2953 0.950 . S
C2977 C2976 1.524 . S
C2977 C2978 1.415 . S
C2978 H2954 0.950 . S
C2978 C2973 1.363 . S
C2978 C2977 1.415 . S
C2979 H2955 0.951 . S
C2979 C2980 1.366 . S
C2979 C2981 1.388 . S
C2980 C2979 1.366 . S
C2980 C2984 1.385 1_455 S
C2981 H2956 0.951 . S
C2981 C2979 1.388 . S
C2981 C2982 1.366 . S
C2982 C2981 1.366 . S
C2982 C2983 1.414 1_455 S
C2982 C2985 1.499 . S
C2983 H2957 0.950 . S
C2983 C2982 1.414 1_655 S
C2983 C2984 1.374 . S
C2984 H2958 0.950 . S
C2984 C2980 1.385 1_655 S
C2984 C2983 1.374 . S
C2985 C2982 1.499 . S
C2985 C2986 1.373 1_545 S
C2985 C2987 1.389 . S
C2986 H2959 0.950 1_455 S
C2986 C2972 1.377 . S
C2986 C2985 1.373 1_565 S
C2987 C2971 1.377 . S
C2987 C2985 1.389 . S
C2987 C2988 1.524 . S
C2988 C2987 1.524 . S
C2988 C2989 1.397 1_455 S
C2988 C2993 1.363 . S
C2989 H2960 0.950 . S
C2989 C2988 1.397 1_655 S
C2989 C2990 1.334 1_655 S
C2990 H2961 0.950 1_455 S
C2990 C2989 1.334 1_455 S
C2990 C2991 1.287 . S
C2991 C2990 1.287 . S
C2991 C2992 1.524 . S
C2991 H2994 0.999 . S
C2992 H2962 0.950 . S
C2992 C2991 1.524 . S
C2992 C2993 1.415 . S
C2993 H2963 0.950 . S
C2993 C2988 1.363 . S
C2993 C2992 1.415 . S
H2994 C2991 0.999 . S
H2995 C2976 0.913 . S
H2996 C3014 0.951 . S
H2997 C3016 0.951 . S
H2998 C3018 0.950 . S
H2999 C3019 0.950 . S
H3000 C3021 0.950 . S
H3001 C3024 0.950 . S
H3002 C3025 0.950 . S
H3003 C3027 0.950 . S
H3004 C3028 0.950 . S
H3005 C3029 0.951 . S
H3006 C3031 0.951 . S
H3007 C3033 0.950 . S
H3008 C3034 0.950 . S
H3009 C3036 0.950 . S
H3010 C3039 0.950 . S
H3011 C3040 0.950 . S
H3012 C3042 0.950 . S
H3013 C3043 0.950 . S
C3014 H2996 0.951 . S
C3014 C3015 1.366 . S
C3014 C3016 1.388 . S
C3015 C3014 1.366 . S
C3015 C3019 1.385 . S
C3016 H2997 0.951 . S
C3016 C3014 1.388 . S
C3016 C3017 1.366 . S
C3017 C3016 1.366 . S
C3017 C3018 1.414 . S
C3017 C3020 1.499 . S
C3018 H2998 0.950 . S
C3018 C3017 1.414 . S
C3018 C3019 1.374 . S
C3019 H2999 0.950 . S
C3019 C3015 1.385 . S
C3019 C3018 1.374 . S
C3020 C3017 1.499 . S
C3020 C3021 1.373 . S
C3020 C3022 1.389 1_565 S
C3021 H3000 0.950 . S
C3021 C3020 1.373 . S
C3021 C3037 1.377 . S
C3022 C3020 1.389 1_545 S
C3022 C3023 1.524 . S
C3022 C3036 1.377 . S
C3023 C3022 1.524 . S
C3023 C3024 1.397 . S
C3023 C3028 1.363 . S
C3024 H3001 0.950 . S
C3024 C3023 1.397 . S
C3024 C3025 1.334 . S
C3025 H3002 0.950 . S
C3025 C3024 1.334 . S
C3025 C3026 1.287 . S
C3026 C3025 1.287 . S
C3026 C3027 1.524 . S
C3026 H3045 0.913 . S
C3027 H3003 0.950 . S
C3027 C3026 1.524 . S
C3027 C3028 1.415 . S
C3028 H3004 0.950 . S
C3028 C3023 1.363 . S
C3028 C3027 1.415 . S
C3029 H3005 0.951 . S
C3029 C3030 1.366 . S
C3029 C3031 1.388 . S
C3030 C3029 1.366 . S
C3030 C3034 1.385 . S
C3031 H3006 0.951 . S
C3031 C3029 1.388 . S
C3031 C3032 1.366 . S
C3032 C3031 1.366 . S
C3032 C3033 1.414 . S
C3032 C3035 1.499 . S
C3033 H3007 0.950 . S
C3033 C3032 1.414 . S
C3033 C3034 1.374 . S
C3034 H3008 0.950 . S
C3034 C3030 1.385 . S
C3034 C3033 1.374 . S
C3035 C3032 1.499 . S
C3035 C3036 1.373 . S
C3035 C3037 1.389 1_545 S
C3036 H3009 0.950 . S
C3036 C3022 1.377 . S
C3036 C3035 1.373 . S
C3037 C3021 1.377 . S
C3037 C3035 1.389 1_565 S
C3037 C3038 1.524 . S
C3038 C3037 1.524 . S
C3038 C3039 1.397 . S
C3038 C3043 1.363 . S
C3039 H3010 0.950 . S
C3039 C3038 1.397 . S
C3039 C3040 1.334 . S
C3040 H3011 0.950 . S
C3040 C3039 1.334 . S
C3040 C3041 1.287 . S
C3041 C3040 1.287 . S
C3041 C3042 1.524 . S
C3041 H3044 0.999 . S
C3042 H3012 0.950 . S
C3042 C3041 1.524 . S
C3042 C3043 1.415 . S
C3043 H3013 0.950 . S
C3043 C3038 1.363 . S
C3043 C3042 1.415 . S
H3044 C3041 0.999 . S
H3045 C3026 0.913 . S
H3046 C3064 0.961 . S
H3047 C3066 0.951 . S
H3048 C3068 0.950 . S
H3049 C3069 0.950 . S
H3050 C3071 0.950 . S
H3051 C3074 0.950 . S
H3052 C3075 0.950 . S
H3053 C3077 0.950 . S
H3054 C3078 0.950 . S
H3055 C3079 0.951 . S
H3056 C3081 0.951 . S
H3057 C3083 0.950 . S
H3058 C3084 0.950 . S
H3059 C3086 0.950 . S
H3060 C3089 0.950 . S
H3061 C3090 0.950 . S
H3062 C3092 0.950 . S
H3063 C3093 0.950 . S
C3064 H3046 0.961 . S
C3064 C3065 1.354 1_655 S
C3064 C3066 1.390 . S
C3065 C3064 1.354 1_455 S
C3065 C3069 1.385 . S
C3066 H3047 0.951 . S
C3066 C3064 1.390 . S
C3066 C3067 1.366 1_655 S
C3067 C3066 1.366 1_455 S
C3067 C3068 1.414 . S
C3067 C3070 1.499 . S
C3068 H3048 0.950 . S
C3068 C3067 1.414 . S
C3068 C3069 1.374 . S
C3069 H3049 0.950 . S
C3069 C3065 1.385 . S
C3069 C3068 1.374 . S
C3070 C3067 1.499 . S
C3070 C3071 1.373 . S
C3070 C3072 1.389 1_455 S
C3071 H3050 0.950 . S
C3071 C3070 1.373 . S
C3071 C3087 1.377 . S
C3072 C3070 1.389 1_655 S
C3072 C3073 1.524 . S
C3072 C3086 1.377 . S
C3073 C3072 1.524 . S
C3073 C3074 1.397 . S
C3073 C3078 1.363 . S
C3074 H3051 0.950 . S
C3074 C3073 1.397 . S
C3074 C3075 1.334 . S
C3075 H3052 0.950 . S
C3075 C3074 1.334 . S
C3075 C3076 1.287 . S
C3076 C3075 1.287 . S
C3076 C3077 1.524 . S
C3076 H3095 0.913 . S
C3077 H3053 0.950 . S
C3077 C3076 1.524 . S
C3077 C3078 1.415 . S
C3078 H3054 0.950 . S
C3078 C3073 1.363 . S
C3078 C3077 1.415 . S
C3079 H3055 0.951 . S
C3079 C3080 1.367 1_455 S
C3079 C3081 1.388 . S
C3080 C3079 1.367 1_655 S
C3080 C3084 1.384 . S
C3081 H3056 0.951 . S
C3081 C3079 1.388 . S
C3081 C3082 1.366 . S
C3082 C3081 1.366 . S
C3082 C3083 1.414 1_455 S
C3082 C3085 1.499 . S
C3083 H3057 0.950 . S
C3083 C3082 1.414 1_655 S
C3083 C3084 1.374 . S
C3084 H3058 0.950 . S
C3084 C3080 1.384 . S
C3084 C3083 1.374 . S
C3085 C3082 1.499 . S
C3085 C3086 1.373 1_455 S
C3085 C3087 1.389 . S
C3086 H3059 0.950 . S
C3086 C3072 1.377 . S
C3086 C3085 1.373 1_655 S
C3087 C3071 1.377 . S
C3087 C3085 1.389 . S
C3087 C3088 1.524 . S
C3088 C3087 1.524 . S
C3088 C3089 1.397 . S
C3088 C3093 1.363 . S
C3089 H3060 0.950 . S
C3089 C3088 1.397 . S
C3089 C3090 1.334 . S
C3090 H3061 0.950 . S
C3090 C3089 1.334 . S
C3090 C3091 1.287 . S
C3091 C3090 1.287 . S
C3091 C3092 1.524 . S
C3091 H3094 0.999 . S
C3092 H3062 0.950 . S
C3092 C3091 1.524 . S
C3092 C3093 1.415 . S
C3093 H3063 0.950 . S
C3093 C3088 1.363 . S
C3093 C3092 1.415 . S
H3094 C3091 0.999 . S
H3095 C3076 0.913 . S
H3096 C3114 0.951 . S
H3097 C3116 0.951 . S
H3098 C3118 0.950 . S
H3099 C3119 0.950 . S
H3100 C3121 0.950 . S
H3101 C3124 0.950 . S
H3102 C3125 0.950 . S
H3103 C3127 0.950 . S
H3104 C3128 0.950 . S
H3105 C3129 0.951 . S
H3106 C3131 0.951 . S
H3107 C3133 0.950 . S
H3108 C3134 0.950 . S
H3109 C3136 0.950 . S
H3110 C3139 0.950 . S
H3111 C3140 0.950 . S
H3112 C3142 0.950 . S
H3113 C3143 0.950 . S
C3114 H3096 0.951 . S
C3114 C3115 1.366 . S
C3114 C3116 1.388 . S
C3115 C3114 1.366 . S
C3115 C3119 1.385 . S
C3116 H3097 0.951 . S
C3116 C3114 1.388 . S
C3116 C3117 1.366 . S
C3117 C3116 1.366 . S
C3117 C3118 1.414 . S
C3117 C3120 1.499 . S
C3118 H3098 0.950 . S
C3118 C3117 1.414 . S
C3118 C3119 1.374 . S
C3119 H3099 0.950 . S
C3119 C3115 1.385 . S
C3119 C3118 1.374 . S
C3120 C3117 1.499 . S
C3120 C3121 1.373 . S
C3120 C3122 1.389 . S
C3121 H3100 0.950 . S
C3121 C3120 1.373 . S
C3121 C3137 1.377 . S
C3122 C3120 1.389 . S
C3122 C3123 1.524 . S
C3122 C3136 1.377 . S
C3123 C3122 1.524 . S
C3123 C3124 1.397 . S
C3123 C3128 1.363 . S
C3124 H3101 0.950 . S
C3124 C3123 1.397 . S
C3124 C3125 1.334 . S
C3125 H3102 0.950 . S
C3125 C3124 1.334 . S
C3125 C3126 1.287 . S
C3126 C3125 1.287 . S
C3126 C3127 1.524 . S
C3126 H3145 0.913 . S
C3127 H3103 0.950 . S
C3127 C3126 1.524 . S
C3127 C3128 1.415 . S
C3128 H3104 0.950 . S
C3128 C3123 1.363 . S
C3128 C3127 1.415 . S
C3129 H3105 0.951 . S
C3129 C3130 1.366 . S
C3129 C3131 1.388 . S
C3130 C3129 1.366 . S
C3130 C3134 1.385 . S
C3131 H3106 0.951 . S
C3131 C3129 1.388 . S
C3131 C3132 1.366 . S
C3132 C3131 1.366 . S
C3132 C3133 1.414 . S
C3132 C3135 1.499 . S
C3133 H3107 0.950 . S
C3133 C3132 1.414 . S
C3133 C3134 1.374 . S
C3134 H3108 0.950 . S
C3134 C3130 1.385 . S
C3134 C3133 1.374 . S
C3135 C3132 1.499 . S
C3135 C3136 1.373 . S
C3135 C3137 1.389 . S
C3136 H3109 0.950 . S
C3136 C3122 1.377 . S
C3136 C3135 1.373 . S
C3137 C3121 1.377 . S
C3137 C3135 1.389 . S
C3137 C3138 1.524 . S
C3138 C3137 1.524 . S
C3138 C3139 1.397 . S
C3138 C3143 1.363 . S
C3139 H3110 0.950 . S
C3139 C3138 1.397 . S
C3139 C3140 1.334 . S
C3140 H3111 0.950 . S
C3140 C3139 1.334 . S
C3140 C3141 1.287 . S
C3141 C3140 1.287 . S
C3141 C3142 1.524 . S
C3141 H3144 0.999 . S
C3142 H3112 0.950 . S
C3142 C3141 1.524 . S
C3142 C3143 1.415 . S
C3143 H3113 0.950 . S
C3143 C3138 1.363 . S
C3143 C3142 1.415 . S
H3144 C3141 0.999 . S
H3145 C3126 0.913 . S
H3146 C3164 0.951 . S
H3147 C3166 0.951 . S
H3148 C3168 0.950 . S
H3149 C3169 0.950 . S
H3150 C3171 0.950 . S
H3151 C3174 0.950 . S
H3152 C3175 0.950 . S
H3153 C3177 0.950 1_545 S
H3154 C3178 0.973 . S
H3155 C3179 0.951 . S
H3156 C3181 0.951 . S
H3157 C3183 0.950 . S
H3158 C3184 0.950 . S
H3159 C3186 0.950 . S
H3160 C3189 0.950 . S
H3161 C3190 0.950 . S
H3162 C3192 0.950 . S
H3163 C3193 0.950 1_565 S
C3164 H3146 0.951 . S
C3164 C3165 1.366 . S
C3164 C3166 1.388 . S
C3165 C3164 1.366 . S
C3165 C3169 1.385 . S
C3166 H3147 0.951 . S
C3166 C3164 1.388 . S
C3166 C3167 1.366 . S
C3167 C3166 1.366 . S
C3167 C3168 1.414 . S
C3167 C3170 1.499 . S
C3168 H3148 0.950 . S
C3168 C3167 1.414 . S
C3168 C3169 1.374 . S
C3169 H3149 0.950 . S
C3169 C3165 1.385 . S
C3169 C3168 1.374 . S
C3170 C3167 1.499 . S
C3170 C3171 1.373 . S
C3170 C3172 1.389 . S
C3171 H3150 0.950 . S
C3171 C3170 1.373 . S
C3171 C3187 1.377 1_565 S
C3172 C3170 1.389 . S
C3172 C3173 1.524 . S
C3172 C3186 1.377 1_565 S
C3173 C3172 1.524 . S
C3173 C3174 1.397 . S
C3173 C3178 1.349 1_565 S
C3174 H3151 0.950 . S
C3174 C3173 1.397 . S
C3174 C3175 1.334 . S
C3175 H3152 0.950 . S
C3175 C3174 1.334 . S
C3175 C3176 1.287 . S
C3176 C3175 1.287 . S
C3176 C3177 1.524 . S
C3176 H3195 0.913 . S
C3177 H3153 0.950 1_565 S
C3177 C3176 1.524 . S
C3177 C3178 1.407 1_565 S
C3178 H3154 0.973 . S
C3178 C3173 1.349 1_545 S
C3178 C3177 1.407 1_545 S
C3179 H3155 0.951 . S
C3179 C3180 1.366 . S
C3179 C3181 1.388 . S
C3180 C3179 1.366 . S
C3180 C3184 1.385 . S
C3181 H3156 0.951 . S
C3181 C3179 1.388 . S
C3181 C3182 1.366 . S
C3182 C3181 1.366 . S
C3182 C3183 1.414 . S
C3182 C3185 1.499 . S
C3183 H3157 0.950 . S
C3183 C3182 1.414 . S
C3183 C3184 1.374 . S
C3184 H3158 0.950 . S
C3184 C3180 1.385 . S
C3184 C3183 1.374 . S
C3185 C3182 1.499 . S
C3185 C3186 1.373 . S
C3185 C3187 1.389 . S
C3186 H3159 0.950 . S
C3186 C3172 1.377 1_545 S
C3186 C3185 1.373 . S
C3187 C3171 1.377 1_545 S
C3187 C3185 1.389 . S
C3187 C3188 1.524 . S
C3188 C3187 1.524 . S
C3188 C3189 1.397 . S
C3188 C3193 1.363 . S
C3189 H3160 0.950 . S
C3189 C3188 1.397 . S
C3189 C3190 1.334 . S
C3190 H3161 0.950 . S
C3190 C3189 1.334 . S
C3190 C3191 1.287 . S
C3191 C3190 1.287 . S
C3191 C3192 1.524 . S
C3191 H3194 0.999 . S
C3192 H3162 0.950 . S
C3192 C3191 1.524 . S
C3192 C3193 1.415 . S
C3193 H3163 0.950 1_545 S
C3193 C3188 1.363 . S
C3193 C3192 1.415 . S
H3194 C3191 0.999 . S
H3195 C3176 0.913 . S
H3196 C3214 0.951 . S
H3197 C3216 0.951 . S
H3198 C3218 0.950 . S
H3199 C3219 0.950 . S
H3200 C3221 0.950 . S
H3201 C3224 0.950 . S
H3202 C3225 0.950 . S
H3203 C3227 0.950 . S
H3204 C3228 0.950 . S
H3205 C3229 0.951 . S
H3206 C3231 0.951 . S
H3207 C3233 0.950 . S
H3208 C3234 0.950 . S
H3209 C3236 0.950 . S
H3210 C3239 0.950 . S
H3211 C3240 0.950 . S
H3212 C3242 0.950 . S
H3213 C3243 0.950 . S
C3214 H3196 0.951 . S
C3214 C3215 1.366 . S
C3214 C3216 1.388 . S
C3215 C3214 1.366 . S
C3215 C3219 1.385 . S
C3216 H3197 0.951 . S
C3216 C3214 1.388 . S
C3216 C3217 1.366 . S
C3217 C3216 1.366 . S
C3217 C3218 1.414 . S
C3217 C3220 1.499 . S
C3218 H3198 0.950 . S
C3218 C3217 1.414 . S
C3218 C3219 1.374 . S
C3219 H3199 0.950 . S
C3219 C3215 1.385 . S
C3219 C3218 1.374 . S
C3220 C3217 1.499 . S
C3220 C3221 1.373 1_455 S
C3220 C3222 1.389 . S
C3221 H3200 0.950 . S
C3221 C3220 1.373 1_655 S
C3221 C3237 1.377 . S
C3222 C3220 1.389 . S
C3222 C3223 1.524 . S
C3222 C3236 1.377 . S
C3223 C3222 1.524 . S
C3223 C3224 1.397 . S
C3223 C3228 1.363 . S
C3224 H3201 0.950 . S
C3224 C3223 1.397 . S
C3224 C3225 1.334 . S
C3225 H3202 0.950 . S
C3225 C3224 1.334 . S
C3225 C3226 1.287 . S
C3226 C3225 1.287 . S
C3226 C3227 1.524 . S
C3226 H3245 0.913 . S
C3227 H3203 0.950 . S
C3227 C3226 1.524 . S
C3227 C3228 1.415 . S
C3228 H3204 0.950 . S
C3228 C3223 1.363 . S
C3228 C3227 1.415 . S
C3229 H3205 0.951 . S
C3229 C3230 1.366 . S
C3229 C3231 1.388 . S
C3230 C3229 1.366 . S
C3230 C3234 1.385 1_455 S
C3231 H3206 0.951 . S
C3231 C3229 1.388 . S
C3231 C3232 1.366 . S
C3232 C3231 1.366 . S
C3232 C3233 1.414 1_455 S
C3232 C3235 1.499 . S
C3233 H3207 0.950 . S
C3233 C3232 1.414 1_655 S
C3233 C3234 1.374 . S
C3234 H3208 0.950 . S
C3234 C3230 1.385 1_655 S
C3234 C3233 1.374 . S
C3235 C3232 1.499 . S
C3235 C3236 1.373 . S
C3235 C3237 1.389 1_455 S
C3236 H3209 0.950 . S
C3236 C3222 1.377 . S
C3236 C3235 1.373 . S
C3237 C3221 1.377 . S
C3237 C3235 1.389 1_655 S
C3237 C3238 1.524 . S
C3238 C3237 1.524 . S
C3238 C3239 1.397 . S
C3238 C3243 1.363 . S
C3239 H3210 0.950 . S
C3239 C3238 1.397 . S
C3239 C3240 1.334 . S
C3240 H3211 0.950 . S
C3240 C3239 1.334 . S
C3240 C3241 1.287 . S
C3241 C3240 1.287 . S
C3241 C3242 1.524 . S
C3241 H3244 0.999 . S
C3242 H3212 0.950 . S
C3242 C3241 1.524 . S
C3242 C3243 1.415 . S
C3243 H3213 0.950 . S
C3243 C3238 1.363 . S
C3243 C3242 1.415 . S
H3244 C3241 0.999 . S
H3245 C3226 0.913 . S
H3246 C3264 0.951 . S
H3247 C3266 0.951 . S
H3248 C3268 0.950 . S
H3249 C3269 0.950 . S
H3250 C3271 0.950 . S
H3251 C3274 0.950 . S
H3252 C3275 0.950 . S
H3253 C3277 0.950 . S
H3254 C3278 0.950 . S
H3255 C3279 0.951 . S
H3256 C3281 0.951 . S
H3257 C3283 0.950 . S
H3258 C3284 0.950 . S
H3259 C3286 0.950 . S
H3260 C3289 0.950 . S
H3261 C3290 0.950 . S
H3262 C3292 0.950 . S
H3263 C3293 0.950 . S
C3264 H3246 0.951 . S
C3264 C3265 1.366 . S
C3264 C3266 1.388 . S
C3265 C3264 1.366 . S
C3265 C3269 1.385 . S
C3266 H3247 0.951 . S
C3266 C3264 1.388 . S
C3266 C3267 1.366 . S
C3267 C3266 1.366 . S
C3267 C3268 1.414 . S
C3267 C3270 1.499 . S
C3268 H3248 0.950 . S
C3268 C3267 1.414 . S
C3268 C3269 1.374 . S
C3269 H3249 0.950 . S
C3269 C3265 1.385 . S
C3269 C3268 1.374 . S
C3270 C3267 1.499 . S
C3270 C3271 1.373 . S
C3270 C3272 1.389 1_554 S
C3271 H3250 0.950 . S
C3271 C3270 1.373 . S
C3271 C3287 1.377 1_554 S
C3272 C3270 1.389 1_556 S
C3272 C3273 1.524 . S
C3272 C3286 1.377 . S
C3273 C3272 1.524 . S
C3273 C3274 1.397 1_556 S
C3273 C3278 1.363 . S
C3274 H3251 0.950 . S
C3274 C3273 1.397 1_554 S
C3274 C3275 1.334 . S
C3275 H3252 0.950 . S
C3275 C3274 1.334 . S
C3275 C3276 1.258 1_554 S
C3276 C3275 1.258 1_556 S
C3276 C3277 1.555 . S
C3276 H3295 0.909 1_556 S
C3277 H3253 0.950 . S
C3277 C3276 1.555 . S
C3277 C3278 1.415 . S
C3278 H3254 0.950 . S
C3278 C3273 1.363 . S
C3278 C3277 1.415 . S
C3279 H3255 0.951 . S
C3279 C3280 1.366 . S
C3279 C3281 1.388 . S
C3280 C3279 1.366 . S
C3280 C3284 1.385 . S
C3281 H3256 0.951 . S
C3281 C3279 1.388 . S
C3281 C3282 1.366 . S
C3282 C3281 1.366 . S
C3282 C3283 1.414 . S
C3282 C3285 1.499 . S
C3283 H3257 0.950 . S
C3283 C3282 1.414 . S
C3283 C3284 1.374 . S
C3284 H3258 0.950 . S
C3284 C3280 1.385 . S
C3284 C3283 1.374 . S
C3285 C3282 1.499 . S
C3285 C3286 1.373 . S
C3285 C3287 1.389 . S
C3286 H3259 0.950 . S
C3286 C3272 1.377 . S
C3286 C3285 1.373 . S
C3287 C3271 1.377 1_556 S
C3287 C3285 1.389 . S
C3287 C3288 1.524 . S
C3288 C3287 1.524 . S
C3288 C3289 1.397 . S
C3288 C3293 1.363 1_556 S
C3289 H3260 0.950 . S
C3289 C3288 1.397 . S
C3289 C3290 1.334 . S
C3290 H3261 0.950 . S
C3290 C3289 1.334 . S
C3290 C3291 1.287 . S
C3291 C3290 1.287 . S
C3291 C3292 1.524 1_556 S
C3291 H3294 0.999 . S
C3292 H3262 0.950 . S
C3292 C3291 1.524 1_554 S
C3292 C3293 1.415 . S
C3293 H3263 0.950 . S
C3293 C3288 1.363 1_554 S
C3293 C3292 1.415 . S
H3294 C3291 0.999 . S
H3295 C3276 0.909 1_554 S
H3296 C3314 0.951 1_655 S
H3297 C3316 0.956 . S
H3298 C3318 0.950 . S
H3299 C3319 0.950 . S
H3300 C3321 0.950 1_655 S
H3301 C3324 0.950 . S
H3302 C3325 0.950 . S
H3303 C3327 0.950 1_554 S
H3304 C3328 0.899 1_554 S
H3305 C3329 0.951 . S
H3306 C3331 0.951 . S
H3307 C3333 0.950 . S
H3308 C3334 0.950 . S
H3309 C3336 0.950 . S
H3310 C3339 0.950 1_554 S
H3311 C3340 0.950 1_554 S
H3312 C3342 0.950 . S
H3313 C3343 0.950 1_455 S
C3314 H3296 0.951 1_455 S
C3314 C3315 1.366 . S
C3314 C3316 1.387 1_455 S
C3315 C3314 1.366 . S
C3315 C3319 1.385 . S
C3316 H3297 0.956 . S
C3316 C3314 1.387 1_655 S
C3316 C3317 1.361 1_655 S
C3317 C3316 1.361 1_455 S
C3317 C3318 1.414 . S
C3317 C3320 1.499 . S
C3318 H3298 0.950 . S
C3318 C3317 1.414 . S
C3318 C3319 1.374 . S
C3319 H3299 0.950 . S
C3319 C3315 1.385 . S
C3319 C3318 1.374 . S
C3320 C3317 1.499 . S
C3320 C3321 1.373 . S
C3320 C3322 1.389 . S
C3321 H3300 0.950 1_455 S
C3321 C3320 1.373 . S
C3321 C3337 1.377 1_455 S
C3322 C3320 1.389 . S
C3322 C3323 1.524 . S
C3322 C3336 1.377 1_556 S
C3323 C3322 1.524 . S
C3323 C3324 1.397 . S
C3323 C3328 1.427 . S
C3324 H3301 0.950 . S
C3324 C3323 1.397 . S
C3324 C3325 1.334 . S
C3325 H3302 0.950 . S
C3325 C3324 1.334 . S
C3325 C3326 1.287 . S
C3326 C3325 1.287 . S
C3326 C3327 1.524 . S
C3326 H3345 0.913 . S
C3327 H3303 0.950 1_556 S
C3327 C3326 1.524 . S
C3327 C3328 1.412 . S
C3328 H3304 0.899 1_556 S
C3328 C3323 1.427 . S
C3328 C3327 1.412 . S
C3329 H3305 0.951 . S
C3329 C3330 1.365 . S
C3329 C3331 1.388 . S
C3330 C3329 1.365 . S
C3330 C3334 1.385 1_455 S
C3331 H3306 0.951 . S
C3331 C3329 1.388 . S
C3331 C3332 1.366 . S
C3332 C3331 1.366 . S
C3332 C3333 1.414 1_455 S
C3332 C3335 1.499 . S
C3333 H3307 0.950 . S
C3333 C3332 1.414 1_655 S
C3333 C3334 1.374 . S
C3334 H3308 0.950 . S
C3334 C3330 1.385 1_655 S
C3334 C3333 1.374 . S
C3335 C3332 1.499 . S
C3335 C3336 1.373 . S
C3335 C3337 1.389 1_454 S
C3336 H3309 0.950 . S
C3336 C3322 1.377 1_554 S
C3336 C3335 1.373 . S
C3337 C3321 1.377 1_655 S
C3337 C3335 1.389 1_656 S
C3337 C3338 1.524 . S
C3338 C3337 1.524 . S
C3338 C3339 1.397 . S
C3338 C3343 1.363 . S
C3339 H3310 0.950 1_556 S
C3339 C3338 1.397 . S
C3339 C3340 1.334 . S
C3340 H3311 0.950 1_556 S
C3340 C3339 1.334 . S
C3340 C3341 1.287 . S
C3341 C3340 1.287 . S
C3341 C3342 1.524 . S
C3341 H3344 0.999 . S
C3342 H3312 0.950 . S
C3342 C3341 1.524 . S
C3342 C3343 1.415 . S
C3343 H3313 0.950 1_655 S
C3343 C3338 1.363 . S
C3343 C3342 1.415 . S
H3344 C3341 0.999 . S
H3345 C3326 0.913 . S
H3346 C3364 0.951 . S
H3347 C3366 0.951 . S
H3348 C3368 0.950 . S
H3349 C3369 0.950 . S
H3350 C3371 0.950 . S
H3351 C3374 0.950 . S
H3352 C3375 0.950 . S
H3353 C3377 0.950 . S
H3354 C3378 0.950 . S
H3355 C3379 0.951 . S
H3356 C3381 0.951 . S
H3357 C3383 0.950 . S
H3358 C3384 0.950 . S
H3359 C3386 0.950 . S
H3360 C3389 0.950 . S
H3361 C3390 0.950 . S
H3362 C3392 0.950 . S
H3363 C3393 0.950 . S
C3364 H3346 0.951 . S
C3364 C3365 1.366 . S
C3364 C3366 1.388 . S
C3365 C3364 1.366 . S
C3365 C3369 1.385 . S
C3366 H3347 0.951 . S
C3366 C3364 1.388 . S
C3366 C3367 1.366 . S
C3367 C3366 1.366 . S
C3367 C3368 1.414 . S
C3367 C3370 1.499 . S
C3368 H3348 0.950 . S
C3368 C3367 1.414 . S
C3368 C3369 1.374 . S
C3369 H3349 0.950 . S
C3369 C3365 1.385 . S
C3369 C3368 1.374 . S
C3370 C3367 1.499 . S
C3370 C3371 1.373 . S
C3370 C3372 1.389 . S
C3371 H3350 0.950 . S
C3371 C3370 1.373 . S
C3371 C3387 1.377 . S
C3372 C3370 1.389 . S
C3372 C3373 1.524 . S
C3372 C3386 1.377 . S
C3373 C3372 1.524 . S
C3373 C3374 1.397 . S
C3373 C3378 1.363 . S
C3374 H3351 0.950 . S
C3374 C3373 1.397 . S
C3374 C3375 1.334 . S
C3375 H3352 0.950 . S
C3375 C3374 1.334 . S
C3375 C3376 1.287 . S
C3376 C3375 1.287 . S
C3376 C3377 1.524 . S
C3376 H3395 0.913 . S
C3377 H3353 0.950 . S
C3377 C3376 1.524 . S
C3377 C3378 1.415 . S
C3378 H3354 0.950 . S
C3378 C3373 1.363 . S
C3378 C3377 1.415 . S
C3379 H3355 0.951 . S
C3379 C3380 1.366 . S
C3379 C3381 1.388 . S
C3380 C3379 1.366 . S
C3380 C3384 1.385 . S
C3381 H3356 0.951 . S
C3381 C3379 1.388 . S
C3381 C3382 1.366 . S
C3382 C3381 1.366 . S
C3382 C3383 1.414 . S
C3382 C3385 1.499 . S
C3383 H3357 0.950 . S
C3383 C3382 1.414 . S
C3383 C3384 1.374 . S
C3384 H3358 0.950 . S
C3384 C3380 1.385 . S
C3384 C3383 1.374 . S
C3385 C3382 1.499 . S
C3385 C3386 1.373 . S
C3385 C3387 1.389 . S
C3386 H3359 0.950 . S
C3386 C3372 1.377 . S
C3386 C3385 1.373 . S
C3387 C3371 1.377 . S
C3387 C3385 1.389 . S
C3387 C3388 1.524 . S
C3388 C3387 1.524 . S
C3388 C3389 1.397 . S
C3388 C3393 1.363 . S
C3389 H3360 0.950 . S
C3389 C3388 1.397 . S
C3389 C3390 1.334 . S
C3390 H3361 0.950 . S
C3390 C3389 1.334 . S
C3390 C3391 1.287 . S
C3391 C3390 1.287 . S
C3391 C3392 1.524 . S
C3391 H3394 0.999 . S
C3392 H3362 0.950 . S
C3392 C3391 1.524 . S
C3392 C3393 1.415 . S
C3393 H3363 0.950 . S
C3393 C3388 1.363 . S
C3393 C3392 1.415 . S
H3394 C3391 0.999 . S
H3395 C3376 0.913 . S
H3396 C3414 0.951 . S
H3397 C3416 0.951 . S
H3398 C3418 0.950 . S
H3399 C3419 0.950 . S
H3400 C3421 0.950 . S
H3401 C3424 0.950 . S
H3402 C3425 0.950 . S
H3403 C3427 0.950 . S
H3404 C3428 0.950 . S
H3405 C3429 0.951 . S
H3406 C3431 0.951 . S
H3407 C3433 0.950 . S
H3408 C3434 0.950 . S
H3409 C3436 0.939 1_554 S
H3410 C3439 0.950 . S
H3411 C3440 0.950 . S
H3412 C3442 0.950 . S
H3413 C3443 0.950 1_556 S
C3414 H3396 0.951 . S
C3414 C3415 1.366 . S
C3414 C3416 1.388 . S
C3415 C3414 1.366 . S
C3415 C3419 1.385 . S
C3416 H3397 0.951 . S
C3416 C3414 1.388 . S
C3416 C3417 1.366 . S
C3417 C3416 1.366 . S
C3417 C3418 1.414 . S
C3417 C3420 1.499 . S
C3418 H3398 0.950 . S
C3418 C3417 1.414 . S
C3418 C3419 1.374 . S
C3419 H3399 0.950 . S
C3419 C3415 1.385 . S
C3419 C3418 1.374 . S
C3420 C3417 1.499 . S
C3420 C3421 1.373 . S
C3420 C3422 1.389 . S
C3421 H3400 0.950 . S
C3421 C3420 1.373 . S
C3421 C3437 1.377 1_556 S
C3422 C3420 1.389 . S
C3422 C3423 1.524 . S
C3422 C3436 1.413 . S
C3423 C3422 1.524 . S
C3423 C3424 1.397 . S
C3423 C3428 1.363 . S
C3424 H3401 0.950 . S
C3424 C3423 1.397 . S
C3424 C3425 1.334 . S
C3425 H3402 0.950 . S
C3425 C3424 1.334 . S
C3425 C3426 1.287 . S
C3426 C3425 1.287 . S
C3426 C3427 1.524 . S
C3426 H3445 0.913 . S
C3427 H3403 0.950 . S
C3427 C3426 1.524 . S
C3427 C3428 1.415 . S
C3428 H3404 0.950 . S
C3428 C3423 1.363 . S
C3428 C3427 1.415 . S
C3429 H3405 0.951 . S
C3429 C3430 1.366 . S
C3429 C3431 1.388 . S
C3430 C3429 1.366 . S
C3430 C3434 1.385 . S
C3431 H3406 0.951 . S
C3431 C3429 1.388 . S
C3431 C3432 1.366 . S
C3432 C3431 1.366 . S
C3432 C3433 1.414 . S
C3432 C3435 1.499 . S
C3433 H3407 0.950 . S
C3433 C3432 1.414 . S
C3433 C3434 1.374 . S
C3434 H3408 0.950 . S
C3434 C3430 1.385 . S
C3434 C3433 1.374 . S
C3435 C3432 1.499 . S
C3435 C3436 1.349 1_554 S
C3435 C3437 1.389 . S
C3436 H3409 0.939 1_556 S
C3436 C3422 1.413 . S
C3436 C3435 1.349 1_556 S
C3437 C3421 1.377 1_554 S
C3437 C3435 1.389 . S
C3437 C3438 1.524 . S
C3438 C3437 1.524 . S
C3438 C3439 1.397 . S
C3438 C3443 1.363 . S
C3439 H3410 0.950 . S
C3439 C3438 1.397 . S
C3439 C3440 1.334 . S
C3440 H3411 0.950 . S
C3440 C3439 1.334 . S
C3440 C3441 1.287 . S
C3441 C3440 1.287 . S
C3441 C3442 1.524 . S
C3441 H3444 0.999 . S
C3442 H3412 0.950 . S
C3442 C3441 1.524 . S
C3442 C3443 1.415 . S
C3443 H3413 0.950 1_554 S
C3443 C3438 1.363 . S
C3443 C3442 1.415 . S
H3444 C3441 0.999 . S
H3445 C3426 0.913 . S
H3446 C3464 0.951 . S
H3447 C3466 0.951 . S
H3448 C3468 0.950 . S
H3449 C3469 0.950 . S
H3450 C3471 0.950 . S
H3451 C3474 0.950 . S
H3452 C3475 0.950 . S
H3453 C3477 0.950 . S
H3454 C3478 0.950 . S
H3455 C3479 0.951 . S
H3456 C3481 0.951 . S
H3457 C3483 0.950 . S
H3458 C3484 0.950 . S
H3459 C3486 0.950 . S
H3460 C3489 0.950 . S
H3461 C3490 0.950 . S
H3462 C3492 0.950 . S
H3463 C3493 0.950 . S
C3464 H3446 0.951 . S
C3464 C3465 1.366 . S
C3464 C3466 1.388 . S
C3465 C3464 1.366 . S
C3465 C3469 1.385 . S
C3466 H3447 0.951 . S
C3466 C3464 1.388 . S
C3466 C3467 1.366 . S
C3467 C3466 1.366 . S
C3467 C3468 1.414 . S
C3467 C3470 1.499 . S
C3468 H3448 0.950 . S
C3468 C3467 1.414 . S
C3468 C3469 1.374 . S
C3469 H3449 0.950 . S
C3469 C3465 1.385 . S
C3469 C3468 1.374 . S
C3470 C3467 1.499 . S
C3470 C3471 1.373 . S
C3470 C3472 1.389 . S
C3471 H3450 0.950 . S
C3471 C3470 1.373 . S
C3471 C3487 1.377 . S
C3472 C3470 1.389 . S
C3472 C3473 1.524 . S
C3472 C3486 1.377 . S
C3473 C3472 1.524 . S
C3473 C3474 1.397 . S
C3473 C3478 1.363 . S
C3474 H3451 0.950 . S
C3474 C3473 1.397 . S
C3474 C3475 1.334 . S
C3475 H3452 0.950 . S
C3475 C3474 1.334 . S
C3475 C3476 1.287 . S
C3476 C3475 1.287 . S
C3476 C3477 1.524 . S
C3476 H3495 0.913 . S
C3477 H3453 0.950 . S
C3477 C3476 1.524 . S
C3477 C3478 1.415 . S
C3478 H3454 0.950 . S
C3478 C3473 1.363 . S
C3478 C3477 1.415 . S
C3479 H3455 0.951 . S
C3479 C3480 1.366 . S
C3479 C3481 1.388 . S
C3480 C3479 1.366 . S
C3480 C3484 1.385 . S
C3481 H3456 0.951 . S
C3481 C3479 1.388 . S
C3481 C3482 1.366 . S
C3482 C3481 1.366 . S
C3482 C3483 1.414 . S
C3482 C3485 1.499 . S
C3483 H3457 0.950 . S
C3483 C3482 1.414 . S
C3483 C3484 1.374 . S
C3484 H3458 0.950 . S
C3484 C3480 1.385 . S
C3484 C3483 1.374 . S
C3485 C3482 1.499 . S
C3485 C3486 1.373 . S
C3485 C3487 1.389 . S
C3486 H3459 0.950 . S
C3486 C3472 1.377 . S
C3486 C3485 1.373 . S
C3487 C3471 1.377 . S
C3487 C3485 1.389 . S
C3487 C3488 1.524 . S
C3488 C3487 1.524 . S
C3488 C3489 1.397 . S
C3488 C3493 1.363 . S
C3489 H3460 0.950 . S
C3489 C3488 1.397 . S
C3489 C3490 1.334 . S
C3490 H3461 0.950 . S
C3490 C3489 1.334 . S
C3490 C3491 1.287 . S
C3491 C3490 1.287 . S
C3491 C3492 1.524 . S
C3491 H3494 0.999 . S
C3492 H3462 0.950 . S
C3492 C3491 1.524 . S
C3492 C3493 1.415 . S
C3493 H3463 0.950 . S
C3493 C3488 1.363 . S
C3493 C3492 1.415 . S
H3494 C3491 0.999 . S
H3495 C3476 0.913 . S
H3496 C3514 0.951 . S
H3497 C3516 0.951 . S
H3498 C3518 0.950 . S
H3499 C3519 0.950 . S
H3500 C3521 0.950 . S
H3501 C3524 0.950 . S
H3502 C3525 0.950 . S
H3503 C3527 0.950 . S
H3504 C3528 0.950 . S
H3505 C3529 0.951 . S
H3506 C3531 0.951 . S
H3507 C3533 0.950 . S
H3508 C3534 0.950 . S
H3509 C3536 0.949 . S
H3510 C3539 0.950 . S
H3511 C3540 0.950 . S
H3512 C3542 1.003 . S
H3513 C3543 0.950 . S
C3514 H3496 0.951 . S
C3514 C3515 1.366 . S
C3514 C3516 1.388 . S
C3515 C3514 1.366 . S
C3515 C3519 1.385 . S
C3516 H3497 0.951 . S
C3516 C3514 1.388 . S
C3516 C3517 1.366 . S
C3517 C3516 1.366 . S
C3517 C3518 1.414 . S
C3517 C3520 1.499 . S
C3518 H3498 0.950 . S
C3518 C3517 1.414 . S
C3518 C3519 1.374 . S
C3519 H3499 0.950 . S
C3519 C3515 1.385 . S
C3519 C3518 1.374 . S
C3520 C3517 1.499 . S
C3520 C3521 1.373 . S
C3520 C3522 1.389 1_545 S
C3521 H3500 0.950 . S
C3521 C3520 1.373 . S
C3521 C3537 1.377 1_545 S
C3522 C3520 1.389 1_565 S
C3522 C3523 1.524 . S
C3522 C3536 1.377 . S
C3523 C3522 1.524 . S
C3523 C3524 1.397 . S
C3523 C3528 1.363 . S
C3524 H3501 0.950 . S
C3524 C3523 1.397 . S
C3524 C3525 1.334 . S
C3525 H3502 0.950 . S
C3525 C3524 1.334 . S
C3525 C3526 1.287 . S
C3526 C3525 1.287 . S
C3526 C3527 1.524 . S
C3526 H3545 0.913 . S
C3527 H3503 0.950 . S
C3527 C3526 1.524 . S
C3527 C3528 1.415 . S
C3528 H3504 0.950 . S
C3528 C3523 1.363 . S
C3528 C3527 1.415 . S
C3529 H3505 0.951 . S
C3529 C3530 1.366 . S
C3529 C3531 1.388 . S
C3530 C3529 1.366 . S
C3530 C3534 1.385 . S
C3531 H3506 0.951 . S
C3531 C3529 1.388 . S
C3531 C3532 1.366 . S
C3532 C3531 1.366 . S
C3532 C3533 1.414 . S
C3532 C3535 1.499 . S
C3533 H3507 0.950 . S
C3533 C3532 1.414 . S
C3533 C3534 1.374 . S
C3534 H3508 0.950 . S
C3534 C3530 1.385 . S
C3534 C3533 1.374 . S
C3535 C3532 1.499 . S
C3535 C3536 1.373 1_554 S
C3535 C3537 1.389 1_554 S
C3536 H3509 0.949 . S
C3536 C3522 1.377 . S
C3536 C3535 1.373 1_556 S
C3537 C3521 1.377 1_565 S
C3537 C3535 1.389 1_556 S
C3537 C3538 1.524 1_556 S
C3538 C3537 1.524 1_554 S
C3538 C3539 1.397 1_565 S
C3538 C3543 1.363 1_554 S
C3539 H3510 0.950 . S
C3539 C3538 1.397 1_545 S
C3539 C3540 1.334 . S
C3540 H3511 0.950 . S
C3540 C3539 1.334 . S
C3540 C3541 1.287 . S
C3541 C3540 1.287 . S
C3541 C3542 1.524 1_545 S
C3541 H3544 0.999 . S
C3542 H3512 1.003 . S
C3542 C3541 1.524 1_565 S
C3542 C3543 1.415 1_554 S
C3543 H3513 0.950 . S
C3543 C3538 1.363 1_556 S
C3543 C3542 1.415 1_556 S
H3544 C3541 0.999 . S
H3545 C3526 0.913 . S
H3546 C3564 0.951 . S
H3547 C3566 0.951 . S
H3548 C3568 0.950 . S
H3549 C3569 0.950 . S
H3550 C3571 0.950 . S
H3551 C3574 0.950 . S
H3552 C3575 0.950 . S
H3553 C3577 0.950 . S
H3554 C3578 0.950 . S
H3555 C3579 0.951 . S
H3556 C3581 0.951 . S
H3557 C3583 0.950 . S
H3558 C3584 0.950 . S
H3559 C3586 0.950 . S
H3560 C3589 0.950 . S
H3561 C3590 0.950 . S
H3562 C3592 0.950 . S
H3563 C3593 0.950 . S
C3564 H3546 0.951 . S
C3564 C3565 1.366 . S
C3564 C3566 1.388 . S
C3565 C3564 1.366 . S
C3565 C3569 1.385 . S
C3566 H3547 0.951 . S
C3566 C3564 1.388 . S
C3566 C3567 1.366 . S
C3567 C3566 1.366 . S
C3567 C3568 1.414 . S
C3567 C3570 1.499 . S
C3568 H3548 0.950 . S
C3568 C3567 1.414 . S
C3568 C3569 1.374 . S
C3569 H3549 0.950 . S
C3569 C3565 1.385 . S
C3569 C3568 1.374 . S
C3570 C3567 1.499 . S
C3570 C3571 1.373 . S
C3570 C3572 1.389 . S
C3571 H3550 0.950 . S
C3571 C3570 1.373 . S
C3571 C3587 1.377 . S
C3572 C3570 1.389 . S
C3572 C3573 1.524 . S
C3572 C3586 1.377 . S
C3573 C3572 1.524 . S
C3573 C3574 1.397 . S
C3573 C3578 1.363 . S
C3574 H3551 0.950 . S
C3574 C3573 1.397 . S
C3574 C3575 1.334 . S
C3575 H3552 0.950 . S
C3575 C3574 1.334 . S
C3575 C3576 1.287 . S
C3576 C3575 1.287 . S
C3576 C3577 1.524 . S
C3576 H3595 0.913 . S
C3577 H3553 0.950 . S
C3577 C3576 1.524 . S
C3577 C3578 1.415 . S
C3578 H3554 0.950 . S
C3578 C3573 1.363 . S
C3578 C3577 1.415 . S
C3579 H3555 0.951 . S
C3579 C3580 1.366 . S
C3579 C3581 1.388 . S
C3580 C3579 1.366 . S
C3580 C3584 1.385 . S
C3581 H3556 0.951 . S
C3581 C3579 1.388 . S
C3581 C3582 1.366 . S
C3582 C3581 1.366 . S
C3582 C3583 1.414 . S
C3582 C3585 1.499 . S
C3583 H3557 0.950 . S
C3583 C3582 1.414 . S
C3583 C3584 1.374 . S
C3584 H3558 0.950 . S
C3584 C3580 1.385 . S
C3584 C3583 1.374 . S
C3585 C3582 1.499 . S
C3585 C3586 1.373 . S
C3585 C3587 1.389 . S
C3586 H3559 0.950 . S
C3586 C3572 1.377 . S
C3586 C3585 1.373 . S
C3587 C3571 1.377 . S
C3587 C3585 1.389 . S
C3587 C3588 1.524 . S
C3588 C3587 1.524 . S
C3588 C3589 1.397 . S
C3588 C3593 1.363 . S
C3589 H3560 0.950 . S
C3589 C3588 1.397 . S
C3589 C3590 1.334 . S
C3590 H3561 0.950 . S
C3590 C3589 1.334 . S
C3590 C3591 1.287 . S
C3591 C3590 1.287 . S
C3591 C3592 1.524 . S
C3591 H3594 0.999 . S
C3592 H3562 0.950 . S
C3592 C3591 1.524 . S
C3592 C3593 1.415 . S
C3593 H3563 0.950 . S
C3593 C3588 1.363 . S
C3593 C3592 1.415 . S
H3594 C3591 0.999 . S
H3595 C3576 0.913 . S
H3596 C3614 0.951 . S
H3597 C3616 0.951 . S
H3598 C3618 0.950 . S
H3599 C3619 0.950 . S
H3600 C3621 0.950 . S
H3601 C3624 0.950 . S
H3602 C3625 0.950 . S
H3603 C3627 0.950 . S
H3604 C3628 0.950 . S
H3605 C3629 0.951 . S
H3606 C3631 0.951 . S
H3607 C3633 0.950 . S
H3608 C3634 0.950 . S
H3609 C3636 0.950 . S
H3610 C3639 0.950 . S
H3611 C3640 0.950 . S
H3612 C3642 0.950 . S
H3613 C3643 0.950 . S
C3614 H3596 0.951 . S
C3614 C3615 1.366 . S
C3614 C3616 1.388 . S
C3615 C3614 1.366 . S
C3615 C3619 1.385 . S
C3616 H3597 0.951 . S
C3616 C3614 1.388 . S
C3616 C3617 1.366 . S
C3617 C3616 1.366 . S
C3617 C3618 1.414 . S
C3617 C3620 1.499 . S
C3618 H3598 0.950 . S
C3618 C3617 1.414 . S
C3618 C3619 1.374 . S
C3619 H3599 0.950 . S
C3619 C3615 1.385 . S
C3619 C3618 1.374 . S
C3620 C3617 1.499 . S
C3620 C3621 1.373 . S
C3620 C3622 1.389 . S
C3621 H3600 0.950 . S
C3621 C3620 1.373 . S
C3621 C3637 1.377 . S
C3622 C3620 1.389 . S
C3622 C3623 1.524 . S
C3622 C3636 1.377 . S
C3623 C3622 1.524 . S
C3623 C3624 1.397 . S
C3623 C3628 1.363 . S
C3624 H3601 0.950 . S
C3624 C3623 1.397 . S
C3624 C3625 1.334 . S
C3625 H3602 0.950 . S
C3625 C3624 1.334 . S
C3625 C3626 1.287 . S
C3626 C3625 1.287 . S
C3626 C3627 1.524 . S
C3626 H3645 0.913 . S
C3627 H3603 0.950 . S
C3627 C3626 1.524 . S
C3627 C3628 1.415 . S
C3628 H3604 0.950 . S
C3628 C3623 1.363 . S
C3628 C3627 1.415 . S
C3629 H3605 0.951 . S
C3629 C3630 1.366 . S
C3629 C3631 1.388 . S
C3630 C3629 1.366 . S
C3630 C3634 1.385 . S
C3631 H3606 0.951 . S
C3631 C3629 1.388 . S
C3631 C3632 1.366 . S
C3632 C3631 1.366 . S
C3632 C3633 1.414 . S
C3632 C3635 1.499 . S
C3633 H3607 0.950 . S
C3633 C3632 1.414 . S
C3633 C3634 1.374 . S
C3634 H3608 0.950 . S
C3634 C3630 1.385 . S
C3634 C3633 1.374 . S
C3635 C3632 1.499 . S
C3635 C3636 1.373 . S
C3635 C3637 1.389 . S
C3636 H3609 0.950 . S
C3636 C3622 1.377 . S
C3636 C3635 1.373 . S
C3637 C3621 1.377 . S
C3637 C3635 1.389 . S
C3637 C3638 1.524 . S
C3638 C3637 1.524 . S
C3638 C3639 1.397 . S
C3638 C3643 1.363 . S
C3639 H3610 0.950 . S
C3639 C3638 1.397 . S
C3639 C3640 1.334 . S
C3640 H3611 0.950 . S
C3640 C3639 1.334 . S
C3640 C3641 1.287 . S
C3641 C3640 1.287 . S
C3641 C3642 1.524 . S
C3641 H3644 0.999 . S
C3642 H3612 0.950 . S
C3642 C3641 1.524 . S
C3642 C3643 1.415 . S
C3643 H3613 0.950 . S
C3643 C3638 1.363 . S
C3643 C3642 1.415 . S
H3644 C3641 0.999 . S
H3645 C3626 0.913 . S
H3646 C3664 0.951 . S
H3647 C3666 0.951 . S
H3648 C3668 0.950 . S
H3649 C3669 0.950 . S
H3650 C3671 0.950 . S
H3651 C3674 0.950 . S
H3652 C3675 0.950 . S
H3653 C3677 0.950 . S
H3654 C3678 0.950 . S
H3655 C3679 0.951 . S
H3656 C3681 0.951 . S
H3657 C3683 0.950 . S
H3658 C3684 0.950 . S
H3659 C3686 0.950 . S
H3660 C3689 0.950 . S
H3661 C3690 0.950 . S
H3662 C3692 0.950 . S
H3663 C3693 0.950 . S
C3664 H3646 0.951 . S
C3664 C3665 1.366 . S
C3664 C3666 1.388 . S
C3665 C3664 1.366 . S
C3665 C3669 1.385 . S
C3666 H3647 0.951 . S
C3666 C3664 1.388 . S
C3666 C3667 1.366 . S
C3667 C3666 1.366 . S
C3667 C3668 1.414 . S
C3667 C3670 1.499 . S
C3668 H3648 0.950 . S
C3668 C3667 1.414 . S
C3668 C3669 1.374 . S
C3669 H3649 0.950 . S
C3669 C3665 1.385 . S
C3669 C3668 1.374 . S
C3670 C3667 1.499 . S
C3670 C3671 1.373 . S
C3670 C3672 1.389 . S
C3671 H3650 0.950 . S
C3671 C3670 1.373 . S
C3671 C3687 1.377 . S
C3672 C3670 1.389 . S
C3672 C3673 1.524 . S
C3672 C3686 1.377 . S
C3673 C3672 1.524 . S
C3673 C3674 1.397 . S
C3673 C3678 1.363 . S
C3674 H3651 0.950 . S
C3674 C3673 1.397 . S
C3674 C3675 1.334 . S
C3675 H3652 0.950 . S
C3675 C3674 1.334 . S
C3675 C3676 1.287 . S
C3676 C3675 1.287 . S
C3676 C3677 1.524 . S
C3676 H3695 0.913 . S
C3677 H3653 0.950 . S
C3677 C3676 1.524 . S
C3677 C3678 1.415 . S
C3678 H3654 0.950 . S
C3678 C3673 1.363 . S
C3678 C3677 1.415 . S
C3679 H3655 0.951 . S
C3679 C3680 1.366 . S
C3679 C3681 1.388 . S
C3680 C3679 1.366 . S
C3680 C3684 1.385 . S
C3681 H3656 0.951 . S
C3681 C3679 1.388 . S
C3681 C3682 1.366 . S
C3682 C3681 1.366 . S
C3682 C3683 1.414 . S
C3682 C3685 1.499 . S
C3683 H3657 0.950 . S
C3683 C3682 1.414 . S
C3683 C3684 1.374 . S
C3684 H3658 0.950 . S
C3684 C3680 1.385 . S
C3684 C3683 1.374 . S
C3685 C3682 1.499 . S
C3685 C3686 1.373 . S
C3685 C3687 1.389 . S
C3686 H3659 0.950 . S
C3686 C3672 1.377 . S
C3686 C3685 1.373 . S
C3687 C3671 1.377 . S
C3687 C3685 1.389 . S
C3687 C3688 1.524 . S
C3688 C3687 1.524 . S
C3688 C3689 1.397 . S
C3688 C3693 1.363 . S
C3689 H3660 0.950 . S
C3689 C3688 1.397 . S
C3689 C3690 1.334 . S
C3690 H3661 0.950 . S
C3690 C3689 1.334 . S
C3690 C3691 1.287 . S
C3691 C3690 1.287 . S
C3691 C3692 1.524 . S
C3691 H3694 0.999 . S
C3692 H3662 0.950 . S
C3692 C3691 1.524 . S
C3692 C3693 1.415 . S
C3693 H3663 0.950 . S
C3693 C3688 1.363 . S
C3693 C3692 1.415 . S
H3694 C3691 0.999 . S
H3695 C3676 0.913 . S
C515 C2 0.526 . S
C530 C374 0.543 . S
C565 C29 0.545 . S
C580 C401 0.528 . S
C615 C60 0.528 . S
C630 C405 0.545 . S
C665 C33 0.545 . S
C680 C432 0.528 . S
C715 C464 1.633 . S
C730 C81 1.615 . S
C765 C92 1.633 1_455 S
C780 C453 1.616 . S
C815 C93 1.616 . S
C830 C475 1.633 . S
C865 C103 1.633 1_455 S
C880 C465 1.616 . S
C915 C277 0.542 . S
C930 C126 0.525 . S
C965 C250 0.528 . S
C980 C153 0.544 . S
C1015 C308 0.543 . S
C1030 C184 0.527 . S
C1065 C281 0.529 . S
C1080 C157 0.545 . S
C1115 C340 1.633 . S
C1130 C205 1.616 . S
C1165 C216 1.633 1_455 S
C1180 C329 1.616 . S
C1215 C351 1.633 . S
C1230 C236 1.616 . S
C1265 C247 1.633 1_455 S
C1280 C341 1.616 . S
C1315 C30 1.657 1_565 S
C1330 C372 1.622 . S
C1365 C19 1.622 1_655 S
C1380 C382 1.657 . S
C1415 C41 1.657 . S
C1430 C403 1.622 . S
C1465 C413 1.657 . S
C1480 C31 1.622 1_655 S
C1515 C434 1.615 . S
C1530 C72 1.647 . S
C1565 C444 1.648 . S
C1580 C62 1.615 1_455 S
C1615 C484 1.615 . S
C1630 C123 1.647 . S
C1665 C495 1.648 . S
C1680 C112 1.616 1_455 S
C1715 C154 1.657 . S
C1730 C267 1.622 . S
C1765 C143 1.622 1_655 S
C1780 C278 1.657 1_565 S
C1815 C165 1.656 . S
C1830 C298 1.621 . S
C1865 C155 1.622 1_655 S
C1880 C309 1.657 . S
C1915 C310 1.615 . S
C1930 C196 1.648 . S
C1965 C320 1.648 . S
C1980 C186 1.615 1_455 S
C2015 C360 1.616 . S
C2030 C227 1.648 . S
C2065 C217 1.616 1_455 S
C2080 C371 1.648 . S
C2115 C10 1.651 . S
C2130 C299 1.682 . S
C2165 C289 1.651 . S
C2180 C20 1.682 . S
C2215 C268 1.683 . S
C2230 C61 1.652 . S
C2265 C258 1.652 . S
C2280 C32 1.683 . S
C2315 C361 1.883 . S
C2330 C64 1.892 . S
C2365 C63 1.882 1_455 S
C2380 C370 1.891 . S
C2415 C122 1.891 . S
C2430 C311 1.882 . S
C2465 C113 1.882 1_455 S
C2480 C312 1.892 . S
C2515 C404 1.683 . S
C2530 C134 1.651 . S
C2565 C144 1.683 . S
C2580 C433 1.651 . S
C2615 C185 1.651 . S
C2630 C373 1.683 . S
C2665 C402 1.652 . S
C2680 C156 1.683 . S
C2715 C485 1.882 . S
C2730 C188 1.891 . S
C2765 C494 1.892 . S
C2780 C187 1.883 1_455 S
C2815 C435 1.883 . S
C2830 C219 1.892 . S
C2865 C436 1.892 . S
C2880 C218 1.883 1_455 S
C2915 C454 1.202 . S
C2930 C1 1.202 . S
C2965 C91 1.685 1_455 S
C2980 C0 1.836 . S
C3015 C342 1.202 . S
C3030 C51 1.202 . S
C3065 C50 1.835 . S
C3080 C246 1.683 . S
C3115 C392 1.200 . S
C3130 C82 1.202 . S
C3165 C94 1.203 . S
C3180 C280 1.201 . S
C3215 C174 1.835 . S
C3230 C95 1.685 1_455 S
C3265 C330 1.202 . S
C3280 C125 1.201 . S
C3315 C124 1.835 . S
C3330 C215 1.685 1_455 S
C3365 C175 1.201 . S
C3380 C466 1.202 . S
C3415 C249 1.203 . S
C3430 C206 1.204 . S
C3465 C423 1.202 . S
C3480 C237 1.203 . S
C3515 C248 1.834 . S
C3530 C339 1.685 . S
C3565 C279 1.834 . S
C3580 C467 1.683 . S
C3615 C422 1.836 . S
C3630 C343 1.685 . S
C3665 C463 1.684 . S
C3680 C391 1.835 . S
