# Generated by pormake.
# Topology afw, (4)-cn, num edge types: 1
# Building blocks:
#     Node 0, Type 0, BuildingBlock: QUQFOY_clean_sbu_3, # of connection points: 4
#     Node 1, Type 0, BuildingBlock: QUQFOY_clean_sbu_3, # of connection points: 4
#     Node 2, Type 0, BuildingBlock: QUQFOY_clean_sbu_3, # of connection points: 4
#     Node 3, Type 0, BuildingBlock: QUQFOY_clean_sbu_3, # of connection points: 4
#     Node 4, Type 0, BuildingBlock: QUQFOY_clean_sbu_3, # of connection points: 4
#     Node 5, Type 0, BuildingBlock: QUQFOY_clean_sbu_3, # of connection points: 4
#     Node 6, Type 0, BuildingBlock: QUQFOY_clean_sbu_3, # of connection points: 4
#     Node 7, Type 0, BuildingBlock: QUQFOY_clean_sbu_3, # of connection points: 4
#     Node 8, Type 0, BuildingBlock: QUQFOY_clean_sbu_3, # of connection points: 4
#     Edge 9, Type (0, 0), BuildingBlock: KIFKEQ_clean_linker_1, # of connection points: 2
#     Edge 10, Type (0, 0), BuildingBlock: KIFKEQ_clean_linker_1, # of connection points: 2
#     Edge 11, Type (0, 0), BuildingBlock: KIFKEQ_clean_linker_1, # of connection points: 2
#     Edge 12, Type (0, 0), BuildingBlock: KIFKEQ_clean_linker_1, # of connection points: 2
#     Edge 13, Type (0, 0), BuildingBlock: KIFKEQ_clean_linker_1, # of connection points: 2
#     Edge 14, Type (0, 0), BuildingBlock: KIFKEQ_clean_linker_1, # of connection points: 2
#     Edge 15, Type (0, 0), BuildingBlock: KIFKEQ_clean_linker_1, # of connection points: 2
#     Edge 16, Type (0, 0), BuildingBlock: KIFKEQ_clean_linker_1, # of connection points: 2
#     Edge 17, Type (0, 0), BuildingBlock: KIFKEQ_clean_linker_1, # of connection points: 2
#     Edge 18, Type (0, 0), BuildingBlock: KIFKEQ_clean_linker_1, # of connection points: 2
#     Edge 19, Type (0, 0), BuildingBlock: KIFKEQ_clean_linker_1, # of connection points: 2
#     Edge 20, Type (0, 0), BuildingBlock: KIFKEQ_clean_linker_1, # of connection points: 2
#     Edge 21, Type (0, 0), BuildingBlock: KIFKEQ_clean_linker_1, # of connection points: 2
#     Edge 22, Type (0, 0), BuildingBlock: KIFKEQ_clean_linker_1, # of connection points: 2
#     Edge 23, Type (0, 0), BuildingBlock: KIFKEQ_clean_linker_1, # of connection points: 2
#     Edge 24, Type (0, 0), BuildingBlock: KIFKEQ_clean_linker_1, # of connection points: 2
#     Edge 25, Type (0, 0), BuildingBlock: KIFKEQ_clean_linker_1, # of connection points: 2
#     Edge 26, Type (0, 0), BuildingBlock: KIFKEQ_clean_linker_1, # of connection points: 2
# Relax obj value: 0.197
# Max RMSD: 0.207
# Mean RMSD: 0.200
data_MOF--net-afw--node1-QUQFOY_clean_sbu_3--edge1-KIFKEQ_clean_linker_1
_symmetry_space_group_name_H-M    P1
_symmetry_Int_Tables_number       1
_symmetry_cell_setting            triclinic
loop_
_symmetry_equiv_pos_as_xyz
'x, y, z'
_cell_length_a     44.722207
_cell_length_b     45.070749
_cell_length_c     33.813237
_cell_angle_alpha  91.423319
_cell_angle_beta   91.095539
_cell_angle_gamma 119.92144
loop_
_atom_site_label
_atom_site_type_symbol
_atom_site_fract_x
_atom_site_fract_y
_atom_site_fract_z
_atom_type_partial_charge
C0 C 0.09132 0.1974 0.09753 0.0
O1 O 0.08044 0.19445 0.13244 0.0
Cd2 Cd 0.03629 0.20636 0.15198 0.0
O3 O 0.07998 0.20897 0.07064 0.0
Cd4 Cd 0.03874 0.23077 0.06635 0.0
C5 C 0.97251 0.15201 0.08535 0.0
O6 O 0.05189 0.26241 0.13042 0.0
O7 O 0.00597 0.25359 0.09791 0.0
O8 O 0.07912 0.27619 0.02496 0.0
C9 C 0.02738 0.26873 0.12659 0.0
O10 O -0.0165 0.15899 0.12128 0.0
C11 C 0.05638 0.2724 -0.00088 0.0
O12 O -0.01145 0.17304 0.05857 0.0
O13 O 0.02588 0.24792 0.00338 0.0
C14 C 0.86337 0.84144 0.9805 0.0
O15 O 0.85499 0.84508 0.94562 0.0
Cd16 Cd 0.80379 0.84643 0.9302 0.0
O17 O 0.84309 0.83583 0.00897 0.0
Cd18 Cd 0.78317 0.82474 0.01933 0.0
C19 C 0.81317 0.90799 0.00066 0.0
O20 O 0.76202 0.79395 0.95675 0.0
O21 O 0.72574 0.80409 -0.01364 0.0
O22 O 0.78159 0.78153 0.06197 0.0
C23 C 0.73176 0.78919 0.95793 0.0
O24 O 0.8142 0.89932 0.96479 0.0
C25 C 0.76159 0.78328 0.08684 0.0
O26 O 0.80302 0.88591 0.02738 0.0
O27 O 0.75281 0.80574 0.08155 0.0
C28 C 0.11587 0.93322 0.01826 0.0
O29 O 0.12937 0.93848 0.05296 0.0
Cd30 Cd 0.18897 0.97902 0.06846 0.0
O31 O 0.13427 0.94836 -0.01099 0.0
Cd32 Cd 0.19499 -0.01132 0.97431 0.0
C33 C 0.19058 0.04981 0.02958 0.0
O34 O 0.22102 0.96754 0.02124 0.0
O35 O 0.25576 0.01536 -0.00465 0.0
O36 O 0.18682 0.95331 0.91526 0.0
C37 C 0.25172 -0.00847 0.01761 0.0
O38 O 0.19337 0.0348 0.05971 0.0
C39 C 0.20261 0.97824 0.89272 0.0
O40 O 0.18834 0.03737 -0.00532 0.0
O41 O 0.21316 0.0081 0.9077 0.0
C42 C 0.57327 0.43969 0.25142 0.0
O43 O 0.5805 0.45316 0.21789 0.0
Cd44 Cd 0.62773 0.5109 0.21241 0.0
O45 O 0.58666 0.45823 0.28286 0.0
Cd46 Cd 0.62382 0.51987 0.30178 0.0
C47 C 0.6883 0.50788 0.27431 0.0
O48 O 0.62181 0.55444 0.24744 0.0
O49 O 0.66708 0.57704 0.28695 0.0
O50 O 0.58026 0.52363 0.33948 0.0
C51 C 0.65024 0.58073 0.25877 0.0
O52 O 0.67783 0.50901 0.23936 0.0
C53 C 0.59713 0.53161 0.37236 0.0
O54 O 0.67242 0.50974 0.30432 0.0
O55 O 0.62616 0.53282 0.37282 0.0
C56 C 0.57549 0.14605 0.23955 0.0
O57 O 0.56462 0.14225 0.20378 0.0
Cd58 Cd 0.50727 0.12906 0.18503 0.0
O59 O 0.55494 0.13967 0.26785 0.0
Cd60 Cd 0.49264 0.11682 0.27841 0.0
C61 C 0.50261 0.19109 0.24367 0.0
O62 O 0.46912 0.07967 0.21931 0.0
O63 O 0.43397 0.09039 0.25127 0.0
O64 O 0.49101 0.07323 0.32025 0.0
C65 C 0.43866 0.07422 0.22312 0.0
O66 O 0.50462 0.17906 0.20993 0.0
C67 C 0.47848 0.08049 0.34982 0.0
O68 O 0.49926 0.17449 0.2749 0.0
O69 O 0.47424 0.10629 0.34724 0.0
C70 C 0.86095 0.42977 0.29768 0.0
O71 O 0.8729 0.42595 0.26535 0.0
Cd72 Cd 0.89397 0.38668 0.25532 0.0
O73 O 0.86198 0.41442 0.32838 0.0
Cd74 Cd 0.88371 0.3765 0.35004 0.0
C75 C 0.82364 0.31393 0.28804 0.0
O76 O 0.93387 0.39767 0.30917 0.0
O77 O 0.9211 0.35215 0.34063 0.0
O78 O 0.90525 0.41068 0.41128 0.0
C79 C 0.94096 0.37451 0.31723 0.0
O80 O 0.84186 0.33041 0.25926 0.0
C81 C 0.89156 0.38527 0.43356 0.0
O82 O 0.83252 0.32562 0.32357 0.0
O83 O 0.87309 0.35584 0.41682 0.0
C84 C 0.39307 0.85899 0.69691 0.0
O85 O 0.38395 0.86578 0.72968 0.0
Cd86 Cd 0.33449 0.87358 0.73295 0.0
O87 O 0.37986 0.86163 0.66445 0.0
Cd88 Cd 0.34035 0.88073 0.63911 0.0
C89 C 0.27999 0.80408 0.67043 0.0
O90 O 0.33955 0.91777 0.69191 0.0
O91 O 0.29549 0.89491 0.65068 0.0
O92 O 0.38735 0.92731 0.60722 0.0
C93 C 0.31109 0.91513 0.68026 0.0
O94 O 0.28846 0.81894 0.7047 0.0
C95 C 0.37405 0.91935 0.57238 0.0
O96 O 0.29579 0.81973 0.63985 0.0
O97 O 0.34484 0.89202 0.56777 0.0
C98 C 0.17196 0.4714 0.65761 0.0
O99 O 0.15848 0.46741 0.62311 0.0
Cd100 Cd 0.10655 0.47121 0.61689 0.0
O101 O 0.15637 0.47358 0.6876 0.0
Cd102 Cd 0.10393 0.47036 0.71218 0.0
C103 C 0.13465 0.54746 0.6718 0.0
O104 O 0.06444 0.43228 0.66068 0.0
O105 O 0.04531 0.4585 0.69771 0.0
O106 O 0.10871 0.42908 0.75078 0.0
C107 C 0.03968 0.43711 0.66944 0.0
O108 O 0.12626 0.53057 0.63874 0.0
C109 C 0.10104 0.43727 0.78359 0.0
O110 O 0.13089 0.53241 0.70437 0.0
O111 O 0.09465 0.46185 0.78393 0.0
C112 C 0.42188 0.57577 0.71247 0.0
O113 O 0.43035 0.58339 0.74894 0.0
Cd114 Cd 0.48328 0.63373 0.77098 0.0
O115 O 0.44309 0.59235 0.686 0.0
Cd116 Cd 0.50351 0.63705 0.67871 0.0
C117 C 0.48051 0.69409 0.71108 0.0
O118 O 0.53005 0.63294 0.74005 0.0
O119 O 0.56009 0.67796 0.70629 0.0
O120 O 0.51282 0.59674 0.64053 0.0
C121 C 0.55783 0.66121 0.73677 0.0
O122 O 0.47859 0.68131 0.7448 0.0
C123 C 0.52126 0.61351 0.60916 0.0
O124 O 0.48791 0.68221 0.68046 0.0
O125 O 0.52103 0.64165 0.60965 0.0
H126 H 0.21167 0.09392 0.09407 0.0
H127 H 0.1593 0.07354 0.97957 0.0
H128 H 0.1964 0.13771 0.1091 0.0
H129 H 0.14251 0.11607 -0.0048 0.0
H130 H 0.12221 0.201 0.027 0.0
H131 H 0.15502 0.17307 0.00866 0.0
H132 H 0.14457 0.13482 0.12659 0.0
H133 H 0.11329 0.16365 0.14516 0.0
C134 C 0.19715 0.09906 0.07196 0.0
C135 C 0.18628 0.08001 0.03587 0.0
C136 C 0.1882 0.12401 0.08064 0.0
C137 C 0.16758 0.13001 0.05374 0.0
C138 C 0.15861 0.11243 0.01658 0.0
C139 C 0.16809 0.08786 0.00763 0.0
C140 C 0.12751 0.18712 0.04916 0.0
C141 C 0.11485 0.18432 0.08745 0.0
C142 C 0.14614 0.17093 0.03858 0.0
C143 C 0.1523 0.15142 0.066 0.0
C144 C 0.14092 0.15001 0.10477 0.0
C145 C 0.12262 0.16638 0.11539 0.0
H146 H 0.85082 0.96268 0.95505 0.0
H147 H 0.80989 0.93677 0.07179 0.0
H148 H 0.88378 0.02252 0.97619 0.0
H149 H 0.8417 -0.00275 0.09262 0.0
H150 H 0.9436 0.09517 0.12962 0.0
H151 H 0.89928 0.03759 0.10896 0.0
H152 H 0.88765 0.07429 -0.00407 0.0
H153 H 0.93346 0.13181 0.01612 0.0
C154 C 0.84811 0.96986 -0.01499 0.0
C155 C 0.82804 0.94481 0.01188 0.0
C156 C 0.86693 0.0044 -0.00286 0.0
C157 C 0.86584 0.01493 0.03635 0.0
C158 C 0.8439 -0.00993 0.06248 0.0
C159 C 0.82541 0.95538 0.05047 0.0
C160 C 0.93132 0.09107 0.10052 0.0
C161 C 0.94238 0.11802 0.07434 0.0
C162 C 0.90559 0.05796 0.0887 0.0
C163 C 0.88987 0.051 0.05057 0.0
C164 C 0.89966 0.07843 0.02518 0.0
C165 C 0.92582 0.1115 0.03681 0.0
H166 H 0.9029 0.83109 0.92806 0.0
H167 H 0.90172 0.86153 0.04987 0.0
H168 H 0.96264 0.84506 0.93774 0.0
H169 H 0.96207 0.87719 0.0592 0.0
H170 H 0.06865 0.89227 0.07142 0.0
H171 H 0.00586 0.86203 0.06311 0.0
H172 H 0.01522 0.89695 0.94361 0.0
H173 H 0.07748 0.92577 0.95136 0.0
C174 C 0.91543 0.84063 0.957 0.0
C175 C 0.89789 0.84568 -0.01192 0.0
C176 C 0.94972 0.8488 0.96251 0.0
C177 C 0.96744 0.86288 -0.00097 0.0
C178 C 0.94922 0.86615 0.03076 0.0
C179 C 0.91466 0.85737 0.0254 0.0
C180 C 0.05721 0.89297 0.04318 0.0
C181 C 0.07806 0.91163 0.01214 0.0
C182 C 0.02123 0.87581 0.0385 0.0
C183 C 0.00539 0.87719 0.0028 0.0
C184 C 0.02637 0.89477 0.97132 0.0
C185 C 0.06222 0.91159 0.97586 0.0
H186 H 0.81743 0.4289 0.35366 0.0
H187 H 0.86248 0.4746 0.24362 0.0
H188 H 0.7799 0.45337 0.34983 0.0
H189 H 0.82594 0.50044 0.24062 0.0
H190 H 0.72426 0.51293 0.34318 0.0
H191 H 0.77194 0.50159 0.35161 0.0
H192 H 0.76674 0.47889 0.22583 0.0
H193 H 0.72038 0.49147 0.2173 0.0
C194 C 0.81994 0.44491 0.32913 0.0
C195 C 0.84256 0.44939 0.29862 0.0
C196 C 0.79851 0.45914 0.32704 0.0
C197 C 0.79951 0.47853 0.29463 0.0
C198 C 0.82386 0.48492 0.2655 0.0
C199 C 0.84497 0.4703 0.26732 0.0
C200 C 0.7336 0.50585 0.31733 0.0
C201 C 0.7184 0.50292 0.27962 0.0
C202 C 0.76084 0.49923 0.32216 0.0
C203 C 0.77321 0.48925 0.28943 0.0
C204 C 0.75844 0.48715 0.25164 0.0
C205 C 0.73154 0.49407 0.24678 0.0
H206 H 0.51983 0.23641 0.18481 0.0
H207 H 0.49362 0.2243 0.30796 0.0
H208 H 0.53009 0.29436 0.18883 0.0
H209 H 0.50256 0.28244 0.31165 0.0
H210 H 0.57081 0.40124 0.31375 0.0
H211 H 0.54807 0.33974 0.31313 0.0
H212 H 0.50699 0.33061 0.19384 0.0
H213 H 0.53137 0.3925 0.19388 0.0
C214 C 0.51565 0.2459 0.21269 0.0
C215 C 0.50608 0.22564 0.24615 0.0
C216 C 0.52124 0.27925 0.2149 0.0
C217 C 0.51706 0.29332 0.25053 0.0
C218 C 0.50649 0.27271 0.28381 0.0
C219 C 0.5012 0.23928 0.28169 0.0
C220 C 0.55638 0.38604 0.28762 0.0
C221 C 0.55334 0.40186 0.25364 0.0
C222 C 0.54315 0.35061 0.28732 0.0
C223 C 0.52615 0.33004 0.25317 0.0
C224 C 0.52082 0.34566 0.22028 0.0
C225 C 0.53452 0.38116 0.22037 0.0
H226 H 0.6254 0.15233 0.18934 0.0
H227 H 0.61025 0.17535 0.3096 0.0
H228 H 0.68773 0.18574 0.20124 0.0
H229 H 0.67219 0.20995 0.32098 0.0
H230 H 0.7854 0.26443 0.33978 0.0
H231 H 0.72722 0.21598 0.32845 0.0
H232 H 0.72788 0.24465 0.20719 0.0
H233 H 0.78643 0.29186 0.21809 0.0
C234 C 0.63539 0.16425 0.21843 0.0
C235 C 0.61292 0.16156 0.24839 0.0
C236 C 0.67112 0.18359 0.2252 0.0
C237 C 0.68512 0.20106 0.26187 0.0
C238 C 0.66253 0.19662 0.29249 0.0
C239 C 0.62686 0.17689 0.2859 0.0
C240 C 0.77326 0.25996 0.31053 0.0
C241 C 0.79031 0.28217 0.27995 0.0
C242 C 0.73984 0.23229 0.30407 0.0
C243 C 0.72255 0.22658 0.26706 0.0
C244 C 0.7404 0.24785 0.23595 0.0
C245 C 0.77398 0.27518 0.24226 0.0
H246 H 0.40314 0.82527 0.63505 0.0
H247 H 0.43264 0.85638 0.75808 0.0
H248 H 0.42952 0.78955 0.6377 0.0
H249 H 0.46055 0.8218 0.76031 0.0
H250 H 0.45348 0.71742 0.76705 0.0
H251 H 0.43929 0.76246 0.76221 0.0
H252 H 0.47816 0.78201 0.64396 0.0
H253 H 0.49125 0.73559 0.64834 0.0
C254 C 0.41614 0.82527 0.66241 0.0
C255 C 0.4153 0.84326 0.69656 0.0
C256 C 0.43146 0.80482 0.66388 0.0
C257 C 0.44668 0.80222 0.69942 0.0
C258 C 0.4482 0.8224 0.73272 0.0
C259 C 0.43246 0.84249 0.73139 0.0
C260 C 0.45923 0.73138 0.74002 0.0
C261 C 0.47334 0.72272 0.70798 0.0
C262 C 0.45139 0.75758 0.73739 0.0
C263 C 0.45776 0.77618 0.70279 0.0
C264 C 0.47255 0.768 0.67093 0.0
C265 C 0.48013 0.74145 0.67344 0.0
H266 H 0.26729 0.75733 0.60967 0.0
H267 H 0.23259 0.76753 0.72495 0.0
H268 H 0.2288 0.69543 0.6097 0.0
H269 H 0.19351 0.70599 0.7245 0.0
H270 H 0.13954 0.58674 0.60926 0.0
H271 H 0.1703 0.64895 0.60732 0.0
H272 H 0.19876 0.65616 0.73152 0.0
H273 H 0.16716 0.59394 0.73373 0.0
C274 C 0.25093 0.74646 0.63462 0.0
C275 C 0.25327 0.76732 0.66745 0.0
C276 C 0.22878 0.71095 0.63464 0.0
C277 C 0.20831 0.69561 0.66736 0.0
C278 C 0.20946 0.71678 0.69925 0.0
C279 C 0.23174 0.75214 0.69936 0.0
C280 C 0.15208 0.60158 0.63629 0.0
C281 C 0.15098 0.5853 0.67166 0.0
C282 C 0.16992 0.6373 0.63507 0.0
C283 C 0.18723 0.65765 0.66916 0.0
C284 C 0.18535 0.64135 0.70479 0.0
C285 C 0.16734 0.60561 0.70605 0.0
H286 H 0.20806 0.48411 0.72743 0.0
H287 H 0.215 0.46921 0.60187 0.0
H288 H 0.26784 0.50044 0.73769 0.0
H289 H 0.27519 0.48407 0.61247 0.0
H290 H 0.37393 0.5243 0.75608 0.0
H291 H 0.31247 0.48823 0.73975 0.0
H292 H 0.32733 0.5351 0.6263 0.0
H293 H 0.38873 0.56939 0.64176 0.0
C294 C 0.22217 0.48354 0.702 0.0
C295 C 0.20687 0.47595 0.66368 0.0
C296 C 0.25659 0.49256 0.708 0.0
C297 C 0.27665 0.49383 0.67591 0.0
C298 C 0.26072 0.48403 0.6378 0.0
C299 C 0.22618 0.47532 0.63171 0.0
C300 C 0.36407 0.52626 0.72734 0.0
C301 C 0.38599 0.55005 0.70049 0.0
C302 C 0.32883 0.50575 0.718 0.0
C303 C 0.31466 0.50925 0.68204 0.0
C304 C 0.33714 0.53137 0.65413 0.0
C305 C 0.37245 0.55132 0.66315 0.0
H306 H 0.0109 0.28041 0.95216 0.0
H307 H 0.12001 0.32055 0.97541 0.0
H308 H 0.02409 0.32381 0.90316 0.0
H309 H 0.1331 0.36375 0.926 0.0
H310 H 0.13246 0.40015 0.79683 0.0
H311 H 0.12314 0.36173 0.85059 0.0
H312 H 0.05335 0.39027 0.90302 0.0
H313 H 0.06301 0.42927 0.84914 0.0
C314 C 0.03768 0.29832 0.94657 0.0
C315 C 0.06444 0.29699 0.96746 0.0
C316 C 0.04519 0.32337 0.91888 0.0
C317 C 0.07958 0.34725 0.91114 0.0
C318 C 0.10636 0.3456 0.93149 0.0
C319 C 0.09886 0.32087 0.95964 0.0
C320 C 0.11549 0.3986 0.82012 0.0
C321 C 0.09834 0.41756 0.81882 0.0
C322 C 0.11027 0.3767 0.85092 0.0
C323 C 0.08739 0.37292 0.88072 0.0
C324 C 0.07093 0.39259 0.88012 0.0
C325 C 0.07663 0.41503 0.84957 0.0
H326 H 0.7424 0.76449 0.88886 0.0
H327 H 0.66258 0.76742 0.95607 0.0
H328 H 0.70012 0.73085 0.83619 0.0
H329 H 0.62008 0.73352 0.90295 0.0
H330 H 0.55102 0.6433 0.8141 0.0
H331 H 0.59295 0.673 0.86907 0.0
H332 H 0.66478 0.74413 0.7878 0.0
H333 H 0.62308 0.71472 0.73307 0.0
C334 C 0.71579 0.75789 0.89241 0.0
C335 C 0.70577 0.76872 0.92646 0.0
C336 C 0.69165 0.7387 0.86222 0.0
C337 C 0.65696 0.72969 0.86559 0.0
C338 C 0.6467 0.73996 0.89988 0.0
C339 C 0.671 0.75953 0.93004 0.0
C340 C 0.57593 0.66504 0.808 0.0
C341 C 0.58389 0.67676 0.7694 0.0
C342 C 0.59972 0.68214 0.83943 0.0
C343 C 0.63194 0.71083 0.83256 0.0
C344 C 0.64018 0.72191 0.7938 0.0
C345 C 0.61631 0.70515 0.76255 0.0
H346 H 0.24404 0.90029 0.67359 0.0
H347 H 0.33955 0.9632 0.74083 0.0
H348 H 0.21422 0.9196 0.71809 0.0
H349 H 0.30971 0.98259 0.78506 0.0
H350 H 0.25159 0.02605 0.84676 0.0
H351 H 0.27637 0.01503 0.78824 0.0
H352 H 0.20125 0.90726 0.79091 0.0
H353 H 0.17662 0.91813 0.84945 0.0
C354 C 0.25879 0.91868 0.69744 0.0
C355 C 0.29407 0.92999 0.70403 0.0
C356 C 0.24168 0.92964 0.72288 0.0
C357 C 0.25965 0.95251 0.75497 0.0
C358 C 0.2953 0.96522 0.76028 0.0
C359 C 0.31232 0.95393 0.73516 0.0
C360 C 0.23979 0.00015 0.83423 0.0
C361 C 0.2124 0.97287 0.85288 0.0
C362 C 0.25412 -0.00614 0.80091 0.0
C363 C 0.24092 0.96029 0.78537 0.0
C364 C 0.21182 0.93343 0.80217 0.0
C365 C 0.1978 0.93963 0.83576 0.0
H366 H 0.36992 0.05001 0.2295 0.0
H367 H 0.44529 0.05307 0.14908 0.0
H368 H 0.32497 0.02228 0.17754 0.0
H369 H 0.40013 0.02537 0.09692 0.0
H370 H 0.32035 0.03639 0.01182 0.0
H371 H 0.36614 0.04905 0.06106 0.0
H372 H 0.29286 0.96851 0.13267 0.0
H373 H 0.24693 0.95571 0.08334 0.0
C374 C 0.37675 0.0443 0.20087 0.0
C375 C 0.41108 0.05398 0.19314 0.0
C376 C 0.35099 0.02818 0.17126 0.0
C377 C 0.35918 0.02177 0.13329 0.0
C378 C 0.39327 0.03019 0.12597 0.0
C379 C 0.41901 0.04594 0.15578 0.0
C380 C 0.31416 0.02097 0.03771 0.0
C381 C 0.28007 -0.00459 0.04407 0.0
C382 C 0.34039 0.02803 0.06572 0.0
C383 C 0.33288 0.00986 0.10069 0.0
C384 C 0.29917 0.98301 0.10602 0.0
C385 C 0.27299 0.97567 0.07778 0.0
H386 H -0.01445 0.29578 0.11728 0.0
H387 H 0.05891 0.29278 0.19978 0.0
H388 H 0.97428 0.32963 0.16548 0.0
H389 H 0.04749 0.32686 0.24835 0.0
H390 H 0.97133 0.40486 0.24899 0.0
H391 H 0.00107 0.38629 0.20341 0.0
H392 H -0.00613 0.31182 0.28632 0.0
H393 H 0.96434 0.33039 0.33189 0.0
C394 C -0.00047 0.30267 0.14562 0.0
C395 C 0.0228 0.29135 0.15499 0.0
C396 C -0.00664 0.32239 0.17305 0.0
C397 C 0.01012 0.33096 0.21057 0.0
C398 C 0.03421 0.32053 0.21961 0.0
C399 C 0.04071 0.30107 0.19188 0.0
C400 C 0.97691 0.38516 0.2579 0.0
C401 C 0.96503 0.36864 0.29364 0.0
C402 C -0.00621 0.37447 0.23177 0.0
C403 C -0.00065 0.34736 0.24118 0.0
C404 C -0.00993 0.33288 0.27838 0.0
C405 C 0.97295 0.34335 0.30433 0.0
H406 H 0.71447 0.63604 0.27061 0.0
H407 H 0.62036 0.59883 0.19943 0.0
H408 H 0.74153 0.68809 0.2334 0.0
H409 H 0.6477 0.65143 0.16222 0.0
H410 H 0.70288 0.76506 0.12721 0.0
H411 H 0.67473 0.71774 0.17228 0.0
H412 H 0.75876 0.69716 0.16116 0.0
H413 H 0.78661 0.74395 0.11595 0.0
C414 C 0.69942 0.63908 0.24723 0.0
C415 C 0.66533 0.61316 0.2377 0.0
C416 C 0.715 0.66889 0.22593 0.0
C417 C 0.69675 0.67367 0.19491 0.0
C418 C 0.66224 0.64842 0.18623 0.0
C419 C 0.64669 0.61829 0.20732 0.0
C420 C 0.71556 0.75075 0.13495 0.0
C421 C 0.74692 0.75813 0.11811 0.0
C422 C 0.69932 0.72356 0.16042 0.0
C423 C 0.71455 0.7038 0.17001 0.0
C424 C 0.74658 0.71214 0.15443 0.0
C425 C 0.76248 0.73886 0.12852 0.0
H426 H -0.00849 0.45749 0.66728 0.0
H427 H 0.01733 0.38566 0.61318 0.0
H428 H 0.94496 0.44064 0.6174 0.0
H429 H 0.97085 0.3688 0.56366 0.0
H430 H 0.87932 0.33501 0.4849 0.0
H431 H 0.90629 0.34277 0.55069 0.0
H432 H 0.95174 0.4524 0.54396 0.0
H433 H 0.92494 0.44475 0.47831 0.0
C434 C -0.01325 0.43758 0.6453 0.0
C435 C 0.0083 0.42319 0.64368 0.0
C436 C 0.96017 0.428 0.61682 0.0
C437 C 0.95442 0.40353 0.58671 0.0
C438 C 0.97446 0.38747 0.58681 0.0
C439 C 0.00127 0.39733 0.61493 0.0
C440 C 0.89424 0.3607 0.49795 0.0
C441 C 0.90059 0.38934 0.47625 0.0
C442 C 0.90972 0.3651 0.53551 0.0
C443 C 0.93137 0.39816 0.5521 0.0
C444 C 0.93501 0.4266 0.53195 0.0
C445 C 0.91985 0.42223 0.49424 0.0
H446 H 0.54241 0.54232 0.37595 0.0
H447 H 0.62344 0.54299 0.44841 0.0
H448 H 0.52362 0.56188 0.43325 0.0
H449 H 0.60444 0.56247 0.50577 0.0
H450 H 0.5342 0.56061 0.60528 0.0
H451 H 0.55176 0.53967 0.5482 0.0
H452 H 0.54906 0.61654 0.47696 0.0
H453 H 0.53152 0.63773 0.53425 0.0
C454 C 0.55604 0.54638 0.40417 0.0
C455 C 0.58441 0.54111 0.40772 0.0
C456 C 0.54542 0.55782 0.43685 0.0
C457 C 0.56269 0.56383 0.4738 0.0
C458 C 0.59057 0.55784 0.47761 0.0
C459 C 0.60147 0.54677 0.4448 0.0
C460 C 0.53728 0.57305 0.57744 0.0
C461 C 0.53146 0.60083 0.5742 0.0
C462 C 0.54752 0.56115 0.54487 0.0
C463 C 0.55177 0.57651 0.50826 0.0
C464 C 0.54568 0.60409 0.50484 0.0
C465 C 0.53581 0.61629 0.53761 0.0
H466 H 0.35853 0.90622 0.49267 0.0
H467 H 0.42832 0.98449 0.57802 0.0
H468 H 0.38598 0.94582 0.43927 0.0
H469 H 0.45525 0.02388 0.52487 0.0
H470 H 0.45881 0.09302 0.42166 0.0
H471 H 0.43474 0.05349 0.47569 0.0
H472 H 0.44627 0.97734 0.40851 0.0
H473 H 0.47068 0.01681 0.35476 0.0
C474 C 0.37976 0.93174 0.49999 0.0
C475 C 0.39126 0.94221 0.53951 0.0
C476 C 0.39551 0.95433 0.46949 0.0
C477 C 0.42262 -0.01209 0.47807 0.0
C478 C 0.43421 -0.00175 0.51751 0.0
C479 C 0.41889 0.97558 0.54786 0.0
C480 C 0.45655 0.06799 0.41864 0.0
C481 C 0.46669 0.05807 0.38402 0.0
C482 C 0.44282 0.04541 0.44952 0.0
C483 C 0.43848 0.01232 0.44607 0.0
C484 C 0.44903 0.00257 0.41171 0.0
C485 C 0.46324 0.0253 0.38114 0.0
loop_
_geom_bond_atom_site_label_1
_geom_bond_atom_site_label_2
_geom_bond_distance
_geom_bond_site_symmetry_2
_ccdc_geom_bond_type
C0 O1 1.306 . S
C0 O3 1.160 . S
O1 C0 1.306 . S
O1 Cd2 2.228 . S
Cd2 O1 2.228 . S
Cd2 O6 2.273 . S
Cd2 O10 2.277 1_455 S
O3 C0 1.160 . S
O3 Cd4 2.203 . S
Cd4 O3 2.203 . S
Cd4 O6 2.411 . S
Cd4 O7 2.333 1_455 S
Cd4 O8 2.352 1_554 S
Cd4 O12 2.277 1_454 S
Cd4 O13 2.356 1_554 S
C5 O10 1.209 . S
C5 O12 1.226 1_554 S
O6 Cd2 2.273 . S
O6 Cd4 2.411 . S
O6 C9 1.320 1_455 S
O7 Cd4 2.333 1_655 S
O7 C9 1.214 . S
O8 Cd4 2.352 1_556 S
O8 C11 1.258 . S
C9 O6 1.320 1_655 S
C9 O7 1.214 . S
O10 Cd2 2.277 1_655 S
O10 C5 1.209 . S
C11 O8 1.258 . S
C11 O13 1.282 . S
O12 Cd4 2.277 1_656 S
O12 C5 1.226 1_556 S
O13 Cd4 2.356 1_556 S
O13 C11 1.282 . S
C14 O15 1.306 1_554 S
C14 O17 1.160 . S
O15 C14 1.306 1_556 S
O15 Cd16 2.228 . S
Cd16 O15 2.228 . S
Cd16 O20 2.273 . S
Cd16 O24 2.277 . S
O17 C14 1.160 . S
O17 Cd18 2.203 . S
Cd18 O17 2.203 . S
Cd18 O20 2.411 1_554 S
Cd18 O21 2.333 . S
Cd18 O22 2.352 . S
Cd18 O26 2.277 . S
Cd18 O27 2.356 . S
C19 O24 1.209 1_554 S
C19 O26 1.226 . S
O20 Cd16 2.273 . S
O20 Cd18 2.411 1_556 S
O20 C23 1.320 . S
O21 Cd18 2.333 . S
O21 C23 1.214 1_554 S
O22 Cd18 2.352 . S
O22 C25 1.258 . S
C23 O20 1.320 . S
C23 O21 1.214 1_556 S
O24 Cd16 2.277 . S
O24 C19 1.209 1_556 S
C25 O22 1.258 . S
C25 O27 1.282 . S
O26 Cd18 2.277 . S
O26 C19 1.226 . S
O27 Cd18 2.356 . S
O27 C25 1.282 . S
C28 O29 1.306 . S
C28 O31 1.160 1_554 S
O29 C28 1.306 . S
O29 Cd30 2.228 1_565 S
Cd30 O29 2.228 1_545 S
Cd30 O34 2.273 . S
Cd30 O38 2.277 . S
O31 C28 1.160 1_556 S
O31 Cd32 2.203 1_566 S
Cd32 O31 2.203 1_544 S
Cd32 O34 2.411 . S
Cd32 O35 2.333 . S
Cd32 O36 2.352 1_544 S
Cd32 O40 2.277 1_554 S
Cd32 O41 2.356 1_554 S
C33 O38 1.209 . S
C33 O40 1.226 1_554 S
O34 Cd30 2.273 . S
O34 Cd32 2.411 . S
O34 C37 1.320 . S
O35 Cd32 2.333 . S
O35 C37 1.214 . S
O36 Cd32 2.352 1_566 S
O36 C39 1.258 . S
C37 O34 1.320 . S
C37 O35 1.214 . S
O38 Cd30 2.277 . S
O38 C33 1.209 . S
C39 O36 1.258 . S
C39 O41 1.282 1_565 S
O40 Cd32 2.277 1_556 S
O40 C33 1.226 1_556 S
O41 Cd32 2.356 1_556 S
O41 C39 1.282 1_545 S
C42 O43 1.306 . S
C42 O45 1.160 . S
O43 C42 1.306 . S
O43 Cd44 2.228 . S
Cd44 O43 2.228 . S
Cd44 O48 2.273 . S
Cd44 O52 2.277 . S
O45 C42 1.160 . S
O45 Cd46 2.203 . S
Cd46 O45 2.203 . S
Cd46 O48 2.411 . S
Cd46 O49 2.333 . S
Cd46 O50 2.352 . S
Cd46 O54 2.277 . S
Cd46 O55 2.356 . S
C47 O52 1.209 . S
C47 O54 1.226 . S
O48 Cd44 2.273 . S
O48 Cd46 2.411 . S
O48 C51 1.320 . S
O49 Cd46 2.333 . S
O49 C51 1.214 . S
O50 Cd46 2.352 . S
O50 C53 1.258 . S
C51 O48 1.320 . S
C51 O49 1.214 . S
O52 Cd44 2.277 . S
O52 C47 1.209 . S
C53 O50 1.258 . S
C53 O55 1.282 . S
O54 Cd46 2.277 . S
O54 C47 1.226 . S
O55 Cd46 2.356 . S
O55 C53 1.282 . S
C56 O57 1.306 . S
C56 O59 1.160 . S
O57 C56 1.306 . S
O57 Cd58 2.228 . S
Cd58 O57 2.228 . S
Cd58 O62 2.273 . S
Cd58 O66 2.277 . S
O59 C56 1.160 . S
O59 Cd60 2.203 . S
Cd60 O59 2.203 . S
Cd60 O62 2.411 . S
Cd60 O63 2.333 . S
Cd60 O64 2.352 . S
Cd60 O68 2.277 . S
Cd60 O69 2.356 . S
C61 O66 1.209 . S
C61 O68 1.226 . S
O62 Cd58 2.273 . S
O62 Cd60 2.411 . S
O62 C65 1.320 . S
O63 Cd60 2.333 . S
O63 C65 1.214 . S
O64 Cd60 2.352 . S
O64 C67 1.258 . S
C65 O62 1.320 . S
C65 O63 1.214 . S
O66 Cd58 2.277 . S
O66 C61 1.209 . S
C67 O64 1.258 . S
C67 O69 1.282 . S
O68 Cd60 2.277 . S
O68 C61 1.226 . S
O69 Cd60 2.356 . S
O69 C67 1.282 . S
C70 O71 1.306 . S
C70 O73 1.160 . S
O71 C70 1.306 . S
O71 Cd72 2.228 . S
Cd72 O71 2.228 . S
Cd72 O76 2.273 . S
Cd72 O80 2.277 . S
O73 C70 1.160 . S
O73 Cd74 2.203 . S
Cd74 O73 2.203 . S
Cd74 O76 2.411 . S
Cd74 O77 2.333 . S
Cd74 O78 2.352 . S
Cd74 O82 2.277 . S
Cd74 O83 2.356 . S
C75 O80 1.209 . S
C75 O82 1.226 . S
O76 Cd72 2.273 . S
O76 Cd74 2.411 . S
O76 C79 1.320 . S
O77 Cd74 2.333 . S
O77 C79 1.214 . S
O78 Cd74 2.352 . S
O78 C81 1.258 . S
C79 O76 1.320 . S
C79 O77 1.214 . S
O80 Cd72 2.277 . S
O80 C75 1.209 . S
C81 O78 1.258 . S
C81 O83 1.282 . S
O82 Cd74 2.277 . S
O82 C75 1.226 . S
O83 Cd74 2.356 . S
O83 C81 1.282 . S
C84 O85 1.306 . S
C84 O87 1.160 . S
O85 C84 1.306 . S
O85 Cd86 2.228 . S
Cd86 O85 2.228 . S
Cd86 O90 2.273 . S
Cd86 O94 2.277 . S
O87 C84 1.160 . S
O87 Cd88 2.203 . S
Cd88 O87 2.203 . S
Cd88 O90 2.411 . S
Cd88 O91 2.333 . S
Cd88 O92 2.352 . S
Cd88 O96 2.277 . S
Cd88 O97 2.356 . S
C89 O94 1.209 . S
C89 O96 1.226 . S
O90 Cd86 2.273 . S
O90 Cd88 2.411 . S
O90 C93 1.320 . S
O91 Cd88 2.333 . S
O91 C93 1.214 . S
O92 Cd88 2.352 . S
O92 C95 1.258 . S
C93 O90 1.320 . S
C93 O91 1.214 . S
O94 Cd86 2.277 . S
O94 C89 1.209 . S
C95 O92 1.258 . S
C95 O97 1.282 . S
O96 Cd88 2.277 . S
O96 C89 1.226 . S
O97 Cd88 2.356 . S
O97 C95 1.282 . S
C98 O99 1.306 . S
C98 O101 1.160 . S
O99 C98 1.306 . S
O99 Cd100 2.228 . S
Cd100 O99 2.228 . S
Cd100 O104 2.273 . S
Cd100 O108 2.277 . S
O101 C98 1.160 . S
O101 Cd102 2.203 . S
Cd102 O101 2.203 . S
Cd102 O104 2.411 . S
Cd102 O105 2.333 . S
Cd102 O106 2.352 . S
Cd102 O110 2.277 . S
Cd102 O111 2.356 . S
C103 O108 1.209 . S
C103 O110 1.226 . S
O104 Cd100 2.273 . S
O104 Cd102 2.411 . S
O104 C107 1.320 . S
O105 Cd102 2.333 . S
O105 C107 1.214 . S
O106 Cd102 2.352 . S
O106 C109 1.258 . S
C107 O104 1.320 . S
C107 O105 1.214 . S
O108 Cd100 2.277 . S
O108 C103 1.209 . S
C109 O106 1.258 . S
C109 O111 1.282 . S
O110 Cd102 2.277 . S
O110 C103 1.226 . S
O111 Cd102 2.356 . S
O111 C109 1.282 . S
C112 O113 1.306 . S
C112 O115 1.160 . S
O113 C112 1.306 . S
O113 Cd114 2.228 . S
Cd114 O113 2.228 . S
Cd114 O118 2.273 . S
Cd114 O122 2.277 . S
O115 C112 1.160 . S
O115 Cd116 2.203 . S
Cd116 O115 2.203 . S
Cd116 O118 2.411 . S
Cd116 O119 2.333 . S
Cd116 O120 2.352 . S
Cd116 O124 2.277 . S
Cd116 O125 2.356 . S
C117 O122 1.209 . S
C117 O124 1.226 . S
O118 Cd114 2.273 . S
O118 Cd116 2.411 . S
O118 C121 1.320 . S
O119 Cd116 2.333 . S
O119 C121 1.214 . S
O120 Cd116 2.352 . S
O120 C123 1.258 . S
C121 O118 1.320 . S
C121 O119 1.214 . S
O122 Cd114 2.277 . S
O122 C117 1.209 . S
C123 O120 1.258 . S
C123 O125 1.282 . S
O124 Cd116 2.277 . S
O124 C117 1.226 . S
O125 Cd116 2.356 . S
O125 C123 1.282 . S
H126 C134 0.950 . S
H127 C139 0.950 . S
H128 C136 0.950 . S
H129 C138 0.950 . S
H130 C140 0.950 . S
H131 C142 0.950 . S
H132 C144 0.950 . S
H133 C145 0.950 . S
C134 H126 0.950 . S
C134 C135 1.386 . S
C134 C136 1.391 . S
C135 C134 1.386 . S
C135 C139 1.393 1_554 S
C136 H128 0.950 . S
C136 C134 1.391 . S
C136 C137 1.400 . S
C137 C136 1.400 . S
C137 C138 1.398 1_554 S
C137 C143 1.491 . S
C138 H129 0.950 . S
C138 C137 1.398 1_556 S
C138 C139 1.391 . S
C139 H127 0.950 . S
C139 C135 1.393 1_556 S
C139 C138 1.391 . S
C140 H130 0.950 . S
C140 C141 1.386 1_556 S
C140 C142 1.391 . S
C141 C140 1.386 1_554 S
C141 C145 1.393 . S
C142 H131 0.950 . S
C142 C140 1.391 . S
C142 C143 1.400 1_556 S
C143 C137 1.491 . S
C143 C142 1.400 1_554 S
C143 C144 1.398 . S
C144 H132 0.950 . S
C144 C143 1.398 . S
C144 C145 1.391 . S
C145 H133 0.950 . S
C145 C141 1.393 . S
C145 C144 1.391 . S
H146 C154 0.950 . S
H147 C159 0.950 . S
H148 C156 0.950 . S
H149 C158 0.950 . S
H150 C160 0.950 . S
H151 C162 0.950 . S
H152 C164 0.952 . S
H153 C165 0.944 1_556 S
C154 H146 0.950 . S
C154 C155 1.386 . S
C154 C156 1.391 . S
C155 C154 1.386 . S
C155 C159 1.393 . S
C156 H148 0.950 . S
C156 C154 1.391 . S
C156 C157 1.400 . S
C157 C156 1.400 . S
C157 C158 1.398 . S
C157 C163 1.491 1_565 S
C158 H149 0.950 . S
C158 C157 1.398 . S
C158 C159 1.391 . S
C159 H147 0.950 . S
C159 C155 1.393 . S
C159 C158 1.391 . S
C160 H150 0.950 . S
C160 C161 1.386 . S
C160 C162 1.391 . S
C161 C160 1.386 . S
C161 C165 1.393 . S
C162 H151 0.950 . S
C162 C160 1.391 . S
C162 C163 1.400 . S
C163 C157 1.491 1_545 S
C163 C162 1.400 . S
C163 C164 1.398 . S
C164 H152 0.952 . S
C164 C163 1.398 . S
C164 C165 1.391 . S
C165 H153 0.944 1_554 S
C165 C161 1.393 . S
C165 C164 1.391 . S
H166 C174 0.950 . S
H167 C179 0.950 . S
H168 C176 0.950 . S
H169 C178 0.950 . S
H170 C180 0.950 . S
H171 C182 0.950 . S
H172 C184 0.950 . S
H173 C185 0.950 . S
C174 H166 0.950 . S
C174 C175 1.386 1_556 S
C174 C176 1.391 . S
C175 C174 1.386 1_554 S
C175 C179 1.393 . S
C176 H168 0.950 . S
C176 C174 1.391 . S
C176 C177 1.400 1_556 S
C177 C176 1.400 1_554 S
C177 C178 1.398 . S
C177 C183 1.491 1_655 S
C178 H169 0.950 . S
C178 C177 1.398 . S
C178 C179 1.391 . S
C179 H167 0.950 . S
C179 C175 1.393 . S
C179 C178 1.391 . S
C180 H170 0.950 . S
C180 C181 1.386 . S
C180 C182 1.391 . S
C181 C180 1.386 . S
C181 C185 1.393 1_554 S
C182 H171 0.950 . S
C182 C180 1.391 . S
C182 C183 1.400 . S
C183 C177 1.491 1_455 S
C183 C182 1.400 . S
C183 C184 1.398 1_554 S
C184 H172 0.950 . S
C184 C183 1.398 1_556 S
C184 C185 1.391 . S
C185 H173 0.950 . S
C185 C181 1.393 1_556 S
C185 C184 1.391 . S
H186 C194 0.950 . S
H187 C199 0.950 . S
H188 C196 0.950 . S
H189 C198 0.950 . S
H190 C200 0.950 . S
H191 C202 0.950 . S
H192 C204 0.950 . S
H193 C205 0.950 . S
C194 H186 0.950 . S
C194 C195 1.386 . S
C194 C196 1.391 . S
C195 C194 1.386 . S
C195 C199 1.393 . S
C196 H188 0.950 . S
C196 C194 1.391 . S
C196 C197 1.400 . S
C197 C196 1.400 . S
C197 C198 1.398 . S
C197 C203 1.491 . S
C198 H189 0.950 . S
C198 C197 1.398 . S
C198 C199 1.391 . S
C199 H187 0.950 . S
C199 C195 1.393 . S
C199 C198 1.391 . S
C200 H190 0.950 . S
C200 C201 1.386 . S
C200 C202 1.391 . S
C201 C200 1.386 . S
C201 C205 1.393 . S
C202 H191 0.950 . S
C202 C200 1.391 . S
C202 C203 1.400 . S
C203 C197 1.491 . S
C203 C202 1.400 . S
C203 C204 1.398 . S
C204 H192 0.950 . S
C204 C203 1.398 . S
C204 C205 1.391 . S
C205 H193 0.950 . S
C205 C201 1.393 . S
C205 C204 1.391 . S
H206 C214 0.950 . S
H207 C219 0.950 . S
H208 C216 0.950 . S
H209 C218 0.950 . S
H210 C220 0.950 . S
H211 C222 0.950 . S
H212 C224 0.950 . S
H213 C225 0.950 . S
C214 H206 0.950 . S
C214 C215 1.386 . S
C214 C216 1.391 . S
C215 C214 1.386 . S
C215 C219 1.393 . S
C216 H208 0.950 . S
C216 C214 1.391 . S
C216 C217 1.400 . S
C217 C216 1.400 . S
C217 C218 1.398 . S
C217 C223 1.491 . S
C218 H209 0.950 . S
C218 C217 1.398 . S
C218 C219 1.391 . S
C219 H207 0.950 . S
C219 C215 1.393 . S
C219 C218 1.391 . S
C220 H210 0.950 . S
C220 C221 1.386 . S
C220 C222 1.391 . S
C221 C220 1.386 . S
C221 C225 1.393 . S
C222 H211 0.950 . S
C222 C220 1.391 . S
C222 C223 1.400 . S
C223 C217 1.491 . S
C223 C222 1.400 . S
C223 C224 1.398 . S
C224 H212 0.950 . S
C224 C223 1.398 . S
C224 C225 1.391 . S
C225 H213 0.950 . S
C225 C221 1.393 . S
C225 C224 1.391 . S
H226 C234 0.950 . S
H227 C239 0.950 . S
H228 C236 0.950 . S
H229 C238 0.950 . S
H230 C240 0.950 . S
H231 C242 0.950 . S
H232 C244 0.950 . S
H233 C245 0.950 . S
C234 H226 0.950 . S
C234 C235 1.386 . S
C234 C236 1.391 . S
C235 C234 1.386 . S
C235 C239 1.393 . S
C236 H228 0.950 . S
C236 C234 1.391 . S
C236 C237 1.400 . S
C237 C236 1.400 . S
C237 C238 1.398 . S
C237 C243 1.491 . S
C238 H229 0.950 . S
C238 C237 1.398 . S
C238 C239 1.391 . S
C239 H227 0.950 . S
C239 C235 1.393 . S
C239 C238 1.391 . S
C240 H230 0.950 . S
C240 C241 1.386 . S
C240 C242 1.391 . S
C241 C240 1.386 . S
C241 C245 1.393 . S
C242 H231 0.950 . S
C242 C240 1.391 . S
C242 C243 1.400 . S
C243 C237 1.491 . S
C243 C242 1.400 . S
C243 C244 1.398 . S
C244 H232 0.950 . S
C244 C243 1.398 . S
C244 C245 1.391 . S
C245 H233 0.950 . S
C245 C241 1.393 . S
C245 C244 1.391 . S
H246 C254 0.950 . S
H247 C259 0.950 . S
H248 C256 0.950 . S
H249 C258 0.950 . S
H250 C260 0.950 . S
H251 C262 0.950 . S
H252 C264 0.950 . S
H253 C265 0.950 . S
C254 H246 0.950 . S
C254 C255 1.386 . S
C254 C256 1.391 . S
C255 C254 1.386 . S
C255 C259 1.393 . S
C256 H248 0.950 . S
C256 C254 1.391 . S
C256 C257 1.400 . S
C257 C256 1.400 . S
C257 C258 1.398 . S
C257 C263 1.491 . S
C258 H249 0.950 . S
C258 C257 1.398 . S
C258 C259 1.391 . S
C259 H247 0.950 . S
C259 C255 1.393 . S
C259 C258 1.391 . S
C260 H250 0.950 . S
C260 C261 1.386 . S
C260 C262 1.391 . S
C261 C260 1.386 . S
C261 C265 1.393 . S
C262 H251 0.950 . S
C262 C260 1.391 . S
C262 C263 1.400 . S
C263 C257 1.491 . S
C263 C262 1.400 . S
C263 C264 1.398 . S
C264 H252 0.950 . S
C264 C263 1.398 . S
C264 C265 1.391 . S
C265 H253 0.950 . S
C265 C261 1.393 . S
C265 C264 1.391 . S
H266 C274 0.950 . S
H267 C279 0.950 . S
H268 C276 0.950 . S
H269 C278 0.950 . S
H270 C280 0.950 . S
H271 C282 0.950 . S
H272 C284 0.950 . S
H273 C285 0.950 . S
C274 H266 0.950 . S
C274 C275 1.386 . S
C274 C276 1.391 . S
C275 C274 1.386 . S
C275 C279 1.393 . S
C276 H268 0.950 . S
C276 C274 1.391 . S
C276 C277 1.400 . S
C277 C276 1.400 . S
C277 C278 1.398 . S
C277 C283 1.491 . S
C278 H269 0.950 . S
C278 C277 1.398 . S
C278 C279 1.391 . S
C279 H267 0.950 . S
C279 C275 1.393 . S
C279 C278 1.391 . S
C280 H270 0.950 . S
C280 C281 1.386 . S
C280 C282 1.391 . S
C281 C280 1.386 . S
C281 C285 1.393 . S
C282 H271 0.950 . S
C282 C280 1.391 . S
C282 C283 1.400 . S
C283 C277 1.491 . S
C283 C282 1.400 . S
C283 C284 1.398 . S
C284 H272 0.950 . S
C284 C283 1.398 . S
C284 C285 1.391 . S
C285 H273 0.950 . S
C285 C281 1.393 . S
C285 C284 1.391 . S
H286 C294 0.950 . S
H287 C299 0.950 . S
H288 C296 0.950 . S
H289 C298 0.950 . S
H290 C300 0.950 . S
H291 C302 0.950 . S
H292 C304 0.950 . S
H293 C305 0.950 . S
C294 H286 0.950 . S
C294 C295 1.386 . S
C294 C296 1.391 . S
C295 C294 1.386 . S
C295 C299 1.393 . S
C296 H288 0.950 . S
C296 C294 1.391 . S
C296 C297 1.400 . S
C297 C296 1.400 . S
C297 C298 1.398 . S
C297 C303 1.491 . S
C298 H289 0.950 . S
C298 C297 1.398 . S
C298 C299 1.391 . S
C299 H287 0.950 . S
C299 C295 1.393 . S
C299 C298 1.391 . S
C300 H290 0.950 . S
C300 C301 1.386 . S
C300 C302 1.391 . S
C301 C300 1.386 . S
C301 C305 1.393 . S
C302 H291 0.950 . S
C302 C300 1.391 . S
C302 C303 1.400 . S
C303 C297 1.491 . S
C303 C302 1.400 . S
C303 C304 1.398 . S
C304 H292 0.950 . S
C304 C303 1.398 . S
C304 C305 1.391 . S
C305 H293 0.950 . S
C305 C301 1.393 . S
C305 C304 1.391 . S
H306 C314 0.950 . S
H307 C319 0.950 . S
H308 C316 0.950 . S
H309 C318 0.950 . S
H310 C320 0.950 . S
H311 C322 0.950 . S
H312 C324 0.950 . S
H313 C325 0.950 . S
C314 H306 0.950 . S
C314 C315 1.386 . S
C314 C316 1.391 . S
C315 C314 1.386 . S
C315 C319 1.393 . S
C316 H308 0.950 . S
C316 C314 1.391 . S
C316 C317 1.400 . S
C317 C316 1.400 . S
C317 C318 1.398 . S
C317 C323 1.491 . S
C318 H309 0.950 . S
C318 C317 1.398 . S
C318 C319 1.391 . S
C319 H307 0.950 . S
C319 C315 1.393 . S
C319 C318 1.391 . S
C320 H310 0.950 . S
C320 C321 1.386 . S
C320 C322 1.391 . S
C321 C320 1.386 . S
C321 C325 1.393 . S
C322 H311 0.950 . S
C322 C320 1.391 . S
C322 C323 1.400 . S
C323 C317 1.491 . S
C323 C322 1.400 . S
C323 C324 1.398 . S
C324 H312 0.950 . S
C324 C323 1.398 . S
C324 C325 1.391 . S
C325 H313 0.950 . S
C325 C321 1.393 . S
C325 C324 1.391 . S
H326 C334 0.950 . S
H327 C339 0.950 . S
H328 C336 0.950 . S
H329 C338 0.950 . S
H330 C340 0.950 . S
H331 C342 0.950 . S
H332 C344 0.950 . S
H333 C345 0.950 . S
C334 H326 0.950 . S
C334 C335 1.386 . S
C334 C336 1.391 . S
C335 C334 1.386 . S
C335 C339 1.393 . S
C336 H328 0.950 . S
C336 C334 1.391 . S
C336 C337 1.400 . S
C337 C336 1.400 . S
C337 C338 1.398 . S
C337 C343 1.491 . S
C338 H329 0.950 . S
C338 C337 1.398 . S
C338 C339 1.391 . S
C339 H327 0.950 . S
C339 C335 1.393 . S
C339 C338 1.391 . S
C340 H330 0.950 . S
C340 C341 1.386 . S
C340 C342 1.391 . S
C341 C340 1.386 . S
C341 C345 1.393 . S
C342 H331 0.950 . S
C342 C340 1.391 . S
C342 C343 1.400 . S
C343 C337 1.491 . S
C343 C342 1.400 . S
C343 C344 1.398 . S
C344 H332 0.950 . S
C344 C343 1.398 . S
C344 C345 1.391 . S
C345 H333 0.950 . S
C345 C341 1.393 . S
C345 C344 1.391 . S
H346 C354 0.950 . S
H347 C359 0.950 . S
H348 C356 0.950 . S
H349 C358 0.950 . S
H350 C360 0.950 1_545 S
H351 C362 0.950 . S
H352 C364 0.950 . S
H353 C365 0.950 . S
C354 H346 0.950 . S
C354 C355 1.386 . S
C354 C356 1.391 . S
C355 C354 1.386 . S
C355 C359 1.393 . S
C356 H348 0.950 . S
C356 C354 1.391 . S
C356 C357 1.400 . S
C357 C356 1.400 . S
C357 C358 1.398 . S
C357 C363 1.491 . S
C358 H349 0.950 . S
C358 C357 1.398 . S
C358 C359 1.391 . S
C359 H347 0.950 . S
C359 C355 1.393 . S
C359 C358 1.391 . S
C360 H350 0.950 1_565 S
C360 C361 1.386 . S
C360 C362 1.391 . S
C361 C360 1.386 . S
C361 C365 1.393 . S
C362 H351 0.950 . S
C362 C360 1.391 . S
C362 C363 1.400 . S
C363 C357 1.491 . S
C363 C362 1.400 . S
C363 C364 1.398 . S
C364 H352 0.950 . S
C364 C363 1.398 . S
C364 C365 1.391 . S
C365 H353 0.950 . S
C365 C361 1.393 . S
C365 C364 1.391 . S
H366 C374 0.950 . S
H367 C379 0.950 . S
H368 C376 0.950 . S
H369 C378 0.950 . S
H370 C380 0.950 . S
H371 C382 0.950 . S
H372 C384 0.950 . S
H373 C385 0.950 . S
C374 H366 0.950 . S
C374 C375 1.386 . S
C374 C376 1.391 . S
C375 C374 1.386 . S
C375 C379 1.393 . S
C376 H368 0.950 . S
C376 C374 1.391 . S
C376 C377 1.400 . S
C377 C376 1.400 . S
C377 C378 1.398 . S
C377 C383 1.491 . S
C378 H369 0.950 . S
C378 C377 1.398 . S
C378 C379 1.391 . S
C379 H367 0.950 . S
C379 C375 1.393 . S
C379 C378 1.391 . S
C380 H370 0.950 . S
C380 C381 1.386 . S
C380 C382 1.391 . S
C381 C380 1.386 . S
C381 C385 1.393 . S
C382 H371 0.950 . S
C382 C380 1.391 . S
C382 C383 1.400 . S
C383 C377 1.491 . S
C383 C382 1.400 . S
C383 C384 1.398 . S
C384 H372 0.950 . S
C384 C383 1.398 . S
C384 C385 1.391 . S
C385 H373 0.950 . S
C385 C381 1.393 . S
C385 C384 1.391 . S
H386 C394 0.950 . S
H387 C399 0.950 . S
H388 C396 0.950 . S
H389 C398 0.950 1_455 S
H390 C400 0.950 . S
H391 C402 0.950 . S
H392 C404 0.950 . S
H393 C405 0.950 . S
C394 H386 0.950 . S
C394 C395 1.386 . S
C394 C396 1.391 . S
C395 C394 1.386 . S
C395 C399 1.393 1_655 S
C396 H388 0.950 . S
C396 C394 1.391 . S
C396 C397 1.400 . S
C397 C396 1.400 . S
C397 C398 1.398 . S
C397 C403 1.491 . S
C398 H389 0.950 1_655 S
C398 C397 1.398 . S
C398 C399 1.391 1_655 S
C399 H387 0.950 . S
C399 C395 1.393 1_455 S
C399 C398 1.391 1_455 S
C400 H390 0.950 . S
C400 C401 1.386 . S
C400 C402 1.391 . S
C401 C400 1.386 . S
C401 C405 1.393 . S
C402 H391 0.950 . S
C402 C400 1.391 . S
C402 C403 1.400 . S
C403 C397 1.491 . S
C403 C402 1.400 . S
C403 C404 1.398 . S
C404 H392 0.950 . S
C404 C403 1.398 . S
C404 C405 1.391 . S
C405 H393 0.950 . S
C405 C401 1.393 . S
C405 C404 1.391 . S
H406 C414 0.950 . S
H407 C419 0.950 . S
H408 C416 0.950 . S
H409 C418 0.950 . S
H410 C420 0.950 . S
H411 C422 0.950 . S
H412 C424 0.950 . S
H413 C425 0.950 . S
C414 H406 0.950 . S
C414 C415 1.386 . S
C414 C416 1.391 . S
C415 C414 1.386 . S
C415 C419 1.393 . S
C416 H408 0.950 . S
C416 C414 1.391 . S
C416 C417 1.400 . S
C417 C416 1.400 . S
C417 C418 1.398 . S
C417 C423 1.491 . S
C418 H409 0.950 . S
C418 C417 1.398 . S
C418 C419 1.391 . S
C419 H407 0.950 . S
C419 C415 1.393 . S
C419 C418 1.391 . S
C420 H410 0.950 . S
C420 C421 1.386 . S
C420 C422 1.391 . S
C421 C420 1.386 . S
C421 C425 1.393 . S
C422 H411 0.950 . S
C422 C420 1.391 . S
C422 C423 1.400 . S
C423 C417 1.491 . S
C423 C422 1.400 . S
C423 C424 1.398 . S
C424 H412 0.950 . S
C424 C423 1.398 . S
C424 C425 1.391 . S
C425 H413 0.950 . S
C425 C421 1.393 . S
C425 C424 1.391 . S
H426 C434 0.950 . S
H427 C439 0.950 . S
H428 C436 0.950 . S
H429 C438 0.950 . S
H430 C440 0.950 . S
H431 C442 0.950 . S
H432 C444 0.950 . S
H433 C445 0.950 . S
C434 H426 0.950 . S
C434 C435 1.386 . S
C434 C436 1.391 . S
C435 C434 1.386 . S
C435 C439 1.393 . S
C436 H428 0.950 . S
C436 C434 1.391 . S
C436 C437 1.400 . S
C437 C436 1.400 . S
C437 C438 1.398 . S
C437 C443 1.491 . S
C438 H429 0.950 . S
C438 C437 1.398 . S
C438 C439 1.391 . S
C439 H427 0.950 . S
C439 C435 1.393 . S
C439 C438 1.391 . S
C440 H430 0.950 . S
C440 C441 1.386 . S
C440 C442 1.391 1_655 S
C441 C440 1.386 . S
C441 C445 1.393 . S
C442 H431 0.950 . S
C442 C440 1.391 1_455 S
C442 C443 1.400 . S
C443 C437 1.491 . S
C443 C442 1.400 . S
C443 C444 1.398 1_455 S
C444 H432 0.950 . S
C444 C443 1.398 1_655 S
C444 C445 1.391 . S
C445 H433 0.950 . S
C445 C441 1.393 . S
C445 C444 1.391 . S
H446 C454 0.950 . S
H447 C459 0.950 . S
H448 C456 0.950 . S
H449 C458 0.950 . S
H450 C460 0.950 . S
H451 C462 0.950 . S
H452 C464 0.950 . S
H453 C465 0.950 . S
C454 H446 0.950 . S
C454 C455 1.386 . S
C454 C456 1.391 . S
C455 C454 1.386 . S
C455 C459 1.393 . S
C456 H448 0.950 . S
C456 C454 1.391 . S
C456 C457 1.400 . S
C457 C456 1.400 . S
C457 C458 1.398 . S
C457 C463 1.491 . S
C458 H449 0.950 . S
C458 C457 1.398 . S
C458 C459 1.391 . S
C459 H447 0.950 . S
C459 C455 1.393 . S
C459 C458 1.391 . S
C460 H450 0.950 . S
C460 C461 1.386 . S
C460 C462 1.391 . S
C461 C460 1.386 . S
C461 C465 1.393 . S
C462 H451 0.950 . S
C462 C460 1.391 . S
C462 C463 1.400 . S
C463 C457 1.491 . S
C463 C462 1.400 . S
C463 C464 1.398 . S
C464 H452 0.950 . S
C464 C463 1.398 . S
C464 C465 1.391 . S
C465 H453 0.950 . S
C465 C461 1.393 . S
C465 C464 1.391 . S
H466 C474 0.950 . S
H467 C479 0.950 . S
H468 C476 0.950 . S
H469 C478 0.950 . S
H470 C480 0.950 . S
H471 C482 0.950 . S
H472 C484 0.950 1_565 S
H473 C485 0.950 . S
C474 H466 0.950 . S
C474 C475 1.386 . S
C474 C476 1.391 . S
C475 C474 1.386 . S
C475 C479 1.393 . S
C476 H468 0.950 . S
C476 C474 1.391 . S
C476 C477 1.400 1_565 S
C477 C476 1.400 1_545 S
C477 C478 1.398 . S
C477 C483 1.491 . S
C478 H469 0.950 . S
C478 C477 1.398 . S
C478 C479 1.391 1_545 S
C479 H467 0.950 . S
C479 C475 1.393 . S
C479 C478 1.391 1_565 S
C480 H470 0.950 . S
C480 C481 1.386 . S
C480 C482 1.391 . S
C481 C480 1.386 . S
C481 C485 1.393 . S
C482 H471 0.950 . S
C482 C480 1.391 . S
C482 C483 1.400 . S
C483 C477 1.491 . S
C483 C482 1.400 . S
C483 C484 1.398 . S
C484 H472 0.950 1_545 S
C484 C483 1.398 . S
C484 C485 1.391 . S
C485 H473 0.950 . S
C485 C481 1.393 . S
C485 C484 1.391 . S
C135 C33 1.050 . S
C141 C0 1.020 . S
C155 C19 1.068 . S
C161 C5 1.061 . S
C175 C14 1.008 . S
C181 C28 1.040 . S
C195 C70 1.012 . S
C201 C47 1.020 . S
C215 C61 1.002 . S
C221 C42 0.982 . S
C235 C56 1.025 . S
C241 C75 1.051 . S
C255 C84 1.006 . S
C261 C117 0.982 . S
C275 C89 0.999 . S
C281 C103 0.993 . S
C295 C98 0.971 . S
C301 C112 0.968 . S
C315 C11 1.382 . S
C321 C109 1.383 . S
C335 C23 1.414 . S
C341 C121 1.414 . S
C355 C93 1.398 . S
C361 C39 1.394 . S
C375 C65 1.374 . S
C381 C37 1.375 . S
C395 C9 1.424 . S
C401 C79 1.424 . S
C415 C51 1.408 . S
C421 C25 1.409 . S
C435 C107 1.399 . S
C441 C81 1.392 . S
C455 C53 1.380 . S
C461 C123 1.377 . S
C475 C95 1.417 . S
C481 C67 1.418 . S
