# Generated by pormake.
# Topology unj, (4)-cn, num edge types: 1
# Building blocks:
#     Node 0, Type 0, BuildingBlock: QUQFOY_clean_sbu_1, # of connection points: 4
#     Node 1, Type 0, BuildingBlock: QUQFOY_clean_sbu_1, # of connection points: 4
#     Node 2, Type 0, BuildingBlock: QUQFOY_clean_sbu_1, # of connection points: 4
#     Node 3, Type 0, BuildingBlock: QUQFOY_clean_sbu_1, # of connection points: 4
#     Node 4, Type 0, BuildingBlock: QUQFOY_clean_sbu_1, # of connection points: 4
#     Node 5, Type 0, BuildingBlock: QUQFOY_clean_sbu_1, # of connection points: 4
#     Edge 6, Type (0, 0), BuildingBlock: ZUJKAS_clean_linker_0, # of connection points: 2
#     Edge 7, Type (0, 0), BuildingBlock: ZUJKAS_clean_linker_0, # of connection points: 2
#     Edge 8, Type (0, 0), BuildingBlock: ZUJKAS_clean_linker_0, # of connection points: 2
#     Edge 9, Type (0, 0), BuildingBlock: ZUJKAS_clean_linker_0, # of connection points: 2
#     Edge 10, Type (0, 0), BuildingBlock: ZUJKAS_clean_linker_0, # of connection points: 2
#     Edge 11, Type (0, 0), BuildingBlock: ZUJKAS_clean_linker_0, # of connection points: 2
#     Edge 12, Type (0, 0), BuildingBlock: ZUJKAS_clean_linker_0, # of connection points: 2
#     Edge 13, Type (0, 0), BuildingBlock: ZUJKAS_clean_linker_0, # of connection points: 2
#     Edge 14, Type (0, 0), BuildingBlock: ZUJKAS_clean_linker_0, # of connection points: 2
#     Edge 15, Type (0, 0), BuildingBlock: ZUJKAS_clean_linker_0, # of connection points: 2
#     Edge 16, Type (0, 0), BuildingBlock: ZUJKAS_clean_linker_0, # of connection points: 2
#     Edge 17, Type (0, 0), BuildingBlock: ZUJKAS_clean_linker_0, # of connection points: 2
# Relax obj value: 0.136
# Max RMSD: 0.187
# Mean RMSD: 0.187
data_MOF--net-unj--node1-QUQFOY_clean_sbu_1--edge1-ZUJKAS_clean_linker_0
_symmetry_space_group_name_H-M    P1
_symmetry_Int_Tables_number       1
_symmetry_cell_setting            triclinic
loop_
_symmetry_equiv_pos_as_xyz
'x, y, z'
_cell_length_a     43.87289
_cell_length_b     43.840525
_cell_length_c     49.086665
_cell_angle_alpha  90.040661
_cell_angle_beta   90.008735
_cell_angle_gamma 119.99637
loop_
_atom_site_label
_atom_site_type_symbol
_atom_site_fract_x
_atom_site_fract_y
_atom_site_fract_z
_atom_type_partial_charge
O0 O 0.5024 0.22759 0.63015 0.0
Cd1 Cd 0.46637 0.22445 0.60136 0.0
Cd2 Cd 0.51905 0.28934 0.58868 0.0
O3 O 0.54672 0.27891 0.61751 0.0
O4 O 0.43049 0.17348 0.59889 0.0
O5 O 0.46496 0.20364 0.56449 0.0
C6 C 0.44042 0.17403 0.57409 0.0
C7 C 0.54429 0.30938 0.54588 0.0
C8 C 0.5342 0.25203 0.63288 0.0
C9 C 0.45215 0.28405 0.60924 0.0
O10 O 0.48409 0.30428 0.60258 0.0
O11 O 0.43907 0.25081 0.60895 0.0
O12 O 0.55478 0.32971 0.56694 0.0
O13 O 0.51928 0.27722 0.54915 0.0
O14 O 0.27664 0.5011 0.79543 0.0
Cd15 Cd 0.24339 0.4633 0.76776 0.0
Cd16 Cd 0.22946 0.51469 0.75462 0.0
O17 O 0.26723 0.54407 0.78324 0.0
O18 O 0.26047 0.42892 0.76638 0.0
O19 O 0.26073 0.45968 0.73056 0.0
C20 C 0.26778 0.43687 0.74103 0.0
C21 C 0.23369 0.53794 0.71118 0.0
C22 C 0.28282 0.53253 0.79827 0.0
C23 C 0.16935 0.44732 0.77652 0.0
O24 O 0.18012 0.47879 0.76892 0.0
O25 O 0.19017 0.43502 0.77669 0.0
O26 O 0.22276 0.54827 0.73168 0.0
O27 O 0.24258 0.51434 0.71541 0.0
O28 O 0.70411 0.1793 0.93452 0.0
Cd29 Cd 0.71876 0.22969 0.92187 0.0
Cd30 Cd 0.78318 0.24227 0.9371 0.0
O31 O 0.75676 0.18916 0.94642 0.0
O32 O 0.67897 0.22518 0.89938 0.0
O33 O 0.73224 0.24367 0.88274 0.0
C34 C 0.70009 0.23616 0.87883 0.0
C35 C 0.83368 0.26514 0.91023 0.0
C36 C 0.72384 0.16824 0.94391 0.0
C37 C 0.75404 0.28248 0.96657 0.0
O38 O 0.77935 0.27639 0.96409 0.0
O39 O 0.72712 0.26675 0.95133 0.0
O40 O 0.83435 0.2582 0.93567 0.0
O41 O 0.80397 0.25856 0.89977 0.0
O42 O 0.50476 0.7774 0.12852 0.0
Cd43 Cd 0.54201 0.78036 0.10116 0.0
Cd44 Cd 0.49007 0.71514 0.08786 0.0
O45 O 0.46286 0.72343 0.11853 0.0
O46 O 0.57812 0.8313 0.09937 0.0
O47 O 0.5455 0.8014 0.06406 0.0
C48 C 0.56957 0.83091 0.07419 0.0
C49 C 0.46405 0.69717 0.04505 0.0
C50 C 0.4741 0.75139 0.13257 0.0
C51 C 0.55728 0.72106 0.10813 0.0
O52 O 0.52632 0.70083 0.09929 0.0
O53 O 0.56893 0.75398 0.11033 0.0
O54 O 0.45434 0.67567 0.06535 0.0
O55 O 0.48861 0.72934 0.04913 0.0
O56 O 0.73394 0.50819 0.29651 0.0
Cd57 Cd 0.76643 0.54368 0.26728 0.0
Cd58 Cd 0.77806 0.49053 0.25486 0.0
O59 O 0.74081 0.46359 0.2844 0.0
O60 O 0.75189 0.58 0.26504 0.0
O61 O 0.74662 0.54511 0.23062 0.0
C62 C 0.74216 0.57002 0.24028 0.0
C63 C 0.77062 0.46521 0.21181 0.0
C64 C 0.7267 0.47647 0.29968 0.0
C65 C 0.84035 0.55766 0.27417 0.0
O66 O 0.82848 0.52557 0.26778 0.0
O67 O 0.82019 0.57073 0.27415 0.0
O68 O 0.78109 0.45441 0.23229 0.0
O69 O 0.76422 0.49062 0.21581 0.0
O70 O 0.30405 0.82407 0.43485 0.0
Cd71 Cd 0.28686 0.77317 0.42167 0.0
Cd72 Cd 0.22367 0.76401 0.43625 0.0
O73 O 0.25194 0.81728 0.44464 0.0
O74 O 0.32598 0.77476 0.40003 0.0
O75 O 0.27444 0.76128 0.38209 0.0
C76 C 0.30576 0.76604 0.37897 0.0
C77 C 0.17407 0.74186 0.40839 0.0
C78 C 0.2852 0.83675 0.44316 0.0
C79 C 0.24907 0.72145 0.46659 0.0
O80 O 0.22551 0.73008 0.46448 0.0
O81 O 0.27549 0.73485 0.45074 0.0
O82 O 0.17303 0.74996 0.43351 0.0
O83 O 0.20368 0.74691 0.39883 0.0
H84 H 0.39023 0.1082 0.58994 0.0
H85 H 0.36605 0.05355 0.56387 0.0
H86 H 0.43052 0.11053 0.49511 0.0
H87 H 0.45494 0.1657 0.52108 0.0
H88 H 0.35759 0.05957 0.4825 0.0
H89 H 0.42272 0.00347 0.54551 0.0
H90 H 0.39825 0.01898 0.56468 0.0
H91 H 0.43641 0.04977 0.54576 0.0
C92 C 0.39927 0.10924 0.56924 0.0
C93 C 0.4247 0.14131 0.55764 0.0
C94 C 0.38549 0.07792 0.55442 0.0
C95 C 0.39689 0.07797 0.52774 0.0
C96 C 0.42156 0.10999 0.51576 0.0
H97 H 0.3556 0.88529 0.4444 0.0
H98 H 0.38374 0.94549 0.46204 0.0
C99 C 0.43548 0.14143 0.53063 0.0
C100 C 0.38315 0.04438 0.51261 0.0
H101 H 0.37831 0.96427 0.51492 0.0
C102 C 0.3623 0.03879 0.48941 0.0
C103 C 0.38975 0.01754 0.52151 0.0
C104 C 0.41326 0.02273 0.54558 0.0
C105 C 0.34687 0.00652 0.47537 0.0
C106 C 0.35223 0.97914 0.485 0.0
C107 C 0.37402 0.9852 0.50768 0.0
C108 C 0.33492 0.94367 0.47233 0.0
C109 C 0.32507 1.00203 0.45033 0.0
C110 C 0.2981 0.92267 0.47224 0.0
C111 C 0.28189 0.88821 0.4622 0.0
C112 C 0.30222 0.874 0.45218 0.0
C113 C 0.33911 0.89535 0.45193 0.0
C114 C 0.35527 0.92978 0.46201 0.0
H115 H 0.33142 0.02784 0.44143 0.0
H116 H 0.3292 0.98628 0.43455 0.0
H117 H 0.2968 0.9879 0.45597 0.0
H118 H 0.28191 0.9326 0.48063 0.0
H119 H 0.25345 0.87251 0.4628 0.0
H120 H 0.4757 0.34985 0.62975 0.0
H121 H 0.44082 0.37396 0.64885 0.0
H122 H 0.34537 0.27809 0.62816 0.0
H123 H 0.38031 0.25308 0.61032 0.0
H124 H 0.39534 0.38959 0.62946 0.0
H125 H 0.32738 0.28451 0.70657 0.0
H126 H 0.36315 0.288 0.68622 0.0
H127 H 0.31927 0.26787 0.67239 0.0
C128 C 0.44726 0.33389 0.62923 0.0
C129 C 0.43074 0.29942 0.6188 0.0
C130 C 0.42732 0.34773 0.64014 0.0
C131 C 0.39041 0.3276 0.64053 0.0
C132 C 0.3738 0.29373 0.62895 0.0
H133 H 0.26876 0.43065 0.68551 0.0
H134 H 0.29606 0.40297 0.65931 0.0
C135 C 0.39378 0.27955 0.61856 0.0
C136 C 0.3697 0.34217 0.65344 0.0
H137 H 0.30859 0.32629 0.7027 0.0
C138 C 0.37638 0.37575 0.6455 0.0
C139 C 0.34524 0.32433 0.67462 0.0
C140 C 0.33856 0.28937 0.68566 0.0
C141 C 0.35985 0.39225 0.65841 0.0
C142 C 0.33477 0.37405 0.67914 0.0
C143 C 0.3276 0.34018 0.68669 0.0
C144 C 0.31732 0.39031 0.6946 0.0
C145 C 0.37068 0.42957 0.65045 0.0
C146 C 0.31892 0.39126 0.72318 0.0
C147 C 0.3025 0.40607 0.73814 0.0
C148 C 0.28451 0.42076 0.72485 0.0
C149 C 0.28279 0.41985 0.69626 0.0
C150 C 0.29863 0.40429 0.68127 0.0
H151 H 0.39685 0.44292 0.64036 0.0
H152 H 0.35123 0.4292 0.63581 0.0
H153 H 0.37176 0.4454 0.66847 0.0
H154 H 0.33313 0.38069 0.734 0.0
H155 H 0.30439 0.40649 0.76016 0.0
H156 H 0.90083 0.30164 0.92904 0.0
H157 H 0.95514 0.3294 0.90263 0.0
H158 H 0.89512 0.29062 0.82834 0.0
H159 H 0.84039 0.26438 0.85476 0.0
H160 H 0.98479 0.30431 0.87185 0.0
H161 H 0.95567 0.39085 0.80794 0.0
H162 H 0.92835 0.36639 0.83633 0.0
H163 H 0.92382 0.34508 0.80399 0.0
C164 C 0.89917 0.29916 0.90706 0.0
C165 C 0.86637 0.28105 0.89393 0.0
C166 C 0.93027 0.31501 0.89195 0.0
C167 C 0.92936 0.31269 0.86339 0.0
C168 C 0.89658 0.29377 0.85025 0.0
H169 H 0.12955 0.37536 0.77909 0.0
H170 H 0.06989 0.34017 0.79737 0.0
C171 C 0.86532 0.27854 0.86537 0.0
C172 C 0.96292 0.32979 0.84776 0.0
H173 H 0.00742 0.38924 0.79729 0.0
C174 C 0.98973 0.32292 0.85555 0.0
C175 C 0.96956 0.35435 0.82665 0.0
C176 C 0.94297 0.36491 0.8184 0.0
C177 C 0.02314 0.34042 0.84338 0.0
C178 C 0.02954 0.36439 0.82184 0.0
C179 C 1.00247 0.37067 0.81362 0.0
C180 C 0.06474 0.38512 0.80887 0.0
C181 C 0.05158 0.33419 0.85469 0.0
C182 C 0.08108 0.42201 0.80788 0.0
C183 C 0.11465 0.44204 0.7967 0.0
C184 C 0.13287 0.42566 0.7866 0.0
C185 C 0.11631 0.38871 0.78705 0.0
C186 C 0.08232 0.3686 0.7977 0.0
H187 H 0.04539 0.32344 0.87572 0.0
H188 H 0.05386 0.31469 0.84172 0.0
H189 H 0.07745 0.35889 0.85502 0.0
H190 H 0.06812 0.43544 0.81627 0.0
H191 H 0.12673 0.47047 0.7967 0.0
H192 H 0.61887 0.89662 0.0911 0.0
H193 H 0.64422 0.9515 0.0653 0.0
H194 H 0.58362 0.89497 0.9948 0.0
H195 H 0.55799 0.83958 0.02051 0.0
H196 H 0.65793 0.9472 0.98486 0.0
H197 H 0.5864 0.99993 0.04398 0.0
H198 H 0.61002 0.98445 0.06427 0.0
H199 H 0.57339 0.9538 0.04388 0.0
C200 C 0.61097 0.89572 0.07007 0.0
C201 C 0.58621 0.86373 0.05791 0.0
C202 C 0.62543 0.92716 0.0554 0.0
C203 C 0.61542 0.92729 0.0283 0.0
C204 C 0.59152 0.89535 0.01577 0.0
H205 H 0.65441 0.11705 0.94274 0.0
H206 H 0.62783 0.05712 0.96052 0.0
C207 C 0.5769 0.86379 0.03049 0.0
C208 C 0.62953 0.96101 0.01339 0.0
H209 H 0.63159 0.03985 0.01444 0.0
C210 C 0.65204 0.96743 0.99115 0.0
C211 C 0.62144 0.98711 0.02152 0.0
C212 C 0.59625 0.981 0.04456 0.0
C213 C 0.66752 0.99979 0.97728 0.0
C214 C 0.66045 0.02637 0.98609 0.0
C215 C 0.63716 0.01952 0.00785 0.0
C216 C 0.67713 0.06171 0.97331 0.0
C217 C 0.69113 0.00522 0.95325 0.0
C218 C 0.71373 0.08416 0.97455 0.0
C219 C 0.72907 0.11853 0.96442 0.0
C220 C 0.70804 0.13113 0.953 0.0
C221 C 0.67142 0.10828 0.95138 0.0
C222 C 0.65615 0.07398 0.96154 0.0
H223 H 0.68664 0.97977 0.94481 0.0
H224 H 0.68692 0.02014 0.93683 0.0
H225 H 0.71901 0.02065 0.95988 0.0
H226 H 0.73034 0.07544 0.98403 0.0
H227 H 0.75732 0.13542 0.96608 0.0
H228 H 0.72661 0.62017 0.25657 0.0
H229 H 0.69689 0.64516 0.23055 0.0
H230 H 0.69026 0.58185 0.16112 0.0
H231 H 0.72016 0.55656 0.18705 0.0
H232 H 0.71338 0.65667 0.15012 0.0
H233 H 0.58993 0.58722 0.21038 0.0
H234 H 0.62952 0.61091 0.23015 0.0
H235 H 0.6226 0.57362 0.21017 0.0
C236 C 0.71899 0.61158 0.23573 0.0
C237 C 0.72557 0.58619 0.22393 0.0
C238 C 0.70191 0.62585 0.22093 0.0
C239 C 0.69106 0.61503 0.19406 0.0
C240 C 0.69836 0.59041 0.1819 0.0
H241 H 0.53977 0.6518 0.10749 0.0
H242 H 0.57359 0.62599 0.1257 0.0
C243 C 0.71536 0.57596 0.19675 0.0
C244 C 0.67147 0.62904 0.179 0.0
H245 H 0.59492 0.63142 0.17991 0.0
C246 C 0.68739 0.65104 0.15647 0.0
C247 C 0.63747 0.6213 0.18723 0.0
C248 C 0.61864 0.59674 0.21066 0.0
C249 C 0.67047 0.66629 0.14235 0.0
C250 C 0.63695 0.65949 0.15118 0.0
C251 C 0.62073 0.63677 0.17329 0.0
C252 C 0.61813 0.67574 0.138 0.0
C253 C 0.68843 0.68935 0.11802 0.0
C254 C 0.63206 0.71235 0.13876 0.0
C255 C 0.61276 0.72727 0.12838 0.0
C256 C 0.57907 0.70578 0.11718 0.0
C257 C 0.56559 0.66916 0.11596 0.0
C258 C 0.58487 0.65432 0.12636 0.0
H259 H 0.70946 0.68485 0.10982 0.0
H260 H 0.66918 0.68455 0.10154 0.0
H261 H 0.70069 0.7174 0.1242 0.0
H262 H 0.65742 0.72931 0.14811 0.0
H263 H 0.6239 0.75553 0.12974 0.0
H264 H 0.16918 0.73908 0.35269 0.0
H265 H 0.11535 0.71368 0.3251 0.0
H266 H 0.05282 0.68238 0.39848 0.0
H267 H 0.10627 0.70922 0.42593 0.0
H268 H 0.06382 0.65016 0.31923 0.0
H269 H 0.00706 0.72803 0.36008 0.0
H270 H 0.05155 0.73875 0.36763 0.0
H271 H 0.0152 0.7059 0.38732 0.0
C272 C 0.1439 0.72709 0.36286 0.0
C273 C 0.14191 0.7265 0.39145 0.0
C274 C 0.11316 0.71256 0.34711 0.0
C275 C 0.07992 0.69687 0.35967 0.0
C276 C 0.07804 0.69551 0.38824 0.0
H277 H 0.88305 0.53498 0.29515 0.0
H278 H 0.94255 0.57072 0.313 0.0
C279 C 0.10867 0.71061 0.40395 0.0
C280 C 0.04711 0.68046 0.3431 0.0
H281 H 0.96619 0.67328 0.33819 0.0
C282 C 0.04268 0.65562 0.3231 0.0
C283 C 0.01973 0.68812 0.34753 0.0
C284 C 0.02382 0.71697 0.36659 0.0
C285 C 0.01112 0.63713 0.30837 0.0
C286 C 0.98263 0.64254 0.31458 0.0
C287 C 0.98767 0.66855 0.33367 0.0
C288 C 0.94703 0.62078 0.3024 0.0
C289 C 0.00894 0.61227 0.28618 0.0
C290 C 0.92899 0.63684 0.29127 0.0
C291 C 0.89445 0.61638 0.2818 0.0
C292 C 0.87742 0.57943 0.28293 0.0
C293 C 0.89565 0.56338 0.29362 0.0
C294 C 0.92987 0.58384 0.30363 0.0
H295 H 0.03527 0.62092 0.27722 0.0
H296 H 0.99928 0.58569 0.295 0.0
H297 H 0.99082 0.6103 0.26961 0.0
H298 H 0.94151 0.66527 0.2902 0.0
H299 H 0.88105 0.62949 0.27365 0.0
H300 H 0.59925 0.3745 0.53413 0.0
H301 H 0.62603 0.39758 0.48981 0.0
H302 H 0.55347 0.29845 0.45215 0.0
H303 H 0.52621 0.275 0.49662 0.0
H304 H 0.65759 0.36976 0.45425 0.0
H305 H 0.54457 0.37379 0.4065 0.0
H306 H 0.54815 0.37022 0.44288 0.0
H307 H 0.53539 0.33258 0.42142 0.0
C308 C 0.58886 0.35754 0.51646 0.0
C309 C 0.56051 0.32292 0.5189 0.0
C310 C 0.60425 0.37079 0.49115 0.0
C311 C 0.5915 0.34985 0.4677 0.0
C312 C 0.56335 0.31519 0.46998 0.0
H313 H 0.70814 0.40897 0.31398 0.0
H314 H 0.67309 0.37542 0.35322 0.0
C315 C 0.54794 0.3018 0.4954 0.0
C316 C 0.60839 0.36449 0.44109 0.0
H317 H 0.59528 0.39226 0.37945 0.0
C318 C 0.64393 0.37444 0.43779 0.0
C319 C 0.59051 0.37083 0.41983 0.0
C320 C 0.55261 0.36159 0.42273 0.0
C321 C 0.66225 0.39094 0.41387 0.0
C322 C 0.6444 0.3973 0.39258 0.0
C323 C 0.60876 0.38708 0.39576 0.0
C324 C 0.66296 0.4162 0.36749 0.0
C325 C 0.70088 0.40252 0.41191 0.0
C326 C 0.66788 0.44978 0.36206 0.0
C327 C 0.68786 0.46905 0.33964 0.0
C328 C 0.70314 0.45498 0.32214 0.0
C329 C 0.69697 0.42073 0.32711 0.0
C330 C 0.67704 0.40152 0.34957 0.0
H331 H 0.71223 0.40203 0.43203 0.0
H332 H 0.70433 0.38451 0.398 0.0
H333 H 0.71599 0.42957 0.40344 0.0
H334 H 0.65711 0.4615 0.37564 0.0
H335 H 0.69191 0.49525 0.33637 0.0
H336 H 0.20234 0.69639 0.50888 0.0
H337 H 0.2013 0.66027 0.54706 0.0
H338 H 0.2884 0.65439 0.51209 0.0
H339 H 0.2903 0.69143 0.4741 0.0
H340 H 0.19172 0.59416 0.55031 0.0
H341 H 0.32534 0.69184 0.58748 0.0
H342 H 0.30273 0.70234 0.56171 0.0
H343 H 0.32397 0.67764 0.55297 0.0
C344 C 0.22123 0.68734 0.5092 0.0
C345 C 0.24666 0.69714 0.48855 0.0
C346 C 0.22056 0.66664 0.53106 0.0
C347 C 0.24521 0.65519 0.53272 0.0
C348 C 0.26972 0.66369 0.51159 0.0
H349 H 0.26404 0.52952 0.665 0.0
H350 H 0.26741 0.5552 0.61982 0.0
C351 C 0.27061 0.68468 0.4898 0.0
C352 C 0.24542 0.63501 0.55692 0.0
H353 H 0.29518 0.63835 0.61168 0.0
C354 C 0.21444 0.60371 0.5636 0.0
C355 C 0.27508 0.64756 0.57432 0.0
C356 C 0.30858 0.68183 0.56897 0.0
C357 C 0.21214 0.58501 0.58744 0.0
C358 C 0.24153 0.5979 0.60495 0.0
C359 C 0.27283 0.62852 0.59797 0.0
C360 C 0.23916 0.58172 0.63182 0.0
C361 C 0.17813 0.55196 0.59417 0.0
C362 C 0.22241 0.58845 0.65335 0.0
C363 C 0.22071 0.5742 0.67909 0.0
C364 C 0.23561 0.55275 0.68374 0.0
C365 C 0.25227 0.54588 0.66203 0.0
C366 C 0.25423 0.56049 0.63626 0.0
H367 H 0.15962 0.5425 0.57665 0.0
H368 H 0.18341 0.53073 0.60054 0.0
H369 H 0.16523 0.55732 0.6115 0.0
H370 H 0.21083 0.60498 0.65025 0.0
H371 H 0.20763 0.57996 0.69532 0.0
H372 H 0.73532 0.25198 0.83003 0.0
H373 H 0.71329 0.25719 0.78527 0.0
H374 H 0.61445 0.23345 0.82173 0.0
H375 H 0.63602 0.22818 0.8663 0.0
H376 H 0.64943 0.20365 0.75746 0.0
H377 H 0.64796 0.32724 0.77895 0.0
H378 H 0.67354 0.31332 0.79878 0.0
H379 H 0.62703 0.29373 0.80451 0.0
C380 C 0.70895 0.24801 0.8285 0.0
C381 C 0.68746 0.23979 0.85173 0.0
C382 C 0.69642 0.25092 0.80295 0.0
C383 C 0.66242 0.24609 0.80032 0.0
C384 C 0.64094 0.23776 0.82343 0.0
H385 H 0.51661 0.19835 0.66924 0.0
H386 H 0.55141 0.19731 0.70774 0.0
C387 C 0.6533 0.23463 0.84886 0.0
C388 C 0.64881 0.24907 0.77346 0.0
H389 H 0.61638 0.29479 0.73971 0.0
C390 C 0.64255 0.22378 0.75339 0.0
C391 C 0.64024 0.27559 0.76818 0.0
C392 C 0.64779 0.30424 0.78862 0.0
C393 C 0.62656 0.2235 0.72852 0.0
C394 C 0.61636 0.24898 0.72381 0.0
C395 C 0.62397 0.27511 0.74345 0.0
C396 C 0.59659 0.24837 0.69913 0.0
C397 C 0.62054 0.19586 0.70756 0.0
C398 C 0.61034 0.27753 0.68163 0.0
C399 C 0.59047 0.27829 0.65964 0.0
C400 C 0.55628 0.25001 0.6549 0.0
C401 C 0.54285 0.22055 0.67223 0.0
C402 C 0.56279 0.21979 0.69417 0.0
H403 H 0.63821 0.18486 0.71091 0.0
H404 H 0.59297 0.17391 0.70905 0.0
H405 H 0.62478 0.20683 0.68662 0.0
H406 H 0.63629 0.29994 0.68522 0.0
H407 H 0.60165 0.30141 0.64674 0.0
H408 H 0.32062 0.51651 0.83403 0.0
H409 H 0.35528 0.55125 0.87301 0.0
H410 H 0.33394 0.63409 0.8515 0.0
H411 H 0.29892 0.59945 0.81253 0.0
H412 H 0.41485 0.62127 0.87701 0.0
H413 H 0.29618 0.60625 0.93034 0.0
H414 H 0.29332 0.57947 0.90145 0.0
H415 H 0.30347 0.62415 0.89648 0.0
C416 C 0.32348 0.54223 0.83741 0.0
C417 C 0.30665 0.55501 0.82028 0.0
C418 C 0.34339 0.56208 0.85967 0.0
C419 C 0.34673 0.59498 0.86533 0.0
C420 C 0.33121 0.6085 0.84769 0.0
H421 H 0.48114 0.73408 0.99696 0.0
H422 H 0.45407 0.71245 0.95211 0.0
C423 C 0.31132 0.58869 0.82538 0.0
C424 C 0.36503 0.61417 0.89044 0.0
H425 H 0.35051 0.63902 0.95282 0.0
C426 C 0.40094 0.62548 0.89352 0.0
C427 C 0.34661 0.61924 0.91199 0.0
C428 C 0.30771 0.60646 0.91015 0.0
C429 C 0.41887 0.6414 0.91779 0.0
C430 C 0.40039 0.6463 0.93937 0.0
C431 C 0.36462 0.63544 0.93612 0.0
C432 C 0.41687 0.66002 0.96629 0.0
C433 C 0.45708 0.65166 0.92059 0.0
C434 C 0.40447 0.63792 0.98911 0.0
C435 C 0.41974 0.65014 0.01464 0.0
C436 C 0.44763 0.68486 0.01793 0.0
C437 C 0.45976 0.70718 0.99508 0.0
C438 C 0.44447 0.69483 0.96944 0.0
H439 H 0.4658 0.64066 0.9039 0.0
H440 H 0.47359 0.68079 0.92006 0.0
H441 H 0.46176 0.64247 0.9404 0.0
H442 H 0.38312 0.611 0.9871 0.0
H443 H 0.40969 0.63227 0.0318 0.0
H444 H 0.70298 0.29842 0.98018 0.0
H445 H 0.70352 0.33485 0.01818 0.0
H446 H 0.80773 0.35698 0.04033 0.0
H447 H 0.80766 0.32099 0.00234 0.0
H448 H 0.70963 0.3223 0.07255 0.0
H449 H 0.81716 0.45458 0.04274 0.0
H450 H 0.79615 0.41854 0.01883 0.0
H451 H 0.82979 0.42147 0.04145 0.0
C452 C 0.72624 0.31143 0.99289 0.0
C453 C 0.75527 0.30672 0.9882 0.0
C454 C 0.72647 0.33223 0.0146 0.0
C455 C 0.75583 0.34898 0.03186 0.0
C456 C 0.7851 0.34491 0.02693 0.0
H457 H 0.77707 0.40826 0.19884 0.0
H458 H 0.77068 0.38128 0.15416 0.0
C459 C 0.78489 0.32409 0.00528 0.0
C460 C 0.75486 0.36832 0.05634 0.0
H461 H 0.79988 0.44698 0.08979 0.0
C462 C 0.72907 0.3497 0.07616 0.0
C463 C 0.77999 0.40417 0.06089 0.0
C464 C 0.80713 0.42599 0.03973 0.0
C465 C 0.72874 0.3655 0.10093 0.0
C466 C 0.75511 0.40069 0.10612 0.0
C467 C 0.7799 0.41987 0.08583 0.0
C468 C 0.75857 0.41726 0.13311 0.0
C469 C 0.70044 0.34426 0.12152 0.0
C470 C 0.75449 0.44687 0.13598 0.0
C471 C 0.75811 0.46243 0.1616 0.0
C472 C 0.76628 0.44882 0.18465 0.0
C473 C 0.77066 0.41935 0.18155 0.0
C474 C 0.76686 0.40376 0.15604 0.0
H475 H 0.67721 0.32168 0.11184 0.0
H476 H 0.71109 0.33359 0.13698 0.0
H477 H 0.6917 0.3609 0.1322 0.0
H478 H 0.7483 0.45778 0.11844 0.0
H479 H 0.75471 0.48519 0.1633 0.0
H480 H 0.28362 0.77312 0.32843 0.0
H481 H 0.30861 0.77084 0.28432 0.0
H482 H 0.38085 0.74626 0.32515 0.0
H483 H 0.35734 0.75048 0.36912 0.0
H484 H 0.4147 0.79447 0.2898 0.0
H485 H 0.29515 0.69025 0.23877 0.0
H486 H 0.29036 0.72676 0.2494 0.0
H487 H 0.29597 0.70004 0.27453 0.0
C488 C 0.30462 0.76692 0.32788 0.0
C489 C 0.3186 0.76203 0.35215 0.0
C490 C 0.31872 0.76536 0.30265 0.0
C491 C 0.34631 0.75782 0.30127 0.0
C492 C 0.35964 0.75217 0.32559 0.0
H493 H 0.42171 0.69647 0.16059 0.0
H494 H 0.39 0.69945 0.20053 0.0
C495 C 0.34615 0.75454 0.35074 0.0
C496 C 0.36287 0.75769 0.27485 0.0
H497 H 0.34602 0.72167 0.21104 0.0
C498 C 0.39963 0.77841 0.27263 0.0
C499 C 0.34332 0.73653 0.25246 0.0
C500 C 0.30408 0.71187 0.25395 0.0
C501 C 0.41744 0.77822 0.24897 0.0
C502 C 0.39784 0.758 0.22624 0.0
C503 C 0.36103 0.73751 0.22832 0.0
C504 C 0.41522 0.75637 0.2007 0.0
C505 C 0.4572 0.79863 0.24915 0.0
C506 C 0.43921 0.78727 0.18695 0.0
C507 C 0.45798 0.78566 0.1645 0.0
C508 C 0.45226 0.75303 0.15484 0.0
C509 C 0.4267 0.722 0.16759 0.0
C510 C 0.40853 0.72368 0.19041 0.0
H511 H 0.46785 0.8035 0.27023 0.0
H512 H 0.46825 0.78444 0.23782 0.0
H513 H 0.46652 0.82463 0.23938 0.0
H514 H 0.44394 0.81273 0.19386 0.0
H515 H 0.47714 0.80997 0.15482 0.0
loop_
_geom_bond_atom_site_label_1
_geom_bond_atom_site_label_2
_geom_bond_distance
_geom_bond_site_symmetry_2
_ccdc_geom_bond_type
O0 Cd1 2.223 . S
O0 C8 1.315 . S
Cd1 O0 2.223 . S
Cd1 O4 2.297 . S
Cd1 O5 2.439 . S
Cd1 O11 2.240 . S
Cd2 O3 2.240 . S
Cd2 O10 2.223 . S
Cd2 O12 2.297 . S
Cd2 O13 2.439 . S
O3 Cd2 2.240 . S
O3 C8 1.279 . S
O4 Cd1 2.297 . S
O4 C6 1.247 . S
O5 Cd1 2.439 . S
O5 C6 1.208 . S
C6 O4 1.247 . S
C6 O5 1.208 . S
C7 O12 1.247 . S
C7 O13 1.208 . S
C8 O0 1.315 . S
C8 O3 1.279 . S
C9 O10 1.315 . S
C9 O11 1.279 . S
O10 Cd2 2.223 . S
O10 C9 1.315 . S
O11 Cd1 2.240 . S
O11 C9 1.279 . S
O12 Cd2 2.297 . S
O12 C7 1.247 . S
O13 Cd2 2.439 . S
O13 C7 1.208 . S
O14 Cd15 2.223 . S
O14 C22 1.315 . S
Cd15 O14 2.223 . S
Cd15 O18 2.297 . S
Cd15 O19 2.439 . S
Cd15 O25 2.240 . S
Cd16 O17 2.240 . S
Cd16 O24 2.223 . S
Cd16 O26 2.297 . S
Cd16 O27 2.439 . S
O17 Cd16 2.240 . S
O17 C22 1.279 . S
O18 Cd15 2.297 . S
O18 C20 1.247 . S
O19 Cd15 2.439 . S
O19 C20 1.208 . S
C20 O18 1.247 . S
C20 O19 1.208 . S
C21 O26 1.247 . S
C21 O27 1.208 . S
C22 O14 1.315 . S
C22 O17 1.279 . S
C23 O24 1.315 . S
C23 O25 1.279 . S
O24 Cd16 2.223 . S
O24 C23 1.315 . S
O25 Cd15 2.240 . S
O25 C23 1.279 . S
O26 Cd16 2.297 . S
O26 C21 1.247 . S
O27 Cd16 2.439 . S
O27 C21 1.208 . S
O28 Cd29 2.223 . S
O28 C36 1.315 . S
Cd29 O28 2.223 . S
Cd29 O32 2.297 . S
Cd29 O33 2.439 . S
Cd29 O39 2.240 . S
Cd30 O31 2.240 . S
Cd30 O38 2.223 . S
Cd30 O40 2.297 . S
Cd30 O41 2.439 . S
O31 Cd30 2.240 . S
O31 C36 1.279 . S
O32 Cd29 2.297 . S
O32 C34 1.247 . S
O33 Cd29 2.439 . S
O33 C34 1.208 . S
C34 O32 1.247 . S
C34 O33 1.208 . S
C35 O40 1.247 . S
C35 O41 1.208 . S
C36 O28 1.315 . S
C36 O31 1.279 . S
C37 O38 1.315 . S
C37 O39 1.279 . S
O38 Cd30 2.223 . S
O38 C37 1.315 . S
O39 Cd29 2.240 . S
O39 C37 1.279 . S
O40 Cd30 2.297 . S
O40 C35 1.247 . S
O41 Cd30 2.439 . S
O41 C35 1.208 . S
O42 Cd43 2.223 . S
O42 C50 1.315 . S
Cd43 O42 2.223 . S
Cd43 O46 2.297 . S
Cd43 O47 2.439 . S
Cd43 O53 2.240 . S
Cd44 O45 2.240 . S
Cd44 O52 2.223 . S
Cd44 O54 2.297 . S
Cd44 O55 2.439 . S
O45 Cd44 2.240 . S
O45 C50 1.279 . S
O46 Cd43 2.297 . S
O46 C48 1.247 . S
O47 Cd43 2.439 . S
O47 C48 1.208 . S
C48 O46 1.247 . S
C48 O47 1.208 . S
C49 O54 1.247 . S
C49 O55 1.208 . S
C50 O42 1.315 . S
C50 O45 1.279 . S
C51 O52 1.315 . S
C51 O53 1.279 . S
O52 Cd44 2.223 . S
O52 C51 1.315 . S
O53 Cd43 2.240 . S
O53 C51 1.279 . S
O54 Cd44 2.297 . S
O54 C49 1.247 . S
O55 Cd44 2.439 . S
O55 C49 1.208 . S
O56 Cd57 2.223 . S
O56 C64 1.315 . S
Cd57 O56 2.223 . S
Cd57 O60 2.297 . S
Cd57 O61 2.439 . S
Cd57 O67 2.240 . S
Cd58 O59 2.240 . S
Cd58 O66 2.223 . S
Cd58 O68 2.297 . S
Cd58 O69 2.439 . S
O59 Cd58 2.240 . S
O59 C64 1.279 . S
O60 Cd57 2.297 . S
O60 C62 1.247 . S
O61 Cd57 2.439 . S
O61 C62 1.208 . S
C62 O60 1.247 . S
C62 O61 1.208 . S
C63 O68 1.247 . S
C63 O69 1.208 . S
C64 O56 1.315 . S
C64 O59 1.279 . S
C65 O66 1.315 . S
C65 O67 1.279 . S
O66 Cd58 2.223 . S
O66 C65 1.315 . S
O67 Cd57 2.240 . S
O67 C65 1.279 . S
O68 Cd58 2.297 . S
O68 C63 1.247 . S
O69 Cd58 2.439 . S
O69 C63 1.208 . S
O70 Cd71 2.223 . S
O70 C78 1.315 . S
Cd71 O70 2.223 . S
Cd71 O74 2.297 . S
Cd71 O75 2.439 . S
Cd71 O81 2.240 . S
Cd72 O73 2.240 . S
Cd72 O80 2.223 . S
Cd72 O82 2.297 . S
Cd72 O83 2.439 . S
O73 Cd72 2.240 . S
O73 C78 1.279 . S
O74 Cd71 2.297 . S
O74 C76 1.247 . S
O75 Cd71 2.439 . S
O75 C76 1.208 . S
C76 O74 1.247 . S
C76 O75 1.208 . S
C77 O82 1.247 . S
C77 O83 1.208 . S
C78 O70 1.315 . S
C78 O73 1.279 . S
C79 O80 1.315 . S
C79 O81 1.279 . S
O80 Cd72 2.223 . S
O80 C79 1.315 . S
O81 Cd71 2.240 . S
O81 C79 1.279 . S
O82 Cd72 2.297 . S
O82 C77 1.247 . S
O83 Cd72 2.439 . S
O83 C77 1.208 . S
H84 C92 0.929 . S
H85 C94 0.930 . S
H86 C96 0.930 . S
H87 C99 0.929 . S
H88 C102 0.930 1_545 S
H89 C104 0.960 . S
H90 C104 0.960 . S
H91 C104 0.960 . S
C92 H84 0.929 . S
C92 C93 1.377 . S
C92 C94 1.384 . S
C93 C92 1.377 . S
C93 C99 1.390 . S
C94 H85 0.930 . S
C94 C92 1.384 . S
C94 C95 1.372 . S
C95 C94 1.372 . S
C95 C96 1.400 . S
C95 C100 1.462 1_545 S
C96 H86 0.930 . S
C96 C95 1.400 . S
C96 C99 1.386 . S
H97 C113 0.930 . S
H98 C114 0.931 . S
C99 H87 0.929 . S
C99 C93 1.390 . S
C99 C96 1.386 . S
C100 C95 1.462 1_565 S
C100 C102 1.391 . S
C100 C103 1.435 . S
H101 C107 0.930 . S
C102 H88 0.930 1_565 S
C102 C100 1.391 . S
C102 C105 1.403 . S
C103 C100 1.435 . S
C103 C104 1.524 . S
C103 C107 1.400 . S
C104 H89 0.960 . S
C104 H90 0.960 . S
C104 H91 0.960 . S
C104 C103 1.524 . S
C105 C102 1.403 . S
C105 C106 1.392 . S
C105 C109 1.495 . S
C106 C105 1.392 . S
C106 C107 1.385 . S
C106 C108 1.478 . S
C107 H101 0.930 . S
C107 C103 1.400 . S
C107 C106 1.385 . S
C108 C106 1.478 . S
C108 C110 1.381 . S
C108 C114 1.383 . S
C109 C105 1.495 . S
C109 H115 0.959 . S
C109 H116 0.961 . S
C109 H117 0.960 . S
C110 C108 1.381 . S
C110 C111 1.394 . S
C110 H118 0.930 . S
C111 C110 1.394 . S
C111 C112 1.383 . S
C111 H119 0.929 . S
C112 C111 1.383 . S
C112 C113 1.377 . S
C113 H97 0.930 . S
C113 C112 1.377 . S
C113 C114 1.379 . S
C114 H98 0.931 . S
C114 C108 1.383 . S
C114 C113 1.379 . S
H115 C109 0.959 . S
H116 C109 0.961 . S
H117 C109 0.960 . S
H118 C110 0.930 . S
H119 C111 0.929 . S
H120 C128 0.929 . S
H121 C130 0.930 . S
H122 C132 0.930 . S
H123 C135 0.929 . S
H124 C138 0.930 . S
H125 C140 0.960 . S
H126 C140 0.960 . S
H127 C140 0.960 . S
C128 H120 0.929 . S
C128 C129 1.377 . S
C128 C130 1.384 . S
C129 C128 1.377 . S
C129 C135 1.390 . S
C130 H121 0.930 . S
C130 C128 1.384 . S
C130 C131 1.372 . S
C131 C130 1.372 . S
C131 C132 1.400 . S
C131 C136 1.490 . S
C132 H122 0.930 . S
C132 C131 1.400 . S
C132 C135 1.386 . S
H133 C149 0.930 . S
H134 C150 0.931 . S
C135 H123 0.929 . S
C135 C129 1.390 . S
C135 C132 1.386 . S
C136 C131 1.490 . S
C136 C138 1.395 . S
C136 C139 1.403 . S
H137 C143 0.930 . S
C138 H124 0.930 . S
C138 C136 1.395 . S
C138 C141 1.403 . S
C139 C136 1.403 . S
C139 C140 1.524 . S
C139 C143 1.400 . S
C140 H125 0.960 . S
C140 H126 0.960 . S
C140 H127 0.960 . S
C140 C139 1.524 . S
C141 C138 1.403 . S
C141 C142 1.392 . S
C141 C145 1.495 . S
C142 C141 1.392 . S
C142 C143 1.385 . S
C142 C144 1.478 . S
C143 H137 0.930 . S
C143 C139 1.400 . S
C143 C142 1.385 . S
C144 C142 1.478 . S
C144 C146 1.381 . S
C144 C150 1.383 . S
C145 C141 1.495 . S
C145 H151 0.959 . S
C145 H152 0.961 . S
C145 H153 0.960 . S
C146 C144 1.381 . S
C146 C147 1.394 . S
C146 H154 0.930 . S
C147 C146 1.394 . S
C147 C148 1.383 . S
C147 H155 0.929 . S
C148 C147 1.383 . S
C148 C149 1.377 . S
C149 H133 0.930 . S
C149 C148 1.377 . S
C149 C150 1.379 . S
C150 H134 0.931 . S
C150 C144 1.383 . S
C150 C149 1.379 . S
H151 C145 0.959 . S
H152 C145 0.961 . S
H153 C145 0.960 . S
H154 C146 0.930 . S
H155 C147 0.929 . S
H156 C164 0.929 . S
H157 C166 0.930 . S
H158 C168 0.930 . S
H159 C171 0.929 . S
H160 C174 0.930 . S
H161 C176 0.959 1_455 S
H162 C176 0.960 . S
H163 C176 0.960 . S
C164 H156 0.929 . S
C164 C165 1.377 . S
C164 C166 1.384 . S
C165 C164 1.377 . S
C165 C171 1.390 . S
C166 H157 0.930 . S
C166 C164 1.384 . S
C166 C167 1.372 . S
C167 C166 1.372 . S
C167 C168 1.400 . S
C167 C172 1.490 1_655 S
C168 H158 0.930 . S
C168 C167 1.400 . S
C168 C171 1.386 . S
H169 C185 0.930 . S
H170 C186 0.931 . S
C171 H159 0.929 . S
C171 C165 1.390 . S
C171 C168 1.386 . S
C172 C167 1.490 1_455 S
C172 C174 1.395 . S
C172 C175 1.403 . S
H173 C179 0.930 . S
C174 H160 0.930 . S
C174 C172 1.395 . S
C174 C177 1.403 . S
C175 C172 1.403 . S
C175 C176 1.524 1_455 S
C175 C179 1.400 . S
C176 H161 0.959 1_655 S
C176 H162 0.960 . S
C176 H163 0.960 . S
C176 C175 1.524 1_655 S
C177 C174 1.403 . S
C177 C178 1.392 . S
C177 C181 1.495 . S
C178 C177 1.392 . S
C178 C179 1.385 . S
C178 C180 1.478 . S
C179 H173 0.930 . S
C179 C175 1.400 . S
C179 C178 1.385 . S
C180 C178 1.478 . S
C180 C182 1.381 . S
C180 C186 1.383 . S
C181 C177 1.495 . S
C181 H187 0.959 . S
C181 H188 0.961 . S
C181 H189 0.960 . S
C182 C180 1.381 . S
C182 C183 1.394 . S
C182 H190 0.930 . S
C183 C182 1.394 . S
C183 C184 1.383 . S
C183 H191 0.929 . S
C184 C183 1.383 . S
C184 C185 1.377 . S
C185 H169 0.930 . S
C185 C184 1.377 . S
C185 C186 1.379 . S
C186 H170 0.931 . S
C186 C180 1.383 . S
C186 C185 1.379 . S
H187 C181 0.959 . S
H188 C181 0.961 . S
H189 C181 0.960 . S
H190 C182 0.930 . S
H191 C183 0.929 . S
H192 C200 0.929 . S
H193 C202 0.930 . S
H194 C204 0.930 . S
H195 C207 0.929 . S
H196 C210 0.930 1_565 S
H197 C212 0.960 . S
H198 C212 0.960 . S
H199 C212 0.960 . S
C200 H192 0.929 . S
C200 C201 1.377 . S
C200 C202 1.384 . S
C201 C200 1.377 . S
C201 C207 1.390 . S
C202 H193 0.930 . S
C202 C200 1.384 . S
C202 C203 1.372 . S
C203 C202 1.372 . S
C203 C204 1.400 . S
C203 C208 1.490 1_565 S
C204 H194 0.930 . S
C204 C203 1.400 . S
C204 C207 1.386 . S
H205 C221 0.930 . S
H206 C222 0.931 . S
C207 H195 0.929 . S
C207 C201 1.390 . S
C207 C204 1.386 . S
C208 C203 1.490 1_545 S
C208 C210 1.395 1_554 S
C208 C211 1.403 . S
H209 C215 0.930 . S
C210 H196 0.930 1_545 S
C210 C208 1.395 1_556 S
C210 C213 1.403 . S
C211 C208 1.403 . S
C211 C212 1.524 . S
C211 C215 1.400 . S
C212 H197 0.960 . S
C212 H198 0.960 . S
C212 H199 0.960 . S
C212 C211 1.524 . S
C213 C210 1.403 . S
C213 C214 1.392 . S
C213 C217 1.495 . S
C214 C213 1.392 . S
C214 C215 1.385 1_556 S
C214 C216 1.478 . S
C215 H209 0.930 . S
C215 C211 1.400 . S
C215 C214 1.385 1_554 S
C216 C214 1.478 . S
C216 C218 1.381 . S
C216 C222 1.383 . S
C217 C213 1.495 . S
C217 H223 0.959 . S
C217 H224 0.961 . S
C217 H225 0.960 . S
C218 C216 1.381 . S
C218 C219 1.394 . S
C218 H226 0.930 . S
C219 C218 1.394 . S
C219 C220 1.383 . S
C219 H227 0.929 . S
C220 C219 1.383 . S
C220 C221 1.377 . S
C221 H205 0.930 . S
C221 C220 1.377 . S
C221 C222 1.379 . S
C222 H206 0.931 . S
C222 C216 1.383 . S
C222 C221 1.379 . S
H223 C217 0.959 . S
H224 C217 0.961 . S
H225 C217 0.960 . S
H226 C218 0.930 . S
H227 C219 0.929 . S
H228 C236 0.929 . S
H229 C238 0.930 . S
H230 C240 0.930 . S
H231 C243 0.929 . S
H232 C246 0.930 . S
H233 C248 0.960 . S
H234 C248 0.960 . S
H235 C248 0.960 . S
C236 H228 0.929 . S
C236 C237 1.377 . S
C236 C238 1.384 . S
C237 C236 1.377 . S
C237 C243 1.390 . S
C238 H229 0.930 . S
C238 C236 1.384 . S
C238 C239 1.372 . S
C239 C238 1.372 . S
C239 C240 1.400 . S
C239 C244 1.490 . S
C240 H230 0.930 . S
C240 C239 1.400 . S
C240 C243 1.386 . S
H241 C257 0.930 . S
H242 C258 0.931 . S
C243 H231 0.929 . S
C243 C237 1.390 . S
C243 C240 1.386 . S
C244 C239 1.490 . S
C244 C246 1.395 . S
C244 C247 1.403 . S
H245 C251 0.930 . S
C246 H232 0.930 . S
C246 C244 1.395 . S
C246 C249 1.403 . S
C247 C244 1.403 . S
C247 C248 1.524 . S
C247 C251 1.400 . S
C248 H233 0.960 . S
C248 H234 0.960 . S
C248 H235 0.960 . S
C248 C247 1.524 . S
C249 C246 1.403 . S
C249 C250 1.392 . S
C249 C253 1.495 . S
C250 C249 1.392 . S
C250 C251 1.385 . S
C250 C252 1.478 . S
C251 H245 0.930 . S
C251 C247 1.400 . S
C251 C250 1.385 . S
C252 C250 1.478 . S
C252 C254 1.381 . S
C252 C258 1.383 . S
C253 C249 1.495 . S
C253 H259 0.959 . S
C253 H260 0.961 . S
C253 H261 0.960 . S
C254 C252 1.381 . S
C254 C255 1.394 . S
C254 H262 0.930 . S
C255 C254 1.394 . S
C255 C256 1.383 . S
C255 H263 0.929 . S
C256 C255 1.383 . S
C256 C257 1.377 . S
C257 H241 0.930 . S
C257 C256 1.377 . S
C257 C258 1.379 . S
C258 H242 0.931 . S
C258 C252 1.383 . S
C258 C257 1.379 . S
H259 C253 0.959 . S
H260 C253 0.961 . S
H261 C253 0.960 . S
H262 C254 0.930 . S
H263 C255 0.929 . S
H264 C272 0.929 . S
H265 C274 0.930 . S
H266 C276 0.930 . S
H267 C279 0.929 . S
H268 C282 0.930 1_455 S
H269 C284 0.960 . S
H270 C284 0.960 1_455 S
H271 C284 0.960 . S
C272 H264 0.929 . S
C272 C273 1.377 . S
C272 C274 1.384 . S
C273 C272 1.377 . S
C273 C279 1.390 . S
C274 H265 0.930 . S
C274 C272 1.384 . S
C274 C275 1.372 . S
C275 C274 1.372 . S
C275 C276 1.400 . S
C275 C280 1.474 1_455 S
C276 H266 0.930 . S
C276 C275 1.400 . S
C276 C279 1.386 . S
H277 C293 0.930 . S
H278 C294 0.931 . S
C279 H267 0.929 . S
C279 C273 1.390 . S
C279 C276 1.386 . S
C280 C275 1.474 1_655 S
C280 C282 1.391 . S
C280 C283 1.422 . S
H281 C287 0.930 . S
C282 H268 0.930 1_655 S
C282 C280 1.391 . S
C282 C285 1.403 . S
C283 C280 1.422 . S
C283 C284 1.524 . S
C283 C287 1.400 . S
C284 H269 0.960 . S
C284 H270 0.960 1_655 S
C284 H271 0.960 . S
C284 C283 1.524 . S
C285 C282 1.403 . S
C285 C286 1.392 . S
C285 C289 1.495 . S
C286 C285 1.392 . S
C286 C287 1.385 . S
C286 C288 1.478 . S
C287 H281 0.930 . S
C287 C283 1.400 . S
C287 C286 1.385 . S
C288 C286 1.478 . S
C288 C290 1.381 . S
C288 C294 1.383 . S
C289 C285 1.495 . S
C289 H295 0.959 . S
C289 H296 0.961 . S
C289 H297 0.960 . S
C290 C288 1.381 . S
C290 C291 1.394 . S
C290 H298 0.930 . S
C291 C290 1.394 . S
C291 C292 1.383 . S
C291 H299 0.929 . S
C292 C291 1.383 . S
C292 C293 1.377 . S
C293 H277 0.930 . S
C293 C292 1.377 . S
C293 C294 1.379 . S
C294 H278 0.931 . S
C294 C288 1.383 . S
C294 C293 1.379 . S
H295 C289 0.959 . S
H296 C289 0.961 . S
H297 C289 0.960 . S
H298 C290 0.930 . S
H299 C291 0.929 . S
H300 C308 0.929 . S
H301 C310 0.930 . S
H302 C312 0.930 . S
H303 C315 0.929 . S
H304 C318 0.930 . S
H305 C320 0.960 . S
H306 C320 0.960 . S
H307 C320 0.960 . S
C308 H300 0.929 . S
C308 C309 1.377 . S
C308 C310 1.384 . S
C309 C308 1.377 . S
C309 C315 1.390 . S
C310 H301 0.930 . S
C310 C308 1.384 . S
C310 C311 1.372 . S
C311 C310 1.372 . S
C311 C312 1.400 . S
C311 C316 1.490 . S
C312 H302 0.930 . S
C312 C311 1.400 . S
C312 C315 1.386 . S
H313 C329 0.930 . S
H314 C330 0.931 . S
C315 H303 0.929 . S
C315 C309 1.390 . S
C315 C312 1.386 . S
C316 C311 1.490 . S
C316 C318 1.395 . S
C316 C319 1.403 . S
H317 C323 0.930 . S
C318 H304 0.930 . S
C318 C316 1.395 . S
C318 C321 1.403 . S
C319 C316 1.403 . S
C319 C320 1.524 . S
C319 C323 1.400 . S
C320 H305 0.960 . S
C320 H306 0.960 . S
C320 H307 0.960 . S
C320 C319 1.524 . S
C321 C318 1.403 . S
C321 C322 1.392 . S
C321 C325 1.495 . S
C322 C321 1.392 . S
C322 C323 1.385 . S
C322 C324 1.478 . S
C323 H317 0.930 . S
C323 C319 1.400 . S
C323 C322 1.385 . S
C324 C322 1.478 . S
C324 C326 1.381 . S
C324 C330 1.383 . S
C325 C321 1.495 . S
C325 H331 0.959 . S
C325 H332 0.961 . S
C325 H333 0.960 . S
C326 C324 1.381 . S
C326 C327 1.394 . S
C326 H334 0.930 . S
C327 C326 1.394 . S
C327 C328 1.383 . S
C327 H335 0.929 . S
C328 C327 1.383 . S
C328 C329 1.377 . S
C329 H313 0.930 . S
C329 C328 1.377 . S
C329 C330 1.379 . S
C330 H314 0.931 . S
C330 C324 1.383 . S
C330 C329 1.379 . S
H331 C325 0.959 . S
H332 C325 0.961 . S
H333 C325 0.960 . S
H334 C326 0.930 . S
H335 C327 0.929 . S
H336 C344 0.929 . S
H337 C346 0.930 . S
H338 C348 0.930 . S
H339 C351 0.929 . S
H340 C354 0.930 . S
H341 C356 0.960 . S
H342 C356 0.960 . S
H343 C356 0.960 . S
C344 H336 0.929 . S
C344 C345 1.377 . S
C344 C346 1.384 . S
C345 C344 1.377 . S
C345 C351 1.390 . S
C346 H337 0.930 . S
C346 C344 1.384 . S
C346 C347 1.372 . S
C347 C346 1.372 . S
C347 C348 1.400 . S
C347 C352 1.490 . S
C348 H338 0.930 . S
C348 C347 1.400 . S
C348 C351 1.386 . S
H349 C365 0.930 . S
H350 C366 0.931 . S
C351 H339 0.929 . S
C351 C345 1.390 . S
C351 C348 1.386 . S
C352 C347 1.490 . S
C352 C354 1.395 . S
C352 C355 1.403 . S
H353 C359 0.930 . S
C354 H340 0.930 . S
C354 C352 1.395 . S
C354 C357 1.403 . S
C355 C352 1.403 . S
C355 C356 1.524 . S
C355 C359 1.400 . S
C356 H341 0.960 . S
C356 H342 0.960 . S
C356 H343 0.960 . S
C356 C355 1.524 . S
C357 C354 1.403 . S
C357 C358 1.392 . S
C357 C361 1.495 . S
C358 C357 1.392 . S
C358 C359 1.385 . S
C358 C360 1.478 . S
C359 H353 0.930 . S
C359 C355 1.400 . S
C359 C358 1.385 . S
C360 C358 1.478 . S
C360 C362 1.381 . S
C360 C366 1.383 . S
C361 C357 1.495 . S
C361 H367 0.959 . S
C361 H368 0.961 . S
C361 H369 0.960 . S
C362 C360 1.381 . S
C362 C363 1.394 . S
C362 H370 0.930 . S
C363 C362 1.394 . S
C363 C364 1.383 . S
C363 H371 0.929 . S
C364 C363 1.383 . S
C364 C365 1.377 . S
C365 H349 0.930 . S
C365 C364 1.377 . S
C365 C366 1.379 . S
C366 H350 0.931 . S
C366 C360 1.383 . S
C366 C365 1.379 . S
H367 C361 0.959 . S
H368 C361 0.961 . S
H369 C361 0.960 . S
H370 C362 0.930 . S
H371 C363 0.929 . S
H372 C380 0.929 . S
H373 C382 0.930 . S
H374 C384 0.930 . S
H375 C387 0.929 . S
H376 C390 0.930 . S
H377 C392 0.960 . S
H378 C392 0.960 . S
H379 C392 0.960 . S
C380 H372 0.929 . S
C380 C381 1.377 . S
C380 C382 1.384 . S
C381 C380 1.377 . S
C381 C387 1.390 . S
C382 H373 0.930 . S
C382 C380 1.384 . S
C382 C383 1.372 . S
C383 C382 1.372 . S
C383 C384 1.400 . S
C383 C388 1.490 . S
C384 H374 0.930 . S
C384 C383 1.400 . S
C384 C387 1.386 . S
H385 C401 0.930 . S
H386 C402 0.931 . S
C387 H375 0.929 . S
C387 C381 1.390 . S
C387 C384 1.386 . S
C388 C383 1.490 . S
C388 C390 1.395 . S
C388 C391 1.403 . S
H389 C395 0.930 . S
C390 H376 0.930 . S
C390 C388 1.395 . S
C390 C393 1.403 . S
C391 C388 1.403 . S
C391 C392 1.524 . S
C391 C395 1.400 . S
C392 H377 0.960 . S
C392 H378 0.960 . S
C392 H379 0.960 . S
C392 C391 1.524 . S
C393 C390 1.403 . S
C393 C394 1.392 . S
C393 C397 1.495 . S
C394 C393 1.392 . S
C394 C395 1.385 . S
C394 C396 1.478 . S
C395 H389 0.930 . S
C395 C391 1.400 . S
C395 C394 1.385 . S
C396 C394 1.478 . S
C396 C398 1.381 . S
C396 C402 1.383 . S
C397 C393 1.495 . S
C397 H403 0.959 . S
C397 H404 0.961 . S
C397 H405 0.960 . S
C398 C396 1.381 . S
C398 C399 1.394 . S
C398 H406 0.930 . S
C399 C398 1.394 . S
C399 C400 1.383 . S
C399 H407 0.929 . S
C400 C399 1.383 . S
C400 C401 1.377 . S
C401 H385 0.930 . S
C401 C400 1.377 . S
C401 C402 1.379 . S
C402 H386 0.931 . S
C402 C396 1.383 . S
C402 C401 1.379 . S
H403 C397 0.959 . S
H404 C397 0.961 . S
H405 C397 0.960 . S
H406 C398 0.930 . S
H407 C399 0.929 . S
H408 C416 0.929 . S
H409 C418 0.930 . S
H410 C420 0.930 . S
H411 C423 0.929 . S
H412 C426 0.930 . S
H413 C428 0.960 . S
H414 C428 0.960 . S
H415 C428 0.960 . S
C416 H408 0.929 . S
C416 C417 1.377 . S
C416 C418 1.384 . S
C417 C416 1.377 . S
C417 C423 1.390 . S
C418 H409 0.930 . S
C418 C416 1.384 . S
C418 C419 1.372 . S
C419 C418 1.372 . S
C419 C420 1.400 . S
C419 C424 1.490 . S
C420 H410 0.930 . S
C420 C419 1.400 . S
C420 C423 1.386 . S
H421 C437 0.930 . S
H422 C438 0.931 . S
C423 H411 0.929 . S
C423 C417 1.390 . S
C423 C420 1.386 . S
C424 C419 1.490 . S
C424 C426 1.395 . S
C424 C427 1.403 . S
H425 C431 0.930 . S
C426 H412 0.930 . S
C426 C424 1.395 . S
C426 C429 1.403 . S
C427 C424 1.403 . S
C427 C428 1.524 . S
C427 C431 1.400 . S
C428 H413 0.960 . S
C428 H414 0.960 . S
C428 H415 0.960 . S
C428 C427 1.524 . S
C429 C426 1.403 . S
C429 C430 1.392 . S
C429 C433 1.495 . S
C430 C429 1.392 . S
C430 C431 1.385 . S
C430 C432 1.478 . S
C431 H425 0.930 . S
C431 C427 1.400 . S
C431 C430 1.385 . S
C432 C430 1.478 . S
C432 C434 1.381 . S
C432 C438 1.383 . S
C433 C429 1.495 . S
C433 H439 0.959 . S
C433 H440 0.961 . S
C433 H441 0.960 . S
C434 C432 1.381 . S
C434 C435 1.395 . S
C434 H442 0.930 . S
C435 C434 1.395 . S
C435 C436 1.383 1_556 S
C435 H443 0.928 1_556 S
C436 C435 1.383 1_554 S
C436 C437 1.377 1_554 S
C437 H421 0.930 . S
C437 C436 1.377 1_556 S
C437 C438 1.379 . S
C438 H422 0.931 . S
C438 C432 1.383 . S
C438 C437 1.379 . S
H439 C433 0.959 . S
H440 C433 0.961 . S
H441 C433 0.960 . S
H442 C434 0.930 . S
H443 C435 0.928 1_554 S
H444 C452 0.929 . S
H445 C454 0.930 . S
H446 C456 0.930 . S
H447 C459 0.929 . S
H448 C462 0.930 . S
H449 C464 0.960 . S
H450 C464 0.960 . S
H451 C464 0.960 . S
C452 H444 0.929 . S
C452 C453 1.377 . S
C452 C454 1.384 1_556 S
C453 C452 1.377 . S
C453 C459 1.390 1_556 S
C454 H445 0.930 . S
C454 C452 1.384 1_554 S
C454 C455 1.372 . S
C455 C454 1.372 . S
C455 C456 1.400 . S
C455 C460 1.490 . S
C456 H446 0.930 . S
C456 C455 1.400 . S
C456 C459 1.386 . S
H457 C473 0.930 . S
H458 C474 0.931 . S
C459 H447 0.929 . S
C459 C453 1.390 1_554 S
C459 C456 1.386 . S
C460 C455 1.490 . S
C460 C462 1.395 . S
C460 C463 1.403 . S
H461 C467 0.930 . S
C462 H448 0.930 . S
C462 C460 1.395 . S
C462 C465 1.403 . S
C463 C460 1.403 . S
C463 C464 1.524 . S
C463 C467 1.400 . S
C464 H449 0.960 . S
C464 H450 0.960 . S
C464 H451 0.960 . S
C464 C463 1.524 . S
C465 C462 1.403 . S
C465 C466 1.392 . S
C465 C469 1.495 . S
C466 C465 1.392 . S
C466 C467 1.385 . S
C466 C468 1.478 . S
C467 H461 0.930 . S
C467 C463 1.400 . S
C467 C466 1.385 . S
C468 C466 1.478 . S
C468 C470 1.381 . S
C468 C474 1.383 . S
C469 C465 1.495 . S
C469 H475 0.959 . S
C469 H476 0.961 . S
C469 H477 0.960 . S
C470 C468 1.381 . S
C470 C471 1.394 . S
C470 H478 0.930 . S
C471 C470 1.394 . S
C471 C472 1.383 . S
C471 H479 0.929 . S
C472 C471 1.383 . S
C472 C473 1.377 . S
C473 H457 0.930 . S
C473 C472 1.377 . S
C473 C474 1.379 . S
C474 H458 0.931 . S
C474 C468 1.383 . S
C474 C473 1.379 . S
H475 C469 0.959 . S
H476 C469 0.961 . S
H477 C469 0.960 . S
H478 C470 0.930 . S
H479 C471 0.929 . S
H480 C488 0.929 . S
H481 C490 0.930 . S
H482 C492 0.930 . S
H483 C495 0.929 . S
H484 C498 0.930 . S
H485 C500 0.960 . S
H486 C500 0.960 . S
H487 C500 0.960 . S
C488 H480 0.929 . S
C488 C489 1.377 . S
C488 C490 1.384 . S
C489 C488 1.377 . S
C489 C495 1.390 . S
C490 H481 0.930 . S
C490 C488 1.384 . S
C490 C491 1.372 . S
C491 C490 1.372 . S
C491 C492 1.400 . S
C491 C496 1.490 . S
C492 H482 0.930 . S
C492 C491 1.400 . S
C492 C495 1.386 . S
H493 C509 0.930 . S
H494 C510 0.931 . S
C495 H483 0.929 . S
C495 C489 1.390 . S
C495 C492 1.386 . S
C496 C491 1.490 . S
C496 C498 1.395 . S
C496 C499 1.403 . S
H497 C503 0.930 . S
C498 H484 0.930 . S
C498 C496 1.395 . S
C498 C501 1.403 . S
C499 C496 1.403 . S
C499 C500 1.524 . S
C499 C503 1.400 . S
C500 H485 0.960 . S
C500 H486 0.960 . S
C500 H487 0.960 . S
C500 C499 1.524 . S
C501 C498 1.403 . S
C501 C502 1.392 . S
C501 C505 1.495 . S
C502 C501 1.392 . S
C502 C503 1.385 . S
C502 C504 1.478 . S
C503 H497 0.930 . S
C503 C499 1.400 . S
C503 C502 1.385 . S
C504 C502 1.478 . S
C504 C506 1.381 . S
C504 C510 1.383 . S
C505 C501 1.495 . S
C505 H511 0.959 . S
C505 H512 0.961 . S
C505 H513 0.960 . S
C506 C504 1.381 . S
C506 C507 1.394 . S
C506 H514 0.930 . S
C507 C506 1.394 . S
C507 C508 1.383 . S
C507 H515 0.929 . S
C508 C507 1.383 . S
C508 C509 1.377 . S
C509 H493 0.930 . S
C509 C508 1.377 . S
C509 C510 1.379 . S
C510 H494 0.931 . S
C510 C504 1.383 . S
C510 C509 1.379 . S
H511 C505 0.959 . S
H512 C505 0.961 . S
H513 C505 0.960 . S
H514 C506 0.930 . S
H515 C507 0.929 . S
C93 C6 1.749 . S
C112 C78 1.769 . S
C129 C9 1.776 . S
C148 C20 1.765 . S
C165 C35 1.755 . S
C184 C23 1.781 . S
C201 C48 1.750 . S
C220 C36 1.770 . S
C237 C62 1.749 . S
C256 C51 1.769 . S
C273 C77 1.749 . S
C292 C65 1.760 . S
C309 C7 1.393 . S
C328 C64 1.424 . S
C345 C79 1.424 . S
C364 C21 1.404 . S
C381 C34 1.389 . S
C400 C8 1.417 . S
C417 C22 1.423 . S
C436 C49 1.411 . S
C453 C37 1.422 . S
C472 C63 1.389 . S
C489 C76 1.396 . S
C508 C50 1.414 . S
