# Generated by pormake.
# Topology ung, (4)-cn, num edge types: 1
# Building blocks:
#     Node 0, Type 0, BuildingBlock: QUQFOY_clean_sbu_1, # of connection points: 4
#     Node 1, Type 0, BuildingBlock: QUQFOY_clean_sbu_1, # of connection points: 4
#     Node 2, Type 0, BuildingBlock: QUQFOY_clean_sbu_1, # of connection points: 4
#     Node 3, Type 0, BuildingBlock: QUQFOY_clean_sbu_1, # of connection points: 4
#     Node 4, Type 0, BuildingBlock: QUQFOY_clean_sbu_1, # of connection points: 4
#     Node 5, Type 0, BuildingBlock: QUQFOY_clean_sbu_1, # of connection points: 4
#     Node 6, Type 0, BuildingBlock: QUQFOY_clean_sbu_1, # of connection points: 4
#     Node 7, Type 0, BuildingBlock: QUQFOY_clean_sbu_1, # of connection points: 4
#     Node 8, Type 0, BuildingBlock: QUQFOY_clean_sbu_1, # of connection points: 4
#     Node 9, Type 0, BuildingBlock: QUQFOY_clean_sbu_1, # of connection points: 4
#     Node 10, Type 0, BuildingBlock: QUQFOY_clean_sbu_1, # of connection points: 4
#     Node 11, Type 0, BuildingBlock: QUQFOY_clean_sbu_1, # of connection points: 4
#     Node 12, Type 0, BuildingBlock: QUQFOY_clean_sbu_1, # of connection points: 4
#     Node 13, Type 0, BuildingBlock: QUQFOY_clean_sbu_1, # of connection points: 4
#     Node 14, Type 0, BuildingBlock: QUQFOY_clean_sbu_1, # of connection points: 4
#     Node 15, Type 0, BuildingBlock: QUQFOY_clean_sbu_1, # of connection points: 4
#     Node 16, Type 0, BuildingBlock: QUQFOY_clean_sbu_1, # of connection points: 4
#     Node 17, Type 0, BuildingBlock: QUQFOY_clean_sbu_1, # of connection points: 4
#     Edge 18, Type (0, 0), BuildingBlock: TEMPAE_clean_linker_10, # of connection points: 2
#     Edge 19, Type (0, 0), BuildingBlock: TEMPAE_clean_linker_10, # of connection points: 2
#     Edge 20, Type (0, 0), BuildingBlock: TEMPAE_clean_linker_10, # of connection points: 2
#     Edge 21, Type (0, 0), BuildingBlock: TEMPAE_clean_linker_10, # of connection points: 2
#     Edge 22, Type (0, 0), BuildingBlock: TEMPAE_clean_linker_10, # of connection points: 2
#     Edge 23, Type (0, 0), BuildingBlock: TEMPAE_clean_linker_10, # of connection points: 2
#     Edge 24, Type (0, 0), BuildingBlock: TEMPAE_clean_linker_10, # of connection points: 2
#     Edge 25, Type (0, 0), BuildingBlock: TEMPAE_clean_linker_10, # of connection points: 2
#     Edge 26, Type (0, 0), BuildingBlock: TEMPAE_clean_linker_10, # of connection points: 2
#     Edge 27, Type (0, 0), BuildingBlock: TEMPAE_clean_linker_10, # of connection points: 2
#     Edge 28, Type (0, 0), BuildingBlock: TEMPAE_clean_linker_10, # of connection points: 2
#     Edge 29, Type (0, 0), BuildingBlock: TEMPAE_clean_linker_10, # of connection points: 2
#     Edge 30, Type (0, 0), BuildingBlock: TEMPAE_clean_linker_10, # of connection points: 2
#     Edge 31, Type (0, 0), BuildingBlock: TEMPAE_clean_linker_10, # of connection points: 2
#     Edge 32, Type (0, 0), BuildingBlock: TEMPAE_clean_linker_10, # of connection points: 2
#     Edge 33, Type (0, 0), BuildingBlock: TEMPAE_clean_linker_10, # of connection points: 2
#     Edge 34, Type (0, 0), BuildingBlock: TEMPAE_clean_linker_10, # of connection points: 2
#     Edge 35, Type (0, 0), BuildingBlock: TEMPAE_clean_linker_10, # of connection points: 2
#     Edge 36, Type (0, 0), BuildingBlock: TEMPAE_clean_linker_10, # of connection points: 2
#     Edge 37, Type (0, 0), BuildingBlock: TEMPAE_clean_linker_10, # of connection points: 2
#     Edge 38, Type (0, 0), BuildingBlock: TEMPAE_clean_linker_10, # of connection points: 2
#     Edge 39, Type (0, 0), BuildingBlock: TEMPAE_clean_linker_10, # of connection points: 2
#     Edge 40, Type (0, 0), BuildingBlock: TEMPAE_clean_linker_10, # of connection points: 2
#     Edge 41, Type (0, 0), BuildingBlock: TEMPAE_clean_linker_10, # of connection points: 2
#     Edge 42, Type (0, 0), BuildingBlock: TEMPAE_clean_linker_10, # of connection points: 2
#     Edge 43, Type (0, 0), BuildingBlock: TEMPAE_clean_linker_10, # of connection points: 2
#     Edge 44, Type (0, 0), BuildingBlock: TEMPAE_clean_linker_10, # of connection points: 2
#     Edge 45, Type (0, 0), BuildingBlock: TEMPAE_clean_linker_10, # of connection points: 2
#     Edge 46, Type (0, 0), BuildingBlock: TEMPAE_clean_linker_10, # of connection points: 2
#     Edge 47, Type (0, 0), BuildingBlock: TEMPAE_clean_linker_10, # of connection points: 2
#     Edge 48, Type (0, 0), BuildingBlock: TEMPAE_clean_linker_10, # of connection points: 2
#     Edge 49, Type (0, 0), BuildingBlock: TEMPAE_clean_linker_10, # of connection points: 2
#     Edge 50, Type (0, 0), BuildingBlock: TEMPAE_clean_linker_10, # of connection points: 2
#     Edge 51, Type (0, 0), BuildingBlock: TEMPAE_clean_linker_10, # of connection points: 2
#     Edge 52, Type (0, 0), BuildingBlock: TEMPAE_clean_linker_10, # of connection points: 2
#     Edge 53, Type (0, 0), BuildingBlock: TEMPAE_clean_linker_10, # of connection points: 2
# Relax obj value: 0.070
# Max RMSD: 0.175
# Mean RMSD: 0.149
data_MOF--net-ung--node1-QUQFOY_clean_sbu_1--edge1-TEMPAE_clean_linker_10
_symmetry_space_group_name_H-M    P1
_symmetry_Int_Tables_number       1
_symmetry_cell_setting            triclinic
loop_
_symmetry_equiv_pos_as_xyz
'x, y, z'
_cell_length_a     70.954204
_cell_length_b     84.819479
_cell_length_c     22.885194
_cell_angle_alpha  90.597792
_cell_angle_beta   94.12417
_cell_angle_gamma 125.35258
loop_
_atom_site_label
_atom_site_type_symbol
_atom_site_fract_x
_atom_site_fract_y
_atom_site_fract_z
_atom_type_partial_charge
O0 O 0.04706 0.56393 0.31878 0.0
Cd1 Cd 0.05367 0.58333 0.25649 0.0
Cd2 Cd 0.01816 0.58101 0.30323 0.0
O3 O 0.01414 0.55763 0.3452 0.0
O4 O 0.0698 0.57851 0.19792 0.0
O5 O 0.03475 0.57166 0.17873 0.0
C6 C 0.05113 0.57071 0.16257 0.0
C7 C 0.99102 0.58038 0.23668 0.0
C8 C 0.02953 0.55428 0.34786 0.0
C9 C 0.06561 0.61905 0.32264 0.0
O10 O 0.04502 0.6083 0.3377 0.0
O11 O 0.07251 0.61248 0.28575 0.0
O12 O 0.98879 0.57972 0.29234 0.0
O13 O 0.00771 0.58011 0.21907 0.0
O14 O 0.49538 0.47252 0.34295 0.0
Cd15 Cd 0.47402 0.46207 0.26673 0.0
Cd16 Cd 0.46852 0.42955 0.29897 0.0
O17 O 0.49322 0.44654 0.36849 0.0
O18 O 0.48521 0.48659 0.22813 0.0
O19 O 0.48763 0.46371 0.19075 0.0
C20 C 0.49258 0.48094 0.18881 0.0
C21 C 0.46871 0.40782 0.23545 0.0
C22 C 0.50105 0.46422 0.37828 0.0
C23 C 0.42759 0.43177 0.30287 0.0
O24 O 0.43626 0.42237 0.31278 0.0
O25 O 0.43926 0.44808 0.28004 0.0
O26 O 0.46485 0.40443 0.28973 0.0
O27 O 0.47388 0.42423 0.21799 0.0
O28 O 0.57571 0.00902 0.19294 0.0
Cd29 Cd 0.59592 0.01323 0.26728 0.0
Cd30 Cd 0.58153 0.9784 0.22832 0.0
O31 O 0.55471 0.9772 0.17938 0.0
O32 O 0.5949 0.03241 0.31624 0.0
O33 O 0.58062 1.00256 0.34108 0.0
C34 C 0.58315 0.01871 0.35092 0.0
C35 C 0.58118 0.95854 0.29879 0.0
C36 C 0.5591 0.99345 0.16546 0.0
C37 C 0.62974 0.01258 0.20649 0.0
O38 O 0.61235 0.99534 0.19146 0.0
O39 O 0.62864 0.0224 0.247 0.0
O40 O 0.57591 0.95271 0.2438 0.0
O41 O 0.58467 0.97482 0.31355 0.0
O42 O 0.04378 0.48334 0.81489 0.0
Cd43 Cd 0.04956 0.4696 0.75187 0.0
Cd44 Cd 0.01357 0.43837 0.79782 0.0
O45 O 0.01023 0.45842 0.84019 0.0
O46 O 0.06664 0.49002 0.69485 0.0
O47 O 0.03111 0.46355 0.67375 0.0
C48 C 0.04806 0.48025 0.65892 0.0
C49 C 0.98608 0.41249 0.73146 0.0
C50 C 0.02623 0.47656 0.84367 0.0
C51 C 0.06028 0.44512 0.81801 0.0
O52 O 0.03975 0.43654 0.83306 0.0
O53 O 0.06757 0.45808 0.78072 0.0
O54 O 0.98381 0.41146 0.7871 0.0
O55 O 1.00303 0.42865 0.71363 0.0
O56 O 0.58841 0.56451 0.74266 0.0
Cd57 Cd 0.60843 0.58573 0.8061 0.0
Cd58 Cd 0.5866 0.59979 0.75685 0.0
O59 O 0.5618 0.57026 0.73011 0.0
O60 O 0.61239 0.57342 0.87676 0.0
O61 O 0.58905 0.58284 0.86885 0.0
C62 C 0.59606 0.57379 0.89705 0.0
C63 C 0.58694 0.62232 0.81885 0.0
C64 C 0.56847 0.55933 0.7214 0.0
C65 C 0.63435 0.61649 0.72581 0.0
O66 O 0.61445 0.61239 0.70889 0.0
O67 O 0.6373 0.61 0.77323 0.0
O68 O 0.57616 0.6175 0.76663 0.0
O69 O 0.59578 0.61334 0.8364 0.0
O70 O 0.4795 0.01206 0.7886 0.0
Cd71 Cd 0.46029 0.01158 0.71763 0.0
Cd72 Cd 0.47613 0.04642 0.76775 0.0
O73 O 0.50044 0.04351 0.81347 0.0
O74 O 0.46107 0.99624 0.65093 0.0
O75 O 0.4805 0.02819 0.65741 0.0
C76 C 0.47641 0.01283 0.63139 0.0
C77 C 0.47925 0.06987 0.70758 0.0
C78 C 0.49611 0.02677 0.81973 0.0
C79 C 0.4267 0.01338 0.77972 0.0
O80 O 0.44457 0.0298 0.79945 0.0
O81 O 0.42788 1.00402 0.73778 0.0
O82 O 0.48374 0.07334 0.7639 0.0
O83 O 0.47521 0.054 0.68592 0.0
O84 O 0.71165 0.89711 0.6518 0.0
Cd85 Cd 0.71783 0.91623 0.58888 0.0
Cd86 Cd 0.68219 0.91372 0.63574 0.0
O87 O 0.67862 0.89059 0.6782 0.0
O88 O 0.7337 0.91124 0.52985 0.0
O89 O 0.69846 0.90407 0.51184 0.0
C90 C 0.71478 0.90312 0.49526 0.0
C91 C 0.65433 0.9123 0.56985 0.0
C92 C 0.69415 0.88741 0.68099 0.0
C93 C 0.72947 0.95205 0.65411 0.0
O94 O 0.70891 0.94121 0.66934 0.0
O95 O 0.73645 0.94549 0.61741 0.0
O96 O 0.6525 0.91194 0.62569 0.0
O97 O 0.67112 0.91228 0.55175 0.0
O98 O 0.15158 0.80643 0.6284 0.0
Cd99 Cd 0.13248 0.78851 0.55602 0.0
Cd100 Cd 0.1475 0.7687 0.60339 0.0
O101 O 0.17191 0.79474 0.65172 0.0
O102 O 0.1336 0.80493 0.49148 0.0
O103 O 0.15276 0.79156 0.49508 0.0
C104 C 0.14886 0.8032 0.47087 0.0
C105 C 0.15056 0.74786 0.54356 0.0
C106 C 0.16785 0.80743 0.65942 0.0
C107 C 0.09817 0.75418 0.61517 0.0
O108 O 0.11587 0.7549 0.63464 0.0
O109 O 0.09968 0.76483 0.57409 0.0
O110 O 0.15472 0.74895 0.59997 0.0
O111 O 0.14701 0.75996 0.52149 0.0
O112 O 0.22237 0.32682 0.62646 0.0
Cd113 Cd 0.23627 0.31808 0.56919 0.0
Cd114 Cd 0.27729 0.35118 0.63024 0.0
O115 O 0.25377 0.35309 0.67261 0.0
O116 O 0.21337 0.30571 0.49654 0.0
O117 O 0.2485 0.33289 0.49855 0.0
C118 C 0.22868 0.32064 0.47 0.0
C119 C 0.30436 0.37542 0.5727 0.0
C120 C 0.23176 0.34112 0.66418 0.0
C121 C 0.2679 0.311 0.63841 0.0
O122 O 0.28046 0.32913 0.65258 0.0
O123 O 0.24944 0.30333 0.60349 0.0
O124 O 0.30934 0.37647 0.62869 0.0
O125 O 0.28411 0.36118 0.55099 0.0
O126 O 0.70764 0.81591 0.14777 0.0
Cd127 Cd 0.71412 0.80268 0.08481 0.0
Cd128 Cd 0.6786 0.77098 0.12989 0.0
O129 O 0.67458 0.7905 0.17355 0.0
O130 O 0.73103 0.82336 0.02864 0.0
O131 O 0.69591 0.79651 0.00621 0.0
C132 C 0.71266 0.81341 0.99208 0.0
C133 C 0.65116 0.74474 0.06404 0.0
C134 C 0.69014 0.80873 0.17696 0.0
C135 C 0.72602 0.7789 0.15029 0.0
O136 O 0.70532 0.76969 0.16457 0.0
O137 O 0.73307 0.79205 0.11379 0.0
O138 O 0.64936 0.74375 0.11989 0.0
O139 O 0.66759 0.76106 0.04564 0.0
O140 O 0.24713 0.90341 0.03887 0.0
Cd141 Cd 0.26688 0.91991 0.11275 0.0
Cd142 Cd 0.24998 0.93845 0.07243 0.0
O143 O 0.22393 0.91268 0.02506 0.0
O144 O 0.2674 0.90085 0.16247 0.0
O145 O 0.25124 0.91559 0.18641 0.0
C146 C 0.2549 0.9026 0.19667 0.0
C147 C 0.24873 0.95851 0.14031 0.0
C148 C 0.22974 0.90154 0.01132 0.0
C149 C 0.29888 0.95291 0.04968 0.0
O150 O 0.28063 0.95195 0.03441 0.0
O151 O 0.29898 0.94309 0.09144 0.0
O152 O 0.24284 0.95796 0.08509 0.0
O153 O 0.25323 0.94643 0.15701 0.0
O154 O 0.15662 0.35003 0.11513 0.0
Cd155 Cd 0.13055 0.34624 0.05795 0.0
Cd156 Cd 0.14653 0.38049 0.11381 0.0
O157 O 0.17451 0.38051 0.14776 0.0
O158 O 0.12599 0.3269 0.99683 0.0
O159 O 0.13943 0.35709 0.97932 0.0
C160 C 0.1351 0.34075 0.96153 0.0
C161 C 0.1453 0.40122 0.04978 0.0
C162 C 0.17328 0.36491 0.14555 0.0
C163 C 0.09966 0.34572 0.13936 0.0
O164 O 0.11706 0.36286 0.15518 0.0
O165 O 0.1 0.33664 0.09509 0.0
O166 O 0.15167 0.40634 0.1051 0.0
O167 O 0.1414 0.38511 0.03102 0.0
O168 O 0.37982 0.23158 0.98018 0.0
Cd169 Cd 0.3873 0.25126 0.91812 0.0
Cd170 Cd 0.34933 0.24698 0.95711 0.0
O171 O 0.34554 0.22387 1.00047 0.0
O172 O 0.40403 0.24683 0.86019 0.0
O173 O 0.36888 0.23972 0.84012 0.0
C174 C 0.38544 0.23897 0.82441 0.0
C175 C 0.32254 0.24619 0.88867 0.0
C176 C 0.36154 0.22125 0.0063 0.0
C177 C 0.39579 0.28595 0.98179 0.0
O178 O 0.37478 0.27441 0.99308 0.0
O179 O 0.40453 0.28023 0.948 0.0
O180 O 0.32003 0.24568 0.94416 0.0
O181 O 0.33913 0.24558 0.87229 0.0
O182 O 0.80389 0.13457 0.95683 0.0
Cd183 Cd 0.78861 0.11735 0.88186 0.0
Cd184 Cd 0.80842 0.10174 0.92934 0.0
O185 O 0.83075 0.12923 0.97391 0.0
O186 O 0.78877 0.13298 0.81565 0.0
O187 O 0.81225 0.12374 0.82732 0.0
C188 C 0.80643 0.13373 0.79992 0.0
C189 C 0.81288 0.08174 0.86929 0.0
C190 C 0.82235 0.13867 0.98554 0.0
C191 C 0.75797 0.08216 0.94022 0.0
O192 O 0.77715 0.08597 0.96287 0.0
O193 O 0.75759 0.09115 0.89625 0.0
O194 O 0.81876 0.08399 0.92524 0.0
O195 O 0.807 0.09241 0.84742 0.0
O196 O 0.90769 0.67506 0.85339 0.0
Cd197 Cd 0.92898 0.68159 0.9279 0.0
Cd198 Cd 0.91919 0.64786 0.8935 0.0
O199 O 0.89108 0.64364 0.84189 0.0
O200 O 0.92526 0.69952 0.97464 0.0
O201 O 0.91452 0.67071 1.00257 0.0
C202 C 0.91489 0.68597 0.01061 0.0
C203 C 0.92018 0.62844 0.96365 0.0
C204 C 0.8926 0.65873 0.82694 0.0
C205 C 0.96556 0.68425 0.87024 0.0
O206 O 0.94983 0.66637 0.85715 0.0
O207 O 0.9626 0.69352 0.90836 0.0
O208 O 0.91614 0.62317 0.90835 0.0
O209 O 0.92198 0.64399 0.97896 0.0
O210 O 0.3774 0.15152 0.47519 0.0
Cd211 Cd 0.38296 0.13774 0.41189 0.0
Cd212 Cd 0.34767 0.10657 0.45945 0.0
O213 O 0.34433 0.12654 0.50244 0.0
O214 O 0.39944 0.15804 0.3543 0.0
O215 O 0.36404 0.1313 0.33423 0.0
C216 C 0.38072 0.14804 0.3189 0.0
C217 C 0.31965 0.08015 0.39532 0.0
C218 C 0.36014 0.14471 0.50509 0.0
C219 C 0.39485 0.11402 0.4779 0.0
O220 O 0.37435 0.10517 0.49338 0.0
O221 O 0.40175 0.1269 0.44046 0.0
O222 O 0.31815 0.07951 0.45131 0.0
O223 O 0.33613 0.09623 0.37587 0.0
O224 O 0.90187 0.23277 0.36536 0.0
Cd225 Cd 0.92441 0.24907 0.43686 0.0
Cd226 Cd 0.91562 0.27348 0.39449 0.0
O227 O 0.88883 0.25014 0.34049 0.0
O228 O 0.92216 0.2286 0.48483 0.0
O229 O 0.91065 0.24656 0.51297 0.0
C230 C 0.91171 0.23204 0.52126 0.0
C231 C 0.91469 0.29341 0.46343 0.0
C232 C 0.88836 0.235 0.33324 0.0
C233 C 0.96268 0.28233 0.38078 0.0
O234 O 0.9475 0.28531 0.36499 0.0
O235 O 0.95818 0.26944 0.41676 0.0
O236 O 0.91175 0.29485 0.40783 0.0
O237 O 0.91621 0.27959 0.47948 0.0
O238 O 0.81072 0.6759 0.45166 0.0
Cd239 Cd 0.79163 0.67601 0.38162 0.0
Cd240 Cd 0.80796 0.71063 0.43423 0.0
O241 O 0.8324 0.70729 0.4773 0.0
O242 O 0.7921 0.66087 0.31369 0.0
O243 O 0.81185 0.69282 0.3217 0.0
C244 C 0.80754 0.67752 0.29468 0.0
C245 C 0.8109 0.73427 0.37535 0.0
C246 C 0.82772 0.6904 0.48267 0.0
C247 C 0.75845 0.67776 0.44584 0.0
O248 O 0.77647 0.69395 0.46649 0.0
O249 O 0.75942 0.66861 0.40281 0.0
O250 O 0.81578 0.73766 0.43164 0.0
O251 O 0.8066 0.71839 0.35294 0.0
C252 C 0.03816 0.50978 0.87251 0.0
C253 C 0.02567 0.49009 0.88374 0.0
C254 C 0.04086 0.5235 0.91358 0.0
C255 C 0.03122 0.51747 0.96782 0.0
C256 C 0.01768 0.49748 0.97836 0.0
C257 C 0.01489 0.48398 0.93587 0.0
C258 C 0.05496 0.54458 0.89997 0.0
C259 C 0.00727 0.49047 0.03584 0.0
C260 C 0.06235 0.55355 0.10027 0.0
C261 C 0.04742 0.55899 0.10872 0.0
C262 C 0.05732 0.54016 0.05439 0.0
C263 C 0.03701 0.5322 0.01532 0.0
C264 C 0.02235 0.53823 0.02212 0.0
C265 C 0.02763 0.55145 0.069 0.0
C266 C 0.07338 0.53408 0.04887 0.0
C267 C 1.00082 0.5304 0.98067 0.0
H268 H 0.04634 0.51457 0.83196 0.0
H269 H 0.00533 0.4688 0.94488 0.0
H270 H 0.04555 0.55103 0.90931 0.0
H271 H 0.07157 0.55273 0.92851 0.0
H272 H 0.05895 0.54661 0.85345 0.0
H273 H 0.99578 0.47441 0.0355 0.0
H274 H 0.02138 0.49603 0.07188 0.0
H275 H 0.9971 0.49616 0.04591 0.0
H276 H 0.07758 0.55918 0.13094 0.0
H277 H 0.01599 0.55557 0.07522 0.0
H278 H 0.07989 0.53706 0.00482 0.0
H279 H 0.06375 0.51824 0.05329 0.0
H280 H 0.08851 0.54169 0.08261 0.0
H281 H 0.00529 0.53253 0.93459 0.0
H282 H 0.99206 0.53746 0.98964 0.0
H283 H 0.98837 0.51459 0.98468 0.0
C284 C 0.56059 0.55676 0.95033 0.0
C285 C 0.58308 0.56187 0.9456 0.0
C286 C 0.54634 0.54345 0.99017 0.0
C287 C 0.55497 0.5354 0.02773 0.0
C288 C 0.57797 0.54101 0.02485 0.0
C289 C 0.59167 0.55398 0.98309 0.0
C290 C 0.52179 0.53758 0.99082 0.0
C291 C 0.588 0.53318 0.06548 0.0
C292 C 0.52214 0.51455 0.16226 0.0
C293 C 0.50817 0.4946 0.1467 0.0
C294 C 0.53815 0.52789 0.12503 0.0
C295 C 0.53973 0.52119 0.06997 0.0
C296 C 0.52558 0.50105 0.05384 0.0
C297 C 0.51022 0.48795 0.09289 0.0
C298 C 0.55331 0.54917 0.14457 0.0
C299 C 0.52628 0.49338 0.99481 0.0
H300 H 0.55364 0.56257 0.92104 0.0
H301 H 0.60899 0.55782 0.97952 0.0
H302 H 0.50931 0.52167 0.98195 0.0
H303 H 0.51914 0.54121 0.03479 0.0
H304 H 0.51756 0.54484 0.95769 0.0
H305 H 0.60657 0.53982 0.06005 0.0
H306 H 0.58641 0.53589 0.1118 0.0
H307 H 0.57809 0.51727 0.05695 0.0
H308 H 0.52095 0.51975 0.20435 0.0
H309 H 0.49952 0.47253 0.0809 0.0
H310 H 0.54886 0.55719 0.11562 0.0
H311 H 0.57182 0.55524 0.14086 0.0
H312 H 0.5513 0.55184 0.19059 0.0
H313 H 0.52127 0.49948 0.95935 0.0
H314 H 0.51442 0.47732 0.98926 0.0
H315 H 0.54417 0.49804 0.98912 0.0
C316 C 0.52509 0.98684 0.09951 0.0
C317 C 0.54888 0.99549 0.11045 0.0
C318 C 0.51658 0.99186 0.05106 0.0
C319 C 0.5323 0.00562 0.013 0.0
C320 C 0.55621 0.01369 0.02292 0.0
C321 C 0.56418 0.00861 0.07166 0.0
C322 C 0.49096 0.983 0.04167 0.0
C323 C 0.5735 0.02812 0.983 0.0
C324 C 0.50938 0.00736 0.86028 0.0
C325 C 0.50845 0.02336 0.86689 0.0
C326 C 0.51716 1.00148 0.90739 0.0
C327 C 0.52398 0.01173 0.96275 0.0
C328 C 0.52374 0.02826 0.96939 0.0
C329 C 0.51611 0.03398 0.92112 0.0
C330 C 0.51771 0.98409 0.89813 0.0
C331 C 0.53095 0.03956 0.02786 0.0
H332 H 0.51338 0.9769 0.13007 0.0
H333 H 0.58264 0.01527 0.08037 0.0
H334 H 0.48815 0.99454 0.04525 0.0
H335 H 0.48395 0.97588 0.99685 0.0
H336 H 0.48097 0.97215 0.07409 0.0
H337 H 0.59136 0.03236 0.99551 0.0
H338 H 0.56825 0.02195 0.93692 0.0
H339 H 0.57384 0.04136 0.98443 0.0
H340 H 0.50348 0.99912 0.8183 0.0
H341 H 0.51508 0.04617 0.92657 0.0
H342 H 0.50612 0.97266 0.92726 0.0
H343 H 0.53551 0.98818 0.90998 0.0
H344 H 0.51218 0.97791 0.852 0.0
H345 H 0.51985 0.0299 0.06133 0.0
H346 H 0.52962 0.05197 0.02585 0.0
H347 H 0.54912 0.04516 0.04292 0.0
C348 C 0.55959 0.02984 0.38227 0.0
C349 C 0.57006 0.02029 0.39511 0.0
C350 C 0.54387 0.02883 0.41874 0.0
C351 C 0.53919 0.01862 0.47045 0.0
C352 C 0.55055 0.00968 0.48493 0.0
C353 C 0.56548 0.01026 0.44639 0.0
C354 C 0.53161 0.03805 0.40076 0.0
C355 C 0.54676 0.99932 0.54081 0.0
C356 C 0.51461 0.03099 0.59037 0.0
C357 C 0.49146 0.01465 0.58652 0.0
C358 C 0.53032 0.03238 0.55322 0.0
C359 C 0.52252 0.01739 0.50956 0.0
C360 C 0.49891 1.00116 0.50399 0.0
C361 C 0.48374 0.99978 0.54343 0.0
C362 C 0.55547 0.04959 0.56209 0.0
C363 C 0.48974 0.9852 0.45665 0.0
H364 H 0.56274 0.03726 0.34196 0.0
H365 H 0.57348 1.00279 0.45615 0.0
H366 H 0.51256 0.02685 0.39564 0.0
H367 H 0.5352 0.04894 0.43537 0.0
H368 H 0.53698 0.04525 0.35883 0.0
H369 H 0.55817 0.99435 0.54767 0.0
H370 H 0.55011 0.00902 0.57913 0.0
H371 H 0.52844 0.98653 0.53954 0.0
H372 H 0.52077 0.04238 0.62434 0.0
H373 H 0.46587 0.98714 0.54048 0.0
H374 H 0.56082 0.05746 0.52138 0.0
H375 H 0.56666 0.04455 0.57188 0.0
H376 H 0.55879 0.0599 0.59855 0.0
H377 H 0.494 0.99141 0.41311 0.0
H378 H 0.47064 0.97435 0.45535 0.0
H379 H 0.49819 0.97766 0.46416 0.0
C380 C 0.01731 0.53583 0.43898 0.0
C381 C 0.02818 0.5399 0.38696 0.0
C382 C 0.01917 0.5245 0.48029 0.0
C383 C 0.03182 0.51679 0.46868 0.0
C384 C 0.04156 0.51988 0.41455 0.0
C385 C 0.03982 0.53154 0.37468 0.0
C386 C 0.00869 0.52167 0.53771 0.0
C387 C 0.05473 0.51161 0.39978 0.0
C388 C 0.061 0.50882 0.59934 0.0
C389 C 0.04517 0.48894 0.6061 0.0
C390 C 0.05688 0.51797 0.55464 0.0
C391 C 0.03659 0.50695 0.51499 0.0
C392 C 0.02099 0.48673 0.52005 0.0
C393 C 0.02538 0.47799 0.56583 0.0
C394 C 0.07392 0.53959 0.551 0.0
C395 C 0.99944 0.47442 0.47792 0.0
H396 H 0.00839 0.54232 0.4488 0.0
H397 H 0.04805 0.53446 0.33421 0.0
H398 H 0.99771 0.50608 0.54637 0.0
H399 H 0.02276 0.52925 0.57417 0.0
H400 H 0.99798 0.52735 0.53829 0.0
H401 H 0.05896 0.51349 0.35343 0.0
H402 H 0.0712 0.51892 0.42877 0.0
H403 H 0.04451 0.49595 0.40758 0.0
H404 H 0.07625 0.51744 0.63045 0.0
H405 H 0.01303 0.46262 0.57074 0.0
H406 H 0.06505 0.54674 0.5564 0.0
H407 H 0.08062 0.54283 0.50718 0.0
H408 H 0.0889 0.54606 0.58504 0.0
H409 H 0.98768 0.47889 0.48269 0.0
H410 H 0.98984 0.45875 0.4855 0.0
H411 H 1.00408 0.47659 0.43199 0.0
C412 C 0.56229 0.52939 0.67874 0.0
C413 C 0.55466 0.54141 0.68209 0.0
C414 C 0.55298 0.5146 0.63441 0.0
C415 C 0.53524 0.51141 0.59285 0.0
C416 C 0.52603 0.52234 0.59881 0.0
C417 C 0.53597 0.53734 0.64328 0.0
C418 C 0.56343 0.50342 0.62952 0.0
C419 C 0.50663 0.51896 0.5561 0.0
C420 C 0.53189 0.49425 0.43646 0.0
C421 C 0.51332 0.47466 0.43518 0.0
C422 C 0.53979 0.50614 0.48829 0.0
C423 C 0.52832 0.49834 0.53957 0.0
C424 C 0.5102 0.47833 0.53917 0.0
C425 C 0.50306 0.46664 0.48692 0.0
C426 C 0.5597 0.52726 0.48733 0.0
C427 C 0.49734 0.46955 0.59263 0.0
H428 H 0.57649 0.53216 0.7091 0.0
H429 H 0.52987 0.54644 0.64575 0.0
H430 H 0.54964 0.48765 0.6232 0.0
H431 H 0.57345 0.50775 0.59054 0.0
H432 H 0.57527 0.50613 0.6689 0.0
H433 H 0.49934 0.52671 0.57119 0.0
H434 H 0.51325 0.52409 0.5128 0.0
H435 H 0.49247 0.50325 0.5496 0.0
H436 H 0.53956 0.50045 0.39611 0.0
H437 H 0.48826 0.45159 0.4854 0.0
H438 H 0.5732 0.53133 0.52385 0.0
H439 H 0.55338 0.53639 0.49373 0.0
H440 H 0.56784 0.53065 0.44531 0.0
H441 H 0.50966 0.47374 0.63217 0.0
H442 H 0.48544 0.45349 0.58715 0.0
H443 H 0.48694 0.47517 0.60079 0.0
C444 C 0.67893 0.81583 0.27014 0.0
C445 C 0.68921 0.822 0.21734 0.0
C446 C 0.68159 0.82923 0.31281 0.0
C447 C 0.69446 0.84919 0.30185 0.0
C448 C 0.70354 0.85524 0.24701 0.0
C449 C 0.70099 0.84163 0.20573 0.0
C450 C 0.67176 0.8222 0.37089 0.0
C451 C 0.71694 0.87626 0.23292 0.0
C452 C 0.69058 0.88296 0.40334 0.0
C453 C 0.71081 0.89108 0.44187 0.0
C454 C 0.68518 0.86955 0.35694 0.0
C455 C 0.70019 0.86392 0.34935 0.0
C456 C 0.72088 0.87241 0.38729 0.0
C457 C 0.726 0.88596 0.43275 0.0
C458 C 0.6632 0.86113 0.31676 0.0
C459 C 0.73733 0.86678 0.38088 0.0
H460 H 0.66993 0.80071 0.27946 0.0
H461 H 0.70878 0.84647 0.1647 0.0
H462 H 0.68619 0.82805 0.40619 0.0
H463 H 0.66136 0.82758 0.38184 0.0
H464 H 0.66066 0.80614 0.37087 0.0
H465 H 0.72057 0.87826 0.18614 0.0
H466 H 0.70719 0.88235 0.24288 0.0
H467 H 0.73373 0.88475 0.26072 0.0
H468 H 0.67871 0.88681 0.4101 0.0
H469 H 0.74156 0.89203 0.4625 0.0
H470 H 0.65129 0.8453 0.3212 0.0
H471 H 0.66724 0.86328 0.27034 0.0
H472 H 0.65402 0.86777 0.32655 0.0
H473 H 0.72814 0.851 0.38566 0.0
H474 H 0.75268 0.8747 0.41397 0.0
H475 H 0.7435 0.86976 0.33646 0.0
C476 C 0.1561 0.8233 0.38419 0.0
C477 C 0.16403 0.81623 0.42703 0.0
C478 C 0.17129 0.83694 0.34589 0.0
C479 C 0.19513 0.84427 0.35246 0.0
C480 C 0.20316 0.83719 0.39593 0.0
C481 C 0.18743 0.823 0.43185 0.0
C482 C 0.16188 0.84359 0.29866 0.0
C483 C 0.22853 0.8451 0.40594 0.0
C484 C 0.23267 0.8687 0.2269 0.0
C485 C 0.24214 0.88824 0.24039 0.0
C486 C 0.21719 0.85423 0.26267 0.0
C487 C 0.21176 0.85951 0.31441 0.0
C488 C 0.22216 0.87935 0.32963 0.0
C489 C 0.23683 0.89345 0.2917 0.0
C490 C 0.20591 0.83324 0.24378 0.0
C491 C 0.21759 0.88566 0.38559 0.0
H492 H 0.13804 0.81811 0.38053 0.0
H493 H 0.19372 0.81783 0.46571 0.0
H494 H 0.16964 0.8592 0.3071 0.0
H495 H 0.16673 0.84185 0.25525 0.0
H496 H 0.14269 0.8354 0.2964 0.0
H497 H 0.23201 0.83823 0.44217 0.0
H498 H 0.23451 0.84278 0.3654 0.0
H499 H 0.23908 0.86096 0.41669 0.0
H500 H 0.23637 0.8646 0.18656 0.0
H501 H 0.24405 0.90855 0.30196 0.0
H502 H 0.18677 0.82543 0.23782 0.0
H503 H 0.20977 0.82614 0.27827 0.0
H504 H 0.21186 0.83155 0.20208 0.0
H505 H 0.19908 0.88021 0.38362 0.0
H506 H 0.22848 0.90167 0.39337 0.0
H507 H 0.22103 0.87938 0.42366 0.0
C508 C 0.24098 0.34004 0.38159 0.0
C509 C 0.22306 0.32537 0.41223 0.0
C510 C 0.23617 0.34754 0.33296 0.0
C511 C 0.21291 0.34049 0.3154 0.0
C512 C 0.19468 0.325 0.34435 0.0
C513 C 0.19998 0.31751 0.39213 0.0
C514 C 0.25612 0.36367 0.30265 0.0
C515 C 0.16961 0.31702 0.32681 0.0
C516 C 0.19675 0.3715 0.24112 0.0
C517 C 0.1889 0.3625 0.1844 0.0
C518 C 0.2059 0.36519 0.28366 0.0
C519 C 0.20744 0.34973 0.26866 0.0
C520 C 0.20157 0.3419 0.20999 0.0
C521 C 0.19221 0.34828 0.16867 0.0
C522 C 0.2123 0.37409 0.34566 0.0
C523 C 0.20374 0.3259 0.19174 0.0
H524 H 0.25891 0.3462 0.39687 0.0
H525 H 0.18608 0.30629 0.41589 0.0
H526 H 0.27185 0.36381 0.31054 0.0
H527 H 0.25159 0.36239 0.2546 0.0
H528 H 0.26044 0.37777 0.32003 0.0
H529 H 0.15746 0.3045 0.35223 0.0
H530 H 0.16693 0.32852 0.33396 0.0
H531 H 0.16515 0.31235 0.2794 0.0
H532 H 0.19412 0.38242 0.25354 0.0
H533 H 0.18633 0.34141 0.12461 0.0
H534 H 0.22993 0.37849 0.36175 0.0
H535 H 0.2 0.36318 0.37502 0.0
H536 H 0.21186 0.38694 0.34919 0.0
H537 H 0.22103 0.32957 0.20812 0.0
H538 H 0.20129 0.32312 0.14329 0.0
H539 H 0.19048 0.31233 0.21141 0.0
C540 C 0.14667 0.3242 0.898 0.0
C541 C 0.14391 0.33911 0.90677 0.0
C542 C 0.15972 0.32476 0.85377 0.0
C543 C 0.16992 0.34044 0.81682 0.0
C544 C 0.16576 0.35479 0.82268 0.0
C545 C 0.15293 0.35403 0.8679 0.0
C546 C 0.16379 0.30919 0.84906 0.0
C547 C 0.17588 0.37149 0.78326 0.0
C548 C 0.22516 0.35294 0.75592 0.0
C549 C 0.21659 0.34292 0.70061 0.0
C550 C 0.21022 0.35268 0.79361 0.0
C551 C 0.18623 0.34245 0.77505 0.0
C552 C 0.17771 0.33317 0.71808 0.0
C553 C 0.19295 0.33337 0.68175 0.0
C554 C 0.21994 0.36265 0.85426 0.0
C555 C 0.15237 0.32248 0.69622 0.0
H556 H 0.13985 0.31267 0.92797 0.0
H557 H 0.1508 0.36557 0.87429 0.0
H558 H 0.15931 0.30284 0.80331 0.0
H559 H 0.18246 0.31565 0.86064 0.0
H560 H 0.15347 0.29736 0.87858 0.0
H561 H 0.16861 0.37997 0.78847 0.0
H562 H 0.19497 0.38133 0.79384 0.0
H563 H 0.17257 0.36617 0.73659 0.0
H564 H 0.24338 0.36029 0.77081 0.0
H565 H 0.18624 0.32575 0.63875 0.0
H566 H 0.21209 0.35176 0.88773 0.0
H567 H 0.21543 0.37298 0.86191 0.0
H568 H 0.23912 0.37065 0.86107 0.0
H569 H 0.14182 0.30951 0.72159 0.0
H570 H 0.14897 0.31772 0.6489 0.0
H571 H 0.14635 0.33181 0.70305 0.0
C572 C 0.69015 0.81109 0.89855 0.0
C573 C 0.70978 0.8221 0.93928 0.0
C574 C 0.68578 0.81983 0.85271 0.0
C575 C 0.70122 0.84008 0.84806 0.0
C576 C 0.72134 0.85116 0.8882 0.0
C577 C 0.72546 0.84203 0.93295 0.0
C578 C 0.6644 0.80746 0.81006 0.0
C579 C 0.73822 0.87282 0.885 0.0
C580 C 0.7048 0.86492 0.70814 0.0
C581 C 0.69293 0.87309 0.72013 0.0
C582 C 0.7065 0.85323 0.74793 0.0
C583 C 0.69646 0.8499 0.80168 0.0
C584 C 0.68359 0.85742 0.813 0.0
C585 C 0.68179 0.8688 0.77176 0.0
C586 C 0.71993 0.84516 0.7335 0.0
C587 C 0.6728 0.85434 0.87004 0.0
H588 H 0.67792 0.79569 0.90315 0.0
H589 H 0.74059 0.85069 0.96439 0.0
H590 H 0.65246 0.81175 0.81452 0.0
H591 H 0.66923 0.80977 0.7643 0.0
H592 H 0.65494 0.79178 0.81738 0.0
H593 H 0.75307 0.87933 0.91943 0.0
H594 H 0.74511 0.8762 0.84142 0.0
H595 H 0.72913 0.8798 0.8901 0.0
H596 H 0.71324 0.86801 0.66794 0.0
H597 H 0.67267 0.87513 0.78134 0.0
H598 H 0.7098 0.82948 0.74098 0.0
H599 H 0.73629 0.85251 0.76292 0.0
H600 H 0.72436 0.84719 0.68732 0.0
H601 H 0.66192 0.83872 0.87833 0.0
H602 H 0.66193 0.85987 0.87032 0.0
H603 H 0.6867 0.86192 0.90687 0.0
C604 C 0.23534 0.88912 0.92147 0.0
C605 C 0.21985 0.88882 0.95707 0.0
C606 C 0.2274 0.8763 0.87212 0.0
C607 C 0.20328 0.86255 0.8583 0.0
C608 C 0.18743 0.86236 0.89338 0.0
C609 C 0.19594 0.87572 0.94233 0.0
C610 C 0.24489 0.87734 0.83521 0.0
C611 C 0.16158 0.84775 0.87999 0.0
C612 C 0.18272 0.84003 0.70256 0.0
C613 C 0.17998 0.82238 0.70836 0.0
C614 C 0.19035 0.85325 0.75096 0.0
C615 C 0.19491 0.84852 0.8068 0.0
C616 C 0.19263 0.83088 0.81277 0.0
C617 C 0.18539 0.81807 0.7632 0.0
C618 C 0.19327 0.87216 0.74241 0.0
C619 C 0.19726 0.82534 0.87175 0.0
H620 H 0.25389 0.89944 0.93258 0.0
H621 H 0.18403 0.87545 0.97013 0.0
H622 H 0.24335 0.86357 0.83601 0.0
H623 H 0.24136 0.8793 0.78882 0.0
H624 H 0.26303 0.88942 0.85084 0.0
H625 H 0.15158 0.84958 0.91118 0.0
H626 H 0.15609 0.84908 0.83477 0.0
H627 H 0.15706 0.83288 0.88201 0.0
H628 H 0.17846 0.84335 0.6601 0.0
H629 H 0.18285 0.80427 0.76792 0.0
H630 H 0.21133 0.8845 0.7573 0.0
H631 H 0.18162 0.87317 0.76951 0.0
H632 H 0.18937 0.87375 0.69585 0.0
H633 H 0.21548 0.83631 0.88978 0.0
H634 H 0.1942 0.81093 0.8692 0.0
H635 H 0.18591 0.82509 0.90321 0.0
C636 C 0.39689 0.22191 0.76236 0.0
C637 C 0.38194 0.22735 0.77056 0.0
C638 C 0.39187 0.2085 0.71655 0.0
C639 C 0.37157 0.2005 0.67742 0.0
C640 C 0.35691 0.20654 0.68399 0.0
C641 C 0.36218 0.21979 0.73069 0.0
C642 C 0.40795 0.20242 0.71118 0.0
C643 C 0.33536 0.19865 0.64255 0.0
C644 C 0.37232 0.17798 0.5343 0.0
C645 C 0.35979 0.15828 0.54553 0.0
C646 C 0.37526 0.19174 0.57561 0.0
C647 C 0.36577 0.18574 0.63003 0.0
C648 C 0.3522 0.16575 0.64061 0.0
C649 C 0.3492 0.15221 0.59794 0.0
C650 C 0.38941 0.21282 0.56201 0.0
C651 C 0.3419 0.15879 0.69824 0.0
H652 H 0.41208 0.22754 0.79317 0.0
H653 H 0.35052 0.22391 0.73672 0.0
H654 H 0.39834 0.1866 0.71595 0.0
H655 H 0.41438 0.2053 0.66705 0.0
H656 H 0.42313 0.21012 0.74478 0.0
H657 H 0.32658 0.2057 0.65139 0.0
H658 H 0.33981 0.20073 0.59645 0.0
H659 H 0.32294 0.18284 0.64671 0.0
H660 H 0.38036 0.18274 0.49356 0.0
H661 H 0.33961 0.13703 0.60695 0.0
H662 H 0.40599 0.22096 0.59068 0.0
H663 H 0.38001 0.21929 0.57118 0.0
H664 H 0.39347 0.21485 0.51553 0.0
H665 H 0.35606 0.1644 0.73414 0.0
H666 H 0.33044 0.14273 0.69804 0.0
H667 H 0.33172 0.16446 0.70839 0.0
C668 C 0.84525 0.15521 0.76302 0.0
C669 C 0.82149 0.14737 0.75697 0.0
C670 C 0.86059 0.16942 0.72659 0.0
C671 C 0.85189 0.17552 0.68156 0.0
C672 C 0.8278 0.16733 0.67426 0.0
C673 C 0.81292 0.15358 0.71283 0.0
C674 C 0.8862 0.17817 0.73708 0.0
C675 C 0.81775 0.17302 0.62558 0.0
C676 C 0.89293 0.22388 0.61552 0.0
C677 C 0.89844 0.21814 0.56569 0.0
C678 C 0.87817 0.21022 0.65434 0.0
C679 C 0.86803 0.1903 0.64176 0.0
C680 C 0.8736 0.18447 0.59148 0.0
C681 C 0.88902 0.19848 0.55464 0.0
C682 C 0.87332 0.2171 0.7086 0.0
C683 C 0.86273 0.16335 0.57562 0.0
H684 H 0.85205 0.1507 0.79775 0.0
H685 H 0.79459 0.14757 0.70815 0.0
H686 H 0.89227 0.17529 0.69773 0.0
H687 H 0.89622 0.19413 0.7447 0.0
H688 H 0.89027 0.17234 0.77539 0.0
H689 H 0.79857 0.16474 0.62431 0.0
H690 H 0.8254 0.18869 0.63129 0.0
H691 H 0.82223 0.17054 0.58258 0.0
H692 H 0.90011 0.23906 0.62402 0.0
H693 H 0.89288 0.19392 0.51556 0.0
H694 H 0.8775 0.21185 0.74824 0.0
H695 H 0.8546 0.211 0.70666 0.0
H696 H 0.88352 0.23314 0.71368 0.0
H697 H 0.86731 0.15704 0.61128 0.0
H698 H 0.86841 0.16118 0.53414 0.0
H699 H 0.84354 0.15515 0.57072 0.0
C700 C 0.89569 0.66885 0.72621 0.0
C701 C 0.88142 0.65899 0.77097 0.0
C702 C 0.88776 0.67391 0.67722 0.0
C703 C 0.86495 0.669 0.67305 0.0
C704 C 0.85008 0.65829 0.71708 0.0
C705 C 0.85859 0.65348 0.76601 0.0
C706 C 0.90415 0.68529 0.63137 0.0
C707 C 0.82556 0.65263 0.71364 0.0
C708 C 0.85166 0.69888 0.57932 0.0
C709 C 0.8402 0.68659 0.52843 0.0
C710 C 0.86 0.69341 0.62675 0.0
C711 C 0.85684 0.6753 0.62285 0.0
C712 C 0.84614 0.66325 0.57064 0.0
C713 C 0.83801 0.66905 0.52414 0.0
C714 C 0.8716 0.70673 0.68165 0.0
C715 C 0.84271 0.64397 0.56445 0.0
H716 H 0.91354 0.67342 0.73103 0.0
H717 H 0.84784 0.64629 0.80152 0.0
H718 H 0.89613 0.67796 0.58713 0.0
H719 H 0.90768 0.69985 0.63061 0.0
H720 H 0.92096 0.68713 0.63983 0.0
H721 H 0.81587 0.64345 0.74966 0.0
H722 H 0.82587 0.66585 0.71607 0.0
H723 H 0.81603 0.64464 0.67098 0.0
H724 H 0.85325 0.71236 0.58305 0.0
H725 H 0.82931 0.65952 0.48473 0.0
H726 H 0.88914 0.71014 0.69241 0.0
H727 H 0.8614 0.69941 0.71926 0.0
H728 H 0.87331 0.72053 0.67712 0.0
H729 H 0.85962 0.64601 0.57226 0.0
H730 H 0.83451 0.6365 0.52034 0.0
H731 H 0.83157 0.63439 0.598 0.0
C732 C 0.81478 0.66444 0.20653 0.0
C733 C 0.8224 0.67944 0.24906 0.0
C734 C 0.82982 0.66593 0.16646 0.0
C735 C 0.85323 0.68247 0.17071 0.0
C736 C 0.86095 0.69761 0.21374 0.0
C737 C 0.84535 0.69606 0.25161 0.0
C738 C 0.82074 0.64979 0.11986 0.0
C739 C 0.8859 0.71519 0.22109 0.0
C740 C 0.89718 0.67684 0.10614 0.0
C741 C 0.90108 0.68666 0.0546 0.0
C742 C 0.88203 0.67572 0.14501 0.0
C743 C 0.8698 0.68394 0.1307 0.0
C744 C 0.8737 0.69385 0.07859 0.0
C745 C 0.8896 0.69538 0.04172 0.0
C746 C 0.87904 0.66568 0.20124 0.0
C747 C 0.86054 0.70232 0.06084 0.0
H748 H 0.79707 0.65158 0.20455 0.0
H749 H 0.85147 0.70758 0.28507 0.0
H750 H 0.82436 0.65574 0.07587 0.0
H751 H 0.82978 0.64272 0.12709 0.0
H752 H 0.80176 0.6386 0.11979 0.0
H753 H 0.8892 0.72555 0.25736 0.0
H754 H 0.89759 0.71061 0.23027 0.0
H755 H 0.89062 0.72287 0.17993 0.0
H756 H 0.90597 0.67001 0.11599 0.0
H757 H 0.89224 0.70266 1.00128 0.0
H758 H 0.86087 0.65273 0.20115 0.0
H759 H 0.88253 0.6755 0.23938 0.0
H760 H 0.89078 0.66103 0.20744 0.0
H761 H 0.84159 0.69079 0.05736 0.0
H762 H 0.86514 0.70914 0.01816 0.0
H763 H 0.86415 0.71339 0.09483 0.0
C764 C 0.39292 0.17645 0.25923 0.0
C765 C 0.37743 0.15654 0.26613 0.0
C766 C 0.3885 0.18539 0.21441 0.0
C767 C 0.36827 0.17412 0.17469 0.0
C768 C 0.35297 0.15389 0.18002 0.0
C769 C 0.35763 0.14535 0.22598 0.0
C770 C 0.40522 0.20703 0.21057 0.0
C771 C 0.3315 0.14132 0.13781 0.0
C772 C 0.34868 0.20254 0.09684 0.0
C773 C 0.35993 0.20677 0.04542 0.0
C774 C 0.35045 0.19124 0.13849 0.0
C775 C 0.36337 0.18371 0.12775 0.0
C776 C 0.37343 0.18692 0.07407 0.0
C777 C 0.3718 0.19856 0.03393 0.0
C778 C 0.33966 0.18832 0.19545 0.0
C779 C 0.38687 0.17882 0.06016 0.0
H780 H 0.40815 0.18525 0.29027 0.0
H781 H 0.34554 0.12996 0.23104 0.0
H782 H 0.41213 0.2103 0.16701 0.0
H783 H 0.396 0.21393 0.21505 0.0
H784 H 0.42007 0.21373 0.24506 0.0
H785 H 0.32207 0.1257 0.14589 0.0
H786 H 0.31957 0.14564 0.14187 0.0
H787 H 0.33623 0.14339 0.09194 0.0
H788 H 0.33959 0.20893 0.10602 0.0
H789 H 0.38033 0.20163 0.99389 0.0
H790 H 0.35357 0.19614 0.23217 0.0
H791 H 0.32894 0.17275 0.20441 0.0
H792 H 0.32863 0.19371 0.19513 0.0
H793 H 0.4033 0.18633 0.08937 0.0
H794 H 0.3912 0.18064 0.01389 0.0
H795 H 0.37681 0.16319 0.06831 0.0
C796 C 0.87413 0.22705 0.22695 0.0
C797 C 0.87459 0.2208 0.28309 0.0
C798 C 0.86598 0.21422 0.17697 0.0
C799 C 0.85769 0.19466 0.18373 0.0
C800 C 0.85699 0.18811 0.24067 0.0
C801 C 0.86571 0.20132 0.28958 0.0
C802 C 0.86717 0.22175 0.1169 0.0
C803 C 0.84761 0.16725 0.24992 0.0
C804 C 0.8176 0.15705 0.06102 0.0
C805 C 0.83222 0.15333 0.03556 0.0
C806 C 0.82572 0.1705 0.10886 0.0
C807 C 0.84923 0.18086 0.13149 0.0
C808 C 0.86426 0.17742 0.10571 0.0
C809 C 0.85549 0.16348 0.05832 0.0
C810 C 0.80897 0.17332 0.13595 0.0
C811 C 0.88955 0.18845 0.12831 0.0
H812 H 0.88147 0.24221 0.22186 0.0
H813 H 0.86623 0.19654 0.33306 0.0
H814 H 0.87879 0.22011 0.09169 0.0
H815 H 0.84975 0.21316 0.09205 0.0
H816 H 0.87372 0.23725 0.11917 0.0
H817 H 0.84722 0.16431 0.29718 0.0
H818 H 0.82976 0.15746 0.22788 0.0
H819 H 0.85851 0.16359 0.2299 0.0
H820 H 0.79948 0.14909 0.04425 0.0
H821 H 0.86684 0.16071 0.03872 0.0
H822 H 0.81528 0.18871 0.13536 0.0
H823 H 0.8079 0.16966 0.18256 0.0
H824 H 0.79123 0.1642 0.11269 0.0
H825 H 0.89787 0.20426 0.12822 0.0
H826 H 0.8992 0.18484 0.10162 0.0
H827 H 0.89115 0.18512 0.17438 0.0
C828 C 0.10546 0.6504 0.34431 0.0
C829 C 0.0815 0.63913 0.34997 0.0
C830 C 0.1205 0.66903 0.37285 0.0
C831 C 0.11134 0.6766 0.40749 0.0
C832 C 0.08715 0.66538 0.41255 0.0
C833 C 0.07262 0.64686 0.38397 0.0
C834 C 0.14618 0.68052 0.36656 0.0
C835 C 0.07654 0.6729 0.44853 0.0
C836 C 0.14465 0.71578 0.5314 0.0
C837 C 0.14613 0.73141 0.50604 0.0
C838 C 0.13504 0.69822 0.49841 0.0
C839 C 0.12667 0.69623 0.43872 0.0
C840 C 0.12999 0.7125 0.41172 0.0
C841 C 0.13971 0.72988 0.44563 0.0
C842 C 0.13212 0.68133 0.5288 0.0
C843 C 0.12147 0.71111 0.34821 0.0
H844 H 0.11253 0.64455 0.31837 0.0
H845 H 0.05415 0.63838 0.38851 0.0
H846 H 0.15235 0.69473 0.34905 0.0
H847 H 0.15585 0.68348 0.41026 0.0
H848 H 0.15052 0.67281 0.337 0.0
H849 H 0.05739 0.66245 0.4475 0.0
H850 H 0.0841 0.676 0.49488 0.0
H851 H 0.0806 0.68669 0.43187 0.0
H852 H 0.14965 0.71681 0.57792 0.0
H853 H 0.14093 0.74191 0.4254 0.0
H854 H 0.13708 0.67372 0.501 0.0
H855 H 0.1136 0.67077 0.53625 0.0
H856 H 0.14269 0.68594 0.5719 0.0
H857 H 0.12637 0.70352 0.32018 0.0
H858 H 0.12847 0.7256 0.33148 0.0
H859 H 0.10223 0.70255 0.34375 0.0
C860 C 0.39093 0.40553 0.34172 0.0
C861 C 0.40558 0.42493 0.32793 0.0
C862 C 0.3733 0.39953 0.37863 0.0
C863 C 0.37021 0.41326 0.40255 0.0
C864 C 0.38373 0.43255 0.38521 0.0
C865 C 0.40128 0.43818 0.34791 0.0
C866 C 0.35889 0.3787 0.39482 0.0
C867 C 0.38054 0.44747 0.40871 0.0
C868 C 0.31418 0.38919 0.47471 0.0
C869 C 0.32163 0.38874 0.53282 0.0
C870 C 0.33006 0.3986 0.43258 0.0
C871 C 0.35392 0.40748 0.44867 0.0
C872 C 0.36171 0.40833 0.50826 0.0
C873 C 0.34545 0.39902 0.54978 0.0
C874 C 0.32091 0.39765 0.37008 0.0
C875 C 0.38706 0.41777 0.52733 0.0
H876 H 0.39404 0.39519 0.32601 0.0
H877 H 0.4126 0.45322 0.33766 0.0
H878 H 0.36248 0.37803 0.4424 0.0
H879 H 0.34014 0.37237 0.38637 0.0
H880 H 0.36259 0.36961 0.36987 0.0
H881 H 0.39029 0.46108 0.38551 0.0
H882 H 0.36188 0.44168 0.40457 0.0
H883 H 0.38676 0.45096 0.45608 0.0
H884 H 0.29577 0.38144 0.46136 0.0
H885 H 0.3513 0.39875 0.59459 0.0
H886 H 0.31782 0.38487 0.34561 0.0
H887 H 0.33343 0.41074 0.34732 0.0
H888 H 0.3042 0.39606 0.36837 0.0
H889 H 0.39244 0.40892 0.50903 0.0
H890 H 0.39062 0.4192 0.57587 0.0
H891 H 0.39794 0.43235 0.51008 0.0
C892 C 0.64693 0.92261 0.4743 0.0
C893 C 0.6392 0.91467 0.52827 0.0
C894 C 0.63465 0.92757 0.43747 0.0
C895 C 0.61371 0.924 0.4541 0.0
C896 C 0.60507 0.91489 0.50687 0.0
C897 C 0.61811 0.91062 0.54384 0.0
C898 C 0.64482 0.93763 0.38232 0.0
C899 C 0.58245 0.91025 0.52524 0.0
C900 C 0.6002 0.95843 0.39467 0.0
C901 C 0.58612 0.94829 0.34263 0.0
C902 C 0.60858 0.95039 0.43237 0.0
C903 C 0.60223 0.93148 0.41873 0.0
C904 C 0.58671 0.92063 0.36838 0.0
C905 C 0.57913 0.92928 0.33038 0.0
C906 C 0.62545 0.96266 0.48482 0.0
C907 C 0.57886 0.9002 0.35333 0.0
H908 H 0.66327 0.92588 0.46205 0.0
H909 H 0.61196 0.90437 0.58531 0.0
H910 H 0.63197 0.92975 0.34361 0.0
H911 H 0.64912 0.95246 0.3856 0.0
H912 H 0.66082 0.93873 0.37457 0.0
H913 H 0.57649 0.90073 0.56263 0.0
H914 H 0.58458 0.92384 0.53857 0.0
H915 H 0.56873 0.90304 0.48789 0.0
H916 H 0.60581 0.97316 0.4044 0.0
H917 H 0.56815 0.92131 0.29043 0.0
H918 H 0.64261 0.96561 0.4792 0.0
H919 H 0.6194 0.95484 0.52542 0.0
H920 H 0.6278 0.97673 0.49088 0.0
H921 H 0.59347 0.90044 0.33779 0.0
H922 H 0.56415 0.89274 0.31841 0.0
H923 H 0.57352 0.89163 0.39281 0.0
C924 C 0.66834 0.04128 0.18039 0.0
C925 C 0.64953 0.02179 0.16976 0.0
C926 C 0.68545 0.05054 0.14084 0.0
C927 C 0.68352 0.04011 0.08923 0.0
C928 C 0.66482 0.02038 0.07883 0.0
C929 C 0.64822 0.01144 0.11936 0.0
C930 C 0.70547 0.07154 0.15391 0.0
C931 C 0.66208 0.00878 0.02427 0.0
C932 C 0.71741 0.06926 0.96291 0.0
C933 C 0.73709 0.06914 0.97133 0.0
C934 C 0.69952 0.05952 1.00027 0.0
C935 C 0.70151 0.0496 0.04709 0.0
C936 C 0.72085 0.04875 0.05406 0.0
C937 C 0.73825 0.05838 0.01591 0.0
C938 C 0.67886 0.06037 0.99088 0.0
C939 C 0.72363 0.03829 0.10326 0.0
H940 H 0.66947 0.04941 0.21896 0.0
H941 H 0.63374 0.99638 0.11037 0.0
H942 H 0.72215 0.07312 0.15551 0.0
H943 H 0.70553 0.08033 0.11825 0.0
H944 H 0.70463 0.07754 0.19624 0.0
H945 H 0.64634 0.9936 0.02233 0.0
H946 H 0.66099 0.01572 0.98459 0.0
H947 H 0.67749 0.00852 0.02255 0.0
H948 H 0.71642 0.07759 0.92879 0.0
H949 H 0.7533 0.05804 0.02254 0.0
H950 H 0.67853 0.06836 0.02905 0.0
H951 H 0.66251 0.04553 0.98776 0.0
H952 H 0.67921 0.06766 0.95049 0.0
H953 H 0.72462 0.04504 0.14622 0.0
H954 H 0.73947 0.03863 0.10175 0.0
H955 H 0.70832 0.02296 0.10116 0.0
C956 C 0.93906 0.62836 0.0599 0.0
C957 C 0.92529 0.6183 0.00748 0.0
C958 C 0.9473 0.62028 0.09796 0.0
C959 C 0.94109 0.6014 0.08422 0.0
C960 C 0.92594 0.59068 0.03325 0.0
C961 C 0.91853 0.59937 0.99496 0.0
C962 C 0.96381 0.63243 0.15103 0.0
C963 C 0.91826 0.5703 0.018 0.0
C964 C 0.98494 0.59177 0.14177 0.0
C965 C 0.97655 0.5834 0.19487 0.0
C966 C 0.97325 0.59725 0.10481 0.0
C967 C 0.95223 0.59378 0.12032 0.0
C968 C 0.94298 0.58434 0.17228 0.0
C969 C 0.95544 0.57955 0.20946 0.0
C970 C 0.98407 0.60765 0.0506 0.0
C971 C 0.92025 0.5798 0.18942 0.0
H972 H 0.9445 0.64304 0.06972 0.0
H973 H 0.90778 0.59148 0.95467 0.0
H974 H 0.95746 0.62448 0.19132 0.0
H975 H 0.98104 0.6354 0.14629 0.0
H976 H 0.9661 0.64647 0.15701 0.0
H977 H 0.90397 0.56298 0.98197 0.0
H978 H 0.93311 0.57062 0.00397 0.0
H979 H 0.91237 0.56156 0.05704 0.0
H980 H 1.00131 0.59493 0.13033 0.0
H981 H 0.94879 0.57299 0.25027 0.0
H982 H 0.98835 0.62247 0.05424 0.0
H983 H 0.97161 0.59998 0.01109 0.0
H984 H 1.00018 0.60881 0.04394 0.0
H985 H 0.92239 0.59343 0.20229 0.0
H986 H 0.91397 0.57026 0.22674 0.0
H987 H 0.90678 0.57264 0.15155 0.0
C988 C 0.43426 0.31747 0.01474 0.0
C989 C 0.40989 0.30589 0.01041 0.0
C990 C 0.44736 0.33555 0.04705 0.0
C991 C 0.43582 0.34221 0.07529 0.0
C992 C 0.41126 0.3309 0.0689 0.0
C993 C 0.39867 0.31295 0.03679 0.0
C994 C 0.47351 0.34718 0.05275 0.0
C995 C 0.39817 0.33746 0.09769 0.0
C996 C 0.4602 0.37516 0.21448 0.0
C997 C 0.46479 0.39245 0.19362 0.0
C998 C 0.4524 0.35911 0.17586 0.0
C999 C 0.44895 0.36029 0.11477 0.0
C1000 C 0.45511 0.37813 0.09309 0.0
C1001 C 0.463 0.39402 0.13277 0.0
C1002 C 0.44628 0.34046 0.20095 0.0
C1003 C 0.45182 0.38006 0.02833 0.0
H1004 H 0.44308 0.31214 0.99456 0.0
H1005 H 0.37987 0.30425 0.03322 0.0
H1006 H 0.48119 0.36241 0.04248 0.0
H1007 H 0.47985 0.34743 0.09874 0.0
H1008 H 0.47988 0.34106 0.02338 0.0
H1009 H 0.37913 0.3275 0.08576 0.0
H1010 H 0.40152 0.33828 0.14612 0.0
H1011 H 0.4043 0.35217 0.08483 0.0
H1012 H 0.46173 0.37385 0.26136 0.0
H1013 H 0.46657 0.40733 0.11616 0.0
H1014 H 0.45365 0.33421 0.17629 0.0
H1015 H 0.42713 0.32973 0.19656 0.0
H1016 H 0.45268 0.34257 0.2481 0.0
H1017 H 0.45845 0.37344 1.00232 0.0
H1018 H 0.46071 0.39543 0.01768 0.0
H1019 H 0.43301 0.37221 0.0144 0.0
C1020 C 0.91294 0.32113 0.49288 0.0
C1021 C 0.9193 0.30864 0.50691 0.0
C1022 C 0.92037 0.33737 0.53041 0.0
C1023 C 0.93515 0.34158 0.58216 0.0
C1024 C 0.94085 0.32857 0.59756 0.0
C1025 C 0.93257 0.31214 0.56023 0.0
C1026 C 0.9132 0.35046 0.51339 0.0
C1027 C 0.95695 0.33266 0.65154 0.0
C1028 C 0.9798 0.39409 0.63768 0.0
C1029 C 0.97136 0.39513 0.69009 0.0
C1030 C 0.96788 0.3769 0.60156 0.0
C1031 C 0.94658 0.36043 0.61718 0.0
C1032 C 0.93728 0.36174 0.66831 0.0
C1033 C 0.94997 0.37897 0.70471 0.0
C1034 C 0.97874 0.37608 0.54823 0.0
C1035 C 0.91426 0.34476 0.68546 0.0
H1036 H 0.90259 0.31846 0.45188 0.0
H1037 H 0.93771 0.30265 0.57121 0.0
H1038 H 0.90746 0.35421 0.55172 0.0
H1039 H 0.92827 0.36419 0.49873 0.0
H1040 H 0.89895 0.34369 0.47725 0.0
H1041 H 0.95873 0.32064 0.65898 0.0
H1042 H 0.97441 0.34607 0.64679 0.0
H1043 H 0.95059 0.33514 0.69101 0.0
H1044 H 0.99639 0.40645 0.62626 0.0
H1045 H 0.94329 0.37971 0.745 0.0
H1046 H 0.96648 0.37149 0.5083 0.0
H1047 H 0.98256 0.36517 0.55319 0.0
H1048 H 0.99511 0.39027 0.5414 0.0
H1049 H 0.90096 0.33861 0.64718 0.0
H1050 H 0.90801 0.34887 0.72175 0.0
H1051 H 0.91597 0.33316 0.69985 0.0
C1052 C 0.67433 0.62956 0.69722 0.0
C1053 C 0.65298 0.62696 0.68586 0.0
C1054 C 0.69084 0.63766 0.65586 0.0
C1055 C 0.68578 0.64313 0.60187 0.0
C1056 C 0.66444 0.6408 0.59062 0.0
C1057 C 0.64842 0.63288 0.63275 0.0
C1058 C 0.71361 0.64021 0.66966 0.0
C1059 C 0.65838 0.64646 0.53369 0.0
C1060 C 0.73639 0.68048 0.52016 0.0
C1061 C 0.73756 0.66889 0.47837 0.0
C1062 C 0.71949 0.67228 0.56004 0.0
C1063 C 0.70311 0.65196 0.55787 0.0
C1064 C 0.70337 0.64019 0.51389 0.0
C1065 C 0.72065 0.64881 0.47457 0.0
C1066 C 0.71973 0.68536 0.60592 0.0
C1067 C 0.6859 0.61847 0.50971 0.0
H1068 H 0.67798 0.62497 0.73787 0.0
H1069 H 0.63199 0.63096 0.62329 0.0
H1070 H 0.71565 0.6319 0.63607 0.0
H1071 H 0.72825 0.65568 0.66806 0.0
H1072 H 0.71494 0.63531 0.71362 0.0
H1073 H 0.64088 0.64346 0.53141 0.0
H1074 H 0.67135 0.66213 0.52846 0.0
H1075 H 0.65893 0.63844 0.49602 0.0
H1076 H 0.74929 0.69604 0.52322 0.0
H1077 H 0.72151 0.63976 0.44271 0.0
H1078 H 0.72299 0.68182 0.65036 0.0
H1079 H 0.70259 0.68299 0.6037 0.0
H1080 H 0.73326 0.70094 0.60059 0.0
H1081 H 0.6882 0.6124 0.55009 0.0
H1082 H 0.68764 0.61148 0.47118 0.0
H1083 H 0.668 0.61462 0.50655 0.0
C1084 C 0.4348 0.12186 0.50249 0.0
C1085 C 0.41071 0.10958 0.50601 0.0
C1086 C 0.44982 0.11822 0.5327 0.0
C1087 C 0.44051 0.10185 0.56681 0.0
C1088 C 0.41619 0.08924 0.5695 0.0
C1089 C 0.40168 0.09328 0.53934 0.0
C1090 C 0.47563 0.13202 0.52892 0.0
C1091 C 0.40543 0.07148 0.60472 0.0
C1092 C 0.46962 0.07712 0.6088 0.0
C1093 C 0.47506 0.08184 0.66952 0.0
C1094 C 0.46003 0.08477 0.57368 0.0
C1095 C 0.45581 0.09752 0.5998 0.0
C1096 C 0.46322 0.10371 0.65999 0.0
C1097 C 0.47274 0.09578 0.69419 0.0
C1098 C 0.45257 0.07784 0.50971 0.0
C1099 C 0.45932 0.11747 0.68946 0.0
H1100 H 0.44197 0.13455 0.47715 0.0
H1101 H 0.38312 0.08362 0.54219 0.0
H1102 H 0.48456 0.13868 0.57324 0.0
H1103 H 0.48253 0.12406 0.51302 0.0
H1104 H 0.48009 0.14375 0.49916 0.0
H1105 H 0.3862 0.06303 0.60172 0.0
H1106 H 0.41019 0.06191 0.589 0.0
H1107 H 0.41225 0.07581 0.65159 0.0
H1108 H 0.47153 0.06649 0.58911 0.0
H1109 H 0.47695 0.09959 0.74097 0.0
H1110 H 0.45758 0.09011 0.48197 0.0
H1111 H 0.43338 0.06748 0.5034 0.0
H1112 H 0.46023 0.07045 0.49408 0.0
H1113 H 0.46437 0.12979 0.66194 0.0
H1114 H 0.46924 0.12324 0.73337 0.0
H1115 H 0.44058 0.10976 0.69507 0.0
C1116 C 0.33852 0.96389 0.02384 0.0
C1117 C 0.31838 0.9632 0.01214 0.0
C1118 C 0.35566 0.97176 0.98416 0.0
C1119 C 0.35239 0.97883 0.93133 0.0
C1120 C 0.33222 0.97833 0.91963 0.0
C1121 C 0.31563 0.97072 0.9603 0.0
C1122 C 0.37723 0.97244 0.99857 0.0
C1123 C 0.328 0.98562 0.86373 0.0
C1124 C 0.40522 0.01602 0.85604 0.0
C1125 C 0.40578 1.00461 0.81214 0.0
C1126 C 0.38798 0.00778 0.89493 0.0
C1127 C 0.3705 0.98763 0.88938 0.0
C1128 C 0.37022 0.9761 0.84351 0.0
C1129 C 0.38796 0.98473 0.80545 0.0
C1130 C 0.3889 0.02061 0.94311 0.0
C1131 C 0.35152 0.9546 0.83561 0.0
H1132 H 0.34075 0.95805 0.06352 0.0
H1133 H 0.30011 0.9702 0.95041 0.0
H1134 H 0.37873 0.96411 0.96382 0.0
H1135 H 0.39286 0.98762 0.99972 0.0
H1136 H 0.37721 0.96644 0.04149 0.0
H1137 H 0.31106 0.98367 0.86047 0.0
H1138 H 0.342 1.00123 0.86135 0.0
H1139 H 0.3284 0.97785 0.82506 0.0
H1140 H 0.4188 0.03143 0.86148 0.0
H1141 H 0.38829 0.9758 0.77191 0.0
H1142 H 0.39057 0.01564 0.9866 0.0
H1143 H 0.37255 0.01959 0.93995 0.0
H1144 H 0.40366 0.03605 0.94128 0.0
H1145 H 0.35242 0.94743 0.8749 0.0
H1146 H 0.35314 0.94783 0.79629 0.0
H1147 H 0.33413 0.95181 0.83142 0.0
C1148 C 0.06651 0.42457 0.88236 0.0
C1149 C 0.07571 0.44024 0.84625 0.0
C1150 C 0.08067 0.42013 0.91231 0.0
C1151 C 0.1048 0.43164 0.90636 0.0
C1152 C 0.11426 0.44733 0.8694 0.0
C1153 C 0.09959 0.45144 0.83966 0.0
C1154 C 0.06977 0.40317 0.95086 0.0
C1155 C 0.13988 0.45992 0.86195 0.0
C1156 C 0.13863 0.42691 0.03285 0.0
C1157 C 0.13965 0.41201 0.01018 0.0
C1158 C 0.1288 0.43449 0.99813 0.0
C1159 C 0.1198 0.427 0.93935 0.0
C1160 C 0.12242 0.41304 0.91501 0.0
C1161 C 0.1323 0.40572 0.95067 0.0
C1162 C 0.12652 0.44948 0.02573 0.0
C1163 C 0.11324 0.40473 0.85253 0.0
H1164 H 0.0481 0.41574 0.88769 0.0
H1165 H 0.10691 0.4636 0.81205 0.0
H1166 H 0.07322 0.39262 0.93617 0.0
H1167 H 0.07762 0.40823 0.99683 0.0
H1168 H 0.0507 0.39554 0.95027 0.0
H1169 H 0.14444 0.47119 0.83028 0.0
H1170 H 0.1499 0.46717 0.90491 0.0
H1171 H 0.14544 0.4509 0.84646 0.0
H1172 H 0.14432 0.43192 0.07868 0.0
H1173 H 0.13317 0.39432 0.93252 0.0
H1174 H 0.10809 0.44269 0.03295 0.0
H1175 H 0.13181 0.46137 0.9961 0.0
H1176 H 0.13717 0.45576 0.06861 0.0
H1177 H 0.09398 0.39509 0.84913 0.0
H1178 H 0.11955 0.39618 0.8377 0.0
H1179 H 0.11836 0.41643 0.82224 0.0
C1180 C 0.60765 0.64612 0.90547 0.0
C1181 C 0.59138 0.63888 0.85592 0.0
C1182 C 0.61459 0.66311 0.93769 0.0
C1183 C 0.60469 0.67306 0.92104 0.0
C1184 C 0.58741 0.66537 0.87278 0.0
C1185 C 0.58115 0.64849 0.8403 0.0
C1186 C 0.6333 0.67085 0.98818 0.0
C1187 C 0.57597 0.67523 0.85458 0.0
C1188 C 0.61687 0.71013 0.04099 0.0
C1189 C 0.63664 0.72716 0.02316 0.0
C1190 C 0.60511 0.69266 0.00593 0.0
C1191 C 0.61367 0.69206 0.95247 0.0
C1192 C 0.63292 0.70943 0.93294 0.0
C1193 C 0.64397 0.72677 0.96815 0.0
C1194 C 0.58428 0.67463 0.02765 0.0
C1195 C 0.64292 0.70948 0.87684 0.0
H1196 H 0.61575 0.6389 0.91798 0.0
H1197 H 0.56853 0.643 0.80223 0.0
H1198 H 0.64862 0.68538 0.97901 0.0
H1199 H 0.62699 0.67257 0.02903 0.0
H1200 H 0.639 0.66124 0.99607 0.0
H1201 H 0.56101 0.66627 0.82094 0.0
H1202 H 0.56987 0.67844 0.89324 0.0
H1203 H 0.58877 0.68925 0.83625 0.0
H1204 H 0.61095 0.71032 0.0832 0.0
H1205 H 0.65925 0.73982 0.95397 0.0
H1206 H 0.58914 0.66499 0.04327 0.0
H1207 H 0.57016 0.66647 0.99155 0.0
H1208 H 0.57752 0.67803 0.06442 0.0
H1209 H 0.65066 0.70128 0.88192 0.0
H1210 H 0.65657 0.72438 0.86514 0.0
H1211 H 0.62908 0.70216 0.83989 0.0
C1212 C 0.76912 0.98376 0.67455 0.0
C1213 C 0.74522 0.97222 0.68106 0.0
C1214 C 0.78401 1.00251 0.70249 0.0
C1215 C 0.77477 0.00994 0.73745 0.0
C1216 C 0.75064 0.99842 0.74355 0.0
C1217 C 0.73626 0.97979 0.71553 0.0
C1218 C 0.80962 0.01431 0.69506 0.0
C1219 C 0.73993 0.00576 0.77991 0.0
C1220 C 0.8083 0.05014 0.85879 0.0
C1221 C 0.80897 0.06532 0.83262 0.0
C1222 C 0.79888 0.03241 0.82687 0.0
C1223 C 0.7899 0.02981 0.76743 0.0
C1224 C 0.79245 0.04567 0.73953 0.0
C1225 C 0.80195 0.06321 0.77238 0.0
C1226 C 0.79679 0.01598 0.85822 0.0
C1227 C 0.78329 0.04366 0.67625 0.0
H1228 H 0.77626 0.97805 0.64827 0.0
H1229 H 0.71785 0.97111 0.72083 0.0
H1230 H 0.81523 0.02824 0.67628 0.0
H1231 H 0.81966 0.01784 0.7385 0.0
H1232 H 0.81408 0.00657 0.66603 0.0
H1233 H 0.72087 0.99503 0.78009 0.0
H1234 H 0.74794 0.00929 0.8259 0.0
H1235 H 0.74336 0.01927 0.76259 0.0
H1236 H 0.81369 0.05159 0.90522 0.0
H1237 H 0.80255 0.07489 0.75151 0.0
H1238 H 0.80176 0.00837 0.8305 0.0
H1239 H 0.77846 1.00527 0.867 0.0
H1240 H 0.80779 0.02108 0.90074 0.0
H1241 H 0.78834 0.03616 0.64833 0.0
H1242 H 0.78968 0.05793 0.65862 0.0
H1243 H 0.76404 0.03473 0.6728 0.0
C1244 C 0.07668 0.73138 0.69195 0.0
C1245 C 0.07696 0.74252 0.64647 0.0
C1246 C 0.05865 0.72233 0.72848 0.0
C1247 C 0.04005 0.72406 0.71888 0.0
C1248 C 0.03966 0.73464 0.67181 0.0
C1249 C 0.05823 0.74387 0.63623 0.0
C1250 C 0.05977 0.7112 0.77814 0.0
C1251 C 0.01981 0.73644 0.65965 0.0
C1252 C 0.98492 0.68498 0.78261 0.0
C1253 C 0.98552 0.69449 0.83414 0.0
C1254 C 1.00215 0.69463 0.74396 0.0
C1255 C 0.0208 0.71423 0.75748 0.0
C1256 C 0.02177 0.72393 0.80971 0.0
C1257 C 1.00399 0.71398 0.84727 0.0
C1258 C 1.00037 0.6838 0.68858 0.0
C1259 C 0.04169 0.74475 0.82608 0.0
H1260 H 0.09098 0.73013 0.70032 0.0
H1261 H 0.05832 0.75248 0.60143 0.0
H1262 H 0.05932 0.71733 0.82066 0.0
H1263 H 0.04445 0.69586 0.7729 0.0
H1264 H 0.07571 0.71155 0.7803 0.0
H1265 H 0.02174 0.74467 0.62036 0.0
H1266 H 1.00314 0.72184 0.65284 0.0
H1267 H 0.01874 0.74387 0.69808 0.0
H1268 H 0.97061 0.66999 0.77148 0.0
H1269 H 0.00452 0.72146 0.88671 0.0
H1270 H 0.01529 0.68279 0.68951 0.0
H1271 H 1.00112 0.69178 0.64966 0.0
H1272 H 0.98408 0.66891 0.6829 0.0
H1273 H 0.05824 0.7461 0.83129 0.0
H1274 H 0.03967 0.75033 0.86754 0.0
H1275 H 0.04309 0.75404 0.79044 0.0
C1276 C 0.29559 0.3076 0.70114 0.0
C1277 C 0.27429 0.29877 0.66672 0.0
C1278 C 0.30122 0.29663 0.73322 0.0
C1279 C 0.2852 0.27621 0.73107 0.0
C1280 C 0.26396 0.26709 0.69503 0.0
C1281 C 0.25875 0.27847 0.66323 0.0
C1282 C 0.32415 0.30698 0.77069 0.0
C1283 C 0.24649 0.24537 0.69137 0.0
C1284 C 0.31296 0.25135 0.78633 0.0
C1285 C 0.30901 0.24996 0.84593 0.0
C1286 C 0.30394 0.25864 0.74728 0.0
C1287 C 0.2907 0.26474 0.76827 0.0
C1288 C 0.28525 0.26206 0.82736 0.0
C1289 C 0.29444 0.25468 0.86545 0.0
C1290 C 0.30999 0.26106 0.68457 0.0
C1291 C 0.27108 0.26825 0.85153 0.0
H1292 H 0.30781 0.32324 0.70401 0.0
H1293 H 0.24223 0.27148 0.63693 0.0
H1294 H 0.32104 0.30429 0.81754 0.0
H1295 H 0.33409 0.30128 0.75847 0.0
H1296 H 0.33498 0.32288 0.76616 0.0
H1297 H 0.23159 0.24039 0.65816 0.0
H1298 H 0.25487 0.23817 0.6802 0.0
H1299 H 0.23975 0.24058 0.73475 0.0
H1300 H 0.32406 0.24763 0.77063 0.0
H1301 H 0.29122 0.25361 0.91132 0.0
H1302 H 0.32295 0.27665 0.67824 0.0
H1303 H 0.29444 0.25592 0.65374 0.0
H1304 H 0.31741 0.25308 0.67289 0.0
H1305 H 0.28138 0.2843 0.85453 0.0
H1306 H 0.26597 0.26304 0.89589 0.0
H1307 H 0.25517 0.26276 0.82175 0.0
C1308 C 1.0005 0.288 0.36045 0.0
C1309 C 0.98449 0.29262 0.35157 0.0
C1310 C 0.01975 0.29625 0.32743 0.0
C1311 C 0.02291 0.30927 0.28439 0.0
C1312 C 0.00711 0.31429 0.27622 0.0
C1313 C 0.98823 0.30601 0.31005 0.0
C1314 C 0.0365 0.2908 0.33787 0.0
C1315 C 0.00987 0.32814 0.23087 0.0
C1316 C 0.08182 0.34499 0.2303 0.0
C1317 C 0.07978 0.33613 0.17572 0.0
C1318 C 0.06372 0.33612 0.2668 0.0
C1319 C 0.04289 0.31799 0.24816 0.0
C1320 C 0.04067 0.30886 0.19331 0.0
C1321 C 0.05921 0.318 0.15781 0.0
C1322 C 0.06682 0.34628 0.32507 0.0
C1323 C 0.01856 0.28961 0.17174 0.0
H1324 H 0.99773 0.27764 0.39225 0.0
H1325 H 0.97603 0.30975 0.30275 0.0
H1326 H 0.03658 0.28358 0.29729 0.0
H1327 H 0.05439 0.30402 0.3486 0.0
H1328 H 0.032 0.28094 0.37412 0.0
H1329 H 0.99598 0.33048 0.22985 0.0
H1330 H 0.0269 0.34236 0.24005 0.0
H1331 H 0.00956 0.32247 0.18664 0.0
H1332 H 0.09771 0.35891 0.24497 0.0
H1333 H 0.05752 0.31102 0.11589 0.0
H1334 H 0.06328 0.33652 0.3611 0.0
H1335 H 0.05419 0.35 0.32522 0.0
H1336 H 0.0846 0.35979 0.3346 0.0
H1337 H 0.01418 0.27871 0.20457 0.0
H1338 H 0.0199 0.28408 0.12913 0.0
H1339 H 1.00397 0.29106 0.16632 0.0
C1340 C 0.80434 0.76022 0.36399 0.0
C1341 C 0.8066 0.74637 0.33829 0.0
C1342 C 0.79471 0.76824 0.33077 0.0
C1343 C 0.78713 0.76224 0.27053 0.0
C1344 C 0.79127 0.74958 0.24338 0.0
C1345 C 0.80097 0.74183 0.27752 0.0
C1346 C 0.7909 0.7819 0.36132 0.0
C1347 C 0.78362 0.74284 0.17931 0.0
C1348 C 0.73293 0.75816 0.21155 0.0
C1349 C 0.74193 0.77451 0.17851 0.0
C1350 C 0.74749 0.75408 0.2413 0.0
C1351 C 0.7718 0.7667 0.23846 0.0
C1352 C 0.78106 0.78317 0.20481 0.0
C1353 C 0.76601 0.78685 0.17503 0.0
C1354 C 0.73677 0.73623 0.27609 0.0
C1355 C 0.80687 0.79699 0.2009 0.0
H1356 H 0.80869 0.76387 0.41082 0.0
H1357 H 0.80283 0.73128 0.25704 0.0
H1358 H 0.79587 0.79432 0.33431 0.0
H1359 H 0.7722 0.77417 0.36737 0.0
H1360 H 0.80096 0.78754 0.40511 0.0
H1361 H 0.79115 0.73544 0.16287 0.0
H1362 H 0.76442 0.73255 0.17324 0.0
H1363 H 0.78863 0.75522 0.15207 0.0
H1364 H 0.71438 0.74847 0.21443 0.0
H1365 H 0.77316 0.79958 0.1499 0.0
H1366 H 0.74373 0.74043 0.3229 0.0
H1367 H 0.74141 0.72665 0.25963 0.0
H1368 H 0.71755 0.72782 0.27349 0.0
H1369 H 0.81589 0.80336 0.24535 0.0
H1370 H 0.81132 0.80894 0.17209 0.0
H1371 H 0.81367 0.78911 0.18373 0.0
C1372 C 0.26799 0.97915 0.23369 0.0
C1373 C 0.25332 0.97419 0.18192 0.0
C1374 C 0.27607 0.99596 0.26883 0.0
C1375 C 0.26883 0.00791 0.25285 0.0
C1376 C 0.25275 1.00227 0.20283 0.0
C1377 C 0.24546 0.98563 0.16742 0.0
C1378 C 0.29352 1.00155 0.32105 0.0
C1379 C 0.24397 0.01421 0.18537 0.0
C1380 C 0.28398 0.04613 0.37268 0.0
C1381 C 0.30464 0.06245 0.35534 0.0
C1382 C 0.27127 0.02856 0.33792 0.0
C1383 C 0.27983 0.02709 0.28556 0.0
C1384 C 0.30027 0.04372 0.26698 0.0
C1385 C 0.31222 0.06122 0.30162 0.0
C1386 C 0.24915 0.01138 0.35833 0.0
C1387 C 0.31033 0.04278 0.21216 0.0
H1388 H 0.27428 0.97048 0.24512 0.0
H1389 H 0.23405 0.98186 0.12765 0.0
H1390 H 0.31029 0.0153 0.31366 0.0
H1391 H 0.28752 1.00409 0.36119 0.0
H1392 H 0.29661 0.99029 0.32909 0.0
H1393 H 0.22905 0.00643 0.15107 0.0
H1394 H 0.2386 0.01814 0.2241 0.0
H1395 H 0.2581 0.0279 0.16802 0.0
H1396 H 0.27794 0.047 0.41397 0.0
H1397 H 0.32823 0.07371 0.28802 0.0
H1398 H 0.25206 1.00053 0.3737 0.0
H1399 H 0.23521 1.00426 0.32149 0.0
H1400 H 0.24307 0.01557 0.39486 0.0
H1401 H 0.31542 0.03268 0.21739 0.0
H1402 H 0.32582 0.05716 0.20248 0.0
H1403 H 0.29714 0.03706 0.17382 0.0
loop_
_geom_bond_atom_site_label_1
_geom_bond_atom_site_label_2
_geom_bond_distance
_geom_bond_site_symmetry_2
_ccdc_geom_bond_type
O0 Cd1 2.223 . S
O0 C8 1.315 . S
Cd1 O0 2.223 . S
Cd1 O4 2.297 . S
Cd1 O5 2.439 . S
Cd1 O11 2.240 . S
Cd2 O3 2.240 . S
Cd2 O10 2.223 . S
Cd2 O12 2.297 1_455 S
Cd2 O13 2.439 . S
O3 Cd2 2.240 . S
O3 C8 1.279 . S
O4 Cd1 2.297 . S
O4 C6 1.247 . S
O5 Cd1 2.439 . S
O5 C6 1.208 . S
C6 O4 1.247 . S
C6 O5 1.208 . S
C7 O12 1.247 1_455 S
C7 O13 1.210 . S
C8 O0 1.315 . S
C8 O3 1.279 . S
C9 O10 1.315 . S
C9 O11 1.279 . S
O10 Cd2 2.223 . S
O10 C9 1.315 . S
O11 Cd1 2.240 . S
O11 C9 1.279 . S
O12 Cd2 2.297 1_655 S
O12 C7 1.247 1_655 S
O13 Cd2 2.439 . S
O13 C7 1.210 . S
O14 Cd15 2.223 . S
O14 C22 1.315 . S
Cd15 O14 2.223 . S
Cd15 O18 2.297 . S
Cd15 O19 2.439 . S
Cd15 O25 2.240 . S
Cd16 O17 2.240 . S
Cd16 O24 2.223 . S
Cd16 O26 2.297 . S
Cd16 O27 2.439 . S
O17 Cd16 2.240 . S
O17 C22 1.279 . S
O18 Cd15 2.297 . S
O18 C20 1.247 . S
O19 Cd15 2.439 . S
O19 C20 1.208 . S
C20 O18 1.247 . S
C20 O19 1.208 . S
C21 O26 1.247 . S
C21 O27 1.208 . S
C22 O14 1.315 . S
C22 O17 1.279 . S
C23 O24 1.315 . S
C23 O25 1.279 . S
O24 Cd16 2.223 . S
O24 C23 1.315 . S
O25 Cd15 2.240 . S
O25 C23 1.279 . S
O26 Cd16 2.297 . S
O26 C21 1.247 . S
O27 Cd16 2.439 . S
O27 C21 1.208 . S
O28 Cd29 2.223 . S
O28 C36 1.315 . S
Cd29 O28 2.223 . S
Cd29 O32 2.297 . S
Cd29 O33 2.439 . S
Cd29 O39 2.240 . S
Cd30 O31 2.240 . S
Cd30 O38 2.223 1_565 S
Cd30 O40 2.297 . S
Cd30 O41 2.439 . S
O31 Cd30 2.240 . S
O31 C36 1.279 1_565 S
O32 Cd29 2.297 . S
O32 C34 1.247 . S
O33 Cd29 2.439 . S
O33 C34 1.208 . S
C34 O32 1.247 . S
C34 O33 1.208 . S
C35 O40 1.247 . S
C35 O41 1.208 . S
C36 O28 1.315 . S
C36 O31 1.279 1_545 S
C37 O38 1.315 . S
C37 O39 1.279 . S
O38 Cd30 2.223 1_545 S
O38 C37 1.315 . S
O39 Cd29 2.240 . S
O39 C37 1.279 . S
O40 Cd30 2.297 . S
O40 C35 1.247 . S
O41 Cd30 2.439 . S
O41 C35 1.208 . S
O42 Cd43 2.223 . S
O42 C50 1.315 . S
Cd43 O42 2.223 . S
Cd43 O46 2.297 . S
Cd43 O47 2.439 . S
Cd43 O53 2.240 . S
Cd44 O45 2.240 . S
Cd44 O52 2.223 1_655 S
Cd44 O54 2.297 . S
Cd44 O55 2.439 . S
O45 Cd44 2.240 . S
O45 C50 1.279 1_655 S
O46 Cd43 2.297 . S
O46 C48 1.247 . S
O47 Cd43 2.439 . S
O47 C48 1.208 . S
C48 O46 1.247 . S
C48 O47 1.208 . S
C49 O54 1.247 . S
C49 O55 1.208 . S
C50 O42 1.315 . S
C50 O45 1.279 1_455 S
C51 O52 1.315 . S
C51 O53 1.279 . S
O52 Cd44 2.223 1_455 S
O52 C51 1.315 . S
O53 Cd43 2.240 . S
O53 C51 1.279 . S
O54 Cd44 2.297 . S
O54 C49 1.247 . S
O55 Cd44 2.439 . S
O55 C49 1.208 . S
O56 Cd57 2.223 . S
O56 C64 1.315 . S
Cd57 O56 2.223 . S
Cd57 O60 2.297 . S
Cd57 O61 2.439 . S
Cd57 O67 2.240 . S
Cd58 O59 2.240 . S
Cd58 O66 2.223 . S
Cd58 O68 2.297 . S
Cd58 O69 2.439 . S
O59 Cd58 2.240 . S
O59 C64 1.279 . S
O60 Cd57 2.297 . S
O60 C62 1.247 . S
O61 Cd57 2.439 . S
O61 C62 1.208 . S
C62 O60 1.247 . S
C62 O61 1.208 . S
C63 O68 1.247 . S
C63 O69 1.208 . S
C64 O56 1.315 . S
C64 O59 1.279 . S
C65 O66 1.315 . S
C65 O67 1.279 . S
O66 Cd58 2.223 . S
O66 C65 1.315 . S
O67 Cd57 2.240 . S
O67 C65 1.279 . S
O68 Cd58 2.297 . S
O68 C63 1.247 . S
O69 Cd58 2.439 . S
O69 C63 1.208 . S
O70 Cd71 2.223 . S
O70 C78 1.315 . S
Cd71 O70 2.223 . S
Cd71 O74 2.297 . S
Cd71 O75 2.439 . S
Cd71 O81 2.240 . S
Cd72 O73 2.240 . S
Cd72 O80 2.223 . S
Cd72 O82 2.297 . S
Cd72 O83 2.439 . S
O73 Cd72 2.240 . S
O73 C78 1.279 . S
O74 Cd71 2.297 . S
O74 C76 1.247 . S
O75 Cd71 2.439 . S
O75 C76 1.208 . S
C76 O74 1.247 . S
C76 O75 1.208 . S
C77 O82 1.247 . S
C77 O83 1.208 . S
C78 O70 1.315 . S
C78 O73 1.279 . S
C79 O80 1.315 . S
C79 O81 1.279 . S
O80 Cd72 2.223 . S
O80 C79 1.315 . S
O81 Cd71 2.240 . S
O81 C79 1.279 . S
O82 Cd72 2.297 . S
O82 C77 1.247 . S
O83 Cd72 2.439 . S
O83 C77 1.208 . S
O84 Cd85 2.223 . S
O84 C92 1.315 . S
Cd85 O84 2.223 . S
Cd85 O88 2.297 . S
Cd85 O89 2.439 . S
Cd85 O95 2.240 . S
Cd86 O87 2.240 . S
Cd86 O94 2.223 . S
Cd86 O96 2.297 . S
Cd86 O97 2.439 . S
O87 Cd86 2.240 . S
O87 C92 1.279 . S
O88 Cd85 2.297 . S
O88 C90 1.247 . S
O89 Cd85 2.439 . S
O89 C90 1.208 . S
C90 O88 1.247 . S
C90 O89 1.208 . S
C91 O96 1.247 . S
C91 O97 1.208 . S
C92 O84 1.315 . S
C92 O87 1.279 . S
C93 O94 1.315 . S
C93 O95 1.279 . S
O94 Cd86 2.223 . S
O94 C93 1.315 . S
O95 Cd85 2.240 . S
O95 C93 1.279 . S
O96 Cd86 2.297 . S
O96 C91 1.247 . S
O97 Cd86 2.439 . S
O97 C91 1.208 . S
O98 Cd99 2.223 . S
O98 C106 1.315 . S
Cd99 O98 2.223 . S
Cd99 O102 2.297 . S
Cd99 O103 2.439 . S
Cd99 O109 2.240 . S
Cd100 O101 2.240 . S
Cd100 O108 2.223 . S
Cd100 O110 2.297 . S
Cd100 O111 2.439 . S
O101 Cd100 2.240 . S
O101 C106 1.279 . S
O102 Cd99 2.297 . S
O102 C104 1.247 . S
O103 Cd99 2.439 . S
O103 C104 1.208 . S
C104 O102 1.247 . S
C104 O103 1.208 . S
C105 O110 1.247 . S
C105 O111 1.208 . S
C106 O98 1.315 . S
C106 O101 1.279 . S
C107 O108 1.315 . S
C107 O109 1.279 . S
O108 Cd100 2.223 . S
O108 C107 1.315 . S
O109 Cd99 2.240 . S
O109 C107 1.279 . S
O110 Cd100 2.297 . S
O110 C105 1.247 . S
O111 Cd100 2.439 . S
O111 C105 1.208 . S
O112 Cd113 2.223 . S
O112 C120 1.315 . S
Cd113 O112 2.223 . S
Cd113 O116 2.297 . S
Cd113 O117 2.439 . S
Cd113 O123 2.240 . S
Cd114 O115 2.240 . S
Cd114 O122 2.223 . S
Cd114 O124 2.297 . S
Cd114 O125 2.439 . S
O115 Cd114 2.240 . S
O115 C120 1.279 . S
O116 Cd113 2.297 . S
O116 C118 1.247 . S
O117 Cd113 2.439 . S
O117 C118 1.208 . S
C118 O116 1.247 . S
C118 O117 1.208 . S
C119 O124 1.247 . S
C119 O125 1.208 . S
C120 O112 1.315 . S
C120 O115 1.279 . S
C121 O122 1.315 . S
C121 O123 1.279 . S
O122 Cd114 2.223 . S
O122 C121 1.315 . S
O123 Cd113 2.240 . S
O123 C121 1.279 . S
O124 Cd114 2.297 . S
O124 C119 1.247 . S
O125 Cd114 2.439 . S
O125 C119 1.208 . S
O126 Cd127 2.223 . S
O126 C134 1.315 . S
Cd127 O126 2.223 . S
Cd127 O130 2.297 . S
Cd127 O131 2.439 1_554 S
Cd127 O137 2.240 . S
Cd128 O129 2.240 . S
Cd128 O136 2.223 . S
Cd128 O138 2.297 . S
Cd128 O139 2.439 . S
O129 Cd128 2.240 . S
O129 C134 1.279 . S
O130 Cd127 2.297 . S
O130 C132 1.247 1_554 S
O131 Cd127 2.439 1_556 S
O131 C132 1.208 . S
C132 O130 1.247 1_556 S
C132 O131 1.208 . S
C133 O138 1.247 . S
C133 O139 1.208 . S
C134 O126 1.315 . S
C134 O129 1.279 . S
C135 O136 1.315 . S
C135 O137 1.279 . S
O136 Cd128 2.223 . S
O136 C135 1.315 . S
O137 Cd127 2.240 . S
O137 C135 1.279 . S
O138 Cd128 2.297 . S
O138 C133 1.247 . S
O139 Cd128 2.439 . S
O139 C133 1.208 . S
O140 Cd141 2.223 . S
O140 C148 1.315 1_554 S
Cd141 O140 2.223 . S
Cd141 O144 2.297 . S
Cd141 O145 2.439 . S
Cd141 O151 2.240 . S
Cd142 O143 2.240 . S
Cd142 O150 2.223 1_554 S
Cd142 O152 2.297 . S
Cd142 O153 2.439 . S
O143 Cd142 2.240 . S
O143 C148 1.279 1_554 S
O144 Cd141 2.297 . S
O144 C146 1.247 . S
O145 Cd141 2.439 . S
O145 C146 1.208 . S
C146 O144 1.247 . S
C146 O145 1.208 . S
C147 O152 1.247 . S
C147 O153 1.208 . S
C148 O140 1.315 1_556 S
C148 O143 1.279 1_556 S
C149 O150 1.315 1_554 S
C149 O151 1.279 . S
O150 Cd142 2.223 1_556 S
O150 C149 1.315 1_556 S
O151 Cd141 2.240 . S
O151 C149 1.279 . S
O152 Cd142 2.297 . S
O152 C147 1.247 . S
O153 Cd142 2.439 . S
O153 C147 1.208 . S
O154 Cd155 2.223 . S
O154 C162 1.315 . S
Cd155 O154 2.223 . S
Cd155 O158 2.297 . S
Cd155 O159 2.439 1_554 S
Cd155 O165 2.240 . S
Cd156 O157 2.240 . S
Cd156 O164 2.223 . S
Cd156 O166 2.297 . S
Cd156 O167 2.439 . S
O157 Cd156 2.240 . S
O157 C162 1.279 . S
O158 Cd155 2.297 . S
O158 C160 1.247 1_554 S
O159 Cd155 2.439 1_556 S
O159 C160 1.208 . S
C160 O158 1.247 1_556 S
C160 O159 1.208 . S
C161 O166 1.247 . S
C161 O167 1.208 . S
C162 O154 1.315 . S
C162 O157 1.279 . S
C163 O164 1.315 . S
C163 O165 1.279 . S
O164 Cd156 2.223 . S
O164 C163 1.315 . S
O165 Cd155 2.240 . S
O165 C163 1.279 . S
O166 Cd156 2.297 . S
O166 C161 1.247 . S
O167 Cd156 2.439 . S
O167 C161 1.208 . S
O168 Cd169 2.223 1_554 S
O168 C176 1.315 . S
Cd169 O168 2.223 1_556 S
Cd169 O172 2.297 . S
Cd169 O173 2.439 . S
Cd169 O179 2.240 . S
Cd170 O171 2.240 . S
Cd170 O178 2.223 1_556 S
Cd170 O180 2.297 . S
Cd170 O181 2.439 . S
O171 Cd170 2.240 . S
O171 C176 1.279 1_556 S
O172 Cd169 2.297 . S
O172 C174 1.247 . S
O173 Cd169 2.439 . S
O173 C174 1.208 . S
C174 O172 1.247 . S
C174 O173 1.208 . S
C175 O180 1.247 . S
C175 O181 1.208 . S
C176 O168 1.315 . S
C176 O171 1.279 1_554 S
C177 O178 1.316 . S
C177 O179 1.277 1_554 S
O178 Cd170 2.223 1_554 S
O178 C177 1.316 . S
O179 Cd169 2.240 . S
O179 C177 1.277 1_556 S
O180 Cd170 2.297 . S
O180 C175 1.247 . S
O181 Cd170 2.439 . S
O181 C175 1.208 . S
O182 Cd183 2.223 . S
O182 C190 1.315 1_556 S
Cd183 O182 2.223 . S
Cd183 O186 2.297 . S
Cd183 O187 2.439 . S
Cd183 O193 2.240 . S
Cd184 O185 2.240 . S
Cd184 O192 2.223 1_556 S
Cd184 O194 2.297 . S
Cd184 O195 2.439 . S
O185 Cd184 2.240 . S
O185 C190 1.279 1_556 S
O186 Cd183 2.297 . S
O186 C188 1.247 . S
O187 Cd183 2.439 . S
O187 C188 1.208 . S
C188 O186 1.247 . S
C188 O187 1.208 . S
C189 O194 1.247 . S
C189 O195 1.208 . S
C190 O182 1.315 1_554 S
C190 O185 1.279 1_554 S
C191 O192 1.315 1_556 S
C191 O193 1.279 . S
O192 Cd184 2.223 1_554 S
O192 C191 1.315 1_554 S
O193 Cd183 2.240 . S
O193 C191 1.279 . S
O194 Cd184 2.297 . S
O194 C189 1.247 . S
O195 Cd184 2.439 . S
O195 C189 1.208 . S
O196 Cd197 2.223 . S
O196 C204 1.315 . S
Cd197 O196 2.223 . S
Cd197 O200 2.297 . S
Cd197 O201 2.439 1_556 S
Cd197 O207 2.240 . S
Cd198 O199 2.240 . S
Cd198 O206 2.223 . S
Cd198 O208 2.297 . S
Cd198 O209 2.439 . S
O199 Cd198 2.240 . S
O199 C204 1.279 . S
O200 Cd197 2.297 . S
O200 C202 1.247 1_556 S
O201 Cd197 2.439 1_554 S
O201 C202 1.208 . S
C202 O200 1.247 1_554 S
C202 O201 1.208 . S
C203 O208 1.247 . S
C203 O209 1.208 . S
C204 O196 1.315 . S
C204 O199 1.279 . S
C205 O206 1.315 . S
C205 O207 1.279 . S
O206 Cd198 2.223 . S
O206 C205 1.315 . S
O207 Cd197 2.240 . S
O207 C205 1.279 . S
O208 Cd198 2.297 . S
O208 C203 1.247 . S
O209 Cd198 2.439 . S
O209 C203 1.208 . S
O210 Cd211 2.223 . S
O210 C218 1.315 . S
Cd211 O210 2.223 . S
Cd211 O214 2.297 . S
Cd211 O215 2.439 . S
Cd211 O221 2.240 . S
Cd212 O213 2.240 . S
Cd212 O220 2.223 . S
Cd212 O222 2.297 . S
Cd212 O223 2.439 . S
O213 Cd212 2.240 . S
O213 C218 1.279 . S
O214 Cd211 2.297 . S
O214 C216 1.247 . S
O215 Cd211 2.439 . S
O215 C216 1.208 . S
C216 O214 1.247 . S
C216 O215 1.208 . S
C217 O222 1.247 . S
C217 O223 1.208 . S
C218 O210 1.315 . S
C218 O213 1.279 . S
C219 O220 1.315 . S
C219 O221 1.279 . S
O220 Cd212 2.223 . S
O220 C219 1.315 . S
O221 Cd211 2.240 . S
O221 C219 1.279 . S
O222 Cd212 2.297 . S
O222 C217 1.247 . S
O223 Cd212 2.439 . S
O223 C217 1.208 . S
O224 Cd225 2.223 . S
O224 C232 1.315 . S
Cd225 O224 2.223 . S
Cd225 O228 2.297 . S
Cd225 O229 2.439 . S
Cd225 O235 2.240 . S
Cd226 O227 2.240 . S
Cd226 O234 2.223 . S
Cd226 O236 2.297 . S
Cd226 O237 2.439 . S
O227 Cd226 2.240 . S
O227 C232 1.279 . S
O228 Cd225 2.297 . S
O228 C230 1.247 . S
O229 Cd225 2.439 . S
O229 C230 1.208 . S
C230 O228 1.247 . S
C230 O229 1.208 . S
C231 O236 1.247 . S
C231 O237 1.208 . S
C232 O224 1.315 . S
C232 O227 1.279 . S
C233 O234 1.315 . S
C233 O235 1.279 . S
O234 Cd226 2.223 . S
O234 C233 1.315 . S
O235 Cd225 2.240 . S
O235 C233 1.279 . S
O236 Cd226 2.297 . S
O236 C231 1.247 . S
O237 Cd226 2.439 . S
O237 C231 1.208 . S
O238 Cd239 2.223 . S
O238 C246 1.315 . S
Cd239 O238 2.223 . S
Cd239 O242 2.297 . S
Cd239 O243 2.439 . S
Cd239 O249 2.240 . S
Cd240 O241 2.240 . S
Cd240 O248 2.223 . S
Cd240 O250 2.297 . S
Cd240 O251 2.439 . S
O241 Cd240 2.240 . S
O241 C246 1.279 . S
O242 Cd239 2.297 . S
O242 C244 1.247 . S
O243 Cd239 2.439 . S
O243 C244 1.208 . S
C244 O242 1.247 . S
C244 O243 1.208 . S
C245 O250 1.247 . S
C245 O251 1.208 . S
C246 O238 1.315 . S
C246 O241 1.279 . S
C247 O248 1.315 . S
C247 O249 1.279 . S
O248 Cd240 2.223 . S
O248 C247 1.315 . S
O249 Cd239 2.240 . S
O249 C247 1.279 . S
O250 Cd240 2.297 . S
O250 C245 1.247 . S
O251 Cd240 2.439 . S
O251 C245 1.208 . S
C252 C253 1.391 . S
C252 C254 1.394 . S
C252 H268 0.931 . S
C253 C252 1.391 . S
C253 C257 1.376 1_455 S
C254 C252 1.394 . S
C254 C255 1.369 . S
C254 C258 1.531 . S
C255 C254 1.369 . S
C255 C256 1.410 1_455 S
C255 C263 1.503 . S
C256 C255 1.410 1_655 S
C256 C257 1.392 . S
C256 C259 1.511 . S
C257 C253 1.376 1_655 S
C257 C256 1.392 . S
C257 H269 0.929 . S
C258 C254 1.531 . S
C258 H270 0.960 . S
C258 H271 0.962 . S
C258 H272 0.960 . S
C259 C256 1.511 . S
C259 H273 0.961 . S
C259 H274 0.961 . S
C259 H275 0.961 . S
C260 C261 1.370 . S
C260 C262 1.363 . S
C260 H276 0.931 . S
C261 C260 1.370 . S
C261 C265 1.408 . S
C262 C260 1.363 . S
C262 C263 1.370 1_554 S
C262 C266 1.524 . S
C263 C255 1.503 . S
C263 C262 1.370 1_556 S
C263 C264 1.403 . S
C264 C263 1.403 . S
C264 C265 1.404 1_556 S
C264 C267 1.539 . S
C265 C261 1.408 . S
C265 C264 1.404 1_554 S
C265 H277 0.930 . S
C266 C262 1.524 . S
C266 H278 0.956 . S
C266 H279 0.961 . S
C266 H280 0.961 . S
C267 C264 1.539 . S
C267 H281 0.958 . S
C267 H282 0.961 . S
C267 H283 0.960 . S
H268 C252 0.931 . S
H269 C257 0.929 . S
H270 C258 0.960 . S
H271 C258 0.962 . S
H272 C258 0.960 . S
H273 C259 0.961 . S
H274 C259 0.961 . S
H275 C259 0.961 . S
H276 C260 0.931 . S
H277 C265 0.930 . S
H278 C266 0.956 . S
H279 C266 0.961 . S
H280 C266 0.961 . S
H281 C267 0.958 . S
H282 C267 0.961 . S
H283 C267 0.960 . S
C284 C285 1.391 . S
C284 C286 1.394 . S
C284 H300 0.931 . S
C285 C284 1.391 . S
C285 C289 1.376 . S
C286 C284 1.394 . S
C286 C287 1.369 . S
C286 C290 1.531 . S
C287 C286 1.369 . S
C287 C288 1.410 . S
C287 C295 1.503 1_556 S
C288 C287 1.410 . S
C288 C289 1.392 . S
C288 C291 1.511 1_556 S
C289 C285 1.376 . S
C289 C288 1.392 . S
C289 H301 0.929 . S
C290 C286 1.531 . S
C290 H302 0.960 . S
C290 H303 0.962 . S
C290 H304 0.960 . S
C291 C288 1.511 1_554 S
C291 H305 0.961 . S
C291 H306 0.961 . S
C291 H307 0.961 . S
C292 C293 1.370 . S
C292 C294 1.363 . S
C292 H308 0.931 . S
C293 C292 1.370 . S
C293 C297 1.408 . S
C294 C292 1.363 . S
C294 C295 1.370 . S
C294 C298 1.524 . S
C295 C287 1.503 1_554 S
C295 C294 1.370 . S
C295 C296 1.403 . S
C296 C295 1.403 . S
C296 C297 1.404 . S
C296 C299 1.539 . S
C297 C293 1.408 . S
C297 C296 1.404 . S
C297 H309 0.930 . S
C298 C294 1.524 . S
C298 H310 0.956 . S
C298 H311 0.961 . S
C298 H312 0.961 . S
C299 C296 1.539 . S
C299 H313 0.958 1_554 S
C299 H314 0.961 . S
C299 H315 0.960 1_554 S
H300 C284 0.931 . S
H301 C289 0.929 . S
H302 C290 0.960 . S
H303 C290 0.962 . S
H304 C290 0.960 . S
H305 C291 0.961 . S
H306 C291 0.961 . S
H307 C291 0.961 . S
H308 C292 0.931 . S
H309 C297 0.930 . S
H310 C298 0.956 . S
H311 C298 0.961 . S
H312 C298 0.961 . S
H313 C299 0.958 1_556 S
H314 C299 0.961 . S
H315 C299 0.960 1_556 S
C316 C317 1.391 . S
C316 C318 1.394 . S
C316 H332 0.931 . S
C317 C316 1.391 . S
C317 C321 1.376 . S
C318 C316 1.394 . S
C318 C319 1.369 . S
C318 C322 1.531 . S
C319 C318 1.369 . S
C319 C320 1.410 . S
C319 C327 1.503 1_554 S
C320 C319 1.410 . S
C320 C321 1.392 . S
C320 C323 1.511 1_554 S
C321 C317 1.376 . S
C321 C320 1.392 . S
C321 H333 0.929 . S
C322 C318 1.531 . S
C322 H334 0.960 . S
C322 H335 0.962 . S
C322 H336 0.960 . S
C323 C320 1.511 1_556 S
C323 H337 0.961 . S
C323 H338 0.961 . S
C323 H339 0.961 . S
C324 C325 1.370 . S
C324 C326 1.363 . S
C324 H340 0.931 . S
C325 C324 1.370 . S
C325 C329 1.408 . S
C326 C324 1.363 . S
C326 C327 1.370 . S
C326 C330 1.524 . S
C327 C319 1.503 1_556 S
C327 C326 1.370 . S
C327 C328 1.403 . S
C328 C327 1.403 . S
C328 C329 1.404 . S
C328 C331 1.539 1_556 S
C329 C325 1.408 . S
C329 C328 1.404 . S
C329 H341 0.930 . S
C330 C326 1.524 . S
C330 H342 0.956 1_545 S
C330 H343 0.961 . S
C330 H344 0.961 1_545 S
C331 C328 1.539 1_554 S
C331 H345 0.958 . S
C331 H346 0.961 . S
C331 H347 0.960 . S
H332 C316 0.931 . S
H333 C321 0.929 . S
H334 C322 0.960 . S
H335 C322 0.962 . S
H336 C322 0.960 . S
H337 C323 0.961 . S
H338 C323 0.961 . S
H339 C323 0.961 . S
H340 C324 0.931 . S
H341 C329 0.930 . S
H342 C330 0.956 1_565 S
H343 C330 0.961 . S
H344 C330 0.961 1_565 S
H345 C331 0.958 . S
H346 C331 0.961 . S
H347 C331 0.960 . S
C348 C349 1.391 . S
C348 C350 1.394 . S
C348 H364 0.931 . S
C349 C348 1.391 . S
C349 C353 1.376 . S
C350 C348 1.394 . S
C350 C351 1.369 . S
C350 C354 1.531 . S
C351 C350 1.369 . S
C351 C352 1.410 . S
C351 C359 1.503 . S
C352 C351 1.410 . S
C352 C353 1.392 . S
C352 C355 1.511 1_545 S
C353 C349 1.376 . S
C353 C352 1.392 . S
C353 H365 0.929 1_545 S
C354 C350 1.531 . S
C354 H366 0.960 . S
C354 H367 0.962 . S
C354 H368 0.960 . S
C355 C352 1.511 1_565 S
C355 H369 0.961 . S
C355 H370 0.961 . S
C355 H371 0.961 . S
C356 C357 1.370 . S
C356 C358 1.363 . S
C356 H372 0.931 . S
C357 C356 1.370 . S
C357 C361 1.408 . S
C358 C356 1.363 . S
C358 C359 1.370 . S
C358 C362 1.524 . S
C359 C351 1.503 . S
C359 C358 1.370 . S
C359 C360 1.403 . S
C360 C359 1.403 . S
C360 C361 1.404 . S
C360 C363 1.539 . S
C361 C357 1.408 . S
C361 C360 1.404 . S
C361 H373 0.930 . S
C362 C358 1.524 . S
C362 H374 0.956 . S
C362 H375 0.961 . S
C362 H376 0.961 . S
C363 C360 1.539 . S
C363 H377 0.958 . S
C363 H378 0.961 . S
C363 H379 0.960 . S
H364 C348 0.931 . S
H365 C353 0.929 1_565 S
H366 C354 0.960 . S
H367 C354 0.962 . S
H368 C354 0.960 . S
H369 C355 0.961 . S
H370 C355 0.961 . S
H371 C355 0.961 . S
H372 C356 0.931 . S
H373 C361 0.930 . S
H374 C362 0.956 . S
H375 C362 0.961 . S
H376 C362 0.961 . S
H377 C363 0.958 . S
H378 C363 0.961 . S
H379 C363 0.960 . S
C380 C381 1.391 . S
C380 C382 1.394 . S
C380 H396 0.931 1_455 S
C381 C380 1.391 . S
C381 C385 1.376 . S
C382 C380 1.394 . S
C382 C383 1.369 . S
C382 C386 1.531 1_455 S
C383 C382 1.369 . S
C383 C384 1.410 . S
C383 C391 1.503 . S
C384 C383 1.410 . S
C384 C385 1.392 . S
C384 C387 1.511 . S
C385 C381 1.376 . S
C385 C384 1.392 . S
C385 H397 0.929 . S
C386 C382 1.531 1_655 S
C386 H398 0.960 . S
C386 H399 0.962 . S
C386 H400 0.960 . S
C387 C384 1.511 . S
C387 H401 0.961 . S
C387 H402 0.961 . S
C387 H403 0.961 . S
C388 C389 1.370 . S
C388 C390 1.363 . S
C388 H404 0.931 . S
C389 C388 1.370 . S
C389 C393 1.408 . S
C390 C388 1.363 . S
C390 C391 1.370 . S
C390 C394 1.524 . S
C391 C383 1.503 . S
C391 C390 1.370 . S
C391 C392 1.403 . S
C392 C391 1.403 . S
C392 C393 1.404 . S
C392 C395 1.539 1_455 S
C393 C389 1.408 . S
C393 C392 1.404 . S
C393 H405 0.930 1_455 S
C394 C390 1.524 . S
C394 H406 0.956 . S
C394 H407 0.961 . S
C394 H408 0.961 . S
C395 C392 1.539 1_655 S
C395 H409 0.958 . S
C395 H410 0.961 . S
C395 H411 0.960 . S
H396 C380 0.931 1_655 S
H397 C385 0.929 . S
H398 C386 0.960 . S
H399 C386 0.962 . S
H400 C386 0.960 . S
H401 C387 0.961 . S
H402 C387 0.961 . S
H403 C387 0.961 . S
H404 C388 0.931 . S
H405 C393 0.930 1_655 S
H406 C394 0.956 . S
H407 C394 0.961 . S
H408 C394 0.961 . S
H409 C395 0.958 . S
H410 C395 0.961 . S
H411 C395 0.960 . S
C412 C413 1.391 . S
C412 C414 1.394 . S
C412 H428 0.931 . S
C413 C412 1.391 . S
C413 C417 1.376 . S
C414 C412 1.394 . S
C414 C415 1.369 . S
C414 C418 1.531 . S
C415 C414 1.369 . S
C415 C416 1.410 . S
C415 C423 1.503 . S
C416 C415 1.410 . S
C416 C417 1.392 . S
C416 C419 1.511 . S
C417 C413 1.376 . S
C417 C416 1.392 . S
C417 H429 0.929 . S
C418 C414 1.531 . S
C418 H430 0.960 . S
C418 H431 0.962 . S
C418 H432 0.960 . S
C419 C416 1.511 . S
C419 H433 0.961 . S
C419 H434 0.961 . S
C419 H435 0.961 . S
C420 C421 1.370 . S
C420 C422 1.363 . S
C420 H436 0.931 . S
C421 C420 1.370 . S
C421 C425 1.408 . S
C422 C420 1.363 . S
C422 C423 1.370 . S
C422 C426 1.524 . S
C423 C415 1.503 . S
C423 C422 1.370 . S
C423 C424 1.403 . S
C424 C423 1.403 . S
C424 C425 1.404 . S
C424 C427 1.539 . S
C425 C421 1.408 . S
C425 C424 1.404 . S
C425 H437 0.930 . S
C426 C422 1.524 . S
C426 H438 0.956 . S
C426 H439 0.961 . S
C426 H440 0.961 . S
C427 C424 1.539 . S
C427 H441 0.958 . S
C427 H442 0.961 . S
C427 H443 0.960 . S
H428 C412 0.931 . S
H429 C417 0.929 . S
H430 C418 0.960 . S
H431 C418 0.962 . S
H432 C418 0.960 . S
H433 C419 0.961 . S
H434 C419 0.961 . S
H435 C419 0.961 . S
H436 C420 0.931 . S
H437 C425 0.930 . S
H438 C426 0.956 . S
H439 C426 0.961 . S
H440 C426 0.961 . S
H441 C427 0.958 . S
H442 C427 0.961 . S
H443 C427 0.960 . S
C444 C445 1.391 . S
C444 C446 1.394 . S
C444 H460 0.931 . S
C445 C444 1.391 . S
C445 C449 1.376 . S
C446 C444 1.394 . S
C446 C447 1.369 . S
C446 C450 1.531 . S
C447 C446 1.369 . S
C447 C448 1.410 . S
C447 C455 1.503 . S
C448 C447 1.410 . S
C448 C449 1.392 . S
C448 C451 1.511 . S
C449 C445 1.376 . S
C449 C448 1.392 . S
C449 H461 0.929 . S
C450 C446 1.531 . S
C450 H462 0.960 . S
C450 H463 0.962 . S
C450 H464 0.960 . S
C451 C448 1.511 . S
C451 H465 0.961 . S
C451 H466 0.961 . S
C451 H467 0.961 . S
C452 C453 1.370 . S
C452 C454 1.363 . S
C452 H468 0.931 . S
C453 C452 1.370 . S
C453 C457 1.408 . S
C454 C452 1.363 . S
C454 C455 1.370 . S
C454 C458 1.524 . S
C455 C447 1.503 . S
C455 C454 1.370 . S
C455 C456 1.403 . S
C456 C455 1.403 . S
C456 C457 1.404 . S
C456 C459 1.539 . S
C457 C453 1.408 . S
C457 C456 1.404 . S
C457 H469 0.930 . S
C458 C454 1.524 . S
C458 H470 0.956 . S
C458 H471 0.961 . S
C458 H472 0.961 . S
C459 C456 1.539 . S
C459 H473 0.958 . S
C459 H474 0.961 . S
C459 H475 0.960 . S
H460 C444 0.931 . S
H461 C449 0.929 . S
H462 C450 0.960 . S
H463 C450 0.962 . S
H464 C450 0.960 . S
H465 C451 0.961 . S
H466 C451 0.961 . S
H467 C451 0.961 . S
H468 C452 0.931 . S
H469 C457 0.930 . S
H470 C458 0.956 . S
H471 C458 0.961 . S
H472 C458 0.961 . S
H473 C459 0.958 . S
H474 C459 0.961 . S
H475 C459 0.960 . S
C476 C477 1.391 . S
C476 C478 1.394 . S
C476 H492 0.931 . S
C477 C476 1.391 . S
C477 C481 1.376 . S
C478 C476 1.394 . S
C478 C479 1.369 . S
C478 C482 1.531 . S
C479 C478 1.369 . S
C479 C480 1.410 . S
C479 C487 1.503 . S
C480 C479 1.410 . S
C480 C481 1.392 . S
C480 C483 1.511 . S
C481 C477 1.376 . S
C481 C480 1.392 . S
C481 H493 0.929 . S
C482 C478 1.531 . S
C482 H494 0.960 . S
C482 H495 0.962 . S
C482 H496 0.960 . S
C483 C480 1.511 . S
C483 H497 0.961 . S
C483 H498 0.961 . S
C483 H499 0.961 . S
C484 C485 1.370 . S
C484 C486 1.363 . S
C484 H500 0.931 . S
C485 C484 1.370 . S
C485 C489 1.408 . S
C486 C484 1.363 . S
C486 C487 1.370 . S
C486 C490 1.524 . S
C487 C479 1.503 . S
C487 C486 1.370 . S
C487 C488 1.403 . S
C488 C487 1.403 . S
C488 C489 1.404 . S
C488 C491 1.539 . S
C489 C485 1.408 . S
C489 C488 1.404 . S
C489 H501 0.930 . S
C490 C486 1.524 . S
C490 H502 0.956 . S
C490 H503 0.961 . S
C490 H504 0.961 . S
C491 C488 1.539 . S
C491 H505 0.958 . S
C491 H506 0.961 . S
C491 H507 0.960 . S
H492 C476 0.931 . S
H493 C481 0.929 . S
H494 C482 0.960 . S
H495 C482 0.962 . S
H496 C482 0.960 . S
H497 C483 0.961 . S
H498 C483 0.961 . S
H499 C483 0.961 . S
H500 C484 0.931 . S
H501 C489 0.930 . S
H502 C490 0.956 . S
H503 C490 0.961 . S
H504 C490 0.961 . S
H505 C491 0.958 . S
H506 C491 0.961 . S
H507 C491 0.960 . S
C508 C509 1.391 . S
C508 C510 1.394 . S
C508 H524 0.931 . S
C509 C508 1.391 . S
C509 C513 1.376 . S
C510 C508 1.394 . S
C510 C511 1.369 . S
C510 C514 1.531 . S
C511 C510 1.369 . S
C511 C512 1.410 . S
C511 C519 1.503 . S
C512 C511 1.410 . S
C512 C513 1.392 . S
C512 C515 1.511 . S
C513 C509 1.376 . S
C513 C512 1.392 . S
C513 H525 0.929 . S
C514 C510 1.531 . S
C514 H526 0.960 . S
C514 H527 0.962 . S
C514 H528 0.960 . S
C515 C512 1.511 . S
C515 H529 0.961 . S
C515 H530 0.961 . S
C515 H531 0.961 . S
C516 C517 1.370 . S
C516 C518 1.363 . S
C516 H532 0.931 . S
C517 C516 1.370 . S
C517 C521 1.408 . S
C518 C516 1.363 . S
C518 C519 1.370 . S
C518 C522 1.524 . S
C519 C511 1.503 . S
C519 C518 1.370 . S
C519 C520 1.403 . S
C520 C519 1.403 . S
C520 C521 1.404 . S
C520 C523 1.539 . S
C521 C517 1.408 . S
C521 C520 1.404 . S
C521 H533 0.930 . S
C522 C518 1.524 . S
C522 H534 0.956 . S
C522 H535 0.961 . S
C522 H536 0.961 . S
C523 C520 1.539 . S
C523 H537 0.958 . S
C523 H538 0.961 . S
C523 H539 0.960 . S
H524 C508 0.931 . S
H525 C513 0.929 . S
H526 C514 0.960 . S
H527 C514 0.962 . S
H528 C514 0.960 . S
H529 C515 0.961 . S
H530 C515 0.961 . S
H531 C515 0.961 . S
H532 C516 0.931 . S
H533 C521 0.930 . S
H534 C522 0.956 . S
H535 C522 0.961 . S
H536 C522 0.961 . S
H537 C523 0.958 . S
H538 C523 0.961 . S
H539 C523 0.960 . S
C540 C541 1.391 . S
C540 C542 1.394 . S
C540 H556 0.931 . S
C541 C540 1.391 . S
C541 C545 1.376 . S
C542 C540 1.394 . S
C542 C543 1.369 . S
C542 C546 1.531 . S
C543 C542 1.369 . S
C543 C544 1.410 . S
C543 C551 1.503 . S
C544 C543 1.410 . S
C544 C545 1.392 . S
C544 C547 1.511 . S
C545 C541 1.376 . S
C545 C544 1.392 . S
C545 H557 0.929 . S
C546 C542 1.531 . S
C546 H558 0.960 . S
C546 H559 0.962 . S
C546 H560 0.960 . S
C547 C544 1.511 . S
C547 H561 0.961 . S
C547 H562 0.961 . S
C547 H563 0.961 . S
C548 C549 1.370 . S
C548 C550 1.363 . S
C548 H564 0.931 . S
C549 C548 1.370 . S
C549 C553 1.408 . S
C550 C548 1.363 . S
C550 C551 1.370 . S
C550 C554 1.524 . S
C551 C543 1.503 . S
C551 C550 1.370 . S
C551 C552 1.403 . S
C552 C551 1.403 . S
C552 C553 1.404 . S
C552 C555 1.539 . S
C553 C549 1.408 . S
C553 C552 1.404 . S
C553 H565 0.930 . S
C554 C550 1.524 . S
C554 H566 0.956 . S
C554 H567 0.961 . S
C554 H568 0.961 . S
C555 C552 1.539 . S
C555 H569 0.958 . S
C555 H570 0.961 . S
C555 H571 0.960 . S
H556 C540 0.931 . S
H557 C545 0.929 . S
H558 C546 0.960 . S
H559 C546 0.962 . S
H560 C546 0.960 . S
H561 C547 0.961 . S
H562 C547 0.961 . S
H563 C547 0.961 . S
H564 C548 0.931 . S
H565 C553 0.930 . S
H566 C554 0.956 . S
H567 C554 0.961 . S
H568 C554 0.961 . S
H569 C555 0.958 . S
H570 C555 0.961 . S
H571 C555 0.960 . S
C572 C573 1.391 . S
C572 C574 1.394 . S
C572 H588 0.931 . S
C573 C572 1.391 . S
C573 C577 1.376 . S
C574 C572 1.394 . S
C574 C575 1.369 . S
C574 C578 1.531 . S
C575 C574 1.369 . S
C575 C576 1.410 . S
C575 C583 1.503 . S
C576 C575 1.410 . S
C576 C577 1.392 . S
C576 C579 1.511 . S
C577 C573 1.376 . S
C577 C576 1.392 . S
C577 H589 0.929 . S
C578 C574 1.531 . S
C578 H590 0.960 . S
C578 H591 0.962 . S
C578 H592 0.960 . S
C579 C576 1.511 . S
C579 H593 0.961 . S
C579 H594 0.961 . S
C579 H595 0.961 . S
C580 C581 1.370 . S
C580 C582 1.363 . S
C580 H596 0.931 . S
C581 C580 1.370 . S
C581 C585 1.408 . S
C582 C580 1.363 . S
C582 C583 1.370 . S
C582 C586 1.524 . S
C583 C575 1.503 . S
C583 C582 1.370 . S
C583 C584 1.403 . S
C584 C583 1.403 . S
C584 C585 1.404 . S
C584 C587 1.539 . S
C585 C581 1.408 . S
C585 C584 1.404 . S
C585 H597 0.930 . S
C586 C582 1.524 . S
C586 H598 0.956 . S
C586 H599 0.961 . S
C586 H600 0.961 . S
C587 C584 1.539 . S
C587 H601 0.958 . S
C587 H602 0.961 . S
C587 H603 0.960 . S
H588 C572 0.931 . S
H589 C577 0.929 . S
H590 C578 0.960 . S
H591 C578 0.962 . S
H592 C578 0.960 . S
H593 C579 0.961 . S
H594 C579 0.961 . S
H595 C579 0.961 . S
H596 C580 0.931 . S
H597 C585 0.930 . S
H598 C586 0.956 . S
H599 C586 0.961 . S
H600 C586 0.961 . S
H601 C587 0.958 . S
H602 C587 0.961 . S
H603 C587 0.960 . S
C604 C605 1.391 . S
C604 C606 1.394 . S
C604 H620 0.931 . S
C605 C604 1.391 . S
C605 C609 1.376 . S
C606 C604 1.394 . S
C606 C607 1.369 . S
C606 C610 1.531 . S
C607 C606 1.369 . S
C607 C608 1.410 . S
C607 C615 1.503 . S
C608 C607 1.410 . S
C608 C609 1.392 . S
C608 C611 1.511 . S
C609 C605 1.376 . S
C609 C608 1.392 . S
C609 H621 0.929 . S
C610 C606 1.531 . S
C610 H622 0.960 . S
C610 H623 0.962 . S
C610 H624 0.960 . S
C611 C608 1.511 . S
C611 H625 0.961 . S
C611 H626 0.961 . S
C611 H627 0.961 . S
C612 C613 1.370 . S
C612 C614 1.363 . S
C612 H628 0.931 . S
C613 C612 1.370 . S
C613 C617 1.408 . S
C614 C612 1.363 . S
C614 C615 1.370 . S
C614 C618 1.524 . S
C615 C607 1.503 . S
C615 C614 1.370 . S
C615 C616 1.403 . S
C616 C615 1.403 . S
C616 C617 1.404 . S
C616 C619 1.539 . S
C617 C613 1.408 . S
C617 C616 1.404 . S
C617 H629 0.930 . S
C618 C614 1.524 . S
C618 H630 0.956 . S
C618 H631 0.961 . S
C618 H632 0.961 . S
C619 C616 1.539 . S
C619 H633 0.958 . S
C619 H634 0.961 . S
C619 H635 0.960 . S
H620 C604 0.931 . S
H621 C609 0.929 . S
H622 C610 0.960 . S
H623 C610 0.962 . S
H624 C610 0.960 . S
H625 C611 0.961 . S
H626 C611 0.961 . S
H627 C611 0.961 . S
H628 C612 0.931 . S
H629 C617 0.930 . S
H630 C618 0.956 . S
H631 C618 0.961 . S
H632 C618 0.961 . S
H633 C619 0.958 . S
H634 C619 0.961 . S
H635 C619 0.960 . S
C636 C637 1.391 . S
C636 C638 1.394 . S
C636 H652 0.931 . S
C637 C636 1.391 . S
C637 C641 1.376 . S
C638 C636 1.394 . S
C638 C639 1.369 . S
C638 C642 1.531 . S
C639 C638 1.369 . S
C639 C640 1.410 . S
C639 C647 1.503 . S
C640 C639 1.410 . S
C640 C641 1.392 . S
C640 C643 1.511 . S
C641 C637 1.376 . S
C641 C640 1.392 . S
C641 H653 0.929 . S
C642 C638 1.531 . S
C642 H654 0.960 . S
C642 H655 0.962 . S
C642 H656 0.960 . S
C643 C640 1.511 . S
C643 H657 0.961 . S
C643 H658 0.961 . S
C643 H659 0.961 . S
C644 C645 1.370 . S
C644 C646 1.363 . S
C644 H660 0.931 . S
C645 C644 1.370 . S
C645 C649 1.408 . S
C646 C644 1.363 . S
C646 C647 1.370 . S
C646 C650 1.524 . S
C647 C639 1.503 . S
C647 C646 1.370 . S
C647 C648 1.403 . S
C648 C647 1.403 . S
C648 C649 1.404 . S
C648 C651 1.539 . S
C649 C645 1.408 . S
C649 C648 1.404 . S
C649 H661 0.930 . S
C650 C646 1.524 . S
C650 H662 0.956 . S
C650 H663 0.961 . S
C650 H664 0.961 . S
C651 C648 1.539 . S
C651 H665 0.958 . S
C651 H666 0.961 . S
C651 H667 0.960 . S
H652 C636 0.931 . S
H653 C641 0.929 . S
H654 C642 0.960 . S
H655 C642 0.962 . S
H656 C642 0.960 . S
H657 C643 0.961 . S
H658 C643 0.961 . S
H659 C643 0.961 . S
H660 C644 0.931 . S
H661 C649 0.930 . S
H662 C650 0.956 . S
H663 C650 0.961 . S
H664 C650 0.961 . S
H665 C651 0.958 . S
H666 C651 0.961 . S
H667 C651 0.960 . S
C668 C669 1.391 . S
C668 C670 1.394 . S
C668 H684 0.931 . S
C669 C668 1.391 . S
C669 C673 1.376 . S
C670 C668 1.394 . S
C670 C671 1.369 . S
C670 C674 1.531 . S
C671 C670 1.369 . S
C671 C672 1.410 . S
C671 C679 1.503 . S
C672 C671 1.410 . S
C672 C673 1.392 . S
C672 C675 1.511 . S
C673 C669 1.376 . S
C673 C672 1.392 . S
C673 H685 0.929 . S
C674 C670 1.531 . S
C674 H686 0.960 . S
C674 H687 0.962 . S
C674 H688 0.960 . S
C675 C672 1.511 . S
C675 H689 0.961 . S
C675 H690 0.961 . S
C675 H691 0.961 . S
C676 C677 1.370 . S
C676 C678 1.363 . S
C676 H692 0.931 . S
C677 C676 1.370 . S
C677 C681 1.408 . S
C678 C676 1.363 . S
C678 C679 1.370 . S
C678 C682 1.524 . S
C679 C671 1.503 . S
C679 C678 1.370 . S
C679 C680 1.403 . S
C680 C679 1.403 . S
C680 C681 1.404 . S
C680 C683 1.539 . S
C681 C677 1.408 . S
C681 C680 1.404 . S
C681 H693 0.930 . S
C682 C678 1.524 . S
C682 H694 0.956 . S
C682 H695 0.961 . S
C682 H696 0.961 . S
C683 C680 1.539 . S
C683 H697 0.958 . S
C683 H698 0.961 . S
C683 H699 0.960 . S
H684 C668 0.931 . S
H685 C673 0.929 . S
H686 C674 0.960 . S
H687 C674 0.962 . S
H688 C674 0.960 . S
H689 C675 0.961 . S
H690 C675 0.961 . S
H691 C675 0.961 . S
H692 C676 0.931 . S
H693 C681 0.930 . S
H694 C682 0.956 . S
H695 C682 0.961 . S
H696 C682 0.961 . S
H697 C683 0.958 . S
H698 C683 0.961 . S
H699 C683 0.960 . S
C700 C701 1.391 . S
C700 C702 1.394 . S
C700 H716 0.931 . S
C701 C700 1.391 . S
C701 C705 1.376 . S
C702 C700 1.394 . S
C702 C703 1.369 . S
C702 C706 1.531 . S
C703 C702 1.369 . S
C703 C704 1.410 . S
C703 C711 1.503 . S
C704 C703 1.410 . S
C704 C705 1.392 . S
C704 C707 1.511 . S
C705 C701 1.376 . S
C705 C704 1.392 . S
C705 H717 0.929 . S
C706 C702 1.531 . S
C706 H718 0.960 . S
C706 H719 0.962 . S
C706 H720 0.960 . S
C707 C704 1.511 . S
C707 H721 0.961 . S
C707 H722 0.961 . S
C707 H723 0.961 . S
C708 C709 1.370 . S
C708 C710 1.363 . S
C708 H724 0.931 . S
C709 C708 1.370 . S
C709 C713 1.408 . S
C710 C708 1.363 . S
C710 C711 1.370 . S
C710 C714 1.524 . S
C711 C703 1.503 . S
C711 C710 1.370 . S
C711 C712 1.403 . S
C712 C711 1.403 . S
C712 C713 1.404 . S
C712 C715 1.539 . S
C713 C709 1.408 . S
C713 C712 1.404 . S
C713 H725 0.930 . S
C714 C710 1.524 . S
C714 H726 0.956 . S
C714 H727 0.961 . S
C714 H728 0.961 . S
C715 C712 1.539 . S
C715 H729 0.958 . S
C715 H730 0.961 . S
C715 H731 0.960 . S
H716 C700 0.931 . S
H717 C705 0.929 . S
H718 C706 0.960 . S
H719 C706 0.962 . S
H720 C706 0.960 . S
H721 C707 0.961 . S
H722 C707 0.961 . S
H723 C707 0.961 . S
H724 C708 0.931 . S
H725 C713 0.930 . S
H726 C714 0.956 . S
H727 C714 0.961 . S
H728 C714 0.961 . S
H729 C715 0.958 . S
H730 C715 0.961 . S
H731 C715 0.960 . S
C732 C733 1.391 . S
C732 C734 1.394 . S
C732 H748 0.931 . S
C733 C732 1.391 . S
C733 C737 1.376 . S
C734 C732 1.394 . S
C734 C735 1.369 . S
C734 C738 1.531 . S
C735 C734 1.369 . S
C735 C736 1.410 . S
C735 C743 1.503 . S
C736 C735 1.410 . S
C736 C737 1.392 . S
C736 C739 1.511 . S
C737 C733 1.376 . S
C737 C736 1.392 . S
C737 H749 0.929 . S
C738 C734 1.531 . S
C738 H750 0.960 . S
C738 H751 0.962 . S
C738 H752 0.960 . S
C739 C736 1.511 . S
C739 H753 0.961 . S
C739 H754 0.961 . S
C739 H755 0.961 . S
C740 C741 1.370 . S
C740 C742 1.363 . S
C740 H756 0.931 . S
C741 C740 1.370 . S
C741 C745 1.408 . S
C742 C740 1.363 . S
C742 C743 1.370 . S
C742 C746 1.524 . S
C743 C735 1.503 . S
C743 C742 1.370 . S
C743 C744 1.403 . S
C744 C743 1.403 . S
C744 C745 1.404 . S
C744 C747 1.539 . S
C745 C741 1.408 . S
C745 C744 1.404 . S
C745 H757 0.930 . S
C746 C742 1.524 . S
C746 H758 0.956 . S
C746 H759 0.961 . S
C746 H760 0.961 . S
C747 C744 1.539 . S
C747 H761 0.958 . S
C747 H762 0.961 . S
C747 H763 0.960 . S
H748 C732 0.931 . S
H749 C737 0.929 . S
H750 C738 0.960 . S
H751 C738 0.962 . S
H752 C738 0.960 . S
H753 C739 0.961 . S
H754 C739 0.961 . S
H755 C739 0.961 . S
H756 C740 0.931 . S
H757 C745 0.930 . S
H758 C746 0.956 . S
H759 C746 0.961 . S
H760 C746 0.961 . S
H761 C747 0.958 . S
H762 C747 0.961 . S
H763 C747 0.960 . S
C764 C765 1.391 . S
C764 C766 1.394 . S
C764 H780 0.931 . S
C765 C764 1.391 . S
C765 C769 1.376 . S
C766 C764 1.394 . S
C766 C767 1.369 . S
C766 C770 1.531 . S
C767 C766 1.369 . S
C767 C768 1.410 . S
C767 C775 1.503 . S
C768 C767 1.410 . S
C768 C769 1.392 . S
C768 C771 1.511 . S
C769 C765 1.376 . S
C769 C768 1.392 . S
C769 H781 0.929 . S
C770 C766 1.531 . S
C770 H782 0.960 . S
C770 H783 0.962 . S
C770 H784 0.960 . S
C771 C768 1.511 . S
C771 H785 0.961 . S
C771 H786 0.961 . S
C771 H787 0.961 . S
C772 C773 1.370 . S
C772 C774 1.363 . S
C772 H788 0.931 . S
C773 C772 1.370 . S
C773 C777 1.408 . S
C774 C772 1.363 . S
C774 C775 1.370 . S
C774 C778 1.524 . S
C775 C767 1.503 . S
C775 C774 1.370 . S
C775 C776 1.403 . S
C776 C775 1.403 . S
C776 C777 1.404 . S
C776 C779 1.539 . S
C777 C773 1.408 . S
C777 C776 1.404 . S
C777 H789 0.930 . S
C778 C774 1.524 . S
C778 H790 0.956 . S
C778 H791 0.961 . S
C778 H792 0.961 . S
C779 C776 1.539 . S
C779 H793 0.958 . S
C779 H794 0.961 . S
C779 H795 0.960 . S
H780 C764 0.931 . S
H781 C769 0.929 . S
H782 C770 0.960 . S
H783 C770 0.962 . S
H784 C770 0.960 . S
H785 C771 0.961 . S
H786 C771 0.961 . S
H787 C771 0.961 . S
H788 C772 0.931 . S
H789 C777 0.930 . S
H790 C778 0.956 . S
H791 C778 0.961 . S
H792 C778 0.961 . S
H793 C779 0.958 . S
H794 C779 0.961 . S
H795 C779 0.960 . S
C796 C797 1.391 . S
C796 C798 1.394 . S
C796 H812 0.931 . S
C797 C796 1.391 . S
C797 C801 1.376 . S
C798 C796 1.394 . S
C798 C799 1.369 . S
C798 C802 1.531 . S
C799 C798 1.369 . S
C799 C800 1.410 . S
C799 C807 1.503 . S
C800 C799 1.410 . S
C800 C801 1.392 . S
C800 C803 1.511 . S
C801 C797 1.376 . S
C801 C800 1.392 . S
C801 H813 0.929 . S
C802 C798 1.531 . S
C802 H814 0.960 . S
C802 H815 0.962 . S
C802 H816 0.960 . S
C803 C800 1.511 . S
C803 H817 0.961 . S
C803 H818 0.961 . S
C803 H819 0.961 . S
C804 C805 1.370 . S
C804 C806 1.363 . S
C804 H820 0.931 . S
C805 C804 1.370 . S
C805 C809 1.408 . S
C806 C804 1.363 . S
C806 C807 1.370 . S
C806 C810 1.524 . S
C807 C799 1.503 . S
C807 C806 1.370 . S
C807 C808 1.403 . S
C808 C807 1.403 . S
C808 C809 1.404 . S
C808 C811 1.539 . S
C809 C805 1.408 . S
C809 C808 1.404 . S
C809 H821 0.930 . S
C810 C806 1.524 . S
C810 H822 0.956 . S
C810 H823 0.961 . S
C810 H824 0.961 . S
C811 C808 1.539 . S
C811 H825 0.958 . S
C811 H826 0.961 . S
C811 H827 0.960 . S
H812 C796 0.931 . S
H813 C801 0.929 . S
H814 C802 0.960 . S
H815 C802 0.962 . S
H816 C802 0.960 . S
H817 C803 0.961 . S
H818 C803 0.961 . S
H819 C803 0.961 . S
H820 C804 0.931 . S
H821 C809 0.930 . S
H822 C810 0.956 . S
H823 C810 0.961 . S
H824 C810 0.961 . S
H825 C811 0.958 . S
H826 C811 0.961 . S
H827 C811 0.960 . S
C828 C829 1.391 . S
C828 C830 1.394 . S
C828 H844 0.931 . S
C829 C828 1.391 . S
C829 C833 1.376 . S
C830 C828 1.394 . S
C830 C831 1.369 . S
C830 C834 1.531 . S
C831 C830 1.369 . S
C831 C832 1.410 . S
C831 C839 1.503 . S
C832 C831 1.410 . S
C832 C833 1.392 . S
C832 C835 1.511 . S
C833 C829 1.376 . S
C833 C832 1.392 . S
C833 H845 0.929 . S
C834 C830 1.531 . S
C834 H846 0.960 . S
C834 H847 0.962 . S
C834 H848 0.960 . S
C835 C832 1.511 . S
C835 H849 0.961 . S
C835 H850 0.961 . S
C835 H851 0.961 . S
C836 C837 1.370 . S
C836 C838 1.363 . S
C836 H852 0.931 . S
C837 C836 1.370 . S
C837 C841 1.408 . S
C838 C836 1.363 . S
C838 C839 1.370 . S
C838 C842 1.524 . S
C839 C831 1.503 . S
C839 C838 1.370 . S
C839 C840 1.403 . S
C840 C839 1.403 . S
C840 C841 1.404 . S
C840 C843 1.539 . S
C841 C837 1.408 . S
C841 C840 1.404 . S
C841 H853 0.930 . S
C842 C838 1.524 . S
C842 H854 0.956 . S
C842 H855 0.961 . S
C842 H856 0.961 . S
C843 C840 1.539 . S
C843 H857 0.958 . S
C843 H858 0.961 . S
C843 H859 0.960 . S
H844 C828 0.931 . S
H845 C833 0.929 . S
H846 C834 0.960 . S
H847 C834 0.962 . S
H848 C834 0.960 . S
H849 C835 0.961 . S
H850 C835 0.961 . S
H851 C835 0.961 . S
H852 C836 0.931 . S
H853 C841 0.930 . S
H854 C842 0.956 . S
H855 C842 0.961 . S
H856 C842 0.961 . S
H857 C843 0.958 . S
H858 C843 0.961 . S
H859 C843 0.960 . S
C860 C861 1.391 . S
C860 C862 1.394 . S
C860 H876 0.931 . S
C861 C860 1.391 . S
C861 C865 1.376 . S
C862 C860 1.394 . S
C862 C863 1.369 . S
C862 C866 1.531 . S
C863 C862 1.369 . S
C863 C864 1.410 . S
C863 C871 1.503 . S
C864 C863 1.410 . S
C864 C865 1.392 . S
C864 C867 1.511 . S
C865 C861 1.376 . S
C865 C864 1.392 . S
C865 H877 0.929 . S
C866 C862 1.531 . S
C866 H878 0.960 . S
C866 H879 0.962 . S
C866 H880 0.960 . S
C867 C864 1.511 . S
C867 H881 0.961 . S
C867 H882 0.961 . S
C867 H883 0.961 . S
C868 C869 1.370 . S
C868 C870 1.363 . S
C868 H884 0.931 . S
C869 C868 1.370 . S
C869 C873 1.408 . S
C870 C868 1.363 . S
C870 C871 1.370 . S
C870 C874 1.524 . S
C871 C863 1.503 . S
C871 C870 1.370 . S
C871 C872 1.403 . S
C872 C871 1.403 . S
C872 C873 1.404 . S
C872 C875 1.539 . S
C873 C869 1.408 . S
C873 C872 1.404 . S
C873 H885 0.930 . S
C874 C870 1.524 . S
C874 H886 0.956 . S
C874 H887 0.961 . S
C874 H888 0.961 . S
C875 C872 1.539 . S
C875 H889 0.958 . S
C875 H890 0.961 . S
C875 H891 0.960 . S
H876 C860 0.931 . S
H877 C865 0.929 . S
H878 C866 0.960 . S
H879 C866 0.962 . S
H880 C866 0.960 . S
H881 C867 0.961 . S
H882 C867 0.961 . S
H883 C867 0.961 . S
H884 C868 0.931 . S
H885 C873 0.930 . S
H886 C874 0.956 . S
H887 C874 0.961 . S
H888 C874 0.961 . S
H889 C875 0.958 . S
H890 C875 0.961 . S
H891 C875 0.960 . S
C892 C893 1.391 . S
C892 C894 1.394 . S
C892 H908 0.931 . S
C893 C892 1.391 . S
C893 C897 1.376 . S
C894 C892 1.394 . S
C894 C895 1.369 . S
C894 C898 1.531 . S
C895 C894 1.369 . S
C895 C896 1.410 . S
C895 C903 1.503 . S
C896 C895 1.410 . S
C896 C897 1.392 . S
C896 C899 1.511 . S
C897 C893 1.376 . S
C897 C896 1.392 . S
C897 H909 0.929 . S
C898 C894 1.531 . S
C898 H910 0.960 . S
C898 H911 0.962 . S
C898 H912 0.960 . S
C899 C896 1.511 . S
C899 H913 0.961 . S
C899 H914 0.961 . S
C899 H915 0.961 . S
C900 C901 1.370 . S
C900 C902 1.363 . S
C900 H916 0.931 . S
C901 C900 1.370 . S
C901 C905 1.408 . S
C902 C900 1.363 . S
C902 C903 1.370 . S
C902 C906 1.524 . S
C903 C895 1.503 . S
C903 C902 1.370 . S
C903 C904 1.403 . S
C904 C903 1.403 . S
C904 C905 1.404 . S
C904 C907 1.539 . S
C905 C901 1.408 . S
C905 C904 1.404 . S
C905 H917 0.930 . S
C906 C902 1.524 . S
C906 H918 0.956 . S
C906 H919 0.961 . S
C906 H920 0.961 . S
C907 C904 1.539 . S
C907 H921 0.958 . S
C907 H922 0.961 . S
C907 H923 0.960 . S
H908 C892 0.931 . S
H909 C897 0.929 . S
H910 C898 0.960 . S
H911 C898 0.962 . S
H912 C898 0.960 . S
H913 C899 0.961 . S
H914 C899 0.961 . S
H915 C899 0.961 . S
H916 C900 0.931 . S
H917 C905 0.930 . S
H918 C906 0.956 . S
H919 C906 0.961 . S
H920 C906 0.961 . S
H921 C907 0.958 . S
H922 C907 0.961 . S
H923 C907 0.960 . S
C924 C925 1.391 . S
C924 C926 1.394 . S
C924 H940 0.931 . S
C925 C924 1.391 . S
C925 C929 1.376 . S
C926 C924 1.394 . S
C926 C927 1.369 . S
C926 C930 1.531 . S
C927 C926 1.369 . S
C927 C928 1.410 . S
C927 C935 1.503 . S
C928 C927 1.410 . S
C928 C929 1.392 . S
C928 C931 1.511 . S
C929 C925 1.376 . S
C929 C928 1.392 . S
C929 H941 0.929 . S
C930 C926 1.531 . S
C930 H942 0.960 . S
C930 H943 0.962 . S
C930 H944 0.960 . S
C931 C928 1.511 . S
C931 H945 0.951 1_545 S
C931 H946 0.961 . S
C931 H947 0.961 . S
C932 C933 1.370 1_556 S
C932 C934 1.363 1_556 S
C932 H948 0.931 . S
C933 C932 1.370 1_554 S
C933 C937 1.408 . S
C934 C932 1.363 1_554 S
C934 C935 1.370 . S
C934 C938 1.524 1_554 S
C935 C927 1.503 . S
C935 C934 1.370 . S
C935 C936 1.403 . S
C936 C935 1.403 . S
C936 C937 1.404 . S
C936 C939 1.539 . S
C937 C933 1.408 . S
C937 C936 1.404 . S
C937 H949 0.930 . S
C938 C934 1.524 1_556 S
C938 H950 0.956 1_556 S
C938 H951 0.961 . S
C938 H952 0.961 . S
C939 C936 1.539 . S
C939 H953 0.958 . S
C939 H954 0.961 . S
C939 H955 0.960 . S
H940 C924 0.931 . S
H941 C929 0.929 . S
H942 C930 0.960 . S
H943 C930 0.962 . S
H944 C930 0.960 . S
H945 C931 0.951 1_565 S
H946 C931 0.961 . S
H947 C931 0.961 . S
H948 C932 0.931 . S
H949 C937 0.930 . S
H950 C938 0.956 1_554 S
H951 C938 0.961 . S
H952 C938 0.961 . S
H953 C939 0.958 . S
H954 C939 0.961 . S
H955 C939 0.960 . S
C956 C957 1.391 1_554 S
C956 C958 1.394 . S
C956 H972 0.931 . S
C957 C956 1.391 1_556 S
C957 C961 1.376 . S
C958 C956 1.394 . S
C958 C959 1.369 . S
C958 C962 1.531 . S
C959 C958 1.369 . S
C959 C960 1.410 1_554 S
C959 C967 1.503 . S
C960 C959 1.410 1_556 S
C960 C961 1.392 . S
C960 C963 1.511 . S
C961 C957 1.376 . S
C961 C960 1.392 . S
C961 H973 0.929 . S
C962 C958 1.531 . S
C962 H974 0.960 . S
C962 H975 0.962 . S
C962 H976 0.960 . S
C963 C960 1.511 . S
C963 H977 0.961 1_655 S
C963 H978 0.961 1_655 S
C963 H979 0.961 . S
C964 C965 1.370 1_455 S
C964 C966 1.363 1_455 S
C964 H980 0.931 . S
C965 C964 1.370 1_655 S
C965 C969 1.408 . S
C966 C964 1.363 1_655 S
C966 C967 1.370 . S
C966 C970 1.541 1_655 S
C967 C959 1.503 . S
C967 C966 1.370 . S
C967 C968 1.403 . S
C968 C967 1.403 . S
C968 C969 1.404 . S
C968 C971 1.539 . S
C969 C965 1.408 . S
C969 C968 1.404 . S
C969 H981 0.930 . S
C970 C966 1.541 1_455 S
C970 H982 0.901 1_455 S
C970 H983 0.966 . S
C970 H984 0.998 . S
C971 C968 1.539 . S
C971 H985 0.958 . S
C971 H986 0.961 . S
C971 H987 0.960 1_554 S
H972 C956 0.931 . S
H973 C961 0.929 . S
H974 C962 0.960 . S
H975 C962 0.962 . S
H976 C962 0.960 . S
H977 C963 0.961 1_455 S
H978 C963 0.961 1_455 S
H979 C963 0.961 . S
H980 C964 0.931 . S
H981 C969 0.930 . S
H982 C970 0.901 1_655 S
H983 C970 0.966 . S
H984 C970 0.998 . S
H985 C971 0.958 . S
H986 C971 0.961 . S
H987 C971 0.960 1_556 S
C988 C989 1.391 . S
C988 C990 1.394 . S
C988 H1004 0.931 1_554 S
C989 C988 1.391 . S
C989 C993 1.376 . S
C990 C988 1.394 . S
C990 C991 1.369 . S
C990 C994 1.531 . S
C991 C990 1.369 . S
C991 C992 1.410 . S
C991 C999 1.503 . S
C992 C991 1.410 . S
C992 C993 1.392 . S
C992 C995 1.511 . S
C993 C989 1.376 . S
C993 C992 1.392 . S
C993 H1005 0.929 . S
C994 C990 1.531 . S
C994 H1006 0.960 . S
C994 H1007 0.962 . S
C994 H1008 0.960 1_554 S
C995 C992 1.511 . S
C995 H1009 0.961 . S
C995 H1010 0.961 . S
C995 H1011 0.961 . S
C996 C997 1.370 . S
C996 C998 1.363 . S
C996 H1012 0.931 . S
C997 C996 1.370 . S
C997 C1001 1.408 . S
C998 C996 1.363 . S
C998 C999 1.370 . S
C998 C1002 1.524 . S
C999 C991 1.503 . S
C999 C998 1.370 . S
C999 C1000 1.403 . S
C1000 C999 1.403 . S
C1000 C1001 1.404 . S
C1000 C1003 1.539 . S
C1001 C997 1.408 . S
C1001 C1000 1.404 . S
C1001 H1013 0.930 . S
C1002 C998 1.524 . S
C1002 H1014 0.956 . S
C1002 H1015 0.961 . S
C1002 H1016 0.961 . S
C1003 C1000 1.539 . S
C1003 H1017 0.958 . S
C1003 H1018 0.961 . S
C1003 H1019 0.960 . S
H1004 C988 0.931 1_556 S
H1005 C993 0.929 . S
H1006 C994 0.960 . S
H1007 C994 0.962 . S
H1008 C994 0.960 1_556 S
H1009 C995 0.961 . S
H1010 C995 0.961 . S
H1011 C995 0.961 . S
H1012 C996 0.931 . S
H1013 C1001 0.930 . S
H1014 C1002 0.956 . S
H1015 C1002 0.961 . S
H1016 C1002 0.961 . S
H1017 C1003 0.958 . S
H1018 C1003 0.961 . S
H1019 C1003 0.960 . S
C1020 C1021 1.391 . S
C1020 C1022 1.394 . S
C1020 H1036 0.931 . S
C1021 C1020 1.391 . S
C1021 C1025 1.376 . S
C1022 C1020 1.394 . S
C1022 C1023 1.369 . S
C1022 C1026 1.531 . S
C1023 C1022 1.369 . S
C1023 C1024 1.410 . S
C1023 C1031 1.503 . S
C1024 C1023 1.410 . S
C1024 C1025 1.392 . S
C1024 C1027 1.511 . S
C1025 C1021 1.376 . S
C1025 C1024 1.392 . S
C1025 H1037 0.929 . S
C1026 C1022 1.531 . S
C1026 H1038 0.960 . S
C1026 H1039 0.962 . S
C1026 H1040 0.960 . S
C1027 C1024 1.511 . S
C1027 H1041 0.961 . S
C1027 H1042 0.961 . S
C1027 H1043 0.961 . S
C1028 C1029 1.370 . S
C1028 C1030 1.363 . S
C1028 H1044 0.931 . S
C1029 C1028 1.370 . S
C1029 C1033 1.408 . S
C1030 C1028 1.363 . S
C1030 C1031 1.370 . S
C1030 C1034 1.524 . S
C1031 C1023 1.503 . S
C1031 C1030 1.370 . S
C1031 C1032 1.403 . S
C1032 C1031 1.403 . S
C1032 C1033 1.404 . S
C1032 C1035 1.539 . S
C1033 C1029 1.408 . S
C1033 C1032 1.404 . S
C1033 H1045 0.930 . S
C1034 C1030 1.524 . S
C1034 H1046 0.956 . S
C1034 H1047 0.961 . S
C1034 H1048 0.961 . S
C1035 C1032 1.539 . S
C1035 H1049 0.958 . S
C1035 H1050 0.961 . S
C1035 H1051 0.960 . S
H1036 C1020 0.931 . S
H1037 C1025 0.929 . S
H1038 C1026 0.960 . S
H1039 C1026 0.962 . S
H1040 C1026 0.960 . S
H1041 C1027 0.961 . S
H1042 C1027 0.961 . S
H1043 C1027 0.961 . S
H1044 C1028 0.931 . S
H1045 C1033 0.930 . S
H1046 C1034 0.956 . S
H1047 C1034 0.961 . S
H1048 C1034 0.961 . S
H1049 C1035 0.958 . S
H1050 C1035 0.961 . S
H1051 C1035 0.960 . S
C1052 C1053 1.391 . S
C1052 C1054 1.394 . S
C1052 H1068 0.931 . S
C1053 C1052 1.391 . S
C1053 C1057 1.376 . S
C1054 C1052 1.394 . S
C1054 C1055 1.369 . S
C1054 C1058 1.531 . S
C1055 C1054 1.369 . S
C1055 C1056 1.410 . S
C1055 C1063 1.503 . S
C1056 C1055 1.410 . S
C1056 C1057 1.392 . S
C1056 C1059 1.511 . S
C1057 C1053 1.376 . S
C1057 C1056 1.392 . S
C1057 H1069 0.929 . S
C1058 C1054 1.531 . S
C1058 H1070 0.960 . S
C1058 H1071 0.962 . S
C1058 H1072 0.960 . S
C1059 C1056 1.511 . S
C1059 H1073 0.961 . S
C1059 H1074 0.961 . S
C1059 H1075 0.961 . S
C1060 C1061 1.370 . S
C1060 C1062 1.363 . S
C1060 H1076 0.931 . S
C1061 C1060 1.370 . S
C1061 C1065 1.408 . S
C1062 C1060 1.363 . S
C1062 C1063 1.370 . S
C1062 C1066 1.524 . S
C1063 C1055 1.503 . S
C1063 C1062 1.370 . S
C1063 C1064 1.403 . S
C1064 C1063 1.403 . S
C1064 C1065 1.404 . S
C1064 C1067 1.539 . S
C1065 C1061 1.408 . S
C1065 C1064 1.404 . S
C1065 H1077 0.930 . S
C1066 C1062 1.524 . S
C1066 H1078 0.956 . S
C1066 H1079 0.961 . S
C1066 H1080 0.961 . S
C1067 C1064 1.539 . S
C1067 H1081 0.958 . S
C1067 H1082 0.961 . S
C1067 H1083 0.960 . S
H1068 C1052 0.931 . S
H1069 C1057 0.929 . S
H1070 C1058 0.960 . S
H1071 C1058 0.962 . S
H1072 C1058 0.960 . S
H1073 C1059 0.961 . S
H1074 C1059 0.961 . S
H1075 C1059 0.961 . S
H1076 C1060 0.931 . S
H1077 C1065 0.930 . S
H1078 C1066 0.956 . S
H1079 C1066 0.961 . S
H1080 C1066 0.961 . S
H1081 C1067 0.958 . S
H1082 C1067 0.961 . S
H1083 C1067 0.960 . S
C1084 C1085 1.391 . S
C1084 C1086 1.394 . S
C1084 H1100 0.931 . S
C1085 C1084 1.391 . S
C1085 C1089 1.376 . S
C1086 C1084 1.394 . S
C1086 C1087 1.369 . S
C1086 C1090 1.531 . S
C1087 C1086 1.369 . S
C1087 C1088 1.410 . S
C1087 C1095 1.503 . S
C1088 C1087 1.410 . S
C1088 C1089 1.392 . S
C1088 C1091 1.511 . S
C1089 C1085 1.376 . S
C1089 C1088 1.392 . S
C1089 H1101 0.929 . S
C1090 C1086 1.531 . S
C1090 H1102 0.960 . S
C1090 H1103 0.962 . S
C1090 H1104 0.960 . S
C1091 C1088 1.511 . S
C1091 H1105 0.961 . S
C1091 H1106 0.961 . S
C1091 H1107 0.961 . S
C1092 C1093 1.370 . S
C1092 C1094 1.363 . S
C1092 H1108 0.931 . S
C1093 C1092 1.370 . S
C1093 C1097 1.408 . S
C1094 C1092 1.363 . S
C1094 C1095 1.370 . S
C1094 C1098 1.524 . S
C1095 C1087 1.503 . S
C1095 C1094 1.370 . S
C1095 C1096 1.403 . S
C1096 C1095 1.403 . S
C1096 C1097 1.404 . S
C1096 C1099 1.539 . S
C1097 C1093 1.408 . S
C1097 C1096 1.404 . S
C1097 H1109 0.930 . S
C1098 C1094 1.524 . S
C1098 H1110 0.956 . S
C1098 H1111 0.961 . S
C1098 H1112 0.961 . S
C1099 C1096 1.539 . S
C1099 H1113 0.958 . S
C1099 H1114 0.961 . S
C1099 H1115 0.960 . S
H1100 C1084 0.931 . S
H1101 C1089 0.929 . S
H1102 C1090 0.960 . S
H1103 C1090 0.962 . S
H1104 C1090 0.960 . S
H1105 C1091 0.961 . S
H1106 C1091 0.961 . S
H1107 C1091 0.961 . S
H1108 C1092 0.931 . S
H1109 C1097 0.930 . S
H1110 C1098 0.956 . S
H1111 C1098 0.961 . S
H1112 C1098 0.961 . S
H1113 C1099 0.958 . S
H1114 C1099 0.961 . S
H1115 C1099 0.960 . S
C1116 C1117 1.391 1_554 S
C1116 C1118 1.386 1_554 S
C1116 H1132 0.931 . S
C1117 C1116 1.391 1_556 S
C1117 C1121 1.376 . S
C1118 C1116 1.386 1_556 S
C1118 C1119 1.384 . S
C1118 C1122 1.523 1_556 S
C1119 C1118 1.384 . S
C1119 C1120 1.410 . S
C1119 C1127 1.503 . S
C1120 C1119 1.410 . S
C1120 C1121 1.392 . S
C1120 C1123 1.511 . S
C1121 C1117 1.376 . S
C1121 C1120 1.392 . S
C1121 H1133 0.929 . S
C1122 C1118 1.523 1_554 S
C1122 H1134 0.960 . S
C1122 H1135 0.970 . S
C1122 H1136 0.960 . S
C1123 C1120 1.511 . S
C1123 H1137 0.961 . S
C1123 H1138 0.961 . S
C1123 H1139 0.961 . S
C1124 C1125 1.370 . S
C1124 C1126 1.363 . S
C1124 H1140 0.931 . S
C1125 C1124 1.370 . S
C1125 C1129 1.408 1_545 S
C1126 C1124 1.363 . S
C1126 C1127 1.370 1_545 S
C1126 C1130 1.524 . S
C1127 C1119 1.503 . S
C1127 C1126 1.370 1_565 S
C1127 C1128 1.403 . S
C1128 C1127 1.403 . S
C1128 C1129 1.404 . S
C1128 C1131 1.539 . S
C1129 C1125 1.408 1_565 S
C1129 C1128 1.404 . S
C1129 H1141 0.930 . S
C1130 C1126 1.524 . S
C1130 H1142 0.956 . S
C1130 H1143 0.961 1_545 S
C1130 H1144 0.961 . S
C1131 C1128 1.539 . S
C1131 H1145 0.958 . S
C1131 H1146 0.961 . S
C1131 H1147 0.960 . S
H1132 C1116 0.931 . S
H1133 C1121 0.929 . S
H1134 C1122 0.960 . S
H1135 C1122 0.970 . S
H1136 C1122 0.960 . S
H1137 C1123 0.961 . S
H1138 C1123 0.961 . S
H1139 C1123 0.961 . S
H1140 C1124 0.931 . S
H1141 C1129 0.930 . S
H1142 C1130 0.956 . S
H1143 C1130 0.961 1_565 S
H1144 C1130 0.961 . S
H1145 C1131 0.958 . S
H1146 C1131 0.961 . S
H1147 C1131 0.960 . S
C1148 C1149 1.391 . S
C1148 C1150 1.394 . S
C1148 H1164 0.931 . S
C1149 C1148 1.391 . S
C1149 C1153 1.376 . S
C1150 C1148 1.394 . S
C1150 C1151 1.369 . S
C1150 C1154 1.531 . S
C1151 C1150 1.369 . S
C1151 C1152 1.410 . S
C1151 C1159 1.503 . S
C1152 C1151 1.410 . S
C1152 C1153 1.392 . S
C1152 C1155 1.511 . S
C1153 C1149 1.376 . S
C1153 C1152 1.392 . S
C1153 H1165 0.929 . S
C1154 C1150 1.531 . S
C1154 H1166 0.960 . S
C1154 H1167 0.962 . S
C1154 H1168 0.960 . S
C1155 C1152 1.511 . S
C1155 H1169 0.961 . S
C1155 H1170 0.961 . S
C1155 H1171 0.961 . S
C1156 C1157 1.370 . S
C1156 C1158 1.363 . S
C1156 H1172 0.931 . S
C1157 C1156 1.370 . S
C1157 C1161 1.408 . S
C1158 C1156 1.363 . S
C1158 C1159 1.370 . S
C1158 C1162 1.524 . S
C1159 C1151 1.503 . S
C1159 C1158 1.370 . S
C1159 C1160 1.403 . S
C1160 C1159 1.403 . S
C1160 C1161 1.404 . S
C1160 C1163 1.539 . S
C1161 C1157 1.408 . S
C1161 C1160 1.404 . S
C1161 H1173 0.930 . S
C1162 C1158 1.524 . S
C1162 H1174 0.956 . S
C1162 H1175 0.961 . S
C1162 H1176 0.961 . S
C1163 C1160 1.539 . S
C1163 H1177 0.958 . S
C1163 H1178 0.961 . S
C1163 H1179 0.960 . S
H1164 C1148 0.931 . S
H1165 C1153 0.929 . S
H1166 C1154 0.960 . S
H1167 C1154 0.962 . S
H1168 C1154 0.960 . S
H1169 C1155 0.961 . S
H1170 C1155 0.961 . S
H1171 C1155 0.961 . S
H1172 C1156 0.931 . S
H1173 C1161 0.930 . S
H1174 C1162 0.956 . S
H1175 C1162 0.961 . S
H1176 C1162 0.961 . S
H1177 C1163 0.958 . S
H1178 C1163 0.961 . S
H1179 C1163 0.960 . S
C1180 C1181 1.391 . S
C1180 C1182 1.394 . S
C1180 H1196 0.931 . S
C1181 C1180 1.391 . S
C1181 C1185 1.376 . S
C1182 C1180 1.394 . S
C1182 C1183 1.369 . S
C1182 C1186 1.531 . S
C1183 C1182 1.369 . S
C1183 C1184 1.410 . S
C1183 C1191 1.503 . S
C1184 C1183 1.410 . S
C1184 C1185 1.392 . S
C1184 C1187 1.511 . S
C1185 C1181 1.376 . S
C1185 C1184 1.392 . S
C1185 H1197 0.929 . S
C1186 C1182 1.531 . S
C1186 H1198 0.960 . S
C1186 H1199 0.962 . S
C1186 H1200 0.960 . S
C1187 C1184 1.511 . S
C1187 H1201 0.961 . S
C1187 H1202 0.961 . S
C1187 H1203 0.961 . S
C1188 C1189 1.370 1_554 S
C1188 C1190 1.363 1_554 S
C1188 H1204 0.931 . S
C1189 C1188 1.370 1_556 S
C1189 C1193 1.408 . S
C1190 C1188 1.363 1_556 S
C1190 C1191 1.370 . S
C1190 C1194 1.524 . S
C1191 C1183 1.503 . S
C1191 C1190 1.370 . S
C1191 C1192 1.403 . S
C1192 C1191 1.403 . S
C1192 C1193 1.404 . S
C1192 C1195 1.539 . S
C1193 C1189 1.408 . S
C1193 C1192 1.404 . S
C1193 H1205 0.930 . S
C1194 C1190 1.524 . S
C1194 H1206 0.956 . S
C1194 H1207 0.961 . S
C1194 H1208 0.961 1_556 S
C1195 C1192 1.539 . S
C1195 H1209 0.958 . S
C1195 H1210 0.961 . S
C1195 H1211 0.960 . S
H1196 C1180 0.931 . S
H1197 C1185 0.929 . S
H1198 C1186 0.960 . S
H1199 C1186 0.962 . S
H1200 C1186 0.960 . S
H1201 C1187 0.961 . S
H1202 C1187 0.961 . S
H1203 C1187 0.961 . S
H1204 C1188 0.931 . S
H1205 C1193 0.930 . S
H1206 C1194 0.956 . S
H1207 C1194 0.961 . S
H1208 C1194 0.961 1_554 S
H1209 C1195 0.958 . S
H1210 C1195 0.961 . S
H1211 C1195 0.960 . S
C1212 C1213 1.391 . S
C1212 C1214 1.394 . S
C1212 H1228 0.931 . S
C1213 C1212 1.391 . S
C1213 C1217 1.376 . S
C1214 C1212 1.394 . S
C1214 C1215 1.369 . S
C1214 C1218 1.531 . S
C1215 C1214 1.369 . S
C1215 C1216 1.410 . S
C1215 C1223 1.503 . S
C1216 C1215 1.410 . S
C1216 C1217 1.392 . S
C1216 C1219 1.511 . S
C1217 C1213 1.376 . S
C1217 C1216 1.392 . S
C1217 H1229 0.929 . S
C1218 C1214 1.531 . S
C1218 H1230 0.960 . S
C1218 H1231 0.962 . S
C1218 H1232 0.960 . S
C1219 C1216 1.511 . S
C1219 H1233 0.961 . S
C1219 H1234 0.961 . S
C1219 H1235 0.961 . S
C1220 C1221 1.370 . S
C1220 C1222 1.363 1_545 S
C1220 H1236 0.931 . S
C1221 C1220 1.370 . S
C1221 C1225 1.408 . S
C1222 C1220 1.363 1_565 S
C1222 C1223 1.370 . S
C1222 C1226 1.524 . S
C1223 C1215 1.503 . S
C1223 C1222 1.370 . S
C1223 C1224 1.403 1_565 S
C1224 C1223 1.403 1_545 S
C1224 C1225 1.404 . S
C1224 C1227 1.539 . S
C1225 C1221 1.408 . S
C1225 C1224 1.404 . S
C1225 H1237 0.930 . S
C1226 C1222 1.524 . S
C1226 H1238 0.956 . S
C1226 H1239 0.961 . S
C1226 H1240 0.961 . S
C1227 C1224 1.539 . S
C1227 H1241 0.958 . S
C1227 H1242 0.961 . S
C1227 H1243 0.960 . S
H1228 C1212 0.931 . S
H1229 C1217 0.929 . S
H1230 C1218 0.960 . S
H1231 C1218 0.962 . S
H1232 C1218 0.960 . S
H1233 C1219 0.961 . S
H1234 C1219 0.961 . S
H1235 C1219 0.961 . S
H1236 C1220 0.931 . S
H1237 C1225 0.930 . S
H1238 C1226 0.956 . S
H1239 C1226 0.961 . S
H1240 C1226 0.961 . S
H1241 C1227 0.958 . S
H1242 C1227 0.961 . S
H1243 C1227 0.960 . S
C1244 C1245 1.391 . S
C1244 C1246 1.394 . S
C1244 H1260 0.931 . S
C1245 C1244 1.391 . S
C1245 C1249 1.376 . S
C1246 C1244 1.394 . S
C1246 C1247 1.369 . S
C1246 C1250 1.531 . S
C1247 C1246 1.369 . S
C1247 C1248 1.410 . S
C1247 C1255 1.503 . S
C1248 C1247 1.410 . S
C1248 C1249 1.392 . S
C1248 C1251 1.511 . S
C1249 C1245 1.376 . S
C1249 C1248 1.392 . S
C1249 H1261 0.929 . S
C1250 C1246 1.531 . S
C1250 H1262 0.960 . S
C1250 H1263 0.962 . S
C1250 H1264 0.960 . S
C1251 C1248 1.511 . S
C1251 H1265 0.961 . S
C1251 H1266 0.961 . S
C1251 H1267 0.961 . S
C1252 C1253 1.370 1_455 S
C1252 C1254 1.363 . S
C1252 H1268 0.931 1_455 S
C1253 C1252 1.370 1_655 S
C1253 C1257 1.408 . S
C1254 C1252 1.363 . S
C1254 C1255 1.370 . S
C1254 C1258 1.524 . S
C1255 C1247 1.503 . S
C1255 C1254 1.370 . S
C1255 C1256 1.403 . S
C1256 C1255 1.403 . S
C1256 C1257 1.404 1_455 S
C1256 C1259 1.539 . S
C1257 C1253 1.408 . S
C1257 C1256 1.404 1_655 S
C1257 H1269 0.930 . S
C1258 C1254 1.524 . S
C1258 H1270 0.956 . S
C1258 H1271 0.961 . S
C1258 H1272 0.961 . S
C1259 C1256 1.539 . S
C1259 H1273 0.958 . S
C1259 H1274 0.961 . S
C1259 H1275 0.960 . S
H1260 C1244 0.931 . S
H1261 C1249 0.929 . S
H1262 C1250 0.960 . S
H1263 C1250 0.962 . S
H1264 C1250 0.960 . S
H1265 C1251 0.961 . S
H1266 C1251 0.961 . S
H1267 C1251 0.961 . S
H1268 C1252 0.931 1_655 S
H1269 C1257 0.930 . S
H1270 C1258 0.956 . S
H1271 C1258 0.961 . S
H1272 C1258 0.961 . S
H1273 C1259 0.958 . S
H1274 C1259 0.961 . S
H1275 C1259 0.960 . S
C1276 C1277 1.391 . S
C1276 C1278 1.394 . S
C1276 H1292 0.931 . S
C1277 C1276 1.391 . S
C1277 C1281 1.376 . S
C1278 C1276 1.394 . S
C1278 C1279 1.369 . S
C1278 C1282 1.531 . S
C1279 C1278 1.369 . S
C1279 C1280 1.410 . S
C1279 C1287 1.503 . S
C1280 C1279 1.410 . S
C1280 C1281 1.392 . S
C1280 C1283 1.511 . S
C1281 C1277 1.376 . S
C1281 C1280 1.392 . S
C1281 H1293 0.929 . S
C1282 C1278 1.531 . S
C1282 H1294 0.960 . S
C1282 H1295 0.962 . S
C1282 H1296 0.960 . S
C1283 C1280 1.511 . S
C1283 H1297 0.961 . S
C1283 H1298 0.961 . S
C1283 H1299 0.961 . S
C1284 C1285 1.370 . S
C1284 C1286 1.363 . S
C1284 H1300 0.931 . S
C1285 C1284 1.370 . S
C1285 C1289 1.408 . S
C1286 C1284 1.363 . S
C1286 C1287 1.370 . S
C1286 C1290 1.524 . S
C1287 C1279 1.503 . S
C1287 C1286 1.370 . S
C1287 C1288 1.403 . S
C1288 C1287 1.403 . S
C1288 C1289 1.404 . S
C1288 C1291 1.539 . S
C1289 C1285 1.408 . S
C1289 C1288 1.404 . S
C1289 H1301 0.930 . S
C1290 C1286 1.524 . S
C1290 H1302 0.956 . S
C1290 H1303 0.961 . S
C1290 H1304 0.961 . S
C1291 C1288 1.539 . S
C1291 H1305 0.958 . S
C1291 H1306 0.961 . S
C1291 H1307 0.960 . S
H1292 C1276 0.931 . S
H1293 C1281 0.929 . S
H1294 C1282 0.960 . S
H1295 C1282 0.962 . S
H1296 C1282 0.960 . S
H1297 C1283 0.961 . S
H1298 C1283 0.961 . S
H1299 C1283 0.961 . S
H1300 C1284 0.931 . S
H1301 C1289 0.930 . S
H1302 C1290 0.956 . S
H1303 C1290 0.961 . S
H1304 C1290 0.961 . S
H1305 C1291 0.958 . S
H1306 C1291 0.961 . S
H1307 C1291 0.960 . S
C1308 C1309 1.391 . S
C1308 C1310 1.394 1_655 S
C1308 H1324 0.931 . S
C1309 C1308 1.391 . S
C1309 C1313 1.376 . S
C1310 C1308 1.394 1_455 S
C1310 C1311 1.369 . S
C1310 C1314 1.531 . S
C1311 C1310 1.369 . S
C1311 C1312 1.410 1_455 S
C1311 C1319 1.503 . S
C1312 C1311 1.410 1_655 S
C1312 C1313 1.392 . S
C1312 C1315 1.511 . S
C1313 C1309 1.376 . S
C1313 C1312 1.392 . S
C1313 H1325 0.929 . S
C1314 C1310 1.531 . S
C1314 H1326 0.960 . S
C1314 H1327 0.962 . S
C1314 H1328 0.960 . S
C1315 C1312 1.511 . S
C1315 H1329 0.961 . S
C1315 H1330 0.938 1_655 S
C1315 H1331 0.961 . S
C1316 C1317 1.370 . S
C1316 C1318 1.363 . S
C1316 H1332 0.931 . S
C1317 C1316 1.370 . S
C1317 C1321 1.408 . S
C1318 C1316 1.363 . S
C1318 C1319 1.370 . S
C1318 C1322 1.524 . S
C1319 C1311 1.503 . S
C1319 C1318 1.370 . S
C1319 C1320 1.403 . S
C1320 C1319 1.403 . S
C1320 C1321 1.404 . S
C1320 C1323 1.539 . S
C1321 C1317 1.408 . S
C1321 C1320 1.404 . S
C1321 H1333 0.930 . S
C1322 C1318 1.524 . S
C1322 H1334 0.956 . S
C1322 H1335 0.961 . S
C1322 H1336 0.961 . S
C1323 C1320 1.539 . S
C1323 H1337 0.958 . S
C1323 H1338 0.961 . S
C1323 H1339 0.960 . S
H1324 C1308 0.931 . S
H1325 C1313 0.929 . S
H1326 C1314 0.960 . S
H1327 C1314 0.962 . S
H1328 C1314 0.960 . S
H1329 C1315 0.961 . S
H1330 C1315 0.938 1_455 S
H1331 C1315 0.961 . S
H1332 C1316 0.931 . S
H1333 C1321 0.930 . S
H1334 C1322 0.956 . S
H1335 C1322 0.961 . S
H1336 C1322 0.961 . S
H1337 C1323 0.958 . S
H1338 C1323 0.961 . S
H1339 C1323 0.960 . S
C1340 C1341 1.391 . S
C1340 C1342 1.394 . S
C1340 H1356 0.931 . S
C1341 C1340 1.391 . S
C1341 C1345 1.376 . S
C1342 C1340 1.394 . S
C1342 C1343 1.369 . S
C1342 C1346 1.531 . S
C1343 C1342 1.369 . S
C1343 C1344 1.410 . S
C1343 C1351 1.503 . S
C1344 C1343 1.410 . S
C1344 C1345 1.392 . S
C1344 C1347 1.511 . S
C1345 C1341 1.376 . S
C1345 C1344 1.392 . S
C1345 H1357 0.929 . S
C1346 C1342 1.531 . S
C1346 H1358 0.960 . S
C1346 H1359 0.962 . S
C1346 H1360 0.960 . S
C1347 C1344 1.511 . S
C1347 H1361 0.961 . S
C1347 H1362 0.961 . S
C1347 H1363 0.961 . S
C1348 C1349 1.370 . S
C1348 C1350 1.363 . S
C1348 H1364 0.931 . S
C1349 C1348 1.370 . S
C1349 C1353 1.408 . S
C1350 C1348 1.363 . S
C1350 C1351 1.370 . S
C1350 C1354 1.524 . S
C1351 C1343 1.503 . S
C1351 C1350 1.370 . S
C1351 C1352 1.403 . S
C1352 C1351 1.403 . S
C1352 C1353 1.404 . S
C1352 C1355 1.539 . S
C1353 C1349 1.408 . S
C1353 C1352 1.404 . S
C1353 H1365 0.930 . S
C1354 C1350 1.524 . S
C1354 H1366 0.956 . S
C1354 H1367 0.961 . S
C1354 H1368 0.961 . S
C1355 C1352 1.539 . S
C1355 H1369 0.958 . S
C1355 H1370 0.961 . S
C1355 H1371 0.960 . S
H1356 C1340 0.931 . S
H1357 C1345 0.929 . S
H1358 C1346 0.960 . S
H1359 C1346 0.962 . S
H1360 C1346 0.960 . S
H1361 C1347 0.961 . S
H1362 C1347 0.961 . S
H1363 C1347 0.961 . S
H1364 C1348 0.931 . S
H1365 C1353 0.930 . S
H1366 C1354 0.956 . S
H1367 C1354 0.961 . S
H1368 C1354 0.961 . S
H1369 C1355 0.958 . S
H1370 C1355 0.961 . S
H1371 C1355 0.960 . S
C1372 C1373 1.391 . S
C1372 C1374 1.394 . S
C1372 H1388 0.931 . S
C1373 C1372 1.391 . S
C1373 C1377 1.376 . S
C1374 C1372 1.394 . S
C1374 C1375 1.369 1_565 S
C1374 C1378 1.531 . S
C1375 C1374 1.369 1_545 S
C1375 C1376 1.410 . S
C1375 C1383 1.503 . S
C1376 C1375 1.410 . S
C1376 C1377 1.392 1_545 S
C1376 C1379 1.511 . S
C1377 C1373 1.376 . S
C1377 C1376 1.392 1_565 S
C1377 H1389 0.929 . S
C1378 C1374 1.531 . S
C1378 H1390 0.960 1_565 S
C1378 H1391 0.962 . S
C1378 H1392 0.960 . S
C1379 C1376 1.511 . S
C1379 H1393 0.961 . S
C1379 H1394 0.961 . S
C1379 H1395 0.961 . S
C1380 C1381 1.370 . S
C1380 C1382 1.363 . S
C1380 H1396 0.931 . S
C1381 C1380 1.370 . S
C1381 C1385 1.408 . S
C1382 C1380 1.363 . S
C1382 C1383 1.370 . S
C1382 C1386 1.524 . S
C1383 C1375 1.503 . S
C1383 C1382 1.370 . S
C1383 C1384 1.403 . S
C1384 C1383 1.403 . S
C1384 C1385 1.404 . S
C1384 C1387 1.539 . S
C1385 C1381 1.408 . S
C1385 C1384 1.404 . S
C1385 H1397 0.930 . S
C1386 C1382 1.524 . S
C1386 H1398 0.956 1_545 S
C1386 H1399 0.961 . S
C1386 H1400 0.961 . S
C1387 C1384 1.539 . S
C1387 H1401 0.958 . S
C1387 H1402 0.961 . S
C1387 H1403 0.960 . S
H1388 C1372 0.931 . S
H1389 C1377 0.929 . S
H1390 C1378 0.960 1_545 S
H1391 C1378 0.962 . S
H1392 C1378 0.960 . S
H1393 C1379 0.961 . S
H1394 C1379 0.961 . S
H1395 C1379 0.961 . S
H1396 C1380 0.931 . S
H1397 C1385 0.930 . S
H1398 C1386 0.956 1_565 S
H1399 C1386 0.961 . S
H1400 C1386 0.961 . S
H1401 C1387 0.958 . S
H1402 C1387 0.961 . S
H1403 C1387 0.960 . S
C253 C50 1.309 . S
C261 C6 1.381 . S
C285 C62 1.490 . S
C293 C20 1.493 . S
C317 C36 1.552 . S
C325 C78 1.582 . S
C349 C34 1.423 . S
C357 C76 1.402 . S
C381 C8 1.351 . S
C389 C48 1.384 . S
C413 C64 1.556 . S
C421 C22 1.477 . S
C445 C134 1.232 . S
C453 C90 1.306 . S
C477 C104 1.385 . S
C485 C146 1.400 . S
C509 C118 1.379 . S
C517 C162 1.319 . S
C541 C160 1.527 . S
C549 C120 1.484 . S
C573 C132 1.435 . S
C581 C92 1.388 . S
C605 C148 1.584 . S
C613 C106 1.605 . S
C637 C174 1.494 . S
C645 C218 1.465 . S
C669 C188 1.431 . S
C677 C230 1.450 . S
C701 C204 1.585 . S
C709 C246 1.507 . S
C733 C244 1.401 . S
C741 C202 1.391 . S
C765 C216 1.378 . S
C773 C176 1.317 . S
C797 C232 1.467 . S
C805 C190 1.498 . S
C829 C9 1.350 . S
C837 C105 1.436 . S
C861 C23 1.420 . S
C869 C119 1.416 . S
C893 C91 1.139 . S
C901 C35 1.129 . S
C925 C37 1.566 . S
C933 C191 1.613 1_554 S
C957 C203 1.042 . S
C965 C7 1.048 1_655 S
C989 C177 1.470 . S
C997 C21 1.478 . S
C1021 C231 1.109 . S
C1029 C49 1.092 . S
C1053 C65 1.506 . S
C1061 C247 1.566 . S
C1085 C219 1.404 . S
C1093 C77 1.418 . S
C1117 C149 1.587 1_556 S
C1125 C79 1.604 . S
C1149 C51 1.279 . S
C1157 C161 1.293 1_556 S
C1181 C63 1.019 . S
C1189 C133 1.037 1_556 S
C1213 C93 1.298 . S
C1221 C189 1.325 . S
C1245 C107 1.560 . S
C1253 C205 1.521 . S
C1277 C121 1.237 . S
C1285 C175 1.251 . S
C1309 C233 1.522 . S
C1317 C163 1.530 . S
C1341 C245 1.408 . S
C1349 C135 1.375 . S
C1373 C147 1.119 . S
C1381 C217 1.127 . S
