# Generated by pormake.
# Topology wlp, (5)-cn, num edge types: 1
# Building blocks:
#     Node 0, Type 0, BuildingBlock: BEQFEK_clean_sbu_0, # of connection points: 5
#     Node 1, Type 0, BuildingBlock: BEQFEK_clean_sbu_0, # of connection points: 5
#     Node 2, Type 0, BuildingBlock: BEQFEK_clean_sbu_0, # of connection points: 5
#     Node 3, Type 0, BuildingBlock: BEQFEK_clean_sbu_0, # of connection points: 5
#     Node 4, Type 0, BuildingBlock: BEQFEK_clean_sbu_0, # of connection points: 5
#     Node 5, Type 0, BuildingBlock: BEQFEK_clean_sbu_0, # of connection points: 5
#     Node 6, Type 0, BuildingBlock: BEQFEK_clean_sbu_0, # of connection points: 5
#     Node 7, Type 0, BuildingBlock: BEQFEK_clean_sbu_0, # of connection points: 5
#     Node 8, Type 0, BuildingBlock: BEQFEK_clean_sbu_0, # of connection points: 5
#     Node 9, Type 0, BuildingBlock: BEQFEK_clean_sbu_0, # of connection points: 5
#     Node 10, Type 0, BuildingBlock: BEQFEK_clean_sbu_0, # of connection points: 5
#     Node 11, Type 0, BuildingBlock: BEQFEK_clean_sbu_0, # of connection points: 5
#     Node 12, Type 0, BuildingBlock: BEQFEK_clean_sbu_0, # of connection points: 5
#     Node 13, Type 0, BuildingBlock: BEQFEK_clean_sbu_0, # of connection points: 5
#     Node 14, Type 0, BuildingBlock: BEQFEK_clean_sbu_0, # of connection points: 5
#     Node 15, Type 0, BuildingBlock: BEQFEK_clean_sbu_0, # of connection points: 5
#     Node 16, Type 0, BuildingBlock: BEQFEK_clean_sbu_0, # of connection points: 5
#     Node 17, Type 0, BuildingBlock: BEQFEK_clean_sbu_0, # of connection points: 5
#     Node 18, Type 0, BuildingBlock: BEQFEK_clean_sbu_0, # of connection points: 5
#     Node 19, Type 0, BuildingBlock: BEQFEK_clean_sbu_0, # of connection points: 5
#     Node 20, Type 0, BuildingBlock: BEQFEK_clean_sbu_0, # of connection points: 5
#     Node 21, Type 0, BuildingBlock: BEQFEK_clean_sbu_0, # of connection points: 5
#     Node 22, Type 0, BuildingBlock: BEQFEK_clean_sbu_0, # of connection points: 5
#     Node 23, Type 0, BuildingBlock: BEQFEK_clean_sbu_0, # of connection points: 5
#     Node 24, Type 0, BuildingBlock: BEQFEK_clean_sbu_0, # of connection points: 5
#     Node 25, Type 0, BuildingBlock: BEQFEK_clean_sbu_0, # of connection points: 5
#     Node 26, Type 0, BuildingBlock: BEQFEK_clean_sbu_0, # of connection points: 5
#     Node 27, Type 0, BuildingBlock: BEQFEK_clean_sbu_0, # of connection points: 5
#     Node 28, Type 0, BuildingBlock: BEQFEK_clean_sbu_0, # of connection points: 5
#     Node 29, Type 0, BuildingBlock: BEQFEK_clean_sbu_0, # of connection points: 5
#     Node 30, Type 0, BuildingBlock: BEQFEK_clean_sbu_0, # of connection points: 5
#     Node 31, Type 0, BuildingBlock: BEQFEK_clean_sbu_0, # of connection points: 5
#     Node 32, Type 0, BuildingBlock: BEQFEK_clean_sbu_0, # of connection points: 5
#     Node 33, Type 0, BuildingBlock: BEQFEK_clean_sbu_0, # of connection points: 5
#     Node 34, Type 0, BuildingBlock: BEQFEK_clean_sbu_0, # of connection points: 5
#     Node 35, Type 0, BuildingBlock: BEQFEK_clean_sbu_0, # of connection points: 5
#     Edge 36, Type (0, 0), BuildingBlock: UVAHIK_clean_linker_0, # of connection points: 2
#     Edge 37, Type (0, 0), BuildingBlock: UVAHIK_clean_linker_0, # of connection points: 2
#     Edge 38, Type (0, 0), BuildingBlock: UVAHIK_clean_linker_0, # of connection points: 2
#     Edge 39, Type (0, 0), BuildingBlock: UVAHIK_clean_linker_0, # of connection points: 2
#     Edge 40, Type (0, 0), BuildingBlock: UVAHIK_clean_linker_0, # of connection points: 2
#     Edge 41, Type (0, 0), BuildingBlock: UVAHIK_clean_linker_0, # of connection points: 2
#     Edge 42, Type (0, 0), BuildingBlock: UVAHIK_clean_linker_0, # of connection points: 2
#     Edge 43, Type (0, 0), BuildingBlock: UVAHIK_clean_linker_0, # of connection points: 2
#     Edge 44, Type (0, 0), BuildingBlock: UVAHIK_clean_linker_0, # of connection points: 2
#     Edge 45, Type (0, 0), BuildingBlock: UVAHIK_clean_linker_0, # of connection points: 2
#     Edge 46, Type (0, 0), BuildingBlock: UVAHIK_clean_linker_0, # of connection points: 2
#     Edge 47, Type (0, 0), BuildingBlock: UVAHIK_clean_linker_0, # of connection points: 2
#     Edge 48, Type (0, 0), BuildingBlock: UVAHIK_clean_linker_0, # of connection points: 2
#     Edge 49, Type (0, 0), BuildingBlock: UVAHIK_clean_linker_0, # of connection points: 2
#     Edge 50, Type (0, 0), BuildingBlock: UVAHIK_clean_linker_0, # of connection points: 2
#     Edge 51, Type (0, 0), BuildingBlock: UVAHIK_clean_linker_0, # of connection points: 2
#     Edge 52, Type (0, 0), BuildingBlock: UVAHIK_clean_linker_0, # of connection points: 2
#     Edge 53, Type (0, 0), BuildingBlock: UVAHIK_clean_linker_0, # of connection points: 2
#     Edge 54, Type (0, 0), BuildingBlock: UVAHIK_clean_linker_0, # of connection points: 2
#     Edge 55, Type (0, 0), BuildingBlock: UVAHIK_clean_linker_0, # of connection points: 2
#     Edge 56, Type (0, 0), BuildingBlock: UVAHIK_clean_linker_0, # of connection points: 2
#     Edge 57, Type (0, 0), BuildingBlock: UVAHIK_clean_linker_0, # of connection points: 2
#     Edge 58, Type (0, 0), BuildingBlock: UVAHIK_clean_linker_0, # of connection points: 2
#     Edge 59, Type (0, 0), BuildingBlock: UVAHIK_clean_linker_0, # of connection points: 2
#     Edge 60, Type (0, 0), BuildingBlock: UVAHIK_clean_linker_0, # of connection points: 2
#     Edge 61, Type (0, 0), BuildingBlock: UVAHIK_clean_linker_0, # of connection points: 2
#     Edge 62, Type (0, 0), BuildingBlock: UVAHIK_clean_linker_0, # of connection points: 2
#     Edge 63, Type (0, 0), BuildingBlock: UVAHIK_clean_linker_0, # of connection points: 2
#     Edge 64, Type (0, 0), BuildingBlock: UVAHIK_clean_linker_0, # of connection points: 2
#     Edge 65, Type (0, 0), BuildingBlock: UVAHIK_clean_linker_0, # of connection points: 2
#     Edge 66, Type (0, 0), BuildingBlock: UVAHIK_clean_linker_0, # of connection points: 2
#     Edge 67, Type (0, 0), BuildingBlock: UVAHIK_clean_linker_0, # of connection points: 2
#     Edge 68, Type (0, 0), BuildingBlock: UVAHIK_clean_linker_0, # of connection points: 2
#     Edge 69, Type (0, 0), BuildingBlock: UVAHIK_clean_linker_0, # of connection points: 2
#     Edge 70, Type (0, 0), BuildingBlock: UVAHIK_clean_linker_0, # of connection points: 2
#     Edge 71, Type (0, 0), BuildingBlock: UVAHIK_clean_linker_0, # of connection points: 2
#     Edge 72, Type (0, 0), BuildingBlock: UVAHIK_clean_linker_0, # of connection points: 2
#     Edge 73, Type (0, 0), BuildingBlock: UVAHIK_clean_linker_0, # of connection points: 2
#     Edge 74, Type (0, 0), BuildingBlock: UVAHIK_clean_linker_0, # of connection points: 2
#     Edge 75, Type (0, 0), BuildingBlock: UVAHIK_clean_linker_0, # of connection points: 2
#     Edge 76, Type (0, 0), BuildingBlock: UVAHIK_clean_linker_0, # of connection points: 2
#     Edge 77, Type (0, 0), BuildingBlock: UVAHIK_clean_linker_0, # of connection points: 2
#     Edge 78, Type (0, 0), BuildingBlock: UVAHIK_clean_linker_0, # of connection points: 2
#     Edge 79, Type (0, 0), BuildingBlock: UVAHIK_clean_linker_0, # of connection points: 2
#     Edge 80, Type (0, 0), BuildingBlock: UVAHIK_clean_linker_0, # of connection points: 2
#     Edge 81, Type (0, 0), BuildingBlock: UVAHIK_clean_linker_0, # of connection points: 2
#     Edge 82, Type (0, 0), BuildingBlock: UVAHIK_clean_linker_0, # of connection points: 2
#     Edge 83, Type (0, 0), BuildingBlock: UVAHIK_clean_linker_0, # of connection points: 2
#     Edge 84, Type (0, 0), BuildingBlock: UVAHIK_clean_linker_0, # of connection points: 2
#     Edge 85, Type (0, 0), BuildingBlock: UVAHIK_clean_linker_0, # of connection points: 2
#     Edge 86, Type (0, 0), BuildingBlock: UVAHIK_clean_linker_0, # of connection points: 2
#     Edge 87, Type (0, 0), BuildingBlock: UVAHIK_clean_linker_0, # of connection points: 2
#     Edge 88, Type (0, 0), BuildingBlock: UVAHIK_clean_linker_0, # of connection points: 2
#     Edge 89, Type (0, 0), BuildingBlock: UVAHIK_clean_linker_0, # of connection points: 2
#     Edge 90, Type (0, 0), BuildingBlock: UVAHIK_clean_linker_0, # of connection points: 2
#     Edge 91, Type (0, 0), BuildingBlock: UVAHIK_clean_linker_0, # of connection points: 2
#     Edge 92, Type (0, 0), BuildingBlock: UVAHIK_clean_linker_0, # of connection points: 2
#     Edge 93, Type (0, 0), BuildingBlock: UVAHIK_clean_linker_0, # of connection points: 2
#     Edge 94, Type (0, 0), BuildingBlock: UVAHIK_clean_linker_0, # of connection points: 2
#     Edge 95, Type (0, 0), BuildingBlock: UVAHIK_clean_linker_0, # of connection points: 2
#     Edge 96, Type (0, 0), BuildingBlock: UVAHIK_clean_linker_0, # of connection points: 2
#     Edge 97, Type (0, 0), BuildingBlock: UVAHIK_clean_linker_0, # of connection points: 2
#     Edge 98, Type (0, 0), BuildingBlock: UVAHIK_clean_linker_0, # of connection points: 2
#     Edge 99, Type (0, 0), BuildingBlock: UVAHIK_clean_linker_0, # of connection points: 2
#     Edge 100, Type (0, 0), BuildingBlock: UVAHIK_clean_linker_0, # of connection points: 2
#     Edge 101, Type (0, 0), BuildingBlock: UVAHIK_clean_linker_0, # of connection points: 2
#     Edge 102, Type (0, 0), BuildingBlock: UVAHIK_clean_linker_0, # of connection points: 2
#     Edge 103, Type (0, 0), BuildingBlock: UVAHIK_clean_linker_0, # of connection points: 2
#     Edge 104, Type (0, 0), BuildingBlock: UVAHIK_clean_linker_0, # of connection points: 2
#     Edge 105, Type (0, 0), BuildingBlock: UVAHIK_clean_linker_0, # of connection points: 2
#     Edge 106, Type (0, 0), BuildingBlock: UVAHIK_clean_linker_0, # of connection points: 2
#     Edge 107, Type (0, 0), BuildingBlock: UVAHIK_clean_linker_0, # of connection points: 2
#     Edge 108, Type (0, 0), BuildingBlock: UVAHIK_clean_linker_0, # of connection points: 2
#     Edge 109, Type (0, 0), BuildingBlock: UVAHIK_clean_linker_0, # of connection points: 2
#     Edge 110, Type (0, 0), BuildingBlock: UVAHIK_clean_linker_0, # of connection points: 2
#     Edge 111, Type (0, 0), BuildingBlock: UVAHIK_clean_linker_0, # of connection points: 2
#     Edge 112, Type (0, 0), BuildingBlock: UVAHIK_clean_linker_0, # of connection points: 2
#     Edge 113, Type (0, 0), BuildingBlock: UVAHIK_clean_linker_0, # of connection points: 2
#     Edge 114, Type (0, 0), BuildingBlock: UVAHIK_clean_linker_0, # of connection points: 2
#     Edge 115, Type (0, 0), BuildingBlock: UVAHIK_clean_linker_0, # of connection points: 2
#     Edge 116, Type (0, 0), BuildingBlock: UVAHIK_clean_linker_0, # of connection points: 2
#     Edge 117, Type (0, 0), BuildingBlock: UVAHIK_clean_linker_0, # of connection points: 2
#     Edge 118, Type (0, 0), BuildingBlock: UVAHIK_clean_linker_0, # of connection points: 2
#     Edge 119, Type (0, 0), BuildingBlock: UVAHIK_clean_linker_0, # of connection points: 2
#     Edge 120, Type (0, 0), BuildingBlock: UVAHIK_clean_linker_0, # of connection points: 2
#     Edge 121, Type (0, 0), BuildingBlock: UVAHIK_clean_linker_0, # of connection points: 2
#     Edge 122, Type (0, 0), BuildingBlock: UVAHIK_clean_linker_0, # of connection points: 2
#     Edge 123, Type (0, 0), BuildingBlock: UVAHIK_clean_linker_0, # of connection points: 2
#     Edge 124, Type (0, 0), BuildingBlock: UVAHIK_clean_linker_0, # of connection points: 2
#     Edge 125, Type (0, 0), BuildingBlock: UVAHIK_clean_linker_0, # of connection points: 2
# Relax obj value: 0.084
# Max RMSD: 0.101
# Mean RMSD: 0.101
data_MOF--net-wlp--node1-BEQFEK_clean_sbu_0--edge1-UVAHIK_clean_linker_0
_symmetry_space_group_name_H-M    P1
_symmetry_Int_Tables_number       1
_symmetry_cell_setting            triclinic
loop_
_symmetry_equiv_pos_as_xyz
'x, y, z'
_cell_length_a     137.98917
_cell_length_b     138.01245
_cell_length_c     29.553053
_cell_angle_alpha  90.009866
_cell_angle_beta   89.96251
_cell_angle_gamma 119.97918
loop_
_atom_site_label
_atom_site_type_symbol
_atom_site_fract_x
_atom_site_fract_y
_atom_site_fract_z
_atom_type_partial_charge
Co0 Co 0.26453 0.17818 0.13476 0.0
Co1 Co 0.2582 0.18887 0.05512 0.0
C2 C 0.25287 0.16573 0.04686 0.0
O3 O 0.25762 0.16672 0.08502 0.0
O4 O 0.25164 0.17362 0.03092 0.0
C5 C 0.2554 0.16187 0.20269 0.0
O6 O 0.2463 0.15991 0.18083 0.0
C7 C 0.24787 0.19661 0.98671 0.0
C8 C 0.25965 0.21484 0.9904 0.0
C9 C 0.24985 0.20685 0.97003 0.0
N10 N 0.25609 0.19854 0.01607 0.0
N11 N 0.26317 0.20942 0.01756 0.0
C12 C 0.23789 0.18534 0.97841 0.0
H13 H 0.23661 0.17963 0.00708 0.0
H14 H 0.23027 0.18602 0.97349 0.0
H15 H 0.23931 0.18173 0.94727 0.0
C16 C 0.25269 0.18813 0.18674 0.0
N17 N 0.25614 0.18556 0.14796 0.0
N18 N 0.25293 0.18933 0.11362 0.0
C19 C 0.24714 0.19413 0.12914 0.0
C20 C 0.2469 0.1937 0.17608 0.0
C21 C 0.25562 0.18607 0.2331 0.0
H22 H 0.26366 0.18608 0.23238 0.0
H23 H 0.24895 0.17777 0.2451 0.0
H24 H 0.25621 0.19251 0.25724 0.0
O25 O 0.28006 0.18899 0.1134 0.0
O26 O 0.27455 0.19517 0.05526 0.0
H27 H 0.24788 0.20702 0.08661 0.0
H28 H 0.23497 0.19943 0.1179 0.0
C29 C 0.24155 0.19865 0.0994 0.0
H30 H 0.23762 0.19299 0.07024 0.0
H31 H 0.27023 0.21317 0.03824 0.0
O32 O 0.26479 0.1698 0.18918 0.0
C33 C 0.2823 0.19501 0.07791 0.0
Co34 Co 0.82578 0.08647 0.13279 0.0
Co35 Co 0.81562 0.06971 0.05157 0.0
C36 C 0.83876 0.0885 0.04621 0.0
O37 O 0.83766 0.09192 0.0849 0.0
O38 O 0.83096 0.07949 0.02933 0.0
C39 C 0.8424 0.09455 0.19905 0.0
O40 O 0.84513 0.08834 0.17447 0.0
C41 C 0.81063 0.05206 0.98389 0.0
C42 C 0.79359 0.04792 0.96306 0.0
C43 C 0.80195 0.04539 0.95476 0.0
N44 N 0.8075 0.05826 0.00841 0.0
N45 N 0.79729 0.05568 0.99593 0.0
C46 C 0.82194 0.05309 0.98624 0.0
H47 H 0.82763 0.06012 0.0084 0.0
H48 H 0.82115 0.04527 1.00018 0.0
H49 H 0.82554 0.05428 0.95173 0.0
C50 C 0.81685 0.06454 0.18259 0.0
N51 N 0.81902 0.07063 0.14419 0.0
N52 N 0.81513 0.06371 0.10958 0.0
C53 C 0.81048 0.05309 0.12465 0.0
C54 C 0.81148 0.05323 0.17138 0.0
C55 C 0.81987 0.06948 0.22904 0.0
H56 H 0.81863 0.07681 0.23158 0.0
H57 H 0.82882 0.07234 0.23534 0.0
H58 H 0.81487 0.06327 0.25544 0.0
O59 O 0.81447 0.09054 0.11089 0.0
O60 O 0.80823 0.07876 0.05285 0.0
H61 H 0.79796 0.04378 0.0749 0.0
H62 H 0.79989 0.03516 0.11539 0.0
C63 C 0.80426 0.04298 0.0953 0.0
H64 H 0.81022 0.04239 0.07192 0.0
H65 H 0.7929 0.05934 0.00942 0.0
O66 O 0.83373 0.09505 0.18818 0.0
C67 C 0.80819 0.0865 0.07615 0.0
Co68 Co 0.91836 0.74021 0.13488 0.0
Co69 Co 0.93522 0.7437 0.05661 0.0
C70 C 0.91727 0.74939 0.04298 0.0
O71 O 0.91378 0.74642 0.08333 0.0
O72 O 0.92575 0.74903 0.02816 0.0
C73 C 0.90771 0.74839 0.19336 0.0
O74 O 0.91091 0.75595 0.16121 0.0
C75 C 0.95243 0.75454 0.98688 0.0
C76 C 0.9601 0.74379 0.98622 0.0
C77 C 0.96086 0.75331 0.96719 0.0
N78 N 0.94696 0.74615 0.01649 0.0
N79 N 0.95148 0.73967 0.01553 0.0
C80 C 0.95016 0.76398 0.98066 0.0
H81 H 0.94686 0.7655 0.01249 0.0
H82 H 0.95786 0.77173 0.97023 0.0
H83 H 0.94375 0.7617 0.95388 0.0
C84 C 0.9401 0.7539 0.18415 0.0
N85 N 0.93413 0.74888 0.14648 0.0
N86 N 0.94112 0.75065 0.11303 0.0
C87 C 0.95171 0.75693 0.12809 0.0
C88 C 0.95145 0.75924 0.17362 0.0
C89 C 0.93499 0.7537 0.22903 0.0
H90 H 0.92868 0.74496 0.23788 0.0
H91 H 0.93061 0.75858 0.22659 0.0
H92 H 0.94139 0.75736 0.25612 0.0
O93 O 0.91349 0.72434 0.11742 0.0
O94 O 0.92595 0.72739 0.06347 0.0
H95 H 0.96155 0.75217 0.08806 0.0
H96 H 0.96975 0.76478 0.1197 0.0
C97 C 0.9619 0.75993 0.10025 0.0
H98 H 0.96206 0.76489 0.07051 0.0
H99 H 0.94886 0.73259 0.03575 0.0
O100 O 0.90999 0.74055 0.18963 0.0
C101 C 0.91756 0.72073 0.08735 0.0
Co102 Co 0.17889 0.26248 0.46544 0.0
Co103 Co 0.19287 0.26039 0.54482 0.0
C104 C 0.1689 0.25375 0.55778 0.0
O105 O 0.16812 0.2563 0.51704 0.0
O106 O 0.17798 0.25471 0.57272 0.0
C107 C 0.1598 0.25383 0.40796 0.0
O108 O 0.15543 0.24666 0.44143 0.0
C109 C 0.2001 0.25002 0.61372 0.0
C110 C 0.21676 0.26417 0.63151 0.0
C111 C 0.20917 0.25315 0.64212 0.0
N112 N 0.20226 0.25881 0.58739 0.0
N113 N 0.21225 0.26722 0.59801 0.0
C114 C 0.18924 0.2392 0.61396 0.0
H115 H 0.18311 0.23956 0.59081 0.0
H116 H 0.19063 0.23232 0.60275 0.0
H117 H 0.18582 0.23725 0.64888 0.0
C118 C 0.18785 0.24916 0.41885 0.0
N119 N 0.18664 0.25429 0.45566 0.0
N120 N 0.19235 0.25333 0.48934 0.0
C121 C 0.19738 0.24765 0.4751 0.0
C122 C 0.19464 0.24471 0.43008 0.0
C123 C 0.18245 0.24844 0.37416 0.0
H124 H 0.18493 0.25699 0.36218 0.0
H125 H 0.17323 0.24383 0.3785 0.0
H126 H 0.18475 0.24408 0.34846 0.0
O127 O 0.1894 0.27864 0.48133 0.0
O128 O 0.19928 0.27654 0.53595 0.0
H129 H 0.21137 0.25385 0.52033 0.0
H130 H 0.21044 0.24333 0.48173 0.0
C131 C 0.20551 0.24597 0.50282 0.0
H132 H 0.20085 0.23944 0.52864 0.0
H133 H 0.21589 0.27511 0.58302 0.0
O134 O 0.17002 0.2615 0.41029 0.0
C135 C 0.19715 0.28276 0.51109 0.0
Co136 Co 0.74079 0.91721 0.46551 0.0
Co137 Co 0.74552 0.93355 0.54708 0.0
C138 C 0.7508 0.91532 0.55459 0.0
O139 O 0.74705 0.91203 0.51479 0.0
O140 O 0.7512 0.924 0.57149 0.0
C141 C 0.74951 0.90815 0.40322 0.0
O142 O 0.75765 0.91247 0.43302 0.0
C143 C 0.75707 0.95059 0.61708 0.0
C144 C 0.74586 0.95766 0.62347 0.0
C145 C 0.75584 0.95879 0.63915 0.0
N146 N 0.74826 0.94497 0.58942 0.0
N147 N 0.74152 0.94913 0.59387 0.0
C148 C 0.76692 0.94883 0.61835 0.0
H149 H 0.76747 0.94487 0.58651 0.0
H150 H 0.77479 0.95689 0.62341 0.0
H151 H 0.7659 0.94319 0.64695 0.0
C152 C 0.75356 0.93925 0.41732 0.0
N153 N 0.74942 0.93305 0.4553 0.0
N154 N 0.75171 0.93983 0.48998 0.0
C155 C 0.75743 0.9505 0.47534 0.0
C156 C 0.75874 0.95054 0.42873 0.0
C157 C 0.7518 0.93442 0.37073 0.0
H158 H 0.74324 0.92712 0.36772 0.0
H159 H 0.75785 0.93147 0.36476 0.0
H160 H 0.75307 0.94071 0.34456 0.0
O161 O 0.72512 0.91244 0.48509 0.0
O162 O 0.7291 0.92426 0.54257 0.0
H163 H 0.75458 0.96124 0.51876 0.0
H164 H 0.7676 0.96835 0.48771 0.0
C165 C 0.76172 0.96052 0.50559 0.0
H166 H 0.7662 0.95949 0.53454 0.0
H167 H 0.73411 0.94634 0.5757 0.0
O168 O 0.74094 0.90917 0.40957 0.0
C169 C 0.72203 0.91628 0.51795 0.0
Co170 Co 0.08767 0.82439 0.46602 0.0
Co171 Co 0.07101 0.81261 0.54636 0.0
C172 C 0.08892 0.83608 0.55546 0.0
O173 O 0.09236 0.83572 0.51576 0.0
O174 O 0.08025 0.82772 0.57203 0.0
C175 C 0.095 0.84115 0.39971 0.0
O176 O 0.0883 0.84339 0.42339 0.0
C177 C 0.05427 0.80612 0.61892 0.0
C178 C 0.04507 0.78771 0.61131 0.0
C179 C 0.04526 0.79641 0.63528 0.0
N180 N 0.0592 0.80331 0.58629 0.0
N181 N 0.05378 0.79229 0.58245 0.0
C182 C 0.05761 0.81789 0.63126 0.0
H183 H 0.05939 0.823 0.60012 0.0
H184 H 0.05101 0.81827 0.65137 0.0
H185 H 0.06542 0.82152 0.6515 0.0
C186 C 0.06568 0.81498 0.41623 0.0
N187 N 0.07186 0.81705 0.45432 0.0
N188 N 0.06503 0.81286 0.48905 0.0
C189 C 0.05439 0.80833 0.47451 0.0
C190 C 0.05438 0.80933 0.4278 0.0
C191 C 0.07046 0.81763 0.36946 0.0
H192 H 0.07837 0.81739 0.36803 0.0
H193 H 0.07226 0.82616 0.36017 0.0
H194 H 0.06442 0.81164 0.34454 0.0
O195 O 0.09257 0.81365 0.48592 0.0
O196 O 0.08049 0.80564 0.54238 0.0
H197 H 0.04197 0.79489 0.51413 0.0
H198 H 0.03715 0.80352 0.48815 0.0
C199 C 0.04437 0.80359 0.50495 0.0
H200 H 0.04636 0.80867 0.53617 0.0
H201 H 0.05578 0.78793 0.55893 0.0
O202 O 0.09611 0.83288 0.41137 0.0
C203 C 0.08863 0.80666 0.51852 0.0
Co204 Co 0.74079 0.82484 0.96588 0.0
Co205 Co 0.74699 0.81476 0.04825 0.0
C206 C 0.75194 0.83788 0.05296 0.0
O207 O 0.74721 0.83657 0.0146 0.0
O208 O 0.75331 0.8302 0.07015 0.0
C209 C 0.74928 0.84241 0.90316 0.0
O210 O 0.75751 0.84617 0.93252 0.0
C211 C 0.7574 0.80872 0.12187 0.0
C212 C 0.74556 0.79052 0.12654 0.0
C213 C 0.75523 0.79913 0.14525 0.0
N214 N 0.74937 0.80585 0.0905 0.0
N215 N 0.74232 0.79498 0.09354 0.0
C216 C 0.76637 0.82052 0.13088 0.0
H217 H 0.76241 0.82551 0.14056 0.0
H218 H 0.77122 0.82424 0.09944 0.0
H219 H 0.77204 0.82107 0.15852 0.0
C220 C 0.75342 0.81532 0.91763 0.0
N221 N 0.74956 0.81775 0.95554 0.0
N222 N 0.75245 0.81393 0.99072 0.0
C223 C 0.7583 0.80908 0.97659 0.0
C224 C 0.75905 0.80967 0.92969 0.0
C225 C 0.7511 0.81771 0.87076 0.0
H226 H 0.74257 0.81662 0.86907 0.0
H227 H 0.7572 0.82653 0.86217 0.0
H228 H 0.75187 0.81216 0.84561 0.0
O229 O 0.72522 0.81389 0.98688 0.0
O230 O 0.73064 0.80816 0.04684 0.0
H231 H 0.75664 0.79598 0.02019 0.0
H232 H 0.76983 0.80309 0.99041 0.0
C233 C 0.76332 0.80421 0.00768 0.0
H234 H 0.76716 0.80982 0.0371 0.0
H235 H 0.73527 0.79062 0.07312 0.0
O236 O 0.74069 0.83284 0.90971 0.0
C237 C 0.72292 0.80805 0.02298 0.0
Co238 Co 0.17942 0.9166 0.96695 0.0
Co239 Co 0.19209 0.93297 0.04722 0.0
C240 C 0.16832 0.91526 0.05733 0.0
O241 O 0.16816 0.91186 0.0171 0.0
O242 O 0.17703 0.92367 0.07316 0.0
C243 C 0.16112 0.90709 0.90646 0.0
O244 O 0.15715 0.91106 0.93727 0.0
C245 C 0.19788 0.94974 0.11814 0.0
C246 C 0.21591 0.95582 0.12791 0.0
C247 C 0.20716 0.95718 0.14298 0.0
N248 N 0.20105 0.94431 0.08933 0.0
N249 N 0.21182 0.94795 0.09537 0.0
C250 C 0.18603 0.94713 0.1235 0.0
H251 H 0.18134 0.93919 0.14261 0.0
H252 H 0.18203 0.94586 0.08977 0.0
H253 H 0.18539 0.95372 0.14232 0.0
C254 C 0.1889 0.9387 0.91843 0.0
N255 N 0.18701 0.93248 0.95625 0.0
N256 N 0.19191 0.93924 0.99061 0.0
C257 C 0.19695 0.94992 0.97604 0.0
C258 C 0.19534 0.95 0.92966 0.0
C259 C 0.18529 0.93386 0.8721 0.0
H260 H 0.18636 0.92645 0.86814 0.0
H261 H 0.17628 0.93106 0.86785 0.0
H262 H 0.19013 0.94009 0.84546 0.0
O263 O 0.19007 0.91136 0.98573 0.0
O264 O 0.19891 0.92347 0.0414 0.0
H265 H 0.21085 0.96046 0.01842 0.0
H266 H 0.2049 0.96777 0.98905 0.0
C267 C 0.20297 0.95988 0.00638 0.0
H268 H 0.19767 0.95888 0.03612 0.0
H269 H 0.21636 0.94504 0.07735 0.0
O270 O 0.17092 0.90854 0.91147 0.0
C271 C 0.1974 0.91521 0.01715 0.0
Co272 Co 0.08758 0.26384 0.96508 0.0
Co273 Co 0.07057 0.25934 0.04354 0.0
C274 C 0.08833 0.25354 0.05534 0.0
O275 O 0.09196 0.2572 0.01568 0.0
O276 O 0.07967 0.25344 0.07088 0.0
C277 C 0.0958 0.25451 0.90204 0.0
O278 O 0.08951 0.2457 0.92717 0.0
C279 C 0.05308 0.24861 0.11266 0.0
C280 C 0.04509 0.25906 0.10931 0.0
C281 C 0.04436 0.24972 0.12986 0.0
N282 N 0.05869 0.25691 0.08278 0.0
N283 N 0.054 0.26323 0.08151 0.0
C284 C 0.0555 0.23937 0.12156 0.0
H285 H 0.05832 0.23718 0.08995 0.0
H286 H 0.04804 0.23186 0.13533 0.0
H287 H 0.06238 0.24229 0.14662 0.0
C288 C 0.06588 0.2509 0.91385 0.0
N289 N 0.07182 0.25537 0.95219 0.0
N290 N 0.06479 0.25297 0.98606 0.0
C291 C 0.05422 0.24668 0.9707 0.0
C292 C 0.05453 0.24514 0.92446 0.0
C293 C 0.07095 0.25206 0.86803 0.0
H294 H 0.0785 0.26045 0.86442 0.0
H295 H 0.07349 0.24564 0.86417 0.0
H296 H 0.06489 0.25077 0.84081 0.0
O297 O 0.09249 0.27955 0.98437 0.0
O298 O 0.08013 0.27576 0.03946 0.0
H299 H 0.0435 0.2502 0.01097 0.0
H300 H 0.03619 0.23729 0.98036 0.0
C301 C 0.04396 0.24282 0.99922 0.0
H302 H 0.04447 0.23827 0.02916 0.0
H303 H 0.05665 0.27017 0.06044 0.0
O304 O 0.09629 0.26374 0.9115 0.0
C305 C 0.08846 0.28275 0.0161 0.0
Co306 Co 0.82592 0.73997 0.63678 0.0
Co307 Co 0.8153 0.74577 0.55518 0.0
C308 C 0.8386 0.75075 0.54937 0.0
O309 O 0.83767 0.74639 0.58829 0.0
O310 O 0.83065 0.75171 0.53253 0.0
C311 C 0.84282 0.7489 0.7021 0.0
O312 O 0.84556 0.75773 0.67682 0.0
C313 C 0.80949 0.75741 0.48591 0.0
C314 C 0.79266 0.74387 0.46622 0.0
C315 C 0.80069 0.75481 0.45664 0.0
N316 N 0.80677 0.74837 0.51166 0.0
N317 N 0.79668 0.74035 0.49986 0.0
C318 C 0.82057 0.76799 0.48726 0.0
H319 H 0.82436 0.76989 0.45296 0.0
H320 H 0.82629 0.7673 0.51169 0.0
H321 H 0.81938 0.77505 0.49761 0.0
C322 C 0.81677 0.75296 0.68545 0.0
N323 N 0.81885 0.74881 0.6475 0.0
N324 N 0.81469 0.75145 0.61263 0.0
C325 C 0.80993 0.75738 0.62705 0.0
C326 C 0.81114 0.75863 0.67366 0.0
C327 C 0.82026 0.75165 0.73192 0.0
H328 H 0.81907 0.74314 0.73596 0.0
H329 H 0.82927 0.75781 0.73645 0.0
H330 H 0.81552 0.75319 0.75851 0.0
O331 O 0.81487 0.72436 0.61634 0.0
O332 O 0.80843 0.7294 0.55752 0.0
H333 H 0.79899 0.76429 0.61691 0.0
H334 H 0.80937 0.76747 0.57351 0.0
C335 C 0.80351 0.76094 0.59722 0.0
H336 H 0.79732 0.7537 0.57714 0.0
H337 H 0.79259 0.7324 0.51436 0.0
O338 O 0.83406 0.73973 0.69209 0.0
C339 C 0.80861 0.72184 0.58145 0.0
Co340 Co 0.26451 0.08604 0.63434 0.0
Co341 Co 0.25933 0.06926 0.55399 0.0
C342 C 0.25429 0.08761 0.54516 0.0
O343 O 0.25822 0.09115 0.58455 0.0
O344 O 0.25373 0.07878 0.52933 0.0
C345 C 0.256 0.09563 0.69502 0.0
O346 O 0.24788 0.09115 0.66518 0.0
C347 C 0.24738 0.05139 0.48678 0.0
C348 C 0.26067 0.04768 0.46732 0.0
C349 C 0.2497 0.04479 0.45847 0.0
N350 N 0.25659 0.05786 0.51143 0.0
N351 N 0.26447 0.05557 0.49972 0.0
C352 C 0.2369 0.05208 0.48822 0.0
H353 H 0.23811 0.05935 0.50852 0.0
H354 H 0.23008 0.0444 0.5039 0.0
H355 H 0.23427 0.05267 0.45332 0.0
C356 C 0.25121 0.06416 0.68374 0.0
N357 N 0.25564 0.07019 0.64557 0.0
N358 N 0.25333 0.06324 0.61147 0.0
C359 C 0.2474 0.05263 0.62671 0.0
C360 C 0.24575 0.05282 0.67294 0.0
C361 C 0.25212 0.0692 0.72945 0.0
H362 H 0.24683 0.07316 0.73024 0.0
H363 H 0.2493 0.06283 0.75667 0.0
H364 H 0.2609 0.07583 0.73566 0.0
O365 O 0.28023 0.09055 0.61464 0.0
O366 O 0.27566 0.07863 0.55744 0.0
H367 H 0.25158 0.04369 0.57858 0.0
H368 H 0.2412 0.03483 0.61924 0.0
C369 C 0.24424 0.04248 0.59836 0.0
H370 H 0.23754 0.04128 0.57448 0.0
H371 H 0.2725 0.05949 0.51348 0.0
O372 O 0.26451 0.09443 0.68965 0.0
C373 C 0.28302 0.0866 0.58114 0.0
Co374 Co 0.91814 0.17884 0.63243 0.0
Co375 Co 0.93478 0.19172 0.55306 0.0
C376 C 0.91685 0.16811 0.54106 0.0
O377 O 0.91344 0.16781 0.58144 0.0
O378 O 0.92533 0.17684 0.52562 0.0
C379 C 0.90854 0.1605 0.69287 0.0
O380 O 0.9125 0.15651 0.66215 0.0
C381 C 0.95136 0.19818 0.4803 0.0
C382 C 0.96015 0.21663 0.48538 0.0
C383 C 0.9601 0.20788 0.4623 0.0
N384 N 0.94648 0.20106 0.51284 0.0
N385 N 0.95167 0.2121 0.51532 0.0
C386 C 0.94835 0.18639 0.46996 0.0
H387 H 0.94555 0.18126 0.50122 0.0
H388 H 0.95555 0.18603 0.45506 0.0
H389 H 0.94135 0.18281 0.44537 0.0
C390 C 0.94006 0.18788 0.68177 0.0
N391 N 0.93395 0.18618 0.64377 0.0
N392 N 0.94081 0.19102 0.60961 0.0
C393 C 0.95145 0.19573 0.62447 0.0
C394 C 0.95139 0.19408 0.67082 0.0
C395 C 0.93511 0.18435 0.728 0.0
H396 H 0.92781 0.1856 0.7317 0.0
H397 H 0.93213 0.1753 0.73235 0.0
H398 H 0.94135 0.18909 0.75475 0.0
O399 O 0.91313 0.18969 0.61436 0.0
O400 O 0.92541 0.19871 0.55939 0.0
H401 H 0.96318 0.20999 0.58647 0.0
H402 H 0.96907 0.20216 0.61137 0.0
C403 C 0.96155 0.20147 0.59466 0.0
H404 H 0.96007 0.1967 0.56283 0.0
H405 H 0.94961 0.21652 0.53834 0.0
O406 O 0.90995 0.17028 0.68755 0.0
C407 C 0.91711 0.19716 0.58347 0.0
Co408 Co 0.93142 0.5126 0.46886 0.0
Co409 Co 0.9248 0.5229 0.38841 0.0
C410 C 0.92012 0.49989 0.38127 0.0
O411 O 0.92487 0.50106 0.41951 0.0
O412 O 0.9187 0.50762 0.36488 0.0
C413 C 0.92292 0.49505 0.53107 0.0
O414 O 0.91446 0.49178 0.50303 0.0
C415 C 0.91378 0.52874 0.3171 0.0
C416 C 0.92307 0.54721 0.32192 0.0
C417 C 0.91434 0.53831 0.29978 0.0
N418 N 0.92181 0.53184 0.34856 0.0
N419 N 0.92743 0.54288 0.35081 0.0
C420 C 0.90533 0.51688 0.30631 0.0
H421 H 0.9021 0.51203 0.33813 0.0
H422 H 0.89829 0.51633 0.28615 0.0
H423 H 0.90947 0.51309 0.28672 0.0
C424 C 0.91882 0.52173 0.51982 0.0
N425 N 0.92259 0.51949 0.48117 0.0
N426 N 0.91934 0.52319 0.44672 0.0
C427 C 0.91324 0.52766 0.46208 0.0
C428 C 0.91282 0.52707 0.50897 0.0
C429 C 0.92155 0.51947 0.56618 0.0
H430 H 0.93007 0.52051 0.56654 0.0
H431 H 0.91548 0.51069 0.57553 0.0
H432 H 0.92103 0.52511 0.59158 0.0
O433 O 0.94683 0.52372 0.4471 0.0
O434 O 0.94124 0.52975 0.38855 0.0
H435 H 0.91362 0.54067 0.42151 0.0
H436 H 0.90053 0.5322 0.45042 0.0
C437 C 0.9075 0.53204 0.43234 0.0
H438 H 0.90409 0.52668 0.40198 0.0
H439 H 0.93403 0.54744 0.37312 0.0
O440 O 0.93175 0.50439 0.52394 0.0
C441 C 0.94902 0.52973 0.41154 0.0
Co442 Co 0.49255 0.41994 0.47096 0.0
Co443 Co 0.48199 0.40351 0.38941 0.0
C444 C 0.50512 0.4216 0.38272 0.0
O445 O 0.50409 0.42516 0.42127 0.0
O446 O 0.4973 0.41253 0.36629 0.0
C447 C 0.51016 0.42869 0.5333 0.0
O448 O 0.51355 0.42374 0.50451 0.0
C449 C 0.47581 0.38712 0.3158 0.0
C450 C 0.45768 0.3811 0.31032 0.0
C451 C 0.46627 0.37999 0.29159 0.0
N452 N 0.47294 0.39219 0.34759 0.0
N453 N 0.46211 0.38853 0.34426 0.0
C454 C 0.48758 0.38986 0.30683 0.0
H455 H 0.49207 0.39806 0.28932 0.0
H456 H 0.49195 0.39067 0.33934 0.0
H457 H 0.48793 0.38348 0.28517 0.0
C458 C 0.48314 0.3978 0.51966 0.0
N459 N 0.48544 0.40407 0.48173 0.0
N460 N 0.48144 0.39732 0.44673 0.0
C461 C 0.47664 0.38664 0.46091 0.0
C462 C 0.4774 0.38651 0.50773 0.0
C463 C 0.48572 0.40254 0.56648 0.0
H464 H 0.4848 0.41007 0.56839 0.0
H465 H 0.49452 0.40509 0.57465 0.0
H466 H 0.48016 0.39628 0.59179 0.0
O467 O 0.48154 0.42458 0.45094 0.0
O468 O 0.47542 0.41328 0.39153 0.0
H469 H 0.46341 0.37521 0.41778 0.0
H470 H 0.47058 0.36911 0.44699 0.0
C471 C 0.47167 0.37674 0.42987 0.0
H472 H 0.47719 0.37848 0.40016 0.0
H473 H 0.45777 0.39124 0.36474 0.0
O474 O 0.50079 0.42813 0.52656 0.0
C475 C 0.47549 0.42097 0.41544 0.0
Co476 Co 0.58472 0.07346 0.46695 0.0
Co477 Co 0.6016 0.07945 0.38666 0.0
C478 C 0.58334 0.08448 0.37909 0.0
O479 O 0.5798 0.08027 0.41821 0.0
O480 O 0.59221 0.08522 0.36268 0.0
C481 C 0.57744 0.08241 0.53512 0.0
O482 O 0.58432 0.09147 0.51247 0.0
C483 C 0.61821 0.09046 0.31442 0.0
C484 C 0.62737 0.08113 0.31773 0.0
C485 C 0.62711 0.08986 0.29583 0.0
N486 N 0.61346 0.08247 0.34617 0.0
N487 N 0.61888 0.07684 0.34759 0.0
C488 C 0.61489 0.09907 0.30522 0.0
H489 H 0.61212 0.10123 0.33699 0.0
H490 H 0.62192 0.10674 0.29025 0.0
H491 H 0.60778 0.09555 0.2811 0.0
C492 C 0.60665 0.08595 0.51762 0.0
N493 N 0.60053 0.08213 0.47923 0.0
N494 N 0.60742 0.08516 0.44457 0.0
C495 C 0.61804 0.0912 0.45948 0.0
C496 C 0.61797 0.0918 0.50629 0.0
C497 C 0.60185 0.08335 0.56435 0.0
H498 H 0.59398 0.07517 0.56486 0.0
H499 H 0.59998 0.08994 0.57517 0.0
H500 H 0.60791 0.08322 0.58869 0.0
O501 O 0.58025 0.05796 0.44519 0.0
O502 O 0.59224 0.06305 0.38799 0.0
H503 H 0.63041 0.09038 0.41874 0.0
H504 H 0.63535 0.10359 0.44705 0.0
C505 C 0.6281 0.09667 0.42938 0.0
H506 H 0.62621 0.1001 0.39894 0.0
H507 H 0.61694 0.07024 0.36981 0.0
O508 O 0.57615 0.07304 0.52206 0.0
C509 C 0.58425 0.05547 0.41097 0.0
Co510 Co 0.84681 0.59725 0.802 0.0
Co511 Co 0.85996 0.59356 0.88043 0.0
C512 C 0.83639 0.58815 0.89368 0.0
O513 O 0.83593 0.59115 0.85333 0.0
O514 O 0.84517 0.58841 0.90854 0.0
C515 C 0.82813 0.58899 0.7434 0.0
O516 O 0.82392 0.58133 0.77523 0.0
C517 C 0.86574 0.58226 0.94986 0.0
C518 C 0.88414 0.59292 0.95318 0.0
C519 C 0.87519 0.5833 0.9707 0.0
N520 N 0.86896 0.59086 0.92109 0.0
N521 N 0.87995 0.59728 0.92361 0.0
C522 C 0.85396 0.57282 0.95414 0.0
H523 H 0.84941 0.57161 0.92182 0.0
H524 H 0.85378 0.56495 0.96368 0.0
H525 H 0.84964 0.57489 0.98087 0.0
C526 C 0.85482 0.58346 0.75283 0.0
N527 N 0.85381 0.58845 0.79051 0.0
N528 N 0.85895 0.58662 0.82406 0.0
C529 C 0.86328 0.58035 0.80905 0.0
C530 C 0.86078 0.57808 0.76345 0.0
C531 C 0.85004 0.58377 0.70779 0.0
H532 H 0.85247 0.59252 0.69925 0.0
H533 H 0.84078 0.57886 0.70979 0.0
H534 H 0.85287 0.58018 0.68071 0.0
O535 O 0.85793 0.6131 0.8197 0.0
O536 O 0.8672 0.60988 0.87367 0.0
H537 H 0.87774 0.58515 0.84996 0.0
H538 H 0.87371 0.57276 0.81724 0.0
C539 C 0.87049 0.57739 0.83693 0.0
H540 H 0.86561 0.5722 0.86611 0.0
H541 H 0.8846 0.60449 0.9043 0.0
O542 O 0.83817 0.59697 0.74724 0.0
C543 C 0.86558 0.61662 0.84981 0.0
Co544 Co 0.4076 0.25008 0.79992 0.0
Co545 Co 0.41282 0.26675 0.88023 0.0
C546 C 0.41796 0.24869 0.88983 0.0
O547 O 0.41371 0.24512 0.85084 0.0
O548 O 0.41896 0.25772 0.90572 0.0
C549 C 0.4159 0.23993 0.74056 0.0
O550 O 0.42373 0.24367 0.77174 0.0
C551 C 0.42373 0.28501 0.94659 0.0
C552 C 0.41093 0.29012 0.95252 0.0
C553 C 0.42152 0.29278 0.9669 0.0
N554 N 0.41487 0.2782 0.92093 0.0
N555 N 0.40719 0.28119 0.92519 0.0
C556 C 0.43436 0.28462 0.94803 0.0
H557 H 0.43498 0.28009 0.91812 0.0
H558 H 0.44171 0.2932 0.94925 0.0
H559 H 0.4344 0.28009 0.97897 0.0
C560 C 0.42091 0.27187 0.75033 0.0
N561 N 0.41643 0.26587 0.78851 0.0
N562 N 0.41882 0.27282 0.82263 0.0
C563 C 0.42489 0.28342 0.80737 0.0
C564 C 0.42651 0.28321 0.7611 0.0
C565 C 0.42 0.26677 0.70473 0.0
H566 H 0.425 0.2625 0.70455 0.0
H567 H 0.42314 0.27316 0.67751 0.0
H568 H 0.41116 0.26038 0.69803 0.0
O569 O 0.39185 0.24546 0.81828 0.0
O570 O 0.39652 0.25696 0.87689 0.0
H571 H 0.43193 0.30137 0.81524 0.0
H572 H 0.43454 0.29437 0.86109 0.0
C573 C 0.42828 0.29361 0.83577 0.0
H574 H 0.42088 0.2928 0.85384 0.0
H575 H 0.39954 0.27736 0.90821 0.0
O576 O 0.40776 0.24173 0.74498 0.0
C577 C 0.38911 0.24915 0.85274 0.0
Co578 Co 0.75412 0.15736 0.79855 0.0
Co579 Co 0.737 0.14627 0.878 0.0
C580 C 0.75571 0.16919 0.88828 0.0
O581 O 0.75928 0.16847 0.84934 0.0
O582 O 0.74657 0.16127 0.90394 0.0
C583 C 0.76488 0.17578 0.73972 0.0
O584 O 0.76113 0.17992 0.77066 0.0
C585 C 0.71958 0.14058 0.94642 0.0
C586 C 0.71128 0.12211 0.94665 0.0
C587 C 0.71078 0.13106 0.96502 0.0
N588 N 0.72504 0.13741 0.91784 0.0
N589 N 0.72016 0.12637 0.91869 0.0
C590 C 0.7223 0.15242 0.95306 0.0
H591 H 0.72526 0.15711 0.92077 0.0
H592 H 0.71493 0.15281 0.96582 0.0
H593 H 0.72916 0.15647 0.97816 0.0
C594 C 0.73261 0.14973 0.74788 0.0
N595 N 0.73844 0.15102 0.78634 0.0
N596 N 0.73135 0.14678 0.82025 0.0
C597 C 0.72085 0.14282 0.8047 0.0
C598 C 0.72126 0.14456 0.75831 0.0
C599 C 0.73788 0.15353 0.70228 0.0
H600 H 0.74407 0.15076 0.69665 0.0
H601 H 0.74242 0.1628 0.70123 0.0
H602 H 0.73155 0.15031 0.67484 0.0
O603 O 0.75799 0.14573 0.81778 0.0
O604 O 0.74602 0.13886 0.87506 0.0
H605 H 0.71012 0.12899 0.84684 0.0
H606 H 0.70277 0.13414 0.81382 0.0
C607 C 0.71054 0.13666 0.83318 0.0
H608 H 0.71097 0.14202 0.86192 0.0
H609 H 0.72267 0.12174 0.89898 0.0
O610 O 0.76283 0.16575 0.74393 0.0
C611 C 0.75384 0.13909 0.85144 0.0
Co612 Co 0.40761 0.15749 0.30041 0.0
Co613 Co 0.41399 0.1469 0.38061 0.0
C614 C 0.41834 0.16988 0.38871 0.0
O615 O 0.4138 0.1689 0.35014 0.0
O616 O 0.41967 0.16209 0.40483 0.0
C617 C 0.41546 0.17554 0.24003 0.0
O618 O 0.42357 0.17948 0.26998 0.0
C619 C 0.4258 0.14168 0.45025 0.0
C620 C 0.41559 0.12323 0.45291 0.0
C621 C 0.42505 0.13231 0.47071 0.0
N622 N 0.41721 0.13829 0.42131 0.0
N623 N 0.41106 0.12727 0.42347 0.0
C624 C 0.43496 0.15356 0.45527 0.0
H625 H 0.43242 0.15774 0.4809 0.0
H626 H 0.43637 0.15808 0.4227 0.0
H627 H 0.44285 0.15402 0.46658 0.0
C628 C 0.42111 0.14934 0.24991 0.0
N629 N 0.4168 0.15096 0.28839 0.0
N630 N 0.41979 0.14694 0.3226 0.0
C631 C 0.42621 0.14281 0.30724 0.0
C632 C 0.4273 0.14419 0.26063 0.0
C633 C 0.41943 0.15282 0.20399 0.0
H634 H 0.41048 0.15024 0.1993 0.0
H635 H 0.42437 0.16207 0.20151 0.0
H636 H 0.42218 0.14921 0.17676 0.0
O637 O 0.39217 0.14607 0.32132 0.0
O638 O 0.39756 0.13972 0.37941 0.0
H639 H 0.42327 0.12922 0.35051 0.0
H640 H 0.43572 0.13428 0.31718 0.0
C641 C 0.43047 0.13685 0.33627 0.0
H642 H 0.43541 0.14235 0.36464 0.0
H643 H 0.40392 0.12249 0.40401 0.0
O644 O 0.4072 0.16569 0.2453 0.0
C645 C 0.38985 0.13981 0.35615 0.0
Co646 Co 0.84678 0.2504 0.29735 0.0
Co647 Co 0.8591 0.26646 0.37887 0.0
C648 C 0.83555 0.24829 0.38814 0.0
O649 O 0.83565 0.24507 0.34784 0.0
O650 O 0.84401 0.25686 0.40453 0.0
C651 C 0.82829 0.24047 0.23786 0.0
O652 O 0.8241 0.24389 0.2699 0.0
C653 C 0.86551 0.28376 0.44893 0.0
C654 C 0.88235 0.2868 0.46698 0.0
C655 C 0.87447 0.28983 0.47772 0.0
N656 N 0.86803 0.27743 0.42227 0.0
N657 N 0.87813 0.27934 0.43306 0.0
C658 C 0.85446 0.28333 0.44906 0.0
H659 H 0.84863 0.27707 0.42442 0.0
H660 H 0.85564 0.29164 0.43989 0.0
H661 H 0.85079 0.28125 0.48356 0.0
C662 C 0.85534 0.27267 0.25138 0.0
N663 N 0.85392 0.26633 0.28839 0.0
N664 N 0.85888 0.273 0.32299 0.0
C665 C 0.86361 0.28373 0.30922 0.0
C666 C 0.86147 0.28392 0.26345 0.0
C667 C 0.85075 0.26797 0.20565 0.0
H668 H 0.85334 0.26182 0.19606 0.0
H669 H 0.84148 0.26348 0.20719 0.0
H670 H 0.85358 0.2746 0.17953 0.0
O671 O 0.85774 0.24543 0.31423 0.0
O672 O 0.86606 0.25711 0.37158 0.0
H673 H 0.87704 0.29209 0.35659 0.0
H674 H 0.87553 0.30139 0.31833 0.0
C675 C 0.8709 0.2936 0.33839 0.0
H676 H 0.86563 0.29475 0.3637 0.0
H677 H 0.88205 0.27539 0.41784 0.0
O678 O 0.83832 0.24248 0.24164 0.0
C679 C 0.86491 0.24916 0.34621 0.0
Co680 Co 0.75435 0.59706 0.30203 0.0
Co681 Co 0.7374 0.59054 0.38222 0.0
C682 C 0.75596 0.586 0.3894 0.0
O683 O 0.75948 0.59052 0.35075 0.0
O684 O 0.74691 0.58481 0.40591 0.0
C685 C 0.76261 0.58853 0.23643 0.0
O686 O 0.75627 0.57955 0.2606 0.0
C687 C 0.7204 0.57872 0.4522 0.0
C688 C 0.71202 0.58881 0.45423 0.0
C689 C 0.71173 0.57943 0.47243 0.0
N690 N 0.72555 0.58726 0.42299 0.0
N691 N 0.7206 0.59334 0.42479 0.0
C692 C 0.72323 0.56963 0.45766 0.0
H693 H 0.72632 0.56817 0.42516 0.0
H694 H 0.71585 0.56175 0.46933 0.0
H695 H 0.72998 0.57229 0.48318 0.0
C696 C 0.73261 0.58396 0.25112 0.0
N697 N 0.7386 0.58804 0.28962 0.0
N698 N 0.73163 0.58486 0.32406 0.0
C699 C 0.72107 0.57846 0.30888 0.0
C700 C 0.7213 0.57764 0.26214 0.0
C701 C 0.73761 0.586 0.20477 0.0
H702 H 0.74501 0.59453 0.20267 0.0
H703 H 0.74037 0.57984 0.19796 0.0
H704 H 0.73144 0.58495 0.17845 0.0
O705 O 0.75846 0.61242 0.32378 0.0
O706 O 0.74662 0.60699 0.38161 0.0
H707 H 0.71016 0.58096 0.35239 0.0
H708 H 0.70309 0.56841 0.31949 0.0
C709 C 0.71088 0.57391 0.3383 0.0
H710 H 0.71172 0.56915 0.36672 0.0
H711 H 0.72291 0.60044 0.40507 0.0
O712 O 0.76313 0.59769 0.24737 0.0
C713 C 0.75448 0.61471 0.35855 0.0
Co714 Co 0.49264 0.07306 0.9671 0.0
Co715 Co 0.48163 0.07912 0.88758 0.0
C716 C 0.50494 0.08428 0.87916 0.0
O717 O 0.50429 0.07998 0.91808 0.0
O718 O 0.49679 0.08504 0.86311 0.0
C719 C 0.50889 0.08206 0.03497 0.0
O720 O 0.51095 0.09111 0.01252 0.0
C721 C 0.47583 0.09033 0.81708 0.0
C722 C 0.45735 0.08102 0.82145 0.0
C723 C 0.46629 0.08986 0.79992 0.0
N724 N 0.47269 0.08214 0.84785 0.0
N725 N 0.46164 0.07649 0.84977 0.0
C726 C 0.48771 0.09894 0.80731 0.0
H727 H 0.49258 0.10157 0.83927 0.0
H728 H 0.48828 0.10634 0.78995 0.0
H729 H 0.49145 0.09517 0.78521 0.0
C730 C 0.48313 0.08534 0.01885 0.0
N731 N 0.48544 0.08164 0.98013 0.0
N732 N 0.48154 0.08473 0.94581 0.0
C733 C 0.47693 0.09069 0.9613 0.0
C734 C 0.47761 0.09118 0.00812 0.0
C735 C 0.48534 0.08262 0.06533 0.0
H736 H 0.48509 0.07447 0.0653 0.0
H737 H 0.49377 0.08922 0.07633 0.0
H738 H 0.47912 0.08237 0.08985 0.0
O739 O 0.48165 0.05759 0.94522 0.0
O740 O 0.4747 0.06273 0.88842 0.0
H741 H 0.46368 0.0899 0.92109 0.0
H742 H 0.47187 0.10303 0.95001 0.0
C743 C 0.47226 0.0962 0.93181 0.0
H744 H 0.47757 0.09976 0.90142 0.0
H745 H 0.45704 0.06979 0.87163 0.0
O746 O 0.50089 0.07266 0.02184 0.0
C747 C 0.47516 0.05513 0.91109 0.0
Co748 Co 0.93113 0.42022 0.96897 0.0
Co749 Co 0.92527 0.40336 0.88888 0.0
C750 C 0.92012 0.42131 0.87986 0.0
O751 O 0.92469 0.42501 0.91833 0.0
O752 O 0.91891 0.41219 0.86404 0.0
C753 C 0.92256 0.4297 0.02999 0.0
O754 O 0.91439 0.42529 1.00032 0.0
C755 C 0.9149 0.38542 0.82024 0.0
C756 C 0.92669 0.37897 0.8227 0.0
C757 C 0.91684 0.37718 0.80294 0.0
N758 N 0.92319 0.39166 0.84938 0.0
N759 N 0.93028 0.38786 0.85012 0.0
C760 C 0.90488 0.38671 0.81286 0.0
H761 H 0.90369 0.39111 0.8419 0.0
H762 H 0.89725 0.37842 0.80811 0.0
H763 H 0.90619 0.39177 0.7819 0.0
C764 C 0.91876 0.39847 0.01991 0.0
N765 N 0.92254 0.40447 0.98126 0.0
N766 N 0.91967 0.39751 0.94695 0.0
C767 C 0.91387 0.38692 0.9624 0.0
C768 C 0.91319 0.3871 0.00925 0.0
C769 C 0.92113 0.40353 0.06617 0.0
H770 H 0.92964 0.41097 0.06723 0.0
H771 H 0.91502 0.4063 0.07398 0.0
H772 H 0.92039 0.39741 0.09223 0.0
O773 O 0.94676 0.42484 0.94921 0.0
O774 O 0.94162 0.41329 0.89061 0.0
H775 H 0.91534 0.37512 0.92026 0.0
H776 H 0.90229 0.36929 0.95092 0.0
C777 C 0.90872 0.37678 0.93266 0.0
H778 H 0.9047 0.37828 0.90324 0.0
H779 H 0.93739 0.39114 0.8705 0.0
O780 O 0.9311 0.4286 0.02394 0.0
C781 C 0.94922 0.42112 0.91408 0.0
Co782 Co 0.5849 0.51248 0.96996 0.0
Co783 Co 0.60196 0.52313 0.89009 0.0
C784 C 0.58354 0.5001 0.88174 0.0
O785 O 0.57986 0.50104 0.92014 0.0
O786 O 0.59269 0.50793 0.86588 0.0
C787 C 0.57563 0.49483 0.03189 0.0
O788 O 0.58065 0.49142 0.00361 0.0
C789 C 0.61893 0.52881 0.81944 0.0
C790 C 0.62825 0.54729 0.82404 0.0
C791 C 0.62806 0.53831 0.80235 0.0
N792 N 0.61394 0.53202 0.85032 0.0
N793 N 0.61944 0.54306 0.85236 0.0
C794 C 0.61552 0.5169 0.80954 0.0
H795 H 0.61364 0.51212 0.84166 0.0
H796 H 0.62213 0.51626 0.79065 0.0
H797 H 0.60775 0.51312 0.789 0.0
C798 C 0.60654 0.52133 0.02128 0.0
N799 N 0.60061 0.51926 0.98252 0.0
N800 N 0.60763 0.52321 0.94833 0.0
C801 C 0.61818 0.52771 0.96401 0.0
C802 C 0.6179 0.52683 0.01079 0.0
C803 C 0.60144 0.51878 0.06751 0.0
H804 H 0.59416 0.52012 0.0685 0.0
H805 H 0.59843 0.50986 0.07539 0.0
H806 H 0.60764 0.52405 0.09357 0.0
O807 O 0.58075 0.52375 0.94889 0.0
O808 O 0.59254 0.53017 0.8909 0.0
H809 H 0.63064 0.54111 0.92441 0.0
H810 H 0.63562 0.53291 0.95302 0.0
C811 C 0.62841 0.53252 0.93476 0.0
H812 H 0.62675 0.5273 0.90413 0.0
H813 H 0.6174 0.5477 0.87432 0.0
O814 O 0.57629 0.50425 0.02491 0.0
C815 C 0.58469 0.53002 0.91406 0.0
Co816 Co 0.59859 0.84565 0.80536 0.0
Co817 Co 0.5945 0.85794 0.7248 0.0
C818 C 0.58878 0.83444 0.7146 0.0
O819 O 0.59238 0.83463 0.7545 0.0
O820 O 0.58857 0.84287 0.69835 0.0
C821 C 0.58958 0.82735 0.86555 0.0
O822 O 0.58168 0.82348 0.83467 0.0
C823 C 0.58426 0.86526 0.65511 0.0
C824 C 0.59604 0.8835 0.6557 0.0
C825 C 0.58615 0.8753 0.63661 0.0
N826 N 0.5926 0.8675 0.68424 0.0
N827 N 0.5997 0.87838 0.68385 0.0
C828 C 0.57419 0.85392 0.64909 0.0
H829 H 0.5731 0.84854 0.67878 0.0
H830 H 0.56656 0.85457 0.64431 0.0
H831 H 0.57538 0.84993 0.61858 0.0
C832 C 0.58587 0.85492 0.85406 0.0
N833 N 0.59016 0.85304 0.81609 0.0
N834 N 0.58808 0.85776 0.78167 0.0
C835 C 0.58231 0.86266 0.79642 0.0
C836 C 0.5808 0.86115 0.84289 0.0
C837 C 0.58734 0.8515 0.90043 0.0
H838 H 0.59586 0.85266 0.90392 0.0
H839 H 0.5812 0.84249 0.90533 0.0
H840 H 0.58598 0.85639 0.92698 0.0
O841 O 0.61443 0.85642 0.7878 0.0
O842 O 0.61086 0.86462 0.73061 0.0
H843 H 0.58516 0.8765 0.75471 0.0
H844 H 0.57187 0.87002 0.78385 0.0
C845 C 0.57805 0.86843 0.76634 0.0
H846 H 0.57392 0.86314 0.73645 0.0
H847 H 0.60685 0.88235 0.704 0.0
O848 O 0.59804 0.83707 0.86049 0.0
C849 C 0.61775 0.86349 0.75544 0.0
Co850 Co 0.15933 0.75377 0.80643 0.0
Co851 Co 0.14703 0.73743 0.7259 0.0
C852 C 0.17073 0.75485 0.71663 0.0
O853 O 0.17059 0.7584 0.75632 0.0
O854 O 0.16219 0.7463 0.70046 0.0
C855 C 0.17637 0.76097 0.8718 0.0
O856 O 0.17862 0.75437 0.84745 0.0
C857 C 0.14012 0.72084 0.65263 0.0
C858 C 0.12191 0.71459 0.65058 0.0
C859 C 0.13032 0.71339 0.63053 0.0
N860 N 0.13756 0.72612 0.68461 0.0
N861 N 0.12669 0.72237 0.68312 0.0
C862 C 0.15182 0.72358 0.64184 0.0
H863 H 0.15652 0.73226 0.62878 0.0
H864 H 0.15606 0.72325 0.67323 0.0
H865 H 0.15208 0.71791 0.61595 0.0
C866 C 0.14949 0.73156 0.85516 0.0
N867 N 0.15162 0.73787 0.81742 0.0
N868 N 0.147 0.73115 0.78266 0.0
C869 C 0.14203 0.72045 0.79679 0.0
C870 C 0.1433 0.72028 0.84334 0.0
C871 C 0.1526 0.73623 0.90196 0.0
H872 H 0.15256 0.74423 0.90439 0.0
H873 H 0.16116 0.73787 0.90968 0.0
H874 H 0.14675 0.73023 0.92735 0.0
O875 O 0.14881 0.75909 0.78794 0.0
O876 O 0.14051 0.74726 0.73105 0.0
H877 H 0.12823 0.70928 0.75532 0.0
H878 H 0.13533 0.70283 0.78239 0.0
C879 C 0.1365 0.71055 0.76585 0.0
H880 H 0.14171 0.71211 0.73526 0.0
H881 H 0.12253 0.72516 0.70433 0.0
O882 O 0.16799 0.76199 0.86105 0.0
C883 C 0.14176 0.75537 0.75555 0.0
Co884 Co 0.25038 0.4052 0.80532 0.0
Co885 Co 0.26661 0.41013 0.72345 0.0
C886 C 0.24896 0.41614 0.71762 0.0
O887 O 0.24556 0.4121 0.75703 0.0
O888 O 0.25756 0.41648 0.70024 0.0
C889 C 0.24353 0.41471 0.87309 0.0
O890 O 0.25027 0.42365 0.84945 0.0
C891 C 0.28311 0.42038 0.64994 0.0
C892 C 0.28938 0.40846 0.64531 0.0
C893 C 0.29053 0.41818 0.62666 0.0
N894 N 0.27788 0.41233 0.68123 0.0
N895 N 0.28165 0.40524 0.6782 0.0
C896 C 0.28033 0.42939 0.64091 0.0
H897 H 0.27156 0.42547 0.62897 0.0
H898 H 0.28091 0.43388 0.67284 0.0
H899 H 0.28584 0.43537 0.61479 0.0
C900 C 0.27266 0.41734 0.85359 0.0
N901 N 0.2663 0.41343 0.81585 0.0
N902 N 0.27297 0.41593 0.78066 0.0
C903 C 0.2837 0.42164 0.79457 0.0
C904 C 0.28392 0.42266 0.84137 0.0
C905 C 0.26806 0.41529 0.90066 0.0
H906 H 0.26006 0.40724 0.90234 0.0
H907 H 0.26646 0.42213 0.91039 0.0
H908 H 0.2741 0.41517 0.9251 0.0
O909 O 0.2451 0.38951 0.7844 0.0
O910 O 0.25685 0.39376 0.72658 0.0
H911 H 0.2949 0.41948 0.75128 0.0
H912 H 0.30128 0.4328 0.78019 0.0
C913 C 0.29356 0.42634 0.7633 0.0
H914 H 0.2919 0.43018 0.73361 0.0
H915 H 0.27891 0.39817 0.69858 0.0
O916 O 0.24225 0.4053 0.86093 0.0
C917 C 0.24881 0.38657 0.75062 0.0
Co918 Co 0.51337 0.93016 0.13351 0.0
Co919 Co 0.52393 0.9244 0.21572 0.0
C920 C 0.50076 0.91959 0.22168 0.0
O921 O 0.50182 0.92402 0.1828 0.0
O922 O 0.50859 0.91843 0.23868 0.0
C923 C 0.49552 0.92183 0.07181 0.0
O924 O 0.49149 0.91382 0.10223 0.0
C925 C 0.53012 0.91334 0.28628 0.0
C926 C 0.54728 0.92686 0.30202 0.0
C927 C 0.5392 0.91615 0.31424 0.0
N928 N 0.53274 0.92206 0.25874 0.0
N929 N 0.54303 0.93007 0.26811 0.0
C930 C 0.51889 0.90296 0.28798 0.0
H931 H 0.51488 0.90251 0.32107 0.0
H932 H 0.51347 0.90288 0.26016 0.0
H933 H 0.51984 0.89546 0.28511 0.0
C934 C 0.52217 0.91686 0.08589 0.0
N935 N 0.52028 0.9212 0.12364 0.0
N936 N 0.5244 0.91856 0.1586 0.0
C937 C 0.52895 0.91242 0.14445 0.0
C938 C 0.52767 0.91107 0.09789 0.0
C939 C 0.5186 0.91809 0.0395 0.0
H940 H 0.50935 0.91304 0.03728 0.0
H941 H 0.52225 0.9152 0.01293 0.0
H942 H 0.52106 0.92697 0.03349 0.0
O943 O 0.5245 0.94581 0.15309 0.0
O944 O 0.53067 0.94076 0.21272 0.0
H945 H 0.53919 0.90473 0.15532 0.0
H946 H 0.52935 0.90267 0.19977 0.0
C947 C 0.5352 0.90871 0.17457 0.0
H948 H 0.54181 0.91602 0.19302 0.0
H949 H 0.54709 0.93781 0.25187 0.0
O950 O 0.5053 0.93017 0.07739 0.0
C951 C 0.53062 0.94833 0.18842 0.0
Co952 Co 0.07476 0.58387 0.13549 0.0
Co953 Co 0.07942 0.60044 0.21613 0.0
C954 C 0.08489 0.58242 0.22535 0.0
O955 O 0.08106 0.57888 0.1858 0.0
O956 O 0.08527 0.59118 0.24123 0.0
C957 C 0.0835 0.57438 0.07499 0.0
O958 O 0.09152 0.57866 0.10532 0.0
C959 C 0.09024 0.61807 0.28551 0.0
C960 C 0.07638 0.62118 0.30156 0.0
C961 C 0.08724 0.62424 0.31324 0.0
N962 N 0.08149 0.61162 0.25861 0.0
N963 N 0.07328 0.61359 0.26824 0.0
C964 C 0.10091 0.61773 0.28666 0.0
H965 H 0.10268 0.61624 0.32184 0.0
H966 H 0.10045 0.61113 0.26391 0.0
H967 H 0.10795 0.6259 0.27554 0.0
C968 C 0.08798 0.6059 0.08698 0.0
N969 N 0.08345 0.59976 0.12482 0.0
N970 N 0.08559 0.60661 0.15913 0.0
C971 C 0.09153 0.61727 0.14442 0.0
C972 C 0.09333 0.61721 0.09824 0.0
C973 C 0.08731 0.60097 0.0412 0.0
H974 H 0.09256 0.59698 0.04091 0.0
H975 H 0.0903 0.60741 0.01422 0.0
H976 H 0.07855 0.59439 0.0342 0.0
O977 O 0.0589 0.57903 0.15393 0.0
O978 O 0.06316 0.59078 0.21152 0.0
H979 H 0.09803 0.63509 0.15319 0.0
H980 H 0.10094 0.62817 0.19856 0.0
C981 C 0.0946 0.6273 0.17338 0.0
H982 H 0.0871 0.62615 0.19181 0.0
H983 H 0.06547 0.60961 0.25249 0.0
O984 O 0.07504 0.57566 0.08012 0.0
C985 C 0.05593 0.58283 0.18738 0.0
Co986 Co 0.42044 0.49077 0.13344 0.0
Co987 Co 0.40404 0.48011 0.21545 0.0
C988 C 0.42223 0.5034 0.22109 0.0
O989 O 0.42575 0.5024 0.18245 0.0
O990 O 0.41323 0.49552 0.23778 0.0
C991 C 0.42955 0.50843 0.07102 0.0
O992 O 0.42496 0.51209 0.10033 0.0
C993 C 0.38649 0.47386 0.28513 0.0
C994 C 0.38353 0.45707 0.30379 0.0
C995 C 0.38041 0.46491 0.31402 0.0
N996 N 0.39295 0.47139 0.25899 0.0
N997 N 0.39108 0.46132 0.27019 0.0
C998 C 0.38671 0.4848 0.28441 0.0
H999 H 0.39345 0.49087 0.26194 0.0
H1000 H 0.37859 0.48352 0.27178 0.0
H1001 H 0.3879 0.48821 0.31926 0.0
C1002 C 0.39832 0.4816 0.08525 0.0
N1003 N 0.40453 0.48364 0.12319 0.0
N1004 N 0.39773 0.47938 0.15799 0.0
C1005 C 0.38705 0.47454 0.1435 0.0
C1006 C 0.38702 0.47584 0.09692 0.0
C1007 C 0.40319 0.48531 0.03898 0.0
H1008 H 0.4098 0.48311 0.03319 0.0
H1009 H 0.40715 0.49454 0.03683 0.0
H1010 H 0.39673 0.48154 0.01221 0.0
O1011 O 0.42514 0.47981 0.15378 0.0
O1012 O 0.41384 0.47358 0.21325 0.0
H1013 H 0.37824 0.46186 0.19335 0.0
H1014 H 0.36923 0.46334 0.15347 0.0
C1015 C 0.37707 0.46797 0.17324 0.0
H1016 H 0.37625 0.47374 0.19692 0.0
H1017 H 0.39507 0.45741 0.25528 0.0
O1018 O 0.42859 0.49886 0.07742 0.0
C1019 C 0.42157 0.47373 0.18926 0.0
Co1020 Co 0.0744 0.49155 0.63472 0.0
Co1021 Co 0.08016 0.48064 0.71527 0.0
C1022 C 0.08564 0.50396 0.72255 0.0
O1023 O 0.08109 0.5031 0.68405 0.0
O1024 O 0.08664 0.49596 0.73875 0.0
C1025 C 0.0836 0.50824 0.5683 0.0
O1026 O 0.09255 0.51064 0.59225 0.0
C1027 C 0.09072 0.47403 0.78617 0.0
C1028 C 0.07782 0.45624 0.795 0.0
C1029 C 0.08809 0.46449 0.81092 0.0
N1030 N 0.08234 0.47147 0.75683 0.0
N1031 N 0.07469 0.46084 0.76224 0.0
C1032 C 0.10039 0.48561 0.79262 0.0
H1033 H 0.09735 0.49077 0.80951 0.0
H1034 H 0.10382 0.48947 0.75919 0.0
H1035 H 0.10705 0.48569 0.8138 0.0
C1036 C 0.08691 0.48204 0.58466 0.0
N1037 N 0.08293 0.48421 0.6229 0.0
N1038 N 0.08571 0.48012 0.65753 0.0
C1039 C 0.09169 0.47544 0.64278 0.0
C1040 C 0.09271 0.47652 0.59609 0.0
C1041 C 0.08527 0.48525 0.53815 0.0
H1042 H 0.07694 0.48459 0.53555 0.0
H1043 H 0.09178 0.49406 0.53161 0.0
H1044 H 0.08607 0.47994 0.51196 0.0
O1045 O 0.05876 0.48072 0.65522 0.0
O1046 O 0.06384 0.47425 0.71376 0.0
H1047 H 0.08828 0.46222 0.68906 0.0
H1048 H 0.10021 0.46597 0.65344 0.0
C1049 C 0.09561 0.46931 0.67258 0.0
H1050 H 0.1011 0.47501 0.69943 0.0
H1051 H 0.06726 0.45675 0.74381 0.0
O1052 O 0.07428 0.49988 0.57983 0.0
C1053 C 0.05627 0.47454 0.69034 0.0
Co1054 Co 0.51311 0.58306 0.63219 0.0
Co1055 Co 0.52341 0.59951 0.71387 0.0
C1056 C 0.50034 0.58126 0.72 0.0
O1057 O 0.50149 0.57772 0.68159 0.0
O1058 O 0.50807 0.59036 0.73654 0.0
C1059 C 0.4957 0.57453 0.56926 0.0
O1060 O 0.49241 0.57962 0.59774 0.0
C1061 C 0.52953 0.61598 0.78745 0.0
C1062 C 0.54777 0.62248 0.79118 0.0
C1063 C 0.53916 0.62345 0.81049 0.0
N1064 N 0.53239 0.61088 0.75572 0.0
N1065 N 0.54328 0.61479 0.75818 0.0
C1066 C 0.51772 0.61304 0.79716 0.0
H1067 H 0.5129 0.60415 0.80778 0.0
H1068 H 0.5138 0.6139 0.76578 0.0
H1069 H 0.51721 0.61828 0.82439 0.0
C1070 C 0.5225 0.60515 0.58341 0.0
N1071 N 0.52012 0.59891 0.62145 0.0
N1072 N 0.52397 0.60568 0.65644 0.0
C1073 C 0.52875 0.61635 0.64212 0.0
C1074 C 0.52813 0.61645 0.59523 0.0
C1075 C 0.52017 0.60039 0.53662 0.0
H1076 H 0.52107 0.59284 0.53534 0.0
H1077 H 0.51143 0.59787 0.52747 0.0
H1078 H 0.52589 0.60662 0.51158 0.0
O1079 O 0.52424 0.5786 0.65234 0.0
O1080 O 0.53016 0.58989 0.71182 0.0
H1081 H 0.54193 0.62793 0.68507 0.0
H1082 H 0.53459 0.63384 0.65573 0.0
C1083 C 0.53362 0.62627 0.67302 0.0
H1084 H 0.52809 0.6245 0.70275 0.0
H1085 H 0.54764 0.61216 0.73741 0.0
O1086 O 0.50497 0.57488 0.57645 0.0
C1087 C 0.53025 0.58228 0.68791 0.0
Co1088 Co 0.4206 0.92987 0.63343 0.0
Co1089 Co 0.40436 0.92419 0.71573 0.0
C1090 C 0.42269 0.9194 0.72191 0.0
O1091 O 0.42604 0.92379 0.68294 0.0
O1092 O 0.41369 0.91822 0.73895 0.0
C1093 C 0.43009 0.92147 0.57173 0.0
O1094 O 0.42613 0.91348 0.60223 0.0
C1095 C 0.38734 0.91349 0.78728 0.0
C1096 C 0.38327 0.92684 0.80029 0.0
C1097 C 0.38095 0.91634 0.81435 0.0
N1098 N 0.39322 0.92199 0.75849 0.0
N1099 N 0.39067 0.92989 0.76623 0.0
C1100 C 0.38861 0.90338 0.79109 0.0
H1101 H 0.39374 0.90424 0.82136 0.0
H1102 H 0.3928 0.9025 0.76059 0.0
H1103 H 0.38034 0.89574 0.79547 0.0
C1104 C 0.39847 0.91658 0.58605 0.0
N1105 N 0.40473 0.92091 0.6237 0.0
N1106 N 0.39801 0.91824 0.6588 0.0
C1107 C 0.38732 0.91208 0.64488 0.0
C1108 C 0.38721 0.91076 0.59828 0.0
C1109 C 0.40323 0.91793 0.53948 0.0
H1110 H 0.40967 0.9268 0.53375 0.0
H1111 H 0.40738 0.91284 0.53662 0.0
H1112 H 0.39666 0.91514 0.51311 0.0
O1113 O 0.42514 0.94555 0.65257 0.0
O1114 O 0.41397 0.94053 0.71238 0.0
H1115 H 0.37787 0.91566 0.69254 0.0
H1116 H 0.36938 0.90392 0.65651 0.0
C1117 C 0.37739 0.9083 0.6753 0.0
H1118 H 0.37752 0.90263 0.70153 0.0
H1119 H 0.39415 0.93747 0.74878 0.0
O1120 O 0.42864 0.92981 0.57731 0.0
C1121 C 0.42157 0.94809 0.68793 0.0
Co1122 Co 0.15907 0.40628 0.30469 0.0
Co1123 Co 0.14635 0.40977 0.22404 0.0
C1124 C 0.17013 0.41594 0.21401 0.0
O1125 O 0.17027 0.41272 0.25432 0.0
O1126 O 0.16142 0.41562 0.19797 0.0
C1127 C 0.17737 0.41522 0.36554 0.0
O1128 O 0.18141 0.42309 0.3345 0.0
C1129 C 0.1399 0.41995 0.15162 0.0
C1130 C 0.12192 0.40752 0.144 0.0
C1131 C 0.1304 0.41754 0.12703 0.0
N1132 N 0.13711 0.41172 0.18197 0.0
N1133 N 0.12637 0.40432 0.17725 0.0
C1134 C 0.15161 0.42933 0.14447 0.0
H1135 H 0.1563 0.4261 0.1252 0.0
H1136 H 0.15584 0.43238 0.1776 0.0
H1137 H 0.15187 0.43631 0.12505 0.0
C1138 C 0.14953 0.41895 0.35244 0.0
N1139 N 0.15144 0.41455 0.31485 0.0
N1140 N 0.1465 0.41631 0.28033 0.0
C1141 C 0.14141 0.42193 0.29458 0.0
C1142 C 0.14305 0.42374 0.34089 0.0
C1143 C 0.15318 0.41784 0.39888 0.0
H1144 H 0.15208 0.40937 0.40329 0.0
H1145 H 0.1622 0.42403 0.4029 0.0
H1146 H 0.14838 0.41934 0.42539 0.0
O1147 O 0.14846 0.39033 0.28676 0.0
O1148 O 0.13967 0.39349 0.23063 0.0
H1149 H 0.12735 0.41832 0.2528 0.0
H1150 H 0.13337 0.43172 0.28103 0.0
C1151 C 0.13527 0.4257 0.26406 0.0
H1152 H 0.14044 0.42981 0.23381 0.0
H1153 H 0.1221 0.39705 0.19654 0.0
O1154 O 0.16757 0.40688 0.36038 0.0
C1155 C 0.14115 0.38679 0.25529 0.0
Co1156 Co 0.59786 0.75296 0.30409 0.0
Co1157 Co 0.59235 0.73665 0.22193 0.0
C1158 C 0.58728 0.75487 0.21612 0.0
O1159 O 0.59165 0.7583 0.255 0.0
O1160 O 0.58629 0.74595 0.19921 0.0
C1161 C 0.58969 0.76284 0.36503 0.0
O1162 O 0.58175 0.75899 0.33434 0.0
C1163 C 0.58088 0.71915 0.15269 0.0
C1164 C 0.59459 0.71612 0.13271 0.0
C1165 C 0.5836 0.71304 0.12334 0.0
N1166 N 0.58991 0.72558 0.17828 0.0
N1167 N 0.59804 0.72367 0.1663 0.0
C1168 C 0.5702 0.71946 0.15427 0.0
H1169 H 0.56806 0.721 0.11982 0.0
H1170 H 0.57089 0.72601 0.17789 0.0
H1171 H 0.56329 0.71126 0.16586 0.0
C1172 C 0.58463 0.73085 0.35179 0.0
N1173 N 0.589 0.73707 0.31402 0.0
N1174 N 0.58659 0.73029 0.27922 0.0
C1175 C 0.58067 0.71961 0.29359 0.0
C1176 C 0.57913 0.71956 0.34004 0.0
C1177 C 0.58556 0.73571 0.39792 0.0
H1178 H 0.59444 0.74191 0.40509 0.0
H1179 H 0.58076 0.74018 0.39865 0.0
H1180 H 0.58223 0.72917 0.42453 0.0
O1181 O 0.61355 0.7576 0.28414 0.0
O1182 O 0.60869 0.74631 0.22473 0.0
H1183 H 0.5847 0.71092 0.24366 0.0
H1184 H 0.57435 0.70184 0.28391 0.0
C1185 C 0.5774 0.70964 0.26398 0.0
H1186 H 0.5707 0.70866 0.24053 0.0
H1187 H 0.60601 0.72765 0.18065 0.0
O1188 O 0.59786 0.7611 0.36011 0.0
C1189 C 0.61618 0.75402 0.249 0.0
Co1190 Co 0.25094 0.84504 0.30414 0.0
Co1191 Co 0.26764 0.85849 0.22578 0.0
C1192 C 0.2506 0.83467 0.21272 0.0
O1193 O 0.24693 0.83424 0.25271 0.0
O1194 O 0.25897 0.84357 0.19769 0.0
C1195 C 0.24158 0.82643 0.36324 0.0
O1196 O 0.24599 0.82283 0.33285 0.0
C1197 C 0.28544 0.86633 0.1572 0.0
C1198 C 0.29157 0.88451 0.15807 0.0
C1199 C 0.29347 0.87645 0.13886 0.0
N1200 N 0.27918 0.86838 0.18625 0.0
N1201 N 0.28278 0.87923 0.1861 0.0
C1202 C 0.28439 0.85508 0.1511 0.0
H1203 H 0.28027 0.8497 0.18097 0.0
H1204 H 0.29273 0.85589 0.14591 0.0
H1205 H 0.27917 0.85099 0.12085 0.0
C1206 C 0.27272 0.85461 0.3548 0.0
N1207 N 0.26672 0.85289 0.31649 0.0
N1208 N 0.27365 0.85811 0.2829 0.0
C1209 C 0.28425 0.86319 0.29853 0.0
C1210 C 0.28406 0.86127 0.34473 0.0
C1211 C 0.26764 0.85057 0.40052 0.0
H1212 H 0.26011 0.85144 0.40428 0.0
H1213 H 0.26498 0.84157 0.40372 0.0
H1214 H 0.27368 0.85528 0.4279 0.0
O1215 O 0.24537 0.85545 0.28621 0.0
O1216 O 0.2576 0.86471 0.23148 0.0
H1217 H 0.29507 0.8775 0.25858 0.0
H1218 H 0.30218 0.87127 0.28736 0.0
C1219 C 0.2944 0.86949 0.26942 0.0
H1220 H 0.29362 0.86449 0.23899 0.0
H1221 H 0.27943 0.88306 0.20619 0.0
O1222 O 0.24268 0.83609 0.35838 0.0
C1223 C 0.24918 0.8629 0.25526 0.0
C1224 C 0.24709 0.10539 0.73287 0.0
C1225 C 0.25514 0.10199 0.7337 0.0
C1226 C 0.24618 0.11149 0.76869 0.0
C1227 C 0.25186 0.11768 0.88935 0.0
H1228 H 0.25058 0.14441 0.86027 0.0
C1229 C 0.25563 0.14971 0.02521 0.0
C1230 C 0.25041 0.15608 0.01727 0.0
C1231 C 0.25521 0.14213 0.99274 0.0
C1232 C 0.25069 0.13685 0.86917 0.0
H1233 H 0.26845 0.10217 0.77329 0.0
H1234 H 0.26675 0.11276 0.83654 0.0
H1235 H 0.25215 0.13335 0.79972 0.0
H1236 H 0.23992 0.15881 0.97048 0.0
H1237 H 0.23874 0.14525 0.91487 0.0
H1238 H 0.2502 0.12104 0.95878 0.0
C1239 C 0.26118 0.11071 0.80785 0.0
C1240 C 0.25168 0.13056 0.83433 0.0
C1241 C 0.26219 0.10472 0.77158 0.0
C1242 C 0.24411 0.15412 0.97752 0.0
C1243 C 0.24356 0.14642 0.94534 0.0
C1244 C 0.25072 0.1239 0.92429 0.0
C1245 C 0.25322 0.11423 0.80655 0.0
C1246 C 0.2523 0.12092 0.84399 0.0
C1247 C 0.24943 0.14061 0.95173 0.0
C1248 C 0.25014 0.1336 0.9147 0.0
H1249 H 0.24151 0.10344 0.70424 0.0
H1250 H 0.2399 0.114 0.76692 0.0
H1251 H 0.2522 0.11021 0.89774 0.0
H1252 H 0.26061 0.15105 0.05533 0.0
H1253 H 0.25991 0.13791 0.99893 0.0
C1254 C 0.8987 0.14209 0.73284 0.0
C1255 C 0.90255 0.15363 0.73284 0.0
C1256 C 0.89301 0.13548 0.7702 0.0
C1257 C 0.87748 0.13524 0.87351 0.0
H1258 H 0.88049 0.10951 0.90379 0.0
C1259 C 0.85516 0.10732 0.02789 0.0
C1260 C 0.84855 0.09588 0.0176 0.0
C1261 C 0.86307 0.11471 0.99688 0.0
C1262 C 0.87958 0.11667 0.8957 0.0
H1263 H 0.9036 0.16734 0.77244 0.0
H1264 H 0.89395 0.15588 0.83835 0.0
H1265 H 0.89176 0.122 0.84282 0.0
H1266 H 0.84561 0.08312 0.9679 0.0
H1267 H 0.85959 0.09599 0.91426 0.0
H1268 H 0.86536 0.12991 0.92681 0.0
C1269 C 0.89507 0.15185 0.80899 0.0
C1270 C 0.88598 0.1238 0.86056 0.0
C1271 C 0.90065 0.15845 0.77127 0.0
C1272 C 0.85054 0.09189 0.97686 0.0
C1273 C 0.85856 0.09925 0.94615 0.0
C1274 C 0.8712 0.12819 0.90902 0.0
C1275 C 0.89113 0.14026 0.80892 0.0
C1276 C 0.88489 0.13309 0.84845 0.0
C1277 C 0.86467 0.11079 0.95525 0.0
C1278 C 0.87207 0.11874 0.92008 0.0
H1279 H 0.89995 0.13809 0.70362 0.0
H1280 H 0.88991 0.12657 0.76828 0.0
H1281 H 0.87625 0.14217 0.86487 0.0
H1282 H 0.85385 0.1107 0.05889 0.0
H1283 H 0.86776 0.12354 0.00498 0.0
C1284 C 0.85896 0.76015 0.75386 0.0
C1285 C 0.85 0.74969 0.74083 0.0
C1286 C 0.86613 0.76097 0.7889 0.0
C1287 C 0.8688 0.7455 0.88651 0.0
H1288 H 0.90052 0.7662 0.87051 0.0
C1289 C 0.91334 0.7537 0.9649 0.0
C1290 C 0.91057 0.75201 0.01115 0.0
C1291 C 0.90616 0.75451 0.93371 0.0
C1292 C 0.8917 0.76034 0.87548 0.0
H1293 H 0.84144 0.7319 0.75498 0.0
H1294 H 0.85407 0.7333 0.81567 0.0
H1295 H 0.88737 0.76491 0.81274 0.0
H1296 H 0.89834 0.75048 0.06107 0.0
H1297 H 0.88595 0.75213 0.00676 0.0
H1298 H 0.87319 0.74063 0.94844 0.0
C1299 C 0.85547 0.7409 0.79922 0.0
C1300 C 0.88412 0.75969 0.84256 0.0
C1301 C 0.84825 0.74009 0.76425 0.0
C1302 C 0.90072 0.75171 0.02569 0.0
C1303 C 0.89355 0.75255 0.99448 0.0
C1304 C 0.87638 0.74613 0.91939 0.0
C1305 C 0.86457 0.75136 0.8117 0.0
C1306 C 0.87257 0.75222 0.8475 0.0
C1307 C 0.89605 0.7537 0.94796 0.0
C1308 C 0.88794 0.75351 0.91417 0.0
H1309 H 0.8605 0.76774 0.73683 0.0
H1310 H 0.8729 0.76918 0.79813 0.0
H1311 H 0.85996 0.73975 0.89173 0.0
H1312 H 0.92084 0.75395 0.9524 0.0
H1313 H 0.90833 0.75529 0.89816 0.0
C1314 C 0.10996 0.26311 0.83952 0.0
C1315 C 0.10218 0.25358 0.86355 0.0
C1316 C 0.11623 0.26218 0.80426 0.0
C1317 C 0.12589 0.24326 0.76033 0.0
H1318 H 0.13346 0.26203 0.65372 0.0
C1319 C 0.14991 0.25109 0.57572 0.0
C1320 C 0.15959 0.25099 0.58988 0.0
C1321 C 0.14192 0.25017 0.60729 0.0
C1322 C 0.1313 0.25661 0.68295 0.0
H1323 H 0.09468 0.23556 0.86854 0.0
H1324 H 0.10542 0.23391 0.80674 0.0
H1325 H 0.12135 0.26301 0.71135 0.0
H1326 H 0.16814 0.24926 0.64828 0.0
H1327 H 0.15434 0.24777 0.70308 0.0
H1328 H 0.13571 0.23675 0.73167 0.0
C1329 C 0.10688 0.24214 0.81567 0.0
C1330 C 0.12448 0.25729 0.71636 0.0
C1331 C 0.10067 0.24309 0.851 0.0
C1332 C 0.1608 0.24938 0.63608 0.0
C1333 C 0.15284 0.24848 0.6676 0.0
C1334 C 0.13268 0.24255 0.72687 0.0
C1335 C 0.11482 0.25168 0.79208 0.0
C1336 C 0.12176 0.2507 0.75568 0.0
C1337 C 0.14342 0.24912 0.65375 0.0
C1338 C 0.13556 0.24929 0.68794 0.0
H1339 H 0.11135 0.27132 0.84839 0.0
H1340 H 0.12236 0.26972 0.78724 0.0
H1341 H 0.12408 0.23814 0.79033 0.0
H1342 H 0.14866 0.25226 0.54041 0.0
H1343 H 0.13466 0.25047 0.59534 0.0
C1344 C 0.75765 0.86098 0.86485 0.0
C1345 C 0.75003 0.84943 0.86398 0.0
C1346 C 0.75845 0.86778 0.8284 0.0
C1347 C 0.74308 0.86838 0.72584 0.0
H1348 H 0.77159 0.89469 0.69813 0.0
C1349 C 0.74902 0.89677 0.57268 0.0
C1350 C 0.75324 0.90808 0.58395 0.0
C1351 C 0.74956 0.8894 0.6037 0.0
C1352 C 0.76358 0.88737 0.70554 0.0
H1353 H 0.73737 0.83589 0.82384 0.0
H1354 H 0.73902 0.84767 0.75925 0.0
H1355 H 0.77052 0.88193 0.75752 0.0
H1356 H 0.76196 0.92066 0.6356 0.0
H1357 H 0.76316 0.90782 0.68929 0.0
H1358 H 0.73624 0.8738 0.67305 0.0
C1359 C 0.74419 0.85157 0.78868 0.0
C1360 C 0.76292 0.88007 0.7398 0.0
C1361 C 0.74327 0.84479 0.8256 0.0
C1362 C 0.75862 0.912 0.62588 0.0
C1363 C 0.75932 0.90466 0.65661 0.0
C1364 C 0.74378 0.87558 0.69109 0.0
C1365 C 0.75178 0.86319 0.78962 0.0
C1366 C 0.75262 0.87056 0.75099 0.0
C1367 C 0.75451 0.89323 0.6463 0.0
C1368 C 0.75401 0.88522 0.681 0.0
H1369 H 0.76291 0.86484 0.89413 0.0
H1370 H 0.76419 0.87668 0.83112 0.0
H1371 H 0.73496 0.86128 0.73377 0.0
H1372 H 0.7448 0.89345 0.54076 0.0
H1373 H 0.74589 0.88065 0.59478 0.0
C1374 C 0.14248 0.89662 0.86866 0.0
C1375 C 0.15409 0.90089 0.86715 0.0
C1376 C 0.13571 0.89067 0.83207 0.0
C1377 C 0.13548 0.87545 0.72764 0.0
H1378 H 0.10864 0.87687 0.70213 0.0
C1379 C 0.1073 0.85302 0.57417 0.0
C1380 C 0.09599 0.84575 0.58516 0.0
C1381 C 0.11454 0.86091 0.60552 0.0
C1382 C 0.11611 0.8764 0.70892 0.0
H1383 H 0.16776 0.90248 0.82568 0.0
H1384 H 0.15601 0.89243 0.76099 0.0
H1385 H 0.12127 0.88848 0.76205 0.0
H1386 H 0.08331 0.84157 0.63671 0.0
H1387 H 0.09593 0.85554 0.69102 0.0
H1388 H 0.13034 0.86348 0.67384 0.0
C1389 C 0.15205 0.89338 0.79098 0.0
C1390 C 0.12333 0.88299 0.74347 0.0
C1391 C 0.15882 0.89919 0.82798 0.0
C1392 C 0.09196 0.84702 0.62718 0.0
C1393 C 0.09918 0.85503 0.65827 0.0
C1394 C 0.12835 0.86899 0.69266 0.0
C1395 C 0.14038 0.88899 0.79257 0.0
C1396 C 0.13304 0.88249 0.75381 0.0
C1397 C 0.11061 0.86183 0.64824 0.0
C1398 C 0.11852 0.8693 0.6833 0.0
H1399 H 0.13856 0.8977 0.89852 0.0
H1400 H 0.12676 0.88723 0.83523 0.0
H1401 H 0.14274 0.87465 0.73491 0.0
H1402 H 0.11071 0.85228 0.54218 0.0
H1403 H 0.12329 0.86613 0.59674 0.0
C1404 C 0.75837 0.89865 0.36284 0.0
C1405 C 0.7504 0.90215 0.36332 0.0
C1406 C 0.75929 0.89292 0.32564 0.0
C1407 C 0.74371 0.87666 0.2242 0.0
H1408 H 0.77262 0.88033 0.19195 0.0
C1409 C 0.74933 0.8542 0.07052 0.0
C1410 C 0.75436 0.84777 0.08094 0.0
C1411 C 0.74982 0.86216 0.1011 0.0
C1412 C 0.7645 0.87923 0.2006 0.0
H1413 H 0.73727 0.90256 0.32476 0.0
H1414 H 0.73908 0.89285 0.25903 0.0
H1415 H 0.77135 0.89171 0.25232 0.0
H1416 H 0.76451 0.84524 0.13034 0.0
H1417 H 0.76555 0.85933 0.18326 0.0
H1418 H 0.73692 0.86425 0.17197 0.0
C1419 C 0.74444 0.89427 0.28793 0.0
C1420 C 0.76373 0.88569 0.2354 0.0
C1421 C 0.74343 0.89988 0.32552 0.0
C1422 C 0.76051 0.85002 0.12131 0.0
C1423 C 0.76113 0.8581 0.15159 0.0
C1424 C 0.7445 0.87032 0.18899 0.0
C1425 C 0.75237 0.89067 0.28754 0.0
C1426 C 0.7533 0.88436 0.24824 0.0
C1427 C 0.7555 0.86401 0.14241 0.0
C1428 C 0.75488 0.87143 0.17725 0.0
H1429 H 0.76382 0.90018 0.39158 0.0
H1430 H 0.76531 0.89008 0.32724 0.0
H1431 H 0.7355 0.87524 0.23343 0.0
H1432 H 0.7445 0.85269 0.03978 0.0
H1433 H 0.74551 0.86669 0.09296 0.0
C1434 C 0.1495 0.89845 0.07338 0.0
C1435 C 0.15877 0.9085 0.08818 0.0
C1436 C 0.14137 0.89125 0.10421 0.0
C1437 C 0.13086 0.88954 0.2218 0.0
H1438 H 0.1212 0.85801 0.20979 0.0
C1439 C 0.09914 0.85677 0.34592 0.0
C1440 C 0.10123 0.84829 0.3606 0.0
C1441 C 0.10526 0.86383 0.31023 0.0
C1442 C 0.12386 0.86679 0.2138 0.0
H1443 H 0.16644 0.91906 0.14689 0.0
H1444 H 0.1524 0.90654 0.20032 0.0
H1445 H 0.13332 0.87116 0.15232 0.0
H1446 H 0.11129 0.8405 0.34874 0.0
H1447 H 0.12212 0.85296 0.28693 0.0
H1448 H 0.12179 0.88526 0.28416 0.0
C1449 C 0.15131 0.90423 0.16489 0.0
C1450 C 0.13068 0.87432 0.18046 0.0
C1451 C 0.15942 0.91142 0.13414 0.0
C1452 C 0.10946 0.84693 0.33822 0.0
C1453 C 0.11562 0.85404 0.30258 0.0
C1454 C 0.12406 0.88202 0.25517 0.0
C1455 C 0.14232 0.89393 0.15054 0.0
C1456 C 0.13436 0.88581 0.18425 0.0
C1457 C 0.11366 0.86265 0.28837 0.0
C1458 C 0.12055 0.87056 0.25182 0.0
H1459 H 0.1487 0.89594 0.03822 0.0
H1460 H 0.13445 0.88348 0.09185 0.0
H1461 H 0.13343 0.8983 0.22564 0.0
H1462 H 0.0928 0.858 0.36214 0.0
H1463 H 0.10337 0.87023 0.29971 0.0
C1464 C 0.15757 0.25858 0.32789 0.0
C1465 C 0.15277 0.25297 0.3686 0.0
C1466 C 0.15079 0.25765 0.29097 0.0
C1467 C 0.12152 0.2405 0.24724 0.0
H1468 H 0.12998 0.26649 0.17177 0.0
C1469 C 0.0911 0.24608 0.12882 0.0
C1470 C 0.09516 0.25082 0.08596 0.0
C1471 C 0.09816 0.24514 0.1603 0.0
C1472 C 0.12757 0.25912 0.19222 0.0
H1473 H 0.13708 0.24209 0.40267 0.0
H1474 H 0.1253 0.24079 0.33934 0.0
H1475 H 0.14233 0.26753 0.23271 0.0
H1476 H 0.10973 0.25782 0.042 0.0
H1477 H 0.12202 0.25626 0.09715 0.0
H1478 H 0.10651 0.23228 0.20756 0.0
C1479 C 0.13429 0.24563 0.33507 0.0
C1480 C 0.13467 0.25969 0.22714 0.0
C1481 C 0.14106 0.24645 0.37166 0.0
C1482 C 0.1063 0.25413 0.07465 0.0
C1483 C 0.11338 0.25332 0.10633 0.0
C1484 C 0.11435 0.23999 0.21269 0.0
C1485 C 0.13904 0.25119 0.29411 0.0
C1486 C 0.13172 0.25041 0.25541 0.0
C1487 C 0.10946 0.24904 0.1498 0.0
C1488 C 0.11728 0.24931 0.18497 0.0
H1489 H 0.16657 0.2636 0.32438 0.0
H1490 H 0.15478 0.26192 0.25984 0.0
H1491 H 0.11904 0.23309 0.26754 0.0
H1492 H 0.08257 0.24344 0.13864 0.0
H1493 H 0.09492 0.24183 0.19362 0.0
C1494 C 0.8973 0.75644 0.23277 0.0
C1495 C 0.90172 0.74922 0.2335 0.0
C1496 C 0.89171 0.7574 0.27041 0.0
C1497 C 0.87747 0.74287 0.37668 0.0
H1498 H 0.87955 0.77138 0.40336 0.0
C1499 C 0.85525 0.74872 0.53099 0.0
C1500 C 0.84838 0.75325 0.52045 0.0
C1501 C 0.86313 0.74927 0.49975 0.0
C1502 C 0.87889 0.76337 0.3963 0.0
H1503 H 0.90387 0.73744 0.27464 0.0
H1504 H 0.89435 0.7393 0.34095 0.0
H1505 H 0.89062 0.77007 0.3418 0.0
H1506 H 0.84493 0.76255 0.46999 0.0
H1507 H 0.85883 0.76366 0.41593 0.0
H1508 H 0.86576 0.73623 0.43146 0.0
C1509 C 0.89498 0.74406 0.31086 0.0
C1510 C 0.88518 0.76258 0.36084 0.0
C1511 C 0.90048 0.74301 0.2729 0.0
C1512 C 0.85007 0.75896 0.47917 0.0
C1513 C 0.85805 0.75962 0.44821 0.0
C1514 C 0.87128 0.7437 0.41247 0.0
C1515 C 0.89051 0.75127 0.31011 0.0
C1516 C 0.88442 0.75228 0.35001 0.0
C1517 C 0.86443 0.75449 0.4576 0.0
C1518 C 0.87179 0.75391 0.42224 0.0
H1519 H 0.89804 0.7613 0.20283 0.0
H1520 H 0.88818 0.76285 0.26802 0.0
H1521 H 0.87651 0.73477 0.36908 0.0
H1522 H 0.85417 0.74425 0.56241 0.0
H1523 H 0.86803 0.74536 0.50811 0.0
C1524 C 0.24848 0.09136 0.46979 0.0
C1525 C 0.25166 0.0946 0.51497 0.0
C1526 C 0.24771 0.09866 0.43916 0.0
C1527 C 0.25874 0.12885 0.42077 0.0
H1528 H 0.23731 0.1183 0.32239 0.0
C1529 C 0.26425 0.1557 0.2619 0.0
C1530 C 0.2546 0.15481 0.24193 0.0
C1531 C 0.26337 0.14864 0.29767 0.0
C1532 C 0.24329 0.12144 0.3499 0.0
H1533 H 0.25589 0.10785 0.56388 0.0
H1534 H 0.25431 0.12049 0.51058 0.0
H1535 H 0.23588 0.10532 0.38124 0.0
H1536 H 0.23647 0.14606 0.24484 0.0
H1537 H 0.23494 0.13396 0.30754 0.0
H1538 H 0.26605 0.145 0.38972 0.0
C1539 C 0.25267 0.11239 0.49862 0.0
C1540 C 0.24254 0.11395 0.38343 0.0
C1541 C 0.25347 0.10509 0.5293 0.0
C1542 C 0.24407 0.1469 0.25915 0.0
C1543 C 0.24319 0.1399 0.295 0.0
C1544 C 0.25946 0.13635 0.38729 0.0
C1545 C 0.25005 0.10937 0.4529 0.0
C1546 C 0.25032 0.11752 0.41906 0.0
C1547 C 0.25281 0.14059 0.31444 0.0
C1548 C 0.25181 0.13273 0.35117 0.0
H1549 H 0.24703 0.08335 0.45746 0.0
H1550 H 0.24577 0.09606 0.40419 0.0
H1551 H 0.26496 0.13188 0.44736 0.0
H1552 H 0.27249 0.16169 0.24937 0.0
H1553 H 0.27096 0.14933 0.31141 0.0
C1554 C 0.84787 0.10896 0.26068 0.0
C1555 C 0.84946 0.10089 0.23815 0.0
C1556 C 0.85501 0.11529 0.296 0.0
C1557 C 0.88333 0.1244 0.34188 0.0
H1558 H 0.8725 0.13341 0.44559 0.0
C1559 C 0.89992 0.14943 0.52426 0.0
C1560 C 0.91001 0.15871 0.50971 0.0
C1561 C 0.89267 0.14144 0.49316 0.0
C1562 C 0.87566 0.13085 0.41718 0.0
H1563 H 0.85956 0.09287 0.23619 0.0
H1564 H 0.87179 0.10368 0.29805 0.0
H1565 H 0.8593 0.1212 0.38851 0.0
H1566 H 0.92056 0.16654 0.4511 0.0
H1567 H 0.90793 0.15273 0.39715 0.0
H1568 H 0.89966 0.1339 0.37079 0.0
C1569 C 0.86523 0.10536 0.28785 0.0
C1570 C 0.86809 0.12397 0.38406 0.0
C1571 C 0.85816 0.0991 0.25247 0.0
C1572 C 0.91289 0.15951 0.46364 0.0
C1573 C 0.90563 0.15154 0.4326 0.0
C1574 C 0.89088 0.13125 0.37501 0.0
C1575 C 0.86387 0.11364 0.30973 0.0
C1576 C 0.87184 0.12072 0.3458 0.0
C1577 C 0.89532 0.14253 0.44677 0.0
C1578 C 0.88717 0.13465 0.41293 0.0
H1579 H 0.84127 0.11055 0.25041 0.0
H1580 H 0.85377 0.12167 0.31172 0.0
H1581 H 0.88656 0.12219 0.31267 0.0
H1582 H 0.89744 0.14851 0.55948 0.0
H1583 H 0.88489 0.13449 0.50541 0.0
C1584 C 0.91389 0.43951 0.06935 0.0
C1585 C 0.92173 0.43585 0.06947 0.0
C1586 C 0.91299 0.44533 0.10628 0.0
C1587 C 0.92841 0.46141 0.20839 0.0
H1588 H 0.89956 0.45807 0.23927 0.0
C1589 C 0.92259 0.48354 0.36275 0.0
C1590 C 0.91772 0.49013 0.35254 0.0
C1591 C 0.92212 0.47567 0.33169 0.0
C1592 C 0.90766 0.45908 0.23099 0.0
H1593 H 0.93466 0.43524 0.10877 0.0
H1594 H 0.93287 0.44509 0.17403 0.0
H1595 H 0.90085 0.44673 0.1788 0.0
H1596 H 0.90788 0.49304 0.30292 0.0
H1597 H 0.90686 0.47912 0.24915 0.0
H1598 H 0.93516 0.47368 0.26113 0.0
C1599 C 0.9276 0.44374 0.14488 0.0
C1600 C 0.90844 0.45264 0.19613 0.0
C1601 C 0.92861 0.43805 0.10755 0.0
C1602 C 0.91174 0.48814 0.31182 0.0
C1603 C 0.91114 0.48015 0.28104 0.0
C1604 C 0.9276 0.46773 0.24365 0.0
C1605 C 0.91979 0.4475 0.14471 0.0
C1606 C 0.91885 0.45384 0.18384 0.0
C1607 C 0.91661 0.47408 0.29009 0.0
C1608 C 0.91724 0.46673 0.25493 0.0
H1609 H 0.90853 0.43803 0.04036 0.0
H1610 H 0.90707 0.44829 0.10425 0.0
H1611 H 0.9366 0.46274 0.19958 0.0
H1612 H 0.92727 0.48484 0.39375 0.0
H1613 H 0.9263 0.47101 0.33974 0.0
C1614 C 0.51703 0.42463 0.31424 0.0
C1615 C 0.51478 0.42892 0.35343 0.0
C1616 C 0.52476 0.43181 0.28225 0.0
C1617 C 0.54683 0.46162 0.261 0.0
H1618 H 0.53804 0.45315 0.13616 0.0
C1619 C 0.56603 0.4919 0.10728 0.0
C1620 C 0.5692 0.48763 0.07049 0.0
C1621 C 0.55998 0.48494 0.14354 0.0
C1622 C 0.54064 0.45559 0.17086 0.0
H1623 H 0.51929 0.44413 0.39077 0.0
H1624 H 0.53247 0.45665 0.3346 0.0
H1625 H 0.52688 0.44057 0.19667 0.0
H1626 H 0.56848 0.47271 0.04289 0.0
H1627 H 0.55779 0.46059 0.10554 0.0
H1628 H 0.56043 0.47686 0.23452 0.0
C1629 C 0.52847 0.44773 0.32874 0.0
C1630 C 0.5343 0.44834 0.20567 0.0
C1631 C 0.52087 0.44053 0.36107 0.0
C1632 C 0.56618 0.47628 0.0707 0.0
C1633 C 0.56002 0.46931 0.10648 0.0
C1634 C 0.5531 0.46895 0.22606 0.0
C1635 C 0.53029 0.4435 0.28825 0.0
C1636 C 0.53732 0.4512 0.25129 0.0
C1637 C 0.55684 0.47355 0.14326 0.0
C1638 C 0.5501 0.46598 0.18064 0.0
H1639 H 0.51256 0.41572 0.30753 0.0
H1640 H 0.52617 0.42819 0.25222 0.0
H1641 H 0.54952 0.46408 0.29558 0.0
H1642 H 0.56828 0.50063 0.10816 0.0
H1643 H 0.55759 0.4884 0.1714 0.0
C1644 C 0.5235 0.0935 0.09238 0.0
C1645 C 0.51586 0.08294 0.07465 0.0
C1646 C 0.53043 0.0945 0.12865 0.0
C1647 C 0.53433 0.07835 0.22077 0.0
H1648 H 0.56501 0.10276 0.21677 0.0
C1649 C 0.57955 0.09066 0.30467 0.0
C1650 C 0.57625 0.0871 0.34948 0.0
C1651 C 0.57216 0.09129 0.27411 0.0
C1652 C 0.55648 0.09587 0.21841 0.0
H1653 H 0.50937 0.06511 0.08165 0.0
H1654 H 0.52166 0.06684 0.14436 0.0
H1655 H 0.55205 0.10102 0.15742 0.0
H1656 H 0.56273 0.08205 0.39789 0.0
H1657 H 0.54992 0.0834 0.34478 0.0
H1658 H 0.53892 0.07292 0.28072 0.0
C1659 C 0.52217 0.07437 0.13073 0.0
C1660 C 0.54899 0.09494 0.18457 0.0
C1661 C 0.51516 0.07337 0.09457 0.0
C1662 C 0.56556 0.08479 0.36362 0.0
C1663 C 0.55816 0.08544 0.33301 0.0
C1664 C 0.54184 0.07925 0.25453 0.0
C1665 C 0.52997 0.08496 0.148 0.0
C1666 C 0.53782 0.08612 0.18507 0.0
C1667 C 0.56127 0.08843 0.28755 0.0
C1668 C 0.55306 0.08797 0.25357 0.0
H1669 H 0.52418 0.10104 0.07817 0.0
H1670 H 0.53616 0.10277 0.14156 0.0
H1671 H 0.52577 0.07153 0.22265 0.0
H1672 H 0.5877 0.09251 0.29246 0.0
H1673 H 0.57484 0.09352 0.23936 0.0
C1674 C 0.77712 0.59754 0.17527 0.0
C1675 C 0.76906 0.58785 0.19764 0.0
C1676 C 0.78353 0.5968 0.14008 0.0
C1677 C 0.79292 0.57782 0.09423 0.0
H1678 H 0.80165 0.59756 0.99032 0.0
C1679 C 0.8177 0.58627 0.91128 0.0
C1680 C 0.82709 0.58563 0.92552 0.0
C1681 C 0.80974 0.5855 0.94264 0.0
C1682 C 0.79917 0.59188 0.01881 0.0
H1683 H 0.76117 0.56975 0.19957 0.0
H1684 H 0.77214 0.56845 0.13793 0.0
H1685 H 0.78938 0.59843 0.04754 0.0
H1686 H 0.83515 0.58315 0.98386 0.0
H1687 H 0.82138 0.5819 0.03834 0.0
H1688 H 0.80256 0.57115 0.06522 0.0
C1689 C 0.77372 0.57665 0.14814 0.0
C1690 C 0.79226 0.5925 0.05198 0.0
C1691 C 0.76738 0.5774 0.18338 0.0
C1692 C 0.82804 0.58367 0.97158 0.0
C1693 C 0.82009 0.58292 0.00291 0.0
C1694 C 0.7998 0.57719 0.06103 0.0
C1695 C 0.78198 0.58634 0.12635 0.0
C1696 C 0.7891 0.58552 0.09029 0.0
C1697 C 0.81096 0.58406 0.989 0.0
C1698 C 0.80309 0.58426 0.02304 0.0
H1699 H 0.77864 0.60572 0.1855 0.0
H1700 H 0.78989 0.60445 0.12442 0.0
H1701 H 0.79078 0.57241 0.12348 0.0
H1702 H 0.81666 0.58772 0.87605 0.0
H1703 H 0.80269 0.58619 0.93062 0.0
C1704 C 0.42351 0.1942 0.2026 0.0
C1705 C 0.41611 0.1826 0.20109 0.0
C1706 C 0.42436 0.20101 0.16613 0.0
C1707 C 0.40951 0.20156 0.06194 0.0
H1708 H 0.43808 0.22799 0.03612 0.0
C1709 C 0.4159 0.23005 0.90866 0.0
C1710 C 0.42025 0.24141 0.91959 0.0
C1711 C 0.4163 0.22266 0.93998 0.0
C1712 C 0.43005 0.22065 0.043 0.0
H1713 H 0.40387 0.16901 0.15987 0.0
H1714 H 0.40559 0.18084 0.09534 0.0
H1715 H 0.43678 0.21522 0.09591 0.0
H1716 H 0.42907 0.25402 0.97104 0.0
H1717 H 0.42999 0.24113 0.0253 0.0
H1718 H 0.40287 0.20698 0.00835 0.0
C1719 C 0.41055 0.18475 0.12524 0.0
C1720 C 0.42926 0.21334 0.07747 0.0
C1721 C 0.40959 0.17794 0.16214 0.0
C1722 C 0.42562 0.24533 0.96154 0.0
C1723 C 0.42617 0.23796 0.99261 0.0
C1724 C 0.41034 0.20878 0.02704 0.0
C1725 C 0.41796 0.19639 0.12674 0.0
C1726 C 0.41894 0.20378 0.08795 0.0
C1727 C 0.42123 0.2265 0.98262 0.0
C1728 C 0.42059 0.21847 0.0176 0.0
H1729 H 0.42859 0.19808 0.2323 0.0
H1730 H 0.42995 0.20993 0.16924 0.0
H1731 H 0.40138 0.19442 0.06931 0.0
H1732 H 0.41169 0.22672 0.87672 0.0
H1733 H 0.41254 0.21389 0.93122 0.0
C1734 C 0.75901 0.18028 0.95975 0.0
C1735 C 0.76298 0.17878 0.91799 0.0
C1736 C 0.76632 0.18831 0.99055 0.0
C1737 C 0.79558 0.20222 0.02458 0.0
H1738 H 0.78852 0.22183 0.09323 0.0
C1739 C 0.82606 0.23276 0.15904 0.0
C1740 C 0.8213 0.2343 0.19845 0.0
C1741 C 0.81931 0.22692 0.12206 0.0
C1742 C 0.79058 0.21631 0.07479 0.0
H1743 H 0.77769 0.18491 0.87516 0.0
H1744 H 0.79042 0.19881 0.9292 0.0
H1745 H 0.77587 0.2101 0.03361 0.0
H1746 H 0.8057 0.23082 0.23016 0.0
H1747 H 0.79395 0.22036 0.16677 0.0
H1748 H 0.81003 0.20801 0.06666 0.0
C1749 C 0.78166 0.19374 0.93804 0.0
C1750 C 0.78334 0.20965 0.04046 0.0
C1751 C 0.77433 0.18582 0.907 0.0
C1752 C 0.80966 0.22986 0.20015 0.0
C1753 C 0.80291 0.22392 0.16352 0.0
C1754 C 0.80275 0.20877 0.0593 0.0
C1755 C 0.77777 0.19491 0.98048 0.0
C1756 C 0.78573 0.20248 0.01519 0.0
C1757 C 0.80762 0.22238 0.12386 0.0
C1758 C 0.8003 0.21584 0.0852 0.0
H1759 H 0.75033 0.17501 0.96928 0.0
H1760 H 0.76311 0.18901 0.0231 0.0
H1761 H 0.79756 0.19666 0.00603 0.0
H1762 H 0.83502 0.23616 0.15659 0.0
H1763 H 0.82328 0.22606 0.09192 0.0
C1764 C 0.41608 0.18638 0.40716 0.0
C1765 C 0.42068 0.17957 0.41784 0.0
C1766 C 0.41658 0.19426 0.4382 0.0
C1767 C 0.43078 0.21039 0.54031 0.0
H1768 H 0.40206 0.20767 0.56854 0.0
C1769 C 0.42418 0.22965 0.70191 0.0
C1770 C 0.41674 0.23381 0.70098 0.0
C1771 C 0.4251 0.22389 0.66485 0.0
C1772 C 0.4102 0.20873 0.56062 0.0
H1773 H 0.43005 0.17624 0.46838 0.0
H1774 H 0.43109 0.19017 0.52216 0.0
H1775 H 0.40348 0.19668 0.50706 0.0
H1776 H 0.40453 0.23533 0.66011 0.0
H1777 H 0.40635 0.22553 0.59471 0.0
H1778 H 0.43756 0.22249 0.59343 0.0
C1779 C 0.42702 0.18932 0.4899 0.0
C1780 C 0.411 0.20239 0.5254 0.0
C1781 C 0.42639 0.18132 0.45911 0.0
C1782 C 0.41027 0.23214 0.66197 0.0
C1783 C 0.4113 0.22648 0.62456 0.0
C1784 C 0.43002 0.21684 0.57516 0.0
C1785 C 0.42184 0.19564 0.48028 0.0
C1786 C 0.42126 0.20305 0.51528 0.0
C1787 C 0.41872 0.22225 0.62554 0.0
C1788 C 0.41968 0.21596 0.58631 0.0
H1789 H 0.41162 0.18526 0.37571 0.0
H1790 H 0.41263 0.19911 0.42971 0.0
H1791 H 0.43881 0.21114 0.53292 0.0
H1792 H 0.42922 0.23072 0.7316 0.0
H1793 H 0.43071 0.22056 0.66745 0.0
C1794 C 0.77597 0.19446 0.70287 0.0
C1795 C 0.77128 0.18279 0.7007 0.0
C1796 C 0.78192 0.20122 0.66627 0.0
C1797 C 0.79638 0.20126 0.55989 0.0
H1798 H 0.79545 0.22848 0.53723 0.0
C1799 C 0.81864 0.22988 0.4069 0.0
C1800 C 0.82604 0.24112 0.41836 0.0
C1801 C 0.81083 0.22256 0.43834 0.0
C1802 C 0.79578 0.2209 0.54321 0.0
H1803 H 0.76905 0.16904 0.65817 0.0
H1804 H 0.77915 0.18081 0.59348 0.0
H1805 H 0.78394 0.21581 0.59728 0.0
H1806 H 0.83057 0.25362 0.47094 0.0
H1807 H 0.81673 0.24088 0.52543 0.0
H1808 H 0.80812 0.20635 0.50517 0.0
C1809 C 0.77848 0.18479 0.62396 0.0
C1810 C 0.78925 0.21366 0.57782 0.0
C1811 C 0.77265 0.17802 0.66096 0.0
C1812 C 0.82501 0.24502 0.46105 0.0
C1813 C 0.81707 0.23773 0.49224 0.0
C1814 C 0.80278 0.20843 0.52485 0.0
C1815 C 0.7832 0.1965 0.62611 0.0
C1816 C 0.78959 0.20382 0.58718 0.0
C1817 C 0.81012 0.22637 0.48162 0.0
C1818 C 0.80266 0.21839 0.51657 0.0
H1819 H 0.77516 0.19841 0.73317 0.0
H1820 H 0.78564 0.21019 0.66984 0.0
H1821 H 0.79703 0.19389 0.56635 0.0
H1822 H 0.81921 0.22658 0.37437 0.0
H1823 H 0.80549 0.21387 0.42914 0.0
C1824 C 0.82608 0.5944 0.6642 0.0
C1825 C 0.82122 0.5881 0.70354 0.0
C1826 C 0.81944 0.5933 0.62651 0.0
C1827 C 0.79111 0.57455 0.57715 0.0
H1828 H 0.79765 0.60089 0.50719 0.0
C1829 C 0.75932 0.5779 0.4597 0.0
C1830 C 0.76328 0.5836 0.41839 0.0
C1831 C 0.76668 0.5773 0.4906 0.0
C1832 C 0.79581 0.59342 0.52602 0.0
H1833 H 0.80558 0.57583 0.73442 0.0
H1834 H 0.79402 0.5742 0.66975 0.0
H1835 H 0.80999 0.60244 0.56911 0.0
H1836 H 0.77805 0.59266 0.37629 0.0
H1837 H 0.79088 0.59169 0.43045 0.0
H1838 H 0.77665 0.56566 0.53492 0.0
C1839 C 0.80297 0.57974 0.66715 0.0
C1840 C 0.8029 0.5943 0.56152 0.0
C1841 C 0.80961 0.58075 0.70451 0.0
C1842 C 0.77469 0.5882 0.40775 0.0
C1843 C 0.78207 0.58773 0.4389 0.0
C1844 C 0.78395 0.57371 0.54198 0.0
C1845 C 0.80778 0.58596 0.62751 0.0
C1846 C 0.80059 0.5849 0.58793 0.0
C1847 C 0.77819 0.5825 0.48107 0.0
C1848 C 0.78617 0.58315 0.51628 0.0
H1849 H 0.83502 0.60007 0.66228 0.0
H1850 H 0.82348 0.59812 0.59644 0.0
H1851 H 0.78918 0.56707 0.59598 0.0
H1852 H 0.75058 0.57424 0.46896 0.0
H1853 H 0.76345 0.57325 0.5229 0.0
C1854 C 0.5231 0.08476 0.86342 0.0
C1855 C 0.51464 0.08694 0.84933 0.0
C1856 C 0.53116 0.08546 0.83272 0.0
C1857 C 0.54139 0.07932 0.75437 0.0
H1858 H 0.55269 0.10096 0.65674 0.0
C1859 C 0.5625 0.07361 0.59484 0.0
C1860 C 0.57129 0.08323 0.57478 0.0
C1861 C 0.55641 0.07455 0.63088 0.0
C1862 C 0.54975 0.09492 0.68404 0.0
H1863 H 0.50842 0.09214 0.79225 0.0
H1864 H 0.52231 0.09322 0.73897 0.0
H1865 H 0.54136 0.1026 0.71597 0.0
H1866 H 0.58085 0.10135 0.57793 0.0
H1867 H 0.57046 0.10297 0.64111 0.0
H1868 H 0.54994 0.07176 0.72277 0.0
C1869 C 0.52283 0.09107 0.77377 0.0
C1870 C 0.54311 0.09579 0.7178 0.0
C1871 C 0.5148 0.09041 0.80443 0.0
C1872 C 0.57404 0.09377 0.59226 0.0
C1873 C 0.56803 0.09471 0.62841 0.0
C1874 C 0.54807 0.07849 0.72069 0.0
C1875 C 0.53096 0.08835 0.78719 0.0
C1876 C 0.53874 0.08793 0.75317 0.0
C1877 C 0.55904 0.08513 0.64788 0.0
C1878 C 0.55226 0.08622 0.68482 0.0
H1879 H 0.52327 0.08211 0.89776 0.0
H1880 H 0.53744 0.08352 0.84448 0.0
H1881 H 0.53807 0.07303 0.78072 0.0
H1882 H 0.56015 0.06537 0.58211 0.0
H1883 H 0.54947 0.06699 0.64461 0.0
C1884 C 0.92301 0.44012 0.85819 0.0
C1885 C 0.91777 0.42854 0.8501 0.0
C1886 C 0.92258 0.44731 0.82591 0.0
C1887 C 0.91774 0.44816 0.70256 0.0
H1888 H 0.91959 0.47639 0.73262 0.0
C1889 C 0.91376 0.4764 0.56901 0.0
C1890 C 0.92209 0.48775 0.56932 0.0
C1891 C 0.91292 0.46932 0.60441 0.0
C1892 C 0.91915 0.46856 0.72383 0.0
H1893 H 0.90726 0.41536 0.80323 0.0
H1894 H 0.90604 0.42779 0.74797 0.0
H1895 H 0.91766 0.46346 0.79307 0.0
H1896 H 0.93596 0.50063 0.6075 0.0
H1897 H 0.93434 0.48822 0.67014 0.0
H1898 H 0.91897 0.45319 0.63327 0.0
C1899 C 0.91089 0.43142 0.77838 0.0
C1900 C 0.91806 0.46114 0.75843 0.0
C1901 C 0.91147 0.42424 0.81034 0.0
C1902 C 0.92949 0.49191 0.60624 0.0
C1903 C 0.92852 0.48484 0.64215 0.0
C1904 C 0.91865 0.45549 0.66807 0.0
C1905 C 0.91676 0.44309 0.78498 0.0
C1906 C 0.91738 0.45084 0.74829 0.0
C1907 C 0.92028 0.47345 0.64133 0.0
C1908 C 0.91941 0.46578 0.67832 0.0
H1909 H 0.928 0.44373 0.88833 0.0
H1910 H 0.9273 0.45622 0.83225 0.0
H1911 H 0.91755 0.44048 0.69321 0.0
H1912 H 0.90793 0.47291 0.54108 0.0
H1913 H 0.90643 0.4606 0.60307 0.0
C1914 C 0.51322 0.43829 0.60869 0.0
C1915 C 0.51742 0.43506 0.57184 0.0
C1916 C 0.52026 0.44439 0.64465 0.0
C1917 C 0.54961 0.4639 0.67056 0.0
H1918 H 0.54142 0.45534 0.79577 0.0
C1919 C 0.58064 0.48831 0.81292 0.0
C1920 C 0.57629 0.49047 0.85218 0.0
C1921 C 0.57351 0.48048 0.78112 0.0
C1922 C 0.54381 0.45794 0.76105 0.0
H1923 H 0.53228 0.43571 0.54386 0.0
H1924 H 0.54453 0.44651 0.60599 0.0
H1925 H 0.52859 0.44416 0.73541 0.0
H1926 H 0.56105 0.48574 0.88972 0.0
H1927 H 0.54862 0.47241 0.83388 0.0
H1928 H 0.56459 0.47786 0.69554 0.0
C1929 C 0.53581 0.44428 0.60721 0.0
C1930 C 0.53644 0.45151 0.72651 0.0
C1931 C 0.52877 0.43805 0.57173 0.0
C1932 C 0.5647 0.48424 0.85996 0.0
C1933 C 0.55755 0.47654 0.82784 0.0
C1934 C 0.55689 0.47041 0.70499 0.0
C1935 C 0.53165 0.44754 0.644 0.0
C1936 C 0.5393 0.45441 0.68092 0.0
C1937 C 0.56182 0.47476 0.78738 0.0
C1938 C 0.55413 0.46752 0.75079 0.0
H1939 H 0.5045 0.43607 0.60981 0.0
H1940 H 0.51685 0.44685 0.67253 0.0
H1941 H 0.55197 0.46641 0.63571 0.0
H1942 H 0.58955 0.49289 0.80609 0.0
H1943 H 0.57717 0.47912 0.7511 0.0
C1944 C 0.58129 0.8238 0.64199 0.0
C1945 C 0.58628 0.82485 0.68455 0.0
C1946 C 0.58051 0.81578 0.61096 0.0
C1947 C 0.59534 0.80131 0.57819 0.0
H1948 H 0.56888 0.78217 0.50772 0.0
C1949 C 0.59533 0.77077 0.44351 0.0
C1950 C 0.58903 0.7692 0.40411 0.0
C1951 C 0.59445 0.77669 0.48034 0.0
C1952 C 0.5764 0.78757 0.52661 0.0
H1953 H 0.59395 0.81796 0.72847 0.0
H1954 H 0.59273 0.80411 0.67398 0.0
H1955 H 0.56792 0.79394 0.56713 0.0
H1956 H 0.57704 0.7728 0.37207 0.0
H1957 H 0.57585 0.78343 0.43499 0.0
H1958 H 0.604 0.7954 0.53671 0.0
C1959 C 0.58943 0.8095 0.66476 0.0
C1960 C 0.57581 0.79425 0.56085 0.0
C1961 C 0.59004 0.81739 0.69604 0.0
C1962 C 0.58193 0.77375 0.40213 0.0
C1963 C 0.58118 0.77979 0.43851 0.0
C1964 C 0.59599 0.79477 0.54348 0.0
C1965 C 0.58486 0.80877 0.6216 0.0
C1966 C 0.58528 0.80122 0.58683 0.0
C1967 C 0.58737 0.78131 0.4783 0.0
C1968 C 0.58655 0.78786 0.5169 0.0
H1969 H 0.5783 0.82941 0.63207 0.0
H1970 H 0.57698 0.81541 0.57785 0.0
H1971 H 0.60281 0.80673 0.59735 0.0
H1972 H 0.60081 0.76728 0.44613 0.0
H1973 H 0.59924 0.77752 0.51055 0.0
C1974 C 0.18181 0.75704 0.64629 0.0
C1975 C 0.18033 0.76165 0.68628 0.0
C1976 C 0.18962 0.76387 0.61383 0.0
C1977 C 0.21327 0.79298 0.59242 0.0
H1978 H 0.20345 0.78533 0.46804 0.0
C1979 C 0.23281 0.82358 0.44028 0.0
C1980 C 0.23529 0.81918 0.40193 0.0
C1981 C 0.22681 0.81659 0.47654 0.0
C1982 C 0.20635 0.78753 0.50259 0.0
H1983 H 0.18626 0.77701 0.72443 0.0
H1984 H 0.19961 0.78897 0.66747 0.0
H1985 H 0.19208 0.77299 0.52875 0.0
H1986 H 0.23342 0.80402 0.37157 0.0
H1987 H 0.22281 0.79186 0.43434 0.0
H1988 H 0.22736 0.80779 0.56568 0.0
C1989 C 0.19493 0.78004 0.66133 0.0
C1990 C 0.19987 0.78041 0.53752 0.0
C1991 C 0.18724 0.77317 0.69411 0.0
C1992 C 0.23166 0.80768 0.40061 0.0
C1993 C 0.22554 0.80069 0.43646 0.0
C1994 C 0.21967 0.80019 0.55741 0.0
C1995 C 0.19602 0.77553 0.62017 0.0
C1996 C 0.20324 0.783 0.58299 0.0
C1997 C 0.22303 0.80506 0.47476 0.0
C1998 C 0.21628 0.79752 0.51215 0.0
H1999 H 0.1767 0.74817 0.63947 0.0
H2000 H 0.19044 0.76002 0.58325 0.0
H2001 H 0.21624 0.79521 0.62684 0.0
H2002 H 0.23554 0.83241 0.44236 0.0
H2003 H 0.22493 0.82016 0.50557 0.0
C2004 C 0.24592 0.42459 0.64759 0.0
C2005 C 0.24186 0.41891 0.68889 0.0
C2006 C 0.23868 0.42546 0.61685 0.0
C2007 C 0.20961 0.40995 0.58122 0.0
H2008 H 0.21649 0.43666 0.51335 0.0
C2009 C 0.17944 0.40959 0.44426 0.0
C2010 C 0.18426 0.41611 0.40542 0.0
C2011 C 0.18608 0.41056 0.48177 0.0
C2012 C 0.21448 0.42908 0.53154 0.0
H2013 H 0.22707 0.41018 0.73112 0.0
H2014 H 0.21446 0.41161 0.6772 0.0
H2015 H 0.22898 0.43767 0.57385 0.0
H2016 H 0.19985 0.42869 0.37526 0.0
H2017 H 0.21144 0.43009 0.43949 0.0
H2018 H 0.19542 0.4012 0.53797 0.0
C2019 C 0.22324 0.41536 0.66868 0.0
C2020 C 0.22163 0.4297 0.56642 0.0
C2021 C 0.2305 0.41463 0.69969 0.0
C2022 C 0.19585 0.4236 0.40481 0.0
C2023 C 0.2025 0.42447 0.44194 0.0
C2024 C 0.20256 0.40929 0.54594 0.0
C2025 C 0.22721 0.42055 0.62652 0.0
C2026 C 0.2193 0.42013 0.59144 0.0
C2027 C 0.19772 0.41799 0.48106 0.0
C2028 C 0.20493 0.41882 0.52029 0.0
H2029 H 0.25462 0.42801 0.63826 0.0
H2030 H 0.24197 0.42949 0.58455 0.0
H2031 H 0.20769 0.4024 0.59953 0.0
H2032 H 0.17051 0.40381 0.44589 0.0
H2033 H 0.18204 0.40556 0.51144 0.0
C2034 C 0.48423 0.92186 0.23913 0.0
C2035 C 0.49095 0.91719 0.25014 0.0
C2036 C 0.47624 0.92131 0.26972 0.0
C2037 C 0.45959 0.90686 0.37041 0.0
H2038 H 0.46264 0.93561 0.4005 0.0
C2039 C 0.44006 0.91302 0.53208 0.0
C2040 C 0.43615 0.92066 0.53188 0.0
C2041 C 0.44583 0.91215 0.49493 0.0
C2042 C 0.46149 0.92746 0.39203 0.0
H2043 H 0.49403 0.90765 0.30073 0.0
H2044 H 0.47989 0.9065 0.35367 0.0
H2045 H 0.47376 0.9343 0.33927 0.0
H2046 H 0.43507 0.93328 0.49218 0.0
H2047 H 0.44487 0.93155 0.42653 0.0
H2048 H 0.44726 0.89995 0.42268 0.0
C2049 C 0.4809 0.91067 0.32152 0.0
C2050 C 0.4679 0.92673 0.35696 0.0
C2051 C 0.48901 0.91136 0.29123 0.0
C2052 C 0.43806 0.92737 0.49346 0.0
C2053 C 0.44373 0.9264 0.45591 0.0
C2054 C 0.45306 0.90755 0.40507 0.0
C2055 C 0.47466 0.91593 0.31163 0.0
C2056 C 0.46714 0.91645 0.34624 0.0
C2057 C 0.44772 0.91879 0.4562 0.0
C2058 C 0.45406 0.9179 0.41694 0.0
H2059 H 0.4855 0.92642 0.20782 0.0
H2060 H 0.47145 0.92533 0.26105 0.0
H2061 H 0.45876 0.89881 0.36254 0.0
H2062 H 0.43881 0.90778 0.56132 0.0
H2063 H 0.44898 0.90638 0.49705 0.0
C2064 C 0.07487 0.5141 0.50737 0.0
C2065 C 0.08448 0.51527 0.52884 0.0
C2066 C 0.07582 0.52115 0.47148 0.0
C2067 C 0.09578 0.54871 0.42135 0.0
H2068 H 0.07472 0.53812 0.3217 0.0
C2069 C 0.08604 0.56512 0.24107 0.0
C2070 C 0.08757 0.5755 0.25563 0.0
C2071 C 0.08687 0.55783 0.27173 0.0
C2072 C 0.08078 0.5412 0.3489 0.0
H2073 H 0.10263 0.5245 0.52838 0.0
H2074 H 0.10429 0.53657 0.46541 0.0
H2075 H 0.07362 0.52498 0.37925 0.0
H2076 H 0.09173 0.58655 0.31356 0.0
H2077 H 0.09303 0.57387 0.36679 0.0
H2078 H 0.10306 0.5649 0.39069 0.0
C2079 C 0.096 0.53043 0.4769 0.0
C2080 C 0.08004 0.53368 0.38234 0.0
C2081 C 0.09505 0.52345 0.51292 0.0
C2082 C 0.0905 0.57864 0.30105 0.0
C2083 C 0.09129 0.57135 0.33166 0.0
C2084 C 0.09656 0.55622 0.38784 0.0
C2085 C 0.08641 0.52948 0.45603 0.0
C2086 C 0.08746 0.53736 0.41927 0.0
C2087 C 0.08924 0.56075 0.31767 0.0
C2088 C 0.08899 0.5526 0.35144 0.0
H2089 H 0.06661 0.5079 0.51889 0.0
H2090 H 0.06824 0.52025 0.45665 0.0
H2091 H 0.10157 0.5519 0.44949 0.0
H2092 H 0.08382 0.56244 0.2063 0.0
H2093 H 0.08546 0.54983 0.25957 0.0
C2094 C 0.49263 0.56488 0.49396 0.0
C2095 C 0.48847 0.56825 0.53052 0.0
C2096 C 0.48561 0.55887 0.45781 0.0
C2097 C 0.45624 0.53976 0.4313 0.0
H2098 H 0.46462 0.54816 0.30611 0.0
C2099 C 0.4252 0.51543 0.2891 0.0
C2100 C 0.42951 0.51313 0.25006 0.0
C2101 C 0.43237 0.5233 0.32067 0.0
C2102 C 0.46218 0.5456 0.34083 0.0
H2103 H 0.47372 0.56796 0.55775 0.0
H2104 H 0.4615 0.55731 0.49531 0.0
H2105 H 0.47748 0.55926 0.36659 0.0
H2106 H 0.44471 0.51768 0.21258 0.0
H2107 H 0.45722 0.53108 0.26809 0.0
H2108 H 0.44118 0.52591 0.40627 0.0
C2109 C 0.47017 0.55936 0.49447 0.0
C2110 C 0.46956 0.55199 0.37543 0.0
C2111 C 0.47719 0.5655 0.53012 0.0
C2112 C 0.4411 0.51929 0.24218 0.0
C2113 C 0.44829 0.52703 0.27412 0.0
C2114 C 0.44895 0.53329 0.39683 0.0
C2115 C 0.47428 0.55595 0.458 0.0
C2116 C 0.46663 0.54914 0.421 0.0
C2117 C 0.44406 0.52892 0.31445 0.0
C2118 C 0.45177 0.53612 0.35104 0.0
H2119 H 0.50129 0.56692 0.49323 0.0
H2120 H 0.48897 0.55629 0.43019 0.0
H2121 H 0.45383 0.53729 0.46615 0.0
H2122 H 0.4163 0.51089 0.29599 0.0
H2123 H 0.42874 0.52476 0.35055 0.0
C2124 C 0.08303 0.52006 0.74429 0.0
C2125 C 0.0882 0.51364 0.75206 0.0
C2126 C 0.08359 0.52772 0.77673 0.0
C2127 C 0.08844 0.53312 0.90009 0.0
H2128 H 0.08711 0.55987 0.87167 0.0
C2129 C 0.09241 0.56466 0.03666 0.0
C2130 C 0.08439 0.5681 0.03605 0.0
C2131 C 0.09327 0.55858 1.00067 0.0
C2132 C 0.08741 0.55238 0.88002 0.0
H2133 H 0.09876 0.5109 0.79837 0.0
H2134 H 0.10017 0.52457 0.85392 0.0
H2135 H 0.08886 0.54891 0.8105 0.0
H2136 H 0.07111 0.56803 0.99664 0.0
H2137 H 0.07272 0.55746 0.93315 0.0
H2138 H 0.08717 0.53671 0.9696 0.0
C2139 C 0.09528 0.52339 0.82365 0.0
C2140 C 0.0884 0.54607 0.84501 0.0
C2141 C 0.09459 0.51562 0.79154 0.0
C2142 C 0.07734 0.56546 0.99819 0.0
C2143 C 0.07831 0.55948 0.96177 0.0
C2144 C 0.08759 0.53949 0.93499 0.0
C2145 C 0.08946 0.52925 0.81749 0.0
C2146 C 0.08891 0.53633 0.85455 0.0
C2147 C 0.08623 0.5559 0.96288 0.0
C2148 C 0.08704 0.54916 0.92538 0.0
H2149 H 0.07798 0.51871 0.71437 0.0
H2150 H 0.07892 0.53198 0.77073 0.0
H2151 H 0.08849 0.52554 0.90895 0.0
H2152 H 0.09798 0.56656 0.06526 0.0
H2153 H 0.09952 0.55603 0.00229 0.0
C2154 C 0.43885 0.52687 0.03131 0.0
C2155 C 0.43584 0.51552 0.03193 0.0
C2156 C 0.44498 0.53376 0.99529 0.0
C2157 C 0.45207 0.53392 0.87583 0.0
H2158 H 0.47812 0.56242 0.90533 0.0
C2159 C 0.48466 0.56229 0.74162 0.0
C2160 C 0.49063 0.57391 0.74897 0.0
C2161 C 0.47698 0.55509 0.77376 0.0
C2162 C 0.47075 0.55461 0.89628 0.0
H2163 H 0.4367 0.50244 0.99464 0.0
H2164 H 0.44735 0.51454 0.93106 0.0
H2165 H 0.46686 0.54992 0.9658 0.0
H2166 H 0.49253 0.58713 0.79406 0.0
H2167 H 0.4788 0.57466 0.84901 0.0
H2168 H 0.45583 0.53868 0.80626 0.0
C2169 C 0.44497 0.51806 0.95875 0.0
C2170 C 0.46434 0.5474 0.93108 0.0
C2171 C 0.43894 0.51116 0.99522 0.0
C2172 C 0.48817 0.57821 0.78761 0.0
C2173 C 0.48037 0.57103 0.81939 0.0
C2174 C 0.45841 0.54121 0.84088 0.0
C2175 C 0.44814 0.52946 0.95869 0.0
C2176 C 0.45494 0.53698 0.92129 0.0
C2177 C 0.47496 0.55934 0.81374 0.0
C2178 C 0.46786 0.55167 0.85063 0.0
H2179 H 0.4366 0.5305 0.059 0.0
H2180 H 0.44721 0.54248 0.99597 0.0
H2181 H 0.4448 0.52597 0.86733 0.0
H2182 H 0.4864 0.55868 0.71234 0.0
H2183 H 0.47308 0.54616 0.76819 0.0
C2184 C 0.47708 0.91336 0.03232 0.0
C2185 C 0.48863 0.92102 0.03202 0.0
C2186 C 0.47043 0.91247 0.99521 0.0
C2187 C 0.47001 0.92767 0.89209 0.0
H2188 H 0.44413 0.89895 0.86309 0.0
C2189 C 0.44154 0.9218 0.73933 0.0
C2190 C 0.43015 0.91708 0.75042 0.0
C2191 C 0.44903 0.92133 0.76994 0.0
C2192 C 0.45133 0.90702 0.87083 0.0
H2193 H 0.5023 0.93365 0.99221 0.0
H2194 H 0.49075 0.93187 0.92662 0.0
H2195 H 0.45682 0.9002 0.92316 0.0
H2196 H 0.41758 0.90756 0.80121 0.0
H2197 H 0.43063 0.90655 0.85415 0.0
H2198 H 0.46451 0.93442 0.83924 0.0
C2199 C 0.48676 0.92673 0.95605 0.0
C2200 C 0.45859 0.90777 0.90545 0.0
C2201 C 0.49341 0.92773 0.99356 0.0
C2202 C 0.4263 0.91129 0.79163 0.0
C2203 C 0.43377 0.91069 0.82193 0.0
C2204 C 0.46284 0.92688 0.85705 0.0
C2205 C 0.47516 0.91909 0.95641 0.0
C2206 C 0.46792 0.91815 0.91715 0.0
C2207 C 0.44526 0.91599 0.81194 0.0
C2208 C 0.45334 0.91658 0.84652 0.0
H2209 H 0.47311 0.90814 0.06158 0.0
H2210 H 0.46152 0.90669 0.9974 0.0
H2211 H 0.47698 0.93583 0.90041 0.0
H2212 H 0.44481 0.92633 0.70794 0.0
H2213 H 0.45782 0.92538 0.76119 0.0
C2214 C 0.18893 0.41786 0.19837 0.0
C2215 C 0.17971 0.41872 0.18337 0.0
C2216 C 0.19708 0.41874 0.16773 0.0
C2217 C 0.20774 0.41239 0.09177 0.0
H2218 H 0.21704 0.43236 0.98847 0.0
C2219 C 0.22904 0.4061 0.93447 0.0
C2220 C 0.23737 0.41567 0.91238 0.0
C2221 C 0.22288 0.4071 0.97004 0.0
C2222 C 0.21465 0.42681 0.01736 0.0
H2223 H 0.17219 0.42175 0.12454 0.0
H2224 H 0.18628 0.42321 0.07139 0.0
H2225 H 0.20534 0.43383 0.0466 0.0
H2226 H 0.24602 0.43381 0.91136 0.0
H2227 H 0.23546 0.43555 0.97368 0.0
H2228 H 0.21715 0.40545 0.06272 0.0
C2229 C 0.18729 0.42193 0.10684 0.0
C2230 C 0.20782 0.42757 0.05049 0.0
C2231 C 0.17916 0.42106 0.13741 0.0
C2232 C 0.23959 0.42626 0.92735 0.0
C2233 C 0.23348 0.42725 0.96297 0.0
C2234 C 0.21459 0.41164 0.05866 0.0
C2235 C 0.19621 0.42053 0.12139 0.0
C2236 C 0.20418 0.4203 0.08789 0.0
C2237 C 0.22495 0.41769 0.98446 0.0
C2238 C 0.21805 0.41877 0.0208 0.0
H2239 H 0.18966 0.4161 0.23353 0.0
H2240 H 0.20395 0.41783 0.18024 0.0
H2241 H 0.20499 0.40656 0.1198 0.0
H2242 H 0.2271 0.39782 0.92371 0.0
H2243 H 0.21629 0.39954 0.98542 0.0
C2244 C 0.58925 0.77353 0.19855 0.0
C2245 C 0.58476 0.76217 0.18753 0.0
C2246 C 0.58864 0.78091 0.16779 0.0
C2247 C 0.57439 0.78294 0.06619 0.0
H2248 H 0.60316 0.80873 0.0371 0.0
C2249 C 0.58091 0.80883 0.90466 0.0
C2250 C 0.58856 0.82038 0.90529 0.0
C2251 C 0.57992 0.80213 0.94175 0.0
C2252 C 0.59501 0.80172 0.04527 0.0
H2253 H 0.57545 0.74951 0.1368 0.0
H2254 H 0.5742 0.76238 0.08355 0.0
H2255 H 0.60175 0.79633 0.09851 0.0
H2256 H 0.60104 0.83401 0.94572 0.0
H2257 H 0.59908 0.82238 0.01119 0.0
H2258 H 0.56758 0.78833 0.01344 0.0
C2259 C 0.57828 0.76557 0.11583 0.0
C2260 C 0.59422 0.79459 0.08045 0.0
C2261 C 0.57902 0.75822 0.1463 0.0
C2262 C 0.59513 0.82511 0.94408 0.0
C2263 C 0.59404 0.81842 0.98154 0.0
C2264 C 0.57514 0.79015 0.03141 0.0
C2265 C 0.58338 0.77705 0.1257 0.0
C2266 C 0.58394 0.78505 0.09086 0.0
C2267 C 0.58645 0.80682 0.9808 0.0
C2268 C 0.58549 0.79955 0.01995 0.0
H2269 H 0.59373 0.77687 0.22997 0.0
H2270 H 0.59254 0.7897 0.17643 0.0
H2271 H 0.56635 0.77569 0.0738 0.0
H2272 H 0.57578 0.80491 0.87513 0.0
H2273 H 0.57417 0.79322 0.93932 0.0
C2274 C 0.19249 0.76554 0.92345 0.0
C2275 C 0.1837 0.76731 0.91031 0.0
C2276 C 0.19972 0.77179 0.9585 0.0
C2277 C 0.20261 0.78998 0.05622 0.0
H2278 H 0.23428 0.80059 0.04116 0.0
C2279 C 0.24704 0.82616 0.13517 0.0
C2280 C 0.24414 0.82519 0.18126 0.0
C2281 C 0.23996 0.81808 0.10404 0.0
C2282 C 0.22547 0.79773 0.04588 0.0
H2283 H 0.17553 0.77694 0.92419 0.0
H2284 H 0.18825 0.78798 0.98488 0.0
H2285 H 0.22113 0.78883 0.98309 0.0
H2286 H 0.23183 0.81456 0.23107 0.0
H2287 H 0.21962 0.80038 0.17689 0.0
H2288 H 0.207 0.79923 0.11815 0.0
C2289 C 0.18947 0.78164 0.96853 0.0
C2290 C 0.2179 0.79087 0.01278 0.0
C2291 C 0.1822 0.77535 0.93353 0.0
C2292 C 0.2343 0.81562 0.1958 0.0
C2293 C 0.22724 0.80753 0.16466 0.0
C2294 C 0.21019 0.79686 0.08927 0.0
C2295 C 0.19838 0.78 0.98124 0.0
C2296 C 0.20638 0.78698 0.01734 0.0
C2297 C 0.22983 0.80881 0.11821 0.0
C2298 C 0.22173 0.80089 0.08438 0.0
H2299 H 0.19384 0.75936 0.90651 0.0
H2300 H 0.20636 0.77016 0.96786 0.0
H2301 H 0.19379 0.78703 0.06116 0.0
H2302 H 0.25454 0.83341 0.12268 0.0
H2303 H 0.2422 0.8194 0.06855 0.0
C2304 C 0.19711 0.22824 0.4147 0.0
C2305 C 0.1987 0.23869 0.40107 0.0
C2306 C 0.20203 0.22308 0.39058 0.0
C2307 C 0.22594 0.22984 0.31585 0.0
H2308 H 0.2103 0.19803 0.29039 0.0
C2309 C 0.24464 0.20995 0.19846 0.0
C2310 C 0.24231 0.19897 0.20681 0.0
C2311 C 0.23952 0.21467 0.22395 0.0
C2312 C 0.21487 0.2069 0.29785 0.0
H2313 H 0.20653 0.25188 0.35134 0.0
H2314 H 0.21514 0.24286 0.30881 0.0
H2315 H 0.20055 0.20631 0.32918 0.0
H2316 H 0.23317 0.18449 0.24982 0.0
H2317 H 0.22441 0.19286 0.29563 0.0
H2318 H 0.2403 0.23047 0.28532 0.0
C2319 C 0.21011 0.23866 0.33827 0.0
C2320 C 0.20925 0.21165 0.3199 0.0
C2321 C 0.20509 0.24377 0.36223 0.0
C2322 C 0.2351 0.19297 0.24264 0.0
C2323 C 0.22999 0.19773 0.26845 0.0
C2324 C 0.23159 0.22508 0.29417 0.0
C2325 C 0.20876 0.22831 0.35251 0.0
C2326 C 0.21469 0.2232 0.32887 0.0
C2327 C 0.232 0.20861 0.25901 0.0
C2328 C 0.22612 0.21355 0.28446 0.0
H2329 H 0.19226 0.2242 0.44475 0.0
H2330 H 0.20088 0.21517 0.40272 0.0
H2331 H 0.23046 0.23873 0.32306 0.0
H2332 H 0.25029 0.21483 0.17147 0.0
H2333 H 0.24123 0.223 0.21516 0.0
C2334 C 0.8105 0.0354 0.19551 0.0
C2335 C 0.80708 0.04334 0.20158 0.0
C2336 C 0.80551 0.02541 0.22025 0.0
C2337 C 0.77941 0.00649 0.28167 0.0
H2338 H 0.79653 0.99335 0.32812 0.0
C2339 C 0.76016 0.96841 0.40211 0.0
C2340 C 0.76362 0.96045 0.39839 0.0
C2341 C 0.76533 0.97826 0.37663 0.0
C2342 C 0.79159 0.99681 0.31481 0.0
H2343 H 0.79583 0.04714 0.23828 0.0
H2344 H 0.78719 0.02978 0.28232 0.0
H2345 H 0.80611 0.0113 0.28889 0.0
H2346 H 0.77491 0.95632 0.36393 0.0
H2347 H 0.78388 0.97348 0.31843 0.0
H2348 H 0.76489 0.99201 0.30734 0.0
C2349 C 0.79369 0.03121 0.2582 0.0
C2350 C 0.7971 0.00714 0.29242 0.0
C2351 C 0.79872 0.04122 0.23349 0.0
C2352 C 0.7721 0.96234 0.36743 0.0
C2353 C 0.7773 0.97222 0.3418 0.0
C2354 C 0.7739 0.99616 0.30393 0.0
C2355 C 0.79691 0.0231 0.25147 0.0
C2356 C 0.79109 0.01214 0.27572 0.0
C2357 C 0.77407 0.98039 0.34647 0.0
C2358 C 0.77991 0.99119 0.32104 0.0
H2359 H 0.81688 0.03682 0.17075 0.0
H2360 H 0.80812 0.01934 0.21377 0.0
H2361 H 0.77448 0.00996 0.26847 0.0
H2362 H 0.75355 0.9671 0.42544 0.0
H2363 H 0.76266 0.98435 0.38157 0.0
C2364 C 0.96947 0.77637 0.19387 0.0
C2365 C 0.96124 0.76533 0.2039 0.0
C2366 C 0.97943 0.78169 0.21868 0.0
C2367 C 0.99286 0.77977 0.32514 0.0
H2368 H 0.0204 0.79759 0.25824 0.0
C2369 C 0.03583 0.79337 0.40458 0.0
C2370 C 0.0444 0.80447 0.39787 0.0
C2371 C 0.02585 0.78897 0.38012 0.0
C2372 C 0.01279 0.79275 0.27752 0.0
H2373 H 0.95679 0.75124 0.24809 0.0
H2374 H 0.9742 0.76045 0.29154 0.0
H2375 H 1.00248 0.78939 0.21888 0.0
H2376 H 0.04946 0.81952 0.35889 0.0
H2377 H 0.03198 0.81179 0.31549 0.0
H2378 H 0.00318 0.78301 0.38362 0.0
C2379 C 0.97295 0.76511 0.26494 0.0
C2380 C 1.00248 0.78805 0.25498 0.0
C2381 C 0.96297 0.75981 0.24013 0.0
C2382 C 0.04299 0.81093 0.36462 0.0
C2383 C 0.03298 0.8065 0.33989 0.0
C2384 C 0.00315 0.78443 0.34759 0.0
C2385 C 0.98141 0.77607 0.25406 0.0
C2386 C 0.99237 0.78144 0.27843 0.0
C2387 C 0.0242 0.79552 0.34803 0.0
C2388 C 0.01326 0.7909 0.32404 0.0
H2389 H 0.96829 0.78078 0.16602 0.0
H2390 H 0.98563 0.79018 0.20982 0.0
H2391 H 0.98527 0.77492 0.34454 0.0
H2392 H 0.03678 0.78812 0.42933 0.0
H2393 H 0.0194 0.7804 0.38648 0.0
C2394 C 0.79902 0.75851 0.73739 0.0
C2395 C 0.80687 0.76437 0.70326 0.0
C2396 C 0.79418 0.76368 0.76214 0.0
C2397 C 0.78844 0.78724 0.75539 0.0
H2398 H 0.78211 0.78141 0.88339 0.0
C2399 C 0.77179 0.81075 0.86637 0.0
C2400 C 0.76394 0.80451 0.90002 0.0
C2401 C 0.77706 0.80602 0.84139 0.0
C2402 C 0.78369 0.78304 0.84752 0.0
H2403 H 0.81597 0.78025 0.6686 0.0
H2404 H 0.80768 0.78938 0.71209 0.0
H2405 H 0.7915 0.773 0.84323 0.0
H2406 H 0.75498 0.78828 0.93225 0.0
H2407 H 0.76404 0.78 0.88872 0.0
H2408 H 0.7806 0.79726 0.75973 0.0
C2409 C 0.80512 0.78074 0.71951 0.0
C2410 C 0.7891 0.7782 0.82446 0.0
C2411 C 0.80994 0.77556 0.69485 0.0
C2412 C 0.76116 0.79335 0.90706 0.0
C2413 C 0.7664 0.78863 0.88223 0.0
C2414 C 0.78303 0.79208 0.77848 0.0
C2415 C 0.79706 0.77484 0.75317 0.0
C2416 C 0.79151 0.7802 0.77802 0.0
C2417 C 0.77456 0.79494 0.84953 0.0
C2418 C 0.78052 0.78999 0.82483 0.0
H2419 H 0.79634 0.7498 0.74388 0.0
H2420 H 0.78791 0.75881 0.78732 0.0
H2421 H 0.78999 0.78884 0.71949 0.0
H2422 H 0.77412 0.81939 0.8604 0.0
H2423 H 0.78334 0.81116 0.81667 0.0
C2424 C 0.2117 0.96792 0.90278 0.0
C2425 C 0.20028 0.95994 0.89941 0.0
C2426 C 0.21627 0.97788 0.87805 0.0
C2427 C 0.21195 0.99147 0.77867 0.0
H2428 H 0.23173 0.01886 0.843 0.0
C2429 C 0.22878 0.03479 0.69433 0.0
C2430 C 0.23991 0.04296 0.70314 0.0
C2431 C 0.22356 0.02484 0.71928 0.0
C2432 C 0.22635 0.01131 0.82425 0.0
H2433 H 0.18477 0.95588 0.8659 0.0
H2434 H 0.19279 0.97328 0.82179 0.0
H2435 H 0.22351 1.001 0.88254 0.0
H2436 H 0.25436 0.0472 0.74483 0.0
H2437 H 0.24538 0.02979 0.78825 0.0
H2438 H 0.21494 1.00172 0.72013 0.0
C2439 C 0.1982 0.97185 0.84393 0.0
C2440 C 0.22161 1.00104 0.84702 0.0
C2441 C 0.19361 0.96189 0.86907 0.0
C2442 C 0.2457 0.0411 0.73796 0.0
C2443 C 0.24052 0.03111 0.76277 0.0
C2444 C 0.21677 1.00174 0.75576 0.0
C2445 C 0.20955 0.98007 0.84884 0.0
C2446 C 0.21439 0.99099 0.8245 0.0
C2447 C 0.22941 0.02275 0.75341 0.0
C2448 C 0.22406 0.01182 0.77817 0.0
H2449 H 0.21709 0.96654 0.92526 0.0
H2450 H 0.22509 0.9839 0.88191 0.0
H2451 H 0.20653 0.98388 0.76019 0.0
H2452 H 0.22416 0.03604 0.66751 0.0
H2453 H 0.21495 0.01875 0.71156 0.0
C2454 C 0.96921 0.21048 0.69771 0.0
C2455 C 0.96128 0.19905 0.70127 0.0
C2456 C 0.9791 0.21515 0.72288 0.0
C2457 C 0.99792 0.20758 0.78326 0.0
H2458 H 0.011 0.23785 0.82931 0.0
C2459 C 0.03704 0.22792 0.90016 0.0
C2460 C 0.04476 0.23933 0.89388 0.0
C2461 C 0.027 0.22272 0.87575 0.0
C2462 C 0.00755 0.22944 0.81618 0.0
H2463 H 0.95728 0.1836 0.73508 0.0
H2464 H 0.97454 0.19179 0.78009 0.0
H2465 H 0.99288 0.2293 0.79186 0.0
H2466 H 0.04824 0.2542 0.85661 0.0
H2467 H 0.03078 0.24512 0.8132 0.0
H2468 H 0.01261 0.20774 0.80794 0.0
C2469 C 0.9732 0.19712 0.7571 0.0
C2470 C 0.99712 0.22451 0.79473 0.0
C2471 C 0.96326 0.19244 0.73177 0.0
C2472 C 0.04245 0.24537 0.86171 0.0
C2473 C 0.03239 0.24019 0.83735 0.0
C2474 C 0.00835 0.21251 0.80489 0.0
C2475 C 0.98132 0.20853 0.75259 0.0
C2476 C 0.99218 0.21354 0.77764 0.0
C2477 C 0.02444 0.22884 0.84464 0.0
C2478 C 0.01335 0.22354 0.82135 0.0
H2479 H 0.96785 0.2158 0.67474 0.0
H2480 H 0.98515 0.22392 0.71799 0.0
H2481 H 0.99447 0.19918 0.77 0.0
H2482 H 0.03862 0.22313 0.92509 0.0
H2483 H 0.02106 0.21401 0.88256 0.0
C2484 C 0.91058 0.54326 0.5319 0.0
C2485 C 0.90806 0.5322 0.53946 0.0
C2486 C 0.9054 0.54795 0.55727 0.0
C2487 C 0.88023 0.54018 0.62687 0.0
H2488 H 0.89652 0.57156 0.65994 0.0
C2489 C 0.8619 0.56106 0.74328 0.0
C2490 C 0.8646 0.57207 0.73321 0.0
C2491 C 0.86673 0.55585 0.71884 0.0
C2492 C 0.8918 0.56282 0.65046 0.0
H2493 H 0.89843 0.51746 0.58056 0.0
H2494 H 0.88945 0.5257 0.62588 0.0
H2495 H 0.90627 0.56321 0.62223 0.0
H2496 H 0.87419 0.5862 0.68906 0.0
H2497 H 0.88254 0.57708 0.64564 0.0
H2498 H 0.86576 0.53982 0.65542 0.0
C2499 C 0.8953 0.53071 0.59964 0.0
C2500 C 0.89741 0.55801 0.62889 0.0
C2501 C 0.90052 0.52601 0.57411 0.0
C2502 C 0.87191 0.57766 0.6972 0.0
C2503 C 0.87679 0.57248 0.6728 0.0
C2504 C 0.87462 0.545 0.64861 0.0
C2505 C 0.89758 0.54171 0.59117 0.0
C2506 C 0.89169 0.54664 0.61646 0.0
C2507 C 0.87443 0.56158 0.68387 0.0
C2508 C 0.88032 0.5564 0.66041 0.0
H2509 H 0.91645 0.54827 0.5057 0.0
H2510 H 0.9073 0.55638 0.54934 0.0
H2511 H 0.87551 0.53145 0.61726 0.0
H2512 H 0.85631 0.55661 0.77112 0.0
H2513 H 0.86478 0.54751 0.72857 0.0
C2514 C 0.42673 0.29491 0.69566 0.0
C2515 C 0.43243 0.29305 0.73085 0.0
C2516 C 0.43196 0.30492 0.67096 0.0
C2517 C 0.45524 0.33435 0.6799 0.0
H2518 H 0.44972 0.33521 0.55184 0.0
C2519 C 0.47863 0.37482 0.57054 0.0
C2520 C 0.4723 0.37647 0.53742 0.0
C2521 C 0.47398 0.36478 0.59515 0.0
C2522 C 0.45126 0.33515 0.58773 0.0
H2523 H 0.44811 0.29996 0.76704 0.0
H2524 H 0.45736 0.31734 0.72349 0.0
H2525 H 0.44143 0.31728 0.59089 0.0
H2526 H 0.45599 0.36923 0.5059 0.0
H2527 H 0.44787 0.3518 0.54865 0.0
H2528 H 0.4651 0.35224 0.67659 0.0
C2529 C 0.44879 0.31121 0.71533 0.0
C2530 C 0.4465 0.32484 0.61017 0.0
C2531 C 0.44355 0.30122 0.74001 0.0
C2532 C 0.46113 0.3681 0.53064 0.0
C2533 C 0.45649 0.35809 0.55502 0.0
C2534 C 0.46004 0.34467 0.65741 0.0
C2535 C 0.44302 0.3133 0.68095 0.0
C2536 C 0.44837 0.32428 0.65664 0.0
C2537 C 0.4629 0.35619 0.58706 0.0
C2538 C 0.45805 0.34521 0.61107 0.0
H2539 H 0.41809 0.2888 0.68843 0.0
H2540 H 0.42719 0.30626 0.64515 0.0
H2541 H 0.45674 0.3343 0.71584 0.0
H2542 H 0.48728 0.38114 0.57631 0.0
H2543 H 0.47917 0.3636 0.61943 0.0
C2544 C 0.62951 0.10462 0.5695 0.0
C2545 C 0.62792 0.09667 0.53636 0.0
C2546 C 0.63958 0.11011 0.59386 0.0
C2547 C 0.66928 0.11704 0.58564 0.0
H2548 H 0.67047 0.12437 0.71282 0.0
C2549 C 0.70942 0.13272 0.694 0.0
C2550 C 0.71154 0.14075 0.72748 0.0
C2551 C 0.69942 0.12796 0.66926 0.0
C2552 C 0.67031 0.12252 0.67712 0.0
H2553 H 0.63524 0.08769 0.50467 0.0
H2554 H 0.65266 0.09706 0.54734 0.0
H2555 H 0.65242 0.11454 0.67447 0.0
H2556 H 0.70517 0.15044 0.76031 0.0
H2557 H 0.68775 0.14226 0.71685 0.0
H2558 H 0.68715 0.12494 0.58832 0.0
C2559 C 0.64635 0.09936 0.55378 0.0
C2560 C 0.65994 0.11687 0.65513 0.0
C2561 C 0.63634 0.09394 0.5295 0.0
C2562 C 0.70369 0.14424 0.73466 0.0
C2563 C 0.69369 0.13947 0.71007 0.0
C2564 C 0.67964 0.12267 0.60762 0.0
C2565 C 0.64823 0.1077 0.58563 0.0
C2566 C 0.65927 0.11397 0.60914 0.0
C2567 C 0.69132 0.13112 0.6776 0.0
C2568 C 0.6803 0.12545 0.65372 0.0
H2569 H 0.62315 0.1069 0.57528 0.0
H2570 H 0.64073 0.1165 0.61799 0.0
H2571 H 0.66914 0.11518 0.54997 0.0
H2572 H 0.71528 0.12979 0.68828 0.0
H2573 H 0.69785 0.12148 0.64485 0.0
C2574 C 0.42688 0.13182 0.19766 0.0
C2575 C 0.433 0.14009 0.22999 0.0
C2576 C 0.43193 0.1268 0.17331 0.0
C2577 C 0.45956 0.12977 0.14289 0.0
H2578 H 0.44192 0.09767 0.12568 0.0
C2579 C 0.47883 0.1038 0.07205 0.0
C2580 C 0.47248 0.0959 0.03875 0.0
C2581 C 0.47415 0.10909 0.09726 0.0
C2582 C 0.44695 0.10665 0.12987 0.0
H2583 H 0.44923 0.14993 0.2612 0.0
H2584 H 0.45807 0.14116 0.21914 0.0
H2585 H 0.4336 0.10751 0.16294 0.0
H2586 H 0.45618 0.08692 0.00716 0.0
H2587 H 0.44804 0.09609 0.0507 0.0
H2588 H 0.47292 0.12886 0.10984 0.0
C2589 C 0.44942 0.13857 0.21206 0.0
C2590 C 0.44215 0.11231 0.15111 0.0
C2591 C 0.44436 0.14358 0.23629 0.0
C2592 C 0.46128 0.09305 0.03239 0.0
C2593 C 0.4566 0.09826 0.05761 0.0
C2594 C 0.46437 0.12409 0.1217 0.0
C2595 C 0.44321 0.12994 0.18085 0.0
C2596 C 0.44836 0.12396 0.15772 0.0
C2597 C 0.46301 0.10647 0.08993 0.0
C2598 C 0.45811 0.11246 0.11467 0.0
H2599 H 0.41808 0.12893 0.19245 0.0
H2600 H 0.42694 0.12033 0.14901 0.0
H2601 H 0.46457 0.13875 0.14693 0.0
H2602 H 0.48749 0.10615 0.07752 0.0
H2603 H 0.47928 0.11527 0.12229 0.0
C2604 C 0.90065 0.37574 0.07365 0.0
C2605 C 0.90847 0.37725 0.03997 0.0
C2606 C 0.89539 0.36579 0.09894 0.0
C2607 C 0.88809 0.33614 0.09162 0.0
H2608 H 0.88309 0.33551 0.22086 0.0
C2609 C 0.87255 0.29571 0.19749 0.0
C2610 C 0.86551 0.294 0.23451 0.0
C2611 C 0.87734 0.30579 0.17332 0.0
C2612 C 0.88425 0.33549 0.18463 0.0
H2613 H 0.91745 0.36992 0.00832 0.0
H2614 H 0.9083 0.35263 0.05204 0.0
H2615 H 0.89248 0.35341 0.18116 0.0
H2616 H 0.85769 0.3013 0.27476 0.0
H2617 H 0.86576 0.31879 0.232 0.0
H2618 H 0.8798 0.31828 0.09472 0.0
C2619 C 0.90601 0.35895 0.0584 0.0
C2620 C 0.88967 0.34579 0.16191 0.0
C2621 C 0.91129 0.36888 0.03345 0.0
C2622 C 0.86311 0.30243 0.24627 0.0
C2623 C 0.86783 0.31249 0.22201 0.0
C2624 C 0.88261 0.32586 0.11422 0.0
C2625 C 0.89784 0.35718 0.09088 0.0
C2626 C 0.89176 0.34625 0.11518 0.0
C2627 C 0.87515 0.31439 0.18555 0.0
C2628 C 0.88067 0.32537 0.16114 0.0
H2629 H 0.89832 0.38206 0.07926 0.0
H2630 H 0.88912 0.36469 0.12367 0.0
H2631 H 0.88937 0.33617 0.05544 0.0
H2632 H 0.87467 0.28939 0.18825 0.0
H2633 H 0.88304 0.30697 0.14595 0.0
C2634 C 0.63586 0.54324 0.03625 0.0
C2635 C 0.6277 0.53193 0.04158 0.0
C2636 C 0.64573 0.54796 0.06152 0.0
C2637 C 0.66428 0.54042 0.1229 0.0
H2638 H 0.67761 0.57076 0.16846 0.0
C2639 C 0.70388 0.5605 0.2367 0.0
C2640 C 0.71147 0.57198 0.23175 0.0
C2641 C 0.69378 0.55538 0.21276 0.0
C2642 C 0.67411 0.56234 0.15541 0.0
H2643 H 0.62328 0.51674 0.07841 0.0
H2644 H 0.6406 0.525 0.12319 0.0
H2645 H 0.65944 0.56227 0.13131 0.0
H2646 H 0.71464 0.58709 0.19711 0.0
H2647 H 0.69715 0.57814 0.15407 0.0
H2648 H 0.679 0.54052 0.14666 0.0
C2649 C 0.6394 0.5302 0.09902 0.0
C2650 C 0.66364 0.55744 0.13425 0.0
C2651 C 0.62944 0.52549 0.0738 0.0
C2652 C 0.70897 0.57819 0.20116 0.0
C2653 C 0.69887 0.57308 0.17708 0.0
C2654 C 0.67478 0.54533 0.14396 0.0
C2655 C 0.64772 0.54147 0.09278 0.0
C2656 C 0.6586 0.54644 0.1175 0.0
C2657 C 0.69103 0.56165 0.18322 0.0
C2658 C 0.67987 0.55639 0.16033 0.0
H2659 H 0.63468 0.54841 0.01176 0.0
H2660 H 0.65196 0.55662 0.05546 0.0
H2661 H 0.66074 0.532 0.10981 0.0
H2662 H 0.70562 0.55556 0.26033 0.0
H2663 H 0.68794 0.54661 0.21878 0.0
C2664 C 0.56721 0.85935 0.90375 0.0
C2665 C 0.57577 0.86605 0.87323 0.0
C2666 C 0.56179 0.8639 0.92885 0.0
C2667 C 0.55593 0.8873 0.92549 0.0
H2668 H 0.54811 0.88027 0.0519 0.0
C2669 C 0.53991 0.91127 0.03476 0.0
C2670 C 0.53192 0.90533 0.06833 0.0
C2671 C 0.5448 0.90613 0.0102 0.0
C2672 C 0.55007 0.8822 0.01641 0.0
H2673 H 0.58586 0.88284 0.84696 0.0
H2674 H 0.57645 0.89077 0.89046 0.0
H2675 H 0.55768 0.87196 0.01212 0.0
H2676 H 0.52255 0.88935 0.10196 0.0
H2677 H 0.53085 0.88024 0.05849 0.0
H2678 H 0.54828 0.89747 0.92948 0.0
C2679 C 0.57371 0.88197 0.89443 0.0
C2680 C 0.55559 0.87745 0.99364 0.0
C2681 C 0.57913 0.87744 0.86964 0.0
C2682 C 0.5287 0.89409 0.07618 0.0
C2683 C 0.53354 0.88892 0.05155 0.0
C2684 C 0.55036 0.89201 0.94814 0.0
C2685 C 0.56484 0.87523 0.92377 0.0
C2686 C 0.55868 0.88001 0.94798 0.0
C2687 C 0.54179 0.89491 0.01862 0.0
C2688 C 0.54741 0.88959 0.99403 0.0
H2689 H 0.56445 0.85053 0.90704 0.0
H2690 H 0.55498 0.85847 0.95106 0.0
H2691 H 0.55799 0.8893 0.89008 0.0
H2692 H 0.54265 0.92001 0.02861 0.0
H2693 H 0.55122 0.91108 0.98562 0.0
C2694 C 0.1102 0.63543 0.0779 0.0
C2695 C 0.09915 0.62714 0.0684 0.0
C2696 C 0.11538 0.64542 0.05314 0.0
C2697 C 0.11289 0.65879 0.94738 0.0
H2698 H 0.13165 0.68633 0.01273 0.0
C2699 C 0.12709 0.70196 0.86778 0.0
C2700 C 0.13835 0.71026 0.87315 0.0
C2701 C 0.12256 0.69199 0.89237 0.0
C2702 C 0.12653 0.67871 0.99388 0.0
H2703 H 0.08483 0.6227 0.02558 0.0
H2704 H 0.09377 0.64015 0.98236 0.0
H2705 H 0.12337 0.66848 0.05259 0.0
H2706 H 0.15359 0.71483 0.90992 0.0
H2707 H 0.14566 0.69739 0.95361 0.0
H2708 H 0.11592 0.66907 0.88884 0.0
C2709 C 0.09857 0.63891 0.00834 0.0
C2710 C 0.12179 0.66844 0.0167 0.0
C2711 C 0.09343 0.6289 0.03303 0.0
C2712 C 0.14488 0.70859 0.90521 0.0
C2713 C 0.14033 0.6986 0.93012 0.0
C2714 C 0.11757 0.66906 0.92466 0.0
C2715 C 0.10958 0.64739 0.01844 0.0
C2716 C 0.11487 0.65833 0.99381 0.0
C2717 C 0.12916 0.69008 0.92334 0.0
C2718 C 0.1244 0.67916 0.94764 0.0
H2719 H 0.11478 0.63425 0.1051 0.0
H2720 H 0.12391 0.65162 0.06143 0.0
H2721 H 0.10779 0.6512 0.92834 0.0
H2722 H 0.12179 0.70313 0.84399 0.0
H2723 H 0.11387 0.68575 0.88704 0.0
C2724 C 0.29555 0.43551 0.90439 0.0
C2725 C 0.29398 0.42761 0.871 0.0
C2726 C 0.30549 0.44075 0.92969 0.0
C2727 C 0.33033 0.43825 0.96152 0.0
H2728 H 0.34407 0.47002 0.98563 0.0
C2729 C 0.3753 0.46373 0.03273 0.0
C2730 C 0.37703 0.47143 0.06718 0.0
C2731 C 0.36527 0.45867 0.00811 0.0
C2732 C 0.34031 0.46113 0.97955 0.0
H2733 H 0.30131 0.41864 0.83931 0.0
H2734 H 0.31865 0.42786 0.88251 0.0
H2735 H 0.32614 0.46036 0.94636 0.0
H2736 H 0.36982 0.48007 0.10242 0.0
H2737 H 0.35231 0.47126 0.05961 0.0
H2738 H 0.34452 0.43902 0.99449 0.0
C2739 C 0.31226 0.43002 0.88959 0.0
C2740 C 0.32998 0.45556 0.95712 0.0
C2741 C 0.30236 0.4248 0.86444 0.0
C2742 C 0.36869 0.47419 0.07581 0.0
C2743 C 0.35869 0.46917 0.05116 0.0
C2744 C 0.34066 0.44381 0.98382 0.0
C2745 C 0.31404 0.43816 0.92228 0.0
C2746 C 0.32486 0.44404 0.94764 0.0
C2747 C 0.35676 0.46121 0.01739 0.0
C2748 C 0.34581 0.45534 0.99305 0.0
H2749 H 0.28923 0.43783 0.91013 0.0
H2750 H 0.30647 0.44685 0.955 0.0
H2751 H 0.32658 0.42935 0.95559 0.0
H2752 H 0.38155 0.46137 0.02579 0.0
H2753 H 0.36415 0.45269 0.98199 0.0
C2754 C 0.10967 0.47576 0.57168 0.0
C2755 C 0.09826 0.47216 0.56605 0.0
C2756 C 0.11473 0.4708 0.54707 0.0
C2757 C 0.10778 0.44455 0.48755 0.0
H2758 H 0.13779 0.4618 0.43879 0.0
C2759 C 0.12657 0.42505 0.36818 0.0
C2760 C 0.13806 0.42872 0.37094 0.0
C2761 C 0.12189 0.43026 0.39336 0.0
C2762 C 0.12947 0.45682 0.45275 0.0
H2763 H 0.08319 0.46066 0.53011 0.0
H2764 H 0.09202 0.45205 0.48642 0.0
H2765 H 0.12933 0.47134 0.47773 0.0
H2766 H 0.1536 0.44049 0.40338 0.0
H2767 H 0.14539 0.44952 0.44844 0.0
H2768 H 0.10791 0.43003 0.46296 0.0
C2769 C 0.09707 0.45866 0.5101 0.0
C2770 C 0.1246 0.46231 0.47497 0.0
C2771 C 0.09204 0.46367 0.53464 0.0
C2772 C 0.14472 0.4375 0.40064 0.0
C2773 C 0.14003 0.44274 0.42601 0.0
C2774 C 0.11266 0.43906 0.46551 0.0
C2775 C 0.10845 0.46205 0.51645 0.0
C2776 C 0.11366 0.45626 0.49246 0.0
C2777 C 0.12856 0.43927 0.42231 0.0
C2778 C 0.12355 0.44512 0.44755 0.0
H2779 H 0.11461 0.48225 0.59601 0.0
H2780 H 0.12346 0.47356 0.55321 0.0
H2781 H 0.09944 0.43958 0.50138 0.0
H2782 H 0.12122 0.41822 0.34586 0.0
H2783 H 0.11307 0.42741 0.38913 0.0
C2784 C 0.54445 0.63487 0.5726 0.0
C2785 C 0.53332 0.62645 0.56533 0.0
C2786 C 0.54922 0.64475 0.54731 0.0
C2787 C 0.54164 0.66236 0.4779 0.0
H2788 H 0.57293 0.67704 0.44348 0.0
C2789 C 0.56235 0.7012 0.3599 0.0
C2790 C 0.57336 0.70955 0.3696 0.0
C2791 C 0.55724 0.69117 0.38439 0.0
C2792 C 0.56422 0.67314 0.45332 0.0
H2793 H 0.51854 0.62159 0.52482 0.0
H2794 H 0.52692 0.63881 0.47967 0.0
H2795 H 0.56451 0.65906 0.48214 0.0
H2796 H 0.58765 0.7141 0.4128 0.0
H2797 H 0.5787 0.69665 0.45631 0.0
H2798 H 0.54137 0.67645 0.44877 0.0
C2799 C 0.53192 0.63787 0.50565 0.0
C2800 C 0.55937 0.66279 0.47547 0.0
C2801 C 0.52715 0.62795 0.5311 0.0
C2802 C 0.5791 0.70782 0.405 0.0
C2803 C 0.57401 0.69778 0.42946 0.0
C2804 C 0.5465 0.67271 0.45559 0.0
C2805 C 0.543 0.64646 0.51377 0.0
C2806 C 0.54802 0.65727 0.48833 0.0
C2807 C 0.56306 0.68925 0.41907 0.0
C2808 C 0.55787 0.67826 0.4432 0.0
H2809 H 0.54946 0.63387 0.59842 0.0
H2810 H 0.55771 0.65117 0.55497 0.0
H2811 H 0.53294 0.65848 0.48785 0.0
H2812 H 0.55777 0.70233 0.33256 0.0
H2813 H 0.54885 0.68478 0.37511 0.0
C2814 C 0.30161 0.8776 0.3742 0.0
C2815 C 0.29382 0.86611 0.37585 0.0
C2816 C 0.31144 0.88215 0.39969 0.0
C2817 C 0.33026 0.87415 0.45807 0.0
H2818 H 0.34344 0.90422 0.50651 0.0
C2819 C 0.36923 0.89383 0.5758 0.0
C2820 C 0.37718 0.90515 0.56888 0.0
C2821 C 0.35914 0.8888 0.55175 0.0
C2822 C 0.33994 0.89585 0.49276 0.0
H2823 H 0.28997 0.85039 0.40693 0.0
H2824 H 0.30706 0.85835 0.45277 0.0
H2825 H 0.32533 0.89591 0.46901 0.0
H2826 H 0.38097 0.92005 0.53112 0.0
H2827 H 0.36336 0.91126 0.48864 0.0
H2828 H 0.34487 0.8741 0.48247 0.0
C2829 C 0.3057 0.86384 0.43083 0.0
C2830 C 0.32953 0.89107 0.47122 0.0
C2831 C 0.29584 0.85929 0.40505 0.0
C2832 C 0.375 0.91128 0.53671 0.0
C2833 C 0.36487 0.90628 0.51284 0.0
C2834 C 0.34065 0.87892 0.47993 0.0
C2835 C 0.31372 0.87533 0.42799 0.0
C2836 C 0.32456 0.88018 0.4532 0.0
C2837 C 0.35674 0.89501 0.52051 0.0
C2838 C 0.34567 0.88987 0.49724 0.0
H2839 H 0.3002 0.88307 0.35227 0.0
H2840 H 0.31741 0.89098 0.39607 0.0
H2841 H 0.32682 0.86582 0.44406 0.0
H2842 H 0.37073 0.88896 0.60069 0.0
H2843 H 0.35305 0.88014 0.55878 0.0
C2844 C 0.21496 0.25186 0.72018 0.0
C2845 C 0.21062 0.24669 0.67845 0.0
C2846 C 0.21744 0.24633 0.7536 0.0
C2847 C 0.21358 0.21893 0.78966 0.0
H2848 H 0.24215 0.23773 0.84805 0.0
C2849 C 0.23766 0.20297 0.90154 0.0
C2850 C 0.24291 0.20944 0.9401 0.0
C2851 C 0.23224 0.20642 0.87092 0.0
C2852 C 0.23409 0.23239 0.83246 0.0
H2853 H 0.20543 0.23171 0.63863 0.0
H2854 H 0.20987 0.222 0.6971 0.0
H2855 H 0.23536 0.24579 0.79229 0.0
H2856 H 0.2461 0.22415 0.97833 0.0
H2857 H 0.23662 0.23009 0.92536 0.0
H2858 H 0.21251 0.20545 0.82984 0.0
C2859 C 0.21109 0.23023 0.70439 0.0
C2860 C 0.23018 0.23701 0.80056 0.0
C2861 C 0.20851 0.23576 0.67098 0.0
C2862 C 0.24224 0.21909 0.94857 0.0
C2863 C 0.23683 0.22249 0.91825 0.0
C2864 C 0.21753 0.21426 0.82169 0.0
C2865 C 0.21582 0.23557 0.74566 0.0
C2866 C 0.21983 0.23039 0.77916 0.0
C2867 C 0.23206 0.21639 0.87849 0.0
C2868 C 0.22777 0.22101 0.84374 0.0
H2869 H 0.21659 0.26027 0.72675 0.0
H2870 H 0.22086 0.25057 0.7854 0.0
H2871 H 0.20556 0.21362 0.7737 0.0
H2872 H 0.23821 0.1956 0.89387 0.0
H2873 H 0.22869 0.20161 0.84033 0.0
C2874 C 0.79697 0.03748 0.87739 0.0
C2875 C 0.80144 0.03751 0.91998 0.0
C2876 C 0.79537 0.02942 0.84534 0.0
C2877 C 0.78901 1.00065 0.83832 0.0
H2878 H 0.79289 0.00709 0.70973 0.0
C2879 C 0.76982 0.96578 0.7026 0.0
C2880 C 0.76379 0.96779 0.66923 0.0
C2881 C 0.77699 0.97437 0.73181 0.0
C2882 C 0.7918 0.00517 0.74554 0.0
H2883 H 0.80768 0.0291 0.96284 0.0
H2884 H 0.8049 0.01492 0.9065 0.0
H2885 H 0.80135 0.02244 0.76406 0.0
H2886 H 0.76053 0.98027 0.63992 0.0
H2887 H 0.77292 0.99519 0.69087 0.0
H2888 H 0.77901 0.98342 0.81977 0.0
C2889 C 0.80278 0.02126 0.89781 0.0
C2890 C 0.79665 0.01393 0.77658 0.0
C2891 C 0.80449 0.02944 0.92981 0.0
C2892 C 0.7651 0.97851 0.66531 0.0
C2893 C 0.7723 0.98708 0.69416 0.0
C2894 C 0.78415 0.99187 0.80723 0.0
C2895 C 0.79808 0.02111 0.85545 0.0
C2896 C 0.79495 0.01179 0.82322 0.0
C2897 C 0.77827 0.9851 0.72789 0.0
C2898 C 0.78514 0.99409 0.76054 0.0
H2899 H 0.7945 0.0436 0.86915 0.0
H2900 H 0.79155 0.02941 0.81332 0.0
H2901 H 0.78749 0.99876 0.87407 0.0
H2902 H 0.76877 0.95753 0.70698 0.0
H2903 H 0.78146 0.97261 0.75764 0.0
C2904 C 0.02573 0.79132 0.6529 0.0
C2905 C 0.03671 0.79527 0.66765 0.0
C2906 C 0.01731 0.78925 0.68403 0.0
C2907 C 0.0122 0.7926 0.80625 0.0
H2908 H 0.98385 0.76576 0.78223 0.0
C2909 C 0.98058 0.76375 0.94075 0.0
C2910 C 0.96933 0.76064 0.93412 0.0
C2911 C 0.98859 0.77009 0.90819 0.0
C2912 C 0.99167 0.77337 0.78903 0.0
H2913 H 0.04777 0.80046 0.72543 0.0
H2914 H 0.03299 0.79627 0.78055 0.0
H2915 H 0.99836 0.77288 0.72471 0.0
H2916 H 0.95753 0.76162 0.88876 0.0
H2917 H 0.97156 0.77245 0.83075 0.0
H2918 H 0.00559 0.79244 0.87219 0.0
C2919 C 0.03083 0.79512 0.745 0.0
C2920 C 1.0 0.77752 0.756 0.0
C2921 C 0.0393 0.79744 0.71362 0.0
C2922 C 0.9662 0.76406 0.89473 0.0
C2923 C 0.97418 0.77019 0.86165 0.0
C2924 C 0.00392 0.78828 0.83966 0.0
C2925 C 0.01967 0.7908 0.73069 0.0
C2926 C 0.01045 0.7871 0.76435 0.0
C2927 C 0.98541 0.77318 0.86805 0.0
C2928 C 0.99366 0.77856 0.83143 0.0
H2929 H 0.02365 0.78971 0.61731 0.0
H2930 H 0.00891 0.78623 0.6715 0.0
H2931 H 0.02003 0.80012 0.81364 0.0
H2932 H 0.98315 0.76118 0.97095 0.0
H2933 H 0.99719 0.77219 0.91353 0.0
C2934 C 0.79538 0.75697 0.37892 0.0
C2935 C 0.79962 0.76172 0.42137 0.0
C2936 C 0.79259 0.76266 0.34737 0.0
C2937 C 0.79443 0.78964 0.31871 0.0
H2938 H 0.76497 0.77012 0.2685 0.0
C2939 C 0.77326 0.80201 0.1772 0.0
C2940 C 0.76168 0.79769 0.18153 0.0
C2941 C 0.77897 0.7991 0.20849 0.0
C2942 C 0.77316 0.7757 0.28251 0.0
H2943 H 0.80452 0.7762 0.46409 0.0
H2944 H 0.79954 0.78617 0.40888 0.0
H2945 H 0.77357 0.76232 0.31666 0.0
H2946 H 0.74705 0.78735 0.22231 0.0
H2947 H 0.757 0.78238 0.2773 0.0
H2948 H 0.79381 0.80307 0.28474 0.0
C2949 C 0.79863 0.77817 0.3996 0.0
C2950 C 0.77818 0.77121 0.30955 0.0
C2951 C 0.80152 0.77249 0.43113 0.0
C2952 C 0.75598 0.79078 0.21838 0.0
C2953 C 0.76167 0.78791 0.24964 0.0
C2954 C 0.7894 0.79416 0.29133 0.0
C2955 C 0.79379 0.77313 0.35801 0.0
C2956 C 0.78885 0.7781 0.32795 0.0
C2957 C 0.77314 0.79175 0.24424 0.0
C2958 C 0.77867 0.78722 0.27332 0.0
H2959 H 0.7939 0.74869 0.37066 0.0
H2960 H 0.78908 0.75867 0.31523 0.0
H2961 H 0.80268 0.79513 0.33243 0.0
H2962 H 0.77777 0.80713 0.14835 0.0
H2963 H 0.78779 0.80208 0.20327 0.0
C2964 C 0.23136 0.02847 0.43487 0.0
C2965 C 0.24246 0.03652 0.42457 0.0
C2966 C 0.22497 0.01999 0.40393 0.0
C2967 C 0.21814 0.99889 0.34837 0.0
H2968 H 0.22019 0.00399 0.21877 0.0
C2969 C 0.21358 0.96607 0.2183 0.0
C2970 C 0.20807 0.96526 0.17746 0.0
C2971 C 0.21532 0.97433 0.24974 0.0
C2972 C 0.21936 0.00242 0.25487 0.0
H2973 H 0.25554 0.04222 0.37399 0.0
H2974 H 0.24441 0.02744 0.31995 0.0
H2975 H 0.22761 0.0199 0.27039 0.0
H2976 H 0.20032 0.97253 0.13651 0.0
H2977 H 0.20324 0.98695 0.19182 0.0
H2978 H 0.21019 0.98142 0.33281 0.0
C2979 C 0.24058 0.02773 0.35153 0.0
C2980 C 0.22369 0.01152 0.28436 0.0
C2981 C 0.24697 0.03613 0.38255 0.0
C2982 C 0.20429 0.9728 0.16845 0.0
C2983 C 0.20608 0.98111 0.19979 0.0
C2984 C 0.21385 0.98978 0.31886 0.0
C2985 C 0.22958 0.01947 0.36219 0.0
C2986 C 0.2234 0.00986 0.33134 0.0
C2987 C 0.21172 0.98202 0.24055 0.0
C2988 C 0.21469 0.99147 0.27182 0.0
H2989 H 0.22778 0.02839 0.46753 0.0
H2990 H 0.21652 0.0137 0.41301 0.0
H2991 H 0.21786 0.99735 0.38442 0.0
H2992 H 0.21669 0.96042 0.22559 0.0
H2993 H 0.21988 0.97495 0.28046 0.0
C2994 C 0.97967 0.21621 0.43486 0.0
C2995 C 0.96821 0.20901 0.42749 0.0
C2996 C 0.9874 0.21785 0.40104 0.0
C2997 C 0.99044 0.22029 0.28226 0.0
H2998 H 0.01687 0.21754 0.29801 0.0
C2999 C 0.0243 0.2367 0.14545 0.0
C3000 C 0.0354 0.24214 0.16043 0.0
C3001 C 0.01561 0.23022 0.17533 0.0
C3002 C 0.0096 0.21847 0.29316 0.0
H3003 H 0.95573 0.19786 0.37962 0.0
H3004 H 0.9693 0.20108 0.31944 0.0
H3005 H 1.00253 0.21072 0.35699 0.0
H3006 H 0.04636 0.24504 0.21726 0.0
H3007 H 0.0312 0.23431 0.27061 0.0
H3008 H 0.99769 0.22878 0.22055 0.0
C3009 C 0.97228 0.20521 0.35179 0.0
C3010 C 1.00136 0.21446 0.32675 0.0
C3011 C 0.96456 0.20336 0.38606 0.0
C3012 C 0.0378 0.24083 0.20525 0.0
C3013 C 0.0291 0.23459 0.23556 0.0
C3014 C 0.99876 0.22452 0.24919 0.0
C3015 C 0.98374 0.21252 0.35902 0.0
C3016 C 0.9918 0.21547 0.32169 0.0
C3017 C 0.01786 0.22936 0.22119 0.0
C3018 C 0.00854 0.22382 0.25443 0.0
H3019 H 0.98264 0.22063 0.46666 0.0
H3020 H 0.9962 0.22363 0.40704 0.0
H3021 H 0.98318 0.22128 0.27805 0.0
H3022 H 0.02235 0.23755 0.11067 0.0
H3023 H 0.00713 0.22607 0.16256 0.0
C3024 C 0.9077 0.53767 0.22128 0.0
C3025 C 0.90677 0.53918 0.26753 0.0
C3026 C 0.90148 0.53991 0.19008 0.0
C3027 C 0.88744 0.55671 0.18128 0.0
H3028 H 0.87972 0.54325 0.06199 0.0
C3029 C 0.86897 0.57194 0.04155 0.0
C3030 C 0.87596 0.57568 0.00337 0.0
C3031 C 0.87037 0.56541 0.0742 0.0
C3032 C 0.88175 0.54699 0.09537 0.0
H3033 H 0.89834 0.54351 0.31848 0.0
H3034 H 0.887 0.54691 0.26436 0.0
H3035 H 0.88599 0.53504 0.12012 0.0
H3036 H 0.88957 0.57536 0.96824 0.0
H3037 H 0.89184 0.56372 0.02488 0.0
H3038 H 0.88317 0.56865 0.15624 0.0
C3039 C 0.89278 0.54441 0.25164 0.0
C3040 C 0.88542 0.54237 0.12856 0.0
C3041 C 0.89917 0.54238 0.28268 0.0
C3042 C 0.8841 0.57255 0.9975 0.0
C3043 C 0.88534 0.56584 0.0296 0.0
C3044 C 0.88356 0.56118 0.14839 0.0
C3045 C 0.89411 0.54355 0.20483 0.0
C3046 C 0.88864 0.54737 0.17156 0.0
C3047 C 0.87861 0.56238 0.06854 0.0
C3048 C 0.88098 0.55655 0.10487 0.0
H3049 H 0.91361 0.53524 0.20921 0.0
H3050 H 0.90289 0.53931 0.15441 0.0
H3051 H 0.89002 0.56095 0.21356 0.0
H3052 H 0.86273 0.57439 0.04695 0.0
H3053 H 0.86515 0.56288 0.10417 0.0
C3054 C 0.45939 0.37325 0.21424 0.0
C3055 C 0.465 0.37278 0.2529 0.0
C3056 C 0.45666 0.36543 0.17977 0.0
C3057 C 0.46119 0.34299 0.13445 0.0
H3058 H 0.43066 0.33117 0.09306 0.0
C3059 C 0.43567 0.3021 0.0289 0.0
C3060 C 0.42888 0.30261 0.99468 0.0
C3061 C 0.4416 0.31121 0.05796 0.0
C3062 C 0.43925 0.33447 0.1038 0.0
H3063 H 0.47234 0.364 0.28614 0.0
H3064 H 0.46739 0.35011 0.22586 0.0
H3065 H 0.43841 0.34625 0.14781 0.0
H3066 H 0.42342 0.31315 0.96227 0.0
H3067 H 0.4338 0.32901 0.01246 0.0
H3068 H 0.46183 0.33091 0.09053 0.0
C3069 C 0.46536 0.35669 0.22166 0.0
C3070 C 0.4437 0.34313 0.13512 0.0
C3071 C 0.4682 0.36462 0.25606 0.0
C3072 C 0.42849 0.31249 0.98875 0.0
C3073 C 0.43442 0.32155 0.01748 0.0
C3074 C 0.45669 0.33423 0.10298 0.0
C3075 C 0.45927 0.35684 0.18377 0.0
C3076 C 0.45475 0.34759 0.15045 0.0
C3077 C 0.44078 0.3209 0.05315 0.0
C3078 C 0.4457 0.32999 0.08704 0.0
H3079 H 0.45688 0.37951 0.2112 0.0
H3080 H 0.45217 0.3659 0.15055 0.0
H3081 H 0.46973 0.34626 0.14573 0.0
H3082 H 0.43597 0.29451 0.03465 0.0
H3083 H 0.44639 0.31047 0.08543 0.0
C3084 C 0.70436 0.13374 0.04004 0.0
C3085 C 0.70195 0.13023 0.99501 0.0
C3086 C 0.69569 0.13168 0.06995 0.0
C3087 C 0.66516 0.1125 0.08202 0.0
H3088 H 0.66954 0.12979 0.19127 0.0
C3089 C 0.63134 0.09917 0.22031 0.0
C3090 C 0.63511 0.0971 0.26129 0.0
C3091 C 0.63897 0.1052 0.18602 0.0
C3092 C 0.6682 0.12497 0.16061 0.0
H3093 H 0.68898 0.12258 0.9444 0.0
H3094 H 0.67385 0.11953 0.9957 0.0
H3095 H 0.68387 0.13713 0.13228 0.0
H3096 H 0.64966 0.09995 0.2997 0.0
H3097 H 0.66306 0.11076 0.24005 0.0
H3098 H 0.64945 0.10039 0.11059 0.0
C3099 C 0.68229 0.12341 0.00887 0.0
C3100 C 0.67642 0.1291 0.127 0.0
C3101 C 0.69092 0.12522 0.97935 0.0
C3102 C 0.6466 0.10147 0.26826 0.0
C3103 C 0.65424 0.1077 0.23442 0.0
C3104 C 0.65686 0.10852 0.11515 0.0
C3105 C 0.6845 0.12627 0.05495 0.0
C3106 C 0.67516 0.12275 0.08783 0.0
C3107 C 0.65047 0.10942 0.19276 0.0
C3108 C 0.65845 0.11457 0.15516 0.0
H3109 H 0.71287 0.13759 0.05254 0.0
H3110 H 0.69776 0.13386 0.10519 0.0
H3111 H 0.66392 0.10723 0.05296 0.0
H3112 H 0.62248 0.09575 0.21417 0.0
H3113 H 0.63591 0.10639 0.15395 0.0
C3114 C 0.43623 0.12388 0.4974 0.0
C3115 C 0.43268 0.13169 0.50368 0.0
C3116 C 0.4427 0.12253 0.53029 0.0
C3117 C 0.4452 0.12251 0.6493 0.0
H3118 H 0.47226 0.12125 0.62736 0.0
C3119 C 0.46155 0.10464 0.78452 0.0
C3120 C 0.46554 0.0977 0.76884 0.0
C3121 C 0.45996 0.1115 0.75442 0.0
C3122 C 0.46466 0.12147 0.63401 0.0
H3123 H 0.43306 0.14429 0.54853 0.0
H3124 H 0.44412 0.14164 0.60721 0.0
H3125 H 0.46503 0.1284 0.56858 0.0
H3126 H 0.47128 0.09253 0.7106 0.0
H3127 H 0.46789 0.10398 0.65712 0.0
H3128 H 0.44415 0.11479 0.71285 0.0
C3129 C 0.44212 0.13678 0.57632 0.0
C3130 C 0.46061 0.12567 0.60051 0.0
C3131 C 0.43585 0.13831 0.54288 0.0
C3132 C 0.46821 0.09788 0.72309 0.0
C3133 C 0.46637 0.10454 0.69269 0.0
C3134 C 0.44909 0.11809 0.68238 0.0
C3135 C 0.44548 0.1288 0.5704 0.0
C3136 C 0.45075 0.12603 0.60769 0.0
C3137 C 0.46202 0.11129 0.70785 0.0
C3138 C 0.45875 0.1173 0.67485 0.0
H3139 H 0.43385 0.11869 0.46735 0.0
H3140 H 0.44509 0.11622 0.52535 0.0
H3141 H 0.43748 0.12257 0.65525 0.0
H3142 H 0.45957 0.10465 0.82 0.0
H3143 H 0.45689 0.11679 0.76762 0.0
C3144 C 0.90434 0.36887 0.73524 0.0
C3145 C 0.90974 0.36765 0.77328 0.0
C3146 C 0.89868 0.35996 0.70501 0.0
C3147 C 0.89988 0.33548 0.66637 0.0
H3148 H 0.87115 0.32604 0.60993 0.0
C3149 C 0.87983 0.29664 0.55624 0.0
C3150 C 0.87562 0.29755 0.51433 0.0
C3151 C 0.88235 0.30467 0.58962 0.0
C3152 C 0.87921 0.32866 0.62527 0.0
H3153 H 0.91298 0.3561 0.81101 0.0
H3154 H 0.90306 0.3406 0.75878 0.0
H3155 H 0.87863 0.34134 0.66536 0.0
H3156 H 0.87059 0.30743 0.47426 0.0
H3157 H 0.87512 0.32163 0.53271 0.0
H3158 H 0.90067 0.32305 0.62633 0.0
C3159 C 0.90334 0.34844 0.75172 0.0
C3160 C 0.88348 0.33739 0.65688 0.0
C3161 C 0.909 0.3573 0.78162 0.0
C3162 C 0.87359 0.30642 0.50675 0.0
C3163 C 0.87622 0.31455 0.54013 0.0
C3164 C 0.89566 0.32683 0.63495 0.0
C3165 C 0.8984 0.34976 0.71246 0.0
C3166 C 0.89379 0.34077 0.67809 0.0
C3167 C 0.88092 0.3139 0.58142 0.0
C3168 C 0.88523 0.32322 0.61444 0.0
H3169 H 0.90493 0.37682 0.72768 0.0
H3170 H 0.895 0.36122 0.67481 0.0
H3171 H 0.908 0.3381 0.68124 0.0
H3172 H 0.8814 0.28982 0.56286 0.0
H3173 H 0.88573 0.30381 0.62146 0.0
C3174 C 0.63412 0.53631 0.7255 0.0
C3175 C 0.63664 0.53902 0.77121 0.0
C3176 C 0.64261 0.53816 0.695 0.0
C3177 C 0.67343 0.55552 0.68429 0.0
H3178 H 0.66783 0.53951 0.57072 0.0
C3179 C 0.70693 0.56873 0.5449 0.0
C3180 C 0.70348 0.57181 0.50547 0.0
C3181 C 0.69913 0.56249 0.57839 0.0
C3182 C 0.66951 0.54395 0.60258 0.0
H3183 H 0.64959 0.54506 0.82217 0.0
H3184 H 0.66438 0.54774 0.76963 0.0
H3185 H 0.65346 0.5323 0.62956 0.0
H3186 H 0.68929 0.5705 0.46881 0.0
H3187 H 0.67559 0.55932 0.52693 0.0
H3188 H 0.6895 0.56713 0.65704 0.0
C3189 C 0.65602 0.54464 0.75654 0.0
C3190 C 0.66127 0.53991 0.63611 0.0
C3191 C 0.64757 0.54304 0.78673 0.0
C3192 C 0.69211 0.56819 0.49904 0.0
C3193 C 0.68429 0.56175 0.532 0.0
C3194 C 0.68173 0.5594 0.65117 0.0
C3195 C 0.65373 0.54256 0.71 0.0
C3196 C 0.66299 0.54584 0.67689 0.0
C3197 C 0.68778 0.55906 0.57233 0.0
C3198 C 0.67972 0.55382 0.60964 0.0
H3199 H 0.62569 0.53322 0.71311 0.0
H3200 H 0.64051 0.53661 0.65946 0.0
H3201 H 0.67505 0.56047 0.71469 0.0
H3202 H 0.7157 0.57156 0.55067 0.0
H3203 H 0.70198 0.56055 0.60945 0.0
C3204 C 0.57805 0.88709 0.61461 0.0
C3205 C 0.57888 0.8775 0.60698 0.0
C3206 C 0.57195 0.88989 0.58526 0.0
C3207 C 0.55093 0.87966 0.49411 0.0
H3208 H 0.56655 0.91102 0.46047 0.0
C3209 C 0.53874 0.89898 0.34425 0.0
C3210 C 0.54036 0.90974 0.35142 0.0
C3211 C 0.54177 0.89382 0.37774 0.0
C3212 C 0.56198 0.90227 0.46998 0.0
H3213 H 0.57388 0.86321 0.563 0.0
H3214 H 0.5632 0.86817 0.51106 0.0
H3215 H 0.57504 0.90423 0.51415 0.0
H3216 H 0.54573 0.92332 0.39938 0.0
H3217 H 0.55076 0.91426 0.4582 0.0
H3218 H 0.53789 0.87778 0.44906 0.0
C3219 C 0.56713 0.8734 0.54034 0.0
C3220 C 0.56686 0.89837 0.50072 0.0
C3221 C 0.57322 0.87056 0.57004 0.0
C3222 C 0.54446 0.91503 0.39316 0.0
C3223 C 0.54739 0.90987 0.42663 0.0
C3224 C 0.546 0.88358 0.46311 0.0
C3225 C 0.56665 0.88323 0.54722 0.0
C3226 C 0.56136 0.88707 0.51355 0.0
C3227 C 0.54647 0.8994 0.41867 0.0
C3228 C 0.55145 0.89497 0.45121 0.0
H3229 H 0.58222 0.89252 0.64317 0.0
H3230 H 0.57154 0.89739 0.59194 0.0
H3231 H 0.5465 0.8709 0.50347 0.0
H3232 H 0.53582 0.89487 0.31188 0.0
H3233 H 0.54106 0.8858 0.37057 0.0
C3234 C 0.13277 0.69802 0.59814 0.0
C3235 C 0.12856 0.70537 0.5943 0.0
C3236 C 0.12977 0.68944 0.56652 0.0
C3237 C 0.10663 0.67235 0.4899 0.0
H3238 H 0.12627 0.66228 0.44182 0.0
C3239 C 0.08848 0.63178 0.39034 0.0
C3240 C 0.09372 0.63227 0.3491 0.0
C3241 C 0.09384 0.64022 0.42237 0.0
C3242 C 0.12071 0.66503 0.45494 0.0
H3243 H 0.11825 0.70985 0.55431 0.0
H3244 H 0.11316 0.69503 0.49861 0.0
H3245 H 0.13393 0.67881 0.49086 0.0
H3246 H 0.10871 0.6418 0.30899 0.0
H3247 H 0.1181 0.65669 0.36495 0.0
H3248 H 0.09347 0.65884 0.45363 0.0
C3249 C 0.11865 0.69576 0.52617 0.0
C3250 C 0.12508 0.67443 0.48317 0.0
C3251 C 0.1216 0.70426 0.55782 0.0
C3252 C 0.10461 0.6411 0.34102 0.0
C3253 C 0.10996 0.64964 0.37299 0.0
C3254 C 0.10229 0.66301 0.4619 0.0
C3255 C 0.12246 0.68808 0.53084 0.0
C3256 C 0.11807 0.67821 0.50068 0.0
C3257 C 0.10447 0.64943 0.41341 0.0
C3258 C 0.10926 0.65922 0.44415 0.0
H3259 H 0.13791 0.69853 0.62676 0.0
H3260 H 0.13272 0.68357 0.57129 0.0
H3261 H 0.10098 0.67493 0.50345 0.0
H3262 H 0.0801 0.625 0.39734 0.0
H3263 H 0.08949 0.63971 0.4536 0.0
C3264 C 0.37276 0.45894 0.39122 0.0
C3265 C 0.37234 0.46354 0.3495 0.0
C3266 C 0.36422 0.4559 0.42279 0.0
C3267 C 0.33918 0.45773 0.45344 0.0
H3268 H 0.32916 0.42799 0.5009 0.0
C3269 C 0.30582 0.43621 0.59529 0.0
C3270 C 0.2985 0.42466 0.59057 0.0
C3271 C 0.31443 0.44195 0.56393 0.0
C3272 C 0.33178 0.43626 0.48764 0.0
H3273 H 0.36287 0.46885 0.30821 0.0
H3274 H 0.34782 0.46344 0.36344 0.0
H3275 H 0.34548 0.43675 0.45228 0.0
H3276 H 0.29409 0.4101 0.54916 0.0
H3277 H 0.30898 0.42012 0.49401 0.0
H3278 H 0.32523 0.45704 0.48861 0.0
C3279 C 0.35488 0.46241 0.37213 0.0
C3280 C 0.34125 0.44136 0.46033 0.0
C3281 C 0.36351 0.46555 0.34058 0.0
C3282 C 0.29965 0.41902 0.55338 0.0
C3283 C 0.30819 0.42474 0.52203 0.0
C3284 C 0.32967 0.4526 0.48106 0.0
C3285 C 0.35499 0.45723 0.41292 0.0
C3286 C 0.34508 0.45215 0.44297 0.0
C3287 C 0.31586 0.43619 0.52768 0.0
C3288 C 0.32585 0.44178 0.49815 0.0
H3289 H 0.37954 0.45738 0.39889 0.0
H3290 H 0.36465 0.45213 0.45433 0.0
H3291 H 0.34196 0.46606 0.44055 0.0
H3292 H 0.30528 0.44067 0.62444 0.0
H3293 H 0.3203 0.45075 0.56941 0.0
C3294 C 0.13228 0.43533 0.09713 0.0
C3295 C 0.129 0.42402 0.09075 0.0
C3296 C 0.1295 0.44098 0.06502 0.0
C3297 C 0.10785 0.43468 0.98053 0.0
H3298 H 0.12648 0.46564 0.94407 0.0
C3299 C 0.08884 0.45701 0.88613 0.0
C3300 C 0.09445 0.4628 0.84691 0.0
C3301 C 0.09415 0.4537 0.91743 0.0
C3302 C 0.12122 0.45698 0.9539 0.0
H3303 H 0.12063 0.40981 0.04584 0.0
H3304 H 0.11594 0.41969 0.98929 0.0
H3305 H 0.13427 0.45683 0.99283 0.0
H3306 H 0.11002 0.46983 0.80951 0.0
H3307 H 0.11939 0.464 0.86447 0.0
H3308 H 0.09486 0.43468 0.94154 0.0
C3309 C 0.12053 0.42418 0.01916 0.0
C3310 C 0.12564 0.45197 0.98194 0.0
C3311 C 0.12325 0.41854 0.05131 0.0
C3312 C 0.10563 0.46562 0.84016 0.0
C3313 C 0.11096 0.46224 0.87147 0.0
C3314 C 0.10345 0.43967 0.95279 0.0
C3315 C 0.12335 0.43537 0.02626 0.0
C3316 C 0.11899 0.44075 0.99545 0.0
C3317 C 0.10514 0.45596 0.90972 0.0
C3318 C 0.11004 0.45088 0.93939 0.0
H3319 H 0.13644 0.43962 0.12799 0.0
H3320 H 0.13165 0.44954 0.0717 0.0
H3321 H 0.10245 0.42608 0.99091 0.0
H3322 H 0.08021 0.45476 0.89192 0.0
H3323 H 0.08953 0.44905 0.94701 0.0
C3324 C 0.5815 0.70544 0.04585 0.0
C3325 C 0.57672 0.70498 0.08822 0.0
C3326 C 0.57582 0.69693 0.01438 0.0
C3327 C 0.5488 0.67189 0.98564 0.0
H3328 H 0.56824 0.66188 0.93497 0.0
C3329 C 0.53628 0.63853 0.84333 0.0
C3330 C 0.54061 0.63127 0.84713 0.0
C3331 C 0.53923 0.6471 0.87492 0.0
C3332 C 0.56267 0.6645 0.94913 0.0
H3333 H 0.56221 0.69545 0.13087 0.0
H3334 H 0.55226 0.68046 0.07581 0.0
H3335 H 0.57608 0.67822 0.98347 0.0
H3336 H 0.55097 0.62688 0.8873 0.0
H3337 H 0.55597 0.6417 0.94287 0.0
H3338 H 0.53534 0.65792 0.95148 0.0
C3339 C 0.56028 0.68753 0.06653 0.0
C3340 C 0.56719 0.67398 0.97636 0.0
C3341 C 0.56595 0.69613 0.09798 0.0
C3342 C 0.54754 0.6324 0.88378 0.0
C3343 C 0.55043 0.64089 0.91536 0.0
C3344 C 0.54425 0.66237 0.95809 0.0
C3345 C 0.56534 0.68769 0.025 0.0
C3346 C 0.56033 0.6778 0.9949 0.0
C3347 C 0.5466 0.64855 0.91048 0.0
C3348 C 0.55116 0.65855 0.93988 0.0
H3349 H 0.58978 0.71223 0.03756 0.0
H3350 H 0.57983 0.69739 0.98229 0.0
H3351 H 0.54333 0.67467 0.99946 0.0
H3352 H 0.53115 0.63797 0.81465 0.0
H3353 H 0.53625 0.65295 0.87009 0.0
C3354 C 0.31327 0.88856 0.116 0.0
C3355 C 0.30296 0.87881 0.10892 0.0
C3356 C 0.32218 0.89139 0.08663 0.0
C3357 C 0.33317 0.88087 0.99713 0.0
H3358 H 0.34881 0.91207 0.96106 0.0
C3359 C 0.36437 0.89936 0.84611 0.0
C3360 C 0.37351 0.91017 0.85221 0.0
C3361 C 0.35627 0.89442 0.88004 0.0
C3362 C 0.34466 0.90337 0.97128 0.0
H3363 H 0.29382 0.86436 0.06557 0.0
H3364 H 0.30947 0.86935 0.01375 0.0
H3365 H 0.33354 0.9055 0.01486 0.0
H3366 H 0.3818 0.92407 0.89865 0.0
H3367 H 0.36785 0.91538 0.95831 0.0
H3368 H 0.34432 0.87881 0.95266 0.0
C3369 C 0.3107 0.87467 0.04266 0.0
C3370 C 0.33589 0.8996 0.00209 0.0
C3371 C 0.30176 0.87181 0.07232 0.0
C3372 C 0.37478 0.91573 0.89332 0.0
C3373 C 0.36677 0.91078 0.92724 0.0
C3374 C 0.342 0.88467 0.96608 0.0
C3375 C 0.32094 0.88461 0.04914 0.0
C3376 C 0.33011 0.88835 0.0157 0.0
C3377 C 0.35723 0.90025 0.92035 0.0
C3378 C 0.34789 0.89599 0.95324 0.0
H3379 H 0.31445 0.89405 0.14423 0.0
H3380 H 0.33003 0.89899 0.09297 0.0
H3381 H 0.32886 0.87216 0.00714 0.0
H3382 H 0.36312 0.89505 0.81417 0.0
H3383 H 0.34895 0.88634 0.87366 0.0
C3384 C 0.30248 0.19959 0.07561 0.0
C3385 C 0.29382 0.20119 0.05909 0.0
C3386 C 0.31285 0.20442 0.05326 0.0
C3387 C 0.32535 0.21502 0.94065 0.0
H3388 H 0.35356 0.2306 0.0047 0.0
C3389 C 0.36921 0.23301 0.85431 0.0
C3390 C 0.37736 0.24371 0.86913 0.0
C3391 C 0.35875 0.22731 0.87596 0.0
C3392 C 0.34574 0.22627 0.98633 0.0
H3393 H 0.28954 0.20961 0.00731 0.0
H3394 H 0.30745 0.21793 0.96899 0.0
H3395 H 0.33605 0.22168 0.04741 0.0
H3396 H 0.38062 0.25705 0.91648 0.0
H3397 H 0.36255 0.24719 0.95356 0.0
H3398 H 0.33504 0.21977 0.87953 0.0
C3399 C 0.3062 0.21279 0.99856 0.0
C3400 C 0.33572 0.22108 0.01084 0.0
C3401 C 0.29594 0.20807 0.02088 0.0
C3402 C 0.37462 0.24877 0.90439 0.0
C3403 C 0.36427 0.24309 0.92602 0.0
C3404 C 0.33537 0.22012 0.91614 0.0
C3405 C 0.31471 0.21087 0.01386 0.0
C3406 C 0.3254 0.21558 0.98825 0.0
C3407 C 0.35632 0.23219 0.91291 0.0
C3408 C 0.34567 0.22599 0.93868 0.0
H3409 H 0.30114 0.19432 0.10481 0.0
H3410 H 0.31928 0.20282 0.06593 0.0
H3411 H 0.31752 0.21071 0.92229 0.0
H3412 H 0.37106 0.22885 0.82742 0.0
H3413 H 0.35275 0.21892 0.865 0.0
C3414 C 0.8035 0.10199 0.07189 0.0
C3415 C 0.80136 0.09129 0.05903 0.0
C3416 C 0.79802 0.10696 0.05008 0.0
C3417 C 0.77361 0.10026 0.97577 0.0
H3418 H 0.7908 0.13156 0.94228 0.0
C3419 C 0.75295 0.12387 0.89993 0.0
C3420 C 0.75876 0.13229 0.86752 0.0
C3421 C 0.75805 0.11859 0.92146 0.0
C3422 C 0.78592 0.12277 0.95088 0.0
H3423 H 0.7914 0.07725 0.01445 0.0
H3424 H 0.78206 0.08584 0.97671 0.0
H3425 H 0.79962 0.12311 0.98649 0.0
H3426 H 0.77442 0.14142 0.83098 0.0
H3427 H 0.78331 0.13196 0.86804 0.0
H3428 H 0.76002 0.09978 0.93922 0.0
C3429 C 0.78786 0.09044 0.0037 0.0
C3430 C 0.79092 0.11797 0.97694 0.0
C3431 C 0.7933 0.08552 0.02531 0.0
C3432 C 0.76968 0.13493 0.85562 0.0
C3433 C 0.77483 0.12962 0.87732 0.0
C3434 C 0.76864 0.10503 0.94964 0.0
C3435 C 0.79025 0.10128 0.0152 0.0
C3436 C 0.78483 0.10664 0.98964 0.0
C3437 C 0.76913 0.12152 0.91114 0.0
C3438 C 0.7747 0.11636 0.93691 0.0
H3439 H 0.80969 0.10669 0.09757 0.0
H3440 H 0.79995 0.11527 0.06022 0.0
H3441 H 0.7686 0.09154 0.98524 0.0
H3442 H 0.74452 0.1216 0.91 0.0
H3443 H 0.75342 0.11251 0.94758 0.0
C3444 C 0.88268 0.63322 0.87972 0.0
C3445 C 0.87171 0.62853 0.86318 0.0
C3446 C 0.88765 0.6434 0.90293 0.0
C3447 C 0.88404 0.66771 0.93539 0.0
H3448 H 0.90296 0.66939 0.03566 0.0
C3449 C 0.89997 0.70273 0.07122 0.0
C3450 C 0.9117 0.70879 0.07439 0.0
C3451 C 0.89459 0.69245 0.04841 0.0
C3452 C 0.89768 0.66902 0.00782 0.0
H3453 H 0.85749 0.63101 0.85632 0.0
H3454 H 0.86598 0.64861 0.89803 0.0
H3455 H 0.8949 0.65306 0.98649 0.0
H3456 H 0.92693 0.70857 0.05871 0.0
H3457 H 0.91751 0.69042 0.02076 0.0
H3458 H 0.88667 0.68362 0.95807 0.0
C3459 C 0.87091 0.64463 0.89223 0.0
C3460 C 0.89314 0.65972 0.97916 0.0
C3461 C 0.86603 0.63453 0.86808 0.0
C3462 C 0.91787 0.70403 0.05707 0.0
C3463 C 0.91249 0.69367 0.03524 0.0
C3464 C 0.88843 0.67693 0.96461 0.0
C3465 C 0.88166 0.64902 0.91134 0.0
C3466 C 0.88638 0.65897 0.94206 0.0
C3467 C 0.90083 0.68795 0.02935 0.0
C3468 C 0.89539 0.67773 1.00082 0.0
H3469 H 0.88726 0.62877 0.87635 0.0
H3470 H 0.89608 0.64666 0.91556 0.0
H3471 H 0.87899 0.66755 0.90707 0.0
H3472 H 0.89503 0.70627 0.08363 0.0
H3473 H 0.88558 0.68816 0.04456 0.0
C3474 C 0.2494 0.37062 0.71423 0.0
C3475 C 0.2431 0.37486 0.73461 0.0
C3476 C 0.24416 0.36061 0.68992 0.0
C3477 C 0.21628 0.33576 0.66185 0.0
H3478 H 0.23252 0.335 0.55593 0.0
C3479 C 0.19675 0.30034 0.52763 0.0
C3480 C 0.20289 0.29479 0.5225 0.0
C3481 C 0.20148 0.31069 0.54984 0.0
C3482 C 0.22789 0.33511 0.58533 0.0
H3483 H 0.22633 0.37178 0.74689 0.0
H3484 H 0.21711 0.35444 0.70322 0.0
H3485 H 0.24085 0.35133 0.60505 0.0
H3486 H 0.21894 0.29597 0.53402 0.0
H3487 H 0.22737 0.31426 0.57075 0.0
H3488 H 0.2032 0.31956 0.64089 0.0
C3489 C 0.22611 0.35866 0.70685 0.0
C3490 C 0.2327 0.34443 0.61394 0.0
C3491 C 0.23138 0.3686 0.73208 0.0
C3492 C 0.21407 0.30013 0.53711 0.0
C3493 C 0.21887 0.31057 0.55827 0.0
C3494 C 0.21139 0.32652 0.63269 0.0
C3495 C 0.23246 0.3547 0.68423 0.0
C3496 C 0.22707 0.34482 0.65313 0.0
C3497 C 0.21252 0.31578 0.56626 0.0
C3498 C 0.21721 0.32604 0.59449 0.0
H3499 H 0.25846 0.37528 0.71575 0.0
H3500 H 0.24935 0.35768 0.67454 0.0
H3501 H 0.2117 0.33565 0.69176 0.0
H3502 H 0.18805 0.29632 0.51741 0.0
H3503 H 0.19643 0.31458 0.55539 0.0
C3504 C 0.70399 0.89892 0.53567 0.0
C3505 C 0.71022 0.91063 0.53261 0.0
C3506 C 0.69391 0.89369 0.55993 0.0
C3507 C 0.67895 0.90047 0.64926 0.0
H3508 H 0.65481 0.87043 0.62438 0.0
C3509 C 0.63418 0.88048 0.72381 0.0
C3510 C 0.62964 0.86966 0.74191 0.0
C3511 C 0.64457 0.88557 0.70217 0.0
C3512 C 0.66157 0.87879 0.63192 0.0
H3513 H 0.71047 0.92601 0.54939 0.0
H3514 H 0.69257 0.91695 0.58865 0.0
H3515 H 0.671 0.87905 0.574 0.0
H3516 H 0.63249 0.85575 0.75249 0.0
H3517 H 0.65065 0.8646 0.71343 0.0
H3518 H 0.66916 0.9003 0.706 0.0
C3519 C 0.69564 0.91174 0.57457 0.0
C3520 C 0.67087 0.88375 0.6031 0.0
C3521 C 0.70582 0.91696 0.55134 0.0
C3522 C 0.63589 0.86417 0.73947 0.0
C3523 C 0.64619 0.86916 0.71673 0.0
C3524 C 0.66956 0.89559 0.67743 0.0
C3525 C 0.68975 0.90006 0.58092 0.0
C3526 C 0.6797 0.8947 0.61121 0.0
C3527 C 0.65051 0.87982 0.69717 0.0
C3528 C 0.66078 0.88471 0.66905 0.0
H3529 H 0.7073 0.89386 0.52217 0.0
H3530 H 0.68973 0.88471 0.56416 0.0
H3531 H 0.68567 0.90876 0.65772 0.0
H3532 H 0.62948 0.88484 0.72489 0.0
H3533 H 0.6477 0.89377 0.68723 0.0
C3534 C 0.10603 0.80605 0.5364 0.0
C3535 C 0.09431 0.80058 0.53375 0.0
C3536 C 0.11131 0.80127 0.56071 0.0
C3537 C 0.10476 0.77972 0.6506 0.0
H3538 H 0.1347 0.78547 0.62422 0.0
C3539 C 0.12478 0.75489 0.72416 0.0
C3540 C 0.13565 0.76115 0.74186 0.0
C3541 C 0.11969 0.76021 0.70268 0.0
C3542 C 0.12637 0.78391 0.63218 0.0
H3543 H 0.07897 0.7855 0.55138 0.0
H3544 H 0.08812 0.77678 0.59079 0.0
H3545 H 0.12597 0.793 0.57429 0.0
H3546 H 0.14964 0.77788 0.7518 0.0
H3547 H 0.14079 0.78722 0.71297 0.0
H3548 H 0.10505 0.77017 0.70731 0.0
C3549 C 0.09329 0.78501 0.57633 0.0
C3550 C 0.12135 0.78823 0.60362 0.0
C3551 C 0.08802 0.78991 0.55304 0.0
C3552 C 0.14119 0.77288 0.73908 0.0
C3553 C 0.13619 0.7782 0.71649 0.0
C3554 C 0.1097 0.77522 0.67852 0.0
C3555 C 0.10499 0.7908 0.58216 0.0
C3556 C 0.11043 0.78617 0.61226 0.0
C3557 C 0.12547 0.77188 0.69741 0.0
C3558 C 0.12054 0.77727 0.66958 0.0
H3559 H 0.11107 0.81437 0.52245 0.0
H3560 H 0.12031 0.80607 0.56453 0.0
H3561 H 0.0965 0.77818 0.65946 0.0
H3562 H 0.12037 0.74583 0.72552 0.0
H3563 H 0.11144 0.75515 0.68811 0.0
C3564 C 0.63614 0.77008 0.24732 0.0
C3565 C 0.62789 0.75947 0.23209 0.0
C3566 C 0.64657 0.77579 0.22539 0.0
C3567 C 0.6594 0.77705 0.1142 0.0
H3568 H 0.68769 0.79208 0.17791 0.0
C3569 C 0.70274 0.80351 0.02484 0.0
C3570 C 0.71133 0.80178 0.04114 0.0
C3571 C 0.69235 0.79869 0.04711 0.0
C3572 C 0.67985 0.78792 0.15963 0.0
H3573 H 0.62444 0.74629 0.18358 0.0
H3574 H 0.64244 0.75614 0.14607 0.0
H3575 H 0.67021 0.78312 0.2209 0.0
H3576 H 0.71546 0.79309 0.09225 0.0
H3577 H 0.69752 0.78478 0.1304 0.0
H3578 H 0.66904 0.78168 0.05295 0.0
C3579 C 0.64082 0.76018 0.17416 0.0
C3580 C 0.66984 0.78287 0.18428 0.0
C3581 C 0.63051 0.7545 0.19604 0.0
C3582 C 0.70911 0.79474 0.07889 0.0
C3583 C 0.69884 0.79003 0.10113 0.0
C3584 C 0.6694 0.78218 0.08954 0.0
C3585 C 0.64887 0.771 0.18775 0.0
C3586 C 0.65951 0.77719 0.16186 0.0
C3587 C 0.69042 0.79213 0.0862 0.0
C3588 C 0.67974 0.78749 0.11199 0.0
H3589 H 0.63439 0.77417 0.27482 0.0
H3590 H 0.65264 0.78411 0.23675 0.0
H3591 H 0.65156 0.77286 0.09591 0.0
H3592 H 0.70416 0.80891 0.996 0.0
H3593 H 0.68599 0.80043 0.03472 0.0
C3594 C 0.2492 0.87973 0.2249 0.0
C3595 C 0.24314 0.86877 0.24187 0.0
C3596 C 0.24372 0.88462 0.20312 0.0
C3597 C 0.21969 0.87725 0.13217 0.0
H3598 H 0.22596 0.90746 0.15543 0.0
C3599 C 0.19759 0.89761 0.03546 0.0
C3600 C 0.20337 0.9093 0.03095 0.0
C3601 C 0.20234 0.89228 0.05975 0.0
C3602 C 0.22426 0.89909 0.14774 0.0
H3603 H 0.22656 0.85442 0.2504 0.0
H3604 H 0.21694 0.86293 0.21135 0.0
H3605 H 0.23396 0.89911 0.20441 0.0
H3606 H 0.21893 0.9245 0.045 0.0
H3607 H 0.22752 0.91523 0.0845 0.0
H3608 H 0.21036 0.87733 0.07445 0.0
C3609 C 0.22594 0.86775 0.21547 0.0
C3610 C 0.22876 0.89427 0.17628 0.0
C3611 C 0.23142 0.86294 0.23826 0.0
C3612 C 0.21429 0.91546 0.04808 0.0
C3613 C 0.21912 0.91014 0.07144 0.0
C3614 C 0.21533 0.88214 0.10308 0.0
C3615 C 0.23207 0.87856 0.19692 0.0
C3616 C 0.22657 0.88332 0.16871 0.0
C3617 C 0.21304 0.89853 0.07942 0.0
C3618 C 0.21762 0.89318 0.11021 0.0
H3619 H 0.25825 0.88437 0.22689 0.0
H3620 H 0.24866 0.89293 0.189 0.0
H3621 H 0.218 0.86883 0.12522 0.0
H3622 H 0.18909 0.89267 0.02321 0.0
H3623 H 0.19735 0.88335 0.06521 0.0
C3624 C 0.08805 0.29899 0.05099 0.0
C3625 C 0.09424 0.29456 0.03099 0.0
C3626 C 0.09346 0.30928 0.07337 0.0
C3627 C 0.11809 0.32645 0.14035 0.0
H3628 H 0.11094 0.34996 0.12158 0.0
C3629 C 0.14085 0.36901 0.23587 0.0
C3630 C 0.13507 0.37487 0.24213 0.0
C3631 C 0.13588 0.35888 0.21189 0.0
C3632 C 0.11289 0.34341 0.12809 0.0
H3633 H 0.11096 0.29753 0.01784 0.0
H3634 H 0.12045 0.31551 0.05798 0.0
H3635 H 0.1026 0.33355 0.0729 0.0
H3636 H 0.11934 0.37441 0.23151 0.0
H3637 H 0.11037 0.35646 0.1928 0.0
H3638 H 0.12801 0.336 0.19666 0.0
C3639 C 0.1114 0.31103 0.05576 0.0
C3640 C 0.10819 0.33406 0.09969 0.0
C3641 C 0.10598 0.30083 0.03238 0.0
C3642 C 0.12397 0.37004 0.2271 0.0
C3643 C 0.11892 0.35983 0.20415 0.0
C3644 C 0.12265 0.33572 0.16938 0.0
C3645 C 0.10517 0.31524 0.07716 0.0
C3646 C 0.11072 0.32548 0.10555 0.0
C3647 C 0.12495 0.35433 0.19436 0.0
C3648 C 0.12007 0.34433 0.16385 0.0
H3649 H 0.07898 0.2943 0.05072 0.0
H3650 H 0.08845 0.31232 0.08969 0.0
H3651 H 0.12006 0.31987 0.14596 0.0
H3652 H 0.1495 0.37266 0.24643 0.0
H3653 H 0.14086 0.35499 0.20499 0.0
C3654 C 0.77004 0.63488 0.3602 0.0
C3655 C 0.7597 0.62631 0.37651 0.0
C3656 C 0.77559 0.64528 0.38224 0.0
C3657 C 0.77732 0.65796 0.49429 0.0
H3658 H 0.79109 0.68613 0.42951 0.0
C3659 C 0.80421 0.7017 0.58018 0.0
C3660 C 0.80214 0.71014 0.56463 0.0
C3661 C 0.79919 0.69122 0.5587 0.0
C3662 C 0.78728 0.67832 0.4481 0.0
H3663 H 0.74686 0.62223 0.42748 0.0
H3664 H 0.75647 0.64023 0.46528 0.0
H3665 H 0.78209 0.66857 0.38722 0.0
H3666 H 0.79265 0.71387 0.51596 0.0
H3667 H 0.784 0.69576 0.47923 0.0
H3668 H 0.78237 0.66772 0.5552 0.0
C3669 C 0.7604 0.63887 0.43612 0.0
C3670 C 0.78221 0.66827 0.42382 0.0
C3671 C 0.75485 0.62856 0.41408 0.0
C3672 C 0.79457 0.70766 0.52866 0.0
C3673 C 0.78965 0.69728 0.50723 0.0
C3674 C 0.78248 0.66801 0.51857 0.0
C3675 C 0.77094 0.64727 0.42114 0.0
C3676 C 0.777 0.65797 0.44664 0.0
C3677 C 0.79209 0.68902 0.5212 0.0
C3678 C 0.78734 0.6783 0.49575 0.0
H3679 H 0.77404 0.63343 0.33151 0.0
H3680 H 0.7837 0.65161 0.36983 0.0
H3681 H 0.77351 0.65014 0.51285 0.0
H3682 H 0.81001 0.70334 0.60765 0.0
H3683 H 0.8012 0.68499 0.57032 0.0
C3684 C 0.30295 0.10273 0.57889 0.0
C3685 C 0.2948 0.09193 0.56505 0.0
C3686 C 0.31342 0.10829 0.5572 0.0
C3687 C 0.32634 0.10873 0.44749 0.0
H3688 H 0.35467 0.1243 0.51077 0.0
C3689 C 0.36962 0.13509 0.35763 0.0
C3690 C 0.37824 0.13343 0.37415 0.0
C3691 C 0.35924 0.13028 0.37988 0.0
C3692 C 0.34681 0.11999 0.49263 0.0
H3693 H 0.29159 0.07828 0.51949 0.0
H3694 H 0.30964 0.08791 0.48226 0.0
H3695 H 0.33719 0.11558 0.55396 0.0
H3696 H 0.38242 0.12488 0.42574 0.0
H3697 H 0.36449 0.11662 0.46397 0.0
H3698 H 0.33595 0.11301 0.38621 0.0
C3699 C 0.30792 0.09219 0.50909 0.0
C3700 C 0.33682 0.11508 0.51737 0.0
C3701 C 0.29757 0.08664 0.5308 0.0
C3702 C 0.37606 0.12647 0.41214 0.0
C3703 C 0.36578 0.12178 0.43443 0.0
C3704 C 0.33633 0.11374 0.42274 0.0
C3705 C 0.31585 0.10317 0.52115 0.0
C3706 C 0.32648 0.10921 0.49511 0.0
C3707 C 0.35734 0.12381 0.41924 0.0
C3708 C 0.34668 0.11925 0.44507 0.0
H3709 H 0.30109 0.10707 0.60499 0.0
H3710 H 0.31941 0.11676 0.56735 0.0
H3711 H 0.31849 0.10437 0.42935 0.0
H3712 H 0.37102 0.14043 0.32862 0.0
H3713 H 0.35285 0.13196 0.3673 0.0
C3714 C 0.882 0.24972 0.37644 0.0
C3715 C 0.87109 0.24342 0.35935 0.0
C3716 C 0.88699 0.24452 0.39952 0.0
C3717 C 0.88357 0.21661 0.43086 0.0
H3718 H 0.9023 0.23371 0.53179 0.0
C3719 C 0.89951 0.19755 0.56704 0.0
C3720 C 0.91125 0.20321 0.57005 0.0
C3721 C 0.89412 0.20242 0.5441 0.0
C3722 C 0.89707 0.22884 0.50376 0.0
H3723 H 0.85699 0.2267 0.35147 0.0
H3724 H 0.86551 0.21758 0.39303 0.0
H3725 H 0.89418 0.24197 0.48292 0.0
H3726 H 0.92647 0.2186 0.55386 0.0
H3727 H 0.91702 0.22729 0.51575 0.0
H3728 H 0.8863 0.20336 0.45314 0.0
C3729 C 0.87039 0.22652 0.38769 0.0
C3730 C 0.8925 0.23361 0.47526 0.0
C3731 C 0.86549 0.23173 0.36363 0.0
C3732 C 0.91741 0.21409 0.55235 0.0
C3733 C 0.91201 0.21905 0.53043 0.0
C3734 C 0.88799 0.21178 0.45995 0.0
C3735 C 0.88108 0.2329 0.40732 0.0
C3736 C 0.88581 0.22764 0.43792 0.0
C3737 C 0.90035 0.21312 0.5248 0.0
C3738 C 0.89489 0.21789 0.49637 0.0
H3739 H 0.8865 0.25876 0.37359 0.0
H3740 H 0.89538 0.24971 0.41253 0.0
H3741 H 0.87859 0.21176 0.40235 0.0
H3742 H 0.89457 0.18909 0.57974 0.0
H3743 H 0.8851 0.19771 0.54041 0.0
C3744 C 0.04112 0.58274 0.23604 0.0
C3745 C 0.0441 0.5774 0.20279 0.0
C3746 C 0.03074 0.57714 0.25743 0.0
C3747 C 1.00205 0.55383 0.24969 0.0
H3748 H 1.00277 0.55662 0.3806 0.0
C3749 C 0.96261 0.5425 0.35357 0.0
C3750 C 0.96056 0.53593 0.39273 0.0
C3751 C 0.97286 0.5471 0.33116 0.0
C3752 C 1.00243 0.55568 0.34415 0.0
H3753 H 0.03815 0.56211 0.16415 0.0
H3754 H 0.01975 0.55232 0.20125 0.0
H3755 H 0.02026 0.56527 0.33773 0.0
H3756 H 0.96799 0.5295 0.44 0.0
H3757 H 0.9861 0.53779 0.40104 0.0
H3758 H 0.9842 0.54438 0.2561 0.0
C3759 C 0.02561 0.56087 0.21087 0.0
C3760 C 0.01243 0.56071 0.31954 0.0
C3761 C 0.03612 0.56648 0.18948 0.0
C3762 C 0.96927 0.53453 0.41007 0.0
C3763 C 0.97963 0.53924 0.38768 0.0
C3764 C 0.99203 0.54891 0.27428 0.0
C3765 C 0.02298 0.56605 0.24605 0.0
C3766 C 0.01235 0.55997 0.272 0.0
C3767 C 0.98142 0.54535 0.34736 0.0
C3768 C 0.9921 0.54991 0.32174 0.0
H3769 H 0.04697 0.59119 0.24687 0.0
H3770 H 0.02885 0.58146 0.28355 0.0
H3771 H 1.00171 0.55314 0.21315 0.0
H3772 H 0.95616 0.54387 0.33928 0.0
H3773 H 0.97406 0.55198 0.30083 0.0
C3774 C 0.4375 0.4696 0.19074 0.0
C3775 C 0.42704 0.46755 0.20683 0.0
C3776 C 0.44321 0.46491 0.21279 0.0
C3777 C 0.44499 0.45403 0.32487 0.0
H3778 H 0.45895 0.43965 0.26115 0.0
C3779 C 0.47129 0.43683 0.41327 0.0
C3780 C 0.46919 0.42632 0.39786 0.0
C3781 C 0.46649 0.44242 0.39109 0.0
C3782 C 0.45509 0.44365 0.27943 0.0
H3783 H 0.41416 0.45842 0.25725 0.0
H3784 H 0.42403 0.45034 0.29498 0.0
H3785 H 0.45005 0.44824 0.21816 0.0
H3786 H 0.45987 0.41318 0.34864 0.0
H3787 H 0.45159 0.42285 0.31066 0.0
H3788 H 0.44985 0.44928 0.38615 0.0
C3789 C 0.42794 0.45573 0.26606 0.0
C3790 C 0.45009 0.44865 0.25477 0.0
C3791 C 0.42224 0.46031 0.24405 0.0
C3792 C 0.46181 0.42133 0.36125 0.0
C3793 C 0.4571 0.42691 0.33911 0.0
C3794 C 0.45008 0.44913 0.34953 0.0
C3795 C 0.4386 0.45816 0.25145 0.0
C3796 C 0.44479 0.4537 0.27722 0.0
C3797 C 0.45958 0.43762 0.353 0.0
C3798 C 0.45499 0.44368 0.3271 0.0
H3799 H 0.44146 0.47516 0.16232 0.0
H3800 H 0.45141 0.4669 0.20064 0.0
H3801 H 0.4411 0.458 0.34316 0.0
H3802 H 0.47696 0.44093 0.44121 0.0
H3803 H 0.46851 0.45067 0.40269 0.0
C3804 C 0.58395 0.04137 0.35715 0.0
C3805 C 0.57892 0.04383 0.39348 0.0
C3806 C 0.57838 0.03105 0.33521 0.0
C3807 C 0.55607 0.00186 0.34624 0.0
H3808 H 0.55697 0.00242 0.21487 0.0
C3809 C 0.54429 0.96245 0.24241 0.0
C3810 C 0.53701 0.96002 0.20539 0.0
C3811 C 0.54907 0.97282 0.26391 0.0
C3812 C 0.55657 0.00213 0.25148 0.0
H3813 H 0.56424 0.03706 0.43649 0.0
H3814 H 0.55453 0.01884 0.39835 0.0
H3815 H 0.56571 0.01999 0.25724 0.0
H3816 H 0.52952 0.9669 0.16064 0.0
H3817 H 0.53812 0.98524 0.19805 0.0
H3818 H 0.54704 0.984 0.34051 0.0
C3819 C 0.5628 0.02503 0.38682 0.0
C3820 C 0.56165 0.01218 0.27579 0.0
C3821 C 0.56837 0.03544 0.40877 0.0
C3822 C 0.53511 0.96849 0.18893 0.0
C3823 C 0.53999 0.97897 0.21045 0.0
C3824 C 0.55108 0.99182 0.32194 0.0
C3825 C 0.56765 0.02285 0.34905 0.0
C3826 C 0.56159 0.01216 0.32346 0.0
C3827 C 0.54679 0.98111 0.24895 0.0
C3828 C 0.55141 0.99183 0.27431 0.0
H3829 H 0.59212 0.04755 0.3446 0.0
H3830 H 0.58247 0.02954 0.30697 0.0
H3831 H 0.5559 1.00156 0.38287 0.0
H3832 H 0.54607 0.95621 0.25588 0.0
H3833 H 0.55449 0.97429 0.29273 0.0
C3834 C 0.42201 0.96225 0.74169 0.0
C3835 C 0.42688 0.95979 0.70478 0.0
C3836 C 0.42761 0.97261 0.76319 0.0
C3837 C 0.44954 0.00188 0.751 0.0
H3838 H 0.44954 1.00126 0.88239 0.0
C3839 C 0.46141 0.04109 0.85696 0.0
C3840 C 0.46886 0.04351 0.89336 0.0
C3841 C 0.45667 0.03079 0.8349 0.0
C3842 C 0.44969 1.00157 0.84576 0.0
H3843 H 0.44128 0.96661 0.6602 0.0
H3844 H 0.45105 0.98494 0.69763 0.0
H3845 H 0.4408 0.98372 0.83992 0.0
H3846 H 0.47673 0.03668 0.93633 0.0
H3847 H 0.46822 0.01849 0.89799 0.0
H3848 H 0.45832 0.01974 0.75687 0.0
C3849 C 0.44289 0.9787 0.70994 0.0
C3850 C 0.44461 0.99154 0.82141 0.0
C3851 C 0.43728 0.96823 0.6884 0.0
C3852 C 0.47101 0.0351 0.90856 0.0
C3853 C 0.46617 0.0247 0.8865 0.0
C3854 C 0.45452 0.01192 0.77537 0.0
C3855 C 0.43822 0.98087 0.74835 0.0
C3856 C 0.44434 0.99157 0.77377 0.0
C3857 C 0.45917 0.02256 0.84869 0.0
C3858 C 0.45452 0.01188 0.82304 0.0
H3859 H 0.41396 0.95604 0.75507 0.0
H3860 H 0.42366 0.97412 0.79194 0.0
H3861 H 0.44945 0.00218 0.71439 0.0
H3862 H 0.45945 0.04729 0.84447 0.0
H3863 H 0.45111 0.02931 0.80663 0.0
C3864 C 0.96328 0.4216 0.85955 0.0
C3865 C 0.96086 0.4265 0.89646 0.0
C3866 C 0.9736 0.42721 0.83769 0.0
C3867 C 0.00286 0.44928 0.84953 0.0
H3868 H 1.00232 0.44888 0.71813 0.0
C3869 C 0.04218 0.461 0.74486 0.0
C3870 C 0.04462 0.46833 0.70796 0.0
C3871 C 0.03185 0.45631 0.76666 0.0
C3872 C 1.00261 0.44915 0.75476 0.0
H3873 H 0.96769 0.44098 0.94056 0.0
H3874 H 0.98594 0.45076 0.90252 0.0
H3875 H 0.98474 0.44017 0.76047 0.0
H3876 H 0.03782 0.476 0.66383 0.0
H3877 H 0.01956 0.46757 0.7018 0.0
H3878 H 0.02072 0.45817 0.84382 0.0
C3879 C 0.97971 0.44257 0.89049 0.0
C3880 C 0.99255 0.44408 0.77905 0.0
C3881 C 0.96928 0.43695 0.91237 0.0
C3882 C 0.03622 0.47038 0.69201 0.0
C3883 C 0.02578 0.46559 0.71385 0.0
C3884 C 0.01291 0.45427 0.82524 0.0
C3885 C 0.98186 0.43785 0.85218 0.0
C3886 C 0.99256 0.44395 0.8267 0.0
C3887 C 0.02361 0.45872 0.75213 0.0
C3888 C 0.0129 0.45412 0.77759 0.0
H3889 H 0.95707 0.41351 0.84653 0.0
H3890 H 0.97509 0.42322 0.80903 0.0
H3891 H 0.00315 0.44931 0.88615 0.0
H3892 H 0.04838 0.4591 0.75791 0.0
H3893 H 0.03035 0.45083 0.7953 0.0
C3894 C 0.56898 0.53441 0.91183 0.0
C3895 C 0.57944 0.53637 0.89617 0.0
C3896 C 0.56341 0.53922 0.88959 0.0
C3897 C 0.562 0.55036 0.77762 0.0
H3898 H 0.54752 0.5642 0.84147 0.0
C3899 C 0.53496 0.56676 0.68971 0.0
C3900 C 0.53676 0.57716 0.70539 0.0
C3901 C 0.54001 0.56138 0.71163 0.0
C3902 C 0.55153 0.56036 0.82315 0.0
H3903 H 0.59248 0.54544 0.8463 0.0
H3904 H 0.58285 0.55376 0.80817 0.0
H3905 H 0.55657 0.55578 0.88437 0.0
H3906 H 0.54584 0.59032 0.75479 0.0
H3907 H 0.55455 0.58101 0.79234 0.0
H3908 H 0.55709 0.55509 0.71639 0.0
C3909 C 0.57883 0.54835 0.83693 0.0
C3910 C 0.55663 0.55546 0.84776 0.0
C3911 C 0.58439 0.54363 0.85915 0.0
C3912 C 0.54412 0.58225 0.742 0.0
C3913 C 0.54908 0.57688 0.76387 0.0
C3914 C 0.55681 0.55518 0.753 0.0
C3915 C 0.56817 0.54601 0.85117 0.0
C3916 C 0.56209 0.55057 0.82528 0.0
C3917 C 0.54689 0.56628 0.74971 0.0
C3918 C 0.55169 0.5604 0.77549 0.0
H3919 H 0.5649 0.52883 0.94008 0.0
H3920 H 0.55521 0.53728 0.90143 0.0
H3921 H 0.566 0.54651 0.75931 0.0
H3922 H 0.52932 0.56259 0.66174 0.0
H3923 H 0.5382 0.55321 0.69986 0.0
loop_
_geom_bond_atom_site_label_1
_geom_bond_atom_site_label_2
_geom_bond_distance
_geom_bond_site_symmetry_2
_ccdc_geom_bond_type
Co0 O3 1.970 . S
Co0 N17 1.989 . S
Co0 O25 1.967 . S
Co0 O32 1.920 . S
Co1 O4 1.966 1_554 S
Co1 N10 2.022 1_554 S
Co1 N18 1.993 . S
Co1 O26 1.941 . S
C2 O3 1.258 . S
C2 O4 1.263 1_554 S
O3 Co0 1.970 . S
O3 C2 1.258 . S
O4 Co1 1.966 1_556 S
O4 C2 1.263 1_556 S
C5 O6 1.235 . S
C5 O32 1.289 . S
O6 C5 1.235 . S
C7 C9 1.400 . S
C7 N10 1.351 . S
C7 C12 1.501 . S
C8 C9 1.387 . S
C8 N11 1.341 . S
C9 C7 1.400 . S
C9 C8 1.387 . S
N10 Co1 2.022 1_556 S
N10 C7 1.351 . S
N10 N11 1.365 . S
N11 C8 1.341 . S
N11 N10 1.365 . S
N11 H31 0.862 1_556 S
C12 C7 1.501 . S
C12 H13 0.961 . S
C12 H14 0.961 . S
C12 H15 0.960 . S
H13 C12 0.961 . S
H14 C12 0.961 . S
H15 C12 0.960 . S
C16 N17 1.342 . S
C16 C20 1.401 . S
C16 C21 1.499 . S
N17 Co0 1.989 . S
N17 C16 1.342 . S
N17 N18 1.388 . S
N18 Co1 1.993 . S
N18 N17 1.388 . S
N18 C19 1.346 . S
C19 N18 1.346 . S
C19 C20 1.396 . S
C19 C29 1.510 . S
C20 C16 1.401 . S
C20 C19 1.396 . S
C21 C16 1.499 . S
C21 H22 0.959 . S
C21 H23 0.960 . S
C21 H24 0.961 . S
H22 C21 0.959 . S
H23 C21 0.960 . S
H24 C21 0.961 . S
O25 Co0 1.967 . S
O25 C33 1.258 . S
O26 Co1 1.941 . S
O26 C33 1.266 . S
H27 C29 0.959 . S
H28 C29 0.961 . S
C29 C19 1.510 . S
C29 H27 0.959 . S
C29 H28 0.961 . S
C29 H30 0.960 . S
H30 C29 0.960 . S
H31 N11 0.862 1_554 S
O32 Co0 1.920 . S
O32 C5 1.289 . S
C33 O25 1.258 . S
C33 O26 1.266 . S
Co34 O37 1.970 . S
Co34 N51 1.989 . S
Co34 O59 1.967 . S
Co34 O66 1.920 . S
Co35 O38 1.966 1_554 S
Co35 N44 2.022 1_554 S
Co35 N52 1.993 . S
Co35 O60 1.941 . S
C36 O37 1.258 . S
C36 O38 1.263 1_554 S
O37 Co34 1.970 . S
O37 C36 1.258 . S
O38 Co35 1.966 1_556 S
O38 C36 1.263 1_556 S
C39 O40 1.235 . S
C39 O66 1.289 . S
O40 C39 1.235 . S
C41 C43 1.400 . S
C41 N44 1.351 . S
C41 C46 1.501 . S
C42 C43 1.387 . S
C42 N45 1.341 . S
C43 C41 1.400 . S
C43 C42 1.387 . S
N44 Co35 2.022 1_556 S
N44 C41 1.351 . S
N44 N45 1.365 . S
N45 C42 1.341 . S
N45 N44 1.365 . S
N45 H65 0.862 1_556 S
C46 C41 1.501 . S
C46 H47 0.961 . S
C46 H48 0.961 . S
C46 H49 0.960 . S
H47 C46 0.961 . S
H48 C46 0.961 . S
H49 C46 0.960 . S
C50 N51 1.342 . S
C50 C54 1.401 . S
C50 C55 1.499 . S
N51 Co34 1.989 . S
N51 C50 1.342 . S
N51 N52 1.388 . S
N52 Co35 1.993 . S
N52 N51 1.388 . S
N52 C53 1.346 . S
C53 N52 1.346 . S
C53 C54 1.396 . S
C53 C63 1.510 . S
C54 C50 1.401 . S
C54 C53 1.396 . S
C55 C50 1.499 . S
C55 H56 0.959 . S
C55 H57 0.960 . S
C55 H58 0.961 . S
H56 C55 0.959 . S
H57 C55 0.960 . S
H58 C55 0.961 . S
O59 Co34 1.967 . S
O59 C67 1.258 . S
O60 Co35 1.941 . S
O60 C67 1.266 . S
H61 C63 0.959 . S
H62 C63 0.961 . S
C63 C53 1.510 . S
C63 H61 0.959 . S
C63 H62 0.961 . S
C63 H64 0.960 . S
H64 C63 0.960 . S
H65 N45 0.862 1_554 S
O66 Co34 1.920 . S
O66 C39 1.289 . S
C67 O59 1.258 . S
C67 O60 1.266 . S
Co68 O71 1.970 . S
Co68 N85 1.989 . S
Co68 O93 1.967 . S
Co68 O100 1.920 . S
Co69 O72 1.966 1_554 S
Co69 N78 2.022 1_554 S
Co69 N86 1.993 . S
Co69 O94 1.941 . S
C70 O71 1.258 . S
C70 O72 1.263 1_554 S
O71 Co68 1.970 . S
O71 C70 1.258 . S
O72 Co69 1.966 1_556 S
O72 C70 1.263 1_556 S
C73 O74 1.235 . S
C73 O100 1.289 . S
O74 C73 1.235 . S
C75 C77 1.400 . S
C75 N78 1.351 . S
C75 C80 1.501 . S
C76 C77 1.387 . S
C76 N79 1.341 . S
C77 C75 1.400 . S
C77 C76 1.387 . S
N78 Co69 2.022 1_556 S
N78 C75 1.351 . S
N78 N79 1.365 . S
N79 C76 1.341 . S
N79 N78 1.365 . S
N79 H99 0.862 1_556 S
C80 C75 1.501 . S
C80 H81 0.961 . S
C80 H82 0.961 . S
C80 H83 0.960 . S
H81 C80 0.961 . S
H82 C80 0.961 . S
H83 C80 0.960 . S
C84 N85 1.342 . S
C84 C88 1.401 . S
C84 C89 1.499 . S
N85 Co68 1.989 . S
N85 C84 1.342 . S
N85 N86 1.388 . S
N86 Co69 1.993 . S
N86 N85 1.388 . S
N86 C87 1.346 . S
C87 N86 1.346 . S
C87 C88 1.396 . S
C87 C97 1.510 . S
C88 C84 1.401 . S
C88 C87 1.396 . S
C89 C84 1.499 . S
C89 H90 0.959 . S
C89 H91 0.960 . S
C89 H92 0.961 . S
H90 C89 0.959 . S
H91 C89 0.960 . S
H92 C89 0.961 . S
O93 Co68 1.967 . S
O93 C101 1.258 . S
O94 Co69 1.941 . S
O94 C101 1.266 . S
H95 C97 0.959 . S
H96 C97 0.961 . S
C97 C87 1.510 . S
C97 H95 0.959 . S
C97 H96 0.961 . S
C97 H98 0.960 . S
H98 C97 0.960 . S
H99 N79 0.862 1_554 S
O100 Co68 1.920 . S
O100 C73 1.289 . S
C101 O93 1.258 . S
C101 O94 1.266 . S
Co102 O105 1.970 . S
Co102 N119 1.989 . S
Co102 O127 1.967 . S
Co102 O134 1.920 . S
Co103 O106 1.966 . S
Co103 N112 2.022 . S
Co103 N120 1.993 . S
Co103 O128 1.941 . S
C104 O105 1.258 . S
C104 O106 1.263 . S
O105 Co102 1.970 . S
O105 C104 1.258 . S
O106 Co103 1.966 . S
O106 C104 1.263 . S
C107 O108 1.235 . S
C107 O134 1.289 . S
O108 C107 1.235 . S
C109 C111 1.400 . S
C109 N112 1.351 . S
C109 C114 1.501 . S
C110 C111 1.387 . S
C110 N113 1.341 . S
C111 C109 1.400 . S
C111 C110 1.387 . S
N112 Co103 2.022 . S
N112 C109 1.351 . S
N112 N113 1.365 . S
N113 C110 1.341 . S
N113 N112 1.365 . S
N113 H133 0.862 . S
C114 C109 1.501 . S
C114 H115 0.961 . S
C114 H116 0.961 . S
C114 H117 0.960 . S
H115 C114 0.961 . S
H116 C114 0.961 . S
H117 C114 0.960 . S
C118 N119 1.342 . S
C118 C122 1.401 . S
C118 C123 1.499 . S
N119 Co102 1.989 . S
N119 C118 1.342 . S
N119 N120 1.388 . S
N120 Co103 1.993 . S
N120 N119 1.388 . S
N120 C121 1.346 . S
C121 N120 1.346 . S
C121 C122 1.396 . S
C121 C131 1.510 . S
C122 C118 1.401 . S
C122 C121 1.396 . S
C123 C118 1.499 . S
C123 H124 0.959 . S
C123 H125 0.960 . S
C123 H126 0.961 . S
H124 C123 0.959 . S
H125 C123 0.960 . S
H126 C123 0.961 . S
O127 Co102 1.967 . S
O127 C135 1.258 . S
O128 Co103 1.941 . S
O128 C135 1.266 . S
H129 C131 0.959 . S
H130 C131 0.961 . S
C131 C121 1.510 . S
C131 H129 0.959 . S
C131 H130 0.961 . S
C131 H132 0.960 . S
H132 C131 0.960 . S
H133 N113 0.862 . S
O134 Co102 1.920 . S
O134 C107 1.289 . S
C135 O127 1.258 . S
C135 O128 1.266 . S
Co136 O139 1.970 . S
Co136 N153 1.989 . S
Co136 O161 1.967 . S
Co136 O168 1.920 . S
Co137 O140 1.966 . S
Co137 N146 2.022 . S
Co137 N154 1.993 . S
Co137 O162 1.941 . S
C138 O139 1.258 . S
C138 O140 1.263 . S
O139 Co136 1.970 . S
O139 C138 1.258 . S
O140 Co137 1.966 . S
O140 C138 1.263 . S
C141 O142 1.235 . S
C141 O168 1.289 . S
O142 C141 1.235 . S
C143 C145 1.400 . S
C143 N146 1.351 . S
C143 C148 1.501 . S
C144 C145 1.387 . S
C144 N147 1.341 . S
C145 C143 1.400 . S
C145 C144 1.387 . S
N146 Co137 2.022 . S
N146 C143 1.351 . S
N146 N147 1.365 . S
N147 C144 1.341 . S
N147 N146 1.365 . S
N147 H167 0.862 . S
C148 C143 1.501 . S
C148 H149 0.961 . S
C148 H150 0.961 . S
C148 H151 0.960 . S
H149 C148 0.961 . S
H150 C148 0.961 . S
H151 C148 0.960 . S
C152 N153 1.342 . S
C152 C156 1.401 . S
C152 C157 1.499 . S
N153 Co136 1.989 . S
N153 C152 1.342 . S
N153 N154 1.388 . S
N154 Co137 1.993 . S
N154 N153 1.388 . S
N154 C155 1.346 . S
C155 N154 1.346 . S
C155 C156 1.396 . S
C155 C165 1.510 . S
C156 C152 1.401 . S
C156 C155 1.396 . S
C157 C152 1.499 . S
C157 H158 0.959 . S
C157 H159 0.960 . S
C157 H160 0.961 . S
H158 C157 0.959 . S
H159 C157 0.960 . S
H160 C157 0.961 . S
O161 Co136 1.967 . S
O161 C169 1.258 . S
O162 Co137 1.941 . S
O162 C169 1.266 . S
H163 C165 0.959 . S
H164 C165 0.961 . S
C165 C155 1.510 . S
C165 H163 0.959 . S
C165 H164 0.961 . S
C165 H166 0.960 . S
H166 C165 0.960 . S
H167 N147 0.862 . S
O168 Co136 1.920 . S
O168 C141 1.289 . S
C169 O161 1.258 . S
C169 O162 1.266 . S
Co170 O173 1.970 . S
Co170 N187 1.989 . S
Co170 O195 1.967 . S
Co170 O202 1.920 . S
Co171 O174 1.966 . S
Co171 N180 2.022 . S
Co171 N188 1.993 . S
Co171 O196 1.941 . S
C172 O173 1.258 . S
C172 O174 1.263 . S
O173 Co170 1.970 . S
O173 C172 1.258 . S
O174 Co171 1.966 . S
O174 C172 1.263 . S
C175 O176 1.235 . S
C175 O202 1.289 . S
O176 C175 1.235 . S
C177 C179 1.400 . S
C177 N180 1.351 . S
C177 C182 1.501 . S
C178 C179 1.387 . S
C178 N181 1.341 . S
C179 C177 1.400 . S
C179 C178 1.387 . S
N180 Co171 2.022 . S
N180 C177 1.351 . S
N180 N181 1.365 . S
N181 C178 1.341 . S
N181 N180 1.365 . S
N181 H201 0.862 . S
C182 C177 1.501 . S
C182 H183 0.961 . S
C182 H184 0.961 . S
C182 H185 0.960 . S
H183 C182 0.961 . S
H184 C182 0.961 . S
H185 C182 0.960 . S
C186 N187 1.342 . S
C186 C190 1.401 . S
C186 C191 1.499 . S
N187 Co170 1.989 . S
N187 C186 1.342 . S
N187 N188 1.388 . S
N188 Co171 1.993 . S
N188 N187 1.388 . S
N188 C189 1.346 . S
C189 N188 1.346 . S
C189 C190 1.396 . S
C189 C199 1.510 . S
C190 C186 1.401 . S
C190 C189 1.396 . S
C191 C186 1.499 . S
C191 H192 0.959 . S
C191 H193 0.960 . S
C191 H194 0.961 . S
H192 C191 0.959 . S
H193 C191 0.960 . S
H194 C191 0.961 . S
O195 Co170 1.967 . S
O195 C203 1.258 . S
O196 Co171 1.941 . S
O196 C203 1.266 . S
H197 C199 0.959 . S
H198 C199 0.961 . S
C199 C189 1.510 . S
C199 H197 0.959 . S
C199 H198 0.961 . S
C199 H200 0.960 . S
H200 C199 0.960 . S
H201 N181 0.862 . S
O202 Co170 1.920 . S
O202 C175 1.289 . S
C203 O195 1.258 . S
C203 O196 1.266 . S
Co204 O207 1.982 . S
Co204 N221 1.985 1_554 S
Co204 O229 1.973 . S
Co204 O236 1.908 1_554 S
Co205 O208 1.966 . S
Co205 N214 2.022 . S
Co205 N222 1.993 . S
Co205 O230 1.941 . S
C206 O207 1.258 . S
C206 O208 1.263 . S
O207 Co204 1.982 . S
O207 C206 1.258 . S
O208 Co205 1.966 . S
O208 C206 1.263 . S
C209 O210 1.235 . S
C209 O236 1.289 . S
O210 C209 1.235 . S
C211 C213 1.400 . S
C211 N214 1.351 . S
C211 C216 1.501 . S
C212 C213 1.387 . S
C212 N215 1.341 . S
C213 C211 1.400 . S
C213 C212 1.387 . S
N214 Co205 2.022 . S
N214 C211 1.351 . S
N214 N215 1.365 . S
N215 C212 1.341 . S
N215 N214 1.365 . S
N215 H235 0.862 . S
C216 C211 1.501 . S
C216 H217 0.961 . S
C216 H218 0.961 . S
C216 H219 0.960 . S
H217 C216 0.961 . S
H218 C216 0.961 . S
H219 C216 0.960 . S
C220 N221 1.342 . S
C220 C224 1.401 . S
C220 C225 1.499 . S
N221 Co204 1.985 1_556 S
N221 C220 1.342 . S
N221 N222 1.388 1_556 S
N222 Co205 1.993 . S
N222 N221 1.388 1_554 S
N222 C223 1.346 . S
C223 N222 1.346 . S
C223 C224 1.394 1_554 S
C223 C233 1.511 . S
C224 C220 1.401 . S
C224 C223 1.394 1_556 S
C225 C220 1.499 . S
C225 H226 0.959 . S
C225 H227 0.960 . S
C225 H228 0.961 . S
H226 C225 0.959 . S
H227 C225 0.960 . S
H228 C225 0.961 . S
O229 Co204 1.973 . S
O229 C237 1.258 . S
O230 Co205 1.941 . S
O230 C237 1.266 . S
H231 C233 0.959 . S
H232 C233 0.961 . S
C233 C223 1.511 . S
C233 H231 0.959 . S
C233 H232 0.961 . S
C233 H234 0.960 . S
H234 C233 0.960 . S
H235 N215 0.862 . S
O236 Co204 1.908 1_556 S
O236 C209 1.289 . S
C237 O229 1.258 . S
C237 O230 1.266 . S
Co238 O241 1.980 . S
Co238 N255 1.986 1_554 S
Co238 O263 1.971 . S
Co238 O270 1.911 1_554 S
Co239 O242 1.966 . S
Co239 N248 2.022 . S
Co239 N256 1.993 . S
Co239 O264 1.941 . S
C240 O241 1.258 . S
C240 O242 1.263 . S
O241 Co238 1.980 . S
O241 C240 1.258 . S
O242 Co239 1.966 . S
O242 C240 1.263 . S
C243 O244 1.235 . S
C243 O270 1.289 . S
O244 C243 1.235 . S
C245 C247 1.400 . S
C245 N248 1.351 . S
C245 C250 1.501 . S
C246 C247 1.387 . S
C246 N249 1.341 . S
C247 C245 1.400 . S
C247 C246 1.387 . S
N248 Co239 2.022 . S
N248 C245 1.351 . S
N248 N249 1.365 . S
N249 C246 1.341 . S
N249 N248 1.365 . S
N249 H269 0.862 . S
C250 C245 1.501 . S
C250 H251 0.961 . S
C250 H252 0.961 . S
C250 H253 0.960 . S
H251 C250 0.961 . S
H252 C250 0.961 . S
H253 C250 0.960 . S
C254 N255 1.342 . S
C254 C258 1.401 . S
C254 C259 1.499 . S
N255 Co238 1.986 1_556 S
N255 C254 1.342 . S
N255 N256 1.388 1_556 S
N256 Co239 1.993 . S
N256 N255 1.388 1_554 S
N256 C257 1.345 . S
C257 N256 1.345 . S
C257 C258 1.398 1_554 S
C257 C267 1.509 . S
C258 C254 1.401 . S
C258 C257 1.398 1_556 S
C259 C254 1.499 . S
C259 H260 0.959 . S
C259 H261 0.960 . S
C259 H262 0.961 . S
H260 C259 0.959 . S
H261 C259 0.960 . S
H262 C259 0.961 . S
O263 Co238 1.971 . S
O263 C271 1.258 . S
O264 Co239 1.941 . S
O264 C271 1.266 . S
H265 C267 0.959 . S
H266 C267 0.961 . S
C267 C257 1.509 . S
C267 H265 0.959 . S
C267 H266 0.961 . S
C267 H268 0.960 . S
H268 C267 0.960 . S
H269 N249 0.862 . S
O270 Co238 1.911 1_556 S
O270 C243 1.289 . S
C271 O263 1.258 . S
C271 O264 1.266 . S
Co272 O275 1.981 . S
Co272 N289 1.986 1_554 S
Co272 O297 1.972 . S
Co272 O304 1.909 1_554 S
Co273 O276 1.966 . S
Co273 N282 2.022 . S
Co273 N290 1.993 . S
Co273 O298 1.941 . S
C274 O275 1.258 . S
C274 O276 1.263 . S
O275 Co272 1.981 . S
O275 C274 1.258 . S
O276 Co273 1.966 . S
O276 C274 1.263 . S
C277 O278 1.235 . S
C277 O304 1.289 . S
O278 C277 1.235 . S
C279 C281 1.400 . S
C279 N282 1.351 . S
C279 C284 1.501 . S
C280 C281 1.387 . S
C280 N283 1.341 . S
C281 C279 1.400 . S
C281 C280 1.387 . S
N282 Co273 2.022 . S
N282 C279 1.351 . S
N282 N283 1.365 . S
N283 C280 1.341 . S
N283 N282 1.365 . S
N283 H303 0.862 . S
C284 C279 1.501 . S
C284 H285 0.961 . S
C284 H286 0.961 . S
C284 H287 0.960 . S
H285 C284 0.961 . S
H286 C284 0.961 . S
H287 C284 0.960 . S
C288 N289 1.342 . S
C288 C292 1.401 . S
C288 C293 1.499 . S
N289 Co272 1.986 1_556 S
N289 C288 1.342 . S
N289 N290 1.388 1_556 S
N290 Co273 1.993 . S
N290 N289 1.388 1_554 S
N290 C291 1.346 . S
C291 N290 1.346 . S
C291 C292 1.396 1_554 S
C291 C301 1.510 . S
C292 C288 1.401 . S
C292 C291 1.396 1_556 S
C293 C288 1.499 . S
C293 H294 0.959 . S
C293 H295 0.960 . S
C293 H296 0.961 . S
H294 C293 0.959 . S
H295 C293 0.960 . S
H296 C293 0.961 . S
O297 Co272 1.972 . S
O297 C305 1.258 . S
O298 Co273 1.941 . S
O298 C305 1.266 . S
H299 C301 0.959 . S
H300 C301 0.961 . S
C301 C291 1.510 . S
C301 H299 0.959 . S
C301 H300 0.961 . S
C301 H302 0.960 . S
H302 C301 0.960 . S
H303 N283 0.862 . S
O304 Co272 1.909 1_556 S
O304 C277 1.289 . S
C305 O297 1.258 . S
C305 O298 1.266 . S
Co306 O309 1.970 . S
Co306 N323 1.989 . S
Co306 O331 1.967 . S
Co306 O338 1.920 . S
Co307 O310 1.966 . S
Co307 N316 2.022 . S
Co307 N324 1.993 . S
Co307 O332 1.941 . S
C308 O309 1.258 . S
C308 O310 1.263 . S
O309 Co306 1.970 . S
O309 C308 1.258 . S
O310 Co307 1.966 . S
O310 C308 1.263 . S
C311 O312 1.235 . S
C311 O338 1.289 . S
O312 C311 1.235 . S
C313 C315 1.400 . S
C313 N316 1.351 . S
C313 C318 1.501 . S
C314 C315 1.387 . S
C314 N317 1.341 . S
C315 C313 1.400 . S
C315 C314 1.387 . S
N316 Co307 2.022 . S
N316 C313 1.351 . S
N316 N317 1.365 . S
N317 C314 1.341 . S
N317 N316 1.365 . S
N317 H337 0.862 . S
C318 C313 1.501 . S
C318 H319 0.961 . S
C318 H320 0.961 . S
C318 H321 0.960 . S
H319 C318 0.961 . S
H320 C318 0.961 . S
H321 C318 0.960 . S
C322 N323 1.342 . S
C322 C326 1.401 . S
C322 C327 1.499 . S
N323 Co306 1.989 . S
N323 C322 1.342 . S
N323 N324 1.388 . S
N324 Co307 1.993 . S
N324 N323 1.388 . S
N324 C325 1.346 . S
C325 N324 1.346 . S
C325 C326 1.396 . S
C325 C335 1.510 . S
C326 C322 1.401 . S
C326 C325 1.396 . S
C327 C322 1.499 . S
C327 H328 0.959 . S
C327 H329 0.960 . S
C327 H330 0.961 . S
H328 C327 0.959 . S
H329 C327 0.960 . S
H330 C327 0.961 . S
O331 Co306 1.967 . S
O331 C339 1.258 . S
O332 Co307 1.941 . S
O332 C339 1.266 . S
H333 C335 0.959 . S
H334 C335 0.961 . S
C335 C325 1.510 . S
C335 H333 0.959 . S
C335 H334 0.961 . S
C335 H336 0.960 . S
H336 C335 0.960 . S
H337 N317 0.862 . S
O338 Co306 1.920 . S
O338 C311 1.289 . S
C339 O331 1.258 . S
C339 O332 1.266 . S
Co340 O343 1.970 . S
Co340 N357 1.989 . S
Co340 O365 1.967 . S
Co340 O372 1.920 . S
Co341 O344 1.966 . S
Co341 N350 2.022 . S
Co341 N358 1.993 . S
Co341 O366 1.941 . S
C342 O343 1.258 . S
C342 O344 1.263 . S
O343 Co340 1.970 . S
O343 C342 1.258 . S
O344 Co341 1.966 . S
O344 C342 1.263 . S
C345 O346 1.235 . S
C345 O372 1.289 . S
O346 C345 1.235 . S
C347 C349 1.400 . S
C347 N350 1.351 . S
C347 C352 1.501 . S
C348 C349 1.387 . S
C348 N351 1.341 . S
C349 C347 1.400 . S
C349 C348 1.387 . S
N350 Co341 2.022 . S
N350 C347 1.351 . S
N350 N351 1.365 . S
N351 C348 1.341 . S
N351 N350 1.365 . S
N351 H371 0.862 . S
C352 C347 1.501 . S
C352 H353 0.961 . S
C352 H354 0.961 . S
C352 H355 0.960 . S
H353 C352 0.961 . S
H354 C352 0.961 . S
H355 C352 0.960 . S
C356 N357 1.342 . S
C356 C360 1.401 . S
C356 C361 1.499 . S
N357 Co340 1.989 . S
N357 C356 1.342 . S
N357 N358 1.388 . S
N358 Co341 1.993 . S
N358 N357 1.388 . S
N358 C359 1.346 . S
C359 N358 1.346 . S
C359 C360 1.396 . S
C359 C369 1.510 . S
C360 C356 1.401 . S
C360 C359 1.396 . S
C361 C356 1.499 . S
C361 H362 0.959 . S
C361 H363 0.960 . S
C361 H364 0.961 . S
H362 C361 0.959 . S
H363 C361 0.960 . S
H364 C361 0.961 . S
O365 Co340 1.967 . S
O365 C373 1.258 . S
O366 Co341 1.941 . S
O366 C373 1.266 . S
H367 C369 0.959 . S
H368 C369 0.961 . S
C369 C359 1.510 . S
C369 H367 0.959 . S
C369 H368 0.961 . S
C369 H370 0.960 . S
H370 C369 0.960 . S
H371 N351 0.862 . S
O372 Co340 1.920 . S
O372 C345 1.289 . S
C373 O365 1.258 . S
C373 O366 1.266 . S
Co374 O377 1.970 . S
Co374 N391 1.989 . S
Co374 O399 1.967 . S
Co374 O406 1.920 . S
Co375 O378 1.966 . S
Co375 N384 2.022 . S
Co375 N392 1.993 . S
Co375 O400 1.941 . S
C376 O377 1.258 . S
C376 O378 1.263 . S
O377 Co374 1.970 . S
O377 C376 1.258 . S
O378 Co375 1.966 . S
O378 C376 1.263 . S
C379 O380 1.235 . S
C379 O406 1.289 . S
O380 C379 1.235 . S
C381 C383 1.400 . S
C381 N384 1.351 . S
C381 C386 1.501 . S
C382 C383 1.387 . S
C382 N385 1.341 . S
C383 C381 1.400 . S
C383 C382 1.387 . S
N384 Co375 2.022 . S
N384 C381 1.351 . S
N384 N385 1.365 . S
N385 C382 1.341 . S
N385 N384 1.365 . S
N385 H405 0.862 . S
C386 C381 1.501 . S
C386 H387 0.961 . S
C386 H388 0.961 . S
C386 H389 0.960 . S
H387 C386 0.961 . S
H388 C386 0.961 . S
H389 C386 0.960 . S
C390 N391 1.342 . S
C390 C394 1.401 . S
C390 C395 1.499 . S
N391 Co374 1.989 . S
N391 C390 1.342 . S
N391 N392 1.388 . S
N392 Co375 1.993 . S
N392 N391 1.388 . S
N392 C393 1.346 . S
C393 N392 1.346 . S
C393 C394 1.396 . S
C393 C403 1.510 . S
C394 C390 1.401 . S
C394 C393 1.396 . S
C395 C390 1.499 . S
C395 H396 0.959 . S
C395 H397 0.960 . S
C395 H398 0.961 . S
H396 C395 0.959 . S
H397 C395 0.960 . S
H398 C395 0.961 . S
O399 Co374 1.967 . S
O399 C407 1.258 . S
O400 Co375 1.941 . S
O400 C407 1.266 . S
H401 C403 0.959 . S
H402 C403 0.961 . S
C403 C393 1.510 . S
C403 H401 0.959 . S
C403 H402 0.961 . S
C403 H404 0.960 . S
H404 C403 0.960 . S
H405 N385 0.862 . S
O406 Co374 1.920 . S
O406 C379 1.289 . S
C407 O399 1.258 . S
C407 O400 1.266 . S
Co408 O411 1.970 . S
Co408 N425 1.989 . S
Co408 O433 1.967 . S
Co408 O440 1.920 . S
Co409 O412 1.966 . S
Co409 N418 2.022 . S
Co409 N426 1.993 . S
Co409 O434 1.941 . S
C410 O411 1.258 . S
C410 O412 1.263 . S
O411 Co408 1.970 . S
O411 C410 1.258 . S
O412 Co409 1.966 . S
O412 C410 1.263 . S
C413 O414 1.235 . S
C413 O440 1.289 . S
O414 C413 1.235 . S
C415 C417 1.400 . S
C415 N418 1.351 . S
C415 C420 1.501 . S
C416 C417 1.387 . S
C416 N419 1.341 . S
C417 C415 1.400 . S
C417 C416 1.387 . S
N418 Co409 2.022 . S
N418 C415 1.351 . S
N418 N419 1.365 . S
N419 C416 1.341 . S
N419 N418 1.365 . S
N419 H439 0.862 . S
C420 C415 1.501 . S
C420 H421 0.961 . S
C420 H422 0.961 . S
C420 H423 0.960 . S
H421 C420 0.961 . S
H422 C420 0.961 . S
H423 C420 0.960 . S
C424 N425 1.342 . S
C424 C428 1.401 . S
C424 C429 1.499 . S
N425 Co408 1.989 . S
N425 C424 1.342 . S
N425 N426 1.388 . S
N426 Co409 1.993 . S
N426 N425 1.388 . S
N426 C427 1.346 . S
C427 N426 1.346 . S
C427 C428 1.396 . S
C427 C437 1.510 . S
C428 C424 1.401 . S
C428 C427 1.396 . S
C429 C424 1.499 . S
C429 H430 0.959 . S
C429 H431 0.960 . S
C429 H432 0.961 . S
H430 C429 0.959 . S
H431 C429 0.960 . S
H432 C429 0.961 . S
O433 Co408 1.967 . S
O433 C441 1.258 . S
O434 Co409 1.941 . S
O434 C441 1.266 . S
H435 C437 0.959 . S
H436 C437 0.961 . S
C437 C427 1.510 . S
C437 H435 0.959 . S
C437 H436 0.961 . S
C437 H438 0.960 . S
H438 C437 0.960 . S
H439 N419 0.862 . S
O440 Co408 1.920 . S
O440 C413 1.289 . S
C441 O433 1.258 . S
C441 O434 1.266 . S
Co442 O445 1.970 . S
Co442 N459 1.989 . S
Co442 O467 1.967 . S
Co442 O474 1.920 . S
Co443 O446 1.966 . S
Co443 N452 2.022 . S
Co443 N460 1.993 . S
Co443 O468 1.941 . S
C444 O445 1.258 . S
C444 O446 1.263 . S
O445 Co442 1.970 . S
O445 C444 1.258 . S
O446 Co443 1.966 . S
O446 C444 1.263 . S
C447 O448 1.235 . S
C447 O474 1.289 . S
O448 C447 1.235 . S
C449 C451 1.400 . S
C449 N452 1.351 . S
C449 C454 1.501 . S
C450 C451 1.387 . S
C450 N453 1.341 . S
C451 C449 1.400 . S
C451 C450 1.387 . S
N452 Co443 2.022 . S
N452 C449 1.351 . S
N452 N453 1.365 . S
N453 C450 1.341 . S
N453 N452 1.365 . S
N453 H473 0.862 . S
C454 C449 1.501 . S
C454 H455 0.961 . S
C454 H456 0.961 . S
C454 H457 0.960 . S
H455 C454 0.961 . S
H456 C454 0.961 . S
H457 C454 0.960 . S
C458 N459 1.342 . S
C458 C462 1.401 . S
C458 C463 1.499 . S
N459 Co442 1.989 . S
N459 C458 1.342 . S
N459 N460 1.388 . S
N460 Co443 1.993 . S
N460 N459 1.388 . S
N460 C461 1.346 . S
C461 N460 1.346 . S
C461 C462 1.396 . S
C461 C471 1.510 . S
C462 C458 1.401 . S
C462 C461 1.396 . S
C463 C458 1.499 . S
C463 H464 0.959 . S
C463 H465 0.960 . S
C463 H466 0.961 . S
H464 C463 0.959 . S
H465 C463 0.960 . S
H466 C463 0.961 . S
O467 Co442 1.967 . S
O467 C475 1.258 . S
O468 Co443 1.941 . S
O468 C475 1.266 . S
H469 C471 0.959 . S
H470 C471 0.961 . S
C471 C461 1.510 . S
C471 H469 0.959 . S
C471 H470 0.961 . S
C471 H472 0.960 . S
H472 C471 0.960 . S
H473 N453 0.862 . S
O474 Co442 1.920 . S
O474 C447 1.289 . S
C475 O467 1.258 . S
C475 O468 1.266 . S
Co476 O479 1.970 . S
Co476 N493 1.989 . S
Co476 O501 1.967 . S
Co476 O508 1.920 . S
Co477 O480 1.966 . S
Co477 N486 2.022 . S
Co477 N494 1.993 . S
Co477 O502 1.941 . S
C478 O479 1.258 . S
C478 O480 1.263 . S
O479 Co476 1.970 . S
O479 C478 1.258 . S
O480 Co477 1.966 . S
O480 C478 1.263 . S
C481 O482 1.235 . S
C481 O508 1.289 . S
O482 C481 1.235 . S
C483 C485 1.400 . S
C483 N486 1.351 . S
C483 C488 1.501 . S
C484 C485 1.387 . S
C484 N487 1.341 . S
C485 C483 1.400 . S
C485 C484 1.387 . S
N486 Co477 2.022 . S
N486 C483 1.351 . S
N486 N487 1.365 . S
N487 C484 1.341 . S
N487 N486 1.365 . S
N487 H507 0.862 . S
C488 C483 1.501 . S
C488 H489 0.961 . S
C488 H490 0.961 . S
C488 H491 0.960 . S
H489 C488 0.961 . S
H490 C488 0.961 . S
H491 C488 0.960 . S
C492 N493 1.342 . S
C492 C496 1.401 . S
C492 C497 1.499 . S
N493 Co476 1.989 . S
N493 C492 1.342 . S
N493 N494 1.388 . S
N494 Co477 1.993 . S
N494 N493 1.388 . S
N494 C495 1.346 . S
C495 N494 1.346 . S
C495 C496 1.396 . S
C495 C505 1.510 . S
C496 C492 1.401 . S
C496 C495 1.396 . S
C497 C492 1.499 . S
C497 H498 0.959 . S
C497 H499 0.960 . S
C497 H500 0.961 . S
H498 C497 0.959 . S
H499 C497 0.960 . S
H500 C497 0.961 . S
O501 Co476 1.967 . S
O501 C509 1.258 . S
O502 Co477 1.941 . S
O502 C509 1.266 . S
H503 C505 0.959 . S
H504 C505 0.961 . S
C505 C495 1.510 . S
C505 H503 0.959 . S
C505 H504 0.961 . S
C505 H506 0.960 . S
H506 C505 0.960 . S
H507 N487 0.862 . S
O508 Co476 1.920 . S
O508 C481 1.289 . S
C509 O501 1.258 . S
C509 O502 1.266 . S
Co510 O513 1.970 . S
Co510 N527 1.989 . S
Co510 O535 1.967 . S
Co510 O542 1.920 . S
Co511 O514 1.966 . S
Co511 N520 2.022 . S
Co511 N528 1.993 . S
Co511 O536 1.941 . S
C512 O513 1.258 . S
C512 O514 1.263 . S
O513 Co510 1.970 . S
O513 C512 1.258 . S
O514 Co511 1.966 . S
O514 C512 1.263 . S
C515 O516 1.235 . S
C515 O542 1.289 . S
O516 C515 1.235 . S
C517 C519 1.400 . S
C517 N520 1.351 . S
C517 C522 1.501 . S
C518 C519 1.387 . S
C518 N521 1.341 . S
C519 C517 1.400 . S
C519 C518 1.387 . S
N520 Co511 2.022 . S
N520 C517 1.351 . S
N520 N521 1.365 . S
N521 C518 1.341 . S
N521 N520 1.365 . S
N521 H541 0.862 . S
C522 C517 1.501 . S
C522 H523 0.961 . S
C522 H524 0.962 . S
C522 H525 0.958 1_556 S
H523 C522 0.961 . S
H524 C522 0.962 . S
H525 C522 0.958 1_554 S
C526 N527 1.342 . S
C526 C530 1.401 . S
C526 C531 1.499 . S
N527 Co510 1.989 . S
N527 C526 1.342 . S
N527 N528 1.388 . S
N528 Co511 1.993 . S
N528 N527 1.388 . S
N528 C529 1.346 . S
C529 N528 1.346 . S
C529 C530 1.396 . S
C529 C539 1.510 . S
C530 C526 1.401 . S
C530 C529 1.396 . S
C531 C526 1.499 . S
C531 H532 0.959 . S
C531 H533 0.960 . S
C531 H534 0.961 . S
H532 C531 0.959 . S
H533 C531 0.960 . S
H534 C531 0.961 . S
O535 Co510 1.967 . S
O535 C543 1.258 . S
O536 Co511 1.941 . S
O536 C543 1.266 . S
H537 C539 0.959 . S
H538 C539 0.961 . S
C539 C529 1.510 . S
C539 H537 0.959 . S
C539 H538 0.961 . S
C539 H540 0.960 . S
H540 C539 0.960 . S
H541 N521 0.862 . S
O542 Co510 1.920 . S
O542 C515 1.289 . S
C543 O535 1.258 . S
C543 O536 1.266 . S
Co544 O547 1.970 . S
Co544 N561 1.989 . S
Co544 O569 1.967 . S
Co544 O576 1.920 . S
Co545 O548 1.966 . S
Co545 N554 2.022 . S
Co545 N562 1.993 . S
Co545 O570 1.941 . S
C546 O547 1.258 . S
C546 O548 1.263 . S
O547 Co544 1.970 . S
O547 C546 1.258 . S
O548 Co545 1.966 . S
O548 C546 1.263 . S
C549 O550 1.235 . S
C549 O576 1.289 . S
O550 C549 1.235 . S
C551 C553 1.400 . S
C551 N554 1.351 . S
C551 C556 1.502 . S
C552 C553 1.387 . S
C552 N555 1.341 . S
C553 C551 1.400 . S
C553 C552 1.387 . S
N554 Co545 2.022 . S
N554 C551 1.351 . S
N554 N555 1.365 . S
N555 C552 1.341 . S
N555 N554 1.365 . S
N555 H575 0.862 . S
C556 C551 1.502 . S
C556 H557 0.963 . S
C556 H558 0.963 . S
C556 H559 0.955 1_556 S
H557 C556 0.963 . S
H558 C556 0.963 . S
H559 C556 0.955 1_554 S
C560 N561 1.342 . S
C560 C564 1.401 . S
C560 C565 1.499 . S
N561 Co544 1.989 . S
N561 C560 1.342 . S
N561 N562 1.388 . S
N562 Co545 1.993 . S
N562 N561 1.388 . S
N562 C563 1.346 . S
C563 N562 1.346 . S
C563 C564 1.396 . S
C563 C573 1.510 . S
C564 C560 1.401 . S
C564 C563 1.396 . S
C565 C560 1.499 . S
C565 H566 0.959 . S
C565 H567 0.960 . S
C565 H568 0.961 . S
H566 C565 0.959 . S
H567 C565 0.960 . S
H568 C565 0.961 . S
O569 Co544 1.967 . S
O569 C577 1.258 . S
O570 Co545 1.941 . S
O570 C577 1.266 . S
H571 C573 0.959 . S
H572 C573 0.961 . S
C573 C563 1.510 . S
C573 H571 0.959 . S
C573 H572 0.961 . S
C573 H574 0.960 . S
H574 C573 0.960 . S
H575 N555 0.862 . S
O576 Co544 1.920 . S
O576 C549 1.289 . S
C577 O569 1.258 . S
C577 O570 1.266 . S
Co578 O581 1.970 . S
Co578 N595 1.989 . S
Co578 O603 1.967 . S
Co578 O610 1.920 . S
Co579 O582 1.966 . S
Co579 N588 2.022 . S
Co579 N596 1.993 . S
Co579 O604 1.941 . S
C580 O581 1.258 . S
C580 O582 1.263 . S
O581 Co578 1.970 . S
O581 C580 1.258 . S
O582 Co579 1.966 . S
O582 C580 1.263 . S
C583 O584 1.235 . S
C583 O610 1.289 . S
O584 C583 1.235 . S
C585 C587 1.400 . S
C585 N588 1.351 . S
C585 C590 1.502 . S
C586 C587 1.387 . S
C586 N589 1.341 . S
C587 C585 1.400 . S
C587 C586 1.387 . S
N588 Co579 2.022 . S
N588 C585 1.351 . S
N588 N589 1.365 . S
N589 C586 1.341 . S
N589 N588 1.365 . S
N589 H609 0.862 . S
C590 C585 1.502 . S
C590 H591 0.962 . S
C590 H592 0.962 . S
C590 H593 0.957 1_556 S
H591 C590 0.962 . S
H592 C590 0.962 . S
H593 C590 0.957 1_554 S
C594 N595 1.342 . S
C594 C598 1.401 . S
C594 C599 1.499 . S
N595 Co578 1.989 . S
N595 C594 1.342 . S
N595 N596 1.388 . S
N596 Co579 1.993 . S
N596 N595 1.388 . S
N596 C597 1.346 . S
C597 N596 1.346 . S
C597 C598 1.396 . S
C597 C607 1.510 . S
C598 C594 1.401 . S
C598 C597 1.396 . S
C599 C594 1.499 . S
C599 H600 0.959 . S
C599 H601 0.960 . S
C599 H602 0.961 . S
H600 C599 0.959 . S
H601 C599 0.960 . S
H602 C599 0.961 . S
O603 Co578 1.967 . S
O603 C611 1.258 . S
O604 Co579 1.941 . S
O604 C611 1.266 . S
H605 C607 0.959 . S
H606 C607 0.961 . S
C607 C597 1.510 . S
C607 H605 0.959 . S
C607 H606 0.961 . S
C607 H608 0.960 . S
H608 C607 0.960 . S
H609 N589 0.862 . S
O610 Co578 1.920 . S
O610 C583 1.289 . S
C611 O603 1.258 . S
C611 O604 1.266 . S
Co612 O615 1.970 . S
Co612 N629 1.989 . S
Co612 O637 1.967 . S
Co612 O644 1.920 . S
Co613 O616 1.966 . S
Co613 N622 2.022 . S
Co613 N630 1.993 . S
Co613 O638 1.941 . S
C614 O615 1.258 . S
C614 O616 1.263 . S
O615 Co612 1.970 . S
O615 C614 1.258 . S
O616 Co613 1.966 . S
O616 C614 1.263 . S
C617 O618 1.235 . S
C617 O644 1.289 . S
O618 C617 1.235 . S
C619 C621 1.400 . S
C619 N622 1.351 . S
C619 C624 1.501 . S
C620 C621 1.387 . S
C620 N623 1.341 . S
C621 C619 1.400 . S
C621 C620 1.387 . S
N622 Co613 2.022 . S
N622 C619 1.351 . S
N622 N623 1.365 . S
N623 C620 1.341 . S
N623 N622 1.365 . S
N623 H643 0.862 . S
C624 C619 1.501 . S
C624 H625 0.961 . S
C624 H626 0.961 . S
C624 H627 0.960 . S
H625 C624 0.961 . S
H626 C624 0.961 . S
H627 C624 0.960 . S
C628 N629 1.342 . S
C628 C632 1.401 . S
C628 C633 1.499 . S
N629 Co612 1.989 . S
N629 C628 1.342 . S
N629 N630 1.388 . S
N630 Co613 1.993 . S
N630 N629 1.388 . S
N630 C631 1.346 . S
C631 N630 1.346 . S
C631 C632 1.396 . S
C631 C641 1.510 . S
C632 C628 1.401 . S
C632 C631 1.396 . S
C633 C628 1.499 . S
C633 H634 0.959 . S
C633 H635 0.960 . S
C633 H636 0.961 . S
H634 C633 0.959 . S
H635 C633 0.960 . S
H636 C633 0.961 . S
O637 Co612 1.967 . S
O637 C645 1.258 . S
O638 Co613 1.941 . S
O638 C645 1.266 . S
H639 C641 0.959 . S
H640 C641 0.961 . S
C641 C631 1.510 . S
C641 H639 0.959 . S
C641 H640 0.961 . S
C641 H642 0.960 . S
H642 C641 0.960 . S
H643 N623 0.862 . S
O644 Co612 1.920 . S
O644 C617 1.289 . S
C645 O637 1.258 . S
C645 O638 1.266 . S
Co646 O649 1.970 . S
Co646 N663 1.989 . S
Co646 O671 1.967 . S
Co646 O678 1.920 . S
Co647 O650 1.966 . S
Co647 N656 2.022 . S
Co647 N664 1.993 . S
Co647 O672 1.941 . S
C648 O649 1.258 . S
C648 O650 1.263 . S
O649 Co646 1.970 . S
O649 C648 1.258 . S
O650 Co647 1.966 . S
O650 C648 1.263 . S
C651 O652 1.235 . S
C651 O678 1.289 . S
O652 C651 1.235 . S
C653 C655 1.400 . S
C653 N656 1.351 . S
C653 C658 1.501 . S
C654 C655 1.387 . S
C654 N657 1.341 . S
C655 C653 1.400 . S
C655 C654 1.387 . S
N656 Co647 2.022 . S
N656 C653 1.351 . S
N656 N657 1.365 . S
N657 C654 1.341 . S
N657 N656 1.365 . S
N657 H677 0.862 . S
C658 C653 1.501 . S
C658 H659 0.961 . S
C658 H660 0.961 . S
C658 H661 0.960 . S
H659 C658 0.961 . S
H660 C658 0.961 . S
H661 C658 0.960 . S
C662 N663 1.342 . S
C662 C666 1.401 . S
C662 C667 1.499 . S
N663 Co646 1.989 . S
N663 C662 1.342 . S
N663 N664 1.388 . S
N664 Co647 1.993 . S
N664 N663 1.388 . S
N664 C665 1.346 . S
C665 N664 1.346 . S
C665 C666 1.396 . S
C665 C675 1.510 . S
C666 C662 1.401 . S
C666 C665 1.396 . S
C667 C662 1.499 . S
C667 H668 0.959 . S
C667 H669 0.960 . S
C667 H670 0.961 . S
H668 C667 0.959 . S
H669 C667 0.960 . S
H670 C667 0.961 . S
O671 Co646 1.967 . S
O671 C679 1.258 . S
O672 Co647 1.941 . S
O672 C679 1.266 . S
H673 C675 0.959 . S
H674 C675 0.961 . S
C675 C665 1.510 . S
C675 H673 0.959 . S
C675 H674 0.961 . S
C675 H676 0.960 . S
H676 C675 0.960 . S
H677 N657 0.862 . S
O678 Co646 1.920 . S
O678 C651 1.289 . S
C679 O671 1.258 . S
C679 O672 1.266 . S
Co680 O683 1.970 . S
Co680 N697 1.989 . S
Co680 O705 1.967 . S
Co680 O712 1.920 . S
Co681 O684 1.966 . S
Co681 N690 2.022 . S
Co681 N698 1.993 . S
Co681 O706 1.941 . S
C682 O683 1.258 . S
C682 O684 1.263 . S
O683 Co680 1.970 . S
O683 C682 1.258 . S
O684 Co681 1.966 . S
O684 C682 1.263 . S
C685 O686 1.235 . S
C685 O712 1.289 . S
O686 C685 1.235 . S
C687 C689 1.400 . S
C687 N690 1.351 . S
C687 C692 1.501 . S
C688 C689 1.387 . S
C688 N691 1.341 . S
C689 C687 1.400 . S
C689 C688 1.387 . S
N690 Co681 2.022 . S
N690 C687 1.351 . S
N690 N691 1.365 . S
N691 C688 1.341 . S
N691 N690 1.365 . S
N691 H711 0.862 . S
C692 C687 1.501 . S
C692 H693 0.961 . S
C692 H694 0.961 . S
C692 H695 0.960 . S
H693 C692 0.961 . S
H694 C692 0.961 . S
H695 C692 0.960 . S
C696 N697 1.342 . S
C696 C700 1.401 . S
C696 C701 1.499 . S
N697 Co680 1.989 . S
N697 C696 1.342 . S
N697 N698 1.388 . S
N698 Co681 1.993 . S
N698 N697 1.388 . S
N698 C699 1.346 . S
C699 N698 1.346 . S
C699 C700 1.396 . S
C699 C709 1.510 . S
C700 C696 1.401 . S
C700 C699 1.396 . S
C701 C696 1.499 . S
C701 H702 0.959 . S
C701 H703 0.960 . S
C701 H704 0.961 . S
H702 C701 0.959 . S
H703 C701 0.960 . S
H704 C701 0.961 . S
O705 Co680 1.967 . S
O705 C713 1.258 . S
O706 Co681 1.941 . S
O706 C713 1.266 . S
H707 C709 0.959 . S
H708 C709 0.961 . S
C709 C699 1.510 . S
C709 H707 0.959 . S
C709 H708 0.961 . S
C709 H710 0.960 . S
H710 C709 0.960 . S
H711 N691 0.862 . S
O712 Co680 1.920 . S
O712 C685 1.289 . S
C713 O705 1.258 . S
C713 O706 1.266 . S
Co714 O717 1.970 . S
Co714 N731 1.989 . S
Co714 O739 1.967 . S
Co714 O746 1.920 . S
Co715 O718 1.966 . S
Co715 N724 2.022 . S
Co715 N732 1.993 . S
Co715 O740 1.941 . S
C716 O717 1.258 . S
C716 O718 1.263 . S
O717 Co714 1.970 . S
O717 C716 1.258 . S
O718 Co715 1.966 . S
O718 C716 1.263 . S
C719 O720 1.235 1_554 S
C719 O746 1.289 1_554 S
O720 C719 1.235 1_556 S
C721 C723 1.400 . S
C721 N724 1.351 . S
C721 C726 1.501 . S
C722 C723 1.387 . S
C722 N725 1.341 . S
C723 C721 1.400 . S
C723 C722 1.387 . S
N724 Co715 2.022 . S
N724 C721 1.351 . S
N724 N725 1.365 . S
N725 C722 1.341 . S
N725 N724 1.365 . S
N725 H745 0.862 . S
C726 C721 1.501 . S
C726 H727 0.961 . S
C726 H728 0.961 . S
C726 H729 0.960 . S
H727 C726 0.961 . S
H728 C726 0.961 . S
H729 C726 0.960 . S
C730 N731 1.342 . S
C730 C734 1.401 . S
C730 C735 1.499 1_556 S
N731 Co714 1.989 . S
N731 C730 1.342 . S
N731 N732 1.388 . S
N732 Co715 1.993 . S
N732 N731 1.388 . S
N732 C733 1.346 . S
C733 N732 1.346 . S
C733 C734 1.396 . S
C733 C743 1.510 . S
C734 C730 1.401 . S
C734 C733 1.396 . S
C735 C730 1.499 1_554 S
C735 H736 0.959 . S
C735 H737 0.960 . S
C735 H738 0.961 . S
H736 C735 0.959 . S
H737 C735 0.960 . S
H738 C735 0.961 . S
O739 Co714 1.967 . S
O739 C747 1.258 . S
O740 Co715 1.941 . S
O740 C747 1.266 . S
H741 C743 0.959 . S
H742 C743 0.961 . S
C743 C733 1.510 . S
C743 H741 0.959 . S
C743 H742 0.961 . S
C743 H744 0.960 . S
H744 C743 0.960 . S
H745 N725 0.862 . S
O746 Co714 1.920 . S
O746 C719 1.289 1_556 S
C747 O739 1.258 . S
C747 O740 1.266 . S
Co748 O751 1.970 . S
Co748 N765 1.989 . S
Co748 O773 1.967 . S
Co748 O780 1.920 . S
Co749 O752 1.966 . S
Co749 N758 2.022 . S
Co749 N766 1.993 . S
Co749 O774 1.941 . S
C750 O751 1.258 . S
C750 O752 1.263 . S
O751 Co748 1.970 . S
O751 C750 1.258 . S
O752 Co749 1.966 . S
O752 C750 1.263 . S
C753 O754 1.235 1_554 S
C753 O780 1.289 1_554 S
O754 C753 1.235 1_556 S
C755 C757 1.400 . S
C755 N758 1.351 . S
C755 C760 1.501 . S
C756 C757 1.387 . S
C756 N759 1.341 . S
C757 C755 1.400 . S
C757 C756 1.387 . S
N758 Co749 2.022 . S
N758 C755 1.351 . S
N758 N759 1.365 . S
N759 C756 1.341 . S
N759 N758 1.365 . S
N759 H779 0.862 . S
C760 C755 1.501 . S
C760 H761 0.961 . S
C760 H762 0.961 . S
C760 H763 0.960 . S
H761 C760 0.961 . S
H762 C760 0.961 . S
H763 C760 0.960 . S
C764 N765 1.342 . S
C764 C768 1.401 . S
C764 C769 1.499 1_556 S
N765 Co748 1.989 . S
N765 C764 1.342 . S
N765 N766 1.388 . S
N766 Co749 1.993 . S
N766 N765 1.388 . S
N766 C767 1.346 . S
C767 N766 1.346 . S
C767 C768 1.396 . S
C767 C777 1.510 . S
C768 C764 1.401 . S
C768 C767 1.396 . S
C769 C764 1.499 1_554 S
C769 H770 0.959 . S
C769 H771 0.960 . S
C769 H772 0.961 . S
H770 C769 0.959 . S
H771 C769 0.960 . S
H772 C769 0.961 . S
O773 Co748 1.967 . S
O773 C781 1.258 . S
O774 Co749 1.941 . S
O774 C781 1.266 . S
H775 C777 0.959 . S
H776 C777 0.961 . S
C777 C767 1.510 . S
C777 H775 0.959 . S
C777 H776 0.961 . S
C777 H778 0.960 . S
H778 C777 0.960 . S
H779 N759 0.862 . S
O780 Co748 1.920 . S
O780 C753 1.289 1_556 S
C781 O773 1.258 . S
C781 O774 1.266 . S
Co782 O785 1.970 . S
Co782 N799 1.989 . S
Co782 O807 1.967 . S
Co782 O814 1.920 . S
Co783 O786 1.966 . S
Co783 N792 2.022 . S
Co783 N800 1.993 . S
Co783 O808 1.941 . S
C784 O785 1.258 . S
C784 O786 1.263 . S
O785 Co782 1.970 . S
O785 C784 1.258 . S
O786 Co783 1.966 . S
O786 C784 1.263 . S
C787 O788 1.235 1_554 S
C787 O814 1.289 1_554 S
O788 C787 1.235 1_556 S
C789 C791 1.400 . S
C789 N792 1.351 . S
C789 C794 1.501 . S
C790 C791 1.387 . S
C790 N793 1.341 . S
C791 C789 1.400 . S
C791 C790 1.387 . S
N792 Co783 2.022 . S
N792 C789 1.351 . S
N792 N793 1.365 . S
N793 C790 1.341 . S
N793 N792 1.365 . S
N793 H813 0.862 . S
C794 C789 1.501 . S
C794 H795 0.961 . S
C794 H796 0.961 . S
C794 H797 0.960 . S
H795 C794 0.961 . S
H796 C794 0.961 . S
H797 C794 0.960 . S
C798 N799 1.342 . S
C798 C802 1.401 . S
C798 C803 1.499 1_556 S
N799 Co782 1.989 . S
N799 C798 1.342 . S
N799 N800 1.388 . S
N800 Co783 1.993 . S
N800 N799 1.388 . S
N800 C801 1.346 . S
C801 N800 1.346 . S
C801 C802 1.396 . S
C801 C811 1.510 . S
C802 C798 1.401 . S
C802 C801 1.396 . S
C803 C798 1.499 1_554 S
C803 H804 0.959 . S
C803 H805 0.960 . S
C803 H806 0.961 . S
H804 C803 0.959 . S
H805 C803 0.960 . S
H806 C803 0.961 . S
O807 Co782 1.967 . S
O807 C815 1.258 . S
O808 Co783 1.941 . S
O808 C815 1.266 . S
H809 C811 0.959 . S
H810 C811 0.961 . S
C811 C801 1.510 . S
C811 H809 0.959 . S
C811 H810 0.961 . S
C811 H812 0.960 . S
H812 C811 0.960 . S
H813 N793 0.862 . S
O814 Co782 1.920 . S
O814 C787 1.289 1_556 S
C815 O807 1.258 . S
C815 O808 1.266 . S
Co816 O819 1.970 . S
Co816 N833 1.989 . S
Co816 O841 1.967 . S
Co816 O848 1.920 . S
Co817 O820 1.966 . S
Co817 N826 2.022 . S
Co817 N834 1.993 . S
Co817 O842 1.941 . S
C818 O819 1.258 . S
C818 O820 1.263 . S
O819 Co816 1.970 . S
O819 C818 1.258 . S
O820 Co817 1.966 . S
O820 C818 1.263 . S
C821 O822 1.235 . S
C821 O848 1.289 . S
O822 C821 1.235 . S
C823 C825 1.400 . S
C823 N826 1.351 . S
C823 C828 1.501 . S
C824 C825 1.387 . S
C824 N827 1.341 . S
C825 C823 1.400 . S
C825 C824 1.387 . S
N826 Co817 2.022 . S
N826 C823 1.351 . S
N826 N827 1.365 . S
N827 C824 1.341 . S
N827 N826 1.365 . S
N827 H847 0.862 . S
C828 C823 1.501 . S
C828 H829 0.961 . S
C828 H830 0.961 . S
C828 H831 0.960 . S
H829 C828 0.961 . S
H830 C828 0.961 . S
H831 C828 0.960 . S
C832 N833 1.342 . S
C832 C836 1.401 . S
C832 C837 1.499 . S
N833 Co816 1.989 . S
N833 C832 1.342 . S
N833 N834 1.388 . S
N834 Co817 1.993 . S
N834 N833 1.388 . S
N834 C835 1.346 . S
C835 N834 1.346 . S
C835 C836 1.396 . S
C835 C845 1.510 . S
C836 C832 1.401 . S
C836 C835 1.396 . S
C837 C832 1.499 . S
C837 H838 0.959 . S
C837 H839 0.960 . S
C837 H840 0.961 . S
H838 C837 0.959 . S
H839 C837 0.960 . S
H840 C837 0.961 . S
O841 Co816 1.967 . S
O841 C849 1.258 . S
O842 Co817 1.941 . S
O842 C849 1.266 . S
H843 C845 0.959 . S
H844 C845 0.961 . S
C845 C835 1.510 . S
C845 H843 0.959 . S
C845 H844 0.961 . S
C845 H846 0.960 . S
H846 C845 0.960 . S
H847 N827 0.862 . S
O848 Co816 1.920 . S
O848 C821 1.289 . S
C849 O841 1.258 . S
C849 O842 1.266 . S
Co850 O853 1.970 . S
Co850 N867 1.989 . S
Co850 O875 1.967 . S
Co850 O882 1.920 . S
Co851 O854 1.966 . S
Co851 N860 2.022 . S
Co851 N868 1.993 . S
Co851 O876 1.941 . S
C852 O853 1.258 . S
C852 O854 1.263 . S
O853 Co850 1.970 . S
O853 C852 1.258 . S
O854 Co851 1.966 . S
O854 C852 1.263 . S
C855 O856 1.235 . S
C855 O882 1.289 . S
O856 C855 1.235 . S
C857 C859 1.400 . S
C857 N860 1.351 . S
C857 C862 1.501 . S
C858 C859 1.387 . S
C858 N861 1.341 . S
C859 C857 1.400 . S
C859 C858 1.387 . S
N860 Co851 2.022 . S
N860 C857 1.351 . S
N860 N861 1.365 . S
N861 C858 1.341 . S
N861 N860 1.365 . S
N861 H881 0.862 . S
C862 C857 1.501 . S
C862 H863 0.961 . S
C862 H864 0.961 . S
C862 H865 0.960 . S
H863 C862 0.961 . S
H864 C862 0.961 . S
H865 C862 0.960 . S
C866 N867 1.342 . S
C866 C870 1.401 . S
C866 C871 1.499 . S
N867 Co850 1.989 . S
N867 C866 1.342 . S
N867 N868 1.388 . S
N868 Co851 1.993 . S
N868 N867 1.388 . S
N868 C869 1.346 . S
C869 N868 1.346 . S
C869 C870 1.396 . S
C869 C879 1.510 . S
C870 C866 1.401 . S
C870 C869 1.396 . S
C871 C866 1.499 . S
C871 H872 0.959 . S
C871 H873 0.960 . S
C871 H874 0.961 . S
H872 C871 0.959 . S
H873 C871 0.960 . S
H874 C871 0.961 . S
O875 Co850 1.967 . S
O875 C883 1.258 . S
O876 Co851 1.941 . S
O876 C883 1.266 . S
H877 C879 0.959 . S
H878 C879 0.961 . S
C879 C869 1.510 . S
C879 H877 0.959 . S
C879 H878 0.961 . S
C879 H880 0.960 . S
H880 C879 0.960 . S
H881 N861 0.862 . S
O882 Co850 1.920 . S
O882 C855 1.289 . S
C883 O875 1.258 . S
C883 O876 1.266 . S
Co884 O887 1.970 . S
Co884 N901 1.989 . S
Co884 O909 1.967 . S
Co884 O916 1.920 . S
Co885 O888 1.966 . S
Co885 N894 2.022 . S
Co885 N902 1.993 . S
Co885 O910 1.941 . S
C886 O887 1.258 . S
C886 O888 1.263 . S
O887 Co884 1.970 . S
O887 C886 1.258 . S
O888 Co885 1.966 . S
O888 C886 1.263 . S
C889 O890 1.235 . S
C889 O916 1.289 . S
O890 C889 1.235 . S
C891 C893 1.400 . S
C891 N894 1.351 . S
C891 C896 1.501 . S
C892 C893 1.387 . S
C892 N895 1.341 . S
C893 C891 1.400 . S
C893 C892 1.387 . S
N894 Co885 2.022 . S
N894 C891 1.351 . S
N894 N895 1.365 . S
N895 C892 1.341 . S
N895 N894 1.365 . S
N895 H915 0.862 . S
C896 C891 1.501 . S
C896 H897 0.961 . S
C896 H898 0.961 . S
C896 H899 0.960 . S
H897 C896 0.961 . S
H898 C896 0.961 . S
H899 C896 0.960 . S
C900 N901 1.342 . S
C900 C904 1.401 . S
C900 C905 1.499 . S
N901 Co884 1.989 . S
N901 C900 1.342 . S
N901 N902 1.388 . S
N902 Co885 1.993 . S
N902 N901 1.388 . S
N902 C903 1.346 . S
C903 N902 1.346 . S
C903 C904 1.396 . S
C903 C913 1.510 . S
C904 C900 1.401 . S
C904 C903 1.396 . S
C905 C900 1.499 . S
C905 H906 0.959 . S
C905 H907 0.960 . S
C905 H908 0.961 . S
H906 C905 0.959 . S
H907 C905 0.960 . S
H908 C905 0.961 . S
O909 Co884 1.967 . S
O909 C917 1.258 . S
O910 Co885 1.941 . S
O910 C917 1.266 . S
H911 C913 0.959 . S
H912 C913 0.961 . S
C913 C903 1.510 . S
C913 H911 0.959 . S
C913 H912 0.961 . S
C913 H914 0.960 . S
H914 C913 0.960 . S
H915 N895 0.862 . S
O916 Co884 1.920 . S
O916 C889 1.289 . S
C917 O909 1.258 . S
C917 O910 1.266 . S
Co918 O921 1.970 . S
Co918 N935 1.989 . S
Co918 O943 1.967 . S
Co918 O950 1.920 . S
Co919 O922 1.966 . S
Co919 N928 2.022 . S
Co919 N936 1.993 . S
Co919 O944 1.941 . S
C920 O921 1.258 . S
C920 O922 1.263 . S
O921 Co918 1.970 . S
O921 C920 1.258 . S
O922 Co919 1.966 . S
O922 C920 1.263 . S
C923 O924 1.235 . S
C923 O950 1.289 . S
O924 C923 1.235 . S
C925 C927 1.400 . S
C925 N928 1.351 . S
C925 C930 1.501 . S
C926 C927 1.387 . S
C926 N929 1.341 . S
C927 C925 1.400 . S
C927 C926 1.387 . S
N928 Co919 2.022 . S
N928 C925 1.351 . S
N928 N929 1.365 . S
N929 C926 1.341 . S
N929 N928 1.365 . S
N929 H949 0.862 . S
C930 C925 1.501 . S
C930 H931 0.961 . S
C930 H932 0.961 . S
C930 H933 0.960 . S
H931 C930 0.961 . S
H932 C930 0.961 . S
H933 C930 0.960 . S
C934 N935 1.342 . S
C934 C938 1.401 . S
C934 C939 1.499 . S
N935 Co918 1.989 . S
N935 C934 1.342 . S
N935 N936 1.388 . S
N936 Co919 1.993 . S
N936 N935 1.388 . S
N936 C937 1.346 . S
C937 N936 1.346 . S
C937 C938 1.396 . S
C937 C947 1.510 . S
C938 C934 1.401 . S
C938 C937 1.396 . S
C939 C934 1.499 . S
C939 H940 0.959 . S
C939 H941 0.960 . S
C939 H942 0.961 . S
H940 C939 0.959 . S
H941 C939 0.960 . S
H942 C939 0.961 . S
O943 Co918 1.967 . S
O943 C951 1.258 . S
O944 Co919 1.941 . S
O944 C951 1.266 . S
H945 C947 0.959 . S
H946 C947 0.961 . S
C947 C937 1.510 . S
C947 H945 0.959 . S
C947 H946 0.961 . S
C947 H948 0.960 . S
H948 C947 0.960 . S
H949 N929 0.862 . S
O950 Co918 1.920 . S
O950 C923 1.289 . S
C951 O943 1.258 . S
C951 O944 1.266 . S
Co952 O955 1.970 . S
Co952 N969 1.989 . S
Co952 O977 1.967 . S
Co952 O984 1.920 . S
Co953 O956 1.966 . S
Co953 N962 2.022 . S
Co953 N970 1.993 . S
Co953 O978 1.941 . S
C954 O955 1.258 . S
C954 O956 1.263 . S
O955 Co952 1.970 . S
O955 C954 1.258 . S
O956 Co953 1.966 . S
O956 C954 1.263 . S
C957 O958 1.235 . S
C957 O984 1.289 . S
O958 C957 1.235 . S
C959 C961 1.400 . S
C959 N962 1.351 . S
C959 C964 1.501 . S
C960 C961 1.387 . S
C960 N963 1.341 . S
C961 C959 1.400 . S
C961 C960 1.387 . S
N962 Co953 2.022 . S
N962 C959 1.351 . S
N962 N963 1.365 . S
N963 C960 1.341 . S
N963 N962 1.365 . S
N963 H983 0.862 . S
C964 C959 1.501 . S
C964 H965 0.961 . S
C964 H966 0.961 . S
C964 H967 0.960 . S
H965 C964 0.961 . S
H966 C964 0.961 . S
H967 C964 0.960 . S
C968 N969 1.342 . S
C968 C972 1.401 . S
C968 C973 1.499 . S
N969 Co952 1.989 . S
N969 C968 1.342 . S
N969 N970 1.388 . S
N970 Co953 1.993 . S
N970 N969 1.388 . S
N970 C971 1.346 . S
C971 N970 1.346 . S
C971 C972 1.396 . S
C971 C981 1.510 . S
C972 C968 1.401 . S
C972 C971 1.396 . S
C973 C968 1.499 . S
C973 H974 0.959 . S
C973 H975 0.960 . S
C973 H976 0.961 . S
H974 C973 0.959 . S
H975 C973 0.960 . S
H976 C973 0.961 . S
O977 Co952 1.967 . S
O977 C985 1.258 . S
O978 Co953 1.941 . S
O978 C985 1.266 . S
H979 C981 0.959 . S
H980 C981 0.961 . S
C981 C971 1.510 . S
C981 H979 0.959 . S
C981 H980 0.961 . S
C981 H982 0.960 . S
H982 C981 0.960 . S
H983 N963 0.862 . S
O984 Co952 1.920 . S
O984 C957 1.289 . S
C985 O977 1.258 . S
C985 O978 1.266 . S
Co986 O989 1.970 . S
Co986 N1003 1.989 . S
Co986 O1011 1.967 . S
Co986 O1018 1.920 . S
Co987 O990 1.966 . S
Co987 N996 2.022 . S
Co987 N1004 1.993 . S
Co987 O1012 1.941 . S
C988 O989 1.258 . S
C988 O990 1.263 . S
O989 Co986 1.970 . S
O989 C988 1.258 . S
O990 Co987 1.966 . S
O990 C988 1.263 . S
C991 O992 1.235 . S
C991 O1018 1.289 . S
O992 C991 1.235 . S
C993 C995 1.400 . S
C993 N996 1.351 . S
C993 C998 1.501 . S
C994 C995 1.387 . S
C994 N997 1.341 . S
C995 C993 1.400 . S
C995 C994 1.387 . S
N996 Co987 2.022 . S
N996 C993 1.351 . S
N996 N997 1.365 . S
N997 C994 1.341 . S
N997 N996 1.365 . S
N997 H1017 0.862 . S
C998 C993 1.501 . S
C998 H999 0.961 . S
C998 H1000 0.961 . S
C998 H1001 0.960 . S
H999 C998 0.961 . S
H1000 C998 0.961 . S
H1001 C998 0.960 . S
C1002 N1003 1.342 . S
C1002 C1006 1.401 . S
C1002 C1007 1.499 . S
N1003 Co986 1.989 . S
N1003 C1002 1.342 . S
N1003 N1004 1.388 . S
N1004 Co987 1.993 . S
N1004 N1003 1.388 . S
N1004 C1005 1.346 . S
C1005 N1004 1.346 . S
C1005 C1006 1.396 . S
C1005 C1015 1.510 . S
C1006 C1002 1.401 . S
C1006 C1005 1.396 . S
C1007 C1002 1.499 . S
C1007 H1008 0.959 . S
C1007 H1009 0.960 . S
C1007 H1010 0.961 . S
H1008 C1007 0.959 . S
H1009 C1007 0.960 . S
H1010 C1007 0.961 . S
O1011 Co986 1.967 . S
O1011 C1019 1.258 . S
O1012 Co987 1.941 . S
O1012 C1019 1.266 . S
H1013 C1015 0.959 . S
H1014 C1015 0.961 . S
C1015 C1005 1.510 . S
C1015 H1013 0.959 . S
C1015 H1014 0.961 . S
C1015 H1016 0.960 . S
H1016 C1015 0.960 . S
H1017 N997 0.862 . S
O1018 Co986 1.920 . S
O1018 C991 1.289 . S
C1019 O1011 1.258 . S
C1019 O1012 1.266 . S
Co1020 O1023 1.970 . S
Co1020 N1037 1.989 . S
Co1020 O1045 1.967 . S
Co1020 O1052 1.920 . S
Co1021 O1024 1.966 . S
Co1021 N1030 2.022 . S
Co1021 N1038 1.993 . S
Co1021 O1046 1.941 . S
C1022 O1023 1.258 . S
C1022 O1024 1.263 . S
O1023 Co1020 1.970 . S
O1023 C1022 1.258 . S
O1024 Co1021 1.966 . S
O1024 C1022 1.263 . S
C1025 O1026 1.235 . S
C1025 O1052 1.289 . S
O1026 C1025 1.235 . S
C1027 C1029 1.400 . S
C1027 N1030 1.351 . S
C1027 C1032 1.501 . S
C1028 C1029 1.387 . S
C1028 N1031 1.341 . S
C1029 C1027 1.400 . S
C1029 C1028 1.387 . S
N1030 Co1021 2.022 . S
N1030 C1027 1.351 . S
N1030 N1031 1.365 . S
N1031 C1028 1.341 . S
N1031 N1030 1.365 . S
N1031 H1051 0.862 . S
C1032 C1027 1.501 . S
C1032 H1033 0.961 . S
C1032 H1034 0.961 . S
C1032 H1035 0.960 . S
H1033 C1032 0.961 . S
H1034 C1032 0.961 . S
H1035 C1032 0.960 . S
C1036 N1037 1.342 . S
C1036 C1040 1.401 . S
C1036 C1041 1.499 . S
N1037 Co1020 1.989 . S
N1037 C1036 1.342 . S
N1037 N1038 1.388 . S
N1038 Co1021 1.993 . S
N1038 N1037 1.388 . S
N1038 C1039 1.346 . S
C1039 N1038 1.346 . S
C1039 C1040 1.396 . S
C1039 C1049 1.510 . S
C1040 C1036 1.401 . S
C1040 C1039 1.396 . S
C1041 C1036 1.499 . S
C1041 H1042 0.959 . S
C1041 H1043 0.960 . S
C1041 H1044 0.961 . S
H1042 C1041 0.959 . S
H1043 C1041 0.960 . S
H1044 C1041 0.961 . S
O1045 Co1020 1.967 . S
O1045 C1053 1.258 . S
O1046 Co1021 1.941 . S
O1046 C1053 1.266 . S
H1047 C1049 0.959 . S
H1048 C1049 0.961 . S
C1049 C1039 1.510 . S
C1049 H1047 0.959 . S
C1049 H1048 0.961 . S
C1049 H1050 0.960 . S
H1050 C1049 0.960 . S
H1051 N1031 0.862 . S
O1052 Co1020 1.920 . S
O1052 C1025 1.289 . S
C1053 O1045 1.258 . S
C1053 O1046 1.266 . S
Co1054 O1057 1.970 . S
Co1054 N1071 1.989 . S
Co1054 O1079 1.967 . S
Co1054 O1086 1.920 . S
Co1055 O1058 1.966 . S
Co1055 N1064 2.022 . S
Co1055 N1072 1.993 . S
Co1055 O1080 1.941 . S
C1056 O1057 1.258 . S
C1056 O1058 1.263 . S
O1057 Co1054 1.970 . S
O1057 C1056 1.258 . S
O1058 Co1055 1.966 . S
O1058 C1056 1.263 . S
C1059 O1060 1.235 . S
C1059 O1086 1.289 . S
O1060 C1059 1.235 . S
C1061 C1063 1.400 . S
C1061 N1064 1.351 . S
C1061 C1066 1.501 . S
C1062 C1063 1.387 . S
C1062 N1065 1.341 . S
C1063 C1061 1.400 . S
C1063 C1062 1.387 . S
N1064 Co1055 2.022 . S
N1064 C1061 1.351 . S
N1064 N1065 1.365 . S
N1065 C1062 1.341 . S
N1065 N1064 1.365 . S
N1065 H1085 0.862 . S
C1066 C1061 1.501 . S
C1066 H1067 0.961 . S
C1066 H1068 0.961 . S
C1066 H1069 0.960 . S
H1067 C1066 0.961 . S
H1068 C1066 0.961 . S
H1069 C1066 0.960 . S
C1070 N1071 1.342 . S
C1070 C1074 1.401 . S
C1070 C1075 1.499 . S
N1071 Co1054 1.989 . S
N1071 C1070 1.342 . S
N1071 N1072 1.388 . S
N1072 Co1055 1.993 . S
N1072 N1071 1.388 . S
N1072 C1073 1.346 . S
C1073 N1072 1.346 . S
C1073 C1074 1.396 . S
C1073 C1083 1.510 . S
C1074 C1070 1.401 . S
C1074 C1073 1.396 . S
C1075 C1070 1.499 . S
C1075 H1076 0.959 . S
C1075 H1077 0.960 . S
C1075 H1078 0.961 . S
H1076 C1075 0.959 . S
H1077 C1075 0.960 . S
H1078 C1075 0.961 . S
O1079 Co1054 1.967 . S
O1079 C1087 1.258 . S
O1080 Co1055 1.941 . S
O1080 C1087 1.266 . S
H1081 C1083 0.959 . S
H1082 C1083 0.961 . S
C1083 C1073 1.510 . S
C1083 H1081 0.959 . S
C1083 H1082 0.961 . S
C1083 H1084 0.960 . S
H1084 C1083 0.960 . S
H1085 N1065 0.862 . S
O1086 Co1054 1.920 . S
O1086 C1059 1.289 . S
C1087 O1079 1.258 . S
C1087 O1080 1.266 . S
Co1088 O1091 1.970 . S
Co1088 N1105 1.989 . S
Co1088 O1113 1.967 . S
Co1088 O1120 1.920 . S
Co1089 O1092 1.966 . S
Co1089 N1098 2.022 . S
Co1089 N1106 1.993 . S
Co1089 O1114 1.941 . S
C1090 O1091 1.258 . S
C1090 O1092 1.263 . S
O1091 Co1088 1.970 . S
O1091 C1090 1.258 . S
O1092 Co1089 1.966 . S
O1092 C1090 1.263 . S
C1093 O1094 1.235 . S
C1093 O1120 1.289 . S
O1094 C1093 1.235 . S
C1095 C1097 1.400 . S
C1095 N1098 1.351 . S
C1095 C1100 1.501 . S
C1096 C1097 1.387 . S
C1096 N1099 1.341 . S
C1097 C1095 1.400 . S
C1097 C1096 1.387 . S
N1098 Co1089 2.022 . S
N1098 C1095 1.351 . S
N1098 N1099 1.365 . S
N1099 C1096 1.341 . S
N1099 N1098 1.365 . S
N1099 H1119 0.862 . S
C1100 C1095 1.501 . S
C1100 H1101 0.961 . S
C1100 H1102 0.961 . S
C1100 H1103 0.960 . S
H1101 C1100 0.961 . S
H1102 C1100 0.961 . S
H1103 C1100 0.960 . S
C1104 N1105 1.342 . S
C1104 C1108 1.401 . S
C1104 C1109 1.499 . S
N1105 Co1088 1.989 . S
N1105 C1104 1.342 . S
N1105 N1106 1.388 . S
N1106 Co1089 1.993 . S
N1106 N1105 1.388 . S
N1106 C1107 1.346 . S
C1107 N1106 1.346 . S
C1107 C1108 1.396 . S
C1107 C1117 1.510 . S
C1108 C1104 1.401 . S
C1108 C1107 1.396 . S
C1109 C1104 1.499 . S
C1109 H1110 0.959 . S
C1109 H1111 0.960 . S
C1109 H1112 0.961 . S
H1110 C1109 0.959 . S
H1111 C1109 0.960 . S
H1112 C1109 0.961 . S
O1113 Co1088 1.967 . S
O1113 C1121 1.258 . S
O1114 Co1089 1.941 . S
O1114 C1121 1.266 . S
H1115 C1117 0.959 . S
H1116 C1117 0.961 . S
C1117 C1107 1.510 . S
C1117 H1115 0.959 . S
C1117 H1116 0.961 . S
C1117 H1118 0.960 . S
H1118 C1117 0.960 . S
H1119 N1099 0.862 . S
O1120 Co1088 1.920 . S
O1120 C1093 1.289 . S
C1121 O1113 1.258 . S
C1121 O1114 1.266 . S
Co1122 O1125 1.970 . S
Co1122 N1139 1.989 . S
Co1122 O1147 1.967 . S
Co1122 O1154 1.920 . S
Co1123 O1126 1.966 . S
Co1123 N1132 2.022 . S
Co1123 N1140 1.993 . S
Co1123 O1148 1.941 . S
C1124 O1125 1.258 . S
C1124 O1126 1.263 . S
O1125 Co1122 1.970 . S
O1125 C1124 1.258 . S
O1126 Co1123 1.966 . S
O1126 C1124 1.263 . S
C1127 O1128 1.235 . S
C1127 O1154 1.289 . S
O1128 C1127 1.235 . S
C1129 C1131 1.400 . S
C1129 N1132 1.351 . S
C1129 C1134 1.501 . S
C1130 C1131 1.387 . S
C1130 N1133 1.341 . S
C1131 C1129 1.400 . S
C1131 C1130 1.387 . S
N1132 Co1123 2.022 . S
N1132 C1129 1.351 . S
N1132 N1133 1.365 . S
N1133 C1130 1.341 . S
N1133 N1132 1.365 . S
N1133 H1153 0.862 . S
C1134 C1129 1.501 . S
C1134 H1135 0.961 . S
C1134 H1136 0.961 . S
C1134 H1137 0.960 . S
H1135 C1134 0.961 . S
H1136 C1134 0.961 . S
H1137 C1134 0.960 . S
C1138 N1139 1.342 . S
C1138 C1142 1.401 . S
C1138 C1143 1.499 . S
N1139 Co1122 1.989 . S
N1139 C1138 1.342 . S
N1139 N1140 1.388 . S
N1140 Co1123 1.993 . S
N1140 N1139 1.388 . S
N1140 C1141 1.346 . S
C1141 N1140 1.346 . S
C1141 C1142 1.396 . S
C1141 C1151 1.510 . S
C1142 C1138 1.401 . S
C1142 C1141 1.396 . S
C1143 C1138 1.499 . S
C1143 H1144 0.959 . S
C1143 H1145 0.960 . S
C1143 H1146 0.961 . S
H1144 C1143 0.959 . S
H1145 C1143 0.960 . S
H1146 C1143 0.961 . S
O1147 Co1122 1.967 . S
O1147 C1155 1.258 . S
O1148 Co1123 1.941 . S
O1148 C1155 1.266 . S
H1149 C1151 0.959 . S
H1150 C1151 0.961 . S
C1151 C1141 1.510 . S
C1151 H1149 0.959 . S
C1151 H1150 0.961 . S
C1151 H1152 0.960 . S
H1152 C1151 0.960 . S
H1153 N1133 0.862 . S
O1154 Co1122 1.920 . S
O1154 C1127 1.289 . S
C1155 O1147 1.258 . S
C1155 O1148 1.266 . S
Co1156 O1159 1.970 . S
Co1156 N1173 1.989 . S
Co1156 O1181 1.967 . S
Co1156 O1188 1.920 . S
Co1157 O1160 1.966 . S
Co1157 N1166 2.022 . S
Co1157 N1174 1.993 . S
Co1157 O1182 1.941 . S
C1158 O1159 1.258 . S
C1158 O1160 1.263 . S
O1159 Co1156 1.970 . S
O1159 C1158 1.258 . S
O1160 Co1157 1.966 . S
O1160 C1158 1.263 . S
C1161 O1162 1.235 . S
C1161 O1188 1.289 . S
O1162 C1161 1.235 . S
C1163 C1165 1.400 . S
C1163 N1166 1.351 . S
C1163 C1168 1.501 . S
C1164 C1165 1.387 . S
C1164 N1167 1.341 . S
C1165 C1163 1.400 . S
C1165 C1164 1.387 . S
N1166 Co1157 2.022 . S
N1166 C1163 1.351 . S
N1166 N1167 1.365 . S
N1167 C1164 1.341 . S
N1167 N1166 1.365 . S
N1167 H1187 0.862 . S
C1168 C1163 1.501 . S
C1168 H1169 0.961 . S
C1168 H1170 0.961 . S
C1168 H1171 0.960 . S
H1169 C1168 0.961 . S
H1170 C1168 0.961 . S
H1171 C1168 0.960 . S
C1172 N1173 1.342 . S
C1172 C1176 1.401 . S
C1172 C1177 1.499 . S
N1173 Co1156 1.989 . S
N1173 C1172 1.342 . S
N1173 N1174 1.388 . S
N1174 Co1157 1.993 . S
N1174 N1173 1.388 . S
N1174 C1175 1.346 . S
C1175 N1174 1.346 . S
C1175 C1176 1.396 . S
C1175 C1185 1.510 . S
C1176 C1172 1.401 . S
C1176 C1175 1.396 . S
C1177 C1172 1.499 . S
C1177 H1178 0.959 . S
C1177 H1179 0.960 . S
C1177 H1180 0.961 . S
H1178 C1177 0.959 . S
H1179 C1177 0.960 . S
H1180 C1177 0.961 . S
O1181 Co1156 1.967 . S
O1181 C1189 1.258 . S
O1182 Co1157 1.941 . S
O1182 C1189 1.266 . S
H1183 C1185 0.959 . S
H1184 C1185 0.961 . S
C1185 C1175 1.510 . S
C1185 H1183 0.959 . S
C1185 H1184 0.961 . S
C1185 H1186 0.960 . S
H1186 C1185 0.960 . S
H1187 N1167 0.862 . S
O1188 Co1156 1.920 . S
O1188 C1161 1.289 . S
C1189 O1181 1.258 . S
C1189 O1182 1.266 . S
Co1190 O1193 1.970 . S
Co1190 N1207 1.989 . S
Co1190 O1215 1.967 . S
Co1190 O1222 1.920 . S
Co1191 O1194 1.966 . S
Co1191 N1200 2.022 . S
Co1191 N1208 1.993 . S
Co1191 O1216 1.941 . S
C1192 O1193 1.258 . S
C1192 O1194 1.263 . S
O1193 Co1190 1.970 . S
O1193 C1192 1.258 . S
O1194 Co1191 1.966 . S
O1194 C1192 1.263 . S
C1195 O1196 1.235 . S
C1195 O1222 1.289 . S
O1196 C1195 1.235 . S
C1197 C1199 1.400 . S
C1197 N1200 1.351 . S
C1197 C1202 1.501 . S
C1198 C1199 1.387 . S
C1198 N1201 1.341 . S
C1199 C1197 1.400 . S
C1199 C1198 1.387 . S
N1200 Co1191 2.022 . S
N1200 C1197 1.351 . S
N1200 N1201 1.365 . S
N1201 C1198 1.341 . S
N1201 N1200 1.365 . S
N1201 H1221 0.862 . S
C1202 C1197 1.501 . S
C1202 H1203 0.961 . S
C1202 H1204 0.961 . S
C1202 H1205 0.960 . S
H1203 C1202 0.961 . S
H1204 C1202 0.961 . S
H1205 C1202 0.960 . S
C1206 N1207 1.342 . S
C1206 C1210 1.401 . S
C1206 C1211 1.499 . S
N1207 Co1190 1.989 . S
N1207 C1206 1.342 . S
N1207 N1208 1.388 . S
N1208 Co1191 1.993 . S
N1208 N1207 1.388 . S
N1208 C1209 1.346 . S
C1209 N1208 1.346 . S
C1209 C1210 1.396 . S
C1209 C1219 1.510 . S
C1210 C1206 1.401 . S
C1210 C1209 1.396 . S
C1211 C1206 1.499 . S
C1211 H1212 0.959 . S
C1211 H1213 0.960 . S
C1211 H1214 0.961 . S
H1212 C1211 0.959 . S
H1213 C1211 0.960 . S
H1214 C1211 0.961 . S
O1215 Co1190 1.967 . S
O1215 C1223 1.258 . S
O1216 Co1191 1.941 . S
O1216 C1223 1.266 . S
H1217 C1219 0.959 . S
H1218 C1219 0.961 . S
C1219 C1209 1.510 . S
C1219 H1217 0.959 . S
C1219 H1218 0.961 . S
C1219 H1220 0.960 . S
H1220 C1219 0.960 . S
H1221 N1201 0.862 . S
O1222 Co1190 1.920 . S
O1222 C1195 1.289 . S
C1223 O1215 1.258 . S
C1223 O1216 1.266 . S
C1224 C1225 1.349 . S
C1224 C1226 1.327 . S
C1224 H1249 0.950 . S
C1225 C1224 1.349 . S
C1225 C1241 1.349 . S
C1226 C1224 1.327 . S
C1226 C1245 1.429 . S
C1226 H1250 0.950 . S
C1227 C1244 1.574 . S
C1227 C1246 1.368 . S
C1227 H1251 0.949 . S
H1228 C1232 0.949 . S
C1229 C1230 1.349 . S
C1229 C1231 1.327 . S
C1229 H1252 0.950 1_556 S
C1230 C1229 1.349 . S
C1230 C1242 1.349 . S
C1231 C1229 1.327 . S
C1231 C1247 1.429 . S
C1231 H1253 0.950 . S
C1232 H1228 0.949 . S
C1232 C1240 1.574 . S
C1232 C1248 1.368 . S
H1233 C1241 0.950 . S
H1234 C1239 0.950 . S
H1235 C1240 0.949 . S
H1236 C1242 0.950 . S
H1237 C1243 0.950 . S
H1238 C1244 0.949 . S
C1239 H1234 0.950 . S
C1239 C1241 1.327 . S
C1239 C1245 1.429 . S
C1240 C1232 1.574 . S
C1240 H1235 0.949 . S
C1240 C1246 1.368 . S
C1241 C1225 1.349 . S
C1241 H1233 0.950 . S
C1241 C1239 1.327 . S
C1242 C1230 1.349 . S
C1242 H1236 0.950 . S
C1242 C1243 1.327 . S
C1243 H1237 0.950 . S
C1243 C1242 1.327 . S
C1243 C1247 1.429 . S
C1244 C1227 1.574 . S
C1244 H1238 0.949 . S
C1244 C1248 1.368 . S
C1245 C1226 1.429 . S
C1245 C1239 1.429 . S
C1245 C1246 1.523 . S
C1246 C1227 1.368 . S
C1246 C1240 1.368 . S
C1246 C1245 1.523 . S
C1247 C1231 1.429 . S
C1247 C1243 1.429 . S
C1247 C1248 1.523 . S
C1248 C1232 1.368 . S
C1248 C1244 1.368 . S
C1248 C1247 1.523 . S
H1249 C1224 0.950 . S
H1250 C1226 0.950 . S
H1251 C1227 0.949 . S
H1252 C1229 0.950 1_554 S
H1253 C1231 0.950 . S
C1254 C1255 1.349 . S
C1254 C1256 1.327 . S
C1254 H1279 0.950 . S
C1255 C1254 1.349 . S
C1255 C1271 1.349 . S
C1256 C1254 1.327 . S
C1256 C1275 1.429 . S
C1256 H1280 0.950 . S
C1257 C1274 1.574 . S
C1257 C1276 1.368 . S
C1257 H1281 0.949 . S
H1258 C1262 0.949 . S
C1259 C1260 1.349 . S
C1259 C1261 1.327 . S
C1259 H1282 0.950 1_556 S
C1260 C1259 1.349 . S
C1260 C1272 1.349 . S
C1261 C1259 1.327 . S
C1261 C1277 1.429 . S
C1261 H1283 0.950 . S
C1262 H1258 0.949 . S
C1262 C1270 1.574 . S
C1262 C1278 1.368 . S
H1263 C1271 0.950 . S
H1264 C1269 0.950 . S
H1265 C1270 0.949 . S
H1266 C1272 0.950 . S
H1267 C1273 0.950 . S
H1268 C1274 0.949 . S
C1269 H1264 0.950 . S
C1269 C1271 1.327 . S
C1269 C1275 1.429 . S
C1270 C1262 1.574 . S
C1270 H1265 0.949 . S
C1270 C1276 1.368 . S
C1271 C1255 1.349 . S
C1271 H1263 0.950 . S
C1271 C1269 1.327 . S
C1272 C1260 1.349 . S
C1272 H1266 0.950 . S
C1272 C1273 1.327 . S
C1273 H1267 0.950 . S
C1273 C1272 1.327 . S
C1273 C1277 1.429 . S
C1274 C1257 1.574 . S
C1274 H1268 0.949 . S
C1274 C1278 1.368 . S
C1275 C1256 1.429 . S
C1275 C1269 1.429 . S
C1275 C1276 1.523 . S
C1276 C1257 1.368 . S
C1276 C1270 1.368 . S
C1276 C1275 1.523 . S
C1277 C1261 1.429 . S
C1277 C1273 1.429 . S
C1277 C1278 1.523 . S
C1278 C1262 1.368 . S
C1278 C1274 1.368 . S
C1278 C1277 1.523 . S
H1279 C1254 0.950 . S
H1280 C1256 0.950 . S
H1281 C1257 0.949 . S
H1282 C1259 0.950 1_554 S
H1283 C1261 0.950 . S
C1284 C1285 1.349 . S
C1284 C1286 1.327 . S
C1284 H1309 0.950 . S
C1285 C1284 1.349 . S
C1285 C1301 1.349 . S
C1286 C1284 1.327 . S
C1286 C1305 1.429 . S
C1286 H1310 0.950 . S
C1287 C1304 1.574 . S
C1287 C1306 1.368 . S
C1287 H1311 0.949 . S
H1288 C1292 0.949 . S
C1289 C1290 1.349 . S
C1289 C1291 1.327 . S
C1289 H1312 0.950 . S
C1290 C1289 1.349 . S
C1290 C1302 1.349 . S
C1291 C1289 1.327 . S
C1291 C1307 1.429 . S
C1291 H1313 0.950 . S
C1292 H1288 0.949 . S
C1292 C1300 1.574 . S
C1292 C1308 1.368 . S
H1293 C1301 0.950 . S
H1294 C1299 0.950 . S
H1295 C1300 0.949 . S
H1296 C1302 0.950 . S
H1297 C1303 0.950 . S
H1298 C1304 0.949 . S
C1299 H1294 0.950 . S
C1299 C1301 1.327 . S
C1299 C1305 1.429 . S
C1300 C1292 1.574 . S
C1300 H1295 0.949 . S
C1300 C1306 1.368 . S
C1301 C1285 1.349 . S
C1301 H1293 0.950 . S
C1301 C1299 1.327 . S
C1302 C1290 1.349 . S
C1302 H1296 0.950 . S
C1302 C1303 1.327 . S
C1303 H1297 0.950 . S
C1303 C1302 1.327 . S
C1303 C1307 1.429 . S
C1304 C1287 1.574 . S
C1304 H1298 0.949 . S
C1304 C1308 1.368 . S
C1305 C1286 1.429 . S
C1305 C1299 1.429 . S
C1305 C1306 1.523 . S
C1306 C1287 1.368 . S
C1306 C1300 1.368 . S
C1306 C1305 1.523 . S
C1307 C1291 1.429 . S
C1307 C1303 1.429 . S
C1307 C1308 1.523 . S
C1308 C1292 1.368 . S
C1308 C1304 1.368 . S
C1308 C1307 1.523 . S
H1309 C1284 0.950 . S
H1310 C1286 0.950 . S
H1311 C1287 0.949 . S
H1312 C1289 0.950 . S
H1313 C1291 0.950 . S
C1314 C1315 1.349 . S
C1314 C1316 1.327 . S
C1314 H1339 0.950 . S
C1315 C1314 1.349 . S
C1315 C1331 1.349 . S
C1316 C1314 1.327 . S
C1316 C1335 1.429 . S
C1316 H1340 0.950 . S
C1317 C1334 1.574 . S
C1317 C1336 1.368 . S
C1317 H1341 0.949 . S
H1318 C1322 0.949 . S
C1319 C1320 1.349 . S
C1319 C1321 1.327 . S
C1319 H1342 0.950 . S
C1320 C1319 1.349 . S
C1320 C1332 1.349 . S
C1321 C1319 1.327 . S
C1321 C1337 1.429 . S
C1321 H1343 0.950 . S
C1322 H1318 0.949 . S
C1322 C1330 1.574 . S
C1322 C1338 1.368 . S
H1323 C1331 0.950 . S
H1324 C1329 0.950 . S
H1325 C1330 0.949 . S
H1326 C1332 0.950 . S
H1327 C1333 0.950 . S
H1328 C1334 0.949 . S
C1329 H1324 0.950 . S
C1329 C1331 1.327 . S
C1329 C1335 1.429 . S
C1330 C1322 1.574 . S
C1330 H1325 0.949 . S
C1330 C1336 1.368 . S
C1331 C1315 1.349 . S
C1331 H1323 0.950 . S
C1331 C1329 1.327 . S
C1332 C1320 1.349 . S
C1332 H1326 0.950 . S
C1332 C1333 1.327 . S
C1333 H1327 0.950 . S
C1333 C1332 1.327 . S
C1333 C1337 1.429 . S
C1334 C1317 1.574 . S
C1334 H1328 0.949 . S
C1334 C1338 1.368 . S
C1335 C1316 1.429 . S
C1335 C1329 1.429 . S
C1335 C1336 1.523 . S
C1336 C1317 1.368 . S
C1336 C1330 1.368 . S
C1336 C1335 1.523 . S
C1337 C1321 1.429 . S
C1337 C1333 1.429 . S
C1337 C1338 1.523 . S
C1338 C1322 1.368 . S
C1338 C1334 1.368 . S
C1338 C1337 1.523 . S
H1339 C1314 0.950 . S
H1340 C1316 0.950 . S
H1341 C1317 0.949 . S
H1342 C1319 0.950 . S
H1343 C1321 0.950 . S
C1344 C1345 1.349 . S
C1344 C1346 1.327 . S
C1344 H1369 0.950 . S
C1345 C1344 1.349 . S
C1345 C1361 1.349 . S
C1346 C1344 1.327 . S
C1346 C1365 1.429 . S
C1346 H1370 0.950 . S
C1347 C1364 1.574 . S
C1347 C1366 1.368 . S
C1347 H1371 0.949 . S
H1348 C1352 0.949 . S
C1349 C1350 1.349 . S
C1349 C1351 1.327 . S
C1349 H1372 0.950 . S
C1350 C1349 1.349 . S
C1350 C1362 1.349 . S
C1351 C1349 1.327 . S
C1351 C1367 1.429 . S
C1351 H1373 0.950 . S
C1352 H1348 0.949 . S
C1352 C1360 1.574 . S
C1352 C1368 1.368 . S
H1353 C1361 0.950 . S
H1354 C1359 0.950 . S
H1355 C1360 0.949 . S
H1356 C1362 0.950 . S
H1357 C1363 0.950 . S
H1358 C1364 0.949 . S
C1359 H1354 0.950 . S
C1359 C1361 1.327 . S
C1359 C1365 1.429 . S
C1360 C1352 1.574 . S
C1360 H1355 0.949 . S
C1360 C1366 1.368 . S
C1361 C1345 1.349 . S
C1361 H1353 0.950 . S
C1361 C1359 1.327 . S
C1362 C1350 1.349 . S
C1362 H1356 0.950 . S
C1362 C1363 1.327 . S
C1363 H1357 0.950 . S
C1363 C1362 1.327 . S
C1363 C1367 1.429 . S
C1364 C1347 1.574 . S
C1364 H1358 0.949 . S
C1364 C1368 1.368 . S
C1365 C1346 1.429 . S
C1365 C1359 1.429 . S
C1365 C1366 1.523 . S
C1366 C1347 1.368 . S
C1366 C1360 1.368 . S
C1366 C1365 1.523 . S
C1367 C1351 1.429 . S
C1367 C1363 1.429 . S
C1367 C1368 1.523 . S
C1368 C1352 1.368 . S
C1368 C1364 1.368 . S
C1368 C1367 1.523 . S
H1369 C1344 0.950 . S
H1370 C1346 0.950 . S
H1371 C1347 0.949 . S
H1372 C1349 0.950 . S
H1373 C1351 0.950 . S
C1374 C1375 1.349 . S
C1374 C1376 1.327 . S
C1374 H1399 0.950 . S
C1375 C1374 1.349 . S
C1375 C1391 1.349 . S
C1376 C1374 1.327 . S
C1376 C1395 1.429 . S
C1376 H1400 0.950 . S
C1377 C1394 1.574 . S
C1377 C1396 1.368 . S
C1377 H1401 0.949 . S
H1378 C1382 0.949 . S
C1379 C1380 1.349 . S
C1379 C1381 1.327 . S
C1379 H1402 0.950 . S
C1380 C1379 1.349 . S
C1380 C1392 1.349 . S
C1381 C1379 1.327 . S
C1381 C1397 1.429 . S
C1381 H1403 0.950 . S
C1382 H1378 0.949 . S
C1382 C1390 1.574 . S
C1382 C1398 1.368 . S
H1383 C1391 0.950 . S
H1384 C1389 0.950 . S
H1385 C1390 0.949 . S
H1386 C1392 0.950 . S
H1387 C1393 0.950 . S
H1388 C1394 0.949 . S
C1389 H1384 0.950 . S
C1389 C1391 1.327 . S
C1389 C1395 1.429 . S
C1390 C1382 1.574 . S
C1390 H1385 0.949 . S
C1390 C1396 1.368 . S
C1391 C1375 1.349 . S
C1391 H1383 0.950 . S
C1391 C1389 1.327 . S
C1392 C1380 1.349 . S
C1392 H1386 0.950 . S
C1392 C1393 1.327 . S
C1393 H1387 0.950 . S
C1393 C1392 1.327 . S
C1393 C1397 1.429 . S
C1394 C1377 1.574 . S
C1394 H1388 0.949 . S
C1394 C1398 1.368 . S
C1395 C1376 1.429 . S
C1395 C1389 1.429 . S
C1395 C1396 1.523 . S
C1396 C1377 1.368 . S
C1396 C1390 1.368 . S
C1396 C1395 1.523 . S
C1397 C1381 1.429 . S
C1397 C1393 1.429 . S
C1397 C1398 1.523 . S
C1398 C1382 1.368 . S
C1398 C1394 1.368 . S
C1398 C1397 1.523 . S
H1399 C1374 0.950 . S
H1400 C1376 0.950 . S
H1401 C1377 0.949 . S
H1402 C1379 0.950 . S
H1403 C1381 0.950 . S
C1404 C1405 1.349 . S
C1404 C1406 1.327 . S
C1404 H1429 0.950 . S
C1405 C1404 1.349 . S
C1405 C1421 1.349 . S
C1406 C1404 1.327 . S
C1406 C1425 1.429 . S
C1406 H1430 0.950 . S
C1407 C1424 1.574 . S
C1407 C1426 1.368 . S
C1407 H1431 0.949 . S
H1408 C1412 0.949 . S
C1409 C1410 1.349 . S
C1409 C1411 1.327 . S
C1409 H1432 0.950 . S
C1410 C1409 1.349 . S
C1410 C1422 1.349 . S
C1411 C1409 1.327 . S
C1411 C1427 1.429 . S
C1411 H1433 0.950 . S
C1412 H1408 0.949 . S
C1412 C1420 1.574 . S
C1412 C1428 1.368 . S
H1413 C1421 0.950 . S
H1414 C1419 0.950 . S
H1415 C1420 0.949 . S
H1416 C1422 0.950 . S
H1417 C1423 0.950 . S
H1418 C1424 0.949 . S
C1419 H1414 0.950 . S
C1419 C1421 1.327 . S
C1419 C1425 1.429 . S
C1420 C1412 1.574 . S
C1420 H1415 0.949 . S
C1420 C1426 1.368 . S
C1421 C1405 1.349 . S
C1421 H1413 0.950 . S
C1421 C1419 1.327 . S
C1422 C1410 1.349 . S
C1422 H1416 0.950 . S
C1422 C1423 1.327 . S
C1423 H1417 0.950 . S
C1423 C1422 1.327 . S
C1423 C1427 1.429 . S
C1424 C1407 1.574 . S
C1424 H1418 0.949 . S
C1424 C1428 1.368 . S
C1425 C1406 1.429 . S
C1425 C1419 1.429 . S
C1425 C1426 1.523 . S
C1426 C1407 1.368 . S
C1426 C1420 1.368 . S
C1426 C1425 1.523 . S
C1427 C1411 1.429 . S
C1427 C1423 1.429 . S
C1427 C1428 1.523 . S
C1428 C1412 1.368 . S
C1428 C1424 1.368 . S
C1428 C1427 1.523 . S
H1429 C1404 0.950 . S
H1430 C1406 0.950 . S
H1431 C1407 0.949 . S
H1432 C1409 0.950 . S
H1433 C1411 0.950 . S
C1434 C1435 1.349 . S
C1434 C1436 1.327 . S
C1434 H1459 0.950 . S
C1435 C1434 1.349 . S
C1435 C1451 1.349 . S
C1436 C1434 1.327 . S
C1436 C1455 1.429 . S
C1436 H1460 0.950 . S
C1437 C1454 1.574 . S
C1437 C1456 1.368 . S
C1437 H1461 0.949 . S
H1438 C1442 0.949 . S
C1439 C1440 1.349 . S
C1439 C1441 1.327 . S
C1439 H1462 0.950 . S
C1440 C1439 1.349 . S
C1440 C1452 1.349 . S
C1441 C1439 1.327 . S
C1441 C1457 1.429 . S
C1441 H1463 0.950 . S
C1442 H1438 0.949 . S
C1442 C1450 1.574 . S
C1442 C1458 1.368 . S
H1443 C1451 0.950 . S
H1444 C1449 0.950 . S
H1445 C1450 0.949 . S
H1446 C1452 0.950 . S
H1447 C1453 0.950 . S
H1448 C1454 0.949 . S
C1449 H1444 0.950 . S
C1449 C1451 1.327 . S
C1449 C1455 1.429 . S
C1450 C1442 1.574 . S
C1450 H1445 0.949 . S
C1450 C1456 1.368 . S
C1451 C1435 1.349 . S
C1451 H1443 0.950 . S
C1451 C1449 1.327 . S
C1452 C1440 1.349 . S
C1452 H1446 0.950 . S
C1452 C1453 1.327 . S
C1453 H1447 0.950 . S
C1453 C1452 1.327 . S
C1453 C1457 1.429 . S
C1454 C1437 1.574 . S
C1454 H1448 0.949 . S
C1454 C1458 1.368 . S
C1455 C1436 1.429 . S
C1455 C1449 1.429 . S
C1455 C1456 1.523 . S
C1456 C1437 1.368 . S
C1456 C1450 1.368 . S
C1456 C1455 1.523 . S
C1457 C1441 1.429 . S
C1457 C1453 1.429 . S
C1457 C1458 1.523 . S
C1458 C1442 1.368 . S
C1458 C1454 1.368 . S
C1458 C1457 1.523 . S
H1459 C1434 0.950 . S
H1460 C1436 0.950 . S
H1461 C1437 0.949 . S
H1462 C1439 0.950 . S
H1463 C1441 0.950 . S
C1464 C1465 1.349 . S
C1464 C1466 1.327 . S
C1464 H1489 0.950 . S
C1465 C1464 1.349 . S
C1465 C1481 1.349 . S
C1466 C1464 1.327 . S
C1466 C1485 1.429 . S
C1466 H1490 0.950 . S
C1467 C1484 1.574 . S
C1467 C1486 1.368 . S
C1467 H1491 0.949 . S
H1468 C1472 0.949 . S
C1469 C1470 1.349 . S
C1469 C1471 1.327 . S
C1469 H1492 0.950 . S
C1470 C1469 1.349 . S
C1470 C1482 1.349 . S
C1471 C1469 1.327 . S
C1471 C1487 1.429 . S
C1471 H1493 0.950 . S
C1472 H1468 0.949 . S
C1472 C1480 1.574 . S
C1472 C1488 1.368 . S
H1473 C1481 0.950 . S
H1474 C1479 0.950 . S
H1475 C1480 0.949 . S
H1476 C1482 0.950 . S
H1477 C1483 0.950 . S
H1478 C1484 0.949 . S
C1479 H1474 0.950 . S
C1479 C1481 1.327 . S
C1479 C1485 1.429 . S
C1480 C1472 1.574 . S
C1480 H1475 0.949 . S
C1480 C1486 1.368 . S
C1481 C1465 1.349 . S
C1481 H1473 0.950 . S
C1481 C1479 1.327 . S
C1482 C1470 1.349 . S
C1482 H1476 0.950 . S
C1482 C1483 1.327 . S
C1483 H1477 0.950 . S
C1483 C1482 1.327 . S
C1483 C1487 1.429 . S
C1484 C1467 1.574 . S
C1484 H1478 0.949 . S
C1484 C1488 1.368 . S
C1485 C1466 1.429 . S
C1485 C1479 1.429 . S
C1485 C1486 1.523 . S
C1486 C1467 1.368 . S
C1486 C1480 1.368 . S
C1486 C1485 1.523 . S
C1487 C1471 1.429 . S
C1487 C1483 1.429 . S
C1487 C1488 1.523 . S
C1488 C1472 1.368 . S
C1488 C1484 1.368 . S
C1488 C1487 1.523 . S
H1489 C1464 0.950 . S
H1490 C1466 0.950 . S
H1491 C1467 0.949 . S
H1492 C1469 0.950 . S
H1493 C1471 0.950 . S
C1494 C1495 1.349 . S
C1494 C1496 1.327 . S
C1494 H1519 0.950 . S
C1495 C1494 1.349 . S
C1495 C1511 1.349 . S
C1496 C1494 1.327 . S
C1496 C1515 1.429 . S
C1496 H1520 0.950 . S
C1497 C1514 1.574 . S
C1497 C1516 1.368 . S
C1497 H1521 0.949 . S
H1498 C1502 0.949 . S
C1499 C1500 1.349 . S
C1499 C1501 1.327 . S
C1499 H1522 0.950 . S
C1500 C1499 1.349 . S
C1500 C1512 1.349 . S
C1501 C1499 1.327 . S
C1501 C1517 1.429 . S
C1501 H1523 0.950 . S
C1502 H1498 0.949 . S
C1502 C1510 1.574 . S
C1502 C1518 1.368 . S
H1503 C1511 0.950 . S
H1504 C1509 0.950 . S
H1505 C1510 0.949 . S
H1506 C1512 0.950 . S
H1507 C1513 0.950 . S
H1508 C1514 0.949 . S
C1509 H1504 0.950 . S
C1509 C1511 1.327 . S
C1509 C1515 1.429 . S
C1510 C1502 1.574 . S
C1510 H1505 0.949 . S
C1510 C1516 1.368 . S
C1511 C1495 1.349 . S
C1511 H1503 0.950 . S
C1511 C1509 1.327 . S
C1512 C1500 1.349 . S
C1512 H1506 0.950 . S
C1512 C1513 1.327 . S
C1513 H1507 0.950 . S
C1513 C1512 1.327 . S
C1513 C1517 1.429 . S
C1514 C1497 1.574 . S
C1514 H1508 0.949 . S
C1514 C1518 1.368 . S
C1515 C1496 1.429 . S
C1515 C1509 1.429 . S
C1515 C1516 1.523 . S
C1516 C1497 1.368 . S
C1516 C1510 1.368 . S
C1516 C1515 1.523 . S
C1517 C1501 1.429 . S
C1517 C1513 1.429 . S
C1517 C1518 1.523 . S
C1518 C1502 1.368 . S
C1518 C1514 1.368 . S
C1518 C1517 1.523 . S
H1519 C1494 0.950 . S
H1520 C1496 0.950 . S
H1521 C1497 0.949 . S
H1522 C1499 0.950 . S
H1523 C1501 0.950 . S
C1524 C1525 1.349 . S
C1524 C1526 1.327 . S
C1524 H1549 0.950 . S
C1525 C1524 1.349 . S
C1525 C1541 1.349 . S
C1526 C1524 1.327 . S
C1526 C1545 1.429 . S
C1526 H1550 0.950 . S
C1527 C1544 1.574 . S
C1527 C1546 1.368 . S
C1527 H1551 0.949 . S
H1528 C1532 0.949 . S
C1529 C1530 1.349 . S
C1529 C1531 1.327 . S
C1529 H1552 0.950 . S
C1530 C1529 1.349 . S
C1530 C1542 1.349 . S
C1531 C1529 1.327 . S
C1531 C1547 1.429 . S
C1531 H1553 0.950 . S
C1532 H1528 0.949 . S
C1532 C1540 1.574 . S
C1532 C1548 1.368 . S
H1533 C1541 0.950 . S
H1534 C1539 0.950 . S
H1535 C1540 0.949 . S
H1536 C1542 0.950 . S
H1537 C1543 0.950 . S
H1538 C1544 0.949 . S
C1539 H1534 0.950 . S
C1539 C1541 1.327 . S
C1539 C1545 1.429 . S
C1540 C1532 1.574 . S
C1540 H1535 0.949 . S
C1540 C1546 1.368 . S
C1541 C1525 1.349 . S
C1541 H1533 0.950 . S
C1541 C1539 1.327 . S
C1542 C1530 1.349 . S
C1542 H1536 0.950 . S
C1542 C1543 1.327 . S
C1543 H1537 0.950 . S
C1543 C1542 1.327 . S
C1543 C1547 1.429 . S
C1544 C1527 1.574 . S
C1544 H1538 0.949 . S
C1544 C1548 1.368 . S
C1545 C1526 1.429 . S
C1545 C1539 1.429 . S
C1545 C1546 1.523 . S
C1546 C1527 1.368 . S
C1546 C1540 1.368 . S
C1546 C1545 1.523 . S
C1547 C1531 1.429 . S
C1547 C1543 1.429 . S
C1547 C1548 1.523 . S
C1548 C1532 1.368 . S
C1548 C1544 1.368 . S
C1548 C1547 1.523 . S
H1549 C1524 0.950 . S
H1550 C1526 0.950 . S
H1551 C1527 0.949 . S
H1552 C1529 0.950 . S
H1553 C1531 0.950 . S
C1554 C1555 1.349 . S
C1554 C1556 1.327 . S
C1554 H1579 0.950 . S
C1555 C1554 1.349 . S
C1555 C1571 1.349 . S
C1556 C1554 1.327 . S
C1556 C1575 1.429 . S
C1556 H1580 0.950 . S
C1557 C1574 1.574 . S
C1557 C1576 1.368 . S
C1557 H1581 0.949 . S
H1558 C1562 0.949 . S
C1559 C1560 1.349 . S
C1559 C1561 1.327 . S
C1559 H1582 0.950 . S
C1560 C1559 1.349 . S
C1560 C1572 1.349 . S
C1561 C1559 1.327 . S
C1561 C1577 1.429 . S
C1561 H1583 0.950 . S
C1562 H1558 0.949 . S
C1562 C1570 1.574 . S
C1562 C1578 1.368 . S
H1563 C1571 0.950 . S
H1564 C1569 0.950 . S
H1565 C1570 0.949 . S
H1566 C1572 0.950 . S
H1567 C1573 0.950 . S
H1568 C1574 0.949 . S
C1569 H1564 0.950 . S
C1569 C1571 1.327 . S
C1569 C1575 1.429 . S
C1570 C1562 1.574 . S
C1570 H1565 0.949 . S
C1570 C1576 1.368 . S
C1571 C1555 1.349 . S
C1571 H1563 0.950 . S
C1571 C1569 1.327 . S
C1572 C1560 1.349 . S
C1572 H1566 0.950 . S
C1572 C1573 1.327 . S
C1573 H1567 0.950 . S
C1573 C1572 1.327 . S
C1573 C1577 1.429 . S
C1574 C1557 1.574 . S
C1574 H1568 0.949 . S
C1574 C1578 1.368 . S
C1575 C1556 1.429 . S
C1575 C1569 1.429 . S
C1575 C1576 1.523 . S
C1576 C1557 1.368 . S
C1576 C1570 1.368 . S
C1576 C1575 1.523 . S
C1577 C1561 1.429 . S
C1577 C1573 1.429 . S
C1577 C1578 1.523 . S
C1578 C1562 1.368 . S
C1578 C1574 1.368 . S
C1578 C1577 1.523 . S
H1579 C1554 0.950 . S
H1580 C1556 0.950 . S
H1581 C1557 0.949 . S
H1582 C1559 0.950 . S
H1583 C1561 0.950 . S
C1584 C1585 1.349 . S
C1584 C1586 1.327 . S
C1584 H1609 0.950 . S
C1585 C1584 1.349 . S
C1585 C1601 1.349 . S
C1586 C1584 1.327 . S
C1586 C1605 1.429 . S
C1586 H1610 0.950 . S
C1587 C1604 1.574 . S
C1587 C1606 1.368 . S
C1587 H1611 0.949 . S
H1588 C1592 0.949 . S
C1589 C1590 1.349 . S
C1589 C1591 1.327 . S
C1589 H1612 0.950 . S
C1590 C1589 1.349 . S
C1590 C1602 1.349 . S
C1591 C1589 1.327 . S
C1591 C1607 1.429 . S
C1591 H1613 0.950 . S
C1592 H1588 0.949 . S
C1592 C1600 1.574 . S
C1592 C1608 1.368 . S
H1593 C1601 0.950 . S
H1594 C1599 0.950 . S
H1595 C1600 0.949 . S
H1596 C1602 0.950 . S
H1597 C1603 0.950 . S
H1598 C1604 0.949 . S
C1599 H1594 0.950 . S
C1599 C1601 1.327 . S
C1599 C1605 1.429 . S
C1600 C1592 1.574 . S
C1600 H1595 0.949 . S
C1600 C1606 1.368 . S
C1601 C1585 1.349 . S
C1601 H1593 0.950 . S
C1601 C1599 1.327 . S
C1602 C1590 1.349 . S
C1602 H1596 0.950 . S
C1602 C1603 1.327 . S
C1603 H1597 0.950 . S
C1603 C1602 1.327 . S
C1603 C1607 1.429 . S
C1604 C1587 1.574 . S
C1604 H1598 0.949 . S
C1604 C1608 1.368 . S
C1605 C1586 1.429 . S
C1605 C1599 1.429 . S
C1605 C1606 1.523 . S
C1606 C1587 1.368 . S
C1606 C1600 1.368 . S
C1606 C1605 1.523 . S
C1607 C1591 1.429 . S
C1607 C1603 1.429 . S
C1607 C1608 1.523 . S
C1608 C1592 1.368 . S
C1608 C1604 1.368 . S
C1608 C1607 1.523 . S
H1609 C1584 0.950 . S
H1610 C1586 0.950 . S
H1611 C1587 0.949 . S
H1612 C1589 0.950 . S
H1613 C1591 0.950 . S
C1614 C1615 1.349 . S
C1614 C1616 1.327 . S
C1614 H1639 0.950 . S
C1615 C1614 1.349 . S
C1615 C1631 1.349 . S
C1616 C1614 1.327 . S
C1616 C1635 1.429 . S
C1616 H1640 0.950 . S
C1617 C1634 1.574 . S
C1617 C1636 1.368 . S
C1617 H1641 0.949 . S
H1618 C1622 0.949 . S
C1619 C1620 1.349 . S
C1619 C1621 1.327 . S
C1619 H1642 0.950 . S
C1620 C1619 1.349 . S
C1620 C1632 1.349 . S
C1621 C1619 1.327 . S
C1621 C1637 1.429 . S
C1621 H1643 0.950 . S
C1622 H1618 0.949 . S
C1622 C1630 1.574 . S
C1622 C1638 1.368 . S
H1623 C1631 0.950 . S
H1624 C1629 0.950 . S
H1625 C1630 0.949 . S
H1626 C1632 0.950 . S
H1627 C1633 0.950 . S
H1628 C1634 0.949 . S
C1629 H1624 0.950 . S
C1629 C1631 1.327 . S
C1629 C1635 1.429 . S
C1630 C1622 1.574 . S
C1630 H1625 0.949 . S
C1630 C1636 1.368 . S
C1631 C1615 1.349 . S
C1631 H1623 0.950 . S
C1631 C1629 1.327 . S
C1632 C1620 1.349 . S
C1632 H1626 0.950 . S
C1632 C1633 1.327 . S
C1633 H1627 0.950 . S
C1633 C1632 1.327 . S
C1633 C1637 1.429 . S
C1634 C1617 1.574 . S
C1634 H1628 0.949 . S
C1634 C1638 1.368 . S
C1635 C1616 1.429 . S
C1635 C1629 1.429 . S
C1635 C1636 1.523 . S
C1636 C1617 1.368 . S
C1636 C1630 1.368 . S
C1636 C1635 1.523 . S
C1637 C1621 1.429 . S
C1637 C1633 1.429 . S
C1637 C1638 1.523 . S
C1638 C1622 1.368 . S
C1638 C1634 1.368 . S
C1638 C1637 1.523 . S
H1639 C1614 0.950 . S
H1640 C1616 0.950 . S
H1641 C1617 0.949 . S
H1642 C1619 0.950 . S
H1643 C1621 0.950 . S
C1644 C1645 1.349 . S
C1644 C1646 1.327 . S
C1644 H1669 0.950 . S
C1645 C1644 1.349 . S
C1645 C1661 1.349 . S
C1646 C1644 1.327 . S
C1646 C1665 1.429 . S
C1646 H1670 0.950 . S
C1647 C1664 1.574 . S
C1647 C1666 1.368 . S
C1647 H1671 0.949 . S
H1648 C1652 0.949 . S
C1649 C1650 1.349 . S
C1649 C1651 1.327 . S
C1649 H1672 0.950 . S
C1650 C1649 1.349 . S
C1650 C1662 1.349 . S
C1651 C1649 1.327 . S
C1651 C1667 1.429 . S
C1651 H1673 0.950 . S
C1652 H1648 0.949 . S
C1652 C1660 1.574 . S
C1652 C1668 1.368 . S
H1653 C1661 0.950 . S
H1654 C1659 0.950 . S
H1655 C1660 0.949 . S
H1656 C1662 0.950 . S
H1657 C1663 0.950 . S
H1658 C1664 0.949 . S
C1659 H1654 0.950 . S
C1659 C1661 1.327 . S
C1659 C1665 1.429 . S
C1660 C1652 1.574 . S
C1660 H1655 0.949 . S
C1660 C1666 1.368 . S
C1661 C1645 1.349 . S
C1661 H1653 0.950 . S
C1661 C1659 1.327 . S
C1662 C1650 1.349 . S
C1662 H1656 0.950 . S
C1662 C1663 1.327 . S
C1663 H1657 0.950 . S
C1663 C1662 1.327 . S
C1663 C1667 1.429 . S
C1664 C1647 1.574 . S
C1664 H1658 0.949 . S
C1664 C1668 1.368 . S
C1665 C1646 1.429 . S
C1665 C1659 1.429 . S
C1665 C1666 1.523 . S
C1666 C1647 1.368 . S
C1666 C1660 1.368 . S
C1666 C1665 1.523 . S
C1667 C1651 1.429 . S
C1667 C1663 1.429 . S
C1667 C1668 1.523 . S
C1668 C1652 1.368 . S
C1668 C1664 1.368 . S
C1668 C1667 1.523 . S
H1669 C1644 0.950 . S
H1670 C1646 0.950 . S
H1671 C1647 0.949 . S
H1672 C1649 0.950 . S
H1673 C1651 0.950 . S
C1674 C1675 1.349 . S
C1674 C1676 1.327 . S
C1674 H1699 0.950 . S
C1675 C1674 1.349 . S
C1675 C1691 1.349 . S
C1676 C1674 1.327 . S
C1676 C1695 1.429 . S
C1676 H1700 0.950 . S
C1677 C1694 1.574 . S
C1677 C1696 1.368 . S
C1677 H1701 0.949 . S
H1678 C1682 0.949 . S
C1679 C1680 1.349 . S
C1679 C1681 1.327 . S
C1679 H1702 0.950 . S
C1680 C1679 1.349 . S
C1680 C1692 1.349 . S
C1681 C1679 1.327 . S
C1681 C1697 1.429 1_556 S
C1681 H1703 0.950 . S
C1682 H1678 0.949 . S
C1682 C1690 1.574 . S
C1682 C1698 1.368 . S
H1683 C1691 0.950 . S
H1684 C1689 0.950 . S
H1685 C1690 0.949 . S
H1686 C1692 0.950 . S
H1687 C1693 0.950 . S
H1688 C1694 0.949 . S
C1689 H1684 0.950 . S
C1689 C1691 1.327 . S
C1689 C1695 1.429 . S
C1690 C1682 1.574 . S
C1690 H1685 0.949 . S
C1690 C1696 1.368 . S
C1691 C1675 1.349 . S
C1691 H1683 0.950 . S
C1691 C1689 1.327 . S
C1692 C1680 1.349 . S
C1692 H1686 0.950 . S
C1692 C1693 1.327 1_556 S
C1693 H1687 0.950 . S
C1693 C1692 1.327 1_554 S
C1693 C1697 1.429 . S
C1694 C1677 1.574 . S
C1694 H1688 0.949 . S
C1694 C1698 1.368 . S
C1695 C1676 1.429 . S
C1695 C1689 1.429 . S
C1695 C1696 1.523 . S
C1696 C1677 1.368 . S
C1696 C1690 1.368 . S
C1696 C1695 1.523 . S
C1697 C1681 1.429 1_554 S
C1697 C1693 1.429 . S
C1697 C1698 1.523 . S
C1698 C1682 1.368 . S
C1698 C1694 1.368 . S
C1698 C1697 1.523 . S
H1699 C1674 0.950 . S
H1700 C1676 0.950 . S
H1701 C1677 0.949 . S
H1702 C1679 0.950 . S
H1703 C1681 0.950 . S
C1704 C1705 1.349 . S
C1704 C1706 1.327 . S
C1704 H1729 0.950 . S
C1705 C1704 1.349 . S
C1705 C1721 1.349 . S
C1706 C1704 1.327 . S
C1706 C1725 1.429 . S
C1706 H1730 0.950 . S
C1707 C1724 1.574 . S
C1707 C1726 1.368 . S
C1707 H1731 0.949 . S
H1708 C1712 0.949 . S
C1709 C1710 1.349 . S
C1709 C1711 1.327 . S
C1709 H1732 0.950 . S
C1710 C1709 1.349 . S
C1710 C1722 1.349 . S
C1711 C1709 1.327 . S
C1711 C1727 1.429 1_556 S
C1711 H1733 0.950 . S
C1712 H1708 0.949 . S
C1712 C1720 1.574 . S
C1712 C1728 1.368 . S
H1713 C1721 0.950 . S
H1714 C1719 0.950 . S
H1715 C1720 0.949 . S
H1716 C1722 0.950 . S
H1717 C1723 0.950 . S
H1718 C1724 0.949 . S
C1719 H1714 0.950 . S
C1719 C1721 1.327 . S
C1719 C1725 1.429 . S
C1720 C1712 1.574 . S
C1720 H1715 0.949 . S
C1720 C1726 1.368 . S
C1721 C1705 1.349 . S
C1721 H1713 0.950 . S
C1721 C1719 1.327 . S
C1722 C1710 1.349 . S
C1722 H1716 0.950 . S
C1722 C1723 1.327 1_556 S
C1723 H1717 0.950 . S
C1723 C1722 1.327 1_554 S
C1723 C1727 1.429 . S
C1724 C1707 1.574 . S
C1724 H1718 0.949 . S
C1724 C1728 1.368 . S
C1725 C1706 1.429 . S
C1725 C1719 1.429 . S
C1725 C1726 1.523 . S
C1726 C1707 1.368 . S
C1726 C1720 1.368 . S
C1726 C1725 1.523 . S
C1727 C1711 1.429 1_554 S
C1727 C1723 1.429 . S
C1727 C1728 1.523 . S
C1728 C1712 1.368 . S
C1728 C1724 1.368 . S
C1728 C1727 1.523 . S
H1729 C1704 0.950 . S
H1730 C1706 0.950 . S
H1731 C1707 0.949 . S
H1732 C1709 0.950 . S
H1733 C1711 0.950 . S
C1734 C1735 1.349 1_554 S
C1734 C1736 1.327 . S
C1734 H1759 0.950 . S
C1735 C1734 1.349 1_556 S
C1735 C1751 1.349 . S
C1736 C1734 1.327 . S
C1736 C1755 1.429 . S
C1736 H1760 0.950 . S
C1737 C1754 1.574 . S
C1737 C1756 1.368 . S
C1737 H1761 0.949 . S
H1738 C1742 0.949 . S
C1739 C1740 1.349 . S
C1739 C1741 1.327 . S
C1739 H1762 0.950 . S
C1740 C1739 1.349 . S
C1740 C1752 1.349 . S
C1741 C1739 1.327 . S
C1741 C1757 1.429 . S
C1741 H1763 0.950 . S
C1742 H1738 0.949 . S
C1742 C1750 1.574 . S
C1742 C1758 1.368 . S
H1743 C1751 0.950 . S
H1744 C1749 0.950 . S
H1745 C1750 0.949 . S
H1746 C1752 0.950 . S
H1747 C1753 0.950 . S
H1748 C1754 0.949 . S
C1749 H1744 0.950 . S
C1749 C1751 1.327 . S
C1749 C1755 1.429 1_556 S
C1750 C1742 1.574 . S
C1750 H1745 0.949 . S
C1750 C1756 1.368 . S
C1751 C1735 1.349 . S
C1751 H1743 0.950 . S
C1751 C1749 1.327 . S
C1752 C1740 1.349 . S
C1752 H1746 0.950 . S
C1752 C1753 1.327 . S
C1753 H1747 0.950 . S
C1753 C1752 1.327 . S
C1753 C1757 1.429 . S
C1754 C1737 1.574 . S
C1754 H1748 0.949 . S
C1754 C1758 1.368 . S
C1755 C1736 1.429 . S
C1755 C1749 1.429 1_554 S
C1755 C1756 1.523 . S
C1756 C1737 1.368 . S
C1756 C1750 1.368 . S
C1756 C1755 1.523 . S
C1757 C1741 1.429 . S
C1757 C1753 1.429 . S
C1757 C1758 1.523 . S
C1758 C1742 1.368 . S
C1758 C1754 1.368 . S
C1758 C1757 1.523 . S
H1759 C1734 0.950 . S
H1760 C1736 0.950 . S
H1761 C1737 0.949 . S
H1762 C1739 0.950 . S
H1763 C1741 0.950 . S
C1764 C1765 1.349 . S
C1764 C1766 1.327 . S
C1764 H1789 0.950 . S
C1765 C1764 1.349 . S
C1765 C1781 1.349 . S
C1766 C1764 1.327 . S
C1766 C1785 1.429 . S
C1766 H1790 0.950 . S
C1767 C1784 1.574 . S
C1767 C1786 1.368 . S
C1767 H1791 0.949 . S
H1768 C1772 0.949 . S
C1769 C1770 1.349 . S
C1769 C1771 1.327 . S
C1769 H1792 0.950 . S
C1770 C1769 1.349 . S
C1770 C1782 1.349 . S
C1771 C1769 1.327 . S
C1771 C1787 1.429 . S
C1771 H1793 0.950 . S
C1772 H1768 0.949 . S
C1772 C1780 1.574 . S
C1772 C1788 1.368 . S
H1773 C1781 0.950 . S
H1774 C1779 0.950 . S
H1775 C1780 0.949 . S
H1776 C1782 0.950 . S
H1777 C1783 0.950 . S
H1778 C1784 0.949 . S
C1779 H1774 0.950 . S
C1779 C1781 1.327 . S
C1779 C1785 1.429 . S
C1780 C1772 1.574 . S
C1780 H1775 0.949 . S
C1780 C1786 1.368 . S
C1781 C1765 1.349 . S
C1781 H1773 0.950 . S
C1781 C1779 1.327 . S
C1782 C1770 1.349 . S
C1782 H1776 0.950 . S
C1782 C1783 1.327 . S
C1783 H1777 0.950 . S
C1783 C1782 1.327 . S
C1783 C1787 1.429 . S
C1784 C1767 1.574 . S
C1784 H1778 0.949 . S
C1784 C1788 1.368 . S
C1785 C1766 1.429 . S
C1785 C1779 1.429 . S
C1785 C1786 1.523 . S
C1786 C1767 1.368 . S
C1786 C1780 1.368 . S
C1786 C1785 1.523 . S
C1787 C1771 1.429 . S
C1787 C1783 1.429 . S
C1787 C1788 1.523 . S
C1788 C1772 1.368 . S
C1788 C1784 1.368 . S
C1788 C1787 1.523 . S
H1789 C1764 0.950 . S
H1790 C1766 0.950 . S
H1791 C1767 0.949 . S
H1792 C1769 0.950 . S
H1793 C1771 0.950 . S
C1794 C1795 1.349 . S
C1794 C1796 1.327 . S
C1794 H1819 0.950 . S
C1795 C1794 1.349 . S
C1795 C1811 1.349 . S
C1796 C1794 1.327 . S
C1796 C1815 1.429 . S
C1796 H1820 0.950 . S
C1797 C1814 1.574 . S
C1797 C1816 1.368 . S
C1797 H1821 0.949 . S
H1798 C1802 0.949 . S
C1799 C1800 1.349 . S
C1799 C1801 1.327 . S
C1799 H1822 0.950 . S
C1800 C1799 1.349 . S
C1800 C1812 1.349 . S
C1801 C1799 1.327 . S
C1801 C1817 1.429 . S
C1801 H1823 0.950 . S
C1802 H1798 0.949 . S
C1802 C1810 1.574 . S
C1802 C1818 1.368 . S
H1803 C1811 0.950 . S
H1804 C1809 0.950 . S
H1805 C1810 0.949 . S
H1806 C1812 0.950 . S
H1807 C1813 0.950 . S
H1808 C1814 0.949 . S
C1809 H1804 0.950 . S
C1809 C1811 1.327 . S
C1809 C1815 1.429 . S
C1810 C1802 1.574 . S
C1810 H1805 0.949 . S
C1810 C1816 1.368 . S
C1811 C1795 1.349 . S
C1811 H1803 0.950 . S
C1811 C1809 1.327 . S
C1812 C1800 1.349 . S
C1812 H1806 0.950 . S
C1812 C1813 1.327 . S
C1813 H1807 0.950 . S
C1813 C1812 1.327 . S
C1813 C1817 1.429 . S
C1814 C1797 1.574 . S
C1814 H1808 0.949 . S
C1814 C1818 1.368 . S
C1815 C1796 1.429 . S
C1815 C1809 1.429 . S
C1815 C1816 1.523 . S
C1816 C1797 1.368 . S
C1816 C1810 1.368 . S
C1816 C1815 1.523 . S
C1817 C1801 1.429 . S
C1817 C1813 1.429 . S
C1817 C1818 1.523 . S
C1818 C1802 1.368 . S
C1818 C1814 1.368 . S
C1818 C1817 1.523 . S
H1819 C1794 0.950 . S
H1820 C1796 0.950 . S
H1821 C1797 0.949 . S
H1822 C1799 0.950 . S
H1823 C1801 0.950 . S
C1824 C1825 1.349 . S
C1824 C1826 1.327 . S
C1824 H1849 0.950 . S
C1825 C1824 1.349 . S
C1825 C1841 1.349 . S
C1826 C1824 1.327 . S
C1826 C1845 1.429 . S
C1826 H1850 0.950 . S
C1827 C1844 1.574 . S
C1827 C1846 1.368 . S
C1827 H1851 0.949 . S
H1828 C1832 0.949 . S
C1829 C1830 1.349 . S
C1829 C1831 1.327 . S
C1829 H1852 0.950 . S
C1830 C1829 1.349 . S
C1830 C1842 1.349 . S
C1831 C1829 1.327 . S
C1831 C1847 1.429 . S
C1831 H1853 0.950 . S
C1832 H1828 0.949 . S
C1832 C1840 1.574 . S
C1832 C1848 1.368 . S
H1833 C1841 0.950 . S
H1834 C1839 0.950 . S
H1835 C1840 0.949 . S
H1836 C1842 0.950 . S
H1837 C1843 0.950 . S
H1838 C1844 0.949 . S
C1839 H1834 0.950 . S
C1839 C1841 1.327 . S
C1839 C1845 1.429 . S
C1840 C1832 1.574 . S
C1840 H1835 0.949 . S
C1840 C1846 1.368 . S
C1841 C1825 1.349 . S
C1841 H1833 0.950 . S
C1841 C1839 1.327 . S
C1842 C1830 1.349 . S
C1842 H1836 0.950 . S
C1842 C1843 1.327 . S
C1843 H1837 0.950 . S
C1843 C1842 1.327 . S
C1843 C1847 1.429 . S
C1844 C1827 1.574 . S
C1844 H1838 0.949 . S
C1844 C1848 1.368 . S
C1845 C1826 1.429 . S
C1845 C1839 1.429 . S
C1845 C1846 1.523 . S
C1846 C1827 1.368 . S
C1846 C1840 1.368 . S
C1846 C1845 1.523 . S
C1847 C1831 1.429 . S
C1847 C1843 1.429 . S
C1847 C1848 1.523 . S
C1848 C1832 1.368 . S
C1848 C1844 1.368 . S
C1848 C1847 1.523 . S
H1849 C1824 0.950 . S
H1850 C1826 0.950 . S
H1851 C1827 0.949 . S
H1852 C1829 0.950 . S
H1853 C1831 0.950 . S
C1854 C1855 1.349 . S
C1854 C1856 1.327 . S
C1854 H1879 0.950 . S
C1855 C1854 1.349 . S
C1855 C1871 1.349 . S
C1856 C1854 1.327 . S
C1856 C1875 1.429 . S
C1856 H1880 0.950 . S
C1857 C1874 1.574 . S
C1857 C1876 1.368 . S
C1857 H1881 0.949 . S
H1858 C1862 0.949 . S
C1859 C1860 1.349 . S
C1859 C1861 1.327 . S
C1859 H1882 0.950 . S
C1860 C1859 1.349 . S
C1860 C1872 1.349 . S
C1861 C1859 1.327 . S
C1861 C1877 1.429 . S
C1861 H1883 0.950 . S
C1862 H1858 0.949 . S
C1862 C1870 1.574 . S
C1862 C1878 1.368 . S
H1863 C1871 0.950 . S
H1864 C1869 0.950 . S
H1865 C1870 0.949 . S
H1866 C1872 0.950 . S
H1867 C1873 0.950 . S
H1868 C1874 0.949 . S
C1869 H1864 0.950 . S
C1869 C1871 1.327 . S
C1869 C1875 1.429 . S
C1870 C1862 1.574 . S
C1870 H1865 0.949 . S
C1870 C1876 1.368 . S
C1871 C1855 1.349 . S
C1871 H1863 0.950 . S
C1871 C1869 1.327 . S
C1872 C1860 1.349 . S
C1872 H1866 0.950 . S
C1872 C1873 1.327 . S
C1873 H1867 0.950 . S
C1873 C1872 1.327 . S
C1873 C1877 1.429 . S
C1874 C1857 1.574 . S
C1874 H1868 0.949 . S
C1874 C1878 1.368 . S
C1875 C1856 1.429 . S
C1875 C1869 1.429 . S
C1875 C1876 1.523 . S
C1876 C1857 1.368 . S
C1876 C1870 1.368 . S
C1876 C1875 1.523 . S
C1877 C1861 1.429 . S
C1877 C1873 1.429 . S
C1877 C1878 1.523 . S
C1878 C1862 1.368 . S
C1878 C1874 1.368 . S
C1878 C1877 1.523 . S
H1879 C1854 0.950 . S
H1880 C1856 0.950 . S
H1881 C1857 0.949 . S
H1882 C1859 0.950 . S
H1883 C1861 0.950 . S
C1884 C1885 1.349 . S
C1884 C1886 1.327 . S
C1884 H1909 0.950 . S
C1885 C1884 1.349 . S
C1885 C1901 1.349 . S
C1886 C1884 1.327 . S
C1886 C1905 1.429 . S
C1886 H1910 0.950 . S
C1887 C1904 1.574 . S
C1887 C1906 1.368 . S
C1887 H1911 0.949 . S
H1888 C1892 0.949 . S
C1889 C1890 1.349 . S
C1889 C1891 1.327 . S
C1889 H1912 0.950 . S
C1890 C1889 1.349 . S
C1890 C1902 1.349 . S
C1891 C1889 1.327 . S
C1891 C1907 1.429 . S
C1891 H1913 0.950 . S
C1892 H1888 0.949 . S
C1892 C1900 1.574 . S
C1892 C1908 1.368 . S
H1893 C1901 0.950 . S
H1894 C1899 0.950 . S
H1895 C1900 0.949 . S
H1896 C1902 0.950 . S
H1897 C1903 0.950 . S
H1898 C1904 0.949 . S
C1899 H1894 0.950 . S
C1899 C1901 1.327 . S
C1899 C1905 1.429 . S
C1900 C1892 1.574 . S
C1900 H1895 0.949 . S
C1900 C1906 1.368 . S
C1901 C1885 1.349 . S
C1901 H1893 0.950 . S
C1901 C1899 1.327 . S
C1902 C1890 1.349 . S
C1902 H1896 0.950 . S
C1902 C1903 1.327 . S
C1903 H1897 0.950 . S
C1903 C1902 1.327 . S
C1903 C1907 1.429 . S
C1904 C1887 1.574 . S
C1904 H1898 0.949 . S
C1904 C1908 1.368 . S
C1905 C1886 1.429 . S
C1905 C1899 1.429 . S
C1905 C1906 1.523 . S
C1906 C1887 1.368 . S
C1906 C1900 1.368 . S
C1906 C1905 1.523 . S
C1907 C1891 1.429 . S
C1907 C1903 1.429 . S
C1907 C1908 1.523 . S
C1908 C1892 1.368 . S
C1908 C1904 1.368 . S
C1908 C1907 1.523 . S
H1909 C1884 0.950 . S
H1910 C1886 0.950 . S
H1911 C1887 0.949 . S
H1912 C1889 0.950 . S
H1913 C1891 0.950 . S
C1914 C1915 1.349 . S
C1914 C1916 1.327 . S
C1914 H1939 0.950 . S
C1915 C1914 1.349 . S
C1915 C1931 1.349 . S
C1916 C1914 1.327 . S
C1916 C1935 1.429 . S
C1916 H1940 0.950 . S
C1917 C1934 1.574 . S
C1917 C1936 1.368 . S
C1917 H1941 0.949 . S
H1918 C1922 0.949 . S
C1919 C1920 1.349 . S
C1919 C1921 1.327 . S
C1919 H1942 0.950 . S
C1920 C1919 1.349 . S
C1920 C1932 1.349 . S
C1921 C1919 1.327 . S
C1921 C1937 1.429 . S
C1921 H1943 0.950 . S
C1922 H1918 0.949 . S
C1922 C1930 1.574 . S
C1922 C1938 1.368 . S
H1923 C1931 0.950 . S
H1924 C1929 0.950 . S
H1925 C1930 0.949 . S
H1926 C1932 0.950 . S
H1927 C1933 0.950 . S
H1928 C1934 0.949 . S
C1929 H1924 0.950 . S
C1929 C1931 1.327 . S
C1929 C1935 1.429 . S
C1930 C1922 1.574 . S
C1930 H1925 0.949 . S
C1930 C1936 1.368 . S
C1931 C1915 1.349 . S
C1931 H1923 0.950 . S
C1931 C1929 1.327 . S
C1932 C1920 1.349 . S
C1932 H1926 0.950 . S
C1932 C1933 1.327 . S
C1933 H1927 0.950 . S
C1933 C1932 1.327 . S
C1933 C1937 1.429 . S
C1934 C1917 1.574 . S
C1934 H1928 0.949 . S
C1934 C1938 1.368 . S
C1935 C1916 1.429 . S
C1935 C1929 1.429 . S
C1935 C1936 1.523 . S
C1936 C1917 1.368 . S
C1936 C1930 1.368 . S
C1936 C1935 1.523 . S
C1937 C1921 1.429 . S
C1937 C1933 1.429 . S
C1937 C1938 1.523 . S
C1938 C1922 1.368 . S
C1938 C1934 1.368 . S
C1938 C1937 1.523 . S
H1939 C1914 0.950 . S
H1940 C1916 0.950 . S
H1941 C1917 0.949 . S
H1942 C1919 0.950 . S
H1943 C1921 0.950 . S
C1944 C1945 1.349 . S
C1944 C1946 1.327 . S
C1944 H1969 0.950 . S
C1945 C1944 1.349 . S
C1945 C1961 1.349 . S
C1946 C1944 1.327 . S
C1946 C1965 1.429 . S
C1946 H1970 0.950 . S
C1947 C1964 1.574 . S
C1947 C1966 1.368 . S
C1947 H1971 0.949 . S
H1948 C1952 0.949 . S
C1949 C1950 1.349 . S
C1949 C1951 1.327 . S
C1949 H1972 0.950 . S
C1950 C1949 1.349 . S
C1950 C1962 1.349 . S
C1951 C1949 1.327 . S
C1951 C1967 1.429 . S
C1951 H1973 0.950 . S
C1952 H1948 0.949 . S
C1952 C1960 1.574 . S
C1952 C1968 1.368 . S
H1953 C1961 0.950 . S
H1954 C1959 0.950 . S
H1955 C1960 0.949 . S
H1956 C1962 0.950 . S
H1957 C1963 0.950 . S
H1958 C1964 0.949 . S
C1959 H1954 0.950 . S
C1959 C1961 1.327 . S
C1959 C1965 1.429 . S
C1960 C1952 1.574 . S
C1960 H1955 0.949 . S
C1960 C1966 1.368 . S
C1961 C1945 1.349 . S
C1961 H1953 0.950 . S
C1961 C1959 1.327 . S
C1962 C1950 1.349 . S
C1962 H1956 0.950 . S
C1962 C1963 1.327 . S
C1963 H1957 0.950 . S
C1963 C1962 1.327 . S
C1963 C1967 1.429 . S
C1964 C1947 1.574 . S
C1964 H1958 0.949 . S
C1964 C1968 1.368 . S
C1965 C1946 1.429 . S
C1965 C1959 1.429 . S
C1965 C1966 1.523 . S
C1966 C1947 1.368 . S
C1966 C1960 1.368 . S
C1966 C1965 1.523 . S
C1967 C1951 1.429 . S
C1967 C1963 1.429 . S
C1967 C1968 1.523 . S
C1968 C1952 1.368 . S
C1968 C1964 1.368 . S
C1968 C1967 1.523 . S
H1969 C1944 0.950 . S
H1970 C1946 0.950 . S
H1971 C1947 0.949 . S
H1972 C1949 0.950 . S
H1973 C1951 0.950 . S
C1974 C1975 1.349 . S
C1974 C1976 1.327 . S
C1974 H1999 0.950 . S
C1975 C1974 1.349 . S
C1975 C1991 1.349 . S
C1976 C1974 1.327 . S
C1976 C1995 1.429 . S
C1976 H2000 0.950 . S
C1977 C1994 1.574 . S
C1977 C1996 1.368 . S
C1977 H2001 0.949 . S
H1978 C1982 0.949 . S
C1979 C1980 1.349 . S
C1979 C1981 1.327 . S
C1979 H2002 0.950 . S
C1980 C1979 1.349 . S
C1980 C1992 1.349 . S
C1981 C1979 1.327 . S
C1981 C1997 1.429 . S
C1981 H2003 0.950 . S
C1982 H1978 0.949 . S
C1982 C1990 1.574 . S
C1982 C1998 1.368 . S
H1983 C1991 0.950 . S
H1984 C1989 0.950 . S
H1985 C1990 0.949 . S
H1986 C1992 0.950 . S
H1987 C1993 0.950 . S
H1988 C1994 0.949 . S
C1989 H1984 0.950 . S
C1989 C1991 1.327 . S
C1989 C1995 1.429 . S
C1990 C1982 1.574 . S
C1990 H1985 0.949 . S
C1990 C1996 1.368 . S
C1991 C1975 1.349 . S
C1991 H1983 0.950 . S
C1991 C1989 1.327 . S
C1992 C1980 1.349 . S
C1992 H1986 0.950 . S
C1992 C1993 1.327 . S
C1993 H1987 0.950 . S
C1993 C1992 1.327 . S
C1993 C1997 1.429 . S
C1994 C1977 1.574 . S
C1994 H1988 0.949 . S
C1994 C1998 1.368 . S
C1995 C1976 1.429 . S
C1995 C1989 1.429 . S
C1995 C1996 1.523 . S
C1996 C1977 1.368 . S
C1996 C1990 1.368 . S
C1996 C1995 1.523 . S
C1997 C1981 1.429 . S
C1997 C1993 1.429 . S
C1997 C1998 1.523 . S
C1998 C1982 1.368 . S
C1998 C1994 1.368 . S
C1998 C1997 1.523 . S
H1999 C1974 0.950 . S
H2000 C1976 0.950 . S
H2001 C1977 0.949 . S
H2002 C1979 0.950 . S
H2003 C1981 0.950 . S
C2004 C2005 1.349 . S
C2004 C2006 1.327 . S
C2004 H2029 0.950 . S
C2005 C2004 1.349 . S
C2005 C2021 1.349 . S
C2006 C2004 1.327 . S
C2006 C2025 1.429 . S
C2006 H2030 0.950 . S
C2007 C2024 1.574 . S
C2007 C2026 1.368 . S
C2007 H2031 0.949 . S
H2008 C2012 0.949 . S
C2009 C2010 1.349 . S
C2009 C2011 1.327 . S
C2009 H2032 0.950 . S
C2010 C2009 1.349 . S
C2010 C2022 1.349 . S
C2011 C2009 1.327 . S
C2011 C2027 1.429 . S
C2011 H2033 0.950 . S
C2012 H2008 0.949 . S
C2012 C2020 1.574 . S
C2012 C2028 1.368 . S
H2013 C2021 0.950 . S
H2014 C2019 0.950 . S
H2015 C2020 0.949 . S
H2016 C2022 0.950 . S
H2017 C2023 0.950 . S
H2018 C2024 0.949 . S
C2019 H2014 0.950 . S
C2019 C2021 1.327 . S
C2019 C2025 1.429 . S
C2020 C2012 1.574 . S
C2020 H2015 0.949 . S
C2020 C2026 1.368 . S
C2021 C2005 1.349 . S
C2021 H2013 0.950 . S
C2021 C2019 1.327 . S
C2022 C2010 1.349 . S
C2022 H2016 0.950 . S
C2022 C2023 1.327 . S
C2023 H2017 0.950 . S
C2023 C2022 1.327 . S
C2023 C2027 1.429 . S
C2024 C2007 1.574 . S
C2024 H2018 0.949 . S
C2024 C2028 1.368 . S
C2025 C2006 1.429 . S
C2025 C2019 1.429 . S
C2025 C2026 1.523 . S
C2026 C2007 1.368 . S
C2026 C2020 1.368 . S
C2026 C2025 1.523 . S
C2027 C2011 1.429 . S
C2027 C2023 1.429 . S
C2027 C2028 1.523 . S
C2028 C2012 1.368 . S
C2028 C2024 1.368 . S
C2028 C2027 1.523 . S
H2029 C2004 0.950 . S
H2030 C2006 0.950 . S
H2031 C2007 0.949 . S
H2032 C2009 0.950 . S
H2033 C2011 0.950 . S
C2034 C2035 1.349 . S
C2034 C2036 1.327 . S
C2034 H2059 0.950 . S
C2035 C2034 1.349 . S
C2035 C2051 1.349 . S
C2036 C2034 1.327 . S
C2036 C2055 1.429 . S
C2036 H2060 0.950 . S
C2037 C2054 1.574 . S
C2037 C2056 1.368 . S
C2037 H2061 0.949 . S
H2038 C2042 0.949 . S
C2039 C2040 1.349 . S
C2039 C2041 1.327 . S
C2039 H2062 0.950 . S
C2040 C2039 1.349 . S
C2040 C2052 1.349 . S
C2041 C2039 1.327 . S
C2041 C2057 1.429 . S
C2041 H2063 0.950 . S
C2042 H2038 0.949 . S
C2042 C2050 1.574 . S
C2042 C2058 1.368 . S
H2043 C2051 0.950 . S
H2044 C2049 0.950 . S
H2045 C2050 0.949 . S
H2046 C2052 0.950 . S
H2047 C2053 0.950 . S
H2048 C2054 0.949 . S
C2049 H2044 0.950 . S
C2049 C2051 1.327 . S
C2049 C2055 1.429 . S
C2050 C2042 1.574 . S
C2050 H2045 0.949 . S
C2050 C2056 1.368 . S
C2051 C2035 1.349 . S
C2051 H2043 0.950 . S
C2051 C2049 1.327 . S
C2052 C2040 1.349 . S
C2052 H2046 0.950 . S
C2052 C2053 1.327 . S
C2053 H2047 0.950 . S
C2053 C2052 1.327 . S
C2053 C2057 1.429 . S
C2054 C2037 1.574 . S
C2054 H2048 0.949 . S
C2054 C2058 1.368 . S
C2055 C2036 1.429 . S
C2055 C2049 1.429 . S
C2055 C2056 1.523 . S
C2056 C2037 1.368 . S
C2056 C2050 1.368 . S
C2056 C2055 1.523 . S
C2057 C2041 1.429 . S
C2057 C2053 1.429 . S
C2057 C2058 1.523 . S
C2058 C2042 1.368 . S
C2058 C2054 1.368 . S
C2058 C2057 1.523 . S
H2059 C2034 0.950 . S
H2060 C2036 0.950 . S
H2061 C2037 0.949 . S
H2062 C2039 0.950 . S
H2063 C2041 0.950 . S
C2064 C2065 1.349 . S
C2064 C2066 1.327 . S
C2064 H2089 0.950 . S
C2065 C2064 1.349 . S
C2065 C2081 1.349 . S
C2066 C2064 1.327 . S
C2066 C2085 1.429 . S
C2066 H2090 0.950 . S
C2067 C2084 1.574 . S
C2067 C2086 1.368 . S
C2067 H2091 0.949 . S
H2068 C2072 0.949 . S
C2069 C2070 1.349 . S
C2069 C2071 1.327 . S
C2069 H2092 0.950 . S
C2070 C2069 1.349 . S
C2070 C2082 1.349 . S
C2071 C2069 1.327 . S
C2071 C2087 1.429 . S
C2071 H2093 0.950 . S
C2072 H2068 0.949 . S
C2072 C2080 1.574 . S
C2072 C2088 1.368 . S
H2073 C2081 0.950 . S
H2074 C2079 0.950 . S
H2075 C2080 0.949 . S
H2076 C2082 0.950 . S
H2077 C2083 0.950 . S
H2078 C2084 0.949 . S
C2079 H2074 0.950 . S
C2079 C2081 1.327 . S
C2079 C2085 1.429 . S
C2080 C2072 1.574 . S
C2080 H2075 0.949 . S
C2080 C2086 1.368 . S
C2081 C2065 1.349 . S
C2081 H2073 0.950 . S
C2081 C2079 1.327 . S
C2082 C2070 1.349 . S
C2082 H2076 0.950 . S
C2082 C2083 1.327 . S
C2083 H2077 0.950 . S
C2083 C2082 1.327 . S
C2083 C2087 1.429 . S
C2084 C2067 1.574 . S
C2084 H2078 0.949 . S
C2084 C2088 1.368 . S
C2085 C2066 1.429 . S
C2085 C2079 1.429 . S
C2085 C2086 1.523 . S
C2086 C2067 1.368 . S
C2086 C2080 1.368 . S
C2086 C2085 1.523 . S
C2087 C2071 1.429 . S
C2087 C2083 1.429 . S
C2087 C2088 1.523 . S
C2088 C2072 1.368 . S
C2088 C2084 1.368 . S
C2088 C2087 1.523 . S
H2089 C2064 0.950 . S
H2090 C2066 0.950 . S
H2091 C2067 0.949 . S
H2092 C2069 0.950 . S
H2093 C2071 0.950 . S
C2094 C2095 1.349 . S
C2094 C2096 1.327 . S
C2094 H2119 0.950 . S
C2095 C2094 1.349 . S
C2095 C2111 1.349 . S
C2096 C2094 1.327 . S
C2096 C2115 1.429 . S
C2096 H2120 0.950 . S
C2097 C2114 1.574 . S
C2097 C2116 1.368 . S
C2097 H2121 0.949 . S
H2098 C2102 0.949 . S
C2099 C2100 1.349 . S
C2099 C2101 1.327 . S
C2099 H2122 0.950 . S
C2100 C2099 1.349 . S
C2100 C2112 1.349 . S
C2101 C2099 1.327 . S
C2101 C2117 1.429 . S
C2101 H2123 0.950 . S
C2102 H2098 0.949 . S
C2102 C2110 1.574 . S
C2102 C2118 1.368 . S
H2103 C2111 0.950 . S
H2104 C2109 0.950 . S
H2105 C2110 0.949 . S
H2106 C2112 0.950 . S
H2107 C2113 0.950 . S
H2108 C2114 0.949 . S
C2109 H2104 0.950 . S
C2109 C2111 1.327 . S
C2109 C2115 1.429 . S
C2110 C2102 1.574 . S
C2110 H2105 0.949 . S
C2110 C2116 1.368 . S
C2111 C2095 1.349 . S
C2111 H2103 0.950 . S
C2111 C2109 1.327 . S
C2112 C2100 1.349 . S
C2112 H2106 0.950 . S
C2112 C2113 1.327 . S
C2113 H2107 0.950 . S
C2113 C2112 1.327 . S
C2113 C2117 1.429 . S
C2114 C2097 1.574 . S
C2114 H2108 0.949 . S
C2114 C2118 1.368 . S
C2115 C2096 1.429 . S
C2115 C2109 1.429 . S
C2115 C2116 1.523 . S
C2116 C2097 1.368 . S
C2116 C2110 1.368 . S
C2116 C2115 1.523 . S
C2117 C2101 1.429 . S
C2117 C2113 1.429 . S
C2117 C2118 1.523 . S
C2118 C2102 1.368 . S
C2118 C2114 1.368 . S
C2118 C2117 1.523 . S
H2119 C2094 0.950 . S
H2120 C2096 0.950 . S
H2121 C2097 0.949 . S
H2122 C2099 0.950 . S
H2123 C2101 0.950 . S
C2124 C2125 1.349 . S
C2124 C2126 1.327 . S
C2124 H2149 0.950 . S
C2125 C2124 1.349 . S
C2125 C2141 1.349 . S
C2126 C2124 1.327 . S
C2126 C2145 1.429 . S
C2126 H2150 0.950 . S
C2127 C2144 1.574 . S
C2127 C2146 1.368 . S
C2127 H2151 0.949 . S
H2128 C2132 0.949 . S
C2129 C2130 1.349 . S
C2129 C2131 1.327 . S
C2129 H2152 0.950 . S
C2130 C2129 1.349 . S
C2130 C2142 1.349 . S
C2131 C2129 1.327 . S
C2131 C2147 1.429 1_554 S
C2131 H2153 0.950 . S
C2132 H2128 0.949 . S
C2132 C2140 1.574 . S
C2132 C2148 1.368 . S
H2133 C2141 0.950 . S
H2134 C2139 0.950 . S
H2135 C2140 0.949 . S
H2136 C2142 0.950 . S
H2137 C2143 0.950 . S
H2138 C2144 0.949 1_554 S
C2139 H2134 0.950 . S
C2139 C2141 1.327 . S
C2139 C2145 1.429 . S
C2140 C2132 1.574 . S
C2140 H2135 0.949 . S
C2140 C2146 1.368 . S
C2141 C2125 1.349 . S
C2141 H2133 0.950 . S
C2141 C2139 1.327 . S
C2142 C2130 1.349 . S
C2142 H2136 0.950 . S
C2142 C2143 1.327 1_554 S
C2143 H2137 0.950 . S
C2143 C2142 1.327 1_556 S
C2143 C2147 1.429 . S
C2144 C2127 1.574 . S
C2144 H2138 0.949 1_556 S
C2144 C2148 1.368 . S
C2145 C2126 1.429 . S
C2145 C2139 1.429 . S
C2145 C2146 1.523 . S
C2146 C2127 1.368 . S
C2146 C2140 1.368 . S
C2146 C2145 1.523 . S
C2147 C2131 1.429 1_556 S
C2147 C2143 1.429 . S
C2147 C2148 1.523 . S
C2148 C2132 1.368 . S
C2148 C2144 1.368 . S
C2148 C2147 1.523 . S
H2149 C2124 0.950 . S
H2150 C2126 0.950 . S
H2151 C2127 0.949 . S
H2152 C2129 0.950 . S
H2153 C2131 0.950 . S
C2154 C2155 1.349 . S
C2154 C2156 1.327 . S
C2154 H2179 0.950 . S
C2155 C2154 1.349 . S
C2155 C2171 1.349 . S
C2156 C2154 1.327 . S
C2156 C2175 1.429 1_554 S
C2156 H2180 0.950 . S
C2157 C2174 1.574 . S
C2157 C2176 1.368 . S
C2157 H2181 0.949 . S
H2158 C2162 0.949 . S
C2159 C2160 1.349 . S
C2159 C2161 1.327 . S
C2159 H2182 0.950 . S
C2160 C2159 1.349 . S
C2160 C2172 1.349 . S
C2161 C2159 1.327 . S
C2161 C2177 1.429 . S
C2161 H2183 0.950 . S
C2162 H2158 0.949 . S
C2162 C2170 1.574 . S
C2162 C2178 1.368 . S
H2163 C2171 0.950 . S
H2164 C2169 0.950 . S
H2165 C2170 0.949 1_554 S
H2166 C2172 0.950 . S
H2167 C2173 0.950 . S
H2168 C2174 0.949 . S
C2169 H2164 0.950 . S
C2169 C2171 1.327 1_556 S
C2169 C2175 1.429 . S
C2170 C2162 1.574 . S
C2170 H2165 0.949 1_556 S
C2170 C2176 1.368 . S
C2171 C2155 1.349 . S
C2171 H2163 0.950 . S
C2171 C2169 1.327 1_554 S
C2172 C2160 1.349 . S
C2172 H2166 0.950 . S
C2172 C2173 1.327 . S
C2173 H2167 0.950 . S
C2173 C2172 1.327 . S
C2173 C2177 1.429 . S
C2174 C2157 1.574 . S
C2174 H2168 0.949 . S
C2174 C2178 1.368 . S
C2175 C2156 1.429 1_556 S
C2175 C2169 1.429 . S
C2175 C2176 1.523 . S
C2176 C2157 1.368 . S
C2176 C2170 1.368 . S
C2176 C2175 1.523 . S
C2177 C2161 1.429 . S
C2177 C2173 1.429 . S
C2177 C2178 1.523 . S
C2178 C2162 1.368 . S
C2178 C2174 1.368 . S
C2178 C2177 1.523 . S
H2179 C2154 0.950 . S
H2180 C2156 0.950 . S
H2181 C2157 0.949 . S
H2182 C2159 0.950 . S
H2183 C2161 0.950 . S
C2184 C2185 1.349 . S
C2184 C2186 1.327 . S
C2184 H2209 0.950 . S
C2185 C2184 1.349 . S
C2185 C2201 1.349 . S
C2186 C2184 1.327 . S
C2186 C2205 1.429 1_554 S
C2186 H2210 0.950 . S
C2187 C2204 1.574 . S
C2187 C2206 1.368 . S
C2187 H2211 0.949 . S
H2188 C2192 0.949 . S
C2189 C2190 1.349 . S
C2189 C2191 1.327 . S
C2189 H2212 0.950 . S
C2190 C2189 1.349 . S
C2190 C2202 1.349 . S
C2191 C2189 1.327 . S
C2191 C2207 1.429 . S
C2191 H2213 0.950 . S
C2192 H2188 0.949 . S
C2192 C2200 1.574 . S
C2192 C2208 1.368 . S
H2193 C2201 0.950 . S
H2194 C2199 0.950 . S
H2195 C2200 0.949 . S
H2196 C2202 0.950 . S
H2197 C2203 0.950 . S
H2198 C2204 0.949 . S
C2199 H2194 0.950 . S
C2199 C2201 1.327 1_556 S
C2199 C2205 1.429 . S
C2200 C2192 1.574 . S
C2200 H2195 0.949 . S
C2200 C2206 1.368 . S
C2201 C2185 1.349 . S
C2201 H2193 0.950 . S
C2201 C2199 1.327 1_554 S
C2202 C2190 1.349 . S
C2202 H2196 0.950 . S
C2202 C2203 1.327 . S
C2203 H2197 0.950 . S
C2203 C2202 1.327 . S
C2203 C2207 1.429 . S
C2204 C2187 1.574 . S
C2204 H2198 0.949 . S
C2204 C2208 1.368 . S
C2205 C2186 1.429 1_556 S
C2205 C2199 1.429 . S
C2205 C2206 1.523 . S
C2206 C2187 1.368 . S
C2206 C2200 1.368 . S
C2206 C2205 1.523 . S
C2207 C2191 1.429 . S
C2207 C2203 1.429 . S
C2207 C2208 1.523 . S
C2208 C2192 1.368 . S
C2208 C2204 1.368 . S
C2208 C2207 1.523 . S
H2209 C2184 0.950 . S
H2210 C2186 0.950 . S
H2211 C2187 0.949 . S
H2212 C2189 0.950 . S
H2213 C2191 0.950 . S
C2214 C2215 1.349 . S
C2214 C2216 1.327 . S
C2214 H2239 0.950 . S
C2215 C2214 1.349 . S
C2215 C2231 1.349 . S
C2216 C2214 1.327 . S
C2216 C2235 1.429 . S
C2216 H2240 0.950 . S
C2217 C2234 1.574 1_554 S
C2217 C2236 1.368 . S
C2217 H2241 0.949 . S
H2218 C2222 0.949 . S
C2219 C2220 1.349 . S
C2219 C2221 1.327 . S
C2219 H2242 0.950 . S
C2220 C2219 1.349 . S
C2220 C2232 1.349 . S
C2221 C2219 1.327 . S
C2221 C2237 1.429 . S
C2221 H2243 0.950 . S
C2222 H2218 0.949 . S
C2222 C2230 1.574 1_556 S
C2222 C2238 1.368 . S
H2223 C2231 0.950 . S
H2224 C2229 0.950 . S
H2225 C2230 0.949 . S
H2226 C2232 0.950 . S
H2227 C2233 0.950 . S
H2228 C2234 0.949 . S
C2229 H2224 0.950 . S
C2229 C2231 1.327 . S
C2229 C2235 1.429 . S
C2230 C2222 1.574 1_554 S
C2230 H2225 0.949 . S
C2230 C2236 1.368 . S
C2231 C2215 1.349 . S
C2231 H2223 0.950 . S
C2231 C2229 1.327 . S
C2232 C2220 1.349 . S
C2232 H2226 0.950 . S
C2232 C2233 1.327 . S
C2233 H2227 0.950 . S
C2233 C2232 1.327 . S
C2233 C2237 1.429 . S
C2234 C2217 1.574 1_556 S
C2234 H2228 0.949 . S
C2234 C2238 1.368 . S
C2235 C2216 1.429 . S
C2235 C2229 1.429 . S
C2235 C2236 1.523 . S
C2236 C2217 1.368 . S
C2236 C2230 1.368 . S
C2236 C2235 1.523 . S
C2237 C2221 1.429 . S
C2237 C2233 1.429 . S
C2237 C2238 1.523 . S
C2238 C2222 1.368 . S
C2238 C2234 1.368 . S
C2238 C2237 1.523 . S
H2239 C2214 0.950 . S
H2240 C2216 0.950 . S
H2241 C2217 0.949 . S
H2242 C2219 0.950 . S
H2243 C2221 0.950 . S
C2244 C2245 1.349 . S
C2244 C2246 1.327 . S
C2244 H2269 0.950 . S
C2245 C2244 1.349 . S
C2245 C2261 1.349 . S
C2246 C2244 1.327 . S
C2246 C2265 1.429 . S
C2246 H2270 0.950 . S
C2247 C2264 1.574 1_554 S
C2247 C2266 1.368 . S
C2247 H2271 0.949 . S
H2248 C2252 0.949 . S
C2249 C2250 1.349 . S
C2249 C2251 1.327 . S
C2249 H2272 0.950 . S
C2250 C2249 1.349 . S
C2250 C2262 1.349 . S
C2251 C2249 1.327 . S
C2251 C2267 1.429 . S
C2251 H2273 0.950 . S
C2252 H2248 0.949 . S
C2252 C2260 1.574 . S
C2252 C2268 1.368 1_554 S
H2253 C2261 0.950 . S
H2254 C2259 0.950 . S
H2255 C2260 0.949 . S
H2256 C2262 0.950 . S
H2257 C2263 0.950 . S
H2258 C2264 0.949 . S
C2259 H2254 0.950 . S
C2259 C2261 1.327 . S
C2259 C2265 1.429 . S
C2260 C2252 1.574 . S
C2260 H2255 0.949 . S
C2260 C2266 1.368 . S
C2261 C2245 1.349 . S
C2261 H2253 0.950 . S
C2261 C2259 1.327 . S
C2262 C2250 1.349 . S
C2262 H2256 0.950 . S
C2262 C2263 1.327 . S
C2263 H2257 0.950 . S
C2263 C2262 1.327 . S
C2263 C2267 1.429 . S
C2264 C2247 1.574 1_556 S
C2264 H2258 0.949 . S
C2264 C2268 1.368 . S
C2265 C2246 1.429 . S
C2265 C2259 1.429 . S
C2265 C2266 1.523 . S
C2266 C2247 1.368 . S
C2266 C2260 1.368 . S
C2266 C2265 1.523 . S
C2267 C2251 1.429 . S
C2267 C2263 1.429 . S
C2267 C2268 1.523 . S
C2268 C2252 1.368 1_556 S
C2268 C2264 1.368 . S
C2268 C2267 1.523 . S
H2269 C2244 0.950 . S
H2270 C2246 0.950 . S
H2271 C2247 0.949 . S
H2272 C2249 0.950 . S
H2273 C2251 0.950 . S
C2274 C2275 1.349 . S
C2274 C2276 1.327 . S
C2274 H2299 0.950 . S
C2275 C2274 1.349 . S
C2275 C2291 1.349 . S
C2276 C2274 1.327 . S
C2276 C2295 1.429 . S
C2276 H2300 0.950 . S
C2277 C2294 1.574 1_556 S
C2277 C2296 1.368 . S
C2277 H2301 0.949 . S
H2278 C2282 0.949 . S
C2279 C2280 1.349 . S
C2279 C2281 1.327 . S
C2279 H2302 0.950 . S
C2280 C2279 1.349 . S
C2280 C2292 1.349 . S
C2281 C2279 1.327 . S
C2281 C2297 1.429 . S
C2281 H2303 0.950 . S
C2282 H2278 0.949 . S
C2282 C2290 1.574 1_554 S
C2282 C2298 1.368 . S
H2283 C2291 0.950 . S
H2284 C2289 0.950 . S
H2285 C2290 0.949 . S
H2286 C2292 0.950 . S
H2287 C2293 0.950 . S
H2288 C2294 0.949 . S
C2289 H2284 0.950 . S
C2289 C2291 1.327 . S
C2289 C2295 1.429 . S
C2290 C2282 1.574 1_556 S
C2290 H2285 0.949 . S
C2290 C2296 1.368 . S
C2291 C2275 1.349 . S
C2291 H2283 0.950 . S
C2291 C2289 1.327 . S
C2292 C2280 1.349 . S
C2292 H2286 0.950 . S
C2292 C2293 1.327 . S
C2293 H2287 0.950 . S
C2293 C2292 1.327 . S
C2293 C2297 1.429 . S
C2294 C2277 1.574 1_554 S
C2294 H2288 0.949 . S
C2294 C2298 1.368 . S
C2295 C2276 1.429 . S
C2295 C2289 1.429 . S
C2295 C2296 1.523 . S
C2296 C2277 1.368 . S
C2296 C2290 1.368 . S
C2296 C2295 1.523 . S
C2297 C2281 1.429 . S
C2297 C2293 1.429 . S
C2297 C2298 1.523 . S
C2298 C2282 1.368 . S
C2298 C2294 1.368 . S
C2298 C2297 1.523 . S
H2299 C2274 0.950 . S
H2300 C2276 0.950 . S
H2301 C2277 0.949 . S
H2302 C2279 0.950 . S
H2303 C2281 0.950 . S
C2304 C2305 1.349 . S
C2304 C2306 1.327 . S
C2304 H2329 0.950 . S
C2305 C2304 1.349 . S
C2305 C2321 1.349 . S
C2306 C2304 1.327 . S
C2306 C2325 1.429 . S
C2306 H2330 0.950 . S
C2307 C2324 1.574 . S
C2307 C2326 1.368 . S
C2307 H2331 0.949 . S
H2308 C2312 0.949 . S
C2309 C2310 1.349 . S
C2309 C2311 1.327 . S
C2309 H2332 0.950 . S
C2310 C2309 1.349 . S
C2310 C2322 1.349 . S
C2311 C2309 1.327 . S
C2311 C2327 1.429 . S
C2311 H2333 0.950 . S
C2312 H2308 0.949 . S
C2312 C2320 1.574 . S
C2312 C2328 1.368 . S
H2313 C2321 0.950 . S
H2314 C2319 0.950 . S
H2315 C2320 0.949 . S
H2316 C2322 0.950 . S
H2317 C2323 0.950 . S
H2318 C2324 0.949 . S
C2319 H2314 0.950 . S
C2319 C2321 1.327 . S
C2319 C2325 1.429 . S
C2320 C2312 1.574 . S
C2320 H2315 0.949 . S
C2320 C2326 1.368 . S
C2321 C2305 1.349 . S
C2321 H2313 0.950 . S
C2321 C2319 1.327 . S
C2322 C2310 1.349 . S
C2322 H2316 0.950 . S
C2322 C2323 1.327 . S
C2323 H2317 0.950 . S
C2323 C2322 1.327 . S
C2323 C2327 1.429 . S
C2324 C2307 1.574 . S
C2324 H2318 0.949 . S
C2324 C2328 1.368 . S
C2325 C2306 1.429 . S
C2325 C2319 1.429 . S
C2325 C2326 1.523 . S
C2326 C2307 1.368 . S
C2326 C2320 1.368 . S
C2326 C2325 1.523 . S
C2327 C2311 1.429 . S
C2327 C2323 1.429 . S
C2327 C2328 1.523 . S
C2328 C2312 1.368 . S
C2328 C2324 1.368 . S
C2328 C2327 1.523 . S
H2329 C2304 0.950 . S
H2330 C2306 0.950 . S
H2331 C2307 0.949 . S
H2332 C2309 0.950 . S
H2333 C2311 0.950 . S
C2334 C2335 1.349 . S
C2334 C2336 1.327 . S
C2334 H2359 0.950 . S
C2335 C2334 1.349 . S
C2335 C2351 1.349 . S
C2336 C2334 1.327 . S
C2336 C2355 1.429 . S
C2336 H2360 0.950 . S
C2337 C2354 1.574 1_545 S
C2337 C2356 1.368 . S
C2337 H2361 0.949 . S
H2338 C2342 0.949 . S
C2339 C2340 1.349 . S
C2339 C2341 1.327 . S
C2339 H2362 0.950 . S
C2340 C2339 1.349 . S
C2340 C2352 1.349 . S
C2341 C2339 1.327 . S
C2341 C2357 1.429 . S
C2341 H2363 0.950 . S
C2342 H2338 0.949 . S
C2342 C2350 1.574 1_565 S
C2342 C2358 1.368 . S
H2343 C2351 0.950 . S
H2344 C2349 0.950 . S
H2345 C2350 0.949 . S
H2346 C2352 0.950 . S
H2347 C2353 0.950 . S
H2348 C2354 0.949 . S
C2349 H2344 0.950 . S
C2349 C2351 1.327 . S
C2349 C2355 1.429 . S
C2350 C2342 1.574 1_545 S
C2350 H2345 0.949 . S
C2350 C2356 1.368 . S
C2351 C2335 1.349 . S
C2351 H2343 0.950 . S
C2351 C2349 1.327 . S
C2352 C2340 1.349 . S
C2352 H2346 0.950 . S
C2352 C2353 1.327 . S
C2353 H2347 0.950 . S
C2353 C2352 1.327 . S
C2353 C2357 1.429 . S
C2354 C2337 1.574 1_565 S
C2354 H2348 0.949 . S
C2354 C2358 1.368 . S
C2355 C2336 1.429 . S
C2355 C2349 1.429 . S
C2355 C2356 1.523 . S
C2356 C2337 1.368 . S
C2356 C2350 1.368 . S
C2356 C2355 1.523 . S
C2357 C2341 1.429 . S
C2357 C2353 1.429 . S
C2357 C2358 1.523 . S
C2358 C2342 1.368 . S
C2358 C2354 1.368 . S
C2358 C2357 1.523 . S
H2359 C2334 0.950 . S
H2360 C2336 0.950 . S
H2361 C2337 0.949 . S
H2362 C2339 0.950 . S
H2363 C2341 0.950 . S
C2364 C2365 1.349 . S
C2364 C2366 1.327 . S
C2364 H2389 0.950 . S
C2365 C2364 1.349 . S
C2365 C2381 1.349 . S
C2366 C2364 1.327 . S
C2366 C2385 1.429 . S
C2366 H2390 0.950 . S
C2367 C2384 1.574 1_655 S
C2367 C2386 1.368 . S
C2367 H2391 0.949 . S
H2368 C2372 0.949 . S
C2369 C2370 1.349 . S
C2369 C2371 1.327 . S
C2369 H2392 0.950 . S
C2370 C2369 1.349 . S
C2370 C2382 1.349 . S
C2371 C2369 1.327 . S
C2371 C2387 1.429 . S
C2371 H2393 0.950 . S
C2372 H2368 0.949 . S
C2372 C2380 1.574 1_455 S
C2372 C2388 1.368 . S
H2373 C2381 0.950 . S
H2374 C2379 0.950 . S
H2375 C2380 0.949 . S
H2376 C2382 0.950 . S
H2377 C2383 0.950 . S
H2378 C2384 0.949 . S
C2379 H2374 0.950 . S
C2379 C2381 1.327 . S
C2379 C2385 1.429 . S
C2380 C2372 1.574 1_655 S
C2380 H2375 0.949 . S
C2380 C2386 1.368 . S
C2381 C2365 1.349 . S
C2381 H2373 0.950 . S
C2381 C2379 1.327 . S
C2382 C2370 1.349 . S
C2382 H2376 0.950 . S
C2382 C2383 1.327 . S
C2383 H2377 0.950 . S
C2383 C2382 1.327 . S
C2383 C2387 1.429 . S
C2384 C2367 1.574 1_455 S
C2384 H2378 0.949 . S
C2384 C2388 1.368 . S
C2385 C2366 1.429 . S
C2385 C2379 1.429 . S
C2385 C2386 1.523 . S
C2386 C2367 1.368 . S
C2386 C2380 1.368 . S
C2386 C2385 1.523 . S
C2387 C2371 1.429 . S
C2387 C2383 1.429 . S
C2387 C2388 1.523 . S
C2388 C2372 1.368 . S
C2388 C2384 1.368 . S
C2388 C2387 1.523 . S
H2389 C2364 0.950 . S
H2390 C2366 0.950 . S
H2391 C2367 0.949 . S
H2392 C2369 0.950 . S
H2393 C2371 0.950 . S
C2394 C2395 1.349 . S
C2394 C2396 1.327 . S
C2394 H2419 0.950 . S
C2395 C2394 1.349 . S
C2395 C2411 1.349 . S
C2396 C2394 1.327 . S
C2396 C2415 1.429 . S
C2396 H2420 0.950 . S
C2397 C2414 1.574 . S
C2397 C2416 1.368 . S
C2397 H2421 0.949 . S
H2398 C2402 0.949 . S
C2399 C2400 1.349 . S
C2399 C2401 1.327 . S
C2399 H2422 0.950 . S
C2400 C2399 1.349 . S
C2400 C2412 1.349 . S
C2401 C2399 1.327 . S
C2401 C2417 1.429 . S
C2401 H2423 0.950 . S
C2402 H2398 0.949 . S
C2402 C2410 1.574 . S
C2402 C2418 1.368 . S
H2403 C2411 0.950 . S
H2404 C2409 0.950 . S
H2405 C2410 0.949 . S
H2406 C2412 0.950 . S
H2407 C2413 0.950 . S
H2408 C2414 0.949 . S
C2409 H2404 0.950 . S
C2409 C2411 1.327 . S
C2409 C2415 1.429 . S
C2410 C2402 1.574 . S
C2410 H2405 0.949 . S
C2410 C2416 1.368 . S
C2411 C2395 1.349 . S
C2411 H2403 0.950 . S
C2411 C2409 1.327 . S
C2412 C2400 1.349 . S
C2412 H2406 0.950 . S
C2412 C2413 1.327 . S
C2413 H2407 0.950 . S
C2413 C2412 1.327 . S
C2413 C2417 1.429 . S
C2414 C2397 1.574 . S
C2414 H2408 0.949 . S
C2414 C2418 1.368 . S
C2415 C2396 1.429 . S
C2415 C2409 1.429 . S
C2415 C2416 1.523 . S
C2416 C2397 1.368 . S
C2416 C2410 1.368 . S
C2416 C2415 1.523 . S
C2417 C2401 1.429 . S
C2417 C2413 1.429 . S
C2417 C2418 1.523 . S
C2418 C2402 1.368 . S
C2418 C2414 1.368 . S
C2418 C2417 1.523 . S
H2419 C2394 0.950 . S
H2420 C2396 0.950 . S
H2421 C2397 0.949 . S
H2422 C2399 0.950 . S
H2423 C2401 0.950 . S
C2424 C2425 1.349 . S
C2424 C2426 1.327 . S
C2424 H2449 0.950 . S
C2425 C2424 1.349 . S
C2425 C2441 1.349 . S
C2426 C2424 1.327 . S
C2426 C2445 1.429 . S
C2426 H2450 0.950 . S
C2427 C2444 1.543 1_565 S
C2427 C2446 1.368 . S
C2427 H2451 0.949 . S
H2428 C2432 0.949 . S
C2429 C2430 1.349 . S
C2429 C2431 1.327 . S
C2429 H2452 0.950 . S
C2430 C2429 1.349 . S
C2430 C2442 1.349 . S
C2431 C2429 1.327 . S
C2431 C2447 1.429 . S
C2431 H2453 0.950 . S
C2432 H2428 0.949 . S
C2432 C2440 1.543 1_545 S
C2432 C2448 1.368 . S
H2433 C2441 0.950 . S
H2434 C2439 0.950 . S
H2435 C2440 0.931 . S
H2436 C2442 0.950 . S
H2437 C2443 0.950 . S
H2438 C2444 0.931 . S
C2439 H2434 0.950 . S
C2439 C2441 1.327 . S
C2439 C2445 1.429 . S
C2440 C2432 1.543 1_565 S
C2440 H2435 0.931 . S
C2440 C2446 1.384 . S
C2441 C2425 1.349 . S
C2441 H2433 0.950 . S
C2441 C2439 1.327 . S
C2442 C2430 1.349 . S
C2442 H2436 0.950 . S
C2442 C2443 1.327 . S
C2443 H2437 0.950 . S
C2443 C2442 1.327 . S
C2443 C2447 1.429 . S
C2444 C2427 1.543 1_545 S
C2444 H2438 0.931 . S
C2444 C2448 1.384 . S
C2445 C2426 1.429 . S
C2445 C2439 1.429 . S
C2445 C2446 1.523 . S
C2446 C2427 1.368 . S
C2446 C2440 1.384 . S
C2446 C2445 1.523 . S
C2447 C2431 1.429 . S
C2447 C2443 1.429 . S
C2447 C2448 1.523 . S
C2448 C2432 1.368 . S
C2448 C2444 1.384 . S
C2448 C2447 1.523 . S
H2449 C2424 0.950 . S
H2450 C2426 0.950 . S
H2451 C2427 0.949 . S
H2452 C2429 0.950 . S
H2453 C2431 0.950 . S
C2454 C2455 1.349 . S
C2454 C2456 1.327 . S
C2454 H2479 0.950 . S
C2455 C2454 1.349 . S
C2455 C2471 1.349 . S
C2456 C2454 1.327 . S
C2456 C2475 1.429 . S
C2456 H2480 0.950 . S
C2457 C2474 1.574 1_655 S
C2457 C2476 1.368 . S
C2457 H2481 0.949 . S
H2458 C2462 0.949 . S
C2459 C2460 1.349 . S
C2459 C2461 1.327 . S
C2459 H2482 0.950 . S
C2460 C2459 1.349 . S
C2460 C2472 1.349 . S
C2461 C2459 1.327 . S
C2461 C2477 1.429 . S
C2461 H2483 0.950 . S
C2462 H2458 0.949 . S
C2462 C2470 1.574 1_455 S
C2462 C2478 1.368 . S
H2463 C2471 0.950 . S
H2464 C2469 0.950 . S
H2465 C2470 0.949 . S
H2466 C2472 0.950 . S
H2467 C2473 0.950 . S
H2468 C2474 0.949 . S
C2469 H2464 0.950 . S
C2469 C2471 1.327 . S
C2469 C2475 1.429 . S
C2470 C2462 1.574 1_655 S
C2470 H2465 0.949 . S
C2470 C2476 1.368 . S
C2471 C2455 1.349 . S
C2471 H2463 0.950 . S
C2471 C2469 1.327 . S
C2472 C2460 1.349 . S
C2472 H2466 0.950 . S
C2472 C2473 1.327 . S
C2473 H2467 0.950 . S
C2473 C2472 1.327 . S
C2473 C2477 1.429 . S
C2474 C2457 1.574 1_455 S
C2474 H2468 0.949 . S
C2474 C2478 1.368 . S
C2475 C2456 1.429 . S
C2475 C2469 1.429 . S
C2475 C2476 1.523 . S
C2476 C2457 1.368 . S
C2476 C2470 1.368 . S
C2476 C2475 1.523 . S
C2477 C2461 1.429 . S
C2477 C2473 1.429 . S
C2477 C2478 1.523 . S
C2478 C2462 1.368 . S
C2478 C2474 1.368 . S
C2478 C2477 1.523 . S
H2479 C2454 0.950 . S
H2480 C2456 0.950 . S
H2481 C2457 0.949 . S
H2482 C2459 0.950 . S
H2483 C2461 0.950 . S
C2484 C2485 1.349 . S
C2484 C2486 1.327 . S
C2484 H2509 0.950 . S
C2485 C2484 1.349 . S
C2485 C2501 1.349 . S
C2486 C2484 1.327 . S
C2486 C2505 1.429 . S
C2486 H2510 0.950 . S
C2487 C2504 1.574 . S
C2487 C2506 1.368 . S
C2487 H2511 0.949 . S
H2488 C2492 0.949 . S
C2489 C2490 1.349 . S
C2489 C2491 1.327 . S
C2489 H2512 0.950 . S
C2490 C2489 1.349 . S
C2490 C2502 1.349 . S
C2491 C2489 1.327 . S
C2491 C2507 1.429 . S
C2491 H2513 0.950 . S
C2492 H2488 0.949 . S
C2492 C2500 1.574 . S
C2492 C2508 1.368 . S
H2493 C2501 0.950 . S
H2494 C2499 0.950 . S
H2495 C2500 0.949 . S
H2496 C2502 0.950 . S
H2497 C2503 0.950 . S
H2498 C2504 0.949 . S
C2499 H2494 0.950 . S
C2499 C2501 1.327 . S
C2499 C2505 1.429 . S
C2500 C2492 1.574 . S
C2500 H2495 0.949 . S
C2500 C2506 1.368 . S
C2501 C2485 1.349 . S
C2501 H2493 0.950 . S
C2501 C2499 1.327 . S
C2502 C2490 1.349 . S
C2502 H2496 0.950 . S
C2502 C2503 1.327 . S
C2503 H2497 0.950 . S
C2503 C2502 1.327 . S
C2503 C2507 1.429 . S
C2504 C2487 1.574 . S
C2504 H2498 0.949 . S
C2504 C2508 1.368 . S
C2505 C2486 1.429 . S
C2505 C2499 1.429 . S
C2505 C2506 1.523 . S
C2506 C2487 1.368 . S
C2506 C2500 1.368 . S
C2506 C2505 1.523 . S
C2507 C2491 1.429 . S
C2507 C2503 1.429 . S
C2507 C2508 1.523 . S
C2508 C2492 1.368 . S
C2508 C2504 1.368 . S
C2508 C2507 1.523 . S
H2509 C2484 0.950 . S
H2510 C2486 0.950 . S
H2511 C2487 0.949 . S
H2512 C2489 0.950 . S
H2513 C2491 0.950 . S
C2514 C2515 1.349 . S
C2514 C2516 1.327 . S
C2514 H2539 0.950 . S
C2515 C2514 1.349 . S
C2515 C2531 1.349 . S
C2516 C2514 1.327 . S
C2516 C2535 1.429 . S
C2516 H2540 0.950 . S
C2517 C2534 1.574 . S
C2517 C2536 1.368 . S
C2517 H2541 0.949 . S
H2518 C2522 0.949 . S
C2519 C2520 1.349 . S
C2519 C2521 1.327 . S
C2519 H2542 0.950 . S
C2520 C2519 1.349 . S
C2520 C2532 1.349 . S
C2521 C2519 1.327 . S
C2521 C2537 1.429 . S
C2521 H2543 0.950 . S
C2522 H2518 0.949 . S
C2522 C2530 1.574 . S
C2522 C2538 1.368 . S
H2523 C2531 0.950 . S
H2524 C2529 0.950 . S
H2525 C2530 0.949 . S
H2526 C2532 0.950 . S
H2527 C2533 0.950 . S
H2528 C2534 0.949 . S
C2529 H2524 0.950 . S
C2529 C2531 1.327 . S
C2529 C2535 1.429 . S
C2530 C2522 1.574 . S
C2530 H2525 0.949 . S
C2530 C2536 1.368 . S
C2531 C2515 1.349 . S
C2531 H2523 0.950 . S
C2531 C2529 1.327 . S
C2532 C2520 1.349 . S
C2532 H2526 0.950 . S
C2532 C2533 1.327 . S
C2533 H2527 0.950 . S
C2533 C2532 1.327 . S
C2533 C2537 1.429 . S
C2534 C2517 1.574 . S
C2534 H2528 0.949 . S
C2534 C2538 1.368 . S
C2535 C2516 1.429 . S
C2535 C2529 1.429 . S
C2535 C2536 1.523 . S
C2536 C2517 1.368 . S
C2536 C2530 1.368 . S
C2536 C2535 1.523 . S
C2537 C2521 1.429 . S
C2537 C2533 1.429 . S
C2537 C2538 1.523 . S
C2538 C2522 1.368 . S
C2538 C2534 1.368 . S
C2538 C2537 1.523 . S
H2539 C2514 0.950 . S
H2540 C2516 0.950 . S
H2541 C2517 0.949 . S
H2542 C2519 0.950 . S
H2543 C2521 0.950 . S
C2544 C2545 1.349 . S
C2544 C2546 1.327 . S
C2544 H2569 0.950 . S
C2545 C2544 1.349 . S
C2545 C2561 1.349 . S
C2546 C2544 1.327 . S
C2546 C2565 1.429 . S
C2546 H2570 0.950 . S
C2547 C2564 1.574 . S
C2547 C2566 1.368 . S
C2547 H2571 0.949 . S
H2548 C2552 0.949 . S
C2549 C2550 1.349 . S
C2549 C2551 1.327 . S
C2549 H2572 0.950 . S
C2550 C2549 1.349 . S
C2550 C2562 1.349 . S
C2551 C2549 1.327 . S
C2551 C2567 1.429 . S
C2551 H2573 0.950 . S
C2552 H2548 0.949 . S
C2552 C2560 1.574 . S
C2552 C2568 1.368 . S
H2553 C2561 0.950 . S
H2554 C2559 0.950 . S
H2555 C2560 0.949 . S
H2556 C2562 0.950 . S
H2557 C2563 0.950 . S
H2558 C2564 0.949 . S
C2559 H2554 0.950 . S
C2559 C2561 1.327 . S
C2559 C2565 1.429 . S
C2560 C2552 1.574 . S
C2560 H2555 0.949 . S
C2560 C2566 1.368 . S
C2561 C2545 1.349 . S
C2561 H2553 0.950 . S
C2561 C2559 1.327 . S
C2562 C2550 1.349 . S
C2562 H2556 0.950 . S
C2562 C2563 1.327 . S
C2563 H2557 0.950 . S
C2563 C2562 1.327 . S
C2563 C2567 1.429 . S
C2564 C2547 1.574 . S
C2564 H2558 0.949 . S
C2564 C2568 1.368 . S
C2565 C2546 1.429 . S
C2565 C2559 1.429 . S
C2565 C2566 1.523 . S
C2566 C2547 1.368 . S
C2566 C2560 1.368 . S
C2566 C2565 1.523 . S
C2567 C2551 1.429 . S
C2567 C2563 1.429 . S
C2567 C2568 1.523 . S
C2568 C2552 1.368 . S
C2568 C2564 1.368 . S
C2568 C2567 1.523 . S
H2569 C2544 0.950 . S
H2570 C2546 0.950 . S
H2571 C2547 0.949 . S
H2572 C2549 0.950 . S
H2573 C2551 0.950 . S
C2574 C2575 1.349 . S
C2574 C2576 1.327 . S
C2574 H2599 0.950 . S
C2575 C2574 1.349 . S
C2575 C2591 1.349 . S
C2576 C2574 1.327 . S
C2576 C2595 1.429 . S
C2576 H2600 0.950 . S
C2577 C2594 1.574 . S
C2577 C2596 1.368 . S
C2577 H2601 0.949 . S
H2578 C2582 0.949 . S
C2579 C2580 1.349 . S
C2579 C2581 1.327 . S
C2579 H2602 0.950 . S
C2580 C2579 1.349 . S
C2580 C2592 1.349 . S
C2581 C2579 1.327 . S
C2581 C2597 1.429 . S
C2581 H2603 0.950 . S
C2582 H2578 0.949 . S
C2582 C2590 1.574 . S
C2582 C2598 1.368 . S
H2583 C2591 0.950 . S
H2584 C2589 0.950 . S
H2585 C2590 0.949 . S
H2586 C2592 0.950 1_556 S
H2587 C2593 0.950 . S
H2588 C2594 0.949 . S
C2589 H2584 0.950 . S
C2589 C2591 1.327 . S
C2589 C2595 1.429 . S
C2590 C2582 1.574 . S
C2590 H2585 0.949 . S
C2590 C2596 1.368 . S
C2591 C2575 1.349 . S
C2591 H2583 0.950 . S
C2591 C2589 1.327 . S
C2592 C2580 1.349 . S
C2592 H2586 0.950 1_554 S
C2592 C2593 1.327 . S
C2593 H2587 0.950 . S
C2593 C2592 1.327 . S
C2593 C2597 1.429 . S
C2594 C2577 1.574 . S
C2594 H2588 0.949 . S
C2594 C2598 1.368 . S
C2595 C2576 1.429 . S
C2595 C2589 1.429 . S
C2595 C2596 1.523 . S
C2596 C2577 1.368 . S
C2596 C2590 1.368 . S
C2596 C2595 1.523 . S
C2597 C2581 1.429 . S
C2597 C2593 1.429 . S
C2597 C2598 1.523 . S
C2598 C2582 1.368 . S
C2598 C2594 1.368 . S
C2598 C2597 1.523 . S
H2599 C2574 0.950 . S
H2600 C2576 0.950 . S
H2601 C2577 0.949 . S
H2602 C2579 0.950 . S
H2603 C2581 0.950 . S
C2604 C2605 1.349 . S
C2604 C2606 1.327 . S
C2604 H2629 0.950 . S
C2605 C2604 1.349 . S
C2605 C2621 1.349 . S
C2606 C2604 1.327 . S
C2606 C2625 1.429 . S
C2606 H2630 0.950 . S
C2607 C2624 1.574 . S
C2607 C2626 1.368 . S
C2607 H2631 0.949 . S
H2608 C2612 0.949 . S
C2609 C2610 1.349 . S
C2609 C2611 1.327 . S
C2609 H2632 0.950 . S
C2610 C2609 1.349 . S
C2610 C2622 1.349 . S
C2611 C2609 1.327 . S
C2611 C2627 1.429 . S
C2611 H2633 0.950 . S
C2612 H2608 0.949 . S
C2612 C2620 1.574 . S
C2612 C2628 1.368 . S
H2613 C2621 0.950 1_556 S
H2614 C2619 0.950 . S
H2615 C2620 0.949 . S
H2616 C2622 0.950 . S
H2617 C2623 0.950 . S
H2618 C2624 0.949 . S
C2619 H2614 0.950 . S
C2619 C2621 1.327 . S
C2619 C2625 1.429 . S
C2620 C2612 1.574 . S
C2620 H2615 0.949 . S
C2620 C2626 1.368 . S
C2621 C2605 1.349 . S
C2621 H2613 0.950 1_554 S
C2621 C2619 1.327 . S
C2622 C2610 1.349 . S
C2622 H2616 0.950 . S
C2622 C2623 1.327 . S
C2623 H2617 0.950 . S
C2623 C2622 1.327 . S
C2623 C2627 1.429 . S
C2624 C2607 1.574 . S
C2624 H2618 0.949 . S
C2624 C2628 1.368 . S
C2625 C2606 1.429 . S
C2625 C2619 1.429 . S
C2625 C2626 1.523 . S
C2626 C2607 1.368 . S
C2626 C2620 1.368 . S
C2626 C2625 1.523 . S
C2627 C2611 1.429 . S
C2627 C2623 1.429 . S
C2627 C2628 1.523 . S
C2628 C2612 1.368 . S
C2628 C2624 1.368 . S
C2628 C2627 1.523 . S
H2629 C2604 0.950 . S
H2630 C2606 0.950 . S
H2631 C2607 0.949 . S
H2632 C2609 0.950 . S
H2633 C2611 0.950 . S
C2634 C2635 1.349 . S
C2634 C2636 1.327 . S
C2634 H2659 0.950 1_554 S
C2635 C2634 1.349 . S
C2635 C2651 1.349 . S
C2636 C2634 1.327 . S
C2636 C2655 1.429 . S
C2636 H2660 0.950 . S
C2637 C2654 1.574 . S
C2637 C2656 1.368 . S
C2637 H2661 0.949 . S
H2638 C2642 0.949 . S
C2639 C2640 1.349 . S
C2639 C2641 1.327 . S
C2639 H2662 0.950 . S
C2640 C2639 1.349 . S
C2640 C2652 1.349 . S
C2641 C2639 1.327 . S
C2641 C2657 1.429 . S
C2641 H2663 0.950 . S
C2642 H2638 0.949 . S
C2642 C2650 1.574 . S
C2642 C2658 1.368 . S
H2643 C2651 0.950 . S
H2644 C2649 0.950 . S
H2645 C2650 0.949 . S
H2646 C2652 0.950 . S
H2647 C2653 0.950 . S
H2648 C2654 0.949 . S
C2649 H2644 0.950 . S
C2649 C2651 1.327 . S
C2649 C2655 1.429 . S
C2650 C2642 1.574 . S
C2650 H2645 0.949 . S
C2650 C2656 1.368 . S
C2651 C2635 1.349 . S
C2651 H2643 0.950 . S
C2651 C2649 1.327 . S
C2652 C2640 1.349 . S
C2652 H2646 0.950 . S
C2652 C2653 1.327 . S
C2653 H2647 0.950 . S
C2653 C2652 1.327 . S
C2653 C2657 1.429 . S
C2654 C2637 1.574 . S
C2654 H2648 0.949 . S
C2654 C2658 1.368 . S
C2655 C2636 1.429 . S
C2655 C2649 1.429 . S
C2655 C2656 1.523 . S
C2656 C2637 1.368 . S
C2656 C2650 1.368 . S
C2656 C2655 1.523 . S
C2657 C2641 1.429 . S
C2657 C2653 1.429 . S
C2657 C2658 1.523 . S
C2658 C2642 1.368 . S
C2658 C2654 1.368 . S
C2658 C2657 1.523 . S
H2659 C2634 0.950 1_556 S
H2660 C2636 0.950 . S
H2661 C2637 0.949 . S
H2662 C2639 0.950 . S
H2663 C2641 0.950 . S
C2664 C2665 1.349 . S
C2664 C2666 1.327 . S
C2664 H2689 0.950 . S
C2665 C2664 1.349 . S
C2665 C2681 1.349 . S
C2666 C2664 1.327 . S
C2666 C2685 1.429 . S
C2666 H2690 0.950 . S
C2667 C2684 1.574 . S
C2667 C2686 1.368 . S
C2667 H2691 0.949 . S
H2668 C2672 0.949 . S
C2669 C2670 1.349 . S
C2669 C2671 1.327 . S
C2669 H2692 0.950 . S
C2670 C2669 1.349 . S
C2670 C2682 1.349 . S
C2671 C2669 1.327 . S
C2671 C2687 1.429 . S
C2671 H2693 0.950 1_554 S
C2672 H2668 0.949 . S
C2672 C2680 1.574 1_554 S
C2672 C2688 1.368 1_554 S
H2673 C2681 0.950 . S
H2674 C2679 0.950 . S
H2675 C2680 0.949 . S
H2676 C2682 0.950 . S
H2677 C2683 0.950 . S
H2678 C2684 0.949 . S
C2679 H2674 0.950 . S
C2679 C2681 1.327 . S
C2679 C2685 1.429 . S
C2680 C2672 1.574 1_556 S
C2680 H2675 0.949 . S
C2680 C2686 1.368 . S
C2681 C2665 1.349 . S
C2681 H2673 0.950 . S
C2681 C2679 1.327 . S
C2682 C2670 1.349 . S
C2682 H2676 0.950 . S
C2682 C2683 1.327 . S
C2683 H2677 0.950 . S
C2683 C2682 1.327 . S
C2683 C2687 1.429 . S
C2684 C2667 1.574 . S
C2684 H2678 0.949 . S
C2684 C2688 1.368 . S
C2685 C2666 1.429 . S
C2685 C2679 1.429 . S
C2685 C2686 1.523 . S
C2686 C2667 1.368 . S
C2686 C2680 1.368 . S
C2686 C2685 1.523 . S
C2687 C2671 1.429 . S
C2687 C2683 1.429 . S
C2687 C2688 1.523 1_554 S
C2688 C2672 1.368 1_556 S
C2688 C2684 1.368 . S
C2688 C2687 1.523 1_556 S
H2689 C2664 0.950 . S
H2690 C2666 0.950 . S
H2691 C2667 0.949 . S
H2692 C2669 0.950 . S
H2693 C2671 0.950 1_556 S
C2694 C2695 1.349 . S
C2694 C2696 1.327 . S
C2694 H2719 0.950 . S
C2695 C2694 1.349 . S
C2695 C2711 1.349 . S
C2696 C2694 1.327 . S
C2696 C2715 1.429 . S
C2696 H2720 0.950 . S
C2697 C2714 1.574 . S
C2697 C2716 1.368 . S
C2697 H2721 0.949 . S
H2698 C2702 0.949 . S
C2699 C2700 1.349 . S
C2699 C2701 1.327 . S
C2699 H2722 0.950 . S
C2700 C2699 1.349 . S
C2700 C2712 1.349 . S
C2701 C2699 1.327 . S
C2701 C2717 1.429 . S
C2701 H2723 0.950 . S
C2702 H2698 0.949 . S
C2702 C2710 1.574 1_556 S
C2702 C2718 1.368 . S
H2703 C2711 0.950 . S
H2704 C2709 0.950 1_556 S
H2705 C2710 0.949 . S
H2706 C2712 0.950 . S
H2707 C2713 0.950 . S
H2708 C2714 0.949 . S
C2709 H2704 0.950 1_554 S
C2709 C2711 1.327 . S
C2709 C2715 1.429 . S
C2710 C2702 1.574 1_554 S
C2710 H2705 0.949 . S
C2710 C2716 1.368 1_554 S
C2711 C2695 1.349 . S
C2711 H2703 0.950 . S
C2711 C2709 1.327 . S
C2712 C2700 1.349 . S
C2712 H2706 0.950 . S
C2712 C2713 1.327 . S
C2713 H2707 0.950 . S
C2713 C2712 1.327 . S
C2713 C2717 1.429 . S
C2714 C2697 1.574 . S
C2714 H2708 0.949 . S
C2714 C2718 1.368 . S
C2715 C2696 1.429 . S
C2715 C2709 1.429 . S
C2715 C2716 1.523 1_554 S
C2716 C2697 1.368 . S
C2716 C2710 1.368 1_556 S
C2716 C2715 1.523 1_556 S
C2717 C2701 1.429 . S
C2717 C2713 1.429 . S
C2717 C2718 1.523 . S
C2718 C2702 1.368 . S
C2718 C2714 1.368 . S
C2718 C2717 1.523 . S
H2719 C2694 0.950 . S
H2720 C2696 0.950 . S
H2721 C2697 0.949 . S
H2722 C2699 0.950 . S
H2723 C2701 0.950 . S
C2724 C2725 1.349 . S
C2724 C2726 1.327 . S
C2724 H2749 0.950 . S
C2725 C2724 1.349 . S
C2725 C2741 1.349 . S
C2726 C2724 1.327 . S
C2726 C2745 1.429 . S
C2726 H2750 0.950 . S
C2727 C2744 1.574 . S
C2727 C2746 1.368 . S
C2727 H2751 0.949 . S
H2728 C2732 0.949 1_554 S
C2729 C2730 1.349 . S
C2729 C2731 1.327 . S
C2729 H2752 0.950 . S
C2730 C2729 1.349 . S
C2730 C2742 1.349 . S
C2731 C2729 1.327 . S
C2731 C2747 1.429 . S
C2731 H2753 0.950 . S
C2732 H2728 0.949 1_556 S
C2732 C2740 1.574 . S
C2732 C2748 1.368 . S
H2733 C2741 0.950 . S
H2734 C2739 0.950 . S
H2735 C2740 0.949 . S
H2736 C2742 0.950 . S
H2737 C2743 0.950 . S
H2738 C2744 0.949 . S
C2739 H2734 0.950 . S
C2739 C2741 1.327 . S
C2739 C2745 1.429 . S
C2740 C2732 1.574 . S
C2740 H2735 0.949 . S
C2740 C2746 1.368 . S
C2741 C2725 1.349 . S
C2741 H2733 0.950 . S
C2741 C2739 1.327 . S
C2742 C2730 1.349 . S
C2742 H2736 0.950 . S
C2742 C2743 1.327 . S
C2743 H2737 0.950 . S
C2743 C2742 1.327 . S
C2743 C2747 1.429 . S
C2744 C2727 1.574 . S
C2744 H2738 0.949 . S
C2744 C2748 1.368 . S
C2745 C2726 1.429 . S
C2745 C2739 1.429 . S
C2745 C2746 1.523 . S
C2746 C2727 1.368 . S
C2746 C2740 1.368 . S
C2746 C2745 1.523 . S
C2747 C2731 1.429 . S
C2747 C2743 1.429 . S
C2747 C2748 1.523 1_554 S
C2748 C2732 1.368 . S
C2748 C2744 1.368 . S
C2748 C2747 1.523 1_556 S
H2749 C2724 0.950 . S
H2750 C2726 0.950 . S
H2751 C2727 0.949 . S
H2752 C2729 0.950 . S
H2753 C2731 0.950 . S
C2754 C2755 1.349 . S
C2754 C2756 1.327 . S
C2754 H2779 0.950 . S
C2755 C2754 1.349 . S
C2755 C2771 1.349 . S
C2756 C2754 1.327 . S
C2756 C2775 1.429 . S
C2756 H2780 0.950 . S
C2757 C2774 1.574 . S
C2757 C2776 1.368 . S
C2757 H2781 0.949 . S
H2758 C2762 0.949 . S
C2759 C2760 1.349 . S
C2759 C2761 1.327 . S
C2759 H2782 0.950 . S
C2760 C2759 1.349 . S
C2760 C2772 1.349 . S
C2761 C2759 1.327 . S
C2761 C2777 1.429 . S
C2761 H2783 0.950 . S
C2762 H2758 0.949 . S
C2762 C2770 1.574 . S
C2762 C2778 1.368 . S
H2763 C2771 0.950 . S
H2764 C2769 0.950 . S
H2765 C2770 0.949 . S
H2766 C2772 0.950 . S
H2767 C2773 0.950 . S
H2768 C2774 0.949 . S
C2769 H2764 0.950 . S
C2769 C2771 1.327 . S
C2769 C2775 1.429 . S
C2770 C2762 1.574 . S
C2770 H2765 0.949 . S
C2770 C2776 1.368 . S
C2771 C2755 1.349 . S
C2771 H2763 0.950 . S
C2771 C2769 1.327 . S
C2772 C2760 1.349 . S
C2772 H2766 0.950 . S
C2772 C2773 1.327 . S
C2773 H2767 0.950 . S
C2773 C2772 1.327 . S
C2773 C2777 1.429 . S
C2774 C2757 1.574 . S
C2774 H2768 0.949 . S
C2774 C2778 1.368 . S
C2775 C2756 1.429 . S
C2775 C2769 1.429 . S
C2775 C2776 1.523 . S
C2776 C2757 1.368 . S
C2776 C2770 1.368 . S
C2776 C2775 1.523 . S
C2777 C2761 1.429 . S
C2777 C2773 1.429 . S
C2777 C2778 1.523 . S
C2778 C2762 1.368 . S
C2778 C2774 1.368 . S
C2778 C2777 1.523 . S
H2779 C2754 0.950 . S
H2780 C2756 0.950 . S
H2781 C2757 0.949 . S
H2782 C2759 0.950 . S
H2783 C2761 0.950 . S
C2784 C2785 1.349 . S
C2784 C2786 1.327 . S
C2784 H2809 0.950 . S
C2785 C2784 1.349 . S
C2785 C2801 1.349 . S
C2786 C2784 1.327 . S
C2786 C2805 1.429 . S
C2786 H2810 0.950 . S
C2787 C2804 1.574 . S
C2787 C2806 1.368 . S
C2787 H2811 0.949 . S
H2788 C2792 0.949 . S
C2789 C2790 1.349 . S
C2789 C2791 1.327 . S
C2789 H2812 0.950 . S
C2790 C2789 1.349 . S
C2790 C2802 1.349 . S
C2791 C2789 1.327 . S
C2791 C2807 1.429 . S
C2791 H2813 0.950 . S
C2792 H2788 0.949 . S
C2792 C2800 1.574 . S
C2792 C2808 1.368 . S
H2793 C2801 0.950 . S
H2794 C2799 0.950 . S
H2795 C2800 0.949 . S
H2796 C2802 0.950 . S
H2797 C2803 0.950 . S
H2798 C2804 0.949 . S
C2799 H2794 0.950 . S
C2799 C2801 1.327 . S
C2799 C2805 1.429 . S
C2800 C2792 1.574 . S
C2800 H2795 0.949 . S
C2800 C2806 1.368 . S
C2801 C2785 1.349 . S
C2801 H2793 0.950 . S
C2801 C2799 1.327 . S
C2802 C2790 1.349 . S
C2802 H2796 0.950 . S
C2802 C2803 1.327 . S
C2803 H2797 0.950 . S
C2803 C2802 1.327 . S
C2803 C2807 1.429 . S
C2804 C2787 1.574 . S
C2804 H2798 0.949 . S
C2804 C2808 1.368 . S
C2805 C2786 1.429 . S
C2805 C2799 1.429 . S
C2805 C2806 1.523 . S
C2806 C2787 1.368 . S
C2806 C2800 1.368 . S
C2806 C2805 1.523 . S
C2807 C2791 1.429 . S
C2807 C2803 1.429 . S
C2807 C2808 1.523 . S
C2808 C2792 1.368 . S
C2808 C2804 1.368 . S
C2808 C2807 1.523 . S
H2809 C2784 0.950 . S
H2810 C2786 0.950 . S
H2811 C2787 0.949 . S
H2812 C2789 0.950 . S
H2813 C2791 0.950 . S
C2814 C2815 1.349 . S
C2814 C2816 1.327 . S
C2814 H2839 0.950 . S
C2815 C2814 1.349 . S
C2815 C2831 1.349 . S
C2816 C2814 1.327 . S
C2816 C2835 1.429 . S
C2816 H2840 0.950 . S
C2817 C2834 1.574 . S
C2817 C2836 1.368 . S
C2817 H2841 0.949 . S
H2818 C2822 0.949 . S
C2819 C2820 1.349 . S
C2819 C2821 1.327 . S
C2819 H2842 0.950 . S
C2820 C2819 1.349 . S
C2820 C2832 1.349 . S
C2821 C2819 1.327 . S
C2821 C2837 1.429 . S
C2821 H2843 0.950 . S
C2822 H2818 0.949 . S
C2822 C2830 1.574 . S
C2822 C2838 1.368 . S
H2823 C2831 0.950 . S
H2824 C2829 0.950 . S
H2825 C2830 0.949 . S
H2826 C2832 0.950 . S
H2827 C2833 0.950 . S
H2828 C2834 0.949 . S
C2829 H2824 0.950 . S
C2829 C2831 1.327 . S
C2829 C2835 1.429 . S
C2830 C2822 1.574 . S
C2830 H2825 0.949 . S
C2830 C2836 1.368 . S
C2831 C2815 1.349 . S
C2831 H2823 0.950 . S
C2831 C2829 1.327 . S
C2832 C2820 1.349 . S
C2832 H2826 0.950 . S
C2832 C2833 1.327 . S
C2833 H2827 0.950 . S
C2833 C2832 1.327 . S
C2833 C2837 1.429 . S
C2834 C2817 1.574 . S
C2834 H2828 0.949 . S
C2834 C2838 1.368 . S
C2835 C2816 1.429 . S
C2835 C2829 1.429 . S
C2835 C2836 1.523 . S
C2836 C2817 1.368 . S
C2836 C2830 1.368 . S
C2836 C2835 1.523 . S
C2837 C2821 1.429 . S
C2837 C2833 1.429 . S
C2837 C2838 1.523 . S
C2838 C2822 1.368 . S
C2838 C2834 1.368 . S
C2838 C2837 1.523 . S
H2839 C2814 0.950 . S
H2840 C2816 0.950 . S
H2841 C2817 0.949 . S
H2842 C2819 0.950 . S
H2843 C2821 0.950 . S
C2844 C2845 1.349 . S
C2844 C2846 1.327 . S
C2844 H2869 0.950 . S
C2845 C2844 1.349 . S
C2845 C2861 1.349 . S
C2846 C2844 1.327 . S
C2846 C2865 1.429 . S
C2846 H2870 0.950 . S
C2847 C2864 1.574 . S
C2847 C2866 1.368 . S
C2847 H2871 0.949 . S
H2848 C2852 0.949 . S
C2849 C2850 1.349 . S
C2849 C2851 1.327 . S
C2849 H2872 0.950 . S
C2850 C2849 1.349 . S
C2850 C2862 1.349 . S
C2851 C2849 1.327 . S
C2851 C2867 1.429 . S
C2851 H2873 0.950 . S
C2852 H2848 0.949 . S
C2852 C2860 1.574 . S
C2852 C2868 1.368 . S
H2853 C2861 0.950 . S
H2854 C2859 0.950 . S
H2855 C2860 0.949 . S
H2856 C2862 0.950 . S
H2857 C2863 0.950 . S
H2858 C2864 0.949 . S
C2859 H2854 0.950 . S
C2859 C2861 1.327 . S
C2859 C2865 1.429 . S
C2860 C2852 1.574 . S
C2860 H2855 0.949 . S
C2860 C2866 1.368 . S
C2861 C2845 1.349 . S
C2861 H2853 0.950 . S
C2861 C2859 1.327 . S
C2862 C2850 1.349 . S
C2862 H2856 0.950 . S
C2862 C2863 1.327 . S
C2863 H2857 0.950 . S
C2863 C2862 1.327 . S
C2863 C2867 1.429 . S
C2864 C2847 1.574 . S
C2864 H2858 0.949 . S
C2864 C2868 1.368 . S
C2865 C2846 1.429 . S
C2865 C2859 1.429 . S
C2865 C2866 1.523 . S
C2866 C2847 1.368 . S
C2866 C2860 1.368 . S
C2866 C2865 1.523 . S
C2867 C2851 1.429 . S
C2867 C2863 1.429 . S
C2867 C2868 1.523 . S
C2868 C2852 1.368 . S
C2868 C2864 1.368 . S
C2868 C2867 1.523 . S
H2869 C2844 0.950 . S
H2870 C2846 0.950 . S
H2871 C2847 0.949 . S
H2872 C2849 0.950 . S
H2873 C2851 0.950 . S
C2874 C2875 1.349 . S
C2874 C2876 1.327 . S
C2874 H2899 0.950 . S
C2875 C2874 1.349 . S
C2875 C2891 1.349 . S
C2876 C2874 1.327 . S
C2876 C2895 1.429 . S
C2876 H2900 0.950 . S
C2877 C2894 1.574 . S
C2877 C2896 1.368 1_565 S
C2877 H2901 0.949 . S
H2878 C2882 0.949 . S
C2879 C2880 1.349 . S
C2879 C2881 1.327 . S
C2879 H2902 0.950 . S
C2880 C2879 1.349 . S
C2880 C2892 1.349 . S
C2881 C2879 1.327 . S
C2881 C2897 1.429 . S
C2881 H2903 0.950 . S
C2882 H2878 0.949 . S
C2882 C2890 1.574 . S
C2882 C2898 1.368 1_545 S
H2883 C2891 0.950 . S
H2884 C2889 0.950 . S
H2885 C2890 0.949 . S
H2886 C2892 0.950 . S
H2887 C2893 0.950 . S
H2888 C2894 0.949 . S
C2889 H2884 0.950 . S
C2889 C2891 1.327 . S
C2889 C2895 1.429 . S
C2890 C2882 1.574 . S
C2890 H2885 0.949 . S
C2890 C2896 1.368 . S
C2891 C2875 1.349 . S
C2891 H2883 0.950 . S
C2891 C2889 1.327 . S
C2892 C2880 1.349 . S
C2892 H2886 0.950 . S
C2892 C2893 1.327 . S
C2893 H2887 0.950 . S
C2893 C2892 1.327 . S
C2893 C2897 1.429 . S
C2894 C2877 1.574 . S
C2894 H2888 0.949 . S
C2894 C2898 1.368 . S
C2895 C2876 1.429 . S
C2895 C2889 1.429 . S
C2895 C2896 1.523 . S
C2896 C2877 1.368 1_545 S
C2896 C2890 1.368 . S
C2896 C2895 1.523 . S
C2897 C2881 1.429 . S
C2897 C2893 1.429 . S
C2897 C2898 1.523 . S
C2898 C2882 1.368 1_565 S
C2898 C2894 1.368 . S
C2898 C2897 1.523 . S
H2899 C2874 0.950 . S
H2900 C2876 0.950 . S
H2901 C2877 0.949 . S
H2902 C2879 0.950 . S
H2903 C2881 0.950 . S
C2904 C2905 1.349 . S
C2904 C2906 1.327 . S
C2904 H2929 0.950 . S
C2905 C2904 1.349 . S
C2905 C2921 1.349 . S
C2906 C2904 1.327 . S
C2906 C2925 1.429 . S
C2906 H2930 0.950 . S
C2907 C2924 1.574 . S
C2907 C2926 1.368 . S
C2907 H2931 0.949 . S
H2908 C2912 0.949 . S
C2909 C2910 1.349 . S
C2909 C2911 1.327 . S
C2909 H2932 0.950 . S
C2910 C2909 1.349 . S
C2910 C2922 1.349 . S
C2911 C2909 1.327 . S
C2911 C2927 1.429 . S
C2911 H2933 0.950 . S
C2912 H2908 0.949 . S
C2912 C2920 1.574 . S
C2912 C2928 1.368 . S
H2913 C2921 0.950 . S
H2914 C2919 0.950 . S
H2915 C2920 0.949 . S
H2916 C2922 0.950 . S
H2917 C2923 0.950 . S
H2918 C2924 0.949 . S
C2919 H2914 0.950 . S
C2919 C2921 1.327 . S
C2919 C2925 1.429 . S
C2920 C2912 1.574 . S
C2920 H2915 0.949 . S
C2920 C2926 1.368 1_655 S
C2921 C2905 1.349 . S
C2921 H2913 0.950 . S
C2921 C2919 1.327 . S
C2922 C2910 1.349 . S
C2922 H2916 0.950 . S
C2922 C2923 1.327 . S
C2923 H2917 0.950 . S
C2923 C2922 1.327 . S
C2923 C2927 1.429 . S
C2924 C2907 1.574 . S
C2924 H2918 0.949 . S
C2924 C2928 1.368 1_455 S
C2925 C2906 1.429 . S
C2925 C2919 1.429 . S
C2925 C2926 1.523 . S
C2926 C2907 1.368 . S
C2926 C2920 1.368 1_455 S
C2926 C2925 1.523 . S
C2927 C2911 1.429 . S
C2927 C2923 1.429 . S
C2927 C2928 1.523 . S
C2928 C2912 1.368 . S
C2928 C2924 1.368 1_655 S
C2928 C2927 1.523 . S
H2929 C2904 0.950 . S
H2930 C2906 0.950 . S
H2931 C2907 0.949 . S
H2932 C2909 0.950 . S
H2933 C2911 0.950 . S
C2934 C2935 1.349 . S
C2934 C2936 1.327 . S
C2934 H2959 0.950 . S
C2935 C2934 1.349 . S
C2935 C2951 1.349 . S
C2936 C2934 1.327 . S
C2936 C2955 1.429 . S
C2936 H2960 0.950 . S
C2937 C2954 1.574 . S
C2937 C2956 1.368 . S
C2937 H2961 0.949 . S
H2938 C2942 0.949 . S
C2939 C2940 1.349 . S
C2939 C2941 1.327 . S
C2939 H2962 0.950 . S
C2940 C2939 1.349 . S
C2940 C2952 1.349 . S
C2941 C2939 1.327 . S
C2941 C2957 1.429 . S
C2941 H2963 0.950 . S
C2942 H2938 0.949 . S
C2942 C2950 1.574 . S
C2942 C2958 1.368 . S
H2943 C2951 0.950 . S
H2944 C2949 0.950 . S
H2945 C2950 0.949 . S
H2946 C2952 0.950 . S
H2947 C2953 0.950 . S
H2948 C2954 0.949 . S
C2949 H2944 0.950 . S
C2949 C2951 1.327 . S
C2949 C2955 1.429 . S
C2950 C2942 1.574 . S
C2950 H2945 0.949 . S
C2950 C2956 1.368 . S
C2951 C2935 1.349 . S
C2951 H2943 0.950 . S
C2951 C2949 1.327 . S
C2952 C2940 1.349 . S
C2952 H2946 0.950 . S
C2952 C2953 1.327 . S
C2953 H2947 0.950 . S
C2953 C2952 1.327 . S
C2953 C2957 1.429 . S
C2954 C2937 1.574 . S
C2954 H2948 0.949 . S
C2954 C2958 1.368 . S
C2955 C2936 1.429 . S
C2955 C2949 1.429 . S
C2955 C2956 1.523 . S
C2956 C2937 1.368 . S
C2956 C2950 1.368 . S
C2956 C2955 1.523 . S
C2957 C2941 1.429 . S
C2957 C2953 1.429 . S
C2957 C2958 1.523 . S
C2958 C2942 1.368 . S
C2958 C2954 1.368 . S
C2958 C2957 1.523 . S
H2959 C2934 0.950 . S
H2960 C2936 0.950 . S
H2961 C2937 0.949 . S
H2962 C2939 0.950 . S
H2963 C2941 0.950 . S
C2964 C2965 1.349 . S
C2964 C2966 1.327 . S
C2964 H2989 0.950 . S
C2965 C2964 1.349 . S
C2965 C2981 1.349 . S
C2966 C2964 1.327 . S
C2966 C2985 1.429 . S
C2966 H2990 0.950 . S
C2967 C2984 1.574 1_545 S
C2967 C2986 1.368 . S
C2967 H2991 0.949 . S
H2968 C2972 0.949 . S
C2969 C2970 1.349 . S
C2969 C2971 1.327 . S
C2969 H2992 0.950 . S
C2970 C2969 1.349 . S
C2970 C2982 1.349 . S
C2971 C2969 1.327 . S
C2971 C2987 1.429 . S
C2971 H2993 0.950 . S
C2972 H2968 0.949 . S
C2972 C2980 1.574 1_565 S
C2972 C2988 1.368 . S
H2973 C2981 0.950 . S
H2974 C2979 0.950 . S
H2975 C2980 0.949 . S
H2976 C2982 0.950 . S
H2977 C2983 0.950 . S
H2978 C2984 0.949 . S
C2979 H2974 0.950 . S
C2979 C2981 1.327 . S
C2979 C2985 1.429 . S
C2980 C2972 1.574 1_545 S
C2980 H2975 0.949 . S
C2980 C2986 1.368 . S
C2981 C2965 1.349 . S
C2981 H2973 0.950 . S
C2981 C2979 1.327 . S
C2982 C2970 1.349 . S
C2982 H2976 0.950 . S
C2982 C2983 1.327 . S
C2983 H2977 0.950 . S
C2983 C2982 1.327 . S
C2983 C2987 1.429 . S
C2984 C2967 1.574 1_565 S
C2984 H2978 0.949 . S
C2984 C2988 1.368 . S
C2985 C2966 1.429 . S
C2985 C2979 1.429 . S
C2985 C2986 1.523 . S
C2986 C2967 1.368 . S
C2986 C2980 1.368 . S
C2986 C2985 1.523 . S
C2987 C2971 1.429 . S
C2987 C2983 1.429 . S
C2987 C2988 1.523 . S
C2988 C2972 1.368 . S
C2988 C2984 1.368 . S
C2988 C2987 1.523 . S
H2989 C2964 0.950 . S
H2990 C2966 0.950 . S
H2991 C2967 0.949 . S
H2992 C2969 0.950 . S
H2993 C2971 0.950 . S
C2994 C2995 1.349 . S
C2994 C2996 1.327 . S
C2994 H3019 0.950 . S
C2995 C2994 1.349 . S
C2995 C3011 1.349 . S
C2996 C2994 1.327 . S
C2996 C3015 1.429 . S
C2996 H3020 0.950 . S
C2997 C3014 1.601 . S
C2997 C3016 1.368 . S
C2997 H3021 0.949 . S
H2998 C3002 0.949 . S
C2999 C3000 1.349 . S
C2999 C3001 1.327 . S
C2999 H3022 0.950 . S
C3000 C2999 1.349 . S
C3000 C3012 1.349 . S
C3001 C2999 1.327 . S
C3001 C3017 1.429 . S
C3001 H3023 0.950 . S
C3002 H2998 0.949 . S
C3002 C3010 1.601 . S
C3002 C3018 1.368 . S
H3003 C3011 0.950 . S
H3004 C3009 0.950 . S
H3005 C3010 0.947 . S
H3006 C3012 0.950 . S
H3007 C3013 0.950 . S
H3008 C3014 0.947 . S
C3009 H3004 0.950 . S
C3009 C3011 1.327 . S
C3009 C3015 1.429 . S
C3010 C3002 1.601 . S
C3010 H3005 0.947 . S
C3010 C3016 1.328 1_455 S
C3011 C2995 1.349 . S
C3011 H3003 0.950 . S
C3011 C3009 1.327 . S
C3012 C3000 1.349 . S
C3012 H3006 0.950 . S
C3012 C3013 1.327 . S
C3013 H3007 0.950 . S
C3013 C3012 1.327 . S
C3013 C3017 1.429 . S
C3014 C2997 1.601 . S
C3014 H3008 0.947 . S
C3014 C3018 1.329 1_655 S
C3015 C2996 1.429 . S
C3015 C3009 1.429 . S
C3015 C3016 1.523 . S
C3016 C2997 1.368 . S
C3016 C3010 1.328 1_655 S
C3016 C3015 1.523 . S
C3017 C3001 1.429 . S
C3017 C3013 1.429 . S
C3017 C3018 1.523 . S
C3018 C3002 1.368 . S
C3018 C3014 1.329 1_455 S
C3018 C3017 1.523 . S
H3019 C2994 0.950 . S
H3020 C2996 0.950 . S
H3021 C2997 0.949 . S
H3022 C2999 0.950 . S
H3023 C3001 0.950 . S
C3024 C3025 1.349 . S
C3024 C3026 1.327 . S
C3024 H3049 0.950 . S
C3025 C3024 1.349 . S
C3025 C3041 1.349 . S
C3026 C3024 1.327 . S
C3026 C3045 1.429 . S
C3026 H3050 0.950 . S
C3027 C3044 1.574 . S
C3027 C3046 1.368 . S
C3027 H3051 0.949 . S
H3028 C3032 0.949 . S
C3029 C3030 1.349 . S
C3029 C3031 1.327 . S
C3029 H3052 0.950 . S
C3030 C3029 1.349 . S
C3030 C3042 1.349 1_554 S
C3031 C3029 1.327 . S
C3031 C3047 1.429 . S
C3031 H3053 0.950 . S
C3032 H3028 0.949 . S
C3032 C3040 1.574 . S
C3032 C3048 1.368 . S
H3033 C3041 0.950 . S
H3034 C3039 0.950 . S
H3035 C3040 0.949 . S
H3036 C3042 0.950 . S
H3037 C3043 0.950 . S
H3038 C3044 0.949 . S
C3039 H3034 0.950 . S
C3039 C3041 1.327 . S
C3039 C3045 1.429 . S
C3040 C3032 1.574 . S
C3040 H3035 0.949 . S
C3040 C3046 1.368 . S
C3041 C3025 1.349 . S
C3041 H3033 0.950 . S
C3041 C3039 1.327 . S
C3042 C3030 1.349 1_556 S
C3042 H3036 0.950 . S
C3042 C3043 1.327 1_556 S
C3043 H3037 0.950 . S
C3043 C3042 1.327 1_554 S
C3043 C3047 1.429 . S
C3044 C3027 1.574 . S
C3044 H3038 0.949 . S
C3044 C3048 1.368 . S
C3045 C3026 1.429 . S
C3045 C3039 1.429 . S
C3045 C3046 1.523 . S
C3046 C3027 1.368 . S
C3046 C3040 1.368 . S
C3046 C3045 1.523 . S
C3047 C3031 1.429 . S
C3047 C3043 1.429 . S
C3047 C3048 1.523 . S
C3048 C3032 1.368 . S
C3048 C3044 1.368 . S
C3048 C3047 1.523 . S
H3049 C3024 0.950 . S
H3050 C3026 0.950 . S
H3051 C3027 0.949 . S
H3052 C3029 0.950 . S
H3053 C3031 0.950 . S
C3054 C3055 1.349 . S
C3054 C3056 1.327 . S
C3054 H3079 0.950 . S
C3055 C3054 1.349 . S
C3055 C3071 1.349 . S
C3056 C3054 1.327 . S
C3056 C3075 1.429 . S
C3056 H3080 0.950 . S
C3057 C3074 1.574 . S
C3057 C3076 1.368 . S
C3057 H3081 0.949 . S
H3058 C3062 0.949 . S
C3059 C3060 1.349 . S
C3059 C3061 1.327 . S
C3059 H3082 0.950 . S
C3060 C3059 1.349 . S
C3060 C3072 1.349 . S
C3061 C3059 1.327 . S
C3061 C3077 1.429 . S
C3061 H3083 0.950 . S
C3062 H3058 0.949 . S
C3062 C3070 1.574 . S
C3062 C3078 1.368 . S
H3063 C3071 0.950 . S
H3064 C3069 0.950 . S
H3065 C3070 0.949 . S
H3066 C3072 0.950 1_556 S
H3067 C3073 0.950 . S
H3068 C3074 0.949 . S
C3069 H3064 0.950 . S
C3069 C3071 1.327 . S
C3069 C3075 1.429 . S
C3070 C3062 1.574 . S
C3070 H3065 0.949 . S
C3070 C3076 1.368 . S
C3071 C3055 1.349 . S
C3071 H3063 0.950 . S
C3071 C3069 1.327 . S
C3072 C3060 1.349 . S
C3072 H3066 0.950 1_554 S
C3072 C3073 1.327 . S
C3073 H3067 0.950 . S
C3073 C3072 1.327 . S
C3073 C3077 1.429 . S
C3074 C3057 1.574 . S
C3074 H3068 0.949 . S
C3074 C3078 1.368 . S
C3075 C3056 1.429 . S
C3075 C3069 1.429 . S
C3075 C3076 1.523 . S
C3076 C3057 1.368 . S
C3076 C3070 1.368 . S
C3076 C3075 1.523 . S
C3077 C3061 1.429 . S
C3077 C3073 1.429 . S
C3077 C3078 1.523 . S
C3078 C3062 1.368 . S
C3078 C3074 1.368 . S
C3078 C3077 1.523 . S
H3079 C3054 0.950 . S
H3080 C3056 0.950 . S
H3081 C3057 0.949 . S
H3082 C3059 0.950 . S
H3083 C3061 0.950 . S
C3084 C3085 1.349 . S
C3084 C3086 1.327 . S
C3084 H3109 0.950 . S
C3085 C3084 1.349 . S
C3085 C3101 1.349 1_554 S
C3086 C3084 1.327 . S
C3086 C3105 1.429 . S
C3086 H3110 0.950 . S
C3087 C3104 1.574 . S
C3087 C3106 1.368 . S
C3087 H3111 0.949 . S
H3088 C3092 0.949 . S
C3089 C3090 1.349 . S
C3089 C3091 1.327 . S
C3089 H3112 0.950 . S
C3090 C3089 1.349 . S
C3090 C3102 1.349 . S
C3091 C3089 1.327 . S
C3091 C3107 1.429 . S
C3091 H3113 0.950 . S
C3092 H3088 0.949 . S
C3092 C3100 1.574 . S
C3092 C3108 1.368 . S
H3093 C3101 0.950 . S
H3094 C3099 0.950 . S
H3095 C3100 0.949 . S
H3096 C3102 0.950 . S
H3097 C3103 0.950 . S
H3098 C3104 0.949 . S
C3099 H3094 0.950 . S
C3099 C3101 1.327 1_554 S
C3099 C3105 1.429 . S
C3100 C3092 1.574 . S
C3100 H3095 0.949 . S
C3100 C3106 1.368 . S
C3101 C3085 1.349 1_556 S
C3101 H3093 0.950 . S
C3101 C3099 1.327 1_556 S
C3102 C3090 1.349 . S
C3102 H3096 0.950 . S
C3102 C3103 1.327 . S
C3103 H3097 0.950 . S
C3103 C3102 1.327 . S
C3103 C3107 1.429 . S
C3104 C3087 1.574 . S
C3104 H3098 0.949 . S
C3104 C3108 1.368 . S
C3105 C3086 1.429 . S
C3105 C3099 1.429 . S
C3105 C3106 1.523 . S
C3106 C3087 1.368 . S
C3106 C3100 1.368 . S
C3106 C3105 1.523 . S
C3107 C3091 1.429 . S
C3107 C3103 1.429 . S
C3107 C3108 1.523 . S
C3108 C3092 1.368 . S
C3108 C3104 1.368 . S
C3108 C3107 1.523 . S
H3109 C3084 0.950 . S
H3110 C3086 0.950 . S
H3111 C3087 0.949 . S
H3112 C3089 0.950 . S
H3113 C3091 0.950 . S
C3114 C3115 1.349 . S
C3114 C3116 1.327 . S
C3114 H3139 0.950 . S
C3115 C3114 1.349 . S
C3115 C3131 1.349 . S
C3116 C3114 1.327 . S
C3116 C3135 1.429 . S
C3116 H3140 0.950 . S
C3117 C3134 1.574 . S
C3117 C3136 1.368 . S
C3117 H3141 0.949 . S
H3118 C3122 0.949 . S
C3119 C3120 1.349 . S
C3119 C3121 1.327 . S
C3119 H3142 0.950 . S
C3120 C3119 1.349 . S
C3120 C3132 1.349 . S
C3121 C3119 1.327 . S
C3121 C3137 1.429 . S
C3121 H3143 0.950 . S
C3122 H3118 0.949 . S
C3122 C3130 1.574 . S
C3122 C3138 1.368 . S
H3123 C3131 0.950 . S
H3124 C3129 0.950 . S
H3125 C3130 0.949 . S
H3126 C3132 0.950 . S
H3127 C3133 0.950 . S
H3128 C3134 0.949 . S
C3129 H3124 0.950 . S
C3129 C3131 1.327 . S
C3129 C3135 1.429 . S
C3130 C3122 1.574 . S
C3130 H3125 0.949 . S
C3130 C3136 1.368 . S
C3131 C3115 1.349 . S
C3131 H3123 0.950 . S
C3131 C3129 1.327 . S
C3132 C3120 1.349 . S
C3132 H3126 0.950 . S
C3132 C3133 1.327 . S
C3133 H3127 0.950 . S
C3133 C3132 1.327 . S
C3133 C3137 1.429 . S
C3134 C3117 1.574 . S
C3134 H3128 0.949 . S
C3134 C3138 1.368 . S
C3135 C3116 1.429 . S
C3135 C3129 1.429 . S
C3135 C3136 1.523 . S
C3136 C3117 1.368 . S
C3136 C3130 1.368 . S
C3136 C3135 1.523 . S
C3137 C3121 1.429 . S
C3137 C3133 1.429 . S
C3137 C3138 1.523 . S
C3138 C3122 1.368 . S
C3138 C3134 1.368 . S
C3138 C3137 1.523 . S
H3139 C3114 0.950 . S
H3140 C3116 0.950 . S
H3141 C3117 0.949 . S
H3142 C3119 0.950 . S
H3143 C3121 0.950 . S
C3144 C3145 1.349 . S
C3144 C3146 1.327 . S
C3144 H3169 0.950 . S
C3145 C3144 1.349 . S
C3145 C3161 1.349 . S
C3146 C3144 1.327 . S
C3146 C3165 1.429 . S
C3146 H3170 0.950 . S
C3147 C3164 1.574 . S
C3147 C3166 1.368 . S
C3147 H3171 0.949 . S
H3148 C3152 0.949 . S
C3149 C3150 1.349 . S
C3149 C3151 1.327 . S
C3149 H3172 0.950 . S
C3150 C3149 1.349 . S
C3150 C3162 1.349 . S
C3151 C3149 1.327 . S
C3151 C3167 1.429 . S
C3151 H3173 0.950 . S
C3152 H3148 0.949 . S
C3152 C3160 1.574 . S
C3152 C3168 1.368 . S
H3153 C3161 0.950 . S
H3154 C3159 0.950 . S
H3155 C3160 0.949 . S
H3156 C3162 0.950 . S
H3157 C3163 0.950 . S
H3158 C3164 0.949 . S
C3159 H3154 0.950 . S
C3159 C3161 1.327 . S
C3159 C3165 1.429 . S
C3160 C3152 1.574 . S
C3160 H3155 0.949 . S
C3160 C3166 1.368 . S
C3161 C3145 1.349 . S
C3161 H3153 0.950 . S
C3161 C3159 1.327 . S
C3162 C3150 1.349 . S
C3162 H3156 0.950 . S
C3162 C3163 1.327 . S
C3163 H3157 0.950 . S
C3163 C3162 1.327 . S
C3163 C3167 1.429 . S
C3164 C3147 1.574 . S
C3164 H3158 0.949 . S
C3164 C3168 1.368 . S
C3165 C3146 1.429 . S
C3165 C3159 1.429 . S
C3165 C3166 1.523 . S
C3166 C3147 1.368 . S
C3166 C3160 1.368 . S
C3166 C3165 1.523 . S
C3167 C3151 1.429 . S
C3167 C3163 1.429 . S
C3167 C3168 1.523 . S
C3168 C3152 1.368 . S
C3168 C3164 1.368 . S
C3168 C3167 1.523 . S
H3169 C3144 0.950 . S
H3170 C3146 0.950 . S
H3171 C3147 0.949 . S
H3172 C3149 0.950 . S
H3173 C3151 0.950 . S
C3174 C3175 1.349 . S
C3174 C3176 1.327 . S
C3174 H3199 0.950 . S
C3175 C3174 1.349 . S
C3175 C3191 1.349 . S
C3176 C3174 1.327 . S
C3176 C3195 1.429 . S
C3176 H3200 0.950 . S
C3177 C3194 1.574 . S
C3177 C3196 1.368 . S
C3177 H3201 0.949 . S
H3178 C3182 0.949 . S
C3179 C3180 1.349 . S
C3179 C3181 1.327 . S
C3179 H3202 0.950 . S
C3180 C3179 1.349 . S
C3180 C3192 1.349 . S
C3181 C3179 1.327 . S
C3181 C3197 1.429 . S
C3181 H3203 0.950 . S
C3182 H3178 0.949 . S
C3182 C3190 1.574 . S
C3182 C3198 1.368 . S
H3183 C3191 0.950 . S
H3184 C3189 0.950 . S
H3185 C3190 0.949 . S
H3186 C3192 0.950 . S
H3187 C3193 0.950 . S
H3188 C3194 0.949 . S
C3189 H3184 0.950 . S
C3189 C3191 1.327 . S
C3189 C3195 1.429 . S
C3190 C3182 1.574 . S
C3190 H3185 0.949 . S
C3190 C3196 1.368 . S
C3191 C3175 1.349 . S
C3191 H3183 0.950 . S
C3191 C3189 1.327 . S
C3192 C3180 1.349 . S
C3192 H3186 0.950 . S
C3192 C3193 1.327 . S
C3193 H3187 0.950 . S
C3193 C3192 1.327 . S
C3193 C3197 1.429 . S
C3194 C3177 1.574 . S
C3194 H3188 0.949 . S
C3194 C3198 1.368 . S
C3195 C3176 1.429 . S
C3195 C3189 1.429 . S
C3195 C3196 1.523 . S
C3196 C3177 1.368 . S
C3196 C3190 1.368 . S
C3196 C3195 1.523 . S
C3197 C3181 1.429 . S
C3197 C3193 1.429 . S
C3197 C3198 1.523 . S
C3198 C3182 1.368 . S
C3198 C3194 1.368 . S
C3198 C3197 1.523 . S
H3199 C3174 0.950 . S
H3200 C3176 0.950 . S
H3201 C3177 0.949 . S
H3202 C3179 0.950 . S
H3203 C3181 0.950 . S
C3204 C3205 1.349 . S
C3204 C3206 1.327 . S
C3204 H3229 0.950 . S
C3205 C3204 1.349 . S
C3205 C3221 1.349 . S
C3206 C3204 1.327 . S
C3206 C3225 1.429 . S
C3206 H3230 0.950 . S
C3207 C3224 1.574 . S
C3207 C3226 1.368 . S
C3207 H3231 0.949 . S
H3208 C3212 0.949 . S
C3209 C3210 1.349 . S
C3209 C3211 1.327 . S
C3209 H3232 0.950 . S
C3210 C3209 1.349 . S
C3210 C3222 1.349 . S
C3211 C3209 1.327 . S
C3211 C3227 1.429 . S
C3211 H3233 0.950 . S
C3212 H3208 0.949 . S
C3212 C3220 1.574 . S
C3212 C3228 1.368 . S
H3213 C3221 0.950 . S
H3214 C3219 0.950 . S
H3215 C3220 0.949 . S
H3216 C3222 0.950 . S
H3217 C3223 0.950 . S
H3218 C3224 0.949 . S
C3219 H3214 0.950 . S
C3219 C3221 1.327 . S
C3219 C3225 1.429 . S
C3220 C3212 1.574 . S
C3220 H3215 0.949 . S
C3220 C3226 1.368 . S
C3221 C3205 1.349 . S
C3221 H3213 0.950 . S
C3221 C3219 1.327 . S
C3222 C3210 1.349 . S
C3222 H3216 0.950 . S
C3222 C3223 1.327 . S
C3223 H3217 0.950 . S
C3223 C3222 1.327 . S
C3223 C3227 1.429 . S
C3224 C3207 1.574 . S
C3224 H3218 0.949 . S
C3224 C3228 1.368 . S
C3225 C3206 1.429 . S
C3225 C3219 1.429 . S
C3225 C3226 1.523 . S
C3226 C3207 1.368 . S
C3226 C3220 1.368 . S
C3226 C3225 1.523 . S
C3227 C3211 1.429 . S
C3227 C3223 1.429 . S
C3227 C3228 1.523 . S
C3228 C3212 1.368 . S
C3228 C3224 1.368 . S
C3228 C3227 1.523 . S
H3229 C3204 0.950 . S
H3230 C3206 0.950 . S
H3231 C3207 0.949 . S
H3232 C3209 0.950 . S
H3233 C3211 0.950 . S
C3234 C3235 1.349 . S
C3234 C3236 1.327 . S
C3234 H3259 0.950 . S
C3235 C3234 1.349 . S
C3235 C3251 1.349 . S
C3236 C3234 1.327 . S
C3236 C3255 1.429 . S
C3236 H3260 0.950 . S
C3237 C3254 1.574 . S
C3237 C3256 1.368 . S
C3237 H3261 0.949 . S
H3238 C3242 0.949 . S
C3239 C3240 1.349 . S
C3239 C3241 1.327 . S
C3239 H3262 0.950 . S
C3240 C3239 1.349 . S
C3240 C3252 1.349 . S
C3241 C3239 1.327 . S
C3241 C3257 1.429 . S
C3241 H3263 0.950 . S
C3242 H3238 0.949 . S
C3242 C3250 1.574 . S
C3242 C3258 1.368 . S
H3243 C3251 0.950 . S
H3244 C3249 0.950 . S
H3245 C3250 0.949 . S
H3246 C3252 0.950 . S
H3247 C3253 0.950 . S
H3248 C3254 0.949 . S
C3249 H3244 0.950 . S
C3249 C3251 1.327 . S
C3249 C3255 1.429 . S
C3250 C3242 1.574 . S
C3250 H3245 0.949 . S
C3250 C3256 1.368 . S
C3251 C3235 1.349 . S
C3251 H3243 0.950 . S
C3251 C3249 1.327 . S
C3252 C3240 1.349 . S
C3252 H3246 0.950 . S
C3252 C3253 1.327 . S
C3253 H3247 0.950 . S
C3253 C3252 1.327 . S
C3253 C3257 1.429 . S
C3254 C3237 1.574 . S
C3254 H3248 0.949 . S
C3254 C3258 1.368 . S
C3255 C3236 1.429 . S
C3255 C3249 1.429 . S
C3255 C3256 1.523 . S
C3256 C3237 1.368 . S
C3256 C3250 1.368 . S
C3256 C3255 1.523 . S
C3257 C3241 1.429 . S
C3257 C3253 1.429 . S
C3257 C3258 1.523 . S
C3258 C3242 1.368 . S
C3258 C3254 1.368 . S
C3258 C3257 1.523 . S
H3259 C3234 0.950 . S
H3260 C3236 0.950 . S
H3261 C3237 0.949 . S
H3262 C3239 0.950 . S
H3263 C3241 0.950 . S
C3264 C3265 1.349 . S
C3264 C3266 1.327 . S
C3264 H3289 0.950 . S
C3265 C3264 1.349 . S
C3265 C3281 1.349 . S
C3266 C3264 1.327 . S
C3266 C3285 1.429 . S
C3266 H3290 0.950 . S
C3267 C3284 1.574 . S
C3267 C3286 1.368 . S
C3267 H3291 0.949 . S
H3268 C3272 0.949 . S
C3269 C3270 1.349 . S
C3269 C3271 1.327 . S
C3269 H3292 0.950 . S
C3270 C3269 1.349 . S
C3270 C3282 1.349 . S
C3271 C3269 1.327 . S
C3271 C3287 1.429 . S
C3271 H3293 0.950 . S
C3272 H3268 0.949 . S
C3272 C3280 1.574 . S
C3272 C3288 1.368 . S
H3273 C3281 0.950 . S
H3274 C3279 0.950 . S
H3275 C3280 0.949 . S
H3276 C3282 0.950 . S
H3277 C3283 0.950 . S
H3278 C3284 0.949 . S
C3279 H3274 0.950 . S
C3279 C3281 1.327 . S
C3279 C3285 1.429 . S
C3280 C3272 1.574 . S
C3280 H3275 0.949 . S
C3280 C3286 1.368 . S
C3281 C3265 1.349 . S
C3281 H3273 0.950 . S
C3281 C3279 1.327 . S
C3282 C3270 1.349 . S
C3282 H3276 0.950 . S
C3282 C3283 1.327 . S
C3283 H3277 0.950 . S
C3283 C3282 1.327 . S
C3283 C3287 1.429 . S
C3284 C3267 1.574 . S
C3284 H3278 0.949 . S
C3284 C3288 1.368 . S
C3285 C3266 1.429 . S
C3285 C3279 1.429 . S
C3285 C3286 1.523 . S
C3286 C3267 1.368 . S
C3286 C3280 1.368 . S
C3286 C3285 1.523 . S
C3287 C3271 1.429 . S
C3287 C3283 1.429 . S
C3287 C3288 1.523 . S
C3288 C3272 1.368 . S
C3288 C3284 1.368 . S
C3288 C3287 1.523 . S
H3289 C3264 0.950 . S
H3290 C3266 0.950 . S
H3291 C3267 0.949 . S
H3292 C3269 0.950 . S
H3293 C3271 0.950 . S
C3294 C3295 1.349 . S
C3294 C3296 1.327 . S
C3294 H3319 0.950 . S
C3295 C3294 1.349 . S
C3295 C3311 1.349 . S
C3296 C3294 1.327 . S
C3296 C3315 1.429 . S
C3296 H3320 0.950 . S
C3297 C3314 1.574 . S
C3297 C3316 1.368 . S
C3297 H3321 0.949 . S
H3298 C3302 0.949 . S
C3299 C3300 1.349 . S
C3299 C3301 1.327 . S
C3299 H3322 0.950 . S
C3300 C3299 1.349 . S
C3300 C3312 1.349 . S
C3301 C3299 1.327 . S
C3301 C3317 1.429 . S
C3301 H3323 0.950 . S
C3302 H3298 0.949 . S
C3302 C3310 1.574 . S
C3302 C3318 1.368 . S
H3303 C3311 0.950 . S
H3304 C3309 0.950 . S
H3305 C3310 0.949 1_554 S
H3306 C3312 0.950 . S
H3307 C3313 0.950 . S
H3308 C3314 0.949 . S
C3309 H3304 0.950 . S
C3309 C3311 1.327 . S
C3309 C3315 1.429 . S
C3310 C3302 1.574 . S
C3310 H3305 0.949 1_556 S
C3310 C3316 1.368 . S
C3311 C3295 1.349 . S
C3311 H3303 0.950 . S
C3311 C3309 1.327 . S
C3312 C3300 1.349 . S
C3312 H3306 0.950 . S
C3312 C3313 1.327 . S
C3313 H3307 0.950 . S
C3313 C3312 1.327 . S
C3313 C3317 1.429 . S
C3314 C3297 1.574 . S
C3314 H3308 0.949 . S
C3314 C3318 1.368 . S
C3315 C3296 1.429 . S
C3315 C3309 1.429 . S
C3315 C3316 1.523 1_554 S
C3316 C3297 1.368 . S
C3316 C3310 1.368 . S
C3316 C3315 1.523 1_556 S
C3317 C3301 1.429 . S
C3317 C3313 1.429 . S
C3317 C3318 1.523 . S
C3318 C3302 1.368 . S
C3318 C3314 1.368 . S
C3318 C3317 1.523 . S
H3319 C3294 0.950 . S
H3320 C3296 0.950 . S
H3321 C3297 0.949 . S
H3322 C3299 0.950 . S
H3323 C3301 0.950 . S
C3324 C3325 1.349 . S
C3324 C3326 1.327 . S
C3324 H3349 0.950 . S
C3325 C3324 1.349 . S
C3325 C3341 1.349 . S
C3326 C3324 1.327 . S
C3326 C3345 1.429 . S
C3326 H3350 0.950 . S
C3327 C3344 1.574 . S
C3327 C3346 1.368 . S
C3327 H3351 0.949 1_556 S
H3328 C3332 0.949 . S
C3329 C3330 1.349 . S
C3329 C3331 1.327 . S
C3329 H3352 0.950 . S
C3330 C3329 1.349 . S
C3330 C3342 1.349 . S
C3331 C3329 1.327 . S
C3331 C3347 1.429 . S
C3331 H3353 0.950 . S
C3332 H3328 0.949 . S
C3332 C3340 1.574 . S
C3332 C3348 1.368 . S
H3333 C3341 0.950 . S
H3334 C3339 0.950 . S
H3335 C3340 0.949 . S
H3336 C3342 0.950 . S
H3337 C3343 0.950 . S
H3338 C3344 0.949 . S
C3339 H3334 0.950 . S
C3339 C3341 1.327 . S
C3339 C3345 1.429 . S
C3340 C3332 1.574 . S
C3340 H3335 0.949 . S
C3340 C3346 1.368 . S
C3341 C3325 1.349 . S
C3341 H3333 0.950 . S
C3341 C3339 1.327 . S
C3342 C3330 1.349 . S
C3342 H3336 0.950 . S
C3342 C3343 1.327 . S
C3343 H3337 0.950 . S
C3343 C3342 1.327 . S
C3343 C3347 1.429 . S
C3344 C3327 1.574 . S
C3344 H3338 0.949 . S
C3344 C3348 1.368 . S
C3345 C3326 1.429 . S
C3345 C3339 1.429 . S
C3345 C3346 1.523 1_554 S
C3346 C3327 1.368 . S
C3346 C3340 1.368 . S
C3346 C3345 1.523 1_556 S
C3347 C3331 1.429 . S
C3347 C3343 1.429 . S
C3347 C3348 1.523 . S
C3348 C3332 1.368 . S
C3348 C3344 1.368 . S
C3348 C3347 1.523 . S
H3349 C3324 0.950 . S
H3350 C3326 0.950 . S
H3351 C3327 0.949 1_554 S
H3352 C3329 0.950 . S
H3353 C3331 0.950 . S
C3354 C3355 1.349 . S
C3354 C3356 1.327 . S
C3354 H3379 0.950 . S
C3355 C3354 1.349 . S
C3355 C3371 1.349 . S
C3356 C3354 1.327 . S
C3356 C3375 1.429 . S
C3356 H3380 0.950 . S
C3357 C3374 1.574 . S
C3357 C3376 1.368 . S
C3357 H3381 0.949 . S
H3358 C3362 0.949 . S
C3359 C3360 1.349 . S
C3359 C3361 1.327 . S
C3359 H3382 0.950 . S
C3360 C3359 1.349 . S
C3360 C3372 1.349 . S
C3361 C3359 1.327 . S
C3361 C3377 1.429 . S
C3361 H3383 0.950 . S
C3362 H3358 0.949 . S
C3362 C3370 1.574 1_556 S
C3362 C3378 1.368 . S
H3363 C3371 0.950 . S
H3364 C3369 0.950 . S
H3365 C3370 0.949 . S
H3366 C3372 0.950 . S
H3367 C3373 0.950 . S
H3368 C3374 0.949 . S
C3369 H3364 0.950 . S
C3369 C3371 1.327 . S
C3369 C3375 1.429 . S
C3370 C3362 1.574 1_554 S
C3370 H3365 0.949 . S
C3370 C3376 1.368 1_554 S
C3371 C3355 1.349 . S
C3371 H3363 0.950 . S
C3371 C3369 1.327 . S
C3372 C3360 1.349 . S
C3372 H3366 0.950 . S
C3372 C3373 1.327 . S
C3373 H3367 0.950 . S
C3373 C3372 1.327 . S
C3373 C3377 1.429 . S
C3374 C3357 1.574 . S
C3374 H3368 0.949 . S
C3374 C3378 1.368 . S
C3375 C3356 1.429 . S
C3375 C3369 1.429 . S
C3375 C3376 1.523 1_554 S
C3376 C3357 1.368 . S
C3376 C3370 1.368 1_556 S
C3376 C3375 1.523 1_556 S
C3377 C3361 1.429 . S
C3377 C3373 1.429 . S
C3377 C3378 1.523 . S
C3378 C3362 1.368 . S
C3378 C3374 1.368 . S
C3378 C3377 1.523 . S
H3379 C3354 0.950 . S
H3380 C3356 0.950 . S
H3381 C3357 0.949 . S
H3382 C3359 0.950 . S
H3383 C3361 0.950 . S
C3384 C3385 1.349 . S
C3384 C3386 1.327 . S
C3384 H3409 0.950 . S
C3385 C3384 1.349 . S
C3385 C3401 1.349 1_554 S
C3386 C3384 1.327 . S
C3386 C3405 1.429 . S
C3386 H3410 0.950 . S
C3387 C3404 1.574 . S
C3387 C3406 1.368 . S
C3387 H3411 0.949 . S
H3388 C3392 0.949 1_554 S
C3389 C3390 1.349 . S
C3389 C3391 1.327 . S
C3389 H3412 0.950 . S
C3390 C3389 1.349 . S
C3390 C3402 1.349 . S
C3391 C3389 1.327 . S
C3391 C3407 1.429 . S
C3391 H3413 0.950 . S
C3392 H3388 0.949 1_556 S
C3392 C3400 1.574 1_556 S
C3392 C3408 1.368 . S
H3393 C3401 0.950 . S
H3394 C3399 0.950 . S
H3395 C3400 0.949 . S
H3396 C3402 0.950 . S
H3397 C3403 0.950 . S
H3398 C3404 0.949 . S
C3399 H3394 0.950 . S
C3399 C3401 1.327 . S
C3399 C3405 1.429 1_556 S
C3400 C3392 1.574 1_554 S
C3400 H3395 0.949 . S
C3400 C3406 1.368 1_554 S
C3401 C3385 1.349 1_556 S
C3401 H3393 0.950 . S
C3401 C3399 1.327 . S
C3402 C3390 1.349 . S
C3402 H3396 0.950 . S
C3402 C3403 1.327 . S
C3403 H3397 0.950 . S
C3403 C3402 1.327 . S
C3403 C3407 1.429 . S
C3404 C3387 1.574 . S
C3404 H3398 0.949 . S
C3404 C3408 1.368 . S
C3405 C3386 1.429 . S
C3405 C3399 1.429 1_554 S
C3405 C3406 1.523 1_554 S
C3406 C3387 1.368 . S
C3406 C3400 1.368 1_556 S
C3406 C3405 1.523 1_556 S
C3407 C3391 1.429 . S
C3407 C3403 1.429 . S
C3407 C3408 1.523 . S
C3408 C3392 1.368 . S
C3408 C3404 1.368 . S
C3408 C3407 1.523 . S
H3409 C3384 0.950 . S
H3410 C3386 0.950 . S
H3411 C3387 0.949 . S
H3412 C3389 0.950 . S
H3413 C3391 0.950 . S
C3414 C3415 1.349 . S
C3414 C3416 1.327 . S
C3414 H3439 0.950 . S
C3415 C3414 1.349 . S
C3415 C3431 1.349 . S
C3416 C3414 1.327 . S
C3416 C3435 1.429 . S
C3416 H3440 0.950 . S
C3417 C3434 1.574 . S
C3417 C3436 1.368 . S
C3417 H3441 0.949 . S
H3418 C3422 0.949 . S
C3419 C3420 1.349 . S
C3419 C3421 1.327 . S
C3419 H3442 0.950 . S
C3420 C3419 1.349 . S
C3420 C3432 1.349 . S
C3421 C3419 1.327 . S
C3421 C3437 1.429 . S
C3421 H3443 0.950 . S
C3422 H3418 0.949 . S
C3422 C3430 1.574 . S
C3422 C3438 1.368 . S
H3423 C3431 0.950 . S
H3424 C3429 0.950 . S
H3425 C3430 0.949 . S
H3426 C3432 0.950 . S
H3427 C3433 0.950 . S
H3428 C3434 0.949 . S
C3429 H3424 0.950 . S
C3429 C3431 1.327 . S
C3429 C3435 1.429 . S
C3430 C3422 1.574 . S
C3430 H3425 0.949 . S
C3430 C3436 1.368 . S
C3431 C3415 1.349 . S
C3431 H3423 0.950 . S
C3431 C3429 1.327 . S
C3432 C3420 1.349 . S
C3432 H3426 0.950 . S
C3432 C3433 1.327 . S
C3433 H3427 0.950 . S
C3433 C3432 1.327 . S
C3433 C3437 1.429 . S
C3434 C3417 1.574 . S
C3434 H3428 0.949 . S
C3434 C3438 1.368 . S
C3435 C3416 1.429 . S
C3435 C3429 1.429 . S
C3435 C3436 1.523 1_554 S
C3436 C3417 1.368 . S
C3436 C3430 1.368 . S
C3436 C3435 1.523 1_556 S
C3437 C3421 1.429 . S
C3437 C3433 1.429 . S
C3437 C3438 1.523 . S
C3438 C3422 1.368 . S
C3438 C3434 1.368 . S
C3438 C3437 1.523 . S
H3439 C3414 0.950 . S
H3440 C3416 0.950 . S
H3441 C3417 0.949 . S
H3442 C3419 0.950 . S
H3443 C3421 0.950 . S
C3444 C3445 1.349 . S
C3444 C3446 1.327 . S
C3444 H3469 0.950 . S
C3445 C3444 1.349 . S
C3445 C3461 1.349 . S
C3446 C3444 1.327 . S
C3446 C3465 1.429 . S
C3446 H3470 0.950 . S
C3447 C3464 1.574 . S
C3447 C3466 1.368 . S
C3447 H3471 0.949 . S
H3448 C3452 0.949 . S
C3449 C3450 1.349 1_556 S
C3449 C3451 1.327 . S
C3449 H3472 0.950 . S
C3450 C3449 1.349 1_554 S
C3450 C3462 1.349 . S
C3451 C3449 1.327 . S
C3451 C3467 1.429 1_556 S
C3451 H3473 0.950 . S
C3452 H3448 0.949 . S
C3452 C3460 1.574 1_554 S
C3452 C3468 1.368 1_554 S
H3453 C3461 0.950 . S
H3454 C3459 0.950 . S
H3455 C3460 0.949 1_554 S
H3456 C3462 0.950 . S
H3457 C3463 0.950 . S
H3458 C3464 0.949 . S
C3459 H3454 0.950 . S
C3459 C3461 1.327 . S
C3459 C3465 1.429 . S
C3460 C3452 1.574 1_556 S
C3460 H3455 0.949 1_556 S
C3460 C3466 1.368 . S
C3461 C3445 1.349 . S
C3461 H3453 0.950 . S
C3461 C3459 1.327 . S
C3462 C3450 1.349 . S
C3462 H3456 0.950 . S
C3462 C3463 1.327 . S
C3463 H3457 0.950 . S
C3463 C3462 1.327 . S
C3463 C3467 1.429 . S
C3464 C3447 1.574 . S
C3464 H3458 0.949 . S
C3464 C3468 1.368 . S
C3465 C3446 1.429 . S
C3465 C3459 1.429 . S
C3465 C3466 1.523 . S
C3466 C3447 1.368 . S
C3466 C3460 1.368 . S
C3466 C3465 1.523 . S
C3467 C3451 1.429 1_554 S
C3467 C3463 1.429 . S
C3467 C3468 1.523 1_554 S
C3468 C3452 1.368 1_556 S
C3468 C3464 1.368 . S
C3468 C3467 1.523 1_556 S
H3469 C3444 0.950 . S
H3470 C3446 0.950 . S
H3471 C3447 0.949 . S
H3472 C3449 0.950 . S
H3473 C3451 0.950 . S
C3474 C3475 1.349 . S
C3474 C3476 1.327 . S
C3474 H3499 0.950 . S
C3475 C3474 1.349 . S
C3475 C3491 1.349 . S
C3476 C3474 1.327 . S
C3476 C3495 1.429 . S
C3476 H3500 0.950 . S
C3477 C3494 1.574 . S
C3477 C3496 1.368 . S
C3477 H3501 0.949 . S
H3478 C3482 0.949 . S
C3479 C3480 1.349 . S
C3479 C3481 1.327 . S
C3479 H3502 0.950 . S
C3480 C3479 1.349 . S
C3480 C3492 1.349 . S
C3481 C3479 1.327 . S
C3481 C3497 1.429 . S
C3481 H3503 0.950 . S
C3482 H3478 0.949 . S
C3482 C3490 1.574 . S
C3482 C3498 1.368 . S
H3483 C3491 0.950 . S
H3484 C3489 0.950 . S
H3485 C3490 0.949 . S
H3486 C3492 0.950 . S
H3487 C3493 0.950 . S
H3488 C3494 0.949 . S
C3489 H3484 0.950 . S
C3489 C3491 1.327 . S
C3489 C3495 1.429 . S
C3490 C3482 1.574 . S
C3490 H3485 0.949 . S
C3490 C3496 1.368 . S
C3491 C3475 1.349 . S
C3491 H3483 0.950 . S
C3491 C3489 1.327 . S
C3492 C3480 1.349 . S
C3492 H3486 0.950 . S
C3492 C3493 1.327 . S
C3493 H3487 0.950 . S
C3493 C3492 1.327 . S
C3493 C3497 1.429 . S
C3494 C3477 1.574 . S
C3494 H3488 0.949 . S
C3494 C3498 1.368 . S
C3495 C3476 1.429 . S
C3495 C3489 1.429 . S
C3495 C3496 1.523 . S
C3496 C3477 1.368 . S
C3496 C3490 1.368 . S
C3496 C3495 1.523 . S
C3497 C3481 1.429 . S
C3497 C3493 1.429 . S
C3497 C3498 1.523 . S
C3498 C3482 1.368 . S
C3498 C3494 1.368 . S
C3498 C3497 1.523 . S
H3499 C3474 0.950 . S
H3500 C3476 0.950 . S
H3501 C3477 0.949 . S
H3502 C3479 0.950 . S
H3503 C3481 0.950 . S
C3504 C3505 1.349 . S
C3504 C3506 1.327 . S
C3504 H3529 0.950 . S
C3505 C3504 1.349 . S
C3505 C3521 1.349 . S
C3506 C3504 1.327 . S
C3506 C3525 1.429 . S
C3506 H3530 0.950 . S
C3507 C3524 1.574 . S
C3507 C3526 1.368 . S
C3507 H3531 0.949 . S
H3508 C3512 0.949 . S
C3509 C3510 1.349 . S
C3509 C3511 1.327 . S
C3509 H3532 0.950 . S
C3510 C3509 1.349 . S
C3510 C3522 1.349 . S
C3511 C3509 1.327 . S
C3511 C3527 1.429 . S
C3511 H3533 0.950 . S
C3512 H3508 0.949 . S
C3512 C3520 1.574 . S
C3512 C3528 1.368 . S
H3513 C3521 0.950 . S
H3514 C3519 0.950 . S
H3515 C3520 0.949 . S
H3516 C3522 0.950 . S
H3517 C3523 0.950 . S
H3518 C3524 0.949 . S
C3519 H3514 0.950 . S
C3519 C3521 1.327 . S
C3519 C3525 1.429 . S
C3520 C3512 1.574 . S
C3520 H3515 0.949 . S
C3520 C3526 1.368 . S
C3521 C3505 1.349 . S
C3521 H3513 0.950 . S
C3521 C3519 1.327 . S
C3522 C3510 1.349 . S
C3522 H3516 0.950 . S
C3522 C3523 1.327 . S
C3523 H3517 0.950 . S
C3523 C3522 1.327 . S
C3523 C3527 1.429 . S
C3524 C3507 1.574 . S
C3524 H3518 0.949 . S
C3524 C3528 1.368 . S
C3525 C3506 1.429 . S
C3525 C3519 1.429 . S
C3525 C3526 1.523 . S
C3526 C3507 1.368 . S
C3526 C3520 1.368 . S
C3526 C3525 1.523 . S
C3527 C3511 1.429 . S
C3527 C3523 1.429 . S
C3527 C3528 1.523 . S
C3528 C3512 1.368 . S
C3528 C3524 1.368 . S
C3528 C3527 1.523 . S
H3529 C3504 0.950 . S
H3530 C3506 0.950 . S
H3531 C3507 0.949 . S
H3532 C3509 0.950 . S
H3533 C3511 0.950 . S
C3534 C3535 1.349 . S
C3534 C3536 1.327 . S
C3534 H3559 0.950 . S
C3535 C3534 1.349 . S
C3535 C3551 1.349 . S
C3536 C3534 1.327 . S
C3536 C3555 1.429 . S
C3536 H3560 0.950 . S
C3537 C3554 1.574 . S
C3537 C3556 1.368 . S
C3537 H3561 0.949 . S
H3538 C3542 0.949 . S
C3539 C3540 1.349 . S
C3539 C3541 1.327 . S
C3539 H3562 0.950 . S
C3540 C3539 1.349 . S
C3540 C3552 1.349 . S
C3541 C3539 1.327 . S
C3541 C3557 1.429 . S
C3541 H3563 0.950 . S
C3542 H3538 0.949 . S
C3542 C3550 1.574 . S
C3542 C3558 1.368 . S
H3543 C3551 0.950 . S
H3544 C3549 0.950 . S
H3545 C3550 0.949 . S
H3546 C3552 0.950 . S
H3547 C3553 0.950 . S
H3548 C3554 0.949 . S
C3549 H3544 0.950 . S
C3549 C3551 1.327 . S
C3549 C3555 1.429 . S
C3550 C3542 1.574 . S
C3550 H3545 0.949 . S
C3550 C3556 1.368 . S
C3551 C3535 1.349 . S
C3551 H3543 0.950 . S
C3551 C3549 1.327 . S
C3552 C3540 1.349 . S
C3552 H3546 0.950 . S
C3552 C3553 1.327 . S
C3553 H3547 0.950 . S
C3553 C3552 1.327 . S
C3553 C3557 1.429 . S
C3554 C3537 1.574 . S
C3554 H3548 0.949 . S
C3554 C3558 1.368 . S
C3555 C3536 1.429 . S
C3555 C3549 1.429 . S
C3555 C3556 1.523 . S
C3556 C3537 1.368 . S
C3556 C3550 1.368 . S
C3556 C3555 1.523 . S
C3557 C3541 1.429 . S
C3557 C3553 1.429 . S
C3557 C3558 1.523 . S
C3558 C3542 1.368 . S
C3558 C3554 1.368 . S
C3558 C3557 1.523 . S
H3559 C3534 0.950 . S
H3560 C3536 0.950 . S
H3561 C3537 0.949 . S
H3562 C3539 0.950 . S
H3563 C3541 0.950 . S
C3564 C3565 1.349 . S
C3564 C3566 1.327 . S
C3564 H3589 0.950 . S
C3565 C3564 1.349 . S
C3565 C3581 1.349 . S
C3566 C3564 1.327 . S
C3566 C3585 1.429 . S
C3566 H3590 0.950 . S
C3567 C3584 1.574 . S
C3567 C3586 1.368 . S
C3567 H3591 0.949 . S
H3568 C3572 0.949 . S
C3569 C3570 1.349 . S
C3569 C3571 1.327 . S
C3569 H3592 0.950 . S
C3570 C3569 1.349 . S
C3570 C3582 1.349 . S
C3571 C3569 1.327 . S
C3571 C3587 1.429 . S
C3571 H3593 0.950 . S
C3572 H3568 0.949 . S
C3572 C3580 1.574 . S
C3572 C3588 1.368 . S
H3573 C3581 0.950 . S
H3574 C3579 0.950 . S
H3575 C3580 0.949 . S
H3576 C3582 0.950 . S
H3577 C3583 0.950 . S
H3578 C3584 0.949 . S
C3579 H3574 0.950 . S
C3579 C3581 1.327 . S
C3579 C3585 1.429 . S
C3580 C3572 1.574 . S
C3580 H3575 0.949 . S
C3580 C3586 1.368 . S
C3581 C3565 1.349 . S
C3581 H3573 0.950 . S
C3581 C3579 1.327 . S
C3582 C3570 1.349 . S
C3582 H3576 0.950 . S
C3582 C3583 1.327 . S
C3583 H3577 0.950 . S
C3583 C3582 1.327 . S
C3583 C3587 1.429 . S
C3584 C3567 1.574 . S
C3584 H3578 0.949 . S
C3584 C3588 1.368 . S
C3585 C3566 1.429 . S
C3585 C3579 1.429 . S
C3585 C3586 1.523 . S
C3586 C3567 1.368 . S
C3586 C3580 1.368 . S
C3586 C3585 1.523 . S
C3587 C3571 1.429 . S
C3587 C3583 1.429 . S
C3587 C3588 1.523 . S
C3588 C3572 1.368 . S
C3588 C3584 1.368 . S
C3588 C3587 1.523 . S
H3589 C3564 0.950 . S
H3590 C3566 0.950 . S
H3591 C3567 0.949 . S
H3592 C3569 0.950 . S
H3593 C3571 0.950 . S
C3594 C3595 1.349 . S
C3594 C3596 1.327 . S
C3594 H3619 0.950 . S
C3595 C3594 1.349 . S
C3595 C3611 1.349 . S
C3596 C3594 1.327 . S
C3596 C3615 1.429 . S
C3596 H3620 0.950 . S
C3597 C3614 1.574 . S
C3597 C3616 1.368 . S
C3597 H3621 0.949 . S
H3598 C3602 0.949 . S
C3599 C3600 1.349 . S
C3599 C3601 1.327 . S
C3599 H3622 0.950 . S
C3600 C3599 1.349 . S
C3600 C3612 1.349 . S
C3601 C3599 1.327 . S
C3601 C3617 1.429 . S
C3601 H3623 0.950 . S
C3602 H3598 0.949 . S
C3602 C3610 1.574 . S
C3602 C3618 1.368 . S
H3603 C3611 0.950 . S
H3604 C3609 0.950 . S
H3605 C3610 0.949 . S
H3606 C3612 0.950 . S
H3607 C3613 0.950 . S
H3608 C3614 0.949 . S
C3609 H3604 0.950 . S
C3609 C3611 1.327 . S
C3609 C3615 1.429 . S
C3610 C3602 1.574 . S
C3610 H3605 0.949 . S
C3610 C3616 1.368 . S
C3611 C3595 1.349 . S
C3611 H3603 0.950 . S
C3611 C3609 1.327 . S
C3612 C3600 1.349 . S
C3612 H3606 0.950 . S
C3612 C3613 1.327 . S
C3613 H3607 0.950 . S
C3613 C3612 1.327 . S
C3613 C3617 1.429 . S
C3614 C3597 1.574 . S
C3614 H3608 0.949 . S
C3614 C3618 1.368 . S
C3615 C3596 1.429 . S
C3615 C3609 1.429 . S
C3615 C3616 1.523 . S
C3616 C3597 1.368 . S
C3616 C3610 1.368 . S
C3616 C3615 1.523 . S
C3617 C3601 1.429 . S
C3617 C3613 1.429 . S
C3617 C3618 1.523 . S
C3618 C3602 1.368 . S
C3618 C3614 1.368 . S
C3618 C3617 1.523 . S
H3619 C3594 0.950 . S
H3620 C3596 0.950 . S
H3621 C3597 0.949 . S
H3622 C3599 0.950 . S
H3623 C3601 0.950 . S
C3624 C3625 1.349 . S
C3624 C3626 1.327 . S
C3624 H3649 0.950 . S
C3625 C3624 1.349 . S
C3625 C3641 1.349 . S
C3626 C3624 1.327 . S
C3626 C3645 1.429 . S
C3626 H3650 0.950 . S
C3627 C3644 1.574 . S
C3627 C3646 1.368 . S
C3627 H3651 0.949 . S
H3628 C3632 0.949 . S
C3629 C3630 1.349 . S
C3629 C3631 1.327 . S
C3629 H3652 0.950 . S
C3630 C3629 1.349 . S
C3630 C3642 1.349 . S
C3631 C3629 1.327 . S
C3631 C3647 1.429 . S
C3631 H3653 0.950 . S
C3632 H3628 0.949 . S
C3632 C3640 1.574 . S
C3632 C3648 1.368 . S
H3633 C3641 0.950 . S
H3634 C3639 0.950 . S
H3635 C3640 0.949 . S
H3636 C3642 0.950 . S
H3637 C3643 0.950 . S
H3638 C3644 0.949 . S
C3639 H3634 0.950 . S
C3639 C3641 1.327 . S
C3639 C3645 1.429 . S
C3640 C3632 1.574 . S
C3640 H3635 0.949 . S
C3640 C3646 1.368 . S
C3641 C3625 1.349 . S
C3641 H3633 0.950 . S
C3641 C3639 1.327 . S
C3642 C3630 1.349 . S
C3642 H3636 0.950 . S
C3642 C3643 1.327 . S
C3643 H3637 0.950 . S
C3643 C3642 1.327 . S
C3643 C3647 1.429 . S
C3644 C3627 1.574 . S
C3644 H3638 0.949 . S
C3644 C3648 1.368 . S
C3645 C3626 1.429 . S
C3645 C3639 1.429 . S
C3645 C3646 1.523 . S
C3646 C3627 1.368 . S
C3646 C3640 1.368 . S
C3646 C3645 1.523 . S
C3647 C3631 1.429 . S
C3647 C3643 1.429 . S
C3647 C3648 1.523 . S
C3648 C3632 1.368 . S
C3648 C3644 1.368 . S
C3648 C3647 1.523 . S
H3649 C3624 0.950 . S
H3650 C3626 0.950 . S
H3651 C3627 0.949 . S
H3652 C3629 0.950 . S
H3653 C3631 0.950 . S
C3654 C3655 1.349 . S
C3654 C3656 1.327 . S
C3654 H3679 0.950 . S
C3655 C3654 1.349 . S
C3655 C3671 1.349 . S
C3656 C3654 1.327 . S
C3656 C3675 1.429 . S
C3656 H3680 0.950 . S
C3657 C3674 1.574 . S
C3657 C3676 1.368 . S
C3657 H3681 0.949 . S
H3658 C3662 0.949 . S
C3659 C3660 1.349 . S
C3659 C3661 1.327 . S
C3659 H3682 0.950 . S
C3660 C3659 1.349 . S
C3660 C3672 1.349 . S
C3661 C3659 1.327 . S
C3661 C3677 1.429 . S
C3661 H3683 0.950 . S
C3662 H3658 0.949 . S
C3662 C3670 1.574 . S
C3662 C3678 1.368 . S
H3663 C3671 0.950 . S
H3664 C3669 0.950 . S
H3665 C3670 0.949 . S
H3666 C3672 0.950 . S
H3667 C3673 0.950 . S
H3668 C3674 0.949 . S
C3669 H3664 0.950 . S
C3669 C3671 1.327 . S
C3669 C3675 1.429 . S
C3670 C3662 1.574 . S
C3670 H3665 0.949 . S
C3670 C3676 1.368 . S
C3671 C3655 1.349 . S
C3671 H3663 0.950 . S
C3671 C3669 1.327 . S
C3672 C3660 1.349 . S
C3672 H3666 0.950 . S
C3672 C3673 1.327 . S
C3673 H3667 0.950 . S
C3673 C3672 1.327 . S
C3673 C3677 1.429 . S
C3674 C3657 1.574 . S
C3674 H3668 0.949 . S
C3674 C3678 1.368 . S
C3675 C3656 1.429 . S
C3675 C3669 1.429 . S
C3675 C3676 1.523 . S
C3676 C3657 1.368 . S
C3676 C3670 1.368 . S
C3676 C3675 1.523 . S
C3677 C3661 1.429 . S
C3677 C3673 1.429 . S
C3677 C3678 1.523 . S
C3678 C3662 1.368 . S
C3678 C3674 1.368 . S
C3678 C3677 1.523 . S
H3679 C3654 0.950 . S
H3680 C3656 0.950 . S
H3681 C3657 0.949 . S
H3682 C3659 0.950 . S
H3683 C3661 0.950 . S
C3684 C3685 1.349 . S
C3684 C3686 1.327 . S
C3684 H3709 0.950 . S
C3685 C3684 1.349 . S
C3685 C3701 1.349 . S
C3686 C3684 1.327 . S
C3686 C3705 1.429 . S
C3686 H3710 0.950 . S
C3687 C3704 1.574 . S
C3687 C3706 1.368 . S
C3687 H3711 0.949 . S
H3688 C3692 0.949 . S
C3689 C3690 1.349 . S
C3689 C3691 1.327 . S
C3689 H3712 0.950 . S
C3690 C3689 1.349 . S
C3690 C3702 1.349 . S
C3691 C3689 1.327 . S
C3691 C3707 1.429 . S
C3691 H3713 0.950 . S
C3692 H3688 0.949 . S
C3692 C3700 1.574 . S
C3692 C3708 1.368 . S
H3693 C3701 0.950 . S
H3694 C3699 0.950 . S
H3695 C3700 0.949 . S
H3696 C3702 0.950 . S
H3697 C3703 0.950 . S
H3698 C3704 0.949 . S
C3699 H3694 0.950 . S
C3699 C3701 1.327 . S
C3699 C3705 1.429 . S
C3700 C3692 1.574 . S
C3700 H3695 0.949 . S
C3700 C3706 1.368 . S
C3701 C3685 1.349 . S
C3701 H3693 0.950 . S
C3701 C3699 1.327 . S
C3702 C3690 1.349 . S
C3702 H3696 0.950 . S
C3702 C3703 1.327 . S
C3703 H3697 0.950 . S
C3703 C3702 1.327 . S
C3703 C3707 1.429 . S
C3704 C3687 1.574 . S
C3704 H3698 0.949 . S
C3704 C3708 1.368 . S
C3705 C3686 1.429 . S
C3705 C3699 1.429 . S
C3705 C3706 1.523 . S
C3706 C3687 1.368 . S
C3706 C3700 1.368 . S
C3706 C3705 1.523 . S
C3707 C3691 1.429 . S
C3707 C3703 1.429 . S
C3707 C3708 1.523 . S
C3708 C3692 1.368 . S
C3708 C3704 1.368 . S
C3708 C3707 1.523 . S
H3709 C3684 0.950 . S
H3710 C3686 0.950 . S
H3711 C3687 0.949 . S
H3712 C3689 0.950 . S
H3713 C3691 0.950 . S
C3714 C3715 1.349 . S
C3714 C3716 1.327 . S
C3714 H3739 0.950 . S
C3715 C3714 1.349 . S
C3715 C3731 1.349 . S
C3716 C3714 1.327 . S
C3716 C3735 1.429 . S
C3716 H3740 0.950 . S
C3717 C3734 1.574 . S
C3717 C3736 1.368 . S
C3717 H3741 0.949 . S
H3718 C3722 0.949 . S
C3719 C3720 1.349 . S
C3719 C3721 1.327 . S
C3719 H3742 0.950 . S
C3720 C3719 1.349 . S
C3720 C3732 1.349 . S
C3721 C3719 1.327 . S
C3721 C3737 1.429 . S
C3721 H3743 0.950 . S
C3722 H3718 0.949 . S
C3722 C3730 1.574 . S
C3722 C3738 1.368 . S
H3723 C3731 0.950 . S
H3724 C3729 0.950 . S
H3725 C3730 0.949 . S
H3726 C3732 0.950 . S
H3727 C3733 0.950 . S
H3728 C3734 0.949 . S
C3729 H3724 0.950 . S
C3729 C3731 1.327 . S
C3729 C3735 1.429 . S
C3730 C3722 1.574 . S
C3730 H3725 0.949 . S
C3730 C3736 1.368 . S
C3731 C3715 1.349 . S
C3731 H3723 0.950 . S
C3731 C3729 1.327 . S
C3732 C3720 1.349 . S
C3732 H3726 0.950 . S
C3732 C3733 1.327 . S
C3733 H3727 0.950 . S
C3733 C3732 1.327 . S
C3733 C3737 1.429 . S
C3734 C3717 1.574 . S
C3734 H3728 0.949 . S
C3734 C3738 1.368 . S
C3735 C3716 1.429 . S
C3735 C3729 1.429 . S
C3735 C3736 1.523 . S
C3736 C3717 1.368 . S
C3736 C3730 1.368 . S
C3736 C3735 1.523 . S
C3737 C3721 1.429 . S
C3737 C3733 1.429 . S
C3737 C3738 1.523 . S
C3738 C3722 1.368 . S
C3738 C3734 1.368 . S
C3738 C3737 1.523 . S
H3739 C3714 0.950 . S
H3740 C3716 0.950 . S
H3741 C3717 0.949 . S
H3742 C3719 0.950 . S
H3743 C3721 0.950 . S
C3744 C3745 1.349 . S
C3744 C3746 1.327 . S
C3744 H3769 0.950 . S
C3745 C3744 1.349 . S
C3745 C3761 1.349 . S
C3746 C3744 1.327 . S
C3746 C3765 1.429 . S
C3746 H3770 0.950 . S
C3747 C3764 1.574 1_455 S
C3747 C3766 1.368 . S
C3747 H3771 0.949 . S
H3748 C3752 0.949 . S
C3749 C3750 1.349 . S
C3749 C3751 1.327 . S
C3749 H3772 0.950 . S
C3750 C3749 1.349 . S
C3750 C3762 1.349 . S
C3751 C3749 1.327 . S
C3751 C3767 1.429 . S
C3751 H3773 0.950 . S
C3752 H3748 0.949 . S
C3752 C3760 1.574 1_655 S
C3752 C3768 1.368 . S
H3753 C3761 0.950 . S
H3754 C3759 0.950 . S
H3755 C3760 0.949 . S
H3756 C3762 0.950 . S
H3757 C3763 0.950 . S
H3758 C3764 0.949 . S
C3759 H3754 0.950 . S
C3759 C3761 1.327 . S
C3759 C3765 1.429 . S
C3760 C3752 1.574 1_455 S
C3760 H3755 0.949 . S
C3760 C3766 1.368 . S
C3761 C3745 1.349 . S
C3761 H3753 0.950 . S
C3761 C3759 1.327 . S
C3762 C3750 1.349 . S
C3762 H3756 0.950 . S
C3762 C3763 1.327 . S
C3763 H3757 0.950 . S
C3763 C3762 1.327 . S
C3763 C3767 1.429 . S
C3764 C3747 1.574 1_655 S
C3764 H3758 0.949 . S
C3764 C3768 1.368 . S
C3765 C3746 1.429 . S
C3765 C3759 1.429 . S
C3765 C3766 1.523 . S
C3766 C3747 1.368 . S
C3766 C3760 1.368 . S
C3766 C3765 1.523 . S
C3767 C3751 1.429 . S
C3767 C3763 1.429 . S
C3767 C3768 1.523 . S
C3768 C3752 1.368 . S
C3768 C3764 1.368 . S
C3768 C3767 1.523 . S
H3769 C3744 0.950 . S
H3770 C3746 0.950 . S
H3771 C3747 0.949 . S
H3772 C3749 0.950 . S
H3773 C3751 0.950 . S
C3774 C3775 1.349 . S
C3774 C3776 1.327 . S
C3774 H3799 0.950 . S
C3775 C3774 1.349 . S
C3775 C3791 1.349 . S
C3776 C3774 1.327 . S
C3776 C3795 1.429 . S
C3776 H3800 0.950 . S
C3777 C3794 1.574 . S
C3777 C3796 1.368 . S
C3777 H3801 0.949 . S
H3778 C3782 0.949 . S
C3779 C3780 1.349 . S
C3779 C3781 1.327 . S
C3779 H3802 0.950 . S
C3780 C3779 1.349 . S
C3780 C3792 1.349 . S
C3781 C3779 1.327 . S
C3781 C3797 1.429 . S
C3781 H3803 0.950 . S
C3782 H3778 0.949 . S
C3782 C3790 1.574 . S
C3782 C3798 1.368 . S
H3783 C3791 0.950 . S
H3784 C3789 0.950 . S
H3785 C3790 0.949 . S
H3786 C3792 0.950 . S
H3787 C3793 0.950 . S
H3788 C3794 0.949 . S
C3789 H3784 0.950 . S
C3789 C3791 1.327 . S
C3789 C3795 1.429 . S
C3790 C3782 1.574 . S
C3790 H3785 0.949 . S
C3790 C3796 1.368 . S
C3791 C3775 1.349 . S
C3791 H3783 0.950 . S
C3791 C3789 1.327 . S
C3792 C3780 1.349 . S
C3792 H3786 0.950 . S
C3792 C3793 1.327 . S
C3793 H3787 0.950 . S
C3793 C3792 1.327 . S
C3793 C3797 1.429 . S
C3794 C3777 1.574 . S
C3794 H3788 0.949 . S
C3794 C3798 1.368 . S
C3795 C3776 1.429 . S
C3795 C3789 1.429 . S
C3795 C3796 1.523 . S
C3796 C3777 1.368 . S
C3796 C3790 1.368 . S
C3796 C3795 1.523 . S
C3797 C3781 1.429 . S
C3797 C3793 1.429 . S
C3797 C3798 1.523 . S
C3798 C3782 1.368 . S
C3798 C3794 1.368 . S
C3798 C3797 1.523 . S
H3799 C3774 0.950 . S
H3800 C3776 0.950 . S
H3801 C3777 0.949 . S
H3802 C3779 0.950 . S
H3803 C3781 0.950 . S
C3804 C3805 1.349 . S
C3804 C3806 1.327 . S
C3804 H3829 0.950 . S
C3805 C3804 1.349 . S
C3805 C3821 1.349 . S
C3806 C3804 1.327 . S
C3806 C3825 1.429 . S
C3806 H3830 0.950 . S
C3807 C3824 1.574 1_545 S
C3807 C3826 1.368 . S
C3807 H3831 0.949 . S
H3808 C3812 0.949 . S
C3809 C3810 1.349 . S
C3809 C3811 1.327 . S
C3809 H3832 0.950 . S
C3810 C3809 1.349 . S
C3810 C3822 1.349 . S
C3811 C3809 1.327 . S
C3811 C3827 1.429 . S
C3811 H3833 0.950 . S
C3812 H3808 0.949 . S
C3812 C3820 1.574 1_565 S
C3812 C3828 1.368 . S
H3813 C3821 0.950 . S
H3814 C3819 0.950 . S
H3815 C3820 0.949 . S
H3816 C3822 0.950 . S
H3817 C3823 0.950 . S
H3818 C3824 0.949 . S
C3819 H3814 0.950 . S
C3819 C3821 1.327 . S
C3819 C3825 1.429 . S
C3820 C3812 1.574 1_545 S
C3820 H3815 0.949 . S
C3820 C3826 1.368 . S
C3821 C3805 1.349 . S
C3821 H3813 0.950 . S
C3821 C3819 1.327 . S
C3822 C3810 1.349 . S
C3822 H3816 0.950 . S
C3822 C3823 1.327 . S
C3823 H3817 0.950 . S
C3823 C3822 1.327 . S
C3823 C3827 1.429 . S
C3824 C3807 1.574 1_565 S
C3824 H3818 0.949 . S
C3824 C3828 1.368 . S
C3825 C3806 1.429 . S
C3825 C3819 1.429 . S
C3825 C3826 1.523 . S
C3826 C3807 1.368 . S
C3826 C3820 1.368 . S
C3826 C3825 1.523 . S
C3827 C3811 1.429 . S
C3827 C3823 1.429 . S
C3827 C3828 1.523 . S
C3828 C3812 1.368 . S
C3828 C3824 1.368 . S
C3828 C3827 1.523 . S
H3829 C3804 0.950 . S
H3830 C3806 0.950 . S
H3831 C3807 0.949 . S
H3832 C3809 0.950 . S
H3833 C3811 0.950 . S
C3834 C3835 1.349 . S
C3834 C3836 1.327 . S
C3834 H3859 0.950 . S
C3835 C3834 1.349 . S
C3835 C3851 1.349 . S
C3836 C3834 1.327 . S
C3836 C3855 1.429 . S
C3836 H3860 0.950 . S
C3837 C3854 1.574 1_565 S
C3837 C3856 1.368 . S
C3837 H3861 0.949 . S
H3838 C3842 0.949 . S
C3839 C3840 1.349 . S
C3839 C3841 1.327 . S
C3839 H3862 0.950 . S
C3840 C3839 1.349 . S
C3840 C3852 1.349 . S
C3841 C3839 1.327 . S
C3841 C3857 1.429 . S
C3841 H3863 0.950 . S
C3842 H3838 0.949 . S
C3842 C3850 1.574 1_545 S
C3842 C3858 1.368 . S
H3843 C3851 0.950 . S
H3844 C3849 0.950 . S
H3845 C3850 0.949 . S
H3846 C3852 0.950 . S
H3847 C3853 0.950 . S
H3848 C3854 0.949 . S
C3849 H3844 0.950 . S
C3849 C3851 1.327 . S
C3849 C3855 1.429 . S
C3850 C3842 1.574 1_565 S
C3850 H3845 0.949 . S
C3850 C3856 1.368 . S
C3851 C3835 1.349 . S
C3851 H3843 0.950 . S
C3851 C3849 1.327 . S
C3852 C3840 1.349 . S
C3852 H3846 0.950 . S
C3852 C3853 1.327 . S
C3853 H3847 0.950 . S
C3853 C3852 1.327 . S
C3853 C3857 1.429 . S
C3854 C3837 1.574 1_545 S
C3854 H3848 0.949 . S
C3854 C3858 1.368 . S
C3855 C3836 1.429 . S
C3855 C3849 1.429 . S
C3855 C3856 1.523 . S
C3856 C3837 1.368 . S
C3856 C3850 1.368 . S
C3856 C3855 1.523 . S
C3857 C3841 1.429 . S
C3857 C3853 1.429 . S
C3857 C3858 1.523 . S
C3858 C3842 1.368 . S
C3858 C3854 1.368 . S
C3858 C3857 1.523 . S
H3859 C3834 0.950 . S
H3860 C3836 0.950 . S
H3861 C3837 0.949 . S
H3862 C3839 0.950 . S
H3863 C3841 0.950 . S
C3864 C3865 1.349 . S
C3864 C3866 1.327 . S
C3864 H3889 0.950 . S
C3865 C3864 1.349 . S
C3865 C3881 1.349 . S
C3866 C3864 1.327 . S
C3866 C3885 1.429 . S
C3866 H3890 0.950 . S
C3867 C3884 1.574 1_655 S
C3867 C3886 1.368 . S
C3867 H3891 0.949 . S
H3868 C3872 0.949 . S
C3869 C3870 1.349 . S
C3869 C3871 1.327 . S
C3869 H3892 0.950 . S
C3870 C3869 1.349 . S
C3870 C3882 1.349 . S
C3871 C3869 1.327 . S
C3871 C3887 1.429 . S
C3871 H3893 0.950 . S
C3872 H3868 0.949 . S
C3872 C3880 1.574 1_455 S
C3872 C3888 1.368 . S
H3873 C3881 0.950 . S
H3874 C3879 0.950 . S
H3875 C3880 0.949 . S
H3876 C3882 0.950 . S
H3877 C3883 0.950 . S
H3878 C3884 0.949 . S
C3879 H3874 0.950 . S
C3879 C3881 1.327 . S
C3879 C3885 1.429 . S
C3880 C3872 1.574 1_655 S
C3880 H3875 0.949 . S
C3880 C3886 1.368 . S
C3881 C3865 1.349 . S
C3881 H3873 0.950 . S
C3881 C3879 1.327 . S
C3882 C3870 1.349 . S
C3882 H3876 0.950 . S
C3882 C3883 1.327 . S
C3883 H3877 0.950 . S
C3883 C3882 1.327 . S
C3883 C3887 1.429 . S
C3884 C3867 1.574 1_455 S
C3884 H3878 0.949 . S
C3884 C3888 1.368 . S
C3885 C3866 1.429 . S
C3885 C3879 1.429 . S
C3885 C3886 1.523 . S
C3886 C3867 1.368 . S
C3886 C3880 1.368 . S
C3886 C3885 1.523 . S
C3887 C3871 1.429 . S
C3887 C3883 1.429 . S
C3887 C3888 1.523 . S
C3888 C3872 1.368 . S
C3888 C3884 1.368 . S
C3888 C3887 1.523 . S
H3889 C3864 0.950 . S
H3890 C3866 0.950 . S
H3891 C3867 0.949 . S
H3892 C3869 0.950 . S
H3893 C3871 0.950 . S
C3894 C3895 1.349 . S
C3894 C3896 1.327 . S
C3894 H3919 0.950 . S
C3895 C3894 1.349 . S
C3895 C3911 1.349 . S
C3896 C3894 1.327 . S
C3896 C3915 1.429 . S
C3896 H3920 0.950 . S
C3897 C3914 1.574 . S
C3897 C3916 1.368 . S
C3897 H3921 0.949 . S
H3898 C3902 0.949 . S
C3899 C3900 1.349 . S
C3899 C3901 1.327 . S
C3899 H3922 0.950 . S
C3900 C3899 1.349 . S
C3900 C3912 1.349 . S
C3901 C3899 1.327 . S
C3901 C3917 1.429 . S
C3901 H3923 0.950 . S
C3902 H3898 0.949 . S
C3902 C3910 1.574 . S
C3902 C3918 1.368 . S
H3903 C3911 0.950 . S
H3904 C3909 0.950 . S
H3905 C3910 0.949 . S
H3906 C3912 0.950 . S
H3907 C3913 0.950 . S
H3908 C3914 0.949 . S
C3909 H3904 0.950 . S
C3909 C3911 1.327 . S
C3909 C3915 1.429 . S
C3910 C3902 1.574 . S
C3910 H3905 0.949 . S
C3910 C3916 1.368 . S
C3911 C3895 1.349 . S
C3911 H3903 0.950 . S
C3911 C3909 1.327 . S
C3912 C3900 1.349 . S
C3912 H3906 0.950 . S
C3912 C3913 1.327 . S
C3913 H3907 0.950 . S
C3913 C3912 1.327 . S
C3913 C3917 1.429 . S
C3914 C3897 1.574 . S
C3914 H3908 0.949 . S
C3914 C3918 1.368 . S
C3915 C3896 1.429 . S
C3915 C3909 1.429 . S
C3915 C3916 1.523 . S
C3916 C3897 1.368 . S
C3916 C3910 1.368 . S
C3916 C3915 1.523 . S
C3917 C3901 1.429 . S
C3917 C3913 1.429 . S
C3917 C3918 1.523 . S
C3918 C3902 1.368 . S
C3918 C3914 1.368 . S
C3918 C3917 1.523 . S
H3919 C3894 0.950 . S
H3920 C3896 0.950 . S
H3921 C3897 0.949 . S
H3922 C3899 0.950 . S
H3923 C3901 0.950 . S
C1225 C345 1.581 . S
C1230 C2 1.605 1_556 S
C1255 C379 1.582 . S
C1260 C36 1.605 1_556 S
C1285 C311 1.581 . S
C1290 C70 1.604 1_556 S
C1315 C277 1.581 . S
C1320 C104 1.605 . S
C1345 C209 1.581 . S
C1350 C138 1.605 . S
C1375 C243 1.581 . S
C1380 C172 1.605 . S
C1405 C141 1.581 . S
C1410 C206 1.605 . S
C1435 C240 1.605 . S
C1440 C175 1.581 . S
C1465 C107 1.581 . S
C1470 C274 1.605 . S
C1495 C73 1.581 . S
C1500 C308 1.605 . S
C1525 C342 1.604 . S
C1530 C5 1.581 . S
C1555 C39 1.581 . S
C1560 C376 1.605 . S
C1585 C753 1.581 . S
C1590 C410 1.605 . S
C1615 C444 1.605 . S
C1620 C787 1.581 . S
C1645 C719 1.581 . S
C1650 C478 1.605 . S
C1675 C685 1.581 . S
C1680 C512 1.605 . S
C1705 C617 1.581 . S
C1710 C546 1.605 . S
C1735 C580 1.605 . S
C1740 C651 1.581 . S
C1765 C614 1.605 . S
C1770 C549 1.581 . S
C1795 C583 1.581 . S
C1800 C648 1.605 . S
C1825 C515 1.581 . S
C1830 C682 1.605 . S
C1855 C716 1.605 . S
C1860 C481 1.581 . S
C1885 C750 1.605 . S
C1890 C413 1.581 . S
C1915 C447 1.582 . S
C1920 C784 1.605 . S
C1945 C818 1.605 . S
C1950 C1161 1.581 . S
C1975 C852 1.605 . S
C1980 C1195 1.581 . S
C2005 C886 1.605 . S
C2010 C1127 1.581 . S
C2035 C920 1.604 . S
C2040 C1093 1.580 . S
C2065 C1025 1.581 . S
C2070 C954 1.605 . S
C2095 C1059 1.581 . S
C2100 C988 1.605 . S
C2125 C1022 1.604 . S
C2130 C957 1.581 . S
C2155 C991 1.581 . S
C2160 C1056 1.605 . S
C2185 C923 1.582 . S
C2190 C1090 1.605 . S
C2215 C1124 1.604 . S
C2220 C889 1.581 . S
C2245 C1158 1.605 . S
C2250 C821 1.581 . S
C2275 C855 1.581 . S
C2280 C1192 1.605 . S
C2305 C122 1.913 . S
C2310 C20 1.913 . S
C2335 C54 1.913 . S
C2340 C156 1.913 . S
C2365 C88 1.912 . S
C2370 C190 1.912 . S
C2395 C326 1.912 . S
C2400 C224 1.912 . S
C2425 C258 1.913 . S
C2430 C360 1.913 . S
C2455 C394 1.913 . S
C2460 C292 1.913 . S
C2485 C428 1.912 . S
C2490 C530 1.912 . S
C2515 C564 1.912 . S
C2520 C462 1.912 . S
C2545 C496 1.913 . S
C2550 C598 1.913 . S
C2575 C632 1.912 . S
C2580 C734 1.912 1_554 S
C2605 C768 1.913 1_554 S
C2610 C666 1.913 . S
C2635 C802 1.913 1_554 S
C2640 C700 1.913 . S
C2665 C836 1.912 . S
C2670 C938 1.912 . S
C2695 C972 1.914 . S
C2700 C870 1.914 . S
C2725 C904 1.913 . S
C2730 C1006 1.913 . S
C2755 C1040 1.912 . S
C2760 C1142 1.912 . S
C2785 C1074 1.913 . S
C2790 C1176 1.913 . S
C2815 C1210 1.913 . S
C2820 C1108 1.913 . S
C2845 C111 0.603 . S
C2850 C9 0.603 . S
C2875 C43 0.604 . S
C2880 C145 0.604 . S
C2905 C179 0.604 . S
C2910 C77 0.604 . S
C2935 C315 0.604 . S
C2940 C213 0.604 . S
C2965 C349 0.604 . S
C2970 C247 0.604 . S
C2995 C383 0.604 . S
C3000 C281 0.604 . S
C3025 C417 0.604 . S
C3030 C519 0.604 1_554 S
C3055 C451 0.605 . S
C3060 C553 0.605 1_554 S
C3085 C587 0.604 1_554 S
C3090 C485 0.604 . S
C3115 C621 0.604 . S
C3120 C723 0.604 . S
C3145 C757 0.604 . S
C3150 C655 0.605 . S
C3175 C791 0.604 . S
C3180 C689 0.604 . S
C3205 C825 0.604 . S
C3210 C927 0.604 . S
C3235 C859 0.604 . S
C3240 C961 0.604 . S
C3265 C995 0.604 . S
C3270 C893 0.604 . S
C3295 C1131 0.604 . S
C3300 C1029 0.604 . S
C3325 C1165 0.604 . S
C3330 C1063 0.604 . S
C3355 C1199 0.604 . S
C3360 C1097 0.604 . S
C3385 C33 1.610 . S
C3390 C577 1.610 . S
C3415 C67 1.611 . S
C3420 C611 1.611 . S
C3445 C543 1.610 . S
C3450 C101 1.610 . S
C3475 C917 1.611 . S
C3480 C135 1.611 . S
C3505 C169 1.611 . S
C3510 C849 1.611 . S
C3535 C203 1.611 . S
C3540 C883 1.611 . S
C3565 C1189 1.611 . S
C3570 C237 1.611 . S
C3595 C1223 1.611 . S
C3600 C271 1.611 . S
C3625 C305 1.611 . S
C3630 C1155 1.611 . S
C3655 C713 1.611 . S
C3660 C339 1.611 . S
C3685 C373 1.610 . S
C3690 C645 1.610 . S
C3715 C679 1.611 . S
C3720 C407 1.611 . S
C3745 C985 1.611 . S
C3750 C441 1.611 . S
C3775 C1019 1.610 . S
C3780 C475 1.610 . S
C3805 C509 1.610 . S
C3810 C951 1.610 . S
C3835 C1121 1.610 . S
C3840 C747 1.610 . S
C3865 C781 1.611 . S
C3870 C1053 1.611 . S
C3895 C815 1.611 . S
C3900 C1087 1.611 . S
