# Generated by pormake.
# Topology acs-a, (4)-cn, num edge types: 1
# Building blocks:
#     Node 0, Type 0, BuildingBlock: CEKHIL_clean_sbu_0, # of connection points: 4
#     Node 1, Type 0, BuildingBlock: CEKHIL_clean_sbu_0, # of connection points: 4
#     Node 2, Type 0, BuildingBlock: CEKHIL_clean_sbu_0, # of connection points: 4
#     Node 3, Type 0, BuildingBlock: CEKHIL_clean_sbu_0, # of connection points: 4
#     Node 4, Type 0, BuildingBlock: CEKHIL_clean_sbu_0, # of connection points: 4
#     Node 5, Type 0, BuildingBlock: CEKHIL_clean_sbu_0, # of connection points: 4
#     Node 6, Type 0, BuildingBlock: CEKHIL_clean_sbu_0, # of connection points: 4
#     Node 7, Type 0, BuildingBlock: CEKHIL_clean_sbu_0, # of connection points: 4
#     Node 8, Type 0, BuildingBlock: CEKHIL_clean_sbu_0, # of connection points: 4
#     Node 9, Type 0, BuildingBlock: CEKHIL_clean_sbu_0, # of connection points: 4
#     Node 10, Type 0, BuildingBlock: CEKHIL_clean_sbu_0, # of connection points: 4
#     Node 11, Type 0, BuildingBlock: CEKHIL_clean_sbu_0, # of connection points: 4
#     Edge 12, Type (0, 0), BuildingBlock: EYOCIG_clean_linker_4, # of connection points: 2
#     Edge 13, Type (0, 0), BuildingBlock: EYOCIG_clean_linker_4, # of connection points: 2
#     Edge 14, Type (0, 0), BuildingBlock: EYOCIG_clean_linker_4, # of connection points: 2
#     Edge 15, Type (0, 0), BuildingBlock: EYOCIG_clean_linker_4, # of connection points: 2
#     Edge 16, Type (0, 0), BuildingBlock: EYOCIG_clean_linker_4, # of connection points: 2
#     Edge 17, Type (0, 0), BuildingBlock: EYOCIG_clean_linker_4, # of connection points: 2
#     Edge 18, Type (0, 0), BuildingBlock: EYOCIG_clean_linker_4, # of connection points: 2
#     Edge 19, Type (0, 0), BuildingBlock: EYOCIG_clean_linker_4, # of connection points: 2
#     Edge 20, Type (0, 0), BuildingBlock: EYOCIG_clean_linker_4, # of connection points: 2
#     Edge 21, Type (0, 0), BuildingBlock: EYOCIG_clean_linker_4, # of connection points: 2
#     Edge 22, Type (0, 0), BuildingBlock: EYOCIG_clean_linker_4, # of connection points: 2
#     Edge 23, Type (0, 0), BuildingBlock: EYOCIG_clean_linker_4, # of connection points: 2
#     Edge 24, Type (0, 0), BuildingBlock: EYOCIG_clean_linker_4, # of connection points: 2
#     Edge 25, Type (0, 0), BuildingBlock: EYOCIG_clean_linker_4, # of connection points: 2
#     Edge 26, Type (0, 0), BuildingBlock: EYOCIG_clean_linker_4, # of connection points: 2
#     Edge 27, Type (0, 0), BuildingBlock: EYOCIG_clean_linker_4, # of connection points: 2
#     Edge 28, Type (0, 0), BuildingBlock: EYOCIG_clean_linker_4, # of connection points: 2
#     Edge 29, Type (0, 0), BuildingBlock: EYOCIG_clean_linker_4, # of connection points: 2
#     Edge 30, Type (0, 0), BuildingBlock: EYOCIG_clean_linker_4, # of connection points: 2
#     Edge 31, Type (0, 0), BuildingBlock: EYOCIG_clean_linker_4, # of connection points: 2
#     Edge 32, Type (0, 0), BuildingBlock: EYOCIG_clean_linker_4, # of connection points: 2
#     Edge 33, Type (0, 0), BuildingBlock: EYOCIG_clean_linker_4, # of connection points: 2
#     Edge 34, Type (0, 0), BuildingBlock: EYOCIG_clean_linker_4, # of connection points: 2
#     Edge 35, Type (0, 0), BuildingBlock: EYOCIG_clean_linker_4, # of connection points: 2
# Relax obj value: 0.516
# Max RMSD: 0.262
# Mean RMSD: 0.237
data_MOF--net-acs-a--node1-CEKHIL_clean_sbu_0--edge1-EYOCIG_clean_linker_4
_symmetry_space_group_name_H-M    P1
_symmetry_Int_Tables_number       1
_symmetry_cell_setting            triclinic
loop_
_symmetry_equiv_pos_as_xyz
'x, y, z'
_cell_length_a     39.527902
_cell_length_b     39.539797
_cell_length_c     29.662505
_cell_angle_alpha  89.98341
_cell_angle_beta   89.970615
_cell_angle_gamma 114.33843
loop_
_atom_site_label
_atom_site_type_symbol
_atom_site_fract_x
_atom_site_fract_y
_atom_site_fract_z
_atom_type_partial_charge
Co0 Co 0.58722 0.12548 0.04362 0.0
O1 O 0.58559 0.07625 0.03714 0.0
O2 O 0.53944 0.09287 0.02159 0.0
C3 C 0.64315 0.15759 0.01226 0.0
O4 O 0.57744 0.17194 0.0427 0.0
Co5 Co 0.6459 0.18813 0.10093 0.0
O6 O 0.62638 0.22089 0.0698 0.0
C7 C 0.58741 0.12373 0.14527 0.0
C8 C 0.55164 0.06714 0.02364 0.0
C9 C 0.59531 0.20685 0.0495 0.0
O10 O 0.56949 0.11352 0.10798 0.0
O11 O 0.61934 0.15074 0.14871 0.0
O12 O 0.6143 0.14134 0.98654 0.0
O13 O 0.63797 0.1509 0.05475 0.0
Co14 Co 0.40748 0.57605 0.54684 0.0
O15 O 0.45766 0.5809 0.54227 0.0
O16 O 0.40719 0.53165 0.52076 0.0
C17 C 0.41668 0.63208 0.52039 0.0
O18 O 0.3519 0.56155 0.5437 0.0
Co19 Co 0.38625 0.62727 0.61005 0.0
O20 O 0.33991 0.6077 0.57397 0.0
C21 C 0.40685 0.56967 0.64814 0.0
C22 C 0.44299 0.54767 0.5254 0.0
C23 C 0.33054 0.57818 0.55072 0.0
O24 O 0.40425 0.55457 0.60923 0.0
O25 O 0.40354 0.60007 0.65492 0.0
O26 O 0.41319 0.60568 0.49219 0.0
O27 O 0.41876 0.62501 0.5624 0.0
Co28 Co 0.83337 0.39518 0.04519 0.0
O29 O 0.8693 0.44564 0.04709 0.0
O30 O 0.87922 0.39833 0.01891 0.0
C31 C 0.78718 0.40859 0.01974 0.0
O32 O 0.802 0.33976 0.03507 0.0
Co33 Co 0.76189 0.36924 0.10431 0.0
O34 O 0.74507 0.32521 0.06443 0.0
C35 C 0.83508 0.38752 0.14591 0.0
C36 C 0.89145 0.43364 0.02737 0.0
C37 C 0.76765 0.3175 0.04045 0.0
O38 O 0.84963 0.38697 0.10728 0.0
O39 O 0.80175 0.38414 0.15131 0.0
O40 O 0.81097 0.40598 0.99129 0.0
O41 O 0.79346 0.40567 0.0618 0.0
Co42 Co 0.36597 0.84249 0.54331 0.0
O43 O 0.36759 0.89173 0.5371 0.0
O44 O 0.4138 0.87519 0.52149 0.0
C45 C 0.31014 0.8105 0.51178 0.0
O46 O 0.37577 0.79606 0.54215 0.0
Co47 Co 0.30718 0.77959 0.60032 0.0
O48 O 0.32671 0.74697 0.56887 0.0
C49 C 0.36543 0.84391 0.64494 0.0
C50 C 0.40159 0.90091 0.52371 0.0
C51 C 0.35784 0.76112 0.54865 0.0
O52 O 0.3835 0.85419 0.60773 0.0
O53 O 0.33349 0.81689 0.64824 0.0
O54 O 0.33906 0.82688 0.48614 0.0
O55 O 0.3152 0.81701 0.55431 0.0
Co56 Co 0.54565 0.39237 0.04725 0.0
O57 O 0.49546 0.38747 0.0426 0.0
O58 O 0.5459 0.4366 0.02066 0.0
C59 C 0.5365 0.33617 0.02142 0.0
O60 O 0.60123 0.4069 0.04404 0.0
Co61 Co 0.56705 0.3416 0.11104 0.0
O62 O 0.61329 0.36092 0.0747 0.0
C63 C 0.54633 0.39934 0.14847 0.0
C64 C 0.5101 0.4206 0.0254 0.0
C65 C 0.6226 0.3903 0.05117 0.0
O66 O 0.5489 0.41422 0.10941 0.0
O67 O 0.54971 0.36901 0.15556 0.0
O68 O 0.53994 0.36239 0.99293 0.0
O69 O 0.53444 0.3435 0.06334 0.0
Co70 Co 0.11972 0.57323 0.5455 0.0
O71 O 0.08363 0.52285 0.54778 0.0
O72 O 0.07391 0.57018 0.51932 0.0
C73 C 0.16574 0.55951 0.52007 0.0
O74 O 0.15124 0.62858 0.53498 0.0
Co75 Co 0.19133 0.59917 0.6043 0.0
O76 O 0.2082 0.64306 0.56412 0.0
C77 C 0.11829 0.5814 0.64617 0.0
C78 C 0.06154 0.53488 0.528 0.0
C79 C 0.18564 0.65076 0.54015 0.0
O80 O 0.10366 0.58178 0.60756 0.0
O81 O 0.15159 0.58468 0.65147 0.0
O82 O 0.14195 0.5621 0.49164 0.0
O83 O 0.15956 0.56263 0.56211 0.0
Co84 Co 0.83523 0.37388 0.454 0.0
O85 O 0.88438 0.3753 0.46057 0.0
O86 O 0.86793 0.42157 0.47609 0.0
C87 C 0.8029 0.31799 0.48527 0.0
O88 O 0.78889 0.38387 0.45484 0.0
Co89 Co 0.77252 0.31543 0.39653 0.0
O90 O 0.73984 0.33503 0.42772 0.0
C91 C 0.83719 0.37371 0.35238 0.0
C92 C 0.89358 0.40926 0.47407 0.0
C93 C 0.75397 0.36608 0.44805 0.0
O94 O 0.84736 0.39162 0.38967 0.0
O95 O 0.8101 0.34185 0.34888 0.0
O96 O 0.8192 0.34679 0.51104 0.0
O97 O 0.80966 0.32318 0.44279 0.0
Co98 Co 0.38741 0.84095 0.95253 0.0
O99 O 0.4379 0.87688 0.95045 0.0
O100 O 0.39057 0.88688 0.97846 0.0
C101 C 0.40074 0.79478 0.97834 0.0
O102 O 0.33198 0.80964 0.9628 0.0
Co103 Co 0.36144 0.76925 0.89389 0.0
O104 O 0.31747 0.75259 0.93395 0.0
C105 C 0.37958 0.84223 0.85175 0.0
C106 C 0.4259 0.8991 0.96998 0.0
C107 C 0.30975 0.77525 0.95774 0.0
O108 O 0.37918 0.85697 0.89029 0.0
O109 O 0.37615 0.80888 0.84659 0.0
O110 O 0.3982 0.81871 0.0066 0.0
O111 O 0.39786 0.80094 0.93624 0.0
Co112 Co 0.56789 0.41466 0.45114 0.0
O113 O 0.57276 0.46484 0.45527 0.0
O114 O 0.52378 0.41457 0.47794 0.0
C115 C 0.62427 0.42416 0.47661 0.0
O116 O 0.55346 0.35913 0.45493 0.0
Co117 Co 0.6184 0.3929 0.38732 0.0
O118 O 0.59928 0.34689 0.42406 0.0
C119 C 0.5604 0.4133 0.34999 0.0
C120 C 0.53974 0.45032 0.47278 0.0
C121 C 0.57003 0.33773 0.44783 0.0
O122 O 0.54567 0.4109 0.38912 0.0
O123 O 0.59075 0.40997 0.3428 0.0
O124 O 0.59819 0.42086 0.50526 0.0
O125 O 0.61668 0.42584 0.4347 0.0
Co126 Co 0.11793 0.59489 0.95444 0.0
O127 O 0.06881 0.59361 0.96066 0.0
O128 O 0.085 0.54717 0.97626 0.0
C129 C 0.15016 0.65065 0.98595 0.0
O130 O 0.16416 0.5847 0.95557 0.0
Co131 Co 0.18109 0.65337 0.89744 0.0
O132 O 0.21347 0.63338 0.92857 0.0
C133 C 0.11647 0.59548 0.85285 0.0
C134 C 0.05943 0.55958 0.97406 0.0
C135 C 0.19912 0.6023 0.94884 0.0
O136 O 0.10613 0.57739 0.89003 0.0
O137 O 0.14364 0.62732 0.84957 0.0
O138 O 0.13369 0.62178 0.0116 0.0
O139 O 0.14368 0.6456 0.94342 0.0
Co140 Co 0.56529 0.12733 0.45284 0.0
O141 O 0.51493 0.09115 0.45112 0.0
O142 O 0.56259 0.08155 0.47877 0.0
C143 C 0.55164 0.17323 0.4788 0.0
O144 O 0.6207 0.15898 0.46268 0.0
Co145 Co 0.59053 0.19892 0.39403 0.0
O146 O 0.63473 0.21591 0.43368 0.0
C147 C 0.57277 0.12601 0.352 0.0
C148 C 0.52721 0.0691 0.47054 0.0
C149 C 0.64274 0.19341 0.4574 0.0
O150 O 0.57343 0.11138 0.39054 0.0
O151 O 0.57592 0.15927 0.34681 0.0
O152 O 0.55451 0.14944 0.50702 0.0
O153 O 0.55441 0.16709 0.43667 0.0
Co154 Co 0.38457 0.55312 0.95119 0.0
O155 O 0.38005 0.50304 0.9552 0.0
O156 O 0.42884 0.55347 0.97779 0.0
C157 C 0.32812 0.54325 0.97689 0.0
O158 O 0.39861 0.60859 0.95503 0.0
Co159 Co 0.33364 0.57446 0.88759 0.0
O160 O 0.35261 0.62052 0.92417 0.0
C161 C 0.39203 0.55478 0.84999 0.0
C162 C 0.41309 0.51772 0.97261 0.0
C163 C 0.38189 0.62985 0.94788 0.0
O164 O 0.40677 0.55714 0.88909 0.0
O165 O 0.36155 0.55785 0.84291 0.0
O166 O 0.35428 0.54664 0.00542 0.0
O167 O 0.33567 0.54164 0.93495 0.0
C168 C 0.56483 0.09533 0.27269 0.0
C169 C 0.56806 0.10467 0.31164 0.0
C170 C 0.56514 0.09565 0.2252 0.0
C171 C 0.57115 0.10501 0.18634 0.0
C172 C 0.41788 0.54486 0.72545 0.0
C173 C 0.41328 0.5519 0.68713 0.0
C174 C 0.41757 0.54451 0.77282 0.0
C175 C 0.41026 0.54879 0.81115 0.0
C176 C 0.86601 0.39589 0.22506 0.0
C177 C 0.85662 0.39248 0.18613 0.0
C178 C 0.86561 0.39576 0.27255 0.0
C179 C 0.85613 0.38986 0.31138 0.0
C180 C 0.38764 0.87274 0.77234 0.0
C181 C 0.38439 0.86356 0.81136 0.0
C182 C 0.38738 0.87216 0.72485 0.0
C183 C 0.38146 0.86267 0.68603 0.0
C184 C 0.53524 0.42431 0.27296 0.0
C185 C 0.54237 0.41971 0.31124 0.0
C186 C 0.5351 0.42422 0.22559 0.0
C187 C 0.53978 0.41722 0.18727 0.0
C188 C 0.0876 0.57351 0.72546 0.0
C189 C 0.09687 0.5767 0.68648 0.0
C190 C 0.08812 0.57374 0.77294 0.0
C191 C 0.09763 0.57957 0.81176 0.0
C192 C 0.50407 -0.00033 0.00334 0.0
C193 C 0.52735 0.02974 0.01308 0.0
C194 C 0.47534 0.96527 0.99234 0.0
C195 C 0.45149 0.93542 0.98293 0.0
C196 C 0.48376 0.51187 0.50456 0.0
C197 C 0.46544 0.52854 0.51422 0.0
C198 C 0.50419 0.49128 0.49384 0.0
C199 C 0.52072 0.47284 0.48408 0.0
C200 C -0.00818 0.51209 0.99385 0.0
C201 C 0.02192 0.53542 0.98431 0.0
C202 C 0.95748 0.48321 0.00473 0.0
C203 C 0.92772 0.45925 0.01422 0.0
C204 C 0.47806 0.00286 0.49305 0.0
C205 C 0.50186 0.03272 0.48361 0.0
C206 C 0.44928 0.96844 0.50391 0.0
C207 C 0.42593 0.93835 0.51343 0.0
C208 C 0.44892 0.47697 0.99348 0.0
C209 C 0.43231 0.49535 0.98382 0.0
C210 C 0.46936 0.45638 0.00423 0.0
C211 C 0.48766 0.43971 0.01405 0.0
C212 C 0.96106 0.45673 0.49445 0.0
C213 C 0.931 0.43345 0.48466 0.0
C214 C -0.00458 0.48549 0.50548 0.0
C215 C 0.02524 0.50935 0.51493 0.0
C216 C 0.56646 0.25222 0.02059 0.0
C217 C 0.57918 0.23105 0.03353 0.0
C218 C 0.55354 0.27962 0.01044 0.0
C219 C 0.54575 0.30597 0.00976 0.0
C220 C 0.26403 0.55667 0.516 0.0
C221 C 0.29471 0.5639 0.53014 0.0
C222 C 0.22839 0.55428 0.50607 0.0
C223 C 0.19893 0.55632 0.50662 0.0
C224 C 0.73353 0.25141 0.0046 0.0
C225 C 0.75298 0.28197 0.01847 0.0
C226 C 0.70415 0.21655 0.99596 0.0
C227 C 0.67544 0.18908 0.99761 0.0
C228 C 0.38671 0.7159 0.51925 0.0
C229 C 0.37397 0.737 0.53243 0.0
C230 C 0.39964 0.68855 0.50896 0.0
C231 C 0.40743 0.66222 0.50838 0.0
C232 C 0.68896 0.41154 0.01599 0.0
C233 C 0.65835 0.40442 0.03033 0.0
C234 C 0.72454 0.41383 0.00588 0.0
C235 C 0.75399 0.41176 0.00634 0.0
C236 C 0.2198 0.71676 0.50398 0.0
C237 C 0.20034 0.68624 0.518 0.0
C238 C 0.2492 0.75161 0.49527 0.0
C239 C 0.2779 0.77908 0.49696 0.0
C240 C 0.70868 0.39496 0.47719 0.0
C241 C 0.72984 0.38225 0.46415 0.0
C242 C 0.68121 0.40773 0.48748 0.0
C243 C 0.65472 0.41529 0.48825 0.0
C244 C 0.24372 0.74116 0.99385 0.0
C245 C 0.27425 0.76065 0.97985 0.0
C246 C 0.20892 0.71169 0.00253 0.0
C247 C 0.18151 0.68294 0.00082 0.0
C248 C 0.54655 0.23587 0.4932 0.0
C249 C 0.54857 0.20641 0.49252 0.0
C250 C 0.54887 0.27147 0.48322 0.0
C251 C 0.55595 0.30204 0.46882 0.0
C252 C 0.24398 0.57287 0.97782 0.0
C253 C 0.22301 0.58583 0.96486 0.0
C254 C 0.2713 0.55985 0.98799 0.0
C255 C 0.29773 0.5522 0.98865 0.0
C256 C 0.70895 0.22771 0.49293 0.0
C257 C 0.67837 0.20822 0.47915 0.0
C258 C 0.74384 0.25709 0.50151 0.0
C259 C 0.77135 0.28575 0.49987 0.0
C260 C 0.40291 0.69622 0.9829 0.0
C261 C 0.39587 0.66561 0.96865 0.0
C262 C 0.40535 0.73189 0.99272 0.0
C263 C 0.40356 0.76147 0.99201 0.0
loop_
_geom_bond_atom_site_label_1
_geom_bond_atom_site_label_2
_geom_bond_distance
_geom_bond_site_symmetry_2
_ccdc_geom_bond_type
Co0 O1 2.216 . S
Co0 O2 2.091 . S
Co0 O4 2.004 . S
Co0 O10 2.021 . S
Co0 O12 2.137 1_554 S
Co0 O13 2.244 . S
O1 Co0 2.216 . S
O1 C8 1.247 . S
O2 Co0 2.091 . S
O2 C8 1.261 . S
C3 O12 1.247 1_554 S
C3 O13 1.272 . S
O4 Co0 2.004 . S
O4 C9 1.259 . S
Co5 O6 2.061 . S
Co5 O11 2.052 . S
Co5 O13 2.135 . S
O6 Co5 2.061 . S
O6 C9 1.235 . S
C7 O10 1.238 . S
C7 O11 1.241 . S
C8 O1 1.247 . S
C8 O2 1.261 . S
C9 O4 1.259 . S
C9 O6 1.235 . S
O10 Co0 2.021 . S
O10 C7 1.238 . S
O11 Co5 2.052 . S
O11 C7 1.241 . S
O12 Co0 2.137 1_556 S
O12 C3 1.247 1_556 S
O13 Co0 2.244 . S
O13 C3 1.272 . S
O13 Co5 2.135 . S
Co14 O15 2.216 . S
Co14 O16 2.091 . S
Co14 O18 2.004 . S
Co14 O24 2.021 . S
Co14 O26 2.137 . S
Co14 O27 2.244 . S
O15 Co14 2.216 . S
O15 C22 1.247 . S
O16 Co14 2.091 . S
O16 C22 1.261 . S
C17 O26 1.247 . S
C17 O27 1.272 . S
O18 Co14 2.004 . S
O18 C23 1.259 . S
Co19 O20 2.061 . S
Co19 O25 2.052 . S
Co19 O27 2.135 . S
O20 Co19 2.061 . S
O20 C23 1.235 . S
C21 O24 1.238 . S
C21 O25 1.241 . S
C22 O15 1.247 . S
C22 O16 1.261 . S
C23 O18 1.259 . S
C23 O20 1.235 . S
O24 Co14 2.021 . S
O24 C21 1.238 . S
O25 Co19 2.052 . S
O25 C21 1.241 . S
O26 Co14 2.137 . S
O26 C17 1.247 . S
O27 Co14 2.244 . S
O27 C17 1.272 . S
O27 Co19 2.135 . S
Co28 O29 2.216 . S
Co28 O30 2.091 . S
Co28 O32 2.004 . S
Co28 O38 2.021 . S
Co28 O40 2.137 1_554 S
Co28 O41 2.244 . S
O29 Co28 2.216 . S
O29 C36 1.247 . S
O30 Co28 2.091 . S
O30 C36 1.261 . S
C31 O40 1.247 1_554 S
C31 O41 1.272 . S
O32 Co28 2.004 . S
O32 C37 1.259 . S
Co33 O34 2.061 . S
Co33 O39 2.052 . S
Co33 O41 2.135 . S
O34 Co33 2.061 . S
O34 C37 1.235 . S
C35 O38 1.238 . S
C35 O39 1.241 . S
C36 O29 1.247 . S
C36 O30 1.261 . S
C37 O32 1.259 . S
C37 O34 1.235 . S
O38 Co28 2.021 . S
O38 C35 1.238 . S
O39 Co33 2.052 . S
O39 C35 1.241 . S
O40 Co28 2.137 1_556 S
O40 C31 1.247 1_556 S
O41 Co28 2.244 . S
O41 C31 1.272 . S
O41 Co33 2.135 . S
Co42 O43 2.216 . S
Co42 O44 2.091 . S
Co42 O46 2.004 . S
Co42 O52 2.021 . S
Co42 O54 2.137 . S
Co42 O55 2.244 . S
O43 Co42 2.216 . S
O43 C50 1.247 . S
O44 Co42 2.091 . S
O44 C50 1.261 . S
C45 O54 1.247 . S
C45 O55 1.272 . S
O46 Co42 2.004 . S
O46 C51 1.259 . S
Co47 O48 2.061 . S
Co47 O53 2.052 . S
Co47 O55 2.135 . S
O48 Co47 2.061 . S
O48 C51 1.235 . S
C49 O52 1.238 . S
C49 O53 1.241 . S
C50 O43 1.247 . S
C50 O44 1.261 . S
C51 O46 1.259 . S
C51 O48 1.235 . S
O52 Co42 2.021 . S
O52 C49 1.238 . S
O53 Co47 2.052 . S
O53 C49 1.241 . S
O54 Co42 2.137 . S
O54 C45 1.247 . S
O55 Co42 2.244 . S
O55 C45 1.272 . S
O55 Co47 2.135 . S
Co56 O57 2.216 . S
Co56 O58 2.091 . S
Co56 O60 2.004 . S
Co56 O66 2.021 . S
Co56 O68 2.137 1_554 S
Co56 O69 2.244 . S
O57 Co56 2.216 . S
O57 C64 1.247 . S
O58 Co56 2.091 . S
O58 C64 1.261 . S
C59 O68 1.247 1_554 S
C59 O69 1.272 . S
O60 Co56 2.004 . S
O60 C65 1.259 . S
Co61 O62 2.061 . S
Co61 O67 2.052 . S
Co61 O69 2.135 . S
O62 Co61 2.061 . S
O62 C65 1.235 . S
C63 O66 1.238 . S
C63 O67 1.241 . S
C64 O57 1.247 . S
C64 O58 1.261 . S
C65 O60 1.259 . S
C65 O62 1.235 . S
O66 Co56 2.021 . S
O66 C63 1.238 . S
O67 Co61 2.052 . S
O67 C63 1.241 . S
O68 Co56 2.137 1_556 S
O68 C59 1.247 1_556 S
O69 Co56 2.244 . S
O69 C59 1.272 . S
O69 Co61 2.135 . S
Co70 O71 2.216 . S
Co70 O72 2.091 . S
Co70 O74 2.004 . S
Co70 O80 2.021 . S
Co70 O82 2.137 . S
Co70 O83 2.244 . S
O71 Co70 2.216 . S
O71 C78 1.247 . S
O72 Co70 2.091 . S
O72 C78 1.261 . S
C73 O82 1.247 . S
C73 O83 1.272 . S
O74 Co70 2.004 . S
O74 C79 1.259 . S
Co75 O76 2.061 . S
Co75 O81 2.052 . S
Co75 O83 2.135 . S
O76 Co75 2.061 . S
O76 C79 1.235 . S
C77 O80 1.238 . S
C77 O81 1.241 . S
C78 O71 1.247 . S
C78 O72 1.261 . S
C79 O74 1.259 . S
C79 O76 1.235 . S
O80 Co70 2.021 . S
O80 C77 1.238 . S
O81 Co75 2.052 . S
O81 C77 1.241 . S
O82 Co70 2.137 . S
O82 C73 1.247 . S
O83 Co70 2.244 . S
O83 C73 1.272 . S
O83 Co75 2.135 . S
Co84 O85 2.216 . S
Co84 O86 2.091 . S
Co84 O88 2.004 . S
Co84 O94 2.021 . S
Co84 O96 2.137 . S
Co84 O97 2.244 . S
O85 Co84 2.216 . S
O85 C92 1.247 . S
O86 Co84 2.091 . S
O86 C92 1.261 . S
C87 O96 1.247 . S
C87 O97 1.272 . S
O88 Co84 2.004 . S
O88 C93 1.259 . S
Co89 O90 2.061 . S
Co89 O95 2.052 . S
Co89 O97 2.135 . S
O90 Co89 2.061 . S
O90 C93 1.235 . S
C91 O94 1.238 . S
C91 O95 1.241 . S
C92 O85 1.247 . S
C92 O86 1.261 . S
C93 O88 1.259 . S
C93 O90 1.235 . S
O94 Co84 2.021 . S
O94 C91 1.238 . S
O95 Co89 2.052 . S
O95 C91 1.241 . S
O96 Co84 2.137 . S
O96 C87 1.247 . S
O97 Co84 2.244 . S
O97 C87 1.272 . S
O97 Co89 2.135 . S
Co98 O99 2.216 . S
Co98 O100 2.091 . S
Co98 O102 2.004 . S
Co98 O108 2.021 . S
Co98 O110 2.137 1_556 S
Co98 O111 2.244 . S
O99 Co98 2.216 . S
O99 C106 1.247 . S
O100 Co98 2.091 . S
O100 C106 1.261 . S
C101 O110 1.247 1_556 S
C101 O111 1.272 . S
O102 Co98 2.004 . S
O102 C107 1.259 . S
Co103 O104 2.061 . S
Co103 O109 2.052 . S
Co103 O111 2.135 . S
O104 Co103 2.061 . S
O104 C107 1.235 . S
C105 O108 1.238 . S
C105 O109 1.241 . S
C106 O99 1.247 . S
C106 O100 1.261 . S
C107 O102 1.259 . S
C107 O104 1.235 . S
O108 Co98 2.021 . S
O108 C105 1.238 . S
O109 Co103 2.052 . S
O109 C105 1.241 . S
O110 Co98 2.137 1_554 S
O110 C101 1.247 1_554 S
O111 Co98 2.244 . S
O111 C101 1.272 . S
O111 Co103 2.135 . S
Co112 O113 2.216 . S
Co112 O114 2.091 . S
Co112 O116 2.004 . S
Co112 O122 2.021 . S
Co112 O124 2.137 . S
Co112 O125 2.244 . S
O113 Co112 2.216 . S
O113 C120 1.247 . S
O114 Co112 2.091 . S
O114 C120 1.261 . S
C115 O124 1.247 . S
C115 O125 1.272 . S
O116 Co112 2.004 . S
O116 C121 1.259 . S
Co117 O118 2.061 . S
Co117 O123 2.052 . S
Co117 O125 2.135 . S
O118 Co117 2.061 . S
O118 C121 1.235 . S
C119 O122 1.238 . S
C119 O123 1.241 . S
C120 O113 1.247 . S
C120 O114 1.261 . S
C121 O116 1.259 . S
C121 O118 1.235 . S
O122 Co112 2.021 . S
O122 C119 1.238 . S
O123 Co117 2.052 . S
O123 C119 1.241 . S
O124 Co112 2.137 . S
O124 C115 1.247 . S
O125 Co112 2.244 . S
O125 C115 1.272 . S
O125 Co117 2.135 . S
Co126 O127 2.216 . S
Co126 O128 2.091 . S
Co126 O130 2.004 . S
Co126 O136 2.021 . S
Co126 O138 2.137 1_556 S
Co126 O139 2.244 . S
O127 Co126 2.216 . S
O127 C134 1.247 . S
O128 Co126 2.091 . S
O128 C134 1.261 . S
C129 O138 1.247 1_556 S
C129 O139 1.272 . S
O130 Co126 2.004 . S
O130 C135 1.259 . S
Co131 O132 2.061 . S
Co131 O137 2.052 . S
Co131 O139 2.135 . S
O132 Co131 2.061 . S
O132 C135 1.235 . S
C133 O136 1.238 . S
C133 O137 1.241 . S
C134 O127 1.247 . S
C134 O128 1.261 . S
C135 O130 1.259 . S
C135 O132 1.235 . S
O136 Co126 2.021 . S
O136 C133 1.238 . S
O137 Co131 2.052 . S
O137 C133 1.241 . S
O138 Co126 2.137 1_554 S
O138 C129 1.247 1_554 S
O139 Co126 2.244 . S
O139 C129 1.272 . S
O139 Co131 2.135 . S
Co140 O141 2.216 . S
Co140 O142 2.091 . S
Co140 O144 2.004 . S
Co140 O150 2.021 . S
Co140 O152 2.137 . S
Co140 O153 2.244 . S
O141 Co140 2.216 . S
O141 C148 1.247 . S
O142 Co140 2.091 . S
O142 C148 1.261 . S
C143 O152 1.247 . S
C143 O153 1.272 . S
O144 Co140 2.004 . S
O144 C149 1.259 . S
Co145 O146 2.061 . S
Co145 O151 2.052 . S
Co145 O153 2.135 . S
O146 Co145 2.061 . S
O146 C149 1.235 . S
C147 O150 1.238 . S
C147 O151 1.241 . S
C148 O141 1.247 . S
C148 O142 1.261 . S
C149 O144 1.259 . S
C149 O146 1.235 . S
O150 Co140 2.021 . S
O150 C147 1.238 . S
O151 Co145 2.052 . S
O151 C147 1.241 . S
O152 Co140 2.137 . S
O152 C143 1.247 . S
O153 Co140 2.244 . S
O153 C143 1.272 . S
O153 Co145 2.135 . S
Co154 O155 2.216 . S
Co154 O156 2.091 . S
Co154 O158 2.004 . S
Co154 O164 2.021 . S
Co154 O166 2.137 1_556 S
Co154 O167 2.244 . S
O155 Co154 2.216 . S
O155 C162 1.247 . S
O156 Co154 2.091 . S
O156 C162 1.261 . S
C157 O166 1.247 1_556 S
C157 O167 1.272 . S
O158 Co154 2.004 . S
O158 C163 1.259 . S
Co159 O160 2.061 . S
Co159 O165 2.052 . S
Co159 O167 2.135 . S
O160 Co159 2.061 . S
O160 C163 1.235 . S
C161 O164 1.238 . S
C161 O165 1.241 . S
C162 O155 1.247 . S
C162 O156 1.261 . S
C163 O158 1.259 . S
C163 O160 1.235 . S
O164 Co154 2.021 . S
O164 C161 1.238 . S
O165 Co159 2.052 . S
O165 C161 1.241 . S
O166 Co154 2.137 1_554 S
O166 C157 1.247 1_554 S
O167 Co154 2.244 . S
O167 C157 1.272 . S
O167 Co159 2.135 . S
C168 C169 1.170 . S
C168 C170 1.380 . S
C169 C168 1.170 . S
C170 C168 1.380 . S
C170 C171 1.170 . S
C171 C170 1.170 . S
C172 C173 1.170 . S
C172 C174 1.380 . S
C173 C172 1.170 . S
C174 C172 1.380 . S
C174 C175 1.170 . S
C175 C174 1.170 . S
C176 C177 1.170 . S
C176 C178 1.380 . S
C177 C176 1.170 . S
C178 C176 1.380 . S
C178 C179 1.170 . S
C179 C178 1.170 . S
C180 C181 1.170 . S
C180 C182 1.380 . S
C181 C180 1.170 . S
C182 C180 1.380 . S
C182 C183 1.170 . S
C183 C182 1.170 . S
C184 C185 1.170 . S
C184 C186 1.380 . S
C185 C184 1.170 . S
C186 C184 1.380 . S
C186 C187 1.170 . S
C187 C186 1.170 . S
C188 C189 1.170 . S
C188 C190 1.380 . S
C189 C188 1.170 . S
C190 C188 1.380 . S
C190 C191 1.170 . S
C191 C190 1.170 . S
C192 C193 1.169 1_556 S
C192 C194 1.380 1_545 S
C193 C192 1.169 1_554 S
C194 C192 1.380 1_565 S
C194 C195 1.170 . S
C195 C194 1.170 . S
C196 C197 1.170 . S
C196 C198 1.380 . S
C197 C196 1.170 . S
C198 C196 1.380 . S
C198 C199 1.170 . S
C199 C198 1.170 . S
C200 C201 1.170 . S
C200 C202 1.380 1_455 S
C201 C200 1.170 . S
C202 C200 1.380 1_655 S
C202 C203 1.170 1_556 S
C203 C202 1.170 1_554 S
C204 C205 1.170 . S
C204 C206 1.380 1_545 S
C205 C204 1.170 . S
C206 C204 1.380 1_565 S
C206 C207 1.170 . S
C207 C206 1.170 . S
C208 C209 1.170 . S
C208 C210 1.380 . S
C209 C208 1.170 . S
C210 C208 1.380 . S
C210 C211 1.170 1_556 S
C211 C210 1.170 1_554 S
C212 C213 1.170 . S
C212 C214 1.380 1_655 S
C213 C212 1.170 . S
C214 C212 1.380 1_455 S
C214 C215 1.170 . S
C215 C214 1.170 . S
C216 C217 1.170 . S
C216 C218 1.380 . S
C217 C216 1.170 . S
C218 C216 1.380 . S
C218 C219 1.170 . S
C219 C218 1.170 . S
C220 C221 1.170 . S
C220 C222 1.380 . S
C221 C220 1.170 . S
C222 C220 1.380 . S
C222 C223 1.170 . S
C223 C222 1.170 . S
C224 C225 1.170 . S
C224 C226 1.380 . S
C225 C224 1.170 . S
C226 C224 1.380 . S
C226 C227 1.170 . S
C227 C226 1.170 . S
C228 C229 1.170 . S
C228 C230 1.380 . S
C229 C228 1.170 . S
C230 C228 1.380 . S
C230 C231 1.170 . S
C231 C230 1.170 . S
C232 C233 1.170 . S
C232 C234 1.380 . S
C233 C232 1.170 . S
C234 C232 1.380 . S
C234 C235 1.170 . S
C235 C234 1.170 . S
C236 C237 1.170 . S
C236 C238 1.380 . S
C237 C236 1.170 . S
C238 C236 1.380 . S
C238 C239 1.170 . S
C239 C238 1.170 . S
C240 C241 1.170 . S
C240 C242 1.380 . S
C241 C240 1.170 . S
C242 C240 1.380 . S
C242 C243 1.170 . S
C243 C242 1.170 . S
C244 C245 1.170 . S
C244 C246 1.380 . S
C245 C244 1.170 . S
C246 C244 1.380 . S
C246 C247 1.170 . S
C247 C246 1.170 . S
C248 C249 1.170 . S
C248 C250 1.380 . S
C249 C248 1.170 . S
C250 C248 1.380 . S
C250 C251 1.170 . S
C251 C250 1.170 . S
C252 C253 1.170 . S
C252 C254 1.380 . S
C253 C252 1.170 . S
C254 C252 1.380 . S
C254 C255 1.170 . S
C255 C254 1.170 . S
C256 C257 1.170 . S
C256 C258 1.380 . S
C257 C256 1.170 . S
C258 C256 1.380 . S
C258 C259 1.170 . S
C259 C258 1.170 . S
C260 C261 1.170 . S
C260 C262 1.380 . S
C261 C260 1.170 . S
C262 C260 1.380 . S
C262 C263 1.170 . S
C263 C262 1.170 . S
C169 C147 1.519 . S
C171 C7 1.559 . S
C173 C21 1.478 . S
C175 C161 1.509 . S
C177 C35 1.537 . S
C179 C91 1.578 . S
C181 C105 1.524 . S
C183 C49 1.568 . S
C185 C119 1.511 . S
C187 C63 1.480 . S
C189 C77 1.550 . S
C191 C133 1.535 . S
C193 C8 1.154 . S
C195 C106 1.179 . S
C197 C22 0.992 . S
C199 C120 1.018 . S
C201 C134 1.120 . S
C203 C36 1.192 . S
C205 C148 1.193 . S
C207 C50 1.119 . S
C209 C162 0.988 . S
C211 C64 1.019 . S
C213 C92 1.143 . S
C215 C78 1.182 . S
C217 C9 1.239 . S
C219 C59 1.155 . S
C221 C23 1.072 . S
C223 C73 1.071 . S
C225 C37 1.191 . S
C227 C3 1.157 . S
C229 C51 1.230 . S
C231 C17 1.149 . S
C233 C65 1.125 . S
C235 C31 1.121 . S
C237 C79 1.148 . S
C239 C45 1.099 . S
C241 C93 1.253 . S
C243 C115 1.196 . S
C245 C107 1.182 . S
C247 C129 1.144 . S
C249 C143 1.123 . S
C251 C121 1.121 . S
C253 C135 1.253 . S
C255 C157 1.196 . S
C257 C149 1.153 . S
C259 C87 1.104 . S
C261 C163 1.073 . S
C263 C101 1.069 . S
