# Generated by pormake.
# Topology yfz, (5)-cn, num edge types: 1
# Building blocks:
#     Node 0, Type 0, BuildingBlock: XOMCOT_clean_sbu_0, # of connection points: 5
#     Node 1, Type 0, BuildingBlock: XOMCOT_clean_sbu_0, # of connection points: 5
#     Node 2, Type 0, BuildingBlock: XOMCOT_clean_sbu_0, # of connection points: 5
#     Node 3, Type 0, BuildingBlock: XOMCOT_clean_sbu_0, # of connection points: 5
#     Node 4, Type 0, BuildingBlock: XOMCOT_clean_sbu_0, # of connection points: 5
#     Node 5, Type 0, BuildingBlock: XOMCOT_clean_sbu_0, # of connection points: 5
#     Node 6, Type 0, BuildingBlock: XOMCOT_clean_sbu_0, # of connection points: 5
#     Node 7, Type 0, BuildingBlock: XOMCOT_clean_sbu_0, # of connection points: 5
#     Edge 8, Type (0, 0), BuildingBlock: KIFKEQ_clean_linker_1, # of connection points: 2
#     Edge 9, Type (0, 0), BuildingBlock: KIFKEQ_clean_linker_1, # of connection points: 2
#     Edge 10, Type (0, 0), BuildingBlock: KIFKEQ_clean_linker_1, # of connection points: 2
#     Edge 11, Type (0, 0), BuildingBlock: KIFKEQ_clean_linker_1, # of connection points: 2
#     Edge 12, Type (0, 0), BuildingBlock: KIFKEQ_clean_linker_1, # of connection points: 2
#     Edge 13, Type (0, 0), BuildingBlock: KIFKEQ_clean_linker_1, # of connection points: 2
#     Edge 14, Type (0, 0), BuildingBlock: KIFKEQ_clean_linker_1, # of connection points: 2
#     Edge 15, Type (0, 0), BuildingBlock: KIFKEQ_clean_linker_1, # of connection points: 2
#     Edge 16, Type (0, 0), BuildingBlock: KIFKEQ_clean_linker_1, # of connection points: 2
#     Edge 17, Type (0, 0), BuildingBlock: KIFKEQ_clean_linker_1, # of connection points: 2
#     Edge 18, Type (0, 0), BuildingBlock: KIFKEQ_clean_linker_1, # of connection points: 2
#     Edge 19, Type (0, 0), BuildingBlock: KIFKEQ_clean_linker_1, # of connection points: 2
#     Edge 20, Type (0, 0), BuildingBlock: KIFKEQ_clean_linker_1, # of connection points: 2
#     Edge 21, Type (0, 0), BuildingBlock: KIFKEQ_clean_linker_1, # of connection points: 2
#     Edge 22, Type (0, 0), BuildingBlock: KIFKEQ_clean_linker_1, # of connection points: 2
#     Edge 23, Type (0, 0), BuildingBlock: KIFKEQ_clean_linker_1, # of connection points: 2
#     Edge 24, Type (0, 0), BuildingBlock: KIFKEQ_clean_linker_1, # of connection points: 2
#     Edge 25, Type (0, 0), BuildingBlock: KIFKEQ_clean_linker_1, # of connection points: 2
#     Edge 26, Type (0, 0), BuildingBlock: KIFKEQ_clean_linker_1, # of connection points: 2
#     Edge 27, Type (0, 0), BuildingBlock: KIFKEQ_clean_linker_1, # of connection points: 2
# Relax obj value: 0.170
# Max RMSD: 0.157
# Mean RMSD: 0.157
data_MOF--net-yfz--node1-XOMCOT_clean_sbu_0--edge1-KIFKEQ_clean_linker_1
_symmetry_space_group_name_H-M    P1
_symmetry_Int_Tables_number       1
_symmetry_cell_setting            triclinic
loop_
_symmetry_equiv_pos_as_xyz
'x, y, z'
_cell_length_a     51.978665
_cell_length_b     51.990255
_cell_length_c     17.731727
_cell_angle_alpha  90.073576
_cell_angle_beta   89.96244
_cell_angle_gamma 90.029178
loop_
_atom_site_label
_atom_site_type_symbol
_atom_site_fract_x
_atom_site_fract_y
_atom_site_fract_z
_atom_type_partial_charge
Co0 Co 0.57084 0.10184 0.31784 0.0
C1 C 0.56496 0.10237 0.15088 0.0
C2 C 0.53536 0.07997 0.2026 0.0
C3 C 0.53137 0.08003 0.12578 0.0
N4 N 0.55708 0.0932 0.21842 0.0
N5 N 0.55017 0.09401 0.09337 0.0
H6 H 0.58036 0.11609 0.14372 0.0
H7 H 0.52256 0.07154 0.24365 0.0
C8 C 0.54901 0.04945 0.35341 0.0
O9 O 0.56286 0.03959 0.2985 0.0
N10 N 0.58354 0.11103 0.41643 0.0
C11 C 0.60672 0.12094 0.43395 0.0
C12 C 0.60804 0.12392 0.51113 0.0
C13 C 0.57102 0.10833 0.48246 0.0
N14 N 0.5856 0.11587 0.54148 0.0
C15 C 0.61613 0.08331 0.24295 0.0
C16 C 0.63272 0.05066 0.35547 0.0
C17 C 0.64841 0.05444 0.29199 0.0
C18 C 0.63957 0.07069 0.23492 0.0
C19 C 0.60889 0.06326 0.36042 0.0
N20 N 0.60071 0.07934 0.30415 0.0
H21 H 0.6115 0.09765 0.20195 0.0
H22 H 0.59756 0.06099 0.4111 0.0
H23 H 0.62174 0.1252 0.39359 0.0
H24 H 0.55159 0.10102 0.48713 0.0
O25 O 0.58571 0.1328 0.27778 0.0
O26 O 0.54621 0.12996 0.32407 0.0
O27 O 0.54963 0.07364 0.36637 0.0
C28 C 0.56414 0.14418 0.29378 0.0
H29 H 0.51576 0.0706 0.09634 0.0
H30 H 0.62454 0.13076 0.54251 0.0
H31 H 0.63911 0.03864 0.40166 0.0
H32 H 0.65152 0.07506 0.1865 0.0
Co33 Co 0.38161 0.5675 0.81289 0.0
C34 C 0.38145 0.56138 0.64565 0.0
C35 C 0.40404 0.53218 0.6983 0.0
C36 C 0.40388 0.52779 0.62169 0.0
N37 N 0.39074 0.55388 0.71347 0.0
N38 N 0.3897 0.54627 0.58851 0.0
H39 H 0.36812 0.57705 0.63815 0.0
H40 H 0.41233 0.51947 0.73975 0.0
C41 C 0.43398 0.54612 0.85018 0.0
O42 O 0.44397 0.56036 0.79643 0.0
N43 N 0.37188 0.58004 0.91152 0.0
C44 C 0.36056 0.60261 0.92821 0.0
C45 C 0.35739 0.60409 1.00525 0.0
C46 C 0.37527 0.56803 0.97811 0.0
N47 N 0.36674 0.58234 0.03678 0.0
C48 C 0.40004 0.61304 0.73968 0.0
C49 C 0.43086 0.63046 0.85569 0.0
C50 C 0.42661 0.64654 0.79334 0.0
C51 C 0.41149 0.63716 0.73418 0.0
C52 C 0.41935 0.60603 0.85827 0.0
N53 N 0.40396 0.59756 0.80068 0.0
H54 H 0.38634 0.60801 0.69722 0.0
H55 H 0.42169 0.59453 0.90853 0.0
H56 H 0.35524 0.61707 0.88729 0.0
H57 H 0.38428 0.54939 0.98339 0.0
O58 O 0.35082 0.58227 0.77168 0.0
O59 O 0.35351 0.54274 0.8175 0.0
O60 O 0.40971 0.54637 0.862 0.0
C61 C 0.33942 0.56065 0.78675 0.0
H62 H 0.41274 0.51165 0.59319 0.0
H63 H 0.34878 0.62002 0.03532 0.0
H64 H 0.44212 0.63707 0.90328 0.0
H65 H 0.40675 0.6492 0.68634 0.0
Co66 Co 0.9134 0.37985 0.31897 0.0
C67 C 0.91891 0.37991 0.15169 0.0
C68 C 0.95084 0.39838 0.20475 0.0
C69 C 0.95486 0.39841 0.12791 0.0
N70 N 0.92771 0.38769 0.21974 0.0
N71 N 0.9346 0.3869 0.09465 0.0
H72 H 0.9024 0.36767 0.14367 0.0
H73 H 0.96442 0.405 0.24658 0.0
C74 C 0.93689 0.43188 0.34813 0.0
O75 O 0.92529 0.44066 0.28758 0.0
N76 N 0.90012 0.37145 0.41742 0.0
C77 C 0.87642 0.3629 0.43502 0.0
C78 C 0.87489 0.36023 0.51226 0.0
C79 C 0.91274 0.37362 0.48341 0.0
N80 N 0.89774 0.36708 0.54256 0.0
C81 C 0.86744 0.39673 0.24513 0.0
C82 C 0.8528 0.43316 0.35001 0.0
C83 C 0.83635 0.42776 0.28926 0.0
C84 C 0.84418 0.40956 0.23604 0.0
C85 C 0.87649 0.4203 0.3558 0.0
N86 N 0.88375 0.40244 0.30306 0.0
H87 H 0.87112 0.38083 0.20838 0.0
H88 H 0.8883 0.42371 0.40494 0.0
H89 H 0.86121 0.35938 0.39468 0.0
H90 H 0.93255 0.3798 0.48786 0.0
O91 O 0.89865 0.34871 0.27966 0.0
O92 O 0.93789 0.35165 0.32748 0.0
O93 O 0.93438 0.4083 0.36709 0.0
C94 C 0.9201 0.33736 0.29674 0.0
H95 H 0.97152 0.40611 0.09907 0.0
H96 H 0.85801 0.35442 0.54367 0.0
H97 H 0.84708 0.44661 0.39361 0.0
H98 H 0.83154 0.40387 0.19037 0.0
Co99 Co 0.1054 0.9149 0.82829 0.0
C100 C 0.10226 0.91922 0.66093 0.0
C101 C 0.08758 0.95278 0.71576 0.0
C102 C 0.08662 0.95661 0.63887 0.0
N103 N 0.09668 0.92895 0.72972 0.0
N104 N 0.09582 0.93537 0.60449 0.0
H105 H 0.11256 0.9016 0.65164 0.0
H106 H 0.08262 0.96677 0.75853 0.0
C107 C 0.05212 0.93638 0.85404 0.0
O108 O 0.04444 0.92623 0.78999 0.0
N109 N 0.11442 0.90178 0.92635 0.0
C110 C 0.12367 0.87836 0.94371 0.0
C111 C 0.12585 0.87668 0.02108 0.0
C112 C 0.11136 0.91409 0.99262 0.0
N113 N 0.11799 0.89916 0.0518 0.0
C114 C 0.09459 0.8666 0.75713 0.0
C115 C 0.05366 0.85215 0.84677 0.0
C116 C 0.06201 0.83544 0.78963 0.0
C117 C 0.0827 0.843 0.74456 0.0
C118 C 0.06573 0.87613 0.85605 0.0
N119 N 0.0855 0.88352 0.80976 0.0
H120 H 0.11217 0.87035 0.7273 0.0
H121 H 0.05993 0.88809 0.90284 0.0
H122 H 0.12791 0.86339 0.90317 0.0
H123 H 0.10433 0.93361 0.99716 0.0
O124 O 0.13807 0.9036 0.78864 0.0
O125 O 0.131 0.94183 0.84011 0.0
O126 O 0.07527 0.93327 0.87641 0.0
C127 C 0.14701 0.92599 0.80785 0.0
H128 H 0.07998 0.97383 0.61078 0.0
H129 H 0.13198 0.85987 0.05218 0.0
H130 H 0.03834 0.84651 0.88475 0.0
H131 H 0.09066 0.83006 0.70265 0.0
Co132 Co 0.57038 0.37898 0.20129 0.0
C133 C 0.56447 0.37835 0.36827 0.0
C134 C 0.53483 0.40067 0.31668 0.0
C135 C 0.53081 0.40056 0.3935 0.0
N136 N 0.55659 0.38753 0.30078 0.0
N137 N 0.54964 0.38664 0.42584 0.0
H138 H 0.5799 0.36468 0.37536 0.0
H139 H 0.52202 0.40907 0.27568 0.0
C140 C 0.54846 0.4313 0.16598 0.0
O141 O 0.56233 0.44116 0.22081 0.0
N142 N 0.58312 0.36987 0.10263 0.0
C143 C 0.60632 0.36005 0.08499 0.0
C144 C 0.60764 0.35707 1.00781 0.0
C145 C 0.57057 0.37251 0.03667 0.0
N146 N 0.58516 0.36502 0.97758 0.0
C147 C 0.61562 0.39765 0.27617 0.0
C148 C 0.6322 0.43035 0.16364 0.0
C149 C 0.64788 0.4266 0.2271 0.0
C150 C 0.63904 0.41033 0.28418 0.0
C151 C 0.60839 0.41768 0.15871 0.0
N152 N 0.60021 0.40158 0.21497 0.0
H153 H 0.611 0.3833 0.31718 0.0
H154 H 0.59707 0.41993 0.10805 0.0
H155 H 0.62136 0.35586 0.12527 0.0
H156 H 0.55112 0.37973 0.0321 0.0
O157 O 0.58534 0.34806 0.2412 0.0
O158 O 0.54584 0.35076 0.19505 0.0
O159 O 0.54909 0.40711 0.15292 0.0
C160 C 0.56381 0.3366 0.22522 0.0
H161 H 0.51517 0.40993 0.423 0.0
H162 H 0.62415 0.35029 0.97635 0.0
H163 H 0.63858 0.44238 0.11746 0.0
H164 H 0.65098 0.40599 0.3326 0.0
Co165 Co 0.1049 0.56952 0.6907 0.0
C166 C 0.10502 0.56389 0.85787 0.0
C167 C 0.08526 0.53267 0.80513 0.0
C168 C 0.08528 0.52864 0.88194 0.0
N169 N 0.09673 0.55541 0.78996 0.0
N170 N 0.0976 0.54847 0.91501 0.0
H171 H 0.11783 0.57999 0.86562 0.0
H172 H 0.0781 0.5193 0.76347 0.0
C173 C 0.0526 0.54683 0.66039 0.0
O174 O 0.04375 0.55888 0.7202 0.0
N175 N 0.11366 0.58257 0.59225 0.0
C176 C 0.12272 0.60608 0.57474 0.0
C177 C 0.12552 0.60752 0.49752 0.0
C178 C 0.11133 0.56996 0.52622 0.0
N179 N 0.11825 0.58481 0.46715 0.0
C180 C 0.08766 0.61539 0.76514 0.0
C181 C 0.05297 0.63096 0.65665 0.0
C182 C 0.05794 0.64719 0.71819 0.0
C183 C 0.07516 0.63888 0.77338 0.0
C184 C 0.06537 0.60701 0.65182 0.0
N185 N 0.0825 0.59936 0.70603 0.0
H186 H 0.10293 0.61128 0.80366 0.0
H187 H 0.06229 0.5953 0.60223 0.0
H188 H 0.12649 0.62123 0.61513 0.0
H189 H 0.10477 0.55028 0.52166 0.0
O190 O 0.1361 0.58407 0.73022 0.0
O191 O 0.13288 0.54478 0.68264 0.0
O192 O 0.07634 0.54874 0.64235 0.0
C193 C 0.1473 0.5625 0.71324 0.0
H194 H 0.07705 0.51228 0.91089 0.0
H195 H 0.13172 0.62426 0.46616 0.0
H196 H 0.04026 0.63705 0.61172 0.0
H197 H 0.08043 0.65132 0.81997 0.0
Co198 Co 0.91369 0.1028 0.19923 0.0
C199 C 0.91964 0.10294 0.36668 0.0
C200 C 0.95133 0.08438 0.31263 0.0
C201 C 0.9558 0.08475 0.3892 0.0
N202 N 0.92809 0.09489 0.29839 0.0
N203 N 0.93577 0.09643 0.4232 0.0
H204 H 0.90272 0.11451 0.37507 0.0
H205 H 0.96481 0.07787 0.27032 0.0
C206 C 0.93693 0.05075 0.16964 0.0
O207 O 0.92527 0.04204 0.23025 0.0
N208 N 0.90036 0.11132 0.10082 0.0
C209 C 0.87704 0.12095 0.08411 0.0
C210 C 0.87535 0.12377 1.00697 0.0
C211 C 0.9126 0.10862 0.03427 0.0
N212 N 0.89772 0.11591 0.97551 0.0
C213 C 0.86781 0.08566 0.27335 0.0
C214 C 0.85312 0.04949 0.16777 0.0
C215 C 0.83676 0.05462 0.22896 0.0
C216 C 0.84461 0.07271 0.28249 0.0
C217 C 0.87674 0.06248 0.16188 0.0
N218 N 0.88406 0.08018 0.21503 0.0
H219 H 0.87152 0.10147 0.31042 0.0
H220 H 0.88849 0.05925 0.11248 0.0
H221 H 0.86226 0.12541 0.12507 0.0
H222 H 0.93188 0.10107 0.02921 0.0
O223 O 0.89896 0.13386 0.23905 0.0
O224 O 0.93817 0.13104 0.19081 0.0
O225 O 0.93462 0.07437 0.15084 0.0
C226 C 0.92041 0.14526 0.22195 0.0
H227 H 0.97298 0.07789 0.41715 0.0
H228 H 0.85886 0.13116 0.97682 0.0
H229 H 0.84738 0.03614 0.12395 0.0
H230 H 0.83202 0.07821 0.32852 0.0
Co231 Co 0.37782 0.9197 0.7083 0.0
C232 C 0.37567 0.92847 0.8742 0.0
C233 C 0.40547 0.95114 0.82481 0.0
C234 C 0.40559 0.95513 0.90168 0.0
N235 N 0.3873 0.93355 0.8075 0.0
N236 N 0.38694 0.94059 0.93297 0.0
H237 H 0.35908 0.91614 0.87974 0.0
H238 H 0.4177 0.961 0.78518 0.0
C239 C 0.43212 0.93575 0.66626 0.0
O240 O 0.44171 0.92014 0.71721 0.0
N241 N 0.36787 0.90693 0.61017 0.0
C242 C 0.35657 0.88429 0.59377 0.0
C243 C 0.35378 0.88253 0.5166 0.0
C244 C 0.37136 0.91883 0.54341 0.0
N245 N 0.3631 0.90427 0.48514 0.0
C246 C 0.39244 0.87475 0.7906 0.0
C247 C 0.421 0.85136 0.6786 0.0
C248 C 0.41537 0.83746 0.74453 0.0
C249 C 0.40176 0.85002 0.80185 0.0
C250 C 0.41175 0.87663 0.6703 0.0
N251 N 0.39738 0.88803 0.72587 0.0
H252 H 0.3797 0.88226 0.83257 0.0
H253 H 0.41505 0.88652 0.61757 0.0
H254 H 0.35121 0.86991 0.63493 0.0
H255 H 0.38037 0.93748 0.53747 0.0
O256 O 0.34547 0.90807 0.74862 0.0
O257 O 0.35214 0.94663 0.69858 0.0
O258 O 0.40777 0.93798 0.65868 0.0
C259 C 0.33632 0.93046 0.73041 0.0
H260 H 0.41875 0.96755 0.93182 0.0
H261 H 0.34553 0.86649 0.48608 0.0
H262 H 0.43122 0.84241 0.63227 0.0
H263 H 0.39716 0.84038 0.85426 0.0
H264 H 0.48441 0.93159 0.64923 0.0
H265 H 0.41916 0.97701 0.5785 0.0
H266 H 0.51285 0.95884 0.57362 0.0
H267 H 0.44762 1.00423 0.5036 0.0
H268 H 0.51138 0.06395 0.45285 0.0
H269 H 0.48344 0.03628 0.52818 0.0
H270 H 0.52055 0.96914 0.4349 0.0
H271 H 0.54846 0.99678 0.35897 0.0
C272 C 0.47613 0.94738 0.61773 0.0
C273 C 0.4495 0.95213 0.62018 0.0
C274 C 0.49241 0.9629 0.57412 0.0
C275 C 0.48248 0.98373 0.53284 0.0
C276 C 0.45588 0.98849 0.53539 0.0
C277 C 0.43957 0.97279 0.57808 0.0
C278 C 0.5136 0.04329 0.44824 0.0
C279 C 0.53211 0.0326 0.39953 0.0
C280 C 0.4975 0.02745 0.49122 0.0
C281 C 0.49975 1.00053 0.48738 0.0
C282 C 0.51846 0.98982 0.43944 0.0
C283 C 0.53434 1.00566 0.39563 0.0
H284 H 0.54906 0.48388 0.15731 0.0
H285 H 0.50984 0.41692 0.06975 0.0
H286 H 0.52152 0.51158 0.08067 0.0
H287 H 0.48218 0.44471 0.99386 0.0
H288 H 0.41958 0.5064 0.9423 0.0
H289 H 0.44728 0.47866 0.01824 0.0
H290 H 0.51406 0.52012 0.93979 0.0
H291 H 0.48644 0.54775 0.86307 0.0
C292 C 0.53453 0.47506 0.12197 0.0
C293 C 0.53163 0.44817 0.11987 0.0
C294 C 0.51885 0.49094 0.07777 0.0
C295 C 0.49967 0.48032 0.03135 0.0
C296 C 0.49665 0.45346 0.02957 0.0
C297 C 0.51258 0.43755 0.07284 0.0
C298 C 0.44017 0.5096 0.94108 0.0
C299 C 0.4508 0.52926 0.89636 0.0
C300 C 0.45603 0.49362 0.98436 0.0
C301 C 0.48284 0.49721 0.98493 0.0
C302 C 0.49345 0.51701 0.94084 0.0
C303 C 0.47763 0.53273 0.8966 0.0
H304 H 0.95847 0.47774 0.30631 0.0
H305 H 0.95253 0.42521 0.49401 0.0
H306 H 0.98616 0.50586 0.38169 0.0
H307 H 0.97994 0.45348 0.56945 0.0
H308 H 1.00601 0.52655 0.70108 0.0
H309 H 0.9777 0.49906 0.62571 0.0
H310 H 0.03134 0.50289 0.44017 0.0
H311 H 0.05979 0.53009 0.51562 0.0
C312 C 0.96298 0.47224 0.3637 0.0
C313 C 0.95334 0.4492 0.39407 0.0
C314 C 0.97893 0.48828 0.40669 0.0
C315 C 0.98522 0.48187 0.48146 0.0
C316 C 0.9753 0.45902 0.51218 0.0
C317 C 0.95972 0.44276 0.46879 0.0
C318 C 0.01175 0.52156 0.64418 0.0
C319 C 0.0352 0.53047 0.61445 0.0
C320 C 0.99559 0.50572 0.6012 0.0
C321 C 1.0023 0.49882 0.52705 0.0
C322 C 0.02557 0.50802 0.49695 0.0
C323 C 0.04193 0.52348 0.54036 0.0
H324 H 0.95416 0.0583 0.02543 0.0
H325 H 0.95607 1.00351 0.20828 0.0
H326 H 0.98093 0.02972 0.94925 0.0
H327 H 0.98301 0.975 0.132 0.0
H328 H 0.05691 0.94927 1.0028 0.0
H329 H 0.02832 0.97608 0.07868 0.0
H330 H 0.97812 0.98568 0.88693 0.0
H331 H 0.0067 0.95866 0.81083 0.0
C332 C 0.96029 0.04018 0.04945 0.0
C333 C 0.95302 0.03324 0.12312 0.0
C334 C 0.97549 0.02372 1.00554 0.0
C335 C 0.98408 1.0001 0.0346 0.0
C336 C 0.97683 0.99315 0.10825 0.0
C337 C 0.96131 0.00945 0.15179 0.0
C338 C 0.03975 0.95701 0.97679 0.0
C339 C 0.03413 0.95187 0.90064 0.0
C340 C 0.02329 0.97226 0.02046 0.0
C341 C 1.00099 0.98304 0.98877 0.0
C342 C 0.99527 0.9778 0.91275 0.0
C343 C 0.01156 0.96221 0.86932 0.0
H344 H 0.5227 0.17542 0.32712 0.0
H345 H 0.59875 0.17619 0.22862 0.0
H346 H 0.52008 0.22235 0.31108 0.0
H347 H 0.59605 0.22243 0.21264 0.0
H348 H 0.59856 0.30471 0.29 0.0
H349 H 0.59601 0.25845 0.30584 0.0
H350 H 0.52 0.25824 0.20795 0.0
H351 H 0.52247 0.30519 0.19203 0.0
C352 C 0.53871 0.18552 0.30156 0.0
C353 C 0.56104 0.17211 0.27992 0.0
C354 C 0.53716 0.21232 0.29216 0.0
C355 C 0.55801 0.22609 0.26156 0.0
C356 C 0.57987 0.21245 0.23771 0.0
C357 C 0.58136 0.18588 0.24669 0.0
C358 C 0.58119 0.29496 0.27201 0.0
C359 C 0.56081 0.30865 0.23898 0.0
C360 C 0.57979 0.26837 0.28091 0.0
C361 C 0.55796 0.25465 0.25718 0.0
C362 C 0.53706 0.26834 0.22676 0.0
C363 C 0.53851 0.29515 0.21744 0.0
H364 H 0.17985 0.5971 0.77615 0.0
H365 H 0.17797 0.52047 0.68167 0.0
H366 H 0.22604 0.5938 0.79259 0.0
H367 H 0.22487 0.51723 0.69831 0.0
H368 H 0.30754 0.51983 0.82183 0.0
H369 H 0.26062 0.51759 0.80388 0.0
H370 H 0.26208 0.59234 0.69834 0.0
H371 H 0.30827 0.59466 0.71608 0.0
C372 C 0.18928 0.57945 0.75904 0.0
C373 C 0.17523 0.55914 0.72682 0.0
C374 C 0.21582 0.57762 0.76832 0.0
C375 C 0.22913 0.5554 0.74583 0.0
C376 C 0.21508 0.53458 0.71614 0.0
C377 C 0.18831 0.53648 0.70638 0.0
C378 C 0.29778 0.53562 0.7942 0.0
C379 C 0.31158 0.55755 0.77125 0.0
C380 C 0.271 0.5343 0.78374 0.0
C381 C 0.25767 0.55496 0.75069 0.0
C382 C 0.27172 0.57633 0.72526 0.0
C383 C 0.29826 0.5776 0.73533 0.0
H384 H 0.88624 0.17692 0.29036 0.0
H385 H 0.96158 0.17675 0.18714 0.0
H386 H 0.88899 0.22307 0.30818 0.0
H387 H 0.96424 0.22365 0.20517 0.0
H388 H 0.96167 0.30619 0.32944 0.0
H389 H 0.96451 0.25929 0.31179 0.0
H390 H 0.88847 0.25916 0.21409 0.0
H391 H 0.88556 0.30532 0.23155 0.0
C392 C 0.90349 0.18672 0.2716 0.0
C393 C 0.92357 0.17316 0.23645 0.0
C394 C 0.90501 0.21324 0.28174 0.0
C395 C 0.92667 0.22703 0.25717 0.0
C396 C 0.94732 0.21347 0.22466 0.0
C397 C 0.94574 0.18671 0.21409 0.0
C398 C 0.94569 0.29608 0.30377 0.0
C399 C 0.92328 0.30943 0.28271 0.0
C400 C 0.94736 0.26932 0.29341 0.0
C401 C 0.92657 0.25556 0.26246 0.0
C402 C 0.90462 0.26915 0.23932 0.0
C403 C 0.90301 0.29567 0.24921 0.0
H404 H 0.3081 0.916 0.85128 0.0
H405 H 0.30317 0.95788 0.6418 0.0
H406 H 0.2617 0.92097 0.8697 0.0
H407 H 0.25632 0.96195 0.65898 0.0
H408 H 0.17661 0.90997 0.69116 0.0
H409 H 0.22268 0.91738 0.67223 0.0
H410 H 0.2251 0.96322 0.875 0.0
H411 H 0.17858 0.95663 0.89262 0.0
C412 C 0.29709 0.92659 0.80976 0.0
C413 C 0.30909 0.93658 0.74515 0.0
C414 C 0.27063 0.92951 0.82051 0.0
C415 C 0.25561 0.94189 0.76586 0.0
C416 C 0.26765 0.9525 0.70205 0.0
C417 C 0.29433 0.95022 0.69235 0.0
C418 C 0.18689 0.92201 0.73094 0.0
C419 C 0.17415 0.93268 0.79346 0.0
C420 C 0.21314 0.92637 0.7198 0.0
C421 C 0.22726 0.94094 0.77199 0.0
C422 C 0.21448 0.95208 0.83379 0.0
C423 C 0.18798 0.94832 0.84379 0.0
H424 H 0.45861 0.81065 0.69767 0.0
H425 H 0.38496 0.80043 0.80701 0.0
H426 H 0.46751 0.76456 0.71444 0.0
H427 H 0.39419 0.7553 0.82548 0.0
H428 H 0.42232 0.68101 0.9089 0.0
H429 H 0.42449 0.72776 0.90006 0.0
H430 H 0.44864 0.72168 0.66779 0.0
H431 H 0.44696 0.67476 0.67699 0.0
C432 C 0.4444 0.79871 0.72537 0.0
C433 C 0.4213 0.80948 0.75233 0.0
C434 C 0.44956 0.77238 0.7353 0.0
C435 C 0.43181 0.75645 0.77292 0.0
C436 C 0.40864 0.76718 0.79851 0.0
C437 C 0.40338 0.79319 0.78791 0.0
C438 C 0.429 0.68955 0.85677 0.0
C439 C 0.4342 0.67415 0.79342 0.0
C440 C 0.42997 0.71637 0.85143 0.0
C441 C 0.43627 0.72839 0.78278 0.0
C442 C 0.44369 0.713 0.72138 0.0
C443 C 0.4426 0.68614 0.72659 0.0
H444 H 0.79952 0.4271 0.39862 0.0
H445 H 0.81296 0.45033 0.16859 0.0
H446 H 0.75352 0.43379 0.38174 0.0
H447 H 0.767 0.45809 0.15192 0.0
H448 H 0.68521 0.42377 0.11938 0.0
H449 H 0.73106 0.43124 0.13591 0.0
H450 H 0.71697 0.45952 0.36163 0.0
H451 H 0.67109 0.45108 0.34541 0.0
C452 C 0.79269 0.43461 0.3453 0.0
C453 C 0.80976 0.43806 0.28483 0.0
C454 C 0.76625 0.43847 0.3354 0.0
C455 C 0.75631 0.44614 0.26493 0.0
C456 C 0.77378 0.45156 0.20635 0.0
C457 C 0.80015 0.44739 0.21604 0.0
C458 C 0.69185 0.43226 0.17168 0.0
C459 C 0.6746 0.43668 0.23122 0.0
C460 C 0.71822 0.4366 0.18136 0.0
C461 C 0.72796 0.44572 0.25063 0.0
C462 C 0.71035 0.45192 0.30819 0.0
C463 C 0.68402 0.4473 0.29875 0.0
H464 H 0.05899 0.79803 0.89652 0.0
H465 H 0.04285 0.81317 0.66237 0.0
H466 H 0.05123 0.75238 0.87596 0.0
H467 H 0.03362 0.76767 0.6418 0.0
H468 H 0.06324 0.68432 0.6115 0.0
H469 H 0.05762 0.73039 0.62857 0.0
H470 H 0.02555 0.71692 0.8503 0.0
H471 H 0.0326 0.67082 0.8339 0.0
C472 C 0.05282 0.79164 0.84123 0.0
C473 C 0.0516 0.80904 0.781 0.0
C474 C 0.04829 0.7654 0.82919 0.0
C475 C 0.04206 0.75601 0.75675 0.0
C476 C 0.03901 0.77391 0.69786 0.0
C477 C 0.044 0.80006 0.70969 0.0
C478 C 0.05432 0.69122 0.66293 0.0
C479 C 0.04842 0.67406 0.72141 0.0
C480 C 0.05103 0.71772 0.67296 0.0
C481 C 0.04142 0.72768 0.74146 0.0
C482 C 0.03365 0.71017 0.7976 0.0
C483 C 0.03736 0.68371 0.78798 0.0
H484 H 0.81359 0.0318 0.34971 0.0
H485 H 0.79986 0.0551 0.11994 0.0
H486 H 0.76769 0.02363 0.36667 0.0
H487 H 0.75393 0.04798 0.1371 0.0
H488 H 0.6717 0.02998 0.17377 0.0
H489 H 0.71762 0.02182 0.15738 0.0
H490 H 0.73158 0.05027 0.38297 0.0
H491 H 0.68569 0.05747 0.39966 0.0
C492 C 0.80074 0.03468 0.30238 0.0
C493 C 0.81024 0.04414 0.23359 0.0
C494 C 0.7744 0.03025 0.31223 0.0
C495 C 0.75688 0.03556 0.2538 0.0
C496 C 0.76671 0.04337 0.18332 0.0
C497 C 0.79311 0.04749 0.17326 0.0
C498 C 0.68461 0.03385 0.22038 0.0
C499 C 0.67515 0.04445 0.28789 0.0
C500 C 0.71096 0.02939 0.21084 0.0
C501 C 0.72853 0.03573 0.2683 0.0
C502 C 0.71876 0.04481 0.33759 0.0
C503 C 0.69237 0.04899 0.34736 0.0
H504 H 0.60437 0.14526 0.65522 0.0
H505 H 0.55214 0.08269 0.60739 0.0
H506 H 0.59464 0.14143 0.78926 0.0
H507 H 0.54246 0.07883 0.74121 0.0
H508 H 0.51434 0.09376 0.98167 0.0
H509 H 0.52181 0.1005 0.84719 0.0
H510 H 0.60287 0.11127 0.89063 0.0
H511 H 0.59544 0.10455 0.02441 0.0
C512 C 0.59089 0.13064 0.67327 0.0
C513 C 0.5791 0.11426 0.62045 0.0
C514 C 0.5853 0.12844 0.75011 0.0
C515 C 0.56782 0.10977 0.77604 0.0
C516 C 0.55572 0.09367 0.72311 0.0
C517 C 0.56129 0.09589 0.64626 0.0
C518 C 0.53374 0.0975 0.96249 0.0
C519 C 0.55425 0.0987 0.01404 0.0
C520 C 0.53803 0.10136 0.8854 0.0
C521 C 0.56293 0.10649 0.85813 0.0
C522 C 0.58338 0.10785 0.90979 0.0
C523 C 0.5791 0.10399 0.98667 0.0
H524 H 0.35015 0.57261 0.52352 0.0
H525 H 0.41768 0.52742 0.47128 0.0
H526 H 0.34358 0.58059 0.38984 0.0
H527 H 0.41064 0.53503 0.33736 0.0
H528 H 0.36252 0.61532 0.15579 0.0
H529 H 0.3665 0.60514 0.28888 0.0
H530 H 0.37935 0.52533 0.23353 0.0
H531 H 0.37481 0.53521 0.10019 0.0
C532 C 0.36368 0.5644 0.48393 0.0
C533 C 0.38464 0.54952 0.50887 0.0
C534 C 0.35982 0.56895 0.40708 0.0
C535 C 0.37666 0.55856 0.35309 0.0
C536 C 0.39718 0.5431 0.37759 0.0
C537 C 0.40117 0.5387 0.45452 0.0
C538 C 0.3658 0.59551 0.17144 0.0
C539 C 0.36838 0.57617 0.11626 0.0
C540 C 0.36812 0.5897 0.24809 0.0
C541 C 0.37328 0.56444 0.2717 0.0
C542 C 0.37569 0.54504 0.21699 0.0
C543 C 0.37314 0.55079 0.14031 0.0
H544 H 0.88861 0.38087 0.02519 0.0
H545 H 0.97042 0.3841 0.98282 0.0
H546 H 0.88073 0.3747 0.89142 0.0
H547 H 0.96245 0.37803 0.84826 0.0
H548 H 0.93359 0.39788 0.60796 0.0
H549 H 0.94353 0.4014 0.74169 0.0
H550 H 0.88667 0.34319 0.79101 0.0
H551 H 0.87675 0.33961 0.65707 0.0
C552 C 0.90498 0.3799 0.98756 0.0
C553 C 0.93019 0.38284 0.01512 0.0
C554 C 0.90043 0.37638 0.91067 0.0
C555 C 0.92095 0.37576 0.85912 0.0
C556 C 0.94619 0.37869 0.88645 0.0
C557 C 0.95076 0.38218 0.96359 0.0
C558 C 0.92345 0.38555 0.64704 0.0
C559 C 0.9043 0.36848 0.62156 0.0
C560 C 0.92917 0.38758 0.72385 0.0
C561 C 0.91585 0.37264 0.7771 0.0
C562 C 0.89699 0.35528 0.75156 0.0
C563 C 0.89129 0.35324 0.67476 0.0
H564 H 0.08695 0.93523 0.11598 0.0
H565 H 0.14366 0.8772 0.16861 0.0
H566 H 0.08221 0.94478 0.24959 0.0
H567 H 0.13861 0.88662 0.30242 0.0
H568 H 0.09883 0.88919 0.53368 0.0
H569 H 0.10516 0.88125 0.39991 0.0
H570 H 0.10605 0.96305 0.35838 0.0
H571 H 0.10006 0.97112 0.49289 0.0
C572 C 0.09866 0.92469 0.1557 0.0
C573 C 0.1157 0.90537 0.13103 0.0
C574 C 0.09589 0.93018 0.2325 0.0
C575 C 0.10997 0.91641 0.28667 0.0
C576 C 0.12719 0.89731 0.26214 0.0
C577 C 0.13006 0.89189 0.18532 0.0
C578 C 0.10071 0.90556 0.49647 0.0
C579 C 0.09912 0.93084 0.5246 0.0
C580 C 0.10432 0.90096 0.41958 0.0
C581 C 0.10627 0.9215 0.36853 0.0
C582 C 0.1044 0.9468 0.39623 0.0
C583 C 0.10092 0.95142 0.4734 0.0
H584 H 0.59493 0.37628 0.49466 0.0
H585 H 0.51379 0.38669 0.53761 0.0
H586 H 0.60237 0.36959 0.62841 0.0
H587 H 0.52126 0.37998 0.67207 0.0
H588 H 0.55155 0.398 0.91175 0.0
H589 H 0.54183 0.40177 0.77797 0.0
H590 H 0.59424 0.3394 0.72983 0.0
H591 H 0.604 0.33567 0.86383 0.0
C592 C 0.57858 0.37675 0.53244 0.0
C593 C 0.55372 0.38194 0.50514 0.0
C594 C 0.58287 0.37292 0.60931 0.0
C595 C 0.56241 0.37418 0.66102 0.0
C596 C 0.5375 0.3792 0.63382 0.0
C597 C 0.5332 0.38304 0.55674 0.0
C598 C 0.56074 0.38483 0.87287 0.0
C599 C 0.57863 0.36656 0.89864 0.0
C600 C 0.55515 0.387 0.79605 0.0
C601 C 0.56731 0.37094 0.7431 0.0
C602 C 0.58485 0.35236 0.76899 0.0
C603 C 0.59047 0.35022 0.84581 0.0
H604 H 0.09935 0.5126 0.02662 0.0
H605 H 0.10526 0.59423 0.98454 0.0
H606 H 0.10569 0.52039 0.16116 0.0
H607 H 0.11167 0.60194 0.11831 0.0
H608 H 0.14644 0.60499 0.35289 0.0
H609 H 0.14276 0.59514 0.21888 0.0
H610 H 0.0829 0.53995 0.26774 0.0
H611 H 0.08656 0.5498 0.40152 0.0
C612 C 0.10193 0.53218 0.04591 0.0
C613 C 0.10191 0.55276 0.99448 0.0
C614 C 0.10557 0.53665 0.12305 0.0
C615 C 0.10929 0.56178 0.15048 0.0
C616 C 0.10936 0.5823 0.099 0.0
C617 C 0.1057 0.57785 0.0221 0.0
C618 C 0.13244 0.59083 0.33507 0.0
C619 C 0.11678 0.57826 0.38813 0.0
C620 C 0.13033 0.58517 0.25823 0.0
C621 C 0.11248 0.56681 0.23254 0.0
C622 C 0.09711 0.55392 0.28568 0.0
C623 C 0.09922 0.55959 0.36252 0.0
H624 H 0.95733 0.07021 0.53953 0.0
H625 H 0.90595 0.13324 0.48924 0.0
H626 H 0.94912 0.07621 0.67381 0.0
H627 H 0.89747 0.13881 0.62308 0.0
H628 H 0.86459 0.11724 0.85653 0.0
H629 H 0.87515 0.11399 0.72345 0.0
H630 H 0.95573 0.10763 0.77877 0.0
H631 H 0.9454 0.11138 0.91214 0.0
C632 C 0.94454 0.08552 0.55686 0.0
C633 C 0.93217 0.10104 0.50298 0.0
C634 C 0.93981 0.08893 0.63395 0.0
C635 C 0.92248 0.10785 0.65902 0.0
C636 C 0.91056 0.12375 0.60545 0.0
C637 C 0.91541 0.12047 0.5285 0.0
C638 C 0.88462 0.11552 0.84086 0.0
C639 C 0.90406 0.11458 0.89604 0.0
C640 C 0.89066 0.11362 0.76421 0.0
C641 C 0.91627 0.11054 0.74054 0.0
C642 C 0.93576 0.10968 0.7953 0.0
C643 C 0.92977 0.11179 0.872 0.0
H644 H 0.36912 0.87046 0.37036 0.0
H645 H 0.3621 0.95143 0.42004 0.0
H646 H 0.37397 0.88024 0.23705 0.0
H647 H 0.3664 0.96135 0.28612 0.0
H648 H 0.40288 0.9703 0.05128 0.0
H649 H 0.39664 0.96185 0.18481 0.0
H650 H 0.35129 0.89475 0.12998 0.0
H651 H 0.35876 0.90212 0.99743 0.0
C652 C 0.36823 0.89035 0.35263 0.0
C653 C 0.36518 0.91015 0.40586 0.0
C654 C 0.37097 0.89601 0.27602 0.0
C655 C 0.37048 0.92162 0.25041 0.0
C656 C 0.36726 0.94144 0.30373 0.0
C657 C 0.36473 0.93576 0.38054 0.0
C658 C 0.3917 0.95365 0.06735 0.0
C659 C 0.38152 0.9369 0.01244 0.0
C660 C 0.38785 0.94896 0.14432 0.0
C661 C 0.37358 0.92749 0.16853 0.0
C662 C 0.3628 0.9112 0.11371 0.0
C663 C 0.36681 0.91573 0.037 0.0
loop_
_geom_bond_atom_site_label_1
_geom_bond_atom_site_label_2
_geom_bond_distance
_geom_bond_site_symmetry_2
_ccdc_geom_bond_type
Co0 N4 2.148 . S
Co0 N10 2.128 . S
Co0 N20 2.194 . S
Co0 O25 2.351 . S
Co0 O26 2.155 . S
Co0 O27 2.096 . S
C1 N4 1.301 . S
C1 N5 1.328 . S
C1 H6 0.930 . S
C2 C3 1.333 . S
C2 N4 1.317 . S
C2 H7 0.930 . S
C3 C2 1.333 . S
C3 N5 1.350 . S
C3 H29 0.931 . S
N4 Co0 2.148 . S
N4 C1 1.301 . S
N4 C2 1.317 . S
N5 C1 1.328 . S
N5 C3 1.350 . S
H6 C1 0.930 . S
H7 C2 0.930 . S
C8 O9 1.224 . S
C8 O27 1.247 . S
O9 C8 1.224 . S
N10 Co0 2.128 . S
N10 C11 1.355 . S
N10 C13 1.311 . S
C11 N10 1.355 . S
C11 C12 1.363 . S
C11 H23 0.929 . S
C12 C11 1.363 . S
C12 N14 1.375 . S
C12 H30 0.931 . S
C13 N10 1.311 . S
C13 N14 1.347 . S
C13 H24 0.929 . S
N14 C12 1.375 . S
N14 C13 1.347 . S
C15 C18 1.365 . S
C15 N20 1.328 . S
C15 H21 0.929 . S
C16 C17 1.362 . S
C16 C19 1.378 . S
C16 H31 0.929 . S
C17 C16 1.362 . S
C17 C18 1.366 . S
C18 C15 1.365 . S
C18 C17 1.366 . S
C18 H32 0.930 . S
C19 C16 1.378 . S
C19 N20 1.315 . S
C19 H22 0.930 . S
N20 Co0 2.194 . S
N20 C15 1.328 . S
N20 C19 1.315 . S
H21 C15 0.929 . S
H22 C19 0.930 . S
H23 C11 0.929 . S
H24 C13 0.929 . S
O25 Co0 2.351 . S
O25 C28 1.244 . S
O26 Co0 2.155 . S
O26 C28 1.240 . S
O27 Co0 2.096 . S
O27 C8 1.247 . S
C28 O25 1.244 . S
C28 O26 1.240 . S
H29 C3 0.931 . S
H30 C12 0.931 . S
H31 C16 0.929 . S
H32 C18 0.930 . S
Co33 N37 2.148 . S
Co33 N43 2.128 . S
Co33 N53 2.194 . S
Co33 O58 2.351 . S
Co33 O59 2.155 . S
Co33 O60 2.096 . S
C34 N37 1.301 . S
C34 N38 1.328 . S
C34 H39 0.930 . S
C35 C36 1.333 . S
C35 N37 1.317 . S
C35 H40 0.930 . S
C36 C35 1.333 . S
C36 N38 1.350 . S
C36 H62 0.931 . S
N37 Co33 2.148 . S
N37 C34 1.301 . S
N37 C35 1.317 . S
N38 C34 1.328 . S
N38 C36 1.350 . S
H39 C34 0.930 . S
H40 C35 0.930 . S
C41 O42 1.224 . S
C41 O60 1.247 . S
O42 C41 1.224 . S
N43 Co33 2.128 . S
N43 C44 1.355 . S
N43 C46 1.311 . S
C44 N43 1.355 . S
C44 C45 1.363 1_556 S
C44 H56 0.929 . S
C45 C44 1.363 1_554 S
C45 N47 1.375 . S
C45 H63 0.931 . S
C46 N43 1.311 . S
C46 N47 1.347 1_556 S
C46 H57 0.929 . S
N47 C45 1.375 . S
N47 C46 1.347 1_554 S
C48 C51 1.365 . S
C48 N53 1.328 . S
C48 H54 0.929 . S
C49 C50 1.362 . S
C49 C52 1.378 . S
C49 H64 0.929 . S
C50 C49 1.362 . S
C50 C51 1.366 . S
C51 C48 1.365 . S
C51 C50 1.366 . S
C51 H65 0.930 . S
C52 C49 1.378 . S
C52 N53 1.315 . S
C52 H55 0.930 . S
N53 Co33 2.194 . S
N53 C48 1.328 . S
N53 C52 1.315 . S
H54 C48 0.929 . S
H55 C52 0.930 . S
H56 C44 0.929 . S
H57 C46 0.929 . S
O58 Co33 2.351 . S
O58 C61 1.244 . S
O59 Co33 2.155 . S
O59 C61 1.240 . S
O60 Co33 2.096 . S
O60 C41 1.247 . S
C61 O58 1.244 . S
C61 O59 1.240 . S
H62 C36 0.931 . S
H63 C45 0.931 . S
H64 C49 0.929 . S
H65 C51 0.930 . S
Co66 N70 2.148 . S
Co66 N76 2.128 . S
Co66 N86 2.194 . S
Co66 O91 2.351 . S
Co66 O92 2.155 . S
Co66 O93 2.096 . S
C67 N70 1.301 . S
C67 N71 1.328 . S
C67 H72 0.930 . S
C68 C69 1.333 . S
C68 N70 1.317 . S
C68 H73 0.930 . S
C69 C68 1.333 . S
C69 N71 1.350 . S
C69 H95 0.931 . S
N70 Co66 2.148 . S
N70 C67 1.301 . S
N70 C68 1.317 . S
N71 C67 1.328 . S
N71 C69 1.350 . S
H72 C67 0.930 . S
H73 C68 0.930 . S
C74 O75 1.224 . S
C74 O93 1.247 . S
O75 C74 1.224 . S
N76 Co66 2.128 . S
N76 C77 1.355 . S
N76 C79 1.311 . S
C77 N76 1.355 . S
C77 C78 1.363 . S
C77 H89 0.929 . S
C78 C77 1.363 . S
C78 N80 1.375 . S
C78 H96 0.931 . S
C79 N76 1.311 . S
C79 N80 1.347 . S
C79 H90 0.929 . S
N80 C78 1.375 . S
N80 C79 1.347 . S
C81 C84 1.365 . S
C81 N86 1.328 . S
C81 H87 0.929 . S
C82 C83 1.362 . S
C82 C85 1.378 . S
C82 H97 0.929 . S
C83 C82 1.362 . S
C83 C84 1.366 . S
C84 C81 1.365 . S
C84 C83 1.366 . S
C84 H98 0.930 . S
C85 C82 1.378 . S
C85 N86 1.315 . S
C85 H88 0.930 . S
N86 Co66 2.194 . S
N86 C81 1.328 . S
N86 C85 1.315 . S
H87 C81 0.929 . S
H88 C85 0.930 . S
H89 C77 0.929 . S
H90 C79 0.929 . S
O91 Co66 2.351 . S
O91 C94 1.244 . S
O92 Co66 2.155 . S
O92 C94 1.240 . S
O93 Co66 2.096 . S
O93 C74 1.247 . S
C94 O91 1.244 . S
C94 O92 1.240 . S
H95 C69 0.931 . S
H96 C78 0.931 . S
H97 C82 0.929 . S
H98 C84 0.930 . S
Co99 N103 2.148 . S
Co99 N109 2.128 . S
Co99 N119 2.194 . S
Co99 O124 2.351 . S
Co99 O125 2.155 . S
Co99 O126 2.096 . S
C100 N103 1.301 . S
C100 N104 1.328 . S
C100 H105 0.930 . S
C101 C102 1.333 . S
C101 N103 1.317 . S
C101 H106 0.930 . S
C102 C101 1.333 . S
C102 N104 1.350 . S
C102 H128 0.931 . S
N103 Co99 2.148 . S
N103 C100 1.301 . S
N103 C101 1.317 . S
N104 C100 1.328 . S
N104 C102 1.350 . S
H105 C100 0.930 . S
H106 C101 0.930 . S
C107 O108 1.224 . S
C107 O126 1.247 . S
O108 C107 1.224 . S
N109 Co99 2.128 . S
N109 C110 1.355 . S
N109 C112 1.311 . S
C110 N109 1.355 . S
C110 C111 1.363 1_556 S
C110 H122 0.929 . S
C111 C110 1.363 1_554 S
C111 N113 1.375 . S
C111 H129 0.931 . S
C112 N109 1.311 . S
C112 N113 1.347 1_556 S
C112 H123 0.929 . S
N113 C111 1.375 . S
N113 C112 1.347 1_554 S
C114 C117 1.365 . S
C114 N119 1.328 . S
C114 H120 0.929 . S
C115 C116 1.362 . S
C115 C118 1.378 . S
C115 H130 0.929 . S
C116 C115 1.362 . S
C116 C117 1.366 . S
C117 C114 1.365 . S
C117 C116 1.366 . S
C117 H131 0.930 . S
C118 C115 1.378 . S
C118 N119 1.315 . S
C118 H121 0.930 . S
N119 Co99 2.194 . S
N119 C114 1.328 . S
N119 C118 1.315 . S
H120 C114 0.929 . S
H121 C118 0.930 . S
H122 C110 0.929 . S
H123 C112 0.929 . S
O124 Co99 2.351 . S
O124 C127 1.244 . S
O125 Co99 2.155 . S
O125 C127 1.240 . S
O126 Co99 2.096 . S
O126 C107 1.247 . S
C127 O124 1.244 . S
C127 O125 1.240 . S
H128 C102 0.931 . S
H129 C111 0.931 . S
H130 C115 0.929 . S
H131 C117 0.930 . S
Co132 N136 2.148 . S
Co132 N142 2.128 . S
Co132 N152 2.194 . S
Co132 O157 2.351 . S
Co132 O158 2.155 . S
Co132 O159 2.096 . S
C133 N136 1.301 . S
C133 N137 1.328 . S
C133 H138 0.930 . S
C134 C135 1.333 . S
C134 N136 1.317 . S
C134 H139 0.930 . S
C135 C134 1.333 . S
C135 N137 1.350 . S
C135 H161 0.931 . S
N136 Co132 2.148 . S
N136 C133 1.301 . S
N136 C134 1.317 . S
N137 C133 1.328 . S
N137 C135 1.350 . S
H138 C133 0.930 . S
H139 C134 0.930 . S
C140 O141 1.224 . S
C140 O159 1.247 . S
O141 C140 1.224 . S
N142 Co132 2.128 . S
N142 C143 1.355 . S
N142 C145 1.311 . S
C143 N142 1.355 . S
C143 C144 1.363 1_554 S
C143 H155 0.929 . S
C144 C143 1.363 1_556 S
C144 N146 1.375 . S
C144 H162 0.931 . S
C145 N142 1.311 . S
C145 N146 1.347 1_554 S
C145 H156 0.929 . S
N146 C144 1.375 . S
N146 C145 1.347 1_556 S
C147 C150 1.365 . S
C147 N152 1.328 . S
C147 H153 0.929 . S
C148 C149 1.362 . S
C148 C151 1.378 . S
C148 H163 0.929 . S
C149 C148 1.362 . S
C149 C150 1.366 . S
C150 C147 1.365 . S
C150 C149 1.366 . S
C150 H164 0.930 . S
C151 C148 1.378 . S
C151 N152 1.315 . S
C151 H154 0.930 . S
N152 Co132 2.194 . S
N152 C147 1.328 . S
N152 C151 1.315 . S
H153 C147 0.929 . S
H154 C151 0.930 . S
H155 C143 0.929 . S
H156 C145 0.929 . S
O157 Co132 2.351 . S
O157 C160 1.244 . S
O158 Co132 2.155 . S
O158 C160 1.240 . S
O159 Co132 2.096 . S
O159 C140 1.247 . S
C160 O157 1.244 . S
C160 O158 1.240 . S
H161 C135 0.931 . S
H162 C144 0.931 . S
H163 C148 0.929 . S
H164 C150 0.930 . S
Co165 N169 2.148 . S
Co165 N175 2.128 . S
Co165 N185 2.194 . S
Co165 O190 2.351 . S
Co165 O191 2.155 . S
Co165 O192 2.096 . S
C166 N169 1.301 . S
C166 N170 1.328 . S
C166 H171 0.930 . S
C167 C168 1.333 . S
C167 N169 1.317 . S
C167 H172 0.930 . S
C168 C167 1.333 . S
C168 N170 1.350 . S
C168 H194 0.931 . S
N169 Co165 2.148 . S
N169 C166 1.301 . S
N169 C167 1.317 . S
N170 C166 1.328 . S
N170 C168 1.350 . S
H171 C166 0.930 . S
H172 C167 0.930 . S
C173 O174 1.224 . S
C173 O192 1.247 . S
O174 C173 1.224 . S
N175 Co165 2.128 . S
N175 C176 1.355 . S
N175 C178 1.311 . S
C176 N175 1.355 . S
C176 C177 1.363 . S
C176 H188 0.929 . S
C177 C176 1.363 . S
C177 N179 1.375 . S
C177 H195 0.931 . S
C178 N175 1.311 . S
C178 N179 1.347 . S
C178 H189 0.929 . S
N179 C177 1.375 . S
N179 C178 1.347 . S
C180 C183 1.365 . S
C180 N185 1.328 . S
C180 H186 0.929 . S
C181 C182 1.362 . S
C181 C184 1.378 . S
C181 H196 0.929 . S
C182 C181 1.362 . S
C182 C183 1.366 . S
C183 C180 1.365 . S
C183 C182 1.366 . S
C183 H197 0.930 . S
C184 C181 1.378 . S
C184 N185 1.315 . S
C184 H187 0.930 . S
N185 Co165 2.194 . S
N185 C180 1.328 . S
N185 C184 1.315 . S
H186 C180 0.929 . S
H187 C184 0.930 . S
H188 C176 0.929 . S
H189 C178 0.929 . S
O190 Co165 2.351 . S
O190 C193 1.244 . S
O191 Co165 2.155 . S
O191 C193 1.240 . S
O192 Co165 2.096 . S
O192 C173 1.247 . S
C193 O190 1.244 . S
C193 O191 1.240 . S
H194 C168 0.931 . S
H195 C177 0.931 . S
H196 C181 0.929 . S
H197 C183 0.930 . S
Co198 N202 2.148 . S
Co198 N208 2.128 . S
Co198 N218 2.194 . S
Co198 O223 2.351 . S
Co198 O224 2.155 . S
Co198 O225 2.096 . S
C199 N202 1.301 . S
C199 N203 1.328 . S
C199 H204 0.930 . S
C200 C201 1.333 . S
C200 N202 1.317 . S
C200 H205 0.930 . S
C201 C200 1.333 . S
C201 N203 1.350 . S
C201 H227 0.931 . S
N202 Co198 2.148 . S
N202 C199 1.301 . S
N202 C200 1.317 . S
N203 C199 1.328 . S
N203 C201 1.350 . S
H204 C199 0.930 . S
H205 C200 0.930 . S
C206 O207 1.224 . S
C206 O225 1.247 . S
O207 C206 1.224 . S
N208 Co198 2.128 . S
N208 C209 1.355 . S
N208 C211 1.311 . S
C209 N208 1.355 . S
C209 C210 1.363 1_554 S
C209 H221 0.929 . S
C210 C209 1.363 1_556 S
C210 N212 1.375 . S
C210 H228 0.931 . S
C211 N208 1.311 . S
C211 N212 1.347 1_554 S
C211 H222 0.929 . S
N212 C210 1.375 . S
N212 C211 1.347 1_556 S
C213 C216 1.365 . S
C213 N218 1.328 . S
C213 H219 0.929 . S
C214 C215 1.362 . S
C214 C217 1.378 . S
C214 H229 0.929 . S
C215 C214 1.362 . S
C215 C216 1.366 . S
C216 C213 1.365 . S
C216 C215 1.366 . S
C216 H230 0.930 . S
C217 C214 1.378 . S
C217 N218 1.315 . S
C217 H220 0.930 . S
N218 Co198 2.194 . S
N218 C213 1.328 . S
N218 C217 1.315 . S
H219 C213 0.929 . S
H220 C217 0.930 . S
H221 C209 0.929 . S
H222 C211 0.929 . S
O223 Co198 2.351 . S
O223 C226 1.244 . S
O224 Co198 2.155 . S
O224 C226 1.240 . S
O225 Co198 2.096 . S
O225 C206 1.247 . S
C226 O223 1.244 . S
C226 O224 1.240 . S
H227 C201 0.931 . S
H228 C210 0.931 . S
H229 C214 0.929 . S
H230 C216 0.930 . S
Co231 N235 2.148 . S
Co231 N241 2.128 . S
Co231 N251 2.194 . S
Co231 O256 2.351 . S
Co231 O257 2.155 . S
Co231 O258 2.096 . S
C232 N235 1.301 . S
C232 N236 1.328 . S
C232 H237 0.930 . S
C233 C234 1.333 . S
C233 N235 1.317 . S
C233 H238 0.930 . S
C234 C233 1.333 . S
C234 N236 1.350 . S
C234 H260 0.931 . S
N235 Co231 2.148 . S
N235 C232 1.301 . S
N235 C233 1.317 . S
N236 C232 1.328 . S
N236 C234 1.350 . S
H237 C232 0.930 . S
H238 C233 0.930 . S
C239 O240 1.224 . S
C239 O258 1.247 . S
O240 C239 1.224 . S
N241 Co231 2.128 . S
N241 C242 1.355 . S
N241 C244 1.311 . S
C242 N241 1.355 . S
C242 C243 1.363 . S
C242 H254 0.929 . S
C243 C242 1.363 . S
C243 N245 1.375 . S
C243 H261 0.931 . S
C244 N241 1.311 . S
C244 N245 1.347 . S
C244 H255 0.929 . S
N245 C243 1.375 . S
N245 C244 1.347 . S
C246 C249 1.365 . S
C246 N251 1.328 . S
C246 H252 0.929 . S
C247 C248 1.362 . S
C247 C250 1.378 . S
C247 H262 0.929 . S
C248 C247 1.362 . S
C248 C249 1.366 . S
C249 C246 1.365 . S
C249 C248 1.366 . S
C249 H263 0.930 . S
C250 C247 1.378 . S
C250 N251 1.315 . S
C250 H253 0.930 . S
N251 Co231 2.194 . S
N251 C246 1.328 . S
N251 C250 1.315 . S
H252 C246 0.929 . S
H253 C250 0.930 . S
H254 C242 0.929 . S
H255 C244 0.929 . S
O256 Co231 2.351 . S
O256 C259 1.244 . S
O257 Co231 2.155 . S
O257 C259 1.240 . S
O258 Co231 2.096 . S
O258 C239 1.247 . S
C259 O256 1.244 . S
C259 O257 1.240 . S
H260 C234 0.931 . S
H261 C243 0.931 . S
H262 C247 0.929 . S
H263 C249 0.930 . S
H264 C272 0.950 . S
H265 C277 0.950 . S
H266 C274 0.950 . S
H267 C276 0.950 . S
H268 C278 0.950 . S
H269 C280 0.950 . S
H270 C282 0.950 . S
H271 C283 0.950 . S
C272 H264 0.950 . S
C272 C273 1.386 . S
C272 C274 1.391 . S
C273 C272 1.386 . S
C273 C277 1.393 . S
C274 H266 0.950 . S
C274 C272 1.391 . S
C274 C275 1.400 . S
C275 C274 1.400 . S
C275 C276 1.398 1_565 S
C275 C281 1.491 1_565 S
C276 H267 0.950 . S
C276 C275 1.398 1_545 S
C276 C277 1.391 1_545 S
C277 H265 0.950 . S
C277 C273 1.393 . S
C277 C276 1.391 1_565 S
C278 H268 0.950 . S
C278 C279 1.386 . S
C278 C280 1.391 . S
C279 C278 1.386 . S
C279 C283 1.393 . S
C280 H269 0.950 . S
C280 C278 1.391 . S
C280 C281 1.400 . S
C281 C275 1.491 1_545 S
C281 C280 1.400 . S
C281 C282 1.398 1_545 S
C282 H270 0.950 . S
C282 C281 1.398 1_565 S
C282 C283 1.391 1_565 S
C283 H271 0.950 . S
C283 C279 1.393 . S
C283 C282 1.391 1_545 S
H284 C292 0.950 . S
H285 C297 0.950 . S
H286 C294 0.950 . S
H287 C296 0.950 . S
H288 C298 0.950 . S
H289 C300 0.950 . S
H290 C302 0.950 . S
H291 C303 0.950 . S
C292 H284 0.950 . S
C292 C293 1.386 . S
C292 C294 1.391 . S
C293 C292 1.386 . S
C293 C297 1.393 . S
C294 H286 0.950 . S
C294 C292 1.391 . S
C294 C295 1.400 . S
C295 C294 1.400 . S
C295 C296 1.398 . S
C295 C301 1.491 1_554 S
C296 H287 0.950 . S
C296 C295 1.398 . S
C296 C297 1.391 . S
C297 H285 0.950 . S
C297 C293 1.393 . S
C297 C296 1.391 . S
C298 H288 0.950 . S
C298 C299 1.386 . S
C298 C300 1.391 . S
C299 C298 1.386 . S
C299 C303 1.393 . S
C300 H289 0.950 . S
C300 C298 1.391 . S
C300 C301 1.400 . S
C301 C295 1.491 1_556 S
C301 C300 1.400 . S
C301 C302 1.398 . S
C302 H290 0.950 . S
C302 C301 1.398 . S
C302 C303 1.391 . S
C303 H291 0.950 . S
C303 C299 1.393 . S
C303 C302 1.391 . S
H304 C312 0.950 . S
H305 C317 0.950 . S
H306 C314 0.950 . S
H307 C316 0.950 . S
H308 C318 0.950 . S
H309 C320 0.950 . S
H310 C322 0.950 . S
H311 C323 0.950 . S
C312 H304 0.950 . S
C312 C313 1.386 . S
C312 C314 1.391 1_655 S
C313 C312 1.386 . S
C313 C317 1.393 . S
C314 H306 0.950 . S
C314 C312 1.391 1_455 S
C314 C315 1.400 1_455 S
C315 C314 1.400 1_655 S
C315 C316 1.398 . S
C315 C321 1.491 1_655 S
C316 H307 0.950 . S
C316 C315 1.398 . S
C316 C317 1.391 . S
C317 H305 0.950 . S
C317 C313 1.393 . S
C317 C316 1.391 . S
C318 H308 0.950 . S
C318 C319 1.386 . S
C318 C320 1.391 1_455 S
C319 C318 1.386 . S
C319 C323 1.393 . S
C320 H309 0.950 . S
C320 C318 1.391 1_655 S
C320 C321 1.400 1_655 S
C321 C315 1.491 1_455 S
C321 C320 1.400 1_455 S
C321 C322 1.398 . S
C322 H310 0.950 . S
C322 C321 1.398 . S
C322 C323 1.391 . S
C323 H311 0.950 . S
C323 C319 1.393 . S
C323 C322 1.391 . S
H324 C332 0.950 . S
H325 C337 0.950 . S
H326 C334 0.950 1_556 S
H327 C336 0.950 . S
H328 C338 0.950 . S
H329 C340 0.950 1_554 S
H330 C342 0.950 . S
H331 C343 0.950 . S
C332 H324 0.950 . S
C332 C333 1.386 . S
C332 C334 1.391 . S
C333 C332 1.386 . S
C333 C337 1.393 . S
C334 H326 0.950 1_554 S
C334 C332 1.391 . S
C334 C335 1.400 . S
C335 C334 1.400 . S
C335 C336 1.398 1_545 S
C335 C341 1.491 1_644 S
C336 H327 0.950 . S
C336 C335 1.398 1_565 S
C336 C337 1.391 1_565 S
C337 H325 0.950 . S
C337 C333 1.393 . S
C337 C336 1.391 1_545 S
C338 H328 0.950 . S
C338 C339 1.386 . S
C338 C340 1.391 . S
C339 C338 1.386 . S
C339 C343 1.393 . S
C340 H329 0.950 1_556 S
C340 C338 1.391 . S
C340 C341 1.400 . S
C341 C335 1.491 1_466 S
C341 C340 1.400 . S
C341 C342 1.398 1_565 S
C342 H330 0.950 . S
C342 C341 1.398 1_545 S
C342 C343 1.391 1_545 S
C343 H331 0.950 . S
C343 C339 1.393 . S
C343 C342 1.391 1_565 S
H344 C352 0.950 . S
H345 C357 0.950 . S
H346 C354 0.950 . S
H347 C356 0.950 . S
H348 C358 0.950 . S
H349 C360 0.950 . S
H350 C362 0.950 . S
H351 C363 0.950 . S
C352 H344 0.950 . S
C352 C353 1.386 . S
C352 C354 1.391 . S
C353 C352 1.386 . S
C353 C357 1.393 . S
C354 H346 0.950 . S
C354 C352 1.391 . S
C354 C355 1.400 . S
C355 C354 1.400 . S
C355 C356 1.398 . S
C355 C361 1.491 . S
C356 H347 0.950 . S
C356 C355 1.398 . S
C356 C357 1.391 . S
C357 H345 0.950 . S
C357 C353 1.393 . S
C357 C356 1.391 . S
C358 H348 0.950 . S
C358 C359 1.386 . S
C358 C360 1.391 . S
C359 C358 1.386 . S
C359 C363 1.393 . S
C360 H349 0.950 . S
C360 C358 1.391 . S
C360 C361 1.400 . S
C361 C355 1.491 . S
C361 C360 1.400 . S
C361 C362 1.398 . S
C362 H350 0.950 . S
C362 C361 1.398 . S
C362 C363 1.391 . S
C363 H351 0.950 . S
C363 C359 1.393 . S
C363 C362 1.391 . S
H364 C372 0.950 . S
H365 C377 0.950 . S
H366 C374 0.950 . S
H367 C376 0.950 . S
H368 C378 0.950 . S
H369 C380 0.950 . S
H370 C382 0.950 . S
H371 C383 0.950 . S
C372 H364 0.950 . S
C372 C373 1.386 . S
C372 C374 1.391 . S
C373 C372 1.386 . S
C373 C377 1.393 . S
C374 H366 0.950 . S
C374 C372 1.391 . S
C374 C375 1.400 . S
C375 C374 1.400 . S
C375 C376 1.398 . S
C375 C381 1.491 . S
C376 H367 0.950 . S
C376 C375 1.398 . S
C376 C377 1.391 . S
C377 H365 0.950 . S
C377 C373 1.393 . S
C377 C376 1.391 . S
C378 H368 0.950 . S
C378 C379 1.386 . S
C378 C380 1.391 . S
C379 C378 1.386 . S
C379 C383 1.393 . S
C380 H369 0.950 . S
C380 C378 1.391 . S
C380 C381 1.400 . S
C381 C375 1.491 . S
C381 C380 1.400 . S
C381 C382 1.398 . S
C382 H370 0.950 . S
C382 C381 1.398 . S
C382 C383 1.391 . S
C383 H371 0.950 . S
C383 C379 1.393 . S
C383 C382 1.391 . S
H384 C392 0.950 . S
H385 C397 0.950 . S
H386 C394 0.950 . S
H387 C396 0.950 . S
H388 C398 0.950 . S
H389 C400 0.950 . S
H390 C402 0.950 . S
H391 C403 0.950 . S
C392 H384 0.950 . S
C392 C393 1.386 . S
C392 C394 1.391 . S
C393 C392 1.386 . S
C393 C397 1.393 . S
C394 H386 0.950 . S
C394 C392 1.391 . S
C394 C395 1.400 . S
C395 C394 1.400 . S
C395 C396 1.398 . S
C395 C401 1.491 . S
C396 H387 0.950 . S
C396 C395 1.398 . S
C396 C397 1.391 . S
C397 H385 0.950 . S
C397 C393 1.393 . S
C397 C396 1.391 . S
C398 H388 0.950 . S
C398 C399 1.386 . S
C398 C400 1.391 . S
C399 C398 1.386 . S
C399 C403 1.393 . S
C400 H389 0.950 . S
C400 C398 1.391 . S
C400 C401 1.400 . S
C401 C395 1.491 . S
C401 C400 1.400 . S
C401 C402 1.398 . S
C402 H390 0.950 . S
C402 C401 1.398 . S
C402 C403 1.391 . S
C403 H391 0.950 . S
C403 C399 1.393 . S
C403 C402 1.391 . S
H404 C412 0.950 . S
H405 C417 0.950 . S
H406 C414 0.950 . S
H407 C416 0.950 . S
H408 C418 0.950 . S
H409 C420 0.950 . S
H410 C422 0.950 . S
H411 C423 0.950 . S
C412 H404 0.950 . S
C412 C413 1.386 . S
C412 C414 1.391 . S
C413 C412 1.386 . S
C413 C417 1.393 . S
C414 H406 0.950 . S
C414 C412 1.391 . S
C414 C415 1.400 . S
C415 C414 1.400 . S
C415 C416 1.398 . S
C415 C421 1.491 . S
C416 H407 0.950 . S
C416 C415 1.398 . S
C416 C417 1.391 . S
C417 H405 0.950 . S
C417 C413 1.393 . S
C417 C416 1.391 . S
C418 H408 0.950 . S
C418 C419 1.386 . S
C418 C420 1.391 . S
C419 C418 1.386 . S
C419 C423 1.393 . S
C420 H409 0.950 . S
C420 C418 1.391 . S
C420 C421 1.400 . S
C421 C415 1.491 . S
C421 C420 1.400 . S
C421 C422 1.398 . S
C422 H410 0.950 . S
C422 C421 1.398 . S
C422 C423 1.391 . S
C423 H411 0.950 . S
C423 C419 1.393 . S
C423 C422 1.391 . S
H424 C432 0.950 . S
H425 C437 0.950 . S
H426 C434 0.950 . S
H427 C436 0.950 . S
H428 C438 0.950 . S
H429 C440 0.950 . S
H430 C442 0.950 . S
H431 C443 0.950 . S
C432 H424 0.950 . S
C432 C433 1.386 . S
C432 C434 1.391 . S
C433 C432 1.386 . S
C433 C437 1.393 . S
C434 H426 0.950 . S
C434 C432 1.391 . S
C434 C435 1.400 . S
C435 C434 1.400 . S
C435 C436 1.398 . S
C435 C441 1.491 . S
C436 H427 0.950 . S
C436 C435 1.398 . S
C436 C437 1.391 . S
C437 H425 0.950 . S
C437 C433 1.393 . S
C437 C436 1.391 . S
C438 H428 0.950 . S
C438 C439 1.386 . S
C438 C440 1.391 . S
C439 C438 1.386 . S
C439 C443 1.393 . S
C440 H429 0.950 . S
C440 C438 1.391 . S
C440 C441 1.400 . S
C441 C435 1.491 . S
C441 C440 1.400 . S
C441 C442 1.398 . S
C442 H430 0.950 . S
C442 C441 1.398 . S
C442 C443 1.391 . S
C443 H431 0.950 . S
C443 C439 1.393 . S
C443 C442 1.391 . S
H444 C452 0.950 . S
H445 C457 0.950 . S
H446 C454 0.950 . S
H447 C456 0.950 . S
H448 C458 0.950 . S
H449 C460 0.950 . S
H450 C462 0.950 . S
H451 C463 0.950 . S
C452 H444 0.950 . S
C452 C453 1.386 . S
C452 C454 1.391 . S
C453 C452 1.386 . S
C453 C457 1.393 . S
C454 H446 0.950 . S
C454 C452 1.391 . S
C454 C455 1.400 . S
C455 C454 1.400 . S
C455 C456 1.398 . S
C455 C461 1.491 . S
C456 H447 0.950 . S
C456 C455 1.398 . S
C456 C457 1.391 . S
C457 H445 0.950 . S
C457 C453 1.393 . S
C457 C456 1.391 . S
C458 H448 0.950 . S
C458 C459 1.386 . S
C458 C460 1.391 . S
C459 C458 1.386 . S
C459 C463 1.393 . S
C460 H449 0.950 . S
C460 C458 1.391 . S
C460 C461 1.400 . S
C461 C455 1.491 . S
C461 C460 1.400 . S
C461 C462 1.398 . S
C462 H450 0.950 . S
C462 C461 1.398 . S
C462 C463 1.391 . S
C463 H451 0.950 . S
C463 C459 1.393 . S
C463 C462 1.391 . S
H464 C472 0.950 . S
H465 C477 0.950 . S
H466 C474 0.950 . S
H467 C476 0.950 . S
H468 C478 0.950 . S
H469 C480 0.950 . S
H470 C482 0.950 . S
H471 C483 0.950 . S
C472 H464 0.950 . S
C472 C473 1.386 . S
C472 C474 1.391 . S
C473 C472 1.386 . S
C473 C477 1.393 . S
C474 H466 0.950 . S
C474 C472 1.391 . S
C474 C475 1.400 . S
C475 C474 1.400 . S
C475 C476 1.398 . S
C475 C481 1.491 . S
C476 H467 0.950 . S
C476 C475 1.398 . S
C476 C477 1.391 . S
C477 H465 0.950 . S
C477 C473 1.393 . S
C477 C476 1.391 . S
C478 H468 0.950 . S
C478 C479 1.386 . S
C478 C480 1.391 . S
C479 C478 1.386 . S
C479 C483 1.393 . S
C480 H469 0.950 . S
C480 C478 1.391 . S
C480 C481 1.400 . S
C481 C475 1.491 . S
C481 C480 1.400 . S
C481 C482 1.398 . S
C482 H470 0.950 . S
C482 C481 1.398 . S
C482 C483 1.391 . S
C483 H471 0.950 . S
C483 C479 1.393 . S
C483 C482 1.391 . S
H484 C492 0.950 . S
H485 C497 0.950 . S
H486 C494 0.950 . S
H487 C496 0.950 . S
H488 C498 0.950 . S
H489 C500 0.950 . S
H490 C502 0.950 . S
H491 C503 0.950 . S
C492 H484 0.950 . S
C492 C493 1.386 . S
C492 C494 1.391 . S
C493 C492 1.386 . S
C493 C497 1.393 . S
C494 H486 0.950 . S
C494 C492 1.391 . S
C494 C495 1.400 . S
C495 C494 1.400 . S
C495 C496 1.398 . S
C495 C501 1.491 . S
C496 H487 0.950 . S
C496 C495 1.398 . S
C496 C497 1.391 . S
C497 H485 0.950 . S
C497 C493 1.393 . S
C497 C496 1.391 . S
C498 H488 0.950 . S
C498 C499 1.386 . S
C498 C500 1.391 . S
C499 C498 1.386 . S
C499 C503 1.393 . S
C500 H489 0.950 . S
C500 C498 1.391 . S
C500 C501 1.400 . S
C501 C495 1.491 . S
C501 C500 1.400 . S
C501 C502 1.398 . S
C502 H490 0.950 . S
C502 C501 1.398 . S
C502 C503 1.391 . S
C503 H491 0.950 . S
C503 C499 1.393 . S
C503 C502 1.391 . S
H504 C512 0.950 . S
H505 C517 0.950 . S
H506 C514 0.950 . S
H507 C516 0.950 . S
H508 C518 0.950 . S
H509 C520 0.950 . S
H510 C522 0.950 . S
H511 C523 0.950 . S
C512 H504 0.950 . S
C512 C513 1.386 . S
C512 C514 1.391 . S
C513 C512 1.386 . S
C513 C517 1.393 . S
C514 H506 0.950 . S
C514 C512 1.391 . S
C514 C515 1.400 . S
C515 C514 1.400 . S
C515 C516 1.398 . S
C515 C521 1.491 . S
C516 H507 0.950 . S
C516 C515 1.398 . S
C516 C517 1.391 . S
C517 H505 0.950 . S
C517 C513 1.393 . S
C517 C516 1.391 . S
C518 H508 0.950 . S
C518 C519 1.386 1_556 S
C518 C520 1.391 . S
C519 C518 1.386 1_554 S
C519 C523 1.393 1_554 S
C520 H509 0.950 . S
C520 C518 1.391 . S
C520 C521 1.400 . S
C521 C515 1.491 . S
C521 C520 1.400 . S
C521 C522 1.398 . S
C522 H510 0.950 . S
C522 C521 1.398 . S
C522 C523 1.391 . S
C523 H511 0.950 . S
C523 C519 1.393 1_556 S
C523 C522 1.391 . S
H524 C532 0.950 . S
H525 C537 0.950 . S
H526 C534 0.950 . S
H527 C536 0.950 . S
H528 C538 0.950 . S
H529 C540 0.950 . S
H530 C542 0.950 . S
H531 C543 0.950 . S
C532 H524 0.950 . S
C532 C533 1.386 . S
C532 C534 1.391 . S
C533 C532 1.386 . S
C533 C537 1.393 . S
C534 H526 0.950 . S
C534 C532 1.391 . S
C534 C535 1.400 . S
C535 C534 1.400 . S
C535 C536 1.398 . S
C535 C541 1.491 . S
C536 H527 0.950 . S
C536 C535 1.398 . S
C536 C537 1.391 . S
C537 H525 0.950 . S
C537 C533 1.393 . S
C537 C536 1.391 . S
C538 H528 0.950 . S
C538 C539 1.386 . S
C538 C540 1.391 . S
C539 C538 1.386 . S
C539 C543 1.393 . S
C540 H529 0.950 . S
C540 C538 1.391 . S
C540 C541 1.400 . S
C541 C535 1.491 . S
C541 C540 1.400 . S
C541 C542 1.398 . S
C542 H530 0.950 . S
C542 C541 1.398 . S
C542 C543 1.391 . S
C543 H531 0.950 . S
C543 C539 1.393 . S
C543 C542 1.391 . S
H544 C552 0.947 1_554 S
H545 C557 0.950 . S
H546 C554 0.950 . S
H547 C556 0.950 . S
H548 C558 0.950 . S
H549 C560 0.950 . S
H550 C562 0.950 . S
H551 C563 0.950 . S
C552 H544 0.947 1_556 S
C552 C553 1.386 1_556 S
C552 C554 1.391 . S
C553 C552 1.386 1_554 S
C553 C557 1.393 1_554 S
C554 H546 0.950 . S
C554 C552 1.391 . S
C554 C555 1.400 . S
C555 C554 1.400 . S
C555 C556 1.398 . S
C555 C561 1.491 . S
C556 H547 0.950 . S
C556 C555 1.398 . S
C556 C557 1.391 . S
C557 H545 0.950 . S
C557 C553 1.393 1_556 S
C557 C556 1.391 . S
C558 H548 0.950 . S
C558 C559 1.386 . S
C558 C560 1.391 . S
C559 C558 1.386 . S
C559 C563 1.393 . S
C560 H549 0.950 . S
C560 C558 1.391 . S
C560 C561 1.400 . S
C561 C555 1.491 . S
C561 C560 1.400 . S
C561 C562 1.398 . S
C562 H550 0.950 . S
C562 C561 1.398 . S
C562 C563 1.391 . S
C563 H551 0.950 . S
C563 C559 1.393 . S
C563 C562 1.391 . S
H564 C572 0.950 . S
H565 C577 0.950 . S
H566 C574 0.950 . S
H567 C576 0.950 . S
H568 C578 0.950 . S
H569 C580 0.950 . S
H570 C582 0.950 . S
H571 C583 0.950 . S
C572 H564 0.950 . S
C572 C573 1.386 . S
C572 C574 1.391 . S
C573 C572 1.386 . S
C573 C577 1.393 . S
C574 H566 0.950 . S
C574 C572 1.391 . S
C574 C575 1.400 . S
C575 C574 1.400 . S
C575 C576 1.398 . S
C575 C581 1.491 . S
C576 H567 0.950 . S
C576 C575 1.398 . S
C576 C577 1.391 . S
C577 H565 0.950 . S
C577 C573 1.393 . S
C577 C576 1.391 . S
C578 H568 0.950 . S
C578 C579 1.386 . S
C578 C580 1.391 . S
C579 C578 1.386 . S
C579 C583 1.393 . S
C580 H569 0.950 . S
C580 C578 1.391 . S
C580 C581 1.400 . S
C581 C575 1.491 . S
C581 C580 1.400 . S
C581 C582 1.398 . S
C582 H570 0.950 . S
C582 C581 1.398 . S
C582 C583 1.391 . S
C583 H571 0.950 . S
C583 C579 1.393 . S
C583 C582 1.391 . S
H584 C592 0.950 . S
H585 C597 0.950 . S
H586 C594 0.950 . S
H587 C596 0.950 . S
H588 C598 0.950 . S
H589 C600 0.950 . S
H590 C602 0.950 . S
H591 C603 0.950 . S
C592 H584 0.950 . S
C592 C593 1.386 . S
C592 C594 1.391 . S
C593 C592 1.386 . S
C593 C597 1.393 . S
C594 H586 0.950 . S
C594 C592 1.391 . S
C594 C595 1.400 . S
C595 C594 1.400 . S
C595 C596 1.398 . S
C595 C601 1.491 . S
C596 H587 0.950 . S
C596 C595 1.398 . S
C596 C597 1.391 . S
C597 H585 0.950 . S
C597 C593 1.393 . S
C597 C596 1.391 . S
C598 H588 0.950 . S
C598 C599 1.386 . S
C598 C600 1.391 . S
C599 C598 1.386 . S
C599 C603 1.393 . S
C600 H589 0.950 . S
C600 C598 1.391 . S
C600 C601 1.400 . S
C601 C595 1.491 . S
C601 C600 1.400 . S
C601 C602 1.398 . S
C602 H590 0.950 . S
C602 C601 1.398 . S
C602 C603 1.391 . S
C603 H591 0.950 . S
C603 C599 1.393 . S
C603 C602 1.391 . S
H604 C612 0.950 . S
H605 C617 0.950 . S
H606 C614 0.950 . S
H607 C616 0.950 . S
H608 C618 0.950 . S
H609 C620 0.950 . S
H610 C622 0.950 . S
H611 C623 0.950 . S
C612 H604 0.950 . S
C612 C613 1.386 1_554 S
C612 C614 1.391 . S
C613 C612 1.386 1_556 S
C613 C617 1.393 1_556 S
C614 H606 0.950 . S
C614 C612 1.391 . S
C614 C615 1.400 . S
C615 C614 1.400 . S
C615 C616 1.398 . S
C615 C621 1.491 . S
C616 H607 0.950 . S
C616 C615 1.398 . S
C616 C617 1.391 . S
C617 H605 0.950 . S
C617 C613 1.393 1_554 S
C617 C616 1.391 . S
C618 H608 0.950 . S
C618 C619 1.386 . S
C618 C620 1.391 . S
C619 C618 1.386 . S
C619 C623 1.393 . S
C620 H609 0.950 . S
C620 C618 1.391 . S
C620 C621 1.400 . S
C621 C615 1.491 . S
C621 C620 1.400 . S
C621 C622 1.398 . S
C622 H610 0.950 . S
C622 C621 1.398 . S
C622 C623 1.391 . S
C623 H611 0.950 . S
C623 C619 1.393 . S
C623 C622 1.391 . S
H624 C632 0.950 . S
H625 C637 0.950 . S
H626 C634 0.950 . S
H627 C636 0.950 . S
H628 C638 0.950 . S
H629 C640 0.950 . S
H630 C642 0.950 . S
H631 C643 0.950 . S
C632 H624 0.950 . S
C632 C633 1.386 . S
C632 C634 1.391 . S
C633 C632 1.386 . S
C633 C637 1.393 . S
C634 H626 0.950 . S
C634 C632 1.391 . S
C634 C635 1.400 . S
C635 C634 1.400 . S
C635 C636 1.398 . S
C635 C641 1.491 . S
C636 H627 0.950 . S
C636 C635 1.398 . S
C636 C637 1.391 . S
C637 H625 0.950 . S
C637 C633 1.393 . S
C637 C636 1.391 . S
C638 H628 0.950 . S
C638 C639 1.386 . S
C638 C640 1.391 . S
C639 C638 1.386 . S
C639 C643 1.393 . S
C640 H629 0.950 . S
C640 C638 1.391 . S
C640 C641 1.400 . S
C641 C635 1.491 . S
C641 C640 1.400 . S
C641 C642 1.398 . S
C642 H630 0.950 . S
C642 C641 1.398 . S
C642 C643 1.391 . S
C643 H631 0.950 . S
C643 C639 1.393 . S
C643 C642 1.391 . S
H644 C652 0.950 . S
H645 C657 0.950 . S
H646 C654 0.950 . S
H647 C656 0.950 . S
H648 C658 0.950 . S
H649 C660 0.950 . S
H650 C662 0.950 . S
H651 C663 0.955 . S
C652 H644 0.950 . S
C652 C653 1.386 . S
C652 C654 1.391 . S
C653 C652 1.386 . S
C653 C657 1.393 . S
C654 H646 0.950 . S
C654 C652 1.391 . S
C654 C655 1.400 . S
C655 C654 1.400 . S
C655 C656 1.398 . S
C655 C661 1.491 . S
C656 H647 0.950 . S
C656 C655 1.398 . S
C656 C657 1.391 . S
C657 H645 0.950 . S
C657 C653 1.393 . S
C657 C656 1.391 . S
C658 H648 0.950 . S
C658 C659 1.386 1_554 S
C658 C660 1.391 . S
C659 C658 1.386 1_556 S
C659 C663 1.393 1_556 S
C660 H649 0.950 . S
C660 C658 1.391 . S
C660 C661 1.400 . S
C661 C655 1.491 . S
C661 C660 1.400 . S
C661 C662 1.398 . S
C662 H650 0.950 . S
C662 C661 1.398 . S
C662 C663 1.391 . S
C663 H651 0.955 . S
C663 C659 1.393 1_554 S
C663 C662 1.391 . S
C273 C239 1.053 . S
C279 C8 1.052 . S
C293 C140 1.050 . S
C299 C41 1.050 . S
C313 C74 1.070 . S
C319 C173 1.072 . S
C333 C206 1.076 . S
C339 C107 1.075 . S
C353 C28 1.478 . S
C359 C160 1.472 . S
C373 C193 1.481 . S
C379 C61 1.482 . S
C393 C226 1.479 . S
C399 C94 1.484 . S
C413 C259 1.480 . S
C419 C127 1.472 . S
C433 C248 1.544 . S
C439 C50 1.545 . S
C453 C83 1.547 . S
C459 C149 1.543 . S
C473 C116 1.556 . S
C479 C182 1.546 . S
C493 C215 1.547 . S
C499 C17 1.557 . S
C513 N14 1.274 . S
C519 N5 1.275 . S
C533 N38 1.277 . S
C539 N47 1.276 . S
C553 N71 1.271 . S
C559 N80 1.270 . S
C573 N113 1.264 . S
C579 N104 1.268 . S
C593 N137 1.264 . S
C599 N146 1.261 . S
C613 N170 1.272 . S
C619 N179 1.268 . S
C633 N203 1.277 . S
C639 N212 1.274 . S
C653 N245 1.261 . S
C659 N236 1.264 . S
