# Generated by pormake.
# Topology snl, (6)-cn, num edge types: 1
# Building blocks:
#     Node 0, Type 0, BuildingBlock: BETDAH_clean_sbu_0, # of connection points: 6
#     Node 1, Type 0, BuildingBlock: BETDAH_clean_sbu_0, # of connection points: 6
#     Node 2, Type 0, BuildingBlock: BETDAH_clean_sbu_0, # of connection points: 6
#     Node 3, Type 0, BuildingBlock: BETDAH_clean_sbu_0, # of connection points: 6
#     Node 4, Type 0, BuildingBlock: BETDAH_clean_sbu_0, # of connection points: 6
#     Node 5, Type 0, BuildingBlock: BETDAH_clean_sbu_0, # of connection points: 6
#     Node 6, Type 0, BuildingBlock: BETDAH_clean_sbu_0, # of connection points: 6
#     Node 7, Type 0, BuildingBlock: BETDAH_clean_sbu_0, # of connection points: 6
#     Node 8, Type 0, BuildingBlock: BETDAH_clean_sbu_0, # of connection points: 6
#     Node 9, Type 0, BuildingBlock: BETDAH_clean_sbu_0, # of connection points: 6
#     Node 10, Type 0, BuildingBlock: BETDAH_clean_sbu_0, # of connection points: 6
#     Node 11, Type 0, BuildingBlock: BETDAH_clean_sbu_0, # of connection points: 6
#     Node 12, Type 0, BuildingBlock: BETDAH_clean_sbu_0, # of connection points: 6
#     Node 13, Type 0, BuildingBlock: BETDAH_clean_sbu_0, # of connection points: 6
#     Node 14, Type 0, BuildingBlock: BETDAH_clean_sbu_0, # of connection points: 6
#     Node 15, Type 0, BuildingBlock: BETDAH_clean_sbu_0, # of connection points: 6
#     Edge 16, Type (0, 0), BuildingBlock: CIFDUS_clean_linker_0, # of connection points: 2
#     Edge 17, Type (0, 0), BuildingBlock: CIFDUS_clean_linker_0, # of connection points: 2
#     Edge 18, Type (0, 0), BuildingBlock: CIFDUS_clean_linker_0, # of connection points: 2
#     Edge 19, Type (0, 0), BuildingBlock: CIFDUS_clean_linker_0, # of connection points: 2
#     Edge 20, Type (0, 0), BuildingBlock: CIFDUS_clean_linker_0, # of connection points: 2
#     Edge 21, Type (0, 0), BuildingBlock: CIFDUS_clean_linker_0, # of connection points: 2
#     Edge 22, Type (0, 0), BuildingBlock: CIFDUS_clean_linker_0, # of connection points: 2
#     Edge 23, Type (0, 0), BuildingBlock: CIFDUS_clean_linker_0, # of connection points: 2
#     Edge 24, Type (0, 0), BuildingBlock: CIFDUS_clean_linker_0, # of connection points: 2
#     Edge 25, Type (0, 0), BuildingBlock: CIFDUS_clean_linker_0, # of connection points: 2
#     Edge 26, Type (0, 0), BuildingBlock: CIFDUS_clean_linker_0, # of connection points: 2
#     Edge 27, Type (0, 0), BuildingBlock: CIFDUS_clean_linker_0, # of connection points: 2
#     Edge 28, Type (0, 0), BuildingBlock: CIFDUS_clean_linker_0, # of connection points: 2
#     Edge 29, Type (0, 0), BuildingBlock: CIFDUS_clean_linker_0, # of connection points: 2
#     Edge 30, Type (0, 0), BuildingBlock: CIFDUS_clean_linker_0, # of connection points: 2
#     Edge 31, Type (0, 0), BuildingBlock: CIFDUS_clean_linker_0, # of connection points: 2
#     Edge 32, Type (0, 0), BuildingBlock: CIFDUS_clean_linker_0, # of connection points: 2
#     Edge 33, Type (0, 0), BuildingBlock: CIFDUS_clean_linker_0, # of connection points: 2
#     Edge 34, Type (0, 0), BuildingBlock: CIFDUS_clean_linker_0, # of connection points: 2
#     Edge 35, Type (0, 0), BuildingBlock: CIFDUS_clean_linker_0, # of connection points: 2
#     Edge 36, Type (0, 0), BuildingBlock: CIFDUS_clean_linker_0, # of connection points: 2
#     Edge 37, Type (0, 0), BuildingBlock: CIFDUS_clean_linker_0, # of connection points: 2
#     Edge 38, Type (0, 0), BuildingBlock: CIFDUS_clean_linker_0, # of connection points: 2
#     Edge 39, Type (0, 0), BuildingBlock: CIFDUS_clean_linker_0, # of connection points: 2
#     Edge 40, Type (0, 0), BuildingBlock: CIFDUS_clean_linker_0, # of connection points: 2
#     Edge 41, Type (0, 0), BuildingBlock: CIFDUS_clean_linker_0, # of connection points: 2
#     Edge 42, Type (0, 0), BuildingBlock: CIFDUS_clean_linker_0, # of connection points: 2
#     Edge 43, Type (0, 0), BuildingBlock: CIFDUS_clean_linker_0, # of connection points: 2
#     Edge 44, Type (0, 0), BuildingBlock: CIFDUS_clean_linker_0, # of connection points: 2
#     Edge 45, Type (0, 0), BuildingBlock: CIFDUS_clean_linker_0, # of connection points: 2
#     Edge 46, Type (0, 0), BuildingBlock: CIFDUS_clean_linker_0, # of connection points: 2
#     Edge 47, Type (0, 0), BuildingBlock: CIFDUS_clean_linker_0, # of connection points: 2
#     Edge 48, Type (0, 0), BuildingBlock: CIFDUS_clean_linker_0, # of connection points: 2
#     Edge 49, Type (0, 0), BuildingBlock: CIFDUS_clean_linker_0, # of connection points: 2
#     Edge 50, Type (0, 0), BuildingBlock: CIFDUS_clean_linker_0, # of connection points: 2
#     Edge 51, Type (0, 0), BuildingBlock: CIFDUS_clean_linker_0, # of connection points: 2
#     Edge 52, Type (0, 0), BuildingBlock: CIFDUS_clean_linker_0, # of connection points: 2
#     Edge 53, Type (0, 0), BuildingBlock: CIFDUS_clean_linker_0, # of connection points: 2
#     Edge 54, Type (0, 0), BuildingBlock: CIFDUS_clean_linker_0, # of connection points: 2
#     Edge 55, Type (0, 0), BuildingBlock: CIFDUS_clean_linker_0, # of connection points: 2
#     Edge 56, Type (0, 0), BuildingBlock: CIFDUS_clean_linker_0, # of connection points: 2
#     Edge 57, Type (0, 0), BuildingBlock: CIFDUS_clean_linker_0, # of connection points: 2
#     Edge 58, Type (0, 0), BuildingBlock: CIFDUS_clean_linker_0, # of connection points: 2
#     Edge 59, Type (0, 0), BuildingBlock: CIFDUS_clean_linker_0, # of connection points: 2
#     Edge 60, Type (0, 0), BuildingBlock: CIFDUS_clean_linker_0, # of connection points: 2
#     Edge 61, Type (0, 0), BuildingBlock: CIFDUS_clean_linker_0, # of connection points: 2
#     Edge 62, Type (0, 0), BuildingBlock: CIFDUS_clean_linker_0, # of connection points: 2
#     Edge 63, Type (0, 0), BuildingBlock: CIFDUS_clean_linker_0, # of connection points: 2
# Relax obj value: 0.198
# Max RMSD: 0.273
# Mean RMSD: 0.237
data_MOF--net-snl--node1-BETDAH_clean_sbu_0--edge1-CIFDUS_clean_linker_0
_symmetry_space_group_name_H-M    P1
_symmetry_Int_Tables_number       1
_symmetry_cell_setting            triclinic
loop_
_symmetry_equiv_pos_as_xyz
'x, y, z'
_cell_length_a     49.301052
_cell_length_b     49.666615
_cell_length_c     23.906384
_cell_angle_alpha  100.77612
_cell_angle_beta   91.54643
_cell_angle_gamma 89.982125
loop_
_atom_site_label
_atom_site_type_symbol
_atom_site_fract_x
_atom_site_fract_y
_atom_site_fract_z
_atom_type_partial_charge
Ho0 Ho 0.15616 0.62946 0.10764 0.0
Ho1 Ho 0.12996 0.63051 0.21775 0.0
C2 C 0.0894 0.63165 0.11587 0.0
C3 C 0.172 0.61783 1.00273 0.0
C4 C 0.16427 0.62077 0.9439 0.0
C5 C 0.17813 0.60538 0.8983 0.0
C6 C 0.1726 0.60876 0.84223 0.0
C7 C 0.15299 0.62766 0.83024 0.0
C8 C 0.13874 0.64274 0.87622 0.0
C9 C 0.14434 0.63934 0.93245 0.0
C10 C 0.14786 0.68146 0.16573 0.0
C11 C 0.19547 0.63297 0.21729 0.0
C12 C 0.11312 0.63812 0.32192 0.0
C13 C 0.12117 0.63533 0.38072 0.0
C14 C 0.10724 0.65055 0.42642 0.0
C15 C 0.11296 0.64725 0.48247 0.0
C16 C 0.13283 0.62857 0.49433 0.0
C17 C 0.14717 0.61369 0.44829 0.0
C18 C 0.14141 0.61704 0.39209 0.0
C19 C 0.13745 0.57965 0.15229 0.0
O20 O 0.11043 0.62303 0.08342 0.0
O21 O 0.09317 0.64105 0.17072 0.0
O22 O 0.17879 0.64016 0.03848 0.0
O23 O 0.15742 0.60128 0.02633 0.0
O24 O 0.16928 0.67321 0.13746 0.0
O25 O 0.13148 0.66148 0.16127 0.0
O26 O 0.17339 0.64029 0.24609 0.0
O27 O 0.19381 0.62335 0.16161 0.0
O28 O 0.10916 0.61557 0.28462 0.0
O29 O 0.12535 0.65698 0.3003 0.0
O30 O 0.11558 0.58729 0.17949 0.0
O31 O 0.15432 0.59909 0.16217 0.0
H32 H 0.19368 0.59102 0.90618 0.0
H33 H 0.1843 0.59705 0.80845 0.0
H34 H 0.12323 0.65721 0.86881 0.0
H35 H 0.13334 0.65141 0.96698 0.0
H36 H 0.09145 0.66469 0.41865 0.0
H37 H 0.1012 0.6588 0.51633 0.0
H38 H 0.16287 0.59941 0.45565 0.0
H39 H 0.1525 0.60512 0.35752 0.0
Ho40 Ho 0.65532 0.89084 0.43069 0.0
Ho41 Ho 0.63051 0.89013 0.31581 0.0
C42 C 0.58921 0.88281 0.41036 0.0
C43 C 0.67059 0.90265 0.53756 0.0
C44 C 0.66359 0.89905 0.59529 0.0
C45 C 0.6811 0.90999 0.64105 0.0
C46 C 0.67575 0.90638 0.69632 0.0
C47 C 0.65267 0.89172 0.70722 0.0
C48 C 0.63498 0.88091 0.66105 0.0
C49 C 0.64041 0.88453 0.60554 0.0
C50 C 0.6505 0.83904 0.36729 0.0
C51 C 0.69609 0.89366 0.32839 0.0
C52 C 0.61406 0.88149 0.20973 0.0
C53 C 0.62201 0.88438 0.15212 0.0
C54 C 0.60489 0.87343 0.10571 0.0
C55 C 0.6111 0.87651 0.05052 0.0
C56 C 0.63467 0.89062 0.04038 0.0
C57 C 0.65203 0.90135 0.08718 0.0
C58 C 0.64574 0.89826 0.14259 0.0
C59 C 0.6317 0.94004 0.38702 0.0
O60 O 0.60928 0.89127 0.44807 0.0
O61 O 0.59406 0.8763 0.35559 0.0
O62 O 0.67836 0.88085 0.50241 0.0
O63 O 0.65488 0.91833 0.51272 0.0
O64 O 0.6709 0.84812 0.4007 0.0
O65 O 0.63347 0.85826 0.36984 0.0
O66 O 0.67475 0.88756 0.29385 0.0
O67 O 0.69333 0.8992 0.38449 0.0
O68 O 0.60942 0.90405 0.24597 0.0
O69 O 0.62707 0.86332 0.23319 0.0
O70 O 0.61157 0.93074 0.35296 0.0
O71 O 0.65073 0.9228 0.37994 0.0
H72 H 0.69918 0.92115 0.63391 0.0
H73 H 0.69009 0.9146 0.73033 0.0
H74 H 0.61686 0.86977 0.66781 0.0
H75 H 0.62663 0.87593 0.57071 0.0
H76 H 0.58642 0.86274 0.11225 0.0
H77 H 0.59702 0.86836 1.01596 0.0
H78 H 0.67051 0.91207 0.08099 0.0
H79 H 0.65924 0.90683 0.17793 0.0
Ho80 Ho 0.36735 0.38206 0.56275 0.0
Ho81 Ho 0.3879 0.40679 0.68615 0.0
C82 C 0.43169 0.3852 0.59651 0.0
C83 C 0.35162 0.37645 0.4564 0.0
C84 C 0.35541 0.38548 0.40154 0.0
C85 C 0.37449 0.40558 0.39499 0.0
C86 C 0.37844 0.41216 0.341 0.0
C87 C 0.3635 0.39866 0.29254 0.0
C88 C 0.34415 0.37889 0.30001 0.0
C89 C 0.34022 0.37241 0.35373 0.0
C90 C 0.3734 0.33992 0.62105 0.0
C91 C 0.32397 0.39143 0.66497 0.0
C92 C 0.39964 0.42231 0.7941 0.0
C93 C 0.39284 0.41721 0.85117 0.0
C94 C 0.37305 0.398 0.85874 0.0
C95 C 0.36777 0.3932 0.91357 0.0
C96 C 0.38219 0.4075 0.96196 0.0
C97 C 0.40176 0.42694 0.9538 0.0
C98 C 0.40699 0.43169 0.89914 0.0
C99 C 0.38717 0.44179 0.60873 0.0
O100 O 0.41316 0.38884 0.55705 0.0
O101 O 0.42502 0.38592 0.64975 0.0
O102 O 0.37135 0.36248 0.47463 0.0
O103 O 0.34029 0.39339 0.49768 0.0
O104 O 0.36461 0.33728 0.56888 0.0
O105 O 0.37814 0.36515 0.63982 0.0
O106 O 0.34473 0.39704 0.70137 0.0
O107 O 0.32714 0.38657 0.60875 0.0
O108 O 0.38113 0.43403 0.76663 0.0
O109 O 0.41245 0.4028 0.76067 0.0
O110 O 0.40522 0.44229 0.64931 0.0
O111 O 0.36986 0.42375 0.61357 0.0
H112 H 0.38653 0.41585 0.43132 0.0
H113 H 0.39364 0.42737 0.33702 0.0
H114 H 0.33185 0.36844 0.2643 0.0
H115 H 0.32538 0.35684 0.3578 0.0
H116 H 0.36182 0.38662 0.82232 0.0
H117 H 0.3523 0.37833 0.91802 0.0
H118 H 0.41359 0.43807 0.98953 0.0
H119 H 0.42241 0.44657 0.89426 0.0
Ho120 Ho 0.88812 0.11956 0.85159 0.0
Ho121 Ho 0.87959 0.14566 0.97076 0.0
C122 C 0.89004 0.18647 0.88817 0.0
C123 C 0.88821 0.10273 0.74151 0.0
C124 C 0.88392 0.11178 0.68623 0.0
C125 C 0.87242 0.09334 0.64 0.0
C126 C 0.87038 0.10012 0.58571 0.0
C127 C 0.87985 0.12558 0.57617 0.0
C128 C 0.89082 0.14432 0.62305 0.0
C129 C 0.89284 0.1375 0.67744 0.0
C130 C 0.93484 0.12372 0.91652 0.0
C131 C 0.88174 0.0796 0.9424 0.0
C132 C 0.87876 0.16329 0.08044 0.0
C133 C 0.88044 0.15415 0.136 0.0
C134 C 0.89115 0.17223 0.18365 0.0
C135 C 0.89165 0.16513 0.23767 0.0
C136 C 0.88142 0.13968 0.24553 0.0
C137 C 0.87109 0.12133 0.19733 0.0
C138 C 0.87056 0.12851 0.14316 0.0
C139 C 0.83425 0.14404 0.90094 0.0
O140 O 0.88371 0.16538 0.84674 0.0
O141 O 0.8937 0.18285 0.94096 0.0
O142 O 0.90956 0.11217 0.7724 0.0
O143 O 0.86705 0.1012 0.77243 0.0
O144 O 0.92714 0.10224 0.88003 0.0
O145 O 0.91658 0.14186 0.91823 0.0
O146 O 0.88524 0.10197 0.98125 0.0
O147 O 0.87937 0.0811 0.88753 0.0
O148 O 0.8571 0.1564 0.0483 0.0
O149 O 0.9008 0.16179 0.05095 0.0
O150 O 0.84127 0.16433 0.94111 0.0
O151 O 0.85109 0.12479 0.90109 0.0
H152 H 0.86542 0.07337 0.64568 0.0
H153 H 0.86136 0.08534 0.55115 0.0
H154 H 0.89854 0.16402 0.61748 0.0
H155 H 0.90188 0.15211 0.7123 0.0
H156 H 0.89891 0.19211 0.17918 0.0
H157 H 0.90024 0.17959 0.27328 0.0
H158 H 0.86285 0.10163 0.2016 0.0
H159 H 0.86209 0.11422 0.1071 0.0
Ho160 Ho 0.14991 0.39415 0.95578 0.0
Ho161 Ho 0.12371 0.39231 0.8411 0.0
C162 C 0.08386 0.38824 0.93922 0.0
C163 C 0.16575 0.4055 0.06255 0.0
C164 C 0.15822 0.40223 0.12037 0.0
C165 C 0.17483 0.41417 0.16694 0.0
C166 C 0.16911 0.41065 0.22219 0.0
C167 C 0.14652 0.39507 0.23235 0.0
C168 C 0.12966 0.38337 0.18537 0.0
C169 C 0.13546 0.38691 0.12993 0.0
C170 C 0.14461 0.34232 0.89297 0.0
C171 C 0.18923 0.39638 0.85186 0.0
C172 C 0.10701 0.38272 0.73497 0.0
C173 C 0.11481 0.38591 0.67725 0.0
C174 C 0.09807 0.37442 0.63054 0.0
C175 C 0.10414 0.37779 0.57537 0.0
C176 C 0.12717 0.39279 0.56546 0.0
C177 C 0.14416 0.40404 0.61255 0.0
C178 C 0.13805 0.40062 0.6679 0.0
C179 C 0.12632 0.44294 0.90966 0.0
O180 O 0.10439 0.39777 0.97456 0.0
O181 O 0.08787 0.37937 0.88459 0.0
O182 O 0.17256 0.38335 0.02727 0.0
O183 O 0.15097 0.4219 0.03768 0.0
O184 O 0.16541 0.35139 0.92515 0.0
O185 O 0.12728 0.36128 0.89673 0.0
O186 O 0.16781 0.38877 0.81839 0.0
O187 O 0.1868 0.40348 0.90786 0.0
O188 O 0.10156 0.40509 0.77111 0.0
O189 O 0.12073 0.36512 0.75875 0.0
O190 O 0.10589 0.43371 0.87642 0.0
O191 O 0.14498 0.42528 0.90294 0.0
H192 H 0.19257 0.42597 0.16047 0.0
H193 H 0.18284 0.41962 0.25677 0.0
H194 H 0.11189 0.37155 0.19141 0.0
H195 H 0.12233 0.37754 0.09456 0.0
H196 H 0.08 0.36306 0.63683 0.0
H197 H 0.09034 0.36916 0.54063 0.0
H198 H 0.16225 0.41543 0.60663 0.0
H199 H 0.15131 0.40959 0.70336 0.0
Ho200 Ho 0.88415 0.90797 0.19298 0.0
Ho201 Ho 0.87254 0.88176 0.0644 0.0
C202 C 0.88884 0.84145 0.14933 0.0
C203 C 0.87624 0.92615 0.30027 0.0
C204 C 0.883 0.91905 0.3565 0.0
C205 C 0.88094 0.89195 0.36545 0.0
C206 C 0.88448 0.88605 0.4202 0.0
C207 C 0.89034 0.90704 0.46742 0.0
C208 C 0.89314 0.93405 0.45791 0.0
C209 C 0.88943 0.93996 0.40311 0.0
C210 C 0.93241 0.89729 0.14099 0.0
C211 C 0.87965 0.94775 0.09794 0.0
C212 C 0.86875 0.86507 0.95486 0.0
C213 C 0.87441 0.87347 0.90028 0.0
C214 C 0.88339 0.9 0.89778 0.0
C215 C 0.88667 0.90789 0.84494 0.0
C216 C 0.88133 0.88922 0.79369 0.0
C217 C 0.87299 0.86245 0.79672 0.0
C218 C 0.8695 0.85472 0.84943 0.0
C219 C 0.83009 0.88382 0.13724 0.0
O220 O 0.88394 0.86164 0.19316 0.0
O221 O 0.88895 0.84551 0.09624 0.0
O222 O 0.89583 0.93514 0.27261 0.0
O223 O 0.85987 0.90934 0.26674 0.0
O224 O 0.92994 0.9072 0.1947 0.0
O225 O 0.90887 0.89294 0.11851 0.0
O226 O 0.88003 0.92554 0.05772 0.0
O227 O 0.87884 0.94625 0.15309 0.0
O228 O 0.84959 0.87843 0.98508 0.0
O229 O 0.88961 0.85992 0.98619 0.0
O230 O 0.83401 0.86435 0.09396 0.0
O231 O 0.84782 0.90218 0.1367 0.0
H232 H 0.8759 0.87537 0.33036 0.0
H233 H 0.88178 0.86507 0.42566 0.0
H234 H 0.89808 0.9507 0.49285 0.0
H235 H 0.89106 0.96101 0.39733 0.0
H236 H 0.88758 0.91463 0.93658 0.0
H237 H 0.89339 0.92857 0.84419 0.0
H238 H 0.86835 0.84765 0.75828 0.0
H239 H 0.86247 0.83415 0.85046 0.0
Ho240 Ho 0.38888 0.61428 0.36573 0.0
Ho241 Ho 0.37658 0.63967 0.48396 0.0
C242 C 0.38766 0.68203 0.40452 0.0
C243 C 0.38878 0.59716 0.25578 0.0
C244 C 0.38613 0.60614 0.20018 0.0
C245 C 0.37492 0.58787 0.15338 0.0
C246 C 0.37353 0.59477 0.0992 0.0
C247 C 0.38335 0.62021 0.09035 0.0
C248 C 0.39418 0.63874 0.1377 0.0
C249 C 0.39559 0.63178 0.19205 0.0
C250 C 0.43436 0.62182 0.43375 0.0
C251 C 0.38753 0.57457 0.45749 0.0
C252 C 0.3705 0.65549 0.59303 0.0
C253 C 0.37525 0.64686 0.64871 0.0
C254 C 0.38622 0.66584 0.69471 0.0
C255 C 0.3889 0.65927 0.74911 0.0
C256 C 0.38055 0.63351 0.75909 0.0
C257 C 0.37 0.6143 0.71253 0.0
C258 C 0.3674 0.62087 0.65801 0.0
C259 C 0.33313 0.63293 0.40834 0.0
O260 O 0.38499 0.66063 0.3615 0.0
O261 O 0.38809 0.67841 0.45766 0.0
O262 O 0.41063 0.60449 0.28698 0.0
O263 O 0.3671 0.59818 0.28625 0.0
O264 O 0.42883 0.60009 0.39581 0.0
O265 O 0.41473 0.63852 0.43482 0.0
O266 O 0.38985 0.59759 0.49501 0.0
O267 O 0.38339 0.57518 0.40253 0.0
O268 O 0.35195 0.64233 0.55836 0.0
O269 O 0.39174 0.66158 0.56624 0.0
O270 O 0.33758 0.65465 0.44684 0.0
O271 O 0.35159 0.61583 0.41278 0.0
H272 H 0.36745 0.56799 0.15863 0.0
H273 H 0.36459 0.58016 0.06424 0.0
H274 H 0.40213 0.65843 0.13259 0.0
H275 H 0.40438 0.64624 0.22747 0.0
H276 H 0.39239 0.68603 0.68873 0.0
H277 H 0.39759 0.67444 0.78337 0.0
H278 H 0.36308 0.59435 0.7184 0.0
H279 H 0.35879 0.6058 0.62345 0.0
Ho280 Ho 0.658 0.12534 0.58909 0.0
Ho281 Ho 0.63354 0.12611 0.70015 0.0
C282 C 0.59139 0.12748 0.60075 0.0
C283 C 0.67262 0.11382 0.48362 0.0
C284 C 0.66398 0.11661 0.42529 0.0
C285 C 0.67071 0.09584 0.37957 0.0
C286 C 0.66446 0.09848 0.32341 0.0
C287 C 0.65133 0.12204 0.31161 0.0
C288 C 0.64414 0.14265 0.35775 0.0
C289 C 0.65041 0.13997 0.41405 0.0
C290 C 0.65071 0.17724 0.64839 0.0
C291 C 0.69912 0.12655 0.69583 0.0
C292 C 0.61808 0.13412 0.80503 0.0
C293 C 0.62726 0.13183 0.8634 0.0
C294 C 0.62039 0.15266 0.90893 0.0
C295 C 0.62696 0.15039 0.96517 0.0
C296 C 0.64053 0.12713 0.97733 0.0
C297 C 0.64788 0.10648 0.93141 0.0
C298 C 0.64132 0.1088 0.87503 0.0
C299 C 0.64039 0.07533 0.63375 0.0
O300 O 0.61202 0.11911 0.56694 0.0
O301 O 0.59588 0.13649 0.65552 0.0
O302 O 0.6798 0.13614 0.51906 0.0
O303 O 0.65861 0.0971 0.5079 0.0
O304 O 0.6718 0.16889 0.61906 0.0
O305 O 0.63421 0.1574 0.64447 0.0
O306 O 0.67771 0.13421 0.72681 0.0
O307 O 0.6961 0.11782 0.64002 0.0
O308 O 0.61368 0.11141 0.76835 0.0
O309 O 0.62956 0.15302 0.78222 0.0
O310 O 0.61872 0.08287 0.66188 0.0
O311 O 0.65717 0.09479 0.64314 0.0
H312 H 0.68114 0.07762 0.38729 0.0
H313 H 0.66986 0.08197 0.28921 0.0
H314 H 0.63421 0.16117 0.35035 0.0
H315 H 0.64502 0.15631 0.44864 0.0
H316 H 0.60956 0.17062 0.901 0.0
H317 H 0.62142 0.16694 0.99915 0.0
H318 H 0.65813 0.08817 0.93905 0.0
H319 H 0.64685 0.09239 0.84069 0.0
Ho320 Ho 0.88627 0.3952 0.82166 0.0
Ho321 Ho 0.86067 0.39618 0.94095 0.0
C322 C 0.82096 0.39732 0.83065 0.0
C323 C 0.90129 0.39158 0.71744 0.0
C324 C 0.89058 0.38794 0.65828 0.0
C325 C 0.90843 0.37999 0.61361 0.0
C326 C 0.90011 0.38013 0.55726 0.0
C327 C 0.8737 0.38831 0.54436 0.0
C328 C 0.85546 0.39516 0.58919 0.0
C329 C 0.86382 0.39498 0.64565 0.0
C330 C 0.88992 0.44277 0.90022 0.0
C331 C 0.92512 0.38236 0.92007 0.0
C332 C 0.84575 0.41316 0.04445 0.0
C333 C 0.84948 0.40544 0.10088 0.0
C334 C 0.82871 0.41076 0.14032 0.0
C335 C 0.83211 0.40459 0.19487 0.0
C336 C 0.85645 0.39301 0.21128 0.0
C337 C 0.87712 0.38738 0.17118 0.0
C338 C 0.87364 0.39346 0.11652 0.0
C339 C 0.86604 0.34301 0.88708 0.0
O340 O 0.84202 0.39067 0.798 0.0
O341 O 0.82346 0.40374 0.88718 0.0
O342 O 0.89515 0.41461 0.75087 0.0
O343 O 0.90052 0.3705 0.74311 0.0
O344 O 0.90935 0.43272 0.86732 0.0
O345 O 0.86952 0.42712 0.88969 0.0
O346 O 0.90672 0.39357 0.95725 0.0
O347 O 0.91997 0.37684 0.86464 0.0
O348 O 0.83105 0.3965 1.00647 0.0
O349 O 0.86724 0.42247 0.02291 0.0
O350 O 0.85684 0.35045 0.93787 0.0
O351 O 0.87203 0.36445 0.86875 0.0
H352 H 0.92922 0.37468 0.62252 0.0
H353 H 0.91482 0.37506 0.52414 0.0
H354 H 0.83485 0.40117 0.58075 0.0
H355 H 0.84968 0.40118 0.67954 0.0
H356 H 0.80986 0.4199 0.12902 0.0
H357 H 0.81557 0.40879 0.22408 0.0
H358 H 0.89626 0.37879 0.18235 0.0
H359 H 0.88996 0.38911 0.08674 0.0
Ho360 Ho 0.39004 0.13168 0.70328 0.0
Ho361 Ho 0.36468 0.13343 0.59268 0.0
C362 C 0.32485 0.13114 0.69582 0.0
C363 C 0.407 0.13657 0.80884 0.0
C364 C 0.39858 0.13505 0.86706 0.0
C365 C 0.3713 0.13678 0.88275 0.0
C366 C 0.36443 0.13673 0.93942 0.0
C367 C 0.3847 0.13497 0.98147 0.0
C368 C 0.41193 0.13291 0.96494 0.0
C369 C 0.41873 0.13292 0.9085 0.0
C370 C 0.38411 0.08188 0.63108 0.0
C371 C 0.43161 0.13724 0.6097 0.0
C372 C 0.3487 0.12406 0.48605 0.0
C373 C 0.35636 0.12717 0.42812 0.0
C374 C 0.38348 0.12613 0.41131 0.0
C375 C 0.38972 0.12662 0.35453 0.0
C376 C 0.36898 0.12811 0.31333 0.0
C377 C 0.34193 0.12984 0.331 0.0
C378 C 0.33574 0.12936 0.38764 0.0
C379 C 0.37104 0.18483 0.6572 0.0
O380 O 0.34647 0.13917 0.7282 0.0
O381 O 0.3273 0.12346 0.63991 0.0
O382 O 0.40784 0.11369 0.7718 0.0
O383 O 0.39759 0.15688 0.78647 0.0
O384 O 0.40598 0.08984 0.66079 0.0
O385 O 0.36669 0.10057 0.64127 0.0
O386 O 0.41073 0.13041 0.57304 0.0
O387 O 0.42754 0.14331 0.66464 0.0
O388 O 0.3426 0.14621 0.52213 0.0
O389 O 0.36262 0.1067 0.51007 0.0
O390 O 0.34959 0.17591 0.6269 0.0
O391 O 0.38815 0.16541 0.6526 0.0
H392 H 0.3554 0.13842 0.85143 0.0
H393 H 0.34322 0.13802 0.95024 0.0
H394 H 0.42817 0.13201 0.99592 0.0
H395 H 0.43992 0.13173 0.89737 0.0
H396 H 0.39978 0.12447 0.44177 0.0
H397 H 0.41081 0.12567 0.34285 0.0
H398 H 0.32537 0.13064 0.30067 0.0
H399 H 0.31466 0.13001 0.39956 0.0
Ho400 Ho 0.64925 0.64108 0.46459 0.0
Ho401 Ho 0.63956 0.61162 0.33427 0.0
C402 C 0.64435 0.57422 0.43298 0.0
C403 C 0.64871 0.65924 0.57366 0.0
C404 C 0.64498 0.65017 0.6284 0.0
C405 C 0.63681 0.62337 0.631 0.0
C406 C 0.63495 0.61509 0.68385 0.0
C407 C 0.64102 0.63356 0.73509 0.0
C408 C 0.64878 0.66049 0.73193 0.0
C409 C 0.65077 0.66864 0.67923 0.0
C410 C 0.69267 0.63562 0.39535 0.0
C411 C 0.64045 0.67884 0.37126 0.0
C412 C 0.64834 0.59248 0.22772 0.0
C413 C 0.64311 0.60019 0.17139 0.0
C414 C 0.64664 0.62728 0.16336 0.0
C415 C 0.64359 0.63378 0.10896 0.0
C416 C 0.63681 0.6134 0.06117 0.0
C417 C 0.63287 0.58637 0.06967 0.0
C418 C 0.63603 0.57987 0.12411 0.0
C419 C 0.59122 0.62481 0.38644 0.0
O420 O 0.6439 0.59687 0.47237 0.0
O421 O 0.64502 0.57472 0.37739 0.0
O422 O 0.67057 0.65056 0.54613 0.0
O423 O 0.62733 0.65912 0.53979 0.0
O424 O 0.68943 0.65587 0.43757 0.0
O425 O 0.67404 0.61812 0.39541 0.0
O426 O 0.64432 0.65691 0.33078 0.0
O427 O 0.6374 0.67722 0.42547 0.0
O428 O 0.62747 0.58513 0.25425 0.0
O429 O 0.66554 0.60789 0.26219 0.0
O430 O 0.5933 0.61241 0.33395 0.0
O431 O 0.61505 0.62944 0.40617 0.0
H432 H 0.63206 0.60887 0.59225 0.0
H433 H 0.62867 0.59427 0.6846 0.0
H434 H 0.65402 0.67516 0.7702 0.0
H435 H 0.65725 0.68938 0.67815 0.0
H436 H 0.65222 0.6434 0.19896 0.0
H437 H 0.64719 0.65473 0.10426 0.0
H438 H 0.62724 0.57019 0.03427 0.0
H439 H 0.63326 0.55883 0.12917 0.0
Ho440 Ho 0.14316 0.87887 0.06601 0.0
Ho441 Ho 0.1411 0.90859 0.1962 0.0
C442 C 0.14577 0.94588 0.09674 0.0
C443 C 0.13511 0.86133 0.95734 0.0
C444 C 0.13485 0.87093 0.9023 0.0
C445 C 0.13351 0.89886 0.89929 0.0
C446 C 0.13427 0.90729 0.84641 0.0
C447 C 0.13604 0.88788 0.7954 0.0
C448 C 0.13695 0.8599 0.79882 0.0
C449 C 0.13646 0.85158 0.85163 0.0
C450 C 0.19069 0.88212 0.12836 0.0
C451 C 0.13812 0.84148 0.1591 0.0
C452 C 0.15427 0.92594 0.30265 0.0
C453 C 0.14678 0.92024 0.35908 0.0
C454 C 0.14184 0.89335 0.36698 0.0
C455 C 0.13712 0.88795 0.42139 0.0
C456 C 0.13696 0.90931 0.46945 0.0
C457 C 0.14137 0.9363 0.46106 0.0
C458 C 0.14628 0.94166 0.40657 0.0
C459 C 0.08971 0.89542 0.15292 0.0
O460 O 0.14376 0.92324 0.0575 0.0
O461 O 0.14656 0.94543 0.15253 0.0
O462 O 0.15871 0.861 0.98349 0.0
O463 O 0.11566 0.86987 0.9925 0.0
O464 O 0.18383 0.86206 0.08721 0.0
O465 O 0.17264 0.90053 0.13197 0.0
O466 O 0.14607 0.86311 0.19778 0.0
O467 O 0.1309 0.84354 0.10632 0.0
O468 O 0.1363 0.93825 0.27486 0.0
O469 O 0.16684 0.90622 0.26932 0.0
O470 O 0.09533 0.90678 0.20522 0.0
O471 O 0.11199 0.89158 0.1281 0.0
H472 H 0.13191 0.91408 0.93778 0.0
H473 H 0.13326 0.92898 0.84541 0.0
H474 H 0.13866 0.8444 0.76067 0.0
H475 H 0.13755 0.82991 0.85292 0.0
H476 H 0.14218 0.87636 0.33124 0.0
H477 H 0.13427 0.86685 0.42581 0.0
H478 H 0.14099 0.95338 0.49657 0.0
H479 H 0.15007 0.96257 0.40165 0.0
Ho480 Ho 0.88953 0.62957 0.21409 0.0
Ho481 Ho 0.86451 0.6306 0.09281 0.0
C482 C 0.82375 0.62972 0.19915 0.0
C483 C 0.90521 0.63748 0.32034 0.0
C484 C 0.8968 0.63317 0.37667 0.0
C485 C 0.86958 0.62866 0.38822 0.0
C486 C 0.86227 0.62566 0.44304 0.0
C487 C 0.88208 0.62725 0.4872 0.0
C488 C 0.90933 0.63147 0.47492 0.0
C489 C 0.91657 0.63438 0.42027 0.0
C490 C 0.88468 0.58084 0.13939 0.0
C491 C 0.92985 0.6381 0.11835 0.0
C492 C 0.84822 0.6133 0.98857 0.0
C493 C 0.85377 0.61872 0.93133 0.0
C494 C 0.87991 0.6257 0.91676 0.0
C495 C 0.8849 0.62976 0.86156 0.0
C496 C 0.86383 0.6271 0.81982 0.0
C497 C 0.83761 0.62043 0.83499 0.0
C498 C 0.83268 0.61625 0.89013 0.0
C499 C 0.87596 0.68309 0.14402 0.0
O500 O 0.84522 0.62975 0.23363 0.0
O501 O 0.82598 0.6293 0.14348 0.0
O502 O 0.91138 0.61566 0.28321 0.0
O503 O 0.89149 0.65544 0.29752 0.0
O504 O 0.90535 0.58731 0.17411 0.0
O505 O 0.86783 0.60011 0.14743 0.0
O506 O 0.91064 0.62801 0.0798 0.0
O507 O 0.92462 0.6451 0.17291 0.0
O508 O 0.83593 0.63277 0.02331 0.0
O509 O 0.86774 0.60171 1.01382 0.0
O510 O 0.86598 0.67597 0.09267 0.0
O511 O 0.8798 0.66166 0.16475 0.0
H512 H 0.85402 0.62774 0.3551 0.0
H513 H 0.84109 0.62261 0.45111 0.0
H514 H 0.92515 0.63231 0.50753 0.0
H515 H 0.93769 0.63778 0.41211 0.0
H516 H 0.89653 0.62775 0.94787 0.0
H517 H 0.9054 0.63452 0.85136 0.0
H518 H 0.8208 0.61865 0.80441 0.0
H519 H 0.81235 0.61096 0.90058 0.0
Ho520 Ho 0.15041 0.1416 0.96637 0.0
Ho521 Ho 0.14503 0.11335 0.83682 0.0
C522 C 0.1491 0.07517 0.93421 0.0
C523 C 0.14834 0.15727 0.07589 0.0
C524 C 0.14326 0.14628 0.12821 0.0
C525 C 0.12801 0.16181 0.17135 0.0
C526 C 0.1252 0.15343 0.2237 0.0
C527 C 0.1377 0.12931 0.23432 0.0
C528 C 0.15228 0.11331 0.1902 0.0
C529 C 0.15505 0.1217 0.13778 0.0
C530 C 0.19614 0.14029 0.9032 0.0
C531 C 0.14073 0.18041 0.87704 0.0
C532 C 0.15728 0.09639 0.73117 0.0
C533 C 0.14934 0.10041 0.67332 0.0
C534 C 0.16078 0.08367 0.62612 0.0
C535 C 0.15649 0.08921 0.57123 0.0
C536 C 0.14071 0.11176 0.56237 0.0
C537 C 0.12847 0.12793 0.60978 0.0
C538 C 0.13278 0.12234 0.66471 0.0
C539 C 0.09435 0.12255 0.88077 0.0
O540 O 0.14532 0.09749 0.97284 0.0
O541 O 0.15247 0.07625 0.87941 0.0
O542 O 0.17058 0.14934 0.04902 0.0
O543 O 0.12761 0.15887 0.04117 0.0
O544 O 0.18952 0.16014 0.94394 0.0
O545 O 0.17872 0.12121 0.89981 0.0
O546 O 0.14729 0.15931 0.83661 0.0
O547 O 0.13633 0.17763 0.92996 0.0
O548 O 0.14028 0.08341 0.7581 0.0
O549 O 0.16849 0.11763 0.76429 0.0
O550 O 0.099 0.11091 0.82874 0.0
O551 O 0.11715 0.12859 0.90526 0.0
H552 H 0.11873 0.18083 0.16503 0.0
H553 H 0.11337 0.16602 0.25604 0.0
H554 H 0.16239 0.09474 0.19674 0.0
H555 H 0.16701 0.10932 0.10536 0.0
H556 H 0.17385 0.06681 0.63194 0.0
H557 H 0.16653 0.07651 0.5361 0.0
H558 H 0.11589 0.14522 0.60458 0.0
H559 H 0.12383 0.13559 0.70063 0.0
Ho560 Ho 0.64249 0.37627 0.55589 0.0
Ho561 Ho 0.64174 0.40489 0.68759 0.0
C562 C 0.64362 0.44315 0.58961 0.0
C563 C 0.63379 0.36033 0.44719 0.0
C564 C 0.63209 0.37153 0.39401 0.0
C565 C 0.64733 0.39454 0.38712 0.0
C566 C 0.64721 0.40316 0.33444 0.0
C567 C 0.63185 0.38895 0.28746 0.0
C568 C 0.61601 0.36642 0.29534 0.0
C569 C 0.61618 0.35783 0.34792 0.0
C570 C 0.69063 0.38041 0.61574 0.0
C571 C 0.63983 0.33784 0.64756 0.0
C572 C 0.65649 0.42271 0.793 0.0
C573 C 0.64945 0.41839 0.85037 0.0
C574 C 0.6309 0.39798 0.85761 0.0
C575 C 0.62651 0.39236 0.91203 0.0
C576 C 0.64064 0.40698 0.96036 0.0
C577 C 0.65865 0.42794 0.95282 0.0
C578 C 0.66303 0.43351 0.8984 0.0
C579 C 0.59028 0.39139 0.64582 0.0
O580 O 0.64081 0.42084 0.54973 0.0
O581 O 0.6462 0.44212 0.64496 0.0
O582 O 0.65774 0.36073 0.47231 0.0
O583 O 0.61427 0.36657 0.48341 0.0
O584 O 0.68401 0.36038 0.57436 0.0
O585 O 0.67201 0.39818 0.62089 0.0
O586 O 0.64792 0.35929 0.68664 0.0
O587 O 0.63177 0.34025 0.59542 0.0
O588 O 0.6386 0.43522 0.76539 0.0
O589 O 0.66755 0.40172 0.76031 0.0
O590 O 0.59614 0.40206 0.69846 0.0
O591 O 0.61234 0.38834 0.62026 0.0
H592 H 0.65983 0.40545 0.42205 0.0
H593 H 0.65981 0.42046 0.33012 0.0
H594 H 0.60349 0.35529 0.26074 0.0
H595 H 0.60422 0.34007 0.35226 0.0
H596 H 0.62026 0.386 0.82104 0.0
H597 H 0.61222 0.37634 0.91616 0.0
H598 H 0.67015 0.4394 0.98869 0.0
H599 H 0.67761 0.44919 0.89365 0.0
Ho600 Ho 0.38872 0.89062 0.32745 0.0
Ho601 Ho 0.36447 0.89577 0.44914 0.0
C602 C 0.32336 0.89611 0.33863 0.0
C603 C 0.40299 0.87853 0.22192 0.0
C604 C 0.39419 0.8823 0.16438 0.0
C605 C 0.40615 0.86634 0.11688 0.0
C606 C 0.39981 0.87071 0.06187 0.0
C607 C 0.38133 0.89123 0.05311 0.0
C608 C 0.36889 0.90682 0.10095 0.0
C609 C 0.37525 0.90238 0.15607 0.0
C610 C 0.3892 0.94163 0.39564 0.0
C611 C 0.42938 0.88686 0.42874 0.0
C612 C 0.34991 0.91555 0.55194 0.0
C613 C 0.35365 0.90933 0.6096 0.0
C614 C 0.33998 0.92499 0.65509 0.0
C615 C 0.34331 0.91958 0.71029 0.0
C616 C 0.36045 0.89835 0.7212 0.0
C617 C 0.37415 0.88269 0.67521 0.0
C618 C 0.37078 0.88813 0.61996 0.0
C619 C 0.37287 0.8414 0.40496 0.0
O620 O 0.34426 0.89094 0.30486 0.0
O621 O 0.32621 0.90082 0.39531 0.0
O622 O 0.4111 0.90052 0.25743 0.0
O623 O 0.38827 0.86234 0.24628 0.0
O624 O 0.40819 0.9321 0.36097 0.0
O625 O 0.37038 0.924 0.39037 0.0
O626 O 0.41066 0.89955 0.46322 0.0
O627 O 0.42327 0.8757 0.37532 0.0
O628 O 0.33514 0.89814 0.51562 0.0
O629 O 0.37158 0.9237 0.5291 0.0
O630 O 0.36366 0.85059 0.4551 0.0
O631 O 0.37743 0.86189 0.38216 0.0
H632 H 0.42092 0.85082 0.12241 0.0
H633 H 0.41007 0.85856 0.02636 0.0
H634 H 0.3543 0.92254 0.09583 0.0
H635 H 0.36572 0.91488 0.19221 0.0
H636 H 0.32664 0.94142 0.6479 0.0
H637 H 0.33213 0.93181 0.74427 0.0
H638 H 0.38777 0.86643 0.68198 0.0
H639 H 0.38159 0.87587 0.58537 0.0
H640 H 0.15232 0.58955 0.73068 0.0
H641 H 0.14305 0.67621 0.79438 0.0
H642 H 0.13618 0.68409 0.6973 0.0
H643 H 0.1336 0.66669 0.59382 0.0
H644 H 0.14299 0.58006 0.53009 0.0
H645 H 0.14988 0.57217 0.62718 0.0
C646 C 0.14902 0.61023 0.72349 0.0
C647 C 0.14815 0.6322 0.77041 0.0
C648 C 0.14537 0.61473 0.66721 0.0
C649 C 0.14339 0.65875 0.75966 0.0
C650 C 0.13967 0.66335 0.70391 0.0
C651 C 0.13695 0.64602 0.60103 0.0
C652 C 0.13781 0.62405 0.55411 0.0
C653 C 0.14065 0.64152 0.6573 0.0
C654 C 0.14264 0.5975 0.56483 0.0
C655 C 0.14636 0.5929 0.62058 0.0
H656 H 0.62749 0.85412 0.93998 0.0
H657 H 0.65479 0.93662 1.00783 0.0
H658 H 0.66266 0.94419 0.91156 0.0
H659 H 0.6606 0.92794 0.80784 0.0
H660 H 0.63338 0.8454 0.73998 0.0
H661 H 0.62582 0.83773 0.83627 0.0
C662 C 0.63499 0.87385 0.93381 0.0
C663 C 0.64051 0.89475 0.98147 0.0
C664 C 0.63919 0.87821 0.87814 0.0
C665 C 0.6507 0.91999 0.97231 0.0
C666 C 0.65499 0.92444 0.91711 0.0
C667 C 0.65324 0.90816 0.81399 0.0
C668 C 0.64753 0.88733 0.76629 0.0
C669 C 0.64921 0.90374 0.86968 0.0
C670 C 0.63756 0.86201 0.7755 0.0
C671 C 0.63343 0.85751 0.83072 0.0
H672 H 0.36403 0.36277 0.19039 0.0
H673 H 0.37295 0.44872 0.26316 0.0
H674 H 0.37931 0.45903 0.1683 0.0
H675 H 0.38158 0.4438 0.06414 0.0
H676 H 0.37271 0.35774 0.99197 0.0
H677 H 0.36626 0.3476 0.08669 0.0
C678 C 0.3671 0.38384 0.18565 0.0
C679 C 0.36793 0.40491 0.23438 0.0
C680 C 0.37051 0.38969 0.13076 0.0
C681 C 0.37252 0.43198 0.22692 0.0
C682 C 0.37597 0.43793 0.17247 0.0
C683 C 0.37842 0.42277 0.06902 0.0
C684 C 0.37756 0.40163 0.02036 0.0
C685 C 0.37498 0.41697 0.12401 0.0
C686 C 0.37303 0.37458 0.02804 0.0
C687 C 0.36956 0.36869 0.08244 0.0
H688 H 0.88936 0.09174 0.47399 0.0
H689 H 0.86739 0.1749 0.54598 0.0
H690 H 0.86596 0.18645 0.45109 0.0
H691 H 0.87061 0.17304 0.34739 0.0
H692 H 0.8926 0.08992 0.27522 0.0
H693 H 0.89354 0.0782 0.37002 0.0
C694 C 0.88396 0.11234 0.46902 0.0
C695 C 0.87856 0.13239 0.51761 0.0
C696 C 0.883 0.11887 0.41404 0.0
C697 C 0.87205 0.15908 0.50987 0.0
C698 C 0.87105 0.16569 0.45541 0.0
C699 C 0.87585 0.15239 0.35228 0.0
C700 C 0.88157 0.13245 0.30374 0.0
C701 C 0.87657 0.14579 0.40717 0.0
C702 C 0.88778 0.10568 0.31133 0.0
C703 C 0.88851 0.09897 0.36575 0.0
H704 H 0.15286 0.43144 0.33365 0.0
H705 H 0.12828 0.34818 0.26459 0.0
H706 H 0.12034 0.34016 0.36044 0.0
H707 H 0.12104 0.35637 0.46432 0.0
H708 H 0.14587 0.43953 0.53345 0.0
H709 H 0.15385 0.44756 0.43756 0.0
C710 C 0.14598 0.41143 0.33941 0.0
C711 C 0.14113 0.39051 0.29137 0.0
C712 C 0.14174 0.40679 0.39497 0.0
C713 C 0.13178 0.36489 0.30023 0.0
C714 C 0.12744 0.36018 0.35526 0.0
C715 C 0.12803 0.37634 0.45853 0.0
C716 C 0.13285 0.39727 0.50655 0.0
C717 C 0.13236 0.38096 0.40299 0.0
C718 C 0.14234 0.42285 0.49775 0.0
C719 C 0.14671 0.42756 0.44272 0.0
H720 H 0.90311 0.86061 0.69654 0.0
H721 H 0.86374 0.93696 0.76364 0.0
H722 H 0.86395 0.94967 0.6697 0.0
H723 H 0.8729 0.93794 0.56724 0.0
H724 H 0.91318 0.86192 0.50068 0.0
H725 H 0.91443 0.85008 0.59519 0.0
C726 C 0.89456 0.88003 0.69062 0.0
C727 C 0.88332 0.89772 0.73722 0.0
C728 C 0.89462 0.88718 0.63633 0.0
C729 C 0.87275 0.92302 0.72883 0.0
C730 C 0.87269 0.93023 0.67494 0.0
C731 C 0.88238 0.91898 0.57338 0.0
C732 C 0.8927 0.9008 0.52628 0.0
C733 C 0.88331 0.91235 0.6282 0.0
C734 C 0.90454 0.87613 0.53552 0.0
C735 C 0.90544 0.86938 0.58978 0.0
H736 H 0.37131 0.6673 0.86152 0.0
H737 H 0.39451 0.58452 0.78934 0.0
H738 H 0.39721 0.57321 0.88435 0.0
H739 H 0.39347 0.58676 0.98827 0.0
H740 H 0.37066 0.66959 0.06065 0.0
H741 H 0.36819 0.68103 0.96561 0.0
C742 C 0.37728 0.64685 0.86643 0.0
C743 C 0.38262 0.62683 0.81775 0.0
C744 C 0.37906 0.64048 0.9215 0.0
C745 C 0.38985 0.60031 0.8255 0.0
C746 C 0.39159 0.59384 0.88004 0.0
C747 C 0.38773 0.60728 0.98336 0.0
C748 C 0.38223 0.62723 0.032 0.0
C749 C 0.38618 0.61372 0.92836 0.0
C750 C 0.37533 0.65384 0.02441 0.0
C751 C 0.37373 0.66038 0.96988 0.0
H752 H 0.60844 0.14129 0.06977 0.0
H753 H 0.68654 0.10669 0.02091 0.0
H754 H 0.69657 0.10189 0.11914 0.0
H755 H 0.68354 0.1081 0.21934 0.0
H756 H 0.6055 0.14283 0.26821 0.0
H757 H 0.5955 0.14771 0.17001 0.0
C758 C 0.6278 0.13297 0.08059 0.0
C759 C 0.64667 0.12438 0.03761 0.0
C760 C 0.63356 0.13044 0.13739 0.0
C761 C 0.67143 0.11316 0.05265 0.0
C762 C 0.67728 0.11056 0.10901 0.0
C763 C 0.66422 0.11651 0.20851 0.0
C764 C 0.64532 0.12506 0.25145 0.0
C765 C 0.65849 0.1191 0.15174 0.0
C766 C 0.6206 0.13637 0.23647 0.0
C767 C 0.61478 0.13901 0.18013 0.0
H768 H 0.84008 0.42395 0.31154 0.0
H769 H 0.88188 0.34902 0.24389 0.0
H770 H 0.89008 0.3405 0.34019 0.0
H771 H 0.88618 0.3547 0.44399 0.0
H772 H 0.84428 0.42961 0.51122 0.0
H773 H 0.83453 0.43712 0.41478 0.0
C774 C 0.85064 0.40552 0.31763 0.0
C775 C 0.86045 0.38727 0.27015 0.0
C776 C 0.85513 0.40059 0.37322 0.0
C777 C 0.87448 0.36373 0.27941 0.0
C778 C 0.87903 0.35871 0.33456 0.0
C779 C 0.87493 0.37269 0.43759 0.0
C780 C 0.86602 0.39153 0.4851 0.0
C781 C 0.86965 0.37712 0.38185 0.0
C782 C 0.8511 0.41452 0.47571 0.0
C783 C 0.8457 0.41899 0.42045 0.0
H784 H 0.34511 0.15632 0.23665 0.0
H785 H 0.40706 0.09634 0.25089 0.0
H786 H 0.41702 0.09294 0.15045 0.0
H787 H 0.40782 0.10631 0.05789 0.0
H788 H 0.34606 0.16644 0.04336 0.0
H789 H 0.3358 0.16962 0.14372 0.0
C790 C 0.36067 0.14234 0.21781 0.0
C791 C 0.37536 0.12672 0.2519 0.0
C792 C 0.36617 0.14024 0.15955 0.0
C793 C 0.39571 0.10902 0.22641 0.0
C794 C 0.40129 0.10686 0.16865 0.0
C795 C 0.39224 0.12031 0.07662 0.0
C796 C 0.37778 0.13609 0.04256 0.0
C797 C 0.38666 0.12235 0.13477 0.0
C798 C 0.35731 0.15369 0.06786 0.0
C799 C 0.35156 0.15573 0.12557 0.0
H800 H 0.6525 0.58287 0.95927 0.0
H801 H 0.61507 0.65972 0.03122 0.0
H802 H 0.61265 0.67236 0.93748 0.0
H803 H 0.62173 0.66212 0.83508 0.0
H804 H 0.65863 0.58516 0.76255 0.0
H805 H 0.65982 0.57178 0.85591 0.0
C806 C 0.64345 0.60223 0.95449 0.0
C807 C 0.6342 0.62035 1.00287 0.0
C808 C 0.64187 0.60935 0.90007 0.0
C809 C 0.62288 0.64552 0.99537 0.0
C810 C 0.6213 0.65272 0.94153 0.0
C811 C 0.63013 0.64244 0.83964 0.0
C812 C 0.64018 0.62476 0.79159 0.0
C813 C 0.63094 0.63493 0.89365 0.0
C814 C 0.6505 0.59912 0.79842 0.0
C815 C 0.65137 0.59152 0.85201 0.0
H816 H 0.16056 0.93424 0.57178 0.0
H817 H 0.10324 0.87063 0.49944 0.0
H818 H 0.09789 0.85865 0.59278 0.0
H819 H 0.10988 0.8655 0.6951 0.0
H820 H 0.16599 0.92991 0.76839 0.0
H821 H 0.17069 0.94271 0.67519 0.0
C822 C 0.14657 0.91801 0.57634 0.0
C823 C 0.1326 0.90324 0.52782 0.0
C824 C 0.14324 0.91137 0.63066 0.0
C825 C 0.11482 0.88205 0.53524 0.0
C826 C 0.11155 0.87526 0.5889 0.0
C827 C 0.12319 0.88231 0.69071 0.0
C828 C 0.13765 0.8966 0.73891 0.0
C829 C 0.12583 0.88959 0.63685 0.0
C830 C 0.15443 0.91865 0.73235 0.0
C831 C 0.15727 0.92589 0.67887 0.0
H832 H 0.84285 0.59823 0.71907 0.0
H833 H 0.89699 0.66537 0.78744 0.0
H834 H 0.9071 0.67137 0.69125 0.0
H835 H 0.90085 0.65756 0.58767 0.0
H836 H 0.84639 0.59088 0.51881 0.0
H837 H 0.8355 0.58533 0.61522 0.0
C838 C 0.8566 0.61441 0.71308 0.0
C839 C 0.86924 0.63119 0.76079 0.0
C840 C 0.86217 0.61797 0.65746 0.0
C841 C 0.88731 0.65179 0.75178 0.0
C842 C 0.89298 0.65539 0.69668 0.0
C843 C 0.88671 0.64169 0.59369 0.0
C844 C 0.87459 0.62457 0.54593 0.0
C845 C 0.88067 0.6385 0.64922 0.0
C846 C 0.85588 0.60449 0.55469 0.0
C847 C 0.84976 0.60119 0.60986 0.0
H848 H 0.1346 0.07771 0.45808 0.0
H849 H 0.14248 0.16309 0.53655 0.0
H850 H 0.14134 0.17592 0.44299 0.0
H851 H 0.14027 0.16302 0.3388 0.0
H852 H 0.13236 0.07778 0.25947 0.0
H853 H 0.13209 0.06487 0.35319 0.0
C854 C 0.13613 0.09913 0.45477 0.0
C855 C 0.13855 0.11936 0.50471 0.0
C856 C 0.13575 0.10644 0.40051 0.0
C857 C 0.14016 0.14704 0.49924 0.0
C858 C 0.13974 0.15443 0.44558 0.0
C859 C 0.13805 0.14162 0.34179 0.0
C860 C 0.13637 0.12146 0.2917 0.0
C861 C 0.13774 0.13431 0.39591 0.0
C862 C 0.13407 0.09379 0.29698 0.0
C863 C 0.13375 0.08637 0.35069 0.0
H864 H 0.6324 0.35541 0.18274 0.0
H865 H 0.63375 0.44084 0.2628 0.0
H866 H 0.63643 0.45395 0.16954 0.0
H867 H 0.63832 0.4412 0.06476 0.0
H868 H 0.63677 0.35563 0.98555 0.0
H869 H 0.6334 0.34273 0.07861 0.0
C870 C 0.6329 0.37694 0.17996 0.0
C871 C 0.63286 0.39704 0.2302 0.0
C872 C 0.63422 0.38439 0.12606 0.0
C873 C 0.6341 0.42483 0.22525 0.0
C874 C 0.63547 0.43238 0.17176 0.0
C875 C 0.63736 0.41972 0.0678 0.0
C876 C 0.6377 0.39948 1.01775 0.0
C877 C 0.63564 0.41234 0.12182 0.0
C878 C 0.63609 0.37175 0.02289 0.0
C879 C 0.63438 0.3643 0.07629 0.0
H880 H 0.37518 0.85439 0.95285 0.0
H881 H 0.37582 0.9412 0.02131 0.0
H882 H 0.36907 0.951 0.92561 0.0
H883 H 0.36454 0.93509 0.82197 0.0
H884 H 0.3639 0.84827 0.75344 0.0
H885 H 0.36985 0.83845 0.84929 0.0
C886 C 0.37398 0.87548 0.9469 0.0
C887 C 0.37601 0.89699 0.99458 0.0
C888 C 0.37038 0.88102 0.89151 0.0
C889 C 0.37395 0.92417 0.98578 0.0
C890 C 0.3703 0.92982 0.93089 0.0
C891 C 0.3654 0.91399 0.82792 0.0
C892 C 0.36386 0.89249 0.78014 0.0
C893 C 0.36862 0.90843 0.88338 0.0
C894 C 0.36547 0.8653 0.78903 0.0
C895 C 0.36868 0.85963 0.844 0.0
H896 H 0.17675 0.72709 0.2118 0.0
H897 H 0.10014 0.7009 0.12849 0.0
H898 H 0.08972 0.74824 0.11989 0.0
H899 H 0.10435 0.79687 0.12886 0.0
H900 H 0.17924 0.82336 0.21968 0.0
H901 H 0.18828 0.77652 0.23292 0.0
C902 C 0.15752 0.7319 0.19291 0.0
C903 C 0.13926 0.71051 0.17085 0.0
C904 C 0.15148 0.7593 0.18894 0.0
C905 C 0.11443 0.717 0.14635 0.0
C906 C 0.10857 0.74408 0.14096 0.0
C907 C 0.12244 0.79238 0.1522 0.0
C908 C 0.14119 0.81359 0.17293 0.0
C909 C 0.12722 0.76535 0.16095 0.0
C910 C 0.16442 0.80751 0.20355 0.0
C911 C 0.16968 0.78065 0.21089 0.0
H912 H 0.55358 0.91755 0.47637 0.0
H913 H 0.56136 0.83595 0.378 0.0
H914 H 0.51262 0.82874 0.38069 0.0
H915 H 0.46714 0.84766 0.39845 0.0
H916 H 0.45769 0.92896 0.49648 0.0
H917 H 0.50723 0.93419 0.50702 0.0
C918 C 0.54464 0.89791 0.45738 0.0
C919 C 0.5612 0.87724 0.42721 0.0
C920 C 0.5161 0.89402 0.45806 0.0
C921 C 0.54917 0.85211 0.40171 0.0
C922 C 0.5212 0.84803 0.40282 0.0
C923 C 0.47591 0.8663 0.42328 0.0
C924 C 0.45869 0.88791 0.44639 0.0
C925 C 0.50435 0.86914 0.42893 0.0
C926 C 0.47042 0.9119 0.47859 0.0
C927 C 0.49882 0.91497 0.48419 0.0
H928 H 0.41219 0.3008 0.62051 0.0
H929 H 0.33322 0.32471 0.68397 0.0
H930 H 0.32599 0.2789 0.70537 0.0
H931 H 0.33964 0.22994 0.69314 0.0
H932 H 0.41915 0.20646 0.63202 0.0
H933 H 0.42885 0.2538 0.62339 0.0
C934 C 0.39392 0.29631 0.64138 0.0
C935 C 0.37354 0.31649 0.65197 0.0
C936 C 0.38981 0.26965 0.653 0.0
C937 C 0.34955 0.30994 0.67701 0.0
C938 C 0.34525 0.28353 0.68843 0.0
C939 C 0.35936 0.23536 0.67939 0.0
C940 C 0.37871 0.21449 0.66351 0.0
C941 C 0.36484 0.26289 0.67476 0.0
C942 C 0.40407 0.22196 0.6454 0.0
C943 C 0.40952 0.24911 0.63993 0.0
H944 H 0.97568 0.08771 0.9241 0.0
H945 H 0.96088 0.17358 0.92878 0.0
H946 H 1.0098 0.18194 0.92563 0.0
H947 H 0.05672 0.1635 0.90892 0.0
H948 H 0.0707 0.0776 0.90501 0.0
H949 H 0.02268 0.07067 0.92134 0.0
C950 C 0.9832 0.10837 0.92572 0.0
C951 C 0.9645 0.12992 0.92637 0.0
C952 C 0.01143 0.11301 0.92381 0.0
C953 C 0.97468 0.15658 0.9285 0.0
C954 C 1.00274 0.16135 0.92631 0.0
C955 C 0.04936 0.14353 0.91381 0.0
C956 C 0.06742 0.12114 0.90681 0.0
C957 C 0.02134 0.13959 0.92236 0.0
C958 C 0.05738 0.09521 0.91138 0.0
C959 C 0.02981 0.09119 0.92013 0.0
H960 H 0.17459 0.29885 0.84274 0.0
H961 H 0.09857 0.31952 0.92444 0.0
H962 H 0.0898 0.27102 0.9249 0.0
H963 H 0.10584 0.22289 0.90966 0.0
H964 H 0.17976 0.20172 0.81995 0.0
H965 H 0.18715 0.24989 0.81432 0.0
C966 C 0.15587 0.2926 0.85954 0.0
C967 C 0.1373 0.31275 0.88367 0.0
C968 C 0.15068 0.26453 0.85852 0.0
C969 C 0.11309 0.30442 0.90528 0.0
C970 C 0.10816 0.27667 0.90589 0.0
C971 C 0.12328 0.22882 0.88795 0.0
C972 C 0.14228 0.20876 0.86539 0.0
C973 C 0.12708 0.25657 0.88376 0.0
C974 C 0.16473 0.2167 0.8372 0.0
C975 C 0.16907 0.2443 0.83435 0.0
H976 H 0.0529 0.91533 0.08252 0.0
H977 H 0.06424 0.85331 0.18494 0.0
H978 H 0.0154 0.84466 0.18161 0.0
H979 H 0.96918 0.86078 0.16506 0.0
H980 H 0.95679 0.9232 0.06434 0.0
H981 H 1.00588 0.92537 0.05037 0.0
C982 C 0.04471 0.89911 0.10186 0.0
C983 C 0.06227 0.88465 0.13327 0.0
C984 C 0.01624 0.89465 0.1008 0.0
C985 C 0.05125 0.86433 0.15974 0.0
C986 C 0.02324 0.85959 0.15834 0.0
C987 C 0.97716 0.87398 0.13793 0.0
C988 C 0.95932 0.89149 0.11499 0.0
C989 C 1.00545 0.87542 0.13113 0.0
C990 C 0.96999 0.90904 0.08125 0.0
C991 C 0.99816 0.91055 0.07402 0.0
H992 H 0.36232 0.71241 0.32988 0.0
H993 H 0.42377 0.71727 0.46343 0.0
H994 H 0.42696 0.76658 0.47067 0.0
H995 H 0.40832 0.80932 0.44911 0.0
H996 H 0.34769 0.80664 0.31552 0.0
H997 H 0.34832 0.75616 0.29783 0.0
C998 C 0.37692 0.72419 0.35932 0.0
C999 C 0.39262 0.71088 0.39645 0.0
C1000 C 0.37861 0.75322 0.36382 0.0
C1001 C 0.41123 0.72676 0.43469 0.0
C1002 C 0.41307 0.75513 0.43907 0.0
C1003 C 0.39588 0.79767 0.41484 0.0
C1004 C 0.37828 0.81177 0.38319 0.0
C1005 C 0.39628 0.76873 0.40533 0.0
C1006 C 0.36187 0.79634 0.33971 0.0
C1007 C 0.36203 0.7674 0.33009 0.0
H1008 H 0.55481 0.16822 0.62213 0.0
H1009 H 0.56282 0.08467 0.5353 0.0
H1010 H 0.51317 0.08076 0.52228 0.0
H1011 H 0.46684 0.09965 0.54865 0.0
H1012 H 0.46089 0.18343 0.63648 0.0
H1013 H 0.5098 0.1889 0.63475 0.0
C1014 C 0.54574 0.14938 0.59885 0.0
C1015 C 0.56256 0.12683 0.57954 0.0
C1016 C 0.51725 0.14731 0.59191 0.0
C1017 C 0.55043 0.10249 0.54987 0.0
C1018 C 0.52194 0.10019 0.54299 0.0
C1019 C 0.47622 0.11936 0.5653 0.0
C1020 C 0.45993 0.1413 0.59189 0.0
C1021 C 0.50498 0.12225 0.56542 0.0
C1022 C 0.47266 0.16642 0.61484 0.0
C1023 C 0.50081 0.16949 0.61449 0.0
H1024 H 0.85972 0.21463 0.81823 0.0
H1025 H 0.92777 0.22296 0.93752 0.0
H1026 H 0.92921 0.27216 0.94023 0.0
H1027 H 0.90703 0.31373 0.92077 0.0
H1028 H 0.8382 0.30716 0.80466 0.0
H1029 H 0.84127 0.25688 0.78793 0.0
C1030 C 0.8753 0.22715 0.84344 0.0
C1031 C 0.89351 0.21502 0.87796 0.0
C1032 C 0.8757 0.25597 0.84582 0.0
C1033 C 0.91337 0.23169 0.91094 0.0
C1034 C 0.9142 0.25993 0.91265 0.0
C1035 C 0.89339 0.30126 0.89007 0.0
C1036 C 0.8728 0.31412 0.86306 0.0
C1037 C 0.89491 0.27244 0.88197 0.0
C1038 C 0.85467 0.29774 0.82482 0.0
C1039 C 0.85623 0.26894 0.81589 0.0
H1040 H 0.67519 0.79278 0.31172 0.0
H1041 H 0.60745 0.82039 0.41727 0.0
H1042 H 0.59749 0.77321 0.42655 0.0
H1043 H 0.61046 0.72429 0.41134 0.0
H1044 H 0.67577 0.69589 0.2994 0.0
H1045 H 0.68411 0.74277 0.28546 0.0
C1046 C 0.65791 0.78831 0.33564 0.0
C1047 C 0.64198 0.81004 0.36348 0.0
C1048 C 0.65202 0.76092 0.3401 0.0
C1049 C 0.61975 0.80401 0.39471 0.0
C1050 C 0.6142 0.77702 0.40047 0.0
C1051 C 0.62625 0.72835 0.38325 0.0
C1052 C 0.64259 0.70663 0.35676 0.0
C1053 C 0.63053 0.75534 0.37436 0.0
C1054 C 0.66282 0.71218 0.32008 0.0
C1055 C 0.66771 0.73905 0.31235 0.0
H1056 H 0.91209 0.71516 0.10598 0.0
H1057 H 0.85243 0.71638 0.23426 0.0
H1058 H 0.85307 0.76683 0.25348 0.0
H1059 H 0.86582 0.81068 0.22235 0.0
H1060 H 0.92527 0.80745 0.0921 0.0
H1061 H 0.92984 0.75826 0.08588 0.0
C1062 C 0.9 0.72651 0.13969 0.0
C1063 C 0.88259 0.71207 0.16928 0.0
C1064 C 0.90011 0.7554 0.14945 0.0
C1065 C 0.86652 0.72701 0.21188 0.0
C1066 C 0.86661 0.75591 0.22222 0.0
C1067 C 0.88029 0.79928 0.19385 0.0
C1068 C 0.89494 0.81287 0.15721 0.0
C1069 C 0.88262 0.77041 0.18973 0.0
C1070 C 0.91347 0.79761 0.12025 0.0
C1071 C 0.91611 0.76937 0.11655 0.0
H1072 H 0.68067 0.22261 0.69168 0.0
H1073 H 0.60215 0.19722 0.61692 0.0
H1074 H 0.59127 0.24477 0.61089 0.0
H1075 H 0.60576 0.2934 0.61976 0.0
H1076 H 0.6827 0.31914 0.70235 0.0
H1077 H 0.69245 0.272 0.71282 0.0
C1078 C 0.66097 0.22763 0.67517 0.0
C1079 C 0.64227 0.2064 0.65474 0.0
C1080 C 0.65468 0.25515 0.67275 0.0
C1081 C 0.61681 0.21317 0.63342 0.0
C1082 C 0.61068 0.24037 0.62952 0.0
C1083 C 0.62447 0.28868 0.64072 0.0
C1084 C 0.64356 0.30975 0.65996 0.0
C1085 C 0.62968 0.2615 0.64793 0.0
C1086 C 0.66762 0.30337 0.68748 0.0
C1087 C 0.67327 0.27636 0.69321 0.0
H1088 H 0.96139 0.41617 0.98981 0.0
H1089 H 0.95208 0.33541 0.88709 0.0
H1090 H 1.00097 0.32854 0.89078 0.0
H1091 H 0.04655 0.34822 0.90906 0.0
H1092 H 0.05741 0.42887 1.01072 0.0
H1093 H 1.00809 0.43303 0.0223 0.0
C1094 C 0.97007 0.39673 0.97021 0.0
C1095 C 0.95311 0.37628 0.93822 0.0
C1096 C 0.99859 0.39313 0.97132 0.0
C1097 C 0.96468 0.35139 0.91203 0.0
C1098 C 0.99269 0.34753 0.91373 0.0
C1099 C 0.03814 0.36642 0.93504 0.0
C1100 C 0.05552 0.38825 0.95871 0.0
C1101 C 1.00989 0.36866 0.94105 0.0
C1102 C 0.04444 0.41169 0.9924 0.0
C1103 C 0.0162 0.41415 0.99856 0.0
H1104 H 0.47705 0.59092 0.45722 0.0
H1105 H 0.45684 0.67167 0.42819 0.0
H1106 H 0.50498 0.68162 0.41848 0.0
H1107 H 0.55222 0.66441 0.40325 0.0
H1108 H 0.57215 0.58408 0.43475 0.0
H1109 H 0.52515 0.57704 0.45939 0.0
C1110 C 0.48329 0.611 0.45054 0.0
C1111 C 0.46332 0.63047 0.44331 0.0
C1112 C 0.51109 0.61656 0.44494 0.0
C1113 C 0.47172 0.65637 0.43441 0.0
C1114 C 0.49931 0.66197 0.42829 0.0
C1115 C 0.54642 0.64586 0.41777 0.0
C1116 C 0.56573 0.62493 0.41806 0.0
C1117 C 0.51912 0.64187 0.43146 0.0
C1118 C 0.5578 0.60067 0.43535 0.0
C1119 C 0.53082 0.59652 0.44881 0.0
H1120 H 0.46893 0.35611 0.64426 0.0
H1121 H 0.46087 0.41004 0.52318 0.0
H1122 H 0.51054 0.4137 0.52043 0.0
H1123 H 0.55623 0.40664 0.56401 0.0
H1124 H 0.56253 0.35362 0.68726 0.0
H1125 H 0.51392 0.34413 0.67699 0.0
C1126 C 0.47803 0.36824 0.61632 0.0
C1127 C 0.46118 0.38295 0.58432 0.0
C1128 C 0.50647 0.37047 0.61561 0.0
C1129 C 0.47333 0.39839 0.54803 0.0
C1130 C 0.50178 0.40066 0.54687 0.0
C1131 C 0.54701 0.39226 0.58691 0.0
C1132 C 0.56299 0.38055 0.62595 0.0
C1133 C 0.5186 0.38748 0.58193 0.0
C1134 C 0.5507 0.36258 0.65657 0.0
C1135 C 0.52285 0.35733 0.65107 0.0
H1136 H 0.05227 0.6718 0.13632 0.0
H1137 H 0.06222 0.5888 0.04767 0.0
H1138 H 0.01274 0.58405 0.03249 0.0
H1139 H 0.96607 0.60181 0.05791 0.0
H1140 H 0.95786 0.68506 0.14761 0.0
H1141 H 1.00683 0.69161 0.14784 0.0
C1142 C 0.04365 0.65292 0.1122 0.0
C1143 C 0.06091 0.63071 0.09307 0.0
C1144 C 0.01527 0.65034 0.10423 0.0
C1145 C 0.04944 0.60633 0.06216 0.0
C1146 C 0.02107 0.60354 0.05407 0.0
C1147 C 0.975 0.62163 0.07557 0.0
C1148 C 0.95823 0.64299 0.10262 0.0
C1149 C 1.00364 0.62515 0.07662 0.0
C1150 C 0.97023 0.66836 0.12642 0.0
C1151 C 0.99831 0.67208 0.12693 0.0
H1152 H 0.09729 0.54572 0.09921 0.0
H1153 H 0.18412 0.55619 0.10656 0.0
H1154 H 0.18892 0.51434 0.03452 0.0
H1155 H 0.16811 0.47458 0.96756 0.0
H1156 H 0.08093 0.46695 0.95634 0.0
H1157 H 0.07664 0.50734 0.03117 0.0
C1158 C 0.11729 0.53876 0.08528 0.0
C1159 C 0.14033 0.554 0.10879 0.0
C1160 C 0.11983 0.515 0.04274 0.0
C1161 C 0.16604 0.54485 0.08944 0.0
C1162 C 0.16879 0.52087 0.04815 0.0
C1163 C 0.14823 0.48177 0.98169 0.0
C1164 C 0.12487 0.4676 0.95621 0.0
C1165 C 0.14581 0.50572 0.02423 0.0
C1166 C 0.09925 0.4774 0.97483 0.0
C1167 C 0.09675 0.50056 1.01783 0.0
H1168 H 0.70817 0.89705 0.21848 0.0
H1169 H 0.74631 0.88965 0.37936 0.0
H1170 H 0.79081 0.88597 0.33525 0.0
H1171 H 0.81873 0.88213 0.24911 0.0
H1172 H 0.78094 0.89257 0.09022 0.0
H1173 H 0.73651 0.89688 0.13466 0.0
C1174 C 0.72619 0.89483 0.24419 0.0
C1175 C 0.72361 0.89358 0.30253 0.0
C1176 C 0.75187 0.89303 0.21856 0.0
C1177 C 0.74744 0.89082 0.3347 0.0
C1178 C 0.77298 0.88858 0.3093 0.0
C1179 C 0.80105 0.88655 0.22479 0.0
C1180 C 0.80351 0.88806 0.16666 0.0
C1181 C 0.77549 0.88949 0.25113 0.0
C1182 C 0.7798 0.89177 0.13508 0.0
C1183 C 0.75434 0.89422 0.16056 0.0
H1184 H 0.42161 0.48431 0.6019 0.0
H1185 H 0.3464 0.44726 0.53051 0.0
H1186 H 0.34091 0.48276 0.47234 0.0
H1187 H 0.35608 0.52694 0.44603 0.0
H1188 H 0.43044 0.56432 0.52203 0.0
H1189 H 0.43762 0.52658 0.57297 0.0
C1190 C 0.40407 0.48385 0.57337 0.0
C1191 C 0.38448 0.46287 0.57092 0.0
C1192 C 0.40084 0.50471 0.54046 0.0
C1193 C 0.36193 0.46288 0.53343 0.0
C1194 C 0.35873 0.48336 0.5001 0.0
C1195 C 0.37415 0.52645 0.47268 0.0
C1196 C 0.3929 0.5485 0.47936 0.0
C1197 C 0.37789 0.50469 0.50359 0.0
C1198 C 0.41579 0.54768 0.5155 0.0
C1199 C 0.41987 0.52609 0.54506 0.0
H1200 H 0.81803 0.11038 0.79854 0.0
H1201 H 0.78987 0.17507 0.92999 0.0
H1202 H 0.74623 0.17516 0.87963 0.0
H1203 H 0.71566 0.15742 0.79797 0.0
H1204 H 0.74437 0.0958 0.6612 0.0
H1205 H 0.78793 0.09434 0.7128 0.0
C1206 C 0.80244 0.12454 0.81604 0.0
C1207 C 0.80753 0.14265 0.86849 0.0
C1208 C 0.77732 0.12519 0.78548 0.0
C1209 C 0.78679 0.16086 0.89004 0.0
C1210 C 0.76169 0.16097 0.86111 0.0
C1211 C 0.73142 0.14366 0.77923 0.0
C1212 C 0.72645 0.12665 0.72556 0.0
C1213 C 0.75669 0.14333 0.80872 0.0
C1214 C 0.74745 0.10922 0.70212 0.0
C1215 C 0.77242 0.10829 0.73188 0.0
H1216 H 0.92377 0.5444 0.09376 0.0
H1217 H 0.83783 0.55962 0.08602 0.0
H1218 H 0.83133 0.51781 1.01434 0.0
H1219 H 0.85017 0.47683 0.95182 0.0
H1220 H 0.93657 0.46378 0.95418 0.0
H1221 H 0.94274 0.50425 0.02937 0.0
C1222 C 0.90362 0.53848 0.07652 0.0
C1223 C 0.8813 0.55513 0.09572 0.0
C1224 C 0.90009 0.51461 0.03401 0.0
C1225 C 0.85538 0.54725 0.07224 0.0
C1226 C 0.85163 0.52327 0.03115 0.0
C1227 C 0.8703 0.48281 0.96904 0.0
C1228 C 0.89286 0.46714 0.94736 0.0
C1229 C 0.87382 0.50675 1.01147 0.0
C1230 C 0.91885 0.47542 0.96983 0.0
C1231 C 0.92241 0.49862 1.01298 0.0
H1232 H 0.21305 0.10438 0.80514 0.0
H1233 H 0.23679 0.17744 0.92436 0.0
H1234 H 0.27786 0.18095 0.87205 0.0
H1235 H 0.30752 0.16393 0.79233 0.0
H1236 H 0.28239 0.09448 0.66528 0.0
H1237 H 0.2413 0.0896 0.71882 0.0
C1238 C 0.22686 0.1214 0.81898 0.0
C1239 C 0.22128 0.14082 0.86878 0.0
C1240 C 0.25031 0.12413 0.78676 0.0
C1241 C 0.24016 0.1622 0.88646 0.0
C1242 C 0.26379 0.16432 0.85634 0.0
C1243 C 0.29297 0.14782 0.77595 0.0
C1244 C 0.29825 0.12959 0.72461 0.0
C1245 C 0.2691 0.14553 0.80636 0.0
C1246 C 0.27891 0.10897 0.70424 0.0
C1247 C 0.25544 0.10606 0.73523 0.0
H1248 H 0.64787 0.5652 0.54295 0.0
H1249 H 0.64077 0.52208 0.36877 0.0
H1250 H 0.64001 0.47836 0.40183 0.0
H1251 H 0.64093 0.45228 0.47988 0.0
H1252 H 0.64799 0.49528 0.65424 0.0
H1253 H 0.64896 0.53906 0.62121 0.0
C1254 C 0.64602 0.54633 0.51197 0.0
C1255 C 0.64425 0.54727 0.45309 0.0
C1256 C 0.64555 0.52113 0.53139 0.0
C1257 C 0.64218 0.52229 0.41413 0.0
C1258 C 0.6417 0.49718 0.43311 0.0
C1259 C 0.64271 0.47114 0.51099 0.0
C1260 C 0.64438 0.47017 0.56989 0.0
C1261 C 0.64331 0.49634 0.49163 0.0
C1262 C 0.64668 0.49512 0.60888 0.0
C1263 C 0.64724 0.52025 0.58992 0.0
H1264 H 0.30416 0.86148 0.24496 0.0
H1265 H 0.28127 0.93261 0.36649 0.0
H1266 H 0.2389 0.93604 0.31129 0.0
H1267 H 0.20911 0.91955 0.22464 0.0
H1268 H 0.23092 0.84497 0.11132 0.0
H1269 H 0.273 0.84272 0.1656 0.0
C1270 C 0.28979 0.87763 0.25977 0.0
C1271 C 0.29602 0.89679 0.30988 0.0
C1272 C 0.26529 0.87907 0.2285 0.0
C1273 C 0.277 0.91744 0.32845 0.0
C1274 C 0.25282 0.91951 0.29651 0.0
C1275 C 0.22272 0.90247 0.21264 0.0
C1276 C 0.21635 0.88225 0.16391 0.0
C1277 C 0.24677 0.90054 0.24599 0.0
C1278 C 0.23495 0.86081 0.14837 0.0
C1279 C 0.25914 0.85942 0.17961 0.0
H1280 H 0.67275 0.97185 0.44698 0.0
H1281 H 0.58572 0.96283 0.43376 0.0
H1282 H 0.5806 1.00256 0.50995 0.0
H1283 H 0.60054 0.04092 0.57965 0.0
H1284 H 0.68724 0.05255 0.58869 0.0
H1285 H 0.69277 0.01128 0.51567 0.0
C1286 C 0.65271 0.97859 0.46097 0.0
C1287 C 0.62966 0.96425 0.43447 0.0
C1288 C 0.64981 1.00212 0.50432 0.0
C1289 C 0.60383 0.97345 0.45297 0.0
C1290 C 0.60085 0.99622 0.49678 0.0
C1291 C 0.62066 0.03431 0.56591 0.0
C1292 C 0.64346 0.04974 0.59015 0.0
C1293 C 0.62364 1.01086 0.52266 0.0
C1294 C 0.66934 0.04105 0.57102 0.0
C1295 C 0.67251 0.01741 0.52914 0.0
H1296 H 0.20096 0.38551 0.73799 0.0
H1297 H 0.23895 0.40846 0.90505 0.0
H1298 H 0.2833 0.40861 0.86191 0.0
H1299 H 0.31141 0.40221 0.77755 0.0
H1300 H 0.27409 0.37957 0.60983 0.0
H1301 H 0.22944 0.37931 0.65265 0.0
C1302 C 0.2189 0.39059 0.76516 0.0
C1303 C 0.21636 0.39698 0.82512 0.0
C1304 C 0.24453 0.39066 0.73991 0.0
C1305 C 0.24003 0.40351 0.85908 0.0
C1306 C 0.2655 0.40356 0.83434 0.0
C1307 C 0.29362 0.39715 0.74993 0.0
C1308 C 0.2964 0.39087 0.69007 0.0
C1309 C 0.26801 0.39714 0.77487 0.0
C1310 C 0.27281 0.38447 0.65576 0.0
C1311 C 0.2472 0.38434 0.68035 0.0
H1312 H 0.87551 0.95755 0.98878 0.0
H1313 H 0.88437 0.99991 0.16313 0.0
H1314 H 0.88571 0.04385 0.13048 0.0
H1315 H 0.88493 0.07029 0.05229 0.0
H1316 H 0.87618 0.02757 0.87803 0.0
H1317 H 0.87458 0.98378 0.91092 0.0
C1318 C 0.87793 0.97627 0.01996 0.0
C1319 C 0.88004 0.97502 0.07874 0.0
C1320 C 0.87878 1.00152 1.00073 0.0
C1321 C 0.88272 0.9999 0.11786 0.0
C1322 C 0.88354 0.02513 0.09907 0.0
C1323 C 0.88264 0.05147 0.02122 0.0
C1324 C 0.88069 0.05255 0.96229 0.0
C1325 C 0.88167 0.02621 0.04057 0.0
C1326 C 0.87774 0.02767 0.92334 0.0
C1327 C 0.87682 1.00252 0.94225 0.0
H1328 H 0.23854 0.59707 0.22041 0.0
H1329 H 0.21146 0.67872 0.28966 0.0
H1330 H 0.25149 0.68632 0.35301 0.0
H1331 H 0.29336 0.66939 0.39279 0.0
H1332 H 0.31958 0.58685 0.32942 0.0
H1333 H 0.2813 0.58005 0.26057 0.0
C1334 C 0.24172 0.61665 0.24866 0.0
C1335 C 0.22205 0.63744 0.24959 0.0
C1336 C 0.26467 0.62068 0.28679 0.0
C1337 C 0.22626 0.66244 0.28765 0.0
C1338 C 0.24915 0.66679 0.3242 0.0
C1339 C 0.29077 0.64991 0.36385 0.0
C1340 C 0.30964 0.62877 0.36624 0.0
C1341 C 0.26833 0.64597 0.32488 0.0
C1342 C 0.3057 0.60365 0.32834 0.0
C1343 C 0.28366 0.59971 0.28891 0.0
H1344 H 0.34917 0.97353 0.45419 0.0
H1345 H 0.43594 0.96716 0.43866 0.0
H1346 H 0.44224 1.00869 0.51079 0.0
H1347 H 0.42334 0.04782 0.57793 0.0
H1348 H 0.33662 0.05678 0.58823 0.0
H1349 H 0.33012 0.01388 0.51937 0.0
C1350 C 0.36943 0.98122 0.46678 0.0
C1351 C 0.39205 0.96698 0.44088 0.0
C1352 C 0.37296 1.00585 0.50762 0.0
C1353 C 0.41813 0.97754 0.45753 0.0
C1354 C 0.42179 1.00139 0.49899 0.0
C1355 C 0.40301 0.04032 0.56529 0.0
C1356 C 0.3805 0.05554 0.58888 0.0
C1357 C 0.3994 0.01586 0.52427 0.0
C1358 C 0.35433 0.04559 0.57109 0.0
C1359 C 0.3506 0.02096 0.53159 0.0
H1360 H 0.81113 0.61595 0.30077 0.0
H1361 H 0.77436 0.64444 0.15691 0.0
H1362 H 0.73049 0.64828 0.20387 0.0
H1363 H 0.70293 0.64584 0.2889 0.0
H1364 H 0.74005 0.61608 0.43061 0.0
H1365 H 0.78345 0.61099 0.38217 0.0
C1366 C 0.79358 0.623 0.27943 0.0
C1367 C 0.79634 0.63012 0.22527 0.0
C1368 C 0.7684 0.62507 0.30667 0.0
C1369 C 0.77304 0.63877 0.19835 0.0
C1370 C 0.7479 0.64109 0.22541 0.0
C1371 C 0.72038 0.63763 0.30844 0.0
C1372 C 0.71815 0.6308 0.36291 0.0
C1373 C 0.74535 0.63454 0.27988 0.0
C1374 C 0.74118 0.62112 0.38855 0.0
C1375 C 0.766 0.61826 0.36084 0.0
H1376 H 0.14456 0.06694 0.04392 0.0
H1377 H 0.1549 0.02258 0.87251 0.0
H1378 H 0.1554 0.97931 0.90789 0.0
H1379 H 0.15282 0.95405 0.9874 0.0
H1380 H 0.14213 0.99853 0.15848 0.0
H1381 H 0.14243 0.04178 0.12327 0.0
C1382 C 0.147 0.0479 1.01393 0.0
C1383 C 0.14969 0.04835 0.95512 0.0
C1384 C 0.14734 0.02303 0.0347 0.0
C1385 C 0.15279 0.02316 0.91769 0.0
C1386 C 0.15309 0.99833 0.93804 0.0
C1387 C 0.15032 0.9731 1.0172 0.0
C1388 C 0.14715 0.97266 0.07586 0.0
C1389 C 0.15032 0.99799 0.99644 0.0
C1390 C 0.14458 0.99792 0.11338 0.0
C1391 C 0.14466 0.02274 0.09311 0.0
H1392 H 0.70758 0.41812 0.71162 0.0
H1393 H 0.73139 0.34371 0.60024 0.0
H1394 H 0.77308 0.34236 0.65651 0.0
H1395 H 0.80315 0.36192 0.73705 0.0
H1396 H 0.77821 0.4331 0.85623 0.0
H1397 H 0.73624 0.43545 0.79916 0.0
C1398 C 0.72157 0.40129 0.70049 0.0
C1399 C 0.71596 0.38082 0.65188 0.0
C1400 C 0.74529 0.39991 0.73488 0.0
C1401 C 0.73493 0.35969 0.63729 0.0
C1402 C 0.75885 0.35882 0.66963 0.0
C1403 C 0.78844 0.37786 0.7509 0.0
C1404 C 0.79392 0.39737 0.80083 0.0
C1405 C 0.76424 0.37873 0.71852 0.0
C1406 C 0.77447 0.41771 0.81827 0.0
C1407 C 0.75056 0.41917 0.78531 0.0
loop_
_geom_bond_atom_site_label_1
_geom_bond_atom_site_label_2
_geom_bond_distance
_geom_bond_site_symmetry_2
_ccdc_geom_bond_type
Ho0 C3 2.811 1_554 S
Ho0 O20 2.322 . S
Ho0 O22 2.378 1_554 S
Ho0 O23 2.524 1_554 S
Ho0 O24 2.381 . S
Ho0 O25 2.669 . S
Ho0 O27 2.346 . S
Ho0 O31 2.305 . S
Ho1 C12 2.811 . S
Ho1 O21 2.346 . S
Ho1 O25 2.305 . S
Ho1 O26 2.322 . S
Ho1 O28 2.378 . S
Ho1 O29 2.524 . S
Ho1 O30 2.381 . S
Ho1 O31 2.669 . S
C2 O20 1.259 . S
C2 O21 1.268 . S
C3 Ho0 2.811 1_556 S
C3 C4 1.488 . S
C3 O22 1.215 . S
C3 O23 1.289 . S
C4 C3 1.488 . S
C4 C5 1.348 . S
C4 C9 1.413 . S
C5 C4 1.348 . S
C5 C6 1.442 . S
C5 H32 0.930 . S
C6 C5 1.442 . S
C6 C7 1.381 . S
C6 H33 0.931 . S
C7 C6 1.381 . S
C7 C8 1.321 . S
C8 C7 1.321 . S
C8 C9 1.403 . S
C8 H34 0.934 . S
C9 C4 1.413 . S
C9 C8 1.403 . S
C9 H35 0.930 . S
C10 O24 1.275 . S
C10 O25 1.256 . S
C11 O26 1.259 . S
C11 O27 1.268 . S
C12 Ho1 2.811 . S
C12 C13 1.488 . S
C12 O28 1.215 . S
C12 O29 1.289 . S
C13 C12 1.488 . S
C13 C14 1.348 . S
C13 C18 1.413 . S
C14 C13 1.348 . S
C14 C15 1.442 . S
C14 H36 0.930 . S
C15 C14 1.442 . S
C15 C16 1.381 . S
C15 H37 0.931 . S
C16 C15 1.381 . S
C16 C17 1.321 . S
C17 C16 1.321 . S
C17 C18 1.403 . S
C17 H38 0.934 . S
C18 C13 1.413 . S
C18 C17 1.403 . S
C18 H39 0.930 . S
C19 O30 1.275 . S
C19 O31 1.256 . S
O20 Ho0 2.322 . S
O20 C2 1.259 . S
O21 Ho1 2.346 . S
O21 C2 1.268 . S
O22 Ho0 2.378 1_556 S
O22 C3 1.215 . S
O23 Ho0 2.524 1_556 S
O23 C3 1.289 . S
O24 Ho0 2.381 . S
O24 C10 1.275 . S
O25 Ho0 2.669 . S
O25 Ho1 2.305 . S
O25 C10 1.256 . S
O26 Ho1 2.322 . S
O26 C11 1.259 . S
O27 Ho0 2.346 . S
O27 C11 1.268 . S
O28 Ho1 2.378 . S
O28 C12 1.215 . S
O29 Ho1 2.524 . S
O29 C12 1.289 . S
O30 Ho1 2.381 . S
O30 C19 1.275 . S
O31 Ho0 2.305 . S
O31 Ho1 2.669 . S
O31 C19 1.256 . S
H32 C5 0.930 . S
H33 C6 0.931 . S
H34 C8 0.934 . S
H35 C9 0.930 . S
H36 C14 0.930 . S
H37 C15 0.931 . S
H38 C17 0.934 . S
H39 C18 0.930 . S
Ho40 C43 2.811 . S
Ho40 O60 2.322 . S
Ho40 O62 2.378 . S
Ho40 O63 2.524 . S
Ho40 O64 2.381 . S
Ho40 O65 2.669 . S
Ho40 O67 2.346 . S
Ho40 O71 2.305 . S
Ho41 C52 2.811 . S
Ho41 O61 2.346 . S
Ho41 O65 2.305 . S
Ho41 O66 2.322 . S
Ho41 O68 2.378 . S
Ho41 O69 2.524 . S
Ho41 O70 2.381 . S
Ho41 O71 2.669 . S
C42 O60 1.259 . S
C42 O61 1.268 . S
C43 Ho40 2.811 . S
C43 C44 1.488 . S
C43 O62 1.215 . S
C43 O63 1.289 . S
C44 C43 1.488 . S
C44 C45 1.348 . S
C44 C49 1.413 . S
C45 C44 1.348 . S
C45 C46 1.442 . S
C45 H72 0.930 . S
C46 C45 1.442 . S
C46 C47 1.381 . S
C46 H73 0.931 . S
C47 C46 1.381 . S
C47 C48 1.321 . S
C48 C47 1.321 . S
C48 C49 1.403 . S
C48 H74 0.934 . S
C49 C44 1.413 . S
C49 C48 1.403 . S
C49 H75 0.930 . S
C50 O64 1.275 . S
C50 O65 1.256 . S
C51 O66 1.259 . S
C51 O67 1.268 . S
C52 Ho41 2.811 . S
C52 C53 1.488 . S
C52 O68 1.215 . S
C52 O69 1.289 . S
C53 C52 1.488 . S
C53 C54 1.348 . S
C53 C58 1.413 . S
C54 C53 1.348 . S
C54 C55 1.442 . S
C54 H76 0.930 . S
C55 C54 1.442 . S
C55 C56 1.381 . S
C55 H77 0.931 . S
C56 C55 1.381 . S
C56 C57 1.321 . S
C57 C56 1.321 . S
C57 C58 1.403 . S
C57 H78 0.934 . S
C58 C53 1.413 . S
C58 C57 1.403 . S
C58 H79 0.930 . S
C59 O70 1.275 . S
C59 O71 1.256 . S
O60 Ho40 2.322 . S
O60 C42 1.259 . S
O61 Ho41 2.346 . S
O61 C42 1.268 . S
O62 Ho40 2.378 . S
O62 C43 1.215 . S
O63 Ho40 2.524 . S
O63 C43 1.289 . S
O64 Ho40 2.381 . S
O64 C50 1.275 . S
O65 Ho40 2.669 . S
O65 Ho41 2.305 . S
O65 C50 1.256 . S
O66 Ho41 2.322 . S
O66 C51 1.259 . S
O67 Ho40 2.346 . S
O67 C51 1.268 . S
O68 Ho41 2.378 . S
O68 C52 1.215 . S
O69 Ho41 2.524 . S
O69 C52 1.289 . S
O70 Ho41 2.381 . S
O70 C59 1.275 . S
O71 Ho40 2.305 . S
O71 Ho41 2.669 . S
O71 C59 1.256 . S
H72 C45 0.930 . S
H73 C46 0.931 . S
H74 C48 0.934 . S
H75 C49 0.930 . S
H76 C54 0.930 . S
H77 C55 0.931 . S
H78 C57 0.934 . S
H79 C58 0.930 . S
Ho80 C83 2.811 . S
Ho80 O100 2.322 . S
Ho80 O102 2.378 . S
Ho80 O103 2.524 . S
Ho80 O104 2.381 . S
Ho80 O105 2.669 . S
Ho80 O107 2.346 . S
Ho80 O111 2.305 . S
Ho81 C92 2.811 . S
Ho81 O101 2.346 . S
Ho81 O105 2.305 . S
Ho81 O106 2.322 . S
Ho81 O108 2.378 . S
Ho81 O109 2.524 . S
Ho81 O110 2.381 . S
Ho81 O111 2.669 . S
C82 O100 1.259 . S
C82 O101 1.268 . S
C83 Ho80 2.811 . S
C83 C84 1.488 . S
C83 O102 1.215 . S
C83 O103 1.289 . S
C84 C83 1.488 . S
C84 C85 1.348 . S
C84 C89 1.413 . S
C85 C84 1.348 . S
C85 C86 1.442 . S
C85 H112 0.930 . S
C86 C85 1.442 . S
C86 C87 1.381 . S
C86 H113 0.931 . S
C87 C86 1.381 . S
C87 C88 1.321 . S
C88 C87 1.321 . S
C88 C89 1.403 . S
C88 H114 0.934 . S
C89 C84 1.413 . S
C89 C88 1.403 . S
C89 H115 0.930 . S
C90 O104 1.275 . S
C90 O105 1.256 . S
C91 O106 1.259 . S
C91 O107 1.268 . S
C92 Ho81 2.811 . S
C92 C93 1.488 . S
C92 O108 1.215 . S
C92 O109 1.289 . S
C93 C92 1.488 . S
C93 C94 1.348 . S
C93 C98 1.413 . S
C94 C93 1.348 . S
C94 C95 1.442 . S
C94 H116 0.930 . S
C95 C94 1.442 . S
C95 C96 1.381 . S
C95 H117 0.931 . S
C96 C95 1.381 . S
C96 C97 1.321 . S
C97 C96 1.321 . S
C97 C98 1.403 . S
C97 H118 0.934 . S
C98 C93 1.413 . S
C98 C97 1.403 . S
C98 H119 0.930 . S
C99 O110 1.275 . S
C99 O111 1.256 . S
O100 Ho80 2.322 . S
O100 C82 1.259 . S
O101 Ho81 2.346 . S
O101 C82 1.268 . S
O102 Ho80 2.378 . S
O102 C83 1.215 . S
O103 Ho80 2.524 . S
O103 C83 1.289 . S
O104 Ho80 2.381 . S
O104 C90 1.275 . S
O105 Ho80 2.669 . S
O105 Ho81 2.305 . S
O105 C90 1.256 . S
O106 Ho81 2.322 . S
O106 C91 1.259 . S
O107 Ho80 2.346 . S
O107 C91 1.268 . S
O108 Ho81 2.378 . S
O108 C92 1.215 . S
O109 Ho81 2.524 . S
O109 C92 1.289 . S
O110 Ho81 2.381 . S
O110 C99 1.275 . S
O111 Ho80 2.305 . S
O111 Ho81 2.669 . S
O111 C99 1.256 . S
H112 C85 0.930 . S
H113 C86 0.931 . S
H114 C88 0.934 . S
H115 C89 0.930 . S
H116 C94 0.930 . S
H117 C95 0.931 . S
H118 C97 0.934 . S
H119 C98 0.930 . S
Ho120 C123 2.811 . S
Ho120 O140 2.322 . S
Ho120 O142 2.378 . S
Ho120 O143 2.524 . S
Ho120 O144 2.381 . S
Ho120 O145 2.669 . S
Ho120 O147 2.346 . S
Ho120 O151 2.305 . S
Ho121 C132 2.811 1_556 S
Ho121 O141 2.346 . S
Ho121 O145 2.305 . S
Ho121 O146 2.322 . S
Ho121 O148 2.378 1_556 S
Ho121 O149 2.524 1_556 S
Ho121 O150 2.381 . S
Ho121 O151 2.669 . S
C122 O140 1.259 . S
C122 O141 1.268 . S
C123 Ho120 2.811 . S
C123 C124 1.488 . S
C123 O142 1.215 . S
C123 O143 1.289 . S
C124 C123 1.488 . S
C124 C125 1.348 . S
C124 C129 1.413 . S
C125 C124 1.348 . S
C125 C126 1.442 . S
C125 H152 0.930 . S
C126 C125 1.442 . S
C126 C127 1.381 . S
C126 H153 0.931 . S
C127 C126 1.381 . S
C127 C128 1.321 . S
C128 C127 1.321 . S
C128 C129 1.403 . S
C128 H154 0.934 . S
C129 C124 1.413 . S
C129 C128 1.403 . S
C129 H155 0.930 . S
C130 O144 1.275 . S
C130 O145 1.256 . S
C131 O146 1.259 . S
C131 O147 1.268 . S
C132 Ho121 2.811 1_554 S
C132 C133 1.488 . S
C132 O148 1.215 . S
C132 O149 1.289 . S
C133 C132 1.488 . S
C133 C134 1.348 . S
C133 C138 1.413 . S
C134 C133 1.348 . S
C134 C135 1.442 . S
C134 H156 0.930 . S
C135 C134 1.442 . S
C135 C136 1.381 . S
C135 H157 0.931 . S
C136 C135 1.381 . S
C136 C137 1.321 . S
C137 C136 1.321 . S
C137 C138 1.403 . S
C137 H158 0.934 . S
C138 C133 1.413 . S
C138 C137 1.403 . S
C138 H159 0.930 . S
C139 O150 1.275 . S
C139 O151 1.256 . S
O140 Ho120 2.322 . S
O140 C122 1.259 . S
O141 Ho121 2.346 . S
O141 C122 1.268 . S
O142 Ho120 2.378 . S
O142 C123 1.215 . S
O143 Ho120 2.524 . S
O143 C123 1.289 . S
O144 Ho120 2.381 . S
O144 C130 1.275 . S
O145 Ho120 2.669 . S
O145 Ho121 2.305 . S
O145 C130 1.256 . S
O146 Ho121 2.322 . S
O146 C131 1.259 . S
O147 Ho120 2.346 . S
O147 C131 1.268 . S
O148 Ho121 2.378 1_554 S
O148 C132 1.215 . S
O149 Ho121 2.524 1_554 S
O149 C132 1.289 . S
O150 Ho121 2.381 . S
O150 C139 1.275 . S
O151 Ho120 2.305 . S
O151 Ho121 2.669 . S
O151 C139 1.256 . S
H152 C125 0.930 . S
H153 C126 0.931 . S
H154 C128 0.934 . S
H155 C129 0.930 . S
H156 C134 0.930 . S
H157 C135 0.931 . S
H158 C137 0.934 . S
H159 C138 0.930 . S
Ho160 C163 2.811 1_556 S
Ho160 O180 2.322 . S
Ho160 O182 2.378 1_556 S
Ho160 O183 2.524 1_556 S
Ho160 O184 2.381 . S
Ho160 O185 2.669 . S
Ho160 O187 2.346 . S
Ho160 O191 2.305 . S
Ho161 C172 2.811 . S
Ho161 O181 2.346 . S
Ho161 O185 2.305 . S
Ho161 O186 2.322 . S
Ho161 O188 2.378 . S
Ho161 O189 2.524 . S
Ho161 O190 2.381 . S
Ho161 O191 2.669 . S
C162 O180 1.259 . S
C162 O181 1.268 . S
C163 Ho160 2.811 1_554 S
C163 C164 1.488 . S
C163 O182 1.215 . S
C163 O183 1.289 . S
C164 C163 1.488 . S
C164 C165 1.348 . S
C164 C169 1.413 . S
C165 C164 1.348 . S
C165 C166 1.442 . S
C165 H192 0.930 . S
C166 C165 1.442 . S
C166 C167 1.381 . S
C166 H193 0.931 . S
C167 C166 1.381 . S
C167 C168 1.321 . S
C168 C167 1.321 . S
C168 C169 1.403 . S
C168 H194 0.934 . S
C169 C164 1.413 . S
C169 C168 1.403 . S
C169 H195 0.930 . S
C170 O184 1.275 . S
C170 O185 1.256 . S
C171 O186 1.259 . S
C171 O187 1.268 . S
C172 Ho161 2.811 . S
C172 C173 1.488 . S
C172 O188 1.215 . S
C172 O189 1.289 . S
C173 C172 1.488 . S
C173 C174 1.348 . S
C173 C178 1.413 . S
C174 C173 1.348 . S
C174 C175 1.442 . S
C174 H196 0.930 . S
C175 C174 1.442 . S
C175 C176 1.381 . S
C175 H197 0.931 . S
C176 C175 1.381 . S
C176 C177 1.321 . S
C177 C176 1.321 . S
C177 C178 1.403 . S
C177 H198 0.934 . S
C178 C173 1.413 . S
C178 C177 1.403 . S
C178 H199 0.930 . S
C179 O190 1.275 . S
C179 O191 1.256 . S
O180 Ho160 2.322 . S
O180 C162 1.259 . S
O181 Ho161 2.346 . S
O181 C162 1.268 . S
O182 Ho160 2.378 1_554 S
O182 C163 1.215 . S
O183 Ho160 2.524 1_554 S
O183 C163 1.289 . S
O184 Ho160 2.381 . S
O184 C170 1.275 . S
O185 Ho160 2.669 . S
O185 Ho161 2.305 . S
O185 C170 1.256 . S
O186 Ho161 2.322 . S
O186 C171 1.259 . S
O187 Ho160 2.346 . S
O187 C171 1.268 . S
O188 Ho161 2.378 . S
O188 C172 1.215 . S
O189 Ho161 2.524 . S
O189 C172 1.289 . S
O190 Ho161 2.381 . S
O190 C179 1.275 . S
O191 Ho160 2.305 . S
O191 Ho161 2.669 . S
O191 C179 1.256 . S
H192 C165 0.930 . S
H193 C166 0.931 . S
H194 C168 0.934 . S
H195 C169 0.930 . S
H196 C174 0.930 . S
H197 C175 0.931 . S
H198 C177 0.934 . S
H199 C178 0.930 . S
Ho200 C203 2.811 . S
Ho200 O220 2.322 . S
Ho200 O222 2.378 . S
Ho200 O223 2.524 . S
Ho200 O224 2.381 . S
Ho200 O225 2.669 . S
Ho200 O227 2.346 . S
Ho200 O231 2.305 . S
Ho201 C212 2.811 1_554 S
Ho201 O221 2.346 . S
Ho201 O225 2.305 . S
Ho201 O226 2.322 . S
Ho201 O228 2.378 1_554 S
Ho201 O229 2.524 1_554 S
Ho201 O230 2.381 . S
Ho201 O231 2.669 . S
C202 O220 1.259 . S
C202 O221 1.268 . S
C203 Ho200 2.811 . S
C203 C204 1.488 . S
C203 O222 1.215 . S
C203 O223 1.289 . S
C204 C203 1.488 . S
C204 C205 1.348 . S
C204 C209 1.413 . S
C205 C204 1.348 . S
C205 C206 1.442 . S
C205 H232 0.930 . S
C206 C205 1.442 . S
C206 C207 1.381 . S
C206 H233 0.931 . S
C207 C206 1.381 . S
C207 C208 1.321 . S
C208 C207 1.321 . S
C208 C209 1.403 . S
C208 H234 0.934 . S
C209 C204 1.413 . S
C209 C208 1.403 . S
C209 H235 0.930 . S
C210 O224 1.275 . S
C210 O225 1.256 . S
C211 O226 1.259 . S
C211 O227 1.268 . S
C212 Ho201 2.811 1_556 S
C212 C213 1.488 . S
C212 O228 1.215 . S
C212 O229 1.289 . S
C213 C212 1.488 . S
C213 C214 1.348 . S
C213 C218 1.413 . S
C214 C213 1.348 . S
C214 C215 1.442 . S
C214 H236 0.930 . S
C215 C214 1.442 . S
C215 C216 1.381 . S
C215 H237 0.931 . S
C216 C215 1.381 . S
C216 C217 1.321 . S
C217 C216 1.321 . S
C217 C218 1.403 . S
C217 H238 0.934 . S
C218 C213 1.413 . S
C218 C217 1.403 . S
C218 H239 0.930 . S
C219 O230 1.275 . S
C219 O231 1.256 . S
O220 Ho200 2.322 . S
O220 C202 1.259 . S
O221 Ho201 2.346 . S
O221 C202 1.268 . S
O222 Ho200 2.378 . S
O222 C203 1.215 . S
O223 Ho200 2.524 . S
O223 C203 1.289 . S
O224 Ho200 2.381 . S
O224 C210 1.275 . S
O225 Ho200 2.669 . S
O225 Ho201 2.305 . S
O225 C210 1.256 . S
O226 Ho201 2.322 . S
O226 C211 1.259 . S
O227 Ho200 2.346 . S
O227 C211 1.268 . S
O228 Ho201 2.378 1_556 S
O228 C212 1.215 . S
O229 Ho201 2.524 1_556 S
O229 C212 1.289 . S
O230 Ho201 2.381 . S
O230 C219 1.275 . S
O231 Ho200 2.305 . S
O231 Ho201 2.669 . S
O231 C219 1.256 . S
H232 C205 0.930 . S
H233 C206 0.931 . S
H234 C208 0.934 . S
H235 C209 0.930 . S
H236 C214 0.930 . S
H237 C215 0.931 . S
H238 C217 0.934 . S
H239 C218 0.930 . S
Ho240 C243 2.811 . S
Ho240 O260 2.322 . S
Ho240 O262 2.378 . S
Ho240 O263 2.524 . S
Ho240 O264 2.381 . S
Ho240 O265 2.669 . S
Ho240 O267 2.346 . S
Ho240 O271 2.305 . S
Ho241 C252 2.811 . S
Ho241 O261 2.346 . S
Ho241 O265 2.305 . S
Ho241 O266 2.322 . S
Ho241 O268 2.378 . S
Ho241 O269 2.524 . S
Ho241 O270 2.381 . S
Ho241 O271 2.669 . S
C242 O260 1.259 . S
C242 O261 1.268 . S
C243 Ho240 2.811 . S
C243 C244 1.488 . S
C243 O262 1.215 . S
C243 O263 1.289 . S
C244 C243 1.488 . S
C244 C245 1.348 . S
C244 C249 1.413 . S
C245 C244 1.348 . S
C245 C246 1.442 . S
C245 H272 0.930 . S
C246 C245 1.442 . S
C246 C247 1.381 . S
C246 H273 0.931 . S
C247 C246 1.381 . S
C247 C248 1.321 . S
C248 C247 1.321 . S
C248 C249 1.403 . S
C248 H274 0.934 . S
C249 C244 1.413 . S
C249 C248 1.403 . S
C249 H275 0.930 . S
C250 O264 1.275 . S
C250 O265 1.256 . S
C251 O266 1.259 . S
C251 O267 1.268 . S
C252 Ho241 2.811 . S
C252 C253 1.488 . S
C252 O268 1.215 . S
C252 O269 1.289 . S
C253 C252 1.488 . S
C253 C254 1.348 . S
C253 C258 1.413 . S
C254 C253 1.348 . S
C254 C255 1.442 . S
C254 H276 0.930 . S
C255 C254 1.442 . S
C255 C256 1.381 . S
C255 H277 0.931 . S
C256 C255 1.381 . S
C256 C257 1.321 . S
C257 C256 1.321 . S
C257 C258 1.403 . S
C257 H278 0.934 . S
C258 C253 1.413 . S
C258 C257 1.403 . S
C258 H279 0.930 . S
C259 O270 1.275 . S
C259 O271 1.256 . S
O260 Ho240 2.322 . S
O260 C242 1.259 . S
O261 Ho241 2.346 . S
O261 C242 1.268 . S
O262 Ho240 2.378 . S
O262 C243 1.215 . S
O263 Ho240 2.524 . S
O263 C243 1.289 . S
O264 Ho240 2.381 . S
O264 C250 1.275 . S
O265 Ho240 2.669 . S
O265 Ho241 2.305 . S
O265 C250 1.256 . S
O266 Ho241 2.322 . S
O266 C251 1.259 . S
O267 Ho240 2.346 . S
O267 C251 1.268 . S
O268 Ho241 2.378 . S
O268 C252 1.215 . S
O269 Ho241 2.524 . S
O269 C252 1.289 . S
O270 Ho241 2.381 . S
O270 C259 1.275 . S
O271 Ho240 2.305 . S
O271 Ho241 2.669 . S
O271 C259 1.256 . S
H272 C245 0.930 . S
H273 C246 0.931 . S
H274 C248 0.934 . S
H275 C249 0.930 . S
H276 C254 0.930 . S
H277 C255 0.931 . S
H278 C257 0.934 . S
H279 C258 0.930 . S
Ho280 C283 2.811 . S
Ho280 O300 2.322 . S
Ho280 O302 2.378 . S
Ho280 O303 2.524 . S
Ho280 O304 2.381 . S
Ho280 O305 2.669 . S
Ho280 O307 2.346 . S
Ho280 O311 2.305 . S
Ho281 C292 2.811 . S
Ho281 O301 2.346 . S
Ho281 O305 2.305 . S
Ho281 O306 2.322 . S
Ho281 O308 2.378 . S
Ho281 O309 2.524 . S
Ho281 O310 2.381 . S
Ho281 O311 2.669 . S
C282 O300 1.259 . S
C282 O301 1.268 . S
C283 Ho280 2.811 . S
C283 C284 1.488 . S
C283 O302 1.215 . S
C283 O303 1.289 . S
C284 C283 1.488 . S
C284 C285 1.348 . S
C284 C289 1.413 . S
C285 C284 1.348 . S
C285 C286 1.442 . S
C285 H312 0.930 . S
C286 C285 1.442 . S
C286 C287 1.381 . S
C286 H313 0.931 . S
C287 C286 1.381 . S
C287 C288 1.321 . S
C288 C287 1.321 . S
C288 C289 1.403 . S
C288 H314 0.934 . S
C289 C284 1.413 . S
C289 C288 1.403 . S
C289 H315 0.930 . S
C290 O304 1.275 . S
C290 O305 1.256 . S
C291 O306 1.259 . S
C291 O307 1.268 . S
C292 Ho281 2.811 . S
C292 C293 1.488 . S
C292 O308 1.215 . S
C292 O309 1.289 . S
C293 C292 1.488 . S
C293 C294 1.348 . S
C293 C298 1.413 . S
C294 C293 1.348 . S
C294 C295 1.442 . S
C294 H316 0.930 . S
C295 C294 1.442 . S
C295 C296 1.381 . S
C295 H317 0.931 . S
C296 C295 1.381 . S
C296 C297 1.321 . S
C297 C296 1.321 . S
C297 C298 1.403 . S
C297 H318 0.934 . S
C298 C293 1.413 . S
C298 C297 1.403 . S
C298 H319 0.930 . S
C299 O310 1.275 . S
C299 O311 1.256 . S
O300 Ho280 2.322 . S
O300 C282 1.259 . S
O301 Ho281 2.346 . S
O301 C282 1.268 . S
O302 Ho280 2.378 . S
O302 C283 1.215 . S
O303 Ho280 2.524 . S
O303 C283 1.289 . S
O304 Ho280 2.381 . S
O304 C290 1.275 . S
O305 Ho280 2.669 . S
O305 Ho281 2.305 . S
O305 C290 1.256 . S
O306 Ho281 2.322 . S
O306 C291 1.259 . S
O307 Ho280 2.346 . S
O307 C291 1.268 . S
O308 Ho281 2.378 . S
O308 C292 1.215 . S
O309 Ho281 2.524 . S
O309 C292 1.289 . S
O310 Ho281 2.381 . S
O310 C299 1.275 . S
O311 Ho280 2.305 . S
O311 Ho281 2.669 . S
O311 C299 1.256 . S
H312 C285 0.930 . S
H313 C286 0.931 . S
H314 C288 0.934 . S
H315 C289 0.930 . S
H316 C294 0.930 . S
H317 C295 0.931 . S
H318 C297 0.934 . S
H319 C298 0.930 . S
Ho320 C323 2.811 . S
Ho320 O340 2.322 . S
Ho320 O342 2.378 . S
Ho320 O343 2.524 . S
Ho320 O344 2.381 . S
Ho320 O345 2.669 . S
Ho320 O347 2.346 . S
Ho320 O351 2.305 . S
Ho321 C332 2.811 1_556 S
Ho321 O341 2.346 . S
Ho321 O345 2.305 . S
Ho321 O346 2.322 . S
Ho321 O348 2.378 1_556 S
Ho321 O349 2.524 1_556 S
Ho321 O350 2.381 . S
Ho321 O351 2.669 . S
C322 O340 1.259 . S
C322 O341 1.268 . S
C323 Ho320 2.811 . S
C323 C324 1.488 . S
C323 O342 1.215 . S
C323 O343 1.289 . S
C324 C323 1.488 . S
C324 C325 1.348 . S
C324 C329 1.413 . S
C325 C324 1.348 . S
C325 C326 1.442 . S
C325 H352 0.930 . S
C326 C325 1.442 . S
C326 C327 1.381 . S
C326 H353 0.931 . S
C327 C326 1.381 . S
C327 C328 1.321 . S
C328 C327 1.321 . S
C328 C329 1.403 . S
C328 H354 0.934 . S
C329 C324 1.413 . S
C329 C328 1.403 . S
C329 H355 0.930 . S
C330 O344 1.275 . S
C330 O345 1.256 . S
C331 O346 1.259 . S
C331 O347 1.268 . S
C332 Ho321 2.811 1_554 S
C332 C333 1.488 . S
C332 O348 1.215 . S
C332 O349 1.289 . S
C333 C332 1.488 . S
C333 C334 1.348 . S
C333 C338 1.413 . S
C334 C333 1.348 . S
C334 C335 1.442 . S
C334 H356 0.930 . S
C335 C334 1.442 . S
C335 C336 1.381 . S
C335 H357 0.931 . S
C336 C335 1.381 . S
C336 C337 1.321 . S
C337 C336 1.321 . S
C337 C338 1.403 . S
C337 H358 0.934 . S
C338 C333 1.413 . S
C338 C337 1.403 . S
C338 H359 0.930 . S
C339 O350 1.275 . S
C339 O351 1.256 . S
O340 Ho320 2.322 . S
O340 C322 1.259 . S
O341 Ho321 2.346 . S
O341 C322 1.268 . S
O342 Ho320 2.378 . S
O342 C323 1.215 . S
O343 Ho320 2.524 . S
O343 C323 1.289 . S
O344 Ho320 2.381 . S
O344 C330 1.275 . S
O345 Ho320 2.669 . S
O345 Ho321 2.305 . S
O345 C330 1.256 . S
O346 Ho321 2.322 . S
O346 C331 1.259 . S
O347 Ho320 2.346 . S
O347 C331 1.268 . S
O348 Ho321 2.378 1_554 S
O348 C332 1.215 . S
O349 Ho321 2.524 1_554 S
O349 C332 1.289 . S
O350 Ho321 2.381 . S
O350 C339 1.275 . S
O351 Ho320 2.305 . S
O351 Ho321 2.669 . S
O351 C339 1.256 . S
H352 C325 0.930 . S
H353 C326 0.931 . S
H354 C328 0.934 . S
H355 C329 0.930 . S
H356 C334 0.930 . S
H357 C335 0.931 . S
H358 C337 0.934 . S
H359 C338 0.930 . S
Ho360 C363 2.811 . S
Ho360 O380 2.322 . S
Ho360 O382 2.378 . S
Ho360 O383 2.524 . S
Ho360 O384 2.381 . S
Ho360 O385 2.669 . S
Ho360 O387 2.346 . S
Ho360 O391 2.305 . S
Ho361 C372 2.811 . S
Ho361 O381 2.346 . S
Ho361 O385 2.305 . S
Ho361 O386 2.322 . S
Ho361 O388 2.378 . S
Ho361 O389 2.524 . S
Ho361 O390 2.381 . S
Ho361 O391 2.669 . S
C362 O380 1.259 . S
C362 O381 1.268 . S
C363 Ho360 2.811 . S
C363 C364 1.488 . S
C363 O382 1.215 . S
C363 O383 1.289 . S
C364 C363 1.488 . S
C364 C365 1.348 . S
C364 C369 1.413 . S
C365 C364 1.348 . S
C365 C366 1.442 . S
C365 H392 0.930 . S
C366 C365 1.442 . S
C366 C367 1.381 . S
C366 H393 0.931 . S
C367 C366 1.381 . S
C367 C368 1.321 . S
C368 C367 1.321 . S
C368 C369 1.403 . S
C368 H394 0.934 . S
C369 C364 1.413 . S
C369 C368 1.403 . S
C369 H395 0.930 . S
C370 O384 1.275 . S
C370 O385 1.256 . S
C371 O386 1.259 . S
C371 O387 1.268 . S
C372 Ho361 2.811 . S
C372 C373 1.488 . S
C372 O388 1.215 . S
C372 O389 1.289 . S
C373 C372 1.488 . S
C373 C374 1.348 . S
C373 C378 1.413 . S
C374 C373 1.348 . S
C374 C375 1.442 . S
C374 H396 0.930 . S
C375 C374 1.442 . S
C375 C376 1.381 . S
C375 H397 0.931 . S
C376 C375 1.381 . S
C376 C377 1.321 . S
C377 C376 1.321 . S
C377 C378 1.403 . S
C377 H398 0.934 . S
C378 C373 1.413 . S
C378 C377 1.403 . S
C378 H399 0.930 . S
C379 O390 1.275 . S
C379 O391 1.256 . S
O380 Ho360 2.322 . S
O380 C362 1.259 . S
O381 Ho361 2.346 . S
O381 C362 1.268 . S
O382 Ho360 2.378 . S
O382 C363 1.215 . S
O383 Ho360 2.524 . S
O383 C363 1.289 . S
O384 Ho360 2.381 . S
O384 C370 1.275 . S
O385 Ho360 2.669 . S
O385 Ho361 2.305 . S
O385 C370 1.256 . S
O386 Ho361 2.322 . S
O386 C371 1.259 . S
O387 Ho360 2.346 . S
O387 C371 1.268 . S
O388 Ho361 2.378 . S
O388 C372 1.215 . S
O389 Ho361 2.524 . S
O389 C372 1.289 . S
O390 Ho361 2.381 . S
O390 C379 1.275 . S
O391 Ho360 2.305 . S
O391 Ho361 2.669 . S
O391 C379 1.256 . S
H392 C365 0.930 . S
H393 C366 0.931 . S
H394 C368 0.934 . S
H395 C369 0.930 . S
H396 C374 0.930 . S
H397 C375 0.931 . S
H398 C377 0.934 . S
H399 C378 0.930 . S
Ho400 C403 2.811 . S
Ho400 O420 2.322 . S
Ho400 O422 2.378 . S
Ho400 O423 2.524 . S
Ho400 O424 2.381 . S
Ho400 O425 2.669 . S
Ho400 O427 2.346 . S
Ho400 O431 2.305 . S
Ho401 C412 2.811 . S
Ho401 O421 2.346 . S
Ho401 O425 2.305 . S
Ho401 O426 2.322 . S
Ho401 O428 2.378 . S
Ho401 O429 2.524 . S
Ho401 O430 2.381 . S
Ho401 O431 2.669 . S
C402 O420 1.259 . S
C402 O421 1.268 . S
C403 Ho400 2.811 . S
C403 C404 1.488 . S
C403 O422 1.215 . S
C403 O423 1.289 . S
C404 C403 1.488 . S
C404 C405 1.348 . S
C404 C409 1.413 . S
C405 C404 1.348 . S
C405 C406 1.442 . S
C405 H432 0.930 . S
C406 C405 1.442 . S
C406 C407 1.381 . S
C406 H433 0.931 . S
C407 C406 1.381 . S
C407 C408 1.321 . S
C408 C407 1.321 . S
C408 C409 1.403 . S
C408 H434 0.934 . S
C409 C404 1.413 . S
C409 C408 1.403 . S
C409 H435 0.930 . S
C410 O424 1.275 . S
C410 O425 1.256 . S
C411 O426 1.259 . S
C411 O427 1.268 . S
C412 Ho401 2.811 . S
C412 C413 1.488 . S
C412 O428 1.215 . S
C412 O429 1.289 . S
C413 C412 1.488 . S
C413 C414 1.348 . S
C413 C418 1.413 . S
C414 C413 1.348 . S
C414 C415 1.442 . S
C414 H436 0.930 . S
C415 C414 1.442 . S
C415 C416 1.381 . S
C415 H437 0.931 . S
C416 C415 1.381 . S
C416 C417 1.321 . S
C417 C416 1.321 . S
C417 C418 1.403 . S
C417 H438 0.934 . S
C418 C413 1.413 . S
C418 C417 1.403 . S
C418 H439 0.930 . S
C419 O430 1.275 . S
C419 O431 1.256 . S
O420 Ho400 2.322 . S
O420 C402 1.259 . S
O421 Ho401 2.346 . S
O421 C402 1.268 . S
O422 Ho400 2.378 . S
O422 C403 1.215 . S
O423 Ho400 2.524 . S
O423 C403 1.289 . S
O424 Ho400 2.381 . S
O424 C410 1.275 . S
O425 Ho400 2.669 . S
O425 Ho401 2.305 . S
O425 C410 1.256 . S
O426 Ho401 2.322 . S
O426 C411 1.259 . S
O427 Ho400 2.346 . S
O427 C411 1.268 . S
O428 Ho401 2.378 . S
O428 C412 1.215 . S
O429 Ho401 2.524 . S
O429 C412 1.289 . S
O430 Ho401 2.381 . S
O430 C419 1.275 . S
O431 Ho400 2.305 . S
O431 Ho401 2.669 . S
O431 C419 1.256 . S
H432 C405 0.930 . S
H433 C406 0.931 . S
H434 C408 0.934 . S
H435 C409 0.930 . S
H436 C414 0.930 . S
H437 C415 0.931 . S
H438 C417 0.934 . S
H439 C418 0.930 . S
Ho440 C443 2.811 1_554 S
Ho440 O460 2.322 . S
Ho440 O462 2.378 1_554 S
Ho440 O463 2.524 1_554 S
Ho440 O464 2.381 . S
Ho440 O465 2.669 . S
Ho440 O467 2.346 . S
Ho440 O471 2.305 . S
Ho441 C452 2.811 . S
Ho441 O461 2.346 . S
Ho441 O465 2.305 . S
Ho441 O466 2.322 . S
Ho441 O468 2.378 . S
Ho441 O469 2.524 . S
Ho441 O470 2.381 . S
Ho441 O471 2.669 . S
C442 O460 1.259 . S
C442 O461 1.268 . S
C443 Ho440 2.811 1_556 S
C443 C444 1.488 . S
C443 O462 1.215 . S
C443 O463 1.289 . S
C444 C443 1.488 . S
C444 C445 1.348 . S
C444 C449 1.413 . S
C445 C444 1.348 . S
C445 C446 1.442 . S
C445 H472 0.930 . S
C446 C445 1.442 . S
C446 C447 1.381 . S
C446 H473 0.931 . S
C447 C446 1.381 . S
C447 C448 1.321 . S
C448 C447 1.321 . S
C448 C449 1.403 . S
C448 H474 0.934 . S
C449 C444 1.413 . S
C449 C448 1.403 . S
C449 H475 0.930 . S
C450 O464 1.275 . S
C450 O465 1.256 . S
C451 O466 1.259 . S
C451 O467 1.268 . S
C452 Ho441 2.811 . S
C452 C453 1.488 . S
C452 O468 1.215 . S
C452 O469 1.289 . S
C453 C452 1.488 . S
C453 C454 1.348 . S
C453 C458 1.413 . S
C454 C453 1.348 . S
C454 C455 1.442 . S
C454 H476 0.930 . S
C455 C454 1.442 . S
C455 C456 1.381 . S
C455 H477 0.931 . S
C456 C455 1.381 . S
C456 C457 1.321 . S
C457 C456 1.321 . S
C457 C458 1.403 . S
C457 H478 0.934 . S
C458 C453 1.413 . S
C458 C457 1.403 . S
C458 H479 0.930 . S
C459 O470 1.275 . S
C459 O471 1.256 . S
O460 Ho440 2.322 . S
O460 C442 1.259 . S
O461 Ho441 2.346 . S
O461 C442 1.268 . S
O462 Ho440 2.378 1_556 S
O462 C443 1.215 . S
O463 Ho440 2.524 1_556 S
O463 C443 1.289 . S
O464 Ho440 2.381 . S
O464 C450 1.275 . S
O465 Ho440 2.669 . S
O465 Ho441 2.305 . S
O465 C450 1.256 . S
O466 Ho441 2.322 . S
O466 C451 1.259 . S
O467 Ho440 2.346 . S
O467 C451 1.268 . S
O468 Ho441 2.378 . S
O468 C452 1.215 . S
O469 Ho441 2.524 . S
O469 C452 1.289 . S
O470 Ho441 2.381 . S
O470 C459 1.275 . S
O471 Ho440 2.305 . S
O471 Ho441 2.669 . S
O471 C459 1.256 . S
H472 C445 0.930 . S
H473 C446 0.931 . S
H474 C448 0.934 . S
H475 C449 0.930 . S
H476 C454 0.930 . S
H477 C455 0.931 . S
H478 C457 0.934 . S
H479 C458 0.930 . S
Ho480 C483 2.811 . S
Ho480 O500 2.322 . S
Ho480 O502 2.378 . S
Ho480 O503 2.524 . S
Ho480 O504 2.381 . S
Ho480 O505 2.669 . S
Ho480 O507 2.346 . S
Ho480 O511 2.305 . S
Ho481 C492 2.811 1_554 S
Ho481 O501 2.346 . S
Ho481 O505 2.305 . S
Ho481 O506 2.322 . S
Ho481 O508 2.378 1_554 S
Ho481 O509 2.524 1_554 S
Ho481 O510 2.381 . S
Ho481 O511 2.669 . S
C482 O500 1.259 . S
C482 O501 1.268 . S
C483 Ho480 2.811 . S
C483 C484 1.488 . S
C483 O502 1.215 . S
C483 O503 1.289 . S
C484 C483 1.488 . S
C484 C485 1.348 . S
C484 C489 1.413 . S
C485 C484 1.348 . S
C485 C486 1.442 . S
C485 H512 0.930 . S
C486 C485 1.442 . S
C486 C487 1.381 . S
C486 H513 0.931 . S
C487 C486 1.381 . S
C487 C488 1.321 . S
C488 C487 1.321 . S
C488 C489 1.403 . S
C488 H514 0.934 . S
C489 C484 1.413 . S
C489 C488 1.403 . S
C489 H515 0.930 . S
C490 O504 1.275 . S
C490 O505 1.256 . S
C491 O506 1.259 . S
C491 O507 1.268 . S
C492 Ho481 2.811 1_556 S
C492 C493 1.488 . S
C492 O508 1.215 . S
C492 O509 1.289 . S
C493 C492 1.488 . S
C493 C494 1.348 . S
C493 C498 1.413 . S
C494 C493 1.348 . S
C494 C495 1.442 . S
C494 H516 0.930 . S
C495 C494 1.442 . S
C495 C496 1.381 . S
C495 H517 0.931 . S
C496 C495 1.381 . S
C496 C497 1.321 . S
C497 C496 1.321 . S
C497 C498 1.403 . S
C497 H518 0.934 . S
C498 C493 1.413 . S
C498 C497 1.403 . S
C498 H519 0.930 . S
C499 O510 1.275 . S
C499 O511 1.256 . S
O500 Ho480 2.322 . S
O500 C482 1.259 . S
O501 Ho481 2.346 . S
O501 C482 1.268 . S
O502 Ho480 2.378 . S
O502 C483 1.215 . S
O503 Ho480 2.524 . S
O503 C483 1.289 . S
O504 Ho480 2.381 . S
O504 C490 1.275 . S
O505 Ho480 2.669 . S
O505 Ho481 2.305 . S
O505 C490 1.256 . S
O506 Ho481 2.322 . S
O506 C491 1.259 . S
O507 Ho480 2.346 . S
O507 C491 1.268 . S
O508 Ho481 2.378 1_556 S
O508 C492 1.215 . S
O509 Ho481 2.524 1_556 S
O509 C492 1.289 . S
O510 Ho481 2.381 . S
O510 C499 1.275 . S
O511 Ho480 2.305 . S
O511 Ho481 2.669 . S
O511 C499 1.256 . S
H512 C485 0.930 . S
H513 C486 0.931 . S
H514 C488 0.934 . S
H515 C489 0.930 . S
H516 C494 0.930 . S
H517 C495 0.931 . S
H518 C497 0.934 . S
H519 C498 0.930 . S
Ho520 C523 2.811 1_556 S
Ho520 O540 2.322 . S
Ho520 O542 2.378 1_556 S
Ho520 O543 2.524 1_556 S
Ho520 O544 2.381 . S
Ho520 O545 2.669 . S
Ho520 O547 2.346 . S
Ho520 O551 2.305 . S
Ho521 C532 2.811 . S
Ho521 O541 2.346 . S
Ho521 O545 2.305 . S
Ho521 O546 2.322 . S
Ho521 O548 2.378 . S
Ho521 O549 2.524 . S
Ho521 O550 2.381 . S
Ho521 O551 2.669 . S
C522 O540 1.259 . S
C522 O541 1.268 . S
C523 Ho520 2.811 1_554 S
C523 C524 1.488 . S
C523 O542 1.215 . S
C523 O543 1.289 . S
C524 C523 1.488 . S
C524 C525 1.348 . S
C524 C529 1.413 . S
C525 C524 1.348 . S
C525 C526 1.442 . S
C525 H552 0.930 . S
C526 C525 1.442 . S
C526 C527 1.381 . S
C526 H553 0.931 . S
C527 C526 1.381 . S
C527 C528 1.321 . S
C528 C527 1.321 . S
C528 C529 1.403 . S
C528 H554 0.934 . S
C529 C524 1.413 . S
C529 C528 1.403 . S
C529 H555 0.930 . S
C530 O544 1.275 . S
C530 O545 1.256 . S
C531 O546 1.259 . S
C531 O547 1.268 . S
C532 Ho521 2.811 . S
C532 C533 1.488 . S
C532 O548 1.215 . S
C532 O549 1.289 . S
C533 C532 1.488 . S
C533 C534 1.348 . S
C533 C538 1.413 . S
C534 C533 1.348 . S
C534 C535 1.442 . S
C534 H556 0.930 . S
C535 C534 1.442 . S
C535 C536 1.381 . S
C535 H557 0.931 . S
C536 C535 1.381 . S
C536 C537 1.321 . S
C537 C536 1.321 . S
C537 C538 1.403 . S
C537 H558 0.934 . S
C538 C533 1.413 . S
C538 C537 1.403 . S
C538 H559 0.930 . S
C539 O550 1.275 . S
C539 O551 1.256 . S
O540 Ho520 2.322 . S
O540 C522 1.259 . S
O541 Ho521 2.346 . S
O541 C522 1.268 . S
O542 Ho520 2.378 1_554 S
O542 C523 1.215 . S
O543 Ho520 2.524 1_554 S
O543 C523 1.289 . S
O544 Ho520 2.381 . S
O544 C530 1.275 . S
O545 Ho520 2.669 . S
O545 Ho521 2.305 . S
O545 C530 1.256 . S
O546 Ho521 2.322 . S
O546 C531 1.259 . S
O547 Ho520 2.346 . S
O547 C531 1.268 . S
O548 Ho521 2.378 . S
O548 C532 1.215 . S
O549 Ho521 2.524 . S
O549 C532 1.289 . S
O550 Ho521 2.381 . S
O550 C539 1.275 . S
O551 Ho520 2.305 . S
O551 Ho521 2.669 . S
O551 C539 1.256 . S
H552 C525 0.930 . S
H553 C526 0.931 . S
H554 C528 0.934 . S
H555 C529 0.930 . S
H556 C534 0.930 . S
H557 C535 0.931 . S
H558 C537 0.934 . S
H559 C538 0.930 . S
Ho560 C563 2.811 . S
Ho560 O580 2.322 . S
Ho560 O582 2.378 . S
Ho560 O583 2.524 . S
Ho560 O584 2.381 . S
Ho560 O585 2.669 . S
Ho560 O587 2.346 . S
Ho560 O591 2.305 . S
Ho561 C572 2.811 . S
Ho561 O581 2.346 . S
Ho561 O585 2.305 . S
Ho561 O586 2.322 . S
Ho561 O588 2.378 . S
Ho561 O589 2.524 . S
Ho561 O590 2.381 . S
Ho561 O591 2.669 . S
C562 O580 1.259 . S
C562 O581 1.268 . S
C563 Ho560 2.811 . S
C563 C564 1.488 . S
C563 O582 1.215 . S
C563 O583 1.289 . S
C564 C563 1.488 . S
C564 C565 1.348 . S
C564 C569 1.413 . S
C565 C564 1.348 . S
C565 C566 1.442 . S
C565 H592 0.930 . S
C566 C565 1.442 . S
C566 C567 1.381 . S
C566 H593 0.931 . S
C567 C566 1.381 . S
C567 C568 1.321 . S
C568 C567 1.321 . S
C568 C569 1.403 . S
C568 H594 0.934 . S
C569 C564 1.413 . S
C569 C568 1.403 . S
C569 H595 0.930 . S
C570 O584 1.275 . S
C570 O585 1.256 . S
C571 O586 1.259 . S
C571 O587 1.268 . S
C572 Ho561 2.811 . S
C572 C573 1.488 . S
C572 O588 1.215 . S
C572 O589 1.289 . S
C573 C572 1.488 . S
C573 C574 1.348 . S
C573 C578 1.413 . S
C574 C573 1.348 . S
C574 C575 1.442 . S
C574 H596 0.930 . S
C575 C574 1.442 . S
C575 C576 1.381 . S
C575 H597 0.931 . S
C576 C575 1.381 . S
C576 C577 1.321 . S
C577 C576 1.321 . S
C577 C578 1.403 . S
C577 H598 0.934 . S
C578 C573 1.413 . S
C578 C577 1.403 . S
C578 H599 0.930 . S
C579 O590 1.275 . S
C579 O591 1.256 . S
O580 Ho560 2.322 . S
O580 C562 1.259 . S
O581 Ho561 2.346 . S
O581 C562 1.268 . S
O582 Ho560 2.378 . S
O582 C563 1.215 . S
O583 Ho560 2.524 . S
O583 C563 1.289 . S
O584 Ho560 2.381 . S
O584 C570 1.275 . S
O585 Ho560 2.669 . S
O585 Ho561 2.305 . S
O585 C570 1.256 . S
O586 Ho561 2.322 . S
O586 C571 1.259 . S
O587 Ho560 2.346 . S
O587 C571 1.268 . S
O588 Ho561 2.378 . S
O588 C572 1.215 . S
O589 Ho561 2.524 . S
O589 C572 1.289 . S
O590 Ho561 2.381 . S
O590 C579 1.275 . S
O591 Ho560 2.305 . S
O591 Ho561 2.669 . S
O591 C579 1.256 . S
H592 C565 0.930 . S
H593 C566 0.931 . S
H594 C568 0.934 . S
H595 C569 0.930 . S
H596 C574 0.930 . S
H597 C575 0.931 . S
H598 C577 0.934 . S
H599 C578 0.930 . S
Ho600 C603 2.811 . S
Ho600 O620 2.322 . S
Ho600 O622 2.378 . S
Ho600 O623 2.524 . S
Ho600 O624 2.381 . S
Ho600 O625 2.669 . S
Ho600 O627 2.346 . S
Ho600 O631 2.305 . S
Ho601 C612 2.811 . S
Ho601 O621 2.346 . S
Ho601 O625 2.305 . S
Ho601 O626 2.322 . S
Ho601 O628 2.378 . S
Ho601 O629 2.524 . S
Ho601 O630 2.381 . S
Ho601 O631 2.669 . S
C602 O620 1.259 . S
C602 O621 1.268 . S
C603 Ho600 2.811 . S
C603 C604 1.488 . S
C603 O622 1.215 . S
C603 O623 1.289 . S
C604 C603 1.488 . S
C604 C605 1.348 . S
C604 C609 1.413 . S
C605 C604 1.348 . S
C605 C606 1.442 . S
C605 H632 0.930 . S
C606 C605 1.442 . S
C606 C607 1.381 . S
C606 H633 0.931 . S
C607 C606 1.381 . S
C607 C608 1.321 . S
C608 C607 1.321 . S
C608 C609 1.403 . S
C608 H634 0.934 . S
C609 C604 1.413 . S
C609 C608 1.403 . S
C609 H635 0.930 . S
C610 O624 1.275 . S
C610 O625 1.256 . S
C611 O626 1.259 . S
C611 O627 1.268 . S
C612 Ho601 2.811 . S
C612 C613 1.488 . S
C612 O628 1.215 . S
C612 O629 1.289 . S
C613 C612 1.488 . S
C613 C614 1.348 . S
C613 C618 1.413 . S
C614 C613 1.348 . S
C614 C615 1.442 . S
C614 H636 0.930 . S
C615 C614 1.442 . S
C615 C616 1.381 . S
C615 H637 0.931 . S
C616 C615 1.381 . S
C616 C617 1.321 . S
C617 C616 1.321 . S
C617 C618 1.403 . S
C617 H638 0.934 . S
C618 C613 1.413 . S
C618 C617 1.403 . S
C618 H639 0.930 . S
C619 O630 1.275 . S
C619 O631 1.256 . S
O620 Ho600 2.322 . S
O620 C602 1.259 . S
O621 Ho601 2.346 . S
O621 C602 1.268 . S
O622 Ho600 2.378 . S
O622 C603 1.215 . S
O623 Ho600 2.524 . S
O623 C603 1.289 . S
O624 Ho600 2.381 . S
O624 C610 1.275 . S
O625 Ho600 2.669 . S
O625 Ho601 2.305 . S
O625 C610 1.256 . S
O626 Ho601 2.322 . S
O626 C611 1.259 . S
O627 Ho600 2.346 . S
O627 C611 1.268 . S
O628 Ho601 2.378 . S
O628 C612 1.215 . S
O629 Ho601 2.524 . S
O629 C612 1.289 . S
O630 Ho601 2.381 . S
O630 C619 1.275 . S
O631 Ho600 2.305 . S
O631 Ho601 2.669 . S
O631 C619 1.256 . S
H632 C605 0.930 . S
H633 C606 0.931 . S
H634 C608 0.934 . S
H635 C609 0.930 . S
H636 C614 0.930 . S
H637 C615 0.931 . S
H638 C617 0.934 . S
H639 C618 0.930 . S
H640 C646 0.930 . S
H641 C649 0.930 . S
H642 C650 0.930 . S
H643 C651 0.930 . S
H644 C654 0.930 . S
H645 C655 0.930 . S
C646 H640 0.930 . S
C646 C647 1.355 . S
C646 C648 1.415 . S
C647 C646 1.355 . S
C647 C649 1.419 . S
C648 C646 1.415 . S
C648 C653 1.425 . S
C648 C655 1.409 . S
C649 H641 0.930 . S
C649 C647 1.419 . S
C649 C650 1.362 . S
C650 H642 0.930 . S
C650 C649 1.362 . S
C650 C653 1.409 . S
C651 H643 0.930 . S
C651 C652 1.355 . S
C651 C653 1.415 . S
C652 C651 1.355 . S
C652 C654 1.419 . S
C653 C648 1.425 . S
C653 C650 1.409 . S
C653 C651 1.415 . S
C654 H644 0.930 . S
C654 C652 1.419 . S
C654 C655 1.362 . S
C655 H645 0.930 . S
C655 C648 1.409 . S
C655 C654 1.362 . S
H656 C662 0.930 . S
H657 C665 0.930 . S
H658 C666 0.930 . S
H659 C667 0.930 . S
H660 C670 0.930 . S
H661 C671 0.930 . S
C662 H656 0.930 . S
C662 C663 1.355 . S
C662 C664 1.415 . S
C663 C662 1.355 . S
C663 C665 1.419 . S
C664 C662 1.415 . S
C664 C669 1.425 . S
C664 C671 1.409 . S
C665 H657 0.930 . S
C665 C663 1.419 . S
C665 C666 1.362 . S
C666 H658 0.930 . S
C666 C665 1.362 . S
C666 C669 1.409 . S
C667 H659 0.930 . S
C667 C668 1.355 . S
C667 C669 1.415 . S
C668 C667 1.355 . S
C668 C670 1.419 . S
C669 C664 1.425 . S
C669 C666 1.409 . S
C669 C667 1.415 . S
C670 H660 0.930 . S
C670 C668 1.419 . S
C670 C671 1.362 . S
C671 H661 0.930 . S
C671 C664 1.409 . S
C671 C670 1.362 . S
H672 C678 0.930 . S
H673 C681 0.930 . S
H674 C682 0.930 . S
H675 C683 0.930 . S
H676 C686 0.930 1_556 S
H677 C687 0.930 . S
C678 H672 0.930 . S
C678 C679 1.355 . S
C678 C680 1.415 . S
C679 C678 1.355 . S
C679 C681 1.419 . S
C680 C678 1.415 . S
C680 C685 1.425 . S
C680 C687 1.409 . S
C681 H673 0.930 . S
C681 C679 1.419 . S
C681 C682 1.362 . S
C682 H674 0.930 . S
C682 C681 1.362 . S
C682 C685 1.409 . S
C683 H675 0.930 . S
C683 C684 1.355 . S
C683 C685 1.415 . S
C684 C683 1.355 . S
C684 C686 1.419 . S
C685 C680 1.425 . S
C685 C682 1.409 . S
C685 C683 1.415 . S
C686 H676 0.930 1_554 S
C686 C684 1.419 . S
C686 C687 1.362 . S
C687 H677 0.930 . S
C687 C680 1.409 . S
C687 C686 1.362 . S
H688 C694 0.930 . S
H689 C697 0.930 . S
H690 C698 0.930 . S
H691 C699 0.930 . S
H692 C702 0.930 . S
H693 C703 0.930 . S
C694 H688 0.930 . S
C694 C695 1.355 . S
C694 C696 1.415 . S
C695 C694 1.355 . S
C695 C697 1.419 . S
C696 C694 1.415 . S
C696 C701 1.425 . S
C696 C703 1.409 . S
C697 H689 0.930 . S
C697 C695 1.419 . S
C697 C698 1.362 . S
C698 H690 0.930 . S
C698 C697 1.362 . S
C698 C701 1.409 . S
C699 H691 0.930 . S
C699 C700 1.355 . S
C699 C701 1.415 . S
C700 C699 1.355 . S
C700 C702 1.419 . S
C701 C696 1.425 . S
C701 C698 1.409 . S
C701 C699 1.415 . S
C702 H692 0.930 . S
C702 C700 1.419 . S
C702 C703 1.362 . S
C703 H693 0.930 . S
C703 C696 1.409 . S
C703 C702 1.362 . S
H704 C710 0.930 . S
H705 C713 0.930 . S
H706 C714 0.930 . S
H707 C715 0.930 . S
H708 C718 0.930 . S
H709 C719 0.930 . S
C710 H704 0.930 . S
C710 C711 1.355 . S
C710 C712 1.415 . S
C711 C710 1.355 . S
C711 C713 1.419 . S
C712 C710 1.415 . S
C712 C717 1.425 . S
C712 C719 1.409 . S
C713 H705 0.930 . S
C713 C711 1.419 . S
C713 C714 1.362 . S
C714 H706 0.930 . S
C714 C713 1.362 . S
C714 C717 1.409 . S
C715 H707 0.930 . S
C715 C716 1.355 . S
C715 C717 1.415 . S
C716 C715 1.355 . S
C716 C718 1.419 . S
C717 C712 1.425 . S
C717 C714 1.409 . S
C717 C715 1.415 . S
C718 H708 0.930 . S
C718 C716 1.419 . S
C718 C719 1.362 . S
C719 H709 0.930 . S
C719 C712 1.409 . S
C719 C718 1.362 . S
H720 C726 0.930 . S
H721 C729 0.930 . S
H722 C730 0.930 . S
H723 C731 0.930 . S
H724 C734 0.930 . S
H725 C735 0.930 . S
C726 H720 0.930 . S
C726 C727 1.355 . S
C726 C728 1.415 . S
C727 C726 1.355 . S
C727 C729 1.419 . S
C728 C726 1.415 . S
C728 C733 1.425 . S
C728 C735 1.409 . S
C729 H721 0.930 . S
C729 C727 1.419 . S
C729 C730 1.362 . S
C730 H722 0.930 . S
C730 C729 1.362 . S
C730 C733 1.409 . S
C731 H723 0.930 . S
C731 C732 1.355 . S
C731 C733 1.415 . S
C732 C731 1.355 . S
C732 C734 1.419 . S
C733 C728 1.425 . S
C733 C730 1.409 . S
C733 C731 1.415 . S
C734 H724 0.930 . S
C734 C732 1.419 . S
C734 C735 1.362 . S
C735 H725 0.930 . S
C735 C728 1.409 . S
C735 C734 1.362 . S
H736 C742 0.930 . S
H737 C745 0.930 . S
H738 C746 0.930 . S
H739 C747 0.930 . S
H740 C750 0.930 1_554 S
H741 C751 0.930 . S
C742 H736 0.930 . S
C742 C743 1.355 . S
C742 C744 1.415 . S
C743 C742 1.355 . S
C743 C745 1.419 . S
C744 C742 1.415 . S
C744 C749 1.425 . S
C744 C751 1.409 . S
C745 H737 0.930 . S
C745 C743 1.419 . S
C745 C746 1.362 . S
C746 H738 0.930 . S
C746 C745 1.362 . S
C746 C749 1.409 . S
C747 H739 0.930 . S
C747 C748 1.355 1_556 S
C747 C749 1.415 . S
C748 C747 1.355 1_554 S
C748 C750 1.419 1_554 S
C749 C744 1.425 . S
C749 C746 1.409 . S
C749 C747 1.415 . S
C750 H740 0.930 1_556 S
C750 C748 1.419 1_556 S
C750 C751 1.362 . S
C751 H741 0.930 . S
C751 C744 1.409 . S
C751 C750 1.362 . S
H752 C758 0.930 . S
H753 C761 0.930 1_556 S
H754 C762 0.930 . S
H755 C763 0.930 . S
H756 C766 0.930 . S
H757 C767 0.930 . S
C758 H752 0.930 . S
C758 C759 1.355 . S
C758 C760 1.415 . S
C759 C758 1.355 . S
C759 C761 1.419 . S
C760 C758 1.415 . S
C760 C765 1.425 . S
C760 C767 1.409 . S
C761 H753 0.930 1_554 S
C761 C759 1.419 . S
C761 C762 1.362 . S
C762 H754 0.930 . S
C762 C761 1.362 . S
C762 C765 1.409 . S
C763 H755 0.930 . S
C763 C764 1.355 . S
C763 C765 1.415 . S
C764 C763 1.355 . S
C764 C766 1.419 . S
C765 C760 1.425 . S
C765 C762 1.409 . S
C765 C763 1.415 . S
C766 H756 0.930 . S
C766 C764 1.419 . S
C766 C767 1.362 . S
C767 H757 0.930 . S
C767 C760 1.409 . S
C767 C766 1.362 . S
H768 C774 0.930 . S
H769 C777 0.930 . S
H770 C778 0.930 . S
H771 C779 0.930 . S
H772 C782 0.930 . S
H773 C783 0.930 . S
C774 H768 0.930 . S
C774 C775 1.355 . S
C774 C776 1.415 . S
C775 C774 1.355 . S
C775 C777 1.419 . S
C776 C774 1.415 . S
C776 C781 1.425 . S
C776 C783 1.409 . S
C777 H769 0.930 . S
C777 C775 1.419 . S
C777 C778 1.362 . S
C778 H770 0.930 . S
C778 C777 1.362 . S
C778 C781 1.409 . S
C779 H771 0.930 . S
C779 C780 1.355 . S
C779 C781 1.415 . S
C780 C779 1.355 . S
C780 C782 1.419 . S
C781 C776 1.425 . S
C781 C778 1.409 . S
C781 C779 1.415 . S
C782 H772 0.930 . S
C782 C780 1.419 . S
C782 C783 1.362 . S
C783 H773 0.930 . S
C783 C776 1.409 . S
C783 C782 1.362 . S
H784 C790 0.930 . S
H785 C793 0.930 . S
H786 C794 0.930 . S
H787 C795 0.930 . S
H788 C798 0.930 1_556 S
H789 C799 0.930 . S
C790 H784 0.930 . S
C790 C791 1.355 . S
C790 C792 1.415 . S
C791 C790 1.355 . S
C791 C793 1.419 . S
C792 C790 1.415 . S
C792 C797 1.425 . S
C792 C799 1.409 . S
C793 H785 0.930 . S
C793 C791 1.419 . S
C793 C794 1.362 . S
C794 H786 0.930 . S
C794 C793 1.362 . S
C794 C797 1.409 . S
C795 H787 0.930 . S
C795 C796 1.355 1_554 S
C795 C797 1.415 . S
C796 C795 1.355 1_556 S
C796 C798 1.419 1_556 S
C797 C792 1.425 . S
C797 C794 1.409 . S
C797 C795 1.415 . S
C798 H788 0.930 1_554 S
C798 C796 1.419 1_554 S
C798 C799 1.362 . S
C799 H789 0.930 . S
C799 C792 1.409 . S
C799 C798 1.362 . S
H800 C806 0.930 . S
H801 C809 0.930 . S
H802 C810 0.930 . S
H803 C811 0.930 . S
H804 C814 0.930 . S
H805 C815 0.930 . S
C806 H800 0.930 . S
C806 C807 1.355 . S
C806 C808 1.415 . S
C807 C806 1.355 . S
C807 C809 1.419 . S
C808 C806 1.415 . S
C808 C813 1.425 . S
C808 C815 1.409 . S
C809 H801 0.930 . S
C809 C807 1.419 . S
C809 C810 1.362 . S
C810 H802 0.930 . S
C810 C809 1.362 . S
C810 C813 1.409 . S
C811 H803 0.930 . S
C811 C812 1.355 . S
C811 C813 1.415 . S
C812 C811 1.355 . S
C812 C814 1.419 . S
C813 C808 1.425 . S
C813 C810 1.409 . S
C813 C811 1.415 . S
C814 H804 0.930 . S
C814 C812 1.419 . S
C814 C815 1.362 . S
C815 H805 0.930 . S
C815 C808 1.409 . S
C815 C814 1.362 . S
H816 C822 0.930 . S
H817 C825 0.930 . S
H818 C826 0.930 . S
H819 C827 0.930 . S
H820 C830 0.930 . S
H821 C831 0.930 . S
C822 H816 0.930 . S
C822 C823 1.355 . S
C822 C824 1.415 . S
C823 C822 1.355 . S
C823 C825 1.419 . S
C824 C822 1.415 . S
C824 C829 1.425 . S
C824 C831 1.409 . S
C825 H817 0.930 . S
C825 C823 1.419 . S
C825 C826 1.362 . S
C826 H818 0.930 . S
C826 C825 1.362 . S
C826 C829 1.409 . S
C827 H819 0.930 . S
C827 C828 1.355 . S
C827 C829 1.415 . S
C828 C827 1.355 . S
C828 C830 1.419 . S
C829 C824 1.425 . S
C829 C826 1.409 . S
C829 C827 1.415 . S
C830 H820 0.930 . S
C830 C828 1.419 . S
C830 C831 1.362 . S
C831 H821 0.930 . S
C831 C824 1.409 . S
C831 C830 1.362 . S
H832 C838 0.930 . S
H833 C841 0.930 . S
H834 C842 0.930 . S
H835 C843 0.930 . S
H836 C846 0.930 . S
H837 C847 0.930 . S
C838 H832 0.930 . S
C838 C839 1.355 . S
C838 C840 1.415 . S
C839 C838 1.355 . S
C839 C841 1.419 . S
C840 C838 1.415 . S
C840 C845 1.425 . S
C840 C847 1.409 . S
C841 H833 0.930 . S
C841 C839 1.419 . S
C841 C842 1.362 . S
C842 H834 0.930 . S
C842 C841 1.362 . S
C842 C845 1.409 . S
C843 H835 0.930 . S
C843 C844 1.355 . S
C843 C845 1.415 . S
C844 C843 1.355 . S
C844 C846 1.419 . S
C845 C840 1.425 . S
C845 C842 1.409 . S
C845 C843 1.415 . S
C846 H836 0.930 . S
C846 C844 1.419 . S
C846 C847 1.362 . S
C847 H837 0.930 . S
C847 C840 1.409 . S
C847 C846 1.362 . S
H848 C854 0.930 . S
H849 C857 0.930 . S
H850 C858 0.930 . S
H851 C859 0.930 . S
H852 C862 0.930 . S
H853 C863 0.930 . S
C854 H848 0.930 . S
C854 C855 1.355 . S
C854 C856 1.415 . S
C855 C854 1.355 . S
C855 C857 1.419 . S
C856 C854 1.415 . S
C856 C861 1.425 . S
C856 C863 1.409 . S
C857 H849 0.930 . S
C857 C855 1.419 . S
C857 C858 1.362 . S
C858 H850 0.930 . S
C858 C857 1.362 . S
C858 C861 1.409 . S
C859 H851 0.930 . S
C859 C860 1.355 . S
C859 C861 1.415 . S
C860 C859 1.355 . S
C860 C862 1.419 . S
C861 C856 1.425 . S
C861 C858 1.409 . S
C861 C859 1.415 . S
C862 H852 0.930 . S
C862 C860 1.419 . S
C862 C863 1.362 . S
C863 H853 0.930 . S
C863 C856 1.409 . S
C863 C862 1.362 . S
H864 C870 0.930 . S
H865 C873 0.930 . S
H866 C874 0.930 . S
H867 C875 0.930 . S
H868 C878 0.930 1_556 S
H869 C879 0.930 . S
C870 H864 0.930 . S
C870 C871 1.355 . S
C870 C872 1.415 . S
C871 C870 1.355 . S
C871 C873 1.419 . S
C872 C870 1.415 . S
C872 C877 1.425 . S
C872 C879 1.409 . S
C873 H865 0.930 . S
C873 C871 1.419 . S
C873 C874 1.362 . S
C874 H866 0.930 . S
C874 C873 1.362 . S
C874 C877 1.409 . S
C875 H867 0.930 . S
C875 C876 1.355 1_554 S
C875 C877 1.415 . S
C876 C875 1.355 1_556 S
C876 C878 1.419 1_556 S
C877 C872 1.425 . S
C877 C874 1.409 . S
C877 C875 1.415 . S
C878 H868 0.930 1_554 S
C878 C876 1.419 1_554 S
C878 C879 1.362 . S
C879 H869 0.930 . S
C879 C872 1.409 . S
C879 C878 1.362 . S
H880 C886 0.930 . S
H881 C889 0.930 1_554 S
H882 C890 0.930 . S
H883 C891 0.930 . S
H884 C894 0.930 . S
H885 C895 0.930 . S
C886 H880 0.930 . S
C886 C887 1.355 . S
C886 C888 1.415 . S
C887 C886 1.355 . S
C887 C889 1.419 . S
C888 C886 1.415 . S
C888 C893 1.425 . S
C888 C895 1.409 . S
C889 H881 0.930 1_556 S
C889 C887 1.419 . S
C889 C890 1.362 . S
C890 H882 0.930 . S
C890 C889 1.362 . S
C890 C893 1.409 . S
C891 H883 0.930 . S
C891 C892 1.355 . S
C891 C893 1.415 . S
C892 C891 1.355 . S
C892 C894 1.419 . S
C893 C888 1.425 . S
C893 C890 1.409 . S
C893 C891 1.415 . S
C894 H884 0.930 . S
C894 C892 1.419 . S
C894 C895 1.362 . S
C895 H885 0.930 . S
C895 C888 1.409 . S
C895 C894 1.362 . S
H896 C902 0.930 . S
H897 C905 0.930 . S
H898 C906 0.930 . S
H899 C907 0.930 . S
H900 C910 0.930 . S
H901 C911 0.930 . S
C902 H896 0.930 . S
C902 C903 1.355 . S
C902 C904 1.415 . S
C903 C902 1.355 . S
C903 C905 1.419 . S
C904 C902 1.415 . S
C904 C909 1.425 . S
C904 C911 1.409 . S
C905 H897 0.930 . S
C905 C903 1.419 . S
C905 C906 1.362 . S
C906 H898 0.930 . S
C906 C905 1.362 . S
C906 C909 1.409 . S
C907 H899 0.930 . S
C907 C908 1.355 . S
C907 C909 1.415 . S
C908 C907 1.355 . S
C908 C910 1.419 . S
C909 C904 1.425 . S
C909 C906 1.409 . S
C909 C907 1.415 . S
C910 H900 0.930 . S
C910 C908 1.419 . S
C910 C911 1.362 . S
C911 H901 0.930 . S
C911 C904 1.409 . S
C911 C910 1.362 . S
H912 C918 0.930 . S
H913 C921 0.930 . S
H914 C922 0.930 . S
H915 C923 0.930 . S
H916 C926 0.930 . S
H917 C927 0.930 . S
C918 H912 0.930 . S
C918 C919 1.355 . S
C918 C920 1.415 . S
C919 C918 1.355 . S
C919 C921 1.419 . S
C920 C918 1.415 . S
C920 C925 1.425 . S
C920 C927 1.409 . S
C921 H913 0.930 . S
C921 C919 1.419 . S
C921 C922 1.362 . S
C922 H914 0.930 . S
C922 C921 1.362 . S
C922 C925 1.409 . S
C923 H915 0.930 . S
C923 C924 1.355 . S
C923 C925 1.415 . S
C924 C923 1.355 . S
C924 C926 1.419 . S
C925 C920 1.425 . S
C925 C922 1.409 . S
C925 C923 1.415 . S
C926 H916 0.930 . S
C926 C924 1.419 . S
C926 C927 1.362 . S
C927 H917 0.930 . S
C927 C920 1.409 . S
C927 C926 1.362 . S
H928 C934 0.930 . S
H929 C937 0.930 . S
H930 C938 0.930 . S
H931 C939 0.930 . S
H932 C942 0.930 . S
H933 C943 0.930 . S
C934 H928 0.930 . S
C934 C935 1.355 . S
C934 C936 1.415 . S
C935 C934 1.355 . S
C935 C937 1.419 . S
C936 C934 1.415 . S
C936 C941 1.425 . S
C936 C943 1.409 . S
C937 H929 0.930 . S
C937 C935 1.419 . S
C937 C938 1.362 . S
C938 H930 0.930 . S
C938 C937 1.362 . S
C938 C941 1.409 . S
C939 H931 0.930 . S
C939 C940 1.355 . S
C939 C941 1.415 . S
C940 C939 1.355 . S
C940 C942 1.419 . S
C941 C936 1.425 . S
C941 C938 1.409 . S
C941 C939 1.415 . S
C942 H932 0.930 . S
C942 C940 1.419 . S
C942 C943 1.362 . S
C943 H933 0.930 . S
C943 C936 1.409 . S
C943 C942 1.362 . S
H944 C950 0.930 . S
H945 C953 0.930 . S
H946 C954 0.930 . S
H947 C955 0.930 . S
H948 C958 0.930 . S
H949 C959 0.930 . S
C950 H944 0.930 . S
C950 C951 1.355 . S
C950 C952 1.415 . S
C951 C950 1.355 . S
C951 C953 1.419 . S
C952 C950 1.415 . S
C952 C957 1.425 1_655 S
C952 C959 1.409 1_655 S
C953 H945 0.930 . S
C953 C951 1.419 . S
C953 C954 1.362 . S
C954 H946 0.930 . S
C954 C953 1.362 . S
C954 C957 1.409 1_655 S
C955 H947 0.930 . S
C955 C956 1.355 . S
C955 C957 1.415 . S
C956 C955 1.355 . S
C956 C958 1.419 . S
C957 C952 1.425 1_455 S
C957 C954 1.409 1_455 S
C957 C955 1.415 . S
C958 H948 0.930 . S
C958 C956 1.419 . S
C958 C959 1.362 . S
C959 H949 0.930 . S
C959 C952 1.409 1_455 S
C959 C958 1.362 . S
H960 C966 0.930 . S
H961 C969 0.930 . S
H962 C970 0.930 . S
H963 C971 0.930 . S
H964 C974 0.930 . S
H965 C975 0.930 . S
C966 H960 0.930 . S
C966 C967 1.355 . S
C966 C968 1.415 . S
C967 C966 1.355 . S
C967 C969 1.419 . S
C968 C966 1.415 . S
C968 C973 1.425 . S
C968 C975 1.409 . S
C969 H961 0.930 . S
C969 C967 1.419 . S
C969 C970 1.362 . S
C970 H962 0.930 . S
C970 C969 1.362 . S
C970 C973 1.409 . S
C971 H963 0.930 . S
C971 C972 1.355 . S
C971 C973 1.415 . S
C972 C971 1.355 . S
C972 C974 1.419 . S
C973 C968 1.425 . S
C973 C970 1.409 . S
C973 C971 1.415 . S
C974 H964 0.930 . S
C974 C972 1.419 . S
C974 C975 1.362 . S
C975 H965 0.930 . S
C975 C968 1.409 . S
C975 C974 1.362 . S
H976 C982 0.930 . S
H977 C985 0.930 . S
H978 C986 0.930 . S
H979 C987 0.930 . S
H980 C990 0.930 . S
H981 C991 0.930 . S
C982 H976 0.930 . S
C982 C983 1.355 . S
C982 C984 1.415 . S
C983 C982 1.355 . S
C983 C985 1.419 . S
C984 C982 1.415 . S
C984 C989 1.425 1_455 S
C984 C991 1.409 1_455 S
C985 H977 0.930 . S
C985 C983 1.419 . S
C985 C986 1.362 . S
C986 H978 0.930 . S
C986 C985 1.362 . S
C986 C989 1.409 1_455 S
C987 H979 0.930 . S
C987 C988 1.355 . S
C987 C989 1.415 . S
C988 C987 1.355 . S
C988 C990 1.419 . S
C989 C984 1.425 1_655 S
C989 C986 1.409 1_655 S
C989 C987 1.415 . S
C990 H980 0.930 . S
C990 C988 1.419 . S
C990 C991 1.362 . S
C991 H981 0.930 . S
C991 C984 1.409 1_655 S
C991 C990 1.362 . S
H992 C998 0.930 . S
H993 C1001 0.930 . S
H994 C1002 0.930 . S
H995 C1003 0.930 . S
H996 C1006 0.930 . S
H997 C1007 0.930 . S
C998 H992 0.930 . S
C998 C999 1.355 . S
C998 C1000 1.415 . S
C999 C998 1.355 . S
C999 C1001 1.419 . S
C1000 C998 1.415 . S
C1000 C1005 1.425 . S
C1000 C1007 1.409 . S
C1001 H993 0.930 . S
C1001 C999 1.419 . S
C1001 C1002 1.362 . S
C1002 H994 0.930 . S
C1002 C1001 1.362 . S
C1002 C1005 1.409 . S
C1003 H995 0.930 . S
C1003 C1004 1.355 . S
C1003 C1005 1.415 . S
C1004 C1003 1.355 . S
C1004 C1006 1.419 . S
C1005 C1000 1.425 . S
C1005 C1002 1.409 . S
C1005 C1003 1.415 . S
C1006 H996 0.930 . S
C1006 C1004 1.419 . S
C1006 C1007 1.362 . S
C1007 H997 0.930 . S
C1007 C1000 1.409 . S
C1007 C1006 1.362 . S
H1008 C1014 0.930 . S
H1009 C1017 0.930 . S
H1010 C1018 0.930 . S
H1011 C1019 0.930 . S
H1012 C1022 0.930 . S
H1013 C1023 0.930 . S
C1014 H1008 0.930 . S
C1014 C1015 1.355 . S
C1014 C1016 1.415 . S
C1015 C1014 1.355 . S
C1015 C1017 1.419 . S
C1016 C1014 1.415 . S
C1016 C1021 1.425 . S
C1016 C1023 1.409 . S
C1017 H1009 0.930 . S
C1017 C1015 1.419 . S
C1017 C1018 1.362 . S
C1018 H1010 0.930 . S
C1018 C1017 1.362 . S
C1018 C1021 1.409 . S
C1019 H1011 0.930 . S
C1019 C1020 1.355 . S
C1019 C1021 1.415 . S
C1020 C1019 1.355 . S
C1020 C1022 1.419 . S
C1021 C1016 1.425 . S
C1021 C1018 1.409 . S
C1021 C1019 1.415 . S
C1022 H1012 0.930 . S
C1022 C1020 1.419 . S
C1022 C1023 1.362 . S
C1023 H1013 0.930 . S
C1023 C1016 1.409 . S
C1023 C1022 1.362 . S
H1024 C1030 0.930 . S
H1025 C1033 0.930 . S
H1026 C1034 0.930 . S
H1027 C1035 0.930 . S
H1028 C1038 0.930 . S
H1029 C1039 0.930 . S
C1030 H1024 0.930 . S
C1030 C1031 1.355 . S
C1030 C1032 1.415 . S
C1031 C1030 1.355 . S
C1031 C1033 1.419 . S
C1032 C1030 1.415 . S
C1032 C1037 1.425 . S
C1032 C1039 1.409 . S
C1033 H1025 0.930 . S
C1033 C1031 1.419 . S
C1033 C1034 1.362 . S
C1034 H1026 0.930 . S
C1034 C1033 1.362 . S
C1034 C1037 1.409 . S
C1035 H1027 0.930 . S
C1035 C1036 1.355 . S
C1035 C1037 1.415 . S
C1036 C1035 1.355 . S
C1036 C1038 1.419 . S
C1037 C1032 1.425 . S
C1037 C1034 1.409 . S
C1037 C1035 1.415 . S
C1038 H1028 0.930 . S
C1038 C1036 1.419 . S
C1038 C1039 1.362 . S
C1039 H1029 0.930 . S
C1039 C1032 1.409 . S
C1039 C1038 1.362 . S
H1040 C1046 0.930 . S
H1041 C1049 0.930 . S
H1042 C1050 0.930 . S
H1043 C1051 0.930 . S
H1044 C1054 0.930 . S
H1045 C1055 0.930 . S
C1046 H1040 0.930 . S
C1046 C1047 1.355 . S
C1046 C1048 1.415 . S
C1047 C1046 1.355 . S
C1047 C1049 1.419 . S
C1048 C1046 1.415 . S
C1048 C1053 1.425 . S
C1048 C1055 1.409 . S
C1049 H1041 0.930 . S
C1049 C1047 1.419 . S
C1049 C1050 1.362 . S
C1050 H1042 0.930 . S
C1050 C1049 1.362 . S
C1050 C1053 1.409 . S
C1051 H1043 0.930 . S
C1051 C1052 1.355 . S
C1051 C1053 1.415 . S
C1052 C1051 1.355 . S
C1052 C1054 1.419 . S
C1053 C1048 1.425 . S
C1053 C1050 1.409 . S
C1053 C1051 1.415 . S
C1054 H1044 0.930 . S
C1054 C1052 1.419 . S
C1054 C1055 1.362 . S
C1055 H1045 0.930 . S
C1055 C1048 1.409 . S
C1055 C1054 1.362 . S
H1056 C1062 0.930 . S
H1057 C1065 0.930 . S
H1058 C1066 0.930 . S
H1059 C1067 0.930 . S
H1060 C1070 0.930 . S
H1061 C1071 0.930 . S
C1062 H1056 0.930 . S
C1062 C1063 1.355 . S
C1062 C1064 1.415 . S
C1063 C1062 1.355 . S
C1063 C1065 1.419 . S
C1064 C1062 1.415 . S
C1064 C1069 1.425 . S
C1064 C1071 1.409 . S
C1065 H1057 0.930 . S
C1065 C1063 1.419 . S
C1065 C1066 1.362 . S
C1066 H1058 0.930 . S
C1066 C1065 1.362 . S
C1066 C1069 1.409 . S
C1067 H1059 0.930 . S
C1067 C1068 1.355 . S
C1067 C1069 1.415 . S
C1068 C1067 1.355 . S
C1068 C1070 1.419 . S
C1069 C1064 1.425 . S
C1069 C1066 1.409 . S
C1069 C1067 1.415 . S
C1070 H1060 0.930 . S
C1070 C1068 1.419 . S
C1070 C1071 1.362 . S
C1071 H1061 0.930 . S
C1071 C1064 1.409 . S
C1071 C1070 1.362 . S
H1072 C1078 0.930 . S
H1073 C1081 0.930 . S
H1074 C1082 0.930 . S
H1075 C1083 0.930 . S
H1076 C1086 0.930 . S
H1077 C1087 0.930 . S
C1078 H1072 0.930 . S
C1078 C1079 1.355 . S
C1078 C1080 1.415 . S
C1079 C1078 1.355 . S
C1079 C1081 1.419 . S
C1080 C1078 1.415 . S
C1080 C1085 1.425 . S
C1080 C1087 1.409 . S
C1081 H1073 0.930 . S
C1081 C1079 1.419 . S
C1081 C1082 1.362 . S
C1082 H1074 0.930 . S
C1082 C1081 1.362 . S
C1082 C1085 1.409 . S
C1083 H1075 0.930 . S
C1083 C1084 1.355 . S
C1083 C1085 1.415 . S
C1084 C1083 1.355 . S
C1084 C1086 1.419 . S
C1085 C1080 1.425 . S
C1085 C1082 1.409 . S
C1085 C1083 1.415 . S
C1086 H1076 0.930 . S
C1086 C1084 1.419 . S
C1086 C1087 1.362 . S
C1087 H1077 0.930 . S
C1087 C1080 1.409 . S
C1087 C1086 1.362 . S
H1088 C1094 0.930 . S
H1089 C1097 0.930 1_554 S
H1090 C1098 0.930 . S
H1091 C1099 0.930 1_554 S
H1092 C1102 0.930 . S
H1093 C1103 0.930 . S
C1094 H1088 0.930 . S
C1094 C1095 1.355 . S
C1094 C1096 1.415 . S
C1095 C1094 1.355 . S
C1095 C1097 1.419 . S
C1096 C1094 1.415 . S
C1096 C1101 1.425 1_655 S
C1096 C1103 1.409 1_655 S
C1097 H1089 0.930 1_556 S
C1097 C1095 1.419 . S
C1097 C1098 1.362 1_556 S
C1098 H1090 0.930 . S
C1098 C1097 1.362 1_554 S
C1098 C1101 1.409 1_654 S
C1099 H1091 0.930 1_556 S
C1099 C1100 1.355 . S
C1099 C1101 1.415 . S
C1100 C1099 1.355 . S
C1100 C1102 1.419 . S
C1101 C1096 1.425 1_455 S
C1101 C1098 1.409 1_456 S
C1101 C1099 1.415 . S
C1102 H1092 0.930 . S
C1102 C1100 1.419 . S
C1102 C1103 1.362 . S
C1103 H1093 0.930 . S
C1103 C1096 1.409 1_455 S
C1103 C1102 1.362 . S
H1104 C1110 0.930 . S
H1105 C1113 0.930 . S
H1106 C1114 0.930 . S
H1107 C1115 0.930 . S
H1108 C1118 0.930 . S
H1109 C1119 0.930 . S
C1110 H1104 0.930 . S
C1110 C1111 1.355 . S
C1110 C1112 1.415 . S
C1111 C1110 1.355 . S
C1111 C1113 1.419 . S
C1112 C1110 1.415 . S
C1112 C1117 1.425 . S
C1112 C1119 1.409 . S
C1113 H1105 0.930 . S
C1113 C1111 1.419 . S
C1113 C1114 1.362 . S
C1114 H1106 0.930 . S
C1114 C1113 1.362 . S
C1114 C1117 1.409 . S
C1115 H1107 0.930 . S
C1115 C1116 1.355 . S
C1115 C1117 1.415 . S
C1116 C1115 1.355 . S
C1116 C1118 1.419 . S
C1117 C1112 1.425 . S
C1117 C1114 1.409 . S
C1117 C1115 1.415 . S
C1118 H1108 0.930 . S
C1118 C1116 1.419 . S
C1118 C1119 1.362 . S
C1119 H1109 0.930 . S
C1119 C1112 1.409 . S
C1119 C1118 1.362 . S
H1120 C1126 0.930 . S
H1121 C1129 0.930 . S
H1122 C1130 0.930 . S
H1123 C1131 0.930 . S
H1124 C1134 0.930 . S
H1125 C1135 0.930 . S
C1126 H1120 0.930 . S
C1126 C1127 1.355 . S
C1126 C1128 1.415 . S
C1127 C1126 1.355 . S
C1127 C1129 1.419 . S
C1128 C1126 1.415 . S
C1128 C1133 1.425 . S
C1128 C1135 1.409 . S
C1129 H1121 0.930 . S
C1129 C1127 1.419 . S
C1129 C1130 1.362 . S
C1130 H1122 0.930 . S
C1130 C1129 1.362 . S
C1130 C1133 1.409 . S
C1131 H1123 0.930 . S
C1131 C1132 1.355 . S
C1131 C1133 1.415 . S
C1132 C1131 1.355 . S
C1132 C1134 1.419 . S
C1133 C1128 1.425 . S
C1133 C1130 1.409 . S
C1133 C1131 1.415 . S
C1134 H1124 0.930 . S
C1134 C1132 1.419 . S
C1134 C1135 1.362 . S
C1135 H1125 0.930 . S
C1135 C1128 1.409 . S
C1135 C1134 1.362 . S
H1136 C1142 0.930 . S
H1137 C1145 0.930 . S
H1138 C1146 0.930 . S
H1139 C1147 0.930 . S
H1140 C1150 0.930 . S
H1141 C1151 0.930 . S
C1142 H1136 0.930 . S
C1142 C1143 1.355 . S
C1142 C1144 1.415 . S
C1143 C1142 1.355 . S
C1143 C1145 1.419 . S
C1144 C1142 1.415 . S
C1144 C1149 1.425 1_455 S
C1144 C1151 1.409 1_455 S
C1145 H1137 0.930 . S
C1145 C1143 1.419 . S
C1145 C1146 1.362 . S
C1146 H1138 0.930 . S
C1146 C1145 1.362 . S
C1146 C1149 1.409 1_455 S
C1147 H1139 0.930 . S
C1147 C1148 1.355 . S
C1147 C1149 1.415 . S
C1148 C1147 1.355 . S
C1148 C1150 1.419 . S
C1149 C1144 1.425 1_655 S
C1149 C1146 1.409 1_655 S
C1149 C1147 1.415 . S
C1150 H1140 0.930 . S
C1150 C1148 1.419 . S
C1150 C1151 1.362 . S
C1151 H1141 0.930 . S
C1151 C1144 1.409 1_655 S
C1151 C1150 1.362 . S
H1152 C1158 0.930 . S
H1153 C1161 0.930 . S
H1154 C1162 0.930 . S
H1155 C1163 0.930 . S
H1156 C1166 0.930 . S
H1157 C1167 0.930 . S
C1158 H1152 0.930 . S
C1158 C1159 1.355 . S
C1158 C1160 1.415 . S
C1159 C1158 1.355 . S
C1159 C1161 1.419 . S
C1160 C1158 1.415 . S
C1160 C1165 1.425 . S
C1160 C1167 1.409 . S
C1161 H1153 0.930 . S
C1161 C1159 1.419 . S
C1161 C1162 1.362 . S
C1162 H1154 0.930 . S
C1162 C1161 1.362 . S
C1162 C1165 1.409 . S
C1163 H1155 0.930 . S
C1163 C1164 1.355 . S
C1163 C1165 1.415 1_556 S
C1164 C1163 1.355 . S
C1164 C1166 1.419 . S
C1165 C1160 1.425 . S
C1165 C1162 1.409 . S
C1165 C1163 1.415 1_554 S
C1166 H1156 0.930 . S
C1166 C1164 1.419 . S
C1166 C1167 1.362 1_556 S
C1167 H1157 0.930 . S
C1167 C1160 1.409 . S
C1167 C1166 1.362 1_554 S
H1168 C1174 0.930 . S
H1169 C1177 0.930 . S
H1170 C1178 0.930 . S
H1171 C1179 0.930 . S
H1172 C1182 0.930 . S
H1173 C1183 0.930 . S
C1174 H1168 0.930 . S
C1174 C1175 1.355 . S
C1174 C1176 1.415 . S
C1175 C1174 1.355 . S
C1175 C1177 1.419 . S
C1176 C1174 1.415 . S
C1176 C1181 1.425 . S
C1176 C1183 1.409 . S
C1177 H1169 0.930 . S
C1177 C1175 1.419 . S
C1177 C1178 1.362 . S
C1178 H1170 0.930 . S
C1178 C1177 1.362 . S
C1178 C1181 1.409 . S
C1179 H1171 0.930 . S
C1179 C1180 1.355 . S
C1179 C1181 1.415 . S
C1180 C1179 1.355 . S
C1180 C1182 1.419 . S
C1181 C1176 1.425 . S
C1181 C1178 1.409 . S
C1181 C1179 1.415 . S
C1182 H1172 0.930 . S
C1182 C1180 1.419 . S
C1182 C1183 1.362 . S
C1183 H1173 0.930 . S
C1183 C1176 1.409 . S
C1183 C1182 1.362 . S
H1184 C1190 0.930 . S
H1185 C1193 0.930 . S
H1186 C1194 0.930 . S
H1187 C1195 0.930 . S
H1188 C1198 0.930 . S
H1189 C1199 0.930 . S
C1190 H1184 0.930 . S
C1190 C1191 1.355 . S
C1190 C1192 1.415 . S
C1191 C1190 1.355 . S
C1191 C1193 1.419 . S
C1192 C1190 1.415 . S
C1192 C1197 1.425 . S
C1192 C1199 1.409 . S
C1193 H1185 0.930 . S
C1193 C1191 1.419 . S
C1193 C1194 1.362 . S
C1194 H1186 0.930 . S
C1194 C1193 1.362 . S
C1194 C1197 1.409 . S
C1195 H1187 0.930 . S
C1195 C1196 1.355 . S
C1195 C1197 1.415 . S
C1196 C1195 1.355 . S
C1196 C1198 1.419 . S
C1197 C1192 1.425 . S
C1197 C1194 1.409 . S
C1197 C1195 1.415 . S
C1198 H1188 0.930 . S
C1198 C1196 1.419 . S
C1198 C1199 1.362 . S
C1199 H1189 0.930 . S
C1199 C1192 1.409 . S
C1199 C1198 1.362 . S
H1200 C1206 0.930 . S
H1201 C1209 0.930 . S
H1202 C1210 0.930 . S
H1203 C1211 0.930 . S
H1204 C1214 0.930 . S
H1205 C1215 0.930 . S
C1206 H1200 0.930 . S
C1206 C1207 1.355 . S
C1206 C1208 1.415 . S
C1207 C1206 1.355 . S
C1207 C1209 1.419 . S
C1208 C1206 1.415 . S
C1208 C1213 1.425 . S
C1208 C1215 1.409 . S
C1209 H1201 0.930 . S
C1209 C1207 1.419 . S
C1209 C1210 1.362 . S
C1210 H1202 0.930 . S
C1210 C1209 1.362 . S
C1210 C1213 1.409 . S
C1211 H1203 0.930 . S
C1211 C1212 1.355 . S
C1211 C1213 1.415 . S
C1212 C1211 1.355 . S
C1212 C1214 1.419 . S
C1213 C1208 1.425 . S
C1213 C1210 1.409 . S
C1213 C1211 1.415 . S
C1214 H1204 0.930 . S
C1214 C1212 1.419 . S
C1214 C1215 1.362 . S
C1215 H1205 0.930 . S
C1215 C1208 1.409 . S
C1215 C1214 1.362 . S
H1216 C1222 0.930 . S
H1217 C1225 0.930 . S
H1218 C1226 0.930 . S
H1219 C1227 0.935 . S
H1220 C1230 0.930 . S
H1221 C1231 0.930 . S
C1222 H1216 0.930 . S
C1222 C1223 1.355 . S
C1222 C1224 1.415 1_554 S
C1223 C1222 1.355 . S
C1223 C1225 1.419 . S
C1224 C1222 1.415 1_556 S
C1224 C1229 1.425 1_556 S
C1224 C1231 1.409 . S
C1225 H1217 0.930 . S
C1225 C1223 1.419 . S
C1225 C1226 1.362 . S
C1226 H1218 0.930 . S
C1226 C1225 1.362 . S
C1226 C1229 1.409 . S
C1227 H1219 0.935 . S
C1227 C1228 1.355 . S
C1227 C1229 1.415 1_556 S
C1228 C1227 1.355 . S
C1228 C1230 1.419 . S
C1229 C1224 1.425 1_554 S
C1229 C1226 1.409 . S
C1229 C1227 1.415 1_554 S
C1230 H1220 0.930 . S
C1230 C1228 1.419 . S
C1230 C1231 1.362 . S
C1231 H1221 0.930 . S
C1231 C1224 1.409 . S
C1231 C1230 1.362 . S
H1232 C1238 0.930 . S
H1233 C1241 0.930 . S
H1234 C1242 0.930 . S
H1235 C1243 0.930 . S
H1236 C1246 0.930 . S
H1237 C1247 0.930 . S
C1238 H1232 0.930 . S
C1238 C1239 1.355 . S
C1238 C1240 1.415 . S
C1239 C1238 1.355 . S
C1239 C1241 1.419 . S
C1240 C1238 1.415 . S
C1240 C1245 1.425 . S
C1240 C1247 1.409 . S
C1241 H1233 0.930 . S
C1241 C1239 1.419 . S
C1241 C1242 1.362 . S
C1242 H1234 0.930 . S
C1242 C1241 1.362 . S
C1242 C1245 1.409 . S
C1243 H1235 0.930 . S
C1243 C1244 1.355 . S
C1243 C1245 1.415 . S
C1244 C1243 1.355 . S
C1244 C1246 1.419 . S
C1245 C1240 1.425 . S
C1245 C1242 1.409 . S
C1245 C1243 1.415 . S
C1246 H1236 0.930 . S
C1246 C1244 1.419 . S
C1246 C1247 1.362 . S
C1247 H1237 0.930 . S
C1247 C1240 1.409 . S
C1247 C1246 1.362 . S
H1248 C1254 0.930 . S
H1249 C1257 0.930 . S
H1250 C1258 0.930 . S
H1251 C1259 0.930 . S
H1252 C1262 0.930 . S
H1253 C1263 0.930 . S
C1254 H1248 0.930 . S
C1254 C1255 1.355 . S
C1254 C1256 1.415 . S
C1255 C1254 1.355 . S
C1255 C1257 1.419 . S
C1256 C1254 1.415 . S
C1256 C1261 1.425 . S
C1256 C1263 1.409 . S
C1257 H1249 0.930 . S
C1257 C1255 1.419 . S
C1257 C1258 1.362 . S
C1258 H1250 0.930 . S
C1258 C1257 1.362 . S
C1258 C1261 1.409 . S
C1259 H1251 0.930 . S
C1259 C1260 1.355 . S
C1259 C1261 1.415 . S
C1260 C1259 1.355 . S
C1260 C1262 1.419 . S
C1261 C1256 1.425 . S
C1261 C1258 1.409 . S
C1261 C1259 1.415 . S
C1262 H1252 0.930 . S
C1262 C1260 1.419 . S
C1262 C1263 1.362 . S
C1263 H1253 0.930 . S
C1263 C1256 1.409 . S
C1263 C1262 1.362 . S
H1264 C1270 0.930 . S
H1265 C1273 0.930 . S
H1266 C1274 0.930 . S
H1267 C1275 0.930 . S
H1268 C1278 0.930 . S
H1269 C1279 0.930 . S
C1270 H1264 0.930 . S
C1270 C1271 1.355 . S
C1270 C1272 1.415 . S
C1271 C1270 1.355 . S
C1271 C1273 1.419 . S
C1272 C1270 1.415 . S
C1272 C1277 1.425 . S
C1272 C1279 1.409 . S
C1273 H1265 0.930 . S
C1273 C1271 1.419 . S
C1273 C1274 1.362 . S
C1274 H1266 0.930 . S
C1274 C1273 1.362 . S
C1274 C1277 1.409 . S
C1275 H1267 0.930 . S
C1275 C1276 1.355 . S
C1275 C1277 1.415 . S
C1276 C1275 1.355 . S
C1276 C1278 1.419 . S
C1277 C1272 1.425 . S
C1277 C1274 1.409 . S
C1277 C1275 1.415 . S
C1278 H1268 0.930 . S
C1278 C1276 1.419 . S
C1278 C1279 1.362 . S
C1279 H1269 0.930 . S
C1279 C1272 1.409 . S
C1279 C1278 1.362 . S
H1280 C1286 0.930 . S
H1281 C1289 0.930 . S
H1282 C1290 0.930 . S
H1283 C1291 0.930 . S
H1284 C1294 0.930 . S
H1285 C1295 0.930 . S
C1286 H1280 0.930 . S
C1286 C1287 1.355 . S
C1286 C1288 1.415 . S
C1287 C1286 1.355 . S
C1287 C1289 1.419 . S
C1288 C1286 1.415 . S
C1288 C1293 1.425 1_565 S
C1288 C1295 1.409 1_565 S
C1289 H1281 0.930 . S
C1289 C1287 1.419 . S
C1289 C1290 1.362 . S
C1290 H1282 0.930 . S
C1290 C1289 1.362 . S
C1290 C1293 1.409 1_565 S
C1291 H1283 0.930 . S
C1291 C1292 1.355 . S
C1291 C1293 1.415 . S
C1292 C1291 1.355 . S
C1292 C1294 1.419 . S
C1293 C1288 1.425 1_545 S
C1293 C1290 1.409 1_545 S
C1293 C1291 1.415 . S
C1294 H1284 0.930 . S
C1294 C1292 1.419 . S
C1294 C1295 1.362 . S
C1295 H1285 0.930 . S
C1295 C1288 1.409 1_545 S
C1295 C1294 1.362 . S
H1296 C1302 0.930 . S
H1297 C1305 0.930 . S
H1298 C1306 0.930 . S
H1299 C1307 0.930 . S
H1300 C1310 0.930 . S
H1301 C1311 0.930 . S
C1302 H1296 0.930 . S
C1302 C1303 1.355 . S
C1302 C1304 1.415 . S
C1303 C1302 1.355 . S
C1303 C1305 1.419 . S
C1304 C1302 1.415 . S
C1304 C1309 1.425 . S
C1304 C1311 1.409 . S
C1305 H1297 0.930 . S
C1305 C1303 1.419 . S
C1305 C1306 1.362 . S
C1306 H1298 0.930 . S
C1306 C1305 1.362 . S
C1306 C1309 1.409 . S
C1307 H1299 0.930 . S
C1307 C1308 1.355 . S
C1307 C1309 1.415 . S
C1308 C1307 1.355 . S
C1308 C1310 1.419 . S
C1309 C1304 1.425 . S
C1309 C1306 1.409 . S
C1309 C1307 1.415 . S
C1310 H1300 0.930 . S
C1310 C1308 1.419 . S
C1310 C1311 1.362 . S
C1311 H1301 0.930 . S
C1311 C1304 1.409 . S
C1311 C1310 1.362 . S
H1312 C1318 0.930 . S
H1313 C1321 0.930 . S
H1314 C1322 0.929 1_545 S
H1315 C1323 0.930 . S
H1316 C1326 0.930 . S
H1317 C1327 0.930 . S
C1318 H1312 0.930 . S
C1318 C1319 1.355 . S
C1318 C1320 1.415 1_554 S
C1319 C1318 1.355 . S
C1319 C1321 1.419 . S
C1320 C1318 1.415 1_556 S
C1320 C1325 1.425 1_565 S
C1320 C1327 1.409 . S
C1321 H1313 0.930 . S
C1321 C1319 1.419 . S
C1321 C1322 1.364 . S
C1322 H1314 0.929 1_565 S
C1322 C1321 1.364 . S
C1322 C1325 1.408 1_564 S
C1323 H1315 0.930 . S
C1323 C1324 1.355 . S
C1323 C1325 1.415 . S
C1324 C1323 1.355 . S
C1324 C1326 1.419 . S
C1325 C1320 1.425 1_545 S
C1325 C1322 1.408 1_546 S
C1325 C1323 1.415 . S
C1326 H1316 0.930 . S
C1326 C1324 1.419 . S
C1326 C1327 1.362 1_545 S
C1327 H1317 0.930 . S
C1327 C1320 1.409 . S
C1327 C1326 1.362 1_565 S
H1328 C1334 0.930 . S
H1329 C1337 0.930 . S
H1330 C1338 0.930 . S
H1331 C1339 0.930 . S
H1332 C1342 0.930 . S
H1333 C1343 0.930 . S
C1334 H1328 0.930 . S
C1334 C1335 1.355 . S
C1334 C1336 1.415 . S
C1335 C1334 1.355 . S
C1335 C1337 1.419 . S
C1336 C1334 1.415 . S
C1336 C1341 1.425 . S
C1336 C1343 1.409 . S
C1337 H1329 0.930 . S
C1337 C1335 1.419 . S
C1337 C1338 1.362 . S
C1338 H1330 0.930 . S
C1338 C1337 1.362 . S
C1338 C1341 1.409 . S
C1339 H1331 0.930 . S
C1339 C1340 1.355 . S
C1339 C1341 1.415 . S
C1340 C1339 1.355 . S
C1340 C1342 1.419 . S
C1341 C1336 1.425 . S
C1341 C1338 1.409 . S
C1341 C1339 1.415 . S
C1342 H1332 0.930 . S
C1342 C1340 1.419 . S
C1342 C1343 1.362 . S
C1343 H1333 0.930 . S
C1343 C1336 1.409 . S
C1343 C1342 1.362 . S
H1344 C1350 0.930 . S
H1345 C1353 0.930 . S
H1346 C1354 0.930 1_545 S
H1347 C1355 0.930 . S
H1348 C1358 0.930 . S
H1349 C1359 0.930 1_565 S
C1350 H1344 0.930 . S
C1350 C1351 1.355 . S
C1350 C1352 1.415 . S
C1351 C1350 1.355 . S
C1351 C1353 1.419 . S
C1352 C1350 1.415 . S
C1352 C1357 1.425 1_565 S
C1352 C1359 1.409 1_565 S
C1353 H1345 0.930 . S
C1353 C1351 1.419 . S
C1353 C1354 1.362 . S
C1354 H1346 0.930 1_565 S
C1354 C1353 1.362 . S
C1354 C1357 1.409 1_565 S
C1355 H1347 0.930 . S
C1355 C1356 1.355 . S
C1355 C1357 1.415 . S
C1356 C1355 1.355 . S
C1356 C1358 1.419 . S
C1357 C1352 1.425 1_545 S
C1357 C1354 1.409 1_545 S
C1357 C1355 1.415 . S
C1358 H1348 0.930 . S
C1358 C1356 1.419 . S
C1358 C1359 1.362 . S
C1359 H1349 0.930 1_545 S
C1359 C1352 1.409 1_545 S
C1359 C1358 1.362 . S
H1360 C1366 0.930 . S
H1361 C1369 0.930 . S
H1362 C1370 0.930 . S
H1363 C1371 0.930 . S
H1364 C1374 0.930 . S
H1365 C1375 0.930 . S
C1366 H1360 0.930 . S
C1366 C1367 1.355 . S
C1366 C1368 1.415 . S
C1367 C1366 1.355 . S
C1367 C1369 1.419 . S
C1368 C1366 1.415 . S
C1368 C1373 1.425 . S
C1368 C1375 1.409 . S
C1369 H1361 0.930 . S
C1369 C1367 1.419 . S
C1369 C1370 1.362 . S
C1370 H1362 0.930 . S
C1370 C1369 1.362 . S
C1370 C1373 1.409 . S
C1371 H1363 0.930 . S
C1371 C1372 1.355 . S
C1371 C1373 1.415 . S
C1372 C1371 1.355 . S
C1372 C1374 1.419 . S
C1373 C1368 1.425 . S
C1373 C1370 1.409 . S
C1373 C1371 1.415 . S
C1374 H1364 0.930 . S
C1374 C1372 1.419 . S
C1374 C1375 1.362 . S
C1375 H1365 0.930 . S
C1375 C1368 1.409 . S
C1375 C1374 1.362 . S
H1376 C1382 0.930 . S
H1377 C1385 0.930 . S
H1378 C1386 0.930 . S
H1379 C1387 0.930 . S
H1380 C1390 0.930 . S
H1381 C1391 0.939 . S
C1382 H1376 0.930 . S
C1382 C1383 1.355 . S
C1382 C1384 1.396 1_545 S
C1383 C1382 1.355 . S
C1383 C1385 1.419 . S
C1384 C1382 1.396 1_565 S
C1384 C1389 1.429 1_556 S
C1384 C1391 1.431 . S
C1385 H1377 0.930 . S
C1385 C1383 1.419 . S
C1385 C1386 1.362 1_556 S
C1386 H1378 0.930 . S
C1386 C1385 1.362 1_554 S
C1386 C1389 1.409 1_545 S
C1387 H1379 0.930 . S
C1387 C1388 1.355 . S
C1387 C1389 1.415 . S
C1388 C1387 1.355 . S
C1388 C1390 1.419 . S
C1389 C1384 1.429 1_554 S
C1389 C1386 1.409 1_565 S
C1389 C1387 1.415 . S
C1390 H1380 0.930 . S
C1390 C1388 1.419 . S
C1390 C1391 1.348 1_554 S
C1391 H1381 0.939 . S
C1391 C1384 1.431 . S
C1391 C1390 1.348 1_556 S
H1392 C1398 0.930 . S
H1393 C1401 0.930 . S
H1394 C1402 0.930 . S
H1395 C1403 0.930 . S
H1396 C1406 0.930 . S
H1397 C1407 0.930 . S
C1398 H1392 0.930 . S
C1398 C1399 1.355 . S
C1398 C1400 1.415 . S
C1399 C1398 1.355 . S
C1399 C1401 1.419 . S
C1400 C1398 1.415 . S
C1400 C1405 1.425 . S
C1400 C1407 1.409 . S
C1401 H1393 0.930 . S
C1401 C1399 1.419 . S
C1401 C1402 1.362 . S
C1402 H1394 0.930 . S
C1402 C1401 1.362 . S
C1402 C1405 1.409 . S
C1403 H1395 0.930 . S
C1403 C1404 1.355 . S
C1403 C1405 1.415 . S
C1404 C1403 1.355 . S
C1404 C1406 1.419 . S
C1405 C1400 1.425 . S
C1405 C1402 1.409 . S
C1405 C1403 1.415 . S
C1406 H1396 0.930 . S
C1406 C1404 1.419 . S
C1406 C1407 1.362 . S
C1407 H1397 0.930 . S
C1407 C1400 1.409 . S
C1407 C1406 1.362 . S
C647 C7 1.844 . S
C652 C16 1.844 . S
C663 C56 1.774 1_556 S
C668 C47 1.774 . S
C679 C87 1.866 . S
C684 C96 1.866 1_554 S
C695 C127 1.583 . S
C700 C136 1.583 . S
C711 C167 1.768 . S
C716 C176 1.768 . S
C727 C216 1.589 . S
C732 C207 1.589 . S
C743 C256 1.557 . S
C748 C247 1.557 . S
C759 C296 1.873 1_554 S
C764 C287 1.873 . S
C775 C336 1.757 . S
C780 C327 1.757 . S
C791 C376 1.735 . S
C796 C367 1.735 . S
C807 C416 1.700 1_556 S
C812 C407 1.700 . S
C823 C456 1.543 . S
C828 C447 1.543 . S
C839 C496 1.875 . S
C844 C487 1.875 . S
C855 C536 1.697 . S
C860 C527 1.697 . S
C871 C567 1.575 . S
C876 C576 1.575 . S
C887 C607 1.952 1_556 S
C892 C616 1.952 . S
C903 C10 1.615 . S
C908 C451 1.717 . S
C919 C42 1.730 . S
C924 C611 1.646 . S
C935 C90 1.623 . S
C940 C379 1.576 . S
C951 C130 1.698 . S
C956 C539 1.765 . S
C967 C170 1.716 . S
C972 C531 1.696 . S
C983 C459 1.713 . S
C988 C210 1.695 . S
C999 C242 1.673 . S
C1004 C619 1.545 . S
C1015 C282 1.798 . S
C1020 C371 1.787 . S
C1031 C122 1.697 . S
C1036 C339 1.670 . S
C1047 C50 1.604 . S
C1052 C411 1.720 . S
C1063 C499 1.703 . S
C1068 C202 1.703 . S
C1079 C290 1.605 . S
C1084 C571 1.636 . S
C1095 C331 1.820 . S
C1100 C162 1.759 . S
C1111 C250 1.689 . S
C1116 C419 1.806 . S
C1127 C82 1.861 . S
C1132 C579 1.860 . S
C1143 C2 1.730 . S
C1148 C491 1.717 . S
C1159 C19 1.409 . S
C1164 C179 1.384 . S
C1175 C51 1.782 . S
C1180 C219 1.783 . S
C1191 C99 2.076 . S
C1196 C251 2.076 . S
C1207 C139 1.744 . S
C1212 C291 1.742 . S
C1223 C490 1.515 . S
C1228 C330 1.503 . S
C1239 C530 1.993 . S
C1244 C362 1.987 . S
C1255 C402 1.853 . S
C1260 C562 1.869 . S
C1271 C602 1.619 . S
C1276 C450 1.623 . S
C1287 C59 1.379 . S
C1292 C299 1.400 . S
C1303 C171 1.783 . S
C1308 C91 1.799 . S
C1319 C211 2.044 . S
C1324 C131 2.055 . S
C1335 C11 1.742 . S
C1340 C259 1.747 . S
C1351 C610 1.320 . S
C1356 C370 1.324 . S
C1367 C482 1.759 . S
C1372 C410 1.758 . S
C1383 C522 2.047 . S
C1388 C442 2.060 . S
C1399 C570 1.849 . S
C1404 C322 1.846 . S
