# Generated by pormake.
# Topology whv, (6)-cn, num edge types: 1
# Building blocks:
#     Node 0, Type 0, BuildingBlock: IZENUY_clean_sbu_0, # of connection points: 6
#     Node 1, Type 0, BuildingBlock: IZENUY_clean_sbu_0, # of connection points: 6
#     Node 2, Type 0, BuildingBlock: IZENUY_clean_sbu_0, # of connection points: 6
#     Node 3, Type 0, BuildingBlock: IZENUY_clean_sbu_0, # of connection points: 6
#     Node 4, Type 0, BuildingBlock: IZENUY_clean_sbu_0, # of connection points: 6
#     Node 5, Type 0, BuildingBlock: IZENUY_clean_sbu_0, # of connection points: 6
#     Node 6, Type 0, BuildingBlock: IZENUY_clean_sbu_0, # of connection points: 6
#     Node 7, Type 0, BuildingBlock: IZENUY_clean_sbu_0, # of connection points: 6
#     Node 8, Type 0, BuildingBlock: IZENUY_clean_sbu_0, # of connection points: 6
#     Node 9, Type 0, BuildingBlock: IZENUY_clean_sbu_0, # of connection points: 6
#     Node 10, Type 0, BuildingBlock: IZENUY_clean_sbu_0, # of connection points: 6
#     Node 11, Type 0, BuildingBlock: IZENUY_clean_sbu_0, # of connection points: 6
#     Node 12, Type 0, BuildingBlock: IZENUY_clean_sbu_0, # of connection points: 6
#     Node 13, Type 0, BuildingBlock: IZENUY_clean_sbu_0, # of connection points: 6
#     Node 14, Type 0, BuildingBlock: IZENUY_clean_sbu_0, # of connection points: 6
#     Node 15, Type 0, BuildingBlock: IZENUY_clean_sbu_0, # of connection points: 6
#     Edge 16, Type (0, 0), BuildingBlock: ZUJKAS_clean_linker_0, # of connection points: 2
#     Edge 17, Type (0, 0), BuildingBlock: ZUJKAS_clean_linker_0, # of connection points: 2
#     Edge 18, Type (0, 0), BuildingBlock: ZUJKAS_clean_linker_0, # of connection points: 2
#     Edge 19, Type (0, 0), BuildingBlock: ZUJKAS_clean_linker_0, # of connection points: 2
#     Edge 20, Type (0, 0), BuildingBlock: ZUJKAS_clean_linker_0, # of connection points: 2
#     Edge 21, Type (0, 0), BuildingBlock: ZUJKAS_clean_linker_0, # of connection points: 2
#     Edge 22, Type (0, 0), BuildingBlock: ZUJKAS_clean_linker_0, # of connection points: 2
#     Edge 23, Type (0, 0), BuildingBlock: ZUJKAS_clean_linker_0, # of connection points: 2
#     Edge 24, Type (0, 0), BuildingBlock: ZUJKAS_clean_linker_0, # of connection points: 2
#     Edge 25, Type (0, 0), BuildingBlock: ZUJKAS_clean_linker_0, # of connection points: 2
#     Edge 26, Type (0, 0), BuildingBlock: ZUJKAS_clean_linker_0, # of connection points: 2
#     Edge 27, Type (0, 0), BuildingBlock: ZUJKAS_clean_linker_0, # of connection points: 2
#     Edge 28, Type (0, 0), BuildingBlock: ZUJKAS_clean_linker_0, # of connection points: 2
#     Edge 29, Type (0, 0), BuildingBlock: ZUJKAS_clean_linker_0, # of connection points: 2
#     Edge 30, Type (0, 0), BuildingBlock: ZUJKAS_clean_linker_0, # of connection points: 2
#     Edge 31, Type (0, 0), BuildingBlock: ZUJKAS_clean_linker_0, # of connection points: 2
#     Edge 32, Type (0, 0), BuildingBlock: ZUJKAS_clean_linker_0, # of connection points: 2
#     Edge 33, Type (0, 0), BuildingBlock: ZUJKAS_clean_linker_0, # of connection points: 2
#     Edge 34, Type (0, 0), BuildingBlock: ZUJKAS_clean_linker_0, # of connection points: 2
#     Edge 35, Type (0, 0), BuildingBlock: ZUJKAS_clean_linker_0, # of connection points: 2
#     Edge 36, Type (0, 0), BuildingBlock: ZUJKAS_clean_linker_0, # of connection points: 2
#     Edge 37, Type (0, 0), BuildingBlock: ZUJKAS_clean_linker_0, # of connection points: 2
#     Edge 38, Type (0, 0), BuildingBlock: ZUJKAS_clean_linker_0, # of connection points: 2
#     Edge 39, Type (0, 0), BuildingBlock: ZUJKAS_clean_linker_0, # of connection points: 2
#     Edge 40, Type (0, 0), BuildingBlock: ZUJKAS_clean_linker_0, # of connection points: 2
#     Edge 41, Type (0, 0), BuildingBlock: ZUJKAS_clean_linker_0, # of connection points: 2
#     Edge 42, Type (0, 0), BuildingBlock: ZUJKAS_clean_linker_0, # of connection points: 2
#     Edge 43, Type (0, 0), BuildingBlock: ZUJKAS_clean_linker_0, # of connection points: 2
#     Edge 44, Type (0, 0), BuildingBlock: ZUJKAS_clean_linker_0, # of connection points: 2
#     Edge 45, Type (0, 0), BuildingBlock: ZUJKAS_clean_linker_0, # of connection points: 2
#     Edge 46, Type (0, 0), BuildingBlock: ZUJKAS_clean_linker_0, # of connection points: 2
#     Edge 47, Type (0, 0), BuildingBlock: ZUJKAS_clean_linker_0, # of connection points: 2
#     Edge 48, Type (0, 0), BuildingBlock: ZUJKAS_clean_linker_0, # of connection points: 2
#     Edge 49, Type (0, 0), BuildingBlock: ZUJKAS_clean_linker_0, # of connection points: 2
#     Edge 50, Type (0, 0), BuildingBlock: ZUJKAS_clean_linker_0, # of connection points: 2
#     Edge 51, Type (0, 0), BuildingBlock: ZUJKAS_clean_linker_0, # of connection points: 2
#     Edge 52, Type (0, 0), BuildingBlock: ZUJKAS_clean_linker_0, # of connection points: 2
#     Edge 53, Type (0, 0), BuildingBlock: ZUJKAS_clean_linker_0, # of connection points: 2
#     Edge 54, Type (0, 0), BuildingBlock: ZUJKAS_clean_linker_0, # of connection points: 2
#     Edge 55, Type (0, 0), BuildingBlock: ZUJKAS_clean_linker_0, # of connection points: 2
#     Edge 56, Type (0, 0), BuildingBlock: ZUJKAS_clean_linker_0, # of connection points: 2
#     Edge 57, Type (0, 0), BuildingBlock: ZUJKAS_clean_linker_0, # of connection points: 2
#     Edge 58, Type (0, 0), BuildingBlock: ZUJKAS_clean_linker_0, # of connection points: 2
#     Edge 59, Type (0, 0), BuildingBlock: ZUJKAS_clean_linker_0, # of connection points: 2
#     Edge 60, Type (0, 0), BuildingBlock: ZUJKAS_clean_linker_0, # of connection points: 2
#     Edge 61, Type (0, 0), BuildingBlock: ZUJKAS_clean_linker_0, # of connection points: 2
#     Edge 62, Type (0, 0), BuildingBlock: ZUJKAS_clean_linker_0, # of connection points: 2
#     Edge 63, Type (0, 0), BuildingBlock: ZUJKAS_clean_linker_0, # of connection points: 2
# Relax obj value: 0.237
# Max RMSD: 0.246
# Mean RMSD: 0.246
data_MOF--net-whv--node1-IZENUY_clean_sbu_0--edge1-ZUJKAS_clean_linker_0
_symmetry_space_group_name_H-M    P1
_symmetry_Int_Tables_number       1
_symmetry_cell_setting            triclinic
loop_
_symmetry_equiv_pos_as_xyz
'x, y, z'
_cell_length_a     65.347773
_cell_length_b     65.349065
_cell_length_c     33.112889
_cell_angle_alpha  90.031491
_cell_angle_beta   90.010243
_cell_angle_gamma 89.993887
loop_
_atom_site_label
_atom_site_type_symbol
_atom_site_fract_x
_atom_site_fract_y
_atom_site_fract_z
_atom_type_partial_charge
Fe0 Fe 0.29876 0.21378 0.03363 0.0
Fe1 Fe 0.31618 0.17249 0.0079 0.0
O2 O 0.31772 0.19469 0.03812 0.0
Fe3 Fe 0.33829 0.19811 0.07224 0.0
O4 O 0.34645 0.22101 0.04631 0.0
O5 O 0.31612 0.23529 0.04486 0.0
O6 O 0.3052 0.2179 0.98158 0.0
C7 C 0.30414 0.20439 0.95471 0.0
C8 C 0.30351 0.21346 0.11501 0.0
O9 O 0.30404 0.18553 0.96409 0.0
C10 C 0.33095 0.15765 0.08389 0.0
O11 O 0.27784 0.19581 0.02056 0.0
O12 O 0.29173 0.16562 0.02929 0.0
O13 O 0.32283 0.21268 0.10981 0.0
O14 O 0.29152 0.21073 0.08571 0.0
C15 C 0.35712 0.17961 1.00339 0.0
O16 O 0.32814 0.15558 0.04609 0.0
O17 O 0.33156 0.1752 0.09967 0.0
C18 C 0.27603 0.17662 0.02547 0.0
O19 O 0.34045 0.17799 0.9846 0.0
O20 O 0.35727 0.18411 0.04079 0.0
C21 C 0.33529 0.23628 0.03921 0.0
Fe22 Fe 0.54762 0.54954 0.28411 0.0
Fe23 Fe 0.58964 0.56498 0.25836 0.0
O24 O 0.56763 0.56749 0.28877 0.0
Fe25 Fe 0.56535 0.58803 0.32322 0.0
O26 O 0.54285 0.59739 0.29754 0.0
O27 O 0.527 0.5679 0.29598 0.0
O28 O 0.54371 0.5564 0.23216 0.0
C29 C 0.55709 0.55442 0.20524 0.0
C30 C 0.54846 0.55388 0.36557 0.0
O31 O 0.57593 0.55343 0.21466 0.0
C32 C 0.60543 0.57879 0.3342 0.0
O33 O 0.56454 0.52785 0.27052 0.0
O34 O 0.59538 0.54022 0.27981 0.0
O35 O 0.55016 0.57317 0.36073 0.0
O36 O 0.55045 0.54192 0.33601 0.0
C37 C 0.58426 0.60617 0.2542 0.0
O38 O 0.60718 0.57619 0.29629 0.0
O39 O 0.588 0.58006 0.35033 0.0
C40 C 0.5836 0.5251 0.27593 0.0
O41 O 0.58515 0.58949 0.23523 0.0
O42 O 0.58009 0.60641 0.29175 0.0
C43 C 0.52702 0.58708 0.2903 0.0
Fe44 Fe 0.21324 0.79857 0.53473 0.0
Fe45 Fe 0.19722 0.84062 0.51036 0.0
O46 O 0.19493 0.81825 0.53981 0.0
Fe47 Fe 0.17422 0.81527 0.57366 0.0
O48 O 0.16538 0.79293 0.54687 0.0
O49 O 0.19511 0.77751 0.54513 0.0
O50 O 0.20677 0.79513 0.48245 0.0
C51 C 0.20848 0.80884 0.45613 0.0
C52 C 0.2084 0.79842 0.61611 0.0
O53 O 0.20914 0.82759 0.4663 0.0
C54 C 0.1827 0.85535 0.58661 0.0
O55 O 0.23477 0.816 0.52254 0.0
O56 O 0.22177 0.84652 0.53238 0.0
O57 O 0.18912 0.79992 0.61089 0.0
O58 O 0.22049 0.8009 0.58693 0.0
C59 C 0.15614 0.83469 0.50514 0.0
O60 O 0.18564 0.85759 0.5489 0.0
O61 O 0.18163 0.83772 0.60189 0.0
C62 C 0.23714 0.83509 0.5283 0.0
O63 O 0.17289 0.83602 0.48659 0.0
O64 O 0.15577 0.83007 0.54247 0.0
C65 C 0.17593 0.7773 0.53931 0.0
Fe66 Fe 0.96388 0.46229 0.78423 0.0
Fe67 Fe 0.92242 0.44498 0.75913 0.0
O68 O 0.94452 0.4437 0.78961 0.0
Fe69 Fe 0.94757 0.42358 0.82479 0.0
O70 O 0.97018 0.41467 0.79906 0.0
O71 O 0.98515 0.44462 0.79595 0.0
O72 O 0.96785 0.45529 0.73239 0.0
C73 C 0.95438 0.45635 0.70549 0.0
C74 C 0.9637 0.4585 0.8658 0.0
O75 O 0.93553 0.45659 0.71491 0.0
C76 C 0.90731 0.43148 0.83585 0.0
O77 O 0.94608 0.48331 0.77061 0.0
O78 O 0.91568 0.46972 0.77935 0.0
O79 O 0.96253 0.43916 0.86146 0.0
O80 O 0.96107 0.47018 0.83603 0.0
C81 C 0.92945 0.40402 0.7568 0.0
O82 O 0.90537 0.43357 0.79782 0.0
O83 O 0.92483 0.43119 0.85183 0.0
C84 C 0.92686 0.48529 0.77534 0.0
O85 O 0.92796 0.42038 0.73698 0.0
O86 O 0.93321 0.40445 0.79447 0.0
C87 C 0.98563 0.42537 0.79091 0.0
Fe88 Fe 0.69456 0.83848 0.07963 0.0
Fe89 Fe 0.67353 0.81464 0.01166 0.0
O90 O 0.69345 0.81696 0.04753 0.0
Fe91 Fe 0.71199 0.79749 0.05194 0.0
O92 O 0.7048 0.7926 0.10337 0.0
O93 O 0.70595 0.82458 0.12314 0.0
O94 O 0.66982 0.83254 0.10075 0.0
C95 C 0.6536 0.83167 0.08034 0.0
C96 C 0.73495 0.8343 0.0637 0.0
O97 O 0.6543 0.82861 0.04244 0.0
C98 C 0.70856 0.79897 0.97036 0.0
O99 O 0.68337 0.85621 0.04193 0.0
O100 O 0.68146 0.83783 0.98636 0.0
O101 O 0.73297 0.81501 0.06707 0.0
O102 O 0.7194 0.84557 0.06048 0.0
C103 C 0.67501 0.77606 0.04333 0.0
O104 O 0.68921 0.80017 0.9744 0.0
O105 O 0.7201 0.80116 1.00048 0.0
C106 C 0.68175 0.85503 1.00368 0.0
O107 O 0.66438 0.79165 0.03575 0.0
O108 O 0.69427 0.77652 0.03851 0.0
C109 C 0.70572 0.80559 0.13123 0.0
Fe110 Fe 0.44681 0.4245 0.7623 0.0
Fe111 Fe 0.4636 0.46289 0.8033 0.0
O112 O 0.44392 0.44468 0.7974 0.0
Fe113 Fe 0.42165 0.44648 0.82731 0.0
O114 O 0.42652 0.4218 0.84971 0.0
O115 O 0.43208 0.40562 0.7925 0.0
O116 O 0.46923 0.41524 0.78831 0.0
C117 C 0.48486 0.42571 0.79636 0.0
C118 C 0.40669 0.43293 0.75047 0.0
O119 O 0.48461 0.44495 0.79154 0.0
C120 C 0.4271 0.48665 0.81137 0.0
O121 O 0.46207 0.43991 0.72584 0.0
O122 O 0.46111 0.47093 0.75155 0.0
O123 O 0.40459 0.4353 0.78839 0.0
O124 O 0.42428 0.43238 0.73486 0.0
C125 C 0.45358 0.45717 0.88172 0.0
O126 O 0.44618 0.48417 0.81702 0.0
O127 O 0.41558 0.47137 0.80672 0.0
C128 C 0.46354 0.45925 0.72168 0.0
O129 O 0.46719 0.45565 0.85514 0.0
O130 O 0.4348 0.45788 0.8718 0.0
C131 C 0.42796 0.40536 0.83003 0.0
Fe132 Fe 0.79892 0.21406 0.55343 0.0
Fe133 Fe 0.81608 0.17251 0.578 0.0
O134 O 0.81752 0.19472 0.54785 0.0
Fe135 Fe 0.8377 0.19789 0.5128 0.0
O136 O 0.84653 0.22062 0.53859 0.0
O137 O 0.81645 0.23533 0.5416 0.0
O138 O 0.80603 0.21797 0.60524 0.0
C139 C 0.80496 0.20441 0.632 0.0
C140 C 0.8027 0.21392 0.47184 0.0
O141 O 0.80454 0.18559 0.62237 0.0
C142 C 0.82978 0.15757 0.5013 0.0
O143 O 0.77794 0.19635 0.56728 0.0
O144 O 0.79127 0.16594 0.55756 0.0
O145 O 0.82205 0.21278 0.47618 0.0
O146 O 0.791 0.21128 0.50161 0.0
C147 C 0.85711 0.17935 0.58065 0.0
O148 O 0.82743 0.15552 0.53922 0.0
O149 O 0.83029 0.17513 0.48551 0.0
C150 C 0.77579 0.17721 0.56198 0.0
O151 O 0.8407 0.1778 0.60032 0.0
O152 O 0.8568 0.18353 0.54315 0.0
C153 C 0.83568 0.23603 0.54643 0.0
Fe154 Fe 0.04808 0.54906 0.30243 0.0
Fe155 Fe 0.08943 0.56573 0.32966 0.0
O156 O 0.06762 0.56756 0.29851 0.0
Fe157 Fe 0.06508 0.58807 0.26404 0.0
O158 O 0.04226 0.59688 0.28926 0.0
O159 O 0.02707 0.56701 0.29056 0.0
O160 O 0.04365 0.55557 0.35438 0.0
C161 C 0.05688 0.55409 0.3817 0.0
C162 C 0.0491 0.55368 0.22106 0.0
O163 O 0.0758 0.55377 0.37291 0.0
C164 C 0.10541 0.57983 0.2542 0.0
O165 O 0.06557 0.52776 0.3159 0.0
O166 O 0.09611 0.54118 0.30853 0.0
O167 O 0.05037 0.57297 0.22616 0.0
O168 O 0.05137 0.5417 0.25047 0.0
C169 C 0.08308 0.60672 0.33349 0.0
O170 O 0.10691 0.57741 0.2922 0.0
O171 O 0.08808 0.58057 0.23749 0.0
C172 C 0.08479 0.52566 0.31159 0.0
O173 O 0.08399 0.5901 0.35261 0.0
O174 O 0.07927 0.60678 0.29579 0.0
C175 C 0.02664 0.58621 0.2963 0.0
Fe176 Fe 0.79855 0.71297 0.53341 0.0
Fe177 Fe 0.81418 0.67069 0.50955 0.0
O178 O 0.81668 0.69315 0.53874 0.0
Fe179 Fe 0.83739 0.69609 0.57261 0.0
O180 O 0.8464 0.71834 0.54572 0.0
O181 O 0.81677 0.73392 0.54387 0.0
O182 O 0.80515 0.71619 0.48115 0.0
C183 C 0.80312 0.70244 0.45496 0.0
C184 C 0.80327 0.71324 0.61481 0.0
O185 O 0.80236 0.68372 0.46534 0.0
C186 C 0.82875 0.65606 0.58585 0.0
O187 O 0.77693 0.69571 0.52108 0.0
O188 O 0.78953 0.66509 0.53169 0.0
O189 O 0.82255 0.7116 0.6097 0.0
O190 O 0.79119 0.7108 0.58558 0.0
C191 C 0.85534 0.67637 0.50425 0.0
O192 O 0.82567 0.65374 0.5482 0.0
O193 O 0.82986 0.67373 0.60099 0.0
C194 C 0.77432 0.6767 0.52735 0.0
O195 O 0.83857 0.67497 0.48571 0.0
O196 O 0.85574 0.68114 0.54151 0.0
C197 C 0.83595 0.73403 0.53812 0.0
Fe198 Fe 0.04768 0.0487 0.78531 0.0
Fe199 Fe 0.08897 0.06597 0.75943 0.0
O200 O 0.06681 0.06762 0.78968 0.0
Fe201 Fe 0.06348 0.08826 0.82368 0.0
O202 O 0.0406 0.09644 0.79769 0.0
O203 O 0.02622 0.06616 0.79642 0.0
O204 O 0.04353 0.05504 0.73323 0.0
C205 C 0.05701 0.05393 0.70634 0.0
C206 C 0.04801 0.05361 0.86664 0.0
O207 O 0.07587 0.05377 0.71572 0.0
C208 C 0.10392 0.08078 0.8353 0.0
O209 O 0.0656 0.0277 0.77238 0.0
O210 O 0.09579 0.04158 0.78104 0.0
O211 O 0.04887 0.07292 0.86133 0.0
O212 O 0.05073 0.04156 0.83743 0.0
C213 C 0.08197 0.10689 0.75468 0.0
O214 O 0.10593 0.07794 0.7975 0.0
O215 O 0.08639 0.08152 0.85116 0.0
C216 C 0.08479 0.02588 0.77735 0.0
O217 O 0.08347 0.09019 0.73599 0.0
O218 O 0.07753 0.10713 0.7921 0.0
C219 C 0.0253 0.08531 0.79058 0.0
Fe220 Fe 0.71266 0.29831 0.03494 0.0
Fe221 Fe 0.69618 0.33974 0.00784 0.0
O222 O 0.69419 0.31788 0.0388 0.0
Fe223 Fe 0.67358 0.31535 0.07302 0.0
O224 O 0.6648 0.29257 0.04762 0.0
O225 O 0.69465 0.27731 0.0465 0.0
O226 O 0.70628 0.29397 0.98287 0.0
C227 C 0.70782 0.30726 0.95569 0.0
C228 C 0.70781 0.29923 0.11627 0.0
O229 O 0.70823 0.32616 0.96464 0.0
C230 C 0.68189 0.35565 0.08321 0.0
O231 O 0.73403 0.31576 0.02179 0.0
O232 O 0.72067 0.34632 0.0293 0.0
O233 O 0.68854 0.3006 0.11098 0.0
O234 O 0.71989 0.30148 0.087 0.0
C235 C 0.65518 0.33344 1.00346 0.0
O236 O 0.68441 0.3572 0.04526 0.0
O237 O 0.68104 0.3383 0.09978 0.0
C238 C 0.73617 0.33497 0.02624 0.0
O239 O 0.67186 0.33441 0.98456 0.0
O240 O 0.65499 0.32959 0.04113 0.0
C241 C 0.67545 0.27692 0.0407 0.0
Fe242 Fe 0.46365 0.96328 0.2838 0.0
Fe243 Fe 0.42208 0.94601 0.25937 0.0
O244 O 0.44447 0.94448 0.28908 0.0
Fe245 Fe 0.44797 0.92405 0.32345 0.0
O246 O 0.47066 0.91563 0.29717 0.0
O247 O 0.48514 0.94583 0.29473 0.0
O248 O 0.46738 0.95657 0.23176 0.0
C249 C 0.45371 0.9576 0.20521 0.0
C250 C 0.46386 0.95891 0.36525 0.0
O251 O 0.43492 0.95789 0.21508 0.0
C252 C 0.40764 0.93161 0.33592 0.0
O253 O 0.44573 0.98425 0.2709 0.0
O254 O 0.41548 0.97061 0.2805 0.0
O255 O 0.46286 0.93958 0.36041 0.0
O256 O 0.46102 0.97078 0.33584 0.0
C257 C 0.42906 0.90502 0.25531 0.0
O258 O 0.40535 0.93429 0.29814 0.0
O259 O 0.42529 0.93105 0.35129 0.0
C260 C 0.42657 0.98621 0.27621 0.0
O261 O 0.42732 0.92161 0.23633 0.0
O262 O 0.43371 0.90501 0.29263 0.0
C263 C 0.48597 0.92663 0.28953 0.0
Fe264 Fe 0.19659 0.3398 0.57695 0.0
Fe265 Fe 0.17393 0.31448 0.5131 0.0
O266 O 0.1945 0.31747 0.54726 0.0
Fe267 Fe 0.21288 0.29786 0.55238 0.0
O268 O 0.20626 0.29431 0.60451 0.0
O269 O 0.20844 0.32673 0.62105 0.0
O270 O 0.17221 0.33502 0.60037 0.0
C271 C 0.15553 0.33366 0.58155 0.0
C272 C 0.23658 0.3345 0.55947 0.0
O273 O 0.15531 0.32915 0.54416 0.0
C274 C 0.20829 0.29788 0.47092 0.0
O275 O 0.18501 0.35679 0.53844 0.0
O276 O 0.18137 0.337 0.48519 0.0
O277 O 0.2343 0.31538 0.565 0.0
O278 O 0.22116 0.34586 0.5553 0.0
C279 C 0.17564 0.27648 0.54729 0.0
O280 O 0.18899 0.29924 0.47594 0.0
O281 O 0.22029 0.30032 0.50029 0.0
C282 C 0.1822 0.35461 0.50066 0.0
O283 O 0.16508 0.29208 0.53958 0.0
O284 O 0.19484 0.27674 0.54162 0.0
C285 C 0.20778 0.30796 0.631 0.0
Fe286 Fe 0.96327 0.96273 0.30315 0.0
Fe287 Fe 0.9216 0.94606 0.32839 0.0
O288 O 0.94383 0.94416 0.29839 0.0
Fe289 Fe 0.9469 0.92357 0.26426 0.0
O290 O 0.96949 0.91497 0.29051 0.0
O291 O 0.98451 0.9449 0.29212 0.0
O292 O 0.96711 0.95621 0.35526 0.0
C293 C 0.95355 0.95763 0.38195 0.0
C294 C 0.96307 0.95803 0.22177 0.0
O295 O 0.93473 0.95807 0.37228 0.0
C296 C 0.90663 0.93148 0.25232 0.0
O297 O 0.94561 0.98399 0.31599 0.0
O298 O 0.91522 0.97058 0.30678 0.0
O299 O 0.96187 0.93873 0.22689 0.0
O300 O 0.96052 0.97005 0.25107 0.0
C301 C 0.92809 0.90505 0.33296 0.0
O302 O 0.90458 0.93432 0.29012 0.0
O303 O 0.92419 0.93076 0.23661 0.0
C304 C 0.92645 0.9861 0.31077 0.0
O305 O 0.92669 0.92173 0.35179 0.0
O306 O 0.9325 0.90486 0.29554 0.0
C307 C 0.98501 0.92572 0.29787 0.0
Fe308 Fe 0.29931 0.71432 0.05379 0.0
Fe309 Fe 0.31496 0.67233 0.07933 0.0
O310 O 0.31727 0.69433 0.04882 0.0
Fe311 Fe 0.33766 0.6966 0.01404 0.0
O312 O 0.34709 0.71912 0.03953 0.0
O313 O 0.31761 0.73497 0.04181 0.0
O314 O 0.30635 0.71821 0.10567 0.0
C315 C 0.30457 0.70481 0.13258 0.0
C316 C 0.30332 0.7135 0.97221 0.0
O317 O 0.30351 0.68599 0.12314 0.0
C318 C 0.32861 0.65646 1.00342 0.0
O319 O 0.2777 0.69731 0.06755 0.0
O320 O 0.29014 0.66649 0.05821 0.0
O321 O 0.32262 0.71173 0.97673 0.0
O322 O 0.29148 0.71155 1.00197 0.0
C323 C 0.35614 0.6779 0.08289 0.0
O324 O 0.32612 0.65481 0.04136 0.0
O325 O 0.32964 0.67387 0.98711 0.0
C326 C 0.27499 0.67824 0.06217 0.0
O327 O 0.33955 0.67694 0.10213 0.0
O328 O 0.35619 0.68195 0.04529 0.0
C329 C 0.33682 0.73493 0.0472 0.0
Fe330 Fe 0.54818 0.04902 0.80316 0.0
Fe331 Fe 0.59011 0.06456 0.82923 0.0
O332 O 0.56816 0.067 0.79861 0.0
Fe333 Fe 0.56593 0.08752 0.76413 0.0
O334 O 0.54336 0.09687 0.78961 0.0
O335 O 0.52753 0.06737 0.79131 0.0
O336 O 0.54421 0.05588 0.8551 0.0
C337 C 0.55757 0.054 0.88208 0.0
C338 C 0.54909 0.05334 0.72168 0.0
O339 O 0.5764 0.05296 0.87277 0.0
C340 C 0.60608 0.07845 0.75361 0.0
O341 O 0.56517 0.02735 0.81673 0.0
O342 O 0.59599 0.03983 0.80779 0.0
O343 O 0.55082 0.07262 0.7265 0.0
O344 O 0.55103 0.04139 0.75126 0.0
C345 C 0.58462 0.10572 0.83335 0.0
O346 O 0.60769 0.07586 0.79153 0.0
O347 O 0.58869 0.07957 0.73721 0.0
C348 C 0.58426 0.02466 0.81149 0.0
O349 O 0.58546 0.08906 0.85235 0.0
O350 O 0.58058 0.10593 0.79574 0.0
C351 C 0.52752 0.08658 0.79687 0.0
H352 H 0.26811 0.13552 0.02391 0.0
H353 H 0.238 0.11853 0.99647 0.0
H354 H 0.20872 0.17704 0.9795 0.0
H355 H 0.23919 0.19433 0.00571 0.0
H356 H 0.19822 0.11621 0.0145 0.0
H357 H 0.20782 0.15446 0.86618 0.0
H358 H 0.22681 0.15608 0.90555 0.0
H359 H 0.20437 0.17203 0.90727 0.0
C360 C 0.25521 0.14485 0.01482 0.0
C361 C 0.25626 0.16636 0.01644 0.0
C362 C 0.23796 0.13506 0.9991 0.0
C363 C 0.22131 0.14651 0.98483 0.0
C364 C 0.22164 0.16791 0.98917 0.0
H365 H 0.10398 0.09563 0.91259 0.0
H366 H 0.1326 0.11037 0.94961 0.0
C367 C 0.23901 0.17776 0.00459 0.0
C368 C 0.20414 0.136 0.96385 0.0
H369 H 0.17829 0.13389 0.87427 0.0
C370 C 0.19386 0.12007 0.98383 0.0
C371 C 0.19876 0.14069 0.92346 0.0
C372 C 0.21013 0.15659 0.89916 0.0
C373 C 0.17821 0.1089 0.96478 0.0
C374 C 0.17229 0.11415 0.92495 0.0
C375 C 0.18272 0.12993 0.90486 0.0
C376 C 0.15517 0.10373 0.90359 0.0
C377 C 0.16855 0.09128 0.98721 0.0
C378 C 0.15817 0.09525 0.86502 0.0
C379 C 0.14169 0.08705 0.84335 0.0
C380 C 0.12186 0.08715 0.85985 0.0
C381 C 0.11904 0.09511 0.89898 0.0
C382 C 0.13546 0.10348 0.92041 0.0
H383 H 0.17895 0.08517 0.01086 0.0
H384 H 0.15442 0.0967 1.00243 0.0
H385 H 0.16441 0.07862 0.96638 0.0
H386 H 0.17323 0.09532 0.85134 0.0
H387 H 0.14443 0.08107 0.81331 0.0
H388 H 0.67926 0.35923 0.16542 0.0
H389 H 0.66409 0.38734 0.20391 0.0
H390 H 0.65384 0.42076 0.09348 0.0
H391 H 0.66947 0.39299 0.05485 0.0
H392 H 0.66668 0.44565 0.15306 0.0
H393 H 0.6031 0.39713 0.20907 0.0
H394 H 0.62798 0.38765 0.22239 0.0
H395 H 0.62049 0.38874 0.17014 0.0
C396 C 0.67399 0.37267 0.14934 0.0
C397 C 0.67542 0.37377 0.10698 0.0
C398 C 0.66515 0.38865 0.17138 0.0
C399 C 0.65729 0.40591 0.1515 0.0
C400 C 0.65963 0.40751 0.10945 0.0
H401 H 0.56716 0.49365 0.23203 0.0
H402 H 0.58534 0.46394 0.20497 0.0
C403 C 0.66864 0.39163 0.0874 0.0
C404 C 0.64627 0.42215 0.17422 0.0
H405 H 0.60505 0.43079 0.23549 0.0
C406 C 0.65323 0.4424 0.17115 0.0
C407 C 0.62849 0.41794 0.19726 0.0
C408 C 0.61942 0.39673 0.19967 0.0
C409 C 0.64298 0.45854 0.1905 0.0
C410 C 0.62558 0.45425 0.2146 0.0
C411 C 0.61856 0.43401 0.21754 0.0
C412 C 0.61391 0.47074 0.23524 0.0
C413 C 0.65051 0.48011 0.18377 0.0
C414 C 0.62361 0.48388 0.26278 0.0
C415 C 0.6133 0.50095 0.27808 0.0
C416 C 0.59296 0.50499 0.26669 0.0
C417 C 0.58278 0.49093 0.24158 0.0
C418 C 0.59319 0.47398 0.22591 0.0
H419 H 0.66029 0.48125 0.15642 0.0
H420 H 0.63752 0.49094 0.1805 0.0
H421 H 0.65983 0.48497 0.2101 0.0
H422 H 0.6394 0.48134 0.27137 0.0
H423 H 0.6215 0.51141 0.29765 0.0
H424 H 0.40852 0.91707 0.41335 0.0
H425 H 0.38071 0.90113 0.4508 0.0
H426 H 0.33892 0.91505 0.35381 0.0
H427 H 0.36693 0.93044 0.31524 0.0
H428 H 0.3452 0.9133 0.48042 0.0
H429 H 0.33113 0.8543 0.36347 0.0
H430 H 0.35288 0.87124 0.36171 0.0
H431 H 0.3282 0.87983 0.34448 0.0
C432 C 0.3934 0.91693 0.39995 0.0
C433 C 0.39005 0.92482 0.36093 0.0
C434 C 0.37748 0.90776 0.42151 0.0
C435 C 0.35782 0.90637 0.40473 0.0
C436 C 0.35411 0.91535 0.36685 0.0
H437 H 0.24614 0.87591 0.52901 0.0
H438 H 0.27667 0.89245 0.50285 0.0
C439 C 0.3701 0.92433 0.34499 0.0
C440 C 0.34144 0.89512 0.42664 0.0
H441 H 0.30694 0.85618 0.41696 0.0
C442 C 0.33689 0.90075 0.4666 0.0
C443 C 0.33095 0.87837 0.40905 0.0
C444 C 0.33617 0.87041 0.3675 0.0
C445 C 0.32182 0.89046 0.48904 0.0
C446 C 0.31056 0.87446 0.47066 0.0
C447 C 0.31545 0.86852 0.43104 0.0
C448 C 0.293 0.86426 0.491 0.0
C449 C 0.31841 0.89668 0.53241 0.0
C450 C 0.29185 0.8428 0.49307 0.0
C451 C 0.27414 0.83319 0.5075 0.0
C452 C 0.25722 0.84488 0.52007 0.0
C453 C 0.25885 0.86637 0.51976 0.0
C454 C 0.27643 0.87592 0.50501 0.0
H455 H 0.33248 0.90343 0.54576 0.0
H456 H 0.30624 0.9085 0.53366 0.0
H457 H 0.31361 0.88346 0.55124 0.0
H458 H 0.30442 0.83347 0.48235 0.0
H459 H 0.27341 0.81663 0.50719 0.0
H460 H 0.84347 0.65667 0.66325 0.0
H461 H 0.85957 0.62871 0.70012 0.0
H462 H 0.84526 0.58726 0.60276 0.0
H463 H 0.82967 0.61538 0.56484 0.0
H464 H 0.84752 0.5928 0.72923 0.0
H465 H 0.90623 0.57985 0.61125 0.0
H466 H 0.88921 0.60157 0.61038 0.0
H467 H 0.88064 0.577 0.59251 0.0
C468 C 0.84354 0.64158 0.64968 0.0
C469 C 0.83549 0.63837 0.61072 0.0
C470 C 0.8528 0.62559 0.67089 0.0
C471 C 0.85415 0.60598 0.6538 0.0
C472 C 0.84499 0.6024 0.61604 0.0
H473 H 0.88588 0.49364 0.77503 0.0
H474 H 0.86897 0.52407 0.74919 0.0
C475 C 0.83588 0.61846 0.59455 0.0
C476 C 0.86557 0.58954 0.67519 0.0
H477 H 0.90471 0.55534 0.66416 0.0
C478 C 0.86008 0.58466 0.71505 0.0
C479 C 0.88233 0.57927 0.65714 0.0
C480 C 0.89012 0.58482 0.61564 0.0
C481 C 0.87051 0.56947 0.73694 0.0
C482 C 0.88654 0.55843 0.7181 0.0
C483 C 0.89235 0.56366 0.67859 0.0
C484 C 0.89695 0.54083 0.73791 0.0
C485 C 0.86442 0.56566 0.78024 0.0
C486 C 0.91842 0.53994 0.74011 0.0
C487 C 0.92825 0.52231 0.7544 0.0
C488 C 0.91677 0.5052 0.76669 0.0
C489 C 0.89526 0.50652 0.76603 0.0
C490 C 0.88549 0.52403 0.75146 0.0
H491 H 0.85749 0.57953 0.79403 0.0
H492 H 0.85278 0.55331 0.7812 0.0
H493 H 0.87773 0.56092 0.79885 0.0
H494 H 0.92761 0.55269 0.72971 0.0
H495 H 0.94481 0.52183 0.75434 0.0
H496 H 0.74338 0.87524 0.0657 0.0
H497 H 0.77398 0.89182 0.09155 0.0
H498 H 0.80257 0.83293 0.10823 0.0
H499 H 0.77152 0.81603 0.08357 0.0
H500 H 0.80576 0.85532 0.17451 0.0
H501 H 0.82914 0.90343 0.04544 0.0
H502 H 0.80301 0.90811 0.05901 0.0
H503 H 0.81045 0.88326 0.0405 0.0
C504 C 0.75627 0.86573 0.07412 0.0
C505 C 0.7549 0.84424 0.07263 0.0
C506 C 0.77389 0.87531 0.08868 0.0
C507 C 0.79074 0.86369 0.1014 0.0
C508 C 0.78978 0.84224 0.09846 0.0
H509 H 0.90687 0.91708 0.1747 0.0
H510 H 0.87882 0.90093 0.13818 0.0
C511 C 0.77204 0.8326 0.08415 0.0
C512 C 0.8085 0.87388 0.12105 0.0
H513 H 0.84275 0.913 0.11023 0.0
C514 C 0.81399 0.86779 0.16025 0.0
C515 C 0.81942 0.89004 0.1024 0.0
C516 C 0.81534 0.89644 0.05936 0.0
C517 C 0.82971 0.87766 0.18163 0.0
C518 C 0.83984 0.89456 0.16383 0.0
C519 C 0.83473 0.90033 0.12423 0.0
C520 C 0.85636 0.9059 0.18518 0.0
C521 C 0.83553 0.86959 0.22278 0.0
C522 C 0.85295 0.9148 0.22325 0.0
C523 C 0.86907 0.92393 0.24453 0.0
C524 C 0.88886 0.92461 0.22785 0.0
C525 C 0.89189 0.91679 0.18866 0.0
C526 C 0.87584 0.9075 0.16765 0.0
H527 H 0.83066 0.85343 0.22679 0.0
H528 H 0.85231 0.87053 0.22773 0.0
H529 H 0.8278 0.87887 0.24635 0.0
H530 H 0.8379 0.91434 0.23688 0.0
H531 H 0.86614 0.92997 0.27444 0.0
H532 H 0.44311 0.51829 0.85535 0.0
H533 H 0.42467 0.54789 0.88214 0.0
H534 H 0.37074 0.52981 0.81605 0.0
H535 H 0.3889 0.49981 0.79011 0.0
H536 H 0.40508 0.58071 0.85139 0.0
H537 H 0.3494 0.53071 0.93032 0.0
H538 H 0.37217 0.52084 0.90654 0.0
H539 H 0.34995 0.52684 0.87669 0.0
C540 C 0.42745 0.52081 0.84587 0.0
C541 C 0.41741 0.50659 0.82087 0.0
C542 C 0.41688 0.53771 0.86138 0.0
C543 C 0.39614 0.54077 0.85202 0.0
C544 C 0.38654 0.52742 0.82471 0.0
H545 H 0.3315 0.65309 0.92113 0.0
H546 H 0.34641 0.62487 0.88251 0.0
C547 C 0.397 0.51039 0.80958 0.0
C548 C 0.3844 0.55738 0.87224 0.0
H549 H 0.34311 0.56634 0.93314 0.0
C550 C 0.3915 0.57759 0.86918 0.0
C551 C 0.36689 0.55324 0.89613 0.0
C552 C 0.35924 0.53172 0.90304 0.0
C553 C 0.38158 0.59376 0.88921 0.0
C554 C 0.3637 0.58971 0.91208 0.0
C555 C 0.35663 0.56949 0.91518 0.0
C556 C 0.35277 0.60604 0.93479 0.0
C557 C 0.3908 0.6149 0.88679 0.0
C558 C 0.35022 0.60436 0.97678 0.0
C559 C 0.34133 0.62029 0.99887 0.0
C560 C 0.33488 0.63831 0.97944 0.0
C561 C 0.3365 0.63952 0.93711 0.0
C562 C 0.34521 0.62348 0.915 0.0
H563 H 0.40715 0.61438 0.8776 0.0
H564 H 0.38239 0.624 0.86389 0.0
H565 H 0.3897 0.62295 0.91625 0.0
H566 H 0.35577 0.59098 0.9927 0.0
H567 H 0.34035 0.61883 0.0314 0.0
H568 H 0.64349 0.09069 0.78189 0.0
H569 H 0.67138 0.10603 0.74323 0.0
H570 H 0.638 0.09562 0.63274 0.0
H571 H 0.60972 0.08082 0.67132 0.0
H572 H 0.69638 0.09318 0.68468 0.0
H573 H 0.64808 0.1563 0.62598 0.0
H574 H 0.63943 0.13909 0.66494 0.0
H575 H 0.63874 0.13136 0.61279 0.0
C576 C 0.64215 0.09142 0.74931 0.0
C577 C 0.62426 0.08471 0.72976 0.0
C578 C 0.65811 0.10027 0.72724 0.0
C579 C 0.65658 0.10249 0.68515 0.0
C580 C 0.63927 0.09467 0.66529 0.0
H581 H 0.76341 0.13854 0.54201 0.0
H582 H 0.73352 0.12019 0.56781 0.0
C583 C 0.62319 0.08603 0.68738 0.0
C584 C 0.67294 0.11337 0.66241 0.0
H585 H 0.68188 0.15427 0.60051 0.0
C586 C 0.6932 0.10651 0.6662 0.0
C587 C 0.66884 0.131 0.63884 0.0
C588 C 0.64764 0.14002 0.63565 0.0
C589 C 0.70946 0.11675 0.64719 0.0
C590 C 0.7053 0.13401 0.62262 0.0
C591 C 0.68504 0.14088 0.61883 0.0
C592 C 0.72191 0.14577 0.60248 0.0
C593 C 0.73101 0.10938 0.6549 0.0
C594 C 0.72459 0.16665 0.61112 0.0
C595 C 0.74143 0.17732 0.59566 0.0
C596 C 0.75598 0.16725 0.57146 0.0
C597 C 0.75258 0.14668 0.56089 0.0
C598 C 0.73561 0.1361 0.57594 0.0
H599 H 0.73195 0.0998 0.68256 0.0
H600 H 0.73614 0.09989 0.62902 0.0
H601 H 0.74174 0.12244 0.65823 0.0
H602 H 0.71414 0.17449 0.63126 0.0
H603 H 0.74362 0.19312 0.60457 0.0
H604 H 0.18099 0.39523 0.52206 0.0
H605 H 0.16542 0.42336 0.48412 0.0
H606 H 0.15161 0.38201 0.38629 0.0
H607 H 0.16773 0.35408 0.42314 0.0
H608 H 0.16356 0.41781 0.35746 0.0
H609 H 0.10454 0.43075 0.47483 0.0
H610 H 0.13007 0.4337 0.49386 0.0
H611 H 0.12162 0.40908 0.47598 0.0
C612 C 0.17488 0.39218 0.49224 0.0
C613 C 0.17543 0.37231 0.47592 0.0
C614 C 0.16579 0.40824 0.47075 0.0
C615 C 0.15677 0.40467 0.43284 0.0
C616 C 0.15826 0.38511 0.41563 0.0
H617 H 0.06652 0.48919 0.33197 0.0
H618 H 0.08349 0.45814 0.35635 0.0
C619 C 0.16753 0.36913 0.43683 0.0
C620 C 0.14539 0.4211 0.41135 0.0
H621 H 0.10623 0.4553 0.42197 0.0
C622 C 0.15096 0.42595 0.37151 0.0
C623 C 0.12858 0.43137 0.42922 0.0
C624 C 0.12068 0.42583 0.47065 0.0
C625 C 0.14057 0.44111 0.34949 0.0
C626 C 0.12451 0.45216 0.36819 0.0
C627 C 0.11861 0.44695 0.40765 0.0
C628 C 0.11424 0.46981 0.34834 0.0
C629 C 0.14675 0.44487 0.30622 0.0
C630 C 0.12582 0.48655 0.33494 0.0
C631 C 0.11619 0.50416 0.32049 0.0
C632 C 0.09469 0.50564 0.31985 0.0
C633 C 0.08308 0.48857 0.3319 0.0
C634 C 0.09277 0.47085 0.34606 0.0
H635 H 0.1536 0.43095 0.29249 0.0
H636 H 0.13349 0.4497 0.28753 0.0
H637 H 0.15848 0.45714 0.30531 0.0
H638 H 0.14235 0.4864 0.33728 0.0
H639 H 0.12568 0.51698 0.31163 0.0
H640 H 0.64345 0.58993 0.30713 0.0
H641 H 0.6714 0.60457 0.3467 0.0
H642 H 0.63648 0.59596 0.4559 0.0
H643 H 0.60824 0.58176 0.41643 0.0
H644 H 0.65131 0.63407 0.45148 0.0
H645 H 0.71383 0.57936 0.41918 0.0
H646 H 0.70261 0.58942 0.37392 0.0
H647 H 0.68744 0.57386 0.40733 0.0
C648 C 0.64186 0.59074 0.33965 0.0
C649 C 0.62357 0.58466 0.35857 0.0
C650 C 0.65791 0.59909 0.36229 0.0
C651 C 0.65616 0.6012 0.40438 0.0
C652 C 0.6382 0.59449 0.42349 0.0
H653 H 0.76135 0.63853 0.54892 0.0
H654 H 0.73111 0.62042 0.52414 0.0
C655 C 0.62209 0.5863 0.40086 0.0
C656 C 0.67242 0.61168 0.42807 0.0
H657 H 0.72375 0.61164 0.44719 0.0
C658 C 0.66712 0.62904 0.45089 0.0
C659 C 0.69301 0.60499 0.42778 0.0
C660 C 0.69954 0.58576 0.40608 0.0
C661 C 0.68191 0.6402 0.47245 0.0
C662 C 0.70267 0.63412 0.47042 0.0
C663 C 0.70787 0.61644 0.44853 0.0
C664 C 0.71939 0.64605 0.48984 0.0
C665 C 0.67508 0.65826 0.49743 0.0
C666 C 0.72264 0.66667 0.47969 0.0
C667 C 0.73978 0.67717 0.49432 0.0
C668 C 0.75422 0.66711 0.5188 0.0
C669 C 0.75051 0.64671 0.53017 0.0
C670 C 0.73327 0.63631 0.51587 0.0
H671 H 0.65876 0.65685 0.50637 0.0
H672 H 0.6845 0.65991 0.52515 0.0
H673 H 0.67667 0.67244 0.47926 0.0
H674 H 0.71246 0.67441 0.45891 0.0
H675 H 0.74233 0.69277 0.48445 0.0
H676 H 0.18261 0.89602 0.56576 0.0
H677 H 0.168 0.92452 0.60414 0.0
H678 H 0.15249 0.88321 0.70095 0.0
H679 H 0.16761 0.8549 0.66365 0.0
H680 H 0.12927 0.92918 0.62582 0.0
H681 H 0.17668 0.9293 0.76422 0.0
H682 H 0.18373 0.91504 0.71969 0.0
H683 H 0.16541 0.90475 0.75488 0.0
C684 C 0.17649 0.89308 0.59559 0.0
C685 C 0.17634 0.87314 0.61156 0.0
C686 C 0.16806 0.90938 0.61745 0.0
C687 C 0.15932 0.90609 0.65568 0.0
C688 C 0.15958 0.88629 0.67204 0.0
H689 H 0.06725 0.98915 0.75611 0.0
H690 H 0.08482 0.9588 0.73002 0.0
C691 C 0.16817 0.87005 0.65044 0.0
C692 C 0.14858 0.92299 0.67709 0.0
H693 H 0.14539 0.94821 0.7673 0.0
C694 C 0.13289 0.93342 0.65668 0.0
C695 C 0.15337 0.92864 0.71729 0.0
C696 C 0.17086 0.91898 0.74014 0.0
C697 C 0.12181 0.94923 0.67531 0.0
C698 C 0.12606 0.95435 0.71604 0.0
C699 C 0.14187 0.94404 0.73636 0.0
C700 C 0.11529 0.97135 0.73702 0.0
C701 C 0.10608 0.96067 0.65069 0.0
C702 C 0.12658 0.9879 0.75222 0.0
C703 C 0.11662 1.00506 0.76789 0.0
C704 C 0.09509 0.00612 0.76851 0.0
C705 C 0.08382 0.98895 0.75578 0.0
C706 C 0.09385 0.97166 0.74042 0.0
H707 H 0.10854 0.95858 0.61774 0.0
H708 H 0.0906 0.95477 0.65804 0.0
H709 H 0.10642 0.9773 0.65752 0.0
H710 H 0.14313 0.98795 0.75034 0.0
H711 H 0.12585 0.01789 0.77772 0.0
H712 H 0.90763 0.41781 0.9139 0.0
H713 H 0.8797 0.40183 0.95093 0.0
H714 H 0.83865 0.41422 0.8519 0.0
H715 H 0.86681 0.42961 0.81377 0.0
H716 H 0.84384 0.41371 0.97884 0.0
H717 H 0.83151 0.35351 0.86353 0.0
H718 H 0.85305 0.37073 0.86186 0.0
H719 H 0.8284 0.37881 0.8435 0.0
C720 C 0.89264 0.41732 0.89996 0.0
C721 C 0.88956 0.42477 0.86052 0.0
C722 C 0.87666 0.40813 0.92127 0.0
C723 C 0.85718 0.40629 0.90382 0.0
C724 C 0.85371 0.41485 0.86549 0.0
H725 H 0.7448 0.37587 0.02535 0.0
H726 H 0.77539 0.3924 0.99947 0.0
C727 C 0.86978 0.42385 0.84387 0.0
C728 C 0.84076 0.39502 0.92556 0.0
H729 H 0.80678 0.35562 0.91604 0.0
C730 C 0.8358 0.40094 0.96516 0.0
C731 C 0.83062 0.378 0.90821 0.0
C732 C 0.8363 0.36973 0.86712 0.0
C733 C 0.82065 0.39068 0.98744 0.0
C734 C 0.80972 0.3744 0.96921 0.0
C735 C 0.81503 0.36817 0.92999 0.0
C736 C 0.79206 0.36424 0.98927 0.0
C737 C 0.8168 0.39722 0.03049 0.0
C738 C 0.79106 0.34279 0.99212 0.0
C739 C 0.77332 0.33317 0.00639 0.0
C740 C 0.75621 0.34484 0.018 0.0
C741 C 0.75766 0.36634 0.01684 0.0
C742 C 0.77528 0.37589 1.00226 0.0
H743 H 0.83069 0.4042 0.04408 0.0
H744 H 0.80452 0.40894 0.03093 0.0
H745 H 0.81195 0.38412 0.04957 0.0
H746 H 0.8038 0.33346 0.98217 0.0
H747 H 0.77273 0.31661 0.00674 0.0
H748 H 0.44455 0.02294 0.25702 0.0
H749 H 0.42755 0.05375 0.23172 0.0
H750 H 0.36881 0.02472 0.24726 0.0
H751 H 0.38552 0.9943 0.27376 0.0
H752 H 0.40573 0.05627 0.16469 0.0
H753 H 0.35634 0.08011 0.29173 0.0
H754 H 0.3766 0.06159 0.2977 0.0
H755 H 0.35201 0.05389 0.27833 0.0
C756 C 0.42799 0.02331 0.25608 0.0
C757 C 0.41644 0.00608 0.26744 0.0
C758 C 0.41829 0.04092 0.2414 0.0
C759 C 0.39686 0.04168 0.23785 0.0
C760 C 0.3853 0.02477 0.25055 0.0
H761 H 0.33238 0.11712 0.06185 0.0
H762 H 0.34738 0.08876 0.1 0.0
C763 C 0.39494 0.00727 0.26553 0.0
C764 C 0.38671 0.05926 0.2175 0.0
H765 H 0.34763 0.0937 0.22659 0.0
C766 C 0.39315 0.06458 0.17842 0.0
C767 C 0.3704 0.07026 0.23544 0.0
C768 C 0.36358 0.06631 0.27827 0.0
C769 C 0.38355 0.08028 0.15655 0.0
C770 C 0.36656 0.09058 0.17369 0.0
C771 C 0.36039 0.08556 0.21311 0.0
C772 C 0.3556 0.10719 0.15189 0.0
C773 C 0.39201 0.08594 0.11563 0.0
C774 C 0.35412 0.12672 0.16926 0.0
C775 C 0.3452 0.14285 0.14789 0.0
C776 C 0.33763 0.13985 0.10849 0.0
C777 C 0.33823 0.12004 0.09191 0.0
C778 C 0.34699 0.10384 0.11355 0.0
H779 H 0.40815 0.08088 0.11212 0.0
H780 H 0.38283 0.07828 0.09181 0.0
H781 H 0.39131 0.10272 0.11057 0.0
H782 H 0.36048 0.12967 0.19892 0.0
H783 H 0.34496 0.15786 0.16178 0.0
H784 H 0.36607 0.43131 0.77181 0.0
H785 H 0.33808 0.41557 0.73367 0.0
H786 H 0.37957 0.40237 0.63578 0.0
H787 H 0.40732 0.4187 0.67277 0.0
H788 H 0.34392 0.41376 0.60671 0.0
H789 H 0.33095 0.35483 0.72409 0.0
H790 H 0.32768 0.38032 0.74306 0.0
H791 H 0.35245 0.3721 0.72563 0.0
C792 C 0.36917 0.42531 0.74193 0.0
C793 C 0.38902 0.42611 0.72562 0.0
C794 C 0.35319 0.41611 0.72032 0.0
C795 C 0.35684 0.4072 0.68234 0.0
C796 C 0.37639 0.40893 0.66517 0.0
H797 H 0.27293 0.31633 0.58119 0.0
H798 H 0.30383 0.33343 0.60601 0.0
C799 C 0.39227 0.41833 0.68646 0.0
C800 C 0.34053 0.39568 0.66068 0.0
H801 H 0.3065 0.35636 0.67097 0.0
C802 C 0.33581 0.40115 0.62071 0.0
C803 C 0.33029 0.37884 0.67846 0.0
C804 C 0.33574 0.37101 0.71999 0.0
C805 C 0.32082 0.39062 0.59848 0.0
C806 C 0.30976 0.37454 0.61709 0.0
C807 C 0.31484 0.36876 0.6567 0.0
C808 C 0.29223 0.36414 0.597 0.0
C809 C 0.31727 0.39665 0.55506 0.0
C810 C 0.27558 0.37564 0.58285 0.0
C811 C 0.25808 0.36593 0.5681 0.0
C812 C 0.25659 0.34443 0.56792 0.0
C813 C 0.27356 0.33289 0.58074 0.0
C814 C 0.2912 0.34266 0.59517 0.0
H815 H 0.33127 0.40343 0.54153 0.0
H816 H 0.31251 0.38335 0.53642 0.0
H817 H 0.30504 0.40841 0.55376 0.0
H818 H 0.2757 0.39218 0.58485 0.0
H819 H 0.24533 0.37537 0.55867 0.0
H820 H 0.84469 0.15784 0.42411 0.0
H821 H 0.85979 0.12947 0.38696 0.0
H822 H 0.84468 0.0884 0.48443 0.0
H823 H 0.83013 0.11699 0.52266 0.0
H824 H 0.88319 0.08352 0.46227 0.0
H825 H 0.83544 0.08333 0.32435 0.0
H826 H 0.84684 0.10786 0.3333 0.0
H827 H 0.82857 0.09775 0.3688 0.0
C828 C 0.84422 0.14273 0.43749 0.0
C829 C 0.83617 0.13974 0.4765 0.0
C830 C 0.8528 0.12645 0.41599 0.0
C831 C 0.85315 0.10669 0.43255 0.0
C832 C 0.84455 0.1035 0.47095 0.0
H833 H 0.8855 0.99461 0.31047 0.0
H834 H 0.86859 0.02473 0.33794 0.0
C835 C 0.83616 0.11985 0.49273 0.0
C836 C 0.8638 0.08973 0.41113 0.0
H837 H 0.86664 0.06431 0.32109 0.0
C838 C 0.87947 0.07924 0.43148 0.0
C839 C 0.85889 0.08402 0.37102 0.0
C840 C 0.84137 0.09369 0.34826 0.0
C841 C 0.89041 0.06332 0.41288 0.0
C842 C 0.88604 0.05814 0.37223 0.0
C843 C 0.87027 0.06852 0.35197 0.0
C844 C 0.89663 0.04099 0.35129 0.0
C845 C 0.9061 0.05181 0.4375 0.0
C846 C 0.91807 0.04042 0.34789 0.0
C847 C 0.92789 0.02301 0.3325 0.0
C848 C 0.91641 0.00599 0.3197 0.0
C849 C 0.89489 0.00732 0.32033 0.0
C850 C 0.88515 0.02459 0.33606 0.0
H851 H 0.90369 0.05396 0.47044 0.0
H852 H 0.90564 0.03517 0.43077 0.0
H853 H 0.92161 0.05761 0.43006 0.0
H854 H 0.92725 0.05317 0.35828 0.0
H855 H 0.94446 0.0226 0.33216 0.0
H856 H 0.14261 0.59259 0.28277 0.0
H857 H 0.17039 0.60823 0.24423 0.0
H858 H 0.13731 0.59735 0.13357 0.0
H859 H 0.10918 0.58218 0.17198 0.0
H860 H 0.19551 0.59529 0.18528 0.0
H861 H 0.14683 0.6583 0.12729 0.0
H862 H 0.13838 0.64106 0.16639 0.0
H863 H 0.13756 0.63331 0.11427 0.0
C864 C 0.14132 0.59328 0.25019 0.0
C865 C 0.12355 0.58632 0.23052 0.0
C866 C 0.1572 0.6023 0.22819 0.0
C867 C 0.1557 0.60447 0.18609 0.0
C868 C 0.13853 0.59643 0.16613 0.0
H869 H 0.26154 0.64018 0.04089 0.0
H870 H 0.23148 0.62225 0.06701 0.0
C871 C 0.12255 0.58759 0.18813 0.0
C872 C 0.17196 0.61546 0.16338 0.0
H873 H 0.18061 0.65644 0.10153 0.0
C874 C 0.19225 0.60863 0.1669 0.0
C875 C 0.16775 0.6331 0.13994 0.0
C876 C 0.14649 0.64203 0.13699 0.0
C877 C 0.20841 0.61889 0.14763 0.0
C878 C 0.20411 0.63616 0.12318 0.0
C879 C 0.18384 0.64304 0.11976 0.0
C880 C 0.22063 0.64782 0.10261 0.0
C881 C 0.23 0.61151 0.15483 0.0
C882 C 0.22374 0.66859 0.11168 0.0
C883 C 0.2407 0.67903 0.09611 0.0
C884 C 0.2549 0.66881 0.07135 0.0
C885 C 0.25099 0.64841 0.0602 0.0
C886 C 0.23391 0.63808 0.07541 0.0
H887 H 0.23108 0.60185 0.18235 0.0
H888 H 0.23501 0.60212 0.12872 0.0
H889 H 0.24073 0.62458 0.15809 0.0
H890 H 0.21359 0.67648 0.13234 0.0
H891 H 0.24331 0.6947 0.10545 0.0
H892 H 0.67973 0.8589 0.92149 0.0
H893 H 0.6653 0.88731 0.88287 0.0
H894 H 0.65443 0.92049 0.99342 0.0
H895 H 0.66922 0.89236 0.03222 0.0
H896 H 0.62655 0.90135 0.88665 0.0
H897 H 0.68004 0.96426 0.92408 0.0
H898 H 0.68586 0.9378 0.93457 0.0
H899 H 0.66969 0.95219 0.96821 0.0
C900 C 0.67462 0.8724 0.93758 0.0
C901 C 0.67568 0.87334 0.98001 0.0
C902 C 0.66631 0.88861 0.91543 0.0
C903 C 0.65891 0.90613 0.93515 0.0
C904 C 0.66042 0.90735 0.97741 0.0
H905 H 0.56765 0.99255 0.85329 0.0
H906 H 0.58572 0.96257 0.87925 0.0
C907 C 0.66886 0.89119 0.9996 0.0
C908 C 0.64843 0.9225 0.91178 0.0
H909 H 0.64814 0.97398 0.89443 0.0
C910 C 0.63139 0.91722 0.88804 0.0
C911 C 0.65486 0.94315 0.91316 0.0
C912 C 0.67374 0.94968 0.93605 0.0
C913 C 0.62032 0.93208 0.8665 0.0
C914 C 0.62618 0.95287 0.86944 0.0
C915 C 0.64352 0.95807 0.89237 0.0
C916 C 0.61443 0.96961 0.84971 0.0
C917 C 0.6026 0.9253 0.84052 0.0
C918 C 0.62446 0.98355 0.82426 0.0
C919 C 0.61422 1.00082 0.8097 0.0
C920 C 0.59369 1.00452 0.82024 0.0
C921 C 0.58336 0.99002 0.84409 0.0
C922 C 0.59369 0.97282 0.85896 0.0
H923 H 0.60414 0.909 0.83147 0.0
H924 H 0.58819 0.92686 0.85796 0.0
H925 H 0.60134 0.9348 0.81284 0.0
H926 H 0.64045 0.98141 0.81667 0.0
H927 H 0.62262 0.0117 0.79141 0.0
H928 H 0.36099 0.16874 0.92431 0.0
H929 H 0.39053 0.15407 0.89059 0.0
H930 H 0.42612 0.1608 0.99948 0.0
H931 H 0.39613 0.17501 0.03431 0.0
H932 H 0.42738 0.16827 0.87345 0.0
H933 H 0.43482 0.10093 0.97455 0.0
H934 H 0.413 0.11781 0.97617 0.0
H935 H 0.43662 0.12511 1.00006 0.0
C936 C 0.37506 0.16719 0.94132 0.0
C937 C 0.37606 0.17289 0.98231 0.0
C938 C 0.39201 0.15879 0.92183 0.0
C939 C 0.41047 0.1559 0.94262 0.0
C940 C 0.41188 0.16236 0.98307 0.0
H941 H 0.52419 0.12673 0.81852 0.0
H942 H 0.49595 0.14343 0.85328 0.0
C943 C 0.39478 0.17069 1.00284 0.0
C944 C 0.42798 0.14603 0.92141 0.0
H945 H 0.46005 0.10471 0.92382 0.0
C946 C 0.43454 0.15438 0.88453 0.0
C947 C 0.43707 0.12768 0.93541 0.0
C948 C 0.42993 0.11721 0.9735 0.0
C949 C 0.44987 0.14497 0.86132 0.0
C950 C 0.4594 0.12696 0.87589 0.0
C951 C 0.45283 0.11856 0.91273 0.0
C952 C 0.47635 0.11675 0.85363 0.0
C953 C 0.45526 0.15413 0.82086 0.0
C954 C 0.475 0.09598 0.84284 0.0
C955 C 0.49131 0.08622 0.8232 0.0
C956 C 0.50931 0.09708 0.81397 0.0
C957 C 0.51048 0.11792 0.82453 0.0
C958 C 0.49428 0.12757 0.84437 0.0
H959 H 0.44254 0.16359 0.80873 0.0
H960 H 0.4688 0.16422 0.82438 0.0
H961 H 0.45901 0.14207 0.79842 0.0
H962 H 0.46135 0.08727 0.84987 0.0
H963 H 0.48996 0.07012 0.81591 0.0
H964 H 0.58845 0.64532 0.28449 0.0
H965 H 0.60192 0.67545 0.24896 0.0
H966 H 0.60989 0.63926 0.14118 0.0
H967 H 0.59606 0.60955 0.17557 0.0
H968 H 0.63939 0.68138 0.21518 0.0
H969 H 0.58031 0.68807 0.09651 0.0
H970 H 0.57694 0.67213 0.14047 0.0
H971 H 0.59121 0.66291 0.09759 0.0
C972 C 0.59279 0.64389 0.25305 0.0
C973 C 0.59106 0.625 0.23293 0.0
C974 C 0.60056 0.66109 0.23283 0.0
C975 C 0.60662 0.65971 0.19216 0.0
C976 C 0.60485 0.64089 0.17217 0.0
H977 H 0.69224 0.73913 0.06454 0.0
H978 H 0.67568 0.71085 0.10055 0.0
C979 C 0.59702 0.62382 0.19212 0.0
C980 C 0.61564 0.67755 0.17072 0.0
H981 H 0.61204 0.70533 0.0837 0.0
C982 C 0.6333 0.68678 0.18664 0.0
C983 C 0.60757 0.68478 0.1337 0.0
C984 C 0.58784 0.67659 0.1163 0.0
C985 C 0.6434 0.70264 0.16601 0.0
C986 C 0.63597 0.70905 0.12786 0.0
C987 C 0.61799 0.70018 0.11254 0.0
C988 C 0.64602 0.72554 0.10405 0.0
C989 C 0.66173 0.71258 0.18567 0.0
C990 C 0.63465 0.74272 0.09221 0.0
C991 C 0.64393 0.75864 0.07091 0.0
C992 C 0.66487 0.75781 0.06098 0.0
C993 C 0.67611 0.74028 0.0717 0.0
C994 C 0.66672 0.72422 0.09277 0.0
H995 H 0.66179 0.71015 0.21888 0.0
H996 H 0.67592 0.70568 0.17328 0.0
H997 H 0.66209 0.72929 0.17964 0.0
H998 H 0.61864 0.74407 0.1003 0.0
H999 H 0.63476 0.7719 0.06336 0.0
H1000 H 0.02194 0.94326 0.318 0.0
H1001 H 0.05096 0.92677 0.35192 0.0
H1002 H 0.01812 0.86954 0.35316 0.0
H1003 H 0.98951 0.88558 0.31849 0.0
H1004 H 0.05235 0.9087 0.42557 0.0
H1005 H 0.07238 0.85156 0.30856 0.0
H1006 H 0.05532 0.87268 0.2987 0.0
H1007 H 0.04605 0.84998 0.32347 0.0
C1008 C 0.02107 0.92707 0.32481 0.0
C1009 C 1.00347 0.91572 0.31502 0.0
C1010 C 0.03761 0.9177 0.34442 0.0
C1011 C 0.03686 0.89682 0.35456 0.0
C1012 C 0.01932 0.8855 0.34475 0.0
H1013 H 0.11683 0.83844 0.53492 0.0
H1014 H 0.08694 0.85264 0.49975 0.0
C1015 C 1.0029 0.89478 0.32497 0.0
C1016 C 0.05401 0.88697 0.37677 0.0
H1017 H 0.08717 0.84661 0.37357 0.0
C1018 C 0.06006 0.89518 0.41412 0.0
C1019 C 0.06415 0.8694 0.36172 0.0
C1020 C 0.05929 0.86051 0.32073 0.0
C1021 C 0.07587 0.88626 0.43692 0.0
C1022 C 0.08556 0.86832 0.42243 0.0
C1023 C 0.07954 0.86017 0.385 0.0
C1024 C 0.10308 0.85864 0.44386 0.0
C1025 C 0.08242 0.8965 0.47569 0.0
C1026 C 0.12181 0.85646 0.42369 0.0
C1027 C 0.1387 0.84808 0.44335 0.0
C1028 C 0.13738 0.84171 0.4839 0.0
C1029 C 0.11843 0.8433 0.50382 0.0
C1030 C 0.10139 0.8516 0.48387 0.0
H1031 H 0.07709 0.91263 0.47727 0.0
H1032 H 0.0757 0.88814 0.50166 0.0
H1033 H 0.09933 0.89629 0.47893 0.0
H1034 H 0.1235 0.86165 0.39279 0.0
H1035 H 0.15296 0.84702 0.42682 0.0
H1036 H 0.81736 0.26774 0.58655 0.0
H1037 H 0.83416 0.2959 0.62222 0.0
H1038 H 0.89298 0.27421 0.58146 0.0
H1039 H 0.87636 0.24573 0.54665 0.0
H1040 H 0.89342 0.28232 0.66107 0.0
H1041 H 0.85906 0.3479 0.57943 0.0
H1042 H 0.84034 0.33096 0.60068 0.0
H1043 H 0.85705 0.32195 0.5613 0.0
C1044 C 0.83384 0.2692 0.58449 0.0
C1045 C 0.8455 0.25458 0.56344 0.0
C1046 C 0.84343 0.28533 0.60492 0.0
C1047 C 0.86484 0.28734 0.60415 0.0
C1048 C 0.87645 0.273 0.58246 0.0
H1049 H 0.93141 0.39552 0.67665 0.0
H1050 H 0.91706 0.36608 0.64122 0.0
C1051 C 0.86691 0.25678 0.56239 0.0
C1052 C 0.87525 0.30385 0.62728 0.0
H1053 H 0.87768 0.35569 0.63912 0.0
C1054 C 0.89004 0.29838 0.65616 0.0
C1055 C 0.87099 0.32481 0.62064 0.0
C1056 C 0.85615 0.33181 0.58857 0.0
C1057 C 0.90061 0.31326 0.67866 0.0
C1058 C 0.89593 0.33418 0.6728 0.0
C1059 C 0.88118 0.33964 0.64384 0.0
C1060 C 0.90648 0.35083 0.69532 0.0
C1061 C 0.91702 0.30642 0.70774 0.0
C1062 C 0.90575 0.3519 0.73773 0.0
C1063 C 0.91426 0.36865 0.75821 0.0
C1064 C 0.92328 0.38479 0.73651 0.0
C1065 C 0.92449 0.38336 0.69421 0.0
C1066 C 0.91624 0.36657 0.67389 0.0
H1067 H 0.92265 0.2908 0.70045 0.0
H1068 H 0.93022 0.31712 0.70752 0.0
H1069 H 0.91061 0.30606 0.73875 0.0
H1070 H 0.89795 0.34017 0.75493 0.0
H1071 H 0.91287 0.36945 0.79077 0.0
H1072 H 0.64462 0.82961 0.16033 0.0
H1073 H 0.6153 0.84449 0.19526 0.0
H1074 H 0.59029 0.86426 0.08118 0.0
H1075 H 0.61947 0.84889 0.04583 0.0
H1076 H 0.6056 0.88437 0.19683 0.0
H1077 H 0.54032 0.84007 0.13498 0.0
H1078 H 0.56655 0.83206 0.12864 0.0
H1079 H 0.556 0.85176 0.09695 0.0
C1080 C 0.63268 0.83679 0.14257 0.0
C1081 C 0.63435 0.83807 0.1003 0.0
C1082 C 0.61596 0.84535 0.16261 0.0
C1083 C 0.60052 0.85545 0.14092 0.0
C1084 C 0.6018 0.85622 0.09855 0.0
H1085 H 0.51753 0.94513 0.24918 0.0
H1086 H 0.54573 0.92841 0.21339 0.0
C1087 C 0.61849 0.84744 0.07835 0.0
C1088 C 0.58397 0.86626 0.16315 0.0
H1089 H 0.53212 0.86928 0.17455 0.0
C1090 C 0.58953 0.88102 0.19202 0.0
C1091 C 0.56301 0.86179 0.15712 0.0
C1092 C 0.55607 0.84543 0.12803 0.0
C1093 C 0.57476 0.89141 0.21504 0.0
C1094 C 0.55378 0.8873 0.20835 0.0
C1095 C 0.5482 0.87253 0.17949 0.0
C1096 C 0.53734 0.89771 0.23163 0.0
C1097 C 0.58183 0.90629 0.24702 0.0
C1098 C 0.52313 0.88606 0.25352 0.0
C1099 C 0.50692 0.89556 0.27368 0.0
C1100 C 0.50459 0.91695 0.2725 0.0
C1101 C 0.5191 0.92866 0.25131 0.0
C1102 C 0.53523 0.91911 0.23081 0.0
H1103 H 0.59797 0.90345 0.25594 0.0
H1104 H 0.58085 0.92209 0.23493 0.0
H1105 H 0.57207 0.90534 0.2744 0.0
H1106 H 0.52443 0.86954 0.2546 0.0
H1107 H 0.49597 0.88606 0.28956 0.0
H1108 H 0.37569 0.24695 0.03949 0.0
H1109 H 0.39177 0.27572 0.00473 0.0
H1110 H 0.33259 0.29595 0.96301 0.0
H1111 H 0.31633 0.26749 0.99871 0.0
H1112 H 0.39239 0.28357 0.92531 0.0
H1113 H 0.3561 0.34869 0.00526 0.0
H1114 H 0.35455 0.32276 0.02368 0.0
H1115 H 0.33791 0.33125 0.98375 0.0
C1116 C 0.36604 0.25774 0.02355 0.0
C1117 C 0.34469 0.25505 0.02225 0.0
C1118 C 0.37528 0.27413 1.0035 0.0
C1119 C 0.36341 0.28816 0.98154 0.0
C1120 C 0.34205 0.28565 0.98053 0.0
H1121 H 0.41187 0.37061 0.79573 0.0
H1122 H 0.39677 0.34132 0.83114 0.0
C1123 C 0.33276 0.26935 1.00097 0.0
C1124 C 0.37356 0.30482 0.95839 0.0
H1125 H 0.37505 0.35666 0.94615 0.0
C1126 C 0.38866 0.29957 0.92997 0.0
C1127 C 0.36882 0.3257 0.96468 0.0
C1128 C 0.35361 0.33249 0.99626 0.0
C1129 C 0.39911 0.31459 0.90767 0.0
C1130 C 0.39399 0.33544 0.91322 0.0
C1131 C 0.3789 0.34067 0.94166 0.0
C1132 C 0.40448 0.35224 0.89103 0.0
C1133 C 0.41589 0.30799 0.8792 0.0
C1134 C 0.41379 0.36815 0.91276 0.0
C1135 C 0.42214 0.38496 0.89267 0.0
C1136 C 0.42148 0.38622 0.8503 0.0
C1137 C 0.41284 0.36995 0.82836 0.0
C1138 C 0.40423 0.35318 0.84859 0.0
H1139 H 0.42174 0.29249 0.88677 0.0
H1140 H 0.40976 0.30746 0.84797 0.0
H1141 H 0.4289 0.31892 0.87983 0.0
H1142 H 0.41424 0.36777 0.94547 0.0
H1143 H 0.42876 0.39722 0.91044 0.0
H1144 H 0.89168 0.16322 0.54576 0.0
H1145 H 0.92066 0.14715 0.58071 0.0
H1146 H 0.89468 0.16436 0.69554 0.0
H1147 H 0.86555 0.17987 0.66102 0.0
H1148 H 0.94988 0.16015 0.63323 0.0
H1149 H 0.90023 0.10321 0.7087 0.0
H1150 H 0.89113 0.1195 0.66858 0.0
H1151 H 0.8926 0.12899 0.71956 0.0
C1152 C 0.89232 0.16381 0.57842 0.0
C1153 C 0.87623 0.17259 0.60066 0.0
C1154 C 0.90883 0.15455 0.59837 0.0
C1155 C 0.90954 0.15401 0.6408 0.0
C1156 C 0.89414 0.16397 0.66286 0.0
H1157 H 0.01451 0.12569 0.79076 0.0
H1158 H 0.98628 0.14178 0.7543 0.0
C1159 C 0.87758 0.17298 0.64305 0.0
C1160 C 0.92608 0.14276 0.66222 0.0
H1161 H 0.93447 0.10578 0.73327 0.0
C1162 C 0.94652 0.14818 0.65493 0.0
C1163 C 0.92175 0.12681 0.6899 0.0
C1164 C 0.90025 0.11912 0.69686 0.0
C1165 C 0.9627 0.13854 0.67548 0.0
C1166 C 0.95827 0.12343 0.70491 0.0
C1167 C 0.93787 0.11758 0.71125 0.0
C1168 C 0.97458 0.11348 0.72933 0.0
C1169 C 0.98437 0.14444 0.66491 0.0
C1170 C 0.97674 0.09208 0.72938 0.0
C1171 C 0.99264 0.08277 0.75099 0.0
C1172 C 0.00671 0.09471 0.77287 0.0
C1173 C 1.00401 0.11606 0.77401 0.0
C1174 C 0.988 0.12531 0.7528 0.0
H1175 H 0.98533 0.15116 0.63415 0.0
H1176 H 0.98987 0.15614 0.68666 0.0
H1177 H 0.99479 0.13103 0.66642 0.0
H1178 H 0.96647 0.08261 0.71177 0.0
H1179 H 0.99439 0.06631 0.74919 0.0
H1180 H 0.08816 0.64558 0.30244 0.0
H1181 H 0.10259 0.67547 0.33724 0.0
H1182 H 0.1088 0.63995 0.4463 0.0
H1183 H 0.0939 0.61052 0.4126 0.0
H1184 H 0.09485 0.67687 0.46317 0.0
H1185 H 0.16244 0.68372 0.36256 0.0
H1186 H 0.13836 0.68568 0.33678 0.0
H1187 H 0.14539 0.66203 0.36085 0.0
C1188 C 0.09243 0.64423 0.33393 0.0
C1189 C 0.09001 0.62556 0.35453 0.0
C1190 C 0.10087 0.66126 0.35368 0.0
C1191 C 0.10724 0.65983 0.39417 0.0
C1192 C 0.10416 0.64143 0.41502 0.0
H1193 H 0.19273 0.7398 0.52083 0.0
H1194 H 0.17584 0.71096 0.48705 0.0
C1195 C 0.09562 0.62455 0.39555 0.0
C1196 C 0.11718 0.67728 0.41535 0.0
H1197 H 0.15858 0.70921 0.41287 0.0
C1198 C 0.10878 0.68395 0.45212 0.0
C1199 C 0.1356 0.68625 0.40139 0.0
C1200 C 0.14612 0.67895 0.36345 0.0
C1201 C 0.1182 0.69931 0.47523 0.0
C1202 C 0.13623 0.70875 0.46063 0.0
C1203 C 0.14471 0.70204 0.42395 0.0
C1204 C 0.14632 0.72584 0.4826 0.0
C1205 C 0.10898 0.70484 0.51558 0.0
C1206 C 0.13539 0.74377 0.4913 0.0
C1207 C 0.14488 0.76008 0.51101 0.0
C1208 C 0.16568 0.75903 0.52197 0.0
C1209 C 0.17666 0.74105 0.51319 0.0
C1210 C 0.16706 0.72461 0.49369 0.0
H1211 H 0.09955 0.69214 0.52786 0.0
H1212 H 0.121 0.70872 0.53801 0.0
H1213 H 0.09884 0.71833 0.51182 0.0
H1214 H 0.11956 0.74533 0.48211 0.0
H1215 H 0.13598 0.77378 0.51666 0.0
H1216 H 0.89457 0.67285 0.53431 0.0
H1217 H 0.92478 0.6594 0.49902 0.0
H1218 H 0.88853 0.65015 0.39172 0.0
H1219 H 0.8587 0.66393 0.42594 0.0
H1220 H 0.93086 0.62156 0.46621 0.0
H1221 H 0.93716 0.68 0.34619 0.0
H1222 H 0.92126 0.68354 0.39019 0.0
H1223 H 0.9121 0.66887 0.3478 0.0
C1224 C 0.89313 0.66823 0.50302 0.0
C1225 C 0.87419 0.66958 0.483 0.0
C1226 C 0.91038 0.66047 0.48294 0.0
C1227 C 0.90901 0.65405 0.44249 0.0
C1228 C 0.89014 0.65546 0.42255 0.0
H1229 H 0.98973 0.56875 0.31685 0.0
H1230 H 0.96111 0.58515 0.35214 0.0
C1231 C 0.87301 0.66326 0.44239 0.0
C1232 C 0.92693 0.64504 0.42128 0.0
H1233 H 0.95503 0.64853 0.3346 0.0
C1234 C 0.93629 0.62757 0.43763 0.0
C1235 C 0.93418 0.653 0.38418 0.0
C1236 C 0.92579 0.67251 0.36629 0.0
C1237 C 0.95234 0.61753 0.41739 0.0
C1238 C 0.95884 0.62487 0.37924 0.0
C1239 C 0.94982 0.64266 0.36346 0.0
C1240 C 0.97557 0.61492 0.35594 0.0
C1241 C 0.96238 0.59939 0.43746 0.0
C1242 C 0.99278 0.62638 0.34458 0.0
C1243 C 0.00891 0.61718 0.32376 0.0
C1244 C 0.00828 0.59624 0.31379 0.0
C1245 C 0.99074 0.58489 0.32405 0.0
C1246 C 0.97447 0.59419 0.34469 0.0
H1247 H 0.95972 0.59936 0.47061 0.0
H1248 H 0.95577 0.58508 0.42498 0.0
H1249 H 0.97913 0.59924 0.43187 0.0
H1250 H 0.99395 0.6424 0.35266 0.0
H1251 H 0.02217 0.62643 0.31652 0.0
H1252 H 0.19243 0.23906 0.56669 0.0
H1253 H 0.17543 0.21038 0.60077 0.0
H1254 H 0.11913 0.24478 0.60432 0.0
H1255 H 0.13564 0.27301 0.56945 0.0
H1256 H 0.15791 0.20885 0.67464 0.0
H1257 H 0.09914 0.19149 0.55927 0.0
H1258 H 0.12063 0.20802 0.54914 0.0
H1259 H 0.09839 0.21774 0.57492 0.0
C1260 C 0.17633 0.24034 0.57406 0.0
C1261 C 0.16537 0.25826 0.56478 0.0
C1262 C 0.16666 0.22399 0.59376 0.0
C1263 C 0.14588 0.22527 0.60454 0.0
C1264 C 0.13499 0.24315 0.59537 0.0
H1265 H 0.08701 0.14589 0.78539 0.0
H1266 H 0.10158 0.17564 0.75037 0.0
C1267 C 0.14454 0.25936 0.57546 0.0
C1268 C 0.13568 0.20829 0.62665 0.0
H1269 H 0.09411 0.17665 0.62424 0.0
C1270 C 0.14403 0.20171 0.66352 0.0
C1271 C 0.11762 0.19887 0.61204 0.0
C1272 C 0.10854 0.20424 0.57148 0.0
C1273 C 0.13476 0.18608 0.68627 0.0
C1274 C 0.11632 0.17715 0.67228 0.0
C1275 C 0.10805 0.1837 0.63532 0.0
C1276 C 0.10624 0.15982 0.6936 0.0
C1277 C 0.14516 0.17889 0.72441 0.0
C1278 C 0.10309 0.14138 0.67291 0.0
C1279 C 0.09446 0.12459 0.69249 0.0
C1280 C 0.08883 0.12572 0.73349 0.0
C1281 C 0.09127 0.14445 0.75392 0.0
C1282 C 0.09982 0.16139 0.73405 0.0
H1283 H 0.1615 0.18358 0.7254 0.0
H1284 H 0.13736 0.18576 0.75091 0.0
H1285 H 0.14434 0.16198 0.72725 0.0
H1286 H 0.10776 0.13978 0.64167 0.0
H1287 H 0.09271 0.11051 0.67555 0.0
H1288 H 0.65179 0.34513 0.92477 0.0
H1289 H 0.62227 0.35966 0.89077 0.0
H1290 H 0.58603 0.35143 0.99839 0.0
H1291 H 0.61598 0.33737 0.03354 0.0
H1292 H 0.58582 0.34498 0.87215 0.0
H1293 H 0.57656 0.41131 0.97538 0.0
H1294 H 0.59863 0.39476 0.97707 0.0
H1295 H 0.57495 0.3869 1.0 0.0
C1296 C 0.63758 0.34632 0.94144 0.0
C1297 C 0.63637 0.34025 0.98218 0.0
C1298 C 0.62065 0.35465 0.9218 0.0
C1299 C 0.60201 0.35705 0.94217 0.0
C1300 C 0.60041 0.35024 0.98235 0.0
H1301 H 0.48865 0.38544 0.81662 0.0
H1302 H 0.51698 0.36885 0.85128 0.0
C1303 C 0.61748 0.34202 1.00229 0.0
C1304 C 0.58451 0.3668 0.92085 0.0
H1305 H 0.55173 0.40752 0.92387 0.0
C1306 C 0.57835 0.35864 0.88352 0.0
C1307 C 0.57502 0.38487 0.93527 0.0
C1308 C 0.58172 0.39513 0.97391 0.0
C1309 C 0.56303 0.368 0.86023 0.0
C1310 C 0.55312 0.38571 0.87519 0.0
C1311 C 0.55927 0.3939 0.91249 0.0
C1312 C 0.53617 0.39582 0.85287 0.0
C1313 C 0.55805 0.3591 0.8193 0.0
C1314 C 0.53729 0.41668 0.84281 0.0
C1315 C 0.52092 0.42636 0.82323 0.0
C1316 C 0.50313 0.41533 0.81337 0.0
C1317 C 0.5022 0.39438 0.82316 0.0
C1318 C 0.51845 0.3848 0.84293 0.0
H1319 H 0.571 0.34993 0.8072 0.0
H1320 H 0.54465 0.34879 0.8221 0.0
H1321 H 0.55428 0.3713 0.79719 0.0
H1322 H 0.55078 0.42552 0.85038 0.0
H1323 H 0.52208 0.44254 0.81651 0.0
H1324 H 0.37695 0.73795 0.06912 0.0
H1325 H 0.39357 0.7656 0.10589 0.0
H1326 H 0.33755 0.80048 0.10308 0.0
H1327 H 0.32049 0.77245 0.06721 0.0
H1328 H 0.40141 0.80405 0.08805 0.0
H1329 H 0.35057 0.80199 0.22183 0.0
H1330 H 0.35003 0.78246 0.18333 0.0
H1331 H 0.33688 0.80634 0.17566 0.0
C1332 C 0.36811 0.75153 0.076 0.0
C1333 C 0.34732 0.75292 0.0652 0.0
C1334 C 0.37767 0.76734 0.0972 0.0
C1335 C 0.36674 0.78497 0.10809 0.0
C1336 C 0.34618 0.78679 0.09605 0.0
H1337 H 0.41837 0.90073 0.17623 0.0
H1338 H 0.40455 0.87076 0.14259 0.0
C1339 C 0.3365 0.77085 0.07507 0.0
C1340 C 0.37707 0.80142 0.13161 0.0
H1341 H 0.37365 0.8302 0.21758 0.0
C1342 C 0.39537 0.80968 0.11648 0.0
C1343 C 0.36951 0.80846 0.16924 0.0
C1344 C 0.3508 0.79921 0.18872 0.0
C1345 C 0.40599 0.82511 0.13727 0.0
C1346 C 0.39782 0.83297 0.17371 0.0
C1347 C 0.37984 0.82432 0.18949 0.0
C1348 C 0.40704 0.85089 0.1946 0.0
C1349 C 0.426 0.83266 0.12009 0.0
C1350 C 0.41273 0.84993 0.23553 0.0
C1351 C 0.42051 0.86728 0.25528 0.0
C1352 C 0.4226 0.88593 0.23445 0.0
C1353 C 0.4171 0.88666 0.19334 0.0
C1354 C 0.40928 0.86944 0.17383 0.0
H1355 H 0.43343 0.82078 0.10105 0.0
H1356 H 0.42305 0.84617 0.10066 0.0
H1357 H 0.43682 0.83721 0.14436 0.0
H1358 H 0.41101 0.83579 0.25225 0.0
H1359 H 0.42447 0.8662 0.28697 0.0
H1360 H 0.15194 0.34541 0.66017 0.0
H1361 H 0.12221 0.35945 0.69419 0.0
H1362 H 0.08629 0.35153 0.58605 0.0
H1363 H 0.11646 0.33785 0.5509 0.0
H1364 H 0.08062 0.38915 0.61952 0.0
H1365 H 0.07302 0.33035 0.73845 0.0
H1366 H 0.09828 0.34103 0.7376 0.0
H1367 H 0.08908 0.32676 0.69471 0.0
C1368 C 0.13772 0.34642 0.64347 0.0
C1369 C 0.13664 0.34042 0.60266 0.0
C1370 C 0.12064 0.35436 0.66321 0.0
C1371 C 0.1019 0.35623 0.64299 0.0
C1372 C 0.10059 0.3501 0.60234 0.0
H1373 H 0.98959 0.3852 0.77026 0.0
H1374 H 0.0174 0.369 0.73345 0.0
C1375 C 0.11781 0.3422 0.58234 0.0
C1376 C 0.08408 0.36544 0.66415 0.0
H1377 H 0.05599 0.36224 0.75084 0.0
C1378 C 0.07506 0.38316 0.64803 0.0
C1379 C 0.07667 0.3575 0.70113 0.0
C1380 C 0.08463 0.33774 0.71875 0.0
C1381 C 0.05922 0.39344 0.6684 0.0
C1382 C 0.05261 0.38612 0.70649 0.0
C1383 C 0.06128 0.3681 0.72204 0.0
C1384 C 0.03607 0.39629 0.72996 0.0
C1385 C 0.04951 0.41182 0.64853 0.0
C1386 C 0.03744 0.41699 0.74127 0.0
C1387 C 0.02137 0.42645 0.76225 0.0
C1388 C 1.0038 0.41525 0.77287 0.0
C1389 C 1.00289 0.39433 0.76279 0.0
C1390 C 0.0188 0.385 0.74157 0.0
H1391 H 0.0521 0.41184 0.61537 0.0
H1392 H 0.03278 0.41231 0.65426 0.0
H1393 H 0.05645 0.42597 0.66103 0.0
H1394 H 0.05087 0.42589 0.73365 0.0
H1395 H 0.02258 0.44256 0.76954 0.0
H1396 H 0.87601 0.73757 0.51613 0.0
H1397 H 0.89252 0.76601 0.48169 0.0
H1398 H 0.83614 0.80027 0.48564 0.0
H1399 H 0.8192 0.77147 0.51932 0.0
H1400 H 0.85364 0.80171 0.41151 0.0
H1401 H 0.91217 0.81952 0.52725 0.0
H1402 H 0.91296 0.79328 0.51143 0.0
H1403 H 0.89072 0.80292 0.53729 0.0
C1404 C 0.86712 0.75124 0.51028 0.0
C1405 C 0.84628 0.75228 0.52091 0.0
C1406 C 0.87665 0.76756 0.49063 0.0
C1407 C 0.8657 0.78544 0.48165 0.0
C1408 C 0.84493 0.78665 0.49247 0.0
H1409 H 0.91669 0.90132 0.41177 0.0
H1410 H 0.90212 0.8717 0.44537 0.0
C1411 C 0.8353 0.77023 0.51192 0.0
C1412 C 0.87579 0.80251 0.45964 0.0
H1413 H 0.91678 0.83489 0.46272 0.0
C1414 C 0.86739 0.80905 0.42278 0.0
C1415 C 0.89367 0.81217 0.47447 0.0
C1416 C 0.9028 0.80677 0.51496 0.0
C1417 C 0.87641 0.8249 0.40029 0.0
C1418 C 0.89464 0.83414 0.41455 0.0
C1419 C 0.90298 0.82761 0.45146 0.0
C1420 C 0.90442 0.8517 0.39349 0.0
C1421 C 0.86597 0.832 0.36212 0.0
C1422 C 0.91108 0.85027 0.35318 0.0
C1423 C 0.91935 0.86739 0.33351 0.0
C1424 C 0.92128 0.88616 0.35398 0.0
C1425 C 0.91535 0.8872 0.39482 0.0
C1426 C 0.907 0.87022 0.41423 0.0
H1427 H 0.84975 0.82696 0.36084 0.0
H1428 H 0.86643 0.84894 0.35954 0.0
H1429 H 0.87401 0.82542 0.33561 0.0
H1430 H 0.90973 0.83598 0.33684 0.0
H1431 H 0.92387 0.86601 0.30216 0.0
H1432 H 0.36013 0.66665 0.16175 0.0
H1433 H 0.39014 0.65306 0.19563 0.0
H1434 H 0.42546 0.66038 0.0866 0.0
H1435 H 0.39505 0.67362 0.05167 0.0
H1436 H 0.43138 0.62302 0.1208 0.0
H1437 H 0.43955 0.68264 0.23816 0.0
H1438 H 0.41433 0.67185 0.23803 0.0
H1439 H 0.42324 0.6859 0.19466 0.0
C1440 C 0.37428 0.6656 0.14484 0.0
C1441 C 0.37513 0.67129 0.10385 0.0
C1442 C 0.39151 0.65793 0.16448 0.0
C1443 C 0.41017 0.65603 0.14395 0.0
C1444 C 0.41123 0.66185 0.10312 0.0
H1445 H 0.52363 0.62722 0.26862 0.0
H1446 H 0.49568 0.64362 0.23231 0.0
C1447 C 0.39387 0.66948 0.08324 0.0
C1448 C 0.42816 0.64702 0.16493 0.0
H1449 H 0.45691 0.65093 0.25072 0.0
C1450 C 0.43712 0.62923 0.149 0.0
C1451 C 0.43582 0.65525 0.20149 0.0
C1452 C 0.42787 0.67508 0.21885 0.0
C1453 C 0.45312 0.61914 0.1692 0.0
C1454 C 0.45999 0.62674 0.20691 0.0
C1455 C 0.45141 0.64486 0.22221 0.0
C1456 C 0.47655 0.61661 0.23033 0.0
C1457 C 0.4627 0.60061 0.14959 0.0
C1458 C 0.47493 0.59605 0.24237 0.0
C1459 C 0.49102 0.58651 0.26308 0.0
C1460 C 0.5089 0.59747 0.27265 0.0
C1461 C 0.51008 0.61828 0.26192 0.0
C1462 C 0.49411 0.62772 0.241 0.0
H1463 H 0.45992 0.60035 0.11649 0.0
H1464 H 0.47947 0.60015 0.15495 0.0
H1465 H 0.45584 0.58655 0.16261 0.0
H1466 H 0.4613 0.58731 0.23547 0.0
H1467 H 0.48958 0.57049 0.27093 0.0
H1468 H 0.58923 0.14479 0.80292 0.0
H1469 H 0.60335 0.1747 0.83814 0.0
H1470 H 0.61056 0.13868 0.94632 0.0
H1471 H 0.596 0.1092 0.91221 0.0
H1472 H 0.59578 0.17532 0.96399 0.0
H1473 H 0.66315 0.1839 0.8633 0.0
H1474 H 0.63899 0.18548 0.83769 0.0
H1475 H 0.64654 0.16188 0.86131 0.0
C1476 C 0.59368 0.14332 0.8343 0.0
C1477 C 0.5916 0.12451 0.85455 0.0
C1478 C 0.60194 0.16037 0.85428 0.0
C1479 C 0.60845 0.15883 0.89466 0.0
C1480 C 0.60578 0.14026 0.91514 0.0
H1481 H 0.6927 0.23964 0.02224 0.0
H1482 H 0.67617 0.21062 0.9884 0.0
C1483 C 0.59744 0.12335 0.89543 0.0
C1484 C 0.61809 0.17635 0.91616 0.0
H1485 H 0.65891 0.20902 0.9142 0.0
C1486 C 0.60958 0.1827 0.95305 0.0
C1487 C 0.63632 0.18572 0.90232 0.0
C1488 C 0.64694 0.17881 0.8642 0.0
C1489 C 0.61873 0.19811 0.97643 0.0
C1490 C 0.6366 0.20793 0.962 0.0
C1491 C 0.64517 0.20156 0.92517 0.0
C1492 C 0.64643 0.22506 0.98429 0.0
C1493 C 0.60942 0.20331 0.01688 0.0
C1494 C 0.63523 0.24279 0.9933 0.0
C1495 C 0.64452 0.25922 0.01306 0.0
C1496 C 0.66537 0.25846 0.02377 0.0
C1497 C 0.67659 0.24066 0.01482 0.0
C1498 C 0.66719 0.22411 0.99525 0.0
H1499 H 0.60019 0.19041 0.02892 0.0
H1500 H 0.62138 0.20728 0.03938 0.0
H1501 H 0.59908 0.21666 0.01335 0.0
H1502 H 0.61937 0.24415 0.98423 0.0
H1503 H 0.63544 0.27277 0.01886 0.0
H1504 H 0.32301 0.22991 0.18155 0.0
H1505 H 0.30692 0.24373 0.2429 0.0
H1506 H 0.24749 0.227 0.197 0.0
H1507 H 0.26326 0.213 0.13647 0.0
H1508 H 0.27803 0.27548 0.24684 0.0
H1509 H 0.24559 0.20424 0.31118 0.0
H1510 H 0.26501 0.20406 0.27241 0.0
H1511 H 0.23863 0.20834 0.25939 0.0
C1512 C 0.30655 0.22889 0.18485 0.0
C1513 C 0.29448 0.22033 0.15399 0.0
C1514 C 0.29737 0.23687 0.21984 0.0
C1515 C 0.27599 0.23618 0.2248 0.0
C1516 C 0.26401 0.22735 0.19433 0.0
H1517 H 0.18858 0.28164 0.40437 0.0
H1518 H 0.20452 0.2677 0.34295 0.0
C1519 C 0.27311 0.21946 0.1595 0.0
C1520 C 0.26596 0.24564 0.2606 0.0
H1521 H 0.23339 0.23559 0.33896 0.0
C1522 C 0.26841 0.26673 0.26718 0.0
C1523 C 0.25321 0.23427 0.28691 0.0
C1524 C 0.25057 0.21144 0.28242 0.0
C1525 C 0.25821 0.2768 0.29889 0.0
C1526 C 0.24547 0.26542 0.32519 0.0
C1527 C 0.24301 0.24434 0.31861 0.0
C1528 C 0.23553 0.27487 0.36109 0.0
C1529 C 0.26088 0.29962 0.30345 0.0
C1530 C 0.24761 0.28351 0.39162 0.0
C1531 C 0.23861 0.29145 0.42649 0.0
C1532 C 0.21723 0.29084 0.43198 0.0
C1533 C 0.20505 0.28245 0.40108 0.0
C1534 C 0.21415 0.27441 0.36605 0.0
H1535 H 0.26591 0.30683 0.27474 0.0
H1536 H 0.24643 0.30701 0.31339 0.0
H1537 H 0.27278 0.30268 0.32657 0.0
H1538 H 0.26413 0.2837 0.38892 0.0
H1539 H 0.24853 0.29778 0.44954 0.0
H1540 H 0.47891 0.43993 0.65393 0.0
H1541 H 0.49365 0.45621 0.59366 0.0
H1542 H 0.47939 0.51569 0.64243 0.0
H1543 H 0.46489 0.49977 0.70239 0.0
H1544 H 0.47627 0.48386 0.53695 0.0
H1545 H 0.54086 0.51984 0.61936 0.0
H1546 H 0.52548 0.49968 0.64096 0.0
H1547 H 0.51615 0.52556 0.6402 0.0
C1548 C 0.47882 0.45646 0.65169 0.0
C1549 C 0.47092 0.4685 0.6833 0.0
C1550 C 0.48729 0.46575 0.61729 0.0
C1551 C 0.48807 0.48719 0.614 0.0
C1552 C 0.47947 0.49915 0.64476 0.0
H1553 H 0.53311 0.57378 0.43274 0.0
H1554 H 0.5184 0.55796 0.49356 0.0
C1555 C 0.47106 0.48996 0.67899 0.0
C1556 C 0.49776 0.49722 0.57852 0.0
H1557 H 0.53586 0.53039 0.55141 0.0
C1558 C 0.48937 0.49392 0.54006 0.0
C1559 C 0.51479 0.51048 0.58265 0.0
C1560 C 0.525 0.514 0.62294 0.0
C1561 C 0.49732 0.50378 0.50574 0.0
C1562 C 0.51437 0.51702 0.50986 0.0
C1563 C 0.52274 0.52034 0.54832 0.0
C1564 C 0.52418 0.52683 0.47429 0.0
C1565 C 0.48716 0.50022 0.46542 0.0
C1566 C 0.53291 0.51465 0.44403 0.0
C1567 C 0.5413 0.52359 0.40953 0.0
C1568 C 0.54129 0.54499 0.40443 0.0
C1569 C 0.53332 0.55728 0.4356 0.0
C1570 C 0.52487 0.54825 0.4703 0.0
H1571 H 0.47129 0.49439 0.46897 0.0
H1572 H 0.4867 0.51453 0.44735 0.0
H1573 H 0.49601 0.48864 0.44825 0.0
H1574 H 0.53305 0.49814 0.4469 0.0
H1575 H 0.54754 0.5136 0.38649 0.0
H1576 H 0.24868 0.79682 0.63705 0.0
H1577 H 0.26394 0.78218 0.69748 0.0
H1578 H 0.20389 0.76885 0.74448 0.0
H1579 H 0.1883 0.78326 0.6832 0.0
H1580 H 0.26035 0.79236 0.77755 0.0
H1581 H 0.23243 0.71323 0.75051 0.0
H1582 H 0.23127 0.7329 0.71233 0.0
H1583 H 0.21278 0.73243 0.75249 0.0
C1584 C 0.2386 0.79082 0.66015 0.0
C1585 C 0.21719 0.79105 0.65494 0.0
C1586 C 0.24742 0.78247 0.69481 0.0
C1587 C 0.23513 0.77406 0.72524 0.0
C1588 C 0.21371 0.77485 0.72097 0.0
H1589 H 0.2629 0.71504 0.95218 0.0
H1590 H 0.24732 0.72945 0.8918 0.0
C1591 C 0.20481 0.78325 0.6861 0.0
C1592 C 0.245 0.76443 0.76105 0.0
H1593 H 0.25062 0.71906 0.81118 0.0
C1594 C 0.25824 0.77632 0.78489 0.0
C1595 C 0.24235 0.74347 0.77047 0.0
C1596 C 0.22909 0.72966 0.74497 0.0
C1597 C 0.26861 0.76794 0.81822 0.0
C1598 C 0.26598 0.74698 0.82761 0.0
C1599 C 0.25272 0.73509 0.80383 0.0
C1600 C 0.276 0.73735 0.86325 0.0
C1601 C 0.28191 0.78173 0.84368 0.0
C1602 C 0.29743 0.73648 0.86701 0.0
C1603 C 0.30651 0.72819 0.9018 0.0
C1604 C 0.29429 0.72061 0.93341 0.0
C1605 C 0.27286 0.72088 0.92871 0.0
C1606 C 0.26386 0.7291 0.89409 0.0
H1607 H 0.27859 0.79817 0.83815 0.0
H1608 H 0.27975 0.7785 0.87633 0.0
H1609 H 0.29821 0.77895 0.83613 0.0
H1610 H 0.30713 0.74236 0.84319 0.0
H1611 H 0.32304 0.72814 0.9043 0.0
H1612 H 0.03309 0.57346 0.15443 0.0
H1613 H 0.0183 0.55753 0.09376 0.0
H1614 H 0.03434 0.49787 0.1393 0.0
H1615 H 0.04893 0.51344 0.19956 0.0
H1616 H 0.03583 0.53039 0.0351 0.0
H1617 H 0.97245 0.49317 0.11894 0.0
H1618 H 0.98769 0.51352 0.14033 0.0
H1619 H 0.99743 0.4878 0.13889 0.0
C1620 C 0.03361 0.55697 0.15133 0.0
C1621 C 0.04199 0.54476 0.18217 0.0
C1622 C 0.02511 0.54789 0.11673 0.0
C1623 C 0.02478 0.52647 0.11249 0.0
C1624 C 0.03394 0.51437 0.14237 0.0
H1625 H 0.97966 0.4393 0.93308 0.0
H1626 H 0.99446 0.45569 0.99321 0.0
C1627 C 0.04238 0.52337 0.17679 0.0
C1628 C 0.01486 0.51658 0.07708 0.0
H1629 H 0.97705 0.48293 0.05067 0.0
C1630 C 0.02289 0.52014 0.03843 0.0
C1631 C 0.99805 0.50308 0.08152 0.0
C1632 C 0.98825 0.49926 0.12209 0.0
C1633 C 0.01482 0.51025 1.00421 0.0
C1634 C 0.99802 0.49673 0.00866 0.0
C1635 C 0.98998 0.4932 0.04731 0.0
C1636 C 0.98823 0.48662 0.97333 0.0
C1637 C 0.02467 0.51403 0.96367 0.0
C1638 C 0.97924 0.4985 0.94291 0.0
C1639 C 0.9708 0.48924 0.90875 0.0
C1640 C 0.97101 0.4678 0.9042 0.0
C1641 C 0.97928 0.45582 0.93552 0.0
C1642 C 0.98779 0.46517 0.96984 0.0
H1643 H 0.04046 0.52011 0.96687 0.0
H1644 H 0.02524 0.49976 0.94548 0.0
H1645 H 0.01551 0.52549 0.9468 0.0
H1646 H 0.97891 0.51503 0.94541 0.0
H1647 H 0.96434 0.49899 0.88558 0.0
H1648 H 0.68956 0.78367 0.90225 0.0
H1649 H 0.7061 0.76916 0.84203 0.0
H1650 H 0.76533 0.78406 0.8912 0.0
H1651 H 0.74913 0.79834 0.95116 0.0
H1652 H 0.73363 0.78661 0.78537 0.0
H1653 H 0.77014 0.7226 0.86861 0.0
H1654 H 0.74982 0.73787 0.88999 0.0
H1655 H 0.77561 0.74745 0.8891 0.0
C1656 C 0.70609 0.78398 0.90009 0.0
C1657 C 0.71798 0.79197 0.93184 0.0
C1658 C 0.71553 0.77564 0.86572 0.0
C1659 C 0.73698 0.77508 0.86257 0.0
C1660 C 0.7488 0.78382 0.89341 0.0
H1661 H 0.8234 0.72915 0.68123 0.0
H1662 H 0.8078 0.74434 0.74185 0.0
C1663 C 0.73944 0.7921 0.92764 0.0
C1664 C 0.74716 0.76538 0.82721 0.0
H1665 H 0.78046 0.72729 0.80049 0.0
C1666 C 0.74378 0.77358 0.78864 0.0
C1667 C 0.76052 0.74843 0.83153 0.0
C1668 C 0.76414 0.73842 0.87197 0.0
C1669 C 0.75361 0.7655 0.75438 0.0
C1670 C 0.7669 0.74851 0.75868 0.0
C1671 C 0.77036 0.74036 0.79726 0.0
C1672 C 0.7766 0.73848 0.72316 0.0
C1673 C 0.74992 0.77545 0.71391 0.0
C1674 C 0.76431 0.72957 0.69328 0.0
C1675 C 0.77312 0.72091 0.6589 0.0
C1676 C 0.79451 0.72082 0.65352 0.0
C1677 C 0.80691 0.72901 0.6843 0.0
C1678 C 0.79801 0.73774 0.71889 0.0
H1679 H 0.74411 0.79134 0.71723 0.0
H1680 H 0.76416 0.7758 0.69563 0.0
H1681 H 0.73827 0.76651 0.69707 0.0
H1682 H 0.7478 0.72948 0.69638 0.0
H1683 H 0.76304 0.71451 0.63618 0.0
H1684 H 0.74809 0.2976 0.13737 0.0
H1685 H 0.76322 0.28307 0.19807 0.0
H1686 H 0.70304 0.27034 0.24511 0.0
H1687 H 0.68759 0.28463 0.18362 0.0
H1688 H 0.75961 0.29341 0.2782 0.0
H1689 H 0.73109 0.21448 0.2513 0.0
H1690 H 0.73014 0.23412 0.21305 0.0
H1691 H 0.7116 0.23384 0.25312 0.0
C1692 C 0.73796 0.29177 0.16056 0.0
C1693 C 0.71656 0.29211 0.1553 0.0
C1694 C 0.74669 0.28348 0.19537 0.0
C1695 C 0.73432 0.27525 0.22585 0.0
C1696 C 0.71292 0.2762 0.22156 0.0
H1697 H 0.76214 0.21576 0.45269 0.0
H1698 H 0.74635 0.23043 0.39271 0.0
C1699 C 0.7041 0.28453 0.18655 0.0
C1700 C 0.74407 0.26559 0.26172 0.0
H1701 H 0.74932 0.2202 0.31194 0.0
C1702 C 0.75737 0.2774 0.28558 0.0
C1703 C 0.74125 0.24465 0.27119 0.0
C1704 C 0.7279 0.23093 0.24569 0.0
C1705 C 0.76766 0.26896 0.31895 0.0
C1706 C 0.76487 0.24802 0.32835 0.0
C1707 C 0.75153 0.23622 0.30459 0.0
C1708 C 0.77495 0.23828 0.36379 0.0
C1709 C 0.78105 0.28267 0.34439 0.0
C1710 C 0.79639 0.23731 0.36716 0.0
C1711 C 0.80557 0.22889 0.40169 0.0
C1712 C 0.79346 0.22125 0.43341 0.0
C1713 C 0.77201 0.22163 0.42911 0.0
C1714 C 0.76289 0.23 0.39473 0.0
H1715 H 0.77775 0.29912 0.33902 0.0
H1716 H 0.77897 0.27937 0.37703 0.0
H1717 H 0.79733 0.27986 0.33663 0.0
H1718 H 0.80601 0.24321 0.34324 0.0
H1719 H 0.82211 0.22875 0.40387 0.0
H1720 H 0.04778 0.01335 0.88801 0.0
H1721 H 0.03325 0.99778 0.94826 0.0
H1722 H 0.01777 0.0575 0.99443 0.0
H1723 H 0.03206 0.07338 0.93337 0.0
H1724 H 0.04254 1.00183 0.02881 0.0
H1725 H 0.96294 0.02738 0.9984 0.0
H1726 H 0.98296 0.02901 0.96099 0.0
H1727 H 0.98152 0.0476 1.00089 0.0
C1728 C 0.04134 0.02329 0.91091 0.0
C1729 C 0.0409 0.04468 0.90551 0.0
C1730 C 0.03306 0.0143 0.94547 0.0
C1731 C 0.02406 0.0264 0.97556 0.0
C1732 C 0.02424 0.04781 0.97116 0.0
H1733 H 0.96363 0.9983 0.20059 0.0
H1734 H 0.97821 0.01383 0.14033 0.0
C1735 C 0.03257 0.05689 0.93642 0.0
C1736 C 0.01437 0.01634 0.01108 0.0
H1737 H 0.96869 0.00969 0.05964 0.0
C1738 C 0.02639 1.00353 0.03554 0.0
C1739 C 0.99325 0.01843 0.01967 0.0
C1740 C 0.97932 0.03119 0.99346 0.0
C1741 C 0.01798 0.99308 0.06875 0.0
C1742 C 0.99687 0.99519 0.07736 0.0
C1743 C 0.98485 0.00799 0.0529 0.0
C1744 C 0.98719 0.98517 0.11292 0.0
C1745 C 0.03189 0.9803 0.09494 0.0
C1746 C 0.98688 0.96375 0.11726 0.0
C1747 C 0.97851 0.9547 0.152 0.0
C1748 C 0.97028 0.96695 0.18295 0.0
C1749 C 0.96999 0.98834 0.17764 0.0
C1750 C 0.9783 0.9973 0.14308 0.0
H1751 H 0.04829 0.98402 0.08989 0.0
H1752 H 0.02831 0.98255 0.12742 0.0
H1753 H 0.02961 0.96388 0.08763 0.0
H1754 H 0.99327 0.95404 0.09394 0.0
H1755 H 0.9789 0.9382 0.15499 0.0
H1756 H 0.53342 0.07317 0.65474 0.0
H1757 H 0.51868 0.05727 0.59398 0.0
H1758 H 0.53401 0.99754 0.64009 0.0
H1759 H 0.54851 0.01307 0.70047 0.0
H1760 H 0.53599 0.03018 0.53566 0.0
H1761 H 0.47237 0.99298 0.61872 0.0
H1762 H 0.48768 0.01316 0.64047 0.0
H1763 H 0.49726 0.98738 0.63884 0.0
C1764 C 0.53378 0.05667 0.65177 0.0
C1765 C 0.54193 0.04442 0.68279 0.0
C1766 C 0.5253 0.0476 0.6171 0.0
C1767 C 0.52479 0.02618 0.61297 0.0
C1768 C 0.53372 0.01405 0.64307 0.0
H1769 H 0.47999 0.93943 0.43211 0.0
H1770 H 0.4948 0.95557 0.49251 0.0
C1771 C 0.54212 0.02302 0.67755 0.0
C1772 C 0.51495 0.01632 0.57742 0.0
H1773 H 0.47718 0.98271 0.5505 0.0
C1774 C 0.52304 0.01993 0.53884 0.0
C1775 C 0.49811 1.00281 0.58164 0.0
C1776 C 0.4882 0.99896 0.62208 0.0
C1777 C 0.51503 0.0101 0.5045 0.0
C1778 C 0.49823 0.99656 0.50873 0.0
C1779 C 0.49012 0.99298 0.5473 0.0
C1780 C 0.48846 0.98658 0.47324 0.0
C1781 C 0.52493 0.01396 0.46404 0.0
C1782 C 0.47941 0.99858 0.44307 0.0
C1783 C 0.47095 0.98945 0.40878 0.0
C1784 C 0.47122 0.96803 0.40381 0.0
C1785 C 0.47957 0.95594 0.43486 0.0
C1786 C 0.48808 0.96515 0.46934 0.0
H1787 H 0.5407 0.02008 0.46736 0.0
H1788 H 0.52556 0.99972 0.44576 0.0
H1789 H 0.51576 0.02542 0.44718 0.0
H1790 H 0.47903 0.01509 0.44588 0.0
H1791 H 0.46444 0.9993 0.38583 0.0
H1792 H 0.23644 0.32456 0.68167 0.0
H1793 H 0.25292 0.30673 0.7384 0.0
H1794 H 0.20965 0.25725 0.72691 0.0
H1795 H 0.19335 0.27479 0.67024 0.0
H1796 H 0.23869 0.28846 0.8142 0.0
H1797 H 0.26638 0.23108 0.70296 0.0
H1798 H 0.25603 0.25556 0.6881 0.0
H1799 H 0.23919 0.23518 0.70294 0.0
C1800 C 0.23003 0.31025 0.69229 0.0
C1801 C 0.21373 0.30096 0.67159 0.0
C1802 C 0.23954 0.3 0.72436 0.0
C1803 C 0.23279 0.28046 0.73597 0.0
C1804 C 0.21533 0.27212 0.71776 0.0
H1805 H 0.27574 0.18769 0.90361 0.0
H1806 H 0.25912 0.20559 0.84713 0.0
C1807 C 0.20594 0.28223 0.68569 0.0
C1808 C 0.24481 0.26801 0.76477 0.0
H1809 H 0.27296 0.22406 0.77196 0.0
C1810 C 0.24627 0.27444 0.80501 0.0
C1811 C 0.25463 0.2497 0.75253 0.0
C1812 C 0.25418 0.2425 0.70922 0.0
C1813 C 0.257 0.26281 0.83365 0.0
C1814 C 0.26685 0.24452 0.8214 0.0
C1815 C 0.26538 0.23808 0.78116 0.0
C1816 C 0.27893 0.2321 0.85015 0.0
C1817 C 0.2574 0.27 0.87698 0.0
C1818 C 0.29626 0.24056 0.86864 0.0
C1819 C 0.30572 0.23041 0.90058 0.0
C1820 C 0.29816 0.21151 0.91424 0.0
C1821 C 0.28199 0.20212 0.89329 0.0
C1822 C 0.27239 0.21241 0.86137 0.0
H1823 H 0.24508 0.28128 0.88326 0.0
H1824 H 0.2557 0.25691 0.8981 0.0
H1825 H 0.2723 0.2775 0.88323 0.0
H1826 H 0.3018 0.25552 0.85978 0.0
H1827 H 0.31819 0.23793 0.91627 0.0
H1828 H 0.43559 0.48421 0.93413 0.0
H1829 H 0.45251 0.50089 0.99167 0.0
H1830 H 0.50491 0.46151 0.97623 0.0
H1831 H 0.48806 0.44469 0.91942 0.0
H1832 H 0.49556 0.46953 0.05736 0.0
H1833 H 0.49972 0.54062 0.9654 0.0
H1834 H 0.47442 0.53068 0.97364 0.0
H1835 H 0.49243 0.51625 0.94416 0.0
C1836 C 0.45038 0.47865 0.94401 0.0
C1837 C 0.46059 0.46326 0.92229 0.0
C1838 C 0.46015 0.48837 0.97645 0.0
C1839 C 0.48017 0.48276 0.98743 0.0
C1840 C 0.48955 0.46619 0.96799 0.0
H1841 H 0.57451 0.5271 0.15261 0.0
H1842 H 0.5571 0.51041 0.09565 0.0
C1843 C 0.47988 0.45656 0.93564 0.0
C1844 C 0.49214 0.495 0.01676 0.0
H1845 H 0.51396 0.54198 0.03084 0.0
C1846 C 0.49958 0.48538 0.05165 0.0
C1847 C 0.49754 0.51559 0.00886 0.0
C1848 C 0.4908 0.52641 0.97085 0.0
C1849 C 0.51197 0.49592 0.07934 0.0
C1850 C 0.51739 0.51651 0.07142 0.0
C1851 C 0.50993 0.52614 0.03656 0.0
C1852 C 0.52956 0.52868 0.10053 0.0
C1853 C 0.51874 0.4851 0.11732 0.0
C1854 C 0.52037 0.5453 0.12015 0.0
C1855 C 0.53031 0.55493 0.15219 0.0
C1856 C 0.54968 0.54818 0.16503 0.0
C1857 C 0.55966 0.5327 0.14313 0.0
C1858 C 0.54962 0.52298 0.11103 0.0
H1859 H 0.50976 0.47094 0.12289 0.0
H1860 H 0.53509 0.48074 0.11439 0.0
H1861 H 0.51723 0.49529 0.144 0.0
H1862 H 0.50499 0.55005 0.11228 0.0
H1863 H 0.52231 0.56688 0.16852 0.0
H1864 H 0.23719 0.82573 0.4061 0.0
H1865 H 0.25375 0.8084 0.34903 0.0
H1866 H 0.21081 0.75853 0.35924 0.0
H1867 H 0.19451 0.77557 0.41647 0.0
H1868 H 0.25118 0.74625 0.36479 0.0
H1869 H 0.23947 0.79616 0.23104 0.0
H1870 H 0.2494 0.80901 0.27482 0.0
H1871 H 0.22408 0.79831 0.27615 0.0
C1872 C 0.23081 0.81149 0.39505 0.0
C1873 C 0.21459 0.80197 0.41553 0.0
C1874 C 0.24033 0.80154 0.36258 0.0
C1875 C 0.23351 0.78215 0.34998 0.0
C1876 C 0.21634 0.77344 0.36858 0.0
H1877 H 0.27611 0.68857 0.18394 0.0
H1878 H 0.26003 0.70645 0.24082 0.0
C1879 C 0.20697 0.78324 0.40106 0.0
C1880 C 0.2455 0.76986 0.32075 0.0
H1881 H 0.26298 0.76876 0.22378 0.0
C1882 C 0.25371 0.75111 0.33387 0.0
C1883 C 0.24885 0.77631 0.28061 0.0
C1884 C 0.23986 0.79596 0.26458 0.0
C1885 C 0.26536 0.73872 0.30799 0.0
C1886 C 0.26864 0.74513 0.26779 0.0
C1887 C 0.26049 0.76391 0.25472 0.0
C1888 C 0.28032 0.73264 0.2384 0.0
C1889 C 0.27437 0.7191 0.32412 0.0
C1890 C 0.29734 0.74117 0.21891 0.0
C1891 C 0.30643 0.73105 0.18649 0.0
C1892 C 0.2987 0.71218 0.17298 0.0
C1893 C 0.2826 0.70291 0.19426 0.0
C1894 C 0.27336 0.71316 0.22663 0.0
H1895 H 0.27515 0.71914 0.35764 0.0
H1896 H 0.26457 0.70607 0.31475 0.0
H1897 H 0.28998 0.7165 0.31192 0.0
H1898 H 0.30298 0.75614 0.22757 0.0
H1899 H 0.31879 0.73855 0.17044 0.0
H1900 H 0.07492 0.52794 0.43577 0.0
H1901 H 0.05774 0.51113 0.49283 0.0
H1902 H 1.00428 0.54856 0.47328 0.0
H1903 H 0.02134 0.56549 0.41692 0.0
H1904 H 0.01309 0.54164 0.55533 0.0
H1905 H 0.01202 0.46966 0.46562 0.0
H1906 H 0.0369 0.4805 0.47439 0.0
H1907 H 0.0187 0.49408 0.44384 0.0
C1908 C 0.05979 0.53303 0.4446 0.0
C1909 C 0.04938 0.54788 0.42184 0.0
C1910 C 0.04989 0.52325 0.47677 0.0
C1911 C 0.02956 0.52827 0.48649 0.0
C1912 C 0.01988 0.54433 0.466 0.0
H1913 H 0.93592 0.48228 0.65155 0.0
H1914 H 0.95275 0.49893 0.59392 0.0
C1915 C 0.02967 0.55401 0.43389 0.0
C1916 C 0.01766 0.51594 0.51571 0.0
H1917 H 0.99731 0.4684 0.53069 0.0
C1918 C 0.00963 0.52563 0.55003 0.0
C1919 C 0.013 0.49512 0.50832 0.0
C1920 C 0.02043 0.4842 0.47091 0.0
C1921 C 0.9974 0.51492 0.57771 0.0
C1922 C 0.99274 0.49409 0.57033 0.0
C1923 C 1.00076 0.48441 0.53598 0.0
C1924 C 0.98093 0.48173 0.59966 0.0
C1925 C 0.99003 0.52584 0.61517 0.0
C1926 C 0.99068 0.46565 0.61994 0.0
C1927 C 0.98107 0.45605 0.65235 0.0
C1928 C 0.96149 0.46228 0.66492 0.0
C1929 C 0.95096 0.47711 0.64232 0.0
C1930 C 0.96067 0.48681 0.60982 0.0
H1931 H 0.99846 0.54036 0.62045 0.0
H1932 H 0.97355 0.52957 0.61176 0.0
H1933 H 0.99177 0.51595 0.64222 0.0
H1934 H 0.00624 0.46138 0.61233 0.0
H1935 H 0.98949 0.44459 0.66921 0.0
H1936 H 0.73144 0.82305 0.18679 0.0
H1937 H 0.7477 0.80529 0.2438 0.0
H1938 H 0.71003 0.75228 0.2215 0.0
H1939 H 0.6937 0.7699 0.16501 0.0
H1940 H 0.71682 0.76101 0.30502 0.0
H1941 H 0.7886 0.75878 0.21484 0.0
H1942 H 0.77799 0.78379 0.22344 0.0
H1943 H 0.7642 0.76563 0.19313 0.0
C1944 C 0.72616 0.8079 0.19501 0.0
C1945 C 0.71144 0.79777 0.17143 0.0
C1946 C 0.73562 0.79768 0.22718 0.0
C1947 C 0.73037 0.77732 0.23612 0.0
C1948 C 0.71441 0.76791 0.21484 0.0
H1949 H 0.77586 0.68399 0.40349 0.0
H1950 H 0.75873 0.70048 0.34598 0.0
C1951 C 0.70507 0.77802 0.18267 0.0
C1952 C 0.74249 0.7651 0.26519 0.0
H1953 H 0.78977 0.7441 0.27991 0.0
C1954 C 0.73277 0.75729 0.29963 0.0
C1955 C 0.76321 0.7601 0.25765 0.0
C1956 C 0.77415 0.76733 0.22012 0.0
C1957 C 0.74339 0.74502 0.32742 0.0
C1958 C 0.76415 0.74006 0.31995 0.0
C1959 C 0.77381 0.74778 0.28533 0.0
C1960 C 0.77654 0.72837 0.34949 0.0
C1961 C 0.73248 0.73802 0.36514 0.0
C1962 C 0.79309 0.73801 0.36849 0.0
C1963 C 0.803 0.72857 0.40075 0.0
C1964 C 0.79659 0.70927 0.41454 0.0
C1965 C 0.78118 0.69882 0.3933 0.0
C1966 C 0.7712 0.70834 0.3609 0.0
H1967 H 0.71814 0.74674 0.37046 0.0
H1968 H 0.72844 0.7216 0.36204 0.0
H1969 H 0.74249 0.7397 0.39205 0.0
H1970 H 0.79759 0.75337 0.35992 0.0
H1971 H 0.8149 0.73693 0.41652 0.0
H1972 H 0.81833 0.2385 0.66973 0.0
H1973 H 0.80222 0.25552 0.72717 0.0
H1974 H 0.76118 0.20432 0.74146 0.0
H1975 H 0.77754 0.18703 0.68413 0.0
H1976 H 0.76122 0.26623 0.72311 0.0
H1977 H 0.77675 0.21836 0.85824 0.0
H1978 H 0.79165 0.21639 0.81247 0.0
H1979 H 0.76686 0.20461 0.81548 0.0
C1980 C 0.80636 0.23056 0.68607 0.0
C1981 C 0.79919 0.21144 0.67268 0.0
C1982 C 0.79709 0.24035 0.71867 0.0
C1983 C 0.78049 0.23122 0.73848 0.0
C1984 C 0.77418 0.2115 0.72695 0.0
H1985 H 0.69502 0.27263 0.91902 0.0
H1986 H 0.71132 0.25538 0.86205 0.0
C1987 C 0.78358 0.20158 0.69435 0.0
C1988 C 0.76845 0.24338 0.76781 0.0
H1989 H 0.75212 0.24477 0.86554 0.0
C1990 C 0.75929 0.26161 0.75434 0.0
C1991 C 0.7659 0.23724 0.80836 0.0
C1992 C 0.77594 0.21818 0.82473 0.0
C1993 C 0.74742 0.27376 0.78027 0.0
C1994 C 0.74489 0.26763 0.82084 0.0
C1995 C 0.75404 0.2494 0.83431 0.0
C1996 C 0.73284 0.2798 0.85017 0.0
C1997 C 0.73734 0.29278 0.76383 0.0
C1998 C 0.73899 0.29964 0.86126 0.0
C1999 C 0.72947 0.30969 0.89358 0.0
C2000 C 0.71393 0.29983 0.91546 0.0
C2001 C 0.70697 0.28055 0.90257 0.0
C2002 C 0.71633 0.27064 0.87022 0.0
H2003 H 0.73638 0.29248 0.73033 0.0
H2004 H 0.72168 0.29465 0.77631 0.0
H2005 H 0.7465 0.30636 0.77271 0.0
H2006 H 0.75191 0.30685 0.84656 0.0
H2007 H 0.73534 0.32438 0.90336 0.0
H2008 H 0.93683 0.9862 0.4327 0.0
H2009 H 0.95461 1.00284 0.48934 0.0
H2010 H 1.00451 0.96007 0.47739 0.0
H2011 H 0.98703 0.94363 0.4208 0.0
H2012 H 0.97302 0.98869 0.56493 0.0
H2013 H 0.0302 0.01702 0.45406 0.0
H2014 H 0.00581 0.00649 0.43906 0.0
H2015 H 0.02636 0.9898 0.45376 0.0
C2016 C 0.95123 0.97993 0.44319 0.0
C2017 C 0.96064 0.96372 0.42241 0.0
C2018 C 0.96145 0.98954 0.47521 0.0
C2019 C 0.98109 0.98297 0.48669 0.0
C2020 C 0.98958 0.96562 0.46834 0.0
H2021 H 0.0737 0.02566 0.6549 0.0
H2022 H 0.05579 0.00921 0.59818 0.0
C2023 C 0.97949 0.95614 0.43632 0.0
C2024 C 0.99344 0.99504 0.5156 0.0
H2025 H 0.03727 0.02335 0.52318 0.0
C2026 C 0.987 0.99636 0.55585 0.0
C2027 C 0.0117 1.00498 0.50349 0.0
C2028 C 0.01889 1.0047 0.46018 0.0
C2029 C 0.99859 0.00706 0.58463 0.0
C2030 C 0.01685 0.017 0.57253 0.0
C2031 C 0.02328 0.01569 0.53227 0.0
C2032 C 0.02926 0.02899 0.60148 0.0
C2033 C 0.99141 0.00729 0.62796 0.0
C2034 C 0.02078 0.04624 0.62022 0.0
C2035 C 0.03093 0.0556 0.65229 0.0
C2036 C 0.04985 0.04801 0.66585 0.0
C2037 C 0.05924 0.03193 0.64468 0.0
C2038 C 0.04895 0.02243 0.61261 0.0
H2039 H 0.98014 0.99494 0.63406 0.0
H2040 H 1.0045 1.00553 0.64906 0.0
H2041 H 0.9839 0.02217 0.63441 0.0
H2042 H 0.00581 0.05179 0.61143 0.0
H2043 H 0.0234 0.06801 0.66814 0.0
H2044 H 0.57387 0.02546 0.93332 0.0
H2045 H 0.55572 0.00891 0.98952 0.0
H2046 H 0.50587 0.05162 0.97607 0.0
H2047 H 0.52373 0.068 0.91988 0.0
H2048 H 0.53705 0.02307 0.06438 0.0
H2049 H 0.4802 0.99475 0.95272 0.0
H2050 H 0.50462 1.00531 0.93804 0.0
H2051 H 0.48403 0.02198 0.9526 0.0
C2052 C 0.55938 0.03173 0.94336 0.0
C2053 C 0.55011 0.0479 0.92226 0.0
C2054 C 0.54896 0.02217 0.97513 0.0
C2055 C 0.52925 0.02875 0.98606 0.0
C2056 C 0.52087 0.04606 0.96741 0.0
H2057 H 0.43675 0.98581 0.15412 0.0
H2058 H 0.45443 1.00232 0.09727 0.0
C2059 C 0.53116 0.05549 0.93563 0.0
C2060 C 0.51677 0.01674 0.01479 0.0
H2061 H 0.47301 0.98828 0.0217 0.0
C2062 C 0.52311 0.01539 0.05509 0.0
C2063 C 0.49856 0.00676 1.00241 0.0
C2064 C 0.49148 0.00707 0.95902 0.0
C2065 C 0.51149 1.0046 0.08366 0.0
C2066 C 0.49331 0.9946 0.07127 0.0
C2067 C 0.48695 0.99597 0.03098 0.0
C2068 C 0.48093 0.98248 0.09999 0.0
C2069 C 0.51859 1.00429 0.12704 0.0
C2070 C 0.48945 0.96517 0.11839 0.0
C2071 C 0.47942 0.95577 0.15054 0.0
C2072 C 0.4606 0.9634 0.1645 0.0
C2073 C 0.45113 0.97952 0.14359 0.0
C2074 C 0.46129 0.98905 0.11144 0.0
H2075 H 0.52983 0.01664 0.13337 0.0
H2076 H 0.50545 0.006 0.14804 0.0
H2077 H 0.52609 0.9894 0.13343 0.0
H2078 H 0.50439 0.95963 0.10936 0.0
H2079 H 0.48701 0.94334 0.16619 0.0
loop_
_geom_bond_atom_site_label_1
_geom_bond_atom_site_label_2
_geom_bond_distance
_geom_bond_site_symmetry_2
_ccdc_geom_bond_type
Fe0 O2 1.918 . S
Fe0 O5 1.997 . S
Fe0 O6 2.002 1_554 S
Fe0 O11 1.976 . S
Fe0 O14 1.996 . S
Fe1 O2 1.918 1_556 S
Fe1 O9 1.997 . S
Fe1 O12 1.996 . S
Fe1 O16 1.976 1_556 S
Fe1 O19 2.002 . S
O2 Fe0 1.918 . S
O2 Fe1 1.918 1_554 S
O2 Fe3 1.918 . S
Fe3 O2 1.918 . S
Fe3 O4 2.002 . S
Fe3 O13 1.976 . S
Fe3 O17 1.996 . S
Fe3 O20 1.997 . S
O4 Fe3 2.002 . S
O4 C21 1.295 . S
O5 Fe0 1.997 . S
O5 C21 1.235 . S
O6 Fe0 2.002 1_556 S
O6 C7 1.295 . S
C7 O6 1.295 . S
C7 O9 1.235 . S
C8 O13 1.287 . S
C8 O14 1.255 . S
O9 Fe1 1.997 . S
O9 C7 1.235 . S
C10 O16 1.287 . S
C10 O17 1.255 . S
O11 Fe0 1.976 . S
O11 C18 1.287 . S
O12 Fe1 1.996 . S
O12 C18 1.255 1_556 S
O13 Fe3 1.976 . S
O13 C8 1.287 . S
O14 Fe0 1.996 . S
O14 C8 1.255 . S
C15 O19 1.295 . S
C15 O20 1.235 1_556 S
O16 Fe1 1.976 1_554 S
O16 C10 1.287 . S
O17 Fe3 1.996 . S
O17 C10 1.255 . S
C18 O11 1.287 . S
C18 O12 1.255 1_554 S
O19 Fe1 2.002 . S
O19 C15 1.295 . S
O20 Fe3 1.997 . S
O20 C15 1.235 1_554 S
C21 O4 1.295 . S
C21 O5 1.235 . S
Fe22 O24 1.918 . S
Fe22 O27 1.997 . S
Fe22 O28 2.002 . S
Fe22 O33 1.976 . S
Fe22 O36 1.996 . S
Fe23 O24 1.918 . S
Fe23 O31 1.997 . S
Fe23 O34 1.996 . S
Fe23 O38 1.976 . S
Fe23 O41 2.002 . S
O24 Fe22 1.918 . S
O24 Fe23 1.918 . S
O24 Fe25 1.918 . S
Fe25 O24 1.918 . S
Fe25 O26 2.002 . S
Fe25 O35 1.976 . S
Fe25 O39 1.996 . S
Fe25 O42 1.997 . S
O26 Fe25 2.002 . S
O26 C43 1.295 . S
O27 Fe22 1.997 . S
O27 C43 1.235 . S
O28 Fe22 2.002 . S
O28 C29 1.295 . S
C29 O28 1.295 . S
C29 O31 1.235 . S
C30 O35 1.287 . S
C30 O36 1.255 . S
O31 Fe23 1.997 . S
O31 C29 1.235 . S
C32 O38 1.287 . S
C32 O39 1.255 . S
O33 Fe22 1.976 . S
O33 C40 1.287 . S
O34 Fe23 1.996 . S
O34 C40 1.255 . S
O35 Fe25 1.976 . S
O35 C30 1.287 . S
O36 Fe22 1.996 . S
O36 C30 1.255 . S
C37 O41 1.295 . S
C37 O42 1.235 . S
O38 Fe23 1.976 . S
O38 C32 1.287 . S
O39 Fe25 1.996 . S
O39 C32 1.255 . S
C40 O33 1.287 . S
C40 O34 1.255 . S
O41 Fe23 2.002 . S
O41 C37 1.295 . S
O42 Fe25 1.997 . S
O42 C37 1.235 . S
C43 O26 1.295 . S
C43 O27 1.235 . S
Fe44 O46 1.918 . S
Fe44 O49 1.997 . S
Fe44 O50 2.002 . S
Fe44 O55 1.976 . S
Fe44 O58 1.996 . S
Fe45 O46 1.918 . S
Fe45 O53 1.997 . S
Fe45 O56 1.996 . S
Fe45 O60 1.976 . S
Fe45 O63 2.002 . S
O46 Fe44 1.918 . S
O46 Fe45 1.918 . S
O46 Fe47 1.918 . S
Fe47 O46 1.918 . S
Fe47 O48 2.002 . S
Fe47 O57 1.976 . S
Fe47 O61 1.996 . S
Fe47 O64 1.997 . S
O48 Fe47 2.002 . S
O48 C65 1.295 . S
O49 Fe44 1.997 . S
O49 C65 1.235 . S
O50 Fe44 2.002 . S
O50 C51 1.295 . S
C51 O50 1.295 . S
C51 O53 1.235 . S
C52 O57 1.287 . S
C52 O58 1.255 . S
O53 Fe45 1.997 . S
O53 C51 1.235 . S
C54 O60 1.287 . S
C54 O61 1.255 . S
O55 Fe44 1.976 . S
O55 C62 1.287 . S
O56 Fe45 1.996 . S
O56 C62 1.255 . S
O57 Fe47 1.976 . S
O57 C52 1.287 . S
O58 Fe44 1.996 . S
O58 C52 1.255 . S
C59 O63 1.295 . S
C59 O64 1.235 . S
O60 Fe45 1.976 . S
O60 C54 1.287 . S
O61 Fe47 1.996 . S
O61 C54 1.255 . S
C62 O55 1.287 . S
C62 O56 1.255 . S
O63 Fe45 2.002 . S
O63 C59 1.295 . S
O64 Fe47 1.997 . S
O64 C59 1.235 . S
C65 O48 1.295 . S
C65 O49 1.235 . S
Fe66 O68 1.918 . S
Fe66 O71 1.997 . S
Fe66 O72 2.002 . S
Fe66 O77 1.976 . S
Fe66 O80 1.996 . S
Fe67 O68 1.918 . S
Fe67 O75 1.997 . S
Fe67 O78 1.996 . S
Fe67 O82 1.976 . S
Fe67 O85 2.002 . S
O68 Fe66 1.918 . S
O68 Fe67 1.918 . S
O68 Fe69 1.918 . S
Fe69 O68 1.918 . S
Fe69 O70 2.002 . S
Fe69 O79 1.976 . S
Fe69 O83 1.996 . S
Fe69 O86 1.997 . S
O70 Fe69 2.002 . S
O70 C87 1.295 . S
O71 Fe66 1.997 . S
O71 C87 1.235 . S
O72 Fe66 2.002 . S
O72 C73 1.295 . S
C73 O72 1.295 . S
C73 O75 1.235 . S
C74 O79 1.287 . S
C74 O80 1.255 . S
O75 Fe67 1.997 . S
O75 C73 1.235 . S
C76 O82 1.287 . S
C76 O83 1.255 . S
O77 Fe66 1.976 . S
O77 C84 1.287 . S
O78 Fe67 1.996 . S
O78 C84 1.255 . S
O79 Fe69 1.976 . S
O79 C74 1.287 . S
O80 Fe66 1.996 . S
O80 C74 1.255 . S
C81 O85 1.295 . S
C81 O86 1.235 . S
O82 Fe67 1.976 . S
O82 C76 1.287 . S
O83 Fe69 1.996 . S
O83 C76 1.255 . S
C84 O77 1.287 . S
C84 O78 1.255 . S
O85 Fe67 2.002 . S
O85 C81 1.295 . S
O86 Fe69 1.997 . S
O86 C81 1.235 . S
C87 O70 1.295 . S
C87 O71 1.235 . S
Fe88 O90 1.918 . S
Fe88 O93 1.997 . S
Fe88 O94 2.002 . S
Fe88 O99 1.976 . S
Fe88 O102 1.996 . S
Fe89 O90 1.918 . S
Fe89 O97 1.997 . S
Fe89 O100 1.987 1_554 S
Fe89 O104 1.976 1_554 S
Fe89 O107 2.002 . S
O90 Fe88 1.918 . S
O90 Fe89 1.918 . S
O90 Fe91 1.918 . S
Fe91 O90 1.918 . S
Fe91 O92 2.002 . S
Fe91 O101 1.976 . S
Fe91 O105 1.996 . S
Fe91 O108 1.997 . S
O92 Fe91 2.002 . S
O92 C109 1.295 . S
O93 Fe88 1.997 . S
O93 C109 1.235 . S
O94 Fe88 2.002 . S
O94 C95 1.295 . S
C95 O94 1.295 . S
C95 O97 1.235 . S
C96 O101 1.287 . S
C96 O102 1.255 . S
O97 Fe89 1.997 . S
O97 C95 1.235 . S
C98 O104 1.287 . S
C98 O105 1.255 1_556 S
O99 Fe88 1.976 . S
O99 C106 1.287 . S
O100 Fe89 1.987 1_556 S
O100 C106 1.246 1_556 S
O101 Fe91 1.976 . S
O101 C96 1.287 . S
O102 Fe88 1.996 . S
O102 C96 1.255 . S
C103 O107 1.295 . S
C103 O108 1.235 . S
O104 Fe89 1.976 1_556 S
O104 C98 1.287 . S
O105 Fe91 1.996 . S
O105 C98 1.255 1_554 S
C106 O99 1.287 . S
C106 O100 1.246 1_554 S
O107 Fe89 2.002 . S
O107 C103 1.295 . S
O108 Fe91 1.997 . S
O108 C103 1.235 . S
C109 O92 1.295 . S
C109 O93 1.235 . S
Fe110 O112 1.918 . S
Fe110 O115 1.997 . S
Fe110 O116 2.002 . S
Fe110 O121 1.976 . S
Fe110 O124 1.996 . S
Fe111 O112 1.918 . S
Fe111 O119 1.997 . S
Fe111 O122 1.996 . S
Fe111 O126 1.976 . S
Fe111 O129 2.002 . S
O112 Fe110 1.918 . S
O112 Fe111 1.918 . S
O112 Fe113 1.918 . S
Fe113 O112 1.918 . S
Fe113 O114 2.002 . S
Fe113 O123 1.976 . S
Fe113 O127 1.996 . S
Fe113 O130 1.997 . S
O114 Fe113 2.002 . S
O114 C131 1.295 . S
O115 Fe110 1.997 . S
O115 C131 1.235 . S
O116 Fe110 2.002 . S
O116 C117 1.295 . S
C117 O116 1.295 . S
C117 O119 1.235 . S
C118 O123 1.287 . S
C118 O124 1.255 . S
O119 Fe111 1.997 . S
O119 C117 1.235 . S
C120 O126 1.287 . S
C120 O127 1.255 . S
O121 Fe110 1.976 . S
O121 C128 1.287 . S
O122 Fe111 1.996 . S
O122 C128 1.255 . S
O123 Fe113 1.976 . S
O123 C118 1.287 . S
O124 Fe110 1.996 . S
O124 C118 1.255 . S
C125 O129 1.295 . S
C125 O130 1.235 . S
O126 Fe111 1.976 . S
O126 C120 1.287 . S
O127 Fe113 1.996 . S
O127 C120 1.255 . S
C128 O121 1.287 . S
C128 O122 1.255 . S
O129 Fe111 2.002 . S
O129 C125 1.295 . S
O130 Fe113 1.997 . S
O130 C125 1.235 . S
C131 O114 1.295 . S
C131 O115 1.235 . S
Fe132 O134 1.918 . S
Fe132 O137 1.997 . S
Fe132 O138 2.002 . S
Fe132 O143 1.976 . S
Fe132 O146 1.996 . S
Fe133 O134 1.918 . S
Fe133 O141 1.997 . S
Fe133 O144 1.996 . S
Fe133 O148 1.976 . S
Fe133 O151 2.002 . S
O134 Fe132 1.918 . S
O134 Fe133 1.918 . S
O134 Fe135 1.918 . S
Fe135 O134 1.918 . S
Fe135 O136 2.002 . S
Fe135 O145 1.976 . S
Fe135 O149 1.996 . S
Fe135 O152 1.997 . S
O136 Fe135 2.002 . S
O136 C153 1.295 . S
O137 Fe132 1.997 . S
O137 C153 1.235 . S
O138 Fe132 2.002 . S
O138 C139 1.295 . S
C139 O138 1.295 . S
C139 O141 1.235 . S
C140 O145 1.287 . S
C140 O146 1.255 . S
O141 Fe133 1.997 . S
O141 C139 1.235 . S
C142 O148 1.287 . S
C142 O149 1.255 . S
O143 Fe132 1.976 . S
O143 C150 1.287 . S
O144 Fe133 1.996 . S
O144 C150 1.255 . S
O145 Fe135 1.976 . S
O145 C140 1.287 . S
O146 Fe132 1.996 . S
O146 C140 1.255 . S
C147 O151 1.295 . S
C147 O152 1.235 . S
O148 Fe133 1.976 . S
O148 C142 1.287 . S
O149 Fe135 1.996 . S
O149 C142 1.255 . S
C150 O143 1.287 . S
C150 O144 1.255 . S
O151 Fe133 2.002 . S
O151 C147 1.295 . S
O152 Fe135 1.997 . S
O152 C147 1.235 . S
C153 O136 1.295 . S
C153 O137 1.235 . S
Fe154 O156 1.918 . S
Fe154 O159 1.997 . S
Fe154 O160 2.002 . S
Fe154 O165 1.976 . S
Fe154 O168 1.996 . S
Fe155 O156 1.918 . S
Fe155 O163 1.997 . S
Fe155 O166 1.996 . S
Fe155 O170 1.976 . S
Fe155 O173 2.002 . S
O156 Fe154 1.918 . S
O156 Fe155 1.918 . S
O156 Fe157 1.918 . S
Fe157 O156 1.918 . S
Fe157 O158 2.002 . S
Fe157 O167 1.976 . S
Fe157 O171 1.996 . S
Fe157 O174 1.997 . S
O158 Fe157 2.002 . S
O158 C175 1.295 . S
O159 Fe154 1.997 . S
O159 C175 1.235 . S
O160 Fe154 2.002 . S
O160 C161 1.295 . S
C161 O160 1.295 . S
C161 O163 1.235 . S
C162 O167 1.287 . S
C162 O168 1.255 . S
O163 Fe155 1.997 . S
O163 C161 1.235 . S
C164 O170 1.287 . S
C164 O171 1.255 . S
O165 Fe154 1.976 . S
O165 C172 1.287 . S
O166 Fe155 1.996 . S
O166 C172 1.255 . S
O167 Fe157 1.976 . S
O167 C162 1.287 . S
O168 Fe154 1.996 . S
O168 C162 1.255 . S
C169 O173 1.295 . S
C169 O174 1.235 . S
O170 Fe155 1.976 . S
O170 C164 1.287 . S
O171 Fe157 1.996 . S
O171 C164 1.255 . S
C172 O165 1.287 . S
C172 O166 1.255 . S
O173 Fe155 2.002 . S
O173 C169 1.295 . S
O174 Fe157 1.997 . S
O174 C169 1.235 . S
C175 O158 1.295 . S
C175 O159 1.235 . S
Fe176 O178 1.918 . S
Fe176 O181 1.997 . S
Fe176 O182 2.002 . S
Fe176 O187 1.976 . S
Fe176 O190 1.996 . S
Fe177 O178 1.918 . S
Fe177 O185 1.997 . S
Fe177 O188 1.996 . S
Fe177 O192 1.976 . S
Fe177 O195 2.002 . S
O178 Fe176 1.918 . S
O178 Fe177 1.918 . S
O178 Fe179 1.918 . S
Fe179 O178 1.918 . S
Fe179 O180 2.002 . S
Fe179 O189 1.976 . S
Fe179 O193 1.996 . S
Fe179 O196 1.997 . S
O180 Fe179 2.002 . S
O180 C197 1.295 . S
O181 Fe176 1.997 . S
O181 C197 1.235 . S
O182 Fe176 2.002 . S
O182 C183 1.295 . S
C183 O182 1.295 . S
C183 O185 1.235 . S
C184 O189 1.287 . S
C184 O190 1.255 . S
O185 Fe177 1.997 . S
O185 C183 1.235 . S
C186 O192 1.287 . S
C186 O193 1.255 . S
O187 Fe176 1.976 . S
O187 C194 1.287 . S
O188 Fe177 1.996 . S
O188 C194 1.255 . S
O189 Fe179 1.976 . S
O189 C184 1.287 . S
O190 Fe176 1.996 . S
O190 C184 1.255 . S
C191 O195 1.295 . S
C191 O196 1.235 . S
O192 Fe177 1.976 . S
O192 C186 1.287 . S
O193 Fe179 1.996 . S
O193 C186 1.255 . S
C194 O187 1.287 . S
C194 O188 1.255 . S
O195 Fe177 2.002 . S
O195 C191 1.295 . S
O196 Fe179 1.997 . S
O196 C191 1.235 . S
C197 O180 1.295 . S
C197 O181 1.235 . S
Fe198 O200 1.918 . S
Fe198 O203 1.997 . S
Fe198 O204 2.002 . S
Fe198 O209 1.976 . S
Fe198 O212 1.996 . S
Fe199 O200 1.918 . S
Fe199 O207 1.997 . S
Fe199 O210 1.996 . S
Fe199 O214 1.976 . S
Fe199 O217 2.002 . S
O200 Fe198 1.918 . S
O200 Fe199 1.918 . S
O200 Fe201 1.918 . S
Fe201 O200 1.918 . S
Fe201 O202 2.002 . S
Fe201 O211 1.976 . S
Fe201 O215 1.996 . S
Fe201 O218 1.997 . S
O202 Fe201 2.002 . S
O202 C219 1.295 . S
O203 Fe198 1.997 . S
O203 C219 1.235 . S
O204 Fe198 2.002 . S
O204 C205 1.295 . S
C205 O204 1.295 . S
C205 O207 1.235 . S
C206 O211 1.287 . S
C206 O212 1.255 . S
O207 Fe199 1.997 . S
O207 C205 1.235 . S
C208 O214 1.287 . S
C208 O215 1.255 . S
O209 Fe198 1.976 . S
O209 C216 1.287 . S
O210 Fe199 1.996 . S
O210 C216 1.255 . S
O211 Fe201 1.976 . S
O211 C206 1.287 . S
O212 Fe198 1.996 . S
O212 C206 1.255 . S
C213 O217 1.295 . S
C213 O218 1.235 . S
O214 Fe199 1.976 . S
O214 C208 1.287 . S
O215 Fe201 1.996 . S
O215 C208 1.255 . S
C216 O209 1.287 . S
C216 O210 1.255 . S
O217 Fe199 2.002 . S
O217 C213 1.295 . S
O218 Fe201 1.997 . S
O218 C213 1.235 . S
C219 O202 1.295 . S
C219 O203 1.235 . S
Fe220 O222 1.918 . S
Fe220 O225 1.997 . S
Fe220 O226 2.002 1_554 S
Fe220 O231 1.976 . S
Fe220 O234 1.996 . S
Fe221 O222 1.918 1_556 S
Fe221 O229 1.997 . S
Fe221 O232 1.996 . S
Fe221 O236 1.976 1_556 S
Fe221 O239 2.002 . S
O222 Fe220 1.918 . S
O222 Fe221 1.918 1_554 S
O222 Fe223 1.918 . S
Fe223 O222 1.918 . S
Fe223 O224 2.002 . S
Fe223 O233 1.976 . S
Fe223 O237 1.996 . S
Fe223 O240 1.997 . S
O224 Fe223 2.002 . S
O224 C241 1.295 . S
O225 Fe220 1.997 . S
O225 C241 1.235 . S
O226 Fe220 2.002 1_556 S
O226 C227 1.295 . S
C227 O226 1.295 . S
C227 O229 1.235 . S
C228 O233 1.287 . S
C228 O234 1.255 . S
O229 Fe221 1.997 . S
O229 C227 1.235 . S
C230 O236 1.287 . S
C230 O237 1.255 . S
O231 Fe220 1.976 . S
O231 C238 1.287 . S
O232 Fe221 1.996 . S
O232 C238 1.255 1_556 S
O233 Fe223 1.976 . S
O233 C228 1.287 . S
O234 Fe220 1.996 . S
O234 C228 1.255 . S
C235 O239 1.295 . S
C235 O240 1.235 1_556 S
O236 Fe221 1.976 1_554 S
O236 C230 1.287 . S
O237 Fe223 1.996 . S
O237 C230 1.255 . S
C238 O231 1.287 . S
C238 O232 1.255 1_554 S
O239 Fe221 2.002 . S
O239 C235 1.295 . S
O240 Fe223 1.997 . S
O240 C235 1.235 1_554 S
C241 O224 1.295 . S
C241 O225 1.235 . S
Fe242 O244 1.918 . S
Fe242 O247 1.997 . S
Fe242 O248 2.002 . S
Fe242 O253 1.976 . S
Fe242 O256 1.996 . S
Fe243 O244 1.918 . S
Fe243 O251 1.997 . S
Fe243 O254 1.996 . S
Fe243 O258 1.976 . S
Fe243 O261 2.002 . S
O244 Fe242 1.918 . S
O244 Fe243 1.918 . S
O244 Fe245 1.918 . S
Fe245 O244 1.918 . S
Fe245 O246 2.002 . S
Fe245 O255 1.976 . S
Fe245 O259 1.996 . S
Fe245 O262 1.997 . S
O246 Fe245 2.002 . S
O246 C263 1.295 . S
O247 Fe242 1.997 . S
O247 C263 1.235 . S
O248 Fe242 2.002 . S
O248 C249 1.295 . S
C249 O248 1.295 . S
C249 O251 1.235 . S
C250 O255 1.287 . S
C250 O256 1.255 . S
O251 Fe243 1.997 . S
O251 C249 1.235 . S
C252 O258 1.287 . S
C252 O259 1.255 . S
O253 Fe242 1.976 . S
O253 C260 1.287 . S
O254 Fe243 1.996 . S
O254 C260 1.255 . S
O255 Fe245 1.976 . S
O255 C250 1.287 . S
O256 Fe242 1.996 . S
O256 C250 1.255 . S
C257 O261 1.295 . S
C257 O262 1.235 . S
O258 Fe243 1.976 . S
O258 C252 1.287 . S
O259 Fe245 1.996 . S
O259 C252 1.255 . S
C260 O253 1.287 . S
C260 O254 1.255 . S
O261 Fe243 2.002 . S
O261 C257 1.295 . S
O262 Fe245 1.997 . S
O262 C257 1.235 . S
C263 O246 1.295 . S
C263 O247 1.235 . S
Fe264 O266 1.918 . S
Fe264 O269 1.997 . S
Fe264 O270 2.002 . S
Fe264 O275 1.976 . S
Fe264 O278 1.996 . S
Fe265 O266 1.918 . S
Fe265 O273 1.997 . S
Fe265 O276 1.996 . S
Fe265 O280 1.976 . S
Fe265 O283 2.002 . S
O266 Fe264 1.918 . S
O266 Fe265 1.918 . S
O266 Fe267 1.918 . S
Fe267 O266 1.918 . S
Fe267 O268 2.002 . S
Fe267 O277 1.976 . S
Fe267 O281 1.996 . S
Fe267 O284 1.997 . S
O268 Fe267 2.002 . S
O268 C285 1.295 . S
O269 Fe264 1.997 . S
O269 C285 1.235 . S
O270 Fe264 2.002 . S
O270 C271 1.295 . S
C271 O270 1.295 . S
C271 O273 1.235 . S
C272 O277 1.287 . S
C272 O278 1.255 . S
O273 Fe265 1.997 . S
O273 C271 1.235 . S
C274 O280 1.287 . S
C274 O281 1.255 . S
O275 Fe264 1.976 . S
O275 C282 1.287 . S
O276 Fe265 1.996 . S
O276 C282 1.255 . S
O277 Fe267 1.976 . S
O277 C272 1.287 . S
O278 Fe264 1.996 . S
O278 C272 1.255 . S
C279 O283 1.295 . S
C279 O284 1.235 . S
O280 Fe265 1.976 . S
O280 C274 1.287 . S
O281 Fe267 1.996 . S
O281 C274 1.255 . S
C282 O275 1.287 . S
C282 O276 1.255 . S
O283 Fe265 2.002 . S
O283 C279 1.295 . S
O284 Fe267 1.997 . S
O284 C279 1.235 . S
C285 O268 1.295 . S
C285 O269 1.235 . S
Fe286 O288 1.918 . S
Fe286 O291 1.997 . S
Fe286 O292 2.002 . S
Fe286 O297 1.976 . S
Fe286 O300 1.996 . S
Fe287 O288 1.918 . S
Fe287 O295 1.997 . S
Fe287 O298 1.996 . S
Fe287 O302 1.976 . S
Fe287 O305 2.002 . S
O288 Fe286 1.918 . S
O288 Fe287 1.918 . S
O288 Fe289 1.918 . S
Fe289 O288 1.918 . S
Fe289 O290 2.002 . S
Fe289 O299 1.976 . S
Fe289 O303 1.996 . S
Fe289 O306 1.997 . S
O290 Fe289 2.002 . S
O290 C307 1.295 . S
O291 Fe286 1.997 . S
O291 C307 1.235 . S
O292 Fe286 2.002 . S
O292 C293 1.295 . S
C293 O292 1.295 . S
C293 O295 1.235 . S
C294 O299 1.287 . S
C294 O300 1.255 . S
O295 Fe287 1.997 . S
O295 C293 1.235 . S
C296 O302 1.287 . S
C296 O303 1.255 . S
O297 Fe286 1.976 . S
O297 C304 1.287 . S
O298 Fe287 1.996 . S
O298 C304 1.255 . S
O299 Fe289 1.976 . S
O299 C294 1.287 . S
O300 Fe286 1.996 . S
O300 C294 1.255 . S
C301 O305 1.295 . S
C301 O306 1.235 . S
O302 Fe287 1.976 . S
O302 C296 1.287 . S
O303 Fe289 1.996 . S
O303 C296 1.255 . S
C304 O297 1.287 . S
C304 O298 1.255 . S
O305 Fe287 2.002 . S
O305 C301 1.295 . S
O306 Fe289 1.997 . S
O306 C301 1.235 . S
C307 O290 1.295 . S
C307 O291 1.235 . S
Fe308 O310 1.918 . S
Fe308 O313 1.997 . S
Fe308 O314 2.002 . S
Fe308 O319 1.976 . S
Fe308 O322 1.996 . S
Fe309 O310 1.918 . S
Fe309 O317 1.997 . S
Fe309 O320 1.996 . S
Fe309 O324 1.976 . S
Fe309 O327 2.002 . S
O310 Fe308 1.918 . S
O310 Fe309 1.918 . S
O310 Fe311 1.918 . S
Fe311 O310 1.918 . S
Fe311 O312 2.002 . S
Fe311 O321 1.976 1_554 S
Fe311 O325 1.987 1_554 S
Fe311 O328 1.997 . S
O312 Fe311 2.002 . S
O312 C329 1.295 . S
O313 Fe308 1.997 . S
O313 C329 1.235 . S
O314 Fe308 2.002 . S
O314 C315 1.295 . S
C315 O314 1.295 . S
C315 O317 1.235 . S
C316 O321 1.287 . S
C316 O322 1.255 1_556 S
O317 Fe309 1.997 . S
O317 C315 1.235 . S
C318 O324 1.287 . S
C318 O325 1.246 1_554 S
O319 Fe308 1.976 . S
O319 C326 1.287 . S
O320 Fe309 1.996 . S
O320 C326 1.255 . S
O321 Fe311 1.976 1_556 S
O321 C316 1.287 . S
O322 Fe308 1.996 . S
O322 C316 1.255 1_554 S
C323 O327 1.295 . S
C323 O328 1.235 . S
O324 Fe309 1.976 . S
O324 C318 1.287 . S
O325 Fe311 1.987 1_556 S
O325 C318 1.246 1_556 S
C326 O319 1.287 . S
C326 O320 1.255 . S
O327 Fe309 2.002 . S
O327 C323 1.295 . S
O328 Fe311 1.997 . S
O328 C323 1.235 . S
C329 O312 1.295 . S
C329 O313 1.235 . S
Fe330 O332 1.918 . S
Fe330 O335 1.997 . S
Fe330 O336 2.002 . S
Fe330 O341 1.976 . S
Fe330 O344 1.996 . S
Fe331 O332 1.918 . S
Fe331 O339 1.997 . S
Fe331 O342 1.996 . S
Fe331 O346 1.976 . S
Fe331 O349 2.002 . S
O332 Fe330 1.918 . S
O332 Fe331 1.918 . S
O332 Fe333 1.918 . S
Fe333 O332 1.918 . S
Fe333 O334 2.002 . S
Fe333 O343 1.976 . S
Fe333 O347 1.996 . S
Fe333 O350 1.997 . S
O334 Fe333 2.002 . S
O334 C351 1.295 . S
O335 Fe330 1.997 . S
O335 C351 1.235 . S
O336 Fe330 2.002 . S
O336 C337 1.295 . S
C337 O336 1.295 . S
C337 O339 1.235 . S
C338 O343 1.287 . S
C338 O344 1.255 . S
O339 Fe331 1.997 . S
O339 C337 1.235 . S
C340 O346 1.287 . S
C340 O347 1.255 . S
O341 Fe330 1.976 . S
O341 C348 1.287 . S
O342 Fe331 1.996 . S
O342 C348 1.255 . S
O343 Fe333 1.976 . S
O343 C338 1.287 . S
O344 Fe330 1.996 . S
O344 C338 1.255 . S
C345 O349 1.295 . S
C345 O350 1.235 . S
O346 Fe331 1.976 . S
O346 C340 1.287 . S
O347 Fe333 1.996 . S
O347 C340 1.255 . S
C348 O341 1.287 . S
C348 O342 1.255 . S
O349 Fe331 2.002 . S
O349 C345 1.295 . S
O350 Fe333 1.997 . S
O350 C345 1.235 . S
C351 O334 1.295 . S
C351 O335 1.235 . S
H352 C360 0.929 . S
H353 C362 0.930 . S
H354 C364 0.930 . S
H355 C367 0.929 1_554 S
H356 C370 0.930 . S
H357 C372 0.960 . S
H358 C372 0.960 . S
H359 C372 0.960 . S
C360 H352 0.929 . S
C360 C361 1.377 . S
C360 C362 1.384 . S
C361 C360 1.377 . S
C361 C367 1.390 . S
C362 H353 0.930 . S
C362 C360 1.384 . S
C362 C363 1.372 . S
C363 C362 1.372 . S
C363 C364 1.400 . S
C363 C368 1.490 . S
C364 H354 0.930 . S
C364 C363 1.400 . S
C364 C367 1.386 . S
H365 C381 0.930 . S
H366 C382 0.931 . S
C367 H355 0.929 1_556 S
C367 C361 1.390 . S
C367 C364 1.386 . S
C368 C363 1.490 . S
C368 C370 1.395 . S
C368 C371 1.403 . S
H369 C375 0.930 . S
C370 H356 0.930 . S
C370 C368 1.395 . S
C370 C373 1.403 . S
C371 C368 1.403 . S
C371 C372 1.524 . S
C371 C375 1.400 . S
C372 H357 0.960 . S
C372 H358 0.960 . S
C372 H359 0.960 . S
C372 C371 1.524 . S
C373 C370 1.403 . S
C373 C374 1.392 . S
C373 C377 1.495 . S
C374 C373 1.392 . S
C374 C375 1.385 . S
C374 C376 1.478 . S
C375 H369 0.930 . S
C375 C371 1.400 . S
C375 C374 1.385 . S
C376 C374 1.478 . S
C376 C378 1.381 . S
C376 C382 1.383 . S
C377 C373 1.495 . S
C377 H383 0.959 . S
C377 H384 0.961 . S
C377 H385 0.960 . S
C378 C376 1.381 . S
C378 C379 1.394 . S
C378 H386 0.930 . S
C379 C378 1.394 . S
C379 C380 1.383 . S
C379 H387 0.929 . S
C380 C379 1.383 . S
C380 C381 1.377 . S
C381 H365 0.930 . S
C381 C380 1.377 . S
C381 C382 1.379 . S
C382 H366 0.931 . S
C382 C376 1.383 . S
C382 C381 1.379 . S
H383 C377 0.959 . S
H384 C377 0.961 . S
H385 C377 0.960 . S
H386 C378 0.930 . S
H387 C379 0.929 . S
H388 C396 0.929 . S
H389 C398 0.930 . S
H390 C400 0.930 . S
H391 C403 0.929 . S
H392 C406 0.930 . S
H393 C408 0.960 . S
H394 C408 0.960 . S
H395 C408 0.960 . S
C396 H388 0.929 . S
C396 C397 1.377 . S
C396 C398 1.384 . S
C397 C396 1.377 . S
C397 C403 1.390 . S
C398 H389 0.930 . S
C398 C396 1.384 . S
C398 C399 1.372 . S
C399 C398 1.372 . S
C399 C400 1.400 . S
C399 C404 1.490 . S
C400 H390 0.930 . S
C400 C399 1.400 . S
C400 C403 1.386 . S
H401 C417 0.930 . S
H402 C418 0.931 . S
C403 H391 0.929 . S
C403 C397 1.390 . S
C403 C400 1.386 . S
C404 C399 1.490 . S
C404 C406 1.395 . S
C404 C407 1.403 . S
H405 C411 0.930 . S
C406 H392 0.930 . S
C406 C404 1.395 . S
C406 C409 1.403 . S
C407 C404 1.403 . S
C407 C408 1.524 . S
C407 C411 1.400 . S
C408 H393 0.960 . S
C408 H394 0.960 . S
C408 H395 0.960 . S
C408 C407 1.524 . S
C409 C406 1.403 . S
C409 C410 1.392 . S
C409 C413 1.495 . S
C410 C409 1.392 . S
C410 C411 1.385 . S
C410 C412 1.478 . S
C411 H405 0.930 . S
C411 C407 1.400 . S
C411 C410 1.385 . S
C412 C410 1.478 . S
C412 C414 1.381 . S
C412 C418 1.383 . S
C413 C409 1.495 . S
C413 H419 0.959 . S
C413 H420 0.961 . S
C413 H421 0.960 . S
C414 C412 1.381 . S
C414 C415 1.394 . S
C414 H422 0.930 . S
C415 C414 1.394 . S
C415 C416 1.383 . S
C415 H423 0.929 . S
C416 C415 1.383 . S
C416 C417 1.377 . S
C417 H401 0.930 . S
C417 C416 1.377 . S
C417 C418 1.379 . S
C418 H402 0.931 . S
C418 C412 1.383 . S
C418 C417 1.379 . S
H419 C413 0.959 . S
H420 C413 0.961 . S
H421 C413 0.960 . S
H422 C414 0.930 . S
H423 C415 0.929 . S
H424 C432 0.929 . S
H425 C434 0.930 . S
H426 C436 0.930 . S
H427 C439 0.929 . S
H428 C442 0.930 . S
H429 C444 0.960 . S
H430 C444 0.960 . S
H431 C444 0.960 . S
C432 H424 0.929 . S
C432 C433 1.377 . S
C432 C434 1.384 . S
C433 C432 1.377 . S
C433 C439 1.390 . S
C434 H425 0.930 . S
C434 C432 1.384 . S
C434 C435 1.372 . S
C435 C434 1.372 . S
C435 C436 1.400 . S
C435 C440 1.490 . S
C436 H426 0.930 . S
C436 C435 1.400 . S
C436 C439 1.386 . S
H437 C453 0.930 . S
H438 C454 0.931 . S
C439 H427 0.929 . S
C439 C433 1.390 . S
C439 C436 1.386 . S
C440 C435 1.490 . S
C440 C442 1.395 . S
C440 C443 1.403 . S
H441 C447 0.930 . S
C442 H428 0.930 . S
C442 C440 1.395 . S
C442 C445 1.403 . S
C443 C440 1.403 . S
C443 C444 1.524 . S
C443 C447 1.400 . S
C444 H429 0.960 . S
C444 H430 0.960 . S
C444 H431 0.960 . S
C444 C443 1.524 . S
C445 C442 1.403 . S
C445 C446 1.392 . S
C445 C449 1.495 . S
C446 C445 1.392 . S
C446 C447 1.385 . S
C446 C448 1.478 . S
C447 H441 0.930 . S
C447 C443 1.400 . S
C447 C446 1.385 . S
C448 C446 1.478 . S
C448 C450 1.381 . S
C448 C454 1.383 . S
C449 C445 1.495 . S
C449 H455 0.959 . S
C449 H456 0.961 . S
C449 H457 0.960 . S
C450 C448 1.381 . S
C450 C451 1.394 . S
C450 H458 0.930 . S
C451 C450 1.394 . S
C451 C452 1.383 . S
C451 H459 0.929 . S
C452 C451 1.383 . S
C452 C453 1.377 . S
C453 H437 0.930 . S
C453 C452 1.377 . S
C453 C454 1.379 . S
C454 H438 0.931 . S
C454 C448 1.383 . S
C454 C453 1.379 . S
H455 C449 0.959 . S
H456 C449 0.961 . S
H457 C449 0.960 . S
H458 C450 0.930 . S
H459 C451 0.929 . S
H460 C468 0.929 . S
H461 C470 0.930 . S
H462 C472 0.930 . S
H463 C475 0.929 . S
H464 C478 0.930 . S
H465 C480 0.960 . S
H466 C480 0.960 . S
H467 C480 0.960 . S
C468 H460 0.929 . S
C468 C469 1.377 . S
C468 C470 1.384 . S
C469 C468 1.377 . S
C469 C475 1.390 . S
C470 H461 0.930 . S
C470 C468 1.384 . S
C470 C471 1.372 . S
C471 C470 1.372 . S
C471 C472 1.400 . S
C471 C476 1.490 . S
C472 H462 0.930 . S
C472 C471 1.400 . S
C472 C475 1.386 . S
H473 C489 0.930 . S
H474 C490 0.931 . S
C475 H463 0.929 . S
C475 C469 1.390 . S
C475 C472 1.386 . S
C476 C471 1.490 . S
C476 C478 1.395 . S
C476 C479 1.403 . S
H477 C483 0.930 . S
C478 H464 0.930 . S
C478 C476 1.395 . S
C478 C481 1.403 . S
C479 C476 1.403 . S
C479 C480 1.524 . S
C479 C483 1.400 . S
C480 H465 0.960 . S
C480 H466 0.960 . S
C480 H467 0.960 . S
C480 C479 1.524 . S
C481 C478 1.403 . S
C481 C482 1.392 . S
C481 C485 1.495 . S
C482 C481 1.392 . S
C482 C483 1.385 . S
C482 C484 1.478 . S
C483 H477 0.930 . S
C483 C479 1.400 . S
C483 C482 1.385 . S
C484 C482 1.478 . S
C484 C486 1.381 . S
C484 C490 1.383 . S
C485 C481 1.495 . S
C485 H491 0.959 . S
C485 H492 0.961 . S
C485 H493 0.960 . S
C486 C484 1.381 . S
C486 C487 1.394 . S
C486 H494 0.930 . S
C487 C486 1.394 . S
C487 C488 1.383 . S
C487 H495 0.929 . S
C488 C487 1.383 . S
C488 C489 1.377 . S
C489 H473 0.930 . S
C489 C488 1.377 . S
C489 C490 1.379 . S
C490 H474 0.931 . S
C490 C484 1.383 . S
C490 C489 1.379 . S
H491 C485 0.959 . S
H492 C485 0.961 . S
H493 C485 0.960 . S
H494 C486 0.930 . S
H495 C487 0.929 . S
H496 C504 0.929 . S
H497 C506 0.930 . S
H498 C508 0.930 . S
H499 C511 0.929 . S
H500 C514 0.930 . S
H501 C516 0.960 . S
H502 C516 0.960 . S
H503 C516 0.960 . S
C504 H496 0.929 . S
C504 C505 1.377 . S
C504 C506 1.384 . S
C505 C504 1.377 . S
C505 C511 1.390 . S
C506 H497 0.930 . S
C506 C504 1.384 . S
C506 C507 1.372 . S
C507 C506 1.372 . S
C507 C508 1.400 . S
C507 C512 1.490 . S
C508 H498 0.930 . S
C508 C507 1.400 . S
C508 C511 1.386 . S
H509 C525 0.930 . S
H510 C526 0.931 . S
C511 H499 0.929 . S
C511 C505 1.390 . S
C511 C508 1.386 . S
C512 C507 1.490 . S
C512 C514 1.395 . S
C512 C515 1.403 . S
H513 C519 0.930 . S
C514 H500 0.930 . S
C514 C512 1.395 . S
C514 C517 1.403 . S
C515 C512 1.403 . S
C515 C516 1.524 . S
C515 C519 1.400 . S
C516 H501 0.960 . S
C516 H502 0.960 . S
C516 H503 0.960 . S
C516 C515 1.524 . S
C517 C514 1.403 . S
C517 C518 1.392 . S
C517 C521 1.495 . S
C518 C517 1.392 . S
C518 C519 1.385 . S
C518 C520 1.478 . S
C519 H513 0.930 . S
C519 C515 1.400 . S
C519 C518 1.385 . S
C520 C518 1.478 . S
C520 C522 1.381 . S
C520 C526 1.383 . S
C521 C517 1.495 . S
C521 H527 0.959 . S
C521 H528 0.961 . S
C521 H529 0.960 . S
C522 C520 1.381 . S
C522 C523 1.394 . S
C522 H530 0.930 . S
C523 C522 1.394 . S
C523 C524 1.383 . S
C523 H531 0.929 . S
C524 C523 1.383 . S
C524 C525 1.377 . S
C525 H509 0.930 . S
C525 C524 1.377 . S
C525 C526 1.379 . S
C526 H510 0.931 . S
C526 C520 1.383 . S
C526 C525 1.379 . S
H527 C521 0.959 . S
H528 C521 0.961 . S
H529 C521 0.960 . S
H530 C522 0.930 . S
H531 C523 0.929 . S
H532 C540 0.929 . S
H533 C542 0.930 . S
H534 C544 0.930 . S
H535 C547 0.929 . S
H536 C550 0.930 . S
H537 C552 0.960 . S
H538 C552 0.960 . S
H539 C552 0.960 . S
C540 H532 0.929 . S
C540 C541 1.377 . S
C540 C542 1.384 . S
C541 C540 1.377 . S
C541 C547 1.390 . S
C542 H533 0.930 . S
C542 C540 1.384 . S
C542 C543 1.372 . S
C543 C542 1.372 . S
C543 C544 1.400 . S
C543 C548 1.490 . S
C544 H534 0.930 . S
C544 C543 1.400 . S
C544 C547 1.386 . S
H545 C561 0.930 . S
H546 C562 0.931 . S
C547 H535 0.929 . S
C547 C541 1.390 . S
C547 C544 1.386 . S
C548 C543 1.490 . S
C548 C550 1.395 . S
C548 C551 1.403 . S
H549 C555 0.930 . S
C550 H536 0.930 . S
C550 C548 1.395 . S
C550 C553 1.403 . S
C551 C548 1.403 . S
C551 C552 1.524 . S
C551 C555 1.400 . S
C552 H537 0.960 . S
C552 H538 0.960 . S
C552 H539 0.960 . S
C552 C551 1.524 . S
C553 C550 1.403 . S
C553 C554 1.392 . S
C553 C557 1.495 . S
C554 C553 1.392 . S
C554 C555 1.385 . S
C554 C556 1.478 . S
C555 H549 0.930 . S
C555 C551 1.400 . S
C555 C554 1.385 . S
C556 C554 1.478 . S
C556 C558 1.381 . S
C556 C562 1.383 . S
C557 C553 1.495 . S
C557 H563 0.959 . S
C557 H564 0.961 . S
C557 H565 0.959 1_556 S
C558 C556 1.381 . S
C558 C559 1.394 1_556 S
C558 H566 0.930 1_556 S
C559 C558 1.394 1_554 S
C559 C560 1.383 1_554 S
C559 H567 0.929 . S
C560 C559 1.383 1_556 S
C560 C561 1.377 . S
C561 H545 0.930 . S
C561 C560 1.377 . S
C561 C562 1.379 . S
C562 H546 0.931 . S
C562 C556 1.383 . S
C562 C561 1.379 . S
H563 C557 0.959 . S
H564 C557 0.961 . S
H565 C557 0.959 1_554 S
H566 C558 0.930 1_554 S
H567 C559 0.929 . S
H568 C576 0.929 . S
H569 C578 0.930 . S
H570 C580 0.930 . S
H571 C583 0.929 . S
H572 C586 0.930 . S
H573 C588 0.960 . S
H574 C588 0.960 . S
H575 C588 0.960 . S
C576 H568 0.929 . S
C576 C577 1.377 . S
C576 C578 1.384 . S
C577 C576 1.377 . S
C577 C583 1.390 . S
C578 H569 0.930 . S
C578 C576 1.384 . S
C578 C579 1.372 . S
C579 C578 1.372 . S
C579 C580 1.400 . S
C579 C584 1.490 . S
C580 H570 0.930 . S
C580 C579 1.400 . S
C580 C583 1.386 . S
H581 C597 0.930 . S
H582 C598 0.931 . S
C583 H571 0.929 . S
C583 C577 1.390 . S
C583 C580 1.386 . S
C584 C579 1.490 . S
C584 C586 1.395 . S
C584 C587 1.403 . S
H585 C591 0.930 . S
C586 H572 0.930 . S
C586 C584 1.395 . S
C586 C589 1.403 . S
C587 C584 1.403 . S
C587 C588 1.524 . S
C587 C591 1.400 . S
C588 H573 0.960 . S
C588 H574 0.960 . S
C588 H575 0.960 . S
C588 C587 1.524 . S
C589 C586 1.403 . S
C589 C590 1.392 . S
C589 C593 1.495 . S
C590 C589 1.392 . S
C590 C591 1.385 . S
C590 C592 1.478 . S
C591 H585 0.930 . S
C591 C587 1.400 . S
C591 C590 1.385 . S
C592 C590 1.478 . S
C592 C594 1.381 . S
C592 C598 1.383 . S
C593 C589 1.495 . S
C593 H599 0.959 . S
C593 H600 0.961 . S
C593 H601 0.960 . S
C594 C592 1.381 . S
C594 C595 1.394 . S
C594 H602 0.930 . S
C595 C594 1.394 . S
C595 C596 1.383 . S
C595 H603 0.929 . S
C596 C595 1.383 . S
C596 C597 1.377 . S
C597 H581 0.930 . S
C597 C596 1.377 . S
C597 C598 1.379 . S
C598 H582 0.931 . S
C598 C592 1.383 . S
C598 C597 1.379 . S
H599 C593 0.959 . S
H600 C593 0.961 . S
H601 C593 0.960 . S
H602 C594 0.930 . S
H603 C595 0.929 . S
H604 C612 0.929 . S
H605 C614 0.930 . S
H606 C616 0.930 . S
H607 C619 0.929 . S
H608 C622 0.930 . S
H609 C624 0.960 . S
H610 C624 0.960 . S
H611 C624 0.960 . S
C612 H604 0.929 . S
C612 C613 1.377 . S
C612 C614 1.384 . S
C613 C612 1.377 . S
C613 C619 1.390 . S
C614 H605 0.930 . S
C614 C612 1.384 . S
C614 C615 1.372 . S
C615 C614 1.372 . S
C615 C616 1.400 . S
C615 C620 1.490 . S
C616 H606 0.930 . S
C616 C615 1.400 . S
C616 C619 1.386 . S
H617 C633 0.930 . S
H618 C634 0.931 . S
C619 H607 0.929 . S
C619 C613 1.390 . S
C619 C616 1.386 . S
C620 C615 1.490 . S
C620 C622 1.395 . S
C620 C623 1.403 . S
H621 C627 0.930 . S
C622 H608 0.930 . S
C622 C620 1.395 . S
C622 C625 1.403 . S
C623 C620 1.403 . S
C623 C624 1.524 . S
C623 C627 1.400 . S
C624 H609 0.960 . S
C624 H610 0.960 . S
C624 H611 0.960 . S
C624 C623 1.524 . S
C625 C622 1.403 . S
C625 C626 1.392 . S
C625 C629 1.495 . S
C626 C625 1.392 . S
C626 C627 1.385 . S
C626 C628 1.478 . S
C627 H621 0.930 . S
C627 C623 1.400 . S
C627 C626 1.385 . S
C628 C626 1.478 . S
C628 C630 1.381 . S
C628 C634 1.383 . S
C629 C625 1.495 . S
C629 H635 0.959 . S
C629 H636 0.961 . S
C629 H637 0.960 . S
C630 C628 1.381 . S
C630 C631 1.394 . S
C630 H638 0.930 . S
C631 C630 1.394 . S
C631 C632 1.383 . S
C631 H639 0.929 . S
C632 C631 1.383 . S
C632 C633 1.377 . S
C633 H617 0.930 . S
C633 C632 1.377 . S
C633 C634 1.379 . S
C634 H618 0.931 . S
C634 C628 1.383 . S
C634 C633 1.379 . S
H635 C629 0.959 . S
H636 C629 0.961 . S
H637 C629 0.960 . S
H638 C630 0.930 . S
H639 C631 0.929 . S
H640 C648 0.929 . S
H641 C650 0.930 . S
H642 C652 0.930 . S
H643 C655 0.929 . S
H644 C658 0.930 . S
H645 C660 0.960 . S
H646 C660 0.960 . S
H647 C660 0.960 . S
C648 H640 0.929 . S
C648 C649 1.377 . S
C648 C650 1.384 . S
C649 C648 1.377 . S
C649 C655 1.390 . S
C650 H641 0.930 . S
C650 C648 1.384 . S
C650 C651 1.372 . S
C651 C650 1.372 . S
C651 C652 1.400 . S
C651 C656 1.490 . S
C652 H642 0.930 . S
C652 C651 1.400 . S
C652 C655 1.386 . S
H653 C669 0.930 . S
H654 C670 0.931 . S
C655 H643 0.929 . S
C655 C649 1.390 . S
C655 C652 1.386 . S
C656 C651 1.490 . S
C656 C658 1.395 . S
C656 C659 1.403 . S
H657 C663 0.930 . S
C658 H644 0.930 . S
C658 C656 1.395 . S
C658 C661 1.403 . S
C659 C656 1.403 . S
C659 C660 1.524 . S
C659 C663 1.400 . S
C660 H645 0.960 . S
C660 H646 0.960 . S
C660 H647 0.960 . S
C660 C659 1.524 . S
C661 C658 1.403 . S
C661 C662 1.392 . S
C661 C665 1.495 . S
C662 C661 1.392 . S
C662 C663 1.385 . S
C662 C664 1.478 . S
C663 H657 0.930 . S
C663 C659 1.400 . S
C663 C662 1.385 . S
C664 C662 1.478 . S
C664 C666 1.381 . S
C664 C670 1.383 . S
C665 C661 1.495 . S
C665 H671 0.959 . S
C665 H672 0.961 . S
C665 H673 0.960 . S
C666 C664 1.381 . S
C666 C667 1.394 . S
C666 H674 0.930 . S
C667 C666 1.394 . S
C667 C668 1.383 . S
C667 H675 0.929 . S
C668 C667 1.383 . S
C668 C669 1.377 . S
C669 H653 0.930 . S
C669 C668 1.377 . S
C669 C670 1.379 . S
C670 H654 0.931 . S
C670 C664 1.383 . S
C670 C669 1.379 . S
H671 C665 0.959 . S
H672 C665 0.961 . S
H673 C665 0.960 . S
H674 C666 0.930 . S
H675 C667 0.929 . S
H676 C684 0.929 . S
H677 C686 0.930 . S
H678 C688 0.930 . S
H679 C691 0.929 . S
H680 C694 0.930 . S
H681 C696 0.960 . S
H682 C696 0.960 . S
H683 C696 0.960 . S
C684 H676 0.929 . S
C684 C685 1.377 . S
C684 C686 1.384 . S
C685 C684 1.377 . S
C685 C691 1.390 . S
C686 H677 0.930 . S
C686 C684 1.384 . S
C686 C687 1.372 . S
C687 C686 1.372 . S
C687 C688 1.400 . S
C687 C692 1.490 . S
C688 H678 0.930 . S
C688 C687 1.400 . S
C688 C691 1.386 . S
H689 C705 0.930 . S
H690 C706 0.931 . S
C691 H679 0.929 . S
C691 C685 1.390 . S
C691 C688 1.386 . S
C692 C687 1.490 . S
C692 C694 1.395 . S
C692 C695 1.403 . S
H693 C699 0.930 . S
C694 H680 0.930 . S
C694 C692 1.395 . S
C694 C697 1.403 . S
C695 C692 1.403 . S
C695 C696 1.524 . S
C695 C699 1.400 . S
C696 H681 0.960 . S
C696 H682 0.960 . S
C696 H683 0.960 . S
C696 C695 1.524 . S
C697 C694 1.403 . S
C697 C698 1.392 . S
C697 C701 1.495 . S
C698 C697 1.392 . S
C698 C699 1.385 . S
C698 C700 1.478 . S
C699 H693 0.930 . S
C699 C695 1.400 . S
C699 C698 1.385 . S
C700 C698 1.478 . S
C700 C702 1.381 . S
C700 C706 1.383 . S
C701 C697 1.495 . S
C701 H707 0.959 . S
C701 H708 0.961 . S
C701 H709 0.960 . S
C702 C700 1.381 . S
C702 C703 1.394 . S
C702 H710 0.930 . S
C703 C702 1.394 . S
C703 C704 1.383 . S
C703 H711 0.929 1_565 S
C704 C703 1.383 . S
C704 C705 1.377 . S
C705 H689 0.930 . S
C705 C704 1.377 . S
C705 C706 1.379 . S
C706 H690 0.931 . S
C706 C700 1.383 . S
C706 C705 1.379 . S
H707 C701 0.959 . S
H708 C701 0.961 . S
H709 C701 0.960 . S
H710 C702 0.930 . S
H711 C703 0.929 1_545 S
H712 C720 0.929 . S
H713 C722 0.930 . S
H714 C724 0.930 . S
H715 C727 0.929 . S
H716 C730 0.930 . S
H717 C732 0.960 . S
H718 C732 0.960 . S
H719 C732 0.960 . S
C720 H712 0.929 . S
C720 C721 1.377 . S
C720 C722 1.384 . S
C721 C720 1.377 . S
C721 C727 1.390 . S
C722 H713 0.930 . S
C722 C720 1.384 . S
C722 C723 1.372 . S
C723 C722 1.372 . S
C723 C724 1.400 . S
C723 C728 1.490 . S
C724 H714 0.930 . S
C724 C723 1.400 . S
C724 C727 1.386 . S
H725 C741 0.930 . S
H726 C742 0.931 . S
C727 H715 0.929 . S
C727 C721 1.390 . S
C727 C724 1.386 . S
C728 C723 1.490 . S
C728 C730 1.395 . S
C728 C731 1.403 . S
H729 C735 0.930 . S
C730 H716 0.930 . S
C730 C728 1.395 . S
C730 C733 1.403 . S
C731 C728 1.403 . S
C731 C732 1.524 . S
C731 C735 1.400 . S
C732 H717 0.960 . S
C732 H718 0.960 . S
C732 H719 0.960 . S
C732 C731 1.524 . S
C733 C730 1.403 . S
C733 C734 1.392 . S
C733 C737 1.495 1_556 S
C734 C733 1.392 . S
C734 C735 1.385 . S
C734 C736 1.478 . S
C735 H729 0.930 . S
C735 C731 1.400 . S
C735 C734 1.385 . S
C736 C734 1.478 . S
C736 C738 1.381 . S
C736 C742 1.383 . S
C737 C733 1.495 1_554 S
C737 H743 0.959 . S
C737 H744 0.961 . S
C737 H745 0.960 . S
C738 C736 1.381 . S
C738 C739 1.394 . S
C738 H746 0.930 . S
C739 C738 1.394 . S
C739 C740 1.382 1_556 S
C739 H747 0.929 1_556 S
C740 C739 1.382 1_554 S
C740 C741 1.374 1_554 S
C741 H725 0.930 . S
C741 C740 1.374 1_556 S
C741 C742 1.379 . S
C742 H726 0.931 . S
C742 C736 1.383 . S
C742 C741 1.379 . S
H743 C737 0.959 . S
H744 C737 0.961 . S
H745 C737 0.960 . S
H746 C738 0.930 . S
H747 C739 0.929 1_554 S
H748 C756 0.929 . S
H749 C758 0.930 . S
H750 C760 0.930 . S
H751 C763 0.929 1_565 S
H752 C766 0.930 . S
H753 C768 0.960 . S
H754 C768 0.960 . S
H755 C768 0.960 . S
C756 H748 0.929 . S
C756 C757 1.377 . S
C756 C758 1.384 . S
C757 C756 1.377 . S
C757 C763 1.390 . S
C758 H749 0.930 . S
C758 C756 1.384 . S
C758 C759 1.372 . S
C759 C758 1.372 . S
C759 C760 1.400 . S
C759 C764 1.490 . S
C760 H750 0.930 . S
C760 C759 1.400 . S
C760 C763 1.386 . S
H761 C777 0.930 . S
H762 C778 0.931 . S
C763 H751 0.929 1_545 S
C763 C757 1.390 . S
C763 C760 1.386 . S
C764 C759 1.490 . S
C764 C766 1.395 . S
C764 C767 1.403 . S
H765 C771 0.930 . S
C766 H752 0.930 . S
C766 C764 1.395 . S
C766 C769 1.403 . S
C767 C764 1.403 . S
C767 C768 1.524 . S
C767 C771 1.400 . S
C768 H753 0.960 . S
C768 H754 0.960 . S
C768 H755 0.960 . S
C768 C767 1.524 . S
C769 C766 1.403 . S
C769 C770 1.392 . S
C769 C773 1.495 . S
C770 C769 1.392 . S
C770 C771 1.385 . S
C770 C772 1.478 . S
C771 H765 0.930 . S
C771 C767 1.400 . S
C771 C770 1.385 . S
C772 C770 1.478 . S
C772 C774 1.381 . S
C772 C778 1.383 . S
C773 C769 1.495 . S
C773 H779 0.959 . S
C773 H780 0.961 . S
C773 H781 0.960 . S
C774 C772 1.381 . S
C774 C775 1.394 . S
C774 H782 0.930 . S
C775 C774 1.394 . S
C775 C776 1.383 . S
C775 H783 0.929 . S
C776 C775 1.383 . S
C776 C777 1.377 . S
C777 H761 0.930 . S
C777 C776 1.377 . S
C777 C778 1.379 . S
C778 H762 0.931 . S
C778 C772 1.383 . S
C778 C777 1.379 . S
H779 C773 0.959 . S
H780 C773 0.961 . S
H781 C773 0.960 . S
H782 C774 0.930 . S
H783 C775 0.929 . S
H784 C792 0.929 . S
H785 C794 0.930 . S
H786 C796 0.930 . S
H787 C799 0.929 . S
H788 C802 0.930 . S
H789 C804 0.960 . S
H790 C804 0.960 . S
H791 C804 0.960 . S
C792 H784 0.929 . S
C792 C793 1.377 . S
C792 C794 1.384 . S
C793 C792 1.377 . S
C793 C799 1.390 . S
C794 H785 0.930 . S
C794 C792 1.384 . S
C794 C795 1.372 . S
C795 C794 1.372 . S
C795 C796 1.400 . S
C795 C800 1.490 . S
C796 H786 0.930 . S
C796 C795 1.400 . S
C796 C799 1.386 . S
H797 C813 0.930 . S
H798 C814 0.931 . S
C799 H787 0.929 . S
C799 C793 1.390 . S
C799 C796 1.386 . S
C800 C795 1.490 . S
C800 C802 1.395 . S
C800 C803 1.403 . S
H801 C807 0.930 . S
C802 H788 0.930 . S
C802 C800 1.395 . S
C802 C805 1.403 . S
C803 C800 1.403 . S
C803 C804 1.524 . S
C803 C807 1.400 . S
C804 H789 0.960 . S
C804 H790 0.960 . S
C804 H791 0.960 . S
C804 C803 1.524 . S
C805 C802 1.403 . S
C805 C806 1.392 . S
C805 C809 1.495 . S
C806 C805 1.392 . S
C806 C807 1.385 . S
C806 C808 1.478 . S
C807 H801 0.930 . S
C807 C803 1.400 . S
C807 C806 1.385 . S
C808 C806 1.478 . S
C808 C810 1.381 . S
C808 C814 1.383 . S
C809 C805 1.495 . S
C809 H815 0.959 . S
C809 H816 0.961 . S
C809 H817 0.960 . S
C810 C808 1.381 . S
C810 C811 1.394 . S
C810 H818 0.930 . S
C811 C810 1.394 . S
C811 C812 1.383 . S
C811 H819 0.929 . S
C812 C811 1.383 . S
C812 C813 1.377 . S
C813 H797 0.930 . S
C813 C812 1.377 . S
C813 C814 1.379 . S
C814 H798 0.931 . S
C814 C808 1.383 . S
C814 C813 1.379 . S
H815 C809 0.959 . S
H816 C809 0.961 . S
H817 C809 0.960 . S
H818 C810 0.930 . S
H819 C811 0.929 . S
H820 C828 0.929 . S
H821 C830 0.930 . S
H822 C832 0.930 . S
H823 C835 0.929 . S
H824 C838 0.930 . S
H825 C840 0.960 . S
H826 C840 0.960 . S
H827 C840 0.960 . S
C828 H820 0.929 . S
C828 C829 1.377 . S
C828 C830 1.384 . S
C829 C828 1.377 . S
C829 C835 1.390 . S
C830 H821 0.930 . S
C830 C828 1.384 . S
C830 C831 1.372 . S
C831 C830 1.372 . S
C831 C832 1.400 . S
C831 C836 1.490 . S
C832 H822 0.930 . S
C832 C831 1.400 . S
C832 C835 1.386 . S
H833 C849 0.930 1_565 S
H834 C850 0.931 . S
C835 H823 0.929 . S
C835 C829 1.390 . S
C835 C832 1.386 . S
C836 C831 1.490 . S
C836 C838 1.395 . S
C836 C839 1.403 . S
H837 C843 0.930 . S
C838 H824 0.930 . S
C838 C836 1.395 . S
C838 C841 1.403 . S
C839 C836 1.403 . S
C839 C840 1.524 . S
C839 C843 1.400 . S
C840 H825 0.960 . S
C840 H826 0.960 . S
C840 H827 0.960 . S
C840 C839 1.524 . S
C841 C838 1.403 . S
C841 C842 1.392 . S
C841 C845 1.495 . S
C842 C841 1.392 . S
C842 C843 1.385 . S
C842 C844 1.478 . S
C843 H837 0.930 . S
C843 C839 1.400 . S
C843 C842 1.385 . S
C844 C842 1.478 . S
C844 C846 1.381 . S
C844 C850 1.383 . S
C845 C841 1.495 . S
C845 H851 0.959 . S
C845 H852 0.961 . S
C845 H853 0.960 . S
C846 C844 1.381 . S
C846 C847 1.394 . S
C846 H854 0.930 . S
C847 C846 1.394 . S
C847 C848 1.383 . S
C847 H855 0.929 . S
C848 C847 1.383 . S
C848 C849 1.377 . S
C849 H833 0.930 1_545 S
C849 C848 1.377 . S
C849 C850 1.379 . S
C850 H834 0.931 . S
C850 C844 1.383 . S
C850 C849 1.379 . S
H851 C845 0.959 . S
H852 C845 0.961 . S
H853 C845 0.960 . S
H854 C846 0.930 . S
H855 C847 0.929 . S
H856 C864 0.929 . S
H857 C866 0.930 . S
H858 C868 0.930 . S
H859 C871 0.929 . S
H860 C874 0.930 . S
H861 C876 0.960 . S
H862 C876 0.960 . S
H863 C876 0.960 . S
C864 H856 0.929 . S
C864 C865 1.377 . S
C864 C866 1.384 . S
C865 C864 1.377 . S
C865 C871 1.390 . S
C866 H857 0.930 . S
C866 C864 1.384 . S
C866 C867 1.372 . S
C867 C866 1.372 . S
C867 C868 1.400 . S
C867 C872 1.490 . S
C868 H858 0.930 . S
C868 C867 1.400 . S
C868 C871 1.386 . S
H869 C885 0.930 . S
H870 C886 0.931 . S
C871 H859 0.929 . S
C871 C865 1.390 . S
C871 C868 1.386 . S
C872 C867 1.490 . S
C872 C874 1.395 . S
C872 C875 1.403 . S
H873 C879 0.930 . S
C874 H860 0.930 . S
C874 C872 1.395 . S
C874 C877 1.403 . S
C875 C872 1.403 . S
C875 C876 1.524 . S
C875 C879 1.400 . S
C876 H861 0.960 . S
C876 H862 0.960 . S
C876 H863 0.960 . S
C876 C875 1.524 . S
C877 C874 1.403 . S
C877 C878 1.392 . S
C877 C881 1.495 . S
C878 C877 1.392 . S
C878 C879 1.385 . S
C878 C880 1.478 . S
C879 H873 0.930 . S
C879 C875 1.400 . S
C879 C878 1.385 . S
C880 C878 1.478 . S
C880 C882 1.381 . S
C880 C886 1.383 . S
C881 C877 1.495 . S
C881 H887 0.959 . S
C881 H888 0.961 . S
C881 H889 0.960 . S
C882 C880 1.381 . S
C882 C883 1.394 . S
C882 H890 0.930 . S
C883 C882 1.394 . S
C883 C884 1.383 . S
C883 H891 0.929 . S
C884 C883 1.383 . S
C884 C885 1.377 . S
C885 H869 0.930 . S
C885 C884 1.377 . S
C885 C886 1.379 . S
C886 H870 0.931 . S
C886 C880 1.383 . S
C886 C885 1.379 . S
H887 C881 0.959 . S
H888 C881 0.961 . S
H889 C881 0.960 . S
H890 C882 0.930 . S
H891 C883 0.929 . S
H892 C900 0.929 . S
H893 C902 0.930 . S
H894 C904 0.919 1_554 S
H895 C907 0.929 . S
H896 C910 0.930 . S
H897 C912 0.960 . S
H898 C912 0.960 . S
H899 C912 0.960 1_554 S
C900 H892 0.929 . S
C900 C901 1.377 . S
C900 C902 1.384 . S
C901 C900 1.377 . S
C901 C907 1.390 1_556 S
C902 H893 0.930 . S
C902 C900 1.384 . S
C902 C903 1.372 . S
C903 C902 1.372 . S
C903 C904 1.400 . S
C903 C908 1.490 . S
C904 H894 0.919 1_556 S
C904 C903 1.400 . S
C904 C907 1.386 1_556 S
H905 C921 0.930 . S
H906 C922 0.931 . S
C907 H895 0.929 . S
C907 C901 1.390 1_554 S
C907 C904 1.386 1_554 S
C908 C903 1.490 . S
C908 C910 1.395 . S
C908 C911 1.403 . S
H909 C915 0.930 . S
C910 H896 0.930 . S
C910 C908 1.395 . S
C910 C913 1.403 . S
C911 C908 1.403 . S
C911 C912 1.524 . S
C911 C915 1.400 . S
C912 H897 0.960 . S
C912 H898 0.960 . S
C912 H899 0.960 1_556 S
C912 C911 1.524 . S
C913 C910 1.403 . S
C913 C914 1.392 . S
C913 C917 1.495 . S
C914 C913 1.392 . S
C914 C915 1.385 . S
C914 C916 1.478 . S
C915 H909 0.930 . S
C915 C911 1.400 . S
C915 C914 1.385 . S
C916 C914 1.478 . S
C916 C918 1.381 . S
C916 C922 1.383 . S
C917 C913 1.495 . S
C917 H923 0.959 . S
C917 H924 0.961 . S
C917 H925 0.960 . S
C918 C916 1.381 . S
C918 C919 1.394 . S
C918 H926 0.930 . S
C919 C918 1.394 . S
C919 C920 1.383 . S
C919 H927 0.929 . S
C920 C919 1.383 . S
C920 C921 1.377 . S
C921 H905 0.930 . S
C921 C920 1.377 . S
C921 C922 1.379 . S
C922 H906 0.931 . S
C922 C916 1.383 . S
C922 C921 1.379 . S
H923 C917 0.959 . S
H924 C917 0.961 . S
H925 C917 0.960 . S
H926 C918 0.930 . S
H927 C919 0.929 . S
H928 C936 0.929 . S
H929 C938 0.930 . S
H930 C940 0.930 . S
H931 C943 0.929 . S
H932 C946 0.930 . S
H933 C948 0.960 . S
H934 C948 0.960 . S
H935 C948 0.960 . S
C936 H928 0.929 . S
C936 C937 1.377 . S
C936 C938 1.384 . S
C937 C936 1.377 . S
C937 C943 1.390 . S
C938 H929 0.930 . S
C938 C936 1.384 . S
C938 C939 1.372 . S
C939 C938 1.372 . S
C939 C940 1.400 . S
C939 C944 1.490 . S
C940 H930 0.930 . S
C940 C939 1.400 . S
C940 C943 1.386 . S
H941 C957 0.930 . S
H942 C958 0.931 . S
C943 H931 0.929 . S
C943 C937 1.390 . S
C943 C940 1.386 . S
C944 C939 1.490 . S
C944 C946 1.395 . S
C944 C947 1.403 . S
H945 C951 0.930 . S
C946 H932 0.930 . S
C946 C944 1.395 . S
C946 C949 1.403 . S
C947 C944 1.403 . S
C947 C948 1.524 . S
C947 C951 1.400 . S
C948 H933 0.960 . S
C948 H934 0.960 . S
C948 H935 0.960 . S
C948 C947 1.524 . S
C949 C946 1.403 . S
C949 C950 1.392 . S
C949 C953 1.495 . S
C950 C949 1.392 . S
C950 C951 1.385 . S
C950 C952 1.478 . S
C951 H945 0.930 . S
C951 C947 1.400 . S
C951 C950 1.385 . S
C952 C950 1.478 . S
C952 C954 1.381 . S
C952 C958 1.383 . S
C953 C949 1.495 . S
C953 H959 0.959 . S
C953 H960 0.961 . S
C953 H961 0.960 . S
C954 C952 1.381 . S
C954 C955 1.394 . S
C954 H962 0.930 . S
C955 C954 1.394 . S
C955 C956 1.383 . S
C955 H963 0.929 . S
C956 C955 1.383 . S
C956 C957 1.377 . S
C957 H941 0.930 . S
C957 C956 1.377 . S
C957 C958 1.379 . S
C958 H942 0.931 . S
C958 C952 1.383 . S
C958 C957 1.379 . S
H959 C953 0.959 . S
H960 C953 0.961 . S
H961 C953 0.960 . S
H962 C954 0.930 . S
H963 C955 0.929 . S
H964 C972 0.929 . S
H965 C974 0.930 . S
H966 C976 0.930 . S
H967 C979 0.929 . S
H968 C982 0.930 . S
H969 C984 0.960 . S
H970 C984 0.960 . S
H971 C984 0.960 . S
C972 H964 0.929 . S
C972 C973 1.377 . S
C972 C974 1.384 . S
C973 C972 1.377 . S
C973 C979 1.390 . S
C974 H965 0.930 . S
C974 C972 1.384 . S
C974 C975 1.372 . S
C975 C974 1.372 . S
C975 C976 1.400 . S
C975 C980 1.490 . S
C976 H966 0.930 . S
C976 C975 1.400 . S
C976 C979 1.386 . S
H977 C993 0.930 . S
H978 C994 0.931 . S
C979 H967 0.929 . S
C979 C973 1.390 . S
C979 C976 1.386 . S
C980 C975 1.490 . S
C980 C982 1.395 . S
C980 C983 1.403 . S
H981 C987 0.930 . S
C982 H968 0.930 . S
C982 C980 1.395 . S
C982 C985 1.403 . S
C983 C980 1.403 . S
C983 C984 1.524 . S
C983 C987 1.400 . S
C984 H969 0.960 . S
C984 H970 0.960 . S
C984 H971 0.960 . S
C984 C983 1.524 . S
C985 C982 1.403 . S
C985 C986 1.392 . S
C985 C989 1.495 . S
C986 C985 1.392 . S
C986 C987 1.385 . S
C986 C988 1.478 . S
C987 H981 0.930 . S
C987 C983 1.400 . S
C987 C986 1.385 . S
C988 C986 1.478 . S
C988 C990 1.381 . S
C988 C994 1.383 . S
C989 C985 1.495 . S
C989 H995 0.959 . S
C989 H996 0.961 . S
C989 H997 0.960 . S
C990 C988 1.381 . S
C990 C991 1.394 . S
C990 H998 0.930 . S
C991 C990 1.394 . S
C991 C992 1.383 . S
C991 H999 0.929 . S
C992 C991 1.383 . S
C992 C993 1.377 . S
C993 H977 0.930 . S
C993 C992 1.377 . S
C993 C994 1.379 . S
C994 H978 0.931 . S
C994 C988 1.383 . S
C994 C993 1.379 . S
H995 C989 0.959 . S
H996 C989 0.961 . S
H997 C989 0.960 . S
H998 C990 0.930 . S
H999 C991 0.929 . S
H1000 C1008 0.929 . S
H1001 C1010 0.930 . S
H1002 C1012 0.930 . S
H1003 C1015 0.929 1_655 S
H1004 C1018 0.930 . S
H1005 C1020 0.960 . S
H1006 C1020 0.960 . S
H1007 C1020 0.960 . S
C1008 H1000 0.929 . S
C1008 C1009 1.377 . S
C1008 C1010 1.384 . S
C1009 C1008 1.377 . S
C1009 C1015 1.390 . S
C1010 H1001 0.930 . S
C1010 C1008 1.384 . S
C1010 C1011 1.372 . S
C1011 C1010 1.372 . S
C1011 C1012 1.400 . S
C1011 C1016 1.490 . S
C1012 H1002 0.930 . S
C1012 C1011 1.400 . S
C1012 C1015 1.386 . S
H1013 C1029 0.930 . S
H1014 C1030 0.931 . S
C1015 H1003 0.929 1_455 S
C1015 C1009 1.390 . S
C1015 C1012 1.386 . S
C1016 C1011 1.490 . S
C1016 C1018 1.395 . S
C1016 C1019 1.403 . S
H1017 C1023 0.930 . S
C1018 H1004 0.930 . S
C1018 C1016 1.395 . S
C1018 C1021 1.403 . S
C1019 C1016 1.403 . S
C1019 C1020 1.524 . S
C1019 C1023 1.400 . S
C1020 H1005 0.960 . S
C1020 H1006 0.960 . S
C1020 H1007 0.960 . S
C1020 C1019 1.524 . S
C1021 C1018 1.403 . S
C1021 C1022 1.392 . S
C1021 C1025 1.495 . S
C1022 C1021 1.392 . S
C1022 C1023 1.385 . S
C1022 C1024 1.478 . S
C1023 H1017 0.930 . S
C1023 C1019 1.400 . S
C1023 C1022 1.385 . S
C1024 C1022 1.478 . S
C1024 C1026 1.381 . S
C1024 C1030 1.383 . S
C1025 C1021 1.495 . S
C1025 H1031 0.959 . S
C1025 H1032 0.961 . S
C1025 H1033 0.960 . S
C1026 C1024 1.381 . S
C1026 C1027 1.394 . S
C1026 H1034 0.930 . S
C1027 C1026 1.394 . S
C1027 C1028 1.383 . S
C1027 H1035 0.929 . S
C1028 C1027 1.383 . S
C1028 C1029 1.377 . S
C1029 H1013 0.930 . S
C1029 C1028 1.377 . S
C1029 C1030 1.379 . S
C1030 H1014 0.931 . S
C1030 C1024 1.383 . S
C1030 C1029 1.379 . S
H1031 C1025 0.959 . S
H1032 C1025 0.961 . S
H1033 C1025 0.960 . S
H1034 C1026 0.930 . S
H1035 C1027 0.929 . S
H1036 C1044 0.929 . S
H1037 C1046 0.930 . S
H1038 C1048 0.930 . S
H1039 C1051 0.929 . S
H1040 C1054 0.930 . S
H1041 C1056 0.960 . S
H1042 C1056 0.960 . S
H1043 C1056 0.960 . S
C1044 H1036 0.929 . S
C1044 C1045 1.377 . S
C1044 C1046 1.384 . S
C1045 C1044 1.377 . S
C1045 C1051 1.390 . S
C1046 H1037 0.930 . S
C1046 C1044 1.384 . S
C1046 C1047 1.372 . S
C1047 C1046 1.372 . S
C1047 C1048 1.400 . S
C1047 C1052 1.490 . S
C1048 H1038 0.930 . S
C1048 C1047 1.400 . S
C1048 C1051 1.386 . S
H1049 C1065 0.930 . S
H1050 C1066 0.931 . S
C1051 H1039 0.929 . S
C1051 C1045 1.390 . S
C1051 C1048 1.386 . S
C1052 C1047 1.490 . S
C1052 C1054 1.395 . S
C1052 C1055 1.403 . S
H1053 C1059 0.930 . S
C1054 H1040 0.930 . S
C1054 C1052 1.395 . S
C1054 C1057 1.403 . S
C1055 C1052 1.403 . S
C1055 C1056 1.524 . S
C1055 C1059 1.400 . S
C1056 H1041 0.960 . S
C1056 H1042 0.960 . S
C1056 H1043 0.960 . S
C1056 C1055 1.524 . S
C1057 C1054 1.403 . S
C1057 C1058 1.392 . S
C1057 C1061 1.495 . S
C1058 C1057 1.392 . S
C1058 C1059 1.385 . S
C1058 C1060 1.478 . S
C1059 H1053 0.930 . S
C1059 C1055 1.400 . S
C1059 C1058 1.385 . S
C1060 C1058 1.478 . S
C1060 C1062 1.381 . S
C1060 C1066 1.383 . S
C1061 C1057 1.495 . S
C1061 H1067 0.959 . S
C1061 H1068 0.961 . S
C1061 H1069 0.960 . S
C1062 C1060 1.381 . S
C1062 C1063 1.394 . S
C1062 H1070 0.930 . S
C1063 C1062 1.394 . S
C1063 C1064 1.383 . S
C1063 H1071 0.929 . S
C1064 C1063 1.383 . S
C1064 C1065 1.377 . S
C1065 H1049 0.930 . S
C1065 C1064 1.377 . S
C1065 C1066 1.379 . S
C1066 H1050 0.931 . S
C1066 C1060 1.383 . S
C1066 C1065 1.379 . S
H1067 C1061 0.959 . S
H1068 C1061 0.961 . S
H1069 C1061 0.960 . S
H1070 C1062 0.930 . S
H1071 C1063 0.929 . S
H1072 C1080 0.929 . S
H1073 C1082 0.930 . S
H1074 C1084 0.930 . S
H1075 C1087 0.929 . S
H1076 C1090 0.930 . S
H1077 C1092 0.960 . S
H1078 C1092 0.960 . S
H1079 C1092 0.960 . S
C1080 H1072 0.929 . S
C1080 C1081 1.377 . S
C1080 C1082 1.384 . S
C1081 C1080 1.377 . S
C1081 C1087 1.390 . S
C1082 H1073 0.930 . S
C1082 C1080 1.384 . S
C1082 C1083 1.372 . S
C1083 C1082 1.372 . S
C1083 C1084 1.400 . S
C1083 C1088 1.490 . S
C1084 H1074 0.930 . S
C1084 C1083 1.400 . S
C1084 C1087 1.386 . S
H1085 C1101 0.930 . S
H1086 C1102 0.931 . S
C1087 H1075 0.929 . S
C1087 C1081 1.390 . S
C1087 C1084 1.386 . S
C1088 C1083 1.490 . S
C1088 C1090 1.395 . S
C1088 C1091 1.403 . S
H1089 C1095 0.930 . S
C1090 H1076 0.930 . S
C1090 C1088 1.395 . S
C1090 C1093 1.403 . S
C1091 C1088 1.403 . S
C1091 C1092 1.524 . S
C1091 C1095 1.400 . S
C1092 H1077 0.960 . S
C1092 H1078 0.960 . S
C1092 H1079 0.960 . S
C1092 C1091 1.524 . S
C1093 C1090 1.403 . S
C1093 C1094 1.392 . S
C1093 C1097 1.495 . S
C1094 C1093 1.392 . S
C1094 C1095 1.385 . S
C1094 C1096 1.478 . S
C1095 H1089 0.930 . S
C1095 C1091 1.400 . S
C1095 C1094 1.385 . S
C1096 C1094 1.478 . S
C1096 C1098 1.381 . S
C1096 C1102 1.383 . S
C1097 C1093 1.495 . S
C1097 H1103 0.959 . S
C1097 H1104 0.961 . S
C1097 H1105 0.960 . S
C1098 C1096 1.381 . S
C1098 C1099 1.394 . S
C1098 H1106 0.930 . S
C1099 C1098 1.394 . S
C1099 C1100 1.383 . S
C1099 H1107 0.929 . S
C1100 C1099 1.383 . S
C1100 C1101 1.377 . S
C1101 H1085 0.930 . S
C1101 C1100 1.377 . S
C1101 C1102 1.379 . S
C1102 H1086 0.931 . S
C1102 C1096 1.383 . S
C1102 C1101 1.379 . S
H1103 C1097 0.959 . S
H1104 C1097 0.961 . S
H1105 C1097 0.960 . S
H1106 C1098 0.930 . S
H1107 C1099 0.929 . S
H1108 C1116 0.929 . S
H1109 C1118 0.930 . S
H1110 C1120 0.930 . S
H1111 C1123 0.929 . S
H1112 C1126 0.930 . S
H1113 C1128 0.960 . S
H1114 C1128 0.960 . S
H1115 C1128 0.960 . S
C1116 H1108 0.929 . S
C1116 C1117 1.377 . S
C1116 C1118 1.384 . S
C1117 C1116 1.377 . S
C1117 C1123 1.390 1_554 S
C1118 H1109 0.930 . S
C1118 C1116 1.384 . S
C1118 C1119 1.372 1_554 S
C1119 C1118 1.372 1_556 S
C1119 C1120 1.400 . S
C1119 C1124 1.490 . S
C1120 H1110 0.930 . S
C1120 C1119 1.400 . S
C1120 C1123 1.386 . S
H1121 C1137 0.930 . S
H1122 C1138 0.931 . S
C1123 H1111 0.929 . S
C1123 C1117 1.390 1_556 S
C1123 C1120 1.386 . S
C1124 C1119 1.490 . S
C1124 C1126 1.395 . S
C1124 C1127 1.403 . S
H1125 C1131 0.930 . S
C1126 H1112 0.930 . S
C1126 C1124 1.395 . S
C1126 C1129 1.403 . S
C1127 C1124 1.403 . S
C1127 C1128 1.524 . S
C1127 C1131 1.400 . S
C1128 H1113 0.960 . S
C1128 H1114 0.960 . S
C1128 H1115 0.960 . S
C1128 C1127 1.524 . S
C1129 C1126 1.403 . S
C1129 C1130 1.392 . S
C1129 C1133 1.495 . S
C1130 C1129 1.392 . S
C1130 C1131 1.385 . S
C1130 C1132 1.478 . S
C1131 H1125 0.930 . S
C1131 C1127 1.400 . S
C1131 C1130 1.385 . S
C1132 C1130 1.478 . S
C1132 C1134 1.381 . S
C1132 C1138 1.383 . S
C1133 C1129 1.495 . S
C1133 H1139 0.959 . S
C1133 H1140 0.961 . S
C1133 H1141 0.960 . S
C1134 C1132 1.381 . S
C1134 C1135 1.394 . S
C1134 H1142 0.930 . S
C1135 C1134 1.394 . S
C1135 C1136 1.383 . S
C1135 H1143 0.929 . S
C1136 C1135 1.383 . S
C1136 C1137 1.377 . S
C1137 H1121 0.930 . S
C1137 C1136 1.377 . S
C1137 C1138 1.379 . S
C1138 H1122 0.931 . S
C1138 C1132 1.383 . S
C1138 C1137 1.379 . S
H1139 C1133 0.959 . S
H1140 C1133 0.961 . S
H1141 C1133 0.960 . S
H1142 C1134 0.930 . S
H1143 C1135 0.929 . S
H1144 C1152 0.929 . S
H1145 C1154 0.930 . S
H1146 C1156 0.930 . S
H1147 C1159 0.929 . S
H1148 C1162 0.930 . S
H1149 C1164 0.960 . S
H1150 C1164 0.960 . S
H1151 C1164 0.960 . S
C1152 H1144 0.929 . S
C1152 C1153 1.377 . S
C1152 C1154 1.384 . S
C1153 C1152 1.377 . S
C1153 C1159 1.390 . S
C1154 H1145 0.930 . S
C1154 C1152 1.384 . S
C1154 C1155 1.372 . S
C1155 C1154 1.372 . S
C1155 C1156 1.400 . S
C1155 C1160 1.490 . S
C1156 H1146 0.930 . S
C1156 C1155 1.400 . S
C1156 C1159 1.386 . S
H1157 C1173 0.930 . S
H1158 C1174 0.931 . S
C1159 H1147 0.929 . S
C1159 C1153 1.390 . S
C1159 C1156 1.386 . S
C1160 C1155 1.490 . S
C1160 C1162 1.395 . S
C1160 C1163 1.403 . S
H1161 C1167 0.930 . S
C1162 H1148 0.930 . S
C1162 C1160 1.395 . S
C1162 C1165 1.403 . S
C1163 C1160 1.403 . S
C1163 C1164 1.524 . S
C1163 C1167 1.400 . S
C1164 H1149 0.960 . S
C1164 H1150 0.960 . S
C1164 H1151 0.960 . S
C1164 C1163 1.524 . S
C1165 C1162 1.403 . S
C1165 C1166 1.392 . S
C1165 C1169 1.495 . S
C1166 C1165 1.392 . S
C1166 C1167 1.385 . S
C1166 C1168 1.478 . S
C1167 H1161 0.930 . S
C1167 C1163 1.400 . S
C1167 C1166 1.385 . S
C1168 C1166 1.478 . S
C1168 C1170 1.381 . S
C1168 C1174 1.383 . S
C1169 C1165 1.495 . S
C1169 H1175 0.959 . S
C1169 H1176 0.961 . S
C1169 H1177 0.960 . S
C1170 C1168 1.381 . S
C1170 C1171 1.394 . S
C1170 H1178 0.930 . S
C1171 C1170 1.394 . S
C1171 C1172 1.383 . S
C1171 H1179 0.929 1_655 S
C1172 C1171 1.383 . S
C1172 C1173 1.377 . S
C1173 H1157 0.930 . S
C1173 C1172 1.377 . S
C1173 C1174 1.379 . S
C1174 H1158 0.931 . S
C1174 C1168 1.383 . S
C1174 C1173 1.379 . S
H1175 C1169 0.959 . S
H1176 C1169 0.961 . S
H1177 C1169 0.960 . S
H1178 C1170 0.930 . S
H1179 C1171 0.929 1_455 S
H1180 C1188 0.929 . S
H1181 C1190 0.930 . S
H1182 C1192 0.930 . S
H1183 C1195 0.929 . S
H1184 C1198 0.930 . S
H1185 C1200 0.960 . S
H1186 C1200 0.960 . S
H1187 C1200 0.960 . S
C1188 H1180 0.929 . S
C1188 C1189 1.377 . S
C1188 C1190 1.384 . S
C1189 C1188 1.377 . S
C1189 C1195 1.390 . S
C1190 H1181 0.930 . S
C1190 C1188 1.384 . S
C1190 C1191 1.372 . S
C1191 C1190 1.372 . S
C1191 C1192 1.400 . S
C1191 C1196 1.490 . S
C1192 H1182 0.930 . S
C1192 C1191 1.400 . S
C1192 C1195 1.386 . S
H1193 C1209 0.930 . S
H1194 C1210 0.931 . S
C1195 H1183 0.929 . S
C1195 C1189 1.390 . S
C1195 C1192 1.386 . S
C1196 C1191 1.490 . S
C1196 C1198 1.395 . S
C1196 C1199 1.403 . S
H1197 C1203 0.930 . S
C1198 H1184 0.930 . S
C1198 C1196 1.395 . S
C1198 C1201 1.403 . S
C1199 C1196 1.403 . S
C1199 C1200 1.524 . S
C1199 C1203 1.400 . S
C1200 H1185 0.960 . S
C1200 H1186 0.960 . S
C1200 H1187 0.960 . S
C1200 C1199 1.524 . S
C1201 C1198 1.403 . S
C1201 C1202 1.392 . S
C1201 C1205 1.495 . S
C1202 C1201 1.392 . S
C1202 C1203 1.385 . S
C1202 C1204 1.478 . S
C1203 H1197 0.930 . S
C1203 C1199 1.400 . S
C1203 C1202 1.385 . S
C1204 C1202 1.478 . S
C1204 C1206 1.381 . S
C1204 C1210 1.383 . S
C1205 C1201 1.495 . S
C1205 H1211 0.959 . S
C1205 H1212 0.961 . S
C1205 H1213 0.960 . S
C1206 C1204 1.381 . S
C1206 C1207 1.394 . S
C1206 H1214 0.930 . S
C1207 C1206 1.394 . S
C1207 C1208 1.383 . S
C1207 H1215 0.929 . S
C1208 C1207 1.383 . S
C1208 C1209 1.377 . S
C1209 H1193 0.930 . S
C1209 C1208 1.377 . S
C1209 C1210 1.379 . S
C1210 H1194 0.931 . S
C1210 C1204 1.383 . S
C1210 C1209 1.379 . S
H1211 C1205 0.959 . S
H1212 C1205 0.961 . S
H1213 C1205 0.960 . S
H1214 C1206 0.930 . S
H1215 C1207 0.929 . S
H1216 C1224 0.929 . S
H1217 C1226 0.930 . S
H1218 C1228 0.930 . S
H1219 C1231 0.929 . S
H1220 C1234 0.930 . S
H1221 C1236 0.960 . S
H1222 C1236 0.960 . S
H1223 C1236 0.960 . S
C1224 H1216 0.929 . S
C1224 C1225 1.377 . S
C1224 C1226 1.384 . S
C1225 C1224 1.377 . S
C1225 C1231 1.390 . S
C1226 H1217 0.930 . S
C1226 C1224 1.384 . S
C1226 C1227 1.372 . S
C1227 C1226 1.372 . S
C1227 C1228 1.400 . S
C1227 C1232 1.490 . S
C1228 H1218 0.930 . S
C1228 C1227 1.400 . S
C1228 C1231 1.386 . S
H1229 C1245 0.930 . S
H1230 C1246 0.931 . S
C1231 H1219 0.929 . S
C1231 C1225 1.390 . S
C1231 C1228 1.386 . S
C1232 C1227 1.490 . S
C1232 C1234 1.395 . S
C1232 C1235 1.403 . S
H1233 C1239 0.930 . S
C1234 H1220 0.930 . S
C1234 C1232 1.395 . S
C1234 C1237 1.403 . S
C1235 C1232 1.403 . S
C1235 C1236 1.524 . S
C1235 C1239 1.400 . S
C1236 H1221 0.960 . S
C1236 H1222 0.960 . S
C1236 H1223 0.960 . S
C1236 C1235 1.524 . S
C1237 C1234 1.403 . S
C1237 C1238 1.392 . S
C1237 C1241 1.495 . S
C1238 C1237 1.392 . S
C1238 C1239 1.385 . S
C1238 C1240 1.478 . S
C1239 H1233 0.930 . S
C1239 C1235 1.400 . S
C1239 C1238 1.385 . S
C1240 C1238 1.478 . S
C1240 C1242 1.381 . S
C1240 C1246 1.383 . S
C1241 C1237 1.495 . S
C1241 H1247 0.959 . S
C1241 H1248 0.961 . S
C1241 H1249 0.960 . S
C1242 C1240 1.381 . S
C1242 C1243 1.387 1_655 S
C1242 H1250 0.930 . S
C1243 C1242 1.387 1_455 S
C1243 C1244 1.381 1_455 S
C1243 H1251 0.939 . S
C1244 C1243 1.381 1_655 S
C1244 C1245 1.377 . S
C1245 H1229 0.930 . S
C1245 C1244 1.377 . S
C1245 C1246 1.379 . S
C1246 H1230 0.931 . S
C1246 C1240 1.383 . S
C1246 C1245 1.379 . S
H1247 C1241 0.959 . S
H1248 C1241 0.961 . S
H1249 C1241 0.960 . S
H1250 C1242 0.930 . S
H1251 C1243 0.939 . S
H1252 C1260 0.929 . S
H1253 C1262 0.930 . S
H1254 C1264 0.930 . S
H1255 C1267 0.929 . S
H1256 C1270 0.930 . S
H1257 C1272 0.960 . S
H1258 C1272 0.960 . S
H1259 C1272 0.960 . S
C1260 H1252 0.929 . S
C1260 C1261 1.377 . S
C1260 C1262 1.384 . S
C1261 C1260 1.377 . S
C1261 C1267 1.390 . S
C1262 H1253 0.930 . S
C1262 C1260 1.384 . S
C1262 C1263 1.372 . S
C1263 C1262 1.372 . S
C1263 C1264 1.400 . S
C1263 C1268 1.490 . S
C1264 H1254 0.930 . S
C1264 C1263 1.400 . S
C1264 C1267 1.386 . S
H1265 C1281 0.930 . S
H1266 C1282 0.931 . S
C1267 H1255 0.929 . S
C1267 C1261 1.390 . S
C1267 C1264 1.386 . S
C1268 C1263 1.490 . S
C1268 C1270 1.395 . S
C1268 C1271 1.403 . S
H1269 C1275 0.930 . S
C1270 H1256 0.930 . S
C1270 C1268 1.395 . S
C1270 C1273 1.403 . S
C1271 C1268 1.403 . S
C1271 C1272 1.524 . S
C1271 C1275 1.400 . S
C1272 H1257 0.960 . S
C1272 H1258 0.960 . S
C1272 H1259 0.960 . S
C1272 C1271 1.524 . S
C1273 C1270 1.403 . S
C1273 C1274 1.392 . S
C1273 C1277 1.495 . S
C1274 C1273 1.392 . S
C1274 C1275 1.385 . S
C1274 C1276 1.478 . S
C1275 H1269 0.930 . S
C1275 C1271 1.400 . S
C1275 C1274 1.385 . S
C1276 C1274 1.478 . S
C1276 C1278 1.381 . S
C1276 C1282 1.383 . S
C1277 C1273 1.495 . S
C1277 H1283 0.959 . S
C1277 H1284 0.961 . S
C1277 H1285 0.960 . S
C1278 C1276 1.381 . S
C1278 C1279 1.394 . S
C1278 H1286 0.930 . S
C1279 C1278 1.394 . S
C1279 C1280 1.383 . S
C1279 H1287 0.929 . S
C1280 C1279 1.383 . S
C1280 C1281 1.377 . S
C1281 H1265 0.930 . S
C1281 C1280 1.377 . S
C1281 C1282 1.379 . S
C1282 H1266 0.931 . S
C1282 C1276 1.383 . S
C1282 C1281 1.379 . S
H1283 C1277 0.959 . S
H1284 C1277 0.961 . S
H1285 C1277 0.960 . S
H1286 C1278 0.930 . S
H1287 C1279 0.929 . S
H1288 C1296 0.929 . S
H1289 C1298 0.930 . S
H1290 C1300 0.930 . S
H1291 C1303 0.929 . S
H1292 C1306 0.930 . S
H1293 C1308 0.960 . S
H1294 C1308 0.960 . S
H1295 C1308 0.960 . S
C1296 H1288 0.929 . S
C1296 C1297 1.377 . S
C1296 C1298 1.384 . S
C1297 C1296 1.377 . S
C1297 C1303 1.390 . S
C1298 H1289 0.930 . S
C1298 C1296 1.384 . S
C1298 C1299 1.372 . S
C1299 C1298 1.372 . S
C1299 C1300 1.400 . S
C1299 C1304 1.490 . S
C1300 H1290 0.930 . S
C1300 C1299 1.400 . S
C1300 C1303 1.386 . S
H1301 C1317 0.930 . S
H1302 C1318 0.931 . S
C1303 H1291 0.929 . S
C1303 C1297 1.390 . S
C1303 C1300 1.386 . S
C1304 C1299 1.490 . S
C1304 C1306 1.395 . S
C1304 C1307 1.403 . S
H1305 C1311 0.930 . S
C1306 H1292 0.930 . S
C1306 C1304 1.395 . S
C1306 C1309 1.403 . S
C1307 C1304 1.403 . S
C1307 C1308 1.524 . S
C1307 C1311 1.400 . S
C1308 H1293 0.960 . S
C1308 H1294 0.960 . S
C1308 H1295 0.960 . S
C1308 C1307 1.524 . S
C1309 C1306 1.403 . S
C1309 C1310 1.392 . S
C1309 C1313 1.495 . S
C1310 C1309 1.392 . S
C1310 C1311 1.385 . S
C1310 C1312 1.478 . S
C1311 H1305 0.930 . S
C1311 C1307 1.400 . S
C1311 C1310 1.385 . S
C1312 C1310 1.478 . S
C1312 C1314 1.381 . S
C1312 C1318 1.383 . S
C1313 C1309 1.495 . S
C1313 H1319 0.959 . S
C1313 H1320 0.961 . S
C1313 H1321 0.960 . S
C1314 C1312 1.381 . S
C1314 C1315 1.394 . S
C1314 H1322 0.930 . S
C1315 C1314 1.394 . S
C1315 C1316 1.383 . S
C1315 H1323 0.929 . S
C1316 C1315 1.383 . S
C1316 C1317 1.377 . S
C1317 H1301 0.930 . S
C1317 C1316 1.377 . S
C1317 C1318 1.379 . S
C1318 H1302 0.931 . S
C1318 C1312 1.383 . S
C1318 C1317 1.379 . S
H1319 C1313 0.959 . S
H1320 C1313 0.961 . S
H1321 C1313 0.960 . S
H1322 C1314 0.930 . S
H1323 C1315 0.929 . S
H1324 C1332 0.929 . S
H1325 C1334 0.930 . S
H1326 C1336 0.930 . S
H1327 C1339 0.929 . S
H1328 C1342 0.930 . S
H1329 C1344 0.960 . S
H1330 C1344 0.960 . S
H1331 C1344 0.960 . S
C1332 H1324 0.929 . S
C1332 C1333 1.377 . S
C1332 C1334 1.384 . S
C1333 C1332 1.377 . S
C1333 C1339 1.390 . S
C1334 H1325 0.930 . S
C1334 C1332 1.384 . S
C1334 C1335 1.372 . S
C1335 C1334 1.372 . S
C1335 C1336 1.400 . S
C1335 C1340 1.490 . S
C1336 H1326 0.930 . S
C1336 C1335 1.400 . S
C1336 C1339 1.386 . S
H1337 C1353 0.930 . S
H1338 C1354 0.931 . S
C1339 H1327 0.929 . S
C1339 C1333 1.390 . S
C1339 C1336 1.386 . S
C1340 C1335 1.490 . S
C1340 C1342 1.395 . S
C1340 C1343 1.403 . S
H1341 C1347 0.930 . S
C1342 H1328 0.930 . S
C1342 C1340 1.395 . S
C1342 C1345 1.403 . S
C1343 C1340 1.403 . S
C1343 C1344 1.524 . S
C1343 C1347 1.400 . S
C1344 H1329 0.960 . S
C1344 H1330 0.960 . S
C1344 H1331 0.960 . S
C1344 C1343 1.524 . S
C1345 C1342 1.403 . S
C1345 C1346 1.392 . S
C1345 C1349 1.495 . S
C1346 C1345 1.392 . S
C1346 C1347 1.385 . S
C1346 C1348 1.478 . S
C1347 H1341 0.930 . S
C1347 C1343 1.400 . S
C1347 C1346 1.385 . S
C1348 C1346 1.478 . S
C1348 C1350 1.381 . S
C1348 C1354 1.383 . S
C1349 C1345 1.495 . S
C1349 H1355 0.959 . S
C1349 H1356 0.961 . S
C1349 H1357 0.960 . S
C1350 C1348 1.381 . S
C1350 C1351 1.394 . S
C1350 H1358 0.930 . S
C1351 C1350 1.394 . S
C1351 C1352 1.383 . S
C1351 H1359 0.929 . S
C1352 C1351 1.383 . S
C1352 C1353 1.377 . S
C1353 H1337 0.930 . S
C1353 C1352 1.377 . S
C1353 C1354 1.379 . S
C1354 H1338 0.931 . S
C1354 C1348 1.383 . S
C1354 C1353 1.379 . S
H1355 C1349 0.959 . S
H1356 C1349 0.961 . S
H1357 C1349 0.960 . S
H1358 C1350 0.930 . S
H1359 C1351 0.929 . S
H1360 C1368 0.929 . S
H1361 C1370 0.930 . S
H1362 C1372 0.930 . S
H1363 C1375 0.929 . S
H1364 C1378 0.930 . S
H1365 C1380 0.960 . S
H1366 C1380 0.960 . S
H1367 C1380 0.960 . S
C1368 H1360 0.929 . S
C1368 C1369 1.377 . S
C1368 C1370 1.384 . S
C1369 C1368 1.377 . S
C1369 C1375 1.390 . S
C1370 H1361 0.930 . S
C1370 C1368 1.384 . S
C1370 C1371 1.372 . S
C1371 C1370 1.372 . S
C1371 C1372 1.400 . S
C1371 C1376 1.490 . S
C1372 H1362 0.930 . S
C1372 C1371 1.400 . S
C1372 C1375 1.386 . S
H1373 C1389 0.930 1_655 S
H1374 C1390 0.931 . S
C1375 H1363 0.929 . S
C1375 C1369 1.390 . S
C1375 C1372 1.386 . S
C1376 C1371 1.490 . S
C1376 C1378 1.395 . S
C1376 C1379 1.403 . S
H1377 C1383 0.930 . S
C1378 H1364 0.930 . S
C1378 C1376 1.395 . S
C1378 C1381 1.403 . S
C1379 C1376 1.403 . S
C1379 C1380 1.524 . S
C1379 C1383 1.400 . S
C1380 H1365 0.960 . S
C1380 H1366 0.960 . S
C1380 H1367 0.960 . S
C1380 C1379 1.524 . S
C1381 C1378 1.403 . S
C1381 C1382 1.392 . S
C1381 C1385 1.495 . S
C1382 C1381 1.392 . S
C1382 C1383 1.385 . S
C1382 C1384 1.478 . S
C1383 H1377 0.930 . S
C1383 C1379 1.400 . S
C1383 C1382 1.385 . S
C1384 C1382 1.478 . S
C1384 C1386 1.381 . S
C1384 C1390 1.383 . S
C1385 C1381 1.495 . S
C1385 H1391 0.959 . S
C1385 H1392 0.961 . S
C1385 H1393 0.960 . S
C1386 C1384 1.381 . S
C1386 C1387 1.394 . S
C1386 H1394 0.930 . S
C1387 C1386 1.394 . S
C1387 C1388 1.383 . S
C1387 H1395 0.929 . S
C1388 C1387 1.383 . S
C1388 C1389 1.377 . S
C1389 H1373 0.930 1_455 S
C1389 C1388 1.377 . S
C1389 C1390 1.379 . S
C1390 H1374 0.931 . S
C1390 C1384 1.383 . S
C1390 C1389 1.379 . S
H1391 C1385 0.959 . S
H1392 C1385 0.961 . S
H1393 C1385 0.960 . S
H1394 C1386 0.930 . S
H1395 C1387 0.929 . S
H1396 C1404 0.929 . S
H1397 C1406 0.930 . S
H1398 C1408 0.930 . S
H1399 C1411 0.929 . S
H1400 C1414 0.930 . S
H1401 C1416 0.960 . S
H1402 C1416 0.960 . S
H1403 C1416 0.960 . S
C1404 H1396 0.929 . S
C1404 C1405 1.377 . S
C1404 C1406 1.384 . S
C1405 C1404 1.377 . S
C1405 C1411 1.390 . S
C1406 H1397 0.930 . S
C1406 C1404 1.384 . S
C1406 C1407 1.372 . S
C1407 C1406 1.372 . S
C1407 C1408 1.400 . S
C1407 C1412 1.490 . S
C1408 H1398 0.930 . S
C1408 C1407 1.400 . S
C1408 C1411 1.386 . S
H1409 C1425 0.930 . S
H1410 C1426 0.931 . S
C1411 H1399 0.929 . S
C1411 C1405 1.390 . S
C1411 C1408 1.386 . S
C1412 C1407 1.490 . S
C1412 C1414 1.395 . S
C1412 C1415 1.403 . S
H1413 C1419 0.930 . S
C1414 H1400 0.930 . S
C1414 C1412 1.395 . S
C1414 C1417 1.403 . S
C1415 C1412 1.403 . S
C1415 C1416 1.524 . S
C1415 C1419 1.400 . S
C1416 H1401 0.960 . S
C1416 H1402 0.960 . S
C1416 H1403 0.960 . S
C1416 C1415 1.524 . S
C1417 C1414 1.403 . S
C1417 C1418 1.392 . S
C1417 C1421 1.495 . S
C1418 C1417 1.392 . S
C1418 C1419 1.385 . S
C1418 C1420 1.478 . S
C1419 H1413 0.930 . S
C1419 C1415 1.400 . S
C1419 C1418 1.385 . S
C1420 C1418 1.478 . S
C1420 C1422 1.381 . S
C1420 C1426 1.383 . S
C1421 C1417 1.495 . S
C1421 H1427 0.959 . S
C1421 H1428 0.961 . S
C1421 H1429 0.960 . S
C1422 C1420 1.381 . S
C1422 C1423 1.394 . S
C1422 H1430 0.930 . S
C1423 C1422 1.394 . S
C1423 C1424 1.383 . S
C1423 H1431 0.929 . S
C1424 C1423 1.383 . S
C1424 C1425 1.377 . S
C1425 H1409 0.930 . S
C1425 C1424 1.377 . S
C1425 C1426 1.379 . S
C1426 H1410 0.931 . S
C1426 C1420 1.383 . S
C1426 C1425 1.379 . S
H1427 C1421 0.959 . S
H1428 C1421 0.961 . S
H1429 C1421 0.960 . S
H1430 C1422 0.930 . S
H1431 C1423 0.929 . S
H1432 C1440 0.929 . S
H1433 C1442 0.930 . S
H1434 C1444 0.930 . S
H1435 C1447 0.929 . S
H1436 C1450 0.930 . S
H1437 C1452 0.960 . S
H1438 C1452 0.960 . S
H1439 C1452 0.960 . S
C1440 H1432 0.929 . S
C1440 C1441 1.377 . S
C1440 C1442 1.384 . S
C1441 C1440 1.377 . S
C1441 C1447 1.390 . S
C1442 H1433 0.930 . S
C1442 C1440 1.384 . S
C1442 C1443 1.372 . S
C1443 C1442 1.372 . S
C1443 C1444 1.400 . S
C1443 C1448 1.490 . S
C1444 H1434 0.930 . S
C1444 C1443 1.400 . S
C1444 C1447 1.386 . S
H1445 C1461 0.930 . S
H1446 C1462 0.931 . S
C1447 H1435 0.929 . S
C1447 C1441 1.390 . S
C1447 C1444 1.386 . S
C1448 C1443 1.490 . S
C1448 C1450 1.395 . S
C1448 C1451 1.403 . S
H1449 C1455 0.930 . S
C1450 H1436 0.930 . S
C1450 C1448 1.395 . S
C1450 C1453 1.403 . S
C1451 C1448 1.403 . S
C1451 C1452 1.524 . S
C1451 C1455 1.400 . S
C1452 H1437 0.960 . S
C1452 H1438 0.960 . S
C1452 H1439 0.960 . S
C1452 C1451 1.524 . S
C1453 C1450 1.403 . S
C1453 C1454 1.392 . S
C1453 C1457 1.495 . S
C1454 C1453 1.392 . S
C1454 C1455 1.385 . S
C1454 C1456 1.478 . S
C1455 H1449 0.930 . S
C1455 C1451 1.400 . S
C1455 C1454 1.385 . S
C1456 C1454 1.478 . S
C1456 C1458 1.381 . S
C1456 C1462 1.383 . S
C1457 C1453 1.495 . S
C1457 H1463 0.959 . S
C1457 H1464 0.961 . S
C1457 H1465 0.960 . S
C1458 C1456 1.381 . S
C1458 C1459 1.394 . S
C1458 H1466 0.930 . S
C1459 C1458 1.394 . S
C1459 C1460 1.383 . S
C1459 H1467 0.929 . S
C1460 C1459 1.383 . S
C1460 C1461 1.377 . S
C1461 H1445 0.930 . S
C1461 C1460 1.377 . S
C1461 C1462 1.379 . S
C1462 H1446 0.931 . S
C1462 C1456 1.383 . S
C1462 C1461 1.379 . S
H1463 C1457 0.959 . S
H1464 C1457 0.961 . S
H1465 C1457 0.960 . S
H1466 C1458 0.930 . S
H1467 C1459 0.929 . S
H1468 C1476 0.929 . S
H1469 C1478 0.930 . S
H1470 C1480 0.930 . S
H1471 C1483 0.929 . S
H1472 C1486 0.930 . S
H1473 C1488 0.960 . S
H1474 C1488 0.960 . S
H1475 C1488 0.960 . S
C1476 H1468 0.929 . S
C1476 C1477 1.377 . S
C1476 C1478 1.384 . S
C1477 C1476 1.377 . S
C1477 C1483 1.390 . S
C1478 H1469 0.930 . S
C1478 C1476 1.384 . S
C1478 C1479 1.372 . S
C1479 C1478 1.372 . S
C1479 C1480 1.400 . S
C1479 C1484 1.490 . S
C1480 H1470 0.930 . S
C1480 C1479 1.400 . S
C1480 C1483 1.386 . S
H1481 C1497 0.930 . S
H1482 C1498 0.931 . S
C1483 H1471 0.929 . S
C1483 C1477 1.390 . S
C1483 C1480 1.386 . S
C1484 C1479 1.490 . S
C1484 C1486 1.395 . S
C1484 C1487 1.403 . S
H1485 C1491 0.930 . S
C1486 H1472 0.930 . S
C1486 C1484 1.395 . S
C1486 C1489 1.403 . S
C1487 C1484 1.403 . S
C1487 C1488 1.524 . S
C1487 C1491 1.400 . S
C1488 H1473 0.960 . S
C1488 H1474 0.960 . S
C1488 H1475 0.960 . S
C1488 C1487 1.524 . S
C1489 C1486 1.403 . S
C1489 C1490 1.392 . S
C1489 C1493 1.495 . S
C1490 C1489 1.392 . S
C1490 C1491 1.385 . S
C1490 C1492 1.478 . S
C1491 H1485 0.930 . S
C1491 C1487 1.400 . S
C1491 C1490 1.385 . S
C1492 C1490 1.478 . S
C1492 C1494 1.381 . S
C1492 C1498 1.383 1_556 S
C1493 C1489 1.495 . S
C1493 H1499 0.959 . S
C1493 H1500 0.961 . S
C1493 H1501 0.960 . S
C1494 C1492 1.381 . S
C1494 C1495 1.394 . S
C1494 H1502 0.930 . S
C1495 C1494 1.394 . S
C1495 C1496 1.383 1_556 S
C1495 H1503 0.929 . S
C1496 C1495 1.383 1_554 S
C1496 C1497 1.377 . S
C1497 H1481 0.930 . S
C1497 C1496 1.377 . S
C1497 C1498 1.379 . S
C1498 H1482 0.931 . S
C1498 C1492 1.383 1_554 S
C1498 C1497 1.379 . S
H1499 C1493 0.959 . S
H1500 C1493 0.961 . S
H1501 C1493 0.960 . S
H1502 C1494 0.930 . S
H1503 C1495 0.929 . S
H1504 C1512 0.929 . S
H1505 C1514 0.930 . S
H1506 C1516 0.930 . S
H1507 C1519 0.929 . S
H1508 C1522 0.930 . S
H1509 C1524 0.960 . S
H1510 C1524 0.960 . S
H1511 C1524 0.960 . S
C1512 H1504 0.929 . S
C1512 C1513 1.377 . S
C1512 C1514 1.384 . S
C1513 C1512 1.377 . S
C1513 C1519 1.390 . S
C1514 H1505 0.930 . S
C1514 C1512 1.384 . S
C1514 C1515 1.372 . S
C1515 C1514 1.372 . S
C1515 C1516 1.400 . S
C1515 C1520 1.490 . S
C1516 H1506 0.930 . S
C1516 C1515 1.400 . S
C1516 C1519 1.386 . S
H1517 C1533 0.930 . S
H1518 C1534 0.931 . S
C1519 H1507 0.929 . S
C1519 C1513 1.390 . S
C1519 C1516 1.386 . S
C1520 C1515 1.490 . S
C1520 C1522 1.395 . S
C1520 C1523 1.403 . S
H1521 C1527 0.930 . S
C1522 H1508 0.930 . S
C1522 C1520 1.395 . S
C1522 C1525 1.403 . S
C1523 C1520 1.403 . S
C1523 C1524 1.524 . S
C1523 C1527 1.400 . S
C1524 H1509 0.960 . S
C1524 H1510 0.960 . S
C1524 H1511 0.960 . S
C1524 C1523 1.524 . S
C1525 C1522 1.403 . S
C1525 C1526 1.392 . S
C1525 C1529 1.495 . S
C1526 C1525 1.392 . S
C1526 C1527 1.385 . S
C1526 C1528 1.478 . S
C1527 H1521 0.930 . S
C1527 C1523 1.400 . S
C1527 C1526 1.385 . S
C1528 C1526 1.478 . S
C1528 C1530 1.381 . S
C1528 C1534 1.383 . S
C1529 C1525 1.495 . S
C1529 H1535 0.959 . S
C1529 H1536 0.961 . S
C1529 H1537 0.960 . S
C1530 C1528 1.381 . S
C1530 C1531 1.394 . S
C1530 H1538 0.930 . S
C1531 C1530 1.394 . S
C1531 C1532 1.383 . S
C1531 H1539 0.929 . S
C1532 C1531 1.383 . S
C1532 C1533 1.377 . S
C1533 H1517 0.930 . S
C1533 C1532 1.377 . S
C1533 C1534 1.379 . S
C1534 H1518 0.931 . S
C1534 C1528 1.383 . S
C1534 C1533 1.379 . S
H1535 C1529 0.959 . S
H1536 C1529 0.961 . S
H1537 C1529 0.960 . S
H1538 C1530 0.930 . S
H1539 C1531 0.929 . S
H1540 C1548 0.929 . S
H1541 C1550 0.930 . S
H1542 C1552 0.930 . S
H1543 C1555 0.929 . S
H1544 C1558 0.930 . S
H1545 C1560 0.960 . S
H1546 C1560 0.960 . S
H1547 C1560 0.960 . S
C1548 H1540 0.929 . S
C1548 C1549 1.377 . S
C1548 C1550 1.384 . S
C1549 C1548 1.377 . S
C1549 C1555 1.390 . S
C1550 H1541 0.930 . S
C1550 C1548 1.384 . S
C1550 C1551 1.372 . S
C1551 C1550 1.372 . S
C1551 C1552 1.400 . S
C1551 C1556 1.490 . S
C1552 H1542 0.930 . S
C1552 C1551 1.400 . S
C1552 C1555 1.386 . S
H1553 C1569 0.930 . S
H1554 C1570 0.931 . S
C1555 H1543 0.929 . S
C1555 C1549 1.390 . S
C1555 C1552 1.386 . S
C1556 C1551 1.490 . S
C1556 C1558 1.395 . S
C1556 C1559 1.403 . S
H1557 C1563 0.930 . S
C1558 H1544 0.930 . S
C1558 C1556 1.395 . S
C1558 C1561 1.403 . S
C1559 C1556 1.403 . S
C1559 C1560 1.524 . S
C1559 C1563 1.400 . S
C1560 H1545 0.960 . S
C1560 H1546 0.960 . S
C1560 H1547 0.960 . S
C1560 C1559 1.524 . S
C1561 C1558 1.403 . S
C1561 C1562 1.392 . S
C1561 C1565 1.495 . S
C1562 C1561 1.392 . S
C1562 C1563 1.385 . S
C1562 C1564 1.478 . S
C1563 H1557 0.930 . S
C1563 C1559 1.400 . S
C1563 C1562 1.385 . S
C1564 C1562 1.478 . S
C1564 C1566 1.381 . S
C1564 C1570 1.383 . S
C1565 C1561 1.495 . S
C1565 H1571 0.959 . S
C1565 H1572 0.961 . S
C1565 H1573 0.960 . S
C1566 C1564 1.381 . S
C1566 C1567 1.394 . S
C1566 H1574 0.930 . S
C1567 C1566 1.394 . S
C1567 C1568 1.383 . S
C1567 H1575 0.929 . S
C1568 C1567 1.383 . S
C1568 C1569 1.377 . S
C1569 H1553 0.930 . S
C1569 C1568 1.377 . S
C1569 C1570 1.379 . S
C1570 H1554 0.931 . S
C1570 C1564 1.383 . S
C1570 C1569 1.379 . S
H1571 C1565 0.959 . S
H1572 C1565 0.961 . S
H1573 C1565 0.960 . S
H1574 C1566 0.930 . S
H1575 C1567 0.929 . S
H1576 C1584 0.929 . S
H1577 C1586 0.930 . S
H1578 C1588 0.930 . S
H1579 C1591 0.929 . S
H1580 C1594 0.930 . S
H1581 C1596 0.960 . S
H1582 C1596 0.960 . S
H1583 C1596 0.960 . S
C1584 H1576 0.929 . S
C1584 C1585 1.377 . S
C1584 C1586 1.384 . S
C1585 C1584 1.377 . S
C1585 C1591 1.390 . S
C1586 H1577 0.930 . S
C1586 C1584 1.384 . S
C1586 C1587 1.372 . S
C1587 C1586 1.372 . S
C1587 C1588 1.400 . S
C1587 C1592 1.490 . S
C1588 H1578 0.930 . S
C1588 C1587 1.400 . S
C1588 C1591 1.386 . S
H1589 C1605 0.930 . S
H1590 C1606 0.931 . S
C1591 H1579 0.929 . S
C1591 C1585 1.390 . S
C1591 C1588 1.386 . S
C1592 C1587 1.490 . S
C1592 C1594 1.395 . S
C1592 C1595 1.403 . S
H1593 C1599 0.930 . S
C1594 H1580 0.930 . S
C1594 C1592 1.395 . S
C1594 C1597 1.403 . S
C1595 C1592 1.403 . S
C1595 C1596 1.524 . S
C1595 C1599 1.400 . S
C1596 H1581 0.960 . S
C1596 H1582 0.960 . S
C1596 H1583 0.960 . S
C1596 C1595 1.524 . S
C1597 C1594 1.403 . S
C1597 C1598 1.392 . S
C1597 C1601 1.495 . S
C1598 C1597 1.392 . S
C1598 C1599 1.385 . S
C1598 C1600 1.478 . S
C1599 H1593 0.930 . S
C1599 C1595 1.400 . S
C1599 C1598 1.385 . S
C1600 C1598 1.478 . S
C1600 C1602 1.381 . S
C1600 C1606 1.383 . S
C1601 C1597 1.495 . S
C1601 H1607 0.959 . S
C1601 H1608 0.961 . S
C1601 H1609 0.960 . S
C1602 C1600 1.381 . S
C1602 C1603 1.394 . S
C1602 H1610 0.930 . S
C1603 C1602 1.394 . S
C1603 C1604 1.383 . S
C1603 H1611 0.929 . S
C1604 C1603 1.383 . S
C1604 C1605 1.377 . S
C1605 H1589 0.930 . S
C1605 C1604 1.377 . S
C1605 C1606 1.379 . S
C1606 H1590 0.931 . S
C1606 C1600 1.383 . S
C1606 C1605 1.379 . S
H1607 C1601 0.959 . S
H1608 C1601 0.961 . S
H1609 C1601 0.960 . S
H1610 C1602 0.930 . S
H1611 C1603 0.929 . S
H1612 C1620 0.929 . S
H1613 C1622 0.930 . S
H1614 C1624 0.930 . S
H1615 C1627 0.929 . S
H1616 C1630 0.930 . S
H1617 C1632 0.960 . S
H1618 C1632 0.960 . S
H1619 C1632 0.960 . S
C1620 H1612 0.929 . S
C1620 C1621 1.377 . S
C1620 C1622 1.384 . S
C1621 C1620 1.377 . S
C1621 C1627 1.390 . S
C1622 H1613 0.930 . S
C1622 C1620 1.384 . S
C1622 C1623 1.372 . S
C1623 C1622 1.372 . S
C1623 C1624 1.400 . S
C1623 C1628 1.490 . S
C1624 H1614 0.930 . S
C1624 C1623 1.400 . S
C1624 C1627 1.386 . S
H1625 C1641 0.930 . S
H1626 C1642 0.931 . S
C1627 H1615 0.929 . S
C1627 C1621 1.390 . S
C1627 C1624 1.386 . S
C1628 C1623 1.490 . S
C1628 C1630 1.395 . S
C1628 C1631 1.403 1_455 S
H1629 C1635 0.930 . S
C1630 H1616 0.930 . S
C1630 C1628 1.395 . S
C1630 C1633 1.403 . S
C1631 C1628 1.403 1_655 S
C1631 C1632 1.524 . S
C1631 C1635 1.400 . S
C1632 H1617 0.960 . S
C1632 H1618 0.960 . S
C1632 H1619 0.960 . S
C1632 C1631 1.524 . S
C1633 C1630 1.403 . S
C1633 C1634 1.392 1_454 S
C1633 C1637 1.495 1_554 S
C1634 C1633 1.392 1_656 S
C1634 C1635 1.383 1_556 S
C1634 C1636 1.480 . S
C1635 H1629 0.930 . S
C1635 C1631 1.400 . S
C1635 C1634 1.383 1_554 S
C1636 C1634 1.480 . S
C1636 C1638 1.381 . S
C1636 C1642 1.383 . S
C1637 C1633 1.495 1_556 S
C1637 H1643 0.959 . S
C1637 H1644 0.961 . S
C1637 H1645 0.960 . S
C1638 C1636 1.381 . S
C1638 C1639 1.394 . S
C1638 H1646 0.930 . S
C1639 C1638 1.394 . S
C1639 C1640 1.383 . S
C1639 H1647 0.929 . S
C1640 C1639 1.383 . S
C1640 C1641 1.377 . S
C1641 H1625 0.930 . S
C1641 C1640 1.377 . S
C1641 C1642 1.379 . S
C1642 H1626 0.931 . S
C1642 C1636 1.383 . S
C1642 C1641 1.379 . S
H1643 C1637 0.959 . S
H1644 C1637 0.961 . S
H1645 C1637 0.960 . S
H1646 C1638 0.930 . S
H1647 C1639 0.929 . S
H1648 C1656 0.929 . S
H1649 C1658 0.930 . S
H1650 C1660 0.930 . S
H1651 C1663 0.929 . S
H1652 C1666 0.930 . S
H1653 C1668 0.960 . S
H1654 C1668 0.960 . S
H1655 C1668 0.960 . S
C1656 H1648 0.929 . S
C1656 C1657 1.377 . S
C1656 C1658 1.384 . S
C1657 C1656 1.377 . S
C1657 C1663 1.390 . S
C1658 H1649 0.930 . S
C1658 C1656 1.384 . S
C1658 C1659 1.372 . S
C1659 C1658 1.372 . S
C1659 C1660 1.400 . S
C1659 C1664 1.490 . S
C1660 H1650 0.930 . S
C1660 C1659 1.400 . S
C1660 C1663 1.386 . S
H1661 C1677 0.930 . S
H1662 C1678 0.931 . S
C1663 H1651 0.929 . S
C1663 C1657 1.390 . S
C1663 C1660 1.386 . S
C1664 C1659 1.490 . S
C1664 C1666 1.395 . S
C1664 C1667 1.403 . S
H1665 C1671 0.930 . S
C1666 H1652 0.930 . S
C1666 C1664 1.395 . S
C1666 C1669 1.403 . S
C1667 C1664 1.403 . S
C1667 C1668 1.524 . S
C1667 C1671 1.400 . S
C1668 H1653 0.960 . S
C1668 H1654 0.960 . S
C1668 H1655 0.960 . S
C1668 C1667 1.524 . S
C1669 C1666 1.403 . S
C1669 C1670 1.392 . S
C1669 C1673 1.495 . S
C1670 C1669 1.392 . S
C1670 C1671 1.385 . S
C1670 C1672 1.478 . S
C1671 H1665 0.930 . S
C1671 C1667 1.400 . S
C1671 C1670 1.385 . S
C1672 C1670 1.478 . S
C1672 C1674 1.381 . S
C1672 C1678 1.383 . S
C1673 C1669 1.495 . S
C1673 H1679 0.959 . S
C1673 H1680 0.961 . S
C1673 H1681 0.960 . S
C1674 C1672 1.381 . S
C1674 C1675 1.394 . S
C1674 H1682 0.930 . S
C1675 C1674 1.394 . S
C1675 C1676 1.383 . S
C1675 H1683 0.929 . S
C1676 C1675 1.383 . S
C1676 C1677 1.377 . S
C1677 H1661 0.930 . S
C1677 C1676 1.377 . S
C1677 C1678 1.379 . S
C1678 H1662 0.931 . S
C1678 C1672 1.383 . S
C1678 C1677 1.379 . S
H1679 C1673 0.959 . S
H1680 C1673 0.961 . S
H1681 C1673 0.960 . S
H1682 C1674 0.930 . S
H1683 C1675 0.929 . S
H1684 C1692 0.929 . S
H1685 C1694 0.930 . S
H1686 C1696 0.930 . S
H1687 C1699 0.929 . S
H1688 C1702 0.930 . S
H1689 C1704 0.960 . S
H1690 C1704 0.960 . S
H1691 C1704 0.960 . S
C1692 H1684 0.929 . S
C1692 C1693 1.377 . S
C1692 C1694 1.384 . S
C1693 C1692 1.377 . S
C1693 C1699 1.390 . S
C1694 H1685 0.930 . S
C1694 C1692 1.384 . S
C1694 C1695 1.372 . S
C1695 C1694 1.372 . S
C1695 C1696 1.400 . S
C1695 C1700 1.490 . S
C1696 H1686 0.930 . S
C1696 C1695 1.400 . S
C1696 C1699 1.386 . S
H1697 C1713 0.930 . S
H1698 C1714 0.931 . S
C1699 H1687 0.929 . S
C1699 C1693 1.390 . S
C1699 C1696 1.386 . S
C1700 C1695 1.490 . S
C1700 C1702 1.395 . S
C1700 C1703 1.403 . S
H1701 C1707 0.930 . S
C1702 H1688 0.930 . S
C1702 C1700 1.395 . S
C1702 C1705 1.403 . S
C1703 C1700 1.403 . S
C1703 C1704 1.524 . S
C1703 C1707 1.400 . S
C1704 H1689 0.960 . S
C1704 H1690 0.960 . S
C1704 H1691 0.960 . S
C1704 C1703 1.524 . S
C1705 C1702 1.403 . S
C1705 C1706 1.392 . S
C1705 C1709 1.495 . S
C1706 C1705 1.392 . S
C1706 C1707 1.385 . S
C1706 C1708 1.478 . S
C1707 H1701 0.930 . S
C1707 C1703 1.400 . S
C1707 C1706 1.385 . S
C1708 C1706 1.478 . S
C1708 C1710 1.381 . S
C1708 C1714 1.383 . S
C1709 C1705 1.495 . S
C1709 H1715 0.959 . S
C1709 H1716 0.961 . S
C1709 H1717 0.960 . S
C1710 C1708 1.381 . S
C1710 C1711 1.394 . S
C1710 H1718 0.930 . S
C1711 C1710 1.394 . S
C1711 C1712 1.383 . S
C1711 H1719 0.929 . S
C1712 C1711 1.383 . S
C1712 C1713 1.377 . S
C1713 H1697 0.930 . S
C1713 C1712 1.377 . S
C1713 C1714 1.379 . S
C1714 H1698 0.931 . S
C1714 C1708 1.383 . S
C1714 C1713 1.379 . S
H1715 C1709 0.959 . S
H1716 C1709 0.961 . S
H1717 C1709 0.960 . S
H1718 C1710 0.930 . S
H1719 C1711 0.929 . S
H1720 C1728 0.929 . S
H1721 C1730 0.930 1_565 S
H1722 C1732 0.930 . S
H1723 C1735 0.929 . S
H1724 C1738 0.930 . S
H1725 C1740 0.949 1_554 S
H1726 C1740 0.977 . S
H1727 C1740 0.963 . S
C1728 H1720 0.929 . S
C1728 C1729 1.377 . S
C1728 C1730 1.384 . S
C1729 C1728 1.377 . S
C1729 C1735 1.390 . S
C1730 H1721 0.930 1_545 S
C1730 C1728 1.384 . S
C1730 C1731 1.372 . S
C1731 C1730 1.372 . S
C1731 C1732 1.400 . S
C1731 C1736 1.490 1_556 S
C1732 H1722 0.930 . S
C1732 C1731 1.400 . S
C1732 C1735 1.386 . S
H1733 C1749 0.930 . S
H1734 C1750 0.931 1_545 S
C1735 H1723 0.929 . S
C1735 C1729 1.390 . S
C1735 C1732 1.386 . S
C1736 C1731 1.490 1_554 S
C1736 C1738 1.395 1_545 S
C1736 C1739 1.403 1_455 S
H1737 C1743 0.930 . S
C1738 H1724 0.930 . S
C1738 C1736 1.395 1_565 S
C1738 C1741 1.403 . S
C1739 C1736 1.403 1_655 S
C1739 C1740 1.515 1_554 S
C1739 C1743 1.400 . S
C1740 H1725 0.949 1_556 S
C1740 H1726 0.977 . S
C1740 H1727 0.963 . S
C1740 C1739 1.515 1_556 S
C1741 C1738 1.403 . S
C1741 C1742 1.392 1_455 S
C1741 C1745 1.495 . S
C1742 C1741 1.392 1_655 S
C1742 C1743 1.385 1_565 S
C1742 C1744 1.478 . S
C1743 H1737 0.930 . S
C1743 C1739 1.400 . S
C1743 C1742 1.385 1_545 S
C1744 C1742 1.478 . S
C1744 C1746 1.381 . S
C1744 C1750 1.383 . S
C1745 C1741 1.495 . S
C1745 H1751 0.959 . S
C1745 H1752 0.961 . S
C1745 H1753 0.960 . S
C1746 C1744 1.381 . S
C1746 C1747 1.394 . S
C1746 H1754 0.930 . S
C1747 C1746 1.394 . S
C1747 C1748 1.383 . S
C1747 H1755 0.929 . S
C1748 C1747 1.383 . S
C1748 C1749 1.377 . S
C1749 H1733 0.930 . S
C1749 C1748 1.377 . S
C1749 C1750 1.379 . S
C1750 H1734 0.931 1_565 S
C1750 C1744 1.383 . S
C1750 C1749 1.379 . S
H1751 C1745 0.959 . S
H1752 C1745 0.961 . S
H1753 C1745 0.960 . S
H1754 C1746 0.930 . S
H1755 C1747 0.929 . S
H1756 C1764 0.929 . S
H1757 C1766 0.930 . S
H1758 C1768 0.930 1_565 S
H1759 C1771 0.929 . S
H1760 C1774 0.930 . S
H1761 C1776 0.960 . S
H1762 C1776 0.960 . S
H1763 C1776 0.960 . S
C1764 H1756 0.929 . S
C1764 C1765 1.377 . S
C1764 C1766 1.384 . S
C1765 C1764 1.377 . S
C1765 C1771 1.390 . S
C1766 H1757 0.930 . S
C1766 C1764 1.384 . S
C1766 C1767 1.372 . S
C1767 C1766 1.372 . S
C1767 C1768 1.400 . S
C1767 C1772 1.490 . S
C1768 H1758 0.930 1_545 S
C1768 C1767 1.400 . S
C1768 C1771 1.386 . S
H1769 C1785 0.930 . S
H1770 C1786 0.931 . S
C1771 H1759 0.929 . S
C1771 C1765 1.390 . S
C1771 C1768 1.386 . S
C1772 C1767 1.490 . S
C1772 C1774 1.395 . S
C1772 C1775 1.403 1_545 S
H1773 C1779 0.930 . S
C1774 H1760 0.930 . S
C1774 C1772 1.395 . S
C1774 C1777 1.403 . S
C1775 C1772 1.403 1_565 S
C1775 C1776 1.524 . S
C1775 C1779 1.400 . S
C1776 H1761 0.960 . S
C1776 H1762 0.960 . S
C1776 H1763 0.960 . S
C1776 C1775 1.524 . S
C1777 C1774 1.403 . S
C1777 C1778 1.392 1_545 S
C1777 C1781 1.495 . S
C1778 C1777 1.392 1_565 S
C1778 C1779 1.385 . S
C1778 C1780 1.478 . S
C1779 H1773 0.930 . S
C1779 C1775 1.400 . S
C1779 C1778 1.385 . S
C1780 C1778 1.478 . S
C1780 C1782 1.381 . S
C1780 C1786 1.383 . S
C1781 C1777 1.495 . S
C1781 H1787 0.959 . S
C1781 H1788 0.961 . S
C1781 H1789 0.960 . S
C1782 C1780 1.381 . S
C1782 C1783 1.394 . S
C1782 H1790 0.930 1_565 S
C1783 C1782 1.394 . S
C1783 C1784 1.383 . S
C1783 H1791 0.929 . S
C1784 C1783 1.383 . S
C1784 C1785 1.377 . S
C1785 H1769 0.930 . S
C1785 C1784 1.377 . S
C1785 C1786 1.379 . S
C1786 H1770 0.931 . S
C1786 C1780 1.383 . S
C1786 C1785 1.379 . S
H1787 C1781 0.959 . S
H1788 C1781 0.961 . S
H1789 C1781 0.960 . S
H1790 C1782 0.930 1_545 S
H1791 C1783 0.929 . S
H1792 C1800 0.929 . S
H1793 C1802 0.930 . S
H1794 C1804 0.930 . S
H1795 C1807 0.929 . S
H1796 C1810 0.930 . S
H1797 C1812 0.960 . S
H1798 C1812 0.960 . S
H1799 C1812 0.960 . S
C1800 H1792 0.929 . S
C1800 C1801 1.377 . S
C1800 C1802 1.384 . S
C1801 C1800 1.377 . S
C1801 C1807 1.390 . S
C1802 H1793 0.930 . S
C1802 C1800 1.384 . S
C1802 C1803 1.372 . S
C1803 C1802 1.372 . S
C1803 C1804 1.400 . S
C1803 C1808 1.490 . S
C1804 H1794 0.930 . S
C1804 C1803 1.400 . S
C1804 C1807 1.386 . S
H1805 C1821 0.930 . S
H1806 C1822 0.931 . S
C1807 H1795 0.929 . S
C1807 C1801 1.390 . S
C1807 C1804 1.386 . S
C1808 C1803 1.490 . S
C1808 C1810 1.395 . S
C1808 C1811 1.403 . S
H1809 C1815 0.930 . S
C1810 H1796 0.930 . S
C1810 C1808 1.395 . S
C1810 C1813 1.403 . S
C1811 C1808 1.403 . S
C1811 C1812 1.524 . S
C1811 C1815 1.400 . S
C1812 H1797 0.960 . S
C1812 H1798 0.960 . S
C1812 H1799 0.960 . S
C1812 C1811 1.524 . S
C1813 C1810 1.403 . S
C1813 C1814 1.392 . S
C1813 C1817 1.495 . S
C1814 C1813 1.392 . S
C1814 C1815 1.385 . S
C1814 C1816 1.478 . S
C1815 H1809 0.930 . S
C1815 C1811 1.400 . S
C1815 C1814 1.385 . S
C1816 C1814 1.478 . S
C1816 C1818 1.381 . S
C1816 C1822 1.383 . S
C1817 C1813 1.495 . S
C1817 H1823 0.959 . S
C1817 H1824 0.961 . S
C1817 H1825 0.960 . S
C1818 C1816 1.381 . S
C1818 C1819 1.394 . S
C1818 H1826 0.930 . S
C1819 C1818 1.394 . S
C1819 C1820 1.383 . S
C1819 H1827 0.929 . S
C1820 C1819 1.383 . S
C1820 C1821 1.377 . S
C1821 H1805 0.930 . S
C1821 C1820 1.377 . S
C1821 C1822 1.379 . S
C1822 H1806 0.931 . S
C1822 C1816 1.383 . S
C1822 C1821 1.379 . S
H1823 C1817 0.959 . S
H1824 C1817 0.961 . S
H1825 C1817 0.960 . S
H1826 C1818 0.930 . S
H1827 C1819 0.929 . S
H1828 C1836 0.929 . S
H1829 C1838 0.930 1_554 S
H1830 C1840 0.930 . S
H1831 C1843 0.929 . S
H1832 C1846 0.930 . S
H1833 C1848 0.960 . S
H1834 C1848 0.960 . S
H1835 C1848 0.960 . S
C1836 H1828 0.929 . S
C1836 C1837 1.377 . S
C1836 C1838 1.384 . S
C1837 C1836 1.377 . S
C1837 C1843 1.390 . S
C1838 H1829 0.930 1_556 S
C1838 C1836 1.384 . S
C1838 C1839 1.372 . S
C1839 C1838 1.372 . S
C1839 C1840 1.400 . S
C1839 C1844 1.490 1_556 S
C1840 H1830 0.930 . S
C1840 C1839 1.400 . S
C1840 C1843 1.386 . S
H1841 C1857 0.930 . S
H1842 C1858 0.931 . S
C1843 H1831 0.929 . S
C1843 C1837 1.390 . S
C1843 C1840 1.386 . S
C1844 C1839 1.490 1_554 S
C1844 C1846 1.395 . S
C1844 C1847 1.403 . S
H1845 C1851 0.930 . S
C1846 H1832 0.930 . S
C1846 C1844 1.395 . S
C1846 C1849 1.403 . S
C1847 C1844 1.403 . S
C1847 C1848 1.524 1_554 S
C1847 C1851 1.400 . S
C1848 H1833 0.960 . S
C1848 H1834 0.960 . S
C1848 H1835 0.960 . S
C1848 C1847 1.524 1_556 S
C1849 C1846 1.403 . S
C1849 C1850 1.392 . S
C1849 C1853 1.495 . S
C1850 C1849 1.392 . S
C1850 C1851 1.385 . S
C1850 C1852 1.478 . S
C1851 H1845 0.930 . S
C1851 C1847 1.400 . S
C1851 C1850 1.385 . S
C1852 C1850 1.478 . S
C1852 C1854 1.381 . S
C1852 C1858 1.383 . S
C1853 C1849 1.495 . S
C1853 H1859 0.959 . S
C1853 H1860 0.961 . S
C1853 H1861 0.960 . S
C1854 C1852 1.381 . S
C1854 C1855 1.394 . S
C1854 H1862 0.930 . S
C1855 C1854 1.394 . S
C1855 C1856 1.383 . S
C1855 H1863 0.929 . S
C1856 C1855 1.383 . S
C1856 C1857 1.377 . S
C1857 H1841 0.930 . S
C1857 C1856 1.377 . S
C1857 C1858 1.379 . S
C1858 H1842 0.931 . S
C1858 C1852 1.383 . S
C1858 C1857 1.379 . S
H1859 C1853 0.959 . S
H1860 C1853 0.961 . S
H1861 C1853 0.960 . S
H1862 C1854 0.930 . S
H1863 C1855 0.929 . S
H1864 C1872 0.929 . S
H1865 C1874 0.930 . S
H1866 C1876 0.930 . S
H1867 C1879 0.929 . S
H1868 C1882 0.930 . S
H1869 C1884 0.960 . S
H1870 C1884 0.960 . S
H1871 C1884 0.960 . S
C1872 H1864 0.929 . S
C1872 C1873 1.377 . S
C1872 C1874 1.384 . S
C1873 C1872 1.377 . S
C1873 C1879 1.390 . S
C1874 H1865 0.930 . S
C1874 C1872 1.384 . S
C1874 C1875 1.372 . S
C1875 C1874 1.372 . S
C1875 C1876 1.400 . S
C1875 C1880 1.490 . S
C1876 H1866 0.930 . S
C1876 C1875 1.400 . S
C1876 C1879 1.386 . S
H1877 C1893 0.930 . S
H1878 C1894 0.931 . S
C1879 H1867 0.929 . S
C1879 C1873 1.390 . S
C1879 C1876 1.386 . S
C1880 C1875 1.490 . S
C1880 C1882 1.395 . S
C1880 C1883 1.403 . S
H1881 C1887 0.930 . S
C1882 H1868 0.930 . S
C1882 C1880 1.395 . S
C1882 C1885 1.403 . S
C1883 C1880 1.403 . S
C1883 C1884 1.524 . S
C1883 C1887 1.400 . S
C1884 H1869 0.960 . S
C1884 H1870 0.960 . S
C1884 H1871 0.960 . S
C1884 C1883 1.524 . S
C1885 C1882 1.403 . S
C1885 C1886 1.392 . S
C1885 C1889 1.495 . S
C1886 C1885 1.392 . S
C1886 C1887 1.385 . S
C1886 C1888 1.478 . S
C1887 H1881 0.930 . S
C1887 C1883 1.400 . S
C1887 C1886 1.385 . S
C1888 C1886 1.478 . S
C1888 C1890 1.381 . S
C1888 C1894 1.383 . S
C1889 C1885 1.495 . S
C1889 H1895 0.959 . S
C1889 H1896 0.961 . S
C1889 H1897 0.960 . S
C1890 C1888 1.381 . S
C1890 C1891 1.394 . S
C1890 H1898 0.930 . S
C1891 C1890 1.394 . S
C1891 C1892 1.383 . S
C1891 H1899 0.929 . S
C1892 C1891 1.383 . S
C1892 C1893 1.377 . S
C1893 H1877 0.930 . S
C1893 C1892 1.377 . S
C1893 C1894 1.379 . S
C1894 H1878 0.931 . S
C1894 C1888 1.383 . S
C1894 C1893 1.379 . S
H1895 C1889 0.959 . S
H1896 C1889 0.961 . S
H1897 C1889 0.960 . S
H1898 C1890 0.930 . S
H1899 C1891 0.929 . S
H1900 C1908 0.929 . S
H1901 C1910 0.930 . S
H1902 C1912 0.930 . S
H1903 C1915 0.929 . S
H1904 C1918 0.930 . S
H1905 C1920 0.966 . S
H1906 C1920 0.960 . S
H1907 C1920 0.960 . S
C1908 H1900 0.929 . S
C1908 C1909 1.377 . S
C1908 C1910 1.384 . S
C1909 C1908 1.377 . S
C1909 C1915 1.390 . S
C1910 H1901 0.930 . S
C1910 C1908 1.384 . S
C1910 C1911 1.372 . S
C1911 C1910 1.372 . S
C1911 C1912 1.400 . S
C1911 C1916 1.490 . S
C1912 H1902 0.930 . S
C1912 C1911 1.400 . S
C1912 C1915 1.386 . S
H1913 C1929 0.930 . S
H1914 C1930 0.931 . S
C1915 H1903 0.929 . S
C1915 C1909 1.390 . S
C1915 C1912 1.386 . S
C1916 C1911 1.490 . S
C1916 C1918 1.395 . S
C1916 C1919 1.403 . S
H1917 C1923 0.930 . S
C1918 H1904 0.930 . S
C1918 C1916 1.395 . S
C1918 C1921 1.403 1_455 S
C1919 C1916 1.403 . S
C1919 C1920 1.524 . S
C1919 C1923 1.400 1_455 S
C1920 H1905 0.966 . S
C1920 H1906 0.960 . S
C1920 H1907 0.960 . S
C1920 C1919 1.524 . S
C1921 C1918 1.403 1_655 S
C1921 C1922 1.392 . S
C1921 C1925 1.495 . S
C1922 C1921 1.392 . S
C1922 C1923 1.385 . S
C1922 C1924 1.478 . S
C1923 H1917 0.930 . S
C1923 C1919 1.400 1_655 S
C1923 C1922 1.385 . S
C1924 C1922 1.478 . S
C1924 C1926 1.381 . S
C1924 C1930 1.383 . S
C1925 C1921 1.495 . S
C1925 H1931 0.959 1_655 S
C1925 H1932 0.961 . S
C1925 H1933 0.954 1_655 S
C1926 C1924 1.381 . S
C1926 C1927 1.394 . S
C1926 H1934 0.930 . S
C1927 C1926 1.394 . S
C1927 C1928 1.383 . S
C1927 H1935 0.929 . S
C1928 C1927 1.383 . S
C1928 C1929 1.377 . S
C1929 H1913 0.930 . S
C1929 C1928 1.377 . S
C1929 C1930 1.379 . S
C1930 H1914 0.931 . S
C1930 C1924 1.383 . S
C1930 C1929 1.379 . S
H1931 C1925 0.959 1_455 S
H1932 C1925 0.961 . S
H1933 C1925 0.954 1_455 S
H1934 C1926 0.930 . S
H1935 C1927 0.929 . S
H1936 C1944 0.929 . S
H1937 C1946 0.930 . S
H1938 C1948 0.930 . S
H1939 C1951 0.929 . S
H1940 C1954 0.930 . S
H1941 C1956 0.960 . S
H1942 C1956 0.960 . S
H1943 C1956 0.960 . S
C1944 H1936 0.929 . S
C1944 C1945 1.377 . S
C1944 C1946 1.384 . S
C1945 C1944 1.377 . S
C1945 C1951 1.390 . S
C1946 H1937 0.930 . S
C1946 C1944 1.384 . S
C1946 C1947 1.372 . S
C1947 C1946 1.372 . S
C1947 C1948 1.400 . S
C1947 C1952 1.490 . S
C1948 H1938 0.930 . S
C1948 C1947 1.400 . S
C1948 C1951 1.386 . S
H1949 C1965 0.930 . S
H1950 C1966 0.931 . S
C1951 H1939 0.929 . S
C1951 C1945 1.390 . S
C1951 C1948 1.386 . S
C1952 C1947 1.490 . S
C1952 C1954 1.395 . S
C1952 C1955 1.403 . S
H1953 C1959 0.930 . S
C1954 H1940 0.930 . S
C1954 C1952 1.395 . S
C1954 C1957 1.403 . S
C1955 C1952 1.403 . S
C1955 C1956 1.524 . S
C1955 C1959 1.400 . S
C1956 H1941 0.960 . S
C1956 H1942 0.960 . S
C1956 H1943 0.960 . S
C1956 C1955 1.524 . S
C1957 C1954 1.403 . S
C1957 C1958 1.392 . S
C1957 C1961 1.495 . S
C1958 C1957 1.392 . S
C1958 C1959 1.385 . S
C1958 C1960 1.478 . S
C1959 H1953 0.930 . S
C1959 C1955 1.400 . S
C1959 C1958 1.385 . S
C1960 C1958 1.478 . S
C1960 C1962 1.381 . S
C1960 C1966 1.383 . S
C1961 C1957 1.495 . S
C1961 H1967 0.959 . S
C1961 H1968 0.961 . S
C1961 H1969 0.960 . S
C1962 C1960 1.381 . S
C1962 C1963 1.394 . S
C1962 H1970 0.930 . S
C1963 C1962 1.394 . S
C1963 C1964 1.383 . S
C1963 H1971 0.929 . S
C1964 C1963 1.383 . S
C1964 C1965 1.377 . S
C1965 H1949 0.930 . S
C1965 C1964 1.377 . S
C1965 C1966 1.379 . S
C1966 H1950 0.931 . S
C1966 C1960 1.383 . S
C1966 C1965 1.379 . S
H1967 C1961 0.959 . S
H1968 C1961 0.961 . S
H1969 C1961 0.960 . S
H1970 C1962 0.930 . S
H1971 C1963 0.929 . S
H1972 C1980 0.929 . S
H1973 C1982 0.930 . S
H1974 C1984 0.930 . S
H1975 C1987 0.929 . S
H1976 C1990 0.930 . S
H1977 C1992 0.960 . S
H1978 C1992 0.960 . S
H1979 C1992 0.960 . S
C1980 H1972 0.929 . S
C1980 C1981 1.377 . S
C1980 C1982 1.384 . S
C1981 C1980 1.377 . S
C1981 C1987 1.390 . S
C1982 H1973 0.930 . S
C1982 C1980 1.384 . S
C1982 C1983 1.372 . S
C1983 C1982 1.372 . S
C1983 C1984 1.400 . S
C1983 C1988 1.490 . S
C1984 H1974 0.930 . S
C1984 C1983 1.400 . S
C1984 C1987 1.386 . S
H1985 C2001 0.930 . S
H1986 C2002 0.931 . S
C1987 H1975 0.929 . S
C1987 C1981 1.390 . S
C1987 C1984 1.386 . S
C1988 C1983 1.490 . S
C1988 C1990 1.395 . S
C1988 C1991 1.403 . S
H1989 C1995 0.930 . S
C1990 H1976 0.930 . S
C1990 C1988 1.395 . S
C1990 C1993 1.403 . S
C1991 C1988 1.403 . S
C1991 C1992 1.524 . S
C1991 C1995 1.400 . S
C1992 H1977 0.960 . S
C1992 H1978 0.960 . S
C1992 H1979 0.960 . S
C1992 C1991 1.524 . S
C1993 C1990 1.403 . S
C1993 C1994 1.392 . S
C1993 C1997 1.495 . S
C1994 C1993 1.392 . S
C1994 C1995 1.385 . S
C1994 C1996 1.478 . S
C1995 H1989 0.930 . S
C1995 C1991 1.400 . S
C1995 C1994 1.385 . S
C1996 C1994 1.478 . S
C1996 C1998 1.381 . S
C1996 C2002 1.383 . S
C1997 C1993 1.495 . S
C1997 H2003 0.959 . S
C1997 H2004 0.961 . S
C1997 H2005 0.960 . S
C1998 C1996 1.381 . S
C1998 C1999 1.394 . S
C1998 H2006 0.930 . S
C1999 C1998 1.394 . S
C1999 C2000 1.383 . S
C1999 H2007 0.929 . S
C2000 C1999 1.383 . S
C2000 C2001 1.377 . S
C2001 H1985 0.930 . S
C2001 C2000 1.377 . S
C2001 C2002 1.379 . S
C2002 H1986 0.931 . S
C2002 C1996 1.383 . S
C2002 C2001 1.379 . S
H2003 C1997 0.959 . S
H2004 C1997 0.961 . S
H2005 C1997 0.960 . S
H2006 C1998 0.930 . S
H2007 C1999 0.929 . S
H2008 C2016 0.929 . S
H2009 C2018 0.930 . S
H2010 C2020 0.930 . S
H2011 C2023 0.929 . S
H2012 C2026 0.930 . S
H2013 C2028 0.960 . S
H2014 C2028 0.960 . S
H2015 C2028 0.960 1_565 S
C2016 H2008 0.929 . S
C2016 C2017 1.377 . S
C2016 C2018 1.384 . S
C2017 C2016 1.377 . S
C2017 C2023 1.390 . S
C2018 H2009 0.930 . S
C2018 C2016 1.384 . S
C2018 C2019 1.372 . S
C2019 C2018 1.372 . S
C2019 C2020 1.400 . S
C2019 C2024 1.490 . S
C2020 H2010 0.930 . S
C2020 C2019 1.400 . S
C2020 C2023 1.386 . S
H2021 C2037 0.930 . S
H2022 C2038 0.934 1_565 S
C2023 H2011 0.929 . S
C2023 C2017 1.390 . S
C2023 C2020 1.386 . S
C2024 C2019 1.490 . S
C2024 C2026 1.395 . S
C2024 C2027 1.389 1_665 S
H2025 C2031 0.930 . S
C2026 H2012 0.930 . S
C2026 C2024 1.395 . S
C2026 C2029 1.399 1_565 S
C2027 C2024 1.389 1_445 S
C2027 C2028 1.526 . S
C2027 C2031 1.413 . S
C2028 H2013 0.960 . S
C2028 H2014 0.960 . S
C2028 H2015 0.960 1_545 S
C2028 C2027 1.526 . S
C2029 C2026 1.399 1_545 S
C2029 C2030 1.397 1_655 S
C2029 C2033 1.495 1_545 S
C2030 C2029 1.397 1_455 S
C2030 C2031 1.385 . S
C2030 C2032 1.478 . S
C2031 H2025 0.930 . S
C2031 C2027 1.413 . S
C2031 C2030 1.385 . S
C2032 C2030 1.478 . S
C2032 C2034 1.381 . S
C2032 C2038 1.383 . S
C2033 C2029 1.495 1_565 S
C2033 H2039 0.971 . S
C2033 H2040 0.973 . S
C2033 H2041 0.937 1_565 S
C2034 C2032 1.381 . S
C2034 C2035 1.394 . S
C2034 H2042 0.930 . S
C2035 C2034 1.394 . S
C2035 C2036 1.383 . S
C2035 H2043 0.929 . S
C2036 C2035 1.383 . S
C2036 C2037 1.377 . S
C2037 H2021 0.930 . S
C2037 C2036 1.377 . S
C2037 C2038 1.379 . S
C2038 H2022 0.934 1_545 S
C2038 C2032 1.383 . S
C2038 C2037 1.379 . S
H2039 C2033 0.971 . S
H2040 C2033 0.973 . S
H2041 C2033 0.937 1_545 S
H2042 C2034 0.930 . S
H2043 C2035 0.929 . S
H2044 C2052 0.929 . S
H2045 C2054 0.930 1_565 S
H2046 C2056 0.930 1_554 S
H2047 C2059 0.929 . S
H2048 C2062 0.930 . S
H2049 C2064 0.960 . S
H2050 C2064 0.960 1_556 S
H2051 C2064 0.960 . S
C2052 H2044 0.929 . S
C2052 C2053 1.377 . S
C2052 C2054 1.384 . S
C2053 C2052 1.377 . S
C2053 C2059 1.390 . S
C2054 H2045 0.930 1_545 S
C2054 C2052 1.384 . S
C2054 C2055 1.372 . S
C2055 C2054 1.372 . S
C2055 C2056 1.400 . S
C2055 C2060 1.490 1_556 S
C2056 H2046 0.930 1_556 S
C2056 C2055 1.400 . S
C2056 C2059 1.386 . S
H2057 C2073 0.930 . S
H2058 C2074 0.931 . S
C2059 H2047 0.929 . S
C2059 C2053 1.390 . S
C2059 C2056 1.386 . S
C2060 C2055 1.490 1_554 S
C2060 C2062 1.395 1_545 S
C2060 C2063 1.403 . S
H2061 C2067 0.930 . S
C2062 H2048 0.930 . S
C2062 C2060 1.395 1_565 S
C2062 C2065 1.403 . S
C2063 C2060 1.403 . S
C2063 C2064 1.524 . S
C2063 C2067 1.400 . S
C2064 H2049 0.960 . S
C2064 H2050 0.960 1_554 S
C2064 H2051 0.960 . S
C2064 C2063 1.524 . S
C2065 C2062 1.403 . S
C2065 C2066 1.392 . S
C2065 C2069 1.495 . S
C2066 C2065 1.392 . S
C2066 C2067 1.385 1_565 S
C2066 C2068 1.478 . S
C2067 H2061 0.930 . S
C2067 C2063 1.400 . S
C2067 C2066 1.385 1_545 S
C2068 C2066 1.478 . S
C2068 C2070 1.381 . S
C2068 C2074 1.383 . S
C2069 C2065 1.495 . S
C2069 H2075 0.959 . S
C2069 H2076 0.961 . S
C2069 H2077 0.960 . S
C2070 C2068 1.381 . S
C2070 C2071 1.394 . S
C2070 H2078 0.930 . S
C2071 C2070 1.394 . S
C2071 C2072 1.383 . S
C2071 H2079 0.929 . S
C2072 C2071 1.383 . S
C2072 C2073 1.377 . S
C2073 H2057 0.930 . S
C2073 C2072 1.377 . S
C2073 C2074 1.379 . S
C2074 H2058 0.931 . S
C2074 C2068 1.383 . S
C2074 C2073 1.379 . S
H2075 C2069 0.959 . S
H2076 C2069 0.961 . S
H2077 C2069 0.960 . S
H2078 C2070 0.930 . S
H2079 C2071 0.929 . S
C361 C18 1.448 1_556 S
C380 C208 1.499 . S
C397 C230 1.484 . S
C416 C40 1.441 . S
C433 C252 1.483 . S
C452 C62 1.479 . S
C469 C186 1.483 . S
C488 C84 1.456 . S
C505 C96 1.457 . S
C524 C296 1.489 . S
C541 C120 1.449 . S
C560 C318 1.464 1_556 S
C577 C340 1.482 . S
C596 C150 1.423 . S
C613 C282 1.486 . S
C632 C172 1.462 . S
C649 C32 1.485 . S
C668 C194 1.475 . S
C685 C54 1.488 . S
C704 C216 1.452 1_565 S
C721 C76 1.482 . S
C740 C238 1.479 . S
C757 C260 1.459 1_545 S
C776 C10 1.465 . S
C793 C118 1.484 . S
C812 C272 1.450 . S
C829 C142 1.488 . S
C848 C304 1.456 1_545 S
C865 C164 1.482 . S
C884 C326 1.423 . S
C901 C106 1.490 1_556 S
C920 C348 1.478 1_565 S
C937 C15 1.424 . S
C956 C351 1.464 . S
C973 C37 1.433 . S
C992 C103 1.451 . S
C1009 C307 1.460 1_455 S
C1028 C59 1.403 . S
C1045 C153 1.458 . S
C1064 C81 1.440 . S
C1081 C95 1.434 . S
C1100 C263 1.465 . S
C1117 C21 1.460 . S
C1136 C131 1.450 . S
C1153 C147 1.424 . S
C1172 C219 1.444 1_655 S
C1189 C169 1.433 . S
C1208 C65 1.466 . S
C1225 C191 1.434 . S
C1244 C175 1.443 1_655 S
C1261 C279 1.458 . S
C1280 C213 1.405 . S
C1297 C235 1.426 . S
C1316 C117 1.467 . S
C1333 C329 1.456 . S
C1352 C257 1.448 . S
C1369 C271 1.430 . S
C1388 C87 1.454 1_455 S
C1405 C197 1.458 . S
C1424 C301 1.421 . S
C1441 C323 1.430 . S
C1460 C43 1.455 . S
C1477 C345 1.425 . S
C1496 C241 1.447 . S
C1513 C8 1.590 . S
C1532 C274 1.589 . S
C1549 C128 1.590 . S
C1568 C30 1.583 . S
C1585 C52 1.588 . S
C1604 C316 1.590 . S
C1621 C162 1.589 . S
C1640 C74 1.581 . S
C1657 C98 1.589 . S
C1676 C184 1.581 . S
C1693 C228 1.589 . S
C1712 C140 1.592 . S
C1729 C206 1.587 . S
C1748 C294 1.584 . S
C1765 C338 1.588 . S
C1784 C250 1.578 . S
C1801 C285 0.756 . S
C1820 C7 0.745 . S
C1837 C125 0.770 . S
C1856 C29 0.727 . S
C1873 C51 0.758 . S
C1892 C315 0.774 . S
C1909 C161 0.766 . S
C1928 C73 0.716 . S
C1945 C109 0.764 . S
C1964 C183 0.714 . S
C1981 C139 0.779 . S
C2000 C227 0.795 . S
C2017 C293 0.758 . S
C2036 C205 0.718 . S
C2053 C337 0.758 . S
C2072 C249 0.771 . S
