# Generated by pormake.
# Topology smm, (6)-cn, num edge types: 1
# Building blocks:
#     Node 0, Type 0, BuildingBlock: BETFAJ_clean_sbu_0, # of connection points: 6
#     Node 1, Type 0, BuildingBlock: BETFAJ_clean_sbu_0, # of connection points: 6
#     Node 2, Type 0, BuildingBlock: BETFAJ_clean_sbu_0, # of connection points: 6
#     Node 3, Type 0, BuildingBlock: BETFAJ_clean_sbu_0, # of connection points: 6
#     Node 4, Type 0, BuildingBlock: BETFAJ_clean_sbu_0, # of connection points: 6
#     Node 5, Type 0, BuildingBlock: BETFAJ_clean_sbu_0, # of connection points: 6
#     Node 6, Type 0, BuildingBlock: BETFAJ_clean_sbu_0, # of connection points: 6
#     Node 7, Type 0, BuildingBlock: BETFAJ_clean_sbu_0, # of connection points: 6
#     Node 8, Type 0, BuildingBlock: BETFAJ_clean_sbu_0, # of connection points: 6
#     Edge 9, Type (0, 0), BuildingBlock: TEMPAE_clean_linker_10, # of connection points: 2
#     Edge 10, Type (0, 0), BuildingBlock: TEMPAE_clean_linker_10, # of connection points: 2
#     Edge 11, Type (0, 0), BuildingBlock: TEMPAE_clean_linker_10, # of connection points: 2
#     Edge 12, Type (0, 0), BuildingBlock: TEMPAE_clean_linker_10, # of connection points: 2
#     Edge 13, Type (0, 0), BuildingBlock: TEMPAE_clean_linker_10, # of connection points: 2
#     Edge 14, Type (0, 0), BuildingBlock: TEMPAE_clean_linker_10, # of connection points: 2
#     Edge 15, Type (0, 0), BuildingBlock: TEMPAE_clean_linker_10, # of connection points: 2
#     Edge 16, Type (0, 0), BuildingBlock: TEMPAE_clean_linker_10, # of connection points: 2
#     Edge 17, Type (0, 0), BuildingBlock: TEMPAE_clean_linker_10, # of connection points: 2
#     Edge 18, Type (0, 0), BuildingBlock: TEMPAE_clean_linker_10, # of connection points: 2
#     Edge 19, Type (0, 0), BuildingBlock: TEMPAE_clean_linker_10, # of connection points: 2
#     Edge 20, Type (0, 0), BuildingBlock: TEMPAE_clean_linker_10, # of connection points: 2
#     Edge 21, Type (0, 0), BuildingBlock: TEMPAE_clean_linker_10, # of connection points: 2
#     Edge 22, Type (0, 0), BuildingBlock: TEMPAE_clean_linker_10, # of connection points: 2
#     Edge 23, Type (0, 0), BuildingBlock: TEMPAE_clean_linker_10, # of connection points: 2
#     Edge 24, Type (0, 0), BuildingBlock: TEMPAE_clean_linker_10, # of connection points: 2
#     Edge 25, Type (0, 0), BuildingBlock: TEMPAE_clean_linker_10, # of connection points: 2
#     Edge 26, Type (0, 0), BuildingBlock: TEMPAE_clean_linker_10, # of connection points: 2
#     Edge 27, Type (0, 0), BuildingBlock: TEMPAE_clean_linker_10, # of connection points: 2
#     Edge 28, Type (0, 0), BuildingBlock: TEMPAE_clean_linker_10, # of connection points: 2
#     Edge 29, Type (0, 0), BuildingBlock: TEMPAE_clean_linker_10, # of connection points: 2
#     Edge 30, Type (0, 0), BuildingBlock: TEMPAE_clean_linker_10, # of connection points: 2
#     Edge 31, Type (0, 0), BuildingBlock: TEMPAE_clean_linker_10, # of connection points: 2
#     Edge 32, Type (0, 0), BuildingBlock: TEMPAE_clean_linker_10, # of connection points: 2
#     Edge 33, Type (0, 0), BuildingBlock: TEMPAE_clean_linker_10, # of connection points: 2
#     Edge 34, Type (0, 0), BuildingBlock: TEMPAE_clean_linker_10, # of connection points: 2
#     Edge 35, Type (0, 0), BuildingBlock: TEMPAE_clean_linker_10, # of connection points: 2
# Relax obj value: 0.045
# Max RMSD: 0.123
# Mean RMSD: 0.123
data_MOF--net-smm--node1-BETFAJ_clean_sbu_0--edge1-TEMPAE_clean_linker_10
_symmetry_space_group_name_H-M    P1
_symmetry_Int_Tables_number       1
_symmetry_cell_setting            triclinic
loop_
_symmetry_equiv_pos_as_xyz
'x, y, z'
_cell_length_a     71.834396
_cell_length_b     71.811381
_cell_length_c     14.423559
_cell_angle_alpha  89.974878
_cell_angle_beta   89.965183
_cell_angle_gamma 119.99532
loop_
_atom_site_label
_atom_site_type_symbol
_atom_site_fract_x
_atom_site_fract_y
_atom_site_fract_z
_atom_type_partial_charge
Sm0 Sm 0.05584 0.21652 0.9791 0.0
Sm1 Sm 1.01563 0.17309 0.03267 0.0
C2 C 0.08307 0.25223 0.88925 0.0
C3 C 0.08963 0.27511 0.8724 0.0
C4 C 0.08876 0.28187 0.78189 0.0
C5 C 0.09693 0.30368 0.76181 0.0
C6 C 0.10631 0.31936 0.83172 0.0
C7 C 0.10665 0.3125 0.92292 0.0
C8 C 0.09844 0.29065 0.94303 0.0
C9 C 0.05087 0.20881 0.16573 0.0
C10 C 1.00979 0.21492 0.02844 0.0
C11 C 0.98599 0.13506 0.09841 0.0
C12 C 0.97675 0.11173 0.08284 0.0
C13 C 0.9895 0.10288 0.05582 0.0
C14 C 0.98026 0.08058 0.04428 0.0
C15 C 0.95811 0.0667 0.05954 0.0
C16 C 0.94544 0.07576 0.08532 0.0
C17 C 0.95467 0.09799 0.09688 0.0
C18 C 1.02245 0.18189 0.8467 0.0
C19 C 0.0629 0.17575 0.00975 0.0
O20 O 0.06481 0.23745 0.85383 0.0
O21 O 0.08718 0.24689 0.97042 0.0
O22 O 0.03583 0.20401 0.10906 0.0
O23 O 0.06955 0.2204 0.12681 0.0
O24 O 1.02806 0.22452 0.98086 0.0
O25 O 1.00323 0.19613 0.06922 0.0
O26 O 1.00561 0.14581 0.13074 0.0
O27 O 0.98197 0.14572 0.03566 0.0
O28 O 0.03652 0.18505 0.90557 0.0
O29 O 1.0035 0.17283 0.88371 0.0
O30 O 0.04357 0.16594 0.0483 0.0
O31 O 0.07032 0.19437 0.9661 0.0
H32 H 0.08218 0.27029 0.72593 0.0
H33 H 0.09605 0.30827 0.69112 0.0
H34 H 0.11393 0.32408 0.97843 0.0
H35 H 0.0995 0.28603 0.01346 0.0
H36 H 1.0066 0.11316 0.04438 0.0
H37 H 0.99055 0.07419 0.02516 0.0
H38 H 0.9283 0.06567 0.09609 0.0
H39 H 0.94452 0.10447 0.11733 0.0
Sm40 Sm 0.8472 0.85657 0.97888 0.0
Sm41 Sm 0.89071 0.85958 0.03215 0.0
C42 C 0.81166 0.84836 0.88884 0.0
C43 C 0.78886 0.83202 0.87082 0.0
C44 C 0.78241 0.82447 0.78002 0.0
C45 C 0.76068 0.81082 0.75884 0.0
C46 C 0.74478 0.80443 0.8279 0.0
C47 C 0.75133 0.81155 0.9194 0.0
C48 C 0.77309 0.8252 0.94061 0.0
C49 C 0.85553 0.86021 0.16466 0.0
C50 C 0.8485 0.812 0.02912 0.0
C51 C 0.9284 0.86746 0.09963 0.0
C52 C 0.95171 0.88204 0.08718 0.0
C53 C 0.96594 0.87506 0.11441 0.0
C54 C 0.98814 0.88847 0.10422 0.0
C55 C 0.99666 0.90925 0.06651 0.0
C56 C 0.98228 0.91615 0.03848 0.0
C57 C 0.96 0.90267 0.04876 0.0
C58 C 0.88181 0.85751 0.84592 0.0
C59 C 0.88838 0.90437 0.00717 0.0
O60 O 0.82656 0.84513 0.85291 0.0
O61 O 0.81678 0.85744 0.97076 0.0
O62 O 0.85994 0.84945 0.10911 0.0
O63 O 0.84369 0.867 0.12579 0.0
O64 O 0.83883 0.82071 0.98248 0.0
O65 O 0.86751 0.82412 0.06811 0.0
O66 O 0.91724 0.87568 0.13427 0.0
O67 O 0.91834 0.85371 0.03301 0.0
O68 O 0.87855 0.86828 0.90534 0.0
O69 O 0.89129 0.848 0.8827 0.0
O70 O 0.89829 0.89487 0.04505 0.0
O71 O 0.86958 0.89317 0.96504 0.0
H72 H 0.79417 0.82954 0.72468 0.0
H73 H 0.75633 0.80542 0.68796 0.0
H74 H 0.73956 0.80718 0.97426 0.0
H75 H 0.77747 0.83081 0.01123 0.0
H76 H 0.95986 0.85915 0.14371 0.0
H77 H 0.99864 0.88245 0.12507 0.0
H78 H 0.98825 0.93209 0.00992 0.0
H79 H 0.94927 0.90836 0.0271 0.0
Sm80 Sm 0.20642 1.00783 -0.0116 0.0
Sm81 Sm 0.20397 0.04849 0.04091 0.0
C82 C 0.21421 0.97984 0.90137 0.0
C83 C 0.23003 0.97255 0.88715 0.0
C84 C 0.23711 0.97207 0.79689 0.0
C85 C 0.25026 0.96321 0.77959 0.0
C86 C 0.25659 0.95447 0.85217 0.0
C87 C 0.24995 0.95549 0.94304 0.0
C88 C 0.2368 0.96439 0.96035 0.0
C89 C 0.20335 1.01295 0.17465 0.0
C90 C 0.25129 0.05341 0.03817 0.0
C91 C 0.19612 0.07844 0.10694 0.0
C92 C 0.18194 0.0876 0.09201 0.0
C93 C 0.16044 0.07485 0.06394 0.0
C94 C 0.14735 0.08405 0.05208 0.0
C95 C 0.15551 0.10617 0.06797 0.0
C96 C 0.17715 0.11883 0.09497 0.0
C97 C 0.19017 0.10964 0.10689 0.0
C98 C 0.2064 0.04183 0.85535 0.0
C99 C 0.15887 1.00174 0.01458 0.0
O100 O 0.21852 0.99833 0.86521 0.0
O101 O 0.2044 0.976 0.98161 0.0
O102 O 0.21402 0.02786 0.11795 0.0
O103 O 0.1958 0.9942 0.136 0.0
O104 O 0.24242 0.03512 -0.00923 0.0
O105 O 0.23926 0.0603 0.07819 0.0
O106 O 0.18741 0.05893 0.14078 0.0
O107 O 0.21043 0.0822 0.04267 0.0
O108 O 0.19509 0.02772 0.91354 0.0
O109 O 0.21639 0.06074 0.89264 0.0
O110 O 0.16851 0.02108 0.05305 0.0
O111 O 0.16998 0.99402 0.97269 0.0
H112 H 0.23207 0.97816 0.73911 0.0
H113 H 0.25533 0.96307 0.70901 0.0
H114 H 0.25433 0.94876 0.00056 0.0
H115 H 0.23154 0.96441 0.03072 0.0
H116 H 0.15373 0.05779 0.05174 0.0
H117 H 0.13074 0.07376 0.03203 0.0
H118 H 0.18413 0.13595 0.10625 0.0
H119 H 0.20674 0.11979 0.12805 0.0
Sm120 Sm 0.721 0.54924 0.31615 0.0
Sm121 Sm 0.68052 0.50567 0.36891 0.0
C122 C 0.74838 0.58477 0.22586 0.0
C123 C 0.75508 0.60765 0.2083 0.0
C124 C 0.75465 0.61436 0.11726 0.0
C125 C 0.76298 0.63617 0.09666 0.0
C126 C 0.77209 0.65187 0.16661 0.0
C127 C 0.77199 0.64505 0.25831 0.0
C128 C 0.76361 0.62321 0.27893 0.0
C129 C 0.71635 0.5409 0.50199 0.0
C130 C 0.67522 0.54793 0.36757 0.0
C131 C 0.65059 0.46764 0.43347 0.0
C132 C 0.64168 0.44433 0.41844 0.0
C133 C 0.65471 0.43575 0.39223 0.0
C134 C 0.64577 0.41347 0.38093 0.0
C135 C 0.62364 0.39935 0.3956 0.0
C136 C 0.61069 0.40815 0.42062 0.0
C137 C 0.61962 0.43036 0.43195 0.0
C138 C 0.68749 0.51488 0.18301 0.0
C139 C 0.72767 0.50809 0.34452 0.0
O140 O 0.73008 0.57004 0.1905 0.0
O141 O 0.7524 0.5795 0.30735 0.0
O142 O 0.70114 0.53635 0.44647 0.0
O143 O 0.73493 0.55289 0.46301 0.0
O144 O 0.69349 0.55756 0.32001 0.0
O145 O 0.66843 0.52893 0.40683 0.0
O146 O 0.66997 0.47854 0.46814 0.0
O147 O 0.64689 0.47818 0.36901 0.0
O148 O 0.70145 0.51793 0.24232 0.0
O149 O 0.66849 0.50559 0.21971 0.0
O150 O 0.70824 0.49812 0.38217 0.0
O151 O 0.73528 0.52692 0.30251 0.0
H152 H 0.74828 0.60275 0.06134 0.0
H153 H 0.76245 0.64074 0.02557 0.0
H154 H 0.77905 0.65666 0.31387 0.0
H155 H 0.76431 0.6186 0.34979 0.0
H156 H 0.6718 0.44622 0.3812 0.0
H157 H 0.65627 0.40729 0.36239 0.0
H158 H 0.59356 0.39788 0.43092 0.0
H159 H 0.60926 0.43663 0.45173 0.0
Sm160 Sm 0.51407 0.1894 0.31188 0.0
Sm161 Sm 0.55731 0.1924 0.36549 0.0
C162 C 0.47875 0.18212 0.22247 0.0
C163 C 0.45557 0.1672 0.20769 0.0
C164 C 0.44629 0.1448 0.21586 0.0
C165 C 0.42436 0.13121 0.19651 0.0
C166 C 0.4114 0.1398 0.16818 0.0
C167 C 0.42082 0.16228 0.16175 0.0
C168 C 0.44261 0.17577 0.18125 0.0
C169 C 0.52159 0.19187 0.49872 0.0
C170 C 0.51537 0.14476 0.35987 0.0
C171 C 0.59515 0.20048 0.43184 0.0
C172 C 0.61847 0.21465 0.41678 0.0
C173 C 0.62718 0.23607 0.38736 0.0
C174 C 0.64946 0.24921 0.37586 0.0
C175 C 0.66346 0.24118 0.39351 0.0
C176 C 0.65453 0.21962 0.42179 0.0
C177 C 0.63232 0.20655 0.43334 0.0
C178 C 0.5487 0.19052 0.17943 0.0
C179 C 0.55507 0.23714 0.34165 0.0
O180 O 0.49235 0.17658 0.19017 0.0
O181 O 0.48465 0.19226 0.30186 0.0
O182 O 0.52637 0.18167 0.44176 0.0
O183 O 0.51008 0.19905 0.45998 0.0
O184 O 0.50581 0.15352 0.31269 0.0
O185 O 0.53413 0.15691 0.40093 0.0
O186 O 0.58436 0.20927 0.46468 0.0
O187 O 0.58462 0.18602 0.36821 0.0
O188 O 0.54554 0.20147 0.23817 0.0
O189 O 0.55766 0.18055 0.21657 0.0
O190 O 0.56469 0.22756 0.38138 0.0
O191 O 0.53661 0.22596 0.29716 0.0
H192 H 0.45601 0.13782 0.23613 0.0
H193 H 0.41767 0.11398 0.20179 0.0
H194 H 0.4113 0.1695 0.14194 0.0
H195 H 0.44944 0.19301 0.17471 0.0
H196 H 0.6168 0.24269 0.37395 0.0
H197 H 0.65575 0.26577 0.35479 0.0
H198 H 0.66472 0.21275 0.43446 0.0
H199 H 0.62593 0.19004 0.45562 0.0
Sm200 Sm 0.87348 0.3414 0.31243 0.0
Sm201 Sm 0.87018 0.38179 0.36549 0.0
C202 C 0.88183 0.31413 0.22258 0.0
C203 C 0.8981 0.30756 0.20514 0.0
C204 C 0.90515 0.30788 0.11401 0.0
C205 C 0.91872 0.29966 0.09358 0.0
C206 C 0.9255 0.29078 0.1638 0.0
C207 C 0.9189 0.29101 0.25558 0.0
C208 C 0.90533 0.29928 0.27603 0.0
C209 C 0.86961 0.34605 0.49808 0.0
C210 C 0.91787 0.38737 0.36313 0.0
C211 C 0.86133 0.41098 0.43229 0.0
C212 C 0.84629 0.41923 0.41831 0.0
C213 C 0.83561 0.42154 0.49507 0.0
C214 C 0.82229 0.43046 0.48484 0.0
C215 C 0.81938 0.4374 0.39745 0.0
C216 C 0.82983 0.4347 0.32026 0.0
C217 C 0.84311 0.4257 0.33051 0.0
C218 C 0.8724 0.37503 0.1793 0.0
C219 C 0.82561 0.33447 0.3402 0.0
O220 O 0.88528 0.33239 0.18694 0.0
O221 O 0.87255 0.31009 0.30413 0.0
O222 O 0.88038 0.36123 0.44255 0.0
O223 O 0.86296 0.32744 0.45934 0.0
O224 O 0.90926 0.36893 0.31692 0.0
O225 O 0.90568 0.39429 0.40139 0.0
O226 O 0.85345 0.39171 0.46768 0.0
O227 O 0.87565 0.41504 0.36757 0.0
O228 O 0.86169 0.36096 0.23873 0.0
O229 O 0.88169 0.39403 0.21603 0.0
O230 O 0.83498 0.35386 0.37819 0.0
O231 O 0.83691 0.327 0.29801 0.0
H232 H 0.89976 0.31408 0.05792 0.0
H233 H 0.92373 0.30009 0.02241 0.0
H234 H 0.9236 0.28413 0.31135 0.0
H235 H 0.90011 0.29867 0.34697 0.0
H236 H 0.83776 0.41664 0.56344 0.0
H237 H 0.81424 0.4319 0.5456 0.0
H238 H 0.82818 0.44002 0.25207 0.0
H239 H 0.85111 0.42411 0.26989 0.0
Sm240 Sm 0.38751 0.88347 0.64461 0.0
Sm241 Sm 0.34891 0.83843 0.69923 0.0
C242 C 0.41825 0.9176 0.55721 0.0
C243 C 0.42533 0.94047 0.53634 0.0
C244 C 0.42576 0.94694 0.44403 0.0
C245 C 0.43377 0.96864 0.42193 0.0
C246 C 0.4417 0.98449 0.4916 0.0
C247 C 0.44095 0.97792 0.58424 0.0
C248 C 0.43288 0.95621 0.60635 0.0
C249 C 0.38086 0.87682 0.83099 0.0
C250 C 0.34349 0.88167 0.70799 0.0
C251 C 0.3157 0.80238 0.76283 0.0
C252 C 0.30656 0.77899 0.75119 0.0
C253 C 0.28536 0.7649 0.77904 0.0
C254 C 0.27638 0.74265 0.76868 0.0
C255 C 0.28844 0.73399 0.73022 0.0
C256 C 0.30973 0.74826 0.70192 0.0
C257 C 0.31869 0.77054 0.71223 0.0
C258 C 0.35683 0.84655 0.51338 0.0
C259 C 0.39448 0.84096 0.66103 0.0
O260 O 0.40084 0.90287 0.5159 0.0
O261 O 0.41997 0.91253 0.64279 0.0
O262 O 0.37875 0.86276 0.77291 0.0
O263 O 0.38898 0.89575 0.79329 0.0
O264 O 0.36101 0.89222 0.65679 0.0
O265 O 0.3373 0.8622 0.74139 0.0
O266 O 0.33418 0.81271 0.80582 0.0
O267 O 0.31453 0.81287 0.69098 0.0
O268 O 0.35723 0.85949 0.57295 0.0
O269 O 0.35147 0.82807 0.55025 0.0
O270 O 0.37565 0.8301 0.70271 0.0
O271 O 0.40132 0.86037 0.62517 0.0
H272 H 0.42014 0.9352 0.38854 0.0
H273 H 0.43378 0.97299 0.35003 0.0
H274 H 0.44716 0.98964 0.6397 0.0
H275 H 0.43293 0.95185 0.67819 0.0
H276 H 0.2757 0.77111 0.80876 0.0
H277 H 0.25986 0.73224 0.78988 0.0
H278 H 0.31959 0.7422 0.67298 0.0
H279 H 0.33511 0.78117 0.69013 0.0
Sm280 Sm 0.18002 0.52405 0.64509 0.0
Sm281 Sm 0.22374 0.52739 0.69773 0.0
C282 C 0.14484 0.51679 0.55467 0.0
C283 C 0.12179 0.50185 0.5379 0.0
C284 C 0.10946 0.51005 0.49938 0.0
C285 C 0.08772 0.49645 0.47932 0.0
C286 C 0.07774 0.47425 0.49727 0.0
C287 C 0.09011 0.46606 0.53723 0.0
C288 C 0.11199 0.47975 0.55718 0.0
C289 C 0.1884 0.5277 0.83083 0.0
C290 C 0.18156 0.47961 0.69552 0.0
C291 C 0.26186 0.53618 0.76313 0.0
C292 C 0.28512 0.55123 0.74819 0.0
C293 C 0.29823 0.56208 0.82435 0.0
C294 C 0.32044 0.57547 0.8132 0.0
C295 C 0.33013 0.57829 0.72548 0.0
C296 C 0.31687 0.56767 0.6489 0.0
C297 C 0.29462 0.55432 0.66007 0.0
C298 C 0.21468 0.5252 0.51176 0.0
C299 C 0.22102 0.57195 0.6731 0.0
O300 O 0.15864 0.51153 0.5222 0.0
O301 O 0.15036 0.52643 0.63525 0.0
O302 O 0.19299 0.51712 0.7751 0.0
O303 O 0.17624 0.53412 0.79232 0.0
O304 O 0.17168 0.48822 0.64953 0.0
O305 O 0.20068 0.49183 0.73364 0.0
O306 O 0.25055 0.54409 0.79899 0.0
O307 O 0.25147 0.52183 0.69878 0.0
O308 O 0.21137 0.53593 0.57114 0.0
O309 O 0.2243 0.51581 0.54839 0.0
O310 O 0.23107 0.5626 0.71096 0.0
O311 O 0.2023 0.56063 0.63074 0.0
H312 H 0.11671 0.52706 0.48424 0.0
H313 H 0.07866 0.50341 0.4503 0.0
H314 H 0.08298 0.44904 0.55153 0.0
H315 H 0.12127 0.4731 0.58688 0.0
H316 H 0.2913 0.56001 0.89295 0.0
H317 H 0.33002 0.58366 0.87351 0.0
H318 H 0.32372 0.56925 0.58049 0.0
H319 H 0.28494 0.54619 0.59989 0.0
Sm320 Sm 0.53986 0.67571 0.63872 0.0
Sm321 Sm 0.53759 0.71646 0.69148 0.0
C322 C 0.54677 0.64725 0.55069 0.0
C323 C 0.56156 0.63879 0.53669 0.0
C324 C 0.584 0.65188 0.54296 0.0
C325 C 0.59744 0.64333 0.52428 0.0
C326 C 0.58868 0.62159 0.49855 0.0
C327 C 0.56618 0.60857 0.49412 0.0
C328 C 0.55282 0.61708 0.51293 0.0
C329 C 0.53698 0.68087 0.82513 0.0
C330 C 0.58486 0.72115 0.68825 0.0
C331 C 0.53004 0.74662 0.75765 0.0
C332 C 0.51606 0.75592 0.74169 0.0
C333 C 0.52237 0.77648 0.77607 0.0
C334 C 0.50951 0.78578 0.76207 0.0
C335 C 0.48998 0.7747 0.71325 0.0
C336 C 0.48376 0.75408 0.67822 0.0
C337 C 0.49669 0.74477 0.69232 0.0
C338 C 0.53977 0.70972 0.50577 0.0
C339 C 0.49243 0.66982 0.66658 0.0
O340 O 0.55245 0.66636 0.51749 0.0
O341 O 0.53664 0.64326 0.63008 0.0
O342 O 0.54759 0.69576 0.76831 0.0
O343 O 0.52948 0.66212 0.78656 0.0
O344 O 0.57592 0.70278 0.6414 0.0
O345 O 0.5729 0.72818 0.72795 0.0
O346 O 0.52098 0.72703 0.79062 0.0
O347 O 0.54441 0.75027 0.69385 0.0
O348 O 0.52851 0.69564 0.56415 0.0
O349 O 0.54981 0.72863 0.54294 0.0
O350 O 0.50216 0.68908 0.70561 0.0
O351 O 0.50344 0.66218 0.62323 0.0
H352 H 0.59111 0.66871 0.56117 0.0
H353 H 0.61469 0.65384 0.52798 0.0
H354 H 0.55883 0.5917 0.47633 0.0
H355 H 0.53556 0.60669 0.50791 0.0
H356 H 0.53732 0.7854 0.81384 0.0
H357 H 0.515 0.80179 0.78877 0.0
H358 H 0.46875 0.74498 0.64114 0.0
H359 H 0.49154 0.72886 0.66503 0.0
C360 C 0.11436 0.35702 0.86917 0.0
C361 C 0.1164 0.34278 0.80891 0.0
C362 C 0.12438 0.37918 0.84962 0.0
C363 C 0.13677 0.38741 0.76774 0.0
C364 C 0.1387 0.37311 0.70612 0.0
C365 C 0.12855 0.35105 0.72744 0.0
C366 C 0.12186 0.39383 0.91715 0.0
C367 C 0.1518 0.38116 0.61826 0.0
C368 C 0.14925 0.44257 0.67846 0.0
C369 C 0.17022 0.45593 0.71148 0.0
C370 C 0.13818 0.42029 0.69611 0.0
C371 C 0.14829 0.41104 0.74793 0.0
C372 C 0.1695 0.42441 0.78083 0.0
C373 C 0.18017 0.44661 0.76227 0.0
C374 C 0.1156 0.40665 0.65964 0.0
C375 C 0.18091 0.41526 0.83622 0.0
H376 H 0.10481 0.35083 0.93164 0.0
H377 H 0.13057 0.34033 0.68103 0.0
H378 H 0.13784 0.40595 0.94441 0.0
H379 H 0.11501 0.40272 0.88131 0.0
H380 H 0.1113 0.3849 0.97659 0.0
H381 H 0.15109 0.3679 0.57594 0.0
H382 H 0.14596 0.39006 0.57557 0.0
H383 H 0.16884 0.39257 0.6357 0.0
H384 H 0.14135 0.44953 0.63929 0.0
H385 H 0.19635 0.45669 0.78823 0.0
H386 H 0.10436 0.39846 0.718 0.0
H387 H 0.11482 0.39394 0.61335 0.0
H388 H 0.10999 0.41625 0.62055 0.0
H389 H 0.17164 0.40743 0.90004 0.0
H390 H 0.19743 0.42776 0.85644 0.0
H391 H 0.18193 0.40272 0.79528 0.0
C392 C 0.71346 0.7952 0.72205 0.0
C393 C 0.72146 0.79116 0.80388 0.0
C394 C 0.69147 0.78343 0.69985 0.0
C395 C 0.67696 0.76718 0.76094 0.0
C396 C 0.68492 0.7628 0.84303 0.0
C397 C 0.70702 0.77481 0.86347 0.0
C398 C 0.68369 0.78871 0.61181 0.0
C399 C 0.67004 0.74561 0.91001 0.0
C400 C 0.61808 0.75236 0.75513 0.0
C401 C 0.60854 0.73314 0.70401 0.0
C402 C 0.64025 0.76355 0.77385 0.0
C403 C 0.65336 0.7554 0.7408 0.0
C404 C 0.6439 0.7361 0.68858 0.0
C405 C 0.62164 0.72523 0.67074 0.0
C406 C 0.64964 0.78407 0.82961 0.0
C407 C 0.65727 0.72687 0.652 0.0
H408 H 0.72434 0.808 0.67613 0.0
H409 H 0.71301 0.77133 0.9262 0.0
H410 H 0.67463 0.77402 0.56907 0.0
H411 H 0.6725 0.79463 0.62907 0.0
H412 H 0.6971 0.80113 0.56963 0.0
H413 H 0.6788 0.74368 0.96928 0.0
H414 H 0.65808 0.74967 0.93758 0.0
H415 H 0.66097 0.72996 0.87365 0.0
H416 H 0.6082 0.75868 0.78126 0.0
H417 H 0.61449 0.7104 0.63133 0.0
H418 H 0.66235 0.79756 0.78895 0.0
H419 H 0.65728 0.78239 0.89345 0.0
H420 H 0.63732 0.78835 0.84983 0.0
H421 H 0.67015 0.73873 0.60605 0.0
H422 H 0.64752 0.71175 0.61254 0.0
H423 H 0.66525 0.72354 0.71036 0.0
C424 C 0.28611 0.94649 0.89202 0.0
C425 C 0.26946 0.94376 0.8325 0.0
C426 C 0.29823 0.93638 0.87406 0.0
C427 C 0.29363 0.92318 0.79461 0.0
C428 C 0.27681 0.92029 0.7345 0.0
C429 C 0.26495 0.93056 0.75418 0.0
C430 C 0.31605 0.93993 0.93983 0.0
C431 C 0.27131 0.90632 0.64923 0.0
C432 C 0.33703 0.91293 0.69679 0.0
C433 C 0.33068 0.89223 0.73039 0.0
C434 C 0.32524 0.92321 0.71767 0.0
C435 C 0.30656 0.91259 0.77356 0.0
C436 C 0.30008 0.89173 0.80797 0.0
C437 C 0.31219 0.88182 0.78606 0.0
C438 C 0.33273 0.94544 0.67953 0.0
C439 C 0.28028 0.87983 0.86776 0.0
H440 H 0.2899 0.95681 0.95215 0.0
H441 H 0.25189 0.92799 0.70859 0.0
H442 H 0.31323 0.92428 0.96709 0.0
H443 H 0.33163 0.94749 0.90236 0.0
H444 H 0.31738 0.95036 -0.0007 0.0
H445 H 0.25773 0.90565 0.60963 0.0
H446 H 0.28552 0.91254 0.60289 0.0
H447 H 0.26699 0.88972 0.66935 0.0
H448 H 0.35128 0.9212 0.65391 0.0
H449 H 0.30712 0.86587 0.8127 0.0
H450 H 0.33559 0.95679 0.73713 0.0
H451 H 0.32006 0.94521 0.63476 0.0
H452 H 0.34775 0.95165 0.63829 0.0
H453 H 0.2818 0.88943 0.93046 0.0
H454 H 0.27751 0.86382 0.88993 0.0
H455 H 0.26593 0.87756 0.82919 0.0
C456 C 0.37921 0.13033 0.06806 0.0
C457 C 0.38818 0.1256 0.14477 0.0
C458 C 0.35718 0.11796 0.04768 0.0
C459 C 0.34362 0.10034 0.10527 0.0
C460 C 0.35263 0.09512 0.18147 0.0
C461 C 0.37478 0.10777 0.2002 0.0
C462 C 0.34832 0.12405 0.96546 0.0
C463 C 0.33877 0.07651 0.24475 0.0
C464 C 0.28424 0.08362 0.11169 0.0
C465 C 0.27497 0.06547 0.05379 0.0
C466 C 0.30646 0.09493 0.12946 0.0
C467 C 0.3199 0.08807 0.08816 0.0
C468 C 0.3107 0.06981 0.02944 0.0
C469 C 0.28838 0.05872 0.01306 0.0
C470 C 0.31554 0.11429 0.19258 0.0
C471 C 0.32446 0.062 -0.01625 0.0
H472 H 0.38947 0.14382 0.02376 0.0
H473 H 0.38149 0.10407 0.25996 0.0
H474 H 0.33962 0.11004 0.91866 0.0
H475 H 0.33658 0.12876 -0.01054 0.0
H476 H 0.36111 0.1376 0.92515 0.0
H477 H 0.34835 0.07384 0.29805 0.0
H478 H 0.32687 0.07958 0.2804 0.0
H479 H 0.32961 0.06155 0.20378 0.0
H480 H 0.27412 0.08899 0.14389 0.0
H481 H 0.28144 0.04473 0.96829 0.0
H482 H 0.32751 0.12879 0.15437 0.0
H483 H 0.32404 0.11194 0.25169 0.0
H484 H 0.30291 0.11737 0.22041 0.0
H485 H 0.33675 0.07487 0.93912 0.0
H486 H 0.31486 0.04745 0.94065 0.0
H487 H 0.33316 0.05821 0.03726 0.0
C488 C 0.93421 0.26781 0.061 0.0
C489 C 0.93869 0.28057 0.1408 0.0
C490 C 0.94599 0.25755 0.0396 0.0
C491 C 0.96269 0.25998 0.09945 0.0
C492 C 0.96746 0.273 0.17961 0.0
C493 C 0.95543 0.28312 0.19927 0.0
C494 C 0.94031 0.24377 0.95364 0.0
C495 C 0.98514 0.27606 0.2452 0.0
C496 C 0.97858 0.21667 0.0972 0.0
C497 C 0.99746 0.22628 0.04376 0.0
C498 C 0.96714 0.22743 0.11557 0.0
C499 C 0.97469 0.24837 0.07971 0.0
C500 C 0.99363 0.25812 0.02507 0.0
C501 C 1.00477 0.24698 0.00773 0.0
C502 C 0.94701 0.21641 0.174 0.0
C503 C 1.00221 0.28039 -0.0146 0.0
H504 H 0.92111 0.26542 0.01605 0.0
H505 H 0.95923 0.29314 0.26042 0.0
H506 H 0.95471 0.2493 0.90899 0.0
H507 H 0.93484 0.22687 0.97337 0.0
H508 H 0.92743 0.24413 0.91246 0.0
H509 H 0.98719 0.28707 0.30334 0.0
H510 H 0.98153 0.26031 0.27445 0.0
H511 H 1.00059 0.28265 0.20718 0.0
H512 H 0.97273 0.20072 0.1255 0.0
H513 H 1.01934 0.2546 0.96647 0.0
H514 H 0.93315 0.21508 0.13449 0.0
H515 H 0.94892 0.22615 0.23672 0.0
H516 H 0.94317 0.20005 0.19619 0.0
H517 H 0.98989 0.28081 0.94053 0.0
H518 H 1.01708 0.2857 0.94397 0.0
H519 H 1.00577 0.29209 0.04229 0.0
C520 C 0.81624 0.77501 0.01003 0.0
C521 C 0.83704 0.78832 0.04495 0.0
C522 C 0.80504 0.75273 0.02768 0.0
C523 C 0.81482 0.74346 0.08154 0.0
C524 C 0.83586 0.75677 0.11633 0.0
C525 C 0.84668 0.77896 0.09764 0.0
C526 C 0.78266 0.73913 -0.01089 0.0
C527 C 0.84691 0.74759 0.17396 0.0
C528 C 0.78009 0.68957 0.20224 0.0
C529 C 0.78239 0.67527 0.1434 0.0
C530 C 0.79029 0.71172 0.18237 0.0
C531 C 0.80314 0.71985 0.1016 0.0
C532 C 0.80532 0.70549 0.04138 0.0
C533 C 0.79498 0.68345 0.06301 0.0
C534 C 0.7875 0.72645 0.24837 0.0
C535 C 0.81891 0.71346 0.95476 0.0
H536 H 0.80859 0.782 0.96934 0.0
H537 H 0.86272 0.78901 0.12511 0.0
H538 H 0.78206 0.72632 0.94404 0.0
H539 H 0.77108 0.73106 0.04655 0.0
H540 H 0.77734 0.74873 0.94817 0.0
H541 H 0.86334 0.76005 0.19541 0.0
H542 H 0.83731 0.73983 0.23712 0.0
H543 H 0.84808 0.73499 0.13416 0.0
H544 H 0.7702 0.68344 0.26385 0.0
H545 H 0.79719 0.67266 0.01776 0.0
H546 H 0.7809 0.73537 0.2109 0.0
H547 H 0.80335 0.73855 0.27684 0.0
H548 H 0.77662 0.71758 0.30705 0.0
H549 H 0.81336 0.72238 0.91057 0.0
H550 H 0.81836 0.70015 0.9134 0.0
H551 H 0.83586 0.72482 0.97369 0.0
C552 C 0.04062 0.44382 0.53579 0.0
C553 C 0.05454 0.45993 0.47412 0.0
C554 C 1.01849 0.4312 0.51685 0.0
C555 C 1.01001 0.4347 0.43415 0.0
C556 C 1.02407 0.45056 0.37059 0.0
C557 C 0.04609 0.46292 0.39124 0.0
C558 C 1.00407 0.41447 0.58649 0.0
C559 C 1.01578 0.45477 0.28144 0.0
C560 C 0.95477 0.39167 0.34814 0.0
C561 C 0.94153 0.39962 0.37924 0.0
C562 C 0.97703 0.40282 0.36587 0.0
C563 C 0.98636 0.42244 0.41568 0.0
C564 C 0.9731 0.43059 0.44681 0.0
C565 C 0.95092 0.41911 0.42833 0.0
C566 C 0.99056 0.39356 0.33148 0.0
C567 C 0.98237 0.45148 0.49981 0.0
H568 H 0.04692 0.44149 0.60028 0.0
H569 H 0.05674 0.47505 0.34231 0.0
H570 H 0.99234 0.41876 0.61475 0.0
H571 H 0.99473 0.39857 0.55233 0.0
H572 H 1.01325 0.41295 0.64509 0.0
H573 H 1.0289 0.46711 0.23774 0.0
H574 H 1.00701 0.43971 0.24079 0.0
H575 H 1.00423 0.46033 0.29726 0.0
H576 H 0.94774 0.37662 0.31042 0.0
H577 H 0.94092 0.42545 0.45278 0.0
H578 H 0.9988 0.39088 0.39067 0.0
H579 H 1.00322 0.40512 0.28393 0.0
H580 H 0.98087 0.37808 0.29435 0.0
H581 H 0.99043 0.45047 0.56365 0.0
H582 H 0.96991 0.45558 0.51971 0.0
H583 H 0.99473 0.46478 0.45714 0.0
C584 C 0.59765 0.59819 0.40041 0.0
C585 C 0.60272 0.61235 0.47558 0.0
C586 C 0.60996 0.58843 0.38024 0.0
C587 C 0.62786 0.59288 0.43648 0.0
C588 C 0.63339 0.60752 0.51125 0.0
C589 C 0.62079 0.6171 0.52977 0.0
C590 C 0.60355 0.57305 0.29952 0.0
C591 C 0.65231 0.61268 0.57308 0.0
C592 C 0.64518 0.55063 0.44356 0.0
C593 C 0.66303 0.55941 0.38387 0.0
C594 C 0.63378 0.56144 0.46181 0.0
C595 C 0.64024 0.58154 0.41908 0.0
C596 C 0.6582 0.59049 0.35857 0.0
C597 C 0.66939 0.57936 0.34186 0.0
C598 C 0.61477 0.55131 0.52694 0.0
C599 C 0.66557 0.61181 0.31125 0.0
H600 H 0.58397 0.59469 0.35703 0.0
H601 H 0.62476 0.62788 0.58838 0.0
H602 H 0.61731 0.57824 0.25124 0.0
H603 H 0.59917 0.55677 0.32493 0.0
H604 H 0.5897 0.57191 0.2604 0.0
H605 H 0.65508 0.62509 0.62571 0.0
H606 H 0.64956 0.5979 0.60948 0.0
H607 H 0.6671 0.61846 0.53085 0.0
H608 H 0.64011 0.53529 0.47681 0.0
H609 H 0.68315 0.58634 0.29568 0.0
H610 H 0.60002 0.54844 0.49 0.0
H611 H 0.6173 0.56241 0.58526 0.0
H612 H 0.61201 0.53579 0.55584 0.0
H613 H 0.65243 0.61089 0.2676 0.0
H614 H 0.67993 0.6167 0.26685 0.0
H615 H 0.66949 0.62451 0.36383 0.0
C616 C 0.48372 0.10755 0.33579 0.0
C617 C 0.50412 0.12102 0.37406 0.0
C618 C 0.47277 0.08519 0.35167 0.0
C619 C 0.4824 0.07602 0.4072 0.0
C620 C 0.50304 0.08952 0.44541 0.0
C621 C 0.51362 0.11177 0.42835 0.0
C622 C 0.45082 0.07139 0.30941 0.0
C623 C 0.51392 0.08048 0.50509 0.0
C624 C 0.44788 0.02168 0.52465 0.0
C625 C 0.4513 1.0078 0.46765 0.0
C626 C 0.45756 0.04379 0.5049 0.0
C627 C 0.47097 0.05235 0.42596 0.0
C628 C 0.47417 0.0384 0.36717 0.0
C629 C 0.46437 1.01637 0.38877 0.0
C630 C 0.45371 0.05807 0.56947 0.0
C631 C 0.48834 0.04682 0.2824 0.0
H632 H 0.47619 0.11447 0.29379 0.0
H633 H 0.52935 0.12194 0.45842 0.0
H634 H 0.45093 0.05891 0.26442 0.0
H635 H 0.43879 0.0629 0.36488 0.0
H636 H 0.44558 0.08093 0.26749 0.0
H637 H 0.53004 0.09309 0.52916 0.0
H638 H 0.50383 0.07235 0.56669 0.0
H639 H 0.51574 0.06821 0.46578 0.0
H640 H 0.43758 1.01525 0.58492 0.0
H641 H 0.46742 1.00595 0.34486 0.0
H642 H 0.4472 0.06684 0.53022 0.0
H643 H 0.46915 0.0703 0.60067 0.0
H644 H 0.44233 0.04886 0.62625 0.0
H645 H 0.48292 0.05572 0.23733 0.0
H646 H 0.48833 0.03375 0.24116 0.0
H647 H 0.5051 0.05831 0.30362 0.0
C648 C 0.12694 0.11022 -0.01624 0.0
C649 C 0.1416 0.11606 0.05743 0.0
C650 C 0.11399 0.11968 0.97284 0.0
C651 C 0.11566 0.13536 0.03712 0.0
C652 C 0.13036 0.14128 0.11169 0.0
C653 C 0.14308 0.13157 0.12098 0.0
C654 C 0.09855 0.11292 0.89232 0.0
C655 C 0.13259 0.15783 0.18209 0.0
C656 C 0.09639 0.1744 0.97057 0.0
C657 C 0.07628 0.16526 0.01468 0.0
C658 C 0.10922 0.16471 0.97616 0.0
C659 C 0.10186 0.14542 0.02736 0.0
C660 C 0.08152 0.13603 0.07134 0.0
C661 C 0.069 0.14601 0.06438 0.0
C662 C 0.13076 0.17521 0.92793 0.0
C663 C 0.07306 0.11552 0.12677 0.0
H664 H 0.12582 0.09847 0.93363 0.0
H665 H 0.15406 0.13597 0.17901 0.0
H666 H 0.08188 0.10636 0.91828 0.0
H667 H 0.10229 0.12709 0.84859 0.0
H668 H 0.09918 0.10056 0.84831 0.0
H669 H 0.14494 0.16086 0.23544 0.0
H670 H 0.13703 0.17324 0.14685 0.0
H671 H 0.11698 0.15239 0.21738 0.0
H672 H 0.10218 0.18921 0.93174 0.0
H673 H 0.05351 0.13873 0.09877 0.0
H674 H 0.13159 0.16369 0.87922 0.0
H675 H 0.14376 0.17978 0.97967 0.0
H676 H 0.13391 0.18982 0.88869 0.0
H677 H 0.07251 0.10258 0.08283 0.0
H678 H 0.0567 0.10997 0.1549 0.0
H679 H 0.08404 0.11802 0.18546 0.0
C680 C 0.91815 0.94027 0.06098 0.0
C681 C 0.89895 0.92826 0.01117 0.0
C682 C 0.92815 0.96279 0.06723 0.0
C683 C 0.91884 0.97371 0.02236 0.0
C684 C 0.89962 0.96174 0.97102 0.0
C685 C 0.88989 0.9392 0.96622 0.0
C686 C 0.94858 0.97487 0.12291 0.0
C687 C 0.8892 0.97274 0.92182 0.0
C688 C 0.9326 0.02896 0.11347 0.0
C689 C 0.9482 0.04286 0.04983 0.0
C690 C 0.92291 1.00651 0.10507 0.0
C691 C 0.92892 0.99758 0.03129 0.0
C692 C 0.94468 1.01148 0.96691 0.0
C693 C 0.95413 0.03391 0.97695 0.0
C694 C 0.90627 0.99231 0.17557 0.0
C695 C 0.95153 1.00265 0.88717 0.0
H696 H 0.92534 0.93207 0.09608 0.0
H697 H 0.87513 0.93015 0.92728 0.0
H698 H 0.96159 0.98718 0.07889 0.0
H699 H 0.94602 0.98347 0.18104 0.0
H700 H 0.95406 0.96408 0.15186 0.0
H701 H 0.87465 0.96125 0.88252 0.0
H702 H 0.88458 0.98125 0.97296 0.0
H703 H 0.9008 0.98502 0.873 0.0
H704 H 0.92813 0.03565 0.1709 0.0
H705 H 0.96595 0.04446 0.92677 0.0
H706 H 0.91165 0.98217 0.21157 0.0
H707 H 0.8909 0.98131 0.1403 0.0
H708 H 0.90321 1.00174 0.22833 0.0
H709 H 0.95804 0.99257 0.91397 0.0
H710 H 0.96395 1.01557 0.84298 0.0
H711 H 0.93741 0.99216 0.84341 0.0
C712 C 1.02938 0.93617 0.97734 0.0
C713 C 1.02043 0.92354 0.05705 0.0
C714 C 0.05179 0.94925 0.96705 0.0
C715 C 0.06565 0.94978 0.03814 0.0
C716 C 0.05672 0.93721 0.11901 0.0
C717 C 0.03429 0.92432 0.12751 0.0
C718 C 0.06064 0.96239 0.87972 0.0
C719 C 0.07087 0.93734 0.19669 0.0
C720 C 0.12417 0.96753 0.98319 0.0
C721 C 0.13497 0.98864 0.0176 0.0
C722 C 0.10163 0.95483 -0.01183 0.0
C723 C 0.08951 0.96342 0.0283 0.0
C724 C 0.10028 0.98482 0.06177 0.0
C725 C 0.12282 0.99713 0.05621 0.0
C726 C 0.0908 0.93209 0.95175 0.0
C727 C 0.08801 0.99465 0.10469 0.0
H728 H 1.01887 0.93553 0.92204 0.0
H729 H 1.02758 0.91493 0.19004 0.0
H730 H 0.07071 0.97967 0.89741 0.0
H731 H 0.07115 0.95753 0.84321 0.0
H732 H 0.04774 0.96046 0.83152 0.0
H733 H 0.06144 0.92664 0.25495 0.0
H734 H 0.08202 0.93209 0.17022 0.0
H735 H 0.08086 0.95392 0.22375 0.0
H736 H 0.13332 0.96078 0.95317 0.0
H737 H 0.13092 1.01343 0.08273 0.0
H738 H 0.07855 0.92975 0.89917 0.0
H739 H 0.0823 0.92062 0.00908 0.0
H740 H 0.1024 0.92802 0.91991 0.0
H741 H 0.07564 0.99364 0.05567 0.0
H742 H 0.09867 1.01176 0.12406 0.0
H743 H 0.07948 0.98551 0.16778 0.0
C744 C 0.73315 0.47751 0.39225 0.0
C745 C 0.74103 0.49757 0.3486 0.0
C746 C 0.74566 0.4675 0.39842 0.0
C747 C 0.76663 0.47773 0.36009 0.0
C748 C 0.77462 0.49786 0.31515 0.0
C749 C 0.76176 0.50753 0.30997 0.0
C750 C 0.73649 0.44605 0.4469 0.0
C751 C 0.79686 0.50929 0.27317 0.0
C752 C 0.80651 0.46216 0.45494 0.0
C753 C 0.80587 0.44776 0.38737 0.0
C754 C 0.7939 0.47203 0.44675 0.0
C755 C 0.78033 0.46754 0.36881 0.0
C756 C 0.77968 0.45315 0.30001 0.0
C757 C 0.79239 0.44342 0.31016 0.0
C758 C 0.79511 0.48727 0.5217 0.0
C759 C 0.76543 0.44792 0.21586 0.0
H760 H 0.71718 0.4696 0.42229 0.0
H761 H 0.76804 0.52298 0.27598 0.0
H762 H 0.7367 0.43398 0.39957 0.0
H763 H 0.74658 0.4475 0.5077 0.0
H764 H 0.71973 0.43995 0.471 0.0
H765 H 0.80054 0.52461 0.23885 0.0
H766 H 0.80904 0.51283 0.32781 0.0
H767 H 0.79847 0.49877 0.22133 0.0
H768 H 0.81711 0.46596 0.51403 0.0
H769 H 0.79153 0.43216 0.25806 0.0
H770 H 0.77897 0.48138 0.55257 0.0
H771 H 0.8003 0.50334 0.49149 0.0
H772 H 0.80647 0.48908 0.57789 0.0
H773 H 0.74838 0.44047 0.23774 0.0
H774 H 0.76707 0.43676 0.16765 0.0
H775 H 0.76943 0.4629 0.17777 0.0
C776 C 0.59839 0.36151 0.44914 0.0
C777 C 0.61402 0.37555 0.38595 0.0
C778 C 0.58892 0.33908 0.44061 0.0
C779 C 0.5952 0.33031 0.36716 0.0
C780 C 0.61103 0.34435 0.30332 0.0
C781 C 0.62025 0.36676 0.31348 0.0
C782 C 0.57221 0.32474 0.51053 0.0
C783 C 0.61816 0.33569 0.22394 0.0
C784 C 0.58465 0.27305 0.39654 0.0
C785 C 0.56557 0.26102 0.34599 0.0
C786 C 0.59456 0.29556 0.40308 0.0
C787 C 0.58527 0.30646 0.35779 0.0
C788 C 0.56617 0.29447 0.30567 0.0
C789 C 0.55655 0.27194 0.30054 0.0
C790 C 0.61487 0.30767 0.45952 0.0
C791 C 0.55578 0.30544 0.25602 0.0
H792 H 0.5937 0.36808 0.50628 0.0
H793 H 0.6321 0.3774 0.26364 0.0
H794 H 0.55692 0.31372 0.47472 0.0
H795 H 0.5776 0.31462 0.54661 0.0
H796 H 0.56898 0.33405 0.56327 0.0
H797 H 0.63067 0.3487 0.18039 0.0
H798 H 0.62467 0.32563 0.25105 0.0
H799 H 0.60419 0.32522 0.17945 0.0
H800 H 0.59183 0.26487 0.43195 0.0
H801 H 0.54187 0.26288 0.26104 0.0
H802 H 0.61212 0.31614 0.51764 0.0
H803 H 0.62792 0.32009 0.41603 0.0
H804 H 0.62038 0.29692 0.48855 0.0
H805 H 0.55097 0.31383 0.30697 0.0
H806 H 0.54134 0.29394 0.2161 0.0
H807 H 0.56744 0.3178 0.20771 0.0
C808 C 0.70119 0.25397 0.44852 0.0
C809 C 0.68726 0.25518 0.38359 0.0
C810 C 0.72363 0.2668 0.43993 0.0
C811 C 0.73249 0.28133 0.36467 0.0
C812 C 0.71857 0.28271 0.29899 0.0
C813 C 0.69616 0.26965 0.30922 0.0
C814 C 0.73785 0.26487 0.5118 0.0
C815 C 0.72735 0.29796 0.21771 0.0
C816 C 0.78958 0.3283 0.39238 0.0
C817 C 0.80174 0.32102 0.34423 0.0
C818 C 0.76708 0.31568 0.39862 0.0
C819 C 0.75634 0.29522 0.3556 0.0
C820 C 0.76846 0.28786 0.30604 0.0
C821 C 0.79097 0.30081 0.30104 0.0
C822 C 0.75481 0.32415 0.45224 0.0
C823 C 0.75764 0.26618 0.25903 0.0
H824 H 0.69454 0.24313 0.50707 0.0
H825 H 0.68559 0.27054 0.25806 0.0
H826 H 0.74898 0.26046 0.47795 0.0
H827 H 0.74786 0.2806 0.54642 0.0
H828 H 0.72847 0.25263 0.56554 0.0
H829 H 0.71441 0.29711 0.17264 0.0
H830 H 0.73731 0.31471 0.2429 0.0
H831 H 0.73794 0.2942 0.17526 0.0
H832 H 0.79764 0.34386 0.42611 0.0
H833 H 0.80014 0.29501 0.26348 0.0
H834 H 0.74622 0.31326 0.51116 0.0
H835 H 0.7425 0.32453 0.40717 0.0
H836 H 0.76547 0.34058 0.47986 0.0
H837 H 0.74918 0.2533 0.31136 0.0
H838 H 0.76925 0.26303 0.22106 0.0
H839 H 0.74536 0.26513 0.2094 0.0
C840 C 0.4734 0.79609 0.77256 0.0
C841 C 0.47615 0.78463 0.70006 0.0
C842 C 0.46054 0.8056 0.76161 0.0
C843 C 0.45003 0.80362 0.67607 0.0
C844 C 0.45277 0.79215 0.6024 0.0
C845 C 0.46576 0.78279 0.61527 0.0
C846 C 0.45798 0.81756 0.8422 0.0
C847 C 0.44186 0.78966 0.51012 0.0
C848 C 0.4004 0.80975 0.68638 0.0
C849 C 0.40852 0.83118 0.65812 0.0
C850 C 0.41358 0.80048 0.69015 0.0
C851 C 0.43554 0.81288 0.66538 0.0
C852 C 0.44376 0.83434 0.63454 0.0
C853 C 0.43016 0.84322 0.63106 0.0
C854 C 0.40407 0.77751 0.72285 0.0
C855 C 0.46708 0.84811 0.60754 0.0
H856 H 0.48106 0.79735 0.83879 0.0
H857 H 0.46797 0.77423 0.55841 0.0
H858 H 0.46276 0.83422 0.82114 0.0
H859 H 0.44086 0.80959 0.86355 0.0
H860 H 0.46777 0.81826 0.9031 0.0
H861 H 0.44599 0.78069 0.45914 0.0
H862 H 0.42417 0.781 0.51965 0.0
H863 H 0.44654 0.8057 0.48088 0.0
H864 H 0.38368 0.80018 0.70678 0.0
H865 H 0.43663 0.85976 0.60913 0.0
H866 H 0.41195 0.77707 0.78831 0.0
H867 H 0.40708 0.76793 0.6709 0.0
H868 H 0.38648 0.76969 0.73516 0.0
H869 H 0.47744 0.85063 0.66872 0.0
H870 H 0.47073 0.86406 0.58032 0.0
H871 H 0.47142 0.83985 0.554 0.0
C872 C 0.25165 0.60824 0.71799 0.0
C873 C 0.23126 0.59582 0.67761 0.0
C874 C 0.26134 0.63073 0.72485 0.0
C875 C 0.25041 0.64117 0.69088 0.0
C876 C 0.22993 0.62877 0.64933 0.0
C877 C 0.22063 0.60629 0.64307 0.0
C878 C 0.28322 0.64331 0.76928 0.0
C879 C 0.2177 0.63923 0.61242 0.0
C880 C 0.26559 0.69618 0.78997 0.0
C881 C 0.27883 0.71019 0.72009 0.0
C882 C 0.25623 0.67376 0.78121 0.0
C883 C 0.26021 0.665 0.70069 0.0
C884 C 0.27361 0.67901 0.63001 0.0
C885 C 0.28272 0.70138 0.64049 0.0
C886 C 0.24211 0.65944 0.85838 0.0
C887 C 0.27826 0.67034 0.54307 0.0
H888 H 0.26008 0.6004 0.74479 0.0
H889 H 0.2049 0.59692 0.6118 0.0
H890 H 0.29465 0.65574 0.72053 0.0
H891 H 0.28221 0.65181 0.83164 0.0
H892 H 0.28985 0.63288 0.79014 0.0
H893 H 0.20216 0.62743 0.58033 0.0
H894 H 0.21444 0.64757 0.66951 0.0
H895 H 0.22752 0.65158 0.55991 0.0
H896 H 0.26272 0.70277 0.8524 0.0
H897 H 0.29268 0.71199 0.5855 0.0
H898 H 0.24891 0.64972 0.88649 0.0
H899 H 0.22588 0.64804 0.83111 0.0
H900 H 0.24042 0.66874 0.91606 0.0
H901 H 0.2858 0.6606 0.56134 0.0
H902 H 0.28912 0.68334 0.49486 0.0
H903 H 0.26303 0.65958 0.50633 0.0
C904 C 0.4565 0.66469 0.71452 0.0
C905 C 0.46853 0.65664 0.67091 0.0
C906 C 0.43399 0.65227 0.72144 0.0
C907 C 0.42311 0.63123 0.68394 0.0
C908 C 0.4351 0.62309 0.63887 0.0
C909 C 0.45762 0.63587 0.63289 0.0
C910 C 0.42186 0.66159 0.76996 0.0
C911 C 0.42414 0.60078 0.59778 0.0
C912 C 0.3679 0.59145 0.78165 0.0
C913 C 0.35398 0.5919 0.71443 0.0
C914 C 0.39034 0.60412 0.7725 0.0
C915 C 0.39925 0.61756 0.69393 0.0
C916 C 0.38534 0.61804 0.62553 0.0
C917 C 0.36293 0.60527 0.63664 0.0
C918 C 0.40455 0.60309 0.84705 0.0
C919 C 0.39415 0.63214 0.54073 0.0
H920 H 0.46468 0.68071 0.74399 0.0
H921 H 0.46667 0.62946 0.59898 0.0
H922 H 0.40948 0.66129 0.72305 0.0
H923 H 0.41336 0.65165 0.8314 0.0
H924 H 0.4326 0.67841 0.79309 0.0
H925 H 0.43566 0.59701 0.56293 0.0
H926 H 0.41566 0.58869 0.65307 0.0
H927 H 0.41186 0.59908 0.5466 0.0
H928 H 0.36124 0.58094 0.8412 0.0
H929 H 0.35239 0.60598 0.58479 0.0
H930 H 0.4149 0.61931 0.87697 0.0
H931 H 0.41535 0.59781 0.81668 0.0
H932 H 0.39514 0.59187 0.90397 0.0
H933 H 0.40384 0.64924 0.56186 0.0
H934 H 0.38124 0.63044 0.49313 0.0
H935 H 0.405 0.62804 0.50222 0.0
C936 C 0.04176 0.18213 0.70438 0.0
C937 C 1.02696 0.18649 0.74791 0.0
C938 C 0.046 0.18598 0.60943 0.0
C939 C 0.03595 0.19539 0.55852 0.0
C940 C 1.02155 0.20054 0.60338 0.0
C941 C 1.01681 0.19552 0.69752 0.0
C942 C 0.06074 0.17945 0.5632 0.0
C943 C 1.01127 0.21143 0.55214 0.0
C944 C 0.06188 0.22075 0.32851 0.0
C945 C 0.04741 0.20549 0.26599 0.0
C946 C 0.05803 0.21801 0.42431 0.0
C947 C 0.03989 0.19906 0.45758 0.0
C948 C 1.02553 0.1834 0.39433 0.0
C949 C 1.02917 0.18716 0.29909 0.0
C950 C 0.07311 0.23549 0.48968 0.0
C951 C 1.0065 0.16258 0.4271 0.0
H952 H 0.0495 0.17509 0.74416 0.0
H953 H 1.0056 0.19913 0.73234 0.0
H954 H 0.05206 0.16794 0.50627 0.0
H955 H 0.07469 0.19367 0.53177 0.0
H956 H 0.06681 0.17182 0.61248 0.0
H957 H 1.00192 0.21598 0.59904 0.0
H958 H 1.0238 0.22612 0.51684 0.0
H959 H 1.00033 0.20058 0.49776 0.0
H960 H 0.07583 0.23512 0.30241 0.0
H961 H 1.01793 0.17554 0.25039 0.0
H962 H 0.08107 0.22929 0.5361 0.0
H963 H 0.06391 0.24063 0.53438 0.0
H964 H 0.08572 0.24978 0.45222 0.0
H965 H 1.01193 0.15428 0.47573 0.0
H966 H 0.99777 0.15152 0.36879 0.0
H967 H 0.99509 0.16591 0.46537 0.0
C968 C 0.87216 0.87257 0.71137 0.0
C969 C 0.87695 0.85729 0.74683 0.0
C970 C 0.86812 0.87311 0.61672 0.0
C971 C 0.86843 0.85768 0.55678 0.0
C972 C 0.87274 0.84186 0.59274 0.0
C973 C 0.87719 0.842 0.68752 0.0
C974 C 0.86396 0.89044 0.58061 0.0
C975 C 0.87277 0.82489 0.53103 0.0
C976 C 0.84092 0.84887 0.32339 0.0
C977 C 0.8586 0.86013 0.26475 0.0
C978 C 0.84387 0.84773 0.41895 0.0
C979 C 0.86495 0.85854 0.45592 0.0
C980 C 0.8828 0.87031 0.39654 0.0
C981 C 0.87937 0.87077 0.3012 0.0
C982 C 0.82452 0.83472 0.48002 0.0
C983 C 0.90547 0.88247 0.43368 0.0
H984 H 0.87199 0.88442 0.75742 0.0
H985 H 0.88073 0.83008 0.71532 0.0
H986 H 0.87634 0.90037 0.52838 0.0
H987 H 0.84813 0.8831 0.54542 0.0
H988 H 0.86418 0.90116 0.63663 0.0
H989 H 0.8753 0.81307 0.57071 0.0
H990 H 0.8573 0.81614 0.49319 0.0
H991 H 0.88569 0.8326 0.47834 0.0
H992 H 0.82488 0.84056 0.29411 0.0
H993 H 0.8929 0.87971 0.25518 0.0
H994 H 0.82356 0.8451 0.5345 0.0
H995 H 0.82612 0.8219 0.51579 0.0
H996 H 0.80925 0.82712 0.44015 0.0
H997 H 0.90675 0.89424 0.48673 0.0
H998 H 0.91748 0.89121 0.37829 0.0
H999 H 0.90959 0.87119 0.4681 0.0
C1000 C 0.1863 0.02556 0.71115 0.0
C1001 C 0.20602 0.03759 0.75622 0.0
C1002 C 0.18553 0.0214 0.61601 0.0
C1003 C 0.20498 0.0286 0.5666 0.0
C1004 C 0.22496 0.04025 0.61294 0.0
C1005 C 0.22523 0.04506 0.70727 0.0
C1006 C 0.16397 1.00972 0.56813 0.0
C1007 C 0.24597 0.04739 0.5632 0.0
C1008 C 0.20094 1.00076 0.33807 0.0
C1009 C 0.20328 1.01655 0.27469 0.0
C1010 C 0.20195 1.00464 0.43374 0.0
C1011 C 0.20441 0.02438 0.46589 0.0
C1012 C 0.20625 0.04013 0.40179 0.0
C1013 C 0.2062 0.03621 0.30679 0.0
C1014 C 0.20078 0.98784 0.50025 0.0
C1015 C 0.20809 0.06105 0.43339 0.0
H1016 H 0.1715 1.0199 0.75 0.0
H1017 H 0.24041 0.05412 0.74344 0.0
H1018 H 0.16347 1.01973 0.51057 0.0
H1019 H 0.16153 0.99452 0.53729 0.0
H1020 H 0.15043 1.00587 0.61623 0.0
H1021 H 0.25998 0.05505 0.61081 0.0
H1022 H 0.24573 0.0334 0.52932 0.0
H1023 H 0.24823 0.05906 0.50781 0.0
H1024 H 0.19896 0.98565 0.31285 0.0
H1025 H 0.20822 0.04845 0.25748 0.0
H1026 H 0.18649 0.98209 0.5457 0.0
H1027 H 0.21515 0.99498 0.54583 0.0
H1028 H 0.19985 0.97378 0.46375 0.0
H1029 H 0.19462 0.05778 0.48083 0.0
H1030 H 0.20792 0.07092 0.3744 0.0
H1031 H 0.22323 0.07061 0.47265 0.0
C1032 C 0.72175 0.55574 0.66129 0.0
C1033 C 0.7132 0.53794 0.60217 0.0
C1034 C 0.71773 0.55302 0.75696 0.0
C1035 C 0.70543 0.53197 0.79354 0.0
C1036 C 0.69723 0.51396 0.7337 0.0
C1037 C 0.70101 0.51724 0.63829 0.0
C1038 C 0.72628 0.57259 0.81856 0.0
C1039 C 0.68459 0.49126 0.77043 0.0
C1040 C 0.71154 0.5228 0.04738 0.0
C1041 C 0.69222 0.51989 0.08418 0.0
C1042 C 0.71611 0.52687 0.95275 0.0
C1043 C 0.70125 0.52866 0.89448 0.0
C1044 C 0.682 0.52639 0.93201 0.0
C1045 C 0.67755 0.52171 0.02657 0.0
C1046 C 0.73656 0.52867 0.91478 0.0
C1047 C 0.66606 0.52875 0.87217 0.0
H1048 H 0.73107 0.57177 0.63234 0.0
H1049 H 0.69478 0.50359 0.59198 0.0
H1050 H 0.71279 0.57266 0.85574 0.0
H1051 H 0.73714 0.57209 0.87189 0.0
H1052 H 0.73523 0.58782 0.77884 0.0
H1053 H 0.67989 0.47905 0.71466 0.0
H1054 H 0.69427 0.48846 0.82265 0.0
H1055 H 0.66982 0.48882 0.8057 0.0
H1056 H 0.72286 0.52135 0.09225 0.0
H1057 H 0.66272 0.51966 0.05561 0.0
H1058 H 0.74635 0.54441 0.87992 0.0
H1059 H 0.73257 0.516 0.8619 0.0
H1060 H 0.74646 0.527 0.96972 0.0
H1061 H 0.67424 0.54431 0.8345 0.0
H1062 H 0.6526 0.52797 0.91329 0.0
H1063 H 0.65927 0.51581 0.81933 0.0
C1064 C 0.54298 0.19107 0.63148 0.0
C1065 C 0.52502 0.19177 0.5989 0.0
C1066 C 0.54687 0.19128 0.72661 0.0
C1067 C 0.53169 0.19088 0.79034 0.0
C1068 C 0.5131 0.19087 0.75764 0.0
C1069 C 0.51025 0.19187 0.6619 0.0
C1070 C 0.56733 0.19221 0.75871 0.0
C1071 C 0.4961 0.18945 0.82359 0.0
C1072 C 0.53451 0.17121 0.03092 0.0
C1073 C 0.54423 0.19048 0.08058 0.0
C1074 C 0.52955 0.17098 0.93679 0.0
C1075 C 0.53545 0.19065 0.89119 0.0
C1076 C 0.54559 0.2102 0.94133 0.0
C1077 C 0.54938 0.2098 0.03632 0.0
C1078 C 0.51787 0.14974 0.88641 0.0
C1079 C 0.55295 0.23157 0.89427 0.0
H1080 H 0.55421 0.19074 0.58245 0.0
H1081 H 0.49617 0.19207 0.63625 0.0
H1082 H 0.57615 0.20595 0.8068 0.0
H1083 H 0.56348 0.17736 0.79738 0.0
H1084 H 0.57813 0.19397 0.70001 0.0
H1085 H 0.48202 0.18835 0.7866 0.0
H1086 H 0.49047 0.17512 0.86889 0.0
H1087 H 0.50294 0.20375 0.86935 0.0
H1088 H 0.53031 0.15628 0.06635 0.0
H1089 H 0.55696 0.22466 0.07558 0.0
H1090 H 0.52837 0.14903 0.83181 0.0
H1091 H 0.50338 0.14814 0.85149 0.0
H1092 H 0.51287 0.13583 0.93382 0.0
H1093 H 0.56418 0.23375 0.83691 0.0
H1094 H 0.56116 0.24532 0.94292 0.0
H1095 H 0.53903 0.23195 0.86328 0.0
C1096 C 0.88159 0.34353 0.6563 0.0
C1097 C 0.86968 0.34921 0.59811 0.0
C1098 C 0.88274 0.34768 0.75179 0.0
C1099 C 0.8713 0.35727 0.78913 0.0
C1100 C 0.8589 0.36262 0.73018 0.0
C1101 C 0.85842 0.35868 0.63487 0.0
C1102 C 0.89642 0.34212 0.81237 0.0
C1103 C 0.8461 0.37243 0.76774 0.0
C1104 C 0.85776 0.35017 0.04515 0.0
C1105 C 0.87261 0.37045 0.08012 0.0
C1106 C 0.85721 0.34562 0.95045 0.0
C1107 C 0.87215 0.36165 0.88993 0.0
C1108 C 0.88753 0.38201 0.92535 0.0
C1109 C 0.88743 0.38626 0.02023 0.0
C1110 C 0.84037 0.32384 0.91496 0.0
C1111 C 0.90397 0.39933 0.86296 0.0
H1112 H 0.89039 0.33632 0.62673 0.0
H1113 H 0.84903 0.36275 0.58913 0.0
H1114 H 0.90891 0.35681 0.84765 0.0
H1115 H 0.8864 0.33062 0.86723 0.0
H1116 H 0.90445 0.33492 0.77222 0.0
H1117 H 0.837 0.37526 0.71261 0.0
H1118 H 0.83458 0.36168 0.82102 0.0
H1119 H 0.85699 0.38797 0.80198 0.0
H1120 H 0.84627 0.33794 0.09162 0.0
H1121 H 0.89901 0.40189 0.04762 0.0
H1122 H 0.84817 0.31582 0.87948 0.0
H1123 H 0.83005 0.32578 0.86312 0.0
H1124 H 0.82997 0.31316 0.97138 0.0
H1125 H 0.91316 0.39313 0.82477 0.0
H1126 H 0.91545 0.41391 0.90215 0.0
H1127 H 0.89576 0.40401 0.81056 0.0
C1128 C 0.35712 0.86696 0.37383 0.0
C1129 C 0.36109 0.85157 0.41427 0.0
C1130 C 0.3603 0.87136 0.27861 0.0
C1131 C 0.36842 0.86066 0.2237 0.0
C1132 C 0.37308 0.84557 0.2651 0.0
C1133 C 0.36896 0.8409 0.35986 0.0
C1134 C 0.35453 0.88707 0.23646 0.0
C1135 C 0.38245 0.83441 0.20939 0.0
C1136 C 0.3586 0.85557 0.96426 0.0
C1137 C 0.37769 0.87288 0.93098 0.0
C1138 C 0.3552 0.85161 0.05968 0.0
C1139 C 0.37164 0.86496 0.12259 0.0
C1140 C 0.39108 0.88241 0.08884 0.0
C1141 C 0.39371 0.88641 -0.00687 0.0
C1142 C 0.33396 0.83333 0.09315 0.0
C1143 C 0.4092 0.89659 0.1536 0.0
H1144 H 0.35094 0.87514 0.41628 0.0
H1145 H 0.37223 0.82915 0.39178 0.0
H1146 H 0.36891 0.90068 0.20418 0.0
H1147 H 0.34245 0.87904 0.18076 0.0
H1148 H 0.34789 0.89361 0.2885 0.0
H1149 H 0.38639 0.82412 0.25325 0.0
H1150 H 0.3709 0.82422 0.15518 0.0
H1151 H 0.3973 0.8465 0.1735 0.0
H1152 H 0.34611 0.84548 0.91569 0.0
H1153 H 0.4085 0.89978 0.96661 0.0
H1154 H 0.32637 0.83951 0.142 0.0
H1155 H 0.33655 0.82143 0.13148 0.0
H1156 H 0.32262 0.82495 0.03523 0.0
H1157 H 0.4038 0.90472 0.20319 0.0
H1158 H 0.42353 0.90906 0.11585 0.0
H1159 H 0.41401 0.88664 0.19495 0.0
C1160 C 0.21229 0.53788 0.96702 0.0
C1161 C 0.1915 0.52758 0.93083 0.0
C1162 C 0.21572 0.53744 0.06233 0.0
C1163 C 0.19785 0.52601 0.12191 0.0
C1164 C 0.17674 0.51552 0.08519 0.0
C1165 C 0.1738 0.51667 -0.01033 0.0
C1166 C 0.23843 0.54926 0.09922 0.0
C1167 C 0.15735 0.50284 0.14648 0.0
C1168 C 0.20975 0.50941 0.35393 0.0
C1169 C 0.2098 0.52492 0.41275 0.0
C1170 C 0.20528 0.50921 0.25917 0.0
C1171 C 0.20131 0.52521 0.22274 0.0
C1172 C 0.20131 0.54088 0.28219 0.0
C1173 C 0.20532 0.54038 0.37689 0.0
C1174 C 0.20494 0.49198 0.19798 0.0
C1175 C 0.19756 0.55843 0.24549 0.0
H1176 H 0.22583 0.54657 0.92085 0.0
H1177 H 0.15773 0.50863 0.96058 0.0
H1178 H 0.24 0.56126 0.15172 0.0
H1179 H 0.24225 0.53783 0.13424 0.0
H1180 H 0.25048 0.5577 0.04359 0.0
H1181 H 0.14207 0.49536 0.10668 0.0
H1182 H 0.15873 0.48997 0.18288 0.0
H1183 H 0.15659 0.51344 0.20043 0.0
H1184 H 0.21305 0.49736 0.38211 0.0
H1185 H 0.20539 0.5524 0.4226 0.0
H1186 H 0.21788 0.49942 0.14524 0.0
H1187 H 0.18944 0.48342 0.16018 0.0
H1188 H 0.20718 0.48003 0.23806 0.0
H1189 H 0.21 0.56813 0.19309 0.0
H1190 H 0.19801 0.56933 0.30118 0.0
H1191 H 0.18174 0.5513 0.21035 0.0
C1192 C 0.51968 0.69326 0.36172 0.0
C1193 C 0.53938 0.70545 0.40668 0.0
C1194 C 0.51892 0.68912 0.26655 0.0
C1195 C 0.53838 0.6965 0.217 0.0
C1196 C 0.55835 0.70832 0.26323 0.0
C1197 C 0.5586 0.7131 0.35758 0.0
C1198 C 0.49736 0.67727 0.21878 0.0
C1199 C 0.57939 0.71567 0.21337 0.0
C1200 C 0.53465 0.66875 -0.01141 0.0
C1201 C 0.53687 0.68448 0.92513 0.0
C1202 C 0.53558 0.67262 0.08424 0.0
C1203 C 0.53783 0.69228 0.1163 0.0
C1204 C 0.53953 0.70797 0.05213 0.0
C1205 C 0.53958 0.70406 0.95714 0.0
C1206 C 0.53457 0.6559 0.15081 0.0
C1207 C 0.54114 0.72878 0.08363 0.0
H1208 H 0.50487 0.68745 0.40066 0.0
H1209 H 0.57378 0.7223 0.39364 0.0
H1210 H 0.49674 0.68721 0.16122 0.0
H1211 H 0.49506 0.66213 0.18796 0.0
H1212 H 0.4838 0.67331 0.26695 0.0
H1213 H 0.5934 0.7234 0.26094 0.0
H1214 H 0.57929 0.70176 0.17928 0.0
H1215 H 0.58153 0.72732 0.15814 0.0
H1216 H 0.53283 0.6537 0.96344 0.0
H1217 H 0.54148 0.71625 0.90777 0.0
H1218 H 0.52027 0.65005 0.19628 0.0
H1219 H 0.54894 0.66316 0.19637 0.0
H1220 H 0.53377 0.64189 0.11438 0.0
H1221 H 0.52763 0.72538 0.13111 0.0
H1222 H 0.54083 0.73857 0.02459 0.0
H1223 H 0.55626 0.73848 0.12281 0.0
loop_
_geom_bond_atom_site_label_1
_geom_bond_atom_site_label_2
_geom_bond_distance
_geom_bond_site_symmetry_2
_ccdc_geom_bond_type
Sm0 C2 2.846 1_554 S
Sm0 O20 2.543 1_554 S
Sm0 O21 2.450 . S
Sm0 O22 2.681 . S
Sm0 O23 2.464 . S
Sm0 O24 2.396 . S
Sm0 O28 2.386 1_554 S
Sm0 O31 2.408 . S
Sm1 C11 2.845 1_556 S
Sm1 O22 2.380 1_656 S
Sm1 O25 2.407 1_556 S
Sm1 O26 2.538 1_556 S
Sm1 O27 2.452 . S
Sm1 O28 2.686 1_655 S
Sm1 O29 2.473 . S
Sm1 O30 2.397 1_655 S
C2 Sm0 2.846 1_556 S
C2 C3 1.506 . S
C2 O20 1.261 . S
C2 O21 1.242 1_556 S
C3 C2 1.506 . S
C3 C4 1.358 . S
C3 C8 1.382 1_556 S
C4 C3 1.358 . S
C4 C5 1.385 . S
C4 H32 0.930 . S
C5 C4 1.385 . S
C5 C6 1.395 . S
C5 H33 0.929 . S
C6 C5 1.395 . S
C6 C7 1.335 1_556 S
C7 C6 1.335 1_554 S
C7 C8 1.398 . S
C7 H34 0.930 . S
C8 C3 1.382 1_554 S
C8 C7 1.398 . S
C8 H35 0.929 . S
C9 O22 1.271 . S
C9 O23 1.251 . S
C10 O24 1.252 1_655 S
C10 O25 1.272 . S
C11 Sm1 2.845 1_554 S
C11 C12 1.506 . S
C11 O26 1.261 . S
C11 O27 1.242 1_554 S
C12 C11 1.506 . S
C12 C13 1.358 . S
C12 C17 1.382 1_554 S
C13 C12 1.358 . S
C13 C14 1.385 . S
C13 H36 0.930 . S
C14 C13 1.385 . S
C14 C15 1.395 . S
C14 H37 0.929 . S
C15 C14 1.395 . S
C15 C16 1.335 1_554 S
C16 C15 1.335 1_556 S
C16 C17 1.398 . S
C16 H38 0.930 . S
C17 C12 1.382 1_556 S
C17 C16 1.398 . S
C17 H39 0.929 . S
C18 O28 1.271 1_655 S
C18 O29 1.251 . S
C19 O30 1.252 . S
C19 O31 1.272 1_556 S
O20 Sm0 2.543 1_556 S
O20 C2 1.261 . S
O21 Sm0 2.450 . S
O21 C2 1.242 1_554 S
O22 Sm0 2.681 . S
O22 Sm1 2.380 1_454 S
O22 C9 1.271 . S
O23 Sm0 2.464 . S
O23 C9 1.251 . S
O24 Sm0 2.396 . S
O24 C10 1.252 1_455 S
O25 Sm1 2.407 1_554 S
O25 C10 1.272 . S
O26 Sm1 2.538 1_554 S
O26 C11 1.261 . S
O27 Sm1 2.452 . S
O27 C11 1.242 1_556 S
O28 Sm0 2.386 1_556 S
O28 Sm1 2.686 1_455 S
O28 C18 1.271 1_455 S
O29 Sm1 2.473 . S
O29 C18 1.251 . S
O30 Sm1 2.397 1_455 S
O30 C19 1.252 . S
O31 Sm0 2.408 . S
O31 C19 1.272 1_554 S
H32 C4 0.930 . S
H33 C5 0.929 . S
H34 C7 0.930 . S
H35 C8 0.929 . S
H36 C13 0.930 . S
H37 C14 0.929 . S
H38 C16 0.930 . S
H39 C17 0.929 . S
Sm40 C42 2.846 1_554 S
Sm40 O60 2.543 1_554 S
Sm40 O61 2.450 . S
Sm40 O62 2.681 . S
Sm40 O63 2.464 . S
Sm40 O64 2.396 . S
Sm40 O68 2.386 1_554 S
Sm40 O71 2.408 . S
Sm41 C51 2.845 1_556 S
Sm41 O62 2.378 1_556 S
Sm41 O65 2.407 1_556 S
Sm41 O66 2.537 1_556 S
Sm41 O67 2.453 . S
Sm41 O68 2.687 . S
Sm41 O69 2.475 . S
Sm41 O70 2.398 . S
C42 Sm40 2.846 1_556 S
C42 C43 1.506 . S
C42 O60 1.261 . S
C42 O61 1.242 1_556 S
C43 C42 1.506 . S
C43 C44 1.358 . S
C43 C48 1.382 1_556 S
C44 C43 1.358 . S
C44 C45 1.385 . S
C44 H72 0.930 . S
C45 C44 1.385 . S
C45 C46 1.395 . S
C45 H73 0.929 . S
C46 C45 1.395 . S
C46 C47 1.335 1_556 S
C47 C46 1.335 1_554 S
C47 C48 1.398 . S
C47 H74 0.930 . S
C48 C43 1.382 1_554 S
C48 C47 1.398 . S
C48 H75 0.929 . S
C49 O62 1.271 . S
C49 O63 1.251 . S
C50 O64 1.252 . S
C50 O65 1.272 . S
C51 Sm41 2.845 1_554 S
C51 C52 1.506 . S
C51 O66 1.261 . S
C51 O67 1.242 1_554 S
C52 C51 1.506 . S
C52 C53 1.358 . S
C52 C57 1.382 1_554 S
C53 C52 1.358 . S
C53 C54 1.385 . S
C53 H76 0.930 . S
C54 C53 1.385 . S
C54 C55 1.395 . S
C54 H77 0.929 . S
C55 C54 1.395 . S
C55 C56 1.335 1_554 S
C56 C55 1.335 1_556 S
C56 C57 1.398 . S
C56 H78 0.930 . S
C57 C52 1.382 1_556 S
C57 C56 1.398 . S
C57 H79 0.929 . S
C58 O68 1.271 . S
C58 O69 1.251 . S
C59 O70 1.252 . S
C59 O71 1.272 1_556 S
O60 Sm40 2.543 1_556 S
O60 C42 1.261 . S
O61 Sm40 2.450 . S
O61 C42 1.242 1_554 S
O62 Sm40 2.681 . S
O62 Sm41 2.378 1_554 S
O62 C49 1.271 . S
O63 Sm40 2.464 . S
O63 C49 1.251 . S
O64 Sm40 2.396 . S
O64 C50 1.252 . S
O65 Sm41 2.407 1_554 S
O65 C50 1.272 . S
O66 Sm41 2.537 1_554 S
O66 C51 1.261 . S
O67 Sm41 2.453 . S
O67 C51 1.242 1_556 S
O68 Sm40 2.386 1_556 S
O68 Sm41 2.687 . S
O68 C58 1.271 . S
O69 Sm41 2.475 . S
O69 C58 1.251 . S
O70 Sm41 2.398 . S
O70 C59 1.252 . S
O71 Sm40 2.408 . S
O71 C59 1.272 1_554 S
H72 C44 0.930 . S
H73 C45 0.929 . S
H74 C47 0.930 . S
H75 C48 0.929 . S
H76 C53 0.930 . S
H77 C54 0.929 . S
H78 C56 0.930 . S
H79 C57 0.929 . S
Sm80 C82 2.846 1_554 S
Sm80 O100 2.543 1_554 S
Sm80 O101 2.450 . S
Sm80 O102 2.681 1_565 S
Sm80 O103 2.464 . S
Sm80 O104 2.396 1_565 S
Sm80 O108 2.386 1_564 S
Sm80 O111 2.408 . S
Sm81 C91 2.846 1_556 S
Sm81 O102 2.386 1_556 S
Sm81 O105 2.408 1_556 S
Sm81 O106 2.543 1_556 S
Sm81 O107 2.450 . S
Sm81 O108 2.681 . S
Sm81 O109 2.464 . S
Sm81 O110 2.396 . S
C82 Sm80 2.846 1_556 S
C82 C83 1.506 . S
C82 O100 1.261 . S
C82 O101 1.242 1_556 S
C83 C82 1.506 . S
C83 C84 1.358 . S
C83 C88 1.382 1_556 S
C84 C83 1.358 . S
C84 C85 1.385 . S
C84 H112 0.930 . S
C85 C84 1.385 . S
C85 C86 1.395 . S
C85 H113 0.929 . S
C86 C85 1.395 . S
C86 C87 1.335 1_556 S
C87 C86 1.335 1_554 S
C87 C88 1.398 . S
C87 H114 0.930 . S
C88 C83 1.382 1_554 S
C88 C87 1.398 . S
C88 H115 0.929 . S
C89 O102 1.245 1_565 S
C89 O103 1.302 . S
C90 O104 1.252 . S
C90 O105 1.272 . S
C91 Sm81 2.846 1_554 S
C91 C92 1.506 . S
C91 O106 1.261 . S
C91 O107 1.242 1_554 S
C92 C91 1.506 . S
C92 C93 1.358 . S
C92 C97 1.382 1_554 S
C93 C92 1.358 . S
C93 C94 1.385 . S
C93 H116 0.930 . S
C94 C93 1.385 . S
C94 C95 1.395 . S
C94 H117 0.929 . S
C95 C94 1.395 . S
C95 C96 1.335 1_554 S
C96 C95 1.335 1_556 S
C96 C97 1.398 . S
C96 H118 0.930 . S
C97 C92 1.382 1_556 S
C97 C96 1.398 . S
C97 H119 0.929 . S
C98 O108 1.271 . S
C98 O109 1.251 . S
C99 O110 1.252 1_565 S
C99 O111 1.272 1_556 S
O100 Sm80 2.543 1_556 S
O100 C82 1.261 . S
O101 Sm80 2.450 . S
O101 C82 1.242 1_554 S
O102 Sm80 2.681 1_545 S
O102 Sm81 2.386 1_554 S
O102 C89 1.245 1_545 S
O103 Sm80 2.464 . S
O103 C89 1.302 . S
O104 Sm80 2.396 1_545 S
O104 C90 1.252 . S
O105 Sm81 2.408 1_554 S
O105 C90 1.272 . S
O106 Sm81 2.543 1_554 S
O106 C91 1.261 . S
O107 Sm81 2.450 . S
O107 C91 1.242 1_556 S
O108 Sm80 2.386 1_546 S
O108 Sm81 2.681 . S
O108 C98 1.271 . S
O109 Sm81 2.464 . S
O109 C98 1.251 . S
O110 Sm81 2.396 . S
O110 C99 1.252 1_545 S
O111 Sm80 2.408 . S
O111 C99 1.272 1_554 S
H112 C84 0.930 . S
H113 C85 0.929 . S
H114 C87 0.930 . S
H115 C88 0.929 . S
H116 C93 0.930 . S
H117 C94 0.929 . S
H118 C96 0.930 . S
H119 C97 0.929 . S
Sm120 C122 2.846 . S
Sm120 O140 2.543 . S
Sm120 O141 2.450 . S
Sm120 O142 2.681 . S
Sm120 O143 2.464 . S
Sm120 O144 2.396 . S
Sm120 O148 2.386 . S
Sm120 O151 2.408 . S
Sm121 C131 2.846 . S
Sm121 O142 2.386 . S
Sm121 O145 2.408 . S
Sm121 O146 2.543 . S
Sm121 O147 2.450 . S
Sm121 O148 2.681 . S
Sm121 O149 2.464 . S
Sm121 O150 2.396 . S
C122 Sm120 2.846 . S
C122 C123 1.506 . S
C122 O140 1.261 . S
C122 O141 1.242 . S
C123 C122 1.506 . S
C123 C124 1.358 . S
C123 C128 1.382 . S
C124 C123 1.358 . S
C124 C125 1.385 . S
C124 H152 0.930 . S
C125 C124 1.385 . S
C125 C126 1.395 . S
C125 H153 0.929 . S
C126 C125 1.395 . S
C126 C127 1.335 . S
C127 C126 1.335 . S
C127 C128 1.398 . S
C127 H154 0.930 . S
C128 C123 1.382 . S
C128 C127 1.398 . S
C128 H155 0.929 . S
C129 O142 1.271 . S
C129 O143 1.251 . S
C130 O144 1.252 . S
C130 O145 1.272 . S
C131 Sm121 2.846 . S
C131 C132 1.506 . S
C131 O146 1.261 . S
C131 O147 1.242 . S
C132 C131 1.506 . S
C132 C133 1.358 . S
C132 C137 1.382 . S
C133 C132 1.358 . S
C133 C134 1.385 . S
C133 H156 0.930 . S
C134 C133 1.385 . S
C134 C135 1.395 . S
C134 H157 0.929 . S
C135 C134 1.395 . S
C135 C136 1.335 . S
C136 C135 1.335 . S
C136 C137 1.398 . S
C136 H158 0.930 . S
C137 C132 1.382 . S
C137 C136 1.398 . S
C137 H159 0.929 . S
C138 O148 1.271 . S
C138 O149 1.251 . S
C139 O150 1.252 . S
C139 O151 1.272 . S
O140 Sm120 2.543 . S
O140 C122 1.261 . S
O141 Sm120 2.450 . S
O141 C122 1.242 . S
O142 Sm120 2.681 . S
O142 Sm121 2.386 . S
O142 C129 1.271 . S
O143 Sm120 2.464 . S
O143 C129 1.251 . S
O144 Sm120 2.396 . S
O144 C130 1.252 . S
O145 Sm121 2.408 . S
O145 C130 1.272 . S
O146 Sm121 2.543 . S
O146 C131 1.261 . S
O147 Sm121 2.450 . S
O147 C131 1.242 . S
O148 Sm120 2.386 . S
O148 Sm121 2.681 . S
O148 C138 1.271 . S
O149 Sm121 2.464 . S
O149 C138 1.251 . S
O150 Sm121 2.396 . S
O150 C139 1.252 . S
O151 Sm120 2.408 . S
O151 C139 1.272 . S
H152 C124 0.930 . S
H153 C125 0.929 . S
H154 C127 0.930 . S
H155 C128 0.929 . S
H156 C133 0.930 . S
H157 C134 0.929 . S
H158 C136 0.930 . S
H159 C137 0.929 . S
Sm160 C162 2.846 . S
Sm160 O180 2.543 . S
Sm160 O181 2.450 . S
Sm160 O182 2.681 . S
Sm160 O183 2.464 . S
Sm160 O184 2.396 . S
Sm160 O188 2.386 . S
Sm160 O191 2.408 . S
Sm161 C171 2.846 . S
Sm161 O182 2.386 . S
Sm161 O185 2.408 . S
Sm161 O186 2.543 . S
Sm161 O187 2.450 . S
Sm161 O188 2.681 . S
Sm161 O189 2.464 . S
Sm161 O190 2.396 . S
C162 Sm160 2.846 . S
C162 C163 1.506 . S
C162 O180 1.261 . S
C162 O181 1.242 . S
C163 C162 1.506 . S
C163 C164 1.358 . S
C163 C168 1.382 . S
C164 C163 1.358 . S
C164 C165 1.385 . S
C164 H192 0.930 . S
C165 C164 1.385 . S
C165 C166 1.395 . S
C165 H193 0.929 . S
C166 C165 1.395 . S
C166 C167 1.335 . S
C167 C166 1.335 . S
C167 C168 1.398 . S
C167 H194 0.930 . S
C168 C163 1.382 . S
C168 C167 1.398 . S
C168 H195 0.929 . S
C169 O182 1.271 . S
C169 O183 1.251 . S
C170 O184 1.252 . S
C170 O185 1.272 . S
C171 Sm161 2.846 . S
C171 C172 1.506 . S
C171 O186 1.261 . S
C171 O187 1.242 . S
C172 C171 1.506 . S
C172 C173 1.358 . S
C172 C177 1.382 . S
C173 C172 1.358 . S
C173 C174 1.385 . S
C173 H196 0.930 . S
C174 C173 1.385 . S
C174 C175 1.395 . S
C174 H197 0.929 . S
C175 C174 1.395 . S
C175 C176 1.335 . S
C176 C175 1.335 . S
C176 C177 1.398 . S
C176 H198 0.930 . S
C177 C172 1.382 . S
C177 C176 1.398 . S
C177 H199 0.929 . S
C178 O188 1.271 . S
C178 O189 1.251 . S
C179 O190 1.252 . S
C179 O191 1.272 . S
O180 Sm160 2.543 . S
O180 C162 1.261 . S
O181 Sm160 2.450 . S
O181 C162 1.242 . S
O182 Sm160 2.681 . S
O182 Sm161 2.386 . S
O182 C169 1.271 . S
O183 Sm160 2.464 . S
O183 C169 1.251 . S
O184 Sm160 2.396 . S
O184 C170 1.252 . S
O185 Sm161 2.408 . S
O185 C170 1.272 . S
O186 Sm161 2.543 . S
O186 C171 1.261 . S
O187 Sm161 2.450 . S
O187 C171 1.242 . S
O188 Sm160 2.386 . S
O188 Sm161 2.681 . S
O188 C178 1.271 . S
O189 Sm161 2.464 . S
O189 C178 1.251 . S
O190 Sm161 2.396 . S
O190 C179 1.252 . S
O191 Sm160 2.408 . S
O191 C179 1.272 . S
H192 C164 0.930 . S
H193 C165 0.929 . S
H194 C167 0.930 . S
H195 C168 0.929 . S
H196 C173 0.930 . S
H197 C174 0.929 . S
H198 C176 0.930 . S
H199 C177 0.929 . S
Sm200 C202 2.846 . S
Sm200 O220 2.543 . S
Sm200 O221 2.450 . S
Sm200 O222 2.681 . S
Sm200 O223 2.464 . S
Sm200 O224 2.396 . S
Sm200 O228 2.386 . S
Sm200 O231 2.408 . S
Sm201 C211 2.846 . S
Sm201 O222 2.386 . S
Sm201 O225 2.408 . S
Sm201 O226 2.543 . S
Sm201 O227 2.450 . S
Sm201 O228 2.681 . S
Sm201 O229 2.464 . S
Sm201 O230 2.396 . S
C202 Sm200 2.846 . S
C202 C203 1.506 . S
C202 O220 1.261 . S
C202 O221 1.242 . S
C203 C202 1.506 . S
C203 C204 1.358 . S
C203 C208 1.382 . S
C204 C203 1.358 . S
C204 C205 1.385 . S
C204 H232 0.930 . S
C205 C204 1.385 . S
C205 C206 1.395 . S
C205 H233 0.929 . S
C206 C205 1.395 . S
C206 C207 1.335 . S
C207 C206 1.335 . S
C207 C208 1.398 . S
C207 H234 0.930 . S
C208 C203 1.382 . S
C208 C207 1.398 . S
C208 H235 0.929 . S
C209 O222 1.271 . S
C209 O223 1.251 . S
C210 O224 1.252 . S
C210 O225 1.272 . S
C211 Sm201 2.846 . S
C211 C212 1.506 . S
C211 O226 1.261 . S
C211 O227 1.242 . S
C212 C211 1.506 . S
C212 C213 1.358 . S
C212 C217 1.382 . S
C213 C212 1.358 . S
C213 C214 1.385 . S
C213 H236 0.930 . S
C214 C213 1.385 . S
C214 C215 1.395 . S
C214 H237 0.929 . S
C215 C214 1.395 . S
C215 C216 1.335 . S
C216 C215 1.335 . S
C216 C217 1.398 . S
C216 H238 0.930 . S
C217 C212 1.382 . S
C217 C216 1.398 . S
C217 H239 0.929 . S
C218 O228 1.271 . S
C218 O229 1.251 . S
C219 O230 1.252 . S
C219 O231 1.272 . S
O220 Sm200 2.543 . S
O220 C202 1.261 . S
O221 Sm200 2.450 . S
O221 C202 1.242 . S
O222 Sm200 2.681 . S
O222 Sm201 2.386 . S
O222 C209 1.271 . S
O223 Sm200 2.464 . S
O223 C209 1.251 . S
O224 Sm200 2.396 . S
O224 C210 1.252 . S
O225 Sm201 2.408 . S
O225 C210 1.272 . S
O226 Sm201 2.543 . S
O226 C211 1.261 . S
O227 Sm201 2.450 . S
O227 C211 1.242 . S
O228 Sm200 2.386 . S
O228 Sm201 2.681 . S
O228 C218 1.271 . S
O229 Sm201 2.464 . S
O229 C218 1.251 . S
O230 Sm201 2.396 . S
O230 C219 1.252 . S
O231 Sm200 2.408 . S
O231 C219 1.272 . S
H232 C204 0.930 . S
H233 C205 0.929 . S
H234 C207 0.930 . S
H235 C208 0.929 . S
H236 C213 0.930 . S
H237 C214 0.929 . S
H238 C216 0.930 . S
H239 C217 0.929 . S
Sm240 C242 2.846 . S
Sm240 O260 2.543 . S
Sm240 O261 2.450 . S
Sm240 O262 2.681 . S
Sm240 O263 2.464 . S
Sm240 O264 2.396 . S
Sm240 O268 2.386 . S
Sm240 O271 2.408 . S
Sm241 C251 2.846 . S
Sm241 O262 2.386 . S
Sm241 O265 2.408 . S
Sm241 O266 2.543 . S
Sm241 O267 2.450 . S
Sm241 O268 2.681 . S
Sm241 O269 2.464 . S
Sm241 O270 2.396 . S
C242 Sm240 2.846 . S
C242 C243 1.506 . S
C242 O260 1.261 . S
C242 O261 1.242 . S
C243 C242 1.506 . S
C243 C244 1.358 . S
C243 C248 1.382 . S
C244 C243 1.358 . S
C244 C245 1.385 . S
C244 H272 0.930 . S
C245 C244 1.385 . S
C245 C246 1.395 . S
C245 H273 0.929 . S
C246 C245 1.395 . S
C246 C247 1.335 . S
C247 C246 1.335 . S
C247 C248 1.398 . S
C247 H274 0.930 . S
C248 C243 1.382 . S
C248 C247 1.398 . S
C248 H275 0.929 . S
C249 O262 1.271 . S
C249 O263 1.251 . S
C250 O264 1.252 . S
C250 O265 1.272 . S
C251 Sm241 2.846 . S
C251 C252 1.506 . S
C251 O266 1.261 . S
C251 O267 1.242 . S
C252 C251 1.506 . S
C252 C253 1.358 . S
C252 C257 1.382 . S
C253 C252 1.358 . S
C253 C254 1.385 . S
C253 H276 0.930 . S
C254 C253 1.385 . S
C254 C255 1.395 . S
C254 H277 0.929 . S
C255 C254 1.395 . S
C255 C256 1.335 . S
C256 C255 1.335 . S
C256 C257 1.398 . S
C256 H278 0.930 . S
C257 C252 1.382 . S
C257 C256 1.398 . S
C257 H279 0.929 . S
C258 O268 1.271 . S
C258 O269 1.251 . S
C259 O270 1.252 . S
C259 O271 1.272 . S
O260 Sm240 2.543 . S
O260 C242 1.261 . S
O261 Sm240 2.450 . S
O261 C242 1.242 . S
O262 Sm240 2.681 . S
O262 Sm241 2.386 . S
O262 C249 1.271 . S
O263 Sm240 2.464 . S
O263 C249 1.251 . S
O264 Sm240 2.396 . S
O264 C250 1.252 . S
O265 Sm241 2.408 . S
O265 C250 1.272 . S
O266 Sm241 2.543 . S
O266 C251 1.261 . S
O267 Sm241 2.450 . S
O267 C251 1.242 . S
O268 Sm240 2.386 . S
O268 Sm241 2.681 . S
O268 C258 1.271 . S
O269 Sm241 2.464 . S
O269 C258 1.251 . S
O270 Sm241 2.396 . S
O270 C259 1.252 . S
O271 Sm240 2.408 . S
O271 C259 1.272 . S
H272 C244 0.930 . S
H273 C245 0.929 . S
H274 C247 0.930 . S
H275 C248 0.929 . S
H276 C253 0.930 . S
H277 C254 0.929 . S
H278 C256 0.930 . S
H279 C257 0.929 . S
Sm280 C282 2.846 . S
Sm280 O300 2.543 . S
Sm280 O301 2.450 . S
Sm280 O302 2.681 . S
Sm280 O303 2.464 . S
Sm280 O304 2.396 . S
Sm280 O308 2.386 . S
Sm280 O311 2.408 . S
Sm281 C291 2.846 . S
Sm281 O302 2.386 . S
Sm281 O305 2.408 . S
Sm281 O306 2.543 . S
Sm281 O307 2.450 . S
Sm281 O308 2.681 . S
Sm281 O309 2.464 . S
Sm281 O310 2.396 . S
C282 Sm280 2.846 . S
C282 C283 1.506 . S
C282 O300 1.261 . S
C282 O301 1.242 . S
C283 C282 1.506 . S
C283 C284 1.358 . S
C283 C288 1.382 . S
C284 C283 1.358 . S
C284 C285 1.385 . S
C284 H312 0.930 . S
C285 C284 1.385 . S
C285 C286 1.395 . S
C285 H313 0.929 . S
C286 C285 1.395 . S
C286 C287 1.335 . S
C287 C286 1.335 . S
C287 C288 1.398 . S
C287 H314 0.930 . S
C288 C283 1.382 . S
C288 C287 1.398 . S
C288 H315 0.929 . S
C289 O302 1.271 . S
C289 O303 1.251 . S
C290 O304 1.252 . S
C290 O305 1.272 . S
C291 Sm281 2.846 . S
C291 C292 1.506 . S
C291 O306 1.261 . S
C291 O307 1.242 . S
C292 C291 1.506 . S
C292 C293 1.358 . S
C292 C297 1.382 . S
C293 C292 1.358 . S
C293 C294 1.385 . S
C293 H316 0.930 . S
C294 C293 1.385 . S
C294 C295 1.395 . S
C294 H317 0.929 . S
C295 C294 1.395 . S
C295 C296 1.335 . S
C296 C295 1.335 . S
C296 C297 1.398 . S
C296 H318 0.930 . S
C297 C292 1.382 . S
C297 C296 1.398 . S
C297 H319 0.929 . S
C298 O308 1.271 . S
C298 O309 1.251 . S
C299 O310 1.252 . S
C299 O311 1.272 . S
O300 Sm280 2.543 . S
O300 C282 1.261 . S
O301 Sm280 2.450 . S
O301 C282 1.242 . S
O302 Sm280 2.681 . S
O302 Sm281 2.386 . S
O302 C289 1.271 . S
O303 Sm280 2.464 . S
O303 C289 1.251 . S
O304 Sm280 2.396 . S
O304 C290 1.252 . S
O305 Sm281 2.408 . S
O305 C290 1.272 . S
O306 Sm281 2.543 . S
O306 C291 1.261 . S
O307 Sm281 2.450 . S
O307 C291 1.242 . S
O308 Sm280 2.386 . S
O308 Sm281 2.681 . S
O308 C298 1.271 . S
O309 Sm281 2.464 . S
O309 C298 1.251 . S
O310 Sm281 2.396 . S
O310 C299 1.252 . S
O311 Sm280 2.408 . S
O311 C299 1.272 . S
H312 C284 0.930 . S
H313 C285 0.929 . S
H314 C287 0.930 . S
H315 C288 0.929 . S
H316 C293 0.930 . S
H317 C294 0.929 . S
H318 C296 0.930 . S
H319 C297 0.929 . S
Sm320 C322 2.846 . S
Sm320 O340 2.543 . S
Sm320 O341 2.450 . S
Sm320 O342 2.681 . S
Sm320 O343 2.464 . S
Sm320 O344 2.396 . S
Sm320 O348 2.386 . S
Sm320 O351 2.408 . S
Sm321 C331 2.846 . S
Sm321 O342 2.386 . S
Sm321 O345 2.408 . S
Sm321 O346 2.543 . S
Sm321 O347 2.450 . S
Sm321 O348 2.681 . S
Sm321 O349 2.464 . S
Sm321 O350 2.396 . S
C322 Sm320 2.846 . S
C322 C323 1.506 . S
C322 O340 1.261 . S
C322 O341 1.242 . S
C323 C322 1.506 . S
C323 C324 1.358 . S
C323 C328 1.382 . S
C324 C323 1.358 . S
C324 C325 1.385 . S
C324 H352 0.930 . S
C325 C324 1.385 . S
C325 C326 1.395 . S
C325 H353 0.929 . S
C326 C325 1.395 . S
C326 C327 1.335 . S
C327 C326 1.335 . S
C327 C328 1.398 . S
C327 H354 0.930 . S
C328 C323 1.382 . S
C328 C327 1.398 . S
C328 H355 0.929 . S
C329 O342 1.271 . S
C329 O343 1.251 . S
C330 O344 1.252 . S
C330 O345 1.272 . S
C331 Sm321 2.846 . S
C331 C332 1.506 . S
C331 O346 1.261 . S
C331 O347 1.242 . S
C332 C331 1.506 . S
C332 C333 1.358 . S
C332 C337 1.382 . S
C333 C332 1.358 . S
C333 C334 1.385 . S
C333 H356 0.930 . S
C334 C333 1.385 . S
C334 C335 1.395 . S
C334 H357 0.929 . S
C335 C334 1.395 . S
C335 C336 1.335 . S
C336 C335 1.335 . S
C336 C337 1.398 . S
C336 H358 0.930 . S
C337 C332 1.382 . S
C337 C336 1.398 . S
C337 H359 0.929 . S
C338 O348 1.271 . S
C338 O349 1.251 . S
C339 O350 1.252 . S
C339 O351 1.272 . S
O340 Sm320 2.543 . S
O340 C322 1.261 . S
O341 Sm320 2.450 . S
O341 C322 1.242 . S
O342 Sm320 2.681 . S
O342 Sm321 2.386 . S
O342 C329 1.271 . S
O343 Sm320 2.464 . S
O343 C329 1.251 . S
O344 Sm320 2.396 . S
O344 C330 1.252 . S
O345 Sm321 2.408 . S
O345 C330 1.272 . S
O346 Sm321 2.543 . S
O346 C331 1.261 . S
O347 Sm321 2.450 . S
O347 C331 1.242 . S
O348 Sm320 2.386 . S
O348 Sm321 2.681 . S
O348 C338 1.271 . S
O349 Sm321 2.464 . S
O349 C338 1.251 . S
O350 Sm321 2.396 . S
O350 C339 1.252 . S
O351 Sm320 2.408 . S
O351 C339 1.272 . S
H352 C324 0.930 . S
H353 C325 0.929 . S
H354 C327 0.930 . S
H355 C328 0.929 . S
H356 C333 0.930 . S
H357 C334 0.929 . S
H358 C336 0.930 . S
H359 C337 0.929 . S
C360 C361 1.391 . S
C360 C362 1.394 . S
C360 H376 0.931 1_556 S
C361 C360 1.391 . S
C361 C365 1.376 . S
C362 C360 1.394 . S
C362 C363 1.369 . S
C362 C366 1.531 . S
C363 C362 1.369 . S
C363 C364 1.410 . S
C363 C371 1.503 . S
C364 C363 1.410 . S
C364 C365 1.392 . S
C364 C367 1.511 . S
C365 C361 1.376 . S
C365 C364 1.392 . S
C365 H377 0.929 . S
C366 C362 1.531 . S
C366 H378 0.960 . S
C366 H379 0.962 . S
C366 H380 0.960 1_556 S
C367 C364 1.511 . S
C367 H381 0.961 . S
C367 H382 0.961 . S
C367 H383 0.961 . S
C368 C369 1.370 . S
C368 C370 1.363 . S
C368 H384 0.931 . S
C369 C368 1.370 . S
C369 C373 1.408 . S
C370 C368 1.363 . S
C370 C371 1.370 . S
C370 C374 1.524 . S
C371 C363 1.503 . S
C371 C370 1.370 . S
C371 C372 1.403 . S
C372 C371 1.403 . S
C372 C373 1.404 . S
C372 C375 1.539 . S
C373 C369 1.408 . S
C373 C372 1.404 . S
C373 H385 0.930 . S
C374 C370 1.524 . S
C374 H386 0.956 . S
C374 H387 0.961 . S
C374 H388 0.961 . S
C375 C372 1.539 . S
C375 H389 0.958 . S
C375 H390 0.961 . S
C375 H391 0.960 . S
H376 C360 0.931 1_554 S
H377 C365 0.929 . S
H378 C366 0.960 . S
H379 C366 0.962 . S
H380 C366 0.960 1_554 S
H381 C367 0.961 . S
H382 C367 0.961 . S
H383 C367 0.961 . S
H384 C368 0.931 . S
H385 C373 0.930 . S
H386 C374 0.956 . S
H387 C374 0.961 . S
H388 C374 0.961 . S
H389 C375 0.958 . S
H390 C375 0.961 . S
H391 C375 0.960 . S
C392 C393 1.391 . S
C392 C394 1.394 . S
C392 H408 0.931 . S
C393 C392 1.391 . S
C393 C397 1.376 . S
C394 C392 1.394 . S
C394 C395 1.369 . S
C394 C398 1.531 . S
C395 C394 1.369 . S
C395 C396 1.410 . S
C395 C403 1.503 . S
C396 C395 1.410 . S
C396 C397 1.392 . S
C396 C399 1.511 1_556 S
C397 C393 1.376 . S
C397 C396 1.392 . S
C397 H409 0.929 1_556 S
C398 C394 1.531 . S
C398 H410 0.960 . S
C398 H411 0.962 . S
C398 H412 0.960 . S
C399 C396 1.511 1_554 S
C399 H413 0.961 . S
C399 H414 0.961 1_554 S
C399 H415 0.961 . S
C400 C401 1.370 . S
C400 C402 1.363 . S
C400 H416 0.931 . S
C401 C400 1.370 . S
C401 C405 1.408 . S
C402 C400 1.363 . S
C402 C403 1.370 . S
C402 C406 1.524 . S
C403 C395 1.503 . S
C403 C402 1.370 . S
C403 C404 1.403 . S
C404 C403 1.403 . S
C404 C405 1.404 . S
C404 C407 1.539 . S
C405 C401 1.408 . S
C405 C404 1.404 . S
C405 H417 0.930 . S
C406 C402 1.524 . S
C406 H418 0.956 . S
C406 H419 0.961 . S
C406 H420 0.961 . S
C407 C404 1.539 . S
C407 H421 0.958 . S
C407 H422 0.961 . S
C407 H423 0.960 . S
H408 C392 0.931 . S
H409 C397 0.929 1_554 S
H410 C398 0.960 . S
H411 C398 0.962 . S
H412 C398 0.960 . S
H413 C399 0.961 . S
H414 C399 0.961 1_556 S
H415 C399 0.961 . S
H416 C400 0.931 . S
H417 C405 0.930 . S
H418 C406 0.956 . S
H419 C406 0.961 . S
H420 C406 0.961 . S
H421 C407 0.958 . S
H422 C407 0.961 . S
H423 C407 0.960 . S
C424 C425 1.391 . S
C424 C426 1.394 . S
C424 H440 0.931 1_556 S
C425 C424 1.391 . S
C425 C429 1.376 . S
C426 C424 1.394 . S
C426 C427 1.369 . S
C426 C430 1.531 . S
C427 C426 1.369 . S
C427 C428 1.410 . S
C427 C435 1.503 . S
C428 C427 1.410 . S
C428 C429 1.392 . S
C428 C431 1.511 . S
C429 C425 1.376 . S
C429 C428 1.392 . S
C429 H441 0.929 . S
C430 C426 1.531 . S
C430 H442 0.960 . S
C430 H443 0.962 . S
C430 H444 0.960 1_556 S
C431 C428 1.511 . S
C431 H445 0.961 . S
C431 H446 0.961 . S
C431 H447 0.961 . S
C432 C433 1.370 . S
C432 C434 1.363 . S
C432 H448 0.931 . S
C433 C432 1.370 . S
C433 C437 1.408 . S
C434 C432 1.363 . S
C434 C435 1.370 . S
C434 C438 1.524 . S
C435 C427 1.503 . S
C435 C434 1.370 . S
C435 C436 1.403 . S
C436 C435 1.403 . S
C436 C437 1.404 . S
C436 C439 1.539 . S
C437 C433 1.408 . S
C437 C436 1.404 . S
C437 H449 0.930 . S
C438 C434 1.524 . S
C438 H450 0.956 . S
C438 H451 0.961 . S
C438 H452 0.961 . S
C439 C436 1.539 . S
C439 H453 0.958 . S
C439 H454 0.961 . S
C439 H455 0.960 . S
H440 C424 0.931 1_554 S
H441 C429 0.929 . S
H442 C430 0.960 . S
H443 C430 0.962 . S
H444 C430 0.960 1_554 S
H445 C431 0.961 . S
H446 C431 0.961 . S
H447 C431 0.961 . S
H448 C432 0.931 . S
H449 C437 0.930 . S
H450 C438 0.956 . S
H451 C438 0.961 . S
H452 C438 0.961 . S
H453 C439 0.958 . S
H454 C439 0.961 . S
H455 C439 0.960 . S
C456 C457 1.391 . S
C456 C458 1.394 . S
C456 H472 0.931 . S
C457 C456 1.391 . S
C457 C461 1.376 . S
C458 C456 1.394 . S
C458 C459 1.369 . S
C458 C462 1.531 . S
C459 C458 1.369 . S
C459 C460 1.410 . S
C459 C467 1.503 . S
C460 C459 1.410 . S
C460 C461 1.392 . S
C460 C463 1.511 . S
C461 C457 1.376 . S
C461 C460 1.392 . S
C461 H473 0.929 . S
C462 C458 1.531 . S
C462 H474 0.960 . S
C462 H475 0.962 . S
C462 H476 0.960 . S
C463 C460 1.511 . S
C463 H477 0.961 . S
C463 H478 0.961 . S
C463 H479 0.961 . S
C464 C465 1.370 . S
C464 C466 1.363 . S
C464 H480 0.931 . S
C465 C464 1.370 . S
C465 C469 1.408 1_554 S
C466 C464 1.363 . S
C466 C467 1.370 . S
C466 C470 1.524 . S
C467 C459 1.503 . S
C467 C466 1.370 . S
C467 C468 1.403 . S
C468 C467 1.403 . S
C468 C469 1.404 1_554 S
C468 C471 1.539 1_554 S
C469 C465 1.408 1_556 S
C469 C468 1.404 1_556 S
C469 H481 0.930 . S
C470 C466 1.524 . S
C470 H482 0.956 . S
C470 H483 0.961 . S
C470 H484 0.961 . S
C471 C468 1.539 1_556 S
C471 H485 0.958 . S
C471 H486 0.961 . S
C471 H487 0.960 . S
H472 C456 0.931 . S
H473 C461 0.929 . S
H474 C462 0.960 . S
H475 C462 0.962 . S
H476 C462 0.960 . S
H477 C463 0.961 . S
H478 C463 0.961 . S
H479 C463 0.961 . S
H480 C464 0.931 . S
H481 C469 0.930 . S
H482 C470 0.956 . S
H483 C470 0.961 . S
H484 C470 0.961 . S
H485 C471 0.958 . S
H486 C471 0.961 . S
H487 C471 0.960 . S
C488 C489 1.391 . S
C488 C490 1.394 . S
C488 H504 0.931 . S
C489 C488 1.391 . S
C489 C493 1.376 . S
C490 C488 1.394 . S
C490 C491 1.369 . S
C490 C494 1.531 . S
C491 C490 1.369 . S
C491 C492 1.410 . S
C491 C499 1.503 . S
C492 C491 1.410 . S
C492 C493 1.392 . S
C492 C495 1.511 . S
C493 C489 1.376 . S
C493 C492 1.392 . S
C493 H505 0.929 . S
C494 C490 1.531 . S
C494 H506 0.960 . S
C494 H507 0.962 . S
C494 H508 0.960 . S
C495 C492 1.511 . S
C495 H509 0.961 . S
C495 H510 0.961 . S
C495 H511 0.961 . S
C496 C497 1.370 . S
C496 C498 1.363 . S
C496 H512 0.931 . S
C497 C496 1.370 . S
C497 C501 1.408 1_554 S
C498 C496 1.363 . S
C498 C499 1.370 . S
C498 C502 1.524 . S
C499 C491 1.503 . S
C499 C498 1.370 . S
C499 C500 1.403 . S
C500 C499 1.403 . S
C500 C501 1.404 1_554 S
C500 C503 1.539 1_554 S
C501 C497 1.408 1_556 S
C501 C500 1.404 1_556 S
C501 H513 0.930 . S
C502 C498 1.524 . S
C502 H514 0.956 . S
C502 H515 0.961 . S
C502 H516 0.961 . S
C503 C500 1.539 1_556 S
C503 H517 0.958 . S
C503 H518 0.961 . S
C503 H519 0.960 1_556 S
H504 C488 0.931 . S
H505 C493 0.929 . S
H506 C494 0.960 . S
H507 C494 0.962 . S
H508 C494 0.960 . S
H509 C495 0.961 . S
H510 C495 0.961 . S
H511 C495 0.961 . S
H512 C496 0.931 . S
H513 C501 0.930 . S
H514 C502 0.956 . S
H515 C502 0.961 . S
H516 C502 0.961 . S
H517 C503 0.958 . S
H518 C503 0.961 . S
H519 C503 0.960 1_554 S
C520 C521 1.391 . S
C520 C522 1.394 . S
C520 H536 0.931 1_554 S
C521 C520 1.391 . S
C521 C525 1.376 . S
C522 C520 1.394 . S
C522 C523 1.369 . S
C522 C526 1.531 . S
C523 C522 1.369 . S
C523 C524 1.410 . S
C523 C531 1.503 . S
C524 C523 1.410 . S
C524 C525 1.392 . S
C524 C527 1.511 . S
C525 C521 1.376 . S
C525 C524 1.392 . S
C525 H537 0.929 . S
C526 C522 1.531 . S
C526 H538 0.960 . S
C526 H539 0.962 . S
C526 H540 0.960 1_554 S
C527 C524 1.511 . S
C527 H541 0.961 . S
C527 H542 0.961 . S
C527 H543 0.961 . S
C528 C529 1.370 . S
C528 C530 1.363 . S
C528 H544 0.931 . S
C529 C528 1.370 . S
C529 C533 1.408 . S
C530 C528 1.363 . S
C530 C531 1.370 . S
C530 C534 1.524 . S
C531 C523 1.503 . S
C531 C530 1.370 . S
C531 C532 1.403 . S
C532 C531 1.403 . S
C532 C533 1.404 . S
C532 C535 1.539 . S
C533 C529 1.408 . S
C533 C532 1.404 . S
C533 H545 0.930 . S
C534 C530 1.524 . S
C534 H546 0.956 . S
C534 H547 0.961 . S
C534 H548 0.961 . S
C535 C532 1.539 . S
C535 H549 0.958 1_554 S
C535 H550 0.961 . S
C535 H551 0.960 . S
H536 C520 0.931 1_556 S
H537 C525 0.929 . S
H538 C526 0.960 . S
H539 C526 0.962 . S
H540 C526 0.960 1_556 S
H541 C527 0.961 . S
H542 C527 0.961 . S
H543 C527 0.961 . S
H544 C528 0.931 . S
H545 C533 0.930 . S
H546 C534 0.956 . S
H547 C534 0.961 . S
H548 C534 0.961 . S
H549 C535 0.958 1_556 S
H550 C535 0.961 . S
H551 C535 0.960 . S
C552 C553 1.391 1_655 S
C552 C554 1.394 . S
C552 H568 0.931 . S
C553 C552 1.391 1_455 S
C553 C557 1.376 . S
C554 C552 1.394 . S
C554 C555 1.369 . S
C554 C558 1.531 . S
C555 C554 1.369 . S
C555 C556 1.410 . S
C555 C563 1.503 . S
C556 C555 1.410 . S
C556 C557 1.392 1_655 S
C556 C559 1.511 . S
C557 C553 1.376 . S
C557 C556 1.392 1_455 S
C557 H569 0.929 . S
C558 C554 1.531 . S
C558 H570 0.960 . S
C558 H571 0.962 . S
C558 H572 0.960 . S
C559 C556 1.511 . S
C559 H573 0.961 . S
C559 H574 0.961 . S
C559 H575 0.961 . S
C560 C561 1.370 . S
C560 C562 1.363 . S
C560 H576 0.931 . S
C561 C560 1.370 . S
C561 C565 1.408 . S
C562 C560 1.363 . S
C562 C563 1.370 . S
C562 C566 1.524 . S
C563 C555 1.503 . S
C563 C562 1.370 . S
C563 C564 1.403 . S
C564 C563 1.403 . S
C564 C565 1.404 . S
C564 C567 1.539 . S
C565 C561 1.408 . S
C565 C564 1.404 . S
C565 H577 0.930 . S
C566 C562 1.524 . S
C566 H578 0.956 . S
C566 H579 0.961 . S
C566 H580 0.961 . S
C567 C564 1.539 . S
C567 H581 0.958 . S
C567 H582 0.961 . S
C567 H583 0.960 . S
H568 C552 0.931 . S
H569 C557 0.929 . S
H570 C558 0.960 . S
H571 C558 0.962 . S
H572 C558 0.960 . S
H573 C559 0.961 . S
H574 C559 0.961 . S
H575 C559 0.961 . S
H576 C560 0.931 . S
H577 C565 0.930 . S
H578 C566 0.956 . S
H579 C566 0.961 . S
H580 C566 0.961 . S
H581 C567 0.958 . S
H582 C567 0.961 . S
H583 C567 0.960 . S
C584 C585 1.391 . S
C584 C586 1.394 . S
C584 H600 0.931 . S
C585 C584 1.391 . S
C585 C589 1.376 . S
C586 C584 1.394 . S
C586 C587 1.369 . S
C586 C590 1.531 . S
C587 C586 1.369 . S
C587 C588 1.410 . S
C587 C595 1.503 . S
C588 C587 1.410 . S
C588 C589 1.392 . S
C588 C591 1.511 . S
C589 C585 1.376 . S
C589 C588 1.392 . S
C589 H601 0.929 . S
C590 C586 1.531 . S
C590 H602 0.960 . S
C590 H603 0.962 . S
C590 H604 0.960 . S
C591 C588 1.511 . S
C591 H605 0.961 . S
C591 H606 0.961 . S
C591 H607 0.961 . S
C592 C593 1.370 . S
C592 C594 1.363 . S
C592 H608 0.931 . S
C593 C592 1.370 . S
C593 C597 1.408 . S
C594 C592 1.363 . S
C594 C595 1.370 . S
C594 C598 1.524 . S
C595 C587 1.503 . S
C595 C594 1.370 . S
C595 C596 1.403 . S
C596 C595 1.403 . S
C596 C597 1.404 . S
C596 C599 1.539 . S
C597 C593 1.408 . S
C597 C596 1.404 . S
C597 H609 0.930 . S
C598 C594 1.524 . S
C598 H610 0.956 . S
C598 H611 0.961 . S
C598 H612 0.961 . S
C599 C596 1.539 . S
C599 H613 0.958 . S
C599 H614 0.961 . S
C599 H615 0.960 . S
H600 C584 0.931 . S
H601 C589 0.929 . S
H602 C590 0.960 . S
H603 C590 0.962 . S
H604 C590 0.960 . S
H605 C591 0.961 . S
H606 C591 0.961 . S
H607 C591 0.961 . S
H608 C592 0.931 . S
H609 C597 0.930 . S
H610 C598 0.956 . S
H611 C598 0.961 . S
H612 C598 0.961 . S
H613 C599 0.958 . S
H614 C599 0.961 . S
H615 C599 0.960 . S
C616 C617 1.391 . S
C616 C618 1.394 . S
C616 H632 0.931 . S
C617 C616 1.391 . S
C617 C621 1.376 . S
C618 C616 1.394 . S
C618 C619 1.369 . S
C618 C622 1.531 . S
C619 C618 1.369 . S
C619 C620 1.410 . S
C619 C627 1.503 . S
C620 C619 1.410 . S
C620 C621 1.392 . S
C620 C623 1.511 . S
C621 C617 1.376 . S
C621 C620 1.392 . S
C621 H633 0.929 . S
C622 C618 1.531 . S
C622 H634 0.960 . S
C622 H635 0.962 . S
C622 H636 0.960 . S
C623 C620 1.511 . S
C623 H637 0.961 . S
C623 H638 0.961 . S
C623 H639 0.961 . S
C624 C625 1.370 . S
C624 C626 1.363 . S
C624 H640 0.931 . S
C625 C624 1.370 . S
C625 C629 1.408 . S
C626 C624 1.363 . S
C626 C627 1.370 . S
C626 C630 1.524 . S
C627 C619 1.503 . S
C627 C626 1.370 . S
C627 C628 1.403 . S
C628 C627 1.403 . S
C628 C629 1.404 . S
C628 C631 1.539 . S
C629 C625 1.408 . S
C629 C628 1.404 . S
C629 H641 0.930 1_545 S
C630 C626 1.524 . S
C630 H642 0.956 . S
C630 H643 0.961 . S
C630 H644 0.961 . S
C631 C628 1.539 . S
C631 H645 0.958 . S
C631 H646 0.961 . S
C631 H647 0.960 . S
H632 C616 0.931 . S
H633 C621 0.929 . S
H634 C622 0.960 . S
H635 C622 0.962 . S
H636 C622 0.960 . S
H637 C623 0.961 . S
H638 C623 0.961 . S
H639 C623 0.961 . S
H640 C624 0.931 . S
H641 C629 0.930 1_565 S
H642 C630 0.956 . S
H643 C630 0.961 . S
H644 C630 0.961 . S
H645 C631 0.958 . S
H646 C631 0.961 . S
H647 C631 0.960 . S
C648 C649 1.391 . S
C648 C650 1.394 . S
C648 H664 0.931 . S
C649 C648 1.391 . S
C649 C653 1.376 . S
C650 C648 1.394 . S
C650 C651 1.369 . S
C650 C654 1.531 . S
C651 C650 1.369 . S
C651 C652 1.410 . S
C651 C659 1.503 . S
C652 C651 1.410 . S
C652 C653 1.392 . S
C652 C655 1.511 1_554 S
C653 C649 1.376 . S
C653 C652 1.392 . S
C653 H665 0.929 . S
C654 C650 1.531 . S
C654 H666 0.960 . S
C654 H667 0.962 . S
C654 H668 0.960 . S
C655 C652 1.511 1_556 S
C655 H669 0.961 . S
C655 H670 0.961 . S
C655 H671 0.961 1_556 S
C656 C657 1.370 1_556 S
C656 C658 1.363 . S
C656 H672 0.931 . S
C657 C656 1.370 1_554 S
C657 C661 1.408 . S
C658 C656 1.363 . S
C658 C659 1.370 1_556 S
C658 C662 1.524 . S
C659 C651 1.503 . S
C659 C658 1.370 1_554 S
C659 C660 1.403 . S
C660 C659 1.403 . S
C660 C661 1.404 . S
C660 C663 1.539 . S
C661 C657 1.408 . S
C661 C660 1.404 . S
C661 H673 0.930 . S
C662 C658 1.524 . S
C662 H674 0.956 . S
C662 H675 0.961 . S
C662 H676 0.961 . S
C663 C660 1.539 . S
C663 H677 0.958 . S
C663 H678 0.961 . S
C663 H679 0.960 . S
H664 C648 0.931 . S
H665 C653 0.929 . S
H666 C654 0.960 . S
H667 C654 0.962 . S
H668 C654 0.960 . S
H669 C655 0.961 . S
H670 C655 0.961 . S
H671 C655 0.961 1_554 S
H672 C656 0.931 . S
H673 C661 0.930 . S
H674 C662 0.956 . S
H675 C662 0.961 . S
H676 C662 0.961 . S
H677 C663 0.958 . S
H678 C663 0.961 . S
H679 C663 0.960 . S
C680 C681 1.391 . S
C680 C682 1.394 . S
C680 H696 0.931 . S
C681 C680 1.391 . S
C681 C685 1.376 1_554 S
C682 C680 1.394 . S
C682 C683 1.369 . S
C682 C686 1.531 . S
C683 C682 1.369 . S
C683 C684 1.410 1_554 S
C683 C691 1.503 . S
C684 C683 1.410 1_556 S
C684 C685 1.392 . S
C684 C687 1.511 . S
C685 C681 1.376 1_556 S
C685 C684 1.392 . S
C685 H697 0.929 . S
C686 C682 1.531 . S
C686 H698 0.960 . S
C686 H699 0.962 . S
C686 H700 0.960 . S
C687 C684 1.511 . S
C687 H701 0.961 . S
C687 H702 0.961 . S
C687 H703 0.961 . S
C688 C689 1.370 . S
C688 C690 1.363 1_545 S
C688 H704 0.931 1_554 S
C689 C688 1.370 . S
C689 C693 1.408 . S
C690 C688 1.363 1_565 S
C690 C691 1.370 . S
C690 C694 1.524 1_554 S
C691 C683 1.503 . S
C691 C690 1.370 . S
C691 C692 1.403 . S
C692 C691 1.403 . S
C692 C693 1.404 1_565 S
C692 C695 1.539 . S
C693 C689 1.408 . S
C693 C692 1.404 1_545 S
C693 H705 0.930 . S
C694 C690 1.524 1_556 S
C694 H706 0.956 1_556 S
C694 H707 0.961 . S
C694 H708 0.961 . S
C695 C692 1.539 . S
C695 H709 0.958 . S
C695 H710 0.961 . S
C695 H711 0.960 . S
H696 C680 0.931 . S
H697 C685 0.929 . S
H698 C686 0.960 . S
H699 C686 0.962 . S
H700 C686 0.960 . S
H701 C687 0.961 . S
H702 C687 0.961 . S
H703 C687 0.961 . S
H704 C688 0.931 1_556 S
H705 C693 0.930 . S
H706 C694 0.956 1_554 S
H707 C694 0.961 . S
H708 C694 0.961 . S
H709 C695 0.958 . S
H710 C695 0.961 . S
H711 C695 0.960 . S
C712 C713 1.391 1_456 S
C712 C714 1.394 . S
C712 H728 0.931 1_455 S
C713 C712 1.391 1_654 S
C713 C717 1.376 1_655 S
C714 C712 1.394 . S
C714 C715 1.369 1_556 S
C714 C718 1.531 . S
C715 C714 1.369 1_554 S
C715 C716 1.410 . S
C715 C723 1.503 . S
C716 C715 1.410 . S
C716 C717 1.392 . S
C716 C719 1.511 . S
C717 C713 1.376 1_455 S
C717 C716 1.392 . S
C717 H729 0.929 . S
C718 C714 1.531 . S
C718 H730 0.960 . S
C718 H731 0.962 . S
C718 H732 0.960 . S
C719 C716 1.511 . S
C719 H733 0.961 . S
C719 H734 0.961 . S
C719 H735 0.961 . S
C720 C721 1.370 . S
C720 C722 1.363 . S
C720 H736 0.931 . S
C721 C720 1.370 . S
C721 C725 1.408 1_554 S
C722 C720 1.363 . S
C722 C723 1.370 . S
C722 C726 1.524 . S
C723 C715 1.503 . S
C723 C722 1.370 . S
C723 C724 1.403 1_554 S
C724 C723 1.403 1_556 S
C724 C725 1.404 . S
C724 C727 1.539 . S
C725 C721 1.408 1_556 S
C725 C724 1.404 . S
C725 H737 0.930 . S
C726 C722 1.524 . S
C726 H738 0.956 . S
C726 H739 0.961 . S
C726 H740 0.961 . S
C727 C724 1.539 . S
C727 H741 0.958 . S
C727 H742 0.961 1_565 S
C727 H743 0.960 . S
H728 C712 0.931 1_655 S
H729 C717 0.929 . S
H730 C718 0.960 . S
H731 C718 0.962 . S
H732 C718 0.960 . S
H733 C719 0.961 . S
H734 C719 0.961 . S
H735 C719 0.961 . S
H736 C720 0.931 . S
H737 C725 0.930 . S
H738 C726 0.956 . S
H739 C726 0.961 . S
H740 C726 0.961 . S
H741 C727 0.958 . S
H742 C727 0.961 1_545 S
H743 C727 0.960 . S
C744 C745 1.391 . S
C744 C746 1.394 . S
C744 H760 0.931 . S
C745 C744 1.391 . S
C745 C749 1.376 . S
C746 C744 1.394 . S
C746 C747 1.369 . S
C746 C750 1.531 . S
C747 C746 1.369 . S
C747 C748 1.410 . S
C747 C755 1.503 . S
C748 C747 1.410 . S
C748 C749 1.392 . S
C748 C751 1.511 . S
C749 C745 1.376 . S
C749 C748 1.392 . S
C749 H761 0.929 . S
C750 C746 1.531 . S
C750 H762 0.960 . S
C750 H763 0.962 . S
C750 H764 0.960 . S
C751 C748 1.511 . S
C751 H765 0.961 . S
C751 H766 0.961 . S
C751 H767 0.961 . S
C752 C753 1.370 . S
C752 C754 1.363 . S
C752 H768 0.931 . S
C753 C752 1.370 . S
C753 C757 1.408 . S
C754 C752 1.363 . S
C754 C755 1.370 . S
C754 C758 1.524 . S
C755 C747 1.503 . S
C755 C754 1.370 . S
C755 C756 1.403 . S
C756 C755 1.403 . S
C756 C757 1.404 . S
C756 C759 1.539 . S
C757 C753 1.408 . S
C757 C756 1.404 . S
C757 H769 0.930 . S
C758 C754 1.524 . S
C758 H770 0.956 . S
C758 H771 0.961 . S
C758 H772 0.961 . S
C759 C756 1.539 . S
C759 H773 0.958 . S
C759 H774 0.961 . S
C759 H775 0.960 . S
H760 C744 0.931 . S
H761 C749 0.929 . S
H762 C750 0.960 . S
H763 C750 0.962 . S
H764 C750 0.960 . S
H765 C751 0.961 . S
H766 C751 0.961 . S
H767 C751 0.961 . S
H768 C752 0.931 . S
H769 C757 0.930 . S
H770 C758 0.956 . S
H771 C758 0.961 . S
H772 C758 0.961 . S
H773 C759 0.958 . S
H774 C759 0.961 . S
H775 C759 0.960 . S
C776 C777 1.391 . S
C776 C778 1.394 . S
C776 H792 0.931 . S
C777 C776 1.391 . S
C777 C781 1.376 . S
C778 C776 1.394 . S
C778 C779 1.369 . S
C778 C782 1.531 . S
C779 C778 1.369 . S
C779 C780 1.410 . S
C779 C787 1.503 . S
C780 C779 1.410 . S
C780 C781 1.392 . S
C780 C783 1.511 . S
C781 C777 1.376 . S
C781 C780 1.392 . S
C781 H793 0.929 . S
C782 C778 1.531 . S
C782 H794 0.960 . S
C782 H795 0.962 . S
C782 H796 0.960 . S
C783 C780 1.511 . S
C783 H797 0.961 . S
C783 H798 0.961 . S
C783 H799 0.961 . S
C784 C785 1.370 . S
C784 C786 1.363 . S
C784 H800 0.931 . S
C785 C784 1.370 . S
C785 C789 1.408 . S
C786 C784 1.363 . S
C786 C787 1.370 . S
C786 C790 1.524 . S
C787 C779 1.503 . S
C787 C786 1.370 . S
C787 C788 1.403 . S
C788 C787 1.403 . S
C788 C789 1.404 . S
C788 C791 1.539 . S
C789 C785 1.408 . S
C789 C788 1.404 . S
C789 H801 0.930 . S
C790 C786 1.524 . S
C790 H802 0.956 . S
C790 H803 0.961 . S
C790 H804 0.961 . S
C791 C788 1.539 . S
C791 H805 0.958 . S
C791 H806 0.961 . S
C791 H807 0.960 . S
H792 C776 0.931 . S
H793 C781 0.929 . S
H794 C782 0.960 . S
H795 C782 0.962 . S
H796 C782 0.960 . S
H797 C783 0.961 . S
H798 C783 0.961 . S
H799 C783 0.961 . S
H800 C784 0.931 . S
H801 C789 0.930 . S
H802 C790 0.956 . S
H803 C790 0.961 . S
H804 C790 0.961 . S
H805 C791 0.958 . S
H806 C791 0.961 . S
H807 C791 0.960 . S
C808 C809 1.391 . S
C808 C810 1.394 . S
C808 H824 0.931 . S
C809 C808 1.391 . S
C809 C813 1.376 . S
C810 C808 1.394 . S
C810 C811 1.369 . S
C810 C814 1.531 . S
C811 C810 1.369 . S
C811 C812 1.410 . S
C811 C819 1.503 . S
C812 C811 1.410 . S
C812 C813 1.392 . S
C812 C815 1.511 . S
C813 C809 1.376 . S
C813 C812 1.392 . S
C813 H825 0.929 . S
C814 C810 1.531 . S
C814 H826 0.960 . S
C814 H827 0.962 . S
C814 H828 0.960 . S
C815 C812 1.511 . S
C815 H829 0.961 . S
C815 H830 0.961 . S
C815 H831 0.961 . S
C816 C817 1.370 . S
C816 C818 1.363 . S
C816 H832 0.931 . S
C817 C816 1.370 . S
C817 C821 1.408 . S
C818 C816 1.363 . S
C818 C819 1.370 . S
C818 C822 1.524 . S
C819 C811 1.503 . S
C819 C818 1.370 . S
C819 C820 1.403 . S
C820 C819 1.403 . S
C820 C821 1.404 . S
C820 C823 1.539 . S
C821 C817 1.408 . S
C821 C820 1.404 . S
C821 H833 0.930 . S
C822 C818 1.524 . S
C822 H834 0.956 . S
C822 H835 0.961 . S
C822 H836 0.961 . S
C823 C820 1.539 . S
C823 H837 0.958 . S
C823 H838 0.961 . S
C823 H839 0.960 . S
H824 C808 0.931 . S
H825 C813 0.929 . S
H826 C814 0.960 . S
H827 C814 0.962 . S
H828 C814 0.960 . S
H829 C815 0.961 . S
H830 C815 0.961 . S
H831 C815 0.961 . S
H832 C816 0.931 . S
H833 C821 0.930 . S
H834 C822 0.956 . S
H835 C822 0.961 . S
H836 C822 0.961 . S
H837 C823 0.958 . S
H838 C823 0.961 . S
H839 C823 0.960 . S
C840 C841 1.391 . S
C840 C842 1.394 . S
C840 H856 0.931 . S
C841 C840 1.391 . S
C841 C845 1.376 . S
C842 C840 1.394 . S
C842 C843 1.369 . S
C842 C846 1.531 . S
C843 C842 1.369 . S
C843 C844 1.410 . S
C843 C851 1.503 . S
C844 C843 1.410 . S
C844 C845 1.392 . S
C844 C847 1.511 . S
C845 C841 1.376 . S
C845 C844 1.392 . S
C845 H857 0.929 . S
C846 C842 1.531 . S
C846 H858 0.960 . S
C846 H859 0.962 . S
C846 H860 0.960 . S
C847 C844 1.511 . S
C847 H861 0.961 . S
C847 H862 0.961 . S
C847 H863 0.961 . S
C848 C849 1.370 . S
C848 C850 1.363 . S
C848 H864 0.931 . S
C849 C848 1.370 . S
C849 C853 1.408 . S
C850 C848 1.363 . S
C850 C851 1.370 . S
C850 C854 1.524 . S
C851 C843 1.503 . S
C851 C850 1.370 . S
C851 C852 1.403 . S
C852 C851 1.403 . S
C852 C853 1.404 . S
C852 C855 1.539 . S
C853 C849 1.408 . S
C853 C852 1.404 . S
C853 H865 0.930 . S
C854 C850 1.524 . S
C854 H866 0.956 . S
C854 H867 0.961 . S
C854 H868 0.961 . S
C855 C852 1.539 . S
C855 H869 0.958 . S
C855 H870 0.961 . S
C855 H871 0.960 . S
H856 C840 0.931 . S
H857 C845 0.929 . S
H858 C846 0.960 . S
H859 C846 0.962 . S
H860 C846 0.960 . S
H861 C847 0.961 . S
H862 C847 0.961 . S
H863 C847 0.961 . S
H864 C848 0.931 . S
H865 C853 0.930 . S
H866 C854 0.956 . S
H867 C854 0.961 . S
H868 C854 0.961 . S
H869 C855 0.958 . S
H870 C855 0.961 . S
H871 C855 0.960 . S
C872 C873 1.391 . S
C872 C874 1.394 . S
C872 H888 0.931 . S
C873 C872 1.391 . S
C873 C877 1.376 . S
C874 C872 1.394 . S
C874 C875 1.369 . S
C874 C878 1.531 . S
C875 C874 1.369 . S
C875 C876 1.410 . S
C875 C883 1.503 . S
C876 C875 1.410 . S
C876 C877 1.392 . S
C876 C879 1.511 . S
C877 C873 1.376 . S
C877 C876 1.392 . S
C877 H889 0.929 . S
C878 C874 1.531 . S
C878 H890 0.960 . S
C878 H891 0.962 . S
C878 H892 0.960 . S
C879 C876 1.511 . S
C879 H893 0.961 . S
C879 H894 0.961 . S
C879 H895 0.961 . S
C880 C881 1.370 . S
C880 C882 1.363 . S
C880 H896 0.931 . S
C881 C880 1.370 . S
C881 C885 1.408 . S
C882 C880 1.363 . S
C882 C883 1.370 . S
C882 C886 1.524 . S
C883 C875 1.503 . S
C883 C882 1.370 . S
C883 C884 1.403 . S
C884 C883 1.403 . S
C884 C885 1.404 . S
C884 C887 1.539 . S
C885 C881 1.408 . S
C885 C884 1.404 . S
C885 H897 0.930 . S
C886 C882 1.524 . S
C886 H898 0.956 . S
C886 H899 0.961 . S
C886 H900 0.961 . S
C887 C884 1.539 . S
C887 H901 0.958 . S
C887 H902 0.961 . S
C887 H903 0.960 . S
H888 C872 0.931 . S
H889 C877 0.929 . S
H890 C878 0.960 . S
H891 C878 0.962 . S
H892 C878 0.960 . S
H893 C879 0.961 . S
H894 C879 0.961 . S
H895 C879 0.961 . S
H896 C880 0.931 . S
H897 C885 0.930 . S
H898 C886 0.956 . S
H899 C886 0.961 . S
H900 C886 0.961 . S
H901 C887 0.958 . S
H902 C887 0.961 . S
H903 C887 0.960 . S
C904 C905 1.391 . S
C904 C906 1.394 . S
C904 H920 0.931 . S
C905 C904 1.391 . S
C905 C909 1.376 . S
C906 C904 1.394 . S
C906 C907 1.369 . S
C906 C910 1.531 . S
C907 C906 1.369 . S
C907 C908 1.410 . S
C907 C915 1.503 . S
C908 C907 1.410 . S
C908 C909 1.392 . S
C908 C911 1.511 . S
C909 C905 1.376 . S
C909 C908 1.392 . S
C909 H921 0.929 . S
C910 C906 1.531 . S
C910 H922 0.960 . S
C910 H923 0.962 . S
C910 H924 0.960 . S
C911 C908 1.511 . S
C911 H925 0.961 . S
C911 H926 0.961 . S
C911 H927 0.961 . S
C912 C913 1.370 . S
C912 C914 1.363 . S
C912 H928 0.931 . S
C913 C912 1.370 . S
C913 C917 1.408 . S
C914 C912 1.363 . S
C914 C915 1.370 . S
C914 C918 1.524 . S
C915 C907 1.503 . S
C915 C914 1.370 . S
C915 C916 1.403 . S
C916 C915 1.403 . S
C916 C917 1.404 . S
C916 C919 1.539 . S
C917 C913 1.408 . S
C917 C916 1.404 . S
C917 H929 0.930 . S
C918 C914 1.524 . S
C918 H930 0.956 . S
C918 H931 0.961 . S
C918 H932 0.961 . S
C919 C916 1.539 . S
C919 H933 0.958 . S
C919 H934 0.961 . S
C919 H935 0.960 . S
H920 C904 0.931 . S
H921 C909 0.929 . S
H922 C910 0.960 . S
H923 C910 0.962 . S
H924 C910 0.960 . S
H925 C911 0.961 . S
H926 C911 0.961 . S
H927 C911 0.961 . S
H928 C912 0.931 . S
H929 C917 0.930 . S
H930 C918 0.956 . S
H931 C918 0.961 . S
H932 C918 0.961 . S
H933 C919 0.958 . S
H934 C919 0.961 . S
H935 C919 0.960 . S
C936 C937 1.391 . S
C936 C938 1.394 . S
C936 H952 0.931 . S
C937 C936 1.391 . S
C937 C941 1.376 1_455 S
C938 C936 1.394 . S
C938 C939 1.369 . S
C938 C942 1.531 . S
C939 C938 1.369 . S
C939 C940 1.410 1_455 S
C939 C947 1.503 . S
C940 C939 1.410 1_655 S
C940 C941 1.392 . S
C940 C943 1.511 . S
C941 C937 1.376 1_655 S
C941 C940 1.392 . S
C941 H953 0.929 . S
C942 C938 1.531 . S
C942 H954 0.960 . S
C942 H955 0.962 . S
C942 H956 0.960 . S
C943 C940 1.511 . S
C943 H957 0.961 . S
C943 H958 0.961 . S
C943 H959 0.961 . S
C944 C945 1.370 . S
C944 C946 1.363 . S
C944 H960 0.931 . S
C945 C944 1.370 . S
C945 C949 1.408 1_455 S
C946 C944 1.363 . S
C946 C947 1.370 . S
C946 C950 1.524 . S
C947 C939 1.503 . S
C947 C946 1.370 . S
C947 C948 1.403 1_455 S
C948 C947 1.403 1_655 S
C948 C949 1.404 . S
C948 C951 1.539 . S
C949 C945 1.408 1_655 S
C949 C948 1.404 . S
C949 H961 0.930 . S
C950 C946 1.524 . S
C950 H962 0.956 . S
C950 H963 0.961 . S
C950 H964 0.961 . S
C951 C948 1.539 . S
C951 H965 0.958 . S
C951 H966 0.961 . S
C951 H967 0.960 . S
H952 C936 0.931 . S
H953 C941 0.929 . S
H954 C942 0.960 . S
H955 C942 0.962 . S
H956 C942 0.960 . S
H957 C943 0.961 . S
H958 C943 0.961 . S
H959 C943 0.961 . S
H960 C944 0.931 . S
H961 C949 0.930 . S
H962 C950 0.956 . S
H963 C950 0.961 . S
H964 C950 0.961 . S
H965 C951 0.958 . S
H966 C951 0.961 . S
H967 C951 0.960 . S
C968 C969 1.391 . S
C968 C970 1.394 . S
C968 H984 0.931 . S
C969 C968 1.391 . S
C969 C973 1.376 . S
C970 C968 1.394 . S
C970 C971 1.369 . S
C970 C974 1.531 . S
C971 C970 1.369 . S
C971 C972 1.410 . S
C971 C979 1.503 . S
C972 C971 1.410 . S
C972 C973 1.392 . S
C972 C975 1.511 . S
C973 C969 1.376 . S
C973 C972 1.392 . S
C973 H985 0.929 . S
C974 C970 1.531 . S
C974 H986 0.960 . S
C974 H987 0.962 . S
C974 H988 0.960 . S
C975 C972 1.511 . S
C975 H989 0.961 . S
C975 H990 0.961 . S
C975 H991 0.961 . S
C976 C977 1.370 . S
C976 C978 1.363 . S
C976 H992 0.931 . S
C977 C976 1.370 . S
C977 C981 1.408 . S
C978 C976 1.363 . S
C978 C979 1.370 . S
C978 C982 1.524 . S
C979 C971 1.503 . S
C979 C978 1.370 . S
C979 C980 1.403 . S
C980 C979 1.403 . S
C980 C981 1.404 . S
C980 C983 1.539 . S
C981 C977 1.408 . S
C981 C980 1.404 . S
C981 H993 0.930 . S
C982 C978 1.524 . S
C982 H994 0.956 . S
C982 H995 0.961 . S
C982 H996 0.961 . S
C983 C980 1.539 . S
C983 H997 0.958 . S
C983 H998 0.961 . S
C983 H999 0.960 . S
H984 C968 0.931 . S
H985 C973 0.929 . S
H986 C974 0.960 . S
H987 C974 0.962 . S
H988 C974 0.960 . S
H989 C975 0.961 . S
H990 C975 0.961 . S
H991 C975 0.961 . S
H992 C976 0.931 . S
H993 C981 0.930 . S
H994 C982 0.956 . S
H995 C982 0.961 . S
H996 C982 0.961 . S
H997 C983 0.958 . S
H998 C983 0.961 . S
H999 C983 0.960 . S
C1000 C1001 1.391 . S
C1000 C1002 1.394 . S
C1000 H1016 0.931 . S
C1001 C1000 1.391 . S
C1001 C1005 1.398 . S
C1002 C1000 1.394 . S
C1002 C1003 1.369 . S
C1002 C1006 1.531 . S
C1003 C1002 1.369 . S
C1003 C1004 1.440 . S
C1003 C1011 1.503 . S
C1004 C1003 1.440 . S
C1004 C1005 1.392 . S
C1004 C1007 1.481 1_545 S
C1005 C1001 1.398 . S
C1005 C1004 1.392 . S
C1005 H1017 0.906 1_545 S
C1006 C1002 1.531 . S
C1006 H1018 0.960 . S
C1006 H1019 0.962 . S
C1006 H1020 0.960 . S
C1007 C1004 1.481 1_565 S
C1007 H1021 0.961 . S
C1007 H1022 0.961 . S
C1007 H1023 0.975 . S
C1008 C1009 1.370 1_565 S
C1008 C1010 1.363 . S
C1008 H1024 0.931 . S
C1009 C1008 1.370 1_545 S
C1009 C1013 1.408 . S
C1010 C1008 1.363 . S
C1010 C1011 1.370 1_565 S
C1010 C1014 1.524 . S
C1011 C1003 1.503 . S
C1011 C1010 1.370 1_545 S
C1011 C1012 1.403 . S
C1012 C1011 1.403 . S
C1012 C1013 1.404 . S
C1012 C1015 1.539 . S
C1013 C1009 1.408 . S
C1013 C1012 1.404 . S
C1013 H1025 0.930 . S
C1014 C1010 1.524 . S
C1014 H1026 0.956 . S
C1014 H1027 0.961 . S
C1014 H1028 0.961 . S
C1015 C1012 1.539 . S
C1015 H1029 0.958 . S
C1015 H1030 0.961 . S
C1015 H1031 0.960 . S
H1016 C1000 0.931 . S
H1017 C1005 0.906 1_565 S
H1018 C1006 0.960 . S
H1019 C1006 0.962 . S
H1020 C1006 0.960 . S
H1021 C1007 0.961 . S
H1022 C1007 0.961 . S
H1023 C1007 0.975 . S
H1024 C1008 0.931 . S
H1025 C1013 0.930 . S
H1026 C1014 0.956 . S
H1027 C1014 0.961 . S
H1028 C1014 0.961 . S
H1029 C1015 0.958 . S
H1030 C1015 0.961 . S
H1031 C1015 0.960 . S
C1032 C1033 1.391 . S
C1032 C1034 1.394 . S
C1032 H1048 0.931 . S
C1033 C1032 1.391 . S
C1033 C1037 1.376 . S
C1034 C1032 1.394 . S
C1034 C1035 1.369 . S
C1034 C1038 1.531 . S
C1035 C1034 1.369 . S
C1035 C1036 1.410 . S
C1035 C1043 1.503 . S
C1036 C1035 1.410 . S
C1036 C1037 1.392 . S
C1036 C1039 1.511 . S
C1037 C1033 1.376 . S
C1037 C1036 1.392 . S
C1037 H1049 0.929 . S
C1038 C1034 1.531 . S
C1038 H1050 0.960 . S
C1038 H1051 0.962 . S
C1038 H1052 0.960 . S
C1039 C1036 1.511 . S
C1039 H1053 0.961 . S
C1039 H1054 0.961 . S
C1039 H1055 0.961 . S
C1040 C1041 1.370 . S
C1040 C1042 1.363 1_554 S
C1040 H1056 0.931 . S
C1041 C1040 1.370 . S
C1041 C1045 1.408 . S
C1042 C1040 1.363 1_556 S
C1042 C1043 1.370 . S
C1042 C1046 1.524 . S
C1043 C1035 1.503 . S
C1043 C1042 1.370 . S
C1043 C1044 1.403 . S
C1044 C1043 1.403 . S
C1044 C1045 1.404 1_556 S
C1044 C1047 1.539 . S
C1045 C1041 1.408 . S
C1045 C1044 1.404 1_554 S
C1045 H1057 0.930 . S
C1046 C1042 1.524 . S
C1046 H1058 0.956 . S
C1046 H1059 0.961 . S
C1046 H1060 0.961 . S
C1047 C1044 1.539 . S
C1047 H1061 0.958 . S
C1047 H1062 0.961 . S
C1047 H1063 0.960 . S
H1048 C1032 0.931 . S
H1049 C1037 0.929 . S
H1050 C1038 0.960 . S
H1051 C1038 0.962 . S
H1052 C1038 0.960 . S
H1053 C1039 0.961 . S
H1054 C1039 0.961 . S
H1055 C1039 0.961 . S
H1056 C1040 0.931 . S
H1057 C1045 0.930 . S
H1058 C1046 0.956 . S
H1059 C1046 0.961 . S
H1060 C1046 0.961 . S
H1061 C1047 0.958 . S
H1062 C1047 0.961 . S
H1063 C1047 0.960 . S
C1064 C1065 1.391 . S
C1064 C1066 1.394 . S
C1064 H1080 0.931 . S
C1065 C1064 1.391 . S
C1065 C1069 1.376 . S
C1066 C1064 1.394 . S
C1066 C1067 1.369 . S
C1066 C1070 1.531 . S
C1067 C1066 1.369 . S
C1067 C1068 1.410 . S
C1067 C1075 1.503 . S
C1068 C1067 1.410 . S
C1068 C1069 1.392 . S
C1068 C1071 1.511 . S
C1069 C1065 1.376 . S
C1069 C1068 1.392 . S
C1069 H1081 0.929 . S
C1070 C1066 1.531 . S
C1070 H1082 0.960 . S
C1070 H1083 0.962 . S
C1070 H1084 0.960 . S
C1071 C1068 1.511 . S
C1071 H1085 0.961 . S
C1071 H1086 0.961 . S
C1071 H1087 0.961 . S
C1072 C1073 1.370 . S
C1072 C1074 1.363 1_554 S
C1072 H1088 0.931 . S
C1073 C1072 1.370 . S
C1073 C1077 1.408 . S
C1074 C1072 1.363 1_556 S
C1074 C1075 1.370 . S
C1074 C1078 1.524 . S
C1075 C1067 1.503 . S
C1075 C1074 1.370 . S
C1075 C1076 1.403 . S
C1076 C1075 1.403 . S
C1076 C1077 1.404 1_556 S
C1076 C1079 1.539 . S
C1077 C1073 1.408 . S
C1077 C1076 1.404 1_554 S
C1077 H1089 0.930 . S
C1078 C1074 1.524 . S
C1078 H1090 0.956 . S
C1078 H1091 0.961 . S
C1078 H1092 0.961 . S
C1079 C1076 1.539 . S
C1079 H1093 0.958 . S
C1079 H1094 0.961 . S
C1079 H1095 0.960 . S
H1080 C1064 0.931 . S
H1081 C1069 0.929 . S
H1082 C1070 0.960 . S
H1083 C1070 0.962 . S
H1084 C1070 0.960 . S
H1085 C1071 0.961 . S
H1086 C1071 0.961 . S
H1087 C1071 0.961 . S
H1088 C1072 0.931 . S
H1089 C1077 0.930 . S
H1090 C1078 0.956 . S
H1091 C1078 0.961 . S
H1092 C1078 0.961 . S
H1093 C1079 0.958 . S
H1094 C1079 0.961 . S
H1095 C1079 0.960 . S
C1096 C1097 1.391 . S
C1096 C1098 1.394 . S
C1096 H1112 0.931 . S
C1097 C1096 1.391 . S
C1097 C1101 1.376 . S
C1098 C1096 1.394 . S
C1098 C1099 1.369 . S
C1098 C1102 1.531 . S
C1099 C1098 1.369 . S
C1099 C1100 1.410 . S
C1099 C1107 1.503 . S
C1100 C1099 1.410 . S
C1100 C1101 1.392 . S
C1100 C1103 1.511 . S
C1101 C1097 1.376 . S
C1101 C1100 1.392 . S
C1101 H1113 0.929 . S
C1102 C1098 1.531 . S
C1102 H1114 0.960 . S
C1102 H1115 0.962 . S
C1102 H1116 0.960 . S
C1103 C1100 1.511 . S
C1103 H1117 0.961 . S
C1103 H1118 0.961 . S
C1103 H1119 0.961 . S
C1104 C1105 1.370 . S
C1104 C1106 1.363 1_554 S
C1104 H1120 0.931 . S
C1105 C1104 1.370 . S
C1105 C1109 1.408 . S
C1106 C1104 1.363 1_556 S
C1106 C1107 1.370 . S
C1106 C1110 1.524 . S
C1107 C1099 1.503 . S
C1107 C1106 1.370 . S
C1107 C1108 1.403 . S
C1108 C1107 1.403 . S
C1108 C1109 1.404 1_556 S
C1108 C1111 1.539 . S
C1109 C1105 1.408 . S
C1109 C1108 1.404 1_554 S
C1109 H1121 0.930 . S
C1110 C1106 1.524 . S
C1110 H1122 0.956 . S
C1110 H1123 0.961 . S
C1110 H1124 0.961 . S
C1111 C1108 1.539 . S
C1111 H1125 0.958 . S
C1111 H1126 0.961 . S
C1111 H1127 0.960 . S
H1112 C1096 0.931 . S
H1113 C1101 0.929 . S
H1114 C1102 0.960 . S
H1115 C1102 0.962 . S
H1116 C1102 0.960 . S
H1117 C1103 0.961 . S
H1118 C1103 0.961 . S
H1119 C1103 0.961 . S
H1120 C1104 0.931 . S
H1121 C1109 0.930 . S
H1122 C1110 0.956 . S
H1123 C1110 0.961 . S
H1124 C1110 0.961 . S
H1125 C1111 0.958 . S
H1126 C1111 0.961 . S
H1127 C1111 0.960 . S
C1128 C1129 1.391 . S
C1128 C1130 1.394 . S
C1128 H1144 0.931 . S
C1129 C1128 1.391 . S
C1129 C1133 1.376 . S
C1130 C1128 1.394 . S
C1130 C1131 1.369 . S
C1130 C1134 1.531 . S
C1131 C1130 1.369 . S
C1131 C1132 1.410 . S
C1131 C1139 1.503 . S
C1132 C1131 1.410 . S
C1132 C1133 1.392 . S
C1132 C1135 1.511 . S
C1133 C1129 1.376 . S
C1133 C1132 1.392 . S
C1133 H1145 0.929 . S
C1134 C1130 1.531 . S
C1134 H1146 0.960 . S
C1134 H1147 0.962 . S
C1134 H1148 0.960 . S
C1135 C1132 1.511 . S
C1135 H1149 0.961 . S
C1135 H1150 0.961 . S
C1135 H1151 0.961 . S
C1136 C1137 1.370 . S
C1136 C1138 1.363 1_556 S
C1136 H1152 0.931 . S
C1137 C1136 1.370 . S
C1137 C1141 1.408 . S
C1138 C1136 1.363 1_554 S
C1138 C1139 1.370 . S
C1138 C1142 1.524 . S
C1139 C1131 1.503 . S
C1139 C1138 1.370 . S
C1139 C1140 1.403 . S
C1140 C1139 1.403 . S
C1140 C1141 1.404 1_554 S
C1140 C1143 1.539 . S
C1141 C1137 1.408 . S
C1141 C1140 1.404 1_556 S
C1141 H1153 0.930 . S
C1142 C1138 1.524 . S
C1142 H1154 0.956 . S
C1142 H1155 0.961 . S
C1142 H1156 0.961 . S
C1143 C1140 1.539 . S
C1143 H1157 0.958 . S
C1143 H1158 0.961 . S
C1143 H1159 0.960 . S
H1144 C1128 0.931 . S
H1145 C1133 0.929 . S
H1146 C1134 0.960 . S
H1147 C1134 0.962 . S
H1148 C1134 0.960 . S
H1149 C1135 0.961 . S
H1150 C1135 0.961 . S
H1151 C1135 0.961 . S
H1152 C1136 0.931 . S
H1153 C1141 0.930 . S
H1154 C1142 0.956 . S
H1155 C1142 0.961 . S
H1156 C1142 0.961 . S
H1157 C1143 0.958 . S
H1158 C1143 0.961 . S
H1159 C1143 0.960 . S
C1160 C1161 1.391 . S
C1160 C1162 1.394 1_556 S
C1160 H1176 0.931 . S
C1161 C1160 1.391 . S
C1161 C1165 1.376 . S
C1162 C1160 1.394 1_554 S
C1162 C1163 1.369 . S
C1162 C1166 1.531 . S
C1163 C1162 1.369 . S
C1163 C1164 1.410 . S
C1163 C1171 1.503 . S
C1164 C1163 1.410 . S
C1164 C1165 1.392 1_554 S
C1164 C1167 1.511 . S
C1165 C1161 1.376 . S
C1165 C1164 1.392 1_556 S
C1165 H1177 0.929 . S
C1166 C1162 1.531 . S
C1166 H1178 0.960 . S
C1166 H1179 0.962 . S
C1166 H1180 0.960 . S
C1167 C1164 1.511 . S
C1167 H1181 0.961 . S
C1167 H1182 0.961 . S
C1167 H1183 0.961 . S
C1168 C1169 1.370 . S
C1168 C1170 1.363 . S
C1168 H1184 0.931 . S
C1169 C1168 1.370 . S
C1169 C1173 1.408 . S
C1170 C1168 1.363 . S
C1170 C1171 1.370 . S
C1170 C1174 1.524 . S
C1171 C1163 1.503 . S
C1171 C1170 1.370 . S
C1171 C1172 1.403 . S
C1172 C1171 1.403 . S
C1172 C1173 1.404 . S
C1172 C1175 1.539 . S
C1173 C1169 1.408 . S
C1173 C1172 1.404 . S
C1173 H1185 0.930 . S
C1174 C1170 1.524 . S
C1174 H1186 0.956 . S
C1174 H1187 0.961 . S
C1174 H1188 0.961 . S
C1175 C1172 1.539 . S
C1175 H1189 0.958 . S
C1175 H1190 0.961 . S
C1175 H1191 0.960 . S
H1176 C1160 0.931 . S
H1177 C1165 0.929 . S
H1178 C1166 0.960 . S
H1179 C1166 0.962 . S
H1180 C1166 0.960 . S
H1181 C1167 0.961 . S
H1182 C1167 0.961 . S
H1183 C1167 0.961 . S
H1184 C1168 0.931 . S
H1185 C1173 0.930 . S
H1186 C1174 0.956 . S
H1187 C1174 0.961 . S
H1188 C1174 0.961 . S
H1189 C1175 0.958 . S
H1190 C1175 0.961 . S
H1191 C1175 0.960 . S
C1192 C1193 1.391 . S
C1192 C1194 1.394 . S
C1192 H1208 0.931 . S
C1193 C1192 1.391 . S
C1193 C1197 1.376 . S
C1194 C1192 1.394 . S
C1194 C1195 1.369 . S
C1194 C1198 1.531 . S
C1195 C1194 1.369 . S
C1195 C1196 1.410 . S
C1195 C1203 1.503 . S
C1196 C1195 1.410 . S
C1196 C1197 1.392 . S
C1196 C1199 1.511 . S
C1197 C1193 1.376 . S
C1197 C1196 1.392 . S
C1197 H1209 0.929 . S
C1198 C1194 1.531 . S
C1198 H1210 0.960 . S
C1198 H1211 0.962 . S
C1198 H1212 0.960 . S
C1199 C1196 1.511 . S
C1199 H1213 0.961 . S
C1199 H1214 0.961 . S
C1199 H1215 0.961 . S
C1200 C1201 1.370 . S
C1200 C1202 1.363 1_556 S
C1200 H1216 0.931 . S
C1201 C1200 1.370 . S
C1201 C1205 1.408 . S
C1202 C1200 1.363 1_554 S
C1202 C1203 1.370 . S
C1202 C1206 1.524 . S
C1203 C1195 1.503 . S
C1203 C1202 1.370 . S
C1203 C1204 1.403 . S
C1204 C1203 1.403 . S
C1204 C1205 1.404 1_554 S
C1204 C1207 1.539 . S
C1205 C1201 1.408 . S
C1205 C1204 1.404 1_556 S
C1205 H1217 0.930 . S
C1206 C1202 1.524 . S
C1206 H1218 0.956 . S
C1206 H1219 0.961 . S
C1206 H1220 0.961 . S
C1207 C1204 1.539 . S
C1207 H1221 0.958 . S
C1207 H1222 0.961 . S
C1207 H1223 0.960 . S
H1208 C1192 0.931 . S
H1209 C1197 0.929 . S
H1210 C1198 0.960 . S
H1211 C1198 0.962 . S
H1212 C1198 0.960 . S
H1213 C1199 0.961 . S
H1214 C1199 0.961 . S
H1215 C1199 0.961 . S
H1216 C1200 0.931 . S
H1217 C1205 0.930 . S
H1218 C1206 0.956 . S
H1219 C1206 0.961 . S
H1220 C1206 0.961 . S
H1221 C1207 0.958 . S
H1222 C1207 0.961 . S
H1223 C1207 0.960 . S
C361 C6 1.925 . S
C369 C290 1.852 . S
C393 C46 1.933 . S
C401 C330 1.856 . S
C425 C86 1.921 . S
C433 C250 1.854 . S
C457 C166 1.908 . S
C465 C90 1.871 . S
C489 C206 1.913 . S
C497 C10 1.868 . S
C521 C50 1.877 . S
C529 C126 1.920 . S
C553 C286 1.907 . S
C561 C210 1.866 . S
C585 C326 1.907 . S
C593 C130 1.871 . S
C617 C170 1.880 . S
C625 C246 1.919 1_545 S
C649 C95 1.691 . S
C657 C19 1.697 1_554 S
C681 C59 1.700 1_554 S
C689 C15 1.695 . S
C713 C55 1.689 . S
C721 C99 1.698 1_554 S
C745 C139 1.685 . S
C753 C215 1.686 . S
C777 C135 1.680 . S
C785 C179 1.695 . S
C809 C175 1.676 . S
C817 C219 1.695 . S
C841 C335 1.688 . S
C849 C259 1.697 . S
C873 C299 1.684 . S
C881 C255 1.685 . S
C905 C339 1.686 . S
C913 C295 1.687 . S
C937 C18 0.926 1_455 S
C945 C9 0.987 . S
C969 C58 0.939 . S
C977 C49 0.984 . S
C1001 C98 0.960 . S
C1009 C89 0.953 1_545 S
C1033 C129 0.979 . S
C1041 C138 0.963 . S
C1065 C169 0.988 . S
C1073 C178 0.965 . S
C1097 C209 1.007 . S
C1105 C218 0.953 . S
C1129 C258 1.004 . S
C1137 C249 0.957 . S
C1161 C289 0.944 . S
C1169 C298 0.983 . S
C1193 C338 0.963 . S
C1201 C329 0.970 . S
