# Generated by pormake.
# Topology snz, (6)-cn, num edge types: 1
# Building blocks:
#     Node 0, Type 0, BuildingBlock: BETDEL_clean_sbu_0, # of connection points: 6
#     Node 1, Type 0, BuildingBlock: BETDEL_clean_sbu_0, # of connection points: 6
#     Node 2, Type 0, BuildingBlock: BETDEL_clean_sbu_0, # of connection points: 6
#     Node 3, Type 0, BuildingBlock: BETDEL_clean_sbu_0, # of connection points: 6
#     Node 4, Type 0, BuildingBlock: BETDEL_clean_sbu_0, # of connection points: 6
#     Node 5, Type 0, BuildingBlock: BETDEL_clean_sbu_0, # of connection points: 6
#     Node 6, Type 0, BuildingBlock: BETDEL_clean_sbu_0, # of connection points: 6
#     Node 7, Type 0, BuildingBlock: BETDEL_clean_sbu_0, # of connection points: 6
#     Node 8, Type 0, BuildingBlock: BETDEL_clean_sbu_0, # of connection points: 6
#     Edge 9, Type (0, 0), BuildingBlock: XUDNAN_clean_linker_2, # of connection points: 2
#     Edge 10, Type (0, 0), BuildingBlock: XUDNAN_clean_linker_2, # of connection points: 2
#     Edge 11, Type (0, 0), BuildingBlock: XUDNAN_clean_linker_2, # of connection points: 2
#     Edge 12, Type (0, 0), BuildingBlock: XUDNAN_clean_linker_2, # of connection points: 2
#     Edge 13, Type (0, 0), BuildingBlock: XUDNAN_clean_linker_2, # of connection points: 2
#     Edge 14, Type (0, 0), BuildingBlock: XUDNAN_clean_linker_2, # of connection points: 2
#     Edge 15, Type (0, 0), BuildingBlock: XUDNAN_clean_linker_2, # of connection points: 2
#     Edge 16, Type (0, 0), BuildingBlock: XUDNAN_clean_linker_2, # of connection points: 2
#     Edge 17, Type (0, 0), BuildingBlock: XUDNAN_clean_linker_2, # of connection points: 2
#     Edge 18, Type (0, 0), BuildingBlock: XUDNAN_clean_linker_2, # of connection points: 2
#     Edge 19, Type (0, 0), BuildingBlock: XUDNAN_clean_linker_2, # of connection points: 2
#     Edge 20, Type (0, 0), BuildingBlock: XUDNAN_clean_linker_2, # of connection points: 2
#     Edge 21, Type (0, 0), BuildingBlock: XUDNAN_clean_linker_2, # of connection points: 2
#     Edge 22, Type (0, 0), BuildingBlock: XUDNAN_clean_linker_2, # of connection points: 2
#     Edge 23, Type (0, 0), BuildingBlock: XUDNAN_clean_linker_2, # of connection points: 2
#     Edge 24, Type (0, 0), BuildingBlock: XUDNAN_clean_linker_2, # of connection points: 2
#     Edge 25, Type (0, 0), BuildingBlock: XUDNAN_clean_linker_2, # of connection points: 2
#     Edge 26, Type (0, 0), BuildingBlock: XUDNAN_clean_linker_2, # of connection points: 2
#     Edge 27, Type (0, 0), BuildingBlock: XUDNAN_clean_linker_2, # of connection points: 2
#     Edge 28, Type (0, 0), BuildingBlock: XUDNAN_clean_linker_2, # of connection points: 2
#     Edge 29, Type (0, 0), BuildingBlock: XUDNAN_clean_linker_2, # of connection points: 2
#     Edge 30, Type (0, 0), BuildingBlock: XUDNAN_clean_linker_2, # of connection points: 2
#     Edge 31, Type (0, 0), BuildingBlock: XUDNAN_clean_linker_2, # of connection points: 2
#     Edge 32, Type (0, 0), BuildingBlock: XUDNAN_clean_linker_2, # of connection points: 2
#     Edge 33, Type (0, 0), BuildingBlock: XUDNAN_clean_linker_2, # of connection points: 2
#     Edge 34, Type (0, 0), BuildingBlock: XUDNAN_clean_linker_2, # of connection points: 2
#     Edge 35, Type (0, 0), BuildingBlock: XUDNAN_clean_linker_2, # of connection points: 2
# Relax obj value: 0.181
# Max RMSD: 0.228
# Mean RMSD: 0.174
data_MOF--net-snz--node1-BETDEL_clean_sbu_0--edge1-XUDNAN_clean_linker_2
_symmetry_space_group_name_H-M    P1
_symmetry_Int_Tables_number       1
_symmetry_cell_setting            triclinic
loop_
_symmetry_equiv_pos_as_xyz
'x, y, z'
_cell_length_a     51.821006
_cell_length_b     53.296683
_cell_length_c     14.675573
_cell_angle_alpha  91.773164
_cell_angle_beta   92.253766
_cell_angle_gamma 120.13896
loop_
_atom_site_label
_atom_site_type_symbol
_atom_site_fract_x
_atom_site_fract_y
_atom_site_fract_z
_atom_type_partial_charge
Dy0 Dy 0.08386 0.47324 0.0461 0.0
C1 C 0.99661 0.5059 0.99708 0.0
C2 C 0.12135 0.45133 0.06495 0.0
Dy3 Dy 0.03234 0.48262 0.03607 0.0
O4 O 0.10688 0.4506 0.99015 0.0
O5 O 0.11593 0.4647 0.13037 0.0
O6 O 0.09752 0.49447 0.91247 0.0
O7 O 0.05245 0.46877 0.93272 0.0
C8 C 0.07068 0.48455 0.87622 0.0
C9 C 0.04313 0.46963 0.20318 0.0
O10 O 0.0087 0.43466 0.99259 0.0
O11 O 0.04538 0.42946 0.06753 0.0
O12 O 1.00775 0.50558 0.0773 0.0
O13 O 1.00384 0.49222 0.93794 0.0
O14 O 0.01644 0.46111 0.16729 0.0
O15 O 0.06279 0.48608 0.15066 0.0
O16 O 0.11021 0.51964 0.08898 0.0
O17 O 0.07298 0.52802 0.0342 0.0
C18 C 0.01914 0.41794 0.02221 0.0
C19 C 0.10076 0.53766 0.06796 0.0
Dy20 Dy 0.61199 0.53611 0.11261 0.0
C21 C 0.57369 0.41757 0.98003 0.0
C22 C 0.62749 0.58919 0.19011 0.0
Dy23 Dy 0.59714 0.46992 0.07323 0.0
O24 O 0.64616 0.58039 0.17273 0.0
O25 O 0.60026 0.56882 0.16681 0.0
O26 O 0.60724 0.54636 0.96774 0.0
O27 O 0.60125 0.50597 0.99303 0.0
C28 C 0.60235 0.52199 0.92898 0.0
C29 C 0.60604 0.48658 0.2566 0.0
O30 O 0.64421 0.49578 0.03341 0.0
O31 O 0.65764 0.54101 0.10507 0.0
O32 O 0.59247 0.42557 0.05142 0.0
O33 O 0.56851 0.43821 0.95982 0.0
O34 O 0.59968 0.46079 0.22543 0.0
O35 O 0.60804 0.50059 0.18719 0.0
O36 O 0.56528 0.5093 0.15815 0.0
O37 O 0.55177 0.46413 0.08742 0.0
C38 C 0.66416 0.52334 0.05828 0.0
C39 C 0.54516 0.48194 0.13197 0.0
Dy40 Dy 0.55119 0.00544 0.1249 0.0
C41 C 0.66549 0.09211 0.05029 0.0
C42 C 0.49456 0.96585 0.16982 0.0
Dy43 Dy 0.6101 0.05948 0.11534 0.0
O44 O 0.50112 0.97933 0.09468 0.0
O45 O 0.51895 0.97345 0.21919 0.0
O46 O 0.55468 0.99153 0.97892 0.0
O47 O 0.57255 0.03521 0.01714 0.0
C48 C 0.57001 0.0179 0.95244 0.0
C49 C 0.59247 0.05115 0.28743 0.0
O50 O 0.57984 0.07654 0.0733 0.0
O51 O 0.54181 0.04172 0.15149 0.0
O52 O 0.65533 0.10085 0.11671 0.0
O53 O 0.64507 0.06645 0.01855 0.0
O54 O 0.60865 0.07643 0.25411 0.0
O55 O 0.58852 0.0311 0.22911 0.0
O56 O 0.57764 0.98339 0.14454 0.0
O57 O 0.62216 0.02454 0.1165 0.0
C58 C 0.55309 0.06576 0.10642 0.0
C59 C 0.6065 0.99658 0.13172 0.0
Dy60 Dy 0.79295 0.85213 0.35966 0.0
C61 C 0.70748 0.88629 0.2558 0.0
C62 C 0.82666 0.83019 0.43025 0.0
Dy63 Dy 0.73933 0.86447 0.33752 0.0
O64 O 0.81767 0.82735 0.34455 0.0
O65 O 0.81817 0.84583 0.47545 0.0
O66 O 0.80734 0.86961 0.22105 0.0
O67 O 0.76196 0.84879 0.24781 0.0
C68 C 0.78051 0.86238 0.18857 0.0
C69 C 0.75321 0.8631 0.51712 0.0
O70 O 0.71311 0.81632 0.31275 0.0
O71 O 0.75189 0.80756 0.35454 0.0
O72 O 0.69784 0.86817 0.32076 0.0
O73 O 0.73373 0.89144 0.23461 0.0
O74 O 0.73098 0.86622 0.48807 0.0
O75 O 0.76543 0.8605 0.44752 0.0
O76 O 0.81785 0.89999 0.39613 0.0
O77 O 0.77995 0.90889 0.3463 0.0
C78 C 0.72344 0.79855 0.33005 0.0
C79 C 0.80769 0.91778 0.37734 0.0
Dy80 Dy 0.22376 0.86303 0.31233 0.0
C81 C 0.20104 0.74695 0.22366 0.0
C82 C 0.25162 0.91964 0.37686 0.0
Dy83 Dy 0.21433 0.80055 0.29058 0.0
O84 O 0.22899 0.90802 0.31641 0.0
O85 O 0.25762 0.90011 0.40341 0.0
O86 O 0.20191 0.8576 0.17331 0.0
O87 O 0.22563 0.83614 0.19781 0.0
C88 C 0.20917 0.83937 0.13843 0.0
C89 C 0.21661 0.8159 0.47059 0.0
O90 O 0.26383 0.826 0.27692 0.0
O91 O 0.27054 0.87263 0.29182 0.0
O92 O 0.2238 0.76395 0.27947 0.0
O93 O 0.18574 0.75946 0.20282 0.0
O94 O 0.21209 0.79068 0.4416 0.0
O95 O 0.21909 0.83011 0.40149 0.0
O96 O 0.17748 0.83626 0.36135 0.0
O97 O 0.16821 0.79403 0.28068 0.0
C98 C 0.28101 0.85468 0.28131 0.0
C99 C 0.15887 0.80926 0.32776 0.0
Dy100 Dy 0.21001 0.28102 0.27199 0.0
C101 C 0.33234 0.36713 0.25147 0.0
C102 C 0.15234 0.24955 0.32172 0.0
Dy103 Dy 0.27291 0.32873 0.27019 0.0
O104 O 0.16637 0.23868 0.27896 0.0
O105 O 0.16973 0.27732 0.33663 0.0
O106 O 0.21021 0.26441 0.12671 0.0
O107 O 0.23656 0.30823 0.16511 0.0
C108 C 0.23085 0.28949 0.10148 0.0
C109 C 0.25042 0.32262 0.43756 0.0
O110 O 0.25072 0.35213 0.21487 0.0
O111 O 0.20515 0.32091 0.27106 0.0
O112 O 0.31722 0.367 0.31974 0.0
O113 O 0.3149 0.34628 0.19173 0.0
O114 O 0.26774 0.34708 0.40215 0.0
O115 O 0.24593 0.30204 0.38158 0.0
O116 O 0.2343 0.25944 0.32944 0.0
O117 O 0.27862 0.28973 0.26656 0.0
C118 C 0.22367 0.3459 0.23619 0.0
C119 C 0.26128 0.2656 0.30691 0.0
Dy120 Dy 0.42938 0.17272 0.63496 0.0
C121 C 0.35551 0.15296 0.92298 0.0
C122 C 0.45824 0.1817 0.47794 0.0
Dy123 Dy 0.38498 0.15731 0.76955 0.0
O124 O 0.44001 0.15654 0.50827 0.0
O125 O 0.46227 0.20173 0.5386 0.0
O126 O 0.46511 0.20371 0.73707 0.0
O127 O 0.42278 0.19921 0.73706 0.0
C128 C 0.44885 0.21269 0.77553 0.0
C129 C 0.36588 0.1187 0.62606 0.0
O130 O 0.37195 0.18386 0.6909 0.0
O131 O 0.39638 0.18329 0.56373 0.0
O132 O 0.3694 0.17597 0.87724 0.0
O133 O 0.35694 0.13183 0.8816 0.0
O134 O 0.3485 0.12533 0.66901 0.0
O135 O 0.39159 0.13135 0.66603 0.0
O136 O 0.44393 0.14756 0.71815 0.0
O137 O 0.41894 0.14929 0.84319 0.0
C138 C 0.37767 0.1893 0.60514 0.0
C139 C 0.43828 0.14357 0.80492 0.0
Dy140 Dy 0.92283 0.15632 0.78161 0.0
C141 C 0.89631 0.20718 0.49006 0.0
C142 C 0.94796 0.15623 0.94765 0.0
Dy143 Dy 0.90184 0.18067 0.63864 0.0
O144 O 0.92356 0.13482 0.90835 0.0
O145 O 0.96006 0.17639 0.89017 0.0
O146 O 0.90631 0.11088 0.73311 0.0
O147 O 0.89661 0.13767 0.65084 0.0
C148 C 0.89352 0.11262 0.65776 0.0
C149 C 0.92494 0.21497 0.79215 0.0
O150 O 0.85818 0.15456 0.6993 0.0
O151 O 0.88166 0.15441 0.83608 0.0
O152 O 0.91282 0.22009 0.56379 0.0
O153 O 0.88083 0.17935 0.50105 0.0
O154 O 0.90056 0.21012 0.74812 0.0
O155 O 0.93503 0.2006 0.7525 0.0
O156 O 0.96073 0.16786 0.69477 0.0
O157 O 0.94317 0.18487 0.57811 0.0
C158 C 0.85758 0.15022 0.78736 0.0
C159 C 0.96313 0.17883 0.61422 0.0
Dy160 Dy 0.89683 0.64595 0.60713 0.0
C161 C 0.95372 0.71264 0.92845 0.0
C162 C 0.86666 0.62412 0.442 0.0
Dy163 Dy 0.92693 0.68446 0.76446 0.0
O164 O 0.88967 0.62236 0.47177 0.0
O165 O 0.85969 0.63654 0.50562 0.0
O166 O 0.89249 0.60677 0.67274 0.0
O167 O 0.93006 0.64782 0.70872 0.0
C168 C 0.91618 0.6214 0.72756 0.0
C169 C 0.90714 0.70836 0.64092 0.0
O170 O 0.96685 0.70041 0.68097 0.0
O171 O 0.93855 0.67901 0.54653 0.0
O172 O 0.93413 0.71578 0.88039 0.0
O173 O 0.95896 0.69435 0.88442 0.0
O174 O 0.93274 0.72206 0.68703 0.0
O175 O 0.89331 0.68245 0.66489 0.0
O176 O 0.85764 0.63089 0.68615 0.0
O177 O 0.88246 0.65236 0.8245 0.0
C178 C 0.96453 0.69666 0.59107 0.0
C179 C 0.85735 0.6345 0.77466 0.0
H180 H 0.07135 0.51911 0.73869 0.0
H181 H 0.05676 0.43342 0.78928 0.0
H182 H 0.04972 0.42091 0.62286 0.0
H183 H 0.015 0.49411 0.54549 0.0
H184 H 0.03631 0.52628 0.48394 0.0
H185 H 0.03998 0.5283 0.60696 0.0
H186 H 0.09716 0.55026 0.60126 0.0
H187 H 0.09366 0.54804 0.47826 0.0
H188 H 0.11135 0.53088 0.53712 0.0
H189 H 0.04511 0.41788 0.4508 0.0
H190 H 0.04035 0.4236 0.28503 0.0
H191 H 0.05721 0.51091 0.34308 0.0
C192 C 0.0665 0.49771 0.71431 0.0
C193 C 0.06458 0.47717 0.7765 0.0
C194 C 0.05815 0.44934 0.74255 0.0
C195 C 0.05423 0.44211 0.64819 0.0
C196 C 0.05648 0.46284 0.58829 0.0
C197 C 0.06206 0.48995 0.61987 0.0
C198 C 0.06254 0.50786 0.54056 0.0
C199 C 0.03694 0.51453 0.54448 0.0
C200 C 0.093 0.53592 0.53925 0.0
C201 C 0.0573 0.48696 0.45957 0.0
C202 C 0.05369 0.46104 0.48888 0.0
C203 C 0.04797 0.4381 0.42714 0.0
C204 C 0.04542 0.44154 0.33321 0.0
C205 C 0.0489 0.46777 0.30165 0.0
C206 C 0.05505 0.49082 0.36564 0.0
H207 H 0.60122 0.47693 0.81154 0.0
H208 H 0.60048 0.55813 0.81051 0.0
H209 H 0.60233 0.55785 0.64492 0.0
H210 H 0.6512 0.49253 0.62754 0.0
H211 H 0.63189 0.45636 0.57358 0.0
H212 H 0.63013 0.46165 0.69462 0.0
H213 H 0.57248 0.43378 0.67597 0.0
H214 H 0.57391 0.42833 0.55493 0.0
H215 H 0.55385 0.44545 0.59617 0.0
H216 H 0.60627 0.55141 0.47987 0.0
H217 H 0.60822 0.53621 0.32097 0.0
H218 H 0.60421 0.45802 0.41494 0.0
C219 C 0.60105 0.49438 0.77623 0.0
C220 C 0.60068 0.51762 0.82612 0.0
C221 C 0.60079 0.54005 0.77588 0.0
C222 C 0.60189 0.54022 0.6808 0.0
C223 C 0.60264 0.51761 0.6339 0.0
C224 C 0.60187 0.49482 0.67898 0.0
C225 C 0.60261 0.47329 0.6089 0.0
C226 C 0.63063 0.47081 0.62728 0.0
C227 C 0.574 0.44344 0.60902 0.0
C228 C 0.60399 0.48776 0.51901 0.0
C229 C 0.60421 0.51345 0.53597 0.0
C230 C 0.60592 0.5312 0.46556 0.0
C231 C 0.60711 0.52243 0.37516 0.0
C232 C 0.60634 0.49594 0.35457 0.0
C233 C 0.60481 0.47841 0.42809 0.0
H234 H 0.56485 0.98477 0.79198 0.0
H235 H 0.58602 0.07098 0.89199 0.0
H236 H 0.59208 0.08682 0.73534 0.0
H237 H 0.61916 0.01095 0.61388 0.0
H238 H 0.59581 0.9814 0.5318 0.0
H239 H 0.5925 0.97592 0.65235 0.0
H240 H 0.536 0.95822 0.63243 0.0
H241 H 0.53915 0.96381 0.51192 0.0
H242 H 0.52396 0.98124 0.58103 0.0
H243 H 0.59481 0.09398 0.57068 0.0
H244 H 0.59784 0.09345 0.40448 0.0
H245 H 0.5771 0.00367 0.39944 0.0
C246 C 0.57079 0.00696 0.78062 0.0
C247 C 0.57471 0.02652 0.85535 0.0
C248 C 0.58276 0.05544 0.83705 0.0
C249 C 0.58622 0.06472 0.74775 0.0
C250 C 0.58199 0.04506 0.67597 0.0
C251 C 0.57481 0.01688 0.69073 0.0
C252 C 0.57258 1.00082 0.59976 0.0
C253 C 0.59643 0.99173 0.59943 0.0
C254 C 0.54104 0.97445 0.58015 0.0
C255 C 0.57907 0.02428 0.53209 0.0
C256 C 0.58436 0.04952 0.57868 0.0
C257 C 0.59087 0.07439 0.5335 0.0
C258 C 0.59251 0.07382 0.43852 0.0
C259 C 0.58782 0.04863 0.38786 0.0
C260 C 0.58068 0.02328 0.43563 0.0
H261 H 0.79501 0.89909 0.65498 0.0
H262 H 0.71829 0.81303 0.59647 0.0
H263 H 0.71701 0.80379 0.76084 0.0
H264 H 0.83075 0.87952 0.84201 0.0
H265 H 0.84298 0.91294 0.90898 0.0
H266 H 0.83912 0.91221 0.7862 0.0
H267 H 0.80364 0.93296 0.79924 0.0
H268 H 0.80713 0.93344 0.92199 0.0
H269 H 0.77069 0.9142 0.86263 0.0
H270 H 0.72056 0.80556 0.93256 0.0
H271 H 0.73287 0.81551 0.09885 0.0
H272 H 0.80938 0.89934 0.05087 0.0
C273 C 0.77861 0.878 0.67681 0.0
C274 C 0.75713 0.85639 0.61262 0.0
C275 C 0.73529 0.82953 0.64413 0.0
C276 C 0.73427 0.82422 0.73754 0.0
C277 C 0.75523 0.84604 0.79947 0.0
C278 C 0.77735 0.87226 0.77055 0.0
C279 C 0.79669 0.89216 0.85236 0.0
C280 C 0.82933 0.89964 0.84705 0.0
C281 C 0.7944 0.91983 0.85943 0.0
C282 C 0.78209 0.87297 0.93134 0.0
C283 C 0.75787 0.84667 0.899 0.0
C284 C 0.73973 0.82592 0.95845 0.0
C285 C 0.74679 0.83186 0.05308 0.0
C286 C 0.77216 0.85812 0.08824 0.0
C287 C 0.78999 0.87896 0.02612 0.0
H288 H 0.18839 0.78163 0.61127 0.0
H289 H 0.24753 0.87113 0.54984 0.0
H290 H 0.2525 0.88626 0.71379 0.0
H291 H 0.15044 0.7997 0.78745 0.0
H292 H 0.14552 0.77038 0.85637 0.0
H293 H 0.14653 0.76696 0.73417 0.0
H294 H 0.18957 0.75588 0.75639 0.0
H295 H 0.18898 0.75963 0.87856 0.0
H296 H 0.2232 0.78135 0.82331 0.0
H297 H 0.25313 0.89124 0.88504 0.0
H298 H 0.24572 0.88686 0.05031 0.0
H299 H 0.1844 0.79429 1.00349 0.0
C300 C 0.20227 0.80443 0.63251 0.0
C301 C 0.21771 0.82529 0.56782 0.0
C302 C 0.23536 0.85491 0.5979 0.0
C303 C 0.23843 0.86363 0.69107 0.0
C304 C 0.22323 0.84251 0.7533 0.0
C305 C 0.20502 0.81358 0.72516 0.0
C306 C 0.19028 0.79545 0.80579 0.0
C307 C 0.15617 0.78234 0.79534 0.0
C308 C 0.19851 0.77167 0.81663 0.0
C309 C 0.2041 0.81848 0.88443 0.0
C310 C 0.22292 0.84549 0.85212 0.0
C311 C 0.23832 0.87026 0.91088 0.0
C312 C 0.23405 0.86754 1.00468 0.0
C313 C 0.21462 0.84029 0.03962 0.0
C314 C 0.19959 0.81535 0.97867 0.0
H315 H 0.22104 0.27395 0.54478 0.0
H316 H 0.27665 0.3681 0.56177 0.0
H317 H 0.2784 0.36841 0.72854 0.0
H318 H 0.17766 0.27145 0.74028 0.0
H319 H 0.17475 0.23871 0.78185 0.0
H320 H 0.17793 0.24492 0.66171 0.0
H321 H 0.22414 0.23838 0.66376 0.0
H322 H 0.22118 0.23227 0.784 0.0
H323 H 0.25561 0.26054 0.74334 0.0
H324 H 0.27656 0.36002 0.89117 0.0
H325 H 0.2671 0.34341 0.04652 0.0
H326 H 0.20976 0.2545 0.93711 0.0
C327 C 0.23343 0.29456 0.58388 0.0
C328 C 0.24888 0.32105 0.53911 0.0
C329 C 0.26469 0.3475 0.59325 0.0
C330 C 0.26593 0.34797 0.68865 0.0
C331 C 0.25089 0.32181 0.73062 0.0
C332 C 0.23454 0.29554 0.68082 0.0
C333 C 0.21971 0.27091 0.74571 0.0
C334 C 0.18548 0.25559 0.73154 0.0
C335 C 0.23083 0.24924 0.73345 0.0
C336 C 0.23066 0.28763 0.83894 0.0
C337 C 0.24881 0.31694 0.8274 0.0
C338 C 0.2622 0.33715 0.90128 0.0
C339 C 0.25667 0.32741 0.9897 0.0
C340 C 0.23755 0.29766 1.00497 0.0
C341 C 0.2245 0.27739 0.92805 0.0
H342 H 0.43984 0.14092 0.33851 0.0
H343 H 0.46998 0.23195 0.40087 0.0
H344 H 0.43688 0.23084 0.27407 0.0
H345 H 0.4287 0.14269 0.08298 0.0
H346 H 0.397 0.10633 0.07963 0.0
H347 H 0.42764 0.11728 0.16311 0.0
H348 H 0.38905 0.1007 0.2884 0.0
H349 H 0.35878 0.09226 0.20586 0.0
H350 H 0.36682 0.11777 0.30123 0.0
H351 H 0.39381 0.21734 0.1631 0.0
H352 H 0.35949 0.19833 0.0253 0.0
H353 H 0.3557 0.11547 0.04249 0.0
C354 C 0.44085 0.16106 0.32197 0.0
C355 C 0.4565 0.18618 0.38084 0.0
C356 C 0.45767 0.21228 0.35706 0.0
C357 C 0.43839 0.21169 0.28669 0.0
C358 C 0.41938 0.18517 0.23967 0.0
C359 C 0.42162 0.16074 0.25265 0.0
C360 C 0.39851 0.1349 0.19337 0.0
C361 C 0.41386 0.12472 0.12572 0.0
C362 C 0.37705 0.10996 0.25072 0.0
C363 C 0.38266 0.14859 0.14602 0.0
C364 C 0.39464 0.17742 0.17521 0.0
C365 C 0.38457 0.19494 0.13844 0.0
C366 C 0.36448 0.18372 0.06169 0.0
C367 C 0.35601 0.15588 0.02221 0.0
C368 C 0.36212 0.13695 0.07109 0.0
H369 H 0.86629 0.18729 0.32607 0.0
H370 H 0.95303 0.24809 0.45799 0.0
H371 H 0.9776 0.24253 0.32599 0.0
H372 H 0.87729 0.13854 0.25514 0.0
H373 H 0.85974 0.12943 0.14107 0.0
H374 H 0.84766 0.14582 0.22474 0.0
H375 H 0.85822 0.18801 0.12206 0.0
H376 H 0.86944 0.1712 0.03576 0.0
H377 H 0.89432 0.20844 0.07544 0.0
H378 H 0.9926 0.22095 0.19823 0.0
H379 H 0.99582 0.19271 0.06544 0.0
H380 H 0.89895 0.14325 0.03345 0.0
C381 C 0.89026 0.20114 0.32362 0.0
C382 C 0.90773 0.21765 0.40159 0.0
C383 C 0.93918 0.2353 0.39812 0.0
C384 C 0.95347 0.23208 0.32375 0.0
C385 C 0.93574 0.2124 0.25252 0.0
C386 C 0.90474 0.19837 0.24954 0.0
C387 C 0.89087 0.17601 0.17082 0.0
C388 C 0.86757 0.14569 0.19993 0.0
C389 C 0.87741 0.1866 0.09669 0.0
C390 C 0.91841 0.1766 0.13948 0.0
C391 C 0.94426 0.19861 0.18367 0.0
C392 C 0.97249 0.20378 0.1624 0.0
C393 C 0.97416 0.18725 0.08896 0.0
C394 C 0.94768 0.16527 0.04178 0.0
C395 C 0.91962 0.15912 0.07049 0.0
H396 H 0.88531 0.60665 0.29678 0.0
H397 H 0.84277 0.65565 0.37522 0.0
H398 H 0.8694 0.6908 0.26059 0.0
H399 H 0.9536 0.65977 0.27691 0.0
H400 H 0.96209 0.6467 0.1746 0.0
H401 H 0.93447 0.62136 0.24597 0.0
H402 H 0.89409 0.60087 0.10977 0.0
H403 H 0.92273 0.62493 0.03861 0.0
H404 H 0.8885 0.6258 0.04309 0.0
H405 H 0.90836 0.72562 0.16301 0.0
H406 H 0.94177 0.7474 0.03769 0.0
H407 H 0.96244 0.67801 0.03887 0.0
C408 C 0.88009 0.62365 0.28548 0.0
C409 C 0.86327 0.62935 0.34671 0.0
C410 C 0.85624 0.65135 0.32966 0.0
C411 C 0.87178 0.67185 0.26621 0.0
C412 C 0.89257 0.66861 0.2181 0.0
C413 C 0.89544 0.64423 0.22276 0.0
C414 C 0.91953 0.64611 0.16439 0.0
C415 C 0.94381 0.64329 0.2189 0.0
C416 C 0.90537 0.62309 0.08414 0.0
C417 C 0.9315 0.67643 0.13296 0.0
C418 C 0.91543 0.68892 0.16369 0.0
C419 C 0.92089 0.71595 0.13741 0.0
C420 C 0.94058 0.72865 0.06841 0.0
C421 C 0.95375 0.71378 0.02753 0.0
C422 C 0.95241 0.68969 0.06866 0.0
H423 H 0.20705 0.38153 0.3236 0.0
H424 H 0.21125 0.34642 0.05785 0.0
H425 H 0.18675 0.37089 0.98471 0.0
H426 H 0.13649 0.37624 0.28603 0.0
H427 H 0.14675 0.41041 0.34532 0.0
H428 H 0.16543 0.39091 0.37722 0.0
H429 H 0.21671 0.43618 0.35123 0.0
H430 H 0.19816 0.45587 0.31952 0.0
H431 H 0.22267 0.45252 0.2426 0.0
H432 H 0.15958 0.39635 0.94165 0.0
H433 H 0.13305 0.42376 0.92889 0.0
H434 H 0.14811 0.44488 0.22124 0.0
C435 C 0.203 0.37938 0.25004 0.0
C436 C 0.21098 0.36238 0.19564 0.0
C437 C 0.20542 0.35971 0.09983 0.0
C438 C 0.19151 0.37342 0.05794 0.0
C439 C 0.18381 0.39009 0.113 0.0
C440 C 0.18964 0.3935 0.20675 0.0
C441 C 0.17913 0.41285 0.24933 0.0
C442 C 0.15554 0.39662 0.31855 0.0
C443 C 0.20575 0.44102 0.29328 0.0
C444 C 0.16561 0.41889 0.1653 0.0
C445 C 0.16873 0.40562 0.08749 0.0
C446 C 0.15733 0.40719 1.00181 0.0
C447 C 0.14232 0.42281 0.9953 0.0
C448 C 0.13888 0.43664 0.07392 0.0
C449 C 0.1508 0.43478 0.15996 0.0
H450 H 0.67923 0.63831 0.16037 0.0
H451 H 0.59499 0.60709 0.28639 0.0
H452 H 0.60966 0.65782 0.33444 0.0
H453 H 0.7266 0.69592 0.31856 0.0
H454 H 0.74789 0.72051 0.23348 0.0
H455 H 0.73043 0.6819 0.20962 0.0
H456 H 0.70269 0.6857 0.06443 0.0
H457 H 0.72002 0.72438 0.08801 0.0
H458 H 0.67989 0.70226 0.07414 0.0
H459 H 0.63414 0.71248 0.36809 0.0
H460 H 0.66689 0.76613 0.38762 0.0
H461 H 0.73443 0.76048 0.23817 0.0
C462 C 0.66404 0.6422 0.1989 0.0
C463 C 0.63624 0.61902 0.2212 0.0
C464 C 0.61649 0.62476 0.26937 0.0
C465 C 0.6246 0.65342 0.2966 0.0
C466 C 0.65221 0.67594 0.27308 0.0
C467 C 0.67149 0.6706 0.2246 0.0
C468 C 0.69937 0.69851 0.20501 0.0
C469 C 0.72774 0.69924 0.24408 0.0
C470 C 0.70056 0.70297 0.10179 0.0
C471 C 0.69377 0.72032 0.25529 0.0
C472 C 0.66612 0.70705 0.29213 0.0
C473 C 0.65583 0.72307 0.33959 0.0
C474 C 0.67444 0.75342 0.35021 0.0
C475 C 0.7031 0.76708 0.31519 0.0
C476 C 0.71272 0.75034 0.26677 0.0
H477 H 0.44119 0.95424 0.08436 0.0
H478 H 0.47923 0.9346 0.32123 0.0
H479 H 0.42855 0.90313 0.37299 0.0
H480 H 0.38341 0.95835 0.19915 0.0
H481 H 0.35589 0.94174 0.10443 0.0
H482 H 0.39505 0.96186 0.08379 0.0
H483 H 0.38986 0.91688 0.99293 0.0
H484 H 0.35068 0.89662 0.01373 0.0
H485 H 0.37481 0.88271 0.04638 0.0
H486 H 0.37393 0.87264 0.39685 0.0
H487 H 0.31875 0.84837 0.39823 0.0
H488 H 0.31597 0.89023 0.15259 0.0
C489 C 0.43875 0.94309 0.14669 0.0
C490 C 0.46404 0.94649 0.19836 0.0
C491 C 0.4601 0.932 0.28026 0.0
C492 C 0.43142 0.9141 0.31018 0.0
C493 C 0.40692 0.91107 0.25771 0.0
C494 C 0.41023 0.92532 0.17809 0.0
C495 C 0.38014 0.91892 0.13608 0.0
C496 C 0.37854 0.94689 0.1306 0.0
C497 C 0.37349 0.90283 0.04168 0.0
C498 C 0.35951 0.89916 0.20516 0.0
C499 C 0.37541 0.89451 0.27384 0.0
C500 C 0.36124 0.8762 0.34371 0.0
C501 C 0.32999 0.86242 0.34377 0.0
C502 C 0.31344 0.86751 0.27558 0.0
C503 C 0.32833 0.88614 0.20556 0.0
H504 H 0.5632 0.12073 0.06631 0.0
H505 H 0.49476 0.02946 0.06104 0.0
H506 H 0.45841 0.04033 0.98887 0.0
H507 H 0.50993 0.14676 0.11737 0.0
H508 H 0.52843 0.17793 0.0496 0.0
H509 H 0.54962 0.16372 0.10537 0.0
H510 H 0.5689 0.15845 0.94975 0.0
H511 H 0.5477 0.17254 0.89378 0.0
H512 H 0.54236 0.13767 0.8556 0.0
H513 H 0.42979 0.05925 0.91134 0.0
H514 H 0.4096 0.08681 0.8336 0.0
H515 H 0.49451 0.16643 0.88894 0.0
C516 C 0.54045 0.10324 0.051 0.0
C517 C 0.53175 0.07431 0.07056 0.0
C518 C 0.50184 0.05188 0.04878 0.0
C519 C 0.48096 0.05776 1.0072 0.0
C520 C 0.49002 0.08632 0.9891 0.0
C521 C 0.51883 0.10887 0.0111 0.0
C522 C 0.52208 0.13758 0.98398 0.0
C523 C 0.52787 0.15769 0.06915 0.0
C524 C 0.54672 0.15241 0.91673 0.0
C525 C 0.49119 0.12717 0.93877 0.0
C526 C 0.47302 0.09753 0.94427 0.0
C527 C 0.44361 0.08253 0.9074 0.0
C528 C 0.43232 0.09826 0.86366 0.0
C529 C 0.4505 0.12848 0.85663 0.0
C530 C 0.48028 0.14324 0.89447 0.0
H531 H 0.90822 0.2472 0.89727 0.0
H532 H 0.98548 0.24726 0.79315 0.0
H533 H 0.01706 0.29892 0.84372 0.0
H534 H 0.92289 0.31442 0.83688 0.0
H535 H 0.91242 0.32543 0.93984 0.0
H536 H 0.89596 0.28741 0.90663 0.0
H537 H 0.9138 0.27799 0.06239 0.0
H538 H 0.92968 0.31589 0.0974 0.0
H539 H 0.95268 0.29938 0.10111 0.0
H540 H 0.03826 0.3509 0.88195 0.0
H541 H 0.05147 0.40037 0.93318 0.0
H542 H 0.96199 0.36842 0.02339 0.0
C543 C 0.93198 0.25799 0.88777 0.0
C544 C 0.94448 0.24336 0.84126 0.0
C545 C 0.97554 0.258 0.82934 0.0
C546 C 0.99361 0.2874 0.85727 0.0
C547 C 0.9804 0.30158 0.89912 0.0
C548 C 0.95057 0.2873 0.91731 0.0
C549 C 0.9423 0.30806 0.96333 0.0
C550 C 0.91689 0.30886 0.90832 0.0
C551 C 0.93413 0.29985 0.06191 0.0
C552 C 0.97162 0.33664 0.96181 0.0
C553 C 0.99321 0.33205 0.92502 0.0
C554 C 0.02179 0.35471 0.9127 0.0
C555 C 0.02898 0.38275 0.94157 0.0
C556 C 1.00781 0.38817 0.98263 0.0
C557 C 0.97851 0.36487 0.99177 0.0
H558 H 0.83911 0.62808 0.95784 0.0
H559 H 0.80565 0.60188 0.67325 0.0
H560 H 0.75585 0.57118 0.7199 0.0
H561 H 0.78923 0.55782 0.04755 0.0
H562 H 0.7817 0.57227 0.14926 0.0
H563 H 0.8167 0.59321 0.09706 0.0
H564 H 0.80713 0.63599 0.08543 0.0
H565 H 0.77209 0.61552 0.13773 0.0
H566 H 0.77301 0.63024 0.02812 0.0
H567 H 0.71046 0.5408 0.78754 0.0
H568 H 0.66727 0.51594 0.88001 0.0
H569 H 0.72331 0.56175 0.12553 0.0
C570 C 0.82125 0.61593 0.90577 0.0
C571 C 0.82713 0.61746 0.8116 0.0
C572 C 0.80272 0.60124 0.74594 0.0
C573 C 0.77386 0.58344 0.77142 0.0
C574 C 0.76888 0.58187 0.8633 0.0
C575 C 0.79139 0.59784 0.93015 0.0
C576 C 0.77835 0.59196 0.02392 0.0
C577 C 0.79232 0.57798 0.08296 0.0
C578 C 0.78289 0.6201 0.07161 0.0
C579 C 0.74523 0.57044 0.99752 0.0
C580 C 0.74094 0.56477 0.90412 0.0
C581 C 0.7133 0.54505 0.86089 0.0
C582 C 0.68892 0.53081 0.91417 0.0
C583 C 0.692 0.53669 1.00973 0.0
C584 C 0.72052 0.55687 0.05245 0.0
H585 H 0.9145 0.56992 0.68778 0.0
H586 H 0.94868 0.64203 0.88992 0.0
H587 H 0.97055 0.6189 0.98461 0.0
H588 H 0.89726 0.51247 0.84029 0.0
H589 H 0.91026 0.49373 0.76781 0.0
H590 H 0.89583 0.51509 0.71819 0.0
H591 H 0.94514 0.54502 0.63789 0.0
H592 H 0.95959 0.52361 0.68682 0.0
H593 H 0.98025 0.56262 0.70511 0.0
H594 H 0.98696 0.58689 0.05944 0.0
H595 H 1.00295 0.55196 0.10045 0.0
H596 H 0.96267 0.50273 0.84272 0.0
C597 C 0.92646 0.58069 0.75229 0.0
C598 C 0.92969 0.60764 0.7825 0.0
C599 C 0.94602 0.62145 0.86595 0.0
C600 C 0.95835 0.60836 0.92023 0.0
C601 C 0.95471 0.58172 0.88887 0.0
C602 C 0.93968 0.5683 0.80598 0.0
C603 C 0.94076 0.54074 0.78533 0.0
C604 C 0.90914 0.51393 0.77745 0.0
C605 C 0.95743 0.54316 0.69865 0.0
C606 C 0.95845 0.54059 0.86995 0.0
C607 C 0.96581 0.56419 0.92942 0.0
C608 C 0.98148 0.56845 0.01315 0.0
C609 C 0.9903 0.54838 0.03607 0.0
C610 C 0.98397 0.52463 0.97485 0.0
C611 C 0.96775 0.52068 0.89081 0.0
H612 H 0.5602 0.36481 0.04767 0.0
H613 H 0.54891 0.4051 0.80866 0.0
H614 H 0.51471 0.35684 0.73387 0.0
H615 H 0.55702 0.30183 0.92798 0.0
H616 H 0.53553 0.277 0.01225 0.0
H617 H 0.5607 0.31478 0.04544 0.0
H618 H 0.51691 0.31782 0.11375 0.0
H619 H 0.49148 0.28018 0.07903 0.0
H620 H 0.4837 0.30779 0.0422 0.0
H621 H 0.47901 0.30557 0.6897 0.0
H622 H 0.44836 0.25222 0.66793 0.0
H623 H 0.48289 0.24338 0.93159 0.0
C624 C 0.55106 0.3633 0.97874 0.0
C625 C 0.55732 0.38854 0.93312 0.0
C626 C 0.54446 0.38593 0.84411 0.0
C627 C 0.52489 0.35866 0.80138 0.0
C628 C 0.51825 0.33417 0.84894 0.0
C629 C 0.53115 0.33603 0.93503 0.0
C630 C 0.51927 0.30601 0.97115 0.0
C631 C 0.54465 0.29952 0.99028 0.0
C632 C 0.50182 0.30277 0.05661 0.0
C633 C 0.49839 0.28715 0.89084 0.0
C634 C 0.49772 0.30405 0.82225 0.0
C635 C 0.47943 0.29203 0.74252 0.0
C636 C 0.46192 0.2618 0.73119 0.0
C637 C 0.46319 0.24397 0.79856 0.0
C638 C 0.48147 0.25672 0.8797 0.0
H639 H 0.80152 0.10212 0.78387 0.0
H640 H 0.85552 0.19068 0.8969 0.0
H641 H 0.81258 0.18578 0.97958 0.0
H642 H 0.73314 0.10277 0.74802 0.0
H643 H 0.70962 0.06602 0.78017 0.0
H644 H 0.74483 0.07634 0.73232 0.0
H645 H 0.76104 0.05849 0.87389 0.0
H646 H 0.72587 0.04813 0.92226 0.0
H647 H 0.76047 0.07271 0.98637 0.0
H648 H 0.7633 0.17098 0.04971 0.0
H649 H 0.71129 0.14763 0.09874 0.0
H650 H 0.68959 0.06924 0.93703 0.0
C651 C 0.80415 0.12034 0.8263 0.0
C652 C 0.8317 0.14663 0.8356 0.0
C653 C 0.83452 0.17024 0.89056 0.0
C654 C 0.8103 0.16766 0.93747 0.0
C655 C 0.78337 0.14134 0.92799 0.0
C656 C 0.78014 0.11809 0.87371 0.0
C657 C 0.74875 0.0923 0.87451 0.0
C658 C 0.73318 0.08388 0.77801 0.0
C659 C 0.74906 0.06638 0.91679 0.0
C660 C 0.73469 0.10487 0.93592 0.0
C661 C 0.75504 0.13307 0.96696 0.0
C662 C 0.74713 0.14893 0.02553 0.0
C663 C 0.7176 0.13559 0.05288 0.0
C664 C 0.69641 0.10685 0.02078 0.0
C665 C 0.70522 0.09142 0.96175 0.0
H666 H 0.59401 0.94743 0.22397 0.0
H667 H 0.65627 0.00995 0.04428 0.0
H668 H 0.68643 0.98631 0.05128 0.0
H669 H 0.64957 0.94512 0.36855 0.0
H670 H 0.62798 0.90679 0.38588 0.0
H671 H 0.6093 0.92688 0.36205 0.0
H672 H 0.57934 0.89098 0.22389 0.0
H673 H 0.59792 0.87073 0.24741 0.0
H674 H 0.59911 0.88457 0.13619 0.0
H675 H 0.71073 0.95806 0.07876 0.0
H676 H 0.73002 0.92703 0.13196 0.0
H677 H 0.65418 0.88266 0.29954 0.0
C678 C 0.6137 0.95572 0.18498 0.0
C679 C 0.62271 0.98041 0.13309 0.0
C680 C 0.64895 0.99108 0.0845 0.0
C681 C 0.6662 0.97775 0.08769 0.0
C682 C 0.65704 0.95376 0.13998 0.0
C683 C 0.63156 0.94276 0.18818 0.0
C684 C 0.6281 0.91763 0.24306 0.0
C685 C 0.62879 0.92453 0.34599 0.0
C686 C 0.59941 0.88929 0.21069 0.0
C687 C 0.65578 0.91659 0.21849 0.0
C688 C 0.67181 0.93751 0.15806 0.0
C689 C 0.69835 0.94144 0.12562 0.0
C690 C 0.70908 0.92364 0.15617 0.0
C691 C 0.69348 0.90234 0.21924 0.0
C692 C 0.66635 0.8986 0.2505 0.0
H693 H 0.14922 0.70561 0.13046 0.0
H694 H 0.23301 0.72025 0.25785 0.0
H695 H 0.2174 0.66878 0.22312 0.0
H696 H 0.10358 0.63635 0.21466 0.0
H697 H 0.07905 0.62111 0.11277 0.0
H698 H 0.09769 0.65963 0.14059 0.0
H699 H 0.12046 0.66954 0.98253 0.0
H700 H 0.1018 0.631 0.95419 0.0
H701 H 0.14175 0.65293 0.94834 0.0
H702 H 0.1921 0.61585 0.18238 0.0
H703 H 0.15834 0.56399 0.1402 0.0
H704 H 0.09005 0.58275 0.04068 0.0
C705 C 0.16443 0.69802 0.14952 0.0
C706 C 0.19243 0.71684 0.19601 0.0
C707 C 0.21157 0.70616 0.22153 0.0
C708 C 0.20291 0.677 0.20209 0.0
C709 C 0.17504 0.65887 0.15712 0.0
C710 C 0.15605 0.66888 0.131 0.0
C711 C 0.12672 0.64441 0.08748 0.0
C712 C 0.1002 0.64013 0.14217 0.0
C713 C 0.12244 0.6498 0.98717 0.0
C714 C 0.13203 0.61903 0.09482 0.0
C715 C 0.16017 0.62799 0.13442 0.0
C716 C 0.17009 0.60856 0.15066 0.0
C717 C 0.15067 0.57909 0.12636 0.0
C718 C 0.12151 0.56921 0.08673 0.0
C719 C 0.11224 0.58959 0.07019 0.0
H720 H 0.493 0.44053 0.03983 0.0
H721 H 0.5282 0.49501 0.2909 0.0
H722 H 0.47743 0.47153 0.34739 0.0
H723 H 0.42292 0.44278 0.02542 0.0
H724 H 0.40098 0.40598 0.97744 0.0
H725 H 0.43999 0.42743 0.95553 0.0
H726 H 0.44917 0.3875 0.01864 0.0
H727 H 0.41027 0.36606 0.04118 0.0
H728 H 0.43866 0.37579 0.13209 0.0
H729 H 0.42391 0.44095 0.37974 0.0
H730 H 0.36976 0.40697 0.3833 0.0
H731 H 0.36801 0.37289 0.10926 0.0
C732 C 0.48987 0.44764 0.10631 0.0
C733 C 0.5144 0.46967 0.16107 0.0
C734 C 0.5096 0.4785 0.24753 0.0
C735 C 0.48091 0.46516 0.28033 0.0
C736 C 0.45721 0.44342 0.22507 0.0
C737 C 0.46122 0.43497 0.13933 0.0
C738 C 0.4317 0.41147 0.09327 0.0
C739 C 0.42342 0.42258 1.00784 0.0
C740 C 0.43252 0.38355 0.06998 0.0
C741 C 0.41072 0.40719 0.16812 0.0
C742 C 0.42597 0.42605 0.24314 0.0
C743 C 0.41167 0.42627 0.32116 0.0
C744 C 0.3809 0.40687 0.32248 0.0
C745 C 0.36472 0.38742 0.24647 0.0
C746 C 0.37986 0.38757 0.16826 0.0
H747 H 0.88898 0.71929 0.4744 0.0
H748 H 0.89151 0.73466 0.76735 0.0
H749 H 0.8716 0.76753 0.74335 0.0
H750 H 0.91174 0.79126 0.41544 0.0
H751 H 0.88718 0.78129 0.31382 0.0
H752 H 0.89985 0.75728 0.3522 0.0
H753 H 0.84515 0.71536 0.35723 0.0
H754 H 0.83225 0.73902 0.31686 0.0
H755 H 0.81931 0.72095 0.4213 0.0
H756 H 0.85561 0.80108 0.69053 0.0
H757 H 0.83846 0.83048 0.61103 0.0
H758 H 0.84388 0.79345 0.34964 0.0
C759 C 0.88472 0.72923 0.53303 0.0
C760 C 0.89154 0.7245 0.62281 0.0
C761 C 0.88619 0.73802 0.69827 0.0
C762 C 0.87502 0.75676 0.68529 0.0
C763 C 0.86917 0.76165 0.59628 0.0
C764 C 0.87332 0.74803 0.52122 0.0
C765 C 0.86536 0.75764 0.43313 0.0
C766 C 0.89266 0.77277 0.37524 0.0
C767 C 0.83894 0.7317 0.37892 0.0
C768 C 0.85654 0.77901 0.47087 0.0
C769 C 0.85916 0.78096 0.56524 0.0
C770 C 0.85317 0.7996 0.61667 0.0
C771 C 0.8436 0.81635 0.57078 0.0
C772 C 0.83986 0.81428 0.47431 0.0
C773 C 0.84663 0.7955 0.42351 0.0
H774 H 0.30878 0.08328 0.55042 0.0
H775 H 0.39778 0.0944 0.5666 0.0
H776 H 0.3782 0.04649 0.48633 0.0
H777 H 0.26961 0.01196 0.59615 0.0
H778 H 0.23811 1.00089 0.5155 0.0
H779 H 0.25945 0.03805 0.55981 0.0
H780 H 0.26924 0.05557 0.39554 0.0
H781 H 0.2476 0.01839 0.35025 0.0
H782 H 0.28546 0.04106 0.31871 0.0
H783 H 0.34868 0.99528 0.43362 0.0
H784 H 0.31111 0.94414 0.39481 0.0
H785 H 0.24038 0.9651 0.40118 0.0
C786 C 0.3242 0.07589 0.53458 0.0
C787 C 0.35474 0.09239 0.56498 0.0
C788 C 0.37432 0.08209 0.54386 0.0
C789 C 0.36342 0.05493 0.49811 0.0
C790 C 0.33302 0.03864 0.47221 0.0
C791 C 0.3137 0.04887 0.48767 0.0
C792 C 0.2817 0.02601 0.45759 0.0
C793 C 0.26102 0.01881 0.53704 0.0
C794 C 0.27032 0.03584 0.37564 0.0
C795 C 0.28582 1.00065 0.42951 0.0
C796 C 0.31576 0.00876 0.43745 0.0
C797 C 0.32529 0.98882 0.42468 0.0
C798 C 0.30373 0.95978 0.40352 0.0
C799 C 0.27298 0.95086 0.3946 0.0
C800 C 0.26384 0.97159 0.40603 0.0
H801 H 1.00401 0.22882 0.53849 0.0
H802 H 0.98011 0.13954 0.57598 0.0
H803 H 0.02426 0.14708 0.49513 0.0
H804 H 0.03567 0.23636 0.31581 0.0
H805 H 0.06595 0.27285 0.34379 0.0
H806 H 0.03092 0.25977 0.39628 0.0
H807 H 0.05856 0.27252 0.55643 0.0
H808 H 0.09368 0.28566 0.50465 0.0
H809 H 0.08227 0.25784 0.58574 0.0
H810 H 0.07098 0.16426 0.4119 0.0
H811 H 0.12016 0.19133 0.34507 0.0
H812 H 0.11646 0.27067 0.37401 0.0
C813 C 1.00794 0.21083 0.52804 0.0
C814 C 0.98862 0.18346 0.56176 0.0
C815 C 0.99469 0.16056 0.54969 0.0
C816 C 0.0196 0.16463 0.50376 0.0
C817 C 0.0385 0.19192 0.47195 0.0
C818 C 0.03325 0.21478 0.48453 0.0
C819 C 0.0585 0.24253 0.45057 0.0
C820 C 0.04706 0.25352 0.37191 0.0
C821 C 0.07418 0.26601 0.52904 0.0
C822 C 0.07869 0.23165 0.41717 0.0
C823 C 0.06646 0.20229 0.42873 0.0
C824 C 0.08084 0.18727 0.40255 0.0
C825 C 0.10867 0.20275 0.36447 0.0
C826 C 0.122 0.23297 0.35463 0.0
C827 C 0.10672 0.24753 0.38096 0.0
H828 H 0.34718 0.1792 0.43505 0.0
H829 H 0.37937 0.23604 0.68186 0.0
H830 H 0.35165 0.2598 0.63148 0.0
H831 H 0.34917 0.23403 0.28196 0.0
H832 H 0.31524 0.20835 0.21673 0.0
H833 H 0.33885 0.19632 0.26928 0.0
H834 H 0.2939 0.158 0.35231 0.0
H835 H 0.27016 0.17015 0.30144 0.0
H836 H 0.27378 0.16947 0.42386 0.0
H837 H 0.31763 0.274 0.56741 0.0
H838 H 0.28425 0.285 0.47553 0.0
H839 H 0.27462 0.22228 0.26161 0.0
C840 C 0.34893 0.19719 0.47669 0.0
C841 C 0.3654 0.20594 0.56221 0.0
C842 C 0.3668 0.22908 0.61624 0.0
C843 C 0.35105 0.24262 0.58849 0.0
C844 C 0.33404 0.23288 0.50613 0.0
C845 C 0.33318 0.21119 0.44965 0.0
C846 C 0.31259 0.20517 0.36482 0.0
C847 C 0.33001 0.21136 0.27804 0.0
C848 C 0.28604 0.17383 0.36038 0.0
C849 C 0.30236 0.22703 0.38302 0.0
C850 C 0.31472 0.2422 0.46618 0.0
C851 C 0.30805 0.26262 0.5016 0.0
C852 C 0.28891 0.26853 0.44941 0.0
C853 C 0.27696 0.2544 0.36238 0.0
C854 C 0.28348 0.23318 0.32846 0.0
H855 H 0.80774 0.94395 0.53633 0.0
H856 H 0.84635 0.9612 0.27338 0.0
H857 H 0.86963 0.01438 0.31009 0.0
H858 H 0.78976 1.00042 0.5398 0.0
H859 H 0.79801 0.00884 0.66104 0.0
H860 H 0.78546 0.97256 0.61467 0.0
H861 H 0.83266 0.97415 0.6883 0.0
H862 H 0.84476 0.00998 0.73748 0.0
H863 H 0.86913 0.00393 0.66726 0.0
H864 H 0.88742 0.06621 0.37731 0.0
H865 H 0.90316 0.11103 0.47571 0.0
H866 H 0.85223 0.05826 0.69225 0.0
C867 C 0.82173 0.95904 0.4876 0.0
C868 C 0.8261 0.94889 0.40332 0.0
C869 C 0.84357 0.96891 0.33938 0.0
C870 C 0.85649 0.99901 0.35927 0.0
C871 C 0.85125 0.00843 0.44277 0.0
C872 C 0.83452 0.98893 0.50615 0.0
C873 C 0.83203 0.0042 0.5908 0.0
C874 C 0.79937 0.99601 0.60221 0.0
C875 C 0.84547 0.9977 0.67598 0.0
C876 C 0.85066 0.03549 0.56677 0.0
C877 C 0.86111 0.03766 0.48041 0.0
C878 C 0.8792 0.06469 0.44476 0.0
C879 C 0.88773 0.09001 0.50037 0.0
C880 C 0.8784 0.08784 0.59044 0.0
C881 C 0.85917 0.06034 0.62286 0.0
H882 H 0.01939 0.74565 0.64317 0.0
H883 H 0.96991 0.68255 0.41784 0.0
H884 H 0.01291 0.70723 0.32314 0.0
H885 H 0.05796 0.80808 0.50049 0.0
H886 H 0.09253 0.82449 0.57022 0.0
H887 H 0.05748 0.80264 0.62119 0.0
H888 H 0.07684 0.76987 0.68494 0.0
H889 H 0.11195 0.79172 0.63468 0.0
H890 H 0.09075 0.75308 0.60776 0.0
H891 H 0.06103 0.73622 0.25561 0.0
H892 H 0.11309 0.76815 0.21768 0.0
H893 H 0.1329 0.81447 0.48287 0.0
C894 C 0.0177 0.73713 0.57388 0.0
C895 C 0.99118 0.71217 0.53737 0.0
C896 C 0.98981 0.70174 0.4465 0.0
C897 C 0.01415 0.71562 0.39227 0.0
C898 C 0.03981 0.7402 0.4296 0.0
C899 C 0.04192 0.75101 0.51809 0.0
C900 C 0.07258 0.77766 0.5408 0.0
C901 C 0.06997 0.80483 0.55928 0.0
C902 C 0.08899 0.77277 0.62183 0.0
C903 C 0.08749 0.77939 0.45222 0.0
C904 C 0.06791 0.75765 0.38907 0.0
C905 C 0.07651 0.7536 0.30385 0.0
C906 C 0.10612 0.77188 0.28292 0.0
C907 C 0.12688 0.79404 0.3467 0.0
C908 C 0.11728 0.79821 0.43192 0.0
loop_
_geom_bond_atom_site_label_1
_geom_bond_atom_site_label_2
_geom_bond_distance
_geom_bond_site_symmetry_2
_ccdc_geom_bond_type
Dy0 O4 2.398 1_554 S
Dy0 O5 2.491 . S
Dy0 O6 2.403 1_554 S
Dy0 O7 2.664 1_554 S
Dy0 O11 2.326 1_554 S
Dy0 O15 2.310 . S
Dy0 O16 2.351 . S
C1 O12 1.185 1_556 S
C1 O13 1.355 . S
C2 O4 1.185 1_554 S
C2 O5 1.355 . S
Dy3 O7 2.310 1_654 S
Dy3 O10 2.351 1_554 S
Dy3 O12 2.398 . S
Dy3 O13 2.491 1_554 S
Dy3 O14 2.403 . S
Dy3 O15 2.664 1_655 S
Dy3 O17 2.326 1_655 S
O4 Dy0 2.398 1_556 S
O4 C2 1.185 1_556 S
O5 Dy0 2.491 . S
O5 C2 1.355 . S
O6 Dy0 2.403 1_556 S
O6 C8 1.254 . S
O7 Dy0 2.664 1_556 S
O7 Dy3 2.310 1_456 S
O7 C8 1.268 . S
C8 O6 1.254 . S
C8 O7 1.268 . S
C9 O14 1.254 1_455 S
C9 O15 1.268 . S
O10 Dy3 2.351 1_556 S
O10 C18 1.249 . S
O11 Dy0 2.326 1_556 S
O11 C18 1.267 1_455 S
O12 C1 1.185 1_554 S
O12 Dy3 2.398 . S
O13 C1 1.355 . S
O13 Dy3 2.491 1_556 S
O14 Dy3 2.403 . S
O14 C9 1.254 1_655 S
O15 Dy0 2.310 . S
O15 Dy3 2.664 1_455 S
O15 C9 1.268 . S
O16 Dy0 2.351 . S
O16 C19 1.249 . S
O17 Dy3 2.326 1_455 S
O17 C19 1.267 . S
C18 O10 1.249 . S
C18 O11 1.267 1_655 S
C19 O16 1.249 . S
C19 O17 1.267 . S
Dy20 O24 2.398 . S
Dy20 O25 2.491 . S
Dy20 O26 2.403 1_554 S
Dy20 O27 2.664 . S
Dy20 O31 2.326 . S
Dy20 O35 2.310 . S
Dy20 O36 2.351 . S
C21 O32 1.185 . S
C21 O33 1.355 1_554 S
C22 O24 1.185 . S
C22 O25 1.355 . S
Dy23 O27 2.310 . S
Dy23 O30 2.351 . S
Dy23 O32 2.398 . S
Dy23 O33 2.491 1_554 S
Dy23 O34 2.403 . S
Dy23 O35 2.664 . S
Dy23 O37 2.326 . S
O24 Dy20 2.398 . S
O24 C22 1.185 . S
O25 Dy20 2.491 . S
O25 C22 1.355 . S
O26 Dy20 2.403 1_556 S
O26 C28 1.254 . S
O27 Dy20 2.664 . S
O27 Dy23 2.310 . S
O27 C28 1.268 1_554 S
C28 O26 1.254 . S
C28 O27 1.268 1_556 S
C29 O34 1.254 . S
C29 O35 1.268 . S
O30 Dy23 2.351 . S
O30 C38 1.249 . S
O31 Dy20 2.326 . S
O31 C38 1.267 . S
O32 C21 1.185 . S
O32 Dy23 2.398 . S
O33 C21 1.355 1_556 S
O33 Dy23 2.491 1_556 S
O34 Dy23 2.403 . S
O34 C29 1.254 . S
O35 Dy20 2.310 . S
O35 Dy23 2.664 . S
O35 C29 1.268 . S
O36 Dy20 2.351 . S
O36 C39 1.249 . S
O37 Dy23 2.326 . S
O37 C39 1.267 . S
C38 O30 1.249 . S
C38 O31 1.267 . S
C39 O36 1.249 . S
C39 O37 1.267 . S
Dy40 O44 2.398 1_545 S
Dy40 O45 2.491 . S
Dy40 O46 2.403 . S
Dy40 O47 2.664 . S
Dy40 O51 2.326 . S
Dy40 O55 2.310 . S
Dy40 O56 2.351 . S
C41 O52 1.185 . S
C41 O53 1.355 . S
C42 O44 1.185 . S
C42 O45 1.355 1_565 S
Dy43 O47 2.310 . S
Dy43 O50 2.351 . S
Dy43 O52 2.398 . S
Dy43 O53 2.491 . S
Dy43 O54 2.403 . S
Dy43 O55 2.664 . S
Dy43 O57 2.326 . S
O44 Dy40 2.398 1_565 S
O44 C42 1.185 . S
O45 Dy40 2.491 . S
O45 C42 1.355 1_545 S
O46 Dy40 2.403 . S
O46 C48 1.254 . S
O47 Dy40 2.664 . S
O47 Dy43 2.310 . S
O47 C48 1.268 . S
C48 O46 1.254 . S
C48 O47 1.268 . S
C49 O54 1.254 . S
C49 O55 1.268 . S
O50 Dy43 2.351 . S
O50 C58 1.249 . S
O51 Dy40 2.326 . S
O51 C58 1.267 . S
O52 C41 1.185 . S
O52 Dy43 2.398 . S
O53 C41 1.355 . S
O53 Dy43 2.491 . S
O54 Dy43 2.403 . S
O54 C49 1.254 . S
O55 Dy40 2.310 . S
O55 Dy43 2.664 . S
O55 C49 1.268 . S
O56 Dy40 2.351 . S
O56 C59 1.249 . S
O57 Dy43 2.326 . S
O57 C59 1.267 . S
C58 O50 1.249 . S
C58 O51 1.267 . S
C59 O56 1.249 . S
C59 O57 1.267 . S
Dy60 O64 2.398 . S
Dy60 O65 2.491 . S
Dy60 O66 2.403 . S
Dy60 O67 2.664 . S
Dy60 O71 2.326 . S
Dy60 O75 2.310 . S
Dy60 O76 2.351 . S
C61 O72 1.185 . S
C61 O73 1.355 . S
C62 O64 1.185 . S
C62 O65 1.355 . S
Dy63 O67 2.310 . S
Dy63 O70 2.351 . S
Dy63 O72 2.398 . S
Dy63 O73 2.491 . S
Dy63 O74 2.403 . S
Dy63 O75 2.664 . S
Dy63 O77 2.326 . S
O64 Dy60 2.398 . S
O64 C62 1.185 . S
O65 Dy60 2.491 . S
O65 C62 1.355 . S
O66 Dy60 2.403 . S
O66 C68 1.254 . S
O67 Dy60 2.664 . S
O67 Dy63 2.310 . S
O67 C68 1.268 . S
C68 O66 1.254 . S
C68 O67 1.268 . S
C69 O74 1.254 . S
C69 O75 1.268 . S
O70 Dy63 2.351 . S
O70 C78 1.249 . S
O71 Dy60 2.326 . S
O71 C78 1.267 . S
O72 C61 1.185 . S
O72 Dy63 2.398 . S
O73 C61 1.355 . S
O73 Dy63 2.491 . S
O74 Dy63 2.403 . S
O74 C69 1.254 . S
O75 Dy60 2.310 . S
O75 Dy63 2.664 . S
O75 C69 1.268 . S
O76 Dy60 2.351 . S
O76 C79 1.249 . S
O77 Dy63 2.326 . S
O77 C79 1.267 . S
C78 O70 1.249 . S
C78 O71 1.267 . S
C79 O76 1.249 . S
C79 O77 1.267 . S
Dy80 O84 2.398 . S
Dy80 O85 2.491 . S
Dy80 O86 2.403 . S
Dy80 O87 2.664 . S
Dy80 O91 2.326 . S
Dy80 O95 2.310 . S
Dy80 O96 2.351 . S
C81 O92 1.185 . S
C81 O93 1.355 . S
C82 O84 1.185 . S
C82 O85 1.355 . S
Dy83 O87 2.310 . S
Dy83 O90 2.351 . S
Dy83 O92 2.398 . S
Dy83 O93 2.491 . S
Dy83 O94 2.403 . S
Dy83 O95 2.664 . S
Dy83 O97 2.326 . S
O84 Dy80 2.398 . S
O84 C82 1.185 . S
O85 Dy80 2.491 . S
O85 C82 1.355 . S
O86 Dy80 2.403 . S
O86 C88 1.254 . S
O87 Dy80 2.664 . S
O87 Dy83 2.310 . S
O87 C88 1.268 . S
C88 O86 1.254 . S
C88 O87 1.268 . S
C89 O94 1.254 . S
C89 O95 1.268 . S
O90 Dy83 2.351 . S
O90 C98 1.249 . S
O91 Dy80 2.326 . S
O91 C98 1.267 . S
O92 C81 1.185 . S
O92 Dy83 2.398 . S
O93 C81 1.355 . S
O93 Dy83 2.491 . S
O94 Dy83 2.403 . S
O94 C89 1.254 . S
O95 Dy80 2.310 . S
O95 Dy83 2.664 . S
O95 C89 1.268 . S
O96 Dy80 2.351 . S
O96 C99 1.249 . S
O97 Dy83 2.326 . S
O97 C99 1.267 . S
C98 O90 1.249 . S
C98 O91 1.267 . S
C99 O96 1.249 . S
C99 O97 1.267 . S
Dy100 O104 2.398 . S
Dy100 O105 2.491 . S
Dy100 O106 2.403 . S
Dy100 O107 2.664 . S
Dy100 O111 2.326 . S
Dy100 O115 2.310 . S
Dy100 O116 2.351 . S
C101 O112 1.185 . S
C101 O113 1.355 . S
C102 O104 1.185 . S
C102 O105 1.355 . S
Dy103 O107 2.310 . S
Dy103 O110 2.351 . S
Dy103 O112 2.398 . S
Dy103 O113 2.491 . S
Dy103 O114 2.403 . S
Dy103 O115 2.664 . S
Dy103 O117 2.326 . S
O104 Dy100 2.398 . S
O104 C102 1.185 . S
O105 Dy100 2.491 . S
O105 C102 1.355 . S
O106 Dy100 2.403 . S
O106 C108 1.254 . S
O107 Dy100 2.664 . S
O107 Dy103 2.310 . S
O107 C108 1.268 . S
C108 O106 1.254 . S
C108 O107 1.268 . S
C109 O114 1.254 . S
C109 O115 1.268 . S
O110 Dy103 2.351 . S
O110 C118 1.249 . S
O111 Dy100 2.326 . S
O111 C118 1.267 . S
O112 C101 1.185 . S
O112 Dy103 2.398 . S
O113 C101 1.355 . S
O113 Dy103 2.491 . S
O114 Dy103 2.403 . S
O114 C109 1.254 . S
O115 Dy100 2.310 . S
O115 Dy103 2.664 . S
O115 C109 1.268 . S
O116 Dy100 2.351 . S
O116 C119 1.249 . S
O117 Dy103 2.326 . S
O117 C119 1.267 . S
C118 O110 1.249 . S
C118 O111 1.267 . S
C119 O116 1.249 . S
C119 O117 1.267 . S
Dy120 O124 2.398 . S
Dy120 O125 2.491 . S
Dy120 O126 2.403 . S
Dy120 O127 2.664 . S
Dy120 O131 2.326 . S
Dy120 O135 2.310 . S
Dy120 O136 2.351 . S
C121 O132 1.185 . S
C121 O133 1.355 . S
C122 O124 1.185 . S
C122 O125 1.355 . S
Dy123 O127 2.310 . S
Dy123 O130 2.351 . S
Dy123 O132 2.398 . S
Dy123 O133 2.491 . S
Dy123 O134 2.403 . S
Dy123 O135 2.664 . S
Dy123 O137 2.326 . S
O124 Dy120 2.398 . S
O124 C122 1.185 . S
O125 Dy120 2.491 . S
O125 C122 1.355 . S
O126 Dy120 2.403 . S
O126 C128 1.254 . S
O127 Dy120 2.664 . S
O127 Dy123 2.310 . S
O127 C128 1.268 . S
C128 O126 1.254 . S
C128 O127 1.268 . S
C129 O134 1.254 . S
C129 O135 1.268 . S
O130 Dy123 2.351 . S
O130 C138 1.249 . S
O131 Dy120 2.326 . S
O131 C138 1.267 . S
O132 C121 1.185 . S
O132 Dy123 2.398 . S
O133 C121 1.355 . S
O133 Dy123 2.491 . S
O134 Dy123 2.403 . S
O134 C129 1.254 . S
O135 Dy120 2.310 . S
O135 Dy123 2.664 . S
O135 C129 1.268 . S
O136 Dy120 2.351 . S
O136 C139 1.249 . S
O137 Dy123 2.326 . S
O137 C139 1.267 . S
C138 O130 1.249 . S
C138 O131 1.267 . S
C139 O136 1.249 . S
C139 O137 1.267 . S
Dy140 O144 2.398 . S
Dy140 O145 2.491 . S
Dy140 O146 2.403 . S
Dy140 O147 2.664 . S
Dy140 O151 2.326 . S
Dy140 O155 2.310 . S
Dy140 O156 2.351 . S
C141 O152 1.185 . S
C141 O153 1.355 . S
C142 O144 1.185 . S
C142 O145 1.355 . S
Dy143 O147 2.310 . S
Dy143 O150 2.351 . S
Dy143 O152 2.398 . S
Dy143 O153 2.491 . S
Dy143 O154 2.403 . S
Dy143 O155 2.664 . S
Dy143 O157 2.326 . S
O144 Dy140 2.398 . S
O144 C142 1.185 . S
O145 Dy140 2.491 . S
O145 C142 1.355 . S
O146 Dy140 2.403 . S
O146 C148 1.254 . S
O147 Dy140 2.664 . S
O147 Dy143 2.310 . S
O147 C148 1.268 . S
C148 O146 1.254 . S
C148 O147 1.268 . S
C149 O154 1.254 . S
C149 O155 1.268 . S
O150 Dy143 2.351 . S
O150 C158 1.249 . S
O151 Dy140 2.326 . S
O151 C158 1.267 . S
O152 C141 1.185 . S
O152 Dy143 2.398 . S
O153 C141 1.355 . S
O153 Dy143 2.491 . S
O154 Dy143 2.403 . S
O154 C149 1.254 . S
O155 Dy140 2.310 . S
O155 Dy143 2.664 . S
O155 C149 1.268 . S
O156 Dy140 2.351 . S
O156 C159 1.249 . S
O157 Dy143 2.326 . S
O157 C159 1.267 . S
C158 O150 1.249 . S
C158 O151 1.267 . S
C159 O156 1.249 . S
C159 O157 1.267 . S
Dy160 O164 2.398 . S
Dy160 O165 2.491 . S
Dy160 O166 2.403 . S
Dy160 O167 2.664 . S
Dy160 O171 2.326 . S
Dy160 O175 2.310 . S
Dy160 O176 2.351 . S
C161 O172 1.185 . S
C161 O173 1.355 . S
C162 O164 1.185 . S
C162 O165 1.355 . S
Dy163 O167 2.310 . S
Dy163 O170 2.351 . S
Dy163 O172 2.398 . S
Dy163 O173 2.491 . S
Dy163 O174 2.403 . S
Dy163 O175 2.664 . S
Dy163 O177 2.326 . S
O164 Dy160 2.398 . S
O164 C162 1.185 . S
O165 Dy160 2.491 . S
O165 C162 1.355 . S
O166 Dy160 2.403 . S
O166 C168 1.254 . S
O167 Dy160 2.664 . S
O167 Dy163 2.310 . S
O167 C168 1.268 . S
C168 O166 1.254 . S
C168 O167 1.268 . S
C169 O174 1.254 . S
C169 O175 1.268 . S
O170 Dy163 2.351 . S
O170 C178 1.249 . S
O171 Dy160 2.326 . S
O171 C178 1.267 . S
O172 C161 1.185 . S
O172 Dy163 2.398 . S
O173 C161 1.355 . S
O173 Dy163 2.491 . S
O174 Dy163 2.403 . S
O174 C169 1.254 . S
O175 Dy160 2.310 . S
O175 Dy163 2.664 . S
O175 C169 1.268 . S
O176 Dy160 2.351 . S
O176 C179 1.249 . S
O177 Dy163 2.326 . S
O177 C179 1.267 . S
C178 O170 1.249 . S
C178 O171 1.267 . S
C179 O176 1.249 . S
C179 O177 1.267 . S
H180 C192 0.930 . S
H181 C194 0.930 . S
H182 C195 0.930 . S
H183 C199 0.959 1_655 S
H184 C199 0.959 . S
H185 C199 0.961 . S
H186 C200 0.960 . S
H187 C200 0.961 . S
H188 C200 0.959 . S
H189 C203 0.929 . S
H190 C204 0.931 . S
H191 C206 0.930 . S
C192 H180 0.930 . S
C192 C193 1.399 . S
C192 C197 1.399 . S
C193 C192 1.399 . S
C193 C194 1.376 . S
C194 H181 0.930 . S
C194 C193 1.376 . S
C194 C195 1.388 . S
C195 H182 0.930 . S
C195 C194 1.388 . S
C195 C196 1.390 . S
C196 C195 1.390 . S
C196 C197 1.394 . S
C196 C202 1.465 . S
C197 C192 1.399 . S
C197 C196 1.394 . S
C197 C198 1.516 . S
C198 C197 1.516 . S
C198 C199 1.502 . S
C198 C200 1.561 . S
C198 C201 1.526 . S
C199 H183 0.959 1_455 S
C199 H184 0.959 . S
C199 H185 0.961 . S
C199 C198 1.502 . S
C200 H186 0.960 . S
C200 H187 0.961 . S
C200 H188 0.959 . S
C200 C198 1.561 . S
C201 C198 1.526 . S
C201 C202 1.396 . S
C201 C206 1.390 . S
C202 C196 1.465 . S
C202 C201 1.396 . S
C202 C203 1.399 . S
C203 H189 0.929 . S
C203 C202 1.399 . S
C203 C204 1.385 . S
C204 H190 0.931 . S
C204 C203 1.385 . S
C204 C205 1.389 . S
C205 C204 1.389 . S
C205 C206 1.387 . S
C206 H191 0.930 . S
C206 C201 1.390 . S
C206 C205 1.387 . S
H207 C219 0.930 . S
H208 C221 0.930 . S
H209 C222 0.930 . S
H210 C226 0.959 . S
H211 C226 0.959 . S
H212 C226 0.961 . S
H213 C227 0.960 . S
H214 C227 0.961 . S
H215 C227 0.959 . S
H216 C230 0.929 . S
H217 C231 0.931 . S
H218 C233 0.930 . S
C219 H207 0.930 . S
C219 C220 1.399 . S
C219 C224 1.399 . S
C220 C219 1.399 . S
C220 C221 1.376 . S
C221 H208 0.930 . S
C221 C220 1.376 . S
C221 C222 1.388 . S
C222 H209 0.930 . S
C222 C221 1.388 . S
C222 C223 1.390 . S
C223 C222 1.390 . S
C223 C224 1.394 . S
C223 C229 1.465 . S
C224 C219 1.399 . S
C224 C223 1.394 . S
C224 C225 1.516 . S
C225 C224 1.516 . S
C225 C226 1.502 . S
C225 C227 1.561 . S
C225 C228 1.526 . S
C226 H210 0.959 . S
C226 H211 0.959 . S
C226 H212 0.961 . S
C226 C225 1.502 . S
C227 H213 0.960 . S
C227 H214 0.961 . S
C227 H215 0.959 . S
C227 C225 1.561 . S
C228 C225 1.526 . S
C228 C229 1.396 . S
C228 C233 1.390 . S
C229 C223 1.465 . S
C229 C228 1.396 . S
C229 C230 1.399 . S
C230 H216 0.929 . S
C230 C229 1.399 . S
C230 C231 1.385 . S
C231 H217 0.931 . S
C231 C230 1.385 . S
C231 C232 1.389 . S
C232 C231 1.389 . S
C232 C233 1.387 . S
C233 H218 0.930 . S
C233 C228 1.390 . S
C233 C232 1.387 . S
H234 C246 0.930 . S
H235 C248 0.930 . S
H236 C249 0.930 . S
H237 C253 0.959 . S
H238 C253 0.959 . S
H239 C253 0.985 . S
H240 C254 0.960 . S
H241 C254 0.961 . S
H242 C254 0.959 . S
H243 C257 0.929 . S
H244 C258 0.931 . S
H245 C260 0.930 . S
C246 H234 0.930 . S
C246 C247 1.399 . S
C246 C251 1.399 . S
C247 C246 1.399 . S
C247 C248 1.376 . S
C248 H235 0.930 . S
C248 C247 1.376 . S
C248 C249 1.388 . S
C249 H236 0.930 . S
C249 C248 1.388 . S
C249 C250 1.390 . S
C250 C249 1.390 . S
C250 C251 1.394 . S
C250 C256 1.465 . S
C251 C246 1.399 . S
C251 C250 1.394 . S
C251 C252 1.516 . S
C252 C251 1.516 . S
C252 C253 1.502 . S
C252 C254 1.561 1_545 S
C252 C255 1.526 . S
C253 H237 0.959 . S
C253 H238 0.959 . S
C253 H239 0.985 . S
C253 C252 1.502 . S
C254 H240 0.960 . S
C254 H241 0.961 . S
C254 H242 0.959 . S
C254 C252 1.561 1_565 S
C255 C252 1.526 . S
C255 C256 1.396 . S
C255 C260 1.390 . S
C256 C250 1.465 . S
C256 C255 1.396 . S
C256 C257 1.399 . S
C257 H243 0.929 . S
C257 C256 1.399 . S
C257 C258 1.385 . S
C258 H244 0.931 . S
C258 C257 1.385 . S
C258 C259 1.389 . S
C259 C258 1.389 . S
C259 C260 1.387 . S
C260 H245 0.930 . S
C260 C255 1.390 . S
C260 C259 1.387 . S
H261 C273 0.930 . S
H262 C275 0.930 . S
H263 C276 0.930 . S
H264 C280 0.959 . S
H265 C280 0.959 . S
H266 C280 0.961 . S
H267 C281 0.960 . S
H268 C281 0.961 . S
H269 C281 0.959 . S
H270 C284 0.929 . S
H271 C285 0.931 . S
H272 C287 0.930 . S
C273 H261 0.930 . S
C273 C274 1.399 . S
C273 C278 1.399 . S
C274 C273 1.399 . S
C274 C275 1.376 . S
C275 H262 0.930 . S
C275 C274 1.376 . S
C275 C276 1.388 . S
C276 H263 0.930 . S
C276 C275 1.388 . S
C276 C277 1.390 . S
C277 C276 1.390 . S
C277 C278 1.394 . S
C277 C283 1.465 . S
C278 C273 1.399 . S
C278 C277 1.394 . S
C278 C279 1.516 . S
C279 C278 1.516 . S
C279 C280 1.502 . S
C279 C281 1.561 . S
C279 C282 1.526 . S
C280 H264 0.959 . S
C280 H265 0.959 . S
C280 H266 0.961 . S
C280 C279 1.502 . S
C281 H267 0.960 . S
C281 H268 0.961 . S
C281 H269 0.959 . S
C281 C279 1.561 . S
C282 C279 1.526 . S
C282 C283 1.396 . S
C282 C287 1.390 1_556 S
C283 C277 1.465 . S
C283 C282 1.396 . S
C283 C284 1.399 . S
C284 H270 0.929 . S
C284 C283 1.399 . S
C284 C285 1.385 1_556 S
C285 H271 0.931 . S
C285 C284 1.385 1_554 S
C285 C286 1.389 . S
C286 C285 1.389 . S
C286 C287 1.387 . S
C287 H272 0.930 . S
C287 C282 1.390 1_554 S
C287 C286 1.387 . S
H288 C300 0.930 . S
H289 C302 0.930 . S
H290 C303 0.930 . S
H291 C307 0.959 . S
H292 C307 0.959 . S
H293 C307 0.961 . S
H294 C308 0.960 . S
H295 C308 0.961 . S
H296 C308 0.959 . S
H297 C311 0.929 . S
H298 C312 0.931 1_554 S
H299 C314 0.930 . S
C300 H288 0.930 . S
C300 C301 1.399 . S
C300 C305 1.399 . S
C301 C300 1.399 . S
C301 C302 1.376 . S
C302 H289 0.930 . S
C302 C301 1.376 . S
C302 C303 1.388 . S
C303 H290 0.930 . S
C303 C302 1.388 . S
C303 C304 1.390 . S
C304 C303 1.390 . S
C304 C305 1.394 . S
C304 C310 1.465 . S
C305 C300 1.399 . S
C305 C304 1.394 . S
C305 C306 1.516 . S
C306 C305 1.516 . S
C306 C307 1.502 . S
C306 C308 1.561 . S
C306 C309 1.526 . S
C307 H291 0.959 . S
C307 H292 0.959 . S
C307 H293 0.961 . S
C307 C306 1.502 . S
C308 H294 0.960 . S
C308 H295 0.961 . S
C308 H296 0.959 . S
C308 C306 1.561 . S
C309 C306 1.526 . S
C309 C310 1.396 . S
C309 C314 1.390 . S
C310 C304 1.465 . S
C310 C309 1.396 . S
C310 C311 1.399 . S
C311 H297 0.929 . S
C311 C310 1.399 . S
C311 C312 1.385 . S
C312 H298 0.931 1_556 S
C312 C311 1.385 . S
C312 C313 1.389 . S
C313 C312 1.389 . S
C313 C314 1.387 . S
C314 H299 0.930 . S
C314 C309 1.390 . S
C314 C313 1.387 . S
H315 C327 0.930 . S
H316 C329 0.930 . S
H317 C330 0.930 . S
H318 C334 0.959 . S
H319 C334 0.959 . S
H320 C334 0.961 . S
H321 C335 0.960 . S
H322 C335 0.961 . S
H323 C335 0.959 . S
H324 C338 0.929 . S
H325 C339 0.931 . S
H326 C341 0.930 . S
C327 H315 0.930 . S
C327 C328 1.399 . S
C327 C332 1.399 . S
C328 C327 1.399 . S
C328 C329 1.376 . S
C329 H316 0.930 . S
C329 C328 1.376 . S
C329 C330 1.388 . S
C330 H317 0.930 . S
C330 C329 1.388 . S
C330 C331 1.390 . S
C331 C330 1.390 . S
C331 C332 1.394 . S
C331 C337 1.465 . S
C332 C327 1.399 . S
C332 C331 1.394 . S
C332 C333 1.516 . S
C333 C332 1.516 . S
C333 C334 1.502 . S
C333 C335 1.561 . S
C333 C336 1.526 . S
C334 H318 0.959 . S
C334 H319 0.959 . S
C334 H320 0.961 . S
C334 C333 1.502 . S
C335 H321 0.960 . S
C335 H322 0.961 . S
C335 H323 0.959 . S
C335 C333 1.561 . S
C336 C333 1.526 . S
C336 C337 1.396 . S
C336 C341 1.390 . S
C337 C331 1.465 . S
C337 C336 1.396 . S
C337 C338 1.399 . S
C338 H324 0.929 . S
C338 C337 1.399 . S
C338 C339 1.385 . S
C339 H325 0.931 . S
C339 C338 1.385 . S
C339 C340 1.389 . S
C340 C339 1.389 . S
C340 C341 1.387 . S
C341 H326 0.930 . S
C341 C336 1.390 . S
C341 C340 1.387 . S
H342 C354 0.930 . S
H343 C356 0.930 . S
H344 C357 0.930 . S
H345 C361 0.959 . S
H346 C361 0.959 . S
H347 C361 0.961 . S
H348 C362 0.960 . S
H349 C362 0.961 . S
H350 C362 0.959 . S
H351 C365 0.929 . S
H352 C366 0.931 . S
H353 C368 0.930 . S
C354 H342 0.930 . S
C354 C355 1.399 . S
C354 C359 1.399 . S
C355 C354 1.399 . S
C355 C356 1.376 . S
C356 H343 0.930 . S
C356 C355 1.376 . S
C356 C357 1.388 . S
C357 H344 0.930 . S
C357 C356 1.388 . S
C357 C358 1.390 . S
C358 C357 1.390 . S
C358 C359 1.394 . S
C358 C364 1.465 . S
C359 C354 1.399 . S
C359 C358 1.394 . S
C359 C360 1.516 . S
C360 C359 1.516 . S
C360 C361 1.502 . S
C360 C362 1.561 . S
C360 C363 1.526 . S
C361 H345 0.959 . S
C361 H346 0.959 . S
C361 H347 0.961 . S
C361 C360 1.502 . S
C362 H348 0.960 . S
C362 H349 0.961 . S
C362 H350 0.959 . S
C362 C360 1.561 . S
C363 C360 1.526 . S
C363 C364 1.396 . S
C363 C368 1.390 . S
C364 C358 1.465 . S
C364 C363 1.396 . S
C364 C365 1.399 . S
C365 H351 0.929 . S
C365 C364 1.399 . S
C365 C366 1.385 1_554 S
C366 H352 0.931 . S
C366 C365 1.385 1_556 S
C366 C367 1.389 . S
C367 C366 1.389 . S
C367 C368 1.387 1_556 S
C368 H353 0.930 . S
C368 C363 1.390 . S
C368 C367 1.387 1_554 S
H369 C381 0.930 . S
H370 C383 0.930 . S
H371 C384 0.930 . S
H372 C388 0.959 . S
H373 C388 0.959 . S
H374 C388 0.961 . S
H375 C389 0.960 . S
H376 C389 0.961 . S
H377 C389 0.959 . S
H378 C392 0.929 . S
H379 C393 0.931 1_556 S
H380 C395 0.930 1_556 S
C381 H369 0.930 . S
C381 C382 1.399 . S
C381 C386 1.399 . S
C382 C381 1.399 . S
C382 C383 1.376 . S
C383 H370 0.930 . S
C383 C382 1.376 . S
C383 C384 1.388 . S
C384 H371 0.930 . S
C384 C383 1.388 . S
C384 C385 1.390 . S
C385 C384 1.390 . S
C385 C386 1.394 . S
C385 C391 1.465 . S
C386 C381 1.399 . S
C386 C385 1.394 . S
C386 C387 1.516 . S
C387 C386 1.516 . S
C387 C388 1.502 . S
C387 C389 1.561 . S
C387 C390 1.526 . S
C388 H372 0.959 . S
C388 H373 0.959 . S
C388 H374 0.961 . S
C388 C387 1.502 . S
C389 H375 0.960 . S
C389 H376 0.961 . S
C389 H377 0.959 . S
C389 C387 1.561 . S
C390 C387 1.526 . S
C390 C391 1.396 . S
C390 C395 1.390 . S
C391 C385 1.465 . S
C391 C390 1.396 . S
C391 C392 1.399 . S
C392 H378 0.929 . S
C392 C391 1.399 . S
C392 C393 1.385 . S
C393 H379 0.931 1_554 S
C393 C392 1.385 . S
C393 C394 1.389 1_554 S
C394 C393 1.389 1_556 S
C394 C395 1.387 1_556 S
C395 H380 0.930 1_554 S
C395 C390 1.390 . S
C395 C394 1.387 1_554 S
H396 C408 0.930 . S
H397 C410 0.930 . S
H398 C411 0.930 . S
H399 C415 0.959 . S
H400 C415 0.959 . S
H401 C415 0.961 . S
H402 C416 0.960 . S
H403 C416 0.961 . S
H404 C416 0.959 . S
H405 C419 0.929 . S
H406 C420 0.934 . S
H407 C422 0.930 1_556 S
C408 H396 0.930 . S
C408 C409 1.399 . S
C408 C413 1.399 . S
C409 C408 1.399 . S
C409 C410 1.376 . S
C410 H397 0.930 . S
C410 C409 1.376 . S
C410 C411 1.388 . S
C411 H398 0.930 . S
C411 C410 1.388 . S
C411 C412 1.390 . S
C412 C411 1.390 . S
C412 C413 1.394 . S
C412 C418 1.465 . S
C413 C408 1.399 . S
C413 C412 1.394 . S
C413 C414 1.516 . S
C414 C413 1.516 . S
C414 C415 1.502 . S
C414 C416 1.561 . S
C414 C417 1.526 . S
C415 H399 0.959 . S
C415 H400 0.959 . S
C415 H401 0.961 . S
C415 C414 1.502 . S
C416 H402 0.960 . S
C416 H403 0.961 . S
C416 H404 0.959 . S
C416 C414 1.561 . S
C417 C414 1.526 . S
C417 C418 1.396 . S
C417 C422 1.390 . S
C418 C412 1.465 . S
C418 C417 1.396 . S
C418 C419 1.399 . S
C419 H405 0.929 . S
C419 C418 1.399 . S
C419 C420 1.385 . S
C420 H406 0.934 . S
C420 C419 1.385 . S
C420 C421 1.389 1_554 S
C421 C420 1.389 1_556 S
C421 C422 1.387 1_556 S
C422 H407 0.930 1_554 S
C422 C417 1.390 . S
C422 C421 1.387 1_554 S
H423 C435 0.930 . S
H424 C437 0.930 . S
H425 C438 0.930 1_556 S
H426 C442 0.959 . S
H427 C442 0.959 . S
H428 C442 0.961 . S
H429 C443 0.960 . S
H430 C443 0.961 . S
H431 C443 0.959 . S
H432 C446 0.929 . S
H433 C447 0.931 . S
H434 C449 0.930 . S
C435 H423 0.930 . S
C435 C436 1.399 . S
C435 C440 1.399 . S
C436 C435 1.399 . S
C436 C437 1.376 . S
C437 H424 0.930 . S
C437 C436 1.376 . S
C437 C438 1.388 . S
C438 H425 0.930 1_554 S
C438 C437 1.388 . S
C438 C439 1.390 . S
C439 C438 1.390 . S
C439 C440 1.394 . S
C439 C445 1.465 . S
C440 C435 1.399 . S
C440 C439 1.394 . S
C440 C441 1.516 . S
C441 C440 1.516 . S
C441 C442 1.502 . S
C441 C443 1.561 . S
C441 C444 1.526 . S
C442 H426 0.959 . S
C442 H427 0.959 . S
C442 H428 0.961 . S
C442 C441 1.502 . S
C443 H429 0.960 . S
C443 H430 0.961 . S
C443 H431 0.959 . S
C443 C441 1.561 . S
C444 C441 1.526 . S
C444 C445 1.396 . S
C444 C449 1.390 . S
C445 C439 1.465 . S
C445 C444 1.396 . S
C445 C446 1.399 1_554 S
C446 H432 0.929 . S
C446 C445 1.399 1_556 S
C446 C447 1.385 . S
C447 H433 0.931 . S
C447 C446 1.385 . S
C447 C448 1.389 1_556 S
C448 C447 1.389 1_554 S
C448 C449 1.387 . S
C449 H434 0.930 . S
C449 C444 1.390 . S
C449 C448 1.387 . S
H450 C462 0.930 . S
H451 C464 0.930 . S
H452 C465 0.930 . S
H453 C469 0.959 . S
H454 C469 0.959 . S
H455 C469 0.961 . S
H456 C470 0.960 . S
H457 C470 0.961 . S
H458 C470 0.959 . S
H459 C473 0.929 . S
H460 C474 0.931 . S
H461 C476 0.930 . S
C462 H450 0.930 . S
C462 C463 1.399 . S
C462 C467 1.399 . S
C463 C462 1.399 . S
C463 C464 1.376 . S
C464 H451 0.930 . S
C464 C463 1.376 . S
C464 C465 1.388 . S
C465 H452 0.930 . S
C465 C464 1.388 . S
C465 C466 1.390 . S
C466 C465 1.390 . S
C466 C467 1.394 . S
C466 C472 1.465 . S
C467 C462 1.399 . S
C467 C466 1.394 . S
C467 C468 1.516 . S
C468 C467 1.516 . S
C468 C469 1.502 . S
C468 C470 1.561 . S
C468 C471 1.526 . S
C469 H453 0.959 . S
C469 H454 0.959 . S
C469 H455 0.961 . S
C469 C468 1.502 . S
C470 H456 0.960 . S
C470 H457 0.961 . S
C470 H458 0.959 . S
C470 C468 1.561 . S
C471 C468 1.526 . S
C471 C472 1.396 . S
C471 C476 1.390 . S
C472 C466 1.465 . S
C472 C471 1.396 . S
C472 C473 1.399 . S
C473 H459 0.929 . S
C473 C472 1.399 . S
C473 C474 1.385 . S
C474 H460 0.931 . S
C474 C473 1.385 . S
C474 C475 1.389 . S
C475 C474 1.389 . S
C475 C476 1.387 . S
C476 H461 0.930 . S
C476 C471 1.390 . S
C476 C475 1.387 . S
H477 C489 0.930 . S
H478 C491 0.930 . S
H479 C492 0.930 . S
H480 C496 0.959 . S
H481 C496 0.959 . S
H482 C496 0.961 . S
H483 C497 0.960 . S
H484 C497 0.961 . S
H485 C497 0.959 . S
H486 C500 0.929 . S
H487 C501 0.931 . S
H488 C503 0.930 . S
C489 H477 0.930 . S
C489 C490 1.399 . S
C489 C494 1.399 . S
C490 C489 1.399 . S
C490 C491 1.376 . S
C491 H478 0.930 . S
C491 C490 1.376 . S
C491 C492 1.388 . S
C492 H479 0.930 . S
C492 C491 1.388 . S
C492 C493 1.390 . S
C493 C492 1.390 . S
C493 C494 1.394 . S
C493 C499 1.465 . S
C494 C489 1.399 . S
C494 C493 1.394 . S
C494 C495 1.516 . S
C495 C494 1.516 . S
C495 C496 1.502 . S
C495 C497 1.561 . S
C495 C498 1.526 . S
C496 H480 0.959 . S
C496 H481 0.959 . S
C496 H482 0.961 . S
C496 C495 1.502 . S
C497 H483 0.960 . S
C497 H484 0.961 . S
C497 H485 0.959 . S
C497 C495 1.561 . S
C498 C495 1.526 . S
C498 C499 1.396 . S
C498 C503 1.390 . S
C499 C493 1.465 . S
C499 C498 1.396 . S
C499 C500 1.399 . S
C500 H486 0.929 . S
C500 C499 1.399 . S
C500 C501 1.385 . S
C501 H487 0.931 . S
C501 C500 1.385 . S
C501 C502 1.389 . S
C502 C501 1.389 . S
C502 C503 1.387 . S
C503 H488 0.930 . S
C503 C498 1.390 . S
C503 C502 1.387 . S
H504 C516 0.930 . S
H505 C518 0.930 . S
H506 C519 0.930 . S
H507 C523 0.959 . S
H508 C523 0.959 . S
H509 C523 0.961 . S
H510 C524 0.960 1_554 S
H511 C524 0.961 . S
H512 C524 0.959 . S
H513 C527 0.929 . S
H514 C528 0.931 . S
H515 C530 0.930 . S
C516 H504 0.930 . S
C516 C517 1.399 . S
C516 C521 1.399 . S
C517 C516 1.399 . S
C517 C518 1.376 . S
C518 H505 0.930 . S
C518 C517 1.376 . S
C518 C519 1.388 1_554 S
C519 H506 0.930 . S
C519 C518 1.388 1_556 S
C519 C520 1.390 . S
C520 C519 1.390 . S
C520 C521 1.394 1_556 S
C520 C526 1.465 . S
C521 C516 1.399 . S
C521 C520 1.394 1_554 S
C521 C522 1.516 . S
C522 C521 1.516 . S
C522 C523 1.502 . S
C522 C524 1.561 1_554 S
C522 C525 1.526 1_554 S
C523 H507 0.959 . S
C523 H508 0.959 . S
C523 H509 0.961 . S
C523 C522 1.502 . S
C524 H510 0.960 1_556 S
C524 H511 0.961 . S
C524 H512 0.959 . S
C524 C522 1.561 1_556 S
C525 C522 1.526 1_556 S
C525 C526 1.396 . S
C525 C530 1.390 . S
C526 C520 1.465 . S
C526 C525 1.396 . S
C526 C527 1.399 . S
C527 H513 0.929 . S
C527 C526 1.399 . S
C527 C528 1.385 . S
C528 H514 0.931 . S
C528 C527 1.385 . S
C528 C529 1.389 . S
C529 C528 1.389 . S
C529 C530 1.387 . S
C530 H515 0.930 . S
C530 C525 1.390 . S
C530 C529 1.387 . S
H531 C543 0.930 . S
H532 C545 0.930 . S
H533 C546 0.930 . S
H534 C550 0.959 . S
H535 C550 0.959 1_554 S
H536 C550 0.961 . S
H537 C551 0.960 . S
H538 C551 0.961 . S
H539 C551 0.959 . S
H540 C554 0.942 . S
H541 C555 0.931 . S
H542 C557 0.930 1_554 S
C543 H531 0.930 . S
C543 C544 1.399 . S
C543 C548 1.399 . S
C544 C543 1.399 . S
C544 C545 1.376 . S
C545 H532 0.930 . S
C545 C544 1.376 . S
C545 C546 1.388 . S
C546 H533 0.930 . S
C546 C545 1.388 . S
C546 C547 1.390 . S
C547 C546 1.390 . S
C547 C548 1.394 . S
C547 C553 1.465 . S
C548 C543 1.399 . S
C548 C547 1.394 . S
C548 C549 1.516 . S
C549 C548 1.516 . S
C549 C550 1.502 . S
C549 C551 1.561 1_556 S
C549 C552 1.526 . S
C550 H534 0.959 . S
C550 H535 0.959 1_556 S
C550 H536 0.961 . S
C550 C549 1.502 . S
C551 H537 0.960 . S
C551 H538 0.961 . S
C551 H539 0.959 . S
C551 C549 1.561 1_554 S
C552 C549 1.526 . S
C552 C553 1.396 . S
C552 C557 1.390 . S
C553 C547 1.465 . S
C553 C552 1.396 . S
C553 C554 1.392 1_655 S
C554 H540 0.942 . S
C554 C553 1.392 1_455 S
C554 C555 1.380 . S
C555 H541 0.931 . S
C555 C554 1.380 . S
C555 C556 1.389 1_455 S
C556 C555 1.389 1_655 S
C556 C557 1.387 . S
C557 H542 0.930 1_556 S
C557 C552 1.390 . S
C557 C556 1.387 . S
H558 C570 0.930 . S
H559 C572 0.930 . S
H560 C573 0.930 . S
H561 C577 0.959 . S
H562 C577 0.959 . S
H563 C577 0.961 . S
H564 C578 0.960 . S
H565 C578 0.961 . S
H566 C578 0.959 . S
H567 C581 0.929 . S
H568 C582 0.931 . S
H569 C584 0.930 . S
C570 H558 0.930 . S
C570 C571 1.399 . S
C570 C575 1.399 . S
C571 C570 1.399 . S
C571 C572 1.376 . S
C572 H559 0.930 . S
C572 C571 1.376 . S
C572 C573 1.388 . S
C573 H560 0.930 . S
C573 C572 1.388 . S
C573 C574 1.390 . S
C574 C573 1.390 . S
C574 C575 1.394 . S
C574 C580 1.465 . S
C575 C570 1.399 . S
C575 C574 1.394 . S
C575 C576 1.516 1_556 S
C576 C575 1.516 1_554 S
C576 C577 1.502 . S
C576 C578 1.561 . S
C576 C579 1.526 . S
C577 H561 0.959 . S
C577 H562 0.959 . S
C577 H563 0.961 . S
C577 C576 1.502 . S
C578 H564 0.960 . S
C578 H565 0.961 . S
C578 H566 0.959 . S
C578 C576 1.561 . S
C579 C576 1.526 . S
C579 C580 1.396 1_554 S
C579 C584 1.390 . S
C580 C574 1.465 . S
C580 C579 1.396 1_556 S
C580 C581 1.399 . S
C581 H567 0.929 . S
C581 C580 1.399 . S
C581 C582 1.385 . S
C582 H568 0.931 . S
C582 C581 1.385 . S
C582 C583 1.389 1_556 S
C583 C582 1.389 1_554 S
C583 C584 1.387 . S
C584 H569 0.930 . S
C584 C579 1.390 . S
C584 C583 1.387 . S
H585 C597 0.930 . S
H586 C599 0.930 . S
H587 C600 0.930 . S
H588 C604 0.959 . S
H589 C604 0.959 . S
H590 C604 0.961 . S
H591 C605 0.960 . S
H592 C605 0.961 . S
H593 C605 0.959 . S
H594 C608 0.929 1_554 S
H595 C609 0.931 . S
H596 C611 0.930 . S
C597 H585 0.930 . S
C597 C598 1.399 . S
C597 C602 1.399 . S
C598 C597 1.399 . S
C598 C599 1.376 . S
C599 H586 0.930 . S
C599 C598 1.376 . S
C599 C600 1.388 . S
C600 H587 0.930 . S
C600 C599 1.388 . S
C600 C601 1.390 . S
C601 C600 1.390 . S
C601 C602 1.394 . S
C601 C607 1.465 . S
C602 C597 1.399 . S
C602 C601 1.394 . S
C602 C603 1.516 . S
C603 C602 1.516 . S
C603 C604 1.502 . S
C603 C605 1.561 . S
C603 C606 1.526 . S
C604 H588 0.959 . S
C604 H589 0.959 . S
C604 H590 0.961 . S
C604 C603 1.502 . S
C605 H591 0.960 . S
C605 H592 0.961 . S
C605 H593 0.959 . S
C605 C603 1.561 . S
C606 C603 1.526 . S
C606 C607 1.396 . S
C606 C611 1.390 . S
C607 C601 1.465 . S
C607 C606 1.396 . S
C607 C608 1.399 . S
C608 H594 0.929 1_556 S
C608 C607 1.399 . S
C608 C609 1.385 1_556 S
C609 H595 0.931 . S
C609 C608 1.385 1_554 S
C609 C610 1.389 1_554 S
C610 C609 1.389 1_556 S
C610 C611 1.387 . S
C611 H596 0.930 . S
C611 C606 1.390 . S
C611 C610 1.387 . S
H612 C624 0.930 . S
H613 C626 0.930 . S
H614 C627 0.930 . S
H615 C631 0.959 1_556 S
H616 C631 0.959 . S
H617 C631 0.961 . S
H618 C632 0.960 . S
H619 C632 0.961 . S
H620 C632 0.959 . S
H621 C635 0.929 . S
H622 C636 0.931 . S
H623 C638 0.930 . S
C624 H612 0.930 . S
C624 C625 1.399 . S
C624 C629 1.399 1_554 S
C625 C624 1.399 . S
C625 C626 1.376 1_554 S
C626 H613 0.930 . S
C626 C625 1.376 1_556 S
C626 C627 1.388 . S
C627 H614 0.930 . S
C627 C626 1.388 . S
C627 C628 1.390 . S
C628 C627 1.390 . S
C628 C629 1.394 . S
C628 C634 1.465 . S
C629 C624 1.399 1_556 S
C629 C628 1.394 . S
C629 C630 1.516 . S
C630 C629 1.516 . S
C630 C631 1.502 1_556 S
C630 C632 1.561 1_556 S
C630 C633 1.526 . S
C631 H615 0.959 1_554 S
C631 H616 0.959 . S
C631 H617 0.961 . S
C631 C630 1.502 1_554 S
C632 H618 0.960 . S
C632 H619 0.961 . S
C632 H620 0.959 . S
C632 C630 1.561 1_554 S
C633 C630 1.526 . S
C633 C634 1.396 . S
C633 C638 1.390 . S
C634 C628 1.465 . S
C634 C633 1.396 . S
C634 C635 1.399 . S
C635 H621 0.929 . S
C635 C634 1.399 . S
C635 C636 1.385 . S
C636 H622 0.931 . S
C636 C635 1.385 . S
C636 C637 1.389 . S
C637 C636 1.389 . S
C637 C638 1.387 . S
C638 H623 0.930 . S
C638 C633 1.390 . S
C638 C637 1.387 . S
H639 C651 0.930 . S
H640 C653 0.930 . S
H641 C654 0.930 1_554 S
H642 C658 0.959 . S
H643 C658 0.959 . S
H644 C658 0.961 . S
H645 C659 0.960 . S
H646 C659 0.961 . S
H647 C659 0.959 . S
H648 C662 0.929 . S
H649 C663 0.931 . S
H650 C665 0.930 . S
C651 H639 0.930 . S
C651 C652 1.399 . S
C651 C656 1.399 . S
C652 C651 1.399 . S
C652 C653 1.376 . S
C653 H640 0.930 . S
C653 C652 1.376 . S
C653 C654 1.388 . S
C654 H641 0.930 1_556 S
C654 C653 1.388 . S
C654 C655 1.390 . S
C655 C654 1.390 . S
C655 C656 1.394 . S
C655 C661 1.465 1_556 S
C656 C651 1.399 . S
C656 C655 1.394 . S
C656 C657 1.516 . S
C657 C656 1.516 . S
C657 C658 1.502 . S
C657 C659 1.561 . S
C657 C660 1.526 . S
C658 H642 0.959 . S
C658 H643 0.959 . S
C658 H644 0.961 . S
C658 C657 1.502 . S
C659 H645 0.960 . S
C659 H646 0.961 . S
C659 H647 0.959 . S
C659 C657 1.561 . S
C660 C657 1.526 . S
C660 C661 1.396 1_556 S
C660 C665 1.390 1_556 S
C661 C655 1.465 1_554 S
C661 C660 1.396 1_554 S
C661 C662 1.399 . S
C662 H648 0.929 . S
C662 C661 1.399 . S
C662 C663 1.385 . S
C663 H649 0.931 . S
C663 C662 1.385 . S
C663 C664 1.389 . S
C664 C663 1.389 . S
C664 C665 1.387 . S
C665 H650 0.930 . S
C665 C660 1.390 1_554 S
C665 C664 1.387 . S
H666 C678 0.930 . S
H667 C680 0.930 . S
H668 C681 0.930 . S
H669 C685 0.959 . S
H670 C685 0.959 . S
H671 C685 0.961 . S
H672 C686 0.960 . S
H673 C686 0.961 . S
H674 C686 0.959 . S
H675 C689 0.929 . S
H676 C690 0.931 . S
H677 C692 0.930 . S
C678 H666 0.930 . S
C678 C679 1.399 1_565 S
C678 C683 1.399 . S
C679 C678 1.399 1_545 S
C679 C680 1.376 . S
C680 H667 0.930 . S
C680 C679 1.376 . S
C680 C681 1.388 . S
C681 H668 0.930 . S
C681 C680 1.388 . S
C681 C682 1.390 1_545 S
C682 C681 1.390 1_565 S
C682 C683 1.394 . S
C682 C688 1.465 . S
C683 C678 1.399 . S
C683 C682 1.394 . S
C683 C684 1.516 . S
C684 C683 1.516 . S
C684 C685 1.502 . S
C684 C686 1.561 . S
C684 C687 1.526 . S
C685 H669 0.959 . S
C685 H670 0.959 . S
C685 H671 0.961 . S
C685 C684 1.502 . S
C686 H672 0.960 . S
C686 H673 0.961 . S
C686 H674 0.959 . S
C686 C684 1.561 . S
C687 C684 1.526 . S
C687 C688 1.396 . S
C687 C692 1.390 . S
C688 C682 1.465 . S
C688 C687 1.396 . S
C688 C689 1.399 . S
C689 H675 0.929 . S
C689 C688 1.399 . S
C689 C690 1.385 . S
C690 H676 0.931 . S
C690 C689 1.385 . S
C690 C691 1.389 . S
C691 C690 1.389 . S
C691 C692 1.387 . S
C692 H677 0.930 . S
C692 C687 1.390 . S
C692 C691 1.387 . S
H693 C705 0.930 . S
H694 C707 0.930 . S
H695 C708 0.930 . S
H696 C712 0.959 . S
H697 C712 0.959 . S
H698 C712 0.961 . S
H699 C713 0.960 . S
H700 C713 0.961 . S
H701 C713 0.959 . S
H702 C716 0.929 . S
H703 C717 0.931 . S
H704 C719 0.930 . S
C705 H693 0.930 . S
C705 C706 1.399 . S
C705 C710 1.399 . S
C706 C705 1.399 . S
C706 C707 1.376 . S
C707 H694 0.930 . S
C707 C706 1.376 . S
C707 C708 1.388 . S
C708 H695 0.930 . S
C708 C707 1.388 . S
C708 C709 1.390 . S
C709 C708 1.390 . S
C709 C710 1.394 . S
C709 C715 1.465 . S
C710 C705 1.399 . S
C710 C709 1.394 . S
C710 C711 1.516 . S
C711 C710 1.516 . S
C711 C712 1.502 . S
C711 C713 1.561 1_554 S
C711 C714 1.526 . S
C712 H696 0.959 . S
C712 H697 0.959 . S
C712 H698 0.961 . S
C712 C711 1.502 . S
C713 H699 0.960 . S
C713 H700 0.961 . S
C713 H701 0.959 . S
C713 C711 1.561 1_556 S
C714 C711 1.526 . S
C714 C715 1.396 . S
C714 C719 1.390 . S
C715 C709 1.465 . S
C715 C714 1.396 . S
C715 C716 1.399 . S
C716 H702 0.929 . S
C716 C715 1.399 . S
C716 C717 1.385 . S
C717 H703 0.931 . S
C717 C716 1.385 . S
C717 C718 1.389 . S
C718 C717 1.389 . S
C718 C719 1.387 . S
C719 H704 0.930 . S
C719 C714 1.390 . S
C719 C718 1.387 . S
H720 C732 0.930 . S
H721 C734 0.930 . S
H722 C735 0.930 . S
H723 C739 0.959 1_554 S
H724 C739 0.959 . S
H725 C739 0.961 . S
H726 C740 0.960 . S
H727 C740 0.961 . S
H728 C740 0.959 . S
H729 C743 0.929 . S
H730 C744 0.931 . S
H731 C746 0.930 . S
C732 H720 0.930 . S
C732 C733 1.399 . S
C732 C737 1.399 . S
C733 C732 1.399 . S
C733 C734 1.376 . S
C734 H721 0.930 . S
C734 C733 1.376 . S
C734 C735 1.388 . S
C735 H722 0.930 . S
C735 C734 1.388 . S
C735 C736 1.390 . S
C736 C735 1.390 . S
C736 C737 1.394 . S
C736 C742 1.465 . S
C737 C732 1.399 . S
C737 C736 1.394 . S
C737 C738 1.516 . S
C738 C737 1.516 . S
C738 C739 1.502 1_554 S
C738 C740 1.561 1_554 S
C738 C741 1.526 . S
C739 H723 0.959 1_556 S
C739 H724 0.959 . S
C739 H725 0.961 . S
C739 C738 1.502 1_556 S
C740 H726 0.960 . S
C740 H727 0.961 . S
C740 H728 0.959 . S
C740 C738 1.561 1_556 S
C741 C738 1.526 . S
C741 C742 1.396 . S
C741 C746 1.390 . S
C742 C736 1.465 . S
C742 C741 1.396 . S
C742 C743 1.399 . S
C743 H729 0.929 . S
C743 C742 1.399 . S
C743 C744 1.385 . S
C744 H730 0.931 . S
C744 C743 1.385 . S
C744 C745 1.389 . S
C745 C744 1.389 . S
C745 C746 1.387 . S
C746 H731 0.930 . S
C746 C741 1.390 . S
C746 C745 1.387 . S
H747 C759 0.930 . S
H748 C761 0.930 . S
H749 C762 0.930 . S
H750 C766 0.959 . S
H751 C766 0.959 . S
H752 C766 0.961 . S
H753 C767 0.960 . S
H754 C767 0.961 . S
H755 C767 0.959 . S
H756 C770 0.929 . S
H757 C771 0.931 . S
H758 C773 0.930 . S
C759 H747 0.930 . S
C759 C760 1.399 . S
C759 C764 1.399 . S
C760 C759 1.399 . S
C760 C761 1.376 . S
C761 H748 0.930 . S
C761 C760 1.376 . S
C761 C762 1.388 . S
C762 H749 0.930 . S
C762 C761 1.388 . S
C762 C763 1.390 . S
C763 C762 1.390 . S
C763 C764 1.394 . S
C763 C769 1.465 . S
C764 C759 1.399 . S
C764 C763 1.394 . S
C764 C765 1.516 . S
C765 C764 1.516 . S
C765 C766 1.502 . S
C765 C767 1.561 . S
C765 C768 1.526 . S
C766 H750 0.959 . S
C766 H751 0.959 . S
C766 H752 0.961 . S
C766 C765 1.502 . S
C767 H753 0.960 . S
C767 H754 0.961 . S
C767 H755 0.959 . S
C767 C765 1.561 . S
C768 C765 1.526 . S
C768 C769 1.396 . S
C768 C773 1.390 . S
C769 C763 1.465 . S
C769 C768 1.396 . S
C769 C770 1.399 . S
C770 H756 0.929 . S
C770 C769 1.399 . S
C770 C771 1.385 . S
C771 H757 0.931 . S
C771 C770 1.385 . S
C771 C772 1.389 . S
C772 C771 1.389 . S
C772 C773 1.387 . S
C773 H758 0.930 . S
C773 C768 1.390 . S
C773 C772 1.387 . S
H774 C786 0.930 . S
H775 C788 0.930 . S
H776 C789 0.930 . S
H777 C793 0.959 . S
H778 C793 0.959 . S
H779 C793 0.961 . S
H780 C794 0.960 . S
H781 C794 0.961 . S
H782 C794 0.959 . S
H783 C797 0.929 . S
H784 C798 0.931 . S
H785 C800 0.930 . S
C786 H774 0.930 . S
C786 C787 1.399 . S
C786 C791 1.399 . S
C787 C786 1.399 . S
C787 C788 1.376 . S
C788 H775 0.930 . S
C788 C787 1.376 . S
C788 C789 1.388 . S
C789 H776 0.930 . S
C789 C788 1.388 . S
C789 C790 1.390 . S
C790 C789 1.390 . S
C790 C791 1.394 . S
C790 C796 1.465 . S
C791 C786 1.399 . S
C791 C790 1.394 . S
C791 C792 1.516 . S
C792 C791 1.516 . S
C792 C793 1.502 . S
C792 C794 1.561 . S
C792 C795 1.526 . S
C793 H777 0.959 . S
C793 H778 0.959 . S
C793 H779 0.961 . S
C793 C792 1.502 . S
C794 H780 0.960 . S
C794 H781 0.961 . S
C794 H782 0.959 . S
C794 C792 1.561 . S
C795 C792 1.526 . S
C795 C796 1.396 . S
C795 C800 1.390 1_545 S
C796 C790 1.465 . S
C796 C795 1.396 . S
C796 C797 1.399 1_545 S
C797 H783 0.929 . S
C797 C796 1.399 1_565 S
C797 C798 1.385 . S
C798 H784 0.931 . S
C798 C797 1.385 . S
C798 C799 1.389 . S
C799 C798 1.389 . S
C799 C800 1.387 . S
C800 H785 0.930 . S
C800 C795 1.390 1_565 S
C800 C799 1.387 . S
H801 C813 0.930 1_655 S
H802 C815 0.930 . S
H803 C816 0.930 . S
H804 C820 0.959 . S
H805 C820 0.959 . S
H806 C820 0.961 . S
H807 C821 0.960 . S
H808 C821 0.961 . S
H809 C821 0.959 . S
H810 C824 0.929 . S
H811 C825 0.931 . S
H812 C827 0.930 . S
C813 H801 0.930 1_455 S
C813 C814 1.399 1_455 S
C813 C818 1.399 . S
C814 C813 1.399 1_655 S
C814 C815 1.376 . S
C815 H802 0.930 . S
C815 C814 1.376 . S
C815 C816 1.388 1_655 S
C816 H803 0.930 . S
C816 C815 1.388 1_455 S
C816 C817 1.390 . S
C817 C816 1.390 . S
C817 C818 1.394 . S
C817 C823 1.465 . S
C818 C813 1.399 . S
C818 C817 1.394 . S
C818 C819 1.516 . S
C819 C818 1.516 . S
C819 C820 1.502 . S
C819 C821 1.561 . S
C819 C822 1.526 . S
C820 H804 0.959 . S
C820 H805 0.959 . S
C820 H806 0.961 . S
C820 C819 1.502 . S
C821 H807 0.960 . S
C821 H808 0.961 . S
C821 H809 0.959 . S
C821 C819 1.561 . S
C822 C819 1.526 . S
C822 C823 1.396 . S
C822 C827 1.390 . S
C823 C817 1.465 . S
C823 C822 1.396 . S
C823 C824 1.399 . S
C824 H810 0.929 . S
C824 C823 1.399 . S
C824 C825 1.385 . S
C825 H811 0.931 . S
C825 C824 1.385 . S
C825 C826 1.389 . S
C826 C825 1.389 . S
C826 C827 1.387 . S
C827 H812 0.930 . S
C827 C822 1.390 . S
C827 C826 1.387 . S
H828 C840 0.930 . S
H829 C842 0.930 . S
H830 C843 0.930 . S
H831 C847 0.959 . S
H832 C847 0.959 . S
H833 C847 0.961 . S
H834 C848 0.960 . S
H835 C848 0.961 . S
H836 C848 0.959 . S
H837 C851 0.929 . S
H838 C852 0.931 . S
H839 C854 0.930 . S
C840 H828 0.930 . S
C840 C841 1.399 . S
C840 C845 1.399 . S
C841 C840 1.399 . S
C841 C842 1.376 . S
C842 H829 0.930 . S
C842 C841 1.376 . S
C842 C843 1.388 . S
C843 H830 0.930 . S
C843 C842 1.388 . S
C843 C844 1.390 . S
C844 C843 1.390 . S
C844 C845 1.394 . S
C844 C850 1.465 . S
C845 C840 1.399 . S
C845 C844 1.394 . S
C845 C846 1.516 . S
C846 C845 1.516 . S
C846 C847 1.502 . S
C846 C848 1.561 . S
C846 C849 1.526 . S
C847 H831 0.959 . S
C847 H832 0.959 . S
C847 H833 0.961 . S
C847 C846 1.502 . S
C848 H834 0.960 . S
C848 H835 0.961 . S
C848 H836 0.959 . S
C848 C846 1.561 . S
C849 C846 1.526 . S
C849 C850 1.396 . S
C849 C854 1.390 . S
C850 C844 1.465 . S
C850 C849 1.396 . S
C850 C851 1.399 . S
C851 H837 0.929 . S
C851 C850 1.399 . S
C851 C852 1.385 . S
C852 H838 0.931 . S
C852 C851 1.385 . S
C852 C853 1.389 . S
C853 C852 1.389 . S
C853 C854 1.387 . S
C854 H839 0.930 . S
C854 C849 1.390 . S
C854 C853 1.387 . S
H855 C867 0.930 . S
H856 C869 0.930 . S
H857 C870 0.930 . S
H858 C874 0.959 . S
H859 C874 0.959 . S
H860 C874 0.961 1_565 S
H861 C875 0.960 . S
H862 C875 0.961 1_545 S
H863 C875 0.959 1_545 S
H864 C878 0.929 . S
H865 C879 0.931 . S
H866 C881 0.930 . S
C867 H855 0.930 . S
C867 C868 1.399 . S
C867 C872 1.399 . S
C868 C867 1.399 . S
C868 C869 1.376 . S
C869 H856 0.930 . S
C869 C868 1.376 . S
C869 C870 1.388 1_565 S
C870 H857 0.930 . S
C870 C869 1.388 1_545 S
C870 C871 1.390 . S
C871 C870 1.390 . S
C871 C872 1.394 1_545 S
C871 C877 1.465 . S
C872 C867 1.399 . S
C872 C871 1.394 1_565 S
C872 C873 1.516 1_565 S
C873 C872 1.516 1_545 S
C873 C874 1.502 . S
C873 C875 1.561 1_545 S
C873 C876 1.526 . S
C874 H858 0.959 . S
C874 H859 0.959 . S
C874 H860 0.961 1_545 S
C874 C873 1.502 . S
C875 H861 0.960 . S
C875 H862 0.961 1_565 S
C875 H863 0.959 1_565 S
C875 C873 1.561 1_565 S
C876 C873 1.526 . S
C876 C877 1.396 . S
C876 C881 1.390 . S
C877 C871 1.465 . S
C877 C876 1.396 . S
C877 C878 1.399 . S
C878 H864 0.929 . S
C878 C877 1.399 . S
C878 C879 1.385 . S
C879 H865 0.931 . S
C879 C878 1.385 . S
C879 C880 1.389 . S
C880 C879 1.389 . S
C880 C881 1.387 . S
C881 H866 0.930 . S
C881 C876 1.390 . S
C881 C880 1.387 . S
H882 C894 0.930 . S
H883 C896 0.930 . S
H884 C897 0.930 . S
H885 C901 0.959 . S
H886 C901 0.959 . S
H887 C901 0.961 . S
H888 C902 0.960 . S
H889 C902 0.961 . S
H890 C902 0.959 . S
H891 C905 0.929 . S
H892 C906 0.931 . S
H893 C908 0.930 . S
C894 H882 0.930 . S
C894 C895 1.399 1_455 S
C894 C899 1.399 . S
C895 C894 1.399 1_655 S
C895 C896 1.376 . S
C896 H883 0.930 . S
C896 C895 1.376 . S
C896 C897 1.388 1_655 S
C897 H884 0.930 . S
C897 C896 1.388 1_455 S
C897 C898 1.390 . S
C898 C897 1.390 . S
C898 C899 1.394 . S
C898 C904 1.465 . S
C899 C894 1.399 . S
C899 C898 1.394 . S
C899 C900 1.516 . S
C900 C899 1.516 . S
C900 C901 1.502 . S
C900 C902 1.561 . S
C900 C903 1.526 . S
C901 H885 0.959 . S
C901 H886 0.959 . S
C901 H887 0.961 . S
C901 C900 1.502 . S
C902 H888 0.960 . S
C902 H889 0.961 . S
C902 H890 0.959 . S
C902 C900 1.561 . S
C903 C900 1.526 . S
C903 C904 1.396 . S
C903 C908 1.390 . S
C904 C898 1.465 . S
C904 C903 1.396 . S
C904 C905 1.399 . S
C905 H891 0.929 . S
C905 C904 1.399 . S
C905 C906 1.385 . S
C906 H892 0.931 . S
C906 C905 1.385 . S
C906 C907 1.389 . S
C907 C906 1.389 . S
C907 C908 1.387 . S
C908 H893 0.930 . S
C908 C903 1.390 . S
C908 C907 1.387 . S
C193 C8 1.627 . S
C205 C9 1.665 . S
C220 C28 1.669 . S
C232 C29 1.699 . S
C247 C48 1.697 1_556 S
C259 C49 1.713 . S
C274 C69 1.641 . S
C286 C68 1.648 . S
C301 C89 1.698 . S
C313 C88 1.662 1_556 S
C328 C109 1.692 . S
C340 C108 1.720 1_556 S
C355 C122 0.574 . S
C367 C121 0.361 . S
C382 C141 0.524 . S
C394 C142 0.419 . S
C409 C162 0.412 . S
C421 C161 0.496 . S
C436 C118 1.770 . S
C448 C2 1.801 . S
C463 C22 1.759 . S
C475 C78 1.806 . S
C490 C42 1.831 . S
C502 C98 1.883 . S
C517 C58 1.598 . S
C529 C139 1.726 . S
C544 C149 1.288 . S
C556 C18 1.202 . S
C571 C179 1.680 . S
C583 C38 1.545 . S
C598 C168 1.309 . S
C610 C1 1.305 . S
C625 C21 1.292 . S
C637 C128 1.321 . S
C652 C158 1.773 . S
C664 C41 1.738 . S
C679 C59 1.807 . S
C691 C61 1.807 . S
C706 C81 1.757 . S
C718 C19 1.779 . S
C733 C39 1.851 . S
C745 C101 1.856 . S
C760 C169 1.283 . S
C772 C62 1.251 . S
C787 C129 1.347 . S
C799 C82 1.319 . S
C814 C159 1.784 . S
C826 C102 1.706 . S
C841 C138 1.733 . S
C853 C119 1.598 . S
C868 C79 1.268 . S
C880 C148 1.282 . S
C895 C178 1.674 . S
C907 C99 1.617 . S
