# Generated by pormake.
# Topology wht, (6)-cn, num edge types: 1
# Building blocks:
#     Node 0, Type 0, BuildingBlock: OJICUG_clean_sbu_0, # of connection points: 6
#     Node 1, Type 0, BuildingBlock: OJICUG_clean_sbu_0, # of connection points: 6
#     Node 2, Type 0, BuildingBlock: OJICUG_clean_sbu_0, # of connection points: 6
#     Node 3, Type 0, BuildingBlock: OJICUG_clean_sbu_0, # of connection points: 6
#     Node 4, Type 0, BuildingBlock: OJICUG_clean_sbu_0, # of connection points: 6
#     Node 5, Type 0, BuildingBlock: OJICUG_clean_sbu_0, # of connection points: 6
#     Node 6, Type 0, BuildingBlock: OJICUG_clean_sbu_0, # of connection points: 6
#     Node 7, Type 0, BuildingBlock: OJICUG_clean_sbu_0, # of connection points: 6
#     Edge 8, Type (0, 0), BuildingBlock: XUDNAN_clean_linker_2, # of connection points: 2
#     Edge 9, Type (0, 0), BuildingBlock: XUDNAN_clean_linker_2, # of connection points: 2
#     Edge 10, Type (0, 0), BuildingBlock: XUDNAN_clean_linker_2, # of connection points: 2
#     Edge 11, Type (0, 0), BuildingBlock: XUDNAN_clean_linker_2, # of connection points: 2
#     Edge 12, Type (0, 0), BuildingBlock: XUDNAN_clean_linker_2, # of connection points: 2
#     Edge 13, Type (0, 0), BuildingBlock: XUDNAN_clean_linker_2, # of connection points: 2
#     Edge 14, Type (0, 0), BuildingBlock: XUDNAN_clean_linker_2, # of connection points: 2
#     Edge 15, Type (0, 0), BuildingBlock: XUDNAN_clean_linker_2, # of connection points: 2
#     Edge 16, Type (0, 0), BuildingBlock: XUDNAN_clean_linker_2, # of connection points: 2
#     Edge 17, Type (0, 0), BuildingBlock: XUDNAN_clean_linker_2, # of connection points: 2
#     Edge 18, Type (0, 0), BuildingBlock: XUDNAN_clean_linker_2, # of connection points: 2
#     Edge 19, Type (0, 0), BuildingBlock: XUDNAN_clean_linker_2, # of connection points: 2
#     Edge 20, Type (0, 0), BuildingBlock: XUDNAN_clean_linker_2, # of connection points: 2
#     Edge 21, Type (0, 0), BuildingBlock: XUDNAN_clean_linker_2, # of connection points: 2
#     Edge 22, Type (0, 0), BuildingBlock: XUDNAN_clean_linker_2, # of connection points: 2
#     Edge 23, Type (0, 0), BuildingBlock: XUDNAN_clean_linker_2, # of connection points: 2
#     Edge 24, Type (0, 0), BuildingBlock: XUDNAN_clean_linker_2, # of connection points: 2
#     Edge 25, Type (0, 0), BuildingBlock: XUDNAN_clean_linker_2, # of connection points: 2
#     Edge 26, Type (0, 0), BuildingBlock: XUDNAN_clean_linker_2, # of connection points: 2
#     Edge 27, Type (0, 0), BuildingBlock: XUDNAN_clean_linker_2, # of connection points: 2
#     Edge 28, Type (0, 0), BuildingBlock: XUDNAN_clean_linker_2, # of connection points: 2
#     Edge 29, Type (0, 0), BuildingBlock: XUDNAN_clean_linker_2, # of connection points: 2
#     Edge 30, Type (0, 0), BuildingBlock: XUDNAN_clean_linker_2, # of connection points: 2
#     Edge 31, Type (0, 0), BuildingBlock: XUDNAN_clean_linker_2, # of connection points: 2
# Relax obj value: 0.284
# Max RMSD: 0.260
# Mean RMSD: 0.260
data_MOF--net-wht--node1-OJICUG_clean_sbu_0--edge1-XUDNAN_clean_linker_2
_symmetry_space_group_name_H-M    P1
_symmetry_Int_Tables_number       1
_symmetry_cell_setting            triclinic
loop_
_symmetry_equiv_pos_as_xyz
'x, y, z'
_cell_length_a     26.554489
_cell_length_b     26.533723
_cell_length_c     49.500094
_cell_angle_alpha  90.135534
_cell_angle_beta   90.033272
_cell_angle_gamma 89.748531
loop_
_atom_site_label
_atom_site_type_symbol
_atom_site_fract_x
_atom_site_fract_y
_atom_site_fract_z
_atom_type_partial_charge
Sc0 Sc 0.05452 0.17248 0.13517 0.0
Sc1 Sc 0.16517 0.22234 0.1633 0.0
Sc2 Sc 0.04855 0.28316 0.17463 0.0
O3 O 0.08938 0.22594 0.15784 0.0
C4 C -0.00173 0.2739 0.11671 0.0
C5 C 0.15348 0.19595 0.10076 0.0
C6 C 0.14957 0.34094 0.16035 0.0
C7 C 0.13818 0.10567 0.16398 0.0
C8 C 0.9746 0.18899 0.1819 0.0
C9 C 0.12514 0.25227 0.22173 0.0
O10 O 0.01026 0.22776 0.11369 0.0
O11 O 0.1786 0.21459 0.1203 0.0
O12 O 0.10234 0.34144 0.16438 0.0
O13 O 0.09492 0.11044 0.1533 0.0
O14 O 0.98846 0.23374 0.18729 0.0
O15 O 0.15811 0.23199 0.20643 0.0
O16 O 0.99622 0.1615 0.16436 0.0
O17 O 0.16703 0.14263 0.16837 0.0
O18 O 0.08424 0.27174 0.21317 0.0
O19 O 0.10939 0.17825 0.10358 0.0
O20 O 0.01036 0.29943 0.13745 0.0
O21 O 0.1754 0.3009 0.15932 0.0
Sc22 Sc 0.17703 0.54439 0.41482 0.0
Sc23 Sc 0.21028 0.659 0.38452 0.0
Sc24 Sc 0.29137 0.55473 0.37833 0.0
O25 O 0.22624 0.58589 0.39261 0.0
C26 C 0.28423 0.50326 0.43586 0.0
C27 C 0.17966 0.64899 0.44677 0.0
C28 C 0.32805 0.66504 0.39473 0.0
C29 C 0.10086 0.61316 0.38111 0.0
C30 C 0.20995 0.46662 0.36945 0.0
C31 C 0.25218 0.61885 0.32782 0.0
O32 O 0.23653 0.50734 0.43716 0.0
O33 O 0.19224 0.67485 0.42622 0.0
O34 O 0.33764 0.61887 0.38979 0.0
O35 O 0.10957 0.57454 0.39554 0.0
O36 O 0.25277 0.4869 0.36547 0.0
O37 O 0.2259 0.64908 0.34207 0.0
O38 O 0.17744 0.48454 0.38574 0.0
O39 O 0.134 0.64529 0.37533 0.0
O40 O 0.27893 0.58386 0.33808 0.0
O41 O 0.17337 0.60142 0.44588 0.0
O42 O 0.31013 0.52144 0.41667 0.0
O43 O 0.28422 0.6834 0.39306 0.0
Sc44 Sc 0.95165 0.84183 0.64032 0.0
Sc45 Sc 0.84516 0.76628 0.63764 0.0
Sc46 Sc 0.9602 0.71426 0.65765 0.0
O47 O 0.91894 0.77427 0.64546 0.0
C48 C 0.03206 0.76409 0.61537 0.0
C49 C 0.88115 0.83738 0.58949 0.0
C50 C 0.88586 0.66526 0.61391 0.0
C51 C 0.8432 0.87223 0.66473 0.0
C52 C 0.00874 0.8059 0.69164 0.0
C53 C 0.86159 0.7006 0.69138 0.0
O54 O 0.01893 0.80865 0.62225 0.0
O55 O 0.84734 0.81217 0.60158 0.0
O56 O 0.91954 0.66029 0.63213 0.0
O57 O 0.8872 0.88313 0.65626 0.0
O58 O 0.00798 0.75979 0.68421 0.0
O59 O 0.8344 0.71842 0.67242 0.0
O60 O 0.98317 0.83994 0.67995 0.0
O61 O 0.82481 0.82847 0.66252 0.0
O62 O 0.90956 0.70072 0.69068 0.0
O63 O 0.92295 0.84849 0.60032 0.0
O64 O 0.01135 0.72492 0.62494 0.0
O65 O 0.85925 0.70459 0.61169 0.0
Sc66 Sc 0.69169 0.43822 0.8845 0.0
Sc67 Sc 0.77878 0.34275 0.89838 0.0
Sc68 Sc 0.81489 0.46996 0.90375 0.0
O69 O 0.76179 0.41702 0.89582 0.0
C70 C 0.75917 0.52077 0.85471 0.0
C71 C 0.71572 0.35098 0.84324 0.0
C72 C 0.87617 0.38667 0.8705 0.0
C73 C 0.66812 0.33759 0.91858 0.0
C74 C 0.71437 0.5141 0.9319 0.0
C75 C 0.8359 0.38915 0.94964 0.0
O76 O 0.71688 0.50137 0.86053 0.0
O77 O 0.74216 0.32616 0.86017 0.0
O78 O 0.87366 0.43058 0.88091 0.0
O79 O 0.65523 0.37664 0.90532 0.0
O80 O 0.76157 0.51581 0.92691 0.0
O81 O 0.81852 0.35199 0.93629 0.0
O82 O 0.68439 0.48449 0.91966 0.0
O83 O 0.71357 0.32402 0.92114 0.0
O84 O 0.83585 0.43401 0.94075 0.0
O85 O 0.69643 0.39375 0.84859 0.0
O86 O 0.7992 0.51031 0.86749 0.0
O87 O 0.84452 0.35248 0.87527 0.0
Sc88 Sc 0.56603 0.218 0.58041 0.0
Sc89 Sc 0.68922 0.26254 0.58997 0.0
Sc90 Sc 0.58643 0.34143 0.60477 0.0
O91 O 0.61382 0.27423 0.59144 0.0
C92 C 0.51421 0.31806 0.55568 0.0
C93 C 0.65216 0.21362 0.53476 0.0
C94 C 0.68714 0.37842 0.57572 0.0
C95 C 0.65168 0.15529 0.61004 0.0
C96 C 0.507 0.26391 0.63027 0.0
C97 C 0.67175 0.31324 0.64773 0.0
O98 O 0.51859 0.2704 0.55832 0.0
O99 O 0.68526 0.23612 0.54892 0.0
O100 O 0.64353 0.38669 0.58529 0.0
O101 O 0.6062 0.15966 0.60242 0.0
O102 O 0.52541 0.30762 0.62707 0.0
O103 O 0.69755 0.28695 0.63118 0.0
O104 O 0.52018 0.22632 0.61598 0.0
O105 O 0.68426 0.18866 0.60545 0.0
O106 O 0.6311 0.33592 0.64117 0.0
O107 O 0.60819 0.2035 0.54359 0.0
O108 O 0.53933 0.34967 0.56958 0.0
O109 O 0.70743 0.33532 0.57537 0.0
Sc110 Sc 0.20262 0.07712 0.86219 0.0
Sc111 Sc 0.27563 0.18467 0.85 0.0
Sc112 Sc 0.32222 0.06567 0.83079 0.0
O113 O 0.26655 0.109 0.84742 0.0
C114 C 0.2872 0.99729 0.88017 0.0
C115 C 0.22895 0.15878 0.90759 0.0
C116 C 0.38585 0.14601 0.86412 0.0
C117 C 0.15887 0.17937 0.83751 0.0
C118 C 0.22166 0.01322 0.80838 0.0
C119 C 0.32047 0.16176 0.79155 0.0
O120 O 0.24368 0.01719 0.88246 0.0
O121 O 0.25553 0.18609 0.89213 0.0
O122 O 0.38199 0.10218 0.85383 0.0
O123 O 0.15302 0.13355 0.84438 0.0
O124 O 0.26875 0.02233 0.80703 0.0
O125 O 0.29798 0.19044 0.80834 0.0
O126 O 0.19317 0.03143 0.82665 0.0
O127 O 0.20077 0.20166 0.83848 0.0
O128 O 0.33232 0.1163 0.79696 0.0
O129 O 0.20661 0.1192 0.89946 0.0
O130 O 0.31881 0.01127 0.86253 0.0
O131 O 0.35096 0.17832 0.86275 0.0
Sc132 Sc 0.42364 0.77116 0.08713 0.0
Sc133 Sc 0.30751 0.70692 0.07888 0.0
Sc134 Sc 0.4159 0.64259 0.10189 0.0
O135 O 0.38241 0.70713 0.08953 0.0
C136 C 0.49877 0.68864 0.06268 0.0
C137 C 0.35412 0.77611 0.03373 0.0
C138 C 0.33518 0.59754 0.06672 0.0
C139 C 0.31966 0.81096 0.11052 0.0
C140 C 0.46983 0.72083 0.14063 0.0
C141 C 0.31029 0.64445 0.13372 0.0
O142 O 0.48362 0.73419 0.06443 0.0
O143 O 0.32207 0.74305 0.04071 0.0
O144 O 0.38169 0.60604 0.0682 0.0
O145 O 0.36753 0.81351 0.10974 0.0
O146 O 0.45485 0.67654 0.13522 0.0
O147 O 0.28773 0.67312 0.11698 0.0
O148 O 0.46188 0.75811 0.12504 0.0
O149 O 0.29478 0.77766 0.098 0.0
O150 O 0.35519 0.62862 0.1301 0.0
O151 O 0.39002 0.79088 0.04884 0.0
O152 O 0.47873 0.65266 0.07562 0.0
O153 O 0.30691 0.63361 0.0596 0.0
Sc154 Sc 0.66591 0.94513 0.33082 0.0
Sc155 Sc 0.72388 0.83473 0.35281 0.0
Sc156 Sc 0.79281 0.94401 0.34582 0.0
O157 O 0.72731 0.90765 0.34321 0.0
C158 C 0.75336 0.98976 0.29342 0.0
C159 C 0.65414 0.84366 0.29977 0.0
C160 C 0.82899 0.83329 0.32798 0.0
C161 C 0.62108 0.86951 0.37507 0.0
C162 C 0.71414 0.02428 0.36848 0.0
C163 C 0.79526 0.88256 0.39868 0.0
O164 O 0.70904 0.9929 0.30331 0.0
O165 O 0.67328 0.8188 0.31936 0.0
O166 O 0.83792 0.87775 0.33639 0.0
O167 O 0.61542 0.90241 0.35659 0.0
O168 O 0.75718 0.01474 0.35814 0.0
O169 O 0.77386 0.84459 0.38766 0.0
O170 O 0.67549 0.99809 0.36305 0.0
O171 O 0.66246 0.84712 0.37943 0.0
O172 O 0.79924 0.92507 0.38717 0.0
O173 O 0.65411 0.89167 0.29884 0.0
O174 O 0.78783 0.96324 0.30416 0.0
O175 O 0.78475 0.81616 0.32643 0.0
H176 H 0.95657 0.08986 0.19179 0.0
H177 H 0.89561 0.23973 0.20543 0.0
H178 H 0.82332 0.20265 0.22981 0.0
H179 H 0.83652 0.0227 0.18434 0.0
H180 H 0.85936 0.96846 0.20255 0.0
H181 H 0.90244 0.00629 0.1832 0.0
H182 H 0.95794 0.01962 0.22575 0.0
H183 H 0.91547 0.98139 0.24504 0.0
H184 H 0.92963 0.04454 0.25609 0.0
H185 H 0.7603 0.14904 0.25485 0.0
H186 H 0.71926 0.08547 0.28387 0.0
H187 H 0.82439 0.97202 0.25511 0.0
C188 C 0.92756 0.11487 0.19949 0.0
C189 C 0.93131 0.16758 0.19652 0.0
C190 C 0.89334 0.19917 0.20749 0.0
C191 C 0.85195 0.17844 0.2211 0.0
C192 C 0.84939 0.12617 0.22364 0.0
C193 C 0.8866 0.09493 0.2134 0.0
C194 C 0.87832 0.04065 0.22135 0.0
C195 C 0.86857 0.00759 0.19637 0.0
C196 C 0.92297 0.0204 0.23806 0.0
C197 C 0.83134 0.04629 0.23832 0.0
C198 C 0.81435 0.09562 0.23884 0.0
C199 C 0.77294 0.11022 0.25437 0.0
C200 C 0.74964 0.07384 0.27063 0.0
C201 C 0.76866 0.02396 0.27156 0.0
C202 C 0.80891 0.00985 0.25454 0.0
H203 H 0.3806 0.51363 0.45543 0.0
H204 H 0.24673 0.42113 0.46159 0.0
H205 H 0.29208 0.36269 0.49186 0.0
H206 H 0.4716 0.41492 0.45575 0.0
H207 H 0.51633 0.44773 0.47672 0.0
H208 H 0.47362 0.48284 0.45557 0.0
H209 H 0.44123 0.53252 0.49724 0.0
H210 H 0.48428 0.498 0.51848 0.0
H211 H 0.41792 0.49858 0.52612 0.0
H212 H 0.35355 0.31086 0.51821 0.0
H213 H 0.42339 0.27544 0.5452 0.0
H214 H 0.51549 0.40494 0.52548 0.0
C215 C 0.36081 0.48127 0.46336 0.0
C216 C 0.31022 0.47175 0.45615 0.0
C217 C 0.28537 0.42928 0.46703 0.0
C218 C 0.3109 0.3957 0.48407 0.0
C219 C 0.36098 0.40565 0.49043 0.0
C220 C 0.38539 0.44796 0.48095 0.0
C221 C 0.4388 0.45062 0.49172 0.0
C222 C 0.47735 0.44891 0.46855 0.0
C223 C 0.44596 0.49772 0.50945 0.0
C224 C 0.44072 0.40283 0.50841 0.0
C225 C 0.39565 0.37711 0.50701 0.0
C226 C 0.38883 0.33091 0.51975 0.0
C227 C 0.42882 0.31093 0.53484 0.0
C228 C 0.47467 0.33755 0.53746 0.0
C229 C 0.48067 0.38401 0.52396 0.0
H230 H -0.00205 0.88461 0.72663 0.0
H231 H 0.1028 0.76758 0.70193 0.0
H232 H 0.16974 0.8079 0.72925 0.0
H233 H 0.08016 0.9854 0.72373 0.0
H234 H 0.05642 0.01753 0.75324 0.0
H235 H 0.01561 0.97705 0.73401 0.0
H236 H 0.99599 0.92453 0.77677 0.0
H237 H 0.03581 0.9656 0.79632 0.0
H238 H 0.04716 0.89858 0.79632 0.0
H239 H 0.22767 0.8679 0.75474 0.0
H240 H 0.26816 0.93426 0.78241 0.0
H241 H 0.12364 0.00919 0.79167 0.0
C242 C 0.03467 0.86674 0.72753 0.0
C243 C 0.04524 0.82291 0.71227 0.0
C244 C 0.09377 0.80076 0.71379 0.0
C245 C 0.13211 0.82369 0.72903 0.0
C246 C 0.12092 0.86815 0.74296 0.0
C247 C 0.07297 0.88864 0.74289 0.0
C248 C 0.0706 0.93691 0.7592 0.0
C249 C 0.05477 0.98186 0.74148 0.0
C250 C 0.03531 0.93103 0.78361 0.0
C251 C 0.12498 0.94116 0.76796 0.0
C252 C 0.15361 0.90144 0.75825 0.0
C253 C 0.20542 0.89873 0.76278 0.0
C254 C 0.22819 0.93685 0.77827 0.0
C255 C 0.19903 0.97677 0.78926 0.0
C256 C 0.14687 0.97895 0.78373 0.0
H257 H 0.49943 0.60565 0.03149 0.0
H258 H 0.58603 0.73974 0.04931 0.0
H259 H 0.65324 0.70979 0.01796 0.0
H260 H 0.59951 0.51862 0.02753 0.0
H261 H 0.57247 0.48371 -0.00015 0.0
H262 H 0.53212 0.51669 0.02319 0.0
H263 H 0.49098 0.56564 0.98353 0.0
H264 H 0.53089 0.53244 0.96003 0.0
H265 H 0.53033 0.60037 0.96055 0.0
H266 H 0.71295 0.6602 0.98577 0.0
H267 H 0.75427 0.60173 0.95332 0.0
H268 H 0.62403 0.50377 0.95699 0.0
C269 C 0.53256 0.62882 0.02884 0.0
C270 C 0.53807 0.67461 0.04298 0.0
C271 C 0.58134 0.70444 0.0386 0.0
C272 C 0.61962 0.68759 0.02096 0.0
C273 C 0.61326 0.64146 0.00767 0.0
C274 C 0.57023 0.6131 0.01119 0.0
C275 C 0.57105 0.56563 0.99439 0.0
C276 C 0.56867 0.51839 0.01232 0.0
C277 C 0.52829 0.56608 0.97338 0.0
C278 C 0.62182 0.57079 0.98113 0.0
C279 C 0.64601 0.61449 0.98895 0.0
C280 C 0.69403 0.62614 0.9794 0.0
C281 C 0.71733 0.59261 0.9611 0.0
C282 C 0.69229 0.54831 0.95247 0.0
C283 C 0.64413 0.53747 0.96291 0.0
H284 H 0.21199 0.29197 0.24014 0.0
H285 H 0.06527 0.24029 0.26587 0.0
H286 H 0.07925 0.27817 0.31091 0.0
H287 H 0.27811 0.28802 0.30878 0.0
H288 H 0.31046 0.34597 0.30142 0.0
H289 H 0.29571 0.30256 0.27451 0.0
H290 H 0.24947 0.3743 0.24901 0.0
H291 H 0.26317 0.41761 0.27592 0.0
H292 H 0.19888 0.40773 0.26557 0.0
H293 H 0.10106 0.33456 0.34885 0.0
H294 H 0.12859 0.4054 0.37728 0.0
H295 H 0.25972 0.42513 0.32601 0.0
C296 C 0.1842 0.28624 0.25584 0.0
C297 C 0.13825 0.26205 0.25005 0.0
C298 C 0.10116 0.25771 0.27034 0.0
C299 C 0.10884 0.2791 0.2959 0.0
C300 C 0.15355 0.30509 0.30062 0.0
C301 C 0.19082 0.30856 0.28119 0.0
C302 C 0.23112 0.34583 0.28948 0.0
C303 C 0.28186 0.31898 0.29381 0.0
C304 C 0.23588 0.38888 0.26877 0.0
C305 C 0.20947 0.36451 0.31596 0.0
C306 C 0.16537 0.33968 0.32229 0.0
C307 C 0.13609 0.35353 0.34443 0.0
C308 C 0.15191 0.39414 0.36035 0.0
C309 C 0.19641 0.4209 0.35392 0.0
C310 C 0.22595 0.40505 0.33171 0.0
H311 H 0.0654 0.67515 0.59371 0.0
H312 H 0.08002 0.83739 0.58571 0.0
H313 H 0.12889 0.82497 0.54377 0.0
H314 H 0.18995 0.63998 0.56397 0.0
H315 H 0.1634 0.58567 0.5474 0.0
H316 H 0.13779 0.60725 0.57912 0.0
H317 H 0.04928 0.6134 0.55723 0.0
H318 H 0.07457 0.5925 0.52544 0.0
H319 H 0.0407 0.65142 0.52742 0.0
H320 H 0.16547 0.79506 0.49949 0.0
H321 H 0.18826 0.75042 0.45741 0.0
H322 H 0.14806 0.60808 0.49464 0.0
C323 C 0.08008 0.70819 0.58367 0.0
C324 C 0.06894 0.75729 0.59316 0.0
C325 C 0.08831 0.79937 0.57903 0.0
C326 C 0.11614 0.79268 0.55515 0.0
C327 C 0.1246 0.74373 0.54583 0.0
C328 C 0.10757 0.70221 0.55985 0.0
C329 C 0.11709 0.65387 0.54437 0.0
C330 C 0.15428 0.61968 0.55963 0.0
C331 C 0.06747 0.62622 0.53825 0.0
C332 C 0.14049 0.67477 0.51896 0.0
C333 C 0.1452 0.72657 0.52028 0.0
C334 C 0.16274 0.75442 0.49842 0.0
C335 C 0.17541 0.72869 0.47455 0.0
C336 C 0.17007 0.67562 0.47264 0.0
C337 C 0.15306 0.64854 0.4954 0.0
H338 H 0.8449 0.55972 0.83261 0.0
H339 H 0.6824 0.55615 0.82242 0.0
H340 H 0.69064 0.60562 0.78044 0.0
H341 H 0.86502 0.68635 0.80617 0.0
H342 H 0.92308 0.66865 0.78978 0.0
H343 H 0.90371 0.63684 0.82013 0.0
H344 H 0.90991 0.55095 0.79524 0.0
H345 H 0.92892 0.58245 0.76477 0.0
H346 H 0.87489 0.54156 0.76443 0.0
H347 H 0.7173 0.65114 0.73828 0.0
H348 H 0.75995 0.68951 0.69925 0.0
H349 H 0.90501 0.6614 0.73717 0.0
C350 C 0.81081 0.56999 0.8219 0.0
C351 C 0.76293 0.55425 0.83095 0.0
C352 C 0.71948 0.56797 0.81598 0.0
C353 C 0.72377 0.59606 0.79212 0.0
C354 C 0.7717 0.6101 0.78358 0.0
C355 C 0.8144 0.59765 0.79807 0.0
C356 C 0.86172 0.61485 0.7839 0.0
C357 C 0.89003 0.65401 0.80102 0.0
C358 C 0.89584 0.56977 0.77666 0.0
C359 C 0.83903 0.63847 0.75893 0.0
C360 C 0.78708 0.63566 0.75919 0.0
C361 C 0.75795 0.65387 0.73794 0.0
C362 C 0.78261 0.67553 0.71584 0.0
C363 C 0.83595 0.67855 0.71509 0.0
C364 C 0.86427 0.65984 0.73707 0.0
H365 H 0.9651 0.23306 0.06879 0.0
H366 H 0.96874 0.37293 0.11468 0.0
H367 H 0.92558 0.41651 0.07734 0.0
H368 H 0.98951 0.28732 0.00458 0.0
H369 H 0.94793 0.24583 0.98637 0.0
H370 H 0.97744 0.22481 0.01712 0.0
H371 H 0.88987 0.2043 0.03734 0.0
H372 H 0.86006 0.22517 0.00661 0.0
H373 H 0.84205 0.2527 0.03852 0.0
H374 H 0.88584 0.44587 0.03468 0.0
H375 H 0.84944 0.45899 0.98947 0.0
H376 H 0.87005 0.29992 0.97137 0.0
C377 C 0.95651 0.27276 0.07114 0.0
C378 C 0.97032 0.29948 0.09476 0.0
C379 C 0.95851 0.35151 0.09687 0.0
C380 C 0.934 0.37667 0.07576 0.0
C381 C 0.92137 0.34928 0.05274 0.0
C382 C 0.93196 0.29848 0.05031 0.0
C383 C 0.91509 0.27815 0.02317 0.0
C384 C 0.96018 0.25785 0.00685 0.0
C385 C 0.87434 0.23769 0.02663 0.0
C386 C 0.89364 0.32565 0.01067 0.0
C387 C 0.89777 0.36619 0.0281 0.0
C388 C 0.88208 0.4144 0.02089 0.0
C389 C 0.86164 0.42145 0.99512 0.0
C390 C 0.85681 0.38044 0.9769 0.0
C391 C 0.8728 0.33188 0.98493 0.0
H392 H 0.59966 0.15095 0.50053 0.0
H393 H 0.73762 0.23766 0.50659 0.0
H394 H 0.76462 0.20508 0.46224 0.0
H395 H 0.6545 0.04304 0.47256 0.0
H396 H 0.60259 0.02841 0.45046 0.0
H397 H 0.59149 0.06277 0.48126 0.0
H398 H 0.549 0.13473 0.45407 0.0
H399 H 0.56004 0.1005 0.42313 0.0
H400 H 0.58283 0.16404 0.42677 0.0
H401 H 0.78047 0.15706 0.41935 0.0
H402 H 0.78389 0.09671 0.38134 0.0
H403 H 0.63535 0.04217 0.40298 0.0
C404 C 0.63512 0.1639 0.49235 0.0
C405 C 0.66638 0.19703 0.50713 0.0
C406 C 0.71289 0.21233 0.49575 0.0
C407 C 0.72854 0.19418 0.47047 0.0
C408 C 0.69722 0.16095 0.45669 0.0
C409 C 0.65139 0.14609 0.46716 0.0
C410 C 0.62639 0.10739 0.44911 0.0
C411 C 0.6183 0.05746 0.46426 0.0
C412 C 0.57661 0.12791 0.43759 0.0
C413 C 0.6659 0.10191 0.42724 0.0
C414 C 0.70626 0.13345 0.43183 0.0
C415 C 0.74876 0.1327 0.4153 0.0
C416 C 0.75037 0.09823 0.39377 0.0
C417 C 0.70976 0.0649 0.38898 0.0
C418 C 0.66668 0.06766 0.40573 0.0
H419 H 0.37629 0.11631 0.75125 0.0
H420 H 0.3028 0.25742 0.77281 0.0
H421 H 0.33766 0.29696 0.73201 0.0
H422 H 0.48854 0.16876 0.72821 0.0
H423 H 0.49763 0.12516 0.70064 0.0
H424 H 0.46284 0.10608 0.73004 0.0
H425 H 0.38656 0.08265 0.69992 0.0
H426 H 0.42129 0.10141 0.67035 0.0
H427 H 0.3605 0.12905 0.67726 0.0
H428 H 0.38776 0.32395 0.69188 0.0
H429 H 0.44612 0.33508 0.65357 0.0
H430 H 0.48516 0.17618 0.65705 0.0
C431 C 0.36663 0.15524 0.74716 0.0
C432 C 0.33669 0.18362 0.76537 0.0
C433 C 0.32554 0.23469 0.75927 0.0
C434 C 0.34515 0.25758 0.73609 0.0
C435 C 0.37549 0.22889 0.71898 0.0
C436 C 0.38575 0.17869 0.72403 0.0
C437 C 0.42148 0.15705 0.70308 0.0
C438 C 0.47052 0.13817 0.71629 0.0
C439 C 0.39592 0.11506 0.68668 0.0
C440 C 0.43062 0.20328 0.68588 0.0
C441 C 0.40363 0.24427 0.69538 0.0
C442 C 0.40845 0.29195 0.68396 0.0
C443 C 0.44186 0.29794 0.66229 0.0
C444 C 0.46983 0.25643 0.65215 0.0
C445 C 0.46358 0.20842 0.664 0.0
H446 H 0.27141 0.82114 0.01112 0.0
H447 H 0.42868 0.78559 0.99697 0.0
H448 H 0.42567 0.83218 0.95382 0.0
H449 H 0.22883 0.81951 0.93965 0.0
H450 H 0.18777 0.87312 0.94426 0.0
H451 H 0.19995 0.83101 0.97205 0.0
H452 H 0.22979 0.90649 0.00117 0.0
H453 H 0.21799 0.94872 0.97346 0.0
H454 H 0.27954 0.94626 0.98879 0.0
H455 H 0.40795 0.88655 0.91452 0.0
H456 H 0.37832 0.94921 0.88174 0.0
H457 H 0.2329 0.95471 0.92203 0.0
C458 C 0.30464 0.82212 -0.00155 0.0
C459 C 0.35006 0.79917 0.00687 0.0
C460 C 0.3935 0.80258 0.99052 0.0
C461 C 0.39207 0.82879 0.96603 0.0
C462 C 0.34705 0.85192 0.95845 0.0
C463 C 0.30413 0.84917 0.97416 0.0
C464 C 0.26227 0.88176 0.96259 0.0
C465 C 0.21703 0.84941 0.95413 0.0
C466 C 0.2465 0.92326 0.9827 0.0
C467 C 0.2887 0.90374 0.93818 0.0
C468 C 0.3373 0.88533 0.93606 0.0
C469 C 0.36986 0.901 0.91581 0.0
C470 C 0.35255 0.9368 0.89729 0.0
C471 C 0.30314 0.95712 0.8992 0.0
C472 C 0.27073 0.93985 0.91987 0.0
H473 H 0.50533 0.81051 0.16086 0.0
H474 H 0.49797 0.65021 0.17821 0.0
H475 H 0.54553 0.66405 0.22033 0.0
H476 H 0.63065 0.83041 0.18589 0.0
H477 H 0.6164 0.89149 0.20003 0.0
H478 H 0.58195 0.86903 0.17108 0.0
H479 H 0.49788 0.88219 0.1968 0.0
H480 H 0.53205 0.90483 0.22579 0.0
H481 H 0.48922 0.85273 0.22924 0.0
H482 H 0.59424 0.69513 0.26045 0.0
H483 H 0.63835 0.74168 0.29647 0.0
H484 H 0.61316 0.88168 0.25299 0.0
C485 C 0.51372 0.77821 0.17344 0.0
C486 C 0.49799 0.72922 0.16608 0.0
C487 C 0.50964 0.68812 0.1833 0.0
C488 C 0.53671 0.69555 0.20729 0.0
C489 C 0.55178 0.74427 0.21382 0.0
C490 C 0.54057 0.78492 0.19747 0.0
C491 C 0.56057 0.83353 0.2093 0.0
C492 C 0.59972 0.85751 0.19045 0.0
C493 C 0.51735 0.87048 0.21566 0.0
C494 C 0.58483 0.81382 0.23487 0.0
C495 C 0.57948 0.76224 0.23706 0.0
C496 C 0.59869 0.73555 0.25897 0.0
C497 C 0.62379 0.76238 0.27931 0.0
C498 C 0.62933 0.81543 0.27763 0.0
C499 C 0.60966 0.84121 0.25497 0.0
H500 H 0.16153 0.12348 0.94482 0.0
H501 H 0.28829 0.22496 0.93593 0.0
H502 H 0.2844 0.2446 0.9847 0.0
H503 H 0.09341 0.19962 0.99306 0.0
H504 H 0.07065 0.14594 0.01157 0.0
H505 H 0.08372 0.14035 0.976 0.0
H506 H 0.14418 0.06542 0.98569 0.0
H507 H 0.1316 0.07105 0.02131 0.0
H508 H 0.19548 0.07374 0.00912 0.0
H509 H 0.26768 0.25121 0.03513 0.0
H510 H 0.23584 0.24832 0.08211 0.0
H511 H 0.11965 0.14354 0.05686 0.0
C512 C 0.18848 0.14991 0.95306 0.0
C513 C 0.22527 0.17257 0.93653 0.0
C514 C 0.25958 0.20725 0.94815 0.0
C515 C 0.25783 0.21851 0.97586 0.0
C516 C 0.22135 0.19507 0.99161 0.0
C517 C 0.18701 0.16188 0.98054 0.0
C518 C 0.15103 0.14224 0.00165 0.0
C519 C 0.09649 0.158 0.99518 0.0
C520 C 0.15589 0.08471 0.00461 0.0
C521 C 0.17064 0.16932 0.02638 0.0
C522 C 0.21133 0.19946 0.02031 0.0
C523 C 0.23572 0.22783 0.0401 0.0
C524 C 0.21753 0.22579 0.06674 0.0
C525 C 0.17517 0.19583 0.0732 0.0
C526 C 0.15194 0.16705 0.05266 0.0
H527 H 0.34643 0.58682 0.17571 0.0
H528 H 0.21929 0.68023 0.15184 0.0
H529 H 0.18721 0.67791 0.19846 0.0
H530 H 0.27594 0.51065 0.22751 0.0
H531 H 0.33006 0.50844 0.24946 0.0
H532 H 0.33843 0.51055 0.21333 0.0
H533 H 0.39477 0.58946 0.21887 0.0
H534 H 0.38581 0.58835 0.25487 0.0
H535 H 0.37003 0.64425 0.23599 0.0
H536 H 0.1765 0.67752 0.24855 0.0
H537 H 0.18245 0.671 0.29809 0.0
H538 H 0.31554 0.57646 0.2898 0.0
C539 C 0.31104 0.60558 0.18005 0.0
C540 C 0.28562 0.63396 0.16002 0.0
C541 C 0.23957 0.65818 0.16671 0.0
C542 C 0.221 0.65716 0.1932 0.0
C543 C 0.24841 0.6311 0.21273 0.0
C544 C 0.29184 0.60477 0.2064 0.0
C545 C 0.31589 0.58252 0.23152 0.0
C546 C 0.31502 0.5246 0.23039 0.0
C547 C 0.3698 0.60235 0.23553 0.0
C548 C 0.28054 0.60256 0.25309 0.0
C549 C 0.24165 0.63012 0.24177 0.0
C550 C 0.2062 0.65522 0.25763 0.0
C551 C 0.21022 0.65165 0.28581 0.0
C552 C 0.24943 0.62316 0.29794 0.0
C553 C 0.28484 0.59814 0.28121 0.0
H554 H 0.76709 0.81942 0.44017 0.0
H555 H 0.87322 0.93668 0.41847 0.0
H556 H 0.90609 0.9373 0.46486 0.0
H557 H 0.73744 0.86755 0.50494 0.0
H558 H 0.73353 0.80715 0.52139 0.0
H559 H 0.72015 0.81233 0.48583 0.0
H560 H 0.78786 0.74449 0.47524 0.0
H561 H 0.80104 0.7386 0.51081 0.0
H562 H 0.85119 0.75284 0.48756 0.0
H563 H 0.92489 0.92922 0.51318 0.0
H564 H 0.9321 0.90921 0.56153 0.0
H565 H 0.8134 0.79795 0.55315 0.0
C566 C 0.79782 0.8445 0.44515 0.0
C567 C 0.81749 0.87813 0.42582 0.0
C568 C 0.8573 0.9109 0.43307 0.0
C569 C 0.87633 0.91151 0.45933 0.0
C570 C 0.85519 0.87913 0.47812 0.0
C571 C 0.81717 0.84589 0.47147 0.0
C572 C 0.80037 0.81635 0.49602 0.0
C573 C 0.74456 0.82648 0.50242 0.0
C574 C 0.81075 0.75971 0.49217 0.0
C575 C 0.83448 0.83883 0.51741 0.0
C576 C 0.86586 0.87479 0.50651 0.0
C577 C 0.90075 0.90096 0.52203 0.0
C578 C 0.90445 0.88939 0.54947 0.0
C579 C 0.87324 0.85214 0.56112 0.0
C580 C 0.83739 0.82698 0.54488 0.0
H581 H 0.63158 0.36893 0.68945 0.0
H582 H 0.7463 0.25654 0.6713 0.0
H583 H 0.76643 0.25008 0.71976 0.0
H584 H 0.70057 0.43153 0.74254 0.0
H585 H 0.64508 0.44347 0.76254 0.0
H586 H 0.64019 0.43915 0.72634 0.0
H587 H 0.57285 0.36928 0.73149 0.0
H588 H 0.57818 0.37282 0.76773 0.0
H589 H 0.58767 0.31346 0.75066 0.0
H590 H 0.77293 0.25444 0.77041 0.0
H591 H 0.77113 0.27591 0.81897 0.0
H592 H 0.65239 0.38535 0.80365 0.0
C593 C 0.66122 0.34323 0.69557 0.0
C594 C 0.6873 0.31332 0.67647 0.0
C595 C 0.72587 0.28015 0.68546 0.0
C596 C 0.7374 0.27589 0.71299 0.0
C597 C 0.71021 0.30514 0.73128 0.0
C598 C 0.67337 0.33862 0.72293 0.0
C599 C 0.6504 0.36647 0.74663 0.0
C600 C 0.65964 0.42352 0.74438 0.0
C601 C 0.59393 0.35479 0.74927 0.0
C602 C 0.68022 0.34353 0.7696 0.0
C603 C 0.7142 0.3079 0.76039 0.0
C604 C 0.74643 0.28225 0.77789 0.0
C605 C 0.74487 0.29446 0.80546 0.0
C606 C 0.71157 0.33225 0.81517 0.0
C607 C 0.67822 0.3562 0.79695 0.0
H608 H 0.23691 0.07974 0.16174 0.0
H609 H 0.08753 0.01683 0.17145 0.0
H610 H 0.12351 0.93108 0.16751 0.0
H611 H 0.26993 0.00622 0.11022 0.0
H612 H 0.33554 -0.0016 0.11867 0.0
H613 H 0.30194 0.05327 0.1301 0.0
H614 H 0.3258 0.03332 0.17969 0.0
H615 H 0.36035 0.97852 0.1684 0.0
H616 H 0.3117 0.9722 0.19353 0.0
H617 H 0.1715 0.85552 0.15434 0.0
H618 H 0.22671 0.79478 0.13137 0.0
H619 H 0.34513 0.90684 0.12731 0.0
C620 C 0.21206 0.04787 0.16432 0.0
C621 C 0.15953 0.05473 0.16735 0.0
C622 C 0.12791 0.01223 0.16945 0.0
C623 C 0.1481 0.96348 0.16737 0.0
C624 C 0.19982 0.95813 0.1631 0.0
C625 C 0.23147 -0.0008 0.1617 0.0
C626 C 0.28377 0.98411 0.15231 0.0
C627 C 0.2986 0.01215 0.12628 0.0
C628 C 0.32271 0.99253 0.17483 0.0
C629 C 0.27583 0.92855 0.1471 0.0
C630 C 0.22757 0.9142 0.15425 0.0
C631 C 0.20958 0.86607 0.14911 0.0
C632 C 0.24119 0.83202 0.13577 0.0
C633 C 0.29014 0.84635 0.12732 0.0
C634 C 0.30817 0.89479 0.13379 0.0
H635 H 0.43085 0.64872 0.39405 0.0
H636 H 0.31711 0.763 0.41049 0.0
H637 H 0.38282 0.82684 0.415 0.0
H638 H 0.53083 0.70583 0.44001 0.0
H639 H 0.58015 0.68868 0.41669 0.0
H640 H 0.52507 0.64959 0.41975 0.0
H641 H 0.5095 0.65735 0.3682 0.0
H642 H 0.56421 0.69639 0.36503 0.0
H643 H 0.50399 0.71909 0.3533 0.0
H644 H 0.45662 0.88108 0.40724 0.0
H645 H 0.53642 0.91998 0.3921 0.0
H646 H 0.60382 0.77145 0.38508 0.0
C647 C 0.41995 0.6868 0.39944 0.0
C648 C 0.36879 0.7007 0.4016 0.0
C649 C 0.35602 0.75121 0.40842 0.0
C650 C 0.39312 0.78793 0.41126 0.0
C651 C 0.44302 0.77356 0.40785 0.0
C652 C 0.45672 0.72405 0.40268 0.0
C653 C 0.51264 0.71967 0.39743 0.0
C654 C 0.53871 0.68914 0.41981 0.0
C655 C 0.52315 0.69681 0.36933 0.0
C656 C 0.52733 0.7747 0.39876 0.0
C657 C 0.48674 0.80522 0.40503 0.0
C658 C 0.48932 0.8577 0.40334 0.0
C659 C 0.5345 0.87949 0.39464 0.0
C660 C 0.57628 0.84869 0.3882 0.0
C661 C 0.57292 0.79588 0.39098 0.0
H662 H 0.74695 0.13642 0.62713 0.0
H663 H 0.59595 0.07424 0.62862 0.0
H664 H 0.62844 0.00068 0.65421 0.0
H665 H 0.80778 0.02831 0.61234 0.0
H666 H 0.86303 0.04169 0.63225 0.0
H667 H 0.82559 0.09254 0.61932 0.0
H668 H 0.8152 0.12774 0.66801 0.0
H669 H 0.85217 0.07612 0.68112 0.0
H670 H 0.7898 0.08796 0.69409 0.0
H671 H 0.67959 0.92992 0.67406 0.0
H672 H 0.74393 0.86391 0.67946 0.0
H673 H 0.86117 0.97357 0.66399 0.0
C674 C 0.72013 0.10798 0.63319 0.0
C675 C 0.66877 0.11114 0.62583 0.0
C676 C 0.63546 0.07261 0.634 0.0
C677 C 0.6535 0.03109 0.64882 0.0
C678 C 0.70465 0.02923 0.6555 0.0
C679 C 0.73739 0.06676 0.64778 0.0
C680 C 0.79156 0.05329 0.65381 0.0
C681 C 0.82382 0.05395 0.62789 0.0
C682 C 0.81346 0.08837 0.67555 0.0
C683 C 0.78483 0.0006 0.66454 0.0
C684 C 0.73435 0.98806 0.66637 0.0
C685 C 0.7191 0.93958 0.67307 0.0
C686 C 0.75614 0.90228 0.67612 0.0
C687 C 0.80775 0.91345 0.67171 0.0
C688 C 0.8222 0.96388 0.66764 0.0
H689 H 0.40431 0.23921 0.88405 0.0
H690 H 0.47069 0.08972 0.87794 0.0
H691 H 0.54607 0.12083 0.90251 0.0
H692 H 0.50902 0.30422 0.86843 0.0
H693 H 0.49583 0.35664 0.8906 0.0
H694 H 0.44504 0.31953 0.87759 0.0
H695 H 0.41479 0.30244 0.92659 0.0
H696 H 0.46637 0.33904 0.93975 0.0
H697 H 0.45767 0.27492 0.95069 0.0
H698 H 0.61725 0.17158 0.92279 0.0
H699 H 0.68131 0.23708 0.92926 0.0
H700 H 0.56654 0.35282 0.92081 0.0
C701 C 0.43404 0.21227 0.88822 0.0
C702 C 0.43144 0.16181 0.87908 0.0
C703 C 0.47182 0.12851 0.88474 0.0
C704 C 0.51441 0.14575 0.89896 0.0
C705 C 0.51549 0.19605 0.90752 0.0
C706 C 0.47623 0.22872 0.90213 0.0
C707 C 0.48848 0.28241 0.90978 0.0
C708 C 0.4844 0.3177 0.88514 0.0
C709 C 0.45483 0.30076 0.93309 0.0
C710 C 0.54223 0.27575 0.91893 0.0
C711 C 0.55665 0.22549 0.91848 0.0
C712 C 0.60612 0.21084 0.92357 0.0
C713 C 0.64228 0.24854 0.92737 0.0
C714 C 0.6289 0.30026 0.92526 0.0
C715 C 0.57779 0.31371 0.9227 0.0
H716 H 0.89633 0.56393 0.624 0.0
H717 H 0.83861 0.67078 0.56533 0.0
H718 H 0.78949 0.60367 0.54371 0.0
H719 H 0.89599 0.44939 0.57505 0.0
H720 H 0.87775 0.40843 0.60232 0.0
H721 H 0.91805 0.46162 0.60888 0.0
H722 H 0.85529 0.493 0.64531 0.0
H723 H 0.81431 0.44089 0.63852 0.0
H724 H 0.79053 0.50445 0.63609 0.0
H725 H 0.72861 0.5337 0.53756 0.0
H726 H 0.67274 0.4592 0.5417 0.0
H727 H 0.77483 0.39489 0.60064 0.0
C728 C 0.87551 0.57249 0.60575 0.0
C729 C 0.8709 0.62252 0.59655 0.0
C730 C 0.84234 0.63266 0.57291 0.0
C731 C 0.81432 0.59476 0.5604 0.0
C732 C 0.81636 0.54654 0.57123 0.0
C733 C 0.84766 0.53475 0.59276 0.0
C734 C 0.8389 0.48133 0.60223 0.0
C735 C 0.88544 0.44823 0.59678 0.0
C736 C 0.82385 0.4799 0.6323 0.0
C737 C 0.79545 0.46661 0.58409 0.0
C738 C 0.78304 0.50455 0.56621 0.0
C739 C 0.7392 0.50267 0.55055 0.0
C740 C 0.7075 0.46068 0.55313 0.0
C741 C 0.72058 0.42121 0.57086 0.0
C742 C 0.7653 0.42398 0.58616 0.0
H743 H 0.14276 0.27009 0.85973 0.0
H744 H 0.07532 0.16051 0.80588 0.0
H745 H 0.00138 0.21725 0.8 0.0
H746 H 0.03519 0.29454 0.89491 0.0
H747 H 0.04821 0.36022 0.90103 0.0
H748 H 0.09923 0.31678 0.89575 0.0
H749 H 0.13183 0.37255 0.85653 0.0
H750 H 0.08005 0.4158 0.86148 0.0
H751 H 0.09051 0.38766 0.82877 0.0
H752 H 0.93276 0.28103 0.80376 0.0
H753 H 0.86728 0.33503 0.82395 0.0
H754 H 0.97727 0.39983 0.87837 0.0
C755 C 0.11301 0.25876 0.84604 0.0
C756 C 0.11481 0.21172 0.8327 0.0
C757 C 0.07454 0.1968 0.81594 0.0
C758 C 0.03293 0.22903 0.81229 0.0
C759 C 0.03238 0.27544 0.8258 0.0
C760 C 0.07107 0.28974 0.84276 0.0
C761 C 0.05789 0.33664 0.85879 0.0
C762 C 0.06022 0.32639 0.88941 0.0
C763 C 0.09211 0.38078 0.85091 0.0
C764 C 0.00453 0.34543 0.84922 0.0
C765 C 0.99141 0.31097 0.82933 0.0
C766 C 0.94282 0.30851 0.819 0.0
C767 C 0.90596 0.33949 0.83054 0.0
C768 C 0.91765 0.37159 0.85258 0.0
C769 C 0.96793 0.37666 0.86105 0.0
H770 H 0.23568 0.57211 0.07271 0.0
H771 H 0.38605 0.53534 0.10145 0.0
H772 H 0.34976 0.47921 0.13562 0.0
H773 H 0.16947 0.56279 0.13821 0.0
H774 H 0.11527 0.53249 0.12354 0.0
H775 H 0.15157 0.5764 0.10385 0.0
H776 H 0.16535 0.50868 0.06666 0.0
H777 H 0.12816 0.46516 0.08587 0.0
H778 H 0.19128 0.44819 0.07586 0.0
H779 H 0.29963 0.42607 0.16526 0.0
H780 H 0.24101 0.361 0.18085 0.0
H781 H 0.12269 0.42475 0.13086 0.0
C782 C 0.26091 0.55254 0.08636 0.0
C783 C 0.3136 0.55937 0.08496 0.0
C784 C 0.3455 0.53152 0.10243 0.0
C785 C 0.32524 0.5001 0.12219 0.0
C786 C 0.27313 0.49576 0.12372 0.0
C787 C 0.24139 0.51987 0.10578 0.0
C788 C 0.18744 0.50264 0.10924 0.0
C789 C 0.15396 0.54618 0.11931 0.0
C790 C 0.16688 0.47979 0.08285 0.0
C791 C 0.19438 0.46309 0.13098 0.0
C792 C 0.24384 0.4617 0.13982 0.0
C793 C 0.26081 0.42675 0.15859 0.0
C794 C 0.22726 0.38998 0.16728 0.0
C795 C 0.17768 0.38793 0.1568 0.0
C796 C 0.16019 0.42622 0.13942 0.0
H797 H 0.90845 0.83211 0.36188 0.0
H798 H 0.83872 0.74788 0.29682 0.0
H799 H 0.89702 0.67632 0.30555 0.0
H800 H 0.03647 0.78705 0.35387 0.0
H801 H 0.04653 0.78519 0.38987 0.0
H802 H 0.00289 0.82997 0.37574 0.0
H803 H 0.93347 0.79536 0.40751 0.0
H804 H 0.97646 0.74908 0.42093 0.0
H805 H 0.91765 0.72941 0.40617 0.0
H806 H 0.96459 0.6138 0.32236 0.0
H807 H 0.03761 0.57007 0.34362 0.0
H808 H 0.05282 0.69333 0.40038 0.0
C809 C 0.90658 0.79939 0.34878 0.0
C810 C 0.87014 0.79594 0.32819 0.0
C811 C 0.8673 0.75152 0.31232 0.0
C812 C 0.8998 0.7106 0.31734 0.0
C813 C 0.93386 0.71447 0.33871 0.0
C814 C 0.93739 0.75797 0.35405 0.0
C815 C 0.97489 0.75238 0.37672 0.0
C816 C 0.01774 0.7909 0.37386 0.0
C817 C 0.94905 0.75682 0.40446 0.0
C818 C 0.99295 0.69926 0.37149 0.0
C819 C 0.96906 0.67766 0.34953 0.0
C820 C 0.9829 0.63 0.33986 0.0
C821 C 0.02378 0.60506 0.35221 0.0
C822 C 0.0494 0.62792 0.37402 0.0
C823 C 0.03252 0.67452 0.38427 0.0
loop_
_geom_bond_atom_site_label_1
_geom_bond_atom_site_label_2
_geom_bond_distance
_geom_bond_site_symmetry_2
_ccdc_geom_bond_type
Sc0 O3 2.025 . S
Sc0 O10 2.105 1_455 S
Sc0 O13 2.105 . S
Sc0 O16 2.105 . S
Sc0 O19 2.105 . S
Sc1 O3 2.025 . S
Sc1 O11 2.105 . S
Sc1 O15 2.105 . S
Sc1 O17 2.105 . S
Sc1 O21 2.105 . S
Sc2 O3 2.025 . S
Sc2 O12 2.105 . S
Sc2 O14 2.105 1_455 S
Sc2 O18 2.105 . S
Sc2 O20 2.105 1_455 S
O3 Sc0 2.025 . S
O3 Sc1 2.025 . S
O3 Sc2 2.025 . S
C4 O10 1.268 . S
C4 O20 1.268 . S
C5 O11 1.268 . S
C5 O19 1.268 . S
C6 O12 1.268 . S
C6 O21 1.268 . S
C7 O13 1.268 . S
C7 O17 1.268 . S
C8 O14 1.268 . S
C8 O16 1.268 1_655 S
C9 O15 1.268 . S
C9 O18 1.268 . S
O10 Sc0 2.105 1_655 S
O10 C4 1.268 . S
O11 Sc1 2.105 . S
O11 C5 1.268 . S
O12 Sc2 2.105 . S
O12 C6 1.268 . S
O13 Sc0 2.105 . S
O13 C7 1.268 . S
O14 Sc2 2.105 1_655 S
O14 C8 1.268 . S
O15 Sc1 2.105 . S
O15 C9 1.268 . S
O16 Sc0 2.105 . S
O16 C8 1.268 1_455 S
O17 Sc1 2.105 . S
O17 C7 1.268 . S
O18 Sc2 2.105 . S
O18 C9 1.268 . S
O19 Sc0 2.105 . S
O19 C5 1.268 . S
O20 Sc2 2.105 1_655 S
O20 C4 1.268 . S
O21 Sc1 2.105 . S
O21 C6 1.268 . S
Sc22 O25 2.025 . S
Sc22 O32 2.105 . S
Sc22 O35 2.105 . S
Sc22 O38 2.105 . S
Sc22 O41 2.105 . S
Sc23 O25 2.025 . S
Sc23 O33 2.105 . S
Sc23 O37 2.105 . S
Sc23 O39 2.105 . S
Sc23 O43 2.105 . S
Sc24 O25 2.025 . S
Sc24 O34 2.105 . S
Sc24 O36 2.105 . S
Sc24 O40 2.105 . S
Sc24 O42 2.105 . S
O25 Sc22 2.025 . S
O25 Sc23 2.025 . S
O25 Sc24 2.025 . S
C26 O32 1.268 . S
C26 O42 1.268 . S
C27 O33 1.268 . S
C27 O41 1.268 . S
C28 O34 1.268 . S
C28 O43 1.268 . S
C29 O35 1.268 . S
C29 O39 1.268 . S
C30 O36 1.268 . S
C30 O38 1.268 . S
C31 O37 1.268 . S
C31 O40 1.268 . S
O32 Sc22 2.105 . S
O32 C26 1.268 . S
O33 Sc23 2.105 . S
O33 C27 1.268 . S
O34 Sc24 2.105 . S
O34 C28 1.268 . S
O35 Sc22 2.105 . S
O35 C29 1.268 . S
O36 Sc24 2.105 . S
O36 C30 1.268 . S
O37 Sc23 2.105 . S
O37 C31 1.268 . S
O38 Sc22 2.105 . S
O38 C30 1.268 . S
O39 Sc23 2.105 . S
O39 C29 1.268 . S
O40 Sc24 2.105 . S
O40 C31 1.268 . S
O41 Sc22 2.105 . S
O41 C27 1.268 . S
O42 Sc24 2.105 . S
O42 C26 1.268 . S
O43 Sc23 2.105 . S
O43 C28 1.268 . S
Sc44 O47 2.025 . S
Sc44 O54 2.105 1_655 S
Sc44 O57 2.105 . S
Sc44 O60 2.105 . S
Sc44 O63 2.105 . S
Sc45 O47 2.025 . S
Sc45 O55 2.105 . S
Sc45 O59 2.105 . S
Sc45 O61 2.105 . S
Sc45 O65 2.105 . S
Sc46 O47 2.025 . S
Sc46 O56 2.105 . S
Sc46 O58 2.105 1_655 S
Sc46 O62 2.105 . S
Sc46 O64 2.105 1_655 S
O47 Sc44 2.025 . S
O47 Sc45 2.025 . S
O47 Sc46 2.025 . S
C48 O54 1.268 . S
C48 O64 1.268 . S
C49 O55 1.268 . S
C49 O63 1.268 . S
C50 O56 1.268 . S
C50 O65 1.268 . S
C51 O57 1.268 . S
C51 O61 1.268 . S
C52 O58 1.268 . S
C52 O60 1.268 1_455 S
C53 O59 1.268 . S
C53 O62 1.268 . S
O54 Sc44 2.105 1_455 S
O54 C48 1.268 . S
O55 Sc45 2.105 . S
O55 C49 1.268 . S
O56 Sc46 2.105 . S
O56 C50 1.268 . S
O57 Sc44 2.105 . S
O57 C51 1.268 . S
O58 Sc46 2.105 1_455 S
O58 C52 1.268 . S
O59 Sc45 2.105 . S
O59 C53 1.268 . S
O60 Sc44 2.105 . S
O60 C52 1.268 1_655 S
O61 Sc45 2.105 . S
O61 C51 1.268 . S
O62 Sc46 2.105 . S
O62 C53 1.268 . S
O63 Sc44 2.105 . S
O63 C49 1.268 . S
O64 Sc46 2.105 1_455 S
O64 C48 1.268 . S
O65 Sc45 2.105 . S
O65 C50 1.268 . S
Sc66 O69 2.025 . S
Sc66 O76 2.105 . S
Sc66 O79 2.105 . S
Sc66 O82 2.105 . S
Sc66 O85 2.105 . S
Sc67 O69 2.025 . S
Sc67 O77 2.105 . S
Sc67 O81 2.105 . S
Sc67 O83 2.105 . S
Sc67 O87 2.105 . S
Sc68 O69 2.025 . S
Sc68 O78 2.105 . S
Sc68 O80 2.105 . S
Sc68 O84 2.105 . S
Sc68 O86 2.105 . S
O69 Sc66 2.025 . S
O69 Sc67 2.025 . S
O69 Sc68 2.025 . S
C70 O76 1.268 . S
C70 O86 1.268 . S
C71 O77 1.268 . S
C71 O85 1.268 . S
C72 O78 1.268 . S
C72 O87 1.268 . S
C73 O79 1.268 . S
C73 O83 1.268 . S
C74 O80 1.268 . S
C74 O82 1.268 . S
C75 O81 1.268 . S
C75 O84 1.268 . S
O76 Sc66 2.105 . S
O76 C70 1.268 . S
O77 Sc67 2.105 . S
O77 C71 1.268 . S
O78 Sc68 2.105 . S
O78 C72 1.268 . S
O79 Sc66 2.105 . S
O79 C73 1.268 . S
O80 Sc68 2.105 . S
O80 C74 1.268 . S
O81 Sc67 2.105 . S
O81 C75 1.268 . S
O82 Sc66 2.105 . S
O82 C74 1.268 . S
O83 Sc67 2.105 . S
O83 C73 1.268 . S
O84 Sc68 2.105 . S
O84 C75 1.268 . S
O85 Sc66 2.105 . S
O85 C71 1.268 . S
O86 Sc68 2.105 . S
O86 C70 1.268 . S
O87 Sc67 2.105 . S
O87 C72 1.268 . S
Sc88 O91 2.025 . S
Sc88 O98 2.105 . S
Sc88 O101 2.105 . S
Sc88 O104 2.105 . S
Sc88 O107 2.105 . S
Sc89 O91 2.025 . S
Sc89 O99 2.105 . S
Sc89 O103 2.105 . S
Sc89 O105 2.105 . S
Sc89 O109 2.105 . S
Sc90 O91 2.025 . S
Sc90 O100 2.105 . S
Sc90 O102 2.105 . S
Sc90 O106 2.105 . S
Sc90 O108 2.105 . S
O91 Sc88 2.025 . S
O91 Sc89 2.025 . S
O91 Sc90 2.025 . S
C92 O98 1.268 . S
C92 O108 1.268 . S
C93 O99 1.268 . S
C93 O107 1.268 . S
C94 O100 1.268 . S
C94 O109 1.268 . S
C95 O101 1.268 . S
C95 O105 1.268 . S
C96 O102 1.268 . S
C96 O104 1.268 . S
C97 O103 1.268 . S
C97 O106 1.268 . S
O98 Sc88 2.105 . S
O98 C92 1.268 . S
O99 Sc89 2.105 . S
O99 C93 1.268 . S
O100 Sc90 2.105 . S
O100 C94 1.268 . S
O101 Sc88 2.105 . S
O101 C95 1.268 . S
O102 Sc90 2.105 . S
O102 C96 1.268 . S
O103 Sc89 2.105 . S
O103 C97 1.268 . S
O104 Sc88 2.105 . S
O104 C96 1.268 . S
O105 Sc89 2.105 . S
O105 C95 1.268 . S
O106 Sc90 2.105 . S
O106 C97 1.268 . S
O107 Sc88 2.105 . S
O107 C93 1.268 . S
O108 Sc90 2.105 . S
O108 C92 1.268 . S
O109 Sc89 2.105 . S
O109 C94 1.268 . S
Sc110 O113 2.025 . S
Sc110 O120 2.105 1_545 S
Sc110 O123 2.105 . S
Sc110 O126 2.105 . S
Sc110 O129 2.105 . S
Sc111 O113 2.025 . S
Sc111 O121 2.105 . S
Sc111 O125 2.105 . S
Sc111 O127 2.105 . S
Sc111 O131 2.105 . S
Sc112 O113 2.025 . S
Sc112 O122 2.105 . S
Sc112 O124 2.105 1_545 S
Sc112 O128 2.105 . S
Sc112 O130 2.105 1_545 S
O113 Sc110 2.025 . S
O113 Sc111 2.025 . S
O113 Sc112 2.025 . S
C114 O120 1.268 . S
C114 O130 1.268 . S
C115 O121 1.268 . S
C115 O129 1.268 . S
C116 O122 1.268 . S
C116 O131 1.268 . S
C117 O123 1.268 . S
C117 O127 1.268 . S
C118 O124 1.268 . S
C118 O126 1.268 1_565 S
C119 O125 1.268 . S
C119 O128 1.268 . S
O120 Sc110 2.105 1_565 S
O120 C114 1.268 . S
O121 Sc111 2.105 . S
O121 C115 1.268 . S
O122 Sc112 2.105 . S
O122 C116 1.268 . S
O123 Sc110 2.105 . S
O123 C117 1.268 . S
O124 Sc112 2.105 1_565 S
O124 C118 1.268 . S
O125 Sc111 2.105 . S
O125 C119 1.268 . S
O126 Sc110 2.105 . S
O126 C118 1.268 1_545 S
O127 Sc111 2.105 . S
O127 C117 1.268 . S
O128 Sc112 2.105 . S
O128 C119 1.268 . S
O129 Sc110 2.105 . S
O129 C115 1.268 . S
O130 Sc112 2.105 1_565 S
O130 C114 1.268 . S
O131 Sc111 2.105 . S
O131 C116 1.268 . S
Sc132 O135 2.025 . S
Sc132 O142 2.105 . S
Sc132 O145 2.105 . S
Sc132 O148 2.105 . S
Sc132 O151 2.105 . S
Sc133 O135 2.025 . S
Sc133 O143 2.105 . S
Sc133 O147 2.105 . S
Sc133 O149 2.105 . S
Sc133 O153 2.105 . S
Sc134 O135 2.025 . S
Sc134 O144 2.105 . S
Sc134 O146 2.105 . S
Sc134 O150 2.105 . S
Sc134 O152 2.105 . S
O135 Sc132 2.025 . S
O135 Sc133 2.025 . S
O135 Sc134 2.025 . S
C136 O142 1.268 . S
C136 O152 1.268 . S
C137 O143 1.268 . S
C137 O151 1.268 . S
C138 O144 1.268 . S
C138 O153 1.268 . S
C139 O145 1.268 . S
C139 O149 1.268 . S
C140 O146 1.268 . S
C140 O148 1.268 . S
C141 O147 1.268 . S
C141 O150 1.268 . S
O142 Sc132 2.105 . S
O142 C136 1.268 . S
O143 Sc133 2.105 . S
O143 C137 1.268 . S
O144 Sc134 2.105 . S
O144 C138 1.268 . S
O145 Sc132 2.105 . S
O145 C139 1.268 . S
O146 Sc134 2.105 . S
O146 C140 1.268 . S
O147 Sc133 2.105 . S
O147 C141 1.268 . S
O148 Sc132 2.105 . S
O148 C140 1.268 . S
O149 Sc133 2.105 . S
O149 C139 1.268 . S
O150 Sc134 2.105 . S
O150 C141 1.268 . S
O151 Sc132 2.105 . S
O151 C137 1.268 . S
O152 Sc134 2.105 . S
O152 C136 1.268 . S
O153 Sc133 2.105 . S
O153 C138 1.268 . S
Sc154 O157 2.025 . S
Sc154 O164 2.105 1_565 S
Sc154 O167 2.105 . S
Sc154 O170 2.105 1_565 S
Sc154 O173 2.105 . S
Sc155 O157 2.025 . S
Sc155 O165 2.105 . S
Sc155 O169 2.105 . S
Sc155 O171 2.105 . S
Sc155 O175 2.105 . S
Sc156 O157 2.025 . S
Sc156 O166 2.105 . S
Sc156 O168 2.105 1_565 S
Sc156 O172 2.105 . S
Sc156 O174 2.105 . S
O157 Sc154 2.025 . S
O157 Sc155 2.025 . S
O157 Sc156 2.025 . S
C158 O164 1.268 . S
C158 O174 1.268 1_545 S
C159 O165 1.268 . S
C159 O173 1.268 . S
C160 O166 1.268 . S
C160 O175 1.268 . S
C161 O167 1.268 . S
C161 O171 1.268 . S
C162 O168 1.268 . S
C162 O170 1.268 . S
C163 O169 1.268 . S
C163 O172 1.268 . S
O164 Sc154 2.105 1_545 S
O164 C158 1.268 . S
O165 Sc155 2.105 . S
O165 C159 1.268 . S
O166 Sc156 2.105 . S
O166 C160 1.268 . S
O167 Sc154 2.105 . S
O167 C161 1.268 . S
O168 Sc156 2.105 1_545 S
O168 C162 1.268 . S
O169 Sc155 2.105 . S
O169 C163 1.268 . S
O170 Sc154 2.105 1_545 S
O170 C162 1.268 . S
O171 Sc155 2.105 . S
O171 C161 1.268 . S
O172 Sc156 2.105 . S
O172 C163 1.268 . S
O173 Sc154 2.105 . S
O173 C159 1.268 . S
O174 Sc156 2.105 . S
O174 C158 1.268 1_565 S
O175 Sc155 2.105 . S
O175 C160 1.268 . S
H176 C188 0.930 . S
H177 C190 0.930 . S
H178 C191 0.930 . S
H179 C195 0.959 . S
H180 C195 0.959 1_565 S
H181 C195 0.961 . S
H182 C196 0.960 . S
H183 C196 0.961 1_565 S
H184 C196 0.959 . S
H185 C199 0.929 . S
H186 C200 0.931 . S
H187 C202 0.930 1_565 S
C188 H176 0.930 . S
C188 C189 1.399 . S
C188 C193 1.399 . S
C189 C188 1.399 . S
C189 C190 1.376 . S
C190 H177 0.930 . S
C190 C189 1.376 . S
C190 C191 1.388 . S
C191 H178 0.930 . S
C191 C190 1.388 . S
C191 C192 1.390 . S
C192 C191 1.390 . S
C192 C193 1.394 . S
C192 C198 1.465 . S
C193 C188 1.399 . S
C193 C192 1.394 . S
C193 C194 1.516 . S
C194 C193 1.516 . S
C194 C195 1.502 . S
C194 C196 1.561 . S
C194 C197 1.526 . S
C195 H179 0.959 . S
C195 H180 0.959 1_545 S
C195 H181 0.961 . S
C195 C194 1.502 . S
C196 H182 0.960 . S
C196 H183 0.961 1_545 S
C196 H184 0.959 . S
C196 C194 1.561 . S
C197 C194 1.526 . S
C197 C198 1.396 . S
C197 C202 1.390 . S
C198 C192 1.465 . S
C198 C197 1.396 . S
C198 C199 1.399 . S
C199 H185 0.929 . S
C199 C198 1.399 . S
C199 C200 1.385 . S
C200 H186 0.931 . S
C200 C199 1.385 . S
C200 C201 1.389 . S
C201 C200 1.389 . S
C201 C202 1.387 . S
C202 H187 0.930 1_545 S
C202 C197 1.390 . S
C202 C201 1.387 . S
H203 C215 0.930 . S
H204 C217 0.930 . S
H205 C218 0.930 . S
H206 C222 0.959 . S
H207 C222 0.959 . S
H208 C222 0.961 . S
H209 C223 0.960 . S
H210 C223 0.961 . S
H211 C223 0.959 . S
H212 C226 0.929 . S
H213 C227 0.931 . S
H214 C229 0.930 . S
C215 H203 0.930 . S
C215 C216 1.399 . S
C215 C220 1.399 . S
C216 C215 1.399 . S
C216 C217 1.376 . S
C217 H204 0.930 . S
C217 C216 1.376 . S
C217 C218 1.388 . S
C218 H205 0.930 . S
C218 C217 1.388 . S
C218 C219 1.390 . S
C219 C218 1.390 . S
C219 C220 1.394 . S
C219 C225 1.465 . S
C220 C215 1.399 . S
C220 C219 1.394 . S
C220 C221 1.516 . S
C221 C220 1.516 . S
C221 C222 1.502 . S
C221 C223 1.561 . S
C221 C224 1.526 . S
C222 H206 0.959 . S
C222 H207 0.959 . S
C222 H208 0.961 . S
C222 C221 1.502 . S
C223 H209 0.960 . S
C223 H210 0.961 . S
C223 H211 0.959 . S
C223 C221 1.561 . S
C224 C221 1.526 . S
C224 C225 1.396 . S
C224 C229 1.390 . S
C225 C219 1.465 . S
C225 C224 1.396 . S
C225 C226 1.399 . S
C226 H212 0.929 . S
C226 C225 1.399 . S
C226 C227 1.385 . S
C227 H213 0.931 . S
C227 C226 1.385 . S
C227 C228 1.389 . S
C228 C227 1.389 . S
C228 C229 1.387 . S
C229 H214 0.930 . S
C229 C224 1.390 . S
C229 C228 1.387 . S
H230 C242 0.930 . S
H231 C244 0.930 . S
H232 C245 0.930 . S
H233 C249 0.959 . S
H234 C249 0.959 . S
H235 C249 0.961 . S
H236 C250 0.960 . S
H237 C250 0.961 . S
H238 C250 0.959 . S
H239 C253 0.929 1_545 S
H240 C254 0.931 1_545 S
H241 C256 0.930 . S
C242 H230 0.930 . S
C242 C243 1.399 . S
C242 C247 1.399 . S
C243 C242 1.399 . S
C243 C244 1.376 . S
C244 H231 0.930 . S
C244 C243 1.376 . S
C244 C245 1.388 . S
C245 H232 0.930 . S
C245 C244 1.388 . S
C245 C246 1.390 . S
C246 C245 1.390 . S
C246 C247 1.394 . S
C246 C252 1.465 . S
C247 C242 1.399 . S
C247 C246 1.394 . S
C247 C248 1.516 . S
C248 C247 1.516 . S
C248 C249 1.502 . S
C248 C250 1.561 . S
C248 C251 1.526 . S
C249 H233 0.959 . S
C249 H234 0.959 . S
C249 H235 0.961 . S
C249 C248 1.502 . S
C250 H236 0.960 . S
C250 H237 0.961 . S
C250 H238 0.959 . S
C250 C248 1.561 . S
C251 C248 1.526 . S
C251 C252 1.396 . S
C251 C256 1.390 . S
C252 C246 1.465 . S
C252 C251 1.396 . S
C252 C253 1.399 . S
C253 H239 0.929 1_565 S
C253 C252 1.399 . S
C253 C254 1.385 . S
C254 H240 0.931 1_565 S
C254 C253 1.385 . S
C254 C255 1.389 . S
C255 C254 1.389 . S
C255 C256 1.387 . S
C256 H241 0.930 . S
C256 C251 1.390 . S
C256 C255 1.387 . S
H257 C269 0.930 . S
H258 C271 0.930 . S
H259 C272 0.930 . S
H260 C276 0.959 . S
H261 C276 0.959 . S
H262 C276 0.961 . S
H263 C277 0.960 . S
H264 C277 0.961 . S
H265 C277 0.959 . S
H266 C280 0.929 1_554 S
H267 C281 0.931 . S
H268 C283 0.930 . S
C269 H257 0.930 . S
C269 C270 1.399 . S
C269 C274 1.399 . S
C270 C269 1.399 . S
C270 C271 1.376 . S
C271 H258 0.930 . S
C271 C270 1.376 . S
C271 C272 1.388 . S
C272 H259 0.930 . S
C272 C271 1.388 . S
C272 C273 1.390 . S
C273 C272 1.390 . S
C273 C274 1.394 . S
C273 C279 1.465 1_554 S
C274 C269 1.399 . S
C274 C273 1.394 . S
C274 C275 1.516 1_554 S
C275 C274 1.516 1_556 S
C275 C276 1.502 . S
C275 C277 1.561 . S
C275 C278 1.526 . S
C276 H260 0.959 . S
C276 H261 0.959 . S
C276 H262 0.961 . S
C276 C275 1.502 . S
C277 H263 0.960 . S
C277 H264 0.961 . S
C277 H265 0.959 . S
C277 C275 1.561 . S
C278 C275 1.526 . S
C278 C279 1.396 . S
C278 C283 1.390 . S
C279 C273 1.465 1_556 S
C279 C278 1.396 . S
C279 C280 1.399 . S
C280 H266 0.929 1_556 S
C280 C279 1.399 . S
C280 C281 1.385 . S
C281 H267 0.931 . S
C281 C280 1.385 . S
C281 C282 1.389 . S
C282 C281 1.389 . S
C282 C283 1.387 . S
C283 H268 0.930 . S
C283 C278 1.390 . S
C283 C282 1.387 . S
H284 C296 0.930 . S
H285 C298 0.930 . S
H286 C299 0.930 . S
H287 C303 0.959 . S
H288 C303 0.959 . S
H289 C303 0.961 . S
H290 C304 0.960 . S
H291 C304 0.961 . S
H292 C304 0.959 . S
H293 C307 0.929 . S
H294 C308 0.931 . S
H295 C310 0.930 . S
C296 H284 0.930 . S
C296 C297 1.399 . S
C296 C301 1.399 . S
C297 C296 1.399 . S
C297 C298 1.376 . S
C298 H285 0.930 . S
C298 C297 1.376 . S
C298 C299 1.388 . S
C299 H286 0.930 . S
C299 C298 1.388 . S
C299 C300 1.390 . S
C300 C299 1.390 . S
C300 C301 1.394 . S
C300 C306 1.465 . S
C301 C296 1.399 . S
C301 C300 1.394 . S
C301 C302 1.516 . S
C302 C301 1.516 . S
C302 C303 1.502 . S
C302 C304 1.561 . S
C302 C305 1.526 . S
C303 H287 0.959 . S
C303 H288 0.959 . S
C303 H289 0.961 . S
C303 C302 1.502 . S
C304 H290 0.960 . S
C304 H291 0.961 . S
C304 H292 0.959 . S
C304 C302 1.561 . S
C305 C302 1.526 . S
C305 C306 1.396 . S
C305 C310 1.390 . S
C306 C300 1.465 . S
C306 C305 1.396 . S
C306 C307 1.399 . S
C307 H293 0.929 . S
C307 C306 1.399 . S
C307 C308 1.385 . S
C308 H294 0.931 . S
C308 C307 1.385 . S
C308 C309 1.389 . S
C309 C308 1.389 . S
C309 C310 1.387 . S
C310 H295 0.930 . S
C310 C305 1.390 . S
C310 C309 1.387 . S
H311 C323 0.930 . S
H312 C325 0.930 1_655 S
H313 C326 0.930 . S
H314 C330 0.959 . S
H315 C330 0.959 . S
H316 C330 0.961 . S
H317 C331 0.960 . S
H318 C331 0.961 . S
H319 C331 0.959 . S
H320 C334 0.929 . S
H321 C335 0.931 . S
H322 C337 0.930 . S
C323 H311 0.930 . S
C323 C324 1.399 . S
C323 C328 1.399 . S
C324 C323 1.399 . S
C324 C325 1.376 . S
C325 H312 0.930 1_455 S
C325 C324 1.376 . S
C325 C326 1.388 . S
C326 H313 0.930 . S
C326 C325 1.388 . S
C326 C327 1.390 . S
C327 C326 1.390 . S
C327 C328 1.394 . S
C327 C333 1.465 . S
C328 C323 1.399 . S
C328 C327 1.394 . S
C328 C329 1.516 . S
C329 C328 1.516 . S
C329 C330 1.502 . S
C329 C331 1.561 . S
C329 C332 1.526 . S
C330 H314 0.959 . S
C330 H315 0.959 . S
C330 H316 0.961 . S
C330 C329 1.502 . S
C331 H317 0.960 . S
C331 H318 0.961 . S
C331 H319 0.959 . S
C331 C329 1.561 . S
C332 C329 1.526 . S
C332 C333 1.396 . S
C332 C337 1.390 . S
C333 C327 1.465 . S
C333 C332 1.396 . S
C333 C334 1.399 . S
C334 H320 0.929 . S
C334 C333 1.399 . S
C334 C335 1.385 . S
C335 H321 0.931 . S
C335 C334 1.385 . S
C335 C336 1.389 . S
C336 C335 1.389 . S
C336 C337 1.387 . S
C337 H322 0.930 . S
C337 C332 1.390 . S
C337 C336 1.387 . S
H338 C350 0.930 . S
H339 C352 0.930 . S
H340 C353 0.930 . S
H341 C357 0.959 . S
H342 C357 0.959 . S
H343 C357 0.961 . S
H344 C358 0.960 . S
H345 C358 0.961 . S
H346 C358 0.959 . S
H347 C361 0.929 . S
H348 C362 0.931 . S
H349 C364 0.930 . S
C350 H338 0.930 . S
C350 C351 1.399 . S
C350 C355 1.399 . S
C351 C350 1.399 . S
C351 C352 1.376 . S
C352 H339 0.930 . S
C352 C351 1.376 . S
C352 C353 1.388 . S
C353 H340 0.930 . S
C353 C352 1.388 . S
C353 C354 1.390 . S
C354 C353 1.390 . S
C354 C355 1.394 . S
C354 C360 1.465 . S
C355 C350 1.399 . S
C355 C354 1.394 . S
C355 C356 1.516 . S
C356 C355 1.516 . S
C356 C357 1.502 . S
C356 C358 1.561 . S
C356 C359 1.526 . S
C357 H341 0.959 . S
C357 H342 0.959 . S
C357 H343 0.961 . S
C357 C356 1.502 . S
C358 H344 0.960 . S
C358 H345 0.961 . S
C358 H346 0.959 . S
C358 C356 1.561 . S
C359 C356 1.526 . S
C359 C360 1.396 . S
C359 C364 1.390 . S
C360 C354 1.465 . S
C360 C359 1.396 . S
C360 C361 1.399 . S
C361 H347 0.929 . S
C361 C360 1.399 . S
C361 C362 1.385 . S
C362 H348 0.931 . S
C362 C361 1.385 . S
C362 C363 1.389 . S
C363 C362 1.389 . S
C363 C364 1.387 . S
C364 H349 0.930 . S
C364 C359 1.390 . S
C364 C363 1.387 . S
H365 C377 0.930 . S
H366 C379 0.930 . S
H367 C380 0.930 . S
H368 C384 0.959 . S
H369 C384 0.959 . S
H370 C384 0.955 1_554 S
H371 C385 0.960 . S
H372 C385 0.961 1_556 S
H373 C385 0.959 . S
H374 C388 0.929 . S
H375 C389 0.931 . S
H376 C391 0.930 . S
C377 H365 0.930 . S
C377 C378 1.399 . S
C377 C382 1.399 . S
C378 C377 1.399 . S
C378 C379 1.376 . S
C379 H366 0.930 . S
C379 C378 1.376 . S
C379 C380 1.388 . S
C380 H367 0.930 . S
C380 C379 1.388 . S
C380 C381 1.390 . S
C381 C380 1.390 . S
C381 C382 1.394 . S
C381 C387 1.465 . S
C382 C377 1.399 . S
C382 C381 1.394 . S
C382 C383 1.516 . S
C383 C382 1.516 . S
C383 C384 1.502 1_554 S
C383 C385 1.561 . S
C383 C386 1.526 . S
C384 H368 0.959 . S
C384 H369 0.959 . S
C384 H370 0.955 1_556 S
C384 C383 1.502 1_556 S
C385 H371 0.960 . S
C385 H372 0.961 1_554 S
C385 H373 0.959 . S
C385 C383 1.561 . S
C386 C383 1.526 . S
C386 C387 1.396 . S
C386 C391 1.390 1_554 S
C387 C381 1.465 . S
C387 C386 1.396 . S
C387 C388 1.399 . S
C388 H374 0.929 . S
C388 C387 1.399 . S
C388 C389 1.385 1_554 S
C389 H375 0.931 . S
C389 C388 1.385 1_556 S
C389 C390 1.389 . S
C390 C389 1.389 . S
C390 C391 1.387 . S
C391 H376 0.930 . S
C391 C386 1.390 1_556 S
C391 C390 1.387 . S
H392 C404 0.930 . S
H393 C406 0.930 . S
H394 C407 0.930 . S
H395 C411 0.959 . S
H396 C411 0.959 . S
H397 C411 0.961 . S
H398 C412 0.960 . S
H399 C412 0.961 . S
H400 C412 0.959 . S
H401 C415 0.929 . S
H402 C416 0.931 . S
H403 C418 0.930 . S
C404 H392 0.930 . S
C404 C405 1.399 . S
C404 C409 1.399 . S
C405 C404 1.399 . S
C405 C406 1.376 . S
C406 H393 0.930 . S
C406 C405 1.376 . S
C406 C407 1.388 . S
C407 H394 0.930 . S
C407 C406 1.388 . S
C407 C408 1.390 . S
C408 C407 1.390 . S
C408 C409 1.394 . S
C408 C414 1.465 . S
C409 C404 1.399 . S
C409 C408 1.394 . S
C409 C410 1.516 . S
C410 C409 1.516 . S
C410 C411 1.502 . S
C410 C412 1.561 . S
C410 C413 1.526 . S
C411 H395 0.959 . S
C411 H396 0.959 . S
C411 H397 0.961 . S
C411 C410 1.502 . S
C412 H398 0.960 . S
C412 H399 0.961 . S
C412 H400 0.959 . S
C412 C410 1.561 . S
C413 C410 1.526 . S
C413 C414 1.396 . S
C413 C418 1.390 . S
C414 C408 1.465 . S
C414 C413 1.396 . S
C414 C415 1.399 . S
C415 H401 0.929 . S
C415 C414 1.399 . S
C415 C416 1.385 . S
C416 H402 0.931 . S
C416 C415 1.385 . S
C416 C417 1.389 . S
C417 C416 1.389 . S
C417 C418 1.387 . S
C418 H403 0.930 . S
C418 C413 1.390 . S
C418 C417 1.387 . S
H419 C431 0.930 . S
H420 C433 0.930 . S
H421 C434 0.930 . S
H422 C438 0.959 . S
H423 C438 0.959 . S
H424 C438 0.961 . S
H425 C439 0.960 . S
H426 C439 0.961 . S
H427 C439 0.959 . S
H428 C442 0.929 . S
H429 C443 0.931 . S
H430 C445 0.930 . S
C431 H419 0.930 . S
C431 C432 1.399 . S
C431 C436 1.399 . S
C432 C431 1.399 . S
C432 C433 1.376 . S
C433 H420 0.930 . S
C433 C432 1.376 . S
C433 C434 1.388 . S
C434 H421 0.930 . S
C434 C433 1.388 . S
C434 C435 1.390 . S
C435 C434 1.390 . S
C435 C436 1.394 . S
C435 C441 1.465 . S
C436 C431 1.399 . S
C436 C435 1.394 . S
C436 C437 1.516 . S
C437 C436 1.516 . S
C437 C438 1.502 . S
C437 C439 1.561 . S
C437 C440 1.526 . S
C438 H422 0.959 . S
C438 H423 0.959 . S
C438 H424 0.961 . S
C438 C437 1.502 . S
C439 H425 0.960 . S
C439 H426 0.961 . S
C439 H427 0.959 . S
C439 C437 1.561 . S
C440 C437 1.526 . S
C440 C441 1.396 . S
C440 C445 1.390 . S
C441 C435 1.465 . S
C441 C440 1.396 . S
C441 C442 1.399 . S
C442 H428 0.929 . S
C442 C441 1.399 . S
C442 C443 1.385 . S
C443 H429 0.931 . S
C443 C442 1.385 . S
C443 C444 1.389 . S
C444 C443 1.389 . S
C444 C445 1.387 . S
C445 H430 0.930 . S
C445 C440 1.390 . S
C445 C444 1.387 . S
H446 C458 0.930 . S
H447 C460 0.930 . S
H448 C461 0.930 . S
H449 C465 0.959 . S
H450 C465 0.959 . S
H451 C465 0.961 . S
H452 C466 0.960 1_554 S
H453 C466 0.961 . S
H454 C466 0.959 . S
H455 C469 0.929 . S
H456 C470 0.931 . S
H457 C472 0.930 . S
C458 H446 0.930 . S
C458 C459 1.399 . S
C458 C463 1.399 1_554 S
C459 C458 1.399 . S
C459 C460 1.376 . S
C460 H447 0.930 . S
C460 C459 1.376 . S
C460 C461 1.388 1_554 S
C461 H448 0.930 . S
C461 C460 1.388 1_556 S
C461 C462 1.390 . S
C462 C461 1.390 . S
C462 C463 1.394 . S
C462 C468 1.465 . S
C463 C458 1.399 1_556 S
C463 C462 1.394 . S
C463 C464 1.516 . S
C464 C463 1.516 . S
C464 C465 1.502 1_556 S
C464 C466 1.561 . S
C464 C467 1.526 . S
C465 H449 0.959 . S
C465 H450 0.959 . S
C465 H451 0.961 . S
C465 C464 1.502 1_554 S
C466 H452 0.960 1_556 S
C466 H453 0.961 . S
C466 H454 0.959 . S
C466 C464 1.561 . S
C467 C464 1.526 . S
C467 C468 1.396 . S
C467 C472 1.390 . S
C468 C462 1.465 . S
C468 C467 1.396 . S
C468 C469 1.399 . S
C469 H455 0.929 . S
C469 C468 1.399 . S
C469 C470 1.385 . S
C470 H456 0.931 . S
C470 C469 1.385 . S
C470 C471 1.389 . S
C471 C470 1.389 . S
C471 C472 1.387 . S
C472 H457 0.930 . S
C472 C467 1.390 . S
C472 C471 1.387 . S
H473 C485 0.930 . S
H474 C487 0.930 . S
H475 C488 0.930 . S
H476 C492 0.959 . S
H477 C492 0.959 . S
H478 C492 0.961 . S
H479 C493 0.960 . S
H480 C493 0.961 . S
H481 C493 0.959 . S
H482 C496 0.929 . S
H483 C497 0.931 . S
H484 C499 0.930 . S
C485 H473 0.930 . S
C485 C486 1.399 . S
C485 C490 1.399 . S
C486 C485 1.399 . S
C486 C487 1.376 . S
C487 H474 0.930 . S
C487 C486 1.376 . S
C487 C488 1.388 . S
C488 H475 0.930 . S
C488 C487 1.388 . S
C488 C489 1.390 . S
C489 C488 1.390 . S
C489 C490 1.394 . S
C489 C495 1.465 . S
C490 C485 1.399 . S
C490 C489 1.394 . S
C490 C491 1.516 . S
C491 C490 1.516 . S
C491 C492 1.502 . S
C491 C493 1.561 . S
C491 C494 1.526 . S
C492 H476 0.959 . S
C492 H477 0.959 . S
C492 H478 0.961 . S
C492 C491 1.502 . S
C493 H479 0.960 . S
C493 H480 0.961 . S
C493 H481 0.959 . S
C493 C491 1.561 . S
C494 C491 1.526 . S
C494 C495 1.396 . S
C494 C499 1.390 . S
C495 C489 1.465 . S
C495 C494 1.396 . S
C495 C496 1.399 . S
C496 H482 0.929 . S
C496 C495 1.399 . S
C496 C497 1.385 . S
C497 H483 0.931 . S
C497 C496 1.385 . S
C497 C498 1.389 . S
C498 C497 1.389 . S
C498 C499 1.387 . S
C499 H484 0.930 . S
C499 C494 1.390 . S
C499 C498 1.387 . S
H500 C512 0.930 . S
H501 C514 0.930 . S
H502 C515 0.930 . S
H503 C519 0.959 1_556 S
H504 C519 0.959 . S
H505 C519 0.961 1_556 S
H506 C520 0.960 . S
H507 C520 0.961 . S
H508 C520 0.959 . S
H509 C523 0.929 . S
H510 C524 0.931 . S
H511 C526 0.930 . S
C512 H500 0.930 . S
C512 C513 1.399 . S
C512 C517 1.399 . S
C513 C512 1.399 . S
C513 C514 1.376 . S
C514 H501 0.930 . S
C514 C513 1.376 . S
C514 C515 1.388 . S
C515 H502 0.930 . S
C515 C514 1.388 . S
C515 C516 1.390 . S
C516 C515 1.390 . S
C516 C517 1.394 . S
C516 C522 1.465 1_556 S
C517 C512 1.399 . S
C517 C516 1.394 . S
C517 C518 1.516 1_556 S
C518 C517 1.516 1_554 S
C518 C519 1.502 . S
C518 C520 1.561 . S
C518 C521 1.526 . S
C519 H503 0.959 1_554 S
C519 H504 0.959 . S
C519 H505 0.961 1_554 S
C519 C518 1.502 . S
C520 H506 0.960 . S
C520 H507 0.961 . S
C520 H508 0.959 . S
C520 C518 1.561 . S
C521 C518 1.526 . S
C521 C522 1.396 . S
C521 C526 1.390 . S
C522 C516 1.465 1_554 S
C522 C521 1.396 . S
C522 C523 1.399 . S
C523 H509 0.929 . S
C523 C522 1.399 . S
C523 C524 1.385 . S
C524 H510 0.931 . S
C524 C523 1.385 . S
C524 C525 1.389 . S
C525 C524 1.389 . S
C525 C526 1.387 . S
C526 H511 0.930 . S
C526 C521 1.390 . S
C526 C525 1.387 . S
H527 C539 0.930 . S
H528 C541 0.930 . S
H529 C542 0.930 . S
H530 C546 0.959 . S
H531 C546 0.959 . S
H532 C546 0.961 . S
H533 C547 0.960 . S
H534 C547 0.961 . S
H535 C547 0.959 . S
H536 C550 0.929 . S
H537 C551 0.931 . S
H538 C553 0.930 . S
C539 H527 0.930 . S
C539 C540 1.399 . S
C539 C544 1.399 . S
C540 C539 1.399 . S
C540 C541 1.376 . S
C541 H528 0.930 . S
C541 C540 1.376 . S
C541 C542 1.388 . S
C542 H529 0.930 . S
C542 C541 1.388 . S
C542 C543 1.390 . S
C543 C542 1.390 . S
C543 C544 1.394 . S
C543 C549 1.465 . S
C544 C539 1.399 . S
C544 C543 1.394 . S
C544 C545 1.516 . S
C545 C544 1.516 . S
C545 C546 1.502 . S
C545 C547 1.561 . S
C545 C548 1.526 . S
C546 H530 0.959 . S
C546 H531 0.959 . S
C546 H532 0.961 . S
C546 C545 1.502 . S
C547 H533 0.960 . S
C547 H534 0.961 . S
C547 H535 0.959 . S
C547 C545 1.561 . S
C548 C545 1.526 . S
C548 C549 1.396 . S
C548 C553 1.390 . S
C549 C543 1.465 . S
C549 C548 1.396 . S
C549 C550 1.399 . S
C550 H536 0.929 . S
C550 C549 1.399 . S
C550 C551 1.385 . S
C551 H537 0.931 . S
C551 C550 1.385 . S
C551 C552 1.389 . S
C552 C551 1.389 . S
C552 C553 1.387 . S
C553 H538 0.930 . S
C553 C548 1.390 . S
C553 C552 1.387 . S
H554 C566 0.930 . S
H555 C568 0.930 . S
H556 C569 0.930 . S
H557 C573 0.959 . S
H558 C573 0.959 . S
H559 C573 0.961 . S
H560 C574 0.960 . S
H561 C574 0.961 . S
H562 C574 0.959 . S
H563 C577 0.929 . S
H564 C578 0.931 . S
H565 C580 0.930 . S
C566 H554 0.930 . S
C566 C567 1.399 . S
C566 C571 1.399 . S
C567 C566 1.399 . S
C567 C568 1.376 . S
C568 H555 0.930 . S
C568 C567 1.376 . S
C568 C569 1.388 . S
C569 H556 0.930 . S
C569 C568 1.388 . S
C569 C570 1.390 . S
C570 C569 1.390 . S
C570 C571 1.394 . S
C570 C576 1.465 . S
C571 C566 1.399 . S
C571 C570 1.394 . S
C571 C572 1.516 . S
C572 C571 1.516 . S
C572 C573 1.502 . S
C572 C574 1.561 . S
C572 C575 1.526 . S
C573 H557 0.959 . S
C573 H558 0.959 . S
C573 H559 0.961 . S
C573 C572 1.502 . S
C574 H560 0.960 . S
C574 H561 0.961 . S
C574 H562 0.959 . S
C574 C572 1.561 . S
C575 C572 1.526 . S
C575 C576 1.396 . S
C575 C580 1.390 . S
C576 C570 1.465 . S
C576 C575 1.396 . S
C576 C577 1.399 . S
C577 H563 0.929 . S
C577 C576 1.399 . S
C577 C578 1.385 . S
C578 H564 0.931 . S
C578 C577 1.385 . S
C578 C579 1.389 . S
C579 C578 1.389 . S
C579 C580 1.387 . S
C580 H565 0.930 . S
C580 C575 1.390 . S
C580 C579 1.387 . S
H581 C593 0.930 . S
H582 C595 0.930 . S
H583 C596 0.930 . S
H584 C600 0.959 . S
H585 C600 0.959 . S
H586 C600 0.961 . S
H587 C601 0.960 . S
H588 C601 0.961 . S
H589 C601 0.959 . S
H590 C604 0.929 . S
H591 C605 0.931 . S
H592 C607 0.930 . S
C593 H581 0.930 . S
C593 C594 1.399 . S
C593 C598 1.399 . S
C594 C593 1.399 . S
C594 C595 1.376 . S
C595 H582 0.930 . S
C595 C594 1.376 . S
C595 C596 1.388 . S
C596 H583 0.930 . S
C596 C595 1.388 . S
C596 C597 1.390 . S
C597 C596 1.390 . S
C597 C598 1.394 . S
C597 C603 1.465 . S
C598 C593 1.399 . S
C598 C597 1.394 . S
C598 C599 1.516 . S
C599 C598 1.516 . S
C599 C600 1.502 . S
C599 C601 1.561 . S
C599 C602 1.526 . S
C600 H584 0.959 . S
C600 H585 0.959 . S
C600 H586 0.961 . S
C600 C599 1.502 . S
C601 H587 0.960 . S
C601 H588 0.961 . S
C601 H589 0.959 . S
C601 C599 1.561 . S
C602 C599 1.526 . S
C602 C603 1.396 . S
C602 C607 1.390 . S
C603 C597 1.465 . S
C603 C602 1.396 . S
C603 C604 1.399 . S
C604 H590 0.929 . S
C604 C603 1.399 . S
C604 C605 1.385 . S
C605 H591 0.931 . S
C605 C604 1.385 . S
C605 C606 1.389 . S
C606 C605 1.389 . S
C606 C607 1.387 . S
C607 H592 0.930 . S
C607 C602 1.390 . S
C607 C606 1.387 . S
H608 C620 0.930 . S
H609 C622 0.930 . S
H610 C623 0.930 1_565 S
H611 C627 0.959 . S
H612 C627 0.959 . S
H613 C627 0.961 . S
H614 C628 0.960 . S
H615 C628 0.961 1_565 S
H616 C628 0.959 1_565 S
H617 C631 0.929 . S
H618 C632 0.931 . S
H619 C634 0.930 . S
C620 H608 0.930 . S
C620 C621 1.399 . S
C620 C625 1.399 . S
C621 C620 1.399 . S
C621 C622 1.376 . S
C622 H609 0.930 . S
C622 C621 1.376 . S
C622 C623 1.388 . S
C623 H610 0.930 1_545 S
C623 C622 1.388 . S
C623 C624 1.390 . S
C624 C623 1.390 . S
C624 C625 1.394 . S
C624 C630 1.465 1_545 S
C625 C620 1.399 . S
C625 C624 1.394 . S
C625 C626 1.516 . S
C626 C625 1.516 . S
C626 C627 1.502 . S
C626 C628 1.561 . S
C626 C629 1.526 1_545 S
C627 H611 0.959 . S
C627 H612 0.959 . S
C627 H613 0.961 . S
C627 C626 1.502 . S
C628 H614 0.960 . S
C628 H615 0.961 1_545 S
C628 H616 0.959 1_545 S
C628 C626 1.561 . S
C629 C626 1.526 1_565 S
C629 C630 1.396 . S
C629 C634 1.390 . S
C630 C624 1.465 1_565 S
C630 C629 1.396 . S
C630 C631 1.399 . S
C631 H617 0.929 . S
C631 C630 1.399 . S
C631 C632 1.385 . S
C632 H618 0.931 . S
C632 C631 1.385 . S
C632 C633 1.389 . S
C633 C632 1.389 . S
C633 C634 1.387 . S
C634 H619 0.930 . S
C634 C629 1.390 . S
C634 C633 1.387 . S
H635 C647 0.930 . S
H636 C649 0.930 . S
H637 C650 0.930 . S
H638 C654 0.959 . S
H639 C654 0.959 . S
H640 C654 0.961 . S
H641 C655 0.960 . S
H642 C655 0.961 . S
H643 C655 0.959 . S
H644 C658 0.929 . S
H645 C659 0.931 . S
H646 C661 0.930 . S
C647 H635 0.930 . S
C647 C648 1.399 . S
C647 C652 1.399 . S
C648 C647 1.399 . S
C648 C649 1.376 . S
C649 H636 0.930 . S
C649 C648 1.376 . S
C649 C650 1.388 . S
C650 H637 0.930 . S
C650 C649 1.388 . S
C650 C651 1.390 . S
C651 C650 1.390 . S
C651 C652 1.394 . S
C651 C657 1.465 . S
C652 C647 1.399 . S
C652 C651 1.394 . S
C652 C653 1.516 . S
C653 C652 1.516 . S
C653 C654 1.502 . S
C653 C655 1.561 . S
C653 C656 1.526 . S
C654 H638 0.959 . S
C654 H639 0.959 . S
C654 H640 0.961 . S
C654 C653 1.502 . S
C655 H641 0.960 . S
C655 H642 0.961 . S
C655 H643 0.959 . S
C655 C653 1.561 . S
C656 C653 1.526 . S
C656 C657 1.396 . S
C656 C661 1.390 . S
C657 C651 1.465 . S
C657 C656 1.396 . S
C657 C658 1.399 . S
C658 H644 0.929 . S
C658 C657 1.399 . S
C658 C659 1.385 . S
C659 H645 0.931 . S
C659 C658 1.385 . S
C659 C660 1.389 . S
C660 C659 1.389 . S
C660 C661 1.387 . S
C661 H646 0.930 . S
C661 C656 1.390 . S
C661 C660 1.387 . S
H662 C674 0.930 . S
H663 C676 0.930 . S
H664 C677 0.930 1_565 S
H665 C681 0.959 . S
H666 C681 0.959 . S
H667 C681 0.961 . S
H668 C682 0.971 . S
H669 C682 0.956 1_565 S
H670 C682 0.948 1_565 S
H671 C685 0.929 . S
H672 C686 0.931 . S
H673 C688 0.930 . S
C674 H662 0.930 . S
C674 C675 1.399 . S
C674 C679 1.399 . S
C675 C674 1.399 . S
C675 C676 1.376 . S
C676 H663 0.930 . S
C676 C675 1.376 . S
C676 C677 1.388 . S
C677 H664 0.930 1_545 S
C677 C676 1.388 . S
C677 C678 1.390 . S
C678 C677 1.390 . S
C678 C679 1.394 . S
C678 C684 1.465 1_545 S
C679 C674 1.399 . S
C679 C678 1.394 . S
C679 C680 1.516 . S
C680 C679 1.516 . S
C680 C681 1.502 . S
C680 C682 1.566 . S
C680 C683 1.526 1_545 S
C681 H665 0.959 . S
C681 H666 0.959 . S
C681 H667 0.961 . S
C681 C680 1.502 . S
C682 H668 0.971 . S
C682 H669 0.956 1_545 S
C682 H670 0.948 1_545 S
C682 C680 1.566 . S
C683 C680 1.526 1_565 S
C683 C684 1.396 . S
C683 C688 1.390 . S
C684 C678 1.465 1_565 S
C684 C683 1.396 . S
C684 C685 1.399 . S
C685 H671 0.929 . S
C685 C684 1.399 . S
C685 C686 1.385 . S
C686 H672 0.931 . S
C686 C685 1.385 . S
C686 C687 1.389 . S
C687 C686 1.389 . S
C687 C688 1.387 . S
C688 H673 0.930 . S
C688 C683 1.390 . S
C688 C687 1.387 . S
H689 C701 0.930 . S
H690 C703 0.930 . S
H691 C704 0.930 . S
H692 C708 0.959 . S
H693 C708 0.959 . S
H694 C708 0.961 . S
H695 C709 0.960 . S
H696 C709 0.961 . S
H697 C709 0.959 . S
H698 C712 0.929 . S
H699 C713 0.931 . S
H700 C715 0.930 . S
C701 H689 0.930 . S
C701 C702 1.399 . S
C701 C706 1.399 . S
C702 C701 1.399 . S
C702 C703 1.376 . S
C703 H690 0.930 . S
C703 C702 1.376 . S
C703 C704 1.388 . S
C704 H691 0.930 . S
C704 C703 1.388 . S
C704 C705 1.390 . S
C705 C704 1.390 . S
C705 C706 1.394 . S
C705 C711 1.465 . S
C706 C701 1.399 . S
C706 C705 1.394 . S
C706 C707 1.516 . S
C707 C706 1.516 . S
C707 C708 1.502 . S
C707 C709 1.561 . S
C707 C710 1.526 . S
C708 H692 0.959 . S
C708 H693 0.959 . S
C708 H694 0.961 . S
C708 C707 1.502 . S
C709 H695 0.960 . S
C709 H696 0.961 . S
C709 H697 0.959 . S
C709 C707 1.561 . S
C710 C707 1.526 . S
C710 C711 1.396 . S
C710 C715 1.390 . S
C711 C705 1.465 . S
C711 C710 1.396 . S
C711 C712 1.399 . S
C712 H698 0.929 . S
C712 C711 1.399 . S
C712 C713 1.385 . S
C713 H699 0.931 . S
C713 C712 1.385 . S
C713 C714 1.389 . S
C714 C713 1.389 . S
C714 C715 1.387 . S
C715 H700 0.930 . S
C715 C710 1.390 . S
C715 C714 1.387 . S
H716 C728 0.930 . S
H717 C730 0.930 . S
H718 C731 0.930 . S
H719 C735 0.959 . S
H720 C735 0.959 . S
H721 C735 0.961 . S
H722 C736 0.960 . S
H723 C736 0.961 . S
H724 C736 0.959 . S
H725 C739 0.929 . S
H726 C740 0.931 . S
H727 C742 0.930 . S
C728 H716 0.930 . S
C728 C729 1.399 . S
C728 C733 1.399 . S
C729 C728 1.399 . S
C729 C730 1.376 . S
C730 H717 0.930 . S
C730 C729 1.376 . S
C730 C731 1.388 . S
C731 H718 0.930 . S
C731 C730 1.388 . S
C731 C732 1.390 . S
C732 C731 1.390 . S
C732 C733 1.394 . S
C732 C738 1.465 . S
C733 C728 1.399 . S
C733 C732 1.394 . S
C733 C734 1.516 . S
C734 C733 1.516 . S
C734 C735 1.502 . S
C734 C736 1.561 . S
C734 C737 1.526 . S
C735 H719 0.959 . S
C735 H720 0.959 . S
C735 H721 0.961 . S
C735 C734 1.502 . S
C736 H722 0.960 . S
C736 H723 0.961 . S
C736 H724 0.959 . S
C736 C734 1.561 . S
C737 C734 1.526 . S
C737 C738 1.396 . S
C737 C742 1.390 . S
C738 C732 1.465 . S
C738 C737 1.396 . S
C738 C739 1.399 . S
C739 H725 0.929 . S
C739 C738 1.399 . S
C739 C740 1.385 . S
C740 H726 0.931 . S
C740 C739 1.385 . S
C740 C741 1.389 . S
C741 C740 1.389 . S
C741 C742 1.387 . S
C742 H727 0.930 . S
C742 C737 1.390 . S
C742 C741 1.387 . S
H743 C755 0.930 . S
H744 C757 0.930 . S
H745 C758 0.930 . S
H746 C762 0.959 . S
H747 C762 0.959 . S
H748 C762 0.961 . S
H749 C763 0.960 1_455 S
H750 C763 0.961 . S
H751 C763 0.959 . S
H752 C766 0.929 . S
H753 C767 0.931 . S
H754 C769 0.930 . S
C755 H743 0.930 . S
C755 C756 1.399 . S
C755 C760 1.399 . S
C756 C755 1.399 . S
C756 C757 1.376 . S
C757 H744 0.930 . S
C757 C756 1.376 . S
C757 C758 1.388 . S
C758 H745 0.930 . S
C758 C757 1.388 . S
C758 C759 1.390 . S
C759 C758 1.390 . S
C759 C760 1.394 . S
C759 C765 1.465 1_455 S
C760 C755 1.399 . S
C760 C759 1.394 . S
C760 C761 1.516 . S
C761 C760 1.516 . S
C761 C762 1.502 . S
C761 C763 1.561 1_455 S
C761 C764 1.526 1_455 S
C762 H746 0.959 . S
C762 H747 0.959 . S
C762 H748 0.961 . S
C762 C761 1.502 . S
C763 H749 0.960 1_655 S
C763 H750 0.961 . S
C763 H751 0.959 . S
C763 C761 1.561 1_655 S
C764 C761 1.526 1_655 S
C764 C765 1.396 . S
C764 C769 1.390 . S
C765 C759 1.465 1_655 S
C765 C764 1.396 . S
C765 C766 1.399 . S
C766 H752 0.929 . S
C766 C765 1.399 . S
C766 C767 1.385 . S
C767 H753 0.931 . S
C767 C766 1.385 . S
C767 C768 1.389 . S
C768 C767 1.389 . S
C768 C769 1.387 . S
C769 H754 0.930 . S
C769 C764 1.390 . S
C769 C768 1.387 . S
H770 C782 0.930 . S
H771 C784 0.930 . S
H772 C785 0.930 . S
H773 C789 0.959 . S
H774 C789 0.959 . S
H775 C789 0.961 . S
H776 C790 0.960 . S
H777 C790 0.961 . S
H778 C790 0.959 . S
H779 C793 0.929 . S
H780 C794 0.931 . S
H781 C796 0.930 . S
C782 H770 0.930 . S
C782 C783 1.399 . S
C782 C787 1.399 . S
C783 C782 1.399 . S
C783 C784 1.376 . S
C784 H771 0.930 . S
C784 C783 1.376 . S
C784 C785 1.388 . S
C785 H772 0.930 . S
C785 C784 1.388 . S
C785 C786 1.390 . S
C786 C785 1.390 . S
C786 C787 1.394 . S
C786 C792 1.465 . S
C787 C782 1.399 . S
C787 C786 1.394 . S
C787 C788 1.516 . S
C788 C787 1.516 . S
C788 C789 1.502 . S
C788 C790 1.561 . S
C788 C791 1.526 . S
C789 H773 0.959 . S
C789 H774 0.959 . S
C789 H775 0.961 . S
C789 C788 1.502 . S
C790 H776 0.960 . S
C790 H777 0.961 . S
C790 H778 0.959 . S
C790 C788 1.561 . S
C791 C788 1.526 . S
C791 C792 1.396 . S
C791 C796 1.390 . S
C792 C786 1.465 . S
C792 C791 1.396 . S
C792 C793 1.399 . S
C793 H779 0.929 . S
C793 C792 1.399 . S
C793 C794 1.385 . S
C794 H780 0.931 . S
C794 C793 1.385 . S
C794 C795 1.389 . S
C795 C794 1.389 . S
C795 C796 1.387 . S
C796 H781 0.930 . S
C796 C791 1.390 . S
C796 C795 1.387 . S
H797 C809 0.930 . S
H798 C811 0.930 . S
H799 C812 0.930 . S
H800 C816 0.959 . S
H801 C816 0.959 . S
H802 C816 0.961 1_655 S
H803 C817 0.960 . S
H804 C817 0.961 . S
H805 C817 0.959 . S
H806 C820 0.929 . S
H807 C821 0.931 . S
H808 C823 0.930 . S
C809 H797 0.930 . S
C809 C810 1.399 . S
C809 C814 1.399 . S
C810 C809 1.399 . S
C810 C811 1.376 . S
C811 H798 0.930 . S
C811 C810 1.376 . S
C811 C812 1.388 . S
C812 H799 0.930 . S
C812 C811 1.388 . S
C812 C813 1.390 . S
C813 C812 1.390 . S
C813 C814 1.394 . S
C813 C819 1.465 1_655 S
C814 C809 1.399 . S
C814 C813 1.394 . S
C814 C815 1.516 . S
C815 C814 1.516 . S
C815 C816 1.502 1_655 S
C815 C817 1.561 . S
C815 C818 1.526 1_655 S
C816 H800 0.959 . S
C816 H801 0.959 . S
C816 H802 0.961 1_455 S
C816 C815 1.502 1_455 S
C817 H803 0.960 . S
C817 H804 0.961 . S
C817 H805 0.959 . S
C817 C815 1.561 . S
C818 C815 1.526 1_455 S
C818 C819 1.396 . S
C818 C823 1.390 . S
C819 C813 1.465 1_455 S
C819 C818 1.396 . S
C819 C820 1.399 . S
C820 H806 0.929 . S
C820 C819 1.399 . S
C820 C821 1.385 . S
C821 H807 0.931 . S
C821 C820 1.385 . S
C821 C822 1.389 . S
C822 C821 1.389 . S
C822 C823 1.387 . S
C823 H808 0.930 . S
C823 C818 1.390 . S
C823 C822 1.387 . S
C189 C8 1.664 . S
C201 C158 1.657 . S
C216 C26 1.660 . S
C228 C92 1.660 . S
C243 C52 1.658 . S
C255 C118 1.665 . S
C270 C136 1.657 . S
C282 C74 1.665 . S
C297 C9 1.413 . S
C309 C30 1.462 . S
C324 C48 1.459 . S
C336 C27 1.334 . S
C351 C70 1.460 . S
C363 C53 1.333 . S
C378 C4 1.462 . S
C390 C75 1.410 . S
C405 C93 1.381 . S
C417 C162 1.446 . S
C432 C119 1.410 . S
C444 C96 1.444 . S
C459 C137 1.417 . S
C471 C114 1.460 . S
C486 C140 1.448 . S
C498 C159 1.364 . S
C513 C115 0.813 . S
C525 C5 0.821 . S
C540 C141 0.740 . S
C552 C31 0.810 . S
C567 C163 0.740 . S
C579 C49 0.745 . S
C594 C97 0.813 . S
C606 C71 0.742 . S
C621 C7 1.400 . S
C633 C139 1.384 . S
C648 C28 1.383 . S
C660 C161 1.474 . S
C675 C95 1.435 . S
C687 C51 1.336 . S
C702 C116 1.434 . S
C714 C73 1.446 . S
C729 C50 1.422 . S
C741 C94 1.446 . S
C756 C117 1.381 . S
C768 C72 1.385 . S
C783 C138 1.369 . S
C795 C6 1.388 . S
C810 C160 1.434 . S
C822 C29 1.459 . S
