# Generated by pormake.
# Topology fau, (4)-cn, num edge types: 1
# Building blocks:
#     Node 0, Type 0, BuildingBlock: NAHDIM_clean_sbu_0, # of connection points: 4
#     Node 1, Type 0, BuildingBlock: NAHDIM_clean_sbu_0, # of connection points: 4
#     Node 2, Type 0, BuildingBlock: NAHDIM_clean_sbu_0, # of connection points: 4
#     Node 3, Type 0, BuildingBlock: NAHDIM_clean_sbu_0, # of connection points: 4
#     Node 4, Type 0, BuildingBlock: NAHDIM_clean_sbu_0, # of connection points: 4
#     Node 5, Type 0, BuildingBlock: NAHDIM_clean_sbu_0, # of connection points: 4
#     Node 6, Type 0, BuildingBlock: NAHDIM_clean_sbu_0, # of connection points: 4
#     Node 7, Type 0, BuildingBlock: NAHDIM_clean_sbu_0, # of connection points: 4
#     Node 8, Type 0, BuildingBlock: NAHDIM_clean_sbu_0, # of connection points: 4
#     Node 9, Type 0, BuildingBlock: NAHDIM_clean_sbu_0, # of connection points: 4
#     Node 10, Type 0, BuildingBlock: NAHDIM_clean_sbu_0, # of connection points: 4
#     Node 11, Type 0, BuildingBlock: NAHDIM_clean_sbu_0, # of connection points: 4
#     Node 12, Type 0, BuildingBlock: NAHDIM_clean_sbu_0, # of connection points: 4
#     Node 13, Type 0, BuildingBlock: NAHDIM_clean_sbu_0, # of connection points: 4
#     Node 14, Type 0, BuildingBlock: NAHDIM_clean_sbu_0, # of connection points: 4
#     Node 15, Type 0, BuildingBlock: NAHDIM_clean_sbu_0, # of connection points: 4
#     Node 16, Type 0, BuildingBlock: NAHDIM_clean_sbu_0, # of connection points: 4
#     Node 17, Type 0, BuildingBlock: NAHDIM_clean_sbu_0, # of connection points: 4
#     Node 18, Type 0, BuildingBlock: NAHDIM_clean_sbu_0, # of connection points: 4
#     Node 19, Type 0, BuildingBlock: NAHDIM_clean_sbu_0, # of connection points: 4
#     Node 20, Type 0, BuildingBlock: NAHDIM_clean_sbu_0, # of connection points: 4
#     Node 21, Type 0, BuildingBlock: NAHDIM_clean_sbu_0, # of connection points: 4
#     Node 22, Type 0, BuildingBlock: NAHDIM_clean_sbu_0, # of connection points: 4
#     Node 23, Type 0, BuildingBlock: NAHDIM_clean_sbu_0, # of connection points: 4
#     Node 24, Type 0, BuildingBlock: NAHDIM_clean_sbu_0, # of connection points: 4
#     Node 25, Type 0, BuildingBlock: NAHDIM_clean_sbu_0, # of connection points: 4
#     Node 26, Type 0, BuildingBlock: NAHDIM_clean_sbu_0, # of connection points: 4
#     Node 27, Type 0, BuildingBlock: NAHDIM_clean_sbu_0, # of connection points: 4
#     Node 28, Type 0, BuildingBlock: NAHDIM_clean_sbu_0, # of connection points: 4
#     Node 29, Type 0, BuildingBlock: NAHDIM_clean_sbu_0, # of connection points: 4
#     Node 30, Type 0, BuildingBlock: NAHDIM_clean_sbu_0, # of connection points: 4
#     Node 31, Type 0, BuildingBlock: NAHDIM_clean_sbu_0, # of connection points: 4
#     Node 32, Type 0, BuildingBlock: NAHDIM_clean_sbu_0, # of connection points: 4
#     Node 33, Type 0, BuildingBlock: NAHDIM_clean_sbu_0, # of connection points: 4
#     Node 34, Type 0, BuildingBlock: NAHDIM_clean_sbu_0, # of connection points: 4
#     Node 35, Type 0, BuildingBlock: NAHDIM_clean_sbu_0, # of connection points: 4
#     Node 36, Type 0, BuildingBlock: NAHDIM_clean_sbu_0, # of connection points: 4
#     Node 37, Type 0, BuildingBlock: NAHDIM_clean_sbu_0, # of connection points: 4
#     Node 38, Type 0, BuildingBlock: NAHDIM_clean_sbu_0, # of connection points: 4
#     Node 39, Type 0, BuildingBlock: NAHDIM_clean_sbu_0, # of connection points: 4
#     Node 40, Type 0, BuildingBlock: NAHDIM_clean_sbu_0, # of connection points: 4
#     Node 41, Type 0, BuildingBlock: NAHDIM_clean_sbu_0, # of connection points: 4
#     Node 42, Type 0, BuildingBlock: NAHDIM_clean_sbu_0, # of connection points: 4
#     Node 43, Type 0, BuildingBlock: NAHDIM_clean_sbu_0, # of connection points: 4
#     Node 44, Type 0, BuildingBlock: NAHDIM_clean_sbu_0, # of connection points: 4
#     Node 45, Type 0, BuildingBlock: NAHDIM_clean_sbu_0, # of connection points: 4
#     Node 46, Type 0, BuildingBlock: NAHDIM_clean_sbu_0, # of connection points: 4
#     Node 47, Type 0, BuildingBlock: NAHDIM_clean_sbu_0, # of connection points: 4
#     Node 48, Type 0, BuildingBlock: NAHDIM_clean_sbu_0, # of connection points: 4
#     Node 49, Type 0, BuildingBlock: NAHDIM_clean_sbu_0, # of connection points: 4
#     Node 50, Type 0, BuildingBlock: NAHDIM_clean_sbu_0, # of connection points: 4
#     Node 51, Type 0, BuildingBlock: NAHDIM_clean_sbu_0, # of connection points: 4
#     Node 52, Type 0, BuildingBlock: NAHDIM_clean_sbu_0, # of connection points: 4
#     Node 53, Type 0, BuildingBlock: NAHDIM_clean_sbu_0, # of connection points: 4
#     Node 54, Type 0, BuildingBlock: NAHDIM_clean_sbu_0, # of connection points: 4
#     Node 55, Type 0, BuildingBlock: NAHDIM_clean_sbu_0, # of connection points: 4
#     Node 56, Type 0, BuildingBlock: NAHDIM_clean_sbu_0, # of connection points: 4
#     Node 57, Type 0, BuildingBlock: NAHDIM_clean_sbu_0, # of connection points: 4
#     Node 58, Type 0, BuildingBlock: NAHDIM_clean_sbu_0, # of connection points: 4
#     Node 59, Type 0, BuildingBlock: NAHDIM_clean_sbu_0, # of connection points: 4
#     Node 60, Type 0, BuildingBlock: NAHDIM_clean_sbu_0, # of connection points: 4
#     Node 61, Type 0, BuildingBlock: NAHDIM_clean_sbu_0, # of connection points: 4
#     Node 62, Type 0, BuildingBlock: NAHDIM_clean_sbu_0, # of connection points: 4
#     Node 63, Type 0, BuildingBlock: NAHDIM_clean_sbu_0, # of connection points: 4
#     Node 64, Type 0, BuildingBlock: NAHDIM_clean_sbu_0, # of connection points: 4
#     Node 65, Type 0, BuildingBlock: NAHDIM_clean_sbu_0, # of connection points: 4
#     Node 66, Type 0, BuildingBlock: NAHDIM_clean_sbu_0, # of connection points: 4
#     Node 67, Type 0, BuildingBlock: NAHDIM_clean_sbu_0, # of connection points: 4
#     Node 68, Type 0, BuildingBlock: NAHDIM_clean_sbu_0, # of connection points: 4
#     Node 69, Type 0, BuildingBlock: NAHDIM_clean_sbu_0, # of connection points: 4
#     Node 70, Type 0, BuildingBlock: NAHDIM_clean_sbu_0, # of connection points: 4
#     Node 71, Type 0, BuildingBlock: NAHDIM_clean_sbu_0, # of connection points: 4
#     Node 72, Type 0, BuildingBlock: NAHDIM_clean_sbu_0, # of connection points: 4
#     Node 73, Type 0, BuildingBlock: NAHDIM_clean_sbu_0, # of connection points: 4
#     Node 74, Type 0, BuildingBlock: NAHDIM_clean_sbu_0, # of connection points: 4
#     Node 75, Type 0, BuildingBlock: NAHDIM_clean_sbu_0, # of connection points: 4
#     Node 76, Type 0, BuildingBlock: NAHDIM_clean_sbu_0, # of connection points: 4
#     Node 77, Type 0, BuildingBlock: NAHDIM_clean_sbu_0, # of connection points: 4
#     Node 78, Type 0, BuildingBlock: NAHDIM_clean_sbu_0, # of connection points: 4
#     Node 79, Type 0, BuildingBlock: NAHDIM_clean_sbu_0, # of connection points: 4
#     Node 80, Type 0, BuildingBlock: NAHDIM_clean_sbu_0, # of connection points: 4
#     Node 81, Type 0, BuildingBlock: NAHDIM_clean_sbu_0, # of connection points: 4
#     Node 82, Type 0, BuildingBlock: NAHDIM_clean_sbu_0, # of connection points: 4
#     Node 83, Type 0, BuildingBlock: NAHDIM_clean_sbu_0, # of connection points: 4
#     Node 84, Type 0, BuildingBlock: NAHDIM_clean_sbu_0, # of connection points: 4
#     Node 85, Type 0, BuildingBlock: NAHDIM_clean_sbu_0, # of connection points: 4
#     Node 86, Type 0, BuildingBlock: NAHDIM_clean_sbu_0, # of connection points: 4
#     Node 87, Type 0, BuildingBlock: NAHDIM_clean_sbu_0, # of connection points: 4
#     Node 88, Type 0, BuildingBlock: NAHDIM_clean_sbu_0, # of connection points: 4
#     Node 89, Type 0, BuildingBlock: NAHDIM_clean_sbu_0, # of connection points: 4
#     Node 90, Type 0, BuildingBlock: NAHDIM_clean_sbu_0, # of connection points: 4
#     Node 91, Type 0, BuildingBlock: NAHDIM_clean_sbu_0, # of connection points: 4
#     Node 92, Type 0, BuildingBlock: NAHDIM_clean_sbu_0, # of connection points: 4
#     Node 93, Type 0, BuildingBlock: NAHDIM_clean_sbu_0, # of connection points: 4
#     Node 94, Type 0, BuildingBlock: NAHDIM_clean_sbu_0, # of connection points: 4
#     Node 95, Type 0, BuildingBlock: NAHDIM_clean_sbu_0, # of connection points: 4
#     Node 96, Type 0, BuildingBlock: NAHDIM_clean_sbu_0, # of connection points: 4
#     Node 97, Type 0, BuildingBlock: NAHDIM_clean_sbu_0, # of connection points: 4
#     Node 98, Type 0, BuildingBlock: NAHDIM_clean_sbu_0, # of connection points: 4
#     Node 99, Type 0, BuildingBlock: NAHDIM_clean_sbu_0, # of connection points: 4
#     Node 100, Type 0, BuildingBlock: NAHDIM_clean_sbu_0, # of connection points: 4
#     Node 101, Type 0, BuildingBlock: NAHDIM_clean_sbu_0, # of connection points: 4
#     Node 102, Type 0, BuildingBlock: NAHDIM_clean_sbu_0, # of connection points: 4
#     Node 103, Type 0, BuildingBlock: NAHDIM_clean_sbu_0, # of connection points: 4
#     Node 104, Type 0, BuildingBlock: NAHDIM_clean_sbu_0, # of connection points: 4
#     Node 105, Type 0, BuildingBlock: NAHDIM_clean_sbu_0, # of connection points: 4
#     Node 106, Type 0, BuildingBlock: NAHDIM_clean_sbu_0, # of connection points: 4
#     Node 107, Type 0, BuildingBlock: NAHDIM_clean_sbu_0, # of connection points: 4
#     Node 108, Type 0, BuildingBlock: NAHDIM_clean_sbu_0, # of connection points: 4
#     Node 109, Type 0, BuildingBlock: NAHDIM_clean_sbu_0, # of connection points: 4
#     Node 110, Type 0, BuildingBlock: NAHDIM_clean_sbu_0, # of connection points: 4
#     Node 111, Type 0, BuildingBlock: NAHDIM_clean_sbu_0, # of connection points: 4
#     Node 112, Type 0, BuildingBlock: NAHDIM_clean_sbu_0, # of connection points: 4
#     Node 113, Type 0, BuildingBlock: NAHDIM_clean_sbu_0, # of connection points: 4
#     Node 114, Type 0, BuildingBlock: NAHDIM_clean_sbu_0, # of connection points: 4
#     Node 115, Type 0, BuildingBlock: NAHDIM_clean_sbu_0, # of connection points: 4
#     Node 116, Type 0, BuildingBlock: NAHDIM_clean_sbu_0, # of connection points: 4
#     Node 117, Type 0, BuildingBlock: NAHDIM_clean_sbu_0, # of connection points: 4
#     Node 118, Type 0, BuildingBlock: NAHDIM_clean_sbu_0, # of connection points: 4
#     Node 119, Type 0, BuildingBlock: NAHDIM_clean_sbu_0, # of connection points: 4
#     Node 120, Type 0, BuildingBlock: NAHDIM_clean_sbu_0, # of connection points: 4
#     Node 121, Type 0, BuildingBlock: NAHDIM_clean_sbu_0, # of connection points: 4
#     Node 122, Type 0, BuildingBlock: NAHDIM_clean_sbu_0, # of connection points: 4
#     Node 123, Type 0, BuildingBlock: NAHDIM_clean_sbu_0, # of connection points: 4
#     Node 124, Type 0, BuildingBlock: NAHDIM_clean_sbu_0, # of connection points: 4
#     Node 125, Type 0, BuildingBlock: NAHDIM_clean_sbu_0, # of connection points: 4
#     Node 126, Type 0, BuildingBlock: NAHDIM_clean_sbu_0, # of connection points: 4
#     Node 127, Type 0, BuildingBlock: NAHDIM_clean_sbu_0, # of connection points: 4
#     Node 128, Type 0, BuildingBlock: NAHDIM_clean_sbu_0, # of connection points: 4
#     Node 129, Type 0, BuildingBlock: NAHDIM_clean_sbu_0, # of connection points: 4
#     Node 130, Type 0, BuildingBlock: NAHDIM_clean_sbu_0, # of connection points: 4
#     Node 131, Type 0, BuildingBlock: NAHDIM_clean_sbu_0, # of connection points: 4
#     Node 132, Type 0, BuildingBlock: NAHDIM_clean_sbu_0, # of connection points: 4
#     Node 133, Type 0, BuildingBlock: NAHDIM_clean_sbu_0, # of connection points: 4
#     Node 134, Type 0, BuildingBlock: NAHDIM_clean_sbu_0, # of connection points: 4
#     Node 135, Type 0, BuildingBlock: NAHDIM_clean_sbu_0, # of connection points: 4
#     Node 136, Type 0, BuildingBlock: NAHDIM_clean_sbu_0, # of connection points: 4
#     Node 137, Type 0, BuildingBlock: NAHDIM_clean_sbu_0, # of connection points: 4
#     Node 138, Type 0, BuildingBlock: NAHDIM_clean_sbu_0, # of connection points: 4
#     Node 139, Type 0, BuildingBlock: NAHDIM_clean_sbu_0, # of connection points: 4
#     Node 140, Type 0, BuildingBlock: NAHDIM_clean_sbu_0, # of connection points: 4
#     Node 141, Type 0, BuildingBlock: NAHDIM_clean_sbu_0, # of connection points: 4
#     Node 142, Type 0, BuildingBlock: NAHDIM_clean_sbu_0, # of connection points: 4
#     Node 143, Type 0, BuildingBlock: NAHDIM_clean_sbu_0, # of connection points: 4
#     Node 144, Type 0, BuildingBlock: NAHDIM_clean_sbu_0, # of connection points: 4
#     Node 145, Type 0, BuildingBlock: NAHDIM_clean_sbu_0, # of connection points: 4
#     Node 146, Type 0, BuildingBlock: NAHDIM_clean_sbu_0, # of connection points: 4
#     Node 147, Type 0, BuildingBlock: NAHDIM_clean_sbu_0, # of connection points: 4
#     Node 148, Type 0, BuildingBlock: NAHDIM_clean_sbu_0, # of connection points: 4
#     Node 149, Type 0, BuildingBlock: NAHDIM_clean_sbu_0, # of connection points: 4
#     Node 150, Type 0, BuildingBlock: NAHDIM_clean_sbu_0, # of connection points: 4
#     Node 151, Type 0, BuildingBlock: NAHDIM_clean_sbu_0, # of connection points: 4
#     Node 152, Type 0, BuildingBlock: NAHDIM_clean_sbu_0, # of connection points: 4
#     Node 153, Type 0, BuildingBlock: NAHDIM_clean_sbu_0, # of connection points: 4
#     Node 154, Type 0, BuildingBlock: NAHDIM_clean_sbu_0, # of connection points: 4
#     Node 155, Type 0, BuildingBlock: NAHDIM_clean_sbu_0, # of connection points: 4
#     Node 156, Type 0, BuildingBlock: NAHDIM_clean_sbu_0, # of connection points: 4
#     Node 157, Type 0, BuildingBlock: NAHDIM_clean_sbu_0, # of connection points: 4
#     Node 158, Type 0, BuildingBlock: NAHDIM_clean_sbu_0, # of connection points: 4
#     Node 159, Type 0, BuildingBlock: NAHDIM_clean_sbu_0, # of connection points: 4
#     Node 160, Type 0, BuildingBlock: NAHDIM_clean_sbu_0, # of connection points: 4
#     Node 161, Type 0, BuildingBlock: NAHDIM_clean_sbu_0, # of connection points: 4
#     Node 162, Type 0, BuildingBlock: NAHDIM_clean_sbu_0, # of connection points: 4
#     Node 163, Type 0, BuildingBlock: NAHDIM_clean_sbu_0, # of connection points: 4
#     Node 164, Type 0, BuildingBlock: NAHDIM_clean_sbu_0, # of connection points: 4
#     Node 165, Type 0, BuildingBlock: NAHDIM_clean_sbu_0, # of connection points: 4
#     Node 166, Type 0, BuildingBlock: NAHDIM_clean_sbu_0, # of connection points: 4
#     Node 167, Type 0, BuildingBlock: NAHDIM_clean_sbu_0, # of connection points: 4
#     Node 168, Type 0, BuildingBlock: NAHDIM_clean_sbu_0, # of connection points: 4
#     Node 169, Type 0, BuildingBlock: NAHDIM_clean_sbu_0, # of connection points: 4
#     Node 170, Type 0, BuildingBlock: NAHDIM_clean_sbu_0, # of connection points: 4
#     Node 171, Type 0, BuildingBlock: NAHDIM_clean_sbu_0, # of connection points: 4
#     Node 172, Type 0, BuildingBlock: NAHDIM_clean_sbu_0, # of connection points: 4
#     Node 173, Type 0, BuildingBlock: NAHDIM_clean_sbu_0, # of connection points: 4
#     Node 174, Type 0, BuildingBlock: NAHDIM_clean_sbu_0, # of connection points: 4
#     Node 175, Type 0, BuildingBlock: NAHDIM_clean_sbu_0, # of connection points: 4
#     Node 176, Type 0, BuildingBlock: NAHDIM_clean_sbu_0, # of connection points: 4
#     Node 177, Type 0, BuildingBlock: NAHDIM_clean_sbu_0, # of connection points: 4
#     Node 178, Type 0, BuildingBlock: NAHDIM_clean_sbu_0, # of connection points: 4
#     Node 179, Type 0, BuildingBlock: NAHDIM_clean_sbu_0, # of connection points: 4
#     Node 180, Type 0, BuildingBlock: NAHDIM_clean_sbu_0, # of connection points: 4
#     Node 181, Type 0, BuildingBlock: NAHDIM_clean_sbu_0, # of connection points: 4
#     Node 182, Type 0, BuildingBlock: NAHDIM_clean_sbu_0, # of connection points: 4
#     Node 183, Type 0, BuildingBlock: NAHDIM_clean_sbu_0, # of connection points: 4
#     Node 184, Type 0, BuildingBlock: NAHDIM_clean_sbu_0, # of connection points: 4
#     Node 185, Type 0, BuildingBlock: NAHDIM_clean_sbu_0, # of connection points: 4
#     Node 186, Type 0, BuildingBlock: NAHDIM_clean_sbu_0, # of connection points: 4
#     Node 187, Type 0, BuildingBlock: NAHDIM_clean_sbu_0, # of connection points: 4
#     Node 188, Type 0, BuildingBlock: NAHDIM_clean_sbu_0, # of connection points: 4
#     Node 189, Type 0, BuildingBlock: NAHDIM_clean_sbu_0, # of connection points: 4
#     Node 190, Type 0, BuildingBlock: NAHDIM_clean_sbu_0, # of connection points: 4
#     Node 191, Type 0, BuildingBlock: NAHDIM_clean_sbu_0, # of connection points: 4
#     Edge 192, Type (0, 0), None
#     Edge 193, Type (0, 0), None
#     Edge 194, Type (0, 0), None
#     Edge 195, Type (0, 0), None
#     Edge 196, Type (0, 0), None
#     Edge 197, Type (0, 0), None
#     Edge 198, Type (0, 0), None
#     Edge 199, Type (0, 0), None
#     Edge 200, Type (0, 0), None
#     Edge 201, Type (0, 0), None
#     Edge 202, Type (0, 0), None
#     Edge 203, Type (0, 0), None
#     Edge 204, Type (0, 0), None
#     Edge 205, Type (0, 0), None
#     Edge 206, Type (0, 0), None
#     Edge 207, Type (0, 0), None
#     Edge 208, Type (0, 0), None
#     Edge 209, Type (0, 0), None
#     Edge 210, Type (0, 0), None
#     Edge 211, Type (0, 0), None
#     Edge 212, Type (0, 0), None
#     Edge 213, Type (0, 0), None
#     Edge 214, Type (0, 0), None
#     Edge 215, Type (0, 0), None
#     Edge 216, Type (0, 0), None
#     Edge 217, Type (0, 0), None
#     Edge 218, Type (0, 0), None
#     Edge 219, Type (0, 0), None
#     Edge 220, Type (0, 0), None
#     Edge 221, Type (0, 0), None
#     Edge 222, Type (0, 0), None
#     Edge 223, Type (0, 0), None
#     Edge 224, Type (0, 0), None
#     Edge 225, Type (0, 0), None
#     Edge 226, Type (0, 0), None
#     Edge 227, Type (0, 0), None
#     Edge 228, Type (0, 0), None
#     Edge 229, Type (0, 0), None
#     Edge 230, Type (0, 0), None
#     Edge 231, Type (0, 0), None
#     Edge 232, Type (0, 0), None
#     Edge 233, Type (0, 0), None
#     Edge 234, Type (0, 0), None
#     Edge 235, Type (0, 0), None
#     Edge 236, Type (0, 0), None
#     Edge 237, Type (0, 0), None
#     Edge 238, Type (0, 0), None
#     Edge 239, Type (0, 0), None
#     Edge 240, Type (0, 0), None
#     Edge 241, Type (0, 0), None
#     Edge 242, Type (0, 0), None
#     Edge 243, Type (0, 0), None
#     Edge 244, Type (0, 0), None
#     Edge 245, Type (0, 0), None
#     Edge 246, Type (0, 0), None
#     Edge 247, Type (0, 0), None
#     Edge 248, Type (0, 0), None
#     Edge 249, Type (0, 0), None
#     Edge 250, Type (0, 0), None
#     Edge 251, Type (0, 0), None
#     Edge 252, Type (0, 0), None
#     Edge 253, Type (0, 0), None
#     Edge 254, Type (0, 0), None
#     Edge 255, Type (0, 0), None
#     Edge 256, Type (0, 0), None
#     Edge 257, Type (0, 0), None
#     Edge 258, Type (0, 0), None
#     Edge 259, Type (0, 0), None
#     Edge 260, Type (0, 0), None
#     Edge 261, Type (0, 0), None
#     Edge 262, Type (0, 0), None
#     Edge 263, Type (0, 0), None
#     Edge 264, Type (0, 0), None
#     Edge 265, Type (0, 0), None
#     Edge 266, Type (0, 0), None
#     Edge 267, Type (0, 0), None
#     Edge 268, Type (0, 0), None
#     Edge 269, Type (0, 0), None
#     Edge 270, Type (0, 0), None
#     Edge 271, Type (0, 0), None
#     Edge 272, Type (0, 0), None
#     Edge 273, Type (0, 0), None
#     Edge 274, Type (0, 0), None
#     Edge 275, Type (0, 0), None
#     Edge 276, Type (0, 0), None
#     Edge 277, Type (0, 0), None
#     Edge 278, Type (0, 0), None
#     Edge 279, Type (0, 0), None
#     Edge 280, Type (0, 0), None
#     Edge 281, Type (0, 0), None
#     Edge 282, Type (0, 0), None
#     Edge 283, Type (0, 0), None
#     Edge 284, Type (0, 0), None
#     Edge 285, Type (0, 0), None
#     Edge 286, Type (0, 0), None
#     Edge 287, Type (0, 0), None
#     Edge 288, Type (0, 0), None
#     Edge 289, Type (0, 0), None
#     Edge 290, Type (0, 0), None
#     Edge 291, Type (0, 0), None
#     Edge 292, Type (0, 0), None
#     Edge 293, Type (0, 0), None
#     Edge 294, Type (0, 0), None
#     Edge 295, Type (0, 0), None
#     Edge 296, Type (0, 0), None
#     Edge 297, Type (0, 0), None
#     Edge 298, Type (0, 0), None
#     Edge 299, Type (0, 0), None
#     Edge 300, Type (0, 0), None
#     Edge 301, Type (0, 0), None
#     Edge 302, Type (0, 0), None
#     Edge 303, Type (0, 0), None
#     Edge 304, Type (0, 0), None
#     Edge 305, Type (0, 0), None
#     Edge 306, Type (0, 0), None
#     Edge 307, Type (0, 0), None
#     Edge 308, Type (0, 0), None
#     Edge 309, Type (0, 0), None
#     Edge 310, Type (0, 0), None
#     Edge 311, Type (0, 0), None
#     Edge 312, Type (0, 0), None
#     Edge 313, Type (0, 0), None
#     Edge 314, Type (0, 0), None
#     Edge 315, Type (0, 0), None
#     Edge 316, Type (0, 0), None
#     Edge 317, Type (0, 0), None
#     Edge 318, Type (0, 0), None
#     Edge 319, Type (0, 0), None
#     Edge 320, Type (0, 0), None
#     Edge 321, Type (0, 0), None
#     Edge 322, Type (0, 0), None
#     Edge 323, Type (0, 0), None
#     Edge 324, Type (0, 0), None
#     Edge 325, Type (0, 0), None
#     Edge 326, Type (0, 0), None
#     Edge 327, Type (0, 0), None
#     Edge 328, Type (0, 0), None
#     Edge 329, Type (0, 0), None
#     Edge 330, Type (0, 0), None
#     Edge 331, Type (0, 0), None
#     Edge 332, Type (0, 0), None
#     Edge 333, Type (0, 0), None
#     Edge 334, Type (0, 0), None
#     Edge 335, Type (0, 0), None
#     Edge 336, Type (0, 0), None
#     Edge 337, Type (0, 0), None
#     Edge 338, Type (0, 0), None
#     Edge 339, Type (0, 0), None
#     Edge 340, Type (0, 0), None
#     Edge 341, Type (0, 0), None
#     Edge 342, Type (0, 0), None
#     Edge 343, Type (0, 0), None
#     Edge 344, Type (0, 0), None
#     Edge 345, Type (0, 0), None
#     Edge 346, Type (0, 0), None
#     Edge 347, Type (0, 0), None
#     Edge 348, Type (0, 0), None
#     Edge 349, Type (0, 0), None
#     Edge 350, Type (0, 0), None
#     Edge 351, Type (0, 0), None
#     Edge 352, Type (0, 0), None
#     Edge 353, Type (0, 0), None
#     Edge 354, Type (0, 0), None
#     Edge 355, Type (0, 0), None
#     Edge 356, Type (0, 0), None
#     Edge 357, Type (0, 0), None
#     Edge 358, Type (0, 0), None
#     Edge 359, Type (0, 0), None
#     Edge 360, Type (0, 0), None
#     Edge 361, Type (0, 0), None
#     Edge 362, Type (0, 0), None
#     Edge 363, Type (0, 0), None
#     Edge 364, Type (0, 0), None
#     Edge 365, Type (0, 0), None
#     Edge 366, Type (0, 0), None
#     Edge 367, Type (0, 0), None
#     Edge 368, Type (0, 0), None
#     Edge 369, Type (0, 0), None
#     Edge 370, Type (0, 0), None
#     Edge 371, Type (0, 0), None
#     Edge 372, Type (0, 0), None
#     Edge 373, Type (0, 0), None
#     Edge 374, Type (0, 0), None
#     Edge 375, Type (0, 0), None
#     Edge 376, Type (0, 0), None
#     Edge 377, Type (0, 0), None
#     Edge 378, Type (0, 0), None
#     Edge 379, Type (0, 0), None
#     Edge 380, Type (0, 0), None
#     Edge 381, Type (0, 0), None
#     Edge 382, Type (0, 0), None
#     Edge 383, Type (0, 0), None
#     Edge 384, Type (0, 0), None
#     Edge 385, Type (0, 0), None
#     Edge 386, Type (0, 0), None
#     Edge 387, Type (0, 0), None
#     Edge 388, Type (0, 0), None
#     Edge 389, Type (0, 0), None
#     Edge 390, Type (0, 0), None
#     Edge 391, Type (0, 0), None
#     Edge 392, Type (0, 0), None
#     Edge 393, Type (0, 0), None
#     Edge 394, Type (0, 0), None
#     Edge 395, Type (0, 0), None
#     Edge 396, Type (0, 0), None
#     Edge 397, Type (0, 0), None
#     Edge 398, Type (0, 0), None
#     Edge 399, Type (0, 0), None
#     Edge 400, Type (0, 0), None
#     Edge 401, Type (0, 0), None
#     Edge 402, Type (0, 0), None
#     Edge 403, Type (0, 0), None
#     Edge 404, Type (0, 0), None
#     Edge 405, Type (0, 0), None
#     Edge 406, Type (0, 0), None
#     Edge 407, Type (0, 0), None
#     Edge 408, Type (0, 0), None
#     Edge 409, Type (0, 0), None
#     Edge 410, Type (0, 0), None
#     Edge 411, Type (0, 0), None
#     Edge 412, Type (0, 0), None
#     Edge 413, Type (0, 0), None
#     Edge 414, Type (0, 0), None
#     Edge 415, Type (0, 0), None
#     Edge 416, Type (0, 0), None
#     Edge 417, Type (0, 0), None
#     Edge 418, Type (0, 0), None
#     Edge 419, Type (0, 0), None
#     Edge 420, Type (0, 0), None
#     Edge 421, Type (0, 0), None
#     Edge 422, Type (0, 0), None
#     Edge 423, Type (0, 0), None
#     Edge 424, Type (0, 0), None
#     Edge 425, Type (0, 0), None
#     Edge 426, Type (0, 0), None
#     Edge 427, Type (0, 0), None
#     Edge 428, Type (0, 0), None
#     Edge 429, Type (0, 0), None
#     Edge 430, Type (0, 0), None
#     Edge 431, Type (0, 0), None
#     Edge 432, Type (0, 0), None
#     Edge 433, Type (0, 0), None
#     Edge 434, Type (0, 0), None
#     Edge 435, Type (0, 0), None
#     Edge 436, Type (0, 0), None
#     Edge 437, Type (0, 0), None
#     Edge 438, Type (0, 0), None
#     Edge 439, Type (0, 0), None
#     Edge 440, Type (0, 0), None
#     Edge 441, Type (0, 0), None
#     Edge 442, Type (0, 0), None
#     Edge 443, Type (0, 0), None
#     Edge 444, Type (0, 0), None
#     Edge 445, Type (0, 0), None
#     Edge 446, Type (0, 0), None
#     Edge 447, Type (0, 0), None
#     Edge 448, Type (0, 0), None
#     Edge 449, Type (0, 0), None
#     Edge 450, Type (0, 0), None
#     Edge 451, Type (0, 0), None
#     Edge 452, Type (0, 0), None
#     Edge 453, Type (0, 0), None
#     Edge 454, Type (0, 0), None
#     Edge 455, Type (0, 0), None
#     Edge 456, Type (0, 0), None
#     Edge 457, Type (0, 0), None
#     Edge 458, Type (0, 0), None
#     Edge 459, Type (0, 0), None
#     Edge 460, Type (0, 0), None
#     Edge 461, Type (0, 0), None
#     Edge 462, Type (0, 0), None
#     Edge 463, Type (0, 0), None
#     Edge 464, Type (0, 0), None
#     Edge 465, Type (0, 0), None
#     Edge 466, Type (0, 0), None
#     Edge 467, Type (0, 0), None
#     Edge 468, Type (0, 0), None
#     Edge 469, Type (0, 0), None
#     Edge 470, Type (0, 0), None
#     Edge 471, Type (0, 0), None
#     Edge 472, Type (0, 0), None
#     Edge 473, Type (0, 0), None
#     Edge 474, Type (0, 0), None
#     Edge 475, Type (0, 0), None
#     Edge 476, Type (0, 0), None
#     Edge 477, Type (0, 0), None
#     Edge 478, Type (0, 0), None
#     Edge 479, Type (0, 0), None
#     Edge 480, Type (0, 0), None
#     Edge 481, Type (0, 0), None
#     Edge 482, Type (0, 0), None
#     Edge 483, Type (0, 0), None
#     Edge 484, Type (0, 0), None
#     Edge 485, Type (0, 0), None
#     Edge 486, Type (0, 0), None
#     Edge 487, Type (0, 0), None
#     Edge 488, Type (0, 0), None
#     Edge 489, Type (0, 0), None
#     Edge 490, Type (0, 0), None
#     Edge 491, Type (0, 0), None
#     Edge 492, Type (0, 0), None
#     Edge 493, Type (0, 0), None
#     Edge 494, Type (0, 0), None
#     Edge 495, Type (0, 0), None
#     Edge 496, Type (0, 0), None
#     Edge 497, Type (0, 0), None
#     Edge 498, Type (0, 0), None
#     Edge 499, Type (0, 0), None
#     Edge 500, Type (0, 0), None
#     Edge 501, Type (0, 0), None
#     Edge 502, Type (0, 0), None
#     Edge 503, Type (0, 0), None
#     Edge 504, Type (0, 0), None
#     Edge 505, Type (0, 0), None
#     Edge 506, Type (0, 0), None
#     Edge 507, Type (0, 0), None
#     Edge 508, Type (0, 0), None
#     Edge 509, Type (0, 0), None
#     Edge 510, Type (0, 0), None
#     Edge 511, Type (0, 0), None
#     Edge 512, Type (0, 0), None
#     Edge 513, Type (0, 0), None
#     Edge 514, Type (0, 0), None
#     Edge 515, Type (0, 0), None
#     Edge 516, Type (0, 0), None
#     Edge 517, Type (0, 0), None
#     Edge 518, Type (0, 0), None
#     Edge 519, Type (0, 0), None
#     Edge 520, Type (0, 0), None
#     Edge 521, Type (0, 0), None
#     Edge 522, Type (0, 0), None
#     Edge 523, Type (0, 0), None
#     Edge 524, Type (0, 0), None
#     Edge 525, Type (0, 0), None
#     Edge 526, Type (0, 0), None
#     Edge 527, Type (0, 0), None
#     Edge 528, Type (0, 0), None
#     Edge 529, Type (0, 0), None
#     Edge 530, Type (0, 0), None
#     Edge 531, Type (0, 0), None
#     Edge 532, Type (0, 0), None
#     Edge 533, Type (0, 0), None
#     Edge 534, Type (0, 0), None
#     Edge 535, Type (0, 0), None
#     Edge 536, Type (0, 0), None
#     Edge 537, Type (0, 0), None
#     Edge 538, Type (0, 0), None
#     Edge 539, Type (0, 0), None
#     Edge 540, Type (0, 0), None
#     Edge 541, Type (0, 0), None
#     Edge 542, Type (0, 0), None
#     Edge 543, Type (0, 0), None
#     Edge 544, Type (0, 0), None
#     Edge 545, Type (0, 0), None
#     Edge 546, Type (0, 0), None
#     Edge 547, Type (0, 0), None
#     Edge 548, Type (0, 0), None
#     Edge 549, Type (0, 0), None
#     Edge 550, Type (0, 0), None
#     Edge 551, Type (0, 0), None
#     Edge 552, Type (0, 0), None
#     Edge 553, Type (0, 0), None
#     Edge 554, Type (0, 0), None
#     Edge 555, Type (0, 0), None
#     Edge 556, Type (0, 0), None
#     Edge 557, Type (0, 0), None
#     Edge 558, Type (0, 0), None
#     Edge 559, Type (0, 0), None
#     Edge 560, Type (0, 0), None
#     Edge 561, Type (0, 0), None
#     Edge 562, Type (0, 0), None
#     Edge 563, Type (0, 0), None
#     Edge 564, Type (0, 0), None
#     Edge 565, Type (0, 0), None
#     Edge 566, Type (0, 0), None
#     Edge 567, Type (0, 0), None
#     Edge 568, Type (0, 0), None
#     Edge 569, Type (0, 0), None
#     Edge 570, Type (0, 0), None
#     Edge 571, Type (0, 0), None
#     Edge 572, Type (0, 0), None
#     Edge 573, Type (0, 0), None
#     Edge 574, Type (0, 0), None
#     Edge 575, Type (0, 0), None
# Relax obj value: 0.165
# Max RMSD: 0.184
# Mean RMSD: 0.184
data_MOF--net-fau--node1-NAHDIM_clean_sbu_0--edge1-none
_symmetry_space_group_name_H-M    P1
_symmetry_Int_Tables_number       1
_symmetry_cell_setting            triclinic
loop_
_symmetry_equiv_pos_as_xyz
'x, y, z'
_cell_length_a     53.544245
_cell_length_b     53.544396
_cell_length_c     53.544439
_cell_angle_alpha  89.999992
_cell_angle_beta   89.999996
_cell_angle_gamma 89.999987
loop_
_atom_site_label
_atom_site_type_symbol
_atom_site_fract_x
_atom_site_fract_y
_atom_site_fract_z
_atom_type_partial_charge
C0 C 0.05251 0.17724 0.4535 0.0
O1 O 0.03237 0.17989 0.46723 0.0
O2 O 0.01084 0.1273 0.47437 0.0
Zn3 Zn 0.03839 0.12423 0.4487 0.0
O4 O 0.06357 0.09919 0.46053 0.0
C5 C 0.00322 0.10704 0.41076 0.0
O6 O 0.98617 0.11727 0.42512 0.0
O7 O 0.05736 0.15627 0.4435 0.0
C8 C 0.05723 0.07657 0.46372 0.0
O9 O 0.03362 0.07023 0.46172 0.0
C10 C 0.01669 0.12887 0.49731 0.0
O11 O 0.04035 0.12927 0.50373 0.0
O12 O 0.02611 0.1093 0.41639 0.0
C13 C 0.82188 0.30251 0.7035 0.0
O14 O 0.81923 0.28237 0.71723 0.0
O15 O 0.87181 0.26084 0.72436 0.0
Zn16 Zn 0.87489 0.28839 0.6987 0.0
O17 O 0.89992 0.31357 0.71053 0.0
C18 C 0.89208 0.25322 0.66075 0.0
O19 O 0.88184 0.23617 0.67512 0.0
O20 O 0.84284 0.30736 0.6935 0.0
C21 C 0.92255 0.30723 0.71372 0.0
O22 O 0.92888 0.28362 0.71172 0.0
C23 C 0.87024 0.26669 0.74731 0.0
O24 O 0.86984 0.29035 0.75373 0.0
O25 O 0.88981 0.27611 0.66639 0.0
C26 C 0.69661 0.07187 0.9535 0.0
O27 O 0.71675 0.06922 0.96723 0.0
O28 O 0.73828 0.12181 0.97436 0.0
Zn29 Zn 0.71072 0.12488 0.9487 0.0
O30 O 0.68555 0.14992 0.96052 0.0
C31 C 0.7459 0.14207 0.91075 0.0
O32 O 0.76295 0.13184 0.92512 0.0
O33 O 0.69176 0.09284 0.94349 0.0
C34 C 0.69188 0.17255 0.96372 0.0
O35 O 0.7155 0.17888 0.96172 0.0
C36 C 0.73243 0.12024 0.99731 0.0
O37 O 0.70876 0.11984 0.00373 0.0
O38 O 0.72301 0.13981 0.91638 0.0
C39 C 0.92724 0.94661 0.2035 0.0
O40 O 0.92989 0.96675 0.21723 0.0
O41 O 0.87731 0.98828 0.22436 0.0
Zn42 Zn 0.87423 0.96072 0.1987 0.0
O43 O 0.8492 0.93555 0.21053 0.0
C44 C 0.85704 0.9959 0.16075 0.0
O45 O 0.86727 0.01295 0.17512 0.0
O46 O 0.90627 0.94176 0.1935 0.0
C47 C 0.82657 0.94189 0.21371 0.0
O48 O 0.82024 0.9655 0.21172 0.0
C49 C 0.87888 0.98243 0.24731 0.0
O50 O 0.87927 0.95876 0.25373 0.0
O51 O 0.85931 0.97301 0.16638 0.0
C52 C 0.05251 0.07188 0.79561 0.0
O53 O 0.03237 0.06923 0.78188 0.0
O54 O 0.01084 0.12181 0.77475 0.0
Zn55 Zn 0.03839 0.12488 0.80041 0.0
O56 O 0.06357 0.14992 0.78859 0.0
C57 C 0.00322 0.14208 0.83836 0.0
O58 O 0.98617 0.13185 0.82399 0.0
O59 O 0.05736 0.09284 0.80562 0.0
C60 C 0.05723 0.17255 0.7854 0.0
O61 O 0.03362 0.17888 0.78739 0.0
C62 C 0.01669 0.12024 0.7518 0.0
O63 O 0.04035 0.11984 0.74538 0.0
O64 O 0.02611 0.13981 0.83273 0.0
C65 C 0.92724 0.30251 0.04561 0.0
O66 O 0.92989 0.28237 0.03189 0.0
O67 O 0.87731 0.26084 0.02475 0.0
Zn68 Zn 0.87423 0.28839 0.05041 0.0
O69 O 0.8492 0.31356 0.03859 0.0
C70 C 0.85704 0.25321 0.08836 0.0
O71 O 0.86727 0.23617 0.07399 0.0
O72 O 0.90628 0.30735 0.05562 0.0
C73 C 0.82657 0.30723 0.0354 0.0
O74 O 0.82024 0.28362 0.03739 0.0
C75 C 0.87888 0.26669 0.0018 0.0
O76 O 0.87927 0.29035 0.99538 0.0
O77 O 0.85931 0.27611 0.08273 0.0
C78 C 0.69661 0.17724 0.29561 0.0
O79 O 0.71675 0.17989 0.28189 0.0
O80 O 0.73828 0.12731 0.27475 0.0
Zn81 Zn 0.71072 0.12423 0.30041 0.0
O82 O 0.68555 0.0992 0.28859 0.0
C83 C 0.7459 0.10704 0.33836 0.0
O84 O 0.76294 0.11727 0.32399 0.0
O85 O 0.69176 0.15628 0.30562 0.0
C86 C 0.69188 0.07657 0.2854 0.0
O87 O 0.7155 0.07024 0.28739 0.0
C88 C 0.73243 0.12888 0.2518 0.0
O89 O 0.70876 0.12928 0.24538 0.0
O90 O 0.72301 0.10931 0.33273 0.0
C91 C 0.82188 0.9466 0.54561 0.0
O92 O 0.81923 0.96675 0.53188 0.0
O93 O 0.87181 0.98828 0.52475 0.0
Zn94 Zn 0.87489 0.96072 0.55041 0.0
O95 O 0.89992 0.93555 0.53859 0.0
C96 C 0.89208 0.9959 0.58836 0.0
O97 O 0.88185 0.01294 0.57399 0.0
O98 O 0.84284 0.94176 0.55562 0.0
C99 C 0.92255 0.94188 0.5354 0.0
O100 O 0.92888 0.96549 0.53739 0.0
C101 C 0.87024 0.98243 0.5018 0.0
O102 O 0.86984 0.95876 0.49538 0.0
O103 O 0.88981 0.97301 0.58273 0.0
C104 C 0.4535 0.05251 0.17724 0.0
O105 O 0.46723 0.03237 0.17989 0.0
O106 O 0.47437 0.01084 0.1273 0.0
Zn107 Zn 0.4487 0.03839 0.12423 0.0
O108 O 0.46053 0.06357 0.09919 0.0
C109 C 0.41076 0.00322 0.10704 0.0
O110 O 0.42512 0.98617 0.11727 0.0
O111 O 0.4435 0.05736 0.15627 0.0
C112 C 0.46371 0.05723 0.07657 0.0
O113 O 0.46172 0.03362 0.07023 0.0
C114 C 0.49731 0.01669 0.12888 0.0
O115 O 0.50373 0.04035 0.12927 0.0
O116 O 0.41639 0.02611 0.10931 0.0
C117 C 0.94661 0.7035 0.42724 0.0
O118 O 0.96675 0.71723 0.42989 0.0
O119 O 0.98828 0.72437 0.3773 0.0
Zn120 Zn 0.96072 0.6987 0.37423 0.0
O121 O 0.93555 0.71053 0.34919 0.0
C122 C 0.9959 0.66076 0.35704 0.0
O123 O 0.01294 0.67512 0.36727 0.0
O124 O 0.94176 0.6935 0.40627 0.0
C125 C 0.94188 0.71372 0.32657 0.0
O126 O 0.9655 0.71173 0.32024 0.0
C127 C 0.98243 0.74731 0.37887 0.0
O128 O 0.95876 0.75373 0.37927 0.0
O129 O 0.97301 0.66639 0.3593 0.0
C130 C 0.29561 0.19661 0.67724 0.0
O131 O 0.28189 0.21675 0.67989 0.0
O132 O 0.27475 0.23828 0.6273 0.0
Zn133 Zn 0.30041 0.21072 0.62423 0.0
O134 O 0.28859 0.18555 0.59919 0.0
C135 C 0.33836 0.2459 0.60704 0.0
O136 O 0.324 0.26294 0.61727 0.0
O137 O 0.30562 0.19176 0.65627 0.0
C138 C 0.2854 0.19188 0.57657 0.0
O139 O 0.28739 0.2155 0.57023 0.0
C140 C 0.2518 0.23243 0.62887 0.0
O141 O 0.24538 0.20876 0.62927 0.0
O142 O 0.33273 0.22301 0.6093 0.0
C143 C 0.80251 0.54561 0.92724 0.0
O144 O 0.78237 0.53189 0.92989 0.0
O145 O 0.76084 0.52475 0.8773 0.0
Zn146 Zn 0.78839 0.55041 0.87423 0.0
O147 O 0.81357 0.53859 0.84919 0.0
C148 C 0.75322 0.58836 0.85704 0.0
O149 O 0.73617 0.574 0.86727 0.0
O150 O 0.80736 0.55562 0.90627 0.0
C151 C 0.80723 0.5354 0.82656 0.0
O152 O 0.78362 0.53739 0.82023 0.0
C153 C 0.76669 0.5018 0.87887 0.0
O154 O 0.79035 0.49538 0.87927 0.0
O155 O 0.77611 0.58273 0.8593 0.0
C156 C 0.45351 0.19661 0.07188 0.0
O157 O 0.46723 0.21675 0.06923 0.0
O158 O 0.47437 0.23828 0.12181 0.0
Zn159 Zn 0.44871 0.21072 0.12488 0.0
O160 O 0.46053 0.18555 0.14992 0.0
C161 C 0.41076 0.2459 0.14208 0.0
O162 O 0.42512 0.26294 0.13184 0.0
O163 O 0.4435 0.19176 0.09284 0.0
C164 C 0.46372 0.19188 0.17255 0.0
O165 O 0.46173 0.2155 0.17888 0.0
C166 C 0.49732 0.23243 0.12024 0.0
O167 O 0.50374 0.20877 0.11984 0.0
O168 O 0.41639 0.22301 0.13981 0.0
C169 C 0.80251 0.7035 0.32188 0.0
O170 O 0.78237 0.71723 0.31923 0.0
O171 O 0.76084 0.72436 0.37181 0.0
Zn172 Zn 0.78839 0.6987 0.37488 0.0
O173 O 0.81357 0.71052 0.39992 0.0
C174 C 0.75322 0.66075 0.39207 0.0
O175 O 0.73617 0.67512 0.38184 0.0
O176 O 0.80736 0.6935 0.34284 0.0
C177 C 0.80723 0.71371 0.42255 0.0
O178 O 0.78362 0.71172 0.42888 0.0
C179 C 0.76669 0.74731 0.37024 0.0
O180 O 0.79035 0.75373 0.36984 0.0
O181 O 0.77611 0.66638 0.38981 0.0
C182 C 0.29561 0.05251 0.57188 0.0
O183 O 0.28189 0.03237 0.56923 0.0
O184 O 0.27475 0.01084 0.62181 0.0
Zn185 Zn 0.30042 0.03839 0.62489 0.0
O186 O 0.28859 0.06357 0.64992 0.0
C187 C 0.33836 0.00322 0.64208 0.0
O188 O 0.32399 0.98617 0.63184 0.0
O189 O 0.30562 0.05736 0.59284 0.0
C190 C 0.2854 0.05723 0.67255 0.0
O191 O 0.2874 0.03362 0.67888 0.0
C192 C 0.2518 0.01669 0.62024 0.0
O193 O 0.24539 0.04035 0.61984 0.0
O194 O 0.33273 0.02611 0.63981 0.0
C195 C 0.94661 0.54561 0.82188 0.0
O196 O 0.96675 0.53189 0.81923 0.0
O197 O 0.98828 0.52475 0.87181 0.0
Zn198 Zn 0.96072 0.55041 0.87489 0.0
O199 O 0.93555 0.53859 0.89992 0.0
C200 C 0.9959 0.58836 0.89208 0.0
O201 O 0.01294 0.574 0.88184 0.0
O202 O 0.94176 0.55562 0.84284 0.0
C203 C 0.94188 0.5354 0.92255 0.0
O204 O 0.96549 0.5374 0.92888 0.0
C205 C 0.98243 0.5018 0.87024 0.0
O206 O 0.95876 0.49539 0.86984 0.0
O207 O 0.97301 0.58273 0.88981 0.0
C208 C 0.17724 0.4535 0.05251 0.0
O209 O 0.17989 0.46723 0.03237 0.0
O210 O 0.12731 0.47436 0.01084 0.0
Zn211 Zn 0.12423 0.4487 0.03839 0.0
O212 O 0.0992 0.46052 0.06356 0.0
C213 C 0.10704 0.41076 0.00321 0.0
O214 O 0.11727 0.42512 0.98617 0.0
O215 O 0.15628 0.4435 0.05735 0.0
C216 C 0.07657 0.46371 0.05723 0.0
O217 O 0.07024 0.46172 0.03362 0.0
C218 C 0.12888 0.49731 0.01669 0.0
O219 O 0.12927 0.50373 0.04035 0.0
O220 O 0.10931 0.41638 0.02611 0.0
C221 C 0.67724 0.29561 0.19661 0.0
O222 O 0.67989 0.28189 0.21675 0.0
O223 O 0.6273 0.27475 0.23828 0.0
Zn224 Zn 0.62423 0.30041 0.21072 0.0
O225 O 0.5992 0.28859 0.18555 0.0
C226 C 0.60704 0.33836 0.2459 0.0
O227 O 0.61727 0.32399 0.26294 0.0
O228 O 0.65627 0.30562 0.19176 0.0
C229 C 0.57657 0.2854 0.19188 0.0
O230 O 0.57023 0.2874 0.21549 0.0
C231 C 0.62887 0.2518 0.23243 0.0
O232 O 0.62927 0.24539 0.20876 0.0
O233 O 0.60931 0.33273 0.22301 0.0
C234 C 0.7035 0.92724 0.4466 0.0
O235 O 0.71723 0.92989 0.46675 0.0
O236 O 0.72437 0.8773 0.48827 0.0
Zn237 Zn 0.6987 0.87423 0.46072 0.0
O238 O 0.71053 0.84919 0.43555 0.0
C239 C 0.66076 0.85704 0.4959 0.0
O240 O 0.67512 0.86727 0.51294 0.0
O241 O 0.6935 0.90627 0.44176 0.0
C242 C 0.71372 0.82656 0.44188 0.0
O243 O 0.71172 0.82023 0.46549 0.0
C244 C 0.74731 0.87887 0.48243 0.0
O245 O 0.75373 0.87927 0.45876 0.0
O246 O 0.66639 0.8593 0.473 0.0
C247 C 0.07188 0.9535 0.6966 0.0
O248 O 0.06923 0.96723 0.71675 0.0
O249 O 0.12181 0.97436 0.73828 0.0
Zn250 Zn 0.12489 0.9487 0.71072 0.0
O251 O 0.14992 0.96053 0.68555 0.0
C252 C 0.14208 0.91075 0.7459 0.0
O253 O 0.13184 0.92512 0.76294 0.0
O254 O 0.09284 0.9435 0.69176 0.0
C255 C 0.17255 0.96372 0.69188 0.0
O256 O 0.17888 0.96172 0.71549 0.0
C257 C 0.12024 0.99731 0.73243 0.0
O258 O 0.11984 0.00373 0.70876 0.0
O259 O 0.13981 0.91639 0.72301 0.0
C260 C 0.54561 0.32188 0.44661 0.0
O261 O 0.53189 0.31923 0.46675 0.0
O262 O 0.52475 0.37181 0.48828 0.0
Zn263 Zn 0.55041 0.37489 0.46072 0.0
O264 O 0.53859 0.39992 0.43555 0.0
C265 C 0.58836 0.39208 0.4959 0.0
O266 O 0.574 0.38184 0.51294 0.0
O267 O 0.55562 0.34284 0.44176 0.0
C268 C 0.5354 0.42255 0.44188 0.0
O269 O 0.5374 0.42888 0.46549 0.0
C270 C 0.5018 0.37024 0.48243 0.0
O271 O 0.49538 0.36984 0.45876 0.0
O272 O 0.58273 0.38981 0.47301 0.0
C273 C 0.07188 0.79561 0.05251 0.0
O274 O 0.06923 0.78189 0.03237 0.0
O275 O 0.12181 0.77475 0.01084 0.0
Zn276 Zn 0.12488 0.80041 0.03839 0.0
O277 O 0.14992 0.78859 0.06356 0.0
C278 C 0.14208 0.83836 0.00321 0.0
O279 O 0.13185 0.82399 0.98617 0.0
O280 O 0.09284 0.80562 0.05735 0.0
C281 C 0.17255 0.7854 0.05723 0.0
O282 O 0.17888 0.78739 0.03362 0.0
C283 C 0.12024 0.7518 0.01669 0.0
O284 O 0.11984 0.74538 0.04035 0.0
O285 O 0.13981 0.83273 0.02611 0.0
C286 C 0.7035 0.82188 0.30251 0.0
O287 O 0.71723 0.81923 0.28237 0.0
O288 O 0.72437 0.87181 0.26084 0.0
Zn289 Zn 0.6987 0.87488 0.28839 0.0
O290 O 0.71053 0.89992 0.31356 0.0
C291 C 0.66076 0.89207 0.25321 0.0
O292 O 0.67512 0.88184 0.23617 0.0
O293 O 0.6935 0.84284 0.30735 0.0
C294 C 0.71371 0.92255 0.30723 0.0
O295 O 0.71172 0.92888 0.28362 0.0
C296 C 0.74731 0.87024 0.26669 0.0
O297 O 0.75373 0.86984 0.29035 0.0
O298 O 0.66639 0.88981 0.27611 0.0
C299 C 0.04561 0.42724 0.80251 0.0
O300 O 0.03189 0.42989 0.78237 0.0
O301 O 0.02475 0.37731 0.76084 0.0
Zn302 Zn 0.05042 0.37423 0.78839 0.0
O303 O 0.03859 0.3492 0.81357 0.0
C304 C 0.08836 0.35704 0.75322 0.0
O305 O 0.07399 0.36727 0.73617 0.0
O306 O 0.05562 0.40628 0.80736 0.0
C307 C 0.0354 0.32657 0.80723 0.0
O308 O 0.03739 0.32024 0.78362 0.0
C309 C 0.00181 0.37887 0.76669 0.0
O310 O 0.99539 0.37927 0.79035 0.0
O311 O 0.08273 0.35931 0.77611 0.0
C312 C 0.94661 0.82188 0.54561 0.0
O313 O 0.96675 0.81923 0.53189 0.0
O314 O 0.98828 0.87181 0.52475 0.0
Zn315 Zn 0.96072 0.87489 0.55041 0.0
O316 O 0.93555 0.89992 0.53859 0.0
C317 C 0.9959 0.89207 0.58836 0.0
O318 O 0.01294 0.88184 0.574 0.0
O319 O 0.94176 0.84284 0.55562 0.0
C320 C 0.94189 0.92255 0.5354 0.0
O321 O 0.9655 0.92889 0.53739 0.0
C322 C 0.98243 0.87024 0.5018 0.0
O323 O 0.95876 0.86984 0.49538 0.0
O324 O 0.97301 0.88981 0.58273 0.0
C325 C 0.17724 0.6966 0.29561 0.0
O326 O 0.17989 0.71675 0.28189 0.0
O327 O 0.12731 0.73827 0.27475 0.0
Zn328 Zn 0.12423 0.71072 0.30041 0.0
O329 O 0.0992 0.68555 0.28859 0.0
C330 C 0.10704 0.7459 0.33836 0.0
O331 O 0.11728 0.76294 0.324 0.0
O332 O 0.15628 0.69176 0.30562 0.0
C333 C 0.07657 0.69188 0.2854 0.0
O334 O 0.07024 0.71549 0.28739 0.0
C335 C 0.12888 0.73243 0.2518 0.0
O336 O 0.12928 0.70876 0.24538 0.0
O337 O 0.10931 0.723 0.33273 0.0
C338 C 0.30251 0.92724 0.04561 0.0
O339 O 0.28237 0.92989 0.03189 0.0
O340 O 0.26084 0.87731 0.02475 0.0
Zn341 Zn 0.28839 0.87423 0.05041 0.0
O342 O 0.31357 0.8492 0.03859 0.0
C343 C 0.25322 0.85704 0.08836 0.0
O344 O 0.23617 0.86727 0.074 0.0
O345 O 0.30736 0.90627 0.05562 0.0
C346 C 0.30723 0.82657 0.0354 0.0
O347 O 0.28362 0.82024 0.03739 0.0
C348 C 0.26669 0.87888 0.0018 0.0
O349 O 0.29035 0.87927 0.99538 0.0
O350 O 0.27611 0.85931 0.08273 0.0
C351 C 0.07188 0.05251 0.79561 0.0
O352 O 0.06922 0.03237 0.78188 0.0
O353 O 0.12181 0.01084 0.77475 0.0
Zn354 Zn 0.12489 0.03839 0.80041 0.0
O355 O 0.14992 0.06356 0.78859 0.0
C356 C 0.14208 0.00321 0.83836 0.0
O357 O 0.13185 0.98617 0.82399 0.0
O358 O 0.09284 0.05735 0.80562 0.0
C359 C 0.17255 0.05723 0.7854 0.0
O360 O 0.17888 0.03362 0.78739 0.0
C361 C 0.12024 0.01669 0.7518 0.0
O362 O 0.11984 0.04035 0.74538 0.0
O363 O 0.13981 0.02611 0.83273 0.0
C364 C 0.94661 0.92724 0.2035 0.0
O365 O 0.96675 0.92989 0.21723 0.0
O366 O 0.98828 0.87731 0.22436 0.0
Zn367 Zn 0.96073 0.87423 0.1987 0.0
O368 O 0.93555 0.8492 0.21052 0.0
C369 C 0.9959 0.85704 0.16076 0.0
O370 O 0.01295 0.86727 0.17512 0.0
O371 O 0.94176 0.90627 0.1935 0.0
C372 C 0.94189 0.82657 0.21371 0.0
O373 O 0.9655 0.82024 0.21172 0.0
C374 C 0.98243 0.87887 0.24731 0.0
O375 O 0.95877 0.87927 0.25373 0.0
O376 O 0.97301 0.85931 0.16638 0.0
C377 C 0.07188 0.69661 0.9535 0.0
O378 O 0.06923 0.71675 0.96723 0.0
O379 O 0.12181 0.73828 0.97436 0.0
Zn380 Zn 0.12489 0.71072 0.9487 0.0
O381 O 0.14992 0.68555 0.96053 0.0
C382 C 0.14208 0.7459 0.91075 0.0
O383 O 0.13184 0.76294 0.92512 0.0
O384 O 0.09284 0.69176 0.9435 0.0
C385 C 0.17255 0.69188 0.96372 0.0
O386 O 0.17888 0.7155 0.96172 0.0
C387 C 0.12024 0.73243 0.99731 0.0
O388 O 0.11984 0.70876 0.00373 0.0
O389 O 0.13981 0.72301 0.91639 0.0
C390 C 0.30251 0.82187 0.7035 0.0
O391 O 0.28237 0.81923 0.71723 0.0
O392 O 0.26084 0.87181 0.72437 0.0
Zn393 Zn 0.28839 0.87488 0.6987 0.0
O394 O 0.31357 0.89992 0.71053 0.0
C395 C 0.25322 0.89208 0.66076 0.0
O396 O 0.23617 0.88184 0.67512 0.0
O397 O 0.30736 0.84284 0.6935 0.0
C398 C 0.30723 0.92255 0.71372 0.0
O399 O 0.28362 0.92888 0.71173 0.0
C400 C 0.26669 0.87024 0.74731 0.0
O401 O 0.29035 0.86984 0.75373 0.0
O402 O 0.27611 0.88981 0.66639 0.0
C403 C 0.17724 0.05251 0.4535 0.0
O404 O 0.17989 0.03237 0.46723 0.0
O405 O 0.1273 0.01084 0.47437 0.0
Zn406 Zn 0.12423 0.03839 0.4487 0.0
O407 O 0.09919 0.06356 0.46053 0.0
C408 C 0.10704 0.00322 0.41076 0.0
O409 O 0.11727 0.98617 0.42512 0.0
O410 O 0.15627 0.05735 0.4435 0.0
C411 C 0.07657 0.05723 0.46372 0.0
O412 O 0.07023 0.03362 0.46172 0.0
C413 C 0.12887 0.01669 0.49731 0.0
O414 O 0.12927 0.04035 0.50373 0.0
O415 O 0.10931 0.02611 0.41639 0.0
C416 C 0.54562 0.9466 0.82188 0.0
O417 O 0.53189 0.96675 0.81923 0.0
O418 O 0.52475 0.98827 0.87181 0.0
Zn419 Zn 0.55042 0.96072 0.87488 0.0
O420 O 0.53859 0.93555 0.89992 0.0
C421 C 0.58836 0.9959 0.89207 0.0
O422 O 0.574 0.01294 0.88184 0.0
O423 O 0.55562 0.94176 0.84284 0.0
C424 C 0.5354 0.94188 0.92255 0.0
O425 O 0.5374 0.96549 0.92888 0.0
C426 C 0.5018 0.98243 0.87024 0.0
O427 O 0.49539 0.95876 0.86984 0.0
O428 O 0.58273 0.973 0.88981 0.0
C429 C 0.05251 0.29561 0.57188 0.0
O430 O 0.03237 0.28188 0.56923 0.0
O431 O 0.01084 0.27475 0.62181 0.0
Zn432 Zn 0.03839 0.30041 0.62488 0.0
O433 O 0.06357 0.28859 0.64992 0.0
C434 C 0.00322 0.33836 0.64208 0.0
O435 O 0.98617 0.32399 0.63184 0.0
O436 O 0.05736 0.30562 0.59284 0.0
C437 C 0.05723 0.2854 0.67255 0.0
O438 O 0.03362 0.28739 0.67888 0.0
C439 C 0.01669 0.2518 0.62024 0.0
O440 O 0.04035 0.24538 0.61984 0.0
O441 O 0.02611 0.33273 0.63981 0.0
C442 C 0.7035 0.80251 0.32188 0.0
O443 O 0.71723 0.78237 0.31922 0.0
O444 O 0.72437 0.76084 0.37181 0.0
Zn445 Zn 0.6987 0.78839 0.37488 0.0
O446 O 0.71053 0.81356 0.39992 0.0
C447 C 0.66076 0.75321 0.39208 0.0
O448 O 0.67512 0.73617 0.38184 0.0
O449 O 0.6935 0.80735 0.34284 0.0
C450 C 0.71372 0.80723 0.42255 0.0
O451 O 0.71173 0.78362 0.42889 0.0
C452 C 0.74731 0.76668 0.37024 0.0
O453 O 0.75373 0.79035 0.36984 0.0
O454 O 0.66639 0.77611 0.38981 0.0
C455 C 0.19661 0.4535 0.07188 0.0
O456 O 0.21675 0.46723 0.06922 0.0
O457 O 0.23828 0.47436 0.12181 0.0
Zn458 Zn 0.21072 0.4487 0.12489 0.0
O459 O 0.18555 0.46053 0.14992 0.0
C460 C 0.2459 0.41075 0.14208 0.0
O461 O 0.26295 0.42512 0.13184 0.0
O462 O 0.19176 0.4435 0.09284 0.0
C463 C 0.19188 0.46371 0.17255 0.0
O464 O 0.2155 0.46172 0.17888 0.0
C465 C 0.23243 0.49731 0.12024 0.0
O466 O 0.20876 0.50373 0.11984 0.0
O467 O 0.22301 0.41639 0.13981 0.0
C468 C 0.54561 0.80251 0.92724 0.0
O469 O 0.53189 0.78237 0.92989 0.0
O470 O 0.52475 0.76084 0.8773 0.0
Zn471 Zn 0.55041 0.78839 0.87423 0.0
O472 O 0.53859 0.81357 0.84919 0.0
C473 C 0.58836 0.75322 0.85704 0.0
O474 O 0.574 0.73617 0.86727 0.0
O475 O 0.55562 0.80735 0.90627 0.0
C476 C 0.5354 0.80723 0.82657 0.0
O477 O 0.53739 0.78362 0.82024 0.0
C478 C 0.5018 0.76668 0.87887 0.0
O479 O 0.49538 0.79035 0.87927 0.0
O480 O 0.58273 0.77611 0.8593 0.0
C481 C 0.19661 0.29561 0.67724 0.0
O482 O 0.21675 0.28189 0.67989 0.0
O483 O 0.23828 0.27475 0.6273 0.0
Zn484 Zn 0.21072 0.30041 0.62423 0.0
O485 O 0.18555 0.28859 0.59919 0.0
C486 C 0.2459 0.33836 0.60704 0.0
O487 O 0.26294 0.32399 0.61727 0.0
O488 O 0.19176 0.30562 0.65627 0.0
C489 C 0.19188 0.2854 0.57657 0.0
O490 O 0.2155 0.28739 0.57023 0.0
C491 C 0.23243 0.2518 0.62887 0.0
O492 O 0.20876 0.24538 0.62927 0.0
O493 O 0.22301 0.33273 0.60931 0.0
C494 C 0.7035 0.94661 0.42724 0.0
O495 O 0.71723 0.96675 0.42989 0.0
O496 O 0.72437 0.98827 0.3773 0.0
Zn497 Zn 0.6987 0.96072 0.37423 0.0
O498 O 0.71053 0.93555 0.34919 0.0
C499 C 0.66076 0.9959 0.35704 0.0
O500 O 0.67512 0.01294 0.36727 0.0
O501 O 0.6935 0.94176 0.40627 0.0
C502 C 0.71371 0.94188 0.32656 0.0
O503 O 0.71172 0.96549 0.32023 0.0
C504 C 0.74731 0.98243 0.37887 0.0
O505 O 0.75373 0.95876 0.37927 0.0
O506 O 0.66639 0.973 0.35931 0.0
C507 C 0.05251 0.4535 0.17724 0.0
O508 O 0.03237 0.46722 0.17989 0.0
O509 O 0.01084 0.47436 0.1273 0.0
Zn510 Zn 0.03839 0.4487 0.12423 0.0
O511 O 0.06357 0.46052 0.09919 0.0
C512 C 0.00322 0.41075 0.10704 0.0
O513 O 0.98617 0.42512 0.11727 0.0
O514 O 0.05736 0.4435 0.15627 0.0
C515 C 0.05723 0.46371 0.07656 0.0
O516 O 0.03362 0.46172 0.07023 0.0
C517 C 0.01669 0.49731 0.12887 0.0
O518 O 0.04035 0.50373 0.12927 0.0
O519 O 0.02611 0.41638 0.10931 0.0
C520 C 0.82188 0.54561 0.94661 0.0
O521 O 0.81922 0.53189 0.96675 0.0
O522 O 0.87181 0.52475 0.98828 0.0
Zn523 Zn 0.87489 0.55041 0.96072 0.0
O524 O 0.89992 0.53859 0.93555 0.0
C525 C 0.89208 0.58836 0.9959 0.0
O526 O 0.88185 0.57399 0.01295 0.0
O527 O 0.84284 0.55562 0.94176 0.0
C528 C 0.92255 0.5354 0.94188 0.0
O529 O 0.92889 0.53739 0.96549 0.0
C530 C 0.87024 0.5018 0.98243 0.0
O531 O 0.86984 0.49538 0.95876 0.0
O532 O 0.88981 0.58273 0.97301 0.0
C533 C 0.32188 0.7035 0.80251 0.0
O534 O 0.31923 0.71723 0.78237 0.0
O535 O 0.37181 0.72436 0.76084 0.0
Zn536 Zn 0.37489 0.6987 0.78839 0.0
O537 O 0.39992 0.71052 0.81357 0.0
C538 C 0.39208 0.66075 0.75321 0.0
O539 O 0.38185 0.67512 0.73617 0.0
O540 O 0.34284 0.6935 0.80735 0.0
C541 C 0.42255 0.71371 0.80723 0.0
O542 O 0.42888 0.71172 0.78362 0.0
C543 C 0.37024 0.74731 0.76669 0.0
O544 O 0.36985 0.75373 0.79035 0.0
O545 O 0.38981 0.66638 0.77611 0.0
C546 C 0.29561 0.07188 0.55251 0.0
O547 O 0.28189 0.06922 0.53237 0.0
O548 O 0.27475 0.12181 0.51084 0.0
Zn549 Zn 0.30041 0.12489 0.53839 0.0
O550 O 0.28859 0.14992 0.56356 0.0
C551 C 0.33836 0.14208 0.50321 0.0
O552 O 0.324 0.13184 0.48617 0.0
O553 O 0.30562 0.09284 0.55735 0.0
C554 C 0.2854 0.17255 0.55723 0.0
O555 O 0.28739 0.17889 0.53362 0.0
C556 C 0.2518 0.12024 0.51669 0.0
O557 O 0.24538 0.11984 0.54035 0.0
O558 O 0.33273 0.13981 0.52611 0.0
C559 C 0.92724 0.04561 0.30251 0.0
O560 O 0.92989 0.03189 0.28237 0.0
O561 O 0.87731 0.02475 0.26084 0.0
Zn562 Zn 0.87423 0.05041 0.28839 0.0
O563 O 0.8492 0.03859 0.31357 0.0
C564 C 0.85704 0.08836 0.25322 0.0
O565 O 0.86727 0.074 0.23617 0.0
O566 O 0.90627 0.05562 0.30735 0.0
C567 C 0.82657 0.0354 0.30723 0.0
O568 O 0.82024 0.03739 0.28362 0.0
C569 C 0.87887 0.0018 0.26669 0.0
O570 O 0.87927 0.99538 0.29035 0.0
O571 O 0.85931 0.08273 0.27611 0.0
C572 C 0.4535 0.67724 0.55251 0.0
O573 O 0.46723 0.67989 0.53237 0.0
O574 O 0.47437 0.6273 0.51084 0.0
Zn575 Zn 0.4487 0.62423 0.53839 0.0
O576 O 0.46053 0.59919 0.56357 0.0
C577 C 0.41076 0.60704 0.50321 0.0
O578 O 0.42512 0.61727 0.48617 0.0
O579 O 0.4435 0.65627 0.55735 0.0
C580 C 0.46372 0.57657 0.55723 0.0
O581 O 0.46172 0.57023 0.53362 0.0
C582 C 0.49731 0.62887 0.51669 0.0
O583 O 0.50373 0.62927 0.54035 0.0
O584 O 0.41639 0.60931 0.52611 0.0
C585 C 0.92724 0.2035 0.9466 0.0
O586 O 0.92989 0.21723 0.96675 0.0
O587 O 0.87731 0.22436 0.98828 0.0
Zn588 Zn 0.87423 0.1987 0.96072 0.0
O589 O 0.8492 0.21053 0.93555 0.0
C590 C 0.85704 0.16076 0.9959 0.0
O591 O 0.86727 0.17512 0.01294 0.0
O592 O 0.90628 0.1935 0.94176 0.0
C593 C 0.82657 0.21371 0.94188 0.0
O594 O 0.82024 0.21172 0.96549 0.0
C595 C 0.87888 0.24731 0.98243 0.0
O596 O 0.87927 0.25373 0.95876 0.0
O597 O 0.85931 0.16638 0.973 0.0
C598 C 0.29561 0.17724 0.69661 0.0
O599 O 0.28189 0.17989 0.71675 0.0
O600 O 0.27475 0.1273 0.73828 0.0
Zn601 Zn 0.30042 0.12423 0.71072 0.0
O602 O 0.28859 0.0992 0.68555 0.0
C603 C 0.33836 0.10704 0.7459 0.0
O604 O 0.324 0.11727 0.76294 0.0
O605 O 0.30562 0.15627 0.69176 0.0
C606 C 0.2854 0.07657 0.69188 0.0
O607 O 0.28739 0.07023 0.71549 0.0
C608 C 0.2518 0.12887 0.73243 0.0
O609 O 0.24539 0.12927 0.70876 0.0
O610 O 0.33273 0.10931 0.72301 0.0
C611 C 0.9535 0.57187 0.1966 0.0
O612 O 0.96723 0.56923 0.21675 0.0
O613 O 0.97436 0.62181 0.23827 0.0
Zn614 Zn 0.9487 0.62488 0.21072 0.0
O615 O 0.96052 0.64992 0.18555 0.0
C616 C 0.91076 0.64208 0.2459 0.0
O617 O 0.92512 0.63185 0.26294 0.0
O618 O 0.9435 0.59284 0.19176 0.0
C619 C 0.96371 0.67255 0.19188 0.0
O620 O 0.96172 0.67888 0.21549 0.0
C621 C 0.99731 0.62024 0.23243 0.0
O622 O 0.00373 0.61984 0.20876 0.0
O623 O 0.91638 0.63981 0.223 0.0
C624 C 0.05251 0.67724 0.9535 0.0
O625 O 0.03237 0.67989 0.96723 0.0
O626 O 0.01084 0.6273 0.97437 0.0
Zn627 Zn 0.03839 0.62423 0.9487 0.0
O628 O 0.06357 0.59919 0.96053 0.0
C629 C 0.00322 0.60704 0.91075 0.0
O630 O 0.98617 0.61728 0.92511 0.0
O631 O 0.05735 0.65627 0.9435 0.0
C632 C 0.05723 0.57657 0.96372 0.0
O633 O 0.03362 0.57023 0.96173 0.0
C634 C 0.01669 0.62887 0.99731 0.0
O635 O 0.04035 0.62927 0.00373 0.0
O636 O 0.02611 0.6093 0.91639 0.0
C637 C 0.82188 0.80251 0.2035 0.0
O638 O 0.81923 0.78237 0.21723 0.0
O639 O 0.87181 0.76084 0.22436 0.0
Zn640 Zn 0.87489 0.78839 0.1987 0.0
O641 O 0.89992 0.81357 0.21053 0.0
C642 C 0.89208 0.75322 0.16075 0.0
O643 O 0.88184 0.73617 0.17512 0.0
O644 O 0.84284 0.80736 0.1935 0.0
C645 C 0.92255 0.80723 0.21371 0.0
O646 O 0.92889 0.78362 0.21172 0.0
C647 C 0.87024 0.76669 0.24731 0.0
O648 O 0.86984 0.79035 0.25373 0.0
O649 O 0.88981 0.77611 0.16639 0.0
C650 C 0.69661 0.57188 0.4535 0.0
O651 O 0.71675 0.56923 0.46723 0.0
O652 O 0.73828 0.62181 0.47437 0.0
Zn653 Zn 0.71072 0.62489 0.4487 0.0
O654 O 0.68555 0.64992 0.46053 0.0
C655 C 0.7459 0.64207 0.41075 0.0
O656 O 0.76295 0.63183 0.42511 0.0
O657 O 0.69176 0.59284 0.44349 0.0
C658 C 0.69188 0.67255 0.46372 0.0
O659 O 0.71549 0.67888 0.46173 0.0
C660 C 0.73243 0.62024 0.49731 0.0
O661 O 0.70876 0.61984 0.50373 0.0
O662 O 0.72301 0.63981 0.41639 0.0
C663 C 0.92724 0.4466 0.7035 0.0
O664 O 0.92989 0.46675 0.71723 0.0
O665 O 0.87731 0.48828 0.72436 0.0
Zn666 Zn 0.87423 0.46072 0.6987 0.0
O667 O 0.8492 0.43555 0.71053 0.0
C668 C 0.85704 0.4959 0.66075 0.0
O669 O 0.86727 0.51294 0.67512 0.0
O670 O 0.90628 0.44176 0.6935 0.0
C671 C 0.82657 0.44188 0.71371 0.0
O672 O 0.82024 0.4655 0.71172 0.0
C673 C 0.87888 0.48243 0.74731 0.0
O674 O 0.87928 0.45876 0.75373 0.0
O675 O 0.85931 0.47301 0.66638 0.0
C676 C 0.05251 0.57188 0.29561 0.0
O677 O 0.03237 0.56923 0.28188 0.0
O678 O 0.01084 0.62181 0.27475 0.0
Zn679 Zn 0.03839 0.62489 0.30041 0.0
O680 O 0.06357 0.64992 0.28858 0.0
C681 C 0.00322 0.64207 0.33836 0.0
O682 O 0.98617 0.63184 0.324 0.0
O683 O 0.05735 0.59284 0.30562 0.0
C684 C 0.05723 0.67255 0.2854 0.0
O685 O 0.03362 0.67889 0.28739 0.0
C686 C 0.01669 0.62024 0.2518 0.0
O687 O 0.04035 0.61985 0.24538 0.0
O688 O 0.02611 0.63981 0.33272 0.0
C689 C 0.92724 0.80251 0.54561 0.0
O690 O 0.92989 0.78237 0.53188 0.0
O691 O 0.8773 0.76084 0.52475 0.0
Zn692 Zn 0.87423 0.78839 0.55041 0.0
O693 O 0.8492 0.81356 0.53859 0.0
C694 C 0.85704 0.75321 0.58836 0.0
O695 O 0.86727 0.73617 0.57399 0.0
O696 O 0.90627 0.80735 0.55562 0.0
C697 C 0.82657 0.80723 0.5354 0.0
O698 O 0.82024 0.78362 0.53739 0.0
C699 C 0.87887 0.76669 0.5018 0.0
O700 O 0.87927 0.79035 0.49538 0.0
O701 O 0.85931 0.77611 0.58273 0.0
C702 C 0.69661 0.67724 0.79561 0.0
O703 O 0.71675 0.67989 0.78189 0.0
O704 O 0.73828 0.62731 0.77475 0.0
Zn705 Zn 0.71072 0.62423 0.80041 0.0
O706 O 0.68555 0.5992 0.78859 0.0
C707 C 0.7459 0.60705 0.83836 0.0
O708 O 0.76295 0.61728 0.824 0.0
O709 O 0.69176 0.65627 0.80562 0.0
C710 C 0.69188 0.57657 0.7854 0.0
O711 O 0.7155 0.57024 0.78739 0.0
C712 C 0.73243 0.62888 0.7518 0.0
O713 O 0.70876 0.62928 0.74538 0.0
O714 O 0.72301 0.6093 0.83273 0.0
C715 C 0.82188 0.4466 0.04561 0.0
O716 O 0.81923 0.46674 0.03188 0.0
O717 O 0.87181 0.48828 0.02475 0.0
Zn718 Zn 0.87489 0.46072 0.05041 0.0
O719 O 0.89992 0.43555 0.03859 0.0
C720 C 0.89208 0.4959 0.08836 0.0
O721 O 0.88185 0.51294 0.07399 0.0
O722 O 0.84284 0.44176 0.05562 0.0
C723 C 0.92255 0.44188 0.0354 0.0
O724 O 0.92888 0.46549 0.03739 0.0
C725 C 0.87024 0.48243 0.0018 0.0
O726 O 0.86984 0.45876 0.99538 0.0
O727 O 0.88981 0.473 0.08273 0.0
C728 C 0.4535 0.55251 0.67724 0.0
O729 O 0.46723 0.53237 0.67989 0.0
O730 O 0.47437 0.51084 0.6273 0.0
Zn731 Zn 0.4487 0.53839 0.62423 0.0
O732 O 0.46053 0.56357 0.59919 0.0
C733 C 0.41076 0.50322 0.60704 0.0
O734 O 0.42512 0.48617 0.61727 0.0
O735 O 0.4435 0.55736 0.65627 0.0
C736 C 0.46372 0.55723 0.57657 0.0
O737 O 0.46172 0.53362 0.57023 0.0
C738 C 0.49731 0.51669 0.62887 0.0
O739 O 0.50373 0.54035 0.62927 0.0
O740 O 0.41639 0.52611 0.60931 0.0
C741 C 0.94661 0.2035 0.92724 0.0
O742 O 0.96675 0.21723 0.92989 0.0
O743 O 0.98828 0.22437 0.8773 0.0
Zn744 Zn 0.96072 0.19871 0.87423 0.0
O745 O 0.93555 0.21053 0.84919 0.0
C746 C 0.9959 0.16076 0.85704 0.0
O747 O 0.01295 0.17511 0.86728 0.0
O748 O 0.94176 0.1935 0.90627 0.0
C749 C 0.94188 0.21372 0.82657 0.0
O750 O 0.96549 0.21173 0.82023 0.0
C751 C 0.98243 0.24732 0.87887 0.0
O752 O 0.95877 0.25373 0.87927 0.0
O753 O 0.97301 0.16639 0.8593 0.0
C754 C 0.29561 0.6966 0.17724 0.0
O755 O 0.28189 0.71675 0.17989 0.0
O756 O 0.27475 0.73827 0.1273 0.0
Zn757 Zn 0.30041 0.71072 0.12423 0.0
O758 O 0.28859 0.68555 0.09919 0.0
C759 C 0.33836 0.7459 0.10704 0.0
O760 O 0.324 0.76294 0.11727 0.0
O761 O 0.30562 0.69176 0.15627 0.0
C762 C 0.2854 0.69188 0.07657 0.0
O763 O 0.28739 0.71549 0.07023 0.0
C764 C 0.2518 0.73243 0.12887 0.0
O765 O 0.24538 0.70876 0.12927 0.0
O766 O 0.33273 0.72301 0.10931 0.0
C767 C 0.80251 0.04561 0.42724 0.0
O768 O 0.78237 0.03188 0.42988 0.0
O769 O 0.76084 0.02475 0.3773 0.0
Zn770 Zn 0.78839 0.05041 0.37423 0.0
O771 O 0.81357 0.03859 0.34919 0.0
C772 C 0.75322 0.08836 0.35704 0.0
O773 O 0.73617 0.074 0.36728 0.0
O774 O 0.80736 0.05562 0.40627 0.0
C775 C 0.80723 0.0354 0.32656 0.0
O776 O 0.78362 0.03739 0.32023 0.0
C777 C 0.76669 0.0018 0.37887 0.0
O778 O 0.79035 0.99538 0.37927 0.0
O779 O 0.77611 0.08273 0.3593 0.0
C780 C 0.4535 0.69661 0.57187 0.0
O781 O 0.46723 0.71675 0.56922 0.0
O782 O 0.47437 0.73828 0.62181 0.0
Zn783 Zn 0.44871 0.71072 0.62488 0.0
O784 O 0.46053 0.68555 0.64992 0.0
C785 C 0.41076 0.7459 0.64208 0.0
O786 O 0.42512 0.76294 0.63184 0.0
O787 O 0.4435 0.69176 0.59284 0.0
C788 C 0.46372 0.69188 0.67255 0.0
O789 O 0.46173 0.71549 0.67888 0.0
C790 C 0.49732 0.73243 0.62024 0.0
O791 O 0.50373 0.70876 0.61984 0.0
O792 O 0.41639 0.723 0.63981 0.0
C793 C 0.80251 0.2035 0.82188 0.0
O794 O 0.78237 0.21723 0.81923 0.0
O795 O 0.76084 0.22437 0.87181 0.0
Zn796 Zn 0.78839 0.1987 0.87489 0.0
O797 O 0.81357 0.21053 0.89992 0.0
C798 C 0.75322 0.16075 0.89207 0.0
O799 O 0.73617 0.17511 0.88183 0.0
O800 O 0.80736 0.1935 0.84284 0.0
C801 C 0.80723 0.21372 0.92255 0.0
O802 O 0.78362 0.21172 0.92889 0.0
C803 C 0.76669 0.24731 0.87024 0.0
O804 O 0.79035 0.25373 0.86984 0.0
O805 O 0.77611 0.16639 0.88981 0.0
C806 C 0.29561 0.55251 0.07188 0.0
O807 O 0.28189 0.53237 0.06923 0.0
O808 O 0.27475 0.51084 0.12181 0.0
Zn809 Zn 0.30041 0.53839 0.12489 0.0
O810 O 0.28859 0.56357 0.14992 0.0
C811 C 0.33836 0.50321 0.14208 0.0
O812 O 0.324 0.48617 0.13184 0.0
O813 O 0.30562 0.55735 0.09284 0.0
C814 C 0.2854 0.55723 0.17255 0.0
O815 O 0.28739 0.53362 0.17888 0.0
C816 C 0.2518 0.51669 0.12024 0.0
O817 O 0.24538 0.54035 0.11984 0.0
O818 O 0.33273 0.52611 0.13981 0.0
C819 C 0.94661 0.04561 0.32188 0.0
O820 O 0.96675 0.03189 0.31923 0.0
O821 O 0.98828 0.02475 0.37181 0.0
Zn822 Zn 0.96072 0.05041 0.37489 0.0
O823 O 0.93555 0.03859 0.39992 0.0
C824 C 0.9959 0.08836 0.39207 0.0
O825 O 0.01295 0.074 0.38183 0.0
O826 O 0.94176 0.05562 0.34284 0.0
C827 C 0.94188 0.0354 0.42255 0.0
O828 O 0.96549 0.03739 0.42888 0.0
C829 C 0.98243 0.0018 0.37024 0.0
O830 O 0.95876 0.99538 0.36984 0.0
O831 O 0.97301 0.08273 0.38981 0.0
C832 C 0.17724 0.9535 0.55251 0.0
O833 O 0.17989 0.96723 0.53237 0.0
O834 O 0.12731 0.97436 0.51084 0.0
Zn835 Zn 0.12423 0.9487 0.53839 0.0
O836 O 0.0992 0.96052 0.56357 0.0
C837 C 0.10704 0.91075 0.50321 0.0
O838 O 0.11727 0.92512 0.48617 0.0
O839 O 0.15628 0.9435 0.55736 0.0
C840 C 0.07657 0.96371 0.55723 0.0
O841 O 0.07024 0.96172 0.53362 0.0
C842 C 0.12887 0.99731 0.51669 0.0
O843 O 0.12927 0.00373 0.54035 0.0
O844 O 0.10931 0.91638 0.52611 0.0
C845 C 0.67724 0.79561 0.6966 0.0
O846 O 0.67989 0.78189 0.71675 0.0
O847 O 0.62731 0.77475 0.73827 0.0
Zn848 Zn 0.62423 0.80041 0.71072 0.0
O849 O 0.5992 0.78859 0.68555 0.0
C850 C 0.60704 0.83836 0.7459 0.0
O851 O 0.61727 0.82399 0.76294 0.0
O852 O 0.65628 0.80562 0.69176 0.0
C853 C 0.57657 0.7854 0.69188 0.0
O854 O 0.57024 0.78739 0.71549 0.0
C855 C 0.62888 0.7518 0.73243 0.0
O856 O 0.62928 0.74538 0.70876 0.0
O857 O 0.60931 0.83273 0.723 0.0
C858 C 0.7035 0.42724 0.9466 0.0
O859 O 0.71723 0.42989 0.96675 0.0
O860 O 0.72437 0.3773 0.98827 0.0
Zn861 Zn 0.6987 0.37423 0.96072 0.0
O862 O 0.71053 0.34919 0.93555 0.0
C863 C 0.66076 0.35704 0.9959 0.0
O864 O 0.67512 0.36727 0.01294 0.0
O865 O 0.6935 0.40627 0.94176 0.0
C866 C 0.71371 0.32657 0.94188 0.0
O867 O 0.71172 0.32023 0.96549 0.0
C868 C 0.74731 0.37887 0.98243 0.0
O869 O 0.75373 0.37927 0.95876 0.0
O870 O 0.66639 0.35931 0.973 0.0
C871 C 0.07188 0.4535 0.19661 0.0
O872 O 0.06922 0.46723 0.21675 0.0
O873 O 0.12181 0.47437 0.23828 0.0
Zn874 Zn 0.12489 0.4487 0.21072 0.0
O875 O 0.14992 0.46053 0.18555 0.0
C876 C 0.14208 0.41076 0.2459 0.0
O877 O 0.13185 0.42512 0.26294 0.0
O878 O 0.09284 0.4435 0.19176 0.0
C879 C 0.17255 0.46372 0.19189 0.0
O880 O 0.17889 0.46172 0.2155 0.0
C881 C 0.12024 0.49731 0.23243 0.0
O882 O 0.11984 0.50373 0.20876 0.0
O883 O 0.13981 0.41639 0.22301 0.0
C884 C 0.54561 0.82188 0.94661 0.0
O885 O 0.53188 0.81922 0.96675 0.0
O886 O 0.52475 0.87181 0.98828 0.0
Zn887 Zn 0.55041 0.87488 0.96072 0.0
O888 O 0.53859 0.89992 0.93555 0.0
C889 C 0.58836 0.89208 0.9959 0.0
O890 O 0.57399 0.88184 0.01295 0.0
O891 O 0.55562 0.84284 0.94176 0.0
C892 C 0.5354 0.92255 0.94189 0.0
O893 O 0.53739 0.92889 0.96549 0.0
C894 C 0.5018 0.87024 0.98243 0.0
O895 O 0.49538 0.86984 0.95876 0.0
O896 O 0.58273 0.88981 0.97301 0.0
C897 C 0.07188 0.29561 0.55251 0.0
O898 O 0.06923 0.28188 0.53237 0.0
O899 O 0.12181 0.27475 0.51084 0.0
Zn900 Zn 0.12489 0.30041 0.53839 0.0
O901 O 0.14992 0.28859 0.56356 0.0
C902 C 0.14208 0.33836 0.50321 0.0
O903 O 0.13184 0.324 0.48617 0.0
O904 O 0.09284 0.30562 0.55735 0.0
C905 C 0.17255 0.2854 0.55723 0.0
O906 O 0.17889 0.28739 0.53362 0.0
C907 C 0.12024 0.2518 0.51669 0.0
O908 O 0.11984 0.24538 0.54035 0.0
O909 O 0.13981 0.33273 0.52611 0.0
C910 C 0.7035 0.32188 0.80251 0.0
O911 O 0.71723 0.31923 0.78237 0.0
O912 O 0.72437 0.37181 0.76084 0.0
Zn913 Zn 0.6987 0.37489 0.78839 0.0
O914 O 0.71053 0.39992 0.81357 0.0
C915 C 0.66076 0.39208 0.75322 0.0
O916 O 0.67512 0.38184 0.73617 0.0
O917 O 0.6935 0.34284 0.80735 0.0
C918 C 0.71372 0.42255 0.80723 0.0
O919 O 0.71172 0.42888 0.78362 0.0
C920 C 0.74731 0.37024 0.76669 0.0
O921 O 0.75373 0.36984 0.79035 0.0
O922 O 0.66639 0.38981 0.77611 0.0
C923 C 0.04561 0.92724 0.30251 0.0
O924 O 0.03189 0.92989 0.28237 0.0
O925 O 0.02475 0.87731 0.26084 0.0
Zn926 Zn 0.05042 0.87423 0.28839 0.0
O927 O 0.03859 0.8492 0.31356 0.0
C928 C 0.08836 0.85704 0.25321 0.0
O929 O 0.074 0.86727 0.23617 0.0
O930 O 0.05562 0.90627 0.30735 0.0
C931 C 0.0354 0.82657 0.30723 0.0
O932 O 0.03739 0.82024 0.28362 0.0
C933 C 0.00181 0.87887 0.26669 0.0
O934 O 0.99539 0.87927 0.29035 0.0
O935 O 0.08273 0.85931 0.27611 0.0
C936 C 0.94661 0.32188 0.04561 0.0
O937 O 0.96675 0.31922 0.03188 0.0
O938 O 0.98828 0.37181 0.02475 0.0
Zn939 Zn 0.96072 0.37489 0.05041 0.0
O940 O 0.93555 0.39992 0.03858 0.0
C941 C 0.9959 0.39207 0.08836 0.0
O942 O 0.01295 0.38183 0.074 0.0
O943 O 0.94176 0.34284 0.05562 0.0
C944 C 0.94188 0.42255 0.0354 0.0
O945 O 0.96549 0.42889 0.03739 0.0
C946 C 0.98243 0.37024 0.0018 0.0
O947 O 0.95876 0.36984 0.99538 0.0
O948 O 0.97301 0.38981 0.08272 0.0
C949 C 0.17724 0.1966 0.79561 0.0
O950 O 0.17989 0.21675 0.78189 0.0
O951 O 0.1273 0.23827 0.77475 0.0
Zn952 Zn 0.12423 0.21072 0.80041 0.0
O953 O 0.09919 0.18555 0.78859 0.0
C954 C 0.10704 0.2459 0.83836 0.0
O955 O 0.11728 0.26294 0.824 0.0
O956 O 0.15627 0.19176 0.80562 0.0
C957 C 0.07657 0.19188 0.7854 0.0
O958 O 0.07023 0.21549 0.78739 0.0
C959 C 0.12887 0.23243 0.7518 0.0
O960 O 0.12927 0.20876 0.74538 0.0
O961 O 0.10931 0.223 0.83273 0.0
C962 C 0.30251 0.42724 0.54561 0.0
O963 O 0.28237 0.42989 0.53189 0.0
O964 O 0.26084 0.3773 0.52475 0.0
Zn965 Zn 0.28839 0.37423 0.55041 0.0
O966 O 0.31357 0.3492 0.53859 0.0
C967 C 0.25322 0.35704 0.58836 0.0
O968 O 0.23617 0.36728 0.57401 0.0
O969 O 0.30736 0.40627 0.55562 0.0
C970 C 0.30723 0.32657 0.5354 0.0
O971 O 0.28362 0.32024 0.53739 0.0
C972 C 0.26669 0.37888 0.5018 0.0
O973 O 0.29035 0.37927 0.49538 0.0
O974 O 0.27611 0.3593 0.58273 0.0
C975 C 0.07188 0.55251 0.29561 0.0
O976 O 0.06922 0.53237 0.28188 0.0
O977 O 0.12181 0.51084 0.27475 0.0
Zn978 Zn 0.12488 0.53839 0.30041 0.0
O979 O 0.14992 0.56357 0.28859 0.0
C980 C 0.14208 0.50322 0.33836 0.0
O981 O 0.13185 0.48617 0.32399 0.0
O982 O 0.09284 0.55736 0.30562 0.0
C983 C 0.17255 0.55723 0.2854 0.0
O984 O 0.17888 0.53362 0.28739 0.0
C985 C 0.12024 0.51669 0.2518 0.0
O986 O 0.11984 0.54035 0.24538 0.0
O987 O 0.13981 0.52611 0.33273 0.0
C988 C 0.94661 0.42724 0.7035 0.0
O989 O 0.96675 0.42989 0.71723 0.0
O990 O 0.98828 0.3773 0.72437 0.0
Zn991 Zn 0.96073 0.37423 0.6987 0.0
O992 O 0.93555 0.34919 0.71053 0.0
C993 C 0.9959 0.35704 0.66076 0.0
O994 O 0.01295 0.36728 0.67511 0.0
O995 O 0.94176 0.40627 0.6935 0.0
C996 C 0.94189 0.32657 0.71372 0.0
O997 O 0.9655 0.32023 0.71173 0.0
C998 C 0.98243 0.37887 0.74731 0.0
O999 O 0.95877 0.37927 0.75373 0.0
O1000 O 0.97301 0.3593 0.66639 0.0
C1001 C 0.07188 0.19661 0.4535 0.0
O1002 O 0.06922 0.21675 0.46723 0.0
O1003 O 0.12181 0.23828 0.47436 0.0
Zn1004 Zn 0.12489 0.21072 0.4487 0.0
O1005 O 0.14992 0.18555 0.46052 0.0
C1006 C 0.14208 0.2459 0.41075 0.0
O1007 O 0.13184 0.26294 0.42512 0.0
O1008 O 0.09284 0.19176 0.4435 0.0
C1009 C 0.17255 0.19188 0.46371 0.0
O1010 O 0.17888 0.21549 0.46172 0.0
C1011 C 0.12024 0.23243 0.49731 0.0
O1012 O 0.11984 0.20876 0.50373 0.0
O1013 O 0.13981 0.22301 0.41638 0.0
C1014 C 0.30251 0.32187 0.2035 0.0
O1015 O 0.28237 0.31923 0.21723 0.0
O1016 O 0.26084 0.37181 0.22437 0.0
Zn1017 Zn 0.28839 0.37488 0.1987 0.0
O1018 O 0.31357 0.39992 0.21053 0.0
C1019 C 0.25322 0.39207 0.16076 0.0
O1020 O 0.23617 0.38183 0.17511 0.0
O1021 O 0.30736 0.34284 0.1935 0.0
C1022 C 0.30723 0.42255 0.21372 0.0
O1023 O 0.28362 0.42888 0.21173 0.0
C1024 C 0.26669 0.37024 0.24731 0.0
O1025 O 0.29035 0.36984 0.25373 0.0
O1026 O 0.27611 0.38981 0.16639 0.0
C1027 C 0.17724 0.55251 0.9535 0.0
O1028 O 0.17989 0.53237 0.96723 0.0
O1029 O 0.12731 0.51084 0.97437 0.0
Zn1030 Zn 0.12423 0.53839 0.9487 0.0
O1031 O 0.0992 0.56357 0.96053 0.0
C1032 C 0.10704 0.50322 0.91076 0.0
O1033 O 0.11727 0.48617 0.92512 0.0
O1034 O 0.15627 0.55736 0.9435 0.0
C1035 C 0.07657 0.55723 0.96372 0.0
O1036 O 0.07023 0.53362 0.96173 0.0
C1037 C 0.12888 0.51669 0.99731 0.0
O1038 O 0.12927 0.54035 0.00373 0.0
O1039 O 0.10931 0.52611 0.91639 0.0
C1040 C 0.54562 0.4466 0.32188 0.0
O1041 O 0.53189 0.46675 0.31923 0.0
O1042 O 0.52475 0.48828 0.37181 0.0
Zn1043 Zn 0.55041 0.46072 0.37489 0.0
O1044 O 0.53859 0.43555 0.39992 0.0
C1045 C 0.58836 0.4959 0.39207 0.0
O1046 O 0.574 0.51294 0.38184 0.0
O1047 O 0.55562 0.44176 0.34284 0.0
C1048 C 0.5354 0.44188 0.42255 0.0
O1049 O 0.53739 0.46549 0.42889 0.0
C1050 C 0.5018 0.48243 0.37024 0.0
O1051 O 0.49539 0.45876 0.36984 0.0
O1052 O 0.58273 0.473 0.38981 0.0
C1053 C 0.05251 0.79561 0.07188 0.0
O1054 O 0.03237 0.78188 0.06922 0.0
O1055 O 0.01084 0.77475 0.12181 0.0
Zn1056 Zn 0.03839 0.80041 0.12489 0.0
O1057 O 0.06357 0.78858 0.14992 0.0
C1058 C 0.00322 0.83836 0.14207 0.0
O1059 O 0.98617 0.82401 0.13183 0.0
O1060 O 0.05735 0.80562 0.09284 0.0
C1061 C 0.05724 0.78539 0.17255 0.0
O1062 O 0.03362 0.78738 0.17888 0.0
C1063 C 0.01669 0.7518 0.12024 0.0
O1064 O 0.04035 0.74538 0.11984 0.0
O1065 O 0.02611 0.83272 0.13982 0.0
C1066 C 0.7035 0.30251 0.82188 0.0
O1067 O 0.71723 0.28237 0.81922 0.0
O1068 O 0.72437 0.26084 0.87181 0.0
Zn1069 Zn 0.6987 0.28839 0.87488 0.0
O1070 O 0.71053 0.31357 0.89992 0.0
C1071 C 0.66076 0.25321 0.89207 0.0
O1072 O 0.67512 0.23617 0.88184 0.0
O1073 O 0.6935 0.30735 0.84284 0.0
C1074 C 0.71372 0.30723 0.92255 0.0
O1075 O 0.71172 0.28362 0.92889 0.0
C1076 C 0.74731 0.26669 0.87024 0.0
O1077 O 0.75373 0.29035 0.86984 0.0
O1078 O 0.66639 0.27611 0.88981 0.0
C1079 C 0.19661 0.9535 0.57188 0.0
O1080 O 0.21675 0.96723 0.56923 0.0
O1081 O 0.23828 0.97437 0.62181 0.0
Zn1082 Zn 0.21073 0.9487 0.62489 0.0
O1083 O 0.18555 0.96053 0.64992 0.0
C1084 C 0.2459 0.91075 0.64207 0.0
O1085 O 0.26295 0.92511 0.63183 0.0
O1086 O 0.19176 0.9435 0.59284 0.0
C1087 C 0.19189 0.96372 0.67255 0.0
O1088 O 0.2155 0.96173 0.67889 0.0
C1089 C 0.23243 0.99731 0.62024 0.0
O1090 O 0.20877 0.00373 0.61984 0.0
O1091 O 0.22301 0.91639 0.63981 0.0
C1092 C 0.54561 0.30251 0.42724 0.0
O1093 O 0.53189 0.28237 0.42989 0.0
O1094 O 0.52475 0.26084 0.3773 0.0
Zn1095 Zn 0.55041 0.28839 0.37423 0.0
O1096 O 0.53859 0.31357 0.3492 0.0
C1097 C 0.58836 0.25322 0.35704 0.0
O1098 O 0.574 0.23617 0.36727 0.0
O1099 O 0.55562 0.30735 0.40627 0.0
C1100 C 0.5354 0.30723 0.32657 0.0
O1101 O 0.53739 0.28362 0.32024 0.0
C1102 C 0.5018 0.26669 0.37888 0.0
O1103 O 0.49538 0.29035 0.37927 0.0
O1104 O 0.58273 0.27611 0.3593 0.0
C1105 C 0.19661 0.79561 0.17724 0.0
O1106 O 0.21675 0.78189 0.17988 0.0
O1107 O 0.23828 0.77475 0.1273 0.0
Zn1108 Zn 0.21072 0.80041 0.12423 0.0
O1109 O 0.18555 0.78859 0.09919 0.0
C1110 C 0.2459 0.83836 0.10704 0.0
O1111 O 0.26295 0.824 0.11728 0.0
O1112 O 0.19176 0.80562 0.15627 0.0
C1113 C 0.19188 0.7854 0.07656 0.0
O1114 O 0.21549 0.78739 0.07023 0.0
C1115 C 0.23243 0.7518 0.12887 0.0
O1116 O 0.20876 0.74538 0.12927 0.0
O1117 O 0.22301 0.83273 0.1093 0.0
C1118 C 0.7035 0.44661 0.92724 0.0
O1119 O 0.71723 0.46675 0.92989 0.0
O1120 O 0.72437 0.48828 0.8773 0.0
Zn1121 Zn 0.6987 0.46072 0.87423 0.0
O1122 O 0.71053 0.43555 0.84919 0.0
C1123 C 0.66076 0.4959 0.85704 0.0
O1124 O 0.67512 0.51295 0.86727 0.0
O1125 O 0.6935 0.44176 0.90627 0.0
C1126 C 0.71372 0.44189 0.82657 0.0
O1127 O 0.71173 0.4655 0.82023 0.0
C1128 C 0.74731 0.48243 0.87887 0.0
O1129 O 0.75373 0.45876 0.87927 0.0
O1130 O 0.66639 0.47301 0.8593 0.0
C1131 C 0.05251 0.9535 0.67724 0.0
O1132 O 0.03237 0.96723 0.67989 0.0
O1133 O 0.01084 0.97437 0.6273 0.0
Zn1134 Zn 0.03839 0.9487 0.62423 0.0
O1135 O 0.06357 0.96053 0.59919 0.0
C1136 C 0.00322 0.91075 0.60704 0.0
O1137 O 0.98617 0.92511 0.61728 0.0
O1138 O 0.05736 0.9435 0.65627 0.0
C1139 C 0.05723 0.96372 0.57657 0.0
O1140 O 0.03362 0.96172 0.57023 0.0
C1141 C 0.01669 0.99731 0.62887 0.0
O1142 O 0.04035 0.00373 0.62927 0.0
O1143 O 0.02611 0.91639 0.6093 0.0
C1144 C 0.82188 0.04561 0.44661 0.0
O1145 O 0.81922 0.03188 0.46674 0.0
O1146 O 0.87181 0.02475 0.48828 0.0
Zn1147 Zn 0.87489 0.05041 0.46072 0.0
O1148 O 0.89992 0.03859 0.43555 0.0
C1149 C 0.89208 0.08836 0.4959 0.0
O1150 O 0.88184 0.07399 0.51294 0.0
O1151 O 0.84284 0.05562 0.44176 0.0
C1152 C 0.92255 0.0354 0.44188 0.0
O1153 O 0.92889 0.03739 0.46549 0.0
C1154 C 0.87024 0.0018 0.48243 0.0
O1155 O 0.86984 0.99538 0.45876 0.0
O1156 O 0.88981 0.08273 0.47301 0.0
C1157 C 0.32188 0.2035 0.30251 0.0
O1158 O 0.31923 0.21723 0.28237 0.0
O1159 O 0.37181 0.22436 0.26084 0.0
Zn1160 Zn 0.37489 0.1987 0.28839 0.0
O1161 O 0.39992 0.21052 0.31357 0.0
C1162 C 0.39208 0.16076 0.25322 0.0
O1163 O 0.38185 0.17512 0.23617 0.0
O1164 O 0.34284 0.1935 0.30736 0.0
C1165 C 0.42255 0.21371 0.30723 0.0
O1166 O 0.42888 0.21172 0.28362 0.0
C1167 C 0.37024 0.24731 0.26669 0.0
O1168 O 0.36984 0.25373 0.29035 0.0
O1169 O 0.38981 0.16638 0.27611 0.0
C1170 C 0.29561 0.57188 0.05251 0.0
O1171 O 0.28189 0.56922 0.03237 0.0
O1172 O 0.27475 0.62181 0.01084 0.0
Zn1173 Zn 0.30041 0.62488 0.03839 0.0
O1174 O 0.28859 0.64992 0.06357 0.0
C1175 C 0.33836 0.64208 0.00321 0.0
O1176 O 0.32399 0.63184 0.98617 0.0
O1177 O 0.30562 0.59284 0.05735 0.0
C1178 C 0.2854 0.67255 0.05723 0.0
O1179 O 0.28739 0.67889 0.03362 0.0
C1180 C 0.2518 0.62024 0.01669 0.0
O1181 O 0.24539 0.61984 0.04035 0.0
O1182 O 0.33273 0.63981 0.02611 0.0
C1183 C 0.92724 0.54561 0.80251 0.0
O1184 O 0.92989 0.53189 0.78237 0.0
O1185 O 0.87731 0.52475 0.76084 0.0
Zn1186 Zn 0.87423 0.55041 0.78839 0.0
O1187 O 0.8492 0.53859 0.81356 0.0
C1188 C 0.85704 0.58836 0.75321 0.0
O1189 O 0.86727 0.57399 0.73617 0.0
O1190 O 0.90627 0.55562 0.80735 0.0
C1191 C 0.82657 0.5354 0.80723 0.0
O1192 O 0.82023 0.53739 0.78362 0.0
C1193 C 0.87888 0.5018 0.76669 0.0
O1194 O 0.87927 0.49538 0.79035 0.0
O1195 O 0.85931 0.58273 0.77611 0.0
C1196 C 0.4535 0.17724 0.05251 0.0
O1197 O 0.46723 0.17989 0.03237 0.0
O1198 O 0.47437 0.1273 0.01084 0.0
Zn1199 Zn 0.4487 0.12423 0.03839 0.0
O1200 O 0.46053 0.0992 0.06356 0.0
C1201 C 0.41076 0.10704 0.00321 0.0
O1202 O 0.42512 0.11727 0.98617 0.0
O1203 O 0.4435 0.15627 0.05735 0.0
C1204 C 0.46372 0.07657 0.05723 0.0
O1205 O 0.46172 0.07023 0.03362 0.0
C1206 C 0.49731 0.12887 0.01668 0.0
O1207 O 0.50373 0.12927 0.04035 0.0
O1208 O 0.41639 0.10931 0.02611 0.0
C1209 C 0.92724 0.7035 0.44661 0.0
O1210 O 0.92989 0.71723 0.46675 0.0
O1211 O 0.8773 0.72436 0.48828 0.0
Zn1212 Zn 0.87423 0.6987 0.46072 0.0
O1213 O 0.84919 0.71053 0.43555 0.0
C1214 C 0.85704 0.66075 0.4959 0.0
O1215 O 0.86727 0.67512 0.51294 0.0
O1216 O 0.90627 0.6935 0.44176 0.0
C1217 C 0.82657 0.71371 0.44188 0.0
O1218 O 0.82023 0.71172 0.46549 0.0
C1219 C 0.87887 0.74731 0.48243 0.0
O1220 O 0.87927 0.75373 0.45876 0.0
O1221 O 0.85931 0.66638 0.47301 0.0
C1222 C 0.29561 0.67724 0.19661 0.0
O1223 O 0.28189 0.67989 0.21675 0.0
O1224 O 0.27475 0.6273 0.23828 0.0
Zn1225 Zn 0.30041 0.62423 0.21072 0.0
O1226 O 0.28859 0.59919 0.18555 0.0
C1227 C 0.33836 0.60704 0.2459 0.0
O1228 O 0.324 0.61727 0.26294 0.0
O1229 O 0.30562 0.65627 0.19176 0.0
C1230 C 0.2854 0.57657 0.19188 0.0
O1231 O 0.28739 0.57023 0.21549 0.0
C1232 C 0.2518 0.62887 0.23243 0.0
O1233 O 0.24539 0.62927 0.20876 0.0
O1234 O 0.33273 0.6093 0.223 0.0
C1235 C 0.9535 0.07188 0.6966 0.0
O1236 O 0.96723 0.06923 0.71675 0.0
O1237 O 0.97437 0.12181 0.73828 0.0
Zn1238 Zn 0.9487 0.12488 0.71072 0.0
O1239 O 0.96053 0.14992 0.68555 0.0
C1240 C 0.91076 0.14208 0.7459 0.0
O1241 O 0.92512 0.13185 0.76294 0.0
O1242 O 0.9435 0.09284 0.69176 0.0
C1243 C 0.96371 0.17255 0.69188 0.0
O1244 O 0.96172 0.17888 0.71549 0.0
C1245 C 0.99731 0.12024 0.73243 0.0
O1246 O 0.00373 0.11984 0.70876 0.0
O1247 O 0.91639 0.13981 0.72301 0.0
C1248 C 0.55251 0.17724 0.9535 0.0
O1249 O 0.53237 0.17989 0.96723 0.0
O1250 O 0.51084 0.1273 0.97436 0.0
Zn1251 Zn 0.53839 0.12423 0.9487 0.0
O1252 O 0.56357 0.0992 0.96052 0.0
C1253 C 0.50322 0.10704 0.91075 0.0
O1254 O 0.48617 0.11727 0.92512 0.0
O1255 O 0.55736 0.15627 0.9435 0.0
C1256 C 0.55723 0.07657 0.96371 0.0
O1257 O 0.53362 0.07024 0.96172 0.0
C1258 C 0.51669 0.12887 0.99731 0.0
O1259 O 0.54035 0.12927 0.00373 0.0
O1260 O 0.52611 0.10931 0.91638 0.0
C1261 C 0.32188 0.30251 0.2035 0.0
O1262 O 0.31922 0.28237 0.21723 0.0
O1263 O 0.37181 0.26084 0.22437 0.0
Zn1264 Zn 0.37489 0.28839 0.1987 0.0
O1265 O 0.39992 0.31357 0.21053 0.0
C1266 C 0.39207 0.25321 0.16075 0.0
O1267 O 0.38184 0.23616 0.17511 0.0
O1268 O 0.34284 0.30735 0.1935 0.0
C1269 C 0.42255 0.30723 0.21372 0.0
O1270 O 0.42888 0.28362 0.21173 0.0
C1271 C 0.37024 0.26669 0.24731 0.0
O1272 O 0.36984 0.29035 0.25373 0.0
O1273 O 0.38982 0.27611 0.16639 0.0
C1274 C 0.19661 0.07188 0.4535 0.0
O1275 O 0.21675 0.06922 0.46723 0.0
O1276 O 0.23828 0.12181 0.47436 0.0
Zn1277 Zn 0.21072 0.12489 0.4487 0.0
O1278 O 0.18555 0.14992 0.46053 0.0
C1279 C 0.2459 0.14208 0.41076 0.0
O1280 O 0.26295 0.13185 0.42512 0.0
O1281 O 0.19176 0.09284 0.4435 0.0
C1282 C 0.19189 0.17255 0.46371 0.0
O1283 O 0.2155 0.17889 0.46172 0.0
C1284 C 0.23243 0.12024 0.49731 0.0
O1285 O 0.20876 0.11984 0.50373 0.0
O1286 O 0.22301 0.13981 0.41638 0.0
C1287 C 0.42724 0.94661 0.7035 0.0
O1288 O 0.42989 0.96675 0.71723 0.0
O1289 O 0.3773 0.98828 0.72437 0.0
Zn1290 Zn 0.37423 0.96072 0.6987 0.0
O1291 O 0.34919 0.93555 0.71053 0.0
C1292 C 0.35705 0.9959 0.66075 0.0
O1293 O 0.36729 0.01295 0.67511 0.0
O1294 O 0.40627 0.94176 0.6935 0.0
C1295 C 0.32657 0.94188 0.71372 0.0
O1296 O 0.32023 0.96549 0.71173 0.0
C1297 C 0.37887 0.98243 0.74731 0.0
O1298 O 0.37927 0.95876 0.75373 0.0
O1299 O 0.3593 0.97301 0.66639 0.0
C1300 C 0.55251 0.07188 0.29561 0.0
O1301 O 0.53237 0.06923 0.28189 0.0
O1302 O 0.51084 0.12181 0.27475 0.0
Zn1303 Zn 0.53839 0.12488 0.30041 0.0
O1304 O 0.56357 0.14992 0.28859 0.0
C1305 C 0.50322 0.14207 0.33836 0.0
O1306 O 0.48617 0.13184 0.324 0.0
O1307 O 0.55736 0.09284 0.30562 0.0
C1308 C 0.55723 0.17255 0.2854 0.0
O1309 O 0.53362 0.17888 0.28739 0.0
C1310 C 0.51669 0.12024 0.2518 0.0
O1311 O 0.54036 0.11984 0.24538 0.0
O1312 O 0.52611 0.13981 0.33273 0.0
C1313 C 0.42724 0.30251 0.54561 0.0
O1314 O 0.42989 0.28237 0.53189 0.0
O1315 O 0.37731 0.26084 0.52475 0.0
Zn1316 Zn 0.37423 0.28839 0.55041 0.0
O1317 O 0.3492 0.31357 0.53858 0.0
C1318 C 0.35704 0.25322 0.58836 0.0
O1319 O 0.36728 0.23617 0.574 0.0
O1320 O 0.40627 0.30736 0.55562 0.0
C1321 C 0.32657 0.30723 0.53539 0.0
O1322 O 0.32023 0.28362 0.53738 0.0
C1323 C 0.37888 0.26669 0.5018 0.0
O1324 O 0.37928 0.29035 0.49538 0.0
O1325 O 0.3593 0.27611 0.58272 0.0
C1326 C 0.19661 0.17724 0.79561 0.0
O1327 O 0.21675 0.17989 0.78189 0.0
O1328 O 0.23828 0.1273 0.77475 0.0
Zn1329 Zn 0.21072 0.12423 0.80041 0.0
O1330 O 0.18555 0.09919 0.78859 0.0
C1331 C 0.2459 0.10704 0.83836 0.0
O1332 O 0.26295 0.11727 0.824 0.0
O1333 O 0.19176 0.15627 0.80562 0.0
C1334 C 0.19189 0.07656 0.7854 0.0
O1335 O 0.2155 0.07023 0.78739 0.0
C1336 C 0.23243 0.12887 0.7518 0.0
O1337 O 0.20877 0.12927 0.74538 0.0
O1338 O 0.22301 0.1093 0.83273 0.0
C1339 C 0.32188 0.94661 0.04562 0.0
O1340 O 0.31923 0.96675 0.03189 0.0
O1341 O 0.37181 0.98828 0.02475 0.0
Zn1342 Zn 0.37489 0.96072 0.05041 0.0
O1343 O 0.39992 0.93555 0.03859 0.0
C1344 C 0.39207 0.9959 0.08836 0.0
O1345 O 0.38183 0.01295 0.07401 0.0
O1346 O 0.34284 0.94176 0.05562 0.0
C1347 C 0.42255 0.94188 0.0354 0.0
O1348 O 0.42888 0.96549 0.03739 0.0
C1349 C 0.37024 0.98243 0.0018 0.0
O1350 O 0.36984 0.95876 0.99538 0.0
O1351 O 0.38981 0.97301 0.08273 0.0
C1352 C 0.9535 0.05251 0.67724 0.0
O1353 O 0.96723 0.03237 0.67989 0.0
O1354 O 0.97437 0.01084 0.6273 0.0
Zn1355 Zn 0.9487 0.03839 0.62423 0.0
O1356 O 0.96053 0.06357 0.5992 0.0
C1357 C 0.91076 0.00321 0.60704 0.0
O1358 O 0.92511 0.98617 0.61728 0.0
O1359 O 0.9435 0.05735 0.65627 0.0
C1360 C 0.96372 0.05723 0.57657 0.0
O1361 O 0.96173 0.03362 0.57023 0.0
C1362 C 0.99732 0.01669 0.62887 0.0
O1363 O 0.00373 0.04035 0.62927 0.0
O1364 O 0.91639 0.02611 0.6093 0.0
C1365 C 0.44661 0.7035 0.92724 0.0
O1366 O 0.46675 0.71723 0.92989 0.0
O1367 O 0.48828 0.72436 0.8773 0.0
Zn1368 Zn 0.46072 0.6987 0.87423 0.0
O1369 O 0.43555 0.71052 0.84919 0.0
C1370 C 0.4959 0.66075 0.85704 0.0
O1371 O 0.51295 0.67512 0.86727 0.0
O1372 O 0.44176 0.6935 0.90627 0.0
C1373 C 0.44189 0.71371 0.82657 0.0
O1374 O 0.4655 0.71172 0.82023 0.0
C1375 C 0.48243 0.74731 0.87887 0.0
O1376 O 0.45876 0.75373 0.87927 0.0
O1377 O 0.47301 0.66638 0.85931 0.0
C1378 C 0.79562 0.19661 0.17724 0.0
O1379 O 0.78189 0.21675 0.17989 0.0
O1380 O 0.77475 0.23828 0.1273 0.0
Zn1381 Zn 0.80041 0.21072 0.12423 0.0
O1382 O 0.78859 0.18555 0.09919 0.0
C1383 C 0.83836 0.2459 0.10704 0.0
O1384 O 0.82401 0.26295 0.11728 0.0
O1385 O 0.80562 0.19176 0.15627 0.0
C1386 C 0.7854 0.19188 0.07657 0.0
O1387 O 0.78739 0.21549 0.07023 0.0
C1388 C 0.7518 0.23243 0.12887 0.0
O1389 O 0.74538 0.20876 0.12927 0.0
O1390 O 0.83273 0.22301 0.1093 0.0
C1391 C 0.30251 0.54561 0.42724 0.0
O1392 O 0.28237 0.53189 0.42989 0.0
O1393 O 0.26084 0.52475 0.37731 0.0
Zn1394 Zn 0.28839 0.55041 0.37423 0.0
O1395 O 0.31357 0.53859 0.3492 0.0
C1396 C 0.25322 0.58836 0.35704 0.0
O1397 O 0.23617 0.57399 0.36727 0.0
O1398 O 0.30736 0.55562 0.40627 0.0
C1399 C 0.30723 0.5354 0.32657 0.0
O1400 O 0.28362 0.53739 0.32024 0.0
C1401 C 0.26669 0.5018 0.37888 0.0
O1402 O 0.29035 0.49538 0.37928 0.0
O1403 O 0.27611 0.58273 0.35931 0.0
C1404 C 0.9535 0.1966 0.57188 0.0
O1405 O 0.96723 0.21675 0.56923 0.0
O1406 O 0.97437 0.23827 0.62181 0.0
Zn1407 Zn 0.9487 0.21072 0.62489 0.0
O1408 O 0.96053 0.18555 0.64992 0.0
C1409 C 0.91076 0.2459 0.64207 0.0
O1410 O 0.92511 0.26295 0.63183 0.0
O1411 O 0.9435 0.19176 0.59284 0.0
C1412 C 0.96372 0.19188 0.67255 0.0
O1413 O 0.96173 0.21549 0.67889 0.0
C1414 C 0.99731 0.23243 0.62024 0.0
O1415 O 0.00373 0.20876 0.61984 0.0
O1416 O 0.91639 0.22301 0.63981 0.0
C1417 C 0.30251 0.7035 0.82187 0.0
O1418 O 0.28237 0.71723 0.81922 0.0
O1419 O 0.26084 0.72436 0.87181 0.0
Zn1420 Zn 0.28839 0.6987 0.87488 0.0
O1421 O 0.31357 0.71053 0.89992 0.0
C1422 C 0.25322 0.66075 0.89208 0.0
O1423 O 0.23617 0.67512 0.88184 0.0
O1424 O 0.30735 0.6935 0.84284 0.0
C1425 C 0.30723 0.71372 0.92255 0.0
O1426 O 0.28362 0.71173 0.92888 0.0
C1427 C 0.26669 0.74731 0.87024 0.0
O1428 O 0.29035 0.75373 0.86984 0.0
O1429 O 0.27611 0.66639 0.88981 0.0
C1430 C 0.79562 0.05251 0.07188 0.0
O1431 O 0.78189 0.03237 0.06923 0.0
O1432 O 0.77475 0.01084 0.12181 0.0
Zn1433 Zn 0.80041 0.03839 0.12489 0.0
O1434 O 0.78859 0.06357 0.14992 0.0
C1435 C 0.83836 0.00322 0.14207 0.0
O1436 O 0.82401 0.98617 0.13183 0.0
O1437 O 0.80562 0.05736 0.09284 0.0
C1438 C 0.7854 0.05723 0.17255 0.0
O1439 O 0.78739 0.03362 0.17888 0.0
C1440 C 0.7518 0.01669 0.12024 0.0
O1441 O 0.74538 0.04035 0.11984 0.0
O1442 O 0.83273 0.02611 0.13981 0.0
C1443 C 0.44661 0.54561 0.32188 0.0
O1444 O 0.46675 0.53189 0.31923 0.0
O1445 O 0.48828 0.52475 0.37181 0.0
Zn1446 Zn 0.46072 0.55041 0.37488 0.0
O1447 O 0.43555 0.53859 0.39992 0.0
C1448 C 0.4959 0.58836 0.39207 0.0
O1449 O 0.51294 0.574 0.38184 0.0
O1450 O 0.44176 0.55562 0.34284 0.0
C1451 C 0.44188 0.5354 0.42255 0.0
O1452 O 0.4655 0.53739 0.42888 0.0
C1453 C 0.48243 0.5018 0.37024 0.0
O1454 O 0.45877 0.49538 0.36984 0.0
O1455 O 0.47301 0.58273 0.38981 0.0
C1456 C 0.67724 0.4535 0.55251 0.0
O1457 O 0.67989 0.46723 0.53237 0.0
O1458 O 0.6273 0.47437 0.51084 0.0
Zn1459 Zn 0.62423 0.4487 0.53839 0.0
O1460 O 0.59919 0.46053 0.56357 0.0
C1461 C 0.60704 0.41075 0.50321 0.0
O1462 O 0.61728 0.42511 0.48617 0.0
O1463 O 0.65627 0.4435 0.55735 0.0
C1464 C 0.57657 0.46372 0.55723 0.0
O1465 O 0.57023 0.46173 0.53362 0.0
C1466 C 0.62888 0.49731 0.51669 0.0
O1467 O 0.62927 0.50373 0.54035 0.0
O1468 O 0.6093 0.41639 0.52611 0.0
C1469 C 0.17724 0.29561 0.69661 0.0
O1470 O 0.17989 0.28188 0.71675 0.0
O1471 O 0.1273 0.27475 0.73828 0.0
Zn1472 Zn 0.12423 0.30041 0.71072 0.0
O1473 O 0.0992 0.28858 0.68555 0.0
C1474 C 0.10705 0.33836 0.7459 0.0
O1475 O 0.11729 0.32401 0.76295 0.0
O1476 O 0.15627 0.30562 0.69176 0.0
C1477 C 0.07657 0.28539 0.69188 0.0
O1478 O 0.07023 0.28739 0.71549 0.0
C1479 C 0.12887 0.2518 0.73243 0.0
O1480 O 0.12927 0.24538 0.70876 0.0
O1481 O 0.1093 0.33272 0.72301 0.0
C1482 C 0.2035 0.92724 0.94661 0.0
O1483 O 0.21723 0.92989 0.96675 0.0
O1484 O 0.22437 0.8773 0.98828 0.0
Zn1485 Zn 0.19871 0.87423 0.96072 0.0
O1486 O 0.21053 0.84919 0.93555 0.0
C1487 C 0.16076 0.85704 0.9959 0.0
O1488 O 0.17511 0.86728 0.01295 0.0
O1489 O 0.1935 0.90627 0.94176 0.0
C1490 C 0.21372 0.82657 0.94188 0.0
O1491 O 0.21173 0.82023 0.96549 0.0
C1492 C 0.24732 0.87887 0.98243 0.0
O1493 O 0.25373 0.87927 0.95876 0.0
O1494 O 0.16639 0.8593 0.97301 0.0
C1495 C 0.57188 0.9535 0.1966 0.0
O1496 O 0.56923 0.96723 0.21675 0.0
O1497 O 0.62181 0.97437 0.23827 0.0
Zn1498 Zn 0.62489 0.9487 0.21072 0.0
O1499 O 0.64992 0.96053 0.18555 0.0
C1500 C 0.64207 0.91075 0.2459 0.0
O1501 O 0.63183 0.92511 0.26295 0.0
O1502 O 0.59284 0.9435 0.19176 0.0
C1503 C 0.67255 0.96372 0.19188 0.0
O1504 O 0.67888 0.96173 0.21549 0.0
C1505 C 0.62024 0.99731 0.23243 0.0
O1506 O 0.61984 0.00373 0.20876 0.0
O1507 O 0.63981 0.91639 0.223 0.0
C1508 C 0.04562 0.32188 0.9466 0.0
O1509 O 0.03189 0.31923 0.96674 0.0
O1510 O 0.02475 0.37181 0.98827 0.0
Zn1511 Zn 0.05041 0.37489 0.96072 0.0
O1512 O 0.03859 0.39992 0.93555 0.0
C1513 C 0.08836 0.39207 0.9959 0.0
O1514 O 0.07401 0.38183 0.01295 0.0
O1515 O 0.05562 0.34284 0.94176 0.0
C1516 C 0.0354 0.42255 0.94188 0.0
O1517 O 0.03739 0.42888 0.96549 0.0
C1518 C 0.0018 0.37024 0.98243 0.0
O1519 O 0.99538 0.36984 0.95876 0.0
O1520 O 0.08273 0.38981 0.973 0.0
C1521 C 0.57188 0.79561 0.55251 0.0
O1522 O 0.56923 0.78189 0.53237 0.0
O1523 O 0.62181 0.77475 0.51084 0.0
Zn1524 Zn 0.62489 0.80041 0.53839 0.0
O1525 O 0.64992 0.78859 0.56357 0.0
C1526 C 0.64207 0.83836 0.50321 0.0
O1527 O 0.63183 0.824 0.48617 0.0
O1528 O 0.59284 0.80562 0.55735 0.0
C1529 C 0.67255 0.78539 0.55723 0.0
O1530 O 0.67888 0.78738 0.53362 0.0
C1531 C 0.62024 0.7518 0.51669 0.0
O1532 O 0.61984 0.74538 0.54035 0.0
O1533 O 0.63981 0.83273 0.52611 0.0
C1534 C 0.2035 0.82188 0.80251 0.0
O1535 O 0.21723 0.81923 0.78237 0.0
O1536 O 0.22437 0.87181 0.76084 0.0
Zn1537 Zn 0.1987 0.87489 0.78839 0.0
O1538 O 0.21053 0.89992 0.81357 0.0
C1539 C 0.16076 0.89207 0.75321 0.0
O1540 O 0.17511 0.88183 0.73617 0.0
O1541 O 0.1935 0.84284 0.80735 0.0
C1542 C 0.21372 0.92255 0.80723 0.0
O1543 O 0.21173 0.92888 0.78362 0.0
C1544 C 0.24732 0.87024 0.76669 0.0
O1545 O 0.25373 0.86984 0.79035 0.0
O1546 O 0.16639 0.88981 0.77611 0.0
C1547 C 0.54562 0.42724 0.30251 0.0
O1548 O 0.53189 0.42989 0.28237 0.0
O1549 O 0.52475 0.3773 0.26084 0.0
Zn1550 Zn 0.55041 0.37423 0.28839 0.0
O1551 O 0.53859 0.34919 0.31357 0.0
C1552 C 0.58836 0.35704 0.25322 0.0
O1553 O 0.57401 0.36728 0.23617 0.0
O1554 O 0.55562 0.40627 0.30735 0.0
C1555 C 0.5354 0.32657 0.30723 0.0
O1556 O 0.53739 0.32023 0.28362 0.0
C1557 C 0.5018 0.37888 0.26669 0.0
O1558 O 0.49538 0.37928 0.29035 0.0
O1559 O 0.58273 0.3593 0.27611 0.0
C1560 C 0.44661 0.82188 0.04561 0.0
O1561 O 0.46675 0.81923 0.03189 0.0
O1562 O 0.48828 0.87181 0.02475 0.0
Zn1563 Zn 0.46072 0.87488 0.05041 0.0
O1564 O 0.43555 0.89992 0.03859 0.0
C1565 C 0.4959 0.89208 0.08836 0.0
O1566 O 0.51294 0.88185 0.07399 0.0
O1567 O 0.44176 0.84284 0.05562 0.0
C1568 C 0.44189 0.92255 0.0354 0.0
O1569 O 0.4655 0.92889 0.03739 0.0
C1570 C 0.48243 0.87024 0.0018 0.0
O1571 O 0.45876 0.86984 0.99538 0.0
O1572 O 0.47301 0.88981 0.08273 0.0
C1573 C 0.67724 0.69661 0.79561 0.0
O1574 O 0.67989 0.71675 0.78189 0.0
O1575 O 0.62731 0.73828 0.77475 0.0
Zn1576 Zn 0.62423 0.71072 0.80041 0.0
O1577 O 0.5992 0.68555 0.78859 0.0
C1578 C 0.60704 0.7459 0.83836 0.0
O1579 O 0.61728 0.76295 0.824 0.0
O1580 O 0.65627 0.69176 0.80562 0.0
C1581 C 0.57657 0.69188 0.7854 0.0
O1582 O 0.57024 0.71549 0.78739 0.0
C1583 C 0.62888 0.73243 0.7518 0.0
O1584 O 0.62928 0.70876 0.74538 0.0
O1585 O 0.6093 0.72301 0.83273 0.0
C1586 C 0.80251 0.92724 0.54561 0.0
O1587 O 0.78237 0.92989 0.53188 0.0
O1588 O 0.76084 0.8773 0.52475 0.0
Zn1589 Zn 0.78839 0.87423 0.55041 0.0
O1590 O 0.81357 0.84919 0.53859 0.0
C1591 C 0.75322 0.85704 0.58836 0.0
O1592 O 0.73617 0.86727 0.57399 0.0
O1593 O 0.80736 0.90627 0.55562 0.0
C1594 C 0.80723 0.82656 0.5354 0.0
O1595 O 0.78362 0.82023 0.53739 0.0
C1596 C 0.76669 0.87887 0.5018 0.0
O1597 O 0.79035 0.87927 0.49538 0.0
O1598 O 0.77611 0.8593 0.58273 0.0
C1599 C 0.57188 0.05251 0.29561 0.0
O1600 O 0.56923 0.03237 0.28188 0.0
O1601 O 0.62181 0.01084 0.27475 0.0
Zn1602 Zn 0.62489 0.03839 0.30041 0.0
O1603 O 0.64992 0.06357 0.28859 0.0
C1604 C 0.64207 0.00321 0.33836 0.0
O1605 O 0.63183 0.98617 0.32401 0.0
O1606 O 0.59285 0.05735 0.30562 0.0
C1607 C 0.67255 0.05723 0.2854 0.0
O1608 O 0.67889 0.03362 0.28739 0.0
C1609 C 0.62024 0.01669 0.2518 0.0
O1610 O 0.61984 0.04035 0.24538 0.0
O1611 O 0.63982 0.02611 0.33272 0.0
C1612 C 0.44661 0.92724 0.7035 0.0
O1613 O 0.46675 0.92989 0.71723 0.0
O1614 O 0.48828 0.8773 0.72436 0.0
Zn1615 Zn 0.46072 0.87423 0.6987 0.0
O1616 O 0.43555 0.8492 0.71052 0.0
C1617 C 0.4959 0.85704 0.66075 0.0
O1618 O 0.51294 0.86727 0.67512 0.0
O1619 O 0.44176 0.90627 0.6935 0.0
C1620 C 0.44188 0.82657 0.71372 0.0
O1621 O 0.4655 0.82024 0.71172 0.0
C1622 C 0.48243 0.87888 0.74731 0.0
O1623 O 0.45876 0.87928 0.75373 0.0
O1624 O 0.47301 0.85931 0.66638 0.0
C1625 C 0.57188 0.6966 0.4535 0.0
O1626 O 0.56923 0.71675 0.46723 0.0
O1627 O 0.62181 0.73827 0.47437 0.0
Zn1628 Zn 0.62489 0.71072 0.4487 0.0
O1629 O 0.64992 0.68555 0.46053 0.0
C1630 C 0.64207 0.7459 0.41075 0.0
O1631 O 0.63183 0.76295 0.42511 0.0
O1632 O 0.59284 0.69176 0.4435 0.0
C1633 C 0.67255 0.69188 0.46372 0.0
O1634 O 0.67889 0.71549 0.46173 0.0
C1635 C 0.62024 0.73243 0.49731 0.0
O1636 O 0.61984 0.70876 0.50373 0.0
O1637 O 0.63982 0.723 0.41639 0.0
C1638 C 0.80251 0.82188 0.2035 0.0
O1639 O 0.78237 0.81923 0.21723 0.0
O1640 O 0.76084 0.87181 0.22436 0.0
Zn1641 Zn 0.78839 0.87489 0.1987 0.0
O1642 O 0.81357 0.89992 0.21053 0.0
C1643 C 0.75322 0.89208 0.16075 0.0
O1644 O 0.73617 0.88184 0.17512 0.0
O1645 O 0.80736 0.84284 0.1935 0.0
C1646 C 0.80723 0.92255 0.21372 0.0
O1647 O 0.78362 0.92889 0.21172 0.0
C1648 C 0.76669 0.87024 0.24731 0.0
O1649 O 0.79035 0.86985 0.25373 0.0
O1650 O 0.77611 0.88981 0.16639 0.0
C1651 C 0.67724 0.05251 0.9535 0.0
O1652 O 0.67989 0.03237 0.96723 0.0
O1653 O 0.6273 0.01084 0.97437 0.0
Zn1654 Zn 0.62423 0.03839 0.9487 0.0
O1655 O 0.5992 0.06357 0.96053 0.0
C1656 C 0.60705 0.00321 0.91075 0.0
O1657 O 0.61728 0.98617 0.92511 0.0
O1658 O 0.65627 0.05735 0.94349 0.0
C1659 C 0.57657 0.05723 0.96372 0.0
O1660 O 0.57023 0.03362 0.96173 0.0
C1661 C 0.62888 0.01669 0.99731 0.0
O1662 O 0.62927 0.04035 0.00373 0.0
O1663 O 0.6093 0.02611 0.91639 0.0
C1664 C 0.04561 0.94661 0.32188 0.0
O1665 O 0.03188 0.96675 0.31922 0.0
O1666 O 0.02475 0.98828 0.37181 0.0
Zn1667 Zn 0.05041 0.96072 0.37489 0.0
O1668 O 0.03859 0.93555 0.39992 0.0
C1669 C 0.08836 0.9959 0.39207 0.0
O1670 O 0.074 0.01295 0.38183 0.0
O1671 O 0.05562 0.94176 0.34284 0.0
C1672 C 0.0354 0.94188 0.42255 0.0
O1673 O 0.03739 0.96549 0.42888 0.0
C1674 C 0.0018 0.98243 0.37024 0.0
O1675 O 0.99538 0.95876 0.36984 0.0
O1676 O 0.08273 0.97301 0.38981 0.0
C1677 C 0.55251 0.29561 0.07188 0.0
O1678 O 0.53237 0.28189 0.06923 0.0
O1679 O 0.51084 0.27475 0.12181 0.0
Zn1680 Zn 0.53839 0.30042 0.12488 0.0
O1681 O 0.56357 0.28859 0.14992 0.0
C1682 C 0.50322 0.33836 0.14207 0.0
O1683 O 0.48617 0.32399 0.13184 0.0
O1684 O 0.55736 0.30562 0.09284 0.0
C1685 C 0.55723 0.2854 0.17255 0.0
O1686 O 0.53362 0.28739 0.17889 0.0
C1687 C 0.51669 0.2518 0.12024 0.0
O1688 O 0.54035 0.24539 0.11984 0.0
O1689 O 0.52611 0.33273 0.13981 0.0
C1690 C 0.2035 0.80251 0.82188 0.0
O1691 O 0.21723 0.78237 0.81922 0.0
O1692 O 0.22437 0.76084 0.87181 0.0
Zn1693 Zn 0.1987 0.78839 0.87489 0.0
O1694 O 0.21053 0.81357 0.89992 0.0
C1695 C 0.16076 0.75321 0.89207 0.0
O1696 O 0.17511 0.73617 0.88183 0.0
O1697 O 0.1935 0.80735 0.84284 0.0
C1698 C 0.21372 0.80723 0.92255 0.0
O1699 O 0.21173 0.78362 0.92889 0.0
C1700 C 0.24731 0.76669 0.87024 0.0
O1701 O 0.25373 0.79035 0.86984 0.0
O1702 O 0.16639 0.77611 0.88981 0.0
C1703 C 0.69661 0.4535 0.57187 0.0
O1704 O 0.71675 0.46723 0.56922 0.0
O1705 O 0.73828 0.47436 0.62181 0.0
Zn1706 Zn 0.71072 0.4487 0.62488 0.0
O1707 O 0.68555 0.46053 0.64992 0.0
C1708 C 0.7459 0.41076 0.64207 0.0
O1709 O 0.76294 0.42512 0.63184 0.0
O1710 O 0.69176 0.4435 0.59284 0.0
C1711 C 0.69188 0.46372 0.67255 0.0
O1712 O 0.7155 0.46173 0.67888 0.0
C1713 C 0.73243 0.49731 0.62024 0.0
O1714 O 0.70876 0.50373 0.61984 0.0
O1715 O 0.72301 0.41639 0.63981 0.0
C1716 C 0.04562 0.80251 0.42724 0.0
O1717 O 0.03189 0.78237 0.42989 0.0
O1718 O 0.02475 0.76084 0.3773 0.0
Zn1719 Zn 0.05041 0.78839 0.37423 0.0
O1720 O 0.03859 0.81357 0.34919 0.0
C1721 C 0.08836 0.75321 0.35704 0.0
O1722 O 0.07401 0.73617 0.36728 0.0
O1723 O 0.05562 0.80736 0.40627 0.0
C1724 C 0.0354 0.80723 0.32656 0.0
O1725 O 0.03739 0.78362 0.32023 0.0
C1726 C 0.0018 0.76669 0.37887 0.0
O1727 O 0.99538 0.79035 0.37927 0.0
O1728 O 0.08273 0.77611 0.3593 0.0
C1729 C 0.69661 0.29561 0.17724 0.0
O1730 O 0.71675 0.28188 0.17989 0.0
O1731 O 0.73828 0.27475 0.1273 0.0
Zn1732 Zn 0.71072 0.30041 0.12423 0.0
O1733 O 0.68555 0.28859 0.0992 0.0
C1734 C 0.7459 0.33836 0.10704 0.0
O1735 O 0.76295 0.32399 0.11727 0.0
O1736 O 0.69176 0.30562 0.15627 0.0
C1737 C 0.69188 0.2854 0.07657 0.0
O1738 O 0.7155 0.28739 0.07024 0.0
C1739 C 0.73243 0.2518 0.12887 0.0
O1740 O 0.70876 0.24538 0.12927 0.0
O1741 O 0.72301 0.33273 0.1093 0.0
C1742 C 0.2035 0.94661 0.92724 0.0
O1743 O 0.21723 0.96675 0.92989 0.0
O1744 O 0.22437 0.98827 0.8773 0.0
Zn1745 Zn 0.19871 0.96072 0.87423 0.0
O1746 O 0.21053 0.93555 0.84919 0.0
C1747 C 0.16076 0.9959 0.85704 0.0
O1748 O 0.17511 0.01295 0.86728 0.0
O1749 O 0.1935 0.94176 0.90627 0.0
C1750 C 0.21372 0.94188 0.82657 0.0
O1751 O 0.21173 0.96549 0.82023 0.0
C1752 C 0.24732 0.98243 0.87888 0.0
O1753 O 0.25373 0.95876 0.87928 0.0
O1754 O 0.16639 0.973 0.8593 0.0
C1755 C 0.55251 0.4535 0.67724 0.0
O1756 O 0.53237 0.46723 0.67989 0.0
O1757 O 0.51084 0.47437 0.6273 0.0
Zn1758 Zn 0.53839 0.4487 0.62423 0.0
O1759 O 0.56357 0.46053 0.59919 0.0
C1760 C 0.50322 0.41076 0.60704 0.0
O1761 O 0.48617 0.42512 0.61727 0.0
O1762 O 0.55736 0.4435 0.65627 0.0
C1763 C 0.55723 0.46372 0.57657 0.0
O1764 O 0.53362 0.46173 0.57023 0.0
C1765 C 0.51669 0.49731 0.62887 0.0
O1766 O 0.54035 0.50373 0.62927 0.0
O1767 O 0.52611 0.41639 0.6093 0.0
C1768 C 0.32188 0.54561 0.44661 0.0
O1769 O 0.31923 0.53189 0.46675 0.0
O1770 O 0.37181 0.52475 0.48828 0.0
Zn1771 Zn 0.37489 0.55041 0.46072 0.0
O1772 O 0.39992 0.53858 0.43555 0.0
C1773 C 0.39207 0.58836 0.4959 0.0
O1774 O 0.38183 0.57401 0.51295 0.0
O1775 O 0.34285 0.55562 0.44176 0.0
C1776 C 0.42255 0.53539 0.44188 0.0
O1777 O 0.42889 0.53739 0.46549 0.0
C1778 C 0.37024 0.5018 0.48243 0.0
O1779 O 0.36984 0.49538 0.45876 0.0
O1780 O 0.38982 0.58272 0.47301 0.0
C1781 C 0.82188 0.7035 0.30251 0.0
O1782 O 0.81923 0.71723 0.28237 0.0
O1783 O 0.87181 0.72437 0.26084 0.0
Zn1784 Zn 0.87489 0.69871 0.28839 0.0
O1785 O 0.89992 0.71053 0.31357 0.0
C1786 C 0.89207 0.66075 0.25321 0.0
O1787 O 0.88183 0.67511 0.23617 0.0
O1788 O 0.84285 0.6935 0.30735 0.0
C1789 C 0.92255 0.71372 0.30723 0.0
O1790 O 0.92889 0.71173 0.28362 0.0
C1791 C 0.87024 0.74732 0.26669 0.0
O1792 O 0.86985 0.75373 0.29035 0.0
O1793 O 0.88982 0.66639 0.27611 0.0
C1794 C 0.79562 0.07188 0.05251 0.0
O1795 O 0.78189 0.06922 0.03237 0.0
O1796 O 0.77475 0.12181 0.01084 0.0
Zn1797 Zn 0.80041 0.12489 0.03839 0.0
O1798 O 0.78859 0.14992 0.06356 0.0
C1799 C 0.83836 0.14207 0.00321 0.0
O1800 O 0.82401 0.13183 0.98617 0.0
O1801 O 0.80562 0.09284 0.05735 0.0
C1802 C 0.7854 0.17255 0.05723 0.0
O1803 O 0.78739 0.17889 0.03362 0.0
C1804 C 0.7518 0.12024 0.01668 0.0
O1805 O 0.74538 0.11984 0.04035 0.0
O1806 O 0.83273 0.13981 0.02611 0.0
C1807 C 0.42724 0.04561 0.80251 0.0
O1808 O 0.42989 0.03188 0.78237 0.0
O1809 O 0.3773 0.02475 0.76084 0.0
Zn1810 Zn 0.37423 0.05041 0.78839 0.0
O1811 O 0.3492 0.03859 0.81357 0.0
C1812 C 0.35705 0.08836 0.75322 0.0
O1813 O 0.36728 0.07401 0.73617 0.0
O1814 O 0.40627 0.05562 0.80736 0.0
C1815 C 0.32657 0.0354 0.80723 0.0
O1816 O 0.32024 0.03739 0.78362 0.0
C1817 C 0.37887 0.0018 0.76669 0.0
O1818 O 0.37927 0.99538 0.79035 0.0
O1819 O 0.3593 0.08273 0.77611 0.0
C1820 C 0.9535 0.67724 0.05251 0.0
O1821 O 0.96723 0.67989 0.03237 0.0
O1822 O 0.97437 0.6273 0.01084 0.0
Zn1823 Zn 0.9487 0.62423 0.03839 0.0
O1824 O 0.96053 0.59919 0.06357 0.0
C1825 C 0.91075 0.60704 0.00322 0.0
O1826 O 0.92511 0.61728 0.98617 0.0
O1827 O 0.9435 0.65627 0.05736 0.0
C1828 C 0.96372 0.57657 0.05723 0.0
O1829 O 0.96173 0.57023 0.03362 0.0
C1830 C 0.99731 0.62887 0.01669 0.0
O1831 O 0.00373 0.62927 0.04035 0.0
O1832 O 0.91639 0.6093 0.02611 0.0
C1833 C 0.42724 0.2035 0.4466 0.0
O1834 O 0.42989 0.21723 0.46675 0.0
O1835 O 0.37731 0.22437 0.48827 0.0
Zn1836 Zn 0.37423 0.1987 0.46072 0.0
O1837 O 0.3492 0.21053 0.43555 0.0
C1838 C 0.35705 0.16076 0.4959 0.0
O1839 O 0.36728 0.17511 0.51295 0.0
O1840 O 0.40627 0.1935 0.44176 0.0
C1841 C 0.32657 0.21372 0.44188 0.0
O1842 O 0.32024 0.21173 0.46549 0.0
C1843 C 0.37888 0.24731 0.48243 0.0
O1844 O 0.37928 0.25373 0.45876 0.0
O1845 O 0.3593 0.16639 0.473 0.0
C1846 C 0.79562 0.17724 0.19661 0.0
O1847 O 0.78189 0.17989 0.21675 0.0
O1848 O 0.77475 0.12731 0.23828 0.0
Zn1849 Zn 0.80041 0.12423 0.21072 0.0
O1850 O 0.78859 0.0992 0.18555 0.0
C1851 C 0.83836 0.10704 0.2459 0.0
O1852 O 0.82401 0.11728 0.26295 0.0
O1853 O 0.80562 0.15627 0.19176 0.0
C1854 C 0.7854 0.07657 0.19188 0.0
O1855 O 0.78739 0.07023 0.21549 0.0
C1856 C 0.7518 0.12888 0.23243 0.0
O1857 O 0.74538 0.12928 0.20876 0.0
O1858 O 0.83273 0.1093 0.22301 0.0
C1859 C 0.4535 0.57188 0.69661 0.0
O1860 O 0.46723 0.56922 0.71675 0.0
O1861 O 0.47437 0.62181 0.73827 0.0
Zn1862 Zn 0.44871 0.62489 0.71072 0.0
O1863 O 0.46053 0.64992 0.68555 0.0
C1864 C 0.41076 0.64207 0.7459 0.0
O1865 O 0.42511 0.63183 0.76295 0.0
O1866 O 0.4435 0.59284 0.69176 0.0
C1867 C 0.46372 0.67255 0.69188 0.0
O1868 O 0.46173 0.67889 0.71549 0.0
C1869 C 0.49732 0.62024 0.73243 0.0
O1870 O 0.50374 0.61984 0.70876 0.0
O1871 O 0.41639 0.63981 0.723 0.0
C1872 C 0.55251 0.67724 0.4535 0.0
O1873 O 0.53237 0.67989 0.46723 0.0
O1874 O 0.51084 0.6273 0.47437 0.0
Zn1875 Zn 0.53839 0.62423 0.4487 0.0
O1876 O 0.56357 0.5992 0.46053 0.0
C1877 C 0.50322 0.60704 0.41075 0.0
O1878 O 0.48617 0.61728 0.42511 0.0
O1879 O 0.55736 0.65627 0.44349 0.0
C1880 C 0.55723 0.57657 0.46372 0.0
O1881 O 0.53362 0.57024 0.46173 0.0
C1882 C 0.51669 0.62887 0.49731 0.0
O1883 O 0.54035 0.62927 0.50373 0.0
O1884 O 0.52611 0.6093 0.41639 0.0
C1885 C 0.32188 0.80251 0.7035 0.0
O1886 O 0.31923 0.78237 0.71723 0.0
O1887 O 0.37181 0.76084 0.72437 0.0
Zn1888 Zn 0.37489 0.78839 0.6987 0.0
O1889 O 0.39992 0.81357 0.71053 0.0
C1890 C 0.39207 0.75321 0.66075 0.0
O1891 O 0.38184 0.73617 0.67511 0.0
O1892 O 0.34284 0.80735 0.6935 0.0
C1893 C 0.42255 0.80723 0.71372 0.0
O1894 O 0.42889 0.78362 0.71173 0.0
C1895 C 0.37024 0.76669 0.74731 0.0
O1896 O 0.36985 0.79035 0.75373 0.0
O1897 O 0.38982 0.77611 0.66639 0.0
C1898 C 0.19661 0.57188 0.9535 0.0
O1899 O 0.21675 0.56923 0.96723 0.0
O1900 O 0.23828 0.62181 0.97437 0.0
Zn1901 Zn 0.21072 0.62489 0.9487 0.0
O1902 O 0.18555 0.64992 0.96053 0.0
C1903 C 0.2459 0.64207 0.91075 0.0
O1904 O 0.26295 0.63183 0.92511 0.0
O1905 O 0.19176 0.59284 0.9435 0.0
C1906 C 0.19188 0.67255 0.96372 0.0
O1907 O 0.21549 0.67889 0.96173 0.0
C1908 C 0.23243 0.62024 0.99731 0.0
O1909 O 0.20876 0.61984 0.00373 0.0
O1910 O 0.22301 0.63981 0.91639 0.0
C1911 C 0.42724 0.4466 0.2035 0.0
O1912 O 0.42989 0.46675 0.21723 0.0
O1913 O 0.3773 0.48827 0.22437 0.0
Zn1914 Zn 0.37423 0.46072 0.1987 0.0
O1915 O 0.3492 0.43555 0.21053 0.0
C1916 C 0.35705 0.4959 0.16075 0.0
O1917 O 0.36728 0.51295 0.17511 0.0
O1918 O 0.40627 0.44176 0.1935 0.0
C1919 C 0.32657 0.44188 0.21372 0.0
O1920 O 0.32023 0.46549 0.21173 0.0
C1921 C 0.37888 0.48243 0.24731 0.0
O1922 O 0.37927 0.45876 0.25373 0.0
O1923 O 0.3593 0.473 0.16639 0.0
C1924 C 0.55251 0.57188 0.79561 0.0
O1925 O 0.53237 0.56923 0.78189 0.0
O1926 O 0.51084 0.62181 0.77475 0.0
Zn1927 Zn 0.5384 0.62489 0.80041 0.0
O1928 O 0.56357 0.64992 0.78858 0.0
C1929 C 0.50322 0.64207 0.83836 0.0
O1930 O 0.48617 0.63183 0.82401 0.0
O1931 O 0.55736 0.59284 0.80562 0.0
C1932 C 0.55723 0.67255 0.78539 0.0
O1933 O 0.53362 0.67889 0.78738 0.0
C1934 C 0.51669 0.62024 0.7518 0.0
O1935 O 0.54036 0.61984 0.74538 0.0
O1936 O 0.52611 0.63982 0.83272 0.0
C1937 C 0.42724 0.80251 0.04561 0.0
O1938 O 0.42989 0.78237 0.03188 0.0
O1939 O 0.3773 0.76084 0.02475 0.0
Zn1940 Zn 0.37423 0.78839 0.05041 0.0
O1941 O 0.34919 0.81357 0.03859 0.0
C1942 C 0.35704 0.75322 0.08836 0.0
O1943 O 0.36728 0.73617 0.074 0.0
O1944 O 0.40627 0.80735 0.05562 0.0
C1945 C 0.32657 0.80723 0.0354 0.0
O1946 O 0.32023 0.78362 0.03739 0.0
C1947 C 0.37887 0.76669 0.0018 0.0
O1948 O 0.37927 0.79035 0.99538 0.0
O1949 O 0.3593 0.77611 0.08273 0.0
C1950 C 0.19661 0.67724 0.29561 0.0
O1951 O 0.21675 0.67989 0.28189 0.0
O1952 O 0.23828 0.6273 0.27475 0.0
Zn1953 Zn 0.21072 0.62423 0.30041 0.0
O1954 O 0.18555 0.59919 0.28859 0.0
C1955 C 0.2459 0.60704 0.33836 0.0
O1956 O 0.26295 0.61728 0.32401 0.0
O1957 O 0.19176 0.65627 0.30562 0.0
C1958 C 0.19188 0.57656 0.2854 0.0
O1959 O 0.21549 0.57023 0.28739 0.0
C1960 C 0.23243 0.62887 0.2518 0.0
O1961 O 0.20876 0.62927 0.24538 0.0
O1962 O 0.22301 0.6093 0.33273 0.0
C1963 C 0.32188 0.44661 0.54562 0.0
O1964 O 0.31922 0.46675 0.53189 0.0
O1965 O 0.37181 0.48827 0.52475 0.0
Zn1966 Zn 0.37489 0.46072 0.55041 0.0
O1967 O 0.39992 0.43555 0.53859 0.0
C1968 C 0.39207 0.4959 0.58836 0.0
O1969 O 0.38183 0.51295 0.574 0.0
O1970 O 0.34284 0.44176 0.55562 0.0
C1971 C 0.42255 0.44188 0.5354 0.0
O1972 O 0.42888 0.46549 0.53739 0.0
C1973 C 0.37024 0.48243 0.5018 0.0
O1974 O 0.36984 0.45876 0.49538 0.0
O1975 O 0.38981 0.47301 0.58273 0.0
C1976 C 0.9535 0.5525 0.17724 0.0
O1977 O 0.96723 0.53237 0.17989 0.0
O1978 O 0.97437 0.51084 0.1273 0.0
Zn1979 Zn 0.94871 0.53839 0.12423 0.0
O1980 O 0.96053 0.56356 0.0992 0.0
C1981 C 0.91076 0.50321 0.10704 0.0
O1982 O 0.92511 0.48616 0.11728 0.0
O1983 O 0.9435 0.55735 0.15627 0.0
C1984 C 0.96372 0.55723 0.07657 0.0
O1985 O 0.96173 0.53362 0.07023 0.0
C1986 C 0.99732 0.51668 0.12887 0.0
O1987 O 0.00374 0.54035 0.12927 0.0
O1988 O 0.91639 0.52611 0.1093 0.0
C1989 C 0.44661 0.2035 0.42724 0.0
O1990 O 0.46675 0.21723 0.42989 0.0
O1991 O 0.48828 0.22436 0.3773 0.0
Zn1992 Zn 0.46072 0.1987 0.37423 0.0
O1993 O 0.43555 0.21053 0.34919 0.0
C1994 C 0.4959 0.16075 0.35704 0.0
O1995 O 0.51295 0.17511 0.36728 0.0
O1996 O 0.44176 0.19349 0.40627 0.0
C1997 C 0.44188 0.21372 0.32657 0.0
O1998 O 0.46549 0.21172 0.32023 0.0
C1999 C 0.48243 0.24731 0.37887 0.0
O2000 O 0.45876 0.25373 0.37927 0.0
O2001 O 0.47301 0.16639 0.3593 0.0
C2002 C 0.79562 0.6966 0.67724 0.0
O2003 O 0.78189 0.71675 0.67989 0.0
O2004 O 0.77475 0.73827 0.6273 0.0
Zn2005 Zn 0.80041 0.71072 0.62423 0.0
O2006 O 0.78859 0.68555 0.59919 0.0
C2007 C 0.83836 0.7459 0.60704 0.0
O2008 O 0.82401 0.76295 0.61728 0.0
O2009 O 0.80562 0.69176 0.65627 0.0
C2010 C 0.7854 0.69188 0.57657 0.0
O2011 O 0.78739 0.71549 0.57023 0.0
C2012 C 0.7518 0.73243 0.62887 0.0
O2013 O 0.74538 0.70876 0.62927 0.0
O2014 O 0.83273 0.723 0.6093 0.0
C2015 C 0.30251 0.04561 0.92724 0.0
O2016 O 0.28237 0.03189 0.92989 0.0
O2017 O 0.26084 0.02475 0.87731 0.0
Zn2018 Zn 0.28839 0.05041 0.87423 0.0
O2019 O 0.31357 0.03859 0.8492 0.0
C2020 C 0.25322 0.08836 0.85704 0.0
O2021 O 0.23617 0.074 0.86728 0.0
O2022 O 0.30736 0.05562 0.90627 0.0
C2023 C 0.30723 0.0354 0.82657 0.0
O2024 O 0.28362 0.03739 0.82023 0.0
C2025 C 0.26669 0.0018 0.87888 0.0
O2026 O 0.29035 0.99538 0.87927 0.0
O2027 O 0.27611 0.08273 0.8593 0.0
C2028 C 0.9535 0.69661 0.07188 0.0
O2029 O 0.96723 0.71675 0.06922 0.0
O2030 O 0.97437 0.73827 0.12181 0.0
Zn2031 Zn 0.9487 0.71072 0.12489 0.0
O2032 O 0.96053 0.68555 0.14992 0.0
C2033 C 0.91075 0.7459 0.14207 0.0
O2034 O 0.92511 0.76295 0.13183 0.0
O2035 O 0.94349 0.69176 0.09284 0.0
C2036 C 0.96372 0.69188 0.17255 0.0
O2037 O 0.96173 0.71549 0.17889 0.0
C2038 C 0.99731 0.73243 0.12024 0.0
O2039 O 0.00373 0.70876 0.11984 0.0
O2040 O 0.91639 0.72301 0.13981 0.0
C2041 C 0.30251 0.2035 0.32188 0.0
O2042 O 0.28237 0.21723 0.31922 0.0
O2043 O 0.26084 0.22437 0.37181 0.0
Zn2044 Zn 0.28839 0.1987 0.37489 0.0
O2045 O 0.31357 0.21053 0.39992 0.0
C2046 C 0.25322 0.16075 0.39207 0.0
O2047 O 0.23617 0.17511 0.38183 0.0
O2048 O 0.30735 0.1935 0.34284 0.0
C2049 C 0.30723 0.21372 0.42255 0.0
O2050 O 0.28362 0.21173 0.42889 0.0
C2051 C 0.26669 0.24731 0.37024 0.0
O2052 O 0.29035 0.25373 0.36984 0.0
O2053 O 0.27611 0.16639 0.38981 0.0
C2054 C 0.79562 0.55251 0.57188 0.0
O2055 O 0.78189 0.53237 0.56923 0.0
O2056 O 0.77475 0.51084 0.62181 0.0
Zn2057 Zn 0.80041 0.53839 0.62489 0.0
O2058 O 0.78859 0.56357 0.64992 0.0
C2059 C 0.83836 0.50321 0.64207 0.0
O2060 O 0.82401 0.48617 0.63183 0.0
O2061 O 0.80562 0.55735 0.59284 0.0
C2062 C 0.7854 0.55723 0.67255 0.0
O2063 O 0.78739 0.53362 0.67888 0.0
C2064 C 0.7518 0.51669 0.62024 0.0
O2065 O 0.74538 0.54035 0.61984 0.0
O2066 O 0.83273 0.52611 0.63981 0.0
C2067 C 0.44661 0.04561 0.82188 0.0
O2068 O 0.46675 0.03188 0.81922 0.0
O2069 O 0.48828 0.02475 0.87181 0.0
Zn2070 Zn 0.46073 0.05041 0.87489 0.0
O2071 O 0.43555 0.03858 0.89992 0.0
C2072 C 0.4959 0.08836 0.89207 0.0
O2073 O 0.51295 0.074 0.88183 0.0
O2074 O 0.44176 0.05562 0.84284 0.0
C2075 C 0.44188 0.03539 0.92255 0.0
O2076 O 0.4655 0.03738 0.92888 0.0
C2077 C 0.48243 0.0018 0.87024 0.0
O2078 O 0.45877 0.99538 0.86984 0.0
O2079 O 0.47301 0.08272 0.88981 0.0
C2080 C 0.67724 0.9535 0.05251 0.0
O2081 O 0.67989 0.96723 0.03237 0.0
O2082 O 0.6273 0.97437 0.01084 0.0
Zn2083 Zn 0.62423 0.9487 0.03839 0.0
O2084 O 0.5992 0.96053 0.06357 0.0
C2085 C 0.60704 0.91075 0.00322 0.0
O2086 O 0.61728 0.92511 0.98617 0.0
O2087 O 0.65627 0.9435 0.05736 0.0
C2088 C 0.57657 0.96372 0.05723 0.0
O2089 O 0.57024 0.96173 0.03362 0.0
C2090 C 0.62887 0.99731 0.01669 0.0
O2091 O 0.62927 0.00373 0.04035 0.0
O2092 O 0.6093 0.91639 0.02611 0.0
C2093 C 0.17724 0.79561 0.19661 0.0
O2094 O 0.17989 0.78188 0.21674 0.0
O2095 O 0.12731 0.77475 0.23828 0.0
Zn2096 Zn 0.12423 0.80041 0.21072 0.0
O2097 O 0.0992 0.78858 0.18555 0.0
C2098 C 0.10705 0.83836 0.2459 0.0
O2099 O 0.11729 0.82401 0.26295 0.0
O2100 O 0.15627 0.80562 0.19176 0.0
C2101 C 0.07657 0.78539 0.19188 0.0
O2102 O 0.07023 0.78738 0.21549 0.0
C2103 C 0.12888 0.7518 0.23243 0.0
O2104 O 0.12928 0.74538 0.20876 0.0
O2105 O 0.1093 0.83272 0.223 0.0
C2106 C 0.2035 0.42724 0.4466 0.0
O2107 O 0.21723 0.42989 0.46675 0.0
O2108 O 0.22437 0.37731 0.48827 0.0
Zn2109 Zn 0.1987 0.37423 0.46072 0.0
O2110 O 0.21053 0.3492 0.43555 0.0
C2111 C 0.16076 0.35705 0.4959 0.0
O2112 O 0.17511 0.36728 0.51295 0.0
O2113 O 0.1935 0.40627 0.44176 0.0
C2114 C 0.21372 0.32657 0.44188 0.0
O2115 O 0.21173 0.32024 0.46549 0.0
C2116 C 0.24731 0.37888 0.48243 0.0
O2117 O 0.25373 0.37927 0.45876 0.0
O2118 O 0.16639 0.3593 0.473 0.0
C2119 C 0.57188 0.4535 0.69661 0.0
O2120 O 0.56923 0.46723 0.71675 0.0
O2121 O 0.62181 0.47437 0.73827 0.0
Zn2122 Zn 0.62489 0.4487 0.71072 0.0
O2123 O 0.64992 0.46053 0.68555 0.0
C2124 C 0.64207 0.41076 0.7459 0.0
O2125 O 0.63183 0.42511 0.76295 0.0
O2126 O 0.59284 0.4435 0.69176 0.0
C2127 C 0.67255 0.46372 0.69188 0.0
O2128 O 0.67889 0.46173 0.71549 0.0
C2129 C 0.62024 0.49731 0.73243 0.0
O2130 O 0.61984 0.50373 0.70876 0.0
O2131 O 0.63982 0.41639 0.72301 0.0
C2132 C 0.04562 0.82188 0.44661 0.0
O2133 O 0.03189 0.81922 0.46674 0.0
O2134 O 0.02475 0.87181 0.48828 0.0
Zn2135 Zn 0.05041 0.87489 0.46072 0.0
O2136 O 0.03859 0.89992 0.43555 0.0
C2137 C 0.08836 0.89207 0.4959 0.0
O2138 O 0.07401 0.88183 0.51295 0.0
O2139 O 0.05562 0.84284 0.44176 0.0
C2140 C 0.0354 0.92255 0.44188 0.0
O2141 O 0.03739 0.92889 0.46549 0.0
C2142 C 0.0018 0.87024 0.48243 0.0
O2143 O 0.99538 0.86984 0.45876 0.0
O2144 O 0.08273 0.88981 0.47301 0.0
C2145 C 0.57188 0.29561 0.05251 0.0
O2146 O 0.56923 0.28189 0.03237 0.0
O2147 O 0.62181 0.27475 0.01084 0.0
Zn2148 Zn 0.62489 0.30041 0.03839 0.0
O2149 O 0.64992 0.28859 0.06357 0.0
C2150 C 0.64207 0.33836 0.00321 0.0
O2151 O 0.63183 0.32401 0.98617 0.0
O2152 O 0.59285 0.30562 0.05735 0.0
C2153 C 0.67255 0.2854 0.05723 0.0
O2154 O 0.67889 0.28739 0.03362 0.0
C2155 C 0.62024 0.2518 0.01669 0.0
O2156 O 0.61984 0.24538 0.04035 0.0
O2157 O 0.63982 0.33273 0.02611 0.0
C2158 C 0.2035 0.32188 0.30251 0.0
O2159 O 0.21723 0.31923 0.28237 0.0
O2160 O 0.22437 0.37181 0.26084 0.0
Zn2161 Zn 0.19871 0.37489 0.28839 0.0
O2162 O 0.21053 0.39992 0.31357 0.0
C2163 C 0.16076 0.39207 0.25322 0.0
O2164 O 0.17511 0.38183 0.23617 0.0
O2165 O 0.1935 0.34284 0.30736 0.0
C2166 C 0.21372 0.42255 0.30723 0.0
O2167 O 0.21173 0.42888 0.28362 0.0
C2168 C 0.24732 0.37024 0.26669 0.0
O2169 O 0.25374 0.36984 0.29035 0.0
O2170 O 0.16639 0.38981 0.27611 0.0
C2171 C 0.54562 0.92724 0.80251 0.0
O2172 O 0.53189 0.92989 0.78237 0.0
O2173 O 0.52475 0.8773 0.76084 0.0
Zn2174 Zn 0.55041 0.87423 0.78839 0.0
O2175 O 0.53858 0.84919 0.81357 0.0
C2176 C 0.58836 0.85704 0.75321 0.0
O2177 O 0.57401 0.86728 0.73617 0.0
O2178 O 0.55562 0.90627 0.80735 0.0
C2179 C 0.53539 0.82656 0.80723 0.0
O2180 O 0.53739 0.82023 0.78362 0.0
C2181 C 0.5018 0.87887 0.76668 0.0
O2182 O 0.49538 0.87927 0.79035 0.0
O2183 O 0.58273 0.8593 0.77611 0.0
C2184 C 0.44661 0.32188 0.54561 0.0
O2185 O 0.46675 0.31922 0.53189 0.0
O2186 O 0.48828 0.37181 0.52475 0.0
Zn2187 Zn 0.46072 0.37489 0.55041 0.0
O2188 O 0.43555 0.39992 0.53859 0.0
C2189 C 0.4959 0.39207 0.58836 0.0
O2190 O 0.51295 0.38183 0.574 0.0
O2191 O 0.44176 0.34284 0.55562 0.0
C2192 C 0.44188 0.42255 0.5354 0.0
O2193 O 0.46549 0.42889 0.53739 0.0
C2194 C 0.48243 0.37024 0.5018 0.0
O2195 O 0.45876 0.36984 0.49538 0.0
O2196 O 0.47301 0.38981 0.58273 0.0
C2197 C 0.67724 0.19661 0.29561 0.0
O2198 O 0.67989 0.21675 0.28188 0.0
O2199 O 0.6273 0.23828 0.27475 0.0
Zn2200 Zn 0.62423 0.21072 0.30041 0.0
O2201 O 0.5992 0.18555 0.28859 0.0
C2202 C 0.60704 0.2459 0.33836 0.0
O2203 O 0.61728 0.26295 0.324 0.0
O2204 O 0.65627 0.19176 0.30562 0.0
C2205 C 0.57657 0.19188 0.2854 0.0
O2206 O 0.57023 0.21549 0.28739 0.0
C2207 C 0.62887 0.23243 0.2518 0.0
O2208 O 0.62927 0.20876 0.24538 0.0
O2209 O 0.6093 0.22301 0.33273 0.0
C2210 C 0.80251 0.42724 0.04561 0.0
O2211 O 0.78237 0.42989 0.03188 0.0
O2212 O 0.76084 0.3773 0.02475 0.0
Zn2213 Zn 0.78839 0.37423 0.05041 0.0
O2214 O 0.81357 0.34919 0.03858 0.0
C2215 C 0.75322 0.35704 0.08836 0.0
O2216 O 0.73617 0.36728 0.074 0.0
O2217 O 0.80736 0.40627 0.05562 0.0
C2218 C 0.80723 0.32656 0.0354 0.0
O2219 O 0.78362 0.32023 0.03739 0.0
C2220 C 0.76669 0.37887 0.0018 0.0
O2221 O 0.79035 0.37927 0.99538 0.0
O2222 O 0.77611 0.3593 0.08272 0.0
C2223 C 0.57188 0.55251 0.79561 0.0
O2224 O 0.56923 0.53237 0.78189 0.0
O2225 O 0.62181 0.51084 0.77475 0.0
Zn2226 Zn 0.62489 0.53839 0.80041 0.0
O2227 O 0.64992 0.56357 0.78859 0.0
C2228 C 0.64207 0.50322 0.83836 0.0
O2229 O 0.63183 0.48617 0.824 0.0
O2230 O 0.59284 0.55736 0.80562 0.0
C2231 C 0.67255 0.55723 0.78539 0.0
O2232 O 0.67889 0.53362 0.78738 0.0
C2233 C 0.62024 0.51669 0.7518 0.0
O2234 O 0.61984 0.54035 0.74538 0.0
O2235 O 0.63982 0.52611 0.83273 0.0
C2236 C 0.44661 0.42724 0.2035 0.0
O2237 O 0.46675 0.42989 0.21723 0.0
O2238 O 0.48828 0.3773 0.22437 0.0
Zn2239 Zn 0.46072 0.37423 0.1987 0.0
O2240 O 0.43555 0.34919 0.21053 0.0
C2241 C 0.4959 0.35704 0.16075 0.0
O2242 O 0.51295 0.36729 0.17511 0.0
O2243 O 0.44176 0.40627 0.1935 0.0
C2244 C 0.44188 0.32657 0.21372 0.0
O2245 O 0.46549 0.32023 0.21173 0.0
C2246 C 0.48243 0.37887 0.24731 0.0
O2247 O 0.45876 0.37928 0.25373 0.0
O2248 O 0.47301 0.3593 0.16639 0.0
C2249 C 0.57188 0.19661 0.9535 0.0
O2250 O 0.56923 0.21675 0.96723 0.0
O2251 O 0.62181 0.23827 0.97437 0.0
Zn2252 Zn 0.62489 0.21072 0.9487 0.0
O2253 O 0.64992 0.18555 0.96053 0.0
C2254 C 0.64207 0.2459 0.91075 0.0
O2255 O 0.63183 0.26295 0.92511 0.0
O2256 O 0.59285 0.19176 0.9435 0.0
C2257 C 0.67255 0.19188 0.96372 0.0
O2258 O 0.67889 0.21549 0.96173 0.0
C2259 C 0.62024 0.23243 0.99731 0.0
O2260 O 0.61984 0.20876 0.00373 0.0
O2261 O 0.63982 0.22301 0.91639 0.0
C2262 C 0.80251 0.32188 0.7035 0.0
O2263 O 0.78237 0.31923 0.71723 0.0
O2264 O 0.76084 0.37181 0.72437 0.0
Zn2265 Zn 0.78839 0.37489 0.6987 0.0
O2266 O 0.81357 0.39992 0.71053 0.0
C2267 C 0.75322 0.39207 0.66075 0.0
O2268 O 0.73617 0.38183 0.67511 0.0
O2269 O 0.80736 0.34284 0.6935 0.0
C2270 C 0.80723 0.42255 0.71372 0.0
O2271 O 0.78362 0.42889 0.71173 0.0
C2272 C 0.76669 0.37024 0.74731 0.0
O2273 O 0.79035 0.36985 0.75373 0.0
O2274 O 0.77611 0.38982 0.66639 0.0
C2275 C 0.67724 0.55251 0.4535 0.0
O2276 O 0.67989 0.53237 0.46723 0.0
O2277 O 0.6273 0.51084 0.47436 0.0
Zn2278 Zn 0.62423 0.53839 0.4487 0.0
O2279 O 0.5992 0.56357 0.46053 0.0
C2280 C 0.60705 0.50321 0.41075 0.0
O2281 O 0.61728 0.48617 0.42511 0.0
O2282 O 0.65627 0.55735 0.44349 0.0
C2283 C 0.57657 0.55723 0.46372 0.0
O2284 O 0.57023 0.53362 0.46173 0.0
C2285 C 0.62888 0.51669 0.49731 0.0
O2286 O 0.62928 0.54035 0.50373 0.0
O2287 O 0.6093 0.52611 0.41639 0.0
C2288 C 0.04561 0.44661 0.82188 0.0
O2289 O 0.03188 0.46675 0.81922 0.0
O2290 O 0.02475 0.48828 0.87181 0.0
Zn2291 Zn 0.05041 0.46073 0.87489 0.0
O2292 O 0.03859 0.43555 0.89992 0.0
C2293 C 0.08836 0.4959 0.89207 0.0
O2294 O 0.07401 0.51295 0.88183 0.0
O2295 O 0.05562 0.44176 0.84284 0.0
C2296 C 0.03539 0.44188 0.92255 0.0
O2297 O 0.03738 0.46549 0.92889 0.0
C2298 C 0.0018 0.48243 0.87024 0.0
O2299 O 0.99538 0.45877 0.86984 0.0
O2300 O 0.08273 0.47301 0.88981 0.0
C2301 C 0.55251 0.79562 0.57188 0.0
O2302 O 0.53237 0.78189 0.56922 0.0
O2303 O 0.51084 0.77475 0.62181 0.0
Zn2304 Zn 0.53839 0.80041 0.62489 0.0
O2305 O 0.56357 0.78859 0.64992 0.0
C2306 C 0.50322 0.83836 0.64207 0.0
O2307 O 0.48617 0.82401 0.63183 0.0
O2308 O 0.55736 0.80562 0.59284 0.0
C2309 C 0.55723 0.7854 0.67255 0.0
O2310 O 0.53362 0.78739 0.67889 0.0
C2311 C 0.51669 0.7518 0.62024 0.0
O2312 O 0.54035 0.74538 0.61984 0.0
O2313 O 0.52611 0.83273 0.63981 0.0
C2314 C 0.2035 0.30251 0.32188 0.0
O2315 O 0.21723 0.28237 0.31922 0.0
O2316 O 0.22437 0.26084 0.37181 0.0
Zn2317 Zn 0.1987 0.28839 0.37489 0.0
O2318 O 0.21053 0.31357 0.39992 0.0
C2319 C 0.16076 0.25322 0.39207 0.0
O2320 O 0.17511 0.23617 0.38183 0.0
O2321 O 0.1935 0.30736 0.34284 0.0
C2322 C 0.21372 0.30723 0.42255 0.0
O2323 O 0.21173 0.28362 0.42889 0.0
C2324 C 0.24731 0.26669 0.37024 0.0
O2325 O 0.25373 0.29035 0.36984 0.0
O2326 O 0.16639 0.27611 0.38981 0.0
C2327 C 0.69661 0.9535 0.07188 0.0
O2328 O 0.71675 0.96723 0.06922 0.0
O2329 O 0.73828 0.97437 0.12181 0.0
Zn2330 Zn 0.71072 0.9487 0.12488 0.0
O2331 O 0.68555 0.96053 0.14992 0.0
C2332 C 0.7459 0.91076 0.14207 0.0
O2333 O 0.76295 0.92511 0.13183 0.0
O2334 O 0.69176 0.9435 0.09284 0.0
C2335 C 0.69188 0.96372 0.17255 0.0
O2336 O 0.71549 0.96173 0.17888 0.0
C2337 C 0.73243 0.99731 0.12024 0.0
O2338 O 0.70876 0.00373 0.11984 0.0
O2339 O 0.72301 0.91639 0.13981 0.0
C2340 C 0.04562 0.30251 0.92724 0.0
O2341 O 0.03189 0.28237 0.92989 0.0
O2342 O 0.02475 0.26084 0.8773 0.0
Zn2343 Zn 0.05042 0.28839 0.87423 0.0
O2344 O 0.03859 0.31357 0.84919 0.0
C2345 C 0.08836 0.25321 0.85704 0.0
O2346 O 0.07401 0.23617 0.86728 0.0
O2347 O 0.05562 0.30736 0.90627 0.0
C2348 C 0.0354 0.30723 0.82657 0.0
O2349 O 0.03739 0.28362 0.82023 0.0
C2350 C 0.0018 0.26669 0.87887 0.0
O2351 O 0.99539 0.29035 0.87927 0.0
O2352 O 0.08273 0.27611 0.8593 0.0
C2353 C 0.69661 0.79561 0.67724 0.0
O2354 O 0.71675 0.78189 0.67989 0.0
O2355 O 0.73828 0.77475 0.6273 0.0
Zn2356 Zn 0.71072 0.80041 0.62423 0.0
O2357 O 0.68555 0.78858 0.59919 0.0
C2358 C 0.7459 0.83836 0.60704 0.0
O2359 O 0.76295 0.824 0.61728 0.0
O2360 O 0.69176 0.80562 0.65627 0.0
C2361 C 0.69188 0.78539 0.57657 0.0
O2362 O 0.71549 0.78738 0.57023 0.0
C2363 C 0.73243 0.7518 0.62887 0.0
O2364 O 0.70876 0.74538 0.62927 0.0
O2365 O 0.72301 0.83272 0.6093 0.0
C2366 C 0.2035 0.44661 0.42724 0.0
O2367 O 0.21723 0.46675 0.42989 0.0
O2368 O 0.22437 0.48828 0.3773 0.0
Zn2369 Zn 0.19871 0.46072 0.37423 0.0
O2370 O 0.21053 0.43555 0.3492 0.0
C2371 C 0.16076 0.4959 0.35704 0.0
O2372 O 0.17511 0.51295 0.36728 0.0
O2373 O 0.1935 0.44176 0.40627 0.0
C2374 C 0.21372 0.44188 0.32657 0.0
O2375 O 0.21173 0.46549 0.32023 0.0
C2376 C 0.24732 0.48243 0.37888 0.0
O2377 O 0.25373 0.45876 0.37928 0.0
O2378 O 0.16639 0.47301 0.3593 0.0
C2379 C 0.55251 0.9535 0.17724 0.0
O2380 O 0.53237 0.96723 0.17989 0.0
O2381 O 0.51084 0.97437 0.1273 0.0
Zn2382 Zn 0.53839 0.94871 0.12423 0.0
O2383 O 0.56357 0.96053 0.0992 0.0
C2384 C 0.50322 0.91076 0.10704 0.0
O2385 O 0.48617 0.92511 0.11728 0.0
O2386 O 0.55735 0.9435 0.15627 0.0
C2387 C 0.55723 0.96372 0.07657 0.0
O2388 O 0.53362 0.96173 0.07023 0.0
C2389 C 0.51669 0.99732 0.12887 0.0
O2390 O 0.54035 0.00373 0.12927 0.0
O2391 O 0.52611 0.91639 0.1093 0.0
C2392 C 0.32188 0.04561 0.94661 0.0
O2393 O 0.31923 0.03189 0.96675 0.0
O2394 O 0.37181 0.02475 0.98828 0.0
Zn2395 Zn 0.37489 0.05041 0.96072 0.0
O2396 O 0.39992 0.03858 0.93555 0.0
C2397 C 0.39207 0.08836 0.9959 0.0
O2398 O 0.38183 0.07401 0.01295 0.0
O2399 O 0.34285 0.05562 0.94176 0.0
C2400 C 0.42255 0.03539 0.94188 0.0
O2401 O 0.42889 0.03738 0.96549 0.0
C2402 C 0.37024 0.0018 0.98243 0.0
O2403 O 0.36984 0.99538 0.95876 0.0
O2404 O 0.38982 0.08272 0.973 0.0
C2405 C 0.82188 0.2035 0.80251 0.0
O2406 O 0.81922 0.21723 0.78237 0.0
O2407 O 0.87181 0.22437 0.76084 0.0
Zn2408 Zn 0.87489 0.19871 0.78839 0.0
O2409 O 0.89992 0.21053 0.81357 0.0
C2410 C 0.89207 0.16076 0.75322 0.0
O2411 O 0.88183 0.17511 0.73617 0.0
O2412 O 0.84284 0.1935 0.80735 0.0
C2413 C 0.92255 0.21372 0.80723 0.0
O2414 O 0.92889 0.21173 0.78362 0.0
C2415 C 0.87024 0.24732 0.76669 0.0
O2416 O 0.86984 0.25373 0.79035 0.0
O2417 O 0.88982 0.16639 0.77611 0.0
C2418 C 0.79562 0.57187 0.55251 0.0
O2419 O 0.78189 0.56922 0.53237 0.0
O2420 O 0.77475 0.62181 0.51084 0.0
Zn2421 Zn 0.80041 0.62488 0.53839 0.0
O2422 O 0.78859 0.64992 0.56357 0.0
C2423 C 0.83836 0.64207 0.50321 0.0
O2424 O 0.82401 0.63183 0.48617 0.0
O2425 O 0.80562 0.59284 0.55735 0.0
C2426 C 0.7854 0.67255 0.55723 0.0
O2427 O 0.78739 0.67888 0.53362 0.0
C2428 C 0.7518 0.62024 0.51669 0.0
O2429 O 0.74538 0.61984 0.54035 0.0
O2430 O 0.83273 0.63981 0.52611 0.0
C2431 C 0.42724 0.54561 0.30251 0.0
O2432 O 0.42989 0.53188 0.28237 0.0
O2433 O 0.3773 0.52475 0.26084 0.0
Zn2434 Zn 0.37423 0.55041 0.28839 0.0
O2435 O 0.3492 0.53859 0.31357 0.0
C2436 C 0.35705 0.58836 0.25321 0.0
O2437 O 0.36728 0.574 0.23617 0.0
O2438 O 0.40627 0.55562 0.30735 0.0
C2439 C 0.32657 0.5354 0.30723 0.0
O2440 O 0.32023 0.53739 0.28362 0.0
C2441 C 0.37887 0.5018 0.26669 0.0
O2442 O 0.37927 0.49538 0.29035 0.0
O2443 O 0.3593 0.58273 0.27611 0.0
C2444 C 0.9535 0.17724 0.55251 0.0
O2445 O 0.96723 0.17989 0.53237 0.0
O2446 O 0.97437 0.1273 0.51084 0.0
Zn2447 Zn 0.9487 0.12423 0.53839 0.0
O2448 O 0.96053 0.0992 0.56357 0.0
C2449 C 0.91076 0.10704 0.50322 0.0
O2450 O 0.92511 0.11728 0.48617 0.0
O2451 O 0.9435 0.15627 0.55735 0.0
C2452 C 0.96372 0.07657 0.55723 0.0
O2453 O 0.96173 0.07023 0.53362 0.0
C2454 C 0.99731 0.12887 0.51669 0.0
O2455 O 0.00373 0.12927 0.54035 0.0
O2456 O 0.91639 0.1093 0.52611 0.0
C2457 C 0.42724 0.7035 0.94661 0.0
O2458 O 0.42989 0.71723 0.96675 0.0
O2459 O 0.3773 0.72437 0.98827 0.0
Zn2460 Zn 0.37423 0.6987 0.96072 0.0
O2461 O 0.34919 0.71053 0.93555 0.0
C2462 C 0.35704 0.66075 0.9959 0.0
O2463 O 0.36728 0.67511 0.01295 0.0
O2464 O 0.40627 0.6935 0.94176 0.0
C2465 C 0.32657 0.71372 0.94188 0.0
O2466 O 0.32023 0.71173 0.96549 0.0
C2467 C 0.37887 0.74731 0.98243 0.0
O2468 O 0.37927 0.75373 0.95876 0.0
O2469 O 0.3593 0.66639 0.973 0.0
C2470 C 0.79562 0.67724 0.69661 0.0
O2471 O 0.78189 0.67989 0.71675 0.0
O2472 O 0.77475 0.6273 0.73827 0.0
Zn2473 Zn 0.80041 0.62423 0.71072 0.0
O2474 O 0.78859 0.59919 0.68555 0.0
C2475 C 0.83836 0.60704 0.7459 0.0
O2476 O 0.82401 0.61728 0.76295 0.0
O2477 O 0.80562 0.65627 0.69176 0.0
C2478 C 0.78539 0.57657 0.69188 0.0
O2479 O 0.78738 0.57023 0.71549 0.0
C2480 C 0.7518 0.62888 0.73243 0.0
O2481 O 0.74538 0.62928 0.70876 0.0
O2482 O 0.83273 0.6093 0.723 0.0
C2483 C 0.4535 0.07188 0.19661 0.0
O2484 O 0.46723 0.06923 0.21675 0.0
O2485 O 0.47437 0.12181 0.23828 0.0
Zn2486 Zn 0.44871 0.12489 0.21072 0.0
O2487 O 0.46053 0.14992 0.18555 0.0
C2488 C 0.41076 0.14207 0.2459 0.0
O2489 O 0.42511 0.13183 0.26295 0.0
O2490 O 0.4435 0.09285 0.19176 0.0
C2491 C 0.46372 0.17255 0.19188 0.0
O2492 O 0.46173 0.17889 0.21549 0.0
C2493 C 0.49732 0.12024 0.23243 0.0
O2494 O 0.50374 0.11984 0.20876 0.0
O2495 O 0.41639 0.13982 0.22301 0.0
loop_
_geom_bond_atom_site_label_1
_geom_bond_atom_site_label_2
_geom_bond_distance
_geom_bond_site_symmetry_2
_ccdc_geom_bond_type
C0 O1 1.160 . S
C0 O7 1.185 . S
O1 C0 1.160 . S
O2 Zn3 1.899 . S
O2 C10 1.284 . S
Zn3 O2 1.899 . S
Zn3 O4 2.032 . S
Zn3 O7 2.086 . S
Zn3 O12 1.977 . S
O4 Zn3 2.032 . S
O4 C8 1.278 . S
C5 O6 1.203 1_455 S
C5 O12 1.267 . S
O6 C5 1.203 1_655 S
O7 C0 1.185 . S
O7 Zn3 2.086 . S
C8 O4 1.278 . S
C8 O9 1.211 . S
O9 C8 1.211 . S
C10 O2 1.284 . S
C10 O11 1.273 . S
O11 C10 1.273 . S
O12 Zn3 1.977 . S
O12 C5 1.267 . S
C13 O14 1.160 . S
C13 O20 1.185 . S
O14 C13 1.160 . S
O15 Zn16 1.899 . S
O15 C23 1.284 . S
Zn16 O15 1.899 . S
Zn16 O17 2.032 . S
Zn16 O20 2.086 . S
Zn16 O25 1.977 . S
O17 Zn16 2.032 . S
O17 C21 1.278 . S
C18 O19 1.203 . S
C18 O25 1.267 . S
O19 C18 1.203 . S
O20 C13 1.185 . S
O20 Zn16 2.086 . S
C21 O17 1.278 . S
C21 O22 1.211 . S
O22 C21 1.211 . S
C23 O15 1.284 . S
C23 O24 1.273 . S
O24 C23 1.273 . S
O25 Zn16 1.977 . S
O25 C18 1.267 . S
C26 O27 1.160 . S
C26 O33 1.185 . S
O27 C26 1.160 . S
O28 Zn29 1.899 . S
O28 C36 1.284 . S
Zn29 O28 1.899 . S
Zn29 O30 2.032 . S
Zn29 O33 2.086 . S
Zn29 O38 1.977 . S
O30 Zn29 2.032 . S
O30 C34 1.278 . S
C31 O32 1.203 . S
C31 O38 1.267 . S
O32 C31 1.203 . S
O33 C26 1.185 . S
O33 Zn29 2.086 . S
C34 O30 1.278 . S
C34 O35 1.211 . S
O35 C34 1.211 . S
C36 O28 1.284 . S
C36 O37 1.273 . S
O37 C36 1.273 . S
O38 Zn29 1.977 . S
O38 C31 1.267 . S
C39 O40 1.160 . S
C39 O46 1.185 . S
O40 C39 1.160 . S
O41 Zn42 1.899 . S
O41 C49 1.284 . S
Zn42 O41 1.899 . S
Zn42 O43 2.032 . S
Zn42 O46 2.086 . S
Zn42 O51 1.977 . S
O43 Zn42 2.032 . S
O43 C47 1.278 . S
C44 O45 1.203 1_565 S
C44 O51 1.267 . S
O45 C44 1.203 1_545 S
O46 C39 1.185 . S
O46 Zn42 2.086 . S
C47 O43 1.278 . S
C47 O48 1.211 . S
O48 C47 1.211 . S
C49 O41 1.284 . S
C49 O50 1.273 . S
O50 C49 1.273 . S
O51 Zn42 1.977 . S
O51 C44 1.267 . S
C52 O53 1.160 . S
C52 O59 1.185 . S
O53 C52 1.160 . S
O54 Zn55 1.899 . S
O54 C62 1.284 . S
Zn55 O54 1.899 . S
Zn55 O56 2.032 . S
Zn55 O59 2.086 . S
Zn55 O64 1.977 . S
O56 Zn55 2.032 . S
O56 C60 1.278 . S
C57 O58 1.203 1_455 S
C57 O64 1.267 . S
O58 C57 1.203 1_655 S
O59 C52 1.185 . S
O59 Zn55 2.086 . S
C60 O56 1.278 . S
C60 O61 1.211 . S
O61 C60 1.211 . S
C62 O54 1.284 . S
C62 O63 1.273 . S
O63 C62 1.273 . S
O64 Zn55 1.977 . S
O64 C57 1.267 . S
C65 O66 1.160 . S
C65 O72 1.185 . S
O66 C65 1.160 . S
O67 Zn68 1.899 . S
O67 C75 1.284 . S
Zn68 O67 1.899 . S
Zn68 O69 2.032 . S
Zn68 O72 2.086 . S
Zn68 O77 1.977 . S
O69 Zn68 2.032 . S
O69 C73 1.278 . S
C70 O71 1.203 . S
C70 O77 1.267 . S
O71 C70 1.203 . S
O72 C65 1.185 . S
O72 Zn68 2.086 . S
C73 O69 1.278 . S
C73 O74 1.211 . S
O74 C73 1.211 . S
C75 O67 1.284 . S
C75 O76 1.273 . S
O76 C75 1.273 . S
O77 Zn68 1.977 . S
O77 C70 1.267 . S
C78 O79 1.160 . S
C78 O85 1.185 . S
O79 C78 1.160 . S
O80 Zn81 1.899 . S
O80 C88 1.284 . S
Zn81 O80 1.899 . S
Zn81 O82 2.032 . S
Zn81 O85 2.086 . S
Zn81 O90 1.977 . S
O82 Zn81 2.032 . S
O82 C86 1.278 . S
C83 O84 1.203 . S
C83 O90 1.267 . S
O84 C83 1.203 . S
O85 C78 1.185 . S
O85 Zn81 2.086 . S
C86 O82 1.278 . S
C86 O87 1.211 . S
O87 C86 1.211 . S
C88 O80 1.284 . S
C88 O89 1.273 . S
O89 C88 1.273 . S
O90 Zn81 1.977 . S
O90 C83 1.267 . S
C91 O92 1.160 . S
C91 O98 1.185 . S
O92 C91 1.160 . S
O93 Zn94 1.899 . S
O93 C101 1.284 . S
Zn94 O93 1.899 . S
Zn94 O95 2.032 . S
Zn94 O98 2.086 . S
Zn94 O103 1.977 . S
O95 Zn94 2.032 . S
O95 C99 1.278 . S
C96 O97 1.203 1_565 S
C96 O103 1.267 . S
O97 C96 1.203 1_545 S
O98 C91 1.185 . S
O98 Zn94 2.086 . S
C99 O95 1.278 . S
C99 O100 1.211 . S
O100 C99 1.211 . S
C101 O93 1.284 . S
C101 O102 1.273 . S
O102 C101 1.273 . S
O103 Zn94 1.977 . S
O103 C96 1.267 . S
C104 O105 1.160 . S
C104 O111 1.185 . S
O105 C104 1.160 . S
O106 Zn107 1.899 . S
O106 C114 1.284 . S
Zn107 O106 1.899 . S
Zn107 O108 2.032 . S
Zn107 O111 2.086 . S
Zn107 O116 1.977 . S
O108 Zn107 2.032 . S
O108 C112 1.278 . S
C109 O110 1.203 1_545 S
C109 O116 1.267 . S
O110 C109 1.203 1_565 S
O111 C104 1.185 . S
O111 Zn107 2.086 . S
C112 O108 1.278 . S
C112 O113 1.211 . S
O113 C112 1.211 . S
C114 O106 1.284 . S
C114 O115 1.273 . S
O115 C114 1.273 . S
O116 Zn107 1.977 . S
O116 C109 1.267 . S
C117 O118 1.160 . S
C117 O124 1.185 . S
O118 C117 1.160 . S
O119 Zn120 1.899 . S
O119 C127 1.284 . S
Zn120 O119 1.899 . S
Zn120 O121 2.032 . S
Zn120 O124 2.086 . S
Zn120 O129 1.977 . S
O121 Zn120 2.032 . S
O121 C125 1.278 . S
C122 O123 1.203 1_655 S
C122 O129 1.267 . S
O123 C122 1.203 1_455 S
O124 C117 1.185 . S
O124 Zn120 2.086 . S
C125 O121 1.278 . S
C125 O126 1.211 . S
O126 C125 1.211 . S
C127 O119 1.284 . S
C127 O128 1.273 . S
O128 C127 1.273 . S
O129 Zn120 1.977 . S
O129 C122 1.267 . S
C130 O131 1.160 . S
C130 O137 1.185 . S
O131 C130 1.160 . S
O132 Zn133 1.899 . S
O132 C140 1.284 . S
Zn133 O132 1.899 . S
Zn133 O134 2.032 . S
Zn133 O137 2.086 . S
Zn133 O142 1.977 . S
O134 Zn133 2.032 . S
O134 C138 1.278 . S
C135 O136 1.203 . S
C135 O142 1.267 . S
O136 C135 1.203 . S
O137 C130 1.185 . S
O137 Zn133 2.086 . S
C138 O134 1.278 . S
C138 O139 1.211 . S
O139 C138 1.211 . S
C140 O132 1.284 . S
C140 O141 1.273 . S
O141 C140 1.273 . S
O142 Zn133 1.977 . S
O142 C135 1.267 . S
C143 O144 1.160 . S
C143 O150 1.185 . S
O144 C143 1.160 . S
O145 Zn146 1.899 . S
O145 C153 1.284 . S
Zn146 O145 1.899 . S
Zn146 O147 2.032 . S
Zn146 O150 2.086 . S
Zn146 O155 1.977 . S
O147 Zn146 2.032 . S
O147 C151 1.278 . S
C148 O149 1.203 . S
C148 O155 1.267 . S
O149 C148 1.203 . S
O150 C143 1.185 . S
O150 Zn146 2.086 . S
C151 O147 1.278 . S
C151 O152 1.211 . S
O152 C151 1.211 . S
C153 O145 1.284 . S
C153 O154 1.273 . S
O154 C153 1.273 . S
O155 Zn146 1.977 . S
O155 C148 1.267 . S
C156 O157 1.160 . S
C156 O163 1.185 . S
O157 C156 1.160 . S
O158 Zn159 1.899 . S
O158 C166 1.284 . S
Zn159 O158 1.899 . S
Zn159 O160 2.032 . S
Zn159 O163 2.086 . S
Zn159 O168 1.977 . S
O160 Zn159 2.032 . S
O160 C164 1.278 . S
C161 O162 1.203 . S
C161 O168 1.267 . S
O162 C161 1.203 . S
O163 C156 1.185 . S
O163 Zn159 2.086 . S
C164 O160 1.278 . S
C164 O165 1.211 . S
O165 C164 1.211 . S
C166 O158 1.284 . S
C166 O167 1.273 . S
O167 C166 1.273 . S
O168 Zn159 1.977 . S
O168 C161 1.267 . S
C169 O170 1.160 . S
C169 O176 1.185 . S
O170 C169 1.160 . S
O171 Zn172 1.899 . S
O171 C179 1.284 . S
Zn172 O171 1.899 . S
Zn172 O173 2.032 . S
Zn172 O176 2.086 . S
Zn172 O181 1.977 . S
O173 Zn172 2.032 . S
O173 C177 1.278 . S
C174 O175 1.203 . S
C174 O181 1.267 . S
O175 C174 1.203 . S
O176 C169 1.185 . S
O176 Zn172 2.086 . S
C177 O173 1.278 . S
C177 O178 1.211 . S
O178 C177 1.211 . S
C179 O171 1.284 . S
C179 O180 1.273 . S
O180 C179 1.273 . S
O181 Zn172 1.977 . S
O181 C174 1.267 . S
C182 O183 1.160 . S
C182 O189 1.185 . S
O183 C182 1.160 . S
O184 Zn185 1.899 . S
O184 C192 1.284 . S
Zn185 O184 1.899 . S
Zn185 O186 2.032 . S
Zn185 O189 2.086 . S
Zn185 O194 1.977 . S
O186 Zn185 2.032 . S
O186 C190 1.278 . S
C187 O188 1.203 1_545 S
C187 O194 1.267 . S
O188 C187 1.203 1_565 S
O189 C182 1.185 . S
O189 Zn185 2.086 . S
C190 O186 1.278 . S
C190 O191 1.211 . S
O191 C190 1.211 . S
C192 O184 1.284 . S
C192 O193 1.273 . S
O193 C192 1.273 . S
O194 Zn185 1.977 . S
O194 C187 1.267 . S
C195 O196 1.160 . S
C195 O202 1.185 . S
O196 C195 1.160 . S
O197 Zn198 1.899 . S
O197 C205 1.284 . S
Zn198 O197 1.899 . S
Zn198 O199 2.032 . S
Zn198 O202 2.086 . S
Zn198 O207 1.977 . S
O199 Zn198 2.032 . S
O199 C203 1.278 . S
C200 O201 1.203 1_655 S
C200 O207 1.267 . S
O201 C200 1.203 1_455 S
O202 C195 1.185 . S
O202 Zn198 2.086 . S
C203 O199 1.278 . S
C203 O204 1.211 . S
O204 C203 1.211 . S
C205 O197 1.284 . S
C205 O206 1.273 . S
O206 C205 1.273 . S
O207 Zn198 1.977 . S
O207 C200 1.267 . S
C208 O209 1.160 . S
C208 O215 1.185 . S
O209 C208 1.160 . S
O210 Zn211 1.899 . S
O210 C218 1.284 . S
Zn211 O210 1.899 . S
Zn211 O212 2.032 . S
Zn211 O215 2.086 . S
Zn211 O220 1.977 . S
O212 Zn211 2.032 . S
O212 C216 1.278 . S
C213 O214 1.203 1_554 S
C213 O220 1.267 . S
O214 C213 1.203 1_556 S
O215 C208 1.185 . S
O215 Zn211 2.086 . S
C216 O212 1.278 . S
C216 O217 1.211 . S
O217 C216 1.211 . S
C218 O210 1.284 . S
C218 O219 1.273 . S
O219 C218 1.273 . S
O220 Zn211 1.977 . S
O220 C213 1.267 . S
C221 O222 1.160 . S
C221 O228 1.185 . S
O222 C221 1.160 . S
O223 Zn224 1.899 . S
O223 C231 1.284 . S
Zn224 O223 1.899 . S
Zn224 O225 2.032 . S
Zn224 O228 2.086 . S
Zn224 O233 1.977 . S
O225 Zn224 2.032 . S
O225 C229 1.278 . S
C226 O227 1.203 . S
C226 O233 1.267 . S
O227 C226 1.203 . S
O228 C221 1.185 . S
O228 Zn224 2.086 . S
C229 O225 1.278 . S
C229 O230 1.211 . S
O230 C229 1.211 . S
C231 O223 1.284 . S
C231 O232 1.273 . S
O232 C231 1.273 . S
O233 Zn224 1.977 . S
O233 C226 1.267 . S
C234 O235 1.160 . S
C234 O241 1.185 . S
O235 C234 1.160 . S
O236 Zn237 1.899 . S
O236 C244 1.284 . S
Zn237 O236 1.899 . S
Zn237 O238 2.032 . S
Zn237 O241 2.086 . S
Zn237 O246 1.977 . S
O238 Zn237 2.032 . S
O238 C242 1.278 . S
C239 O240 1.203 . S
C239 O246 1.267 . S
O240 C239 1.203 . S
O241 C234 1.185 . S
O241 Zn237 2.086 . S
C242 O238 1.278 . S
C242 O243 1.211 . S
O243 C242 1.211 . S
C244 O236 1.284 . S
C244 O245 1.273 . S
O245 C244 1.273 . S
O246 Zn237 1.977 . S
O246 C239 1.267 . S
C247 O248 1.160 . S
C247 O254 1.185 . S
O248 C247 1.160 . S
O249 Zn250 1.899 . S
O249 C257 1.284 . S
Zn250 O249 1.899 . S
Zn250 O251 2.032 . S
Zn250 O254 2.086 . S
Zn250 O259 1.977 . S
O251 Zn250 2.032 . S
O251 C255 1.278 . S
C252 O253 1.203 . S
C252 O259 1.267 . S
O253 C252 1.203 . S
O254 C247 1.185 . S
O254 Zn250 2.086 . S
C255 O251 1.278 . S
C255 O256 1.211 . S
O256 C255 1.211 . S
C257 O249 1.284 . S
C257 O258 1.273 . S
O258 C257 1.273 . S
O259 Zn250 1.977 . S
O259 C252 1.267 . S
C260 O261 1.160 . S
C260 O267 1.185 . S
O261 C260 1.160 . S
O262 Zn263 1.899 . S
O262 C270 1.284 . S
Zn263 O262 1.899 . S
Zn263 O264 2.032 . S
Zn263 O267 2.086 . S
Zn263 O272 1.977 . S
O264 Zn263 2.032 . S
O264 C268 1.278 . S
C265 O266 1.203 . S
C265 O272 1.267 . S
O266 C265 1.203 . S
O267 C260 1.185 . S
O267 Zn263 2.086 . S
C268 O264 1.278 . S
C268 O269 1.211 . S
O269 C268 1.211 . S
C270 O262 1.284 . S
C270 O271 1.273 . S
O271 C270 1.273 . S
O272 Zn263 1.977 . S
O272 C265 1.267 . S
C273 O274 1.160 . S
C273 O280 1.185 . S
O274 C273 1.160 . S
O275 Zn276 1.899 . S
O275 C283 1.284 . S
Zn276 O275 1.899 . S
Zn276 O277 2.032 . S
Zn276 O280 2.086 . S
Zn276 O285 1.977 . S
O277 Zn276 2.032 . S
O277 C281 1.278 . S
C278 O279 1.203 1_554 S
C278 O285 1.267 . S
O279 C278 1.203 1_556 S
O280 C273 1.185 . S
O280 Zn276 2.086 . S
C281 O277 1.278 . S
C281 O282 1.211 . S
O282 C281 1.211 . S
C283 O275 1.284 . S
C283 O284 1.273 . S
O284 C283 1.273 . S
O285 Zn276 1.977 . S
O285 C278 1.267 . S
C286 O287 1.160 . S
C286 O293 1.185 . S
O287 C286 1.160 . S
O288 Zn289 1.899 . S
O288 C296 1.284 . S
Zn289 O288 1.899 . S
Zn289 O290 2.032 . S
Zn289 O293 2.086 . S
Zn289 O298 1.977 . S
O290 Zn289 2.032 . S
O290 C294 1.278 . S
C291 O292 1.203 . S
C291 O298 1.267 . S
O292 C291 1.203 . S
O293 C286 1.185 . S
O293 Zn289 2.086 . S
C294 O290 1.278 . S
C294 O295 1.211 . S
O295 C294 1.211 . S
C296 O288 1.284 . S
C296 O297 1.273 . S
O297 C296 1.273 . S
O298 Zn289 1.977 . S
O298 C291 1.267 . S
C299 O300 1.160 . S
C299 O306 1.185 . S
O300 C299 1.160 . S
O301 Zn302 1.899 . S
O301 C309 1.284 . S
Zn302 O301 1.899 . S
Zn302 O303 2.032 . S
Zn302 O306 2.086 . S
Zn302 O311 1.977 . S
O303 Zn302 2.032 . S
O303 C307 1.278 . S
C304 O305 1.203 . S
C304 O311 1.267 . S
O305 C304 1.203 . S
O306 C299 1.185 . S
O306 Zn302 2.086 . S
C307 O303 1.278 . S
C307 O308 1.211 . S
O308 C307 1.211 . S
C309 O301 1.284 . S
C309 O310 1.273 . S
O310 C309 1.273 . S
O311 Zn302 1.977 . S
O311 C304 1.267 . S
C312 O313 1.160 . S
C312 O319 1.185 . S
O313 C312 1.160 . S
O314 Zn315 1.899 . S
O314 C322 1.284 . S
Zn315 O314 1.899 . S
Zn315 O316 2.032 . S
Zn315 O319 2.086 . S
Zn315 O324 1.977 . S
O316 Zn315 2.032 . S
O316 C320 1.278 . S
C317 O318 1.203 1_655 S
C317 O324 1.267 . S
O318 C317 1.203 1_455 S
O319 C312 1.185 . S
O319 Zn315 2.086 . S
C320 O316 1.278 . S
C320 O321 1.211 . S
O321 C320 1.211 . S
C322 O314 1.284 . S
C322 O323 1.273 . S
O323 C322 1.273 . S
O324 Zn315 1.977 . S
O324 C317 1.267 . S
C325 O326 1.160 . S
C325 O332 1.185 . S
O326 C325 1.160 . S
O327 Zn328 1.899 . S
O327 C335 1.284 . S
Zn328 O327 1.899 . S
Zn328 O329 2.032 . S
Zn328 O332 2.086 . S
Zn328 O337 1.977 . S
O329 Zn328 2.032 . S
O329 C333 1.278 . S
C330 O331 1.203 . S
C330 O337 1.267 . S
O331 C330 1.203 . S
O332 C325 1.185 . S
O332 Zn328 2.086 . S
C333 O329 1.278 . S
C333 O334 1.211 . S
O334 C333 1.211 . S
C335 O327 1.284 . S
C335 O336 1.273 . S
O336 C335 1.273 . S
O337 Zn328 1.977 . S
O337 C330 1.267 . S
C338 O339 1.160 . S
C338 O345 1.185 . S
O339 C338 1.160 . S
O340 Zn341 1.899 . S
O340 C348 1.284 . S
Zn341 O340 1.899 . S
Zn341 O342 2.032 . S
Zn341 O345 2.086 . S
Zn341 O350 1.977 . S
O342 Zn341 2.032 . S
O342 C346 1.278 . S
C343 O344 1.203 . S
C343 O350 1.267 . S
O344 C343 1.203 . S
O345 C338 1.185 . S
O345 Zn341 2.086 . S
C346 O342 1.278 . S
C346 O347 1.211 . S
O347 C346 1.211 . S
C348 O340 1.284 . S
C348 O349 1.273 . S
O349 C348 1.273 . S
O350 Zn341 1.977 . S
O350 C343 1.267 . S
C351 O352 1.160 . S
C351 O358 1.185 . S
O352 C351 1.160 . S
O353 Zn354 1.899 . S
O353 C361 1.284 . S
Zn354 O353 1.899 . S
Zn354 O355 2.032 . S
Zn354 O358 2.086 . S
Zn354 O363 1.977 . S
O355 Zn354 2.032 . S
O355 C359 1.278 . S
C356 O357 1.203 1_545 S
C356 O363 1.267 . S
O357 C356 1.203 1_565 S
O358 C351 1.185 . S
O358 Zn354 2.086 . S
C359 O355 1.278 . S
C359 O360 1.211 . S
O360 C359 1.211 . S
C361 O353 1.284 . S
C361 O362 1.273 . S
O362 C361 1.273 . S
O363 Zn354 1.977 . S
O363 C356 1.267 . S
C364 O365 1.160 . S
C364 O371 1.185 . S
O365 C364 1.160 . S
O366 Zn367 1.899 . S
O366 C374 1.284 . S
Zn367 O366 1.899 . S
Zn367 O368 2.032 . S
Zn367 O371 2.086 . S
Zn367 O376 1.977 . S
O368 Zn367 2.032 . S
O368 C372 1.278 . S
C369 O370 1.203 1_655 S
C369 O376 1.267 . S
O370 C369 1.203 1_455 S
O371 C364 1.185 . S
O371 Zn367 2.086 . S
C372 O368 1.278 . S
C372 O373 1.211 . S
O373 C372 1.211 . S
C374 O366 1.284 . S
C374 O375 1.273 . S
O375 C374 1.273 . S
O376 Zn367 1.977 . S
O376 C369 1.267 . S
C377 O378 1.160 . S
C377 O384 1.185 . S
O378 C377 1.160 . S
O379 Zn380 1.899 . S
O379 C387 1.284 . S
Zn380 O379 1.899 . S
Zn380 O381 2.032 . S
Zn380 O384 2.086 . S
Zn380 O389 1.977 . S
O381 Zn380 2.032 . S
O381 C385 1.278 . S
C382 O383 1.203 . S
C382 O389 1.267 . S
O383 C382 1.203 . S
O384 C377 1.185 . S
O384 Zn380 2.086 . S
C385 O381 1.278 . S
C385 O386 1.211 . S
O386 C385 1.211 . S
C387 O379 1.284 . S
C387 O388 1.273 . S
O388 C387 1.273 . S
O389 Zn380 1.977 . S
O389 C382 1.267 . S
C390 O391 1.160 . S
C390 O397 1.185 . S
O391 C390 1.160 . S
O392 Zn393 1.899 . S
O392 C400 1.284 . S
Zn393 O392 1.899 . S
Zn393 O394 2.032 . S
Zn393 O397 2.086 . S
Zn393 O402 1.977 . S
O394 Zn393 2.032 . S
O394 C398 1.278 . S
C395 O396 1.203 . S
C395 O402 1.267 . S
O396 C395 1.203 . S
O397 C390 1.185 . S
O397 Zn393 2.086 . S
C398 O394 1.278 . S
C398 O399 1.211 . S
O399 C398 1.211 . S
C400 O392 1.284 . S
C400 O401 1.273 . S
O401 C400 1.273 . S
O402 Zn393 1.977 . S
O402 C395 1.267 . S
C403 O404 1.160 . S
C403 O410 1.185 . S
O404 C403 1.160 . S
O405 Zn406 1.899 . S
O405 C413 1.284 . S
Zn406 O405 1.899 . S
Zn406 O407 2.032 . S
Zn406 O410 2.086 . S
Zn406 O415 1.977 . S
O407 Zn406 2.032 . S
O407 C411 1.278 . S
C408 O409 1.203 1_545 S
C408 O415 1.267 . S
O409 C408 1.203 1_565 S
O410 C403 1.185 . S
O410 Zn406 2.086 . S
C411 O407 1.278 . S
C411 O412 1.211 . S
O412 C411 1.211 . S
C413 O405 1.284 . S
C413 O414 1.273 . S
O414 C413 1.273 . S
O415 Zn406 1.977 . S
O415 C408 1.267 . S
C416 O417 1.160 . S
C416 O423 1.185 . S
O417 C416 1.160 . S
O418 Zn419 1.899 . S
O418 C426 1.284 . S
Zn419 O418 1.899 . S
Zn419 O420 2.032 . S
Zn419 O423 2.086 . S
Zn419 O428 1.977 . S
O420 Zn419 2.032 . S
O420 C424 1.278 . S
C421 O422 1.203 1_565 S
C421 O428 1.267 . S
O422 C421 1.203 1_545 S
O423 C416 1.185 . S
O423 Zn419 2.086 . S
C424 O420 1.278 . S
C424 O425 1.211 . S
O425 C424 1.211 . S
C426 O418 1.284 . S
C426 O427 1.273 . S
O427 C426 1.273 . S
O428 Zn419 1.977 . S
O428 C421 1.267 . S
C429 O430 1.160 . S
C429 O436 1.185 . S
O430 C429 1.160 . S
O431 Zn432 1.899 . S
O431 C439 1.284 . S
Zn432 O431 1.899 . S
Zn432 O433 2.032 . S
Zn432 O436 2.086 . S
Zn432 O441 1.977 . S
O433 Zn432 2.032 . S
O433 C437 1.278 . S
C434 O435 1.203 1_455 S
C434 O441 1.267 . S
O435 C434 1.203 1_655 S
O436 C429 1.185 . S
O436 Zn432 2.086 . S
C437 O433 1.278 . S
C437 O438 1.211 . S
O438 C437 1.211 . S
C439 O431 1.284 . S
C439 O440 1.273 . S
O440 C439 1.273 . S
O441 Zn432 1.977 . S
O441 C434 1.267 . S
C442 O443 1.160 . S
C442 O449 1.185 . S
O443 C442 1.160 . S
O444 Zn445 1.899 . S
O444 C452 1.284 . S
Zn445 O444 1.899 . S
Zn445 O446 2.032 . S
Zn445 O449 2.086 . S
Zn445 O454 1.977 . S
O446 Zn445 2.032 . S
O446 C450 1.278 . S
C447 O448 1.203 . S
C447 O454 1.267 . S
O448 C447 1.203 . S
O449 C442 1.185 . S
O449 Zn445 2.086 . S
C450 O446 1.278 . S
C450 O451 1.211 . S
O451 C450 1.211 . S
C452 O444 1.284 . S
C452 O453 1.273 . S
O453 C452 1.273 . S
O454 Zn445 1.977 . S
O454 C447 1.267 . S
C455 O456 1.160 . S
C455 O462 1.185 . S
O456 C455 1.160 . S
O457 Zn458 1.899 . S
O457 C465 1.284 . S
Zn458 O457 1.899 . S
Zn458 O459 2.032 . S
Zn458 O462 2.086 . S
Zn458 O467 1.977 . S
O459 Zn458 2.032 . S
O459 C463 1.278 . S
C460 O461 1.203 . S
C460 O467 1.267 . S
O461 C460 1.203 . S
O462 C455 1.185 . S
O462 Zn458 2.086 . S
C463 O459 1.278 . S
C463 O464 1.211 . S
O464 C463 1.211 . S
C465 O457 1.284 . S
C465 O466 1.273 . S
O466 C465 1.273 . S
O467 Zn458 1.977 . S
O467 C460 1.267 . S
C468 O469 1.160 . S
C468 O475 1.185 . S
O469 C468 1.160 . S
O470 Zn471 1.899 . S
O470 C478 1.284 . S
Zn471 O470 1.899 . S
Zn471 O472 2.032 . S
Zn471 O475 2.086 . S
Zn471 O480 1.977 . S
O472 Zn471 2.032 . S
O472 C476 1.278 . S
C473 O474 1.203 . S
C473 O480 1.267 . S
O474 C473 1.203 . S
O475 C468 1.185 . S
O475 Zn471 2.086 . S
C476 O472 1.278 . S
C476 O477 1.211 . S
O477 C476 1.211 . S
C478 O470 1.284 . S
C478 O479 1.273 . S
O479 C478 1.273 . S
O480 Zn471 1.977 . S
O480 C473 1.267 . S
C481 O482 1.160 . S
C481 O488 1.185 . S
O482 C481 1.160 . S
O483 Zn484 1.899 . S
O483 C491 1.284 . S
Zn484 O483 1.899 . S
Zn484 O485 2.032 . S
Zn484 O488 2.086 . S
Zn484 O493 1.977 . S
O485 Zn484 2.032 . S
O485 C489 1.278 . S
C486 O487 1.203 . S
C486 O493 1.267 . S
O487 C486 1.203 . S
O488 C481 1.185 . S
O488 Zn484 2.086 . S
C489 O485 1.278 . S
C489 O490 1.211 . S
O490 C489 1.211 . S
C491 O483 1.284 . S
C491 O492 1.273 . S
O492 C491 1.273 . S
O493 Zn484 1.977 . S
O493 C486 1.267 . S
C494 O495 1.160 . S
C494 O501 1.185 . S
O495 C494 1.160 . S
O496 Zn497 1.899 . S
O496 C504 1.284 . S
Zn497 O496 1.899 . S
Zn497 O498 2.032 . S
Zn497 O501 2.086 . S
Zn497 O506 1.977 . S
O498 Zn497 2.032 . S
O498 C502 1.278 . S
C499 O500 1.203 1_565 S
C499 O506 1.267 . S
O500 C499 1.203 1_545 S
O501 C494 1.185 . S
O501 Zn497 2.086 . S
C502 O498 1.278 . S
C502 O503 1.211 . S
O503 C502 1.211 . S
C504 O496 1.284 . S
C504 O505 1.273 . S
O505 C504 1.273 . S
O506 Zn497 1.977 . S
O506 C499 1.267 . S
C507 O508 1.160 . S
C507 O514 1.185 . S
O508 C507 1.160 . S
O509 Zn510 1.899 . S
O509 C517 1.284 . S
Zn510 O509 1.899 . S
Zn510 O511 2.032 . S
Zn510 O514 2.086 . S
Zn510 O519 1.977 . S
O511 Zn510 2.032 . S
O511 C515 1.278 . S
C512 O513 1.203 1_455 S
C512 O519 1.267 . S
O513 C512 1.203 1_655 S
O514 C507 1.185 . S
O514 Zn510 2.086 . S
C515 O511 1.278 . S
C515 O516 1.211 . S
O516 C515 1.211 . S
C517 O509 1.284 . S
C517 O518 1.273 . S
O518 C517 1.273 . S
O519 Zn510 1.977 . S
O519 C512 1.267 . S
C520 O521 1.160 . S
C520 O527 1.185 . S
O521 C520 1.160 . S
O522 Zn523 1.899 . S
O522 C530 1.284 . S
Zn523 O522 1.899 . S
Zn523 O524 2.032 . S
Zn523 O527 2.086 . S
Zn523 O532 1.977 . S
O524 Zn523 2.032 . S
O524 C528 1.278 . S
C525 O526 1.203 1_556 S
C525 O532 1.267 . S
O526 C525 1.203 1_554 S
O527 C520 1.185 . S
O527 Zn523 2.086 . S
C528 O524 1.278 . S
C528 O529 1.211 . S
O529 C528 1.211 . S
C530 O522 1.284 . S
C530 O531 1.273 . S
O531 C530 1.273 . S
O532 Zn523 1.977 . S
O532 C525 1.267 . S
C533 O534 1.160 . S
C533 O540 1.185 . S
O534 C533 1.160 . S
O535 Zn536 1.899 . S
O535 C543 1.284 . S
Zn536 O535 1.899 . S
Zn536 O537 2.032 . S
Zn536 O540 2.086 . S
Zn536 O545 1.977 . S
O537 Zn536 2.032 . S
O537 C541 1.278 . S
C538 O539 1.203 . S
C538 O545 1.267 . S
O539 C538 1.203 . S
O540 C533 1.185 . S
O540 Zn536 2.086 . S
C541 O537 1.278 . S
C541 O542 1.211 . S
O542 C541 1.211 . S
C543 O535 1.284 . S
C543 O544 1.273 . S
O544 C543 1.273 . S
O545 Zn536 1.977 . S
O545 C538 1.267 . S
C546 O547 1.160 . S
C546 O553 1.185 . S
O547 C546 1.160 . S
O548 Zn549 1.899 . S
O548 C556 1.284 . S
Zn549 O548 1.899 . S
Zn549 O550 2.032 . S
Zn549 O553 2.086 . S
Zn549 O558 1.977 . S
O550 Zn549 2.032 . S
O550 C554 1.278 . S
C551 O552 1.203 . S
C551 O558 1.267 . S
O552 C551 1.203 . S
O553 C546 1.185 . S
O553 Zn549 2.086 . S
C554 O550 1.278 . S
C554 O555 1.211 . S
O555 C554 1.211 . S
C556 O548 1.284 . S
C556 O557 1.273 . S
O557 C556 1.273 . S
O558 Zn549 1.977 . S
O558 C551 1.267 . S
C559 O560 1.160 . S
C559 O566 1.185 . S
O560 C559 1.160 . S
O561 Zn562 1.899 . S
O561 C569 1.284 . S
Zn562 O561 1.899 . S
Zn562 O563 2.032 . S
Zn562 O566 2.086 . S
Zn562 O571 1.977 . S
O563 Zn562 2.032 . S
O563 C567 1.278 . S
C564 O565 1.203 . S
C564 O571 1.267 . S
O565 C564 1.203 . S
O566 C559 1.185 . S
O566 Zn562 2.086 . S
C567 O563 1.278 . S
C567 O568 1.211 . S
O568 C567 1.211 . S
C569 O561 1.284 . S
C569 O570 1.273 . S
O570 C569 1.273 . S
O571 Zn562 1.977 . S
O571 C564 1.267 . S
C572 O573 1.160 . S
C572 O579 1.185 . S
O573 C572 1.160 . S
O574 Zn575 1.899 . S
O574 C582 1.284 . S
Zn575 O574 1.899 . S
Zn575 O576 2.032 . S
Zn575 O579 2.086 . S
Zn575 O584 1.977 . S
O576 Zn575 2.032 . S
O576 C580 1.278 . S
C577 O578 1.203 . S
C577 O584 1.267 . S
O578 C577 1.203 . S
O579 C572 1.185 . S
O579 Zn575 2.086 . S
C580 O576 1.278 . S
C580 O581 1.211 . S
O581 C580 1.211 . S
C582 O574 1.284 . S
C582 O583 1.273 . S
O583 C582 1.273 . S
O584 Zn575 1.977 . S
O584 C577 1.267 . S
C585 O586 1.160 . S
C585 O592 1.185 . S
O586 C585 1.160 . S
O587 Zn588 1.899 . S
O587 C595 1.284 . S
Zn588 O587 1.899 . S
Zn588 O589 2.032 . S
Zn588 O592 2.086 . S
Zn588 O597 1.977 . S
O589 Zn588 2.032 . S
O589 C593 1.278 . S
C590 O591 1.203 1_556 S
C590 O597 1.267 . S
O591 C590 1.203 1_554 S
O592 C585 1.185 . S
O592 Zn588 2.086 . S
C593 O589 1.278 . S
C593 O594 1.211 . S
O594 C593 1.211 . S
C595 O587 1.284 . S
C595 O596 1.273 . S
O596 C595 1.273 . S
O597 Zn588 1.977 . S
O597 C590 1.267 . S
C598 O599 1.160 . S
C598 O605 1.185 . S
O599 C598 1.160 . S
O600 Zn601 1.899 . S
O600 C608 1.284 . S
Zn601 O600 1.899 . S
Zn601 O602 2.032 . S
Zn601 O605 2.086 . S
Zn601 O610 1.977 . S
O602 Zn601 2.032 . S
O602 C606 1.278 . S
C603 O604 1.203 . S
C603 O610 1.267 . S
O604 C603 1.203 . S
O605 C598 1.185 . S
O605 Zn601 2.086 . S
C606 O602 1.278 . S
C606 O607 1.211 . S
O607 C606 1.211 . S
C608 O600 1.284 . S
C608 O609 1.273 . S
O609 C608 1.273 . S
O610 Zn601 1.977 . S
O610 C603 1.267 . S
C611 O612 1.160 . S
C611 O618 1.185 . S
O612 C611 1.160 . S
O613 Zn614 1.899 . S
O613 C621 1.284 . S
Zn614 O613 1.899 . S
Zn614 O615 2.032 . S
Zn614 O618 2.086 . S
Zn614 O623 1.977 . S
O615 Zn614 2.032 . S
O615 C619 1.278 . S
C616 O617 1.203 . S
C616 O623 1.267 . S
O617 C616 1.203 . S
O618 C611 1.185 . S
O618 Zn614 2.086 . S
C619 O615 1.278 . S
C619 O620 1.211 . S
O620 C619 1.211 . S
C621 O613 1.284 . S
C621 O622 1.273 . S
O622 C621 1.273 . S
O623 Zn614 1.977 . S
O623 C616 1.267 . S
C624 O625 1.160 . S
C624 O631 1.185 . S
O625 C624 1.160 . S
O626 Zn627 1.899 . S
O626 C634 1.284 . S
Zn627 O626 1.899 . S
Zn627 O628 2.032 . S
Zn627 O631 2.086 . S
Zn627 O636 1.977 . S
O628 Zn627 2.032 . S
O628 C632 1.278 . S
C629 O630 1.203 1_455 S
C629 O636 1.267 . S
O630 C629 1.203 1_655 S
O631 C624 1.185 . S
O631 Zn627 2.086 . S
C632 O628 1.278 . S
C632 O633 1.211 . S
O633 C632 1.211 . S
C634 O626 1.284 . S
C634 O635 1.273 . S
O635 C634 1.273 . S
O636 Zn627 1.977 . S
O636 C629 1.267 . S
C637 O638 1.160 . S
C637 O644 1.185 . S
O638 C637 1.160 . S
O639 Zn640 1.899 . S
O639 C647 1.284 . S
Zn640 O639 1.899 . S
Zn640 O641 2.032 . S
Zn640 O644 2.086 . S
Zn640 O649 1.977 . S
O641 Zn640 2.032 . S
O641 C645 1.278 . S
C642 O643 1.203 . S
C642 O649 1.267 . S
O643 C642 1.203 . S
O644 C637 1.185 . S
O644 Zn640 2.086 . S
C645 O641 1.278 . S
C645 O646 1.211 . S
O646 C645 1.211 . S
C647 O639 1.284 . S
C647 O648 1.273 . S
O648 C647 1.273 . S
O649 Zn640 1.977 . S
O649 C642 1.267 . S
C650 O651 1.160 . S
C650 O657 1.185 . S
O651 C650 1.160 . S
O652 Zn653 1.899 . S
O652 C660 1.284 . S
Zn653 O652 1.899 . S
Zn653 O654 2.032 . S
Zn653 O657 2.086 . S
Zn653 O662 1.977 . S
O654 Zn653 2.032 . S
O654 C658 1.278 . S
C655 O656 1.203 . S
C655 O662 1.267 . S
O656 C655 1.203 . S
O657 C650 1.185 . S
O657 Zn653 2.086 . S
C658 O654 1.278 . S
C658 O659 1.211 . S
O659 C658 1.211 . S
C660 O652 1.284 . S
C660 O661 1.273 . S
O661 C660 1.273 . S
O662 Zn653 1.977 . S
O662 C655 1.267 . S
C663 O664 1.160 . S
C663 O670 1.185 . S
O664 C663 1.160 . S
O665 Zn666 1.899 . S
O665 C673 1.284 . S
Zn666 O665 1.899 . S
Zn666 O667 2.032 . S
Zn666 O670 2.086 . S
Zn666 O675 1.977 . S
O667 Zn666 2.032 . S
O667 C671 1.278 . S
C668 O669 1.203 . S
C668 O675 1.267 . S
O669 C668 1.203 . S
O670 C663 1.185 . S
O670 Zn666 2.086 . S
C671 O667 1.278 . S
C671 O672 1.211 . S
O672 C671 1.211 . S
C673 O665 1.284 . S
C673 O674 1.273 . S
O674 C673 1.273 . S
O675 Zn666 1.977 . S
O675 C668 1.267 . S
C676 O677 1.160 . S
C676 O683 1.185 . S
O677 C676 1.160 . S
O678 Zn679 1.899 . S
O678 C686 1.284 . S
Zn679 O678 1.899 . S
Zn679 O680 2.032 . S
Zn679 O683 2.086 . S
Zn679 O688 1.977 . S
O680 Zn679 2.032 . S
O680 C684 1.278 . S
C681 O682 1.203 1_455 S
C681 O688 1.267 . S
O682 C681 1.203 1_655 S
O683 C676 1.185 . S
O683 Zn679 2.086 . S
C684 O680 1.278 . S
C684 O685 1.211 . S
O685 C684 1.211 . S
C686 O678 1.284 . S
C686 O687 1.273 . S
O687 C686 1.273 . S
O688 Zn679 1.977 . S
O688 C681 1.267 . S
C689 O690 1.160 . S
C689 O696 1.185 . S
O690 C689 1.160 . S
O691 Zn692 1.899 . S
O691 C699 1.284 . S
Zn692 O691 1.899 . S
Zn692 O693 2.032 . S
Zn692 O696 2.086 . S
Zn692 O701 1.977 . S
O693 Zn692 2.032 . S
O693 C697 1.278 . S
C694 O695 1.203 . S
C694 O701 1.267 . S
O695 C694 1.203 . S
O696 C689 1.185 . S
O696 Zn692 2.086 . S
C697 O693 1.278 . S
C697 O698 1.211 . S
O698 C697 1.211 . S
C699 O691 1.284 . S
C699 O700 1.273 . S
O700 C699 1.273 . S
O701 Zn692 1.977 . S
O701 C694 1.267 . S
C702 O703 1.160 . S
C702 O709 1.185 . S
O703 C702 1.160 . S
O704 Zn705 1.899 . S
O704 C712 1.284 . S
Zn705 O704 1.899 . S
Zn705 O706 2.032 . S
Zn705 O709 2.086 . S
Zn705 O714 1.977 . S
O706 Zn705 2.032 . S
O706 C710 1.278 . S
C707 O708 1.203 . S
C707 O714 1.267 . S
O708 C707 1.203 . S
O709 C702 1.185 . S
O709 Zn705 2.086 . S
C710 O706 1.278 . S
C710 O711 1.211 . S
O711 C710 1.211 . S
C712 O704 1.284 . S
C712 O713 1.273 . S
O713 C712 1.273 . S
O714 Zn705 1.977 . S
O714 C707 1.267 . S
C715 O716 1.160 . S
C715 O722 1.185 . S
O716 C715 1.160 . S
O717 Zn718 1.899 . S
O717 C725 1.284 . S
Zn718 O717 1.899 . S
Zn718 O719 2.032 . S
Zn718 O722 2.086 . S
Zn718 O727 1.977 . S
O719 Zn718 2.032 . S
O719 C723 1.278 . S
C720 O721 1.203 . S
C720 O727 1.267 . S
O721 C720 1.203 . S
O722 C715 1.185 . S
O722 Zn718 2.086 . S
C723 O719 1.278 . S
C723 O724 1.211 . S
O724 C723 1.211 . S
C725 O717 1.284 . S
C725 O726 1.273 . S
O726 C725 1.273 . S
O727 Zn718 1.977 . S
O727 C720 1.267 . S
C728 O729 1.160 . S
C728 O735 1.185 . S
O729 C728 1.160 . S
O730 Zn731 1.899 . S
O730 C738 1.284 . S
Zn731 O730 1.899 . S
Zn731 O732 2.032 . S
Zn731 O735 2.086 . S
Zn731 O740 1.977 . S
O732 Zn731 2.032 . S
O732 C736 1.278 . S
C733 O734 1.203 . S
C733 O740 1.267 . S
O734 C733 1.203 . S
O735 C728 1.185 . S
O735 Zn731 2.086 . S
C736 O732 1.278 . S
C736 O737 1.211 . S
O737 C736 1.211 . S
C738 O730 1.284 . S
C738 O739 1.273 . S
O739 C738 1.273 . S
O740 Zn731 1.977 . S
O740 C733 1.267 . S
C741 O742 1.160 . S
C741 O748 1.185 . S
O742 C741 1.160 . S
O743 Zn744 1.899 . S
O743 C751 1.284 . S
Zn744 O743 1.899 . S
Zn744 O745 2.032 . S
Zn744 O748 2.086 . S
Zn744 O753 1.977 . S
O745 Zn744 2.032 . S
O745 C749 1.278 . S
C746 O747 1.203 1_655 S
C746 O753 1.267 . S
O747 C746 1.203 1_455 S
O748 C741 1.185 . S
O748 Zn744 2.086 . S
C749 O745 1.278 . S
C749 O750 1.211 . S
O750 C749 1.211 . S
C751 O743 1.284 . S
C751 O752 1.273 . S
O752 C751 1.273 . S
O753 Zn744 1.977 . S
O753 C746 1.267 . S
C754 O755 1.160 . S
C754 O761 1.185 . S
O755 C754 1.160 . S
O756 Zn757 1.899 . S
O756 C764 1.284 . S
Zn757 O756 1.899 . S
Zn757 O758 2.032 . S
Zn757 O761 2.086 . S
Zn757 O766 1.977 . S
O758 Zn757 2.032 . S
O758 C762 1.278 . S
C759 O760 1.203 . S
C759 O766 1.267 . S
O760 C759 1.203 . S
O761 C754 1.185 . S
O761 Zn757 2.086 . S
C762 O758 1.278 . S
C762 O763 1.211 . S
O763 C762 1.211 . S
C764 O756 1.284 . S
C764 O765 1.273 . S
O765 C764 1.273 . S
O766 Zn757 1.977 . S
O766 C759 1.267 . S
C767 O768 1.160 . S
C767 O774 1.185 . S
O768 C767 1.160 . S
O769 Zn770 1.899 . S
O769 C777 1.284 . S
Zn770 O769 1.899 . S
Zn770 O771 2.032 . S
Zn770 O774 2.086 . S
Zn770 O779 1.977 . S
O771 Zn770 2.032 . S
O771 C775 1.278 . S
C772 O773 1.203 . S
C772 O779 1.267 . S
O773 C772 1.203 . S
O774 C767 1.185 . S
O774 Zn770 2.086 . S
C775 O771 1.278 . S
C775 O776 1.211 . S
O776 C775 1.211 . S
C777 O769 1.284 . S
C777 O778 1.273 . S
O778 C777 1.273 . S
O779 Zn770 1.977 . S
O779 C772 1.267 . S
C780 O781 1.160 . S
C780 O787 1.185 . S
O781 C780 1.160 . S
O782 Zn783 1.899 . S
O782 C790 1.284 . S
Zn783 O782 1.899 . S
Zn783 O784 2.032 . S
Zn783 O787 2.086 . S
Zn783 O792 1.977 . S
O784 Zn783 2.032 . S
O784 C788 1.278 . S
C785 O786 1.203 . S
C785 O792 1.267 . S
O786 C785 1.203 . S
O787 C780 1.185 . S
O787 Zn783 2.086 . S
C788 O784 1.278 . S
C788 O789 1.211 . S
O789 C788 1.211 . S
C790 O782 1.284 . S
C790 O791 1.273 . S
O791 C790 1.273 . S
O792 Zn783 1.977 . S
O792 C785 1.267 . S
C793 O794 1.160 . S
C793 O800 1.185 . S
O794 C793 1.160 . S
O795 Zn796 1.899 . S
O795 C803 1.284 . S
Zn796 O795 1.899 . S
Zn796 O797 2.032 . S
Zn796 O800 2.086 . S
Zn796 O805 1.977 . S
O797 Zn796 2.032 . S
O797 C801 1.278 . S
C798 O799 1.203 . S
C798 O805 1.267 . S
O799 C798 1.203 . S
O800 C793 1.185 . S
O800 Zn796 2.086 . S
C801 O797 1.278 . S
C801 O802 1.211 . S
O802 C801 1.211 . S
C803 O795 1.284 . S
C803 O804 1.273 . S
O804 C803 1.273 . S
O805 Zn796 1.977 . S
O805 C798 1.267 . S
C806 O807 1.160 . S
C806 O813 1.185 . S
O807 C806 1.160 . S
O808 Zn809 1.899 . S
O808 C816 1.284 . S
Zn809 O808 1.899 . S
Zn809 O810 2.032 . S
Zn809 O813 2.086 . S
Zn809 O818 1.977 . S
O810 Zn809 2.032 . S
O810 C814 1.278 . S
C811 O812 1.203 . S
C811 O818 1.267 . S
O812 C811 1.203 . S
O813 C806 1.185 . S
O813 Zn809 2.086 . S
C814 O810 1.278 . S
C814 O815 1.211 . S
O815 C814 1.211 . S
C816 O808 1.284 . S
C816 O817 1.273 . S
O817 C816 1.273 . S
O818 Zn809 1.977 . S
O818 C811 1.267 . S
C819 O820 1.160 . S
C819 O826 1.185 . S
O820 C819 1.160 . S
O821 Zn822 1.899 . S
O821 C829 1.284 . S
Zn822 O821 1.899 . S
Zn822 O823 2.032 . S
Zn822 O826 2.086 . S
Zn822 O831 1.977 . S
O823 Zn822 2.032 . S
O823 C827 1.278 . S
C824 O825 1.203 1_655 S
C824 O831 1.267 . S
O825 C824 1.203 1_455 S
O826 C819 1.185 . S
O826 Zn822 2.086 . S
C827 O823 1.278 . S
C827 O828 1.211 . S
O828 C827 1.211 . S
C829 O821 1.284 . S
C829 O830 1.273 . S
O830 C829 1.273 . S
O831 Zn822 1.977 . S
O831 C824 1.267 . S
C832 O833 1.160 . S
C832 O839 1.185 . S
O833 C832 1.160 . S
O834 Zn835 1.899 . S
O834 C842 1.284 . S
Zn835 O834 1.899 . S
Zn835 O836 2.032 . S
Zn835 O839 2.086 . S
Zn835 O844 1.977 . S
O836 Zn835 2.032 . S
O836 C840 1.278 . S
C837 O838 1.203 . S
C837 O844 1.267 . S
O838 C837 1.203 . S
O839 C832 1.185 . S
O839 Zn835 2.086 . S
C840 O836 1.278 . S
C840 O841 1.211 . S
O841 C840 1.211 . S
C842 O834 1.284 . S
C842 O843 1.273 . S
O843 C842 1.273 . S
O844 Zn835 1.977 . S
O844 C837 1.267 . S
C845 O846 1.160 . S
C845 O852 1.185 . S
O846 C845 1.160 . S
O847 Zn848 1.899 . S
O847 C855 1.284 . S
Zn848 O847 1.899 . S
Zn848 O849 2.032 . S
Zn848 O852 2.086 . S
Zn848 O857 1.977 . S
O849 Zn848 2.032 . S
O849 C853 1.278 . S
C850 O851 1.203 . S
C850 O857 1.267 . S
O851 C850 1.203 . S
O852 C845 1.185 . S
O852 Zn848 2.086 . S
C853 O849 1.278 . S
C853 O854 1.211 . S
O854 C853 1.211 . S
C855 O847 1.284 . S
C855 O856 1.273 . S
O856 C855 1.273 . S
O857 Zn848 1.977 . S
O857 C850 1.267 . S
C858 O859 1.160 . S
C858 O865 1.185 . S
O859 C858 1.160 . S
O860 Zn861 1.899 . S
O860 C868 1.284 . S
Zn861 O860 1.899 . S
Zn861 O862 2.032 . S
Zn861 O865 2.086 . S
Zn861 O870 1.977 . S
O862 Zn861 2.032 . S
O862 C866 1.278 . S
C863 O864 1.203 1_556 S
C863 O870 1.267 . S
O864 C863 1.203 1_554 S
O865 C858 1.185 . S
O865 Zn861 2.086 . S
C866 O862 1.278 . S
C866 O867 1.211 . S
O867 C866 1.211 . S
C868 O860 1.284 . S
C868 O869 1.273 . S
O869 C868 1.273 . S
O870 Zn861 1.977 . S
O870 C863 1.267 . S
C871 O872 1.160 . S
C871 O878 1.185 . S
O872 C871 1.160 . S
O873 Zn874 1.899 . S
O873 C881 1.284 . S
Zn874 O873 1.899 . S
Zn874 O875 2.032 . S
Zn874 O878 2.086 . S
Zn874 O883 1.977 . S
O875 Zn874 2.032 . S
O875 C879 1.278 . S
C876 O877 1.203 . S
C876 O883 1.267 . S
O877 C876 1.203 . S
O878 C871 1.185 . S
O878 Zn874 2.086 . S
C879 O875 1.278 . S
C879 O880 1.211 . S
O880 C879 1.211 . S
C881 O873 1.284 . S
C881 O882 1.273 . S
O882 C881 1.273 . S
O883 Zn874 1.977 . S
O883 C876 1.267 . S
C884 O885 1.160 . S
C884 O891 1.185 . S
O885 C884 1.160 . S
O886 Zn887 1.899 . S
O886 C894 1.284 . S
Zn887 O886 1.899 . S
Zn887 O888 2.032 . S
Zn887 O891 2.086 . S
Zn887 O896 1.977 . S
O888 Zn887 2.032 . S
O888 C892 1.278 . S
C889 O890 1.203 1_556 S
C889 O896 1.267 . S
O890 C889 1.203 1_554 S
O891 C884 1.185 . S
O891 Zn887 2.086 . S
C892 O888 1.278 . S
C892 O893 1.211 . S
O893 C892 1.211 . S
C894 O886 1.284 . S
C894 O895 1.273 . S
O895 C894 1.273 . S
O896 Zn887 1.977 . S
O896 C889 1.267 . S
C897 O898 1.160 . S
C897 O904 1.185 . S
O898 C897 1.160 . S
O899 Zn900 1.899 . S
O899 C907 1.284 . S
Zn900 O899 1.899 . S
Zn900 O901 2.032 . S
Zn900 O904 2.086 . S
Zn900 O909 1.977 . S
O901 Zn900 2.032 . S
O901 C905 1.278 . S
C902 O903 1.203 . S
C902 O909 1.267 . S
O903 C902 1.203 . S
O904 C897 1.185 . S
O904 Zn900 2.086 . S
C905 O901 1.278 . S
C905 O906 1.211 . S
O906 C905 1.211 . S
C907 O899 1.284 . S
C907 O908 1.273 . S
O908 C907 1.273 . S
O909 Zn900 1.977 . S
O909 C902 1.267 . S
C910 O911 1.160 . S
C910 O917 1.185 . S
O911 C910 1.160 . S
O912 Zn913 1.899 . S
O912 C920 1.284 . S
Zn913 O912 1.899 . S
Zn913 O914 2.032 . S
Zn913 O917 2.086 . S
Zn913 O922 1.977 . S
O914 Zn913 2.032 . S
O914 C918 1.278 . S
C915 O916 1.203 . S
C915 O922 1.267 . S
O916 C915 1.203 . S
O917 C910 1.185 . S
O917 Zn913 2.086 . S
C918 O914 1.278 . S
C918 O919 1.211 . S
O919 C918 1.211 . S
C920 O912 1.284 . S
C920 O921 1.273 . S
O921 C920 1.273 . S
O922 Zn913 1.977 . S
O922 C915 1.267 . S
C923 O924 1.160 . S
C923 O930 1.185 . S
O924 C923 1.160 . S
O925 Zn926 1.899 . S
O925 C933 1.284 . S
Zn926 O925 1.899 . S
Zn926 O927 2.032 . S
Zn926 O930 2.086 . S
Zn926 O935 1.977 . S
O927 Zn926 2.032 . S
O927 C931 1.278 . S
C928 O929 1.203 . S
C928 O935 1.267 . S
O929 C928 1.203 . S
O930 C923 1.185 . S
O930 Zn926 2.086 . S
C931 O927 1.278 . S
C931 O932 1.211 . S
O932 C931 1.211 . S
C933 O925 1.284 . S
C933 O934 1.273 . S
O934 C933 1.273 . S
O935 Zn926 1.977 . S
O935 C928 1.267 . S
C936 O937 1.160 . S
C936 O943 1.185 . S
O937 C936 1.160 . S
O938 Zn939 1.899 . S
O938 C946 1.284 . S
Zn939 O938 1.899 . S
Zn939 O940 2.032 . S
Zn939 O943 2.086 . S
Zn939 O948 1.977 . S
O940 Zn939 2.032 . S
O940 C944 1.278 . S
C941 O942 1.203 1_655 S
C941 O948 1.267 . S
O942 C941 1.203 1_455 S
O943 C936 1.185 . S
O943 Zn939 2.086 . S
C944 O940 1.278 . S
C944 O945 1.211 . S
O945 C944 1.211 . S
C946 O938 1.284 . S
C946 O947 1.273 . S
O947 C946 1.273 . S
O948 Zn939 1.977 . S
O948 C941 1.267 . S
C949 O950 1.160 . S
C949 O956 1.185 . S
O950 C949 1.160 . S
O951 Zn952 1.899 . S
O951 C959 1.284 . S
Zn952 O951 1.899 . S
Zn952 O953 2.032 . S
Zn952 O956 2.086 . S
Zn952 O961 1.977 . S
O953 Zn952 2.032 . S
O953 C957 1.278 . S
C954 O955 1.203 . S
C954 O961 1.267 . S
O955 C954 1.203 . S
O956 C949 1.185 . S
O956 Zn952 2.086 . S
C957 O953 1.278 . S
C957 O958 1.211 . S
O958 C957 1.211 . S
C959 O951 1.284 . S
C959 O960 1.273 . S
O960 C959 1.273 . S
O961 Zn952 1.977 . S
O961 C954 1.267 . S
C962 O963 1.160 . S
C962 O969 1.185 . S
O963 C962 1.160 . S
O964 Zn965 1.899 . S
O964 C972 1.284 . S
Zn965 O964 1.899 . S
Zn965 O966 2.032 . S
Zn965 O969 2.086 . S
Zn965 O974 1.977 . S
O966 Zn965 2.032 . S
O966 C970 1.278 . S
C967 O968 1.203 . S
C967 O974 1.267 . S
O968 C967 1.203 . S
O969 C962 1.185 . S
O969 Zn965 2.086 . S
C970 O966 1.278 . S
C970 O971 1.211 . S
O971 C970 1.211 . S
C972 O964 1.284 . S
C972 O973 1.273 . S
O973 C972 1.273 . S
O974 Zn965 1.977 . S
O974 C967 1.267 . S
C975 O976 1.160 . S
C975 O982 1.185 . S
O976 C975 1.160 . S
O977 Zn978 1.899 . S
O977 C985 1.284 . S
Zn978 O977 1.899 . S
Zn978 O979 2.032 . S
Zn978 O982 2.086 . S
Zn978 O987 1.977 . S
O979 Zn978 2.032 . S
O979 C983 1.278 . S
C980 O981 1.203 . S
C980 O987 1.267 . S
O981 C980 1.203 . S
O982 C975 1.185 . S
O982 Zn978 2.086 . S
C983 O979 1.278 . S
C983 O984 1.211 . S
O984 C983 1.211 . S
C985 O977 1.284 . S
C985 O986 1.273 . S
O986 C985 1.273 . S
O987 Zn978 1.977 . S
O987 C980 1.267 . S
C988 O989 1.160 . S
C988 O995 1.185 . S
O989 C988 1.160 . S
O990 Zn991 1.899 . S
O990 C998 1.284 . S
Zn991 O990 1.899 . S
Zn991 O992 2.032 . S
Zn991 O995 2.086 . S
Zn991 O1000 1.977 . S
O992 Zn991 2.032 . S
O992 C996 1.278 . S
C993 O994 1.203 1_655 S
C993 O1000 1.267 . S
O994 C993 1.203 1_455 S
O995 C988 1.185 . S
O995 Zn991 2.086 . S
C996 O992 1.278 . S
C996 O997 1.211 . S
O997 C996 1.211 . S
C998 O990 1.284 . S
C998 O999 1.273 . S
O999 C998 1.273 . S
O1000 Zn991 1.977 . S
O1000 C993 1.267 . S
C1001 O1002 1.160 . S
C1001 O1008 1.185 . S
O1002 C1001 1.160 . S
O1003 Zn1004 1.899 . S
O1003 C1011 1.284 . S
Zn1004 O1003 1.899 . S
Zn1004 O1005 2.032 . S
Zn1004 O1008 2.086 . S
Zn1004 O1013 1.977 . S
O1005 Zn1004 2.032 . S
O1005 C1009 1.278 . S
C1006 O1007 1.203 . S
C1006 O1013 1.267 . S
O1007 C1006 1.203 . S
O1008 C1001 1.185 . S
O1008 Zn1004 2.086 . S
C1009 O1005 1.278 . S
C1009 O1010 1.211 . S
O1010 C1009 1.211 . S
C1011 O1003 1.284 . S
C1011 O1012 1.273 . S
O1012 C1011 1.273 . S
O1013 Zn1004 1.977 . S
O1013 C1006 1.267 . S
C1014 O1015 1.160 . S
C1014 O1021 1.185 . S
O1015 C1014 1.160 . S
O1016 Zn1017 1.899 . S
O1016 C1024 1.284 . S
Zn1017 O1016 1.899 . S
Zn1017 O1018 2.032 . S
Zn1017 O1021 2.086 . S
Zn1017 O1026 1.977 . S
O1018 Zn1017 2.032 . S
O1018 C1022 1.278 . S
C1019 O1020 1.203 . S
C1019 O1026 1.267 . S
O1020 C1019 1.203 . S
O1021 C1014 1.185 . S
O1021 Zn1017 2.086 . S
C1022 O1018 1.278 . S
C1022 O1023 1.211 . S
O1023 C1022 1.211 . S
C1024 O1016 1.284 . S
C1024 O1025 1.273 . S
O1025 C1024 1.273 . S
O1026 Zn1017 1.977 . S
O1026 C1019 1.267 . S
C1027 O1028 1.160 . S
C1027 O1034 1.185 . S
O1028 C1027 1.160 . S
O1029 Zn1030 1.899 . S
O1029 C1037 1.284 . S
Zn1030 O1029 1.899 . S
Zn1030 O1031 2.032 . S
Zn1030 O1034 2.086 . S
Zn1030 O1039 1.977 . S
O1031 Zn1030 2.032 . S
O1031 C1035 1.278 . S
C1032 O1033 1.203 . S
C1032 O1039 1.267 . S
O1033 C1032 1.203 . S
O1034 C1027 1.185 . S
O1034 Zn1030 2.086 . S
C1035 O1031 1.278 . S
C1035 O1036 1.211 . S
O1036 C1035 1.211 . S
C1037 O1029 1.284 . S
C1037 O1038 1.273 . S
O1038 C1037 1.273 . S
O1039 Zn1030 1.977 . S
O1039 C1032 1.267 . S
C1040 O1041 1.160 . S
C1040 O1047 1.185 . S
O1041 C1040 1.160 . S
O1042 Zn1043 1.899 . S
O1042 C1050 1.284 . S
Zn1043 O1042 1.899 . S
Zn1043 O1044 2.032 . S
Zn1043 O1047 2.086 . S
Zn1043 O1052 1.977 . S
O1044 Zn1043 2.032 . S
O1044 C1048 1.278 . S
C1045 O1046 1.203 . S
C1045 O1052 1.267 . S
O1046 C1045 1.203 . S
O1047 C1040 1.185 . S
O1047 Zn1043 2.086 . S
C1048 O1044 1.278 . S
C1048 O1049 1.211 . S
O1049 C1048 1.211 . S
C1050 O1042 1.284 . S
C1050 O1051 1.273 . S
O1051 C1050 1.273 . S
O1052 Zn1043 1.977 . S
O1052 C1045 1.267 . S
C1053 O1054 1.160 . S
C1053 O1060 1.185 . S
O1054 C1053 1.160 . S
O1055 Zn1056 1.899 . S
O1055 C1063 1.284 . S
Zn1056 O1055 1.899 . S
Zn1056 O1057 2.032 . S
Zn1056 O1060 2.086 . S
Zn1056 O1065 1.977 . S
O1057 Zn1056 2.032 . S
O1057 C1061 1.278 . S
C1058 O1059 1.203 1_455 S
C1058 O1065 1.267 . S
O1059 C1058 1.203 1_655 S
O1060 C1053 1.185 . S
O1060 Zn1056 2.086 . S
C1061 O1057 1.278 . S
C1061 O1062 1.211 . S
O1062 C1061 1.211 . S
C1063 O1055 1.284 . S
C1063 O1064 1.273 . S
O1064 C1063 1.273 . S
O1065 Zn1056 1.977 . S
O1065 C1058 1.267 . S
C1066 O1067 1.160 . S
C1066 O1073 1.185 . S
O1067 C1066 1.160 . S
O1068 Zn1069 1.899 . S
O1068 C1076 1.284 . S
Zn1069 O1068 1.899 . S
Zn1069 O1070 2.032 . S
Zn1069 O1073 2.086 . S
Zn1069 O1078 1.977 . S
O1070 Zn1069 2.032 . S
O1070 C1074 1.278 . S
C1071 O1072 1.203 . S
C1071 O1078 1.267 . S
O1072 C1071 1.203 . S
O1073 C1066 1.185 . S
O1073 Zn1069 2.086 . S
C1074 O1070 1.278 . S
C1074 O1075 1.211 . S
O1075 C1074 1.211 . S
C1076 O1068 1.284 . S
C1076 O1077 1.273 . S
O1077 C1076 1.273 . S
O1078 Zn1069 1.977 . S
O1078 C1071 1.267 . S
C1079 O1080 1.160 . S
C1079 O1086 1.185 . S
O1080 C1079 1.160 . S
O1081 Zn1082 1.899 . S
O1081 C1089 1.284 . S
Zn1082 O1081 1.899 . S
Zn1082 O1083 2.032 . S
Zn1082 O1086 2.086 . S
Zn1082 O1091 1.977 . S
O1083 Zn1082 2.032 . S
O1083 C1087 1.278 . S
C1084 O1085 1.203 . S
C1084 O1091 1.267 . S
O1085 C1084 1.203 . S
O1086 C1079 1.185 . S
O1086 Zn1082 2.086 . S
C1087 O1083 1.278 . S
C1087 O1088 1.211 . S
O1088 C1087 1.211 . S
C1089 O1081 1.284 . S
C1089 O1090 1.273 . S
O1090 C1089 1.273 . S
O1091 Zn1082 1.977 . S
O1091 C1084 1.267 . S
C1092 O1093 1.160 . S
C1092 O1099 1.185 . S
O1093 C1092 1.160 . S
O1094 Zn1095 1.899 . S
O1094 C1102 1.284 . S
Zn1095 O1094 1.899 . S
Zn1095 O1096 2.032 . S
Zn1095 O1099 2.086 . S
Zn1095 O1104 1.977 . S
O1096 Zn1095 2.032 . S
O1096 C1100 1.278 . S
C1097 O1098 1.203 . S
C1097 O1104 1.267 . S
O1098 C1097 1.203 . S
O1099 C1092 1.185 . S
O1099 Zn1095 2.086 . S
C1100 O1096 1.278 . S
C1100 O1101 1.211 . S
O1101 C1100 1.211 . S
C1102 O1094 1.284 . S
C1102 O1103 1.273 . S
O1103 C1102 1.273 . S
O1104 Zn1095 1.977 . S
O1104 C1097 1.267 . S
C1105 O1106 1.160 . S
C1105 O1112 1.185 . S
O1106 C1105 1.160 . S
O1107 Zn1108 1.899 . S
O1107 C1115 1.284 . S
Zn1108 O1107 1.899 . S
Zn1108 O1109 2.032 . S
Zn1108 O1112 2.086 . S
Zn1108 O1117 1.977 . S
O1109 Zn1108 2.032 . S
O1109 C1113 1.278 . S
C1110 O1111 1.203 . S
C1110 O1117 1.267 . S
O1111 C1110 1.203 . S
O1112 C1105 1.185 . S
O1112 Zn1108 2.086 . S
C1113 O1109 1.278 . S
C1113 O1114 1.211 . S
O1114 C1113 1.211 . S
C1115 O1107 1.284 . S
C1115 O1116 1.273 . S
O1116 C1115 1.273 . S
O1117 Zn1108 1.977 . S
O1117 C1110 1.267 . S
C1118 O1119 1.160 . S
C1118 O1125 1.185 . S
O1119 C1118 1.160 . S
O1120 Zn1121 1.899 . S
O1120 C1128 1.284 . S
Zn1121 O1120 1.899 . S
Zn1121 O1122 2.032 . S
Zn1121 O1125 2.086 . S
Zn1121 O1130 1.977 . S
O1122 Zn1121 2.032 . S
O1122 C1126 1.278 . S
C1123 O1124 1.203 . S
C1123 O1130 1.267 . S
O1124 C1123 1.203 . S
O1125 C1118 1.185 . S
O1125 Zn1121 2.086 . S
C1126 O1122 1.278 . S
C1126 O1127 1.211 . S
O1127 C1126 1.211 . S
C1128 O1120 1.284 . S
C1128 O1129 1.273 . S
O1129 C1128 1.273 . S
O1130 Zn1121 1.977 . S
O1130 C1123 1.267 . S
C1131 O1132 1.160 . S
C1131 O1138 1.185 . S
O1132 C1131 1.160 . S
O1133 Zn1134 1.899 . S
O1133 C1141 1.284 . S
Zn1134 O1133 1.899 . S
Zn1134 O1135 2.032 . S
Zn1134 O1138 2.086 . S
Zn1134 O1143 1.977 . S
O1135 Zn1134 2.032 . S
O1135 C1139 1.278 . S
C1136 O1137 1.203 1_455 S
C1136 O1143 1.267 . S
O1137 C1136 1.203 1_655 S
O1138 C1131 1.185 . S
O1138 Zn1134 2.086 . S
C1139 O1135 1.278 . S
C1139 O1140 1.211 . S
O1140 C1139 1.211 . S
C1141 O1133 1.284 . S
C1141 O1142 1.273 . S
O1142 C1141 1.273 . S
O1143 Zn1134 1.977 . S
O1143 C1136 1.267 . S
C1144 O1145 1.160 . S
C1144 O1151 1.185 . S
O1145 C1144 1.160 . S
O1146 Zn1147 1.899 . S
O1146 C1154 1.284 . S
Zn1147 O1146 1.899 . S
Zn1147 O1148 2.032 . S
Zn1147 O1151 2.086 . S
Zn1147 O1156 1.977 . S
O1148 Zn1147 2.032 . S
O1148 C1152 1.278 . S
C1149 O1150 1.203 . S
C1149 O1156 1.267 . S
O1150 C1149 1.203 . S
O1151 C1144 1.185 . S
O1151 Zn1147 2.086 . S
C1152 O1148 1.278 . S
C1152 O1153 1.211 . S
O1153 C1152 1.211 . S
C1154 O1146 1.284 . S
C1154 O1155 1.273 . S
O1155 C1154 1.273 . S
O1156 Zn1147 1.977 . S
O1156 C1149 1.267 . S
C1157 O1158 1.160 . S
C1157 O1164 1.185 . S
O1158 C1157 1.160 . S
O1159 Zn1160 1.899 . S
O1159 C1167 1.284 . S
Zn1160 O1159 1.899 . S
Zn1160 O1161 2.032 . S
Zn1160 O1164 2.086 . S
Zn1160 O1169 1.977 . S
O1161 Zn1160 2.032 . S
O1161 C1165 1.278 . S
C1162 O1163 1.203 . S
C1162 O1169 1.267 . S
O1163 C1162 1.203 . S
O1164 C1157 1.185 . S
O1164 Zn1160 2.086 . S
C1165 O1161 1.278 . S
C1165 O1166 1.211 . S
O1166 C1165 1.211 . S
C1167 O1159 1.284 . S
C1167 O1168 1.273 . S
O1168 C1167 1.273 . S
O1169 Zn1160 1.977 . S
O1169 C1162 1.267 . S
C1170 O1171 1.160 . S
C1170 O1177 1.185 . S
O1171 C1170 1.160 . S
O1172 Zn1173 1.899 . S
O1172 C1180 1.284 . S
Zn1173 O1172 1.899 . S
Zn1173 O1174 2.032 . S
Zn1173 O1177 2.086 . S
Zn1173 O1182 1.977 . S
O1174 Zn1173 2.032 . S
O1174 C1178 1.278 . S
C1175 O1176 1.203 1_554 S
C1175 O1182 1.267 . S
O1176 C1175 1.203 1_556 S
O1177 C1170 1.185 . S
O1177 Zn1173 2.086 . S
C1178 O1174 1.278 . S
C1178 O1179 1.211 . S
O1179 C1178 1.211 . S
C1180 O1172 1.284 . S
C1180 O1181 1.273 . S
O1181 C1180 1.273 . S
O1182 Zn1173 1.977 . S
O1182 C1175 1.267 . S
C1183 O1184 1.160 . S
C1183 O1190 1.185 . S
O1184 C1183 1.160 . S
O1185 Zn1186 1.899 . S
O1185 C1193 1.284 . S
Zn1186 O1185 1.899 . S
Zn1186 O1187 2.032 . S
Zn1186 O1190 2.086 . S
Zn1186 O1195 1.977 . S
O1187 Zn1186 2.032 . S
O1187 C1191 1.278 . S
C1188 O1189 1.203 . S
C1188 O1195 1.267 . S
O1189 C1188 1.203 . S
O1190 C1183 1.185 . S
O1190 Zn1186 2.086 . S
C1191 O1187 1.278 . S
C1191 O1192 1.211 . S
O1192 C1191 1.211 . S
C1193 O1185 1.284 . S
C1193 O1194 1.273 . S
O1194 C1193 1.273 . S
O1195 Zn1186 1.977 . S
O1195 C1188 1.267 . S
C1196 O1197 1.160 . S
C1196 O1203 1.185 . S
O1197 C1196 1.160 . S
O1198 Zn1199 1.899 . S
O1198 C1206 1.284 . S
Zn1199 O1198 1.899 . S
Zn1199 O1200 2.032 . S
Zn1199 O1203 2.086 . S
Zn1199 O1208 1.977 . S
O1200 Zn1199 2.032 . S
O1200 C1204 1.278 . S
C1201 O1202 1.203 1_554 S
C1201 O1208 1.267 . S
O1202 C1201 1.203 1_556 S
O1203 C1196 1.185 . S
O1203 Zn1199 2.086 . S
C1204 O1200 1.278 . S
C1204 O1205 1.211 . S
O1205 C1204 1.211 . S
C1206 O1198 1.284 . S
C1206 O1207 1.273 . S
O1207 C1206 1.273 . S
O1208 Zn1199 1.977 . S
O1208 C1201 1.267 . S
C1209 O1210 1.160 . S
C1209 O1216 1.185 . S
O1210 C1209 1.160 . S
O1211 Zn1212 1.899 . S
O1211 C1219 1.284 . S
Zn1212 O1211 1.899 . S
Zn1212 O1213 2.032 . S
Zn1212 O1216 2.086 . S
Zn1212 O1221 1.977 . S
O1213 Zn1212 2.032 . S
O1213 C1217 1.278 . S
C1214 O1215 1.203 . S
C1214 O1221 1.267 . S
O1215 C1214 1.203 . S
O1216 C1209 1.185 . S
O1216 Zn1212 2.086 . S
C1217 O1213 1.278 . S
C1217 O1218 1.211 . S
O1218 C1217 1.211 . S
C1219 O1211 1.284 . S
C1219 O1220 1.273 . S
O1220 C1219 1.273 . S
O1221 Zn1212 1.977 . S
O1221 C1214 1.267 . S
C1222 O1223 1.160 . S
C1222 O1229 1.185 . S
O1223 C1222 1.160 . S
O1224 Zn1225 1.899 . S
O1224 C1232 1.284 . S
Zn1225 O1224 1.899 . S
Zn1225 O1226 2.032 . S
Zn1225 O1229 2.086 . S
Zn1225 O1234 1.977 . S
O1226 Zn1225 2.032 . S
O1226 C1230 1.278 . S
C1227 O1228 1.203 . S
C1227 O1234 1.267 . S
O1228 C1227 1.203 . S
O1229 C1222 1.185 . S
O1229 Zn1225 2.086 . S
C1230 O1226 1.278 . S
C1230 O1231 1.211 . S
O1231 C1230 1.211 . S
C1232 O1224 1.284 . S
C1232 O1233 1.273 . S
O1233 C1232 1.273 . S
O1234 Zn1225 1.977 . S
O1234 C1227 1.267 . S
C1235 O1236 1.160 . S
C1235 O1242 1.185 . S
O1236 C1235 1.160 . S
O1237 Zn1238 1.899 . S
O1237 C1245 1.284 . S
Zn1238 O1237 1.899 . S
Zn1238 O1239 2.032 . S
Zn1238 O1242 2.086 . S
Zn1238 O1247 1.977 . S
O1239 Zn1238 2.032 . S
O1239 C1243 1.278 . S
C1240 O1241 1.203 . S
C1240 O1247 1.267 . S
O1241 C1240 1.203 . S
O1242 C1235 1.185 . S
O1242 Zn1238 2.086 . S
C1243 O1239 1.278 . S
C1243 O1244 1.211 . S
O1244 C1243 1.211 . S
C1245 O1237 1.284 . S
C1245 O1246 1.273 . S
O1246 C1245 1.273 . S
O1247 Zn1238 1.977 . S
O1247 C1240 1.267 . S
C1248 O1249 1.160 . S
C1248 O1255 1.185 . S
O1249 C1248 1.160 . S
O1250 Zn1251 1.899 . S
O1250 C1258 1.284 . S
Zn1251 O1250 1.899 . S
Zn1251 O1252 2.032 . S
Zn1251 O1255 2.086 . S
Zn1251 O1260 1.977 . S
O1252 Zn1251 2.032 . S
O1252 C1256 1.278 . S
C1253 O1254 1.203 . S
C1253 O1260 1.267 . S
O1254 C1253 1.203 . S
O1255 C1248 1.185 . S
O1255 Zn1251 2.086 . S
C1256 O1252 1.278 . S
C1256 O1257 1.211 . S
O1257 C1256 1.211 . S
C1258 O1250 1.284 . S
C1258 O1259 1.273 . S
O1259 C1258 1.273 . S
O1260 Zn1251 1.977 . S
O1260 C1253 1.267 . S
C1261 O1262 1.160 . S
C1261 O1268 1.185 . S
O1262 C1261 1.160 . S
O1263 Zn1264 1.899 . S
O1263 C1271 1.284 . S
Zn1264 O1263 1.899 . S
Zn1264 O1265 2.032 . S
Zn1264 O1268 2.086 . S
Zn1264 O1273 1.977 . S
O1265 Zn1264 2.032 . S
O1265 C1269 1.278 . S
C1266 O1267 1.203 . S
C1266 O1273 1.267 . S
O1267 C1266 1.203 . S
O1268 C1261 1.185 . S
O1268 Zn1264 2.086 . S
C1269 O1265 1.278 . S
C1269 O1270 1.211 . S
O1270 C1269 1.211 . S
C1271 O1263 1.284 . S
C1271 O1272 1.273 . S
O1272 C1271 1.273 . S
O1273 Zn1264 1.977 . S
O1273 C1266 1.267 . S
C1274 O1275 1.160 . S
C1274 O1281 1.185 . S
O1275 C1274 1.160 . S
O1276 Zn1277 1.899 . S
O1276 C1284 1.284 . S
Zn1277 O1276 1.899 . S
Zn1277 O1278 2.032 . S
Zn1277 O1281 2.086 . S
Zn1277 O1286 1.977 . S
O1278 Zn1277 2.032 . S
O1278 C1282 1.278 . S
C1279 O1280 1.203 . S
C1279 O1286 1.267 . S
O1280 C1279 1.203 . S
O1281 C1274 1.185 . S
O1281 Zn1277 2.086 . S
C1282 O1278 1.278 . S
C1282 O1283 1.211 . S
O1283 C1282 1.211 . S
C1284 O1276 1.284 . S
C1284 O1285 1.273 . S
O1285 C1284 1.273 . S
O1286 Zn1277 1.977 . S
O1286 C1279 1.267 . S
C1287 O1288 1.160 . S
C1287 O1294 1.185 . S
O1288 C1287 1.160 . S
O1289 Zn1290 1.899 . S
O1289 C1297 1.284 . S
Zn1290 O1289 1.899 . S
Zn1290 O1291 2.032 . S
Zn1290 O1294 2.086 . S
Zn1290 O1299 1.977 . S
O1291 Zn1290 2.032 . S
O1291 C1295 1.278 . S
C1292 O1293 1.203 1_565 S
C1292 O1299 1.267 . S
O1293 C1292 1.203 1_545 S
O1294 C1287 1.185 . S
O1294 Zn1290 2.086 . S
C1295 O1291 1.278 . S
C1295 O1296 1.211 . S
O1296 C1295 1.211 . S
C1297 O1289 1.284 . S
C1297 O1298 1.273 . S
O1298 C1297 1.273 . S
O1299 Zn1290 1.977 . S
O1299 C1292 1.267 . S
C1300 O1301 1.160 . S
C1300 O1307 1.185 . S
O1301 C1300 1.160 . S
O1302 Zn1303 1.899 . S
O1302 C1310 1.284 . S
Zn1303 O1302 1.899 . S
Zn1303 O1304 2.032 . S
Zn1303 O1307 2.086 . S
Zn1303 O1312 1.977 . S
O1304 Zn1303 2.032 . S
O1304 C1308 1.278 . S
C1305 O1306 1.203 . S
C1305 O1312 1.267 . S
O1306 C1305 1.203 . S
O1307 C1300 1.185 . S
O1307 Zn1303 2.086 . S
C1308 O1304 1.278 . S
C1308 O1309 1.211 . S
O1309 C1308 1.211 . S
C1310 O1302 1.284 . S
C1310 O1311 1.273 . S
O1311 C1310 1.273 . S
O1312 Zn1303 1.977 . S
O1312 C1305 1.267 . S
C1313 O1314 1.160 . S
C1313 O1320 1.185 . S
O1314 C1313 1.160 . S
O1315 Zn1316 1.899 . S
O1315 C1323 1.284 . S
Zn1316 O1315 1.899 . S
Zn1316 O1317 2.032 . S
Zn1316 O1320 2.086 . S
Zn1316 O1325 1.977 . S
O1317 Zn1316 2.032 . S
O1317 C1321 1.278 . S
C1318 O1319 1.203 . S
C1318 O1325 1.267 . S
O1319 C1318 1.203 . S
O1320 C1313 1.185 . S
O1320 Zn1316 2.086 . S
C1321 O1317 1.278 . S
C1321 O1322 1.211 . S
O1322 C1321 1.211 . S
C1323 O1315 1.284 . S
C1323 O1324 1.273 . S
O1324 C1323 1.273 . S
O1325 Zn1316 1.977 . S
O1325 C1318 1.267 . S
C1326 O1327 1.160 . S
C1326 O1333 1.185 . S
O1327 C1326 1.160 . S
O1328 Zn1329 1.899 . S
O1328 C1336 1.284 . S
Zn1329 O1328 1.899 . S
Zn1329 O1330 2.032 . S
Zn1329 O1333 2.086 . S
Zn1329 O1338 1.977 . S
O1330 Zn1329 2.032 . S
O1330 C1334 1.278 . S
C1331 O1332 1.203 . S
C1331 O1338 1.267 . S
O1332 C1331 1.203 . S
O1333 C1326 1.185 . S
O1333 Zn1329 2.086 . S
C1334 O1330 1.278 . S
C1334 O1335 1.211 . S
O1335 C1334 1.211 . S
C1336 O1328 1.284 . S
C1336 O1337 1.273 . S
O1337 C1336 1.273 . S
O1338 Zn1329 1.977 . S
O1338 C1331 1.267 . S
C1339 O1340 1.160 . S
C1339 O1346 1.185 . S
O1340 C1339 1.160 . S
O1341 Zn1342 1.899 . S
O1341 C1349 1.284 . S
Zn1342 O1341 1.899 . S
Zn1342 O1343 2.032 . S
Zn1342 O1346 2.086 . S
Zn1342 O1351 1.977 . S
O1343 Zn1342 2.032 . S
O1343 C1347 1.278 . S
C1344 O1345 1.203 1_565 S
C1344 O1351 1.267 . S
O1345 C1344 1.203 1_545 S
O1346 C1339 1.185 . S
O1346 Zn1342 2.086 . S
C1347 O1343 1.278 . S
C1347 O1348 1.211 . S
O1348 C1347 1.211 . S
C1349 O1341 1.284 . S
C1349 O1350 1.273 . S
O1350 C1349 1.273 . S
O1351 Zn1342 1.977 . S
O1351 C1344 1.267 . S
C1352 O1353 1.160 . S
C1352 O1359 1.185 . S
O1353 C1352 1.160 . S
O1354 Zn1355 1.899 . S
O1354 C1362 1.284 . S
Zn1355 O1354 1.899 . S
Zn1355 O1356 2.032 . S
Zn1355 O1359 2.086 . S
Zn1355 O1364 1.977 . S
O1356 Zn1355 2.032 . S
O1356 C1360 1.278 . S
C1357 O1358 1.203 1_545 S
C1357 O1364 1.267 . S
O1358 C1357 1.203 1_565 S
O1359 C1352 1.185 . S
O1359 Zn1355 2.086 . S
C1360 O1356 1.278 . S
C1360 O1361 1.211 . S
O1361 C1360 1.211 . S
C1362 O1354 1.284 . S
C1362 O1363 1.273 . S
O1363 C1362 1.273 . S
O1364 Zn1355 1.977 . S
O1364 C1357 1.267 . S
C1365 O1366 1.160 . S
C1365 O1372 1.185 . S
O1366 C1365 1.160 . S
O1367 Zn1368 1.899 . S
O1367 C1375 1.284 . S
Zn1368 O1367 1.899 . S
Zn1368 O1369 2.032 . S
Zn1368 O1372 2.086 . S
Zn1368 O1377 1.977 . S
O1369 Zn1368 2.032 . S
O1369 C1373 1.278 . S
C1370 O1371 1.203 . S
C1370 O1377 1.267 . S
O1371 C1370 1.203 . S
O1372 C1365 1.185 . S
O1372 Zn1368 2.086 . S
C1373 O1369 1.278 . S
C1373 O1374 1.211 . S
O1374 C1373 1.211 . S
C1375 O1367 1.284 . S
C1375 O1376 1.273 . S
O1376 C1375 1.273 . S
O1377 Zn1368 1.977 . S
O1377 C1370 1.267 . S
C1378 O1379 1.160 . S
C1378 O1385 1.185 . S
O1379 C1378 1.160 . S
O1380 Zn1381 1.899 . S
O1380 C1388 1.284 . S
Zn1381 O1380 1.899 . S
Zn1381 O1382 2.032 . S
Zn1381 O1385 2.086 . S
Zn1381 O1390 1.977 . S
O1382 Zn1381 2.032 . S
O1382 C1386 1.278 . S
C1383 O1384 1.203 . S
C1383 O1390 1.267 . S
O1384 C1383 1.203 . S
O1385 C1378 1.185 . S
O1385 Zn1381 2.086 . S
C1386 O1382 1.278 . S
C1386 O1387 1.211 . S
O1387 C1386 1.211 . S
C1388 O1380 1.284 . S
C1388 O1389 1.273 . S
O1389 C1388 1.273 . S
O1390 Zn1381 1.977 . S
O1390 C1383 1.267 . S
C1391 O1392 1.160 . S
C1391 O1398 1.185 . S
O1392 C1391 1.160 . S
O1393 Zn1394 1.899 . S
O1393 C1401 1.284 . S
Zn1394 O1393 1.899 . S
Zn1394 O1395 2.032 . S
Zn1394 O1398 2.086 . S
Zn1394 O1403 1.977 . S
O1395 Zn1394 2.032 . S
O1395 C1399 1.278 . S
C1396 O1397 1.203 . S
C1396 O1403 1.267 . S
O1397 C1396 1.203 . S
O1398 C1391 1.185 . S
O1398 Zn1394 2.086 . S
C1399 O1395 1.278 . S
C1399 O1400 1.211 . S
O1400 C1399 1.211 . S
C1401 O1393 1.284 . S
C1401 O1402 1.273 . S
O1402 C1401 1.273 . S
O1403 Zn1394 1.977 . S
O1403 C1396 1.267 . S
C1404 O1405 1.160 . S
C1404 O1411 1.185 . S
O1405 C1404 1.160 . S
O1406 Zn1407 1.899 . S
O1406 C1414 1.284 . S
Zn1407 O1406 1.899 . S
Zn1407 O1408 2.032 . S
Zn1407 O1411 2.086 . S
Zn1407 O1416 1.977 . S
O1408 Zn1407 2.032 . S
O1408 C1412 1.278 . S
C1409 O1410 1.203 . S
C1409 O1416 1.267 . S
O1410 C1409 1.203 . S
O1411 C1404 1.185 . S
O1411 Zn1407 2.086 . S
C1412 O1408 1.278 . S
C1412 O1413 1.211 . S
O1413 C1412 1.211 . S
C1414 O1406 1.284 . S
C1414 O1415 1.273 . S
O1415 C1414 1.273 . S
O1416 Zn1407 1.977 . S
O1416 C1409 1.267 . S
C1417 O1418 1.160 . S
C1417 O1424 1.185 . S
O1418 C1417 1.160 . S
O1419 Zn1420 1.899 . S
O1419 C1427 1.284 . S
Zn1420 O1419 1.899 . S
Zn1420 O1421 2.032 . S
Zn1420 O1424 2.086 . S
Zn1420 O1429 1.977 . S
O1421 Zn1420 2.032 . S
O1421 C1425 1.278 . S
C1422 O1423 1.203 . S
C1422 O1429 1.267 . S
O1423 C1422 1.203 . S
O1424 C1417 1.185 . S
O1424 Zn1420 2.086 . S
C1425 O1421 1.278 . S
C1425 O1426 1.211 . S
O1426 C1425 1.211 . S
C1427 O1419 1.284 . S
C1427 O1428 1.273 . S
O1428 C1427 1.273 . S
O1429 Zn1420 1.977 . S
O1429 C1422 1.267 . S
C1430 O1431 1.160 . S
C1430 O1437 1.185 . S
O1431 C1430 1.160 . S
O1432 Zn1433 1.899 . S
O1432 C1440 1.284 . S
Zn1433 O1432 1.899 . S
Zn1433 O1434 2.032 . S
Zn1433 O1437 2.086 . S
Zn1433 O1442 1.977 . S
O1434 Zn1433 2.032 . S
O1434 C1438 1.278 . S
C1435 O1436 1.203 1_545 S
C1435 O1442 1.267 . S
O1436 C1435 1.203 1_565 S
O1437 C1430 1.185 . S
O1437 Zn1433 2.086 . S
C1438 O1434 1.278 . S
C1438 O1439 1.211 . S
O1439 C1438 1.211 . S
C1440 O1432 1.284 . S
C1440 O1441 1.273 . S
O1441 C1440 1.273 . S
O1442 Zn1433 1.977 . S
O1442 C1435 1.267 . S
C1443 O1444 1.160 . S
C1443 O1450 1.185 . S
O1444 C1443 1.160 . S
O1445 Zn1446 1.899 . S
O1445 C1453 1.284 . S
Zn1446 O1445 1.899 . S
Zn1446 O1447 2.032 . S
Zn1446 O1450 2.086 . S
Zn1446 O1455 1.977 . S
O1447 Zn1446 2.032 . S
O1447 C1451 1.278 . S
C1448 O1449 1.203 . S
C1448 O1455 1.267 . S
O1449 C1448 1.203 . S
O1450 C1443 1.185 . S
O1450 Zn1446 2.086 . S
C1451 O1447 1.278 . S
C1451 O1452 1.211 . S
O1452 C1451 1.211 . S
C1453 O1445 1.284 . S
C1453 O1454 1.273 . S
O1454 C1453 1.273 . S
O1455 Zn1446 1.977 . S
O1455 C1448 1.267 . S
C1456 O1457 1.160 . S
C1456 O1463 1.185 . S
O1457 C1456 1.160 . S
O1458 Zn1459 1.899 . S
O1458 C1466 1.284 . S
Zn1459 O1458 1.899 . S
Zn1459 O1460 2.032 . S
Zn1459 O1463 2.086 . S
Zn1459 O1468 1.977 . S
O1460 Zn1459 2.032 . S
O1460 C1464 1.278 . S
C1461 O1462 1.203 . S
C1461 O1468 1.267 . S
O1462 C1461 1.203 . S
O1463 C1456 1.185 . S
O1463 Zn1459 2.086 . S
C1464 O1460 1.278 . S
C1464 O1465 1.211 . S
O1465 C1464 1.211 . S
C1466 O1458 1.284 . S
C1466 O1467 1.273 . S
O1467 C1466 1.273 . S
O1468 Zn1459 1.977 . S
O1468 C1461 1.267 . S
C1469 O1470 1.160 . S
C1469 O1476 1.185 . S
O1470 C1469 1.160 . S
O1471 Zn1472 1.899 . S
O1471 C1479 1.284 . S
Zn1472 O1471 1.899 . S
Zn1472 O1473 2.032 . S
Zn1472 O1476 2.086 . S
Zn1472 O1481 1.977 . S
O1473 Zn1472 2.032 . S
O1473 C1477 1.278 . S
C1474 O1475 1.203 . S
C1474 O1481 1.267 . S
O1475 C1474 1.203 . S
O1476 C1469 1.185 . S
O1476 Zn1472 2.086 . S
C1477 O1473 1.278 . S
C1477 O1478 1.211 . S
O1478 C1477 1.211 . S
C1479 O1471 1.284 . S
C1479 O1480 1.273 . S
O1480 C1479 1.273 . S
O1481 Zn1472 1.977 . S
O1481 C1474 1.267 . S
C1482 O1483 1.160 . S
C1482 O1489 1.185 . S
O1483 C1482 1.160 . S
O1484 Zn1485 1.899 . S
O1484 C1492 1.284 . S
Zn1485 O1484 1.899 . S
Zn1485 O1486 2.032 . S
Zn1485 O1489 2.086 . S
Zn1485 O1494 1.977 . S
O1486 Zn1485 2.032 . S
O1486 C1490 1.278 . S
C1487 O1488 1.203 1_556 S
C1487 O1494 1.267 . S
O1488 C1487 1.203 1_554 S
O1489 C1482 1.185 . S
O1489 Zn1485 2.086 . S
C1490 O1486 1.278 . S
C1490 O1491 1.211 . S
O1491 C1490 1.211 . S
C1492 O1484 1.284 . S
C1492 O1493 1.273 . S
O1493 C1492 1.273 . S
O1494 Zn1485 1.977 . S
O1494 C1487 1.267 . S
C1495 O1496 1.160 . S
C1495 O1502 1.185 . S
O1496 C1495 1.160 . S
O1497 Zn1498 1.899 . S
O1497 C1505 1.284 . S
Zn1498 O1497 1.899 . S
Zn1498 O1499 2.032 . S
Zn1498 O1502 2.086 . S
Zn1498 O1507 1.977 . S
O1499 Zn1498 2.032 . S
O1499 C1503 1.278 . S
C1500 O1501 1.203 . S
C1500 O1507 1.267 . S
O1501 C1500 1.203 . S
O1502 C1495 1.185 . S
O1502 Zn1498 2.086 . S
C1503 O1499 1.278 . S
C1503 O1504 1.211 . S
O1504 C1503 1.211 . S
C1505 O1497 1.284 . S
C1505 O1506 1.273 . S
O1506 C1505 1.273 . S
O1507 Zn1498 1.977 . S
O1507 C1500 1.267 . S
C1508 O1509 1.160 . S
C1508 O1515 1.185 . S
O1509 C1508 1.160 . S
O1510 Zn1511 1.899 . S
O1510 C1518 1.284 . S
Zn1511 O1510 1.899 . S
Zn1511 O1512 2.032 . S
Zn1511 O1515 2.086 . S
Zn1511 O1520 1.977 . S
O1512 Zn1511 2.032 . S
O1512 C1516 1.278 . S
C1513 O1514 1.203 1_556 S
C1513 O1520 1.267 . S
O1514 C1513 1.203 1_554 S
O1515 C1508 1.185 . S
O1515 Zn1511 2.086 . S
C1516 O1512 1.278 . S
C1516 O1517 1.211 . S
O1517 C1516 1.211 . S
C1518 O1510 1.284 . S
C1518 O1519 1.273 . S
O1519 C1518 1.273 . S
O1520 Zn1511 1.977 . S
O1520 C1513 1.267 . S
C1521 O1522 1.160 . S
C1521 O1528 1.185 . S
O1522 C1521 1.160 . S
O1523 Zn1524 1.899 . S
O1523 C1531 1.284 . S
Zn1524 O1523 1.899 . S
Zn1524 O1525 2.032 . S
Zn1524 O1528 2.086 . S
Zn1524 O1533 1.977 . S
O1525 Zn1524 2.032 . S
O1525 C1529 1.278 . S
C1526 O1527 1.203 . S
C1526 O1533 1.267 . S
O1527 C1526 1.203 . S
O1528 C1521 1.185 . S
O1528 Zn1524 2.086 . S
C1529 O1525 1.278 . S
C1529 O1530 1.211 . S
O1530 C1529 1.211 . S
C1531 O1523 1.284 . S
C1531 O1532 1.273 . S
O1532 C1531 1.273 . S
O1533 Zn1524 1.977 . S
O1533 C1526 1.267 . S
C1534 O1535 1.160 . S
C1534 O1541 1.185 . S
O1535 C1534 1.160 . S
O1536 Zn1537 1.899 . S
O1536 C1544 1.284 . S
Zn1537 O1536 1.899 . S
Zn1537 O1538 2.032 . S
Zn1537 O1541 2.086 . S
Zn1537 O1546 1.977 . S
O1538 Zn1537 2.032 . S
O1538 C1542 1.278 . S
C1539 O1540 1.203 . S
C1539 O1546 1.267 . S
O1540 C1539 1.203 . S
O1541 C1534 1.185 . S
O1541 Zn1537 2.086 . S
C1542 O1538 1.278 . S
C1542 O1543 1.211 . S
O1543 C1542 1.211 . S
C1544 O1536 1.284 . S
C1544 O1545 1.273 . S
O1545 C1544 1.273 . S
O1546 Zn1537 1.977 . S
O1546 C1539 1.267 . S
C1547 O1548 1.160 . S
C1547 O1554 1.185 . S
O1548 C1547 1.160 . S
O1549 Zn1550 1.899 . S
O1549 C1557 1.284 . S
Zn1550 O1549 1.899 . S
Zn1550 O1551 2.032 . S
Zn1550 O1554 2.086 . S
Zn1550 O1559 1.977 . S
O1551 Zn1550 2.032 . S
O1551 C1555 1.278 . S
C1552 O1553 1.203 . S
C1552 O1559 1.267 . S
O1553 C1552 1.203 . S
O1554 C1547 1.185 . S
O1554 Zn1550 2.086 . S
C1555 O1551 1.278 . S
C1555 O1556 1.211 . S
O1556 C1555 1.211 . S
C1557 O1549 1.284 . S
C1557 O1558 1.273 . S
O1558 C1557 1.273 . S
O1559 Zn1550 1.977 . S
O1559 C1552 1.267 . S
C1560 O1561 1.160 . S
C1560 O1567 1.185 . S
O1561 C1560 1.160 . S
O1562 Zn1563 1.899 . S
O1562 C1570 1.284 . S
Zn1563 O1562 1.899 . S
Zn1563 O1564 2.032 . S
Zn1563 O1567 2.086 . S
Zn1563 O1572 1.977 . S
O1564 Zn1563 2.032 . S
O1564 C1568 1.278 . S
C1565 O1566 1.203 . S
C1565 O1572 1.267 . S
O1566 C1565 1.203 . S
O1567 C1560 1.185 . S
O1567 Zn1563 2.086 . S
C1568 O1564 1.278 . S
C1568 O1569 1.211 . S
O1569 C1568 1.211 . S
C1570 O1562 1.284 . S
C1570 O1571 1.273 . S
O1571 C1570 1.273 . S
O1572 Zn1563 1.977 . S
O1572 C1565 1.267 . S
C1573 O1574 1.160 . S
C1573 O1580 1.185 . S
O1574 C1573 1.160 . S
O1575 Zn1576 1.899 . S
O1575 C1583 1.284 . S
Zn1576 O1575 1.899 . S
Zn1576 O1577 2.032 . S
Zn1576 O1580 2.086 . S
Zn1576 O1585 1.977 . S
O1577 Zn1576 2.032 . S
O1577 C1581 1.278 . S
C1578 O1579 1.203 . S
C1578 O1585 1.267 . S
O1579 C1578 1.203 . S
O1580 C1573 1.185 . S
O1580 Zn1576 2.086 . S
C1581 O1577 1.278 . S
C1581 O1582 1.211 . S
O1582 C1581 1.211 . S
C1583 O1575 1.284 . S
C1583 O1584 1.273 . S
O1584 C1583 1.273 . S
O1585 Zn1576 1.977 . S
O1585 C1578 1.267 . S
C1586 O1587 1.160 . S
C1586 O1593 1.185 . S
O1587 C1586 1.160 . S
O1588 Zn1589 1.899 . S
O1588 C1596 1.284 . S
Zn1589 O1588 1.899 . S
Zn1589 O1590 2.032 . S
Zn1589 O1593 2.086 . S
Zn1589 O1598 1.977 . S
O1590 Zn1589 2.032 . S
O1590 C1594 1.278 . S
C1591 O1592 1.203 . S
C1591 O1598 1.267 . S
O1592 C1591 1.203 . S
O1593 C1586 1.185 . S
O1593 Zn1589 2.086 . S
C1594 O1590 1.278 . S
C1594 O1595 1.211 . S
O1595 C1594 1.211 . S
C1596 O1588 1.284 . S
C1596 O1597 1.273 . S
O1597 C1596 1.273 . S
O1598 Zn1589 1.977 . S
O1598 C1591 1.267 . S
C1599 O1600 1.160 . S
C1599 O1606 1.185 . S
O1600 C1599 1.160 . S
O1601 Zn1602 1.899 . S
O1601 C1609 1.284 . S
Zn1602 O1601 1.899 . S
Zn1602 O1603 2.032 . S
Zn1602 O1606 2.086 . S
Zn1602 O1611 1.977 . S
O1603 Zn1602 2.032 . S
O1603 C1607 1.278 . S
C1604 O1605 1.203 1_545 S
C1604 O1611 1.267 . S
O1605 C1604 1.203 1_565 S
O1606 C1599 1.185 . S
O1606 Zn1602 2.086 . S
C1607 O1603 1.278 . S
C1607 O1608 1.211 . S
O1608 C1607 1.211 . S
C1609 O1601 1.284 . S
C1609 O1610 1.273 . S
O1610 C1609 1.273 . S
O1611 Zn1602 1.977 . S
O1611 C1604 1.267 . S
C1612 O1613 1.160 . S
C1612 O1619 1.185 . S
O1613 C1612 1.160 . S
O1614 Zn1615 1.899 . S
O1614 C1622 1.284 . S
Zn1615 O1614 1.899 . S
Zn1615 O1616 2.032 . S
Zn1615 O1619 2.086 . S
Zn1615 O1624 1.977 . S
O1616 Zn1615 2.032 . S
O1616 C1620 1.278 . S
C1617 O1618 1.203 . S
C1617 O1624 1.267 . S
O1618 C1617 1.203 . S
O1619 C1612 1.185 . S
O1619 Zn1615 2.086 . S
C1620 O1616 1.278 . S
C1620 O1621 1.211 . S
O1621 C1620 1.211 . S
C1622 O1614 1.284 . S
C1622 O1623 1.273 . S
O1623 C1622 1.273 . S
O1624 Zn1615 1.977 . S
O1624 C1617 1.267 . S
C1625 O1626 1.160 . S
C1625 O1632 1.185 . S
O1626 C1625 1.160 . S
O1627 Zn1628 1.899 . S
O1627 C1635 1.284 . S
Zn1628 O1627 1.899 . S
Zn1628 O1629 2.032 . S
Zn1628 O1632 2.086 . S
Zn1628 O1637 1.977 . S
O1629 Zn1628 2.032 . S
O1629 C1633 1.278 . S
C1630 O1631 1.203 . S
C1630 O1637 1.267 . S
O1631 C1630 1.203 . S
O1632 C1625 1.185 . S
O1632 Zn1628 2.086 . S
C1633 O1629 1.278 . S
C1633 O1634 1.211 . S
O1634 C1633 1.211 . S
C1635 O1627 1.284 . S
C1635 O1636 1.273 . S
O1636 C1635 1.273 . S
O1637 Zn1628 1.977 . S
O1637 C1630 1.267 . S
C1638 O1639 1.160 . S
C1638 O1645 1.185 . S
O1639 C1638 1.160 . S
O1640 Zn1641 1.899 . S
O1640 C1648 1.284 . S
Zn1641 O1640 1.899 . S
Zn1641 O1642 2.032 . S
Zn1641 O1645 2.086 . S
Zn1641 O1650 1.977 . S
O1642 Zn1641 2.032 . S
O1642 C1646 1.278 . S
C1643 O1644 1.203 . S
C1643 O1650 1.267 . S
O1644 C1643 1.203 . S
O1645 C1638 1.185 . S
O1645 Zn1641 2.086 . S
C1646 O1642 1.278 . S
C1646 O1647 1.211 . S
O1647 C1646 1.211 . S
C1648 O1640 1.284 . S
C1648 O1649 1.273 . S
O1649 C1648 1.273 . S
O1650 Zn1641 1.977 . S
O1650 C1643 1.267 . S
C1651 O1652 1.160 . S
C1651 O1658 1.185 . S
O1652 C1651 1.160 . S
O1653 Zn1654 1.899 . S
O1653 C1661 1.284 . S
Zn1654 O1653 1.899 . S
Zn1654 O1655 2.032 . S
Zn1654 O1658 2.086 . S
Zn1654 O1663 1.977 . S
O1655 Zn1654 2.032 . S
O1655 C1659 1.278 . S
C1656 O1657 1.203 1_545 S
C1656 O1663 1.267 . S
O1657 C1656 1.203 1_565 S
O1658 C1651 1.185 . S
O1658 Zn1654 2.086 . S
C1659 O1655 1.278 . S
C1659 O1660 1.211 . S
O1660 C1659 1.211 . S
C1661 O1653 1.284 . S
C1661 O1662 1.273 . S
O1662 C1661 1.273 . S
O1663 Zn1654 1.977 . S
O1663 C1656 1.267 . S
C1664 O1665 1.160 . S
C1664 O1671 1.185 . S
O1665 C1664 1.160 . S
O1666 Zn1667 1.899 . S
O1666 C1674 1.284 . S
Zn1667 O1666 1.899 . S
Zn1667 O1668 2.032 . S
Zn1667 O1671 2.086 . S
Zn1667 O1676 1.977 . S
O1668 Zn1667 2.032 . S
O1668 C1672 1.278 . S
C1669 O1670 1.203 1_565 S
C1669 O1676 1.267 . S
O1670 C1669 1.203 1_545 S
O1671 C1664 1.185 . S
O1671 Zn1667 2.086 . S
C1672 O1668 1.278 . S
C1672 O1673 1.211 . S
O1673 C1672 1.211 . S
C1674 O1666 1.284 . S
C1674 O1675 1.273 . S
O1675 C1674 1.273 . S
O1676 Zn1667 1.977 . S
O1676 C1669 1.267 . S
C1677 O1678 1.160 . S
C1677 O1684 1.185 . S
O1678 C1677 1.160 . S
O1679 Zn1680 1.899 . S
O1679 C1687 1.284 . S
Zn1680 O1679 1.899 . S
Zn1680 O1681 2.032 . S
Zn1680 O1684 2.086 . S
Zn1680 O1689 1.977 . S
O1681 Zn1680 2.032 . S
O1681 C1685 1.278 . S
C1682 O1683 1.203 . S
C1682 O1689 1.267 . S
O1683 C1682 1.203 . S
O1684 C1677 1.185 . S
O1684 Zn1680 2.086 . S
C1685 O1681 1.278 . S
C1685 O1686 1.211 . S
O1686 C1685 1.211 . S
C1687 O1679 1.284 . S
C1687 O1688 1.273 . S
O1688 C1687 1.273 . S
O1689 Zn1680 1.977 . S
O1689 C1682 1.267 . S
C1690 O1691 1.160 . S
C1690 O1697 1.185 . S
O1691 C1690 1.160 . S
O1692 Zn1693 1.899 . S
O1692 C1700 1.284 . S
Zn1693 O1692 1.899 . S
Zn1693 O1694 2.032 . S
Zn1693 O1697 2.086 . S
Zn1693 O1702 1.977 . S
O1694 Zn1693 2.032 . S
O1694 C1698 1.278 . S
C1695 O1696 1.203 . S
C1695 O1702 1.267 . S
O1696 C1695 1.203 . S
O1697 C1690 1.185 . S
O1697 Zn1693 2.086 . S
C1698 O1694 1.278 . S
C1698 O1699 1.211 . S
O1699 C1698 1.211 . S
C1700 O1692 1.284 . S
C1700 O1701 1.273 . S
O1701 C1700 1.273 . S
O1702 Zn1693 1.977 . S
O1702 C1695 1.267 . S
C1703 O1704 1.160 . S
C1703 O1710 1.185 . S
O1704 C1703 1.160 . S
O1705 Zn1706 1.899 . S
O1705 C1713 1.284 . S
Zn1706 O1705 1.899 . S
Zn1706 O1707 2.032 . S
Zn1706 O1710 2.086 . S
Zn1706 O1715 1.977 . S
O1707 Zn1706 2.032 . S
O1707 C1711 1.278 . S
C1708 O1709 1.203 . S
C1708 O1715 1.267 . S
O1709 C1708 1.203 . S
O1710 C1703 1.185 . S
O1710 Zn1706 2.086 . S
C1711 O1707 1.278 . S
C1711 O1712 1.211 . S
O1712 C1711 1.211 . S
C1713 O1705 1.284 . S
C1713 O1714 1.273 . S
O1714 C1713 1.273 . S
O1715 Zn1706 1.977 . S
O1715 C1708 1.267 . S
C1716 O1717 1.160 . S
C1716 O1723 1.185 . S
O1717 C1716 1.160 . S
O1718 Zn1719 1.899 . S
O1718 C1726 1.284 . S
Zn1719 O1718 1.899 . S
Zn1719 O1720 2.032 . S
Zn1719 O1723 2.086 . S
Zn1719 O1728 1.977 . S
O1720 Zn1719 2.032 . S
O1720 C1724 1.278 . S
C1721 O1722 1.203 . S
C1721 O1728 1.267 . S
O1722 C1721 1.203 . S
O1723 C1716 1.185 . S
O1723 Zn1719 2.086 . S
C1724 O1720 1.278 . S
C1724 O1725 1.211 . S
O1725 C1724 1.211 . S
C1726 O1718 1.284 . S
C1726 O1727 1.273 . S
O1727 C1726 1.273 . S
O1728 Zn1719 1.977 . S
O1728 C1721 1.267 . S
C1729 O1730 1.160 . S
C1729 O1736 1.185 . S
O1730 C1729 1.160 . S
O1731 Zn1732 1.899 . S
O1731 C1739 1.284 . S
Zn1732 O1731 1.899 . S
Zn1732 O1733 2.032 . S
Zn1732 O1736 2.086 . S
Zn1732 O1741 1.977 . S
O1733 Zn1732 2.032 . S
O1733 C1737 1.278 . S
C1734 O1735 1.203 . S
C1734 O1741 1.267 . S
O1735 C1734 1.203 . S
O1736 C1729 1.185 . S
O1736 Zn1732 2.086 . S
C1737 O1733 1.278 . S
C1737 O1738 1.211 . S
O1738 C1737 1.211 . S
C1739 O1731 1.284 . S
C1739 O1740 1.273 . S
O1740 C1739 1.273 . S
O1741 Zn1732 1.977 . S
O1741 C1734 1.267 . S
C1742 O1743 1.160 . S
C1742 O1749 1.185 . S
O1743 C1742 1.160 . S
O1744 Zn1745 1.899 . S
O1744 C1752 1.284 . S
Zn1745 O1744 1.899 . S
Zn1745 O1746 2.032 . S
Zn1745 O1749 2.086 . S
Zn1745 O1754 1.977 . S
O1746 Zn1745 2.032 . S
O1746 C1750 1.278 . S
C1747 O1748 1.203 1_565 S
C1747 O1754 1.267 . S
O1748 C1747 1.203 1_545 S
O1749 C1742 1.185 . S
O1749 Zn1745 2.086 . S
C1750 O1746 1.278 . S
C1750 O1751 1.211 . S
O1751 C1750 1.211 . S
C1752 O1744 1.284 . S
C1752 O1753 1.273 . S
O1753 C1752 1.273 . S
O1754 Zn1745 1.977 . S
O1754 C1747 1.267 . S
C1755 O1756 1.160 . S
C1755 O1762 1.185 . S
O1756 C1755 1.160 . S
O1757 Zn1758 1.899 . S
O1757 C1765 1.284 . S
Zn1758 O1757 1.899 . S
Zn1758 O1759 2.032 . S
Zn1758 O1762 2.086 . S
Zn1758 O1767 1.977 . S
O1759 Zn1758 2.032 . S
O1759 C1763 1.278 . S
C1760 O1761 1.203 . S
C1760 O1767 1.267 . S
O1761 C1760 1.203 . S
O1762 C1755 1.185 . S
O1762 Zn1758 2.086 . S
C1763 O1759 1.278 . S
C1763 O1764 1.211 . S
O1764 C1763 1.211 . S
C1765 O1757 1.284 . S
C1765 O1766 1.273 . S
O1766 C1765 1.273 . S
O1767 Zn1758 1.977 . S
O1767 C1760 1.267 . S
C1768 O1769 1.160 . S
C1768 O1775 1.185 . S
O1769 C1768 1.160 . S
O1770 Zn1771 1.899 . S
O1770 C1778 1.284 . S
Zn1771 O1770 1.899 . S
Zn1771 O1772 2.032 . S
Zn1771 O1775 2.086 . S
Zn1771 O1780 1.977 . S
O1772 Zn1771 2.032 . S
O1772 C1776 1.278 . S
C1773 O1774 1.203 . S
C1773 O1780 1.267 . S
O1774 C1773 1.203 . S
O1775 C1768 1.185 . S
O1775 Zn1771 2.086 . S
C1776 O1772 1.278 . S
C1776 O1777 1.211 . S
O1777 C1776 1.211 . S
C1778 O1770 1.284 . S
C1778 O1779 1.273 . S
O1779 C1778 1.273 . S
O1780 Zn1771 1.977 . S
O1780 C1773 1.267 . S
C1781 O1782 1.160 . S
C1781 O1788 1.185 . S
O1782 C1781 1.160 . S
O1783 Zn1784 1.899 . S
O1783 C1791 1.284 . S
Zn1784 O1783 1.899 . S
Zn1784 O1785 2.032 . S
Zn1784 O1788 2.086 . S
Zn1784 O1793 1.977 . S
O1785 Zn1784 2.032 . S
O1785 C1789 1.278 . S
C1786 O1787 1.203 . S
C1786 O1793 1.267 . S
O1787 C1786 1.203 . S
O1788 C1781 1.185 . S
O1788 Zn1784 2.086 . S
C1789 O1785 1.278 . S
C1789 O1790 1.211 . S
O1790 C1789 1.211 . S
C1791 O1783 1.284 . S
C1791 O1792 1.273 . S
O1792 C1791 1.273 . S
O1793 Zn1784 1.977 . S
O1793 C1786 1.267 . S
C1794 O1795 1.160 . S
C1794 O1801 1.185 . S
O1795 C1794 1.160 . S
O1796 Zn1797 1.899 . S
O1796 C1804 1.284 . S
Zn1797 O1796 1.899 . S
Zn1797 O1798 2.032 . S
Zn1797 O1801 2.086 . S
Zn1797 O1806 1.977 . S
O1798 Zn1797 2.032 . S
O1798 C1802 1.278 . S
C1799 O1800 1.203 1_554 S
C1799 O1806 1.267 . S
O1800 C1799 1.203 1_556 S
O1801 C1794 1.185 . S
O1801 Zn1797 2.086 . S
C1802 O1798 1.278 . S
C1802 O1803 1.211 . S
O1803 C1802 1.211 . S
C1804 O1796 1.284 . S
C1804 O1805 1.273 . S
O1805 C1804 1.273 . S
O1806 Zn1797 1.977 . S
O1806 C1799 1.267 . S
C1807 O1808 1.160 . S
C1807 O1814 1.185 . S
O1808 C1807 1.160 . S
O1809 Zn1810 1.899 . S
O1809 C1817 1.284 . S
Zn1810 O1809 1.899 . S
Zn1810 O1811 2.032 . S
Zn1810 O1814 2.086 . S
Zn1810 O1819 1.977 . S
O1811 Zn1810 2.032 . S
O1811 C1815 1.278 . S
C1812 O1813 1.203 . S
C1812 O1819 1.267 . S
O1813 C1812 1.203 . S
O1814 C1807 1.185 . S
O1814 Zn1810 2.086 . S
C1815 O1811 1.278 . S
C1815 O1816 1.211 . S
O1816 C1815 1.211 . S
C1817 O1809 1.284 . S
C1817 O1818 1.273 . S
O1818 C1817 1.273 . S
O1819 Zn1810 1.977 . S
O1819 C1812 1.267 . S
C1820 O1821 1.160 . S
C1820 O1827 1.185 . S
O1821 C1820 1.160 . S
O1822 Zn1823 1.899 . S
O1822 C1830 1.284 . S
Zn1823 O1822 1.899 . S
Zn1823 O1824 2.032 . S
Zn1823 O1827 2.086 . S
Zn1823 O1832 1.977 . S
O1824 Zn1823 2.032 . S
O1824 C1828 1.278 . S
C1825 O1826 1.203 1_554 S
C1825 O1832 1.267 . S
O1826 C1825 1.203 1_556 S
O1827 C1820 1.185 . S
O1827 Zn1823 2.086 . S
C1828 O1824 1.278 . S
C1828 O1829 1.211 . S
O1829 C1828 1.211 . S
C1830 O1822 1.284 . S
C1830 O1831 1.273 . S
O1831 C1830 1.273 . S
O1832 Zn1823 1.977 . S
O1832 C1825 1.267 . S
C1833 O1834 1.160 . S
C1833 O1840 1.185 . S
O1834 C1833 1.160 . S
O1835 Zn1836 1.899 . S
O1835 C1843 1.284 . S
Zn1836 O1835 1.899 . S
Zn1836 O1837 2.032 . S
Zn1836 O1840 2.086 . S
Zn1836 O1845 1.977 . S
O1837 Zn1836 2.032 . S
O1837 C1841 1.278 . S
C1838 O1839 1.203 . S
C1838 O1845 1.267 . S
O1839 C1838 1.203 . S
O1840 C1833 1.185 . S
O1840 Zn1836 2.086 . S
C1841 O1837 1.278 . S
C1841 O1842 1.211 . S
O1842 C1841 1.211 . S
C1843 O1835 1.284 . S
C1843 O1844 1.273 . S
O1844 C1843 1.273 . S
O1845 Zn1836 1.977 . S
O1845 C1838 1.267 . S
C1846 O1847 1.160 . S
C1846 O1853 1.185 . S
O1847 C1846 1.160 . S
O1848 Zn1849 1.899 . S
O1848 C1856 1.284 . S
Zn1849 O1848 1.899 . S
Zn1849 O1850 2.032 . S
Zn1849 O1853 2.086 . S
Zn1849 O1858 1.977 . S
O1850 Zn1849 2.032 . S
O1850 C1854 1.278 . S
C1851 O1852 1.203 . S
C1851 O1858 1.267 . S
O1852 C1851 1.203 . S
O1853 C1846 1.185 . S
O1853 Zn1849 2.086 . S
C1854 O1850 1.278 . S
C1854 O1855 1.211 . S
O1855 C1854 1.211 . S
C1856 O1848 1.284 . S
C1856 O1857 1.273 . S
O1857 C1856 1.273 . S
O1858 Zn1849 1.977 . S
O1858 C1851 1.267 . S
C1859 O1860 1.160 . S
C1859 O1866 1.185 . S
O1860 C1859 1.160 . S
O1861 Zn1862 1.899 . S
O1861 C1869 1.284 . S
Zn1862 O1861 1.899 . S
Zn1862 O1863 2.032 . S
Zn1862 O1866 2.086 . S
Zn1862 O1871 1.977 . S
O1863 Zn1862 2.032 . S
O1863 C1867 1.278 . S
C1864 O1865 1.203 . S
C1864 O1871 1.267 . S
O1865 C1864 1.203 . S
O1866 C1859 1.185 . S
O1866 Zn1862 2.086 . S
C1867 O1863 1.278 . S
C1867 O1868 1.211 . S
O1868 C1867 1.211 . S
C1869 O1861 1.284 . S
C1869 O1870 1.273 . S
O1870 C1869 1.273 . S
O1871 Zn1862 1.977 . S
O1871 C1864 1.267 . S
C1872 O1873 1.160 . S
C1872 O1879 1.185 . S
O1873 C1872 1.160 . S
O1874 Zn1875 1.899 . S
O1874 C1882 1.284 . S
Zn1875 O1874 1.899 . S
Zn1875 O1876 2.032 . S
Zn1875 O1879 2.086 . S
Zn1875 O1884 1.977 . S
O1876 Zn1875 2.032 . S
O1876 C1880 1.278 . S
C1877 O1878 1.203 . S
C1877 O1884 1.267 . S
O1878 C1877 1.203 . S
O1879 C1872 1.185 . S
O1879 Zn1875 2.086 . S
C1880 O1876 1.278 . S
C1880 O1881 1.211 . S
O1881 C1880 1.211 . S
C1882 O1874 1.284 . S
C1882 O1883 1.273 . S
O1883 C1882 1.273 . S
O1884 Zn1875 1.977 . S
O1884 C1877 1.267 . S
C1885 O1886 1.160 . S
C1885 O1892 1.185 . S
O1886 C1885 1.160 . S
O1887 Zn1888 1.899 . S
O1887 C1895 1.284 . S
Zn1888 O1887 1.899 . S
Zn1888 O1889 2.032 . S
Zn1888 O1892 2.086 . S
Zn1888 O1897 1.977 . S
O1889 Zn1888 2.032 . S
O1889 C1893 1.278 . S
C1890 O1891 1.203 . S
C1890 O1897 1.267 . S
O1891 C1890 1.203 . S
O1892 C1885 1.185 . S
O1892 Zn1888 2.086 . S
C1893 O1889 1.278 . S
C1893 O1894 1.211 . S
O1894 C1893 1.211 . S
C1895 O1887 1.284 . S
C1895 O1896 1.273 . S
O1896 C1895 1.273 . S
O1897 Zn1888 1.977 . S
O1897 C1890 1.267 . S
C1898 O1899 1.160 . S
C1898 O1905 1.185 . S
O1899 C1898 1.160 . S
O1900 Zn1901 1.899 . S
O1900 C1908 1.284 . S
Zn1901 O1900 1.899 . S
Zn1901 O1902 2.032 . S
Zn1901 O1905 2.086 . S
Zn1901 O1910 1.977 . S
O1902 Zn1901 2.032 . S
O1902 C1906 1.278 . S
C1903 O1904 1.203 . S
C1903 O1910 1.267 . S
O1904 C1903 1.203 . S
O1905 C1898 1.185 . S
O1905 Zn1901 2.086 . S
C1906 O1902 1.278 . S
C1906 O1907 1.211 . S
O1907 C1906 1.211 . S
C1908 O1900 1.284 . S
C1908 O1909 1.273 . S
O1909 C1908 1.273 . S
O1910 Zn1901 1.977 . S
O1910 C1903 1.267 . S
C1911 O1912 1.160 . S
C1911 O1918 1.185 . S
O1912 C1911 1.160 . S
O1913 Zn1914 1.899 . S
O1913 C1921 1.284 . S
Zn1914 O1913 1.899 . S
Zn1914 O1915 2.032 . S
Zn1914 O1918 2.086 . S
Zn1914 O1923 1.977 . S
O1915 Zn1914 2.032 . S
O1915 C1919 1.278 . S
C1916 O1917 1.203 . S
C1916 O1923 1.267 . S
O1917 C1916 1.203 . S
O1918 C1911 1.185 . S
O1918 Zn1914 2.086 . S
C1919 O1915 1.278 . S
C1919 O1920 1.211 . S
O1920 C1919 1.211 . S
C1921 O1913 1.284 . S
C1921 O1922 1.273 . S
O1922 C1921 1.273 . S
O1923 Zn1914 1.977 . S
O1923 C1916 1.267 . S
C1924 O1925 1.160 . S
C1924 O1931 1.185 . S
O1925 C1924 1.160 . S
O1926 Zn1927 1.899 . S
O1926 C1934 1.284 . S
Zn1927 O1926 1.899 . S
Zn1927 O1928 2.032 . S
Zn1927 O1931 2.086 . S
Zn1927 O1936 1.977 . S
O1928 Zn1927 2.032 . S
O1928 C1932 1.278 . S
C1929 O1930 1.203 . S
C1929 O1936 1.267 . S
O1930 C1929 1.203 . S
O1931 C1924 1.185 . S
O1931 Zn1927 2.086 . S
C1932 O1928 1.278 . S
C1932 O1933 1.211 . S
O1933 C1932 1.211 . S
C1934 O1926 1.284 . S
C1934 O1935 1.273 . S
O1935 C1934 1.273 . S
O1936 Zn1927 1.977 . S
O1936 C1929 1.267 . S
C1937 O1938 1.160 . S
C1937 O1944 1.185 . S
O1938 C1937 1.160 . S
O1939 Zn1940 1.899 . S
O1939 C1947 1.284 . S
Zn1940 O1939 1.899 . S
Zn1940 O1941 2.032 . S
Zn1940 O1944 2.086 . S
Zn1940 O1949 1.977 . S
O1941 Zn1940 2.032 . S
O1941 C1945 1.278 . S
C1942 O1943 1.203 . S
C1942 O1949 1.267 . S
O1943 C1942 1.203 . S
O1944 C1937 1.185 . S
O1944 Zn1940 2.086 . S
C1945 O1941 1.278 . S
C1945 O1946 1.211 . S
O1946 C1945 1.211 . S
C1947 O1939 1.284 . S
C1947 O1948 1.273 . S
O1948 C1947 1.273 . S
O1949 Zn1940 1.977 . S
O1949 C1942 1.267 . S
C1950 O1951 1.160 . S
C1950 O1957 1.185 . S
O1951 C1950 1.160 . S
O1952 Zn1953 1.899 . S
O1952 C1960 1.284 . S
Zn1953 O1952 1.899 . S
Zn1953 O1954 2.032 . S
Zn1953 O1957 2.086 . S
Zn1953 O1962 1.977 . S
O1954 Zn1953 2.032 . S
O1954 C1958 1.278 . S
C1955 O1956 1.203 . S
C1955 O1962 1.267 . S
O1956 C1955 1.203 . S
O1957 C1950 1.185 . S
O1957 Zn1953 2.086 . S
C1958 O1954 1.278 . S
C1958 O1959 1.211 . S
O1959 C1958 1.211 . S
C1960 O1952 1.284 . S
C1960 O1961 1.273 . S
O1961 C1960 1.273 . S
O1962 Zn1953 1.977 . S
O1962 C1955 1.267 . S
C1963 O1964 1.160 . S
C1963 O1970 1.185 . S
O1964 C1963 1.160 . S
O1965 Zn1966 1.899 . S
O1965 C1973 1.284 . S
Zn1966 O1965 1.899 . S
Zn1966 O1967 2.032 . S
Zn1966 O1970 2.086 . S
Zn1966 O1975 1.977 . S
O1967 Zn1966 2.032 . S
O1967 C1971 1.278 . S
C1968 O1969 1.203 . S
C1968 O1975 1.267 . S
O1969 C1968 1.203 . S
O1970 C1963 1.185 . S
O1970 Zn1966 2.086 . S
C1971 O1967 1.278 . S
C1971 O1972 1.211 . S
O1972 C1971 1.211 . S
C1973 O1965 1.284 . S
C1973 O1974 1.273 . S
O1974 C1973 1.273 . S
O1975 Zn1966 1.977 . S
O1975 C1968 1.267 . S
C1976 O1977 1.160 . S
C1976 O1983 1.185 . S
O1977 C1976 1.160 . S
O1978 Zn1979 1.899 . S
O1978 C1986 1.284 . S
Zn1979 O1978 1.899 . S
Zn1979 O1980 2.032 . S
Zn1979 O1983 2.086 . S
Zn1979 O1988 1.977 . S
O1980 Zn1979 2.032 . S
O1980 C1984 1.278 . S
C1981 O1982 1.203 . S
C1981 O1988 1.267 . S
O1982 C1981 1.203 . S
O1983 C1976 1.185 . S
O1983 Zn1979 2.086 . S
C1984 O1980 1.278 . S
C1984 O1985 1.211 . S
O1985 C1984 1.211 . S
C1986 O1978 1.284 . S
C1986 O1987 1.273 . S
O1987 C1986 1.273 . S
O1988 Zn1979 1.977 . S
O1988 C1981 1.267 . S
C1989 O1990 1.160 . S
C1989 O1996 1.185 . S
O1990 C1989 1.160 . S
O1991 Zn1992 1.899 . S
O1991 C1999 1.284 . S
Zn1992 O1991 1.899 . S
Zn1992 O1993 2.032 . S
Zn1992 O1996 2.086 . S
Zn1992 O2001 1.977 . S
O1993 Zn1992 2.032 . S
O1993 C1997 1.278 . S
C1994 O1995 1.203 . S
C1994 O2001 1.267 . S
O1995 C1994 1.203 . S
O1996 C1989 1.185 . S
O1996 Zn1992 2.086 . S
C1997 O1993 1.278 . S
C1997 O1998 1.211 . S
O1998 C1997 1.211 . S
C1999 O1991 1.284 . S
C1999 O2000 1.273 . S
O2000 C1999 1.273 . S
O2001 Zn1992 1.977 . S
O2001 C1994 1.267 . S
C2002 O2003 1.160 . S
C2002 O2009 1.185 . S
O2003 C2002 1.160 . S
O2004 Zn2005 1.899 . S
O2004 C2012 1.284 . S
Zn2005 O2004 1.899 . S
Zn2005 O2006 2.032 . S
Zn2005 O2009 2.086 . S
Zn2005 O2014 1.977 . S
O2006 Zn2005 2.032 . S
O2006 C2010 1.278 . S
C2007 O2008 1.203 . S
C2007 O2014 1.267 . S
O2008 C2007 1.203 . S
O2009 C2002 1.185 . S
O2009 Zn2005 2.086 . S
C2010 O2006 1.278 . S
C2010 O2011 1.211 . S
O2011 C2010 1.211 . S
C2012 O2004 1.284 . S
C2012 O2013 1.273 . S
O2013 C2012 1.273 . S
O2014 Zn2005 1.977 . S
O2014 C2007 1.267 . S
C2015 O2016 1.160 . S
C2015 O2022 1.185 . S
O2016 C2015 1.160 . S
O2017 Zn2018 1.899 . S
O2017 C2025 1.284 . S
Zn2018 O2017 1.899 . S
Zn2018 O2019 2.032 . S
Zn2018 O2022 2.086 . S
Zn2018 O2027 1.977 . S
O2019 Zn2018 2.032 . S
O2019 C2023 1.278 . S
C2020 O2021 1.203 . S
C2020 O2027 1.267 . S
O2021 C2020 1.203 . S
O2022 C2015 1.185 . S
O2022 Zn2018 2.086 . S
C2023 O2019 1.278 . S
C2023 O2024 1.211 . S
O2024 C2023 1.211 . S
C2025 O2017 1.284 . S
C2025 O2026 1.273 . S
O2026 C2025 1.273 . S
O2027 Zn2018 1.977 . S
O2027 C2020 1.267 . S
C2028 O2029 1.160 . S
C2028 O2035 1.185 . S
O2029 C2028 1.160 . S
O2030 Zn2031 1.899 . S
O2030 C2038 1.284 . S
Zn2031 O2030 1.899 . S
Zn2031 O2032 2.032 . S
Zn2031 O2035 2.086 . S
Zn2031 O2040 1.977 . S
O2032 Zn2031 2.032 . S
O2032 C2036 1.278 . S
C2033 O2034 1.203 . S
C2033 O2040 1.267 . S
O2034 C2033 1.203 . S
O2035 C2028 1.185 . S
O2035 Zn2031 2.086 . S
C2036 O2032 1.278 . S
C2036 O2037 1.211 . S
O2037 C2036 1.211 . S
C2038 O2030 1.284 . S
C2038 O2039 1.273 . S
O2039 C2038 1.273 . S
O2040 Zn2031 1.977 . S
O2040 C2033 1.267 . S
C2041 O2042 1.160 . S
C2041 O2048 1.185 . S
O2042 C2041 1.160 . S
O2043 Zn2044 1.899 . S
O2043 C2051 1.284 . S
Zn2044 O2043 1.899 . S
Zn2044 O2045 2.032 . S
Zn2044 O2048 2.086 . S
Zn2044 O2053 1.977 . S
O2045 Zn2044 2.032 . S
O2045 C2049 1.278 . S
C2046 O2047 1.203 . S
C2046 O2053 1.267 . S
O2047 C2046 1.203 . S
O2048 C2041 1.185 . S
O2048 Zn2044 2.086 . S
C2049 O2045 1.278 . S
C2049 O2050 1.211 . S
O2050 C2049 1.211 . S
C2051 O2043 1.284 . S
C2051 O2052 1.273 . S
O2052 C2051 1.273 . S
O2053 Zn2044 1.977 . S
O2053 C2046 1.267 . S
C2054 O2055 1.160 . S
C2054 O2061 1.185 . S
O2055 C2054 1.160 . S
O2056 Zn2057 1.899 . S
O2056 C2064 1.284 . S
Zn2057 O2056 1.899 . S
Zn2057 O2058 2.032 . S
Zn2057 O2061 2.086 . S
Zn2057 O2066 1.977 . S
O2058 Zn2057 2.032 . S
O2058 C2062 1.278 . S
C2059 O2060 1.203 . S
C2059 O2066 1.267 . S
O2060 C2059 1.203 . S
O2061 C2054 1.185 . S
O2061 Zn2057 2.086 . S
C2062 O2058 1.278 . S
C2062 O2063 1.211 . S
O2063 C2062 1.211 . S
C2064 O2056 1.284 . S
C2064 O2065 1.273 . S
O2065 C2064 1.273 . S
O2066 Zn2057 1.977 . S
O2066 C2059 1.267 . S
C2067 O2068 1.160 . S
C2067 O2074 1.185 . S
O2068 C2067 1.160 . S
O2069 Zn2070 1.899 . S
O2069 C2077 1.284 . S
Zn2070 O2069 1.899 . S
Zn2070 O2071 2.032 . S
Zn2070 O2074 2.086 . S
Zn2070 O2079 1.977 . S
O2071 Zn2070 2.032 . S
O2071 C2075 1.278 . S
C2072 O2073 1.203 . S
C2072 O2079 1.267 . S
O2073 C2072 1.203 . S
O2074 C2067 1.185 . S
O2074 Zn2070 2.086 . S
C2075 O2071 1.278 . S
C2075 O2076 1.211 . S
O2076 C2075 1.211 . S
C2077 O2069 1.284 . S
C2077 O2078 1.273 . S
O2078 C2077 1.273 . S
O2079 Zn2070 1.977 . S
O2079 C2072 1.267 . S
C2080 O2081 1.160 . S
C2080 O2087 1.185 . S
O2081 C2080 1.160 . S
O2082 Zn2083 1.899 . S
O2082 C2090 1.284 . S
Zn2083 O2082 1.899 . S
Zn2083 O2084 2.032 . S
Zn2083 O2087 2.086 . S
Zn2083 O2092 1.977 . S
O2084 Zn2083 2.032 . S
O2084 C2088 1.278 . S
C2085 O2086 1.203 1_554 S
C2085 O2092 1.267 . S
O2086 C2085 1.203 1_556 S
O2087 C2080 1.185 . S
O2087 Zn2083 2.086 . S
C2088 O2084 1.278 . S
C2088 O2089 1.211 . S
O2089 C2088 1.211 . S
C2090 O2082 1.284 . S
C2090 O2091 1.273 . S
O2091 C2090 1.273 . S
O2092 Zn2083 1.977 . S
O2092 C2085 1.267 . S
C2093 O2094 1.160 . S
C2093 O2100 1.185 . S
O2094 C2093 1.160 . S
O2095 Zn2096 1.899 . S
O2095 C2103 1.284 . S
Zn2096 O2095 1.899 . S
Zn2096 O2097 2.032 . S
Zn2096 O2100 2.086 . S
Zn2096 O2105 1.977 . S
O2097 Zn2096 2.032 . S
O2097 C2101 1.278 . S
C2098 O2099 1.203 . S
C2098 O2105 1.267 . S
O2099 C2098 1.203 . S
O2100 C2093 1.185 . S
O2100 Zn2096 2.086 . S
C2101 O2097 1.278 . S
C2101 O2102 1.211 . S
O2102 C2101 1.211 . S
C2103 O2095 1.284 . S
C2103 O2104 1.273 . S
O2104 C2103 1.273 . S
O2105 Zn2096 1.977 . S
O2105 C2098 1.267 . S
C2106 O2107 1.160 . S
C2106 O2113 1.185 . S
O2107 C2106 1.160 . S
O2108 Zn2109 1.899 . S
O2108 C2116 1.284 . S
Zn2109 O2108 1.899 . S
Zn2109 O2110 2.032 . S
Zn2109 O2113 2.086 . S
Zn2109 O2118 1.977 . S
O2110 Zn2109 2.032 . S
O2110 C2114 1.278 . S
C2111 O2112 1.203 . S
C2111 O2118 1.267 . S
O2112 C2111 1.203 . S
O2113 C2106 1.185 . S
O2113 Zn2109 2.086 . S
C2114 O2110 1.278 . S
C2114 O2115 1.211 . S
O2115 C2114 1.211 . S
C2116 O2108 1.284 . S
C2116 O2117 1.273 . S
O2117 C2116 1.273 . S
O2118 Zn2109 1.977 . S
O2118 C2111 1.267 . S
C2119 O2120 1.160 . S
C2119 O2126 1.185 . S
O2120 C2119 1.160 . S
O2121 Zn2122 1.899 . S
O2121 C2129 1.284 . S
Zn2122 O2121 1.899 . S
Zn2122 O2123 2.032 . S
Zn2122 O2126 2.086 . S
Zn2122 O2131 1.977 . S
O2123 Zn2122 2.032 . S
O2123 C2127 1.278 . S
C2124 O2125 1.203 . S
C2124 O2131 1.267 . S
O2125 C2124 1.203 . S
O2126 C2119 1.185 . S
O2126 Zn2122 2.086 . S
C2127 O2123 1.278 . S
C2127 O2128 1.211 . S
O2128 C2127 1.211 . S
C2129 O2121 1.284 . S
C2129 O2130 1.273 . S
O2130 C2129 1.273 . S
O2131 Zn2122 1.977 . S
O2131 C2124 1.267 . S
C2132 O2133 1.160 . S
C2132 O2139 1.185 . S
O2133 C2132 1.160 . S
O2134 Zn2135 1.899 . S
O2134 C2142 1.284 . S
Zn2135 O2134 1.899 . S
Zn2135 O2136 2.032 . S
Zn2135 O2139 2.086 . S
Zn2135 O2144 1.977 . S
O2136 Zn2135 2.032 . S
O2136 C2140 1.278 . S
C2137 O2138 1.203 . S
C2137 O2144 1.267 . S
O2138 C2137 1.203 . S
O2139 C2132 1.185 . S
O2139 Zn2135 2.086 . S
C2140 O2136 1.278 . S
C2140 O2141 1.211 . S
O2141 C2140 1.211 . S
C2142 O2134 1.284 . S
C2142 O2143 1.273 . S
O2143 C2142 1.273 . S
O2144 Zn2135 1.977 . S
O2144 C2137 1.267 . S
C2145 O2146 1.160 . S
C2145 O2152 1.185 . S
O2146 C2145 1.160 . S
O2147 Zn2148 1.899 . S
O2147 C2155 1.284 . S
Zn2148 O2147 1.899 . S
Zn2148 O2149 2.032 . S
Zn2148 O2152 2.086 . S
Zn2148 O2157 1.977 . S
O2149 Zn2148 2.032 . S
O2149 C2153 1.278 . S
C2150 O2151 1.203 1_554 S
C2150 O2157 1.267 . S
O2151 C2150 1.203 1_556 S
O2152 C2145 1.185 . S
O2152 Zn2148 2.086 . S
C2153 O2149 1.278 . S
C2153 O2154 1.211 . S
O2154 C2153 1.211 . S
C2155 O2147 1.284 . S
C2155 O2156 1.273 . S
O2156 C2155 1.273 . S
O2157 Zn2148 1.977 . S
O2157 C2150 1.267 . S
C2158 O2159 1.160 . S
C2158 O2165 1.185 . S
O2159 C2158 1.160 . S
O2160 Zn2161 1.899 . S
O2160 C2168 1.284 . S
Zn2161 O2160 1.899 . S
Zn2161 O2162 2.032 . S
Zn2161 O2165 2.086 . S
Zn2161 O2170 1.977 . S
O2162 Zn2161 2.032 . S
O2162 C2166 1.278 . S
C2163 O2164 1.203 . S
C2163 O2170 1.267 . S
O2164 C2163 1.203 . S
O2165 C2158 1.185 . S
O2165 Zn2161 2.086 . S
C2166 O2162 1.278 . S
C2166 O2167 1.211 . S
O2167 C2166 1.211 . S
C2168 O2160 1.284 . S
C2168 O2169 1.273 . S
O2169 C2168 1.273 . S
O2170 Zn2161 1.977 . S
O2170 C2163 1.267 . S
C2171 O2172 1.160 . S
C2171 O2178 1.185 . S
O2172 C2171 1.160 . S
O2173 Zn2174 1.899 . S
O2173 C2181 1.284 . S
Zn2174 O2173 1.899 . S
Zn2174 O2175 2.032 . S
Zn2174 O2178 2.086 . S
Zn2174 O2183 1.977 . S
O2175 Zn2174 2.032 . S
O2175 C2179 1.278 . S
C2176 O2177 1.203 . S
C2176 O2183 1.267 . S
O2177 C2176 1.203 . S
O2178 C2171 1.185 . S
O2178 Zn2174 2.086 . S
C2179 O2175 1.278 . S
C2179 O2180 1.211 . S
O2180 C2179 1.211 . S
C2181 O2173 1.284 . S
C2181 O2182 1.273 . S
O2182 C2181 1.273 . S
O2183 Zn2174 1.977 . S
O2183 C2176 1.267 . S
C2184 O2185 1.160 . S
C2184 O2191 1.185 . S
O2185 C2184 1.160 . S
O2186 Zn2187 1.899 . S
O2186 C2194 1.284 . S
Zn2187 O2186 1.899 . S
Zn2187 O2188 2.032 . S
Zn2187 O2191 2.086 . S
Zn2187 O2196 1.977 . S
O2188 Zn2187 2.032 . S
O2188 C2192 1.278 . S
C2189 O2190 1.203 . S
C2189 O2196 1.267 . S
O2190 C2189 1.203 . S
O2191 C2184 1.185 . S
O2191 Zn2187 2.086 . S
C2192 O2188 1.278 . S
C2192 O2193 1.211 . S
O2193 C2192 1.211 . S
C2194 O2186 1.284 . S
C2194 O2195 1.273 . S
O2195 C2194 1.273 . S
O2196 Zn2187 1.977 . S
O2196 C2189 1.267 . S
C2197 O2198 1.160 . S
C2197 O2204 1.185 . S
O2198 C2197 1.160 . S
O2199 Zn2200 1.899 . S
O2199 C2207 1.284 . S
Zn2200 O2199 1.899 . S
Zn2200 O2201 2.032 . S
Zn2200 O2204 2.086 . S
Zn2200 O2209 1.977 . S
O2201 Zn2200 2.032 . S
O2201 C2205 1.278 . S
C2202 O2203 1.203 . S
C2202 O2209 1.267 . S
O2203 C2202 1.203 . S
O2204 C2197 1.185 . S
O2204 Zn2200 2.086 . S
C2205 O2201 1.278 . S
C2205 O2206 1.211 . S
O2206 C2205 1.211 . S
C2207 O2199 1.284 . S
C2207 O2208 1.273 . S
O2208 C2207 1.273 . S
O2209 Zn2200 1.977 . S
O2209 C2202 1.267 . S
C2210 O2211 1.160 . S
C2210 O2217 1.185 . S
O2211 C2210 1.160 . S
O2212 Zn2213 1.899 . S
O2212 C2220 1.284 . S
Zn2213 O2212 1.899 . S
Zn2213 O2214 2.032 . S
Zn2213 O2217 2.086 . S
Zn2213 O2222 1.977 . S
O2214 Zn2213 2.032 . S
O2214 C2218 1.278 . S
C2215 O2216 1.203 . S
C2215 O2222 1.267 . S
O2216 C2215 1.203 . S
O2217 C2210 1.185 . S
O2217 Zn2213 2.086 . S
C2218 O2214 1.278 . S
C2218 O2219 1.211 . S
O2219 C2218 1.211 . S
C2220 O2212 1.284 . S
C2220 O2221 1.273 . S
O2221 C2220 1.273 . S
O2222 Zn2213 1.977 . S
O2222 C2215 1.267 . S
C2223 O2224 1.160 . S
C2223 O2230 1.185 . S
O2224 C2223 1.160 . S
O2225 Zn2226 1.899 . S
O2225 C2233 1.284 . S
Zn2226 O2225 1.899 . S
Zn2226 O2227 2.032 . S
Zn2226 O2230 2.086 . S
Zn2226 O2235 1.977 . S
O2227 Zn2226 2.032 . S
O2227 C2231 1.278 . S
C2228 O2229 1.203 . S
C2228 O2235 1.267 . S
O2229 C2228 1.203 . S
O2230 C2223 1.185 . S
O2230 Zn2226 2.086 . S
C2231 O2227 1.278 . S
C2231 O2232 1.211 . S
O2232 C2231 1.211 . S
C2233 O2225 1.284 . S
C2233 O2234 1.273 . S
O2234 C2233 1.273 . S
O2235 Zn2226 1.977 . S
O2235 C2228 1.267 . S
C2236 O2237 1.160 . S
C2236 O2243 1.185 . S
O2237 C2236 1.160 . S
O2238 Zn2239 1.899 . S
O2238 C2246 1.284 . S
Zn2239 O2238 1.899 . S
Zn2239 O2240 2.032 . S
Zn2239 O2243 2.086 . S
Zn2239 O2248 1.977 . S
O2240 Zn2239 2.032 . S
O2240 C2244 1.278 . S
C2241 O2242 1.203 . S
C2241 O2248 1.267 . S
O2242 C2241 1.203 . S
O2243 C2236 1.185 . S
O2243 Zn2239 2.086 . S
C2244 O2240 1.278 . S
C2244 O2245 1.211 . S
O2245 C2244 1.211 . S
C2246 O2238 1.284 . S
C2246 O2247 1.273 . S
O2247 C2246 1.273 . S
O2248 Zn2239 1.977 . S
O2248 C2241 1.267 . S
C2249 O2250 1.160 . S
C2249 O2256 1.185 . S
O2250 C2249 1.160 . S
O2251 Zn2252 1.899 . S
O2251 C2259 1.284 . S
Zn2252 O2251 1.899 . S
Zn2252 O2253 2.032 . S
Zn2252 O2256 2.086 . S
Zn2252 O2261 1.977 . S
O2253 Zn2252 2.032 . S
O2253 C2257 1.278 . S
C2254 O2255 1.203 . S
C2254 O2261 1.267 . S
O2255 C2254 1.203 . S
O2256 C2249 1.185 . S
O2256 Zn2252 2.086 . S
C2257 O2253 1.278 . S
C2257 O2258 1.211 . S
O2258 C2257 1.211 . S
C2259 O2251 1.284 . S
C2259 O2260 1.273 . S
O2260 C2259 1.273 . S
O2261 Zn2252 1.977 . S
O2261 C2254 1.267 . S
C2262 O2263 1.160 . S
C2262 O2269 1.185 . S
O2263 C2262 1.160 . S
O2264 Zn2265 1.899 . S
O2264 C2272 1.284 . S
Zn2265 O2264 1.899 . S
Zn2265 O2266 2.032 . S
Zn2265 O2269 2.086 . S
Zn2265 O2274 1.977 . S
O2266 Zn2265 2.032 . S
O2266 C2270 1.278 . S
C2267 O2268 1.203 . S
C2267 O2274 1.267 . S
O2268 C2267 1.203 . S
O2269 C2262 1.185 . S
O2269 Zn2265 2.086 . S
C2270 O2266 1.278 . S
C2270 O2271 1.211 . S
O2271 C2270 1.211 . S
C2272 O2264 1.284 . S
C2272 O2273 1.273 . S
O2273 C2272 1.273 . S
O2274 Zn2265 1.977 . S
O2274 C2267 1.267 . S
C2275 O2276 1.160 . S
C2275 O2282 1.185 . S
O2276 C2275 1.160 . S
O2277 Zn2278 1.899 . S
O2277 C2285 1.284 . S
Zn2278 O2277 1.899 . S
Zn2278 O2279 2.032 . S
Zn2278 O2282 2.086 . S
Zn2278 O2287 1.977 . S
O2279 Zn2278 2.032 . S
O2279 C2283 1.278 . S
C2280 O2281 1.203 . S
C2280 O2287 1.267 . S
O2281 C2280 1.203 . S
O2282 C2275 1.185 . S
O2282 Zn2278 2.086 . S
C2283 O2279 1.278 . S
C2283 O2284 1.211 . S
O2284 C2283 1.211 . S
C2285 O2277 1.284 . S
C2285 O2286 1.273 . S
O2286 C2285 1.273 . S
O2287 Zn2278 1.977 . S
O2287 C2280 1.267 . S
C2288 O2289 1.160 . S
C2288 O2295 1.185 . S
O2289 C2288 1.160 . S
O2290 Zn2291 1.899 . S
O2290 C2298 1.284 . S
Zn2291 O2290 1.899 . S
Zn2291 O2292 2.032 . S
Zn2291 O2295 2.086 . S
Zn2291 O2300 1.977 . S
O2292 Zn2291 2.032 . S
O2292 C2296 1.278 . S
C2293 O2294 1.203 . S
C2293 O2300 1.267 . S
O2294 C2293 1.203 . S
O2295 C2288 1.185 . S
O2295 Zn2291 2.086 . S
C2296 O2292 1.278 . S
C2296 O2297 1.211 . S
O2297 C2296 1.211 . S
C2298 O2290 1.284 . S
C2298 O2299 1.273 . S
O2299 C2298 1.273 . S
O2300 Zn2291 1.977 . S
O2300 C2293 1.267 . S
C2301 O2302 1.160 . S
C2301 O2308 1.185 . S
O2302 C2301 1.160 . S
O2303 Zn2304 1.899 . S
O2303 C2311 1.284 . S
Zn2304 O2303 1.899 . S
Zn2304 O2305 2.032 . S
Zn2304 O2308 2.086 . S
Zn2304 O2313 1.977 . S
O2305 Zn2304 2.032 . S
O2305 C2309 1.278 . S
C2306 O2307 1.203 . S
C2306 O2313 1.267 . S
O2307 C2306 1.203 . S
O2308 C2301 1.185 . S
O2308 Zn2304 2.086 . S
C2309 O2305 1.278 . S
C2309 O2310 1.211 . S
O2310 C2309 1.211 . S
C2311 O2303 1.284 . S
C2311 O2312 1.273 . S
O2312 C2311 1.273 . S
O2313 Zn2304 1.977 . S
O2313 C2306 1.267 . S
C2314 O2315 1.160 . S
C2314 O2321 1.185 . S
O2315 C2314 1.160 . S
O2316 Zn2317 1.899 . S
O2316 C2324 1.284 . S
Zn2317 O2316 1.899 . S
Zn2317 O2318 2.032 . S
Zn2317 O2321 2.086 . S
Zn2317 O2326 1.977 . S
O2318 Zn2317 2.032 . S
O2318 C2322 1.278 . S
C2319 O2320 1.203 . S
C2319 O2326 1.267 . S
O2320 C2319 1.203 . S
O2321 C2314 1.185 . S
O2321 Zn2317 2.086 . S
C2322 O2318 1.278 . S
C2322 O2323 1.211 . S
O2323 C2322 1.211 . S
C2324 O2316 1.284 . S
C2324 O2325 1.273 . S
O2325 C2324 1.273 . S
O2326 Zn2317 1.977 . S
O2326 C2319 1.267 . S
C2327 O2328 1.160 . S
C2327 O2334 1.185 . S
O2328 C2327 1.160 . S
O2329 Zn2330 1.899 . S
O2329 C2337 1.284 . S
Zn2330 O2329 1.899 . S
Zn2330 O2331 2.032 . S
Zn2330 O2334 2.086 . S
Zn2330 O2339 1.977 . S
O2331 Zn2330 2.032 . S
O2331 C2335 1.278 . S
C2332 O2333 1.203 . S
C2332 O2339 1.267 . S
O2333 C2332 1.203 . S
O2334 C2327 1.185 . S
O2334 Zn2330 2.086 . S
C2335 O2331 1.278 . S
C2335 O2336 1.211 . S
O2336 C2335 1.211 . S
C2337 O2329 1.284 . S
C2337 O2338 1.273 . S
O2338 C2337 1.273 . S
O2339 Zn2330 1.977 . S
O2339 C2332 1.267 . S
C2340 O2341 1.160 . S
C2340 O2347 1.185 . S
O2341 C2340 1.160 . S
O2342 Zn2343 1.899 . S
O2342 C2350 1.284 . S
Zn2343 O2342 1.899 . S
Zn2343 O2344 2.032 . S
Zn2343 O2347 2.086 . S
Zn2343 O2352 1.977 . S
O2344 Zn2343 2.032 . S
O2344 C2348 1.278 . S
C2345 O2346 1.203 . S
C2345 O2352 1.267 . S
O2346 C2345 1.203 . S
O2347 C2340 1.185 . S
O2347 Zn2343 2.086 . S
C2348 O2344 1.278 . S
C2348 O2349 1.211 . S
O2349 C2348 1.211 . S
C2350 O2342 1.284 . S
C2350 O2351 1.273 . S
O2351 C2350 1.273 . S
O2352 Zn2343 1.977 . S
O2352 C2345 1.267 . S
C2353 O2354 1.160 . S
C2353 O2360 1.185 . S
O2354 C2353 1.160 . S
O2355 Zn2356 1.899 . S
O2355 C2363 1.284 . S
Zn2356 O2355 1.899 . S
Zn2356 O2357 2.032 . S
Zn2356 O2360 2.086 . S
Zn2356 O2365 1.977 . S
O2357 Zn2356 2.032 . S
O2357 C2361 1.278 . S
C2358 O2359 1.203 . S
C2358 O2365 1.267 . S
O2359 C2358 1.203 . S
O2360 C2353 1.185 . S
O2360 Zn2356 2.086 . S
C2361 O2357 1.278 . S
C2361 O2362 1.211 . S
O2362 C2361 1.211 . S
C2363 O2355 1.284 . S
C2363 O2364 1.273 . S
O2364 C2363 1.273 . S
O2365 Zn2356 1.977 . S
O2365 C2358 1.267 . S
C2366 O2367 1.160 . S
C2366 O2373 1.185 . S
O2367 C2366 1.160 . S
O2368 Zn2369 1.899 . S
O2368 C2376 1.284 . S
Zn2369 O2368 1.899 . S
Zn2369 O2370 2.032 . S
Zn2369 O2373 2.086 . S
Zn2369 O2378 1.977 . S
O2370 Zn2369 2.032 . S
O2370 C2374 1.278 . S
C2371 O2372 1.203 . S
C2371 O2378 1.267 . S
O2372 C2371 1.203 . S
O2373 C2366 1.185 . S
O2373 Zn2369 2.086 . S
C2374 O2370 1.278 . S
C2374 O2375 1.211 . S
O2375 C2374 1.211 . S
C2376 O2368 1.284 . S
C2376 O2377 1.273 . S
O2377 C2376 1.273 . S
O2378 Zn2369 1.977 . S
O2378 C2371 1.267 . S
C2379 O2380 1.160 . S
C2379 O2386 1.185 . S
O2380 C2379 1.160 . S
O2381 Zn2382 1.899 . S
O2381 C2389 1.284 . S
Zn2382 O2381 1.899 . S
Zn2382 O2383 2.032 . S
Zn2382 O2386 2.086 . S
Zn2382 O2391 1.977 . S
O2383 Zn2382 2.032 . S
O2383 C2387 1.278 . S
C2384 O2385 1.203 . S
C2384 O2391 1.267 . S
O2385 C2384 1.203 . S
O2386 C2379 1.185 . S
O2386 Zn2382 2.086 . S
C2387 O2383 1.278 . S
C2387 O2388 1.211 . S
O2388 C2387 1.211 . S
C2389 O2381 1.284 . S
C2389 O2390 1.273 . S
O2390 C2389 1.273 . S
O2391 Zn2382 1.977 . S
O2391 C2384 1.267 . S
C2392 O2393 1.160 . S
C2392 O2399 1.185 . S
O2393 C2392 1.160 . S
O2394 Zn2395 1.899 . S
O2394 C2402 1.284 . S
Zn2395 O2394 1.899 . S
Zn2395 O2396 2.032 . S
Zn2395 O2399 2.086 . S
Zn2395 O2404 1.977 . S
O2396 Zn2395 2.032 . S
O2396 C2400 1.278 . S
C2397 O2398 1.203 1_556 S
C2397 O2404 1.267 . S
O2398 C2397 1.203 1_554 S
O2399 C2392 1.185 . S
O2399 Zn2395 2.086 . S
C2400 O2396 1.278 . S
C2400 O2401 1.211 . S
O2401 C2400 1.211 . S
C2402 O2394 1.284 . S
C2402 O2403 1.273 . S
O2403 C2402 1.273 . S
O2404 Zn2395 1.977 . S
O2404 C2397 1.267 . S
C2405 O2406 1.160 . S
C2405 O2412 1.185 . S
O2406 C2405 1.160 . S
O2407 Zn2408 1.899 . S
O2407 C2415 1.284 . S
Zn2408 O2407 1.899 . S
Zn2408 O2409 2.032 . S
Zn2408 O2412 2.086 . S
Zn2408 O2417 1.977 . S
O2409 Zn2408 2.032 . S
O2409 C2413 1.278 . S
C2410 O2411 1.203 . S
C2410 O2417 1.267 . S
O2411 C2410 1.203 . S
O2412 C2405 1.185 . S
O2412 Zn2408 2.086 . S
C2413 O2409 1.278 . S
C2413 O2414 1.211 . S
O2414 C2413 1.211 . S
C2415 O2407 1.284 . S
C2415 O2416 1.273 . S
O2416 C2415 1.273 . S
O2417 Zn2408 1.977 . S
O2417 C2410 1.267 . S
C2418 O2419 1.160 . S
C2418 O2425 1.185 . S
O2419 C2418 1.160 . S
O2420 Zn2421 1.899 . S
O2420 C2428 1.284 . S
Zn2421 O2420 1.899 . S
Zn2421 O2422 2.032 . S
Zn2421 O2425 2.086 . S
Zn2421 O2430 1.977 . S
O2422 Zn2421 2.032 . S
O2422 C2426 1.278 . S
C2423 O2424 1.203 . S
C2423 O2430 1.267 . S
O2424 C2423 1.203 . S
O2425 C2418 1.185 . S
O2425 Zn2421 2.086 . S
C2426 O2422 1.278 . S
C2426 O2427 1.211 . S
O2427 C2426 1.211 . S
C2428 O2420 1.284 . S
C2428 O2429 1.273 . S
O2429 C2428 1.273 . S
O2430 Zn2421 1.977 . S
O2430 C2423 1.267 . S
C2431 O2432 1.160 . S
C2431 O2438 1.185 . S
O2432 C2431 1.160 . S
O2433 Zn2434 1.899 . S
O2433 C2441 1.284 . S
Zn2434 O2433 1.899 . S
Zn2434 O2435 2.032 . S
Zn2434 O2438 2.086 . S
Zn2434 O2443 1.977 . S
O2435 Zn2434 2.032 . S
O2435 C2439 1.278 . S
C2436 O2437 1.203 . S
C2436 O2443 1.267 . S
O2437 C2436 1.203 . S
O2438 C2431 1.185 . S
O2438 Zn2434 2.086 . S
C2439 O2435 1.278 . S
C2439 O2440 1.211 . S
O2440 C2439 1.211 . S
C2441 O2433 1.284 . S
C2441 O2442 1.273 . S
O2442 C2441 1.273 . S
O2443 Zn2434 1.977 . S
O2443 C2436 1.267 . S
C2444 O2445 1.160 . S
C2444 O2451 1.185 . S
O2445 C2444 1.160 . S
O2446 Zn2447 1.899 . S
O2446 C2454 1.284 . S
Zn2447 O2446 1.899 . S
Zn2447 O2448 2.032 . S
Zn2447 O2451 2.086 . S
Zn2447 O2456 1.977 . S
O2448 Zn2447 2.032 . S
O2448 C2452 1.278 . S
C2449 O2450 1.203 . S
C2449 O2456 1.267 . S
O2450 C2449 1.203 . S
O2451 C2444 1.185 . S
O2451 Zn2447 2.086 . S
C2452 O2448 1.278 . S
C2452 O2453 1.211 . S
O2453 C2452 1.211 . S
C2454 O2446 1.284 . S
C2454 O2455 1.273 . S
O2455 C2454 1.273 . S
O2456 Zn2447 1.977 . S
O2456 C2449 1.267 . S
C2457 O2458 1.160 . S
C2457 O2464 1.185 . S
O2458 C2457 1.160 . S
O2459 Zn2460 1.899 . S
O2459 C2467 1.284 . S
Zn2460 O2459 1.899 . S
Zn2460 O2461 2.032 . S
Zn2460 O2464 2.086 . S
Zn2460 O2469 1.977 . S
O2461 Zn2460 2.032 . S
O2461 C2465 1.278 . S
C2462 O2463 1.203 1_556 S
C2462 O2469 1.267 . S
O2463 C2462 1.203 1_554 S
O2464 C2457 1.185 . S
O2464 Zn2460 2.086 . S
C2465 O2461 1.278 . S
C2465 O2466 1.211 . S
O2466 C2465 1.211 . S
C2467 O2459 1.284 . S
C2467 O2468 1.273 . S
O2468 C2467 1.273 . S
O2469 Zn2460 1.977 . S
O2469 C2462 1.267 . S
C2470 O2471 1.160 . S
C2470 O2477 1.185 . S
O2471 C2470 1.160 . S
O2472 Zn2473 1.899 . S
O2472 C2480 1.284 . S
Zn2473 O2472 1.899 . S
Zn2473 O2474 2.032 . S
Zn2473 O2477 2.086 . S
Zn2473 O2482 1.977 . S
O2474 Zn2473 2.032 . S
O2474 C2478 1.278 . S
C2475 O2476 1.203 . S
C2475 O2482 1.267 . S
O2476 C2475 1.203 . S
O2477 C2470 1.185 . S
O2477 Zn2473 2.086 . S
C2478 O2474 1.278 . S
C2478 O2479 1.211 . S
O2479 C2478 1.211 . S
C2480 O2472 1.284 . S
C2480 O2481 1.273 . S
O2481 C2480 1.273 . S
O2482 Zn2473 1.977 . S
O2482 C2475 1.267 . S
C2483 O2484 1.160 . S
C2483 O2490 1.185 . S
O2484 C2483 1.160 . S
O2485 Zn2486 1.899 . S
O2485 C2493 1.284 . S
Zn2486 O2485 1.899 . S
Zn2486 O2487 2.032 . S
Zn2486 O2490 2.086 . S
Zn2486 O2495 1.977 . S
O2487 Zn2486 2.032 . S
O2487 C2491 1.278 . S
C2488 O2489 1.203 . S
C2488 O2495 1.267 . S
O2489 C2488 1.203 . S
O2490 C2483 1.185 . S
O2490 Zn2486 2.086 . S
C2491 O2487 1.278 . S
C2491 O2492 1.211 . S
O2492 C2491 1.211 . S
C2493 O2485 1.284 . S
C2493 O2494 1.273 . S
O2494 C2493 1.273 . S
O2495 Zn2486 1.977 . S
O2495 C2488 1.267 . S
C1001 C0 1.219 . S
C2262 C13 1.219 . S
C1651 C26 1.219 . S
C364 C39 1.219 . S
C52 C351 1.219 . S
C936 C65 1.219 . S
C2197 C78 1.219 . S
C1586 C91 1.219 . S
C2483 C104 1.219 . S
C1209 C117 1.219 . S
C130 C598 1.219 . S
C520 C143 1.219 . S
C1196 C156 1.219 . S
C169 C1781 1.219 . S
C546 C182 1.219 . S
C195 C1183 1.219 . S
C455 C208 1.219 . S
C221 C1729 1.219 . S
C234 C494 1.219 . S
C1131 C247 1.219 . S
C260 C1092 1.219 . S
C1053 C273 1.219 . S
C286 C442 1.219 . S
C2288 C299 1.219 . S
C312 C689 1.219 . S
C325 C1950 1.219 . S
C1339 C338 1.219 . S
C377 C624 1.219 . S
C390 C1885 1.219 . S
C1274 C403 1.219 . S
C416 C2171 1.219 . S
C897 C429 1.219 . S
C884 C468 1.219 . S
C481 C1469 1.219 . S
C871 C507 1.219 . S
C1417 C533 1.219 . S
C819 C559 1.219 . S
C572 C780 1.219 . S
C585 C741 1.219 . S
C1976 C611 1.219 . S
C1638 C637 1.219 . S
C2275 C650 1.219 . S
C988 C663 1.219 . S
C975 C676 1.219 . S
C1573 C702 1.219 . S
C2210 C715 1.219 . S
C728 C1859 1.219 . S
C1222 C754 1.219 . S
C1144 C767 1.219 . S
C793 C2405 1.219 . S
C806 C1170 1.219 . S
C1079 C832 1.219 . S
C845 C2353 1.219 . S
C858 C1118 1.219 . S
C910 C1066 1.219 . S
C1664 C923 1.219 . S
C1326 C949 1.219 . S
C962 C1963 1.219 . S
C1014 C1261 1.219 . S
C1027 C1898 1.219 . S
C1547 C1040 1.219 . S
C1105 C2093 1.219 . S
C2041 C1157 1.219 . S
C1352 C1235 1.219 . S
C1248 C2249 1.219 . S
C1612 C1287 1.219 . S
C1599 C1300 1.219 . S
C1313 C2184 1.219 . S
C1365 C2457 1.219 . S
C1378 C1846 1.219 . S
C1768 C1391 1.219 . S
C2444 C1404 1.219 . S
C1794 C1430 1.219 . S
C2431 C1443 1.219 . S
C1703 C1456 1.219 . S
C1482 C1742 1.219 . S
C2379 C1495 1.219 . S
C2340 C1508 1.219 . S
C1521 C2301 1.219 . S
C1534 C1690 1.219 . S
C1560 C1937 1.219 . S
C1872 C1625 1.219 . S
C2145 C1677 1.219 . S
C2132 C1716 1.219 . S
C2119 C1755 1.219 . S
C2067 C1807 1.219 . S
C1820 C2028 1.219 . S
C1989 C1833 1.219 . S
C2236 C1911 1.219 . S
C2223 C1924 1.219 . S
C2002 C2470 1.219 . S
C2015 C2392 1.219 . S
C2418 C2054 1.219 . S
C2080 C2327 1.219 . S
C2366 C2106 1.219 . S
C2314 C2158 1.219 . S
C411 C8 1.325 . S
C21 C996 1.325 . S
C2257 C34 1.325 . S
C1646 C47 1.325 . S
C60 C957 1.325 . S
C2218 C73 1.325 . S
C86 C1607 1.325 . S
C99 C320 1.325 . S
C112 C1204 1.325 . S
C125 C1789 1.325 . S
C138 C554 1.325 . S
C1191 C151 1.325 . S
C164 C2491 1.325 . S
C1217 C177 1.325 . S
C190 C606 1.325 . S
C528 C203 1.325 . S
C216 C515 1.325 . S
C229 C1685 1.325 . S
C450 C242 1.325 . S
C1087 C255 1.325 . S
C268 C1048 1.325 . S
C281 C1113 1.325 . S
C294 C502 1.325 . S
C2348 C307 1.325 . S
C684 C333 1.325 . S
C346 C1945 1.325 . S
C1334 C359 1.325 . S
C372 C645 1.325 . S
C1906 C385 1.325 . S
C398 C1295 1.325 . S
C424 C892 1.325 . S
C437 C1477 1.325 . S
C463 C879 1.325 . S
C2179 C476 1.325 . S
C489 C905 1.325 . S
C1373 C541 1.325 . S
C775 C567 1.325 . S
C580 C736 1.325 . S
C801 C593 1.325 . S
C619 C2036 1.325 . S
C632 C1035 1.325 . S
C658 C1633 1.325 . S
C2270 C671 1.325 . S
C697 C1594 1.325 . S
C2231 C710 1.325 . S
C723 C944 1.325 . S
C2413 C749 1.325 . S
C762 C1178 1.325 . S
C1867 C788 1.325 . S
C1230 C814 1.325 . S
C827 C1152 1.325 . S
C840 C1139 1.325 . S
C2309 C853 1.325 . S
C1074 C866 1.325 . S
C1126 C918 1.325 . S
C931 C1724 1.325 . S
C970 C1321 1.325 . S
C983 C1958 1.325 . S
C1282 C1009 1.325 . S
C1022 C1919 1.325 . S
C2101 C1061 1.325 . S
C1555 C1100 1.325 . S
C1997 C1165 1.325 . S
C1412 C1243 1.325 . S
C1256 C1659 1.325 . S
C1269 C2244 1.325 . S
C2205 C1308 1.325 . S
C1568 C1347 1.325 . S
C1360 C2452 1.325 . S
C1386 C1802 1.325 . S
C2439 C1399 1.325 . S
C2465 C1425 1.325 . S
C1438 C1854 1.325 . S
C1451 C1776 1.325 . S
C1763 C1464 1.325 . S
C1698 C1490 1.325 . S
C1503 C2335 1.325 . S
C1516 C2296 1.325 . S
C2361 C1529 1.325 . S
C1750 C1542 1.325 . S
C1932 C1581 1.325 . S
C1620 C1893 1.325 . S
C1672 C2140 1.325 . S
C1711 C2127 1.325 . S
C1737 C2153 1.325 . S
C1815 C2023 1.325 . S
C1828 C1984 1.325 . S
C1841 C2049 1.325 . S
C2283 C1880 1.325 . S
C2192 C1971 1.325 . S
C2010 C2426 1.325 . S
C2062 C2478 1.325 . S
C2400 C2075 1.325 . S
C2387 C2088 1.325 . S
C2322 C2114 1.325 . S
C2374 C2166 1.325 . S
C2454 C10 1.282 1_655 S
C23 C2415 1.282 . S
C36 C1804 1.282 1_556 S
C569 C49 1.282 1_545 S
C62 C1245 1.282 1_455 S
C595 C75 1.282 1_556 S
C1856 C88 1.282 . S
C101 C1154 1.282 1_565 S
C114 C2389 1.282 1_545 S
C1726 C127 1.282 1_455 S
C140 C491 1.282 . S
C153 C1128 1.282 . S
C1687 C166 1.282 . S
C179 C452 1.282 . S
C1089 C192 1.282 1_565 S
C205 C2298 1.282 1_655 S
C218 C1037 1.282 1_554 S
C2207 C231 1.282 . S
C1596 C244 1.282 . S
C361 C257 1.282 1_545 S
C270 C2194 1.282 . S
C283 C387 1.282 1_554 S
C296 C1648 1.282 . S
C998 C309 1.282 1_655 S
C322 C2142 1.282 1_655 S
C335 C2103 1.282 . S
C348 C1492 1.282 1_554 S
C374 C933 1.282 1_655 S
C1544 C400 1.282 . S
C413 C842 1.282 1_545 S
C2077 C426 1.282 1_545 S
C1414 C439 1.282 1_655 S
C465 C816 1.282 . S
C1375 C478 1.282 . S
C504 C777 1.282 1_565 S
C1986 C517 1.282 1_655 S
C725 C530 1.282 1_554 S
C543 C1895 1.282 . S
C1284 C556 1.282 . S
C1882 C582 1.282 . S
C1336 C608 1.282 . S
C621 C686 1.282 1_655 S
C1830 C634 1.282 1_654 S
C1791 C647 1.282 . S
C660 C2428 1.282 . S
C673 C1193 1.282 . S
C1219 C699 1.282 . S
C712 C2480 1.282 . S
C738 C1765 1.282 . S
C751 C2350 1.282 1_655 S
C1115 C764 1.282 . S
C790 C2311 1.282 . S
C1076 C803 1.282 . S
C1674 C829 1.282 1_465 S
C1583 C855 1.282 . S
C2220 C868 1.282 1_554 S
C881 C985 1.282 . S
C894 C1570 1.282 1_556 S
C907 C1011 1.282 . S
C2272 C920 1.282 . S
C946 C1518 1.282 1_654 S
C1479 C959 1.282 . S
C972 C2116 1.282 . S
C1024 C2168 1.282 . S
C1453 C1050 1.282 . S
C1063 C2038 1.282 1_455 S
C1102 C1999 1.282 . S
C1141 C1362 1.282 1_465 S
C1271 C1167 1.282 . S
C1908 C1180 1.282 1_556 S
C1206 C1258 1.282 1_554 S
C1232 C1960 1.282 . S
C1817 C1297 1.282 1_545 S
C2493 C1310 1.282 . S
C1843 C1323 1.282 . S
C2402 C1349 1.282 1_546 S
C1739 C1388 1.282 . S
C1401 C2376 1.282 . S
C1700 C1427 1.282 . S
C1440 C2337 1.282 1_545 S
C1466 C2285 1.282 . S
C1505 C1609 1.282 1_565 S
C1531 C1635 1.282 . S
C1557 C2246 1.282 . S
C1622 C2181 1.282 . S
C1661 C2090 1.282 1_546 S
C1713 C2064 1.282 . S
C1752 C2025 1.282 1_565 S
C1973 C1778 1.282 . S
C1934 C1869 1.282 . S
C2441 C1921 1.282 . S
C2467 C1947 1.282 1_556 S
C2363 C2012 1.282 . S
C2051 C2324 1.282 . S
C2129 C2233 1.282 . S
C2259 C2155 1.282 1_556 S
C824 C5 1.323 1_655 S
C18 C1409 1.323 . S
C798 C31 1.323 . S
C1435 C44 1.323 1_545 S
C57 C746 1.323 1_455 S
C1383 C70 1.323 . S
C772 C83 1.323 . S
C96 C1357 1.323 1_565 S
C1344 C109 1.323 1_565 S
C681 C122 1.323 1_455 S
C135 C1318 1.323 . S
C148 C707 1.323 . S
C1266 C161 1.323 . S
C655 C174 1.323 . S
C1292 C187 1.323 1_565 S
C200 C629 1.323 1_655 S
C1513 C213 1.323 1_556 S
C1552 C226 1.323 . S
C239 C1526 1.323 . S
C1539 C252 1.323 . S
C265 C1461 1.323 . S
C1487 C278 1.323 1_556 S
C1500 C291 1.323 . S
C304 C1474 1.323 . S
C1136 C317 1.323 1_455 S
C330 C1721 1.323 . S
C1110 C343 1.323 . S
C356 C1747 1.323 1_545 S
C369 C1058 1.323 1_655 S
C1695 C382 1.323 . S
C395 C1084 1.323 . S
C408 C1669 1.323 1_545 S
C1656 C421 1.323 1_545 S
C993 C434 1.323 1_655 S
C447 C1630 1.323 . S
C1019 C460 1.323 . S
C473 C1578 1.323 . S
C967 C486 1.323 . S
C1604 C499 1.323 1_545 S
C512 C941 1.323 1_455 S
C1825 C525 1.323 1_554 S
C538 C1864 1.323 . S
C1838 C551 1.323 . S
C1851 C564 1.323 . S
C1773 C577 1.323 . S
C590 C1799 1.323 1_556 S
C603 C1812 1.323 . S
C1786 C616 1.323 . S
C2033 C642 1.323 . S
C2059 C668 1.323 . S
C694 C2007 1.323 . S
C1981 C720 1.323 . S
C733 C1968 1.323 . S
C759 C1942 1.323 . S
C1890 C785 1.323 . S
C811 C1916 1.323 . S
C837 C2137 1.323 . S
C2176 C850 1.323 . S
C863 C2150 1.323 1_556 S
C2163 C876 1.323 . S
C2085 C889 1.323 1_554 S
C902 C2111 1.323 . S
C915 C2124 1.323 . S
C2098 C928 1.323 . S
C2345 C954 1.323 . S
C2371 C980 1.323 . S
C2319 C1006 1.323 . S
C2293 C1032 1.323 . S
C1045 C2280 1.323 . S
C2254 C1071 1.323 . S
C2202 C1097 1.323 . S
C2228 C1123 1.323 . S
C1149 C2449 1.323 . S
C2488 C1162 1.323 . S
C1175 C2462 1.323 1_554 S
C2475 C1188 1.323 . S
C1201 C2397 1.323 1_554 S
C1214 C2423 1.323 . S
C2436 C1227 1.323 . S
C2410 C1240 1.323 . S
C2072 C1253 1.323 . S
C1279 C2046 1.323 . S
C1994 C1305 1.323 . S
C1331 C2020 1.323 . S
C1370 C1929 1.323 . S
C1396 C1955 1.323 . S
C1903 C1422 1.323 . S
C1448 C1877 1.323 . S
C2384 C1565 1.323 . S
C2358 C1591 1.323 . S
C2306 C1617 1.323 . S
C2332 C1643 1.323 . S
C2241 C1682 1.323 . S
C1708 C2267 1.323 . S
C1734 C2215 1.323 . S
C2189 C1760 1.323 . S
