# Generated by pormake.
# Topology fne, (5)-cn, num edge types: 1
# Building blocks:
#     Node 0, Type 0, BuildingBlock: XOMCOT_clean_sbu_0, # of connection points: 5
#     Node 1, Type 0, BuildingBlock: XOMCOT_clean_sbu_0, # of connection points: 5
#     Node 2, Type 0, BuildingBlock: XOMCOT_clean_sbu_0, # of connection points: 5
#     Node 3, Type 0, BuildingBlock: XOMCOT_clean_sbu_0, # of connection points: 5
#     Node 4, Type 0, BuildingBlock: XOMCOT_clean_sbu_0, # of connection points: 5
#     Node 5, Type 0, BuildingBlock: XOMCOT_clean_sbu_0, # of connection points: 5
#     Edge 6, Type (0, 0), BuildingBlock: EZIPEK_clean_linker_0, # of connection points: 2
#     Edge 7, Type (0, 0), BuildingBlock: EZIPEK_clean_linker_0, # of connection points: 2
#     Edge 8, Type (0, 0), BuildingBlock: EZIPEK_clean_linker_0, # of connection points: 2
#     Edge 9, Type (0, 0), BuildingBlock: EZIPEK_clean_linker_0, # of connection points: 2
#     Edge 10, Type (0, 0), BuildingBlock: EZIPEK_clean_linker_0, # of connection points: 2
#     Edge 11, Type (0, 0), BuildingBlock: EZIPEK_clean_linker_0, # of connection points: 2
#     Edge 12, Type (0, 0), BuildingBlock: EZIPEK_clean_linker_0, # of connection points: 2
#     Edge 13, Type (0, 0), BuildingBlock: EZIPEK_clean_linker_0, # of connection points: 2
#     Edge 14, Type (0, 0), BuildingBlock: EZIPEK_clean_linker_0, # of connection points: 2
#     Edge 15, Type (0, 0), BuildingBlock: EZIPEK_clean_linker_0, # of connection points: 2
#     Edge 16, Type (0, 0), BuildingBlock: EZIPEK_clean_linker_0, # of connection points: 2
#     Edge 17, Type (0, 0), BuildingBlock: EZIPEK_clean_linker_0, # of connection points: 2
#     Edge 18, Type (0, 0), BuildingBlock: EZIPEK_clean_linker_0, # of connection points: 2
#     Edge 19, Type (0, 0), BuildingBlock: EZIPEK_clean_linker_0, # of connection points: 2
#     Edge 20, Type (0, 0), BuildingBlock: EZIPEK_clean_linker_0, # of connection points: 2
# Relax obj value: 0.072
# Max RMSD: 0.102
# Mean RMSD: 0.102
data_MOF--net-fne--node1-XOMCOT_clean_sbu_0--edge1-EZIPEK_clean_linker_0
_symmetry_space_group_name_H-M    P1
_symmetry_Int_Tables_number       1
_symmetry_cell_setting            triclinic
loop_
_symmetry_equiv_pos_as_xyz
'x, y, z'
_cell_length_a     34.723622
_cell_length_b     34.783311
_cell_length_c     13.409931
_cell_angle_alpha  89.734539
_cell_angle_beta   90.300185
_cell_angle_gamma 119.66956
loop_
_atom_site_label
_atom_site_type_symbol
_atom_site_fract_x
_atom_site_fract_y
_atom_site_fract_z
_atom_type_partial_charge
Co0 Co 0.3577 0.08021 0.09483 0.0
C1 C 0.33891 0.07342 0.31333 0.0
C2 C 0.35003 0.02135 0.26512 0.0
C3 C 0.34782 0.0203 0.36791 0.0
N4 N 0.34467 0.05497 0.23004 0.0
N5 N 0.34089 0.0532 0.39751 0.0
H6 H 0.33787 0.10372 0.31518 0.0
H7 H 0.3597 1.00175 0.22122 0.0
C8 C 0.30883 0.98245 0.02181 0.0
O9 O 0.33794 0.97229 0.05714 0.0
N10 N 0.37106 0.10507 0.96185 0.0
C11 C 0.4107 0.13694 0.93012 0.0
C12 C 0.40836 0.14165 0.82904 0.0
C13 C 0.34523 0.09073 0.87959 0.0
N14 N 0.36662 0.1136 0.79611 0.0
C15 C 0.44035 0.09015 0.15919 0.0
C16 C 0.45271 0.04489 1.0052 0.0
C17 C 0.48534 0.06366 0.07988 0.0
C18 C 0.47927 0.08772 0.15586 0.0
C19 C 0.41555 0.05064 1.00813 0.0
N20 N 0.40842 0.07068 0.08754 0.0
H21 H 0.43592 0.10818 0.21922 0.0
H22 H 0.3926 0.03925 0.94648 0.0
H23 H 0.44002 0.15366 0.97639 0.0
H24 H 0.31271 0.06199 0.88126 0.0
O25 O 0.38796 0.13956 0.14992 0.0
O26 O 0.31681 0.10279 0.11105 0.0
O27 O 0.31328 0.0209 0.03433 0.0
C28 C 0.35021 0.139 0.14514 0.0
H29 H 0.35414 0.9993 0.41721 0.0
H30 H 0.43677 0.16215 0.78308 0.0
H31 H 0.45643 0.02685 0.94388 0.0
H32 H 0.5041 0.1038 0.21351 0.0
Co33 Co 0.31842 0.34494 0.42558 0.0
C34 C 0.3094 0.32715 0.64514 0.0
C35 C 0.36906 0.33187 0.58885 0.0
C36 C 0.36931 0.32842 0.69106 0.0
N37 N 0.33161 0.33156 0.55933 0.0
N38 N 0.33211 0.32633 0.726 0.0
H39 H 0.27822 0.32661 0.65054 0.0
H40 H 0.39665 0.33868 0.54174 0.0
C41 C 0.36162 0.29096 0.34867 0.0
O42 O 0.40204 0.32049 0.37468 0.0
N43 N 0.30539 0.35763 0.29252 0.0
C44 C 0.3023 0.39325 0.26363 0.0
C45 C 0.2995 0.39342 0.16105 0.0
C46 C 0.30416 0.33657 0.20715 0.0
N47 N 0.30116 0.358 0.12633 0.0
C48 C 0.39513 0.42403 0.48497 0.0
C49 C 0.44808 0.4342 0.32279 0.0
C50 C 0.46511 0.46596 0.39911 0.0
C51 C 0.43733 0.46111 0.47936 0.0
C52 C 0.40442 0.39905 0.32846 0.0
N53 N 0.37953 0.3927 0.41176 0.0
H54 H 0.37457 0.42056 0.54842 0.0
H55 H 0.3909 0.3767 0.26657 0.0
H56 H 0.30466 0.41886 0.31285 0.0
H57 H 0.30834 0.30786 0.20251 0.0
O58 O 0.29481 0.38044 0.48055 0.0
O59 O 0.25523 0.3088 0.45133 0.0
O60 O 0.32853 0.29653 0.36724 0.0
C61 C 0.2563 0.34481 0.48273 0.0
H62 H 0.39654 0.33157 0.73671 0.0
H63 H 0.29949 0.41911 0.11518 0.0
H64 H 0.46803 0.43703 0.2584 0.0
H65 H 0.44856 0.4854 0.53859 0.0
Co66 Co 1.00827 0.30707 0.72949 0.0
C67 C 1.01607 0.3244 0.9459 0.0
C68 C 0.0667 0.31112 0.89414 0.0
C69 C 0.06795 0.31231 0.99682 0.0
N70 N 0.03398 0.31849 0.86226 0.0
N71 N 0.03572 0.32009 0.0287 0.0
H72 H 0.98705 0.32825 0.94686 0.0
H73 H 0.08592 0.30183 0.84706 0.0
C74 C 0.09853 0.3455 0.62524 0.0
O75 O 0.09857 0.38212 0.60137 0.0
N76 N 0.98184 0.29384 0.59589 0.0
C77 C 0.93881 0.26671 0.57094 0.0
C78 C 0.93439 0.26569 0.4686 0.0
C79 C 1.00253 0.30923 0.50763 0.0
N80 N 0.97467 0.29223 0.42966 0.0
C81 C 0.99538 0.37941 0.67244 0.0
C82 C 0.07118 0.44599 0.76069 0.0
C83 C 0.04102 0.45646 0.71608 0.0
C84 C 1.0029 0.42275 0.67104 0.0
C85 C 0.06247 0.40217 0.76029 0.0
N86 N 1.02529 0.36946 0.71486 0.0
H87 H 0.96449 0.35357 0.64249 0.0
H88 H 0.08584 0.3947 0.79645 0.0
H89 H 0.91205 0.24849 0.62261 0.0
H90 H 0.03712 0.33227 0.49851 0.0
O91 O 0.95058 0.2869 0.788 0.0
O92 O 0.97984 0.24438 0.76078 0.0
O93 O 0.06616 0.31441 0.67316 0.0
C94 C 0.94737 0.24828 0.79864 0.0
H95 H 0.08816 0.30416 0.04451 0.0
H96 H 0.90434 0.24627 0.42594 0.0
H97 H 0.10076 0.47132 0.79716 0.0
H98 H 0.97852 0.4297 0.63761 0.0
Co99 Co 0.75871 1.00712 0.08459 0.0
C100 C 0.75512 1.01791 0.30207 0.0
C101 C 0.8219 0.05203 0.2479 0.0
C102 C 0.82318 0.05281 0.35056 0.0
N103 N 0.7792 0.03042 0.21734 0.0
N104 N 0.78119 0.03125 0.38384 0.0
H105 H 0.71972 0.99601 0.30473 0.0
H106 H 0.85021 0.06325 0.1992 0.0
C107 C 0.82338 0.10459 0.0543 0.0
O108 O 0.80513 0.1133 0.13007 0.0
N109 N 0.73821 0.98333 0.9531 0.0
C110 C 0.69685 0.95186 0.92759 0.0
C111 C 0.69375 0.94928 0.82496 0.0
C112 C 0.75979 0.99922 0.86624 0.0
N113 N 0.73334 0.97918 0.78738 0.0
C114 C 0.67393 0.99638 0.13449 0.0
C115 C 0.68119 0.06919 0.03443 0.0
C116 C 0.6411 0.04053 0.08211 0.0
C117 C 0.63765 1.00328 0.13085 0.0
C118 C 0.71582 0.05941 0.03425 0.0
N119 N 0.71288 0.02445 0.08782 0.0
H120 H 0.66977 0.96724 0.17253 0.0
H121 H 0.7441 0.07945 0.98818 0.0
H122 H 0.67021 0.93357 0.97974 0.0
H123 H 0.79341 0.02618 0.85993 0.0
O124 O 0.7257 0.94851 0.14297 0.0
O125 O 0.7946 0.97844 0.09034 0.0
O126 O 0.80509 0.06484 0.02227 0.0
C127 C 0.76129 0.94539 0.13431 0.0
H128 H 0.85247 0.06532 0.39714 0.0
H129 H 0.66442 0.92851 0.78127 0.0
H130 H 0.68508 0.09798 0.99424 0.0
H131 H 0.60702 0.97964 0.16666 0.0
Co132 Co 0.7943 0.73638 0.39462 0.0
C133 C 0.77825 0.73208 0.61126 0.0
C134 C 0.8123 0.79906 0.55848 0.0
C135 C 0.81235 0.79967 0.66113 0.0
N136 N 0.79056 0.75668 0.5269 0.0
N137 N 0.79106 0.75756 0.69368 0.0
H138 H 0.76434 0.6966 0.6131 0.0
H139 H 0.8301 0.82752 0.51074 0.0
C140 C 0.76013 0.80097 0.35747 0.0
O141 O 0.73821 0.79037 0.44191 0.0
N142 N 0.79842 0.71589 0.26374 0.0
C143 C 0.78979 0.67479 0.23926 0.0
C144 C 0.78901 0.67139 0.1367 0.0
C145 C 0.80313 0.73704 0.17622 0.0
N146 N 0.79723 0.71051 0.09803 0.0
C147 C 0.72278 0.65005 0.44311 0.0
C148 C 0.65521 0.65759 0.35274 0.0
C149 C 0.64525 0.61713 0.39709 0.0
C150 C 0.68005 0.61349 0.44083 0.0
C151 C 0.69905 0.69242 0.35074 0.0
N152 N 0.73211 0.68933 0.39949 0.0
H153 H 0.74861 0.64602 0.47782 0.0
H154 H 0.70602 0.7208 0.30634 0.0
H155 H 0.78251 0.64849 0.29207 0.0
H156 H 0.80879 0.77043 0.16904 0.0
O157 O 0.82234 0.70546 0.45468 0.0
O158 O 0.85827 0.77399 0.39879 0.0
O159 O 0.78054 0.78089 0.32883 0.0
C160 C 0.85998 0.7418 0.44418 0.0
H161 H 0.82958 0.82853 0.70823 0.0
H162 H 0.78126 0.64214 0.09381 0.0
H163 H 0.62956 0.66167 0.31621 0.0
H164 H 0.67417 0.58258 0.47393 0.0
Co165 Co 0.09765 0.78336 0.7484 0.0
C166 C 0.09396 0.78253 0.96991 0.0
C167 C 0.03033 0.7652 0.9095 0.0
C168 C 1.02774 0.76515 0.01211 0.0
N169 N 0.07191 0.7757 0.88221 0.0
N170 N 0.06788 0.77623 0.04905 0.0
H171 H 0.12846 0.79162 0.97706 0.0
H172 H 1.00324 0.75838 0.86035 0.0
C173 C 1.00127 0.73942 0.67378 0.0
O174 O 0.99002 0.70269 0.72329 0.0
N175 N 0.12368 0.79174 0.61702 0.0
C176 C 0.15636 0.7836 0.5901 0.0
C177 C 0.15902 0.78444 0.4874 0.0
C178 C 0.10718 0.79774 0.53063 0.0
N179 N 0.12764 0.79274 0.45084 0.0
C180 C 0.09297 0.70344 0.8223 0.0
C181 C 0.05672 0.65328 0.65245 0.0
C182 C 0.0674 0.6347 0.73331 0.0
C183 C 0.08575 0.66021 0.81898 0.0
C184 C 0.06467 0.69672 0.65882 0.0
N185 N 0.08159 0.72103 0.74382 0.0
H186 H 0.10913 0.72316 0.88704 0.0
H187 H 0.05773 0.71108 0.59474 0.0
H188 H 0.17472 0.77447 0.64113 0.0
H189 H 0.07879 0.80258 0.52508 0.0
O190 O 0.15599 0.80696 0.80758 0.0
O191 O 0.12513 0.84706 0.76374 0.0
O192 O 0.04037 0.77269 0.68172 0.0
C193 C 0.15859 0.84558 0.80408 0.0
H194 H 0.99886 0.75789 0.05615 0.0
H195 H 0.17998 0.77638 0.44295 0.0
H196 H 0.04309 0.63462 0.58445 0.0
H197 H 0.09515 0.64706 0.88209 0.0
C198 C 0.5381 0.04376 0.16673 0.0
C199 C 0.52567 0.05831 0.07937 0.0
C200 C 0.58601 0.05621 0.98964 0.0
C201 C 0.6024 0.04855 0.08066 0.0
N202 N 0.59974 0.04872 0.26098 0.0
N203 N 0.54718 0.09061 0.91465 0.0
C204 C 0.58021 0.04652 0.17093 0.0
C205 C 0.5524 0.06823 0.99267 0.0
N206 N 0.50919 0.02535 0.2442 0.0
N207 N 0.60058 0.04996 0.90004 0.0
H208 H 0.52512 0.10277 0.91634 0.0
H209 H 0.5685 0.10153 0.8536 0.0
H210 H 0.62261 0.03792 0.89371 0.0
H211 H 0.58665 0.05176 0.83232 0.0
H212 H 0.51595 1.01118 0.30575 0.0
H213 H 0.47667 0.01938 0.24152 0.0
H214 H 0.58595 0.05077 0.32828 0.0
H215 H 0.63188 0.05382 0.26765 0.0
C216 C 0.57395 0.56409 0.30654 0.0
C217 C 0.59896 0.57841 0.39652 0.0
C218 C 0.53967 0.51381 0.48125 0.0
C219 C 0.51167 0.50413 0.39639 0.0
N220 N 0.50025 0.5293 0.23599 0.0
N221 N 0.59828 0.5723 0.57655 0.0
C222 C 0.52818 0.53192 0.311 0.0
C223 C 0.57969 0.55488 0.48615 0.0
N224 N 0.59391 0.57945 0.21636 0.0
N225 N 0.52919 0.48333 0.5557 0.0
H226 H 0.62576 0.60381 0.58445 0.0
H227 H 0.58312 0.55757 0.64385 0.0
H228 H 0.50189 0.4515 0.55193 0.0
H229 H 0.55062 0.48799 0.615 0.0
H230 H 0.57736 0.56703 0.1489 0.0
H231 H 0.62795 0.60046 0.20878 0.0
H232 H 0.51064 0.55155 0.17645 0.0
H233 H 0.46601 0.50855 0.23913 0.0
C234 C 0.07982 0.53567 0.65742 0.0
C235 C 0.04813 0.50228 0.72063 0.0
C236 C 1.0261 0.5546 0.78431 0.0
C237 C 0.06043 0.58893 0.72777 0.0
N238 N 0.12482 0.61417 0.623 0.0
N239 N 0.99633 0.48138 0.85665 0.0
C240 C 0.08865 0.58003 0.6676 0.0
C241 C 1.0227 0.51215 0.78763 0.0
N242 N 0.10055 0.52473 0.58571 0.0
N243 N 0.99584 0.56217 0.83228 0.0
H244 H 0.99299 0.44993 0.86156 0.0
H245 H 0.9808 0.48824 0.91455 0.0
H246 H 0.99714 0.59278 0.83132 0.0
H247 H 0.9673 0.53726 0.86567 0.0
H248 H 0.12026 0.54652 0.53017 0.0
H249 H 0.0952 0.49268 0.5766 0.0
H250 H 0.14929 0.6104 0.58728 0.0
H251 H 0.13247 0.6471 0.6288 0.0
C252 C 0.31025 0.04693 0.56718 0.0
C253 C 0.34472 0.07008 0.4973 0.0
C254 C 0.38118 0.13139 0.61492 0.0
C255 C 0.35256 0.1044 0.69154 0.0
N256 N 0.2752 0.05311 0.71698 0.0
N257 N 0.41568 0.13325 0.45812 0.0
C258 C 0.31263 0.0662 0.66226 0.0
C259 C 0.38073 0.11228 0.52173 0.0
N260 N 0.27523 1.00673 0.54241 0.0
N261 N 0.40516 0.17607 0.62772 0.0
H262 H 0.41779 0.11913 0.39147 0.0
H263 H 0.44449 0.16238 0.47689 0.0
H264 H 0.40104 0.19123 0.69065 0.0
H265 H 0.42382 0.19789 0.57101 0.0
H266 H 0.25159 0.98599 0.59389 0.0
H267 H 0.27146 0.99307 0.47151 0.0
H268 H 0.24423 0.02708 0.69687 0.0
H269 H 0.27394 0.07334 0.77262 0.0
C270 C 0.35346 0.37477 0.87392 0.0
C271 C 0.32397 0.33414 0.82707 0.0
C272 C 0.27653 0.31148 0.97504 0.0
C273 C 0.30858 0.34997 0.02498 0.0
N274 N 0.38241 0.41274 0.03025 0.0
N275 N 0.26028 0.26138 0.83541 0.0
C276 C 0.34851 0.38009 0.9768 0.0
C277 C 0.28614 0.30174 0.87836 0.0
N278 N 0.38485 0.40906 0.81908 0.0
N279 N 0.23661 0.28503 0.01942 0.0
H280 H 0.26703 0.25355 0.76499 0.0
H281 H 0.23443 0.23478 0.87224 0.0
H282 H 0.22892 0.29181 0.08998 0.0
H283 H 0.21012 0.25861 0.98361 0.0
H284 H 0.40458 0.4407 0.848 0.0
H285 H 0.38779 0.40732 0.74215 0.0
H286 H 0.41387 0.43292 1.00068 0.0
H287 H 0.38056 0.41659 0.10682 0.0
C288 C 1.02235 0.34884 0.18498 0.0
C289 C 1.01794 0.31275 0.12801 0.0
C290 C 0.98512 0.26308 0.27064 0.0
C291 C 0.98709 0.29856 0.32613 0.0
N292 N 1.00067 0.37323 0.33335 0.0
N293 N 0.98583 0.23409 0.10721 0.0
C294 C 1.00372 0.34098 0.28228 0.0
C295 C 0.99647 0.26936 0.16811 0.0
N296 N 0.0455 0.39064 0.14667 0.0
N297 N 0.97457 0.22411 0.31725 0.0
H298 H 0.99243 0.23758 0.03093 0.0
H299 H 0.96649 0.20132 0.12999 0.0
H300 H 0.96746 0.21888 0.39315 0.0
H301 H 0.97689 0.19854 0.28294 0.0
H302 H 0.05375 0.41908 0.1875 0.0
H303 H 0.05911 0.39693 0.07523 0.0
H304 H 1.00871 0.40388 0.30291 0.0
H305 H 0.98655 0.36787 0.40415 0.0
C306 C 0.75324 0.96475 0.62119 0.0
C307 C 0.74379 0.99143 0.68444 0.0
C308 C 0.76011 0.04496 0.54929 0.0
C309 C 0.76759 1.01729 0.48483 0.0
N310 N 0.76681 0.94899 0.4528 0.0
N311 N 0.73201 0.05322 0.7087 0.0
C312 C 0.76273 0.97649 0.51895 0.0
C313 C 0.74555 0.03063 0.64844 0.0
N314 N 0.75457 0.92911 0.66046 0.0
N315 N 0.76775 0.08522 0.51538 0.0
H316 H 0.72085 0.04306 0.78132 0.0
H317 H 0.72876 0.08002 0.68514 0.0
H318 H 0.7772 0.09564 0.44201 0.0
H319 H 0.76726 0.10921 0.56055 0.0
H320 H 0.76526 0.91035 0.62144 0.0
H321 H 0.74751 0.91992 0.7352 0.0
H322 H 0.75971 0.91691 0.46964 0.0
H323 H 0.77481 0.95748 0.37818 0.0
C324 C 0.82812 0.73955 0.8288 0.0
C325 C 0.79143 0.74327 0.79438 0.0
C326 C 0.75645 0.7206 0.95842 0.0
C327 C 0.79477 0.72042 0.99477 0.0
N328 N 0.86875 0.73364 0.97066 0.0
N329 N 0.72231 0.74088 0.82449 0.0
C330 C 0.83103 0.73076 0.93136 0.0
C331 C 0.75593 0.73466 0.8588 0.0
N332 N 0.85969 0.74379 0.76253 0.0
N333 N 0.72035 0.70624 0.01896 0.0
H334 H 0.72092 0.75004 0.75089 0.0
H335 H 0.69727 0.73941 0.86942 0.0
H336 H 0.72001 0.69562 0.09201 0.0
H337 H 0.68986 0.70187 0.99537 0.0
H338 H 0.88514 0.73726 0.77986 0.0
H339 H 0.85844 0.75087 0.68745 0.0
H340 H 0.89824 0.74529 0.93137 0.0
H341 H 0.87139 0.72705 0.04562 0.0
C342 C 0.09134 0.74615 0.30296 0.0
C343 C 0.11262 0.78837 0.34908 0.0
C344 C 0.09755 0.8207 0.2017 0.0
C345 C 0.08076 0.77968 0.15207 0.0
N346 N 0.06518 0.70434 0.14913 0.0
N347 N 0.14084 0.86677 0.3403 0.0
C348 C 0.07871 0.74264 0.201 0.0
C349 C 0.11696 0.82596 0.29782 0.0
N350 N 0.0814 0.70927 0.35798 0.0
N351 N 0.09388 0.85412 0.15733 0.0
H352 H 0.15565 0.87134 0.41041 0.0
H353 H 0.14893 0.89618 0.30329 0.0
H354 H 0.07913 0.8505 0.08749 0.0
H355 H 0.10194 0.88377 0.19262 0.0
H356 H 0.06193 0.67715 0.33154 0.0
H357 H 0.08942 0.71058 0.43329 0.0
H358 H 0.06745 0.67752 0.17687 0.0
H359 H 0.05423 0.70052 0.07531 0.0
C360 C 0.37626 0.22057 0.15064 0.0
C361 C 0.34604 0.17709 0.18413 0.0
C362 C 0.32472 0.20824 0.32373 0.0
C363 C 0.3546 0.25167 0.28975 0.0
N364 N 0.39919 0.29856 0.15494 0.0
N365 N 0.28082 0.13064 0.28289 0.0
C366 C 0.37766 0.25768 0.19857 0.0
C367 C 0.31666 0.1712 0.26394 0.0
N368 N 0.40361 0.22652 0.07215 0.0
N369 N 0.30589 0.20202 0.41595 0.0
H370 H 0.27297 0.10249 0.24153 0.0
H371 H 0.25621 0.12584 0.33368 0.0
H372 H 0.31154 0.22804 0.4632 0.0
H373 H 0.28815 0.17103 0.44955 0.0
H374 H 0.43075 0.25697 0.05345 0.0
H375 H 0.39988 0.20053 0.02727 0.0
H376 H 0.41231 0.30422 0.08327 0.0
H377 H 0.40017 0.32632 0.18609 0.0
C378 C 0.17503 0.32103 0.4691 0.0
C379 C 0.21582 0.34469 0.52213 0.0
C380 C 0.17786 0.3654 0.64905 0.0
C381 C 0.13748 0.34112 0.59619 0.0
N382 N 0.09492 0.2868 0.47149 0.0
N383 N 0.25709 0.39437 0.65845 0.0
C384 C 0.13526 0.31613 0.51109 0.0
C385 C 0.21756 0.36819 0.61117 0.0
N386 N 0.17476 0.30652 0.37426 0.0
N387 N 0.1775 0.38363 0.7391 0.0
H388 H 0.28671 0.39546 0.64142 0.0
H389 H 0.26163 0.41739 0.71303 0.0
H390 H 0.14899 0.38184 0.769 0.0
H391 H 0.20399 0.39719 0.78885 0.0
H392 H 0.14705 0.29345 0.32781 0.0
H393 H 0.20335 0.3123 0.33676 0.0
H394 H 0.09064 0.26417 0.41596 0.0
H395 H 0.06515 0.28162 0.50163 0.0
C396 C 0.87694 0.13304 0.90695 0.0
C397 C 0.86027 0.14168 0.99565 0.0
C398 C 0.89638 0.22039 0.95043 0.0
C399 C 0.91139 0.21157 0.85891 0.0
N400 N 0.90399 0.15677 0.73938 0.0
N401 N 0.87757 0.19724 0.12152 0.0
C402 C 0.89833 0.16708 0.83438 0.0
C403 C 0.87651 0.1864 0.02334 0.0
N404 N 0.87729 0.09416 0.89695 0.0
N405 N 0.89872 0.26017 0.96764 0.0
H406 H 0.87078 0.17446 0.17889 0.0
H407 H 0.89271 0.22981 0.14678 0.0
H408 H 0.90776 0.28486 0.91444 0.0
H409 H 0.88486 0.26611 0.0304 0.0
H410 H 0.89223 0.08752 0.83738 0.0
H411 H 0.86936 0.07169 0.95549 0.0
H412 H 0.89091 0.12434 0.71435 0.0
H413 H 0.91671 0.18026 0.68235 0.0
C414 C 0.72553 0.86465 0.1791 0.0
C415 C 0.7639 0.90732 0.18009 0.0
C416 C 0.80224 0.87671 0.27969 0.0
C417 C 0.76151 0.83684 0.29375 0.0
N418 N 0.6825 0.79483 0.26481 0.0
N419 N 0.83738 0.9551 0.24896 0.0
C420 C 0.72254 0.83145 0.24618 0.0
C421 C 0.80217 0.91366 0.23393 0.0
N422 N 0.69271 0.85506 0.11068 0.0
N423 N 0.84125 0.87988 0.31095 0.0
H424 H 0.83928 0.98388 0.22155 0.0
H425 H 0.86311 0.96152 0.29844 0.0
H426 H 0.84323 0.85467 0.34846 0.0
H427 H 0.87213 0.90626 0.29154 0.0
H428 H 0.66584 0.82336 0.10066 0.0
H429 H 0.69517 0.87741 0.05556 0.0
H430 H 0.65255 0.7917 0.24033 0.0
H431 H 0.67872 0.76921 0.31149 0.0
C432 C 0.94632 0.71093 0.53088 0.0
C433 C 0.96805 0.74261 0.60775 0.0
C434 C 0.92859 0.78172 0.55398 0.0
C435 C 0.90172 0.74615 0.48839 0.0
N436 N 0.88692 0.67815 0.4089 0.0
N437 N 0.97614 0.80586 0.69944 0.0
C438 C 0.91128 0.71118 0.47536 0.0
C439 C 0.95868 0.77773 0.62014 0.0
N440 N 0.96055 0.6818 0.50746 0.0
N441 N 0.92562 0.81948 0.55472 0.0
H442 H 0.99881 0.80522 0.74934 0.0
H443 H 0.96518 0.82749 0.72144 0.0
H444 H 0.90335 0.82435 0.51235 0.0
H445 H 0.94846 0.84826 0.59122 0.0
H446 H 0.95002 0.66153 0.44485 0.0
H447 H 0.98581 0.68022 0.54585 0.0
H448 H 0.88695 0.64825 0.4067 0.0
H449 H 0.86562 0.68021 0.35681 0.0
C450 C 0.18988 0.90607 0.93416 0.0
C451 C 0.19681 0.88489 0.85115 0.0
C452 C 0.27745 0.93243 0.87191 0.0
C453 C 0.27037 0.9491 0.96247 0.0
N454 N 0.21975 0.94718 0.08733 0.0
N455 N 0.24725 0.87754 0.74054 0.0
C456 C 0.22655 0.93505 0.99504 0.0
C457 C 0.24067 0.898 0.82011 0.0
N458 N 0.14838 0.89879 0.95544 0.0
N459 N 0.31913 0.95088 0.83275 0.0
H460 H 0.22159 0.85596 0.69395 0.0
H461 H 0.27783 0.88068 0.72272 0.0
H462 H 0.34694 0.97576 0.86828 0.0
H463 H 0.32586 0.94422 0.76133 0.0
H464 H 0.14266 0.91825 1.00541 0.0
H465 H 0.11992 0.87606 0.91784 0.0
H466 H 0.18865 0.93369 0.12045 0.0
H467 H 0.24554 0.96764 0.13521 0.0
loop_
_geom_bond_atom_site_label_1
_geom_bond_atom_site_label_2
_geom_bond_distance
_geom_bond_site_symmetry_2
_ccdc_geom_bond_type
Co0 N4 2.148 . S
Co0 N10 2.128 1_554 S
Co0 N20 2.194 . S
Co0 O25 2.351 . S
Co0 O26 2.155 . S
Co0 O27 2.096 1_545 S
C1 N4 1.301 . S
C1 N5 1.328 . S
C1 H6 0.930 . S
C2 C3 1.333 . S
C2 N4 1.317 1_565 S
C2 H7 0.930 . S
C3 C2 1.333 . S
C3 N5 1.350 1_565 S
C3 H29 0.931 . S
N4 Co0 2.148 . S
N4 C1 1.301 . S
N4 C2 1.317 1_545 S
N5 C1 1.328 . S
N5 C3 1.350 1_545 S
H6 C1 0.930 . S
H7 C2 0.930 . S
C8 O9 1.224 . S
C8 O27 1.247 1_556 S
O9 C8 1.224 . S
N10 Co0 2.128 1_556 S
N10 C11 1.355 . S
N10 C13 1.311 . S
C11 N10 1.355 . S
C11 C12 1.363 . S
C11 H23 0.929 . S
C12 C11 1.363 . S
C12 N14 1.375 . S
C12 H30 0.931 . S
C13 N10 1.311 . S
C13 N14 1.347 . S
C13 H24 0.929 . S
N14 C12 1.375 . S
N14 C13 1.347 . S
C15 C18 1.365 . S
C15 N20 1.328 . S
C15 H21 0.929 . S
C16 C17 1.362 1_565 S
C16 C19 1.378 . S
C16 H31 0.929 . S
C17 C16 1.362 1_545 S
C17 C18 1.366 . S
C18 C15 1.365 . S
C18 C17 1.366 . S
C18 H32 0.930 . S
C19 C16 1.378 . S
C19 N20 1.315 1_565 S
C19 H22 0.930 . S
N20 Co0 2.194 . S
N20 C15 1.328 . S
N20 C19 1.315 1_545 S
H21 C15 0.929 . S
H22 C19 0.930 . S
H23 C11 0.929 . S
H24 C13 0.929 . S
O25 Co0 2.351 . S
O25 C28 1.244 . S
O26 Co0 2.155 . S
O26 C28 1.240 . S
O27 Co0 2.096 1_565 S
O27 C8 1.247 1_554 S
C28 O25 1.244 . S
C28 O26 1.240 . S
H29 C3 0.931 . S
H30 C12 0.931 . S
H31 C16 0.929 . S
H32 C18 0.930 . S
Co33 N37 2.148 . S
Co33 N43 2.128 . S
Co33 N53 2.194 . S
Co33 O58 2.351 . S
Co33 O59 2.155 . S
Co33 O60 2.096 . S
C34 N37 1.301 . S
C34 N38 1.328 . S
C34 H39 0.930 . S
C35 C36 1.333 . S
C35 N37 1.317 . S
C35 H40 0.930 . S
C36 C35 1.333 . S
C36 N38 1.350 . S
C36 H62 0.931 . S
N37 Co33 2.148 . S
N37 C34 1.301 . S
N37 C35 1.317 . S
N38 C34 1.328 . S
N38 C36 1.350 . S
H39 C34 0.930 . S
H40 C35 0.930 . S
C41 O42 1.224 . S
C41 O60 1.247 . S
O42 C41 1.224 . S
N43 Co33 2.128 . S
N43 C44 1.355 . S
N43 C46 1.311 . S
C44 N43 1.355 . S
C44 C45 1.363 . S
C44 H56 0.929 . S
C45 C44 1.363 . S
C45 N47 1.375 . S
C45 H63 0.931 . S
C46 N43 1.311 . S
C46 N47 1.347 . S
C46 H57 0.929 . S
N47 C45 1.375 . S
N47 C46 1.347 . S
C48 C51 1.365 . S
C48 N53 1.328 . S
C48 H54 0.929 . S
C49 C50 1.362 . S
C49 C52 1.378 . S
C49 H64 0.929 . S
C50 C49 1.362 . S
C50 C51 1.366 . S
C51 C48 1.365 . S
C51 C50 1.366 . S
C51 H65 0.930 . S
C52 C49 1.378 . S
C52 N53 1.315 . S
C52 H55 0.930 . S
N53 Co33 2.194 . S
N53 C48 1.328 . S
N53 C52 1.315 . S
H54 C48 0.929 . S
H55 C52 0.930 . S
H56 C44 0.929 . S
H57 C46 0.929 . S
O58 Co33 2.351 . S
O58 C61 1.244 . S
O59 Co33 2.155 . S
O59 C61 1.240 . S
O60 Co33 2.096 . S
O60 C41 1.247 . S
C61 O58 1.244 . S
C61 O59 1.240 . S
H62 C36 0.931 . S
H63 C45 0.931 . S
H64 C49 0.929 . S
H65 C51 0.930 . S
Co66 N70 2.148 . S
Co66 N76 2.128 . S
Co66 N86 2.194 . S
Co66 O91 2.351 1_455 S
Co66 O92 2.155 1_455 S
Co66 O93 2.096 . S
C67 N70 1.301 . S
C67 N71 1.328 1_556 S
C67 H72 0.930 1_455 S
C68 C69 1.333 1_556 S
C68 N70 1.317 . S
C68 H73 0.930 . S
C69 C68 1.333 1_554 S
C69 N71 1.350 . S
C69 H95 0.931 . S
N70 Co66 2.148 . S
N70 C67 1.301 . S
N70 C68 1.317 . S
N71 C67 1.328 1_554 S
N71 C69 1.350 . S
H72 C67 0.930 1_655 S
H73 C68 0.930 . S
C74 O75 1.224 . S
C74 O93 1.247 . S
O75 C74 1.224 . S
N76 Co66 2.128 . S
N76 C77 1.355 1_455 S
N76 C79 1.311 . S
C77 N76 1.355 1_655 S
C77 C78 1.363 . S
C77 H89 0.929 . S
C78 C77 1.363 . S
C78 N80 1.375 1_655 S
C78 H96 0.931 . S
C79 N76 1.311 . S
C79 N80 1.347 . S
C79 H90 0.929 . S
N80 C78 1.375 1_455 S
N80 C79 1.347 . S
C81 C84 1.365 . S
C81 N86 1.328 1_655 S
C81 H87 0.929 . S
C82 C83 1.362 . S
C82 C85 1.378 . S
C82 H97 0.929 . S
C83 C82 1.362 . S
C83 C84 1.366 1_455 S
C84 C81 1.365 . S
C84 C83 1.366 1_655 S
C84 H98 0.930 . S
C85 C82 1.378 . S
C85 N86 1.315 . S
C85 H88 0.930 . S
N86 Co66 2.194 . S
N86 C81 1.328 1_455 S
N86 C85 1.315 . S
H87 C81 0.929 . S
H88 C85 0.930 . S
H89 C77 0.929 . S
H90 C79 0.929 . S
O91 Co66 2.351 1_655 S
O91 C94 1.244 . S
O92 Co66 2.155 1_655 S
O92 C94 1.240 . S
O93 Co66 2.096 . S
O93 C74 1.247 . S
C94 O91 1.244 . S
C94 O92 1.240 . S
H95 C69 0.931 . S
H96 C78 0.931 . S
H97 C82 0.929 . S
H98 C84 0.930 . S
Co99 N103 2.148 . S
Co99 N109 2.128 1_554 S
Co99 N119 2.194 . S
Co99 O124 2.351 1_545 S
Co99 O125 2.155 1_545 S
Co99 O126 2.096 . S
C100 N103 1.301 . S
C100 N104 1.328 . S
C100 H105 0.930 1_545 S
C101 C102 1.333 . S
C101 N103 1.317 . S
C101 H106 0.930 . S
C102 C101 1.333 . S
C102 N104 1.350 . S
C102 H128 0.931 . S
N103 Co99 2.148 . S
N103 C100 1.301 . S
N103 C101 1.317 . S
N104 C100 1.328 . S
N104 C102 1.350 . S
H105 C100 0.930 1_565 S
H106 C101 0.930 . S
C107 O108 1.224 . S
C107 O126 1.247 1_556 S
O108 C107 1.224 . S
N109 Co99 2.128 1_556 S
N109 C110 1.355 1_545 S
N109 C112 1.311 . S
C110 N109 1.355 1_565 S
C110 C111 1.363 . S
C110 H122 0.929 . S
C111 C110 1.363 . S
C111 N113 1.375 1_565 S
C111 H129 0.931 . S
C112 N109 1.311 . S
C112 N113 1.347 . S
C112 H123 0.929 . S
N113 C111 1.375 1_545 S
N113 C112 1.347 . S
C114 C117 1.365 . S
C114 N119 1.328 1_565 S
C114 H120 0.929 . S
C115 C116 1.362 . S
C115 C118 1.378 . S
C115 H130 0.929 . S
C116 C115 1.362 . S
C116 C117 1.366 1_545 S
C117 C114 1.365 . S
C117 C116 1.366 1_565 S
C117 H131 0.930 . S
C118 C115 1.378 . S
C118 N119 1.315 . S
C118 H121 0.930 . S
N119 Co99 2.194 . S
N119 C114 1.328 1_545 S
N119 C118 1.315 . S
H120 C114 0.929 . S
H121 C118 0.930 . S
H122 C110 0.929 . S
H123 C112 0.929 . S
O124 Co99 2.351 1_565 S
O124 C127 1.244 . S
O125 Co99 2.155 1_565 S
O125 C127 1.240 . S
O126 Co99 2.096 . S
O126 C107 1.247 1_554 S
C127 O124 1.244 . S
C127 O125 1.240 . S
H128 C102 0.931 . S
H129 C111 0.931 . S
H130 C115 0.929 . S
H131 C117 0.930 . S
Co132 N136 2.148 . S
Co132 N142 2.128 . S
Co132 N152 2.194 . S
Co132 O157 2.351 . S
Co132 O158 2.155 . S
Co132 O159 2.096 . S
C133 N136 1.301 . S
C133 N137 1.328 . S
C133 H138 0.930 . S
C134 C135 1.333 . S
C134 N136 1.317 . S
C134 H139 0.930 . S
C135 C134 1.333 . S
C135 N137 1.350 . S
C135 H161 0.931 . S
N136 Co132 2.148 . S
N136 C133 1.301 . S
N136 C134 1.317 . S
N137 C133 1.328 . S
N137 C135 1.350 . S
H138 C133 0.930 . S
H139 C134 0.930 . S
C140 O141 1.224 . S
C140 O159 1.247 . S
O141 C140 1.224 . S
N142 Co132 2.128 . S
N142 C143 1.355 . S
N142 C145 1.311 . S
C143 N142 1.355 . S
C143 C144 1.363 . S
C143 H155 0.929 . S
C144 C143 1.363 . S
C144 N146 1.375 . S
C144 H162 0.931 . S
C145 N142 1.311 . S
C145 N146 1.347 . S
C145 H156 0.929 . S
N146 C144 1.375 . S
N146 C145 1.347 . S
C147 C150 1.365 . S
C147 N152 1.328 . S
C147 H153 0.929 . S
C148 C149 1.362 . S
C148 C151 1.378 . S
C148 H163 0.929 . S
C149 C148 1.362 . S
C149 C150 1.366 . S
C150 C147 1.365 . S
C150 C149 1.366 . S
C150 H164 0.930 . S
C151 C148 1.378 . S
C151 N152 1.315 . S
C151 H154 0.930 . S
N152 Co132 2.194 . S
N152 C147 1.328 . S
N152 C151 1.315 . S
H153 C147 0.929 . S
H154 C151 0.930 . S
H155 C143 0.929 . S
H156 C145 0.929 . S
O157 Co132 2.351 . S
O157 C160 1.244 . S
O158 Co132 2.155 . S
O158 C160 1.240 . S
O159 Co132 2.096 . S
O159 C140 1.247 . S
C160 O157 1.244 . S
C160 O158 1.240 . S
H161 C135 0.931 . S
H162 C144 0.931 . S
H163 C148 0.929 . S
H164 C150 0.930 . S
Co165 N169 2.148 . S
Co165 N175 2.128 . S
Co165 N185 2.194 . S
Co165 O190 2.351 . S
Co165 O191 2.155 . S
Co165 O192 2.096 1_455 S
C166 N169 1.301 . S
C166 N170 1.328 1_556 S
C166 H171 0.930 . S
C167 C168 1.333 1_556 S
C167 N169 1.317 1_655 S
C167 H172 0.930 . S
C168 C167 1.333 1_554 S
C168 N170 1.350 1_655 S
C168 H194 0.931 . S
N169 Co165 2.148 . S
N169 C166 1.301 . S
N169 C167 1.317 1_455 S
N170 C166 1.328 1_554 S
N170 C168 1.350 1_455 S
H171 C166 0.930 . S
H172 C167 0.930 . S
C173 O174 1.224 . S
C173 O192 1.247 . S
O174 C173 1.224 . S
N175 Co165 2.128 . S
N175 C176 1.355 . S
N175 C178 1.311 . S
C176 N175 1.355 . S
C176 C177 1.363 . S
C176 H188 0.929 . S
C177 C176 1.363 . S
C177 N179 1.375 . S
C177 H195 0.931 . S
C178 N175 1.311 . S
C178 N179 1.347 . S
C178 H189 0.929 . S
N179 C177 1.375 . S
N179 C178 1.347 . S
C180 C183 1.365 . S
C180 N185 1.328 . S
C180 H186 0.929 . S
C181 C182 1.362 1_655 S
C181 C184 1.378 . S
C181 H196 0.929 . S
C182 C181 1.362 1_455 S
C182 C183 1.366 . S
C183 C180 1.365 . S
C183 C182 1.366 . S
C183 H197 0.930 . S
C184 C181 1.378 . S
C184 N185 1.315 1_655 S
C184 H187 0.930 . S
N185 Co165 2.194 . S
N185 C180 1.328 . S
N185 C184 1.315 1_455 S
H186 C180 0.929 . S
H187 C184 0.930 . S
H188 C176 0.929 . S
H189 C178 0.929 . S
O190 Co165 2.351 . S
O190 C193 1.244 . S
O191 Co165 2.155 . S
O191 C193 1.240 . S
O192 Co165 2.096 1_655 S
O192 C173 1.247 . S
C193 O190 1.244 . S
C193 O191 1.240 . S
H194 C168 0.931 . S
H195 C177 0.931 . S
H196 C181 0.929 . S
H197 C183 0.930 . S
C198 C199 1.363 . S
C198 C204 1.379 . S
C198 N206 1.356 . S
C199 C198 1.363 . S
C199 C205 1.363 1_554 S
C200 C201 1.363 1_556 S
C200 C205 1.379 . S
C200 N207 1.356 1_545 S
C201 C200 1.363 1_554 S
C201 C204 1.363 . S
N202 C204 1.356 . S
N202 H214 0.984 . S
N202 H215 0.985 . S
N203 C205 1.356 1_565 S
N203 H208 0.984 . S
N203 H209 0.985 . S
C204 C198 1.379 . S
C204 C201 1.363 . S
C204 N202 1.356 . S
C205 C199 1.363 1_556 S
C205 C200 1.379 . S
C205 N203 1.356 1_545 S
N206 C198 1.356 . S
N206 H212 0.984 . S
N206 H213 0.984 . S
N207 C200 1.356 1_565 S
N207 H210 0.984 . S
N207 H211 0.985 . S
H208 N203 0.984 . S
H209 N203 0.985 . S
H210 N207 0.984 . S
H211 N207 0.985 . S
H212 N206 0.984 . S
H213 N206 0.984 . S
H214 N202 0.984 . S
H215 N202 0.985 . S
C216 C217 1.363 . S
C216 C222 1.379 . S
C216 N224 1.356 . S
C217 C216 1.363 . S
C217 C223 1.363 . S
C218 C219 1.363 . S
C218 C223 1.379 . S
C218 N225 1.356 . S
C219 C218 1.363 . S
C219 C222 1.363 . S
N220 C222 1.356 . S
N220 H232 0.984 . S
N220 H233 0.985 . S
N221 C223 1.356 . S
N221 H226 0.984 . S
N221 H227 0.985 . S
C222 C216 1.379 . S
C222 C219 1.363 . S
C222 N220 1.356 . S
C223 C217 1.363 . S
C223 C218 1.379 . S
C223 N221 1.356 . S
N224 C216 1.356 . S
N224 H230 0.984 . S
N224 H231 0.984 . S
N225 C218 1.356 . S
N225 H228 0.984 . S
N225 H229 0.985 . S
H226 N221 0.984 . S
H227 N221 0.985 . S
H228 N225 0.984 . S
H229 N225 0.985 . S
H230 N224 0.984 . S
H231 N224 0.984 . S
H232 N220 0.984 . S
H233 N220 0.985 . S
C234 C235 1.363 . S
C234 C240 1.379 . S
C234 N242 1.356 . S
C235 C234 1.363 . S
C235 C241 1.363 . S
C236 C237 1.363 . S
C236 C241 1.379 . S
C236 N243 1.356 1_455 S
C237 C236 1.363 . S
C237 C240 1.363 . S
N238 C240 1.356 . S
N238 H250 0.984 . S
N238 H251 0.985 . S
N239 C241 1.356 1_655 S
N239 H244 0.984 . S
N239 H245 0.985 . S
C240 C234 1.379 . S
C240 C237 1.363 . S
C240 N238 1.356 . S
C241 C235 1.363 . S
C241 C236 1.379 . S
C241 N239 1.356 1_455 S
N242 C234 1.356 . S
N242 H248 0.984 . S
N242 H249 0.984 . S
N243 C236 1.356 1_655 S
N243 H246 0.984 . S
N243 H247 0.985 . S
H244 N239 0.984 . S
H245 N239 0.985 . S
H246 N243 0.984 . S
H247 N243 0.985 . S
H248 N242 0.984 . S
H249 N242 0.984 . S
H250 N238 0.984 . S
H251 N238 0.985 . S
C252 C253 1.363 1_565 S
C252 C258 1.379 1_565 S
C252 N260 1.356 . S
C253 C252 1.363 1_545 S
C253 C259 1.363 . S
C254 C255 1.363 . S
C254 C259 1.379 . S
C254 N261 1.356 . S
C255 C254 1.363 . S
C255 C258 1.363 . S
N256 C258 1.356 1_565 S
N256 H268 0.984 . S
N256 H269 0.985 1_565 S
N257 C259 1.356 . S
N257 H262 0.984 . S
N257 H263 0.985 . S
C258 C252 1.379 1_545 S
C258 C255 1.363 . S
C258 N256 1.356 1_545 S
C259 C253 1.363 . S
C259 C254 1.379 . S
C259 N257 1.356 . S
N260 C252 1.356 . S
N260 H266 0.984 . S
N260 H267 0.984 . S
N261 C254 1.356 . S
N261 H264 0.984 . S
N261 H265 0.985 . S
H262 N257 0.984 . S
H263 N257 0.985 . S
H264 N261 0.984 . S
H265 N261 0.985 . S
H266 N260 0.984 . S
H267 N260 0.984 . S
H268 N256 0.984 . S
H269 N256 0.985 1_545 S
C270 C271 1.363 . S
C270 C276 1.379 . S
C270 N278 1.356 . S
C271 C270 1.363 . S
C271 C277 1.363 . S
C272 C273 1.363 . S
C272 C277 1.379 . S
C272 N279 1.356 1_556 S
C273 C272 1.363 . S
C273 C276 1.363 . S
N274 C276 1.356 1_554 S
N274 H286 0.984 . S
N274 H287 0.985 . S
N275 C277 1.356 . S
N275 H280 0.984 . S
N275 H281 0.985 . S
C276 C270 1.379 . S
C276 C273 1.363 . S
C276 N274 1.356 1_556 S
C277 C271 1.363 . S
C277 C272 1.379 . S
C277 N275 1.356 . S
N278 C270 1.356 . S
N278 H284 0.984 . S
N278 H285 0.984 . S
N279 C272 1.356 1_554 S
N279 H282 0.984 . S
N279 H283 0.985 1_554 S
H280 N275 0.984 . S
H281 N275 0.985 . S
H282 N279 0.984 . S
H283 N279 0.985 1_556 S
H284 N278 0.984 . S
H285 N278 0.984 . S
H286 N274 0.984 . S
H287 N274 0.985 . S
C288 C289 1.363 . S
C288 C294 1.379 . S
C288 N296 1.356 . S
C289 C288 1.363 . S
C289 C295 1.362 . S
C290 C291 1.363 1_655 S
C290 C295 1.379 1_655 S
C290 N297 1.356 . S
C291 C290 1.363 1_455 S
C291 C294 1.363 . S
N292 C294 1.356 . S
N292 H304 0.984 . S
N292 H305 0.985 . S
N293 C295 1.357 1_655 S
N293 H298 0.994 . S
N293 H299 0.985 . S
C294 C288 1.379 . S
C294 C291 1.363 . S
C294 N292 1.356 . S
C295 C289 1.362 . S
C295 C290 1.379 1_455 S
C295 N293 1.357 1_455 S
N296 C288 1.356 . S
N296 H302 0.984 . S
N296 H303 0.984 . S
N297 C290 1.356 . S
N297 H300 0.984 . S
N297 H301 0.985 . S
H298 N293 0.994 . S
H299 N293 0.985 . S
H300 N297 0.984 . S
H301 N297 0.985 . S
H302 N296 0.984 . S
H303 N296 0.984 . S
H304 N292 0.984 . S
H305 N292 0.985 . S
C306 C307 1.363 1_565 S
C306 C312 1.379 . S
C306 N314 1.356 . S
C307 C306 1.363 1_545 S
C307 C313 1.363 . S
C308 C309 1.363 . S
C308 C313 1.379 . S
C308 N315 1.356 . S
C309 C308 1.363 . S
C309 C312 1.363 1_545 S
N310 C312 1.356 . S
N310 H322 0.984 . S
N310 H323 0.985 . S
N311 C313 1.356 . S
N311 H316 0.984 . S
N311 H317 0.985 . S
C312 C306 1.379 . S
C312 C309 1.363 1_565 S
C312 N310 1.356 . S
C313 C307 1.363 . S
C313 C308 1.379 . S
C313 N311 1.356 . S
N314 C306 1.356 . S
N314 H320 0.984 . S
N314 H321 0.984 . S
N315 C308 1.356 . S
N315 H318 0.984 . S
N315 H319 0.985 . S
H316 N311 0.984 . S
H317 N311 0.985 . S
H318 N315 0.984 . S
H319 N315 0.985 . S
H320 N314 0.984 . S
H321 N314 0.984 . S
H322 N310 0.984 . S
H323 N310 0.985 . S
C324 C325 1.363 . S
C324 C330 1.379 . S
C324 N332 1.356 . S
C325 C324 1.363 . S
C325 C331 1.363 . S
C326 C327 1.363 . S
C326 C331 1.379 . S
C326 N333 1.356 1_556 S
C327 C326 1.363 . S
C327 C330 1.363 . S
N328 C330 1.356 1_554 S
N328 H340 0.984 1_554 S
N328 H341 0.985 . S
N329 C331 1.356 . S
N329 H334 0.984 . S
N329 H335 0.985 . S
C330 C324 1.379 . S
C330 C327 1.363 . S
C330 N328 1.356 1_556 S
C331 C325 1.363 . S
C331 C326 1.379 . S
C331 N329 1.356 . S
N332 C324 1.356 . S
N332 H338 0.984 . S
N332 H339 0.984 . S
N333 C326 1.356 1_554 S
N333 H336 0.984 . S
N333 H337 0.985 . S
H334 N329 0.984 . S
H335 N329 0.985 . S
H336 N333 0.984 . S
H337 N333 0.985 . S
H338 N332 0.984 . S
H339 N332 0.984 . S
H340 N328 0.984 1_556 S
H341 N328 0.985 . S
C342 C343 1.363 . S
C342 C348 1.379 . S
C342 N350 1.356 . S
C343 C342 1.363 . S
C343 C349 1.363 . S
C344 C345 1.363 . S
C344 C349 1.379 . S
C344 N351 1.356 1_455 S
C345 C344 1.363 . S
C345 C348 1.363 . S
N346 C348 1.356 . S
N346 H358 0.984 . S
N346 H359 0.985 . S
N347 C349 1.356 . S
N347 H352 0.984 . S
N347 H353 0.985 . S
C348 C342 1.379 . S
C348 C345 1.363 . S
C348 N346 1.356 . S
C349 C343 1.363 . S
C349 C344 1.379 . S
C349 N347 1.356 . S
N350 C342 1.356 . S
N350 H356 0.984 . S
N350 H357 0.984 . S
N351 C344 1.356 1_655 S
N351 H354 0.984 . S
N351 H355 0.985 . S
H352 N347 0.984 . S
H353 N347 0.985 . S
H354 N351 0.984 . S
H355 N351 0.985 . S
H356 N350 0.984 . S
H357 N350 0.984 . S
H358 N346 0.984 . S
H359 N346 0.985 . S
C360 C361 1.363 . S
C360 C366 1.379 . S
C360 N368 1.356 . S
C361 C360 1.363 . S
C361 C367 1.363 . S
C362 C363 1.363 . S
C362 C367 1.379 . S
C362 N369 1.356 . S
C363 C362 1.363 . S
C363 C366 1.363 . S
N364 C366 1.356 . S
N364 H376 0.984 . S
N364 H377 0.985 . S
N365 C367 1.356 . S
N365 H370 0.984 . S
N365 H371 0.985 . S
C366 C360 1.379 . S
C366 C363 1.363 . S
C366 N364 1.356 . S
C367 C361 1.363 . S
C367 C362 1.379 . S
C367 N365 1.356 . S
N368 C360 1.356 . S
N368 H374 0.984 . S
N368 H375 0.984 . S
N369 C362 1.356 . S
N369 H372 0.984 . S
N369 H373 0.985 . S
H370 N365 0.984 . S
H371 N365 0.985 . S
H372 N369 0.984 . S
H373 N369 0.985 . S
H374 N368 0.984 . S
H375 N368 0.984 . S
H376 N364 0.984 . S
H377 N364 0.985 . S
C378 C379 1.363 . S
C378 C384 1.379 . S
C378 N386 1.356 . S
C379 C378 1.363 . S
C379 C385 1.363 . S
C380 C381 1.363 . S
C380 C385 1.379 . S
C380 N387 1.356 . S
C381 C380 1.363 . S
C381 C384 1.363 . S
N382 C384 1.356 . S
N382 H394 0.984 . S
N382 H395 0.985 . S
N383 C385 1.356 . S
N383 H388 0.984 . S
N383 H389 0.985 . S
C384 C378 1.379 . S
C384 C381 1.363 . S
C384 N382 1.356 . S
C385 C379 1.363 . S
C385 C380 1.379 . S
C385 N383 1.356 . S
N386 C378 1.356 . S
N386 H392 0.984 . S
N386 H393 0.984 . S
N387 C380 1.356 . S
N387 H390 0.984 . S
N387 H391 0.985 . S
H388 N383 0.984 . S
H389 N383 0.985 . S
H390 N387 0.984 . S
H391 N387 0.985 . S
H392 N386 0.984 . S
H393 N386 0.984 . S
H394 N382 0.984 . S
H395 N382 0.985 . S
C396 C397 1.363 . S
C396 C402 1.379 . S
C396 N404 1.356 . S
C397 C396 1.363 . S
C397 C403 1.363 . S
C398 C399 1.363 . S
C398 C403 1.379 . S
C398 N405 1.356 . S
C399 C398 1.363 . S
C399 C402 1.363 . S
N400 C402 1.356 . S
N400 H412 0.984 . S
N400 H413 0.985 . S
N401 C403 1.356 1_554 S
N401 H406 0.984 . S
N401 H407 0.985 . S
C402 C396 1.379 . S
C402 C399 1.363 . S
C402 N400 1.356 . S
C403 C397 1.363 . S
C403 C398 1.379 . S
C403 N401 1.356 1_556 S
N404 C396 1.356 . S
N404 H410 0.984 . S
N404 H411 0.984 . S
N405 C398 1.356 . S
N405 H408 0.984 . S
N405 H409 0.985 . S
H406 N401 0.984 . S
H407 N401 0.985 . S
H408 N405 0.984 . S
H409 N405 0.985 . S
H410 N404 0.984 . S
H411 N404 0.984 . S
H412 N400 0.984 . S
H413 N400 0.985 . S
C414 C415 1.363 . S
C414 C420 1.379 . S
C414 N422 1.356 . S
C415 C414 1.363 . S
C415 C421 1.363 . S
C416 C417 1.363 . S
C416 C421 1.379 . S
C416 N423 1.356 . S
C417 C416 1.363 . S
C417 C420 1.363 . S
N418 C420 1.356 . S
N418 H430 0.984 . S
N418 H431 0.985 . S
N419 C421 1.356 . S
N419 H424 0.984 . S
N419 H425 0.985 . S
C420 C414 1.379 . S
C420 C417 1.363 . S
C420 N418 1.356 . S
C421 C415 1.363 . S
C421 C416 1.379 . S
C421 N419 1.356 . S
N422 C414 1.356 . S
N422 H428 0.984 . S
N422 H429 0.984 . S
N423 C416 1.356 . S
N423 H426 0.984 . S
N423 H427 0.985 . S
H424 N419 0.984 . S
H425 N419 0.985 . S
H426 N423 0.984 . S
H427 N423 0.985 . S
H428 N422 0.984 . S
H429 N422 0.984 . S
H430 N418 0.984 . S
H431 N418 0.985 . S
C432 C433 1.363 . S
C432 C438 1.379 . S
C432 N440 1.356 . S
C433 C432 1.363 . S
C433 C439 1.363 . S
C434 C435 1.363 . S
C434 C439 1.379 . S
C434 N441 1.356 . S
C435 C434 1.363 . S
C435 C438 1.363 . S
N436 C438 1.356 . S
N436 H448 0.984 . S
N436 H449 0.985 . S
N437 C439 1.356 . S
N437 H442 0.984 . S
N437 H443 0.985 . S
C438 C432 1.379 . S
C438 C435 1.363 . S
C438 N436 1.356 . S
C439 C433 1.363 . S
C439 C434 1.379 . S
C439 N437 1.356 . S
N440 C432 1.356 . S
N440 H446 0.984 . S
N440 H447 0.984 . S
N441 C434 1.356 . S
N441 H444 0.984 . S
N441 H445 0.985 . S
H442 N437 0.984 . S
H443 N437 0.985 . S
H444 N441 0.984 . S
H445 N441 0.985 . S
H446 N440 0.984 . S
H447 N440 0.984 . S
H448 N436 0.984 . S
H449 N436 0.985 . S
C450 C451 1.363 . S
C450 C456 1.379 . S
C450 N458 1.356 . S
C451 C450 1.363 . S
C451 C457 1.363 . S
C452 C453 1.363 . S
C452 C457 1.379 . S
C452 N459 1.356 . S
C453 C452 1.363 . S
C453 C456 1.363 . S
N454 C456 1.356 1_554 S
N454 H466 0.984 . S
N454 H467 0.985 . S
N455 C457 1.356 . S
N455 H460 0.984 . S
N455 H461 0.985 . S
C456 C450 1.379 . S
C456 C453 1.363 . S
C456 N454 1.356 1_556 S
C457 C451 1.363 . S
C457 C452 1.379 . S
C457 N455 1.356 . S
N458 C450 1.356 . S
N458 H464 0.984 . S
N458 H465 0.984 . S
N459 C452 1.356 . S
N459 H462 0.984 . S
N459 H463 0.985 . S
H460 N455 0.984 . S
H461 N455 0.985 . S
H462 N459 0.984 . S
H463 N459 0.985 . S
H464 N458 0.984 . S
H465 N458 0.984 . S
H466 N454 0.984 . S
H467 N454 0.985 . S
C199 C17 1.567 . S
C201 C116 1.567 . S
C217 C149 1.567 . S
C219 C50 1.567 . S
C235 C83 1.567 . S
C237 C182 1.567 . S
C253 N5 1.322 . S
C255 N14 1.318 . S
C271 N38 1.322 . S
C273 N47 1.318 1_556 S
C289 N71 1.322 . S
C291 N80 1.318 . S
C307 N113 1.318 . S
C309 N104 1.322 . S
C325 N137 1.322 . S
C327 N146 1.318 1_556 S
C343 N179 1.318 . S
C345 N170 1.322 . S
C361 C28 1.552 . S
C363 C41 1.543 . S
C379 C61 1.552 . S
C381 C74 1.542 . S
C397 C107 1.542 . S
C399 C94 1.551 . S
C415 C127 1.551 . S
C417 C140 1.542 . S
C433 C173 1.542 . S
C435 C160 1.551 . S
C451 C193 1.551 . S
C453 C8 1.542 . S
