# Generated by pormake.
# Topology umc, (4)-cn, num edge types: 1
# Building blocks:
#     Node 0, Type 0, BuildingBlock: GALJAG_clean_sbu_0, # of connection points: 4
#     Node 1, Type 0, BuildingBlock: GALJAG_clean_sbu_0, # of connection points: 4
#     Node 2, Type 0, BuildingBlock: GALJAG_clean_sbu_0, # of connection points: 4
#     Node 3, Type 0, BuildingBlock: GALJAG_clean_sbu_0, # of connection points: 4
#     Node 4, Type 0, BuildingBlock: GALJAG_clean_sbu_0, # of connection points: 4
#     Node 5, Type 0, BuildingBlock: GALJAG_clean_sbu_0, # of connection points: 4
#     Node 6, Type 0, BuildingBlock: GALJAG_clean_sbu_0, # of connection points: 4
#     Node 7, Type 0, BuildingBlock: GALJAG_clean_sbu_0, # of connection points: 4
#     Node 8, Type 0, BuildingBlock: GALJAG_clean_sbu_0, # of connection points: 4
#     Node 9, Type 0, BuildingBlock: GALJAG_clean_sbu_0, # of connection points: 4
#     Node 10, Type 0, BuildingBlock: GALJAG_clean_sbu_0, # of connection points: 4
#     Node 11, Type 0, BuildingBlock: GALJAG_clean_sbu_0, # of connection points: 4
#     Node 12, Type 0, BuildingBlock: GALJAG_clean_sbu_0, # of connection points: 4
#     Node 13, Type 0, BuildingBlock: GALJAG_clean_sbu_0, # of connection points: 4
#     Node 14, Type 0, BuildingBlock: GALJAG_clean_sbu_0, # of connection points: 4
#     Node 15, Type 0, BuildingBlock: GALJAG_clean_sbu_0, # of connection points: 4
#     Edge 16, Type (0, 0), BuildingBlock: CIFDUS_clean_linker_0, # of connection points: 2
#     Edge 17, Type (0, 0), BuildingBlock: CIFDUS_clean_linker_0, # of connection points: 2
#     Edge 18, Type (0, 0), BuildingBlock: CIFDUS_clean_linker_0, # of connection points: 2
#     Edge 19, Type (0, 0), BuildingBlock: CIFDUS_clean_linker_0, # of connection points: 2
#     Edge 20, Type (0, 0), BuildingBlock: CIFDUS_clean_linker_0, # of connection points: 2
#     Edge 21, Type (0, 0), BuildingBlock: CIFDUS_clean_linker_0, # of connection points: 2
#     Edge 22, Type (0, 0), BuildingBlock: CIFDUS_clean_linker_0, # of connection points: 2
#     Edge 23, Type (0, 0), BuildingBlock: CIFDUS_clean_linker_0, # of connection points: 2
#     Edge 24, Type (0, 0), BuildingBlock: CIFDUS_clean_linker_0, # of connection points: 2
#     Edge 25, Type (0, 0), BuildingBlock: CIFDUS_clean_linker_0, # of connection points: 2
#     Edge 26, Type (0, 0), BuildingBlock: CIFDUS_clean_linker_0, # of connection points: 2
#     Edge 27, Type (0, 0), BuildingBlock: CIFDUS_clean_linker_0, # of connection points: 2
#     Edge 28, Type (0, 0), BuildingBlock: CIFDUS_clean_linker_0, # of connection points: 2
#     Edge 29, Type (0, 0), BuildingBlock: CIFDUS_clean_linker_0, # of connection points: 2
#     Edge 30, Type (0, 0), BuildingBlock: CIFDUS_clean_linker_0, # of connection points: 2
#     Edge 31, Type (0, 0), BuildingBlock: CIFDUS_clean_linker_0, # of connection points: 2
#     Edge 32, Type (0, 0), BuildingBlock: CIFDUS_clean_linker_0, # of connection points: 2
#     Edge 33, Type (0, 0), BuildingBlock: CIFDUS_clean_linker_0, # of connection points: 2
#     Edge 34, Type (0, 0), BuildingBlock: CIFDUS_clean_linker_0, # of connection points: 2
#     Edge 35, Type (0, 0), BuildingBlock: CIFDUS_clean_linker_0, # of connection points: 2
#     Edge 36, Type (0, 0), BuildingBlock: CIFDUS_clean_linker_0, # of connection points: 2
#     Edge 37, Type (0, 0), BuildingBlock: CIFDUS_clean_linker_0, # of connection points: 2
#     Edge 38, Type (0, 0), BuildingBlock: CIFDUS_clean_linker_0, # of connection points: 2
#     Edge 39, Type (0, 0), BuildingBlock: CIFDUS_clean_linker_0, # of connection points: 2
#     Edge 40, Type (0, 0), BuildingBlock: CIFDUS_clean_linker_0, # of connection points: 2
#     Edge 41, Type (0, 0), BuildingBlock: CIFDUS_clean_linker_0, # of connection points: 2
#     Edge 42, Type (0, 0), BuildingBlock: CIFDUS_clean_linker_0, # of connection points: 2
#     Edge 43, Type (0, 0), BuildingBlock: CIFDUS_clean_linker_0, # of connection points: 2
#     Edge 44, Type (0, 0), BuildingBlock: CIFDUS_clean_linker_0, # of connection points: 2
#     Edge 45, Type (0, 0), BuildingBlock: CIFDUS_clean_linker_0, # of connection points: 2
#     Edge 46, Type (0, 0), BuildingBlock: CIFDUS_clean_linker_0, # of connection points: 2
#     Edge 47, Type (0, 0), BuildingBlock: CIFDUS_clean_linker_0, # of connection points: 2
# Relax obj value: 0.064
# Max RMSD: 0.131
# Mean RMSD: 0.131
data_MOF--net-umc--node1-GALJAG_clean_sbu_0--edge1-CIFDUS_clean_linker_0
_symmetry_space_group_name_H-M    P1
_symmetry_Int_Tables_number       1
_symmetry_cell_setting            triclinic
loop_
_symmetry_equiv_pos_as_xyz
'x, y, z'
_cell_length_a     36.398085
_cell_length_b     33.378135
_cell_length_c     49.730268
_cell_angle_alpha  89.994523
_cell_angle_beta   90.007283
_cell_angle_gamma 89.994812
loop_
_atom_site_label
_atom_site_type_symbol
_atom_site_fract_x
_atom_site_fract_y
_atom_site_fract_z
_atom_type_partial_charge
In0 In 0.33194 0.07616 0.36915 0.0
O1 O 0.32927 0.1447 0.37067 0.0
O2 O 0.27938 0.11165 0.37429 0.0
C3 C 0.40335 0.05595 0.3637 0.0
C4 C 0.32274 0.05019 0.4199 0.0
C5 C 0.31003 0.05605 0.31935 0.0
O6 O 0.39303 0.09204 0.36628 0.0
O7 O 0.37761 0.03054 0.36344 0.0
O8 O 0.30421 0.03322 0.33931 0.0
O9 O 0.32662 0.08822 0.3248 0.0
C10 C 0.29464 0.14559 0.3733 0.0
O11 O 0.30187 0.03808 0.40117 0.0
O12 O 0.34725 0.07468 0.4128 0.0
In13 In 0.67439 0.93492 0.37059 0.0
O14 O 0.7025 0.96741 0.40613 0.0
O15 O 0.6589 0.92641 0.41384 0.0
C16 C 0.69831 0.96702 0.32424 0.0
C17 C 0.71085 0.86459 0.36968 0.0
C18 C 0.60304 0.95569 0.36469 0.0
O19 O 0.70232 0.98496 0.34651 0.0
O20 O 0.68302 0.93317 0.32571 0.0
O21 O 0.61365 0.91958 0.36345 0.0
O22 O 0.62838 0.98082 0.36869 0.0
C23 C 0.68224 0.95038 0.42342 0.0
O24 O 0.67625 0.86653 0.36722 0.0
O25 O 0.7267 0.89798 0.37254 0.0
In26 In 0.31922 0.93727 0.12518 0.0
O27 O 0.31713 0.86906 0.12373 0.0
O28 O 0.2668 0.90154 0.1204 0.0
C29 C 0.39087 0.95371 0.13263 0.0
C30 C 0.31176 0.96111 0.0737 0.0
C31 C 0.29676 0.96087 0.17415 0.0
O32 O 0.37915 0.91815 0.13021 0.0
O33 O 0.36639 0.98051 0.13153 0.0
O34 O 0.29462 0.98399 0.15396 0.0
O35 O 0.30935 0.92645 0.16925 0.0
C36 C 0.28252 0.86781 0.12115 0.0
O37 O 0.28945 0.9729 0.0916 0.0
O38 O 0.33699 0.93847 0.08207 0.0
In39 In 0.6641 0.06553 0.12701 0.0
O40 O 0.65825 0.13341 0.12964 0.0
O41 O 0.71171 0.10929 0.12328 0.0
C42 C 0.59319 0.04544 0.13521 0.0
C43 C 0.67249 0.04796 0.07437 0.0
C44 C 0.6924 0.03329 0.17221 0.0
O45 O 0.60427 0.08135 0.13586 0.0
O46 O 0.61799 0.01981 0.13081 0.0
O47 O 0.69263 0.01467 0.15004 0.0
O48 O 0.67881 0.06798 0.17119 0.0
C49 C 0.6921 0.14018 0.12621 0.0
O50 O 0.69666 0.03821 0.09144 0.0
O51 O 0.64492 0.06558 0.08406 0.0
In52 In 0.67478 0.92318 0.63635 0.0
O53 O 0.69528 0.95471 0.59763 0.0
O54 O 0.65152 0.91231 0.59552 0.0
C55 C 0.7043 0.95322 0.68139 0.0
C56 C 0.71145 0.85374 0.63482 0.0
C57 C 0.60536 0.9448 0.64756 0.0
O58 O 0.70549 0.97245 0.65937 0.0
O59 O 0.68914 0.91928 0.68014 0.0
O60 O 0.61535 0.90842 0.64753 0.0
O61 O 0.6305 0.96971 0.6424 0.0
C62 C 0.67204 0.93642 0.58308 0.0
O63 O 0.67739 0.85537 0.64 0.0
O64 O 0.7267 0.88712 0.63033 0.0
In65 In 0.34063 0.07142 0.62984 0.0
O66 O 0.3462 0.13941 0.6293 0.0
O67 O 0.29339 0.11404 0.62181 0.0
C68 C 0.40912 0.04899 0.64356 0.0
C69 C 0.34047 0.04845 0.57781 0.0
C70 C 0.30757 0.04776 0.67556 0.0
O71 O 0.40009 0.0854 0.64087 0.0
O72 O 0.38341 0.0242 0.63979 0.0
O73 O 0.30743 0.02595 0.65468 0.0
O74 O 0.32354 0.08102 0.67288 0.0
C75 C 0.31255 0.14538 0.62434 0.0
O76 O 0.31396 0.03953 0.5932 0.0
O77 O 0.36579 0.06826 0.58878 0.0
In78 In 0.65723 0.09161 0.86413 0.0
O79 O 0.65419 0.15994 0.86397 0.0
O80 O 0.70604 0.13228 0.87152 0.0
C81 C 0.58914 0.0645 0.85312 0.0
C82 C 0.65766 0.07014 0.91621 0.0
C83 C 0.68842 0.06893 0.81768 0.0
O84 O 0.59641 0.1016 0.85448 0.0
O85 O 0.61633 0.04159 0.85669 0.0
O86 O 0.69295 0.04899 0.83915 0.0
O87 O 0.66872 0.09983 0.82004 0.0
C88 C 0.68813 0.16444 0.86876 0.0
O89 O 0.68219 0.05739 0.90025 0.0
O90 O 0.63442 0.09349 0.90585 0.0
In91 In 0.3298 0.92104 0.86416 0.0
O92 O 0.3042 0.95653 0.89955 0.0
O93 O 0.35154 0.9201 0.90618 0.0
C94 C 0.30187 0.94261 0.81636 0.0
C95 C 0.29692 0.84921 0.86869 0.0
C96 C 0.3986 0.94663 0.85401 0.0
O97 O 0.29707 0.964 0.83718 0.0
O98 O 0.31989 0.91081 0.8201 0.0
O99 O 0.39099 0.90973 0.85646 0.0
O100 O 0.37146 0.97 0.85621 0.0
C101 C 0.32829 0.944 0.91597 0.0
O102 O 0.33103 0.85263 0.86415 0.0
O103 O 0.27986 0.88195 0.8714 0.0
In104 In 0.82623 0.57036 0.36689 0.0
O105 O 0.79751 0.53656 0.40135 0.0
O106 O 0.8426 0.57548 0.41007 0.0
C107 C 0.80013 0.54881 0.31877 0.0
C108 C 0.79255 0.64198 0.36908 0.0
C109 C 0.89386 0.53878 0.36027 0.0
O110 O 0.79306 0.52856 0.33975 0.0
O111 O 0.8199 0.57943 0.3224 0.0
O112 O 0.88875 0.57641 0.36112 0.0
O113 O 0.86502 0.51798 0.36242 0.0
C114 C 0.81867 0.55151 0.41898 0.0
O115 O 0.82707 0.63913 0.36584 0.0
O116 O 0.77585 0.60898 0.37148 0.0
In117 In 0.17126 0.43534 0.36593 0.0
O118 O 0.1723 0.36665 0.36622 0.0
O119 O 0.2227 0.39884 0.37109 0.0
C120 C 0.10383 0.46713 0.3595 0.0
C121 C 0.17799 0.45368 0.41799 0.0
C122 C 0.19616 0.45453 0.31713 0.0
O123 O 0.10883 0.42945 0.36024 0.0
O124 O 0.13273 0.4879 0.36161 0.0
O125 O 0.20373 0.47585 0.33755 0.0
O126 O 0.17642 0.42412 0.32166 0.0
C127 C 0.20691 0.36519 0.36952 0.0
O128 O 0.19938 0.46905 0.40063 0.0
O129 O 0.15412 0.42988 0.40878 0.0
In130 In 0.83181 0.41965 0.13152 0.0
O131 O 0.83921 0.35172 0.1309 0.0
O132 O 0.78541 0.3754 0.12505 0.0
C133 C 0.9011 0.4445 0.1411 0.0
C134 C 0.82358 0.44378 0.0802 0.0
C135 C 0.80161 0.44278 0.17832 0.0
O136 O 0.89279 0.40779 0.13918 0.0
O137 O 0.87437 0.46833 0.13865 0.0
O138 O 0.79979 0.46439 0.15745 0.0
O139 O 0.81802 0.40986 0.17527 0.0
C140 C 0.80548 0.34467 0.12697 0.0
O141 O 0.79953 0.45174 0.09778 0.0
O142 O 0.85074 0.42411 0.08869 0.0
In143 In 0.16488 0.57641 0.12767 0.0
O144 O 0.18974 0.54009 0.09265 0.0
O145 O 0.14299 0.57729 0.08568 0.0
C146 C 0.19491 0.554 0.17449 0.0
C147 C 0.19968 0.64665 0.12166 0.0
C148 C 0.0955 0.55414 0.13886 0.0
O149 O 0.19667 0.53184 0.15382 0.0
O150 O 0.17854 0.58694 0.17118 0.0
O151 O 0.10446 0.59065 0.13631 0.0
O152 O 0.12162 0.52954 0.13628 0.0
C153 C 0.16614 0.55313 0.07606 0.0
O154 O 0.16573 0.64479 0.1272 0.0
O155 O 0.21549 0.61321 0.11889 0.0
In156 In 0.16661 0.42112 0.62942 0.0
O157 O 0.16249 0.35329 0.63334 0.0
O158 O 0.21373 0.37822 0.62109 0.0
C159 C 0.09816 0.44291 0.644 0.0
C160 C 0.1635 0.43879 0.57663 0.0
C161 C 0.20317 0.45306 0.6712 0.0
O162 O 0.10813 0.40664 0.64302 0.0
O163 O 0.12295 0.46792 0.63827 0.0
O164 O 0.20073 0.47098 0.64884 0.0
O165 O 0.18791 0.41918 0.67203 0.0
C166 C 0.19545 0.34708 0.62648 0.0
O167 O 0.1898 0.45109 0.59109 0.0
O168 O 0.13993 0.41805 0.58884 0.0
In169 In 0.83063 0.56292 0.63177 0.0
O170 O 0.8096 0.53362 0.59251 0.0
O171 O 0.85508 0.5738 0.59122 0.0
C172 C 0.79989 0.52843 0.6749 0.0
C173 C 0.79412 0.63264 0.6318 0.0
C174 C 0.9002 0.54291 0.64408 0.0
O175 O 0.80043 0.51094 0.65226 0.0
O176 O 0.81391 0.56299 0.6752 0.0
O177 O 0.88941 0.579 0.64397 0.0
O178 O 0.87579 0.51742 0.63835 0.0
C179 C 0.83368 0.55119 0.57834 0.0
O180 O 0.82806 0.63055 0.63725 0.0
O181 O 0.77893 0.59962 0.62624 0.0
In182 In 0.19128 0.55103 0.86623 0.0
O183 O 0.18938 0.61952 0.86341 0.0
O184 O 0.24102 0.59108 0.87042 0.0
C185 C 0.12285 0.52306 0.85737 0.0
C186 C 0.19507 0.53483 0.91902 0.0
C187 C 0.21992 0.52154 0.82073 0.0
O188 O 0.12986 0.56029 0.85731 0.0
O189 O 0.15025 0.50073 0.86157 0.0
O190 O 0.22415 0.5039 0.8431 0.0
O191 O 0.20225 0.55406 0.82176 0.0
C192 C 0.22364 0.62348 0.86718 0.0
O193 O 0.21877 0.52094 0.90284 0.0
O194 O 0.17058 0.55637 0.90842 0.0
In195 In 0.84313 0.43442 0.86909 0.0
O196 O 0.81777 0.46335 0.90695 0.0
O197 O 0.86734 0.42961 0.91033 0.0
C198 C 0.80917 0.46225 0.82507 0.0
C199 C 0.81328 0.36077 0.87082 0.0
C200 C 0.91041 0.46381 0.85787 0.0
O201 O 0.80653 0.47999 0.84753 0.0
O202 O 0.82844 0.43081 0.82522 0.0
O203 O 0.90397 0.42648 0.85833 0.0
O204 O 0.88285 0.48574 0.86248 0.0
C205 C 0.84316 0.45026 0.92203 0.0
O206 O 0.84686 0.36622 0.86515 0.0
O207 O 0.79534 0.39229 0.87578 0.0
H208 H 0.37743 0.04304 0.45529 0.0
H209 H 0.25996 0.03193 0.44826 0.0
H210 H 0.25472 0.02552 0.49741 0.0
H211 H 0.28379 0.03192 0.54276 0.0
H212 H 0.40168 0.0441 0.54779 0.0
H213 H 0.40658 0.04069 0.49915 0.0
C214 C 0.3507 0.03855 0.4645 0.0
C215 C 0.31911 0.03844 0.44838 0.0
C216 C 0.34802 0.03538 0.49248 0.0
C217 C 0.28468 0.03207 0.46039 0.0
C218 C 0.28171 0.02872 0.48847 0.0
C219 C 0.3105 0.03294 0.53314 0.0
C220 C 0.34228 0.03887 0.54882 0.0
C221 C 0.31317 0.03159 0.50482 0.0
C222 C 0.37677 0.04014 0.53615 0.0
C223 C 0.37965 0.03822 0.50832 0.0
H224 H 0.71997 0.97183 0.54712 0.0
H225 H 0.61496 0.91208 0.55294 0.0
H226 H 0.60837 0.91359 0.50449 0.0
H227 H 0.63321 0.9277 0.46048 0.0
H228 H 0.73806 0.98645 0.45227 0.0
H229 H 0.74377 0.98993 0.50151 0.0
C230 C 0.69557 0.95959 0.5377 0.0
C231 C 0.66819 0.94153 0.55366 0.0
C232 C 0.69194 0.96017 0.50942 0.0
C233 C 0.63667 0.92577 0.5412 0.0
C234 C 0.63277 0.92662 0.51343 0.0
C235 C 0.65732 0.94149 0.46938 0.0
C236 C 0.68532 0.95643 0.4528 0.0
C237 C 0.66044 0.94304 0.49738 0.0
C238 C 0.71613 0.97464 0.46467 0.0
C239 C 0.71943 0.97649 0.4928 0.0
H240 H 0.36637 0.96121 0.03789 0.0
H241 H 0.24963 0.97984 0.04451 0.0
H242 H 0.24432 0.98081 0.99518 0.0
H243 H 0.27268 0.9676 0.95019 0.0
H244 H 0.38953 0.94636 0.94586 0.0
H245 H 0.39505 0.95546 0.99413 0.0
C246 C 0.33979 0.96611 0.02855 0.0
C247 C 0.3084 0.96998 0.04469 0.0
C248 C 0.33698 0.96575 0.00051 0.0
C249 C 0.27421 0.97684 0.03241 0.0
C250 C 0.27118 0.97705 0.00423 0.0
C251 C 0.29932 0.96575 0.95987 0.0
C252 C 0.33059 0.95578 0.94456 0.0
C253 C 0.30228 0.97024 0.98804 0.0
C254 C 0.36499 0.9534 0.95726 0.0
C255 C 0.36823 0.95863 0.98488 0.0
H256 H 0.71264 0.04601 0.95068 0.0
H257 H 0.59627 0.07013 0.94606 0.0
H258 H 0.59032 0.06084 0.99429 0.0
H259 H 0.61841 0.05259 0.03804 0.0
H260 H 0.73479 0.03108 0.0449 0.0
H261 H 0.74053 0.03199 0.99563 0.0
C262 C 0.68601 0.04857 0.96029 0.0
C263 C 0.65501 0.05918 0.9449 0.0
C264 C 0.68281 0.04395 0.98841 0.0
C265 C 0.62061 0.06251 0.95752 0.0
C266 C 0.61713 0.05717 0.98511 0.0
C267 C 0.64505 0.04766 0.0288 0.0
C268 C 0.67618 0.04224 0.04502 0.0
C269 C 0.64812 0.04899 0.00079 0.0
C270 C 0.7104 0.03538 0.03276 0.0
C271 C 0.71368 0.03613 0.00462 0.0
H272 H 0.78311 0.52202 0.54206 0.0
H273 H 0.89213 0.57227 0.54847 0.0
H274 H 0.89754 0.5741 0.49989 0.0
H275 H 0.87041 0.56635 0.45583 0.0
H276 H 0.76152 0.51725 0.44726 0.0
H277 H 0.75703 0.50963 0.49635 0.0
C278 C 0.80813 0.53283 0.53272 0.0
C279 C 0.83701 0.54736 0.54886 0.0
C280 C 0.81102 0.53429 0.50444 0.0
C281 C 0.86932 0.56132 0.53654 0.0
C282 C 0.87251 0.5624 0.50873 0.0
C283 C 0.84569 0.55376 0.46463 0.0
C284 C 0.81618 0.54283 0.44804 0.0
C285 C 0.84332 0.5498 0.49254 0.0
C286 C 0.78458 0.52601 0.4597 0.0
C287 C 0.782 0.52179 0.48774 0.0
H288 H 0.2156 0.46787 0.54162 0.0
H289 H 0.10329 0.42659 0.54627 0.0
H290 H 0.09729 0.43146 0.4978 0.0
H291 H 0.12479 0.44163 0.45406 0.0
H292 H 0.23701 0.48152 0.44728 0.0
H293 H 0.2421 0.48369 0.49659 0.0
C294 C 0.18976 0.46048 0.53196 0.0
C295 C 0.16009 0.44642 0.54749 0.0
C296 C 0.18651 0.46292 0.50375 0.0
C297 C 0.1267 0.43701 0.53478 0.0
C298 C 0.12317 0.43981 0.50704 0.0
C299 C 0.15033 0.45117 0.46333 0.0
C300 C 0.18061 0.46093 0.44718 0.0
C301 C 0.15307 0.45178 0.49134 0.0
C302 C 0.21333 0.47382 0.45941 0.0
C303 C 0.21627 0.47482 0.48755 0.0
H304 H 0.78682 0.46672 0.95708 0.0
H305 H 0.90405 0.44822 0.95252 0.0
H306 H 0.90844 0.44903 0.00127 0.0
H307 H 0.87879 0.4477 0.04486 0.0
H308 H 0.76164 0.46374 0.05129 0.0
H309 H 0.75732 0.47174 0.00224 0.0
C310 C 0.8133 0.46361 0.96687 0.0
C311 C 0.84502 0.45695 0.9513 0.0
C312 C 0.81559 0.46327 0.99518 0.0
C313 C 0.8792 0.45287 0.96411 0.0
C314 C 0.88177 0.45332 0.99198 0.0
C315 C 0.8523 0.45335 0.03558 0.0
C316 C 0.82053 0.45458 0.05151 0.0
C317 C 0.85008 0.45728 0.00766 0.0
C318 C 0.78648 0.46257 0.03933 0.0
C319 C 0.78402 0.46692 0.01131 0.0
H320 H 0.22251 0.52569 0.04426 0.0
H321 H 0.10762 0.5579 0.04327 0.0
H322 H 0.106 0.5509 0.99468 0.0
H323 H 0.13801 0.54262 0.95238 0.0
H324 H 0.25309 0.5123 0.95129 0.0
H325 H 0.25387 0.51099 0.00074 0.0
C326 C 0.19708 0.53043 0.03335 0.0
C327 C 0.16534 0.54273 0.04725 0.0
C328 C 0.19645 0.52707 0.00508 0.0
C329 C 0.13252 0.54889 0.03297 0.0
C330 C 0.13153 0.54491 0.00517 0.0
C331 C 0.16325 0.53534 0.96293 0.0
C332 C 0.19554 0.52813 0.94834 0.0
C333 C 0.1635 0.53519 0.99102 0.0
C334 C 0.22789 0.51808 0.9622 0.0
C335 C 0.22834 0.51754 0.99043 0.0
H336 H 0.57552 0.03133 0.36583 0.0
H337 H 0.54276 0.90756 0.35869 0.0
H338 H 0.47818 0.92781 0.35687 0.0
H339 H 0.43096 0.98057 0.35868 0.0
H340 H 0.46385 0.10429 0.36604 0.0
H341 H 0.52845 0.08417 0.36629 0.0
C342 C 0.55427 0.00876 0.36377 0.0
C343 C 0.56397 0.96794 0.36248 0.0
C344 C 0.51722 0.02063 0.36281 0.0
C345 C 0.53607 0.93914 0.35975 0.0
C346 C 0.49913 0.95072 0.35874 0.0
C347 C 0.45226 0.00317 0.3602 0.0
C348 C 0.44255 0.04391 0.36239 0.0
C349 C 0.48937 0.99135 0.36045 0.0
C350 C 0.47053 0.07276 0.36433 0.0
C351 C 0.50749 0.06126 0.36451 0.0
H352 H 0.42085 0.02732 0.13971 0.0
H353 H 0.44946 0.90251 0.13119 0.0
H354 H 0.51476 0.91976 0.13249 0.0
H355 H 0.56362 0.97069 0.13391 0.0
H356 H 0.53472 0.09549 0.14211 0.0
H357 H 0.4696 0.07781 0.14321 0.0
C358 C 0.44136 0.00384 0.13829 0.0
C359 C 0.43032 0.9637 0.13521 0.0
C360 C 0.47879 0.014 0.13892 0.0
C361 C 0.45724 0.93363 0.13353 0.0
C362 C 0.49457 0.94349 0.13422 0.0
C363 C 0.54307 0.99399 0.13612 0.0
C364 C 0.55399 0.03437 0.1378 0.0
C365 C 0.50566 0.98362 0.13659 0.0
C366 C 0.52705 0.0642 0.14073 0.0
C367 C 0.4898 0.05412 0.14131 0.0
H368 H 0.57975 0.02077 0.65088 0.0
H369 H 0.54438 0.8974 0.65204 0.0
H370 H 0.48014 0.919 0.65292 0.0
H371 H 0.43422 0.97292 0.6498 0.0
H372 H 0.46997 0.09618 0.64798 0.0
H373 H 0.53396 0.07461 0.65113 0.0
C374 C 0.558 0.99858 0.65159 0.0
C375 C 0.56677 0.95753 0.65116 0.0
C376 C 0.52124 0.0112 0.65184 0.0
C377 C 0.53832 0.92916 0.65228 0.0
C378 C 0.5016 0.9415 0.6527 0.0
C379 C 0.456 0.99507 0.65038 0.0
C380 C 0.44739 0.03608 0.64844 0.0
C381 C 0.49275 0.98243 0.65194 0.0
C382 C 0.47588 0.06444 0.64935 0.0
C383 C 0.51248 0.05212 0.65108 0.0
H384 H 0.56803 0.98652 0.85099 0.0
H385 H 0.52541 0.10708 0.84787 0.0
H386 H 0.46268 0.08096 0.84626 0.0
H387 H 0.41995 0.02409 0.84849 0.0
H388 H 0.46247 0.90354 0.85239 0.0
H389 H 0.5253 0.92946 0.85077 0.0
C390 C 0.54504 0.0071 0.84971 0.0
C391 C 0.55139 0.04873 0.84968 0.0
C392 C 0.50905 0.99187 0.84905 0.0
C393 C 0.52129 0.07495 0.84797 0.0
C394 C 0.48541 0.06002 0.84711 0.0
C395 C 0.44295 0.00343 0.84876 0.0
C396 C 0.43653 0.96192 0.8507 0.0
C397 C 0.47896 0.01857 0.84807 0.0
C398 C 0.46664 0.9356 0.85095 0.0
C399 C 0.50258 0.95042 0.85009 0.0
H400 H 0.96106 0.5753 0.3578 0.0
H401 H 0.90913 0.4591 0.35794 0.0
H402 H 0.96905 0.42652 0.35674 0.0
H403 H 0.03661 0.43069 0.35735 0.0
H404 H 0.08858 0.54686 0.35741 0.0
H405 H 0.02864 0.57947 0.35672 0.0
C406 C 0.96289 0.54288 0.35741 0.0
C407 C 0.9306 0.51977 0.35806 0.0
C408 C 0.99759 0.52416 0.35683 0.0
C409 C 0.9335 0.47772 0.35752 0.0
C410 C 0.96781 0.45897 0.35686 0.0
C411 C 0.03479 0.46312 0.35704 0.0
C412 C 0.06709 0.48621 0.35752 0.0
C413 C 1.00009 0.48184 0.35676 0.0
C414 C 0.0642 0.52826 0.35711 0.0
C415 C 0.02988 0.54703 0.35674 0.0
H416 H 0.07148 0.47774 0.14419 0.0
H417 H 0.03334 0.60009 0.14158 0.0
H418 H 0.96962 0.57687 0.14369 0.0
H419 H 0.92484 0.52161 0.14348 0.0
H420 H 0.96332 0.39933 0.14516 0.0
H421 H 0.0269 0.42277 0.14635 0.0
C422 C 0.04925 0.49938 0.14431 0.0
C423 C 0.05712 0.54059 0.14259 0.0
C424 C 0.01277 0.48581 0.14524 0.0
C425 C 0.02801 0.56822 0.14285 0.0
C426 C 0.99158 0.55495 0.14399 0.0
C427 C 0.94713 0.50009 0.14434 0.0
C428 C 0.93937 0.45876 0.1441 0.0
C429 C 0.98364 0.51379 0.14476 0.0
C430 C 0.96855 0.43127 0.14527 0.0
C431 C 0.00491 0.44466 0.1459 0.0
H432 H 0.92703 0.46773 0.64983 0.0
H433 H 0.96019 0.59179 0.64788 0.0
H434 H 0.02477 0.57168 0.64989 0.0
H435 H 0.07167 0.51866 0.6484 0.0
H436 H 0.03826 0.39462 0.65 0.0
H437 H 0.97383 0.41493 0.65219 0.0
C438 C 0.94838 0.49039 0.65011 0.0
C439 C 0.9389 0.53118 0.64844 0.0
C440 C 0.98536 0.4786 0.65109 0.0
C441 C 0.96681 0.5602 0.64908 0.0
C442 C 0.00373 0.54871 0.65013 0.0
C443 C 0.0503 0.49608 0.64955 0.0
C444 C 0.05969 0.45519 0.6488 0.0
C445 C 0.01331 0.50797 0.65057 0.0
C446 C 0.03174 0.42628 0.65047 0.0
C447 C 0.99489 0.43787 0.65163 0.0
H448 H 0.0578 0.56357 0.85375 0.0
H449 H 0.10388 0.44446 0.8542 0.0
H450 H 0.04245 0.41549 0.8526 0.0
H451 H 0.97537 0.4237 0.8538 0.0
H452 H 0.92903 0.54266 0.85428 0.0
H453 H 0.99051 0.57177 0.85258 0.0
C454 C 0.05436 0.53131 0.85324 0.0
C455 C 0.0854 0.50628 0.85424 0.0
C456 C 0.0188 0.51471 0.85259 0.0
C457 C 0.08047 0.46448 0.85358 0.0
C458 C 0.04531 0.44781 0.85268 0.0
C459 C 0.97873 0.45597 0.85324 0.0
C460 C 0.94766 0.48091 0.85428 0.0
C461 C 0.01424 0.4726 0.85259 0.0
C462 C 0.9525 0.52272 0.85359 0.0
C463 C 0.98768 0.53945 0.85266 0.0
H464 H 0.18061 0.28856 0.37164 0.0
H465 H 0.28112 0.35711 0.37061 0.0
H466 H 0.31714 0.29563 0.37216 0.0
H467 H 0.32043 0.22216 0.37307 0.0
H468 H 0.22016 0.15329 0.37481 0.0
H469 H 0.18395 0.21483 0.37386 0.0
C470 C 0.21038 0.28997 0.37179 0.0
C471 C 0.22808 0.32737 0.37093 0.0
C472 C 0.23108 0.25438 0.37284 0.0
C473 C 0.26672 0.32873 0.37126 0.0
C474 C 0.28742 0.29355 0.37213 0.0
C475 C 0.29067 0.22065 0.37335 0.0
C476 C 0.27308 0.1832 0.37395 0.0
C477 C 0.26994 0.25619 0.37284 0.0
C478 C 0.23445 0.18175 0.37436 0.0
C479 C 0.21366 0.21695 0.37376 0.0
H480 H 0.68311 0.78891 0.36987 0.0
H481 H 0.78518 0.85455 0.36877 0.0
H482 H 0.81971 0.79179 0.36833 0.0
H483 H 0.82099 0.71784 0.36834 0.0
H484 H 0.71862 0.65268 0.3705 0.0
H485 H 0.68436 0.71539 0.37048 0.0
C486 C 0.71291 0.78946 0.36949 0.0
C487 C 0.7315 0.82634 0.3693 0.0
C488 C 0.73264 0.75324 0.36948 0.0
C489 C 0.77015 0.82655 0.36895 0.0
C490 C 0.78996 0.79065 0.36868 0.0
C491 C 0.79121 0.71743 0.36882 0.0
C492 C 0.77246 0.6806 0.36941 0.0
C493 C 0.77151 0.75376 0.36897 0.0
C494 C 0.73382 0.68058 0.37009 0.0
C495 C 0.71412 0.71646 0.37004 0.0
H496 H 0.17187 0.72232 0.12271 0.0
H497 H 0.27346 0.65634 0.11628 0.0
H498 H 0.3081 0.71887 0.11513 0.0
H499 H 0.30979 0.79232 0.1172 0.0
H500 H 0.20825 0.85851 0.12275 0.0
H501 H 0.17341 0.796 0.1229 0.0
C502 C 0.20156 0.72169 0.12095 0.0
C503 C 0.22006 0.68479 0.1197 0.0
C504 C 0.22137 0.75779 0.12019 0.0
C505 C 0.25854 0.68439 0.11729 0.0
C506 C 0.27842 0.72012 0.11667 0.0
C507 C 0.28004 0.79303 0.11836 0.0
C508 C 0.26165 0.82992 0.12008 0.0
C509 C 0.26015 0.75699 0.11831 0.0
C510 C 0.22307 0.83044 0.12141 0.0
C511 C 0.20311 0.79471 0.12155 0.0
H512 H 0.76415 0.16106 0.12461 0.0
H513 H 0.65481 0.21097 0.12698 0.0
H514 H 0.68036 0.27866 0.12657 0.0
H515 H 0.73367 0.32357 0.12619 0.0
H516 H 0.84312 0.27393 0.12519 0.0
H517 H 0.81761 0.20613 0.12433 0.0
C518 C 0.74592 0.18677 0.12498 0.0
C519 C 0.70765 0.18105 0.12581 0.0
C520 C 0.76081 0.22558 0.12498 0.0
C521 C 0.68437 0.2146 0.12638 0.0
C522 C 0.69895 0.2533 0.12613 0.0
C523 C 0.75195 0.29791 0.12567 0.0
C524 C 0.79021 0.30371 0.1257 0.0
C525 C 0.73711 0.25912 0.1255 0.0
C526 C 0.81355 0.27021 0.12518 0.0
C527 C 0.79899 0.23147 0.1247 0.0
H528 H 0.6838 0.77828 0.63387 0.0
H529 H 0.78569 0.84431 0.63462 0.0
H530 H 0.82041 0.78168 0.63421 0.0
H531 H 0.82181 0.70808 0.63359 0.0
H532 H 0.71992 0.64215 0.63095 0.0
H533 H 0.68521 0.70474 0.63213 0.0
C534 C 0.7136 0.7789 0.63398 0.0
C535 C 0.73217 0.81577 0.63435 0.0
C536 C 0.73338 0.74281 0.63338 0.0
C537 C 0.77077 0.81623 0.63428 0.0
C538 C 0.79065 0.78046 0.63409 0.0
C539 C 0.79202 0.70748 0.6333 0.0
C540 C 0.77344 0.67063 0.63226 0.0
C541 C 0.77224 0.74358 0.63363 0.0
C542 C 0.73484 0.67021 0.6317 0.0
C543 C 0.71497 0.70596 0.63242 0.0
H544 H 0.2675 0.32779 0.62155 0.0
H545 H 0.15953 0.27557 0.62894 0.0
H546 H 0.18625 0.20841 0.62769 0.0
H547 H 0.24035 0.16466 0.62553 0.0
H548 H 0.34858 0.21678 0.62032 0.0
H549 H 0.3217 0.28396 0.61957 0.0
C550 C 0.24983 0.30168 0.62277 0.0
C551 C 0.21161 0.30656 0.62529 0.0
C552 C 0.26542 0.26323 0.62244 0.0
C553 C 0.18904 0.27254 0.62705 0.0
C554 C 0.20429 0.23416 0.6263 0.0
C555 C 0.25803 0.19073 0.62406 0.0
C556 C 0.29636 0.18585 0.62289 0.0
C557 C 0.24244 0.22917 0.62414 0.0
C558 C 0.31898 0.21984 0.62125 0.0
C559 C 0.30364 0.25821 0.62083 0.0
H560 H 0.7612 0.18033 0.86878 0.0
H561 H 0.65501 0.23764 0.87177 0.0
H562 H 0.68458 0.3034 0.87343 0.0
H563 H 0.74049 0.34451 0.87334 0.0
H564 H 0.84667 0.2875 0.86842 0.0
H565 H 0.8172 0.22158 0.86822 0.0
C566 C 0.74454 0.20722 0.86991 0.0
C567 C 0.70597 0.20416 0.87024 0.0
C568 C 0.76171 0.24489 0.87046 0.0
C569 C 0.68473 0.23924 0.87148 0.0
C570 C 0.70162 0.27681 0.87244 0.0
C571 C 0.7572 0.31765 0.87232 0.0
C572 C 0.79571 0.32083 0.87098 0.0
C573 C 0.74007 0.27998 0.87184 0.0
C574 C 0.81698 0.28581 0.86945 0.0
C575 C 0.80015 0.24814 0.86935 0.0
H576 H 0.19262 0.69778 0.86925 0.0
H577 H 0.29722 0.63712 0.86616 0.0
H578 H 0.3292 0.70135 0.8666 0.0
H579 H 0.32762 0.77492 0.86745 0.0
H580 H 0.22321 0.83577 0.87178 0.0
H581 H 0.19112 0.77152 0.8714 0.0
C582 C 0.2224 0.69869 0.86864 0.0
C583 C 0.24248 0.66275 0.86757 0.0
C584 C 0.2407 0.7358 0.8692 0.0
C585 C 0.28108 0.66436 0.867 0.0
C586 C 0.29943 0.70109 0.86724 0.0
C587 C 0.29786 0.77409 0.86839 0.0
C588 C 0.27786 0.81006 0.86958 0.0
C589 C 0.27955 0.73701 0.8683 0.0
C590 C 0.23929 0.8085 0.87089 0.0
C591 C 0.22088 0.77176 0.87061 0.0
H592 H 0.291 0.9829 0.29944 0.0
H593 H 0.30837 0.10601 0.27631 0.0
H594 H 0.30064 0.08834 0.22907 0.0
H595 H 0.29581 0.03674 0.19397 0.0
H596 H 0.28239 0.91305 0.21698 0.0
H597 H 0.28108 0.93205 0.26437 0.0
C598 C 0.29247 0.0059 0.28407 0.0
C599 C 0.30055 0.04557 0.29133 0.0
C600 C 0.28887 0.99537 0.25681 0.0
C601 C 0.30251 0.07511 0.2712 0.0
C602 C 0.29809 0.06507 0.24415 0.0
C603 C 0.29177 0.01414 0.20936 0.0
C604 C 0.28935 0.97362 0.20205 0.0
C605 C 0.29225 0.02513 0.23665 0.0
C606 C 0.2845 0.94449 0.22217 0.0
C607 C 0.28388 0.95529 0.24929 0.0
H608 H 0.70525 0.07113 0.21944 0.0
H609 H 0.70226 0.95387 0.18301 0.0
H610 H 0.70801 0.92274 0.22734 0.0
H611 H 0.70601 0.92906 0.27655 0.0
H612 H 0.70905 0.04625 0.31305 0.0
H613 H 0.71168 0.07732 0.26851 0.0
C614 C 0.70648 0.03876 0.22118 0.0
C615 C 0.70282 0.01477 0.19807 0.0
C616 C 0.70952 0.02114 0.24672 0.0
C617 C 0.70492 0.97293 0.20053 0.0
C618 C 0.708 0.95514 0.22587 0.0
C619 C 0.70786 0.96139 0.27474 0.0
C620 C 0.70682 0.98542 0.29797 0.0
C621 C 0.7091 0.97896 0.24913 0.0
C622 C 0.70973 0.02718 0.29543 0.0
C623 C 0.71101 0.04494 0.26998 0.0
H624 H 0.7127 0.99481 0.80358 0.0
H625 H 0.69249 0.11308 0.77193 0.0
H626 H 0.70244 0.08873 0.72625 0.0
H627 H 0.70726 0.03187 0.69506 0.0
H628 H 0.72277 0.9128 0.72668 0.0
H629 H 0.7251 0.93933 0.77239 0.0
C630 C 0.71134 0.01537 0.78671 0.0
C631 C 0.70143 0.05549 0.79105 0.0
C632 C 0.71598 0.0009 0.76039 0.0
C633 C 0.69968 0.08188 0.76904 0.0
C634 C 0.70531 0.06799 0.7429 0.0
C635 C 0.71223 0.01197 0.71192 0.0
C636 C 0.71457 0.97051 0.70761 0.0
C637 C 0.71208 0.02726 0.73825 0.0
C638 C 0.72065 0.94489 0.7296 0.0
C639 C 0.7218 0.95999 0.75575 0.0
H640 H 0.28709 0.01811 0.79887 0.0
H641 H 0.29501 0.89547 0.77223 0.0
H642 H 0.29131 0.91702 0.72542 0.0
H643 H 0.29551 0.97127 0.69214 0.0
H644 H 0.292 0.09409 0.71891 0.0
H645 H 0.28369 0.07209 0.76531 0.0
C646 C 0.28703 0.99611 0.78281 0.0
C647 C 0.29167 0.95537 0.78893 0.0
C648 C 0.28613 0.00882 0.75587 0.0
C649 C 0.29178 0.92711 0.76796 0.0
C650 C 0.28978 0.9394 0.74118 0.0
C651 C 0.29196 0.99314 0.70807 0.0
C652 C 0.29472 0.03416 0.7022 0.0
C653 C 0.28841 0.98027 0.73486 0.0
C654 C 0.29029 0.06227 0.72301 0.0
C655 C 0.28565 0.04973 0.74957 0.0
H656 H 0.79088 0.51925 0.19481 0.0
H657 H 0.78744 0.39668 0.22209 0.0
H658 H 0.78036 0.41917 0.26854 0.0
H659 H 0.78458 0.47348 0.30178 0.0
H660 H 0.79374 0.59571 0.27453 0.0
H661 H 0.7886 0.5738 0.22784 0.0
C662 C 0.78765 0.49755 0.21088 0.0
C663 C 0.78995 0.45647 0.20516 0.0
C664 C 0.78505 0.51069 0.23763 0.0
C665 C 0.78602 0.42855 0.22612 0.0
C666 C 0.78209 0.44136 0.25268 0.0
C667 C 0.78452 0.4953 0.28561 0.0
C668 C 0.7898 0.53602 0.29146 0.0
C669 C 0.78298 0.48234 0.25877 0.0
C670 C 0.79 0.5641 0.2704 0.0
C671 C 0.78716 0.55161 0.24372 0.0
H672 H 0.21324 0.52853 0.29833 0.0
H673 H 0.20035 0.40542 0.27382 0.0
H674 H 0.20523 0.42493 0.22665 0.0
H675 H 0.20387 0.47796 0.19245 0.0
H676 H 0.21124 0.60155 0.21707 0.0
H677 H 0.21844 0.58105 0.26391 0.0
C678 C 0.2124 0.50596 0.28265 0.0
C679 C 0.20613 0.46574 0.28943 0.0
C680 C 0.21386 0.51757 0.25553 0.0
C681 C 0.20483 0.43669 0.26899 0.0
C682 C 0.20754 0.44781 0.24202 0.0
C683 C 0.20801 0.50027 0.20803 0.0
C684 C 0.20677 0.54111 0.20146 0.0
C685 C 0.21068 0.48832 0.23503 0.0
C686 C 0.21183 0.56986 0.22177 0.0
C687 C 0.21583 0.55818 0.24855 0.0
H688 H 0.22676 0.55923 0.77292 0.0
H689 H 0.23383 0.44279 0.8102 0.0
H690 H 0.2347 0.41097 0.76591 0.0
H691 H 0.22315 0.41612 0.71732 0.0
H692 H 0.21527 0.53257 0.68013 0.0
H693 H 0.22566 0.56468 0.72366 0.0
C694 C 0.22934 0.52693 0.7713 0.0
C695 C 0.22959 0.50327 0.7947 0.0
C696 C 0.22927 0.50891 0.74584 0.0
C697 C 0.23346 0.46157 0.79244 0.0
C698 C 0.23367 0.44337 0.76713 0.0
C699 C 0.22451 0.44853 0.71868 0.0
C700 C 0.21782 0.47203 0.69573 0.0
C701 C 0.23001 0.46669 0.74379 0.0
C702 C 0.22017 0.5139 0.69759 0.0
C703 C 0.22586 0.53225 0.72249 0.0
H704 H 0.78223 0.56417 0.7218 0.0
H705 H 0.79502 0.44816 0.68477 0.0
H706 H 0.79359 0.41623 0.72906 0.0
H707 H 0.79928 0.42291 0.77812 0.0
H708 H 0.78778 0.53917 0.81508 0.0
H709 H 0.77755 0.56949 0.77092 0.0
C710 C 0.78382 0.5318 0.72342 0.0
C711 C 0.78935 0.50852 0.7002 0.0
C712 C 0.78368 0.51386 0.7489 0.0
C713 C 0.79085 0.46664 0.70241 0.0
C714 C 0.79036 0.44845 0.72773 0.0
C715 C 0.79379 0.45477 0.77653 0.0
C716 C 0.79497 0.47898 0.79967 0.0
C717 C 0.78844 0.47197 0.75111 0.0
C718 C 0.78722 0.52003 0.79749 0.0
C719 C 0.78159 0.53738 0.77225 0.0
loop_
_geom_bond_atom_site_label_1
_geom_bond_atom_site_label_2
_geom_bond_distance
_geom_bond_site_symmetry_2
_ccdc_geom_bond_type
In0 O1 2.294 . S
In0 O2 2.326 . S
In0 O6 2.266 . S
In0 O7 2.326 . S
In0 O8 2.266 . S
In0 O9 2.326 . S
In0 O11 2.294 . S
In0 O12 2.326 . S
O1 In0 2.294 . S
O1 C10 1.240 . S
O2 In0 2.326 . S
O2 C10 1.252 . S
C3 O6 1.252 . S
C3 O7 1.260 . S
C4 O11 1.240 . S
C4 O12 1.252 . S
C5 O8 1.252 . S
C5 O9 1.260 . S
O6 In0 2.266 . S
O6 C3 1.252 . S
O7 In0 2.326 . S
O7 C3 1.260 . S
O8 In0 2.266 . S
O8 C5 1.252 . S
O9 In0 2.326 . S
O9 C5 1.260 . S
C10 O1 1.240 . S
C10 O2 1.252 . S
O11 In0 2.294 . S
O11 C4 1.240 . S
O12 In0 2.326 . S
O12 C4 1.252 . S
In13 O14 2.294 . S
In13 O15 2.326 . S
In13 O19 2.266 . S
In13 O20 2.326 . S
In13 O21 2.266 . S
In13 O22 2.326 . S
In13 O24 2.294 . S
In13 O25 2.326 . S
O14 In13 2.294 . S
O14 C23 1.240 . S
O15 In13 2.326 . S
O15 C23 1.252 . S
C16 O19 1.252 . S
C16 O20 1.260 . S
C17 O24 1.240 . S
C17 O25 1.252 . S
C18 O21 1.252 . S
C18 O22 1.260 . S
O19 In13 2.266 . S
O19 C16 1.252 . S
O20 In13 2.326 . S
O20 C16 1.260 . S
O21 In13 2.266 . S
O21 C18 1.252 . S
O22 In13 2.326 . S
O22 C18 1.260 . S
C23 O14 1.240 . S
C23 O15 1.252 . S
O24 In13 2.294 . S
O24 C17 1.240 . S
O25 In13 2.326 . S
O25 C17 1.252 . S
In26 O27 2.294 . S
In26 O28 2.326 . S
In26 O32 2.266 . S
In26 O33 2.326 . S
In26 O34 2.266 . S
In26 O35 2.326 . S
In26 O37 2.294 . S
In26 O38 2.326 . S
O27 In26 2.294 . S
O27 C36 1.240 . S
O28 In26 2.326 . S
O28 C36 1.252 . S
C29 O32 1.252 . S
C29 O33 1.260 . S
C30 O37 1.240 . S
C30 O38 1.252 . S
C31 O34 1.252 . S
C31 O35 1.260 . S
O32 In26 2.266 . S
O32 C29 1.252 . S
O33 In26 2.326 . S
O33 C29 1.260 . S
O34 In26 2.266 . S
O34 C31 1.252 . S
O35 In26 2.326 . S
O35 C31 1.260 . S
C36 O27 1.240 . S
C36 O28 1.252 . S
O37 In26 2.294 . S
O37 C30 1.240 . S
O38 In26 2.326 . S
O38 C30 1.252 . S
In39 O40 2.294 . S
In39 O41 2.326 . S
In39 O45 2.266 . S
In39 O46 2.326 . S
In39 O47 2.266 . S
In39 O48 2.326 . S
In39 O50 2.294 . S
In39 O51 2.326 . S
O40 In39 2.294 . S
O40 C49 1.240 . S
O41 In39 2.326 . S
O41 C49 1.252 . S
C42 O45 1.252 . S
C42 O46 1.260 . S
C43 O50 1.240 . S
C43 O51 1.252 . S
C44 O47 1.252 . S
C44 O48 1.260 . S
O45 In39 2.266 . S
O45 C42 1.252 . S
O46 In39 2.326 . S
O46 C42 1.260 . S
O47 In39 2.266 . S
O47 C44 1.252 . S
O48 In39 2.326 . S
O48 C44 1.260 . S
C49 O40 1.240 . S
C49 O41 1.252 . S
O50 In39 2.294 . S
O50 C43 1.240 . S
O51 In39 2.326 . S
O51 C43 1.252 . S
In52 O53 2.294 . S
In52 O54 2.326 . S
In52 O58 2.266 . S
In52 O59 2.326 . S
In52 O60 2.266 . S
In52 O61 2.326 . S
In52 O63 2.294 . S
In52 O64 2.326 . S
O53 In52 2.294 . S
O53 C62 1.240 . S
O54 In52 2.326 . S
O54 C62 1.252 . S
C55 O58 1.252 . S
C55 O59 1.260 . S
C56 O63 1.240 . S
C56 O64 1.252 . S
C57 O60 1.252 . S
C57 O61 1.260 . S
O58 In52 2.266 . S
O58 C55 1.252 . S
O59 In52 2.326 . S
O59 C55 1.260 . S
O60 In52 2.266 . S
O60 C57 1.252 . S
O61 In52 2.326 . S
O61 C57 1.260 . S
C62 O53 1.240 . S
C62 O54 1.252 . S
O63 In52 2.294 . S
O63 C56 1.240 . S
O64 In52 2.326 . S
O64 C56 1.252 . S
In65 O66 2.294 . S
In65 O67 2.326 . S
In65 O71 2.266 . S
In65 O72 2.326 . S
In65 O73 2.266 . S
In65 O74 2.326 . S
In65 O76 2.294 . S
In65 O77 2.326 . S
O66 In65 2.294 . S
O66 C75 1.240 . S
O67 In65 2.326 . S
O67 C75 1.252 . S
C68 O71 1.252 . S
C68 O72 1.260 . S
C69 O76 1.240 . S
C69 O77 1.252 . S
C70 O73 1.252 . S
C70 O74 1.260 . S
O71 In65 2.266 . S
O71 C68 1.252 . S
O72 In65 2.326 . S
O72 C68 1.260 . S
O73 In65 2.266 . S
O73 C70 1.252 . S
O74 In65 2.326 . S
O74 C70 1.260 . S
C75 O66 1.240 . S
C75 O67 1.252 . S
O76 In65 2.294 . S
O76 C69 1.240 . S
O77 In65 2.326 . S
O77 C69 1.252 . S
In78 O79 2.294 . S
In78 O80 2.326 . S
In78 O84 2.266 . S
In78 O85 2.326 . S
In78 O86 2.266 . S
In78 O87 2.326 . S
In78 O89 2.294 . S
In78 O90 2.326 . S
O79 In78 2.294 . S
O79 C88 1.240 . S
O80 In78 2.326 . S
O80 C88 1.252 . S
C81 O84 1.252 . S
C81 O85 1.260 . S
C82 O89 1.240 . S
C82 O90 1.252 . S
C83 O86 1.252 . S
C83 O87 1.260 . S
O84 In78 2.266 . S
O84 C81 1.252 . S
O85 In78 2.326 . S
O85 C81 1.260 . S
O86 In78 2.266 . S
O86 C83 1.252 . S
O87 In78 2.326 . S
O87 C83 1.260 . S
C88 O79 1.240 . S
C88 O80 1.252 . S
O89 In78 2.294 . S
O89 C82 1.240 . S
O90 In78 2.326 . S
O90 C82 1.252 . S
In91 O92 2.294 . S
In91 O93 2.326 . S
In91 O97 2.266 . S
In91 O98 2.326 . S
In91 O99 2.266 . S
In91 O100 2.326 . S
In91 O102 2.294 . S
In91 O103 2.326 . S
O92 In91 2.294 . S
O92 C101 1.240 . S
O93 In91 2.326 . S
O93 C101 1.252 . S
C94 O97 1.252 . S
C94 O98 1.260 . S
C95 O102 1.240 . S
C95 O103 1.252 . S
C96 O99 1.252 . S
C96 O100 1.260 . S
O97 In91 2.266 . S
O97 C94 1.252 . S
O98 In91 2.326 . S
O98 C94 1.260 . S
O99 In91 2.266 . S
O99 C96 1.252 . S
O100 In91 2.326 . S
O100 C96 1.260 . S
C101 O92 1.240 . S
C101 O93 1.252 . S
O102 In91 2.294 . S
O102 C95 1.240 . S
O103 In91 2.326 . S
O103 C95 1.252 . S
In104 O105 2.294 . S
In104 O106 2.326 . S
In104 O110 2.266 . S
In104 O111 2.326 . S
In104 O112 2.266 . S
In104 O113 2.326 . S
In104 O115 2.294 . S
In104 O116 2.326 . S
O105 In104 2.294 . S
O105 C114 1.240 . S
O106 In104 2.326 . S
O106 C114 1.252 . S
C107 O110 1.252 . S
C107 O111 1.260 . S
C108 O115 1.240 . S
C108 O116 1.252 . S
C109 O112 1.252 . S
C109 O113 1.260 . S
O110 In104 2.266 . S
O110 C107 1.252 . S
O111 In104 2.326 . S
O111 C107 1.260 . S
O112 In104 2.266 . S
O112 C109 1.252 . S
O113 In104 2.326 . S
O113 C109 1.260 . S
C114 O105 1.240 . S
C114 O106 1.252 . S
O115 In104 2.294 . S
O115 C108 1.240 . S
O116 In104 2.326 . S
O116 C108 1.252 . S
In117 O118 2.294 . S
In117 O119 2.326 . S
In117 O123 2.266 . S
In117 O124 2.326 . S
In117 O125 2.266 . S
In117 O126 2.326 . S
In117 O128 2.294 . S
In117 O129 2.326 . S
O118 In117 2.294 . S
O118 C127 1.240 . S
O119 In117 2.326 . S
O119 C127 1.252 . S
C120 O123 1.252 . S
C120 O124 1.260 . S
C121 O128 1.240 . S
C121 O129 1.252 . S
C122 O125 1.252 . S
C122 O126 1.260 . S
O123 In117 2.266 . S
O123 C120 1.252 . S
O124 In117 2.326 . S
O124 C120 1.260 . S
O125 In117 2.266 . S
O125 C122 1.252 . S
O126 In117 2.326 . S
O126 C122 1.260 . S
C127 O118 1.240 . S
C127 O119 1.252 . S
O128 In117 2.294 . S
O128 C121 1.240 . S
O129 In117 2.326 . S
O129 C121 1.252 . S
In130 O131 2.294 . S
In130 O132 2.326 . S
In130 O136 2.266 . S
In130 O137 2.326 . S
In130 O138 2.266 . S
In130 O139 2.326 . S
In130 O141 2.294 . S
In130 O142 2.326 . S
O131 In130 2.294 . S
O131 C140 1.240 . S
O132 In130 2.326 . S
O132 C140 1.252 . S
C133 O136 1.252 . S
C133 O137 1.260 . S
C134 O141 1.240 . S
C134 O142 1.252 . S
C135 O138 1.252 . S
C135 O139 1.260 . S
O136 In130 2.266 . S
O136 C133 1.252 . S
O137 In130 2.326 . S
O137 C133 1.260 . S
O138 In130 2.266 . S
O138 C135 1.252 . S
O139 In130 2.326 . S
O139 C135 1.260 . S
C140 O131 1.240 . S
C140 O132 1.252 . S
O141 In130 2.294 . S
O141 C134 1.240 . S
O142 In130 2.326 . S
O142 C134 1.252 . S
In143 O144 2.294 . S
In143 O145 2.326 . S
In143 O149 2.266 . S
In143 O150 2.326 . S
In143 O151 2.266 . S
In143 O152 2.326 . S
In143 O154 2.294 . S
In143 O155 2.326 . S
O144 In143 2.294 . S
O144 C153 1.240 . S
O145 In143 2.326 . S
O145 C153 1.252 . S
C146 O149 1.252 . S
C146 O150 1.260 . S
C147 O154 1.240 . S
C147 O155 1.252 . S
C148 O151 1.252 . S
C148 O152 1.260 . S
O149 In143 2.266 . S
O149 C146 1.252 . S
O150 In143 2.326 . S
O150 C146 1.260 . S
O151 In143 2.266 . S
O151 C148 1.252 . S
O152 In143 2.326 . S
O152 C148 1.260 . S
C153 O144 1.240 . S
C153 O145 1.252 . S
O154 In143 2.294 . S
O154 C147 1.240 . S
O155 In143 2.326 . S
O155 C147 1.252 . S
In156 O157 2.294 . S
In156 O158 2.326 . S
In156 O162 2.266 . S
In156 O163 2.326 . S
In156 O164 2.266 . S
In156 O165 2.326 . S
In156 O167 2.294 . S
In156 O168 2.326 . S
O157 In156 2.294 . S
O157 C166 1.240 . S
O158 In156 2.326 . S
O158 C166 1.252 . S
C159 O162 1.252 . S
C159 O163 1.260 . S
C160 O167 1.240 . S
C160 O168 1.252 . S
C161 O164 1.252 . S
C161 O165 1.260 . S
O162 In156 2.266 . S
O162 C159 1.252 . S
O163 In156 2.326 . S
O163 C159 1.260 . S
O164 In156 2.266 . S
O164 C161 1.252 . S
O165 In156 2.326 . S
O165 C161 1.260 . S
C166 O157 1.240 . S
C166 O158 1.252 . S
O167 In156 2.294 . S
O167 C160 1.240 . S
O168 In156 2.326 . S
O168 C160 1.252 . S
In169 O170 2.294 . S
In169 O171 2.326 . S
In169 O175 2.266 . S
In169 O176 2.326 . S
In169 O177 2.266 . S
In169 O178 2.326 . S
In169 O180 2.294 . S
In169 O181 2.326 . S
O170 In169 2.294 . S
O170 C179 1.240 . S
O171 In169 2.326 . S
O171 C179 1.252 . S
C172 O175 1.252 . S
C172 O176 1.260 . S
C173 O180 1.240 . S
C173 O181 1.252 . S
C174 O177 1.252 . S
C174 O178 1.260 . S
O175 In169 2.266 . S
O175 C172 1.252 . S
O176 In169 2.326 . S
O176 C172 1.260 . S
O177 In169 2.266 . S
O177 C174 1.252 . S
O178 In169 2.326 . S
O178 C174 1.260 . S
C179 O170 1.240 . S
C179 O171 1.252 . S
O180 In169 2.294 . S
O180 C173 1.240 . S
O181 In169 2.326 . S
O181 C173 1.252 . S
In182 O183 2.294 . S
In182 O184 2.326 . S
In182 O188 2.266 . S
In182 O189 2.326 . S
In182 O190 2.266 . S
In182 O191 2.326 . S
In182 O193 2.294 . S
In182 O194 2.326 . S
O183 In182 2.294 . S
O183 C192 1.240 . S
O184 In182 2.326 . S
O184 C192 1.252 . S
C185 O188 1.252 . S
C185 O189 1.260 . S
C186 O193 1.240 . S
C186 O194 1.252 . S
C187 O190 1.252 . S
C187 O191 1.260 . S
O188 In182 2.266 . S
O188 C185 1.252 . S
O189 In182 2.326 . S
O189 C185 1.260 . S
O190 In182 2.266 . S
O190 C187 1.252 . S
O191 In182 2.326 . S
O191 C187 1.260 . S
C192 O183 1.240 . S
C192 O184 1.252 . S
O193 In182 2.294 . S
O193 C186 1.240 . S
O194 In182 2.326 . S
O194 C186 1.252 . S
In195 O196 2.294 . S
In195 O197 2.326 . S
In195 O201 2.266 . S
In195 O202 2.326 . S
In195 O203 2.266 . S
In195 O204 2.326 . S
In195 O206 2.294 . S
In195 O207 2.326 . S
O196 In195 2.294 . S
O196 C205 1.240 . S
O197 In195 2.326 . S
O197 C205 1.252 . S
C198 O201 1.252 . S
C198 O202 1.260 . S
C199 O206 1.240 . S
C199 O207 1.252 . S
C200 O203 1.252 . S
C200 O204 1.260 . S
O201 In195 2.266 . S
O201 C198 1.252 . S
O202 In195 2.326 . S
O202 C198 1.260 . S
O203 In195 2.266 . S
O203 C200 1.252 . S
O204 In195 2.326 . S
O204 C200 1.260 . S
C205 O196 1.240 . S
C205 O197 1.252 . S
O206 In195 2.294 . S
O206 C199 1.240 . S
O207 In195 2.326 . S
O207 C199 1.252 . S
H208 C214 0.930 . S
H209 C217 0.930 . S
H210 C218 0.930 . S
H211 C219 0.930 . S
H212 C222 0.930 . S
H213 C223 0.930 . S
C214 H208 0.930 . S
C214 C215 1.355 . S
C214 C216 1.415 . S
C215 C214 1.355 . S
C215 C217 1.419 . S
C216 C214 1.415 . S
C216 C221 1.425 . S
C216 C223 1.409 . S
C217 H209 0.930 . S
C217 C215 1.419 . S
C217 C218 1.362 . S
C218 H210 0.930 . S
C218 C217 1.362 . S
C218 C221 1.409 . S
C219 H211 0.930 . S
C219 C220 1.355 . S
C219 C221 1.415 . S
C220 C219 1.355 . S
C220 C222 1.419 . S
C221 C216 1.425 . S
C221 C218 1.409 . S
C221 C219 1.415 . S
C222 H212 0.930 . S
C222 C220 1.419 . S
C222 C223 1.362 . S
C223 H213 0.930 . S
C223 C216 1.409 . S
C223 C222 1.362 . S
H224 C230 0.930 . S
H225 C233 0.930 . S
H226 C234 0.930 . S
H227 C235 0.930 . S
H228 C238 0.941 . S
H229 C239 0.930 1_545 S
C230 H224 0.930 . S
C230 C231 1.355 . S
C230 C232 1.415 . S
C231 C230 1.355 . S
C231 C233 1.419 . S
C232 C230 1.415 . S
C232 C237 1.425 . S
C232 C239 1.409 . S
C233 H225 0.930 . S
C233 C231 1.419 . S
C233 C234 1.362 . S
C234 H226 0.930 . S
C234 C233 1.362 . S
C234 C237 1.409 . S
C235 H227 0.930 . S
C235 C236 1.355 . S
C235 C237 1.415 . S
C236 C235 1.355 . S
C236 C238 1.419 . S
C237 C232 1.425 . S
C237 C234 1.409 . S
C237 C235 1.415 . S
C238 H228 0.941 . S
C238 C236 1.419 . S
C238 C239 1.362 . S
C239 H229 0.930 1_565 S
C239 C232 1.409 . S
C239 C238 1.362 . S
H240 C246 0.930 . S
H241 C249 0.930 . S
H242 C250 0.930 . S
H243 C251 0.930 . S
H244 C254 0.930 . S
H245 C255 0.930 . S
C246 H240 0.930 . S
C246 C247 1.355 . S
C246 C248 1.415 . S
C247 C246 1.355 . S
C247 C249 1.419 . S
C248 C246 1.415 . S
C248 C253 1.425 1_554 S
C248 C255 1.409 1_554 S
C249 H241 0.930 . S
C249 C247 1.419 . S
C249 C250 1.362 . S
C250 H242 0.930 . S
C250 C249 1.362 . S
C250 C253 1.409 1_554 S
C251 H243 0.930 . S
C251 C252 1.355 . S
C251 C253 1.415 . S
C252 C251 1.355 . S
C252 C254 1.419 . S
C253 C248 1.425 1_556 S
C253 C250 1.409 1_556 S
C253 C251 1.415 . S
C254 H244 0.930 . S
C254 C252 1.419 . S
C254 C255 1.362 . S
C255 H245 0.930 . S
C255 C248 1.409 1_556 S
C255 C254 1.362 . S
H256 C262 0.930 . S
H257 C265 0.930 . S
H258 C266 0.930 . S
H259 C267 0.930 . S
H260 C270 0.930 1_565 S
H261 C271 0.930 1_565 S
C262 H256 0.930 . S
C262 C263 1.355 . S
C262 C264 1.415 . S
C263 C262 1.355 . S
C263 C265 1.419 . S
C264 C262 1.415 . S
C264 C269 1.425 1_556 S
C264 C271 1.409 1_556 S
C265 H257 0.930 . S
C265 C263 1.419 . S
C265 C266 1.362 . S
C266 H258 0.930 . S
C266 C265 1.362 . S
C266 C269 1.409 1_556 S
C267 H259 0.930 . S
C267 C268 1.355 . S
C267 C269 1.415 . S
C268 C267 1.355 . S
C268 C270 1.419 . S
C269 C264 1.425 1_554 S
C269 C266 1.409 1_554 S
C269 C267 1.415 . S
C270 H260 0.930 1_545 S
C270 C268 1.419 . S
C270 C271 1.362 . S
C271 H261 0.930 1_545 S
C271 C264 1.409 1_554 S
C271 C270 1.362 . S
H272 C278 0.930 . S
H273 C281 0.930 . S
H274 C282 0.930 . S
H275 C283 0.930 . S
H276 C286 0.930 . S
H277 C287 0.930 . S
C278 H272 0.930 . S
C278 C279 1.355 . S
C278 C280 1.415 . S
C279 C278 1.355 . S
C279 C281 1.419 . S
C280 C278 1.415 . S
C280 C285 1.425 . S
C280 C287 1.409 . S
C281 H273 0.930 . S
C281 C279 1.419 . S
C281 C282 1.362 . S
C282 H274 0.930 . S
C282 C281 1.362 . S
C282 C285 1.409 . S
C283 H275 0.930 . S
C283 C284 1.355 . S
C283 C285 1.415 . S
C284 C283 1.355 . S
C284 C286 1.419 . S
C285 C280 1.425 . S
C285 C282 1.409 . S
C285 C283 1.415 . S
C286 H276 0.930 . S
C286 C284 1.419 . S
C286 C287 1.362 . S
C287 H277 0.930 . S
C287 C280 1.409 . S
C287 C286 1.362 . S
H288 C294 0.930 . S
H289 C297 0.930 . S
H290 C298 0.930 . S
H291 C299 0.930 . S
H292 C302 0.930 . S
H293 C303 0.930 . S
C294 H288 0.930 . S
C294 C295 1.355 . S
C294 C296 1.415 . S
C295 C294 1.355 . S
C295 C297 1.419 . S
C296 C294 1.415 . S
C296 C301 1.425 . S
C296 C303 1.409 . S
C297 H289 0.930 . S
C297 C295 1.419 . S
C297 C298 1.362 . S
C298 H290 0.930 . S
C298 C297 1.362 . S
C298 C301 1.409 . S
C299 H291 0.930 . S
C299 C300 1.355 . S
C299 C301 1.415 . S
C300 C299 1.355 . S
C300 C302 1.419 . S
C301 C296 1.425 . S
C301 C298 1.409 . S
C301 C299 1.415 . S
C302 H292 0.930 . S
C302 C300 1.419 . S
C302 C303 1.362 . S
C303 H293 0.930 . S
C303 C296 1.409 . S
C303 C302 1.362 . S
H304 C310 0.930 . S
H305 C313 0.930 . S
H306 C314 0.930 . S
H307 C315 0.930 . S
H308 C318 0.930 . S
H309 C319 0.930 . S
C310 H304 0.930 . S
C310 C311 1.355 . S
C310 C312 1.415 . S
C311 C310 1.355 . S
C311 C313 1.419 . S
C312 C310 1.415 . S
C312 C317 1.425 1_556 S
C312 C319 1.409 1_556 S
C313 H305 0.930 . S
C313 C311 1.419 . S
C313 C314 1.362 . S
C314 H306 0.930 . S
C314 C313 1.362 . S
C314 C317 1.409 1_556 S
C315 H307 0.930 . S
C315 C316 1.355 . S
C315 C317 1.415 . S
C316 C315 1.355 . S
C316 C318 1.419 . S
C317 C312 1.425 1_554 S
C317 C314 1.409 1_554 S
C317 C315 1.415 . S
C318 H308 0.930 . S
C318 C316 1.419 . S
C318 C319 1.362 . S
C319 H309 0.930 . S
C319 C312 1.409 1_554 S
C319 C318 1.362 . S
H320 C326 0.930 . S
H321 C329 0.930 . S
H322 C330 0.930 . S
H323 C331 0.930 . S
H324 C334 0.930 . S
H325 C335 0.930 . S
C326 H320 0.930 . S
C326 C327 1.355 . S
C326 C328 1.415 . S
C327 C326 1.355 . S
C327 C329 1.419 . S
C328 C326 1.415 . S
C328 C333 1.425 1_554 S
C328 C335 1.409 1_554 S
C329 H321 0.930 . S
C329 C327 1.419 . S
C329 C330 1.362 . S
C330 H322 0.930 . S
C330 C329 1.362 . S
C330 C333 1.409 1_554 S
C331 H323 0.930 . S
C331 C332 1.355 . S
C331 C333 1.415 . S
C332 C331 1.355 . S
C332 C334 1.419 . S
C333 C328 1.425 1_556 S
C333 C330 1.409 1_556 S
C333 C331 1.415 . S
C334 H324 0.930 . S
C334 C332 1.419 . S
C334 C335 1.362 . S
C335 H325 0.930 . S
C335 C328 1.409 1_556 S
C335 C334 1.362 . S
H336 C342 0.930 1_545 S
H337 C345 0.930 . S
H338 C346 0.930 . S
H339 C347 0.930 1_565 S
H340 C350 0.930 . S
H341 C351 0.930 . S
C342 H336 0.930 1_565 S
C342 C343 1.355 . S
C342 C344 1.415 1_565 S
C343 C342 1.355 . S
C343 C345 1.419 . S
C344 C342 1.415 1_545 S
C344 C349 1.425 1_545 S
C344 C351 1.409 . S
C345 H337 0.930 . S
C345 C343 1.419 . S
C345 C346 1.362 . S
C346 H338 0.930 . S
C346 C345 1.362 . S
C346 C349 1.409 . S
C347 H339 0.930 1_545 S
C347 C348 1.355 . S
C347 C349 1.415 1_545 S
C348 C347 1.355 . S
C348 C350 1.419 . S
C349 C344 1.425 1_565 S
C349 C346 1.409 . S
C349 C347 1.415 1_565 S
C350 H340 0.930 . S
C350 C348 1.419 . S
C350 C351 1.362 . S
C351 H341 0.930 . S
C351 C344 1.409 . S
C351 C350 1.362 . S
H352 C358 0.930 . S
H353 C361 0.930 . S
H354 C362 0.930 . S
H355 C363 0.930 . S
H356 C366 0.930 . S
H357 C367 0.930 . S
C358 H352 0.930 . S
C358 C359 1.355 1_545 S
C358 C360 1.415 . S
C359 C358 1.355 1_565 S
C359 C361 1.419 . S
C360 C358 1.415 . S
C360 C365 1.425 1_545 S
C360 C367 1.409 . S
C361 H353 0.930 . S
C361 C359 1.419 . S
C361 C362 1.362 . S
C362 H354 0.930 . S
C362 C361 1.362 . S
C362 C365 1.409 . S
C363 H355 0.930 . S
C363 C364 1.355 1_565 S
C363 C365 1.415 . S
C364 C363 1.355 1_545 S
C364 C366 1.419 . S
C365 C360 1.425 1_565 S
C365 C362 1.409 . S
C365 C363 1.415 . S
C366 H356 0.930 . S
C366 C364 1.419 . S
C366 C367 1.362 . S
C367 H357 0.930 . S
C367 C360 1.409 . S
C367 C366 1.362 . S
H368 C374 0.930 . S
H369 C377 0.930 . S
H370 C378 0.930 . S
H371 C379 0.930 . S
H372 C382 0.930 . S
H373 C383 0.930 . S
C374 H368 0.930 . S
C374 C375 1.355 1_545 S
C374 C376 1.415 . S
C375 C374 1.355 1_565 S
C375 C377 1.419 . S
C376 C374 1.415 . S
C376 C381 1.425 1_545 S
C376 C383 1.409 . S
C377 H369 0.930 . S
C377 C375 1.419 . S
C377 C378 1.362 . S
C378 H370 0.930 . S
C378 C377 1.362 . S
C378 C381 1.409 . S
C379 H371 0.930 . S
C379 C380 1.355 1_565 S
C379 C381 1.415 . S
C380 C379 1.355 1_545 S
C380 C382 1.419 . S
C381 C376 1.425 1_565 S
C381 C378 1.409 . S
C381 C379 1.415 . S
C382 H372 0.930 . S
C382 C380 1.419 . S
C382 C383 1.362 . S
C383 H373 0.930 . S
C383 C376 1.409 . S
C383 C382 1.362 . S
H384 C390 0.930 1_565 S
H385 C393 0.930 . S
H386 C394 0.930 . S
H387 C395 0.930 1_545 S
H388 C398 0.930 . S
H389 C399 0.930 . S
C390 H384 0.930 1_545 S
C390 C391 1.355 . S
C390 C392 1.415 1_545 S
C391 C390 1.355 . S
C391 C393 1.419 . S
C392 C390 1.415 1_565 S
C392 C397 1.425 1_565 S
C392 C399 1.409 . S
C393 H385 0.930 . S
C393 C391 1.419 . S
C393 C394 1.362 . S
C394 H386 0.930 . S
C394 C393 1.362 . S
C394 C397 1.409 . S
C395 H387 0.930 1_565 S
C395 C396 1.355 . S
C395 C397 1.415 1_565 S
C396 C395 1.355 . S
C396 C398 1.419 . S
C397 C392 1.425 1_545 S
C397 C394 1.409 . S
C397 C395 1.415 1_545 S
C398 H388 0.930 . S
C398 C396 1.419 . S
C398 C399 1.362 . S
C399 H389 0.930 . S
C399 C392 1.409 . S
C399 C398 1.362 . S
H400 C406 0.930 . S
H401 C409 0.930 . S
H402 C410 0.930 . S
H403 C411 0.930 . S
H404 C414 0.930 . S
H405 C415 0.930 . S
C406 H400 0.930 . S
C406 C407 1.355 . S
C406 C408 1.392 1_655 S
C407 C406 1.355 . S
C407 C409 1.419 . S
C408 C406 1.392 1_455 S
C408 C413 1.424 1_455 S
C408 C415 1.433 . S
C409 H401 0.930 . S
C409 C407 1.419 . S
C409 C410 1.362 . S
C410 H402 0.930 . S
C410 C409 1.362 . S
C410 C413 1.433 . S
C411 H403 0.930 . S
C411 C412 1.355 . S
C411 C413 1.392 1_455 S
C412 C411 1.355 . S
C412 C414 1.419 . S
C413 C408 1.424 1_655 S
C413 C410 1.433 . S
C413 C411 1.392 1_655 S
C414 H404 0.930 . S
C414 C412 1.419 . S
C414 C415 1.362 . S
C415 H405 0.930 . S
C415 C408 1.433 . S
C415 C414 1.362 . S
H416 C422 0.930 . S
H417 C425 0.930 . S
H418 C426 0.911 1_655 S
H419 C427 0.930 . S
H420 C430 0.930 . S
H421 C431 0.911 1_455 S
C422 H416 0.930 . S
C422 C423 1.355 . S
C422 C424 1.415 . S
C423 C422 1.355 . S
C423 C425 1.419 . S
C424 C422 1.415 . S
C424 C429 1.425 1_455 S
C424 C431 1.399 1_455 S
C425 H417 0.930 . S
C425 C423 1.419 . S
C425 C426 1.392 . S
C426 H418 0.911 1_455 S
C426 C425 1.392 . S
C426 C429 1.399 1_455 S
C427 H419 0.930 . S
C427 C428 1.355 . S
C427 C429 1.415 . S
C428 C427 1.355 . S
C428 C430 1.419 . S
C429 C424 1.425 1_655 S
C429 C426 1.399 1_655 S
C429 C427 1.415 . S
C430 H420 0.930 . S
C430 C428 1.419 . S
C430 C431 1.392 . S
C431 H421 0.911 1_655 S
C431 C424 1.399 1_655 S
C431 C430 1.392 . S
H432 C438 0.930 . S
H433 C441 0.930 . S
H434 C442 0.924 1_455 S
H435 C443 0.930 . S
H436 C446 0.930 . S
H437 C447 0.924 1_655 S
C438 H432 0.930 . S
C438 C439 1.355 . S
C438 C440 1.415 . S
C439 C438 1.355 . S
C439 C441 1.419 . S
C440 C438 1.415 . S
C440 C445 1.425 1_655 S
C440 C447 1.406 1_655 S
C441 H433 0.930 . S
C441 C439 1.419 . S
C441 C442 1.372 . S
C442 H434 0.924 1_655 S
C442 C441 1.372 . S
C442 C445 1.406 1_655 S
C443 H435 0.930 . S
C443 C444 1.355 . S
C443 C445 1.415 . S
C444 C443 1.355 . S
C444 C446 1.419 . S
C445 C440 1.425 1_455 S
C445 C442 1.406 1_455 S
C445 C443 1.415 . S
C446 H436 0.930 . S
C446 C444 1.419 . S
C446 C447 1.372 . S
C447 H437 0.924 1_455 S
C447 C440 1.406 1_455 S
C447 C446 1.372 . S
H448 C454 0.930 . S
H449 C457 0.930 . S
H450 C458 0.930 . S
H451 C459 0.930 . S
H452 C462 0.930 . S
H453 C463 0.930 . S
C454 H448 0.930 . S
C454 C455 1.355 . S
C454 C456 1.418 . S
C455 C454 1.355 . S
C455 C457 1.419 . S
C456 C454 1.418 . S
C456 C461 1.425 1_455 S
C456 C463 1.406 1_455 S
C457 H449 0.930 . S
C457 C455 1.419 . S
C457 C458 1.362 . S
C458 H450 0.930 . S
C458 C457 1.362 . S
C458 C461 1.406 1_455 S
C459 H451 0.930 . S
C459 C460 1.355 . S
C459 C461 1.418 . S
C460 C459 1.355 . S
C460 C462 1.419 . S
C461 C456 1.425 1_655 S
C461 C458 1.406 1_655 S
C461 C459 1.418 . S
C462 H452 0.930 . S
C462 C460 1.419 . S
C462 C463 1.362 . S
C463 H453 0.930 . S
C463 C456 1.406 1_655 S
C463 C462 1.362 . S
H464 C470 0.930 . S
H465 C473 0.930 . S
H466 C474 0.930 . S
H467 C475 0.930 . S
H468 C478 0.930 . S
H469 C479 0.930 . S
C470 H464 0.930 . S
C470 C471 1.355 . S
C470 C472 1.415 . S
C471 C470 1.355 . S
C471 C473 1.419 . S
C472 C470 1.415 . S
C472 C477 1.425 . S
C472 C479 1.409 . S
C473 H465 0.930 . S
C473 C471 1.419 . S
C473 C474 1.362 . S
C474 H466 0.930 . S
C474 C473 1.362 . S
C474 C477 1.409 . S
C475 H467 0.930 . S
C475 C476 1.355 . S
C475 C477 1.415 . S
C476 C475 1.355 . S
C476 C478 1.419 . S
C477 C472 1.425 . S
C477 C474 1.409 . S
C477 C475 1.415 . S
C478 H468 0.930 . S
C478 C476 1.419 . S
C478 C479 1.362 . S
C479 H469 0.930 . S
C479 C472 1.409 . S
C479 C478 1.362 . S
H480 C486 0.930 . S
H481 C489 0.930 . S
H482 C490 0.930 . S
H483 C491 0.930 . S
H484 C494 0.930 . S
H485 C495 0.930 . S
C486 H480 0.930 . S
C486 C487 1.355 . S
C486 C488 1.415 . S
C487 C486 1.355 . S
C487 C489 1.419 . S
C488 C486 1.415 . S
C488 C493 1.425 . S
C488 C495 1.409 . S
C489 H481 0.930 . S
C489 C487 1.419 . S
C489 C490 1.362 . S
C490 H482 0.930 . S
C490 C489 1.362 . S
C490 C493 1.409 . S
C491 H483 0.930 . S
C491 C492 1.355 . S
C491 C493 1.415 . S
C492 C491 1.355 . S
C492 C494 1.419 . S
C493 C488 1.425 . S
C493 C490 1.409 . S
C493 C491 1.415 . S
C494 H484 0.930 . S
C494 C492 1.419 . S
C494 C495 1.362 . S
C495 H485 0.930 . S
C495 C488 1.409 . S
C495 C494 1.362 . S
H496 C502 0.930 . S
H497 C505 0.930 . S
H498 C506 0.930 . S
H499 C507 0.930 . S
H500 C510 0.930 . S
H501 C511 0.930 . S
C502 H496 0.930 . S
C502 C503 1.355 . S
C502 C504 1.415 . S
C503 C502 1.355 . S
C503 C505 1.419 . S
C504 C502 1.415 . S
C504 C509 1.425 . S
C504 C511 1.409 . S
C505 H497 0.930 . S
C505 C503 1.419 . S
C505 C506 1.362 . S
C506 H498 0.930 . S
C506 C505 1.362 . S
C506 C509 1.409 . S
C507 H499 0.930 . S
C507 C508 1.355 . S
C507 C509 1.415 . S
C508 C507 1.355 . S
C508 C510 1.419 . S
C509 C504 1.425 . S
C509 C506 1.409 . S
C509 C507 1.415 . S
C510 H500 0.930 . S
C510 C508 1.419 . S
C510 C511 1.362 . S
C511 H501 0.930 . S
C511 C504 1.409 . S
C511 C510 1.362 . S
H512 C518 0.930 . S
H513 C521 0.930 . S
H514 C522 0.930 . S
H515 C523 0.930 . S
H516 C526 0.930 . S
H517 C527 0.930 . S
C518 H512 0.930 . S
C518 C519 1.355 . S
C518 C520 1.415 . S
C519 C518 1.355 . S
C519 C521 1.419 . S
C520 C518 1.415 . S
C520 C525 1.425 . S
C520 C527 1.409 . S
C521 H513 0.930 . S
C521 C519 1.419 . S
C521 C522 1.362 . S
C522 H514 0.930 . S
C522 C521 1.362 . S
C522 C525 1.409 . S
C523 H515 0.930 . S
C523 C524 1.355 . S
C523 C525 1.415 . S
C524 C523 1.355 . S
C524 C526 1.419 . S
C525 C520 1.425 . S
C525 C522 1.409 . S
C525 C523 1.415 . S
C526 H516 0.930 . S
C526 C524 1.419 . S
C526 C527 1.362 . S
C527 H517 0.930 . S
C527 C520 1.409 . S
C527 C526 1.362 . S
H528 C534 0.930 . S
H529 C537 0.930 . S
H530 C538 0.930 . S
H531 C539 0.930 . S
H532 C542 0.930 . S
H533 C543 0.930 . S
C534 H528 0.930 . S
C534 C535 1.355 . S
C534 C536 1.415 . S
C535 C534 1.355 . S
C535 C537 1.419 . S
C536 C534 1.415 . S
C536 C541 1.425 . S
C536 C543 1.409 . S
C537 H529 0.930 . S
C537 C535 1.419 . S
C537 C538 1.362 . S
C538 H530 0.930 . S
C538 C537 1.362 . S
C538 C541 1.409 . S
C539 H531 0.930 . S
C539 C540 1.355 . S
C539 C541 1.415 . S
C540 C539 1.355 . S
C540 C542 1.419 . S
C541 C536 1.425 . S
C541 C538 1.409 . S
C541 C539 1.415 . S
C542 H532 0.930 . S
C542 C540 1.419 . S
C542 C543 1.362 . S
C543 H533 0.930 . S
C543 C536 1.409 . S
C543 C542 1.362 . S
H544 C550 0.930 . S
H545 C553 0.930 . S
H546 C554 0.930 . S
H547 C555 0.930 . S
H548 C558 0.930 . S
H549 C559 0.930 . S
C550 H544 0.930 . S
C550 C551 1.355 . S
C550 C552 1.415 . S
C551 C550 1.355 . S
C551 C553 1.419 . S
C552 C550 1.415 . S
C552 C557 1.425 . S
C552 C559 1.409 . S
C553 H545 0.930 . S
C553 C551 1.419 . S
C553 C554 1.362 . S
C554 H546 0.930 . S
C554 C553 1.362 . S
C554 C557 1.409 . S
C555 H547 0.930 . S
C555 C556 1.355 . S
C555 C557 1.415 . S
C556 C555 1.355 . S
C556 C558 1.419 . S
C557 C552 1.425 . S
C557 C554 1.409 . S
C557 C555 1.415 . S
C558 H548 0.930 . S
C558 C556 1.419 . S
C558 C559 1.362 . S
C559 H549 0.930 . S
C559 C552 1.409 . S
C559 C558 1.362 . S
H560 C566 0.930 . S
H561 C569 0.930 . S
H562 C570 0.930 . S
H563 C571 0.930 . S
H564 C574 0.930 . S
H565 C575 0.930 . S
C566 H560 0.930 . S
C566 C567 1.355 . S
C566 C568 1.415 . S
C567 C566 1.355 . S
C567 C569 1.419 . S
C568 C566 1.415 . S
C568 C573 1.425 . S
C568 C575 1.409 . S
C569 H561 0.930 . S
C569 C567 1.419 . S
C569 C570 1.362 . S
C570 H562 0.930 . S
C570 C569 1.362 . S
C570 C573 1.409 . S
C571 H563 0.930 . S
C571 C572 1.355 . S
C571 C573 1.415 . S
C572 C571 1.355 . S
C572 C574 1.419 . S
C573 C568 1.425 . S
C573 C570 1.409 . S
C573 C571 1.415 . S
C574 H564 0.930 . S
C574 C572 1.419 . S
C574 C575 1.362 . S
C575 H565 0.930 . S
C575 C568 1.409 . S
C575 C574 1.362 . S
H576 C582 0.930 . S
H577 C585 0.930 . S
H578 C586 0.930 . S
H579 C587 0.930 . S
H580 C590 0.930 . S
H581 C591 0.930 . S
C582 H576 0.930 . S
C582 C583 1.355 . S
C582 C584 1.415 . S
C583 C582 1.355 . S
C583 C585 1.419 . S
C584 C582 1.415 . S
C584 C589 1.425 . S
C584 C591 1.409 . S
C585 H577 0.930 . S
C585 C583 1.419 . S
C585 C586 1.362 . S
C586 H578 0.930 . S
C586 C585 1.362 . S
C586 C589 1.409 . S
C587 H579 0.930 . S
C587 C588 1.355 . S
C587 C589 1.415 . S
C588 C587 1.355 . S
C588 C590 1.419 . S
C589 C584 1.425 . S
C589 C586 1.409 . S
C589 C587 1.415 . S
C590 H580 0.930 . S
C590 C588 1.419 . S
C590 C591 1.362 . S
C591 H581 0.930 . S
C591 C584 1.409 . S
C591 C590 1.362 . S
H592 C598 0.930 . S
H593 C601 0.930 . S
H594 C602 0.930 . S
H595 C603 0.930 . S
H596 C606 0.930 . S
H597 C607 0.930 . S
C598 H592 0.930 . S
C598 C599 1.355 1_565 S
C598 C600 1.415 . S
C599 C598 1.355 1_545 S
C599 C601 1.419 . S
C600 C598 1.415 . S
C600 C605 1.425 1_565 S
C600 C607 1.409 . S
C601 H593 0.930 . S
C601 C599 1.419 . S
C601 C602 1.362 . S
C602 H594 0.930 . S
C602 C601 1.362 . S
C602 C605 1.409 . S
C603 H595 0.930 . S
C603 C604 1.355 1_545 S
C603 C605 1.415 . S
C604 C603 1.355 1_565 S
C604 C606 1.419 . S
C605 C600 1.425 1_545 S
C605 C602 1.409 . S
C605 C603 1.415 . S
C606 H596 0.930 . S
C606 C604 1.419 . S
C606 C607 1.362 . S
C607 H597 0.930 . S
C607 C600 1.409 . S
C607 C606 1.362 . S
H608 C614 0.930 . S
H609 C617 0.930 . S
H610 C618 0.930 . S
H611 C619 0.930 . S
H612 C622 0.930 . S
H613 C623 0.930 . S
C614 H608 0.930 . S
C614 C615 1.355 . S
C614 C616 1.415 . S
C615 C614 1.355 . S
C615 C617 1.419 1_545 S
C616 C614 1.415 . S
C616 C621 1.425 1_545 S
C616 C623 1.409 . S
C617 H609 0.930 . S
C617 C615 1.419 1_565 S
C617 C618 1.362 . S
C618 H610 0.930 . S
C618 C617 1.362 . S
C618 C621 1.409 . S
C619 H611 0.930 . S
C619 C620 1.355 . S
C619 C621 1.415 . S
C620 C619 1.355 . S
C620 C622 1.419 1_565 S
C621 C616 1.425 1_565 S
C621 C618 1.409 . S
C621 C619 1.415 . S
C622 H612 0.930 . S
C622 C620 1.419 1_545 S
C622 C623 1.362 . S
C623 H613 0.930 . S
C623 C616 1.409 . S
C623 C622 1.362 . S
H624 C630 0.930 . S
H625 C633 0.930 . S
H626 C634 0.930 . S
H627 C635 0.930 . S
H628 C638 0.930 . S
H629 C639 0.930 . S
C630 H624 0.930 . S
C630 C631 1.355 1_565 S
C630 C632 1.415 . S
C631 C630 1.355 1_545 S
C631 C633 1.419 . S
C632 C630 1.415 . S
C632 C637 1.425 1_565 S
C632 C639 1.409 . S
C633 H625 0.930 . S
C633 C631 1.419 . S
C633 C634 1.362 . S
C634 H626 0.930 . S
C634 C633 1.362 . S
C634 C637 1.409 . S
C635 H627 0.930 . S
C635 C636 1.355 1_545 S
C635 C637 1.415 . S
C636 C635 1.355 1_565 S
C636 C638 1.419 . S
C637 C632 1.425 1_545 S
C637 C634 1.409 . S
C637 C635 1.415 . S
C638 H628 0.930 . S
C638 C636 1.419 . S
C638 C639 1.362 . S
C639 H629 0.930 . S
C639 C632 1.409 . S
C639 C638 1.362 . S
H640 C646 0.930 . S
H641 C649 0.930 . S
H642 C650 0.930 . S
H643 C651 0.930 . S
H644 C654 0.930 . S
H645 C655 0.930 . S
C646 H640 0.930 . S
C646 C647 1.355 1_545 S
C646 C648 1.415 . S
C647 C646 1.355 1_565 S
C647 C649 1.419 . S
C648 C646 1.415 . S
C648 C653 1.425 1_545 S
C648 C655 1.409 . S
C649 H641 0.930 . S
C649 C647 1.419 . S
C649 C650 1.362 . S
C650 H642 0.930 . S
C650 C649 1.362 . S
C650 C653 1.409 . S
C651 H643 0.930 . S
C651 C652 1.355 1_565 S
C651 C653 1.415 . S
C652 C651 1.355 1_545 S
C652 C654 1.419 . S
C653 C648 1.425 1_565 S
C653 C650 1.409 . S
C653 C651 1.415 . S
C654 H644 0.930 . S
C654 C652 1.419 . S
C654 C655 1.362 . S
C655 H645 0.930 . S
C655 C648 1.409 . S
C655 C654 1.362 . S
H656 C662 0.930 . S
H657 C665 0.930 . S
H658 C666 0.930 . S
H659 C667 0.930 . S
H660 C670 0.930 . S
H661 C671 0.930 . S
C662 H656 0.930 . S
C662 C663 1.355 . S
C662 C664 1.415 . S
C663 C662 1.355 . S
C663 C665 1.419 . S
C664 C662 1.415 . S
C664 C669 1.425 . S
C664 C671 1.409 . S
C665 H657 0.930 . S
C665 C663 1.419 . S
C665 C666 1.362 . S
C666 H658 0.930 . S
C666 C665 1.362 . S
C666 C669 1.409 . S
C667 H659 0.930 . S
C667 C668 1.355 . S
C667 C669 1.415 . S
C668 C667 1.355 . S
C668 C670 1.419 . S
C669 C664 1.425 . S
C669 C666 1.409 . S
C669 C667 1.415 . S
C670 H660 0.930 . S
C670 C668 1.419 . S
C670 C671 1.362 . S
C671 H661 0.930 . S
C671 C664 1.409 . S
C671 C670 1.362 . S
H672 C678 0.930 . S
H673 C681 0.930 . S
H674 C682 0.930 . S
H675 C683 0.930 . S
H676 C686 0.930 . S
H677 C687 0.930 . S
C678 H672 0.930 . S
C678 C679 1.355 . S
C678 C680 1.415 . S
C679 C678 1.355 . S
C679 C681 1.419 . S
C680 C678 1.415 . S
C680 C685 1.425 . S
C680 C687 1.409 . S
C681 H673 0.930 . S
C681 C679 1.419 . S
C681 C682 1.362 . S
C682 H674 0.930 . S
C682 C681 1.362 . S
C682 C685 1.409 . S
C683 H675 0.930 . S
C683 C684 1.355 . S
C683 C685 1.415 . S
C684 C683 1.355 . S
C684 C686 1.419 . S
C685 C680 1.425 . S
C685 C682 1.409 . S
C685 C683 1.415 . S
C686 H676 0.930 . S
C686 C684 1.419 . S
C686 C687 1.362 . S
C687 H677 0.930 . S
C687 C680 1.409 . S
C687 C686 1.362 . S
H688 C694 0.930 . S
H689 C697 0.930 . S
H690 C698 0.930 . S
H691 C699 0.930 . S
H692 C702 0.930 . S
H693 C703 0.930 . S
C694 H688 0.930 . S
C694 C695 1.355 . S
C694 C696 1.415 . S
C695 C694 1.355 . S
C695 C697 1.419 . S
C696 C694 1.415 . S
C696 C701 1.425 . S
C696 C703 1.409 . S
C697 H689 0.930 . S
C697 C695 1.419 . S
C697 C698 1.362 . S
C698 H690 0.930 . S
C698 C697 1.362 . S
C698 C701 1.409 . S
C699 H691 0.930 . S
C699 C700 1.355 . S
C699 C701 1.415 . S
C700 C699 1.355 . S
C700 C702 1.419 . S
C701 C696 1.425 . S
C701 C698 1.409 . S
C701 C699 1.415 . S
C702 H692 0.930 . S
C702 C700 1.419 . S
C702 C703 1.362 . S
C703 H693 0.930 . S
C703 C696 1.409 . S
C703 C702 1.362 . S
H704 C710 0.930 . S
H705 C713 0.930 . S
H706 C714 0.930 . S
H707 C715 0.930 . S
H708 C718 0.930 . S
H709 C719 0.930 . S
C710 H704 0.930 . S
C710 C711 1.355 . S
C710 C712 1.415 . S
C711 C710 1.355 . S
C711 C713 1.419 . S
C712 C710 1.415 . S
C712 C717 1.425 . S
C712 C719 1.409 . S
C713 H705 0.930 . S
C713 C711 1.419 . S
C713 C714 1.362 . S
C714 H706 0.930 . S
C714 C713 1.362 . S
C714 C717 1.409 . S
C715 H707 0.930 . S
C715 C716 1.355 . S
C715 C717 1.415 . S
C716 C715 1.355 . S
C716 C718 1.419 . S
C717 C712 1.425 . S
C717 C714 1.409 . S
C717 C715 1.415 . S
C718 H708 0.930 . S
C718 C716 1.419 . S
C718 C719 1.362 . S
C719 H709 0.930 . S
C719 C712 1.409 . S
C719 C718 1.362 . S
C215 C4 1.422 . S
C220 C69 1.381 . S
C231 C62 1.393 . S
C236 C23 1.410 . S
C247 C30 1.422 . S
C252 C101 1.381 . S
C263 C82 1.387 . S
C268 C43 1.417 . S
C279 C179 1.389 . S
C284 C114 1.414 . S
C295 C160 1.384 . S
C300 C121 1.419 . S
C311 C205 1.400 . S
C316 C134 1.403 . S
C327 C153 1.412 . S
C332 C186 1.392 . S
C343 C18 1.504 . S
C348 C3 1.515 . S
C359 C29 1.508 . S
C364 C42 1.517 . S
C375 C57 1.515 . S
C380 C68 1.514 . S
C391 C81 1.516 . S
C396 C96 1.505 . S
C407 C109 1.504 . S
C412 C120 1.500 . S
C423 C148 1.510 . S
C428 C133 1.516 . S
C439 C174 1.516 . S
C444 C159 1.512 . S
C455 C185 1.500 . S
C460 C200 1.509 . S
C471 C127 1.494 . S
C476 C10 1.502 . S
C487 C17 1.502 . S
C492 C108 1.498 . S
C503 C147 1.498 . S
C508 C36 1.502 . S
C519 C49 1.501 . S
C524 C140 1.492 . S
C535 C56 1.502 . S
C540 C173 1.497 . S
C551 C166 1.493 . S
C556 C75 1.493 . S
C567 C88 1.493 . S
C572 C199 1.494 . S
C583 C192 1.502 . S
C588 C95 1.499 . S
C599 C5 1.312 . S
C604 C31 1.348 . S
C615 C44 1.361 . S
C620 C16 1.348 . S
C631 C83 1.330 . S
C636 C55 1.307 . S
C647 C94 1.330 . S
C652 C70 1.307 . S
C663 C135 1.334 . S
C668 C107 1.307 . S
C679 C122 1.308 . S
C684 C146 1.322 . S
C695 C187 1.331 . S
C700 C161 1.362 . S
C711 C172 1.346 . S
C716 C198 1.362 . S
