# Generated by pormake.
# Topology uot, (4)-cn, num edge types: 1
# Building blocks:
#     Node 0, Type 0, BuildingBlock: AZAVOO_clean_sbu_0, # of connection points: 4
#     Node 1, Type 0, BuildingBlock: AZAVOO_clean_sbu_0, # of connection points: 4
#     Node 2, Type 0, BuildingBlock: AZAVOO_clean_sbu_0, # of connection points: 4
#     Node 3, Type 0, BuildingBlock: AZAVOO_clean_sbu_0, # of connection points: 4
#     Node 4, Type 0, BuildingBlock: AZAVOO_clean_sbu_0, # of connection points: 4
#     Node 5, Type 0, BuildingBlock: AZAVOO_clean_sbu_0, # of connection points: 4
#     Node 6, Type 0, BuildingBlock: AZAVOO_clean_sbu_0, # of connection points: 4
#     Node 7, Type 0, BuildingBlock: AZAVOO_clean_sbu_0, # of connection points: 4
#     Node 8, Type 0, BuildingBlock: AZAVOO_clean_sbu_0, # of connection points: 4
#     Node 9, Type 0, BuildingBlock: AZAVOO_clean_sbu_0, # of connection points: 4
#     Node 10, Type 0, BuildingBlock: AZAVOO_clean_sbu_0, # of connection points: 4
#     Node 11, Type 0, BuildingBlock: AZAVOO_clean_sbu_0, # of connection points: 4
#     Node 12, Type 0, BuildingBlock: AZAVOO_clean_sbu_0, # of connection points: 4
#     Node 13, Type 0, BuildingBlock: AZAVOO_clean_sbu_0, # of connection points: 4
#     Node 14, Type 0, BuildingBlock: AZAVOO_clean_sbu_0, # of connection points: 4
#     Node 15, Type 0, BuildingBlock: AZAVOO_clean_sbu_0, # of connection points: 4
#     Edge 16, Type (0, 0), BuildingBlock: AJUNOK_clean_linker_0, # of connection points: 2
#     Edge 17, Type (0, 0), BuildingBlock: AJUNOK_clean_linker_0, # of connection points: 2
#     Edge 18, Type (0, 0), BuildingBlock: AJUNOK_clean_linker_0, # of connection points: 2
#     Edge 19, Type (0, 0), BuildingBlock: AJUNOK_clean_linker_0, # of connection points: 2
#     Edge 20, Type (0, 0), BuildingBlock: AJUNOK_clean_linker_0, # of connection points: 2
#     Edge 21, Type (0, 0), BuildingBlock: AJUNOK_clean_linker_0, # of connection points: 2
#     Edge 22, Type (0, 0), BuildingBlock: AJUNOK_clean_linker_0, # of connection points: 2
#     Edge 23, Type (0, 0), BuildingBlock: AJUNOK_clean_linker_0, # of connection points: 2
#     Edge 24, Type (0, 0), BuildingBlock: AJUNOK_clean_linker_0, # of connection points: 2
#     Edge 25, Type (0, 0), BuildingBlock: AJUNOK_clean_linker_0, # of connection points: 2
#     Edge 26, Type (0, 0), BuildingBlock: AJUNOK_clean_linker_0, # of connection points: 2
#     Edge 27, Type (0, 0), BuildingBlock: AJUNOK_clean_linker_0, # of connection points: 2
#     Edge 28, Type (0, 0), BuildingBlock: AJUNOK_clean_linker_0, # of connection points: 2
#     Edge 29, Type (0, 0), BuildingBlock: AJUNOK_clean_linker_0, # of connection points: 2
#     Edge 30, Type (0, 0), BuildingBlock: AJUNOK_clean_linker_0, # of connection points: 2
#     Edge 31, Type (0, 0), BuildingBlock: AJUNOK_clean_linker_0, # of connection points: 2
#     Edge 32, Type (0, 0), BuildingBlock: AJUNOK_clean_linker_0, # of connection points: 2
#     Edge 33, Type (0, 0), BuildingBlock: AJUNOK_clean_linker_0, # of connection points: 2
#     Edge 34, Type (0, 0), BuildingBlock: AJUNOK_clean_linker_0, # of connection points: 2
#     Edge 35, Type (0, 0), BuildingBlock: AJUNOK_clean_linker_0, # of connection points: 2
#     Edge 36, Type (0, 0), BuildingBlock: AJUNOK_clean_linker_0, # of connection points: 2
#     Edge 37, Type (0, 0), BuildingBlock: AJUNOK_clean_linker_0, # of connection points: 2
#     Edge 38, Type (0, 0), BuildingBlock: AJUNOK_clean_linker_0, # of connection points: 2
#     Edge 39, Type (0, 0), BuildingBlock: AJUNOK_clean_linker_0, # of connection points: 2
#     Edge 40, Type (0, 0), BuildingBlock: AJUNOK_clean_linker_0, # of connection points: 2
#     Edge 41, Type (0, 0), BuildingBlock: AJUNOK_clean_linker_0, # of connection points: 2
#     Edge 42, Type (0, 0), BuildingBlock: AJUNOK_clean_linker_0, # of connection points: 2
#     Edge 43, Type (0, 0), BuildingBlock: AJUNOK_clean_linker_0, # of connection points: 2
#     Edge 44, Type (0, 0), BuildingBlock: AJUNOK_clean_linker_0, # of connection points: 2
#     Edge 45, Type (0, 0), BuildingBlock: AJUNOK_clean_linker_0, # of connection points: 2
#     Edge 46, Type (0, 0), BuildingBlock: AJUNOK_clean_linker_0, # of connection points: 2
#     Edge 47, Type (0, 0), BuildingBlock: AJUNOK_clean_linker_0, # of connection points: 2
# Relax obj value: 0.218
# Max RMSD: 0.325
# Mean RMSD: 0.232
data_MOF--net-uot--node1-AZAVOO_clean_sbu_0--edge1-AJUNOK_clean_linker_0
_symmetry_space_group_name_H-M    P1
_symmetry_Int_Tables_number       1
_symmetry_cell_setting            triclinic
loop_
_symmetry_equiv_pos_as_xyz
'x, y, z'
_cell_length_a     37.174815
_cell_length_b     25.763716
_cell_length_c     31.462134
_cell_angle_alpha  90.210799
_cell_angle_beta   90.076864
_cell_angle_gamma 90.076793
loop_
_atom_site_label
_atom_site_type_symbol
_atom_site_fract_x
_atom_site_fract_y
_atom_site_fract_z
_atom_type_partial_charge
Mg0 Mg 0.15378 0.3899 0.34052 0.0
O1 O 0.13585 0.4535 0.29328 0.0
O2 O 0.16658 0.52537 0.3095 0.0
Mg3 Mg 0.20102 0.50942 0.36849 0.0
C4 C 0.14365 0.50114 0.28658 0.0
C5 C 0.10442 0.30054 0.31698 0.0
O6 O 0.09952 0.3042 0.35821 0.0
O7 O 0.20866 0.38081 0.30944 0.0
O8 O 0.2374 0.45156 0.33297 0.0
O9 O 0.10931 0.41188 0.38382 0.0
O10 O 0.16429 0.44578 0.38533 0.0
C11 C 0.23722 0.40803 0.31335 0.0
C12 C 0.13178 0.44528 0.39936 0.0
O13 O 0.12809 0.32899 0.29953 0.0
Mg14 Mg 0.45396 0.7288 0.63993 0.0
O15 O 0.42808 0.80354 0.6656 0.0
O16 O 0.46986 0.86519 0.67071 0.0
Mg17 Mg 0.52395 0.82834 0.65092 0.0
C18 C 0.43733 0.84998 0.67473 0.0
C19 C 0.37693 0.69131 0.66101 0.0
O20 O 0.38725 0.70995 0.69799 0.0
O21 O 0.45929 0.76315 0.57291 0.0
O22 O 0.50636 0.81675 0.58185 0.0
O23 O 0.46881 0.70382 0.70603 0.0
O24 O 0.50331 0.74999 0.66328 0.0
C25 C 0.48335 0.79386 0.55809 0.0
C26 C 0.49878 0.7281 0.69938 0.0
O27 O 0.39821 0.69442 0.62943 0.0
Mg28 Mg 0.81996 0.60016 0.32762 0.0
O29 O 0.84163 0.53355 0.28522 0.0
O30 O 0.81249 0.46174 0.30426 0.0
Mg31 Mg 0.77544 0.48141 0.36042 0.0
C32 C 0.83547 0.48499 0.28096 0.0
C33 C 0.86228 0.69464 0.30489 0.0
O34 O 0.8549 0.70346 0.34506 0.0
O35 O 0.76646 0.6034 0.29321 0.0
O36 O 0.73854 0.53414 0.32043 0.0
O37 O 0.86295 0.58607 0.37445 0.0
O38 O 0.80871 0.54964 0.37599 0.0
C39 C 0.73838 0.57544 0.29799 0.0
C40 C 0.84046 0.55439 0.39194 0.0
O41 O 0.84656 0.65764 0.2856 0.0
Mg42 Mg 0.53676 0.25244 0.64907 0.0
O43 O 0.56011 0.17551 0.67416 0.0
O44 O 0.51637 0.11655 0.67713 0.0
Mg45 Mg 0.46438 0.15572 0.65438 0.0
C46 C 0.54914 0.12971 0.6827 0.0
C47 C 0.60005 0.32645 0.66253 0.0
O48 O 0.57365 0.34904 0.68318 0.0
O49 O 0.5318 0.2219 0.58043 0.0
O50 O 0.48557 0.16625 0.58692 0.0
O51 O 0.52075 0.27483 0.71543 0.0
O52 O 0.48617 0.23306 0.66932 0.0
C53 C 0.5089 0.19001 0.56447 0.0
C54 C 0.49034 0.25284 0.70643 0.0
O55 O 0.59371 0.28428 0.64265 0.0
Mg56 Mg 0.15485 0.62004 0.6075 0.0
O57 O 0.13536 0.55393 0.65123 0.0
O58 O 0.16327 0.48165 0.63055 0.0
Mg59 Mg 0.19777 0.50048 0.57198 0.0
C60 C 0.14139 0.50536 0.65515 0.0
C61 C 0.10871 0.71014 0.6351 0.0
O62 O 0.10409 0.70961 0.5937 0.0
O63 O 0.20999 0.62301 0.639 0.0
O64 O 0.23634 0.55394 0.60911 0.0
O65 O 0.10963 0.60422 0.56303 0.0
O66 O 0.16377 0.56816 0.55926 0.0
C67 C 0.23773 0.5951 0.6319 0.0
C68 C 0.13142 0.5718 0.54514 0.0
O69 O 0.131 0.67879 0.65163 0.0
Mg70 Mg 0.53471 0.74138 0.29113 0.0
O71 O 0.55824 0.81753 0.26502 0.0
O72 O 0.51494 0.87709 0.26369 0.0
Mg73 Mg 0.46228 0.83773 0.28505 0.0
C74 C 0.54753 0.86363 0.25734 0.0
C75 C 0.59653 0.66472 0.28011 0.0
O76 O 0.56925 0.64069 0.26216 0.0
O77 O 0.53081 0.77347 0.35964 0.0
O78 O 0.48192 0.82376 0.35259 0.0
O79 O 0.51747 0.71689 0.2253 0.0
O80 O 0.48409 0.76062 0.27101 0.0
C81 C 0.50565 0.80153 0.37551 0.0
C82 C 0.48726 0.73916 0.23447 0.0
O83 O 0.5913 0.70884 0.29736 0.0
Mg84 Mg 0.82308 0.39641 0.61091 0.0
O85 O 0.84532 0.45879 0.6571 0.0
O86 O 0.81553 0.53205 0.64419 0.0
Mg87 Mg 0.77685 0.51774 0.5884 0.0
C88 C 0.83937 0.50676 0.66476 0.0
C89 C 0.87252 0.30639 0.6294 0.0
O90 O 0.87472 0.31003 0.58786 0.0
O91 O 0.7701 0.38854 0.64614 0.0
O92 O 0.74138 0.46038 0.62556 0.0
O93 O 0.86499 0.41655 0.56407 0.0
O94 O 0.81086 0.4527 0.56715 0.0
C95 C 0.74188 0.41667 0.64462 0.0
C96 C 0.84228 0.45038 0.55004 0.0
O97 O 0.85006 0.33473 0.64909 0.0
Mg98 Mg 0.4463 0.25233 0.30235 0.0
O99 O 0.42275 0.17669 0.27479 0.0
O100 O 0.46556 0.11665 0.27115 0.0
Mg101 Mg 0.51791 0.15499 0.29467 0.0
C102 C 0.43304 0.13083 0.26542 0.0
C103 C 0.3809 0.32491 0.29208 0.0
O104 O 0.40622 0.35186 0.27314 0.0
O105 O 0.45106 0.21978 0.36999 0.0
O106 O 0.49743 0.16466 0.36271 0.0
O107 O 0.46312 0.27783 0.23717 0.0
O108 O 0.49697 0.23341 0.28186 0.0
C109 C 0.47413 0.18811 0.38553 0.0
C110 C 0.49342 0.25535 0.24562 0.0
O111 O 0.38908 0.2822 0.30977 0.0
Mg112 Mg 0.65446 0.88625 0.83912 0.0
O113 O 0.6353 0.94932 0.79201 0.0
O114 O 0.66463 0.02224 0.80846 0.0
Mg115 Mg 0.69966 0.00726 0.86719 0.0
C116 C 0.64198 0.99737 0.78559 0.0
C117 C 0.60697 0.79493 0.81661 0.0
O118 O 0.60261 0.79859 0.85793 0.0
O119 O 0.70935 0.879 0.80795 0.0
O120 O 0.737 0.95046 0.83185 0.0
O121 O 0.6098 0.90637 0.88264 0.0
O122 O 0.66421 0.94218 0.88397 0.0
C123 C 0.73753 0.90696 0.81218 0.0
C124 C 0.63182 0.94033 0.89826 0.0
O125 O 0.6297 0.82434 0.79853 0.0
Mg126 Mg 0.95003 0.23723 0.14009 0.0
O127 O 0.92419 0.31092 0.16783 0.0
O128 O 0.96502 0.3735 0.17424 0.0
Mg129 Mg 0.01867 0.33856 0.15116 0.0
C130 C 0.93287 0.35698 0.17872 0.0
C131 C 0.88397 0.16477 0.1506 0.0
O132 O 0.90816 0.13914 0.17255 0.0
O133 O 0.9555 0.27097 0.07277 0.0
O134 O -0.00013 0.3291 0.08219 0.0
O135 O 0.96561 0.2123 0.20581 0.0
O136 O -0.00015 0.25848 0.16269 0.0
C137 C 0.97788 0.30442 0.05829 0.0
C138 C -0.00445 0.23656 0.19886 0.0
O139 O 0.89333 0.2056 0.13084 0.0
Mg140 Mg 0.32302 0.09183 0.8224 0.0
O141 O 0.34463 0.02884 0.77664 0.0
O142 O 0.31025 0.95875 0.78541 0.0
Mg143 Mg 0.2698 0.97507 0.83899 0.0
C144 C 0.33634 0.98202 0.76724 0.0
C145 C 0.37705 0.17858 0.81112 0.0
O146 O 0.37832 0.17109 0.85235 0.0
O147 O 0.27216 0.10661 0.78388 0.0
O148 O 0.23902 0.03768 0.80205 0.0
O149 O 0.36063 0.06494 0.87248 0.0
O150 O 0.30479 0.03702 0.86371 0.0
C151 C 0.24232 0.08191 0.78418 0.0
C152 C 0.33443 0.0355 0.88476 0.0
O153 O 0.35488 0.1526 0.78877 0.0
Mg154 Mg 0.03126 0.75302 0.15368 0.0
O155 O 0.05709 0.67799 0.17795 0.0
O156 O 0.01575 0.61558 0.18105 0.0
Mg157 Mg 0.96152 0.65235 0.16235 0.0
C158 C 0.0481 0.63125 0.186 0.0
C159 C 0.09514 0.8258 0.16838 0.0
O160 O 0.06991 0.84654 0.19214 0.0
O161 O 0.02569 0.72076 0.08532 0.0
O162 O 0.97852 0.66742 0.09406 0.0
O163 O 0.01688 0.77618 0.2206 0.0
O164 O 0.98239 0.73002 0.1772 0.0
C165 C 0.00096 0.69106 0.07034 0.0
C166 C 0.9876 0.75029 0.21393 0.0
O167 O 0.08747 0.78652 0.14542 0.0
Mg168 Mg 0.65503 0.11218 0.10789 0.0
O169 O 0.63515 0.04679 0.15238 0.0
O170 O 0.66314 0.97415 0.13276 0.0
Mg171 Mg 0.69846 0.99206 0.07484 0.0
C172 C 0.64099 0.99822 0.15675 0.0
C173 C 0.60867 0.20242 0.13315 0.0
O174 O 0.60609 0.20206 0.09152 0.0
O175 O 0.71015 0.1165 0.13897 0.0
O176 O 0.73687 0.04587 0.11217 0.0
O177 O 0.61008 0.09551 0.06368 0.0
O178 O 0.6643 0.05938 0.06047 0.0
C179 C 0.73797 0.08826 0.13341 0.0
C180 C 0.63193 0.06279 0.04625 0.0
O181 O 0.63068 0.17165 0.15093 0.0
Mg182 Mg 0.03814 0.24863 0.79286 0.0
O183 O 0.06112 0.32534 0.76705 0.0
O184 O 0.01808 0.38528 0.76674 0.0
Mg185 Mg 0.96636 0.34628 0.79087 0.0
C186 C 0.05045 0.37148 0.75949 0.0
C187 C 0.10226 0.17773 0.77335 0.0
O188 O 0.07585 0.15539 0.75235 0.0
O189 O 0.03522 0.27835 0.86204 0.0
O190 O 0.98885 0.33389 0.85768 0.0
O191 O 0.01975 0.22635 0.72736 0.0
O192 O 0.98688 0.26856 0.77459 0.0
C193 C 0.0126 0.30965 0.87917 0.0
C194 C 0.9897 0.24847 0.73741 0.0
O195 O 0.09546 0.21734 0.79627 0.0
Mg196 Mg 0.31801 0.88851 0.11439 0.0
O197 O 0.34128 0.95293 0.15779 0.0
O198 O 0.31086 0.02542 0.1444 0.0
Mg199 Mg 0.27031 0.00844 0.09102 0.0
C200 C 0.33535 0.00105 0.16462 0.0
C201 C 0.36942 0.80033 0.13021 0.0
O202 O 0.36984 0.80413 0.0886 0.0
O203 O 0.26644 0.88108 0.15284 0.0
O204 O 0.23716 0.95244 0.13182 0.0
O205 O 0.35693 0.90889 0.06362 0.0
O206 O 0.30206 0.94125 0.07005 0.0
C207 C 0.23828 0.90951 0.152 0.0
C208 C 0.33181 0.93888 0.04938 0.0
O209 O 0.3479 0.82858 0.15145 0.0
Mg210 Mg 0.94824 0.75584 0.80588 0.0
O211 O 0.92601 0.68093 0.77639 0.0
O212 O 0.96936 0.62172 0.77278 0.0
Mg213 Mg 0.02154 0.6615 0.79635 0.0
C214 C 0.93674 0.63539 0.7668 0.0
C215 C 0.88232 0.82666 0.79508 0.0
O216 O 0.90771 0.85414 0.77679 0.0
O217 O 0.95224 0.71969 0.87252 0.0
O218 O 0.00158 0.67052 0.86455 0.0
O219 O 0.96543 0.78456 0.74152 0.0
O220 O -0.00064 0.73936 0.78549 0.0
C221 C 0.97723 0.69092 0.88781 0.0
C222 C -0.00397 0.76301 0.75 0.0
O223 O 0.89058 0.78402 0.81283 0.0
C224 C 0.30229 0.41844 0.29519 0.0
C225 C 0.2724 0.38554 0.30087 0.0
C226 C 0.33713 0.39837 0.29105 0.0
C227 C 0.34356 0.34467 0.29325 0.0
H228 H 0.29889 0.4602 0.29521 0.0
H229 H 0.35934 0.42532 0.28775 0.0
S230 S 0.27451 0.2414 0.30354 0.0
N231 N 0.25144 0.29608 0.30505 0.0
N232 N 0.31702 0.25861 0.29791 0.0
C233 C 0.31387 0.31116 0.29702 0.0
C234 C 0.27827 0.33151 0.30054 0.0
C235 C 0.3363 0.62957 0.62303 0.0
C236 C 0.34166 0.66507 0.65646 0.0
C237 C 0.30311 0.60498 0.61704 0.0
C238 C 0.27362 0.61564 0.6437 0.0
H239 H 0.35789 0.62083 0.60104 0.0
H240 H 0.30022 0.579 0.59008 0.0
S241 S 0.27401 0.70324 0.73748 0.0
N242 N 0.31526 0.70731 0.71833 0.0
N243 N 0.25234 0.66237 0.70599 0.0
C244 C 0.27876 0.65011 0.6779 0.0
C245 C 0.3129 0.67443 0.68458 0.0
C246 C 0.66339 0.67267 0.28468 0.0
C247 C 0.6328 0.64104 0.27983 0.0
C248 C 0.69791 0.65115 0.28692 0.0
C249 C 0.70314 0.59706 0.28523 0.0
H250 H 0.66064 0.7144 0.28752 0.0
H251 H 0.72042 0.67706 0.29251 0.0
S252 S 0.63231 0.49745 0.2689 0.0
N253 N 0.61025 0.55303 0.26999 0.0
N254 N 0.67516 0.5126 0.2753 0.0
C255 C 0.67298 0.56513 0.27847 0.0
C256 C 0.63782 0.5871 0.2755 0.0
C257 C 0.66665 0.31861 0.6534 0.0
C258 C 0.63656 0.34966 0.66268 0.0
C259 C 0.70125 0.34008 0.6511 0.0
C260 C 0.70701 0.39362 0.65722 0.0
H261 H 0.66342 0.27749 0.64713 0.0
H262 H 0.7233 0.31492 0.64205 0.0
S263 S 0.63781 0.49113 0.68594 0.0
N264 N 0.61524 0.43615 0.68127 0.0
N265 N 0.68021 0.47654 0.67591 0.0
C266 C 0.67743 0.42471 0.66833 0.0
C267 C 0.64224 0.40274 0.67132 0.0
C268 C 0.80278 0.9186 0.79554 0.0
C269 C 0.77311 0.88514 0.8005 0.0
C270 C 0.83788 0.8992 0.79253 0.0
C271 C 0.84477 0.84566 0.7952 0.0
H272 H 0.79899 0.96028 0.79529 0.0
H273 H 0.85989 0.92658 0.78974 0.0
S274 S 0.77654 0.74106 0.80392 0.0
N275 N 0.75292 0.79527 0.80449 0.0
N276 N 0.81899 0.7591 0.79947 0.0
C277 C 0.81535 0.81157 0.79823 0.0
C278 C 0.7795 0.83123 0.80059 0.0
C279 C 0.80275 0.07532 0.1522 0.0
C280 C 0.77385 0.10933 0.14474 0.0
C281 C 0.83819 0.09377 0.15524 0.0
C282 C 0.84615 0.14673 0.14977 0.0
H283 H 0.79806 0.03391 0.15459 0.0
H284 H 0.85963 0.06603 0.16033 0.0
S285 S 0.78012 0.25234 0.13196 0.0
N286 N 0.75549 0.19907 0.13432 0.0
N287 N 0.8221 0.23338 0.13896 0.0
C288 C 0.81744 0.18137 0.14361 0.0
C289 C 0.78129 0.16279 0.14147 0.0
C290 C 0.14368 0.10293 0.76114 0.0
C291 C 0.13901 0.15582 0.77091 0.0
C292 C 0.17781 0.07994 0.76218 0.0
C293 C 0.20872 0.10916 0.77219 0.0
H294 H 0.12061 0.07843 0.75455 0.0
H295 H 0.17979 0.03846 0.75691 0.0
S296 S 0.21146 0.25088 0.79431 0.0
N297 N 0.1684 0.23796 0.78677 0.0
N298 N 0.23268 0.19511 0.78812 0.0
C299 C 0.20469 0.16295 0.77896 0.0
C300 C 0.1698 0.18615 0.77862 0.0
C301 C 0.19657 0.83435 0.15796 0.0
C302 C 0.20358 0.88723 0.16576 0.0
C303 C 0.16144 0.81465 0.1594 0.0
C304 C 0.13215 0.8469 0.16949 0.0
H305 H 0.21798 0.80862 0.14789 0.0
H306 H 0.15714 0.77408 0.15174 0.0
S307 S 0.13685 0.98682 0.19762 0.0
N308 N 0.17889 0.97052 0.18725 0.0
N309 N 0.11292 0.93333 0.1911 0.0
C310 C 0.13912 0.89905 0.18017 0.0
C311 C 0.17482 0.91925 0.17804 0.0
C312 C 0.08782 0.51398 0.2428 0.0
C313 C 0.12232 0.53119 0.25493 0.0
C314 C 0.06468 0.54555 0.21885 0.0
C315 C 0.07507 0.59565 0.20571 0.0
H316 H 0.07779 0.47682 0.25363 0.0
H317 H 0.03789 0.53114 0.21204 0.0
S318 S 0.16484 0.65589 0.22363 0.0
N319 N 0.16722 0.59939 0.24801 0.0
N320 N 0.1241 0.65844 0.20286 0.0
C321 C 0.11047 0.61188 0.21521 0.0
C322 C 0.13394 0.57981 0.23983 0.0
C323 C 0.56225 0.74313 0.7184 0.0
C324 C 0.52678 0.73426 0.73196 0.0
C325 C 0.58885 0.75862 0.74692 0.0
C326 C 0.58096 0.76611 0.79012 0.0
H327 H 0.56923 0.74028 0.68504 0.0
H328 H 0.61534 0.7675 0.73453 0.0
S329 S 0.49322 0.74082 0.84259 0.0
N330 N 0.48582 0.72819 0.79181 0.0
N331 N 0.53601 0.75771 0.84608 0.0
C332 C 0.54629 0.75307 0.80482 0.0
C333 C 0.51908 0.73706 0.77551 0.0
C334 C 0.91418 0.44251 0.21118 0.0
C335 C 0.90569 0.39069 0.20052 0.0
C336 C 0.89071 0.47336 0.23553 0.0
C337 C 0.85775 0.45372 0.25071 0.0
H338 H 0.93963 0.45923 0.20153 0.0
H339 H 0.89918 0.51237 0.24378 0.0
S340 S 0.82101 0.32203 0.22895 0.0
N341 N 0.86046 0.3224 0.20498 0.0
N342 N 0.81672 0.38007 0.25065 0.0
C343 C 0.84821 0.40269 0.23887 0.0
C344 C 0.872 0.37136 0.21385 0.0
C345 C 0.42598 0.24401 0.72232 0.0
C346 C 0.46148 0.24608 0.73754 0.0
C347 C 0.39813 0.22603 0.74785 0.0
C348 C 0.40483 0.20935 0.7895 0.0
H349 H 0.41995 0.25371 0.68958 0.0
H350 H 0.37153 0.22241 0.73399 0.0
S351 S 0.4925 0.21383 0.84608 0.0
N352 N 0.50152 0.23563 0.79793 0.0
N353 N 0.44888 0.20147 0.84657 0.0
C354 C 0.43968 0.21561 0.80645 0.0
C355 C 0.46818 0.23412 0.78022 0.0
C356 C 0.1283 0.42125 0.69238 0.0
C357 C 0.12027 0.47421 0.68649 0.0
C358 C 0.10653 0.38915 0.71752 0.0
C359 C 0.07546 0.40828 0.7378 0.0
H360 H 0.15114 0.40381 0.67649 0.0
H361 H 0.1135 0.34843 0.71965 0.0
S362 S 0.0444 0.54534 0.73687 0.0
N363 N 0.08044 0.54528 0.70628 0.0
N364 N 0.03956 0.48495 0.7533 0.0
C365 C 0.06801 0.46171 0.73397 0.0
C366 C 0.09036 0.4946 0.70849 0.0
C367 C 0.39334 0.76181 0.19616 0.0
C368 C 0.39813 0.77251 0.15287 0.0
C369 C 0.42231 0.74746 0.22153 0.0
C370 C 0.45714 0.74315 0.20457 0.0
H371 H 0.36739 0.76737 0.21116 0.0
H372 H 0.41765 0.74217 0.25525 0.0
S373 S 0.48318 0.75947 0.09193 0.0
N374 N 0.43961 0.77199 0.09287 0.0
N375 N 0.49437 0.74471 0.14125 0.0
C376 C 0.4619 0.74905 0.1607 0.0
C377 C 0.43223 0.76383 0.1346 0.0
C378 C 0.85415 0.58731 0.70647 0.0
C379 C 0.8628 0.53578 0.69542 0.0
C380 C 0.87756 0.61817 0.7308 0.0
C381 C 0.91099 0.59922 0.74515 0.0
H382 H 0.82937 0.60472 0.69535 0.0
H383 H 0.86969 0.65789 0.73718 0.0
S384 S 0.94528 0.46517 0.72872 0.0
N385 N 0.90627 0.46586 0.7036 0.0
N386 N 0.95024 0.52384 0.74921 0.0
C387 C 0.91935 0.54697 0.73604 0.0
C388 C 0.89533 0.51531 0.71133 0.0
C389 C 0.58625 0.23051 0.20353 0.0
C390 C 0.58094 0.22778 0.15942 0.0
C391 C 0.55791 0.24221 0.23077 0.0
C392 C 0.52315 0.25183 0.215 0.0
H393 H 0.61208 0.22087 0.21741 0.0
H394 H 0.56306 0.24168 0.26468 0.0
S395 S 0.49611 0.25726 0.10179 0.0
N396 N 0.53917 0.2416 0.10069 0.0
N397 N 0.48567 0.26387 0.15253 0.0
C398 C 0.51798 0.25369 0.17089 0.0
C399 C 0.547 0.24163 0.14289 0.0
C400 C 0.62978 0.07887 0.74451 0.0
C401 C 0.62034 0.02716 0.75389 0.0
C402 C 0.60747 0.11072 0.71985 0.0
C403 C 0.57443 0.09258 0.70355 0.0
H404 H 0.6542 0.0957 0.75742 0.0
H405 H 0.61567 0.15062 0.71504 0.0
S406 S 0.53874 0.95839 0.71463 0.0
N407 N 0.57684 0.95792 0.74163 0.0
N408 N 0.5349 0.01771 0.69549 0.0
C409 C 0.56547 0.04008 0.71072 0.0
C410 C 0.58838 0.00745 0.73573 0.0
C411 C 0.08574 0.26754 0.24629 0.0
C412 C 0.07819 0.27298 0.2898 0.0
C413 C 0.05901 0.25287 0.21762 0.0
C414 C 0.02373 0.24274 0.2313 0.0
H415 H 0.11206 0.27726 0.23384 0.0
H416 H 0.06578 0.25148 0.18414 0.0
S417 S -0.00889 0.24379 0.34246 0.0
N418 N 0.03377 0.26133 0.34595 0.0
N419 N 0.98337 0.23334 0.29143 0.0
C420 C 0.01638 0.24362 0.27499 0.0
C421 C 0.04372 0.25883 0.30445 0.0
C422 C 0.39659 0.96577 0.73347 0.0
C423 C 0.3602 0.95165 0.73828 0.0
C424 C 0.42097 0.9337 0.71161 0.0
C425 C 0.41004 0.88611 0.69338 0.0
H426 H 0.4068 0.00084 0.74832 0.0
H427 H 0.44888 0.94563 0.71034 0.0
S428 S 0.31637 0.83528 0.69117 0.0
N429 N 0.31363 0.88954 0.719 0.0
N430 N 0.35908 0.8296 0.6777 0.0
C431 C 0.37321 0.87311 0.69578 0.0
C432 C 0.34844 0.90568 0.71824 0.0
C433 C 0.92139 0.67343 0.27489 0.0
C434 C 0.89691 0.71163 0.28812 0.0
C435 C 0.9534 0.68708 0.25502 0.0
C436 C 0.96173 0.73924 0.24739 0.0
H437 H 0.9152 0.63257 0.27871 0.0
H438 H 0.97071 0.65648 0.24321 0.0
S439 S 0.90851 0.85386 0.28025 0.0
N440 N 0.88458 0.80362 0.29662 0.0
N441 N 0.9449 0.82953 0.25753 0.0
C442 C 0.93886 0.77802 0.26319 0.0
C443 C 0.90625 0.76407 0.28404 0.0
C444 C 0.62761 0.91468 0.1946 0.0
C445 C 0.61914 0.96727 0.18752 0.0
C446 C 0.60517 0.88237 0.2187 0.0
C447 C 0.57295 0.90087 0.23674 0.0
H448 H 0.65137 0.89765 0.18038 0.0
H449 H 0.61261 0.84192 0.22178 0.0
S450 S 0.54004 0.03693 0.23194 0.0
N451 N 0.57746 0.03743 0.20375 0.0
N452 N 0.53532 0.97674 0.24889 0.0
C453 C 0.56496 0.95403 0.23178 0.0
C454 C 0.588 0.98714 0.20734 0.0
C455 C 0.89617 0.27459 0.69803 0.0
C456 C 0.90087 0.2801 0.65401 0.0
C457 C 0.92497 0.2618 0.72427 0.0
C458 C 0.95954 0.25365 0.70753 0.0
H459 H 0.87046 0.28289 0.71275 0.0
H460 H 0.92029 0.26017 0.75823 0.0
S461 S 0.98514 0.25571 0.59383 0.0
N462 N 0.94195 0.27069 0.59411 0.0
N463 N -0.00371 0.24615 0.64402 0.0
C464 C 0.96414 0.25462 0.66332 0.0
C465 C 0.93468 0.26792 0.63635 0.0
C466 C 0.37421 0.11414 0.2284 0.0
C467 C 0.40711 0.09479 0.24398 0.0
C468 C 0.35084 0.08307 0.20416 0.0
C469 C 0.35902 0.03096 0.19445 0.0
H470 H 0.36678 0.15426 0.23374 0.0
H471 H 0.32643 0.1007 0.19214 0.0
S472 S 0.44007 0.95945 0.2312 0.0
N473 N 0.44538 0.01862 0.25054 0.0
N474 N 0.40152 0.96031 0.20512 0.0
C475 C 0.39107 0.01025 0.21149 0.0
C476 C 0.41502 0.0421 0.23611 0.0
C477 C 0.0473 0.74582 0.64758 0.0
C478 C 0.08238 0.7363 0.66267 0.0
C479 C 0.01936 0.75816 0.67572 0.0
C480 C 0.0259 0.76123 0.71958 0.0
H481 H 0.04074 0.7401 0.61432 0.0
H482 H -0.00775 0.76177 0.66344 0.0
S483 S 0.11443 0.75145 0.77361 0.0
N484 N 0.12312 0.73934 0.72311 0.0
N485 N 0.07077 0.76265 0.77599 0.0
C486 C 0.06146 0.75689 0.7344 0.0
C487 C 0.08975 0.74442 0.7059 0.0
C488 C 0.11547 0.48872 0.51088 0.0
C489 C 0.12107 0.54236 0.50764 0.0
C490 C 0.11529 0.45752 0.47441 0.0
C491 C 0.12172 0.47934 0.43431 0.0
H492 H 0.11348 0.47054 0.5418 0.0
H493 H 0.11313 0.41581 0.47795 0.0
S494 S 0.13458 0.61829 0.40935 0.0
N495 N 0.12998 0.61665 0.46157 0.0
N496 N 0.13072 0.55755 0.39291 0.0
C497 C 0.12513 0.53321 0.43056 0.0
C498 C 0.12456 0.565 0.46747 0.0
C499 C 0.52865 0.80564 0.45043 0.0
C500 C 0.49971 0.80207 0.42196 0.0
C501 C 0.52281 0.80475 0.49448 0.0
C502 C 0.48794 0.79877 0.51157 0.0
H503 H 0.55589 0.80931 0.43861 0.0
H504 H 0.54599 0.80724 0.51531 0.0
S505 S 0.40323 0.78623 0.45029 0.0
N506 N 0.43485 0.79204 0.41381 0.0
N507 N 0.42426 0.78897 0.49649 0.0
C508 C 0.45885 0.79484 0.4834 0.0
C509 C 0.46465 0.79688 0.43864 0.0
C510 C 0.85777 0.47831 0.43498 0.0
C511 C 0.8485 0.53087 0.43268 0.0
C512 C 0.85894 0.45327 0.47433 0.0
C513 C 0.84992 0.4801 0.51181 0.0
H514 H 0.86248 0.45608 0.40622 0.0
H515 H 0.86432 0.41195 0.47509 0.0
S516 S 0.82738 0.61937 0.52212 0.0
N517 N 0.83332 0.61011 0.4706 0.0
N518 N 0.83468 0.56254 0.54469 0.0
C519 C 0.84256 0.53327 0.50994 0.0
C520 C 0.84201 0.55888 0.47012 0.0
C521 C 0.48547 0.23393 0.45372 0.0
C522 C 0.48 0.18689 0.43182 0.0
C523 C 0.49737 0.23448 0.49603 0.0
C524 C 0.50352 0.188 0.51811 0.0
H525 H 0.48155 0.27063 0.43765 0.0
H526 H 0.50065 0.27154 0.51198 0.0
S527 S 0.49279 0.05471 0.47524 0.0
N528 N 0.48231 0.0928 0.43493 0.0
N529 N 0.50269 0.09379 0.51537 0.0
C530 C 0.49775 0.14074 0.49675 0.0
C531 C 0.48657 0.1402 0.45333 0.0
C532 C 0.61748 0.97978 0.01096 0.0
C533 C 0.62176 0.03372 0.00853 0.0
C534 C 0.61692 0.94964 -0.02607 0.0
C535 C 0.62167 0.9729 0.93405 0.0
H536 H 0.61672 0.96067 0.04158 0.0
H537 H 0.61581 0.90776 -0.02328 0.0
S538 S 0.63088 0.11299 0.91131 0.0
N539 N 0.62769 0.1097 0.96362 0.0
N540 N 0.62793 0.05257 0.89384 0.0
C541 C 0.62383 0.02697 0.9312 0.0
C542 C 0.62357 0.05766 0.96871 0.0
C543 C 0.00243 0.26251 0.94682 0.0
C544 C 0.00779 0.3099 0.92571 0.0
C545 C -0.00942 0.26124 -0.01087 0.0
C546 C 0.98438 0.30732 0.01209 0.0
H547 H 0.00615 0.22611 0.93004 0.0
H548 H 0.98715 0.22389 0.00433 0.0
S549 S -0.00486 0.44132 0.97158 0.0
N550 N 0.0056 0.40393 0.93064 0.0
N551 N 0.98531 0.40155 0.011 0.0
C552 C -0.0097 0.35491 -0.00839 0.0
C553 C 0.00143 0.35621 0.94819 0.0
C554 C 0.30321 0.99488 0.945 0.0
C555 C 0.33588 0.00734 0.92514 0.0
C556 C 0.30255 0.97416 -0.01435 0.0
C557 C 0.33454 0.96404 0.00783 0.0
H558 H 0.27767 0.00254 0.92963 0.0
H559 H 0.27657 0.96537 -0.00051 0.0
S560 S 0.42733 0.98744 0.96938 0.0
N561 N 0.40123 0.00736 0.93015 0.0
N562 N 0.39995 0.96637 0.00689 0.0
C563 C 0.36756 0.975 -0.01183 0.0
C564 C 0.36824 0.99719 0.94671 0.0
C565 C 0.01718 0.68465 0.95143 0.0
C566 C 0.98203 0.68729 0.93443 0.0
C567 C 0.02335 0.686 -0.0046 0.0
C568 C -0.00545 0.68862 0.02399 0.0
H569 H 0.04032 0.68318 0.93056 0.0
H570 H 0.05077 0.68482 0.00706 0.0
S571 S 0.89746 0.69584 -0.00391 0.0
N572 N 0.91821 0.69287 0.94977 0.0
N573 N 0.9295 0.69388 0.03246 0.0
C574 C 0.95923 0.69036 0.0075 0.0
C575 C 0.95304 0.69012 0.96273 0.0
loop_
_geom_bond_atom_site_label_1
_geom_bond_atom_site_label_2
_geom_bond_distance
_geom_bond_site_symmetry_2
_ccdc_geom_bond_type
Mg0 O1 2.028 . S
Mg0 O7 1.986 . S
Mg0 O9 2.114 . S
Mg0 O10 2.251 . S
Mg0 O13 2.010 . S
O1 Mg0 2.028 . S
O1 C4 1.250 . S
O2 Mg3 2.028 . S
O2 C4 1.248 . S
Mg3 O2 2.028 . S
Mg3 O8 2.032 . S
Mg3 O10 2.079 . S
C4 O1 1.250 . S
C4 O2 1.248 . S
C5 O6 1.264 . S
C5 O13 1.249 . S
O6 C5 1.264 . S
O7 Mg0 1.986 . S
O7 C11 1.246 . S
O8 Mg3 2.032 . S
O8 C11 1.259 . S
O9 Mg0 2.114 . S
O9 C12 1.252 . S
O10 Mg0 2.251 . S
O10 Mg3 2.079 . S
O10 C12 1.273 . S
C11 O7 1.246 . S
C11 O8 1.259 . S
C12 O9 1.252 . S
C12 O10 1.273 . S
O13 Mg0 2.010 . S
O13 C5 1.249 . S
Mg14 O15 2.028 . S
Mg14 O21 1.986 . S
Mg14 O23 2.114 . S
Mg14 O24 2.251 . S
Mg14 O27 2.010 . S
O15 Mg14 2.028 . S
O15 C18 1.250 . S
O16 Mg17 2.028 . S
O16 C18 1.248 . S
Mg17 O16 2.028 . S
Mg17 O22 2.032 . S
Mg17 O24 2.079 . S
C18 O15 1.250 . S
C18 O16 1.248 . S
C19 O20 1.264 . S
C19 O27 1.249 . S
O20 C19 1.264 . S
O21 Mg14 1.986 . S
O21 C25 1.246 . S
O22 Mg17 2.032 . S
O22 C25 1.259 . S
O23 Mg14 2.114 . S
O23 C26 1.252 . S
O24 Mg14 2.251 . S
O24 Mg17 2.079 . S
O24 C26 1.273 . S
C25 O21 1.246 . S
C25 O22 1.259 . S
C26 O23 1.252 . S
C26 O24 1.273 . S
O27 Mg14 2.010 . S
O27 C19 1.249 . S
Mg28 O29 2.028 . S
Mg28 O35 1.986 . S
Mg28 O37 2.114 . S
Mg28 O38 2.251 . S
Mg28 O41 2.010 . S
O29 Mg28 2.028 . S
O29 C32 1.250 . S
O30 Mg31 2.028 . S
O30 C32 1.248 . S
Mg31 O30 2.028 . S
Mg31 O36 2.032 . S
Mg31 O38 2.079 . S
C32 O29 1.250 . S
C32 O30 1.248 . S
C33 O34 1.264 . S
C33 O41 1.249 . S
O34 C33 1.264 . S
O35 Mg28 1.986 . S
O35 C39 1.246 . S
O36 Mg31 2.032 . S
O36 C39 1.259 . S
O37 Mg28 2.114 . S
O37 C40 1.252 . S
O38 Mg28 2.251 . S
O38 Mg31 2.079 . S
O38 C40 1.273 . S
C39 O35 1.246 . S
C39 O36 1.259 . S
C40 O37 1.252 . S
C40 O38 1.273 . S
O41 Mg28 2.010 . S
O41 C33 1.249 . S
Mg42 O43 2.028 . S
Mg42 O49 1.986 . S
Mg42 O51 2.114 . S
Mg42 O52 2.251 . S
Mg42 O55 2.010 . S
O43 Mg42 2.028 . S
O43 C46 1.250 . S
O44 Mg45 2.028 . S
O44 C46 1.248 . S
Mg45 O44 2.028 . S
Mg45 O50 2.032 . S
Mg45 O52 2.079 . S
C46 O43 1.250 . S
C46 O44 1.248 . S
C47 O48 1.264 . S
C47 O55 1.249 . S
O48 C47 1.264 . S
O49 Mg42 1.986 . S
O49 C53 1.246 . S
O50 Mg45 2.032 . S
O50 C53 1.259 . S
O51 Mg42 2.114 . S
O51 C54 1.252 . S
O52 Mg42 2.251 . S
O52 Mg45 2.079 . S
O52 C54 1.273 . S
C53 O49 1.246 . S
C53 O50 1.259 . S
C54 O51 1.252 . S
C54 O52 1.273 . S
O55 Mg42 2.010 . S
O55 C47 1.249 . S
Mg56 O57 2.028 . S
Mg56 O63 1.986 . S
Mg56 O65 2.114 . S
Mg56 O66 2.251 . S
Mg56 O69 2.010 . S
O57 Mg56 2.028 . S
O57 C60 1.250 . S
O58 Mg59 2.028 . S
O58 C60 1.248 . S
Mg59 O58 2.028 . S
Mg59 O64 2.032 . S
Mg59 O66 2.079 . S
C60 O57 1.250 . S
C60 O58 1.248 . S
C61 O62 1.264 . S
C61 O69 1.249 . S
O62 C61 1.264 . S
O63 Mg56 1.986 . S
O63 C67 1.246 . S
O64 Mg59 2.032 . S
O64 C67 1.259 . S
O65 Mg56 2.114 . S
O65 C68 1.252 . S
O66 Mg56 2.251 . S
O66 Mg59 2.079 . S
O66 C68 1.273 . S
C67 O63 1.246 . S
C67 O64 1.259 . S
C68 O65 1.252 . S
C68 O66 1.273 . S
O69 Mg56 2.010 . S
O69 C61 1.249 . S
Mg70 O71 2.028 . S
Mg70 O77 1.986 . S
Mg70 O79 2.114 . S
Mg70 O80 2.251 . S
Mg70 O83 2.010 . S
O71 Mg70 2.028 . S
O71 C74 1.250 . S
O72 Mg73 2.028 . S
O72 C74 1.248 . S
Mg73 O72 2.028 . S
Mg73 O78 2.032 . S
Mg73 O80 2.079 . S
C74 O71 1.250 . S
C74 O72 1.248 . S
C75 O76 1.264 . S
C75 O83 1.249 . S
O76 C75 1.264 . S
O77 Mg70 1.986 . S
O77 C81 1.246 . S
O78 Mg73 2.032 . S
O78 C81 1.259 . S
O79 Mg70 2.114 . S
O79 C82 1.252 . S
O80 Mg70 2.251 . S
O80 Mg73 2.079 . S
O80 C82 1.273 . S
C81 O77 1.246 . S
C81 O78 1.259 . S
C82 O79 1.252 . S
C82 O80 1.273 . S
O83 Mg70 2.010 . S
O83 C75 1.249 . S
Mg84 O85 2.028 . S
Mg84 O91 1.986 . S
Mg84 O93 2.114 . S
Mg84 O94 2.251 . S
Mg84 O97 2.010 . S
O85 Mg84 2.028 . S
O85 C88 1.250 . S
O86 Mg87 2.028 . S
O86 C88 1.248 . S
Mg87 O86 2.028 . S
Mg87 O92 2.032 . S
Mg87 O94 2.079 . S
C88 O85 1.250 . S
C88 O86 1.248 . S
C89 O90 1.264 . S
C89 O97 1.249 . S
O90 C89 1.264 . S
O91 Mg84 1.986 . S
O91 C95 1.246 . S
O92 Mg87 2.032 . S
O92 C95 1.259 . S
O93 Mg84 2.114 . S
O93 C96 1.252 . S
O94 Mg84 2.251 . S
O94 Mg87 2.079 . S
O94 C96 1.273 . S
C95 O91 1.246 . S
C95 O92 1.259 . S
C96 O93 1.252 . S
C96 O94 1.273 . S
O97 Mg84 2.010 . S
O97 C89 1.249 . S
Mg98 O99 2.028 . S
Mg98 O105 1.986 . S
Mg98 O107 2.114 . S
Mg98 O108 2.251 . S
Mg98 O111 2.010 . S
O99 Mg98 2.028 . S
O99 C102 1.250 . S
O100 Mg101 2.028 . S
O100 C102 1.248 . S
Mg101 O100 2.028 . S
Mg101 O106 2.032 . S
Mg101 O108 2.079 . S
C102 O99 1.250 . S
C102 O100 1.248 . S
C103 O104 1.264 . S
C103 O111 1.249 . S
O104 C103 1.264 . S
O105 Mg98 1.986 . S
O105 C109 1.246 . S
O106 Mg101 2.032 . S
O106 C109 1.259 . S
O107 Mg98 2.114 . S
O107 C110 1.252 . S
O108 Mg98 2.251 . S
O108 Mg101 2.079 . S
O108 C110 1.273 . S
C109 O105 1.246 . S
C109 O106 1.259 . S
C110 O107 1.252 . S
C110 O108 1.273 . S
O111 Mg98 2.010 . S
O111 C103 1.249 . S
Mg112 O113 2.028 . S
Mg112 O119 1.986 . S
Mg112 O121 2.114 . S
Mg112 O122 2.251 . S
Mg112 O125 2.010 . S
O113 Mg112 2.028 . S
O113 C116 1.250 1_565 S
O114 Mg115 2.028 . S
O114 C116 1.248 . S
Mg115 O114 2.028 . S
Mg115 O120 2.032 1_545 S
Mg115 O122 2.079 1_545 S
C116 O113 1.250 1_545 S
C116 O114 1.248 . S
C117 O118 1.264 . S
C117 O125 1.249 . S
O118 C117 1.264 . S
O119 Mg112 1.986 . S
O119 C123 1.246 . S
O120 Mg115 2.032 1_565 S
O120 C123 1.259 . S
O121 Mg112 2.114 . S
O121 C124 1.252 . S
O122 Mg112 2.251 . S
O122 Mg115 2.079 1_565 S
O122 C124 1.273 . S
C123 O119 1.246 . S
C123 O120 1.259 . S
C124 O121 1.252 . S
C124 O122 1.273 . S
O125 Mg112 2.010 . S
O125 C117 1.249 . S
Mg126 O127 2.028 . S
Mg126 O133 1.986 . S
Mg126 O135 2.114 . S
Mg126 O136 2.251 . S
Mg126 O139 2.010 . S
O127 Mg126 2.028 . S
O127 C130 1.250 . S
O128 Mg129 2.028 . S
O128 C130 1.248 . S
Mg129 O128 2.028 . S
Mg129 O134 2.032 . S
Mg129 O136 2.079 . S
C130 O127 1.250 . S
C130 O128 1.248 . S
C131 O132 1.264 . S
C131 O139 1.249 . S
O132 C131 1.264 . S
O133 Mg126 1.986 . S
O133 C137 1.246 . S
O134 Mg129 2.032 . S
O134 C137 1.259 . S
O135 Mg126 2.114 . S
O135 C138 1.252 . S
O136 Mg126 2.251 . S
O136 Mg129 2.079 . S
O136 C138 1.273 . S
C137 O133 1.246 . S
C137 O134 1.259 . S
C138 O135 1.252 . S
C138 O136 1.273 . S
O139 Mg126 2.010 . S
O139 C131 1.249 . S
Mg140 O141 2.028 . S
Mg140 O147 1.986 . S
Mg140 O149 2.114 . S
Mg140 O150 2.251 . S
Mg140 O153 2.010 . S
O141 Mg140 2.028 . S
O141 C144 1.250 1_545 S
O142 Mg143 2.028 . S
O142 C144 1.248 . S
Mg143 O142 2.028 . S
Mg143 O148 2.032 1_565 S
Mg143 O150 2.079 1_565 S
C144 O141 1.250 1_565 S
C144 O142 1.248 . S
C145 O146 1.264 . S
C145 O153 1.249 . S
O146 C145 1.264 . S
O147 Mg140 1.986 . S
O147 C151 1.246 . S
O148 Mg143 2.032 1_545 S
O148 C151 1.259 . S
O149 Mg140 2.114 . S
O149 C152 1.252 . S
O150 Mg140 2.251 . S
O150 Mg143 2.079 1_545 S
O150 C152 1.273 . S
C151 O147 1.246 . S
C151 O148 1.259 . S
C152 O149 1.252 . S
C152 O150 1.273 . S
O153 Mg140 2.010 . S
O153 C145 1.249 . S
Mg154 O155 2.028 . S
Mg154 O161 1.986 . S
Mg154 O163 2.114 . S
Mg154 O164 2.251 . S
Mg154 O167 2.010 . S
O155 Mg154 2.028 . S
O155 C158 1.250 . S
O156 Mg157 2.028 . S
O156 C158 1.248 . S
Mg157 O156 2.028 . S
Mg157 O162 2.032 . S
Mg157 O164 2.079 . S
C158 O155 1.250 . S
C158 O156 1.248 . S
C159 O160 1.264 . S
C159 O167 1.249 . S
O160 C159 1.264 . S
O161 Mg154 1.986 . S
O161 C165 1.246 . S
O162 Mg157 2.032 . S
O162 C165 1.259 . S
O163 Mg154 2.114 . S
O163 C166 1.252 . S
O164 Mg154 2.251 . S
O164 Mg157 2.079 . S
O164 C166 1.273 . S
C165 O161 1.246 . S
C165 O162 1.259 . S
C166 O163 1.252 . S
C166 O164 1.273 . S
O167 Mg154 2.010 . S
O167 C159 1.249 . S
Mg168 O169 2.028 . S
Mg168 O175 1.986 . S
Mg168 O177 2.114 . S
Mg168 O178 2.251 . S
Mg168 O181 2.010 . S
O169 Mg168 2.028 . S
O169 C172 1.250 1_545 S
O170 Mg171 2.028 . S
O170 C172 1.248 . S
Mg171 O170 2.028 . S
Mg171 O176 2.032 1_565 S
Mg171 O178 2.079 1_565 S
C172 O169 1.250 1_565 S
C172 O170 1.248 . S
C173 O174 1.264 . S
C173 O181 1.249 . S
O174 C173 1.264 . S
O175 Mg168 1.986 . S
O175 C179 1.246 . S
O176 Mg171 2.032 1_545 S
O176 C179 1.259 . S
O177 Mg168 2.114 . S
O177 C180 1.252 . S
O178 Mg168 2.251 . S
O178 Mg171 2.079 1_545 S
O178 C180 1.273 . S
C179 O175 1.246 . S
C179 O176 1.259 . S
C180 O177 1.252 . S
C180 O178 1.273 . S
O181 Mg168 2.010 . S
O181 C173 1.249 . S
Mg182 O183 2.028 . S
Mg182 O189 1.986 . S
Mg182 O191 2.114 . S
Mg182 O192 2.251 . S
Mg182 O195 2.010 . S
O183 Mg182 2.028 . S
O183 C186 1.250 . S
O184 Mg185 2.028 . S
O184 C186 1.248 . S
Mg185 O184 2.028 . S
Mg185 O190 2.032 . S
Mg185 O192 2.079 . S
C186 O183 1.250 . S
C186 O184 1.248 . S
C187 O188 1.264 . S
C187 O195 1.249 . S
O188 C187 1.264 . S
O189 Mg182 1.986 . S
O189 C193 1.246 . S
O190 Mg185 2.032 . S
O190 C193 1.259 . S
O191 Mg182 2.114 . S
O191 C194 1.252 . S
O192 Mg182 2.251 . S
O192 Mg185 2.079 . S
O192 C194 1.273 . S
C193 O189 1.246 . S
C193 O190 1.259 . S
C194 O191 1.252 . S
C194 O192 1.273 . S
O195 Mg182 2.010 . S
O195 C187 1.249 . S
Mg196 O197 2.028 . S
Mg196 O203 1.986 . S
Mg196 O205 2.114 . S
Mg196 O206 2.251 . S
Mg196 O209 2.010 . S
O197 Mg196 2.028 . S
O197 C200 1.250 1_565 S
O198 Mg199 2.028 . S
O198 C200 1.248 . S
Mg199 O198 2.028 . S
Mg199 O204 2.032 1_545 S
Mg199 O206 2.079 1_545 S
C200 O197 1.250 1_545 S
C200 O198 1.248 . S
C201 O202 1.264 . S
C201 O209 1.249 . S
O202 C201 1.264 . S
O203 Mg196 1.986 . S
O203 C207 1.246 . S
O204 Mg199 2.032 1_565 S
O204 C207 1.259 . S
O205 Mg196 2.114 . S
O205 C208 1.252 . S
O206 Mg196 2.251 . S
O206 Mg199 2.079 1_565 S
O206 C208 1.273 . S
C207 O203 1.246 . S
C207 O204 1.259 . S
C208 O205 1.252 . S
C208 O206 1.273 . S
O209 Mg196 2.010 . S
O209 C201 1.249 . S
Mg210 O211 2.028 . S
Mg210 O217 1.986 . S
Mg210 O219 2.114 . S
Mg210 O220 2.251 . S
Mg210 O223 2.010 . S
O211 Mg210 2.028 . S
O211 C214 1.250 . S
O212 Mg213 2.028 . S
O212 C214 1.248 . S
Mg213 O212 2.028 . S
Mg213 O218 2.032 . S
Mg213 O220 2.079 . S
C214 O211 1.250 . S
C214 O212 1.248 . S
C215 O216 1.264 . S
C215 O223 1.249 . S
O216 C215 1.264 . S
O217 Mg210 1.986 . S
O217 C221 1.246 . S
O218 Mg213 2.032 . S
O218 C221 1.259 . S
O219 Mg210 2.114 . S
O219 C222 1.252 . S
O220 Mg210 2.251 . S
O220 Mg213 2.079 . S
O220 C222 1.273 . S
C221 O217 1.246 . S
C221 O218 1.259 . S
C222 O219 1.252 . S
C222 O220 1.273 . S
O223 Mg210 2.010 . S
O223 C215 1.249 . S
C224 C225 1.369 . S
C224 C226 1.419 . S
C224 H228 0.930 . S
C225 C224 1.369 . S
C225 C234 1.429 . S
C226 C224 1.419 . S
C226 C227 1.363 . S
C226 H229 0.929 . S
C227 C226 1.363 . S
C227 C233 1.428 . S
H228 C224 0.930 . S
H229 C226 0.929 . S
S230 N231 1.613 . S
S230 N232 1.610 . S
N231 S230 1.613 . S
N231 C234 1.350 . S
N232 S230 1.610 . S
N232 C233 1.351 . S
C233 C227 1.428 . S
C233 N232 1.351 . S
C233 C234 1.434 . S
C234 C225 1.429 . S
C234 N231 1.350 . S
C234 C233 1.434 . S
C235 C236 1.369 . S
C235 C237 1.419 . S
C235 H239 0.930 . S
C236 C235 1.369 . S
C236 C245 1.429 . S
C237 C235 1.419 . S
C237 C238 1.363 . S
C237 H240 0.929 . S
C238 C237 1.363 . S
C238 C244 1.428 . S
H239 C235 0.930 . S
H240 C237 0.929 . S
S241 N242 1.613 . S
S241 N243 1.610 . S
N242 S241 1.613 . S
N242 C245 1.350 . S
N243 S241 1.610 . S
N243 C244 1.351 . S
C244 C238 1.428 . S
C244 N243 1.351 . S
C244 C245 1.434 . S
C245 C236 1.429 . S
C245 N242 1.350 . S
C245 C244 1.434 . S
C246 C247 1.369 . S
C246 C248 1.419 . S
C246 H250 0.930 . S
C247 C246 1.369 . S
C247 C256 1.429 . S
C248 C246 1.419 . S
C248 C249 1.363 . S
C248 H251 0.929 . S
C249 C248 1.363 . S
C249 C255 1.428 . S
H250 C246 0.930 . S
H251 C248 0.929 . S
S252 N253 1.613 . S
S252 N254 1.610 . S
N253 S252 1.613 . S
N253 C256 1.350 . S
N254 S252 1.610 . S
N254 C255 1.351 . S
C255 C249 1.428 . S
C255 N254 1.351 . S
C255 C256 1.434 . S
C256 C247 1.429 . S
C256 N253 1.350 . S
C256 C255 1.434 . S
C257 C258 1.369 . S
C257 C259 1.419 . S
C257 H261 0.930 . S
C258 C257 1.369 . S
C258 C267 1.429 . S
C259 C257 1.419 . S
C259 C260 1.363 . S
C259 H262 0.929 . S
C260 C259 1.363 . S
C260 C266 1.428 . S
H261 C257 0.930 . S
H262 C259 0.929 . S
S263 N264 1.613 . S
S263 N265 1.610 . S
N264 S263 1.613 . S
N264 C267 1.350 . S
N265 S263 1.610 . S
N265 C266 1.351 . S
C266 C260 1.428 . S
C266 N265 1.351 . S
C266 C267 1.434 . S
C267 C258 1.429 . S
C267 N264 1.350 . S
C267 C266 1.434 . S
C268 C269 1.369 . S
C268 C270 1.419 . S
C268 H272 0.930 . S
C269 C268 1.369 . S
C269 C278 1.429 . S
C270 C268 1.419 . S
C270 C271 1.363 . S
C270 H273 0.929 . S
C271 C270 1.363 . S
C271 C277 1.428 . S
H272 C268 0.930 . S
H273 C270 0.929 . S
S274 N275 1.613 . S
S274 N276 1.610 . S
N275 S274 1.613 . S
N275 C278 1.350 . S
N276 S274 1.610 . S
N276 C277 1.351 . S
C277 C271 1.428 . S
C277 N276 1.351 . S
C277 C278 1.434 . S
C278 C269 1.429 . S
C278 N275 1.350 . S
C278 C277 1.434 . S
C279 C280 1.369 . S
C279 C281 1.419 . S
C279 H283 0.930 . S
C280 C279 1.369 . S
C280 C289 1.429 . S
C281 C279 1.419 . S
C281 C282 1.363 . S
C281 H284 0.929 . S
C282 C281 1.363 . S
C282 C288 1.428 . S
H283 C279 0.930 . S
H284 C281 0.929 . S
S285 N286 1.613 . S
S285 N287 1.610 . S
N286 S285 1.613 . S
N286 C289 1.350 . S
N287 S285 1.610 . S
N287 C288 1.351 . S
C288 C282 1.428 . S
C288 N287 1.351 . S
C288 C289 1.434 . S
C289 C280 1.429 . S
C289 N286 1.350 . S
C289 C288 1.434 . S
C290 C291 1.369 . S
C290 C292 1.419 . S
C290 H294 0.930 . S
C291 C290 1.369 . S
C291 C300 1.429 . S
C292 C290 1.419 . S
C292 C293 1.363 . S
C292 H295 0.929 . S
C293 C292 1.363 . S
C293 C299 1.428 . S
H294 C290 0.930 . S
H295 C292 0.929 . S
S296 N297 1.613 . S
S296 N298 1.610 . S
N297 S296 1.613 . S
N297 C300 1.350 . S
N298 S296 1.610 . S
N298 C299 1.351 . S
C299 C293 1.428 . S
C299 N298 1.351 . S
C299 C300 1.434 . S
C300 C291 1.429 . S
C300 N297 1.350 . S
C300 C299 1.434 . S
C301 C302 1.369 . S
C301 C303 1.419 . S
C301 H305 0.930 . S
C302 C301 1.369 . S
C302 C311 1.429 . S
C303 C301 1.419 . S
C303 C304 1.363 . S
C303 H306 0.929 . S
C304 C303 1.363 . S
C304 C310 1.428 . S
H305 C301 0.930 . S
H306 C303 0.929 . S
S307 N308 1.613 1_545 S
S307 N309 1.610 1_545 S
N308 S307 1.613 1_565 S
N308 C311 1.350 . S
N309 S307 1.610 1_565 S
N309 C310 1.351 . S
C310 C304 1.428 . S
C310 N309 1.351 . S
C310 C311 1.434 . S
C311 C302 1.429 . S
C311 N308 1.350 . S
C311 C310 1.434 . S
C312 C313 1.369 . S
C312 C314 1.419 . S
C312 H316 0.930 . S
C313 C312 1.369 . S
C313 C322 1.429 . S
C314 C312 1.419 . S
C314 C315 1.363 . S
C314 H317 0.929 . S
C315 C314 1.363 . S
C315 C321 1.428 . S
H316 C312 0.930 . S
H317 C314 0.929 . S
S318 N319 1.613 . S
S318 N320 1.610 . S
N319 S318 1.613 . S
N319 C322 1.350 . S
N320 S318 1.610 . S
N320 C321 1.351 . S
C321 C315 1.428 . S
C321 N320 1.351 . S
C321 C322 1.434 . S
C322 C313 1.429 . S
C322 N319 1.350 . S
C322 C321 1.434 . S
C323 C324 1.369 . S
C323 C325 1.419 . S
C323 H327 0.930 . S
C324 C323 1.369 . S
C324 C333 1.429 . S
C325 C323 1.419 . S
C325 C326 1.363 . S
C325 H328 0.929 . S
C326 C325 1.363 . S
C326 C332 1.428 . S
H327 C323 0.930 . S
H328 C325 0.929 . S
S329 N330 1.613 . S
S329 N331 1.610 . S
N330 S329 1.613 . S
N330 C333 1.350 . S
N331 S329 1.610 . S
N331 C332 1.351 . S
C332 C326 1.428 . S
C332 N331 1.351 . S
C332 C333 1.434 . S
C333 C324 1.429 . S
C333 N330 1.350 . S
C333 C332 1.434 . S
C334 C335 1.369 . S
C334 C336 1.419 . S
C334 H338 0.930 . S
C335 C334 1.369 . S
C335 C344 1.429 . S
C336 C334 1.419 . S
C336 C337 1.363 . S
C336 H339 0.929 . S
C337 C336 1.363 . S
C337 C343 1.428 . S
H338 C334 0.930 . S
H339 C336 0.929 . S
S340 N341 1.613 . S
S340 N342 1.610 . S
N341 S340 1.613 . S
N341 C344 1.350 . S
N342 S340 1.610 . S
N342 C343 1.351 . S
C343 C337 1.428 . S
C343 N342 1.351 . S
C343 C344 1.434 . S
C344 C335 1.429 . S
C344 N341 1.350 . S
C344 C343 1.434 . S
C345 C346 1.369 . S
C345 C347 1.419 . S
C345 H349 0.930 . S
C346 C345 1.369 . S
C346 C355 1.429 . S
C347 C345 1.419 . S
C347 C348 1.363 . S
C347 H350 0.929 . S
C348 C347 1.363 . S
C348 C354 1.428 . S
H349 C345 0.930 . S
H350 C347 0.929 . S
S351 N352 1.613 . S
S351 N353 1.610 . S
N352 S351 1.613 . S
N352 C355 1.350 . S
N353 S351 1.610 . S
N353 C354 1.351 . S
C354 C348 1.428 . S
C354 N353 1.351 . S
C354 C355 1.434 . S
C355 C346 1.429 . S
C355 N352 1.350 . S
C355 C354 1.434 . S
C356 C357 1.369 . S
C356 C358 1.419 . S
C356 H360 0.930 . S
C357 C356 1.369 . S
C357 C366 1.429 . S
C358 C356 1.419 . S
C358 C359 1.363 . S
C358 H361 0.929 . S
C359 C358 1.363 . S
C359 C365 1.428 . S
H360 C356 0.930 . S
H361 C358 0.929 . S
S362 N363 1.613 . S
S362 N364 1.610 . S
N363 S362 1.613 . S
N363 C366 1.350 . S
N364 S362 1.610 . S
N364 C365 1.351 . S
C365 C359 1.428 . S
C365 N364 1.351 . S
C365 C366 1.434 . S
C366 C357 1.429 . S
C366 N363 1.350 . S
C366 C365 1.434 . S
C367 C368 1.369 . S
C367 C369 1.419 . S
C367 H371 0.930 . S
C368 C367 1.369 . S
C368 C377 1.429 . S
C369 C367 1.419 . S
C369 C370 1.363 . S
C369 H372 0.929 . S
C370 C369 1.363 . S
C370 C376 1.428 . S
H371 C367 0.930 . S
H372 C369 0.929 . S
S373 N374 1.613 . S
S373 N375 1.610 . S
N374 S373 1.613 . S
N374 C377 1.350 . S
N375 S373 1.610 . S
N375 C376 1.351 . S
C376 C370 1.428 . S
C376 N375 1.351 . S
C376 C377 1.434 . S
C377 C368 1.429 . S
C377 N374 1.350 . S
C377 C376 1.434 . S
C378 C379 1.369 . S
C378 C380 1.419 . S
C378 H382 0.930 . S
C379 C378 1.369 . S
C379 C388 1.429 . S
C380 C378 1.419 . S
C380 C381 1.363 . S
C380 H383 0.929 . S
C381 C380 1.363 . S
C381 C387 1.428 . S
H382 C378 0.930 . S
H383 C380 0.929 . S
S384 N385 1.613 . S
S384 N386 1.610 . S
N385 S384 1.613 . S
N385 C388 1.350 . S
N386 S384 1.610 . S
N386 C387 1.351 . S
C387 C381 1.428 . S
C387 N386 1.351 . S
C387 C388 1.434 . S
C388 C379 1.429 . S
C388 N385 1.350 . S
C388 C387 1.434 . S
C389 C390 1.369 . S
C389 C391 1.419 . S
C389 H393 0.930 . S
C390 C389 1.369 . S
C390 C399 1.429 . S
C391 C389 1.419 . S
C391 C392 1.363 . S
C391 H394 0.929 . S
C392 C391 1.363 . S
C392 C398 1.428 . S
H393 C389 0.930 . S
H394 C391 0.929 . S
S395 N396 1.613 . S
S395 N397 1.610 . S
N396 S395 1.613 . S
N396 C399 1.350 . S
N397 S395 1.610 . S
N397 C398 1.351 . S
C398 C392 1.428 . S
C398 N397 1.351 . S
C398 C399 1.434 . S
C399 C390 1.429 . S
C399 N396 1.350 . S
C399 C398 1.434 . S
C400 C401 1.369 . S
C400 C402 1.419 . S
C400 H404 0.930 . S
C401 C400 1.369 . S
C401 C410 1.429 . S
C402 C400 1.419 . S
C402 C403 1.363 . S
C402 H405 0.929 . S
C403 C402 1.363 . S
C403 C409 1.428 . S
H404 C400 0.930 . S
H405 C402 0.929 . S
S406 N407 1.613 . S
S406 N408 1.610 . S
N407 S406 1.613 . S
N407 C410 1.350 . S
N408 S406 1.610 . S
N408 C409 1.351 . S
C409 C403 1.428 . S
C409 N408 1.351 . S
C409 C410 1.434 . S
C410 C401 1.429 . S
C410 N407 1.350 . S
C410 C409 1.434 . S
C411 C412 1.369 . S
C411 C413 1.419 . S
C411 H415 0.930 . S
C412 C411 1.369 . S
C412 C421 1.429 . S
C413 C411 1.419 . S
C413 C414 1.363 . S
C413 H416 0.929 . S
C414 C413 1.363 . S
C414 C420 1.428 . S
H415 C411 0.930 . S
H416 C413 0.929 . S
S417 N418 1.613 1_655 S
S417 N419 1.610 . S
N418 S417 1.613 1_455 S
N418 C421 1.350 . S
N419 S417 1.610 . S
N419 C420 1.351 1_655 S
C420 C414 1.428 . S
C420 N419 1.351 1_455 S
C420 C421 1.434 . S
C421 C412 1.429 . S
C421 N418 1.350 . S
C421 C420 1.434 . S
C422 C423 1.369 . S
C422 C424 1.419 . S
C422 H426 0.930 . S
C423 C422 1.369 . S
C423 C432 1.429 . S
C424 C422 1.419 . S
C424 C425 1.363 . S
C424 H427 0.929 . S
C425 C424 1.363 . S
C425 C431 1.428 . S
H426 C422 0.930 . S
H427 C424 0.929 . S
S428 N429 1.613 . S
S428 N430 1.610 . S
N429 S428 1.613 . S
N429 C432 1.350 . S
N430 S428 1.610 . S
N430 C431 1.351 . S
C431 C425 1.428 . S
C431 N430 1.351 . S
C431 C432 1.434 . S
C432 C423 1.429 . S
C432 N429 1.350 . S
C432 C431 1.434 . S
C433 C434 1.369 . S
C433 C435 1.419 . S
C433 H437 0.930 . S
C434 C433 1.369 . S
C434 C443 1.429 . S
C435 C433 1.419 . S
C435 C436 1.363 . S
C435 H438 0.929 1_655 S
C436 C435 1.363 . S
C436 C442 1.428 . S
H437 C433 0.930 . S
H438 C435 0.929 1_455 S
S439 N440 1.613 . S
S439 N441 1.610 . S
N440 S439 1.613 . S
N440 C443 1.350 . S
N441 S439 1.610 . S
N441 C442 1.351 . S
C442 C436 1.428 . S
C442 N441 1.351 . S
C442 C443 1.434 . S
C443 C434 1.429 . S
C443 N440 1.350 . S
C443 C442 1.434 . S
C444 C445 1.369 . S
C444 C446 1.419 . S
C444 H448 0.930 . S
C445 C444 1.369 . S
C445 C454 1.429 . S
C446 C444 1.419 . S
C446 C447 1.363 . S
C446 H449 0.929 . S
C447 C446 1.363 . S
C447 C453 1.428 . S
H448 C444 0.930 . S
H449 C446 0.929 . S
S450 N451 1.613 . S
S450 N452 1.610 . S
N451 S450 1.613 . S
N451 C454 1.350 . S
N452 S450 1.610 . S
N452 C453 1.351 . S
C453 C447 1.428 . S
C453 N452 1.351 . S
C453 C454 1.434 . S
C454 C445 1.429 . S
C454 N451 1.350 . S
C454 C453 1.434 . S
C455 C456 1.369 . S
C455 C457 1.419 . S
C455 H459 0.930 . S
C456 C455 1.369 . S
C456 C465 1.429 . S
C457 C455 1.419 . S
C457 C458 1.363 . S
C457 H460 0.929 . S
C458 C457 1.363 . S
C458 C464 1.428 . S
H459 C455 0.930 . S
H460 C457 0.929 . S
S461 N462 1.613 1_455 S
S461 N463 1.610 . S
N462 S461 1.613 1_655 S
N462 C465 1.350 . S
N463 S461 1.610 . S
N463 C464 1.351 1_455 S
C464 C458 1.428 . S
C464 N463 1.351 1_655 S
C464 C465 1.434 . S
C465 C456 1.429 . S
C465 N462 1.350 . S
C465 C464 1.434 . S
C466 C467 1.369 . S
C466 C468 1.419 . S
C466 H470 0.930 . S
C467 C466 1.369 . S
C467 C476 1.429 . S
C468 C466 1.419 . S
C468 C469 1.363 . S
C468 H471 0.929 . S
C469 C468 1.363 . S
C469 C475 1.428 . S
H470 C466 0.930 . S
H471 C468 0.929 . S
S472 N473 1.613 . S
S472 N474 1.610 . S
N473 S472 1.613 . S
N473 C476 1.350 . S
N474 S472 1.610 . S
N474 C475 1.351 . S
C475 C469 1.428 . S
C475 N474 1.351 . S
C475 C476 1.434 . S
C476 C467 1.429 . S
C476 N473 1.350 . S
C476 C475 1.434 . S
C477 C478 1.369 . S
C477 C479 1.419 . S
C477 H481 0.930 . S
C478 C477 1.369 . S
C478 C487 1.429 . S
C479 C477 1.419 . S
C479 C480 1.363 . S
C479 H482 0.929 1_455 S
C480 C479 1.363 . S
C480 C486 1.428 . S
H481 C477 0.930 . S
H482 C479 0.929 1_655 S
S483 N484 1.613 . S
S483 N485 1.610 . S
N484 S483 1.613 . S
N484 C487 1.350 . S
N485 S483 1.610 . S
N485 C486 1.351 . S
C486 C480 1.428 . S
C486 N485 1.351 . S
C486 C487 1.434 . S
C487 C478 1.429 . S
C487 N484 1.350 . S
C487 C486 1.434 . S
C488 C489 1.369 . S
C488 C490 1.419 . S
C488 H492 0.930 . S
C489 C488 1.369 . S
C489 C498 1.429 . S
C490 C488 1.419 . S
C490 C491 1.363 . S
C490 H493 0.929 . S
C491 C490 1.363 . S
C491 C497 1.428 . S
H492 C488 0.930 . S
H493 C490 0.929 . S
S494 N495 1.613 . S
S494 N496 1.610 . S
N495 S494 1.613 . S
N495 C498 1.350 . S
N496 S494 1.610 . S
N496 C497 1.351 . S
C497 C491 1.428 . S
C497 N496 1.351 . S
C497 C498 1.434 . S
C498 C489 1.429 . S
C498 N495 1.350 . S
C498 C497 1.434 . S
C499 C500 1.369 . S
C499 C501 1.419 . S
C499 H503 0.930 . S
C500 C499 1.369 . S
C500 C509 1.429 . S
C501 C499 1.419 . S
C501 C502 1.363 . S
C501 H504 0.929 . S
C502 C501 1.363 . S
C502 C508 1.428 . S
H503 C499 0.930 . S
H504 C501 0.929 . S
S505 N506 1.613 . S
S505 N507 1.610 . S
N506 S505 1.613 . S
N506 C509 1.350 . S
N507 S505 1.610 . S
N507 C508 1.351 . S
C508 C502 1.428 . S
C508 N507 1.351 . S
C508 C509 1.434 . S
C509 C500 1.429 . S
C509 N506 1.350 . S
C509 C508 1.434 . S
C510 C511 1.369 . S
C510 C512 1.419 . S
C510 H514 0.930 . S
C511 C510 1.369 . S
C511 C520 1.429 . S
C512 C510 1.419 . S
C512 C513 1.363 . S
C512 H515 0.929 . S
C513 C512 1.363 . S
C513 C519 1.428 . S
H514 C510 0.930 . S
H515 C512 0.929 . S
S516 N517 1.613 . S
S516 N518 1.610 . S
N517 S516 1.613 . S
N517 C520 1.350 . S
N518 S516 1.610 . S
N518 C519 1.351 . S
C519 C513 1.428 . S
C519 N518 1.351 . S
C519 C520 1.434 . S
C520 C511 1.429 . S
C520 N517 1.350 . S
C520 C519 1.434 . S
C521 C522 1.369 . S
C521 C523 1.419 . S
C521 H525 0.930 . S
C522 C521 1.369 . S
C522 C531 1.429 . S
C523 C521 1.419 . S
C523 C524 1.363 . S
C523 H526 0.929 . S
C524 C523 1.363 . S
C524 C530 1.428 . S
H525 C521 0.930 . S
H526 C523 0.929 . S
S527 N528 1.613 . S
S527 N529 1.610 . S
N528 S527 1.613 . S
N528 C531 1.350 . S
N529 S527 1.610 . S
N529 C530 1.351 . S
C530 C524 1.428 . S
C530 N529 1.351 . S
C530 C531 1.434 . S
C531 C522 1.429 . S
C531 N528 1.350 . S
C531 C530 1.434 . S
C532 C533 1.369 1_565 S
C532 C534 1.419 1_554 S
C532 H536 0.930 . S
C533 C532 1.369 1_545 S
C533 C542 1.429 . S
C534 C532 1.419 1_556 S
C534 C535 1.363 . S
C534 H537 0.929 . S
C535 C534 1.363 . S
C535 C541 1.428 1_565 S
H536 C532 0.930 . S
H537 C534 0.929 . S
S538 N539 1.613 1_556 S
S538 N540 1.610 . S
N539 S538 1.613 1_554 S
N539 C542 1.350 . S
N540 S538 1.610 . S
N540 C541 1.351 . S
C541 C535 1.428 1_545 S
C541 N540 1.351 . S
C541 C542 1.434 1_556 S
C542 C533 1.429 . S
C542 N539 1.350 . S
C542 C541 1.434 1_554 S
C543 C544 1.369 . S
C543 C545 1.419 1_556 S
C543 H547 0.930 . S
C544 C543 1.369 . S
C544 C553 1.429 1_455 S
C545 C543 1.419 1_554 S
C545 C546 1.363 1_455 S
C545 H548 0.929 . S
C546 C545 1.363 1_655 S
C546 C552 1.428 . S
H547 C543 0.930 . S
H548 C545 0.929 . S
S549 N550 1.613 . S
S549 N551 1.610 1_556 S
N550 S549 1.613 . S
N550 C553 1.350 . S
N551 S549 1.610 1_554 S
N551 C552 1.351 . S
C552 C546 1.428 . S
C552 N551 1.351 . S
C552 C553 1.434 1_554 S
C553 C544 1.429 1_655 S
C553 N550 1.350 . S
C553 C552 1.434 1_556 S
C554 C555 1.369 . S
C554 C556 1.419 1_556 S
C554 H558 0.930 . S
C555 C554 1.369 . S
C555 C564 1.429 1_545 S
C556 C554 1.419 1_554 S
C556 C557 1.363 1_545 S
C556 H559 0.929 . S
C557 C556 1.363 1_565 S
C557 C563 1.428 . S
H558 C554 0.930 . S
H559 C556 0.929 . S
S560 N561 1.613 . S
S560 N562 1.610 1_556 S
N561 S560 1.613 . S
N561 C564 1.350 . S
N562 S560 1.610 1_554 S
N562 C563 1.351 . S
C563 C557 1.428 . S
C563 N562 1.351 . S
C563 C564 1.434 1_554 S
C564 C555 1.429 1_565 S
C564 N561 1.350 . S
C564 C563 1.434 1_556 S
C565 C566 1.369 1_455 S
C565 C567 1.419 1_556 S
C565 H569 0.930 . S
C566 C565 1.369 1_655 S
C566 C575 1.409 1_556 S
C567 C565 1.419 1_554 S
C567 C568 1.363 . S
C567 H570 0.929 1_554 S
C568 C567 1.363 . S
C568 C574 1.428 1_455 S
H569 C565 0.930 . S
H570 C567 0.929 1_556 S
S571 N572 1.613 . S
S571 N573 1.610 . S
N572 S571 1.613 . S
N572 C575 1.353 . S
N573 S571 1.610 . S
N573 C574 1.351 . S
C574 C568 1.428 1_655 S
C574 N573 1.351 . S
C574 C575 1.453 . S
C575 C566 1.409 1_554 S
C575 N572 1.353 . S
C575 C574 1.453 . S
C225 C11 1.449 . S
C227 C103 1.442 . S
C236 C19 1.440 . S
C238 C67 1.447 . S
C247 C75 1.436 . S
C249 C39 1.444 . S
C258 C47 1.435 . S
C260 C95 1.443 . S
C269 C123 1.449 . S
C271 C215 1.441 . S
C280 C179 1.445 . S
C282 C131 1.439 . S
C291 C187 1.444 . S
C293 C151 1.450 . S
C302 C207 1.441 . S
C304 C159 1.435 . S
C313 C4 1.378 . S
C315 C158 1.353 . S
C324 C26 1.203 . S
C326 C117 1.022 . S
C335 C130 1.356 . S
C337 C32 1.380 . S
C346 C54 1.190 . S
C348 C145 1.039 . S
C357 C60 1.383 . S
C359 C186 1.350 . S
C368 C201 1.017 . S
C370 C82 1.204 . S
C379 C88 1.382 . S
C381 C214 1.348 . S
C390 C173 1.017 . S
C392 C110 1.204 . S
C401 C116 1.383 . S
C403 C46 1.349 . S
C412 C5 1.025 . S
C414 C138 1.199 1_455 S
C423 C144 1.379 . S
C425 C18 1.355 . S
C434 C33 1.019 . S
C436 C166 1.204 1_655 S
C445 C172 1.381 . S
C447 C74 1.348 . S
C456 C89 1.025 . S
C458 C194 1.199 1_655 S
C467 C102 1.352 . S
C469 C200 1.383 . S
C478 C61 1.034 . S
C480 C222 1.197 1_455 S
C489 C68 1.424 . S
C491 C12 1.423 . S
C500 C81 1.642 . S
C502 C25 1.648 . S
C511 C40 1.424 . S
C513 C96 1.423 . S
C522 C109 1.649 . S
C524 C53 1.643 . S
C533 C180 1.424 . S
C535 C124 1.423 . S
C544 C193 1.643 . S
C546 C137 1.647 . S
C555 C152 1.422 . S
C557 C208 1.424 . S
C566 C221 1.650 . S
C568 C165 1.644 . S
