# Generated by pormake.
# Topology mer, (4)-cn, num edge types: 1
# Building blocks:
#     Node 0, Type 0, BuildingBlock: KUFVIS_clean_sbu_0, # of connection points: 4
#     Node 1, Type 0, BuildingBlock: KUFVIS_clean_sbu_0, # of connection points: 4
#     Node 2, Type 0, BuildingBlock: KUFVIS_clean_sbu_0, # of connection points: 4
#     Node 3, Type 0, BuildingBlock: KUFVIS_clean_sbu_0, # of connection points: 4
#     Node 4, Type 0, BuildingBlock: KUFVIS_clean_sbu_0, # of connection points: 4
#     Node 5, Type 0, BuildingBlock: KUFVIS_clean_sbu_0, # of connection points: 4
#     Node 6, Type 0, BuildingBlock: KUFVIS_clean_sbu_0, # of connection points: 4
#     Node 7, Type 0, BuildingBlock: KUFVIS_clean_sbu_0, # of connection points: 4
#     Node 8, Type 0, BuildingBlock: KUFVIS_clean_sbu_0, # of connection points: 4
#     Node 9, Type 0, BuildingBlock: KUFVIS_clean_sbu_0, # of connection points: 4
#     Node 10, Type 0, BuildingBlock: KUFVIS_clean_sbu_0, # of connection points: 4
#     Node 11, Type 0, BuildingBlock: KUFVIS_clean_sbu_0, # of connection points: 4
#     Node 12, Type 0, BuildingBlock: KUFVIS_clean_sbu_0, # of connection points: 4
#     Node 13, Type 0, BuildingBlock: KUFVIS_clean_sbu_0, # of connection points: 4
#     Node 14, Type 0, BuildingBlock: KUFVIS_clean_sbu_0, # of connection points: 4
#     Node 15, Type 0, BuildingBlock: KUFVIS_clean_sbu_0, # of connection points: 4
#     Node 16, Type 0, BuildingBlock: KUFVIS_clean_sbu_0, # of connection points: 4
#     Node 17, Type 0, BuildingBlock: KUFVIS_clean_sbu_0, # of connection points: 4
#     Node 18, Type 0, BuildingBlock: KUFVIS_clean_sbu_0, # of connection points: 4
#     Node 19, Type 0, BuildingBlock: KUFVIS_clean_sbu_0, # of connection points: 4
#     Node 20, Type 0, BuildingBlock: KUFVIS_clean_sbu_0, # of connection points: 4
#     Node 21, Type 0, BuildingBlock: KUFVIS_clean_sbu_0, # of connection points: 4
#     Node 22, Type 0, BuildingBlock: KUFVIS_clean_sbu_0, # of connection points: 4
#     Node 23, Type 0, BuildingBlock: KUFVIS_clean_sbu_0, # of connection points: 4
#     Node 24, Type 0, BuildingBlock: KUFVIS_clean_sbu_0, # of connection points: 4
#     Node 25, Type 0, BuildingBlock: KUFVIS_clean_sbu_0, # of connection points: 4
#     Node 26, Type 0, BuildingBlock: KUFVIS_clean_sbu_0, # of connection points: 4
#     Node 27, Type 0, BuildingBlock: KUFVIS_clean_sbu_0, # of connection points: 4
#     Node 28, Type 0, BuildingBlock: KUFVIS_clean_sbu_0, # of connection points: 4
#     Node 29, Type 0, BuildingBlock: KUFVIS_clean_sbu_0, # of connection points: 4
#     Node 30, Type 0, BuildingBlock: KUFVIS_clean_sbu_0, # of connection points: 4
#     Node 31, Type 0, BuildingBlock: KUFVIS_clean_sbu_0, # of connection points: 4
#     Edge 32, Type (0, 0), BuildingBlock: XIVTED_clean_linker_0, # of connection points: 2
#     Edge 33, Type (0, 0), BuildingBlock: XIVTED_clean_linker_0, # of connection points: 2
#     Edge 34, Type (0, 0), BuildingBlock: XIVTED_clean_linker_0, # of connection points: 2
#     Edge 35, Type (0, 0), BuildingBlock: XIVTED_clean_linker_0, # of connection points: 2
#     Edge 36, Type (0, 0), BuildingBlock: XIVTED_clean_linker_0, # of connection points: 2
#     Edge 37, Type (0, 0), BuildingBlock: XIVTED_clean_linker_0, # of connection points: 2
#     Edge 38, Type (0, 0), BuildingBlock: XIVTED_clean_linker_0, # of connection points: 2
#     Edge 39, Type (0, 0), BuildingBlock: XIVTED_clean_linker_0, # of connection points: 2
#     Edge 40, Type (0, 0), BuildingBlock: XIVTED_clean_linker_0, # of connection points: 2
#     Edge 41, Type (0, 0), BuildingBlock: XIVTED_clean_linker_0, # of connection points: 2
#     Edge 42, Type (0, 0), BuildingBlock: XIVTED_clean_linker_0, # of connection points: 2
#     Edge 43, Type (0, 0), BuildingBlock: XIVTED_clean_linker_0, # of connection points: 2
#     Edge 44, Type (0, 0), BuildingBlock: XIVTED_clean_linker_0, # of connection points: 2
#     Edge 45, Type (0, 0), BuildingBlock: XIVTED_clean_linker_0, # of connection points: 2
#     Edge 46, Type (0, 0), BuildingBlock: XIVTED_clean_linker_0, # of connection points: 2
#     Edge 47, Type (0, 0), BuildingBlock: XIVTED_clean_linker_0, # of connection points: 2
#     Edge 48, Type (0, 0), BuildingBlock: XIVTED_clean_linker_0, # of connection points: 2
#     Edge 49, Type (0, 0), BuildingBlock: XIVTED_clean_linker_0, # of connection points: 2
#     Edge 50, Type (0, 0), BuildingBlock: XIVTED_clean_linker_0, # of connection points: 2
#     Edge 51, Type (0, 0), BuildingBlock: XIVTED_clean_linker_0, # of connection points: 2
#     Edge 52, Type (0, 0), BuildingBlock: XIVTED_clean_linker_0, # of connection points: 2
#     Edge 53, Type (0, 0), BuildingBlock: XIVTED_clean_linker_0, # of connection points: 2
#     Edge 54, Type (0, 0), BuildingBlock: XIVTED_clean_linker_0, # of connection points: 2
#     Edge 55, Type (0, 0), BuildingBlock: XIVTED_clean_linker_0, # of connection points: 2
#     Edge 56, Type (0, 0), BuildingBlock: XIVTED_clean_linker_0, # of connection points: 2
#     Edge 57, Type (0, 0), BuildingBlock: XIVTED_clean_linker_0, # of connection points: 2
#     Edge 58, Type (0, 0), BuildingBlock: XIVTED_clean_linker_0, # of connection points: 2
#     Edge 59, Type (0, 0), BuildingBlock: XIVTED_clean_linker_0, # of connection points: 2
#     Edge 60, Type (0, 0), BuildingBlock: XIVTED_clean_linker_0, # of connection points: 2
#     Edge 61, Type (0, 0), BuildingBlock: XIVTED_clean_linker_0, # of connection points: 2
#     Edge 62, Type (0, 0), BuildingBlock: XIVTED_clean_linker_0, # of connection points: 2
#     Edge 63, Type (0, 0), BuildingBlock: XIVTED_clean_linker_0, # of connection points: 2
#     Edge 64, Type (0, 0), BuildingBlock: XIVTED_clean_linker_0, # of connection points: 2
#     Edge 65, Type (0, 0), BuildingBlock: XIVTED_clean_linker_0, # of connection points: 2
#     Edge 66, Type (0, 0), BuildingBlock: XIVTED_clean_linker_0, # of connection points: 2
#     Edge 67, Type (0, 0), BuildingBlock: XIVTED_clean_linker_0, # of connection points: 2
#     Edge 68, Type (0, 0), BuildingBlock: XIVTED_clean_linker_0, # of connection points: 2
#     Edge 69, Type (0, 0), BuildingBlock: XIVTED_clean_linker_0, # of connection points: 2
#     Edge 70, Type (0, 0), BuildingBlock: XIVTED_clean_linker_0, # of connection points: 2
#     Edge 71, Type (0, 0), BuildingBlock: XIVTED_clean_linker_0, # of connection points: 2
#     Edge 72, Type (0, 0), BuildingBlock: XIVTED_clean_linker_0, # of connection points: 2
#     Edge 73, Type (0, 0), BuildingBlock: XIVTED_clean_linker_0, # of connection points: 2
#     Edge 74, Type (0, 0), BuildingBlock: XIVTED_clean_linker_0, # of connection points: 2
#     Edge 75, Type (0, 0), BuildingBlock: XIVTED_clean_linker_0, # of connection points: 2
#     Edge 76, Type (0, 0), BuildingBlock: XIVTED_clean_linker_0, # of connection points: 2
#     Edge 77, Type (0, 0), BuildingBlock: XIVTED_clean_linker_0, # of connection points: 2
#     Edge 78, Type (0, 0), BuildingBlock: XIVTED_clean_linker_0, # of connection points: 2
#     Edge 79, Type (0, 0), BuildingBlock: XIVTED_clean_linker_0, # of connection points: 2
#     Edge 80, Type (0, 0), BuildingBlock: XIVTED_clean_linker_0, # of connection points: 2
#     Edge 81, Type (0, 0), BuildingBlock: XIVTED_clean_linker_0, # of connection points: 2
#     Edge 82, Type (0, 0), BuildingBlock: XIVTED_clean_linker_0, # of connection points: 2
#     Edge 83, Type (0, 0), BuildingBlock: XIVTED_clean_linker_0, # of connection points: 2
#     Edge 84, Type (0, 0), BuildingBlock: XIVTED_clean_linker_0, # of connection points: 2
#     Edge 85, Type (0, 0), BuildingBlock: XIVTED_clean_linker_0, # of connection points: 2
#     Edge 86, Type (0, 0), BuildingBlock: XIVTED_clean_linker_0, # of connection points: 2
#     Edge 87, Type (0, 0), BuildingBlock: XIVTED_clean_linker_0, # of connection points: 2
#     Edge 88, Type (0, 0), BuildingBlock: XIVTED_clean_linker_0, # of connection points: 2
#     Edge 89, Type (0, 0), BuildingBlock: XIVTED_clean_linker_0, # of connection points: 2
#     Edge 90, Type (0, 0), BuildingBlock: XIVTED_clean_linker_0, # of connection points: 2
#     Edge 91, Type (0, 0), BuildingBlock: XIVTED_clean_linker_0, # of connection points: 2
#     Edge 92, Type (0, 0), BuildingBlock: XIVTED_clean_linker_0, # of connection points: 2
#     Edge 93, Type (0, 0), BuildingBlock: XIVTED_clean_linker_0, # of connection points: 2
#     Edge 94, Type (0, 0), BuildingBlock: XIVTED_clean_linker_0, # of connection points: 2
#     Edge 95, Type (0, 0), BuildingBlock: XIVTED_clean_linker_0, # of connection points: 2
# Relax obj value: 0.090
# Max RMSD: 0.140
# Mean RMSD: 0.135
data_MOF--net-mer--node1-KUFVIS_clean_sbu_0--edge1-XIVTED_clean_linker_0
_symmetry_space_group_name_H-M    P1
_symmetry_Int_Tables_number       1
_symmetry_cell_setting            triclinic
loop_
_symmetry_equiv_pos_as_xyz
'x, y, z'
_cell_length_a     64.576738
_cell_length_b     63.907071
_cell_length_c     51.977144
_cell_angle_alpha  90.000739
_cell_angle_beta   90.000053
_cell_angle_gamma 89.999851
loop_
_atom_site_label
_atom_site_type_symbol
_atom_site_fract_x
_atom_site_fract_y
_atom_site_fract_z
_atom_type_partial_charge
Mn0 Mn 0.10849 0.28621 0.36217 0.0
Mn1 Mn 0.15053 0.31157 0.38432 0.0
C2 C 0.11522 0.28638 0.40594 0.0
C3 C 0.07401 0.28833 0.34949 0.0
C4 C 0.15225 0.26927 0.35746 0.0
O5 O 0.11757 0.30418 0.33172 0.0
O6 O 0.14198 0.32385 0.35103 0.0
C7 C 0.13184 0.3531 0.39403 0.0
N8 N 0.14245 0.33609 0.40273 0.0
C9 C 0.14435 0.35043 0.44542 0.0
C10 C 0.13365 0.36821 0.43688 0.0
C11 C 0.12736 0.36954 0.41106 0.0
C12 C 0.14862 0.33467 0.42748 0.0
H13 H 0.12674 0.35406 0.37428 0.0
C14 C 0.13029 0.31947 0.33189 0.0
O15 O 0.08583 0.27326 0.34131 0.0
O16 O 0.08232 0.30205 0.36465 0.0
N17 N 0.16042 0.30138 0.41662 0.0
C18 C 0.16982 0.28279 0.42205 0.0
C19 C 0.17667 0.27879 0.44721 0.0
C20 C 0.17381 0.29392 0.46646 0.0
C21 C 0.16442 0.31305 0.46024 0.0
C22 C 0.15831 0.31636 0.43477 0.0
H23 H 0.17195 0.27104 0.40739 0.0
O24 O 0.10269 0.27266 0.39619 0.0
O25 O 0.12294 0.29987 0.38987 0.0
O26 O 0.13275 0.26612 0.35588 0.0
O27 O 0.16018 0.28618 0.36621 0.0
C28 C 0.16013 0.32862 0.47856 0.0
C29 C 0.15028 0.34738 0.47122 0.0
H30 H 0.12993 0.3808 0.45006 0.0
H31 H 0.11894 0.38313 0.40436 0.0
H32 H 0.18393 0.26399 0.45181 0.0
H33 H 0.17869 0.29061 0.48598 0.0
H34 H 0.16355 0.32585 0.4985 0.0
H35 H 0.14683 0.35908 0.48568 0.0
Mn36 Mn 0.72613 0.11817 0.34054 0.0
Mn37 Mn 0.77622 0.10746 0.35393 0.0
C38 C 0.74992 0.14494 0.34036 0.0
C39 C 0.69957 0.11953 0.31065 0.0
C40 C 0.74283 0.11146 0.3948 0.0
O41 O 0.72747 0.08661 0.33814 0.0
O42 O 0.76163 0.08131 0.34351 0.0
C43 C 0.78971 0.09608 0.30134 0.0
N44 N 0.79201 0.10802 0.32286 0.0
C45 C 0.82136 0.12586 0.30466 0.0
C46 C 0.81941 0.11365 0.28237 0.0
C47 C 0.80348 0.09874 0.28068 0.0
C48 C 0.80718 0.12251 0.32461 0.0
H49 H 0.77746 0.08463 0.29997 0.0
C50 C 0.74327 0.07471 0.33889 0.0
O51 O 0.69555 0.11789 0.33505 0.0
O52 O 0.71885 0.12004 0.30373 0.0
N53 N 0.79266 0.13093 0.36426 0.0
C54 C 0.79203 0.14187 0.38675 0.0
C55 C 0.80675 0.15763 0.39132 0.0
C56 C 0.82214 0.16174 0.37292 0.0
C57 C 0.82274 0.14999 0.35015 0.0
C58 C 0.80772 0.13443 0.34671 0.0
H59 H 0.78029 0.13874 0.40102 0.0
O60 O 0.73028 0.14889 0.34196 0.0
O61 O 0.75516 0.12534 0.33778 0.0
O62 O 0.72794 0.11636 0.37978 0.0
O63 O 0.76114 0.10723 0.38697 0.0
C64 C 0.8374 0.15339 0.33051 0.0
C65 C 0.83666 0.14139 0.30774 0.0
H66 H 0.82998 0.11568 0.26638 0.0
H67 H 0.80181 0.08933 0.2635 0.0
H68 H 0.8062 0.1666 0.40896 0.0
H69 H 0.83334 0.17404 0.3764 0.0
H70 H 0.84915 0.16537 0.33258 0.0
H71 H 0.84785 0.14432 0.29264 0.0
Mn72 Mn 0.89133 0.71222 0.36036 0.0
Mn73 Mn 0.85018 0.68619 0.38389 0.0
C74 C 0.88544 0.71221 0.4043 0.0
C75 C 0.92556 0.7105 0.34667 0.0
C76 C 0.84721 0.7283 0.35675 0.0
O77 O 0.88193 0.69397 0.33032 0.0
O78 O 0.85837 0.67386 0.3505 0.0
C79 C 0.86979 0.64508 0.39348 0.0
N80 N 0.85904 0.66195 0.40231 0.0
C81 C 0.85817 0.64788 0.44519 0.0
C82 C 0.86904 0.63024 0.43653 0.0
C83 C 0.87488 0.62884 0.41055 0.0
C84 C 0.85327 0.66343 0.42721 0.0
H85 H 0.87453 0.64408 0.37359 0.0
C86 C 0.86954 0.67843 0.33096 0.0
O87 O 0.91342 0.7254 0.33875 0.0
O88 O 0.91773 0.69675 0.36216 0.0
N89 N 0.84065 0.6964 0.41634 0.0
C90 C 0.83098 0.71483 0.42183 0.0
C91 C 0.82452 0.7189 0.44712 0.0
C92 C 0.82805 0.70398 0.46645 0.0
C93 C 0.83767 0.68498 0.46019 0.0
C94 C 0.84336 0.6816 0.43458 0.0
H95 H 0.82836 0.72643 0.4071 0.0
O96 O 0.89759 0.72605 0.39407 0.0
O97 O 0.87763 0.69848 0.38859 0.0
O98 O 0.86661 0.73186 0.35468 0.0
O99 O 0.83976 0.71126 0.36579 0.0
C100 C 0.84265 0.66965 0.47856 0.0
C101 C 0.85269 0.65102 0.47112 0.0
H102 H 0.87323 0.61782 0.44972 0.0
H103 H 0.88342 0.61537 0.40375 0.0
H104 H 0.81708 0.73359 0.45177 0.0
H105 H 0.82354 0.7074 0.48607 0.0
H106 H 0.83971 0.67255 0.49858 0.0
H107 H 0.85665 0.63951 0.48561 0.0
Mn108 Mn 0.27295 0.87955 0.34104 0.0
Mn109 Mn 0.22228 0.88903 0.35258 0.0
C110 C 0.24996 0.85208 0.34081 0.0
C111 C 0.30009 0.87847 0.3119 0.0
C112 C 0.25478 0.88618 0.39469 0.0
O113 O 0.27085 0.91102 0.33796 0.0
O114 O 0.23653 0.91548 0.34257 0.0
C115 C 0.21001 0.89986 0.29936 0.0
N116 N 0.20736 0.88799 0.32087 0.0
C117 C 0.17881 0.86953 0.30166 0.0
C118 C 0.18113 0.88166 0.27936 0.0
C119 C 0.19684 0.89684 0.27818 0.0
C120 C 0.19241 0.87323 0.32214 0.0
H121 H 0.22208 0.91152 0.29838 0.0
C122 C 0.25477 0.92253 0.33829 0.0
O123 O 0.30363 0.88058 0.33637 0.0
O124 O 0.28096 0.87738 0.3045 0.0
N125 N 0.206 0.86532 0.36245 0.0
C126 C 0.20614 0.8546 0.38512 0.0
C127 C 0.19154 0.83867 0.38927 0.0
C128 C 0.17674 0.83414 0.37027 0.0
C129 C 0.17661 0.84567 0.34732 0.0
C130 C 0.19148 0.86145 0.34432 0.0
H131 H 0.21743 0.85802 0.39983 0.0
O132 O 0.26968 0.8488 0.343 0.0
O133 O 0.24415 0.87147 0.33756 0.0
O134 O 0.27023 0.88183 0.38027 0.0
O135 O 0.23653 0.8897 0.38614 0.0
C136 C 0.16255 0.8419 0.32712 0.0
C137 C 0.1637 0.85376 0.30427 0.0
H138 H 0.17102 0.87936 0.26297 0.0
H139 H 0.19879 0.90619 0.26099 0.0
H140 H 0.19172 0.82986 0.40705 0.0
H141 H 0.16563 0.8217 0.37343 0.0
H142 H 0.15093 0.82976 0.32886 0.0
H143 H 0.15294 0.85056 0.28877 0.0
Mn144 Mn 0.10708 0.71228 0.63488 0.0
Mn145 Mn 0.14879 0.68725 0.61116 0.0
C146 C 0.11325 0.71303 0.59099 0.0
C147 C 0.07278 0.70988 0.64818 0.0
C148 C 0.15095 0.72907 0.63909 0.0
O149 O 0.11655 0.69375 0.66463 0.0
O150 O 0.14067 0.67444 0.64429 0.0
C151 C 0.12973 0.646 0.60084 0.0
N152 N 0.14035 0.66307 0.59234 0.0
C153 C 0.14145 0.64948 0.54924 0.0
C154 C 0.13074 0.63164 0.55756 0.0
C155 C 0.12486 0.62989 0.58349 0.0
C156 C 0.14617 0.66487 0.56749 0.0
H157 H 0.12491 0.64474 0.62067 0.0
C158 C 0.12926 0.67847 0.66378 0.0
O159 O 0.08467 0.72482 0.65656 0.0
O160 O 0.0809 0.69646 0.63247 0.0
N161 N 0.15833 0.6979 0.57893 0.0
C162 C 0.16783 0.71648 0.57379 0.0
C163 C 0.17443 0.72083 0.54861 0.0
C164 C 0.17117 0.70606 0.52904 0.0
C165 C 0.16166 0.68693 0.53495 0.0
C166 C 0.15589 0.68323 0.56046 0.0
H167 H 0.17026 0.72797 0.5887 0.0
O168 O 0.10083 0.72651 0.60143 0.0
O169 O 0.12117 0.69918 0.60645 0.0
O170 O 0.13147 0.73222 0.64121 0.0
O171 O 0.15874 0.71232 0.6297 0.0
C172 C 0.15685 0.67176 0.51631 0.0
C173 C 0.14693 0.65298 0.52338 0.0
H174 H 0.1267 0.61933 0.54414 0.0
H175 H 0.11643 0.61626 0.59003 0.0
H176 H 0.18177 0.73564 0.54424 0.0
H177 H 0.17579 0.70968 0.50951 0.0
H178 H 0.15991 0.67486 0.49637 0.0
H179 H 0.14311 0.6416 0.50868 0.0
Mn180 Mn 0.27321 0.12064 0.65573 0.0
Mn181 Mn 0.22256 0.11146 0.64373 0.0
C182 C 0.25042 0.14827 0.65555 0.0
C183 C 0.30022 0.12158 0.68505 0.0
C184 C 0.25534 0.11397 0.60194 0.0
O185 O 0.27088 0.08921 0.65892 0.0
O186 O 0.23657 0.0849 0.65395 0.0
C187 C 0.20995 0.1009 0.69691 0.0
N188 N 0.20753 0.11275 0.67534 0.0
C189 C 0.17937 0.13186 0.6945 0.0
C190 C 0.18146 0.11975 0.71686 0.0
C191 C 0.19685 0.10424 0.71808 0.0
C192 C 0.19287 0.12781 0.67403 0.0
H193 H 0.22181 0.08901 0.69794 0.0
C194 C 0.25476 0.07777 0.65843 0.0
O195 O 0.30384 0.11937 0.66061 0.0
O196 O 0.28106 0.12286 0.69233 0.0
N197 N 0.20654 0.13528 0.63363 0.0
C198 C 0.20676 0.14581 0.61082 0.0
C199 C 0.19242 0.16197 0.60658 0.0
C200 C 0.17781 0.16693 0.62563 0.0
C201 C 0.17756 0.15556 0.6487 0.0
C202 C 0.19213 0.13952 0.65177 0.0
H203 H 0.21793 0.14208 0.59609 0.0
O204 O 0.27018 0.15141 0.6536 0.0
O205 O 0.24446 0.12893 0.65886 0.0
O206 O 0.2707 0.11827 0.61651 0.0
O207 O 0.237 0.11058 0.61028 0.0
C208 C 0.16364 0.15974 0.66894 0.0
C209 C 0.16459 0.14794 0.69185 0.0
H210 H 0.17141 0.1223 0.73325 0.0
H211 H 0.19862 0.0949 0.73531 0.0
H212 H 0.19269 0.17064 0.58869 0.0
H213 H 0.16691 0.17955 0.62239 0.0
H214 H 0.15229 0.17214 0.66718 0.0
H215 H 0.15394 0.15143 0.70737 0.0
Mn216 Mn 0.89208 0.28385 0.63634 0.0
Mn217 Mn 0.85071 0.30985 0.61343 0.0
C218 C 0.88564 0.28366 0.59252 0.0
C219 C 0.9265 0.28557 0.64941 0.0
C220 C 0.84803 0.26805 0.64128 0.0
O221 O 0.883 0.30232 0.6664 0.0
O222 O 0.85955 0.32264 0.64629 0.0
C223 C 0.87016 0.35079 0.60235 0.0
N224 N 0.85926 0.33379 0.59421 0.0
C225 C 0.85749 0.34727 0.55108 0.0
C226 C 0.86852 0.36503 0.55903 0.0
C227 C 0.87488 0.36679 0.58478 0.0
C228 C 0.85298 0.33196 0.56953 0.0
H229 H 0.87529 0.35208 0.62206 0.0
C230 C 0.87083 0.31805 0.66574 0.0
O231 O 0.9144 0.27076 0.65769 0.0
O232 O 0.91851 0.29925 0.63395 0.0
N233 N 0.84062 0.29914 0.58149 0.0
C234 C 0.83096 0.28058 0.57666 0.0
C235 C 0.82406 0.27613 0.55164 0.0
C236 C 0.82715 0.2908 0.5319 0.0
C237 C 0.83681 0.30992 0.53749 0.0
C238 C 0.84296 0.31368 0.56285 0.0
H239 H 0.82865 0.26918 0.5917 0.0
O240 O 0.89792 0.26986 0.6026 0.0
O241 O 0.87806 0.29745 0.60829 0.0
O242 O 0.86742 0.26425 0.64257 0.0
O243 O 0.84051 0.28512 0.63245 0.0
C244 C 0.84136 0.32501 0.51866 0.0
C245 C 0.85149 0.34377 0.5254 0.0
H246 H 0.87243 0.37727 0.54545 0.0
H247 H 0.88354 0.38037 0.59103 0.0
H248 H 0.8166 0.26135 0.54752 0.0
H249 H 0.82226 0.28711 0.51249 0.0
H250 H 0.83795 0.32184 0.49881 0.0
H251 H 0.85512 0.35509 0.51056 0.0
Mn252 Mn 0.72851 0.8803 0.6561 0.0
Mn253 Mn 0.77937 0.88813 0.64395 0.0
C254 C 0.75064 0.8521 0.65619 0.0
C255 C 0.7015 0.88016 0.68545 0.0
C256 C 0.7465 0.88613 0.60222 0.0
O257 O 0.73159 0.91171 0.65904 0.0
O258 O 0.76599 0.91503 0.65397 0.0
C259 C 0.79231 0.89875 0.69699 0.0
N260 N 0.79447 0.88674 0.67551 0.0
C261 C 0.82263 0.86753 0.69449 0.0
C262 C 0.82082 0.87978 0.71676 0.0
C263 C 0.80554 0.89541 0.71804 0.0
C264 C 0.80898 0.87155 0.67415 0.0
H265 H 0.78058 0.91076 0.69804 0.0
C266 C 0.74802 0.92269 0.65846 0.0
O267 O 0.69791 0.8823 0.661 0.0
O268 O 0.72063 0.87849 0.69273 0.0
N269 N 0.79488 0.86391 0.63403 0.0
C270 C 0.79431 0.85317 0.61138 0.0
C271 C 0.80846 0.83684 0.60712 0.0
C272 C 0.82326 0.83195 0.62598 0.0
C273 C 0.82385 0.84351 0.6489 0.0
C274 C 0.80942 0.85968 0.65201 0.0
H275 H 0.78302 0.85688 0.59678 0.0
O276 O 0.73081 0.84944 0.65425 0.0
O277 O 0.75707 0.8713 0.65931 0.0
O278 O 0.73104 0.88234 0.61684 0.0
O279 O 0.76492 0.88911 0.61054 0.0
C280 C 0.83795 0.8394 0.66895 0.0
C281 C 0.83729 0.85134 0.69177 0.0
H282 H 0.83098 0.87725 0.73304 0.0
H283 H 0.80399 0.90487 0.7352 0.0
H284 H 0.80792 0.82802 0.58937 0.0
H285 H 0.83402 0.81921 0.62273 0.0
H286 H 0.84924 0.82695 0.66713 0.0
H287 H 0.84807 0.84789 0.70716 0.0
Mn288 Mn 0.88446 0.70762 0.63884 0.0
Mn289 Mn 0.84173 0.68185 0.61908 0.0
C290 C 0.8763 0.70668 0.59556 0.0
C291 C 0.91927 0.70705 0.65029 0.0
C292 C 0.84058 0.72573 0.64107 0.0
O293 O 0.87677 0.69077 0.67044 0.0
O294 O 0.84894 0.67401 0.65488 0.0
C295 C 0.86019 0.63945 0.61893 0.0
N296 N 0.84976 0.65498 0.60652 0.0
C297 C 0.84361 0.63292 0.56988 0.0
C298 C 0.85424 0.61663 0.58224 0.0
C299 C 0.86274 0.61999 0.60678 0.0
C300 C 0.84213 0.65215 0.58261 0.0
H301 H 0.86638 0.64185 0.638 0.0
C302 C 0.86187 0.67791 0.67285 0.0
O303 O 0.90709 0.72186 0.65829 0.0
O304 O 0.91115 0.6926 0.63599 0.0
N305 N 0.83222 0.68714 0.58488 0.0
C306 C 0.82266 0.70454 0.5755 0.0
C307 C 0.81316 0.70379 0.55123 0.0
C308 C 0.81301 0.68499 0.53725 0.0
C309 C 0.82291 0.66725 0.54732 0.0
C310 C 0.83249 0.66907 0.57134 0.0
H311 H 0.82213 0.71882 0.58657 0.0
O312 O 0.88893 0.7206 0.60465 0.0
O313 O 0.86948 0.69279 0.61187 0.0
O314 O 0.85998 0.72738 0.64546 0.0
O315 O 0.83222 0.70945 0.63121 0.0
C316 C 0.8234 0.64774 0.53463 0.0
C317 C 0.8341 0.63072 0.54565 0.0
H318 H 0.85591 0.60149 0.57311 0.0
H319 H 0.87096 0.60751 0.61647 0.0
H320 H 0.80558 0.71754 0.54355 0.0
H321 H 0.80525 0.68433 0.51879 0.0
H322 H 0.81581 0.64572 0.51621 0.0
H323 H 0.8347 0.61594 0.53546 0.0
Mn324 Mn 0.26829 0.88905 0.63014 0.0
Mn325 Mn 0.29495 0.84957 0.60247 0.0
C326 C 0.26639 0.88448 0.58638 0.0
C327 C 0.26773 0.92319 0.64561 0.0
C328 C 0.25455 0.84337 0.63151 0.0
O329 O 0.28829 0.87998 0.65796 0.0
O330 O 0.30729 0.85603 0.63669 0.0
C331 C 0.3348 0.8714 0.59417 0.0
N332 N 0.31839 0.86054 0.58456 0.0
C333 C 0.33235 0.86197 0.54168 0.0
C334 C 0.34949 0.87304 0.55114 0.0
C335 C 0.3507 0.87781 0.57749 0.0
C336 C 0.31705 0.85591 0.55925 0.0
H337 H 0.33573 0.87517 0.61439 0.0
C338 C 0.30331 0.86708 0.65667 0.0
O339 O 0.25463 0.90931 0.6539 0.0
O340 O 0.28129 0.9171 0.62881 0.0
N341 N 0.28495 0.8415 0.56926 0.0
C342 C 0.26705 0.83138 0.5631 0.0
C343 C 0.26323 0.82586 0.53738 0.0
C344 C 0.27793 0.83059 0.51833 0.0
C345 C 0.2964 0.84066 0.5252 0.0
C346 C 0.29943 0.84563 0.55118 0.0
H347 H 0.25569 0.82769 0.57765 0.0
O348 O 0.25247 0.89539 0.59836 0.0
O349 O 0.28148 0.87706 0.6003 0.0
O350 O 0.25084 0.86265 0.63607 0.0
O351 O 0.27082 0.83694 0.61992 0.0
C352 C 0.31174 0.84634 0.50724 0.0
C353 C 0.32969 0.85702 0.51546 0.0
H354 H 0.36174 0.87809 0.53831 0.0
H355 H 0.36382 0.88643 0.5849 0.0
H356 H 0.24894 0.81805 0.53223 0.0
H357 H 0.27482 0.82651 0.49847 0.0
H358 H 0.30977 0.84281 0.487 0.0
H359 H 0.34126 0.86152 0.50142 0.0
Mn360 Mn 0.11494 0.29068 0.64027 0.0
Mn361 Mn 0.1571 0.31788 0.62157 0.0
C362 C 0.12339 0.29234 0.59709 0.0
C363 C 0.08005 0.29074 0.65142 0.0
C364 C 0.15919 0.27382 0.64322 0.0
O365 O 0.12222 0.30722 0.67233 0.0
O366 O 0.14899 0.32582 0.65702 0.0
C367 C 0.13751 0.35973 0.62023 0.0
N368 N 0.14855 0.34436 0.60835 0.0
C369 C 0.1545 0.3661 0.57136 0.0
C370 C 0.14324 0.38222 0.58318 0.0
C371 C 0.13454 0.37894 0.60763 0.0
C372 C 0.15641 0.3471 0.58453 0.0
H373 H 0.13114 0.35738 0.63922 0.0
C374 C 0.13627 0.32101 0.6749 0.0
O375 O 0.09231 0.27589 0.65918 0.0
O376 O 0.08814 0.30545 0.6375 0.0
N377 N 0.16734 0.31249 0.58773 0.0
C378 C 0.17759 0.29527 0.57895 0.0
C379 C 0.18736 0.29597 0.55484 0.0
C380 C 0.18706 0.31455 0.54042 0.0
C381 C 0.17648 0.33211 0.5499 0.0
C382 C 0.16669 0.33034 0.57379 0.0
H383 H 0.17849 0.28119 0.59037 0.0
O384 O 0.11086 0.27814 0.60572 0.0
O385 O 0.12982 0.30611 0.61378 0.0
O386 O 0.13975 0.27124 0.64659 0.0
O387 O 0.16713 0.29069 0.63438 0.0
C388 C 0.17556 0.35142 0.5368 0.0
C389 C 0.16424 0.36826 0.54726 0.0
H390 H 0.14124 0.39718 0.57371 0.0
H391 H 0.12583 0.39129 0.61689 0.0
H392 H 0.1955 0.28237 0.54764 0.0
H393 H 0.19505 0.31516 0.52211 0.0
H394 H 0.1834 0.35347 0.51855 0.0
H395 H 0.16334 0.38288 0.53677 0.0
Mn396 Mn 0.72906 0.11082 0.62991 0.0
Mn397 Mn 0.7009 0.14915 0.60206 0.0
C398 C 0.73022 0.11501 0.58604 0.0
C399 C 0.73112 0.07684 0.64571 0.0
C400 C 0.74141 0.15696 0.63024 0.0
O401 O 0.70897 0.11937 0.65789 0.0
O402 O 0.68933 0.14284 0.63671 0.0
C403 C 0.66153 0.1261 0.59526 0.0
N404 N 0.67748 0.13727 0.58501 0.0
C405 C 0.66278 0.13496 0.54256 0.0
C406 C 0.64611 0.12356 0.5527 0.0
C407 C 0.64551 0.11908 0.57915 0.0
C408 C 0.67824 0.14162 0.55958 0.0
H409 H 0.66106 0.12257 0.61558 0.0
C410 C 0.69371 0.13198 0.65672 0.0
O411 O 0.74368 0.09133 0.65371 0.0
O412 O 0.71716 0.08226 0.62907 0.0
N413 N 0.71014 0.15695 0.56842 0.0
C414 C 0.72773 0.16733 0.56154 0.0
C415 C 0.73098 0.17256 0.53561 0.0
C416 C 0.71603 0.16729 0.51708 0.0
C417 C 0.6979 0.15693 0.52468 0.0
C418 C 0.69545 0.15223 0.55082 0.0
H419 H 0.73926 0.17145 0.5757 0.0
O420 O 0.74475 0.10484 0.59788 0.0
O421 O 0.71508 0.12203 0.60018 0.0
O422 O 0.7456 0.13787 0.63534 0.0
O423 O 0.72494 0.16273 0.61858 0.0
C424 C 0.68235 0.15069 0.50727 0.0
C425 C 0.66483 0.13967 0.51619 0.0
H426 H 0.63378 0.11803 0.54032 0.0
H427 H 0.63275 0.1102 0.58709 0.0
H428 H 0.745 0.18059 0.52991 0.0
H429 H 0.71869 0.17116 0.49706 0.0
H430 H 0.68386 0.15402 0.48692 0.0
H431 H 0.65312 0.13471 0.50257 0.0
Mn432 Mn 0.88537 0.28839 0.35821 0.0
Mn433 Mn 0.84197 0.31335 0.37724 0.0
C434 C 0.87664 0.28904 0.40131 0.0
C435 C 0.9203 0.28949 0.34742 0.0
C436 C 0.84184 0.26957 0.35493 0.0
O437 O 0.87782 0.30528 0.32657 0.0
O438 O 0.84951 0.32151 0.34164 0.0
C439 C 0.85966 0.35607 0.37812 0.0
N440 N 0.84939 0.34027 0.3902 0.0
C441 C 0.84264 0.36191 0.42706 0.0
C442 C 0.8531 0.37847 0.41503 0.0
C443 C 0.86181 0.37547 0.39054 0.0
C444 C 0.84153 0.34277 0.41405 0.0
H445 H 0.86603 0.35393 0.35909 0.0
C446 C 0.86276 0.31791 0.32392 0.0
O447 O 0.90841 0.27456 0.3391 0.0
O448 O 0.91182 0.30378 0.36167 0.0
N449 N 0.83215 0.30767 0.41121 0.0
C450 C 0.82278 0.29004 0.42024 0.0
C451 C 0.81315 0.29041 0.44445 0.0
C452 C 0.81269 0.30906 0.45872 0.0
C453 C 0.82235 0.32705 0.44897 0.0
C454 C 0.83207 0.32561 0.425 0.0
H455 H 0.82249 0.27586 0.40894 0.0
O456 O 0.8896 0.27535 0.39242 0.0
O457 O 0.86982 0.30287 0.38494 0.0
O458 O 0.86132 0.26827 0.35099 0.0
O459 O 0.83306 0.28567 0.36467 0.0
C460 C 0.82246 0.34645 0.46192 0.0
C461 C 0.83295 0.36374 0.45123 0.0
H462 H 0.85447 0.39356 0.42438 0.0
H463 H 0.86991 0.38816 0.38111 0.0
H464 H 0.80573 0.27647 0.45186 0.0
H465 H 0.80484 0.3094 0.47714 0.0
H466 H 0.8147 0.3482 0.48027 0.0
H467 H 0.83325 0.37844 0.46161 0.0
Mn468 Mn 0.7277 0.88647 0.36742 0.0
Mn469 Mn 0.70146 0.8469 0.39547 0.0
C470 C 0.72981 0.8821 0.41117 0.0
C471 C 0.72808 0.9205 0.35168 0.0
C472 C 0.74182 0.84091 0.36631 0.0
O473 O 0.70766 0.87717 0.33981 0.0
O474 O 0.689 0.85304 0.36122 0.0
C475 C 0.66141 0.86838 0.40368 0.0
N476 N 0.67795 0.85775 0.41334 0.0
C477 C 0.66401 0.85925 0.45623 0.0
C478 C 0.64675 0.87008 0.44672 0.0
C479 C 0.64547 0.8747 0.42034 0.0
C480 C 0.67937 0.85327 0.43869 0.0
H481 H 0.66042 0.87202 0.38343 0.0
C482 C 0.69279 0.86411 0.3412 0.0
O483 O 0.74118 0.9066 0.34341 0.0
O484 O 0.71459 0.91448 0.36861 0.0
N485 N 0.7116 0.83915 0.42873 0.0
C486 C 0.72966 0.82934 0.43496 0.0
C487 C 0.7336 0.82406 0.46073 0.0
C488 C 0.71885 0.82869 0.47976 0.0
C489 C 0.70022 0.83845 0.47282 0.0
C490 C 0.6971 0.84323 0.44681 0.0
H491 H 0.74104 0.82572 0.42042 0.0
O492 O 0.74362 0.89303 0.39902 0.0
O493 O 0.71469 0.87453 0.39742 0.0
O494 O 0.74528 0.86019 0.36153 0.0
O495 O 0.72568 0.83437 0.37808 0.0
C496 C 0.68482 0.84402 0.49076 0.0
C497 C 0.66675 0.85445 0.48248 0.0
H498 H 0.63446 0.87506 0.45952 0.0
H499 H 0.63224 0.88315 0.41287 0.0
H500 H 0.74799 0.81649 0.46592 0.0
H501 H 0.72203 0.82478 0.49965 0.0
H502 H 0.68685 0.84062 0.51102 0.0
H503 H 0.65514 0.85888 0.4965 0.0
Mn504 Mn 0.11375 0.70956 0.35634 0.0
Mn505 Mn 0.15634 0.68329 0.37555 0.0
C506 C 0.12197 0.70815 0.3996 0.0
C507 C 0.07894 0.70916 0.34494 0.0
C508 C 0.15772 0.7273 0.35387 0.0
O509 O 0.12129 0.69292 0.32451 0.0
O510 O 0.14878 0.67545 0.33985 0.0
C511 C 0.13765 0.641 0.37608 0.0
N512 N 0.14829 0.65649 0.38828 0.0
C513 C 0.15464 0.63448 0.42493 0.0
C514 C 0.14379 0.61824 0.41278 0.0
C515 C 0.1351 0.62158 0.38834 0.0
C516 C 0.15615 0.65366 0.41208 0.0
H517 H 0.1313 0.64341 0.35709 0.0
C518 C 0.13588 0.67972 0.32196 0.0
O519 O 0.09113 0.72404 0.33713 0.0
O520 O 0.08705 0.69459 0.35907 0.0
N521 N 0.16613 0.68861 0.40961 0.0
C522 C 0.17569 0.70605 0.41889 0.0
C523 C 0.18537 0.70532 0.44306 0.0
C524 C 0.18563 0.68653 0.45706 0.0
C525 C 0.17565 0.66878 0.44713 0.0
C526 C 0.16595 0.67056 0.42318 0.0
H527 H 0.1761 0.72033 0.40782 0.0
O528 O 0.10941 0.72224 0.39074 0.0
O529 O 0.1287 0.6944 0.38305 0.0
O530 O 0.13829 0.72928 0.34989 0.0
O531 O 0.16596 0.71079 0.36325 0.0
C532 C 0.17512 0.64932 0.45993 0.0
C533 C 0.16428 0.63231 0.44909 0.0
H534 H 0.14209 0.60313 0.422 0.0
H535 H 0.12671 0.60913 0.37882 0.0
H536 H 0.19298 0.71909 0.45064 0.0
H537 H 0.1935 0.68592 0.47545 0.0
H538 H 0.18279 0.64733 0.4783 0.0
H539 H 0.16365 0.61758 0.45936 0.0
Mn540 Mn 0.27124 0.11094 0.36682 0.0
Mn541 Mn 0.29772 0.15047 0.39462 0.0
C542 C 0.26894 0.11564 0.4105 0.0
C543 C 0.27091 0.07678 0.35148 0.0
C544 C 0.25758 0.15661 0.365 0.0
O545 O 0.29145 0.11996 0.33924 0.0
O546 O 0.31041 0.14385 0.36065 0.0
C547 C 0.33744 0.1286 0.40373 0.0
N548 N 0.32093 0.13952 0.413 0.0
C549 C 0.3344 0.13818 0.45613 0.0
C550 C 0.35162 0.12705 0.44703 0.0
C551 C 0.35312 0.12221 0.42072 0.0
C552 C 0.31931 0.14423 0.43827 0.0
H553 H 0.33859 0.12477 0.38354 0.0
C554 C 0.30652 0.13277 0.34067 0.0
O555 O 0.25783 0.0906 0.34297 0.0
O556 O 0.2843 0.08294 0.36844 0.0
N557 N 0.28737 0.15868 0.42762 0.0
C558 C 0.26941 0.16884 0.43342 0.0
C559 C 0.2653 0.17443 0.45905 0.0
C560 C 0.27976 0.16972 0.47838 0.0
C561 C 0.2983 0.1596 0.47187 0.0
C562 C 0.30163 0.15456 0.44598 0.0
H563 H 0.25823 0.17252 0.41865 0.0
O564 O 0.25515 0.10466 0.3984 0.0
O565 O 0.28416 0.12302 0.39676 0.0
O566 O 0.25382 0.13732 0.36058 0.0
O567 O 0.27381 0.16306 0.37668 0.0
C568 C 0.31342 0.15393 0.49014 0.0
C569 C 0.33144 0.1432 0.48228 0.0
H570 H 0.3637 0.12201 0.46009 0.0
H571 H 0.36631 0.11353 0.41357 0.0
H572 H 0.25097 0.18228 0.4639 0.0
H573 H 0.27643 0.17385 0.49816 0.0
H574 H 0.31122 0.15751 0.51032 0.0
H575 H 0.34283 0.13871 0.49654 0.0
Mn576 Mn 0.60699 0.78715 0.86001 0.0
Mn577 Mn 0.64831 0.81276 0.88384 0.0
C578 C 0.61289 0.78687 0.90396 0.0
C579 C 0.57271 0.78899 0.84642 0.0
C580 C 0.65105 0.77078 0.85636 0.0
O581 O 0.61646 0.80558 0.83013 0.0
O582 O 0.64028 0.82526 0.85049 0.0
C583 C 0.62895 0.85397 0.89358 0.0
N584 N 0.63958 0.837 0.90235 0.0
C585 C 0.6405 0.85094 0.9453 0.0
C586 C 0.62975 0.86867 0.9367 0.0
C587 C 0.62395 0.87018 0.91072 0.0
C588 C 0.64531 0.83541 0.92726 0.0
H589 H 0.62423 0.85506 0.8737 0.0
C590 C 0.62904 0.82097 0.83092 0.0
O591 O 0.58486 0.77417 0.83829 0.0
O592 O 0.58059 0.80265 0.86199 0.0
N593 N 0.65772 0.80238 0.91625 0.0
C594 C 0.66728 0.78388 0.92167 0.0
C595 C 0.67371 0.77971 0.94695 0.0
C596 C 0.67026 0.79459 0.96635 0.0
C597 C 0.66076 0.81367 0.96015 0.0
C598 C 0.6551 0.81715 0.93456 0.0
H599 H 0.66985 0.77231 0.90689 0.0
O600 O 0.6007 0.77314 0.8936 0.0
O601 O 0.62076 0.80065 0.88838 0.0
O602 O 0.63162 0.76742 0.85412 0.0
O603 O 0.65861 0.78768 0.86564 0.0
C604 C 0.65585 0.82897 0.97858 0.0
C605 C 0.64594 0.84769 0.97122 0.0
H606 H 0.62562 0.88108 0.94994 0.0
H607 H 0.6155 0.88374 0.90397 0.0
H608 H 0.68107 0.76496 0.95154 0.0
H609 H 0.67475 0.7911 0.98595 0.0
H610 H 0.65877 0.826 -0.0014 0.0
H611 H 0.64204 0.85918 0.98576 0.0
Mn612 Mn 0.22675 0.61881 0.84033 0.0
Mn613 Mn 0.27727 0.60923 0.85275 0.0
C614 C 0.24982 0.64621 0.84022 0.0
C615 C 0.19984 0.61976 0.81085 0.0
C616 C 0.24439 0.61256 0.89433 0.0
O617 O 0.22874 0.58731 0.83764 0.0
O618 O 0.26299 0.58274 0.84292 0.0
C619 C 0.2899 0.59789 0.79982 0.0
N620 N 0.29243 0.60994 0.82121 0.0
C621 C 0.32111 0.62821 0.80202 0.0
C622 C 0.31891 0.6159 0.77985 0.0
C623 C 0.3032 0.60072 0.77872 0.0
C624 C 0.30739 0.62469 0.82242 0.0
H625 H 0.27781 0.58624 0.79888 0.0
C626 C 0.24476 0.57574 0.83843 0.0
O627 O 0.19612 0.61782 0.8353 0.0
O628 O 0.21903 0.62075 0.80366 0.0
N629 N 0.2936 0.63293 0.86252 0.0
C630 C 0.29341 0.64376 0.88512 0.0
C631 C 0.30805 0.65967 0.88923 0.0
C632 C 0.32293 0.66405 0.87028 0.0
C633 C 0.32312 0.65239 0.84743 0.0
C634 C 0.30822 0.63664 0.84447 0.0
H635 H 0.28205 0.64045 0.89978 0.0
O636 O 0.23008 0.64956 0.84201 0.0
O637 O 0.25561 0.62679 0.83723 0.0
O638 O 0.22911 0.61681 0.87959 0.0
O639 O 0.26272 0.60893 0.88613 0.0
C640 C 0.33728 0.65601 0.8273 0.0
C641 C 0.33623 0.64398 0.80457 0.0
H642 H 0.32912 0.61805 0.76353 0.0
H643 H 0.30134 0.59123 0.76164 0.0
H644 H 0.30782 0.66857 0.90694 0.0
H645 H 0.33406 0.67648 0.87342 0.0
H646 H 0.34891 0.66815 0.82899 0.0
H647 H 0.34707 0.64705 0.78913 0.0
Mn648 Mn 0.39214 0.2139 0.86141 0.0
Mn649 Mn 0.35123 0.18761 0.88518 0.0
C650 C 0.38621 0.21408 0.90536 0.0
C651 C 0.42643 0.21252 0.84779 0.0
C652 C 0.34784 0.22953 0.85767 0.0
O653 O 0.38297 0.19534 0.83152 0.0
O654 O 0.35952 0.1752 0.85187 0.0
C655 C 0.37127 0.14675 0.89502 0.0
N656 N 0.36034 0.16353 0.90374 0.0
C657 C 0.35959 0.14961 0.9467 0.0
C658 C 0.37065 0.13206 0.93815 0.0
C659 C 0.37652 0.13063 0.91218 0.0
C660 C 0.35455 0.16505 0.92863 0.0
H661 H 0.37605 0.14572 0.87515 0.0
C662 C 0.3707 0.1797 0.83232 0.0
O663 O 0.41411 0.2272 0.83968 0.0
O664 O 0.41874 0.19878 0.86341 0.0
N665 N 0.34161 0.19785 0.91757 0.0
C666 C 0.33175 0.2162 0.92294 0.0
C667 C 0.32522 0.22028 0.94821 0.0
C668 C 0.32888 0.20547 0.96763 0.0
C669 C 0.3387 0.18655 0.96147 0.0
C670 C 0.34445 0.18314 0.93589 0.0
H671 H 0.32901 0.22772 0.90815 0.0
O672 O 0.3982 0.228 0.89501 0.0
O673 O 0.37857 0.20019 0.88975 0.0
O674 O 0.36721 0.23323 0.8555 0.0
O675 O 0.34054 0.2125 0.86692 0.0
C676 C 0.34384 0.17134 0.97993 0.0
C677 C 0.35407 0.15279 0.97261 0.0
H678 H 0.37497 0.11974 0.95141 0.0
H679 H 0.38521 0.11722 0.90547 0.0
H680 H 0.31761 0.23491 0.95277 0.0
H681 H 0.3243 0.20889 0.98722 0.0
H682 H 0.34085 0.17429 -7e-05 0.0
H683 H 0.35814 0.14138 0.98716 0.0
Mn684 Mn 0.77312 0.38003 0.84064 0.0
Mn685 Mn 0.72261 0.38994 0.85264 0.0
C686 C 0.7498 0.35283 0.83991 0.0
C687 C 0.8002 0.37905 0.8114 0.0
C688 C 0.75524 0.38618 0.8945 0.0
O689 O 0.77138 0.41156 0.83823 0.0
O690 O 0.73711 0.41635 0.84297 0.0
C691 C 0.71019 0.4015 0.7997 0.0
N692 N 0.70752 0.38943 0.82104 0.0
C693 C 0.6787 0.37148 0.80173 0.0
C694 C 0.68104 0.38382 0.77961 0.0
C695 C 0.6969 0.39885 0.77857 0.0
C696 C 0.69242 0.37482 0.82217 0.0
H697 H 0.72239 0.41304 0.79883 0.0
C698 C 0.75542 0.42324 0.83877 0.0
O699 O 0.8038 0.38076 0.8359 0.0
O700 O 0.78105 0.37829 0.80401 0.0
N701 N 0.70614 0.36628 0.86221 0.0
C702 C 0.70634 0.35524 0.88465 0.0
C703 C 0.69162 0.33939 0.88862 0.0
C704 C 0.67664 0.33528 0.86969 0.0
C705 C 0.67647 0.34713 0.84699 0.0
C706 C 0.69148 0.36279 0.84415 0.0
H707 H 0.71778 0.35833 0.89929 0.0
O708 O 0.76948 0.34929 0.84194 0.0
O709 O 0.74422 0.37233 0.83712 0.0
O710 O 0.77056 0.38177 0.87991 0.0
O711 O 0.73701 0.39007 0.88612 0.0
C712 C 0.66229 0.34371 0.82682 0.0
C713 C 0.66345 0.35582 0.80417 0.0
H714 H 0.67084 0.3818 0.76325 0.0
H715 H 0.69887 0.40836 0.76152 0.0
H716 H 0.69185 0.33033 0.90621 0.0
H717 H 0.66544 0.3229 0.87272 0.0
H718 H 0.6506 0.33162 0.8284 0.0
H719 H 0.65261 0.35289 0.78868 0.0
Mn720 Mn 0.60725 0.21462 0.13539 0.0
Mn721 Mn 0.64837 0.18888 0.11129 0.0
C722 C 0.61291 0.21485 0.0914 0.0
C723 C 0.5731 0.21267 0.14934 0.0
C724 C 0.65134 0.23087 0.13872 0.0
O725 O 0.61685 0.19623 0.1652 0.0
O726 O 0.64045 0.1764 0.14468 0.0
C727 C 0.62884 0.14774 0.10168 0.0
N728 N 0.63949 0.16467 0.09284 0.0
C729 C 0.64016 0.15073 0.04989 0.0
C730 C 0.62938 0.13304 0.05856 0.0
C731 C 0.6237 0.13154 0.08458 0.0
C732 C 0.64511 0.16624 0.06789 0.0
H733 H 0.62421 0.14666 0.1216 0.0
C734 C 0.62932 0.18076 0.16432 0.0
O735 O 0.58521 0.22759 0.15728 0.0
O736 O 0.58091 0.19905 0.13366 0.0
N737 N 0.65767 0.19923 0.07881 0.0
C738 C 0.66727 0.2177 0.07333 0.0
C739 C 0.67359 0.22185 0.048 0.0
C740 C 0.67001 0.20698 0.02863 0.0
C741 C 0.66047 0.18794 0.03489 0.0
C742 C 0.65492 0.18447 0.06053 0.0
H743 H 0.66994 0.22927 0.08808 0.0
O744 O 0.60077 0.2286 0.10183 0.0
O745 O 0.62085 0.20108 0.10694 0.0
O746 O 0.63193 0.23432 0.14105 0.0
O747 O 0.6588 0.21393 0.12942 0.0
C748 C 0.6554 0.17266 0.01649 0.0
C749 C 0.64546 0.15398 0.02392 0.0
H750 H 0.62515 0.12065 0.04534 0.0
H751 H 0.61524 0.11801 0.09139 0.0
H752 H 0.68098 0.23658 0.04336 0.0
H753 H 0.67441 0.21046 0.00899 0.0
H754 H 0.65817 0.17566 0.99645 0.0
H755 H 0.64144 0.14251 0.00941 0.0
Mn756 Mn 0.77086 0.61869 0.15569 0.0
Mn757 Mn 0.72024 0.60897 0.14421 0.0
C758 C 0.74773 0.64601 0.15644 0.0
C759 C 0.79806 0.61943 0.18474 0.0
C760 C 0.75262 0.61249 0.10203 0.0
O761 O 0.76897 0.5872 0.15817 0.0
O762 O 0.73466 0.5825 0.15383 0.0
C763 C 0.70816 0.59765 0.19733 0.0
N764 N 0.70539 0.60967 0.17597 0.0
C765 C 0.67684 0.62787 0.19555 0.0
C766 C 0.67928 0.61558 0.2177 0.0
C767 C 0.69505 0.60045 0.21861 0.0
C768 C 0.69037 0.62438 0.17496 0.0
H769 H 0.72029 0.58603 0.19811 0.0
C770 C 0.75299 0.57556 0.15782 0.0
O771 O 0.80155 0.61773 0.16022 0.0
O772 O 0.77894 0.6204 0.19225 0.0
N773 N 0.70381 0.63267 0.13469 0.0
C774 C 0.70386 0.6436 0.11216 0.0
C775 C 0.68919 0.65951 0.10828 0.0
C776 C 0.67441 0.6638 0.12738 0.0
C777 C 0.67438 0.65206 0.15017 0.0
C778 C 0.68932 0.63633 0.15292 0.0
H779 H 0.71514 0.64037 0.09738 0.0
O780 O 0.76743 0.64944 0.15434 0.0
O781 O 0.74203 0.62656 0.15938 0.0
O782 O 0.76806 0.61689 0.11645 0.0
O783 O 0.73443 0.60868 0.11059 0.0
C784 C 0.66039 0.65564 0.1705 0.0
C785 C 0.66166 0.64361 0.19321 0.0
H786 H 0.66922 0.61772 0.23417 0.0
H787 H 0.69709 0.59098 0.23568 0.0
H788 H 0.68931 0.66848 0.09062 0.0
H789 H 0.66325 0.67622 0.12442 0.0
H790 H 0.64875 0.66779 0.169 0.0
H791 H 0.65096 0.64666 0.20881 0.0
Mn792 Mn 0.39158 0.78532 0.13548 0.0
Mn793 Mn 0.35014 0.81098 0.11208 0.0
C794 C 0.38534 0.78492 0.09159 0.0
C795 C 0.42593 0.78711 0.14873 0.0
C796 C 0.34753 0.76901 0.13961 0.0
O797 O 0.38241 0.80381 0.16542 0.0
O798 O 0.35844 0.82348 0.14533 0.0
C799 C 0.36961 0.8521 0.10214 0.0
N800 N 0.35881 0.8352 0.09349 0.0
C801 C 0.35772 0.84912 0.05054 0.0
C802 C 0.36863 0.86679 0.05902 0.0
C803 C 0.3746 0.86828 0.08494 0.0
C804 C 0.3529 0.83364 0.06865 0.0
H805 H 0.3745 0.85316 0.12196 0.0
C806 C 0.36987 0.81922 0.16474 0.0
O807 O 0.41382 0.77232 0.15701 0.0
O808 O 0.41799 0.80074 0.13315 0.0
N809 N 0.34045 0.80065 0.07977 0.0
C810 C 0.33081 0.78217 0.07445 0.0
C811 C 0.32417 0.77804 0.04924 0.0
C812 C 0.32752 0.79293 0.02982 0.0
C813 C 0.33717 0.81195 0.03591 0.0
C814 C 0.34299 0.81542 0.06145 0.0
H815 H 0.32833 0.77059 0.08924 0.0
O816 O 0.39758 0.7712 0.10188 0.0
O817 O 0.37763 0.79878 0.1072 0.0
O818 O 0.36697 0.76567 0.14171 0.0
O819 O 0.33992 0.7859 0.13037 0.0
C820 C 0.34205 0.82722 0.01743 0.0
C821 C 0.35215 0.84586 0.02467 0.0
H822 H 0.37275 0.87916 0.04572 0.0
H823 H 0.38318 0.88178 0.0916 0.0
H824 H 0.31673 0.76332 0.04472 0.0
H825 H 0.32288 0.78945 0.01026 0.0
H826 H 0.33894 0.82429 0.99745 0.0
H827 H 0.35603 0.85731 0.01008 0.0
Mn828 Mn 0.22708 0.38006 0.15625 0.0
Mn829 Mn 0.27783 0.38966 0.14573 0.0
C830 C 0.25011 0.35264 0.15729 0.0
C831 C 0.19968 0.37938 0.18501 0.0
C832 C 0.24579 0.3867 0.10302 0.0
O833 O 0.22913 0.41157 0.15881 0.0
O834 O 0.26358 0.41605 0.15595 0.0
C835 C 0.28983 0.39994 0.1992 0.0
N836 N 0.29256 0.38827 0.17754 0.0
C837 C 0.32088 0.36946 0.19678 0.0
C838 C 0.31847 0.38138 0.21923 0.0
C839 C 0.30284 0.39664 0.22047 0.0
C840 C 0.30745 0.37345 0.17621 0.0
H841 H 0.2778 0.41166 0.20022 0.0
C842 C 0.24521 0.42308 0.15935 0.0
O843 O 0.19635 0.38112 0.16045 0.0
O844 O 0.21874 0.37837 0.1927 0.0
N845 N 0.29405 0.36596 0.13568 0.0
C846 C 0.29395 0.35542 0.11288 0.0
C847 C 0.30845 0.3394 0.10868 0.0
C848 C 0.32312 0.33463 0.12774 0.0
C849 C 0.32322 0.346 0.15081 0.0
C850 C 0.30844 0.36185 0.15388 0.0
H851 H 0.2828 0.35907 0.09809 0.0
O852 O 0.23041 0.34928 0.15491 0.0
O853 O 0.25582 0.37207 0.16033 0.0
O854 O 0.23025 0.38185 0.11705 0.0
O855 O 0.2638 0.39069 0.11205 0.0
C856 C 0.33712 0.34193 0.17111 0.0
C857 C 0.3359 0.3536 0.19411 0.0
H858 H 0.32845 0.37886 0.2357 0.0
H859 H 0.30082 0.40584 0.23777 0.0
H860 H 0.30831 0.33074 0.09079 0.0
H861 H 0.33416 0.32213 0.12452 0.0
H862 H 0.34862 0.32968 0.16936 0.0
H863 H 0.34651 0.35017 0.20969 0.0
Mn864 Mn 0.38505 0.20984 0.13988 0.0
Mn865 Mn 0.34288 0.1831 0.12027 0.0
C866 C 0.37691 0.20864 0.09661 0.0
C867 C 0.41984 0.20985 0.1514 0.0
C868 C 0.34083 0.22699 0.14216 0.0
O869 O 0.37769 0.19292 0.17154 0.0
O870 O 0.35033 0.17537 0.15604 0.0
C871 C 0.3622 0.1411 0.11995 0.0
N872 N 0.35144 0.15643 0.10762 0.0
C873 C 0.34569 0.13432 0.07092 0.0
C874 C 0.35668 0.11824 0.0832 0.0
C875 C 0.36514 0.12172 0.10773 0.0
C876 C 0.34382 0.15349 0.08372 0.0
H877 H 0.36837 0.1436 0.13902 0.0
C878 C 0.36316 0.17966 0.174 0.0
O879 O 0.40744 0.22452 0.15929 0.0
O880 O 0.41196 0.19526 0.1371 0.0
N881 N 0.33319 0.18825 0.08612 0.0
C882 C 0.32327 0.20547 0.07681 0.0
C883 C 0.31375 0.20457 0.05256 0.0
C884 C 0.31396 0.1858 0.03853 0.0
C885 C 0.32423 0.16824 0.04852 0.0
C886 C 0.33381 0.17022 0.07252 0.0
H887 H 0.32248 0.21972 0.08792 0.0
O888 O 0.38929 0.22281 0.10564 0.0
O889 O 0.37037 0.19465 0.11297 0.0
O890 O 0.3602 0.22915 0.14641 0.0
O891 O 0.33283 0.21046 0.13249 0.0
C892 C 0.32512 0.14878 0.03576 0.0
C893 C 0.33619 0.13197 0.0467 0.0
H894 H 0.35865 0.10315 0.07402 0.0
H895 H 0.37364 0.1094 0.11736 0.0
H896 H 0.30588 0.21818 0.04494 0.0
H897 H 0.30619 0.18503 0.02008 0.0
H898 H 0.31755 0.14665 0.01735 0.0
H899 H 0.33709 0.11723 0.03646 0.0
Mn900 Mn 0.77262 0.38732 0.12942 0.0
Mn901 Mn 0.79946 0.34774 0.10226 0.0
C902 C 0.77103 0.3826 0.08568 0.0
C903 C 0.7718 0.42149 0.14471 0.0
C904 C 0.75881 0.34166 0.13074 0.0
O905 O 0.7924 0.37836 0.15752 0.0
O906 O 0.81143 0.3542 0.13669 0.0
C907 C 0.83945 0.36948 0.09462 0.0
N908 N 0.82312 0.35866 0.08475 0.0
C909 C 0.8376 0.35996 0.04212 0.0
C910 C 0.85466 0.37099 0.05186 0.0
C911 C 0.85556 0.37581 0.07822 0.0
C912 C 0.82207 0.35398 0.05942 0.0
H913 H 0.84015 0.37327 0.11485 0.0
C914 C 0.80734 0.36536 0.15654 0.0
O915 O 0.75871 0.40756 0.15292 0.0
O916 O 0.78556 0.41541 0.12814 0.0
N917 N 0.78982 0.33968 0.06889 0.0
C918 C 0.77193 0.32966 0.06241 0.0
C919 C 0.76837 0.32416 0.03663 0.0
C920 C 0.78332 0.32878 0.01785 0.0
C921 C 0.80178 0.33875 0.02505 0.0
C922 C 0.80452 0.34374 0.05106 0.0
H923 H 0.76039 0.32605 0.07677 0.0
O924 O 0.75703 0.39354 0.09747 0.0
O925 O 0.78606 0.37525 0.09977 0.0
O926 O 0.75515 0.36095 0.13527 0.0
O927 O 0.77512 0.33516 0.11931 0.0
C928 C 0.81736 0.34431 0.00736 0.0
C929 C 0.83524 0.35494 0.01588 0.0
H930 H 0.86707 0.37598 0.03926 0.0
H931 H 0.86862 0.38441 0.08585 0.0
H932 H 0.7541 0.31643 0.03124 0.0
H933 H 0.78043 0.32469 0.99794 0.0
H934 H 0.81563 0.34074 0.9871 0.0
H935 H 0.847 0.35936 0.00205 0.0
Mn936 Mn 0.61413 0.79049 0.13851 0.0
Mn937 Mn 0.65677 0.81651 0.11898 0.0
C938 C 0.6222 0.79176 0.09522 0.0
C939 C 0.57936 0.79117 0.15011 0.0
C940 C 0.65802 0.77245 0.14052 0.0
O941 O 0.62193 0.80704 0.17032 0.0
O942 O 0.64951 0.82423 0.1548 0.0
C943 C 0.63822 0.85886 0.11898 0.0
N944 N 0.64869 0.84338 0.10652 0.0
C945 C 0.6548 0.86555 0.06996 0.0
C946 C 0.64413 0.88178 0.08237 0.0
C947 C 0.63563 0.87835 0.1069 0.0
C948 C 0.65632 0.84629 0.08262 0.0
H949 H 0.63203 0.85639 0.13804 0.0
C950 C 0.63667 0.82006 0.17279 0.0
O951 O 0.59145 0.77618 0.15784 0.0
O952 O 0.58755 0.80568 0.13595 0.0
N953 N 0.66631 0.81133 0.08477 0.0
C954 C 0.6759 0.79396 0.07533 0.0
C955 C 0.68541 0.79479 0.05106 0.0
C956 C 0.68552 0.81363 0.03715 0.0
C957 C 0.67559 0.83132 0.04728 0.0
C958 C 0.666 0.82942 0.07129 0.0
H959 H 0.67646 0.77965 0.08634 0.0
O960 O 0.60954 0.77781 0.10418 0.0
O961 O 0.62906 0.80551 0.11168 0.0
O962 O 0.63861 0.77062 0.14478 0.0
O963 O 0.66631 0.78889 0.131 0.0
C964 C 0.67505 0.85086 0.03466 0.0
C965 C 0.66431 0.86783 0.04574 0.0
H966 H 0.64243 0.89694 0.0733 0.0
H967 H 0.62738 0.89078 0.11662 0.0
H968 H 0.69301 0.78107 0.04333 0.0
H969 H 0.69328 0.81433 0.01869 0.0
H970 H 0.68263 0.85293 0.01625 0.0
H971 H 0.66367 0.88263 0.0356 0.0
Mn972 Mn 0.22801 0.61127 0.12936 0.0
Mn973 Mn 0.2015 0.65066 0.10131 0.0
C974 C 0.23039 0.61588 0.08567 0.0
C975 C 0.22845 0.57716 0.14486 0.0
C976 C 0.24154 0.65699 0.13106 0.0
O977 O 0.2077 0.62027 0.15681 0.0
O978 O 0.18877 0.64412 0.13529 0.0
C979 C 0.16184 0.62867 0.09221 0.0
N980 N 0.17834 0.63959 0.08294 0.0
C981 C 0.16496 0.63806 0.03977 0.0
C982 C 0.14774 0.62692 0.04888 0.0
C983 C 0.14621 0.62218 0.07521 0.0
C984 C 0.17999 0.64421 0.05764 0.0
H985 H 0.16066 0.62492 0.11242 0.0
C986 C 0.19262 0.63306 0.15531 0.0
O987 O 0.24145 0.59107 0.15336 0.0
O988 O 0.21508 0.58321 0.1278 0.0
N989 N 0.21188 0.65879 0.0683 0.0
C990 C 0.22983 0.66896 0.06249 0.0
C991 C 0.23399 0.67446 0.03685 0.0
C992 C 0.21957 0.66963 0.0175 0.0
C993 C 0.20104 0.65949 0.02401 0.0
C994 C 0.19767 0.65456 0.04993 0.0
H995 H 0.24097 0.67271 0.07728 0.0
O996 O 0.24421 0.60498 0.09787 0.0
O997 O 0.21512 0.62324 0.09933 0.0
O998 O 0.24531 0.63772 0.13559 0.0
O999 O 0.22535 0.66337 0.11925 0.0
C1000 C 0.18598 0.65372 0.00573 0.0
C1001 C 0.16797 0.64298 0.0136 0.0
H1002 H 0.1357 0.62179 0.03582 0.0
H1003 H 0.13302 0.6135 0.08237 0.0
H1004 H 0.24831 0.68231 0.03199 0.0
H1005 H 0.22293 0.67369 0.9977 0.0
H1006 H 0.18821 0.65722 0.98553 0.0
H1007 H 0.15661 0.6384 -0.00067 0.0
Mn1008 Mn 0.38447 0.79067 0.85687 0.0
Mn1009 Mn 0.34143 0.81585 0.87676 0.0
C1010 C 0.37651 0.79165 0.90024 0.0
C1011 C 0.41922 0.79191 0.84518 0.0
C1012 C 0.34088 0.77189 0.85489 0.0
O1013 O 0.37633 0.80728 0.82522 0.0
O1014 O 0.34849 0.8239 0.84099 0.0
C1015 C 0.35922 0.85854 0.87711 0.0
N1016 N 0.34902 0.84281 0.88943 0.0
C1017 C 0.34254 0.86465 0.9262 0.0
C1018 C 0.35294 0.88113 0.91393 0.0
C1019 C 0.36148 0.87799 0.88936 0.0
C1020 C 0.34133 0.84544 0.91335 0.0
H1021 H 0.36546 0.85628 0.85803 0.0
C1022 C 0.36135 0.82006 0.82292 0.0
O1023 O 0.40731 0.7768 0.83737 0.0
O1024 O 0.41086 0.80625 0.85944 0.0
N1025 N 0.33204 0.8103 0.91094 0.0
C1026 C 0.32284 0.79268 0.92028 0.0
C1027 C 0.31332 0.79319 0.94455 0.0
C1028 C 0.31282 0.81196 0.95859 0.0
C1029 C 0.3224 0.82991 0.9486 0.0
C1030 C 0.33197 0.82834 0.92454 0.0
H1031 H 0.32259 0.77841 0.90917 0.0
O1032 O 0.38934 0.77793 0.89112 0.0
O1033 O 0.36937 0.80534 0.88388 0.0
O1034 O 0.36031 0.77041 0.85056 0.0
O1035 O 0.33235 0.78814 0.86454 0.0
C1036 C 0.32263 0.84936 0.96142 0.0
C1037 C 0.33305 0.8666 0.95047 0.0
H1038 H 0.35439 0.89626 0.92314 0.0
H1039 H 0.36952 0.89063 0.87975 0.0
H1040 H 0.306 0.77928 0.95218 0.0
H1041 H 0.30504 0.81242 0.97705 0.0
H1042 H 0.31506 0.85118 0.97988 0.0
H1043 H 0.33345 0.88133 0.96075 0.0
Mn1044 Mn 0.22801 0.38734 0.86818 0.0
Mn1045 Mn 0.20215 0.34766 0.89661 0.0
C1046 C 0.23099 0.38262 0.91179 0.0
C1047 C 0.22814 0.4215 0.8528 0.0
C1048 C 0.24202 0.34171 0.86641 0.0
O1049 O 0.20745 0.37826 0.84103 0.0
O1050 O 0.18918 0.35401 0.86271 0.0
C1051 C 0.16239 0.3694 0.90592 0.0
N1052 N 0.17902 0.35865 0.91512 0.0
C1053 C 0.16597 0.36045 0.95843 0.0
C1054 C 0.14862 0.37141 0.94939 0.0
C1055 C 0.14685 0.37593 0.92303 0.0
C1056 C 0.18092 0.35427 0.94046 0.0
H1057 H 0.16102 0.37298 0.88568 0.0
C1058 C 0.19262 0.36518 0.84269 0.0
O1059 O 0.24108 0.40766 0.84402 0.0
O1060 O 0.21496 0.41535 0.87003 0.0
N1061 N 0.21275 0.33968 0.92957 0.0
C1062 C 0.23066 0.32939 0.93523 0.0
C1063 C 0.23497 0.32398 0.96087 0.0
C1064 C 0.22074 0.32899 0.98035 0.0
C1065 C 0.20221 0.33919 0.97398 0.0
C1066 C 0.19868 0.34403 0.94807 0.0
H1067 H 0.24166 0.32548 0.92035 0.0
O1068 O 0.24454 0.39366 0.89936 0.0
O1069 O 0.21557 0.3752 0.89843 0.0
O1070 O 0.24541 0.36101 0.8616 0.0
O1071 O 0.22606 0.33514 0.87855 0.0
C1072 C 0.18726 0.34504 0.99237 0.0
C1073 C 0.16918 0.3557 0.98461 0.0
H1074 H 0.13664 0.37655 0.96254 0.0
H1075 H 0.13355 0.38447 0.91593 0.0
H1076 H 0.24928 0.31604 0.96562 0.0
H1077 H 0.22422 0.32499 0.00014 0.0
H1078 H 0.18963 0.34161 0.01257 0.0
H1079 H 0.15789 0.36029 -0.00105 0.0
Mn1080 Mn 0.61462 0.20969 0.85691 0.0
Mn1081 Mn 0.65702 0.18356 0.877 0.0
C1082 C 0.62262 0.20884 0.90023 0.0
C1083 C 0.57984 0.20907 0.8453 0.0
C1084 C 0.65865 0.22737 0.85472 0.0
O1085 O 0.62233 0.1927 0.82543 0.0
O1086 O 0.64974 0.17545 0.84132 0.0
C1087 C 0.63818 0.14134 0.87778 0.0
N1088 N 0.64875 0.15689 0.88995 0.0
C1089 C 0.65483 0.13509 0.92686 0.0
C1090 C 0.64404 0.11879 0.91475 0.0
C1091 C 0.6355 0.122 0.8902 0.0
C1092 C 0.65643 0.15421 0.91387 0.0
H1093 H 0.63197 0.14363 0.8587 0.0
C1094 C 0.63696 0.17951 0.82323 0.0
O1095 O 0.592 0.22392 0.83732 0.0
O1096 O 0.58795 0.19469 0.8597 0.0
N1097 N 0.66658 0.18909 0.91111 0.0
C1098 C 0.67626 0.20652 0.92025 0.0
C1099 C 0.68582 0.20591 0.9445 0.0
C1100 C 0.68589 0.18721 0.9587 0.0
C1101 C 0.67587 0.16945 0.94888 0.0
C1102 C 0.66622 0.17114 0.92488 0.0
H1103 H 0.67686 0.2207 0.909 0.0
O1104 O 0.61007 0.22279 0.89102 0.0
O1105 O 0.62939 0.19485 0.88403 0.0
O1106 O 0.63926 0.22935 0.85038 0.0
O1107 O 0.66676 0.21093 0.86449 0.0
C1108 C 0.67526 0.15006 0.96182 0.0
C1109 C 0.6644 0.13303 0.95107 0.0
H1110 H 0.64228 0.10374 0.92408 0.0
H1111 H 0.62716 0.10951 0.88071 0.0
H1112 H 0.69349 0.21967 0.95198 0.0
H1113 H 0.69367 0.18667 0.97715 0.0
H1114 H 0.68286 0.14816 0.98025 0.0
H1115 H 0.6637 0.11835 0.96146 0.0
Mn1116 Mn 0.76975 0.61189 0.86704 0.0
Mn1117 Mn 0.79606 0.65153 0.89485 0.0
C1118 C 0.7677 0.61643 0.91078 0.0
C1119 C 0.76937 0.57776 0.85158 0.0
C1120 C 0.75571 0.65748 0.86561 0.0
O1121 O 0.7898 0.62107 0.83935 0.0
O1122 O 0.80855 0.64517 0.86069 0.0
C1123 C 0.83608 0.63005 0.90331 0.0
N1124 N 0.81954 0.64075 0.91286 0.0
C1125 C 0.83344 0.63952 0.95578 0.0
C1126 C 0.85071 0.62861 0.94639 0.0
C1127 C 0.852 0.62382 0.92005 0.0
C1128 C 0.81811 0.6454 0.93816 0.0
H1129 H 0.83708 0.62628 0.8831 0.0
C1130 C 0.80473 0.63406 0.84072 0.0
O1131 O 0.75626 0.5916 0.84321 0.0
O1132 O 0.78287 0.58389 0.86843 0.0
N1133 N 0.78588 0.65946 0.92803 0.0
C1134 C 0.7678 0.66927 0.93416 0.0
C1135 C 0.76383 0.67469 0.95987 0.0
C1136 C 0.77857 0.67018 0.97896 0.0
C1137 C 0.79722 0.66041 0.97213 0.0
C1138 C 0.80037 0.65549 0.94617 0.0
H1139 H 0.75642 0.67279 0.91957 0.0
O1140 O 0.75386 0.60548 0.89873 0.0
O1141 O 0.7828 0.62394 0.89695 0.0
O1142 O 0.75217 0.63818 0.861 0.0
O1143 O 0.77189 0.66401 0.87731 0.0
C1144 C 0.8126 0.65494 0.99014 0.0
C1145 C 0.83069 0.64447 0.98197 0.0
H1146 H 0.86298 0.6237 0.95925 0.0
H1147 H 0.86523 0.61532 0.91268 0.0
H1148 H 0.74942 0.68226 0.96499 0.0
H1149 H 0.77537 0.6742 -0.00119 0.0
H1150 H 0.81055 0.65846 0.01037 0.0
H1151 H 0.84228 0.64012 0.99605 0.0
H1152 H 0.26398 0.19833 0.35778 0.0
H1153 H 0.14398 0.22716 0.35195 0.0
H1154 H 0.216 0.15135 0.35503 0.0
H1155 H 0.19379 0.27216 0.34876 0.0
H1156 H 0.16952 0.19889 0.34826 0.0
H1157 H 0.23811 0.22519 0.34989 0.0
C1158 C 0.24798 0.19364 0.35534 0.0
C1159 C 0.24213 0.17256 0.35735 0.0
C1160 C 0.17479 0.21498 0.34801 0.0
C1161 C 0.21222 0.20343 0.34852 0.0
C1162 C 0.16021 0.23113 0.35001 0.0
C1163 C 0.16676 0.25208 0.35102 0.0
C1164 C 0.196 0.21987 0.34702 0.0
C1165 C 0.188 0.25626 0.34846 0.0
C1166 C 0.23317 0.20902 0.35077 0.0
C1167 C 0.22118 0.16743 0.35369 0.0
N1168 N 0.20181 0.24034 0.34684 0.0
N1169 N 0.20691 0.1828 0.34978 0.0
H1170 H 0.77915 0.1543 0.30414 0.0
H1171 H 0.85232 0.23349 0.32898 0.0
H1172 H 0.75196 0.17636 0.37476 0.0
H1173 H 0.80132 0.26355 0.36811 0.0
H1174 H 0.83053 0.2026 0.32237 0.0
H1175 H 0.80228 0.18491 0.30397 0.0
C1176 C 0.77843 0.16541 0.31985 0.0
C1177 C 0.76453 0.16245 0.3402 0.0
C1178 C 0.82404 0.21613 0.33193 0.0
C1179 C 0.79021 0.19746 0.33988 0.0
C1180 C 0.83651 0.23372 0.33592 0.0
C1181 C 0.82867 0.2512 0.34913 0.0
C1182 C 0.80367 0.21604 0.3414 0.0
C1183 C 0.80808 0.25053 0.35777 0.0
C1184 C 0.79151 0.18285 0.31972 0.0
C1185 C 0.76307 0.17783 0.35925 0.0
N1186 N 0.7964 0.23317 0.35401 0.0
N1187 N 0.77586 0.19465 0.35872 0.0
H1188 H 0.80579 0.72427 0.34799 0.0
H1189 H 0.78278 0.84714 0.35357 0.0
H1190 H 0.85429 0.77067 0.35185 0.0
H1191 H 0.73674 0.79865 0.36223 0.0
H1192 H 0.80895 0.8201 0.34538 0.0
H1193 H 0.78027 0.75211 0.34493 0.0
C1194 C 0.81112 0.74034 0.34791 0.0
C1195 C 0.83223 0.74512 0.35056 0.0
C1196 C 0.79307 0.81546 0.34884 0.0
C1197 C 0.8029 0.77723 0.34734 0.0
C1198 C 0.77811 0.83086 0.35344 0.0
C1199 C 0.75755 0.82516 0.35887 0.0
C1200 C 0.78736 0.79425 0.34946 0.0
C1201 C 0.75241 0.80382 0.35847 0.0
C1202 C 0.79649 0.75627 0.34621 0.0
C1203 C 0.83818 0.76627 0.34996 0.0
N1204 N 0.7672 0.7892 0.35399 0.0
N1205 N 0.82354 0.78159 0.34875 0.0
H1206 H 0.14916 0.76355 0.32706 0.0
H1207 H 0.24918 0.82197 0.37684 0.0
H1208 H 0.19778 0.73231 0.36936 0.0
H1209 H 0.22064 0.84047 0.30548 0.0
H1210 H 0.22722 0.79082 0.37782 0.0
H1211 H 0.17207 0.79396 0.3218 0.0
C1212 C 0.16461 0.76301 0.33512 0.0
C1213 C 0.17148 0.74536 0.34881 0.0
C1214 C 0.22568 0.80171 0.36197 0.0
C1215 C 0.19745 0.78002 0.34312 0.0
C1216 C 0.23808 0.81948 0.36151 0.0
C1217 C 0.23593 0.83409 0.34166 0.0
C1218 C 0.21115 0.79848 0.3423 0.0
C1219 C 0.22195 0.82992 0.3217 0.0
C1220 C 0.17765 0.78031 0.33202 0.0
C1221 C 0.19172 0.74552 0.35874 0.0
N1222 N 0.20977 0.81255 0.32267 0.0
N1223 N 0.20386 0.76265 0.35594 0.0
H1224 H 0.19235 0.72573 0.64841 0.0
H1225 H 0.21328 0.84899 0.64321 0.0
H1226 H 0.14308 0.77127 0.64427 0.0
H1227 H 0.26033 0.8013 0.63652 0.0
H1228 H 0.18744 0.82153 0.65101 0.0
H1229 H 0.21734 0.754 0.65213 0.0
C1230 C 0.18673 0.7417 0.64857 0.0
C1231 C 0.16557 0.74611 0.64566 0.0
C1232 C 0.20347 0.81716 0.64808 0.0
C1233 C 0.1943 0.77874 0.64962 0.0
C1234 C 0.21823 0.83281 0.64371 0.0
C1235 C 0.23898 0.82744 0.63892 0.0
C1236 C 0.20957 0.79605 0.64786 0.0
C1237 C 0.2445 0.80621 0.63977 0.0
C1238 C 0.20106 0.75788 0.65065 0.0
C1239 C 0.15925 0.76715 0.64637 0.0
N1240 N 0.2299 0.79135 0.64399 0.0
N1241 N 0.1736 0.78273 0.64792 0.0
H1242 H 0.24961 0.17758 0.61857 0.0
H1243 H 0.20075 0.27213 0.63376 0.0
H1244 H 0.22134 0.16079 0.69075 0.0
H1245 H 0.15032 0.235 0.66391 0.0
H1246 H 0.22359 0.24213 0.63814 0.0
H1247 H 0.22825 0.20913 0.61713 0.0
C1248 C 0.23876 0.18058 0.63404 0.0
C1249 C 0.23654 0.16636 0.6543 0.0
C1250 C 0.2075 0.24055 0.64368 0.0
C1251 C 0.21274 0.20265 0.65339 0.0
C1252 C 0.19443 0.25772 0.6414 0.0
C1253 C 0.17342 0.25607 0.64813 0.0
C1254 C 0.19963 0.22152 0.65282 0.0
C1255 C 0.16633 0.23693 0.6582 0.0
C1256 C 0.22677 0.19863 0.63337 0.0
C1257 C 0.22277 0.1711 0.67432 0.0
N1258 N 0.17944 0.22032 0.66022 0.0
N1259 N 0.21108 0.18882 0.67322 0.0
H1260 H 0.73561 0.19925 0.6298 0.0
H1261 H 0.80864 0.27299 0.65881 0.0
H1262 H 0.78188 0.15235 0.64633 0.0
H1263 H 0.85311 0.22539 0.63857 0.0
H1264 H 0.78198 0.24623 0.66215 0.0
H1265 H 0.76098 0.22631 0.63792 0.0
C1266 C 0.75106 0.19461 0.63555 0.0
C1267 C 0.75656 0.17342 0.63735 0.0
C1268 C 0.79748 0.24156 0.65673 0.0
C1269 C 0.78588 0.20465 0.64749 0.0
C1270 C 0.8128 0.25684 0.65516 0.0
C1271 C 0.83303 0.25145 0.64795 0.0
C1272 C 0.80227 0.22074 0.65041 0.0
C1273 C 0.83765 0.23022 0.64402 0.0
C1274 C 0.76557 0.21018 0.64056 0.0
C1275 C 0.77691 0.16848 0.6448 0.0
N1276 N 0.82229 0.21563 0.64493 0.0
N1277 N 0.79092 0.18399 0.6493 0.0
H1278 H 0.84938 0.76133 0.66896 0.0
H1279 H 0.75022 0.82199 0.62012 0.0
H1280 H 0.80076 0.73165 0.625 0.0
H1281 H 0.77989 0.83956 0.69112 0.0
H1282 H 0.77143 0.79033 0.61866 0.0
H1283 H 0.82687 0.79194 0.6748 0.0
C1284 C 0.834 0.76118 0.66065 0.0
C1285 C 0.82702 0.7439 0.64634 0.0
C1286 C 0.77337 0.80111 0.63455 0.0
C1287 C 0.80148 0.77883 0.65272 0.0
C1288 C 0.76139 0.81917 0.63529 0.0
C1289 C 0.76411 0.83368 0.65515 0.0
C1290 C 0.78804 0.79748 0.65395 0.0
C1291 C 0.77816 0.8291 0.67489 0.0
C1292 C 0.82119 0.7786 0.66408 0.0
C1293 C 0.80689 0.74456 0.63611 0.0
N1294 N 0.78991 0.81144 0.67365 0.0
N1295 N 0.79495 0.76181 0.63927 0.0
H1296 H 0.69249 0.77451 0.84756 0.0
H1297 H 0.71462 0.65147 0.85329 0.0
H1298 H 0.64365 0.72848 0.85135 0.0
H1299 H 0.76109 0.69964 0.86098 0.0
H1300 H 0.68859 0.67867 0.84515 0.0
H1301 H 0.71779 0.74648 0.84436 0.0
C1302 C 0.68704 0.75848 0.84743 0.0
C1303 C 0.66589 0.75386 0.85009 0.0
C1304 C 0.70453 0.68321 0.84838 0.0
C1305 C 0.69499 0.72152 0.84673 0.0
C1306 C 0.71941 0.66771 0.85295 0.0
C1307 C 0.74005 0.67328 0.8581 0.0
C1308 C 0.71041 0.70438 0.84876 0.0
C1309 C 0.74535 0.69457 0.85744 0.0
C1310 C 0.70154 0.74244 0.84565 0.0
C1311 C 0.65979 0.73276 0.84944 0.0
N1312 N 0.73064 0.70928 0.85301 0.0
N1313 N 0.67431 0.71732 0.84817 0.0
H1314 H 0.25022 0.67606 0.87656 0.0
H1315 H 0.35009 0.73578 0.82805 0.0
H1316 H 0.2796 0.65803 0.80554 0.0
H1317 H 0.30095 0.76607 0.87048 0.0
H1318 H 0.32767 0.70501 0.82262 0.0
H1319 H 0.27206 0.70727 0.87816 0.0
C1320 C 0.26148 0.67866 0.86143 0.0
C1321 C 0.26388 0.66417 0.84149 0.0
C1322 C 0.32187 0.71853 0.83291 0.0
C1323 C 0.28854 0.69987 0.84284 0.0
C1324 C 0.33463 0.73604 0.83611 0.0
C1325 C 0.32746 0.75355 0.84985 0.0
C1326 C 0.30204 0.71848 0.84393 0.0
C1327 C 0.30724 0.753 0.85979 0.0
C1328 C 0.27382 0.69646 0.86225 0.0
C1329 C 0.27808 0.66848 0.82181 0.0
N1330 N 0.29536 0.73569 0.85686 0.0
N1331 N 0.29017 0.68591 0.82312 0.0
H1332 H 0.30636 0.22519 0.84944 0.0
H1333 H 0.28287 0.348 0.85318 0.0
H1334 H 0.35465 0.27187 0.85189 0.0
H1335 H 0.23698 0.29944 0.86242 0.0
H1336 H 0.30909 0.32099 0.84513 0.0
H1337 H 0.28069 0.25285 0.846 0.0
C1338 C 0.31161 0.24128 0.84897 0.0
C1339 C 0.33272 0.24619 0.85133 0.0
C1340 C 0.29323 0.31632 0.84867 0.0
C1341 C 0.3032 0.27812 0.84766 0.0
C1342 C 0.27824 0.33171 0.85318 0.0
C1343 C 0.25771 0.32598 0.85876 0.0
C1344 C 0.28759 0.2951 0.84954 0.0
C1345 C 0.25263 0.30463 0.85853 0.0
C1346 C 0.2969 0.25711 0.84705 0.0
C1347 C 0.33855 0.26736 0.85024 0.0
N1348 N 0.26745 0.29002 0.85415 0.0
N1349 N 0.32383 0.28259 0.84882 0.0
H1350 H 0.69882 0.2319 0.86997 0.0
H1351 H 0.72031 0.34205 0.80437 0.0
H1352 H 0.65041 0.26381 0.82802 0.0
H1353 H 0.74877 0.32217 0.87522 0.0
H1354 H 0.69795 0.31072 0.80558 0.0
H1355 H 0.72106 0.26221 0.86437 0.0
C1356 C 0.69285 0.2452 0.85941 0.0
C1357 C 0.67257 0.24532 0.84964 0.0
C1358 C 0.70901 0.31338 0.8209 0.0
C1359 C 0.69821 0.2801 0.84306 0.0
C1360 C 0.72155 0.33123 0.82034 0.0
C1361 C 0.73556 0.33499 0.84039 0.0
C1362 C 0.71115 0.29906 0.84122 0.0
C1363 C 0.73762 0.32004 0.85987 0.0
C1364 C 0.70559 0.26254 0.85631 0.0
C1365 C 0.66586 0.26309 0.83604 0.0
N1366 N 0.72546 0.30277 0.85989 0.0
N1367 N 0.67869 0.27985 0.83312 0.0
H1368 H 0.64399 0.27309 0.14499 0.0
H1369 H 0.76443 0.29963 0.13635 0.0
H1370 H 0.69295 0.22709 0.14615 0.0
H1371 H 0.71744 0.3475 0.14157 0.0
H1372 H 0.73815 0.27316 0.14414 0.0
H1373 H 0.67016 0.30081 0.1483 0.0
C1374 C 0.66017 0.26879 0.1464 0.0
C1375 C 0.66628 0.24772 0.14493 0.0
C1376 C 0.73353 0.28945 0.14382 0.0
C1377 C 0.69623 0.2793 0.14848 0.0
C1378 C 0.74857 0.30461 0.13929 0.0
C1379 C 0.74312 0.32583 0.13803 0.0
C1380 C 0.71274 0.29542 0.14681 0.0
C1381 C 0.72232 0.33131 0.14231 0.0
C1382 C 0.6751 0.28462 0.14818 0.0
C1383 C 0.68748 0.24309 0.14681 0.0
N1384 N 0.70782 0.31616 0.1462 0.0
N1385 N 0.70163 0.25872 0.14823 0.0
H1386 H 0.71842 0.65747 0.19189 0.0
H1387 H 0.69799 0.76722 0.12475 0.0
H1388 H 0.74683 0.67621 0.12054 0.0
H1389 H 0.64946 0.73633 0.16763 0.0
H1390 H 0.71986 0.73663 0.13049 0.0
H1391 H 0.69641 0.68904 0.19025 0.0
C1392 C 0.71971 0.66809 0.17573 0.0
C1393 C 0.73361 0.66394 0.15567 0.0
C1394 C 0.70444 0.73659 0.13871 0.0
C1395 C 0.70962 0.70014 0.15435 0.0
C1396 C 0.69192 0.75408 0.13553 0.0
C1397 C 0.67172 0.75433 0.14553 0.0
C1398 C 0.69692 0.71925 0.1523 0.0
C1399 C 0.66486 0.73676 0.15942 0.0
C1400 C 0.70738 0.68608 0.17492 0.0
C1401 C 0.73577 0.67864 0.13591 0.0
N1402 N 0.67748 0.71986 0.16243 0.0
N1403 N 0.72381 0.69606 0.13566 0.0
H1404 H 0.23529 0.69887 0.13719 0.0
H1405 H 0.35534 0.72693 0.14627 0.0
H1406 H 0.28291 0.65164 0.14222 0.0
H1407 H 0.30583 0.77234 0.1469 0.0
H1408 H 0.32952 0.69892 0.14966 0.0
H1409 H 0.26117 0.72567 0.14531 0.0
C1410 C 0.25121 0.6941 0.14017 0.0
C1411 C 0.25696 0.67297 0.13873 0.0
C1412 C 0.32437 0.71504 0.14942 0.0
C1413 C 0.28689 0.70376 0.14787 0.0
C1414 C 0.33911 0.73105 0.14759 0.0
C1415 C 0.33275 0.75204 0.14594 0.0
C1416 C 0.30319 0.7201 0.14959 0.0
C1417 C 0.31149 0.75641 0.14771 0.0
C1418 C 0.26602 0.70945 0.14488 0.0
C1419 C 0.27781 0.66776 0.14309 0.0
N1420 N 0.29753 0.74061 0.14917 0.0
N1421 N 0.2921 0.68309 0.14714 0.0
H1422 H 0.27887 0.34115 0.19336 0.0
H1423 H 0.30078 0.23164 0.12637 0.0
H1424 H 0.25147 0.32245 0.12139 0.0
H1425 H 0.3488 0.26311 0.1695 0.0
H1426 H 0.27851 0.26195 0.13208 0.0
H1427 H 0.30098 0.30965 0.19211 0.0
C1428 C 0.27782 0.33055 0.17715 0.0
C1429 C 0.2642 0.3347 0.1568 0.0
C1430 C 0.2939 0.26217 0.14037 0.0
C1431 C 0.28829 0.29858 0.1559 0.0
C1432 C 0.30665 0.24484 0.13722 0.0
C1433 C 0.32683 0.24486 0.14727 0.0
C1434 C 0.30117 0.27959 0.154 0.0
C1435 C 0.33342 0.26249 0.16124 0.0
C1436 C 0.29021 0.3126 0.17656 0.0
C1437 C 0.26233 0.32002 0.13698 0.0
N1438 N 0.32059 0.27922 0.16422 0.0
N1439 N 0.27434 0.30264 0.13693 0.0
H1440 H 0.94455 0.25874 0.32588 0.0
H1441 H 0.04868 0.32176 0.35594 0.0
H1442 H 0.94714 0.32132 0.35697 0.0
H1443 H 0.04873 0.25791 0.32893 0.0
H1444 H 0.01134 0.32299 0.35052 0.0
H1445 H 0.9824 0.25915 0.32134 0.0
C1446 C 0.95305 0.27263 0.33147 0.0
C1447 C 0.94274 0.28995 0.34207 0.0
C1448 C 0.01944 0.30871 0.34557 0.0
C1449 C 0.98584 0.29052 0.33693 0.0
C1450 C 0.04082 0.308 0.34867 0.0
C1451 C 0.05178 0.28962 0.34317 0.0
C1452 C 0.00881 0.29082 0.33715 0.0
C1453 C 0.04081 0.27236 0.3335 0.0
C1454 C 0.97462 0.27284 0.32891 0.0
C1455 C 0.95445 0.30753 0.34896 0.0
N1456 N 0.01982 0.27329 0.33108 0.0
N1457 N 0.97534 0.30731 0.3464 0.0
H1458 H 0.70663 0.0531 0.33868 0.0
H1459 H 0.76005 0.94055 0.32732 0.0
H1460 H 0.77268 0.04435 0.33099 0.0
H1461 H 0.69888 0.95079 0.3583 0.0
H1462 H 0.76314 0.97824 0.31937 0.0
H1463 H 0.70198 0.01524 0.33668 0.0
C1464 C 0.72015 0.04327 0.33632 0.0
C1465 C 0.74012 0.05195 0.33535 0.0
C1466 C 0.74898 0.97217 0.32767 0.0
C1467 C 0.73483 0.00857 0.33299 0.0
C1468 C 0.74716 0.95068 0.33208 0.0
C1469 C 0.72926 0.94261 0.34371 0.0
C1470 C 0.73268 0.98556 0.33469 0.0
C1471 C 0.71304 0.95641 0.34954 0.0
C1472 C 0.71747 0.02164 0.33525 0.0
C1473 C 0.75703 0.03835 0.33217 0.0
N1474 N 0.71517 0.97722 0.34507 0.0
N1475 N 0.75401 0.01732 0.33124 0.0
H1476 H 0.05497 0.74079 0.32479 0.0
H1477 H 0.95072 0.67672 0.35025 0.0
H1478 H 0.05203 0.67702 0.35187 0.0
H1479 H 0.95069 0.74165 0.3275 0.0
H1480 H 0.98801 0.67562 0.34437 0.0
H1481 H 0.01714 0.74059 0.3196 0.0
C1482 C 0.04641 0.72669 0.32934 0.0
C1483 C 0.05659 0.70897 0.33906 0.0
C1484 C 0.97993 0.69012 0.34044 0.0
C1485 C 0.01355 0.70862 0.33316 0.0
C1486 C 0.95859 0.69075 0.34379 0.0
C1487 C 0.94766 0.70939 0.33967 0.0
C1488 C 0.99058 0.70834 0.33321 0.0
C1489 C 0.95861 0.72699 0.33098 0.0
C1490 C 0.02485 0.7266 0.32642 0.0
C1491 C 0.04481 0.69112 0.34461 0.0
N1492 N 0.97959 0.72614 0.32836 0.0
N1493 N 0.02396 0.69146 0.34173 0.0
H1494 H 0.22473 0.95223 0.33019 0.0
H1495 H 0.30074 0.04708 0.35736 0.0
H1496 H 0.29091 0.94498 0.33839 0.0
H1497 H 0.23874 0.056 0.32841 0.0
H1498 H 0.29753 0.00961 0.3494 0.0
H1499 H 0.2294 0.99017 0.32843 0.0
C1500 C 0.24025 0.95858 0.33144 0.0
C1501 C 0.25743 0.94536 0.33475 0.0
C1502 C 0.2847 0.01976 0.34448 0.0
C1503 C 0.26283 0.98878 0.33285 0.0
C1504 C 0.28651 0.04115 0.34907 0.0
C1505 C 0.26992 0.05461 0.34371 0.0
C1506 C 0.26602 0.01168 0.33486 0.0
C1507 C 0.25189 0.04613 0.33284 0.0
C1508 C 0.2429 0.98024 0.33032 0.0
C1509 C 0.27719 0.9545 0.33598 0.0
N1510 N 0.25029 0.02512 0.3291 0.0
N1511 N 0.27931 0.97563 0.33533 0.0
H1512 H 0.04785 0.67606 0.64277 0.0
H1513 H 0.94309 0.73841 0.67128 0.0
H1514 H 0.04732 0.74022 0.66861 0.0
H1515 H 0.94643 0.67528 0.64211 0.0
H1516 H 0.98094 0.73845 0.67615 0.0
H1517 H 0.01056 0.67445 0.64855 0.0
C1518 C 0.03986 0.6898 0.64988 0.0
C1519 C 0.05064 0.70838 0.65492 0.0
C1520 C 0.97332 0.72454 0.66894 0.0
C1521 C 0.00771 0.70677 0.6613 0.0
C1522 C 0.95175 0.7245 0.66621 0.0
C1523 C 0.94166 0.70689 0.65601 0.0
C1524 C 0.98474 0.70682 0.6615 0.0
C1525 C 0.95357 0.68928 0.64977 0.0
C1526 C 0.01852 0.68888 0.65318 0.0
C1527 C 0.03953 0.72562 0.6644 0.0
N1528 N 0.97444 0.68976 0.65247 0.0
N1529 N 0.01856 0.72449 0.66698 0.0
H1530 H 0.23544 0.94367 0.66883 0.0
H1531 H 0.29091 0.05538 0.65971 0.0
H1532 H 0.29734 0.95315 0.63983 0.0
H1533 H 0.22456 0.04795 0.66526 0.0
H1534 H 0.29477 0.01745 0.66159 0.0
H1535 H 0.23265 0.98145 0.67668 0.0
C1536 C 0.24854 0.95365 0.66448 0.0
C1537 C 0.26658 0.94535 0.65345 0.0
C1538 C 0.27938 0.02414 0.66257 0.0
C1539 C 0.26352 0.98835 0.66238 0.0
C1540 C 0.27714 0.04582 0.66157 0.0
C1541 C 0.25734 0.05491 0.66199 0.0
C1542 C 0.26173 0.0114 0.66418 0.0
C1543 C 0.24011 0.04164 0.66454 0.0
C1544 C 0.2469 0.97518 0.66884 0.0
C1545 C 0.28308 0.95895 0.64812 0.0
N1546 N 0.24269 0.02053 0.6654 0.0
N1547 N 0.28112 0.97978 0.65255 0.0
H1548 H 0.05333 0.32318 0.64586 0.0
H1549 H 0.95143 0.25495 0.67033 0.0
H1550 H 0.0558 0.25854 0.66967 0.0
H1551 H 0.9521 0.31879 0.64329 0.0
H1552 H 0.98922 0.25666 0.67593 0.0
H1553 H 0.01594 0.32264 0.65074 0.0
C1554 C 0.04598 0.30886 0.65229 0.0
C1555 C 0.05766 0.2908 0.65707 0.0
C1556 C 0.98101 0.27033 0.66905 0.0
C1557 C 0.0146 0.28997 0.66247 0.0
C1558 C 0.95948 0.26938 0.66593 0.0
C1559 C 0.94869 0.28668 0.65605 0.0
C1560 C 0.99166 0.28874 0.66234 0.0
C1561 C 0.95981 0.30499 0.65065 0.0
C1562 C 0.02457 0.30856 0.65509 0.0
C1563 C 0.04732 0.27278 0.66566 0.0
N1564 N 0.98064 0.30548 0.65371 0.0
N1565 N 0.02629 0.27272 0.6678 0.0
H1566 H 0.7626 0.0589 0.67348 0.0
H1567 H 0.77922 0.95146 0.6645 0.0
H1568 H 0.70474 0.04452 0.63586 0.0
H1569 H 0.7126 0.94629 0.6604 0.0
H1570 H 0.77586 0.9894 0.66632 0.0
H1571 H 0.76759 0.02159 0.68205 0.0
C1572 C 0.75091 0.0479 0.66713 0.0
C1573 C 0.73338 0.05477 0.65361 0.0
C1574 C 0.76194 0.98001 0.66569 0.0
C1575 C 0.73919 0.01207 0.66273 0.0
C1576 C 0.76386 0.95827 0.66435 0.0
C1577 C 0.74617 0.9456 0.66211 0.0
C1578 C 0.74217 0.98917 0.66469 0.0
C1579 C 0.72669 0.95537 0.66206 0.0
C1580 C 0.75388 0.02656 0.67176 0.0
C1581 C 0.71863 0.03988 0.64605 0.0
N1582 N 0.72524 0.97656 0.66297 0.0
N1583 N 0.72191 0.01924 0.65063 0.0
H1584 H 0.54812 0.7584 0.8249 0.0
H1585 H 0.4454 0.82475 0.85148 0.0
H1586 H 0.54681 0.82196 0.85288 0.0
H1587 H 0.4439 0.76058 0.8257 0.0
H1588 H 0.4828 0.82496 0.84626 0.0
H1589 H 0.51033 0.75976 0.81934 0.0
C1590 C 0.53993 0.77271 0.8295 0.0
C1591 C 0.55054 0.79001 0.83965 0.0
C1592 C 0.47436 0.81082 0.84153 0.0
C1593 C 0.50755 0.79167 0.83344 0.0
C1594 C 0.45296 0.81071 0.84454 0.0
C1595 C 0.44157 0.79254 0.8393 0.0
C1596 C 0.48459 0.79256 0.8335 0.0
C1597 C 0.45216 0.77489 0.83006 0.0
C1598 C 0.5184 0.77346 0.82641 0.0
C1599 C 0.53923 0.80816 0.84531 0.0
N1600 N 0.47316 0.77524 0.82774 0.0
N1601 N 0.51839 0.80845 0.8423 0.0
H1602 H 0.19859 0.45141 0.85946 0.0
H1603 H 0.27468 0.54584 0.83066 0.0
H1604 H 0.26007 0.4421 0.82903 0.0
H1605 H 0.20855 0.55343 0.83898 0.0
H1606 H 0.26986 0.5079 0.82937 0.0
H1607 H 0.2019 0.48887 0.85138 0.0
C1608 C 0.21272 0.45725 0.85083 0.0
C1609 C 0.22914 0.44368 0.84506 0.0
C1610 C 0.2564 0.5179 0.83119 0.0
C1611 C 0.23316 0.48659 0.83608 0.0
C1612 C 0.25914 0.53957 0.83204 0.0
C1613 C 0.24202 0.55288 0.83522 0.0
C1614 C 0.23644 0.50947 0.83387 0.0
C1615 C 0.22223 0.54382 0.83664 0.0
C1616 C 0.21459 0.47863 0.84617 0.0
C1617 C 0.24705 0.45205 0.83377 0.0
N1618 N 0.22002 0.5227 0.83626 0.0
N1619 N 0.24871 0.47305 0.82997 0.0
H1620 H 0.45092 0.24345 0.82679 0.0
H1621 H 0.55355 0.17626 0.85058 0.0
H1622 H 0.45232 0.17946 0.85321 0.0
H1623 H 0.55528 0.24093 0.82681 0.0
H1624 H 0.51616 0.17633 0.84556 0.0
H1625 H 0.48869 0.24211 0.8208 0.0
C1626 C 0.45912 0.22906 0.83095 0.0
C1627 C 0.44856 0.21162 0.8408 0.0
C1628 C 0.52463 0.19052 0.84123 0.0
C1629 C 0.4915 0.20998 0.83407 0.0
C1630 C 0.54603 0.19048 0.84412 0.0
C1631 C 0.55749 0.20869 0.8394 0.0
C1632 C 0.51445 0.209 0.83386 0.0
C1633 C 0.54696 0.22658 0.83076 0.0
C1634 C 0.48064 0.22833 0.82762 0.0
C1635 C 0.45987 0.19337 0.8459 0.0
N1636 N 0.52594 0.22639 0.82857 0.0
N1637 N 0.48068 0.19309 0.84264 0.0
H1638 H 0.79182 0.44528 0.83886 0.0
H1639 H 0.73738 0.55738 0.82762 0.0
H1640 H 0.72569 0.45334 0.8311 0.0
H1641 H 0.79875 0.54766 0.85822 0.0
H1642 H 0.73451 0.51962 0.8199 0.0
H1643 H 0.79606 0.48318 0.83705 0.0
C1644 C 0.77819 0.45497 0.83654 0.0
C1645 C 0.75832 0.44607 0.83546 0.0
C1646 C 0.74866 0.52583 0.82807 0.0
C1647 C 0.76315 0.48953 0.83333 0.0
C1648 C 0.75035 0.54735 0.83235 0.0
C1649 C 0.76826 0.55559 0.84379 0.0
C1650 C 0.76509 0.51257 0.83502 0.0
C1651 C 0.78459 0.54191 0.8496 0.0
C1652 C 0.78064 0.47663 0.83557 0.0
C1653 C 0.74127 0.4595 0.83234 0.0
N1654 N 0.78258 0.52107 0.84524 0.0
N1655 N 0.74407 0.48058 0.83151 0.0
H1656 H 0.44347 0.24178 0.17146 0.0
H1657 H 0.54829 0.17862 0.14627 0.0
H1658 H 0.44704 0.17794 0.14474 0.0
H1659 H 0.54775 0.24368 0.16844 0.0
H1660 H 0.51104 0.17716 0.15238 0.0
H1661 H 0.4813 0.24197 0.17669 0.0
C1662 C 0.45218 0.22775 0.16701 0.0
C1663 C 0.44217 0.20989 0.15736 0.0
C1664 C 0.51899 0.19177 0.15614 0.0
C1665 C 0.48521 0.20999 0.16331 0.0
C1666 C 0.5403 0.1926 0.15265 0.0
C1667 C 0.55106 0.21137 0.15653 0.0
C1668 C 0.50817 0.20993 0.16324 0.0
C1669 C 0.53997 0.22892 0.16514 0.0
C1670 C 0.47373 0.22788 0.16995 0.0
C1671 C 0.45413 0.19214 0.15193 0.0
N1672 N 0.51901 0.22787 0.16787 0.0
N1673 N 0.47497 0.19269 0.15483 0.0
H1674 H 0.7233 0.54533 0.16517 0.0
H1675 H 0.80116 0.45172 0.13901 0.0
H1676 H 0.78943 0.55364 0.15784 0.0
H1677 H 0.73907 0.44177 0.16717 0.0
H1678 H 0.79719 0.48916 0.1467 0.0
H1679 H 0.72855 0.50745 0.16675 0.0
C1680 C 0.73892 0.53923 0.16406 0.0
C1681 C 0.75592 0.55273 0.16107 0.0
C1682 C 0.7845 0.47879 0.1515 0.0
C1683 C 0.76199 0.5094 0.16278 0.0
C1684 C 0.78675 0.45741 0.14707 0.0
C1685 C 0.77036 0.44367 0.1523 0.0
C1686 C 0.76559 0.48655 0.16083 0.0
C1687 C 0.75208 0.45186 0.16285 0.0
C1688 C 0.7419 0.5176 0.16507 0.0
C1689 C 0.77583 0.5439 0.16 0.0
N1690 N 0.75007 0.47285 0.16645 0.0
N1691 N 0.77827 0.52281 0.16056 0.0
H1692 H 0.45068 0.75656 0.17004 0.0
H1693 H 0.55295 0.82387 0.14443 0.0
H1694 H 0.45165 0.82023 0.1424 0.0
H1695 H 0.55493 0.75941 0.16903 0.0
H1696 H 0.51557 0.82373 0.14964 0.0
H1697 H 0.48847 0.75813 0.17566 0.0
C1698 C 0.45879 0.77093 0.16552 0.0
C1699 C 0.4481 0.78821 0.15545 0.0
C1700 C 0.5241 0.80961 0.1541 0.0
C1701 C 0.49106 0.79011 0.16176 0.0
C1702 C 0.5455 0.80968 0.1511 0.0
C1703 C 0.55702 0.79154 0.15601 0.0
C1704 C 0.51401 0.79117 0.16178 0.0
C1705 C 0.54656 0.7737 0.16492 0.0
C1706 C 0.48032 0.7718 0.16865 0.0
C1707 C 0.4593 0.80644 0.1499 0.0
N1708 N 0.52555 0.77386 0.16724 0.0
N1709 N 0.48013 0.80685 0.15297 0.0
H1710 H 0.275 0.45295 0.16809 0.0
H1711 H 0.19881 0.54729 0.13884 0.0
H1712 H 0.20898 0.44537 0.15841 0.0
H1713 H 0.26054 0.55667 0.16846 0.0
H1714 H 0.20212 0.50989 0.14718 0.0
H1715 H 0.27014 0.49088 0.16954 0.0
C1716 C 0.25947 0.45922 0.16645 0.0
C1717 C 0.24241 0.44591 0.1628 0.0
C1718 C 0.21488 0.52012 0.15216 0.0
C1719 C 0.23678 0.4893 0.16434 0.0
C1720 C 0.213 0.54147 0.14735 0.0
C1721 C 0.22949 0.55504 0.15279 0.0
C1722 C 0.23351 0.51218 0.16208 0.0
C1723 C 0.24747 0.54671 0.16395 0.0
C1724 C 0.25671 0.48088 0.16739 0.0
C1725 C 0.22263 0.45496 0.16108 0.0
N1726 N 0.24913 0.52573 0.16791 0.0
N1727 N 0.22041 0.47608 0.16156 0.0
H1728 H 0.10513 0.31942 0.43636 0.0
H1729 H 0.13591 0.26057 0.56678 0.0
H1730 H 0.12881 0.25649 0.43908 0.0
H1731 H 0.11808 0.32547 0.56436 0.0
H1732 H 0.13476 0.25931 0.51981 0.0
H1733 H 0.1091 0.32197 0.48325 0.0
C1734 C 0.11138 0.30624 0.44692 0.0
C1735 C 0.1175 0.28804 0.43398 0.0
C1736 C 0.13138 0.27395 0.52943 0.0
C1737 C 0.12191 0.29068 0.48735 0.0
C1738 C 0.13222 0.27469 0.55619 0.0
C1739 C 0.1274 0.29322 0.56927 0.0
C1740 C 0.12512 0.29174 0.51562 0.0
C1741 C 0.12233 0.31102 0.55485 0.0
C1742 C 0.11359 0.30765 0.47361 0.0
C1743 C 0.12455 0.27101 0.44843 0.0
N1744 N 0.12112 0.3098 0.52873 0.0
N1745 N 0.12682 0.27281 0.47434 0.0
H1746 H 0.6994 0.10166 0.55441 0.0
H1747 H 0.70575 0.11527 0.42057 0.0
H1748 H 0.76133 0.12662 0.55431 0.0
H1749 H 0.77148 0.10777 0.43323 0.0
H1750 H 0.70056 0.11625 0.46719 0.0
H1751 H 0.70026 0.10016 0.50725 0.0
C1752 C 0.71296 0.1073 0.54429 0.0
C1753 C 0.72996 0.1152 0.55789 0.0
C1754 C 0.71605 0.11403 0.45971 0.0
C1755 C 0.73134 0.11313 0.50441 0.0
C1756 C 0.71906 0.11364 0.4331 0.0
C1757 C 0.73908 0.11132 0.42289 0.0
C1758 C 0.73321 0.11217 0.47616 0.0
C1759 C 0.75575 0.10945 0.4401 0.0
C1760 C 0.71348 0.10642 0.51746 0.0
C1761 C 0.7477 0.12107 0.54427 0.0
N1762 N 0.75244 0.11006 0.46585 0.0
N1763 N 0.74792 0.11998 0.51821 0.0
H1764 H 0.89653 0.67975 0.43516 0.0
H1765 H 0.86539 0.739 0.56514 0.0
H1766 H 0.87176 0.74227 0.43712 0.0
H1767 H 0.88112 0.67354 0.56272 0.0
H1768 H 0.86739 0.74041 0.51822 0.0
H1769 H 0.8929 0.67764 0.48214 0.0
C1770 C 0.89012 0.69293 0.44558 0.0
C1771 C 0.88354 0.71085 0.43241 0.0
C1772 C 0.87013 0.72564 0.52782 0.0
C1773 C 0.87948 0.70871 0.48583 0.0
C1774 C 0.86881 0.72481 0.55456 0.0
C1775 C 0.87277 0.70607 0.56762 0.0
C1776 C 0.87604 0.7077 0.51406 0.0
C1777 C 0.87753 0.68817 0.55321 0.0
C1778 C 0.88812 0.69177 0.47231 0.0
C1779 C 0.87634 0.72794 0.44666 0.0
N1780 N 0.87923 0.68946 0.52714 0.0
N1781 N 0.87422 0.72636 0.47261 0.0
H1782 H 0.23393 0.87251 0.55726 0.0
H1783 H 0.29124 0.88478 0.42236 0.0
H1784 H 0.29641 0.89574 0.55217 0.0
H1785 H 0.22479 0.88777 0.43163 0.0
H1786 H 0.29486 0.88392 0.46939 0.0
H1787 H 0.23163 0.8729 0.51025 0.0
C1788 C 0.24723 0.87745 0.54609 0.0
C1789 C 0.26564 0.8833 0.55827 0.0
C1790 C 0.27955 0.88485 0.46097 0.0
C1791 C 0.26306 0.8843 0.50482 0.0
C1792 C 0.27744 0.88529 0.43419 0.0
C1793 C 0.25767 0.88635 0.42295 0.0
C1794 C 0.26176 0.88516 0.47648 0.0
C1795 C 0.24035 0.88699 0.43929 0.0
C1796 C 0.24592 0.87777 0.51938 0.0
C1797 C 0.28227 0.89027 0.54322 0.0
N1798 N 0.24281 0.88625 0.46516 0.0
N1799 N 0.28068 0.89042 0.51713 0.0
H1800 H 0.11805 0.67421 0.43136 0.0
H1801 H 0.12626 0.74412 0.55929 0.0
H1802 H 0.13164 0.74019 0.43117 0.0
H1803 H 0.10349 0.68081 0.559 0.0
H1804 H 0.13032 0.74243 0.51242 0.0
H1805 H 0.11636 0.67508 0.47859 0.0
C1806 C 0.12128 0.68872 0.44136 0.0
C1807 C 0.12536 0.70708 0.42755 0.0
C1808 C 0.12447 0.72886 0.52255 0.0
C1809 C 0.12254 0.70847 0.48119 0.0
C1810 C 0.1222 0.72985 0.54923 0.0
C1811 C 0.11546 0.71226 0.56287 0.0
C1812 C 0.11961 0.71023 0.50945 0.0
C1813 C 0.1096 0.69437 0.54909 0.0
C1814 C 0.11996 0.68931 0.46822 0.0
C1815 C 0.12867 0.72567 0.44125 0.0
N1816 N 0.11198 0.69372 0.52309 0.0
N1817 N 0.12714 0.72591 0.46729 0.0
H1818 H 0.23623 0.12777 0.43906 0.0
H1819 H 0.29205 0.11528 0.57485 0.0
H1820 H 0.2986 0.10442 0.4452 0.0
H1821 H 0.22569 0.11236 0.56453 0.0
H1822 H 0.29616 0.11619 0.5279 0.0
H1823 H 0.23341 0.12737 0.48602 0.0
C1824 C 0.2494 0.12281 0.45045 0.0
C1825 C 0.26793 0.11692 0.43859 0.0
C1826 C 0.28075 0.11526 0.53607 0.0
C1827 C 0.26474 0.11589 0.49197 0.0
C1828 C 0.27837 0.11478 0.5628 0.0
C1829 C 0.25848 0.11374 0.57372 0.0
C1830 C 0.26313 0.11499 0.52028 0.0
C1831 C 0.24133 0.11314 0.55712 0.0
C1832 C 0.24778 0.12248 0.47714 0.0
C1833 C 0.28438 0.10992 0.45391 0.0
N1834 N 0.24406 0.1139 0.53129 0.0
N1835 N 0.28249 0.10975 0.47997 0.0
H1836 H 0.86586 0.2566 0.43166 0.0
H1837 H 0.8964 0.31613 0.56156 0.0
H1838 H 0.88076 0.32225 0.43414 0.0
H1839 H 0.87167 0.2536 0.55984 0.0
H1840 H 0.89246 0.31826 0.51463 0.0
H1841 H 0.8675 0.25528 0.47862 0.0
C1842 C 0.86901 0.27085 0.44226 0.0
C1843 C 0.87286 0.28962 0.4292 0.0
C1844 C 0.88773 0.30412 0.5245 0.0
C1845 C 0.87572 0.2881 0.4828 0.0
C1846 C 0.88993 0.30295 0.5512 0.0
C1847 C 0.88348 0.28501 0.56443 0.0
C1848 C 0.87909 0.28716 0.51105 0.0
C1849 C 0.87617 0.26793 0.55025 0.0
C1850 C 0.87012 0.27007 0.46901 0.0
C1851 C 0.87727 0.30759 0.44363 0.0
N1852 N 0.87391 0.26951 0.52432 0.0
N1853 N 0.87878 0.30636 0.46972 0.0
H1854 H 0.77626 0.88683 0.56492 0.0
H1855 H 0.69976 0.89328 0.44537 0.0
H1856 H 0.70984 0.88532 0.57497 0.0
H1857 H 0.76255 0.87096 0.44029 0.0
H1858 H 0.70296 0.89426 0.49256 0.0
H1859 H 0.77143 0.8853 0.51866 0.0
C1860 C 0.76062 0.88625 0.55746 0.0
C1861 C 0.74342 0.88614 0.57399 0.0
C1862 C 0.71592 0.88891 0.4811 0.0
C1863 C 0.73784 0.88443 0.52072 0.0
C1864 C 0.71403 0.88818 0.45433 0.0
C1865 C 0.73065 0.88119 0.43929 0.0
C1866 C 0.73478 0.88322 0.49259 0.0
C1867 C 0.74924 0.87588 0.45143 0.0
C1868 C 0.7579 0.88527 0.53097 0.0
C1869 C 0.72355 0.88537 0.56298 0.0
N1870 N 0.7508 0.87694 0.47741 0.0
N1871 N 0.72128 0.88462 0.53696 0.0
H1872 H 0.63326 0.75962 0.06462 0.0
H1873 H 0.60192 0.81928 0.93497 0.0
H1874 H 0.61727 0.82502 0.06259 0.0
H1875 H 0.62634 0.75661 0.93666 0.0
H1876 H 0.60558 0.82125 0.98195 0.0
H1877 H 0.63116 0.75835 0.0177 0.0
C1878 C 0.62977 0.77384 0.05412 0.0
C1879 C 0.62576 0.79251 0.0673 0.0
C1880 C 0.61028 0.80711 0.97207 0.0
C1881 C 0.62236 0.79103 0.01374 0.0
C1882 C 0.60826 0.80603 0.94533 0.0
C1883 C 0.61474 0.78811 0.93209 0.0
C1884 C 0.61884 0.7901 0.98552 0.0
C1885 C 0.62184 0.77095 0.94627 0.0
C1886 C 0.62838 0.77308 0.02739 0.0
C1887 C 0.6209 0.81044 0.05299 0.0
N1888 N 0.62399 0.77246 0.97222 0.0
N1889 N 0.61914 0.80922 0.02692 0.0
H1890 H 0.20761 0.6143 0.92123 0.0
H1891 H 0.26311 0.62795 0.05707 0.0
H1892 H 0.27392 0.61133 0.93188 0.0
H1893 H 0.2008 0.60442 0.05102 0.0
H1894 H 0.26599 0.62726 0.01012 0.0
H1895 H 0.20337 0.61572 0.96815 0.0
C1896 C 0.22125 0.6139 0.93334 0.0
C1897 C 0.24116 0.61269 0.92252 0.0
C1898 C 0.25161 0.6224 0.01902 0.0
C1899 C 0.23638 0.61452 0.97593 0.0
C1900 C 0.24996 0.6229 0.0457 0.0
C1901 C 0.23143 0.61703 0.05758 0.0
C1902 C 0.23469 0.61568 0.00421 0.0
C1903 C 0.21501 0.60991 0.04229 0.0
C1904 C 0.21879 0.61467 0.96006 0.0
C1905 C 0.25826 0.61223 0.93921 0.0
N1906 N 0.21694 0.60958 0.01623 0.0
N1907 N 0.25547 0.61327 0.96501 0.0
H1908 H 0.36533 0.24067 0.06611 0.0
H1909 H 0.39772 0.18182 0.93629 0.0
H1910 H 0.38243 0.17556 0.06385 0.0
H1911 H 0.37224 0.24405 0.93813 0.0
H1912 H 0.39409 0.17971 0.98326 0.0
H1913 H 0.36744 0.24208 0.01919 0.0
C1914 C 0.36907 0.22653 0.05556 0.0
C1915 C 0.37339 0.2079 0.06868 0.0
C1916 C 0.38915 0.19378 0.97341 0.0
C1917 C 0.37679 0.20956 0.01512 0.0
C1918 C 0.39116 0.19494 0.94668 0.0
C1919 C 0.38438 0.21277 0.93348 0.0
C1920 C 0.3803 0.21061 0.9869 0.0
C1921 C 0.37698 0.22979 0.9477 0.0
C1922 C 0.37046 0.22737 0.02883 0.0
C1923 C 0.37855 0.1901 0.05431 0.0
N1924 N 0.37485 0.22819 0.97365 0.0
N1925 N 0.38031 0.1914 0.02824 0.0
H1926 H 0.80128 0.39361 0.05162 0.0
H1927 H 0.72539 0.3872 0.93167 0.0
H1928 H 0.7386 0.37094 0.05636 0.0
H1929 H 0.79181 0.38455 0.92189 0.0
H1930 H 0.73007 0.38555 0.97796 0.0
H1931 H 0.79837 0.3942 0.00438 0.0
C1932 C 0.7871 0.38834 0.04258 0.0
C1933 C 0.77042 0.38138 0.05755 0.0
C1934 C 0.74364 0.38528 0.9657 0.0
C1935 C 0.76661 0.38299 0.00419 0.0
C1936 C 0.74101 0.38633 0.9392 0.0
C1937 C 0.75824 0.38595 0.92274 0.0
C1938 C 0.76365 0.38413 0.97604 0.0
C1939 C 0.77807 0.38481 0.93383 0.0
C1940 C 0.78537 0.38885 0.01579 0.0
C1941 C 0.75194 0.37585 0.04529 0.0
N1942 N 0.78026 0.38403 0.95986 0.0
N1943 N 0.75053 0.37672 0.01929 0.0
H1944 H 0.60161 0.18245 0.0606 0.0
H1945 H 0.63363 0.24118 0.93056 0.0
H1946 H 0.62633 0.24498 0.0585 0.0
H1947 H 0.61737 0.17586 0.93319 0.0
H1948 H 0.63118 0.24282 0.97743 0.0
H1949 H 0.60514 0.1803 0.01362 0.0
C1950 C 0.60797 0.19563 0.05015 0.0
C1951 C 0.6146 0.21355 0.06327 0.0
C1952 C 0.62841 0.22803 0.96789 0.0
C1953 C 0.61859 0.21134 0.00986 0.0
C1954 C 0.63001 0.22706 0.94119 0.0
C1955 C 0.62601 0.20829 0.92819 0.0
C1956 C 0.62222 0.21021 0.98167 0.0
C1957 C 0.62099 0.1905 0.94265 0.0
C1958 C 0.60992 0.19445 0.02341 0.0
C1959 C 0.62173 0.23064 0.04898 0.0
N1960 N 0.61903 0.19193 0.96868 0.0
N1961 N 0.62384 0.22902 0.02304 0.0
H1962 H 0.72255 0.61126 0.06514 0.0
H1963 H 0.79799 0.60531 0.94466 0.0
H1964 H 0.78902 0.61414 0.07431 0.0
H1965 H 0.73512 0.62751 0.94026 0.0
H1966 H 0.79518 0.60447 0.99188 0.0
H1967 H 0.72696 0.61281 0.0188 0.0
C1968 C 0.73812 0.61215 0.05747 0.0
C1969 C 0.75545 0.61263 0.07377 0.0
C1970 C 0.78212 0.60977 0.98056 0.0
C1971 C 0.76054 0.61433 0.02043 0.0
C1972 C 0.78377 0.61041 0.95377 0.0
C1973 C 0.76703 0.61734 0.93892 0.0
C1974 C 0.76335 0.61546 0.99226 0.0
C1975 C 0.74852 0.62264 0.95126 0.0
C1976 C 0.74059 0.61314 0.03094 0.0
C1977 C 0.77521 0.6138 0.0625 0.0
N1978 N 0.74718 0.62166 0.97726 0.0
N1979 N 0.77724 0.61452 0.03645 0.0
H1980 H 0.38 0.8253 0.93255 0.0
H1981 H 0.37214 0.75417 0.05949 0.0
H1982 H 0.36736 0.75913 0.9313 0.0
H1983 H 0.39533 0.81732 0.05997 0.0
H1984 H 0.36807 0.75627 0.01264 0.0
H1985 H 0.38181 0.82393 0.97977 0.0
C1986 C 0.37701 0.81064 0.94231 0.0
C1987 C 0.37316 0.79237 0.92822 0.0
C1988 C 0.37402 0.76972 0.02293 0.0
C1989 C 0.37605 0.79044 0.98183 0.0
C1990 C 0.37629 0.7685 0.04961 0.0
C1991 C 0.38315 0.78593 0.06347 0.0
C1992 C 0.37899 0.78842 0.01007 0.0
C1993 C 0.38912 0.80389 0.0499 0.0
C1994 C 0.37839 0.80976 0.96917 0.0
C1995 C 0.37014 0.77359 0.94161 0.0
N1996 N 0.38673 0.80477 0.02391 0.0
N1997 N 0.37168 0.77308 0.96765 0.0
H1998 H 0.26395 0.36941 0.93907 0.0
H1999 H 0.27584 0.39354 0.06704 0.0
H2000 H 0.20233 0.39425 0.94762 0.0
H2001 H 0.21047 0.38015 0.07412 0.0
H2002 H 0.27255 0.39202 0.02063 0.0
H2003 H 0.26804 0.36987 0.98582 0.0
C2004 C 0.25126 0.37485 0.95096 0.0
C2005 C 0.23259 0.38119 0.93982 0.0
C2006 C 0.25898 0.38909 0.0323 0.0
C2007 C 0.23742 0.38287 0.99301 0.0
C2008 C 0.26076 0.3902 0.0589 0.0
C2009 C 0.24343 0.38678 0.07467 0.0
C2010 C 0.23973 0.38449 0.02118 0.0
C2011 C 0.22428 0.38274 0.06277 0.0
C2012 C 0.25365 0.37536 0.97755 0.0
C2013 C 0.2167 0.38858 0.95578 0.0
N2014 N 0.22292 0.38175 0.03665 0.0
N2015 N 0.21941 0.3891 0.98173 0.0
H2016 H 0.19783 0.39608 0.23265 0.0
H2017 H 0.12116 0.30943 0.28158 0.0
H2018 H 0.16399 0.35665 0.18016 0.0
H2019 H 0.1453 0.35914 0.32913 0.0
H2020 H 0.13203 0.32899 0.24325 0.0
H2021 H 0.17433 0.38598 0.26708 0.0
C2022 C 0.18511 0.3856 0.22834 0.0
C2023 C 0.18285 0.37703 0.20375 0.0
C2024 C 0.13453 0.33578 0.26209 0.0
C2025 C 0.15628 0.36472 0.24318 0.0
C2026 C 0.12832 0.32463 0.28395 0.0
C2027 C 0.13283 0.33243 0.30857 0.0
C2028 C 0.1453 0.35476 0.26503 0.0
C2029 C 0.14201 0.35226 0.31054 0.0
C2030 C 0.17168 0.37978 0.24798 0.0
C2031 C 0.16614 0.36357 0.19899 0.0
N2032 N 0.1482 0.36256 0.28911 0.0
N2033 N 0.15372 0.35738 0.21875 0.0
H2034 H 0.62053 0.1901 0.21494 0.0
H2035 H 0.69946 0.10501 0.26182 0.0
H2036 H 0.645 0.1413 0.1662 0.0
H2037 H 0.66312 0.14101 0.31547 0.0
H2038 H 0.67617 0.11546 0.22732 0.0
H2039 H 0.63206 0.17028 0.25276 0.0
C2040 C 0.62792 0.17505 0.2122 0.0
C2041 C 0.63231 0.16759 0.18739 0.0
C2042 C 0.67295 0.12083 0.24667 0.0
C2043 C 0.64555 0.145 0.23034 0.0
C2044 C 0.68628 0.11484 0.26634 0.0
C2045 C 0.68322 0.12234 0.29133 0.0
C2046 C 0.65681 0.13496 0.25189 0.0
C2047 C 0.66591 0.13495 0.29634 0.0
C2048 C 0.6345 0.16375 0.23377 0.0
C2049 C 0.64178 0.14793 0.18494 0.0
N2050 N 0.65356 0.14131 0.27661 0.0
N2051 N 0.64836 0.13751 0.2061 0.0
H2052 H 0.79916 0.60366 0.23292 0.0
H2053 H 0.87806 0.68845 0.28048 0.0
H2054 H 0.83438 0.64108 0.17959 0.0
H2055 H 0.85428 0.63881 0.32846 0.0
H2056 H 0.86641 0.66908 0.24238 0.0
H2057 H 0.82299 0.61346 0.26716 0.0
C2058 C 0.81223 0.61365 0.2284 0.0
C2059 C 0.8148 0.62174 0.20361 0.0
C2060 C 0.86416 0.66226 0.26125 0.0
C2061 C 0.8418 0.63365 0.24279 0.0
C2062 C 0.87081 0.6733 0.28298 0.0
C2063 C 0.86663 0.66548 0.30769 0.0
C2064 C 0.85324 0.64339 0.26439 0.0
C2065 C 0.85733 0.64571 0.30982 0.0
C2066 C 0.82585 0.61927 0.24792 0.0
C2067 C 0.83196 0.63455 0.19858 0.0
N2068 N 0.85068 0.63554 0.28851 0.0
N2069 N 0.8446 0.64056 0.21821 0.0
H2070 H 0.35563 0.85923 0.16639 0.0
H2071 H 0.33698 0.85789 0.31803 0.0
H2072 H 0.37784 0.80957 0.21548 0.0
H2073 H 0.30063 0.89226 0.26276 0.0
H2074 H 0.36058 0.84721 0.28319 0.0
H2075 H 0.34477 0.87866 0.20429 0.0
C2076 C 0.35848 0.85251 0.1852 0.0
C2077 C 0.36717 0.83249 0.18777 0.0
C2078 C 0.3477 0.85748 0.27889 0.0
C2079 C 0.35456 0.85466 0.23128 0.0
C2080 C 0.33435 0.86367 0.29871 0.0
C2081 C 0.31681 0.87575 0.29303 0.0
C2082 C 0.34351 0.86379 0.25353 0.0
C2083 C 0.3139 0.88273 0.26778 0.0
C2084 C 0.35228 0.86364 0.20683 0.0
C2085 C 0.37094 0.82483 0.21265 0.0
N2086 N 0.32702 0.87653 0.24893 0.0
N2087 N 0.36422 0.83577 0.23353 0.0
H2088 H 0.16255 0.63959 0.81688 0.0
H2089 H 0.14427 0.63875 0.66516 0.0
H2090 H 0.1999 0.6065 0.76146 0.0
H2091 H 0.12105 0.68772 0.71457 0.0
H2092 H 0.15553 0.61939 0.70294 0.0
H2093 H 0.13887 0.65001 0.78201 0.0
C2094 C 0.1654 0.63405 0.7975 0.0
C2095 C 0.18323 0.6224 0.79182 0.0
C2096 C 0.14771 0.63423 0.70557 0.0
C2097 C 0.15644 0.63405 0.75227 0.0
C2098 C 0.14129 0.64532 0.68401 0.0
C2099 C 0.1322 0.66515 0.68671 0.0
C2100 C 0.14524 0.64305 0.73007 0.0
C2101 C 0.12826 0.67262 0.71164 0.0
C2102 C 0.15201 0.64008 0.77767 0.0
C2103 C 0.18642 0.6157 0.7665 0.0
N2104 N 0.13519 0.66173 0.73245 0.0
N2105 N 0.17324 0.62174 0.74763 0.0
H2106 H 0.33742 0.14153 0.67894 0.0
H2107 H 0.35647 0.13968 0.8305 0.0
H2108 H 0.30039 0.10803 0.73431 0.0
H2109 H 0.37852 0.18955 0.78161 0.0
H2110 H 0.34533 0.12049 0.79253 0.0
H2111 H 0.3612 0.15185 0.71376 0.0
C2112 C 0.33467 0.13587 0.69829 0.0
C2113 C 0.3169 0.12414 0.70399 0.0
C2114 C 0.35288 0.13549 0.79005 0.0
C2115 C 0.34381 0.13566 0.74346 0.0
C2116 C 0.35923 0.14649 0.81172 0.0
C2117 C 0.36794 0.16651 0.80923 0.0
C2118 C 0.35505 0.1446 0.76566 0.0
C2119 C 0.3716 0.17429 0.78438 0.0
C2120 C 0.34812 0.14185 0.71809 0.0
C2121 C 0.31383 0.11729 0.72927 0.0
N2122 N 0.36475 0.16347 0.76347 0.0
N2123 N 0.32707 0.12327 0.7481 0.0
H2124 H 0.87911 0.30814 0.71632 0.0
H2125 H 0.80128 0.39418 0.76288 0.0
H2126 H 0.85647 0.35801 0.66787 0.0
H2127 H 0.83637 0.35717 0.81676 0.0
H2128 H 0.82496 0.38379 0.72874 0.0
H2129 H 0.86768 0.32791 0.75422 0.0
C2130 C 0.87218 0.32343 0.71367 0.0
C2131 C 0.86823 0.3312 0.6889 0.0
C2132 C 0.82783 0.3782 0.74808 0.0
C2133 C 0.85508 0.35374 0.73196 0.0
C2134 C 0.81429 0.38416 0.76754 0.0
C2135 C 0.81687 0.37636 0.79248 0.0
C2136 C 0.8437 0.36378 0.75342 0.0
C2137 C 0.83395 0.36348 0.79767 0.0
C2138 C 0.86565 0.3347 0.7353 0.0
C2139 C 0.85932 0.35115 0.68658 0.0
N2140 N 0.8465 0.35715 0.77811 0.0
N2141 N 0.85276 0.36154 0.70778 0.0
H2142 H 0.70108 0.895 0.73412 0.0
H2143 H 0.62061 0.8114 0.78027 0.0
H2144 H 0.66458 0.85964 0.68 0.0
H2145 H 0.64464 0.86046 0.82894 0.0
H2146 H 0.63266 0.83091 0.74246 0.0
H2147 H 0.67714 0.88522 0.76825 0.0
C2148 C 0.68772 0.88548 0.72941 0.0
C2149 C 0.68479 0.87796 0.70441 0.0
C2150 C 0.63487 0.83758 0.76141 0.0
C2151 C 0.65766 0.86606 0.74344 0.0
C2152 C 0.62799 0.82646 0.78298 0.0
C2153 C 0.63213 0.83406 0.8078 0.0
C2154 C 0.64599 0.8563 0.76485 0.0
C2155 C 0.64162 0.85372 0.81021 0.0
C2156 C 0.67403 0.87987 0.74886 0.0
C2157 C 0.66727 0.86573 0.69915 0.0
N2158 N 0.6485 0.86396 0.78906 0.0
N2159 N 0.65456 0.8597 0.7187 0.0
H2160 H 0.83952 0.64259 0.68248 0.0
H2161 H 0.83655 0.66208 0.83365 0.0
H2162 H 0.876 0.69007 0.72041 0.0
H2163 H 0.80237 0.61336 0.79466 0.0
H2164 H 0.8547 0.66971 0.7935 0.0
H2165 H 0.82954 0.62876 0.7243 0.0
C2166 C 0.84559 0.65 0.69964 0.0
C2167 C 0.85834 0.66773 0.69797 0.0
C2168 C 0.84339 0.6572 0.79384 0.0
C2169 C 0.84679 0.65206 0.74603 0.0
C2170 C 0.83299 0.65283 0.81677 0.0
C2171 C 0.81761 0.63728 0.81749 0.0
C2172 C 0.83835 0.64599 0.77147 0.0
C2173 C 0.81386 0.6257 0.79501 0.0
C2174 C 0.8399 0.64207 0.72355 0.0
C2175 C 0.86602 0.67646 0.72084 0.0
N2176 N 0.82398 0.63044 0.7729 0.0
N2177 N 0.85987 0.66872 0.74398 0.0
H2178 H 0.3767 0.80902 0.77547 0.0
H2179 H 0.3012 0.88824 0.70245 0.0
H2180 H 0.33755 0.85442 0.81318 0.0
H2181 H 0.33457 0.83854 0.66425 0.0
H2182 H 0.31939 0.87997 0.74218 0.0
H2183 H 0.3664 0.82358 0.7338 0.0
C2184 C 0.36619 0.82223 0.77502 0.0
C2185 C 0.3577 0.83029 0.79782 0.0
C2186 C 0.32287 0.87097 0.72506 0.0
C2187 C 0.34585 0.84693 0.75032 0.0
C2188 C 0.31247 0.87569 0.70231 0.0
C2189 C 0.31606 0.86384 0.68001 0.0
C2190 C 0.33693 0.85421 0.72564 0.0
C2191 C 0.33109 0.84795 0.68102 0.0
C2192 C 0.36026 0.83047 0.75123 0.0
C2193 C 0.3442 0.84745 0.79609 0.0
N2194 N 0.3408 0.84344 0.70355 0.0
N2195 N 0.33857 0.85506 0.77276 0.0
H2196 H 0.15635 0.35762 0.68501 0.0
H2197 H 0.16165 0.33619 0.83569 0.0
H2198 H 0.12304 0.30751 0.72232 0.0
H2199 H 0.19352 0.38669 0.79712 0.0
H2200 H 0.14331 0.32842 0.79571 0.0
H2201 H 0.16576 0.37149 0.72701 0.0
C2202 C 0.15083 0.34964 0.70208 0.0
C2203 C 0.13918 0.33117 0.70016 0.0
C2204 C 0.15414 0.34135 0.79611 0.0
C2205 C 0.15012 0.34689 0.74843 0.0
C2206 C 0.16464 0.34581 0.81895 0.0
C2207 C 0.17946 0.3619 0.81971 0.0
C2208 C 0.15852 0.35302 0.77388 0.0
C2209 C 0.1825 0.37393 0.79742 0.0
C2210 C 0.1562 0.35759 0.72609 0.0
C2211 C 0.13217 0.32171 0.72292 0.0
N2212 N 0.1723 0.36909 0.77539 0.0
N2213 N 0.13803 0.3295 0.74616 0.0
H2214 H 0.6966 0.11115 0.70267 0.0
H2215 H 0.62124 0.19027 0.77589 0.0
H2216 H 0.66202 0.15998 0.66443 0.0
H2217 H 0.66051 0.14493 0.81354 0.0
H2218 H 0.63114 0.17543 0.73425 0.0
H2219 H 0.67863 0.11941 0.74258 0.0
C2220 C 0.68511 0.1235 0.70256 0.0
C2221 C 0.68111 0.13513 0.6802 0.0
C2222 C 0.63739 0.16861 0.75167 0.0
C2223 C 0.66052 0.14474 0.72601 0.0
C2224 C 0.6317 0.17702 0.77544 0.0
C2225 C 0.64035 0.16908 0.79821 0.0
C2226 C 0.65175 0.15211 0.75073 0.0
C2227 C 0.65375 0.15183 0.79647 0.0
C2228 C 0.67484 0.12821 0.72541 0.0
C2229 C 0.66582 0.15076 0.68125 0.0
N2230 N 0.65917 0.14407 0.77315 0.0
N2231 N 0.65625 0.15527 0.70386 0.0
H2232 H 0.80479 0.38661 0.20222 0.0
H2233 H 0.87902 0.30716 0.27686 0.0
H2234 H 0.83838 0.33668 0.16478 0.0
H2235 H 0.83893 0.35216 0.31373 0.0
H2236 H 0.86943 0.32185 0.23499 0.0
H2237 H 0.82237 0.37824 0.24234 0.0
C2238 C 0.81599 0.37399 0.20232 0.0
C2239 C 0.8198 0.3621 0.18011 0.0
C2240 C 0.86293 0.32863 0.2523 0.0
C2241 C 0.83997 0.35237 0.2262 0.0
C2242 C 0.86845 0.32031 0.27619 0.0
C2243 C 0.8595 0.32822 0.2988 0.0
C2244 C 0.84846 0.34502 0.25108 0.0
C2245 C 0.84594 0.34531 0.29679 0.0
C2246 C 0.82603 0.36922 0.2253 0.0
C2247 C 0.83473 0.34612 0.18146 0.0
N2248 N 0.84071 0.35301 0.27336 0.0
N2249 N 0.8441 0.34157 0.2042 0.0
H2250 H 0.65874 0.85551 0.18275 0.0
H2251 H 0.66148 0.83555 0.33385 0.0
H2252 H 0.62262 0.80752 0.22023 0.0
H2253 H 0.69487 0.88506 0.29531 0.0
H2254 H 0.6436 0.82774 0.29355 0.0
H2255 H 0.66843 0.86928 0.2247 0.0
C2256 C 0.65269 0.84797 0.19984 0.0
C2257 C 0.64012 0.83013 0.198 0.0
C2258 C 0.65467 0.84046 0.29402 0.0
C2259 C 0.65134 0.84574 0.24622 0.0
C2260 C 0.66491 0.84493 0.31703 0.0
C2261 C 0.68 0.86076 0.31792 0.0
C2262 C 0.65959 0.85185 0.27174 0.0
C2263 C 0.68361 0.87251 0.29553 0.0
C2264 C 0.65821 0.85587 0.22383 0.0
C2265 C 0.63246 0.82122 0.22079 0.0
N2266 N 0.67365 0.86766 0.27334 0.0
N2267 N 0.63845 0.82894 0.244 0.0
H2268 H 0.12056 0.69154 0.27481 0.0
H2269 H 0.19369 0.611 0.20045 0.0
H2270 H 0.15853 0.64468 0.31167 0.0
H2271 H 0.16198 0.66224 0.16318 0.0
H2272 H 0.1755 0.61915 0.24021 0.0
H2273 H 0.13021 0.67702 0.23289 0.0
C2274 C 0.13066 0.67802 0.27412 0.0
C2275 C 0.13904 0.66954 0.29675 0.0
C2276 C 0.17237 0.62851 0.22328 0.0
C2277 C 0.15014 0.65293 0.24897 0.0
C2278 C 0.18277 0.62387 0.20052 0.0
C2279 C 0.17968 0.6362 0.1785 0.0
C2280 C 0.15882 0.64568 0.22416 0.0
C2281 C 0.16506 0.65246 0.17974 0.0
C2282 C 0.13621 0.66979 0.25019 0.0
C2283 C 0.152 0.65198 0.29471 0.0
N2284 N 0.15536 0.6569 0.2023 0.0
N2285 N 0.15728 0.64439 0.27126 0.0
H2286 H 0.30517 0.11088 0.29539 0.0
H2287 H 0.37854 0.19131 0.22118 0.0
H2288 H 0.3373 0.1618 0.3328 0.0
H2289 H 0.3404 0.14465 0.18419 0.0
H2290 H 0.36888 0.17671 0.26306 0.0
H2291 H 0.3233 0.11908 0.25559 0.0
C2292 C 0.31617 0.12369 0.29534 0.0
C2293 C 0.3194 0.13591 0.31742 0.0
C2294 C 0.36283 0.16955 0.24573 0.0
C2295 C 0.34018 0.14544 0.27172 0.0
C2296 C 0.36839 0.17782 0.22183 0.0
C2297 C 0.35997 0.16941 0.19917 0.0
C2298 C 0.34886 0.15272 0.24691 0.0
C2299 C 0.34696 0.15189 0.20117 0.0
C2300 C 0.32653 0.12835 0.27256 0.0
C2301 C 0.3341 0.1521 0.3162 0.0
N2302 N 0.34167 0.14427 0.2246 0.0
N2303 N 0.34376 0.15656 0.29362 0.0
loop_
_geom_bond_atom_site_label_1
_geom_bond_atom_site_label_2
_geom_bond_distance
_geom_bond_site_symmetry_2
_ccdc_geom_bond_type
Mn0 O5 2.095 . S
Mn0 O15 2.162 . S
Mn0 O16 2.297 . S
Mn0 O24 2.385 . S
Mn0 O25 2.209 . S
Mn0 O26 2.094 . S
Mn1 O6 2.121 . S
Mn1 N8 2.257 . S
Mn1 N17 2.282 . S
Mn1 O25 2.215 . S
Mn1 O27 2.117 . S
C2 O24 1.234 . S
C2 O25 1.283 . S
C3 O15 1.281 . S
C3 O16 1.236 . S
C4 O26 1.240 . S
C4 O27 1.264 . S
O5 Mn0 2.095 . S
O5 C14 1.250 . S
O6 Mn1 2.121 . S
O6 C14 1.258 . S
C7 N8 1.326 . S
C7 C11 1.460 . S
C7 H13 0.929 . S
N8 Mn1 2.257 . S
N8 C7 1.326 . S
N8 C12 1.362 . S
C9 C10 1.258 . S
C9 C12 1.431 . S
C9 C29 1.449 . S
C10 C9 1.258 . S
C10 C11 1.477 . S
C10 H30 0.931 . S
C11 C7 1.460 . S
C11 C10 1.477 . S
C11 H31 0.930 . S
C12 N8 1.362 . S
C12 C9 1.431 . S
C12 C22 1.476 . S
H13 C7 0.929 . S
C14 O5 1.250 . S
C14 O6 1.258 . S
O15 Mn0 2.162 . S
O15 C3 1.281 . S
O16 Mn0 2.297 . S
O16 C3 1.236 . S
N17 Mn1 2.282 . S
N17 C18 1.328 . S
N17 C22 1.318 . S
C18 N17 1.328 . S
C18 C19 1.457 . S
C18 H23 0.929 . S
C19 C18 1.457 . S
C19 C20 1.291 . S
C19 H32 0.931 . S
C20 C19 1.291 . S
C20 C21 1.373 . S
C20 H33 0.929 . S
C21 C20 1.373 . S
C21 C22 1.396 . S
C21 C28 1.403 . S
C22 C12 1.476 . S
C22 N17 1.318 . S
C22 C21 1.396 . S
H23 C18 0.929 . S
O24 Mn0 2.385 . S
O24 C2 1.234 . S
O25 Mn0 2.209 . S
O25 Mn1 2.215 . S
O25 C2 1.283 . S
O26 Mn0 2.094 . S
O26 C4 1.240 . S
O27 Mn1 2.117 . S
O27 C4 1.264 . S
C28 C21 1.403 . S
C28 C29 1.399 . S
C28 H34 0.929 . S
C29 C9 1.449 . S
C29 C28 1.399 . S
C29 H35 0.930 . S
H30 C10 0.931 . S
H31 C11 0.930 . S
H32 C19 0.931 . S
H33 C20 0.929 . S
H34 C28 0.929 . S
H35 C29 0.930 . S
Mn36 O41 2.095 . S
Mn36 O51 2.162 . S
Mn36 O52 2.297 . S
Mn36 O60 2.385 . S
Mn36 O61 2.209 . S
Mn36 O62 2.094 . S
Mn37 O42 2.121 . S
Mn37 N44 2.257 . S
Mn37 N53 2.282 . S
Mn37 O61 2.215 . S
Mn37 O63 2.117 . S
C38 O60 1.234 . S
C38 O61 1.283 . S
C39 O51 1.281 . S
C39 O52 1.236 . S
C40 O62 1.240 . S
C40 O63 1.264 . S
O41 Mn36 2.095 . S
O41 C50 1.250 . S
O42 Mn37 2.121 . S
O42 C50 1.258 . S
C43 N44 1.326 . S
C43 C47 1.460 . S
C43 H49 0.929 . S
N44 Mn37 2.257 . S
N44 C43 1.326 . S
N44 C48 1.362 . S
C45 C46 1.258 . S
C45 C48 1.431 . S
C45 C65 1.449 . S
C46 C45 1.258 . S
C46 C47 1.477 . S
C46 H66 0.931 . S
C47 C43 1.460 . S
C47 C46 1.477 . S
C47 H67 0.930 . S
C48 N44 1.362 . S
C48 C45 1.431 . S
C48 C58 1.476 . S
H49 C43 0.929 . S
C50 O41 1.250 . S
C50 O42 1.258 . S
O51 Mn36 2.162 . S
O51 C39 1.281 . S
O52 Mn36 2.297 . S
O52 C39 1.236 . S
N53 Mn37 2.282 . S
N53 C54 1.328 . S
N53 C58 1.318 . S
C54 N53 1.328 . S
C54 C55 1.457 . S
C54 H59 0.929 . S
C55 C54 1.457 . S
C55 C56 1.291 . S
C55 H68 0.931 . S
C56 C55 1.291 . S
C56 C57 1.373 . S
C56 H69 0.929 . S
C57 C56 1.373 . S
C57 C58 1.396 . S
C57 C64 1.403 . S
C58 C48 1.476 . S
C58 N53 1.318 . S
C58 C57 1.396 . S
H59 C54 0.929 . S
O60 Mn36 2.385 . S
O60 C38 1.234 . S
O61 Mn36 2.209 . S
O61 Mn37 2.215 . S
O61 C38 1.283 . S
O62 Mn36 2.094 . S
O62 C40 1.240 . S
O63 Mn37 2.117 . S
O63 C40 1.264 . S
C64 C57 1.403 . S
C64 C65 1.399 . S
C64 H70 0.929 . S
C65 C45 1.449 . S
C65 C64 1.399 . S
C65 H71 0.930 . S
H66 C46 0.931 . S
H67 C47 0.930 . S
H68 C55 0.931 . S
H69 C56 0.929 . S
H70 C64 0.929 . S
H71 C65 0.930 . S
Mn72 O77 2.095 . S
Mn72 O87 2.162 . S
Mn72 O88 2.297 . S
Mn72 O96 2.385 . S
Mn72 O97 2.209 . S
Mn72 O98 2.094 . S
Mn73 O78 2.121 . S
Mn73 N80 2.257 . S
Mn73 N89 2.282 . S
Mn73 O97 2.215 . S
Mn73 O99 2.117 . S
C74 O96 1.234 . S
C74 O97 1.283 . S
C75 O87 1.281 . S
C75 O88 1.236 . S
C76 O98 1.240 . S
C76 O99 1.264 . S
O77 Mn72 2.095 . S
O77 C86 1.250 . S
O78 Mn73 2.121 . S
O78 C86 1.258 . S
C79 N80 1.326 . S
C79 C83 1.460 . S
C79 H85 0.929 . S
N80 Mn73 2.257 . S
N80 C79 1.326 . S
N80 C84 1.362 . S
C81 C82 1.258 . S
C81 C84 1.431 . S
C81 C101 1.449 . S
C82 C81 1.258 . S
C82 C83 1.477 . S
C82 H102 0.931 . S
C83 C79 1.460 . S
C83 C82 1.477 . S
C83 H103 0.930 . S
C84 N80 1.362 . S
C84 C81 1.431 . S
C84 C94 1.476 . S
H85 C79 0.929 . S
C86 O77 1.250 . S
C86 O78 1.258 . S
O87 Mn72 2.162 . S
O87 C75 1.281 . S
O88 Mn72 2.297 . S
O88 C75 1.236 . S
N89 Mn73 2.282 . S
N89 C90 1.328 . S
N89 C94 1.318 . S
C90 N89 1.328 . S
C90 C91 1.457 . S
C90 H95 0.929 . S
C91 C90 1.457 . S
C91 C92 1.291 . S
C91 H104 0.931 . S
C92 C91 1.291 . S
C92 C93 1.373 . S
C92 H105 0.929 . S
C93 C92 1.373 . S
C93 C94 1.396 . S
C93 C100 1.403 . S
C94 C84 1.476 . S
C94 N89 1.318 . S
C94 C93 1.396 . S
H95 C90 0.929 . S
O96 Mn72 2.385 . S
O96 C74 1.234 . S
O97 Mn72 2.209 . S
O97 Mn73 2.215 . S
O97 C74 1.283 . S
O98 Mn72 2.094 . S
O98 C76 1.240 . S
O99 Mn73 2.117 . S
O99 C76 1.264 . S
C100 C93 1.403 . S
C100 C101 1.399 . S
C100 H106 0.929 . S
C101 C81 1.449 . S
C101 C100 1.399 . S
C101 H107 0.930 . S
H102 C82 0.931 . S
H103 C83 0.930 . S
H104 C91 0.931 . S
H105 C92 0.929 . S
H106 C100 0.929 . S
H107 C101 0.930 . S
Mn108 O113 2.095 . S
Mn108 O123 2.162 . S
Mn108 O124 2.297 . S
Mn108 O132 2.385 . S
Mn108 O133 2.209 . S
Mn108 O134 2.094 . S
Mn109 O114 2.121 . S
Mn109 N116 2.257 . S
Mn109 N125 2.282 . S
Mn109 O133 2.215 . S
Mn109 O135 2.117 . S
C110 O132 1.234 . S
C110 O133 1.283 . S
C111 O123 1.281 . S
C111 O124 1.236 . S
C112 O134 1.240 . S
C112 O135 1.264 . S
O113 Mn108 2.095 . S
O113 C122 1.250 . S
O114 Mn109 2.121 . S
O114 C122 1.258 . S
C115 N116 1.326 . S
C115 C119 1.460 . S
C115 H121 0.929 . S
N116 Mn109 2.257 . S
N116 C115 1.326 . S
N116 C120 1.362 . S
C117 C118 1.258 . S
C117 C120 1.431 . S
C117 C137 1.449 . S
C118 C117 1.258 . S
C118 C119 1.477 . S
C118 H138 0.931 . S
C119 C115 1.460 . S
C119 C118 1.477 . S
C119 H139 0.930 . S
C120 N116 1.362 . S
C120 C117 1.431 . S
C120 C130 1.476 . S
H121 C115 0.929 . S
C122 O113 1.250 . S
C122 O114 1.258 . S
O123 Mn108 2.162 . S
O123 C111 1.281 . S
O124 Mn108 2.297 . S
O124 C111 1.236 . S
N125 Mn109 2.282 . S
N125 C126 1.328 . S
N125 C130 1.318 . S
C126 N125 1.328 . S
C126 C127 1.457 . S
C126 H131 0.929 . S
C127 C126 1.457 . S
C127 C128 1.291 . S
C127 H140 0.931 . S
C128 C127 1.291 . S
C128 C129 1.373 . S
C128 H141 0.929 . S
C129 C128 1.373 . S
C129 C130 1.396 . S
C129 C136 1.403 . S
C130 C120 1.476 . S
C130 N125 1.318 . S
C130 C129 1.396 . S
H131 C126 0.929 . S
O132 Mn108 2.385 . S
O132 C110 1.234 . S
O133 Mn108 2.209 . S
O133 Mn109 2.215 . S
O133 C110 1.283 . S
O134 Mn108 2.094 . S
O134 C112 1.240 . S
O135 Mn109 2.117 . S
O135 C112 1.264 . S
C136 C129 1.403 . S
C136 C137 1.399 . S
C136 H142 0.929 . S
C137 C117 1.449 . S
C137 C136 1.399 . S
C137 H143 0.930 . S
H138 C118 0.931 . S
H139 C119 0.930 . S
H140 C127 0.931 . S
H141 C128 0.929 . S
H142 C136 0.929 . S
H143 C137 0.930 . S
Mn144 O149 2.095 . S
Mn144 O159 2.162 . S
Mn144 O160 2.297 . S
Mn144 O168 2.385 . S
Mn144 O169 2.209 . S
Mn144 O170 2.094 . S
Mn145 O150 2.121 . S
Mn145 N152 2.257 . S
Mn145 N161 2.282 . S
Mn145 O169 2.215 . S
Mn145 O171 2.117 . S
C146 O168 1.234 . S
C146 O169 1.283 . S
C147 O159 1.281 . S
C147 O160 1.236 . S
C148 O170 1.240 . S
C148 O171 1.264 . S
O149 Mn144 2.095 . S
O149 C158 1.250 . S
O150 Mn145 2.121 . S
O150 C158 1.258 . S
C151 N152 1.326 . S
C151 C155 1.460 . S
C151 H157 0.929 . S
N152 Mn145 2.257 . S
N152 C151 1.326 . S
N152 C156 1.362 . S
C153 C154 1.258 . S
C153 C156 1.431 . S
C153 C173 1.449 . S
C154 C153 1.258 . S
C154 C155 1.477 . S
C154 H174 0.931 . S
C155 C151 1.460 . S
C155 C154 1.477 . S
C155 H175 0.930 . S
C156 N152 1.362 . S
C156 C153 1.431 . S
C156 C166 1.476 . S
H157 C151 0.929 . S
C158 O149 1.250 . S
C158 O150 1.258 . S
O159 Mn144 2.162 . S
O159 C147 1.281 . S
O160 Mn144 2.297 . S
O160 C147 1.236 . S
N161 Mn145 2.282 . S
N161 C162 1.328 . S
N161 C166 1.318 . S
C162 N161 1.328 . S
C162 C163 1.457 . S
C162 H167 0.929 . S
C163 C162 1.457 . S
C163 C164 1.291 . S
C163 H176 0.931 . S
C164 C163 1.291 . S
C164 C165 1.373 . S
C164 H177 0.929 . S
C165 C164 1.373 . S
C165 C166 1.396 . S
C165 C172 1.403 . S
C166 C156 1.476 . S
C166 N161 1.318 . S
C166 C165 1.396 . S
H167 C162 0.929 . S
O168 Mn144 2.385 . S
O168 C146 1.234 . S
O169 Mn144 2.209 . S
O169 Mn145 2.215 . S
O169 C146 1.283 . S
O170 Mn144 2.094 . S
O170 C148 1.240 . S
O171 Mn145 2.117 . S
O171 C148 1.264 . S
C172 C165 1.403 . S
C172 C173 1.399 . S
C172 H178 0.929 . S
C173 C153 1.449 . S
C173 C172 1.399 . S
C173 H179 0.930 . S
H174 C154 0.931 . S
H175 C155 0.930 . S
H176 C163 0.931 . S
H177 C164 0.929 . S
H178 C172 0.929 . S
H179 C173 0.930 . S
Mn180 O185 2.095 . S
Mn180 O195 2.162 . S
Mn180 O196 2.297 . S
Mn180 O204 2.385 . S
Mn180 O205 2.209 . S
Mn180 O206 2.094 . S
Mn181 O186 2.121 . S
Mn181 N188 2.257 . S
Mn181 N197 2.282 . S
Mn181 O205 2.215 . S
Mn181 O207 2.117 . S
C182 O204 1.234 . S
C182 O205 1.283 . S
C183 O195 1.281 . S
C183 O196 1.236 . S
C184 O206 1.240 . S
C184 O207 1.264 . S
O185 Mn180 2.095 . S
O185 C194 1.250 . S
O186 Mn181 2.121 . S
O186 C194 1.258 . S
C187 N188 1.326 . S
C187 C191 1.460 . S
C187 H193 0.929 . S
N188 Mn181 2.257 . S
N188 C187 1.326 . S
N188 C192 1.362 . S
C189 C190 1.258 . S
C189 C192 1.431 . S
C189 C209 1.449 . S
C190 C189 1.258 . S
C190 C191 1.477 . S
C190 H210 0.931 . S
C191 C187 1.460 . S
C191 C190 1.477 . S
C191 H211 0.930 . S
C192 N188 1.362 . S
C192 C189 1.431 . S
C192 C202 1.476 . S
H193 C187 0.929 . S
C194 O185 1.250 . S
C194 O186 1.258 . S
O195 Mn180 2.162 . S
O195 C183 1.281 . S
O196 Mn180 2.297 . S
O196 C183 1.236 . S
N197 Mn181 2.282 . S
N197 C198 1.328 . S
N197 C202 1.318 . S
C198 N197 1.328 . S
C198 C199 1.457 . S
C198 H203 0.929 . S
C199 C198 1.457 . S
C199 C200 1.291 . S
C199 H212 0.931 . S
C200 C199 1.291 . S
C200 C201 1.373 . S
C200 H213 0.929 . S
C201 C200 1.373 . S
C201 C202 1.396 . S
C201 C208 1.403 . S
C202 C192 1.476 . S
C202 N197 1.318 . S
C202 C201 1.396 . S
H203 C198 0.929 . S
O204 Mn180 2.385 . S
O204 C182 1.234 . S
O205 Mn180 2.209 . S
O205 Mn181 2.215 . S
O205 C182 1.283 . S
O206 Mn180 2.094 . S
O206 C184 1.240 . S
O207 Mn181 2.117 . S
O207 C184 1.264 . S
C208 C201 1.403 . S
C208 C209 1.399 . S
C208 H214 0.929 . S
C209 C189 1.449 . S
C209 C208 1.399 . S
C209 H215 0.930 . S
H210 C190 0.931 . S
H211 C191 0.930 . S
H212 C199 0.931 . S
H213 C200 0.929 . S
H214 C208 0.929 . S
H215 C209 0.930 . S
Mn216 O221 2.095 . S
Mn216 O231 2.162 . S
Mn216 O232 2.297 . S
Mn216 O240 2.385 . S
Mn216 O241 2.209 . S
Mn216 O242 2.094 . S
Mn217 O222 2.121 . S
Mn217 N224 2.257 . S
Mn217 N233 2.282 . S
Mn217 O241 2.215 . S
Mn217 O243 2.117 . S
C218 O240 1.234 . S
C218 O241 1.283 . S
C219 O231 1.281 . S
C219 O232 1.236 . S
C220 O242 1.240 . S
C220 O243 1.264 . S
O221 Mn216 2.095 . S
O221 C230 1.250 . S
O222 Mn217 2.121 . S
O222 C230 1.258 . S
C223 N224 1.326 . S
C223 C227 1.460 . S
C223 H229 0.929 . S
N224 Mn217 2.257 . S
N224 C223 1.326 . S
N224 C228 1.362 . S
C225 C226 1.258 . S
C225 C228 1.431 . S
C225 C245 1.449 . S
C226 C225 1.258 . S
C226 C227 1.477 . S
C226 H246 0.931 . S
C227 C223 1.460 . S
C227 C226 1.477 . S
C227 H247 0.930 . S
C228 N224 1.362 . S
C228 C225 1.431 . S
C228 C238 1.476 . S
H229 C223 0.929 . S
C230 O221 1.250 . S
C230 O222 1.258 . S
O231 Mn216 2.162 . S
O231 C219 1.281 . S
O232 Mn216 2.297 . S
O232 C219 1.236 . S
N233 Mn217 2.282 . S
N233 C234 1.328 . S
N233 C238 1.318 . S
C234 N233 1.328 . S
C234 C235 1.457 . S
C234 H239 0.929 . S
C235 C234 1.457 . S
C235 C236 1.291 . S
C235 H248 0.931 . S
C236 C235 1.291 . S
C236 C237 1.373 . S
C236 H249 0.929 . S
C237 C236 1.373 . S
C237 C238 1.396 . S
C237 C244 1.403 . S
C238 C228 1.476 . S
C238 N233 1.318 . S
C238 C237 1.396 . S
H239 C234 0.929 . S
O240 Mn216 2.385 . S
O240 C218 1.234 . S
O241 Mn216 2.209 . S
O241 Mn217 2.215 . S
O241 C218 1.283 . S
O242 Mn216 2.094 . S
O242 C220 1.240 . S
O243 Mn217 2.117 . S
O243 C220 1.264 . S
C244 C237 1.403 . S
C244 C245 1.399 . S
C244 H250 0.929 . S
C245 C225 1.449 . S
C245 C244 1.399 . S
C245 H251 0.930 . S
H246 C226 0.931 . S
H247 C227 0.930 . S
H248 C235 0.931 . S
H249 C236 0.929 . S
H250 C244 0.929 . S
H251 C245 0.930 . S
Mn252 O257 2.095 . S
Mn252 O267 2.162 . S
Mn252 O268 2.297 . S
Mn252 O276 2.385 . S
Mn252 O277 2.209 . S
Mn252 O278 2.094 . S
Mn253 O258 2.121 . S
Mn253 N260 2.257 . S
Mn253 N269 2.282 . S
Mn253 O277 2.215 . S
Mn253 O279 2.117 . S
C254 O276 1.234 . S
C254 O277 1.283 . S
C255 O267 1.281 . S
C255 O268 1.236 . S
C256 O278 1.240 . S
C256 O279 1.264 . S
O257 Mn252 2.095 . S
O257 C266 1.250 . S
O258 Mn253 2.121 . S
O258 C266 1.258 . S
C259 N260 1.326 . S
C259 C263 1.460 . S
C259 H265 0.929 . S
N260 Mn253 2.257 . S
N260 C259 1.326 . S
N260 C264 1.362 . S
C261 C262 1.258 . S
C261 C264 1.431 . S
C261 C281 1.449 . S
C262 C261 1.258 . S
C262 C263 1.477 . S
C262 H282 0.931 . S
C263 C259 1.460 . S
C263 C262 1.477 . S
C263 H283 0.930 . S
C264 N260 1.362 . S
C264 C261 1.431 . S
C264 C274 1.476 . S
H265 C259 0.929 . S
C266 O257 1.250 . S
C266 O258 1.258 . S
O267 Mn252 2.162 . S
O267 C255 1.281 . S
O268 Mn252 2.297 . S
O268 C255 1.236 . S
N269 Mn253 2.282 . S
N269 C270 1.328 . S
N269 C274 1.318 . S
C270 N269 1.328 . S
C270 C271 1.457 . S
C270 H275 0.929 . S
C271 C270 1.457 . S
C271 C272 1.291 . S
C271 H284 0.931 . S
C272 C271 1.291 . S
C272 C273 1.373 . S
C272 H285 0.929 . S
C273 C272 1.373 . S
C273 C274 1.396 . S
C273 C280 1.403 . S
C274 C264 1.476 . S
C274 N269 1.318 . S
C274 C273 1.396 . S
H275 C270 0.929 . S
O276 Mn252 2.385 . S
O276 C254 1.234 . S
O277 Mn252 2.209 . S
O277 Mn253 2.215 . S
O277 C254 1.283 . S
O278 Mn252 2.094 . S
O278 C256 1.240 . S
O279 Mn253 2.117 . S
O279 C256 1.264 . S
C280 C273 1.403 . S
C280 C281 1.399 . S
C280 H286 0.929 . S
C281 C261 1.449 . S
C281 C280 1.399 . S
C281 H287 0.930 . S
H282 C262 0.931 . S
H283 C263 0.930 . S
H284 C271 0.931 . S
H285 C272 0.929 . S
H286 C280 0.929 . S
H287 C281 0.930 . S
Mn288 O293 2.095 . S
Mn288 O303 2.162 . S
Mn288 O304 2.297 . S
Mn288 O312 2.385 . S
Mn288 O313 2.209 . S
Mn288 O314 2.094 . S
Mn289 O294 2.121 . S
Mn289 N296 2.257 . S
Mn289 N305 2.282 . S
Mn289 O313 2.215 . S
Mn289 O315 2.117 . S
C290 O312 1.234 . S
C290 O313 1.283 . S
C291 O303 1.281 . S
C291 O304 1.236 . S
C292 O314 1.240 . S
C292 O315 1.264 . S
O293 Mn288 2.095 . S
O293 C302 1.250 . S
O294 Mn289 2.121 . S
O294 C302 1.258 . S
C295 N296 1.326 . S
C295 C299 1.460 . S
C295 H301 0.929 . S
N296 Mn289 2.257 . S
N296 C295 1.326 . S
N296 C300 1.362 . S
C297 C298 1.258 . S
C297 C300 1.431 . S
C297 C317 1.449 . S
C298 C297 1.258 . S
C298 C299 1.477 . S
C298 H318 0.931 . S
C299 C295 1.460 . S
C299 C298 1.477 . S
C299 H319 0.930 . S
C300 N296 1.362 . S
C300 C297 1.431 . S
C300 C310 1.476 . S
H301 C295 0.929 . S
C302 O293 1.250 . S
C302 O294 1.258 . S
O303 Mn288 2.162 . S
O303 C291 1.281 . S
O304 Mn288 2.297 . S
O304 C291 1.236 . S
N305 Mn289 2.282 . S
N305 C306 1.328 . S
N305 C310 1.318 . S
C306 N305 1.328 . S
C306 C307 1.457 . S
C306 H311 0.929 . S
C307 C306 1.457 . S
C307 C308 1.291 . S
C307 H320 0.931 . S
C308 C307 1.291 . S
C308 C309 1.373 . S
C308 H321 0.929 . S
C309 C308 1.373 . S
C309 C310 1.396 . S
C309 C316 1.403 . S
C310 C300 1.476 . S
C310 N305 1.318 . S
C310 C309 1.396 . S
H311 C306 0.929 . S
O312 Mn288 2.385 . S
O312 C290 1.234 . S
O313 Mn288 2.209 . S
O313 Mn289 2.215 . S
O313 C290 1.283 . S
O314 Mn288 2.094 . S
O314 C292 1.240 . S
O315 Mn289 2.117 . S
O315 C292 1.264 . S
C316 C309 1.403 . S
C316 C317 1.399 . S
C316 H322 0.929 . S
C317 C297 1.449 . S
C317 C316 1.399 . S
C317 H323 0.930 . S
H318 C298 0.931 . S
H319 C299 0.930 . S
H320 C307 0.931 . S
H321 C308 0.929 . S
H322 C316 0.929 . S
H323 C317 0.930 . S
Mn324 O329 2.095 . S
Mn324 O339 2.162 . S
Mn324 O340 2.297 . S
Mn324 O348 2.385 . S
Mn324 O349 2.209 . S
Mn324 O350 2.094 . S
Mn325 O330 2.121 . S
Mn325 N332 2.257 . S
Mn325 N341 2.282 . S
Mn325 O349 2.215 . S
Mn325 O351 2.117 . S
C326 O348 1.234 . S
C326 O349 1.283 . S
C327 O339 1.281 . S
C327 O340 1.236 . S
C328 O350 1.240 . S
C328 O351 1.264 . S
O329 Mn324 2.095 . S
O329 C338 1.250 . S
O330 Mn325 2.121 . S
O330 C338 1.258 . S
C331 N332 1.326 . S
C331 C335 1.460 . S
C331 H337 0.929 . S
N332 Mn325 2.257 . S
N332 C331 1.326 . S
N332 C336 1.362 . S
C333 C334 1.258 . S
C333 C336 1.431 . S
C333 C353 1.449 . S
C334 C333 1.258 . S
C334 C335 1.477 . S
C334 H354 0.931 . S
C335 C331 1.460 . S
C335 C334 1.477 . S
C335 H355 0.930 . S
C336 N332 1.362 . S
C336 C333 1.431 . S
C336 C346 1.476 . S
H337 C331 0.929 . S
C338 O329 1.250 . S
C338 O330 1.258 . S
O339 Mn324 2.162 . S
O339 C327 1.281 . S
O340 Mn324 2.297 . S
O340 C327 1.236 . S
N341 Mn325 2.282 . S
N341 C342 1.328 . S
N341 C346 1.318 . S
C342 N341 1.328 . S
C342 C343 1.457 . S
C342 H347 0.929 . S
C343 C342 1.457 . S
C343 C344 1.291 . S
C343 H356 0.931 . S
C344 C343 1.291 . S
C344 C345 1.373 . S
C344 H357 0.929 . S
C345 C344 1.373 . S
C345 C346 1.396 . S
C345 C352 1.403 . S
C346 C336 1.476 . S
C346 N341 1.318 . S
C346 C345 1.396 . S
H347 C342 0.929 . S
O348 Mn324 2.385 . S
O348 C326 1.234 . S
O349 Mn324 2.209 . S
O349 Mn325 2.215 . S
O349 C326 1.283 . S
O350 Mn324 2.094 . S
O350 C328 1.240 . S
O351 Mn325 2.117 . S
O351 C328 1.264 . S
C352 C345 1.403 . S
C352 C353 1.399 . S
C352 H358 0.929 . S
C353 C333 1.449 . S
C353 C352 1.399 . S
C353 H359 0.930 . S
H354 C334 0.931 . S
H355 C335 0.930 . S
H356 C343 0.931 . S
H357 C344 0.929 . S
H358 C352 0.929 . S
H359 C353 0.930 . S
Mn360 O365 2.095 . S
Mn360 O375 2.162 . S
Mn360 O376 2.297 . S
Mn360 O384 2.385 . S
Mn360 O385 2.209 . S
Mn360 O386 2.094 . S
Mn361 O366 2.121 . S
Mn361 N368 2.257 . S
Mn361 N377 2.282 . S
Mn361 O385 2.215 . S
Mn361 O387 2.117 . S
C362 O384 1.234 . S
C362 O385 1.283 . S
C363 O375 1.281 . S
C363 O376 1.236 . S
C364 O386 1.240 . S
C364 O387 1.264 . S
O365 Mn360 2.095 . S
O365 C374 1.250 . S
O366 Mn361 2.121 . S
O366 C374 1.258 . S
C367 N368 1.326 . S
C367 C371 1.460 . S
C367 H373 0.929 . S
N368 Mn361 2.257 . S
N368 C367 1.326 . S
N368 C372 1.362 . S
C369 C370 1.258 . S
C369 C372 1.431 . S
C369 C389 1.449 . S
C370 C369 1.258 . S
C370 C371 1.477 . S
C370 H390 0.931 . S
C371 C367 1.460 . S
C371 C370 1.477 . S
C371 H391 0.930 . S
C372 N368 1.362 . S
C372 C369 1.431 . S
C372 C382 1.476 . S
H373 C367 0.929 . S
C374 O365 1.250 . S
C374 O366 1.258 . S
O375 Mn360 2.162 . S
O375 C363 1.281 . S
O376 Mn360 2.297 . S
O376 C363 1.236 . S
N377 Mn361 2.282 . S
N377 C378 1.328 . S
N377 C382 1.318 . S
C378 N377 1.328 . S
C378 C379 1.457 . S
C378 H383 0.929 . S
C379 C378 1.457 . S
C379 C380 1.291 . S
C379 H392 0.931 . S
C380 C379 1.291 . S
C380 C381 1.373 . S
C380 H393 0.929 . S
C381 C380 1.373 . S
C381 C382 1.396 . S
C381 C388 1.403 . S
C382 C372 1.476 . S
C382 N377 1.318 . S
C382 C381 1.396 . S
H383 C378 0.929 . S
O384 Mn360 2.385 . S
O384 C362 1.234 . S
O385 Mn360 2.209 . S
O385 Mn361 2.215 . S
O385 C362 1.283 . S
O386 Mn360 2.094 . S
O386 C364 1.240 . S
O387 Mn361 2.117 . S
O387 C364 1.264 . S
C388 C381 1.403 . S
C388 C389 1.399 . S
C388 H394 0.929 . S
C389 C369 1.449 . S
C389 C388 1.399 . S
C389 H395 0.930 . S
H390 C370 0.931 . S
H391 C371 0.930 . S
H392 C379 0.931 . S
H393 C380 0.929 . S
H394 C388 0.929 . S
H395 C389 0.930 . S
Mn396 O401 2.095 . S
Mn396 O411 2.162 . S
Mn396 O412 2.297 . S
Mn396 O420 2.385 . S
Mn396 O421 2.209 . S
Mn396 O422 2.094 . S
Mn397 O402 2.121 . S
Mn397 N404 2.257 . S
Mn397 N413 2.282 . S
Mn397 O421 2.215 . S
Mn397 O423 2.117 . S
C398 O420 1.234 . S
C398 O421 1.283 . S
C399 O411 1.281 . S
C399 O412 1.236 . S
C400 O422 1.240 . S
C400 O423 1.264 . S
O401 Mn396 2.095 . S
O401 C410 1.250 . S
O402 Mn397 2.121 . S
O402 C410 1.258 . S
C403 N404 1.326 . S
C403 C407 1.460 . S
C403 H409 0.929 . S
N404 Mn397 2.257 . S
N404 C403 1.326 . S
N404 C408 1.362 . S
C405 C406 1.258 . S
C405 C408 1.431 . S
C405 C425 1.449 . S
C406 C405 1.258 . S
C406 C407 1.477 . S
C406 H426 0.931 . S
C407 C403 1.460 . S
C407 C406 1.477 . S
C407 H427 0.930 . S
C408 N404 1.362 . S
C408 C405 1.431 . S
C408 C418 1.476 . S
H409 C403 0.929 . S
C410 O401 1.250 . S
C410 O402 1.258 . S
O411 Mn396 2.162 . S
O411 C399 1.281 . S
O412 Mn396 2.297 . S
O412 C399 1.236 . S
N413 Mn397 2.282 . S
N413 C414 1.328 . S
N413 C418 1.318 . S
C414 N413 1.328 . S
C414 C415 1.457 . S
C414 H419 0.929 . S
C415 C414 1.457 . S
C415 C416 1.291 . S
C415 H428 0.931 . S
C416 C415 1.291 . S
C416 C417 1.373 . S
C416 H429 0.929 . S
C417 C416 1.373 . S
C417 C418 1.396 . S
C417 C424 1.403 . S
C418 C408 1.476 . S
C418 N413 1.318 . S
C418 C417 1.396 . S
H419 C414 0.929 . S
O420 Mn396 2.385 . S
O420 C398 1.234 . S
O421 Mn396 2.209 . S
O421 Mn397 2.215 . S
O421 C398 1.283 . S
O422 Mn396 2.094 . S
O422 C400 1.240 . S
O423 Mn397 2.117 . S
O423 C400 1.264 . S
C424 C417 1.403 . S
C424 C425 1.399 . S
C424 H430 0.929 . S
C425 C405 1.449 . S
C425 C424 1.399 . S
C425 H431 0.930 . S
H426 C406 0.931 . S
H427 C407 0.930 . S
H428 C415 0.931 . S
H429 C416 0.929 . S
H430 C424 0.929 . S
H431 C425 0.930 . S
Mn432 O437 2.095 . S
Mn432 O447 2.162 . S
Mn432 O448 2.297 . S
Mn432 O456 2.385 . S
Mn432 O457 2.209 . S
Mn432 O458 2.094 . S
Mn433 O438 2.121 . S
Mn433 N440 2.257 . S
Mn433 N449 2.282 . S
Mn433 O457 2.215 . S
Mn433 O459 2.117 . S
C434 O456 1.234 . S
C434 O457 1.283 . S
C435 O447 1.281 . S
C435 O448 1.236 . S
C436 O458 1.240 . S
C436 O459 1.264 . S
O437 Mn432 2.095 . S
O437 C446 1.250 . S
O438 Mn433 2.121 . S
O438 C446 1.258 . S
C439 N440 1.326 . S
C439 C443 1.460 . S
C439 H445 0.929 . S
N440 Mn433 2.257 . S
N440 C439 1.326 . S
N440 C444 1.362 . S
C441 C442 1.258 . S
C441 C444 1.431 . S
C441 C461 1.449 . S
C442 C441 1.258 . S
C442 C443 1.477 . S
C442 H462 0.931 . S
C443 C439 1.460 . S
C443 C442 1.477 . S
C443 H463 0.930 . S
C444 N440 1.362 . S
C444 C441 1.431 . S
C444 C454 1.476 . S
H445 C439 0.929 . S
C446 O437 1.250 . S
C446 O438 1.258 . S
O447 Mn432 2.162 . S
O447 C435 1.281 . S
O448 Mn432 2.297 . S
O448 C435 1.236 . S
N449 Mn433 2.282 . S
N449 C450 1.328 . S
N449 C454 1.318 . S
C450 N449 1.328 . S
C450 C451 1.457 . S
C450 H455 0.929 . S
C451 C450 1.457 . S
C451 C452 1.291 . S
C451 H464 0.931 . S
C452 C451 1.291 . S
C452 C453 1.373 . S
C452 H465 0.929 . S
C453 C452 1.373 . S
C453 C454 1.396 . S
C453 C460 1.403 . S
C454 C444 1.476 . S
C454 N449 1.318 . S
C454 C453 1.396 . S
H455 C450 0.929 . S
O456 Mn432 2.385 . S
O456 C434 1.234 . S
O457 Mn432 2.209 . S
O457 Mn433 2.215 . S
O457 C434 1.283 . S
O458 Mn432 2.094 . S
O458 C436 1.240 . S
O459 Mn433 2.117 . S
O459 C436 1.264 . S
C460 C453 1.403 . S
C460 C461 1.399 . S
C460 H466 0.929 . S
C461 C441 1.449 . S
C461 C460 1.399 . S
C461 H467 0.930 . S
H462 C442 0.931 . S
H463 C443 0.930 . S
H464 C451 0.931 . S
H465 C452 0.929 . S
H466 C460 0.929 . S
H467 C461 0.930 . S
Mn468 O473 2.095 . S
Mn468 O483 2.162 . S
Mn468 O484 2.297 . S
Mn468 O492 2.385 . S
Mn468 O493 2.209 . S
Mn468 O494 2.094 . S
Mn469 O474 2.121 . S
Mn469 N476 2.257 . S
Mn469 N485 2.282 . S
Mn469 O493 2.215 . S
Mn469 O495 2.117 . S
C470 O492 1.234 . S
C470 O493 1.283 . S
C471 O483 1.281 . S
C471 O484 1.236 . S
C472 O494 1.240 . S
C472 O495 1.264 . S
O473 Mn468 2.095 . S
O473 C482 1.250 . S
O474 Mn469 2.121 . S
O474 C482 1.258 . S
C475 N476 1.326 . S
C475 C479 1.460 . S
C475 H481 0.929 . S
N476 Mn469 2.257 . S
N476 C475 1.326 . S
N476 C480 1.362 . S
C477 C478 1.258 . S
C477 C480 1.431 . S
C477 C497 1.449 . S
C478 C477 1.258 . S
C478 C479 1.477 . S
C478 H498 0.931 . S
C479 C475 1.460 . S
C479 C478 1.477 . S
C479 H499 0.930 . S
C480 N476 1.362 . S
C480 C477 1.431 . S
C480 C490 1.476 . S
H481 C475 0.929 . S
C482 O473 1.250 . S
C482 O474 1.258 . S
O483 Mn468 2.162 . S
O483 C471 1.281 . S
O484 Mn468 2.297 . S
O484 C471 1.236 . S
N485 Mn469 2.282 . S
N485 C486 1.328 . S
N485 C490 1.318 . S
C486 N485 1.328 . S
C486 C487 1.457 . S
C486 H491 0.929 . S
C487 C486 1.457 . S
C487 C488 1.291 . S
C487 H500 0.931 . S
C488 C487 1.291 . S
C488 C489 1.373 . S
C488 H501 0.929 . S
C489 C488 1.373 . S
C489 C490 1.396 . S
C489 C496 1.403 . S
C490 C480 1.476 . S
C490 N485 1.318 . S
C490 C489 1.396 . S
H491 C486 0.929 . S
O492 Mn468 2.385 . S
O492 C470 1.234 . S
O493 Mn468 2.209 . S
O493 Mn469 2.215 . S
O493 C470 1.283 . S
O494 Mn468 2.094 . S
O494 C472 1.240 . S
O495 Mn469 2.117 . S
O495 C472 1.264 . S
C496 C489 1.403 . S
C496 C497 1.399 . S
C496 H502 0.929 . S
C497 C477 1.449 . S
C497 C496 1.399 . S
C497 H503 0.930 . S
H498 C478 0.931 . S
H499 C479 0.930 . S
H500 C487 0.931 . S
H501 C488 0.929 . S
H502 C496 0.929 . S
H503 C497 0.930 . S
Mn504 O509 2.095 . S
Mn504 O519 2.162 . S
Mn504 O520 2.297 . S
Mn504 O528 2.385 . S
Mn504 O529 2.209 . S
Mn504 O530 2.094 . S
Mn505 O510 2.121 . S
Mn505 N512 2.257 . S
Mn505 N521 2.282 . S
Mn505 O529 2.215 . S
Mn505 O531 2.117 . S
C506 O528 1.234 . S
C506 O529 1.283 . S
C507 O519 1.281 . S
C507 O520 1.236 . S
C508 O530 1.240 . S
C508 O531 1.264 . S
O509 Mn504 2.095 . S
O509 C518 1.250 . S
O510 Mn505 2.121 . S
O510 C518 1.258 . S
C511 N512 1.326 . S
C511 C515 1.460 . S
C511 H517 0.929 . S
N512 Mn505 2.257 . S
N512 C511 1.326 . S
N512 C516 1.362 . S
C513 C514 1.258 . S
C513 C516 1.431 . S
C513 C533 1.449 . S
C514 C513 1.258 . S
C514 C515 1.477 . S
C514 H534 0.931 . S
C515 C511 1.460 . S
C515 C514 1.477 . S
C515 H535 0.930 . S
C516 N512 1.362 . S
C516 C513 1.431 . S
C516 C526 1.476 . S
H517 C511 0.929 . S
C518 O509 1.250 . S
C518 O510 1.258 . S
O519 Mn504 2.162 . S
O519 C507 1.281 . S
O520 Mn504 2.297 . S
O520 C507 1.236 . S
N521 Mn505 2.282 . S
N521 C522 1.328 . S
N521 C526 1.318 . S
C522 N521 1.328 . S
C522 C523 1.457 . S
C522 H527 0.929 . S
C523 C522 1.457 . S
C523 C524 1.291 . S
C523 H536 0.931 . S
C524 C523 1.291 . S
C524 C525 1.373 . S
C524 H537 0.929 . S
C525 C524 1.373 . S
C525 C526 1.396 . S
C525 C532 1.403 . S
C526 C516 1.476 . S
C526 N521 1.318 . S
C526 C525 1.396 . S
H527 C522 0.929 . S
O528 Mn504 2.385 . S
O528 C506 1.234 . S
O529 Mn504 2.209 . S
O529 Mn505 2.215 . S
O529 C506 1.283 . S
O530 Mn504 2.094 . S
O530 C508 1.240 . S
O531 Mn505 2.117 . S
O531 C508 1.264 . S
C532 C525 1.403 . S
C532 C533 1.399 . S
C532 H538 0.929 . S
C533 C513 1.449 . S
C533 C532 1.399 . S
C533 H539 0.930 . S
H534 C514 0.931 . S
H535 C515 0.930 . S
H536 C523 0.931 . S
H537 C524 0.929 . S
H538 C532 0.929 . S
H539 C533 0.930 . S
Mn540 O545 2.095 . S
Mn540 O555 2.162 . S
Mn540 O556 2.297 . S
Mn540 O564 2.385 . S
Mn540 O565 2.209 . S
Mn540 O566 2.094 . S
Mn541 O546 2.121 . S
Mn541 N548 2.257 . S
Mn541 N557 2.282 . S
Mn541 O565 2.215 . S
Mn541 O567 2.117 . S
C542 O564 1.234 . S
C542 O565 1.283 . S
C543 O555 1.281 . S
C543 O556 1.236 . S
C544 O566 1.240 . S
C544 O567 1.264 . S
O545 Mn540 2.095 . S
O545 C554 1.250 . S
O546 Mn541 2.121 . S
O546 C554 1.258 . S
C547 N548 1.326 . S
C547 C551 1.460 . S
C547 H553 0.929 . S
N548 Mn541 2.257 . S
N548 C547 1.326 . S
N548 C552 1.362 . S
C549 C550 1.258 . S
C549 C552 1.431 . S
C549 C569 1.449 . S
C550 C549 1.258 . S
C550 C551 1.477 . S
C550 H570 0.931 . S
C551 C547 1.460 . S
C551 C550 1.477 . S
C551 H571 0.930 . S
C552 N548 1.362 . S
C552 C549 1.431 . S
C552 C562 1.476 . S
H553 C547 0.929 . S
C554 O545 1.250 . S
C554 O546 1.258 . S
O555 Mn540 2.162 . S
O555 C543 1.281 . S
O556 Mn540 2.297 . S
O556 C543 1.236 . S
N557 Mn541 2.282 . S
N557 C558 1.328 . S
N557 C562 1.318 . S
C558 N557 1.328 . S
C558 C559 1.457 . S
C558 H563 0.929 . S
C559 C558 1.457 . S
C559 C560 1.291 . S
C559 H572 0.931 . S
C560 C559 1.291 . S
C560 C561 1.373 . S
C560 H573 0.929 . S
C561 C560 1.373 . S
C561 C562 1.396 . S
C561 C568 1.403 . S
C562 C552 1.476 . S
C562 N557 1.318 . S
C562 C561 1.396 . S
H563 C558 0.929 . S
O564 Mn540 2.385 . S
O564 C542 1.234 . S
O565 Mn540 2.209 . S
O565 Mn541 2.215 . S
O565 C542 1.283 . S
O566 Mn540 2.094 . S
O566 C544 1.240 . S
O567 Mn541 2.117 . S
O567 C544 1.264 . S
C568 C561 1.403 . S
C568 C569 1.399 . S
C568 H574 0.929 . S
C569 C549 1.449 . S
C569 C568 1.399 . S
C569 H575 0.930 . S
H570 C550 0.931 . S
H571 C551 0.930 . S
H572 C559 0.931 . S
H573 C560 0.929 . S
H574 C568 0.929 . S
H575 C569 0.930 . S
Mn576 O581 2.095 . S
Mn576 O591 2.162 . S
Mn576 O592 2.297 . S
Mn576 O600 2.385 . S
Mn576 O601 2.209 . S
Mn576 O602 2.094 . S
Mn577 O582 2.121 . S
Mn577 N584 2.257 . S
Mn577 N593 2.282 . S
Mn577 O601 2.215 . S
Mn577 O603 2.117 . S
C578 O600 1.234 . S
C578 O601 1.283 . S
C579 O591 1.281 . S
C579 O592 1.236 . S
C580 O602 1.240 . S
C580 O603 1.264 . S
O581 Mn576 2.095 . S
O581 C590 1.250 . S
O582 Mn577 2.121 . S
O582 C590 1.258 . S
C583 N584 1.326 . S
C583 C587 1.460 . S
C583 H589 0.929 . S
N584 Mn577 2.257 . S
N584 C583 1.326 . S
N584 C588 1.362 . S
C585 C586 1.258 . S
C585 C588 1.431 . S
C585 C605 1.449 . S
C586 C585 1.258 . S
C586 C587 1.477 . S
C586 H606 0.931 . S
C587 C583 1.460 . S
C587 C586 1.477 . S
C587 H607 0.930 . S
C588 N584 1.362 . S
C588 C585 1.431 . S
C588 C598 1.476 . S
H589 C583 0.929 . S
C590 O581 1.250 . S
C590 O582 1.258 . S
O591 Mn576 2.162 . S
O591 C579 1.281 . S
O592 Mn576 2.297 . S
O592 C579 1.236 . S
N593 Mn577 2.282 . S
N593 C594 1.328 . S
N593 C598 1.318 . S
C594 N593 1.328 . S
C594 C595 1.457 . S
C594 H599 0.929 . S
C595 C594 1.457 . S
C595 C596 1.291 . S
C595 H608 0.931 . S
C596 C595 1.291 . S
C596 C597 1.373 . S
C596 H609 0.929 . S
C597 C596 1.373 . S
C597 C598 1.396 . S
C597 C604 1.403 . S
C598 C588 1.476 . S
C598 N593 1.318 . S
C598 C597 1.396 . S
H599 C594 0.929 . S
O600 Mn576 2.385 . S
O600 C578 1.234 . S
O601 Mn576 2.209 . S
O601 Mn577 2.215 . S
O601 C578 1.283 . S
O602 Mn576 2.094 . S
O602 C580 1.240 . S
O603 Mn577 2.117 . S
O603 C580 1.264 . S
C604 C597 1.403 . S
C604 C605 1.399 . S
C604 H610 0.929 . S
C605 C585 1.449 . S
C605 C604 1.399 . S
C605 H611 0.930 . S
H606 C586 0.931 . S
H607 C587 0.930 . S
H608 C595 0.931 . S
H609 C596 0.929 . S
H610 C604 0.929 . S
H611 C605 0.930 . S
Mn612 O617 2.095 . S
Mn612 O627 2.162 . S
Mn612 O628 2.297 . S
Mn612 O636 2.385 . S
Mn612 O637 2.209 . S
Mn612 O638 2.094 . S
Mn613 O618 2.121 . S
Mn613 N620 2.257 . S
Mn613 N629 2.282 . S
Mn613 O637 2.215 . S
Mn613 O639 2.117 . S
C614 O636 1.234 . S
C614 O637 1.283 . S
C615 O627 1.281 . S
C615 O628 1.236 . S
C616 O638 1.240 . S
C616 O639 1.264 . S
O617 Mn612 2.095 . S
O617 C626 1.250 . S
O618 Mn613 2.121 . S
O618 C626 1.258 . S
C619 N620 1.326 . S
C619 C623 1.460 . S
C619 H625 0.929 . S
N620 Mn613 2.257 . S
N620 C619 1.326 . S
N620 C624 1.362 . S
C621 C622 1.258 . S
C621 C624 1.431 . S
C621 C641 1.449 . S
C622 C621 1.258 . S
C622 C623 1.477 . S
C622 H642 0.931 . S
C623 C619 1.460 . S
C623 C622 1.477 . S
C623 H643 0.930 . S
C624 N620 1.362 . S
C624 C621 1.431 . S
C624 C634 1.476 . S
H625 C619 0.929 . S
C626 O617 1.250 . S
C626 O618 1.258 . S
O627 Mn612 2.162 . S
O627 C615 1.281 . S
O628 Mn612 2.297 . S
O628 C615 1.236 . S
N629 Mn613 2.282 . S
N629 C630 1.328 . S
N629 C634 1.318 . S
C630 N629 1.328 . S
C630 C631 1.457 . S
C630 H635 0.929 . S
C631 C630 1.457 . S
C631 C632 1.291 . S
C631 H644 0.931 . S
C632 C631 1.291 . S
C632 C633 1.373 . S
C632 H645 0.929 . S
C633 C632 1.373 . S
C633 C634 1.396 . S
C633 C640 1.403 . S
C634 C624 1.476 . S
C634 N629 1.318 . S
C634 C633 1.396 . S
H635 C630 0.929 . S
O636 Mn612 2.385 . S
O636 C614 1.234 . S
O637 Mn612 2.209 . S
O637 Mn613 2.215 . S
O637 C614 1.283 . S
O638 Mn612 2.094 . S
O638 C616 1.240 . S
O639 Mn613 2.117 . S
O639 C616 1.264 . S
C640 C633 1.403 . S
C640 C641 1.399 . S
C640 H646 0.929 . S
C641 C621 1.449 . S
C641 C640 1.399 . S
C641 H647 0.930 . S
H642 C622 0.931 . S
H643 C623 0.930 . S
H644 C631 0.931 . S
H645 C632 0.929 . S
H646 C640 0.929 . S
H647 C641 0.930 . S
Mn648 O653 2.095 . S
Mn648 O663 2.162 . S
Mn648 O664 2.297 . S
Mn648 O672 2.385 . S
Mn648 O673 2.209 . S
Mn648 O674 2.094 . S
Mn649 O654 2.121 . S
Mn649 N656 2.257 . S
Mn649 N665 2.282 . S
Mn649 O673 2.215 . S
Mn649 O675 2.117 . S
C650 O672 1.234 . S
C650 O673 1.283 . S
C651 O663 1.281 . S
C651 O664 1.236 . S
C652 O674 1.240 . S
C652 O675 1.264 . S
O653 Mn648 2.095 . S
O653 C662 1.250 . S
O654 Mn649 2.121 . S
O654 C662 1.258 . S
C655 N656 1.326 . S
C655 C659 1.460 . S
C655 H661 0.929 . S
N656 Mn649 2.257 . S
N656 C655 1.326 . S
N656 C660 1.362 . S
C657 C658 1.258 . S
C657 C660 1.431 . S
C657 C677 1.449 . S
C658 C657 1.258 . S
C658 C659 1.477 . S
C658 H678 0.931 . S
C659 C655 1.460 . S
C659 C658 1.477 . S
C659 H679 0.930 . S
C660 N656 1.362 . S
C660 C657 1.431 . S
C660 C670 1.476 . S
H661 C655 0.929 . S
C662 O653 1.250 . S
C662 O654 1.258 . S
O663 Mn648 2.162 . S
O663 C651 1.281 . S
O664 Mn648 2.297 . S
O664 C651 1.236 . S
N665 Mn649 2.282 . S
N665 C666 1.328 . S
N665 C670 1.318 . S
C666 N665 1.328 . S
C666 C667 1.457 . S
C666 H671 0.929 . S
C667 C666 1.457 . S
C667 C668 1.291 . S
C667 H680 0.931 . S
C668 C667 1.291 . S
C668 C669 1.373 . S
C668 H681 0.929 . S
C669 C668 1.373 . S
C669 C670 1.396 . S
C669 C676 1.403 . S
C670 C660 1.476 . S
C670 N665 1.318 . S
C670 C669 1.396 . S
H671 C666 0.929 . S
O672 Mn648 2.385 . S
O672 C650 1.234 . S
O673 Mn648 2.209 . S
O673 Mn649 2.215 . S
O673 C650 1.283 . S
O674 Mn648 2.094 . S
O674 C652 1.240 . S
O675 Mn649 2.117 . S
O675 C652 1.264 . S
C676 C669 1.403 . S
C676 C677 1.399 . S
C676 H682 0.929 . S
C677 C657 1.449 . S
C677 C676 1.399 . S
C677 H683 0.930 . S
H678 C658 0.931 . S
H679 C659 0.930 . S
H680 C667 0.931 . S
H681 C668 0.929 . S
H682 C676 0.929 . S
H683 C677 0.930 . S
Mn684 O689 2.095 . S
Mn684 O699 2.162 . S
Mn684 O700 2.297 . S
Mn684 O708 2.385 . S
Mn684 O709 2.209 . S
Mn684 O710 2.094 . S
Mn685 O690 2.121 . S
Mn685 N692 2.257 . S
Mn685 N701 2.282 . S
Mn685 O709 2.215 . S
Mn685 O711 2.117 . S
C686 O708 1.234 . S
C686 O709 1.283 . S
C687 O699 1.281 . S
C687 O700 1.236 . S
C688 O710 1.240 . S
C688 O711 1.264 . S
O689 Mn684 2.095 . S
O689 C698 1.250 . S
O690 Mn685 2.121 . S
O690 C698 1.258 . S
C691 N692 1.326 . S
C691 C695 1.460 . S
C691 H697 0.929 . S
N692 Mn685 2.257 . S
N692 C691 1.326 . S
N692 C696 1.362 . S
C693 C694 1.258 . S
C693 C696 1.431 . S
C693 C713 1.449 . S
C694 C693 1.258 . S
C694 C695 1.477 . S
C694 H714 0.931 . S
C695 C691 1.460 . S
C695 C694 1.477 . S
C695 H715 0.930 . S
C696 N692 1.362 . S
C696 C693 1.431 . S
C696 C706 1.476 . S
H697 C691 0.929 . S
C698 O689 1.250 . S
C698 O690 1.258 . S
O699 Mn684 2.162 . S
O699 C687 1.281 . S
O700 Mn684 2.297 . S
O700 C687 1.236 . S
N701 Mn685 2.282 . S
N701 C702 1.328 . S
N701 C706 1.318 . S
C702 N701 1.328 . S
C702 C703 1.457 . S
C702 H707 0.929 . S
C703 C702 1.457 . S
C703 C704 1.291 . S
C703 H716 0.931 . S
C704 C703 1.291 . S
C704 C705 1.373 . S
C704 H717 0.929 . S
C705 C704 1.373 . S
C705 C706 1.396 . S
C705 C712 1.403 . S
C706 C696 1.476 . S
C706 N701 1.318 . S
C706 C705 1.396 . S
H707 C702 0.929 . S
O708 Mn684 2.385 . S
O708 C686 1.234 . S
O709 Mn684 2.209 . S
O709 Mn685 2.215 . S
O709 C686 1.283 . S
O710 Mn684 2.094 . S
O710 C688 1.240 . S
O711 Mn685 2.117 . S
O711 C688 1.264 . S
C712 C705 1.403 . S
C712 C713 1.399 . S
C712 H718 0.929 . S
C713 C693 1.449 . S
C713 C712 1.399 . S
C713 H719 0.930 . S
H714 C694 0.931 . S
H715 C695 0.930 . S
H716 C703 0.931 . S
H717 C704 0.929 . S
H718 C712 0.929 . S
H719 C713 0.930 . S
Mn720 O725 2.095 . S
Mn720 O735 2.162 . S
Mn720 O736 2.297 . S
Mn720 O744 2.385 . S
Mn720 O745 2.209 . S
Mn720 O746 2.094 . S
Mn721 O726 2.121 . S
Mn721 N728 2.257 . S
Mn721 N737 2.282 . S
Mn721 O745 2.215 . S
Mn721 O747 2.117 . S
C722 O744 1.234 . S
C722 O745 1.283 . S
C723 O735 1.281 . S
C723 O736 1.236 . S
C724 O746 1.240 . S
C724 O747 1.264 . S
O725 Mn720 2.095 . S
O725 C734 1.250 . S
O726 Mn721 2.121 . S
O726 C734 1.258 . S
C727 N728 1.326 . S
C727 C731 1.460 . S
C727 H733 0.929 . S
N728 Mn721 2.257 . S
N728 C727 1.326 . S
N728 C732 1.362 . S
C729 C730 1.258 . S
C729 C732 1.431 . S
C729 C749 1.449 . S
C730 C729 1.258 . S
C730 C731 1.477 . S
C730 H750 0.931 . S
C731 C727 1.460 . S
C731 C730 1.477 . S
C731 H751 0.930 . S
C732 N728 1.362 . S
C732 C729 1.431 . S
C732 C742 1.476 . S
H733 C727 0.929 . S
C734 O725 1.250 . S
C734 O726 1.258 . S
O735 Mn720 2.162 . S
O735 C723 1.281 . S
O736 Mn720 2.297 . S
O736 C723 1.236 . S
N737 Mn721 2.282 . S
N737 C738 1.328 . S
N737 C742 1.318 . S
C738 N737 1.328 . S
C738 C739 1.457 . S
C738 H743 0.929 . S
C739 C738 1.457 . S
C739 C740 1.291 . S
C739 H752 0.931 . S
C740 C739 1.291 . S
C740 C741 1.373 . S
C740 H753 0.929 . S
C741 C740 1.373 . S
C741 C742 1.396 . S
C741 C748 1.403 . S
C742 C732 1.476 . S
C742 N737 1.318 . S
C742 C741 1.396 . S
H743 C738 0.929 . S
O744 Mn720 2.385 . S
O744 C722 1.234 . S
O745 Mn720 2.209 . S
O745 Mn721 2.215 . S
O745 C722 1.283 . S
O746 Mn720 2.094 . S
O746 C724 1.240 . S
O747 Mn721 2.117 . S
O747 C724 1.264 . S
C748 C741 1.403 . S
C748 C749 1.399 . S
C748 H754 0.929 . S
C749 C729 1.449 . S
C749 C748 1.399 . S
C749 H755 0.930 . S
H750 C730 0.931 . S
H751 C731 0.930 . S
H752 C739 0.931 . S
H753 C740 0.929 . S
H754 C748 0.929 . S
H755 C749 0.930 . S
Mn756 O761 2.095 . S
Mn756 O771 2.162 . S
Mn756 O772 2.297 . S
Mn756 O780 2.385 . S
Mn756 O781 2.209 . S
Mn756 O782 2.094 . S
Mn757 O762 2.121 . S
Mn757 N764 2.257 . S
Mn757 N773 2.282 . S
Mn757 O781 2.215 . S
Mn757 O783 2.117 . S
C758 O780 1.234 . S
C758 O781 1.283 . S
C759 O771 1.281 . S
C759 O772 1.236 . S
C760 O782 1.240 . S
C760 O783 1.264 . S
O761 Mn756 2.095 . S
O761 C770 1.250 . S
O762 Mn757 2.121 . S
O762 C770 1.258 . S
C763 N764 1.326 . S
C763 C767 1.460 . S
C763 H769 0.929 . S
N764 Mn757 2.257 . S
N764 C763 1.326 . S
N764 C768 1.362 . S
C765 C766 1.258 . S
C765 C768 1.431 . S
C765 C785 1.449 . S
C766 C765 1.258 . S
C766 C767 1.477 . S
C766 H786 0.931 . S
C767 C763 1.460 . S
C767 C766 1.477 . S
C767 H787 0.930 . S
C768 N764 1.362 . S
C768 C765 1.431 . S
C768 C778 1.476 . S
H769 C763 0.929 . S
C770 O761 1.250 . S
C770 O762 1.258 . S
O771 Mn756 2.162 . S
O771 C759 1.281 . S
O772 Mn756 2.297 . S
O772 C759 1.236 . S
N773 Mn757 2.282 . S
N773 C774 1.328 . S
N773 C778 1.318 . S
C774 N773 1.328 . S
C774 C775 1.457 . S
C774 H779 0.929 . S
C775 C774 1.457 . S
C775 C776 1.291 . S
C775 H788 0.931 . S
C776 C775 1.291 . S
C776 C777 1.373 . S
C776 H789 0.929 . S
C777 C776 1.373 . S
C777 C778 1.396 . S
C777 C784 1.403 . S
C778 C768 1.476 . S
C778 N773 1.318 . S
C778 C777 1.396 . S
H779 C774 0.929 . S
O780 Mn756 2.385 . S
O780 C758 1.234 . S
O781 Mn756 2.209 . S
O781 Mn757 2.215 . S
O781 C758 1.283 . S
O782 Mn756 2.094 . S
O782 C760 1.240 . S
O783 Mn757 2.117 . S
O783 C760 1.264 . S
C784 C777 1.403 . S
C784 C785 1.399 . S
C784 H790 0.929 . S
C785 C765 1.449 . S
C785 C784 1.399 . S
C785 H791 0.930 . S
H786 C766 0.931 . S
H787 C767 0.930 . S
H788 C775 0.931 . S
H789 C776 0.929 . S
H790 C784 0.929 . S
H791 C785 0.930 . S
Mn792 O797 2.095 . S
Mn792 O807 2.162 . S
Mn792 O808 2.297 . S
Mn792 O816 2.385 . S
Mn792 O817 2.209 . S
Mn792 O818 2.094 . S
Mn793 O798 2.121 . S
Mn793 N800 2.257 . S
Mn793 N809 2.282 . S
Mn793 O817 2.215 . S
Mn793 O819 2.117 . S
C794 O816 1.234 . S
C794 O817 1.283 . S
C795 O807 1.281 . S
C795 O808 1.236 . S
C796 O818 1.240 . S
C796 O819 1.264 . S
O797 Mn792 2.095 . S
O797 C806 1.250 . S
O798 Mn793 2.121 . S
O798 C806 1.258 . S
C799 N800 1.326 . S
C799 C803 1.460 . S
C799 H805 0.929 . S
N800 Mn793 2.257 . S
N800 C799 1.326 . S
N800 C804 1.362 . S
C801 C802 1.258 . S
C801 C804 1.431 . S
C801 C821 1.449 . S
C802 C801 1.258 . S
C802 C803 1.477 . S
C802 H822 0.931 . S
C803 C799 1.460 . S
C803 C802 1.477 . S
C803 H823 0.930 . S
C804 N800 1.362 . S
C804 C801 1.431 . S
C804 C814 1.476 . S
H805 C799 0.929 . S
C806 O797 1.250 . S
C806 O798 1.258 . S
O807 Mn792 2.162 . S
O807 C795 1.281 . S
O808 Mn792 2.297 . S
O808 C795 1.236 . S
N809 Mn793 2.282 . S
N809 C810 1.328 . S
N809 C814 1.318 . S
C810 N809 1.328 . S
C810 C811 1.457 . S
C810 H815 0.929 . S
C811 C810 1.457 . S
C811 C812 1.291 . S
C811 H824 0.931 . S
C812 C811 1.291 . S
C812 C813 1.373 . S
C812 H825 0.929 . S
C813 C812 1.373 . S
C813 C814 1.396 . S
C813 C820 1.403 . S
C814 C804 1.476 . S
C814 N809 1.318 . S
C814 C813 1.396 . S
H815 C810 0.929 . S
O816 Mn792 2.385 . S
O816 C794 1.234 . S
O817 Mn792 2.209 . S
O817 Mn793 2.215 . S
O817 C794 1.283 . S
O818 Mn792 2.094 . S
O818 C796 1.240 . S
O819 Mn793 2.117 . S
O819 C796 1.264 . S
C820 C813 1.403 . S
C820 C821 1.399 . S
C820 H826 0.929 . S
C821 C801 1.449 . S
C821 C820 1.399 . S
C821 H827 0.930 . S
H822 C802 0.931 . S
H823 C803 0.930 . S
H824 C811 0.931 . S
H825 C812 0.929 . S
H826 C820 0.929 . S
H827 C821 0.930 . S
Mn828 O833 2.095 . S
Mn828 O843 2.162 . S
Mn828 O844 2.297 . S
Mn828 O852 2.385 . S
Mn828 O853 2.209 . S
Mn828 O854 2.094 . S
Mn829 O834 2.121 . S
Mn829 N836 2.257 . S
Mn829 N845 2.282 . S
Mn829 O853 2.215 . S
Mn829 O855 2.117 . S
C830 O852 1.234 . S
C830 O853 1.283 . S
C831 O843 1.281 . S
C831 O844 1.236 . S
C832 O854 1.240 . S
C832 O855 1.264 . S
O833 Mn828 2.095 . S
O833 C842 1.250 . S
O834 Mn829 2.121 . S
O834 C842 1.258 . S
C835 N836 1.326 . S
C835 C839 1.460 . S
C835 H841 0.929 . S
N836 Mn829 2.257 . S
N836 C835 1.326 . S
N836 C840 1.362 . S
C837 C838 1.258 . S
C837 C840 1.431 . S
C837 C857 1.449 . S
C838 C837 1.258 . S
C838 C839 1.477 . S
C838 H858 0.931 . S
C839 C835 1.460 . S
C839 C838 1.477 . S
C839 H859 0.930 . S
C840 N836 1.362 . S
C840 C837 1.431 . S
C840 C850 1.476 . S
H841 C835 0.929 . S
C842 O833 1.250 . S
C842 O834 1.258 . S
O843 Mn828 2.162 . S
O843 C831 1.281 . S
O844 Mn828 2.297 . S
O844 C831 1.236 . S
N845 Mn829 2.282 . S
N845 C846 1.328 . S
N845 C850 1.318 . S
C846 N845 1.328 . S
C846 C847 1.457 . S
C846 H851 0.929 . S
C847 C846 1.457 . S
C847 C848 1.291 . S
C847 H860 0.931 . S
C848 C847 1.291 . S
C848 C849 1.373 . S
C848 H861 0.929 . S
C849 C848 1.373 . S
C849 C850 1.396 . S
C849 C856 1.403 . S
C850 C840 1.476 . S
C850 N845 1.318 . S
C850 C849 1.396 . S
H851 C846 0.929 . S
O852 Mn828 2.385 . S
O852 C830 1.234 . S
O853 Mn828 2.209 . S
O853 Mn829 2.215 . S
O853 C830 1.283 . S
O854 Mn828 2.094 . S
O854 C832 1.240 . S
O855 Mn829 2.117 . S
O855 C832 1.264 . S
C856 C849 1.403 . S
C856 C857 1.399 . S
C856 H862 0.929 . S
C857 C837 1.449 . S
C857 C856 1.399 . S
C857 H863 0.930 . S
H858 C838 0.931 . S
H859 C839 0.930 . S
H860 C847 0.931 . S
H861 C848 0.929 . S
H862 C856 0.929 . S
H863 C857 0.930 . S
Mn864 O869 2.095 . S
Mn864 O879 2.162 . S
Mn864 O880 2.297 . S
Mn864 O888 2.385 . S
Mn864 O889 2.209 . S
Mn864 O890 2.094 . S
Mn865 O870 2.121 . S
Mn865 N872 2.257 . S
Mn865 N881 2.282 . S
Mn865 O889 2.215 . S
Mn865 O891 2.117 . S
C866 O888 1.234 . S
C866 O889 1.283 . S
C867 O879 1.281 . S
C867 O880 1.236 . S
C868 O890 1.240 . S
C868 O891 1.264 . S
O869 Mn864 2.095 . S
O869 C878 1.250 . S
O870 Mn865 2.121 . S
O870 C878 1.258 . S
C871 N872 1.326 . S
C871 C875 1.460 . S
C871 H877 0.929 . S
N872 Mn865 2.257 . S
N872 C871 1.326 . S
N872 C876 1.362 . S
C873 C874 1.258 . S
C873 C876 1.431 . S
C873 C893 1.449 . S
C874 C873 1.258 . S
C874 C875 1.477 . S
C874 H894 0.931 . S
C875 C871 1.460 . S
C875 C874 1.477 . S
C875 H895 0.930 . S
C876 N872 1.362 . S
C876 C873 1.431 . S
C876 C886 1.476 . S
H877 C871 0.929 . S
C878 O869 1.250 . S
C878 O870 1.258 . S
O879 Mn864 2.162 . S
O879 C867 1.281 . S
O880 Mn864 2.297 . S
O880 C867 1.236 . S
N881 Mn865 2.282 . S
N881 C882 1.328 . S
N881 C886 1.318 . S
C882 N881 1.328 . S
C882 C883 1.457 . S
C882 H887 0.929 . S
C883 C882 1.457 . S
C883 C884 1.291 . S
C883 H896 0.931 . S
C884 C883 1.291 . S
C884 C885 1.373 . S
C884 H897 0.929 . S
C885 C884 1.373 . S
C885 C886 1.396 . S
C885 C892 1.403 . S
C886 C876 1.476 . S
C886 N881 1.318 . S
C886 C885 1.396 . S
H887 C882 0.929 . S
O888 Mn864 2.385 . S
O888 C866 1.234 . S
O889 Mn864 2.209 . S
O889 Mn865 2.215 . S
O889 C866 1.283 . S
O890 Mn864 2.094 . S
O890 C868 1.240 . S
O891 Mn865 2.117 . S
O891 C868 1.264 . S
C892 C885 1.403 . S
C892 C893 1.399 . S
C892 H898 0.929 . S
C893 C873 1.449 . S
C893 C892 1.399 . S
C893 H899 0.930 . S
H894 C874 0.931 . S
H895 C875 0.930 . S
H896 C883 0.931 . S
H897 C884 0.929 . S
H898 C892 0.929 . S
H899 C893 0.930 . S
Mn900 O905 2.095 . S
Mn900 O915 2.162 . S
Mn900 O916 2.297 . S
Mn900 O924 2.385 . S
Mn900 O925 2.209 . S
Mn900 O926 2.094 . S
Mn901 O906 2.121 . S
Mn901 N908 2.257 . S
Mn901 N917 2.282 . S
Mn901 O925 2.215 . S
Mn901 O927 2.117 . S
C902 O924 1.234 . S
C902 O925 1.283 . S
C903 O915 1.281 . S
C903 O916 1.236 . S
C904 O926 1.240 . S
C904 O927 1.264 . S
O905 Mn900 2.095 . S
O905 C914 1.250 . S
O906 Mn901 2.121 . S
O906 C914 1.258 . S
C907 N908 1.326 . S
C907 C911 1.460 . S
C907 H913 0.929 . S
N908 Mn901 2.257 . S
N908 C907 1.326 . S
N908 C912 1.362 . S
C909 C910 1.258 . S
C909 C912 1.431 . S
C909 C929 1.449 . S
C910 C909 1.258 . S
C910 C911 1.477 . S
C910 H930 0.931 . S
C911 C907 1.460 . S
C911 C910 1.477 . S
C911 H931 0.930 . S
C912 N908 1.362 . S
C912 C909 1.431 . S
C912 C922 1.476 . S
H913 C907 0.929 . S
C914 O905 1.250 . S
C914 O906 1.258 . S
O915 Mn900 2.162 . S
O915 C903 1.281 . S
O916 Mn900 2.297 . S
O916 C903 1.236 . S
N917 Mn901 2.282 . S
N917 C918 1.328 . S
N917 C922 1.318 . S
C918 N917 1.328 . S
C918 C919 1.457 . S
C918 H923 0.929 . S
C919 C918 1.457 . S
C919 C920 1.291 . S
C919 H932 0.931 . S
C920 C919 1.291 . S
C920 C921 1.373 . S
C920 H933 0.929 . S
C921 C920 1.373 . S
C921 C922 1.396 . S
C921 C928 1.403 . S
C922 C912 1.476 . S
C922 N917 1.318 . S
C922 C921 1.396 . S
H923 C918 0.929 . S
O924 Mn900 2.385 . S
O924 C902 1.234 . S
O925 Mn900 2.209 . S
O925 Mn901 2.215 . S
O925 C902 1.283 . S
O926 Mn900 2.094 . S
O926 C904 1.240 . S
O927 Mn901 2.117 . S
O927 C904 1.264 . S
C928 C921 1.403 . S
C928 C929 1.399 . S
C928 H934 0.929 . S
C929 C909 1.449 . S
C929 C928 1.399 . S
C929 H935 0.930 . S
H930 C910 0.931 . S
H931 C911 0.930 . S
H932 C919 0.931 . S
H933 C920 0.929 . S
H934 C928 0.929 . S
H935 C929 0.930 . S
Mn936 O941 2.095 . S
Mn936 O951 2.162 . S
Mn936 O952 2.297 . S
Mn936 O960 2.385 . S
Mn936 O961 2.209 . S
Mn936 O962 2.094 . S
Mn937 O942 2.121 . S
Mn937 N944 2.257 . S
Mn937 N953 2.282 . S
Mn937 O961 2.215 . S
Mn937 O963 2.117 . S
C938 O960 1.234 . S
C938 O961 1.283 . S
C939 O951 1.281 . S
C939 O952 1.236 . S
C940 O962 1.240 . S
C940 O963 1.264 . S
O941 Mn936 2.095 . S
O941 C950 1.250 . S
O942 Mn937 2.121 . S
O942 C950 1.258 . S
C943 N944 1.326 . S
C943 C947 1.460 . S
C943 H949 0.929 . S
N944 Mn937 2.257 . S
N944 C943 1.326 . S
N944 C948 1.362 . S
C945 C946 1.258 . S
C945 C948 1.431 . S
C945 C965 1.449 . S
C946 C945 1.258 . S
C946 C947 1.477 . S
C946 H966 0.931 . S
C947 C943 1.460 . S
C947 C946 1.477 . S
C947 H967 0.930 . S
C948 N944 1.362 . S
C948 C945 1.431 . S
C948 C958 1.476 . S
H949 C943 0.929 . S
C950 O941 1.250 . S
C950 O942 1.258 . S
O951 Mn936 2.162 . S
O951 C939 1.281 . S
O952 Mn936 2.297 . S
O952 C939 1.236 . S
N953 Mn937 2.282 . S
N953 C954 1.328 . S
N953 C958 1.318 . S
C954 N953 1.328 . S
C954 C955 1.457 . S
C954 H959 0.929 . S
C955 C954 1.457 . S
C955 C956 1.291 . S
C955 H968 0.931 . S
C956 C955 1.291 . S
C956 C957 1.373 . S
C956 H969 0.929 . S
C957 C956 1.373 . S
C957 C958 1.396 . S
C957 C964 1.403 . S
C958 C948 1.476 . S
C958 N953 1.318 . S
C958 C957 1.396 . S
H959 C954 0.929 . S
O960 Mn936 2.385 . S
O960 C938 1.234 . S
O961 Mn936 2.209 . S
O961 Mn937 2.215 . S
O961 C938 1.283 . S
O962 Mn936 2.094 . S
O962 C940 1.240 . S
O963 Mn937 2.117 . S
O963 C940 1.264 . S
C964 C957 1.403 . S
C964 C965 1.399 . S
C964 H970 0.929 . S
C965 C945 1.449 . S
C965 C964 1.399 . S
C965 H971 0.930 . S
H966 C946 0.931 . S
H967 C947 0.930 . S
H968 C955 0.931 . S
H969 C956 0.929 . S
H970 C964 0.929 . S
H971 C965 0.930 . S
Mn972 O977 2.095 . S
Mn972 O987 2.162 . S
Mn972 O988 2.297 . S
Mn972 O996 2.385 . S
Mn972 O997 2.209 . S
Mn972 O998 2.094 . S
Mn973 O978 2.121 . S
Mn973 N980 2.257 . S
Mn973 N989 2.282 . S
Mn973 O997 2.215 . S
Mn973 O999 2.117 . S
C974 O996 1.234 . S
C974 O997 1.283 . S
C975 O987 1.281 . S
C975 O988 1.236 . S
C976 O998 1.240 . S
C976 O999 1.264 . S
O977 Mn972 2.095 . S
O977 C986 1.250 . S
O978 Mn973 2.121 . S
O978 C986 1.258 . S
C979 N980 1.326 . S
C979 C983 1.460 . S
C979 H985 0.929 . S
N980 Mn973 2.257 . S
N980 C979 1.326 . S
N980 C984 1.362 . S
C981 C982 1.258 . S
C981 C984 1.431 . S
C981 C1001 1.449 . S
C982 C981 1.258 . S
C982 C983 1.477 . S
C982 H1002 0.931 . S
C983 C979 1.460 . S
C983 C982 1.477 . S
C983 H1003 0.930 . S
C984 N980 1.362 . S
C984 C981 1.431 . S
C984 C994 1.476 . S
H985 C979 0.929 . S
C986 O977 1.250 . S
C986 O978 1.258 . S
O987 Mn972 2.162 . S
O987 C975 1.281 . S
O988 Mn972 2.297 . S
O988 C975 1.236 . S
N989 Mn973 2.282 . S
N989 C990 1.328 . S
N989 C994 1.318 . S
C990 N989 1.328 . S
C990 C991 1.457 . S
C990 H995 0.929 . S
C991 C990 1.457 . S
C991 C992 1.291 . S
C991 H1004 0.931 . S
C992 C991 1.291 . S
C992 C993 1.373 . S
C992 H1005 0.929 . S
C993 C992 1.373 . S
C993 C994 1.396 . S
C993 C1000 1.403 . S
C994 C984 1.476 . S
C994 N989 1.318 . S
C994 C993 1.396 . S
H995 C990 0.929 . S
O996 Mn972 2.385 . S
O996 C974 1.234 . S
O997 Mn972 2.209 . S
O997 Mn973 2.215 . S
O997 C974 1.283 . S
O998 Mn972 2.094 . S
O998 C976 1.240 . S
O999 Mn973 2.117 . S
O999 C976 1.264 . S
C1000 C993 1.403 . S
C1000 C1001 1.399 . S
C1000 H1006 0.929 . S
C1001 C981 1.449 . S
C1001 C1000 1.399 . S
C1001 H1007 0.930 . S
H1002 C982 0.931 . S
H1003 C983 0.930 . S
H1004 C991 0.931 . S
H1005 C992 0.929 . S
H1006 C1000 0.929 . S
H1007 C1001 0.930 . S
Mn1008 O1013 2.095 . S
Mn1008 O1023 2.162 . S
Mn1008 O1024 2.297 . S
Mn1008 O1032 2.385 . S
Mn1008 O1033 2.209 . S
Mn1008 O1034 2.094 . S
Mn1009 O1014 2.121 . S
Mn1009 N1016 2.257 . S
Mn1009 N1025 2.282 . S
Mn1009 O1033 2.215 . S
Mn1009 O1035 2.117 . S
C1010 O1032 1.234 . S
C1010 O1033 1.283 . S
C1011 O1023 1.281 . S
C1011 O1024 1.236 . S
C1012 O1034 1.240 . S
C1012 O1035 1.264 . S
O1013 Mn1008 2.095 . S
O1013 C1022 1.250 . S
O1014 Mn1009 2.121 . S
O1014 C1022 1.258 . S
C1015 N1016 1.326 . S
C1015 C1019 1.460 . S
C1015 H1021 0.929 . S
N1016 Mn1009 2.257 . S
N1016 C1015 1.326 . S
N1016 C1020 1.362 . S
C1017 C1018 1.258 . S
C1017 C1020 1.431 . S
C1017 C1037 1.449 . S
C1018 C1017 1.258 . S
C1018 C1019 1.477 . S
C1018 H1038 0.931 . S
C1019 C1015 1.460 . S
C1019 C1018 1.477 . S
C1019 H1039 0.930 . S
C1020 N1016 1.362 . S
C1020 C1017 1.431 . S
C1020 C1030 1.476 . S
H1021 C1015 0.929 . S
C1022 O1013 1.250 . S
C1022 O1014 1.258 . S
O1023 Mn1008 2.162 . S
O1023 C1011 1.281 . S
O1024 Mn1008 2.297 . S
O1024 C1011 1.236 . S
N1025 Mn1009 2.282 . S
N1025 C1026 1.328 . S
N1025 C1030 1.318 . S
C1026 N1025 1.328 . S
C1026 C1027 1.457 . S
C1026 H1031 0.929 . S
C1027 C1026 1.457 . S
C1027 C1028 1.291 . S
C1027 H1040 0.931 . S
C1028 C1027 1.291 . S
C1028 C1029 1.373 . S
C1028 H1041 0.929 . S
C1029 C1028 1.373 . S
C1029 C1030 1.396 . S
C1029 C1036 1.403 . S
C1030 C1020 1.476 . S
C1030 N1025 1.318 . S
C1030 C1029 1.396 . S
H1031 C1026 0.929 . S
O1032 Mn1008 2.385 . S
O1032 C1010 1.234 . S
O1033 Mn1008 2.209 . S
O1033 Mn1009 2.215 . S
O1033 C1010 1.283 . S
O1034 Mn1008 2.094 . S
O1034 C1012 1.240 . S
O1035 Mn1009 2.117 . S
O1035 C1012 1.264 . S
C1036 C1029 1.403 . S
C1036 C1037 1.399 . S
C1036 H1042 0.929 . S
C1037 C1017 1.449 . S
C1037 C1036 1.399 . S
C1037 H1043 0.930 . S
H1038 C1018 0.931 . S
H1039 C1019 0.930 . S
H1040 C1027 0.931 . S
H1041 C1028 0.929 . S
H1042 C1036 0.929 . S
H1043 C1037 0.930 . S
Mn1044 O1049 2.095 . S
Mn1044 O1059 2.162 . S
Mn1044 O1060 2.297 . S
Mn1044 O1068 2.385 . S
Mn1044 O1069 2.209 . S
Mn1044 O1070 2.094 . S
Mn1045 O1050 2.121 . S
Mn1045 N1052 2.257 . S
Mn1045 N1061 2.282 . S
Mn1045 O1069 2.215 . S
Mn1045 O1071 2.117 . S
C1046 O1068 1.234 . S
C1046 O1069 1.283 . S
C1047 O1059 1.281 . S
C1047 O1060 1.236 . S
C1048 O1070 1.240 . S
C1048 O1071 1.264 . S
O1049 Mn1044 2.095 . S
O1049 C1058 1.250 . S
O1050 Mn1045 2.121 . S
O1050 C1058 1.258 . S
C1051 N1052 1.326 . S
C1051 C1055 1.460 . S
C1051 H1057 0.929 . S
N1052 Mn1045 2.257 . S
N1052 C1051 1.326 . S
N1052 C1056 1.362 . S
C1053 C1054 1.258 . S
C1053 C1056 1.431 . S
C1053 C1073 1.449 . S
C1054 C1053 1.258 . S
C1054 C1055 1.477 . S
C1054 H1074 0.931 . S
C1055 C1051 1.460 . S
C1055 C1054 1.477 . S
C1055 H1075 0.930 . S
C1056 N1052 1.362 . S
C1056 C1053 1.431 . S
C1056 C1066 1.476 . S
H1057 C1051 0.929 . S
C1058 O1049 1.250 . S
C1058 O1050 1.258 . S
O1059 Mn1044 2.162 . S
O1059 C1047 1.281 . S
O1060 Mn1044 2.297 . S
O1060 C1047 1.236 . S
N1061 Mn1045 2.282 . S
N1061 C1062 1.328 . S
N1061 C1066 1.318 . S
C1062 N1061 1.328 . S
C1062 C1063 1.457 . S
C1062 H1067 0.929 . S
C1063 C1062 1.457 . S
C1063 C1064 1.291 . S
C1063 H1076 0.931 . S
C1064 C1063 1.291 . S
C1064 C1065 1.373 . S
C1064 H1077 0.929 . S
C1065 C1064 1.373 . S
C1065 C1066 1.396 . S
C1065 C1072 1.403 . S
C1066 C1056 1.476 . S
C1066 N1061 1.318 . S
C1066 C1065 1.396 . S
H1067 C1062 0.929 . S
O1068 Mn1044 2.385 . S
O1068 C1046 1.234 . S
O1069 Mn1044 2.209 . S
O1069 Mn1045 2.215 . S
O1069 C1046 1.283 . S
O1070 Mn1044 2.094 . S
O1070 C1048 1.240 . S
O1071 Mn1045 2.117 . S
O1071 C1048 1.264 . S
C1072 C1065 1.403 . S
C1072 C1073 1.399 . S
C1072 H1078 0.929 . S
C1073 C1053 1.449 . S
C1073 C1072 1.399 . S
C1073 H1079 0.930 . S
H1074 C1054 0.931 . S
H1075 C1055 0.930 . S
H1076 C1063 0.931 . S
H1077 C1064 0.929 . S
H1078 C1072 0.929 . S
H1079 C1073 0.930 . S
Mn1080 O1085 2.095 . S
Mn1080 O1095 2.162 . S
Mn1080 O1096 2.297 . S
Mn1080 O1104 2.385 . S
Mn1080 O1105 2.209 . S
Mn1080 O1106 2.094 . S
Mn1081 O1086 2.121 . S
Mn1081 N1088 2.257 . S
Mn1081 N1097 2.282 . S
Mn1081 O1105 2.215 . S
Mn1081 O1107 2.117 . S
C1082 O1104 1.234 . S
C1082 O1105 1.283 . S
C1083 O1095 1.281 . S
C1083 O1096 1.236 . S
C1084 O1106 1.240 . S
C1084 O1107 1.264 . S
O1085 Mn1080 2.095 . S
O1085 C1094 1.250 . S
O1086 Mn1081 2.121 . S
O1086 C1094 1.258 . S
C1087 N1088 1.326 . S
C1087 C1091 1.460 . S
C1087 H1093 0.929 . S
N1088 Mn1081 2.257 . S
N1088 C1087 1.326 . S
N1088 C1092 1.362 . S
C1089 C1090 1.258 . S
C1089 C1092 1.431 . S
C1089 C1109 1.449 . S
C1090 C1089 1.258 . S
C1090 C1091 1.477 . S
C1090 H1110 0.931 . S
C1091 C1087 1.460 . S
C1091 C1090 1.477 . S
C1091 H1111 0.930 . S
C1092 N1088 1.362 . S
C1092 C1089 1.431 . S
C1092 C1102 1.476 . S
H1093 C1087 0.929 . S
C1094 O1085 1.250 . S
C1094 O1086 1.258 . S
O1095 Mn1080 2.162 . S
O1095 C1083 1.281 . S
O1096 Mn1080 2.297 . S
O1096 C1083 1.236 . S
N1097 Mn1081 2.282 . S
N1097 C1098 1.328 . S
N1097 C1102 1.318 . S
C1098 N1097 1.328 . S
C1098 C1099 1.457 . S
C1098 H1103 0.929 . S
C1099 C1098 1.457 . S
C1099 C1100 1.291 . S
C1099 H1112 0.931 . S
C1100 C1099 1.291 . S
C1100 C1101 1.373 . S
C1100 H1113 0.929 . S
C1101 C1100 1.373 . S
C1101 C1102 1.396 . S
C1101 C1108 1.403 . S
C1102 C1092 1.476 . S
C1102 N1097 1.318 . S
C1102 C1101 1.396 . S
H1103 C1098 0.929 . S
O1104 Mn1080 2.385 . S
O1104 C1082 1.234 . S
O1105 Mn1080 2.209 . S
O1105 Mn1081 2.215 . S
O1105 C1082 1.283 . S
O1106 Mn1080 2.094 . S
O1106 C1084 1.240 . S
O1107 Mn1081 2.117 . S
O1107 C1084 1.264 . S
C1108 C1101 1.403 . S
C1108 C1109 1.399 . S
C1108 H1114 0.929 . S
C1109 C1089 1.449 . S
C1109 C1108 1.399 . S
C1109 H1115 0.930 . S
H1110 C1090 0.931 . S
H1111 C1091 0.930 . S
H1112 C1099 0.931 . S
H1113 C1100 0.929 . S
H1114 C1108 0.929 . S
H1115 C1109 0.930 . S
Mn1116 O1121 2.095 . S
Mn1116 O1131 2.162 . S
Mn1116 O1132 2.297 . S
Mn1116 O1140 2.385 . S
Mn1116 O1141 2.209 . S
Mn1116 O1142 2.094 . S
Mn1117 O1122 2.121 . S
Mn1117 N1124 2.257 . S
Mn1117 N1133 2.282 . S
Mn1117 O1141 2.215 . S
Mn1117 O1143 2.117 . S
C1118 O1140 1.234 . S
C1118 O1141 1.283 . S
C1119 O1131 1.281 . S
C1119 O1132 1.236 . S
C1120 O1142 1.240 . S
C1120 O1143 1.264 . S
O1121 Mn1116 2.095 . S
O1121 C1130 1.250 . S
O1122 Mn1117 2.121 . S
O1122 C1130 1.258 . S
C1123 N1124 1.326 . S
C1123 C1127 1.460 . S
C1123 H1129 0.929 . S
N1124 Mn1117 2.257 . S
N1124 C1123 1.326 . S
N1124 C1128 1.362 . S
C1125 C1126 1.258 . S
C1125 C1128 1.431 . S
C1125 C1145 1.449 . S
C1126 C1125 1.258 . S
C1126 C1127 1.477 . S
C1126 H1146 0.931 . S
C1127 C1123 1.460 . S
C1127 C1126 1.477 . S
C1127 H1147 0.930 . S
C1128 N1124 1.362 . S
C1128 C1125 1.431 . S
C1128 C1138 1.476 . S
H1129 C1123 0.929 . S
C1130 O1121 1.250 . S
C1130 O1122 1.258 . S
O1131 Mn1116 2.162 . S
O1131 C1119 1.281 . S
O1132 Mn1116 2.297 . S
O1132 C1119 1.236 . S
N1133 Mn1117 2.282 . S
N1133 C1134 1.328 . S
N1133 C1138 1.318 . S
C1134 N1133 1.328 . S
C1134 C1135 1.457 . S
C1134 H1139 0.929 . S
C1135 C1134 1.457 . S
C1135 C1136 1.291 . S
C1135 H1148 0.931 . S
C1136 C1135 1.291 . S
C1136 C1137 1.373 . S
C1136 H1149 0.929 . S
C1137 C1136 1.373 . S
C1137 C1138 1.396 . S
C1137 C1144 1.403 . S
C1138 C1128 1.476 . S
C1138 N1133 1.318 . S
C1138 C1137 1.396 . S
H1139 C1134 0.929 . S
O1140 Mn1116 2.385 . S
O1140 C1118 1.234 . S
O1141 Mn1116 2.209 . S
O1141 Mn1117 2.215 . S
O1141 C1118 1.283 . S
O1142 Mn1116 2.094 . S
O1142 C1120 1.240 . S
O1143 Mn1117 2.117 . S
O1143 C1120 1.264 . S
C1144 C1137 1.403 . S
C1144 C1145 1.399 . S
C1144 H1150 0.929 . S
C1145 C1125 1.449 . S
C1145 C1144 1.399 . S
C1145 H1151 0.930 . S
H1146 C1126 0.931 . S
H1147 C1127 0.930 . S
H1148 C1135 0.931 . S
H1149 C1136 0.929 . S
H1150 C1144 0.929 . S
H1151 C1145 0.930 . S
H1152 C1158 0.930 . S
H1153 C1162 0.930 . S
H1154 C1167 0.929 . S
H1155 C1165 0.929 . S
H1156 C1160 0.929 . S
H1157 C1166 0.929 . S
C1158 H1152 0.930 . S
C1158 C1159 1.367 . S
C1158 C1166 1.378 . S
C1159 C1158 1.367 . S
C1159 C1167 1.433 . S
C1160 H1156 0.929 . S
C1160 C1162 1.378 . S
C1160 C1164 1.350 . S
C1161 C1164 1.463 . S
C1161 C1166 1.350 . S
C1161 N1169 1.427 . S
C1162 H1153 0.930 . S
C1162 C1160 1.378 . S
C1162 C1163 1.367 . S
C1163 C1162 1.367 . S
C1163 C1165 1.433 . S
C1164 C1160 1.350 . S
C1164 C1161 1.463 . S
C1164 N1168 1.427 . S
C1165 H1155 0.929 . S
C1165 C1163 1.433 . S
C1165 N1168 1.384 . S
C1166 H1157 0.929 . S
C1166 C1158 1.378 . S
C1166 C1161 1.350 . S
C1167 H1154 0.929 . S
C1167 C1159 1.433 . S
C1167 N1169 1.384 . S
N1168 C1164 1.427 . S
N1168 C1165 1.384 . S
N1169 C1161 1.427 . S
N1169 C1167 1.384 . S
H1170 C1176 0.930 . S
H1171 C1180 0.930 . S
H1172 C1185 0.929 . S
H1173 C1183 0.929 . S
H1174 C1178 0.929 . S
H1175 C1184 0.929 . S
C1176 H1170 0.930 . S
C1176 C1177 1.367 . S
C1176 C1184 1.378 . S
C1177 C1176 1.367 . S
C1177 C1185 1.433 . S
C1178 H1174 0.929 . S
C1178 C1180 1.378 . S
C1178 C1182 1.350 . S
C1179 C1182 1.463 . S
C1179 C1184 1.350 . S
C1179 N1187 1.427 . S
C1180 H1171 0.930 . S
C1180 C1178 1.378 . S
C1180 C1181 1.367 . S
C1181 C1180 1.367 . S
C1181 C1183 1.433 . S
C1182 C1178 1.350 . S
C1182 C1179 1.463 . S
C1182 N1186 1.427 . S
C1183 H1173 0.929 . S
C1183 C1181 1.433 . S
C1183 N1186 1.384 . S
C1184 H1175 0.929 . S
C1184 C1176 1.378 . S
C1184 C1179 1.350 . S
C1185 H1172 0.929 . S
C1185 C1177 1.433 . S
C1185 N1187 1.384 . S
N1186 C1182 1.427 . S
N1186 C1183 1.384 . S
N1187 C1179 1.427 . S
N1187 C1185 1.384 . S
H1188 C1194 0.930 . S
H1189 C1198 0.930 . S
H1190 C1203 0.929 . S
H1191 C1201 0.929 . S
H1192 C1196 0.929 . S
H1193 C1202 0.929 . S
C1194 H1188 0.930 . S
C1194 C1195 1.367 . S
C1194 C1202 1.378 . S
C1195 C1194 1.367 . S
C1195 C1203 1.433 . S
C1196 H1192 0.929 . S
C1196 C1198 1.378 . S
C1196 C1200 1.350 . S
C1197 C1200 1.463 . S
C1197 C1202 1.350 . S
C1197 N1205 1.427 . S
C1198 H1189 0.930 . S
C1198 C1196 1.378 . S
C1198 C1199 1.367 . S
C1199 C1198 1.367 . S
C1199 C1201 1.433 . S
C1200 C1196 1.350 . S
C1200 C1197 1.463 . S
C1200 N1204 1.427 . S
C1201 H1191 0.929 . S
C1201 C1199 1.433 . S
C1201 N1204 1.384 . S
C1202 H1193 0.929 . S
C1202 C1194 1.378 . S
C1202 C1197 1.350 . S
C1203 H1190 0.929 . S
C1203 C1195 1.433 . S
C1203 N1205 1.384 . S
N1204 C1200 1.427 . S
N1204 C1201 1.384 . S
N1205 C1197 1.427 . S
N1205 C1203 1.384 . S
H1206 C1212 0.930 . S
H1207 C1216 0.930 . S
H1208 C1221 0.929 . S
H1209 C1219 0.929 . S
H1210 C1214 0.929 . S
H1211 C1220 0.929 . S
C1212 H1206 0.930 . S
C1212 C1213 1.367 . S
C1212 C1220 1.378 . S
C1213 C1212 1.367 . S
C1213 C1221 1.433 . S
C1214 H1210 0.929 . S
C1214 C1216 1.378 . S
C1214 C1218 1.350 . S
C1215 C1218 1.463 . S
C1215 C1220 1.350 . S
C1215 N1223 1.427 . S
C1216 H1207 0.930 . S
C1216 C1214 1.378 . S
C1216 C1217 1.367 . S
C1217 C1216 1.367 . S
C1217 C1219 1.433 . S
C1218 C1214 1.350 . S
C1218 C1215 1.463 . S
C1218 N1222 1.427 . S
C1219 H1209 0.929 . S
C1219 C1217 1.433 . S
C1219 N1222 1.384 . S
C1220 H1211 0.929 . S
C1220 C1212 1.378 . S
C1220 C1215 1.350 . S
C1221 H1208 0.929 . S
C1221 C1213 1.433 . S
C1221 N1223 1.384 . S
N1222 C1218 1.427 . S
N1222 C1219 1.384 . S
N1223 C1215 1.427 . S
N1223 C1221 1.384 . S
H1224 C1230 0.930 . S
H1225 C1234 0.930 . S
H1226 C1239 0.929 . S
H1227 C1237 0.929 . S
H1228 C1232 0.929 . S
H1229 C1238 0.929 . S
C1230 H1224 0.930 . S
C1230 C1231 1.367 . S
C1230 C1238 1.378 . S
C1231 C1230 1.367 . S
C1231 C1239 1.433 . S
C1232 H1228 0.929 . S
C1232 C1234 1.378 . S
C1232 C1236 1.350 . S
C1233 C1236 1.463 . S
C1233 C1238 1.350 . S
C1233 N1241 1.427 . S
C1234 H1225 0.930 . S
C1234 C1232 1.378 . S
C1234 C1235 1.367 . S
C1235 C1234 1.367 . S
C1235 C1237 1.433 . S
C1236 C1232 1.350 . S
C1236 C1233 1.463 . S
C1236 N1240 1.427 . S
C1237 H1227 0.929 . S
C1237 C1235 1.433 . S
C1237 N1240 1.384 . S
C1238 H1229 0.929 . S
C1238 C1230 1.378 . S
C1238 C1233 1.350 . S
C1239 H1226 0.929 . S
C1239 C1231 1.433 . S
C1239 N1241 1.384 . S
N1240 C1236 1.427 . S
N1240 C1237 1.384 . S
N1241 C1233 1.427 . S
N1241 C1239 1.384 . S
H1242 C1248 0.930 . S
H1243 C1252 0.930 . S
H1244 C1257 0.929 . S
H1245 C1255 0.929 . S
H1246 C1250 0.929 . S
H1247 C1256 0.929 . S
C1248 H1242 0.930 . S
C1248 C1249 1.367 . S
C1248 C1256 1.378 . S
C1249 C1248 1.367 . S
C1249 C1257 1.433 . S
C1250 H1246 0.929 . S
C1250 C1252 1.378 . S
C1250 C1254 1.350 . S
C1251 C1254 1.463 . S
C1251 C1256 1.350 . S
C1251 N1259 1.427 . S
C1252 H1243 0.930 . S
C1252 C1250 1.378 . S
C1252 C1253 1.367 . S
C1253 C1252 1.367 . S
C1253 C1255 1.433 . S
C1254 C1250 1.350 . S
C1254 C1251 1.463 . S
C1254 N1258 1.427 . S
C1255 H1245 0.929 . S
C1255 C1253 1.433 . S
C1255 N1258 1.384 . S
C1256 H1247 0.929 . S
C1256 C1248 1.378 . S
C1256 C1251 1.350 . S
C1257 H1244 0.929 . S
C1257 C1249 1.433 . S
C1257 N1259 1.384 . S
N1258 C1254 1.427 . S
N1258 C1255 1.384 . S
N1259 C1251 1.427 . S
N1259 C1257 1.384 . S
H1260 C1266 0.930 . S
H1261 C1270 0.930 . S
H1262 C1275 0.929 . S
H1263 C1273 0.929 . S
H1264 C1268 0.929 . S
H1265 C1274 0.929 . S
C1266 H1260 0.930 . S
C1266 C1267 1.367 . S
C1266 C1274 1.378 . S
C1267 C1266 1.367 . S
C1267 C1275 1.433 . S
C1268 H1264 0.929 . S
C1268 C1270 1.378 . S
C1268 C1272 1.350 . S
C1269 C1272 1.463 . S
C1269 C1274 1.350 . S
C1269 N1277 1.427 . S
C1270 H1261 0.930 . S
C1270 C1268 1.378 . S
C1270 C1271 1.367 . S
C1271 C1270 1.367 . S
C1271 C1273 1.433 . S
C1272 C1268 1.350 . S
C1272 C1269 1.463 . S
C1272 N1276 1.427 . S
C1273 H1263 0.929 . S
C1273 C1271 1.433 . S
C1273 N1276 1.384 . S
C1274 H1265 0.929 . S
C1274 C1266 1.378 . S
C1274 C1269 1.350 . S
C1275 H1262 0.929 . S
C1275 C1267 1.433 . S
C1275 N1277 1.384 . S
N1276 C1272 1.427 . S
N1276 C1273 1.384 . S
N1277 C1269 1.427 . S
N1277 C1275 1.384 . S
H1278 C1284 0.930 . S
H1279 C1288 0.930 . S
H1280 C1293 0.929 . S
H1281 C1291 0.929 . S
H1282 C1286 0.929 . S
H1283 C1292 0.929 . S
C1284 H1278 0.930 . S
C1284 C1285 1.367 . S
C1284 C1292 1.378 . S
C1285 C1284 1.367 . S
C1285 C1293 1.433 . S
C1286 H1282 0.929 . S
C1286 C1288 1.378 . S
C1286 C1290 1.350 . S
C1287 C1290 1.463 . S
C1287 C1292 1.350 . S
C1287 N1295 1.427 . S
C1288 H1279 0.930 . S
C1288 C1286 1.378 . S
C1288 C1289 1.367 . S
C1289 C1288 1.367 . S
C1289 C1291 1.433 . S
C1290 C1286 1.350 . S
C1290 C1287 1.463 . S
C1290 N1294 1.427 . S
C1291 H1281 0.929 . S
C1291 C1289 1.433 . S
C1291 N1294 1.384 . S
C1292 H1283 0.929 . S
C1292 C1284 1.378 . S
C1292 C1287 1.350 . S
C1293 H1280 0.929 . S
C1293 C1285 1.433 . S
C1293 N1295 1.384 . S
N1294 C1290 1.427 . S
N1294 C1291 1.384 . S
N1295 C1287 1.427 . S
N1295 C1293 1.384 . S
H1296 C1302 0.930 . S
H1297 C1306 0.930 . S
H1298 C1311 0.929 . S
H1299 C1309 0.929 . S
H1300 C1304 0.929 . S
H1301 C1310 0.929 . S
C1302 H1296 0.930 . S
C1302 C1303 1.367 . S
C1302 C1310 1.378 . S
C1303 C1302 1.367 . S
C1303 C1311 1.433 . S
C1304 H1300 0.929 . S
C1304 C1306 1.378 . S
C1304 C1308 1.350 . S
C1305 C1308 1.463 . S
C1305 C1310 1.350 . S
C1305 N1313 1.427 . S
C1306 H1297 0.930 . S
C1306 C1304 1.378 . S
C1306 C1307 1.367 . S
C1307 C1306 1.367 . S
C1307 C1309 1.433 . S
C1308 C1304 1.350 . S
C1308 C1305 1.463 . S
C1308 N1312 1.427 . S
C1309 H1299 0.929 . S
C1309 C1307 1.433 . S
C1309 N1312 1.384 . S
C1310 H1301 0.929 . S
C1310 C1302 1.378 . S
C1310 C1305 1.350 . S
C1311 H1298 0.929 . S
C1311 C1303 1.433 . S
C1311 N1313 1.384 . S
N1312 C1308 1.427 . S
N1312 C1309 1.384 . S
N1313 C1305 1.427 . S
N1313 C1311 1.384 . S
H1314 C1320 0.930 . S
H1315 C1324 0.930 . S
H1316 C1329 0.929 . S
H1317 C1327 0.929 . S
H1318 C1322 0.929 . S
H1319 C1328 0.929 . S
C1320 H1314 0.930 . S
C1320 C1321 1.367 . S
C1320 C1328 1.378 . S
C1321 C1320 1.367 . S
C1321 C1329 1.433 . S
C1322 H1318 0.929 . S
C1322 C1324 1.378 . S
C1322 C1326 1.350 . S
C1323 C1326 1.463 . S
C1323 C1328 1.350 . S
C1323 N1331 1.427 . S
C1324 H1315 0.930 . S
C1324 C1322 1.378 . S
C1324 C1325 1.367 . S
C1325 C1324 1.367 . S
C1325 C1327 1.433 . S
C1326 C1322 1.350 . S
C1326 C1323 1.463 . S
C1326 N1330 1.427 . S
C1327 H1317 0.929 . S
C1327 C1325 1.433 . S
C1327 N1330 1.384 . S
C1328 H1319 0.929 . S
C1328 C1320 1.378 . S
C1328 C1323 1.350 . S
C1329 H1316 0.929 . S
C1329 C1321 1.433 . S
C1329 N1331 1.384 . S
N1330 C1326 1.427 . S
N1330 C1327 1.384 . S
N1331 C1323 1.427 . S
N1331 C1329 1.384 . S
H1332 C1338 0.930 . S
H1333 C1342 0.930 . S
H1334 C1347 0.929 . S
H1335 C1345 0.929 . S
H1336 C1340 0.929 . S
H1337 C1346 0.929 . S
C1338 H1332 0.930 . S
C1338 C1339 1.367 . S
C1338 C1346 1.378 . S
C1339 C1338 1.367 . S
C1339 C1347 1.433 . S
C1340 H1336 0.929 . S
C1340 C1342 1.378 . S
C1340 C1344 1.350 . S
C1341 C1344 1.463 . S
C1341 C1346 1.350 . S
C1341 N1349 1.427 . S
C1342 H1333 0.930 . S
C1342 C1340 1.378 . S
C1342 C1343 1.367 . S
C1343 C1342 1.367 . S
C1343 C1345 1.433 . S
C1344 C1340 1.350 . S
C1344 C1341 1.463 . S
C1344 N1348 1.427 . S
C1345 H1335 0.929 . S
C1345 C1343 1.433 . S
C1345 N1348 1.384 . S
C1346 H1337 0.929 . S
C1346 C1338 1.378 . S
C1346 C1341 1.350 . S
C1347 H1334 0.929 . S
C1347 C1339 1.433 . S
C1347 N1349 1.384 . S
N1348 C1344 1.427 . S
N1348 C1345 1.384 . S
N1349 C1341 1.427 . S
N1349 C1347 1.384 . S
H1350 C1356 0.930 . S
H1351 C1360 0.930 . S
H1352 C1365 0.929 . S
H1353 C1363 0.929 . S
H1354 C1358 0.929 . S
H1355 C1364 0.929 . S
C1356 H1350 0.930 . S
C1356 C1357 1.367 . S
C1356 C1364 1.378 . S
C1357 C1356 1.367 . S
C1357 C1365 1.433 . S
C1358 H1354 0.929 . S
C1358 C1360 1.378 . S
C1358 C1362 1.350 . S
C1359 C1362 1.463 . S
C1359 C1364 1.350 . S
C1359 N1367 1.427 . S
C1360 H1351 0.930 . S
C1360 C1358 1.378 . S
C1360 C1361 1.367 . S
C1361 C1360 1.367 . S
C1361 C1363 1.433 . S
C1362 C1358 1.350 . S
C1362 C1359 1.463 . S
C1362 N1366 1.427 . S
C1363 H1353 0.929 . S
C1363 C1361 1.433 . S
C1363 N1366 1.384 . S
C1364 H1355 0.929 . S
C1364 C1356 1.378 . S
C1364 C1359 1.350 . S
C1365 H1352 0.929 . S
C1365 C1357 1.433 . S
C1365 N1367 1.384 . S
N1366 C1362 1.427 . S
N1366 C1363 1.384 . S
N1367 C1359 1.427 . S
N1367 C1365 1.384 . S
H1368 C1374 0.930 . S
H1369 C1378 0.930 . S
H1370 C1383 0.929 . S
H1371 C1381 0.929 . S
H1372 C1376 0.929 . S
H1373 C1382 0.929 . S
C1374 H1368 0.930 . S
C1374 C1375 1.367 . S
C1374 C1382 1.378 . S
C1375 C1374 1.367 . S
C1375 C1383 1.433 . S
C1376 H1372 0.929 . S
C1376 C1378 1.378 . S
C1376 C1380 1.350 . S
C1377 C1380 1.463 . S
C1377 C1382 1.350 . S
C1377 N1385 1.427 . S
C1378 H1369 0.930 . S
C1378 C1376 1.378 . S
C1378 C1379 1.367 . S
C1379 C1378 1.367 . S
C1379 C1381 1.433 . S
C1380 C1376 1.350 . S
C1380 C1377 1.463 . S
C1380 N1384 1.427 . S
C1381 H1371 0.929 . S
C1381 C1379 1.433 . S
C1381 N1384 1.384 . S
C1382 H1373 0.929 . S
C1382 C1374 1.378 . S
C1382 C1377 1.350 . S
C1383 H1370 0.929 . S
C1383 C1375 1.433 . S
C1383 N1385 1.384 . S
N1384 C1380 1.427 . S
N1384 C1381 1.384 . S
N1385 C1377 1.427 . S
N1385 C1383 1.384 . S
H1386 C1392 0.930 . S
H1387 C1396 0.930 . S
H1388 C1401 0.929 . S
H1389 C1399 0.929 . S
H1390 C1394 0.929 . S
H1391 C1400 0.929 . S
C1392 H1386 0.930 . S
C1392 C1393 1.367 . S
C1392 C1400 1.378 . S
C1393 C1392 1.367 . S
C1393 C1401 1.433 . S
C1394 H1390 0.929 . S
C1394 C1396 1.378 . S
C1394 C1398 1.350 . S
C1395 C1398 1.463 . S
C1395 C1400 1.350 . S
C1395 N1403 1.427 . S
C1396 H1387 0.930 . S
C1396 C1394 1.378 . S
C1396 C1397 1.367 . S
C1397 C1396 1.367 . S
C1397 C1399 1.433 . S
C1398 C1394 1.350 . S
C1398 C1395 1.463 . S
C1398 N1402 1.427 . S
C1399 H1389 0.929 . S
C1399 C1397 1.433 . S
C1399 N1402 1.384 . S
C1400 H1391 0.929 . S
C1400 C1392 1.378 . S
C1400 C1395 1.350 . S
C1401 H1388 0.929 . S
C1401 C1393 1.433 . S
C1401 N1403 1.384 . S
N1402 C1398 1.427 . S
N1402 C1399 1.384 . S
N1403 C1395 1.427 . S
N1403 C1401 1.384 . S
H1404 C1410 0.930 . S
H1405 C1414 0.930 . S
H1406 C1419 0.929 . S
H1407 C1417 0.929 . S
H1408 C1412 0.929 . S
H1409 C1418 0.929 . S
C1410 H1404 0.930 . S
C1410 C1411 1.367 . S
C1410 C1418 1.378 . S
C1411 C1410 1.367 . S
C1411 C1419 1.433 . S
C1412 H1408 0.929 . S
C1412 C1414 1.378 . S
C1412 C1416 1.350 . S
C1413 C1416 1.463 . S
C1413 C1418 1.350 . S
C1413 N1421 1.427 . S
C1414 H1405 0.930 . S
C1414 C1412 1.378 . S
C1414 C1415 1.367 . S
C1415 C1414 1.367 . S
C1415 C1417 1.433 . S
C1416 C1412 1.350 . S
C1416 C1413 1.463 . S
C1416 N1420 1.427 . S
C1417 H1407 0.929 . S
C1417 C1415 1.433 . S
C1417 N1420 1.384 . S
C1418 H1409 0.929 . S
C1418 C1410 1.378 . S
C1418 C1413 1.350 . S
C1419 H1406 0.929 . S
C1419 C1411 1.433 . S
C1419 N1421 1.384 . S
N1420 C1416 1.427 . S
N1420 C1417 1.384 . S
N1421 C1413 1.427 . S
N1421 C1419 1.384 . S
H1422 C1428 0.930 . S
H1423 C1432 0.930 . S
H1424 C1437 0.929 . S
H1425 C1435 0.929 . S
H1426 C1430 0.929 . S
H1427 C1436 0.929 . S
C1428 H1422 0.930 . S
C1428 C1429 1.367 . S
C1428 C1436 1.378 . S
C1429 C1428 1.367 . S
C1429 C1437 1.433 . S
C1430 H1426 0.929 . S
C1430 C1432 1.378 . S
C1430 C1434 1.350 . S
C1431 C1434 1.463 . S
C1431 C1436 1.350 . S
C1431 N1439 1.427 . S
C1432 H1423 0.930 . S
C1432 C1430 1.378 . S
C1432 C1433 1.367 . S
C1433 C1432 1.367 . S
C1433 C1435 1.433 . S
C1434 C1430 1.350 . S
C1434 C1431 1.463 . S
C1434 N1438 1.427 . S
C1435 H1425 0.929 . S
C1435 C1433 1.433 . S
C1435 N1438 1.384 . S
C1436 H1427 0.929 . S
C1436 C1428 1.378 . S
C1436 C1431 1.350 . S
C1437 H1424 0.929 . S
C1437 C1429 1.433 . S
C1437 N1439 1.384 . S
N1438 C1434 1.427 . S
N1438 C1435 1.384 . S
N1439 C1431 1.427 . S
N1439 C1437 1.384 . S
H1440 C1446 0.930 . S
H1441 C1450 0.930 . S
H1442 C1455 0.929 . S
H1443 C1453 0.929 . S
H1444 C1448 0.929 . S
H1445 C1454 0.929 . S
C1446 H1440 0.930 . S
C1446 C1447 1.367 . S
C1446 C1454 1.378 . S
C1447 C1446 1.367 . S
C1447 C1455 1.433 . S
C1448 H1444 0.929 . S
C1448 C1450 1.378 . S
C1448 C1452 1.350 . S
C1449 C1452 1.463 1_655 S
C1449 C1454 1.350 . S
C1449 N1457 1.427 . S
C1450 H1441 0.930 . S
C1450 C1448 1.378 . S
C1450 C1451 1.367 . S
C1451 C1450 1.367 . S
C1451 C1453 1.433 . S
C1452 C1448 1.350 . S
C1452 C1449 1.463 1_455 S
C1452 N1456 1.427 . S
C1453 H1443 0.929 . S
C1453 C1451 1.433 . S
C1453 N1456 1.384 . S
C1454 H1445 0.929 . S
C1454 C1446 1.378 . S
C1454 C1449 1.350 . S
C1455 H1442 0.929 . S
C1455 C1447 1.433 . S
C1455 N1457 1.384 . S
N1456 C1452 1.427 . S
N1456 C1453 1.384 . S
N1457 C1449 1.427 . S
N1457 C1455 1.384 . S
H1458 C1464 0.930 . S
H1459 C1468 0.930 . S
H1460 C1473 0.929 . S
H1461 C1471 0.929 . S
H1462 C1466 0.929 . S
H1463 C1472 0.929 . S
C1464 H1458 0.930 . S
C1464 C1465 1.367 . S
C1464 C1472 1.378 . S
C1465 C1464 1.367 . S
C1465 C1473 1.433 . S
C1466 H1462 0.929 . S
C1466 C1468 1.378 . S
C1466 C1470 1.350 . S
C1467 C1470 1.463 1_545 S
C1467 C1472 1.350 . S
C1467 N1475 1.427 . S
C1468 H1459 0.930 . S
C1468 C1466 1.378 . S
C1468 C1469 1.367 . S
C1469 C1468 1.367 . S
C1469 C1471 1.433 . S
C1470 C1466 1.350 . S
C1470 C1467 1.463 1_565 S
C1470 N1474 1.427 . S
C1471 H1461 0.929 . S
C1471 C1469 1.433 . S
C1471 N1474 1.384 . S
C1472 H1463 0.929 . S
C1472 C1464 1.378 . S
C1472 C1467 1.350 . S
C1473 H1460 0.929 . S
C1473 C1465 1.433 . S
C1473 N1475 1.384 . S
N1474 C1470 1.427 . S
N1474 C1471 1.384 . S
N1475 C1467 1.427 . S
N1475 C1473 1.384 . S
H1476 C1482 0.930 . S
H1477 C1486 0.930 . S
H1478 C1491 0.929 . S
H1479 C1489 0.929 . S
H1480 C1484 0.929 . S
H1481 C1490 0.929 . S
C1482 H1476 0.930 . S
C1482 C1483 1.367 . S
C1482 C1490 1.378 . S
C1483 C1482 1.367 . S
C1483 C1491 1.433 . S
C1484 H1480 0.929 . S
C1484 C1486 1.378 . S
C1484 C1488 1.350 . S
C1485 C1488 1.463 1_455 S
C1485 C1490 1.350 . S
C1485 N1493 1.427 . S
C1486 H1477 0.930 . S
C1486 C1484 1.378 . S
C1486 C1487 1.367 . S
C1487 C1486 1.367 . S
C1487 C1489 1.433 . S
C1488 C1484 1.350 . S
C1488 C1485 1.463 1_655 S
C1488 N1492 1.427 . S
C1489 H1479 0.929 . S
C1489 C1487 1.433 . S
C1489 N1492 1.384 . S
C1490 H1481 0.929 . S
C1490 C1482 1.378 . S
C1490 C1485 1.350 . S
C1491 H1478 0.929 . S
C1491 C1483 1.433 . S
C1491 N1493 1.384 . S
N1492 C1488 1.427 . S
N1492 C1489 1.384 . S
N1493 C1485 1.427 . S
N1493 C1491 1.384 . S
H1494 C1500 0.930 . S
H1495 C1504 0.930 . S
H1496 C1509 0.929 . S
H1497 C1507 0.929 . S
H1498 C1502 0.929 . S
H1499 C1508 0.929 . S
C1500 H1494 0.930 . S
C1500 C1501 1.367 . S
C1500 C1508 1.378 . S
C1501 C1500 1.367 . S
C1501 C1509 1.433 . S
C1502 H1498 0.929 . S
C1502 C1504 1.378 . S
C1502 C1506 1.350 . S
C1503 C1506 1.463 1_565 S
C1503 C1508 1.350 . S
C1503 N1511 1.427 . S
C1504 H1495 0.930 . S
C1504 C1502 1.378 . S
C1504 C1505 1.367 . S
C1505 C1504 1.367 . S
C1505 C1507 1.433 . S
C1506 C1502 1.350 . S
C1506 C1503 1.463 1_545 S
C1506 N1510 1.427 . S
C1507 H1497 0.929 . S
C1507 C1505 1.433 . S
C1507 N1510 1.384 . S
C1508 H1499 0.929 . S
C1508 C1500 1.378 . S
C1508 C1503 1.350 . S
C1509 H1496 0.929 . S
C1509 C1501 1.433 . S
C1509 N1511 1.384 . S
N1510 C1506 1.427 . S
N1510 C1507 1.384 . S
N1511 C1503 1.427 . S
N1511 C1509 1.384 . S
H1512 C1518 0.930 . S
H1513 C1522 0.930 . S
H1514 C1527 0.929 . S
H1515 C1525 0.929 . S
H1516 C1520 0.929 . S
H1517 C1526 0.929 . S
C1518 H1512 0.930 . S
C1518 C1519 1.367 . S
C1518 C1526 1.378 . S
C1519 C1518 1.367 . S
C1519 C1527 1.433 . S
C1520 H1516 0.929 . S
C1520 C1522 1.378 . S
C1520 C1524 1.350 . S
C1521 C1524 1.463 1_455 S
C1521 C1526 1.350 . S
C1521 N1529 1.427 . S
C1522 H1513 0.930 . S
C1522 C1520 1.378 . S
C1522 C1523 1.367 . S
C1523 C1522 1.367 . S
C1523 C1525 1.433 . S
C1524 C1520 1.350 . S
C1524 C1521 1.463 1_655 S
C1524 N1528 1.427 . S
C1525 H1515 0.929 . S
C1525 C1523 1.433 . S
C1525 N1528 1.384 . S
C1526 H1517 0.929 . S
C1526 C1518 1.378 . S
C1526 C1521 1.350 . S
C1527 H1514 0.929 . S
C1527 C1519 1.433 . S
C1527 N1529 1.384 . S
N1528 C1524 1.427 . S
N1528 C1525 1.384 . S
N1529 C1521 1.427 . S
N1529 C1527 1.384 . S
H1530 C1536 0.930 . S
H1531 C1540 0.930 . S
H1532 C1545 0.929 . S
H1533 C1543 0.929 . S
H1534 C1538 0.929 . S
H1535 C1544 0.929 . S
C1536 H1530 0.930 . S
C1536 C1537 1.367 . S
C1536 C1544 1.378 . S
C1537 C1536 1.367 . S
C1537 C1545 1.433 . S
C1538 H1534 0.929 . S
C1538 C1540 1.378 . S
C1538 C1542 1.350 . S
C1539 C1542 1.463 1_565 S
C1539 C1544 1.350 . S
C1539 N1547 1.427 . S
C1540 H1531 0.930 . S
C1540 C1538 1.378 . S
C1540 C1541 1.367 . S
C1541 C1540 1.367 . S
C1541 C1543 1.433 . S
C1542 C1538 1.350 . S
C1542 C1539 1.463 1_545 S
C1542 N1546 1.427 . S
C1543 H1533 0.929 . S
C1543 C1541 1.433 . S
C1543 N1546 1.384 . S
C1544 H1535 0.929 . S
C1544 C1536 1.378 . S
C1544 C1539 1.350 . S
C1545 H1532 0.929 . S
C1545 C1537 1.433 . S
C1545 N1547 1.384 . S
N1546 C1542 1.427 . S
N1546 C1543 1.384 . S
N1547 C1539 1.427 . S
N1547 C1545 1.384 . S
H1548 C1554 0.930 . S
H1549 C1558 0.930 . S
H1550 C1563 0.929 . S
H1551 C1561 0.929 . S
H1552 C1556 0.929 . S
H1553 C1562 0.929 . S
C1554 H1548 0.930 . S
C1554 C1555 1.367 . S
C1554 C1562 1.378 . S
C1555 C1554 1.367 . S
C1555 C1563 1.433 . S
C1556 H1552 0.929 . S
C1556 C1558 1.378 . S
C1556 C1560 1.350 . S
C1557 C1560 1.463 1_455 S
C1557 C1562 1.350 . S
C1557 N1565 1.427 . S
C1558 H1549 0.930 . S
C1558 C1556 1.378 . S
C1558 C1559 1.367 . S
C1559 C1558 1.367 . S
C1559 C1561 1.433 . S
C1560 C1556 1.350 . S
C1560 C1557 1.463 1_655 S
C1560 N1564 1.427 . S
C1561 H1551 0.929 . S
C1561 C1559 1.433 . S
C1561 N1564 1.384 . S
C1562 H1553 0.929 . S
C1562 C1554 1.378 . S
C1562 C1557 1.350 . S
C1563 H1550 0.929 . S
C1563 C1555 1.433 . S
C1563 N1565 1.384 . S
N1564 C1560 1.427 . S
N1564 C1561 1.384 . S
N1565 C1557 1.427 . S
N1565 C1563 1.384 . S
H1566 C1572 0.930 . S
H1567 C1576 0.930 . S
H1568 C1581 0.929 . S
H1569 C1579 0.929 . S
H1570 C1574 0.929 . S
H1571 C1580 0.929 . S
C1572 H1566 0.930 . S
C1572 C1573 1.367 . S
C1572 C1580 1.378 . S
C1573 C1572 1.367 . S
C1573 C1581 1.433 . S
C1574 H1570 0.929 . S
C1574 C1576 1.378 . S
C1574 C1578 1.350 . S
C1575 C1578 1.463 1_545 S
C1575 C1580 1.350 . S
C1575 N1583 1.427 . S
C1576 H1567 0.930 . S
C1576 C1574 1.378 . S
C1576 C1577 1.367 . S
C1577 C1576 1.367 . S
C1577 C1579 1.433 . S
C1578 C1574 1.350 . S
C1578 C1575 1.463 1_565 S
C1578 N1582 1.427 . S
C1579 H1569 0.929 . S
C1579 C1577 1.433 . S
C1579 N1582 1.384 . S
C1580 H1571 0.929 . S
C1580 C1572 1.378 . S
C1580 C1575 1.350 . S
C1581 H1568 0.929 . S
C1581 C1573 1.433 . S
C1581 N1583 1.384 . S
N1582 C1578 1.427 . S
N1582 C1579 1.384 . S
N1583 C1575 1.427 . S
N1583 C1581 1.384 . S
H1584 C1590 0.930 . S
H1585 C1594 0.930 . S
H1586 C1599 0.929 . S
H1587 C1597 0.929 . S
H1588 C1592 0.929 . S
H1589 C1598 0.929 . S
C1590 H1584 0.930 . S
C1590 C1591 1.367 . S
C1590 C1598 1.378 . S
C1591 C1590 1.367 . S
C1591 C1599 1.433 . S
C1592 H1588 0.929 . S
C1592 C1594 1.378 . S
C1592 C1596 1.350 . S
C1593 C1596 1.463 . S
C1593 C1598 1.350 . S
C1593 N1601 1.427 . S
C1594 H1585 0.930 . S
C1594 C1592 1.378 . S
C1594 C1595 1.367 . S
C1595 C1594 1.367 . S
C1595 C1597 1.433 . S
C1596 C1592 1.350 . S
C1596 C1593 1.463 . S
C1596 N1600 1.427 . S
C1597 H1587 0.929 . S
C1597 C1595 1.433 . S
C1597 N1600 1.384 . S
C1598 H1589 0.929 . S
C1598 C1590 1.378 . S
C1598 C1593 1.350 . S
C1599 H1586 0.929 . S
C1599 C1591 1.433 . S
C1599 N1601 1.384 . S
N1600 C1596 1.427 . S
N1600 C1597 1.384 . S
N1601 C1593 1.427 . S
N1601 C1599 1.384 . S
H1602 C1608 0.930 . S
H1603 C1612 0.930 . S
H1604 C1617 0.929 . S
H1605 C1615 0.929 . S
H1606 C1610 0.929 . S
H1607 C1616 0.929 . S
C1608 H1602 0.930 . S
C1608 C1609 1.367 . S
C1608 C1616 1.378 . S
C1609 C1608 1.367 . S
C1609 C1617 1.433 . S
C1610 H1606 0.929 . S
C1610 C1612 1.378 . S
C1610 C1614 1.350 . S
C1611 C1614 1.463 . S
C1611 C1616 1.350 . S
C1611 N1619 1.427 . S
C1612 H1603 0.930 . S
C1612 C1610 1.378 . S
C1612 C1613 1.367 . S
C1613 C1612 1.367 . S
C1613 C1615 1.433 . S
C1614 C1610 1.350 . S
C1614 C1611 1.463 . S
C1614 N1618 1.427 . S
C1615 H1605 0.929 . S
C1615 C1613 1.433 . S
C1615 N1618 1.384 . S
C1616 H1607 0.929 . S
C1616 C1608 1.378 . S
C1616 C1611 1.350 . S
C1617 H1604 0.929 . S
C1617 C1609 1.433 . S
C1617 N1619 1.384 . S
N1618 C1614 1.427 . S
N1618 C1615 1.384 . S
N1619 C1611 1.427 . S
N1619 C1617 1.384 . S
H1620 C1626 0.930 . S
H1621 C1630 0.930 . S
H1622 C1635 0.929 . S
H1623 C1633 0.929 . S
H1624 C1628 0.929 . S
H1625 C1634 0.929 . S
C1626 H1620 0.930 . S
C1626 C1627 1.367 . S
C1626 C1634 1.378 . S
C1627 C1626 1.367 . S
C1627 C1635 1.433 . S
C1628 H1624 0.929 . S
C1628 C1630 1.378 . S
C1628 C1632 1.350 . S
C1629 C1632 1.463 . S
C1629 C1634 1.350 . S
C1629 N1637 1.427 . S
C1630 H1621 0.930 . S
C1630 C1628 1.378 . S
C1630 C1631 1.367 . S
C1631 C1630 1.367 . S
C1631 C1633 1.433 . S
C1632 C1628 1.350 . S
C1632 C1629 1.463 . S
C1632 N1636 1.427 . S
C1633 H1623 0.929 . S
C1633 C1631 1.433 . S
C1633 N1636 1.384 . S
C1634 H1625 0.929 . S
C1634 C1626 1.378 . S
C1634 C1629 1.350 . S
C1635 H1622 0.929 . S
C1635 C1627 1.433 . S
C1635 N1637 1.384 . S
N1636 C1632 1.427 . S
N1636 C1633 1.384 . S
N1637 C1629 1.427 . S
N1637 C1635 1.384 . S
H1638 C1644 0.930 . S
H1639 C1648 0.930 . S
H1640 C1653 0.929 . S
H1641 C1651 0.929 . S
H1642 C1646 0.929 . S
H1643 C1652 0.929 . S
C1644 H1638 0.930 . S
C1644 C1645 1.367 . S
C1644 C1652 1.378 . S
C1645 C1644 1.367 . S
C1645 C1653 1.433 . S
C1646 H1642 0.929 . S
C1646 C1648 1.378 . S
C1646 C1650 1.350 . S
C1647 C1650 1.463 . S
C1647 C1652 1.350 . S
C1647 N1655 1.427 . S
C1648 H1639 0.930 . S
C1648 C1646 1.378 . S
C1648 C1649 1.367 . S
C1649 C1648 1.367 . S
C1649 C1651 1.433 . S
C1650 C1646 1.350 . S
C1650 C1647 1.463 . S
C1650 N1654 1.427 . S
C1651 H1641 0.929 . S
C1651 C1649 1.433 . S
C1651 N1654 1.384 . S
C1652 H1643 0.929 . S
C1652 C1644 1.378 . S
C1652 C1647 1.350 . S
C1653 H1640 0.929 . S
C1653 C1645 1.433 . S
C1653 N1655 1.384 . S
N1654 C1650 1.427 . S
N1654 C1651 1.384 . S
N1655 C1647 1.427 . S
N1655 C1653 1.384 . S
H1656 C1662 0.930 . S
H1657 C1666 0.930 . S
H1658 C1671 0.929 . S
H1659 C1669 0.929 . S
H1660 C1664 0.929 . S
H1661 C1670 0.929 . S
C1662 H1656 0.930 . S
C1662 C1663 1.367 . S
C1662 C1670 1.378 . S
C1663 C1662 1.367 . S
C1663 C1671 1.433 . S
C1664 H1660 0.929 . S
C1664 C1666 1.378 . S
C1664 C1668 1.350 . S
C1665 C1668 1.463 . S
C1665 C1670 1.350 . S
C1665 N1673 1.427 . S
C1666 H1657 0.930 . S
C1666 C1664 1.378 . S
C1666 C1667 1.367 . S
C1667 C1666 1.367 . S
C1667 C1669 1.433 . S
C1668 C1664 1.350 . S
C1668 C1665 1.463 . S
C1668 N1672 1.427 . S
C1669 H1659 0.929 . S
C1669 C1667 1.433 . S
C1669 N1672 1.384 . S
C1670 H1661 0.929 . S
C1670 C1662 1.378 . S
C1670 C1665 1.350 . S
C1671 H1658 0.929 . S
C1671 C1663 1.433 . S
C1671 N1673 1.384 . S
N1672 C1668 1.427 . S
N1672 C1669 1.384 . S
N1673 C1665 1.427 . S
N1673 C1671 1.384 . S
H1674 C1680 0.930 . S
H1675 C1684 0.930 . S
H1676 C1689 0.929 . S
H1677 C1687 0.929 . S
H1678 C1682 0.929 . S
H1679 C1688 0.929 . S
C1680 H1674 0.930 . S
C1680 C1681 1.367 . S
C1680 C1688 1.378 . S
C1681 C1680 1.367 . S
C1681 C1689 1.433 . S
C1682 H1678 0.929 . S
C1682 C1684 1.378 . S
C1682 C1686 1.350 . S
C1683 C1686 1.463 . S
C1683 C1688 1.350 . S
C1683 N1691 1.427 . S
C1684 H1675 0.930 . S
C1684 C1682 1.378 . S
C1684 C1685 1.367 . S
C1685 C1684 1.367 . S
C1685 C1687 1.433 . S
C1686 C1682 1.350 . S
C1686 C1683 1.463 . S
C1686 N1690 1.427 . S
C1687 H1677 0.929 . S
C1687 C1685 1.433 . S
C1687 N1690 1.384 . S
C1688 H1679 0.929 . S
C1688 C1680 1.378 . S
C1688 C1683 1.350 . S
C1689 H1676 0.929 . S
C1689 C1681 1.433 . S
C1689 N1691 1.384 . S
N1690 C1686 1.427 . S
N1690 C1687 1.384 . S
N1691 C1683 1.427 . S
N1691 C1689 1.384 . S
H1692 C1698 0.930 . S
H1693 C1702 0.930 . S
H1694 C1707 0.929 . S
H1695 C1705 0.929 . S
H1696 C1700 0.929 . S
H1697 C1706 0.929 . S
C1698 H1692 0.930 . S
C1698 C1699 1.367 . S
C1698 C1706 1.378 . S
C1699 C1698 1.367 . S
C1699 C1707 1.433 . S
C1700 H1696 0.929 . S
C1700 C1702 1.378 . S
C1700 C1704 1.350 . S
C1701 C1704 1.463 . S
C1701 C1706 1.350 . S
C1701 N1709 1.427 . S
C1702 H1693 0.930 . S
C1702 C1700 1.378 . S
C1702 C1703 1.367 . S
C1703 C1702 1.367 . S
C1703 C1705 1.433 . S
C1704 C1700 1.350 . S
C1704 C1701 1.463 . S
C1704 N1708 1.427 . S
C1705 H1695 0.929 . S
C1705 C1703 1.433 . S
C1705 N1708 1.384 . S
C1706 H1697 0.929 . S
C1706 C1698 1.378 . S
C1706 C1701 1.350 . S
C1707 H1694 0.929 . S
C1707 C1699 1.433 . S
C1707 N1709 1.384 . S
N1708 C1704 1.427 . S
N1708 C1705 1.384 . S
N1709 C1701 1.427 . S
N1709 C1707 1.384 . S
H1710 C1716 0.930 . S
H1711 C1720 0.930 . S
H1712 C1725 0.929 . S
H1713 C1723 0.929 . S
H1714 C1718 0.929 . S
H1715 C1724 0.929 . S
C1716 H1710 0.930 . S
C1716 C1717 1.367 . S
C1716 C1724 1.378 . S
C1717 C1716 1.367 . S
C1717 C1725 1.433 . S
C1718 H1714 0.929 . S
C1718 C1720 1.378 . S
C1718 C1722 1.350 . S
C1719 C1722 1.463 . S
C1719 C1724 1.350 . S
C1719 N1727 1.427 . S
C1720 H1711 0.930 . S
C1720 C1718 1.378 . S
C1720 C1721 1.367 . S
C1721 C1720 1.367 . S
C1721 C1723 1.433 . S
C1722 C1718 1.350 . S
C1722 C1719 1.463 . S
C1722 N1726 1.427 . S
C1723 H1713 0.929 . S
C1723 C1721 1.433 . S
C1723 N1726 1.384 . S
C1724 H1715 0.929 . S
C1724 C1716 1.378 . S
C1724 C1719 1.350 . S
C1725 H1712 0.929 . S
C1725 C1717 1.433 . S
C1725 N1727 1.384 . S
N1726 C1722 1.427 . S
N1726 C1723 1.384 . S
N1727 C1719 1.427 . S
N1727 C1725 1.384 . S
H1728 C1734 0.930 . S
H1729 C1738 0.930 . S
H1730 C1743 0.929 . S
H1731 C1741 0.929 . S
H1732 C1736 0.929 . S
H1733 C1742 0.929 . S
C1734 H1728 0.930 . S
C1734 C1735 1.367 . S
C1734 C1742 1.378 . S
C1735 C1734 1.367 . S
C1735 C1743 1.433 . S
C1736 H1732 0.929 . S
C1736 C1738 1.378 . S
C1736 C1740 1.350 . S
C1737 C1740 1.463 . S
C1737 C1742 1.350 . S
C1737 N1745 1.427 . S
C1738 H1729 0.930 . S
C1738 C1736 1.378 . S
C1738 C1739 1.367 . S
C1739 C1738 1.367 . S
C1739 C1741 1.433 . S
C1740 C1736 1.350 . S
C1740 C1737 1.463 . S
C1740 N1744 1.427 . S
C1741 H1731 0.929 . S
C1741 C1739 1.433 . S
C1741 N1744 1.384 . S
C1742 H1733 0.929 . S
C1742 C1734 1.378 . S
C1742 C1737 1.350 . S
C1743 H1730 0.929 . S
C1743 C1735 1.433 . S
C1743 N1745 1.384 . S
N1744 C1740 1.427 . S
N1744 C1741 1.384 . S
N1745 C1737 1.427 . S
N1745 C1743 1.384 . S
H1746 C1752 0.930 . S
H1747 C1756 0.930 . S
H1748 C1761 0.929 . S
H1749 C1759 0.929 . S
H1750 C1754 0.929 . S
H1751 C1760 0.929 . S
C1752 H1746 0.930 . S
C1752 C1753 1.367 . S
C1752 C1760 1.378 . S
C1753 C1752 1.367 . S
C1753 C1761 1.433 . S
C1754 H1750 0.929 . S
C1754 C1756 1.378 . S
C1754 C1758 1.350 . S
C1755 C1758 1.463 . S
C1755 C1760 1.350 . S
C1755 N1763 1.427 . S
C1756 H1747 0.930 . S
C1756 C1754 1.378 . S
C1756 C1757 1.367 . S
C1757 C1756 1.367 . S
C1757 C1759 1.433 . S
C1758 C1754 1.350 . S
C1758 C1755 1.463 . S
C1758 N1762 1.427 . S
C1759 H1749 0.929 . S
C1759 C1757 1.433 . S
C1759 N1762 1.384 . S
C1760 H1751 0.929 . S
C1760 C1752 1.378 . S
C1760 C1755 1.350 . S
C1761 H1748 0.929 . S
C1761 C1753 1.433 . S
C1761 N1763 1.384 . S
N1762 C1758 1.427 . S
N1762 C1759 1.384 . S
N1763 C1755 1.427 . S
N1763 C1761 1.384 . S
H1764 C1770 0.930 . S
H1765 C1774 0.930 . S
H1766 C1779 0.929 . S
H1767 C1777 0.929 . S
H1768 C1772 0.929 . S
H1769 C1778 0.929 . S
C1770 H1764 0.930 . S
C1770 C1771 1.367 . S
C1770 C1778 1.378 . S
C1771 C1770 1.367 . S
C1771 C1779 1.433 . S
C1772 H1768 0.929 . S
C1772 C1774 1.378 . S
C1772 C1776 1.350 . S
C1773 C1776 1.463 . S
C1773 C1778 1.350 . S
C1773 N1781 1.427 . S
C1774 H1765 0.930 . S
C1774 C1772 1.378 . S
C1774 C1775 1.367 . S
C1775 C1774 1.367 . S
C1775 C1777 1.433 . S
C1776 C1772 1.350 . S
C1776 C1773 1.463 . S
C1776 N1780 1.427 . S
C1777 H1767 0.929 . S
C1777 C1775 1.433 . S
C1777 N1780 1.384 . S
C1778 H1769 0.929 . S
C1778 C1770 1.378 . S
C1778 C1773 1.350 . S
C1779 H1766 0.929 . S
C1779 C1771 1.433 . S
C1779 N1781 1.384 . S
N1780 C1776 1.427 . S
N1780 C1777 1.384 . S
N1781 C1773 1.427 . S
N1781 C1779 1.384 . S
H1782 C1788 0.930 . S
H1783 C1792 0.930 . S
H1784 C1797 0.929 . S
H1785 C1795 0.929 . S
H1786 C1790 0.929 . S
H1787 C1796 0.929 . S
C1788 H1782 0.930 . S
C1788 C1789 1.367 . S
C1788 C1796 1.378 . S
C1789 C1788 1.367 . S
C1789 C1797 1.433 . S
C1790 H1786 0.929 . S
C1790 C1792 1.378 . S
C1790 C1794 1.350 . S
C1791 C1794 1.463 . S
C1791 C1796 1.350 . S
C1791 N1799 1.427 . S
C1792 H1783 0.930 . S
C1792 C1790 1.378 . S
C1792 C1793 1.367 . S
C1793 C1792 1.367 . S
C1793 C1795 1.433 . S
C1794 C1790 1.350 . S
C1794 C1791 1.463 . S
C1794 N1798 1.427 . S
C1795 H1785 0.929 . S
C1795 C1793 1.433 . S
C1795 N1798 1.384 . S
C1796 H1787 0.929 . S
C1796 C1788 1.378 . S
C1796 C1791 1.350 . S
C1797 H1784 0.929 . S
C1797 C1789 1.433 . S
C1797 N1799 1.384 . S
N1798 C1794 1.427 . S
N1798 C1795 1.384 . S
N1799 C1791 1.427 . S
N1799 C1797 1.384 . S
H1800 C1806 0.930 . S
H1801 C1810 0.930 . S
H1802 C1815 0.929 . S
H1803 C1813 0.929 . S
H1804 C1808 0.929 . S
H1805 C1814 0.929 . S
C1806 H1800 0.930 . S
C1806 C1807 1.367 . S
C1806 C1814 1.378 . S
C1807 C1806 1.367 . S
C1807 C1815 1.433 . S
C1808 H1804 0.929 . S
C1808 C1810 1.378 . S
C1808 C1812 1.350 . S
C1809 C1812 1.463 . S
C1809 C1814 1.350 . S
C1809 N1817 1.427 . S
C1810 H1801 0.930 . S
C1810 C1808 1.378 . S
C1810 C1811 1.367 . S
C1811 C1810 1.367 . S
C1811 C1813 1.433 . S
C1812 C1808 1.350 . S
C1812 C1809 1.463 . S
C1812 N1816 1.427 . S
C1813 H1803 0.929 . S
C1813 C1811 1.433 . S
C1813 N1816 1.384 . S
C1814 H1805 0.929 . S
C1814 C1806 1.378 . S
C1814 C1809 1.350 . S
C1815 H1802 0.929 . S
C1815 C1807 1.433 . S
C1815 N1817 1.384 . S
N1816 C1812 1.427 . S
N1816 C1813 1.384 . S
N1817 C1809 1.427 . S
N1817 C1815 1.384 . S
H1818 C1824 0.930 . S
H1819 C1828 0.930 . S
H1820 C1833 0.929 . S
H1821 C1831 0.929 . S
H1822 C1826 0.929 . S
H1823 C1832 0.929 . S
C1824 H1818 0.930 . S
C1824 C1825 1.367 . S
C1824 C1832 1.378 . S
C1825 C1824 1.367 . S
C1825 C1833 1.433 . S
C1826 H1822 0.929 . S
C1826 C1828 1.378 . S
C1826 C1830 1.350 . S
C1827 C1830 1.463 . S
C1827 C1832 1.350 . S
C1827 N1835 1.427 . S
C1828 H1819 0.930 . S
C1828 C1826 1.378 . S
C1828 C1829 1.367 . S
C1829 C1828 1.367 . S
C1829 C1831 1.433 . S
C1830 C1826 1.350 . S
C1830 C1827 1.463 . S
C1830 N1834 1.427 . S
C1831 H1821 0.929 . S
C1831 C1829 1.433 . S
C1831 N1834 1.384 . S
C1832 H1823 0.929 . S
C1832 C1824 1.378 . S
C1832 C1827 1.350 . S
C1833 H1820 0.929 . S
C1833 C1825 1.433 . S
C1833 N1835 1.384 . S
N1834 C1830 1.427 . S
N1834 C1831 1.384 . S
N1835 C1827 1.427 . S
N1835 C1833 1.384 . S
H1836 C1842 0.930 . S
H1837 C1846 0.930 . S
H1838 C1851 0.929 . S
H1839 C1849 0.929 . S
H1840 C1844 0.929 . S
H1841 C1850 0.929 . S
C1842 H1836 0.930 . S
C1842 C1843 1.367 . S
C1842 C1850 1.378 . S
C1843 C1842 1.367 . S
C1843 C1851 1.433 . S
C1844 H1840 0.929 . S
C1844 C1846 1.378 . S
C1844 C1848 1.350 . S
C1845 C1848 1.463 . S
C1845 C1850 1.350 . S
C1845 N1853 1.427 . S
C1846 H1837 0.930 . S
C1846 C1844 1.378 . S
C1846 C1847 1.367 . S
C1847 C1846 1.367 . S
C1847 C1849 1.433 . S
C1848 C1844 1.350 . S
C1848 C1845 1.463 . S
C1848 N1852 1.427 . S
C1849 H1839 0.929 . S
C1849 C1847 1.433 . S
C1849 N1852 1.384 . S
C1850 H1841 0.929 . S
C1850 C1842 1.378 . S
C1850 C1845 1.350 . S
C1851 H1838 0.929 . S
C1851 C1843 1.433 . S
C1851 N1853 1.384 . S
N1852 C1848 1.427 . S
N1852 C1849 1.384 . S
N1853 C1845 1.427 . S
N1853 C1851 1.384 . S
H1854 C1860 0.930 . S
H1855 C1864 0.930 . S
H1856 C1869 0.929 . S
H1857 C1867 0.929 . S
H1858 C1862 0.929 . S
H1859 C1868 0.929 . S
C1860 H1854 0.930 . S
C1860 C1861 1.367 . S
C1860 C1868 1.378 . S
C1861 C1860 1.367 . S
C1861 C1869 1.433 . S
C1862 H1858 0.929 . S
C1862 C1864 1.378 . S
C1862 C1866 1.350 . S
C1863 C1866 1.463 . S
C1863 C1868 1.350 . S
C1863 N1871 1.427 . S
C1864 H1855 0.930 . S
C1864 C1862 1.378 . S
C1864 C1865 1.367 . S
C1865 C1864 1.367 . S
C1865 C1867 1.433 . S
C1866 C1862 1.350 . S
C1866 C1863 1.463 . S
C1866 N1870 1.427 . S
C1867 H1857 0.929 . S
C1867 C1865 1.433 . S
C1867 N1870 1.384 . S
C1868 H1859 0.929 . S
C1868 C1860 1.378 . S
C1868 C1863 1.350 . S
C1869 H1856 0.929 . S
C1869 C1861 1.433 . S
C1869 N1871 1.384 . S
N1870 C1866 1.427 . S
N1870 C1867 1.384 . S
N1871 C1863 1.427 . S
N1871 C1869 1.384 . S
H1872 C1878 0.930 . S
H1873 C1882 0.930 . S
H1874 C1887 0.929 . S
H1875 C1885 0.929 . S
H1876 C1880 0.929 . S
H1877 C1886 0.929 . S
C1878 H1872 0.930 . S
C1878 C1879 1.367 . S
C1878 C1886 1.378 . S
C1879 C1878 1.367 . S
C1879 C1887 1.433 . S
C1880 H1876 0.929 . S
C1880 C1882 1.378 . S
C1880 C1884 1.350 . S
C1881 C1884 1.463 1_554 S
C1881 C1886 1.350 . S
C1881 N1889 1.427 . S
C1882 H1873 0.930 . S
C1882 C1880 1.378 . S
C1882 C1883 1.367 . S
C1883 C1882 1.367 . S
C1883 C1885 1.433 . S
C1884 C1880 1.350 . S
C1884 C1881 1.463 1_556 S
C1884 N1888 1.427 . S
C1885 H1875 0.929 . S
C1885 C1883 1.433 . S
C1885 N1888 1.384 . S
C1886 H1877 0.929 . S
C1886 C1878 1.378 . S
C1886 C1881 1.350 . S
C1887 H1874 0.929 . S
C1887 C1879 1.433 . S
C1887 N1889 1.384 . S
N1888 C1884 1.427 . S
N1888 C1885 1.384 . S
N1889 C1881 1.427 . S
N1889 C1887 1.384 . S
H1890 C1896 0.930 . S
H1891 C1900 0.930 . S
H1892 C1905 0.929 . S
H1893 C1903 0.929 . S
H1894 C1898 0.929 . S
H1895 C1904 0.929 . S
C1896 H1890 0.930 . S
C1896 C1897 1.367 . S
C1896 C1904 1.378 . S
C1897 C1896 1.367 . S
C1897 C1905 1.433 . S
C1898 H1894 0.929 . S
C1898 C1900 1.378 . S
C1898 C1902 1.350 . S
C1899 C1902 1.417 1_556 S
C1899 C1904 1.370 . S
C1899 N1907 1.452 . S
C1900 H1891 0.930 . S
C1900 C1898 1.378 . S
C1900 C1901 1.367 . S
C1901 C1900 1.367 . S
C1901 C1903 1.433 . S
C1902 C1898 1.350 . S
C1902 C1899 1.417 1_554 S
C1902 N1906 1.427 . S
C1903 H1893 0.929 . S
C1903 C1901 1.433 . S
C1903 N1906 1.384 . S
C1904 H1895 0.929 . S
C1904 C1896 1.378 . S
C1904 C1899 1.370 . S
C1905 H1892 0.929 . S
C1905 C1897 1.433 . S
C1905 N1907 1.384 . S
N1906 C1902 1.427 . S
N1906 C1903 1.384 . S
N1907 C1899 1.452 . S
N1907 C1905 1.384 . S
H1908 C1914 0.930 . S
H1909 C1918 0.930 . S
H1910 C1923 0.929 . S
H1911 C1921 0.929 . S
H1912 C1916 0.929 . S
H1913 C1922 0.929 . S
C1914 H1908 0.930 . S
C1914 C1915 1.367 . S
C1914 C1922 1.378 . S
C1915 C1914 1.367 . S
C1915 C1923 1.433 . S
C1916 H1912 0.929 . S
C1916 C1918 1.378 . S
C1916 C1920 1.350 . S
C1917 C1920 1.463 1_554 S
C1917 C1922 1.350 . S
C1917 N1925 1.427 . S
C1918 H1909 0.930 . S
C1918 C1916 1.378 . S
C1918 C1919 1.367 . S
C1919 C1918 1.367 . S
C1919 C1921 1.433 . S
C1920 C1916 1.350 . S
C1920 C1917 1.463 1_556 S
C1920 N1924 1.427 . S
C1921 H1911 0.929 . S
C1921 C1919 1.433 . S
C1921 N1924 1.384 . S
C1922 H1913 0.929 . S
C1922 C1914 1.378 . S
C1922 C1917 1.350 . S
C1923 H1910 0.929 . S
C1923 C1915 1.433 . S
C1923 N1925 1.384 . S
N1924 C1920 1.427 . S
N1924 C1921 1.384 . S
N1925 C1917 1.427 . S
N1925 C1923 1.384 . S
H1926 C1932 0.930 . S
H1927 C1936 0.930 . S
H1928 C1941 0.929 . S
H1929 C1939 0.929 . S
H1930 C1934 0.929 . S
H1931 C1940 0.929 . S
C1932 H1926 0.930 . S
C1932 C1933 1.367 . S
C1932 C1940 1.378 . S
C1933 C1932 1.367 . S
C1933 C1941 1.433 . S
C1934 H1930 0.929 . S
C1934 C1936 1.378 . S
C1934 C1938 1.350 . S
C1935 C1938 1.463 1_554 S
C1935 C1940 1.350 . S
C1935 N1943 1.427 . S
C1936 H1927 0.930 . S
C1936 C1934 1.378 . S
C1936 C1937 1.367 . S
C1937 C1936 1.367 . S
C1937 C1939 1.433 . S
C1938 C1934 1.350 . S
C1938 C1935 1.463 1_556 S
C1938 N1942 1.427 . S
C1939 H1929 0.929 . S
C1939 C1937 1.433 . S
C1939 N1942 1.384 . S
C1940 H1931 0.929 . S
C1940 C1932 1.378 . S
C1940 C1935 1.350 . S
C1941 H1928 0.929 . S
C1941 C1933 1.433 . S
C1941 N1943 1.384 . S
N1942 C1938 1.427 . S
N1942 C1939 1.384 . S
N1943 C1935 1.427 . S
N1943 C1941 1.384 . S
H1944 C1950 0.930 . S
H1945 C1954 0.930 . S
H1946 C1959 0.929 . S
H1947 C1957 0.929 . S
H1948 C1952 0.929 . S
H1949 C1958 0.929 . S
C1950 H1944 0.930 . S
C1950 C1951 1.367 . S
C1950 C1958 1.378 . S
C1951 C1950 1.367 . S
C1951 C1959 1.433 . S
C1952 H1948 0.929 . S
C1952 C1954 1.378 . S
C1952 C1956 1.350 . S
C1953 C1956 1.463 1_554 S
C1953 C1958 1.350 . S
C1953 N1961 1.427 . S
C1954 H1945 0.930 . S
C1954 C1952 1.378 . S
C1954 C1955 1.367 . S
C1955 C1954 1.367 . S
C1955 C1957 1.433 . S
C1956 C1952 1.350 . S
C1956 C1953 1.463 1_556 S
C1956 N1960 1.427 . S
C1957 H1947 0.929 . S
C1957 C1955 1.433 . S
C1957 N1960 1.384 . S
C1958 H1949 0.929 . S
C1958 C1950 1.378 . S
C1958 C1953 1.350 . S
C1959 H1946 0.929 . S
C1959 C1951 1.433 . S
C1959 N1961 1.384 . S
N1960 C1956 1.427 . S
N1960 C1957 1.384 . S
N1961 C1953 1.427 . S
N1961 C1959 1.384 . S
H1962 C1968 0.930 . S
H1963 C1972 0.930 . S
H1964 C1977 0.929 . S
H1965 C1975 0.929 . S
H1966 C1970 0.929 . S
H1967 C1976 0.929 . S
C1968 H1962 0.930 . S
C1968 C1969 1.367 . S
C1968 C1976 1.378 . S
C1969 C1968 1.367 . S
C1969 C1977 1.433 . S
C1970 H1966 0.929 . S
C1970 C1972 1.378 . S
C1970 C1974 1.350 . S
C1971 C1974 1.463 1_554 S
C1971 C1976 1.350 . S
C1971 N1979 1.427 . S
C1972 H1963 0.930 . S
C1972 C1970 1.378 . S
C1972 C1973 1.367 . S
C1973 C1972 1.367 . S
C1973 C1975 1.433 . S
C1974 C1970 1.350 . S
C1974 C1971 1.463 1_556 S
C1974 N1978 1.427 . S
C1975 H1965 0.929 . S
C1975 C1973 1.433 . S
C1975 N1978 1.384 . S
C1976 H1967 0.929 . S
C1976 C1968 1.378 . S
C1976 C1971 1.350 . S
C1977 H1964 0.929 . S
C1977 C1969 1.433 . S
C1977 N1979 1.384 . S
N1978 C1974 1.427 . S
N1978 C1975 1.384 . S
N1979 C1971 1.427 . S
N1979 C1977 1.384 . S
H1980 C1986 0.930 . S
H1981 C1990 0.930 . S
H1982 C1995 0.929 . S
H1983 C1993 0.929 . S
H1984 C1988 0.929 . S
H1985 C1994 0.929 . S
C1986 H1980 0.930 . S
C1986 C1987 1.367 . S
C1986 C1994 1.378 . S
C1987 C1986 1.367 . S
C1987 C1995 1.433 . S
C1988 H1984 0.929 . S
C1988 C1990 1.378 . S
C1988 C1992 1.350 . S
C1989 C1992 1.463 1_556 S
C1989 C1994 1.350 . S
C1989 N1997 1.427 . S
C1990 H1981 0.930 . S
C1990 C1988 1.378 . S
C1990 C1991 1.367 . S
C1991 C1990 1.367 . S
C1991 C1993 1.433 . S
C1992 C1988 1.350 . S
C1992 C1989 1.463 1_554 S
C1992 N1996 1.427 . S
C1993 H1983 0.929 . S
C1993 C1991 1.433 . S
C1993 N1996 1.384 . S
C1994 H1985 0.929 . S
C1994 C1986 1.378 . S
C1994 C1989 1.350 . S
C1995 H1982 0.929 . S
C1995 C1987 1.433 . S
C1995 N1997 1.384 . S
N1996 C1992 1.427 . S
N1996 C1993 1.384 . S
N1997 C1989 1.427 . S
N1997 C1995 1.384 . S
H1998 C2004 0.930 . S
H1999 C2008 0.930 . S
H2000 C2013 0.929 . S
H2001 C2011 0.929 . S
H2002 C2006 0.929 . S
H2003 C2012 0.929 . S
C2004 H1998 0.930 . S
C2004 C2005 1.367 . S
C2004 C2012 1.378 . S
C2005 C2004 1.367 . S
C2005 C2013 1.433 . S
C2006 H2002 0.929 . S
C2006 C2008 1.378 . S
C2006 C2010 1.350 . S
C2007 C2010 1.463 1_556 S
C2007 C2012 1.350 . S
C2007 N2015 1.427 . S
C2008 H1999 0.930 . S
C2008 C2006 1.378 . S
C2008 C2009 1.367 . S
C2009 C2008 1.367 . S
C2009 C2011 1.433 . S
C2010 C2006 1.350 . S
C2010 C2007 1.463 1_554 S
C2010 N2014 1.427 . S
C2011 H2001 0.929 . S
C2011 C2009 1.433 . S
C2011 N2014 1.384 . S
C2012 H2003 0.929 . S
C2012 C2004 1.378 . S
C2012 C2007 1.350 . S
C2013 H2000 0.929 . S
C2013 C2005 1.433 . S
C2013 N2015 1.384 . S
N2014 C2010 1.427 . S
N2014 C2011 1.384 . S
N2015 C2007 1.427 . S
N2015 C2013 1.384 . S
H2016 C2022 0.930 . S
H2017 C2026 0.930 . S
H2018 C2031 0.929 . S
H2019 C2029 0.929 . S
H2020 C2024 0.929 . S
H2021 C2030 0.929 . S
C2022 H2016 0.930 . S
C2022 C2023 1.367 . S
C2022 C2030 1.378 . S
C2023 C2022 1.367 . S
C2023 C2031 1.433 . S
C2024 H2020 0.929 . S
C2024 C2026 1.378 . S
C2024 C2028 1.350 . S
C2025 C2028 1.463 . S
C2025 C2030 1.350 . S
C2025 N2033 1.427 . S
C2026 H2017 0.930 . S
C2026 C2024 1.378 . S
C2026 C2027 1.367 . S
C2027 C2026 1.367 . S
C2027 C2029 1.433 . S
C2028 C2024 1.350 . S
C2028 C2025 1.463 . S
C2028 N2032 1.427 . S
C2029 H2019 0.929 . S
C2029 C2027 1.433 . S
C2029 N2032 1.384 . S
C2030 H2021 0.929 . S
C2030 C2022 1.378 . S
C2030 C2025 1.350 . S
C2031 H2018 0.929 . S
C2031 C2023 1.433 . S
C2031 N2033 1.384 . S
N2032 C2028 1.427 . S
N2032 C2029 1.384 . S
N2033 C2025 1.427 . S
N2033 C2031 1.384 . S
H2034 C2040 0.930 . S
H2035 C2044 0.930 . S
H2036 C2049 0.929 . S
H2037 C2047 0.929 . S
H2038 C2042 0.929 . S
H2039 C2048 0.929 . S
C2040 H2034 0.930 . S
C2040 C2041 1.367 . S
C2040 C2048 1.378 . S
C2041 C2040 1.367 . S
C2041 C2049 1.433 . S
C2042 H2038 0.929 . S
C2042 C2044 1.378 . S
C2042 C2046 1.350 . S
C2043 C2046 1.463 . S
C2043 C2048 1.350 . S
C2043 N2051 1.427 . S
C2044 H2035 0.930 . S
C2044 C2042 1.378 . S
C2044 C2045 1.367 . S
C2045 C2044 1.367 . S
C2045 C2047 1.433 . S
C2046 C2042 1.350 . S
C2046 C2043 1.463 . S
C2046 N2050 1.427 . S
C2047 H2037 0.929 . S
C2047 C2045 1.433 . S
C2047 N2050 1.384 . S
C2048 H2039 0.929 . S
C2048 C2040 1.378 . S
C2048 C2043 1.350 . S
C2049 H2036 0.929 . S
C2049 C2041 1.433 . S
C2049 N2051 1.384 . S
N2050 C2046 1.427 . S
N2050 C2047 1.384 . S
N2051 C2043 1.427 . S
N2051 C2049 1.384 . S
H2052 C2058 0.930 . S
H2053 C2062 0.930 . S
H2054 C2067 0.929 . S
H2055 C2065 0.929 . S
H2056 C2060 0.929 . S
H2057 C2066 0.929 . S
C2058 H2052 0.930 . S
C2058 C2059 1.367 . S
C2058 C2066 1.378 . S
C2059 C2058 1.367 . S
C2059 C2067 1.433 . S
C2060 H2056 0.929 . S
C2060 C2062 1.378 . S
C2060 C2064 1.350 . S
C2061 C2064 1.463 . S
C2061 C2066 1.350 . S
C2061 N2069 1.427 . S
C2062 H2053 0.930 . S
C2062 C2060 1.378 . S
C2062 C2063 1.367 . S
C2063 C2062 1.367 . S
C2063 C2065 1.433 . S
C2064 C2060 1.350 . S
C2064 C2061 1.463 . S
C2064 N2068 1.427 . S
C2065 H2055 0.929 . S
C2065 C2063 1.433 . S
C2065 N2068 1.384 . S
C2066 H2057 0.929 . S
C2066 C2058 1.378 . S
C2066 C2061 1.350 . S
C2067 H2054 0.929 . S
C2067 C2059 1.433 . S
C2067 N2069 1.384 . S
N2068 C2064 1.427 . S
N2068 C2065 1.384 . S
N2069 C2061 1.427 . S
N2069 C2067 1.384 . S
H2070 C2076 0.930 . S
H2071 C2080 0.930 . S
H2072 C2085 0.929 . S
H2073 C2083 0.929 . S
H2074 C2078 0.929 . S
H2075 C2084 0.929 . S
C2076 H2070 0.930 . S
C2076 C2077 1.367 . S
C2076 C2084 1.378 . S
C2077 C2076 1.367 . S
C2077 C2085 1.433 . S
C2078 H2074 0.929 . S
C2078 C2080 1.378 . S
C2078 C2082 1.350 . S
C2079 C2082 1.463 . S
C2079 C2084 1.350 . S
C2079 N2087 1.427 . S
C2080 H2071 0.930 . S
C2080 C2078 1.378 . S
C2080 C2081 1.367 . S
C2081 C2080 1.367 . S
C2081 C2083 1.433 . S
C2082 C2078 1.350 . S
C2082 C2079 1.463 . S
C2082 N2086 1.427 . S
C2083 H2073 0.929 . S
C2083 C2081 1.433 . S
C2083 N2086 1.384 . S
C2084 H2075 0.929 . S
C2084 C2076 1.378 . S
C2084 C2079 1.350 . S
C2085 H2072 0.929 . S
C2085 C2077 1.433 . S
C2085 N2087 1.384 . S
N2086 C2082 1.427 . S
N2086 C2083 1.384 . S
N2087 C2079 1.427 . S
N2087 C2085 1.384 . S
H2088 C2094 0.930 . S
H2089 C2098 0.930 . S
H2090 C2103 0.929 . S
H2091 C2101 0.929 . S
H2092 C2096 0.929 . S
H2093 C2102 0.929 . S
C2094 H2088 0.930 . S
C2094 C2095 1.367 . S
C2094 C2102 1.378 . S
C2095 C2094 1.367 . S
C2095 C2103 1.433 . S
C2096 H2092 0.929 . S
C2096 C2098 1.378 . S
C2096 C2100 1.350 . S
C2097 C2100 1.463 . S
C2097 C2102 1.350 . S
C2097 N2105 1.427 . S
C2098 H2089 0.930 . S
C2098 C2096 1.378 . S
C2098 C2099 1.367 . S
C2099 C2098 1.367 . S
C2099 C2101 1.433 . S
C2100 C2096 1.350 . S
C2100 C2097 1.463 . S
C2100 N2104 1.427 . S
C2101 H2091 0.929 . S
C2101 C2099 1.433 . S
C2101 N2104 1.384 . S
C2102 H2093 0.929 . S
C2102 C2094 1.378 . S
C2102 C2097 1.350 . S
C2103 H2090 0.929 . S
C2103 C2095 1.433 . S
C2103 N2105 1.384 . S
N2104 C2100 1.427 . S
N2104 C2101 1.384 . S
N2105 C2097 1.427 . S
N2105 C2103 1.384 . S
H2106 C2112 0.930 . S
H2107 C2116 0.930 . S
H2108 C2121 0.929 . S
H2109 C2119 0.929 . S
H2110 C2114 0.929 . S
H2111 C2120 0.929 . S
C2112 H2106 0.930 . S
C2112 C2113 1.367 . S
C2112 C2120 1.378 . S
C2113 C2112 1.367 . S
C2113 C2121 1.433 . S
C2114 H2110 0.929 . S
C2114 C2116 1.378 . S
C2114 C2118 1.350 . S
C2115 C2118 1.463 . S
C2115 C2120 1.350 . S
C2115 N2123 1.427 . S
C2116 H2107 0.930 . S
C2116 C2114 1.378 . S
C2116 C2117 1.367 . S
C2117 C2116 1.367 . S
C2117 C2119 1.433 . S
C2118 C2114 1.350 . S
C2118 C2115 1.463 . S
C2118 N2122 1.427 . S
C2119 H2109 0.929 . S
C2119 C2117 1.433 . S
C2119 N2122 1.384 . S
C2120 H2111 0.929 . S
C2120 C2112 1.378 . S
C2120 C2115 1.350 . S
C2121 H2108 0.929 . S
C2121 C2113 1.433 . S
C2121 N2123 1.384 . S
N2122 C2118 1.427 . S
N2122 C2119 1.384 . S
N2123 C2115 1.427 . S
N2123 C2121 1.384 . S
H2124 C2130 0.930 . S
H2125 C2134 0.930 . S
H2126 C2139 0.929 . S
H2127 C2137 0.929 . S
H2128 C2132 0.929 . S
H2129 C2138 0.929 . S
C2130 H2124 0.930 . S
C2130 C2131 1.367 . S
C2130 C2138 1.378 . S
C2131 C2130 1.367 . S
C2131 C2139 1.433 . S
C2132 H2128 0.929 . S
C2132 C2134 1.378 . S
C2132 C2136 1.350 . S
C2133 C2136 1.463 . S
C2133 C2138 1.350 . S
C2133 N2141 1.427 . S
C2134 H2125 0.930 . S
C2134 C2132 1.378 . S
C2134 C2135 1.367 . S
C2135 C2134 1.367 . S
C2135 C2137 1.433 . S
C2136 C2132 1.350 . S
C2136 C2133 1.463 . S
C2136 N2140 1.427 . S
C2137 H2127 0.929 . S
C2137 C2135 1.433 . S
C2137 N2140 1.384 . S
C2138 H2129 0.929 . S
C2138 C2130 1.378 . S
C2138 C2133 1.350 . S
C2139 H2126 0.929 . S
C2139 C2131 1.433 . S
C2139 N2141 1.384 . S
N2140 C2136 1.427 . S
N2140 C2137 1.384 . S
N2141 C2133 1.427 . S
N2141 C2139 1.384 . S
H2142 C2148 0.930 . S
H2143 C2152 0.930 . S
H2144 C2157 0.929 . S
H2145 C2155 0.929 . S
H2146 C2150 0.929 . S
H2147 C2156 0.929 . S
C2148 H2142 0.930 . S
C2148 C2149 1.367 . S
C2148 C2156 1.378 . S
C2149 C2148 1.367 . S
C2149 C2157 1.433 . S
C2150 H2146 0.929 . S
C2150 C2152 1.378 . S
C2150 C2154 1.350 . S
C2151 C2154 1.463 . S
C2151 C2156 1.350 . S
C2151 N2159 1.427 . S
C2152 H2143 0.930 . S
C2152 C2150 1.378 . S
C2152 C2153 1.367 . S
C2153 C2152 1.367 . S
C2153 C2155 1.433 . S
C2154 C2150 1.350 . S
C2154 C2151 1.463 . S
C2154 N2158 1.427 . S
C2155 H2145 0.929 . S
C2155 C2153 1.433 . S
C2155 N2158 1.384 . S
C2156 H2147 0.929 . S
C2156 C2148 1.378 . S
C2156 C2151 1.350 . S
C2157 H2144 0.929 . S
C2157 C2149 1.433 . S
C2157 N2159 1.384 . S
N2158 C2154 1.427 . S
N2158 C2155 1.384 . S
N2159 C2151 1.427 . S
N2159 C2157 1.384 . S
H2160 C2166 0.930 . S
H2161 C2170 0.930 . S
H2162 C2175 0.929 . S
H2163 C2173 0.929 . S
H2164 C2168 0.929 . S
H2165 C2174 0.929 . S
C2166 H2160 0.930 . S
C2166 C2167 1.367 . S
C2166 C2174 1.378 . S
C2167 C2166 1.367 . S
C2167 C2175 1.433 . S
C2168 H2164 0.929 . S
C2168 C2170 1.378 . S
C2168 C2172 1.350 . S
C2169 C2172 1.463 . S
C2169 C2174 1.350 . S
C2169 N2177 1.427 . S
C2170 H2161 0.930 . S
C2170 C2168 1.378 . S
C2170 C2171 1.367 . S
C2171 C2170 1.367 . S
C2171 C2173 1.433 . S
C2172 C2168 1.350 . S
C2172 C2169 1.463 . S
C2172 N2176 1.427 . S
C2173 H2163 0.929 . S
C2173 C2171 1.433 . S
C2173 N2176 1.384 . S
C2174 H2165 0.929 . S
C2174 C2166 1.378 . S
C2174 C2169 1.350 . S
C2175 H2162 0.929 . S
C2175 C2167 1.433 . S
C2175 N2177 1.384 . S
N2176 C2172 1.427 . S
N2176 C2173 1.384 . S
N2177 C2169 1.427 . S
N2177 C2175 1.384 . S
H2178 C2184 0.930 . S
H2179 C2188 0.930 . S
H2180 C2193 0.929 . S
H2181 C2191 0.929 . S
H2182 C2186 0.929 . S
H2183 C2192 0.929 . S
C2184 H2178 0.930 . S
C2184 C2185 1.367 . S
C2184 C2192 1.378 . S
C2185 C2184 1.367 . S
C2185 C2193 1.433 . S
C2186 H2182 0.929 . S
C2186 C2188 1.378 . S
C2186 C2190 1.350 . S
C2187 C2190 1.463 . S
C2187 C2192 1.350 . S
C2187 N2195 1.427 . S
C2188 H2179 0.930 . S
C2188 C2186 1.378 . S
C2188 C2189 1.367 . S
C2189 C2188 1.367 . S
C2189 C2191 1.433 . S
C2190 C2186 1.350 . S
C2190 C2187 1.463 . S
C2190 N2194 1.427 . S
C2191 H2181 0.929 . S
C2191 C2189 1.433 . S
C2191 N2194 1.384 . S
C2192 H2183 0.929 . S
C2192 C2184 1.378 . S
C2192 C2187 1.350 . S
C2193 H2180 0.929 . S
C2193 C2185 1.433 . S
C2193 N2195 1.384 . S
N2194 C2190 1.427 . S
N2194 C2191 1.384 . S
N2195 C2187 1.427 . S
N2195 C2193 1.384 . S
H2196 C2202 0.930 . S
H2197 C2206 0.930 . S
H2198 C2211 0.929 . S
H2199 C2209 0.929 . S
H2200 C2204 0.929 . S
H2201 C2210 0.929 . S
C2202 H2196 0.930 . S
C2202 C2203 1.367 . S
C2202 C2210 1.378 . S
C2203 C2202 1.367 . S
C2203 C2211 1.433 . S
C2204 H2200 0.929 . S
C2204 C2206 1.378 . S
C2204 C2208 1.350 . S
C2205 C2208 1.463 . S
C2205 C2210 1.350 . S
C2205 N2213 1.427 . S
C2206 H2197 0.930 . S
C2206 C2204 1.378 . S
C2206 C2207 1.367 . S
C2207 C2206 1.367 . S
C2207 C2209 1.433 . S
C2208 C2204 1.350 . S
C2208 C2205 1.463 . S
C2208 N2212 1.427 . S
C2209 H2199 0.929 . S
C2209 C2207 1.433 . S
C2209 N2212 1.384 . S
C2210 H2201 0.929 . S
C2210 C2202 1.378 . S
C2210 C2205 1.350 . S
C2211 H2198 0.929 . S
C2211 C2203 1.433 . S
C2211 N2213 1.384 . S
N2212 C2208 1.427 . S
N2212 C2209 1.384 . S
N2213 C2205 1.427 . S
N2213 C2211 1.384 . S
H2214 C2220 0.930 . S
H2215 C2224 0.930 . S
H2216 C2229 0.929 . S
H2217 C2227 0.929 . S
H2218 C2222 0.929 . S
H2219 C2228 0.929 . S
C2220 H2214 0.930 . S
C2220 C2221 1.367 . S
C2220 C2228 1.378 . S
C2221 C2220 1.367 . S
C2221 C2229 1.433 . S
C2222 H2218 0.929 . S
C2222 C2224 1.378 . S
C2222 C2226 1.350 . S
C2223 C2226 1.463 . S
C2223 C2228 1.350 . S
C2223 N2231 1.427 . S
C2224 H2215 0.930 . S
C2224 C2222 1.378 . S
C2224 C2225 1.367 . S
C2225 C2224 1.367 . S
C2225 C2227 1.433 . S
C2226 C2222 1.350 . S
C2226 C2223 1.463 . S
C2226 N2230 1.427 . S
C2227 H2217 0.929 . S
C2227 C2225 1.433 . S
C2227 N2230 1.384 . S
C2228 H2219 0.929 . S
C2228 C2220 1.378 . S
C2228 C2223 1.350 . S
C2229 H2216 0.929 . S
C2229 C2221 1.433 . S
C2229 N2231 1.384 . S
N2230 C2226 1.427 . S
N2230 C2227 1.384 . S
N2231 C2223 1.427 . S
N2231 C2229 1.384 . S
H2232 C2238 0.930 . S
H2233 C2242 0.930 . S
H2234 C2247 0.929 . S
H2235 C2245 0.929 . S
H2236 C2240 0.929 . S
H2237 C2246 0.929 . S
C2238 H2232 0.930 . S
C2238 C2239 1.367 . S
C2238 C2246 1.378 . S
C2239 C2238 1.367 . S
C2239 C2247 1.433 . S
C2240 H2236 0.929 . S
C2240 C2242 1.378 . S
C2240 C2244 1.350 . S
C2241 C2244 1.463 . S
C2241 C2246 1.350 . S
C2241 N2249 1.427 . S
C2242 H2233 0.930 . S
C2242 C2240 1.378 . S
C2242 C2243 1.367 . S
C2243 C2242 1.367 . S
C2243 C2245 1.433 . S
C2244 C2240 1.350 . S
C2244 C2241 1.463 . S
C2244 N2248 1.427 . S
C2245 H2235 0.929 . S
C2245 C2243 1.433 . S
C2245 N2248 1.384 . S
C2246 H2237 0.929 . S
C2246 C2238 1.378 . S
C2246 C2241 1.350 . S
C2247 H2234 0.929 . S
C2247 C2239 1.433 . S
C2247 N2249 1.384 . S
N2248 C2244 1.427 . S
N2248 C2245 1.384 . S
N2249 C2241 1.427 . S
N2249 C2247 1.384 . S
H2250 C2256 0.930 . S
H2251 C2260 0.930 . S
H2252 C2265 0.929 . S
H2253 C2263 0.929 . S
H2254 C2258 0.929 . S
H2255 C2264 0.929 . S
C2256 H2250 0.930 . S
C2256 C2257 1.367 . S
C2256 C2264 1.378 . S
C2257 C2256 1.367 . S
C2257 C2265 1.433 . S
C2258 H2254 0.929 . S
C2258 C2260 1.378 . S
C2258 C2262 1.350 . S
C2259 C2262 1.463 . S
C2259 C2264 1.350 . S
C2259 N2267 1.427 . S
C2260 H2251 0.930 . S
C2260 C2258 1.378 . S
C2260 C2261 1.367 . S
C2261 C2260 1.367 . S
C2261 C2263 1.433 . S
C2262 C2258 1.350 . S
C2262 C2259 1.463 . S
C2262 N2266 1.427 . S
C2263 H2253 0.929 . S
C2263 C2261 1.433 . S
C2263 N2266 1.384 . S
C2264 H2255 0.929 . S
C2264 C2256 1.378 . S
C2264 C2259 1.350 . S
C2265 H2252 0.929 . S
C2265 C2257 1.433 . S
C2265 N2267 1.384 . S
N2266 C2262 1.427 . S
N2266 C2263 1.384 . S
N2267 C2259 1.427 . S
N2267 C2265 1.384 . S
H2268 C2274 0.930 . S
H2269 C2278 0.930 . S
H2270 C2283 0.929 . S
H2271 C2281 0.929 . S
H2272 C2276 0.929 . S
H2273 C2282 0.929 . S
C2274 H2268 0.930 . S
C2274 C2275 1.367 . S
C2274 C2282 1.378 . S
C2275 C2274 1.367 . S
C2275 C2283 1.433 . S
C2276 H2272 0.929 . S
C2276 C2278 1.378 . S
C2276 C2280 1.350 . S
C2277 C2280 1.463 . S
C2277 C2282 1.350 . S
C2277 N2285 1.427 . S
C2278 H2269 0.930 . S
C2278 C2276 1.378 . S
C2278 C2279 1.367 . S
C2279 C2278 1.367 . S
C2279 C2281 1.433 . S
C2280 C2276 1.350 . S
C2280 C2277 1.463 . S
C2280 N2284 1.427 . S
C2281 H2271 0.929 . S
C2281 C2279 1.433 . S
C2281 N2284 1.384 . S
C2282 H2273 0.929 . S
C2282 C2274 1.378 . S
C2282 C2277 1.350 . S
C2283 H2270 0.929 . S
C2283 C2275 1.433 . S
C2283 N2285 1.384 . S
N2284 C2280 1.427 . S
N2284 C2281 1.384 . S
N2285 C2277 1.427 . S
N2285 C2283 1.384 . S
H2286 C2292 0.930 . S
H2287 C2296 0.930 . S
H2288 C2301 0.929 . S
H2289 C2299 0.929 . S
H2290 C2294 0.929 . S
H2291 C2300 0.929 . S
C2292 H2286 0.930 . S
C2292 C2293 1.367 . S
C2292 C2300 1.378 . S
C2293 C2292 1.367 . S
C2293 C2301 1.433 . S
C2294 H2290 0.929 . S
C2294 C2296 1.378 . S
C2294 C2298 1.350 . S
C2295 C2298 1.463 . S
C2295 C2300 1.350 . S
C2295 N2303 1.427 . S
C2296 H2287 0.930 . S
C2296 C2294 1.378 . S
C2296 C2297 1.367 . S
C2297 C2296 1.367 . S
C2297 C2299 1.433 . S
C2298 C2294 1.350 . S
C2298 C2295 1.463 . S
C2298 N2302 1.427 . S
C2299 H2289 0.929 . S
C2299 C2297 1.433 . S
C2299 N2302 1.384 . S
C2300 H2291 0.929 . S
C2300 C2292 1.378 . S
C2300 C2295 1.350 . S
C2301 H2288 0.929 . S
C2301 C2293 1.433 . S
C2301 N2303 1.384 . S
N2302 C2298 1.427 . S
N2302 C2299 1.384 . S
N2303 C2295 1.427 . S
N2303 C2301 1.384 . S
C1159 C544 1.345 . S
C1163 C4 1.345 . S
C1177 C38 1.505 . S
C1181 C436 1.505 . S
C1195 C76 1.349 . S
C1199 C472 1.340 . S
C1213 C508 1.511 . S
C1217 C110 1.499 . S
C1231 C148 1.349 . S
C1235 C328 1.340 . S
C1249 C182 1.501 . S
C1253 C364 1.509 . S
C1267 C400 1.337 . S
C1271 C220 1.352 . S
C1285 C292 1.509 . S
C1289 C254 1.502 . S
C1303 C580 1.349 . S
C1307 C1120 1.340 . S
C1321 C614 1.499 . S
C1325 C1012 1.511 . S
C1339 C652 1.343 . S
C1343 C1048 1.347 . S
C1357 C1084 1.503 . S
C1361 C686 1.508 . S
C1375 C724 1.352 . S
C1379 C904 1.337 . S
C1393 C758 1.508 . S
C1397 C940 1.503 . S
C1411 C976 1.344 . S
C1415 C796 1.347 . S
C1429 C830 1.505 . S
C1433 C868 1.506 . S
C1447 C435 1.340 . S
C1451 C3 1.338 . S
C1465 C50 1.237 . S
C1469 C471 1.303 . S
C1483 C507 1.340 . S
C1487 C75 1.339 . S
C1501 C122 1.237 . S
C1505 C543 1.303 . S
C1519 C147 1.338 . S
C1523 C291 1.340 . S
C1537 C327 1.299 . S
C1541 C194 1.256 . S
C1555 C363 1.338 . S
C1559 C219 1.339 . S
C1573 C399 1.303 . S
C1577 C266 1.237 . S
C1591 C579 1.340 . S
C1595 C1011 1.337 . S
C1609 C1047 1.299 . S
C1613 C626 1.254 . S
C1627 C651 1.339 . S
C1631 C1083 1.339 . S
C1645 C698 1.240 . S
C1649 C1119 1.303 . S
C1663 C867 1.340 . S
C1667 C723 1.338 . S
C1681 C770 1.249 . S
C1685 C903 1.300 . S
C1699 C795 1.338 . S
C1703 C939 1.340 . S
C1717 C842 1.248 . S
C1721 C975 1.300 . S
C1735 C2 1.320 . S
C1739 C362 1.311 . S
C1753 C398 1.303 . S
C1757 C40 1.294 . S
C1771 C74 1.322 . S
C1775 C290 1.309 . S
C1789 C326 1.297 . S
C1793 C112 1.302 . S
C1807 C506 1.320 . S
C1811 C146 1.311 . S
C1825 C542 1.299 . S
C1829 C184 1.298 . S
C1843 C434 1.306 . S
C1847 C218 1.324 . S
C1861 C256 1.296 . S
C1865 C470 1.303 . S
C1879 C938 1.306 . S
C1883 C578 1.324 . S
C1897 C616 1.302 . S
C1901 C974 1.296 . S
C1915 C866 1.306 . S
C1919 C650 1.324 . S
C1933 C902 1.307 . S
C1937 C688 1.291 . S
C1951 C722 1.321 . S
C1955 C1082 1.309 . S
C1969 C760 1.294 . S
C1973 C1118 1.305 . S
C1987 C1010 1.320 . S
C1991 C794 1.311 . S
C2005 C1046 1.302 . S
C2009 C832 1.297 . S
C2023 C831 1.172 . S
C2027 C14 1.131 . S
C2041 C734 1.132 . S
C2045 C39 1.172 . S
C2059 C759 1.171 . S
C2063 C86 1.143 . S
C2077 C806 1.131 . S
C2081 C111 1.176 . S
C2095 C615 1.175 . S
C2099 C158 1.133 . S
C2113 C183 1.177 . S
C2117 C662 1.128 . S
C2131 C230 1.143 . S
C2135 C687 1.171 . S
C2149 C255 1.175 . S
C2153 C590 1.125 . S
C2167 C302 1.185 . S
C2171 C1130 1.156 . S
C2185 C1022 1.170 . S
C2189 C338 1.178 . S
C2203 C374 1.184 . S
C2207 C1058 1.156 . S
C2221 C410 1.167 . S
C2225 C1094 1.184 . S
C2239 C914 1.163 . S
C2243 C446 1.186 . S
C2257 C950 1.180 . S
C2261 C482 1.158 . S
C2275 C518 1.182 . S
C2279 C986 1.171 . S
C2293 C554 1.163 . S
C2297 C878 1.186 . S
