# Generated by pormake.
# Topology ukv, (4)-cn, num edge types: 1
# Building blocks:
#     Node 0, Type 0, BuildingBlock: NAHDIM_clean_sbu_0, # of connection points: 4
#     Node 1, Type 0, BuildingBlock: NAHDIM_clean_sbu_0, # of connection points: 4
#     Node 2, Type 0, BuildingBlock: NAHDIM_clean_sbu_0, # of connection points: 4
#     Node 3, Type 0, BuildingBlock: NAHDIM_clean_sbu_0, # of connection points: 4
#     Node 4, Type 0, BuildingBlock: NAHDIM_clean_sbu_0, # of connection points: 4
#     Node 5, Type 0, BuildingBlock: NAHDIM_clean_sbu_0, # of connection points: 4
#     Node 6, Type 0, BuildingBlock: NAHDIM_clean_sbu_0, # of connection points: 4
#     Node 7, Type 0, BuildingBlock: NAHDIM_clean_sbu_0, # of connection points: 4
#     Node 8, Type 0, BuildingBlock: NAHDIM_clean_sbu_0, # of connection points: 4
#     Node 9, Type 0, BuildingBlock: NAHDIM_clean_sbu_0, # of connection points: 4
#     Node 10, Type 0, BuildingBlock: NAHDIM_clean_sbu_0, # of connection points: 4
#     Node 11, Type 0, BuildingBlock: NAHDIM_clean_sbu_0, # of connection points: 4
#     Node 12, Type 0, BuildingBlock: NAHDIM_clean_sbu_0, # of connection points: 4
#     Node 13, Type 0, BuildingBlock: NAHDIM_clean_sbu_0, # of connection points: 4
#     Node 14, Type 0, BuildingBlock: NAHDIM_clean_sbu_0, # of connection points: 4
#     Node 15, Type 0, BuildingBlock: NAHDIM_clean_sbu_0, # of connection points: 4
#     Node 16, Type 0, BuildingBlock: NAHDIM_clean_sbu_0, # of connection points: 4
#     Node 17, Type 0, BuildingBlock: NAHDIM_clean_sbu_0, # of connection points: 4
#     Node 18, Type 0, BuildingBlock: NAHDIM_clean_sbu_0, # of connection points: 4
#     Node 19, Type 0, BuildingBlock: NAHDIM_clean_sbu_0, # of connection points: 4
#     Node 20, Type 0, BuildingBlock: NAHDIM_clean_sbu_0, # of connection points: 4
#     Node 21, Type 0, BuildingBlock: NAHDIM_clean_sbu_0, # of connection points: 4
#     Node 22, Type 0, BuildingBlock: NAHDIM_clean_sbu_0, # of connection points: 4
#     Node 23, Type 0, BuildingBlock: NAHDIM_clean_sbu_0, # of connection points: 4
#     Node 24, Type 0, BuildingBlock: NAHDIM_clean_sbu_0, # of connection points: 4
#     Node 25, Type 0, BuildingBlock: NAHDIM_clean_sbu_0, # of connection points: 4
#     Node 26, Type 0, BuildingBlock: NAHDIM_clean_sbu_0, # of connection points: 4
#     Node 27, Type 0, BuildingBlock: NAHDIM_clean_sbu_0, # of connection points: 4
#     Node 28, Type 0, BuildingBlock: NAHDIM_clean_sbu_0, # of connection points: 4
#     Node 29, Type 0, BuildingBlock: NAHDIM_clean_sbu_0, # of connection points: 4
#     Node 30, Type 0, BuildingBlock: NAHDIM_clean_sbu_0, # of connection points: 4
#     Node 31, Type 0, BuildingBlock: NAHDIM_clean_sbu_0, # of connection points: 4
#     Node 32, Type 0, BuildingBlock: NAHDIM_clean_sbu_0, # of connection points: 4
#     Node 33, Type 0, BuildingBlock: NAHDIM_clean_sbu_0, # of connection points: 4
#     Node 34, Type 0, BuildingBlock: NAHDIM_clean_sbu_0, # of connection points: 4
#     Node 35, Type 0, BuildingBlock: NAHDIM_clean_sbu_0, # of connection points: 4
#     Edge 36, Type (0, 0), BuildingBlock: XUDNAN_clean_linker_2, # of connection points: 2
#     Edge 37, Type (0, 0), BuildingBlock: XUDNAN_clean_linker_2, # of connection points: 2
#     Edge 38, Type (0, 0), BuildingBlock: XUDNAN_clean_linker_2, # of connection points: 2
#     Edge 39, Type (0, 0), BuildingBlock: XUDNAN_clean_linker_2, # of connection points: 2
#     Edge 40, Type (0, 0), BuildingBlock: XUDNAN_clean_linker_2, # of connection points: 2
#     Edge 41, Type (0, 0), BuildingBlock: XUDNAN_clean_linker_2, # of connection points: 2
#     Edge 42, Type (0, 0), BuildingBlock: XUDNAN_clean_linker_2, # of connection points: 2
#     Edge 43, Type (0, 0), BuildingBlock: XUDNAN_clean_linker_2, # of connection points: 2
#     Edge 44, Type (0, 0), BuildingBlock: XUDNAN_clean_linker_2, # of connection points: 2
#     Edge 45, Type (0, 0), BuildingBlock: XUDNAN_clean_linker_2, # of connection points: 2
#     Edge 46, Type (0, 0), BuildingBlock: XUDNAN_clean_linker_2, # of connection points: 2
#     Edge 47, Type (0, 0), BuildingBlock: XUDNAN_clean_linker_2, # of connection points: 2
#     Edge 48, Type (0, 0), BuildingBlock: XUDNAN_clean_linker_2, # of connection points: 2
#     Edge 49, Type (0, 0), BuildingBlock: XUDNAN_clean_linker_2, # of connection points: 2
#     Edge 50, Type (0, 0), BuildingBlock: XUDNAN_clean_linker_2, # of connection points: 2
#     Edge 51, Type (0, 0), BuildingBlock: XUDNAN_clean_linker_2, # of connection points: 2
#     Edge 52, Type (0, 0), BuildingBlock: XUDNAN_clean_linker_2, # of connection points: 2
#     Edge 53, Type (0, 0), BuildingBlock: XUDNAN_clean_linker_2, # of connection points: 2
#     Edge 54, Type (0, 0), BuildingBlock: XUDNAN_clean_linker_2, # of connection points: 2
#     Edge 55, Type (0, 0), BuildingBlock: XUDNAN_clean_linker_2, # of connection points: 2
#     Edge 56, Type (0, 0), BuildingBlock: XUDNAN_clean_linker_2, # of connection points: 2
#     Edge 57, Type (0, 0), BuildingBlock: XUDNAN_clean_linker_2, # of connection points: 2
#     Edge 58, Type (0, 0), BuildingBlock: XUDNAN_clean_linker_2, # of connection points: 2
#     Edge 59, Type (0, 0), BuildingBlock: XUDNAN_clean_linker_2, # of connection points: 2
#     Edge 60, Type (0, 0), BuildingBlock: XUDNAN_clean_linker_2, # of connection points: 2
#     Edge 61, Type (0, 0), BuildingBlock: XUDNAN_clean_linker_2, # of connection points: 2
#     Edge 62, Type (0, 0), BuildingBlock: XUDNAN_clean_linker_2, # of connection points: 2
#     Edge 63, Type (0, 0), BuildingBlock: XUDNAN_clean_linker_2, # of connection points: 2
#     Edge 64, Type (0, 0), BuildingBlock: XUDNAN_clean_linker_2, # of connection points: 2
#     Edge 65, Type (0, 0), BuildingBlock: XUDNAN_clean_linker_2, # of connection points: 2
#     Edge 66, Type (0, 0), BuildingBlock: XUDNAN_clean_linker_2, # of connection points: 2
#     Edge 67, Type (0, 0), BuildingBlock: XUDNAN_clean_linker_2, # of connection points: 2
#     Edge 68, Type (0, 0), BuildingBlock: XUDNAN_clean_linker_2, # of connection points: 2
#     Edge 69, Type (0, 0), BuildingBlock: XUDNAN_clean_linker_2, # of connection points: 2
#     Edge 70, Type (0, 0), BuildingBlock: XUDNAN_clean_linker_2, # of connection points: 2
#     Edge 71, Type (0, 0), BuildingBlock: XUDNAN_clean_linker_2, # of connection points: 2
#     Edge 72, Type (0, 0), BuildingBlock: XUDNAN_clean_linker_2, # of connection points: 2
#     Edge 73, Type (0, 0), BuildingBlock: XUDNAN_clean_linker_2, # of connection points: 2
#     Edge 74, Type (0, 0), BuildingBlock: XUDNAN_clean_linker_2, # of connection points: 2
#     Edge 75, Type (0, 0), BuildingBlock: XUDNAN_clean_linker_2, # of connection points: 2
#     Edge 76, Type (0, 0), BuildingBlock: XUDNAN_clean_linker_2, # of connection points: 2
#     Edge 77, Type (0, 0), BuildingBlock: XUDNAN_clean_linker_2, # of connection points: 2
#     Edge 78, Type (0, 0), BuildingBlock: XUDNAN_clean_linker_2, # of connection points: 2
#     Edge 79, Type (0, 0), BuildingBlock: XUDNAN_clean_linker_2, # of connection points: 2
#     Edge 80, Type (0, 0), BuildingBlock: XUDNAN_clean_linker_2, # of connection points: 2
#     Edge 81, Type (0, 0), BuildingBlock: XUDNAN_clean_linker_2, # of connection points: 2
#     Edge 82, Type (0, 0), BuildingBlock: XUDNAN_clean_linker_2, # of connection points: 2
#     Edge 83, Type (0, 0), BuildingBlock: XUDNAN_clean_linker_2, # of connection points: 2
#     Edge 84, Type (0, 0), BuildingBlock: XUDNAN_clean_linker_2, # of connection points: 2
#     Edge 85, Type (0, 0), BuildingBlock: XUDNAN_clean_linker_2, # of connection points: 2
#     Edge 86, Type (0, 0), BuildingBlock: XUDNAN_clean_linker_2, # of connection points: 2
#     Edge 87, Type (0, 0), BuildingBlock: XUDNAN_clean_linker_2, # of connection points: 2
#     Edge 88, Type (0, 0), BuildingBlock: XUDNAN_clean_linker_2, # of connection points: 2
#     Edge 89, Type (0, 0), BuildingBlock: XUDNAN_clean_linker_2, # of connection points: 2
#     Edge 90, Type (0, 0), BuildingBlock: XUDNAN_clean_linker_2, # of connection points: 2
#     Edge 91, Type (0, 0), BuildingBlock: XUDNAN_clean_linker_2, # of connection points: 2
#     Edge 92, Type (0, 0), BuildingBlock: XUDNAN_clean_linker_2, # of connection points: 2
#     Edge 93, Type (0, 0), BuildingBlock: XUDNAN_clean_linker_2, # of connection points: 2
#     Edge 94, Type (0, 0), BuildingBlock: XUDNAN_clean_linker_2, # of connection points: 2
#     Edge 95, Type (0, 0), BuildingBlock: XUDNAN_clean_linker_2, # of connection points: 2
#     Edge 96, Type (0, 0), BuildingBlock: XUDNAN_clean_linker_2, # of connection points: 2
#     Edge 97, Type (0, 0), BuildingBlock: XUDNAN_clean_linker_2, # of connection points: 2
#     Edge 98, Type (0, 0), BuildingBlock: XUDNAN_clean_linker_2, # of connection points: 2
#     Edge 99, Type (0, 0), BuildingBlock: XUDNAN_clean_linker_2, # of connection points: 2
#     Edge 100, Type (0, 0), BuildingBlock: XUDNAN_clean_linker_2, # of connection points: 2
#     Edge 101, Type (0, 0), BuildingBlock: XUDNAN_clean_linker_2, # of connection points: 2
#     Edge 102, Type (0, 0), BuildingBlock: XUDNAN_clean_linker_2, # of connection points: 2
#     Edge 103, Type (0, 0), BuildingBlock: XUDNAN_clean_linker_2, # of connection points: 2
#     Edge 104, Type (0, 0), BuildingBlock: XUDNAN_clean_linker_2, # of connection points: 2
#     Edge 105, Type (0, 0), BuildingBlock: XUDNAN_clean_linker_2, # of connection points: 2
#     Edge 106, Type (0, 0), BuildingBlock: XUDNAN_clean_linker_2, # of connection points: 2
#     Edge 107, Type (0, 0), BuildingBlock: XUDNAN_clean_linker_2, # of connection points: 2
# Relax obj value: 0.250
# Max RMSD: 0.179
# Mean RMSD: 0.179
data_MOF--net-ukv--node1-NAHDIM_clean_sbu_0--edge1-XUDNAN_clean_linker_2
_symmetry_space_group_name_H-M    P1
_symmetry_Int_Tables_number       1
_symmetry_cell_setting            triclinic
loop_
_symmetry_equiv_pos_as_xyz
'x, y, z'
_cell_length_a     96.185993
_cell_length_b     96.168983
_cell_length_c     20.250653
_cell_angle_alpha  89.988345
_cell_angle_beta   90.00998
_cell_angle_gamma 120.01876
loop_
_atom_site_label
_atom_site_type_symbol
_atom_site_fract_x
_atom_site_fract_y
_atom_site_fract_z
_atom_type_partial_charge
C0 C 0.24732 0.05896 0.1399 0.0
O1 O 0.26296 0.06763 0.1473 0.0
O2 O 0.27445 0.08225 0.00692 0.0
Zn3 Zn 0.25375 0.08121 0.0339 0.0
O4 O 0.25862 0.10151 0.08145 0.0
C5 C 0.24513 0.0796 0.89485 0.0
O6 O 0.25722 0.07716 0.8846 0.0
O7 O 0.24064 0.06233 0.09332 0.0
C8 C 0.24739 0.10213 0.11187 0.0
O9 O 0.23311 0.08922 0.11466 0.0
C10 C 0.28601 0.09551 0.98646 0.0
O11 O 0.28419 0.10816 0.98429 0.0
O12 O 0.24115 0.08061 0.95373 0.0
C13 C 0.95636 0.20528 0.05977 0.0
O14 O 0.95183 0.21257 0.01732 0.0
O15 O 0.92087 0.19026 0.96467 0.0
Zn16 Zn 0.92913 0.17678 0.0063 0.0
O17 O 0.91181 0.15961 0.06223 0.0
C18 C 0.93476 0.17056 0.87364 0.0
O19 O 0.93747 0.18523 0.86421 0.0
O20 O 0.94876 0.19003 0.06219 0.0
C21 C 0.89858 0.14971 0.03508 0.0
O22 O 0.8964 0.15148 0.97226 0.0
C23 C 0.91381 0.19671 0.9936 0.0
O24 O 0.91158 0.19505 0.05777 0.0
O25 O 0.93288 0.16518 0.93225 0.0
C26 C 0.80787 0.74969 0.09874 0.0
O27 O 0.79949 0.74346 0.04463 0.0
O28 O 0.81572 0.72393 0.98663 0.0
Zn29 Zn 0.83171 0.74377 0.03557 0.0
O30 O 0.84858 0.74035 0.07876 0.0
C31 C 0.83729 0.76124 0.91305 0.0
O32 O 0.82179 0.75168 0.90442 0.0
O33 O 0.82159 0.75091 0.10445 0.0
C34 C 0.86005 0.75279 0.10525 0.0
O35 O 0.8596 0.76623 0.10475 0.0
C36 C 0.8067 0.71001 0.01024 0.0
O37 O 0.80702 0.70759 0.07394 0.0
O38 O 0.84358 0.76079 0.96758 0.0
C39 C 0.04218 0.249 0.39181 0.0
O40 O 0.05439 0.26371 0.39571 0.0
O41 O 0.07377 0.26558 0.51128 0.0
Zn42 Zn 0.06373 0.24369 0.46864 0.0
O43 O 0.07826 0.2422 0.40159 0.0
C44 C 0.06169 0.23226 0.60046 0.0
O45 O 0.05872 0.24388 0.61391 0.0
O46 O 0.04287 0.23785 0.42274 0.0
C47 C 0.09306 0.24719 0.41171 0.0
O48 O 0.09983 0.25493 0.46654 0.0
C49 C 0.08417 0.27914 0.48829 0.0
O50 O 0.08931 0.2802 0.42738 0.0
O51 O 0.06186 0.22847 0.54047 0.0
C52 C 0.75333 0.78976 0.38506 0.0
O53 O 0.7406 0.78814 0.35401 0.0
O54 O 0.7228 0.79209 0.4943 0.0
Zn55 Zn 0.7451 0.8085 0.46419 0.0
O56 O 0.74518 0.82173 0.38684 0.0
C57 C 0.74964 0.82188 0.59562 0.0
O58 O 0.73823 0.80736 0.61163 0.0
O59 O 0.75779 0.79797 0.43794 0.0
C60 C 0.74311 0.83364 0.39641 0.0
O61 O 0.73936 0.83618 0.45584 0.0
C62 C 0.71014 0.79239 0.47901 0.0
O63 O 0.71102 0.80299 0.4358 0.0
O64 O 0.75548 0.82445 0.53767 0.0
C65 C 0.20132 0.97061 0.46045 0.0
O66 O 0.21279 0.96907 0.4886 0.0
O67 O 0.19686 0.93255 0.52441 0.0
Zn68 Zn 0.17931 0.93787 0.50876 0.0
O69 O 0.16228 0.92119 0.45058 0.0
C70 C 0.16331 0.92099 0.61776 0.0
O71 O 0.16804 0.91198 0.58749 0.0
O72 O 0.18684 0.95938 0.46593 0.0
C73 C 0.16308 0.92026 0.38836 0.0
O74 O 0.17626 0.93053 0.35727 0.0
C75 C 0.2072 0.93319 0.4837 0.0
O76 O 0.20775 0.93862 0.42367 0.0
O77 O 0.16764 0.93485 0.59447 0.0
C78 C 0.75416 0.95224 0.88117 0.0
O79 O 0.73907 0.94278 0.86446 0.0
O80 O 0.72515 0.92207 0.99786 0.0
Zn81 Zn 0.74618 0.92543 0.96191 0.0
O82 O 0.74353 0.9108 0.88637 0.0
C83 C 0.75169 0.91653 0.09181 0.0
O84 O 0.74083 0.92021 0.11019 0.0
O85 O 0.76012 0.9478 0.92699 0.0
C86 C 0.74065 0.89656 0.89639 0.0
O87 O 0.73726 0.8906 0.95644 0.0
C88 C 0.71153 0.90998 0.98468 0.0
O89 O 0.71054 0.89956 0.94034 0.0
O90 O 0.75688 0.9194 0.03281 0.0
C91 C 0.02996 0.79665 0.98634 0.0
O92 O 0.03246 0.78989 0.03789 0.0
O93 O 0.07152 0.80369 0.00751 0.0
Zn94 Zn 0.06453 0.8199 0.99178 0.0
O95 O 0.07798 0.83531 0.92061 0.0
C96 C 0.08552 0.84065 0.08112 0.0
O97 O 0.09411 0.83802 0.0377 0.0
O98 O 0.04152 0.80948 0.96278 0.0
C99 C 0.07769 0.84835 0.91618 0.0
O100 O 0.06778 0.85044 0.95398 0.0
C101 C 0.06633 0.79 0.98102 0.0
O102 O 0.055 0.78502 0.93602 0.0
O103 O 0.07032 0.83327 0.07464 0.0
C104 C 0.20197 0.24259 0.94213 0.0
O105 O 0.20692 0.25163 0.99525 0.0
O106 O 0.18764 0.27119 0.96687 0.0
Zn107 Zn 0.17446 0.24731 0.95186 0.0
O108 O 0.15697 0.24188 0.88572 0.0
C109 C 0.16702 0.24467 0.09104 0.0
O110 O 0.18037 0.25859 0.0942 0.0
O111 O 0.18837 0.23881 0.91768 0.0
C112 C 0.14571 0.24477 0.89824 0.0
O113 O 0.14631 0.25247 0.95271 0.0
C114 C 0.20051 0.2806 0.93632 0.0
O115 O 0.20537 0.27498 0.88791 0.0
O116 O 0.16309 0.23705 0.03663 0.0
C117 C 0.94282 0.75313 0.65997 0.0
O118 O 0.92773 0.74175 0.66499 0.0
O119 O 0.91807 0.73289 0.5165 0.0
Zn120 Zn 0.93055 0.75649 0.53835 0.0
O121 O 0.9149 0.76278 0.57282 0.0
C122 C 0.94106 0.76002 0.40591 0.0
O123 O 0.94388 0.74846 0.42267 0.0
O124 O 0.94751 0.76132 0.60701 0.0
C125 C 0.91856 0.77371 0.61574 0.0
O126 O 0.93323 0.7814 0.63958 0.0
C127 C 0.90711 0.72897 0.47337 0.0
O128 O 0.90414 0.74003 0.45078 0.0
O129 O 0.93876 0.76773 0.45156 0.0
C130 C 0.25715 0.20573 0.64267 0.0
O131 O 0.26939 0.20376 0.65634 0.0
O132 O 0.27875 0.19371 0.53822 0.0
Zn133 Zn 0.25467 0.18443 0.54186 0.0
O134 O 0.24451 0.1634 0.59007 0.0
C135 C 0.25633 0.18651 0.40128 0.0
O136 O 0.26976 0.19987 0.4141 0.0
O137 O 0.24881 0.19902 0.59139 0.0
C138 C 0.24602 0.15173 0.56959 0.0
O139 O 0.25458 0.15354 0.51636 0.0
C140 C 0.28643 0.18917 0.57501 0.0
O141 O 0.27873 0.17848 0.6214 0.0
O142 O 0.24673 0.17913 0.4485 0.0
C143 C 0.80409 0.0405 0.56017 0.0
O144 O 0.79321 0.04343 0.53517 0.0
O145 O 0.81382 0.08123 0.50389 0.0
Zn146 Zn 0.82885 0.07237 0.50905 0.0
O147 O 0.84781 0.08615 0.56621 0.0
C148 C 0.82935 0.07229 0.3669 0.0
O149 O 0.8139 0.06694 0.37335 0.0
O150 O 0.81888 0.05041 0.5505 0.0
C151 C 0.85839 0.10054 0.5532 0.0
O152 O 0.85665 0.1077 0.50117 0.0
C153 C 0.80454 0.0812 0.54857 0.0
O154 O 0.80416 0.07487 0.60649 0.0
O155 O 0.83768 0.0739 0.41805 0.0
C156 C 0.89778 0.38151 0.45718 0.0
O157 O 0.90966 0.39586 0.47227 0.0
O158 O 0.92536 0.4046 0.31595 0.0
Zn159 Zn 0.90293 0.39896 0.34191 0.0
O160 O 0.90446 0.41706 0.39669 0.0
C161 C 0.8966 0.39989 0.20316 0.0
O162 O 0.90778 0.396 0.19497 0.0
O163 O 0.89227 0.37894 0.39855 0.0
C164 C 0.89177 0.41753 0.4095 0.0
O165 O 0.87794 0.4061 0.38683 0.0
C166 C 0.93408 0.41832 0.28975 0.0
O167 O 0.92822 0.42799 0.2829 0.0
O168 O 0.8909 0.39901 0.26064 0.0
C169 C 0.62184 0.51834 0.36852 0.0
O170 O 0.61952 0.52942 0.34141 0.0
O171 O 0.58218 0.51159 0.31808 0.0
Zn172 Zn 0.5887 0.49477 0.32706 0.0
O173 O 0.57449 0.47756 0.39086 0.0
C174 C 0.58698 0.49204 0.18588 0.0
O175 O 0.59407 0.50777 0.18897 0.0
O176 O 0.61107 0.50365 0.36322 0.0
C177 C 0.5598 0.46746 0.38037 0.0
O178 O 0.55281 0.46869 0.32672 0.0
C179 C 0.58383 0.52212 0.35999 0.0
O180 O 0.59026 0.52263 0.41782 0.0
O181 O 0.58495 0.48411 0.23869 0.0
C182 C 0.48078 0.08337 0.45646 0.0
O183 O 0.48458 0.07251 0.47367 0.0
O184 O 0.47987 0.05662 0.32214 0.0
Zn185 Zn 0.49463 0.0802 0.3396 0.0
O186 O 0.51457 0.08309 0.38403 0.0
C187 C 0.49622 0.08584 0.19827 0.0
O188 O 0.48198 0.07285 0.19756 0.0
O189 O 0.48383 0.08891 0.39796 0.0
C190 C 0.52355 0.09565 0.41727 0.0
O191 O 0.5192 0.10646 0.42635 0.0
C192 C 0.46481 0.05053 0.3146 0.0
O193 O 0.45843 0.05978 0.32005 0.0
O194 O 0.50273 0.09188 0.25344 0.0
C195 C 0.70666 0.56708 0.70389 0.0
O196 O 0.71608 0.58241 0.6912 0.0
O197 O 0.73837 0.59601 0.81754 0.0
Zn198 Zn 0.73111 0.57269 0.80071 0.0
O199 O 0.74776 0.57118 0.74663 0.0
C200 C 0.73171 0.56944 0.94204 0.0
O201 O 0.73069 0.58256 0.94176 0.0
O202 O 0.71022 0.56067 0.751 0.0
C203 C 0.76179 0.57601 0.76901 0.0
O204 O 0.76566 0.58272 0.82767 0.0
C205 C 0.7471 0.60733 0.77808 0.0
O206 O 0.75075 0.60389 0.72013 0.0
O207 O 0.73066 0.56236 0.8877 0.0
C208 C 0.43508 0.13734 0.71448 0.0
O209 O 0.42985 0.14444 0.67426 0.0
O210 O 0.40226 0.14103 0.82301 0.0
Zn211 Zn 0.42621 0.15347 0.80862 0.0
O212 O 0.43187 0.17134 0.74411 0.0
C213 C 0.43011 0.16148 0.94828 0.0
O214 O 0.41648 0.14795 0.95534 0.0
O215 O 0.43469 0.13931 0.77639 0.0
C216 C 0.42766 0.18162 0.75734 0.0
O217 O 0.41875 0.17952 0.8097 0.0
C218 C 0.3945 0.12599 0.83357 0.0
O219 O 0.40214 0.11786 0.83227 0.0
O220 O 0.43684 0.16509 0.89205 0.0
C221 C 0.84755 0.28586 0.7414 0.0
O222 O 0.84253 0.27291 0.70501 0.0
O223 O 0.85548 0.25726 0.85585 0.0
Zn224 Zn 0.83807 0.26294 0.8482 0.0
O225 O 0.81924 0.24515 0.80062 0.0
C226 C 0.82622 0.2488 0.96769 0.0
O227 O 0.82864 0.23842 0.93478 0.0
O228 O 0.84653 0.28449 0.80397 0.0
C229 C 0.80811 0.24642 0.77259 0.0
O230 O 0.80915 0.26053 0.76808 0.0
C231 C 0.85987 0.25152 0.80913 0.0
O232 O 0.85366 0.2501 0.75005 0.0
O233 O 0.82995 0.26215 0.94046 0.0
C234 C 0.41868 0.2773 0.24083 0.0
O235 O 0.40651 0.26289 0.22885 0.0
O236 O 0.4007 0.24642 0.37104 0.0
Zn237 Zn 0.42354 0.25879 0.33487 0.0
O238 O 0.42735 0.24575 0.26675 0.0
C239 C 0.43641 0.26487 0.46784 0.0
O240 O 0.42492 0.26812 0.48007 0.0
O241 O 0.42792 0.27915 0.28901 0.0
C242 C 0.42746 0.23288 0.27988 0.0
O243 O 0.42431 0.22704 0.34001 0.0
C244 C 0.3974 0.23582 0.41538 0.0
O245 O 0.40869 0.23293 0.43531 0.0
O246 O 0.43903 0.26258 0.40847 0.0
C247 C 0.71846 0.1457 0.25062 0.0
O248 O 0.73337 0.14973 0.23717 0.0
O249 O 0.73897 0.13909 0.40333 0.0
Zn250 Zn 0.73345 0.15581 0.37353 0.0
O251 O 0.75235 0.17385 0.32654 0.0
C252 C 0.72841 0.15958 0.51127 0.0
O253 O 0.72505 0.14457 0.51539 0.0
O254 O 0.71472 0.14667 0.31003 0.0
C255 C 0.75413 0.18788 0.3264 0.0
O256 O 0.74381 0.19049 0.35864 0.0
C257 C 0.75061 0.13787 0.38036 0.0
O258 O 0.75909 0.1472 0.33128 0.0
O259 O 0.73029 0.16593 0.4546 0.0
C260 C 0.85518 0.58022 0.19098 0.0
O261 O 0.84848 0.58838 0.16939 0.0
O262 O 0.851 0.60765 0.30171 0.0
Zn263 Zn 0.84042 0.58356 0.30223 0.0
O264 O 0.81921 0.57458 0.25545 0.0
C265 C 0.8227 0.56462 0.41371 0.0
O266 O 0.81286 0.55541 0.36728 0.0
O267 O 0.85386 0.57651 0.25186 0.0
C268 C 0.81017 0.58058 0.26263 0.0
O269 O 0.8148 0.59313 0.30119 0.0
C270 C 0.86128 0.61589 0.34569 0.0
O271 O 0.86551 0.60852 0.38905 0.0
O272 O 0.83617 0.57649 0.3972 0.0
C273 C 0.62651 0.10704 0.94807 0.0
O274 O 0.61312 0.09762 0.97986 0.0
O275 O 0.60159 0.07625 0.80222 0.0
Zn276 Zn 0.60538 0.09764 0.83474 0.0
O277 O 0.58611 0.0943 0.88611 0.0
C278 C 0.60936 0.10664 0.69819 0.0
O279 O 0.61645 0.09799 0.69619 0.0
O280 O 0.62602 0.10905 0.88623 0.0
C281 C 0.5856 0.10523 0.9194 0.0
O282 O 0.59865 0.11929 0.92629 0.0
C283 C 0.59123 0.06278 0.82608 0.0
O284 O 0.5831 0.0624 0.87883 0.0
O285 O 0.60543 0.1097 0.75391 0.0
C286 C 0.9086 0.5319 0.94593 0.0
O287 O 0.91577 0.52701 0.98737 0.0
O288 O 0.94325 0.53436 0.83211 0.0
Zn289 Zn 0.92031 0.51779 0.85334 0.0
O290 O 0.9174 0.50137 0.92221 0.0
C291 C 0.91883 0.5033 0.72894 0.0
O292 O 0.93437 0.51042 0.73954 0.0
O293 O 0.90886 0.52927 0.88453 0.0
C294 C 0.9209 0.49037 0.91398 0.0
O295 O 0.92856 0.49033 0.86036 0.0
C296 C 0.95617 0.53513 0.85155 0.0
O297 O 0.95552 0.52457 0.89446 0.0
O298 O 0.91 0.50521 0.77039 0.0
C299 C 0.46929 0.37011 0.94289 0.0
O300 O 0.48281 0.38136 0.96864 0.0
O301 O 0.46305 0.40052 0.8008 0.0
Zn302 Zn 0.4778 0.39317 0.83661 0.0
O303 O 0.49463 0.41036 0.89449 0.0
C304 C 0.48597 0.39189 0.70061 0.0
O305 O 0.47181 0.39034 0.68942 0.0
O306 O 0.465 0.37237 0.88638 0.0
C307 C 0.50456 0.42355 0.86708 0.0
O308 O 0.50272 0.42566 0.80426 0.0
C309 C 0.45935 0.4099 0.82995 0.0
O310 O 0.46487 0.41503 0.88968 0.0
O311 O 0.49014 0.39145 0.7598 0.0
C312 C 0.56501 0.70944 0.7481 0.0
O313 O 0.57274 0.70739 0.69905 0.0
O314 O 0.59667 0.74878 0.66969 0.0
Zn315 Zn 0.57332 0.74094 0.68838 0.0
O316 O 0.57056 0.75787 0.73414 0.0
C317 C 0.56871 0.73969 0.54749 0.0
O318 O 0.58298 0.74103 0.54664 0.0
O319 O 0.5637 0.72194 0.74969 0.0
C320 C 0.58018 0.77293 0.7346 0.0
O321 O 0.59416 0.77888 0.70497 0.0
C322 C 0.60609 0.74612 0.70452 0.0
O323 O 0.60088 0.7381 0.76007 0.0
O324 O 0.5615 0.73749 0.60244 0.0
C325 C 0.28189 0.8517 0.75893 0.0
O326 O 0.26785 0.84867 0.78154 0.0
O327 O 0.26192 0.8651 0.62419 0.0
Zn328 Zn 0.26379 0.84551 0.64355 0.0
O329 O 0.24489 0.8286 0.69517 0.0
C330 C 0.24938 0.83157 0.52723 0.0
O331 O 0.24017 0.8365 0.55415 0.0
O332 O 0.28384 0.85153 0.69684 0.0
C333 C 0.2437 0.81481 0.6967 0.0
O334 O 0.25437 0.81265 0.66485 0.0
C335 C 0.2515 0.8679 0.64957 0.0
O336 O 0.24174 0.85813 0.69495 0.0
O337 O 0.2624 0.83484 0.55629 0.0
C338 C 0.13147 0.42382 0.73912 0.0
O339 O 0.12379 0.40807 0.74256 0.0
O340 O 0.14098 0.39598 0.65662 0.0
Zn341 Zn 0.15577 0.41956 0.67278 0.0
O342 O 0.17227 0.42285 0.7406 0.0
C343 C 0.16513 0.422 0.53572 0.0
O344 O 0.1515 0.40842 0.52971 0.0
O345 O 0.14464 0.43104 0.70749 0.0
C346 C 0.18219 0.41797 0.73153 0.0
O347 O 0.18091 0.40953 0.67851 0.0
C348 C 0.13697 0.38517 0.70032 0.0
O349 O 0.14188 0.38931 0.76145 0.0
O350 O 0.1685 0.42947 0.59043 0.0
C351 C 0.37973 0.89388 0.02583 0.0
O352 O 0.39208 0.90451 0.9914 0.0
O353 O 0.40647 0.92851 0.14656 0.0
Zn354 Zn 0.40266 0.90613 0.13237 0.0
O355 O 0.42135 0.90771 0.08204 0.0
C356 C 0.40153 0.90267 0.27446 0.0
O357 O 0.39542 0.9122 0.27256 0.0
O358 O 0.38151 0.89229 0.08707 0.0
C359 C 0.4213 0.89656 0.04828 0.0
O360 O 0.4078 0.883 0.03926 0.0
C361 C 0.42008 0.93874 0.16993 0.0
O362 O 0.43077 0.93431 0.181 0.0
O363 O 0.40393 0.89742 0.22064 0.0
C364 C 0.08572 0.46418 0.06925 0.0
O365 O 0.07007 0.45476 0.07172 0.0
O366 O 0.05593 0.46987 0.14643 0.0
Zn367 Zn 0.07971 0.48603 0.14733 0.0
O368 O 0.08546 0.50638 0.0985 0.0
C369 C 0.07693 0.4899 0.28667 0.0
O370 O 0.06158 0.48084 0.2736 0.0
O371 O 0.09224 0.47731 0.10123 0.0
C372 C 0.08319 0.51761 0.11863 0.0
O373 O 0.07517 0.51584 0.17345 0.0
C374 C 0.04492 0.47285 0.13033 0.0
O375 O 0.04884 0.48717 0.10799 0.0
O376 O 0.08711 0.49281 0.24101 0.0
C377 C 0.53593 0.62608 0.08635 0.0
O378 O 0.53661 0.61395 0.06 0.0
O379 O 0.53709 0.59635 0.20176 0.0
Zn380 Zn 0.52013 0.60239 0.18352 0.0
O381 O 0.50298 0.58772 0.11978 0.0
C382 C 0.50746 0.59032 0.31055 0.0
O383 O 0.51513 0.58248 0.2989 0.0
O384 O 0.52985 0.62442 0.14357 0.0
C385 C 0.49263 0.57308 0.13015 0.0
O386 O 0.49365 0.56589 0.18355 0.0
C387 C 0.53767 0.58453 0.17674 0.0
O388 O 0.5275 0.57607 0.12982 0.0
O389 O 0.50849 0.60067 0.26877 0.0
C390 C 0.10562 0.62901 0.60389 0.0
O391 O 0.09646 0.63095 0.6467 0.0
O392 O 0.0731 0.5908 0.68714 0.0
Zn393 Zn 0.09626 0.59772 0.66893 0.0
O394 O 0.09744 0.57985 0.62305 0.0
C395 C 0.10055 0.60006 0.80984 0.0
O396 O 0.08751 0.60122 0.80834 0.0
O397 O 0.10719 0.61669 0.60772 0.0
C398 C 0.08624 0.5653 0.62161 0.0
O399 O 0.07254 0.56114 0.65108 0.0
C400 C 0.06337 0.59276 0.65147 0.0
O401 O 0.06819 0.6002 0.59451 0.0
O402 O 0.10745 0.60043 0.75576 0.0
C403 C 0.37314 0.47454 0.62213 0.0
O404 O 0.37382 0.46304 0.65435 0.0
O405 O 0.40852 0.47802 0.70043 0.0
Zn406 Zn 0.40394 0.496 0.68565 0.0
O407 O 0.42189 0.51295 0.63201 0.0
C408 C 0.40889 0.50259 0.82495 0.0
O409 O 0.40905 0.48901 0.82573 0.0
O410 O 0.3839 0.48905 0.63206 0.0
C411 C 0.42195 0.52605 0.62249 0.0
O412 O 0.41027 0.52776 0.64732 0.0
C413 C 0.41016 0.47006 0.65413 0.0
O414 O 0.40816 0.47307 0.59265 0.0
O415 O 0.405 0.50689 0.77195 0.0
C416 C 0.54036 0.92039 0.57837 0.0
O417 O 0.549 0.93194 0.62039 0.0
O418 O 0.52918 0.94556 0.66314 0.0
Zn419 Zn 0.51419 0.92249 0.63812 0.0
O420 O 0.49537 0.92152 0.59143 0.0
C421 C 0.51108 0.91477 0.77668 0.0
O422 O 0.52553 0.92744 0.77989 0.0
O423 O 0.52516 0.91399 0.57902 0.0
C424 C 0.48582 0.90944 0.55698 0.0
O425 O 0.48891 0.89773 0.5479 0.0
C426 C 0.53738 0.95633 0.62076 0.0
O427 O 0.53625 0.9524 0.55805 0.0
O428 O 0.5048 0.90955 0.72039 0.0
C429 C 0.29351 0.42719 0.26636 0.0
O430 O 0.28235 0.41278 0.28499 0.0
O431 O 0.26465 0.39815 0.1458 0.0
Zn432 Zn 0.26951 0.42039 0.17259 0.0
O433 O 0.25418 0.4203 0.23992 0.0
C434 C 0.2636 0.42486 0.03643 0.0
O435 O 0.26505 0.41214 0.02657 0.0
O436 O 0.2913 0.43315 0.21407 0.0
C437 C 0.24013 0.41746 0.22579 0.0
O438 O 0.23441 0.41265 0.16604 0.0
C439 C 0.25158 0.38535 0.15862 0.0
O440 O 0.24098 0.38603 0.19732 0.0
O441 O 0.26654 0.43125 0.0934 0.0
C442 C 0.57454 0.87441 0.22486 0.0
O443 O 0.58666 0.88091 0.18339 0.0
O444 O 0.59738 0.85606 0.17547 0.0
Zn445 Zn 0.57336 0.84488 0.18596 0.0
O446 O 0.56596 0.82486 0.23996 0.0
C447 C 0.57282 0.84465 0.04488 0.0
O448 O 0.58668 0.85787 0.05292 0.0
O449 O 0.56666 0.85923 0.23126 0.0
C450 C 0.57227 0.81611 0.23159 0.0
O451 O 0.58391 0.8205 0.18832 0.0
C452 C 0.60817 0.86576 0.21476 0.0
O453 O 0.60404 0.86905 0.27196 0.0
O454 O 0.56408 0.83788 0.09512 0.0
C455 C 0.13836 0.70881 0.24784 0.0
O456 O 0.13551 0.72022 0.26678 0.0
O457 O 0.1322 0.73344 0.13006 0.0
Zn458 Zn 0.15163 0.7311 0.14627 0.0
O459 O 0.16801 0.74861 0.20427 0.0
C460 C 0.16669 0.74781 0.03454 0.0
O461 O 0.16276 0.75716 0.06707 0.0
O462 O 0.14521 0.71023 0.1925 0.0
C463 C 0.18151 0.74923 0.20822 0.0
O464 O 0.18359 0.73854 0.17612 0.0
C465 C 0.13103 0.74526 0.15113 0.0
O466 O 0.14245 0.75603 0.18889 0.0
O467 O 0.16266 0.73406 0.05848 0.0
H468 H 0.23121 0.99488 0.4233 0.0
H469 H 0.18026 0.97714 0.39585 0.0
H470 H 0.18656 0.99837 0.31358 0.0
H471 H 0.24435 0.03768 0.40429 0.0
H472 H 0.26236 0.04188 0.36055 0.0
H473 H 0.25386 0.02596 0.42077 0.0
H474 H 0.2527 0.00589 0.33255 0.0
H475 H 0.26106 0.0217 0.27196 0.0
H476 H 0.24218 0.00371 0.25612 0.0
H477 H 0.19821 0.0202 0.2287 0.0
H478 H 0.21457 0.04211 0.15072 0.0
H479 H 0.25795 0.0459 0.23398 0.0
C480 C 0.22138 0.99562 0.40085 0.0
C481 C 0.20524 0.98435 0.41621 0.0
C482 C 0.19273 0.98564 0.38507 0.0
C483 C 0.19618 0.99766 0.33819 0.0
C484 C 0.21219 0.00835 0.32317 0.0
C485 C 0.2246 0.00755 0.35392 0.0
C486 C 0.24075 0.02019 0.32708 0.0
C487 C 0.25093 0.03214 0.38142 0.0
C488 C 0.24969 0.0124 0.29503 0.0
C489 C 0.23545 0.02806 0.27587 0.0
C490 C 0.21893 0.02105 0.27446 0.0
C491 C 0.21117 0.02589 0.22972 0.0
C492 C 0.22057 0.0383 0.18544 0.0
C493 C 0.23754 0.04575 0.18634 0.0
C494 C 0.24501 0.04053 0.23235 0.0
H495 H 0.96879 0.19397 0.15401 0.0
H496 H 0.97368 0.23797 0.07235 0.0
H497 H 0.99511 0.25377 0.1529 0.0
H498 H 0.97547 0.20672 0.32466 0.0
H499 H 0.98675 0.19685 0.34324 0.0
H500 H 0.97151 0.18887 0.2801 0.0
H501 H 0.99236 0.19031 0.19524 0.0
H502 H 0.00762 0.19817 0.25821 0.0
H503 H 0.01066 0.20912 0.1823 0.0
H504 H 0.01621 0.26482 0.24062 0.0
H505 H 0.03656 0.27051 0.32638 0.0
H506 H 0.01798 0.21935 0.35147 0.0
C507 C 0.97435 0.20693 0.15303 0.0
C508 C 0.96954 0.21473 0.10685 0.0
C509 C 0.97716 0.23172 0.10718 0.0
C510 C 0.9893 0.2408 0.15291 0.0
C511 C 0.99368 0.23273 0.198 0.0
C512 C 0.9865 0.21619 0.19829 0.0
C513 C 0.99374 0.21052 0.25088 0.0
C514 C 0.98111 0.20013 0.30279 0.0
C515 C 0.00156 0.2015 0.21978 0.0
C516 C 0.00622 0.22648 0.27969 0.0
C517 C 0.00589 0.23912 0.24872 0.0
C518 C 0.01655 0.25503 0.26543 0.0
C519 C 0.02806 0.25813 0.31427 0.0
C520 C 0.02885 0.24538 0.34578 0.0
C521 C 0.0176 0.22935 0.3288 0.0
H522 H 0.74781 0.77337 0.26859 0.0
H523 H 0.78078 0.7916 0.43453 0.0
H524 H 0.79776 0.78226 0.38128 0.0
H525 H 0.75133 0.73781 0.23781 0.0
H526 H 0.75024 0.73935 0.14946 0.0
H527 H 0.7402 0.74653 0.2028 0.0
H528 H 0.75553 0.77449 0.14692 0.0
H529 H 0.76568 0.76743 0.09368 0.0
H530 H 0.77716 0.78496 0.14431 0.0
H531 H 0.81188 0.77232 0.30701 0.0
H532 H 0.82194 0.76212 0.21822 0.0
H533 H 0.77968 0.75042 0.10082 0.0
C534 C 0.75849 0.77523 0.29425 0.0
C535 C 0.76295 0.78319 0.35584 0.0
C536 C 0.77709 0.78549 0.38742 0.0
C537 C 0.78681 0.78023 0.35757 0.0
C538 C 0.78218 0.77264 0.29634 0.0
C539 C 0.76831 0.77007 0.26519 0.0
C540 C 0.76631 0.76215 0.19854 0.0
C541 C 0.75112 0.74547 0.1971 0.0
C542 C 0.76617 0.7729 0.14258 0.0
C543 C 0.78137 0.76088 0.19654 0.0
C544 C 0.79031 0.76693 0.25355 0.0
C545 C 0.80492 0.76745 0.26236 0.0
C546 C 0.81054 0.76165 0.21153 0.0
C547 C 0.80159 0.75544 0.15252 0.0
C548 C 0.78677 0.75501 0.14536 0.0
H549 H 0.74466 0.96651 0.78809 0.0
H550 H 0.78698 0.97049 0.88312 0.0
H551 H 0.80424 0.99293 0.80882 0.0
H552 H 0.75994 0.97458 0.62418 0.0
H553 H 0.75071 0.98626 0.60203 0.0
H554 H 0.74155 0.97075 0.66364 0.0
H555 H 0.74213 0.99134 0.74773 0.0
H556 H 0.75109 0.00688 0.6861 0.0
H557 H 0.76085 0.0094 0.76476 0.0
H558 H 0.81686 0.01392 0.72087 0.0
H559 H 0.82417 0.03408 0.63294 0.0
H560 H 0.77364 0.01705 0.5967 0.0
C561 C 0.75756 0.97218 0.7937 0.0
C562 C 0.76447 0.96671 0.84136 0.0
C563 C 0.7814 0.9745 0.84718 0.0
C564 C 0.79131 0.9872 0.80496 0.0
C565 C 0.7841 0.99206 0.75762 0.0
C566 C 0.76762 0.98496 0.75236 0.0
C567 C 0.76294 0.99262 0.69775 0.0
C568 C 0.75321 0.98032 0.64371 0.0
C569 C 0.75371 0.00053 0.72577 0.0
C570 C 0.77938 0.00506 0.6728 0.0
C571 C 0.7914 0.00443 0.70774 0.0
C572 C 0.80756 0.0146 0.69344 0.0
C573 C 0.81158 0.02598 0.64309 0.0
C574 C 0.79949 0.0272 0.60784 0.0
C575 C 0.78317 0.01643 0.62258 0.0
H576 H 0.02312 0.80493 0.86648 0.0
H577 H 0.0021 0.76947 0.02297 0.0
H578 H 0.97725 0.75459 0.95707 0.0
H579 H 0.98664 0.80464 0.81701 0.0
H580 H 0.99183 0.80684 0.73063 0.0
H581 H 0.00743 0.81511 0.7922 0.0
H582 H 0.01992 0.79903 0.74218 0.0
H583 H 0.00428 0.79059 0.68088 0.0
H584 H 0.00773 0.77754 0.73378 0.0
H585 H 0.95506 0.74315 0.87185 0.0
H586 H 0.93715 0.73622 0.77513 0.0
H587 H 0.97324 0.77892 0.67394 0.0
C588 C 0.01323 0.79416 0.88751 0.0
C589 C 0.01453 0.7884 0.95013 0.0
C590 C 0.00136 0.77415 0.97526 0.0
C591 C 0.98721 0.76561 0.93815 0.0
C592 C 0.98647 0.77148 0.87605 0.0
C593 C 0.99912 0.78546 0.85107 0.0
C594 C 0.99557 0.78895 0.78214 0.0
C595 C 0.99535 0.80482 0.78043 0.0
C596 C 0.00759 0.78903 0.73179 0.0
C597 C 0.97895 0.77467 0.77192 0.0
C598 C 0.97387 0.76477 0.82673 0.0
C599 C 0.95891 0.75084 0.82875 0.0
C600 C 0.94883 0.74699 0.7735 0.0
C601 C 0.95381 0.757 0.71686 0.0
C602 C 0.96911 0.77097 0.71626 0.0
H603 H 0.2287 0.206 0.64714 0.0
H604 H 0.27432 0.22382 0.74814 0.0
H605 H 0.26527 0.23535 0.83539 0.0
H606 H 0.22301 0.23997 0.68698 0.0
H607 H 0.20165 0.22739 0.69814 0.0
H608 H 0.21217 0.22146 0.64144 0.0
H609 H 0.20104 0.19432 0.70306 0.0
H610 H 0.19065 0.20024 0.7604 0.0
H611 H 0.20454 0.19429 0.79051 0.0
H612 H 0.25083 0.24382 0.91459 0.0
H613 H 0.23234 0.24966 0.97753 0.0
H614 H 0.19606 0.22602 0.82564 0.0
C615 C 0.23689 0.21257 0.68698 0.0
C616 C 0.25223 0.21404 0.6907 0.0
C617 C 0.26251 0.22254 0.74419 0.0
C618 C 0.25748 0.22913 0.79407 0.0
C619 C 0.24214 0.22713 0.78979 0.0
C620 C 0.23203 0.21916 0.73743 0.0
C621 C 0.21596 0.21828 0.74575 0.0
C622 C 0.21304 0.22732 0.68976 0.0
C623 C 0.20224 0.20074 0.75021 0.0
C624 C 0.21859 0.22686 0.81119 0.0
C625 C 0.23378 0.2319 0.83573 0.0
C626 C 0.23892 0.23999 0.89576 0.0
C627 C 0.22831 0.2432 0.93128 0.0
C628 C 0.21274 0.23829 0.90666 0.0
C629 C 0.20786 0.22991 0.84599 0.0
H630 H 0.84913 0.2929 0.60908 0.0
H631 H 0.86299 0.31511 0.80273 0.0
H632 H 0.87667 0.34186 0.75052 0.0
H633 H 0.88525 0.31984 0.52574 0.0
H634 H 0.87554 0.32023 0.45019 0.0
H635 H 0.86627 0.30276 0.50253 0.0
H636 H 0.84044 0.30478 0.50866 0.0
H637 H 0.84961 0.32223 0.45609 0.0
H638 H 0.84175 0.32327 0.53561 0.0
H639 H 0.89011 0.36595 0.67807 0.0
H640 H 0.90142 0.38623 0.58982 0.0
H641 H 0.87824 0.34873 0.44227 0.0
C642 C 0.85495 0.30339 0.64056 0.0
C643 C 0.85501 0.3019 0.71007 0.0
C644 C 0.86275 0.31594 0.74945 0.0
C645 C 0.87057 0.33119 0.72025 0.0
C646 C 0.87043 0.33222 0.65167 0.0
C647 C 0.86272 0.31874 0.61225 0.0
C648 C 0.86453 0.32324 0.53968 0.0
C649 C 0.87343 0.31609 0.50236 0.0
C650 C 0.8481 0.31807 0.50817 0.0
C651 C 0.87466 0.34136 0.5445 0.0
C652 C 0.87793 0.34624 0.60963 0.0
C653 C 0.88752 0.3623 0.62691 0.0
C654 C 0.89394 0.37372 0.57631 0.0
C655 C 0.89068 0.36907 0.50914 0.0
C656 C 0.88082 0.35266 0.49316 0.0
H657 H 0.64513 0.54869 0.40663 0.0
H658 H 0.62879 0.4981 0.43728 0.0
H659 H 0.64871 0.50516 0.52603 0.0
H660 H 0.68791 0.56316 0.43876 0.0
H661 H 0.69085 0.58105 0.47987 0.0
H662 H 0.67597 0.57205 0.4157 0.0
H663 H 0.65428 0.57039 0.49637 0.0
H664 H 0.66903 0.57916 0.56106 0.0
H665 H 0.65112 0.56002 0.57393 0.0
H666 H 0.66866 0.51738 0.61746 0.0
H667 H 0.68955 0.53427 0.69818 0.0
H668 H 0.69357 0.57701 0.60697 0.0
C669 C 0.64594 0.53911 0.4311 0.0
C670 C 0.63535 0.52283 0.4149 0.0
C671 C 0.63675 0.51066 0.44863 0.0
C672 C 0.648 0.51454 0.49934 0.0
C673 C 0.65789 0.53064 0.51545 0.0
C674 C 0.65717 0.54277 0.48175 0.0
C675 C 0.66903 0.5591 0.50982 0.0
C676 C 0.68169 0.56945 0.45795 0.0
C677 C 0.66034 0.56767 0.5369 0.0
C678 C 0.67634 0.55421 0.56507 0.0
C679 C 0.66967 0.53774 0.5676 0.0
C680 C 0.6741 0.53032 0.61559 0.0
C681 C 0.68591 0.54001 0.6615 0.0
C682 C 0.69323 0.55697 0.65883 0.0
C683 C 0.68825 0.5641 0.61014 0.0
H684 H 0.4422 0.13495 0.58563 0.0
H685 H 0.44282 0.11753 0.78283 0.0
H686 H 0.454 0.1013 0.73769 0.0
H687 H 0.43127 0.09814 0.49845 0.0
H688 H 0.44402 0.10824 0.42872 0.0
H689 H 0.43563 0.11809 0.47635 0.0
H690 H 0.46418 0.14222 0.49649 0.0
H691 H 0.47267 0.13245 0.44896 0.0
H692 H 0.47935 0.13877 0.53244 0.0
H693 H 0.46521 0.08711 0.67106 0.0
H694 H 0.47645 0.0766 0.58846 0.0
H695 H 0.46904 0.10383 0.4352 0.0
C696 C 0.44459 0.12765 0.61936 0.0
C697 C 0.44159 0.12746 0.68775 0.0
C698 C 0.44503 0.11787 0.73026 0.0
C699 C 0.45135 0.10859 0.70507 0.0
C700 C 0.45421 0.1091 0.6374 0.0
C701 C 0.45099 0.11843 0.59517 0.0
C702 C 0.45555 0.1172 0.52473 0.0
C703 C 0.44074 0.10999 0.47941 0.0
C704 C 0.46872 0.13364 0.49918 0.0
C705 C 0.46188 0.10575 0.53393 0.0
C706 C 0.46091 0.10115 0.5992 0.0
C707 C 0.46603 0.09063 0.6198 0.0
C708 C 0.47239 0.08471 0.57246 0.0
C709 C 0.47365 0.0894 0.50536 0.0
C710 C 0.46827 0.10004 0.48608 0.0
H711 H 0.44562 0.30733 0.23872 0.0
H712 H 0.40082 0.27708 0.13547 0.0
H713 H 0.40852 0.29793 0.04998 0.0
H714 H 0.44792 0.34587 0.2012 0.0
H715 H 0.46942 0.35621 0.19105 0.0
H716 H 0.45979 0.33942 0.2469 0.0
H717 H 0.47301 0.32539 0.18527 0.0
H718 H 0.48255 0.34204 0.12888 0.0
H719 H 0.46996 0.322 0.09757 0.0
H720 H 0.42187 0.32111 0.97157 0.0
H721 H 0.43944 0.34568 0.90825 0.0
H722 H 0.47554 0.36091 0.0625 0.0
C723 C 0.43729 0.3052 0.19881 0.0
C724 C 0.42259 0.29057 0.19391 0.0
C725 C 0.41213 0.2882 0.1404 0.0
C726 C 0.4164 0.29997 0.09152 0.0
C727 C 0.43114 0.31408 0.09696 0.0
C728 C 0.44137 0.31682 0.14951 0.0
C729 C 0.45678 0.33277 0.14226 0.0
C730 C 0.45857 0.34425 0.1987 0.0
C731 C 0.47143 0.3304 0.13824 0.0
C732 C 0.4537 0.33842 0.07691 0.0
C733 C 0.43883 0.32748 0.05173 0.0
C734 C 0.43349 0.32984 0.99105 0.0
C735 C 0.44359 0.34381 0.95533 0.0
C736 C 0.45886 0.35525 0.9804 0.0
C737 C 0.46392 0.35245 0.04205 0.0
H738 H 0.68547 0.13116 0.25931 0.0
H739 H 0.72487 0.14982 0.11894 0.0
H740 H 0.70569 0.14269 0.0272 0.0
H741 H 0.65809 0.0973 0.16055 0.0
H742 H 0.64059 0.09829 0.1849 0.0
H743 H 0.65744 0.10532 0.24021 0.0
H744 H 0.65912 0.13302 0.24716 0.0
H745 H 0.64229 0.12609 0.19169 0.0
H746 H 0.66097 0.14397 0.17228 0.0
H747 H 0.68253 0.13392 0.95064 0.0
H748 H 0.65649 0.12245 0.8932 0.0
H749 H 0.63181 0.10851 0.08202 0.0
C750 C 0.69004 0.13378 0.20928 0.0
C751 C 0.70667 0.14108 0.19633 0.0
C752 C 0.71218 0.14419 0.13013 0.0
C753 C 0.70139 0.14024 0.07761 0.0
C754 C 0.6851 0.13308 0.09195 0.0
C755 C 0.67939 0.12974 0.156 0.0
C756 C 0.66121 0.1215 0.15735 0.0
C757 C 0.65391 0.1046 0.18753 0.0
C758 C 0.65557 0.13176 0.19431 0.0
C759 C 0.65765 0.12073 0.08408 0.0
C760 C 0.67162 0.12762 0.04738 0.0
C761 C 0.67148 0.12846 0.97876 0.0
C762 C 0.65662 0.12194 0.94661 0.0
C763 C 0.6421 0.11454 0.98304 0.0
C764 C 0.64269 0.11403 0.05275 0.0
H765 H 0.87113 0.56375 0.21809 0.0
H766 H 0.85743 0.58435 0.05731 0.0
H767 H 0.86984 0.57451 0.97752 0.0
H768 H 0.90967 0.57284 0.1495 0.0
H769 H 0.90814 0.5544 0.1784 0.0
H770 H 0.89842 0.56334 0.22332 0.0
H771 H 0.87123 0.53679 0.21382 0.0
H772 H 0.88085 0.52778 0.1687 0.0
H773 H 0.86384 0.52818 0.13345 0.0
H774 H 0.88278 0.56161 0.91456 0.0
H775 H 0.89639 0.54735 0.87312 0.0
H776 H 0.90219 0.53561 0.07461 0.0
C777 C 0.87082 0.56627 0.16616 0.0
C778 C 0.86329 0.57482 0.14401 0.0
C779 C 0.86314 0.57785 0.07558 0.0
C780 C 0.87015 0.5723 0.02976 0.0
C781 C 0.87734 0.5638 0.05311 0.0
C782 C 0.87783 0.56088 0.11966 0.0
C783 C 0.88627 0.55137 0.13154 0.0
C784 C 0.90153 0.56107 0.17314 0.0
C785 C 0.87486 0.53506 0.16377 0.0
C786 C 0.89031 0.54932 0.06124 0.0
C787 C 0.88503 0.55655 0.01676 0.0
C788 C 0.88706 0.55597 0.9489 0.0
C789 C 0.89477 0.54781 0.92584 0.0
C790 C 0.9004 0.54041 0.97059 0.0
C791 C 0.89812 0.54123 0.03914 0.0
H792 H 0.566 0.68149 0.76453 0.0
H793 H 0.5513 0.71236 0.86155 0.0
H794 H 0.54326 0.69498 0.95981 0.0
H795 H 0.53373 0.64411 0.82806 0.0
H796 H 0.54612 0.63508 0.83768 0.0
H797 H 0.55081 0.65003 0.77482 0.0
H798 H 0.57952 0.66693 0.82274 0.0
H799 H 0.57487 0.65209 0.88613 0.0
H800 H 0.58206 0.67272 0.9085 0.0
H801 H 0.53727 0.67465 0.04856 0.0
H802 H 0.53187 0.65149 0.11877 0.0
H803 H 0.55001 0.63356 0.96393 0.0
C804 C 0.56102 0.68456 0.80628 0.0
C805 C 0.55931 0.69832 0.8052 0.0
C806 C 0.55273 0.70189 0.86099 0.0
C807 C 0.54817 0.69212 0.91726 0.0
C808 C 0.5502 0.67878 0.91705 0.0
C809 C 0.55633 0.67488 0.8629 0.0
C810 C 0.557 0.65969 0.87528 0.0
C811 C 0.54627 0.64645 0.82604 0.0
C812 C 0.5744 0.66307 0.87303 0.0
C813 C 0.55025 0.65567 0.9447 0.0
C814 C 0.54653 0.6669 0.96805 0.0
C815 C 0.54011 0.66575 0.03083 0.0
C816 C 0.53714 0.65258 0.07043 0.0
C817 C 0.5405 0.6407 0.0469 0.0
C818 C 0.54731 0.64243 0.98343 0.0
H819 H 0.37181 0.89368 0.89517 0.0
H820 H 0.35141 0.87307 0.08633 0.0
H821 H 0.32443 0.85878 0.03651 0.0
H822 H 0.34083 0.90054 0.84313 0.0
H823 H 0.34116 0.8953 0.75792 0.0
H824 H 0.35909 0.90305 0.8072 0.0
H825 H 0.36129 0.87789 0.77988 0.0
H826 H 0.34337 0.87008 0.73029 0.0
H827 H 0.34451 0.8582 0.79668 0.0
H828 H 0.29965 0.84869 0.96927 0.0
H829 H 0.2784 0.84236 0.88713 0.0
H830 H 0.31459 0.8686 0.73776 0.0
C831 C 0.36169 0.88601 0.92641 0.0
C832 C 0.36373 0.88451 0.99473 0.0
C833 C 0.35017 0.8744 0.0339 0.0
C834 C 0.33479 0.86621 0.00605 0.0
C835 C 0.33318 0.86813 0.93885 0.0
C836 C 0.34624 0.87765 0.89931 0.0
C837 C 0.34107 0.87805 0.82887 0.0
C838 C 0.34582 0.89525 0.8081 0.0
C839 C 0.34797 0.87061 0.78111 0.0
C840 C 0.32302 0.86755 0.83546 0.0
C841 C 0.31877 0.86195 0.89937 0.0
C842 C 0.30281 0.85281 0.91886 0.0
C843 C 0.29084 0.84935 0.8719 0.0
C844 C 0.29487 0.85492 0.80608 0.0
C845 C 0.31118 0.86398 0.78749 0.0
H846 H 0.1033 0.41259 0.80829 0.0
H847 H 0.14845 0.45599 0.7661 0.0
H848 H 0.14171 0.47082 0.84712 0.0
H849 H 0.07964 0.4326 0.82997 0.0
H850 H 0.06767 0.41923 0.89532 0.0
H851 H 0.07577 0.41222 0.83175 0.0
H852 H 0.08934 0.40379 0.92142 0.0
H853 H 0.0815 0.411 0.98521 0.0
H854 H 0.10279 0.41851 0.97997 0.0
H855 H 0.13122 0.48039 0.93877 0.0
H856 H 0.11603 0.48507 0.02542 0.0
H857 H 0.07716 0.4358 0.00538 0.0
C858 C 0.11167 0.42527 0.81537 0.0
C859 C 0.12642 0.43311 0.78092 0.0
C860 C 0.13705 0.44972 0.79167 0.0
C861 C 0.13337 0.45824 0.83787 0.0
C862 C 0.11895 0.45004 0.87231 0.0
C863 C 0.10812 0.43402 0.86083 0.0
C864 C 0.09345 0.42809 0.90459 0.0
C865 C 0.07823 0.42272 0.86291 0.0
C866 C 0.09168 0.41455 0.95051 0.0
C867 C 0.09784 0.44324 0.94303 0.0
C868 C 0.11267 0.45572 0.92398 0.0
C869 C 0.11953 0.47077 0.95367 0.0
C870 C 0.11084 0.47327 0.00318 0.0
C871 C 0.09538 0.46081 0.02205 0.0
C872 C 0.08891 0.44557 0.99183 0.0
H873 H 0.10342 0.65579 0.57388 0.0
H874 H 0.12383 0.6271 0.50449 0.0
H875 H 0.13418 0.64416 0.40552 0.0
H876 H 0.09085 0.66206 0.41659 0.0
H877 H 0.09588 0.68246 0.4334 0.0
H878 H 0.09042 0.6683 0.50016 0.0
H879 H 0.1172 0.68728 0.55976 0.0
H880 H 0.12268 0.70157 0.49345 0.0
H881 H 0.13592 0.6942 0.51664 0.0
H882 H 0.14148 0.66371 0.31173 0.0
H883 H 0.14659 0.68546 0.23324 0.0
H884 H 0.12174 0.70154 0.36431 0.0
C885 C 0.11018 0.65318 0.53822 0.0
C886 C 0.11279 0.64008 0.5471 0.0
C887 C 0.12167 0.63706 0.49898 0.0
C888 C 0.12758 0.64666 0.44241 0.0
C889 C 0.12459 0.6593 0.43466 0.0
C890 C 0.11622 0.66268 0.48145 0.0
C891 C 0.11463 0.67696 0.461 0.0
C892 C 0.09689 0.67215 0.45226 0.0
C893 C 0.12312 0.69082 0.51066 0.0
C894 C 0.12334 0.68103 0.39536 0.0
C895 C 0.12894 0.67067 0.38091 0.0
C896 C 0.13721 0.67195 0.3226 0.0
C897 C 0.14001 0.68429 0.27822 0.0
C898 C 0.13459 0.69521 0.29262 0.0
C899 C 0.12607 0.69343 0.35186 0.0
H900 H 0.34833 0.44486 0.58618 0.0
H901 H 0.37202 0.49536 0.53298 0.0
H902 H 0.35475 0.48864 0.43456 0.0
H903 H 0.34403 0.42944 0.42352 0.0
H904 H 0.32444 0.41221 0.43733 0.0
H905 H 0.33829 0.42093 0.50509 0.0
H906 H 0.31722 0.42458 0.57081 0.0
H907 H 0.30322 0.41566 0.50363 0.0
H908 H 0.30829 0.43529 0.53361 0.0
H909 H 0.33591 0.47632 0.33864 0.0
H910 H 0.31482 0.45951 0.25819 0.0
H911 H 0.303 0.41717 0.37528 0.0
C912 C 0.34977 0.45453 0.55428 0.0
C913 C 0.36156 0.47063 0.56736 0.0
C914 C 0.36306 0.48293 0.52422 0.0
C915 C 0.35335 0.47923 0.46793 0.0
C916 C 0.34212 0.46321 0.45569 0.0
C917 C 0.34011 0.45108 0.49809 0.0
C918 C 0.32707 0.43485 0.47374 0.0
C919 C 0.33387 0.4237 0.45905 0.0
C920 C 0.31312 0.42715 0.5234 0.0
C921 C 0.32214 0.43976 0.41087 0.0
C922 C 0.33105 0.45615 0.40108 0.0
C923 C 0.32879 0.46347 0.34595 0.0
C924 C 0.31685 0.45381 0.30034 0.0
C925 C 0.30724 0.43704 0.31047 0.0
C926 C 0.31011 0.42996 0.36616 0.0
H927 H 0.52766 0.8926 0.50587 0.0
H928 H 0.57094 0.93876 0.5325 0.0
H929 H 0.58381 0.93259 0.44041 0.0
H930 H 0.54813 0.87063 0.47123 0.0
H931 H 0.53347 0.85758 0.41164 0.0
H932 H 0.52753 0.86592 0.47814 0.0
H933 H 0.51615 0.87782 0.39319 0.0
H934 H 0.52221 0.86965 0.32637 0.0
H935 H 0.52903 0.89084 0.3288 0.0
H936 H 0.59166 0.92179 0.3434 0.0
H937 H 0.59525 0.90571 0.25714 0.0
H938 H 0.54744 0.86597 0.29775 0.0
C939 C 0.53985 0.90139 0.49229 0.0
C940 C 0.5483 0.91618 0.52607 0.0
C941 C 0.56428 0.92732 0.50742 0.0
C942 C 0.57165 0.92398 0.45491 0.0
C943 C 0.56294 0.90937 0.42214 0.0
C944 C 0.54749 0.89814 0.44072 0.0
C945 C 0.54106 0.88304 0.39937 0.0
C946 C 0.53733 0.86843 0.44268 0.0
C947 C 0.52623 0.88018 0.35958 0.0
C948 C 0.55531 0.88755 0.35466 0.0
C949 C 0.56771 0.90288 0.36794 0.0
C950 C 0.58207 0.90975 0.3327 0.0
C951 C 0.58395 0.90055 0.28355 0.0
C952 C 0.57164 0.8846 0.27086 0.0
C953 C 0.55708 0.87812 0.30647 0.0
H954 H 0.25784 0.13124 0.57739 0.0
H955 H 0.2208 0.1398 0.65528 0.0
H956 H 0.21275 0.11749 0.73413 0.0
H957 H 0.23635 0.08618 0.6063 0.0
H958 H 0.25482 0.08712 0.63076 0.0
H959 H 0.2551 0.10098 0.57004 0.0
H960 H 0.27572 0.1249 0.64089 0.0
H961 H 0.2755 0.11118 0.70153 0.0
H962 H 0.27096 0.12651 0.72565 0.0
H963 H 0.21175 0.09784 0.81553 0.0
H964 H 0.21892 0.0836 0.89774 0.0
H965 H 0.2571 0.08807 0.76954 0.0
C966 C 0.24764 0.12798 0.60936 0.0
C967 C 0.23979 0.13706 0.60989 0.0
C968 C 0.22688 0.13289 0.65397 0.0
C969 C 0.22216 0.12017 0.69853 0.0
C970 C 0.23047 0.11175 0.69838 0.0
C971 C 0.24295 0.11547 0.65488 0.0
C972 C 0.25155 0.10635 0.6716 0.0
C973 C 0.24931 0.09444 0.61638 0.0
C974 C 0.26948 0.11792 0.68579 0.0
C975 C 0.24254 0.09762 0.7334 0.0
C976 C 0.23014 0.10054 0.74687 0.0
C977 C 0.22119 0.09517 0.80484 0.0
C978 C 0.22539 0.08712 0.85136 0.0
C979 C 0.23854 0.08468 0.83996 0.0
C980 C 0.24679 0.08947 0.7791 0.0
H981 H 0.87878 0.133 0.56569 0.0
H982 H 0.87 0.08684 0.63831 0.0
H983 H 0.89285 0.10053 0.71481 0.0
H984 H 0.92365 0.15516 0.58506 0.0
H985 H 0.92395 0.17312 0.61263 0.0
H986 H 0.90884 0.15985 0.55489 0.0
H987 H 0.88645 0.15741 0.6336 0.0
H988 H 0.90146 0.17075 0.69093 0.0
H989 H 0.88608 0.15115 0.71784 0.0
H990 H 0.9139 0.11873 0.79294 0.0
H991 H 0.93005 0.14007 0.87321 0.0
H992 H 0.92538 0.17461 0.75115 0.0
C993 C 0.88195 0.12581 0.59653 0.0
C994 C 0.8727 0.10888 0.59586 0.0
C995 C 0.87693 0.09984 0.63806 0.0
C996 C 0.88999 0.1075 0.68124 0.0
C997 C 0.89874 0.12421 0.68158 0.0
C998 C 0.89488 0.13328 0.64052 0.0
C999 C 0.90485 0.15099 0.65667 0.0
C1000 C 0.91598 0.16033 0.59886 0.0
C1001 C 0.89407 0.15797 0.67594 0.0
C1002 C 0.91435 0.15037 0.71517 0.0
C1003 C 0.91093 0.13484 0.72764 0.0
C1004 C 0.91694 0.13099 0.783 0.0
C1005 C 0.92611 0.14319 0.82834 0.0
C1006 C 0.92905 0.15901 0.81827 0.0
C1007 C 0.92365 0.16272 0.75953 0.0
H1008 H 0.91821 0.786 0.7366 0.0
H1009 H 0.89014 0.76675 0.55802 0.0
H1010 H 0.86743 0.76766 0.61025 0.0
H1011 H 0.88873 0.76242 0.84103 0.0
H1012 H 0.8938 0.77688 0.90646 0.0
H1013 H 0.90904 0.7788 0.85011 0.0
H1014 H 0.91555 0.8077 0.82086 0.0
H1015 H 0.90021 0.80582 0.87733 0.0
H1016 H 0.89976 0.81111 0.79228 0.0
H1017 H 0.84648 0.76588 0.68686 0.0
H1018 H 0.8286 0.75952 0.78302 0.0
H1019 H 0.87001 0.77948 0.91305 0.0
C1020 C 0.9075 0.78259 0.70769 0.0
C1021 C 0.90595 0.77647 0.64317 0.0
C1022 C 0.89157 0.77156 0.6075 0.0
C1023 C 0.87867 0.77217 0.63657 0.0
C1024 C 0.88034 0.77774 0.70127 0.0
C1025 C 0.89443 0.7829 0.7364 0.0
C1026 C 0.89232 0.78577 0.80826 0.0
C1027 C 0.89619 0.77534 0.85409 0.0
C1028 C 0.90257 0.80367 0.82569 0.0
C1029 C 0.87461 0.78044 0.80895 0.0
C1030 C 0.86803 0.77635 0.74639 0.0
C1031 C 0.85154 0.76937 0.73586 0.0
C1032 C 0.84146 0.7658 0.79088 0.0
C1033 C 0.8479 0.76896 0.8556 0.0
C1034 C 0.86473 0.77708 0.86418 0.0
H1035 H 0.12318 0.25422 0.89287 0.0
H1036 H 0.13667 0.22171 0.80294 0.0
H1037 H 0.1133 0.21158 0.72838 0.0
H1038 H 0.07913 0.22795 0.87915 0.0
H1039 H 0.07608 0.24449 0.85878 0.0
H1040 H 0.09261 0.24773 0.91109 0.0
H1041 H 0.11262 0.26996 0.83187 0.0
H1042 H 0.09615 0.26692 0.78007 0.0
H1043 H 0.1126 0.26538 0.74552 0.0
H1044 H 0.09001 0.20659 0.65782 0.0
H1045 H 0.07047 0.20932 0.58832 0.0
H1046 H 0.07222 0.24527 0.72308 0.0
C1047 C 0.12106 0.24478 0.8582 0.0
C1048 C 0.13167 0.23868 0.85392 0.0
C1049 C 0.12869 0.22657 0.80704 0.0
C1050 C 0.11536 0.22062 0.76492 0.0
C1051 C 0.10514 0.22692 0.77027 0.0
C1052 C 0.1079 0.23883 0.81533 0.0
C1053 C 0.0961 0.24475 0.8063 0.0
C1054 C 0.08534 0.241 0.86748 0.0
C1055 C 0.10489 0.26281 0.78993 0.0
C1056 C 0.0866 0.23467 0.74775 0.0
C1057 C 0.09178 0.22421 0.72866 0.0
C1058 C 0.0857 0.21457 0.67276 0.0
C1059 C 0.07456 0.21618 0.63365 0.0
C1060 C 0.06978 0.22749 0.65026 0.0
C1061 C 0.07541 0.23633 0.70955 0.0
H1062 H 0.73834 0.82118 0.72077 0.0
H1063 H 0.7675 0.85379 0.56481 0.0
H1064 H 0.76854 0.87643 0.62583 0.0
H1065 H 0.71473 0.83845 0.75157 0.0
H1066 H 0.7139 0.83599 0.83998 0.0
H1067 H 0.71667 0.82239 0.78797 0.0
H1068 H 0.74278 0.82905 0.85061 0.0
H1069 H 0.73993 0.84244 0.90379 0.0
H1070 H 0.75847 0.8497 0.85893 0.0
H1071 H 0.76371 0.89487 0.6963 0.0
H1072 H 0.75661 0.90882 0.78034 0.0
H1073 H 0.73143 0.86456 0.89293 0.0
C1074 C 0.74527 0.83313 0.7002 0.0
C1075 C 0.75281 0.83568 0.63794 0.0
C1076 C 0.76167 0.85151 0.61253 0.0
C1077 C 0.76227 0.86447 0.64665 0.0
C1078 C 0.75416 0.86143 0.70652 0.0
C1079 C 0.74612 0.84624 0.73389 0.0
C1080 C 0.73807 0.84621 0.79824 0.0
C1081 C 0.71976 0.8351 0.79414 0.0
C1082 C 0.74524 0.84158 0.85633 0.0
C1083 C 0.74254 0.86368 0.80188 0.0
C1084 C 0.75174 0.87222 0.74828 0.0
C1085 C 0.75671 0.88839 0.73905 0.0
C1086 C 0.75249 0.89616 0.78678 0.0
C1087 C 0.74352 0.88778 0.84328 0.0
C1088 C 0.73839 0.8713 0.85048 0.0
H1089 H 0.15286 0.89207 0.67702 0.0
H1090 H 0.14649 0.93369 0.67834 0.0
H1091 H 0.12408 0.91986 0.75781 0.0
H1092 H 0.11226 0.86308 0.67715 0.0
H1093 H 0.11442 0.84915 0.7297 0.0
H1094 H 0.13091 0.8629 0.6786 0.0
H1095 H 0.14935 0.87386 0.78143 0.0
H1096 H 0.13298 0.85995 0.83283 0.0
H1097 H 0.14312 0.88114 0.85092 0.0
H1098 H 0.10105 0.90045 0.83094 0.0
H1099 H 0.08033 0.87778 0.89595 0.0
H1100 H 0.10197 0.84906 0.8433 0.0
C1101 C 0.14696 0.89844 0.69473 0.0
C1102 C 0.15141 0.91396 0.67157 0.0
C1103 C 0.14332 0.92182 0.69579 0.0
C1104 C 0.13056 0.91404 0.74071 0.0
C1105 C 0.12617 0.8985 0.76089 0.0
C1106 C 0.13426 0.89088 0.73912 0.0
C1107 C 0.12687 0.87397 0.76575 0.0
C1108 C 0.12075 0.86155 0.70944 0.0
C1109 C 0.13879 0.87213 0.8104 0.0
C1110 C 0.11314 0.8731 0.80515 0.0
C1111 C 0.11295 0.88737 0.80213 0.0
C1112 C 0.10116 0.88927 0.83398 0.0
C1113 C 0.08941 0.8763 0.87053 0.0
C1114 C 0.08951 0.86164 0.87457 0.0
C1115 C 0.10152 0.86008 0.84105 0.0
H1116 H 0.74159 0.90682 0.2188 0.0
H1117 H 0.76861 0.90161 0.05839 0.0
H1118 H 0.76993 0.88024 0.12037 0.0
H1119 H 0.76264 0.89891 0.35429 0.0
H1120 H 0.7445 0.88816 0.40214 0.0
H1121 H 0.74713 0.90415 0.34783 0.0
H1122 H 0.72034 0.88462 0.28956 0.0
H1123 H 0.71776 0.86851 0.34279 0.0
H1124 H 0.71773 0.86623 0.25443 0.0
H1125 H 0.76558 0.85736 0.1936 0.0
H1126 H 0.75862 0.83664 0.2794 0.0
H1127 H 0.73508 0.85723 0.39326 0.0
C1128 C 0.74813 0.90147 0.19734 0.0
C1129 C 0.755 0.90592 0.13373 0.0
C1130 C 0.76332 0.89849 0.1072 0.0
C1131 C 0.76408 0.88628 0.1419 0.0
C1132 C 0.75664 0.88176 0.20335 0.0
C1133 C 0.74909 0.88933 0.23146 0.0
C1134 C 0.74157 0.88183 0.29719 0.0
C1135 C 0.74944 0.89398 0.3537 0.0
C1136 C 0.72327 0.87489 0.29586 0.0
C1137 C 0.74576 0.86863 0.3009 0.0
C1138 C 0.75442 0.86877 0.24623 0.0
C1139 C 0.75901 0.85727 0.23713 0.0
C1140 C 0.75489 0.84548 0.28587 0.0
C1141 C 0.74637 0.84537 0.3431 0.0
C1142 C 0.74171 0.85708 0.35032 0.0
H1143 H 0.11673 0.86424 0.08274 0.0
H1144 H 0.07315 0.84326 0.2001 0.0
H1145 H 0.0882 0.86192 0.29171 0.0
H1146 H 0.1437 0.86954 0.21065 0.0
H1147 H 0.15963 0.88845 0.18008 0.0
H1148 H 0.14525 0.87395 0.12353 0.0
H1149 H 0.13833 0.89514 0.08033 0.0
H1150 H 0.15277 0.90976 0.13648 0.0
H1151 H 0.13222 0.90535 0.13796 0.0
H1152 H 0.10869 0.88166 0.37257 0.0
H1153 H 0.13231 0.90211 0.43376 0.0
H1154 H 0.16202 0.91061 0.26025 0.0
C1155 C 0.1103 0.86359 0.12759 0.0
C1156 C 0.09382 0.85226 0.13475 0.0
C1157 C 0.08579 0.85189 0.1938 0.0
C1158 C 0.09424 0.8624 0.24596 0.0
C1159 C 0.11059 0.87328 0.23753 0.0
C1160 C 0.11845 0.87406 0.17942 0.0
C1161 C 0.13604 0.88672 0.18246 0.0
C1162 C 0.14678 0.87921 0.17368 0.0
C1163 C 0.14007 0.90003 0.13128 0.0
C1164 C 0.13698 0.89281 0.252 0.0
C1165 C 0.1222 0.88489 0.28307 0.0
C1166 C 0.12027 0.88804 0.34848 0.0
C1167 C 0.13378 0.89963 0.38286 0.0
C1168 C 0.14899 0.908 0.3516 0.0
C1169 C 0.15054 0.90453 0.28526 0.0
H1170 H 0.16936 0.26073 0.20622 0.0
H1171 H 0.13702 0.21808 0.09436 0.0
H1172 H 0.11502 0.21301 0.17054 0.0
H1173 H 0.15102 0.24455 0.3726 0.0
H1174 H 0.15414 0.26383 0.39858 0.0
H1175 H 0.16792 0.26271 0.3415 0.0
H1176 H 0.16316 0.28051 0.25907 0.0
H1177 H 0.14916 0.28145 0.31514 0.0
H1178 H 0.143 0.27424 0.2321 0.0
H1179 H 0.09573 0.21504 0.24589 0.0
H1180 H 0.08085 0.22224 0.32489 0.0
H1181 H 0.12564 0.26298 0.39135 0.0
C1182 C 0.15779 0.25003 0.19897 0.0
C1183 C 0.15493 0.2398 0.14425 0.0
C1184 C 0.13954 0.22606 0.13599 0.0
C1185 C 0.12694 0.22308 0.17897 0.0
C1186 C 0.12998 0.23382 0.23051 0.0
C1187 C 0.14509 0.24683 0.24164 0.0
C1188 C 0.14486 0.25711 0.29793 0.0
C1189 C 0.15509 0.25704 0.35611 0.0
C1190 C 0.15037 0.27434 0.27462 0.0
C1191 C 0.12715 0.24816 0.31497 0.0
C1192 C 0.11881 0.23474 0.27552 0.0
C1193 C 0.10216 0.2253 0.27811 0.0
C1194 C 0.09381 0.22957 0.3227 0.0
C1195 C 0.10212 0.2431 0.36443 0.0
C1196 C 0.11902 0.25243 0.36072 0.0
H1197 H 0.88286 0.77527 0.18638 0.0
H1198 H 0.86811 0.72924 0.09402 0.0
H1199 H 0.89088 0.72853 0.14743 0.0
H1200 H 0.92663 0.79116 0.18169 0.0
H1201 H 0.92958 0.80036 0.26188 0.0
H1202 H 0.91349 0.79827 0.20953 0.0
H1203 H 0.89285 0.7829 0.30257 0.0
H1204 H 0.9089 0.78519 0.35522 0.0
H1205 H 0.89215 0.76544 0.33896 0.0
H1206 H 0.91375 0.73178 0.21847 0.0
H1207 H 0.93264 0.73706 0.30996 0.0
H1208 H 0.93219 0.78089 0.35641 0.0
C1209 C 0.88457 0.76517 0.17635 0.0
C1210 C 0.87379 0.75236 0.13569 0.0
C1211 C 0.87625 0.7392 0.12495 0.0
C1212 C 0.88923 0.73877 0.15459 0.0
C1213 C 0.89962 0.75159 0.19466 0.0
C1214 C 0.89734 0.76449 0.20589 0.0
C1215 C 0.9091 0.77591 0.25642 0.0
C1216 C 0.92037 0.7924 0.2255 0.0
C1217 C 0.90022 0.77743 0.31685 0.0
C1218 C 0.91805 0.76718 0.27346 0.0
C1219 C 0.91265 0.75336 0.23634 0.0
C1220 C 0.91825 0.7427 0.2471 0.0
C1221 C 0.92908 0.74587 0.29908 0.0
C1222 C 0.93396 0.75944 0.34037 0.0
C1223 C 0.92887 0.77054 0.32527 0.0
H1224 H 0.22891 0.10613 0.20416 0.0
H1225 H 0.27227 0.13245 0.08737 0.0
H1226 H 0.27695 0.15786 0.13757 0.0
H1227 H 0.21659 0.13674 0.20369 0.0
H1228 H 0.20987 0.13278 0.28827 0.0
H1229 H 0.20887 0.11689 0.23763 0.0
H1230 H 0.22576 0.11176 0.32384 0.0
H1231 H 0.22661 0.12746 0.3749 0.0
H1232 H 0.24493 0.12821 0.34942 0.0
H1233 H 0.27794 0.18006 0.20598 0.0
H1234 H 0.27683 0.19687 0.29547 0.0
H1235 H 0.233 0.15595 0.36863 0.0
C1236 C 0.23926 0.11726 0.1884 0.0
C1237 C 0.25017 0.11735 0.14158 0.0
C1238 C 0.26375 0.13212 0.1232 0.0
C1239 C 0.26643 0.14662 0.15099 0.0
C1240 C 0.25544 0.14612 0.19713 0.0
C1241 C 0.2422 0.13181 0.21613 0.0
C1242 C 0.23309 0.13435 0.27131 0.0
C1243 C 0.2161 0.12993 0.24885 0.0
C1244 C 0.23258 0.12489 0.33352 0.0
C1245 C 0.2435 0.15228 0.28156 0.0
C1246 C 0.25616 0.1589 0.23745 0.0
C1247 C 0.26798 0.17505 0.24031 0.0
C1248 C 0.26722 0.18452 0.29127 0.0
C1249 C 0.25482 0.17776 0.33912 0.0
C1250 C 0.24252 0.16157 0.33243 0.0
H1251 H 0.86132 0.0933 0.34892 0.0
H1252 H 0.81584 0.0691 0.24451 0.0
H1253 H 0.82908 0.08516 0.14477 0.0
H1254 H 0.87312 0.13122 0.28876 0.0
H1255 H 0.8942 0.13769 0.28291 0.0
H1256 H 0.88184 0.12266 0.34244 0.0
H1257 H 0.89027 0.10303 0.294 0.0
H1258 H 0.90287 0.11809 0.23481 0.0
H1259 H 0.88771 0.09848 0.20698 0.0
H1260 H 0.84688 0.1056 0.05988 0.0
H1261 H 0.86776 0.12849 0.9964 0.0
H1262 H 0.9011 0.13989 0.1593 0.0
C1263 C 0.85421 0.091 0.30454 0.0
C1264 C 0.83757 0.07981 0.30423 0.0
C1265 C 0.82863 0.07751 0.24563 0.0
C1266 C 0.83605 0.08659 0.18881 0.0
C1267 C 0.85238 0.09792 0.19159 0.0
C1268 C 0.86136 0.10007 0.2479 0.0
C1269 C 0.87834 0.11393 0.24029 0.0
C1270 C 0.88208 0.12715 0.29164 0.0
C1271 C 0.89052 0.10803 0.24423 0.0
C1272 C 0.87746 0.11945 0.1713 0.0
C1273 C 0.86246 0.10996 0.14367 0.0
C1274 C 0.85871 0.11302 0.08083 0.0
C1275 C 0.87063 0.12608 0.04526 0.0
C1276 C 0.88605 0.136 0.07294 0.0
C1277 C 0.88944 0.13256 0.13678 0.0
H1278 H 0.915 0.4137 0.09297 0.0
H1279 H 0.87481 0.41027 0.20424 0.0
H1280 H 0.87604 0.43243 0.13844 0.0
H1281 H 0.93703 0.4549 0.08791 0.0
H1282 H 0.94474 0.45662 0.00536 0.0
H1283 H 0.93932 0.43889 0.05337 0.0
H1284 H 0.91984 0.42094 0.96155 0.0
H1285 H 0.92546 0.43859 0.91232 0.0
H1286 H 0.90462 0.42506 0.93139 0.0
H1287 H 0.88415 0.45734 0.07319 0.0
H1288 H 0.89626 0.48126 0.00145 0.0
H1289 H 0.93086 0.46831 0.93027 0.0
C1290 C 0.90606 0.41718 0.10193 0.0
C1291 C 0.89475 0.41018 0.15367 0.0
C1292 C 0.88352 0.41538 0.16469 0.0
C1293 C 0.88417 0.42802 0.12774 0.0
C1294 C 0.89601 0.43522 0.07956 0.0
C1295 C 0.90655 0.4298 0.06555 0.0
C1296 C 0.91878 0.44029 0.01411 0.0
C1297 C 0.93598 0.44813 0.04187 0.0
C1298 C 0.91706 0.43064 0.95109 0.0
C1299 C 0.91366 0.45264 0.00242 0.0
C1300 C 0.90054 0.4495 0.04089 0.0
C1301 C 0.89423 0.45976 0.04188 0.0
C1302 C 0.9013 0.4734 0.00139 0.0
C1303 C 0.91445 0.4766 0.96003 0.0
C1304 C 0.92071 0.46608 0.96085 0.0
H1305 H 0.56361 0.46052 0.17431 0.0
H1306 H 0.59005 0.50459 0.06168 0.0
H1307 H 0.5725 0.4914 0.96545 0.0
H1308 H 0.55497 0.43218 0.03664 0.0
H1309 H 0.53518 0.41843 0.06769 0.0
H1310 H 0.55111 0.43077 0.12421 0.0
H1311 H 0.53358 0.44179 0.17258 0.0
H1312 H 0.5177 0.4297 0.11563 0.0
H1313 H 0.52579 0.45113 0.11826 0.0
H1314 H 0.55068 0.47405 0.88486 0.0
H1315 H 0.52678 0.45366 0.8248 0.0
H1316 H 0.5142 0.42136 0.99232 0.0
C1317 C 0.56603 0.46729 0.12888 0.0
C1318 C 0.57831 0.48356 0.12527 0.0
C1319 C 0.58079 0.49209 0.06537 0.0
C1320 C 0.57087 0.4847 0.01052 0.0
C1321 C 0.55853 0.46882 0.01655 0.0
C1322 C 0.55616 0.46018 0.07408 0.0
C1323 C 0.54139 0.44366 0.06956 0.0
C1324 C 0.54594 0.43048 0.07481 0.0
C1325 C 0.52888 0.44145 0.12212 0.0
C1326 C 0.53566 0.44443 0.00081 0.0
C1327 C 0.54577 0.45897 0.97082 0.0
C1328 C 0.54275 0.46257 0.90767 0.0
C1329 C 0.52911 0.45093 0.87406 0.0
C1330 C 0.5186 0.43593 0.90388 0.0
C1331 C 0.52197 0.43272 0.96819 0.0
H1332 H 0.58057 0.11975 0.02588 0.0
H1333 H 0.55572 0.08399 0.87365 0.0
H1334 H 0.52967 0.07864 0.91878 0.0
H1335 H 0.5546 0.09737 0.15302 0.0
H1336 H 0.55554 0.11427 0.19574 0.0
H1337 H 0.57212 0.11704 0.14535 0.0
H1338 H 0.57018 0.139 0.07841 0.0
H1339 H 0.55342 0.13613 0.12833 0.0
H1340 H 0.55144 0.13432 0.03978 0.0
H1341 H 0.50648 0.07547 0.98508 0.0
H1342 H 0.48792 0.07224 0.07536 0.0
H1343 H 0.52773 0.10948 0.18682 0.0
C1344 C 0.56964 0.11103 0.0014 0.0
C1345 C 0.57012 0.10236 0.9461 0.0
C1346 C 0.55559 0.09075 0.91619 0.0
C1347 C 0.54075 0.08775 0.94102 0.0
C1348 C 0.54064 0.09641 0.99595 0.0
C1349 C 0.5547 0.1077 0.02624 0.0
C1350 C 0.55122 0.11391 0.08918 0.0
C1351 C 0.55881 0.11043 0.14935 0.0
C1352 C 0.55691 0.13191 0.08355 0.0
C1353 C 0.53307 0.10395 0.09064 0.0
C1354 C 0.52719 0.09424 0.03555 0.0
C1355 C 0.5109 0.08315 0.02811 0.0
C1356 C 0.50044 0.08142 0.07967 0.0
C1357 C 0.50635 0.09058 0.13828 0.0
C1358 C 0.52278 0.10242 0.14242 0.0
H1359 H 0.74511 0.58783 0.05189 0.0
H1360 H 0.73342 0.54221 0.96285 0.0
H1361 H 0.74931 0.5382 0.04849 0.0
H1362 H 0.78407 0.60058 0.07776 0.0
H1363 H 0.78616 0.61052 0.15563 0.0
H1364 H 0.77087 0.60818 0.09842 0.0
H1365 H 0.74898 0.59362 0.18761 0.0
H1366 H 0.76425 0.59613 0.24583 0.0
H1367 H 0.74749 0.57639 0.22957 0.0
H1368 H 0.77039 0.54159 0.1284 0.0
H1369 H 0.79417 0.55152 0.20043 0.0
H1370 H 0.79233 0.595 0.2379 0.0
C1371 C 0.74532 0.57667 0.05202 0.0
C1372 C 0.73794 0.56528 0.00096 0.0
C1373 C 0.73889 0.55105 0.00175 0.0
C1374 C 0.74787 0.54866 0.05029 0.0
C1375 C 0.7557 0.56053 0.09795 0.0
C1376 C 0.75433 0.57417 0.09983 0.0
C1377 C 0.76554 0.58603 0.15072 0.0
C1378 C 0.77735 0.60228 0.11868 0.0
C1379 C 0.75599 0.58816 0.20677 0.0
C1380 C 0.77403 0.57732 0.17465 0.0
C1381 C 0.76799 0.56251 0.14443 0.0
C1382 C 0.77496 0.55297 0.15362 0.0
C1383 C 0.78853 0.55876 0.19424 0.0
C1384 C 0.79502 0.57398 0.225 0.0
C1385 C 0.78745 0.58319 0.21601 0.0
H1386 H 0.4186 0.1586 0.07456 0.0
H1387 H 0.45309 0.1931 0.93605 0.0
H1388 H 0.4578 0.21514 0.01109 0.0
H1389 H 0.40062 0.18005 0.11819 0.0
H1390 H 0.39801 0.17494 0.20469 0.0
H1391 H 0.39907 0.1615 0.14583 0.0
H1392 H 0.42275 0.16229 0.21003 0.0
H1393 H 0.4216 0.17553 0.27 0.0
H1394 H 0.44028 0.18137 0.22822 0.0
H1395 H 0.45496 0.23348 0.08952 0.0
H1396 H 0.44772 0.24692 0.17588 0.0
H1397 H 0.41655 0.20079 0.26767 0.0
C1398 C 0.42753 0.17075 0.06101 0.0
C1399 C 0.43543 0.1741 0.99937 0.0
C1400 C 0.44692 0.19018 0.98311 0.0
C1401 C 0.44967 0.20282 0.02536 0.0
C1402 C 0.44111 0.19917 0.08429 0.0
C1403 C 0.43059 0.18351 0.10308 0.0
C1404 C 0.42226 0.18295 0.16732 0.0
C1405 C 0.40391 0.17435 0.15842 0.0
C1406 C 0.42701 0.17507 0.22214 0.0
C1407 C 0.42919 0.20072 0.17996 0.0
C1408 C 0.44005 0.20987 0.13145 0.0
C1409 C 0.44683 0.2265 0.12883 0.0
C1410 C 0.44254 0.234 0.1776 0.0
C1411 C 0.43174 0.22487 0.22852 0.0
C1412 C 0.4251 0.20805 0.22991 0.0
H1413 H 0.81732 0.22115 0.03517 0.0
H1414 H 0.81595 0.26554 0.04482 0.0
H1415 H 0.79947 0.25583 0.14638 0.0
H1416 H 0.77776 0.19589 0.07761 0.0
H1417 H 0.78132 0.18213 0.12515 0.0
H1418 H 0.79479 0.1935 0.05939 0.0
H1419 H 0.81882 0.20494 0.14075 0.0
H1420 H 0.80541 0.1935 0.2069 0.0
H1421 H 0.81814 0.21494 0.21493 0.0
H1422 H 0.7807 0.23987 0.23959 0.0
H1423 H 0.76135 0.21923 0.31606 0.0
H1424 H 0.77521 0.18544 0.24324 0.0
C1425 C 0.81386 0.22902 0.05922 0.0
C1426 C 0.81795 0.24413 0.03218 0.0
C1427 C 0.81302 0.25395 0.06492 0.0
C1428 C 0.80369 0.24854 0.12262 0.0
C1429 C 0.79953 0.23337 0.14696 0.0
C1430 C 0.80457 0.22381 0.11642 0.0
C1431 C 0.79752 0.20751 0.14892 0.0
C1432 C 0.78724 0.19397 0.09985 0.0
C1433 C 0.81076 0.20509 0.17972 0.0
C1434 C 0.78728 0.20915 0.20142 0.0
C1435 C 0.78873 0.2242 0.20017 0.0
C1436 C 0.77964 0.22813 0.24159 0.0
C1437 C 0.76866 0.21631 0.28472 0.0
C1438 C 0.76679 0.20073 0.28569 0.0
C1439 C 0.77646 0.19727 0.24419 0.0
H1440 H 0.42204 0.25275 0.58686 0.0
H1441 H 0.46218 0.26026 0.46409 0.0
H1442 H 0.46631 0.24175 0.5347 0.0
H1443 H 0.4382 0.24647 0.74909 0.0
H1444 H 0.41835 0.23116 0.77377 0.0
H1445 H 0.42092 0.24773 0.72334 0.0
H1446 H 0.40139 0.22757 0.63622 0.0
H1447 H 0.39894 0.21109 0.68646 0.0
H1448 H 0.4056 0.21272 0.60223 0.0
H1449 H 0.46241 0.21844 0.60188 0.0
H1450 H 0.4528 0.19413 0.6706 0.0
H1451 H 0.41542 0.20189 0.75127 0.0
C1452 C 0.43222 0.25116 0.57683 0.0
C1453 C 0.44189 0.25805 0.52033 0.0
C1454 C 0.45472 0.25521 0.50749 0.0
C1455 C 0.45714 0.24468 0.54723 0.0
C1456 C 0.44672 0.23724 0.6 0.0
C1457 C 0.43472 0.2406 0.61584 0.0
C1458 C 0.42404 0.22966 0.6703 0.0
C1459 C 0.42547 0.23933 0.73285 0.0
C1460 C 0.40646 0.21969 0.64738 0.0
C1461 C 0.43146 0.21916 0.6804 0.0
C1462 C 0.4446 0.22381 0.6397 0.0
C1463 C 0.45242 0.21494 0.63529 0.0
C1464 C 0.44677 0.20107 0.67398 0.0
C1465 C 0.43345 0.19621 0.71655 0.0
C1466 C 0.42581 0.20547 0.72002 0.0
H1467 H 0.78889 0.2434 0.66743 0.0
H1468 H 0.79497 0.21653 0.82574 0.0
H1469 H 0.77122 0.19173 0.78645 0.0
H1470 H 0.74413 0.21973 0.65734 0.0
H1471 H 0.74429 0.2207 0.56843 0.0
H1472 H 0.75996 0.23689 0.61538 0.0
H1473 H 0.78151 0.23385 0.55026 0.0
H1474 H 0.76594 0.21785 0.50282 0.0
H1475 H 0.78026 0.21452 0.54721 0.0
H1476 H 0.74874 0.16958 0.72474 0.0
H1477 H 0.73163 0.15119 0.6372 0.0
H1478 H 0.74058 0.19212 0.51607 0.0
C1479 C 0.78495 0.23234 0.69454 0.0
C1480 C 0.7936 0.23183 0.74983 0.0
C1481 C 0.78845 0.21712 0.78319 0.0
C1482 C 0.77489 0.20301 0.76169 0.0
C1483 C 0.76667 0.20382 0.70653 0.0
C1484 C 0.7716 0.21807 0.6729 0.0
C1485 C 0.76203 0.21526 0.60998 0.0
C1486 C 0.75201 0.22364 0.613 0.0
C1487 C 0.7731 0.22068 0.549 0.0
C1488 C 0.7514 0.19716 0.61234 0.0
C1489 C 0.75395 0.19086 0.66936 0.0
C1490 C 0.74647 0.17436 0.68026 0.0
C1491 C 0.73672 0.164 0.63022 0.0
C1492 C 0.73478 0.17019 0.56965 0.0
C1493 C 0.74167 0.18699 0.56204 0.0
H1494 H 0.756 0.55839 0.65612 0.0
H1495 H 0.79404 0.58891 0.7921 0.0
H1496 H 0.81368 0.58618 0.72258 0.0
H1497 H 0.77181 0.53149 0.6144 0.0
H1498 H 0.76552 0.52979 0.5295 0.0
H1499 H 0.75429 0.53282 0.59355 0.0
H1500 H 0.7577 0.55808 0.53263 0.0
H1501 H 0.76878 0.55503 0.46836 0.0
H1502 H 0.77759 0.57395 0.51147 0.0
H1503 H 0.8295 0.58274 0.63117 0.0
H1504 H 0.84011 0.57911 0.52533 0.0
H1505 H 0.79143 0.54979 0.45283 0.0
C1506 C 0.76843 0.56435 0.67182 0.0
C1507 C 0.77351 0.57389 0.72944 0.0
C1508 C 0.78988 0.58151 0.74818 0.0
C1509 C 0.8011 0.57997 0.70917 0.0
C1510 C 0.7957 0.57058 0.65227 0.0
C1511 C 0.77971 0.56282 0.63396 0.0
C1512 C 0.77709 0.55428 0.56852 0.0
C1513 C 0.76655 0.53601 0.57704 0.0
C1514 C 0.76988 0.56073 0.51725 0.0
C1515 C 0.79419 0.55895 0.55151 0.0
C1516 C 0.80475 0.56822 0.60066 0.0
C1517 C 0.82132 0.57522 0.59298 0.0
C1518 C 0.82724 0.57308 0.53276 0.0
C1519 C 0.81659 0.56401 0.4812 0.0
C1520 C 0.79987 0.55645 0.49182 0.0
H1521 H 0.59158 0.12157 0.68703 0.0
H1522 H 0.60929 0.09526 0.57416 0.0
H1523 H 0.59107 0.09231 0.4829 0.0
H1524 H 0.55252 0.09785 0.65121 0.0
H1525 H 0.54721 0.1133 0.64426 0.0
H1526 H 0.56394 0.11658 0.69479 0.0
H1527 H 0.58283 0.14236 0.62912 0.0
H1528 H 0.56605 0.13939 0.57906 0.0
H1529 H 0.58387 0.14144 0.54047 0.0
H1530 H 0.56725 0.0872 0.41558 0.0
H1531 H 0.5417 0.08331 0.37011 0.0
H1532 H 0.53994 0.11365 0.52448 0.0
C1533 C 0.5921 0.11574 0.64211 0.0
C1534 C 0.60185 0.10862 0.63785 0.0
C1535 C 0.60199 0.10088 0.57855 0.0
C1536 C 0.59165 0.09911 0.5264 0.0
C1537 C 0.58147 0.10541 0.53389 0.0
C1538 C 0.58189 0.11392 0.58958 0.0
C1539 C 0.56869 0.11815 0.58818 0.0
C1540 C 0.55743 0.11104 0.64815 0.0
C1541 C 0.57579 0.13642 0.58393 0.0
C1542 C 0.56028 0.10998 0.52468 0.0
C1543 C 0.5679 0.10279 0.49387 0.0
C1544 C 0.56143 0.09314 0.4382 0.0
C1545 C 0.54685 0.09087 0.41314 0.0
C1546 C 0.53897 0.0983 0.44357 0.0
C1547 C 0.5459 0.1081 0.49956 0.0
H1548 H 0.91861 0.44327 0.46078 0.0
H1549 H 0.8667 0.42108 0.45271 0.0
H1550 H 0.86806 0.44217 0.52666 0.0
H1551 H 0.92282 0.45318 0.62855 0.0
H1552 H 0.94127 0.472 0.61902 0.0
H1553 H 0.93622 0.45598 0.56112 0.0
H1554 H 0.93894 0.47489 0.46452 0.0
H1555 H 0.94398 0.49099 0.52226 0.0
H1556 H 0.92743 0.48501 0.46594 0.0
H1557 H 0.87504 0.4645 0.60871 0.0
H1558 H 0.88708 0.48612 0.69227 0.0
H1559 H 0.93434 0.49365 0.6439 0.0
C1560 C 0.90752 0.44292 0.47385 0.0
C1561 C 0.89255 0.43054 0.45097 0.0
C1562 C 0.87832 0.43049 0.46957 0.0
C1563 C 0.87897 0.44243 0.5114 0.0
C1564 C 0.89395 0.45438 0.53365 0.0
C1565 C 0.90796 0.45474 0.51524 0.0
C1566 C 0.92246 0.46837 0.54841 0.0
C1567 C 0.93119 0.46199 0.59186 0.0
C1568 C 0.93387 0.48054 0.49722 0.0
C1569 C 0.91438 0.4754 0.58968 0.0
C1570 C 0.89795 0.46728 0.5802 0.0
C1571 C 0.88792 0.47109 0.61592 0.0
C1572 C 0.89486 0.48337 0.66327 0.0
C1573 C 0.91165 0.49163 0.6744 0.0
C1574 C 0.92148 0.48771 0.63613 0.0
H1575 H 0.52716 0.44801 0.39265 0.0
H1576 H 0.57259 0.45681 0.47433 0.0
H1577 H 0.55811 0.43494 0.5546 0.0
H1578 H 0.50776 0.44204 0.54389 0.0
H1579 H 0.48836 0.42663 0.51522 0.0
H1580 H 0.50228 0.44136 0.4583 0.0
H1581 H 0.50033 0.41857 0.38343 0.0
H1582 H 0.48648 0.40375 0.44071 0.0
H1583 H 0.50461 0.4038 0.41758 0.0
H1584 H 0.53902 0.41405 0.63211 0.0
H1585 H 0.51675 0.3974 0.70786 0.0
H1586 H 0.4836 0.40224 0.5773 0.0
C1587 C 0.53404 0.44512 0.42665 0.0
C1588 C 0.55099 0.45404 0.42705 0.0
C1589 C 0.55959 0.45014 0.47317 0.0
C1590 C 0.55148 0.43764 0.51858 0.0
C1591 C 0.53477 0.42914 0.5173 0.0
C1592 C 0.52612 0.43276 0.47283 0.0
C1593 C 0.50827 0.42294 0.48648 0.0
C1594 C 0.50127 0.4339 0.50192 0.0
C1595 C 0.4994 0.41159 0.42859 0.0
C1596 C 0.50829 0.41366 0.54692 0.0
C1597 C 0.52367 0.41716 0.56298 0.0
C1598 C 0.52689 0.41103 0.61959 0.0
C1599 C 0.51414 0.40156 0.6623 0.0
C1600 C 0.49841 0.39846 0.64849 0.0
C1601 C 0.49542 0.40415 0.58879 0.0
H1602 H 0.58811 0.79949 0.25179 0.0
H1603 H 0.54454 0.79991 0.30315 0.0
H1604 H 0.53644 0.77646 0.37577 0.0
H1605 H 0.57118 0.75503 0.26057 0.0
H1606 H 0.58928 0.75731 0.29724 0.0
H1607 H 0.59033 0.77227 0.24054 0.0
H1608 H 0.60534 0.79442 0.3286 0.0
H1609 H 0.60445 0.77959 0.38504 0.0
H1610 H 0.59643 0.79224 0.40904 0.0
H1611 H 0.53465 0.75533 0.4524 0.0
H1612 H 0.54042 0.73983 0.53389 0.0
H1613 H 0.5853 0.75329 0.43367 0.0
C1614 C 0.57667 0.79439 0.27701 0.0
C1615 C 0.56689 0.80143 0.27148 0.0
C1616 C 0.5522 0.79467 0.30658 0.0
C1617 C 0.54743 0.78128 0.3475 0.0
C1618 C 0.55747 0.77476 0.3527 0.0
C1619 C 0.57182 0.78112 0.31854 0.0
C1620 C 0.58136 0.77319 0.33886 0.0
C1621 C 0.58313 0.7639 0.28084 0.0
C1622 C 0.59786 0.78559 0.36708 0.0
C1623 C 0.57045 0.76185 0.39178 0.0
C1624 C 0.55656 0.76266 0.3979 0.0
C1625 C 0.54535 0.75438 0.44738 0.0
C1626 C 0.54873 0.74559 0.49345 0.0
C1627 C 0.5633 0.74531 0.49016 0.0
C1628 C 0.57394 0.75303 0.43699 0.0
H1629 H 0.22158 0.82217 0.45996 0.0
H1630 H 0.26323 0.81589 0.46611 0.0
H1631 H 0.2511 0.79519 0.37873 0.0
H1632 H 0.19306 0.78182 0.44569 0.0
H1633 H 0.17993 0.78476 0.39121 0.0
H1634 H 0.19272 0.80039 0.44778 0.0
H1635 H 0.20515 0.82049 0.35065 0.0
H1636 H 0.19226 0.80495 0.2937 0.0
H1637 H 0.21371 0.81554 0.28163 0.0
H1638 H 0.23319 0.77352 0.29782 0.0
H1639 H 0.21138 0.75308 0.22872 0.0
H1640 H 0.18146 0.77357 0.27839 0.0
C1641 C 0.22835 0.8167 0.44217 0.0
C1642 C 0.24339 0.82069 0.46967 0.0
C1643 C 0.25174 0.8131 0.44539 0.0
C1644 C 0.24493 0.80133 0.39587 0.0
C1645 C 0.22985 0.79739 0.37118 0.0
C1646 C 0.22174 0.80496 0.39326 0.0
C1647 C 0.20528 0.79791 0.36213 0.0
C1648 C 0.19197 0.7908 0.41485 0.0
C1649 C 0.20404 0.81047 0.31948 0.0
C1650 C 0.20521 0.78491 0.32006 0.0
C1651 C 0.21953 0.78487 0.32539 0.0
C1652 C 0.222 0.77355 0.2928 0.0
C1653 C 0.20952 0.76196 0.25382 0.0
C1654 C 0.19471 0.76173 0.24815 0.0
C1655 C 0.19264 0.77345 0.28153 0.0
H1656 H 0.16325 0.40722 0.41735 0.0
H1657 H 0.19622 0.44654 0.54341 0.0
H1658 H 0.21878 0.4506 0.47292 0.0
H1659 H 0.18711 0.39057 0.39225 0.0
H1660 H 0.18202 0.38525 0.30674 0.0
H1661 H 0.16796 0.38671 0.36078 0.0
H1662 H 0.16679 0.40741 0.28253 0.0
H1663 H 0.18064 0.40581 0.22741 0.0
H1664 H 0.18515 0.42517 0.25872 0.0
H1665 H 0.23801 0.44753 0.40146 0.0
H1666 H 0.25266 0.44005 0.3224 0.0
H1667 H 0.20745 0.40373 0.23802 0.0
C1668 C 0.17514 0.417 0.42898 0.0
C1669 C 0.17795 0.42653 0.48602 0.0
C1670 C 0.19373 0.4391 0.49993 0.0
C1671 C 0.20666 0.44149 0.46026 0.0
C1672 C 0.20357 0.43141 0.40625 0.0
C1673 C 0.18819 0.41966 0.3895 0.0
C1674 C 0.18831 0.40994 0.3308 0.0
C1675 C 0.18092 0.39206 0.34876 0.0
C1676 C 0.17972 0.41222 0.27133 0.0
C1677 C 0.20621 0.4177 0.3188 0.0
C1678 C 0.21477 0.43004 0.36305 0.0
C1679 C 0.23147 0.43815 0.36553 0.0
C1680 C 0.23966 0.43371 0.3209 0.0
C1681 C 0.23116 0.4214 0.274 0.0
C1682 C 0.21422 0.41335 0.2728 0.0
H1683 H 0.46743 0.89062 0.45471 0.0
H1684 H 0.47112 0.92601 0.59717 0.0
H1685 H 0.44678 0.92468 0.55029 0.0
H1686 H 0.45708 0.90651 0.32148 0.0
H1687 H 0.44356 0.88742 0.28401 0.0
H1688 H 0.45981 0.88949 0.33484 0.0
H1689 H 0.4395 0.86597 0.4084 0.0
H1690 H 0.42315 0.86396 0.35798 0.0
H1691 H 0.42302 0.86699 0.44577 0.0
H1692 H 0.42354 0.92124 0.48255 0.0
H1693 H 0.40503 0.91817 0.39214 0.0
H1694 H 0.4168 0.88541 0.29246 0.0
C1695 C 0.46293 0.89786 0.47677 0.0
C1696 C 0.47107 0.90834 0.52975 0.0
C1697 C 0.46505 0.9179 0.55645 0.0
C1698 C 0.45116 0.91712 0.53059 0.0
C1699 C 0.44346 0.90674 0.47799 0.0
C1700 C 0.4492 0.89737 0.45104 0.0
C1701 C 0.43975 0.88854 0.39024 0.0
C1702 C 0.4507 0.89328 0.32906 0.0
C1703 C 0.43082 0.87028 0.40129 0.0
C1704 C 0.42814 0.89481 0.38603 0.0
C1705 C 0.43023 0.90501 0.43792 0.0
C1706 C 0.42164 0.91312 0.4421 0.0
C1707 C 0.41111 0.91126 0.39054 0.0
C1708 C 0.40945 0.90155 0.33519 0.0
C1709 C 0.41767 0.8928 0.33436 0.0
H1710 H 0.06297 0.53573 0.57815 0.0
H1711 H 0.11447 0.56835 0.57744 0.0
H1712 H 0.11802 0.5498 0.50468 0.0
H1713 H 0.06422 0.49741 0.56692 0.0
H1714 H 0.04712 0.48848 0.51238 0.0
H1715 H 0.04884 0.50282 0.57382 0.0
H1716 H 0.04611 0.52021 0.48251 0.0
H1717 H 0.04435 0.50595 0.42109 0.0
H1718 H 0.05971 0.52674 0.41324 0.0
H1719 H 0.11574 0.52984 0.42075 0.0
H1720 H 0.10766 0.51058 0.32847 0.0
H1721 H 0.05765 0.49093 0.38332 0.0
C1722 C 0.07502 0.53874 0.5642 0.0
C1723 C 0.08844 0.55342 0.5837 0.0
C1724 C 0.10401 0.55714 0.56312 0.0
C1725 C 0.10616 0.54663 0.52217 0.0
C1726 C 0.09265 0.53242 0.50246 0.0
C1727 C 0.07737 0.52844 0.5229 0.0
C1728 C 0.06472 0.51342 0.4886 0.0
C1729 C 0.05569 0.49972 0.53841 0.0
C1730 C 0.05305 0.51679 0.44901 0.0
C1731 C 0.07523 0.51 0.4436 0.0
C1732 C 0.09131 0.5209 0.45332 0.0
C1733 C 0.1032 0.52104 0.41348 0.0
C1734 C 0.09849 0.51006 0.36112 0.0
C1735 C 0.08203 0.4992 0.3488 0.0
C1736 C 0.07034 0.49889 0.392 0.0
H1737 H 0.4488 0.52707 0.57191 0.0
H1738 H 0.424 0.5543 0.58314 0.0
H1739 H 0.44486 0.57536 0.51257 0.0
H1740 H 0.48977 0.56172 0.57242 0.0
H1741 H 0.49692 0.55238 0.51505 0.0
H1742 H 0.48077 0.54017 0.57094 0.0
H1743 H 0.46282 0.52407 0.4719 0.0
H1744 H 0.4789 0.53617 0.41588 0.0
H1745 H 0.45957 0.53466 0.40564 0.0
H1746 H 0.46717 0.59224 0.43245 0.0
H1747 H 0.48898 0.60333 0.34946 0.0
H1748 H 0.49926 0.56523 0.39436 0.0
C1749 C 0.44784 0.53754 0.56023 0.0
C1750 C 0.43478 0.53904 0.58299 0.0
C1751 C 0.43393 0.55291 0.56635 0.0
C1752 C 0.44574 0.56496 0.52645 0.0
C1753 C 0.45838 0.56303 0.50428 0.0
C1754 C 0.45953 0.54969 0.52091 0.0
C1755 C 0.4738 0.55003 0.48809 0.0
C1756 C 0.48604 0.55115 0.53972 0.0
C1757 C 0.46844 0.53537 0.44268 0.0
C1758 C 0.48025 0.56541 0.44888 0.0
C1759 C 0.47131 0.57283 0.45915 0.0
C1760 C 0.47442 0.58666 0.42474 0.0
C1761 C 0.48681 0.59287 0.37773 0.0
C1762 C 0.49588 0.58521 0.3657 0.0
C1763 C 0.49271 0.57152 0.40292 0.0
H1764 H 0.08202 0.58766 0.92041 0.0
H1765 H 0.1268 0.5967 0.831 0.0
H1766 H 0.12911 0.57923 0.91386 0.0
H1767 H 0.09272 0.58274 0.09798 0.0
H1768 H 0.07237 0.56697 0.11284 0.0
H1769 H 0.07626 0.58324 0.0576 0.0
H1770 H 0.06037 0.56259 0.96578 0.0
H1771 H 0.05673 0.5463 0.0198 0.0
H1772 H 0.06638 0.54835 0.94125 0.0
H1773 H 0.12338 0.55631 0.98608 0.0
H1774 H 0.11158 0.53159 0.05316 0.0
H1775 H 0.07091 0.53761 0.09988 0.0
C1776 C 0.0927 0.58658 0.92014 0.0
C1777 C 0.10424 0.59356 0.86925 0.0
C1778 C 0.11783 0.59152 0.86962 0.0
C1779 C 0.11926 0.58161 0.91656 0.0
C1780 C 0.10712 0.57404 0.96336 0.0
C1781 C 0.09427 0.57668 0.96663 0.0
C1782 C 0.0819 0.56559 0.01647 0.0
C1783 C 0.08075 0.57521 0.07469 0.0
C1784 C 0.06538 0.55509 0.98383 0.0
C1785 C 0.08934 0.55566 0.03769 0.0
C1786 C 0.10398 0.56087 0.00693 0.0
C1787 C 0.11221 0.55243 0.01212 0.0
C1788 C 0.10534 0.53833 0.04973 0.0
C1789 C 0.09046 0.53287 0.08203 0.0
C1790 C 0.0825 0.54179 0.07687 0.0
H1791 H 0.47317 0.54061 0.11199 0.0
H1792 H 0.48077 0.58692 0.04708 0.0
H1793 H 0.45728 0.57337 0.97348 0.0
H1794 H 0.46351 0.52271 0.95442 0.0
H1795 H 0.44872 0.50307 0.98358 0.0
H1796 H 0.46494 0.51639 0.03675 0.0
H1797 H 0.44432 0.51379 0.12543 0.0
H1798 H 0.42802 0.50061 0.07195 0.0
H1799 H 0.42898 0.51855 0.10402 0.0
H1800 H 0.43401 0.5551 0.9031 0.0
H1801 H 0.41483 0.53356 0.82989 0.0
H1802 H 0.42275 0.49902 0.93724 0.0
C1803 C 0.46974 0.54787 0.08285 0.0
C1804 C 0.47871 0.5648 0.08547 0.0
C1805 C 0.47408 0.57392 0.04571 0.0
C1806 C 0.46066 0.56634 0.00425 0.0
C1807 C 0.45205 0.54963 0.0028 0.0
C1808 C 0.4565 0.54048 0.04036 0.0
C1809 C 0.44616 0.52278 0.02459 0.0
C1810 C 0.45645 0.51584 0.99825 0.0
C1811 C 0.43629 0.51338 0.08511 0.0
C1812 C 0.43548 0.52347 0.97118 0.0
C1813 C 0.43884 0.53904 0.9605 0.0
C1814 C 0.43117 0.54283 0.91129 0.0
C1815 C 0.42024 0.53049 0.87005 0.0
C1816 C 0.41728 0.51458 0.8777 0.0
C1817 C 0.42461 0.511 0.93046 0.0
H1818 H 0.47923 0.89187 0.78316 0.0
H1819 H 0.519 0.92664 0.90243 0.0
H1820 H 0.50013 0.92299 0.99199 0.0
H1821 H 0.45373 0.90508 0.81796 0.0
H1822 H 0.43551 0.88587 0.82164 0.0
H1823 H 0.45213 0.88819 0.77275 0.0
H1824 H 0.45252 0.86504 0.8365 0.0
H1825 H 0.43562 0.86236 0.88489 0.0
H1826 H 0.45374 0.86574 0.92538 0.0
H1827 H 0.47695 0.92011 0.0571 0.0
H1828 H 0.45106 0.91577 0.09972 0.0
H1829 H 0.42612 0.88228 0.9403 0.0
C1830 C 0.48407 0.89824 0.82909 0.0
C1831 C 0.50061 0.90956 0.83571 0.0
C1832 C 0.5064 0.91786 0.89624 0.0
C1833 C 0.49576 0.91588 0.94744 0.0
C1834 C 0.47942 0.90536 0.9377 0.0
C1835 C 0.47361 0.89639 0.88064 0.0
C1836 C 0.45541 0.8872 0.87964 0.0
C1837 C 0.44882 0.89188 0.81945 0.0
C1838 C 0.44894 0.869 0.88175 0.0
C1839 C 0.4519 0.89306 0.9434 0.0
C1840 C 0.46592 0.90342 0.97639 0.0
C1841 C 0.46588 0.91169 0.03274 0.0
C1842 C 0.45113 0.90927 0.05616 0.0
C1843 C 0.43662 0.89861 0.02344 0.0
C1844 C 0.43702 0.89026 0.96689 0.0
H1845 H 0.20183 0.40503 0.74343 0.0
H1846 H 0.19279 0.44148 0.82532 0.0
H1847 H 0.21529 0.44958 0.90304 0.0
H1848 H 0.20988 0.3928 0.8956 0.0
H1849 H 0.22526 0.38914 0.86378 0.0
H1850 H 0.20956 0.38739 0.81014 0.0
H1851 H 0.23098 0.40796 0.72982 0.0
H1852 H 0.24676 0.4099 0.78377 0.0
H1853 H 0.24579 0.42746 0.76014 0.0
H1854 H 0.23761 0.45275 0.97572 0.0
H1855 H 0.25641 0.44898 0.04576 0.0
H1856 H 0.25072 0.41016 0.91821 0.0
C1857 C 0.20472 0.41485 0.77718 0.0
C1858 C 0.19563 0.42268 0.77814 0.0
C1859 C 0.19959 0.43529 0.82377 0.0
C1860 C 0.21243 0.44008 0.86774 0.0
C1861 C 0.22117 0.43211 0.86555 0.0
C1862 C 0.21741 0.41968 0.82189 0.0
C1863 C 0.22782 0.41221 0.83355 0.0
C1864 C 0.21752 0.39434 0.85188 0.0
C1865 C 0.23847 0.41453 0.77322 0.0
C1866 C 0.23774 0.42215 0.89161 0.0
C1867 C 0.23391 0.43375 0.90847 0.0
C1868 C 0.24083 0.44381 0.96267 0.0
C1869 C 0.25153 0.44159 0.00209 0.0
C1870 C 0.25507 0.42928 0.98747 0.0
C1871 C 0.24842 0.41979 0.93032 0.0
H1872 H 0.59954 0.80418 0.77475 0.0
H1873 H 0.55003 0.76532 0.77278 0.0
H1874 H 0.54201 0.78193 0.83673 0.0
H1875 H 0.59974 0.81506 0.93703 0.0
H1876 H 0.61244 0.83637 0.92483 0.0
H1877 H 0.61386 0.82253 0.86956 0.0
H1878 H 0.6085 0.83623 0.7702 0.0
H1879 H 0.60694 0.85005 0.82566 0.0
H1880 H 0.59073 0.83805 0.76959 0.0
H1881 H 0.53983 0.80076 0.91337 0.0
H1882 H 0.54399 0.82023 0.0014 0.0
H1883 H 0.59468 0.84728 0.95284 0.0
C1884 C 0.58697 0.79934 0.78638 0.0
C1885 C 0.57541 0.78349 0.76859 0.0
C1886 C 0.55911 0.77743 0.78595 0.0
C1887 C 0.5544 0.78682 0.82181 0.0
C1888 C 0.5661 0.80229 0.83973 0.0
C1889 C 0.58206 0.80855 0.82262 0.0
C1890 C 0.59248 0.82481 0.85437 0.0
C1891 C 0.60537 0.82467 0.89911 0.0
C1892 C 0.60011 0.83807 0.8018 0.0
C1893 C 0.57998 0.82634 0.89422 0.0
C1894 C 0.5648 0.81335 0.88408 0.0
C1895 C 0.55158 0.81119 0.92067 0.0
C1896 C 0.55404 0.82229 0.97055 0.0
C1897 C 0.56959 0.83535 0.98328 0.0
C1898 C 0.58258 0.83768 0.94297 0.0
H1899 H 0.22196 0.8161 0.78036 0.0
H1900 H 0.23734 0.78377 0.70416 0.0
H1901 H 0.21771 0.76218 0.77636 0.0
H1902 H 0.21779 0.80354 0.94495 0.0
H1903 H 0.20035 0.80535 0.96142 0.0
H1904 H 0.2145 0.81773 0.89922 0.0
H1905 H 0.19163 0.80726 0.81245 0.0
H1906 H 0.17738 0.79485 0.87453 0.0
H1907 H 0.17924 0.78595 0.79916 0.0
H1908 H 0.19775 0.7447 0.86338 0.0
H1909 H 0.17922 0.73297 0.95835 0.0
H1910 H 0.17706 0.77685 0.97596 0.0
C1911 C 0.22102 0.80441 0.77803 0.0
C1912 C 0.23116 0.80162 0.73653 0.0
C1913 C 0.22969 0.78619 0.73556 0.0
C1914 C 0.21854 0.77383 0.77625 0.0
C1915 C 0.2089 0.77706 0.81738 0.0
C1916 C 0.20999 0.79196 0.81833 0.0
C1917 C 0.19892 0.79263 0.86958 0.0
C1918 C 0.20846 0.80557 0.92187 0.0
C1919 C 0.18602 0.79533 0.83696 0.0
C1920 C 0.19169 0.77591 0.89826 0.0
C1921 C 0.19746 0.76703 0.86726 0.0
C1922 C 0.19301 0.75148 0.88758 0.0
C1923 C 0.1825 0.74492 0.94151 0.0
C1924 C 0.17667 0.75396 0.97445 0.0
C1925 C 0.18121 0.76956 0.95168 0.0
H1926 H 0.37635 0.14017 0.85664 0.0
H1927 H 0.37394 0.09386 0.85463 0.0
H1928 H 0.34573 0.08086 0.89217 0.0
H1929 H 0.35329 0.13342 0.00262 0.0
H1930 H 0.34344 0.14401 0.97354 0.0
H1931 H 0.36318 0.14954 0.94384 0.0
H1932 H 0.35286 0.14529 0.82314 0.0
H1933 H 0.33309 0.13982 0.85245 0.0
H1934 H 0.33583 0.12631 0.79956 0.0
H1935 H 0.31798 0.07308 0.93355 0.0
H1936 H 0.29273 0.07108 0.97314 0.0
H1937 H 0.31357 0.12255 0.94788 0.0
C1938 C 0.36987 0.12727 0.86341 0.0
C1939 C 0.37735 0.11802 0.85249 0.0
C1940 C 0.36846 0.10119 0.86259 0.0
C1941 C 0.35243 0.0937 0.88393 0.0
C1942 C 0.34549 0.10321 0.89496 0.0
C1943 C 0.35392 0.11962 0.88485 0.0
C1944 C 0.34384 0.12719 0.90169 0.0
C1945 C 0.35139 0.13925 0.95882 0.0
C1946 C 0.34125 0.13511 0.84055 0.0
C1947 C 0.32841 0.11247 0.92287 0.0
C1948 C 0.32959 0.09875 0.91875 0.0
C1949 C 0.31691 0.08374 0.93674 0.0
C1950 C 0.30263 0.08273 0.9593 0.0
C1951 C 0.30116 0.09664 0.96354 0.0
C1952 C 0.31427 0.11167 0.94502 0.0
H1953 H 0.8991 0.21313 0.03852 0.0
H1954 H 0.915 0.20039 0.85943 0.0
H1955 H 0.90436 0.21445 0.79292 0.0
H1956 H 0.86246 0.20766 0.97432 0.0
H1957 H 0.86334 0.2244 0.01806 0.0
H1958 H 0.87298 0.21408 0.05193 0.0
H1959 H 0.89998 0.24096 0.05756 0.0
H1960 H 0.8904 0.25137 0.02358 0.0
H1961 H 0.90789 0.25291 0.98389 0.0
H1962 H 0.89052 0.22844 0.74523 0.0
H1963 H 0.87468 0.24163 0.72042 0.0
H1964 H 0.86845 0.24577 0.93049 0.0
C1965 C 0.90047 0.21341 0.98538 0.0
C1966 C 0.9079 0.20567 0.95429 0.0
C1967 C 0.90939 0.20627 0.88451 0.0
C1968 C 0.9034 0.21424 0.8462 0.0
C1969 C 0.89605 0.22166 0.87835 0.0
C1970 C 0.89462 0.22138 0.94635 0.0
C1971 C 0.88577 0.22989 0.96848 0.0
C1972 C 0.87022 0.21831 0.00535 0.0
C1973 C 0.89666 0.24466 0.01088 0.0
C1974 C 0.88224 0.23475 0.90226 0.0
C1975 C 0.8883 0.22994 0.85087 0.0
C1976 C 0.88586 0.23243 0.78507 0.0
C1977 C 0.87685 0.23991 0.77144 0.0
C1978 C 0.87044 0.24484 0.82343 0.0
C1979 C 0.87338 0.24236 0.8896 0.0
H1980 H 0.75135 0.6183 0.90529 0.0
H1981 H 0.76026 0.63438 0.70146 0.0
H1982 H 0.77472 0.6626 0.7394 0.0
H1983 H 0.74659 0.65123 0.97235 0.0
H1984 H 0.75697 0.6522 0.04784 0.0
H1985 H 0.74583 0.63339 0.00463 0.0
H1986 H 0.77126 0.63066 0.00021 0.0
H1987 H 0.78251 0.64946 0.04307 0.0
H1988 H 0.78942 0.64659 0.96427 0.0
H1989 H 0.78948 0.68882 0.79917 0.0
H1990 H 0.80442 0.71133 0.87608 0.0
H1991 H 0.78672 0.67814 0.04152 0.0
C1992 C 0.75603 0.62776 0.86859 0.0
C1993 C 0.75454 0.62418 0.80035 0.0
C1994 C 0.7612 0.63688 0.75392 0.0
C1995 C 0.76939 0.65292 0.77501 0.0
C1996 C 0.77087 0.65603 0.84267 0.0
C1997 C 0.76441 0.64382 0.8888 0.0
C1998 C 0.76875 0.65034 0.95848 0.0
C1999 C 0.75363 0.64657 0.99815 0.0
C2000 C 0.77857 0.64388 0.99353 0.0
C2001 C 0.77888 0.66815 0.9443 0.0
C2002 C 0.77977 0.67117 0.87722 0.0
C2003 C 0.78879 0.68662 0.85181 0.0
C2004 C 0.79725 0.69934 0.89601 0.0
C2005 C 0.79676 0.69652 0.96496 0.0
C2006 C 0.78729 0.68071 0.98921 0.0
H2007 H 0.13177 0.37259 0.57565 0.0
H2008 H 0.12119 0.35913 0.78197 0.0
H2009 H 0.10607 0.3305 0.74972 0.0
H2010 H 0.09392 0.34201 0.50846 0.0
H2011 H 0.10296 0.33879 0.43644 0.0
H2012 H 0.11239 0.35819 0.47572 0.0
H2013 H 0.13871 0.35726 0.4883 0.0
H2014 H 0.12937 0.33783 0.44924 0.0
H2015 H 0.13827 0.34046 0.52993 0.0
H2016 H 0.09219 0.30346 0.69494 0.0
H2017 H 0.08124 0.27975 0.62222 0.0
H2018 H 0.10176 0.31088 0.45176 0.0
C2019 C 0.12615 0.36364 0.61408 0.0
C2020 C 0.12754 0.36807 0.68135 0.0
C2021 C 0.12024 0.35599 0.73016 0.0
C2022 C 0.11162 0.33972 0.71231 0.0
C2023 C 0.11055 0.33577 0.64554 0.0
C2024 C 0.11768 0.34738 0.59722 0.0
C2025 C 0.1152 0.33994 0.52922 0.0
C2026 C 0.10554 0.34504 0.48486 0.0
C2027 C 0.13135 0.34412 0.49732 0.0
C2028 C 0.10554 0.3223 0.5468 0.0
C2029 C 0.1029 0.32017 0.61411 0.0
C2030 C 0.09417 0.30497 0.64218 0.0
C2031 C 0.08798 0.29158 0.60038 0.0
C2032 C 0.09065 0.29346 0.53126 0.0
C2033 C 0.09958 0.30906 0.50436 0.0
H2034 H 0.68107 0.79079 0.46227 0.0
H2035 H 0.70539 0.77194 0.58184 0.0
H2036 H 0.68127 0.7577 0.65185 0.0
H2037 H 0.66138 0.79805 0.59299 0.0
H2038 H 0.6431 0.79216 0.5479 0.0
H2039 H 0.66186 0.80004 0.50436 0.0
H2040 H 0.64997 0.77447 0.43145 0.0
H2041 H 0.63111 0.76659 0.47434 0.0
H2042 H 0.64112 0.75501 0.47023 0.0
H2043 H 0.65508 0.74693 0.71328 0.0
H2044 H 0.62814 0.73906 0.75704 0.0
H2045 H 0.62103 0.7648 0.59646 0.0
C2046 C 0.68126 0.78348 0.50254 0.0
C2047 C 0.69513 0.78247 0.51643 0.0
C2048 C 0.69489 0.77285 0.56997 0.0
C2049 C 0.68126 0.76475 0.61018 0.0
C2050 C 0.66793 0.76629 0.59598 0.0
C2051 C 0.66776 0.77528 0.54303 0.0
C2052 C 0.65204 0.77529 0.5393 0.0
C2053 C 0.65477 0.7924 0.54659 0.0
C2054 C 0.64303 0.76736 0.47502 0.0
C2055 C 0.64349 0.76507 0.59888 0.0
C2056 C 0.65284 0.76 0.63099 0.0
C2057 C 0.6476 0.75072 0.68825 0.0
C2058 C 0.63231 0.74637 0.71289 0.0
C2059 C 0.62246 0.75128 0.68017 0.0
C2060 C 0.62823 0.76079 0.62255 0.0
H2061 H 0.20406 0.91487 0.59199 0.0
H2062 H 0.23357 0.93623 0.4181 0.0
H2063 H 0.24981 0.92372 0.44765 0.0
H2064 H 0.23585 0.9178 0.70137 0.0
H2065 H 0.22279 0.89865 0.7394 0.0
H2066 H 0.21463 0.91064 0.70822 0.0
H2067 H 0.19461 0.8868 0.63553 0.0
H2068 H 0.20268 0.87475 0.66637 0.0
H2069 H 0.20214 0.8777 0.5787 0.0
H2070 H 0.26171 0.90753 0.49279 0.0
H2071 H 0.2676 0.88802 0.5464 0.0
H2072 H 0.22971 0.87675 0.68911 0.0
C2073 C 0.21412 0.91719 0.56067 0.0
C2074 C 0.21764 0.92664 0.50296 0.0
C2075 C 0.2307 0.92908 0.46266 0.0
C2076 C 0.24002 0.92207 0.47919 0.0
C2077 C 0.23607 0.91265 0.53605 0.0
C2078 C 0.22341 0.91019 0.57608 0.0
C2079 C 0.22089 0.89862 0.63166 0.0
C2080 C 0.22371 0.90693 0.69916 0.0
C2081 C 0.20409 0.88358 0.62778 0.0
C2082 C 0.23392 0.89469 0.61601 0.0
C2083 C 0.2427 0.90308 0.56124 0.0
C2084 C 0.255 0.901 0.536 0.0
C2085 C 0.25826 0.88988 0.56689 0.0
C2086 C 0.24913 0.88085 0.62208 0.0
C2087 C 0.23697 0.88352 0.64733 0.0
H2088 H 0.68035 0.88581 0.96792 0.0
H2089 H 0.71075 0.92639 0.09385 0.0
H2090 H 0.6877 0.91935 0.16731 0.0
H2091 H 0.64434 0.88905 0.98428 0.0
H2092 H 0.63109 0.8676 0.98433 0.0
H2093 H 0.64989 0.87622 0.94056 0.0
H2094 H 0.65769 0.85807 0.00678 0.0
H2095 H 0.63898 0.84953 0.05108 0.0
H2096 H 0.6577 0.85866 0.09577 0.0
H2097 H 0.66162 0.90708 0.23032 0.0
H2098 H 0.63385 0.89165 0.2731 0.0
H2099 H 0.62062 0.85947 0.10491 0.0
C2100 C 0.68214 0.89333 0.01053 0.0
C2101 C 0.69737 0.90665 0.02506 0.0
C2102 C 0.69919 0.91615 0.08147 0.0
C2103 C 0.68618 0.91223 0.1237 0.0
C2104 C 0.67141 0.89883 0.10862 0.0
C2105 C 0.66927 0.88964 0.05298 0.0
C2106 C 0.65218 0.87582 0.04812 0.0
C2107 C 0.64389 0.87727 0.98563 0.0
C2108 C 0.65162 0.85956 0.05062 0.0
C2109 C 0.6451 0.87863 0.10999 0.0
C2110 C 0.65638 0.89191 0.1444 0.0
C2111 C 0.65265 0.8967 0.20361 0.0
C2112 C 0.63688 0.88783 0.22769 0.0
C2113 C 0.62507 0.87438 0.19237 0.0
C2114 C 0.62935 0.86971 0.13306 0.0
H2115 H 0.12745 0.77142 0.17217 0.0
H2116 H 0.10566 0.72537 0.07177 0.0
H2117 H 0.08579 0.73118 0.02072 0.0
H2118 H 0.0902 0.77213 0.20262 0.0
H2119 H 0.09969 0.79344 0.18792 0.0
H2120 H 0.11123 0.78495 0.22077 0.0
H2121 H 0.13154 0.79767 0.12452 0.0
H2122 H 0.12 0.80607 0.09109 0.0
H2123 H 0.12441 0.79333 0.04052 0.0
H2124 H 0.0695 0.74298 0.97421 0.0
H2125 H 0.0577 0.75951 0.93908 0.0
H2126 H 0.09044 0.79766 0.0701 0.0
C2127 C 0.11833 0.76241 0.14043 0.0
C2128 C 0.11809 0.74792 0.12615 0.0
C2129 C 0.10606 0.73655 0.08363 0.0
C2130 C 0.09472 0.73973 0.05435 0.0
C2131 C 0.09554 0.7543 0.06831 0.0
C2132 C 0.10697 0.7654 0.11074 0.0
C2133 C 0.10577 0.78046 0.11528 0.0
C2134 C 0.10146 0.78288 0.18584 0.0
C2135 C 0.12135 0.79525 0.09141 0.0
C2136 C 0.09206 0.77622 0.06798 0.0
C2137 C 0.08623 0.76107 0.04154 0.0
C2138 C 0.07387 0.75481 0.99504 0.0
C2139 C 0.06728 0.7643 0.97524 0.0
C2140 C 0.07311 0.77986 0.00185 0.0
C2141 C 0.08563 0.78579 0.04894 0.0
H2142 H 0.22387 0.35617 0.1683 0.0
H2143 H 0.2697 0.38074 0.06622 0.0
H2144 H 0.26162 0.35663 0.998 0.0
H2145 H 0.22013 0.31647 0.16971 0.0
H2146 H 0.19873 0.30624 0.15663 0.0
H2147 H 0.20853 0.32518 0.19958 0.0
H2148 H 0.19652 0.33671 0.11586 0.0
H2149 H 0.18686 0.31788 0.07222 0.0
H2150 H 0.20018 0.33616 0.02884 0.0
H2151 H 0.24798 0.33032 0.93676 0.0
H2152 H 0.23042 0.30307 0.89214 0.0
H2153 H 0.19364 0.29581 0.03469 0.0
C2154 C 0.23232 0.35642 0.13227 0.0
C2155 C 0.24743 0.37035 0.12275 0.0
C2156 C 0.25807 0.3702 0.07467 0.0
C2157 C 0.25358 0.35658 0.03549 0.0
C2158 C 0.23845 0.34318 0.04517 0.0
C2159 C 0.22805 0.34293 0.09283 0.0
C2160 C 0.21237 0.32712 0.09253 0.0
C2161 C 0.2098 0.31823 0.15853 0.0
C2162 C 0.19815 0.32963 0.07638 0.0
C2163 C 0.21554 0.31857 0.03689 0.0
C2164 C 0.23064 0.32803 0.01012 0.0
C2165 C 0.23616 0.32276 0.95756 0.0
C2166 C 0.22607 0.30729 0.93237 0.0
C2167 C 0.21066 0.2973 0.95986 0.0
C2168 C 0.20535 0.30313 0.01252 0.0
H2169 H 0.88241 0.63677 0.43737 0.0
H2170 H 0.85381 0.63444 0.26728 0.0
H2171 H 0.86271 0.66321 0.28087 0.0
H2172 H 0.87444 0.66276 0.53385 0.0
H2173 H 0.89436 0.67382 0.56826 0.0
H2174 H 0.88638 0.65323 0.54349 0.0
H2175 H 0.91091 0.66157 0.467 0.0
H2176 H 0.91903 0.68219 0.49189 0.0
H2177 H 0.91585 0.67693 0.40559 0.0
H2178 H 0.87385 0.69189 0.31538 0.0
H2179 H 0.88715 0.71878 0.36635 0.0
H2180 H 0.90852 0.70243 0.514 0.0
C2181 C 0.87813 0.64232 0.40255 0.0
C2182 C 0.86742 0.63334 0.35118 0.0
C2183 C 0.86204 0.64108 0.30691 0.0
C2184 C 0.86701 0.65741 0.31426 0.0
C2185 C 0.87739 0.66584 0.36596 0.0
C2186 C 0.88297 0.6586 0.40912 0.0
C2187 C 0.89382 0.6703 0.46122 0.0
C2188 C 0.88682 0.66469 0.53081 0.0
C2189 C 0.91092 0.6729 0.45609 0.0
C2190 C 0.89335 0.68521 0.441 0.0
C2191 C 0.88382 0.68238 0.38589 0.0
C2192 C 0.88137 0.69426 0.35848 0.0
C2193 C 0.88892 0.70948 0.38802 0.0
C2194 C 0.89881 0.71268 0.44439 0.0
C2195 C 0.90103 0.70035 0.47102 0.0
H2196 H 0.3059 0.21114 0.48211 0.0
H2197 H 0.30588 0.18049 0.63983 0.0
H2198 H 0.33424 0.18929 0.61595 0.0
H2199 H 0.33032 0.20419 0.36994 0.0
H2200 H 0.34098 0.22452 0.3394 0.0
H2201 H 0.32079 0.21625 0.37001 0.0
H2202 H 0.33036 0.23982 0.45288 0.0
H2203 H 0.35057 0.24821 0.4223 0.0
H2204 H 0.34652 0.24396 0.5091 0.0
H2205 H 0.36207 0.20049 0.57282 0.0
H2206 H 0.38815 0.21424 0.516 0.0
H2207 H 0.37051 0.23811 0.38707 0.0
C2208 C 0.31189 0.20636 0.51202 0.0
C2209 C 0.30367 0.19513 0.56297 0.0
C2210 C 0.31193 0.18914 0.6007 0.0
C2211 C 0.32803 0.19404 0.58745 0.0
C2212 C 0.33571 0.20498 0.53649 0.0
C2213 C 0.32798 0.21116 0.49958 0.0
C2214 C 0.33899 0.22266 0.44717 0.0
C2215 C 0.33237 0.21653 0.37751 0.0
C2216 C 0.34177 0.23967 0.45857 0.0
C2217 C 0.35411 0.2219 0.46021 0.0
C2218 C 0.3519 0.2116 0.51189 0.0
C2219 C 0.36398 0.20867 0.53258 0.0
C2220 C 0.37877 0.21655 0.49991 0.0
C2221 C 0.38144 0.22734 0.44734 0.0
C2222 C 0.36888 0.22999 0.42721 0.0
H2223 H 0.80563 0.09877 0.44034 0.0
H2224 H 0.77991 0.07926 0.62415 0.0
H2225 H 0.76243 0.09061 0.59865 0.0
H2226 H 0.80547 0.13574 0.44709 0.0
H2227 H 0.80298 0.13663 0.35925 0.0
H2228 H 0.81297 0.12644 0.3911 0.0
H2229 H 0.79284 0.1006 0.32853 0.0
H2230 H 0.78274 0.11069 0.29667 0.0
H2231 H 0.7716 0.09218 0.34195 0.0
H2232 H 0.74789 0.10429 0.55291 0.0
H2233 H 0.73837 0.12043 0.49396 0.0
H2234 H 0.7741 0.13136 0.3413 0.0
C2235 C 0.79628 0.0968 0.47522 0.0
C2236 C 0.7941 0.08807 0.53421 0.0
C2237 C 0.78181 0.08591 0.5787 0.0
C2238 C 0.7718 0.09226 0.56452 0.0
C2239 C 0.77427 0.10078 0.50581 0.0
C2240 C 0.78628 0.10313 0.46209 0.0
C2241 C 0.78682 0.11317 0.40348 0.0
C2242 C 0.80302 0.12893 0.40008 0.0
C2243 C 0.78328 0.10358 0.33884 0.0
C2244 C 0.77328 0.1162 0.42116 0.0
C2245 C 0.7661 0.10884 0.48006 0.0
C2246 C 0.75341 0.11008 0.50671 0.0
C2247 C 0.74807 0.11925 0.47273 0.0
C2248 C 0.75548 0.12717 0.41294 0.0
C2249 C 0.76815 0.12545 0.38677 0.0
H2250 H 0.95479 0.44611 0.2252 0.0
H2251 H 0.94993 0.40129 0.29644 0.0
H2252 H 0.97707 0.40946 0.25434 0.0
H2253 H 0.97716 0.44905 0.07564 0.0
H2254 H 0.98973 0.47054 0.08173 0.0
H2255 H 0.96958 0.46084 0.11404 0.0
H2256 H 0.98035 0.47362 0.22869 0.0
H2257 H 0.00052 0.48353 0.19686 0.0
H2258 H 0.99552 0.47078 0.26851 0.0
H2259 H 0.00524 0.42318 0.2104 0.0
H2260 H 0.03271 0.44174 0.17094 0.0
H2261 H 0.01901 0.47749 0.12761 0.0
C2262 C 0.95937 0.43795 0.23168 0.0
C2263 C 0.95025 0.42306 0.2642 0.0
C2264 C 0.95671 0.41276 0.27169 0.0
C2265 C 0.97208 0.41726 0.24772 0.0
C2266 C 0.98077 0.43205 0.21608 0.0
C2267 C 0.97465 0.44224 0.20802 0.0
C2268 C 0.98669 0.45777 0.1749 0.0
C2269 C 0.98041 0.45965 0.10757 0.0
C2270 C 0.99103 0.47227 0.21994 0.0
C2271 C 0.0007 0.45489 0.16691 0.0
C2272 C 0.99698 0.43993 0.1904 0.0
C2273 C 0.00825 0.43487 0.19129 0.0
C2274 C 0.02382 0.4455 0.16879 0.0
C2275 C 0.028 0.46105 0.14595 0.0
C2276 C 0.01615 0.46563 0.14395 0.0
H2277 H 0.54054 0.55845 0.14217 0.0
H2278 H 0.55755 0.59757 0.28348 0.0
H2279 H 0.57194 0.58635 0.34407 0.0
H2280 H 0.53312 0.52808 0.25602 0.0
H2281 H 0.53981 0.51749 0.20327 0.0
H2282 H 0.53192 0.52926 0.16751 0.0
H2283 H 0.55807 0.54556 0.09979 0.0
H2284 H 0.56597 0.53371 0.13484 0.0
H2285 H 0.57715 0.55529 0.14181 0.0
H2286 H 0.58258 0.56959 0.39484 0.0
H2287 H 0.59021 0.5495 0.42716 0.0
H2288 H 0.56661 0.52171 0.25167 0.0
C2289 C 0.54753 0.56484 0.18512 0.0
C2290 C 0.54792 0.57891 0.20792 0.0
C2291 C 0.55711 0.5868 0.26479 0.0
C2292 C 0.56531 0.58051 0.29971 0.0
C2293 C 0.56433 0.56639 0.27688 0.0
C2294 C 0.55584 0.55876 0.22043 0.0
C2295 C 0.55628 0.54347 0.20757 0.0
C2296 C 0.53927 0.52871 0.20869 0.0
C2297 C 0.56488 0.54458 0.14212 0.0
C2298 C 0.56607 0.54356 0.26624 0.0
C2299 C 0.57062 0.55686 0.30566 0.0
C2300 C 0.57924 0.55921 0.36396 0.0
C2301 C 0.58345 0.5477 0.38209 0.0
C2302 C 0.57907 0.53407 0.3419 0.0
C2303 C 0.57026 0.53205 0.28328 0.0
H2304 H 0.44852 0.96353 0.21489 0.0
H2305 H 0.3996 0.95088 0.16651 0.0
H2306 H 0.40547 0.97798 0.2007 0.0
H2307 H 0.45262 0.98696 0.35863 0.0
H2308 H 0.47331 0.00162 0.34233 0.0
H2309 H 0.46522 0.98127 0.31397 0.0
H2310 H 0.47388 0.99149 0.1942 0.0
H2311 H 0.48207 0.01188 0.22224 0.0
H2312 H 0.46729 0.00427 0.15721 0.0
H2313 H 0.41677 0.00651 0.24157 0.0
H2314 H 0.43287 0.03448 0.28116 0.0
H2315 H 0.47433 0.02817 0.30142 0.0
C2316 C 0.43902 0.96643 0.21132 0.0
C2317 C 0.4236 0.95508 0.18806 0.0
C2318 C 0.41153 0.9594 0.18406 0.0
C2319 C 0.41473 0.97474 0.20354 0.0
C2320 C 0.43006 0.9856 0.22668 0.0
C2321 C 0.44202 0.98165 0.23029 0.0
C2322 C 0.45754 0.99552 0.25618 0.0
C2323 C 0.46245 0.99107 0.32167 0.0
C2324 C 0.47098 0.00112 0.20436 0.0
C2325 C 0.45247 0.00791 0.26657 0.0
C2326 C 0.43657 0.00197 0.24959 0.0
C2327 C 0.42924 0.01129 0.25496 0.0
C2328 C 0.43848 0.02715 0.27763 0.0
C2329 C 0.45487 0.03353 0.29437 0.0
C2330 C 0.46184 0.02368 0.28907 0.0
H2331 H 0.56928 0.03178 0.86103 0.0
H2332 H 0.60322 0.06005 0.70728 0.0
H2333 H 0.59404 0.03561 0.64023 0.0
H2334 H 0.57291 0.99561 0.83987 0.0
H2335 H 0.55186 0.98223 0.85557 0.0
H2336 H 0.56206 0.00176 0.89384 0.0
H2337 H 0.54101 0.00814 0.8444 0.0
H2338 H 0.53084 0.98871 0.80559 0.0
H2339 H 0.53766 0.00659 0.75644 0.0
H2340 H 0.5794 0.00865 0.58529 0.0
H2341 H 0.56149 0.98063 0.54962 0.0
H2342 H 0.53764 0.9698 0.74017 0.0
C2343 C 0.57499 0.0328 0.81379 0.0
C2344 C 0.58698 0.04785 0.78951 0.0
C2345 C 0.59406 0.04866 0.72715 0.0
C2346 C 0.58891 0.03484 0.68857 0.0
C2347 C 0.5768 0.02027 0.71329 0.0
C2348 C 0.57006 0.01911 0.77478 0.0
C2349 C 0.55683 0.00209 0.78875 0.0
C2350 C 0.56118 0.99501 0.84802 0.0
C2351 C 0.54063 0.00135 0.7994 0.0
C2352 C 0.55696 0.99396 0.72492 0.0
C2353 C 0.56857 0.00465 0.68206 0.0
C2354 C 0.57041 0.00011 0.61875 0.0
C2355 C 0.56014 0.9842 0.59882 0.0
C2356 C 0.54825 0.97303 0.64221 0.0
C2357 C 0.54674 0.97802 0.70615 0.0
H2358 H 0.04848 0.57248 0.75542 0.0
H2359 H 0.04054 0.59878 0.59966 0.0
H2360 H 0.01268 0.58817 0.63885 0.0
H2361 H 0.0101 0.53734 0.74517 0.0
H2362 H 0.00835 0.53355 0.8328 0.0
H2363 H 0.02788 0.54396 0.79483 0.0
H2364 H 0.03641 0.56768 0.87598 0.0
H2365 H 0.01687 0.55739 0.91412 0.0
H2366 H 0.02453 0.57736 0.88168 0.0
H2367 H 0.98564 0.57427 0.69342 0.0
H2368 H 0.96078 0.5569 0.75494 0.0
H2369 H 0.98623 0.53917 0.87388 0.0
C2370 C 0.04094 0.57613 0.72978 0.0
C2371 C 0.0467 0.58653 0.6746 0.0
C2372 C 0.03638 0.59084 0.64201 0.0
C2373 C 0.02057 0.58493 0.66408 0.0
C2374 C 0.01529 0.5747 0.71861 0.0
C2375 C 0.02513 0.57026 0.7508 0.0
C2376 C 0.01632 0.55852 0.80622 0.0
C2377 C 0.01562 0.54239 0.79398 0.0
C2378 C 0.02399 0.56567 0.87348 0.0
C2379 C -0.00011 0.5569 0.79982 0.0
C2380 C -0.00038 0.56646 0.74942 0.0
C2381 C 0.98572 0.56677 0.73311 0.0
C2382 C 0.97165 0.55685 0.7685 0.0
C2383 C 0.97152 0.54664 0.81937 0.0
C2384 C 0.98593 0.54687 0.83559 0.0
H2385 H 0.42061 0.46527 0.77304 0.0
H2386 H 0.41161 0.44847 0.57008 0.0
H2387 H 0.42161 0.42986 0.59528 0.0
H2388 H 0.45718 0.4657 0.79045 0.0
H2389 H 0.45391 0.45919 0.87535 0.0
H2390 H 0.44472 0.47009 0.84294 0.0
H2391 H 0.4167 0.44704 0.87828 0.0
H2392 H 0.4258 0.43605 0.91102 0.0
H2393 H 0.41003 0.42686 0.85039 0.0
H2394 H 0.43385 0.41416 0.64119 0.0
H2395 H 0.44803 0.40295 0.70324 0.0
H2396 H 0.4495 0.43048 0.87579 0.0
C2397 C 0.4205 0.45751 0.73404 0.0
C2398 C 0.41525 0.45825 0.66961 0.0
C2399 C 0.41554 0.44807 0.6198 0.0
C2400 C 0.42116 0.43744 0.6337 0.0
C2401 C 0.42644 0.43717 0.69756 0.0
C2402 C 0.42616 0.44694 0.74691 0.0
C2403 C 0.43333 0.44501 0.81042 0.0
C2404 C 0.44816 0.46094 0.83095 0.0
C2405 C 0.42071 0.43834 0.86579 0.0
C2406 C 0.43793 0.43278 0.78883 0.0
C2407 C 0.4337 0.4283 0.72378 0.0
C2408 C 0.43712 0.41749 0.69228 0.0
C2409 C 0.44519 0.4112 0.72802 0.0
C2410 C 0.44987 0.41582 0.79449 0.0
C2411 C 0.44603 0.42665 0.82523 0.0
loop_
_geom_bond_atom_site_label_1
_geom_bond_atom_site_label_2
_geom_bond_distance
_geom_bond_site_symmetry_2
_ccdc_geom_bond_type
C0 O1 1.160 . S
C0 O7 1.185 . S
O1 C0 1.160 . S
O2 Zn3 1.899 . S
O2 C10 1.284 . S
Zn3 O2 1.899 . S
Zn3 O4 2.032 . S
Zn3 O7 2.086 . S
Zn3 O12 1.977 1_554 S
O4 Zn3 2.032 . S
O4 C8 1.278 . S
C5 O6 1.203 . S
C5 O12 1.267 . S
O6 C5 1.203 . S
O7 C0 1.185 . S
O7 Zn3 2.086 . S
C8 O4 1.278 . S
C8 O9 1.211 . S
O9 C8 1.211 . S
C10 O2 1.284 . S
C10 O11 1.273 . S
O11 C10 1.273 . S
O12 Zn3 1.977 1_556 S
O12 C5 1.267 . S
C13 O14 1.160 . S
C13 O20 1.185 . S
O14 C13 1.160 . S
O15 Zn16 1.899 . S
O15 C23 1.284 . S
Zn16 O15 1.899 . S
Zn16 O17 2.032 . S
Zn16 O20 2.086 . S
Zn16 O25 1.977 1_554 S
O17 Zn16 2.032 . S
O17 C21 1.278 . S
C18 O19 1.203 . S
C18 O25 1.267 . S
O19 C18 1.203 . S
O20 C13 1.185 . S
O20 Zn16 2.086 . S
C21 O17 1.278 . S
C21 O22 1.211 . S
O22 C21 1.211 . S
C23 O15 1.284 . S
C23 O24 1.273 . S
O24 C23 1.273 . S
O25 Zn16 1.977 1_556 S
O25 C18 1.267 . S
C26 O27 1.160 . S
C26 O33 1.185 . S
O27 C26 1.160 . S
O28 Zn29 1.899 . S
O28 C36 1.284 . S
Zn29 O28 1.899 . S
Zn29 O30 2.032 . S
Zn29 O33 2.086 . S
Zn29 O38 1.977 1_554 S
O30 Zn29 2.032 . S
O30 C34 1.278 . S
C31 O32 1.203 . S
C31 O38 1.267 . S
O32 C31 1.203 . S
O33 C26 1.185 . S
O33 Zn29 2.086 . S
C34 O30 1.278 . S
C34 O35 1.211 . S
O35 C34 1.211 . S
C36 O28 1.284 . S
C36 O37 1.273 . S
O37 C36 1.273 . S
O38 Zn29 1.977 1_556 S
O38 C31 1.267 . S
C39 O40 1.160 . S
C39 O46 1.185 . S
O40 C39 1.160 . S
O41 Zn42 1.899 . S
O41 C49 1.284 . S
Zn42 O41 1.899 . S
Zn42 O43 2.032 . S
Zn42 O46 2.086 . S
Zn42 O51 1.977 . S
O43 Zn42 2.032 . S
O43 C47 1.278 . S
C44 O45 1.203 . S
C44 O51 1.267 . S
O45 C44 1.203 . S
O46 C39 1.185 . S
O46 Zn42 2.086 . S
C47 O43 1.278 . S
C47 O48 1.211 . S
O48 C47 1.211 . S
C49 O41 1.284 . S
C49 O50 1.273 . S
O50 C49 1.273 . S
O51 Zn42 1.977 . S
O51 C44 1.267 . S
C52 O53 1.160 . S
C52 O59 1.185 . S
O53 C52 1.160 . S
O54 Zn55 1.899 . S
O54 C62 1.284 . S
Zn55 O54 1.899 . S
Zn55 O56 2.032 . S
Zn55 O59 2.086 . S
Zn55 O64 1.977 . S
O56 Zn55 2.032 . S
O56 C60 1.278 . S
C57 O58 1.203 . S
C57 O64 1.267 . S
O58 C57 1.203 . S
O59 C52 1.185 . S
O59 Zn55 2.086 . S
C60 O56 1.278 . S
C60 O61 1.211 . S
O61 C60 1.211 . S
C62 O54 1.284 . S
C62 O63 1.273 . S
O63 C62 1.273 . S
O64 Zn55 1.977 . S
O64 C57 1.267 . S
C65 O66 1.160 . S
C65 O72 1.185 . S
O66 C65 1.160 . S
O67 Zn68 1.899 . S
O67 C75 1.284 . S
Zn68 O67 1.899 . S
Zn68 O69 2.032 . S
Zn68 O72 2.086 . S
Zn68 O77 1.977 . S
O69 Zn68 2.032 . S
O69 C73 1.278 . S
C70 O71 1.203 . S
C70 O77 1.267 . S
O71 C70 1.203 . S
O72 C65 1.185 . S
O72 Zn68 2.086 . S
C73 O69 1.278 . S
C73 O74 1.211 . S
O74 C73 1.211 . S
C75 O67 1.284 . S
C75 O76 1.273 . S
O76 C75 1.273 . S
O77 Zn68 1.977 . S
O77 C70 1.267 . S
C78 O79 1.160 . S
C78 O85 1.185 . S
O79 C78 1.160 . S
O80 Zn81 1.899 . S
O80 C88 1.284 . S
Zn81 O80 1.899 . S
Zn81 O82 2.032 . S
Zn81 O85 2.086 . S
Zn81 O90 1.977 1_556 S
O82 Zn81 2.032 . S
O82 C86 1.278 . S
C83 O84 1.203 . S
C83 O90 1.267 . S
O84 C83 1.203 . S
O85 C78 1.185 . S
O85 Zn81 2.086 . S
C86 O82 1.278 . S
C86 O87 1.211 . S
O87 C86 1.211 . S
C88 O80 1.284 . S
C88 O89 1.273 . S
O89 C88 1.273 . S
O90 Zn81 1.977 1_554 S
O90 C83 1.267 . S
C91 O92 1.160 . S
C91 O98 1.185 . S
O92 C91 1.160 . S
O93 Zn94 1.899 . S
O93 C101 1.284 . S
Zn94 O93 1.899 . S
Zn94 O95 2.032 . S
Zn94 O98 2.086 . S
Zn94 O103 1.977 1_556 S
O95 Zn94 2.032 . S
O95 C99 1.278 . S
C96 O97 1.203 . S
C96 O103 1.267 . S
O97 C96 1.203 . S
O98 C91 1.185 . S
O98 Zn94 2.086 . S
C99 O95 1.278 . S
C99 O100 1.211 . S
O100 C99 1.211 . S
C101 O93 1.284 . S
C101 O102 1.273 . S
O102 C101 1.273 . S
O103 Zn94 1.977 1_554 S
O103 C96 1.267 . S
C104 O105 1.160 . S
C104 O111 1.185 . S
O105 C104 1.160 . S
O106 Zn107 1.899 . S
O106 C114 1.284 . S
Zn107 O106 1.899 . S
Zn107 O108 2.032 . S
Zn107 O111 2.086 . S
Zn107 O116 1.977 1_556 S
O108 Zn107 2.032 . S
O108 C112 1.278 . S
C109 O110 1.203 . S
C109 O116 1.267 . S
O110 C109 1.203 . S
O111 C104 1.185 . S
O111 Zn107 2.086 . S
C112 O108 1.278 . S
C112 O113 1.211 . S
O113 C112 1.211 . S
C114 O106 1.284 . S
C114 O115 1.273 . S
O115 C114 1.273 . S
O116 Zn107 1.977 1_554 S
O116 C109 1.267 . S
C117 O118 1.160 . S
C117 O124 1.185 . S
O118 C117 1.160 . S
O119 Zn120 1.899 . S
O119 C127 1.284 . S
Zn120 O119 1.899 . S
Zn120 O121 2.032 . S
Zn120 O124 2.086 . S
Zn120 O129 1.977 . S
O121 Zn120 2.032 . S
O121 C125 1.278 . S
C122 O123 1.203 . S
C122 O129 1.267 . S
O123 C122 1.203 . S
O124 C117 1.185 . S
O124 Zn120 2.086 . S
C125 O121 1.278 . S
C125 O126 1.211 . S
O126 C125 1.211 . S
C127 O119 1.284 . S
C127 O128 1.273 . S
O128 C127 1.273 . S
O129 Zn120 1.977 . S
O129 C122 1.267 . S
C130 O131 1.160 . S
C130 O137 1.185 . S
O131 C130 1.160 . S
O132 Zn133 1.899 . S
O132 C140 1.284 . S
Zn133 O132 1.899 . S
Zn133 O134 2.032 . S
Zn133 O137 2.086 . S
Zn133 O142 1.977 . S
O134 Zn133 2.032 . S
O134 C138 1.278 . S
C135 O136 1.203 . S
C135 O142 1.267 . S
O136 C135 1.203 . S
O137 C130 1.185 . S
O137 Zn133 2.086 . S
C138 O134 1.278 . S
C138 O139 1.211 . S
O139 C138 1.211 . S
C140 O132 1.284 . S
C140 O141 1.273 . S
O141 C140 1.273 . S
O142 Zn133 1.977 . S
O142 C135 1.267 . S
C143 O144 1.160 . S
C143 O150 1.185 . S
O144 C143 1.160 . S
O145 Zn146 1.899 . S
O145 C153 1.284 . S
Zn146 O145 1.899 . S
Zn146 O147 2.032 . S
Zn146 O150 2.086 . S
Zn146 O155 1.977 . S
O147 Zn146 2.032 . S
O147 C151 1.278 . S
C148 O149 1.203 . S
C148 O155 1.267 . S
O149 C148 1.203 . S
O150 C143 1.185 . S
O150 Zn146 2.086 . S
C151 O147 1.278 . S
C151 O152 1.211 . S
O152 C151 1.211 . S
C153 O145 1.284 . S
C153 O154 1.273 . S
O154 C153 1.273 . S
O155 Zn146 1.977 . S
O155 C148 1.267 . S
C156 O157 1.160 . S
C156 O163 1.185 . S
O157 C156 1.160 . S
O158 Zn159 1.899 . S
O158 C166 1.284 . S
Zn159 O158 1.899 . S
Zn159 O160 2.032 . S
Zn159 O163 2.086 . S
Zn159 O168 1.977 . S
O160 Zn159 2.032 . S
O160 C164 1.278 . S
C161 O162 1.203 . S
C161 O168 1.267 . S
O162 C161 1.203 . S
O163 C156 1.185 . S
O163 Zn159 2.086 . S
C164 O160 1.278 . S
C164 O165 1.211 . S
O165 C164 1.211 . S
C166 O158 1.284 . S
C166 O167 1.273 . S
O167 C166 1.273 . S
O168 Zn159 1.977 . S
O168 C161 1.267 . S
C169 O170 1.160 . S
C169 O176 1.185 . S
O170 C169 1.160 . S
O171 Zn172 1.899 . S
O171 C179 1.284 . S
Zn172 O171 1.899 . S
Zn172 O173 2.032 . S
Zn172 O176 2.086 . S
Zn172 O181 1.977 . S
O173 Zn172 2.032 . S
O173 C177 1.278 . S
C174 O175 1.203 . S
C174 O181 1.267 . S
O175 C174 1.203 . S
O176 C169 1.185 . S
O176 Zn172 2.086 . S
C177 O173 1.278 . S
C177 O178 1.211 . S
O178 C177 1.211 . S
C179 O171 1.284 . S
C179 O180 1.273 . S
O180 C179 1.273 . S
O181 Zn172 1.977 . S
O181 C174 1.267 . S
C182 O183 1.160 . S
C182 O189 1.185 . S
O183 C182 1.160 . S
O184 Zn185 1.899 . S
O184 C192 1.284 . S
Zn185 O184 1.899 . S
Zn185 O186 2.032 . S
Zn185 O189 2.086 . S
Zn185 O194 1.977 . S
O186 Zn185 2.032 . S
O186 C190 1.278 . S
C187 O188 1.203 . S
C187 O194 1.267 . S
O188 C187 1.203 . S
O189 C182 1.185 . S
O189 Zn185 2.086 . S
C190 O186 1.278 . S
C190 O191 1.211 . S
O191 C190 1.211 . S
C192 O184 1.284 . S
C192 O193 1.273 . S
O193 C192 1.273 . S
O194 Zn185 1.977 . S
O194 C187 1.267 . S
C195 O196 1.160 . S
C195 O202 1.185 . S
O196 C195 1.160 . S
O197 Zn198 1.899 . S
O197 C205 1.284 . S
Zn198 O197 1.899 . S
Zn198 O199 2.032 . S
Zn198 O202 2.086 . S
Zn198 O207 1.977 . S
O199 Zn198 2.032 . S
O199 C203 1.278 . S
C200 O201 1.203 . S
C200 O207 1.267 . S
O201 C200 1.203 . S
O202 C195 1.185 . S
O202 Zn198 2.086 . S
C203 O199 1.278 . S
C203 O204 1.211 . S
O204 C203 1.211 . S
C205 O197 1.284 . S
C205 O206 1.273 . S
O206 C205 1.273 . S
O207 Zn198 1.977 . S
O207 C200 1.267 . S
C208 O209 1.160 . S
C208 O215 1.185 . S
O209 C208 1.160 . S
O210 Zn211 1.899 . S
O210 C218 1.284 . S
Zn211 O210 1.899 . S
Zn211 O212 2.032 . S
Zn211 O215 2.086 . S
Zn211 O220 1.977 . S
O212 Zn211 2.032 . S
O212 C216 1.278 . S
C213 O214 1.203 . S
C213 O220 1.267 . S
O214 C213 1.203 . S
O215 C208 1.185 . S
O215 Zn211 2.086 . S
C216 O212 1.278 . S
C216 O217 1.211 . S
O217 C216 1.211 . S
C218 O210 1.284 . S
C218 O219 1.273 . S
O219 C218 1.273 . S
O220 Zn211 1.977 . S
O220 C213 1.267 . S
C221 O222 1.160 . S
C221 O228 1.185 . S
O222 C221 1.160 . S
O223 Zn224 1.899 . S
O223 C231 1.284 . S
Zn224 O223 1.899 . S
Zn224 O225 2.032 . S
Zn224 O228 2.086 . S
Zn224 O233 1.977 . S
O225 Zn224 2.032 . S
O225 C229 1.278 . S
C226 O227 1.203 . S
C226 O233 1.267 . S
O227 C226 1.203 . S
O228 C221 1.185 . S
O228 Zn224 2.086 . S
C229 O225 1.278 . S
C229 O230 1.211 . S
O230 C229 1.211 . S
C231 O223 1.284 . S
C231 O232 1.273 . S
O232 C231 1.273 . S
O233 Zn224 1.977 . S
O233 C226 1.267 . S
C234 O235 1.160 . S
C234 O241 1.185 . S
O235 C234 1.160 . S
O236 Zn237 1.899 . S
O236 C244 1.284 . S
Zn237 O236 1.899 . S
Zn237 O238 2.032 . S
Zn237 O241 2.086 . S
Zn237 O246 1.977 . S
O238 Zn237 2.032 . S
O238 C242 1.278 . S
C239 O240 1.203 . S
C239 O246 1.267 . S
O240 C239 1.203 . S
O241 C234 1.185 . S
O241 Zn237 2.086 . S
C242 O238 1.278 . S
C242 O243 1.211 . S
O243 C242 1.211 . S
C244 O236 1.284 . S
C244 O245 1.273 . S
O245 C244 1.273 . S
O246 Zn237 1.977 . S
O246 C239 1.267 . S
C247 O248 1.160 . S
C247 O254 1.185 . S
O248 C247 1.160 . S
O249 Zn250 1.899 . S
O249 C257 1.284 . S
Zn250 O249 1.899 . S
Zn250 O251 2.032 . S
Zn250 O254 2.086 . S
Zn250 O259 1.977 . S
O251 Zn250 2.032 . S
O251 C255 1.278 . S
C252 O253 1.203 . S
C252 O259 1.267 . S
O253 C252 1.203 . S
O254 C247 1.185 . S
O254 Zn250 2.086 . S
C255 O251 1.278 . S
C255 O256 1.211 . S
O256 C255 1.211 . S
C257 O249 1.284 . S
C257 O258 1.273 . S
O258 C257 1.273 . S
O259 Zn250 1.977 . S
O259 C252 1.267 . S
C260 O261 1.160 . S
C260 O267 1.185 . S
O261 C260 1.160 . S
O262 Zn263 1.899 . S
O262 C270 1.284 . S
Zn263 O262 1.899 . S
Zn263 O264 2.032 . S
Zn263 O267 2.086 . S
Zn263 O272 1.977 . S
O264 Zn263 2.032 . S
O264 C268 1.278 . S
C265 O266 1.203 . S
C265 O272 1.267 . S
O266 C265 1.203 . S
O267 C260 1.185 . S
O267 Zn263 2.086 . S
C268 O264 1.278 . S
C268 O269 1.211 . S
O269 C268 1.211 . S
C270 O262 1.284 . S
C270 O271 1.273 . S
O271 C270 1.273 . S
O272 Zn263 1.977 . S
O272 C265 1.267 . S
C273 O274 1.160 . S
C273 O280 1.185 . S
O274 C273 1.160 . S
O275 Zn276 1.899 . S
O275 C283 1.284 . S
Zn276 O275 1.899 . S
Zn276 O277 2.032 . S
Zn276 O280 2.086 . S
Zn276 O285 1.977 . S
O277 Zn276 2.032 . S
O277 C281 1.278 . S
C278 O279 1.203 . S
C278 O285 1.267 . S
O279 C278 1.203 . S
O280 C273 1.185 . S
O280 Zn276 2.086 . S
C281 O277 1.278 . S
C281 O282 1.211 . S
O282 C281 1.211 . S
C283 O275 1.284 . S
C283 O284 1.273 . S
O284 C283 1.273 . S
O285 Zn276 1.977 . S
O285 C278 1.267 . S
C286 O287 1.160 . S
C286 O293 1.185 . S
O287 C286 1.160 . S
O288 Zn289 1.899 . S
O288 C296 1.284 . S
Zn289 O288 1.899 . S
Zn289 O290 2.032 . S
Zn289 O293 2.086 . S
Zn289 O298 1.977 . S
O290 Zn289 2.032 . S
O290 C294 1.278 . S
C291 O292 1.203 . S
C291 O298 1.267 . S
O292 C291 1.203 . S
O293 C286 1.185 . S
O293 Zn289 2.086 . S
C294 O290 1.278 . S
C294 O295 1.211 . S
O295 C294 1.211 . S
C296 O288 1.284 . S
C296 O297 1.273 . S
O297 C296 1.273 . S
O298 Zn289 1.977 . S
O298 C291 1.267 . S
C299 O300 1.160 . S
C299 O306 1.185 . S
O300 C299 1.160 . S
O301 Zn302 1.899 . S
O301 C309 1.284 . S
Zn302 O301 1.899 . S
Zn302 O303 2.032 . S
Zn302 O306 2.086 . S
Zn302 O311 1.977 . S
O303 Zn302 2.032 . S
O303 C307 1.278 . S
C304 O305 1.203 . S
C304 O311 1.267 . S
O305 C304 1.203 . S
O306 C299 1.185 . S
O306 Zn302 2.086 . S
C307 O303 1.278 . S
C307 O308 1.211 . S
O308 C307 1.211 . S
C309 O301 1.284 . S
C309 O310 1.273 . S
O310 C309 1.273 . S
O311 Zn302 1.977 . S
O311 C304 1.267 . S
C312 O313 1.160 . S
C312 O319 1.185 . S
O313 C312 1.160 . S
O314 Zn315 1.899 . S
O314 C322 1.284 . S
Zn315 O314 1.899 . S
Zn315 O316 2.032 . S
Zn315 O319 2.086 . S
Zn315 O324 1.977 . S
O316 Zn315 2.032 . S
O316 C320 1.278 . S
C317 O318 1.203 . S
C317 O324 1.267 . S
O318 C317 1.203 . S
O319 C312 1.185 . S
O319 Zn315 2.086 . S
C320 O316 1.278 . S
C320 O321 1.211 . S
O321 C320 1.211 . S
C322 O314 1.284 . S
C322 O323 1.273 . S
O323 C322 1.273 . S
O324 Zn315 1.977 . S
O324 C317 1.267 . S
C325 O326 1.160 . S
C325 O332 1.185 . S
O326 C325 1.160 . S
O327 Zn328 1.899 . S
O327 C335 1.284 . S
Zn328 O327 1.899 . S
Zn328 O329 2.032 . S
Zn328 O332 2.086 . S
Zn328 O337 1.977 . S
O329 Zn328 2.032 . S
O329 C333 1.278 . S
C330 O331 1.203 . S
C330 O337 1.267 . S
O331 C330 1.203 . S
O332 C325 1.185 . S
O332 Zn328 2.086 . S
C333 O329 1.278 . S
C333 O334 1.211 . S
O334 C333 1.211 . S
C335 O327 1.284 . S
C335 O336 1.273 . S
O336 C335 1.273 . S
O337 Zn328 1.977 . S
O337 C330 1.267 . S
C338 O339 1.160 . S
C338 O345 1.185 . S
O339 C338 1.160 . S
O340 Zn341 1.899 . S
O340 C348 1.284 . S
Zn341 O340 1.899 . S
Zn341 O342 2.032 . S
Zn341 O345 2.086 . S
Zn341 O350 1.977 . S
O342 Zn341 2.032 . S
O342 C346 1.278 . S
C343 O344 1.203 . S
C343 O350 1.267 . S
O344 C343 1.203 . S
O345 C338 1.185 . S
O345 Zn341 2.086 . S
C346 O342 1.278 . S
C346 O347 1.211 . S
O347 C346 1.211 . S
C348 O340 1.284 . S
C348 O349 1.273 . S
O349 C348 1.273 . S
O350 Zn341 1.977 . S
O350 C343 1.267 . S
C351 O352 1.160 . S
C351 O358 1.185 . S
O352 C351 1.160 . S
O353 Zn354 1.899 . S
O353 C361 1.284 . S
Zn354 O353 1.899 . S
Zn354 O355 2.032 . S
Zn354 O358 2.086 . S
Zn354 O363 1.977 . S
O355 Zn354 2.032 . S
O355 C359 1.278 . S
C356 O357 1.203 . S
C356 O363 1.267 . S
O357 C356 1.203 . S
O358 C351 1.185 . S
O358 Zn354 2.086 . S
C359 O355 1.278 . S
C359 O360 1.211 . S
O360 C359 1.211 . S
C361 O353 1.284 . S
C361 O362 1.273 . S
O362 C361 1.273 . S
O363 Zn354 1.977 . S
O363 C356 1.267 . S
C364 O365 1.160 . S
C364 O371 1.185 . S
O365 C364 1.160 . S
O366 Zn367 1.899 . S
O366 C374 1.284 . S
Zn367 O366 1.899 . S
Zn367 O368 2.032 . S
Zn367 O371 2.086 . S
Zn367 O376 1.977 . S
O368 Zn367 2.032 . S
O368 C372 1.278 . S
C369 O370 1.203 . S
C369 O376 1.267 . S
O370 C369 1.203 . S
O371 C364 1.185 . S
O371 Zn367 2.086 . S
C372 O368 1.278 . S
C372 O373 1.211 . S
O373 C372 1.211 . S
C374 O366 1.284 . S
C374 O375 1.273 . S
O375 C374 1.273 . S
O376 Zn367 1.977 . S
O376 C369 1.267 . S
C377 O378 1.160 . S
C377 O384 1.185 . S
O378 C377 1.160 . S
O379 Zn380 1.899 . S
O379 C387 1.284 . S
Zn380 O379 1.899 . S
Zn380 O381 2.032 . S
Zn380 O384 2.086 . S
Zn380 O389 1.977 . S
O381 Zn380 2.032 . S
O381 C385 1.278 . S
C382 O383 1.203 . S
C382 O389 1.267 . S
O383 C382 1.203 . S
O384 C377 1.185 . S
O384 Zn380 2.086 . S
C385 O381 1.278 . S
C385 O386 1.211 . S
O386 C385 1.211 . S
C387 O379 1.284 . S
C387 O388 1.273 . S
O388 C387 1.273 . S
O389 Zn380 1.977 . S
O389 C382 1.267 . S
C390 O391 1.160 . S
C390 O397 1.185 . S
O391 C390 1.160 . S
O392 Zn393 1.899 . S
O392 C400 1.284 . S
Zn393 O392 1.899 . S
Zn393 O394 2.032 . S
Zn393 O397 2.086 . S
Zn393 O402 1.977 . S
O394 Zn393 2.032 . S
O394 C398 1.278 . S
C395 O396 1.203 . S
C395 O402 1.267 . S
O396 C395 1.203 . S
O397 C390 1.185 . S
O397 Zn393 2.086 . S
C398 O394 1.278 . S
C398 O399 1.211 . S
O399 C398 1.211 . S
C400 O392 1.284 . S
C400 O401 1.273 . S
O401 C400 1.273 . S
O402 Zn393 1.977 . S
O402 C395 1.267 . S
C403 O404 1.160 . S
C403 O410 1.185 . S
O404 C403 1.160 . S
O405 Zn406 1.899 . S
O405 C413 1.284 . S
Zn406 O405 1.899 . S
Zn406 O407 2.032 . S
Zn406 O410 2.086 . S
Zn406 O415 1.977 . S
O407 Zn406 2.032 . S
O407 C411 1.278 . S
C408 O409 1.203 . S
C408 O415 1.267 . S
O409 C408 1.203 . S
O410 C403 1.185 . S
O410 Zn406 2.086 . S
C411 O407 1.278 . S
C411 O412 1.211 . S
O412 C411 1.211 . S
C413 O405 1.284 . S
C413 O414 1.273 . S
O414 C413 1.273 . S
O415 Zn406 1.977 . S
O415 C408 1.267 . S
C416 O417 1.160 . S
C416 O423 1.185 . S
O417 C416 1.160 . S
O418 Zn419 1.899 . S
O418 C426 1.284 . S
Zn419 O418 1.899 . S
Zn419 O420 2.032 . S
Zn419 O423 2.086 . S
Zn419 O428 1.977 . S
O420 Zn419 2.032 . S
O420 C424 1.278 . S
C421 O422 1.203 . S
C421 O428 1.267 . S
O422 C421 1.203 . S
O423 C416 1.185 . S
O423 Zn419 2.086 . S
C424 O420 1.278 . S
C424 O425 1.211 . S
O425 C424 1.211 . S
C426 O418 1.284 . S
C426 O427 1.273 . S
O427 C426 1.273 . S
O428 Zn419 1.977 . S
O428 C421 1.267 . S
C429 O430 1.160 . S
C429 O436 1.185 . S
O430 C429 1.160 . S
O431 Zn432 1.899 . S
O431 C439 1.284 . S
Zn432 O431 1.899 . S
Zn432 O433 2.032 . S
Zn432 O436 2.086 . S
Zn432 O441 1.977 . S
O433 Zn432 2.032 . S
O433 C437 1.278 . S
C434 O435 1.203 . S
C434 O441 1.267 . S
O435 C434 1.203 . S
O436 C429 1.185 . S
O436 Zn432 2.086 . S
C437 O433 1.278 . S
C437 O438 1.211 . S
O438 C437 1.211 . S
C439 O431 1.284 . S
C439 O440 1.273 . S
O440 C439 1.273 . S
O441 Zn432 1.977 . S
O441 C434 1.267 . S
C442 O443 1.160 . S
C442 O449 1.185 . S
O443 C442 1.160 . S
O444 Zn445 1.899 . S
O444 C452 1.284 . S
Zn445 O444 1.899 . S
Zn445 O446 2.032 . S
Zn445 O449 2.086 . S
Zn445 O454 1.977 . S
O446 Zn445 2.032 . S
O446 C450 1.278 . S
C447 O448 1.203 . S
C447 O454 1.267 . S
O448 C447 1.203 . S
O449 C442 1.185 . S
O449 Zn445 2.086 . S
C450 O446 1.278 . S
C450 O451 1.211 . S
O451 C450 1.211 . S
C452 O444 1.284 . S
C452 O453 1.273 . S
O453 C452 1.273 . S
O454 Zn445 1.977 . S
O454 C447 1.267 . S
C455 O456 1.160 . S
C455 O462 1.185 . S
O456 C455 1.160 . S
O457 Zn458 1.899 . S
O457 C465 1.284 . S
Zn458 O457 1.899 . S
Zn458 O459 2.032 . S
Zn458 O462 2.086 . S
Zn458 O467 1.977 . S
O459 Zn458 2.032 . S
O459 C463 1.278 . S
C460 O461 1.203 . S
C460 O467 1.267 . S
O461 C460 1.203 . S
O462 C455 1.185 . S
O462 Zn458 2.086 . S
C463 O459 1.278 . S
C463 O464 1.211 . S
O464 C463 1.211 . S
C465 O457 1.284 . S
C465 O466 1.273 . S
O466 C465 1.273 . S
O467 Zn458 1.977 . S
O467 C460 1.267 . S
H468 C480 0.930 . S
H469 C482 0.930 . S
H470 C483 0.930 1_545 S
H471 C487 0.959 . S
H472 C487 0.959 . S
H473 C487 0.961 . S
H474 C488 0.960 . S
H475 C488 0.961 . S
H476 C488 0.959 . S
H477 C491 0.929 . S
H478 C492 0.931 . S
H479 C494 0.930 . S
C480 H468 0.930 . S
C480 C481 1.399 . S
C480 C485 1.399 . S
C481 C480 1.399 . S
C481 C482 1.376 . S
C482 H469 0.930 . S
C482 C481 1.376 . S
C482 C483 1.388 . S
C483 H470 0.930 1_565 S
C483 C482 1.388 . S
C483 C484 1.390 . S
C484 C483 1.390 . S
C484 C485 1.394 . S
C484 C490 1.465 1_565 S
C485 C480 1.399 . S
C485 C484 1.394 . S
C485 C486 1.516 . S
C486 C485 1.516 . S
C486 C487 1.502 . S
C486 C488 1.561 . S
C486 C489 1.526 1_565 S
C487 H471 0.959 . S
C487 H472 0.959 . S
C487 H473 0.961 . S
C487 C486 1.502 . S
C488 H474 0.960 . S
C488 H475 0.961 . S
C488 H476 0.959 . S
C488 C486 1.561 . S
C489 C486 1.526 1_545 S
C489 C490 1.396 . S
C489 C494 1.390 . S
C490 C484 1.465 1_545 S
C490 C489 1.396 . S
C490 C491 1.399 . S
C491 H477 0.929 . S
C491 C490 1.399 . S
C491 C492 1.385 . S
C492 H478 0.931 . S
C492 C491 1.385 . S
C492 C493 1.389 . S
C493 C492 1.389 . S
C493 C494 1.387 . S
C494 H479 0.930 . S
C494 C489 1.390 . S
C494 C493 1.387 . S
H495 C507 0.930 . S
H496 C509 0.930 . S
H497 C510 0.930 1_455 S
H498 C514 0.959 . S
H499 C514 0.959 . S
H500 C514 0.961 . S
H501 C515 0.960 . S
H502 C515 0.961 . S
H503 C515 0.959 1_455 S
H504 C518 0.929 . S
H505 C519 0.931 . S
H506 C521 0.930 . S
C507 H495 0.930 . S
C507 C508 1.399 . S
C507 C512 1.399 . S
C508 C507 1.399 . S
C508 C509 1.376 . S
C509 H496 0.930 . S
C509 C508 1.376 . S
C509 C510 1.388 . S
C510 H497 0.930 1_655 S
C510 C509 1.388 . S
C510 C511 1.411 . S
C511 C510 1.411 . S
C511 C512 1.417 . S
C511 C517 1.427 1_655 S
C512 C507 1.399 . S
C512 C511 1.417 . S
C512 C513 1.516 . S
C513 C512 1.516 . S
C513 C514 1.502 . S
C513 C515 1.561 . S
C513 C516 1.526 1_655 S
C514 H498 0.959 . S
C514 H499 0.959 . S
C514 H500 0.961 . S
C514 C513 1.502 . S
C515 H501 0.960 . S
C515 H502 0.961 . S
C515 H503 0.959 1_655 S
C515 C513 1.561 . S
C516 C513 1.526 1_455 S
C516 C517 1.396 . S
C516 C521 1.390 . S
C517 C511 1.427 1_455 S
C517 C516 1.396 . S
C517 C518 1.399 . S
C518 H504 0.929 . S
C518 C517 1.399 . S
C518 C519 1.385 . S
C519 H505 0.931 . S
C519 C518 1.385 . S
C519 C520 1.389 . S
C520 C519 1.389 . S
C520 C521 1.387 . S
C521 H506 0.930 . S
C521 C516 1.390 . S
C521 C520 1.387 . S
H522 C534 0.930 . S
H523 C536 0.930 . S
H524 C537 0.930 . S
H525 C541 0.959 . S
H526 C541 0.959 . S
H527 C541 0.961 . S
H528 C542 0.960 . S
H529 C542 0.961 . S
H530 C542 0.959 . S
H531 C545 0.929 . S
H532 C546 0.931 . S
H533 C548 0.930 . S
C534 H522 0.930 . S
C534 C535 1.399 . S
C534 C539 1.399 . S
C535 C534 1.399 . S
C535 C536 1.376 . S
C536 H523 0.930 . S
C536 C535 1.376 . S
C536 C537 1.388 . S
C537 H524 0.930 . S
C537 C536 1.388 . S
C537 C538 1.390 . S
C538 C537 1.390 . S
C538 C539 1.394 . S
C538 C544 1.465 . S
C539 C534 1.399 . S
C539 C538 1.394 . S
C539 C540 1.516 . S
C540 C539 1.516 . S
C540 C541 1.502 . S
C540 C542 1.561 . S
C540 C543 1.526 . S
C541 H525 0.959 . S
C541 H526 0.959 . S
C541 H527 0.961 . S
C541 C540 1.502 . S
C542 H528 0.960 . S
C542 H529 0.961 . S
C542 H530 0.959 . S
C542 C540 1.561 . S
C543 C540 1.526 . S
C543 C544 1.396 . S
C543 C548 1.390 . S
C544 C538 1.465 . S
C544 C543 1.396 . S
C544 C545 1.399 . S
C545 H531 0.929 . S
C545 C544 1.399 . S
C545 C546 1.385 . S
C546 H532 0.931 . S
C546 C545 1.385 . S
C546 C547 1.389 . S
C547 C546 1.389 . S
C547 C548 1.387 . S
C548 H533 0.930 . S
C548 C543 1.390 . S
C548 C547 1.387 . S
H549 C561 0.930 . S
H550 C563 0.930 . S
H551 C564 0.930 . S
H552 C568 0.959 1_565 S
H553 C568 0.959 . S
H554 C568 0.969 . S
H555 C569 0.960 . S
H556 C569 0.961 . S
H557 C569 0.959 . S
H558 C572 0.983 . S
H559 C573 0.931 . S
H560 C575 0.930 . S
C561 H549 0.930 . S
C561 C562 1.399 . S
C561 C566 1.399 . S
C562 C561 1.399 . S
C562 C563 1.376 . S
C563 H550 0.930 . S
C563 C562 1.376 . S
C563 C564 1.388 . S
C564 H551 0.930 . S
C564 C563 1.388 . S
C564 C565 1.390 . S
C565 C564 1.390 . S
C565 C566 1.394 . S
C565 C571 1.465 1_565 S
C566 C561 1.399 . S
C566 C565 1.394 . S
C566 C567 1.516 1_565 S
C567 C566 1.516 1_545 S
C567 C568 1.502 . S
C567 C569 1.561 . S
C567 C570 1.526 . S
C568 H552 0.959 1_545 S
C568 H553 0.959 . S
C568 H554 0.969 . S
C568 C567 1.502 . S
C569 H555 0.960 . S
C569 H556 0.961 . S
C569 H557 0.959 . S
C569 C567 1.561 . S
C570 C567 1.526 . S
C570 C571 1.396 . S
C570 C575 1.390 . S
C571 C565 1.465 1_545 S
C571 C570 1.396 . S
C571 C572 1.399 . S
C572 H558 0.983 . S
C572 C571 1.399 . S
C572 C573 1.385 . S
C573 H559 0.931 . S
C573 C572 1.385 . S
C573 C574 1.389 . S
C574 C573 1.389 . S
C574 C575 1.387 . S
C575 H560 0.930 . S
C575 C570 1.390 . S
C575 C574 1.387 . S
H576 C588 0.930 . S
H577 C590 0.930 . S
H578 C591 0.930 . S
H579 C595 0.959 . S
H580 C595 0.959 . S
H581 C595 0.961 . S
H582 C596 0.960 . S
H583 C596 0.961 . S
H584 C596 0.959 . S
H585 C599 0.929 . S
H586 C600 0.931 . S
H587 C602 0.930 . S
C588 H576 0.930 . S
C588 C589 1.399 . S
C588 C593 1.399 . S
C589 C588 1.399 . S
C589 C590 1.376 . S
C590 H577 0.930 . S
C590 C589 1.376 . S
C590 C591 1.388 . S
C591 H578 0.930 . S
C591 C590 1.388 . S
C591 C592 1.390 . S
C592 C591 1.390 . S
C592 C593 1.394 . S
C592 C598 1.465 1_455 S
C593 C588 1.399 . S
C593 C592 1.394 . S
C593 C594 1.516 1_455 S
C594 C593 1.516 1_655 S
C594 C595 1.502 . S
C594 C596 1.561 1_655 S
C594 C597 1.526 . S
C595 H579 0.959 . S
C595 H580 0.959 . S
C595 H581 0.961 . S
C595 C594 1.502 . S
C596 H582 0.960 . S
C596 H583 0.961 . S
C596 H584 0.959 . S
C596 C594 1.561 1_455 S
C597 C594 1.526 . S
C597 C598 1.396 . S
C597 C602 1.390 . S
C598 C592 1.465 1_655 S
C598 C597 1.396 . S
C598 C599 1.399 . S
C599 H585 0.929 . S
C599 C598 1.399 . S
C599 C600 1.385 . S
C600 H586 0.931 . S
C600 C599 1.385 . S
C600 C601 1.389 . S
C601 C600 1.389 . S
C601 C602 1.387 . S
C602 H587 0.930 . S
C602 C597 1.390 . S
C602 C601 1.387 . S
H603 C615 0.930 . S
H604 C617 0.930 . S
H605 C618 0.930 . S
H606 C622 0.959 . S
H607 C622 0.959 . S
H608 C622 0.961 . S
H609 C623 0.960 . S
H610 C623 0.961 . S
H611 C623 0.959 . S
H612 C626 0.929 . S
H613 C627 0.931 . S
H614 C629 0.930 . S
C615 H603 0.930 . S
C615 C616 1.399 . S
C615 C620 1.399 . S
C616 C615 1.399 . S
C616 C617 1.376 . S
C617 H604 0.930 . S
C617 C616 1.376 . S
C617 C618 1.388 . S
C618 H605 0.930 . S
C618 C617 1.388 . S
C618 C619 1.390 . S
C619 C618 1.390 . S
C619 C620 1.394 . S
C619 C625 1.465 . S
C620 C615 1.399 . S
C620 C619 1.394 . S
C620 C621 1.516 . S
C621 C620 1.516 . S
C621 C622 1.502 . S
C621 C623 1.561 . S
C621 C624 1.526 . S
C622 H606 0.959 . S
C622 H607 0.959 . S
C622 H608 0.961 . S
C622 C621 1.502 . S
C623 H609 0.960 . S
C623 H610 0.961 . S
C623 H611 0.959 . S
C623 C621 1.561 . S
C624 C621 1.526 . S
C624 C625 1.396 . S
C624 C629 1.390 . S
C625 C619 1.465 . S
C625 C624 1.396 . S
C625 C626 1.399 . S
C626 H612 0.929 . S
C626 C625 1.399 . S
C626 C627 1.385 . S
C627 H613 0.931 . S
C627 C626 1.385 . S
C627 C628 1.389 . S
C628 C627 1.389 . S
C628 C629 1.387 . S
C629 H614 0.930 . S
C629 C624 1.390 . S
C629 C628 1.387 . S
H630 C642 0.930 . S
H631 C644 0.930 . S
H632 C645 0.930 . S
H633 C649 0.959 . S
H634 C649 0.959 . S
H635 C649 0.961 . S
H636 C650 0.960 . S
H637 C650 0.961 . S
H638 C650 0.959 . S
H639 C653 0.929 . S
H640 C654 0.931 . S
H641 C656 0.930 . S
C642 H630 0.930 . S
C642 C643 1.399 . S
C642 C647 1.399 . S
C643 C642 1.399 . S
C643 C644 1.376 . S
C644 H631 0.930 . S
C644 C643 1.376 . S
C644 C645 1.388 . S
C645 H632 0.930 . S
C645 C644 1.388 . S
C645 C646 1.390 . S
C646 C645 1.390 . S
C646 C647 1.394 . S
C646 C652 1.465 . S
C647 C642 1.399 . S
C647 C646 1.394 . S
C647 C648 1.516 . S
C648 C647 1.516 . S
C648 C649 1.502 . S
C648 C650 1.561 . S
C648 C651 1.526 . S
C649 H633 0.959 . S
C649 H634 0.959 . S
C649 H635 0.961 . S
C649 C648 1.502 . S
C650 H636 0.960 . S
C650 H637 0.961 . S
C650 H638 0.959 . S
C650 C648 1.561 . S
C651 C648 1.526 . S
C651 C652 1.396 . S
C651 C656 1.390 . S
C652 C646 1.465 . S
C652 C651 1.396 . S
C652 C653 1.399 . S
C653 H639 0.929 . S
C653 C652 1.399 . S
C653 C654 1.385 . S
C654 H640 0.931 . S
C654 C653 1.385 . S
C654 C655 1.389 . S
C655 C654 1.389 . S
C655 C656 1.387 . S
C656 H641 0.930 . S
C656 C651 1.390 . S
C656 C655 1.387 . S
H657 C669 0.930 . S
H658 C671 0.930 . S
H659 C672 0.930 . S
H660 C676 0.959 . S
H661 C676 0.959 . S
H662 C676 0.961 . S
H663 C677 0.960 . S
H664 C677 0.961 . S
H665 C677 0.959 . S
H666 C680 0.929 . S
H667 C681 0.931 . S
H668 C683 0.930 . S
C669 H657 0.930 . S
C669 C670 1.399 . S
C669 C674 1.399 . S
C670 C669 1.399 . S
C670 C671 1.376 . S
C671 H658 0.930 . S
C671 C670 1.376 . S
C671 C672 1.388 . S
C672 H659 0.930 . S
C672 C671 1.388 . S
C672 C673 1.390 . S
C673 C672 1.390 . S
C673 C674 1.394 . S
C673 C679 1.465 . S
C674 C669 1.399 . S
C674 C673 1.394 . S
C674 C675 1.516 . S
C675 C674 1.516 . S
C675 C676 1.502 . S
C675 C677 1.561 . S
C675 C678 1.526 . S
C676 H660 0.959 . S
C676 H661 0.959 . S
C676 H662 0.961 . S
C676 C675 1.502 . S
C677 H663 0.960 . S
C677 H664 0.961 . S
C677 H665 0.959 . S
C677 C675 1.561 . S
C678 C675 1.526 . S
C678 C679 1.396 . S
C678 C683 1.390 . S
C679 C673 1.465 . S
C679 C678 1.396 . S
C679 C680 1.399 . S
C680 H666 0.929 . S
C680 C679 1.399 . S
C680 C681 1.385 . S
C681 H667 0.931 . S
C681 C680 1.385 . S
C681 C682 1.389 . S
C682 C681 1.389 . S
C682 C683 1.387 . S
C683 H668 0.930 . S
C683 C678 1.390 . S
C683 C682 1.387 . S
H684 C696 0.930 . S
H685 C698 0.930 . S
H686 C699 0.930 . S
H687 C703 0.959 . S
H688 C703 0.959 . S
H689 C703 0.961 . S
H690 C704 0.960 . S
H691 C704 0.961 . S
H692 C704 0.959 . S
H693 C707 0.929 . S
H694 C708 0.931 . S
H695 C710 0.930 . S
C696 H684 0.930 . S
C696 C697 1.399 . S
C696 C701 1.399 . S
C697 C696 1.399 . S
C697 C698 1.376 . S
C698 H685 0.930 . S
C698 C697 1.376 . S
C698 C699 1.388 . S
C699 H686 0.930 . S
C699 C698 1.388 . S
C699 C700 1.390 . S
C700 C699 1.390 . S
C700 C701 1.394 . S
C700 C706 1.465 . S
C701 C696 1.399 . S
C701 C700 1.394 . S
C701 C702 1.516 . S
C702 C701 1.516 . S
C702 C703 1.502 . S
C702 C704 1.561 . S
C702 C705 1.526 . S
C703 H687 0.959 . S
C703 H688 0.959 . S
C703 H689 0.961 . S
C703 C702 1.502 . S
C704 H690 0.960 . S
C704 H691 0.961 . S
C704 H692 0.959 . S
C704 C702 1.561 . S
C705 C702 1.526 . S
C705 C706 1.396 . S
C705 C710 1.390 . S
C706 C700 1.465 . S
C706 C705 1.396 . S
C706 C707 1.399 . S
C707 H693 0.929 . S
C707 C706 1.399 . S
C707 C708 1.385 . S
C708 H694 0.931 . S
C708 C707 1.385 . S
C708 C709 1.389 . S
C709 C708 1.389 . S
C709 C710 1.387 . S
C710 H695 0.930 . S
C710 C705 1.390 . S
C710 C709 1.387 . S
H711 C723 0.930 . S
H712 C725 0.930 . S
H713 C726 0.930 . S
H714 C730 0.959 . S
H715 C730 0.959 . S
H716 C730 0.961 . S
H717 C731 0.960 . S
H718 C731 0.961 . S
H719 C731 0.959 . S
H720 C734 0.929 . S
H721 C735 0.931 . S
H722 C737 0.930 . S
C723 H711 0.930 . S
C723 C724 1.399 . S
C723 C728 1.399 . S
C724 C723 1.399 . S
C724 C725 1.376 . S
C725 H712 0.930 . S
C725 C724 1.376 . S
C725 C726 1.388 . S
C726 H713 0.930 . S
C726 C725 1.388 . S
C726 C727 1.390 . S
C727 C726 1.390 . S
C727 C728 1.394 . S
C727 C733 1.465 . S
C728 C723 1.399 . S
C728 C727 1.394 . S
C728 C729 1.516 . S
C729 C728 1.516 . S
C729 C730 1.502 . S
C729 C731 1.561 . S
C729 C732 1.526 . S
C730 H714 0.959 . S
C730 H715 0.959 . S
C730 H716 0.961 . S
C730 C729 1.502 . S
C731 H717 0.960 . S
C731 H718 0.961 . S
C731 H719 0.959 . S
C731 C729 1.561 . S
C732 C729 1.526 . S
C732 C733 1.396 . S
C732 C737 1.390 . S
C733 C727 1.465 . S
C733 C732 1.396 . S
C733 C734 1.399 1_554 S
C734 H720 0.929 . S
C734 C733 1.399 1_556 S
C734 C735 1.385 . S
C735 H721 0.931 . S
C735 C734 1.385 . S
C735 C736 1.389 . S
C736 C735 1.389 . S
C736 C737 1.387 1_556 S
C737 H722 0.930 . S
C737 C732 1.390 . S
C737 C736 1.387 1_554 S
H738 C750 0.930 . S
H739 C752 0.930 . S
H740 C753 0.930 . S
H741 C757 0.959 . S
H742 C757 0.959 . S
H743 C757 0.961 . S
H744 C758 0.960 . S
H745 C758 0.961 . S
H746 C758 0.959 . S
H747 C761 0.929 . S
H748 C762 0.931 . S
H749 C764 0.930 . S
C750 H738 0.930 . S
C750 C751 1.399 . S
C750 C755 1.399 . S
C751 C750 1.399 . S
C751 C752 1.376 . S
C752 H739 0.930 . S
C752 C751 1.376 . S
C752 C753 1.388 . S
C753 H740 0.930 . S
C753 C752 1.388 . S
C753 C754 1.390 . S
C754 C753 1.390 . S
C754 C755 1.394 . S
C754 C760 1.465 . S
C755 C750 1.399 . S
C755 C754 1.394 . S
C755 C756 1.516 . S
C756 C755 1.516 . S
C756 C757 1.502 . S
C756 C758 1.561 . S
C756 C759 1.526 . S
C757 H741 0.959 . S
C757 H742 0.959 . S
C757 H743 0.961 . S
C757 C756 1.502 . S
C758 H744 0.960 . S
C758 H745 0.961 . S
C758 H746 0.959 . S
C758 C756 1.561 . S
C759 C756 1.526 . S
C759 C760 1.396 . S
C759 C764 1.390 . S
C760 C754 1.465 . S
C760 C759 1.396 . S
C760 C761 1.399 1_554 S
C761 H747 0.929 . S
C761 C760 1.399 1_556 S
C761 C762 1.385 . S
C762 H748 0.931 . S
C762 C761 1.385 . S
C762 C763 1.389 . S
C763 C762 1.389 . S
C763 C764 1.387 1_556 S
C764 H749 0.930 . S
C764 C759 1.390 . S
C764 C763 1.387 1_554 S
H765 C777 0.930 . S
H766 C779 0.930 . S
H767 C780 0.930 . S
H768 C784 0.959 . S
H769 C784 0.959 . S
H770 C784 0.961 . S
H771 C785 0.960 . S
H772 C785 0.961 . S
H773 C785 0.959 . S
H774 C788 0.929 . S
H775 C789 0.931 . S
H776 C791 0.930 . S
C777 H765 0.930 . S
C777 C778 1.399 . S
C777 C782 1.399 . S
C778 C777 1.399 . S
C778 C779 1.376 . S
C779 H766 0.930 . S
C779 C778 1.376 . S
C779 C780 1.388 . S
C780 H767 0.930 . S
C780 C779 1.388 . S
C780 C781 1.390 . S
C781 C780 1.390 . S
C781 C782 1.394 . S
C781 C787 1.465 . S
C782 C777 1.399 . S
C782 C781 1.394 . S
C782 C783 1.516 . S
C783 C782 1.516 . S
C783 C784 1.502 . S
C783 C785 1.561 . S
C783 C786 1.526 . S
C784 H768 0.959 . S
C784 H769 0.959 . S
C784 H770 0.961 . S
C784 C783 1.502 . S
C785 H771 0.960 . S
C785 H772 0.961 . S
C785 H773 0.959 . S
C785 C783 1.561 . S
C786 C783 1.526 . S
C786 C787 1.396 . S
C786 C791 1.390 . S
C787 C781 1.465 . S
C787 C786 1.396 . S
C787 C788 1.399 1_554 S
C788 H774 0.929 . S
C788 C787 1.399 1_556 S
C788 C789 1.385 . S
C789 H775 0.931 . S
C789 C788 1.385 . S
C789 C790 1.389 . S
C790 C789 1.389 . S
C790 C791 1.387 1_556 S
C791 H776 0.930 . S
C791 C786 1.390 . S
C791 C790 1.387 1_554 S
H792 C804 0.930 . S
H793 C806 0.930 . S
H794 C807 0.930 . S
H795 C811 0.959 . S
H796 C811 0.959 1_554 S
H797 C811 0.961 . S
H798 C812 0.960 1_556 S
H799 C812 0.961 . S
H800 C812 0.959 . S
H801 C815 0.929 . S
H802 C816 0.931 . S
H803 C818 0.930 . S
C804 H792 0.930 . S
C804 C805 1.399 . S
C804 C809 1.399 . S
C805 C804 1.399 . S
C805 C806 1.376 . S
C806 H793 0.930 . S
C806 C805 1.376 . S
C806 C807 1.388 . S
C807 H794 0.930 . S
C807 C806 1.388 . S
C807 C808 1.390 . S
C808 C807 1.390 . S
C808 C809 1.394 . S
C808 C814 1.465 . S
C809 C804 1.399 . S
C809 C808 1.394 . S
C809 C810 1.516 . S
C810 C809 1.516 . S
C810 C811 1.502 . S
C810 C812 1.561 1_556 S
C810 C813 1.526 . S
C811 H795 0.959 . S
C811 H796 0.959 1_556 S
C811 H797 0.961 . S
C811 C810 1.502 . S
C812 H798 0.960 1_554 S
C812 H799 0.961 . S
C812 H800 0.959 . S
C812 C810 1.561 1_554 S
C813 C810 1.526 . S
C813 C814 1.396 . S
C813 C818 1.390 1_556 S
C814 C808 1.465 . S
C814 C813 1.396 . S
C814 C815 1.399 . S
C815 H801 0.929 . S
C815 C814 1.399 . S
C815 C816 1.385 . S
C816 H802 0.931 . S
C816 C815 1.385 . S
C816 C817 1.389 1_556 S
C817 C816 1.389 1_554 S
C817 C818 1.387 . S
C818 H803 0.930 . S
C818 C813 1.390 1_554 S
C818 C817 1.387 . S
H819 C831 0.930 . S
H820 C833 0.930 . S
H821 C834 0.930 . S
H822 C838 0.959 . S
H823 C838 0.959 . S
H824 C838 0.961 . S
H825 C839 0.960 . S
H826 C839 0.961 . S
H827 C839 0.959 . S
H828 C842 0.929 . S
H829 C843 0.931 . S
H830 C845 0.930 . S
C831 H819 0.930 . S
C831 C832 1.399 1_556 S
C831 C836 1.399 . S
C832 C831 1.399 1_554 S
C832 C833 1.376 . S
C833 H820 0.930 . S
C833 C832 1.376 . S
C833 C834 1.388 . S
C834 H821 0.930 . S
C834 C833 1.388 . S
C834 C835 1.390 1_554 S
C835 C834 1.390 1_556 S
C835 C836 1.394 . S
C835 C841 1.465 . S
C836 C831 1.399 . S
C836 C835 1.394 . S
C836 C837 1.516 . S
C837 C836 1.516 . S
C837 C838 1.502 . S
C837 C839 1.561 . S
C837 C840 1.526 . S
C838 H822 0.959 . S
C838 H823 0.959 . S
C838 H824 0.961 . S
C838 C837 1.502 . S
C839 H825 0.960 . S
C839 H826 0.961 . S
C839 H827 0.959 . S
C839 C837 1.561 . S
C840 C837 1.526 . S
C840 C841 1.396 . S
C840 C845 1.390 . S
C841 C835 1.465 . S
C841 C840 1.396 . S
C841 C842 1.399 . S
C842 H828 0.929 . S
C842 C841 1.399 . S
C842 C843 1.385 . S
C843 H829 0.931 . S
C843 C842 1.385 . S
C843 C844 1.389 . S
C844 C843 1.389 . S
C844 C845 1.387 . S
C845 H830 0.930 . S
C845 C840 1.390 . S
C845 C844 1.387 . S
H846 C858 0.930 . S
H847 C860 0.930 . S
H848 C861 0.930 . S
H849 C865 0.959 . S
H850 C865 0.959 . S
H851 C865 0.961 . S
H852 C866 0.960 . S
H853 C866 0.961 . S
H854 C866 0.959 . S
H855 C869 0.929 . S
H856 C870 0.931 . S
H857 C872 0.930 . S
C858 H846 0.930 . S
C858 C859 1.399 . S
C858 C863 1.399 . S
C859 C858 1.399 . S
C859 C860 1.376 . S
C860 H847 0.930 . S
C860 C859 1.376 . S
C860 C861 1.388 . S
C861 H848 0.930 . S
C861 C860 1.388 . S
C861 C862 1.390 . S
C862 C861 1.390 . S
C862 C863 1.394 . S
C862 C868 1.465 . S
C863 C858 1.399 . S
C863 C862 1.394 . S
C863 C864 1.516 . S
C864 C863 1.516 . S
C864 C865 1.502 . S
C864 C866 1.561 . S
C864 C867 1.526 . S
C865 H849 0.959 . S
C865 H850 0.959 . S
C865 H851 0.961 . S
C865 C864 1.502 . S
C866 H852 0.960 . S
C866 H853 0.961 . S
C866 H854 0.959 . S
C866 C864 1.561 . S
C867 C864 1.526 . S
C867 C868 1.396 . S
C867 C872 1.390 . S
C868 C862 1.465 . S
C868 C867 1.396 . S
C868 C869 1.399 1_556 S
C869 H855 0.929 . S
C869 C868 1.399 1_554 S
C869 C870 1.385 . S
C870 H856 0.931 . S
C870 C869 1.385 . S
C870 C871 1.389 . S
C871 C870 1.389 . S
C871 C872 1.387 1_554 S
C872 H857 0.930 . S
C872 C867 1.390 . S
C872 C871 1.387 1_556 S
H873 C885 0.930 . S
H874 C887 0.930 . S
H875 C888 0.930 . S
H876 C892 0.959 . S
H877 C892 0.959 . S
H878 C892 0.961 . S
H879 C893 0.960 . S
H880 C893 0.961 . S
H881 C893 0.959 . S
H882 C896 0.929 . S
H883 C897 0.931 . S
H884 C899 0.930 . S
C885 H873 0.930 . S
C885 C886 1.399 . S
C885 C890 1.399 . S
C886 C885 1.399 . S
C886 C887 1.376 . S
C887 H874 0.930 . S
C887 C886 1.376 . S
C887 C888 1.388 . S
C888 H875 0.930 . S
C888 C887 1.388 . S
C888 C889 1.390 . S
C889 C888 1.390 . S
C889 C890 1.394 . S
C889 C895 1.465 . S
C890 C885 1.399 . S
C890 C889 1.394 . S
C890 C891 1.516 . S
C891 C890 1.516 . S
C891 C892 1.502 . S
C891 C893 1.561 . S
C891 C894 1.526 . S
C892 H876 0.959 . S
C892 H877 0.959 . S
C892 H878 0.961 . S
C892 C891 1.502 . S
C893 H879 0.960 . S
C893 H880 0.961 . S
C893 H881 0.959 . S
C893 C891 1.561 . S
C894 C891 1.526 . S
C894 C895 1.396 . S
C894 C899 1.390 . S
C895 C889 1.465 . S
C895 C894 1.396 . S
C895 C896 1.399 . S
C896 H882 0.929 . S
C896 C895 1.399 . S
C896 C897 1.385 . S
C897 H883 0.931 . S
C897 C896 1.385 . S
C897 C898 1.389 . S
C898 C897 1.389 . S
C898 C899 1.387 . S
C899 H884 0.930 . S
C899 C894 1.390 . S
C899 C898 1.387 . S
H900 C912 0.930 . S
H901 C914 0.930 . S
H902 C915 0.930 . S
H903 C919 0.959 . S
H904 C919 0.959 . S
H905 C919 0.961 . S
H906 C920 0.960 . S
H907 C920 0.961 . S
H908 C920 0.959 . S
H909 C923 0.929 . S
H910 C924 0.931 . S
H911 C926 0.930 . S
C912 H900 0.930 . S
C912 C913 1.399 . S
C912 C917 1.399 . S
C913 C912 1.399 . S
C913 C914 1.376 . S
C914 H901 0.930 . S
C914 C913 1.376 . S
C914 C915 1.388 . S
C915 H902 0.930 . S
C915 C914 1.388 . S
C915 C916 1.390 . S
C916 C915 1.390 . S
C916 C917 1.394 . S
C916 C922 1.465 . S
C917 C912 1.399 . S
C917 C916 1.394 . S
C917 C918 1.516 . S
C918 C917 1.516 . S
C918 C919 1.502 . S
C918 C920 1.561 . S
C918 C921 1.526 . S
C919 H903 0.959 . S
C919 H904 0.959 . S
C919 H905 0.961 . S
C919 C918 1.502 . S
C920 H906 0.960 . S
C920 H907 0.961 . S
C920 H908 0.959 . S
C920 C918 1.561 . S
C921 C918 1.526 . S
C921 C922 1.396 . S
C921 C926 1.390 . S
C922 C916 1.465 . S
C922 C921 1.396 . S
C922 C923 1.399 . S
C923 H909 0.929 . S
C923 C922 1.399 . S
C923 C924 1.385 . S
C924 H910 0.931 . S
C924 C923 1.385 . S
C924 C925 1.389 . S
C925 C924 1.389 . S
C925 C926 1.387 . S
C926 H911 0.930 . S
C926 C921 1.390 . S
C926 C925 1.387 . S
H927 C939 0.930 . S
H928 C941 0.930 . S
H929 C942 0.930 . S
H930 C946 0.959 . S
H931 C946 0.959 . S
H932 C946 0.961 . S
H933 C947 0.960 . S
H934 C947 0.961 . S
H935 C947 0.959 . S
H936 C950 0.929 . S
H937 C951 0.931 . S
H938 C953 0.930 . S
C939 H927 0.930 . S
C939 C940 1.399 . S
C939 C944 1.399 . S
C940 C939 1.399 . S
C940 C941 1.376 . S
C941 H928 0.930 . S
C941 C940 1.376 . S
C941 C942 1.388 . S
C942 H929 0.930 . S
C942 C941 1.388 . S
C942 C943 1.390 . S
C943 C942 1.390 . S
C943 C944 1.394 . S
C943 C949 1.465 . S
C944 C939 1.399 . S
C944 C943 1.394 . S
C944 C945 1.516 . S
C945 C944 1.516 . S
C945 C946 1.502 . S
C945 C947 1.561 . S
C945 C948 1.526 . S
C946 H930 0.959 . S
C946 H931 0.959 . S
C946 H932 0.961 . S
C946 C945 1.502 . S
C947 H933 0.960 . S
C947 H934 0.961 . S
C947 H935 0.959 . S
C947 C945 1.561 . S
C948 C945 1.526 . S
C948 C949 1.396 . S
C948 C953 1.390 . S
C949 C943 1.465 . S
C949 C948 1.396 . S
C949 C950 1.399 . S
C950 H936 0.929 . S
C950 C949 1.399 . S
C950 C951 1.385 . S
C951 H937 0.931 . S
C951 C950 1.385 . S
C951 C952 1.389 . S
C952 C951 1.389 . S
C952 C953 1.387 . S
C953 H938 0.930 . S
C953 C948 1.390 . S
C953 C952 1.387 . S
H954 C966 0.930 . S
H955 C968 0.930 . S
H956 C969 0.930 . S
H957 C973 0.959 . S
H958 C973 0.959 . S
H959 C973 0.961 . S
H960 C974 0.960 . S
H961 C974 0.961 . S
H962 C974 0.959 . S
H963 C977 0.929 . S
H964 C978 0.931 . S
H965 C980 0.930 . S
C966 H954 0.930 . S
C966 C967 1.399 . S
C966 C971 1.399 . S
C967 C966 1.399 . S
C967 C968 1.376 . S
C968 H955 0.930 . S
C968 C967 1.376 . S
C968 C969 1.388 . S
C969 H956 0.930 . S
C969 C968 1.388 . S
C969 C970 1.390 . S
C970 C969 1.390 . S
C970 C971 1.394 . S
C970 C976 1.465 . S
C971 C966 1.399 . S
C971 C970 1.394 . S
C971 C972 1.516 . S
C972 C971 1.516 . S
C972 C973 1.502 . S
C972 C974 1.561 . S
C972 C975 1.526 . S
C973 H957 0.959 . S
C973 H958 0.959 . S
C973 H959 0.961 . S
C973 C972 1.502 . S
C974 H960 0.960 . S
C974 H961 0.961 . S
C974 H962 0.959 . S
C974 C972 1.561 . S
C975 C972 1.526 . S
C975 C976 1.396 . S
C975 C980 1.390 . S
C976 C970 1.465 . S
C976 C975 1.396 . S
C976 C977 1.399 . S
C977 H963 0.929 . S
C977 C976 1.399 . S
C977 C978 1.385 . S
C978 H964 0.931 . S
C978 C977 1.385 . S
C978 C979 1.389 . S
C979 C978 1.389 . S
C979 C980 1.387 . S
C980 H965 0.930 . S
C980 C975 1.390 . S
C980 C979 1.387 . S
H981 C993 0.930 . S
H982 C995 0.930 . S
H983 C996 0.930 . S
H984 C1000 0.959 . S
H985 C1000 0.959 . S
H986 C1000 0.961 . S
H987 C1001 0.960 . S
H988 C1001 0.961 . S
H989 C1001 0.959 . S
H990 C1004 0.929 . S
H991 C1005 0.931 . S
H992 C1007 0.930 . S
C993 H981 0.930 . S
C993 C994 1.399 . S
C993 C998 1.399 . S
C994 C993 1.399 . S
C994 C995 1.376 . S
C995 H982 0.930 . S
C995 C994 1.376 . S
C995 C996 1.388 . S
C996 H983 0.930 . S
C996 C995 1.388 . S
C996 C997 1.390 . S
C997 C996 1.390 . S
C997 C998 1.394 . S
C997 C1003 1.465 . S
C998 C993 1.399 . S
C998 C997 1.394 . S
C998 C999 1.516 . S
C999 C998 1.516 . S
C999 C1000 1.502 . S
C999 C1001 1.561 . S
C999 C1002 1.526 . S
C1000 H984 0.959 . S
C1000 H985 0.959 . S
C1000 H986 0.961 . S
C1000 C999 1.502 . S
C1001 H987 0.960 . S
C1001 H988 0.961 . S
C1001 H989 0.959 . S
C1001 C999 1.561 . S
C1002 C999 1.526 . S
C1002 C1003 1.396 . S
C1002 C1007 1.390 . S
C1003 C997 1.465 . S
C1003 C1002 1.396 . S
C1003 C1004 1.399 . S
C1004 H990 0.929 . S
C1004 C1003 1.399 . S
C1004 C1005 1.385 . S
C1005 H991 0.931 . S
C1005 C1004 1.385 . S
C1005 C1006 1.389 . S
C1006 C1005 1.389 . S
C1006 C1007 1.387 . S
C1007 H992 0.930 . S
C1007 C1002 1.390 . S
C1007 C1006 1.387 . S
H1008 C1020 0.930 . S
H1009 C1022 0.930 . S
H1010 C1023 0.930 . S
H1011 C1027 0.959 . S
H1012 C1027 0.959 . S
H1013 C1027 0.961 . S
H1014 C1028 0.960 . S
H1015 C1028 0.961 . S
H1016 C1028 0.959 . S
H1017 C1031 0.929 . S
H1018 C1032 0.931 . S
H1019 C1034 0.930 . S
C1020 H1008 0.930 . S
C1020 C1021 1.399 . S
C1020 C1025 1.399 . S
C1021 C1020 1.399 . S
C1021 C1022 1.376 . S
C1022 H1009 0.930 . S
C1022 C1021 1.376 . S
C1022 C1023 1.388 . S
C1023 H1010 0.930 . S
C1023 C1022 1.388 . S
C1023 C1024 1.390 . S
C1024 C1023 1.390 . S
C1024 C1025 1.394 . S
C1024 C1030 1.465 . S
C1025 C1020 1.399 . S
C1025 C1024 1.394 . S
C1025 C1026 1.516 . S
C1026 C1025 1.516 . S
C1026 C1027 1.502 . S
C1026 C1028 1.561 . S
C1026 C1029 1.526 . S
C1027 H1011 0.959 . S
C1027 H1012 0.959 . S
C1027 H1013 0.961 . S
C1027 C1026 1.502 . S
C1028 H1014 0.960 . S
C1028 H1015 0.961 . S
C1028 H1016 0.959 . S
C1028 C1026 1.561 . S
C1029 C1026 1.526 . S
C1029 C1030 1.396 . S
C1029 C1034 1.390 . S
C1030 C1024 1.465 . S
C1030 C1029 1.396 . S
C1030 C1031 1.399 . S
C1031 H1017 0.929 . S
C1031 C1030 1.399 . S
C1031 C1032 1.385 . S
C1032 H1018 0.931 . S
C1032 C1031 1.385 . S
C1032 C1033 1.389 . S
C1033 C1032 1.389 . S
C1033 C1034 1.387 . S
C1034 H1019 0.930 . S
C1034 C1029 1.390 . S
C1034 C1033 1.387 . S
H1035 C1047 0.930 . S
H1036 C1049 0.930 . S
H1037 C1050 0.930 . S
H1038 C1054 0.959 . S
H1039 C1054 0.959 . S
H1040 C1054 0.961 . S
H1041 C1055 0.960 . S
H1042 C1055 0.961 . S
H1043 C1055 0.959 . S
H1044 C1058 0.929 . S
H1045 C1059 0.931 . S
H1046 C1061 0.930 . S
C1047 H1035 0.930 . S
C1047 C1048 1.399 . S
C1047 C1052 1.399 . S
C1048 C1047 1.399 . S
C1048 C1049 1.376 . S
C1049 H1036 0.930 . S
C1049 C1048 1.376 . S
C1049 C1050 1.388 . S
C1050 H1037 0.930 . S
C1050 C1049 1.388 . S
C1050 C1051 1.390 . S
C1051 C1050 1.390 . S
C1051 C1052 1.394 . S
C1051 C1057 1.465 . S
C1052 C1047 1.399 . S
C1052 C1051 1.394 . S
C1052 C1053 1.516 . S
C1053 C1052 1.516 . S
C1053 C1054 1.502 . S
C1053 C1055 1.561 . S
C1053 C1056 1.526 . S
C1054 H1038 0.959 . S
C1054 H1039 0.959 . S
C1054 H1040 0.961 . S
C1054 C1053 1.502 . S
C1055 H1041 0.960 . S
C1055 H1042 0.961 . S
C1055 H1043 0.959 . S
C1055 C1053 1.561 . S
C1056 C1053 1.526 . S
C1056 C1057 1.396 . S
C1056 C1061 1.390 . S
C1057 C1051 1.465 . S
C1057 C1056 1.396 . S
C1057 C1058 1.399 . S
C1058 H1044 0.929 . S
C1058 C1057 1.399 . S
C1058 C1059 1.385 . S
C1059 H1045 0.931 . S
C1059 C1058 1.385 . S
C1059 C1060 1.389 . S
C1060 C1059 1.389 . S
C1060 C1061 1.387 . S
C1061 H1046 0.930 . S
C1061 C1056 1.390 . S
C1061 C1060 1.387 . S
H1062 C1074 0.930 . S
H1063 C1076 0.930 . S
H1064 C1077 0.930 . S
H1065 C1081 0.959 . S
H1066 C1081 0.959 . S
H1067 C1081 0.961 . S
H1068 C1082 0.960 . S
H1069 C1082 0.961 . S
H1070 C1082 0.959 . S
H1071 C1085 0.929 . S
H1072 C1086 0.931 . S
H1073 C1088 0.930 . S
C1074 H1062 0.930 . S
C1074 C1075 1.399 . S
C1074 C1079 1.399 . S
C1075 C1074 1.399 . S
C1075 C1076 1.376 . S
C1076 H1063 0.930 . S
C1076 C1075 1.376 . S
C1076 C1077 1.388 . S
C1077 H1064 0.930 . S
C1077 C1076 1.388 . S
C1077 C1078 1.390 . S
C1078 C1077 1.390 . S
C1078 C1079 1.394 . S
C1078 C1084 1.465 . S
C1079 C1074 1.399 . S
C1079 C1078 1.394 . S
C1079 C1080 1.516 . S
C1080 C1079 1.516 . S
C1080 C1081 1.502 . S
C1080 C1082 1.561 . S
C1080 C1083 1.526 . S
C1081 H1065 0.959 . S
C1081 H1066 0.959 . S
C1081 H1067 0.961 . S
C1081 C1080 1.502 . S
C1082 H1068 0.960 . S
C1082 H1069 0.961 . S
C1082 H1070 0.959 . S
C1082 C1080 1.561 . S
C1083 C1080 1.526 . S
C1083 C1084 1.396 . S
C1083 C1088 1.390 . S
C1084 C1078 1.465 . S
C1084 C1083 1.396 . S
C1084 C1085 1.399 . S
C1085 H1071 0.929 . S
C1085 C1084 1.399 . S
C1085 C1086 1.385 . S
C1086 H1072 0.931 . S
C1086 C1085 1.385 . S
C1086 C1087 1.389 . S
C1087 C1086 1.389 . S
C1087 C1088 1.387 . S
C1088 H1073 0.930 . S
C1088 C1083 1.390 . S
C1088 C1087 1.387 . S
H1089 C1101 0.930 . S
H1090 C1103 0.930 . S
H1091 C1104 0.930 . S
H1092 C1108 0.959 . S
H1093 C1108 0.959 . S
H1094 C1108 0.961 . S
H1095 C1109 0.960 . S
H1096 C1109 0.961 . S
H1097 C1109 0.959 . S
H1098 C1112 0.929 . S
H1099 C1113 0.931 . S
H1100 C1115 0.930 . S
C1101 H1089 0.930 . S
C1101 C1102 1.399 . S
C1101 C1106 1.399 . S
C1102 C1101 1.399 . S
C1102 C1103 1.376 . S
C1103 H1090 0.930 . S
C1103 C1102 1.376 . S
C1103 C1104 1.388 . S
C1104 H1091 0.930 . S
C1104 C1103 1.388 . S
C1104 C1105 1.390 . S
C1105 C1104 1.390 . S
C1105 C1106 1.394 . S
C1105 C1111 1.465 . S
C1106 C1101 1.399 . S
C1106 C1105 1.394 . S
C1106 C1107 1.516 . S
C1107 C1106 1.516 . S
C1107 C1108 1.502 . S
C1107 C1109 1.561 . S
C1107 C1110 1.526 . S
C1108 H1092 0.959 . S
C1108 H1093 0.959 . S
C1108 H1094 0.961 . S
C1108 C1107 1.502 . S
C1109 H1095 0.960 . S
C1109 H1096 0.961 . S
C1109 H1097 0.959 . S
C1109 C1107 1.561 . S
C1110 C1107 1.526 . S
C1110 C1111 1.396 . S
C1110 C1115 1.390 . S
C1111 C1105 1.465 . S
C1111 C1110 1.396 . S
C1111 C1112 1.399 . S
C1112 H1098 0.929 . S
C1112 C1111 1.399 . S
C1112 C1113 1.385 . S
C1113 H1099 0.931 . S
C1113 C1112 1.385 . S
C1113 C1114 1.389 . S
C1114 C1113 1.389 . S
C1114 C1115 1.387 . S
C1115 H1100 0.930 . S
C1115 C1110 1.390 . S
C1115 C1114 1.387 . S
H1116 C1128 0.930 . S
H1117 C1130 0.930 . S
H1118 C1131 0.930 . S
H1119 C1135 0.959 . S
H1120 C1135 0.959 . S
H1121 C1135 0.961 . S
H1122 C1136 0.960 . S
H1123 C1136 0.961 . S
H1124 C1136 0.959 . S
H1125 C1139 0.929 . S
H1126 C1140 0.931 . S
H1127 C1142 0.930 . S
C1128 H1116 0.930 . S
C1128 C1129 1.399 . S
C1128 C1133 1.399 . S
C1129 C1128 1.399 . S
C1129 C1130 1.376 . S
C1130 H1117 0.930 . S
C1130 C1129 1.376 . S
C1130 C1131 1.388 . S
C1131 H1118 0.930 . S
C1131 C1130 1.388 . S
C1131 C1132 1.390 . S
C1132 C1131 1.390 . S
C1132 C1133 1.394 . S
C1132 C1138 1.465 . S
C1133 C1128 1.399 . S
C1133 C1132 1.394 . S
C1133 C1134 1.516 . S
C1134 C1133 1.516 . S
C1134 C1135 1.502 . S
C1134 C1136 1.561 . S
C1134 C1137 1.526 . S
C1135 H1119 0.959 . S
C1135 H1120 0.959 . S
C1135 H1121 0.961 . S
C1135 C1134 1.502 . S
C1136 H1122 0.960 . S
C1136 H1123 0.961 . S
C1136 H1124 0.959 . S
C1136 C1134 1.561 . S
C1137 C1134 1.526 . S
C1137 C1138 1.396 . S
C1137 C1142 1.390 . S
C1138 C1132 1.465 . S
C1138 C1137 1.396 . S
C1138 C1139 1.399 . S
C1139 H1125 0.929 . S
C1139 C1138 1.399 . S
C1139 C1140 1.385 . S
C1140 H1126 0.931 . S
C1140 C1139 1.385 . S
C1140 C1141 1.389 . S
C1141 C1140 1.389 . S
C1141 C1142 1.387 . S
C1142 H1127 0.930 . S
C1142 C1137 1.390 . S
C1142 C1141 1.387 . S
H1143 C1155 0.930 . S
H1144 C1157 0.930 . S
H1145 C1158 0.930 . S
H1146 C1162 0.959 . S
H1147 C1162 0.959 . S
H1148 C1162 0.961 . S
H1149 C1163 0.960 . S
H1150 C1163 0.961 . S
H1151 C1163 0.959 . S
H1152 C1166 0.929 . S
H1153 C1167 0.931 . S
H1154 C1169 0.930 . S
C1155 H1143 0.930 . S
C1155 C1156 1.399 . S
C1155 C1160 1.399 . S
C1156 C1155 1.399 . S
C1156 C1157 1.376 . S
C1157 H1144 0.930 . S
C1157 C1156 1.376 . S
C1157 C1158 1.388 . S
C1158 H1145 0.930 . S
C1158 C1157 1.388 . S
C1158 C1159 1.390 . S
C1159 C1158 1.390 . S
C1159 C1160 1.394 . S
C1159 C1165 1.465 . S
C1160 C1155 1.399 . S
C1160 C1159 1.394 . S
C1160 C1161 1.516 . S
C1161 C1160 1.516 . S
C1161 C1162 1.502 . S
C1161 C1163 1.561 . S
C1161 C1164 1.526 . S
C1162 H1146 0.959 . S
C1162 H1147 0.959 . S
C1162 H1148 0.961 . S
C1162 C1161 1.502 . S
C1163 H1149 0.960 . S
C1163 H1150 0.961 . S
C1163 H1151 0.959 . S
C1163 C1161 1.561 . S
C1164 C1161 1.526 . S
C1164 C1165 1.396 . S
C1164 C1169 1.390 . S
C1165 C1159 1.465 . S
C1165 C1164 1.396 . S
C1165 C1166 1.399 . S
C1166 H1152 0.929 . S
C1166 C1165 1.399 . S
C1166 C1167 1.385 . S
C1167 H1153 0.931 . S
C1167 C1166 1.385 . S
C1167 C1168 1.389 . S
C1168 C1167 1.389 . S
C1168 C1169 1.387 . S
C1169 H1154 0.930 . S
C1169 C1164 1.390 . S
C1169 C1168 1.387 . S
H1170 C1182 0.930 . S
H1171 C1184 0.930 . S
H1172 C1185 0.930 . S
H1173 C1189 0.959 . S
H1174 C1189 0.959 . S
H1175 C1189 0.961 . S
H1176 C1190 0.960 . S
H1177 C1190 0.961 . S
H1178 C1190 0.959 . S
H1179 C1193 0.929 . S
H1180 C1194 0.931 . S
H1181 C1196 0.930 . S
C1182 H1170 0.930 . S
C1182 C1183 1.399 . S
C1182 C1187 1.399 . S
C1183 C1182 1.399 . S
C1183 C1184 1.376 . S
C1184 H1171 0.930 . S
C1184 C1183 1.376 . S
C1184 C1185 1.388 . S
C1185 H1172 0.930 . S
C1185 C1184 1.388 . S
C1185 C1186 1.390 . S
C1186 C1185 1.390 . S
C1186 C1187 1.394 . S
C1186 C1192 1.465 . S
C1187 C1182 1.399 . S
C1187 C1186 1.394 . S
C1187 C1188 1.516 . S
C1188 C1187 1.516 . S
C1188 C1189 1.502 . S
C1188 C1190 1.561 . S
C1188 C1191 1.526 . S
C1189 H1173 0.959 . S
C1189 H1174 0.959 . S
C1189 H1175 0.961 . S
C1189 C1188 1.502 . S
C1190 H1176 0.960 . S
C1190 H1177 0.961 . S
C1190 H1178 0.959 . S
C1190 C1188 1.561 . S
C1191 C1188 1.526 . S
C1191 C1192 1.396 . S
C1191 C1196 1.390 . S
C1192 C1186 1.465 . S
C1192 C1191 1.396 . S
C1192 C1193 1.399 . S
C1193 H1179 0.929 . S
C1193 C1192 1.399 . S
C1193 C1194 1.385 . S
C1194 H1180 0.931 . S
C1194 C1193 1.385 . S
C1194 C1195 1.389 . S
C1195 C1194 1.389 . S
C1195 C1196 1.387 . S
C1196 H1181 0.930 . S
C1196 C1191 1.390 . S
C1196 C1195 1.387 . S
H1197 C1209 0.930 . S
H1198 C1211 0.930 . S
H1199 C1212 0.930 . S
H1200 C1216 0.959 . S
H1201 C1216 0.959 . S
H1202 C1216 0.961 . S
H1203 C1217 0.960 . S
H1204 C1217 0.961 . S
H1205 C1217 0.959 . S
H1206 C1220 0.929 . S
H1207 C1221 0.931 . S
H1208 C1223 0.930 . S
C1209 H1197 0.930 . S
C1209 C1210 1.399 . S
C1209 C1214 1.399 . S
C1210 C1209 1.399 . S
C1210 C1211 1.376 . S
C1211 H1198 0.930 . S
C1211 C1210 1.376 . S
C1211 C1212 1.388 . S
C1212 H1199 0.930 . S
C1212 C1211 1.388 . S
C1212 C1213 1.390 . S
C1213 C1212 1.390 . S
C1213 C1214 1.394 . S
C1213 C1219 1.465 . S
C1214 C1209 1.399 . S
C1214 C1213 1.394 . S
C1214 C1215 1.516 . S
C1215 C1214 1.516 . S
C1215 C1216 1.502 . S
C1215 C1217 1.561 . S
C1215 C1218 1.526 . S
C1216 H1200 0.959 . S
C1216 H1201 0.959 . S
C1216 H1202 0.961 . S
C1216 C1215 1.502 . S
C1217 H1203 0.960 . S
C1217 H1204 0.961 . S
C1217 H1205 0.959 . S
C1217 C1215 1.561 . S
C1218 C1215 1.526 . S
C1218 C1219 1.396 . S
C1218 C1223 1.390 . S
C1219 C1213 1.465 . S
C1219 C1218 1.396 . S
C1219 C1220 1.399 . S
C1220 H1206 0.929 . S
C1220 C1219 1.399 . S
C1220 C1221 1.385 . S
C1221 H1207 0.931 . S
C1221 C1220 1.385 . S
C1221 C1222 1.389 . S
C1222 C1221 1.389 . S
C1222 C1223 1.387 . S
C1223 H1208 0.930 . S
C1223 C1218 1.390 . S
C1223 C1222 1.387 . S
H1224 C1236 0.930 . S
H1225 C1238 0.930 . S
H1226 C1239 0.930 . S
H1227 C1243 0.959 . S
H1228 C1243 0.959 . S
H1229 C1243 0.961 . S
H1230 C1244 0.960 . S
H1231 C1244 0.961 . S
H1232 C1244 0.959 . S
H1233 C1247 0.929 . S
H1234 C1248 0.931 . S
H1235 C1250 0.930 . S
C1236 H1224 0.930 . S
C1236 C1237 1.399 . S
C1236 C1241 1.399 . S
C1237 C1236 1.399 . S
C1237 C1238 1.376 . S
C1238 H1225 0.930 . S
C1238 C1237 1.376 . S
C1238 C1239 1.388 . S
C1239 H1226 0.930 . S
C1239 C1238 1.388 . S
C1239 C1240 1.390 . S
C1240 C1239 1.390 . S
C1240 C1241 1.394 . S
C1240 C1246 1.465 . S
C1241 C1236 1.399 . S
C1241 C1240 1.394 . S
C1241 C1242 1.516 . S
C1242 C1241 1.516 . S
C1242 C1243 1.502 . S
C1242 C1244 1.561 . S
C1242 C1245 1.526 . S
C1243 H1227 0.959 . S
C1243 H1228 0.959 . S
C1243 H1229 0.961 . S
C1243 C1242 1.502 . S
C1244 H1230 0.960 . S
C1244 H1231 0.961 . S
C1244 H1232 0.959 . S
C1244 C1242 1.561 . S
C1245 C1242 1.526 . S
C1245 C1246 1.396 . S
C1245 C1250 1.390 . S
C1246 C1240 1.465 . S
C1246 C1245 1.396 . S
C1246 C1247 1.399 . S
C1247 H1233 0.929 . S
C1247 C1246 1.399 . S
C1247 C1248 1.385 . S
C1248 H1234 0.931 . S
C1248 C1247 1.385 . S
C1248 C1249 1.389 . S
C1249 C1248 1.389 . S
C1249 C1250 1.387 . S
C1250 H1235 0.930 . S
C1250 C1245 1.390 . S
C1250 C1249 1.387 . S
H1251 C1263 0.930 . S
H1252 C1265 0.930 . S
H1253 C1266 0.930 . S
H1254 C1270 0.959 . S
H1255 C1270 0.959 . S
H1256 C1270 0.961 . S
H1257 C1271 0.960 . S
H1258 C1271 0.961 . S
H1259 C1271 0.959 . S
H1260 C1274 0.929 . S
H1261 C1275 0.931 . S
H1262 C1277 0.930 . S
C1263 H1251 0.930 . S
C1263 C1264 1.399 . S
C1263 C1268 1.399 . S
C1264 C1263 1.399 . S
C1264 C1265 1.376 . S
C1265 H1252 0.930 . S
C1265 C1264 1.376 . S
C1265 C1266 1.388 . S
C1266 H1253 0.930 . S
C1266 C1265 1.388 . S
C1266 C1267 1.390 . S
C1267 C1266 1.390 . S
C1267 C1268 1.394 . S
C1267 C1273 1.465 . S
C1268 C1263 1.399 . S
C1268 C1267 1.394 . S
C1268 C1269 1.516 . S
C1269 C1268 1.516 . S
C1269 C1270 1.502 . S
C1269 C1271 1.561 . S
C1269 C1272 1.526 . S
C1270 H1254 0.959 . S
C1270 H1255 0.959 . S
C1270 H1256 0.961 . S
C1270 C1269 1.502 . S
C1271 H1257 0.960 . S
C1271 H1258 0.961 . S
C1271 H1259 0.959 . S
C1271 C1269 1.561 . S
C1272 C1269 1.526 . S
C1272 C1273 1.396 . S
C1272 C1277 1.390 . S
C1273 C1267 1.465 . S
C1273 C1272 1.396 . S
C1273 C1274 1.399 . S
C1274 H1260 0.929 . S
C1274 C1273 1.399 . S
C1274 C1275 1.385 . S
C1275 H1261 0.931 . S
C1275 C1274 1.385 . S
C1275 C1276 1.389 . S
C1276 C1275 1.389 . S
C1276 C1277 1.387 . S
C1277 H1262 0.930 . S
C1277 C1272 1.390 . S
C1277 C1276 1.387 . S
H1278 C1290 0.930 . S
H1279 C1292 0.930 . S
H1280 C1293 0.930 . S
H1281 C1297 0.959 . S
H1282 C1297 0.959 . S
H1283 C1297 0.961 . S
H1284 C1298 0.960 . S
H1285 C1298 0.961 1_556 S
H1286 C1298 0.959 . S
H1287 C1301 0.929 . S
H1288 C1302 0.931 . S
H1289 C1304 0.930 1_556 S
C1290 H1278 0.930 . S
C1290 C1291 1.399 . S
C1290 C1295 1.399 . S
C1291 C1290 1.399 . S
C1291 C1292 1.376 . S
C1292 H1279 0.930 . S
C1292 C1291 1.376 . S
C1292 C1293 1.388 . S
C1293 H1280 0.930 . S
C1293 C1292 1.388 . S
C1293 C1294 1.390 . S
C1294 C1293 1.390 . S
C1294 C1295 1.394 . S
C1294 C1300 1.465 . S
C1295 C1290 1.399 . S
C1295 C1294 1.394 . S
C1295 C1296 1.516 . S
C1296 C1295 1.516 . S
C1296 C1297 1.502 . S
C1296 C1298 1.561 . S
C1296 C1299 1.526 . S
C1297 H1281 0.959 . S
C1297 H1282 0.959 . S
C1297 H1283 0.961 . S
C1297 C1296 1.502 . S
C1298 H1284 0.960 . S
C1298 H1285 0.961 1_554 S
C1298 H1286 0.959 . S
C1298 C1296 1.561 . S
C1299 C1296 1.526 . S
C1299 C1300 1.396 . S
C1299 C1304 1.390 . S
C1300 C1294 1.465 . S
C1300 C1299 1.396 . S
C1300 C1301 1.399 . S
C1301 H1287 0.929 . S
C1301 C1300 1.399 . S
C1301 C1302 1.385 . S
C1302 H1288 0.931 . S
C1302 C1301 1.385 . S
C1302 C1303 1.389 . S
C1303 C1302 1.389 . S
C1303 C1304 1.387 . S
C1304 H1289 0.930 1_554 S
C1304 C1299 1.390 . S
C1304 C1303 1.387 . S
H1305 C1317 0.930 . S
H1306 C1319 0.930 . S
H1307 C1320 0.930 . S
H1308 C1324 0.959 . S
H1309 C1324 0.959 . S
H1310 C1324 0.961 . S
H1311 C1325 0.960 . S
H1312 C1325 0.961 . S
H1313 C1325 0.959 . S
H1314 C1328 0.929 . S
H1315 C1329 0.931 1_556 S
H1316 C1331 0.930 . S
C1317 H1305 0.930 . S
C1317 C1318 1.399 . S
C1317 C1322 1.399 . S
C1318 C1317 1.399 . S
C1318 C1319 1.376 . S
C1319 H1306 0.930 . S
C1319 C1318 1.376 . S
C1319 C1320 1.388 . S
C1320 H1307 0.930 . S
C1320 C1319 1.388 . S
C1320 C1321 1.390 . S
C1321 C1320 1.390 . S
C1321 C1322 1.394 . S
C1321 C1327 1.465 . S
C1322 C1317 1.399 . S
C1322 C1321 1.394 . S
C1322 C1323 1.516 . S
C1323 C1322 1.516 . S
C1323 C1324 1.502 . S
C1323 C1325 1.561 . S
C1323 C1326 1.526 . S
C1324 H1308 0.959 . S
C1324 H1309 0.959 . S
C1324 H1310 0.961 . S
C1324 C1323 1.502 . S
C1325 H1311 0.960 . S
C1325 H1312 0.961 . S
C1325 H1313 0.959 . S
C1325 C1323 1.561 . S
C1326 C1323 1.526 . S
C1326 C1327 1.396 . S
C1326 C1331 1.390 . S
C1327 C1321 1.465 . S
C1327 C1326 1.396 . S
C1327 C1328 1.399 . S
C1328 H1314 0.929 . S
C1328 C1327 1.399 . S
C1328 C1329 1.385 . S
C1329 H1315 0.931 1_554 S
C1329 C1328 1.385 . S
C1329 C1330 1.389 . S
C1330 C1329 1.389 . S
C1330 C1331 1.387 . S
C1331 H1316 0.930 . S
C1331 C1326 1.390 . S
C1331 C1330 1.387 . S
H1332 C1344 0.930 . S
H1333 C1346 0.930 . S
H1334 C1347 0.930 1_556 S
H1335 C1351 0.959 . S
H1336 C1351 0.959 . S
H1337 C1351 0.961 . S
H1338 C1352 0.960 . S
H1339 C1352 0.961 . S
H1340 C1352 0.959 . S
H1341 C1355 0.929 . S
H1342 C1356 0.931 . S
H1343 C1358 0.930 . S
C1344 H1332 0.930 . S
C1344 C1345 1.399 . S
C1344 C1349 1.399 . S
C1345 C1344 1.399 . S
C1345 C1346 1.376 1_554 S
C1346 H1333 0.930 . S
C1346 C1345 1.376 1_556 S
C1346 C1347 1.388 1_556 S
C1347 H1334 0.930 1_554 S
C1347 C1346 1.388 1_554 S
C1347 C1348 1.390 . S
C1348 C1347 1.390 . S
C1348 C1349 1.394 . S
C1348 C1354 1.465 . S
C1349 C1344 1.399 . S
C1349 C1348 1.394 . S
C1349 C1350 1.516 . S
C1350 C1349 1.516 . S
C1350 C1351 1.502 . S
C1350 C1352 1.561 . S
C1350 C1353 1.526 . S
C1351 H1335 0.959 . S
C1351 H1336 0.959 . S
C1351 H1337 0.961 . S
C1351 C1350 1.502 . S
C1352 H1338 0.960 . S
C1352 H1339 0.961 . S
C1352 H1340 0.959 . S
C1352 C1350 1.561 . S
C1353 C1350 1.526 . S
C1353 C1354 1.396 . S
C1353 C1358 1.390 . S
C1354 C1348 1.465 . S
C1354 C1353 1.396 . S
C1354 C1355 1.399 . S
C1355 H1341 0.929 . S
C1355 C1354 1.399 . S
C1355 C1356 1.385 . S
C1356 H1342 0.931 . S
C1356 C1355 1.385 . S
C1356 C1357 1.389 . S
C1357 C1356 1.389 . S
C1357 C1358 1.387 . S
C1358 H1343 0.930 . S
C1358 C1353 1.390 . S
C1358 C1357 1.387 . S
H1359 C1371 0.930 . S
H1360 C1373 0.930 . S
H1361 C1374 0.930 . S
H1362 C1378 0.959 . S
H1363 C1378 0.959 . S
H1364 C1378 0.961 . S
H1365 C1379 0.960 . S
H1366 C1379 0.961 . S
H1367 C1379 0.959 . S
H1368 C1382 0.929 . S
H1369 C1383 0.931 . S
H1370 C1385 0.930 . S
C1371 H1359 0.930 . S
C1371 C1372 1.399 . S
C1371 C1376 1.403 . S
C1372 C1371 1.399 . S
C1372 C1373 1.376 . S
C1373 H1360 0.930 . S
C1373 C1372 1.376 . S
C1373 C1374 1.388 1_556 S
C1374 H1361 0.930 . S
C1374 C1373 1.388 1_554 S
C1374 C1375 1.390 . S
C1375 C1374 1.390 . S
C1375 C1376 1.390 1_554 S
C1375 C1381 1.465 . S
C1376 C1371 1.403 . S
C1376 C1375 1.390 1_556 S
C1376 C1377 1.515 1_556 S
C1377 C1376 1.515 1_554 S
C1377 C1378 1.502 1_554 S
C1377 C1379 1.561 . S
C1377 C1380 1.526 . S
C1378 H1362 0.959 . S
C1378 H1363 0.959 . S
C1378 H1364 0.961 . S
C1378 C1377 1.502 1_556 S
C1379 H1365 0.960 . S
C1379 H1366 0.961 . S
C1379 H1367 0.959 . S
C1379 C1377 1.561 . S
C1380 C1377 1.526 . S
C1380 C1381 1.396 . S
C1380 C1385 1.390 . S
C1381 C1375 1.465 . S
C1381 C1380 1.396 . S
C1381 C1382 1.399 . S
C1382 H1368 0.929 . S
C1382 C1381 1.399 . S
C1382 C1383 1.385 . S
C1383 H1369 0.931 . S
C1383 C1382 1.385 . S
C1383 C1384 1.389 . S
C1384 C1383 1.389 . S
C1384 C1385 1.387 . S
C1385 H1370 0.930 . S
C1385 C1380 1.390 . S
C1385 C1384 1.387 . S
H1386 C1398 0.930 1_554 S
H1387 C1400 0.930 . S
H1388 C1401 0.930 . S
H1389 C1405 0.959 . S
H1390 C1405 0.959 . S
H1391 C1405 0.961 . S
H1392 C1406 0.960 . S
H1393 C1406 0.961 . S
H1394 C1406 0.959 . S
H1395 C1409 0.929 1_556 S
H1396 C1410 0.931 . S
H1397 C1412 0.930 . S
C1398 H1386 0.930 1_556 S
C1398 C1399 1.399 . S
C1398 C1403 1.399 1_556 S
C1399 C1398 1.399 . S
C1399 C1400 1.376 . S
C1400 H1387 0.930 . S
C1400 C1399 1.376 . S
C1400 C1401 1.388 . S
C1401 H1388 0.930 . S
C1401 C1400 1.388 . S
C1401 C1402 1.390 . S
C1402 C1401 1.390 . S
C1402 C1403 1.394 1_556 S
C1402 C1408 1.465 1_556 S
C1403 C1398 1.399 1_554 S
C1403 C1402 1.394 1_554 S
C1403 C1404 1.516 . S
C1404 C1403 1.516 . S
C1404 C1405 1.502 . S
C1404 C1406 1.561 . S
C1404 C1407 1.526 . S
C1405 H1389 0.959 . S
C1405 H1390 0.959 . S
C1405 H1391 0.961 . S
C1405 C1404 1.502 . S
C1406 H1392 0.960 . S
C1406 H1393 0.961 . S
C1406 H1394 0.959 . S
C1406 C1404 1.561 . S
C1407 C1404 1.526 . S
C1407 C1408 1.396 . S
C1407 C1412 1.390 . S
C1408 C1402 1.465 1_554 S
C1408 C1407 1.396 . S
C1408 C1409 1.399 . S
C1409 H1395 0.929 1_554 S
C1409 C1408 1.399 . S
C1409 C1410 1.385 . S
C1410 H1396 0.931 . S
C1410 C1409 1.385 . S
C1410 C1411 1.389 . S
C1411 C1410 1.389 . S
C1411 C1412 1.387 . S
C1412 H1397 0.930 . S
C1412 C1407 1.390 . S
C1412 C1411 1.387 . S
H1413 C1425 0.930 . S
H1414 C1427 0.929 1_554 S
H1415 C1428 0.930 . S
H1416 C1432 0.959 1_554 S
H1417 C1432 0.959 . S
H1418 C1432 0.961 . S
H1419 C1433 0.960 . S
H1420 C1433 0.961 . S
H1421 C1433 0.959 . S
H1422 C1436 0.929 . S
H1423 C1437 0.931 . S
H1424 C1439 0.930 . S
C1425 H1413 0.930 . S
C1425 C1426 1.399 . S
C1425 C1430 1.399 . S
C1426 C1425 1.399 . S
C1426 C1427 1.376 . S
C1427 H1414 0.929 1_556 S
C1427 C1426 1.376 . S
C1427 C1428 1.388 1_556 S
C1428 H1415 0.930 . S
C1428 C1427 1.388 1_554 S
C1428 C1429 1.390 . S
C1429 C1428 1.390 . S
C1429 C1430 1.394 1_554 S
C1429 C1435 1.465 . S
C1430 C1425 1.399 . S
C1430 C1429 1.394 1_556 S
C1430 C1431 1.516 . S
C1431 C1430 1.516 . S
C1431 C1432 1.502 . S
C1431 C1433 1.561 . S
C1431 C1434 1.526 1_556 S
C1432 H1416 0.959 1_556 S
C1432 H1417 0.959 . S
C1432 H1418 0.961 . S
C1432 C1431 1.502 . S
C1433 H1419 0.960 . S
C1433 H1420 0.961 . S
C1433 H1421 0.959 . S
C1433 C1431 1.561 . S
C1434 C1431 1.526 1_554 S
C1434 C1435 1.396 . S
C1434 C1439 1.390 . S
C1435 C1429 1.465 . S
C1435 C1434 1.396 . S
C1435 C1436 1.399 . S
C1436 H1422 0.929 . S
C1436 C1435 1.399 . S
C1436 C1437 1.385 . S
C1437 H1423 0.931 . S
C1437 C1436 1.385 . S
C1437 C1438 1.389 . S
C1438 C1437 1.389 . S
C1438 C1439 1.387 . S
C1439 H1424 0.930 . S
C1439 C1434 1.390 . S
C1439 C1438 1.387 . S
H1440 C1452 0.930 . S
H1441 C1454 0.930 . S
H1442 C1455 0.930 . S
H1443 C1459 0.959 . S
H1444 C1459 0.959 . S
H1445 C1459 0.961 . S
H1446 C1460 0.960 . S
H1447 C1460 0.961 . S
H1448 C1460 0.959 . S
H1449 C1463 0.929 . S
H1450 C1464 0.931 . S
H1451 C1466 0.930 . S
C1452 H1440 0.930 . S
C1452 C1453 1.399 . S
C1452 C1457 1.399 . S
C1453 C1452 1.399 . S
C1453 C1454 1.376 . S
C1454 H1441 0.930 . S
C1454 C1453 1.376 . S
C1454 C1455 1.388 . S
C1455 H1442 0.930 . S
C1455 C1454 1.388 . S
C1455 C1456 1.390 . S
C1456 C1455 1.390 . S
C1456 C1457 1.394 . S
C1456 C1462 1.465 . S
C1457 C1452 1.399 . S
C1457 C1456 1.394 . S
C1457 C1458 1.516 . S
C1458 C1457 1.516 . S
C1458 C1459 1.502 . S
C1458 C1460 1.561 . S
C1458 C1461 1.526 . S
C1459 H1443 0.959 . S
C1459 H1444 0.959 . S
C1459 H1445 0.961 . S
C1459 C1458 1.502 . S
C1460 H1446 0.960 . S
C1460 H1447 0.961 . S
C1460 H1448 0.959 . S
C1460 C1458 1.561 . S
C1461 C1458 1.526 . S
C1461 C1462 1.396 . S
C1461 C1466 1.390 . S
C1462 C1456 1.465 . S
C1462 C1461 1.396 . S
C1462 C1463 1.399 . S
C1463 H1449 0.929 . S
C1463 C1462 1.399 . S
C1463 C1464 1.385 . S
C1464 H1450 0.931 . S
C1464 C1463 1.385 . S
C1464 C1465 1.389 . S
C1465 C1464 1.389 . S
C1465 C1466 1.387 . S
C1466 H1451 0.930 . S
C1466 C1461 1.390 . S
C1466 C1465 1.387 . S
H1467 C1479 0.930 . S
H1468 C1481 0.930 . S
H1469 C1482 0.930 . S
H1470 C1486 0.959 . S
H1471 C1486 0.959 . S
H1472 C1486 0.961 . S
H1473 C1487 0.960 . S
H1474 C1487 0.961 . S
H1475 C1487 0.959 . S
H1476 C1490 0.929 . S
H1477 C1491 0.931 . S
H1478 C1493 0.930 . S
C1479 H1467 0.930 . S
C1479 C1480 1.399 . S
C1479 C1484 1.399 . S
C1480 C1479 1.399 . S
C1480 C1481 1.376 . S
C1481 H1468 0.930 . S
C1481 C1480 1.376 . S
C1481 C1482 1.388 . S
C1482 H1469 0.930 . S
C1482 C1481 1.388 . S
C1482 C1483 1.390 . S
C1483 C1482 1.390 . S
C1483 C1484 1.394 . S
C1483 C1489 1.465 . S
C1484 C1479 1.399 . S
C1484 C1483 1.394 . S
C1484 C1485 1.516 . S
C1485 C1484 1.516 . S
C1485 C1486 1.502 . S
C1485 C1487 1.561 . S
C1485 C1488 1.526 . S
C1486 H1470 0.959 . S
C1486 H1471 0.959 . S
C1486 H1472 0.961 . S
C1486 C1485 1.502 . S
C1487 H1473 0.960 . S
C1487 H1474 0.961 . S
C1487 H1475 0.959 . S
C1487 C1485 1.561 . S
C1488 C1485 1.526 . S
C1488 C1489 1.396 . S
C1488 C1493 1.390 . S
C1489 C1483 1.465 . S
C1489 C1488 1.396 . S
C1489 C1490 1.399 . S
C1490 H1476 0.929 . S
C1490 C1489 1.399 . S
C1490 C1491 1.385 . S
C1491 H1477 0.931 . S
C1491 C1490 1.385 . S
C1491 C1492 1.389 . S
C1492 C1491 1.389 . S
C1492 C1493 1.387 . S
C1493 H1478 0.930 . S
C1493 C1488 1.390 . S
C1493 C1492 1.387 . S
H1494 C1506 0.930 . S
H1495 C1508 0.930 . S
H1496 C1509 0.930 . S
H1497 C1513 0.959 . S
H1498 C1513 0.959 . S
H1499 C1513 0.961 . S
H1500 C1514 0.960 . S
H1501 C1514 0.961 . S
H1502 C1514 0.959 . S
H1503 C1517 0.929 . S
H1504 C1518 0.931 . S
H1505 C1520 0.930 . S
C1506 H1494 0.930 . S
C1506 C1507 1.399 . S
C1506 C1511 1.399 . S
C1507 C1506 1.399 . S
C1507 C1508 1.376 . S
C1508 H1495 0.930 . S
C1508 C1507 1.376 . S
C1508 C1509 1.388 . S
C1509 H1496 0.930 . S
C1509 C1508 1.388 . S
C1509 C1510 1.390 . S
C1510 C1509 1.390 . S
C1510 C1511 1.394 . S
C1510 C1516 1.465 . S
C1511 C1506 1.399 . S
C1511 C1510 1.394 . S
C1511 C1512 1.516 . S
C1512 C1511 1.516 . S
C1512 C1513 1.502 . S
C1512 C1514 1.561 . S
C1512 C1515 1.526 . S
C1513 H1497 0.959 . S
C1513 H1498 0.959 . S
C1513 H1499 0.961 . S
C1513 C1512 1.502 . S
C1514 H1500 0.960 . S
C1514 H1501 0.961 . S
C1514 H1502 0.959 . S
C1514 C1512 1.561 . S
C1515 C1512 1.526 . S
C1515 C1516 1.396 . S
C1515 C1520 1.390 . S
C1516 C1510 1.465 . S
C1516 C1515 1.396 . S
C1516 C1517 1.399 . S
C1517 H1503 0.929 . S
C1517 C1516 1.399 . S
C1517 C1518 1.385 . S
C1518 H1504 0.931 . S
C1518 C1517 1.385 . S
C1518 C1519 1.389 . S
C1519 C1518 1.389 . S
C1519 C1520 1.387 . S
C1520 H1505 0.930 . S
C1520 C1515 1.390 . S
C1520 C1519 1.387 . S
H1521 C1533 0.930 . S
H1522 C1535 0.930 . S
H1523 C1536 0.930 . S
H1524 C1540 0.959 . S
H1525 C1540 0.959 . S
H1526 C1540 0.961 . S
H1527 C1541 0.960 . S
H1528 C1541 0.961 . S
H1529 C1541 0.959 . S
H1530 C1544 0.929 . S
H1531 C1545 0.931 . S
H1532 C1547 0.930 . S
C1533 H1521 0.930 . S
C1533 C1534 1.399 . S
C1533 C1538 1.399 . S
C1534 C1533 1.399 . S
C1534 C1535 1.376 . S
C1535 H1522 0.930 . S
C1535 C1534 1.376 . S
C1535 C1536 1.388 . S
C1536 H1523 0.930 . S
C1536 C1535 1.388 . S
C1536 C1537 1.390 . S
C1537 C1536 1.390 . S
C1537 C1538 1.394 . S
C1537 C1543 1.465 . S
C1538 C1533 1.399 . S
C1538 C1537 1.394 . S
C1538 C1539 1.516 . S
C1539 C1538 1.516 . S
C1539 C1540 1.502 . S
C1539 C1541 1.561 . S
C1539 C1542 1.526 . S
C1540 H1524 0.959 . S
C1540 H1525 0.959 . S
C1540 H1526 0.961 . S
C1540 C1539 1.502 . S
C1541 H1527 0.960 . S
C1541 H1528 0.961 . S
C1541 H1529 0.959 . S
C1541 C1539 1.561 . S
C1542 C1539 1.526 . S
C1542 C1543 1.396 . S
C1542 C1547 1.390 . S
C1543 C1537 1.465 . S
C1543 C1542 1.396 . S
C1543 C1544 1.399 . S
C1544 H1530 0.929 . S
C1544 C1543 1.399 . S
C1544 C1545 1.385 . S
C1545 H1531 0.931 . S
C1545 C1544 1.385 . S
C1545 C1546 1.389 . S
C1546 C1545 1.389 . S
C1546 C1547 1.387 . S
C1547 H1532 0.930 . S
C1547 C1542 1.390 . S
C1547 C1546 1.387 . S
H1548 C1560 0.930 . S
H1549 C1562 0.930 . S
H1550 C1563 0.930 . S
H1551 C1567 0.959 . S
H1552 C1567 0.959 . S
H1553 C1567 0.961 . S
H1554 C1568 0.960 . S
H1555 C1568 0.961 . S
H1556 C1568 0.959 . S
H1557 C1571 0.929 . S
H1558 C1572 0.931 . S
H1559 C1574 0.930 . S
C1560 H1548 0.930 . S
C1560 C1561 1.399 . S
C1560 C1565 1.399 . S
C1561 C1560 1.399 . S
C1561 C1562 1.376 . S
C1562 H1549 0.930 . S
C1562 C1561 1.376 . S
C1562 C1563 1.388 . S
C1563 H1550 0.930 . S
C1563 C1562 1.388 . S
C1563 C1564 1.390 . S
C1564 C1563 1.390 . S
C1564 C1565 1.394 . S
C1564 C1570 1.465 . S
C1565 C1560 1.399 . S
C1565 C1564 1.394 . S
C1565 C1566 1.516 . S
C1566 C1565 1.516 . S
C1566 C1567 1.502 . S
C1566 C1568 1.561 . S
C1566 C1569 1.526 . S
C1567 H1551 0.959 . S
C1567 H1552 0.959 . S
C1567 H1553 0.961 . S
C1567 C1566 1.502 . S
C1568 H1554 0.960 . S
C1568 H1555 0.961 . S
C1568 H1556 0.959 . S
C1568 C1566 1.561 . S
C1569 C1566 1.526 . S
C1569 C1570 1.396 . S
C1569 C1574 1.390 . S
C1570 C1564 1.465 . S
C1570 C1569 1.396 . S
C1570 C1571 1.399 . S
C1571 H1557 0.929 . S
C1571 C1570 1.399 . S
C1571 C1572 1.385 . S
C1572 H1558 0.931 . S
C1572 C1571 1.385 . S
C1572 C1573 1.389 . S
C1573 C1572 1.389 . S
C1573 C1574 1.387 . S
C1574 H1559 0.930 . S
C1574 C1569 1.390 . S
C1574 C1573 1.387 . S
H1575 C1587 0.930 . S
H1576 C1589 0.930 . S
H1577 C1590 0.930 . S
H1578 C1594 0.959 . S
H1579 C1594 0.959 . S
H1580 C1594 0.961 . S
H1581 C1595 0.960 . S
H1582 C1595 0.961 . S
H1583 C1595 0.959 . S
H1584 C1598 0.929 . S
H1585 C1599 0.931 . S
H1586 C1601 0.930 . S
C1587 H1575 0.930 . S
C1587 C1588 1.399 . S
C1587 C1592 1.399 . S
C1588 C1587 1.399 . S
C1588 C1589 1.376 . S
C1589 H1576 0.930 . S
C1589 C1588 1.376 . S
C1589 C1590 1.388 . S
C1590 H1577 0.930 . S
C1590 C1589 1.388 . S
C1590 C1591 1.390 . S
C1591 C1590 1.390 . S
C1591 C1592 1.394 . S
C1591 C1597 1.465 . S
C1592 C1587 1.399 . S
C1592 C1591 1.394 . S
C1592 C1593 1.516 . S
C1593 C1592 1.516 . S
C1593 C1594 1.502 . S
C1593 C1595 1.561 . S
C1593 C1596 1.526 . S
C1594 H1578 0.959 . S
C1594 H1579 0.959 . S
C1594 H1580 0.961 . S
C1594 C1593 1.502 . S
C1595 H1581 0.960 . S
C1595 H1582 0.961 . S
C1595 H1583 0.959 . S
C1595 C1593 1.561 . S
C1596 C1593 1.526 . S
C1596 C1597 1.396 . S
C1596 C1601 1.390 . S
C1597 C1591 1.465 . S
C1597 C1596 1.396 . S
C1597 C1598 1.399 . S
C1598 H1584 0.929 . S
C1598 C1597 1.399 . S
C1598 C1599 1.385 . S
C1599 H1585 0.931 . S
C1599 C1598 1.385 . S
C1599 C1600 1.389 . S
C1600 C1599 1.389 . S
C1600 C1601 1.387 . S
C1601 H1586 0.930 . S
C1601 C1596 1.390 . S
C1601 C1600 1.387 . S
H1602 C1614 0.930 . S
H1603 C1616 0.930 . S
H1604 C1617 0.930 . S
H1605 C1621 0.959 . S
H1606 C1621 0.959 . S
H1607 C1621 0.961 . S
H1608 C1622 0.960 . S
H1609 C1622 0.961 . S
H1610 C1622 0.959 . S
H1611 C1625 0.929 . S
H1612 C1626 0.931 . S
H1613 C1628 0.930 . S
C1614 H1602 0.930 . S
C1614 C1615 1.399 . S
C1614 C1619 1.399 . S
C1615 C1614 1.399 . S
C1615 C1616 1.376 . S
C1616 H1603 0.930 . S
C1616 C1615 1.376 . S
C1616 C1617 1.388 . S
C1617 H1604 0.930 . S
C1617 C1616 1.388 . S
C1617 C1618 1.390 . S
C1618 C1617 1.390 . S
C1618 C1619 1.394 . S
C1618 C1624 1.465 . S
C1619 C1614 1.399 . S
C1619 C1618 1.394 . S
C1619 C1620 1.516 . S
C1620 C1619 1.516 . S
C1620 C1621 1.502 . S
C1620 C1622 1.561 . S
C1620 C1623 1.526 . S
C1621 H1605 0.959 . S
C1621 H1606 0.959 . S
C1621 H1607 0.961 . S
C1621 C1620 1.502 . S
C1622 H1608 0.960 . S
C1622 H1609 0.961 . S
C1622 H1610 0.959 . S
C1622 C1620 1.561 . S
C1623 C1620 1.526 . S
C1623 C1624 1.396 . S
C1623 C1628 1.390 . S
C1624 C1618 1.465 . S
C1624 C1623 1.396 . S
C1624 C1625 1.399 . S
C1625 H1611 0.929 . S
C1625 C1624 1.399 . S
C1625 C1626 1.385 . S
C1626 H1612 0.931 . S
C1626 C1625 1.385 . S
C1626 C1627 1.389 . S
C1627 C1626 1.389 . S
C1627 C1628 1.387 . S
C1628 H1613 0.930 . S
C1628 C1623 1.390 . S
C1628 C1627 1.387 . S
H1629 C1641 0.930 . S
H1630 C1643 0.930 . S
H1631 C1644 0.930 . S
H1632 C1648 0.959 . S
H1633 C1648 0.959 . S
H1634 C1648 0.961 . S
H1635 C1649 0.960 . S
H1636 C1649 0.961 . S
H1637 C1649 0.959 . S
H1638 C1652 0.929 . S
H1639 C1653 0.931 . S
H1640 C1655 0.930 . S
C1641 H1629 0.930 . S
C1641 C1642 1.399 . S
C1641 C1646 1.399 . S
C1642 C1641 1.399 . S
C1642 C1643 1.376 . S
C1643 H1630 0.930 . S
C1643 C1642 1.376 . S
C1643 C1644 1.388 . S
C1644 H1631 0.930 . S
C1644 C1643 1.388 . S
C1644 C1645 1.390 . S
C1645 C1644 1.390 . S
C1645 C1646 1.394 . S
C1645 C1651 1.465 . S
C1646 C1641 1.399 . S
C1646 C1645 1.394 . S
C1646 C1647 1.516 . S
C1647 C1646 1.516 . S
C1647 C1648 1.502 . S
C1647 C1649 1.561 . S
C1647 C1650 1.526 . S
C1648 H1632 0.959 . S
C1648 H1633 0.959 . S
C1648 H1634 0.961 . S
C1648 C1647 1.502 . S
C1649 H1635 0.960 . S
C1649 H1636 0.961 . S
C1649 H1637 0.959 . S
C1649 C1647 1.561 . S
C1650 C1647 1.526 . S
C1650 C1651 1.396 . S
C1650 C1655 1.390 . S
C1651 C1645 1.465 . S
C1651 C1650 1.396 . S
C1651 C1652 1.399 . S
C1652 H1638 0.929 . S
C1652 C1651 1.399 . S
C1652 C1653 1.385 . S
C1653 H1639 0.931 . S
C1653 C1652 1.385 . S
C1653 C1654 1.389 . S
C1654 C1653 1.389 . S
C1654 C1655 1.387 . S
C1655 H1640 0.930 . S
C1655 C1650 1.390 . S
C1655 C1654 1.387 . S
H1656 C1668 0.930 . S
H1657 C1670 0.930 . S
H1658 C1671 0.930 . S
H1659 C1675 0.959 . S
H1660 C1675 0.959 . S
H1661 C1675 0.961 . S
H1662 C1676 0.960 . S
H1663 C1676 0.961 . S
H1664 C1676 0.959 . S
H1665 C1679 0.929 . S
H1666 C1680 0.931 . S
H1667 C1682 0.930 . S
C1668 H1656 0.930 . S
C1668 C1669 1.399 . S
C1668 C1673 1.399 . S
C1669 C1668 1.399 . S
C1669 C1670 1.376 . S
C1670 H1657 0.930 . S
C1670 C1669 1.376 . S
C1670 C1671 1.388 . S
C1671 H1658 0.930 . S
C1671 C1670 1.388 . S
C1671 C1672 1.390 . S
C1672 C1671 1.390 . S
C1672 C1673 1.394 . S
C1672 C1678 1.465 . S
C1673 C1668 1.399 . S
C1673 C1672 1.394 . S
C1673 C1674 1.516 . S
C1674 C1673 1.516 . S
C1674 C1675 1.502 . S
C1674 C1676 1.561 . S
C1674 C1677 1.526 . S
C1675 H1659 0.959 . S
C1675 H1660 0.959 . S
C1675 H1661 0.961 . S
C1675 C1674 1.502 . S
C1676 H1662 0.960 . S
C1676 H1663 0.961 . S
C1676 H1664 0.959 . S
C1676 C1674 1.561 . S
C1677 C1674 1.526 . S
C1677 C1678 1.396 . S
C1677 C1682 1.390 . S
C1678 C1672 1.465 . S
C1678 C1677 1.396 . S
C1678 C1679 1.399 . S
C1679 H1665 0.929 . S
C1679 C1678 1.399 . S
C1679 C1680 1.385 . S
C1680 H1666 0.931 . S
C1680 C1679 1.385 . S
C1680 C1681 1.389 . S
C1681 C1680 1.389 . S
C1681 C1682 1.387 . S
C1682 H1667 0.930 . S
C1682 C1677 1.390 . S
C1682 C1681 1.387 . S
H1683 C1695 0.930 . S
H1684 C1697 0.930 . S
H1685 C1698 0.930 . S
H1686 C1702 0.959 . S
H1687 C1702 0.959 . S
H1688 C1702 0.961 . S
H1689 C1703 0.960 . S
H1690 C1703 0.961 . S
H1691 C1703 0.959 . S
H1692 C1706 0.929 . S
H1693 C1707 0.931 . S
H1694 C1709 0.930 . S
C1695 H1683 0.930 . S
C1695 C1696 1.399 . S
C1695 C1700 1.399 . S
C1696 C1695 1.399 . S
C1696 C1697 1.376 . S
C1697 H1684 0.930 . S
C1697 C1696 1.376 . S
C1697 C1698 1.388 . S
C1698 H1685 0.930 . S
C1698 C1697 1.388 . S
C1698 C1699 1.390 . S
C1699 C1698 1.390 . S
C1699 C1700 1.394 . S
C1699 C1705 1.465 . S
C1700 C1695 1.399 . S
C1700 C1699 1.394 . S
C1700 C1701 1.516 . S
C1701 C1700 1.516 . S
C1701 C1702 1.502 . S
C1701 C1703 1.561 . S
C1701 C1704 1.526 . S
C1702 H1686 0.959 . S
C1702 H1687 0.959 . S
C1702 H1688 0.961 . S
C1702 C1701 1.502 . S
C1703 H1689 0.960 . S
C1703 H1690 0.961 . S
C1703 H1691 0.959 . S
C1703 C1701 1.561 . S
C1704 C1701 1.526 . S
C1704 C1705 1.396 . S
C1704 C1709 1.390 . S
C1705 C1699 1.465 . S
C1705 C1704 1.396 . S
C1705 C1706 1.399 . S
C1706 H1692 0.929 . S
C1706 C1705 1.399 . S
C1706 C1707 1.385 . S
C1707 H1693 0.931 . S
C1707 C1706 1.385 . S
C1707 C1708 1.389 . S
C1708 C1707 1.389 . S
C1708 C1709 1.387 . S
C1709 H1694 0.930 . S
C1709 C1704 1.390 . S
C1709 C1708 1.387 . S
H1710 C1722 0.930 . S
H1711 C1724 0.930 . S
H1712 C1725 0.930 . S
H1713 C1729 0.959 . S
H1714 C1729 0.959 . S
H1715 C1729 0.961 . S
H1716 C1730 0.960 . S
H1717 C1730 0.961 . S
H1718 C1730 0.959 . S
H1719 C1733 0.929 . S
H1720 C1734 0.931 . S
H1721 C1736 0.930 . S
C1722 H1710 0.930 . S
C1722 C1723 1.399 . S
C1722 C1727 1.399 . S
C1723 C1722 1.399 . S
C1723 C1724 1.376 . S
C1724 H1711 0.930 . S
C1724 C1723 1.376 . S
C1724 C1725 1.388 . S
C1725 H1712 0.930 . S
C1725 C1724 1.388 . S
C1725 C1726 1.390 . S
C1726 C1725 1.390 . S
C1726 C1727 1.394 . S
C1726 C1732 1.465 . S
C1727 C1722 1.399 . S
C1727 C1726 1.394 . S
C1727 C1728 1.516 . S
C1728 C1727 1.516 . S
C1728 C1729 1.502 . S
C1728 C1730 1.561 . S
C1728 C1731 1.526 . S
C1729 H1713 0.959 . S
C1729 H1714 0.959 . S
C1729 H1715 0.961 . S
C1729 C1728 1.502 . S
C1730 H1716 0.960 . S
C1730 H1717 0.961 . S
C1730 H1718 0.959 . S
C1730 C1728 1.561 . S
C1731 C1728 1.526 . S
C1731 C1732 1.396 . S
C1731 C1736 1.390 . S
C1732 C1726 1.465 . S
C1732 C1731 1.396 . S
C1732 C1733 1.399 . S
C1733 H1719 0.929 . S
C1733 C1732 1.399 . S
C1733 C1734 1.385 . S
C1734 H1720 0.931 . S
C1734 C1733 1.385 . S
C1734 C1735 1.389 . S
C1735 C1734 1.389 . S
C1735 C1736 1.387 . S
C1736 H1721 0.930 . S
C1736 C1731 1.390 . S
C1736 C1735 1.387 . S
H1737 C1749 0.930 . S
H1738 C1751 0.930 . S
H1739 C1752 0.930 . S
H1740 C1756 0.959 . S
H1741 C1756 0.959 . S
H1742 C1756 0.961 . S
H1743 C1757 0.960 . S
H1744 C1757 0.961 . S
H1745 C1757 0.959 . S
H1746 C1760 0.929 . S
H1747 C1761 0.931 . S
H1748 C1763 0.930 . S
C1749 H1737 0.930 . S
C1749 C1750 1.399 . S
C1749 C1754 1.399 . S
C1750 C1749 1.399 . S
C1750 C1751 1.376 . S
C1751 H1738 0.930 . S
C1751 C1750 1.376 . S
C1751 C1752 1.388 . S
C1752 H1739 0.930 . S
C1752 C1751 1.388 . S
C1752 C1753 1.390 . S
C1753 C1752 1.390 . S
C1753 C1754 1.394 . S
C1753 C1759 1.465 . S
C1754 C1749 1.399 . S
C1754 C1753 1.394 . S
C1754 C1755 1.516 . S
C1755 C1754 1.516 . S
C1755 C1756 1.502 . S
C1755 C1757 1.561 . S
C1755 C1758 1.526 . S
C1756 H1740 0.959 . S
C1756 H1741 0.959 . S
C1756 H1742 0.961 . S
C1756 C1755 1.502 . S
C1757 H1743 0.960 . S
C1757 H1744 0.961 . S
C1757 H1745 0.959 . S
C1757 C1755 1.561 . S
C1758 C1755 1.526 . S
C1758 C1759 1.396 . S
C1758 C1763 1.390 . S
C1759 C1753 1.465 . S
C1759 C1758 1.396 . S
C1759 C1760 1.399 . S
C1760 H1746 0.929 . S
C1760 C1759 1.399 . S
C1760 C1761 1.385 . S
C1761 H1747 0.931 . S
C1761 C1760 1.385 . S
C1761 C1762 1.389 . S
C1762 C1761 1.389 . S
C1762 C1763 1.387 . S
C1763 H1748 0.930 . S
C1763 C1758 1.390 . S
C1763 C1762 1.387 . S
H1764 C1776 0.930 . S
H1765 C1778 0.930 . S
H1766 C1779 0.930 . S
H1767 C1783 0.959 . S
H1768 C1783 0.959 1_554 S
H1769 C1783 0.961 . S
H1770 C1784 0.960 . S
H1771 C1784 0.961 . S
H1772 C1784 0.959 . S
H1773 C1787 0.929 . S
H1774 C1788 0.931 . S
H1775 C1790 0.930 1_554 S
C1776 H1764 0.930 . S
C1776 C1777 1.399 . S
C1776 C1781 1.399 . S
C1777 C1776 1.399 . S
C1777 C1778 1.376 . S
C1778 H1765 0.930 . S
C1778 C1777 1.376 . S
C1778 C1779 1.388 . S
C1779 H1766 0.930 . S
C1779 C1778 1.388 . S
C1779 C1780 1.390 . S
C1780 C1779 1.390 . S
C1780 C1781 1.394 . S
C1780 C1786 1.465 . S
C1781 C1776 1.399 . S
C1781 C1780 1.394 . S
C1781 C1782 1.516 . S
C1782 C1781 1.516 . S
C1782 C1783 1.502 . S
C1782 C1784 1.561 . S
C1782 C1785 1.526 . S
C1783 H1767 0.959 . S
C1783 H1768 0.959 1_556 S
C1783 H1769 0.961 . S
C1783 C1782 1.502 . S
C1784 H1770 0.960 . S
C1784 H1771 0.961 . S
C1784 H1772 0.959 . S
C1784 C1782 1.561 . S
C1785 C1782 1.526 . S
C1785 C1786 1.396 . S
C1785 C1790 1.390 . S
C1786 C1780 1.465 . S
C1786 C1785 1.396 . S
C1786 C1787 1.399 . S
C1787 H1773 0.929 . S
C1787 C1786 1.399 . S
C1787 C1788 1.385 . S
C1788 H1774 0.931 . S
C1788 C1787 1.385 . S
C1788 C1789 1.389 . S
C1789 C1788 1.389 . S
C1789 C1790 1.387 . S
C1790 H1775 0.930 1_556 S
C1790 C1785 1.390 . S
C1790 C1789 1.387 . S
H1791 C1803 0.930 . S
H1792 C1805 0.930 . S
H1793 C1806 0.930 . S
H1794 C1810 0.959 . S
H1795 C1810 0.959 . S
H1796 C1810 0.961 . S
H1797 C1811 0.960 1_554 S
H1798 C1811 0.961 . S
H1799 C1811 0.959 . S
H1800 C1814 0.929 . S
H1801 C1815 0.931 . S
H1802 C1817 0.930 . S
C1803 H1791 0.930 . S
C1803 C1804 1.399 . S
C1803 C1808 1.399 . S
C1804 C1803 1.399 . S
C1804 C1805 1.376 . S
C1805 H1792 0.930 . S
C1805 C1804 1.376 . S
C1805 C1806 1.388 . S
C1806 H1793 0.930 . S
C1806 C1805 1.388 . S
C1806 C1807 1.390 . S
C1807 C1806 1.390 . S
C1807 C1808 1.394 . S
C1807 C1813 1.465 . S
C1808 C1803 1.399 . S
C1808 C1807 1.394 . S
C1808 C1809 1.516 . S
C1809 C1808 1.516 . S
C1809 C1810 1.502 . S
C1809 C1811 1.561 . S
C1809 C1812 1.526 . S
C1810 H1794 0.959 . S
C1810 H1795 0.959 . S
C1810 H1796 0.961 . S
C1810 C1809 1.502 . S
C1811 H1797 0.960 1_556 S
C1811 H1798 0.961 . S
C1811 H1799 0.959 . S
C1811 C1809 1.561 . S
C1812 C1809 1.526 . S
C1812 C1813 1.396 . S
C1812 C1817 1.390 . S
C1813 C1807 1.465 . S
C1813 C1812 1.396 . S
C1813 C1814 1.399 . S
C1814 H1800 0.929 . S
C1814 C1813 1.399 . S
C1814 C1815 1.385 . S
C1815 H1801 0.931 . S
C1815 C1814 1.385 . S
C1815 C1816 1.389 . S
C1816 C1815 1.389 . S
C1816 C1817 1.387 . S
C1817 H1802 0.930 . S
C1817 C1812 1.390 . S
C1817 C1816 1.387 . S
H1818 C1830 0.930 . S
H1819 C1832 0.930 . S
H1820 C1833 0.930 . S
H1821 C1837 0.959 . S
H1822 C1837 0.959 . S
H1823 C1837 0.961 . S
H1824 C1838 0.960 . S
H1825 C1838 0.961 . S
H1826 C1838 0.959 . S
H1827 C1841 0.929 . S
H1828 C1842 0.931 1_554 S
H1829 C1844 0.930 . S
C1830 H1818 0.930 . S
C1830 C1831 1.399 . S
C1830 C1835 1.399 . S
C1831 C1830 1.399 . S
C1831 C1832 1.376 . S
C1832 H1819 0.930 . S
C1832 C1831 1.376 . S
C1832 C1833 1.388 . S
C1833 H1820 0.930 . S
C1833 C1832 1.388 . S
C1833 C1834 1.390 . S
C1834 C1833 1.390 . S
C1834 C1835 1.394 . S
C1834 C1840 1.465 . S
C1835 C1830 1.399 . S
C1835 C1834 1.394 . S
C1835 C1836 1.516 . S
C1836 C1835 1.516 . S
C1836 C1837 1.502 . S
C1836 C1838 1.561 . S
C1836 C1839 1.526 . S
C1837 H1821 0.959 . S
C1837 H1822 0.959 . S
C1837 H1823 0.961 . S
C1837 C1836 1.502 . S
C1838 H1824 0.960 . S
C1838 H1825 0.961 . S
C1838 H1826 0.959 . S
C1838 C1836 1.561 . S
C1839 C1836 1.526 . S
C1839 C1840 1.396 . S
C1839 C1844 1.390 . S
C1840 C1834 1.465 . S
C1840 C1839 1.396 . S
C1840 C1841 1.399 . S
C1841 H1827 0.929 . S
C1841 C1840 1.399 . S
C1841 C1842 1.385 . S
C1842 H1828 0.931 1_556 S
C1842 C1841 1.385 . S
C1842 C1843 1.389 . S
C1843 C1842 1.389 . S
C1843 C1844 1.387 . S
C1844 H1829 0.930 . S
C1844 C1839 1.390 . S
C1844 C1843 1.387 . S
H1845 C1857 0.930 . S
H1846 C1859 0.930 . S
H1847 C1860 0.930 . S
H1848 C1864 0.959 . S
H1849 C1864 0.959 . S
H1850 C1864 0.961 . S
H1851 C1865 0.960 . S
H1852 C1865 0.961 . S
H1853 C1865 0.959 . S
H1854 C1868 0.929 . S
H1855 C1869 0.931 . S
H1856 C1871 0.930 . S
C1857 H1845 0.930 . S
C1857 C1858 1.399 . S
C1857 C1862 1.399 . S
C1858 C1857 1.399 . S
C1858 C1859 1.376 . S
C1859 H1846 0.930 . S
C1859 C1858 1.376 . S
C1859 C1860 1.388 . S
C1860 H1847 0.930 . S
C1860 C1859 1.388 . S
C1860 C1861 1.390 . S
C1861 C1860 1.390 . S
C1861 C1862 1.394 . S
C1861 C1867 1.465 . S
C1862 C1857 1.399 . S
C1862 C1861 1.394 . S
C1862 C1863 1.516 . S
C1863 C1862 1.516 . S
C1863 C1864 1.502 . S
C1863 C1865 1.561 . S
C1863 C1866 1.526 . S
C1864 H1848 0.959 . S
C1864 H1849 0.959 . S
C1864 H1850 0.961 . S
C1864 C1863 1.502 . S
C1865 H1851 0.960 . S
C1865 H1852 0.961 . S
C1865 H1853 0.959 . S
C1865 C1863 1.561 . S
C1866 C1863 1.526 . S
C1866 C1867 1.396 . S
C1866 C1871 1.390 1_556 S
C1867 C1861 1.465 . S
C1867 C1866 1.396 . S
C1867 C1868 1.399 1_556 S
C1868 H1854 0.929 . S
C1868 C1867 1.399 1_554 S
C1868 C1869 1.385 . S
C1869 H1855 0.931 . S
C1869 C1868 1.385 . S
C1869 C1870 1.389 . S
C1870 C1869 1.389 . S
C1870 C1871 1.387 . S
C1871 H1856 0.930 . S
C1871 C1866 1.390 1_554 S
C1871 C1870 1.387 . S
H1872 C1884 0.930 . S
H1873 C1886 0.930 . S
H1874 C1887 0.930 1_554 S
H1875 C1891 0.959 . S
H1876 C1891 0.959 . S
H1877 C1891 0.961 . S
H1878 C1892 0.960 . S
H1879 C1892 0.961 . S
H1880 C1892 0.959 . S
H1881 C1895 0.929 . S
H1882 C1896 0.931 . S
H1883 C1898 0.922 1_556 S
C1884 H1872 0.930 . S
C1884 C1885 1.399 . S
C1884 C1889 1.399 . S
C1885 C1884 1.399 . S
C1885 C1886 1.376 . S
C1886 H1873 0.930 . S
C1886 C1885 1.376 . S
C1886 C1887 1.388 . S
C1887 H1874 0.930 1_556 S
C1887 C1886 1.388 . S
C1887 C1888 1.390 . S
C1888 C1887 1.390 . S
C1888 C1889 1.394 . S
C1888 C1894 1.465 . S
C1889 C1884 1.399 . S
C1889 C1888 1.394 . S
C1889 C1890 1.516 . S
C1890 C1889 1.516 . S
C1890 C1891 1.502 . S
C1890 C1892 1.561 . S
C1890 C1893 1.526 . S
C1891 H1875 0.959 . S
C1891 H1876 0.959 . S
C1891 H1877 0.961 . S
C1891 C1890 1.502 . S
C1892 H1878 0.960 . S
C1892 H1879 0.961 . S
C1892 H1880 0.959 . S
C1892 C1890 1.561 . S
C1893 C1890 1.526 . S
C1893 C1894 1.396 . S
C1893 C1898 1.381 1_556 S
C1894 C1888 1.465 . S
C1894 C1893 1.396 . S
C1894 C1895 1.399 1_556 S
C1895 H1881 0.929 . S
C1895 C1894 1.399 1_554 S
C1895 C1896 1.385 . S
C1896 H1882 0.931 . S
C1896 C1895 1.385 . S
C1896 C1897 1.389 . S
C1897 C1896 1.389 . S
C1897 C1898 1.403 . S
C1898 H1883 0.922 1_554 S
C1898 C1893 1.381 1_554 S
C1898 C1897 1.403 . S
H1899 C1911 0.930 . S
H1900 C1913 0.930 . S
H1901 C1914 0.930 . S
H1902 C1918 0.959 . S
H1903 C1918 0.959 . S
H1904 C1918 0.961 . S
H1905 C1919 0.960 1_556 S
H1906 C1919 0.961 . S
H1907 C1919 0.959 . S
H1908 C1922 0.929 . S
H1909 C1923 0.931 . S
H1910 C1925 0.930 . S
C1911 H1899 0.930 . S
C1911 C1912 1.399 . S
C1911 C1916 1.399 . S
C1912 C1911 1.399 . S
C1912 C1913 1.376 . S
C1913 H1900 0.930 . S
C1913 C1912 1.376 . S
C1913 C1914 1.388 . S
C1914 H1901 0.930 . S
C1914 C1913 1.388 . S
C1914 C1915 1.390 . S
C1915 C1914 1.390 . S
C1915 C1916 1.394 . S
C1915 C1921 1.465 . S
C1916 C1911 1.399 . S
C1916 C1915 1.394 . S
C1916 C1917 1.516 . S
C1917 C1916 1.516 . S
C1917 C1918 1.502 . S
C1917 C1919 1.561 1_556 S
C1917 C1920 1.526 . S
C1918 H1902 0.959 . S
C1918 H1903 0.959 . S
C1918 H1904 0.961 . S
C1918 C1917 1.502 . S
C1919 H1905 0.960 1_554 S
C1919 H1906 0.961 . S
C1919 H1907 0.959 . S
C1919 C1917 1.561 1_554 S
C1920 C1917 1.526 . S
C1920 C1921 1.396 . S
C1920 C1925 1.390 1_556 S
C1921 C1915 1.465 . S
C1921 C1920 1.396 . S
C1921 C1922 1.399 1_556 S
C1922 H1908 0.929 . S
C1922 C1921 1.399 1_554 S
C1922 C1923 1.385 . S
C1923 H1909 0.931 . S
C1923 C1922 1.385 . S
C1923 C1924 1.389 . S
C1924 C1923 1.389 . S
C1924 C1925 1.387 . S
C1925 H1910 0.930 . S
C1925 C1920 1.390 1_554 S
C1925 C1924 1.387 . S
H1926 C1938 0.930 . S
H1927 C1940 0.930 . S
H1928 C1941 0.930 . S
H1929 C1945 0.959 . S
H1930 C1945 0.959 . S
H1931 C1945 0.961 . S
H1932 C1946 0.960 . S
H1933 C1946 0.961 . S
H1934 C1946 0.959 1_556 S
H1935 C1949 0.929 . S
H1936 C1950 0.931 . S
H1937 C1952 0.930 . S
C1938 H1926 0.930 . S
C1938 C1939 1.399 . S
C1938 C1943 1.399 . S
C1939 C1938 1.399 . S
C1939 C1940 1.376 . S
C1940 H1927 0.930 . S
C1940 C1939 1.376 . S
C1940 C1941 1.388 . S
C1941 H1928 0.930 . S
C1941 C1940 1.388 . S
C1941 C1942 1.390 . S
C1942 C1941 1.390 . S
C1942 C1943 1.394 . S
C1942 C1948 1.465 . S
C1943 C1938 1.399 . S
C1943 C1942 1.394 . S
C1943 C1944 1.516 . S
C1944 C1943 1.516 . S
C1944 C1945 1.502 1_556 S
C1944 C1946 1.561 1_556 S
C1944 C1947 1.526 . S
C1945 H1929 0.959 . S
C1945 H1930 0.959 . S
C1945 H1931 0.961 . S
C1945 C1944 1.502 1_554 S
C1946 H1932 0.960 . S
C1946 H1933 0.961 . S
C1946 H1934 0.959 1_554 S
C1946 C1944 1.561 1_554 S
C1947 C1944 1.526 . S
C1947 C1948 1.396 . S
C1947 C1952 1.390 1_556 S
C1948 C1942 1.465 . S
C1948 C1947 1.396 . S
C1948 C1949 1.399 . S
C1949 H1935 0.929 . S
C1949 C1948 1.399 . S
C1949 C1950 1.385 . S
C1950 H1936 0.931 . S
C1950 C1949 1.385 . S
C1950 C1951 1.389 . S
C1951 C1950 1.389 . S
C1951 C1952 1.387 1_556 S
C1952 H1937 0.930 . S
C1952 C1947 1.390 1_554 S
C1952 C1951 1.387 1_554 S
H1953 C1965 0.930 . S
H1954 C1967 0.930 . S
H1955 C1968 0.930 . S
H1956 C1972 0.959 . S
H1957 C1972 0.959 . S
H1958 C1972 0.961 . S
H1959 C1973 0.960 1_554 S
H1960 C1973 0.961 1_554 S
H1961 C1973 0.959 . S
H1962 C1976 0.929 . S
H1963 C1977 0.931 . S
H1964 C1979 0.930 . S
C1965 H1953 0.930 . S
C1965 C1966 1.399 1_554 S
C1965 C1970 1.399 1_554 S
C1966 C1965 1.399 1_556 S
C1966 C1967 1.376 . S
C1967 H1954 0.930 . S
C1967 C1966 1.376 . S
C1967 C1968 1.388 . S
C1968 H1955 0.930 . S
C1968 C1967 1.388 . S
C1968 C1969 1.390 . S
C1969 C1968 1.390 . S
C1969 C1970 1.394 . S
C1969 C1975 1.465 . S
C1970 C1965 1.399 1_556 S
C1970 C1969 1.394 . S
C1970 C1971 1.516 . S
C1971 C1970 1.516 . S
C1971 C1972 1.502 1_556 S
C1971 C1973 1.561 . S
C1971 C1974 1.526 . S
C1972 H1956 0.959 . S
C1972 H1957 0.959 . S
C1972 H1958 0.961 . S
C1972 C1971 1.502 1_554 S
C1973 H1959 0.960 1_556 S
C1973 H1960 0.961 1_556 S
C1973 H1961 0.959 . S
C1973 C1971 1.561 . S
C1974 C1971 1.526 . S
C1974 C1975 1.396 . S
C1974 C1979 1.390 . S
C1975 C1969 1.465 . S
C1975 C1974 1.396 . S
C1975 C1976 1.399 . S
C1976 H1962 0.929 . S
C1976 C1975 1.399 . S
C1976 C1977 1.385 . S
C1977 H1963 0.931 . S
C1977 C1976 1.385 . S
C1977 C1978 1.389 . S
C1978 C1977 1.389 . S
C1978 C1979 1.387 . S
C1979 H1964 0.930 . S
C1979 C1974 1.390 . S
C1979 C1978 1.387 . S
H1980 C1992 0.930 . S
H1981 C1994 0.930 . S
H1982 C1995 0.930 . S
H1983 C1999 0.959 . S
H1984 C1999 0.959 . S
H1985 C1999 0.961 . S
H1986 C2000 0.960 . S
H1987 C2000 0.961 . S
H1988 C2000 0.959 . S
H1989 C2003 0.929 . S
H1990 C2004 0.931 . S
H1991 C2006 0.930 1_554 S
C1992 H1980 0.930 . S
C1992 C1993 1.399 . S
C1992 C1997 1.399 . S
C1993 C1992 1.399 . S
C1993 C1994 1.376 . S
C1994 H1981 0.930 . S
C1994 C1993 1.376 . S
C1994 C1995 1.388 . S
C1995 H1982 0.930 . S
C1995 C1994 1.388 . S
C1995 C1996 1.390 . S
C1996 C1995 1.390 . S
C1996 C1997 1.394 . S
C1996 C2002 1.465 . S
C1997 C1992 1.399 . S
C1997 C1996 1.394 . S
C1997 C1998 1.516 . S
C1998 C1997 1.516 . S
C1998 C1999 1.502 . S
C1998 C2000 1.561 1_556 S
C1998 C2001 1.526 . S
C1999 H1983 0.959 . S
C1999 H1984 0.959 . S
C1999 H1985 0.961 . S
C1999 C1998 1.502 . S
C2000 H1986 0.960 . S
C2000 H1987 0.961 . S
C2000 H1988 0.959 . S
C2000 C1998 1.561 1_554 S
C2001 C1998 1.526 . S
C2001 C2002 1.396 . S
C2001 C2006 1.390 . S
C2002 C1996 1.465 . S
C2002 C2001 1.396 . S
C2002 C2003 1.399 . S
C2003 H1989 0.929 . S
C2003 C2002 1.399 . S
C2003 C2004 1.385 . S
C2004 H1990 0.931 . S
C2004 C2003 1.385 . S
C2004 C2005 1.389 . S
C2005 C2004 1.389 . S
C2005 C2006 1.387 . S
C2006 H1991 0.930 1_556 S
C2006 C2001 1.390 . S
C2006 C2005 1.387 . S
H2007 C2019 0.930 . S
H2008 C2021 0.930 . S
H2009 C2022 0.930 . S
H2010 C2026 0.959 . S
H2011 C2026 0.959 . S
H2012 C2026 0.961 . S
H2013 C2027 0.960 . S
H2014 C2027 0.961 . S
H2015 C2027 0.959 . S
H2016 C2030 0.929 . S
H2017 C2031 0.931 . S
H2018 C2033 0.930 . S
C2019 H2007 0.930 . S
C2019 C2020 1.399 . S
C2019 C2024 1.399 . S
C2020 C2019 1.399 . S
C2020 C2021 1.376 . S
C2021 H2008 0.930 . S
C2021 C2020 1.376 . S
C2021 C2022 1.388 . S
C2022 H2009 0.930 . S
C2022 C2021 1.388 . S
C2022 C2023 1.390 . S
C2023 C2022 1.390 . S
C2023 C2024 1.394 . S
C2023 C2029 1.465 . S
C2024 C2019 1.399 . S
C2024 C2023 1.394 . S
C2024 C2025 1.516 . S
C2025 C2024 1.516 . S
C2025 C2026 1.502 . S
C2025 C2027 1.561 . S
C2025 C2028 1.526 . S
C2026 H2010 0.959 . S
C2026 H2011 0.959 . S
C2026 H2012 0.961 . S
C2026 C2025 1.502 . S
C2027 H2013 0.960 . S
C2027 H2014 0.961 . S
C2027 H2015 0.959 . S
C2027 C2025 1.561 . S
C2028 C2025 1.526 . S
C2028 C2029 1.396 . S
C2028 C2033 1.390 . S
C2029 C2023 1.465 . S
C2029 C2028 1.396 . S
C2029 C2030 1.399 . S
C2030 H2016 0.929 . S
C2030 C2029 1.399 . S
C2030 C2031 1.385 . S
C2031 H2017 0.931 . S
C2031 C2030 1.385 . S
C2031 C2032 1.389 . S
C2032 C2031 1.389 . S
C2032 C2033 1.387 . S
C2033 H2018 0.930 . S
C2033 C2028 1.390 . S
C2033 C2032 1.387 . S
H2034 C2046 0.930 . S
H2035 C2048 0.930 . S
H2036 C2049 0.930 . S
H2037 C2053 0.959 . S
H2038 C2053 0.959 . S
H2039 C2053 0.961 . S
H2040 C2054 0.960 . S
H2041 C2054 0.961 . S
H2042 C2054 0.959 . S
H2043 C2057 0.929 . S
H2044 C2058 0.931 . S
H2045 C2060 0.930 . S
C2046 H2034 0.930 . S
C2046 C2047 1.399 . S
C2046 C2051 1.399 . S
C2047 C2046 1.399 . S
C2047 C2048 1.376 . S
C2048 H2035 0.930 . S
C2048 C2047 1.376 . S
C2048 C2049 1.388 . S
C2049 H2036 0.930 . S
C2049 C2048 1.388 . S
C2049 C2050 1.390 . S
C2050 C2049 1.390 . S
C2050 C2051 1.394 . S
C2050 C2056 1.465 . S
C2051 C2046 1.399 . S
C2051 C2050 1.394 . S
C2051 C2052 1.516 . S
C2052 C2051 1.516 . S
C2052 C2053 1.502 . S
C2052 C2054 1.561 . S
C2052 C2055 1.526 . S
C2053 H2037 0.959 . S
C2053 H2038 0.959 . S
C2053 H2039 0.961 . S
C2053 C2052 1.502 . S
C2054 H2040 0.960 . S
C2054 H2041 0.961 . S
C2054 H2042 0.959 . S
C2054 C2052 1.561 . S
C2055 C2052 1.526 . S
C2055 C2056 1.396 . S
C2055 C2060 1.390 . S
C2056 C2050 1.465 . S
C2056 C2055 1.396 . S
C2056 C2057 1.399 . S
C2057 H2043 0.929 . S
C2057 C2056 1.399 . S
C2057 C2058 1.385 . S
C2058 H2044 0.931 . S
C2058 C2057 1.385 . S
C2058 C2059 1.389 . S
C2059 C2058 1.389 . S
C2059 C2060 1.387 . S
C2060 H2045 0.930 . S
C2060 C2055 1.390 . S
C2060 C2059 1.387 . S
H2061 C2073 0.930 . S
H2062 C2075 0.930 . S
H2063 C2076 0.930 . S
H2064 C2080 0.959 . S
H2065 C2080 0.959 . S
H2066 C2080 0.961 . S
H2067 C2081 0.960 . S
H2068 C2081 0.961 . S
H2069 C2081 0.959 . S
H2070 C2084 0.929 . S
H2071 C2085 0.931 . S
H2072 C2087 0.930 . S
C2073 H2061 0.930 . S
C2073 C2074 1.399 . S
C2073 C2078 1.399 . S
C2074 C2073 1.399 . S
C2074 C2075 1.376 . S
C2075 H2062 0.930 . S
C2075 C2074 1.376 . S
C2075 C2076 1.388 . S
C2076 H2063 0.930 . S
C2076 C2075 1.388 . S
C2076 C2077 1.390 . S
C2077 C2076 1.390 . S
C2077 C2078 1.394 . S
C2077 C2083 1.465 . S
C2078 C2073 1.399 . S
C2078 C2077 1.394 . S
C2078 C2079 1.516 . S
C2079 C2078 1.516 . S
C2079 C2080 1.502 . S
C2079 C2081 1.561 . S
C2079 C2082 1.526 . S
C2080 H2064 0.959 . S
C2080 H2065 0.959 . S
C2080 H2066 0.961 . S
C2080 C2079 1.502 . S
C2081 H2067 0.960 . S
C2081 H2068 0.961 . S
C2081 H2069 0.959 . S
C2081 C2079 1.561 . S
C2082 C2079 1.526 . S
C2082 C2083 1.396 . S
C2082 C2087 1.390 . S
C2083 C2077 1.465 . S
C2083 C2082 1.396 . S
C2083 C2084 1.399 . S
C2084 H2070 0.929 . S
C2084 C2083 1.399 . S
C2084 C2085 1.385 . S
C2085 H2071 0.931 . S
C2085 C2084 1.385 . S
C2085 C2086 1.389 . S
C2086 C2085 1.389 . S
C2086 C2087 1.387 . S
C2087 H2072 0.930 . S
C2087 C2082 1.390 . S
C2087 C2086 1.387 . S
H2088 C2100 0.930 . S
H2089 C2102 0.930 . S
H2090 C2103 0.930 . S
H2091 C2107 0.959 1_554 S
H2092 C2107 0.959 . S
H2093 C2107 0.961 . S
H2094 C2108 0.960 . S
H2095 C2108 0.961 . S
H2096 C2108 0.959 . S
H2097 C2111 0.929 . S
H2098 C2112 0.931 . S
H2099 C2114 0.930 . S
C2100 H2088 0.930 . S
C2100 C2101 1.399 1_556 S
C2100 C2105 1.399 1_556 S
C2101 C2100 1.399 1_554 S
C2101 C2102 1.376 . S
C2102 H2089 0.930 . S
C2102 C2101 1.376 . S
C2102 C2103 1.388 . S
C2103 H2090 0.930 . S
C2103 C2102 1.388 . S
C2103 C2104 1.390 . S
C2104 C2103 1.390 . S
C2104 C2105 1.394 . S
C2104 C2110 1.465 . S
C2105 C2100 1.399 1_554 S
C2105 C2104 1.394 . S
C2105 C2106 1.516 . S
C2106 C2105 1.516 . S
C2106 C2107 1.502 1_554 S
C2106 C2108 1.561 1_554 S
C2106 C2109 1.526 . S
C2107 H2091 0.959 1_556 S
C2107 H2092 0.959 . S
C2107 H2093 0.961 . S
C2107 C2106 1.502 1_556 S
C2108 H2094 0.960 . S
C2108 H2095 0.961 . S
C2108 H2096 0.959 . S
C2108 C2106 1.561 1_556 S
C2109 C2106 1.526 . S
C2109 C2110 1.396 . S
C2109 C2114 1.390 . S
C2110 C2104 1.465 . S
C2110 C2109 1.396 . S
C2110 C2111 1.399 . S
C2111 H2097 0.929 . S
C2111 C2110 1.399 . S
C2111 C2112 1.385 . S
C2112 H2098 0.931 . S
C2112 C2111 1.385 . S
C2112 C2113 1.389 . S
C2113 C2112 1.389 . S
C2113 C2114 1.387 . S
C2114 H2099 0.930 . S
C2114 C2109 1.390 . S
C2114 C2113 1.387 . S
H2115 C2127 0.930 . S
H2116 C2129 0.930 . S
H2117 C2130 0.930 . S
H2118 C2134 0.959 . S
H2119 C2134 0.959 . S
H2120 C2134 0.961 . S
H2121 C2135 0.960 . S
H2122 C2135 0.961 . S
H2123 C2135 0.959 . S
H2124 C2138 0.929 . S
H2125 C2139 0.931 . S
H2126 C2141 0.930 . S
C2127 H2115 0.930 . S
C2127 C2128 1.399 . S
C2127 C2132 1.399 . S
C2128 C2127 1.399 . S
C2128 C2129 1.376 . S
C2129 H2116 0.930 . S
C2129 C2128 1.376 . S
C2129 C2130 1.388 . S
C2130 H2117 0.930 . S
C2130 C2129 1.388 . S
C2130 C2131 1.390 . S
C2131 C2130 1.390 . S
C2131 C2132 1.394 . S
C2131 C2137 1.465 . S
C2132 C2127 1.399 . S
C2132 C2131 1.394 . S
C2132 C2133 1.516 . S
C2133 C2132 1.516 . S
C2133 C2134 1.502 . S
C2133 C2135 1.561 . S
C2133 C2136 1.526 . S
C2134 H2118 0.959 . S
C2134 H2119 0.959 . S
C2134 H2120 0.961 . S
C2134 C2133 1.502 . S
C2135 H2121 0.960 . S
C2135 H2122 0.961 . S
C2135 H2123 0.959 . S
C2135 C2133 1.561 . S
C2136 C2133 1.526 . S
C2136 C2137 1.396 . S
C2136 C2141 1.390 . S
C2137 C2131 1.465 . S
C2137 C2136 1.396 . S
C2137 C2138 1.399 1_554 S
C2138 H2124 0.929 . S
C2138 C2137 1.399 1_556 S
C2138 C2139 1.385 . S
C2139 H2125 0.931 . S
C2139 C2138 1.385 . S
C2139 C2140 1.389 1_556 S
C2140 C2139 1.389 1_554 S
C2140 C2141 1.387 . S
C2141 H2126 0.930 . S
C2141 C2136 1.390 . S
C2141 C2140 1.387 . S
H2142 C2154 0.930 . S
H2143 C2156 0.930 . S
H2144 C2157 0.930 . S
H2145 C2161 0.959 . S
H2146 C2161 0.959 . S
H2147 C2161 0.961 . S
H2148 C2162 0.960 . S
H2149 C2162 0.961 . S
H2150 C2162 0.959 . S
H2151 C2165 0.929 . S
H2152 C2166 0.931 . S
H2153 C2168 0.930 . S
C2154 H2142 0.930 . S
C2154 C2155 1.399 . S
C2154 C2159 1.399 . S
C2155 C2154 1.399 . S
C2155 C2156 1.376 . S
C2156 H2143 0.930 . S
C2156 C2155 1.376 . S
C2156 C2157 1.388 . S
C2157 H2144 0.930 . S
C2157 C2156 1.388 . S
C2157 C2158 1.390 . S
C2158 C2157 1.390 . S
C2158 C2159 1.394 . S
C2158 C2164 1.465 . S
C2159 C2154 1.399 . S
C2159 C2158 1.394 . S
C2159 C2160 1.516 . S
C2160 C2159 1.516 . S
C2160 C2161 1.502 . S
C2160 C2162 1.561 . S
C2160 C2163 1.526 . S
C2161 H2145 0.959 . S
C2161 H2146 0.959 . S
C2161 H2147 0.961 . S
C2161 C2160 1.502 . S
C2162 H2148 0.960 . S
C2162 H2149 0.961 . S
C2162 H2150 0.959 . S
C2162 C2160 1.561 . S
C2163 C2160 1.526 . S
C2163 C2164 1.396 . S
C2163 C2168 1.390 . S
C2164 C2158 1.465 . S
C2164 C2163 1.396 . S
C2164 C2165 1.399 1_554 S
C2165 H2151 0.929 . S
C2165 C2164 1.399 1_556 S
C2165 C2166 1.385 . S
C2166 H2152 0.931 . S
C2166 C2165 1.385 . S
C2166 C2167 1.389 1_556 S
C2167 C2166 1.389 1_554 S
C2167 C2168 1.387 . S
C2168 H2153 0.930 . S
C2168 C2163 1.390 . S
C2168 C2167 1.387 . S
H2169 C2181 0.930 . S
H2170 C2183 0.930 . S
H2171 C2184 0.930 . S
H2172 C2188 0.959 . S
H2173 C2188 0.959 . S
H2174 C2188 0.961 . S
H2175 C2189 0.960 . S
H2176 C2189 0.961 . S
H2177 C2189 0.959 . S
H2178 C2192 0.929 . S
H2179 C2193 0.931 . S
H2180 C2195 0.930 . S
C2181 H2169 0.930 . S
C2181 C2182 1.399 . S
C2181 C2186 1.399 . S
C2182 C2181 1.399 . S
C2182 C2183 1.376 . S
C2183 H2170 0.930 . S
C2183 C2182 1.376 . S
C2183 C2184 1.388 . S
C2184 H2171 0.930 . S
C2184 C2183 1.388 . S
C2184 C2185 1.390 . S
C2185 C2184 1.390 . S
C2185 C2186 1.394 . S
C2185 C2191 1.465 . S
C2186 C2181 1.399 . S
C2186 C2185 1.394 . S
C2186 C2187 1.516 . S
C2187 C2186 1.516 . S
C2187 C2188 1.502 . S
C2187 C2189 1.561 . S
C2187 C2190 1.526 . S
C2188 H2172 0.959 . S
C2188 H2173 0.959 . S
C2188 H2174 0.961 . S
C2188 C2187 1.502 . S
C2189 H2175 0.960 . S
C2189 H2176 0.961 . S
C2189 H2177 0.959 . S
C2189 C2187 1.561 . S
C2190 C2187 1.526 . S
C2190 C2191 1.396 . S
C2190 C2195 1.390 . S
C2191 C2185 1.465 . S
C2191 C2190 1.396 . S
C2191 C2192 1.399 . S
C2192 H2178 0.929 . S
C2192 C2191 1.399 . S
C2192 C2193 1.385 . S
C2193 H2179 0.931 . S
C2193 C2192 1.385 . S
C2193 C2194 1.389 . S
C2194 C2193 1.389 . S
C2194 C2195 1.387 . S
C2195 H2180 0.930 . S
C2195 C2190 1.390 . S
C2195 C2194 1.387 . S
H2196 C2208 0.930 . S
H2197 C2210 0.930 . S
H2198 C2211 0.930 . S
H2199 C2215 0.959 . S
H2200 C2215 0.959 . S
H2201 C2215 0.961 . S
H2202 C2216 0.960 . S
H2203 C2216 0.961 . S
H2204 C2216 0.959 . S
H2205 C2219 0.929 . S
H2206 C2220 0.931 . S
H2207 C2222 0.930 . S
C2208 H2196 0.930 . S
C2208 C2209 1.399 . S
C2208 C2213 1.399 . S
C2209 C2208 1.399 . S
C2209 C2210 1.376 . S
C2210 H2197 0.930 . S
C2210 C2209 1.376 . S
C2210 C2211 1.388 . S
C2211 H2198 0.930 . S
C2211 C2210 1.388 . S
C2211 C2212 1.390 . S
C2212 C2211 1.390 . S
C2212 C2213 1.394 . S
C2212 C2218 1.465 . S
C2213 C2208 1.399 . S
C2213 C2212 1.394 . S
C2213 C2214 1.516 . S
C2214 C2213 1.516 . S
C2214 C2215 1.502 . S
C2214 C2216 1.561 . S
C2214 C2217 1.526 . S
C2215 H2199 0.959 . S
C2215 H2200 0.959 . S
C2215 H2201 0.961 . S
C2215 C2214 1.502 . S
C2216 H2202 0.960 . S
C2216 H2203 0.961 . S
C2216 H2204 0.959 . S
C2216 C2214 1.561 . S
C2217 C2214 1.526 . S
C2217 C2218 1.396 . S
C2217 C2222 1.390 . S
C2218 C2212 1.465 . S
C2218 C2217 1.396 . S
C2218 C2219 1.399 . S
C2219 H2205 0.929 . S
C2219 C2218 1.399 . S
C2219 C2220 1.385 . S
C2220 H2206 0.931 . S
C2220 C2219 1.385 . S
C2220 C2221 1.389 . S
C2221 C2220 1.389 . S
C2221 C2222 1.387 . S
C2222 H2207 0.930 . S
C2222 C2217 1.390 . S
C2222 C2221 1.387 . S
H2223 C2235 0.930 . S
H2224 C2237 0.930 . S
H2225 C2238 0.930 . S
H2226 C2242 0.959 . S
H2227 C2242 0.959 . S
H2228 C2242 0.961 . S
H2229 C2243 0.960 . S
H2230 C2243 0.961 . S
H2231 C2243 0.959 . S
H2232 C2246 0.929 . S
H2233 C2247 0.931 . S
H2234 C2249 0.930 . S
C2235 H2223 0.930 . S
C2235 C2236 1.399 . S
C2235 C2240 1.399 . S
C2236 C2235 1.399 . S
C2236 C2237 1.376 . S
C2237 H2224 0.930 . S
C2237 C2236 1.376 . S
C2237 C2238 1.388 . S
C2238 H2225 0.930 . S
C2238 C2237 1.388 . S
C2238 C2239 1.390 . S
C2239 C2238 1.390 . S
C2239 C2240 1.394 . S
C2239 C2245 1.465 . S
C2240 C2235 1.399 . S
C2240 C2239 1.394 . S
C2240 C2241 1.516 . S
C2241 C2240 1.516 . S
C2241 C2242 1.502 . S
C2241 C2243 1.561 . S
C2241 C2244 1.526 . S
C2242 H2226 0.959 . S
C2242 H2227 0.959 . S
C2242 H2228 0.961 . S
C2242 C2241 1.502 . S
C2243 H2229 0.960 . S
C2243 H2230 0.961 . S
C2243 H2231 0.959 . S
C2243 C2241 1.561 . S
C2244 C2241 1.526 . S
C2244 C2245 1.396 . S
C2244 C2249 1.390 . S
C2245 C2239 1.465 . S
C2245 C2244 1.396 . S
C2245 C2246 1.399 . S
C2246 H2232 0.929 . S
C2246 C2245 1.399 . S
C2246 C2247 1.385 . S
C2247 H2233 0.931 . S
C2247 C2246 1.385 . S
C2247 C2248 1.389 . S
C2248 C2247 1.389 . S
C2248 C2249 1.387 . S
C2249 H2234 0.930 . S
C2249 C2244 1.390 . S
C2249 C2248 1.387 . S
H2250 C2262 0.930 . S
H2251 C2264 0.930 . S
H2252 C2265 0.930 . S
H2253 C2269 0.959 . S
H2254 C2269 0.959 1_455 S
H2255 C2269 0.961 . S
H2256 C2270 1.003 . S
H2257 C2270 0.961 . S
H2258 C2270 0.959 . S
H2259 C2273 0.929 . S
H2260 C2274 0.931 . S
H2261 C2276 0.930 . S
C2262 H2250 0.930 . S
C2262 C2263 1.399 . S
C2262 C2267 1.399 . S
C2263 C2262 1.399 . S
C2263 C2264 1.376 . S
C2264 H2251 0.930 . S
C2264 C2263 1.376 . S
C2264 C2265 1.388 . S
C2265 H2252 0.930 . S
C2265 C2264 1.388 . S
C2265 C2266 1.390 . S
C2266 C2265 1.390 . S
C2266 C2267 1.394 . S
C2266 C2272 1.465 1_655 S
C2267 C2262 1.399 . S
C2267 C2266 1.394 . S
C2267 C2268 1.516 1_655 S
C2268 C2267 1.516 1_455 S
C2268 C2269 1.502 1_455 S
C2268 C2270 1.561 . S
C2268 C2271 1.526 . S
C2269 H2253 0.959 . S
C2269 H2254 0.959 1_655 S
C2269 H2255 0.961 . S
C2269 C2268 1.502 1_655 S
C2270 H2256 1.003 . S
C2270 H2257 0.961 . S
C2270 H2258 0.959 . S
C2270 C2268 1.561 . S
C2271 C2268 1.526 . S
C2271 C2272 1.396 . S
C2271 C2276 1.390 . S
C2272 C2266 1.465 1_455 S
C2272 C2271 1.396 . S
C2272 C2273 1.399 . S
C2273 H2259 0.929 . S
C2273 C2272 1.399 . S
C2273 C2274 1.385 . S
C2274 H2260 0.931 . S
C2274 C2273 1.385 . S
C2274 C2275 1.389 . S
C2275 C2274 1.389 . S
C2275 C2276 1.387 . S
C2276 H2261 0.930 . S
C2276 C2271 1.390 . S
C2276 C2275 1.387 . S
H2277 C2289 0.930 . S
H2278 C2291 0.930 . S
H2279 C2292 0.930 . S
H2280 C2296 0.959 . S
H2281 C2296 0.959 . S
H2282 C2296 0.961 . S
H2283 C2297 0.960 . S
H2284 C2297 0.961 . S
H2285 C2297 0.959 . S
H2286 C2300 0.929 . S
H2287 C2301 0.931 . S
H2288 C2303 0.930 . S
C2289 H2277 0.930 . S
C2289 C2290 1.399 . S
C2289 C2294 1.399 . S
C2290 C2289 1.399 . S
C2290 C2291 1.376 . S
C2291 H2278 0.930 . S
C2291 C2290 1.376 . S
C2291 C2292 1.388 . S
C2292 H2279 0.930 . S
C2292 C2291 1.388 . S
C2292 C2293 1.390 . S
C2293 C2292 1.390 . S
C2293 C2294 1.394 . S
C2293 C2299 1.465 . S
C2294 C2289 1.399 . S
C2294 C2293 1.394 . S
C2294 C2295 1.516 . S
C2295 C2294 1.516 . S
C2295 C2296 1.502 . S
C2295 C2297 1.561 . S
C2295 C2298 1.526 . S
C2296 H2280 0.959 . S
C2296 H2281 0.959 . S
C2296 H2282 0.961 . S
C2296 C2295 1.502 . S
C2297 H2283 0.960 . S
C2297 H2284 0.961 . S
C2297 H2285 0.959 . S
C2297 C2295 1.561 . S
C2298 C2295 1.526 . S
C2298 C2299 1.396 . S
C2298 C2303 1.390 . S
C2299 C2293 1.465 . S
C2299 C2298 1.396 . S
C2299 C2300 1.399 . S
C2300 H2286 0.929 . S
C2300 C2299 1.399 . S
C2300 C2301 1.385 . S
C2301 H2287 0.931 . S
C2301 C2300 1.385 . S
C2301 C2302 1.389 . S
C2302 C2301 1.389 . S
C2302 C2303 1.387 . S
C2303 H2288 0.930 . S
C2303 C2298 1.390 . S
C2303 C2302 1.387 . S
H2304 C2316 0.930 . S
H2305 C2318 0.930 . S
H2306 C2319 0.930 . S
H2307 C2323 0.959 . S
H2308 C2323 0.959 . S
H2309 C2323 0.982 . S
H2310 C2324 0.960 . S
H2311 C2324 0.961 . S
H2312 C2324 0.959 . S
H2313 C2327 0.929 . S
H2314 C2328 0.931 . S
H2315 C2330 0.930 . S
C2316 H2304 0.930 . S
C2316 C2317 1.399 . S
C2316 C2321 1.399 . S
C2317 C2316 1.399 . S
C2317 C2318 1.376 . S
C2318 H2305 0.930 . S
C2318 C2317 1.376 . S
C2318 C2319 1.388 . S
C2319 H2306 0.930 . S
C2319 C2318 1.388 . S
C2319 C2320 1.390 . S
C2320 C2319 1.390 . S
C2320 C2321 1.394 . S
C2320 C2326 1.465 1_565 S
C2321 C2316 1.399 . S
C2321 C2320 1.394 . S
C2321 C2322 1.516 1_565 S
C2322 C2321 1.516 1_545 S
C2322 C2323 1.502 . S
C2322 C2324 1.561 . S
C2322 C2325 1.526 . S
C2323 H2307 0.959 . S
C2323 H2308 0.959 . S
C2323 H2309 0.982 . S
C2323 C2322 1.502 . S
C2324 H2310 0.960 . S
C2324 H2311 0.961 . S
C2324 H2312 0.959 . S
C2324 C2322 1.561 . S
C2325 C2322 1.526 . S
C2325 C2326 1.396 . S
C2325 C2330 1.390 . S
C2326 C2320 1.465 1_545 S
C2326 C2325 1.396 . S
C2326 C2327 1.399 . S
C2327 H2313 0.929 . S
C2327 C2326 1.399 . S
C2327 C2328 1.385 . S
C2328 H2314 0.931 . S
C2328 C2327 1.385 . S
C2328 C2329 1.389 . S
C2329 C2328 1.389 . S
C2329 C2330 1.387 . S
C2330 H2315 0.930 . S
C2330 C2325 1.390 . S
C2330 C2329 1.387 . S
H2331 C2343 0.930 . S
H2332 C2345 0.930 . S
H2333 C2346 0.930 . S
H2334 C2350 0.959 . S
H2335 C2350 0.959 . S
H2336 C2350 0.961 . S
H2337 C2351 0.960 . S
H2338 C2351 0.961 . S
H2339 C2351 0.959 . S
H2340 C2354 0.929 . S
H2341 C2355 0.931 . S
H2342 C2357 0.930 . S
C2343 H2331 0.930 . S
C2343 C2344 1.399 . S
C2343 C2348 1.399 . S
C2344 C2343 1.399 . S
C2344 C2345 1.376 . S
C2345 H2332 0.930 . S
C2345 C2344 1.376 . S
C2345 C2346 1.388 . S
C2346 H2333 0.930 . S
C2346 C2345 1.388 . S
C2346 C2347 1.390 . S
C2347 C2346 1.390 . S
C2347 C2348 1.394 . S
C2347 C2353 1.465 1_545 S
C2348 C2343 1.399 . S
C2348 C2347 1.394 . S
C2348 C2349 1.516 1_545 S
C2349 C2348 1.516 1_565 S
C2349 C2350 1.502 . S
C2349 C2351 1.561 . S
C2349 C2352 1.526 . S
C2350 H2334 0.959 . S
C2350 H2335 0.959 . S
C2350 H2336 0.961 . S
C2350 C2349 1.502 . S
C2351 H2337 0.960 . S
C2351 H2338 0.961 . S
C2351 H2339 0.959 . S
C2351 C2349 1.561 . S
C2352 C2349 1.526 . S
C2352 C2353 1.396 . S
C2352 C2357 1.390 . S
C2353 C2347 1.465 1_565 S
C2353 C2352 1.396 . S
C2353 C2354 1.399 . S
C2354 H2340 0.929 . S
C2354 C2353 1.399 . S
C2354 C2355 1.385 . S
C2355 H2341 0.931 . S
C2355 C2354 1.385 . S
C2355 C2356 1.389 . S
C2356 C2355 1.389 . S
C2356 C2357 1.387 . S
C2357 H2342 0.930 . S
C2357 C2352 1.390 . S
C2357 C2356 1.387 . S
H2358 C2370 0.930 . S
H2359 C2372 0.930 . S
H2360 C2373 0.930 . S
H2361 C2377 0.959 . S
H2362 C2377 0.959 . S
H2363 C2377 0.961 . S
H2364 C2378 0.960 . S
H2365 C2378 0.948 1_655 S
H2366 C2378 0.941 1_655 S
H2367 C2381 0.929 . S
H2368 C2382 0.931 . S
H2369 C2384 0.930 . S
C2370 H2358 0.930 . S
C2370 C2371 1.399 . S
C2370 C2375 1.399 . S
C2371 C2370 1.399 . S
C2371 C2372 1.376 . S
C2372 H2359 0.930 . S
C2372 C2371 1.376 . S
C2372 C2373 1.388 . S
C2373 H2360 0.930 . S
C2373 C2372 1.388 . S
C2373 C2374 1.390 . S
C2374 C2373 1.390 . S
C2374 C2375 1.394 . S
C2374 C2380 1.465 1_455 S
C2375 C2370 1.399 . S
C2375 C2374 1.394 . S
C2375 C2376 1.516 . S
C2376 C2375 1.516 . S
C2376 C2377 1.502 . S
C2376 C2378 1.561 . S
C2376 C2379 1.526 1_455 S
C2377 H2361 0.959 . S
C2377 H2362 0.959 . S
C2377 H2363 0.961 . S
C2377 C2376 1.502 . S
C2378 H2364 0.960 . S
C2378 H2365 0.948 1_455 S
C2378 H2366 0.941 1_455 S
C2378 C2376 1.561 . S
C2379 C2376 1.526 1_655 S
C2379 C2380 1.396 . S
C2379 C2384 1.390 . S
C2380 C2374 1.465 1_655 S
C2380 C2379 1.396 . S
C2380 C2381 1.399 . S
C2381 H2367 0.929 . S
C2381 C2380 1.399 . S
C2381 C2382 1.385 . S
C2382 H2368 0.931 . S
C2382 C2381 1.385 . S
C2382 C2383 1.389 . S
C2383 C2382 1.389 . S
C2383 C2384 1.387 . S
C2384 H2369 0.930 . S
C2384 C2379 1.390 . S
C2384 C2383 1.387 . S
H2385 C2397 0.930 . S
H2386 C2399 0.930 . S
H2387 C2400 0.930 . S
H2388 C2404 0.959 . S
H2389 C2404 0.959 . S
H2390 C2404 0.961 . S
H2391 C2405 0.960 . S
H2392 C2405 0.961 . S
H2393 C2405 0.959 . S
H2394 C2408 0.929 . S
H2395 C2409 0.931 . S
H2396 C2411 0.930 . S
C2397 H2385 0.930 . S
C2397 C2398 1.399 . S
C2397 C2402 1.399 . S
C2398 C2397 1.399 . S
C2398 C2399 1.376 . S
C2399 H2386 0.930 . S
C2399 C2398 1.376 . S
C2399 C2400 1.388 . S
C2400 H2387 0.930 . S
C2400 C2399 1.388 . S
C2400 C2401 1.390 . S
C2401 C2400 1.390 . S
C2401 C2402 1.394 . S
C2401 C2407 1.465 . S
C2402 C2397 1.399 . S
C2402 C2401 1.394 . S
C2402 C2403 1.516 . S
C2403 C2402 1.516 . S
C2403 C2404 1.502 . S
C2403 C2405 1.561 . S
C2403 C2406 1.526 . S
C2404 H2388 0.959 . S
C2404 H2389 0.959 . S
C2404 H2390 0.961 . S
C2404 C2403 1.502 . S
C2405 H2391 0.960 . S
C2405 H2392 0.961 . S
C2405 H2393 0.959 . S
C2405 C2403 1.561 . S
C2406 C2403 1.526 . S
C2406 C2407 1.396 . S
C2406 C2411 1.390 . S
C2407 C2401 1.465 . S
C2407 C2406 1.396 . S
C2407 C2408 1.399 . S
C2408 H2394 0.929 . S
C2408 C2407 1.399 . S
C2408 C2409 1.385 . S
C2409 H2395 0.931 . S
C2409 C2408 1.385 . S
C2409 C2410 1.389 . S
C2410 C2409 1.389 . S
C2410 C2411 1.387 . S
C2411 H2396 0.930 . S
C2411 C2406 1.390 . S
C2411 C2410 1.387 . S
C481 C65 1.368 . S
C493 C0 1.338 . S
C508 C13 1.348 . S
C520 C39 1.285 . S
C535 C52 1.299 . S
C547 C26 1.368 . S
C562 C78 1.358 . S
C574 C143 1.369 . S
C589 C91 1.283 . S
C601 C117 1.311 . S
C616 C130 1.293 . S
C628 C104 1.292 . S
C643 C221 1.372 . S
C655 C156 1.309 . S
C670 C169 1.309 . S
C682 C195 1.372 . S
C697 C208 1.369 . S
C709 C182 1.299 . S
C724 C234 1.321 . S
C736 C299 1.367 . S
C751 C247 1.340 . S
C763 C273 1.372 . S
C778 C260 1.324 . S
C790 C286 1.369 . S
C805 C312 1.371 . S
C817 C377 1.331 . S
C832 C351 1.356 . S
C844 C325 1.287 . S
C859 C338 1.326 . S
C871 C364 1.372 . S
C886 C390 1.342 . S
C898 C455 1.372 . S
C913 C403 1.370 . S
C925 C429 1.358 . S
C940 C416 1.285 . S
C952 C442 1.307 . S
C967 C138 1.063 . S
C979 C5 0.881 . S
C994 C151 1.077 . S
C1006 C18 0.965 . S
C1021 C125 1.002 . S
C1033 C31 0.898 . S
C1048 C112 1.048 . S
C1060 C44 0.875 . S
C1075 C57 1.039 . S
C1087 C86 1.037 . S
C1102 C70 0.927 . S
C1114 C99 0.983 . S
C1129 C83 0.958 . S
C1141 C60 1.060 . S
C1156 C96 1.006 . S
C1168 C73 0.970 . S
C1183 C109 1.008 . S
C1195 C47 1.027 . S
C1210 C34 1.030 . S
C1222 C122 0.911 . S
C1237 C8 0.988 . S
C1249 C135 0.969 . S
C1264 C148 0.879 . S
C1276 C21 1.058 . S
C1291 C161 1.025 . S
C1303 C294 1.050 1_554 S
C1318 C174 0.881 . S
C1330 C307 1.021 1_554 S
C1345 C281 0.961 1_554 S
C1357 C187 0.980 . S
C1372 C200 1.047 . S
C1384 C268 0.974 . S
C1399 C213 0.922 . S
C1411 C242 1.079 . S
C1426 C226 0.931 . S
C1438 C255 0.980 . S
C1453 C239 0.886 . S
C1465 C216 1.080 . S
C1480 C229 1.037 . S
C1492 C252 0.901 . S
C1507 C203 1.059 . S
C1519 C265 0.880 . S
C1534 C278 0.912 . S
C1546 C190 1.028 . S
C1561 C164 0.958 . S
C1573 C291 1.042 . S
C1588 C177 1.058 . S
C1600 C304 0.961 . S
C1615 C450 1.079 . S
C1627 C317 0.911 . S
C1642 C330 0.992 . S
C1654 C463 1.068 . S
C1669 C343 1.053 . S
C1681 C437 0.983 . S
C1696 C424 1.018 . S
C1708 C356 0.885 . S
C1723 C398 0.998 . S
C1735 C369 1.055 . S
C1750 C411 0.977 . S
C1762 C382 1.049 . S
C1777 C395 0.911 . S
C1789 C372 1.077 1_556 S
C1804 C385 1.004 1_556 S
C1816 C408 1.034 . S
C1831 C421 0.928 . S
C1843 C359 1.015 1_556 S
C1858 C346 1.079 . S
C1870 C434 0.878 . S
C1885 C320 1.053 . S
C1897 C447 0.968 . S
C1912 C333 1.058 . S
C1924 C460 0.881 . S
C1939 C218 1.397 . S
C1951 C10 1.411 1_556 S
C1966 C23 1.410 1_556 S
C1978 C231 1.398 . S
C1993 C205 1.376 . S
C2005 C36 1.382 1_556 S
C2020 C348 1.378 . S
C2032 C49 1.387 . S
C2047 C62 1.405 . S
C2059 C322 1.393 . S
C2074 C75 1.375 . S
C2086 C335 1.379 . S
C2101 C88 1.389 1_554 S
C2113 C452 1.394 . S
C2128 C465 1.379 . S
C2140 C101 1.382 1_554 S
C2155 C439 1.388 . S
C2167 C114 1.393 1_554 S
C2182 C270 1.376 . S
C2194 C127 1.379 . S
C2209 C140 1.376 . S
C2221 C244 1.376 . S
C2236 C153 1.401 . S
C2248 C257 1.396 . S
C2263 C166 1.433 . S
C2275 C374 1.435 . S
C2290 C387 1.420 . S
C2302 C179 1.408 . S
C2317 C361 1.434 . S
C2329 C192 1.427 . S
C2344 C283 1.386 . S
C2356 C426 1.391 . S
C2371 C400 1.399 . S
C2383 C296 1.394 . S
C2398 C413 1.428 . S
C2410 C309 1.424 . S
