# Generated by pormake.
# Topology wkj, (6)-cn, num edge types: 1
# Building blocks:
#     Node 0, Type 0, BuildingBlock: KUMBUR_clean_sbu_0, # of connection points: 6
#     Node 1, Type 0, BuildingBlock: KUMBUR_clean_sbu_0, # of connection points: 6
#     Node 2, Type 0, BuildingBlock: KUMBUR_clean_sbu_0, # of connection points: 6
#     Node 3, Type 0, BuildingBlock: KUMBUR_clean_sbu_0, # of connection points: 6
#     Node 4, Type 0, BuildingBlock: KUMBUR_clean_sbu_0, # of connection points: 6
#     Node 5, Type 0, BuildingBlock: KUMBUR_clean_sbu_0, # of connection points: 6
#     Node 6, Type 0, BuildingBlock: KUMBUR_clean_sbu_0, # of connection points: 6
#     Node 7, Type 0, BuildingBlock: KUMBUR_clean_sbu_0, # of connection points: 6
#     Node 8, Type 0, BuildingBlock: KUMBUR_clean_sbu_0, # of connection points: 6
#     Node 9, Type 0, BuildingBlock: KUMBUR_clean_sbu_0, # of connection points: 6
#     Node 10, Type 0, BuildingBlock: KUMBUR_clean_sbu_0, # of connection points: 6
#     Node 11, Type 0, BuildingBlock: KUMBUR_clean_sbu_0, # of connection points: 6
#     Edge 12, Type (0, 0), BuildingBlock: ZUJKAS_clean_linker_0, # of connection points: 2
#     Edge 13, Type (0, 0), BuildingBlock: ZUJKAS_clean_linker_0, # of connection points: 2
#     Edge 14, Type (0, 0), BuildingBlock: ZUJKAS_clean_linker_0, # of connection points: 2
#     Edge 15, Type (0, 0), BuildingBlock: ZUJKAS_clean_linker_0, # of connection points: 2
#     Edge 16, Type (0, 0), BuildingBlock: ZUJKAS_clean_linker_0, # of connection points: 2
#     Edge 17, Type (0, 0), BuildingBlock: ZUJKAS_clean_linker_0, # of connection points: 2
#     Edge 18, Type (0, 0), BuildingBlock: ZUJKAS_clean_linker_0, # of connection points: 2
#     Edge 19, Type (0, 0), BuildingBlock: ZUJKAS_clean_linker_0, # of connection points: 2
#     Edge 20, Type (0, 0), BuildingBlock: ZUJKAS_clean_linker_0, # of connection points: 2
#     Edge 21, Type (0, 0), BuildingBlock: ZUJKAS_clean_linker_0, # of connection points: 2
#     Edge 22, Type (0, 0), BuildingBlock: ZUJKAS_clean_linker_0, # of connection points: 2
#     Edge 23, Type (0, 0), BuildingBlock: ZUJKAS_clean_linker_0, # of connection points: 2
#     Edge 24, Type (0, 0), BuildingBlock: ZUJKAS_clean_linker_0, # of connection points: 2
#     Edge 25, Type (0, 0), BuildingBlock: ZUJKAS_clean_linker_0, # of connection points: 2
#     Edge 26, Type (0, 0), BuildingBlock: ZUJKAS_clean_linker_0, # of connection points: 2
#     Edge 27, Type (0, 0), BuildingBlock: ZUJKAS_clean_linker_0, # of connection points: 2
#     Edge 28, Type (0, 0), BuildingBlock: ZUJKAS_clean_linker_0, # of connection points: 2
#     Edge 29, Type (0, 0), BuildingBlock: ZUJKAS_clean_linker_0, # of connection points: 2
#     Edge 30, Type (0, 0), BuildingBlock: ZUJKAS_clean_linker_0, # of connection points: 2
#     Edge 31, Type (0, 0), BuildingBlock: ZUJKAS_clean_linker_0, # of connection points: 2
#     Edge 32, Type (0, 0), BuildingBlock: ZUJKAS_clean_linker_0, # of connection points: 2
#     Edge 33, Type (0, 0), BuildingBlock: ZUJKAS_clean_linker_0, # of connection points: 2
#     Edge 34, Type (0, 0), BuildingBlock: ZUJKAS_clean_linker_0, # of connection points: 2
#     Edge 35, Type (0, 0), BuildingBlock: ZUJKAS_clean_linker_0, # of connection points: 2
#     Edge 36, Type (0, 0), BuildingBlock: ZUJKAS_clean_linker_0, # of connection points: 2
#     Edge 37, Type (0, 0), BuildingBlock: ZUJKAS_clean_linker_0, # of connection points: 2
#     Edge 38, Type (0, 0), BuildingBlock: ZUJKAS_clean_linker_0, # of connection points: 2
#     Edge 39, Type (0, 0), BuildingBlock: ZUJKAS_clean_linker_0, # of connection points: 2
#     Edge 40, Type (0, 0), BuildingBlock: ZUJKAS_clean_linker_0, # of connection points: 2
#     Edge 41, Type (0, 0), BuildingBlock: ZUJKAS_clean_linker_0, # of connection points: 2
#     Edge 42, Type (0, 0), BuildingBlock: ZUJKAS_clean_linker_0, # of connection points: 2
#     Edge 43, Type (0, 0), BuildingBlock: ZUJKAS_clean_linker_0, # of connection points: 2
#     Edge 44, Type (0, 0), BuildingBlock: ZUJKAS_clean_linker_0, # of connection points: 2
#     Edge 45, Type (0, 0), BuildingBlock: ZUJKAS_clean_linker_0, # of connection points: 2
#     Edge 46, Type (0, 0), BuildingBlock: ZUJKAS_clean_linker_0, # of connection points: 2
#     Edge 47, Type (0, 0), BuildingBlock: ZUJKAS_clean_linker_0, # of connection points: 2
# Relax obj value: 0.443
# Max RMSD: 0.214
# Mean RMSD: 0.214
data_MOF--net-wkj--node1-KUMBUR_clean_sbu_0--edge1-ZUJKAS_clean_linker_0
_symmetry_space_group_name_H-M    P1
_symmetry_Int_Tables_number       1
_symmetry_cell_setting            triclinic
loop_
_symmetry_equiv_pos_as_xyz
'x, y, z'
_cell_length_a     64.054146
_cell_length_b     64.10265
_cell_length_c     38.197409
_cell_angle_alpha  89.942405
_cell_angle_beta   89.928673
_cell_angle_gamma 120.06639
loop_
_atom_site_label
_atom_site_type_symbol
_atom_site_fract_x
_atom_site_fract_y
_atom_site_fract_z
_atom_type_partial_charge
Tb0 Tb 0.46966 0.08306 0.31274 0.0
C1 C 0.57138 0.1038 0.32097 0.0
C2 C 0.59147 0.13772 0.36071 0.0
C3 C 0.60896 0.1124 0.34875 0.0
C4 C 0.57174 0.12282 0.33906 0.0
C5 C 0.5898 0.0982 0.32602 0.0
C6 C 0.60994 0.13226 0.36571 0.0
C7 C 0.5697 0.06578 0.28422 0.0
N8 N 0.55309 0.09106 0.29803 0.0
C9 C 0.55216 0.0724 0.27927 0.0
C10 C 0.58864 0.07877 0.30758 0.0
Tb11 Tb 0.52832 0.10667 0.28947 0.0
N12 N 0.55319 0.12719 0.33453 0.0
C13 C 0.5537 0.14673 0.3498 0.0
C14 C 0.59219 0.15786 0.3763 0.0
C15 C 0.57327 0.16244 0.37068 0.0
H16 H 0.53776 0.06244 0.26085 0.0
H17 H 0.57372 0.178 0.38248 0.0
H18 H 0.62512 0.14335 0.38254 0.0
H19 H 0.56879 0.05086 0.26968 0.0
H20 H 0.53942 0.15068 0.34474 0.0
H21 H 0.43293 0.99049 0.26605 0.0
H22 H 0.60718 0.1699 0.39277 0.0
H23 H 0.45734 0.12644 0.28244 0.0
H24 H 0.45519 0.02338 0.30569 0.0
H25 H 0.43991 0.13376 0.23165 0.0
H26 H 0.62336 0.10844 0.35287 0.0
H27 H 0.41244 0.99518 0.21492 0.0
H28 H 0.40183 0.02088 0.17958 0.0
H29 H 0.6024 0.07382 0.3109 0.0
H30 H 0.40493 0.06 0.16907 0.0
N31 N 0.4502 0.04948 0.27669 0.0
C32 C 0.44772 0.02722 0.28316 0.0
C33 C 0.42283 0.01043 0.232 0.0
C34 C 0.42453 0.03262 0.22573 0.0
C35 C 0.43449 0.00777 0.26075 0.0
C36 C 0.43865 0.05218 0.24848 0.0
H37 H 0.41975 0.10211 0.18723 0.0
N38 N 0.45395 0.09301 0.26454 0.0
C39 C 0.44074 0.11733 0.23337 0.0
C40 C 0.4409 0.07455 0.24196 0.0
C41 C 0.45209 0.11349 0.26169 0.0
C42 C 0.42918 0.09935 0.20867 0.0
C43 C 0.42839 0.0774 0.21334 0.0
O44 O 0.44512 0.0939 0.32601 0.0
O45 O 0.5062 0.103 0.33751 0.0
O46 O 0.52026 0.0758 0.32203 0.0
O47 O 0.47917 0.05717 0.33461 0.0
O48 O 0.47853 0.08567 0.36997 0.0
O49 O 0.43707 0.05787 0.33786 0.0
O50 O 0.55858 0.11962 0.25619 0.0
O51 O 0.49204 0.08357 0.26747 0.0
O52 O 0.48681 0.1234 0.31359 0.0
O53 O 0.51515 0.13144 0.27194 0.0
O54 O 0.51939 0.08583 0.23932 0.0
O55 O 0.54725 0.14393 0.27904 0.0
C56 C 0.5019 0.09832 0.37204 0.0
C57 C 0.41946 0.07624 0.37253 0.0
C58 C 0.41561 0.07399 0.43556 0.0
C59 C 0.42488 0.06989 0.40481 0.0
C60 C 0.40123 0.08477 0.43415 0.0
C61 C 0.40504 0.08704 0.3712 0.0
C62 C 0.39612 0.09144 0.40195 0.0
C63 C 0.50049 0.05848 0.33673 0.0
C64 C 0.42973 0.07352 0.33987 0.0
C65 C 0.41456 0.05801 0.19096 0.0
C66 C 0.41264 0.03571 0.19711 0.0
C67 C 0.49621 0.07558 0.23777 0.0
C68 C 0.58396 0.16224 0.24526 0.0
C69 C 0.58017 0.17869 0.22639 0.0
C70 C 0.59978 0.19999 0.21361 0.0
C71 C 0.62336 0.20519 0.22158 0.0
C72 C 0.60745 0.16733 0.2527 0.0
C73 C 0.62712 0.18893 0.24114 0.0
C74 C 0.50207 0.13847 0.28986 0.0
C75 C 0.56347 0.14176 0.26156 0.0
H76 H 0.43562 0.06115 0.40606 0.0
H77 H 0.39359 0.08751 0.45784 0.0
H78 H 0.40092 0.0923 0.34634 0.0
H79 H 0.38502 0.09975 0.40076 0.0
H80 H 0.56189 0.17472 0.22124 0.0
H81 H 0.63889 0.22132 0.21153 0.0
H82 H 0.61053 0.155 0.26835 0.0
H83 H 0.64529 0.19297 0.24705 0.0
Tb84 Tb 0.38405 0.47159 0.64891 0.0
C85 C 0.46992 0.56599 0.68035 0.0
C86 C 0.4551 0.58335 0.72345 0.0
C87 C 0.49809 0.59791 0.71893 0.0
C88 C 0.45078 0.56695 0.696 0.0
C89 C 0.49376 0.58152 0.69174 0.0
C90 C 0.47883 0.59883 0.73471 0.0
C91 C 0.50759 0.56418 0.64788 0.0
N92 N 0.46514 0.54975 0.65422 0.0
C93 C 0.48374 0.54909 0.63736 0.0
C94 C 0.51263 0.58035 0.67525 0.0
Tb95 Tb 0.42568 0.52982 0.63626 0.0
N96 N 0.42788 0.5511 0.68542 0.0
C97 C 0.40856 0.55134 0.70046 0.0
C98 C 0.43538 0.58332 0.73932 0.0
C99 C 0.41204 0.56724 0.72781 0.0
H100 H 0.48048 0.53687 0.61602 0.0
H101 H 0.39672 0.56724 0.73979 0.0
H102 H 0.48248 0.61149 0.7558 0.0
H103 H 0.52215 0.56352 0.63467 0.0
H104 H 0.39053 0.53953 0.6908 0.0
H105 H 0.44737 0.4406 0.61004 0.0
H106 H 0.43799 0.59557 0.76058 0.0
H107 H 0.33873 0.46941 0.59986 0.0
H108 H 0.43768 0.46813 0.63776 0.0
H109 H 0.31335 0.44556 0.55237 0.0
H110 H 0.51629 0.60997 0.72795 0.0
H111 H 0.41865 0.40957 0.56969 0.0
H112 H 0.38019 0.39237 0.53656 0.0
H113 H 0.53119 0.59204 0.68318 0.0
H114 H 0.3444 0.39452 0.51964 0.0
N115 N 0.4013 0.45221 0.618 0.0
C116 C 0.42364 0.4543 0.62251 0.0
C117 C 0.41372 0.42149 0.58276 0.0
C118 C 0.3921 0.42078 0.57525 0.0
C119 C 0.42987 0.43886 0.60563 0.0
C120 C 0.38661 0.43694 0.59272 0.0
H121 H 0.32017 0.41494 0.52409 0.0
N122 N 0.3633 0.45595 0.59726 0.0
C123 C 0.32862 0.44371 0.56002 0.0
C124 C 0.36694 0.43879 0.58221 0.0
C125 C 0.34398 0.45809 0.58667 0.0
C126 C 0.33234 0.42629 0.54443 0.0
C127 C 0.35163 0.42362 0.55536 0.0
O128 O 0.3471 0.45456 0.66115 0.0
O129 O 0.40229 0.50603 0.67804 0.0
O130 O 0.44278 0.51487 0.6702 0.0
O131 O 0.41445 0.47397 0.67843 0.0
O132 O 0.38691 0.47699 0.70778 0.0
O133 O 0.36641 0.43511 0.66319 0.0
O134 O 0.44664 0.55617 0.59769 0.0
O135 O 0.40556 0.49597 0.60438 0.0
O136 O 0.36351 0.49107 0.64673 0.0
O137 O 0.3901 0.52474 0.61636 0.0
O138 O 0.44108 0.51774 0.59438 0.0
O139 O 0.42294 0.56051 0.63332 0.0
C140 C 0.39935 0.50022 0.71196 0.0
C141 C 0.33453 0.42413 0.70303 0.0
C142 C 0.33864 0.41377 0.76248 0.0
C143 C 0.34883 0.42461 0.7306 0.0
C144 C 0.31377 0.40368 0.76792 0.0
C145 C 0.30957 0.41383 0.708 0.0
C146 C 0.29927 0.40385 0.74059 0.0
C147 C 0.43594 0.49333 0.684 0.0
C148 C 0.34599 0.43437 0.66937 0.0
C149 C 0.35614 0.40643 0.5399 0.0
C150 C 0.37642 0.40511 0.54967 0.0
C151 C 0.42307 0.49781 0.58372 0.0
C152 C 0.43599 0.58649 0.58656 0.0
C153 C 0.41408 0.57804 0.56914 0.0
C154 C 0.40804 0.5944 0.55489 0.0
C155 C 0.42433 0.61933 0.55785 0.0
C156 C 0.45223 0.6113 0.58909 0.0
C157 C 0.44638 0.62768 0.5747 0.0
C158 C 0.36775 0.51003 0.62774 0.0
C159 C 0.43954 0.57066 0.60967 0.0
H160 H 0.36817 0.4328 0.72701 0.0
H161 H 0.30561 0.39519 0.79263 0.0
H162 H 0.29817 0.41346 0.68681 0.0
H163 H 0.28002 0.39585 0.74443 0.0
H164 H 0.4015 0.55884 0.56751 0.0
H165 H 0.42038 0.63236 0.54612 0.0
H166 H 0.4689 0.618 0.60363 0.0
H167 H 0.45883 0.64685 0.57691 0.0
Tb168 Tb 0.9151 0.38811 0.98375 0.0
C169 C 0.90227 0.47065 1.01164 0.0
C170 C 0.86722 0.45238 1.04993 0.0
C171 C 0.89571 0.49543 1.0534 0.0
C172 C 0.8812 0.45037 1.02304 0.0
C173 C 0.90974 0.49336 1.02682 0.0
C174 C 0.87452 0.47502 1.06489 0.0
C175 C 0.94436 0.51047 0.98815 0.0
N176 N 0.91567 0.46799 0.9863 0.0
C177 C 0.93617 0.48767 0.97361 0.0
C178 C 0.93113 0.51333 1.01491 0.0
Tb179 Tb 0.89829 0.42997 0.9631 0.0
N180 N 0.87495 0.42858 1.00878 0.0
C181 C 0.85465 0.40818 1.01954 0.0
C182 C 0.84657 0.43148 1.06148 0.0
C183 C 0.84029 0.40929 1.04625 0.0
H184 H 0.94622 0.48551 0.95252 0.0
H185 H 0.82434 0.39306 1.05497 0.0
H186 H 0.86401 0.4769 0.08561 0.0
H187 H 0.96077 0.52586 0.97854 0.0
H188 H 0.84955 0.39104 1.00764 0.0
H189 H 0.96158 0.38766 0.86642 0.0
H190 H 0.83542 0.43226 0.08221 0.0
H191 H 0.88173 0.34211 1.03612 0.0
H192 H 0.95602 0.40417 0.92203 0.0
H193 H 0.85752 0.29761 1.0317 0.0
H194 H 0.90115 0.51273 1.06536 0.0
H195 H 0.93152 0.34615 0.84874 0.0
H196 H 0.89601 0.30627 0.86604 0.0
H197 H 0.9375 0.53105 1.02604 0.0
H198 H 0.86784 0.28115 0.91233 0.0
N199 N 0.92125 0.37427 0.93185 0.0
C200 C 0.94196 0.38684 0.91281 0.0
C201 C 0.92848 0.35379 0.87215 0.0
C202 C 0.9091 0.33973 0.89457 0.0
C203 C 0.94549 0.37722 0.88201 0.0
C204 C 0.90611 0.35054 0.92489 0.0
H205 H 0.85407 0.27764 0.97487 0.0
N206 N 0.89043 0.34712 0.98185 0.0
C207 C 0.86638 0.30833 1.00874 0.0
C208 C 0.89047 0.33632 0.95114 0.0
C209 C 0.87999 0.33347 1.01117 0.0
C210 C 0.86442 0.29712 0.97655 0.0
C211 C 0.8771 0.31107 0.94748 0.0
O212 O 0.93885 0.37408 0.98193 0.0
O213 O 0.9008 0.40987 1.00828 0.0
O214 O 0.93 0.44635 0.99644 0.0
O215 O 0.94645 0.42412 0.9778 0.0
O216 O 0.90617 0.38912 1.04081 0.0
O217 O 0.93648 0.39212 1.02701 0.0
O218 O 0.89856 0.45686 0.93195 0.0
O219 O 0.91794 0.41311 0.93996 0.0
O220 O 0.87537 0.36619 0.97557 0.0
O221 O 0.86806 0.39278 0.94486 0.0
O222 O 0.92045 0.44147 0.91422 0.0
O223 O 0.86493 0.42501 0.94675 0.0
C224 C 0.90098 0.40623 1.04246 0.0
C225 C 0.94056 0.35857 1.03724 0.0
C226 C 0.93984 0.34493 0.09673 0.0
C227 C 0.94247 0.36268 0.07311 0.0
C228 C 0.93345 0.3219 0.08417 0.0
C229 C 0.93448 0.33564 1.02455 0.0
C230 C 0.93061 0.31728 1.04812 0.0
C231 C 0.94813 0.44215 0.99654 0.0
C232 C 0.94435 0.37863 1.01451 0.0
C233 C 0.87821 0.30051 0.91583 0.0
C234 C 0.8942 0.31483 0.88938 0.0
C235 C 0.92743 0.42596 0.91097 0.0
C236 C 0.86767 0.44239 0.89108 0.0
C237 C 0.85038 0.42003 0.87771 0.0
C238 C 0.84386 0.41779 0.84258 0.0
C239 C 0.85492 0.43814 0.82052 0.0
C240 C 0.87834 0.46271 0.86908 0.0
C241 C 0.87206 0.4605 0.83382 0.0
C242 C 0.86105 0.3701 0.95501 0.0
C243 C 0.87529 0.4446 0.92753 0.0
H244 H 0.94647 0.38021 0.08279 0.0
H245 H 0.93142 0.30781 0.1019 0.0
H246 H 0.93251 0.33186 0.99675 0.0
H247 H 0.92585 0.29959 1.03841 0.0
H248 H 0.84174 0.40435 0.89456 0.0
H249 H 0.84966 0.43697 0.79333 0.0
H250 H 0.89164 0.4802 0.87912 0.0
H251 H 0.88026 0.47617 0.8169 0.0
Tb252 Tb 0.52982 0.91349 0.31276 0.0
C253 C 0.43383 0.90502 0.33492 0.0
C254 C 0.41469 0.87364 0.37899 0.0
C255 C 0.40136 0.90278 0.37081 0.0
C256 C 0.43189 0.88497 0.35211 0.0
C257 C 0.41881 0.91432 0.34454 0.0
C258 C 0.39929 0.88249 0.38796 0.0
C259 C 0.44005 0.94641 0.30262 0.0
N260 N 0.45131 0.9161 0.31008 0.0
C261 C 0.45445 0.93655 0.29371 0.0
C262 C 0.42205 0.93519 0.32791 0.0
Tb263 Tb 0.471 0.89559 0.29585 0.0
N264 N 0.44774 0.87745 0.34387 0.0
C265 C 0.44681 0.85815 0.36069 0.0
C266 C 0.4139 0.85411 0.39667 0.0
C267 C 0.43005 0.84636 0.3875 0.0
H268 H 0.46832 0.94582 0.27433 0.0
H269 H 0.42948 0.83122 0.40094 0.0
H270 H 0.38596 0.874 0.40853 0.0
H271 H 0.4429 0.96271 0.28995 0.0
H272 H 0.45885 0.85171 0.35298 0.0
H273 H 0.58944 0.01098 0.29543 0.0
H274 H 0.40102 0.84501 0.41757 0.0
H275 H 0.53475 0.8702 0.26784 0.0
H276 H 0.56447 0.97436 0.32917 0.0
H277 H 0.54538 0.86432 0.20935 0.0
H278 H 0.38959 0.9096 0.3784 0.0
H279 H 0.59832 0.00845 0.23324 0.0
H280 H 0.59577 0.98298 0.18244 0.0
H281 H 0.41095 0.94295 0.33468 0.0
H282 H 0.58341 0.9429 0.15868 0.0
N283 N 0.55618 0.95023 0.28572 0.0
C284 C 0.56707 0.97252 0.30165 0.0
C285 C 0.58675 0.99209 0.24774 0.0
C286 C 0.57791 0.96947 0.23241 0.0
C287 C 0.58173 0.99359 0.28275 0.0
C288 C 0.56274 0.94861 0.25236 0.0
H289 H 0.56461 0.89864 0.16834 0.0
N290 N 0.54223 0.90634 0.2593 0.0
C291 C 0.54758 0.88163 0.21667 0.0
C292 C 0.55553 0.92599 0.23875 0.0
C293 C 0.54035 0.88483 0.24977 0.0
C294 C 0.55863 0.90106 0.19378 0.0
C295 C 0.56363 0.92378 0.20517 0.0
O296 O 0.54893 0.89575 0.32592 0.0
O297 O 0.49423 0.89722 0.33948 0.0
O298 O 0.48315 0.92522 0.33341 0.0
O299 O 0.52382 0.94362 0.32363 0.0
O300 O 0.5221 0.91158 0.37107 0.0
O301 O 0.56335 0.93319 0.33753 0.0
O302 O 0.44392 0.88927 0.25837 0.0
O303 O 0.5063 0.91069 0.26715 0.0
O304 O 0.51102 0.87338 0.31125 0.0
O305 O 0.47749 0.86516 0.27928 0.0
O306 O 0.48381 0.92253 0.25267 0.0
O307 O 0.44288 0.86052 0.28983 0.0
C308 C 0.49883 0.90067 0.37359 0.0
C309 C 0.56906 0.90974 0.37985 0.0
C310 C 0.5736 0.92161 0.44106 0.0
C311 C 0.57333 0.92699 0.40569 0.0
C312 C 0.5704 0.89914 0.45092 0.0
C313 C 0.56643 0.88744 0.3899 0.0
C314 C 0.56716 0.88223 0.42529 0.0
C315 C 0.5052 0.94324 0.33871 0.0
C316 C 0.56527 0.91424 0.34313 0.0
C317 C 0.57742 0.94437 0.18464 0.0
C318 C 0.58449 0.96717 0.19819 0.0
C319 C 0.50501 0.92621 0.24553 0.0
C320 C 0.41513 0.84808 0.24398 0.0
C321 C 0.42224 0.83347 0.22658 0.0
C322 C 0.40492 0.81215 0.21052 0.0
C323 C 0.38051 0.80599 0.21116 0.0
C324 C 0.39082 0.8419 0.24424 0.0
C325 C 0.37357 0.82093 0.22772 0.0
C326 C 0.49248 0.85814 0.29182 0.0
C327 C 0.43142 0.86671 0.26796 0.0
H328 H 0.57563 0.94441 0.3986 0.0
H329 H 0.57072 0.89484 0.47828 0.0
H330 H 0.56327 0.87386 0.37049 0.0
H331 H 0.56489 0.86495 0.43289 0.0
H332 H 0.44104 0.83835 0.22641 0.0
H333 H 0.36689 0.78992 0.19805 0.0
H334 H 0.38506 0.85281 0.2584 0.0
H335 H 0.35478 0.8161 0.22813 0.0
Tb336 Tb 0.61366 0.52965 0.64937 0.0
C337 C 0.53312 0.43575 0.69344 0.0
C338 C 0.55335 0.42039 0.73024 0.0
C339 C 0.51037 0.40516 0.73743 0.0
C340 C 0.55397 0.43557 0.70302 0.0
C341 C 0.51108 0.42043 0.71046 0.0
C342 C 0.53144 0.40517 0.74731 0.0
C343 C 0.49189 0.43586 0.67219 0.0
N344 N 0.53459 0.45132 0.66803 0.0
C345 C 0.51414 0.45072 0.65603 0.0
C346 C 0.49039 0.42081 0.69973 0.0
Tb347 Tb 0.571 0.47119 0.64012 0.0
N348 N 0.57496 0.45078 0.6863 0.0
C349 C 0.59601 0.45158 0.69547 0.0
C350 C 0.57486 0.42127 0.73986 0.0
C351 C 0.59627 0.43699 0.72249 0.0
H352 H 0.51516 0.46205 0.63434 0.0
H353 H 0.61299 0.43785 0.72984 0.0
H354 H 0.53062 0.3934 0.76831 0.0
H355 H 0.47588 0.43591 0.66324 0.0
H356 H 0.61274 0.46367 0.68241 0.0
H357 H 0.53965 0.54466 0.60512 0.0
H358 H 0.57515 0.40999 0.76078 0.0
H359 H 0.6681 0.55328 0.61417 0.0
H360 H 0.55593 0.52147 0.62978 0.0
H361 H 0.69513 0.58708 0.57695 0.0
H362 H 0.49361 0.39329 0.75085 0.0
H363 H 0.56639 0.58454 0.57891 0.0
H364 H 0.6075 0.61454 0.55794 0.0
H365 H 0.47312 0.40931 0.71218 0.0
H366 H 0.64957 0.62517 0.54778 0.0
N367 N 0.59342 0.54818 0.6225 0.0
C368 C 0.56879 0.53929 0.6211 0.0
C369 C 0.57408 0.57456 0.59083 0.0
C370 C 0.59865 0.58261 0.5885 0.0
C371 C 0.559 0.55231 0.60599 0.0
C372 C 0.6077 0.56857 0.60382 0.0
H373 H 0.68192 0.61444 0.55326 0.0
N374 N 0.63812 0.55888 0.60924 0.0
C375 C 0.67696 0.58347 0.58182 0.0
C376 C 0.63085 0.574 0.59678 0.0
C377 C 0.66112 0.56368 0.6022 0.0
C378 C 0.66954 0.59897 0.56881 0.0
C379 C 0.64626 0.59435 0.57615 0.0
O380 O 0.64652 0.53511 0.66979 0.0
O381 O 0.59576 0.49513 0.67899 0.0
O382 O 0.55596 0.48789 0.67591 0.0
O383 O 0.58427 0.52922 0.67768 0.0
O384 O 0.60955 0.5237 0.70836 0.0
O385 O 0.638 0.56388 0.66911 0.0
O386 O 0.54598 0.44927 0.6016 0.0
O387 O 0.59226 0.50414 0.60644 0.0
O388 O 0.6317 0.51361 0.61887 0.0
O389 O 0.60597 0.47277 0.62342 0.0
O390 O 0.55612 0.48481 0.5996 0.0
O391 O 0.56654 0.43722 0.63126 0.0
C392 C 0.59803 0.50057 0.71283 0.0
C393 C 0.66043 0.56216 0.71715 0.0
C394 C 0.65263 0.57101 0.77605 0.0
C395 C 0.64703 0.56758 0.74043 0.0
C396 C 0.67214 0.56901 0.78861 0.0
C397 C 0.68011 0.56048 0.72971 0.0
C398 C 0.68593 0.56393 0.76536 0.0
C399 C 0.56347 0.51028 0.68712 0.0
C400 C 0.65283 0.55686 0.68037 0.0
C401 C 0.63793 0.60935 0.56326 0.0
C402 C 0.61408 0.60341 0.56929 0.0
C403 C 0.575 0.50287 0.58616 0.0
C404 C 0.55206 0.41893 0.57813 0.0
C405 C 0.57455 0.42754 0.56235 0.0
C406 C 0.57868 0.41217 0.54176 0.0
C407 C 0.5597 0.38869 0.53469 0.0
C408 C 0.53298 0.39578 0.57072 0.0
C409 C 0.53678 0.38074 0.54858 0.0
C410 C 0.62775 0.49139 0.6155 0.0
C411 C 0.54996 0.43164 0.60775 0.0
H412 H 0.63152 0.56839 0.73091 0.0
H413 H 0.6769 0.5717 0.81609 0.0
H414 H 0.6907 0.55622 0.71208 0.0
H415 H 0.70107 0.56255 0.77501 0.0
H416 H 0.58926 0.44548 0.56811 0.0
H417 H 0.56254 0.37652 0.51851 0.0
H418 H 0.51559 0.38897 0.58335 0.0
H419 H 0.52222 0.36267 0.54321 0.0
Tb420 Tb 0.08352 0.61457 0.97955 0.0
C421 C 0.11468 0.54496 1.01452 0.0
C422 C 0.15291 0.57348 1.04086 0.0
C423 C 0.1352 0.53071 1.05306 0.0
C424 C 0.13348 0.56842 1.01829 0.0
C425 C 0.11516 0.5259 1.03242 0.0
C426 C 0.15403 0.55446 1.0573 0.0
C427 C 0.07525 0.49891 1.01033 0.0
N428 N 0.09506 0.54121 0.99591 0.0
C429 C 0.07559 0.5183 0.99307 0.0
C430 C 0.09517 0.50269 1.02996 0.0
Tb431 Tb 0.10076 0.57374 0.96271 0.0
N432 N 0.13103 0.58639 1.00364 0.0
C433 C 0.14669 0.60986 1.01252 0.0
C434 C 0.16977 0.59753 1.0481 0.0
C435 C 0.16635 0.61577 1.03443 0.0
H436 H 0.06052 0.5148 0.97649 0.0
H437 H 0.17872 0.6344 1.04102 0.0
H438 H 0.16891 0.558 0.07446 0.0
H439 H 0.05973 0.48099 1.0081 0.0
H440 H 0.14401 0.62419 1.00344 0.0
H441 H 0.06389 0.64715 0.86139 0.0
H442 H 0.18483 0.60216 1.06547 0.0
H443 H 0.12659 0.64265 1.04098 0.0
H444 H 0.06221 0.61633 0.90171 0.0
H445 H 0.15448 0.68462 1.05831 0.0
H446 H 0.13593 0.5163 1.06681 0.0
H447 H 0.08933 0.69038 0.87601 0.0
H448 H 0.11836 0.72204 0.91784 0.0
H449 H 0.09482 0.48763 1.04344 0.0
H450 H 0.14268 0.73221 0.97163 0.0
N451 N 0.08797 0.64144 0.93684 0.0
C452 C 0.07441 0.63495 0.90714 0.0
C453 C 0.08906 0.67685 0.89332 0.0
C454 C 0.10253 0.68345 0.92429 0.0
C455 C 0.07488 0.65248 0.88479 0.0
C456 C 0.10124 0.66511 0.94608 0.0
H457 H 0.15664 0.71836 1.02387 0.0
N458 N 0.11278 0.65232 0.99701 0.0
C459 C 0.14312 0.68092 1.03554 0.0
C460 C 0.11433 0.67082 0.97712 0.0
C461 C 0.12718 0.65707 1.02565 0.0
C462 C 0.14428 0.69995 1.01605 0.0
C463 C 0.12989 0.69503 0.98624 0.0
O464 O 0.07019 0.63506 1.0019 0.0
O465 O 0.09533 0.59191 1.00811 0.0
O466 O 0.06796 0.55553 0.99275 0.0
O467 O 0.05094 0.57886 0.98021 0.0
O468 O 0.08491 0.60948 1.03828 0.0
O469 O 0.04766 0.60579 0.96755 0.0
O470 O 0.09284 0.54343 0.93264 0.0
O471 O 0.08568 0.59391 0.93387 0.0
O472 O 0.11876 0.63501 0.95104 0.0
O473 O 0.13244 0.60846 0.94251 0.0
O474 O 0.07157 0.55882 0.92246 0.0
O475 O 0.12945 0.57252 0.93859 0.0
C476 C 0.09186 0.59375 1.04192 0.0
C477 C 0.02923 0.61656 1.01236 0.0
C478 C 0.01473 0.60768 0.07194 0.0
C479 C 0.03279 0.6135 1.04748 0.0
C480 C 0.99296 0.60616 1.06169 0.0
C481 C 0.0077 0.6154 1.0019 0.0
C482 C 0.98964 0.61036 1.02672 0.0
C483 C 0.04934 0.55887 0.99234 0.0
C484 C 0.04898 0.62278 0.98781 0.0
C485 C 0.131 0.71344 0.96486 0.0
C486 C 0.11722 0.70766 0.93412 0.0
C487 C 0.06918 0.57691 0.91376 0.0
C488 C 0.1188 0.55138 0.88515 0.0
C489 C 0.1411 0.56778 0.87066 0.0
C490 C 0.14517 0.5677 0.83487 0.0
C491 C 0.12653 0.55103 0.81316 0.0
C492 C 0.10039 0.53435 0.86353 0.0
C493 C 0.10425 0.53436 0.82757 0.0
C494 C 0.13596 0.63078 0.94052 0.0
C495 C 0.11508 0.55224 0.92276 0.0
H496 H 0.04966 0.6151 1.05593 0.0
H497 H 0.97881 0.602 0.08065 0.0
H498 H 0.005 0.61859 0.97488 0.0
H499 H 0.97305 0.60961 1.01885 0.0
H500 H 0.15544 0.58082 0.88724 0.0
H501 H 0.12939 0.55048 0.78531 0.0
H502 H 0.08306 0.52118 0.87431 0.0
H503 H 0.09002 0.52133 0.81093 0.0
Tb504 Tb 0.91174 0.52953 0.49163 0.0
C505 C 0.90221 0.43455 0.46188 0.0
C506 C 0.87158 0.41942 0.41651 0.0
C507 C 0.89927 0.40401 0.42117 0.0
C508 C 0.88307 0.43484 0.44519 0.0
C509 C 0.91045 0.41908 0.45 0.0
C510 C 0.87986 0.40412 0.40455 0.0
C511 C 0.93933 0.4334 0.49718 0.0
N512 N 0.9127 0.44938 0.48975 0.0
C513 C 0.9305 0.4483 0.50827 0.0
C514 C 0.92946 0.41892 0.46773 0.0
Tb515 Tb 0.89451 0.47086 0.50651 0.0
N516 N 0.87619 0.45067 0.45631 0.0
C517 C 0.85703 0.45102 0.44103 0.0
C518 C 0.85247 0.42025 0.40017 0.0
C519 C 0.84514 0.43607 0.41255 0.0
H520 H 0.93832 0.45917 0.53128 0.0
H521 H 0.83021 0.43664 0.40029 0.0
H522 H 0.87143 0.39236 0.38234 0.0
H523 H 0.95362 0.43293 0.51155 0.0
H524 H 0.85086 0.46276 0.45109 0.0
H525 H 0.00963 0.58548 0.51006 0.0
H526 H 0.84329 0.40878 0.37799 0.0
H527 H 0.86849 0.53249 0.53768 0.0
H528 H 0.97327 0.56269 0.4756 0.0
H529 H 0.86275 0.5436 0.59602 0.0
H530 H 0.90544 0.3921 0.41162 0.0
H531 H 0.00699 0.59474 0.57198 0.0
H532 H 0.98157 0.59362 0.62205 0.0
H533 H 0.93633 0.40736 0.45932 0.0
H534 H 0.94158 0.58199 0.64574 0.0
N535 N 0.9487 0.55411 0.51898 0.0
C536 C 0.9711 0.56438 0.5033 0.0
C537 C 0.99062 0.58365 0.55732 0.0
C538 C 0.96798 0.57572 0.57225 0.0
C539 C 0.99216 0.5783 0.5225 0.0
C540 C 0.94708 0.56085 0.55229 0.0
H541 H 0.89729 0.5633 0.63646 0.0
N542 N 0.90464 0.54007 0.54617 0.0
C543 C 0.88004 0.54573 0.58864 0.0
C544 C 0.92445 0.55374 0.56616 0.0
C545 C 0.88313 0.53819 0.55575 0.0
C546 C 0.89961 0.55708 0.61117 0.0
C547 C 0.92233 0.56201 0.59962 0.0
O548 O 0.89088 0.5449 0.47582 0.0
O549 O 0.89711 0.49489 0.46308 0.0
O550 O 0.92814 0.48483 0.47745 0.0
O551 O 0.94087 0.52539 0.46885 0.0
O552 O 0.91226 0.52401 0.4332 0.0
O553 O 0.92938 0.56635 0.47944 0.0
O554 O 0.88777 0.4437 0.54431 0.0
O555 O 0.90884 0.50536 0.53629 0.0
O556 O 0.8715 0.50935 0.49219 0.0
O557 O 0.86501 0.47739 0.52635 0.0
O558 O 0.92156 0.48311 0.54923 0.0
O559 O 0.85961 0.44203 0.51065 0.0
C560 C 0.90175 0.50079 0.42931 0.0
C561 C 0.91052 0.57625 0.43548 0.0
C562 C 0.92589 0.584 0.3761 0.0
C563 C 0.9251 0.57496 0.4095 0.0
C564 C 0.91172 0.5945 0.36843 0.0
C565 C 0.89658 0.58697 0.42807 0.0
C566 C 0.89722 0.59609 0.39452 0.0
C567 C 0.94382 0.5065 0.46566 0.0
C568 C 0.90968 0.56585 0.46983 0.0
C569 C 0.94298 0.57584 0.61988 0.0
C570 C 0.96574 0.58256 0.60632 0.0
C571 C 0.92452 0.50391 0.55726 0.0
C572 C 0.84654 0.4122 0.55386 0.0
C573 C 0.83043 0.41698 0.57201 0.0
C574 C 0.80924 0.39788 0.58606 0.0
C575 C 0.80437 0.37404 0.58176 0.0
C576 C 0.8417 0.38844 0.55006 0.0
C577 C 0.82062 0.36941 0.56395 0.0
C578 C 0.85693 0.49109 0.51262 0.0
C579 C 0.86574 0.43073 0.53283 0.0
H580 H 0.93604 0.56686 0.41525 0.0
H581 H 0.91227 0.60186 0.34269 0.0
H582 H 0.88523 0.58819 0.44807 0.0
H583 H 0.88651 0.60442 0.38876 0.0
H584 H 0.83416 0.43538 0.57472 0.0
H585 H 0.78841 0.35906 0.59323 0.0
H586 H 0.85379 0.38457 0.5352 0.0
H587 H 0.81682 0.35105 0.56081 0.0
Tb588 Tb 0.38504 0.91598 0.82044 0.0
C589 C 0.4635 0.8959 0.78474 0.0
C590 C 0.44194 0.85817 0.75313 0.0
C591 C 0.48522 0.88365 0.74523 0.0
C592 C 0.44216 0.8749 0.77733 0.0
C593 C 0.48526 0.90056 0.76862 0.0
C594 C 0.46361 0.86253 0.73746 0.0
C595 C 0.50549 0.93853 0.79941 0.0
N596 N 0.46267 0.91226 0.80638 0.0
C597 C 0.48349 0.9332 0.81461 0.0
C598 C 0.50638 0.92218 0.77623 0.0
Tb599 Tb 0.42639 0.89922 0.83425 0.0
N600 N 0.42146 0.87152 0.79238 0.0
C601 C 0.39981 0.85178 0.78385 0.0
C602 C 0.41988 0.8378 0.74482 0.0
C603 C 0.39872 0.83472 0.76004 0.0
H604 H 0.48297 0.94583 0.83286 0.0
H605 H 0.3815 0.81921 0.75337 0.0
H606 H 0.4638 0.84983 0.71895 0.0
H607 H 0.52176 0.95522 0.80566 0.0
H608 H 0.38313 0.84919 0.79461 0.0
H609 H 0.4614 0.00678 0.85402 0.0
H610 H 0.41895 0.82457 0.7263 0.0
H611 H 0.3327 0.886 0.86218 0.0
H612 H 0.44423 0.96598 0.83411 0.0
H613 H 0.30866 0.89307 0.90448 0.0
H614 H 0.50176 0.88688 0.73268 0.0
H615 H 0.43626 0.01987 0.88513 0.0
H616 H 0.39714 0.00847 0.91393 0.0
H617 H 0.52344 0.92639 0.76439 0.0
H618 H 0.35632 0.97693 0.93054 0.0
N619 N 0.40721 0.95514 0.84568 0.0
C620 C 0.43175 0.97113 0.84357 0.0
C621 C 0.42805 0.00179 0.87453 0.0
C622 C 0.40401 0.9849 0.88123 0.0
C623 C 0.44218 0.99456 0.85669 0.0
C624 C 0.3942 0.9614 0.86705 0.0
H625 H 0.32383 0.93383 0.92863 0.0
N626 N 0.36369 0.92094 0.86554 0.0
C627 C 0.32664 0.9074 0.8979 0.0
C628 C 0.37178 0.94359 0.87762 0.0
C629 C 0.34098 0.90313 0.87479 0.0
C630 C 0.33512 0.93043 0.9111 0.0
C631 C 0.35783 0.94892 0.90087 0.0
O632 O 0.34965 0.89269 0.80342 0.0
O633 O 0.40258 0.89812 0.79337 0.0
O634 O 0.44172 0.92921 0.79493 0.0
O635 O 0.4142 0.94291 0.78863 0.0
O636 O 0.38697 0.9098 0.76185 0.0
O637 O 0.36492 0.9314 0.80224 0.0
O638 O 0.45471 0.90593 0.86793 0.0
O639 O 0.40542 0.9124 0.86562 0.0
O640 O 0.36391 0.87904 0.84318 0.0
O641 O 0.39132 0.86638 0.85222 0.0
O642 O 0.44163 0.92985 0.87137 0.0
O643 O 0.4264 0.86957 0.85769 0.0
C644 C 0.39935 0.89887 0.75916 0.0
C645 C 0.33386 0.90807 0.76211 0.0
C646 C 0.33517 0.91974 0.70161 0.0
C647 C 0.34698 0.92096 0.73285 0.0
C648 C 0.31 0.90548 0.69944 0.0
C649 C 0.30871 0.89339 0.75989 0.0
C650 C 0.29683 0.89209 0.72855 0.0
C651 C 0.43482 0.9439 0.78063 0.0
C652 C 0.34611 0.91042 0.79529 0.0
C653 C 0.36687 0.97251 0.91305 0.0
C654 C 0.38999 0.99048 0.90334 0.0
C655 C 0.42284 0.92899 0.88501 0.0
C656 C 0.44474 0.87884 0.91378 0.0
C657 C 0.42442 0.85937 0.92879 0.0
C658 C 0.42413 0.8543 0.96437 0.0
C659 C 0.444 0.86965 0.98543 0.0
C660 C 0.46468 0.89384 0.93484 0.0
C661 C 0.46413 0.88941 0.97065 0.0
C662 C 0.36856 0.862 0.85316 0.0
C663 C 0.44558 0.88342 0.87616 0.0
H664 H 0.36637 0.93264 0.73461 0.0
H665 H 0.30068 0.90474 0.67543 0.0
H666 H 0.2983 0.88321 0.78245 0.0
H667 H 0.27741 0.88094 0.72696 0.0
H668 H 0.40903 0.84761 0.9127 0.0
H669 H 0.44445 0.86578 1.01294 0.0
H670 H 0.48068 0.90891 0.92357 0.0
H671 H 0.47956 0.90091 0.98678 0.0
Tb672 Tb 0.47243 0.39153 0.16015 0.0
C673 C 0.57396 0.47124 0.14717 0.0
C674 C 0.58954 0.45805 0.09914 0.0
C675 C 0.6096 0.50042 0.11516 0.0
C676 C 0.57225 0.45285 0.12569 0.0
C677 C 0.59245 0.49523 0.14167 0.0
C678 C 0.60823 0.48188 0.09412 0.0
C679 C 0.57579 0.50727 0.1892 0.0
N680 N 0.55737 0.4656 0.17323 0.0
C681 C 0.55797 0.48318 0.19417 0.0
C682 C 0.59318 0.5133 0.16306 0.0
Tb683 Tb 0.53204 0.42527 0.18054 0.0
N684 N 0.55363 0.42997 0.13064 0.0
C685 C 0.55189 0.41135 0.11077 0.0
C686 C 0.58752 0.43914 0.07836 0.0
C687 C 0.56864 0.4157 0.08424 0.0
H688 H 0.54469 0.47878 0.21449 0.0
H689 H 0.56711 0.40094 1.06858 0.0
H690 H 0.62167 0.48619 0.07389 0.0
H691 H 0.5762 0.52119 0.2057 0.0
H692 H 0.53783 0.39301 0.11605 0.0
H693 H 0.42729 0.39207 0.27801 0.0
H694 H 0.60049 0.44242 1.05779 0.0
H695 H 0.45528 0.34549 0.1051 0.0
H696 H 0.45075 0.40895 0.22328 0.0
H697 H 0.43318 0.30095 0.10873 0.0
H698 H 0.62406 0.51873 0.11077 0.0
H699 H 0.4137 0.34987 0.29457 0.0
H700 H 0.40717 0.30947 0.27616 0.0
H701 H 0.60707 0.53197 0.15956 0.0
H702 H 0.40812 0.28413 0.22869 0.0
N703 N 0.45367 0.37807 0.21272 0.0
C704 C 0.44625 0.39109 0.23191 0.0
C705 C 0.42482 0.35752 0.27147 0.0
C706 C 0.42937 0.34314 0.2487 0.0
C707 C 0.43242 0.38135 0.26222 0.0
C708 C 0.44359 0.35392 0.21862 0.0
H709 H 0.41706 0.28073 0.16561 0.0
N710 N 0.45338 0.35025 0.15998 0.0
C711 C 0.43616 0.31158 0.13212 0.0
C712 C 0.44324 0.33945 0.19114 0.0
C713 C 0.44867 0.33675 0.13013 0.0
C714 C 0.42718 0.30024 0.16436 0.0
C715 C 0.42993 0.31414 0.19411 0.0
O716 O 0.43423 0.37504 0.16241 0.0
O717 O 0.508 0.40903 0.13418 0.0
O718 O 0.52358 0.44762 0.14849 0.0
O719 O 0.48318 0.43022 0.16152 0.0
O720 O 0.47965 0.39194 0.10248 0.0
O721 O 0.45469 0.40345 0.12753 0.0
O722 O 0.56432 0.4401 0.21014 0.0
O723 O 0.49624 0.41373 0.20425 0.0
O724 O 0.48805 0.367 0.16248 0.0
O725 O 0.51729 0.38787 0.20257 0.0
O726 O 0.52501 0.43701 0.23257 0.0
O727 O 0.55087 0.40678 0.18018 0.0
C728 C 0.50274 0.40653 0.1002 0.0
C729 C 0.41923 0.37144 0.10562 0.0
C730 C 0.41701 0.36812 1.04262 0.0
C731 C 0.42461 0.38212 0.07268 0.0
C732 C 0.40238 0.34301 1.04522 0.0
C733 C 0.40392 0.34633 0.10848 0.0
C734 C 0.39544 0.33221 0.07824 0.0
C735 C 0.50317 0.44778 0.14694 0.0
C736 C 0.43332 0.38631 0.13524 0.0
C737 C 0.41827 0.30355 0.22581 0.0
C738 C 0.41786 0.31802 0.25298 0.0
C739 C 0.50166 0.42554 0.23435 0.0
C740 C 0.58305 0.41605 0.21764 0.0
C741 C 0.572 0.39688 0.24109 0.0
C742 C 0.58547 0.38791 0.25733 0.0
C743 C 0.61013 0.39806 0.24873 0.0
C744 C 0.60754 0.42614 0.20945 0.0
C745 C 0.62102 0.41703 0.22486 0.0
C746 C 0.50256 0.36706 0.18718 0.0
C747 C 0.5688 0.42365 0.19778 0.0
H748 H 0.43633 0.40147 0.07023 0.0
H749 H 0.3962 0.33194 1.02191 0.0
H750 H 0.39945 0.33754 0.13383 0.0
H751 H 0.38406 0.31285 0.08043 0.0
H752 H 0.55307 0.38937 0.24709 0.0
H753 H 0.62137 0.39223 0.26165 0.0
H754 H 0.61609 0.44071 0.1906 0.0
H755 H 0.63998 0.42488 0.21867 0.0
Tb756 Tb 0.08476 0.46975 0.49368 0.0
C757 C 0.10063 0.5653 0.45192 0.0
C758 C 0.13701 0.58053 0.41672 0.0
C759 C 0.11096 0.59776 0.41021 0.0
C760 C 0.12143 0.56486 0.4428 0.0
C761 C 0.09513 0.58168 0.43553 0.0
C762 C 0.13181 0.59716 0.40079 0.0
C763 C 0.05853 0.56482 0.46999 0.0
N764 N 0.08521 0.5488 0.47539 0.0
C765 C 0.06473 0.5489 0.48554 0.0
C766 C 0.07376 0.58123 0.44481 0.0
Tb767 Tb 0.10024 0.52765 0.5034 0.0
N768 N 0.12556 0.54812 0.45802 0.0
C769 C 0.14503 0.54607 0.44828 0.0
C770 C 0.15701 0.57859 0.40679 0.0
C771 C 0.16092 0.56117 0.42247 0.0
H772 H 0.0532 0.5366 0.50563 0.0
H773 H 0.17621 0.55938 0.41473 0.0
H774 H 0.14362 0.6094 0.3808 0.0
H775 H 0.04214 0.56457 0.47766 0.0
H776 H 0.14829 0.53263 0.45993 0.0
H777 H 0.9945 0.45431 0.53413 0.0
H778 H 0.16934 0.59023 0.38674 0.0
H779 H 0.11179 0.44422 0.53421 0.0
H780 H 0.03607 0.47887 0.51691 0.0
H781 H 0.10123 0.40553 0.56128 0.0
H782 H 0.10708 0.61052 0.3974 0.0
H783 H 0.97755 0.41109 0.54735 0.0
H784 H 0.98522 0.3771 0.55891 0.0
H785 H 0.06891 0.59353 0.4328 0.0
H786 H 0.01487 0.36388 0.56792 0.0
N787 N 0.04457 0.45027 0.517 0.0
C788 C 0.02981 0.46013 0.52165 0.0
C789 C 0.99621 0.42185 0.53918 0.0
C790 C 0.01156 0.41235 0.53893 0.0
C791 C 0.00568 0.44614 0.53175 0.0
C792 C 0.03587 0.42732 0.52843 0.0
H793 H 0.05838 0.37481 0.57044 0.0
N794 N 0.07571 0.43667 0.52864 0.0
C795 C 0.08719 0.40941 0.55409 0.0
C796 C 0.0523 0.42024 0.53463 0.0
C797 C 0.09318 0.43169 0.53924 0.0
C798 C 0.06303 0.39206 0.5589 0.0
C799 C 0.04522 0.39755 0.54988 0.0
O800 O 0.11614 0.46975 0.47737 0.0
O801 O 0.09991 0.50386 0.4632 0.0
O802 O 0.06784 0.51045 0.46764 0.0
O803 O 0.05539 0.46932 0.46616 0.0
O804 O 0.08542 0.47506 0.4344 0.0
O805 O 0.08074 0.43824 0.47097 0.0
O806 O 0.09675 0.55131 0.53799 0.0
O807 O 0.08866 0.49475 0.53693 0.0
O808 O 0.11676 0.48528 0.52894 0.0
O809 O 0.13365 0.52578 0.5192 0.0
O810 O 0.07242 0.51433 0.54515 0.0
O811 O 0.13143 0.55954 0.51713 0.0
C812 C 0.09653 0.49824 0.42936 0.0
C813 C 0.11005 0.44621 0.42711 0.0
C814 C 0.09722 0.43433 0.36708 0.0
C815 C 0.09188 0.43596 0.40203 0.0
C816 C 0.12128 0.44353 0.35673 0.0
C817 C 0.13411 0.45503 0.4169 0.0
C818 C 0.13967 0.45374 0.38175 0.0
C819 C 0.05277 0.48778 0.45691 0.0
C820 C 0.10376 0.44839 0.46345 0.0
C821 C 0.02074 0.38154 0.55683 0.0
C822 C 0.00387 0.389 0.5515 0.0
C823 C 0.07282 0.49586 0.55766 0.0
C824 C 0.1313 0.57948 0.56879 0.0
C825 C 0.14956 0.57666 0.58408 0.0
C826 C 0.16273 0.59137 0.61191 0.0
C827 C 0.15727 0.60847 0.6253 0.0
C828 C 0.1258 0.59656 0.58216 0.0
C829 C 0.13871 0.61094 0.61051 0.0
C830 C 0.13611 0.50713 0.52922 0.0
C831 C 0.11968 0.56691 0.5366 0.0
H832 H 0.07329 0.42955 0.40947 0.0
H833 H 0.12573 0.44247 0.32968 0.0
H834 H 0.14853 0.46308 0.43595 0.0
H835 H 0.15824 0.46065 0.37393 0.0
H836 H 0.15398 0.56356 0.57389 0.0
H837 H 0.16741 0.6199 0.64704 0.0
H838 H 0.11192 0.59912 0.57016 0.0
H839 H 0.13459 0.62424 0.62063 0.0
Tb840 Tb 0.61602 0.08309 0.82003 0.0
C841 C 0.536 0.09847 0.78234 0.0
C842 C 0.55823 0.13338 0.74503 0.0
C843 C 0.51517 0.10712 0.73631 0.0
C844 C 0.55749 0.11867 0.77308 0.0
C845 C 0.51455 0.0925 0.76416 0.0
C846 C 0.53697 0.1275 0.72674 0.0
C847 C 0.49336 0.05807 0.80232 0.0
N848 N 0.53624 0.08438 0.80865 0.0
C849 C 0.51506 0.06465 0.81948 0.0
C850 C 0.49312 0.07197 0.77439 0.0
Tb851 Tb 0.57281 0.0977 0.836 0.0
N852 N 0.57778 0.1235 0.79086 0.0
C853 C 0.59944 0.14317 0.78204 0.0
C854 C 0.58038 0.15335 0.73582 0.0
C855 C 0.60107 0.15824 0.7544 0.0
H856 H 0.51506 0.05362 0.84093 0.0
H857 H 0.61834 0.17355 0.74731 0.0
H858 H 0.53722 0.13854 0.70505 0.0
H859 H 0.47685 0.04225 0.8106 0.0
H860 H 0.61577 0.14703 0.79536 0.0
H861 H 0.60288 0.99889 0.76603 0.0
H862 H 0.58173 0.165 0.71431 0.0
H863 H 0.63738 0.1074 0.89991 0.0
H864 H 0.61211 0.041 0.76356 0.0
H865 H 0.64303 0.09368 0.95687 0.0
H866 H 0.49892 0.10278 0.72194 0.0
H867 H 0.59925 0.97943 0.82339 0.0
H868 H 0.60433 0.98375 0.88853 0.0
H869 H 0.4763 0.06678 0.76105 0.0
H870 H 0.61659 0.01002 0.94029 0.0
N871 N 0.61098 0.04481 0.81867 0.0
C872 C 0.60973 0.03255 0.78861 0.0
C873 C 0.60274 0.9978 0.82236 0.0
C874 C 0.6068 0.01127 0.85295 0.0
C875 C 0.60479 0.00871 0.78997 0.0
C876 C 0.61108 0.03508 0.8502 0.0
H877 H 0.63186 0.05115 0.96569 0.0
N878 N 0.62272 0.07293 0.87526 0.0
C879 C 0.6358 0.0811 0.93531 0.0
C880 C 0.61773 0.04979 0.87932 0.0
C881 C 0.63259 0.08883 0.90254 0.0
C882 C 0.62946 0.05709 0.94021 0.0
C883 C 0.62063 0.04117 0.91196 0.0
O884 O 0.6482 0.11315 0.80264 0.0
O885 O 0.59516 0.0973 0.7932 0.0
O886 O 0.55566 0.06594 0.80186 0.0
O887 O 0.58241 0.05144 0.80292 0.0
O888 O 0.60929 0.08352 0.76152 0.0
O889 O 0.64634 0.07924 0.81069 0.0
O890 O 0.54596 0.09269 0.87178 0.0
O891 O 0.59329 0.08338 0.86497 0.0
O892 O 0.63697 0.11983 0.84164 0.0
O893 O 0.60848 0.13058 0.85431 0.0
O894 O 0.55719 0.06604 0.8719 0.0
O895 O 0.57435 0.12832 0.85839 0.0
C896 C 0.59604 0.09353 0.75925 0.0
C897 C 0.67209 0.10448 0.76639 0.0
C898 C 0.67041 0.09279 0.70565 0.0
C899 C 0.65974 0.08929 0.73857 0.0
C900 C 0.69428 0.11148 0.70075 0.0
C901 C 0.69579 0.12339 0.76145 0.0
C902 C 0.70689 0.12677 0.72868 0.0
C903 C 0.56163 0.04951 0.79378 0.0
C904 C 0.65959 0.10128 0.79973 0.0
C905 C 0.61498 0.01707 0.91527 0.0
C906 C 0.60792 0.00209 0.88584 0.0
C907 C 0.57581 0.06538 0.8829 0.0
C908 C 0.56046 0.12084 0.91701 0.0
C909 C 0.57992 0.14278 0.92804 0.0
C910 C 0.58363 0.14856 0.96362 0.0
C911 C 0.5681 0.13155 0.98845 0.0
C912 C 0.54486 0.1042 0.94204 0.0
C913 C 0.54891 0.10946 0.97761 0.0
C914 C 0.6317 0.13603 0.85328 0.0
C915 C 0.55641 0.11538 0.87952 0.0
H916 H 0.6416 0.07469 0.7424 0.0
H917 H 0.7029 0.1145 0.67538 0.0
H918 H 0.70555 0.13557 0.78272 0.0
H919 H 0.72518 0.1414 0.72483 0.0
H920 H 0.59195 0.15568 0.90886 0.0
H921 H 0.5701 0.13566 1.01614 0.0
H922 H 0.52957 0.08715 0.93415 0.0
H923 H 0.53683 0.09663 0.99679 0.0
Tb924 Tb 0.52804 0.61014 0.15906 0.0
C925 C 0.43133 0.52427 0.1415 0.0
C926 C 0.41295 0.5367 0.09654 0.0
C927 C 0.39832 0.49409 0.10655 0.0
C928 C 0.43027 0.54251 0.12312 0.0
C929 C 0.41556 0.49992 0.13305 0.0
C930 C 0.39693 0.51241 0.08849 0.0
C931 C 0.43499 0.48882 0.17775 0.0
N932 N 0.44814 0.53049 0.16723 0.0
C933 C 0.45005 0.51322 0.18565 0.0
C934 C 0.41763 0.48214 0.15147 0.0
Tb935 Tb 0.46907 0.5707 0.17923 0.0
N936 N 0.44668 0.56589 0.13049 0.0
C937 C 0.44612 0.58432 0.11322 0.0
C938 C 0.41257 0.5555 0.07836 0.0
C939 C 0.42923 0.5794 0.08674 0.0
H940 H 0.46332 0.51825 0.20614 0.0
H941 H 0.42896 0.59403 0.07299 0.0
H942 H 0.38357 0.50761 1.06807 0.0
H943 H 0.43666 0.47517 0.19211 0.0
H944 H 0.45851 0.60284 0.1204 0.0
H945 H 0.57717 0.60024 0.26484 0.0
H946 H 0.39957 0.55176 1.05772 0.0
H947 H 0.54538 0.66202 0.11767 0.0
H948 H 0.55292 0.58835 0.2105 0.0
H949 H 0.56482 0.70533 0.13316 0.0
H950 H 0.38597 0.47546 0.09979 0.0
H951 H 0.58692 0.63835 0.29444 0.0
H952 H 0.58848 0.6782 0.29119 0.0
H953 H 0.40591 0.46321 0.14562 0.0
H954 H 0.58494 0.70762 0.2542 0.0
N955 N 0.54723 0.61827 0.21144 0.0
C956 C 0.55661 0.60471 0.22383 0.0
C957 C 0.57589 0.633 0.27105 0.0
C958 C 0.56897 0.64838 0.25545 0.0
C959 C 0.57058 0.61155 0.25429 0.0
C960 C 0.55496 0.64069 0.22464 0.0
H961 H 0.57713 0.7182 0.19429 0.0
N962 N 0.54464 0.65058 0.17028 0.0
C963 C 0.56136 0.69204 0.15322 0.0
C964 C 0.55347 0.65751 0.20328 0.0
C965 C 0.55035 0.66761 0.14455 0.0
C966 C 0.5681 0.69919 0.18785 0.0
C967 C 0.56526 0.68203 0.21299 0.0
O968 O 0.566 0.63274 0.15525 0.0
O969 O 0.49228 0.58993 0.13342 0.0
O970 O 0.4818 0.55229 0.14548 0.0
O971 O 0.5215 0.57301 0.16144 0.0
O972 O 0.51941 0.61004 0.10177 0.0
O973 O 0.54764 0.60158 0.12416 0.0
O974 O 0.43782 0.54991 0.21064 0.0
O975 O 0.50529 0.58614 0.20319 0.0
O976 O 0.50935 0.63172 0.16217 0.0
O977 O 0.47879 0.6078 0.19942 0.0
O978 O 0.47787 0.55938 0.22997 0.0
O979 O 0.44533 0.5834 0.18401 0.0
C980 C 0.49692 0.59343 0.09932 0.0
C981 C 0.57739 0.63676 0.09664 0.0
C982 C 0.57386 0.64101 1.03417 0.0
C983 C 0.56688 0.62705 1.06446 0.0
C984 C 0.59142 0.66553 1.03612 0.0
C985 C 0.59527 0.66122 0.09856 0.0
C986 C 0.6021 0.67557 1.06836 0.0
C987 C 0.50357 0.55501 0.14429 0.0
C988 C 0.56749 0.62178 0.1281 0.0
C989 C 0.57615 0.68893 0.24606 0.0
C990 C 0.57811 0.67213 0.26722 0.0
C991 C 0.50086 0.57368 0.23273 0.0
C992 C 0.4112 0.56604 0.22055 0.0
C993 C 0.41661 0.5878 0.23626 0.0
C994 C 0.39825 0.59091 0.25035 0.0
C995 C 0.37416 0.57194 0.24802 0.0
C996 C 0.38729 0.54715 0.21863 0.0
C997 C 0.36878 0.55017 0.23226 0.0
C998 C 0.49301 0.62948 0.18544 0.0
C999 C 0.42979 0.5643 0.20136 0.0
H1000 H 0.55293 0.60826 1.0627 0.0
H1001 H 0.59742 0.67661 1.01276 0.0
H1002 H 0.60348 0.6693 0.12339 0.0
H1003 H 0.61578 0.69442 0.06991 0.0
H1004 H 0.43515 0.6023 0.23756 0.0
H1005 H 0.35958 0.5735 0.25965 0.0
H1006 H 0.38291 0.53039 0.20571 0.0
H1007 H 0.35027 0.53561 0.23079 0.0
H1008 H 0.48853 0.16663 0.32968 0.0
H1009 H 0.48882 0.20388 0.31437 0.0
H1010 H 0.51558 0.20213 0.21158 0.0
H1011 H 0.51684 0.16576 0.22798 0.0
H1012 H 0.53396 0.2453 0.22081 0.0
H1013 H 0.44372 0.21852 0.27251 0.0
H1014 H 0.46266 0.21883 0.3071 0.0
H1015 H 0.45475 0.19767 0.27142 0.0
C1016 C 0.49458 0.1741 0.30376 0.0
C1017 C 0.50269 0.16246 0.28043 0.0
C1018 C 0.49434 0.19565 0.29451 0.0
C1019 C 0.50138 0.20657 0.26083 0.0
C1020 C 0.50979 0.19497 0.2377 0.0
H1021 H 0.48734 0.32424 0.14937 0.0
H1022 H 0.48689 0.28689 0.16626 0.0
C1023 C 0.51054 0.17373 0.24724 0.0
C1024 C 0.50067 0.22994 0.24998 0.0
H1025 H 0.46827 0.26 0.25756 0.0
C1026 C 0.5193 0.24804 0.22894 0.0
C1027 C 0.48176 0.23478 0.25936 0.0
C1028 C 0.45949 0.21632 0.27847 0.0
C1029 C 0.51981 0.26983 0.21827 0.0
C1030 C 0.50148 0.27493 0.22878 0.0
C1031 C 0.48275 0.25695 0.24949 0.0
C1032 C 0.50149 0.29849 0.21821 0.0
C1033 C 0.5403 0.28765 0.19566 0.0
C1034 C 0.50963 0.31846 0.24114 0.0
C1035 C 0.50997 0.3402 0.2313 0.0
C1036 C 0.50213 0.34335 0.19795 0.0
C1037 C 0.49362 0.32319 0.17524 0.0
C1038 C 0.49343 0.30149 0.18499 0.0
H1039 H 0.55388 0.28206 0.19061 0.0
H1040 H 0.53308 0.28956 0.17019 0.0
H1041 H 0.54933 0.30563 0.20839 0.0
H1042 H 0.5159 0.31732 0.267 0.0
H1043 H 0.51601 0.3545 0.2504 0.0
H1044 H 0.35744 0.52635 0.56477 0.0
H1045 H 0.32075 0.52643 0.54718 0.0
H1046 H 0.29055 0.50106 0.64981 0.0
H1047 H 0.32636 0.49892 0.66591 0.0
H1048 H 0.25482 0.4832 0.61751 0.0
H1049 H 0.29638 0.56896 0.54452 0.0
H1050 H 0.30411 0.54832 0.52522 0.0
H1051 H 0.31451 0.55985 0.5688 0.0
C1052 C 0.34323 0.52117 0.58397 0.0
C1053 C 0.34588 0.51316 0.61742 0.0
C1054 C 0.32174 0.52142 0.57385 0.0
C1055 C 0.30178 0.51459 0.59696 0.0
C1056 C 0.30472 0.50663 0.63046 0.0
H1057 H 0.18174 0.54846 0.54633 0.0
H1058 H 0.22008 0.55054 0.56282 0.0
C1059 C 0.3258 0.50564 0.64011 0.0
C1060 C 0.27787 0.51471 0.58675 0.0
H1061 H 0.25405 0.54427 0.53911 0.0
C1062 C 0.25521 0.49694 0.60056 0.0
C1063 C 0.27667 0.53231 0.56475 0.0
C1064 C 0.29921 0.55356 0.55026 0.0
C1065 C 0.23275 0.49618 0.5936 0.0
C1066 C 0.2314 0.513 0.57024 0.0
C1067 C 0.25399 0.53092 0.55659 0.0
C1068 C 0.20715 0.51217 0.55981 0.0
C1069 C 0.21075 0.47758 0.61311 0.0
C1070 C 0.18599 0.49031 0.55125 0.0
C1071 C 0.16383 0.48915 0.54213 0.0
C1072 C 0.1609 0.50969 0.54032 0.0
C1073 C 0.18225 0.53185 0.54773 0.0
C1074 C 0.20465 0.53304 0.55719 0.0
H1075 H 0.21578 0.47276 0.63844 0.0
H1076 H 0.19795 0.48408 0.61863 0.0
H1077 H 0.20147 0.46087 0.59727 0.0
H1078 H 0.1865 0.47371 0.55077 0.0
H1079 H 0.149 0.47174 0.53543 0.0
H1080 H 0.82937 0.36222 0.89719 0.0
H1081 H 0.79216 0.32552 0.87963 0.0
H1082 H 0.79814 0.28821 0.96929 0.0
H1083 H 0.83499 0.32472 0.98659 0.0
H1084 H 0.78105 0.25558 0.92456 0.0
H1085 H 0.72377 0.29557 0.90038 0.0
H1086 H 0.75006 0.30872 0.87299 0.0
H1087 H 0.75322 0.31268 0.9198 0.0
C1088 C 0.82273 0.34646 0.91373 0.0
C1089 C 0.83626 0.34752 0.94389 0.0
C1090 C 0.80083 0.32488 0.90355 0.0
C1091 C 0.79067 0.30281 0.92296 0.0
C1092 C 0.8044 0.30403 0.95291 0.0
H1093 H 0.63549 0.1773 0.89016 0.0
H1094 H 0.67202 0.21546 0.90668 0.0
C1095 C 0.82614 0.32548 0.963 0.0
C1096 C 0.76668 0.27869 0.91248 0.0
H1097 H 0.70758 0.25487 0.8829 0.0
C1098 C 0.76516 0.25585 0.91554 0.0
C1099 C 0.7447 0.27736 0.90087 0.0
C1100 C 0.74282 0.29981 0.89861 0.0
C1101 C 0.74381 0.23312 0.9075 0.0
C1102 C 0.72207 0.23181 0.89463 0.0
C1103 C 0.72346 0.25463 0.89208 0.0
C1104 C 0.69832 0.20749 0.88397 0.0
C1105 C 0.74489 0.21052 0.91448 0.0
C1106 C 0.69905 0.18897 0.86455 0.0
C1107 C 0.6779 0.16674 0.85547 0.0
C1108 C 0.65398 0.16116 0.86415 0.0
C1109 C 0.65293 0.1799 0.88264 0.0
C1110 C 0.67435 0.20226 0.8922 0.0
H1111 H 0.75829 0.21348 0.93515 0.0
H1112 H 0.72711 0.1954 0.92284 0.0
H1113 H 0.75071 0.20528 0.89028 0.0
H1114 H 0.71623 0.19165 0.85559 0.0
H1115 H 0.68056 0.15378 0.8409 0.0
H1116 H 0.47161 0.63803 0.24481 0.0
H1117 H 0.47032 0.67446 0.2619 0.0
H1118 H 0.5114 0.71113 0.1703 0.0
H1119 H 0.51105 0.67429 0.15187 0.0
H1120 H 0.52847 0.7402 0.2406 0.0
H1121 H 0.43202 0.70666 0.21179 0.0
H1122 H 0.43967 0.68655 0.23405 0.0
H1123 H 0.44903 0.69508 0.18958 0.0
C1124 C 0.47998 0.65353 0.22767 0.0
C1125 C 0.49154 0.6523 0.19655 0.0
C1126 C 0.47945 0.67488 0.23782 0.0
C1127 C 0.49083 0.69656 0.21788 0.0
C1128 C 0.50247 0.69537 0.18696 0.0
H1129 H 0.46873 0.82589 0.23522 0.0
H1130 H 0.46878 0.78888 0.21833 0.0
C1131 C 0.5025 0.67391 0.17644 0.0
C1132 C 0.49065 0.72009 0.22891 0.0
H1133 H 0.45382 0.74521 0.23687 0.0
C1134 C 0.51199 0.74104 0.23986 0.0
C1135 C 0.46964 0.72245 0.22781 0.0
C1136 C 0.4462 0.70166 0.21505 0.0
C1137 C 0.51282 0.76315 0.24984 0.0
C1138 C 0.49158 0.7654 0.2497 0.0
C1139 C 0.47034 0.74449 0.23794 0.0
C1140 C 0.49104 0.78886 0.26102 0.0
C1141 C 0.5371 0.78425 0.25932 0.0
C1142 C 0.50284 0.80237 0.29149 0.0
C1143 C 0.50278 0.82393 0.30129 0.0
C1144 C 0.49045 0.8334 0.28187 0.0
C1145 C 0.47811 0.81965 0.25186 0.0
C1146 C 0.47832 0.7981 0.24187 0.0
H1147 H 0.55202 0.78274 0.24705 0.0
H1148 H 0.53873 0.80161 0.25105 0.0
H1149 H 0.53953 0.78452 0.28811 0.0
H1150 H 0.51218 0.7962 0.3084 0.0
H1151 H 0.51265 0.83333 0.32454 0.0
H1152 H 0.63385 0.45012 0.6119 0.0
H1153 H 0.66961 0.44775 0.59434 0.0
H1154 H 0.70808 0.52413 0.57406 0.0
H1155 H 0.67211 0.52572 0.58765 0.0
H1156 H 0.7271 0.51236 0.53303 0.0
H1157 H 0.72565 0.45412 0.6398 0.0
H1158 H 0.69867 0.43865 0.61431 0.0
H1159 H 0.70489 0.46528 0.63875 0.0
C1160 C 0.64984 0.46648 0.60355 0.0
C1161 C 0.64937 0.48839 0.60268 0.0
C1162 C 0.67098 0.46524 0.59392 0.0
C1163 C 0.6932 0.48594 0.58361 0.0
C1164 C 0.69221 0.50751 0.58191 0.0
H1165 H 0.83288 0.48058 0.57774 0.0
H1166 H 0.79566 0.48041 0.59417 0.0
C1167 C 0.67112 0.50858 0.59064 0.0
C1168 C 0.71701 0.48565 0.57363 0.0
H1169 H 0.75282 0.4607 0.59325 0.0
C1170 C 0.73248 0.50103 0.54681 0.0
C1171 C 0.72577 0.47171 0.59104 0.0
C1172 C 0.71306 0.45674 0.62282 0.0
C1173 C 0.75507 0.50283 0.53729 0.0
C1174 C 0.76294 0.48753 0.55282 0.0
C1175 C 0.74762 0.47232 0.57994 0.0
C1176 C 0.78675 0.4874 0.54225 0.0
C1177 C 0.77074 0.5225 0.51176 0.0
C1178 C 0.79559 0.49087 0.50725 0.0
C1179 C 0.81774 0.49188 0.49804 0.0
C1180 C 0.83198 0.48805 0.52272 0.0
C1181 C 0.82276 0.48335 0.55741 0.0
C1182 C 0.80102 0.48329 0.56692 0.0
H1183 H 0.76714 0.53774 0.51302 0.0
H1184 H 0.7902 0.5298 0.51704 0.0
H1185 H 0.76651 0.51528 0.48472 0.0
H1186 H 0.78533 0.4927 0.4863 0.0
H1187 H 0.82362 0.49541 0.47101 0.0
H1188 H 0.36242 0.81448 0.85695 0.0
H1189 H 0.32561 0.77561 0.87066 0.0
H1190 H 0.28694 0.81313 0.89028 0.0
H1191 H 0.32285 0.85092 0.87745 0.0
H1192 H 0.29376 0.75286 0.92562 0.0
H1193 H 0.23847 0.76484 0.82604 0.0
H1194 H 0.27068 0.78454 0.82809 0.0
H1195 H 0.251 0.78917 0.85678 0.0
C1196 C 0.34616 0.81465 0.8642 0.0
C1197 C 0.34651 0.83703 0.86468 0.0
C1198 C 0.32466 0.79198 0.87208 0.0
C1199 C 0.30214 0.79026 0.88062 0.0
C1200 C 0.30295 0.81269 0.88247 0.0
H1201 H 0.14765 0.67813 0.92502 0.0
H1202 H 0.18626 0.71403 0.91288 0.0
C1203 C 0.3242 0.83503 0.87481 0.0
C1204 C 0.27811 0.76582 0.88786 0.0
H1205 H 0.21718 0.73346 0.8672 0.0
C1206 C 0.27717 0.74872 0.91239 0.0
C1207 C 0.2555 0.75938 0.87165 0.0
C1208 C 0.25391 0.77531 0.84395 0.0
C1209 C 0.25525 0.72682 0.92154 0.0
C1210 C 0.23263 0.7203 0.90512 0.0
C1211 C 0.2337 0.7374 0.88044 0.0
C1212 C 0.20788 0.69672 0.91343 0.0
C1213 C 0.25665 0.7115 0.95035 0.0
C1214 C 0.2052 0.67337 0.91784 0.0
C1215 C 0.18242 0.65223 0.92572 0.0
C1216 C 0.16069 0.65292 0.92917 0.0
C1217 C 0.16332 0.67606 0.92364 0.0
C1218 C 0.18598 0.69712 0.91614 0.0
H1219 H 0.27226 0.72224 0.96788 0.0
H1220 H 0.23998 0.70306 0.9665 0.0
H1221 H 0.25914 0.69707 0.9386 0.0
H1222 H 0.22076 0.67118 0.91485 0.0
H1223 H 0.18194 0.63525 0.92943 0.0
H1224 H 0.59475 0.19077 0.93046 0.0
H1225 H 0.61347 0.23035 0.9572 0.0
H1226 H 0.63007 0.20182 1.04873 0.0
H1227 H 0.61274 0.1626 1.02129 0.0
H1228 H 0.58738 0.22962 1.00912 0.0
H1229 H 0.67864 0.27067 1.06138 0.0
H1230 H 0.66993 0.25169 1.02288 0.0
H1231 H 0.66622 0.23887 1.0662 0.0
C1232 C 0.60364 0.19317 0.95544 0.0
C1233 C 0.60149 0.17334 0.97446 0.0
C1234 C 0.61442 0.21596 0.97065 0.0
C1235 C 0.62287 0.2191 1.00513 0.0
C1236 C 0.62393 0.2001 1.02193 0.0
H1237 H 0.5682 0.18349 0.15972 0.0
H1238 H 0.57155 0.20495 0.10673 0.0
C1239 C 0.61345 0.17741 1.00657 0.0
C1240 C 0.62271 0.2379 1.02727 0.0
H1241 H 0.64559 0.26068 0.10704 0.0
C1242 C 0.60065 0.2376 1.02985 0.0
C1243 C 0.64019 0.2495 1.05356 0.0
C1244 C 0.66516 0.25289 1.05048 0.0
C1245 C 0.59358 0.24319 1.06151 0.0
C1246 C 0.60899 0.24904 0.09074 0.0
C1247 C 0.63314 0.25513 0.08521 0.0
C1248 C 0.59902 0.23996 0.1261 0.0
C1249 C 0.56841 0.23931 1.06459 0.0
C1250 C 0.61198 0.2525 0.15599 0.0
C1251 C 0.61051 0.23984 0.18657 0.0
C1252 C 0.59572 0.21465 0.18761 0.0
C1253 C 0.57985 0.2029 0.15978 0.0
C1254 C 0.58155 0.21541 0.12925 0.0
H1255 H 0.56467 0.24796 1.04214 0.0
H1256 H 0.55509 0.21972 1.06319 0.0
H1257 H 0.56574 0.24669 0.08941 0.0
H1258 H 0.62537 0.27147 0.15433 0.0
H1259 H 0.62245 0.24939 0.20816 0.0
H1260 H 0.43416 0.61096 0.29857 0.0
H1261 H 0.42872 0.62598 0.35369 0.0
H1262 H 0.37093 0.63347 0.30952 0.0
H1263 H 0.37617 0.61813 0.25369 0.0
H1264 H 0.41404 0.65335 0.39549 0.0
H1265 H 0.33981 0.56334 0.35251 0.0
H1266 H 0.36761 0.57981 0.32866 0.0
H1267 H 0.34521 0.58885 0.32631 0.0
C1268 C 0.42132 0.61725 0.29965 0.0
C1269 C 0.40435 0.61185 0.27285 0.0
C1270 C 0.4183 0.62602 0.33136 0.0
C1271 C 0.39839 0.62925 0.33591 0.0
C1272 C 0.38582 0.63014 0.3065 0.0
H1273 H 0.37411 0.60847 0.55492 0.0
H1274 H 0.35615 0.61206 0.50046 0.0
C1275 C 0.3887 0.62119 0.27473 0.0
C1276 C 0.38603 0.62204 0.36994 0.0
H1277 H 0.34295 0.57156 0.4118 0.0
C1278 C 0.3979 0.63594 0.39923 0.0
C1279 C 0.36565 0.59864 0.37435 0.0
C1280 C 0.35385 0.58164 0.34393 0.0
C1281 C 0.39089 0.62654 0.43302 0.0
C1282 C 0.37058 0.60308 0.4374 0.0
C1283 C 0.35779 0.58982 0.40816 0.0
C1284 C 0.36669 0.59016 0.47072 0.0
C1285 C 0.40699 0.64066 0.46327 0.0
C1286 C 0.37473 0.57347 0.47272 0.0
C1287 C 0.38477 0.57124 0.50371 0.0
C1288 C 0.38679 0.58585 0.53229 0.0
C1289 C 0.37345 0.59779 0.53254 0.0
C1290 C 0.36314 0.59979 0.50155 0.0
H1291 H 0.42341 0.65738 0.45458 0.0
H1292 H 0.39694 0.64582 0.48164 0.0
H1293 H 0.41285 0.62945 0.47777 0.0
H1294 H 0.37701 0.56534 0.44922 0.0
H1295 H 0.3944 0.56135 0.50321 0.0
H1296 H 0.84148 0.39407 0.78257 0.0
H1297 H 0.80447 0.37038 0.75014 0.0
H1298 H 0.76271 0.36586 0.84159 0.0
H1299 H 0.80001 0.3904 0.87396 0.0
H1300 H 0.7565 0.33452 0.74479 0.0
H1301 H 0.75763 0.39778 0.81837 0.0
H1302 H 0.76415 0.42133 0.78722 0.0
H1303 H 0.78742 0.415 0.79984 0.0
C1304 C 0.8244 0.38712 0.79616 0.0
C1305 C 0.8234 0.39517 0.82977 0.0
C1306 C 0.80315 0.37329 0.77781 0.0
C1307 C 0.78092 0.36772 0.79302 0.0
C1308 C 0.77978 0.37092 0.8291 0.0
H1309 H 0.76022 0.37832 0.58394 0.0
H1310 H 0.73549 0.37158 0.63633 0.0
C1311 C 0.80115 0.38494 0.84753 0.0
C1312 C 0.7626 0.36719 0.76907 0.0
H1313 H 0.75858 0.41219 0.72777 0.0
C1314 C 0.75553 0.35081 0.74135 0.0
C1315 C 0.76096 0.38836 0.76517 0.0
C1316 C 0.76784 0.40665 0.79418 0.0
C1317 C 0.75295 0.35775 0.70758 0.0
C1318 C 0.75558 0.38092 0.70253 0.0
C1319 C 0.75687 0.39464 0.73179 0.0
C1320 C 0.76594 0.39406 0.66943 0.0
C1321 C 0.75191 0.34208 0.67733 0.0
C1322 C 0.79051 0.41186 0.66977 0.0
C1323 C 0.80447 0.41618 0.63985 0.0
C1324 C 0.79393 0.40254 0.60968 0.0
C1325 C 0.76869 0.38849 0.60745 0.0
C1326 C 0.7546 0.3846 0.63731 0.0
H1327 H 0.75024 0.32479 0.68616 0.0
H1328 H 0.7362 0.33781 0.66046 0.0
H1329 H 0.76858 0.35173 0.66129 0.0
H1330 H 0.79965 0.41982 0.69418 0.0
H1331 H 0.82389 0.42742 0.64198 0.0
H1332 H 0.40509 0.81025 0.9336 0.0
H1333 H 0.38496 0.77179 0.96421 0.0
H1334 H 0.38071 0.80777 1.05717 0.0
H1335 H 0.4003 0.84608 1.02647 0.0
H1336 H 0.41574 0.77458 1.01384 0.0
H1337 H 0.32801 0.74035 0.07776 0.0
H1338 H 0.33497 0.75617 1.03624 0.0
H1339 H 0.34249 0.77254 0.07705 0.0
C1340 C 0.39861 0.80975 0.95997 0.0
C1341 C 0.40493 0.83115 0.97827 0.0
C1342 C 0.38696 0.78766 0.97732 0.0
C1343 C 0.38162 0.78689 1.01301 0.0
C1344 C 0.38444 0.80778 1.0295 0.0
H1345 H 0.43881 0.82793 0.15966 0.0
H1346 H 0.43665 0.80414 0.1095 0.0
C1347 C 0.3961 0.82984 1.0122 0.0
C1348 C 0.38188 0.76834 1.03552 0.0
H1349 H 0.36295 0.7499 0.1183 0.0
C1350 C 0.40361 0.7679 1.03616 0.0
C1351 C 0.36581 0.75862 1.06394 0.0
C1352 C 0.3414 0.75674 1.06342 0.0
C1353 C 0.41216 0.76368 1.06754 0.0
C1354 C 0.39834 0.75952 0.09826 0.0
C1355 C 0.37417 0.754 0.09515 0.0
C1356 C 0.41014 0.76979 0.13223 0.0
C1357 C 0.43726 0.76726 1.06842 0.0
C1358 C 0.39819 0.75837 0.16336 0.0
C1359 C 0.39888 0.77227 0.1919 0.0
C1360 C 0.41215 0.79753 0.18966 0.0
C1361 C 0.42816 0.80846 0.16169 0.0
C1362 C 0.42713 0.79464 0.13297 0.0
H1363 H 0.43994 0.75793 1.04585 0.0
H1364 H 0.45066 0.78675 1.06563 0.0
H1365 H 0.4408 0.76042 0.09311 0.0
H1366 H 0.38534 0.73921 0.16362 0.0
H1367 H 0.38687 0.7635 0.21382 0.0
H1368 H 0.59314 0.35103 0.277 0.0
H1369 H 0.59754 0.34387 0.33854 0.0
H1370 H 0.55929 0.38058 0.36812 0.0
H1371 H 0.55535 0.38826 0.30761 0.0
H1372 H 0.62661 0.39312 0.36008 0.0
H1373 H 0.55277 0.34162 0.45518 0.0
H1374 H 0.54973 0.33394 0.40916 0.0
H1375 H 0.54605 0.35849 0.42435 0.0
C1376 C 0.58455 0.35641 0.29662 0.0
C1377 C 0.57551 0.37169 0.28785 0.0
C1378 C 0.58687 0.35209 0.33172 0.0
C1379 C 0.57961 0.36257 0.35761 0.0
C1380 C 0.56526 0.37254 0.34845 0.0
H1381 H 0.60165 0.44739 0.4935 0.0
H1382 H 0.62699 0.44451 0.44862 0.0
C1383 C 0.56313 0.37705 0.31347 0.0
C1384 C 0.59391 0.37143 0.38974 0.0
H1385 H 0.58771 0.37758 0.47625 0.0
C1386 C 0.61844 0.3891 0.38591 0.0
C1387 C 0.58292 0.36677 0.42285 0.0
C1388 C 0.55642 0.34903 0.42814 0.0
C1389 C 0.63183 0.4034 0.41422 0.0
C1390 C 0.62058 0.39928 0.44707 0.0
C1391 C 0.59656 0.38043 0.45119 0.0
C1392 C 0.63067 0.41689 0.4758 0.0
C1393 C 0.65718 0.42386 0.40852 0.0
C1394 C 0.62991 0.40705 0.50893 0.0
C1395 C 0.61468 0.40793 0.53423 0.0
C1396 C 0.60261 0.42058 0.5269 0.0
C1397 C 0.61019 0.43677 0.49875 0.0
C1398 C 0.62516 0.43548 0.47339 0.0
H1399 H 0.66493 0.42187 0.38356 0.0
H1400 H 0.65705 0.4411 0.40759 0.0
H1401 H 0.66896 0.42496 0.43058 0.0
H1402 H 0.63547 0.39373 0.51193 0.0
H1403 H 0.60962 0.39603 0.55671 0.0
H1404 H 0.18845 0.57786 0.86262 0.0
H1405 H 0.22787 0.59981 0.83436 0.0
H1406 H 0.19531 0.61609 0.74733 0.0
H1407 H 0.15632 0.59502 0.77601 0.0
H1408 H 0.23152 0.57933 0.77761 0.0
H1409 H 0.26207 0.67134 0.73677 0.0
H1410 H 0.24633 0.65963 0.77793 0.0
H1411 H 0.2299 0.65718 0.73823 0.0
C1412 C 0.18998 0.58702 0.83808 0.0
C1413 C 0.16934 0.5843 0.82085 0.0
C1414 C 0.21257 0.59973 0.82219 0.0
C1415 C 0.21474 0.60978 0.78888 0.0
C1416 C 0.19441 0.60905 0.77341 0.0
H1417 H 0.15899 0.56266 0.66548 0.0
H1418 H 0.19184 0.56666 0.70146 0.0
C1419 C 0.1719 0.59642 0.78931 0.0
C1420 C 0.23492 0.61389 0.76571 0.0
H1421 H 0.24754 0.64 0.68588 0.0
C1422 C 0.23641 0.59324 0.75792 0.0
C1423 C 0.24349 0.63262 0.74078 0.0
C1424 C 0.24562 0.65655 0.74924 0.0
C1425 C 0.23797 0.58758 0.72298 0.0
C1426 C 0.23818 0.60315 0.69664 0.0
C1427 C 0.24541 0.62708 0.70591 0.0
C1428 C 0.22041 0.59309 0.66781 0.0
C1429 C 0.23418 0.563 0.71438 0.0
C1430 C 0.22511 0.60556 0.63587 0.0
C1431 C 0.20601 0.60363 0.61578 0.0
C1432 C 0.18222 0.58893 0.6273 0.0
C1433 C 0.17737 0.57416 0.65654 0.0
C1434 C 0.19633 0.57617 0.6767 0.0
H1435 H 0.24669 0.55953 0.73014 0.0
H1436 H 0.21555 0.54897 0.72171 0.0
H1437 H 0.23712 0.56126 0.68612 0.0
H1438 H 0.24341 0.61873 0.62853 0.0
H1439 H 0.20984 0.61497 0.59289 0.0
H1440 H 0.46465 0.96153 0.92025 0.0
H1441 H 0.47316 0.98288 0.97572 0.0
H1442 H 0.39712 0.95031 0.99522 0.0
H1443 H 0.38858 0.92874 0.93883 0.0
H1444 H 0.47544 0.98265 1.03899 0.0
H1445 H 0.40483 0.00759 1.03837 0.0
H1446 H 0.39259 0.97564 1.03534 0.0
H1447 H 0.41093 0.99502 1.00019 0.0
C1448 C 0.44925 0.95868 0.93568 0.0
C1449 C 0.42556 0.94269 0.92208 0.0
C1450 C 0.45439 0.97137 0.96887 0.0
C1451 C 0.43642 0.9699 0.99261 0.0
C1452 C 0.41244 0.9537 0.97927 0.0
H1453 H 0.47087 0.07936 0.17718 0.0
H1454 H 0.45692 0.0551 0.12312 0.0
C1455 C 0.40724 0.9407 0.94576 0.0
C1456 C 0.4433 0.98461 1.02992 0.0
H1457 H 0.42704 0.01539 0.09064 0.0
C1458 C 0.4644 0.98956 1.04957 0.0
C1459 C 0.43041 0.99514 1.04664 0.0
C1460 C 0.40858 0.99337 1.02904 0.0
C1461 C 0.4722 0.00316 0.08247 0.0
C1462 C 0.45889 0.01301 0.0998 0.0
C1463 C 0.43799 0.00841 0.07994 0.0
C1464 C 0.46644 0.02808 0.13678 0.0
C1465 C 0.49584 0.00762 0.09747 0.0
C1466 C 0.47641 0.0224 0.16656 0.0
C1467 C 0.48403 0.03643 0.19887 0.0
C1468 C 0.4819 0.0573 0.20574 0.0
C1469 C 0.47203 0.06311 0.176 0.0
C1470 C 0.46415 0.04892 0.14366 0.0
H1471 H 0.50769 0.00691 0.07682 0.0
H1472 H 0.50572 0.02546 0.11045 0.0
H1473 H 0.49233 0.99336 0.11693 0.0
H1474 H 0.47859 0.00676 0.16519 0.0
H1475 H 0.49228 0.03092 0.21881 0.0
H1476 H 0.48973 0.46225 0.25042 0.0
H1477 H 0.47479 0.47141 0.3044 0.0
H1478 H 0.47121 0.40952 0.35384 0.0
H1479 H 0.48553 0.40029 0.29974 0.0
H1480 H 0.48064 0.48626 0.36421 0.0
H1481 H 0.41464 0.39443 0.4051 0.0
H1482 H 0.44384 0.39745 0.40026 0.0
H1483 H 0.42854 0.40044 0.36251 0.0
C1484 C 0.48495 0.4498 0.27213 0.0
C1485 C 0.48797 0.42923 0.26762 0.0
C1486 C 0.47639 0.45539 0.30441 0.0
C1487 C 0.47016 0.4412 0.33597 0.0
C1488 C 0.47401 0.42105 0.33162 0.0
H1489 H 0.39021 0.4663 0.52632 0.0
H1490 H 0.39997 0.452 0.47182 0.0
C1491 C 0.48265 0.41554 0.29941 0.0
C1492 C 0.46108 0.44798 0.3723 0.0
H1493 H 0.42503 0.42466 0.44804 0.0
C1494 C 0.46887 0.47236 0.3823 0.0
C1495 C 0.44428 0.43106 0.39782 0.0
C1496 C 0.43208 0.4044 0.39086 0.0
C1497 C 0.46222 0.47981 0.41482 0.0
C1498 C 0.44618 0.46298 0.44075 0.0
C1499 C 0.43748 0.43853 0.43029 0.0
C1500 C 0.43889 0.47052 0.47774 0.0
C1501 C 0.47243 0.50638 0.4208 0.0
C1502 C 0.4563 0.48571 0.503 0.0
C1503 C 0.45036 0.49292 0.53593 0.0
C1504 C 0.4264 0.48623 0.5475 0.0
C1505 C 0.40879 0.47137 0.52187 0.0
C1506 C 0.41471 0.46338 0.48909 0.0
H1507 H 0.4791 0.51688 0.39611 0.0
H1508 H 0.45869 0.50997 0.4326 0.0
H1509 H 0.48782 0.51297 0.43924 0.0
H1510 H 0.47514 0.49218 0.49749 0.0
H1511 H 0.46533 0.50451 0.55272 0.0
H1512 H 0.05999 0.51789 0.60905 0.0
H1513 H 0.03835 0.50463 0.66414 0.0
H1514 H 0.03285 0.43566 0.65211 0.0
H1515 H 0.05522 0.44918 0.59614 0.0
H1516 H 0.03717 0.49558 0.72592 0.0
H1517 H 0.96778 0.40392 0.68847 0.0
H1518 H 0.99766 0.40847 0.68395 0.0
H1519 H 0.98815 0.42515 0.65666 0.0
C1520 C 0.05451 0.49973 0.61749 0.0
C1521 C 0.06047 0.48532 0.59554 0.0
C1522 C 0.04151 0.49189 0.65036 0.0
C1523 C 0.03216 0.46842 0.66509 0.0
C1524 C 0.03829 0.45372 0.64342 0.0
H1525 H 0.91503 0.40574 0.84209 0.0
H1526 H 0.93884 0.41547 0.78771 0.0
C1527 C 0.05188 0.46179 0.61033 0.0
C1528 C 0.01704 0.46063 0.70203 0.0
H1529 H 0.96868 0.41376 0.74815 0.0
C1530 C 0.02226 0.47746 0.73 0.0
C1531 C 0.9965 0.43732 0.71043 0.0
C1532 C 0.98691 0.41768 0.68331 0.0
C1533 C 0.00909 0.47221 0.76329 0.0
C1534 C 0.98913 0.4486 0.77234 0.0
C1535 C 0.98363 0.43185 0.74409 0.0
C1536 C 0.97373 0.44128 0.8091 0.0
C1537 C 0.01659 0.49309 0.78796 0.0
C1538 C 0.9835 0.45099 0.84308 0.0
C1539 C 0.96934 0.44507 0.87533 0.0
C1540 C 0.94404 0.42801 0.8776 0.0
C1541 C 0.93426 0.41807 0.84387 0.0
C1542 C 0.94838 0.42407 0.81153 0.0
H1543 H 0.02608 0.51063 0.77398 0.0
H1544 H 0.00079 0.49196 0.80173 0.0
H1545 H 0.02935 0.49306 0.80755 0.0
H1546 H 0.00258 0.46355 0.84533 0.0
H1547 H 0.97851 0.45448 0.89898 0.0
H1548 H 0.51109 0.91125 0.17541 0.0
H1549 H 0.52397 0.93394 0.11974 0.0
H1550 H 0.53686 0.99786 0.17417 0.0
H1551 H 0.52525 0.97555 0.22905 0.0
H1552 H 0.51717 0.95368 0.06989 0.0
H1553 H 0.58784 0.04175 0.11895 0.0
H1554 H 0.57599 0.01533 0.14616 0.0
H1555 H 0.55957 0.03132 0.14065 0.0
C1556 C 0.51771 0.93044 0.17633 0.0
C1557 C 0.51804 0.9409 0.20974 0.0
C1558 C 0.52499 0.94393 0.14311 0.0
C1559 C 0.53303 0.96929 0.13939 0.0
C1560 C 0.53263 0.97936 0.17291 0.0
H1561 H 0.57992 0.08228 0.9546 0.0
H1562 H 0.56973 0.06045 1.01092 0.0
C1563 C 0.52549 0.96596 0.20588 0.0
C1564 C 0.54046 0.98415 0.10178 0.0
H1565 H 0.57591 0.04081 1.06114 0.0
C1566 C 0.5303 0.97275 0.06889 0.0
C1567 C 0.55743 0.00971 0.09658 0.0
C1568 C 0.57103 0.02529 0.12729 0.0
C1569 C 0.53556 0.9848 1.03451 0.0
C1570 C 0.55287 0.01025 1.02922 0.0
C1571 C 0.56291 0.02171 1.06212 0.0
C1572 C 0.56041 0.02498 0.99151 0.0
C1573 C 0.52101 0.96952 1.00411 0.0
C1574 C 0.56002 0.0146 0.95787 0.0
C1575 C 0.56576 0.02754 0.9245 0.0
C1576 C 0.57412 0.05279 0.92073 0.0
C1577 C 0.57493 0.06346 0.95416 0.0
C1578 C 0.56864 0.05035 0.98765 0.0
H1579 H 0.50383 0.95366 1.01292 0.0
H1580 H 0.51651 0.98001 0.98556 0.0
H1581 H 0.5315 0.96256 0.99026 0.0
H1582 H 0.5553 0.99594 0.95665 0.0
H1583 H 0.5636 0.0173 0.90092 0.0
H1584 H 0.60907 0.54096 0.53575 0.0
H1585 H 0.60012 0.55426 0.4793 0.0
H1586 H 0.5248 0.50362 0.49337 0.0
H1587 H 0.53349 0.49066 0.54845 0.0
H1588 H 0.5774 0.57588 0.44693 0.0
H1589 H 0.52237 0.48401 0.39616 0.0
H1590 H 0.5109 0.48731 0.4373 0.0
H1591 H 0.54026 0.49002 0.43519 0.0
C1592 C 0.59049 0.53239 0.52724 0.0
C1593 C 0.57237 0.51394 0.54911 0.0
C1594 C 0.58513 0.54021 0.49379 0.0
C1595 C 0.56131 0.53001 0.47868 0.0
C1596 C 0.54352 0.51204 0.50109 0.0
H1597 H 0.51084 0.53643 0.25124 0.0
H1598 H 0.52553 0.52774 0.30562 0.0
C1599 C 0.54876 0.50453 0.53416 0.0
C1600 C 0.55467 0.53758 0.44113 0.0
H1601 H 0.51982 0.51447 0.36511 0.0
C1602 C 0.56451 0.56203 0.42965 0.0
C1603 C 0.53829 0.52079 0.41545 0.0
C1604 C 0.52751 0.49408 0.42128 0.0
C1605 C 0.55839 0.56957 0.39665 0.0
C1606 C 0.54098 0.55276 0.37179 0.0
C1607 C 0.53206 0.52834 0.38274 0.0
C1608 C 0.53245 0.55953 0.33501 0.0
C1609 C 0.57202 0.5961 0.38831 0.0
C1610 C 0.53015 0.58051 0.32917 0.0
C1611 C 0.52173 0.58579 0.29655 0.0
C1612 C 0.51516 0.57097 0.26585 0.0
C1613 C 0.51671 0.5497 0.27195 0.0
C1614 C 0.52508 0.54437 0.30451 0.0
H1615 H 0.58958 0.60544 0.40224 0.0
H1616 H 0.57558 0.59929 0.3598 0.0
H1617 H 0.56126 0.60434 0.39707 0.0
H1618 H 0.53396 0.5929 0.35055 0.0
H1619 H 0.51987 0.60166 0.29577 0.0
H1620 H 0.08226 0.57555 0.84195 0.0
H1621 H 0.0593 0.56655 0.78762 0.0
H1622 H 0.99909 0.56054 0.84632 0.0
H1623 H 0.02273 0.57096 0.89911 0.0
H1624 H 0.03545 0.54928 0.74242 0.0
H1625 H 0.95915 0.56147 0.78204 0.0
H1626 H 0.98734 0.57732 0.80469 0.0
H1627 H 0.96694 0.54532 0.81242 0.0
C1628 C 0.06444 0.57349 0.8434 0.0
C1629 C 0.05598 0.57605 0.87706 0.0
C1630 C 0.05037 0.56758 0.811 0.0
C1631 C 0.0258 0.56269 0.80842 0.0
C1632 C 0.01737 0.5647 0.84274 0.0
H1633 H 0.90897 0.50737 0.62809 0.0
H1634 H 0.93187 0.5203 0.68336 0.0
C1635 C 0.03157 0.57095 0.87494 0.0
C1636 C 0.01007 0.55508 0.77144 0.0
H1637 H 0.95731 0.54579 0.72807 0.0
C1638 C 0.01845 0.54888 0.74047 0.0
C1639 C 0.9869 0.55352 0.76449 0.0
C1640 C 0.97447 0.55985 0.79243 0.0
C1641 C 0.00591 0.54156 0.70665 0.0
C1642 C 0.98293 0.54012 0.69966 0.0
C1643 C 0.97438 0.54627 0.73049 0.0
C1644 C 0.96775 0.53233 0.66246 0.0
C1645 C 0.01799 0.53465 0.679 0.0
C1646 C 0.97808 0.53426 0.62826 0.0
C1647 C 0.96439 0.52609 0.59583 0.0
C1648 C 0.93894 0.51665 0.593 0.0
C1649 C 0.92834 0.51515 0.62672 0.0
C1650 C 0.94203 0.5227 0.6596 0.0
H1651 H 0.03169 0.53103 0.69064 0.0
H1652 H 0.00468 0.51832 0.66463 0.0
H1653 H 0.02775 0.54992 0.66055 0.0
H1654 H 0.9973 0.54249 0.62548 0.0
H1655 H 0.97425 0.52749 0.57207 0.0
H1656 H 0.54094 0.07737 0.37541 0.0
H1657 H 0.54574 0.06596 0.43289 0.0
H1658 H 0.47638 0.00093 0.42456 0.0
H1659 H 0.46923 0.0155 0.36944 0.0
H1660 H 0.48295 0.00536 0.4876 0.0
H1661 H 0.57789 0.03333 0.44895 0.0
H1662 H 0.571 0.05651 0.45854 0.0
H1663 H 0.56062 0.03906 0.41846 0.0
C1664 C 0.52665 0.06043 0.3854 0.0
C1665 C 0.50482 0.04701 0.36714 0.0
C1666 C 0.52966 0.05376 0.41867 0.0
C1667 C 0.5125 0.03165 0.43279 0.0
C1668 C 0.49051 0.01796 0.41447 0.0
H1669 H 0.47577 0.95569 0.37351 0.0
H1670 H 0.47794 0.96575 0.43488 0.0
C1671 C 0.48649 0.02588 0.38235 0.0
C1672 C 0.51842 0.021 0.46328 0.0
H1673 H 0.55555 0.99838 0.47989 0.0
C1674 C 0.49906 0.00405 0.48419 0.0
C1675 C 0.54062 0.02064 0.46521 0.0
C1676 C 0.56373 0.03837 0.44687 0.0
C1677 C 0.49892 0.9829 0.49449 0.0
C1678 C 0.51705 0.97918 0.4802 0.0
C1679 C 0.53965 0.00015 0.48023 0.0
C1680 C 0.51208 0.96695 0.44504 0.0
C1681 C 0.4775 0.96285 0.51271 0.0
C1682 C 0.53017 0.96401 0.42879 0.0
C1683 C 0.52938 0.95946 0.39303 0.0
C1684 C 0.50962 0.95594 0.37257 0.0
C1685 C 0.49146 0.95876 0.38836 0.0
C1686 C 0.49251 0.96391 0.42409 0.0
H1687 H 0.46841 0.97003 0.52956 0.0
H1688 H 0.46435 0.9507 0.49303 0.0
H1689 H 0.48318 0.95214 0.52885 0.0
H1690 H 0.54556 0.96616 0.44348 0.0
H1691 H 0.54371 0.95725 0.38205 0.0
H1692 H 0.41847 0.46683 0.74411 0.0
H1693 H 0.43742 0.47969 0.80147 0.0
H1694 H 0.50328 0.53297 0.75074 0.0
H1695 H 0.48409 0.52079 0.6945 0.0
H1696 H 0.46867 0.48042 0.83759 0.0
H1697 H 0.49174 0.56358 0.83125 0.0
H1698 H 0.4964 0.56188 0.78489 0.0
H1699 H 0.52171 0.57846 0.81352 0.0
C1700 C 0.4372 0.48096 0.74533 0.0
C1701 C 0.44966 0.49343 0.7149 0.0
C1702 C 0.44783 0.48871 0.7783 0.0
C1703 C 0.47128 0.50862 0.78123 0.0
C1704 C 0.48455 0.51887 0.75018 0.0
H1705 H 0.51809 0.48133 0.71311 0.0
H1706 H 0.50402 0.48284 0.77141 0.0
C1707 C 0.47386 0.51139 0.71756 0.0
C1708 C 0.48353 0.51624 0.81587 0.0
H1709 H 0.54233 0.5569 0.80915 0.0
C1710 C 0.4848 0.49772 0.8337 0.0
C1711 C 0.50431 0.53943 0.81803 0.0
C1712 C 0.50355 0.56213 0.8114 0.0
C1713 C 0.5073 0.49906 0.83591 0.0
C1714 C 0.52701 0.51881 0.81948 0.0
C1715 C 0.52655 0.54041 0.81777 0.0
C1716 C 0.53765 0.51421 0.78824 0.0
C1717 C 0.50888 0.47747 0.8471 0.0
C1718 C 0.5608 0.53156 0.77741 0.0
C1719 C 0.56825 0.53138 0.74336 0.0
C1720 C 0.55306 0.5132 0.71969 0.0
C1721 C 0.53005 0.49559 0.73058 0.0
C1722 C 0.52239 0.49606 0.7645 0.0
H1723 H 0.50548 0.47472 0.87566 0.0
H1724 H 0.49494 0.461 0.83362 0.0
H1725 H 0.52705 0.48012 0.8416 0.0
H1726 H 0.57269 0.5459 0.79484 0.0
H1727 H 0.58631 0.54517 0.73611 0.0
H1728 H 0.97966 0.42786 1.02266 0.0
H1729 H 0.99411 0.43285 0.08287 0.0
H1730 H 0.96432 0.47949 0.10237 0.0
H1731 H 0.9513 0.47499 1.04357 0.0
H1732 H 0.02332 0.45714 0.12394 0.0
H1733 H 0.97384 0.47473 0.20109 0.0
H1734 H 0.95474 0.45715 0.16559 0.0
H1735 H 0.96343 0.48862 0.17019 0.0
C1736 C 0.9762 0.43903 1.0402 0.0
C1737 C 0.96314 0.44998 1.02871 0.0
C1738 C 0.98422 0.44168 0.075 0.0
C1739 C 0.98036 0.45631 0.09885 0.0
C1740 C 0.96771 0.46763 0.08632 0.0
H1741 H 0.02279 0.5103 0.9961 0.0
H1742 H 0.01795 0.49081 1.05216 0.0
C1743 C 0.96024 0.46529 1.05179 0.0
C1744 C 0.99434 0.46459 0.1328 0.0
H1745 H 0.00131 0.51951 0.1451 0.0
C1746 C 0.01861 0.47096 0.12847 0.0
C1747 C 0.99178 0.48221 0.15161 0.0
C1748 C 0.96956 0.47528 0.17307 0.0
C1749 C 0.03456 0.49473 0.11757 0.0
C1750 C 0.02557 0.51097 0.11705 0.0
C1751 C 0.00682 0.50626 0.14068 0.0
C1752 C 0.02552 0.5223 0.08325 0.0
C1753 C 0.05804 0.50064 0.10039 0.0
C1754 C 0.02805 0.54525 0.08162 0.0
C1755 C 0.03079 0.55631 1.04908 0.0
C1756 C 0.03089 0.54451 1.01822 0.0
C1757 C 0.02347 0.52001 1.01967 0.0
C1758 C 0.0214 0.50914 1.05194 0.0
H1759 H 0.07104 0.50231 0.12089 0.0
H1760 H 0.05536 0.48576 0.0827 0.0
H1761 H 0.06596 0.51773 0.08534 0.0
H1762 H 0.02995 0.5553 0.10531 0.0
H1763 H 0.0366 0.57516 1.04855 0.0
H1764 H 0.03119 0.44643 0.41823 0.0
H1765 H 0.01814 0.44203 0.35842 0.0
H1766 H 0.03079 0.51515 0.36066 0.0
H1767 H 0.04439 0.51953 0.42 0.0
H1768 H 0.98318 0.43454 0.32777 0.0
H1769 H 0.02407 0.51625 0.26141 0.0
H1770 H 0.04206 0.5037 0.27739 0.0
H1771 H 0.04051 0.52727 0.30134 0.0
C1772 C 0.03098 0.46161 0.40613 0.0
C1773 C 0.03882 0.4835 0.42429 0.0
C1774 C 0.02391 0.45912 0.37129 0.0
C1775 C 0.02311 0.47792 0.35378 0.0
C1776 C 0.03093 0.49986 0.37226 0.0
H1777 H 0.96734 0.48119 0.4619 0.0
H1778 H 0.97693 0.46809 0.40766 0.0
C1779 C 0.03824 0.5024 0.4071 0.0
C1780 C 0.00863 0.47246 0.32066 0.0
H1781 H 0.99649 0.51655 0.32008 0.0
C1782 C 0.98543 0.45237 0.32492 0.0
C1783 C 0.00852 0.49227 0.30511 0.0
C1784 C 0.03013 0.51084 0.28521 0.0
C1785 C 0.96762 0.45673 0.33866 0.0
C1786 C 0.97334 0.48113 0.34125 0.0
C1787 C 0.99179 0.498 0.31935 0.0
C1788 C 0.96856 0.49034 0.37405 0.0
C1789 C 0.94539 0.43617 0.35496 0.0
C1790 C 0.96405 0.50963 0.37385 0.0
C1791 C 0.9598 0.51802 0.4053 0.0
C1792 C 0.95936 0.50674 0.43717 0.0
C1793 C 0.96684 0.48964 0.43762 0.0
C1794 C 0.97157 0.48165 0.40641 0.0
H1795 H 0.93336 0.42445 0.33383 0.0
H1796 H 0.95032 0.42495 0.37131 0.0
H1797 H 0.93528 0.44237 0.37133 0.0
H1798 H 0.96267 0.5174 0.34939 0.0
H1799 H 0.95437 0.53151 0.40411 0.0
H1800 H 0.47875 0.95426 0.75611 0.0
H1801 H 0.49222 0.96242 0.69728 0.0
H1802 H 0.43132 0.97112 0.67008 0.0
H1803 H 0.41656 0.96034 0.72959 0.0
H1804 H 0.48855 0.95496 0.62785 0.0
H1805 H 0.46969 0.02458 0.61094 0.0
H1806 H 0.45561 0.01375 0.65272 0.0
H1807 H 0.44607 0.99341 0.61555 0.0
C1808 C 0.46828 0.95808 0.7378 0.0
C1809 C 0.44659 0.95644 0.74781 0.0
C1810 C 0.4758 0.96254 0.70319 0.0
C1811 C 0.46288 0.96754 0.67759 0.0
C1812 C 0.4417 0.96716 0.68831 0.0
H1813 H 0.58259 0.04098 0.73793 0.0
H1814 H 0.56582 0.02741 0.68075 0.0
C1815 C 0.43359 0.96161 0.7229 0.0
C1816 C 0.47406 0.97759 0.64244 0.0
H1817 H 0.50596 0.03694 0.65637 0.0
C1818 C 0.49282 0.97329 0.63312 0.0
C1819 C 0.48013 0.00179 0.63778 0.0
C1820 C 0.46168 0.00866 0.62861 0.0
C1821 C 0.51624 0.99032 0.64464 0.0
C1822 C 0.51937 0.01199 0.65971 0.0
C1823 C 0.50294 0.01932 0.64949 0.0
C1824 C 0.53004 0.01952 0.69516 0.0
C1825 C 0.53523 0.98314 0.6469 0.0
C1826 C 0.5154 0.0189 0.72337 0.0
C1827 C 0.52498 0.0262 0.75689 0.0
C1828 C 0.54942 0.03442 0.76292 0.0
C1829 C 0.56356 0.03372 0.73514 0.0
C1830 C 0.55405 0.02648 0.70169 0.0
H1831 H 0.53038 0.9668 0.63106 0.0
H1832 H 0.55269 0.99811 0.63728 0.0
H1833 H 0.5375 0.97929 0.67454 0.0
H1834 H 0.49656 0.01324 0.71943 0.0
H1835 H 0.51362 0.02663 0.77753 0.0
H1836 H 0.54749 0.56444 0.11526 0.0
H1837 H 0.55372 0.56041 1.05373 0.0
H1838 H 0.47633 0.51514 1.04098 0.0
H1839 H 0.47065 0.52072 0.10107 0.0
H1840 H 0.55807 0.54863 0.9983 0.0
H1841 H 0.47796 0.50874 0.9426 0.0
H1842 H 0.48364 0.53381 0.97032 0.0
H1843 H 0.46203 0.503 0.98311 0.0
C1844 C 0.53185 0.55422 0.09889 0.0
C1845 C 0.5085 0.54474 0.11254 0.0
C1846 C 0.53535 0.55182 1.06323 0.0
C1847 C 0.51557 0.53831 1.04061 0.0
C1848 C 0.49234 0.52664 1.05588 0.0
H1849 H 0.46642 0.43887 0.09897 0.0
H1850 H 0.47478 0.45148 1.03885 0.0
C1851 C 0.48897 0.52943 0.09116 0.0
C1852 C 0.51932 0.5327 1.00341 0.0
H1853 H 0.47977 0.47388 0.99084 0.0
C1854 C 0.54077 0.53215 0.99841 0.0
C1855 C 0.49937 0.5127 0.98769 0.0
C1856 C 0.47962 0.51487 0.97015 0.0
C1857 C 0.53952 0.50977 1.00295 0.0
C1858 C 0.51652 0.48967 1.01098 0.0
C1859 C 0.49709 0.49006 0.99415 0.0
C1860 C 0.51185 0.47987 1.04773 0.0
C1861 C 0.56204 0.50802 1.00206 0.0
C1862 C 0.52877 0.49212 0.07464 0.0
C1863 C 0.52433 0.48354 0.10892 0.0
C1864 C 0.50254 0.46287 0.11795 0.0
C1865 C 0.4842 0.45313 0.09269 0.0
C1866 C 0.48904 0.46076 1.05779 0.0
H1867 H 0.56103 0.49676 0.97937 0.0
H1868 H 0.5785 0.52601 0.99933 0.0
H1869 H 0.56369 0.49923 1.02597 0.0
H1870 H 0.54574 0.50837 0.0697 0.0
H1871 H 0.53872 0.49214 0.1279 0.0
H1872 H 0.37126 0.91785 0.66797 0.0
H1873 H 0.4007 0.9482 0.62789 0.0
H1874 H 0.36189 0.98714 0.63257 0.0
H1875 H 0.33239 0.95664 0.67242 0.0
H1876 H 0.39741 0.96251 0.56632 0.0
H1877 H 0.42937 0.04026 0.65415 0.0
H1878 H 0.41124 0.00965 0.66971 0.0
H1879 H 0.39713 0.02574 0.65218 0.0
C1880 C 0.36896 0.93275 0.65985 0.0
C1881 C 0.34968 0.93504 0.67268 0.0
C1882 C 0.38589 0.95019 0.63757 0.0
C1883 C 0.38403 0.9704 0.62872 0.0
C1884 C 0.36412 0.97211 0.64034 0.0
H1885 H 0.38002 0.03562 0.46728 0.0
H1886 H 0.38358 0.013 0.516 0.0
C1887 C 0.34702 0.95451 0.6623 0.0
C1888 C 0.40167 0.98888 0.60505 0.0
H1889 H 0.42926 0.04932 0.59071 0.0
C1890 C 0.40513 0.98154 0.57206 0.0
C1891 C 0.4128 0.01373 0.61302 0.0
C1892 C 0.41268 0.02273 0.64943 0.0
C1893 C 0.41623 0.99835 0.54525 0.0
C1894 C 0.42304 0.02261 0.55164 0.0
C1895 C 0.42325 0.03046 0.58584 0.0
C1896 C 0.42191 0.03723 0.52315 0.0
C1897 C 0.41789 0.98966 0.50926 0.0
C1898 C 0.44209 0.05886 0.51261 0.0
C1899 C 0.44008 0.07173 0.48452 0.0
C1900 C 0.41769 0.06327 0.46803 0.0
C1901 C 0.39734 0.04239 0.48002 0.0
C1902 C 0.39946 0.0294 0.50737 0.0
H1903 H 0.42097 0.97409 0.51101 0.0
H1904 H 0.40059 0.98352 0.49528 0.0
H1905 H 0.43266 0.00424 0.49369 0.0
H1906 H 0.45924 0.06538 0.52563 0.0
H1907 H 0.45589 0.08796 0.47536 0.0
H1908 H 0.44059 0.35959 0.99002 0.0
H1909 H 0.45187 0.37993 0.93299 0.0
H1910 H 0.42321 0.42532 0.96524 0.0
H1911 H 0.41253 0.40554 1.02131 0.0
H1912 H 0.41583 0.37123 0.8974 0.0
H1913 H 0.46783 0.47021 0.89746 0.0
H1914 H 0.47165 0.45256 0.93106 0.0
H1915 H 0.44854 0.46076 0.93456 0.0
C1916 C 0.4372 0.37424 0.98472 0.0
C1917 C 0.42499 0.38058 1.00906 0.0
C1918 C 0.44432 0.38634 0.95277 0.0
C1919 C 0.43892 0.40458 0.9449 0.0
C1920 C 0.42855 0.41209 0.97073 0.0
H1921 H 0.34597 0.42828 0.83096 0.0
H1922 H 0.37746 0.42979 0.86973 0.0
C1923 C 0.42165 0.40019 1.00249 0.0
C1924 C 0.43555 0.40939 0.90834 0.0
H1925 H 0.42881 0.45155 0.86333 0.0
C1926 C 0.41955 0.38896 0.88908 0.0
C1927 C 0.44033 0.43248 0.89744 0.0
C1928 C 0.45825 0.45515 0.9162 0.0
C1929 C 0.40493 0.39036 0.86346 0.0
C1930 C 0.40809 0.41319 0.85475 0.0
C1931 C 0.4264 0.4341 0.87055 0.0
C1932 C 0.39124 0.41503 0.83096 0.0
C1933 C 0.38443 0.36711 0.84901 0.0
C1934 C 0.38874 0.40606 0.79704 0.0
C1935 C 0.37022 0.40393 0.77607 0.0
C1936 C 0.35471 0.41199 0.78797 0.0
C1937 C 0.35746 0.42151 0.82173 0.0
C1938 C 0.3757 0.42293 0.84333 0.0
H1939 H 0.38096 0.3512 0.86501 0.0
H1940 H 0.36746 0.3678 0.84789 0.0
H1941 H 0.38898 0.36423 0.82209 0.0
H1942 H 0.40073 0.40008 0.78714 0.0
H1943 H 0.36843 0.39661 0.74996 0.0
H1944 H 0.91814 0.31858 0.15649 0.0
H1945 H 0.93186 0.33085 0.21715 0.0
H1946 H 0.98854 0.39965 0.17964 0.0
H1947 H 0.97661 0.38727 0.12032 0.0
H1948 H 0.98089 0.34313 0.22883 0.0
H1949 H 0.96631 0.417 0.2709 0.0
H1950 H 0.94799 0.3953 0.23808 0.0
H1951 H 0.97647 0.42125 0.22637 0.0
C1952 C 0.93338 0.33635 0.16143 0.0
C1953 C 0.94616 0.35196 0.13364 0.0
C1954 C 0.9408 0.34348 0.19593 0.0
C1955 C 0.96064 0.3664 0.20266 0.0
C1956 C 0.97258 0.38228 0.17505 0.0
H1957 H 0.09195 0.45144 0.30396 0.0
H1958 H 0.05506 0.43391 0.2681 0.0
C1959 C 0.96575 0.37501 0.14098 0.0
C1960 C 0.97341 0.37204 0.23606 0.0
H1961 H 0.00549 0.42071 0.28876 0.0
C1962 C 0.98563 0.35953 0.24313 0.0
C1963 C 0.97984 0.39379 0.25366 0.0
C1964 C 0.96678 0.40748 0.24697 0.0
C1965 C 0.00592 0.36953 0.26461 0.0
C1966 C 0.0132 0.39194 0.28079 0.0
C1967 C -0.00018 0.40358 0.27601 0.0
C1968 C 0.03487 0.40335 0.30258 0.0
C1969 C 0.02056 0.35704 0.26745 0.0
C1970 C 0.03548 0.39168 0.33311 0.0
C1971 C 0.05644 0.4011 0.35263 0.0
C1972 C 0.07695 0.42277 0.34254 0.0
C1973 C 0.07643 0.43453 0.31184 0.0
C1974 C 0.05536 0.42483 0.29187 0.0
H1975 H 0.01565 0.34307 0.24694 0.0
H1976 H 0.04015 0.37025 0.26519 0.0
H1977 H 0.01728 0.34809 0.29336 0.0
H1978 H 0.01973 0.37517 0.34169 0.0
H1979 H 0.05646 0.39173 0.37626 0.0
H1980 H 0.62457 0.08014 0.6879 0.0
H1981 H 0.59903 0.05071 0.64387 0.0
H1982 H 0.65733 0.03844 0.61675 0.0
H1983 H 0.68336 0.06849 0.66017 0.0
H1984 H 0.62246 0.05312 0.56283 0.0
H1985 H 0.58259 0.97059 0.64589 0.0
H1986 H 0.59133 6e-05 0.66335 0.0
H1987 H 0.614 0.99263 0.65216 0.0
C1988 C 0.63198 0.07131 0.67231 0.0
C1989 C 0.65596 0.07666 0.67706 0.0
C1990 C 0.61729 0.05433 0.6477 0.0
C1991 C 0.62626 0.04218 0.62809 0.0
C1992 C 0.6502 0.04759 0.6323 0.0
H1993 H 0.61448 0.96384 0.45145 0.0
H1994 H 0.62182 0.99437 0.4955 0.0
C1995 C 0.66507 0.06487 0.65662 0.0
C1996 C 0.61129 0.02497 0.60122 0.0
H1997 H 0.57893 0.96492 0.58437 0.0
C1998 C 0.61254 0.0338 0.56742 0.0
C1999 C 0.59809 2e-05 0.6079 0.0
C2000 C 0.5962 0.9901 0.64431 0.0
C2001 C 0.60269 0.0181 0.53911 0.0
C2002 C 0.59101 0.99291 0.54515 0.0
C2003 C 0.58786 0.98419 0.57967 0.0
C2004 C 0.58545 0.97551 0.51646 0.0
C2005 C 0.60618 0.0292 0.50327 0.0
C2006 C 0.56279 0.95442 0.51438 0.0
C2007 C 0.5589 0.93659 0.49001 0.0
C2008 C 0.57756 0.93985 0.46736 0.0
C2009 C 0.59996 0.96108 0.46891 0.0
C2010 C 0.604 0.9786 0.49366 0.0
H2011 H 0.59982 0.04246 0.50349 0.0
H2012 H 0.62573 0.03938 0.49696 0.0
H2013 H 0.59669 0.01586 0.48232 0.0
H2014 H 0.54832 0.95162 0.53195 0.0
H2015 H 0.5414 0.92037 0.4887 0.0
H2016 H 0.55771 0.65514 0.97687 0.0
H2017 H 0.54864 0.63587 0.91885 0.0
H2018 H 0.56099 0.58023 0.96014 0.0
H2019 H 0.56968 0.59868 1.01608 0.0
H2020 H 0.58781 0.63828 0.89491 0.0
H2021 H 0.52385 0.53901 0.89126 0.0
H2022 H 0.51342 0.56053 0.89302 0.0
H2023 H 0.52605 0.55487 0.93075 0.0
C2024 C 0.5576 0.63832 0.9734 0.0
C2025 C 0.56462 0.62852 1.0007 0.0
C2026 C 0.55184 0.62704 0.94068 0.0
C2027 C 0.55345 0.60617 0.93524 0.0
C2028 C 0.55822 0.59542 0.96368 0.0
H2029 H 0.63437 0.55239 0.84109 0.0
H2030 H 0.60711 0.56049 0.87652 0.0
C2031 C 0.56387 0.60648 0.99583 0.0
C2032 C 0.56002 0.60107 0.90078 0.0
H2033 H 0.5627 0.55367 0.86572 0.0
C2034 C 0.58154 0.61986 0.88683 0.0
C2035 C 0.55209 0.57703 0.89078 0.0
C2036 C 0.52762 0.55665 0.90193 0.0
C2037 C 0.59715 0.61507 0.86759 0.0
C2038 C 0.59016 0.59089 0.85985 0.0
C2039 C 0.56777 0.57215 0.87146 0.0
C2040 C 0.60579 0.58507 0.83878 0.0
C2041 C 0.62201 0.63587 0.85907 0.0
C2042 C 0.61375 0.59605 0.80606 0.0
C2043 C 0.62998 0.59241 0.78687 0.0
C2044 C 0.63764 0.57665 0.79909 0.0
C2045 C 0.62916 0.56504 0.8315 0.0
C2046 C 0.61333 0.56931 0.85136 0.0
H2047 H 0.6274 0.65121 0.87733 0.0
H2048 H 0.63589 0.63036 0.86037 0.0
H2049 H 0.62197 0.64251 0.83226 0.0
H2050 H 0.60757 0.60769 0.79545 0.0
H2051 H 0.6363 0.60176 0.7621 0.0
H2052 H 0.98585 0.56828 0.11061 0.0
H2053 H 0.99051 0.56215 0.17239 0.0
H2054 H 0.05921 0.62826 0.17416 0.0
H2055 H 0.05427 0.63484 0.11236 0.0
H2056 H 0.0212 0.56472 0.22771 0.0
H2057 H 0.01031 0.64573 0.21508 0.0
H2058 H 0.00916 0.62869 0.1771 0.0
H2059 H 0.03743 0.64734 0.19893 0.0
C2060 C 0.00197 0.58137 0.12421 0.0
C2061 C 0.01897 0.60265 0.10776 0.0
C2062 C 0.00504 0.57753 0.15907 0.0
C2063 C 0.02485 0.59526 0.17776 0.0
C2064 C 0.04365 0.61469 0.16003 0.0
H2065 H 0.97227 0.59525 0.38661 0.0
H2066 H 0.00022 0.59476 0.3437 0.0
C2067 C 0.04055 0.61861 0.1251 0.0
C2068 C 0.02087 0.59723 0.21493 0.0
H2069 H 0.99309 0.62104 0.26307 0.0
C2070 C 0.01589 0.57752 0.23631 0.0
C2071 C 0.01372 0.61394 0.2255 0.0
C2072 C 0.01782 0.63511 0.20306 0.0
C2073 C 0.00112 0.57238 0.26576 0.0
C2074 C 0.99246 0.58796 0.27451 0.0
C2075 C -0.00019 0.60913 0.25562 0.0
C2076 C 0.97433 0.58217 0.30158 0.0
C2077 C 0.99327 0.54953 0.28564 0.0
C2078 C 0.95053 0.57474 0.29169 0.0
C2079 C 0.93448 0.57504 0.31601 0.0
C2080 C 0.94226 0.58286 0.35025 0.0
C2081 C 0.96583 0.58913 0.36031 0.0
C2082 C 0.98176 0.58868 0.33608 0.0
H2083 H -0.00037 0.53822 0.27267 0.0
H2084 H 0.00066 0.55414 0.31259 0.0
H2085 H 0.97329 0.539 0.28769 0.0
H2086 H 0.94478 0.56983 0.2648 0.0
H2087 H 0.91624 0.56958 0.308 0.0
H2088 H 0.47994 0.07554 0.43587 0.0
H2089 H 0.49414 0.07427 0.49474 0.0
H2090 H 0.56677 0.12184 0.46142 0.0
H2091 H 0.55259 0.12045 0.40256 0.0
H2092 H 0.50842 0.09022 0.55245 0.0
H2093 H 0.59598 0.09842 0.52134 0.0
H2094 H 0.59317 0.12265 0.50317 0.0
H2095 H 0.57401 0.09219 0.48774 0.0
C2096 C 0.4992 0.08599 0.44016 0.0
C2097 C 0.51428 0.09896 0.41056 0.0
C2098 C 0.50763 0.08532 0.47566 0.0
C2099 C 0.5324 0.09783 0.48675 0.0
C2100 C 0.5476 0.11096 0.45733 0.0
H2101 H 0.61888 0.11531 0.69483 0.0
H2102 H 0.60416 0.11579 0.63591 0.0
C2103 C 0.53907 0.11107 0.42157 0.0
C2104 C 0.54134 0.09715 0.52742 0.0
H2105 H 0.58898 0.10238 0.58011 0.0
C2106 C 0.52623 0.09293 0.55759 0.0
C2107 C 0.5645 0.10029 0.53833 0.0
C2108 C 0.58285 0.10342 0.5111 0.0
C2109 C 0.53299 0.09266 0.59453 0.0
C2110 C 0.55628 0.096 0.60554 0.0
C2111 C 0.57124 0.09989 0.57522 0.0
C2112 C 0.56564 0.09593 0.64626 0.0
C2113 C 0.5145 0.08948 0.62154 0.0
C2114 C 0.55073 0.08483 0.67693 0.0
C2115 C 0.55967 0.0847 0.71237 0.0
C2116 C 0.58468 0.09603 0.72191 0.0
C2117 C 0.59954 0.10673 0.69144 0.0
C2118 C 0.59068 0.1068 0.65604 0.0
H2119 H 0.50065 0.09326 0.61069 0.0
H2120 H 0.50495 0.07052 0.63071 0.0
H2121 H 0.52315 0.1017 0.64411 0.0
H2122 H 0.53146 0.07522 0.67417 0.0
H2123 H 0.54641 0.07474 0.73228 0.0
H2124 H 0.44703 0.53725 0.74067 0.0
H2125 H 0.45886 0.55414 0.79924 0.0
H2126 H 0.39073 0.49931 0.83868 0.0
H2127 H 0.37717 0.48629 0.77868 0.0
H2128 H 0.46053 0.57404 0.85422 0.0
H2129 H 0.41729 0.48568 0.91829 0.0
H2130 H 0.41783 0.48845 0.87138 0.0
H2131 H 0.39547 0.49099 0.89699 0.0
C2132 C 0.43337 0.53022 0.76051 0.0
C2133 C 0.40958 0.51174 0.75093 0.0
C2134 C 0.44115 0.53884 0.7963 0.0
C2135 C 0.42724 0.52804 0.82751 0.0
C2136 C 0.40363 0.50874 0.81807 0.0
H2137 H 0.45688 0.54613 0.07143 0.0
H2138 H 0.4412 0.53359 1.01223 0.0
C2139 C 0.39537 0.50118 0.78206 0.0
C2140 C 0.43718 0.53704 0.86781 0.0
H2141 H 0.43378 0.51909 0.95591 0.0
C2142 C 0.45441 0.56157 0.87605 0.0
C2143 C 0.43076 0.52223 0.89919 0.0
C2144 C 0.41455 0.49535 0.89621 0.0
C2145 C 0.46407 0.57118 0.91109 0.0
C2146 C 0.45725 0.55656 0.94301 0.0
C2147 C 0.44005 0.53184 0.93447 0.0
C2148 C 0.46703 0.56576 0.98376 0.0
C2149 C 0.4817 0.5978 0.91245 0.0
C2150 C 0.48783 0.58841 0.99362 0.0
C2151 C 0.49578 0.59643 1.02947 0.0
C2152 C 0.48471 0.5828 1.06068 0.0
C2153 C 0.46513 0.55939 1.05118 0.0
C2154 C 0.45643 0.55159 1.01515 0.0
H2155 H 0.482 0.60719 0.88785 0.0
H2156 H 0.47705 0.60628 0.93408 0.0
H2157 H 0.50014 0.60065 0.91607 0.0
H2158 H 0.49937 0.60061 0.97382 0.0
H2159 H 0.51172 0.61399 1.03256 0.0
H2160 H 0.91346 0.45514 0.06934 0.0
H2161 H 0.91273 0.4693 0.12872 0.0
H2162 H 0.88818 0.39811 0.16824 0.0
H2163 H 0.88806 0.38399 0.10871 0.0
H2164 H 0.88637 0.46765 0.18355 0.0
H2165 H 0.90452 0.40307 0.22786 0.0
H2166 H 0.93274 0.42541 0.24603 0.0
H2167 H 0.92839 0.42366 0.19937 0.0
C2168 C 0.90667 0.44181 0.08967 0.0
C2169 C 0.89938 0.41733 0.08054 0.0
C2170 C 0.90682 0.45037 0.12545 0.0
C2171 C 0.90064 0.43564 0.15653 0.0
C2172 C 0.89371 0.41128 0.14743 0.0
H2173 H 0.91209 0.46344 0.39975 0.0
H2174 H 0.90783 0.44765 0.34013 0.0
C2175 C 0.89327 0.40277 0.11175 0.0
C2176 C 0.90119 0.44529 0.19673 0.0
H2177 H 0.91603 0.44179 0.28443 0.0
C2178 C 0.89297 0.46172 0.20527 0.0
C2179 C 0.90946 0.43866 0.22791 0.0
C2180 C 0.91948 0.42193 0.22494 0.0
C2181 C 0.89184 0.47023 0.2407 0.0
C2182 C 0.90047 0.46395 0.27219 0.0
C2183 C 0.90909 0.44774 0.26324 0.0
C2184 C 0.90053 0.47304 0.31306 0.0
C2185 C 0.88008 0.48544 0.24316 0.0
C2186 C 0.89754 0.49302 0.32359 0.0
C2187 C 0.897 0.50022 0.35975 0.0
C2188 C 0.90024 0.48915 0.39039 0.0
C2189 C 0.90558 0.47076 0.38009 0.0
C2190 C 0.90469 0.4625 0.34385 0.0
H2191 H 0.86955 0.48404 0.21932 0.0
H2192 H 0.86751 0.47975 0.26576 0.0
H2193 H 0.89425 0.50465 0.24587 0.0
H2194 H 0.89628 0.50438 0.30407 0.0
H2195 H 0.89455 0.51559 0.3636 0.0
H2196 H 0.46169 0.9121 0.39891 0.0
H2197 H 0.44693 0.91269 0.45676 0.0
H2198 H 0.4923 0.88755 0.49969 0.0
H2199 H 0.50775 0.88815 0.44091 0.0
H2200 H 0.48679 0.89955 0.55373 0.0
H2201 H 0.4152 0.88397 0.48961 0.0
H2202 H 0.42323 0.91486 0.49891 0.0
H2203 H 0.39882 0.89048 0.52171 0.0
C2204 C 0.46799 0.90544 0.41974 0.0
C2205 C 0.48556 0.89855 0.41147 0.0
C2206 C 0.45916 0.90584 0.45512 0.0
C2207 C 0.46658 0.89909 0.48697 0.0
C2208 C 0.48464 0.89273 0.47855 0.0
H2209 H 0.44797 0.91039 0.73398 0.0
H2210 H 0.46376 0.91168 0.6762 0.0
C2211 C 0.4937 0.89277 0.44322 0.0
C2212 C 0.45692 0.89917 0.52746 0.0
H2213 H 0.41127 0.89947 0.57906 0.0
C2214 C 0.46993 0.89918 0.55819 0.0
C2215 C 0.43478 0.89871 0.53785 0.0
C2216 C 0.41703 0.89681 0.51048 0.0
C2217 C 0.46235 0.89847 0.59492 0.0
C2218 C 0.44064 0.89885 0.60531 0.0
C2219 C 0.42777 0.89913 0.57459 0.0
C2220 C 0.43063 0.89826 0.64578 0.0
C2221 C 0.4781 0.89641 0.6223 0.0
C2222 C 0.40609 0.89164 0.65411 0.0
C2223 C 0.39685 0.89123 0.68946 0.0
C2224 C 0.41067 0.89699 0.72127 0.0
C2225 C 0.43515 0.90389 0.7131 0.0
C2226 C 0.44462 0.90469 0.67775 0.0
H2227 H 0.49014 0.89032 0.61101 0.0
H2228 H 0.4898 0.91437 0.6342 0.0
H2229 H 0.46698 0.8833 0.64291 0.0
H2230 H 0.39332 0.88654 0.63289 0.0
H2231 H 0.37807 0.88624 0.69176 0.0
H2232 H 0.62161 0.51157 0.77792 0.0
H2233 H 0.60886 0.49973 0.83751 0.0
H2234 H 0.53694 0.45072 0.80219 0.0
H2235 H 0.54954 0.46646 0.74322 0.0
H2236 H 0.5242 0.44313 0.85834 0.0
H2237 H 0.61272 0.47537 0.92033 0.0
H2238 H 0.61168 0.49846 0.89552 0.0
H2239 H 0.60945 0.47215 0.87381 0.0
C2240 C 0.60305 0.49758 0.78198 0.0
C2241 C 0.58789 0.48857 0.75165 0.0
C2242 C 0.59532 0.48998 0.81811 0.0
C2243 C 0.57136 0.47175 0.82887 0.0
C2244 C 0.55585 0.46362 0.79846 0.0
H2245 H 0.54567 0.45202 0.07383 0.0
H2246 H 0.56203 0.464 1.01417 0.0
C2247 C 0.56352 0.47213 0.76241 0.0
C2248 C 0.56226 0.46234 0.86969 0.0
H2249 H 0.58022 0.462 0.95728 0.0
C2250 C 0.53719 0.4481 0.87921 0.0
C2251 C 0.57725 0.46636 0.9006 0.0
C2252 C 0.60424 0.4787 0.89727 0.0
C2253 C 0.52754 0.43981 0.9147 0.0
C2254 C 0.54251 0.44405 0.94537 0.0
C2255 C 0.56753 0.45795 0.93612 0.0
C2256 C 0.53305 0.43458 0.98569 0.0
C2257 C 0.50057 0.42689 0.91852 0.0
C2258 C 0.51173 0.41228 0.99464 0.0
C2259 C 0.5034 0.40409 1.03034 0.0
C2260 C 0.5152 0.41696 1.06177 0.0
C2261 C 0.53621 0.43955 1.05301 0.0
C2262 C 0.5452 0.44732 1.01713 0.0
H2263 H 0.49197 0.43169 0.89716 0.0
H2264 H 0.49355 0.40722 0.91685 0.0
H2265 H 0.49513 0.43116 0.9439 0.0
H2266 H 0.50117 0.40026 0.97382 0.0
H2267 H 0.4869 0.38694 1.03321 0.0
H2268 H 0.1011 0.4828 0.3624 0.0
H2269 H 0.09886 0.49444 0.30376 0.0
H2270 H 0.08869 0.55168 0.34233 0.0
H2271 H 0.08728 0.53675 0.40109 0.0
H2272 H 0.08744 0.56381 0.28797 0.0
H2273 H 0.10898 0.50317 0.21276 0.0
H2274 H 0.08832 0.48938 0.24825 0.0
H2275 H 0.11992 0.51152 0.25637 0.0
C2276 C 0.09897 0.4984 0.35921 0.0
C2277 C 0.09701 0.50973 0.39044 0.0
C2278 C 0.09787 0.50583 0.32331 0.0
C2279 C 0.09504 0.52609 0.31337 0.0
C2280 C 0.09215 0.5369 0.34491 0.0
H2281 H 0.10873 0.56098 0.07184 0.0
H2282 H 0.11 0.54817 0.13081 0.0
C2283 C 0.09251 0.52882 0.38091 0.0
C2284 C 0.09429 0.53544 0.27269 0.0
H2285 H 0.0986 0.52662 0.18207 0.0
C2286 C 0.09012 0.55516 0.26555 0.0
C2287 C 0.09786 0.52617 0.23958 0.0
C2288 C 0.10412 0.50649 0.23927 0.0
C2289 C 0.08959 0.56496 0.23073 0.0
C2290 C 0.09225 0.55504 0.19781 0.0
C2291 C 0.09633 0.53536 0.20478 0.0
C2292 C 0.09173 0.56449 0.15741 0.0
C2293 C 0.08698 0.58702 0.23054 0.0
C2294 C 0.08112 0.57873 0.14661 0.0
C2295 C 0.08173 0.58746 0.1109 0.0
C2296 C 0.09183 0.58223 0.08072 0.0
C2297 C 0.10134 0.56712 0.09119 0.0
C2298 C 0.10163 0.55905 0.12714 0.0
H2299 H 0.09135 0.59616 0.25639 0.0
H2300 H 0.09916 0.60027 0.21081 0.0
H2301 H 0.06801 0.58163 0.2245 0.0
H2302 H 0.07151 0.58318 0.16551 0.0
H2303 H 0.0734 0.59838 0.10687 0.0
loop_
_geom_bond_atom_site_label_1
_geom_bond_atom_site_label_2
_geom_bond_distance
_geom_bond_site_symmetry_2
_ccdc_geom_bond_type
Tb0 N31 2.660 . S
Tb0 N38 2.600 . S
Tb0 O44 2.546 . S
Tb0 O45 2.610 . S
Tb0 O47 2.320 . S
Tb0 O48 2.552 . S
Tb0 O49 2.413 . S
Tb0 O51 2.362 . S
Tb0 O52 2.421 . S
Tb0 C64 2.833 . S
C1 C4 1.432 . S
C1 C5 1.414 . S
C1 N8 1.359 . S
C2 C4 1.417 . S
C2 C6 1.432 . S
C2 C14 1.410 . S
C3 C5 1.444 . S
C3 C6 1.317 . S
C3 H26 0.929 . S
C4 C1 1.432 . S
C4 C2 1.417 . S
C4 N12 1.360 . S
C5 C1 1.414 . S
C5 C3 1.444 . S
C5 C10 1.385 . S
C6 C2 1.432 . S
C6 C3 1.317 . S
C6 H18 0.930 . S
C7 C9 1.392 . S
C7 C10 1.370 . S
C7 H19 0.931 . S
N8 C1 1.359 . S
N8 C9 1.327 . S
N8 Tb11 2.600 . S
C9 C7 1.392 . S
C9 N8 1.327 . S
C9 H16 0.930 . S
C10 C5 1.385 . S
C10 C7 1.370 . S
C10 H29 0.930 . S
Tb11 N8 2.600 . S
Tb11 N12 2.660 . S
Tb11 O45 2.362 . S
Tb11 O46 2.421 . S
Tb11 O50 2.546 . S
Tb11 O51 2.610 . S
Tb11 O53 2.320 . S
Tb11 O54 2.552 . S
Tb11 O55 2.413 . S
Tb11 C75 2.833 . S
N12 C4 1.360 . S
N12 Tb11 2.660 . S
N12 C13 1.305 . S
C13 N12 1.305 . S
C13 C15 1.407 . S
C13 H20 0.930 . S
C14 C2 1.410 . S
C14 C15 1.345 . S
C14 H22 0.930 . S
C15 C13 1.407 . S
C15 C14 1.345 . S
C15 H17 0.930 . S
H16 C9 0.930 . S
H17 C15 0.930 . S
H18 C6 0.930 . S
H19 C7 0.931 . S
H20 C13 0.930 . S
H21 C35 0.930 . S
H22 C14 0.930 . S
H23 C41 0.930 . S
H24 C32 0.930 . S
H25 C39 0.931 . S
H26 C3 0.929 . S
H27 C33 0.930 . S
H28 C66 0.930 . S
H29 C10 0.930 . S
H30 C65 0.929 . S
N31 Tb0 2.660 . S
N31 C32 1.305 . S
N31 C36 1.360 . S
C32 H24 0.930 . S
C32 N31 1.305 . S
C32 C35 1.407 . S
C33 H27 0.930 . S
C33 C34 1.410 . S
C33 C35 1.345 . S
C34 C33 1.410 . S
C34 C36 1.417 . S
C34 C66 1.432 . S
C35 H21 0.930 . S
C35 C32 1.407 . S
C35 C33 1.345 . S
C36 N31 1.360 . S
C36 C34 1.417 . S
C36 C40 1.432 . S
H37 C42 0.930 . S
N38 Tb0 2.600 . S
N38 C40 1.359 . S
N38 C41 1.327 . S
C39 H25 0.931 . S
C39 C41 1.392 . S
C39 C42 1.370 . S
C40 C36 1.432 . S
C40 N38 1.359 . S
C40 C43 1.414 . S
C41 H23 0.930 . S
C41 N38 1.327 . S
C41 C39 1.392 . S
C42 H37 0.930 . S
C42 C39 1.370 . S
C42 C43 1.385 . S
C43 C40 1.414 . S
C43 C42 1.385 . S
C43 C65 1.444 . S
O44 Tb0 2.546 . S
O44 C64 1.251 . S
O45 Tb0 2.610 . S
O45 Tb11 2.362 . S
O45 C56 1.283 . S
O46 Tb11 2.421 . S
O46 C63 1.262 . S
O47 Tb0 2.320 . S
O47 C63 1.260 . S
O48 Tb0 2.552 . S
O48 C56 1.243 . S
O49 Tb0 2.413 . S
O49 C64 1.256 . S
O50 Tb11 2.546 . S
O50 C75 1.251 . S
O51 Tb0 2.362 . S
O51 Tb11 2.610 . S
O51 C67 1.283 . S
O52 Tb0 2.421 . S
O52 C74 1.262 . S
O53 Tb11 2.320 . S
O53 C74 1.260 . S
O54 Tb11 2.552 . S
O54 C67 1.243 . S
O55 Tb11 2.413 . S
O55 C75 1.256 . S
C56 O45 1.283 . S
C56 O48 1.243 . S
C57 C59 1.382 . S
C57 C61 1.393 . S
C57 C64 1.500 . S
C58 C59 1.400 . S
C58 C60 1.384 . S
C59 C57 1.382 . S
C59 C58 1.400 . S
C59 H76 0.930 . S
C60 C58 1.384 . S
C60 C62 1.392 . S
C60 H77 0.931 . S
C61 C57 1.393 . S
C61 C62 1.401 . S
C61 H78 0.930 . S
C62 C60 1.392 . S
C62 C61 1.401 . S
C62 H79 0.930 . S
C63 O46 1.262 . S
C63 O47 1.260 . S
C64 Tb0 2.833 . S
C64 O44 1.251 . S
C64 O49 1.256 . S
C64 C57 1.500 . S
C65 H30 0.929 . S
C65 C43 1.444 . S
C65 C66 1.317 . S
C66 H28 0.930 . S
C66 C34 1.432 . S
C66 C65 1.317 . S
C67 O51 1.283 . S
C67 O54 1.243 . S
C68 C69 1.382 . S
C68 C72 1.393 . S
C68 C75 1.500 . S
C69 C68 1.382 . S
C69 C70 1.400 . S
C69 H80 0.930 . S
C70 C69 1.400 . S
C70 C71 1.384 . S
C71 C70 1.384 . S
C71 C73 1.392 . S
C71 H81 0.931 . S
C72 C68 1.393 . S
C72 C73 1.401 . S
C72 H82 0.930 . S
C73 C71 1.392 . S
C73 C72 1.401 . S
C73 H83 0.930 . S
C74 O52 1.262 . S
C74 O53 1.260 . S
C75 Tb11 2.833 . S
C75 O50 1.251 . S
C75 O55 1.256 . S
C75 C68 1.500 . S
H76 C59 0.930 . S
H77 C60 0.931 . S
H78 C61 0.930 . S
H79 C62 0.930 . S
H80 C69 0.930 . S
H81 C71 0.931 . S
H82 C72 0.930 . S
H83 C73 0.930 . S
Tb84 N115 2.660 . S
Tb84 N122 2.600 . S
Tb84 O128 2.546 . S
Tb84 O129 2.610 . S
Tb84 O131 2.320 . S
Tb84 O132 2.552 . S
Tb84 O133 2.413 . S
Tb84 O135 2.362 . S
Tb84 O136 2.421 . S
Tb84 C148 2.833 . S
C85 C88 1.432 . S
C85 C89 1.414 . S
C85 N92 1.359 . S
C86 C88 1.417 . S
C86 C90 1.432 . S
C86 C98 1.410 . S
C87 C89 1.444 . S
C87 C90 1.317 . S
C87 H110 0.929 . S
C88 C85 1.432 . S
C88 C86 1.417 . S
C88 N96 1.360 . S
C89 C85 1.414 . S
C89 C87 1.444 . S
C89 C94 1.385 . S
C90 C86 1.432 . S
C90 C87 1.317 . S
C90 H102 0.930 . S
C91 C93 1.392 . S
C91 C94 1.370 . S
C91 H103 0.931 . S
N92 C85 1.359 . S
N92 C93 1.327 . S
N92 Tb95 2.600 . S
C93 C91 1.392 . S
C93 N92 1.327 . S
C93 H100 0.930 . S
C94 C89 1.385 . S
C94 C91 1.370 . S
C94 H113 0.930 . S
Tb95 N92 2.600 . S
Tb95 N96 2.660 . S
Tb95 O129 2.362 . S
Tb95 O130 2.421 . S
Tb95 O134 2.546 . S
Tb95 O135 2.610 . S
Tb95 O137 2.320 . S
Tb95 O138 2.552 . S
Tb95 O139 2.413 . S
Tb95 C159 2.833 . S
N96 C88 1.360 . S
N96 Tb95 2.660 . S
N96 C97 1.305 . S
C97 N96 1.305 . S
C97 C99 1.407 . S
C97 H104 0.930 . S
C98 C86 1.410 . S
C98 C99 1.345 . S
C98 H106 0.930 . S
C99 C97 1.407 . S
C99 C98 1.345 . S
C99 H101 0.930 . S
H100 C93 0.930 . S
H101 C99 0.930 . S
H102 C90 0.930 . S
H103 C91 0.931 . S
H104 C97 0.930 . S
H105 C119 0.930 . S
H106 C98 0.930 . S
H107 C125 0.930 . S
H108 C116 0.930 . S
H109 C123 0.931 . S
H110 C87 0.929 . S
H111 C117 0.930 . S
H112 C150 0.930 . S
H113 C94 0.930 . S
H114 C149 0.929 . S
N115 Tb84 2.660 . S
N115 C116 1.305 . S
N115 C120 1.360 . S
C116 H108 0.930 . S
C116 N115 1.305 . S
C116 C119 1.407 . S
C117 H111 0.930 . S
C117 C118 1.410 . S
C117 C119 1.345 . S
C118 C117 1.410 . S
C118 C120 1.417 . S
C118 C150 1.432 . S
C119 H105 0.930 . S
C119 C116 1.407 . S
C119 C117 1.345 . S
C120 N115 1.360 . S
C120 C118 1.417 . S
C120 C124 1.432 . S
H121 C126 0.930 . S
N122 Tb84 2.600 . S
N122 C124 1.359 . S
N122 C125 1.327 . S
C123 H109 0.931 . S
C123 C125 1.392 . S
C123 C126 1.370 . S
C124 C120 1.432 . S
C124 N122 1.359 . S
C124 C127 1.414 . S
C125 H107 0.930 . S
C125 N122 1.327 . S
C125 C123 1.392 . S
C126 H121 0.930 . S
C126 C123 1.370 . S
C126 C127 1.385 . S
C127 C124 1.414 . S
C127 C126 1.385 . S
C127 C149 1.444 . S
O128 Tb84 2.546 . S
O128 C148 1.251 . S
O129 Tb84 2.610 . S
O129 Tb95 2.362 . S
O129 C140 1.283 . S
O130 Tb95 2.421 . S
O130 C147 1.262 . S
O131 Tb84 2.320 . S
O131 C147 1.260 . S
O132 Tb84 2.552 . S
O132 C140 1.243 . S
O133 Tb84 2.413 . S
O133 C148 1.256 . S
O134 Tb95 2.546 . S
O134 C159 1.251 . S
O135 Tb84 2.362 . S
O135 Tb95 2.610 . S
O135 C151 1.283 . S
O136 Tb84 2.421 . S
O136 C158 1.262 . S
O137 Tb95 2.320 . S
O137 C158 1.260 . S
O138 Tb95 2.552 . S
O138 C151 1.243 . S
O139 Tb95 2.413 . S
O139 C159 1.256 . S
C140 O129 1.283 . S
C140 O132 1.243 . S
C141 C143 1.382 . S
C141 C145 1.393 . S
C141 C148 1.500 . S
C142 C143 1.400 . S
C142 C144 1.384 . S
C143 C141 1.382 . S
C143 C142 1.400 . S
C143 H160 0.930 . S
C144 C142 1.384 . S
C144 C146 1.392 . S
C144 H161 0.931 . S
C145 C141 1.393 . S
C145 C146 1.401 . S
C145 H162 0.930 . S
C146 C144 1.392 . S
C146 C145 1.401 . S
C146 H163 0.930 . S
C147 O130 1.262 . S
C147 O131 1.260 . S
C148 Tb84 2.833 . S
C148 O128 1.251 . S
C148 O133 1.256 . S
C148 C141 1.500 . S
C149 H114 0.929 . S
C149 C127 1.444 . S
C149 C150 1.317 . S
C150 H112 0.930 . S
C150 C118 1.432 . S
C150 C149 1.317 . S
C151 O135 1.283 . S
C151 O138 1.243 . S
C152 C153 1.382 . S
C152 C156 1.393 . S
C152 C159 1.500 . S
C153 C152 1.382 . S
C153 C154 1.400 . S
C153 H164 0.930 . S
C154 C153 1.400 . S
C154 C155 1.384 . S
C155 C154 1.384 . S
C155 C157 1.392 . S
C155 H165 0.931 . S
C156 C152 1.393 . S
C156 C157 1.401 . S
C156 H166 0.930 . S
C157 C155 1.392 . S
C157 C156 1.401 . S
C157 H167 0.930 . S
C158 O136 1.262 . S
C158 O137 1.260 . S
C159 Tb95 2.833 . S
C159 O134 1.251 . S
C159 O139 1.256 . S
C159 C152 1.500 . S
H160 C143 0.930 . S
H161 C144 0.931 . S
H162 C145 0.930 . S
H163 C146 0.930 . S
H164 C153 0.930 . S
H165 C155 0.931 . S
H166 C156 0.930 . S
H167 C157 0.930 . S
Tb168 N199 2.660 . S
Tb168 N206 2.600 . S
Tb168 O212 2.546 . S
Tb168 O213 2.610 . S
Tb168 O215 2.320 . S
Tb168 O216 2.552 . S
Tb168 O217 2.413 . S
Tb168 O219 2.362 . S
Tb168 O220 2.421 . S
Tb168 C232 2.833 1_556 S
C169 C172 1.432 . S
C169 C173 1.414 . S
C169 N176 1.359 . S
C170 C172 1.417 . S
C170 C174 1.432 . S
C170 C182 1.410 . S
C171 C173 1.444 . S
C171 C174 1.317 . S
C171 H194 0.929 . S
C172 C169 1.432 . S
C172 C170 1.417 . S
C172 N180 1.360 . S
C173 C169 1.414 . S
C173 C171 1.444 . S
C173 C178 1.385 . S
C174 C170 1.432 . S
C174 C171 1.317 . S
C174 H186 0.930 . S
C175 C177 1.392 . S
C175 C178 1.370 . S
C175 H187 0.931 . S
N176 C169 1.359 . S
N176 C177 1.327 . S
N176 Tb179 2.600 . S
C177 C175 1.392 . S
C177 N176 1.327 . S
C177 H184 0.930 . S
C178 C173 1.385 . S
C178 C175 1.370 . S
C178 H197 0.930 . S
Tb179 N176 2.600 . S
Tb179 N180 2.660 . S
Tb179 O213 2.362 . S
Tb179 O214 2.421 . S
Tb179 O218 2.546 . S
Tb179 O219 2.610 . S
Tb179 O221 2.320 . S
Tb179 O222 2.552 . S
Tb179 O223 2.413 . S
Tb179 C243 2.833 . S
N180 C172 1.360 . S
N180 Tb179 2.660 . S
N180 C181 1.305 . S
C181 N180 1.305 . S
C181 C183 1.407 . S
C181 H188 0.930 . S
C182 C170 1.410 . S
C182 C183 1.345 . S
C182 H190 0.930 . S
C183 C181 1.407 . S
C183 C182 1.345 . S
C183 H185 0.930 . S
H184 C177 0.930 . S
H185 C183 0.930 . S
H186 C174 0.930 . S
H187 C175 0.931 . S
H188 C181 0.930 . S
H189 C203 0.930 . S
H190 C182 0.930 . S
H191 C209 0.930 . S
H192 C200 0.930 . S
H193 C207 0.931 . S
H194 C171 0.929 . S
H195 C201 0.930 . S
H196 C234 0.930 . S
H197 C178 0.930 . S
H198 C233 0.929 . S
N199 Tb168 2.660 . S
N199 C200 1.305 . S
N199 C204 1.360 . S
C200 H192 0.930 . S
C200 N199 1.305 . S
C200 C203 1.407 . S
C201 H195 0.930 . S
C201 C202 1.410 . S
C201 C203 1.345 . S
C202 C201 1.410 . S
C202 C204 1.417 . S
C202 C234 1.432 . S
C203 H189 0.930 . S
C203 C200 1.407 . S
C203 C201 1.345 . S
C204 N199 1.360 . S
C204 C202 1.417 . S
C204 C208 1.432 . S
H205 C210 0.930 . S
N206 Tb168 2.600 . S
N206 C208 1.359 . S
N206 C209 1.327 . S
C207 H193 0.931 . S
C207 C209 1.392 . S
C207 C210 1.370 . S
C208 C204 1.432 . S
C208 N206 1.359 . S
C208 C211 1.414 . S
C209 H191 0.930 . S
C209 N206 1.327 . S
C209 C207 1.392 . S
C210 H205 0.930 . S
C210 C207 1.370 . S
C210 C211 1.385 . S
C211 C208 1.414 . S
C211 C210 1.385 . S
C211 C233 1.444 . S
O212 Tb168 2.546 . S
O212 C232 1.251 1_556 S
O213 Tb168 2.610 . S
O213 Tb179 2.362 . S
O213 C224 1.283 . S
O214 Tb179 2.421 . S
O214 C231 1.262 . S
O215 Tb168 2.320 . S
O215 C231 1.260 . S
O216 Tb168 2.552 . S
O216 C224 1.243 . S
O217 Tb168 2.413 . S
O217 C232 1.256 1_556 S
O218 Tb179 2.546 . S
O218 C243 1.251 . S
O219 Tb168 2.362 . S
O219 Tb179 2.610 . S
O219 C235 1.283 . S
O220 Tb168 2.421 . S
O220 C242 1.262 . S
O221 Tb179 2.320 . S
O221 C242 1.260 . S
O222 Tb179 2.552 . S
O222 C235 1.243 . S
O223 Tb179 2.413 . S
O223 C243 1.256 . S
C224 O213 1.283 . S
C224 O216 1.243 . S
C225 C227 1.382 . S
C225 C229 1.393 . S
C225 C232 1.500 . S
C226 C227 1.400 . S
C226 C228 1.384 . S
C227 C225 1.382 . S
C227 C226 1.400 . S
C227 H244 0.930 . S
C228 C226 1.384 . S
C228 C230 1.392 . S
C228 H245 0.931 . S
C229 C225 1.393 . S
C229 C230 1.401 . S
C229 H246 0.930 . S
C230 C228 1.392 . S
C230 C229 1.401 . S
C230 H247 0.930 . S
C231 O214 1.262 . S
C231 O215 1.260 . S
C232 Tb168 2.833 1_554 S
C232 O212 1.251 1_554 S
C232 O217 1.256 1_554 S
C232 C225 1.500 . S
C233 H198 0.929 . S
C233 C211 1.444 . S
C233 C234 1.317 . S
C234 H196 0.930 . S
C234 C202 1.432 . S
C234 C233 1.317 . S
C235 O219 1.283 . S
C235 O222 1.243 . S
C236 C237 1.382 . S
C236 C240 1.393 . S
C236 C243 1.500 . S
C237 C236 1.382 . S
C237 C238 1.400 . S
C237 H248 0.930 . S
C238 C237 1.400 . S
C238 C239 1.384 . S
C239 C238 1.384 . S
C239 C241 1.392 . S
C239 H249 0.931 . S
C240 C236 1.393 . S
C240 C241 1.401 . S
C240 H250 0.930 . S
C241 C239 1.392 . S
C241 C240 1.401 . S
C241 H251 0.930 . S
C242 O220 1.262 . S
C242 O221 1.260 . S
C243 Tb179 2.833 . S
C243 O218 1.251 . S
C243 O223 1.256 . S
C243 C236 1.500 . S
H244 C227 0.930 . S
H245 C228 0.931 . S
H246 C229 0.930 . S
H247 C230 0.930 . S
H248 C237 0.930 . S
H249 C239 0.931 . S
H250 C240 0.930 . S
H251 C241 0.930 . S
Tb252 N283 2.660 . S
Tb252 N290 2.600 . S
Tb252 O296 2.546 . S
Tb252 O297 2.610 . S
Tb252 O299 2.320 . S
Tb252 O300 2.552 . S
Tb252 O301 2.413 . S
Tb252 O303 2.362 . S
Tb252 O304 2.421 . S
Tb252 C316 2.833 . S
C253 C256 1.432 . S
C253 C257 1.414 . S
C253 N260 1.359 . S
C254 C256 1.417 . S
C254 C258 1.432 . S
C254 C266 1.410 . S
C255 C257 1.444 . S
C255 C258 1.317 . S
C255 H278 0.929 . S
C256 C253 1.432 . S
C256 C254 1.417 . S
C256 N264 1.360 . S
C257 C253 1.414 . S
C257 C255 1.444 . S
C257 C262 1.385 . S
C258 C254 1.432 . S
C258 C255 1.317 . S
C258 H270 0.930 . S
C259 C261 1.392 . S
C259 C262 1.370 . S
C259 H271 0.931 . S
N260 C253 1.359 . S
N260 C261 1.327 . S
N260 Tb263 2.600 . S
C261 C259 1.392 . S
C261 N260 1.327 . S
C261 H268 0.930 . S
C262 C257 1.385 . S
C262 C259 1.370 . S
C262 H281 0.930 . S
Tb263 N260 2.600 . S
Tb263 N264 2.660 . S
Tb263 O297 2.362 . S
Tb263 O298 2.421 . S
Tb263 O302 2.546 . S
Tb263 O303 2.610 . S
Tb263 O305 2.320 . S
Tb263 O306 2.552 . S
Tb263 O307 2.413 . S
Tb263 C327 2.833 . S
N264 C256 1.360 . S
N264 Tb263 2.660 . S
N264 C265 1.305 . S
C265 N264 1.305 . S
C265 C267 1.407 . S
C265 H272 0.930 . S
C266 C254 1.410 . S
C266 C267 1.345 . S
C266 H274 0.930 . S
C267 C265 1.407 . S
C267 C266 1.345 . S
C267 H269 0.930 . S
H268 C261 0.930 . S
H269 C267 0.930 . S
H270 C258 0.930 . S
H271 C259 0.931 . S
H272 C265 0.930 . S
H273 C287 0.930 . S
H274 C266 0.930 . S
H275 C293 0.930 . S
H276 C284 0.930 . S
H277 C291 0.931 . S
H278 C255 0.929 . S
H279 C285 0.930 . S
H280 C318 0.930 . S
H281 C262 0.930 . S
H282 C317 0.929 . S
N283 Tb252 2.660 . S
N283 C284 1.305 . S
N283 C288 1.360 . S
C284 H276 0.930 . S
C284 N283 1.305 . S
C284 C287 1.407 . S
C285 H279 0.930 . S
C285 C286 1.410 . S
C285 C287 1.345 . S
C286 C285 1.410 . S
C286 C288 1.417 . S
C286 C318 1.432 . S
C287 H273 0.930 . S
C287 C284 1.407 . S
C287 C285 1.345 . S
C288 N283 1.360 . S
C288 C286 1.417 . S
C288 C292 1.432 . S
H289 C294 0.930 . S
N290 Tb252 2.600 . S
N290 C292 1.359 . S
N290 C293 1.327 . S
C291 H277 0.931 . S
C291 C293 1.392 . S
C291 C294 1.370 . S
C292 C288 1.432 . S
C292 N290 1.359 . S
C292 C295 1.414 . S
C293 H275 0.930 . S
C293 N290 1.327 . S
C293 C291 1.392 . S
C294 H289 0.930 . S
C294 C291 1.370 . S
C294 C295 1.385 . S
C295 C292 1.414 . S
C295 C294 1.385 . S
C295 C317 1.444 . S
O296 Tb252 2.546 . S
O296 C316 1.251 . S
O297 Tb252 2.610 . S
O297 Tb263 2.362 . S
O297 C308 1.283 . S
O298 Tb263 2.421 . S
O298 C315 1.262 . S
O299 Tb252 2.320 . S
O299 C315 1.260 . S
O300 Tb252 2.552 . S
O300 C308 1.243 . S
O301 Tb252 2.413 . S
O301 C316 1.256 . S
O302 Tb263 2.546 . S
O302 C327 1.251 . S
O303 Tb252 2.362 . S
O303 Tb263 2.610 . S
O303 C319 1.283 . S
O304 Tb252 2.421 . S
O304 C326 1.262 . S
O305 Tb263 2.320 . S
O305 C326 1.260 . S
O306 Tb263 2.552 . S
O306 C319 1.243 . S
O307 Tb263 2.413 . S
O307 C327 1.256 . S
C308 O297 1.283 . S
C308 O300 1.243 . S
C309 C311 1.382 . S
C309 C313 1.393 . S
C309 C316 1.500 . S
C310 C311 1.400 . S
C310 C312 1.384 . S
C311 C309 1.382 . S
C311 C310 1.400 . S
C311 H328 0.930 . S
C312 C310 1.384 . S
C312 C314 1.392 . S
C312 H329 0.931 . S
C313 C309 1.393 . S
C313 C314 1.401 . S
C313 H330 0.930 . S
C314 C312 1.392 . S
C314 C313 1.401 . S
C314 H331 0.930 . S
C315 O298 1.262 . S
C315 O299 1.260 . S
C316 Tb252 2.833 . S
C316 O296 1.251 . S
C316 O301 1.256 . S
C316 C309 1.500 . S
C317 H282 0.929 . S
C317 C295 1.444 . S
C317 C318 1.317 . S
C318 H280 0.930 . S
C318 C286 1.432 . S
C318 C317 1.317 . S
C319 O303 1.283 . S
C319 O306 1.243 . S
C320 C321 1.382 . S
C320 C324 1.393 . S
C320 C327 1.500 . S
C321 C320 1.382 . S
C321 C322 1.400 . S
C321 H332 0.930 . S
C322 C321 1.400 . S
C322 C323 1.384 . S
C323 C322 1.384 . S
C323 C325 1.392 . S
C323 H333 0.931 . S
C324 C320 1.393 . S
C324 C325 1.401 . S
C324 H334 0.930 . S
C325 C323 1.392 . S
C325 C324 1.401 . S
C325 H335 0.930 . S
C326 O304 1.262 . S
C326 O305 1.260 . S
C327 Tb263 2.833 . S
C327 O302 1.251 . S
C327 O307 1.256 . S
C327 C320 1.500 . S
H328 C311 0.930 . S
H329 C312 0.931 . S
H330 C313 0.930 . S
H331 C314 0.930 . S
H332 C321 0.930 . S
H333 C323 0.931 . S
H334 C324 0.930 . S
H335 C325 0.930 . S
Tb336 N367 2.660 . S
Tb336 N374 2.600 . S
Tb336 O380 2.546 . S
Tb336 O381 2.610 . S
Tb336 O383 2.320 . S
Tb336 O384 2.552 . S
Tb336 O385 2.413 . S
Tb336 O387 2.362 . S
Tb336 O388 2.421 . S
Tb336 C400 2.833 . S
C337 C340 1.432 . S
C337 C341 1.414 . S
C337 N344 1.359 . S
C338 C340 1.417 . S
C338 C342 1.432 . S
C338 C350 1.410 . S
C339 C341 1.444 . S
C339 C342 1.317 . S
C339 H362 0.929 . S
C340 C337 1.432 . S
C340 C338 1.417 . S
C340 N348 1.360 . S
C341 C337 1.414 . S
C341 C339 1.444 . S
C341 C346 1.385 . S
C342 C338 1.432 . S
C342 C339 1.317 . S
C342 H354 0.930 . S
C343 C345 1.392 . S
C343 C346 1.370 . S
C343 H355 0.931 . S
N344 C337 1.359 . S
N344 C345 1.327 . S
N344 Tb347 2.600 . S
C345 C343 1.392 . S
C345 N344 1.327 . S
C345 H352 0.930 . S
C346 C341 1.385 . S
C346 C343 1.370 . S
C346 H365 0.930 . S
Tb347 N344 2.600 . S
Tb347 N348 2.660 . S
Tb347 O381 2.362 . S
Tb347 O382 2.421 . S
Tb347 O386 2.546 . S
Tb347 O387 2.610 . S
Tb347 O389 2.320 . S
Tb347 O390 2.552 . S
Tb347 O391 2.413 . S
Tb347 C411 2.833 . S
N348 C340 1.360 . S
N348 Tb347 2.660 . S
N348 C349 1.305 . S
C349 N348 1.305 . S
C349 C351 1.407 . S
C349 H356 0.930 . S
C350 C338 1.410 . S
C350 C351 1.345 . S
C350 H358 0.930 . S
C351 C349 1.407 . S
C351 C350 1.345 . S
C351 H353 0.930 . S
H352 C345 0.930 . S
H353 C351 0.930 . S
H354 C342 0.930 . S
H355 C343 0.931 . S
H356 C349 0.930 . S
H357 C371 0.930 . S
H358 C350 0.930 . S
H359 C377 0.930 . S
H360 C368 0.930 . S
H361 C375 0.931 . S
H362 C339 0.929 . S
H363 C369 0.930 . S
H364 C402 0.930 . S
H365 C346 0.930 . S
H366 C401 0.929 . S
N367 Tb336 2.660 . S
N367 C368 1.305 . S
N367 C372 1.360 . S
C368 H360 0.930 . S
C368 N367 1.305 . S
C368 C371 1.407 . S
C369 H363 0.930 . S
C369 C370 1.410 . S
C369 C371 1.345 . S
C370 C369 1.410 . S
C370 C372 1.417 . S
C370 C402 1.432 . S
C371 H357 0.930 . S
C371 C368 1.407 . S
C371 C369 1.345 . S
C372 N367 1.360 . S
C372 C370 1.417 . S
C372 C376 1.432 . S
H373 C378 0.930 . S
N374 Tb336 2.600 . S
N374 C376 1.359 . S
N374 C377 1.327 . S
C375 H361 0.931 . S
C375 C377 1.392 . S
C375 C378 1.370 . S
C376 C372 1.432 . S
C376 N374 1.359 . S
C376 C379 1.414 . S
C377 H359 0.930 . S
C377 N374 1.327 . S
C377 C375 1.392 . S
C378 H373 0.930 . S
C378 C375 1.370 . S
C378 C379 1.385 . S
C379 C376 1.414 . S
C379 C378 1.385 . S
C379 C401 1.444 . S
O380 Tb336 2.546 . S
O380 C400 1.251 . S
O381 Tb336 2.610 . S
O381 Tb347 2.362 . S
O381 C392 1.283 . S
O382 Tb347 2.421 . S
O382 C399 1.262 . S
O383 Tb336 2.320 . S
O383 C399 1.260 . S
O384 Tb336 2.552 . S
O384 C392 1.243 . S
O385 Tb336 2.413 . S
O385 C400 1.256 . S
O386 Tb347 2.546 . S
O386 C411 1.251 . S
O387 Tb336 2.362 . S
O387 Tb347 2.610 . S
O387 C403 1.283 . S
O388 Tb336 2.421 . S
O388 C410 1.262 . S
O389 Tb347 2.320 . S
O389 C410 1.260 . S
O390 Tb347 2.552 . S
O390 C403 1.243 . S
O391 Tb347 2.413 . S
O391 C411 1.256 . S
C392 O381 1.283 . S
C392 O384 1.243 . S
C393 C395 1.382 . S
C393 C397 1.393 . S
C393 C400 1.500 . S
C394 C395 1.400 . S
C394 C396 1.384 . S
C395 C393 1.382 . S
C395 C394 1.400 . S
C395 H412 0.930 . S
C396 C394 1.384 . S
C396 C398 1.392 . S
C396 H413 0.931 . S
C397 C393 1.393 . S
C397 C398 1.401 . S
C397 H414 0.930 . S
C398 C396 1.392 . S
C398 C397 1.401 . S
C398 H415 0.930 . S
C399 O382 1.262 . S
C399 O383 1.260 . S
C400 Tb336 2.833 . S
C400 O380 1.251 . S
C400 O385 1.256 . S
C400 C393 1.500 . S
C401 H366 0.929 . S
C401 C379 1.444 . S
C401 C402 1.317 . S
C402 H364 0.930 . S
C402 C370 1.432 . S
C402 C401 1.317 . S
C403 O387 1.283 . S
C403 O390 1.243 . S
C404 C405 1.382 . S
C404 C408 1.393 . S
C404 C411 1.500 . S
C405 C404 1.382 . S
C405 C406 1.400 . S
C405 H416 0.930 . S
C406 C405 1.400 . S
C406 C407 1.384 . S
C407 C406 1.384 . S
C407 C409 1.392 . S
C407 H417 0.931 . S
C408 C404 1.393 . S
C408 C409 1.401 . S
C408 H418 0.930 . S
C409 C407 1.392 . S
C409 C408 1.401 . S
C409 H419 0.930 . S
C410 O388 1.262 . S
C410 O389 1.260 . S
C411 Tb347 2.833 . S
C411 O386 1.251 . S
C411 O391 1.256 . S
C411 C404 1.500 . S
H412 C395 0.930 . S
H413 C396 0.931 . S
H414 C397 0.930 . S
H415 C398 0.930 . S
H416 C405 0.930 . S
H417 C407 0.931 . S
H418 C408 0.930 . S
H419 C409 0.930 . S
Tb420 N451 2.660 . S
Tb420 N458 2.600 . S
Tb420 O464 2.546 . S
Tb420 O465 2.610 . S
Tb420 O467 2.320 . S
Tb420 O468 2.552 . S
Tb420 O469 2.413 . S
Tb420 O471 2.362 . S
Tb420 O472 2.421 . S
Tb420 C484 2.833 1_556 S
C421 C424 1.432 . S
C421 C425 1.414 . S
C421 N428 1.359 . S
C422 C424 1.417 . S
C422 C426 1.432 . S
C422 C434 1.410 . S
C423 C425 1.444 . S
C423 C426 1.317 . S
C423 H446 0.929 . S
C424 C421 1.432 . S
C424 C422 1.417 . S
C424 N432 1.360 . S
C425 C421 1.414 . S
C425 C423 1.444 . S
C425 C430 1.385 . S
C426 C422 1.432 . S
C426 C423 1.317 . S
C426 H438 0.930 . S
C427 C429 1.392 . S
C427 C430 1.370 . S
C427 H439 0.931 . S
N428 C421 1.359 . S
N428 C429 1.327 . S
N428 Tb431 2.600 . S
C429 C427 1.392 . S
C429 N428 1.327 . S
C429 H436 0.930 . S
C430 C425 1.385 . S
C430 C427 1.370 . S
C430 H449 0.930 . S
Tb431 N428 2.600 . S
Tb431 N432 2.660 . S
Tb431 O465 2.362 . S
Tb431 O466 2.421 . S
Tb431 O470 2.546 . S
Tb431 O471 2.610 . S
Tb431 O473 2.320 . S
Tb431 O474 2.552 . S
Tb431 O475 2.413 . S
Tb431 C495 2.833 . S
N432 C424 1.360 . S
N432 Tb431 2.660 . S
N432 C433 1.305 . S
C433 N432 1.305 . S
C433 C435 1.407 . S
C433 H440 0.930 . S
C434 C422 1.410 . S
C434 C435 1.345 . S
C434 H442 0.930 . S
C435 C433 1.407 . S
C435 C434 1.345 . S
C435 H437 0.930 . S
H436 C429 0.930 . S
H437 C435 0.930 . S
H438 C426 0.930 . S
H439 C427 0.931 . S
H440 C433 0.930 . S
H441 C455 0.930 . S
H442 C434 0.930 . S
H443 C461 0.930 . S
H444 C452 0.930 . S
H445 C459 0.931 . S
H446 C423 0.929 . S
H447 C453 0.930 . S
H448 C486 0.930 . S
H449 C430 0.930 . S
H450 C485 0.929 . S
N451 Tb420 2.660 . S
N451 C452 1.305 . S
N451 C456 1.360 . S
C452 H444 0.930 . S
C452 N451 1.305 . S
C452 C455 1.407 . S
C453 H447 0.930 . S
C453 C454 1.410 . S
C453 C455 1.345 . S
C454 C453 1.410 . S
C454 C456 1.417 . S
C454 C486 1.432 . S
C455 H441 0.930 . S
C455 C452 1.407 . S
C455 C453 1.345 . S
C456 N451 1.360 . S
C456 C454 1.417 . S
C456 C460 1.432 . S
H457 C462 0.930 . S
N458 Tb420 2.600 . S
N458 C460 1.359 . S
N458 C461 1.327 . S
C459 H445 0.931 . S
C459 C461 1.392 . S
C459 C462 1.370 . S
C460 C456 1.432 . S
C460 N458 1.359 . S
C460 C463 1.414 . S
C461 H443 0.930 . S
C461 N458 1.327 . S
C461 C459 1.392 . S
C462 H457 0.930 . S
C462 C459 1.370 . S
C462 C463 1.385 . S
C463 C460 1.414 . S
C463 C462 1.385 . S
C463 C485 1.444 . S
O464 Tb420 2.546 . S
O464 C484 1.251 1_556 S
O465 Tb420 2.610 . S
O465 Tb431 2.362 . S
O465 C476 1.283 . S
O466 Tb431 2.421 . S
O466 C483 1.262 . S
O467 Tb420 2.320 . S
O467 C483 1.260 . S
O468 Tb420 2.552 . S
O468 C476 1.243 . S
O469 Tb420 2.413 . S
O469 C484 1.256 1_556 S
O470 Tb431 2.546 . S
O470 C495 1.251 . S
O471 Tb420 2.362 . S
O471 Tb431 2.610 . S
O471 C487 1.283 . S
O472 Tb420 2.421 . S
O472 C494 1.262 . S
O473 Tb431 2.320 . S
O473 C494 1.260 . S
O474 Tb431 2.552 . S
O474 C487 1.243 . S
O475 Tb431 2.413 . S
O475 C495 1.256 . S
C476 O465 1.283 . S
C476 O468 1.243 . S
C477 C479 1.382 . S
C477 C481 1.393 . S
C477 C484 1.500 . S
C478 C479 1.400 . S
C478 C480 1.384 . S
C479 C477 1.382 . S
C479 C478 1.400 . S
C479 H496 0.930 . S
C480 C478 1.384 . S
C480 C482 1.392 . S
C480 H497 0.931 . S
C481 C477 1.393 . S
C481 C482 1.401 . S
C481 H498 0.930 . S
C482 C480 1.392 . S
C482 C481 1.401 . S
C482 H499 0.930 . S
C483 O466 1.262 . S
C483 O467 1.260 . S
C484 Tb420 2.833 1_554 S
C484 O464 1.251 1_554 S
C484 O469 1.256 1_554 S
C484 C477 1.500 . S
C485 H450 0.929 . S
C485 C463 1.444 . S
C485 C486 1.317 . S
C486 H448 0.930 . S
C486 C454 1.432 . S
C486 C485 1.317 . S
C487 O471 1.283 . S
C487 O474 1.243 . S
C488 C489 1.382 . S
C488 C492 1.393 . S
C488 C495 1.500 . S
C489 C488 1.382 . S
C489 C490 1.400 . S
C489 H500 0.930 . S
C490 C489 1.400 . S
C490 C491 1.384 . S
C491 C490 1.384 . S
C491 C493 1.392 . S
C491 H501 0.931 . S
C492 C488 1.393 . S
C492 C493 1.401 . S
C492 H502 0.930 . S
C493 C491 1.392 . S
C493 C492 1.401 . S
C493 H503 0.930 . S
C494 O472 1.262 . S
C494 O473 1.260 . S
C495 Tb431 2.833 . S
C495 O470 1.251 . S
C495 O475 1.256 . S
C495 C488 1.500 . S
H496 C479 0.930 . S
H497 C480 0.931 . S
H498 C481 0.930 . S
H499 C482 0.930 . S
H500 C489 0.930 . S
H501 C491 0.931 . S
H502 C492 0.930 . S
H503 C493 0.930 . S
Tb504 N535 2.660 . S
Tb504 N542 2.600 . S
Tb504 O548 2.546 . S
Tb504 O549 2.610 . S
Tb504 O551 2.320 . S
Tb504 O552 2.552 . S
Tb504 O553 2.413 . S
Tb504 O555 2.362 . S
Tb504 O556 2.421 . S
Tb504 C568 2.833 . S
C505 C508 1.432 . S
C505 C509 1.414 . S
C505 N512 1.359 . S
C506 C508 1.417 . S
C506 C510 1.432 . S
C506 C518 1.410 . S
C507 C509 1.444 . S
C507 C510 1.317 . S
C507 H530 0.929 . S
C508 C505 1.432 . S
C508 C506 1.417 . S
C508 N516 1.360 . S
C509 C505 1.414 . S
C509 C507 1.444 . S
C509 C514 1.385 . S
C510 C506 1.432 . S
C510 C507 1.317 . S
C510 H522 0.930 . S
C511 C513 1.392 . S
C511 C514 1.370 . S
C511 H523 0.931 . S
N512 C505 1.359 . S
N512 C513 1.327 . S
N512 Tb515 2.600 . S
C513 C511 1.392 . S
C513 N512 1.327 . S
C513 H520 0.930 . S
C514 C509 1.385 . S
C514 C511 1.370 . S
C514 H533 0.930 . S
Tb515 N512 2.600 . S
Tb515 N516 2.660 . S
Tb515 O549 2.362 . S
Tb515 O550 2.421 . S
Tb515 O554 2.546 . S
Tb515 O555 2.610 . S
Tb515 O557 2.320 . S
Tb515 O558 2.552 . S
Tb515 O559 2.413 . S
Tb515 C579 2.833 . S
N516 C508 1.360 . S
N516 Tb515 2.660 . S
N516 C517 1.305 . S
C517 N516 1.305 . S
C517 C519 1.407 . S
C517 H524 0.930 . S
C518 C506 1.410 . S
C518 C519 1.345 . S
C518 H526 0.930 . S
C519 C517 1.407 . S
C519 C518 1.345 . S
C519 H521 0.930 . S
H520 C513 0.930 . S
H521 C519 0.930 . S
H522 C510 0.930 . S
H523 C511 0.931 . S
H524 C517 0.930 . S
H525 C539 0.930 . S
H526 C518 0.930 . S
H527 C545 0.930 . S
H528 C536 0.930 . S
H529 C543 0.931 . S
H530 C507 0.929 . S
H531 C537 0.930 . S
H532 C570 0.930 . S
H533 C514 0.930 . S
H534 C569 0.929 . S
N535 Tb504 2.660 . S
N535 C536 1.305 . S
N535 C540 1.360 . S
C536 H528 0.930 . S
C536 N535 1.305 . S
C536 C539 1.407 . S
C537 H531 0.930 . S
C537 C538 1.410 . S
C537 C539 1.345 . S
C538 C537 1.410 . S
C538 C540 1.417 . S
C538 C570 1.432 . S
C539 H525 0.930 . S
C539 C536 1.407 . S
C539 C537 1.345 . S
C540 N535 1.360 . S
C540 C538 1.417 . S
C540 C544 1.432 . S
H541 C546 0.930 . S
N542 Tb504 2.600 . S
N542 C544 1.359 . S
N542 C545 1.327 . S
C543 H529 0.931 . S
C543 C545 1.392 . S
C543 C546 1.370 . S
C544 C540 1.432 . S
C544 N542 1.359 . S
C544 C547 1.414 . S
C545 H527 0.930 . S
C545 N542 1.327 . S
C545 C543 1.392 . S
C546 H541 0.930 . S
C546 C543 1.370 . S
C546 C547 1.385 . S
C547 C544 1.414 . S
C547 C546 1.385 . S
C547 C569 1.444 . S
O548 Tb504 2.546 . S
O548 C568 1.251 . S
O549 Tb504 2.610 . S
O549 Tb515 2.362 . S
O549 C560 1.283 . S
O550 Tb515 2.421 . S
O550 C567 1.262 . S
O551 Tb504 2.320 . S
O551 C567 1.260 . S
O552 Tb504 2.552 . S
O552 C560 1.243 . S
O553 Tb504 2.413 . S
O553 C568 1.256 . S
O554 Tb515 2.546 . S
O554 C579 1.251 . S
O555 Tb504 2.362 . S
O555 Tb515 2.610 . S
O555 C571 1.283 . S
O556 Tb504 2.421 . S
O556 C578 1.262 . S
O557 Tb515 2.320 . S
O557 C578 1.260 . S
O558 Tb515 2.552 . S
O558 C571 1.243 . S
O559 Tb515 2.413 . S
O559 C579 1.256 . S
C560 O549 1.283 . S
C560 O552 1.243 . S
C561 C563 1.382 . S
C561 C565 1.393 . S
C561 C568 1.500 . S
C562 C563 1.400 . S
C562 C564 1.384 . S
C563 C561 1.382 . S
C563 C562 1.400 . S
C563 H580 0.930 . S
C564 C562 1.384 . S
C564 C566 1.392 . S
C564 H581 0.931 . S
C565 C561 1.393 . S
C565 C566 1.401 . S
C565 H582 0.930 . S
C566 C564 1.392 . S
C566 C565 1.401 . S
C566 H583 0.930 . S
C567 O550 1.262 . S
C567 O551 1.260 . S
C568 Tb504 2.833 . S
C568 O548 1.251 . S
C568 O553 1.256 . S
C568 C561 1.500 . S
C569 H534 0.929 . S
C569 C547 1.444 . S
C569 C570 1.317 . S
C570 H532 0.930 . S
C570 C538 1.432 . S
C570 C569 1.317 . S
C571 O555 1.283 . S
C571 O558 1.243 . S
C572 C573 1.382 . S
C572 C576 1.393 . S
C572 C579 1.500 . S
C573 C572 1.382 . S
C573 C574 1.400 . S
C573 H584 0.930 . S
C574 C573 1.400 . S
C574 C575 1.384 . S
C575 C574 1.384 . S
C575 C577 1.392 . S
C575 H585 0.931 . S
C576 C572 1.393 . S
C576 C577 1.401 . S
C576 H586 0.930 . S
C577 C575 1.392 . S
C577 C576 1.401 . S
C577 H587 0.930 . S
C578 O556 1.262 . S
C578 O557 1.260 . S
C579 Tb515 2.833 . S
C579 O554 1.251 . S
C579 O559 1.256 . S
C579 C572 1.500 . S
H580 C563 0.930 . S
H581 C564 0.931 . S
H582 C565 0.930 . S
H583 C566 0.930 . S
H584 C573 0.930 . S
H585 C575 0.931 . S
H586 C576 0.930 . S
H587 C577 0.930 . S
Tb588 N619 2.660 . S
Tb588 N626 2.600 . S
Tb588 O632 2.546 . S
Tb588 O633 2.610 . S
Tb588 O635 2.320 . S
Tb588 O636 2.552 . S
Tb588 O637 2.413 . S
Tb588 O639 2.362 . S
Tb588 O640 2.421 . S
Tb588 C652 2.833 . S
C589 C592 1.432 . S
C589 C593 1.414 . S
C589 N596 1.359 . S
C590 C592 1.417 . S
C590 C594 1.432 . S
C590 C602 1.410 . S
C591 C593 1.444 . S
C591 C594 1.317 . S
C591 H614 0.929 . S
C592 C589 1.432 . S
C592 C590 1.417 . S
C592 N600 1.360 . S
C593 C589 1.414 . S
C593 C591 1.444 . S
C593 C598 1.385 . S
C594 C590 1.432 . S
C594 C591 1.317 . S
C594 H606 0.930 . S
C595 C597 1.392 . S
C595 C598 1.370 . S
C595 H607 0.931 . S
N596 C589 1.359 . S
N596 C597 1.327 . S
N596 Tb599 2.600 . S
C597 C595 1.392 . S
C597 N596 1.327 . S
C597 H604 0.930 . S
C598 C593 1.385 . S
C598 C595 1.370 . S
C598 H617 0.930 . S
Tb599 N596 2.600 . S
Tb599 N600 2.660 . S
Tb599 O633 2.362 . S
Tb599 O634 2.421 . S
Tb599 O638 2.546 . S
Tb599 O639 2.610 . S
Tb599 O641 2.320 . S
Tb599 O642 2.552 . S
Tb599 O643 2.413 . S
Tb599 C663 2.833 . S
N600 C592 1.360 . S
N600 Tb599 2.660 . S
N600 C601 1.305 . S
C601 N600 1.305 . S
C601 C603 1.407 . S
C601 H608 0.930 . S
C602 C590 1.410 . S
C602 C603 1.345 . S
C602 H610 0.930 . S
C603 C601 1.407 . S
C603 C602 1.345 . S
C603 H605 0.930 . S
H604 C597 0.930 . S
H605 C603 0.930 . S
H606 C594 0.930 . S
H607 C595 0.931 . S
H608 C601 0.930 . S
H609 C623 0.930 . S
H610 C602 0.930 . S
H611 C629 0.930 . S
H612 C620 0.930 . S
H613 C627 0.931 . S
H614 C591 0.929 . S
H615 C621 0.930 . S
H616 C654 0.930 . S
H617 C598 0.930 . S
H618 C653 0.929 . S
N619 Tb588 2.660 . S
N619 C620 1.305 . S
N619 C624 1.360 . S
C620 H612 0.930 . S
C620 N619 1.305 . S
C620 C623 1.407 . S
C621 H615 0.930 . S
C621 C622 1.410 . S
C621 C623 1.345 . S
C622 C621 1.410 . S
C622 C624 1.417 . S
C622 C654 1.432 . S
C623 H609 0.930 . S
C623 C620 1.407 . S
C623 C621 1.345 . S
C624 N619 1.360 . S
C624 C622 1.417 . S
C624 C628 1.432 . S
H625 C630 0.930 . S
N626 Tb588 2.600 . S
N626 C628 1.359 . S
N626 C629 1.327 . S
C627 H613 0.931 . S
C627 C629 1.392 . S
C627 C630 1.370 . S
C628 C624 1.432 . S
C628 N626 1.359 . S
C628 C631 1.414 . S
C629 H611 0.930 . S
C629 N626 1.327 . S
C629 C627 1.392 . S
C630 H625 0.930 . S
C630 C627 1.370 . S
C630 C631 1.385 . S
C631 C628 1.414 . S
C631 C630 1.385 . S
C631 C653 1.444 . S
O632 Tb588 2.546 . S
O632 C652 1.251 . S
O633 Tb588 2.610 . S
O633 Tb599 2.362 . S
O633 C644 1.283 . S
O634 Tb599 2.421 . S
O634 C651 1.262 . S
O635 Tb588 2.320 . S
O635 C651 1.260 . S
O636 Tb588 2.552 . S
O636 C644 1.243 . S
O637 Tb588 2.413 . S
O637 C652 1.256 . S
O638 Tb599 2.546 . S
O638 C663 1.251 . S
O639 Tb588 2.362 . S
O639 Tb599 2.610 . S
O639 C655 1.283 . S
O640 Tb588 2.421 . S
O640 C662 1.262 . S
O641 Tb599 2.320 . S
O641 C662 1.260 . S
O642 Tb599 2.552 . S
O642 C655 1.243 . S
O643 Tb599 2.413 . S
O643 C663 1.256 . S
C644 O633 1.283 . S
C644 O636 1.243 . S
C645 C647 1.382 . S
C645 C649 1.393 . S
C645 C652 1.500 . S
C646 C647 1.400 . S
C646 C648 1.384 . S
C647 C645 1.382 . S
C647 C646 1.400 . S
C647 H664 0.930 . S
C648 C646 1.384 . S
C648 C650 1.392 . S
C648 H665 0.931 . S
C649 C645 1.393 . S
C649 C650 1.401 . S
C649 H666 0.930 . S
C650 C648 1.392 . S
C650 C649 1.401 . S
C650 H667 0.930 . S
C651 O634 1.262 . S
C651 O635 1.260 . S
C652 Tb588 2.833 . S
C652 O632 1.251 . S
C652 O637 1.256 . S
C652 C645 1.500 . S
C653 H618 0.929 . S
C653 C631 1.444 . S
C653 C654 1.317 . S
C654 H616 0.930 . S
C654 C622 1.432 . S
C654 C653 1.317 . S
C655 O639 1.283 . S
C655 O642 1.243 . S
C656 C657 1.382 . S
C656 C660 1.393 . S
C656 C663 1.500 . S
C657 C656 1.382 . S
C657 C658 1.400 . S
C657 H668 0.930 . S
C658 C657 1.400 . S
C658 C659 1.384 . S
C659 C658 1.384 . S
C659 C661 1.392 . S
C659 H669 0.931 . S
C660 C656 1.393 . S
C660 C661 1.401 . S
C660 H670 0.930 . S
C661 C659 1.392 . S
C661 C660 1.401 . S
C661 H671 0.930 . S
C662 O640 1.262 . S
C662 O641 1.260 . S
C663 Tb599 2.833 . S
C663 O638 1.251 . S
C663 O643 1.256 . S
C663 C656 1.500 . S
H664 C647 0.930 . S
H665 C648 0.931 . S
H666 C649 0.930 . S
H667 C650 0.930 . S
H668 C657 0.930 . S
H669 C659 0.931 . S
H670 C660 0.930 . S
H671 C661 0.930 . S
Tb672 N703 2.660 . S
Tb672 N710 2.600 . S
Tb672 O716 2.546 . S
Tb672 O717 2.610 . S
Tb672 O719 2.320 . S
Tb672 O720 2.552 . S
Tb672 O721 2.413 . S
Tb672 O723 2.362 . S
Tb672 O724 2.421 . S
Tb672 C736 2.833 1_554 S
C673 C676 1.432 . S
C673 C677 1.414 . S
C673 N680 1.359 . S
C674 C676 1.417 . S
C674 C678 1.432 . S
C674 C686 1.410 . S
C675 C677 1.444 . S
C675 C678 1.317 . S
C675 H698 0.929 . S
C676 C673 1.432 . S
C676 C674 1.417 . S
C676 N684 1.360 . S
C677 C673 1.414 . S
C677 C675 1.444 . S
C677 C682 1.385 . S
C678 C674 1.432 . S
C678 C675 1.317 . S
C678 H690 0.930 . S
C679 C681 1.392 . S
C679 C682 1.370 . S
C679 H691 0.931 . S
N680 C673 1.359 . S
N680 C681 1.327 . S
N680 Tb683 2.600 . S
C681 C679 1.392 . S
C681 N680 1.327 . S
C681 H688 0.930 . S
C682 C677 1.385 . S
C682 C679 1.370 . S
C682 H701 0.930 . S
Tb683 N680 2.600 . S
Tb683 N684 2.660 . S
Tb683 O717 2.362 . S
Tb683 O718 2.421 . S
Tb683 O722 2.546 . S
Tb683 O723 2.610 . S
Tb683 O725 2.320 . S
Tb683 O726 2.552 . S
Tb683 O727 2.413 . S
Tb683 C747 2.833 . S
N684 C676 1.360 . S
N684 Tb683 2.660 . S
N684 C685 1.305 . S
C685 N684 1.305 . S
C685 C687 1.407 . S
C685 H692 0.930 . S
C686 C674 1.410 . S
C686 C687 1.345 . S
C686 H694 0.930 . S
C687 C685 1.407 . S
C687 C686 1.345 . S
C687 H689 0.930 . S
H688 C681 0.930 . S
H689 C687 0.930 . S
H690 C678 0.930 . S
H691 C679 0.931 . S
H692 C685 0.930 . S
H693 C707 0.930 . S
H694 C686 0.930 . S
H695 C713 0.930 . S
H696 C704 0.930 . S
H697 C711 0.931 . S
H698 C675 0.929 . S
H699 C705 0.930 . S
H700 C738 0.930 . S
H701 C682 0.930 . S
H702 C737 0.929 . S
N703 Tb672 2.660 . S
N703 C704 1.305 . S
N703 C708 1.360 . S
C704 H696 0.930 . S
C704 N703 1.305 . S
C704 C707 1.407 . S
C705 H699 0.930 . S
C705 C706 1.410 . S
C705 C707 1.345 . S
C706 C705 1.410 . S
C706 C708 1.417 . S
C706 C738 1.432 . S
C707 H693 0.930 . S
C707 C704 1.407 . S
C707 C705 1.345 . S
C708 N703 1.360 . S
C708 C706 1.417 . S
C708 C712 1.432 . S
H709 C714 0.930 . S
N710 Tb672 2.600 . S
N710 C712 1.359 . S
N710 C713 1.327 . S
C711 H697 0.931 . S
C711 C713 1.392 . S
C711 C714 1.370 . S
C712 C708 1.432 . S
C712 N710 1.359 . S
C712 C715 1.414 . S
C713 H695 0.930 . S
C713 N710 1.327 . S
C713 C711 1.392 . S
C714 H709 0.930 . S
C714 C711 1.370 . S
C714 C715 1.385 . S
C715 C712 1.414 . S
C715 C714 1.385 . S
C715 C737 1.444 . S
O716 Tb672 2.546 . S
O716 C736 1.251 1_554 S
O717 Tb672 2.610 . S
O717 Tb683 2.362 . S
O717 C728 1.283 . S
O718 Tb683 2.421 . S
O718 C735 1.262 . S
O719 Tb672 2.320 . S
O719 C735 1.260 . S
O720 Tb672 2.552 . S
O720 C728 1.243 . S
O721 Tb672 2.413 . S
O721 C736 1.256 1_554 S
O722 Tb683 2.546 . S
O722 C747 1.251 . S
O723 Tb672 2.362 . S
O723 Tb683 2.610 . S
O723 C739 1.283 . S
O724 Tb672 2.421 . S
O724 C746 1.262 . S
O725 Tb683 2.320 . S
O725 C746 1.260 . S
O726 Tb683 2.552 . S
O726 C739 1.243 . S
O727 Tb683 2.413 . S
O727 C747 1.256 . S
C728 O717 1.283 . S
C728 O720 1.243 . S
C729 C731 1.382 . S
C729 C733 1.393 . S
C729 C736 1.500 . S
C730 C731 1.400 . S
C730 C732 1.384 . S
C731 C729 1.382 . S
C731 C730 1.400 . S
C731 H748 0.930 . S
C732 C730 1.384 . S
C732 C734 1.392 . S
C732 H749 0.931 . S
C733 C729 1.393 . S
C733 C734 1.401 . S
C733 H750 0.930 . S
C734 C732 1.392 . S
C734 C733 1.401 . S
C734 H751 0.930 . S
C735 O718 1.262 . S
C735 O719 1.260 . S
C736 Tb672 2.833 1_556 S
C736 O716 1.251 1_556 S
C736 O721 1.256 1_556 S
C736 C729 1.500 . S
C737 H702 0.929 . S
C737 C715 1.444 . S
C737 C738 1.317 . S
C738 H700 0.930 . S
C738 C706 1.432 . S
C738 C737 1.317 . S
C739 O723 1.283 . S
C739 O726 1.243 . S
C740 C741 1.382 . S
C740 C744 1.393 . S
C740 C747 1.500 . S
C741 C740 1.382 . S
C741 C742 1.400 . S
C741 H752 0.930 . S
C742 C741 1.400 . S
C742 C743 1.384 . S
C743 C742 1.384 . S
C743 C745 1.392 . S
C743 H753 0.931 . S
C744 C740 1.393 . S
C744 C745 1.401 . S
C744 H754 0.930 . S
C745 C743 1.392 . S
C745 C744 1.401 . S
C745 H755 0.930 . S
C746 O724 1.262 . S
C746 O725 1.260 . S
C747 Tb683 2.833 . S
C747 O722 1.251 . S
C747 O727 1.256 . S
C747 C740 1.500 . S
H748 C731 0.930 . S
H749 C732 0.931 . S
H750 C733 0.930 . S
H751 C734 0.930 . S
H752 C741 0.930 . S
H753 C743 0.931 . S
H754 C744 0.930 . S
H755 C745 0.930 . S
Tb756 N787 2.660 . S
Tb756 N794 2.600 . S
Tb756 O800 2.546 . S
Tb756 O801 2.610 . S
Tb756 O803 2.320 . S
Tb756 O804 2.552 . S
Tb756 O805 2.413 . S
Tb756 O807 2.362 . S
Tb756 O808 2.421 . S
Tb756 C820 2.833 . S
C757 C760 1.432 . S
C757 C761 1.414 . S
C757 N764 1.359 . S
C758 C760 1.417 . S
C758 C762 1.432 . S
C758 C770 1.410 . S
C759 C761 1.444 . S
C759 C762 1.317 . S
C759 H782 0.929 . S
C760 C757 1.432 . S
C760 C758 1.417 . S
C760 N768 1.360 . S
C761 C757 1.414 . S
C761 C759 1.444 . S
C761 C766 1.385 . S
C762 C758 1.432 . S
C762 C759 1.317 . S
C762 H774 0.930 . S
C763 C765 1.392 . S
C763 C766 1.370 . S
C763 H775 0.931 . S
N764 C757 1.359 . S
N764 C765 1.327 . S
N764 Tb767 2.600 . S
C765 C763 1.392 . S
C765 N764 1.327 . S
C765 H772 0.930 . S
C766 C761 1.385 . S
C766 C763 1.370 . S
C766 H785 0.930 . S
Tb767 N764 2.600 . S
Tb767 N768 2.660 . S
Tb767 O801 2.362 . S
Tb767 O802 2.421 . S
Tb767 O806 2.546 . S
Tb767 O807 2.610 . S
Tb767 O809 2.320 . S
Tb767 O810 2.552 . S
Tb767 O811 2.413 . S
Tb767 C831 2.833 . S
N768 C760 1.360 . S
N768 Tb767 2.660 . S
N768 C769 1.305 . S
C769 N768 1.305 . S
C769 C771 1.407 . S
C769 H776 0.930 . S
C770 C758 1.410 . S
C770 C771 1.345 . S
C770 H778 0.930 . S
C771 C769 1.407 . S
C771 C770 1.345 . S
C771 H773 0.930 . S
H772 C765 0.930 . S
H773 C771 0.930 . S
H774 C762 0.930 . S
H775 C763 0.931 . S
H776 C769 0.930 . S
H777 C791 0.930 . S
H778 C770 0.930 . S
H779 C797 0.930 . S
H780 C788 0.930 . S
H781 C795 0.931 . S
H782 C759 0.929 . S
H783 C789 0.930 . S
H784 C822 0.930 . S
H785 C766 0.930 . S
H786 C821 0.929 . S
N787 Tb756 2.660 . S
N787 C788 1.305 . S
N787 C792 1.360 . S
C788 H780 0.930 . S
C788 N787 1.305 . S
C788 C791 1.407 . S
C789 H783 0.930 . S
C789 C790 1.410 . S
C789 C791 1.345 . S
C790 C789 1.410 . S
C790 C792 1.417 . S
C790 C822 1.432 . S
C791 H777 0.930 . S
C791 C788 1.407 . S
C791 C789 1.345 . S
C792 N787 1.360 . S
C792 C790 1.417 . S
C792 C796 1.432 . S
H793 C798 0.930 . S
N794 Tb756 2.600 . S
N794 C796 1.359 . S
N794 C797 1.327 . S
C795 H781 0.931 . S
C795 C797 1.392 . S
C795 C798 1.370 . S
C796 C792 1.432 . S
C796 N794 1.359 . S
C796 C799 1.414 . S
C797 H779 0.930 . S
C797 N794 1.327 . S
C797 C795 1.392 . S
C798 H793 0.930 . S
C798 C795 1.370 . S
C798 C799 1.385 . S
C799 C796 1.414 . S
C799 C798 1.385 . S
C799 C821 1.444 . S
O800 Tb756 2.546 . S
O800 C820 1.251 . S
O801 Tb756 2.610 . S
O801 Tb767 2.362 . S
O801 C812 1.283 . S
O802 Tb767 2.421 . S
O802 C819 1.262 . S
O803 Tb756 2.320 . S
O803 C819 1.260 . S
O804 Tb756 2.552 . S
O804 C812 1.243 . S
O805 Tb756 2.413 . S
O805 C820 1.256 . S
O806 Tb767 2.546 . S
O806 C831 1.251 . S
O807 Tb756 2.362 . S
O807 Tb767 2.610 . S
O807 C823 1.283 . S
O808 Tb756 2.421 . S
O808 C830 1.262 . S
O809 Tb767 2.320 . S
O809 C830 1.260 . S
O810 Tb767 2.552 . S
O810 C823 1.243 . S
O811 Tb767 2.413 . S
O811 C831 1.256 . S
C812 O801 1.283 . S
C812 O804 1.243 . S
C813 C815 1.382 . S
C813 C817 1.393 . S
C813 C820 1.500 . S
C814 C815 1.400 . S
C814 C816 1.384 . S
C815 C813 1.382 . S
C815 C814 1.400 . S
C815 H832 0.930 . S
C816 C814 1.384 . S
C816 C818 1.392 . S
C816 H833 0.931 . S
C817 C813 1.393 . S
C817 C818 1.401 . S
C817 H834 0.930 . S
C818 C816 1.392 . S
C818 C817 1.401 . S
C818 H835 0.930 . S
C819 O802 1.262 . S
C819 O803 1.260 . S
C820 Tb756 2.833 . S
C820 O800 1.251 . S
C820 O805 1.256 . S
C820 C813 1.500 . S
C821 H786 0.929 . S
C821 C799 1.444 . S
C821 C822 1.317 . S
C822 H784 0.930 . S
C822 C790 1.432 . S
C822 C821 1.317 . S
C823 O807 1.283 . S
C823 O810 1.243 . S
C824 C825 1.382 . S
C824 C828 1.393 . S
C824 C831 1.500 . S
C825 C824 1.382 . S
C825 C826 1.400 . S
C825 H836 0.930 . S
C826 C825 1.400 . S
C826 C827 1.384 . S
C827 C826 1.384 . S
C827 C829 1.392 . S
C827 H837 0.931 . S
C828 C824 1.393 . S
C828 C829 1.401 . S
C828 H838 0.930 . S
C829 C827 1.392 . S
C829 C828 1.401 . S
C829 H839 0.930 . S
C830 O808 1.262 . S
C830 O809 1.260 . S
C831 Tb767 2.833 . S
C831 O806 1.251 . S
C831 O811 1.256 . S
C831 C824 1.500 . S
H832 C815 0.930 . S
H833 C816 0.931 . S
H834 C817 0.930 . S
H835 C818 0.930 . S
H836 C825 0.930 . S
H837 C827 0.931 . S
H838 C828 0.930 . S
H839 C829 0.930 . S
Tb840 N871 2.660 . S
Tb840 N878 2.600 . S
Tb840 O884 2.546 . S
Tb840 O885 2.610 . S
Tb840 O887 2.320 . S
Tb840 O888 2.552 . S
Tb840 O889 2.413 . S
Tb840 O891 2.362 . S
Tb840 O892 2.421 . S
Tb840 C904 2.833 . S
C841 C844 1.432 . S
C841 C845 1.414 . S
C841 N848 1.359 . S
C842 C844 1.417 . S
C842 C846 1.432 . S
C842 C854 1.410 . S
C843 C845 1.444 . S
C843 C846 1.317 . S
C843 H866 0.929 . S
C844 C841 1.432 . S
C844 C842 1.417 . S
C844 N852 1.360 . S
C845 C841 1.414 . S
C845 C843 1.444 . S
C845 C850 1.385 . S
C846 C842 1.432 . S
C846 C843 1.317 . S
C846 H858 0.930 . S
C847 C849 1.392 . S
C847 C850 1.370 . S
C847 H859 0.931 . S
N848 C841 1.359 . S
N848 C849 1.327 . S
N848 Tb851 2.600 . S
C849 C847 1.392 . S
C849 N848 1.327 . S
C849 H856 0.930 . S
C850 C845 1.385 . S
C850 C847 1.370 . S
C850 H869 0.930 . S
Tb851 N848 2.600 . S
Tb851 N852 2.660 . S
Tb851 O885 2.362 . S
Tb851 O886 2.421 . S
Tb851 O890 2.546 . S
Tb851 O891 2.610 . S
Tb851 O893 2.320 . S
Tb851 O894 2.552 . S
Tb851 O895 2.413 . S
Tb851 C915 2.833 . S
N852 C844 1.360 . S
N852 Tb851 2.660 . S
N852 C853 1.305 . S
C853 N852 1.305 . S
C853 C855 1.407 . S
C853 H860 0.930 . S
C854 C842 1.410 . S
C854 C855 1.345 . S
C854 H862 0.930 . S
C855 C853 1.407 . S
C855 C854 1.345 . S
C855 H857 0.930 . S
H856 C849 0.930 . S
H857 C855 0.930 . S
H858 C846 0.930 . S
H859 C847 0.931 . S
H860 C853 0.930 . S
H861 C875 0.930 . S
H862 C854 0.930 . S
H863 C881 0.930 . S
H864 C872 0.930 . S
H865 C879 0.931 . S
H866 C843 0.929 . S
H867 C873 0.930 . S
H868 C906 0.930 . S
H869 C850 0.930 . S
H870 C905 0.929 . S
N871 Tb840 2.660 . S
N871 C872 1.305 . S
N871 C876 1.360 . S
C872 H864 0.930 . S
C872 N871 1.305 . S
C872 C875 1.407 . S
C873 H867 0.930 . S
C873 C874 1.410 . S
C873 C875 1.345 . S
C874 C873 1.410 . S
C874 C876 1.417 . S
C874 C906 1.432 . S
C875 H861 0.930 . S
C875 C872 1.407 . S
C875 C873 1.345 . S
C876 N871 1.360 . S
C876 C874 1.417 . S
C876 C880 1.432 . S
H877 C882 0.930 . S
N878 Tb840 2.600 . S
N878 C880 1.359 . S
N878 C881 1.327 . S
C879 H865 0.931 . S
C879 C881 1.392 . S
C879 C882 1.370 . S
C880 C876 1.432 . S
C880 N878 1.359 . S
C880 C883 1.414 . S
C881 H863 0.930 . S
C881 N878 1.327 . S
C881 C879 1.392 . S
C882 H877 0.930 . S
C882 C879 1.370 . S
C882 C883 1.385 . S
C883 C880 1.414 . S
C883 C882 1.385 . S
C883 C905 1.444 . S
O884 Tb840 2.546 . S
O884 C904 1.251 . S
O885 Tb840 2.610 . S
O885 Tb851 2.362 . S
O885 C896 1.283 . S
O886 Tb851 2.421 . S
O886 C903 1.262 . S
O887 Tb840 2.320 . S
O887 C903 1.260 . S
O888 Tb840 2.552 . S
O888 C896 1.243 . S
O889 Tb840 2.413 . S
O889 C904 1.256 . S
O890 Tb851 2.546 . S
O890 C915 1.251 . S
O891 Tb840 2.362 . S
O891 Tb851 2.610 . S
O891 C907 1.283 . S
O892 Tb840 2.421 . S
O892 C914 1.262 . S
O893 Tb851 2.320 . S
O893 C914 1.260 . S
O894 Tb851 2.552 . S
O894 C907 1.243 . S
O895 Tb851 2.413 . S
O895 C915 1.256 . S
C896 O885 1.283 . S
C896 O888 1.243 . S
C897 C899 1.382 . S
C897 C901 1.393 . S
C897 C904 1.500 . S
C898 C899 1.400 . S
C898 C900 1.384 . S
C899 C897 1.382 . S
C899 C898 1.400 . S
C899 H916 0.930 . S
C900 C898 1.384 . S
C900 C902 1.392 . S
C900 H917 0.931 . S
C901 C897 1.393 . S
C901 C902 1.401 . S
C901 H918 0.930 . S
C902 C900 1.392 . S
C902 C901 1.401 . S
C902 H919 0.930 . S
C903 O886 1.262 . S
C903 O887 1.260 . S
C904 Tb840 2.833 . S
C904 O884 1.251 . S
C904 O889 1.256 . S
C904 C897 1.500 . S
C905 H870 0.929 . S
C905 C883 1.444 . S
C905 C906 1.317 . S
C906 H868 0.930 . S
C906 C874 1.432 . S
C906 C905 1.317 . S
C907 O891 1.283 . S
C907 O894 1.243 . S
C908 C909 1.382 . S
C908 C912 1.393 . S
C908 C915 1.500 . S
C909 C908 1.382 . S
C909 C910 1.400 . S
C909 H920 0.930 . S
C910 C909 1.400 . S
C910 C911 1.384 . S
C911 C910 1.384 . S
C911 C913 1.392 . S
C911 H921 0.931 . S
C912 C908 1.393 . S
C912 C913 1.401 . S
C912 H922 0.930 . S
C913 C911 1.392 . S
C913 C912 1.401 . S
C913 H923 0.930 . S
C914 O892 1.262 . S
C914 O893 1.260 . S
C915 Tb851 2.833 . S
C915 O890 1.251 . S
C915 O895 1.256 . S
C915 C908 1.500 . S
H916 C899 0.930 . S
H917 C900 0.931 . S
H918 C901 0.930 . S
H919 C902 0.930 . S
H920 C909 0.930 . S
H921 C911 0.931 . S
H922 C912 0.930 . S
H923 C913 0.930 . S
Tb924 N955 2.660 . S
Tb924 N962 2.600 . S
Tb924 O968 2.546 . S
Tb924 O969 2.610 . S
Tb924 O971 2.320 . S
Tb924 O972 2.552 . S
Tb924 O973 2.413 . S
Tb924 O975 2.362 . S
Tb924 O976 2.421 . S
Tb924 C988 2.833 1_554 S
C925 C928 1.432 . S
C925 C929 1.414 . S
C925 N932 1.359 . S
C926 C928 1.417 . S
C926 C930 1.432 . S
C926 C938 1.410 . S
C927 C929 1.444 . S
C927 C930 1.317 . S
C927 H950 0.929 . S
C928 C925 1.432 . S
C928 C926 1.417 . S
C928 N936 1.360 . S
C929 C925 1.414 . S
C929 C927 1.444 . S
C929 C934 1.385 . S
C930 C926 1.432 . S
C930 C927 1.317 . S
C930 H942 0.930 . S
C931 C933 1.392 . S
C931 C934 1.370 . S
C931 H943 0.931 . S
N932 C925 1.359 . S
N932 C933 1.327 . S
N932 Tb935 2.600 . S
C933 C931 1.392 . S
C933 N932 1.327 . S
C933 H940 0.930 . S
C934 C929 1.385 . S
C934 C931 1.370 . S
C934 H953 0.930 . S
Tb935 N932 2.600 . S
Tb935 N936 2.660 . S
Tb935 O969 2.362 . S
Tb935 O970 2.421 . S
Tb935 O974 2.546 . S
Tb935 O975 2.610 . S
Tb935 O977 2.320 . S
Tb935 O978 2.552 . S
Tb935 O979 2.413 . S
Tb935 C999 2.833 . S
N936 C928 1.360 . S
N936 Tb935 2.660 . S
N936 C937 1.305 . S
C937 N936 1.305 . S
C937 C939 1.407 . S
C937 H944 0.930 . S
C938 C926 1.410 . S
C938 C939 1.345 . S
C938 H946 0.930 . S
C939 C937 1.407 . S
C939 C938 1.345 . S
C939 H941 0.930 . S
H940 C933 0.930 . S
H941 C939 0.930 . S
H942 C930 0.930 . S
H943 C931 0.931 . S
H944 C937 0.930 . S
H945 C959 0.930 . S
H946 C938 0.930 . S
H947 C965 0.930 . S
H948 C956 0.930 . S
H949 C963 0.931 . S
H950 C927 0.929 . S
H951 C957 0.930 . S
H952 C990 0.930 . S
H953 C934 0.930 . S
H954 C989 0.929 . S
N955 Tb924 2.660 . S
N955 C956 1.305 . S
N955 C960 1.360 . S
C956 H948 0.930 . S
C956 N955 1.305 . S
C956 C959 1.407 . S
C957 H951 0.930 . S
C957 C958 1.410 . S
C957 C959 1.345 . S
C958 C957 1.410 . S
C958 C960 1.417 . S
C958 C990 1.432 . S
C959 H945 0.930 . S
C959 C956 1.407 . S
C959 C957 1.345 . S
C960 N955 1.360 . S
C960 C958 1.417 . S
C960 C964 1.432 . S
H961 C966 0.930 . S
N962 Tb924 2.600 . S
N962 C964 1.359 . S
N962 C965 1.327 . S
C963 H949 0.931 . S
C963 C965 1.392 . S
C963 C966 1.370 . S
C964 C960 1.432 . S
C964 N962 1.359 . S
C964 C967 1.414 . S
C965 H947 0.930 . S
C965 N962 1.327 . S
C965 C963 1.392 . S
C966 H961 0.930 . S
C966 C963 1.370 . S
C966 C967 1.385 . S
C967 C964 1.414 . S
C967 C966 1.385 . S
C967 C989 1.444 . S
O968 Tb924 2.546 . S
O968 C988 1.251 1_554 S
O969 Tb924 2.610 . S
O969 Tb935 2.362 . S
O969 C980 1.283 . S
O970 Tb935 2.421 . S
O970 C987 1.262 . S
O971 Tb924 2.320 . S
O971 C987 1.260 . S
O972 Tb924 2.552 . S
O972 C980 1.243 . S
O973 Tb924 2.413 . S
O973 C988 1.256 1_554 S
O974 Tb935 2.546 . S
O974 C999 1.251 . S
O975 Tb924 2.362 . S
O975 Tb935 2.610 . S
O975 C991 1.283 . S
O976 Tb924 2.421 . S
O976 C998 1.262 . S
O977 Tb935 2.320 . S
O977 C998 1.260 . S
O978 Tb935 2.552 . S
O978 C991 1.243 . S
O979 Tb935 2.413 . S
O979 C999 1.256 . S
C980 O969 1.283 . S
C980 O972 1.243 . S
C981 C983 1.382 . S
C981 C985 1.393 . S
C981 C988 1.500 . S
C982 C983 1.400 . S
C982 C984 1.384 . S
C983 C981 1.382 . S
C983 C982 1.400 . S
C983 H1000 0.930 . S
C984 C982 1.384 . S
C984 C986 1.392 . S
C984 H1001 0.931 . S
C985 C981 1.393 . S
C985 C986 1.401 . S
C985 H1002 0.930 . S
C986 C984 1.392 . S
C986 C985 1.401 . S
C986 H1003 0.930 . S
C987 O970 1.262 . S
C987 O971 1.260 . S
C988 Tb924 2.833 1_556 S
C988 O968 1.251 1_556 S
C988 O973 1.256 1_556 S
C988 C981 1.500 . S
C989 H954 0.929 . S
C989 C967 1.444 . S
C989 C990 1.317 . S
C990 H952 0.930 . S
C990 C958 1.432 . S
C990 C989 1.317 . S
C991 O975 1.283 . S
C991 O978 1.243 . S
C992 C993 1.382 . S
C992 C996 1.393 . S
C992 C999 1.500 . S
C993 C992 1.382 . S
C993 C994 1.400 . S
C993 H1004 0.930 . S
C994 C993 1.400 . S
C994 C995 1.384 . S
C995 C994 1.384 . S
C995 C997 1.392 . S
C995 H1005 0.931 . S
C996 C992 1.393 . S
C996 C997 1.401 . S
C996 H1006 0.930 . S
C997 C995 1.392 . S
C997 C996 1.401 . S
C997 H1007 0.930 . S
C998 O976 1.262 . S
C998 O977 1.260 . S
C999 Tb935 2.833 . S
C999 O974 1.251 . S
C999 O979 1.256 . S
C999 C992 1.500 . S
H1000 C983 0.930 . S
H1001 C984 0.931 . S
H1002 C985 0.930 . S
H1003 C986 0.930 . S
H1004 C993 0.930 . S
H1005 C995 0.931 . S
H1006 C996 0.930 . S
H1007 C997 0.930 . S
H1008 C1016 0.929 . S
H1009 C1018 0.930 . S
H1010 C1020 0.930 . S
H1011 C1023 0.929 . S
H1012 C1026 0.930 . S
H1013 C1028 0.960 . S
H1014 C1028 0.960 . S
H1015 C1028 0.960 . S
C1016 H1008 0.929 . S
C1016 C1017 1.377 . S
C1016 C1018 1.384 . S
C1017 C1016 1.377 . S
C1017 C1023 1.390 . S
C1018 H1009 0.930 . S
C1018 C1016 1.384 . S
C1018 C1019 1.372 . S
C1019 C1018 1.372 . S
C1019 C1020 1.400 . S
C1019 C1024 1.490 . S
C1020 H1010 0.930 . S
C1020 C1019 1.400 . S
C1020 C1023 1.386 . S
H1021 C1037 0.930 . S
H1022 C1038 0.931 . S
C1023 H1011 0.929 . S
C1023 C1017 1.390 . S
C1023 C1020 1.386 . S
C1024 C1019 1.490 . S
C1024 C1026 1.395 . S
C1024 C1027 1.403 . S
H1025 C1031 0.930 . S
C1026 H1012 0.930 . S
C1026 C1024 1.395 . S
C1026 C1029 1.403 . S
C1027 C1024 1.403 . S
C1027 C1028 1.524 . S
C1027 C1031 1.400 . S
C1028 H1013 0.960 . S
C1028 H1014 0.960 . S
C1028 H1015 0.960 . S
C1028 C1027 1.524 . S
C1029 C1026 1.403 . S
C1029 C1030 1.392 . S
C1029 C1033 1.495 . S
C1030 C1029 1.392 . S
C1030 C1031 1.385 . S
C1030 C1032 1.478 . S
C1031 H1025 0.930 . S
C1031 C1027 1.400 . S
C1031 C1030 1.385 . S
C1032 C1030 1.478 . S
C1032 C1034 1.381 . S
C1032 C1038 1.383 . S
C1033 C1029 1.495 . S
C1033 H1039 0.959 . S
C1033 H1040 0.961 . S
C1033 H1041 0.960 . S
C1034 C1032 1.381 . S
C1034 C1035 1.394 . S
C1034 H1042 0.930 . S
C1035 C1034 1.394 . S
C1035 C1036 1.383 . S
C1035 H1043 0.929 . S
C1036 C1035 1.383 . S
C1036 C1037 1.377 . S
C1037 H1021 0.930 . S
C1037 C1036 1.377 . S
C1037 C1038 1.379 . S
C1038 H1022 0.931 . S
C1038 C1032 1.383 . S
C1038 C1037 1.379 . S
H1039 C1033 0.959 . S
H1040 C1033 0.961 . S
H1041 C1033 0.960 . S
H1042 C1034 0.930 . S
H1043 C1035 0.929 . S
H1044 C1052 0.929 . S
H1045 C1054 0.930 . S
H1046 C1056 0.930 . S
H1047 C1059 0.929 . S
H1048 C1062 0.930 . S
H1049 C1064 0.960 . S
H1050 C1064 0.960 . S
H1051 C1064 0.960 . S
C1052 H1044 0.929 . S
C1052 C1053 1.377 . S
C1052 C1054 1.384 . S
C1053 C1052 1.377 . S
C1053 C1059 1.390 . S
C1054 H1045 0.930 . S
C1054 C1052 1.384 . S
C1054 C1055 1.372 . S
C1055 C1054 1.372 . S
C1055 C1056 1.400 . S
C1055 C1060 1.490 . S
C1056 H1046 0.930 . S
C1056 C1055 1.400 . S
C1056 C1059 1.386 . S
H1057 C1073 0.930 . S
H1058 C1074 0.931 . S
C1059 H1047 0.929 . S
C1059 C1053 1.390 . S
C1059 C1056 1.386 . S
C1060 C1055 1.490 . S
C1060 C1062 1.395 . S
C1060 C1063 1.403 . S
H1061 C1067 0.930 . S
C1062 H1048 0.930 . S
C1062 C1060 1.395 . S
C1062 C1065 1.403 . S
C1063 C1060 1.403 . S
C1063 C1064 1.524 . S
C1063 C1067 1.400 . S
C1064 H1049 0.960 . S
C1064 H1050 0.960 . S
C1064 H1051 0.960 . S
C1064 C1063 1.524 . S
C1065 C1062 1.403 . S
C1065 C1066 1.392 . S
C1065 C1069 1.495 . S
C1066 C1065 1.392 . S
C1066 C1067 1.385 . S
C1066 C1068 1.478 . S
C1067 H1061 0.930 . S
C1067 C1063 1.400 . S
C1067 C1066 1.385 . S
C1068 C1066 1.478 . S
C1068 C1070 1.381 . S
C1068 C1074 1.383 . S
C1069 C1065 1.495 . S
C1069 H1075 0.959 . S
C1069 H1076 0.961 . S
C1069 H1077 0.960 . S
C1070 C1068 1.381 . S
C1070 C1071 1.394 . S
C1070 H1078 0.930 . S
C1071 C1070 1.394 . S
C1071 C1072 1.383 . S
C1071 H1079 0.929 . S
C1072 C1071 1.383 . S
C1072 C1073 1.377 . S
C1073 H1057 0.930 . S
C1073 C1072 1.377 . S
C1073 C1074 1.379 . S
C1074 H1058 0.931 . S
C1074 C1068 1.383 . S
C1074 C1073 1.379 . S
H1075 C1069 0.959 . S
H1076 C1069 0.961 . S
H1077 C1069 0.960 . S
H1078 C1070 0.930 . S
H1079 C1071 0.929 . S
H1080 C1088 0.929 . S
H1081 C1090 0.930 . S
H1082 C1092 0.930 . S
H1083 C1095 0.929 . S
H1084 C1098 0.930 . S
H1085 C1100 0.960 . S
H1086 C1100 0.960 . S
H1087 C1100 0.960 . S
C1088 H1080 0.929 . S
C1088 C1089 1.377 . S
C1088 C1090 1.384 . S
C1089 C1088 1.377 . S
C1089 C1095 1.390 . S
C1090 H1081 0.930 . S
C1090 C1088 1.384 . S
C1090 C1091 1.372 . S
C1091 C1090 1.372 . S
C1091 C1092 1.400 . S
C1091 C1096 1.490 . S
C1092 H1082 0.930 . S
C1092 C1091 1.400 . S
C1092 C1095 1.386 . S
H1093 C1109 0.930 . S
H1094 C1110 0.931 . S
C1095 H1083 0.929 . S
C1095 C1089 1.390 . S
C1095 C1092 1.386 . S
C1096 C1091 1.490 . S
C1096 C1098 1.395 . S
C1096 C1099 1.403 . S
H1097 C1103 0.930 . S
C1098 H1084 0.930 . S
C1098 C1096 1.395 . S
C1098 C1101 1.403 . S
C1099 C1096 1.403 . S
C1099 C1100 1.524 . S
C1099 C1103 1.400 . S
C1100 H1085 0.960 . S
C1100 H1086 0.960 . S
C1100 H1087 0.960 . S
C1100 C1099 1.524 . S
C1101 C1098 1.403 . S
C1101 C1102 1.392 . S
C1101 C1105 1.495 . S
C1102 C1101 1.392 . S
C1102 C1103 1.385 . S
C1102 C1104 1.478 . S
C1103 H1097 0.930 . S
C1103 C1099 1.400 . S
C1103 C1102 1.385 . S
C1104 C1102 1.478 . S
C1104 C1106 1.381 . S
C1104 C1110 1.383 . S
C1105 C1101 1.495 . S
C1105 H1111 0.959 . S
C1105 H1112 0.961 . S
C1105 H1113 0.960 . S
C1106 C1104 1.381 . S
C1106 C1107 1.394 . S
C1106 H1114 0.930 . S
C1107 C1106 1.394 . S
C1107 C1108 1.383 . S
C1107 H1115 0.929 . S
C1108 C1107 1.383 . S
C1108 C1109 1.377 . S
C1109 H1093 0.930 . S
C1109 C1108 1.377 . S
C1109 C1110 1.379 . S
C1110 H1094 0.931 . S
C1110 C1104 1.383 . S
C1110 C1109 1.379 . S
H1111 C1105 0.959 . S
H1112 C1105 0.961 . S
H1113 C1105 0.960 . S
H1114 C1106 0.930 . S
H1115 C1107 0.929 . S
H1116 C1124 0.929 . S
H1117 C1126 0.930 . S
H1118 C1128 0.930 . S
H1119 C1131 0.929 . S
H1120 C1134 0.930 . S
H1121 C1136 0.960 . S
H1122 C1136 0.960 . S
H1123 C1136 0.960 . S
C1124 H1116 0.929 . S
C1124 C1125 1.377 . S
C1124 C1126 1.384 . S
C1125 C1124 1.377 . S
C1125 C1131 1.390 . S
C1126 H1117 0.930 . S
C1126 C1124 1.384 . S
C1126 C1127 1.372 . S
C1127 C1126 1.372 . S
C1127 C1128 1.400 . S
C1127 C1132 1.490 . S
C1128 H1118 0.930 . S
C1128 C1127 1.400 . S
C1128 C1131 1.386 . S
H1129 C1145 0.930 . S
H1130 C1146 0.931 . S
C1131 H1119 0.929 . S
C1131 C1125 1.390 . S
C1131 C1128 1.386 . S
C1132 C1127 1.490 . S
C1132 C1134 1.395 . S
C1132 C1135 1.403 . S
H1133 C1139 0.930 . S
C1134 H1120 0.930 . S
C1134 C1132 1.395 . S
C1134 C1137 1.403 . S
C1135 C1132 1.403 . S
C1135 C1136 1.524 . S
C1135 C1139 1.400 . S
C1136 H1121 0.960 . S
C1136 H1122 0.960 . S
C1136 H1123 0.960 . S
C1136 C1135 1.524 . S
C1137 C1134 1.403 . S
C1137 C1138 1.392 . S
C1137 C1141 1.495 . S
C1138 C1137 1.392 . S
C1138 C1139 1.385 . S
C1138 C1140 1.478 . S
C1139 H1133 0.930 . S
C1139 C1135 1.400 . S
C1139 C1138 1.385 . S
C1140 C1138 1.478 . S
C1140 C1142 1.381 . S
C1140 C1146 1.383 . S
C1141 C1137 1.495 . S
C1141 H1147 0.959 . S
C1141 H1148 0.961 . S
C1141 H1149 0.960 . S
C1142 C1140 1.381 . S
C1142 C1143 1.394 . S
C1142 H1150 0.930 . S
C1143 C1142 1.394 . S
C1143 C1144 1.383 . S
C1143 H1151 0.929 . S
C1144 C1143 1.383 . S
C1144 C1145 1.377 . S
C1145 H1129 0.930 . S
C1145 C1144 1.377 . S
C1145 C1146 1.379 . S
C1146 H1130 0.931 . S
C1146 C1140 1.383 . S
C1146 C1145 1.379 . S
H1147 C1141 0.959 . S
H1148 C1141 0.961 . S
H1149 C1141 0.960 . S
H1150 C1142 0.930 . S
H1151 C1143 0.929 . S
H1152 C1160 0.929 . S
H1153 C1162 0.930 . S
H1154 C1164 0.930 . S
H1155 C1167 0.929 . S
H1156 C1170 0.930 . S
H1157 C1172 0.960 . S
H1158 C1172 0.960 . S
H1159 C1172 0.960 . S
C1160 H1152 0.929 . S
C1160 C1161 1.377 . S
C1160 C1162 1.384 . S
C1161 C1160 1.377 . S
C1161 C1167 1.390 . S
C1162 H1153 0.930 . S
C1162 C1160 1.384 . S
C1162 C1163 1.372 . S
C1163 C1162 1.372 . S
C1163 C1164 1.400 . S
C1163 C1168 1.490 . S
C1164 H1154 0.930 . S
C1164 C1163 1.400 . S
C1164 C1167 1.386 . S
H1165 C1181 0.930 . S
H1166 C1182 0.931 . S
C1167 H1155 0.929 . S
C1167 C1161 1.390 . S
C1167 C1164 1.386 . S
C1168 C1163 1.490 . S
C1168 C1170 1.395 . S
C1168 C1171 1.403 . S
H1169 C1175 0.930 . S
C1170 H1156 0.930 . S
C1170 C1168 1.395 . S
C1170 C1173 1.403 . S
C1171 C1168 1.403 . S
C1171 C1172 1.524 . S
C1171 C1175 1.400 . S
C1172 H1157 0.960 . S
C1172 H1158 0.960 . S
C1172 H1159 0.960 . S
C1172 C1171 1.524 . S
C1173 C1170 1.403 . S
C1173 C1174 1.392 . S
C1173 C1177 1.495 . S
C1174 C1173 1.392 . S
C1174 C1175 1.385 . S
C1174 C1176 1.478 . S
C1175 H1169 0.930 . S
C1175 C1171 1.400 . S
C1175 C1174 1.385 . S
C1176 C1174 1.478 . S
C1176 C1178 1.381 . S
C1176 C1182 1.383 . S
C1177 C1173 1.495 . S
C1177 H1183 0.959 . S
C1177 H1184 0.961 . S
C1177 H1185 0.960 . S
C1178 C1176 1.381 . S
C1178 C1179 1.394 . S
C1178 H1186 0.930 . S
C1179 C1178 1.394 . S
C1179 C1180 1.383 . S
C1179 H1187 0.929 . S
C1180 C1179 1.383 . S
C1180 C1181 1.377 . S
C1181 H1165 0.930 . S
C1181 C1180 1.377 . S
C1181 C1182 1.379 . S
C1182 H1166 0.931 . S
C1182 C1176 1.383 . S
C1182 C1181 1.379 . S
H1183 C1177 0.959 . S
H1184 C1177 0.961 . S
H1185 C1177 0.960 . S
H1186 C1178 0.930 . S
H1187 C1179 0.929 . S
H1188 C1196 0.929 . S
H1189 C1198 0.930 . S
H1190 C1200 0.930 . S
H1191 C1203 0.929 . S
H1192 C1206 0.930 . S
H1193 C1208 0.960 . S
H1194 C1208 0.960 . S
H1195 C1208 0.960 . S
C1196 H1188 0.929 . S
C1196 C1197 1.377 . S
C1196 C1198 1.384 . S
C1197 C1196 1.377 . S
C1197 C1203 1.390 . S
C1198 H1189 0.930 . S
C1198 C1196 1.384 . S
C1198 C1199 1.372 . S
C1199 C1198 1.372 . S
C1199 C1200 1.400 . S
C1199 C1204 1.490 . S
C1200 H1190 0.930 . S
C1200 C1199 1.400 . S
C1200 C1203 1.386 . S
H1201 C1217 0.930 . S
H1202 C1218 0.931 . S
C1203 H1191 0.929 . S
C1203 C1197 1.390 . S
C1203 C1200 1.386 . S
C1204 C1199 1.490 . S
C1204 C1206 1.395 . S
C1204 C1207 1.403 . S
H1205 C1211 0.930 . S
C1206 H1192 0.930 . S
C1206 C1204 1.395 . S
C1206 C1209 1.403 . S
C1207 C1204 1.403 . S
C1207 C1208 1.524 . S
C1207 C1211 1.400 . S
C1208 H1193 0.960 . S
C1208 H1194 0.960 . S
C1208 H1195 0.960 . S
C1208 C1207 1.524 . S
C1209 C1206 1.403 . S
C1209 C1210 1.392 . S
C1209 C1213 1.495 . S
C1210 C1209 1.392 . S
C1210 C1211 1.385 . S
C1210 C1212 1.478 . S
C1211 H1205 0.930 . S
C1211 C1207 1.400 . S
C1211 C1210 1.385 . S
C1212 C1210 1.478 . S
C1212 C1214 1.381 . S
C1212 C1218 1.383 . S
C1213 C1209 1.495 . S
C1213 H1219 0.959 . S
C1213 H1220 0.961 . S
C1213 H1221 0.960 . S
C1214 C1212 1.381 . S
C1214 C1215 1.394 . S
C1214 H1222 0.930 . S
C1215 C1214 1.394 . S
C1215 C1216 1.383 . S
C1215 H1223 0.929 . S
C1216 C1215 1.383 . S
C1216 C1217 1.377 . S
C1217 H1201 0.930 . S
C1217 C1216 1.377 . S
C1217 C1218 1.379 . S
C1218 H1202 0.931 . S
C1218 C1212 1.383 . S
C1218 C1217 1.379 . S
H1219 C1213 0.959 . S
H1220 C1213 0.961 . S
H1221 C1213 0.960 . S
H1222 C1214 0.930 . S
H1223 C1215 0.929 . S
H1224 C1232 0.929 . S
H1225 C1234 0.930 . S
H1226 C1236 0.930 . S
H1227 C1239 0.929 . S
H1228 C1242 0.930 . S
H1229 C1244 0.960 . S
H1230 C1244 0.960 1_556 S
H1231 C1244 0.960 1_556 S
C1232 H1224 0.929 . S
C1232 C1233 1.377 . S
C1232 C1234 1.384 . S
C1233 C1232 1.377 . S
C1233 C1239 1.390 . S
C1234 H1225 0.930 . S
C1234 C1232 1.384 . S
C1234 C1235 1.372 . S
C1235 C1234 1.372 . S
C1235 C1236 1.400 . S
C1235 C1240 1.490 . S
C1236 H1226 0.930 . S
C1236 C1235 1.400 . S
C1236 C1239 1.386 . S
H1237 C1253 0.930 . S
H1238 C1254 0.931 . S
C1239 H1227 0.929 . S
C1239 C1233 1.390 . S
C1239 C1236 1.386 . S
C1240 C1235 1.490 . S
C1240 C1242 1.395 . S
C1240 C1243 1.403 . S
H1241 C1247 0.930 . S
C1242 H1228 0.930 . S
C1242 C1240 1.395 . S
C1242 C1245 1.403 . S
C1243 C1240 1.403 . S
C1243 C1244 1.524 1_556 S
C1243 C1247 1.400 1_556 S
C1244 H1229 0.960 . S
C1244 H1230 0.960 1_554 S
C1244 H1231 0.960 1_554 S
C1244 C1243 1.524 1_554 S
C1245 C1242 1.403 . S
C1245 C1246 1.392 1_556 S
C1245 C1249 1.495 . S
C1246 C1245 1.392 1_554 S
C1246 C1247 1.385 . S
C1246 C1248 1.478 . S
C1247 H1241 0.930 . S
C1247 C1243 1.400 1_554 S
C1247 C1246 1.385 . S
C1248 C1246 1.478 . S
C1248 C1250 1.381 . S
C1248 C1254 1.383 . S
C1249 C1245 1.495 . S
C1249 H1255 0.959 . S
C1249 H1256 0.961 1_556 S
C1249 H1257 0.960 1_556 S
C1250 C1248 1.381 . S
C1250 C1251 1.394 . S
C1250 H1258 0.930 . S
C1251 C1250 1.394 . S
C1251 C1252 1.383 . S
C1251 H1259 0.929 . S
C1252 C1251 1.383 . S
C1252 C1253 1.377 . S
C1253 H1237 0.930 . S
C1253 C1252 1.377 . S
C1253 C1254 1.379 . S
C1254 H1238 0.931 . S
C1254 C1248 1.383 . S
C1254 C1253 1.379 . S
H1255 C1249 0.959 . S
H1256 C1249 0.961 1_554 S
H1257 C1249 0.960 1_554 S
H1258 C1250 0.930 . S
H1259 C1251 0.929 . S
H1260 C1268 0.929 . S
H1261 C1270 0.930 . S
H1262 C1272 0.930 . S
H1263 C1275 0.929 . S
H1264 C1278 0.930 . S
H1265 C1280 0.960 . S
H1266 C1280 0.960 . S
H1267 C1280 0.960 . S
C1268 H1260 0.929 . S
C1268 C1269 1.377 . S
C1268 C1270 1.384 . S
C1269 C1268 1.377 . S
C1269 C1275 1.390 . S
C1270 H1261 0.930 . S
C1270 C1268 1.384 . S
C1270 C1271 1.372 . S
C1271 C1270 1.372 . S
C1271 C1272 1.400 . S
C1271 C1276 1.490 . S
C1272 H1262 0.930 . S
C1272 C1271 1.400 . S
C1272 C1275 1.386 . S
H1273 C1289 0.930 . S
H1274 C1290 0.931 . S
C1275 H1263 0.929 . S
C1275 C1269 1.390 . S
C1275 C1272 1.386 . S
C1276 C1271 1.490 . S
C1276 C1278 1.395 . S
C1276 C1279 1.403 . S
H1277 C1283 0.930 . S
C1278 H1264 0.930 . S
C1278 C1276 1.395 . S
C1278 C1281 1.403 . S
C1279 C1276 1.403 . S
C1279 C1280 1.524 . S
C1279 C1283 1.400 . S
C1280 H1265 0.960 . S
C1280 H1266 0.960 . S
C1280 H1267 0.960 . S
C1280 C1279 1.524 . S
C1281 C1278 1.403 . S
C1281 C1282 1.392 . S
C1281 C1285 1.495 . S
C1282 C1281 1.392 . S
C1282 C1283 1.385 . S
C1282 C1284 1.478 . S
C1283 H1277 0.930 . S
C1283 C1279 1.400 . S
C1283 C1282 1.385 . S
C1284 C1282 1.478 . S
C1284 C1286 1.381 . S
C1284 C1290 1.383 . S
C1285 C1281 1.495 . S
C1285 H1291 0.959 . S
C1285 H1292 0.961 . S
C1285 H1293 0.960 . S
C1286 C1284 1.381 . S
C1286 C1287 1.394 . S
C1286 H1294 0.930 . S
C1287 C1286 1.394 . S
C1287 C1288 1.383 . S
C1287 H1295 0.929 . S
C1288 C1287 1.383 . S
C1288 C1289 1.377 . S
C1289 H1273 0.930 . S
C1289 C1288 1.377 . S
C1289 C1290 1.379 . S
C1290 H1274 0.931 . S
C1290 C1284 1.383 . S
C1290 C1289 1.379 . S
H1291 C1285 0.959 . S
H1292 C1285 0.961 . S
H1293 C1285 0.960 . S
H1294 C1286 0.930 . S
H1295 C1287 0.929 . S
H1296 C1304 0.929 . S
H1297 C1306 0.930 . S
H1298 C1308 0.930 . S
H1299 C1311 0.929 . S
H1300 C1314 0.930 . S
H1301 C1316 0.960 . S
H1302 C1316 0.960 . S
H1303 C1316 0.960 . S
C1304 H1296 0.929 . S
C1304 C1305 1.377 . S
C1304 C1306 1.384 . S
C1305 C1304 1.377 . S
C1305 C1311 1.390 . S
C1306 H1297 0.930 . S
C1306 C1304 1.384 . S
C1306 C1307 1.372 . S
C1307 C1306 1.372 . S
C1307 C1308 1.400 . S
C1307 C1312 1.490 . S
C1308 H1298 0.930 . S
C1308 C1307 1.400 . S
C1308 C1311 1.386 . S
H1309 C1325 0.930 . S
H1310 C1326 0.931 . S
C1311 H1299 0.929 . S
C1311 C1305 1.390 . S
C1311 C1308 1.386 . S
C1312 C1307 1.490 . S
C1312 C1314 1.395 . S
C1312 C1315 1.403 . S
H1313 C1319 0.930 . S
C1314 H1300 0.930 . S
C1314 C1312 1.395 . S
C1314 C1317 1.403 . S
C1315 C1312 1.403 . S
C1315 C1316 1.524 . S
C1315 C1319 1.400 . S
C1316 H1301 0.960 . S
C1316 H1302 0.960 . S
C1316 H1303 0.960 . S
C1316 C1315 1.524 . S
C1317 C1314 1.403 . S
C1317 C1318 1.392 . S
C1317 C1321 1.495 . S
C1318 C1317 1.392 . S
C1318 C1319 1.385 . S
C1318 C1320 1.478 . S
C1319 H1313 0.930 . S
C1319 C1315 1.400 . S
C1319 C1318 1.385 . S
C1320 C1318 1.478 . S
C1320 C1322 1.381 . S
C1320 C1326 1.383 . S
C1321 C1317 1.495 . S
C1321 H1327 0.959 . S
C1321 H1328 0.961 . S
C1321 H1329 0.960 . S
C1322 C1320 1.381 . S
C1322 C1323 1.394 . S
C1322 H1330 0.930 . S
C1323 C1322 1.394 . S
C1323 C1324 1.383 . S
C1323 H1331 0.929 . S
C1324 C1323 1.383 . S
C1324 C1325 1.377 . S
C1325 H1309 0.930 . S
C1325 C1324 1.377 . S
C1325 C1326 1.379 . S
C1326 H1310 0.931 . S
C1326 C1320 1.383 . S
C1326 C1325 1.379 . S
H1327 C1321 0.959 . S
H1328 C1321 0.961 . S
H1329 C1321 0.960 . S
H1330 C1322 0.930 . S
H1331 C1323 0.929 . S
H1332 C1340 0.929 . S
H1333 C1342 0.930 . S
H1334 C1344 0.930 . S
H1335 C1347 0.929 . S
H1336 C1350 0.930 . S
H1337 C1352 0.960 . S
H1338 C1352 0.960 1_556 S
H1339 C1352 0.960 1_556 S
C1340 H1332 0.929 . S
C1340 C1341 1.377 . S
C1340 C1342 1.384 . S
C1341 C1340 1.377 . S
C1341 C1347 1.390 . S
C1342 H1333 0.930 . S
C1342 C1340 1.384 . S
C1342 C1343 1.372 . S
C1343 C1342 1.372 . S
C1343 C1344 1.400 . S
C1343 C1348 1.490 . S
C1344 H1334 0.930 . S
C1344 C1343 1.400 . S
C1344 C1347 1.386 . S
H1345 C1361 0.930 . S
H1346 C1362 0.931 . S
C1347 H1335 0.929 . S
C1347 C1341 1.390 . S
C1347 C1344 1.386 . S
C1348 C1343 1.490 . S
C1348 C1350 1.395 . S
C1348 C1351 1.433 . S
H1349 C1355 0.930 . S
C1350 H1336 0.930 . S
C1350 C1348 1.395 . S
C1350 C1353 1.403 . S
C1351 C1348 1.433 . S
C1351 C1352 1.522 1_556 S
C1351 C1355 1.371 1_556 S
C1352 H1337 0.960 . S
C1352 H1338 0.960 1_554 S
C1352 H1339 0.960 1_554 S
C1352 C1351 1.522 1_554 S
C1353 C1350 1.403 . S
C1353 C1354 1.392 1_556 S
C1353 C1357 1.495 . S
C1354 C1353 1.392 1_554 S
C1354 C1355 1.385 . S
C1354 C1356 1.478 . S
C1355 H1349 0.930 . S
C1355 C1351 1.371 1_554 S
C1355 C1354 1.385 . S
C1356 C1354 1.478 . S
C1356 C1358 1.381 . S
C1356 C1362 1.383 . S
C1357 C1353 1.495 . S
C1357 H1363 0.959 . S
C1357 H1364 0.961 1_556 S
C1357 H1365 0.960 1_556 S
C1358 C1356 1.381 . S
C1358 C1359 1.394 . S
C1358 H1366 0.930 . S
C1359 C1358 1.394 . S
C1359 C1360 1.383 . S
C1359 H1367 0.929 . S
C1360 C1359 1.383 . S
C1360 C1361 1.377 . S
C1361 H1345 0.930 . S
C1361 C1360 1.377 . S
C1361 C1362 1.379 . S
C1362 H1346 0.931 . S
C1362 C1356 1.383 . S
C1362 C1361 1.379 . S
H1363 C1357 0.959 . S
H1364 C1357 0.961 1_554 S
H1365 C1357 0.960 1_554 S
H1366 C1358 0.930 . S
H1367 C1359 0.929 . S
H1368 C1376 0.929 . S
H1369 C1378 0.930 . S
H1370 C1380 0.930 . S
H1371 C1383 0.929 . S
H1372 C1386 0.930 . S
H1373 C1388 0.960 . S
H1374 C1388 0.960 . S
H1375 C1388 0.960 . S
C1376 H1368 0.929 . S
C1376 C1377 1.377 . S
C1376 C1378 1.384 . S
C1377 C1376 1.377 . S
C1377 C1383 1.390 . S
C1378 H1369 0.930 . S
C1378 C1376 1.384 . S
C1378 C1379 1.372 . S
C1379 C1378 1.372 . S
C1379 C1380 1.400 . S
C1379 C1384 1.490 . S
C1380 H1370 0.930 . S
C1380 C1379 1.400 . S
C1380 C1383 1.386 . S
H1381 C1397 0.930 . S
H1382 C1398 0.931 . S
C1383 H1371 0.929 . S
C1383 C1377 1.390 . S
C1383 C1380 1.386 . S
C1384 C1379 1.490 . S
C1384 C1386 1.395 . S
C1384 C1387 1.403 . S
H1385 C1391 0.930 . S
C1386 H1372 0.930 . S
C1386 C1384 1.395 . S
C1386 C1389 1.403 . S
C1387 C1384 1.403 . S
C1387 C1388 1.524 . S
C1387 C1391 1.400 . S
C1388 H1373 0.960 . S
C1388 H1374 0.960 . S
C1388 H1375 0.960 . S
C1388 C1387 1.524 . S
C1389 C1386 1.403 . S
C1389 C1390 1.392 . S
C1389 C1393 1.495 . S
C1390 C1389 1.392 . S
C1390 C1391 1.385 . S
C1390 C1392 1.478 . S
C1391 H1385 0.930 . S
C1391 C1387 1.400 . S
C1391 C1390 1.385 . S
C1392 C1390 1.478 . S
C1392 C1394 1.381 . S
C1392 C1398 1.383 . S
C1393 C1389 1.495 . S
C1393 H1399 0.959 . S
C1393 H1400 0.961 . S
C1393 H1401 0.960 . S
C1394 C1392 1.381 . S
C1394 C1395 1.394 . S
C1394 H1402 0.930 . S
C1395 C1394 1.394 . S
C1395 C1396 1.383 . S
C1395 H1403 0.929 . S
C1396 C1395 1.383 . S
C1396 C1397 1.377 . S
C1397 H1381 0.930 . S
C1397 C1396 1.377 . S
C1397 C1398 1.379 . S
C1398 H1382 0.931 . S
C1398 C1392 1.383 . S
C1398 C1397 1.379 . S
H1399 C1393 0.959 . S
H1400 C1393 0.961 . S
H1401 C1393 0.960 . S
H1402 C1394 0.930 . S
H1403 C1395 0.929 . S
H1404 C1412 0.929 . S
H1405 C1414 0.930 . S
H1406 C1416 0.930 . S
H1407 C1419 0.929 . S
H1408 C1422 0.930 . S
H1409 C1424 0.960 . S
H1410 C1424 0.960 . S
H1411 C1424 0.960 . S
C1412 H1404 0.929 . S
C1412 C1413 1.377 . S
C1412 C1414 1.384 . S
C1413 C1412 1.377 . S
C1413 C1419 1.390 . S
C1414 H1405 0.930 . S
C1414 C1412 1.384 . S
C1414 C1415 1.372 . S
C1415 C1414 1.372 . S
C1415 C1416 1.400 . S
C1415 C1420 1.490 . S
C1416 H1406 0.930 . S
C1416 C1415 1.400 . S
C1416 C1419 1.386 . S
H1417 C1433 0.930 . S
H1418 C1434 0.931 . S
C1419 H1407 0.929 . S
C1419 C1413 1.390 . S
C1419 C1416 1.386 . S
C1420 C1415 1.490 . S
C1420 C1422 1.395 . S
C1420 C1423 1.403 . S
H1421 C1427 0.930 . S
C1422 H1408 0.930 . S
C1422 C1420 1.395 . S
C1422 C1425 1.403 . S
C1423 C1420 1.403 . S
C1423 C1424 1.524 . S
C1423 C1427 1.400 . S
C1424 H1409 0.960 . S
C1424 H1410 0.960 . S
C1424 H1411 0.960 . S
C1424 C1423 1.524 . S
C1425 C1422 1.403 . S
C1425 C1426 1.392 . S
C1425 C1429 1.495 . S
C1426 C1425 1.392 . S
C1426 C1427 1.385 . S
C1426 C1428 1.478 . S
C1427 H1421 0.930 . S
C1427 C1423 1.400 . S
C1427 C1426 1.385 . S
C1428 C1426 1.478 . S
C1428 C1430 1.381 . S
C1428 C1434 1.383 . S
C1429 C1425 1.495 . S
C1429 H1435 0.959 . S
C1429 H1436 0.961 . S
C1429 H1437 0.960 . S
C1430 C1428 1.381 . S
C1430 C1431 1.394 . S
C1430 H1438 0.930 . S
C1431 C1430 1.394 . S
C1431 C1432 1.383 . S
C1431 H1439 0.929 . S
C1432 C1431 1.383 . S
C1432 C1433 1.377 . S
C1433 H1417 0.930 . S
C1433 C1432 1.377 . S
C1433 C1434 1.379 . S
C1434 H1418 0.931 . S
C1434 C1428 1.383 . S
C1434 C1433 1.379 . S
H1435 C1429 0.959 . S
H1436 C1429 0.961 . S
H1437 C1429 0.960 . S
H1438 C1430 0.930 . S
H1439 C1431 0.929 . S
H1440 C1448 0.929 . S
H1441 C1450 0.930 . S
H1442 C1452 0.930 . S
H1443 C1455 0.929 . S
H1444 C1458 0.930 . S
H1445 C1460 0.960 . S
H1446 C1460 0.960 . S
H1447 C1460 0.960 . S
C1448 H1440 0.929 . S
C1448 C1449 1.377 . S
C1448 C1450 1.384 . S
C1449 C1448 1.377 . S
C1449 C1455 1.390 . S
C1450 H1441 0.930 . S
C1450 C1448 1.384 . S
C1450 C1451 1.372 . S
C1451 C1450 1.372 . S
C1451 C1452 1.400 . S
C1451 C1456 1.490 . S
C1452 H1442 0.930 . S
C1452 C1451 1.400 . S
C1452 C1455 1.386 . S
H1453 C1469 0.930 . S
H1454 C1470 0.931 . S
C1455 H1443 0.929 . S
C1455 C1449 1.390 . S
C1455 C1452 1.386 . S
C1456 C1451 1.490 . S
C1456 C1458 1.395 . S
C1456 C1459 1.403 . S
H1457 C1463 0.930 . S
C1458 H1444 0.930 . S
C1458 C1456 1.395 . S
C1458 C1461 1.403 1_566 S
C1459 C1456 1.403 . S
C1459 C1460 1.524 . S
C1459 C1463 1.400 1_566 S
C1460 H1445 0.960 . S
C1460 H1446 0.960 . S
C1460 H1447 0.960 . S
C1460 C1459 1.524 . S
C1461 C1458 1.403 1_544 S
C1461 C1462 1.392 . S
C1461 C1465 1.495 . S
C1462 C1461 1.392 . S
C1462 C1463 1.385 . S
C1462 C1464 1.478 . S
C1463 H1457 0.930 . S
C1463 C1459 1.400 1_544 S
C1463 C1462 1.385 . S
C1464 C1462 1.478 . S
C1464 C1466 1.381 . S
C1464 C1470 1.383 . S
C1465 C1461 1.495 . S
C1465 H1471 0.959 . S
C1465 H1472 0.961 . S
C1465 H1473 0.960 . S
C1466 C1464 1.381 . S
C1466 C1467 1.394 . S
C1466 H1474 0.930 . S
C1467 C1466 1.394 . S
C1467 C1468 1.383 . S
C1467 H1475 0.929 . S
C1468 C1467 1.383 . S
C1468 C1469 1.377 . S
C1469 H1453 0.930 . S
C1469 C1468 1.377 . S
C1469 C1470 1.379 . S
C1470 H1454 0.931 . S
C1470 C1464 1.383 . S
C1470 C1469 1.379 . S
H1471 C1465 0.959 . S
H1472 C1465 0.961 . S
H1473 C1465 0.960 . S
H1474 C1466 0.930 . S
H1475 C1467 0.929 . S
H1476 C1484 0.929 . S
H1477 C1486 0.930 . S
H1478 C1488 0.930 . S
H1479 C1491 0.929 . S
H1480 C1494 0.930 . S
H1481 C1496 0.960 . S
H1482 C1496 0.960 . S
H1483 C1496 0.960 . S
C1484 H1476 0.929 . S
C1484 C1485 1.377 . S
C1484 C1486 1.384 . S
C1485 C1484 1.377 . S
C1485 C1491 1.390 . S
C1486 H1477 0.930 . S
C1486 C1484 1.384 . S
C1486 C1487 1.372 . S
C1487 C1486 1.372 . S
C1487 C1488 1.400 . S
C1487 C1492 1.490 . S
C1488 H1478 0.930 . S
C1488 C1487 1.400 . S
C1488 C1491 1.386 . S
H1489 C1505 0.930 . S
H1490 C1506 0.931 . S
C1491 H1479 0.929 . S
C1491 C1485 1.390 . S
C1491 C1488 1.386 . S
C1492 C1487 1.490 . S
C1492 C1494 1.395 . S
C1492 C1495 1.403 . S
H1493 C1499 0.930 . S
C1494 H1480 0.930 . S
C1494 C1492 1.395 . S
C1494 C1497 1.403 . S
C1495 C1492 1.403 . S
C1495 C1496 1.524 . S
C1495 C1499 1.400 . S
C1496 H1481 0.960 . S
C1496 H1482 0.960 . S
C1496 H1483 0.960 . S
C1496 C1495 1.524 . S
C1497 C1494 1.403 . S
C1497 C1498 1.392 . S
C1497 C1501 1.495 . S
C1498 C1497 1.392 . S
C1498 C1499 1.385 . S
C1498 C1500 1.478 . S
C1499 H1493 0.930 . S
C1499 C1495 1.400 . S
C1499 C1498 1.385 . S
C1500 C1498 1.478 . S
C1500 C1502 1.381 . S
C1500 C1506 1.383 . S
C1501 C1497 1.495 . S
C1501 H1507 0.959 . S
C1501 H1508 0.961 . S
C1501 H1509 0.960 . S
C1502 C1500 1.381 . S
C1502 C1503 1.394 . S
C1502 H1510 0.930 . S
C1503 C1502 1.394 . S
C1503 C1504 1.383 . S
C1503 H1511 0.929 . S
C1504 C1503 1.383 . S
C1504 C1505 1.377 . S
C1505 H1489 0.930 . S
C1505 C1504 1.377 . S
C1505 C1506 1.379 . S
C1506 H1490 0.931 . S
C1506 C1500 1.383 . S
C1506 C1505 1.379 . S
H1507 C1501 0.959 . S
H1508 C1501 0.961 . S
H1509 C1501 0.960 . S
H1510 C1502 0.930 . S
H1511 C1503 0.929 . S
H1512 C1520 0.929 . S
H1513 C1522 0.930 . S
H1514 C1524 0.932 . S
H1515 C1527 0.929 . S
H1516 C1530 0.930 . S
H1517 C1532 0.960 . S
H1518 C1532 0.960 1_455 S
H1519 C1532 0.960 . S
C1520 H1512 0.929 . S
C1520 C1521 1.377 . S
C1520 C1522 1.384 . S
C1521 C1520 1.377 . S
C1521 C1527 1.390 . S
C1522 H1513 0.930 . S
C1522 C1520 1.384 . S
C1522 C1523 1.372 . S
C1523 C1522 1.372 . S
C1523 C1524 1.400 . S
C1523 C1528 1.490 . S
C1524 H1514 0.932 . S
C1524 C1523 1.400 . S
C1524 C1527 1.386 . S
H1525 C1541 0.930 . S
H1526 C1542 0.931 . S
C1527 H1515 0.929 . S
C1527 C1521 1.390 . S
C1527 C1524 1.386 . S
C1528 C1523 1.490 . S
C1528 C1530 1.395 . S
C1528 C1531 1.403 1_455 S
H1529 C1535 0.930 . S
C1530 H1516 0.930 . S
C1530 C1528 1.395 . S
C1530 C1533 1.403 . S
C1531 C1528 1.403 1_655 S
C1531 C1532 1.524 . S
C1531 C1535 1.400 . S
C1532 H1517 0.960 . S
C1532 H1518 0.960 1_655 S
C1532 H1519 0.960 . S
C1532 C1531 1.524 . S
C1533 C1530 1.403 . S
C1533 C1534 1.392 1_455 S
C1533 C1537 1.495 . S
C1534 C1533 1.392 1_655 S
C1534 C1535 1.385 . S
C1534 C1536 1.478 . S
C1535 H1529 0.930 . S
C1535 C1531 1.400 . S
C1535 C1534 1.385 . S
C1536 C1534 1.478 . S
C1536 C1538 1.381 . S
C1536 C1542 1.383 . S
C1537 C1533 1.495 . S
C1537 H1543 0.959 . S
C1537 H1544 0.961 . S
C1537 H1545 0.960 . S
C1538 C1536 1.381 . S
C1538 C1539 1.394 . S
C1538 H1546 0.930 1_655 S
C1539 C1538 1.394 . S
C1539 C1540 1.383 . S
C1539 H1547 0.929 . S
C1540 C1539 1.383 . S
C1540 C1541 1.377 . S
C1541 H1525 0.930 . S
C1541 C1540 1.377 . S
C1541 C1542 1.379 . S
C1542 H1526 0.931 . S
C1542 C1536 1.383 . S
C1542 C1541 1.379 . S
H1543 C1537 0.959 . S
H1544 C1537 0.961 . S
H1545 C1537 0.960 . S
H1546 C1538 0.930 1_455 S
H1547 C1539 0.929 . S
H1548 C1556 0.929 . S
H1549 C1558 0.930 . S
H1550 C1560 0.930 . S
H1551 C1563 0.929 . S
H1552 C1566 0.930 . S
H1553 C1568 0.960 . S
H1554 C1568 0.960 . S
H1555 C1568 0.960 . S
C1556 H1548 0.929 . S
C1556 C1557 1.377 . S
C1556 C1558 1.384 . S
C1557 C1556 1.377 . S
C1557 C1563 1.390 . S
C1558 H1549 0.930 . S
C1558 C1556 1.384 . S
C1558 C1559 1.372 . S
C1559 C1558 1.372 . S
C1559 C1560 1.400 . S
C1559 C1564 1.490 . S
C1560 H1550 0.930 . S
C1560 C1559 1.400 . S
C1560 C1563 1.386 . S
H1561 C1577 0.930 . S
H1562 C1578 0.931 . S
C1563 H1551 0.929 . S
C1563 C1557 1.390 . S
C1563 C1560 1.386 . S
C1564 C1559 1.490 . S
C1564 C1566 1.395 . S
C1564 C1567 1.403 1_565 S
H1565 C1571 0.930 . S
C1566 H1552 0.930 . S
C1566 C1564 1.395 . S
C1566 C1569 1.403 1_554 S
C1567 C1564 1.403 1_545 S
C1567 C1568 1.524 . S
C1567 C1571 1.400 1_554 S
C1568 H1553 0.960 . S
C1568 H1554 0.960 . S
C1568 H1555 0.960 . S
C1568 C1567 1.524 . S
C1569 C1566 1.403 1_556 S
C1569 C1570 1.392 1_565 S
C1569 C1573 1.495 . S
C1570 C1569 1.392 1_545 S
C1570 C1571 1.385 . S
C1570 C1572 1.478 . S
C1571 H1565 0.930 . S
C1571 C1567 1.400 1_556 S
C1571 C1570 1.385 . S
C1572 C1570 1.478 . S
C1572 C1574 1.381 . S
C1572 C1578 1.383 . S
C1573 C1569 1.495 . S
C1573 H1579 0.959 . S
C1573 H1580 0.961 . S
C1573 H1581 0.960 . S
C1574 C1572 1.381 . S
C1574 C1575 1.394 . S
C1574 H1582 0.977 . S
C1575 C1574 1.394 . S
C1575 C1576 1.383 . S
C1575 H1583 0.929 . S
C1576 C1575 1.383 . S
C1576 C1577 1.377 . S
C1577 H1561 0.930 . S
C1577 C1576 1.377 . S
C1577 C1578 1.379 . S
C1578 H1562 0.931 . S
C1578 C1572 1.383 . S
C1578 C1577 1.379 . S
H1579 C1573 0.959 . S
H1580 C1573 0.961 . S
H1581 C1573 0.960 . S
H1582 C1574 0.977 . S
H1583 C1575 0.929 . S
H1584 C1592 0.929 . S
H1585 C1594 0.930 . S
H1586 C1596 0.930 . S
H1587 C1599 0.929 . S
H1588 C1602 0.930 . S
H1589 C1604 0.960 . S
H1590 C1604 0.960 . S
H1591 C1604 0.960 . S
C1592 H1584 0.929 . S
C1592 C1593 1.377 . S
C1592 C1594 1.384 . S
C1593 C1592 1.377 . S
C1593 C1599 1.390 . S
C1594 H1585 0.930 . S
C1594 C1592 1.384 . S
C1594 C1595 1.372 . S
C1595 C1594 1.372 . S
C1595 C1596 1.400 . S
C1595 C1600 1.490 . S
C1596 H1586 0.930 . S
C1596 C1595 1.400 . S
C1596 C1599 1.386 . S
H1597 C1613 0.930 . S
H1598 C1614 0.931 . S
C1599 H1587 0.929 . S
C1599 C1593 1.390 . S
C1599 C1596 1.386 . S
C1600 C1595 1.490 . S
C1600 C1602 1.395 . S
C1600 C1603 1.403 . S
H1601 C1607 0.930 . S
C1602 H1588 0.930 . S
C1602 C1600 1.395 . S
C1602 C1605 1.403 . S
C1603 C1600 1.403 . S
C1603 C1604 1.524 . S
C1603 C1607 1.400 . S
C1604 H1589 0.960 . S
C1604 H1590 0.960 . S
C1604 H1591 0.960 . S
C1604 C1603 1.524 . S
C1605 C1602 1.403 . S
C1605 C1606 1.392 . S
C1605 C1609 1.495 . S
C1606 C1605 1.392 . S
C1606 C1607 1.385 . S
C1606 C1608 1.478 . S
C1607 H1601 0.930 . S
C1607 C1603 1.400 . S
C1607 C1606 1.385 . S
C1608 C1606 1.478 . S
C1608 C1610 1.381 . S
C1608 C1614 1.383 . S
C1609 C1605 1.495 . S
C1609 H1615 0.959 . S
C1609 H1616 0.961 . S
C1609 H1617 0.960 . S
C1610 C1608 1.381 . S
C1610 C1611 1.394 . S
C1610 H1618 0.930 . S
C1611 C1610 1.394 . S
C1611 C1612 1.383 . S
C1611 H1619 0.929 . S
C1612 C1611 1.383 . S
C1612 C1613 1.377 . S
C1613 H1597 0.930 . S
C1613 C1612 1.377 . S
C1613 C1614 1.379 . S
C1614 H1598 0.931 . S
C1614 C1608 1.383 . S
C1614 C1613 1.379 . S
H1615 C1609 0.959 . S
H1616 C1609 0.961 . S
H1617 C1609 0.960 . S
H1618 C1610 0.930 . S
H1619 C1611 0.929 . S
H1620 C1628 0.929 . S
H1621 C1630 0.930 . S
H1622 C1632 0.945 . S
H1623 C1635 0.929 . S
H1624 C1638 0.930 . S
H1625 C1640 0.960 . S
H1626 C1640 0.969 . S
H1627 C1640 0.960 . S
C1628 H1620 0.929 . S
C1628 C1629 1.377 . S
C1628 C1630 1.384 . S
C1629 C1628 1.377 . S
C1629 C1635 1.390 . S
C1630 H1621 0.930 . S
C1630 C1628 1.384 . S
C1630 C1631 1.372 . S
C1631 C1630 1.372 . S
C1631 C1632 1.400 . S
C1631 C1636 1.490 . S
C1632 H1622 0.945 . S
C1632 C1631 1.400 . S
C1632 C1635 1.386 . S
H1633 C1649 0.930 . S
H1634 C1650 0.931 . S
C1635 H1623 0.929 . S
C1635 C1629 1.390 . S
C1635 C1632 1.386 . S
C1636 C1631 1.490 . S
C1636 C1638 1.395 . S
C1636 C1639 1.403 1_455 S
H1637 C1643 0.930 . S
C1638 H1624 0.930 . S
C1638 C1636 1.395 . S
C1638 C1641 1.403 . S
C1639 C1636 1.403 1_655 S
C1639 C1640 1.524 . S
C1639 C1643 1.400 . S
C1640 H1625 0.960 . S
C1640 H1626 0.969 . S
C1640 H1627 0.960 . S
C1640 C1639 1.524 . S
C1641 C1638 1.403 . S
C1641 C1642 1.392 1_455 S
C1641 C1645 1.495 . S
C1642 C1641 1.392 1_655 S
C1642 C1643 1.385 . S
C1642 C1644 1.478 . S
C1643 H1637 0.930 . S
C1643 C1639 1.400 . S
C1643 C1642 1.385 . S
C1644 C1642 1.478 . S
C1644 C1646 1.381 . S
C1644 C1650 1.383 . S
C1645 C1641 1.495 . S
C1645 H1651 0.959 . S
C1645 H1652 0.961 . S
C1645 H1653 0.960 . S
C1646 C1644 1.381 . S
C1646 C1647 1.394 . S
C1646 H1654 0.930 1_655 S
C1647 C1646 1.394 . S
C1647 C1648 1.383 . S
C1647 H1655 0.929 . S
C1648 C1647 1.383 . S
C1648 C1649 1.377 . S
C1649 H1633 0.930 . S
C1649 C1648 1.377 . S
C1649 C1650 1.379 . S
C1650 H1634 0.931 . S
C1650 C1644 1.383 . S
C1650 C1649 1.379 . S
H1651 C1645 0.959 . S
H1652 C1645 0.961 . S
H1653 C1645 0.960 . S
H1654 C1646 0.930 1_455 S
H1655 C1647 0.929 . S
H1656 C1664 0.929 . S
H1657 C1666 0.930 . S
H1658 C1668 0.930 . S
H1659 C1671 0.929 . S
H1660 C1674 0.930 . S
H1661 C1676 0.960 1_565 S
H1662 C1676 0.960 . S
H1663 C1676 0.960 . S
C1664 H1656 0.929 . S
C1664 C1665 1.377 . S
C1664 C1666 1.384 . S
C1665 C1664 1.377 . S
C1665 C1671 1.390 . S
C1666 H1657 0.930 . S
C1666 C1664 1.384 . S
C1666 C1667 1.372 . S
C1667 C1666 1.372 . S
C1667 C1668 1.400 . S
C1667 C1672 1.490 . S
C1668 H1658 0.930 . S
C1668 C1667 1.400 . S
C1668 C1671 1.386 . S
H1669 C1685 0.930 . S
H1670 C1686 0.931 . S
C1671 H1659 0.929 . S
C1671 C1665 1.390 . S
C1671 C1668 1.386 . S
C1672 C1667 1.490 . S
C1672 C1674 1.395 . S
C1672 C1675 1.403 . S
H1673 C1679 0.930 . S
C1674 H1660 0.930 . S
C1674 C1672 1.395 . S
C1674 C1677 1.403 1_545 S
C1675 C1672 1.403 . S
C1675 C1676 1.524 . S
C1675 C1679 1.400 1_545 S
C1676 H1661 0.960 1_545 S
C1676 H1662 0.960 . S
C1676 H1663 0.960 . S
C1676 C1675 1.524 . S
C1677 C1674 1.403 1_565 S
C1677 C1678 1.392 . S
C1677 C1681 1.495 . S
C1678 C1677 1.392 . S
C1678 C1679 1.385 . S
C1678 C1680 1.478 . S
C1679 H1673 0.930 . S
C1679 C1675 1.400 1_565 S
C1679 C1678 1.385 . S
C1680 C1678 1.478 . S
C1680 C1682 1.381 . S
C1680 C1686 1.383 . S
C1681 C1677 1.495 . S
C1681 H1687 0.959 1_565 S
C1681 H1688 0.961 . S
C1681 H1689 0.960 . S
C1682 C1680 1.381 . S
C1682 C1683 1.394 . S
C1682 H1690 0.930 . S
C1683 C1682 1.394 . S
C1683 C1684 1.383 . S
C1683 H1691 0.929 . S
C1684 C1683 1.383 . S
C1684 C1685 1.377 . S
C1685 H1669 0.930 . S
C1685 C1684 1.377 . S
C1685 C1686 1.379 . S
C1686 H1670 0.931 . S
C1686 C1680 1.383 . S
C1686 C1685 1.379 . S
H1687 C1681 0.959 1_545 S
H1688 C1681 0.961 . S
H1689 C1681 0.960 . S
H1690 C1682 0.930 . S
H1691 C1683 0.929 . S
H1692 C1700 0.929 . S
H1693 C1702 0.930 . S
H1694 C1704 0.930 . S
H1695 C1707 0.929 . S
H1696 C1710 0.930 . S
H1697 C1712 0.960 . S
H1698 C1712 0.960 . S
H1699 C1712 0.960 . S
C1700 H1692 0.929 . S
C1700 C1701 1.377 . S
C1700 C1702 1.384 . S
C1701 C1700 1.377 . S
C1701 C1707 1.390 . S
C1702 H1693 0.930 . S
C1702 C1700 1.384 . S
C1702 C1703 1.372 . S
C1703 C1702 1.372 . S
C1703 C1704 1.400 . S
C1703 C1708 1.490 . S
C1704 H1694 0.930 . S
C1704 C1703 1.400 . S
C1704 C1707 1.386 . S
H1705 C1721 0.930 . S
H1706 C1722 0.931 . S
C1707 H1695 0.929 . S
C1707 C1701 1.390 . S
C1707 C1704 1.386 . S
C1708 C1703 1.490 . S
C1708 C1710 1.395 . S
C1708 C1711 1.403 . S
H1709 C1715 0.930 . S
C1710 H1696 0.930 . S
C1710 C1708 1.395 . S
C1710 C1713 1.403 . S
C1711 C1708 1.403 . S
C1711 C1712 1.524 . S
C1711 C1715 1.400 . S
C1712 H1697 0.960 . S
C1712 H1698 0.960 . S
C1712 H1699 0.960 . S
C1712 C1711 1.524 . S
C1713 C1710 1.403 . S
C1713 C1714 1.392 . S
C1713 C1717 1.495 . S
C1714 C1713 1.392 . S
C1714 C1715 1.385 . S
C1714 C1716 1.478 . S
C1715 H1709 0.930 . S
C1715 C1711 1.400 . S
C1715 C1714 1.385 . S
C1716 C1714 1.478 . S
C1716 C1718 1.381 . S
C1716 C1722 1.383 . S
C1717 C1713 1.495 . S
C1717 H1723 0.959 . S
C1717 H1724 0.961 . S
C1717 H1725 0.960 . S
C1718 C1716 1.381 . S
C1718 C1719 1.394 . S
C1718 H1726 0.930 . S
C1719 C1718 1.394 . S
C1719 C1720 1.383 . S
C1719 H1727 0.929 . S
C1720 C1719 1.383 . S
C1720 C1721 1.377 . S
C1721 H1705 0.930 . S
C1721 C1720 1.377 . S
C1721 C1722 1.379 . S
C1722 H1706 0.931 . S
C1722 C1716 1.383 . S
C1722 C1721 1.379 . S
H1723 C1717 0.959 . S
H1724 C1717 0.961 . S
H1725 C1717 0.960 . S
H1726 C1718 0.930 . S
H1727 C1719 0.929 . S
H1728 C1736 0.929 . S
H1729 C1738 0.930 . S
H1730 C1740 0.930 . S
H1731 C1743 0.929 . S
H1732 C1746 0.929 1_655 S
H1733 C1748 0.960 1_554 S
H1734 C1748 0.960 1_554 S
H1735 C1748 0.960 . S
C1736 H1728 0.929 . S
C1736 C1737 1.377 . S
C1736 C1738 1.384 . S
C1737 C1736 1.377 . S
C1737 C1743 1.390 . S
C1738 H1729 0.930 . S
C1738 C1736 1.384 . S
C1738 C1739 1.372 . S
C1739 C1738 1.372 . S
C1739 C1740 1.400 . S
C1739 C1744 1.490 . S
C1740 H1730 0.930 . S
C1740 C1739 1.400 . S
C1740 C1743 1.386 . S
H1741 C1757 0.930 . S
H1742 C1758 0.931 . S
C1743 H1731 0.929 . S
C1743 C1737 1.390 . S
C1743 C1740 1.386 . S
C1744 C1739 1.490 . S
C1744 C1746 1.397 1_655 S
C1744 C1747 1.403 . S
H1745 C1751 0.930 . S
C1746 H1732 0.929 1_455 S
C1746 C1744 1.397 1_455 S
C1746 C1749 1.402 . S
C1747 C1744 1.403 . S
C1747 C1748 1.524 . S
C1747 C1751 1.400 1_655 S
C1748 H1733 0.960 1_556 S
C1748 H1734 0.960 1_556 S
C1748 H1735 0.960 . S
C1748 C1747 1.524 . S
C1749 C1746 1.402 . S
C1749 C1750 1.392 . S
C1749 C1753 1.495 . S
C1750 C1749 1.392 . S
C1750 C1751 1.385 . S
C1750 C1752 1.478 . S
C1751 H1745 0.930 . S
C1751 C1747 1.400 1_455 S
C1751 C1750 1.385 . S
C1752 C1750 1.478 . S
C1752 C1754 1.381 . S
C1752 C1758 1.383 . S
C1753 C1749 1.495 . S
C1753 H1759 0.959 . S
C1753 H1760 0.961 . S
C1753 H1761 0.960 . S
C1754 C1752 1.381 . S
C1754 C1755 1.394 . S
C1754 H1762 0.930 . S
C1755 C1754 1.394 . S
C1755 C1756 1.383 . S
C1755 H1763 0.929 . S
C1756 C1755 1.383 . S
C1756 C1757 1.377 . S
C1757 H1741 0.930 . S
C1757 C1756 1.377 . S
C1757 C1758 1.379 . S
C1758 H1742 0.931 . S
C1758 C1752 1.383 . S
C1758 C1757 1.379 . S
H1759 C1753 0.959 . S
H1760 C1753 0.961 . S
H1761 C1753 0.960 . S
H1762 C1754 0.930 . S
H1763 C1755 0.929 . S
H1764 C1772 0.929 . S
H1765 C1774 0.930 . S
H1766 C1776 0.930 . S
H1767 C1779 0.929 . S
H1768 C1782 0.930 . S
H1769 C1784 0.960 . S
H1770 C1784 0.960 . S
H1771 C1784 0.960 . S
C1772 H1764 0.929 . S
C1772 C1773 1.377 . S
C1772 C1774 1.384 . S
C1773 C1772 1.377 . S
C1773 C1779 1.390 . S
C1774 H1765 0.930 . S
C1774 C1772 1.384 . S
C1774 C1775 1.372 . S
C1775 C1774 1.372 . S
C1775 C1776 1.400 . S
C1775 C1780 1.490 . S
C1776 H1766 0.930 . S
C1776 C1775 1.400 . S
C1776 C1779 1.386 . S
H1777 C1793 0.930 . S
H1778 C1794 0.931 . S
C1779 H1767 0.929 . S
C1779 C1773 1.390 . S
C1779 C1776 1.386 . S
C1780 C1775 1.490 . S
C1780 C1782 1.395 1_455 S
C1780 C1783 1.403 . S
H1781 C1787 0.954 1_455 S
C1782 H1768 0.930 . S
C1782 C1780 1.395 1_655 S
C1782 C1785 1.403 . S
C1783 C1780 1.403 . S
C1783 C1784 1.524 . S
C1783 C1787 1.376 1_455 S
C1784 H1769 0.960 . S
C1784 H1770 0.960 . S
C1784 H1771 0.960 . S
C1784 C1783 1.524 . S
C1785 C1782 1.403 . S
C1785 C1786 1.392 . S
C1785 C1789 1.495 . S
C1786 C1785 1.392 . S
C1786 C1787 1.399 . S
C1786 C1788 1.478 . S
C1787 H1781 0.954 1_655 S
C1787 C1783 1.376 1_655 S
C1787 C1786 1.399 . S
C1788 C1786 1.478 . S
C1788 C1790 1.381 . S
C1788 C1794 1.383 . S
C1789 C1785 1.495 . S
C1789 H1795 0.959 . S
C1789 H1796 0.961 . S
C1789 H1797 0.960 . S
C1790 C1788 1.381 . S
C1790 C1791 1.394 . S
C1790 H1798 0.930 . S
C1791 C1790 1.394 . S
C1791 C1792 1.383 . S
C1791 H1799 0.929 . S
C1792 C1791 1.383 . S
C1792 C1793 1.377 . S
C1793 H1777 0.930 . S
C1793 C1792 1.377 . S
C1793 C1794 1.379 . S
C1794 H1778 0.931 . S
C1794 C1788 1.383 . S
C1794 C1793 1.379 . S
H1795 C1789 0.959 . S
H1796 C1789 0.961 . S
H1797 C1789 0.960 . S
H1798 C1790 0.930 . S
H1799 C1791 0.929 . S
H1800 C1808 0.929 . S
H1801 C1810 0.930 . S
H1802 C1812 0.930 . S
H1803 C1815 0.929 . S
H1804 C1818 0.930 . S
H1805 C1820 0.960 . S
H1806 C1820 0.960 . S
H1807 C1820 0.960 1_565 S
C1808 H1800 0.929 . S
C1808 C1809 1.377 . S
C1808 C1810 1.384 . S
C1809 C1808 1.377 . S
C1809 C1815 1.390 . S
C1810 H1801 0.930 . S
C1810 C1808 1.384 . S
C1810 C1811 1.372 . S
C1811 C1810 1.372 . S
C1811 C1812 1.400 . S
C1811 C1816 1.490 . S
C1812 H1802 0.930 . S
C1812 C1811 1.400 . S
C1812 C1815 1.386 . S
H1813 C1829 0.930 . S
H1814 C1830 0.931 . S
C1815 H1803 0.929 . S
C1815 C1809 1.390 . S
C1815 C1812 1.386 . S
C1816 C1811 1.490 . S
C1816 C1818 1.395 . S
C1816 C1819 1.403 1_565 S
H1817 C1823 0.930 . S
C1818 H1804 0.930 . S
C1818 C1816 1.395 . S
C1818 C1821 1.403 . S
C1819 C1816 1.403 1_545 S
C1819 C1820 1.524 . S
C1819 C1823 1.400 . S
C1820 H1805 0.960 . S
C1820 H1806 0.960 . S
C1820 H1807 0.960 1_545 S
C1820 C1819 1.524 . S
C1821 C1818 1.403 . S
C1821 C1822 1.392 1_565 S
C1821 C1825 1.495 . S
C1822 C1821 1.392 1_545 S
C1822 C1823 1.385 . S
C1822 C1824 1.478 . S
C1823 H1817 0.930 . S
C1823 C1819 1.400 . S
C1823 C1822 1.385 . S
C1824 C1822 1.478 . S
C1824 C1826 1.381 . S
C1824 C1830 1.383 . S
C1825 C1821 1.495 . S
C1825 H1831 0.959 . S
C1825 H1832 0.961 . S
C1825 H1833 0.960 1_565 S
C1826 C1824 1.381 . S
C1826 C1827 1.394 . S
C1826 H1834 0.930 . S
C1827 C1826 1.394 . S
C1827 C1828 1.383 . S
C1827 H1835 0.929 . S
C1828 C1827 1.383 . S
C1828 C1829 1.377 . S
C1829 H1813 0.930 . S
C1829 C1828 1.377 . S
C1829 C1830 1.379 . S
C1830 H1814 0.931 . S
C1830 C1824 1.383 . S
C1830 C1829 1.379 . S
H1831 C1825 0.959 . S
H1832 C1825 0.961 . S
H1833 C1825 0.960 1_545 S
H1834 C1826 0.930 . S
H1835 C1827 0.929 . S
H1836 C1844 0.929 . S
H1837 C1846 0.930 . S
H1838 C1848 0.930 . S
H1839 C1851 0.929 . S
H1840 C1854 0.930 . S
H1841 C1856 0.960 1_556 S
H1842 C1856 0.960 1_556 S
H1843 C1856 0.960 . S
C1844 H1836 0.929 . S
C1844 C1845 1.377 . S
C1844 C1846 1.384 . S
C1845 C1844 1.377 . S
C1845 C1851 1.390 . S
C1846 H1837 0.930 . S
C1846 C1844 1.384 . S
C1846 C1847 1.372 . S
C1847 C1846 1.372 . S
C1847 C1848 1.400 . S
C1847 C1852 1.490 . S
C1848 H1838 0.930 . S
C1848 C1847 1.400 . S
C1848 C1851 1.386 . S
H1849 C1865 0.930 . S
H1850 C1866 0.931 . S
C1851 H1839 0.929 . S
C1851 C1845 1.390 . S
C1851 C1848 1.386 . S
C1852 C1847 1.490 . S
C1852 C1854 1.395 . S
C1852 C1855 1.403 . S
H1853 C1859 0.930 . S
C1854 H1840 0.930 . S
C1854 C1852 1.395 . S
C1854 C1857 1.403 . S
C1855 C1852 1.403 . S
C1855 C1856 1.524 . S
C1855 C1859 1.400 . S
C1856 H1841 0.960 1_554 S
C1856 H1842 0.960 1_554 S
C1856 H1843 0.960 . S
C1856 C1855 1.524 . S
C1857 C1854 1.403 . S
C1857 C1858 1.392 . S
C1857 C1861 1.495 . S
C1858 C1857 1.392 . S
C1858 C1859 1.385 . S
C1858 C1860 1.478 . S
C1859 H1853 0.930 . S
C1859 C1855 1.400 . S
C1859 C1858 1.385 . S
C1860 C1858 1.478 . S
C1860 C1862 1.381 . S
C1860 C1866 1.383 . S
C1861 C1857 1.495 . S
C1861 H1867 0.959 . S
C1861 H1868 0.961 . S
C1861 H1869 0.960 . S
C1862 C1860 1.381 . S
C1862 C1863 1.394 . S
C1862 H1870 0.930 . S
C1863 C1862 1.394 . S
C1863 C1864 1.383 . S
C1863 H1871 0.929 . S
C1864 C1863 1.383 . S
C1864 C1865 1.377 . S
C1865 H1849 0.930 . S
C1865 C1864 1.377 . S
C1865 C1866 1.379 . S
C1866 H1850 0.931 . S
C1866 C1860 1.383 . S
C1866 C1865 1.379 . S
H1867 C1861 0.959 . S
H1868 C1861 0.961 . S
H1869 C1861 0.960 . S
H1870 C1862 0.930 . S
H1871 C1863 0.929 . S
H1872 C1880 0.929 . S
H1873 C1882 0.930 . S
H1874 C1884 0.930 . S
H1875 C1887 0.929 . S
H1876 C1890 0.930 . S
H1877 C1892 0.960 . S
H1878 C1892 0.960 . S
H1879 C1892 0.960 . S
C1880 H1872 0.929 . S
C1880 C1881 1.377 . S
C1880 C1882 1.384 . S
C1881 C1880 1.377 . S
C1881 C1887 1.390 . S
C1882 H1873 0.930 . S
C1882 C1880 1.384 . S
C1882 C1883 1.372 . S
C1883 C1882 1.372 . S
C1883 C1884 1.400 . S
C1883 C1888 1.490 . S
C1884 H1874 0.930 . S
C1884 C1883 1.400 . S
C1884 C1887 1.386 . S
H1885 C1901 0.930 . S
H1886 C1902 0.931 . S
C1887 H1875 0.929 . S
C1887 C1881 1.390 . S
C1887 C1884 1.386 . S
C1888 C1883 1.490 . S
C1888 C1890 1.395 . S
C1888 C1891 1.403 1_565 S
H1889 C1895 0.930 . S
C1890 H1876 0.930 . S
C1890 C1888 1.395 . S
C1890 C1893 1.403 . S
C1891 C1888 1.403 1_545 S
C1891 C1892 1.524 . S
C1891 C1895 1.400 . S
C1892 H1877 0.960 . S
C1892 H1878 0.960 . S
C1892 H1879 0.960 . S
C1892 C1891 1.524 . S
C1893 C1890 1.403 . S
C1893 C1894 1.392 1_565 S
C1893 C1897 1.495 . S
C1894 C1893 1.392 1_545 S
C1894 C1895 1.385 . S
C1894 C1896 1.478 . S
C1895 H1889 0.930 . S
C1895 C1891 1.400 . S
C1895 C1894 1.385 . S
C1896 C1894 1.478 . S
C1896 C1898 1.381 . S
C1896 C1902 1.383 . S
C1897 C1893 1.495 . S
C1897 H1903 0.959 . S
C1897 H1904 0.961 . S
C1897 H1905 0.960 . S
C1898 C1896 1.381 . S
C1898 C1899 1.394 . S
C1898 H1906 0.930 . S
C1899 C1898 1.394 . S
C1899 C1900 1.383 . S
C1899 H1907 0.929 . S
C1900 C1899 1.383 . S
C1900 C1901 1.377 . S
C1901 H1885 0.930 . S
C1901 C1900 1.377 . S
C1901 C1902 1.379 . S
C1902 H1886 0.931 . S
C1902 C1896 1.383 . S
C1902 C1901 1.379 . S
H1903 C1897 0.959 . S
H1904 C1897 0.961 . S
H1905 C1897 0.960 . S
H1906 C1898 0.930 . S
H1907 C1899 0.929 . S
H1908 C1916 0.929 . S
H1909 C1918 0.930 . S
H1910 C1920 0.930 . S
H1911 C1923 0.929 . S
H1912 C1926 0.930 . S
H1913 C1928 0.960 . S
H1914 C1928 0.960 . S
H1915 C1928 0.960 . S
C1916 H1908 0.929 . S
C1916 C1917 1.377 . S
C1916 C1918 1.384 . S
C1917 C1916 1.377 . S
C1917 C1923 1.390 . S
C1918 H1909 0.930 . S
C1918 C1916 1.384 . S
C1918 C1919 1.372 . S
C1919 C1918 1.372 . S
C1919 C1920 1.400 . S
C1919 C1924 1.490 . S
C1920 H1910 0.930 . S
C1920 C1919 1.400 . S
C1920 C1923 1.386 . S
H1921 C1937 0.930 . S
H1922 C1938 0.931 . S
C1923 H1911 0.929 . S
C1923 C1917 1.390 . S
C1923 C1920 1.386 . S
C1924 C1919 1.490 . S
C1924 C1926 1.395 . S
C1924 C1927 1.403 . S
H1925 C1931 0.930 . S
C1926 H1912 0.930 . S
C1926 C1924 1.395 . S
C1926 C1929 1.403 . S
C1927 C1924 1.403 . S
C1927 C1928 1.524 . S
C1927 C1931 1.400 . S
C1928 H1913 0.960 . S
C1928 H1914 0.960 . S
C1928 H1915 0.960 . S
C1928 C1927 1.524 . S
C1929 C1926 1.403 . S
C1929 C1930 1.392 . S
C1929 C1933 1.495 . S
C1930 C1929 1.392 . S
C1930 C1931 1.385 . S
C1930 C1932 1.478 . S
C1931 H1925 0.930 . S
C1931 C1927 1.400 . S
C1931 C1930 1.385 . S
C1932 C1930 1.478 . S
C1932 C1934 1.381 . S
C1932 C1938 1.383 . S
C1933 C1929 1.495 . S
C1933 H1939 0.959 . S
C1933 H1940 0.961 . S
C1933 H1941 0.960 . S
C1934 C1932 1.381 . S
C1934 C1935 1.394 . S
C1934 H1942 0.930 . S
C1935 C1934 1.394 . S
C1935 C1936 1.383 . S
C1935 H1943 0.929 . S
C1936 C1935 1.383 . S
C1936 C1937 1.377 . S
C1937 H1921 0.930 . S
C1937 C1936 1.377 . S
C1937 C1938 1.379 . S
C1938 H1922 0.931 . S
C1938 C1932 1.383 . S
C1938 C1937 1.379 . S
H1939 C1933 0.959 . S
H1940 C1933 0.961 . S
H1941 C1933 0.960 . S
H1942 C1934 0.930 . S
H1943 C1935 0.929 . S
H1944 C1952 0.929 . S
H1945 C1954 0.930 . S
H1946 C1956 0.930 . S
H1947 C1959 0.929 . S
H1948 C1962 0.930 . S
H1949 C1964 0.960 . S
H1950 C1964 0.960 . S
H1951 C1964 0.960 . S
C1952 H1944 0.929 . S
C1952 C1953 1.377 . S
C1952 C1954 1.384 . S
C1953 C1952 1.377 . S
C1953 C1959 1.390 . S
C1954 H1945 0.930 . S
C1954 C1952 1.384 . S
C1954 C1955 1.372 . S
C1955 C1954 1.372 . S
C1955 C1956 1.400 . S
C1955 C1960 1.490 . S
C1956 H1946 0.930 . S
C1956 C1955 1.400 . S
C1956 C1959 1.386 . S
H1957 C1973 0.930 . S
H1958 C1974 0.931 . S
C1959 H1947 0.929 . S
C1959 C1953 1.390 . S
C1959 C1956 1.386 . S
C1960 C1955 1.490 . S
C1960 C1962 1.395 1_655 S
C1960 C1963 1.403 . S
H1961 C1967 0.931 . S
C1962 H1948 0.930 . S
C1962 C1960 1.395 1_455 S
C1962 C1965 1.403 . S
C1963 C1960 1.403 . S
C1963 C1964 1.524 . S
C1963 C1967 1.379 1_655 S
C1964 H1949 0.960 . S
C1964 H1950 0.960 . S
C1964 H1951 0.960 . S
C1964 C1963 1.524 . S
C1965 C1962 1.403 . S
C1965 C1966 1.392 . S
C1965 C1969 1.495 . S
C1966 C1965 1.392 . S
C1966 C1967 1.418 . S
C1966 C1968 1.478 . S
C1967 H1961 0.931 . S
C1967 C1963 1.379 1_455 S
C1967 C1966 1.418 . S
C1968 C1966 1.478 . S
C1968 C1970 1.381 . S
C1968 C1974 1.383 . S
C1969 C1965 1.495 . S
C1969 H1975 0.959 . S
C1969 H1976 0.961 . S
C1969 H1977 0.960 . S
C1970 C1968 1.381 . S
C1970 C1971 1.394 . S
C1970 H1978 0.930 . S
C1971 C1970 1.394 . S
C1971 C1972 1.383 . S
C1971 H1979 0.929 . S
C1972 C1971 1.383 . S
C1972 C1973 1.377 . S
C1973 H1957 0.930 . S
C1973 C1972 1.377 . S
C1973 C1974 1.379 . S
C1974 H1958 0.931 . S
C1974 C1968 1.383 . S
C1974 C1973 1.379 . S
H1975 C1969 0.959 . S
H1976 C1969 0.961 . S
H1977 C1969 0.960 . S
H1978 C1970 0.930 . S
H1979 C1971 0.929 . S
H1980 C1988 0.929 . S
H1981 C1990 0.930 . S
H1982 C1992 0.930 . S
H1983 C1995 0.929 . S
H1984 C1998 0.930 . S
H1985 C2000 0.960 . S
H1986 C2000 0.960 . S
H1987 C2000 0.960 . S
C1988 H1980 0.929 . S
C1988 C1989 1.377 . S
C1988 C1990 1.384 . S
C1989 C1988 1.377 . S
C1989 C1995 1.390 . S
C1990 H1981 0.930 . S
C1990 C1988 1.384 . S
C1990 C1991 1.372 . S
C1991 C1990 1.372 . S
C1991 C1992 1.400 . S
C1991 C1996 1.490 . S
C1992 H1982 0.930 . S
C1992 C1991 1.400 . S
C1992 C1995 1.386 . S
H1993 C2009 0.930 . S
H1994 C2010 0.931 . S
C1995 H1983 0.929 . S
C1995 C1989 1.390 . S
C1995 C1992 1.386 . S
C1996 C1991 1.490 . S
C1996 C1998 1.395 . S
C1996 C1999 1.403 1_545 S
H1997 C2003 0.930 . S
C1998 H1984 0.930 . S
C1998 C1996 1.395 . S
C1998 C2001 1.403 . S
C1999 C1996 1.403 1_565 S
C1999 C2000 1.524 . S
C1999 C2003 1.400 . S
C2000 H1985 0.960 . S
C2000 H1986 0.960 . S
C2000 H1987 0.960 . S
C2000 C1999 1.524 . S
C2001 C1998 1.403 . S
C2001 C2002 1.392 1_545 S
C2001 C2005 1.495 . S
C2002 C2001 1.392 1_565 S
C2002 C2003 1.385 . S
C2002 C2004 1.478 . S
C2003 H1997 0.930 . S
C2003 C1999 1.400 . S
C2003 C2002 1.385 . S
C2004 C2002 1.478 . S
C2004 C2006 1.381 . S
C2004 C2010 1.383 . S
C2005 C2001 1.495 . S
C2005 H2011 0.959 . S
C2005 H2012 0.961 . S
C2005 H2013 0.960 . S
C2006 C2004 1.381 . S
C2006 C2007 1.394 . S
C2006 H2014 0.930 . S
C2007 C2006 1.394 . S
C2007 C2008 1.383 . S
C2007 H2015 0.929 . S
C2008 C2007 1.383 . S
C2008 C2009 1.377 . S
C2009 H1993 0.930 . S
C2009 C2008 1.377 . S
C2009 C2010 1.379 . S
C2010 H1994 0.931 . S
C2010 C2004 1.383 . S
C2010 C2009 1.379 . S
H2011 C2005 0.959 . S
H2012 C2005 0.961 . S
H2013 C2005 0.960 . S
H2014 C2006 0.930 . S
H2015 C2007 0.929 . S
H2016 C2024 0.929 . S
H2017 C2026 0.930 . S
H2018 C2028 0.930 . S
H2019 C2031 0.929 . S
H2020 C2034 0.930 . S
H2021 C2036 0.960 . S
H2022 C2036 0.960 . S
H2023 C2036 0.960 . S
C2024 H2016 0.929 . S
C2024 C2025 1.377 . S
C2024 C2026 1.384 . S
C2025 C2024 1.377 . S
C2025 C2031 1.390 . S
C2026 H2017 0.930 . S
C2026 C2024 1.384 . S
C2026 C2027 1.372 . S
C2027 C2026 1.372 . S
C2027 C2028 1.400 . S
C2027 C2032 1.490 . S
C2028 H2018 0.930 . S
C2028 C2027 1.400 . S
C2028 C2031 1.386 . S
H2029 C2045 0.930 . S
H2030 C2046 0.931 . S
C2031 H2019 0.929 . S
C2031 C2025 1.390 . S
C2031 C2028 1.386 . S
C2032 C2027 1.490 . S
C2032 C2034 1.395 . S
C2032 C2035 1.403 . S
H2033 C2039 0.930 . S
C2034 H2020 0.930 . S
C2034 C2032 1.395 . S
C2034 C2037 1.403 . S
C2035 C2032 1.403 . S
C2035 C2036 1.524 . S
C2035 C2039 1.400 . S
C2036 H2021 0.960 . S
C2036 H2022 0.960 . S
C2036 H2023 0.960 . S
C2036 C2035 1.524 . S
C2037 C2034 1.403 . S
C2037 C2038 1.392 . S
C2037 C2041 1.495 . S
C2038 C2037 1.392 . S
C2038 C2039 1.385 . S
C2038 C2040 1.478 . S
C2039 H2033 0.930 . S
C2039 C2035 1.400 . S
C2039 C2038 1.385 . S
C2040 C2038 1.478 . S
C2040 C2042 1.381 . S
C2040 C2046 1.383 . S
C2041 C2037 1.495 . S
C2041 H2047 0.959 . S
C2041 H2048 0.961 . S
C2041 H2049 0.960 . S
C2042 C2040 1.381 . S
C2042 C2043 1.394 . S
C2042 H2050 0.930 . S
C2043 C2042 1.394 . S
C2043 C2044 1.383 . S
C2043 H2051 0.929 . S
C2044 C2043 1.383 . S
C2044 C2045 1.377 . S
C2045 H2029 0.930 . S
C2045 C2044 1.377 . S
C2045 C2046 1.379 . S
C2046 H2030 0.931 . S
C2046 C2040 1.383 . S
C2046 C2045 1.379 . S
H2047 C2041 0.959 . S
H2048 C2041 0.961 . S
H2049 C2041 0.960 . S
H2050 C2042 0.930 . S
H2051 C2043 0.929 . S
H2052 C2060 0.929 . S
H2053 C2062 0.930 . S
H2054 C2064 0.930 . S
H2055 C2067 0.929 . S
H2056 C2070 0.930 . S
H2057 C2072 0.960 . S
H2058 C2072 0.960 . S
H2059 C2072 0.960 1_455 S
C2060 H2052 0.929 . S
C2060 C2061 1.377 . S
C2060 C2062 1.384 . S
C2061 C2060 1.377 . S
C2061 C2067 1.390 . S
C2062 H2053 0.930 . S
C2062 C2060 1.384 . S
C2062 C2063 1.372 . S
C2063 C2062 1.372 . S
C2063 C2064 1.400 . S
C2063 C2068 1.490 . S
C2064 H2054 0.930 . S
C2064 C2063 1.400 . S
C2064 C2067 1.386 . S
H2065 C2081 0.930 . S
H2066 C2082 0.931 . S
C2067 H2055 0.929 . S
C2067 C2061 1.390 . S
C2067 C2064 1.386 . S
C2068 C2063 1.490 . S
C2068 C2070 1.395 . S
C2068 C2071 1.397 1_455 S
H2069 C2075 0.930 . S
C2070 H2056 0.930 . S
C2070 C2068 1.395 . S
C2070 C2073 1.400 1_455 S
C2071 C2068 1.397 1_655 S
C2071 C2072 1.527 . S
C2071 C2075 1.403 . S
C2072 H2057 0.960 . S
C2072 H2058 0.960 . S
C2072 H2059 0.960 1_655 S
C2072 C2071 1.527 . S
C2073 C2070 1.400 1_655 S
C2073 C2074 1.399 . S
C2073 C2077 1.480 1_655 S
C2074 C2073 1.399 . S
C2074 C2075 1.385 . S
C2074 C2076 1.478 . S
C2075 H2069 0.930 . S
C2075 C2071 1.403 . S
C2075 C2074 1.385 . S
C2076 C2074 1.478 . S
C2076 C2078 1.381 . S
C2076 C2082 1.383 . S
C2077 C2073 1.480 1_455 S
C2077 H2083 0.984 . S
C2077 H2084 0.966 . S
C2077 H2085 0.943 1_455 S
C2078 C2076 1.381 . S
C2078 C2079 1.394 . S
C2078 H2086 0.930 . S
C2079 C2078 1.394 . S
C2079 C2080 1.383 . S
C2079 H2087 0.929 . S
C2080 C2079 1.383 . S
C2080 C2081 1.377 . S
C2081 H2065 0.930 . S
C2081 C2080 1.377 . S
C2081 C2082 1.379 . S
C2082 H2066 0.931 . S
C2082 C2076 1.383 . S
C2082 C2081 1.379 . S
H2083 C2077 0.984 . S
H2084 C2077 0.966 . S
H2085 C2077 0.943 1_655 S
H2086 C2078 0.930 . S
H2087 C2079 0.929 . S
H2088 C2096 0.929 . S
H2089 C2098 0.930 . S
H2090 C2100 0.930 . S
H2091 C2103 0.929 . S
H2092 C2106 0.930 . S
H2093 C2108 0.960 . S
H2094 C2108 0.960 . S
H2095 C2108 0.960 . S
C2096 H2088 0.929 . S
C2096 C2097 1.377 . S
C2096 C2098 1.384 . S
C2097 C2096 1.377 . S
C2097 C2103 1.390 . S
C2098 H2089 0.930 . S
C2098 C2096 1.384 . S
C2098 C2099 1.372 . S
C2099 C2098 1.372 . S
C2099 C2100 1.400 . S
C2099 C2104 1.490 . S
C2100 H2090 0.930 . S
C2100 C2099 1.400 . S
C2100 C2103 1.386 . S
H2101 C2117 0.930 . S
H2102 C2118 0.931 . S
C2103 H2091 0.929 . S
C2103 C2097 1.390 . S
C2103 C2100 1.386 . S
C2104 C2099 1.490 . S
C2104 C2106 1.395 . S
C2104 C2107 1.403 . S
H2105 C2111 0.930 . S
C2106 H2092 0.930 . S
C2106 C2104 1.395 . S
C2106 C2109 1.403 . S
C2107 C2104 1.403 . S
C2107 C2108 1.524 . S
C2107 C2111 1.400 . S
C2108 H2093 0.960 . S
C2108 H2094 0.960 . S
C2108 H2095 0.960 . S
C2108 C2107 1.524 . S
C2109 C2106 1.403 . S
C2109 C2110 1.392 . S
C2109 C2113 1.495 . S
C2110 C2109 1.392 . S
C2110 C2111 1.385 . S
C2110 C2112 1.478 . S
C2111 H2105 0.930 . S
C2111 C2107 1.400 . S
C2111 C2110 1.385 . S
C2112 C2110 1.478 . S
C2112 C2114 1.381 . S
C2112 C2118 1.383 . S
C2113 C2109 1.495 . S
C2113 H2119 0.959 . S
C2113 H2120 0.961 . S
C2113 H2121 0.960 . S
C2114 C2112 1.381 . S
C2114 C2115 1.394 . S
C2114 H2122 0.930 . S
C2115 C2114 1.394 . S
C2115 C2116 1.383 . S
C2115 H2123 0.929 . S
C2116 C2115 1.383 . S
C2116 C2117 1.377 . S
C2117 H2101 0.930 . S
C2117 C2116 1.377 . S
C2117 C2118 1.379 . S
C2118 H2102 0.931 . S
C2118 C2112 1.383 . S
C2118 C2117 1.379 . S
H2119 C2113 0.959 . S
H2120 C2113 0.961 . S
H2121 C2113 0.960 . S
H2122 C2114 0.930 . S
H2123 C2115 0.929 . S
H2124 C2132 0.929 . S
H2125 C2134 0.930 . S
H2126 C2136 0.930 . S
H2127 C2139 0.929 . S
H2128 C2142 0.930 . S
H2129 C2144 0.960 . S
H2130 C2144 0.960 . S
H2131 C2144 0.960 . S
C2132 H2124 0.929 . S
C2132 C2133 1.377 . S
C2132 C2134 1.384 . S
C2133 C2132 1.377 . S
C2133 C2139 1.390 . S
C2134 H2125 0.930 . S
C2134 C2132 1.384 . S
C2134 C2135 1.372 . S
C2135 C2134 1.372 . S
C2135 C2136 1.400 . S
C2135 C2140 1.490 . S
C2136 H2126 0.930 . S
C2136 C2135 1.400 . S
C2136 C2139 1.386 . S
H2137 C2153 0.930 . S
H2138 C2154 0.931 . S
C2139 H2127 0.929 . S
C2139 C2133 1.390 . S
C2139 C2136 1.386 . S
C2140 C2135 1.490 . S
C2140 C2142 1.395 . S
C2140 C2143 1.403 . S
H2141 C2147 0.930 . S
C2142 H2128 0.930 . S
C2142 C2140 1.395 . S
C2142 C2145 1.403 . S
C2143 C2140 1.403 . S
C2143 C2144 1.524 . S
C2143 C2147 1.400 . S
C2144 H2129 0.960 . S
C2144 H2130 0.960 . S
C2144 H2131 0.960 . S
C2144 C2143 1.524 . S
C2145 C2142 1.403 . S
C2145 C2146 1.392 . S
C2145 C2149 1.495 . S
C2146 C2145 1.392 . S
C2146 C2147 1.385 . S
C2146 C2148 1.478 . S
C2147 H2141 0.930 . S
C2147 C2143 1.400 . S
C2147 C2146 1.385 . S
C2148 C2146 1.478 . S
C2148 C2150 1.381 . S
C2148 C2154 1.383 . S
C2149 C2145 1.495 . S
C2149 H2155 0.959 . S
C2149 H2156 0.961 . S
C2149 H2157 0.960 . S
C2150 C2148 1.381 . S
C2150 C2151 1.394 . S
C2150 H2158 0.930 . S
C2151 C2150 1.394 . S
C2151 C2152 1.383 . S
C2151 H2159 0.929 . S
C2152 C2151 1.383 . S
C2152 C2153 1.377 . S
C2153 H2137 0.930 . S
C2153 C2152 1.377 . S
C2153 C2154 1.379 . S
C2154 H2138 0.931 . S
C2154 C2148 1.383 . S
C2154 C2153 1.379 . S
H2155 C2149 0.959 . S
H2156 C2149 0.961 . S
H2157 C2149 0.960 . S
H2158 C2150 0.930 . S
H2159 C2151 0.929 . S
H2160 C2168 0.929 . S
H2161 C2170 0.930 . S
H2162 C2172 0.930 . S
H2163 C2175 0.929 . S
H2164 C2178 0.930 . S
H2165 C2180 0.960 . S
H2166 C2180 0.960 . S
H2167 C2180 0.960 . S
C2168 H2160 0.929 . S
C2168 C2169 1.377 . S
C2168 C2170 1.384 . S
C2169 C2168 1.377 . S
C2169 C2175 1.390 . S
C2170 H2161 0.930 . S
C2170 C2168 1.384 . S
C2170 C2171 1.372 . S
C2171 C2170 1.372 . S
C2171 C2172 1.400 . S
C2171 C2176 1.490 . S
C2172 H2162 0.930 . S
C2172 C2171 1.400 . S
C2172 C2175 1.386 . S
H2173 C2189 0.930 . S
H2174 C2190 0.931 . S
C2175 H2163 0.929 . S
C2175 C2169 1.390 . S
C2175 C2172 1.386 . S
C2176 C2171 1.490 . S
C2176 C2178 1.395 . S
C2176 C2179 1.403 . S
H2177 C2183 0.930 . S
C2178 H2164 0.930 . S
C2178 C2176 1.395 . S
C2178 C2181 1.403 . S
C2179 C2176 1.403 . S
C2179 C2180 1.524 . S
C2179 C2183 1.400 . S
C2180 H2165 0.960 . S
C2180 H2166 0.960 . S
C2180 H2167 0.960 . S
C2180 C2179 1.524 . S
C2181 C2178 1.403 . S
C2181 C2182 1.392 . S
C2181 C2185 1.495 . S
C2182 C2181 1.392 . S
C2182 C2183 1.385 . S
C2182 C2184 1.478 . S
C2183 H2177 0.930 . S
C2183 C2179 1.400 . S
C2183 C2182 1.385 . S
C2184 C2182 1.478 . S
C2184 C2186 1.381 . S
C2184 C2190 1.383 . S
C2185 C2181 1.495 . S
C2185 H2191 0.959 . S
C2185 H2192 0.961 . S
C2185 H2193 0.960 . S
C2186 C2184 1.381 . S
C2186 C2187 1.394 . S
C2186 H2194 0.930 . S
C2187 C2186 1.394 . S
C2187 C2188 1.383 . S
C2187 H2195 0.929 . S
C2188 C2187 1.383 . S
C2188 C2189 1.377 . S
C2189 H2173 0.930 . S
C2189 C2188 1.377 . S
C2189 C2190 1.379 . S
C2190 H2174 0.931 . S
C2190 C2184 1.383 . S
C2190 C2189 1.379 . S
H2191 C2185 0.959 . S
H2192 C2185 0.961 . S
H2193 C2185 0.960 . S
H2194 C2186 0.930 . S
H2195 C2187 0.929 . S
H2196 C2204 0.929 . S
H2197 C2206 0.930 . S
H2198 C2208 0.930 . S
H2199 C2211 0.929 . S
H2200 C2214 0.930 . S
H2201 C2216 0.960 . S
H2202 C2216 0.960 . S
H2203 C2216 0.960 . S
C2204 H2196 0.929 . S
C2204 C2205 1.377 . S
C2204 C2206 1.384 . S
C2205 C2204 1.377 . S
C2205 C2211 1.390 . S
C2206 H2197 0.930 . S
C2206 C2204 1.384 . S
C2206 C2207 1.372 . S
C2207 C2206 1.372 . S
C2207 C2208 1.400 . S
C2207 C2212 1.490 . S
C2208 H2198 0.930 . S
C2208 C2207 1.400 . S
C2208 C2211 1.386 . S
H2209 C2225 0.930 . S
H2210 C2226 0.931 . S
C2211 H2199 0.929 . S
C2211 C2205 1.390 . S
C2211 C2208 1.386 . S
C2212 C2207 1.490 . S
C2212 C2214 1.395 . S
C2212 C2215 1.403 . S
H2213 C2219 0.930 . S
C2214 H2200 0.930 . S
C2214 C2212 1.395 . S
C2214 C2217 1.403 . S
C2215 C2212 1.403 . S
C2215 C2216 1.524 . S
C2215 C2219 1.400 . S
C2216 H2201 0.960 . S
C2216 H2202 0.960 . S
C2216 H2203 0.960 . S
C2216 C2215 1.524 . S
C2217 C2214 1.403 . S
C2217 C2218 1.392 . S
C2217 C2221 1.495 . S
C2218 C2217 1.392 . S
C2218 C2219 1.385 . S
C2218 C2220 1.478 . S
C2219 H2213 0.930 . S
C2219 C2215 1.400 . S
C2219 C2218 1.385 . S
C2220 C2218 1.478 . S
C2220 C2222 1.381 . S
C2220 C2226 1.383 . S
C2221 C2217 1.495 . S
C2221 H2227 0.959 . S
C2221 H2228 0.961 . S
C2221 H2229 0.960 . S
C2222 C2220 1.381 . S
C2222 C2223 1.394 . S
C2222 H2230 0.930 . S
C2223 C2222 1.394 . S
C2223 C2224 1.383 . S
C2223 H2231 0.929 . S
C2224 C2223 1.383 . S
C2224 C2225 1.377 . S
C2225 H2209 0.930 . S
C2225 C2224 1.377 . S
C2225 C2226 1.379 . S
C2226 H2210 0.931 . S
C2226 C2220 1.383 . S
C2226 C2225 1.379 . S
H2227 C2221 0.959 . S
H2228 C2221 0.961 . S
H2229 C2221 0.960 . S
H2230 C2222 0.930 . S
H2231 C2223 0.929 . S
H2232 C2240 0.929 . S
H2233 C2242 0.930 . S
H2234 C2244 0.930 . S
H2235 C2247 0.929 . S
H2236 C2250 0.930 . S
H2237 C2252 0.960 . S
H2238 C2252 0.960 . S
H2239 C2252 0.960 . S
C2240 H2232 0.929 . S
C2240 C2241 1.377 . S
C2240 C2242 1.384 . S
C2241 C2240 1.377 . S
C2241 C2247 1.390 . S
C2242 H2233 0.930 . S
C2242 C2240 1.384 . S
C2242 C2243 1.372 . S
C2243 C2242 1.372 . S
C2243 C2244 1.400 . S
C2243 C2248 1.490 . S
C2244 H2234 0.930 . S
C2244 C2243 1.400 . S
C2244 C2247 1.386 . S
H2245 C2261 0.930 . S
H2246 C2262 0.931 . S
C2247 H2235 0.929 . S
C2247 C2241 1.390 . S
C2247 C2244 1.386 . S
C2248 C2243 1.490 . S
C2248 C2250 1.395 . S
C2248 C2251 1.403 . S
H2249 C2255 0.930 . S
C2250 H2236 0.930 . S
C2250 C2248 1.395 . S
C2250 C2253 1.403 . S
C2251 C2248 1.403 . S
C2251 C2252 1.524 . S
C2251 C2255 1.400 . S
C2252 H2237 0.960 . S
C2252 H2238 0.960 . S
C2252 H2239 0.960 . S
C2252 C2251 1.524 . S
C2253 C2250 1.403 . S
C2253 C2254 1.392 . S
C2253 C2257 1.495 . S
C2254 C2253 1.392 . S
C2254 C2255 1.385 . S
C2254 C2256 1.478 . S
C2255 H2249 0.930 . S
C2255 C2251 1.400 . S
C2255 C2254 1.385 . S
C2256 C2254 1.478 . S
C2256 C2258 1.381 . S
C2256 C2262 1.383 . S
C2257 C2253 1.495 . S
C2257 H2263 0.959 . S
C2257 H2264 0.961 . S
C2257 H2265 0.960 . S
C2258 C2256 1.381 . S
C2258 C2259 1.394 . S
C2258 H2266 0.930 . S
C2259 C2258 1.394 . S
C2259 C2260 1.383 . S
C2259 H2267 0.929 . S
C2260 C2259 1.383 . S
C2260 C2261 1.377 . S
C2261 H2245 0.930 . S
C2261 C2260 1.377 . S
C2261 C2262 1.379 . S
C2262 H2246 0.931 . S
C2262 C2256 1.383 . S
C2262 C2261 1.379 . S
H2263 C2257 0.959 . S
H2264 C2257 0.961 . S
H2265 C2257 0.960 . S
H2266 C2258 0.930 . S
H2267 C2259 0.929 . S
H2268 C2276 0.929 . S
H2269 C2278 0.930 . S
H2270 C2280 0.930 . S
H2271 C2283 0.929 . S
H2272 C2286 0.930 . S
H2273 C2288 0.960 . S
H2274 C2288 0.960 . S
H2275 C2288 0.960 . S
C2276 H2268 0.929 . S
C2276 C2277 1.377 . S
C2276 C2278 1.384 . S
C2277 C2276 1.377 . S
C2277 C2283 1.390 . S
C2278 H2269 0.930 . S
C2278 C2276 1.384 . S
C2278 C2279 1.372 . S
C2279 C2278 1.372 . S
C2279 C2280 1.400 . S
C2279 C2284 1.490 . S
C2280 H2270 0.930 . S
C2280 C2279 1.400 . S
C2280 C2283 1.386 . S
H2281 C2297 0.930 . S
H2282 C2298 0.931 . S
C2283 H2271 0.929 . S
C2283 C2277 1.390 . S
C2283 C2280 1.386 . S
C2284 C2279 1.490 . S
C2284 C2286 1.395 . S
C2284 C2287 1.403 . S
H2285 C2291 0.930 . S
C2286 H2272 0.930 . S
C2286 C2284 1.395 . S
C2286 C2289 1.403 . S
C2287 C2284 1.403 . S
C2287 C2288 1.524 . S
C2287 C2291 1.400 . S
C2288 H2273 0.960 . S
C2288 H2274 0.960 . S
C2288 H2275 0.960 . S
C2288 C2287 1.524 . S
C2289 C2286 1.403 . S
C2289 C2290 1.392 . S
C2289 C2293 1.495 . S
C2290 C2289 1.392 . S
C2290 C2291 1.385 . S
C2290 C2292 1.478 . S
C2291 H2285 0.930 . S
C2291 C2287 1.400 . S
C2291 C2290 1.385 . S
C2292 C2290 1.478 . S
C2292 C2294 1.381 . S
C2292 C2298 1.383 . S
C2293 C2289 1.495 . S
C2293 H2299 0.959 . S
C2293 H2300 0.961 . S
C2293 H2301 0.960 . S
C2294 C2292 1.381 . S
C2294 C2295 1.394 . S
C2294 H2302 0.930 . S
C2295 C2294 1.394 . S
C2295 C2296 1.383 . S
C2295 H2303 0.929 . S
C2296 C2295 1.383 . S
C2296 C2297 1.377 . S
C2297 H2281 0.930 . S
C2297 C2296 1.377 . S
C2297 C2298 1.379 . S
C2298 H2282 0.931 . S
C2298 C2292 1.383 . S
C2298 C2297 1.379 . S
H2299 C2293 0.959 . S
H2300 C2293 0.961 . S
H2301 C2293 0.960 . S
H2302 C2294 0.930 . S
H2303 C2295 0.929 . S
C1017 C74 0.919 . S
C1036 C746 0.898 . S
C1053 C158 0.927 . S
C1072 C830 0.947 . S
C1089 C242 0.925 . S
C1108 C914 0.942 . S
C1125 C998 0.924 . S
C1144 C326 0.938 . S
C1161 C410 0.917 . S
C1180 C578 0.903 . S
C1197 C662 0.917 . S
C1216 C494 0.895 . S
C1233 C910 1.367 . S
C1252 C70 1.407 . S
C1269 C994 1.352 . S
C1288 C154 1.335 . S
C1305 C238 1.348 . S
C1324 C574 1.316 . S
C1341 C658 1.368 . S
C1360 C322 1.413 . S
C1377 C742 1.370 . S
C1396 C406 1.420 . S
C1413 C490 1.367 . S
C1432 C826 1.408 . S
C1449 C655 4.615 . S
C1468 C67 4.596 . S
C1485 C739 4.612 . S
C1504 C151 4.600 . S
C1521 C823 4.617 . S
C1540 C235 4.599 . S
C1557 C319 4.617 . S
C1576 C907 4.601 . S
C1593 C403 4.613 . S
C1612 C991 4.621 . S
C1629 C487 4.617 . S
C1648 C571 4.599 . S
C1665 C63 0.758 . S
C1684 C315 0.830 . S
C1701 C147 0.774 . S
C1720 C399 0.825 . S
C1737 C231 0.778 . S
C1756 C483 0.734 . S
C1773 C819 0.780 . S
C1792 C567 0.785 . S
C1809 C651 0.756 . S
C1828 C903 0.743 . S
C1845 C987 0.777 . S
C1864 C735 0.727 . S
C1881 C646 0.964 . S
C1900 C58 0.972 . S
C1917 C730 0.960 . S
C1936 C142 0.918 . S
C1953 C226 0.954 . S
C1972 C814 0.929 . S
C1989 C898 0.964 . S
C2008 C310 0.972 . S
C2025 C982 0.957 . S
C2044 C394 0.922 . S
C2061 C478 0.955 . S
C2080 C562 1.007 . S
C2097 C56 3.479 . S
C2116 C896 3.470 . S
C2133 C140 3.478 . S
C2152 C980 3.465 1_556 S
C2169 C224 3.481 1_554 S
C2188 C560 3.482 . S
C2205 C308 3.482 . S
C2224 C644 3.488 . S
C2241 C392 3.477 . S
C2260 C728 3.461 1_556 S
C2277 C812 3.476 . S
C2296 C476 3.460 1_554 S
