# Generated by pormake.
# Topology vck, (7)-cn, num edge types: 1
# Building blocks:
#     Node 0, Type 0, BuildingBlock: HICVOG_clean_sbu_0, # of connection points: 7
#     Node 1, Type 0, BuildingBlock: HICVOG_clean_sbu_0, # of connection points: 7
#     Node 2, Type 0, BuildingBlock: HICVOG_clean_sbu_0, # of connection points: 7
#     Node 3, Type 0, BuildingBlock: HICVOG_clean_sbu_0, # of connection points: 7
#     Node 4, Type 0, BuildingBlock: HICVOG_clean_sbu_0, # of connection points: 7
#     Node 5, Type 0, BuildingBlock: HICVOG_clean_sbu_0, # of connection points: 7
#     Node 6, Type 0, BuildingBlock: HICVOG_clean_sbu_0, # of connection points: 7
#     Node 7, Type 0, BuildingBlock: HICVOG_clean_sbu_0, # of connection points: 7
#     Node 8, Type 0, BuildingBlock: HICVOG_clean_sbu_0, # of connection points: 7
#     Node 9, Type 0, BuildingBlock: HICVOG_clean_sbu_0, # of connection points: 7
#     Node 10, Type 0, BuildingBlock: HICVOG_clean_sbu_0, # of connection points: 7
#     Node 11, Type 0, BuildingBlock: HICVOG_clean_sbu_0, # of connection points: 7
#     Node 12, Type 0, BuildingBlock: HICVOG_clean_sbu_0, # of connection points: 7
#     Node 13, Type 0, BuildingBlock: HICVOG_clean_sbu_0, # of connection points: 7
#     Node 14, Type 0, BuildingBlock: HICVOG_clean_sbu_0, # of connection points: 7
#     Node 15, Type 0, BuildingBlock: HICVOG_clean_sbu_0, # of connection points: 7
#     Edge 16, Type (0, 0), BuildingBlock: KIFKEQ_clean_linker_1, # of connection points: 2
#     Edge 17, Type (0, 0), BuildingBlock: KIFKEQ_clean_linker_1, # of connection points: 2
#     Edge 18, Type (0, 0), BuildingBlock: KIFKEQ_clean_linker_1, # of connection points: 2
#     Edge 19, Type (0, 0), BuildingBlock: KIFKEQ_clean_linker_1, # of connection points: 2
#     Edge 20, Type (0, 0), BuildingBlock: KIFKEQ_clean_linker_1, # of connection points: 2
#     Edge 21, Type (0, 0), BuildingBlock: KIFKEQ_clean_linker_1, # of connection points: 2
#     Edge 22, Type (0, 0), BuildingBlock: KIFKEQ_clean_linker_1, # of connection points: 2
#     Edge 23, Type (0, 0), BuildingBlock: KIFKEQ_clean_linker_1, # of connection points: 2
#     Edge 24, Type (0, 0), BuildingBlock: KIFKEQ_clean_linker_1, # of connection points: 2
#     Edge 25, Type (0, 0), BuildingBlock: KIFKEQ_clean_linker_1, # of connection points: 2
#     Edge 26, Type (0, 0), BuildingBlock: KIFKEQ_clean_linker_1, # of connection points: 2
#     Edge 27, Type (0, 0), BuildingBlock: KIFKEQ_clean_linker_1, # of connection points: 2
#     Edge 28, Type (0, 0), BuildingBlock: KIFKEQ_clean_linker_1, # of connection points: 2
#     Edge 29, Type (0, 0), BuildingBlock: KIFKEQ_clean_linker_1, # of connection points: 2
#     Edge 30, Type (0, 0), BuildingBlock: KIFKEQ_clean_linker_1, # of connection points: 2
#     Edge 31, Type (0, 0), BuildingBlock: KIFKEQ_clean_linker_1, # of connection points: 2
#     Edge 32, Type (0, 0), BuildingBlock: KIFKEQ_clean_linker_1, # of connection points: 2
#     Edge 33, Type (0, 0), BuildingBlock: KIFKEQ_clean_linker_1, # of connection points: 2
#     Edge 34, Type (0, 0), BuildingBlock: KIFKEQ_clean_linker_1, # of connection points: 2
#     Edge 35, Type (0, 0), BuildingBlock: KIFKEQ_clean_linker_1, # of connection points: 2
#     Edge 36, Type (0, 0), BuildingBlock: KIFKEQ_clean_linker_1, # of connection points: 2
#     Edge 37, Type (0, 0), BuildingBlock: KIFKEQ_clean_linker_1, # of connection points: 2
#     Edge 38, Type (0, 0), BuildingBlock: KIFKEQ_clean_linker_1, # of connection points: 2
#     Edge 39, Type (0, 0), BuildingBlock: KIFKEQ_clean_linker_1, # of connection points: 2
#     Edge 40, Type (0, 0), BuildingBlock: KIFKEQ_clean_linker_1, # of connection points: 2
#     Edge 41, Type (0, 0), BuildingBlock: KIFKEQ_clean_linker_1, # of connection points: 2
#     Edge 42, Type (0, 0), BuildingBlock: KIFKEQ_clean_linker_1, # of connection points: 2
#     Edge 43, Type (0, 0), BuildingBlock: KIFKEQ_clean_linker_1, # of connection points: 2
#     Edge 44, Type (0, 0), BuildingBlock: KIFKEQ_clean_linker_1, # of connection points: 2
#     Edge 45, Type (0, 0), BuildingBlock: KIFKEQ_clean_linker_1, # of connection points: 2
#     Edge 46, Type (0, 0), BuildingBlock: KIFKEQ_clean_linker_1, # of connection points: 2
#     Edge 47, Type (0, 0), BuildingBlock: KIFKEQ_clean_linker_1, # of connection points: 2
#     Edge 48, Type (0, 0), BuildingBlock: KIFKEQ_clean_linker_1, # of connection points: 2
#     Edge 49, Type (0, 0), BuildingBlock: KIFKEQ_clean_linker_1, # of connection points: 2
#     Edge 50, Type (0, 0), BuildingBlock: KIFKEQ_clean_linker_1, # of connection points: 2
#     Edge 51, Type (0, 0), BuildingBlock: KIFKEQ_clean_linker_1, # of connection points: 2
#     Edge 52, Type (0, 0), BuildingBlock: KIFKEQ_clean_linker_1, # of connection points: 2
#     Edge 53, Type (0, 0), BuildingBlock: KIFKEQ_clean_linker_1, # of connection points: 2
#     Edge 54, Type (0, 0), BuildingBlock: KIFKEQ_clean_linker_1, # of connection points: 2
#     Edge 55, Type (0, 0), BuildingBlock: KIFKEQ_clean_linker_1, # of connection points: 2
#     Edge 56, Type (0, 0), BuildingBlock: KIFKEQ_clean_linker_1, # of connection points: 2
#     Edge 57, Type (0, 0), BuildingBlock: KIFKEQ_clean_linker_1, # of connection points: 2
#     Edge 58, Type (0, 0), BuildingBlock: KIFKEQ_clean_linker_1, # of connection points: 2
#     Edge 59, Type (0, 0), BuildingBlock: KIFKEQ_clean_linker_1, # of connection points: 2
#     Edge 60, Type (0, 0), BuildingBlock: KIFKEQ_clean_linker_1, # of connection points: 2
#     Edge 61, Type (0, 0), BuildingBlock: KIFKEQ_clean_linker_1, # of connection points: 2
#     Edge 62, Type (0, 0), BuildingBlock: KIFKEQ_clean_linker_1, # of connection points: 2
#     Edge 63, Type (0, 0), BuildingBlock: KIFKEQ_clean_linker_1, # of connection points: 2
#     Edge 64, Type (0, 0), BuildingBlock: KIFKEQ_clean_linker_1, # of connection points: 2
#     Edge 65, Type (0, 0), BuildingBlock: KIFKEQ_clean_linker_1, # of connection points: 2
#     Edge 66, Type (0, 0), BuildingBlock: KIFKEQ_clean_linker_1, # of connection points: 2
#     Edge 67, Type (0, 0), BuildingBlock: KIFKEQ_clean_linker_1, # of connection points: 2
#     Edge 68, Type (0, 0), BuildingBlock: KIFKEQ_clean_linker_1, # of connection points: 2
#     Edge 69, Type (0, 0), BuildingBlock: KIFKEQ_clean_linker_1, # of connection points: 2
#     Edge 70, Type (0, 0), BuildingBlock: KIFKEQ_clean_linker_1, # of connection points: 2
#     Edge 71, Type (0, 0), BuildingBlock: KIFKEQ_clean_linker_1, # of connection points: 2
# Relax obj value: 0.181
# Max RMSD: 0.226
# Mean RMSD: 0.226
data_MOF--net-vck--node1-HICVOG_clean_sbu_0--edge1-KIFKEQ_clean_linker_1
_symmetry_space_group_name_H-M    P1
_symmetry_Int_Tables_number       1
_symmetry_cell_setting            triclinic
loop_
_symmetry_equiv_pos_as_xyz
'x, y, z'
_cell_length_a     91.079137
_cell_length_b     47.941982
_cell_length_c     17.897862
_cell_angle_alpha  89.995191
_cell_angle_beta   90.122598
_cell_angle_gamma 89.960833
loop_
_atom_site_label
_atom_site_type_symbol
_atom_site_fract_x
_atom_site_fract_y
_atom_site_fract_z
_atom_type_partial_charge
Zn0 Zn 0.56242 0.18054 0.92022 0.0
C1 C 0.55587 0.25251 0.03309 0.0
N2 N 0.54458 0.25456 0.9852 0.0
C3 C 0.54674 0.23307 0.93884 0.0
N4 N 0.55877 0.21805 0.9577 0.0
N5 N 0.56467 0.23049 0.01704 0.0
C6 C 0.57962 0.20168 0.20861 0.0
O7 O 0.57682 0.17919 0.16912 0.0
O8 O 0.56191 0.18118 0.8067 0.0
Zn9 Zn 0.58435 0.22486 0.06112 0.0
N10 N 0.54685 0.15658 0.9592 0.0
C11 C 0.52731 0.15225 0.04654 0.0
C12 C 0.5389 0.16736 0.01663 0.0
C13 C 0.54387 0.13061 0.93172 0.0
N14 N 0.52428 0.12657 0.0191 0.0
C15 C 0.53223 0.11495 0.96273 0.0
O16 O 0.59538 0.18966 0.02666 0.0
C17 C 0.59382 0.16806 0.98565 0.0
O18 O 0.58215 0.16395 0.94788 0.0
H19 H 0.54149 0.18764 0.03929 0.0
H20 H 0.55038 0.12251 0.88612 0.0
C21 C 0.6067 0.27022 0.07104 0.0
C22 C 0.61485 0.29222 0.03843 0.0
C23 C 0.60127 0.28637 0.9258 0.0
C24 C 0.59346 0.26455 0.95766 0.0
N25 N 0.59623 0.25679 0.02932 0.0
N26 N 0.61176 0.29946 0.9665 0.0
H27 H 0.6089 0.26336 0.12756 0.0
C28 C 0.57239 0.19343 0.77307 0.0
O29 O 0.58285 0.20497 0.81319 0.0
O30 O 0.58317 0.22401 0.17463 0.0
H31 H 0.58527 0.2536 0.92514 0.0
H32 H 0.52083 0.16075 0.09171 0.0
H33 H 0.59915 0.29269 0.86876 0.0
Zn34 Zn 0.47626 0.84798 0.92456 0.0
C35 C 0.48263 0.77558 0.03442 0.0
N36 N 0.49281 0.77208 0.98114 0.0
C37 C 0.49063 0.79412 0.93664 0.0
N38 N 0.47969 0.81066 0.96131 0.0
N39 N 0.47434 0.79866 0.02229 0.0
C40 C 0.4597 0.82842 0.21421 0.0
O41 O 0.46151 0.85149 0.17569 0.0
O42 O 0.47797 0.84732 0.81171 0.0
Zn43 Zn 0.45481 0.80424 0.06705 0.0
N44 N 0.49114 0.87219 0.96856 0.0
C45 C 0.50851 0.87819 0.06668 0.0
C46 C 0.49758 0.86258 0.03215 0.0
C47 C 0.49499 0.89737 0.93886 0.0
N48 N 0.51239 0.90315 0.03722 0.0
C49 C 0.50593 0.91355 0.97437 0.0
O50 O 0.4433 0.83861 0.02994 0.0
C51 C 0.44465 0.85963 0.9866 0.0
O52 O 0.45626 0.86364 0.9486 0.0
H53 H 0.49433 0.8428 0.05579 0.0
H54 H 0.48966 0.90444 0.88821 0.0
C55 C 0.43362 0.75761 0.08592 0.0
C56 C 0.42681 0.7328 0.06075 0.0
C57 C 0.43956 0.73695 0.94557 0.0
C58 C 0.44623 0.76133 0.97048 0.0
N59 N 0.44334 0.7711 0.0402 0.0
N60 N 0.43013 0.72328 0.99113 0.0
H61 H 0.43151 0.76566 0.14135 0.0
C62 C 0.4695 0.83057 0.7773 0.0
O63 O 0.46054 0.81488 0.81654 0.0
O64 O 0.45657 0.80597 0.17975 0.0
H65 H 0.45383 0.7723 0.93468 0.0
H66 H 0.51382 0.87064 0.11689 0.0
H67 H 0.4419 0.72886 0.89045 0.0
Zn68 Zn 0.70374 0.47303 0.31982 0.0
C69 C 0.73881 0.4912 0.19247 0.0
N70 N 0.73981 0.51248 0.24073 0.0
C71 C 0.73023 0.50557 0.29442 0.0
N72 N 0.72332 0.48126 0.27865 0.0
N73 N 0.72907 0.47175 0.21549 0.0
C74 C 0.7227 0.45472 0.02667 0.0
O75 O 0.71536 0.47395 0.0632 0.0
O76 O 0.70517 0.4708 0.43218 0.0
Zn77 Zn 0.72694 0.43433 0.17592 0.0
N78 N 0.69153 0.50524 0.29293 0.0
C79 C 0.68686 0.53832 0.19657 0.0
C80 C 0.69396 0.51448 0.22226 0.0
C81 C 0.68185 0.51872 0.33896 0.0
N82 N 0.67749 0.55202 0.24241 0.0
C83 C 0.67462 0.54301 0.31302 0.0
O84 O 0.7073 0.41668 0.19601 0.0
C85 C 0.69543 0.41819 0.23312 0.0
O86 O 0.69318 0.43793 0.27968 0.0
H87 H 0.70156 0.50354 0.18636 0.0
H88 H 0.68011 0.51113 0.39519 0.0
C89 C 0.74501 0.3845 0.19362 0.0
C90 C 0.75682 0.3692 0.22393 0.0
C91 C 0.76206 0.40682 0.30582 0.0
C92 C 0.75032 0.42183 0.27614 0.0
N93 N 0.7422 0.41073 0.21959 0.0
N94 N 0.76507 0.38101 0.27891 0.0
H95 H 0.73834 0.37592 0.1491 0.0
C96 C 0.71291 0.45218 0.46409 0.0
O97 O 0.71982 0.43368 0.4229 0.0
O98 O 0.72901 0.43535 0.06325 0.0
H99 H 0.74795 0.44249 0.29694 0.0
H100 H 0.68885 0.54601 0.14067 0.0
H101 H 0.76875 0.41564 0.34988 0.0
Zn102 Zn 0.33451 0.55492 0.31841 0.0
C103 C 0.2969 0.54712 0.19551 0.0
N104 N 0.29467 0.52568 0.24191 0.0
C105 C 0.30595 0.5276 0.28991 0.0
N106 N 0.31483 0.54946 0.27373 0.0
N107 N 0.30897 0.562 0.21442 0.0
C108 C 0.32197 0.58595 0.03013 0.0
O109 O 0.33211 0.57335 0.07013 0.0
O110 O 0.33313 0.55619 0.43182 0.0
Zn111 Zn 0.31262 0.59959 0.17746 0.0
N112 N 0.3464 0.52262 0.28855 0.0
C113 C 0.35143 0.49204 0.18705 0.0
C114 C 0.34352 0.51402 0.21768 0.0
C115 C 0.35704 0.50984 0.33069 0.0
N116 N 0.36211 0.47965 0.22808 0.0
C117 C 0.36529 0.48771 0.29926 0.0
O118 O 0.33253 0.6155 0.20381 0.0
C119 C 0.34423 0.61121 0.24116 0.0
O120 O 0.34571 0.58973 0.28275 0.0
H121 H 0.33521 0.52446 0.18474 0.0
H122 H 0.35933 0.51733 0.38654 0.0
C123 C 0.29443 0.65013 0.19219 0.0
C124 C 0.28299 0.66592 0.22486 0.0
C125 C 0.27809 0.62824 0.30745 0.0
C126 C 0.28946 0.61297 0.27585 0.0
N127 N 0.29731 0.62388 0.21825 0.0
N128 N 0.27515 0.65417 0.2814 0.0
H129 H 0.30085 0.65834 0.14643 0.0
C130 C 0.32998 0.57872 0.46591 0.0
O131 O 0.32777 0.60151 0.42664 0.0
O132 O 0.31183 0.59916 0.06393 0.0
H133 H 0.29196 0.59248 0.29737 0.0
H134 H 0.34924 0.48509 0.13062 0.0
H135 H 0.2717 0.61965 0.35281 0.0
Zn136 Zn 0.56252 0.68269 0.41868 0.0
C137 C 0.557 0.75443 0.53481 0.0
N138 N 0.54604 0.75792 0.48556 0.0
C139 C 0.54781 0.73656 0.43822 0.0
N140 N 0.55929 0.72016 0.45792 0.0
N141 N 0.56522 0.73172 0.51833 0.0
C142 C 0.59118 0.71074 0.7193 0.0
O143 O 0.60242 0.69794 0.68867 0.0
O144 O 0.56375 0.68491 0.30568 0.0
Zn145 Zn 0.58443 0.72463 0.56451 0.0
N146 N 0.54585 0.6594 0.44776 0.0
C147 C 0.52326 0.65619 0.51418 0.0
C148 C 0.5359 0.67086 0.49541 0.0
C149 C 0.54395 0.63297 0.42106 0.0
N150 N 0.52123 0.63015 0.4866 0.0
C151 C 0.53128 0.61785 0.44111 0.0
O152 O 0.59477 0.68867 0.53116 0.0
C153 C 0.59299 0.66715 0.49015 0.0
O154 O 0.58148 0.6639 0.45059 0.0
H155 H 0.53767 0.69135 0.51862 0.0
H156 H 0.55209 0.62402 0.38418 0.0
C157 C 0.60734 0.76911 0.57581 0.0
C158 C 0.61604 0.7902 0.54263 0.0
C159 C 0.60336 0.78321 0.42781 0.0
C160 C 0.59501 0.76225 0.46025 0.0
N161 N 0.59707 0.75551 0.53326 0.0
N162 N 0.61366 0.79646 0.46936 0.0
H163 H 0.60897 0.76305 0.63347 0.0
C164 C 0.57561 0.69421 0.27766 0.0
O165 O 0.5863 0.70169 0.32286 0.0
O166 O 0.58228 0.72401 0.67752 0.0
H167 H 0.58698 0.75115 0.42715 0.0
H168 H 0.51517 0.66533 0.55094 0.0
H169 H 0.60181 0.78872 0.36971 0.0
Zn170 Zn 0.47808 0.34861 0.41876 0.0
C171 C 0.48363 0.27693 0.53472 0.0
N172 N 0.49472 0.27373 0.48638 0.0
C173 C 0.49302 0.29528 0.43969 0.0
N174 N 0.48145 0.31147 0.45895 0.0
N175 N 0.47536 0.29972 0.51865 0.0
C176 C 0.44849 0.31963 0.71993 0.0
O177 O 0.4361 0.32857 0.69069 0.0
O178 O 0.47673 0.34623 0.30583 0.0
Zn179 Zn 0.45597 0.30714 0.56429 0.0
N180 N 0.49458 0.37245 0.44768 0.0
C181 C 0.51728 0.37623 0.51334 0.0
C182 C 0.50472 0.36123 0.49493 0.0
C183 C 0.49622 0.39895 0.42104 0.0
N184 N 0.51907 0.40232 0.48575 0.0
C185 C 0.50883 0.41438 0.44064 0.0
O186 O 0.44502 0.3426 0.5284 0.0
C187 C 0.44723 0.36387 0.48691 0.0
O188 O 0.45902 0.36654 0.44957 0.0
H189 H 0.50316 0.34068 0.51807 0.0
H190 H 0.48794 0.40771 0.38445 0.0
C191 C 0.43436 0.26098 0.58467 0.0
C192 C 0.42719 0.23666 0.55861 0.0
C193 C 0.43901 0.24206 0.44128 0.0
C194 C 0.44604 0.26593 0.46705 0.0
N195 N 0.4438 0.27483 0.5382 0.0
N196 N 0.42987 0.228 0.4875 0.0
H197 H 0.43276 0.26829 0.64126 0.0
C198 C 0.46513 0.33549 0.2783 0.0
O199 O 0.45491 0.32648 0.32402 0.0
O200 O 0.45826 0.3095 0.67709 0.0
H201 H 0.45346 0.27717 0.4308 0.0
H202 H 0.52552 0.36729 0.54978 0.0
H203 H 0.44085 0.23465 0.38498 0.0
Zn204 Zn 0.70474 0.97343 0.81322 0.0
C205 C 0.73844 0.99086 0.67595 0.0
N206 N 0.73978 1.01265 0.72232 0.0
C207 C 0.73075 1.00614 0.77879 0.0
N208 N 0.72377 0.98164 0.76621 0.0
N209 N 0.72906 0.9715 0.70276 0.0
C210 C 0.71688 0.94889 0.52515 0.0
O211 O 0.70724 0.96027 0.57046 0.0
O212 O 0.70781 0.97083 0.92479 0.0
Zn213 Zn 0.72697 0.93377 0.66614 0.0
N214 N 0.69217 1.00555 0.78911 0.0
C215 C 0.68664 0.03784 0.69194 0.0
C216 C 0.69395 1.01422 0.7174 0.0
C217 C 0.68288 0.0194 0.83648 0.0
N218 N 0.67766 0.0519 0.73899 0.0
C219 C 0.67541 0.04347 0.81068 0.0
O220 O 0.70767 0.916 0.69229 0.0
C221 C 0.69603 0.91781 0.73116 0.0
O222 O 0.69395 0.93807 0.7763 0.0
H223 H 0.70122 1.00299 0.68038 0.0
H224 H 0.68161 1.01228 0.89347 0.0
C225 C 0.74599 0.88462 0.68204 0.0
C226 C 0.75746 0.86924 0.71598 0.0
C227 C 0.76164 0.90711 0.79918 0.0
C228 C 0.75021 0.92193 0.76637 0.0
N229 N 0.74271 0.91071 0.70787 0.0
N230 N 0.76496 0.88129 0.77344 0.0
H231 H 0.73979 0.8762 0.63563 0.0
C232 C 0.69812 0.96153 0.96926 0.0
O233 O 0.68536 0.95362 0.9423 0.0
O234 O 0.72754 0.93529 0.5533 0.0
H235 H 0.74743 0.94242 0.78708 0.0
H236 H 0.68813 0.04506 0.63519 0.0
H237 H 0.76779 0.91596 0.84519 0.0
Zn238 Zn 0.33584 0.05754 0.82026 0.0
C239 C 0.3005 0.04435 0.69037 0.0
N240 N 0.29861 0.02299 0.73759 0.0
C241 C 0.30838 0.02825 0.79197 0.0
N242 N 0.3162 0.05166 0.77758 0.0
N243 N 0.31094 0.06225 0.71449 0.0
C244 C 0.31819 0.07922 0.52735 0.0
O245 O 0.32486 0.05916 0.56416 0.0
O246 O 0.33452 0.05952 0.93277 0.0
Zn247 Zn 0.31411 0.09968 0.67659 0.0
N248 N 0.34719 0.02444 0.79226 0.0
C249 C 0.35091 0.99116 0.69544 0.0
C250 C 0.34442 1.01552 0.72156 0.0
C251 C 0.35663 1.01011 0.83787 0.0
N252 N 0.36007 0.97665 0.74085 0.0
C253 C 0.36327 0.98532 0.81147 0.0
O254 O 0.33403 0.11615 0.69981 0.0
C255 C 0.34569 0.11257 0.73809 0.0
O256 O 0.34715 0.09183 0.78227 0.0
H257 H 0.33701 0.02714 0.68596 0.0
H258 H 0.35864 0.01748 0.89411 0.0
C259 C 0.29595 0.1496 0.69073 0.0
C260 C 0.28431 0.16525 0.7212 0.0
C261 C 0.27973 0.12882 0.80778 0.0
C262 C 0.29133 0.11352 0.77806 0.0
N263 N 0.29902 0.12382 0.71912 0.0
N264 N 0.27646 0.15418 0.7786 0.0
H265 H 0.30232 0.15756 0.6444 0.0
C266 C 0.32832 0.08 0.96501 0.0
O267 O 0.32282 0.10025 0.9241 0.0
O268 O 0.31238 0.09918 0.56368 0.0
H269 H 0.29394 0.09326 0.8009 0.0
H270 H 0.34865 0.98374 0.63952 0.0
H271 H 0.27337 0.12061 0.85375 0.0
Zn272 Zn 0.08495 0.22595 0.57115 0.0
C273 C 0.04754 0.23532 0.44707 0.0
N274 N 0.04552 0.25688 0.49334 0.0
C275 C 0.05677 0.2546 0.54136 0.0
N276 N 0.06545 0.2324 0.52534 0.0
N277 N 0.05949 0.22004 0.46601 0.0
C278 C 0.07181 0.19419 0.28261 0.0
O279 O 0.08219 0.20625 0.32218 0.0
O280 O 0.08332 0.22437 0.68457 0.0
Zn281 Zn 0.06264 0.18205 0.43059 0.0
N282 N 0.09723 0.25783 0.54245 0.0
C283 C 0.10292 0.288 0.44102 0.0
C284 C 0.09473 0.26633 0.47113 0.0
C285 C 0.10778 0.27041 0.58557 0.0
N286 N 0.11351 0.3002 0.48302 0.0
C287 C 0.11632 0.29223 0.55468 0.0
O288 O 0.08249 0.16551 0.45618 0.0
C289 C 0.09424 0.16944 0.49342 0.0
O290 O 0.09588 0.19082 0.53518 0.0
H291 H 0.08648 0.25604 0.43744 0.0
H292 H 0.10977 0.26301 0.6418 0.0
C293 C 0.04288 0.1335 0.44901 0.0
C294 C 0.03156 0.11893 0.48642 0.0
C295 C 0.02983 0.15613 0.57388 0.0
C296 C 0.04107 0.17016 0.53757 0.0
N297 N 0.04729 0.15894 0.47541 0.0
N298 N 0.0254 0.13104 0.54766 0.0
H299 H 0.04804 0.125 0.39962 0.0
C300 C 0.07964 0.20202 0.71813 0.0
O301 O 0.07701 0.17953 0.67836 0.0
O302 O 0.06148 0.18173 0.31696 0.0
H303 H 0.04479 0.18995 0.55919 0.0
H304 H 0.10103 0.29488 0.38424 0.0
H305 H 0.02474 0.16499 0.623 0.0
Zn306 Zn 0.97652 0.8503 0.42198 0.0
C307 C 0.98157 0.77797 0.53367 0.0
N308 N 0.99095 0.77232 0.47798 0.0
C309 C 0.98915 0.79396 0.43147 0.0
N310 N 0.97916 0.8124 0.45737 0.0
N311 N 0.97402 0.80182 0.52059 0.0
C312 C 0.96029 0.83222 0.71177 0.0
O313 O 0.96247 0.85508 0.67284 0.0
O314 O 0.97878 0.85026 0.30948 0.0
Zn315 Zn 0.95468 0.80825 0.56534 0.0
N316 N 0.9912 0.87397 0.47034 0.0
C317 C 1.00813 0.87856 0.57121 0.0
C318 C 0.99824 0.8626 0.53017 0.0
C319 C 0.99373 0.90099 0.44974 0.0
N320 N 1.01042 0.90553 0.55182 0.0
C321 C 1.00355 0.91738 0.49213 0.0
O322 O 0.94353 0.84279 0.52759 0.0
C323 C 0.9449 0.86331 0.48261 0.0
O324 O 0.95648 0.86667 0.44376 0.0
H325 H 0.9961 0.84134 0.54668 0.0
H326 H 0.98776 0.90985 0.4031 0.0
C327 C 0.93345 0.76159 0.58481 0.0
C328 C 0.92646 0.73706 0.55895 0.0
C329 C 0.93847 0.74235 0.44208 0.0
C330 C 0.94531 0.76645 0.46764 0.0
N331 N 0.9429 0.77551 0.53851 0.0
N332 N 0.92932 0.72824 0.48816 0.0
H333 H 0.9317 0.76908 0.64113 0.0
C334 C 0.96992 0.83436 0.2746 0.0
O335 O 0.96051 0.81953 0.31343 0.0
O336 O 0.95669 0.80994 0.6778 0.0
H337 H 0.9527 0.77776 0.43143 0.0
H338 H 1.01375 0.86975 0.619 0.0
H339 H 0.94045 0.73482 0.38603 0.0
Zn340 Zn 0.20552 0.47385 0.82176 0.0
C341 C 0.24249 0.48671 0.69736 0.0
N342 N 0.24406 0.50819 0.74435 0.0
C343 C 0.23303 0.50462 0.79289 0.0
N344 N 0.22492 0.48168 0.77655 0.0
N345 N 0.23107 0.47015 0.71666 0.0
C346 C 0.2146 0.44534 0.53582 0.0
O347 O 0.20415 0.45327 0.5817 0.0
O348 O 0.20748 0.47315 0.93498 0.0
Zn349 Zn 0.22797 0.4329 0.6761 0.0
N350 N 0.19267 0.50453 0.79037 0.0
C351 C 0.18625 0.53214 0.68476 0.0
C352 C 0.19473 0.51136 0.71746 0.0
C353 C 0.1823 0.51793 0.8326 0.0
N354 N 0.17586 0.54518 0.72598 0.0
C355 C 0.17348 0.53888 0.79918 0.0
O356 O 0.20918 0.41424 0.70763 0.0
C357 C 0.19752 0.41633 0.74629 0.0
O358 O 0.19522 0.43745 0.78821 0.0
H359 H 0.20287 0.50045 0.68466 0.0
H360 H 0.18068 0.51185 0.89022 0.0
C361 C 0.24609 0.38249 0.67954 0.0
C362 C 0.25878 0.36715 0.69841 0.0
C363 C 0.26777 0.406 0.76644 0.0
C364 C 0.25511 0.42091 0.74896 0.0
N365 N 0.24468 0.40933 0.70412 0.0
N366 N 0.26932 0.37958 0.74075 0.0
H367 H 0.23754 0.37336 0.64528 0.0
C368 C 0.198 0.46188 0.97747 0.0
O369 O 0.18614 0.45097 0.94757 0.0
O370 O 0.22643 0.43546 0.56313 0.0
H371 H 0.2537 0.44165 0.77106 0.0
H372 H 0.1878 0.53769 0.62672 0.0
H373 H 0.27624 0.41525 0.80086 0.0
Zn374 Zn 0.8134 0.60071 0.67323 0.0
C375 C 0.80686 0.52928 0.78701 0.0
N376 N 0.79618 0.52624 0.73582 0.0
C377 C 0.7986 0.54744 0.68883 0.0
N378 N 0.81011 0.56324 0.71032 0.0
N379 N 0.81558 0.55144 0.77145 0.0
C380 C 0.8306 0.58018 0.96339 0.0
O381 O 0.82874 0.60325 0.92486 0.0
O382 O 0.81202 0.59975 0.56022 0.0
Zn383 Zn 0.83519 0.55694 0.81581 0.0
N384 N 0.79815 0.62481 0.71509 0.0
C385 C 0.77958 0.62958 0.80759 0.0
C386 C 0.79081 0.61427 0.77485 0.0
C387 C 0.79488 0.65071 0.68774 0.0
N388 N 0.77627 0.65519 0.78036 0.0
C389 C 0.78359 0.66657 0.72151 0.0
O390 O 0.8463 0.59194 0.78024 0.0
C391 C 0.84487 0.61305 0.73721 0.0
O392 O 0.83328 0.61689 0.6986 0.0
H393 H 0.7936 0.594 0.79701 0.0
H394 H 0.8009 0.65859 0.6402 0.0
C395 C 0.85763 0.51158 0.82753 0.0
C396 C 0.86584 0.48947 0.79568 0.0
C397 C 0.85219 0.49457 0.68304 0.0
C398 C 0.84432 0.5165 0.71412 0.0
N399 N 0.84711 0.52472 0.7854 0.0
N400 N 0.86275 0.48181 0.72408 0.0
H401 H 0.85985 0.51875 0.88375 0.0
C402 C 0.82119 0.58417 0.52653 0.0
O403 O 0.83064 0.56976 0.56652 0.0
O404 O 0.83362 0.55772 0.92877 0.0
H405 H 0.83608 0.52719 0.68124 0.0
H406 H 0.77358 0.62127 0.8547 0.0
H407 H 0.85006 0.48792 0.62629 0.0
Zn408 Zn 0.08558 0.72307 0.06915 0.0
C409 C 0.0515 0.74157 0.93558 0.0
N410 N 0.05036 0.76317 0.9827 0.0
C411 C 0.05954 0.75628 0.03851 0.0
N412 N 0.06636 0.73171 0.02487 0.0
N413 N 0.06091 0.72199 0.96125 0.0
C414 C 0.07316 0.69344 0.77821 0.0
O415 O 0.08475 0.69933 0.81905 0.0
O416 O 0.0836 0.72234 0.18195 0.0
Zn417 Zn 0.06269 0.68441 0.92358 0.0
N418 N 0.09841 0.75364 0.03808 0.0
C419 C 0.10528 0.78029 0.93166 0.0
C420 C 0.09679 0.7596 0.9643 0.0
C421 C 0.10838 0.76775 0.08121 0.0
N422 N 0.11528 0.79405 0.97381 0.0
C423 C 0.11723 0.78856 0.04784 0.0
O424 O 0.08189 0.66561 0.94796 0.0
C425 C 0.09357 0.66697 0.98693 0.0
O426 O 0.09581 0.68707 0.03235 0.0
H427 H 0.08898 0.74807 0.93081 0.0
H428 H 0.10967 0.76231 0.13952 0.0
C429 C 0.04374 0.63577 0.93984 0.0
C430 C 0.0325 0.6201 0.97433 0.0
C431 C 0.0286 0.65747 0.05944 0.0
C432 C 0.03985 0.67255 0.02611 0.0
N433 N 0.04709 0.66167 0.96648 0.0
N434 N 0.02524 0.63175 0.03303 0.0
H435 H 0.04974 0.62773 0.89241 0.0
C436 C 0.08509 0.69976 0.2185 0.0
O437 O 0.08851 0.67678 0.18258 0.0
O438 O 0.06137 0.68609 0.81073 0.0
H439 H 0.04269 0.69294 0.04735 0.0
H440 H 0.10407 0.78519 0.87296 0.0
H441 H 0.02264 0.66601 0.10641 0.0
Zn442 Zn 0.97892 0.3508 0.92636 0.0
C443 C 0.9845 0.27952 0.04274 0.0
N444 N 0.99585 0.2767 0.99571 0.0
C445 C 0.99398 0.29788 0.94801 0.0
N446 N 0.98208 0.31345 0.96524 0.0
N447 N 0.97594 0.30175 0.02488 0.0
C448 C 0.96188 0.33232 0.21391 0.0
O449 O 0.96557 0.35423 0.17402 0.0
O450 O 0.97971 0.35015 0.81295 0.0
Zn451 Zn 0.95618 0.30855 0.06722 0.0
N452 N 0.9944 0.37467 0.96663 0.0
C453 C 1.0139 0.37918 0.05453 0.0
C454 C 1.00245 0.36383 0.02377 0.0
C455 C 0.99716 0.40086 0.94011 0.0
N456 N 1.01669 0.4051 0.02814 0.0
C457 C 1.00864 0.41675 0.97198 0.0
O458 O 0.94506 0.34364 0.02958 0.0
C459 C 0.94727 0.36462 0.98699 0.0
O460 O 0.95925 0.36743 0.95134 0.0
H461 H 1.00005 0.34336 0.04559 0.0
H462 H 0.99057 0.40894 0.89463 0.0
C463 C 0.93465 0.26232 0.0843 0.0
C464 C 0.92773 0.23777 0.05804 0.0
C465 C 0.94051 0.24241 0.94309 0.0
C466 C 0.94729 0.26652 0.96909 0.0
N467 N 0.94444 0.27592 0.0392 0.0
N468 N 0.93102 0.22862 0.98803 0.0
H469 H 0.93257 0.27006 0.14009 0.0
C470 C 0.96888 0.33927 0.77855 0.0
O471 O 0.958 0.32895 0.81791 0.0
O472 O 0.95747 0.31044 0.18042 0.0
H473 H 0.95498 0.27756 0.93388 0.0
H474 H 0.02046 0.37066 0.09954 0.0
H475 H 0.94283 0.23461 0.88764 0.0
Zn476 Zn 0.20439 0.97375 0.32283 0.0
C477 C 0.2392 0.98981 0.19156 0.0
N478 N 0.24053 1.01159 0.23793 0.0
C479 C 0.23099 1.0056 0.29269 0.0
N480 N 0.22379 0.98141 0.27907 0.0
N481 N 0.22936 0.97101 0.2166 0.0
C482 C 0.22001 0.94952 0.03241 0.0
O483 O 0.21032 0.96361 0.07149 0.0
O484 O 0.20631 0.97249 0.43531 0.0
Zn485 Zn 0.22732 0.9334 0.17955 0.0
N486 N 0.19211 1.00581 0.29512 0.0
C487 C 0.18714 0.03795 0.19687 0.0
C488 C 0.19426 1.01429 0.22353 0.0
C489 C 0.1827 0.01993 0.34123 0.0
N490 N 0.17802 0.05226 0.2427 0.0
C491 C 0.17544 0.04405 0.31429 0.0
O492 O 0.20777 0.91611 0.20257 0.0
C493 C 0.19598 0.91801 0.24031 0.0
O494 O 0.19377 0.93825 0.28542 0.0
H495 H 0.20167 1.00288 0.18762 0.0
H496 H 0.18118 1.01296 0.39821 0.0
C497 C 0.24618 0.88443 0.19723 0.0
C498 C 0.25728 0.86864 0.23298 0.0
C499 C 0.2605 0.90548 0.3205 0.0
C500 C 0.24943 0.9207 0.28578 0.0
N501 N 0.24259 0.91015 0.2244 0.0
N502 N 0.26413 0.87998 0.29352 0.0
H503 H 0.24053 0.87662 0.14835 0.0
C504 C 0.21054 0.95064 0.46947 0.0
O505 O 0.21343 0.92803 0.43068 0.0
O506 O 0.22921 0.93423 0.06695 0.0
H507 H 0.24639 0.94093 0.30737 0.0
H508 H 0.1889 0.04502 0.14019 0.0
H509 H 0.26613 0.91377 0.36893 0.0
Zn510 Zn 0.81401 0.10169 0.16555 0.0
C511 C 0.8083 0.02959 0.27755 0.0
N512 N 0.79921 0.02384 0.22056 0.0
C513 C 0.80115 0.04547 0.17425 0.0
N514 N 0.81094 0.06405 0.2017 0.0
N515 N 0.81582 0.05352 0.26564 0.0
C516 C 0.84202 0.07128 0.46891 0.0
O517 O 0.85484 0.07862 0.44175 0.0
O518 O 0.81358 0.10005 0.05268 0.0
Zn519 Zn 0.83498 0.05985 0.31282 0.0
N520 N 0.79844 0.12558 0.20513 0.0
C521 C 0.77794 0.12942 0.28701 0.0
C522 C 0.78978 0.1143 0.25911 0.0
C523 C 0.79615 0.15222 0.18069 0.0
N524 N 0.77545 0.15563 0.26155 0.0
C525 C 0.78428 0.16768 0.20959 0.0
O526 O 0.84643 0.09423 0.2764 0.0
C527 C 0.84514 0.11504 0.23232 0.0
O528 O 0.83368 0.11857 0.19253 0.0
H529 H 0.7918 0.09341 0.27924 0.0
H530 H 0.80334 0.16108 0.13886 0.0
C531 C 0.85621 1.01292 0.33453 0.0
C532 C 0.86318 0.98833 0.30894 0.0
C533 C 0.85119 0.99357 0.19178 0.0
C534 C 0.84439 0.01776 0.21699 0.0
N535 N 0.84679 0.02686 0.28791 0.0
N536 N 0.86031 0.97944 0.23818 0.0
H537 H 0.858 0.02044 0.39082 0.0
C538 C 0.824 0.08575 0.02485 0.0
O539 O 0.83343 0.0738 0.07044 0.0
O540 O 0.83215 0.06247 0.42457 0.0
H541 H 0.83707 0.02911 0.18038 0.0
H542 H 0.77081 0.12042 0.3288 0.0
H543 H 0.84921 0.98601 0.13571 0.0
H544 H 0.5545 0.2289 0.1696 0.0
H545 H 0.55173 0.30766 0.05492 0.0
H546 H 0.54212 0.24901 0.27732 0.0
H547 H 0.53805 0.32723 0.16037 0.0
H548 H 0.5219 0.30075 0.4676 0.0
H549 H 0.54189 0.29724 0.37682 0.0
H550 H 0.51029 0.29878 0.19713 0.0
H551 H 0.49029 0.30023 0.28819 0.0
C552 C 0.55237 0.25108 0.16983 0.0
C553 C 0.55481 0.26703 0.10534 0.0
C554 C 0.54483 0.26244 0.23066 0.0
C555 C 0.5391 0.28961 0.2267 0.0
C556 C 0.54246 0.3063 0.16476 0.0
C557 C 0.55043 0.29519 0.10496 0.0
C558 C 0.51927 0.30142 0.40854 0.0
C559 C 0.50454 0.3019 0.38469 0.0
C560 C 0.5307 0.29937 0.35688 0.0
C561 C 0.52761 0.29816 0.28028 0.0
C562 C 0.51295 0.30045 0.25601 0.0
C563 C 0.50147 0.30182 0.30794 0.0
H564 H 0.48813 0.72081 0.05683 0.0
H565 H 0.48453 0.79968 0.17057 0.0
H566 H 0.50251 0.70229 0.16157 0.0
H567 H 0.49761 0.78052 0.2776 0.0
H568 H 0.55017 0.73074 0.28676 0.0
H569 H 0.52989 0.73118 0.19662 0.0
H570 H 0.49878 0.73351 0.3778 0.0
H571 H 0.51903 0.73111 0.46771 0.0
C572 C 0.48948 0.73352 0.10644 0.0
C573 C 0.48466 0.76142 0.10674 0.0
C574 C 0.49782 0.723 0.16584 0.0
C575 C 0.50111 0.74001 0.22731 0.0
C576 C 0.49498 0.76686 0.23124 0.0
C577 C 0.48706 0.77765 0.17081 0.0
C578 C 0.53903 0.72921 0.30712 0.0
C579 C 0.53616 0.7297 0.38396 0.0
C580 C 0.52741 0.72995 0.25571 0.0
C581 C 0.51281 0.73213 0.28064 0.0
C582 C 0.50993 0.73147 0.35741 0.0
C583 C 0.5215 0.73008 0.40856 0.0
H584 H 0.73927 0.47531 0.41212 0.0
H585 H 0.73032 0.55951 0.34113 0.0
H586 H 0.75492 0.49283 0.51192 0.0
H587 H 0.74635 0.5772 0.44109 0.0
H588 H 0.77179 0.5713 0.70252 0.0
H589 H 0.75125 0.56529 0.61473 0.0
H590 H 0.78071 0.52733 0.45624 0.0
H591 H 0.80121 0.53364 0.54346 0.0
C592 C 0.73971 0.4976 0.42134 0.0
C593 C 0.73312 0.51603 0.37039 0.0
C594 C 0.74903 0.50763 0.47723 0.0
C595 C 0.75192 0.53628 0.48322 0.0
C596 C 0.74421 0.55501 0.43746 0.0
C597 C 0.7349 0.54491 0.3811 0.0
C598 C 0.77398 0.5631 0.64726 0.0
C599 C 0.78813 0.55367 0.62858 0.0
C600 C 0.76221 0.55936 0.59763 0.0
C601 C 0.76446 0.54568 0.5294 0.0
C602 C 0.77878 0.53797 0.50873 0.0
C603 C 0.79052 0.54194 0.55798 0.0
H604 H 0.30135 0.47268 0.31325 0.0
H605 H 0.30466 0.55181 0.42571 0.0
H606 H 0.28745 0.45396 0.41901 0.0
H607 H 0.29205 0.53252 0.53378 0.0
H608 H 0.27143 0.48253 0.72551 0.0
H609 H 0.29143 0.48568 0.63483 0.0
H610 H 0.25994 0.4822 0.45487 0.0
H611 H 0.23989 0.4811 0.54579 0.0
C612 C 0.30011 0.4854 0.3629 0.0
C613 C 0.30471 0.51342 0.36256 0.0
C614 C 0.29201 0.47478 0.42285 0.0
C615 C 0.28874 0.49182 0.48425 0.0
C616 C 0.29468 0.51882 0.48753 0.0
C617 C 0.30235 0.5297 0.42653 0.0
C618 C 0.26882 0.4814 0.66647 0.0
C619 C 0.2541 0.48038 0.64251 0.0
C620 C 0.28026 0.48323 0.61486 0.0
C621 C 0.27721 0.48374 0.53818 0.0
C622 C 0.26257 0.48106 0.51387 0.0
C623 C 0.25108 0.47988 0.56574 0.0
H624 H 0.48968 0.76598 0.80798 0.0
H625 H 0.51373 0.83021 0.92387 0.0
H626 H 0.50997 0.7605 0.7202 0.0
H627 H 0.53411 0.82509 0.83464 0.0
H628 H 0.55415 0.80907 0.57144 0.0
H629 H 0.53839 0.82539 0.67344 0.0
H630 H 0.5376 0.74213 0.76432 0.0
H631 H 0.55318 0.7259 0.6628 0.0
C632 C 0.49907 0.77977 0.81252 0.0
C633 C 0.50006 0.79888 0.87148 0.0
C634 C 0.51075 0.77635 0.76319 0.0
C635 C 0.52368 0.79196 0.77194 0.0
C636 C 0.52426 0.81274 0.82719 0.0
C637 C 0.51254 0.81598 0.87732 0.0
C638 C 0.5514 0.79473 0.61604 0.0
C639 C 0.55513 0.76632 0.60996 0.0
C640 C 0.54223 0.804 0.67376 0.0
C641 C 0.5366 0.78486 0.72556 0.0
C642 C 0.54175 0.75723 0.72454 0.0
C643 C 0.55097 0.74805 0.66734 0.0
H644 H 0.48585 0.30088 0.67083 0.0
H645 H 0.48654 0.22157 0.55782 0.0
H646 H 0.49879 0.28029 0.77684 0.0
H647 H 0.50045 0.2014 0.66201 0.0
H648 H 0.54959 0.23131 0.78755 0.0
H649 H 0.5295 0.23346 0.69657 0.0
H650 H 0.49803 0.22701 0.87523 0.0
H651 H 0.51817 0.22283 0.96569 0.0
C652 C 0.4877 0.27858 0.67108 0.0
C653 C 0.4846 0.2626 0.60732 0.0
C654 C 0.49548 0.26693 0.73098 0.0
C655 C 0.5006 0.23933 0.72715 0.0
C656 C 0.49649 0.22265 0.66635 0.0
C657 C 0.48838 0.23412 0.60731 0.0
C658 C 0.53846 0.22811 0.80667 0.0
C659 C 0.53546 0.22565 0.88314 0.0
C660 C 0.52694 0.22989 0.7549 0.0
C661 C 0.51227 0.23018 0.77921 0.0
C662 C 0.50925 0.22642 0.85523 0.0
C663 C 0.52076 0.22393 0.90668 0.0
H664 H 0.7362 0.97632 0.90421 0.0
H665 H 0.73544 0.06019 0.81718 0.0
H666 H 0.75306 0.99092 0.00207 0.0
H667 H 0.7528 0.07474 0.91415 0.0
H668 H 0.78079 0.08595 0.13898 0.0
H669 H 0.76016 0.07972 0.05259 0.0
H670 H 0.77941 1.0026 0.97576 0.0
H671 H 0.79985 1.00891 0.06199 0.0
C672 C 0.73888 0.99826 0.90872 0.0
C673 C 0.73432 0.01718 0.85353 0.0
C674 C 0.74891 1.0065 0.96356 0.0
C675 C 0.75464 0.03375 0.96405 0.0
C676 C 0.74868 0.05355 0.91477 0.0
C677 C 0.7386 0.04529 0.85982 0.0
C678 C 0.78092 0.06838 0.10147 0.0
C679 C 0.79202 0.04809 0.10661 0.0
C680 C 0.76898 0.06455 0.05278 0.0
C681 C 0.76792 0.04018 0.00935 0.0
C682 C 0.77966 0.02115 0.0103 0.0
C683 C 0.79153 0.02504 0.05849 0.0
H684 H 0.2608 0.95102 0.16517 0.0
H685 H 0.24011 0.02464 0.07537 0.0
H686 H 0.28128 0.9568 0.07733 0.0
H687 H 0.26037 0.03052 0.9882 0.0
H688 H 0.30252 0.05883 0.91402 0.0
H689 H 0.28669 0.04434 0.01558 0.0
H690 H 0.28779 0.95971 0.93373 0.0
H691 H 0.30445 0.97425 0.83365 0.0
C692 C 0.26033 0.96769 0.12461 0.0
C693 C 0.2488 0.98717 0.12603 0.0
C694 C 0.27215 0.97126 0.07519 0.0
C695 C 0.27262 0.99459 0.02764 0.0
C696 C 0.26052 1.01279 0.02573 0.0
C697 C 0.2488 1.00917 0.07459 0.0
C698 C 0.30049 0.03679 0.92129 0.0
C699 C 0.30518 0.01758 0.86733 0.0
C700 C 0.29095 0.02857 0.97804 0.0
C701 C 0.28568 1.00103 0.98117 0.0
C702 C 0.29164 0.98107 0.93246 0.0
C703 C 0.3013 0.98934 0.87572 0.0
H704 H 0.99113 0.30025 0.79669 0.0
H705 H 0.02278 0.30587 0.97524 0.0
H706 H 1.0111 0.29846 0.70546 0.0
H707 H 0.0428 0.30188 0.88443 0.0
H708 H 0.0549 0.23059 0.67717 0.0
H709 H 0.04252 0.25074 0.78489 0.0
H710 H 0.03938 0.32947 0.66976 0.0
H711 H 0.05306 0.30981 0.56435 0.0
C712 C 1.0023 0.30287 0.81596 0.0
C713 C 1.00539 0.30453 0.89254 0.0
C714 C 1.01375 0.30128 0.76403 0.0
C715 C 0.02845 0.30031 0.78822 0.0
C716 C 0.03157 0.30303 0.86453 0.0
C717 C 0.02013 0.30537 0.91618 0.0
C718 C 0.05299 0.25284 0.67789 0.0
C719 C 0.05569 0.26893 0.6139 0.0
C720 C 0.04545 0.26424 0.73869 0.0
C721 C 0.04001 0.29162 0.73523 0.0
C722 C 0.04361 0.3084 0.67384 0.0
C723 C 0.05157 0.29722 0.61404 0.0
H724 H 0.03167 0.70046 0.89764 0.0
H725 H 0.0487 0.78027 0.82921 0.0
H726 H 1.01112 0.70575 0.81011 0.0
H727 H 0.0284 0.78563 0.74185 0.0
H728 H 0.98591 0.80808 0.6592 0.0
H729 H 1.00193 0.79453 0.76134 0.0
H730 H 1.00429 0.71093 0.67257 0.0
H731 H 0.98739 0.72429 0.57228 0.0
C732 C 0.03135 0.71855 0.86195 0.0
C733 C 0.04187 0.73979 0.86952 0.0
C734 C 1.01946 0.72181 0.81261 0.0
C735 C 1.01788 0.74652 0.77094 0.0
C736 C 0.02901 0.76675 0.77501 0.0
C737 C 0.0408 0.76347 0.82394 0.0
C738 C 0.98882 0.7863 0.66469 0.0
C739 C 0.98506 0.76712 0.60869 0.0
C740 C 0.99846 0.77869 0.72191 0.0
C741 C 1.00477 0.7519 0.72342 0.0
C742 C 0.99969 0.73176 0.67261 0.0
C743 C 0.9899 0.73935 0.61562 0.0
H744 H 0.2685 0.559 0.22241 0.0
H745 H 0.29964 0.54746 0.04421 0.0
H746 H 0.24822 0.55486 0.13267 0.0
H747 H 0.27944 0.54519 0.95389 0.0
H748 H 0.23554 0.47989 0.92802 0.0
H749 H 0.24894 0.49987 0.03343 0.0
H750 H 0.25001 0.57948 0.92199 0.0
H751 H 0.23578 0.55988 0.8182 0.0
C752 C 0.27101 0.55722 0.16343 0.0
C753 C 0.28567 0.55466 0.13968 0.0
C754 C 0.25942 0.55473 0.11242 0.0
C755 C 0.26233 0.55006 0.03665 0.0
C756 C 0.27698 0.54943 0.01201 0.0
C757 C 0.28856 0.55129 0.06335 0.0
C758 C 0.23744 0.50219 0.92888 0.0
C759 C 0.2341 0.51853 0.86605 0.0
C760 C 0.24545 0.51349 0.98844 0.0
C761 C 0.2505 0.54113 0.98532 0.0
C762 C 0.24611 0.55818 0.92575 0.0
C763 C 0.23782 0.54703 0.86697 0.0
H764 H 0.8012 0.47542 0.82291 0.0
H765 H 0.80426 0.55817 0.91529 0.0
H766 H 0.78496 0.4617 0.92507 0.0
H767 H 0.78899 0.54418 0.01966 0.0
H768 H 0.75795 0.44945 0.14865 0.0
H769 H 0.77843 0.45496 0.06111 0.0
H770 H 0.7625 0.53716 0.00424 0.0
H771 H 0.74236 0.53165 0.09181 0.0
C772 C 0.79926 0.49008 0.86792 0.0
C773 C 0.80434 0.51771 0.86207 0.0
C774 C 0.78982 0.4823 0.92603 0.0
C775 C 0.78535 0.5021 0.97914 0.0
C776 C 0.79199 0.52861 0.97855 0.0
C777 C 0.80124 0.53643 0.92009 0.0
C778 C 0.75861 0.46825 0.11585 0.0
C779 C 0.74854 0.49007 0.12676 0.0
C780 C 0.77045 0.47159 0.06637 0.0
C781 C 0.77239 0.4969 0.02776 0.0
C782 C 0.76166 0.5178 0.03518 0.0
C783 C 0.74996 0.51447 0.08428 0.0
H784 H 0.05472 0.72628 0.16435 0.0
H785 H 0.05502 0.81028 0.07805 0.0
H786 H 0.03815 0.74071 0.26343 0.0
H787 H 0.03801 0.82466 0.17653 0.0
H788 H 1.00996 0.83411 0.40379 0.0
H789 H 0.03094 0.8285 0.31874 0.0
H790 H 1.01156 0.75287 0.23263 0.0
H791 H 0.99081 0.75859 0.31682 0.0
C792 C 0.05202 0.74821 0.16922 0.0
C793 C 0.0563 0.7672 0.11375 0.0
C794 C 0.04219 0.75636 0.22492 0.0
C795 C 0.03643 0.78361 0.22606 0.0
C796 C 0.04219 0.8035 0.17666 0.0
C797 C 0.05205 0.79531 0.1208 0.0
C798 C 1.00994 0.81704 0.36434 0.0
C799 C 0.9987 0.79698 0.36586 0.0
C800 C 0.02204 0.81356 0.31664 0.0
C801 C 0.0231 0.78975 0.27097 0.0
C802 C 1.01127 0.77098 0.26884 0.0
C803 C 0.99925 0.77452 0.31587 0.0
H804 H 0.98672 0.30373 0.17835 0.0
H805 H 0.98719 0.22419 0.06683 0.0
H806 H 0.99939 0.28329 0.28522 0.0
H807 H 1.00102 0.20416 0.17147 0.0
H808 H 1.01898 0.225 0.47423 0.0
H809 H 0.99876 0.22957 0.38424 0.0
H810 H 0.0301 0.23671 0.2052 0.0
H811 H 0.05025 0.23415 0.29573 0.0
C812 C 0.9884 0.28141 0.17925 0.0
C813 C 0.98529 0.26533 0.11565 0.0
C814 C 0.99609 0.26983 0.23955 0.0
C815 C 1.00119 0.24221 0.23613 0.0
C816 C 0.99707 0.22543 0.17551 0.0
C817 C 0.98901 0.23683 0.11618 0.0
C818 C 0.02152 0.22635 0.4152 0.0
C819 C 0.03621 0.2281 0.39143 0.0
C820 C 1.00996 0.22908 0.36403 0.0
C821 C 1.01292 0.23313 0.28804 0.0
C822 C 0.02758 0.23295 0.26348 0.0
C823 C 0.03914 0.23091 0.31497 0.0
H824 H 0.23513 0.05973 0.33225 0.0
H825 H 0.23617 0.97569 0.41764 0.0
H826 H 0.25191 0.07447 0.43184 0.0
H827 H 0.25234 0.99044 0.51812 0.0
H828 H 0.29947 1.00967 0.57395 0.0
H829 H 0.27897 1.00373 0.48773 0.0
H830 H 0.25843 0.07777 0.57653 0.0
H831 H 0.27909 0.08354 0.66358 0.0
C832 C 0.23816 0.04483 0.37514 0.0
C833 C 0.2341 0.01663 0.36792 0.0
C834 C 0.24789 0.05321 0.4316 0.0
C835 C 0.25372 0.03342 0.48127 0.0
C836 C 0.24819 1.00604 0.47964 0.0
C837 C 0.23853 0.9977 0.42332 0.0
C838 C 0.29082 0.02522 0.57321 0.0
C839 C 0.29097 0.04731 0.62443 0.0
C840 C 0.27896 0.02156 0.52493 0.0
C841 C 0.2669 0.03982 0.52713 0.0
C842 C 0.26753 0.06326 0.57425 0.0
C843 C 0.27947 0.06684 0.62317 0.0
H844 H 0.75849 0.95004 0.6389 0.0
H845 H 0.74051 0.02882 0.56745 0.0
H846 H 0.77899 0.95581 0.55157 0.0
H847 H 0.76079 0.03469 0.48061 0.0
H848 H 0.80381 0.05884 0.40472 0.0
H849 H 0.7874 0.04449 0.50445 0.0
H850 H 0.78565 0.9614 0.41214 0.0
H851 H 0.80262 0.97564 0.3134 0.0
C852 C 0.75858 0.96796 0.60252 0.0
C853 C 0.74783 0.98883 0.60927 0.0
C854 C 0.77044 0.97151 0.55335 0.0
C855 C 0.77175 0.99615 0.51116 0.0
C856 C 0.76036 0.01589 0.51416 0.0
C857 C 0.74859 1.0123 0.56278 0.0
C858 C 0.80081 0.03703 0.40856 0.0
C859 C 0.80471 0.01827 0.35187 0.0
C860 C 0.79104 0.02897 0.46456 0.0
C861 C 0.78488 1.00206 0.46456 0.0
C862 C 0.79014 0.98231 0.41327 0.0
C863 C 0.79997 0.9904 0.35722 0.0
H864 H 0.55278 0.1718 0.67156 0.0
H865 H 0.59282 0.21976 0.68677 0.0
H866 H 0.55382 0.17478 0.53524 0.0
H867 H 0.59391 0.22248 0.55109 0.0
H868 H 0.58396 0.24457 0.30776 0.0
H869 H 0.58137 0.24345 0.44355 0.0
H870 H 0.56889 0.15666 0.43219 0.0
H871 H 0.57132 0.15782 0.29665 0.0
C872 C 0.56181 0.18293 0.64592 0.0
C873 C 0.57276 0.1954 0.69022 0.0
C874 C 0.56243 0.18457 0.56776 0.0
C875 C 0.57396 0.19885 0.5321 0.0
C876 C 0.58478 0.21161 0.57657 0.0
C877 C 0.5842 0.20986 0.65452 0.0
C878 C 0.58067 0.22524 0.33421 0.0
C879 C 0.57796 0.20124 0.29121 0.0
C880 C 0.57922 0.22458 0.41212 0.0
C881 C 0.57495 0.19993 0.44892 0.0
C882 C 0.57204 0.17607 0.40573 0.0
C883 C 0.57354 0.1767 0.32793 0.0
H884 H 0.46013 0.78333 0.30805 0.0
H885 H 0.46463 0.87304 0.30626 0.0
H886 H 0.46378 0.78306 0.44302 0.0
H887 H 0.46797 0.87281 0.44148 0.0
H888 H 0.48611 0.86043 0.6774 0.0
H889 H 0.48473 0.85916 0.54098 0.0
H890 H 0.45063 0.79675 0.554 0.0
H891 H 0.4522 0.79762 0.68956 0.0
C892 C 0.46182 0.80302 0.33647 0.0
C893 C 0.46196 0.82824 0.29635 0.0
C894 C 0.46388 0.80287 0.41396 0.0
C895 C 0.4661 0.82793 0.45334 0.0
C896 C 0.46646 0.8531 0.41297 0.0
C897 C 0.46442 0.85325 0.33542 0.0
C898 C 0.47838 0.84635 0.65105 0.0
C899 C 0.46922 0.82923 0.69448 0.0
C900 C 0.47753 0.84572 0.57286 0.0
C901 C 0.46754 0.8279 0.53637 0.0
C902 C 0.45859 0.81047 0.58 0.0
C903 C 0.45943 0.81111 0.65795 0.0
H904 H 0.73384 0.42516 0.54652 0.0
H905 H 0.69658 0.48034 0.56724 0.0
H906 H 0.73749 0.42677 0.68143 0.0
H907 H 0.69979 0.48107 0.70218 0.0
H908 H 0.71613 0.49821 0.93451 0.0
H909 H 0.71478 0.49816 0.79872 0.0
H910 H 0.72764 0.41133 0.79608 0.0
H911 H 0.7296 0.41185 0.93197 0.0
C912 C 0.72633 0.4374 0.58002 0.0
C913 C 0.71489 0.45255 0.54623 0.0
C914 C 0.72839 0.43825 0.65751 0.0
C915 C 0.71896 0.45406 0.70317 0.0
C916 C 0.70747 0.4691 0.66902 0.0
C917 C 0.70553 0.4685 0.59154 0.0
C918 C 0.71877 0.47916 0.90485 0.0
C919 C 0.72287 0.45498 0.94398 0.0
C920 C 0.71789 0.47905 0.82688 0.0
C921 C 0.7209 0.45464 0.78602 0.0
C922 C 0.72538 0.43062 0.82531 0.0
C923 C 0.72644 0.43085 0.90336 0.0
H924 H 0.33217 0.53487 0.56383 0.0
H925 H 0.32338 0.62338 0.55491 0.0
H926 H 0.32925 0.53579 0.69942 0.0
H927 H 0.32064 0.62431 0.69034 0.0
H928 H 0.3035 0.61096 0.92849 0.0
H929 H 0.30463 0.60831 0.79211 0.0
H930 H 0.34239 0.55409 0.80825 0.0
H931 H 0.3412 0.5565 0.94391 0.0
C932 C 0.32967 0.55454 0.59074 0.0
C933 C 0.32813 0.57909 0.5484 0.0
C934 C 0.32803 0.55508 0.66854 0.0
C935 C 0.32475 0.58015 0.70594 0.0
C936 C 0.32299 0.60459 0.6634 0.0
C937 C 0.32468 0.60407 0.58568 0.0
C938 C 0.31202 0.59844 0.90289 0.0
C939 C 0.32231 0.58408 0.94726 0.0
C940 C 0.31271 0.597 0.8247 0.0
C941 C 0.32362 0.58101 0.78909 0.0
C942 C 0.33374 0.56634 0.83365 0.0
C943 C 0.33311 0.5679 0.91161 0.0
H944 H 0.55472 0.68876 0.16755 0.0
H945 H 0.6008 0.70587 0.20205 0.0
H946 H 0.5582 0.69303 0.03238 0.0
H947 H 0.60422 0.71033 0.0678 0.0
H948 H 0.60827 0.68437 0.8232 0.0
H949 H 0.60407 0.68025 0.95706 0.0
H950 H 0.56424 0.72854 0.9354 0.0
H951 H 0.56839 0.73253 0.80099 0.0
C952 C 0.56558 0.6934 0.14636 0.0
C953 C 0.57749 0.69684 0.19561 0.0
C954 C 0.56755 0.69604 0.06898 0.0
C955 C 0.58151 0.7019 0.03924 0.0
C956 C 0.59337 0.70542 0.08869 0.0
C957 C 0.59138 0.70302 0.16581 0.0
C958 C 0.59862 0.69419 0.84682 0.0
C959 C 0.58868 0.70883 0.80115 0.0
C960 C 0.59624 0.6919 0.92373 0.0
C961 C 0.58383 0.70411 0.95705 0.0
C962 C 0.57383 0.71865 0.91141 0.0
C963 C 0.57626 0.72107 0.83439 0.0
H964 H 0.48477 0.3478 0.16667 0.0
H965 H 0.44079 0.31719 0.20417 0.0
H966 H 0.48092 0.34407 0.03173 0.0
H967 H 0.43706 0.31305 0.07003 0.0
H968 H 0.42957 0.33851 0.82721 0.0
H969 H 0.43392 0.34259 0.96114 0.0
H970 H 0.47766 0.30944 0.93238 0.0
H971 H 0.47339 0.30586 0.7982 0.0
C972 C 0.4743 0.34025 0.1462 0.0
C973 C 0.46306 0.33295 0.19629 0.0
C974 C 0.47212 0.33794 0.06887 0.0
C975 C 0.45865 0.32838 0.03992 0.0
C976 C 0.44748 0.32091 0.09021 0.0
C977 C 0.44967 0.32312 0.1673 0.0
C978 C 0.44012 0.33207 0.84933 0.0
C979 C 0.45112 0.32177 0.80172 0.0
C980 C 0.44259 0.33429 0.9263 0.0
C981 C 0.45614 0.32629 0.95772 0.0
C982 C 0.46716 0.31608 0.91007 0.0
C983 C 0.46467 0.31382 0.83307 0.0
H984 H 0.69377 0.97228 0.45158 0.0
H985 H 0.73527 0.93098 0.41329 0.0
H986 H 0.6897 0.97532 0.31761 0.0
H987 H 0.73108 0.93384 0.27825 0.0
H988 H 0.72411 0.9718 0.0417 0.0
H989 H 0.72913 0.96881 0.1755 0.0
H990 H 0.68432 0.94323 0.21415 0.0
H991 H 0.67925 0.9465 0.08069 0.0
C992 C 0.70205 0.96383 0.41457 0.0
C993 C 0.71483 0.95124 0.44323 0.0
C994 C 0.69966 0.96543 0.33766 0.0
C995 C 0.71 0.95461 0.28726 0.0
C996 C 0.72293 0.94248 0.31569 0.0
C997 C 0.7253 0.94072 0.39298 0.0
C998 C 0.71532 0.96557 0.07871 0.0
C999 C 0.70125 0.95951 0.05043 0.0
C1000 C 0.71824 0.96367 0.15535 0.0
C1001 C 0.70712 0.95586 0.20548 0.0
C1002 C 0.69308 0.94966 0.17711 0.0
C1003 C 0.69019 0.95141 0.10052 0.0
H1004 H 0.34284 0.04835 0.06822 0.0
H1005 H 0.30913 0.11124 0.04717 0.0
H1006 H 0.33963 0.04823 0.20313 0.0
H1007 H 0.30538 0.11027 0.1819 0.0
H1008 H 0.3137 0.12319 0.43251 0.0
H1009 H 0.31581 0.12337 0.29674 0.0
H1010 H 0.32399 0.0345 0.29977 0.0
H1011 H 0.32256 0.03473 0.43552 0.0
C1012 C 0.33466 0.06201 0.09246 0.0
C1013 C 0.32632 0.07993 0.04708 0.0
C1014 C 0.3327 0.06179 0.16992 0.0
C1015 C 0.32219 0.07918 0.20396 0.0
C1016 C 0.31376 0.09693 0.15817 0.0
C1017 C 0.31586 0.09743 0.08074 0.0
C1018 C 0.31586 0.1037 0.40398 0.0
C1019 C 0.31811 0.07901 0.44468 0.0
C1020 C 0.31701 0.10373 0.32598 0.0
C1021 C 0.32022 0.07898 0.2868 0.0
C1022 C 0.3219 0.05412 0.32779 0.0
C1023 C 0.32097 0.05418 0.40572 0.0
H1024 H 0.09151 0.2222 0.19596 0.0
H1025 H 0.05276 0.17055 0.18121 0.0
H1026 H 0.09259 0.22473 0.06039 0.0
H1027 H 0.05379 0.17333 0.04473 0.0
H1028 H 0.07201 0.15769 0.80621 0.0
H1029 H 0.06926 0.15655 0.94166 0.0
H1030 H 0.07976 0.24428 0.95256 0.0
H1031 H 0.08269 0.24537 0.81701 0.0
C1032 C 0.08316 0.21144 0.16383 0.0
C1033 C 0.07209 0.19601 0.19967 0.0
C1034 C 0.08374 0.21308 0.08588 0.0
C1035 C 0.07328 0.19926 0.04143 0.0
C1036 C 0.06211 0.18398 0.07722 0.0
C1037 C 0.06149 0.18246 0.15546 0.0
C1038 C 0.07372 0.17677 0.83739 0.0
C1039 C 0.07771 0.20157 0.80062 0.0
C1040 C 0.07203 0.17615 0.91513 0.0
C1041 C 0.07433 0.20029 0.95821 0.0
C1042 C 0.07812 0.2252 0.92129 0.0
C1043 C 0.07977 0.22584 0.84349 0.0
H1044 H 0.95194 0.80299 0.18655 0.0
H1045 H 0.98734 0.86279 0.17511 0.0
H1046 H 0.95049 0.80217 0.05106 0.0
H1047 H 0.98607 0.86153 0.03859 0.0
H1048 H 0.96634 0.87662 0.80295 0.0
H1049 H 0.9697 0.87642 0.93821 0.0
H1050 H 0.9635 0.78709 0.94108 0.0
H1051 H 0.95984 0.78736 0.80618 0.0
C1052 C 0.95952 0.81582 0.15511 0.0
C1053 C 0.96971 0.83308 0.19181 0.0
C1054 C 0.95874 0.8152 0.07719 0.0
C1055 C 0.96815 0.83178 0.03373 0.0
C1056 C 0.97852 0.84876 0.07037 0.0
C1057 C 0.97931 0.84937 0.14858 0.0
C1058 C 0.96571 0.85693 0.83243 0.0
C1059 C 0.96266 0.83205 0.79379 0.0
C1060 C 0.96775 0.85678 0.90997 0.0
C1061 C 0.96682 0.83176 0.95071 0.0
C1062 C 0.96405 0.80681 0.91172 0.0
C1063 C 0.96198 0.80696 0.83427 0.0
H1064 H 0.17972 0.44014 0.08363 0.0
H1065 H 0.22204 0.47944 0.0573 0.0
H1066 H 0.18405 0.43612 0.21758 0.0
H1067 H 0.2263 0.47576 0.19153 0.0
H1068 H 0.23471 0.43632 0.42408 0.0
H1069 H 0.23085 0.44059 0.28922 0.0
H1070 H 0.18594 0.46559 0.3279 0.0
H1071 H 0.1897 0.46097 0.46194 0.0
C1072 C 0.18993 0.44806 0.10635 0.0
C1073 C 0.20053 0.46015 0.05944 0.0
C1074 C 0.19239 0.44586 0.18333 0.0
C1075 C 0.20553 0.45563 0.21548 0.0
C1076 C 0.21613 0.46772 0.1686 0.0
C1077 C 0.21364 0.47001 0.09158 0.0
C1078 C 0.22401 0.44266 0.40371 0.0
C1079 C 0.2125 0.44814 0.45386 0.0
C1080 C 0.22182 0.44529 0.32644 0.0
C1081 C 0.20805 0.45332 0.29762 0.0
C1082 C 0.19661 0.45895 0.34799 0.0
C1083 C 0.19881 0.45646 0.42501 0.0
H1084 H 0.8038 0.61194 0.4253 0.0
H1085 H 0.83938 0.55254 0.44019 0.0
H1086 H 0.80517 0.61009 0.28897 0.0
H1087 H 0.8409 0.55106 0.30461 0.0
H1088 H 0.83131 0.53545 0.05865 0.0
H1089 H 0.82789 0.53552 0.19383 0.0
H1090 H 0.8217 0.62485 0.18945 0.0
H1091 H 0.82486 0.62473 0.05426 0.0
C1092 C 0.8119 0.59849 0.39957 0.0
C1093 C 0.82153 0.58251 0.44375 0.0
C1094 C 0.81274 0.59752 0.32143 0.0
C1095 C 0.82318 0.58047 0.2857 0.0
C1096 C 0.83261 0.56416 0.33006 0.0
C1097 C 0.8318 0.56516 0.40799 0.0
C1098 C 0.82923 0.55512 0.08651 0.0
C1099 C 0.82848 0.58012 0.04561 0.0
C1100 C 0.8273 0.55517 0.16409 0.0
C1101 C 0.82456 0.58021 0.20269 0.0
C1102 C 0.82361 0.60514 0.16154 0.0
C1103 C 0.82555 0.60509 0.08399 0.0
H1104 H 0.09385 0.65943 0.31609 0.0
H1105 H 0.07104 0.73842 0.30594 0.0
H1106 H 0.09022 0.65805 0.45116 0.0
H1107 H 0.06714 0.7366 0.44137 0.0
H1108 H 0.05093 0.7004 0.67595 0.0
H1109 H 0.05324 0.70252 0.53915 0.0
H1110 H 0.10005 0.69061 0.55901 0.0
H1111 H 0.09785 0.68904 0.6947 0.0
C1112 C 0.088 0.67643 0.34258 0.0
C1113 C 0.08278 0.69909 0.30034 0.0
C1114 C 0.08594 0.67563 0.41987 0.0
C1115 C 0.0784 0.69719 0.45645 0.0
C1116 C 0.07292 0.71963 0.41428 0.0
C1117 C 0.07523 0.72072 0.33697 0.0
C1118 C 0.06168 0.69822 0.65086 0.0
C1119 C 0.07421 0.6945 0.69585 0.0
C1120 C 0.06301 0.69959 0.57288 0.0
C1121 C 0.07682 0.69663 0.53882 0.0
C1122 C 0.08928 0.69277 0.5839 0.0
C1123 C 0.08801 0.69198 0.66154 0.0
H1124 H 0.97217 0.3748 0.30176 0.0
H1125 H 0.95552 0.29056 0.31326 0.0
H1126 H 0.97455 0.37574 0.43752 0.0
H1127 H 0.95805 0.29142 0.44901 0.0
H1128 H 0.94739 0.31681 0.69083 0.0
H1129 H 0.94634 0.31455 0.55513 0.0
H1130 H 0.98855 0.35523 0.54196 0.0
H1131 H 0.98956 0.35777 0.67843 0.0
C1132 C 0.96905 0.35644 0.33316 0.0
C1133 C 0.96352 0.33269 0.29653 0.0
C1134 C 0.97052 0.35692 0.41105 0.0
C1135 C 0.96645 0.3337 0.4543 0.0
C1136 C 0.9611 0.30982 0.41753 0.0
C1137 C 0.95968 0.30929 0.33963 0.0
C1138 C 0.95649 0.32525 0.65919 0.0
C1139 C 0.96853 0.3376 0.69568 0.0
C1140 C 0.95592 0.32378 0.58123 0.0
C1141 C 0.96736 0.33468 0.5375 0.0
C1142 C 0.97947 0.34691 0.57392 0.0
C1143 C 0.98007 0.34828 0.65214 0.0
H1144 H 0.2382 0.92298 0.93287 0.0
H1145 H 0.20111 0.97903 0.94445 0.0
H1146 H 0.23689 0.92411 0.79642 0.0
H1147 H 0.19962 0.97972 0.8089 0.0
H1148 H 0.20862 0.99539 0.56377 0.0
H1149 H 0.21215 0.99607 0.69877 0.0
H1150 H 0.22103 0.90754 0.6962 0.0
H1151 H 0.2178 0.90697 0.5609 0.0
C1152 C 0.22978 0.93554 0.90638 0.0
C1153 C 0.21973 0.95082 0.94963 0.0
C1154 C 0.22898 0.93608 0.82819 0.0
C1155 C 0.21813 0.95196 0.79157 0.0
C1156 C 0.20825 0.96756 0.83504 0.0
C1157 C 0.20905 0.96701 0.91297 0.0
C1158 C 0.21132 0.97606 0.59196 0.0
C1159 C 0.2128 0.95107 0.55155 0.0
C1160 C 0.21331 0.97643 0.66946 0.0
C1161 C 0.2168 0.95183 0.70854 0.0
C1162 C 0.21851 0.92693 0.66789 0.0
C1163 C 0.21654 0.92656 0.59032 0.0
H1164 H 0.84673 0.06107 0.95169 0.0
H1165 H 0.80582 0.10445 0.91265 0.0
H1166 H 0.85065 0.05754 0.81774 0.0
H1167 H 0.80987 0.1011 0.77768 0.0
H1168 H 0.81599 0.06244 0.54176 0.0
H1169 H 0.81119 0.06585 0.67556 0.0
H1170 H 0.8564 0.08902 0.71357 0.0
H1171 H 0.86126 0.08532 0.58008 0.0
C1172 C 0.83855 0.06988 0.91453 0.0
C1173 C 0.82598 0.08318 0.94296 0.0
C1174 C 0.84086 0.06799 0.83763 0.0
C1175 C 0.83064 0.07923 0.78703 0.0
C1176 C 0.81791 0.09211 0.81527 0.0
C1177 C 0.81563 0.09416 0.89251 0.0
C1178 C 0.82492 0.06822 0.57862 0.0
C1179 C 0.83904 0.07348 0.55014 0.0
C1180 C 0.82213 0.07036 0.65528 0.0
C1181 C 0.83341 0.07764 0.70524 0.0
C1182 C 0.84751 0.08302 0.67668 0.0
C1183 C 0.85028 0.08102 0.60006 0.0
H1184 H 0.50541 0.09037 0.96681 0.0
H1185 H 0.55052 0.0736 0.90735 0.0
H1186 H 0.49949 0.04143 0.95094 0.0
H1187 H 0.54443 0.02448 0.88875 0.0
H1188 H 0.48964 0.95311 0.897 0.0
H1189 H 0.49643 1.00143 0.87236 0.0
H1190 H 0.53892 0.98694 0.97285 0.0
H1191 H 0.5324 0.9386 0.99478 0.0
C1192 C 0.51403 0.07633 0.94868 0.0
C1193 C 0.52847 0.08604 0.93891 0.0
C1194 C 0.51057 0.04819 0.93881 0.0
C1195 C 0.52148 0.02882 0.91897 0.0
C1196 C 0.53578 0.03875 0.90498 0.0
C1197 C 0.53924 0.06704 0.91479 0.0
C1198 C 0.50059 0.95992 0.91179 0.0
C1199 C 0.51044 0.94181 0.94823 0.0
C1200 C 0.50444 0.98782 0.89843 0.0
C1201 C 0.5182 0.99828 0.92118 0.0
C1202 C 0.5283 0.97971 0.95375 0.0
C1203 C 0.52447 0.95194 0.96709 0.0
H1204 H 0.73869 0.32399 0.21953 0.0
H1205 H 0.78322 0.34971 0.17732 0.0
H1206 H 0.74576 0.27544 0.20269 0.0
H1207 H 0.79026 0.30145 0.15423 0.0
H1208 H 0.80242 0.2124 0.22481 0.0
H1209 H 0.7957 0.2614 0.21551 0.0
H1210 H 0.75261 0.2377 0.13493 0.0
H1211 H 0.75918 0.18876 0.15056 0.0
C1212 C 0.74991 0.31921 0.20401 0.0
C1213 C 0.76041 0.3405 0.19969 0.0
C1214 C 0.75403 0.29129 0.19394 0.0
C1215 C 0.76871 0.28402 0.17758 0.0
C1216 C 0.77897 0.30579 0.16889 0.0
C1217 C 0.77492 0.33358 0.1811 0.0
C1218 C 0.79164 0.21783 0.2037 0.0
C1219 C 0.78134 0.19692 0.18813 0.0
C1220 C 0.78772 0.24603 0.19803 0.0
C1221 C 0.77346 0.254 0.17508 0.0
C1222 C 0.76352 0.23274 0.15495 0.0
C1223 C 0.76733 0.2046 0.16271 0.0
H1224 H 0.25632 0.69102 0.23259 0.0
H1225 H 0.30123 0.70727 0.16888 0.0
H1226 H 0.25047 0.74005 0.21777 0.0
H1227 H 0.29521 0.75652 0.15142 0.0
H1228 H 0.28367 0.84319 0.25404 0.0
H1229 H 0.29 0.79456 0.23466 0.0
H1230 H 0.24717 0.77976 0.13855 0.0
H1231 H 0.24058 0.82834 0.16064 0.0
C1232 C 0.26491 0.70497 0.21385 0.0
C1233 C 0.27928 0.69505 0.20238 0.0
C1234 C 0.2615 0.73318 0.20461 0.0
C1235 C 0.27236 0.75244 0.18371 0.0
C1236 C 0.28659 0.74235 0.16845 0.0
C1237 C 0.29002 0.71398 0.17759 0.0
C1238 C 0.27561 0.8297 0.22796 0.0
C1239 C 0.26157 0.83989 0.20936 0.0
C1240 C 0.27933 0.80175 0.21608 0.0
C1241 C 0.2691 0.78303 0.18533 0.0
C1242 C 0.25528 0.79347 0.16322 0.0
C1243 C 0.25155 0.82153 0.1751 0.0
H1244 H 0.53364 0.43677 0.38254 0.0
H1245 H 0.48959 0.45799 0.44922 0.0
H1246 H 0.53919 0.48592 0.36308 0.0
H1247 H 0.49526 0.50731 0.43512 0.0
H1248 H 0.50601 0.59567 0.38694 0.0
H1249 H 0.50028 0.5466 0.36722 0.0
H1250 H 0.54468 0.52484 0.43155 0.0
H1251 H 0.55049 0.57407 0.446 0.0
C1252 C 0.52509 0.45207 0.39224 0.0
C1253 C 0.51117 0.44362 0.41696 0.0
C1254 C 0.52831 0.48034 0.38208 0.0
C1255 C 0.51781 0.50101 0.39863 0.0
C1256 C 0.50364 0.49229 0.4205 0.0
C1257 C 0.50033 0.46392 0.42884 0.0
C1258 C 0.51461 0.58031 0.39495 0.0
C1259 C 0.52871 0.58864 0.41758 0.0
C1260 C 0.51129 0.55208 0.3846 0.0
C1261 C 0.52189 0.53133 0.39882 0.0
C1262 C 0.53621 0.53994 0.41869 0.0
C1263 C 0.5396 0.56826 0.42724 0.0
H1264 H 0.80099 0.70736 0.65611 0.0
H1265 H 0.75698 0.69167 0.73535 0.0
H1266 H 0.79458 0.75619 0.63513 0.0
H1267 H 0.7508 0.7404 0.71712 0.0
H1268 H 0.73997 0.82785 0.65362 0.0
H1269 H 0.74638 0.77892 0.63513 0.0
H1270 H 0.79031 0.79543 0.71502 0.0
H1271 H 0.78412 0.84428 0.73071 0.0
C1272 C 0.78987 0.71407 0.66761 0.0
C1273 C 0.77953 0.69541 0.69769 0.0
C1274 C 0.78624 0.74224 0.65642 0.0
C1275 C 0.77218 0.75244 0.67495 0.0
C1276 C 0.76167 0.73342 0.70134 0.0
C1277 C 0.76529 0.7054 0.71255 0.0
C1278 C 0.75112 0.82128 0.66518 0.0
C1279 C 0.76151 0.8402 0.6939 0.0
C1280 C 0.75476 0.79305 0.65543 0.0
C1281 C 0.76885 0.78302 0.67413 0.0
C1282 C 0.7794 0.80226 0.69917 0.0
C1283 C 0.77578 0.83037 0.70894 0.0
H1284 H 0.30266 0.2097 0.70322 0.0
H1285 H 0.25736 0.18492 0.6836 0.0
H1286 H 0.29571 0.25814 0.68344 0.0
H1287 H 0.25031 0.23301 0.65795 0.0
H1288 H 0.24047 0.32349 0.72618 0.0
H1289 H 0.24645 0.27412 0.71801 0.0
H1290 H 0.28788 0.29489 0.61367 0.0
H1291 H 0.28217 0.34426 0.62779 0.0
C1292 C 0.29126 0.2146 0.69199 0.0
C1293 C 0.28055 0.19364 0.69493 0.0
C1294 C 0.2872 0.24246 0.68028 0.0
C1295 C 0.27234 0.24997 0.66958 0.0
C1296 C 0.26179 0.22848 0.66805 0.0
C1297 C 0.26582 0.20077 0.68179 0.0
C1298 C 0.25069 0.31734 0.70003 0.0
C1299 C 0.26085 0.33759 0.67747 0.0
C1300 C 0.25417 0.28893 0.69505 0.0
C1301 C 0.26781 0.28007 0.6659 0.0
C1302 C 0.27749 0.30059 0.63858 0.0
C1303 C 0.27415 0.32897 0.64552 0.0
H1304 H 1.00325 0.95855 0.59439 0.0
H1305 H 1.00982 0.94393 0.35892 0.0
H1306 H 1.00912 1.00772 0.57732 0.0
H1307 H 1.0161 0.99363 0.34196 0.0
H1308 H 0.0465 0.07594 0.41433 0.0
H1309 H 0.03838 0.02736 0.40198 0.0
H1310 H 0.99672 0.049 0.5002 0.0
H1311 H 1.00451 0.09729 0.5111 0.0
C1312 C 1.00587 0.96596 0.53878 0.0
C1313 C 1.00597 0.94749 0.47792 0.0
C1314 C 1.00921 0.9941 0.529 0.0
C1315 C 1.01304 1.00448 0.45832 0.0
C1316 C 1.01318 0.98611 0.39701 0.0
C1317 C 1.00948 0.95783 0.40658 0.0
C1318 C 0.03544 0.0706 0.43098 0.0
C1319 C 0.02623 0.09064 0.46449 0.0
C1320 C 0.03081 0.04272 0.42401 0.0
C1321 C 1.01698 0.03443 0.45087 0.0
C1322 C 1.00749 0.05477 0.4797 0.0
C1323 C 1.01201 0.08246 0.4861 0.0
H1324 H 0.99014 0.45735 0.91367 0.0
H1325 H 0.03509 0.44265 0.98088 0.0
H1326 H 0.99579 0.50657 0.89442 0.0
H1327 H 0.04053 0.49175 0.96463 0.0
H1328 H 1.00627 0.59404 0.99382 0.0
H1329 H 1.00044 0.54515 0.97601 0.0
H1330 H 0.04366 0.53106 0.88451 0.0
H1331 H 0.04978 0.57988 0.90538 0.0
C1332 C 1.00129 0.46438 0.92284 0.0
C1333 C 1.01215 0.44589 0.94908 0.0
C1334 C 1.00449 0.49275 0.91268 0.0
C1335 C 1.0186 0.50331 0.92852 0.0
C1336 C 0.02959 0.48449 0.95098 0.0
C1337 C 0.02641 0.45625 0.96109 0.0
C1338 C 1.01452 0.58065 0.96912 0.0
C1339 C 0.02854 0.59112 0.95151 0.0
C1340 C 1.0111 0.55254 0.95811 0.0
C1341 C 0.02158 0.53397 0.92912 0.0
C1342 C 0.03536 0.54467 0.90787 0.0
C1343 C 0.03882 0.57287 0.91901 0.0
H1344 H 0.62291 0.17525 0.02278 0.0
H1345 H 0.59288 0.11504 0.92849 0.0
H1346 H 0.64346 0.14388 0.99625 0.0
H1347 H 0.61339 0.08377 0.90239 0.0
H1348 H 0.65304 0.02535 0.9025 0.0
H1349 H 0.63362 0.05418 0.95859 0.0
H1350 H 0.65506 0.12838 0.87676 0.0
H1351 H 0.67421 0.09973 0.82068 0.0
C1352 C 0.62064 0.15519 0.99747 0.0
C1353 C 0.6062 0.14785 0.97733 0.0
C1354 C 0.63244 0.13723 0.98199 0.0
C1355 C 0.6301 0.11129 0.94699 0.0
C1356 C 0.6156 0.10343 0.93001 0.0
C1357 C 0.60383 0.12152 0.94453 0.0
C1358 C 0.65377 0.04784 0.89833 0.0
C1359 C 0.66518 0.06028 0.85739 0.0
C1360 C 0.64258 0.06436 0.92975 0.0
C1361 C 0.64274 0.09364 0.92201 0.0
C1362 C 0.65462 0.10599 0.88454 0.0
C1363 C 0.66559 0.08954 0.85216 0.0
H1364 H 0.44563 0.91245 0.92903 0.0
H1365 H 0.41548 0.85223 0.02169 0.0
H1366 H 0.4252 0.94377 0.90212 0.0
H1367 H 0.39497 0.88371 0.99426 0.0
H1368 H 0.36442 0.92891 0.8186 0.0
H1369 H 0.38345 0.89976 0.87424 0.0
H1370 H 0.40514 0.9733 0.95902 0.0
H1371 H 0.3859 1.00264 0.90327 0.0
C1372 C 0.43466 0.90597 0.94441 0.0
C1373 C 0.43223 0.87965 0.97709 0.0
C1374 C 0.42294 0.92409 0.92948 0.0
C1375 C 0.40843 0.91629 0.94588 0.0
C1376 C 0.40601 0.8903 0.98051 0.0
C1377 C 0.41778 0.8723 0.99649 0.0
C1378 C 0.37309 0.93886 0.8504 0.0
C1379 C 0.37362 0.9681 0.8566 0.0
C1380 C 0.38398 0.92212 0.88263 0.0
C1381 C 0.39587 0.93415 0.92093 0.0
C1382 C 0.39616 0.96338 0.92951 0.0
C1383 C 0.38507 0.98018 0.89822 0.0
H1384 H 0.69813 0.37004 0.15299 0.0
H1385 H 0.66634 0.41777 0.27823 0.0
H1386 H 0.6791 0.33739 0.11627 0.0
H1387 H 0.64707 0.3849 0.24009 0.0
H1388 H 0.61778 0.30672 0.18858 0.0
H1389 H 0.63734 0.33525 0.24508 0.0
H1390 H 0.65858 0.34122 0.03028 0.0
H1391 H 0.63945 0.31286 0.97486 0.0
C1392 C 0.68708 0.37357 0.17314 0.0
C1393 C 0.68381 0.3969 0.21791 0.0
C1394 C 0.67611 0.35478 0.15178 0.0
C1395 C 0.66146 0.35866 0.17417 0.0
C1396 C 0.65824 0.38119 0.22198 0.0
C1397 C 0.66929 0.40012 0.24359 0.0
C1398 C 0.62678 0.31375 0.1539 0.0
C1399 C 0.62705 0.30731 0.0771 0.0
C1400 C 0.6379 0.33036 0.18608 0.0
C1401 C 0.64961 0.34048 0.14238 0.0
C1402 C 0.64991 0.33353 0.06611 0.0
C1403 C 0.63883 0.31734 0.0341 0.0
H1404 H 0.42493 0.67651 0.07082 0.0
H1405 H 0.40423 0.75181 0.15038 0.0
H1406 H 0.40556 0.64865 0.12743 0.0
H1407 H 0.38465 0.72374 0.20724 0.0
H1408 H 0.34352 0.66397 0.18236 0.0
H1409 H 0.36417 0.69448 0.15364 0.0
H1410 H 0.39406 0.63396 0.2476 0.0
H1411 H 0.37336 0.60333 0.27666 0.0
C1412 C 0.41635 0.6871 0.10166 0.0
C1413 C 0.41616 0.7164 0.10617 0.0
C1414 C 0.40527 0.67108 0.13447 0.0
C1415 C 0.3935 0.6839 0.1718 0.0
C1416 C 0.39352 0.71321 0.17853 0.0
C1417 C 0.4048 0.72929 0.14661 0.0
C1418 C 0.35447 0.65725 0.19785 0.0
C1419 C 0.35673 0.63101 0.23144 0.0
C1420 C 0.36632 0.67489 0.18181 0.0
C1421 C 0.38081 0.66669 0.19803 0.0
C1422 C 0.38305 0.64086 0.23383 0.0
C1423 C 0.37117 0.62333 0.25081 0.0
H1424 H 0.65186 0.5242 0.40139 0.0
H1425 H 0.67315 0.59923 0.32464 0.0
H1426 H 0.63231 0.55256 0.45794 0.0
H1427 H 0.65387 0.6274 0.3813 0.0
H1428 H 0.62194 0.67294 0.53097 0.0
H1429 H 0.64234 0.64144 0.50302 0.0
H1430 H 0.61213 0.58311 0.40253 0.0
H1431 H 0.59174 0.61457 0.42994 0.0
C1432 C 0.65257 0.54672 0.39832 0.0
C1433 C 0.66408 0.55948 0.35878 0.0
C1434 C 0.64131 0.56296 0.43004 0.0
C1435 C 0.6415 0.59229 0.42412 0.0
C1436 C 0.65342 0.60494 0.38771 0.0
C1437 C 0.66446 0.58877 0.35496 0.0
C1438 C 0.61959 0.65321 0.50402 0.0
C1439 C 0.60516 0.64646 0.4823 0.0
C1440 C 0.63131 0.63519 0.48768 0.0
C1441 C 0.6289 0.60977 0.45023 0.0
C1442 C 0.61438 0.60238 0.43196 0.0
C1443 C 0.60269 0.62055 0.44732 0.0
H1444 H 0.39052 0.46956 0.2367 0.0
H1445 H 0.36809 0.47245 0.44877 0.0
H1446 H 0.41003 0.442 0.29208 0.0
H1447 H 0.38797 0.44454 0.50519 0.0
H1448 H 0.41807 0.36233 0.5309 0.0
H1449 H 0.39846 0.39498 0.49553 0.0
H1450 H 0.4302 0.44641 0.38173 0.0
H1451 H 0.44959 0.41408 0.41595 0.0
C1452 C 0.38982 0.46455 0.29561 0.0
C1453 C 0.37772 0.47341 0.33819 0.0
C1454 C 0.40111 0.4488 0.3276 0.0
C1455 C 0.40067 0.44107 0.40332 0.0
C1456 C 0.38864 0.45007 0.44663 0.0
C1457 C 0.37734 0.46631 0.41454 0.0
C1458 C 0.42089 0.38083 0.49933 0.0
C1459 C 0.43544 0.38523 0.47548 0.0
C1460 C 0.40964 0.39961 0.47925 0.0
C1461 C 0.41269 0.42316 0.43476 0.0
C1462 C 0.42736 0.42825 0.41469 0.0
C1463 C 0.43853 0.40964 0.43463 0.0
H1464 H 0.66673 0.91901 0.77231 0.0
H1465 H 0.69906 0.86736 0.6628 0.0
H1466 H 0.64751 0.88558 0.737 0.0
H1467 H 0.68009 0.83413 0.62915 0.0
H1468 H 0.64153 0.80798 0.48245 0.0
H1469 H 0.66048 0.83668 0.53798 0.0
H1470 H 0.63717 0.8365 0.74777 0.0
H1471 H 0.61777 0.80762 0.69096 0.0
C1472 C 0.6698 0.90036 0.74195 0.0
C1473 C 0.68445 0.8962 0.7194 0.0
C1474 C 0.65878 0.88113 0.72196 0.0
C1475 C 0.66219 0.85733 0.67912 0.0
C1476 C 0.67698 0.8525 0.66062 0.0
C1477 C 0.6879 0.87162 0.68018 0.0
C1478 C 0.64042 0.81379 0.54067 0.0
C1479 C 0.6281 0.80532 0.58212 0.0
C1480 C 0.6514 0.83017 0.5728 0.0
C1481 C 0.65046 0.83886 0.64763 0.0
C1482 C 0.63822 0.83024 0.6899 0.0
C1483 C 0.62719 0.81344 0.65762 0.0
H1484 H 0.42592 0.18036 0.56832 0.0
H1485 H 0.40467 0.25484 0.64949 0.0
H1486 H 0.4068 0.15178 0.62475 0.0
H1487 H 0.38529 0.22606 0.70582 0.0
H1488 H 0.34467 0.16496 0.67717 0.0
H1489 H 0.36511 0.1961 0.64921 0.0
H1490 H 0.39532 0.1368 0.74596 0.0
H1491 H 0.37483 0.10557 0.77452 0.0
C1492 C 0.41729 0.1906 0.59959 0.0
C1493 C 0.41685 0.21987 0.60463 0.0
C1494 C 0.40634 0.17418 0.63219 0.0
C1495 C 0.39446 0.18658 0.66965 0.0
C1496 C 0.39426 0.21587 0.67701 0.0
C1497 C 0.40542 0.23234 0.64542 0.0
C1498 C 0.35564 0.15863 0.69335 0.0
C1499 C 0.35807 0.13258 0.7277 0.0
C1500 C 0.36737 0.17664 0.67779 0.0
C1501 C 0.38188 0.16897 0.69518 0.0
C1502 C 0.38429 0.14328 0.73143 0.0
C1503 C 0.37252 0.12542 0.74804 0.0
H1504 H 0.174 0.10042 0.32071 0.0
H1505 H 0.15316 0.0265 0.40766 0.0
H1506 H 0.15499 0.12935 0.37701 0.0
H1507 H 0.13389 0.05562 0.46391 0.0
H1508 H 0.09305 0.1164 0.43662 0.0
H1509 H 0.11343 0.08508 0.40842 0.0
H1510 H 0.14393 0.1453 0.49804 0.0
H1511 H 0.1235 0.17672 0.52681 0.0
C1512 C 0.16548 0.09038 0.35317 0.0
C1513 C 0.16514 0.06116 0.35991 0.0
C1514 C 0.15459 0.10701 0.38572 0.0
C1515 C 0.14286 0.09487 0.42488 0.0
C1516 C 0.14274 0.06563 0.4338 0.0
C1517 C 0.15384 0.04896 0.40224 0.0
C1518 C 0.10407 0.12289 0.45127 0.0
C1519 C 0.10659 0.14925 0.48365 0.0
C1520 C 0.11577 0.10478 0.43553 0.0
C1521 C 0.13034 0.11265 0.45074 0.0
C1522 C 0.13284 0.13865 0.48515 0.0
C1523 C 0.12112 0.15662 0.50194 0.0
H1524 H 0.9458 0.91526 0.41901 0.0
H1525 H 0.91595 0.85706 0.52283 0.0
H1526 H 0.92535 0.94671 0.39284 0.0
H1527 H 0.89546 0.8886 0.49611 0.0
H1528 H 0.86398 0.9321 0.3215 0.0
H1529 H 0.88325 0.90329 0.37646 0.0
H1530 H 0.90577 0.97742 0.45134 0.0
H1531 H 0.88625 1.00641 0.39647 0.0
C1532 C 0.93489 0.90925 0.43693 0.0
C1533 C 0.93255 0.88344 0.4726 0.0
C1534 C 0.92317 0.92744 0.42242 0.0
C1535 C 0.90874 0.92021 0.44226 0.0
C1536 C 0.90643 0.89475 0.47971 0.0
C1537 C 0.91819 0.8767 0.49523 0.0
C1538 C 0.87287 0.94226 0.35122 0.0
C1539 C 0.87355 0.97153 0.35489 0.0
C1540 C 0.8839 0.92572 0.38294 0.0
C1541 C 0.8961 0.938 0.41809 0.0
C1542 C 0.89655 0.96731 0.42428 0.0
C1543 C 0.88531 0.98392 0.39357 0.0
H1544 H 0.1419 0.30969 0.49459 0.0
H1545 H 0.1186 0.30769 0.70427 0.0
H1546 H 0.16127 0.33709 0.55148 0.0
H1547 H 0.13835 0.3354 0.76229 0.0
H1548 H 0.16834 0.41747 0.78949 0.0
H1549 H 0.14892 0.38457 0.75351 0.0
H1550 H 0.1811 0.33319 0.64244 0.0
H1551 H 0.2003 0.36584 0.67717 0.0
C1552 C 0.14098 0.31485 0.55334 0.0
C1553 C 0.12867 0.30632 0.59475 0.0
C1554 C 0.15219 0.3305 0.58622 0.0
C1555 C 0.15148 0.33844 0.66173 0.0
C1556 C 0.13924 0.32971 0.70392 0.0
C1557 C 0.12801 0.31359 0.67093 0.0
C1558 C 0.1713 0.39891 0.75849 0.0
C1559 C 0.18591 0.39463 0.73542 0.0
C1560 C 0.16016 0.37998 0.73803 0.0
C1561 C 0.16338 0.3564 0.69398 0.0
C1562 C 0.17813 0.35139 0.67496 0.0
C1563 C 0.18919 0.37017 0.69522 0.0
H1564 H 0.87401 0.60573 0.77336 0.0
H1565 H 0.84389 0.66583 0.67888 0.0
H1566 H 0.89455 0.63692 0.74525 0.0
H1567 H 0.86437 0.6969 0.65129 0.0
H1568 H 0.904 0.75522 0.65036 0.0
H1569 H 0.88466 0.72648 0.70698 0.0
H1570 H 0.90596 0.65218 0.62456 0.0
H1571 H 0.92507 0.68073 0.56798 0.0
C1572 C 0.87172 0.62573 0.74769 0.0
C1573 C 0.85727 0.6331 0.72794 0.0
C1574 C 0.88351 0.64357 0.73129 0.0
C1575 C 0.88113 0.66942 0.69583 0.0
C1576 C 0.86661 0.67731 0.67923 0.0
C1577 C 0.85487 0.65934 0.6946 0.0
C1578 C 0.90472 0.73272 0.64603 0.0
C1579 C 0.91609 0.72025 0.60481 0.0
C1580 C 0.89357 0.71627 0.6778 0.0
C1581 C 0.89372 0.68699 0.67017 0.0
C1582 C 0.90554 0.67458 0.63224 0.0
C1583 C 0.91647 0.69098 0.59951 0.0
H1584 H 0.09039 0.61704 0.91566 0.0
H1585 H 0.12279 0.66719 0.02996 0.0
H1586 H 0.10924 0.58356 0.88198 0.0
H1587 H 0.14189 0.63358 0.99456 0.0
H1588 H 0.17155 0.556 0.94772 0.0
H1589 H 0.15211 0.5848 0.00393 0.0
H1590 H 0.129 0.58539 0.79303 0.0
H1591 H 0.14799 0.55671 0.73813 0.0
C1592 C 0.10154 0.62091 0.93408 0.0
C1593 C 0.10504 0.64515 0.97476 0.0
C1594 C 0.11241 0.60166 0.91445 0.0
C1595 C 0.12718 0.60601 0.93433 0.0
C1596 C 0.13063 0.62947 0.97844 0.0
C1597 C 0.11968 0.64882 0.9985 0.0
C1598 C 0.16217 0.56187 0.914 0.0
C1599 C 0.16134 0.55388 0.83835 0.0
C1600 C 0.1511 0.57864 0.94594 0.0
C1601 C 0.1389 0.5874 0.90321 0.0
C1602 C 0.13804 0.57879 0.82825 0.0
C1603 C 0.14905 0.56242 0.79647 0.0
H1604 H 0.86849 0.47399 0.94519 0.0
H1605 H 0.89093 0.47056 0.73319 0.0
H1606 H 0.88816 0.44556 0.00162 0.0
H1607 H 0.91022 0.44245 0.78857 0.0
H1608 H 0.94967 0.41428 0.91346 0.0
H1609 H 0.93037 0.44659 0.87801 0.0
H1610 H 0.89845 0.39582 0.99256 0.0
H1611 H 0.91798 0.36316 0.02923 0.0
C1612 C 0.87769 0.4676 0.91096 0.0
C1613 C 0.87814 0.47473 0.83463 0.0
C1614 C 0.88887 0.45106 0.94306 0.0
C1615 C 0.90084 0.44176 0.89978 0.0
C1616 C 0.90133 0.44947 0.82406 0.0
C1617 C 0.89017 0.46554 0.79208 0.0
C1618 C 0.93859 0.40994 0.93193 0.0
C1619 C 0.93544 0.38574 0.97354 0.0
C1620 C 0.92747 0.42855 0.9113 0.0
C1621 C 0.91278 0.42368 0.93137 0.0
C1622 C 0.90965 0.40029 0.97628 0.0
C1623 C 0.92085 0.3815 0.99707 0.0
H1624 H 0.19943 0.86712 0.17507 0.0
H1625 H 0.16647 0.9195 0.27704 0.0
H1626 H 0.18068 0.83356 0.14067 0.0
H1627 H 0.14747 0.88572 0.2409 0.0
H1628 H 0.1181 0.80728 0.1952 0.0
H1629 H 0.13713 0.83673 0.25302 0.0
H1630 H 0.16159 0.83533 0.04667 0.0
H1631 H 0.143 0.80605 0.9902 0.0
C1632 C 0.18817 0.87148 0.19057 0.0
C1633 C 0.18448 0.89634 0.2279 0.0
C1634 C 0.17738 0.85216 0.1706 0.0
C1635 C 0.1625 0.8571 0.18675 0.0
C1636 C 0.15883 0.88121 0.22771 0.0
C1637 C 0.16971 0.90063 0.24817 0.0
C1638 C 0.12769 0.81288 0.16288 0.0
C1639 C 0.12903 0.80414 0.08806 0.0
C1640 C 0.13851 0.83 0.19571 0.0
C1641 C 0.15096 0.83833 0.15469 0.0
C1642 C 0.15232 0.82905 0.08055 0.0
C1643 C 0.14156 0.81234 0.04787 0.0
H1644 H 0.84442 0.16734 0.17076 0.0
H1645 H 0.87412 0.10801 0.27193 0.0
H1646 H 0.86503 0.1982 0.14371 0.0
H1647 H 0.89479 0.13896 0.24426 0.0
H1648 H 0.92611 0.18149 0.06837 0.0
H1649 H 0.90667 0.15334 0.12357 0.0
H1650 H 0.88514 0.22817 0.20078 0.0
H1651 H 0.90482 0.2565 0.14564 0.0
C1652 C 0.85533 0.16098 0.18803 0.0
C1653 C 0.85758 0.13502 0.22314 0.0
C1654 C 0.86715 0.17883 0.17295 0.0
C1655 C 0.88159 0.17107 0.19159 0.0
C1656 C 0.88381 0.1455 0.22872 0.0
C1657 C 0.87195 0.1278 0.24485 0.0
C1658 C 0.91738 0.19195 0.09844 0.0
C1659 C 0.91705 0.22124 0.10278 0.0
C1660 C 0.90626 0.17578 0.13038 0.0
C1661 C 0.8943 0.18845 0.1665 0.0
C1662 C 0.89416 0.21776 0.17303 0.0
C1663 C 0.9055 0.23399 0.1421 0.0
loop_
_geom_bond_atom_site_label_1
_geom_bond_atom_site_label_2
_geom_bond_distance
_geom_bond_site_symmetry_2
_ccdc_geom_bond_type
Zn0 N4 2.020 . S
Zn0 O8 2.019 . S
Zn0 N10 2.119 . S
Zn0 O18 1.975 . S
C1 N2 1.334 . S
C1 N5 1.336 . S
N2 C1 1.334 . S
N2 C3 1.334 1_554 S
C3 N2 1.334 1_556 S
C3 N4 1.336 . S
N4 Zn0 2.020 . S
N4 C3 1.336 . S
N4 N5 1.354 1_556 S
N5 C1 1.336 . S
N5 N4 1.354 1_554 S
N5 Zn9 2.020 . S
C6 O7 1.244 . S
C6 O30 1.257 . S
O7 C6 1.244 . S
O8 Zn0 2.019 . S
O8 C28 1.257 . S
Zn9 N5 2.020 . S
Zn9 O16 1.975 . S
Zn9 N25 2.119 . S
Zn9 O30 2.019 . S
N10 Zn0 2.119 . S
N10 C12 1.334 1_556 S
N10 C13 1.328 . S
C11 C12 1.391 . S
C11 N14 1.329 1_554 S
C11 H32 0.930 . S
C12 N10 1.334 1_554 S
C12 C11 1.391 . S
C12 H19 0.930 . S
C13 N10 1.328 . S
C13 C15 1.392 . S
C13 H20 0.930 . S
N14 C11 1.329 1_556 S
N14 C15 1.331 . S
C15 C13 1.392 . S
C15 N14 1.331 . S
O16 Zn9 1.975 . S
O16 C17 1.252 1_554 S
C17 O16 1.252 1_556 S
C17 O18 1.252 . S
O18 Zn0 1.975 . S
O18 C17 1.252 . S
H19 C12 0.930 . S
H20 C13 0.930 . S
C21 C22 1.392 . S
C21 N25 1.328 . S
C21 H27 0.930 . S
C22 C21 1.392 . S
C22 N26 1.331 . S
C23 C24 1.391 . S
C23 N26 1.329 1_556 S
C23 H33 0.930 . S
C24 C23 1.391 . S
C24 N25 1.334 1_556 S
C24 H31 0.930 . S
N25 Zn9 2.119 . S
N25 C21 1.328 . S
N25 C24 1.334 1_554 S
N26 C22 1.331 . S
N26 C23 1.329 1_554 S
H27 C21 0.930 . S
C28 O8 1.257 . S
C28 O29 1.244 . S
O29 C28 1.244 . S
O30 C6 1.257 . S
O30 Zn9 2.019 . S
H31 C24 0.930 . S
H32 C11 0.930 . S
H33 C23 0.930 . S
Zn34 N38 2.020 . S
Zn34 O42 2.019 . S
Zn34 N44 2.119 . S
Zn34 O52 1.975 . S
C35 N36 1.334 . S
C35 N39 1.336 . S
N36 C35 1.334 . S
N36 C37 1.334 1_554 S
C37 N36 1.334 1_556 S
C37 N38 1.336 . S
N38 Zn34 2.020 . S
N38 C37 1.336 . S
N38 N39 1.354 1_556 S
N39 C35 1.336 . S
N39 N38 1.354 1_554 S
N39 Zn43 2.020 . S
C40 O41 1.244 . S
C40 O64 1.257 . S
O41 C40 1.244 . S
O42 Zn34 2.019 . S
O42 C62 1.257 . S
Zn43 N39 2.020 . S
Zn43 O50 1.975 . S
Zn43 N59 2.119 . S
Zn43 O64 2.019 . S
N44 Zn34 2.119 . S
N44 C46 1.334 1_556 S
N44 C47 1.328 . S
C45 C46 1.391 . S
C45 N48 1.329 1_554 S
C45 H66 0.930 . S
C46 N44 1.334 1_554 S
C46 C45 1.391 . S
C46 H53 0.930 . S
C47 N44 1.328 . S
C47 C49 1.392 . S
C47 H54 0.930 . S
N48 C45 1.329 1_556 S
N48 C49 1.331 . S
C49 C47 1.392 . S
C49 N48 1.331 . S
O50 Zn43 1.975 . S
O50 C51 1.252 1_554 S
C51 O50 1.252 1_556 S
C51 O52 1.252 . S
O52 Zn34 1.975 . S
O52 C51 1.252 . S
H53 C46 0.930 . S
H54 C47 0.930 . S
C55 C56 1.392 . S
C55 N59 1.328 . S
C55 H61 0.930 . S
C56 C55 1.392 . S
C56 N60 1.331 . S
C57 C58 1.391 . S
C57 N60 1.329 1_556 S
C57 H67 0.930 . S
C58 C57 1.391 . S
C58 N59 1.334 1_556 S
C58 H65 0.930 . S
N59 Zn43 2.119 . S
N59 C55 1.328 . S
N59 C58 1.334 1_554 S
N60 C56 1.331 . S
N60 C57 1.329 1_554 S
H61 C55 0.930 . S
C62 O42 1.257 . S
C62 O63 1.244 . S
O63 C62 1.244 . S
O64 C40 1.257 . S
O64 Zn43 2.019 . S
H65 C58 0.930 . S
H66 C45 0.930 . S
H67 C57 0.930 . S
Zn68 N72 2.020 . S
Zn68 O76 2.019 . S
Zn68 N78 2.119 . S
Zn68 O86 1.975 . S
C69 N70 1.334 . S
C69 N73 1.336 . S
N70 C69 1.334 . S
N70 C71 1.334 . S
C71 N70 1.334 . S
C71 N72 1.336 . S
N72 Zn68 2.020 . S
N72 C71 1.336 . S
N72 N73 1.354 . S
N73 C69 1.336 . S
N73 N72 1.354 . S
N73 Zn77 2.020 . S
C74 O75 1.244 . S
C74 O98 1.257 . S
O75 C74 1.244 . S
O76 Zn68 2.019 . S
O76 C96 1.257 . S
Zn77 N73 2.020 . S
Zn77 O84 1.975 . S
Zn77 N93 2.119 . S
Zn77 O98 2.019 . S
N78 Zn68 2.119 . S
N78 C80 1.334 . S
N78 C81 1.328 . S
C79 C80 1.391 . S
C79 N82 1.329 . S
C79 H100 0.930 . S
C80 N78 1.334 . S
C80 C79 1.391 . S
C80 H87 0.930 . S
C81 N78 1.328 . S
C81 C83 1.392 . S
C81 H88 0.930 . S
N82 C79 1.329 . S
N82 C83 1.331 . S
C83 C81 1.392 . S
C83 N82 1.331 . S
O84 Zn77 1.975 . S
O84 C85 1.252 . S
C85 O84 1.252 . S
C85 O86 1.252 . S
O86 Zn68 1.975 . S
O86 C85 1.252 . S
H87 C80 0.930 . S
H88 C81 0.930 . S
C89 C90 1.392 . S
C89 N93 1.328 . S
C89 H95 0.930 . S
C90 C89 1.392 . S
C90 N94 1.331 . S
C91 C92 1.391 . S
C91 N94 1.329 . S
C91 H101 0.930 . S
C92 C91 1.391 . S
C92 N93 1.334 . S
C92 H99 0.930 . S
N93 Zn77 2.119 . S
N93 C89 1.328 . S
N93 C92 1.334 . S
N94 C90 1.331 . S
N94 C91 1.329 . S
H95 C89 0.930 . S
C96 O76 1.257 . S
C96 O97 1.244 . S
O97 C96 1.244 . S
O98 C74 1.257 . S
O98 Zn77 2.019 . S
H99 C92 0.930 . S
H100 C79 0.930 . S
H101 C91 0.930 . S
Zn102 N106 2.020 . S
Zn102 O110 2.019 . S
Zn102 N112 2.119 . S
Zn102 O120 1.975 . S
C103 N104 1.334 . S
C103 N107 1.336 . S
N104 C103 1.334 . S
N104 C105 1.334 . S
C105 N104 1.334 . S
C105 N106 1.336 . S
N106 Zn102 2.020 . S
N106 C105 1.336 . S
N106 N107 1.354 . S
N107 C103 1.336 . S
N107 N106 1.354 . S
N107 Zn111 2.020 . S
C108 O109 1.244 . S
C108 O132 1.257 . S
O109 C108 1.244 . S
O110 Zn102 2.019 . S
O110 C130 1.257 . S
Zn111 N107 2.020 . S
Zn111 O118 1.975 . S
Zn111 N127 2.119 . S
Zn111 O132 2.019 . S
N112 Zn102 2.119 . S
N112 C114 1.334 . S
N112 C115 1.328 . S
C113 C114 1.391 . S
C113 N116 1.329 . S
C113 H134 0.930 . S
C114 N112 1.334 . S
C114 C113 1.391 . S
C114 H121 0.930 . S
C115 N112 1.328 . S
C115 C117 1.392 . S
C115 H122 0.930 . S
N116 C113 1.329 . S
N116 C117 1.331 . S
C117 C115 1.392 . S
C117 N116 1.331 . S
O118 Zn111 1.975 . S
O118 C119 1.252 . S
C119 O118 1.252 . S
C119 O120 1.252 . S
O120 Zn102 1.975 . S
O120 C119 1.252 . S
H121 C114 0.930 . S
H122 C115 0.930 . S
C123 C124 1.392 . S
C123 N127 1.328 . S
C123 H129 0.930 . S
C124 C123 1.392 . S
C124 N128 1.331 . S
C125 C126 1.391 . S
C125 N128 1.329 . S
C125 H135 0.930 . S
C126 C125 1.391 . S
C126 N127 1.334 . S
C126 H133 0.930 . S
N127 Zn111 2.119 . S
N127 C123 1.328 . S
N127 C126 1.334 . S
N128 C124 1.331 . S
N128 C125 1.329 . S
H129 C123 0.930 . S
C130 O110 1.257 . S
C130 O131 1.244 . S
O131 C130 1.244 . S
O132 C108 1.257 . S
O132 Zn111 2.019 . S
H133 C126 0.930 . S
H134 C113 0.930 . S
H135 C125 0.930 . S
Zn136 N140 2.020 . S
Zn136 O144 2.019 . S
Zn136 N146 2.119 . S
Zn136 O154 1.975 . S
C137 N138 1.334 . S
C137 N141 1.336 . S
N138 C137 1.334 . S
N138 C139 1.334 . S
C139 N138 1.334 . S
C139 N140 1.336 . S
N140 Zn136 2.020 . S
N140 C139 1.336 . S
N140 N141 1.354 . S
N141 C137 1.336 . S
N141 N140 1.354 . S
N141 Zn145 2.020 . S
C142 O143 1.244 . S
C142 O166 1.257 . S
O143 C142 1.244 . S
O144 Zn136 2.019 . S
O144 C164 1.257 . S
Zn145 N141 2.020 . S
Zn145 O152 1.975 . S
Zn145 N161 2.119 . S
Zn145 O166 2.019 . S
N146 Zn136 2.119 . S
N146 C148 1.334 . S
N146 C149 1.328 . S
C147 C148 1.391 . S
C147 N150 1.329 . S
C147 H168 0.930 . S
C148 N146 1.334 . S
C148 C147 1.391 . S
C148 H155 0.930 . S
C149 N146 1.328 . S
C149 C151 1.392 . S
C149 H156 0.930 . S
N150 C147 1.329 . S
N150 C151 1.331 . S
C151 C149 1.392 . S
C151 N150 1.331 . S
O152 Zn145 1.975 . S
O152 C153 1.252 . S
C153 O152 1.252 . S
C153 O154 1.252 . S
O154 Zn136 1.975 . S
O154 C153 1.252 . S
H155 C148 0.930 . S
H156 C149 0.930 . S
C157 C158 1.392 . S
C157 N161 1.328 . S
C157 H163 0.930 . S
C158 C157 1.392 . S
C158 N162 1.331 . S
C159 C160 1.391 . S
C159 N162 1.329 . S
C159 H169 0.930 . S
C160 C159 1.391 . S
C160 N161 1.334 . S
C160 H167 0.930 . S
N161 Zn145 2.119 . S
N161 C157 1.328 . S
N161 C160 1.334 . S
N162 C158 1.331 . S
N162 C159 1.329 . S
H163 C157 0.930 . S
C164 O144 1.257 . S
C164 O165 1.244 . S
O165 C164 1.244 . S
O166 C142 1.257 . S
O166 Zn145 2.019 . S
H167 C160 0.930 . S
H168 C147 0.930 . S
H169 C159 0.930 . S
Zn170 N174 2.020 . S
Zn170 O178 2.019 . S
Zn170 N180 2.119 . S
Zn170 O188 1.975 . S
C171 N172 1.334 . S
C171 N175 1.336 . S
N172 C171 1.334 . S
N172 C173 1.334 . S
C173 N172 1.334 . S
C173 N174 1.336 . S
N174 Zn170 2.020 . S
N174 C173 1.336 . S
N174 N175 1.354 . S
N175 C171 1.336 . S
N175 N174 1.354 . S
N175 Zn179 2.020 . S
C176 O177 1.244 . S
C176 O200 1.257 . S
O177 C176 1.244 . S
O178 Zn170 2.019 . S
O178 C198 1.257 . S
Zn179 N175 2.020 . S
Zn179 O186 1.975 . S
Zn179 N195 2.119 . S
Zn179 O200 2.019 . S
N180 Zn170 2.119 . S
N180 C182 1.334 . S
N180 C183 1.328 . S
C181 C182 1.391 . S
C181 N184 1.329 . S
C181 H202 0.930 . S
C182 N180 1.334 . S
C182 C181 1.391 . S
C182 H189 0.930 . S
C183 N180 1.328 . S
C183 C185 1.392 . S
C183 H190 0.930 . S
N184 C181 1.329 . S
N184 C185 1.331 . S
C185 C183 1.392 . S
C185 N184 1.331 . S
O186 Zn179 1.975 . S
O186 C187 1.252 . S
C187 O186 1.252 . S
C187 O188 1.252 . S
O188 Zn170 1.975 . S
O188 C187 1.252 . S
H189 C182 0.930 . S
H190 C183 0.930 . S
C191 C192 1.392 . S
C191 N195 1.328 . S
C191 H197 0.930 . S
C192 C191 1.392 . S
C192 N196 1.331 . S
C193 C194 1.391 . S
C193 N196 1.329 . S
C193 H203 0.930 . S
C194 C193 1.391 . S
C194 N195 1.334 . S
C194 H201 0.930 . S
N195 Zn179 2.119 . S
N195 C191 1.328 . S
N195 C194 1.334 . S
N196 C192 1.331 . S
N196 C193 1.329 . S
H197 C191 0.930 . S
C198 O178 1.257 . S
C198 O199 1.244 . S
O199 C198 1.244 . S
O200 C176 1.257 . S
O200 Zn179 2.019 . S
H201 C194 0.930 . S
H202 C181 0.930 . S
H203 C193 0.930 . S
Zn204 N208 2.020 . S
Zn204 O212 2.019 . S
Zn204 N214 2.119 . S
Zn204 O222 1.975 . S
C205 N206 1.334 . S
C205 N209 1.336 . S
N206 C205 1.334 . S
N206 C207 1.334 . S
C207 N206 1.334 . S
C207 N208 1.336 . S
N208 Zn204 2.020 . S
N208 C207 1.336 . S
N208 N209 1.354 . S
N209 C205 1.336 . S
N209 N208 1.354 . S
N209 Zn213 2.020 . S
C210 O211 1.244 . S
C210 O234 1.257 . S
O211 C210 1.244 . S
O212 Zn204 2.019 . S
O212 C232 1.257 . S
Zn213 N209 2.020 . S
Zn213 O220 1.975 . S
Zn213 N229 2.119 . S
Zn213 O234 2.019 . S
N214 Zn204 2.119 . S
N214 C216 1.334 . S
N214 C217 1.328 . S
C215 C216 1.391 . S
C215 N218 1.329 1_565 S
C215 H236 0.930 . S
C216 N214 1.334 . S
C216 C215 1.391 . S
C216 H223 0.930 . S
C217 N214 1.328 . S
C217 C219 1.392 . S
C217 H224 0.930 . S
N218 C215 1.329 1_545 S
N218 C219 1.331 1_545 S
C219 C217 1.392 . S
C219 N218 1.331 1_565 S
O220 Zn213 1.975 . S
O220 C221 1.252 . S
C221 O220 1.252 . S
C221 O222 1.252 . S
O222 Zn204 1.975 . S
O222 C221 1.252 . S
H223 C216 0.930 . S
H224 C217 0.930 . S
C225 C226 1.392 . S
C225 N229 1.328 . S
C225 H231 0.930 . S
C226 C225 1.392 . S
C226 N230 1.331 . S
C227 C228 1.391 . S
C227 N230 1.329 . S
C227 H237 0.930 . S
C228 C227 1.391 . S
C228 N229 1.334 . S
C228 H235 0.930 . S
N229 Zn213 2.119 . S
N229 C225 1.328 . S
N229 C228 1.334 . S
N230 C226 1.331 . S
N230 C227 1.329 . S
H231 C225 0.930 . S
C232 O212 1.257 . S
C232 O233 1.244 . S
O233 C232 1.244 . S
O234 C210 1.257 . S
O234 Zn213 2.019 . S
H235 C228 0.930 . S
H236 C215 0.930 . S
H237 C227 0.930 . S
Zn238 N242 2.020 . S
Zn238 O246 2.019 . S
Zn238 N248 2.119 . S
Zn238 O256 1.975 . S
C239 N240 1.334 . S
C239 N243 1.336 . S
N240 C239 1.334 . S
N240 C241 1.334 . S
C241 N240 1.334 . S
C241 N242 1.336 . S
N242 Zn238 2.020 . S
N242 C241 1.336 . S
N242 N243 1.354 . S
N243 C239 1.336 . S
N243 N242 1.354 . S
N243 Zn247 2.020 . S
C244 O245 1.244 . S
C244 O268 1.257 . S
O245 C244 1.244 . S
O246 Zn238 2.019 . S
O246 C266 1.257 . S
Zn247 N243 2.020 . S
Zn247 O254 1.975 . S
Zn247 N263 2.119 . S
Zn247 O268 2.019 . S
N248 Zn238 2.119 . S
N248 C250 1.334 . S
N248 C251 1.328 . S
C249 C250 1.391 . S
C249 N252 1.329 1_545 S
C249 H270 0.930 . S
C250 N248 1.334 . S
C250 C249 1.391 . S
C250 H257 0.930 . S
C251 N248 1.328 . S
C251 C253 1.392 . S
C251 H258 0.930 . S
N252 C249 1.329 1_565 S
N252 C253 1.331 1_565 S
C253 C251 1.392 . S
C253 N252 1.331 1_545 S
O254 Zn247 1.975 . S
O254 C255 1.252 . S
C255 O254 1.252 . S
C255 O256 1.252 . S
O256 Zn238 1.975 . S
O256 C255 1.252 . S
H257 C250 0.930 . S
H258 C251 0.930 . S
C259 C260 1.392 . S
C259 N263 1.328 . S
C259 H265 0.930 . S
C260 C259 1.392 . S
C260 N264 1.331 . S
C261 C262 1.391 . S
C261 N264 1.329 . S
C261 H271 0.930 . S
C262 C261 1.391 . S
C262 N263 1.334 . S
C262 H269 0.930 . S
N263 Zn247 2.119 . S
N263 C259 1.328 . S
N263 C262 1.334 . S
N264 C260 1.331 . S
N264 C261 1.329 . S
H265 C259 0.930 . S
C266 O246 1.257 . S
C266 O267 1.244 . S
O267 C266 1.244 . S
O268 C244 1.257 . S
O268 Zn247 2.019 . S
H269 C262 0.930 . S
H270 C249 0.930 . S
H271 C261 0.930 . S
Zn272 N276 2.020 . S
Zn272 O280 2.019 . S
Zn272 N282 2.119 . S
Zn272 O290 1.975 . S
C273 N274 1.334 . S
C273 N277 1.336 . S
N274 C273 1.334 . S
N274 C275 1.334 . S
C275 N274 1.334 . S
C275 N276 1.336 . S
N276 Zn272 2.020 . S
N276 C275 1.336 . S
N276 N277 1.354 . S
N277 C273 1.336 . S
N277 N276 1.354 . S
N277 Zn281 2.020 . S
C278 O279 1.244 . S
C278 O302 1.257 . S
O279 C278 1.244 . S
O280 Zn272 2.019 . S
O280 C300 1.257 . S
Zn281 N277 2.020 . S
Zn281 O288 1.975 . S
Zn281 N297 2.119 . S
Zn281 O302 2.019 . S
N282 Zn272 2.119 . S
N282 C284 1.334 . S
N282 C285 1.328 . S
C283 C284 1.391 . S
C283 N286 1.329 . S
C283 H304 0.930 . S
C284 N282 1.334 . S
C284 C283 1.391 . S
C284 H291 0.930 . S
C285 N282 1.328 . S
C285 C287 1.392 . S
C285 H292 0.930 . S
N286 C283 1.329 . S
N286 C287 1.331 . S
C287 C285 1.392 . S
C287 N286 1.331 . S
O288 Zn281 1.975 . S
O288 C289 1.252 . S
C289 O288 1.252 . S
C289 O290 1.252 . S
O290 Zn272 1.975 . S
O290 C289 1.252 . S
H291 C284 0.930 . S
H292 C285 0.930 . S
C293 C294 1.392 . S
C293 N297 1.328 . S
C293 H299 0.930 . S
C294 C293 1.392 . S
C294 N298 1.331 . S
C295 C296 1.391 . S
C295 N298 1.329 . S
C295 H305 0.930 . S
C296 C295 1.391 . S
C296 N297 1.334 . S
C296 H303 0.930 . S
N297 Zn281 2.119 . S
N297 C293 1.328 . S
N297 C296 1.334 . S
N298 C294 1.331 . S
N298 C295 1.329 . S
H299 C293 0.930 . S
C300 O280 1.257 . S
C300 O301 1.244 . S
O301 C300 1.244 . S
O302 C278 1.257 . S
O302 Zn281 2.019 . S
H303 C296 0.930 . S
H304 C283 0.930 . S
H305 C295 0.930 . S
Zn306 N310 2.020 . S
Zn306 O314 2.019 . S
Zn306 N316 2.119 . S
Zn306 O324 1.975 . S
C307 N308 1.334 . S
C307 N311 1.336 . S
N308 C307 1.334 . S
N308 C309 1.334 . S
C309 N308 1.334 . S
C309 N310 1.336 . S
N310 Zn306 2.020 . S
N310 C309 1.336 . S
N310 N311 1.354 . S
N311 C307 1.336 . S
N311 N310 1.354 . S
N311 Zn315 2.020 . S
C312 O313 1.244 . S
C312 O336 1.257 . S
O313 C312 1.244 . S
O314 Zn306 2.019 . S
O314 C334 1.257 . S
Zn315 N311 2.020 . S
Zn315 O322 1.975 . S
Zn315 N331 2.119 . S
Zn315 O336 2.019 . S
N316 Zn306 2.119 . S
N316 C318 1.334 . S
N316 C319 1.328 . S
C317 C318 1.391 . S
C317 N320 1.329 . S
C317 H338 0.930 . S
C318 N316 1.334 . S
C318 C317 1.391 . S
C318 H325 0.930 . S
C319 N316 1.328 . S
C319 C321 1.392 . S
C319 H326 0.930 . S
N320 C317 1.329 . S
N320 C321 1.331 . S
C321 C319 1.392 . S
C321 N320 1.331 . S
O322 Zn315 1.975 . S
O322 C323 1.252 . S
C323 O322 1.252 . S
C323 O324 1.252 . S
O324 Zn306 1.975 . S
O324 C323 1.252 . S
H325 C318 0.930 . S
H326 C319 0.930 . S
C327 C328 1.392 . S
C327 N331 1.328 . S
C327 H333 0.930 . S
C328 C327 1.392 . S
C328 N332 1.331 . S
C329 C330 1.391 . S
C329 N332 1.329 . S
C329 H339 0.930 . S
C330 C329 1.391 . S
C330 N331 1.334 . S
C330 H337 0.930 . S
N331 Zn315 2.119 . S
N331 C327 1.328 . S
N331 C330 1.334 . S
N332 C328 1.331 . S
N332 C329 1.329 . S
H333 C327 0.930 . S
C334 O314 1.257 . S
C334 O335 1.244 . S
O335 C334 1.244 . S
O336 C312 1.257 . S
O336 Zn315 2.019 . S
H337 C330 0.930 . S
H338 C317 0.930 . S
H339 C329 0.930 . S
Zn340 N344 2.020 . S
Zn340 O348 2.019 . S
Zn340 N350 2.119 . S
Zn340 O358 1.975 . S
C341 N342 1.334 . S
C341 N345 1.336 . S
N342 C341 1.334 . S
N342 C343 1.334 . S
C343 N342 1.334 . S
C343 N344 1.336 . S
N344 Zn340 2.020 . S
N344 C343 1.336 . S
N344 N345 1.354 . S
N345 C341 1.336 . S
N345 N344 1.354 . S
N345 Zn349 2.020 . S
C346 O347 1.244 . S
C346 O370 1.257 . S
O347 C346 1.244 . S
O348 Zn340 2.019 . S
O348 C368 1.257 . S
Zn349 N345 2.020 . S
Zn349 O356 1.975 . S
Zn349 N365 2.119 . S
Zn349 O370 2.019 . S
N350 Zn340 2.119 . S
N350 C352 1.334 . S
N350 C353 1.328 . S
C351 C352 1.391 . S
C351 N354 1.329 . S
C351 H372 0.930 . S
C352 N350 1.334 . S
C352 C351 1.391 . S
C352 H359 0.930 . S
C353 N350 1.328 . S
C353 C355 1.392 . S
C353 H360 0.930 . S
N354 C351 1.329 . S
N354 C355 1.331 . S
C355 C353 1.392 . S
C355 N354 1.331 . S
O356 Zn349 1.975 . S
O356 C357 1.252 . S
C357 O356 1.252 . S
C357 O358 1.252 . S
O358 Zn340 1.975 . S
O358 C357 1.252 . S
H359 C352 0.930 . S
H360 C353 0.930 . S
C361 C362 1.392 . S
C361 N365 1.328 . S
C361 H367 0.930 . S
C362 C361 1.392 . S
C362 N366 1.331 . S
C363 C364 1.391 . S
C363 N366 1.329 . S
C363 H373 0.930 . S
C364 C363 1.391 . S
C364 N365 1.334 . S
C364 H371 0.930 . S
N365 Zn349 2.119 . S
N365 C361 1.328 . S
N365 C364 1.334 . S
N366 C362 1.331 . S
N366 C363 1.329 . S
H367 C361 0.930 . S
C368 O348 1.257 . S
C368 O369 1.244 . S
O369 C368 1.244 . S
O370 C346 1.257 . S
O370 Zn349 2.019 . S
H371 C364 0.930 . S
H372 C351 0.930 . S
H373 C363 0.930 . S
Zn374 N378 2.020 . S
Zn374 O382 2.019 . S
Zn374 N384 2.119 . S
Zn374 O392 1.975 . S
C375 N376 1.334 . S
C375 N379 1.336 . S
N376 C375 1.334 . S
N376 C377 1.334 . S
C377 N376 1.334 . S
C377 N378 1.336 . S
N378 Zn374 2.020 . S
N378 C377 1.336 . S
N378 N379 1.354 . S
N379 C375 1.336 . S
N379 N378 1.354 . S
N379 Zn383 2.020 . S
C380 O381 1.244 . S
C380 O404 1.257 . S
O381 C380 1.244 . S
O382 Zn374 2.019 . S
O382 C402 1.257 . S
Zn383 N379 2.020 . S
Zn383 O390 1.975 . S
Zn383 N399 2.119 . S
Zn383 O404 2.019 . S
N384 Zn374 2.119 . S
N384 C386 1.334 . S
N384 C387 1.328 . S
C385 C386 1.391 . S
C385 N388 1.329 . S
C385 H406 0.930 . S
C386 N384 1.334 . S
C386 C385 1.391 . S
C386 H393 0.930 . S
C387 N384 1.328 . S
C387 C389 1.392 . S
C387 H394 0.930 . S
N388 C385 1.329 . S
N388 C389 1.331 . S
C389 C387 1.392 . S
C389 N388 1.331 . S
O390 Zn383 1.975 . S
O390 C391 1.252 . S
C391 O390 1.252 . S
C391 O392 1.252 . S
O392 Zn374 1.975 . S
O392 C391 1.252 . S
H393 C386 0.930 . S
H394 C387 0.930 . S
C395 C396 1.392 . S
C395 N399 1.328 . S
C395 H401 0.930 . S
C396 C395 1.392 . S
C396 N400 1.331 . S
C397 C398 1.391 . S
C397 N400 1.329 . S
C397 H407 0.930 . S
C398 C397 1.391 . S
C398 N399 1.334 . S
C398 H405 0.930 . S
N399 Zn383 2.119 . S
N399 C395 1.328 . S
N399 C398 1.334 . S
N400 C396 1.331 . S
N400 C397 1.329 . S
H401 C395 0.930 . S
C402 O382 1.257 . S
C402 O403 1.244 . S
O403 C402 1.244 . S
O404 C380 1.257 . S
O404 Zn383 2.019 . S
H405 C398 0.930 . S
H406 C385 0.930 . S
H407 C397 0.930 . S
Zn408 N412 2.020 . S
Zn408 O416 2.019 . S
Zn408 N418 2.119 . S
Zn408 O426 1.975 . S
C409 N410 1.334 1_556 S
C409 N413 1.336 . S
N410 C409 1.334 1_554 S
N410 C411 1.334 . S
C411 N410 1.334 . S
C411 N412 1.336 . S
N412 Zn408 2.020 . S
N412 C411 1.336 . S
N412 N413 1.354 1_554 S
N413 C409 1.336 . S
N413 N412 1.354 1_556 S
N413 Zn417 2.020 . S
C414 O415 1.244 . S
C414 O438 1.257 . S
O415 C414 1.244 . S
O416 Zn408 2.019 . S
O416 C436 1.257 . S
Zn417 N413 2.020 . S
Zn417 O424 1.975 . S
Zn417 N433 2.119 . S
Zn417 O438 2.019 . S
N418 Zn408 2.119 . S
N418 C420 1.334 1_554 S
N418 C421 1.328 . S
C419 C420 1.391 . S
C419 N422 1.329 1_556 S
C419 H440 0.930 . S
C420 N418 1.334 1_556 S
C420 C419 1.391 . S
C420 H427 0.930 . S
C421 N418 1.328 . S
C421 C423 1.392 . S
C421 H428 0.930 . S
N422 C419 1.329 1_554 S
N422 C423 1.331 . S
C423 C421 1.392 . S
C423 N422 1.331 . S
O424 Zn417 1.975 . S
O424 C425 1.252 . S
C425 O424 1.252 . S
C425 O426 1.252 1_556 S
O426 Zn408 1.975 . S
O426 C425 1.252 1_554 S
H427 C420 0.930 . S
H428 C421 0.930 . S
C429 C430 1.392 . S
C429 N433 1.328 . S
C429 H435 0.930 . S
C430 C429 1.392 . S
C430 N434 1.331 . S
C431 C432 1.391 . S
C431 N434 1.329 1_554 S
C431 H441 0.930 . S
C432 C431 1.391 . S
C432 N433 1.334 1_554 S
C432 H439 0.930 . S
N433 Zn417 2.119 . S
N433 C429 1.328 . S
N433 C432 1.334 1_556 S
N434 C430 1.331 . S
N434 C431 1.329 1_556 S
H435 C429 0.930 . S
C436 O416 1.257 . S
C436 O437 1.244 . S
O437 C436 1.244 . S
O438 C414 1.257 . S
O438 Zn417 2.019 . S
H439 C432 0.930 . S
H440 C419 0.930 . S
H441 C431 0.930 . S
Zn442 N446 2.020 . S
Zn442 O450 2.019 . S
Zn442 N452 2.119 . S
Zn442 O460 1.975 . S
C443 N444 1.334 . S
C443 N447 1.336 . S
N444 C443 1.334 . S
N444 C445 1.334 1_554 S
C445 N444 1.334 1_556 S
C445 N446 1.336 . S
N446 Zn442 2.020 . S
N446 C445 1.336 . S
N446 N447 1.354 1_556 S
N447 C443 1.336 . S
N447 N446 1.354 1_554 S
N447 Zn451 2.020 . S
C448 O449 1.244 . S
C448 O472 1.257 . S
O449 C448 1.244 . S
O450 Zn442 2.019 . S
O450 C470 1.257 . S
Zn451 N447 2.020 . S
Zn451 O458 1.975 . S
Zn451 N467 2.119 . S
Zn451 O472 2.019 . S
N452 Zn442 2.119 . S
N452 C454 1.334 1_556 S
N452 C455 1.328 . S
C453 C454 1.391 . S
C453 N456 1.329 1_554 S
C453 H474 0.930 . S
C454 N452 1.334 1_554 S
C454 C453 1.391 . S
C454 H461 0.930 . S
C455 N452 1.328 . S
C455 C457 1.392 . S
C455 H462 0.930 . S
N456 C453 1.329 1_556 S
N456 C457 1.331 . S
C457 C455 1.392 . S
C457 N456 1.331 . S
O458 Zn451 1.975 . S
O458 C459 1.252 1_554 S
C459 O458 1.252 1_556 S
C459 O460 1.252 . S
O460 Zn442 1.975 . S
O460 C459 1.252 . S
H461 C454 0.930 . S
H462 C455 0.930 . S
C463 C464 1.392 . S
C463 N467 1.328 . S
C463 H469 0.930 . S
C464 C463 1.392 . S
C464 N468 1.331 . S
C465 C466 1.391 . S
C465 N468 1.329 1_556 S
C465 H475 0.930 . S
C466 C465 1.391 . S
C466 N467 1.334 1_556 S
C466 H473 0.930 . S
N467 Zn451 2.119 . S
N467 C463 1.328 . S
N467 C466 1.334 1_554 S
N468 C464 1.331 . S
N468 C465 1.329 1_554 S
H469 C463 0.930 . S
C470 O450 1.257 . S
C470 O471 1.244 . S
O471 C470 1.244 . S
O472 C448 1.257 . S
O472 Zn451 2.019 . S
H473 C466 0.930 . S
H474 C453 0.930 . S
H475 C465 0.930 . S
Zn476 N480 2.020 . S
Zn476 O484 2.019 . S
Zn476 N486 2.119 . S
Zn476 O494 1.975 . S
C477 N478 1.334 . S
C477 N481 1.336 . S
N478 C477 1.334 . S
N478 C479 1.334 . S
C479 N478 1.334 . S
C479 N480 1.336 . S
N480 Zn476 2.020 . S
N480 C479 1.336 . S
N480 N481 1.354 . S
N481 C477 1.336 . S
N481 N480 1.354 . S
N481 Zn485 2.020 . S
C482 O483 1.244 . S
C482 O506 1.257 . S
O483 C482 1.244 . S
O484 Zn476 2.019 . S
O484 C504 1.257 . S
Zn485 N481 2.020 . S
Zn485 O492 1.975 . S
Zn485 N501 2.119 . S
Zn485 O506 2.019 . S
N486 Zn476 2.119 . S
N486 C488 1.334 . S
N486 C489 1.328 . S
C487 C488 1.391 . S
C487 N490 1.329 1_565 S
C487 H508 0.930 . S
C488 N486 1.334 . S
C488 C487 1.391 . S
C488 H495 0.930 . S
C489 N486 1.328 . S
C489 C491 1.392 . S
C489 H496 0.930 . S
N490 C487 1.329 1_545 S
N490 C491 1.331 1_545 S
C491 C489 1.392 . S
C491 N490 1.331 1_565 S
O492 Zn485 1.975 . S
O492 C493 1.252 . S
C493 O492 1.252 . S
C493 O494 1.252 . S
O494 Zn476 1.975 . S
O494 C493 1.252 . S
H495 C488 0.930 . S
H496 C489 0.930 . S
C497 C498 1.392 . S
C497 N501 1.328 . S
C497 H503 0.930 . S
C498 C497 1.392 . S
C498 N502 1.331 . S
C499 C500 1.391 . S
C499 N502 1.329 . S
C499 H509 0.930 . S
C500 C499 1.391 . S
C500 N501 1.334 . S
C500 H507 0.930 . S
N501 Zn485 2.119 . S
N501 C497 1.328 . S
N501 C500 1.334 . S
N502 C498 1.331 . S
N502 C499 1.329 . S
H503 C497 0.930 . S
C504 O484 1.257 . S
C504 O505 1.244 . S
O505 C504 1.244 . S
O506 C482 1.257 . S
O506 Zn485 2.019 . S
H507 C500 0.930 . S
H508 C487 0.930 . S
H509 C499 0.930 . S
Zn510 N514 2.020 . S
Zn510 O518 2.019 . S
Zn510 N520 2.119 . S
Zn510 O528 1.975 . S
C511 N512 1.334 . S
C511 N515 1.336 . S
N512 C511 1.334 . S
N512 C513 1.334 . S
C513 N512 1.334 . S
C513 N514 1.336 . S
N514 Zn510 2.020 . S
N514 C513 1.336 . S
N514 N515 1.354 . S
N515 C511 1.336 . S
N515 N514 1.354 . S
N515 Zn519 2.020 . S
C516 O517 1.244 . S
C516 O540 1.257 . S
O517 C516 1.244 . S
O518 Zn510 2.019 . S
O518 C538 1.257 . S
Zn519 N515 2.020 . S
Zn519 O526 1.975 . S
Zn519 N535 2.119 . S
Zn519 O540 2.019 . S
N520 Zn510 2.119 . S
N520 C522 1.334 . S
N520 C523 1.328 . S
C521 C522 1.391 . S
C521 N524 1.329 . S
C521 H542 0.930 . S
C522 N520 1.334 . S
C522 C521 1.391 . S
C522 H529 0.930 . S
C523 N520 1.328 . S
C523 C525 1.392 . S
C523 H530 0.930 . S
N524 C521 1.329 . S
N524 C525 1.331 . S
C525 C523 1.392 . S
C525 N524 1.331 . S
O526 Zn519 1.975 . S
O526 C527 1.252 . S
C527 O526 1.252 . S
C527 O528 1.252 . S
O528 Zn510 1.975 . S
O528 C527 1.252 . S
H529 C522 0.930 . S
H530 C523 0.930 . S
C531 C532 1.392 . S
C531 N535 1.328 . S
C531 H537 0.930 . S
C532 C531 1.392 . S
C532 N536 1.331 1_545 S
C533 C534 1.391 . S
C533 N536 1.329 1_545 S
C533 H543 0.930 . S
C534 C533 1.391 . S
C534 N535 1.334 . S
C534 H541 0.930 . S
N535 Zn519 2.119 . S
N535 C531 1.328 . S
N535 C534 1.334 . S
N536 C532 1.331 1_565 S
N536 C533 1.329 1_565 S
H537 C531 0.930 . S
C538 O518 1.257 . S
C538 O539 1.244 . S
O539 C538 1.244 . S
O540 C516 1.257 . S
O540 Zn519 2.019 . S
H541 C534 0.930 . S
H542 C521 0.930 . S
H543 C533 0.930 . S
H544 C552 0.950 . S
H545 C557 0.950 . S
H546 C554 0.950 . S
H547 C556 0.950 . S
H548 C558 0.950 . S
H549 C560 0.950 . S
H550 C562 0.950 . S
H551 C563 0.950 . S
C552 H544 0.950 . S
C552 C553 1.386 . S
C552 C554 1.391 . S
C553 C552 1.386 . S
C553 C557 1.393 . S
C554 H546 0.950 . S
C554 C552 1.391 . S
C554 C555 1.400 . S
C555 C554 1.400 . S
C555 C556 1.398 . S
C555 C561 1.491 . S
C556 H547 0.950 . S
C556 C555 1.398 . S
C556 C557 1.391 . S
C557 H545 0.950 . S
C557 C553 1.393 . S
C557 C556 1.391 . S
C558 H548 0.950 . S
C558 C559 1.386 . S
C558 C560 1.391 . S
C559 C558 1.386 . S
C559 C563 1.393 . S
C560 H549 0.950 . S
C560 C558 1.391 . S
C560 C561 1.400 . S
C561 C555 1.491 . S
C561 C560 1.400 . S
C561 C562 1.398 . S
C562 H550 0.950 . S
C562 C561 1.398 . S
C562 C563 1.391 . S
C563 H551 0.950 . S
C563 C559 1.393 . S
C563 C562 1.391 . S
H564 C572 0.950 . S
H565 C577 0.950 . S
H566 C574 0.950 . S
H567 C576 0.950 . S
H568 C578 0.950 . S
H569 C580 0.950 . S
H570 C582 0.950 . S
H571 C583 0.950 . S
C572 H564 0.950 . S
C572 C573 1.386 . S
C572 C574 1.391 . S
C573 C572 1.386 . S
C573 C577 1.393 . S
C574 H566 0.950 . S
C574 C572 1.391 . S
C574 C575 1.400 . S
C575 C574 1.400 . S
C575 C576 1.398 . S
C575 C581 1.491 . S
C576 H567 0.950 . S
C576 C575 1.398 . S
C576 C577 1.391 . S
C577 H565 0.950 . S
C577 C573 1.393 . S
C577 C576 1.391 . S
C578 H568 0.950 . S
C578 C579 1.386 . S
C578 C580 1.391 . S
C579 C578 1.386 . S
C579 C583 1.393 . S
C580 H569 0.950 . S
C580 C578 1.391 . S
C580 C581 1.400 . S
C581 C575 1.491 . S
C581 C580 1.400 . S
C581 C582 1.398 . S
C582 H570 0.950 . S
C582 C581 1.398 . S
C582 C583 1.391 . S
C583 H571 0.950 . S
C583 C579 1.393 . S
C583 C582 1.391 . S
H584 C592 0.950 . S
H585 C597 0.950 . S
H586 C594 0.950 . S
H587 C596 0.950 . S
H588 C598 0.950 . S
H589 C600 0.950 . S
H590 C602 0.950 . S
H591 C603 0.950 . S
C592 H584 0.950 . S
C592 C593 1.386 . S
C592 C594 1.391 . S
C593 C592 1.386 . S
C593 C597 1.393 . S
C594 H586 0.950 . S
C594 C592 1.391 . S
C594 C595 1.400 . S
C595 C594 1.400 . S
C595 C596 1.398 . S
C595 C601 1.491 . S
C596 H587 0.950 . S
C596 C595 1.398 . S
C596 C597 1.391 . S
C597 H585 0.950 . S
C597 C593 1.393 . S
C597 C596 1.391 . S
C598 H588 0.950 . S
C598 C599 1.386 . S
C598 C600 1.391 . S
C599 C598 1.386 . S
C599 C603 1.393 . S
C600 H589 0.950 . S
C600 C598 1.391 . S
C600 C601 1.400 . S
C601 C595 1.491 . S
C601 C600 1.400 . S
C601 C602 1.398 . S
C602 H590 0.950 . S
C602 C601 1.398 . S
C602 C603 1.391 . S
C603 H591 0.950 . S
C603 C599 1.393 . S
C603 C602 1.391 . S
H604 C612 0.950 . S
H605 C617 0.950 . S
H606 C614 0.950 . S
H607 C616 0.950 . S
H608 C618 0.950 . S
H609 C620 0.950 . S
H610 C622 0.950 . S
H611 C623 0.950 . S
C612 H604 0.950 . S
C612 C613 1.386 . S
C612 C614 1.391 . S
C613 C612 1.386 . S
C613 C617 1.393 . S
C614 H606 0.950 . S
C614 C612 1.391 . S
C614 C615 1.400 . S
C615 C614 1.400 . S
C615 C616 1.398 . S
C615 C621 1.491 . S
C616 H607 0.950 . S
C616 C615 1.398 . S
C616 C617 1.391 . S
C617 H605 0.950 . S
C617 C613 1.393 . S
C617 C616 1.391 . S
C618 H608 0.950 . S
C618 C619 1.386 . S
C618 C620 1.391 . S
C619 C618 1.386 . S
C619 C623 1.393 . S
C620 H609 0.950 . S
C620 C618 1.391 . S
C620 C621 1.400 . S
C621 C615 1.491 . S
C621 C620 1.400 . S
C621 C622 1.398 . S
C622 H610 0.950 . S
C622 C621 1.398 . S
C622 C623 1.391 . S
C623 H611 0.950 . S
C623 C619 1.393 . S
C623 C622 1.391 . S
H624 C632 0.950 . S
H625 C637 0.950 . S
H626 C634 0.950 . S
H627 C636 0.950 . S
H628 C638 0.950 . S
H629 C640 0.950 . S
H630 C642 0.950 . S
H631 C643 0.950 . S
C632 H624 0.950 . S
C632 C633 1.386 . S
C632 C634 1.391 . S
C633 C632 1.386 . S
C633 C637 1.393 . S
C634 H626 0.950 . S
C634 C632 1.391 . S
C634 C635 1.400 . S
C635 C634 1.400 . S
C635 C636 1.398 . S
C635 C641 1.491 . S
C636 H627 0.950 . S
C636 C635 1.398 . S
C636 C637 1.391 . S
C637 H625 0.950 . S
C637 C633 1.393 . S
C637 C636 1.391 . S
C638 H628 0.950 . S
C638 C639 1.386 . S
C638 C640 1.391 . S
C639 C638 1.386 . S
C639 C643 1.393 . S
C640 H629 0.950 . S
C640 C638 1.391 . S
C640 C641 1.400 . S
C641 C635 1.491 . S
C641 C640 1.400 . S
C641 C642 1.398 . S
C642 H630 0.950 . S
C642 C641 1.398 . S
C642 C643 1.391 . S
C643 H631 0.950 . S
C643 C639 1.393 . S
C643 C642 1.391 . S
H644 C652 0.950 . S
H645 C657 0.950 . S
H646 C654 0.950 . S
H647 C656 0.950 . S
H648 C658 0.950 . S
H649 C660 0.950 . S
H650 C662 0.950 . S
H651 C663 0.950 . S
C652 H644 0.950 . S
C652 C653 1.386 . S
C652 C654 1.391 . S
C653 C652 1.386 . S
C653 C657 1.393 . S
C654 H646 0.950 . S
C654 C652 1.391 . S
C654 C655 1.400 . S
C655 C654 1.400 . S
C655 C656 1.398 . S
C655 C661 1.491 . S
C656 H647 0.950 . S
C656 C655 1.398 . S
C656 C657 1.391 . S
C657 H645 0.950 . S
C657 C653 1.393 . S
C657 C656 1.391 . S
C658 H648 0.950 . S
C658 C659 1.386 . S
C658 C660 1.391 . S
C659 C658 1.386 . S
C659 C663 1.393 . S
C660 H649 0.950 . S
C660 C658 1.391 . S
C660 C661 1.400 . S
C661 C655 1.491 . S
C661 C660 1.400 . S
C661 C662 1.398 . S
C662 H650 0.950 . S
C662 C661 1.398 . S
C662 C663 1.391 . S
C663 H651 0.950 . S
C663 C659 1.393 . S
C663 C662 1.391 . S
H664 C672 0.950 . S
H665 C677 0.950 . S
H666 C674 0.950 1_554 S
H667 C676 0.950 . S
H668 C678 0.950 . S
H669 C680 0.950 1_556 S
H670 C682 0.950 1_565 S
H671 C683 0.950 . S
C672 H664 0.950 . S
C672 C673 1.386 . S
C672 C674 1.391 . S
C673 C672 1.386 . S
C673 C677 1.393 1_565 S
C674 H666 0.950 1_556 S
C674 C672 1.391 . S
C674 C675 1.400 1_565 S
C675 C674 1.400 1_545 S
C675 C676 1.398 . S
C675 C681 1.491 1_556 S
C676 H667 0.950 . S
C676 C675 1.398 . S
C676 C677 1.391 . S
C677 H665 0.950 . S
C677 C673 1.393 1_545 S
C677 C676 1.391 . S
C678 H668 0.950 . S
C678 C679 1.386 . S
C678 C680 1.391 . S
C679 C678 1.386 . S
C679 C683 1.393 . S
C680 H669 0.950 1_554 S
C680 C678 1.391 . S
C680 C681 1.400 . S
C681 C675 1.491 1_554 S
C681 C680 1.400 . S
C681 C682 1.398 . S
C682 H670 0.950 1_545 S
C682 C681 1.398 . S
C682 C683 1.391 . S
C683 H671 0.950 . S
C683 C679 1.393 . S
C683 C682 1.391 . S
H684 C692 0.950 . S
H685 C697 0.950 . S
H686 C694 0.950 . S
H687 C696 0.950 1_545 S
H688 C698 0.950 . S
H689 C700 0.950 . S
H690 C702 0.950 . S
H691 C703 0.950 . S
C692 H684 0.950 . S
C692 C693 1.386 . S
C692 C694 1.391 . S
C693 C692 1.386 . S
C693 C697 1.393 . S
C694 H686 0.950 . S
C694 C692 1.391 . S
C694 C695 1.400 . S
C695 C694 1.400 . S
C695 C696 1.398 . S
C695 C701 1.491 1_554 S
C696 H687 0.950 1_565 S
C696 C695 1.398 . S
C696 C697 1.391 . S
C697 H685 0.950 . S
C697 C693 1.393 . S
C697 C696 1.391 . S
C698 H688 0.950 . S
C698 C699 1.386 . S
C698 C700 1.391 . S
C699 C698 1.386 . S
C699 C703 1.393 1_545 S
C700 H689 0.950 . S
C700 C698 1.391 . S
C700 C701 1.400 1_545 S
C701 C695 1.491 1_556 S
C701 C700 1.400 1_565 S
C701 C702 1.398 . S
C702 H690 0.950 . S
C702 C701 1.398 . S
C702 C703 1.391 . S
C703 H691 0.950 . S
C703 C699 1.393 1_565 S
C703 C702 1.391 . S
H704 C712 0.950 . S
H705 C717 0.950 . S
H706 C714 0.950 . S
H707 C716 0.950 . S
H708 C718 0.950 . S
H709 C720 0.950 . S
H710 C722 0.950 . S
H711 C723 0.950 . S
C712 H704 0.950 . S
C712 C713 1.386 . S
C712 C714 1.391 . S
C713 C712 1.386 . S
C713 C717 1.393 . S
C714 H706 0.950 . S
C714 C712 1.391 . S
C714 C715 1.352 1_655 S
C715 C714 1.352 1_455 S
C715 C716 1.402 . S
C715 C721 1.537 . S
C716 H707 0.950 . S
C716 C715 1.402 . S
C716 C717 1.391 1_455 S
C717 H705 0.950 . S
C717 C713 1.393 . S
C717 C716 1.391 1_655 S
C718 H708 0.950 . S
C718 C719 1.386 . S
C718 C720 1.391 . S
C719 C718 1.386 . S
C719 C723 1.393 . S
C720 H709 0.950 . S
C720 C718 1.391 . S
C720 C721 1.400 . S
C721 C715 1.537 . S
C721 C720 1.400 . S
C721 C722 1.398 . S
C722 H710 0.950 . S
C722 C721 1.398 . S
C722 C723 1.391 . S
C723 H711 0.950 . S
C723 C719 1.393 . S
C723 C722 1.391 . S
H724 C732 0.950 . S
H725 C737 0.950 . S
H726 C734 0.950 . S
H727 C736 0.950 . S
H728 C738 0.950 . S
H729 C740 0.950 1_455 S
H730 C742 0.950 . S
H731 C743 0.950 . S
C732 H724 0.950 . S
C732 C733 1.386 . S
C732 C734 1.391 1_455 S
C733 C732 1.386 . S
C733 C737 1.393 . S
C734 H726 0.950 . S
C734 C732 1.391 1_655 S
C734 C735 1.417 . S
C735 C734 1.417 . S
C735 C736 1.343 1_655 S
C735 C741 1.530 . S
C736 H727 0.950 . S
C736 C735 1.343 1_455 S
C736 C737 1.391 . S
C737 H725 0.950 . S
C737 C733 1.393 . S
C737 C736 1.391 . S
C738 H728 0.950 . S
C738 C739 1.386 . S
C738 C740 1.391 . S
C739 C738 1.386 . S
C739 C743 1.393 . S
C740 H729 0.950 1_655 S
C740 C738 1.391 . S
C740 C741 1.400 . S
C741 C735 1.530 . S
C741 C740 1.400 . S
C741 C742 1.398 . S
C742 H730 0.950 . S
C742 C741 1.398 . S
C742 C743 1.391 . S
C743 H731 0.950 . S
C743 C739 1.393 . S
C743 C742 1.391 . S
H744 C752 0.950 . S
H745 C757 0.950 . S
H746 C754 0.950 . S
H747 C756 0.955 . S
H748 C758 0.950 . S
H749 C760 0.950 . S
H750 C762 0.950 1_554 S
H751 C763 0.950 . S
C752 H744 0.950 . S
C752 C753 1.386 . S
C752 C754 1.391 . S
C753 C752 1.386 . S
C753 C757 1.393 . S
C754 H746 0.950 . S
C754 C752 1.391 . S
C754 C755 1.400 . S
C755 C754 1.400 . S
C755 C756 1.398 . S
C755 C761 1.491 1_554 S
C756 H747 0.955 . S
C756 C755 1.398 . S
C756 C757 1.391 . S
C757 H745 0.950 . S
C757 C753 1.393 . S
C757 C756 1.391 . S
C758 H748 0.950 . S
C758 C759 1.386 . S
C758 C760 1.391 . S
C759 C758 1.386 . S
C759 C763 1.393 . S
C760 H749 0.950 . S
C760 C758 1.391 . S
C760 C761 1.400 . S
C761 C755 1.491 1_556 S
C761 C760 1.400 . S
C761 C762 1.398 . S
C762 H750 0.950 1_556 S
C762 C761 1.398 . S
C762 C763 1.391 . S
C763 H751 0.950 . S
C763 C759 1.393 . S
C763 C762 1.391 . S
H764 C772 0.950 . S
H765 C777 0.950 . S
H766 C774 0.950 . S
H767 C776 0.950 . S
H768 C778 0.950 . S
H769 C780 0.950 . S
H770 C782 0.950 1_556 S
H771 C783 0.950 . S
C772 H764 0.950 . S
C772 C773 1.386 . S
C772 C774 1.391 . S
C773 C772 1.386 . S
C773 C777 1.393 . S
C774 H766 0.950 . S
C774 C772 1.391 . S
C774 C775 1.400 . S
C775 C774 1.400 . S
C775 C776 1.398 1_556 S
C775 C781 1.491 1_556 S
C776 H767 0.950 . S
C776 C775 1.398 1_554 S
C776 C777 1.391 1_554 S
C777 H765 0.950 . S
C777 C773 1.393 . S
C777 C776 1.391 1_556 S
C778 H768 0.950 . S
C778 C779 1.386 . S
C778 C780 1.391 . S
C779 C778 1.386 . S
C779 C783 1.393 . S
C780 H769 0.950 . S
C780 C778 1.391 . S
C780 C781 1.400 . S
C781 C775 1.491 1_554 S
C781 C780 1.400 . S
C781 C782 1.398 . S
C782 H770 0.950 1_554 S
C782 C781 1.398 . S
C782 C783 1.391 . S
C783 H771 0.950 . S
C783 C779 1.393 . S
C783 C782 1.391 . S
H784 C792 0.950 . S
H785 C797 0.950 . S
H786 C794 0.950 1_655 S
H787 C796 0.950 . S
H788 C798 0.950 . S
H789 C800 0.950 . S
H790 C802 0.950 . S
H791 C803 0.950 . S
C792 H784 0.950 . S
C792 C793 1.386 . S
C792 C794 1.391 . S
C793 C792 1.386 . S
C793 C797 1.393 . S
C794 H786 0.950 1_455 S
C794 C792 1.391 . S
C794 C795 1.400 . S
C795 C794 1.400 . S
C795 C796 1.398 . S
C795 C801 1.525 . S
C796 H787 0.950 . S
C796 C795 1.398 . S
C796 C797 1.391 . S
C797 H785 0.950 . S
C797 C793 1.393 . S
C797 C796 1.391 . S
C798 H788 0.950 . S
C798 C799 1.386 . S
C798 C800 1.391 1_655 S
C799 C798 1.386 . S
C799 C803 1.393 . S
C800 H789 0.950 . S
C800 C798 1.391 1_455 S
C800 C801 1.416 . S
C801 C795 1.525 . S
C801 C800 1.416 . S
C801 C802 1.348 1_455 S
C802 H790 0.950 . S
C802 C801 1.348 1_655 S
C802 C803 1.391 . S
C803 H791 0.950 . S
C803 C799 1.393 . S
C803 C802 1.391 . S
H804 C812 0.950 . S
H805 C817 0.950 . S
H806 C814 0.950 1_455 S
H807 C816 0.950 . S
H808 C818 0.950 . S
H809 C820 0.950 . S
H810 C822 0.950 . S
H811 C823 0.950 . S
C812 H804 0.950 . S
C812 C813 1.386 . S
C812 C814 1.391 . S
C813 C812 1.386 . S
C813 C817 1.393 . S
C814 H806 0.950 1_655 S
C814 C812 1.391 . S
C814 C815 1.400 . S
C815 C814 1.400 . S
C815 C816 1.398 . S
C815 C821 1.526 . S
C816 H807 0.950 . S
C816 C815 1.398 . S
C816 C817 1.391 . S
C817 H805 0.950 . S
C817 C813 1.393 . S
C817 C816 1.391 . S
C818 H808 0.950 . S
C818 C819 1.386 . S
C818 C820 1.391 1_455 S
C819 C818 1.386 . S
C819 C823 1.393 . S
C820 H809 0.950 . S
C820 C818 1.391 1_655 S
C820 C821 1.417 . S
C821 C815 1.526 . S
C821 C820 1.417 . S
C821 C822 1.347 1_655 S
C822 H810 0.950 . S
C822 C821 1.347 1_455 S
C822 C823 1.391 . S
C823 H811 0.950 . S
C823 C819 1.393 . S
C823 C822 1.391 . S
H824 C832 0.950 . S
H825 C837 0.950 . S
H826 C834 0.950 . S
H827 C836 0.950 . S
H828 C838 0.950 . S
H829 C840 0.950 1_565 S
H830 C842 0.950 . S
H831 C843 0.950 . S
C832 H824 0.950 . S
C832 C833 1.386 1_545 S
C832 C834 1.391 . S
C833 C832 1.386 1_565 S
C833 C837 1.393 . S
C834 H826 0.950 . S
C834 C832 1.391 . S
C834 C835 1.400 . S
C835 C834 1.400 . S
C835 C836 1.398 1_545 S
C835 C841 1.491 . S
C836 H827 0.950 . S
C836 C835 1.398 1_565 S
C836 C837 1.391 . S
C837 H825 0.950 . S
C837 C833 1.393 . S
C837 C836 1.391 . S
C838 H828 0.950 . S
C838 C839 1.386 . S
C838 C840 1.391 . S
C839 C838 1.386 . S
C839 C843 1.393 . S
C840 H829 0.950 1_545 S
C840 C838 1.391 . S
C840 C841 1.400 . S
C841 C835 1.491 . S
C841 C840 1.400 . S
C841 C842 1.398 . S
C842 H830 0.950 . S
C842 C841 1.398 . S
C842 C843 1.391 . S
C843 H831 0.950 . S
C843 C839 1.393 . S
C843 C842 1.391 . S
H844 C852 0.950 . S
H845 C857 0.950 . S
H846 C854 0.950 . S
H847 C856 0.950 . S
H848 C858 0.950 . S
H849 C860 0.950 . S
H850 C862 0.950 . S
H851 C863 0.950 . S
C852 H844 0.950 . S
C852 C853 1.386 . S
C852 C854 1.391 . S
C853 C852 1.386 . S
C853 C857 1.393 . S
C854 H846 0.950 . S
C854 C852 1.391 . S
C854 C855 1.400 . S
C855 C854 1.400 . S
C855 C856 1.398 . S
C855 C861 1.491 . S
C856 H847 0.950 . S
C856 C855 1.398 . S
C856 C857 1.391 . S
C857 H845 0.950 . S
C857 C853 1.393 . S
C857 C856 1.391 . S
C858 H848 0.950 . S
C858 C859 1.386 . S
C858 C860 1.391 . S
C859 C858 1.386 . S
C859 C863 1.393 . S
C860 H849 0.950 . S
C860 C858 1.391 . S
C860 C861 1.400 1_545 S
C861 C855 1.491 . S
C861 C860 1.400 1_565 S
C861 C862 1.398 . S
C862 H850 0.950 . S
C862 C861 1.398 . S
C862 C863 1.391 1_565 S
C863 H851 0.950 . S
C863 C859 1.393 . S
C863 C862 1.391 1_545 S
H864 C872 0.950 . S
H865 C877 0.950 . S
H866 C874 0.950 . S
H867 C876 0.950 . S
H868 C878 0.950 . S
H869 C880 0.950 . S
H870 C882 0.950 . S
H871 C883 0.950 . S
C872 H864 0.950 . S
C872 C873 1.386 . S
C872 C874 1.391 . S
C873 C872 1.386 . S
C873 C877 1.393 . S
C874 H866 0.950 . S
C874 C872 1.391 . S
C874 C875 1.400 . S
C875 C874 1.400 . S
C875 C876 1.398 . S
C875 C881 1.491 . S
C876 H867 0.950 . S
C876 C875 1.398 . S
C876 C877 1.391 . S
C877 H865 0.950 . S
C877 C873 1.393 . S
C877 C876 1.391 . S
C878 H868 0.950 . S
C878 C879 1.386 . S
C878 C880 1.391 . S
C879 C878 1.386 . S
C879 C883 1.393 . S
C880 H869 0.950 . S
C880 C878 1.391 . S
C880 C881 1.400 . S
C881 C875 1.491 . S
C881 C880 1.400 . S
C881 C882 1.398 . S
C882 H870 0.950 . S
C882 C881 1.398 . S
C882 C883 1.391 . S
C883 H871 0.950 . S
C883 C879 1.393 . S
C883 C882 1.391 . S
H884 C892 0.950 . S
H885 C897 0.950 . S
H886 C894 0.950 . S
H887 C896 0.950 . S
H888 C898 0.950 . S
H889 C900 0.950 . S
H890 C902 0.950 . S
H891 C903 0.950 . S
C892 H884 0.950 . S
C892 C893 1.386 . S
C892 C894 1.391 . S
C893 C892 1.386 . S
C893 C897 1.393 . S
C894 H886 0.950 . S
C894 C892 1.391 . S
C894 C895 1.400 . S
C895 C894 1.400 . S
C895 C896 1.398 . S
C895 C901 1.491 . S
C896 H887 0.950 . S
C896 C895 1.398 . S
C896 C897 1.391 . S
C897 H885 0.950 . S
C897 C893 1.393 . S
C897 C896 1.391 . S
C898 H888 0.950 . S
C898 C899 1.386 . S
C898 C900 1.391 . S
C899 C898 1.386 . S
C899 C903 1.393 . S
C900 H889 0.950 . S
C900 C898 1.391 . S
C900 C901 1.400 . S
C901 C895 1.491 . S
C901 C900 1.400 . S
C901 C902 1.398 . S
C902 H890 0.950 . S
C902 C901 1.398 . S
C902 C903 1.391 . S
C903 H891 0.950 . S
C903 C899 1.393 . S
C903 C902 1.391 . S
H904 C912 0.950 . S
H905 C917 0.950 . S
H906 C914 0.950 . S
H907 C916 0.950 . S
H908 C918 0.950 . S
H909 C920 0.950 . S
H910 C922 0.950 . S
H911 C923 0.950 . S
C912 H904 0.950 . S
C912 C913 1.386 . S
C912 C914 1.391 . S
C913 C912 1.386 . S
C913 C917 1.393 . S
C914 H906 0.950 . S
C914 C912 1.391 . S
C914 C915 1.400 . S
C915 C914 1.400 . S
C915 C916 1.398 . S
C915 C921 1.491 . S
C916 H907 0.950 . S
C916 C915 1.398 . S
C916 C917 1.391 . S
C917 H905 0.950 . S
C917 C913 1.393 . S
C917 C916 1.391 . S
C918 H908 0.950 . S
C918 C919 1.386 . S
C918 C920 1.391 . S
C919 C918 1.386 . S
C919 C923 1.393 . S
C920 H909 0.950 . S
C920 C918 1.391 . S
C920 C921 1.400 . S
C921 C915 1.491 . S
C921 C920 1.400 . S
C921 C922 1.398 . S
C922 H910 0.950 . S
C922 C921 1.398 . S
C922 C923 1.391 . S
C923 H911 0.950 . S
C923 C919 1.393 . S
C923 C922 1.391 . S
H924 C932 0.950 . S
H925 C937 0.950 . S
H926 C934 0.950 . S
H927 C936 0.950 . S
H928 C938 0.950 . S
H929 C940 0.950 . S
H930 C942 0.950 . S
H931 C943 0.950 . S
C932 H924 0.950 . S
C932 C933 1.386 . S
C932 C934 1.391 . S
C933 C932 1.386 . S
C933 C937 1.393 . S
C934 H926 0.950 . S
C934 C932 1.391 . S
C934 C935 1.400 . S
C935 C934 1.400 . S
C935 C936 1.398 . S
C935 C941 1.491 . S
C936 H927 0.950 . S
C936 C935 1.398 . S
C936 C937 1.391 . S
C937 H925 0.950 . S
C937 C933 1.393 . S
C937 C936 1.391 . S
C938 H928 0.950 . S
C938 C939 1.386 . S
C938 C940 1.391 . S
C939 C938 1.386 . S
C939 C943 1.393 . S
C940 H929 0.950 . S
C940 C938 1.391 . S
C940 C941 1.400 . S
C941 C935 1.491 . S
C941 C940 1.400 . S
C941 C942 1.398 . S
C942 H930 0.950 . S
C942 C941 1.398 . S
C942 C943 1.391 . S
C943 H931 0.950 . S
C943 C939 1.393 . S
C943 C942 1.391 . S
H944 C952 0.950 . S
H945 C957 0.950 . S
H946 C954 0.950 . S
H947 C956 0.950 . S
H948 C958 0.950 . S
H949 C960 0.950 . S
H950 C962 0.950 . S
H951 C963 0.950 . S
C952 H944 0.950 . S
C952 C953 1.386 . S
C952 C954 1.391 . S
C953 C952 1.386 . S
C953 C957 1.393 . S
C954 H946 0.950 . S
C954 C952 1.391 . S
C954 C955 1.400 . S
C955 C954 1.400 . S
C955 C956 1.398 . S
C955 C961 1.491 1_554 S
C956 H947 0.950 . S
C956 C955 1.398 . S
C956 C957 1.391 . S
C957 H945 0.950 . S
C957 C953 1.393 . S
C957 C956 1.391 . S
C958 H948 0.950 . S
C958 C959 1.386 . S
C958 C960 1.391 . S
C959 C958 1.386 . S
C959 C963 1.393 . S
C960 H949 0.950 . S
C960 C958 1.391 . S
C960 C961 1.400 . S
C961 C955 1.491 1_556 S
C961 C960 1.400 . S
C961 C962 1.398 . S
C962 H950 0.950 . S
C962 C961 1.398 . S
C962 C963 1.391 . S
C963 H951 0.950 . S
C963 C959 1.393 . S
C963 C962 1.391 . S
H964 C972 0.950 . S
H965 C977 0.950 . S
H966 C974 0.950 . S
H967 C976 0.950 . S
H968 C978 0.950 . S
H969 C980 0.950 . S
H970 C982 0.950 . S
H971 C983 0.950 . S
C972 H964 0.950 . S
C972 C973 1.386 . S
C972 C974 1.391 . S
C973 C972 1.386 . S
C973 C977 1.393 . S
C974 H966 0.950 . S
C974 C972 1.391 . S
C974 C975 1.400 . S
C975 C974 1.400 . S
C975 C976 1.398 . S
C975 C981 1.491 1_554 S
C976 H967 0.950 . S
C976 C975 1.398 . S
C976 C977 1.391 . S
C977 H965 0.950 . S
C977 C973 1.393 . S
C977 C976 1.391 . S
C978 H968 0.950 . S
C978 C979 1.386 . S
C978 C980 1.391 . S
C979 C978 1.386 . S
C979 C983 1.393 . S
C980 H969 0.950 . S
C980 C978 1.391 . S
C980 C981 1.400 . S
C981 C975 1.491 1_556 S
C981 C980 1.400 . S
C981 C982 1.398 . S
C982 H970 0.950 . S
C982 C981 1.398 . S
C982 C983 1.391 . S
C983 H971 0.950 . S
C983 C979 1.393 . S
C983 C982 1.391 . S
H984 C992 0.950 . S
H985 C997 0.950 . S
H986 C994 0.950 . S
H987 C996 0.950 . S
H988 C998 0.950 . S
H989 C1000 0.950 . S
H990 C1002 0.950 . S
H991 C1003 0.950 . S
C992 H984 0.950 . S
C992 C993 1.386 . S
C992 C994 1.391 . S
C993 C992 1.386 . S
C993 C997 1.393 . S
C994 H986 0.950 . S
C994 C992 1.391 . S
C994 C995 1.400 . S
C995 C994 1.400 . S
C995 C996 1.398 . S
C995 C1001 1.491 . S
C996 H987 0.950 . S
C996 C995 1.398 . S
C996 C997 1.391 . S
C997 H985 0.950 . S
C997 C993 1.393 . S
C997 C996 1.391 . S
C998 H988 0.950 . S
C998 C999 1.386 . S
C998 C1000 1.391 . S
C999 C998 1.386 . S
C999 C1003 1.393 . S
C1000 H989 0.950 . S
C1000 C998 1.391 . S
C1000 C1001 1.400 . S
C1001 C995 1.491 . S
C1001 C1000 1.400 . S
C1001 C1002 1.398 . S
C1002 H990 0.950 . S
C1002 C1001 1.398 . S
C1002 C1003 1.391 . S
C1003 H991 0.950 . S
C1003 C999 1.393 . S
C1003 C1002 1.391 . S
H1004 C1012 0.950 . S
H1005 C1017 0.950 . S
H1006 C1014 0.950 . S
H1007 C1016 0.950 . S
H1008 C1018 0.950 . S
H1009 C1020 0.950 . S
H1010 C1022 0.950 . S
H1011 C1023 0.950 . S
C1012 H1004 0.950 . S
C1012 C1013 1.386 . S
C1012 C1014 1.391 . S
C1013 C1012 1.386 . S
C1013 C1017 1.393 . S
C1014 H1006 0.950 . S
C1014 C1012 1.391 . S
C1014 C1015 1.400 . S
C1015 C1014 1.400 . S
C1015 C1016 1.398 . S
C1015 C1021 1.491 . S
C1016 H1007 0.950 . S
C1016 C1015 1.398 . S
C1016 C1017 1.391 . S
C1017 H1005 0.950 . S
C1017 C1013 1.393 . S
C1017 C1016 1.391 . S
C1018 H1008 0.950 . S
C1018 C1019 1.386 . S
C1018 C1020 1.391 . S
C1019 C1018 1.386 . S
C1019 C1023 1.393 . S
C1020 H1009 0.950 . S
C1020 C1018 1.391 . S
C1020 C1021 1.400 . S
C1021 C1015 1.491 . S
C1021 C1020 1.400 . S
C1021 C1022 1.398 . S
C1022 H1010 0.950 . S
C1022 C1021 1.398 . S
C1022 C1023 1.391 . S
C1023 H1011 0.950 . S
C1023 C1019 1.393 . S
C1023 C1022 1.391 . S
H1024 C1032 0.950 . S
H1025 C1037 0.950 . S
H1026 C1034 0.950 . S
H1027 C1036 0.950 . S
H1028 C1038 0.950 . S
H1029 C1040 0.950 . S
H1030 C1042 0.950 . S
H1031 C1043 0.950 . S
C1032 H1024 0.950 . S
C1032 C1033 1.386 . S
C1032 C1034 1.391 . S
C1033 C1032 1.386 . S
C1033 C1037 1.393 . S
C1034 H1026 0.950 . S
C1034 C1032 1.391 . S
C1034 C1035 1.400 . S
C1035 C1034 1.400 . S
C1035 C1036 1.398 . S
C1035 C1041 1.491 1_554 S
C1036 H1027 0.950 . S
C1036 C1035 1.398 . S
C1036 C1037 1.391 . S
C1037 H1025 0.950 . S
C1037 C1033 1.393 . S
C1037 C1036 1.391 . S
C1038 H1028 0.950 . S
C1038 C1039 1.386 . S
C1038 C1040 1.391 . S
C1039 C1038 1.386 . S
C1039 C1043 1.393 . S
C1040 H1029 0.950 . S
C1040 C1038 1.391 . S
C1040 C1041 1.400 . S
C1041 C1035 1.491 1_556 S
C1041 C1040 1.400 . S
C1041 C1042 1.398 . S
C1042 H1030 0.950 . S
C1042 C1041 1.398 . S
C1042 C1043 1.391 . S
C1043 H1031 0.950 . S
C1043 C1039 1.393 . S
C1043 C1042 1.391 . S
H1044 C1052 0.950 . S
H1045 C1057 0.950 . S
H1046 C1054 0.950 . S
H1047 C1056 0.950 . S
H1048 C1058 0.950 . S
H1049 C1060 0.950 . S
H1050 C1062 0.950 . S
H1051 C1063 0.950 . S
C1052 H1044 0.950 . S
C1052 C1053 1.386 . S
C1052 C1054 1.391 . S
C1053 C1052 1.386 . S
C1053 C1057 1.393 . S
C1054 H1046 0.950 . S
C1054 C1052 1.391 . S
C1054 C1055 1.400 . S
C1055 C1054 1.400 . S
C1055 C1056 1.398 . S
C1055 C1061 1.491 1_554 S
C1056 H1047 0.950 . S
C1056 C1055 1.398 . S
C1056 C1057 1.391 . S
C1057 H1045 0.950 . S
C1057 C1053 1.393 . S
C1057 C1056 1.391 . S
C1058 H1048 0.950 . S
C1058 C1059 1.386 . S
C1058 C1060 1.391 . S
C1059 C1058 1.386 . S
C1059 C1063 1.393 . S
C1060 H1049 0.950 . S
C1060 C1058 1.391 . S
C1060 C1061 1.400 . S
C1061 C1055 1.491 1_556 S
C1061 C1060 1.400 . S
C1061 C1062 1.398 . S
C1062 H1050 0.950 . S
C1062 C1061 1.398 . S
C1062 C1063 1.391 . S
C1063 H1051 0.950 . S
C1063 C1059 1.393 . S
C1063 C1062 1.391 . S
H1064 C1072 0.950 . S
H1065 C1077 0.950 . S
H1066 C1074 0.950 . S
H1067 C1076 0.950 . S
H1068 C1078 0.950 . S
H1069 C1080 0.950 . S
H1070 C1082 0.950 . S
H1071 C1083 0.950 . S
C1072 H1064 0.950 . S
C1072 C1073 1.386 . S
C1072 C1074 1.391 . S
C1073 C1072 1.386 . S
C1073 C1077 1.393 . S
C1074 H1066 0.950 . S
C1074 C1072 1.391 . S
C1074 C1075 1.400 . S
C1075 C1074 1.400 . S
C1075 C1076 1.398 . S
C1075 C1081 1.491 . S
C1076 H1067 0.950 . S
C1076 C1075 1.398 . S
C1076 C1077 1.391 . S
C1077 H1065 0.950 . S
C1077 C1073 1.393 . S
C1077 C1076 1.391 . S
C1078 H1068 0.950 . S
C1078 C1079 1.386 . S
C1078 C1080 1.391 . S
C1079 C1078 1.386 . S
C1079 C1083 1.393 . S
C1080 H1069 0.950 . S
C1080 C1078 1.391 . S
C1080 C1081 1.400 . S
C1081 C1075 1.491 . S
C1081 C1080 1.400 . S
C1081 C1082 1.398 . S
C1082 H1070 0.950 . S
C1082 C1081 1.398 . S
C1082 C1083 1.391 . S
C1083 H1071 0.950 . S
C1083 C1079 1.393 . S
C1083 C1082 1.391 . S
H1084 C1092 0.950 . S
H1085 C1097 0.950 . S
H1086 C1094 0.950 . S
H1087 C1096 0.950 . S
H1088 C1098 0.950 . S
H1089 C1100 0.950 . S
H1090 C1102 0.950 . S
H1091 C1103 0.950 . S
C1092 H1084 0.950 . S
C1092 C1093 1.386 . S
C1092 C1094 1.391 . S
C1093 C1092 1.386 . S
C1093 C1097 1.393 . S
C1094 H1086 0.950 . S
C1094 C1092 1.391 . S
C1094 C1095 1.400 . S
C1095 C1094 1.400 . S
C1095 C1096 1.398 . S
C1095 C1101 1.491 . S
C1096 H1087 0.950 . S
C1096 C1095 1.398 . S
C1096 C1097 1.391 . S
C1097 H1085 0.950 . S
C1097 C1093 1.393 . S
C1097 C1096 1.391 . S
C1098 H1088 0.950 . S
C1098 C1099 1.386 . S
C1098 C1100 1.391 . S
C1099 C1098 1.386 . S
C1099 C1103 1.393 . S
C1100 H1089 0.950 . S
C1100 C1098 1.391 . S
C1100 C1101 1.400 . S
C1101 C1095 1.491 . S
C1101 C1100 1.400 . S
C1101 C1102 1.398 . S
C1102 H1090 0.950 . S
C1102 C1101 1.398 . S
C1102 C1103 1.391 . S
C1103 H1091 0.950 . S
C1103 C1099 1.393 . S
C1103 C1102 1.391 . S
H1104 C1112 0.950 . S
H1105 C1117 0.950 . S
H1106 C1114 0.950 . S
H1107 C1116 0.950 . S
H1108 C1118 0.950 . S
H1109 C1120 0.950 . S
H1110 C1122 0.950 . S
H1111 C1123 0.950 . S
C1112 H1104 0.950 . S
C1112 C1113 1.386 . S
C1112 C1114 1.391 . S
C1113 C1112 1.386 . S
C1113 C1117 1.393 . S
C1114 H1106 0.950 . S
C1114 C1112 1.391 . S
C1114 C1115 1.400 . S
C1115 C1114 1.400 . S
C1115 C1116 1.398 . S
C1115 C1121 1.491 . S
C1116 H1107 0.950 . S
C1116 C1115 1.398 . S
C1116 C1117 1.391 . S
C1117 H1105 0.950 . S
C1117 C1113 1.393 . S
C1117 C1116 1.391 . S
C1118 H1108 0.950 . S
C1118 C1119 1.386 . S
C1118 C1120 1.391 . S
C1119 C1118 1.386 . S
C1119 C1123 1.393 . S
C1120 H1109 0.950 . S
C1120 C1118 1.391 . S
C1120 C1121 1.400 . S
C1121 C1115 1.491 . S
C1121 C1120 1.400 . S
C1121 C1122 1.398 . S
C1122 H1110 0.950 . S
C1122 C1121 1.398 . S
C1122 C1123 1.391 . S
C1123 H1111 0.950 . S
C1123 C1119 1.393 . S
C1123 C1122 1.391 . S
H1124 C1132 0.950 . S
H1125 C1137 0.950 . S
H1126 C1134 0.950 . S
H1127 C1136 0.950 . S
H1128 C1138 0.950 . S
H1129 C1140 0.950 . S
H1130 C1142 0.950 . S
H1131 C1143 0.950 . S
C1132 H1124 0.950 . S
C1132 C1133 1.386 . S
C1132 C1134 1.391 . S
C1133 C1132 1.386 . S
C1133 C1137 1.393 . S
C1134 H1126 0.950 . S
C1134 C1132 1.391 . S
C1134 C1135 1.400 . S
C1135 C1134 1.400 . S
C1135 C1136 1.398 . S
C1135 C1141 1.491 . S
C1136 H1127 0.950 . S
C1136 C1135 1.398 . S
C1136 C1137 1.391 . S
C1137 H1125 0.950 . S
C1137 C1133 1.393 . S
C1137 C1136 1.391 . S
C1138 H1128 0.950 . S
C1138 C1139 1.386 . S
C1138 C1140 1.391 . S
C1139 C1138 1.386 . S
C1139 C1143 1.393 . S
C1140 H1129 0.950 . S
C1140 C1138 1.391 . S
C1140 C1141 1.400 . S
C1141 C1135 1.491 . S
C1141 C1140 1.400 . S
C1141 C1142 1.398 . S
C1142 H1130 0.950 . S
C1142 C1141 1.398 . S
C1142 C1143 1.391 . S
C1143 H1131 0.950 . S
C1143 C1139 1.393 . S
C1143 C1142 1.391 . S
H1144 C1152 0.950 . S
H1145 C1157 0.950 . S
H1146 C1154 0.950 . S
H1147 C1156 0.950 . S
H1148 C1158 0.950 . S
H1149 C1160 0.950 . S
H1150 C1162 0.950 . S
H1151 C1163 0.950 . S
C1152 H1144 0.950 . S
C1152 C1153 1.386 . S
C1152 C1154 1.391 . S
C1153 C1152 1.386 . S
C1153 C1157 1.393 . S
C1154 H1146 0.950 . S
C1154 C1152 1.391 . S
C1154 C1155 1.400 . S
C1155 C1154 1.400 . S
C1155 C1156 1.398 . S
C1155 C1161 1.491 . S
C1156 H1147 0.950 . S
C1156 C1155 1.398 . S
C1156 C1157 1.391 . S
C1157 H1145 0.950 . S
C1157 C1153 1.393 . S
C1157 C1156 1.391 . S
C1158 H1148 0.950 . S
C1158 C1159 1.386 . S
C1158 C1160 1.391 . S
C1159 C1158 1.386 . S
C1159 C1163 1.393 . S
C1160 H1149 0.950 . S
C1160 C1158 1.391 . S
C1160 C1161 1.400 . S
C1161 C1155 1.491 . S
C1161 C1160 1.400 . S
C1161 C1162 1.398 . S
C1162 H1150 0.950 . S
C1162 C1161 1.398 . S
C1162 C1163 1.391 . S
C1163 H1151 0.950 . S
C1163 C1159 1.393 . S
C1163 C1162 1.391 . S
H1164 C1172 0.950 . S
H1165 C1177 0.950 . S
H1166 C1174 0.950 . S
H1167 C1176 0.950 . S
H1168 C1178 0.950 . S
H1169 C1180 0.950 . S
H1170 C1182 0.950 . S
H1171 C1183 0.950 . S
C1172 H1164 0.950 . S
C1172 C1173 1.386 . S
C1172 C1174 1.391 . S
C1173 C1172 1.386 . S
C1173 C1177 1.393 . S
C1174 H1166 0.950 . S
C1174 C1172 1.391 . S
C1174 C1175 1.400 . S
C1175 C1174 1.400 . S
C1175 C1176 1.398 . S
C1175 C1181 1.491 . S
C1176 H1167 0.950 . S
C1176 C1175 1.398 . S
C1176 C1177 1.391 . S
C1177 H1165 0.950 . S
C1177 C1173 1.393 . S
C1177 C1176 1.391 . S
C1178 H1168 0.950 . S
C1178 C1179 1.386 . S
C1178 C1180 1.391 . S
C1179 C1178 1.386 . S
C1179 C1183 1.393 . S
C1180 H1169 0.950 . S
C1180 C1178 1.391 . S
C1180 C1181 1.400 . S
C1181 C1175 1.491 . S
C1181 C1180 1.400 . S
C1181 C1182 1.398 . S
C1182 H1170 0.950 . S
C1182 C1181 1.398 . S
C1182 C1183 1.391 . S
C1183 H1171 0.950 . S
C1183 C1179 1.393 . S
C1183 C1182 1.391 . S
H1184 C1192 0.950 . S
H1185 C1197 0.950 . S
H1186 C1194 0.950 . S
H1187 C1196 0.950 . S
H1188 C1198 0.950 . S
H1189 C1200 0.950 . S
H1190 C1202 0.950 . S
H1191 C1203 0.950 . S
C1192 H1184 0.950 . S
C1192 C1193 1.386 . S
C1192 C1194 1.391 . S
C1193 C1192 1.386 . S
C1193 C1197 1.393 . S
C1194 H1186 0.950 . S
C1194 C1192 1.391 . S
C1194 C1195 1.400 . S
C1195 C1194 1.400 . S
C1195 C1196 1.398 . S
C1195 C1201 1.491 1_545 S
C1196 H1187 0.950 . S
C1196 C1195 1.398 . S
C1196 C1197 1.391 . S
C1197 H1185 0.950 . S
C1197 C1193 1.393 . S
C1197 C1196 1.391 . S
C1198 H1188 0.950 . S
C1198 C1199 1.386 . S
C1198 C1200 1.391 . S
C1199 C1198 1.386 . S
C1199 C1203 1.393 . S
C1200 H1189 0.950 . S
C1200 C1198 1.391 . S
C1200 C1201 1.400 . S
C1201 C1195 1.491 1_565 S
C1201 C1200 1.400 . S
C1201 C1202 1.398 . S
C1202 H1190 0.950 . S
C1202 C1201 1.398 . S
C1202 C1203 1.391 . S
C1203 H1191 0.950 . S
C1203 C1199 1.393 . S
C1203 C1202 1.391 . S
H1204 C1212 0.950 . S
H1205 C1217 0.950 . S
H1206 C1214 0.950 . S
H1207 C1216 0.950 . S
H1208 C1218 0.950 . S
H1209 C1220 0.950 . S
H1210 C1222 0.950 . S
H1211 C1223 0.950 . S
C1212 H1204 0.950 . S
C1212 C1213 1.386 . S
C1212 C1214 1.391 . S
C1213 C1212 1.386 . S
C1213 C1217 1.393 . S
C1214 H1206 0.950 . S
C1214 C1212 1.391 . S
C1214 C1215 1.400 . S
C1215 C1214 1.400 . S
C1215 C1216 1.398 . S
C1215 C1221 1.491 . S
C1216 H1207 0.950 . S
C1216 C1215 1.398 . S
C1216 C1217 1.391 . S
C1217 H1205 0.950 . S
C1217 C1213 1.393 . S
C1217 C1216 1.391 . S
C1218 H1208 0.950 . S
C1218 C1219 1.386 . S
C1218 C1220 1.391 . S
C1219 C1218 1.386 . S
C1219 C1223 1.393 . S
C1220 H1209 0.950 . S
C1220 C1218 1.391 . S
C1220 C1221 1.400 . S
C1221 C1215 1.491 . S
C1221 C1220 1.400 . S
C1221 C1222 1.398 . S
C1222 H1210 0.950 . S
C1222 C1221 1.398 . S
C1222 C1223 1.391 . S
C1223 H1211 0.950 . S
C1223 C1219 1.393 . S
C1223 C1222 1.391 . S
H1224 C1232 0.950 . S
H1225 C1237 0.950 . S
H1226 C1234 0.950 . S
H1227 C1236 0.950 . S
H1228 C1238 0.950 . S
H1229 C1240 0.950 . S
H1230 C1242 0.950 . S
H1231 C1243 0.950 . S
C1232 H1224 0.950 . S
C1232 C1233 1.386 . S
C1232 C1234 1.391 . S
C1233 C1232 1.386 . S
C1233 C1237 1.393 . S
C1234 H1226 0.950 . S
C1234 C1232 1.391 . S
C1234 C1235 1.400 . S
C1235 C1234 1.400 . S
C1235 C1236 1.398 . S
C1235 C1241 1.491 . S
C1236 H1227 0.950 . S
C1236 C1235 1.398 . S
C1236 C1237 1.391 . S
C1237 H1225 0.950 . S
C1237 C1233 1.393 . S
C1237 C1236 1.391 . S
C1238 H1228 0.950 . S
C1238 C1239 1.386 . S
C1238 C1240 1.391 . S
C1239 C1238 1.386 . S
C1239 C1243 1.393 . S
C1240 H1229 0.950 . S
C1240 C1238 1.391 . S
C1240 C1241 1.400 . S
C1241 C1235 1.491 . S
C1241 C1240 1.400 . S
C1241 C1242 1.398 . S
C1242 H1230 0.950 . S
C1242 C1241 1.398 . S
C1242 C1243 1.391 . S
C1243 H1231 0.950 . S
C1243 C1239 1.393 . S
C1243 C1242 1.391 . S
H1244 C1252 0.950 . S
H1245 C1257 0.950 . S
H1246 C1254 0.950 . S
H1247 C1256 0.950 . S
H1248 C1258 0.950 . S
H1249 C1260 0.950 . S
H1250 C1262 0.950 . S
H1251 C1263 0.950 . S
C1252 H1244 0.950 . S
C1252 C1253 1.386 . S
C1252 C1254 1.391 . S
C1253 C1252 1.386 . S
C1253 C1257 1.393 . S
C1254 H1246 0.950 . S
C1254 C1252 1.391 . S
C1254 C1255 1.400 . S
C1255 C1254 1.400 . S
C1255 C1256 1.398 . S
C1255 C1261 1.491 . S
C1256 H1247 0.950 . S
C1256 C1255 1.398 . S
C1256 C1257 1.391 . S
C1257 H1245 0.950 . S
C1257 C1253 1.393 . S
C1257 C1256 1.391 . S
C1258 H1248 0.950 . S
C1258 C1259 1.386 . S
C1258 C1260 1.391 . S
C1259 C1258 1.386 . S
C1259 C1263 1.393 . S
C1260 H1249 0.950 . S
C1260 C1258 1.391 . S
C1260 C1261 1.400 . S
C1261 C1255 1.491 . S
C1261 C1260 1.400 . S
C1261 C1262 1.398 . S
C1262 H1250 0.950 . S
C1262 C1261 1.398 . S
C1262 C1263 1.391 . S
C1263 H1251 0.950 . S
C1263 C1259 1.393 . S
C1263 C1262 1.391 . S
H1264 C1272 0.950 . S
H1265 C1277 0.950 . S
H1266 C1274 0.950 . S
H1267 C1276 0.950 . S
H1268 C1278 0.950 . S
H1269 C1280 0.950 . S
H1270 C1282 0.950 . S
H1271 C1283 0.950 . S
C1272 H1264 0.950 . S
C1272 C1273 1.386 . S
C1272 C1274 1.391 . S
C1273 C1272 1.386 . S
C1273 C1277 1.393 . S
C1274 H1266 0.950 . S
C1274 C1272 1.391 . S
C1274 C1275 1.400 . S
C1275 C1274 1.400 . S
C1275 C1276 1.398 . S
C1275 C1281 1.491 . S
C1276 H1267 0.950 . S
C1276 C1275 1.398 . S
C1276 C1277 1.391 . S
C1277 H1265 0.950 . S
C1277 C1273 1.393 . S
C1277 C1276 1.391 . S
C1278 H1268 0.950 . S
C1278 C1279 1.386 . S
C1278 C1280 1.391 . S
C1279 C1278 1.386 . S
C1279 C1283 1.393 . S
C1280 H1269 0.950 . S
C1280 C1278 1.391 . S
C1280 C1281 1.400 . S
C1281 C1275 1.491 . S
C1281 C1280 1.400 . S
C1281 C1282 1.398 . S
C1282 H1270 0.950 . S
C1282 C1281 1.398 . S
C1282 C1283 1.391 . S
C1283 H1271 0.950 . S
C1283 C1279 1.393 . S
C1283 C1282 1.391 . S
H1284 C1292 0.950 . S
H1285 C1297 0.950 . S
H1286 C1294 0.950 . S
H1287 C1296 0.950 . S
H1288 C1298 0.950 . S
H1289 C1300 0.950 . S
H1290 C1302 0.950 . S
H1291 C1303 0.950 . S
C1292 H1284 0.950 . S
C1292 C1293 1.386 . S
C1292 C1294 1.391 . S
C1293 C1292 1.386 . S
C1293 C1297 1.393 . S
C1294 H1286 0.950 . S
C1294 C1292 1.391 . S
C1294 C1295 1.400 . S
C1295 C1294 1.400 . S
C1295 C1296 1.398 . S
C1295 C1301 1.491 . S
C1296 H1287 0.950 . S
C1296 C1295 1.398 . S
C1296 C1297 1.391 . S
C1297 H1285 0.950 . S
C1297 C1293 1.393 . S
C1297 C1296 1.391 . S
C1298 H1288 0.950 . S
C1298 C1299 1.386 . S
C1298 C1300 1.391 . S
C1299 C1298 1.386 . S
C1299 C1303 1.393 . S
C1300 H1289 0.950 . S
C1300 C1298 1.391 . S
C1300 C1301 1.400 . S
C1301 C1295 1.491 . S
C1301 C1300 1.400 . S
C1301 C1302 1.398 . S
C1302 H1290 0.950 . S
C1302 C1301 1.398 . S
C1302 C1303 1.391 . S
C1303 H1291 0.950 . S
C1303 C1299 1.393 . S
C1303 C1302 1.391 . S
H1304 C1312 0.950 . S
H1305 C1317 0.950 . S
H1306 C1314 0.950 . S
H1307 C1316 0.913 1_455 S
H1308 C1318 0.950 . S
H1309 C1320 0.950 . S
H1310 C1322 0.913 1_655 S
H1311 C1323 0.950 . S
C1312 H1304 0.950 . S
C1312 C1313 1.386 . S
C1312 C1314 1.391 . S
C1313 C1312 1.386 . S
C1313 C1317 1.393 . S
C1314 H1306 0.950 . S
C1314 C1312 1.391 . S
C1314 C1315 1.400 . S
C1315 C1314 1.400 . S
C1315 C1316 1.398 . S
C1315 C1321 1.491 1_665 S
C1316 H1307 0.913 1_655 S
C1316 C1315 1.398 . S
C1316 C1317 1.391 . S
C1317 H1305 0.950 . S
C1317 C1313 1.393 . S
C1317 C1316 1.391 . S
C1318 H1308 0.950 . S
C1318 C1319 1.386 . S
C1318 C1320 1.391 . S
C1319 C1318 1.386 . S
C1319 C1323 1.393 . S
C1320 H1309 0.950 . S
C1320 C1318 1.391 . S
C1320 C1321 1.400 . S
C1321 C1315 1.491 1_445 S
C1321 C1320 1.400 . S
C1321 C1322 1.398 . S
C1322 H1310 0.913 1_455 S
C1322 C1321 1.398 . S
C1322 C1323 1.391 . S
C1323 H1311 0.950 . S
C1323 C1319 1.393 . S
C1323 C1322 1.391 . S
H1324 C1332 0.950 . S
H1325 C1337 0.950 . S
H1326 C1334 0.950 . S
H1327 C1336 0.950 . S
H1328 C1338 0.950 . S
H1329 C1340 0.950 . S
H1330 C1342 0.950 . S
H1331 C1343 0.950 . S
C1332 H1324 0.950 . S
C1332 C1333 1.386 . S
C1332 C1334 1.391 . S
C1333 C1332 1.386 . S
C1333 C1337 1.393 . S
C1334 H1326 0.950 . S
C1334 C1332 1.391 . S
C1334 C1335 1.400 . S
C1335 C1334 1.400 . S
C1335 C1336 1.398 . S
C1335 C1341 1.491 1_655 S
C1336 H1327 0.950 . S
C1336 C1335 1.398 . S
C1336 C1337 1.391 . S
C1337 H1325 0.950 . S
C1337 C1333 1.393 . S
C1337 C1336 1.391 . S
C1338 H1328 0.950 . S
C1338 C1339 1.386 . S
C1338 C1340 1.391 . S
C1339 C1338 1.386 . S
C1339 C1343 1.393 . S
C1340 H1329 0.950 . S
C1340 C1338 1.391 . S
C1340 C1341 1.400 . S
C1341 C1335 1.491 1_455 S
C1341 C1340 1.400 . S
C1341 C1342 1.398 . S
C1342 H1330 0.950 . S
C1342 C1341 1.398 . S
C1342 C1343 1.391 . S
C1343 H1331 0.950 . S
C1343 C1339 1.393 . S
C1343 C1342 1.391 . S
H1344 C1352 0.950 . S
H1345 C1357 0.950 . S
H1346 C1354 0.950 . S
H1347 C1356 0.950 . S
H1348 C1358 0.950 . S
H1349 C1360 0.950 . S
H1350 C1362 0.950 1_554 S
H1351 C1363 0.950 . S
C1352 H1344 0.950 . S
C1352 C1353 1.386 1_554 S
C1352 C1354 1.391 . S
C1353 C1352 1.386 1_556 S
C1353 C1357 1.393 . S
C1354 H1346 0.950 . S
C1354 C1352 1.391 . S
C1354 C1355 1.400 1_554 S
C1355 C1354 1.400 1_556 S
C1355 C1356 1.398 . S
C1355 C1361 1.491 . S
C1356 H1347 0.950 . S
C1356 C1355 1.398 . S
C1356 C1357 1.391 . S
C1357 H1345 0.950 . S
C1357 C1353 1.393 . S
C1357 C1356 1.391 . S
C1358 H1348 0.950 . S
C1358 C1359 1.386 . S
C1358 C1360 1.391 . S
C1359 C1358 1.386 . S
C1359 C1363 1.393 . S
C1360 H1349 0.950 . S
C1360 C1358 1.391 . S
C1360 C1361 1.400 . S
C1361 C1355 1.491 . S
C1361 C1360 1.400 . S
C1361 C1362 1.398 . S
C1362 H1350 0.950 1_556 S
C1362 C1361 1.398 . S
C1362 C1363 1.391 . S
C1363 H1351 0.950 . S
C1363 C1359 1.393 . S
C1363 C1362 1.391 . S
H1364 C1372 0.950 . S
H1365 C1377 0.950 . S
H1366 C1374 0.950 . S
H1367 C1376 0.950 . S
H1368 C1378 0.950 . S
H1369 C1380 0.950 1_554 S
H1370 C1382 0.950 . S
H1371 C1383 0.950 . S
C1372 H1364 0.950 . S
C1372 C1373 1.386 . S
C1372 C1374 1.391 . S
C1373 C1372 1.386 . S
C1373 C1377 1.393 1_556 S
C1374 H1366 0.950 . S
C1374 C1372 1.391 . S
C1374 C1375 1.400 . S
C1375 C1374 1.400 . S
C1375 C1376 1.398 1_556 S
C1375 C1381 1.491 . S
C1376 H1367 0.950 . S
C1376 C1375 1.398 1_554 S
C1376 C1377 1.391 . S
C1377 H1365 0.950 . S
C1377 C1373 1.393 1_554 S
C1377 C1376 1.391 . S
C1378 H1368 0.950 . S
C1378 C1379 1.386 . S
C1378 C1380 1.391 . S
C1379 C1378 1.386 . S
C1379 C1383 1.393 . S
C1380 H1369 0.950 1_556 S
C1380 C1378 1.391 . S
C1380 C1381 1.400 . S
C1381 C1375 1.491 . S
C1381 C1380 1.400 . S
C1381 C1382 1.398 . S
C1382 H1370 0.950 . S
C1382 C1381 1.398 . S
C1382 C1383 1.391 . S
C1383 H1371 0.950 . S
C1383 C1379 1.393 . S
C1383 C1382 1.391 . S
H1384 C1392 0.950 . S
H1385 C1397 0.950 . S
H1386 C1394 0.950 . S
H1387 C1396 0.950 . S
H1388 C1398 0.950 . S
H1389 C1400 0.950 . S
H1390 C1402 0.950 . S
H1391 C1403 0.950 . S
C1392 H1384 0.950 . S
C1392 C1393 1.386 . S
C1392 C1394 1.391 . S
C1393 C1392 1.386 . S
C1393 C1397 1.393 . S
C1394 H1386 0.950 . S
C1394 C1392 1.391 . S
C1394 C1395 1.400 . S
C1395 C1394 1.400 . S
C1395 C1396 1.398 . S
C1395 C1401 1.491 . S
C1396 H1387 0.950 . S
C1396 C1395 1.398 . S
C1396 C1397 1.391 . S
C1397 H1385 0.950 . S
C1397 C1393 1.393 . S
C1397 C1396 1.391 . S
C1398 H1388 0.950 . S
C1398 C1399 1.386 . S
C1398 C1400 1.391 . S
C1399 C1398 1.386 . S
C1399 C1403 1.393 . S
C1400 H1389 0.950 . S
C1400 C1398 1.391 . S
C1400 C1401 1.400 . S
C1401 C1395 1.491 . S
C1401 C1400 1.400 . S
C1401 C1402 1.398 . S
C1402 H1390 0.950 . S
C1402 C1401 1.398 . S
C1402 C1403 1.391 . S
C1403 H1391 0.950 . S
C1403 C1399 1.393 . S
C1403 C1402 1.391 . S
H1404 C1412 0.950 . S
H1405 C1417 0.950 . S
H1406 C1414 0.950 . S
H1407 C1416 0.950 . S
H1408 C1418 0.950 . S
H1409 C1420 0.950 . S
H1410 C1422 0.950 . S
H1411 C1423 0.950 . S
C1412 H1404 0.950 . S
C1412 C1413 1.386 . S
C1412 C1414 1.391 . S
C1413 C1412 1.386 . S
C1413 C1417 1.393 . S
C1414 H1406 0.950 . S
C1414 C1412 1.391 . S
C1414 C1415 1.400 . S
C1415 C1414 1.400 . S
C1415 C1416 1.398 . S
C1415 C1421 1.491 . S
C1416 H1407 0.950 . S
C1416 C1415 1.398 . S
C1416 C1417 1.391 . S
C1417 H1405 0.950 . S
C1417 C1413 1.393 . S
C1417 C1416 1.391 . S
C1418 H1408 0.950 . S
C1418 C1419 1.386 . S
C1418 C1420 1.391 . S
C1419 C1418 1.386 . S
C1419 C1423 1.393 . S
C1420 H1409 0.950 . S
C1420 C1418 1.391 . S
C1420 C1421 1.400 . S
C1421 C1415 1.491 . S
C1421 C1420 1.400 . S
C1421 C1422 1.398 . S
C1422 H1410 0.950 . S
C1422 C1421 1.398 . S
C1422 C1423 1.391 . S
C1423 H1411 0.950 . S
C1423 C1419 1.393 . S
C1423 C1422 1.391 . S
H1424 C1432 0.950 . S
H1425 C1437 0.950 . S
H1426 C1434 0.950 . S
H1427 C1436 0.950 . S
H1428 C1438 0.950 . S
H1429 C1440 0.950 . S
H1430 C1442 0.950 . S
H1431 C1443 0.950 . S
C1432 H1424 0.950 . S
C1432 C1433 1.386 . S
C1432 C1434 1.391 . S
C1433 C1432 1.386 . S
C1433 C1437 1.393 . S
C1434 H1426 0.950 . S
C1434 C1432 1.391 . S
C1434 C1435 1.400 . S
C1435 C1434 1.400 . S
C1435 C1436 1.398 . S
C1435 C1441 1.491 . S
C1436 H1427 0.950 . S
C1436 C1435 1.398 . S
C1436 C1437 1.391 . S
C1437 H1425 0.950 . S
C1437 C1433 1.393 . S
C1437 C1436 1.391 . S
C1438 H1428 0.950 . S
C1438 C1439 1.386 . S
C1438 C1440 1.391 . S
C1439 C1438 1.386 . S
C1439 C1443 1.393 . S
C1440 H1429 0.950 . S
C1440 C1438 1.391 . S
C1440 C1441 1.400 . S
C1441 C1435 1.491 . S
C1441 C1440 1.400 . S
C1441 C1442 1.398 . S
C1442 H1430 0.950 . S
C1442 C1441 1.398 . S
C1442 C1443 1.391 . S
C1443 H1431 0.950 . S
C1443 C1439 1.393 . S
C1443 C1442 1.391 . S
H1444 C1452 0.950 . S
H1445 C1457 0.950 . S
H1446 C1454 0.950 . S
H1447 C1456 0.950 . S
H1448 C1458 0.950 . S
H1449 C1460 0.950 . S
H1450 C1462 0.950 . S
H1451 C1463 0.950 . S
C1452 H1444 0.950 . S
C1452 C1453 1.386 . S
C1452 C1454 1.391 . S
C1453 C1452 1.386 . S
C1453 C1457 1.393 . S
C1454 H1446 0.950 . S
C1454 C1452 1.391 . S
C1454 C1455 1.400 . S
C1455 C1454 1.400 . S
C1455 C1456 1.398 . S
C1455 C1461 1.491 . S
C1456 H1447 0.950 . S
C1456 C1455 1.398 . S
C1456 C1457 1.391 . S
C1457 H1445 0.950 . S
C1457 C1453 1.393 . S
C1457 C1456 1.391 . S
C1458 H1448 0.950 . S
C1458 C1459 1.386 . S
C1458 C1460 1.391 . S
C1459 C1458 1.386 . S
C1459 C1463 1.393 . S
C1460 H1449 0.950 . S
C1460 C1458 1.391 . S
C1460 C1461 1.400 . S
C1461 C1455 1.491 . S
C1461 C1460 1.400 . S
C1461 C1462 1.398 . S
C1462 H1450 0.950 . S
C1462 C1461 1.398 . S
C1462 C1463 1.391 . S
C1463 H1451 0.950 . S
C1463 C1459 1.393 . S
C1463 C1462 1.391 . S
H1464 C1472 0.950 . S
H1465 C1477 0.950 . S
H1466 C1474 0.950 . S
H1467 C1476 0.950 . S
H1468 C1478 0.950 . S
H1469 C1480 0.950 . S
H1470 C1482 0.950 . S
H1471 C1483 0.950 . S
C1472 H1464 0.950 . S
C1472 C1473 1.386 . S
C1472 C1474 1.391 . S
C1473 C1472 1.386 . S
C1473 C1477 1.393 . S
C1474 H1466 0.950 . S
C1474 C1472 1.391 . S
C1474 C1475 1.400 . S
C1475 C1474 1.400 . S
C1475 C1476 1.398 . S
C1475 C1481 1.491 . S
C1476 H1467 0.950 . S
C1476 C1475 1.398 . S
C1476 C1477 1.391 . S
C1477 H1465 0.950 . S
C1477 C1473 1.393 . S
C1477 C1476 1.391 . S
C1478 H1468 0.950 . S
C1478 C1479 1.386 . S
C1478 C1480 1.391 . S
C1479 C1478 1.386 . S
C1479 C1483 1.393 . S
C1480 H1469 0.950 . S
C1480 C1478 1.391 . S
C1480 C1481 1.400 . S
C1481 C1475 1.491 . S
C1481 C1480 1.400 . S
C1481 C1482 1.398 . S
C1482 H1470 0.950 . S
C1482 C1481 1.398 . S
C1482 C1483 1.391 . S
C1483 H1471 0.950 . S
C1483 C1479 1.393 . S
C1483 C1482 1.391 . S
H1484 C1492 0.950 . S
H1485 C1497 0.950 . S
H1486 C1494 0.950 . S
H1487 C1496 0.950 . S
H1488 C1498 0.950 . S
H1489 C1500 0.950 . S
H1490 C1502 0.950 . S
H1491 C1503 0.950 . S
C1492 H1484 0.950 . S
C1492 C1493 1.386 . S
C1492 C1494 1.391 . S
C1493 C1492 1.386 . S
C1493 C1497 1.393 . S
C1494 H1486 0.950 . S
C1494 C1492 1.391 . S
C1494 C1495 1.400 . S
C1495 C1494 1.400 . S
C1495 C1496 1.398 . S
C1495 C1501 1.491 . S
C1496 H1487 0.950 . S
C1496 C1495 1.398 . S
C1496 C1497 1.391 . S
C1497 H1485 0.950 . S
C1497 C1493 1.393 . S
C1497 C1496 1.391 . S
C1498 H1488 0.950 . S
C1498 C1499 1.386 . S
C1498 C1500 1.391 . S
C1499 C1498 1.386 . S
C1499 C1503 1.393 . S
C1500 H1489 0.950 . S
C1500 C1498 1.391 . S
C1500 C1501 1.400 . S
C1501 C1495 1.491 . S
C1501 C1500 1.400 . S
C1501 C1502 1.398 . S
C1502 H1490 0.950 . S
C1502 C1501 1.398 . S
C1502 C1503 1.391 . S
C1503 H1491 0.950 . S
C1503 C1499 1.393 . S
C1503 C1502 1.391 . S
H1504 C1512 0.950 . S
H1505 C1517 0.950 . S
H1506 C1514 0.950 . S
H1507 C1516 0.950 . S
H1508 C1518 0.950 . S
H1509 C1520 0.950 . S
H1510 C1522 0.950 . S
H1511 C1523 0.950 . S
C1512 H1504 0.950 . S
C1512 C1513 1.386 . S
C1512 C1514 1.391 . S
C1513 C1512 1.386 . S
C1513 C1517 1.393 . S
C1514 H1506 0.950 . S
C1514 C1512 1.391 . S
C1514 C1515 1.400 . S
C1515 C1514 1.400 . S
C1515 C1516 1.398 . S
C1515 C1521 1.491 . S
C1516 H1507 0.950 . S
C1516 C1515 1.398 . S
C1516 C1517 1.391 . S
C1517 H1505 0.950 . S
C1517 C1513 1.393 . S
C1517 C1516 1.391 . S
C1518 H1508 0.950 . S
C1518 C1519 1.386 . S
C1518 C1520 1.391 . S
C1519 C1518 1.386 . S
C1519 C1523 1.393 . S
C1520 H1509 0.950 . S
C1520 C1518 1.391 . S
C1520 C1521 1.400 . S
C1521 C1515 1.491 . S
C1521 C1520 1.400 . S
C1521 C1522 1.398 . S
C1522 H1510 0.950 . S
C1522 C1521 1.398 . S
C1522 C1523 1.391 . S
C1523 H1511 0.950 . S
C1523 C1519 1.393 . S
C1523 C1522 1.391 . S
H1524 C1532 0.950 . S
H1525 C1537 0.950 . S
H1526 C1534 0.950 . S
H1527 C1536 0.950 . S
H1528 C1538 0.950 . S
H1529 C1540 0.950 . S
H1530 C1542 0.950 . S
H1531 C1543 0.950 . S
C1532 H1524 0.950 . S
C1532 C1533 1.386 . S
C1532 C1534 1.391 . S
C1533 C1532 1.386 . S
C1533 C1537 1.393 . S
C1534 H1526 0.950 . S
C1534 C1532 1.391 . S
C1534 C1535 1.400 . S
C1535 C1534 1.400 . S
C1535 C1536 1.398 . S
C1535 C1541 1.491 . S
C1536 H1527 0.950 . S
C1536 C1535 1.398 . S
C1536 C1537 1.391 . S
C1537 H1525 0.950 . S
C1537 C1533 1.393 . S
C1537 C1536 1.391 . S
C1538 H1528 0.950 . S
C1538 C1539 1.386 . S
C1538 C1540 1.391 . S
C1539 C1538 1.386 . S
C1539 C1543 1.393 . S
C1540 H1529 0.950 . S
C1540 C1538 1.391 . S
C1540 C1541 1.400 . S
C1541 C1535 1.491 . S
C1541 C1540 1.400 . S
C1541 C1542 1.398 . S
C1542 H1530 0.950 . S
C1542 C1541 1.398 . S
C1542 C1543 1.391 . S
C1543 H1531 0.950 . S
C1543 C1539 1.393 . S
C1543 C1542 1.391 . S
H1544 C1552 0.950 . S
H1545 C1557 0.950 . S
H1546 C1554 0.950 . S
H1547 C1556 0.950 . S
H1548 C1558 0.950 . S
H1549 C1560 0.950 . S
H1550 C1562 0.950 . S
H1551 C1563 0.950 . S
C1552 H1544 0.950 . S
C1552 C1553 1.386 . S
C1552 C1554 1.391 . S
C1553 C1552 1.386 . S
C1553 C1557 1.393 . S
C1554 H1546 0.950 . S
C1554 C1552 1.391 . S
C1554 C1555 1.400 . S
C1555 C1554 1.400 . S
C1555 C1556 1.398 . S
C1555 C1561 1.491 . S
C1556 H1547 0.950 . S
C1556 C1555 1.398 . S
C1556 C1557 1.391 . S
C1557 H1545 0.950 . S
C1557 C1553 1.393 . S
C1557 C1556 1.391 . S
C1558 H1548 0.950 . S
C1558 C1559 1.386 . S
C1558 C1560 1.391 . S
C1559 C1558 1.386 . S
C1559 C1563 1.393 . S
C1560 H1549 0.950 . S
C1560 C1558 1.391 . S
C1560 C1561 1.400 . S
C1561 C1555 1.491 . S
C1561 C1560 1.400 . S
C1561 C1562 1.398 . S
C1562 H1550 0.950 . S
C1562 C1561 1.398 . S
C1562 C1563 1.391 . S
C1563 H1551 0.950 . S
C1563 C1559 1.393 . S
C1563 C1562 1.391 . S
H1564 C1572 0.950 . S
H1565 C1577 0.950 . S
H1566 C1574 0.950 . S
H1567 C1576 0.950 . S
H1568 C1578 0.950 . S
H1569 C1580 0.950 . S
H1570 C1582 0.950 . S
H1571 C1583 0.950 . S
C1572 H1564 0.950 . S
C1572 C1573 1.386 . S
C1572 C1574 1.391 . S
C1573 C1572 1.386 . S
C1573 C1577 1.393 . S
C1574 H1566 0.950 . S
C1574 C1572 1.391 . S
C1574 C1575 1.400 . S
C1575 C1574 1.400 . S
C1575 C1576 1.398 . S
C1575 C1581 1.491 . S
C1576 H1567 0.950 . S
C1576 C1575 1.398 . S
C1576 C1577 1.391 . S
C1577 H1565 0.950 . S
C1577 C1573 1.393 . S
C1577 C1576 1.391 . S
C1578 H1568 0.950 . S
C1578 C1579 1.386 . S
C1578 C1580 1.391 . S
C1579 C1578 1.386 . S
C1579 C1583 1.393 . S
C1580 H1569 0.950 . S
C1580 C1578 1.391 . S
C1580 C1581 1.400 . S
C1581 C1575 1.491 . S
C1581 C1580 1.400 . S
C1581 C1582 1.398 . S
C1582 H1570 0.950 . S
C1582 C1581 1.398 . S
C1582 C1583 1.391 . S
C1583 H1571 0.950 . S
C1583 C1579 1.393 . S
C1583 C1582 1.391 . S
H1584 C1592 0.950 . S
H1585 C1597 0.950 . S
H1586 C1594 0.950 . S
H1587 C1596 0.950 . S
H1588 C1598 0.950 . S
H1589 C1600 0.950 1_554 S
H1590 C1602 0.950 . S
H1591 C1603 0.950 . S
C1592 H1584 0.950 . S
C1592 C1593 1.386 . S
C1592 C1594 1.391 . S
C1593 C1592 1.386 . S
C1593 C1597 1.393 1_556 S
C1594 H1586 0.950 . S
C1594 C1592 1.391 . S
C1594 C1595 1.400 . S
C1595 C1594 1.400 . S
C1595 C1596 1.398 1_556 S
C1595 C1601 1.491 . S
C1596 H1587 0.950 . S
C1596 C1595 1.398 1_554 S
C1596 C1597 1.391 . S
C1597 H1585 0.950 . S
C1597 C1593 1.393 1_554 S
C1597 C1596 1.391 . S
C1598 H1588 0.950 . S
C1598 C1599 1.386 . S
C1598 C1600 1.391 . S
C1599 C1598 1.386 . S
C1599 C1603 1.393 . S
C1600 H1589 0.950 1_556 S
C1600 C1598 1.391 . S
C1600 C1601 1.400 . S
C1601 C1595 1.491 . S
C1601 C1600 1.400 . S
C1601 C1602 1.398 . S
C1602 H1590 0.950 . S
C1602 C1601 1.398 . S
C1602 C1603 1.391 . S
C1603 H1591 0.950 . S
C1603 C1599 1.393 . S
C1603 C1602 1.391 . S
H1604 C1612 0.950 . S
H1605 C1617 0.950 . S
H1606 C1614 0.950 . S
H1607 C1616 0.950 . S
H1608 C1618 0.950 . S
H1609 C1620 0.950 . S
H1610 C1622 0.950 1_554 S
H1611 C1623 0.950 . S
C1612 H1604 0.950 . S
C1612 C1613 1.386 . S
C1612 C1614 1.391 . S
C1613 C1612 1.386 . S
C1613 C1617 1.393 . S
C1614 H1606 0.950 . S
C1614 C1612 1.391 . S
C1614 C1615 1.400 . S
C1615 C1614 1.400 . S
C1615 C1616 1.398 . S
C1615 C1621 1.491 . S
C1616 H1607 0.950 . S
C1616 C1615 1.398 . S
C1616 C1617 1.391 . S
C1617 H1605 0.950 . S
C1617 C1613 1.393 . S
C1617 C1616 1.391 . S
C1618 H1608 0.950 . S
C1618 C1619 1.386 . S
C1618 C1620 1.391 . S
C1619 C1618 1.386 . S
C1619 C1623 1.393 1_556 S
C1620 H1609 0.950 . S
C1620 C1618 1.391 . S
C1620 C1621 1.400 . S
C1621 C1615 1.491 . S
C1621 C1620 1.400 . S
C1621 C1622 1.398 . S
C1622 H1610 0.950 1_556 S
C1622 C1621 1.398 . S
C1622 C1623 1.391 1_556 S
C1623 H1611 0.950 . S
C1623 C1619 1.393 1_554 S
C1623 C1622 1.391 1_554 S
H1624 C1632 0.950 . S
H1625 C1637 0.950 . S
H1626 C1634 0.950 . S
H1627 C1636 0.950 . S
H1628 C1638 0.950 . S
H1629 C1640 0.950 . S
H1630 C1642 0.950 . S
H1631 C1643 0.950 . S
C1632 H1624 0.950 . S
C1632 C1633 1.386 . S
C1632 C1634 1.391 . S
C1633 C1632 1.386 . S
C1633 C1637 1.393 . S
C1634 H1626 0.950 . S
C1634 C1632 1.391 . S
C1634 C1635 1.400 . S
C1635 C1634 1.400 . S
C1635 C1636 1.398 . S
C1635 C1641 1.491 . S
C1636 H1627 0.950 . S
C1636 C1635 1.398 . S
C1636 C1637 1.391 . S
C1637 H1625 0.950 . S
C1637 C1633 1.393 . S
C1637 C1636 1.391 . S
C1638 H1628 0.950 . S
C1638 C1639 1.386 . S
C1638 C1640 1.391 . S
C1639 C1638 1.386 . S
C1639 C1643 1.393 . S
C1640 H1629 0.950 . S
C1640 C1638 1.391 . S
C1640 C1641 1.400 . S
C1641 C1635 1.491 . S
C1641 C1640 1.400 . S
C1641 C1642 1.398 . S
C1642 H1630 0.950 . S
C1642 C1641 1.398 . S
C1642 C1643 1.391 . S
C1643 H1631 0.950 . S
C1643 C1639 1.393 . S
C1643 C1642 1.391 . S
H1644 C1652 0.950 . S
H1645 C1657 0.950 . S
H1646 C1654 0.950 . S
H1647 C1656 0.950 . S
H1648 C1658 0.950 . S
H1649 C1660 0.950 . S
H1650 C1662 0.950 . S
H1651 C1663 0.950 . S
C1652 H1644 0.950 . S
C1652 C1653 1.386 . S
C1652 C1654 1.391 . S
C1653 C1652 1.386 . S
C1653 C1657 1.393 . S
C1654 H1646 0.950 . S
C1654 C1652 1.391 . S
C1654 C1655 1.400 . S
C1655 C1654 1.400 . S
C1655 C1656 1.398 . S
C1655 C1661 1.491 . S
C1656 H1647 0.950 . S
C1656 C1655 1.398 . S
C1656 C1657 1.391 . S
C1657 H1645 0.950 . S
C1657 C1653 1.393 . S
C1657 C1656 1.391 . S
C1658 H1648 0.950 . S
C1658 C1659 1.386 . S
C1658 C1660 1.391 . S
C1659 C1658 1.386 . S
C1659 C1663 1.393 . S
C1660 H1649 0.950 . S
C1660 C1658 1.391 . S
C1660 C1661 1.400 . S
C1661 C1655 1.491 . S
C1661 C1660 1.400 . S
C1661 C1662 1.398 . S
C1662 H1650 0.950 . S
C1662 C1661 1.398 . S
C1662 C1663 1.391 . S
C1663 H1651 0.950 . S
C1663 C1659 1.393 . S
C1663 C1662 1.391 . S
C553 C1 1.699 . S
C559 C173 1.768 . S
C573 C35 1.694 . S
C579 C139 1.746 . S
C593 C71 1.707 . S
C599 C377 1.746 . S
C613 C105 1.715 . S
C619 C341 1.751 . S
C633 C37 1.769 . S
C639 C137 1.699 . S
C653 C171 1.709 . S
C659 C3 1.748 . S
C673 C207 1.687 . S
C679 C513 1.756 . S
C693 C477 1.765 . S
C699 C241 1.716 . S
C713 C445 1.763 . S
C719 C275 1.690 . S
C733 C409 1.746 . S
C739 C307 1.699 . S
C753 C103 1.769 . S
C759 C343 1.711 . S
C773 C375 1.717 . S
C779 C69 1.755 . S
C793 C411 1.706 . S
C799 C309 1.768 . S
C813 C443 1.705 . S
C819 C273 1.769 . S
C833 C479 1.718 . S
C839 C239 1.761 . S
C853 C205 1.770 . S
C859 C511 1.704 . S
C873 C28 1.211 . S
C879 C6 1.210 . S
C893 C40 1.203 . S
C899 C62 1.215 . S
C913 C96 1.206 . S
C919 C74 1.216 1_556 S
C933 C130 1.214 . S
C939 C108 1.214 1_556 S
C953 C164 1.211 . S
C959 C142 1.203 . S
C973 C198 1.211 . S
C979 C176 1.208 . S
C993 C210 1.211 . S
C999 C232 1.209 1_554 S
C1013 C266 1.214 1_554 S
C1019 C244 1.214 . S
C1033 C278 1.214 . S
C1039 C300 1.202 . S
C1053 C334 1.215 . S
C1059 C312 1.204 . S
C1073 C368 1.205 1_554 S
C1079 C346 1.211 . S
C1093 C402 1.215 . S
C1099 C380 1.205 1_554 S
C1113 C436 1.211 . S
C1119 C414 1.216 . S
C1133 C448 1.212 . S
C1139 C470 1.212 . S
C1153 C482 1.213 1_556 S
C1159 C504 1.201 . S
C1173 C538 1.211 1_556 S
C1179 C516 1.206 . S
C1193 C15 1.407 . S
C1199 C49 1.405 . S
C1213 C90 1.419 . S
C1219 C525 1.390 . S
C1233 C124 1.387 . S
C1239 C498 1.417 . S
C1253 C185 1.416 . S
C1259 C151 1.395 . S
C1273 C389 1.421 . S
C1279 C226 1.385 . S
C1293 C260 1.421 . S
C1299 C362 1.388 . S
C1313 C321 1.403 . S
C1319 C294 1.409 . S
C1333 C457 1.399 . S
C1339 C430 1.403 . S
C1353 C17 1.847 . S
C1359 C219 1.804 1_545 S
C1373 C51 1.852 . S
C1379 C253 1.802 1_565 S
C1393 C85 1.845 . S
C1399 C22 1.810 . S
C1413 C56 1.811 . S
C1419 C119 1.847 . S
C1433 C83 1.808 . S
C1439 C153 1.849 . S
C1453 C117 1.800 . S
C1459 C187 1.853 . S
C1473 C221 1.853 . S
C1479 C158 1.797 . S
C1493 C192 1.809 . S
C1499 C255 1.848 . S
C1513 C491 1.799 1_545 S
C1519 C289 1.849 . S
C1533 C323 1.852 . S
C1539 C532 1.802 1_565 S
C1553 C287 1.806 . S
C1559 C357 1.846 . S
C1573 C391 1.846 . S
C1579 C328 1.813 . S
C1593 C425 1.853 . S
C1599 C355 1.801 . S
C1613 C396 1.809 . S
C1619 C459 1.845 . S
C1633 C493 1.845 . S
C1639 C423 1.810 . S
C1653 C527 1.854 . S
C1659 C464 1.794 . S
