# Generated by pormake.
# Topology lcy, (6)-cn, num edge types: 1
# Building blocks:
#     Node 0, Type 0, BuildingBlock: IZENUY_clean_sbu_0, # of connection points: 6
#     Node 1, Type 0, BuildingBlock: IZENUY_clean_sbu_0, # of connection points: 6
#     Node 2, Type 0, BuildingBlock: IZENUY_clean_sbu_0, # of connection points: 6
#     Node 3, Type 0, BuildingBlock: IZENUY_clean_sbu_0, # of connection points: 6
#     Edge 4, Type (0, 0), BuildingBlock: EZIPEK_clean_linker_0, # of connection points: 2
#     Edge 5, Type (0, 0), BuildingBlock: EZIPEK_clean_linker_0, # of connection points: 2
#     Edge 6, Type (0, 0), BuildingBlock: EZIPEK_clean_linker_0, # of connection points: 2
#     Edge 7, Type (0, 0), BuildingBlock: EZIPEK_clean_linker_0, # of connection points: 2
#     Edge 8, Type (0, 0), BuildingBlock: EZIPEK_clean_linker_0, # of connection points: 2
#     Edge 9, Type (0, 0), BuildingBlock: EZIPEK_clean_linker_0, # of connection points: 2
#     Edge 10, Type (0, 0), BuildingBlock: EZIPEK_clean_linker_0, # of connection points: 2
#     Edge 11, Type (0, 0), BuildingBlock: EZIPEK_clean_linker_0, # of connection points: 2
#     Edge 12, Type (0, 0), BuildingBlock: EZIPEK_clean_linker_0, # of connection points: 2
#     Edge 13, Type (0, 0), BuildingBlock: EZIPEK_clean_linker_0, # of connection points: 2
#     Edge 14, Type (0, 0), BuildingBlock: EZIPEK_clean_linker_0, # of connection points: 2
#     Edge 15, Type (0, 0), BuildingBlock: EZIPEK_clean_linker_0, # of connection points: 2
# Relax obj value: 0.232
# Max RMSD: 0.227
# Mean RMSD: 0.227
data_MOF--net-lcy--node1-IZENUY_clean_sbu_0--edge1-EZIPEK_clean_linker_0
_symmetry_space_group_name_H-M    P1
_symmetry_Int_Tables_number       1
_symmetry_cell_setting            triclinic
loop_
_symmetry_equiv_pos_as_xyz
'x, y, z'
_cell_length_a     18.883288
_cell_length_b     18.522029
_cell_length_c     18.885049
_cell_angle_alpha  89.916611
_cell_angle_beta   89.892905
_cell_angle_gamma 89.893366
loop_
_atom_site_label
_atom_site_type_symbol
_atom_site_fract_x
_atom_site_fract_y
_atom_site_fract_z
_atom_type_partial_charge
Fe0 Fe 0.46024 0.40074 0.3374 0.0
Fe1 Fe 0.37354 0.31781 0.44748 0.0
O2 O 0.38134 0.3887 0.38601 0.0
Fe3 Fe 0.31018 0.44831 0.37253 0.0
O4 O 0.30303 0.42064 0.28166 0.0
O5 O 0.41455 0.4397 0.25806 0.0
O6 O 0.45104 0.31472 0.29564 0.0
C7 C 0.44847 0.25597 0.32855 0.0
C8 C 0.43237 0.54054 0.36135 0.0
O9 O 0.42934 0.25381 0.39354 0.0
C10 C 0.3052 0.43881 0.51489 0.0
O11 O 0.51957 0.36217 0.40788 0.0
O12 O 0.44737 0.35072 0.49791 0.0
O13 O 0.36753 0.52649 0.3487 0.0
O14 O 0.47338 0.48886 0.376 0.0
C15 C 0.24089 0.31185 0.39541 0.0
O16 O 0.31625 0.37072 0.51049 0.0
O17 O 0.31415 0.4792 0.4622 0.0
C18 C 0.50915 0.3513 0.47392 0.0
O19 O 0.29904 0.27999 0.40185 0.0
O20 O 0.24023 0.38073 0.39458 0.0
C21 C 0.3505 0.4354 0.237 0.0
Fe22 Fe 0.80839 0.09565 0.65589 0.0
Fe23 Fe 0.87321 0.22481 0.57996 0.0
O24 O 0.88077 0.15302 0.64036 0.0
Fe25 Fe 0.96049 0.13811 0.68671 0.0
O26 O 0.97001 0.0503 0.64669 0.0
O27 O 0.86444 1.01543 0.6778 0.0
O28 O 0.80779 0.06492 0.56601 0.0
C29 C 0.79877 0.10654 0.51417 0.0
C30 C 0.8525 0.10667 0.78984 0.0
O31 O 0.81353 0.17388 0.51831 0.0
C32 C 0.95239 0.28304 0.69734 0.0
O33 O 0.73998 0.16518 0.6362 0.0
O34 O 0.80041 0.26435 0.62759 0.0
O35 O 0.91584 0.09973 0.76712 0.0
O36 O 0.80497 0.12413 0.7465 0.0
C37 C 1.00737 0.18853 0.54957 0.0
O38 O 0.93169 0.28658 0.633 0.0
O39 O 0.95473 0.2239 0.72956 0.0
C40 C 0.74168 0.23383 0.63395 0.0
O41 O 0.94513 0.1906 0.5273 0.0
O42 O 0.01903 0.17552 0.61498 0.0
C43 C 0.92871 0.9997 0.6634 0.0
Fe44 Fe 0.06346 0.63693 0.83832 0.0
Fe45 Fe 0.21476 0.59354 0.87207 0.0
O46 O 0.14217 0.65116 0.88607 0.0
Fe47 Fe 0.14802 0.72171 0.94772 0.0
O48 O 0.0757 0.68579 0.99857 0.0
O49 O 1.00357 0.67353 0.90919 0.0
O50 O 0.05336 0.54893 0.87778 0.0
C51 C 0.0951 0.49831 0.86212 0.0
C52 C 0.07064 0.78187 0.82919 0.0
O53 O 0.15943 0.51388 0.84839 0.0
C54 C 0.28017 0.73186 0.89551 0.0
O55 O 0.10986 0.59942 0.75865 0.0
O56 O 0.22084 0.62198 0.78122 0.0
O57 O 0.08991 0.78429 0.89412 0.0
O58 O 0.06976 0.72323 0.79617 0.0
C59 C 0.21947 0.60226 0.01448 0.0
O60 O 0.28272 0.66301 0.89406 0.0
O61 O 0.22116 0.76204 0.90172 0.0
C62 C 0.17363 0.60589 0.73694 0.0
O63 O 0.21177 0.56201 0.96164 0.0
O64 O 0.20698 0.67013 1.01026 0.0
C65 C 0.01395 0.68466 0.97507 0.0
Fe66 Fe 0.56402 0.9048 0.18609 0.0
Fe67 Fe 0.71392 0.94722 0.14769 0.0
O68 O 0.64154 0.89008 0.13583 0.0
Fe69 Fe 0.64687 0.81862 0.07538 0.0
O70 O 0.57353 0.8542 0.026 0.0
O71 O 0.503 0.86594 0.11721 0.0
O72 O 0.5512 0.9918 0.14524 0.0
C73 C 0.59268 0.0429 0.1593 0.0
C74 C 0.57307 0.76009 0.19693 0.0
O75 O 0.6577 0.02779 0.17027 0.0
C76 C 0.77976 0.80903 0.12603 0.0
O77 O 0.61214 0.94632 0.26366 0.0
O78 O 0.72081 0.91751 0.23826 0.0
O79 O 0.59004 0.75714 0.1313 0.0
O80 O 0.57316 0.81914 0.22953 0.0
C81 C 0.71763 0.9369 1.00599 0.0
O82 O 0.78198 0.87781 0.12576 0.0
O83 O 0.72096 0.77859 0.1202 0.0
C84 C 0.67741 0.9427 0.28171 0.0
O85 O 0.71003 0.97789 0.05826 0.0
O86 O 0.70484 0.86917 1.01101 0.0
C87 C 0.51221 0.85501 0.05091 0.0
C88 C 0.21631 0.51008 0.10978 0.0
C89 C 0.25342 0.56757 0.0772 0.0
C90 C 0.36411 0.52536 0.13392 0.0
C91 C 0.32544 0.46943 0.16865 0.0
N92 N 0.22396 0.39129 0.16268 0.0
N93 N 0.36387 0.62601 0.05084 0.0
C94 C 0.25417 0.45669 0.14828 0.0
C95 C 0.32773 0.57446 0.08778 0.0
N96 N 0.14422 0.50692 0.10428 0.0
N97 N 0.43566 0.53031 0.143 0.0
H98 H 0.33817 0.66679 0.02304 0.0
H99 H 0.4187 0.62884 0.0472 0.0
H100 H 0.46635 0.48704 0.16025 0.0
H101 H 0.4658 0.57504 0.12904 0.0
H102 H 0.11333 0.47014 0.1324 0.0
H103 H 0.11485 0.54584 0.07702 0.0
H104 H 0.1742 0.37614 0.14426 0.0
H105 H 0.25264 0.34896 0.18543 0.0
C106 C 0.76978 0.03144 0.32905 0.0
C107 C 0.70625 0.98984 0.33962 0.0
C108 C 0.69504 0.0445 0.45739 0.0
C109 C 0.76369 0.07532 0.45079 0.0
N110 N 0.87165 0.08686 0.38387 0.0
N111 N 0.61601 0.94888 0.42108 0.0
C112 C 0.80243 0.06569 0.38765 0.0
C113 C 0.67067 0.99459 0.40568 0.0
N114 N 0.79792 0.04243 0.26312 0.0
N115 N 0.65234 0.06393 0.51252 0.0
H116 H 0.59849 0.90903 0.38641 0.0
H117 H 0.59311 0.94532 0.4712 0.0
H118 H 0.66765 0.10182 0.54997 0.0
H119 H 0.5993 0.0489 0.51625 0.0
H120 H 0.8387 0.07903 0.25354 0.0
H121 H 0.77653 0.02352 0.21631 0.0
H122 H 0.9052 0.07215 0.3424 0.0
H123 H 0.89732 0.11379 0.42477 0.0
C124 C 0.27079 0.5842 0.64869 0.0
C125 C 0.19917 0.57217 0.6686 0.0
C126 C 0.19649 0.46774 0.58739 0.0
C127 C 0.27101 0.47368 0.57743 0.0
N128 N 0.38063 0.53281 0.60545 0.0
N129 N 0.08844 0.51329 0.64158 0.0
C130 C 0.30845 0.53052 0.6104 0.0
C131 C 0.1602 0.51708 0.6333 0.0
N132 N 0.30151 0.64928 0.66308 0.0
N133 N 0.16009 0.41688 0.55011 0.0
H134 H 0.05829 0.55711 0.65848 0.0
H135 H 0.05782 0.46904 0.62742 0.0
H136 H 0.18555 0.37555 0.52292 0.0
H137 H 0.10527 0.41497 0.54588 0.0
H138 H 0.35164 0.66385 0.645 0.0
H139 H 0.27296 0.69198 0.68531 0.0
H140 H 0.41161 0.56908 0.63388 0.0
H141 H 0.40982 0.49364 0.57835 0.0
C142 C 0.8272 0.96411 0.9348 0.0
C143 C 0.75255 0.97074 0.94356 0.0
C144 C 0.75519 0.08401 0.87682 0.0
C145 C 0.82682 0.07153 0.85728 0.0
N146 N 0.93643 1.00958 0.88297 0.0
N147 N 0.64402 0.03211 0.91507 0.0
C148 C 0.86469 1.0144 0.89087 0.0
C149 C 0.71626 0.02915 0.91173 0.0
N150 N 0.86245 0.91168 0.97141 0.0
N151 N 0.72554 0.15026 0.86493 0.0
H152 H 0.61399 0.99199 0.93977 0.0
H153 H 0.61404 0.0701 0.88746 0.0
H154 H 0.755 0.19339 0.84487 0.0
H155 H 0.67532 0.16477 0.88297 0.0
H156 H 0.91717 0.90907 0.97667 0.0
H157 H 0.83606 0.86981 0.99689 0.0
H158 H 0.96642 0.96467 0.89693 0.0
H159 H 0.96715 0.05303 0.8663 0.0
C160 C 0.12595 0.17262 0.48766 0.0
C161 C 0.06451 0.2151 0.50048 0.0
C162 C 0.10861 0.30544 0.41437 0.0
C163 C 0.1745 0.26983 0.41252 0.0
N164 N 0.22835 0.15186 0.41243 0.0
N165 N 0.99954 0.32652 0.47691 0.0
C166 C 0.17846 0.19795 0.43908 0.0
C167 C 0.05567 0.28203 0.46292 0.0
N168 N 0.13456 0.10828 0.52208 0.0
N169 N 0.09543 0.35937 0.36674 0.0
H170 H 0.9587 0.31417 0.51149 0.0
H171 H 0.99642 0.3795 0.45861 0.0
H172 H 0.13165 0.37283 0.32703 0.0
H173 H 0.04597 0.3834 0.36019 0.0
H174 H 0.18197 0.07947 0.52225 0.0
H175 H 0.09542 0.08536 0.55385 0.0
H176 H 0.23136 0.09733 0.42547 0.0
H177 H 0.26001 0.16561 0.36915 0.0
C178 C 0.07379 0.88018 0.73834 0.0
C179 C 0.03573 0.84357 0.79224 0.0
C180 C 0.92365 0.88744 0.741 0.0
C181 C 0.96204 0.932 0.69344 0.0
N182 N 0.06929 0.94339 0.62562 0.0
N183 N 0.92481 0.81794 0.84973 0.0
C184 C 0.03625 0.92067 0.68606 0.0
C185 C 0.96066 0.84876 0.79473 0.0
N186 N 0.1461 0.87697 0.73806 0.0
N187 N 0.8527 0.87749 0.73112 0.0
H188 H 0.95097 0.79538 0.89281 0.0
H189 H 0.87036 0.82228 0.85707 0.0
H190 H 0.82669 0.89621 0.68601 0.0
H191 H 0.82202 0.84205 0.76094 0.0
H192 H 0.17791 0.90787 0.70475 0.0
H193 H 0.17459 0.84757 0.77565 0.0
H194 H 0.12216 0.93299 0.61374 0.0
H195 H 0.04096 0.9647 0.583 0.0
C196 C 0.33944 0.84532 0.94408 0.0
C197 C 0.34524 0.77506 0.91399 0.0
C198 C 0.4642 0.76312 0.96332 0.0
C199 C 0.45418 0.82818 1.00347 0.0
N200 N 0.38182 0.93206 0.03048 0.0
N201 N 0.4262 0.68977 0.86394 0.0
C202 C 0.39165 0.86963 0.99322 0.0
C203 C 0.41187 0.74101 0.91395 0.0
N204 N 0.28814 0.89133 0.92017 0.0
N205 N 0.52095 0.71893 0.97552 0.0
H206 H 0.39013 0.67724 0.82397 0.0
H207 H 0.47624 0.66738 0.85608 0.0
H208 H 0.56105 0.73005 1.01117 0.0
H209 H 0.52507 0.66698 0.95487 0.0
H210 H 0.28357 0.94494 0.93597 0.0
H211 H 0.2568 0.87919 0.8764 0.0
H212 H 0.33378 0.95967 0.03241 0.0
H213 H 0.42057 0.95438 0.06293 0.0
C214 C 0.55306 0.17749 0.30299 0.0
C215 C 0.4806 0.19326 0.2908 0.0
C216 C 0.48697 0.12562 0.17834 0.0
C217 C 0.55959 0.10953 0.19172 0.0
N218 N 0.66584 0.15348 0.24747 0.0
N219 N 0.37847 0.18698 0.21533 0.0
C220 C 0.59409 0.14496 0.24855 0.0
C221 C 0.4475 0.16838 0.2278 0.0
N222 N 0.58326 0.19425 0.36643 0.0
N223 N 0.45698 0.1017 0.1169 0.0
H224 H 0.34763 0.21429 0.25266 0.0
H225 H 0.35128 0.17619 0.16876 0.0
H226 H 0.48743 0.08037 0.07571 0.0
H227 H 0.40322 0.10415 0.10543 0.0
H228 H 0.63435 0.17826 0.38028 0.0
H229 H 0.55454 0.21691 0.40788 0.0
H230 H 0.69335 0.18288 0.28551 0.0
H231 H 0.69611 0.14163 0.20275 0.0
C232 C 0.6806 0.34576 0.58349 0.0
C233 C 0.67598 0.27556 0.61396 0.0
C234 C 0.55816 0.26076 0.56261 0.0
C235 C 0.56705 0.32602 0.52254 0.0
N236 N 0.63737 0.4313 0.49599 0.0
N237 N 0.59607 0.18878 0.66316 0.0
C238 C 0.62845 0.36885 0.53352 0.0
C239 C 0.61021 0.23992 0.6129 0.0
N240 N 0.73072 0.39273 0.6076 0.0
N241 N 0.50269 0.21538 0.54965 0.0
H242 H 0.63149 0.17741 0.7041 0.0
H243 H 0.54647 0.16525 0.67007 0.0
H244 H 0.46274 0.226 0.51355 0.0
H245 H 0.4997 0.16323 0.57014 0.0
H246 H 0.73433 0.44637 0.59155 0.0
H247 H 0.76201 0.38119 0.65165 0.0
H248 H 0.68469 0.46001 0.49465 0.0
H249 H 0.59866 0.45248 0.46264 0.0
C250 C 0.09999 0.38763 0.78325 0.0
C251 C 0.06227 0.43064 0.83261 0.0
C252 C 0.95006 0.37908 0.78976 0.0
C253 C 0.98723 0.34427 0.73417 0.0
N254 N 0.09677 0.32141 0.67288 0.0
N255 N 0.95669 0.44048 0.90317 0.0
C256 C 0.06208 0.35027 0.72961 0.0
C257 C 0.98844 0.4187 0.84174 0.0
N258 N 0.17125 0.37785 0.79118 0.0
N259 N 0.87781 0.37517 0.79179 0.0
H260 H 0.98586 0.46191 0.94507 0.0
H261 H 0.90424 0.42962 0.9163 0.0
H262 H 0.84873 0.34673 0.75408 0.0
H263 H 0.84645 0.40465 0.82673 0.0
H264 H 0.20147 0.34343 0.75976 0.0
H265 H 0.19817 0.39542 0.83611 0.0
H266 H 0.15092 0.3267 0.66414 0.0
H267 H 0.06973 0.29953 0.63011 0.0
C268 C 0.89398 0.6694 0.03379 0.0
C269 C 0.95623 0.71107 0.02326 0.0
C270 C 0.91178 0.79999 0.1102 0.0
C271 C 0.84541 0.76562 0.10985 0.0
N272 N 0.78933 0.64899 0.10585 0.0
N273 N 0.02201 0.82098 0.05009 0.0
C274 C 0.84073 0.6946 0.08159 0.0
C275 C 0.96524 0.77694 0.06223 0.0
N276 N 0.88533 0.60604 0.99789 0.0
N277 N 0.9247 0.85252 0.1592 0.0
H278 H 0.06339 0.80895 0.01603 0.0
H279 H 0.02522 0.87351 0.06942 0.0
H280 H 0.88772 0.86593 0.19822 0.0
H281 H 0.97439 0.87534 0.16734 0.0
H282 H 0.83759 0.57809 0.99598 0.0
H283 H 0.92492 0.58311 0.96663 0.0
H284 H 0.78553 0.59495 0.09136 0.0
H285 H 0.75699 0.66217 0.14875 0.0
C286 C 0.46396 0.69194 0.23146 0.0
C287 C 0.53878 0.6987 0.23486 0.0
C288 C 0.53955 0.6204 0.34034 0.0
C289 C 0.46553 0.6087 0.3325 0.0
N290 N 0.3562 0.66411 0.29549 0.0
N291 N 0.64911 0.66765 0.29035 0.0
C292 C 0.42709 0.65355 0.28531 0.0
C293 C 0.57691 0.66262 0.2891 0.0
N294 N 0.42811 0.72058 0.17543 0.0
N295 N 0.57239 0.59614 0.40022 0.0
H296 H 0.67741 0.69807 0.25337 0.0
H297 H 0.68133 0.63763 0.324 0.0
H298 H 0.54392 0.57338 0.44208 0.0
H299 H 0.62514 0.60608 0.41252 0.0
H300 H 0.37394 0.7141 0.16762 0.0
H301 H 0.45421 0.74264 0.13206 0.0
H302 H 0.32598 0.70018 0.26585 0.0
H303 H 0.33009 0.64569 0.34072 0.0
loop_
_geom_bond_atom_site_label_1
_geom_bond_atom_site_label_2
_geom_bond_distance
_geom_bond_site_symmetry_2
_ccdc_geom_bond_type
Fe0 O2 1.918 . S
Fe0 O5 1.997 . S
Fe0 O6 2.002 . S
Fe0 O11 1.976 . S
Fe0 O14 1.996 . S
Fe1 O2 1.918 . S
Fe1 O9 1.997 . S
Fe1 O12 1.996 . S
Fe1 O16 1.976 . S
Fe1 O19 2.002 . S
O2 Fe0 1.918 . S
O2 Fe1 1.918 . S
O2 Fe3 1.918 . S
Fe3 O2 1.918 . S
Fe3 O4 2.002 . S
Fe3 O13 1.976 . S
Fe3 O17 1.996 . S
Fe3 O20 1.997 . S
O4 Fe3 2.002 . S
O4 C21 1.295 . S
O5 Fe0 1.997 . S
O5 C21 1.235 . S
O6 Fe0 2.002 . S
O6 C7 1.295 . S
C7 O6 1.295 . S
C7 O9 1.235 . S
C8 O13 1.287 . S
C8 O14 1.255 . S
O9 Fe1 1.997 . S
O9 C7 1.235 . S
C10 O16 1.287 . S
C10 O17 1.255 . S
O11 Fe0 1.976 . S
O11 C18 1.287 . S
O12 Fe1 1.996 . S
O12 C18 1.255 . S
O13 Fe3 1.976 . S
O13 C8 1.287 . S
O14 Fe0 1.996 . S
O14 C8 1.255 . S
C15 O19 1.295 . S
C15 O20 1.235 . S
O16 Fe1 1.976 . S
O16 C10 1.287 . S
O17 Fe3 1.996 . S
O17 C10 1.255 . S
C18 O11 1.287 . S
C18 O12 1.255 . S
O19 Fe1 2.002 . S
O19 C15 1.295 . S
O20 Fe3 1.997 . S
O20 C15 1.235 . S
C21 O4 1.295 . S
C21 O5 1.235 . S
Fe22 O24 1.918 . S
Fe22 O27 1.997 1_545 S
Fe22 O28 2.002 . S
Fe22 O33 1.976 . S
Fe22 O36 1.996 . S
Fe23 O24 1.918 . S
Fe23 O31 1.997 . S
Fe23 O34 1.996 . S
Fe23 O38 1.976 . S
Fe23 O41 2.002 . S
O24 Fe22 1.918 . S
O24 Fe23 1.918 . S
O24 Fe25 1.918 . S
Fe25 O24 1.918 . S
Fe25 O26 2.002 . S
Fe25 O35 1.976 . S
Fe25 O39 1.996 . S
Fe25 O42 1.997 1_655 S
O26 Fe25 2.002 . S
O26 C43 1.295 1_545 S
O27 Fe22 1.997 1_565 S
O27 C43 1.235 . S
O28 Fe22 2.002 . S
O28 C29 1.295 . S
C29 O28 1.295 . S
C29 O31 1.235 . S
C30 O35 1.287 . S
C30 O36 1.255 . S
O31 Fe23 1.997 . S
O31 C29 1.235 . S
C32 O38 1.287 . S
C32 O39 1.255 . S
O33 Fe22 1.976 . S
O33 C40 1.287 . S
O34 Fe23 1.996 . S
O34 C40 1.255 . S
O35 Fe25 1.976 . S
O35 C30 1.287 . S
O36 Fe22 1.996 . S
O36 C30 1.255 . S
C37 O41 1.295 1_455 S
C37 O42 1.235 . S
O38 Fe23 1.976 . S
O38 C32 1.287 . S
O39 Fe25 1.996 . S
O39 C32 1.255 . S
C40 O33 1.287 . S
C40 O34 1.255 . S
O41 Fe23 2.002 . S
O41 C37 1.295 1_655 S
O42 Fe25 1.997 1_455 S
O42 C37 1.235 . S
C43 O26 1.295 1_565 S
C43 O27 1.235 . S
Fe44 O46 1.918 . S
Fe44 O49 1.997 1_455 S
Fe44 O50 2.002 . S
Fe44 O55 1.976 . S
Fe44 O58 1.996 . S
Fe45 O46 1.918 . S
Fe45 O53 1.997 . S
Fe45 O56 1.996 . S
Fe45 O60 1.976 . S
Fe45 O63 2.002 . S
O46 Fe44 1.918 . S
O46 Fe45 1.918 . S
O46 Fe47 1.918 . S
Fe47 O46 1.918 . S
Fe47 O48 2.002 . S
Fe47 O57 1.976 . S
Fe47 O61 1.996 . S
Fe47 O64 1.997 1_556 S
O48 Fe47 2.002 . S
O48 C65 1.295 1_455 S
O49 Fe44 1.997 1_655 S
O49 C65 1.235 . S
O50 Fe44 2.002 . S
O50 C51 1.295 . S
C51 O50 1.295 . S
C51 O53 1.235 . S
C52 O57 1.287 . S
C52 O58 1.255 . S
O53 Fe45 1.997 . S
O53 C51 1.235 . S
C54 O60 1.287 . S
C54 O61 1.255 . S
O55 Fe44 1.976 . S
O55 C62 1.287 . S
O56 Fe45 1.996 . S
O56 C62 1.255 . S
O57 Fe47 1.976 . S
O57 C52 1.287 . S
O58 Fe44 1.996 . S
O58 C52 1.255 . S
C59 O63 1.295 1_554 S
C59 O64 1.235 . S
O60 Fe45 1.976 . S
O60 C54 1.287 . S
O61 Fe47 1.996 . S
O61 C54 1.255 . S
C62 O55 1.287 . S
C62 O56 1.255 . S
O63 Fe45 2.002 . S
O63 C59 1.295 1_556 S
O64 Fe47 1.997 1_554 S
O64 C59 1.235 . S
C65 O48 1.295 1_655 S
C65 O49 1.235 . S
Fe66 O68 1.918 . S
Fe66 O71 1.997 . S
Fe66 O72 2.002 . S
Fe66 O77 1.976 . S
Fe66 O80 1.996 . S
Fe67 O68 1.918 . S
Fe67 O75 1.997 1_565 S
Fe67 O78 1.996 . S
Fe67 O82 1.976 . S
Fe67 O85 2.002 . S
O68 Fe66 1.918 . S
O68 Fe67 1.918 . S
O68 Fe69 1.918 . S
Fe69 O68 1.918 . S
Fe69 O70 2.002 . S
Fe69 O79 1.976 . S
Fe69 O83 1.996 . S
Fe69 O86 1.997 1_554 S
O70 Fe69 2.002 . S
O70 C87 1.295 . S
O71 Fe66 1.997 . S
O71 C87 1.235 . S
O72 Fe66 2.002 . S
O72 C73 1.295 1_565 S
C73 O72 1.295 1_545 S
C73 O75 1.235 . S
C74 O79 1.287 . S
C74 O80 1.255 . S
O75 Fe67 1.997 1_545 S
O75 C73 1.235 . S
C76 O82 1.287 . S
C76 O83 1.255 . S
O77 Fe66 1.976 . S
O77 C84 1.287 . S
O78 Fe67 1.996 . S
O78 C84 1.255 . S
O79 Fe69 1.976 . S
O79 C74 1.287 . S
O80 Fe66 1.996 . S
O80 C74 1.255 . S
C81 O85 1.295 1_556 S
C81 O86 1.235 . S
O82 Fe67 1.976 . S
O82 C76 1.287 . S
O83 Fe69 1.996 . S
O83 C76 1.255 . S
C84 O77 1.287 . S
C84 O78 1.255 . S
O85 Fe67 2.002 . S
O85 C81 1.295 1_554 S
O86 Fe69 1.997 1_556 S
O86 C81 1.235 . S
C87 O70 1.295 . S
C87 O71 1.235 . S
C88 C89 1.363 . S
C88 C94 1.379 . S
C88 N96 1.356 . S
C89 C88 1.363 . S
C89 C95 1.363 . S
C90 C91 1.363 . S
C90 C95 1.379 . S
C90 N97 1.356 . S
C91 C90 1.363 . S
C91 C94 1.363 . S
N92 C94 1.356 . S
N92 H104 0.984 . S
N92 H105 0.985 . S
N93 C95 1.356 . S
N93 H98 0.984 . S
N93 H99 0.985 . S
C94 C88 1.379 . S
C94 C91 1.363 . S
C94 N92 1.356 . S
C95 C89 1.363 . S
C95 C90 1.379 . S
C95 N93 1.356 . S
N96 C88 1.356 . S
N96 H102 0.984 . S
N96 H103 0.984 . S
N97 C90 1.356 . S
N97 H100 0.984 . S
N97 H101 0.985 . S
H98 N93 0.984 . S
H99 N93 0.985 . S
H100 N97 0.984 . S
H101 N97 0.985 . S
H102 N96 0.984 . S
H103 N96 0.984 . S
H104 N92 0.984 . S
H105 N92 0.985 . S
C106 C107 1.363 . S
C106 C112 1.379 1_565 S
C106 N114 1.356 . S
C107 C106 1.363 . S
C107 C113 1.363 . S
C108 C109 1.363 1_565 S
C108 C113 1.379 . S
C108 N115 1.356 . S
C109 C108 1.363 1_545 S
C109 C112 1.363 . S
N110 C112 1.356 . S
N110 H122 0.984 . S
N110 H123 0.985 . S
N111 C113 1.356 . S
N111 H116 0.984 . S
N111 H117 0.985 . S
C112 C106 1.379 1_545 S
C112 C109 1.363 . S
C112 N110 1.356 . S
C113 C107 1.363 . S
C113 C108 1.379 . S
C113 N111 1.356 . S
N114 C106 1.356 . S
N114 H120 0.984 1_565 S
N114 H121 0.984 . S
N115 C108 1.356 . S
N115 H118 0.984 1_565 S
N115 H119 0.985 . S
H116 N111 0.984 . S
H117 N111 0.985 . S
H118 N115 0.984 1_545 S
H119 N115 0.985 . S
H120 N114 0.984 1_545 S
H121 N114 0.984 . S
H122 N110 0.984 . S
H123 N110 0.985 . S
C124 C125 1.363 . S
C124 C130 1.379 . S
C124 N132 1.356 . S
C125 C124 1.363 . S
C125 C131 1.363 . S
C126 C127 1.363 . S
C126 C131 1.379 . S
C126 N133 1.356 . S
C127 C126 1.363 . S
C127 C130 1.363 . S
N128 C130 1.356 . S
N128 H140 0.984 . S
N128 H141 0.985 . S
N129 C131 1.356 . S
N129 H134 0.984 . S
N129 H135 0.985 . S
C130 C124 1.379 . S
C130 C127 1.363 . S
C130 N128 1.356 . S
C131 C125 1.363 . S
C131 C126 1.379 . S
C131 N129 1.356 . S
N132 C124 1.356 . S
N132 H138 0.984 . S
N132 H139 0.984 . S
N133 C126 1.356 . S
N133 H136 0.984 . S
N133 H137 0.985 . S
H134 N129 0.984 . S
H135 N129 0.985 . S
H136 N133 0.984 . S
H137 N133 0.985 . S
H138 N132 0.984 . S
H139 N132 0.984 . S
H140 N128 0.984 . S
H141 N128 0.985 . S
C142 C143 1.363 . S
C142 C148 1.379 . S
C142 N150 1.356 . S
C143 C142 1.363 . S
C143 C149 1.363 1_565 S
C144 C145 1.363 . S
C144 C149 1.379 . S
C144 N151 1.356 . S
C145 C144 1.363 . S
C145 C148 1.363 1_545 S
N146 C148 1.356 . S
N146 H158 0.984 . S
N146 H159 0.985 1_565 S
N147 C149 1.356 . S
N147 H152 0.984 1_545 S
N147 H153 0.985 . S
C148 C142 1.379 . S
C148 C145 1.363 1_565 S
C148 N146 1.356 . S
C149 C143 1.363 1_545 S
C149 C144 1.379 . S
C149 N147 1.356 . S
N150 C142 1.356 . S
N150 H156 0.984 . S
N150 H157 0.984 . S
N151 C144 1.356 . S
N151 H154 0.984 . S
N151 H155 0.985 . S
H152 N147 0.984 1_565 S
H153 N147 0.985 . S
H154 N151 0.984 . S
H155 N151 0.985 . S
H156 N150 0.984 . S
H157 N150 0.984 . S
H158 N146 0.984 . S
H159 N146 0.985 1_545 S
C160 C161 1.363 . S
C160 C166 1.379 . S
C160 N168 1.356 . S
C161 C160 1.363 . S
C161 C167 1.363 . S
C162 C163 1.363 . S
C162 C167 1.379 . S
C162 N169 1.356 . S
C163 C162 1.363 . S
C163 C166 1.363 . S
N164 C166 1.356 . S
N164 H176 0.984 . S
N164 H177 0.985 . S
N165 C167 1.356 1_655 S
N165 H170 0.984 . S
N165 H171 0.985 . S
C166 C160 1.379 . S
C166 C163 1.363 . S
C166 N164 1.356 . S
C167 C161 1.363 . S
C167 C162 1.379 . S
C167 N165 1.356 1_455 S
N168 C160 1.356 . S
N168 H174 0.984 . S
N168 H175 0.984 . S
N169 C162 1.356 . S
N169 H172 0.984 . S
N169 H173 0.985 . S
H170 N165 0.984 . S
H171 N165 0.985 . S
H172 N169 0.984 . S
H173 N169 0.985 . S
H174 N168 0.984 . S
H175 N168 0.984 . S
H176 N164 0.984 . S
H177 N164 0.985 . S
C178 C179 1.363 . S
C178 C184 1.379 . S
C178 N186 1.356 . S
C179 C178 1.363 . S
C179 C185 1.363 1_455 S
C180 C181 1.363 . S
C180 C185 1.379 . S
C180 N187 1.356 . S
C181 C180 1.363 . S
C181 C184 1.363 1_655 S
N182 C184 1.356 . S
N182 H194 0.984 . S
N182 H195 0.985 . S
N183 C185 1.356 . S
N183 H188 0.984 1_655 S
N183 H189 0.985 . S
C184 C178 1.379 . S
C184 C181 1.363 1_455 S
C184 N182 1.356 . S
C185 C179 1.363 1_655 S
C185 C180 1.379 . S
C185 N183 1.356 . S
N186 C178 1.356 . S
N186 H192 0.984 . S
N186 H193 0.984 . S
N187 C180 1.356 . S
N187 H190 0.984 . S
N187 H191 0.985 . S
H188 N183 0.984 1_455 S
H189 N183 0.985 . S
H190 N187 0.984 . S
H191 N187 0.985 . S
H192 N186 0.984 . S
H193 N186 0.984 . S
H194 N182 0.984 . S
H195 N182 0.985 . S
C196 C197 1.363 . S
C196 C202 1.379 . S
C196 N204 1.356 . S
C197 C196 1.363 . S
C197 C203 1.363 . S
C198 C199 1.363 . S
C198 C203 1.379 1_554 S
C198 N205 1.356 . S
C199 C198 1.363 . S
C199 C202 1.363 1_554 S
N200 C202 1.356 1_554 S
N200 H212 0.984 . S
N200 H213 0.985 . S
N201 C203 1.356 . S
N201 H206 0.984 . S
N201 H207 0.985 . S
C202 C196 1.379 . S
C202 C199 1.363 1_556 S
C202 N200 1.356 1_556 S
C203 C197 1.363 . S
C203 C198 1.379 1_556 S
C203 N201 1.356 . S
N204 C196 1.356 . S
N204 H210 0.984 . S
N204 H211 0.984 . S
N205 C198 1.356 . S
N205 H208 0.984 . S
N205 H209 0.985 . S
H206 N201 0.984 . S
H207 N201 0.985 . S
H208 N205 0.984 . S
H209 N205 0.985 . S
H210 N204 0.984 . S
H211 N204 0.984 . S
H212 N200 0.984 . S
H213 N200 0.985 . S
C214 C215 1.363 . S
C214 C220 1.379 . S
C214 N222 1.356 . S
C215 C214 1.363 . S
C215 C221 1.363 . S
C216 C217 1.363 . S
C216 C221 1.379 . S
C216 N223 1.356 . S
C217 C216 1.363 . S
C217 C220 1.363 . S
N218 C220 1.356 . S
N218 H230 0.984 . S
N218 H231 0.985 . S
N219 C221 1.356 . S
N219 H224 0.984 . S
N219 H225 0.985 . S
C220 C214 1.379 . S
C220 C217 1.363 . S
C220 N218 1.356 . S
C221 C215 1.363 . S
C221 C216 1.379 . S
C221 N219 1.356 . S
N222 C214 1.356 . S
N222 H228 0.984 . S
N222 H229 0.984 . S
N223 C216 1.356 . S
N223 H226 0.984 . S
N223 H227 0.985 . S
H224 N219 0.984 . S
H225 N219 0.985 . S
H226 N223 0.984 . S
H227 N223 0.985 . S
H228 N222 0.984 . S
H229 N222 0.984 . S
H230 N218 0.984 . S
H231 N218 0.985 . S
C232 C233 1.363 . S
C232 C238 1.379 . S
C232 N240 1.356 . S
C233 C232 1.363 . S
C233 C239 1.363 . S
C234 C235 1.363 . S
C234 C239 1.379 . S
C234 N241 1.356 . S
C235 C234 1.363 . S
C235 C238 1.363 . S
N236 C238 1.356 . S
N236 H248 0.984 . S
N236 H249 0.985 . S
N237 C239 1.356 . S
N237 H242 0.984 . S
N237 H243 0.985 . S
C238 C232 1.379 . S
C238 C235 1.363 . S
C238 N236 1.356 . S
C239 C233 1.363 . S
C239 C234 1.379 . S
C239 N237 1.356 . S
N240 C232 1.356 . S
N240 H246 0.984 . S
N240 H247 0.984 . S
N241 C234 1.356 . S
N241 H244 0.984 . S
N241 H245 0.985 . S
H242 N237 0.984 . S
H243 N237 0.985 . S
H244 N241 0.984 . S
H245 N241 0.985 . S
H246 N240 0.984 . S
H247 N240 0.984 . S
H248 N236 0.984 . S
H249 N236 0.985 . S
C250 C251 1.363 . S
C250 C256 1.379 . S
C250 N258 1.356 . S
C251 C250 1.363 . S
C251 C257 1.363 1_455 S
C252 C253 1.363 . S
C252 C257 1.379 . S
C252 N259 1.356 . S
C253 C252 1.363 . S
C253 C256 1.363 1_655 S
N254 C256 1.356 . S
N254 H266 0.984 . S
N254 H267 0.985 1_455 S
N255 C257 1.356 . S
N255 H260 0.984 1_655 S
N255 H261 0.985 . S
C256 C250 1.379 . S
C256 C253 1.363 1_455 S
C256 N254 1.356 . S
C257 C251 1.363 1_655 S
C257 C252 1.379 . S
C257 N255 1.356 . S
N258 C250 1.356 . S
N258 H264 0.984 . S
N258 H265 0.984 . S
N259 C252 1.356 . S
N259 H262 0.984 . S
N259 H263 0.985 . S
H260 N255 0.984 1_455 S
H261 N255 0.985 . S
H262 N259 0.984 . S
H263 N259 0.985 . S
H264 N258 0.984 . S
H265 N258 0.984 . S
H266 N254 0.984 . S
H267 N254 0.985 1_655 S
C268 C269 1.363 . S
C268 C274 1.379 1_556 S
C268 N276 1.356 . S
C269 C268 1.363 . S
C269 C275 1.363 1_556 S
C270 C271 1.363 . S
C270 C275 1.379 . S
C270 N277 1.356 . S
C271 C270 1.363 . S
C271 C274 1.363 . S
N272 C274 1.356 . S
N272 H284 0.984 . S
N272 H285 0.985 . S
N273 C275 1.356 1_456 S
N273 H278 0.984 . S
N273 H279 0.985 1_556 S
C274 C268 1.379 1_554 S
C274 C271 1.363 . S
C274 N272 1.356 . S
C275 C269 1.363 1_554 S
C275 C270 1.379 . S
C275 N273 1.356 1_654 S
N276 C268 1.356 . S
N276 H282 0.984 . S
N276 H283 0.984 . S
N277 C270 1.356 . S
N277 H280 0.984 . S
N277 H281 0.985 . S
H278 N273 0.984 . S
H279 N273 0.985 1_554 S
H280 N277 0.984 . S
H281 N277 0.985 . S
H282 N276 0.984 . S
H283 N276 0.984 . S
H284 N272 0.984 . S
H285 N272 0.985 . S
C286 C287 1.363 . S
C286 C292 1.379 . S
C286 N294 1.356 . S
C287 C286 1.363 . S
C287 C293 1.363 . S
C288 C289 1.363 . S
C288 C293 1.379 . S
C288 N295 1.356 . S
C289 C288 1.363 . S
C289 C292 1.363 . S
N290 C292 1.356 . S
N290 H302 0.984 . S
N290 H303 0.985 . S
N291 C293 1.356 . S
N291 H296 0.984 . S
N291 H297 0.985 . S
C292 C286 1.379 . S
C292 C289 1.363 . S
C292 N290 1.356 . S
C293 C287 1.363 . S
C293 C288 1.379 . S
C293 N291 1.356 . S
N294 C286 1.356 . S
N294 H300 0.984 . S
N294 H301 0.984 . S
N295 C288 1.356 . S
N295 H298 0.984 . S
N295 H299 0.985 . S
H296 N291 0.984 . S
H297 N291 0.985 . S
H298 N295 0.984 . S
H299 N295 0.985 . S
H300 N294 0.984 . S
H301 N294 0.984 . S
H302 N290 0.984 . S
H303 N290 0.985 . S
C89 C59 1.492 . S
C91 C21 1.484 . S
C107 C84 1.466 . S
C109 C29 1.442 . S
C125 C62 1.419 . S
C127 C10 1.424 . S
C143 C81 1.442 . S
C145 C30 1.466 . S
C161 C37 1.492 . S
C163 C15 1.484 . S
C179 C52 1.466 . S
C181 C43 1.442 . S
C197 C54 1.466 . S
C199 C87 1.442 . S
C215 C7 1.484 . S
C217 C73 1.492 . S
C233 C40 1.419 . S
C235 C18 1.424 . S
C251 C51 1.442 . S
C253 C32 1.466 . S
C269 C65 1.442 . S
C271 C76 1.466 . S
C287 C74 1.419 . S
C289 C8 1.424 . S
