# Generated by pormake.
# Topology gsi, (4)-cn, num edge types: 1
# Building blocks:
#     Node 0, Type 0, BuildingBlock: KUFVIS_clean_sbu_0, # of connection points: 4
#     Node 1, Type 0, BuildingBlock: KUFVIS_clean_sbu_0, # of connection points: 4
#     Node 2, Type 0, BuildingBlock: KUFVIS_clean_sbu_0, # of connection points: 4
#     Node 3, Type 0, BuildingBlock: KUFVIS_clean_sbu_0, # of connection points: 4
#     Node 4, Type 0, BuildingBlock: KUFVIS_clean_sbu_0, # of connection points: 4
#     Node 5, Type 0, BuildingBlock: KUFVIS_clean_sbu_0, # of connection points: 4
#     Node 6, Type 0, BuildingBlock: KUFVIS_clean_sbu_0, # of connection points: 4
#     Node 7, Type 0, BuildingBlock: KUFVIS_clean_sbu_0, # of connection points: 4
#     Node 8, Type 0, BuildingBlock: KUFVIS_clean_sbu_0, # of connection points: 4
#     Node 9, Type 0, BuildingBlock: KUFVIS_clean_sbu_0, # of connection points: 4
#     Node 10, Type 0, BuildingBlock: KUFVIS_clean_sbu_0, # of connection points: 4
#     Node 11, Type 0, BuildingBlock: KUFVIS_clean_sbu_0, # of connection points: 4
#     Node 12, Type 0, BuildingBlock: KUFVIS_clean_sbu_0, # of connection points: 4
#     Node 13, Type 0, BuildingBlock: KUFVIS_clean_sbu_0, # of connection points: 4
#     Node 14, Type 0, BuildingBlock: KUFVIS_clean_sbu_0, # of connection points: 4
#     Node 15, Type 0, BuildingBlock: KUFVIS_clean_sbu_0, # of connection points: 4
#     Edge 16, Type (0, 0), BuildingBlock: MIFKUJ_clean_linker_0, # of connection points: 2
#     Edge 17, Type (0, 0), BuildingBlock: MIFKUJ_clean_linker_0, # of connection points: 2
#     Edge 18, Type (0, 0), BuildingBlock: MIFKUJ_clean_linker_0, # of connection points: 2
#     Edge 19, Type (0, 0), BuildingBlock: MIFKUJ_clean_linker_0, # of connection points: 2
#     Edge 20, Type (0, 0), BuildingBlock: MIFKUJ_clean_linker_0, # of connection points: 2
#     Edge 21, Type (0, 0), BuildingBlock: MIFKUJ_clean_linker_0, # of connection points: 2
#     Edge 22, Type (0, 0), BuildingBlock: MIFKUJ_clean_linker_0, # of connection points: 2
#     Edge 23, Type (0, 0), BuildingBlock: MIFKUJ_clean_linker_0, # of connection points: 2
#     Edge 24, Type (0, 0), BuildingBlock: MIFKUJ_clean_linker_0, # of connection points: 2
#     Edge 25, Type (0, 0), BuildingBlock: MIFKUJ_clean_linker_0, # of connection points: 2
#     Edge 26, Type (0, 0), BuildingBlock: MIFKUJ_clean_linker_0, # of connection points: 2
#     Edge 27, Type (0, 0), BuildingBlock: MIFKUJ_clean_linker_0, # of connection points: 2
#     Edge 28, Type (0, 0), BuildingBlock: MIFKUJ_clean_linker_0, # of connection points: 2
#     Edge 29, Type (0, 0), BuildingBlock: MIFKUJ_clean_linker_0, # of connection points: 2
#     Edge 30, Type (0, 0), BuildingBlock: MIFKUJ_clean_linker_0, # of connection points: 2
#     Edge 31, Type (0, 0), BuildingBlock: MIFKUJ_clean_linker_0, # of connection points: 2
#     Edge 32, Type (0, 0), BuildingBlock: MIFKUJ_clean_linker_0, # of connection points: 2
#     Edge 33, Type (0, 0), BuildingBlock: MIFKUJ_clean_linker_0, # of connection points: 2
#     Edge 34, Type (0, 0), BuildingBlock: MIFKUJ_clean_linker_0, # of connection points: 2
#     Edge 35, Type (0, 0), BuildingBlock: MIFKUJ_clean_linker_0, # of connection points: 2
#     Edge 36, Type (0, 0), BuildingBlock: MIFKUJ_clean_linker_0, # of connection points: 2
#     Edge 37, Type (0, 0), BuildingBlock: MIFKUJ_clean_linker_0, # of connection points: 2
#     Edge 38, Type (0, 0), BuildingBlock: MIFKUJ_clean_linker_0, # of connection points: 2
#     Edge 39, Type (0, 0), BuildingBlock: MIFKUJ_clean_linker_0, # of connection points: 2
#     Edge 40, Type (0, 0), BuildingBlock: MIFKUJ_clean_linker_0, # of connection points: 2
#     Edge 41, Type (0, 0), BuildingBlock: MIFKUJ_clean_linker_0, # of connection points: 2
#     Edge 42, Type (0, 0), BuildingBlock: MIFKUJ_clean_linker_0, # of connection points: 2
#     Edge 43, Type (0, 0), BuildingBlock: MIFKUJ_clean_linker_0, # of connection points: 2
#     Edge 44, Type (0, 0), BuildingBlock: MIFKUJ_clean_linker_0, # of connection points: 2
#     Edge 45, Type (0, 0), BuildingBlock: MIFKUJ_clean_linker_0, # of connection points: 2
#     Edge 46, Type (0, 0), BuildingBlock: MIFKUJ_clean_linker_0, # of connection points: 2
#     Edge 47, Type (0, 0), BuildingBlock: MIFKUJ_clean_linker_0, # of connection points: 2
# Relax obj value: 0.116
# Max RMSD: 0.168
# Mean RMSD: 0.121
data_MOF--net-gsi--node1-KUFVIS_clean_sbu_0--edge1-MIFKUJ_clean_linker_0
_symmetry_space_group_name_H-M    P1
_symmetry_Int_Tables_number       1
_symmetry_cell_setting            triclinic
loop_
_symmetry_equiv_pos_as_xyz
'x, y, z'
_cell_length_a     54.911373
_cell_length_b     53.411403
_cell_length_c     53.635356
_cell_angle_alpha  92.535358
_cell_angle_beta   91.967094
_cell_angle_gamma 95.913621
loop_
_atom_site_label
_atom_site_type_symbol
_atom_site_fract_x
_atom_site_fract_y
_atom_site_fract_z
_atom_type_partial_charge
Mn0 Mn 0.15309 0.15237 0.14188 0.0
Mn1 Mn 0.14246 0.15759 0.20353 0.0
C2 C 0.17367 0.18495 0.16723 0.0
C3 C 0.17424 0.1384 0.1073 0.0
C4 C 0.10707 0.17217 0.16348 0.0
O5 O 0.13841 0.11642 0.14959 0.0
O6 O 0.13327 0.12235 0.19101 0.0
C7 C 0.17875 0.12542 0.22331 0.0
N8 N 0.16962 0.14816 0.22284 0.0
C9 C 0.19688 0.16503 0.25688 0.0
C10 C 0.20656 0.14178 0.2578 0.0
C11 C 0.19759 0.12195 0.24079 0.0
C12 C 0.17852 0.16754 0.23872 0.0
H13 H 0.17161 0.10998 0.21057 0.0
C14 C 0.13245 0.10832 0.17098 0.0
O15 O 0.15209 0.1446 0.10507 0.0
O16 O 0.18377 0.13908 0.12986 0.0
N17 N 0.15114 0.19078 0.21812 0.0
C18 C 0.14062 0.21233 0.21403 0.0
C19 C 0.14839 0.2343 0.22873 0.0
C20 C 0.16651 0.23373 0.24778 0.0
C21 C 0.17684 0.21124 0.25179 0.0
C22 C 0.16874 0.1901 0.23623 0.0
H23 H 0.12638 0.21277 0.19972 0.0
O24 O 0.17084 0.1874 0.14336 0.0
O25 O 0.16395 0.16389 0.17546 0.0
O26 O 0.11999 0.16716 0.14496 0.0
O27 O 0.11339 0.16834 0.18596 0.0
C28 C 0.1947 0.20889 0.27078 0.0
C29 C 0.20463 0.18575 0.27336 0.0
H30 H 0.22091 0.13898 0.27146 0.0
H31 H 0.20497 0.10395 0.24135 0.0
H32 H 0.14025 0.25155 0.22556 0.0
H33 H 0.17229 0.25064 0.25925 0.0
H34 H 0.20108 0.22482 0.28333 0.0
H35 H 0.21854 0.18418 0.28778 0.0
Mn36 Mn 0.85953 0.34679 0.15461 0.0
Mn37 Mn 0.87154 0.33717 0.21555 0.0
C38 C 0.84042 0.31184 0.17304 0.0
C39 C 0.83671 0.36247 0.12197 0.0
C40 C 0.9064 0.32619 0.17486 0.0
O41 O 0.87325 0.38211 0.16865 0.0
O42 O 0.88058 0.37303 0.20877 0.0
C43 C 0.83532 0.36806 0.23797 0.0
N44 N 0.84473 0.34553 0.23502 0.0
C45 C 0.81644 0.32634 0.2636 0.0
C46 C 0.80653 0.34936 0.26704 0.0
C47 C 0.81597 0.37028 0.2541 0.0
C48 C 0.83572 0.32526 0.2473 0.0
H49 H 0.84253 0.38424 0.22815 0.0
C50 C 0.88026 0.38853 0.19128 0.0
O51 O 0.85914 0.35752 0.11932 0.0
O52 O 0.82798 0.35962 0.14397 0.0
N53 N 0.8631 0.30337 0.22499 0.0
C54 C 0.87368 0.28218 0.21844 0.0
C55 C 0.86631 0.25956 0.22972 0.0
C56 C 0.8482 0.25902 0.24761 0.0
C57 C 0.83714 0.28089 0.2536 0.0
C58 C 0.84555 0.30297 0.24209 0.0
H59 H 0.88784 0.2826 0.20494 0.0
O60 O 0.84323 0.31158 0.14909 0.0
O61 O 0.84953 0.33228 0.18556 0.0
O62 O 0.89333 0.3331 0.15678 0.0
O63 O 0.90021 0.32745 0.19754 0.0
C64 C 0.81812 0.28164 0.27052 0.0
C65 C 0.80766 0.30431 0.27538 0.0
H66 H 0.79156 0.35113 0.27942 0.0
H67 H 0.8084 0.38811 0.25661 0.0
H68 H 0.87477 0.24267 0.2249 0.0
H69 H 0.8431 0.2418 0.25682 0.0
H70 H 0.81119 0.26483 0.27968 0.0
H71 H 0.79276 0.30459 0.28807 0.0
Mn72 Mn 0.16825 0.86861 0.34814 0.0
Mn73 Mn 0.17113 0.80918 0.36725 0.0
C74 C 0.19859 0.84472 0.33361 0.0
C75 C 0.15446 0.89796 0.32063 0.0
C76 C 0.1877 0.85593 0.40005 0.0
O77 O 0.13369 0.8592 0.36117 0.0
O78 O 0.13783 0.81905 0.37051 0.0
C79 C 0.13842 0.78016 0.32876 0.0
N80 N 0.16054 0.78439 0.34133 0.0
C81 C 0.1748 0.74787 0.32101 0.0
C82 C 0.15219 0.74312 0.30779 0.0
C83 C 0.13396 0.75938 0.31163 0.0
C84 C 0.17822 0.76891 0.33773 0.0
H85 H 0.12429 0.79248 0.33186 0.0
C86 C 0.1251 0.83764 0.36854 0.0
O87 O 0.16203 0.90439 0.34341 0.0
O88 O 0.15389 0.87421 0.31404 0.0
N89 N 0.20247 0.79691 0.36503 0.0
C90 C 0.22356 0.80477 0.37851 0.0
C91 C 0.24342 0.79026 0.37733 0.0
C92 C 0.24137 0.76787 0.36233 0.0
C93 C 0.21974 0.76053 0.34808 0.0
C94 C 0.20037 0.77543 0.35046 0.0
H95 H 0.22503 0.82166 0.39052 0.0
O96 O 0.20149 0.86916 0.33367 0.0
O97 O 0.17816 0.83487 0.34236 0.0
O98 O 0.18404 0.87214 0.38392 0.0
O99 O 0.18264 0.8323 0.39578 0.0
C100 C 0.21655 0.73893 0.33176 0.0
C101 C 0.19416 0.73273 0.31806 0.0
H102 H 0.14866 0.72711 0.29458 0.0
H103 H 0.11646 0.75577 0.30153 0.0
H104 H 0.2601 0.79611 0.3883 0.0
H105 H 0.25653 0.75642 0.36194 0.0
H106 H 0.23127 0.72711 0.32942 0.0
H107 H 0.19205 0.71629 0.3053 0.0
Mn108 Mn 0.84935 0.66122 0.35948 0.0
Mn109 Mn 0.86418 0.66207 0.29857 0.0
C110 C 0.83845 0.69352 0.33502 0.0
C111 C 0.82446 0.64908 0.39277 0.0
C112 C 0.89952 0.68236 0.3406 0.0
O113 O 0.85776 0.62503 0.35217 0.0
O114 O 0.86892 0.62926 0.31253 0.0
C115 C 0.82327 0.62449 0.28015 0.0
N116 N 0.83608 0.64761 0.27894 0.0
C117 C 0.81076 0.65762 0.24405 0.0
C118 C 0.79741 0.63384 0.24479 0.0
C119 C 0.8036 0.61727 0.26304 0.0
C120 C 0.82996 0.66386 0.2618 0.0
H121 H 0.82803 0.61162 0.294 0.0
C122 C 0.8659 0.61641 0.33185 0.0
O123 O 0.84778 0.65563 0.39593 0.0
O124 O 0.81554 0.64867 0.36996 0.0
N125 N 0.86074 0.69201 0.28128 0.0
C126 C 0.87558 0.71414 0.28299 0.0
C127 C 0.87226 0.73251 0.26567 0.0
C128 C 0.85396 0.72777 0.24664 0.0
C129 C 0.83895 0.70492 0.24519 0.0
C130 C 0.84336 0.68716 0.26272 0.0
H131 H 0.89003 0.71764 0.29726 0.0
O132 O 0.8397 0.69615 0.35921 0.0
O133 O 0.84254 0.67148 0.32548 0.0
O134 O 0.88542 0.67588 0.35817 0.0
O135 O 0.8937 0.67791 0.31746 0.0
C136 C 0.81997 0.69898 0.22689 0.0
C137 C 0.80573 0.6754 0.22644 0.0
H138 H 0.78236 0.62814 0.23149 0.0
H139 H 0.79338 0.59889 0.26378 0.0
H140 H 0.88408 0.75005 0.26675 0.0
H141 H 0.85184 0.74152 0.2329 0.0
H142 H 0.81608 0.71246 0.21316 0.0
H143 H 0.79105 0.6711 0.21243 0.0
Mn144 Mn 0.35728 0.84262 0.65745 0.0
Mn145 Mn 0.36867 0.83057 0.71794 0.0
C146 C 0.33669 0.80744 0.67466 0.0
C147 C 0.33521 0.86032 0.62551 0.0
C148 C 0.40351 0.82045 0.67693 0.0
O149 O 0.37235 0.87713 0.67258 0.0
O150 O 0.37771 0.86666 0.71253 0.0
C151 C 0.33312 0.86072 0.74236 0.0
N152 N 0.34163 0.838 0.73745 0.0
C153 C 0.31385 0.81776 0.76584 0.0
C154 C 0.30497 0.84096 0.7714 0.0
C155 C 0.31452 0.8625 0.75946 0.0
C156 C 0.33226 0.81708 0.7485 0.0
H157 H 0.34067 0.87743 0.73357 0.0
C158 C 0.37857 0.88277 0.69556 0.0
O159 O 0.35738 0.85464 0.62263 0.0
O160 O 0.32638 0.85711 0.64741 0.0
N161 N 0.3605 0.79633 0.72626 0.0
C162 C 0.3729 0.776 0.72102 0.0
C163 C 0.36581 0.753 0.7318 0.0
C164 C 0.34642 0.75128 0.74827 0.0
C165 C 0.33454 0.77268 0.75411 0.0
C166 C 0.34233 0.79506 0.7427 0.0
H167 H 0.38808 0.77726 0.70873 0.0
O168 O 0.33957 0.80821 0.65078 0.0
O169 O 0.34665 0.82709 0.68785 0.0
O170 O 0.39039 0.82751 0.65898 0.0
O171 O 0.39747 0.82173 0.69966 0.0
C172 C 0.31563 0.7728 0.77121 0.0
C173 C 0.30536 0.79536 0.77712 0.0
H174 H 0.29075 0.84244 0.78473 0.0
H175 H 0.30769 0.88046 0.76358 0.0
H176 H 0.37534 0.73668 0.72752 0.0
H177 H 0.34106 0.73354 0.7566 0.0
H178 H 0.3091 0.75575 0.78019 0.0
H179 H 0.29109 0.79539 0.79053 0.0
Mn180 Mn 0.8639 0.86077 0.86295 0.0
Mn181 Mn 0.83744 0.80339 0.87689 0.0
C182 C 0.84895 0.83094 0.83142 0.0
C183 C 0.8624 0.90291 0.85214 0.0
C184 C 0.89245 0.81768 0.88102 0.0
O185 O 0.85423 0.86663 0.89958 0.0
O186 O 0.83608 0.82756 0.90582 0.0
C187 C 0.78653 0.81688 0.8795 0.0
N188 N 0.80293 0.80199 0.86986 0.0
C189 C 0.7714 0.7779 0.84404 0.0
C190 C 0.75411 0.7928 0.85385 0.0
C191 C 0.76177 0.81257 0.87142 0.0
C192 C 0.79588 0.78347 0.8523 0.0
H193 H 0.79233 0.83205 0.89308 0.0
C194 C 0.84265 0.85049 0.91317 0.0
O195 O 0.88225 0.89508 0.86138 0.0
O196 O 0.84296 0.88681 0.85102 0.0
N197 N 0.83728 0.77809 0.85045 0.0
C198 C 0.85636 0.7661 0.84198 0.0
C199 C 0.85185 0.74602 0.82408 0.0
C200 C 0.82777 0.7383 0.81522 0.0
C201 C 0.80841 0.75072 0.82441 0.0
C202 C 0.81401 0.77053 0.84236 0.0
H203 H 0.8749 0.77177 0.84882 0.0
O204 O 0.86597 0.84868 0.82694 0.0
O205 O 0.84197 0.83091 0.85419 0.0
O206 O 0.89194 0.84009 0.8737 0.0
O207 O 0.87305 0.80279 0.88362 0.0
C208 C 0.78381 0.74431 0.81636 0.0
C209 C 0.76535 0.75789 0.82618 0.0
H210 H 0.73499 0.78945 0.84778 0.0
H211 H 0.7486 0.82447 0.87866 0.0
H212 H 0.8669 0.7365 0.81713 0.0
H213 H 0.82436 0.7229 0.80131 0.0
H214 H 0.77889 0.72909 0.80251 0.0
H215 H 0.74656 0.75269 0.81991 0.0
Mn216 Mn 0.1521 0.66676 0.86104 0.0
Mn217 Mn 0.17912 0.72604 0.87191 0.0
C218 C 0.16186 0.69228 0.82822 0.0
C219 C 0.15445 0.62385 0.85119 0.0
C220 C 0.12475 0.71174 0.87818 0.0
O221 O 0.16636 0.66566 0.89685 0.0
O222 O 0.1833 0.70599 0.90189 0.0
C223 C 0.23056 0.71402 0.87609 0.0
N224 N 0.21311 0.72659 0.86492 0.0
C225 C 0.24227 0.74552 0.83701 0.0
C226 C 0.26055 0.73288 0.84831 0.0
C227 C 0.25466 0.71705 0.86792 0.0
C228 C 0.21859 0.74189 0.84603 0.0
H229 H 0.22613 0.70168 0.89106 0.0
C230 C 0.17871 0.68371 0.90977 0.0
O231 O 0.13507 0.63161 0.86098 0.0
O232 O 0.17287 0.64069 0.84897 0.0
N233 N 0.17703 0.74716 0.8441 0.0
C234 C 0.15704 0.75692 0.83426 0.0
C235 C 0.15978 0.77289 0.8142 0.0
C236 C 0.18302 0.77871 0.80451 0.0
C237 C 0.20333 0.7685 0.81498 0.0
C238 C 0.19953 0.75292 0.83512 0.0
H239 H 0.13911 0.75245 0.84154 0.0
O240 O 0.14457 0.67382 0.8253 0.0
O241 O 0.1723 0.69557 0.85034 0.0
O242 O 0.12493 0.68818 0.87274 0.0
O243 O 0.14406 0.72737 0.87865 0.0
C244 C 0.22712 0.77283 0.80593 0.0
C245 C 0.24652 0.76119 0.81684 0.0
H246 H 0.27913 0.73504 0.84195 0.0
H247 H 0.26864 0.70713 0.87666 0.0
H248 H 0.144 0.78061 0.80616 0.0
H249 H 0.18502 0.79088 0.78892 0.0
H250 H 0.23064 0.78476 0.79036 0.0
H251 H 0.2646 0.76416 0.8094 0.0
Mn252 Mn 0.86001 0.15784 0.66641 0.0
Mn253 Mn 0.89298 0.18261 0.71749 0.0
C254 C 0.84145 0.17808 0.69888 0.0
C255 C 0.84154 0.16039 0.62648 0.0
C256 C 0.87959 0.12642 0.70801 0.0
O257 O 0.89525 0.16261 0.65389 0.0
O258 O 0.91486 0.1807 0.68904 0.0
C259 C 0.90692 0.23424 0.70126 0.0
N260 N 0.89584 0.21854 0.71777 0.0
C261 C 0.88781 0.25349 0.74491 0.0
C262 C 0.8995 0.27007 0.72845 0.0
C263 C 0.9088 0.2604 0.70635 0.0
C264 C 0.88599 0.22769 0.73858 0.0
H265 H 0.91459 0.22686 0.68454 0.0
C266 C 0.91445 0.17321 0.66599 0.0
O267 O 0.84636 0.13906 0.63509 0.0
O268 O 0.84869 0.18043 0.64048 0.0
N269 N 0.87342 0.18586 0.74607 0.0
C270 C 0.86162 0.16744 0.75935 0.0
C271 C 0.84978 0.17409 0.7811 0.0
C272 C 0.85058 0.19955 0.78919 0.0
C273 C 0.86302 0.21813 0.7753 0.0
C274 C 0.87406 0.2104 0.75353 0.0
H275 H 0.8612 0.14781 0.75343 0.0
O276 O 0.8287 0.1613 0.68417 0.0
O277 O 0.86451 0.18174 0.69456 0.0
O278 O 0.86712 0.12794 0.68771 0.0
O279 O 0.89084 0.14565 0.71984 0.0
C280 C 0.86529 0.24397 0.78244 0.0
C281 C 0.87813 0.26153 0.76749 0.0
H282 H 0.90127 0.29024 0.7325 0.0
H283 H 0.91776 0.27306 0.69347 0.0
H284 H 0.84025 0.15963 0.79171 0.0
H285 H 0.84166 0.2046 0.80611 0.0
H286 H 0.85752 0.25051 0.79953 0.0
H287 H 0.88082 0.28112 0.77371 0.0
Mn288 Mn 0.1774 0.36461 0.66004 0.0
Mn289 Mn 0.15336 0.33605 0.71024 0.0
C290 C 0.20256 0.35319 0.69238 0.0
C291 C 0.1946 0.3644 0.62041 0.0
C292 C 0.15396 0.39207 0.70339 0.0
O293 O 0.1426 0.35086 0.64688 0.0
O294 O 0.12908 0.33262 0.68182 0.0
C295 C 0.14897 0.28331 0.68966 0.0
N296 N 0.15768 0.30097 0.70775 0.0
C297 C 0.17646 0.27003 0.73101 0.0
C298 C 0.16758 0.2515 0.71267 0.0
C299 C 0.15384 0.25819 0.69188 0.0
C300 C 0.17104 0.29476 0.72777 0.0
H301 H 0.1384 0.28835 0.67364 0.0
C302 C 0.12618 0.33823 0.65903 0.0
O303 O 0.18476 0.38375 0.62942 0.0
O304 O 0.19292 0.34455 0.63363 0.0
N305 N 0.17503 0.33759 0.73914 0.0
C306 C 0.18313 0.35789 0.75462 0.0
C307 C 0.19736 0.35444 0.77621 0.0
C308 C 0.20294 0.33018 0.78178 0.0
C309 C 0.19434 0.30957 0.76564 0.0
C310 C 0.18005 0.31412 0.74451 0.0
H311 H 0.17874 0.37657 0.75058 0.0
O312 O 0.21031 0.37104 0.67806 0.0
O313 O 0.18036 0.3429 0.68765 0.0
O314 O 0.16423 0.39218 0.68238 0.0
O315 O 0.14864 0.37204 0.71505 0.0
C316 C 0.19959 0.28474 0.76954 0.0
C317 C 0.19077 0.26501 0.75217 0.0
H318 H 0.17134 0.23211 0.71428 0.0
H319 H 0.14701 0.24401 0.6776 0.0
H320 H 0.20397 0.37041 0.78859 0.0
H321 H 0.21387 0.32762 0.79849 0.0
H322 H 0.21066 0.28066 0.78568 0.0
H323 H 0.19525 0.24606 0.75517 0.0
Mn324 Mn 0.65852 0.17047 0.36064 0.0
Mn325 Mn 0.68641 0.22922 0.37323 0.0
C326 C 0.66978 0.19637 0.32831 0.0
C327 C 0.6597 0.1274 0.35036 0.0
C328 C 0.63167 0.21576 0.37778 0.0
O329 O 0.67178 0.16837 0.39676 0.0
O330 O 0.68959 0.20826 0.40267 0.0
C331 C 0.73768 0.21665 0.37822 0.0
N332 N 0.72067 0.23004 0.36743 0.0
C333 C 0.75116 0.2519 0.3428 0.0
C334 C 0.769 0.23844 0.35374 0.0
C335 C 0.76219 0.22064 0.37139 0.0
C336 C 0.727 0.24707 0.35024 0.0
H337 H 0.73258 0.20293 0.39181 0.0
C338 C 0.68428 0.18595 0.41016 0.0
O339 O 0.64047 0.13578 0.35983 0.0
O340 O 0.67867 0.1437 0.34861 0.0
N341 N 0.68531 0.25134 0.34621 0.0
C342 C 0.66562 0.26122 0.33589 0.0
C343 C 0.66927 0.27926 0.31776 0.0
C344 C 0.69308 0.28688 0.31043 0.0
C345 C 0.71299 0.27596 0.32077 0.0
C346 C 0.70829 0.25847 0.33914 0.0
H347 H 0.64729 0.25556 0.34158 0.0
O348 O 0.65208 0.17836 0.32498 0.0
O349 O 0.67981 0.1992 0.3507 0.0
O350 O 0.63147 0.19227 0.37193 0.0
O351 O 0.65128 0.23091 0.37911 0.0
C352 C 0.73727 0.28164 0.31349 0.0
C353 C 0.75632 0.26946 0.32437 0.0
H354 H 0.78792 0.24137 0.34848 0.0
H355 H 0.77583 0.20997 0.37959 0.0
H356 H 0.6538 0.28745 0.30963 0.0
H357 H 0.69593 0.30125 0.29697 0.0
H358 H 0.74145 0.29504 0.29926 0.0
H359 H 0.77485 0.27357 0.31828 0.0
Mn360 Mn 0.65283 0.65194 0.64514 0.0
Mn361 Mn 0.63822 0.65143 0.70602 0.0
C362 C 0.66904 0.6846 0.67311 0.0
C363 C 0.67647 0.64205 0.61083 0.0
C364 C 0.60407 0.66668 0.66524 0.0
O365 O 0.64034 0.61465 0.6495 0.0
O366 O 0.632 0.61711 0.69037 0.0
C367 C 0.67609 0.62047 0.72479 0.0
N368 N 0.66497 0.64212 0.72605 0.0
C369 C 0.68969 0.65773 0.76243 0.0
C370 C 0.70131 0.63554 0.76163 0.0
C371 C 0.69454 0.61687 0.74266 0.0
C372 C 0.67147 0.66026 0.74408 0.0
H373 H 0.67081 0.60599 0.71038 0.0
C374 C 0.63327 0.60465 0.66966 0.0
O375 O 0.65387 0.64671 0.60813 0.0
O376 O 0.68526 0.64215 0.63366 0.0
N377 N 0.64354 0.68326 0.72396 0.0
C378 C 0.6314 0.70404 0.72127 0.0
C379 C 0.63607 0.72448 0.73867 0.0
C380 C 0.65291 0.72316 0.75871 0.0
C381 C 0.66553 0.70184 0.76085 0.0
C382 C 0.65995 0.68195 0.7431 0.0
H383 H 0.61807 0.70492 0.70615 0.0
O384 O 0.66742 0.68791 0.64929 0.0
O385 O 0.66117 0.66222 0.68 0.0
O386 O 0.6183 0.66363 0.64731 0.0
O387 O 0.60939 0.66177 0.68768 0.0
C388 C 0.68338 0.6995 0.77989 0.0
C389 C 0.69559 0.67753 0.78056 0.0
H390 H 0.71553 0.63268 0.7754 0.0
H391 H 0.70342 0.5997 0.7419 0.0
H392 H 0.62647 0.74105 0.73688 0.0
H393 H 0.65575 0.73848 0.77249 0.0
H394 H 0.68802 0.71455 0.79396 0.0
H395 H 0.70952 0.67609 0.79507 0.0
Mn396 Mn 0.66558 0.36537 0.84628 0.0
Mn397 Mn 0.66805 0.30592 0.86471 0.0
C398 C 0.69436 0.34039 0.83045 0.0
C399 C 0.65169 0.39502 0.81933 0.0
C400 C 0.68622 0.35222 0.89744 0.0
O401 O 0.63152 0.35665 0.86079 0.0
O402 O 0.63491 0.31601 0.86913 0.0
C403 C 0.63413 0.2772 0.82717 0.0
N404 N 0.65687 0.28183 0.83839 0.0
C405 C 0.6705 0.24558 0.81708 0.0
C406 C 0.64722 0.24035 0.80529 0.0
C407 C 0.62904 0.25641 0.81015 0.0
C408 C 0.67472 0.26698 0.83323 0.0
H409 H 0.61992 0.2891 0.83141 0.0
C410 C 0.62263 0.33507 0.86796 0.0
O411 O 0.66012 0.40135 0.84186 0.0
O412 O 0.65014 0.37119 0.81279 0.0
N413 N 0.69944 0.29394 0.86105 0.0
C414 C 0.72091 0.30154 0.874 0.0
C415 C 0.7413 0.28813 0.87038 0.0
C416 C 0.73922 0.26668 0.85402 0.0
C417 C 0.71678 0.25894 0.84132 0.0
C418 C 0.69727 0.2734 0.84519 0.0
H419 H 0.7225 0.3177 0.88698 0.0
O420 O 0.69811 0.36477 0.83018 0.0
O421 O 0.67418 0.3315 0.84007 0.0
O422 O 0.68272 0.36851 0.88135 0.0
O423 O 0.68034 0.32867 0.89335 0.0
C424 C 0.71278 0.23701 0.82556 0.0
C425 C 0.68952 0.2301 0.81388 0.0
H426 H 0.6431 0.22407 0.79251 0.0
H427 H 0.61102 0.25251 0.80115 0.0
H428 H 0.7585 0.29413 0.8804 0.0
H429 H 0.75488 0.25617 0.85154 0.0
H430 H 0.72734 0.2251 0.82262 0.0
H431 H 0.68637 0.21265 0.8027 0.0
Mn432 Mn 0.34806 0.15872 0.85999 0.0
Mn433 Mn 0.36329 0.167 0.79987 0.0
C434 C 0.33369 0.19115 0.83817 0.0
C435 C 0.32343 0.14194 0.89155 0.0
C436 C 0.39712 0.18532 0.84385 0.0
O437 O 0.3597 0.12446 0.84947 0.0
O438 O 0.3699 0.13325 0.81025 0.0
C439 C 0.32531 0.12909 0.77622 0.0
N440 N 0.33658 0.15308 0.77811 0.0
C441 C 0.31273 0.16497 0.74295 0.0
C442 C 0.30092 0.14038 0.74054 0.0
C443 C 0.30712 0.12241 0.75738 0.0
C444 C 0.33038 0.17064 0.76237 0.0
H445 H 0.33026 0.11515 0.78891 0.0
C446 C 0.36802 0.11842 0.82827 0.0
O447 O 0.34635 0.14996 0.89569 0.0
O448 O 0.31501 0.14231 0.86863 0.0
N449 N 0.35808 0.1986 0.7863 0.0
C450 C 0.37074 0.22165 0.79159 0.0
C451 C 0.36657 0.2418 0.77661 0.0
C452 C 0.34998 0.23788 0.75595 0.0
C453 C 0.33739 0.21393 0.75068 0.0
C454 C 0.34208 0.19465 0.76644 0.0
H455 H 0.38399 0.22462 0.80706 0.0
O456 O 0.33499 0.19224 0.8624 0.0
O457 O 0.34045 0.17093 0.82713 0.0
O458 O 0.3831 0.17672 0.86066 0.0
O459 O 0.39168 0.18245 0.82054 0.0
C460 C 0.3204 0.20839 0.73039 0.0
C461 C 0.3078 0.18405 0.72675 0.0
H462 H 0.28705 0.13509 0.72587 0.0
H463 H 0.29807 0.1034 0.75567 0.0
H464 H 0.37633 0.26023 0.78078 0.0
H465 H 0.34702 0.25343 0.74429 0.0
H466 H 0.31673 0.22277 0.71759 0.0
H467 H 0.29447 0.18017 0.71134 0.0
Mn468 Mn 0.36595 0.36031 0.36311 0.0
Mn469 Mn 0.34582 0.30657 0.39039 0.0
C470 C 0.34882 0.32477 0.33892 0.0
C471 C 0.36219 0.39991 0.34624 0.0
C472 C 0.39952 0.32224 0.38346 0.0
O473 O 0.36027 0.37314 0.39914 0.0
O474 O 0.34839 0.33555 0.4148 0.0
C475 C 0.29596 0.3181 0.40312 0.0
N476 N 0.31101 0.30264 0.39194 0.0
C477 C 0.27865 0.26873 0.38708 0.0
C478 C 0.2627 0.28426 0.39843 0.0
C479 C 0.27132 0.30919 0.40615 0.0
C480 C 0.30265 0.27904 0.38349 0.0
H481 H 0.30281 0.3369 0.41001 0.0
C482 C 0.35292 0.3595 0.41707 0.0
O483 O 0.38298 0.39343 0.35441 0.0
O484 O 0.34312 0.3838 0.34881 0.0
N485 N 0.34195 0.27663 0.36931 0.0
C486 C 0.35939 0.26463 0.35758 0.0
C487 C 0.35355 0.23979 0.34793 0.0
C488 C 0.33021 0.22728 0.35141 0.0
C489 C 0.31266 0.2401 0.36365 0.0
C490 C 0.31912 0.26519 0.37167 0.0
H491 H 0.3777 0.27381 0.35598 0.0
O492 O 0.36444 0.34149 0.32969 0.0
O493 O 0.34407 0.32885 0.36222 0.0
O494 O 0.39663 0.34329 0.37401 0.0
O495 O 0.38161 0.30739 0.39011 0.0
C496 C 0.28936 0.22871 0.36914 0.0
C497 C 0.27208 0.24313 0.38016 0.0
H498 H 0.2439 0.27718 0.40151 0.0
H499 H 0.25918 0.32126 0.41506 0.0
H500 H 0.36723 0.23005 0.33855 0.0
H501 H 0.32599 0.20784 0.34468 0.0
H502 H 0.28486 0.20872 0.36557 0.0
H503 H 0.25401 0.2342 0.38378 0.0
Mn504 Mn 0.35853 0.65798 0.16304 0.0
Mn505 Mn 0.38902 0.68206 0.21604 0.0
C506 C 0.33809 0.67721 0.19456 0.0
C507 C 0.34153 0.66115 0.12259 0.0
C508 C 0.37559 0.62594 0.20552 0.0
O509 O 0.39423 0.6634 0.15219 0.0
O510 O 0.41234 0.6795 0.18879 0.0
C511 C 0.40559 0.7334 0.20044 0.0
N512 N 0.39315 0.71807 0.21639 0.0
C513 C 0.38383 0.75365 0.24211 0.0
C514 C 0.3966 0.76981 0.22599 0.0
C515 C 0.40744 0.75963 0.20502 0.0
C516 C 0.38254 0.72767 0.23656 0.0
H517 H 0.41407 0.7257 0.18436 0.0
C518 C 0.41301 0.67303 0.16554 0.0
O519 O 0.3464 0.6397 0.13092 0.0
O520 O 0.34797 0.68095 0.13716 0.0
N521 N 0.36826 0.68613 0.24356 0.0
C522 C 0.35487 0.66812 0.25603 0.0
C523 C 0.34191 0.67529 0.27684 0.0
C524 C 0.34307 0.70081 0.28478 0.0
C525 C 0.35701 0.71898 0.27168 0.0
C526 C 0.36936 0.71075 0.25095 0.0
H527 H 0.35403 0.64846 0.2501 0.0
O528 O 0.32636 0.66033 0.17918 0.0
O529 O 0.36147 0.68153 0.19165 0.0
O530 O 0.36507 0.62771 0.18416 0.0
O531 O 0.38559 0.64507 0.2185 0.0
C532 C 0.35892 0.74496 0.27822 0.0
C533 C 0.37212 0.76231 0.26332 0.0
H534 H 0.39807 0.79005 0.22946 0.0
H535 H 0.41727 0.77198 0.19246 0.0
H536 H 0.33112 0.66116 0.28679 0.0
H537 H 0.33305 0.70627 0.30085 0.0
H538 H 0.34991 0.75185 0.29442 0.0
H539 H 0.37295 0.78229 0.26821 0.0
Mn540 Mn 0.6763 0.86091 0.16787 0.0
Mn541 Mn 0.64518 0.8347 0.21537 0.0
C542 C 0.69721 0.84971 0.20356 0.0
C543 C 0.69684 0.85961 0.12997 0.0
C544 C 0.65063 0.89074 0.20815 0.0
O545 O 0.64272 0.8484 0.1509 0.0
O546 O 0.62404 0.83326 0.18469 0.0
C547 C 0.639 0.78225 0.19381 0.0
N548 N 0.64654 0.79906 0.21306 0.0
C549 C 0.65769 0.76593 0.23875 0.0
C550 C 0.64977 0.74823 0.21932 0.0
C551 C 0.64048 0.75645 0.19671 0.0
C552 C 0.65579 0.7914 0.23474 0.0
H553 H 0.63173 0.78843 0.17646 0.0
C554 C 0.62408 0.83789 0.16155 0.0
O555 O 0.6872 0.87946 0.13796 0.0
O556 O 0.69369 0.84 0.14347 0.0
N557 N 0.66286 0.83408 0.24655 0.0
C558 C 0.67064 0.85366 0.26302 0.0
C559 C 0.68047 0.84867 0.28654 0.0
C560 C 0.68188 0.82365 0.29291 0.0
C561 C 0.67401 0.80383 0.27563 0.0
C562 C 0.66413 0.80992 0.2526 0.0
H563 H 0.66915 0.87291 0.25833 0.0
O564 O 0.70711 0.86667 0.18934 0.0
O565 O 0.67538 0.83952 0.19648 0.0
O566 O 0.66213 0.88959 0.18789 0.0
O567 O 0.64321 0.8713 0.21986 0.0
C568 C 0.67558 0.77829 0.28035 0.0
C569 C 0.66759 0.75936 0.26185 0.0
H570 H 0.65088 0.72831 0.22149 0.0
H571 H 0.6344 0.74292 0.18159 0.0
H572 H 0.68661 0.86402 0.29986 0.0
H573 H 0.68874 0.81981 0.3112 0.0
H574 H 0.6831 0.773 0.29806 0.0
H575 H 0.66919 0.73981 0.26555 0.0
H576 H 0.18053 0.23648 0.17585 0.0
H577 H 0.21356 0.26056 0.20189 0.0
H578 H 0.24584 0.19159 0.21458 0.0
H579 H 0.21234 0.16778 0.19015 0.0
H580 H 0.2426 0.2132 0.2552 0.0
H581 H 0.27228 0.24201 0.17836 0.0
H582 H 0.27087 0.26167 0.13768 0.0
H583 H 0.25702 0.33173 0.17409 0.0
H584 H 0.258 0.31238 0.21499 0.0
H585 H 0.3611 0.30052 0.2959 0.0
H586 H 0.33333 0.27534 0.26528 0.0
H587 H 0.27265 0.28457 0.31256 0.0
H588 H 0.30009 0.31029 0.34258 0.0
H589 H 0.2933 0.29255 0.24009 0.0
H590 H 0.23862 0.24771 0.30913 0.0
H591 H 0.22782 0.21581 0.33985 0.0
H592 H 0.28523 0.17327 0.31455 0.0
H593 H 0.29627 0.20501 0.28367 0.0
C594 C 0.1948 0.22668 0.18426 0.0
C595 C 0.19366 0.2003 0.18167 0.0
C596 C 0.21383 0.24042 0.19884 0.0
C597 C 0.23242 0.228 0.21021 0.0
C598 C 0.23175 0.20173 0.20627 0.0
C599 C 0.21253 0.18807 0.1924 0.0
C600 C 0.25088 0.24135 0.22865 0.0
C601 C 0.25328 0.23077 0.25185 0.0
C602 C 0.26557 0.26399 0.22427 0.0
C603 C 0.26498 0.27567 0.19972 0.0
C604 C 0.26873 0.26155 0.17768 0.0
C605 C 0.26805 0.27265 0.15458 0.0
C606 C 0.2638 0.29791 0.15329 0.0
C607 C 0.26028 0.31215 0.17511 0.0
C608 C 0.26092 0.30113 0.19826 0.0
C609 C 0.34192 0.2967 0.29995 0.0
C610 C 0.33294 0.30667 0.32208 0.0
C611 C 0.32606 0.28235 0.28245 0.0
C612 C 0.30092 0.27763 0.28676 0.0
C613 C 0.29202 0.28724 0.30907 0.0
C614 C 0.30781 0.3018 0.32639 0.0
C615 C 0.28372 0.26472 0.26703 0.0
C616 C 0.2819 0.27532 0.2435 0.0
C617 C 0.26892 0.24221 0.27108 0.0
C618 C 0.26871 0.22906 0.29465 0.0
C619 C 0.2496 0.23211 0.31089 0.0
C620 C 0.24305 0.21376 0.3279 0.0
C621 C 0.25548 0.19225 0.32875 0.0
C622 C 0.27539 0.18977 0.31361 0.0
C623 C 0.28199 0.20809 0.29656 0.0
H624 H 0.25007 0.1778 0.34158 0.0
H625 H 0.26328 0.30647 0.13539 0.0
H626 H 0.80607 0.32352 0.205 0.0
H627 H 0.77358 0.2958 0.22174 0.0
H628 H 0.79383 0.23425 0.17451 0.0
H629 H 0.82902 0.26147 0.16092 0.0
H630 H 0.73513 0.27437 0.20185 0.0
H631 H 0.77003 0.19055 0.18272 0.0
H632 H 0.80463 0.16464 0.17921 0.0
H633 H 0.8346 0.19564 0.25027 0.0
H634 H 0.80028 0.22208 0.25386 0.0
H635 H 0.64998 0.20807 0.28323 0.0
H636 H 0.67211 0.21866 0.24563 0.0
H637 H 0.7408 0.21697 0.28705 0.0
H638 H 0.71859 0.20249 0.32282 0.0
H639 H 0.746 0.19664 0.24602 0.0
H640 H 0.71264 0.28798 0.25749 0.0
H641 H 0.67616 0.31174 0.25846 0.0
H642 H 0.64077 0.26201 0.20007 0.0
H643 H 0.67712 0.23836 0.19861 0.0
C644 C 0.80455 0.30368 0.19946 0.0
C645 C 0.82118 0.29422 0.18321 0.0
C646 C 0.78543 0.28786 0.20843 0.0
C647 C 0.78129 0.26238 0.2001 0.0
C648 C 0.79714 0.2532 0.18259 0.0
C649 C 0.8171 0.26892 0.17445 0.0
C650 C 0.75988 0.24659 0.20973 0.0
C651 C 0.73759 0.25728 0.21145 0.0
C652 C 0.76192 0.22332 0.22085 0.0
C653 C 0.78332 0.20899 0.21805 0.0
C654 C 0.78429 0.19214 0.19734 0.0
C655 C 0.80378 0.17737 0.19535 0.0
C656 C 0.82202 0.17881 0.21433 0.0
C657 C 0.8207 0.19493 0.23538 0.0
C658 C 0.80137 0.20995 0.2373 0.0
C659 C 0.66983 0.21032 0.28419 0.0
C660 C 0.68266 0.20605 0.30644 0.0
C661 C 0.68255 0.21676 0.26273 0.0
C662 C 0.70837 0.21964 0.26337 0.0
C663 C 0.72096 0.21512 0.28574 0.0
C664 C 0.70827 0.2076 0.30662 0.0
C665 C 0.72298 0.2266 0.24121 0.0
C666 C 0.74355 0.21372 0.23642 0.0
C667 C 0.71916 0.2476 0.22691 0.0
C668 C 0.6971 0.26103 0.22857 0.0
C669 C 0.69685 0.28198 0.24522 0.0
C670 C 0.67632 0.29548 0.24572 0.0
C671 C 0.65605 0.28815 0.22962 0.0
C672 C 0.65638 0.26753 0.21271 0.0
C673 C 0.67695 0.25415 0.21197 0.0
H674 H 0.64018 0.29859 0.23008 0.0
H675 H 0.83703 0.16725 0.21286 0.0
H676 H 0.29716 0.66836 0.22187 0.0
H677 H 0.27402 0.70017 0.24227 0.0
H678 H 0.32516 0.75935 0.21656 0.0
H679 H 0.34745 0.72785 0.19534 0.0
H680 H 0.31511 0.76267 0.2691 0.0
H681 H 0.2747 0.75313 0.18837 0.0
H682 H 0.25303 0.72937 0.15233 0.0
H683 H 0.19496 0.7028 0.19921 0.0
H684 H 0.21649 0.72608 0.23564 0.0
H685 H 0.24762 0.85502 0.32607 0.0
H686 H 0.27258 0.83194 0.29828 0.0
H687 H 0.21017 0.77681 0.28089 0.0
H688 H 0.18463 0.80354 0.30343 0.0
H689 H 0.22981 0.77548 0.24472 0.0
H690 H 0.27517 0.77177 0.32642 0.0
H691 H 0.29839 0.78995 0.36463 0.0
H692 H 0.34718 0.83479 0.31941 0.0
H693 H 0.32412 0.81678 0.28128 0.0
C694 C 0.30339 0.68817 0.22071 0.0
C695 C 0.32459 0.69572 0.20796 0.0
C696 C 0.29019 0.70627 0.23222 0.0
C697 C 0.298 0.73206 0.23093 0.0
C698 C 0.31897 0.73955 0.2179 0.0
C699 C 0.33185 0.72154 0.2061 0.0
C700 C 0.28467 0.75132 0.24369 0.0
C701 C 0.29643 0.76551 0.26394 0.0
C702 C 0.26038 0.75503 0.23672 0.0
C703 C 0.24734 0.74116 0.21479 0.0
C704 C 0.25743 0.74203 0.19105 0.0
C705 C 0.24514 0.72869 0.17053 0.0
C706 C 0.22266 0.71453 0.17349 0.0
C707 C 0.21239 0.71374 0.19695 0.0
C708 C 0.22462 0.72703 0.21754 0.0
C709 C 0.23943 0.83788 0.31625 0.0
C710 C 0.21453 0.82977 0.3186 0.0
C711 C 0.25389 0.82423 0.30069 0.0
C712 C 0.24408 0.80138 0.28822 0.0
C713 C 0.21887 0.79398 0.2902 0.0
C714 C 0.2042 0.80869 0.30411 0.0
C715 C 0.25928 0.78541 0.27248 0.0
C716 C 0.2482 0.77231 0.25084 0.0
C717 C 0.2841 0.78205 0.27868 0.0
C718 C 0.2975 0.79354 0.30137 0.0
C719 C 0.29054 0.78587 0.32495 0.0
C720 C 0.30374 0.79601 0.34645 0.0
C721 C 0.32405 0.81376 0.34446 0.0
C722 C 0.33133 0.82121 0.32095 0.0
C723 C 0.31822 0.81101 0.29942 0.0
H724 H 0.33426 0.82159 0.36111 0.0
H725 H 0.21317 0.70422 0.15758 0.0
H726 H 0.80326 0.69079 0.29759 0.0
H727 H 0.78764 0.72593 0.27626 0.0
H728 H 0.83769 0.77851 0.32099 0.0
H729 H 0.85446 0.74328 0.34118 0.0
H730 H 0.77714 0.77395 0.32091 0.0
H731 H 0.84956 0.79777 0.28174 0.0
H732 H 0.88611 0.80171 0.25634 0.0
H733 H 0.84141 0.78048 0.19003 0.0
H734 H 0.80462 0.77558 0.21516 0.0
H735 H 0.72981 0.87556 0.23751 0.0
H736 H 0.75844 0.85767 0.26641 0.0
H737 H 0.72758 0.7828 0.24201 0.0
H738 H 0.70053 0.80052 0.21186 0.0
H739 H 0.78652 0.81075 0.23822 0.0
H740 H 0.73015 0.76896 0.32132 0.0
H741 H 0.70628 0.78299 0.35646 0.0
H742 H 0.73189 0.86009 0.34461 0.0
H743 H 0.75631 0.84648 0.30983 0.0
C744 C 0.81172 0.70977 0.30195 0.0
C745 C 0.83071 0.71427 0.32027 0.0
C746 C 0.80281 0.72984 0.28979 0.0
C747 C 0.81217 0.75483 0.29631 0.0
C748 C 0.83096 0.75939 0.31485 0.0
C749 C 0.84026 0.73928 0.3266 0.0
C750 C 0.79835 0.77559 0.28801 0.0
C751 C 0.7791 0.78195 0.30275 0.0
C752 C 0.80201 0.78727 0.26507 0.0
C753 C 0.82433 0.78565 0.25053 0.0
C754 C 0.84757 0.79304 0.2619 0.0
C755 C 0.86833 0.7958 0.24747 0.0
C756 C 0.86611 0.79135 0.22159 0.0
C757 C 0.84313 0.78392 0.21008 0.0
C758 C 0.82234 0.78097 0.22445 0.0
C759 C 0.72884 0.8553 0.2388 0.0
C760 C 0.71227 0.83937 0.22321 0.0
C761 C 0.74492 0.84513 0.25556 0.0
C762 C 0.74434 0.81891 0.25723 0.0
C763 C 0.72764 0.80308 0.24178 0.0
C764 C 0.71213 0.8132 0.22461 0.0
C765 C 0.76436 0.80755 0.27031 0.0
C766 C 0.78454 0.80259 0.2563 0.0
C767 C 0.76239 0.79835 0.29452 0.0
C768 C 0.7446 0.8067 0.31247 0.0
C769 C 0.73039 0.78893 0.32596 0.0
C770 C 0.717 0.79679 0.34605 0.0
C771 C 0.71766 0.82242 0.35287 0.0
C772 C 0.73138 0.84025 0.33933 0.0
C773 C 0.74483 0.83246 0.31925 0.0
H774 H 0.70738 0.82847 0.3685 0.0
H775 H 0.88219 0.79362 0.21046 0.0
H776 H 0.29065 0.8202 0.67047 0.0
H777 H 0.25315 0.79719 0.68381 0.0
H778 H 0.29581 0.74067 0.71337 0.0
H779 H 0.33173 0.76066 0.69401 0.0
H780 H 0.25864 0.71802 0.70449 0.0
H781 H 0.26469 0.80656 0.74699 0.0
H782 H 0.26255 0.85265 0.7453 0.0
H783 H 0.19478 0.83918 0.70239 0.0
H784 H 0.1966 0.79328 0.70382 0.0
H785 H 0.20936 0.69059 0.81879 0.0
H786 H 0.23144 0.7067 0.7832 0.0
H787 H 0.16456 0.7303 0.75176 0.0
H788 H 0.14231 0.71415 0.7879 0.0
H789 H 0.20184 0.76709 0.75125 0.0
H790 H 0.18894 0.6823 0.72331 0.0
H791 H 0.18681 0.63628 0.72616 0.0
H792 H 0.26448 0.64166 0.7414 0.0
H793 H 0.26707 0.68786 0.73907 0.0
C794 C 0.29177 0.8027 0.67973 0.0
C795 C 0.3144 0.79304 0.68307 0.0
C796 C 0.27031 0.78978 0.688 0.0
C797 C 0.27129 0.76792 0.70161 0.0
C798 C 0.29399 0.75769 0.70356 0.0
C799 C 0.31498 0.76955 0.69331 0.0
C800 C 0.24934 0.75555 0.71405 0.0
C801 C 0.24678 0.72908 0.71515 0.0
C802 C 0.23176 0.76916 0.72626 0.0
C803 C 0.23107 0.79667 0.7252 0.0
C804 C 0.24952 0.81357 0.73712 0.0
C805 C 0.24833 0.83956 0.73622 0.0
C806 C 0.22867 0.84878 0.72365 0.0
C807 C 0.21006 0.83204 0.71203 0.0
C808 C 0.21116 0.80606 0.71289 0.0
C809 C 0.19939 0.69926 0.80428 0.0
C810 C 0.17439 0.70189 0.80628 0.0
C811 C 0.21193 0.70814 0.7838 0.0
C812 C 0.19961 0.71948 0.76468 0.0
C813 C 0.17438 0.72154 0.7663 0.0
C814 C 0.16173 0.71241 0.78685 0.0
C815 C 0.21382 0.73053 0.74409 0.0
C816 C 0.21425 0.7564 0.74089 0.0
C817 C 0.22946 0.71646 0.7301 0.0
C818 C 0.22817 0.6886 0.73108 0.0
C819 C 0.20557 0.6737 0.72739 0.0
C820 C 0.20427 0.64756 0.72892 0.0
C821 C 0.22548 0.63601 0.73397 0.0
C822 C 0.24806 0.65062 0.73746 0.0
C823 C 0.24946 0.6768 0.736 0.0
H824 H 0.22441 0.61575 0.73517 0.0
H825 H 0.22781 0.86889 0.72299 0.0
H826 H 0.70374 0.67615 0.70815 0.0
H827 H 0.73016 0.70729 0.73427 0.0
H828 H 0.69852 0.76704 0.69749 0.0
H829 H 0.67014 0.73584 0.67336 0.0
H830 H 0.76133 0.74945 0.70512 0.0
H831 H 0.69465 0.79398 0.73048 0.0
H832 H 0.65612 0.80534 0.74766 0.0
H833 H 0.67457 0.77364 0.81712 0.0
H834 H 0.71209 0.76008 0.79942 0.0
H835 H 0.80515 0.84619 0.82036 0.0
H836 H 0.77452 0.82841 0.78898 0.0
H837 H 0.82208 0.7719 0.76779 0.0
H838 H 0.85421 0.79279 0.79647 0.0
H839 H 0.74757 0.79309 0.78594 0.0
H840 H 0.80467 0.73684 0.71702 0.0
H841 H 0.84418 0.74258 0.69637 0.0
H842 H 0.84477 0.82292 0.7054 0.0
H843 H 0.80513 0.81768 0.72583 0.0
C844 C 0.7014 0.69592 0.70677 0.0
C845 C 0.68387 0.70355 0.68986 0.0
C846 C 0.7167 0.71374 0.72149 0.0
C847 C 0.71553 0.73963 0.71886 0.0
C848 C 0.69873 0.74733 0.70116 0.0
C849 C 0.68282 0.72945 0.68701 0.0
C850 C 0.73465 0.75782 0.73183 0.0
C851 C 0.75841 0.75927 0.72274 0.0
C852 C 0.73062 0.7715 0.75422 0.0
C853 C 0.70584 0.77497 0.76316 0.0
C854 C 0.68986 0.78806 0.74884 0.0
C855 C 0.66828 0.79522 0.75881 0.0
C856 C 0.66282 0.79016 0.78345 0.0
C857 C 0.67877 0.77756 0.79802 0.0
C858 C 0.69999 0.76973 0.78785 0.0
C859 C 0.80919 0.83035 0.80843 0.0
C860 C 0.83171 0.82042 0.81108 0.0
C861 C 0.79152 0.81988 0.79062 0.0
C862 C 0.79542 0.79837 0.77574 0.0
C863 C 0.81842 0.78886 0.77812 0.0
C864 C 0.83674 0.80042 0.79499 0.0
C865 C 0.7748 0.78519 0.75936 0.0
C866 C 0.75081 0.78398 0.76808 0.0
C867 C 0.7783 0.77355 0.73561 0.0
C868 C 0.80203 0.77685 0.72314 0.0
C869 C 0.81317 0.75573 0.71449 0.0
C870 C 0.83561 0.7589 0.70285 0.0
C871 C 0.84701 0.78309 0.69963 0.0
C872 C 0.83596 0.80419 0.70797 0.0
C873 C 0.81352 0.80113 0.71961 0.0
H874 H 0.86438 0.7855 0.69064 0.0
H875 H 0.64628 0.79603 0.79125 0.0
H876 H 0.67677 0.31406 0.78858 0.0
H877 H 0.69929 0.29174 0.75852 0.0
H878 H 0.76453 0.30617 0.80677 0.0
H879 H 0.74248 0.3323 0.83459 0.0
H880 H 0.77927 0.31182 0.7667 0.0
H881 H 0.71766 0.2187 0.77035 0.0
H882 H 0.67581 0.19857 0.75925 0.0
H883 H 0.66712 0.25335 0.70437 0.0
H884 H 0.709 0.27333 0.71488 0.0
H885 H 0.80954 0.17343 0.7369 0.0
H886 H 0.78644 0.20635 0.75474 0.0
H887 H 0.8198 0.25881 0.70378 0.0
H888 H 0.84482 0.22704 0.68849 0.0
H889 H 0.75317 0.22631 0.73017 0.0
H890 H 0.81054 0.30072 0.70738 0.0
H891 H 0.84917 0.32855 0.70616 0.0
H892 H 0.8621 0.32093 0.78469 0.0
H893 H 0.82469 0.29115 0.78577 0.0
C894 C 0.69599 0.31232 0.79259 0.0
C895 C 0.70792 0.32454 0.81396 0.0
C896 C 0.70895 0.29887 0.77548 0.0
C897 C 0.73395 0.2962 0.77995 0.0
C898 C 0.74547 0.30799 0.80208 0.0
C899 C 0.73286 0.32273 0.81835 0.0
C900 C 0.7491 0.2826 0.7619 0.0
C901 C 0.77348 0.29282 0.75929 0.0
C902 C 0.74145 0.259 0.74921 0.0
C903 C 0.71565 0.24857 0.74473 0.0
C904 C 0.70643 0.22687 0.75653 0.0
C905 C 0.68289 0.21529 0.75009 0.0
C906 C 0.66857 0.22509 0.73162 0.0
C907 C 0.678 0.24608 0.71907 0.0
C908 C 0.70165 0.25746 0.72519 0.0
C909 C 0.81251 0.19235 0.73034 0.0
C910 C 0.82919 0.19793 0.71175 0.0
C911 C 0.7993 0.2112 0.74041 0.0
C912 C 0.80161 0.23568 0.73122 0.0
C913 C 0.81842 0.24103 0.71254 0.0
C914 C 0.83243 0.22252 0.70333 0.0
C915 C 0.78403 0.25384 0.73916 0.0
C916 C 0.75907 0.24481 0.73881 0.0
C917 C 0.7909 0.27908 0.74794 0.0
C918 C 0.81568 0.29241 0.74627 0.0
C919 C 0.82235 0.30388 0.72407 0.0
C920 C 0.84397 0.32009 0.72342 0.0
C921 C 0.85838 0.32609 0.74523 0.0
C922 C 0.85121 0.31582 0.76767 0.0
C923 C 0.83016 0.29873 0.76817 0.0
H924 H 0.87489 0.33899 0.74483 0.0
H925 H 0.65033 0.21615 0.72674 0.0
H926 H 0.23639 0.3738 0.72839 0.0
H927 H 0.26386 0.35079 0.75418 0.0
H928 H 0.2348 0.2811 0.71508 0.0
H929 H 0.20848 0.30401 0.68906 0.0
H930 H 0.25402 0.31571 0.78662 0.0
H931 H 0.27277 0.23947 0.71057 0.0
H932 H 0.28054 0.23647 0.66559 0.0
H933 H 0.30658 0.31518 0.66778 0.0
H934 H 0.29936 0.31857 0.71288 0.0
H935 H 0.29793 0.18307 0.80179 0.0
H936 H 0.2785 0.21476 0.77868 0.0
H937 H 0.3219 0.27396 0.82256 0.0
H938 H 0.34154 0.24212 0.84556 0.0
H939 H 0.30113 0.2501 0.74988 0.0
H940 H 0.28618 0.32541 0.82664 0.0
H941 H 0.27848 0.32838 0.87168 0.0
H942 H 0.24564 0.25171 0.86786 0.0
H943 H 0.2528 0.24842 0.82275 0.0
C944 C 0.23628 0.35362 0.72526 0.0
C945 C 0.22003 0.34045 0.70733 0.0
C946 C 0.25183 0.3405 0.73997 0.0
C947 C 0.25159 0.31422 0.73644 0.0
C948 C 0.2358 0.30139 0.71788 0.0
C949 C 0.2205 0.31443 0.70323 0.0
C950 C 0.26684 0.29961 0.75259 0.0
C951 C 0.26481 0.30173 0.77862 0.0
C952 C 0.28081 0.2812 0.74222 0.0
C953 C 0.28544 0.27928 0.71511 0.0
C954 C 0.28031 0.25611 0.7015 0.0
C955 C 0.28458 0.25434 0.67597 0.0
C956 C 0.29401 0.27563 0.66383 0.0
C957 C 0.29923 0.29872 0.6772 0.0
C958 C 0.29504 0.30057 0.70275 0.0
C959 C 0.30343 0.20287 0.80629 0.0
C960 C 0.32178 0.2103 0.82472 0.0
C961 C 0.29222 0.22092 0.79327 0.0
C962 C 0.2988 0.24672 0.79886 0.0
C963 C 0.31647 0.25417 0.81802 0.0
C964 C 0.32773 0.23604 0.83104 0.0
C965 C 0.28788 0.26563 0.78373 0.0
C966 C 0.2908 0.26434 0.75789 0.0
C967 C 0.27495 0.28478 0.79434 0.0
C968 C 0.27039 0.28658 0.82141 0.0
C969 C 0.27729 0.30921 0.83542 0.0
C970 C 0.273 0.31095 0.86095 0.0
C971 C 0.26168 0.29021 0.87265 0.0
C972 C 0.25453 0.26772 0.85881 0.0
C973 C 0.25874 0.2659 0.83327 0.0
H974 H 0.25839 0.29159 0.89242 0.0
H975 H 0.29728 0.27423 0.64405 0.0
H976 H 0.16467 0.94906 0.32617 0.0
H977 H 0.15716 0.9807 0.29624 0.0
H978 H 0.12269 0.92249 0.24448 0.0
H979 H 0.1313 0.8905 0.27412 0.0
H980 H 0.14813 0.95389 0.21895 0.0
H981 H 0.08929 0.96495 0.28028 0.0
H982 H 0.07365 0.97095 0.32245 0.0
H983 H 0.11902 0.0413 0.33319 0.0
H984 H 0.13518 0.03557 0.2912 0.0
H985 H 0.0922 0.08254 0.18932 0.0
H986 H 0.09084 0.04196 0.20895 0.0
H987 H 0.16427 0.03401 0.18571 0.0
H988 H 0.16476 0.0737 0.16468 0.0
H989 H 0.11389 0.03236 0.24661 0.0
H990 H 0.18071 0.97573 0.1904 0.0
H991 H 0.19085 0.96734 0.14658 0.0
H992 H 0.11918 0.98367 0.12201 0.0
H993 H 0.10849 0.99183 0.16569 0.0
C994 C 0.15532 0.94294 0.3085 0.0
C995 C 0.1484 0.91719 0.30269 0.0
C996 C 0.15092 0.96115 0.29134 0.0
C997 C 0.13886 0.95426 0.26808 0.0
C998 C 0.13196 0.92848 0.26222 0.0
C999 C 0.13676 0.91016 0.27927 0.0
C1000 C 0.13383 0.97397 0.24996 0.0
C1001 C 0.14053 0.97099 0.22499 0.0
C1002 C 0.12329 0.99614 0.2574 0.0
C1003 C 0.11358 0.99973 0.28266 0.0
C1004 C 0.09605 0.98163 0.2917 0.0
C1005 C 0.08708 0.98499 0.31556 0.0
C1006 C 0.09537 1.00647 0.33051 0.0
C1007 C 0.11262 0.02466 0.3216 0.0
C1008 C 0.12167 0.02138 0.29775 0.0
C1009 C 0.10747 0.07139 0.18726 0.0
C1010 C 0.12828 0.08094 0.17483 0.0
C1011 C 0.10692 0.04835 0.1989 0.0
C1012 C 0.12747 0.03457 0.19906 0.0
C1013 C 0.14785 0.04361 0.18552 0.0
C1014 C 0.14811 0.06636 0.17329 0.0
C1015 C 0.12854 0.01258 0.21554 0.0
C1016 C 0.12123 0.01518 0.24034 0.0
C1017 C 0.13772 0.98974 0.20766 0.0
C1018 C 0.14389 0.98459 0.18133 0.0
C1019 C 0.16707 0.97741 0.17566 0.0
C1020 C 0.17293 0.97273 0.15084 0.0
C1021 C 0.1557 0.97504 0.13152 0.0
C1022 C 0.13254 0.98197 0.13699 0.0
C1023 C 0.12659 0.98666 0.16177 0.0
H1024 H 0.16027 0.97143 0.11232 0.0
H1025 H 0.08841 0.00903 0.34898 0.0
H1026 H 0.91828 0.41209 0.22004 0.0
H1027 H 0.91811 0.45159 0.24487 0.0
H1028 H 0.84873 0.46345 0.2095 0.0
H1029 H 0.84971 0.42464 0.18359 0.0
H1030 H 0.87136 0.50692 0.22062 0.0
H1031 H 0.85406 0.43384 0.2675 0.0
H1032 H 0.86075 0.39285 0.28458 0.0
H1033 H 0.92706 0.42609 0.32267 0.0
H1034 H 0.92091 0.46726 0.30568 0.0
H1035 H 0.83056 0.5771 0.32613 0.0
H1036 H 0.83486 0.53706 0.30321 0.0
H1037 H 0.91311 0.55569 0.30378 0.0
H1038 H 0.90873 0.59623 0.32567 0.0
H1039 H 0.88452 0.49681 0.31155 0.0
H1040 H 0.90015 0.57033 0.2579 0.0
H1041 H 0.88777 0.61042 0.24311 0.0
H1042 H 0.81695 0.57353 0.21983 0.0
H1043 H 0.82879 0.53331 0.23499 0.0
C1044 C 0.90355 0.42373 0.21682 0.0
C1045 C 0.88416 0.41545 0.19968 0.0
C1046 C 0.90319 0.44609 0.23137 0.0
C1047 C 0.88294 0.46017 0.22985 0.0
C1048 C 0.86449 0.45294 0.21128 0.0
C1049 C 0.86517 0.43085 0.19625 0.0
C1050 C 0.88022 0.48119 0.24867 0.0
C1051 C 0.87417 0.5045 0.24045 0.0
C1052 C 0.88347 0.4783 0.27478 0.0
C1053 C 0.88714 0.45359 0.28514 0.0
C1054 C 0.87014 0.43238 0.27941 0.0
C1055 C 0.87383 0.40912 0.28907 0.0
C1056 C 0.89435 0.40685 0.3046 0.0
C1057 C 0.91119 0.42787 0.3106 0.0
C1058 C 0.9076 0.45119 0.301 0.0
C1059 C 0.84876 0.57209 0.32242 0.0
C1060 C 0.86938 0.58951 0.32811 0.0
C1061 C 0.85117 0.54935 0.30909 0.0
C1062 C 0.87429 0.54351 0.30169 0.0
C1063 C 0.89513 0.55981 0.30941 0.0
C1064 C 0.89265 0.58282 0.32216 0.0
C1065 C 0.87639 0.52229 0.28328 0.0
C1066 C 0.882 0.49902 0.29164 0.0
C1067 C 0.87215 0.52496 0.25742 0.0
C1068 C 0.86527 0.54893 0.24777 0.0
C1069 C 0.88188 0.57083 0.24982 0.0
C1070 C 0.87498 0.59356 0.24134 0.0
C1071 C 0.85161 0.59451 0.23051 0.0
C1072 C 0.83507 0.57274 0.22817 0.0
C1073 C 0.84185 0.54999 0.23672 0.0
H1074 H 0.8463 0.61212 0.22396 0.0
H1075 H 0.89717 0.38882 0.31204 0.0
H1076 H 0.27324 0.13223 0.89046 0.0
H1077 H 0.24681 0.12697 0.92619 0.0
H1078 H 0.31061 0.13239 0.97606 0.0
H1079 H 0.33707 0.13744 0.94052 0.0
H1080 H 0.27576 0.09691 0.99063 0.0
H1081 H 0.27944 0.18321 0.96739 0.0
H1082 H 0.27537 0.21732 0.93848 0.0
H1083 H 0.19888 0.19245 0.92594 0.0
H1084 H 0.20258 0.15795 0.95452 0.0
H1085 H 0.22325 0.1325 0.10531 0.0
H1086 H 0.2474 0.12873 0.06806 0.0
H1087 H 0.18193 0.12894 0.02129 0.0
H1088 H 0.15784 0.13332 0.05842 0.0
H1089 H 0.21649 0.15981 1.0041 0.0
H1090 H 0.21227 0.07457 0.02916 0.0
H1091 H 0.21652 0.04052 0.05807 0.0
H1092 H 0.29375 0.0631 0.0673 0.0
H1093 H 0.28992 0.09752 0.03869 0.0
C1094 C 0.28166 0.1319 0.90899 0.0
C1095 C 0.30731 0.13538 0.91259 0.0
C1096 C 0.2665 0.12904 0.92945 0.0
C1097 C 0.27666 0.12965 0.95395 0.0
C1098 C 0.30227 0.13191 0.95742 0.0
C1099 C 0.31741 0.13484 0.93702 0.0
C1100 C 0.26076 0.1292 0.97605 0.0
C1101 C 0.26294 0.11078 0.99368 0.0
C1102 C 0.24366 0.14699 0.97991 0.0
C1103 C 0.24135 0.16784 0.96288 0.0
C1104 C 0.2618 0.1849 0.95832 0.0
C1105 C 0.25955 0.20432 0.94201 0.0
C1106 C 0.2369 0.207 0.93032 0.0
C1107 C 0.21643 0.19032 0.93497 0.0
C1108 C 0.21858 0.17084 0.95123 0.0
C1109 C 0.21393 0.13138 0.0871 0.0
C1110 C 0.18857 0.13317 0.08491 0.0
C1111 C 0.22778 0.12916 0.06574 0.0
C1112 C 0.21655 0.12834 0.04168 0.0
C1113 C 0.19112 0.12957 0.03953 0.0
C1114 C 0.17731 0.13195 0.06085 0.0
C1115 C 0.23138 0.12744 0.01878 0.0
C1116 C 0.22911 0.14573 1.00101 0.0
C1117 C 0.24837 0.10951 0.01482 0.0
C1118 C 0.25076 0.08877 0.03195 0.0
C1119 C 0.23013 0.07239 0.03749 0.0
C1120 C 0.23247 0.053 0.05381 0.0
C1121 C 0.25538 0.04968 0.06456 0.0
C1122 C 0.27601 0.06571 0.05898 0.0
C1123 C 0.27377 0.08515 0.04269 0.0
H1124 H 0.25715 0.03466 0.07719 0.0
H1125 H 0.2352 0.22204 0.91769 0.0
H1126 H 0.78674 0.36014 0.11875 0.0
H1127 H 0.76063 0.36356 0.08136 0.0
H1128 H 0.82467 0.38085 0.03854 0.0
H1129 H 0.85101 0.37692 0.07579 0.0
H1130 H 0.78177 0.41112 0.02902 0.0
H1131 H 0.80343 0.32534 0.03267 0.0
H1132 H 0.80694 0.28566 0.05371 0.0
H1133 H 0.72934 0.27729 0.06385 0.0
H1134 H 0.72544 0.31716 0.0432 0.0
H1135 H 0.72832 0.38395 0.90578 0.0
H1136 H 0.7534 0.39048 0.94465 0.0
H1137 H 0.69797 0.34501 0.98266 0.0
H1138 H 0.6739 0.33713 0.94341 0.0
H1139 H 0.7373 0.33044 0.99556 0.0
H1140 H 0.71333 0.41385 0.99214 0.0
H1141 H 0.70768 0.45447 0.97374 0.0
H1142 H 0.78537 0.46904 0.96607 0.0
H1143 H 0.79146 0.42835 0.98414 0.0
C1144 C 0.7953 0.36512 0.10151 0.0
C1145 C 0.82099 0.3682 0.10026 0.0
C1146 C 0.78033 0.36702 0.08013 0.0
C1147 C 0.7907 0.37239 0.05714 0.0
C1148 C 0.81629 0.37678 0.0561 0.0
C1149 C 0.83131 0.37446 0.0774 0.0
C1150 C 0.7749 0.37132 0.0339 0.0
C1151 C 0.77218 0.3935 0.02147 0.0
C1152 C 0.76189 0.34845 0.02449 0.0
C1153 C 0.76419 0.32435 0.03664 0.0
C1154 C 0.78715 0.31515 0.03958 0.0
C1155 C 0.78921 0.29261 0.0514 0.0
C1156 C 0.76839 0.279 0.06017 0.0
C1157 C 0.74546 0.28787 0.05708 0.0
C1158 C 0.74331 0.31042 0.04531 0.0
C1159 C 0.72133 0.37585 0.92261 0.0
C1160 C 0.6991 0.3602 0.92166 0.0
C1161 C 0.73565 0.37962 0.94493 0.0
C1162 C 0.72765 0.36847 0.96696 0.0
C1163 C 0.70482 0.35375 0.96608 0.0
C1164 C 0.69091 0.3494 0.94367 0.0
C1165 C 0.74362 0.37043 0.99041 0.0
C1166 C 0.74659 0.34827 1.00295 0.0
C1167 C 0.75641 0.39347 1.00013 0.0
C1168 C 0.75282 0.41794 0.98927 0.0
C1169 C 0.72919 0.42564 0.98636 0.0
C1170 C 0.72591 0.44868 0.97602 0.0
C1171 C 0.74614 0.46429 0.96868 0.0
C1172 C 0.76971 0.45691 0.97173 0.0
C1173 C 0.77309 0.43387 0.98205 0.0
H1174 H 0.74357 0.48213 0.96068 0.0
H1175 H 0.77001 0.26155 0.06932 0.0
H1176 H 0.28528 0.85821 0.62184 0.0
H1177 H 0.25961 0.86303 0.58445 0.0
H1178 H 0.3242 0.88222 0.54299 0.0
H1179 H 0.3501 0.87682 0.58022 0.0
H1180 H 0.28026 0.91273 0.53459 0.0
H1181 H 0.30443 0.82758 0.53406 0.0
H1182 H 0.30896 0.7871 0.55323 0.0
H1183 H 0.23136 0.77597 0.56295 0.0
H1184 H 0.22644 0.81661 0.54418 0.0
H1185 H 0.22878 0.88899 0.4098 0.0
H1186 H 0.25326 0.89499 0.44912 0.0
H1187 H 0.19838 0.8468 0.48501 0.0
H1188 H 0.17487 0.83964 0.44541 0.0
H1189 H 0.23833 0.83247 0.49713 0.0
H1190 H 0.21188 0.91499 0.49739 0.0
H1191 H 0.20516 0.9562 0.48089 0.0
H1192 H 0.28272 0.97373 0.47453 0.0
H1193 H 0.28989 0.93247 0.4907 0.0
C1194 C 0.29406 0.86394 0.60493 0.0
C1195 C 0.31976 0.86709 0.60402 0.0
C1196 C 0.27934 0.86664 0.58354 0.0
C1197 C 0.28999 0.87295 0.56092 0.0
C1198 C 0.3156 0.87745 0.56028 0.0
C1199 C 0.33037 0.87429 0.58155 0.0
C1200 C 0.27448 0.87256 0.53754 0.0
C1201 C 0.27123 0.89521 0.52616 0.0
C1202 C 0.26221 0.8498 0.52697 0.0
C1203 C 0.26512 0.82525 0.53798 0.0
C1204 C 0.28837 0.81661 0.54049 0.0
C1205 C 0.291 0.79362 0.55124 0.0
C1206 C 0.27047 0.77901 0.55937 0.0
C1207 C 0.24725 0.78732 0.55669 0.0
C1208 C 0.24453 0.81032 0.54598 0.0
C1209 C 0.22173 0.88023 0.42629 0.0
C1210 C 0.19985 0.86401 0.42462 0.0
C1211 C 0.23573 0.88366 0.44885 0.0
C1212 C 0.22776 0.87149 0.47037 0.0
C1213 C 0.2052 0.8563 0.46883 0.0
C1214 C 0.1916 0.85238 0.4462 0.0
C1215 C 0.24356 0.87282 0.4939 0.0
C1216 C 0.24707 0.85019 0.50538 0.0
C1217 C 0.25563 0.89572 0.50476 0.0
C1218 C 0.2514 0.92053 0.49502 0.0
C1219 C 0.22749 0.92755 0.49229 0.0
C1220 C 0.2236 0.95093 0.48303 0.0
C1221 C 0.24349 0.96754 0.4766 0.0
C1222 C 0.26732 0.96083 0.47949 0.0
C1223 C 0.27131 0.93746 0.48872 0.0
H1224 H 0.24044 0.98564 0.46944 0.0
H1225 H 0.27254 0.76121 0.56769 0.0
H1226 H 0.66173 0.64018 0.56154 0.0
H1227 H 0.68687 0.63806 0.52501 0.0
H1228 H 0.75094 0.6343 0.57294 0.0
H1229 H 0.72579 0.63677 0.60977 0.0
H1230 H 0.76031 0.66778 0.53792 0.0
H1231 H 0.72409 0.58221 0.53731 0.0
H1232 H 0.69032 0.54805 0.53793 0.0
H1233 H 0.65911 0.5727 0.46992 0.0
H1234 H 0.69253 0.60723 0.46906 0.0
H1235 H 0.83953 0.64324 0.44102 0.0
H1236 H 0.81457 0.6387 0.47764 0.0
H1237 H 0.74911 0.63999 0.43112 0.0
H1238 H 0.77411 0.64388 0.39414 0.0
H1239 H 0.74082 0.60672 0.46583 0.0
H1240 H 0.77542 0.69294 0.46699 0.0
H1241 H 0.80846 0.72783 0.46616 0.0
H1242 H 0.84179 0.70287 0.53295 0.0
H1243 H 0.80911 0.66761 0.534 0.0
C1244 C 0.68113 0.63863 0.56438 0.0
C1245 C 0.69169 0.63857 0.58868 0.0
C1246 C 0.69552 0.63732 0.54338 0.0
C1247 C 0.72086 0.63576 0.54605 0.0
C1248 C 0.73144 0.63544 0.5703 0.0
C1249 C 0.71702 0.63673 0.59137 0.0
C1250 C 0.73635 0.63555 0.5236 0.0
C1251 C 0.75628 0.65413 0.52237 0.0
C1252 C 0.73076 0.61826 0.50284 0.0
C1253 C 0.71071 0.59744 0.50324 0.0
C1254 C 0.70993 0.58046 0.52258 0.0
C1255 C 0.69087 0.56101 0.52296 0.0
C1256 C 0.67255 0.55824 0.50401 0.0
C1257 C 0.6733 0.57488 0.4846 0.0
C1258 C 0.69231 0.59438 0.48414 0.0
C1259 C 0.8198 0.64235 0.43848 0.0
C1260 C 0.80886 0.64408 0.41458 0.0
C1261 C 0.80551 0.63991 0.45954 0.0
C1262 C 0.77988 0.63955 0.45739 0.0
C1263 C 0.76882 0.64035 0.43341 0.0
C1264 C 0.78314 0.64258 0.41223 0.0
C1265 C 0.76481 0.63894 0.48019 0.0
C1266 C 0.74493 0.62028 0.48145 0.0
C1267 C 0.77034 0.65625 0.50095 0.0
C1268 C 0.78995 0.67749 0.50043 0.0
C1269 C 0.78989 0.69479 0.4814 0.0
C1270 C 0.80854 0.71464 0.48091 0.0
C1271 C 0.82725 0.71752 0.49945 0.0
C1272 C 0.82731 0.70059 0.51858 0.0
C1273 C 0.80872 0.68068 0.51914 0.0
H1274 H 0.84167 0.73291 0.49904 0.0
H1275 H 0.65781 0.54317 0.50433 0.0
H1276 H 0.95122 0.33375 0.19922 0.0
H1277 H 0.98645 0.30985 0.19322 0.0
H1278 H 0.94551 0.2639 0.13458 0.0
H1279 H 0.91125 0.2893 0.13923 0.0
H1280 H 0.99479 0.26766 0.2013 0.0
H1281 H 0.97963 0.23267 0.09662 0.0
H1282 H 0.96573 0.24863 0.05666 0.0
H1283 H 0.9848 0.32476 0.0852 0.0
H1284 H 0.9991 0.30927 0.12521 0.0
H1285 H 0.06403 0.16611 0.1876 0.0
H1286 H 0.0301 0.1923 0.18552 0.0
H1287 H 0.0674 0.23659 0.1302 0.0
H1288 H 0.10054 0.2092 0.13105 0.0
H1289 H 0.02284 0.23661 0.1198 0.0
H1290 H 0.06872 0.25453 0.19573 0.0
H1291 H 0.08944 0.24569 0.23541 0.0
H1292 H 0.02037 0.21753 0.26409 0.0
H1293 H 0.99928 0.2258 0.2244 0.0
C1294 C 0.95009 0.31897 0.18459 0.0
C1295 C 0.92868 0.31369 0.16939 0.0
C1296 C 0.97017 0.30508 0.18129 0.0
C1297 C 0.96909 0.28496 0.16322 0.0
C1298 C 0.9475 0.27971 0.14808 0.0
C1299 C 0.92777 0.29421 0.15079 0.0
C1300 C 0.98986 0.26872 0.16129 0.0
C1301 C 1.00089 0.26107 0.18339 0.0
C1302 C 0.99863 0.26032 0.13808 0.0
C1303 C 0.9902 0.26979 0.11401 0.0
C1304 C 0.98094 0.25281 0.09434 0.0
C1305 C 0.97297 0.26178 0.07168 0.0
C1306 C 0.97431 0.28769 0.06842 0.0
C1307 C 0.98369 0.30469 0.08778 0.0
C1308 C 0.99169 0.29583 0.11047 0.0
C1309 C 0.06471 0.18111 0.17461 0.0
C1310 C 0.08495 0.18557 0.15948 0.0
C1311 C 0.04542 0.19633 0.17362 0.0
C1312 C 0.04635 0.21712 0.15829 0.0
C1313 C 0.06609 0.22085 0.14231 0.0
C1314 C 0.08507 0.20513 0.14275 0.0
C1315 C 0.02739 0.23545 0.15976 0.0
C1316 C 0.01673 0.2434 0.13764 0.0
C1317 C 0.01992 0.24532 0.18295 0.0
C1318 C 0.03244 0.24058 0.207 0.0
C1319 C 0.05796 0.24632 0.21045 0.0
C1320 C 0.06978 0.24141 0.23294 0.0
C1321 C 0.05623 0.23101 0.25224 0.0
C1322 C 0.03084 0.22556 0.24911 0.0
C1323 C 0.01894 0.23036 0.22662 0.0
H1324 H 0.06541 0.22722 0.26964 0.0
H1325 H 0.96812 0.29459 0.05088 0.0
H1326 H 0.94416 0.68259 0.31933 0.0
H1327 H 0.9802 0.71327 0.32771 0.0
H1328 H 0.94036 0.75285 0.38225 0.0
H1329 H 0.9053 0.72111 0.37531 0.0
H1330 H 0.99008 0.75837 0.32079 0.0
H1331 H 0.97605 0.78752 0.42456 0.0
H1332 H 0.95984 0.76859 0.46257 0.0
H1333 H 0.97416 0.69534 0.43414 0.0
H1334 H 0.9907 0.71387 0.39612 0.0
H1335 H 0.08519 0.85617 0.34567 0.0
H1336 H 0.04276 0.83614 0.34485 0.0
H1337 H 0.06402 0.78384 0.39866 0.0
H1338 H 0.10531 0.80469 0.40079 0.0
H1339 H 0.02102 0.78834 0.40595 0.0
H1340 H 0.06448 0.77408 0.33059 0.0
H1341 H 0.08617 0.78686 0.29291 0.0
H1342 H 0.02233 0.81824 0.2649 0.0
H1343 H 1.00038 0.80606 0.30264 0.0
C1344 C 0.94344 0.69751 0.33355 0.0
C1345 C 0.9222 0.69912 0.34711 0.0
C1346 C 0.96393 0.71524 0.33817 0.0
C1347 C 0.96335 0.7354 0.35593 0.0
C1348 C 0.94184 0.73715 0.36912 0.0
C1349 C 0.92171 0.71896 0.36512 0.0
C1350 C 0.98499 0.75477 0.36022 0.0
C1351 C 0.99682 0.76481 0.33947 0.0
C1352 C 0.99411 0.76336 0.38451 0.0
C1353 C 0.98433 0.75206 0.40738 0.0
C1354 C 0.97579 0.76739 0.42646 0.0
C1355 C 0.96654 0.75673 0.448 0.0
C1356 C 0.96588 0.73077 0.45072 0.0
C1357 C 0.97457 0.71543 0.43196 0.0
C1358 C 0.98386 0.72599 0.4104 0.0
C1359 C 0.08045 0.84113 0.35809 0.0
C1360 C 0.09867 0.83177 0.373 0.0
C1361 C 0.05628 0.82936 0.35731 0.0
C1362 C 0.05022 0.80777 0.371 0.0
C1363 C 0.06798 0.80021 0.38769 0.0
C1364 C 0.09177 0.81217 0.38883 0.0
C1365 C 0.02659 0.79129 0.36657 0.0
C1366 C 0.01419 0.78196 0.38729 0.0
C1367 C 0.0178 0.78231 0.3423 0.0
C1368 C 0.0309 0.78945 0.31954 0.0
C1369 C 0.05512 0.78383 0.31645 0.0
C1370 C 0.06746 0.79096 0.2951 0.0
C1371 C 0.05565 0.80339 0.27656 0.0
C1372 C 0.03146 0.80867 0.27931 0.0
C1373 C 0.01907 0.80169 0.30068 0.0
H1374 H 0.06524 0.80888 0.26004 0.0
H1375 H 0.9587 0.72255 0.4674 0.0
H1376 H 0.59858 0.70564 0.63504 0.0
H1377 H 0.56502 0.7324 0.63423 0.0
H1378 H 0.52518 0.68333 0.68407 0.0
H1379 H 0.55957 0.65771 0.68631 0.0
H1380 H 0.52119 0.73256 0.62153 0.0
H1381 H 0.49081 0.71327 0.72243 0.0
H1382 H 0.50895 0.70173 0.7625 0.0
H1383 H 0.58003 0.73284 0.74128 0.0
H1384 H 0.5623 0.74487 0.70123 0.0
H1385 H 0.40912 0.78569 0.63929 0.0
H1386 H 0.44305 0.75986 0.63434 0.0
H1387 H 0.48231 0.80137 0.69683 0.0
H1388 H 0.44747 0.82574 0.7029 0.0
H1389 H 0.48848 0.75783 0.70282 0.0
H1390 H 0.49802 0.80504 0.6302 0.0
H1391 H 0.48617 0.82343 0.59078 0.0
H1392 H 0.46746 0.7493 0.55688 0.0
H1393 H 0.47892 0.73045 0.59621 0.0
C1394 C 0.58247 0.70036 0.64551 0.0
C1395 C 0.58174 0.67961 0.66081 0.0
C1396 C 0.56324 0.71574 0.64509 0.0
C1397 C 0.54263 0.71047 0.65963 0.0
C1398 C 0.54114 0.68852 0.67338 0.0
C1399 C 0.56069 0.67363 0.67442 0.0
C1400 C 0.52337 0.72844 0.6613 0.0
C1401 C 0.51406 0.73807 0.63934 0.0
C1402 C 0.51445 0.73653 0.68451 0.0
C1403 C 0.52523 0.72973 0.70873 0.0
C1404 C 0.51029 0.71774 0.72636 0.0
C1405 C 0.52051 0.7111 0.74906 0.0
C1406 C 0.54565 0.71647 0.75439 0.0
C1407 C 0.5606 0.72861 0.73708 0.0
C1408 C 0.55047 0.73534 0.71438 0.0
C1409 C 0.42522 0.78957 0.65165 0.0
C1410 C 0.42574 0.8079 0.67134 0.0
C1411 C 0.44475 0.77481 0.64878 0.0
C1412 C 0.4657 0.77865 0.66498 0.0
C1413 C 0.46647 0.79769 0.68411 0.0
C1414 C 0.44662 0.81186 0.68746 0.0
C1415 C 0.48612 0.762 0.66301 0.0
C1416 C 0.49561 0.75249 0.68497 0.0
C1417 C 0.49609 0.75512 0.63992 0.0
C1418 C 0.48911 0.76635 0.61624 0.0
C1419 C 0.49121 0.79266 0.6144 0.0
C1420 C 0.48459 0.80317 0.59205 0.0
C1421 C 0.476 0.78755 0.57136 0.0
C1422 C 0.47408 0.76138 0.57294 0.0
C1423 C 0.48066 0.75077 0.59524 0.0
H1424 H 0.47089 0.79571 0.55407 0.0
H1425 H 0.55353 0.71127 0.77195 0.0
H1426 H 0.84589 0.08465 0.70094 0.0
H1427 H 0.84282 0.04654 0.72505 0.0
H1428 H 0.90936 0.07425 0.76673 0.0
H1429 H 0.91242 0.11244 0.743 0.0
H1430 H 0.90669 0.02227 0.7528 0.0
H1431 H 0.85746 0.08117 0.79209 0.0
H1432 H 0.82505 0.10985 0.79279 0.0
H1433 H 0.7712 0.04822 0.77025 0.0
H1434 H 0.80339 0.01922 0.76898 0.0
H1435 H 0.89965 0.94142 0.85348 0.0
H1436 H 0.90226 0.97929 0.82926 0.0
H1437 H 0.82927 0.95759 0.79814 0.0
H1438 H 0.82629 0.92011 0.82295 0.0
H1439 H 0.83481 1.0063 0.80563 0.0
H1440 H 0.88261 0.94724 0.76586 0.0
H1441 H 0.91443 0.91797 0.7629 0.0
H1442 H 0.96999 0.97851 0.78385 0.0
H1443 H 0.93845 1.0081 0.78726 0.0
C1444 C 0.86011 0.08246 0.71493 0.0
C1445 C 0.87941 0.1017 0.71998 0.0
C1446 C 0.85823 0.06071 0.72884 0.0
C1447 C 0.87574 0.05759 0.74791 0.0
C1448 C 0.89561 0.0762 0.75218 0.0
C1449 C 0.89731 0.09808 0.73857 0.0
C1450 C 0.8729 0.03551 0.76414 0.0
C1451 C 0.89111 0.01891 0.76456 0.0
C1452 C 0.8523 0.03075 0.77908 0.0
C1453 C 0.83288 0.04807 0.78018 0.0
C1454 C 0.83874 0.07376 0.78709 0.0
C1455 C 0.82041 0.09008 0.78761 0.0
C1456 C 0.79609 0.08088 0.78151 0.0
C1457 C 0.79005 0.05532 0.77494 0.0
C1458 C 0.80833 0.03894 0.77432 0.0
C1459 C 0.88399 0.94489 0.84178 0.0
C1460 C 0.86278 0.92762 0.84016 0.0
C1461 C 0.88559 0.96649 0.82771 0.0
C1462 C 0.8662 0.97116 0.81127 0.0
C1463 C 0.84458 0.95449 0.8105 0.0
C1464 C 0.84288 0.93302 0.82477 0.0
C1465 C 0.86869 0.99291 0.79443 0.0
C1466 C 0.8504 0.00951 0.79387 0.0
C1467 C 0.88912 0.99754 0.77913 0.0
C1468 C 0.90814 0.97982 0.77706 0.0
C1469 C 0.9016 0.95427 0.77001 0.0
C1470 C 0.91958 0.93763 0.76823 0.0
C1471 C 0.94421 0.94636 0.77325 0.0
C1472 C 0.9509 0.97177 0.78 0.0
C1473 C 0.93298 0.98849 0.78185 0.0
H1474 H 0.95811 0.93345 0.77186 0.0
H1475 H 0.78192 0.09354 0.78192 0.0
H1476 H 0.18892 0.60668 0.82137 0.0
H1477 H 0.18656 0.56675 0.79701 0.0
H1478 H 0.11798 0.54256 0.82967 0.0
H1479 H 0.11991 0.58294 0.85392 0.0
H1480 H 0.15458 0.50451 0.82505 0.0
H1481 H 0.11325 0.56315 0.77675 0.0
H1482 H 0.11017 0.60352 0.75688 0.0
H1483 H 0.17166 0.59079 0.71237 0.0
H1484 H 0.17549 0.55067 0.73244 0.0
H1485 H 0.12292 0.4003 0.74105 0.0
H1486 H 0.12076 0.43917 0.76622 0.0
H1487 H 0.17538 0.47767 0.72156 0.0
H1488 H 0.17691 0.43903 0.69569 0.0
H1489 H 0.14428 0.50865 0.73306 0.0
H1490 H 0.18953 0.4545 0.78035 0.0
H1491 H 0.19763 0.41513 0.79985 0.0
H1492 H 0.1355 0.41998 0.84565 0.0
H1493 H 0.1269 0.45935 0.82623 0.0
C1494 C 0.17348 0.59278 0.82375 0.0
C1495 C 0.15455 0.59807 0.83961 0.0
C1496 C 0.17213 0.56997 0.80969 0.0
C1497 C 0.152 0.5518 0.81135 0.0
C1498 C 0.13366 0.55639 0.8281 0.0
C1499 C 0.1348 0.57944 0.84195 0.0
C1500 C 0.14969 0.52865 0.79462 0.0
C1501 C 0.15189 0.50529 0.80497 0.0
C1502 C 0.14713 0.52985 0.76836 0.0
C1503 C 0.1448 0.55401 0.75629 0.0
C1504 C 0.12629 0.5691 0.76294 0.0
C1505 C 0.12439 0.59194 0.75162 0.0
C1506 C 0.14076 0.59977 0.73344 0.0
C1507 C 0.15904 0.58476 0.72652 0.0
C1508 C 0.16109 0.56198 0.73787 0.0
C1509 C 0.13422 0.41713 0.73633 0.0
C1510 C 0.15017 0.41647 0.71637 0.0
C1511 C 0.13312 0.43934 0.7509 0.0
C1512 C 0.14838 0.4613 0.7463 0.0
C1513 C 0.16349 0.46101 0.72566 0.0
C1514 C 0.16431 0.43887 0.7108 0.0
C1515 C 0.14913 0.48427 0.76339 0.0
C1516 C 0.14675 0.50768 0.75313 0.0
C1517 C 0.1522 0.48322 0.7897 0.0
C1518 C 0.15742 0.45972 0.80165 0.0
C1519 C 0.1775 0.44708 0.79447 0.0
C1520 C 0.18218 0.42477 0.80551 0.0
C1521 C 0.16702 0.41497 0.82389 0.0
C1522 C 0.1472 0.42756 0.83136 0.0
C1523 C 0.14243 0.4499 0.82037 0.0
H1524 H 0.17066 0.39766 0.83239 0.0
H1525 H 0.13923 0.61744 0.72466 0.0
H1526 H 0.727 0.82477 0.11376 0.0
H1527 H 0.75432 0.82744 0.07853 0.0
H1528 H 0.72892 0.89837 0.06024 0.0
H1529 H 0.70169 0.89589 0.09546 0.0
H1530 H 0.73183 0.86707 0.01835 0.0
H1531 H 0.78384 0.8977 0.08929 0.0
H1532 H 0.80273 0.89599 0.13147 0.0
H1533 H 0.835 0.82917 0.10868 0.0
H1534 H 0.816 0.83026 0.06644 0.0
H1535 H 0.82164 0.89311 0.92795 0.0
H1536 H 0.79938 0.89924 0.96646 0.0
H1537 H 0.8218 0.82978 0.993 0.0
H1538 H 0.84379 0.82362 0.95477 0.0
H1539 H 0.82138 0.86427 0.03153 0.0
H1540 H 0.76576 0.82846 0.96541 0.0
H1541 H 0.74567 0.82568 0.92351 0.0
H1542 H 0.72026 0.89829 0.93707 0.0
H1543 H 0.7401 0.90134 0.97931 0.0
C1544 C 0.72708 0.84085 0.10214 0.0
C1545 C 0.71211 0.86011 0.10749 0.0
C1546 C 0.74286 0.84245 0.08208 0.0
C1547 C 0.74396 0.86327 0.06682 0.0
C1548 C 0.72852 0.88216 0.07173 0.0
C1549 C 0.71294 0.8807 0.09192 0.0
C1550 C 0.76113 0.86534 0.04575 0.0
C1551 C 0.75146 0.86697 0.02135 0.0
C1552 C 0.78674 0.86457 0.04941 0.0
C1553 C 0.7983 0.86394 0.07476 0.0
C1554 C 0.7948 0.88252 0.09332 0.0
C1555 C 0.80556 0.88168 0.11723 0.0
C1556 C 0.82001 0.86244 0.12277 0.0
C1557 C 0.82378 0.84404 0.10438 0.0
C1558 C 0.81304 0.84478 0.08044 0.0
C1559 C 0.82246 0.87963 0.94238 0.0
C1560 C 0.83456 0.85794 0.93836 0.0
C1561 C 0.8095 0.88297 0.96428 0.0
C1562 C 0.80858 0.86478 0.9826 0.0
C1563 C 0.82213 0.84408 0.97927 0.0
C1564 C 0.83476 0.8406 0.95737 0.0
C1565 C 0.79206 0.86597 1.00417 0.0
C1566 C 0.8018 0.86482 0.02863 0.0
C1567 C 0.76648 0.86682 1.0006 0.0
C1568 C 0.75462 0.86526 0.97531 0.0
C1569 C 0.75602 0.8439 0.95937 0.0
C1570 C 0.74466 0.84227 0.93558 0.0
C1571 C 0.73186 0.8619 0.92749 0.0
C1572 C 0.73025 0.88314 0.94331 0.0
C1573 C 0.74148 0.88479 0.96722 0.0
H1574 H 0.7231 0.8606 0.90903 0.0
H1575 H 0.82832 0.86183 0.1413 0.0
H1576 H 0.19095 0.63847 0.92677 0.0
H1577 H 0.21795 0.6324 0.96292 0.0
H1578 H 0.22175 0.71175 0.98338 0.0
H1579 H 0.19527 0.71797 0.9473 0.0
H1580 H 0.26614 0.69783 0.9828 0.0
H1581 H 0.19025 0.66522 0.01765 0.0
H1582 H 0.1516 0.63743 0.01892 0.0
H1583 H 0.19157 0.57242 0.01709 0.0
H1584 H 0.23046 0.59983 0.01549 0.0
H1585 H 0.32422 0.7028 0.1033 0.0
H1586 H 0.29627 0.70444 0.06712 0.0
H1587 H 0.29708 0.62451 0.05226 0.0
H1588 H 0.3247 0.62267 0.08882 0.0
H1589 H 0.25147 0.6363 0.0486 0.0
H1590 H 0.32737 0.66875 0.01526 0.0
H1591 H 0.36613 0.69634 0.01395 0.0
H1592 H 0.32629 0.76138 0.01245 0.0
H1593 H 0.28729 0.73419 0.01409 0.0
C1594 C 0.19705 0.6545 0.93932 0.0
C1595 C 0.19092 0.67872 0.93403 0.0
C1596 C 0.21259 0.65103 0.95999 0.0
C1597 C 0.22206 0.67164 0.97595 0.0
C1598 C 0.21495 0.69556 0.97131 0.0
C1599 C 0.19963 0.69906 0.95067 0.0
C1600 C 0.24049 0.66889 0.99659 0.0
C1601 C 0.26274 0.68457 0.99735 0.0
C1602 C 0.23659 0.65104 0.01519 0.0
C1603 C 0.21324 0.63456 0.01617 0.0
C1604 C 0.19078 0.64499 0.01731 0.0
C1605 C 0.16883 0.62931 0.01813 0.0
C1606 C 0.16912 0.60318 0.01801 0.0
C1607 C 0.19137 0.59267 0.01714 0.0
C1608 C 0.21337 0.60826 0.01629 0.0
C1609 C 0.31875 0.68561 0.09216 0.0
C1610 C 0.32686 0.66262 0.09894 0.0
C1611 C 0.30273 0.68657 0.07139 0.0
C1612 C 0.29462 0.66463 0.0567 0.0
C1613 C 0.303 0.64171 0.06323 0.0
C1614 C 0.31895 0.64072 0.08408 0.0
C1615 C 0.2769 0.66555 0.03501 0.0
C1616 C 0.25487 0.6495 0.034 0.0
C1617 C 0.28099 0.68303 0.0161 0.0
C1618 C 0.30442 0.69943 0.01501 0.0
C1619 C 0.32688 0.68895 0.01483 0.0
C1620 C 0.3489 0.70451 0.014 0.0
C1621 C 0.34868 0.7306 0.01317 0.0
C1622 C 0.32644 0.74117 0.01311 0.0
C1623 C 0.30437 0.72569 0.01396 0.0
H1624 H 0.36574 0.74262 0.01253 0.0
H1625 H 0.15211 0.59107 0.01866 0.0
H1626 H 0.70298 0.21978 0.44723 0.0
H1627 H 0.72823 0.21223 0.48371 0.0
H1628 H 0.71789 0.13234 0.46557 0.0
H1629 H 0.69229 0.13975 0.4286 0.0
H1630 H 0.71778 0.14412 0.51759 0.0
H1631 H 0.77039 0.16245 0.45022 0.0
H1632 H 0.78619 0.1857 0.41456 0.0
H1633 H 0.80225 0.25273 0.46197 0.0
H1634 H 0.78661 0.22972 0.49804 0.0
H1635 H 0.82038 0.12104 0.59594 0.0
H1636 H 0.7926 0.1228 0.55952 0.0
H1637 H 0.8002 0.20394 0.56774 0.0
H1638 H 0.82812 0.20232 0.60409 0.0
H1639 H 0.80194 0.18834 0.51936 0.0
H1640 H 0.74939 0.16853 0.58737 0.0
H1641 H 0.73421 0.14394 0.62255 0.0
H1642 H 0.71807 0.07831 0.57327 0.0
H1643 H 0.73347 0.10243 0.53784 0.0
C1644 C 0.70569 0.2005 0.45105 0.0
C1645 C 0.69569 0.18039 0.4347 0.0
C1646 C 0.72027 0.19624 0.47197 0.0
C1647 C 0.72543 0.17178 0.47717 0.0
C1648 C 0.71428 0.15141 0.46187 0.0
C1649 C 0.69957 0.15567 0.44078 0.0
C1650 C 0.74358 0.16805 0.49771 0.0
C1651 C 0.7363 0.15342 0.5178 0.0
C1652 C 0.76769 0.18047 0.49826 0.0
C1653 C 0.77716 0.19443 0.47674 0.0
C1654 C 0.77716 0.18219 0.453 0.0
C1655 C 0.78612 0.19533 0.43272 0.0
C1656 C 0.79508 0.22076 0.43593 0.0
C1657 C 0.79526 0.23305 0.4595 0.0
C1658 C 0.78644 0.21994 0.4799 0.0
C1659 C 0.81634 0.13929 0.58988 0.0
C1660 C 0.82651 0.16156 0.60299 0.0
C1661 C 0.80027 0.14026 0.56913 0.0
C1662 C 0.79394 0.16349 0.56104 0.0
C1663 C 0.80468 0.18577 0.57363 0.0
C1664 C 0.82069 0.18482 0.59443 0.0
C1665 C 0.77612 0.16467 0.53952 0.0
C1666 C 0.78347 0.17888 0.51918 0.0
C1667 C 0.75217 0.15171 0.53876 0.0
C1668 C 0.74283 0.13721 0.56001 0.0
C1669 C 0.74279 0.1488 0.58407 0.0
C1670 C 0.73411 0.13496 0.60405 0.0
C1671 C 0.72525 0.10956 0.60016 0.0
C1672 C 0.72498 0.09797 0.57626 0.0
C1673 C 0.73366 0.11172 0.55622 0.0
H1674 H 0.71853 0.09888 0.61565 0.0
H1675 H 0.80197 0.23092 0.42018 0.0
H1676 H 0.19739 0.40103 0.58596 0.0
H1677 H 0.22589 0.40604 0.55183 0.0
H1678 H 0.25545 0.33727 0.57054 0.0
H1679 H 0.22683 0.33194 0.60438 0.0
H1680 H 0.29164 0.37842 0.56562 0.0
H1681 H 0.22009 0.33705 0.52 0.0
H1682 H 0.17673 0.33229 0.50536 0.0
H1683 H 0.18693 0.40374 0.4714 0.0
H1684 H 0.23031 0.40908 0.48615 0.0
H1685 H 0.35831 0.34192 0.46322 0.0
H1686 H 0.33326 0.34966 0.49861 0.0
H1687 H 0.30279 0.40932 0.46029 0.0
H1688 H 0.32751 0.40083 0.4241 0.0
H1689 H 0.26716 0.37936 0.47584 0.0
H1690 H 0.33926 0.41966 0.5172 0.0
H1691 H 0.3826 0.42572 0.53189 0.0
H1692 H 0.37189 0.35947 0.57437 0.0
H1693 H 0.32857 0.35279 0.55968 0.0
C1694 C 0.2097 0.38676 0.58256 0.0
C1695 C 0.20971 0.36601 0.59787 0.0
C1696 C 0.22602 0.38969 0.56306 0.0
C1697 C 0.24292 0.37208 0.55863 0.0
C1698 C 0.24268 0.35115 0.57362 0.0
C1699 C 0.22614 0.34803 0.59287 0.0
C1700 C 0.26131 0.37572 0.53886 0.0
C1701 C 0.28633 0.37843 0.54595 0.0
C1702 C 0.25441 0.3768 0.51329 0.0
C1703 C 0.22835 0.37361 0.50445 0.0
C1704 C 0.21302 0.35186 0.50963 0.0
C1705 C 0.18846 0.34903 0.50126 0.0
C1706 C 0.17906 0.36774 0.48753 0.0
C1707 C 0.19422 0.38929 0.48208 0.0
C1708 C 0.2188 0.39222 0.49043 0.0
C1709 C 0.34703 0.3574 0.46268 0.0
C1710 C 0.34511 0.37089 0.44087 0.0
C1711 C 0.33259 0.36183 0.48304 0.0
C1712 C 0.31602 0.38018 0.48241 0.0
C1713 C 0.31538 0.39503 0.46135 0.0
C1714 C 0.32985 0.39049 0.44079 0.0
C1715 C 0.29774 0.38163 0.50246 0.0
C1716 C 0.27265 0.37981 0.49549 0.0
C1717 C 0.3046 0.38169 0.52822 0.0
C1718 C 0.33066 0.38565 0.53719 0.0
C1719 C 0.34618 0.40628 0.52954 0.0
C1720 C 0.37074 0.40984 0.53789 0.0
C1721 C 0.38 0.39297 0.55402 0.0
C1722 C 0.36469 0.37253 0.56188 0.0
C1723 C 0.34012 0.36887 0.55357 0.0
H1724 H 0.39902 0.39576 0.56046 0.0
H1725 H 0.16004 0.3655 0.48106 0.0
H1726 H 0.07891 0.68587 0.88199 0.0
H1727 H 0.03968 0.70346 0.8857 0.0
H1728 H 0.07695 0.77864 0.88646 0.0
H1729 H 0.11613 0.76133 0.88366 0.0
H1730 H 0.04249 0.77893 0.91768 0.0
H1731 H 0.04569 0.74807 0.83281 0.0
H1732 H 0.05021 0.71676 0.79854 0.0
H1733 H 0.98791 0.67018 0.82289 0.0
H1734 H 0.98322 0.70108 0.85752 0.0
H1735 H 0.93894 0.84272 0.87964 0.0
H1736 H 0.97818 0.82469 0.88227 0.0
H1737 H 0.94015 0.75148 0.89291 0.0
H1738 H 0.901 0.76922 0.89054 0.0
H1739 H 0.97444 0.74991 0.85667 0.0
H1740 H 0.97112 0.78363 0.94107 0.0
H1741 H 0.96709 0.81682 0.97366 0.0
H1742 H 0.03043 0.86051 0.94765 0.0
H1743 H 0.03464 0.82772 0.91466 0.0
C1744 C 0.07881 0.70615 0.88319 0.0
C1745 C 0.10084 0.72208 0.8824 0.0
C1746 C 0.05628 0.71623 0.88513 0.0
C1747 C 0.05513 0.74248 0.88588 0.0
C1748 C 0.07716 0.75837 0.88587 0.0
C1749 C 0.09967 0.74834 0.8842 0.0
C1750 C 0.03109 0.7535 0.88615 0.0
C1751 C 0.02775 0.77272 0.90413 0.0
C1752 C 0.01154 0.74535 0.86874 0.0
C1753 C 0.01427 0.72675 0.84791 0.0
C1754 C 0.03307 0.73106 0.83096 0.0
C1755 C 0.03564 0.7134 0.81146 0.0
C1756 C 0.0194 0.69146 0.80858 0.0
C1757 C 1.0005 0.68716 0.82517 0.0
C1758 C 0.99787 0.70475 0.84473 0.0
C1759 C 0.93888 0.82284 0.88283 0.0
C1760 C 0.91662 0.80752 0.88485 0.0
C1761 C 0.96139 0.81254 0.88435 0.0
C1762 C 0.96219 0.78668 0.88781 0.0
C1763 C 0.94007 0.77145 0.89017 0.0
C1764 C 0.91763 0.78173 0.88891 0.0
C1765 C 0.98593 0.77525 0.88816 0.0
C1766 C 0.98919 0.75601 0.87025 0.0
C1767 C 1.0055 0.78364 0.90537 0.0
C1768 C 1.00305 0.80333 0.92524 0.0
C1769 C 0.98407 0.80041 0.94216 0.0
C1770 C 0.98178 0.81913 0.96074 0.0
C1771 C 0.99845 0.84079 0.96268 0.0
C1772 C 0.0175 0.84374 0.9461 0.0
C1773 C 0.01987 0.82508 0.92748 0.0
H1774 H 0.99665 0.85526 0.97708 0.0
H1775 H 0.02142 0.67781 0.79347 0.0
H1776 H 0.11981 0.30119 0.62214 0.0
H1777 H 0.08239 0.27224 0.61402 0.0
H1778 H 0.04301 0.31963 0.66191 0.0
H1779 H 0.08051 0.34797 0.67052 0.0
H1780 H 0.03937 0.27442 0.67766 0.0
H1781 H 0.02882 0.30905 0.5976 0.0
H1782 H 0.04102 0.32206 0.5559 0.0
H1783 H 0.05233 0.24576 0.5348 0.0
H1784 H 0.04051 0.23234 0.57652 0.0
H1785 H 0.91751 0.20417 0.6272 0.0
H1786 H 0.95405 0.23179 0.61744 0.0
H1787 H 0.99811 0.19082 0.66607 0.0
H1788 H 0.96137 0.16422 0.67686 0.0
H1789 H 0.9987 0.23335 0.60024 0.0
H1790 H 0.03851 0.22915 0.69991 0.0
H1791 H 0.02563 0.21893 0.74221 0.0
H1792 H 0.95389 0.2398 0.72475 0.0
H1793 H 0.96624 0.2501 0.68218 0.0
C1794 C 0.10284 0.30603 0.62987 0.0
C1795 C 0.10291 0.32706 0.64659 0.0
C1796 C 0.08145 0.28935 0.6254 0.0
C1797 C 0.05976 0.29358 0.63746 0.0
C1798 C 0.05945 0.3158 0.65246 0.0
C1799 C 0.08081 0.33222 0.65713 0.0
C1800 C 0.0386 0.27352 0.63745 0.0
C1801 C 0.0305 0.26556 0.66064 0.0
C1802 C 0.02693 0.26172 0.61537 0.0
C1803 C 0.03399 0.26973 0.59027 0.0
C1804 C 0.0341 0.29508 0.58414 0.0
C1805 C 0.04091 0.30252 0.56049 0.0
C1806 C 0.04751 0.28476 0.54273 0.0
C1807 C 0.04724 0.2595 0.54858 0.0
C1808 C 0.04046 0.25196 0.57222 0.0
C1809 C 0.93518 0.20037 0.63491 0.0
C1810 C 0.93664 0.18191 0.65263 0.0
C1811 C 0.95608 0.21636 0.62952 0.0
C1812 C 0.97882 0.21399 0.64161 0.0
C1813 C 0.98071 0.19359 0.65703 0.0
C1814 C 0.95977 0.17805 0.66288 0.0
C1815 C 0.99961 0.23434 0.64046 0.0
C1816 C 1.00766 0.24228 0.61717 0.0
C1817 C 0.01117 0.24647 0.66248 0.0
C1818 C 1.00326 0.24016 0.68782 0.0
C1819 C 0.01997 0.23153 0.70508 0.0
C1820 C 0.01273 0.22568 0.72905 0.0
C1821 C 0.98888 0.22858 0.73605 0.0
C1822 C 0.97223 0.23738 0.71911 0.0
C1823 C 0.97933 0.24318 0.69506 0.0
H1824 H 0.98332 0.2241 0.75464 0.0
H1825 H 0.05277 0.29056 0.52443 0.0
H1826 H 0.62413 0.26566 0.38152 0.0
H1827 H 0.58561 0.28409 0.38378 0.0
H1828 H 0.54651 0.20987 0.38499 0.0
H1829 H 0.58522 0.19108 0.38154 0.0
H1830 H 0.52245 0.23579 0.3557 0.0
H1831 H 0.55611 0.25317 0.43853 0.0
H1832 H 0.58722 0.26862 0.4714 0.0
H1833 H 0.58775 0.34374 0.44588 0.0
H1834 H 0.55686 0.32867 0.41264 0.0
H1835 H 0.41093 0.27571 0.3961 0.0
H1836 H 0.45062 0.25931 0.39642 0.0
H1837 H 0.48481 0.33121 0.37555 0.0
H1838 H 0.44471 0.348 0.37489 0.0
H1839 H 0.51103 0.30729 0.41493 0.0
H1840 H 0.47552 0.28774 0.33205 0.0
H1841 H 0.44236 0.2708 0.30189 0.0
H1842 H 0.4436 0.19732 0.33101 0.0
H1843 H 0.47652 0.21392 0.36163 0.0
C1844 C 0.60743 0.25311 0.38247 0.0
C1845 C 0.60798 0.22674 0.38143 0.0
C1846 C 0.58527 0.26379 0.38392 0.0
C1847 C 0.56294 0.24853 0.38501 0.0
C1848 C 0.56339 0.22218 0.38423 0.0
C1849 C 0.58561 0.21141 0.38239 0.0
C1850 C 0.5392 0.2601 0.38606 0.0
C1851 C 0.51996 0.25117 0.36894 0.0
C1852 C 0.53579 0.28059 0.40296 0.0
C1853 C 0.55434 0.28974 0.42294 0.0
C1854 C 0.56299 0.27295 0.43981 0.0
C1855 C 0.58057 0.28164 0.45853 0.0
C1856 C 0.5895 0.30713 0.46068 0.0
C1857 C 0.58083 0.324 0.44416 0.0
C1858 C 0.56328 0.31539 0.4254 0.0
C1859 C 0.4268 0.28828 0.39173 0.0
C1860 C 0.42442 0.3133 0.38539 0.0
C1861 C 0.44956 0.27875 0.39186 0.0
C1862 C 0.4707 0.29391 0.38581 0.0
C1863 C 0.46871 0.31914 0.38025 0.0
C1864 C 0.44576 0.3287 0.37984 0.0
C1865 C 0.49458 0.28292 0.38464 0.0
C1866 C 0.51373 0.29194 0.40172 0.0
C1867 C 0.49779 0.26227 0.36802 0.0
C1868 C 0.47835 0.25213 0.34927 0.0
C1869 C 0.46861 0.26801 0.33214 0.0
C1870 C 0.44987 0.25846 0.31495 0.0
C1871 C 0.44083 0.23301 0.31458 0.0
C1872 C 0.4506 0.21703 0.33133 0.0
C1873 C 0.46932 0.2265 0.34859 0.0
H1874 H 0.4263 0.22566 0.30127 0.0
H1875 H 0.6031 0.31383 0.47519 0.0
H1876 H 0.59248 0.57594 0.6828 0.0
H1877 H 0.5921 0.53534 0.70228 0.0
H1878 H 0.66778 0.53212 0.68455 0.0
H1879 H 0.66768 0.57212 0.66389 0.0
H1880 H 0.64706 0.48582 0.68658 0.0
H1881 H 0.6514 0.56006 0.74065 0.0
H1882 H 0.6381 0.59991 0.75768 0.0
H1883 H 0.56998 0.56072 0.77795 0.0
H1884 H 0.58278 0.52064 0.76091 0.0
H1885 H 0.66276 0.44599 0.82506 0.0
H1886 H 0.65732 0.47768 0.79459 0.0
H1887 H 0.62223 0.42006 0.74255 0.0
H1888 H 0.6287 0.38801 0.77274 0.0
H1889 H 0.62221 0.49608 0.7742 0.0
H1890 H 0.63022 0.43631 0.68242 0.0
H1891 H 0.65047 0.39964 0.66741 0.0
H1892 H 0.70587 0.41474 0.72615 0.0
H1893 H 0.68613 0.45167 0.74129 0.0
C1894 C 0.60859 0.56584 0.68184 0.0
C1895 C 0.62999 0.577 0.67151 0.0
C1896 C 0.60853 0.54282 0.69339 0.0
C1897 C 0.63016 0.53096 0.6957 0.0
C1898 C 0.65086 0.54086 0.6832 0.0
C1899 C 0.65074 0.56365 0.67113 0.0
C1900 C 0.63207 0.5104 0.71357 0.0
C1901 C 0.64144 0.48797 0.70568 0.0
C1902 C 0.62558 0.51337 0.73883 0.0
C1903 C 0.61794 0.5374 0.7493 0.0
C1904 C 0.63353 0.55997 0.74863 0.0
C1905 C 0.6261 0.58259 0.75827 0.0
C1906 C 0.60319 0.58286 0.76877 0.0
C1907 C 0.5877 0.56048 0.76976 0.0
C1908 C 0.59504 0.5378 0.76015 0.0
C1909 C 0.65378 0.44001 0.80717 0.0
C1910 C 0.64622 0.41439 0.80137 0.0
C1911 C 0.65064 0.45824 0.78968 0.0
C1912 C 0.63964 0.45144 0.76594 0.0
C1913 C 0.63131 0.4259 0.76041 0.0
C1914 C 0.63482 0.40756 0.77781 0.0
C1915 C 0.63701 0.47121 0.74726 0.0
C1916 C 0.62757 0.49364 0.75503 0.0
C1917 C 0.6444 0.46859 0.72223 0.0
C1918 C 0.65651 0.44656 0.71315 0.0
C1919 C 0.64676 0.43183 0.69208 0.0
C1920 C 0.65814 0.411 0.68356 0.0
C1921 C 0.67939 0.40481 0.69588 0.0
C1922 C 0.68935 0.41949 0.71669 0.0
C1923 C 0.67806 0.44035 0.72526 0.0
H1924 H 0.68816 0.38867 0.68926 0.0
H1925 H 0.59746 0.60039 0.77621 0.0
H1926 H 0.34004 0.0738 0.83453 0.0
H1927 H 0.34475 0.03327 0.81267 0.0
H1928 H 0.41357 0.06474 0.78492 0.0
H1929 H 0.40849 0.10519 0.80607 0.0
H1930 H 0.38668 0.04383 0.74775 0.0
H1931 H 0.40894 0.01784 0.82938 0.0
H1932 H 0.4036 0.01098 0.87412 0.0
H1933 H 0.33777 0.96192 0.85624 0.0
H1934 H 0.34256 0.96875 0.8114 0.0
H1935 H 0.4114 0.90126 0.73242 0.0
H1936 H 0.41297 0.94193 0.75534 0.0
H1937 H 0.35783 0.96457 0.70426 0.0
H1938 H 0.35672 0.92392 0.68082 0.0
H1939 H 0.37836 0.95839 0.78101 0.0
H1940 H 0.36045 0.02891 0.70557 0.0
H1941 H 0.36926 0.036 0.66148 0.0
H1942 H 0.43323 0.99648 0.66831 0.0
H1943 H 0.42498 0.98944 0.71251 0.0
C1944 C 0.3566 0.07169 0.82457 0.0
C1945 C 0.37405 0.09253 0.82225 0.0
C1946 C 0.35921 0.04857 0.81187 0.0
C1947 C 0.37949 0.04586 0.79692 0.0
C1948 C 0.39765 0.0663 0.79605 0.0
C1949 C 0.39491 0.08934 0.80843 0.0
C1950 C 0.38112 0.0226 0.78073 0.0
C1951 C 0.38488 0.02515 0.7551 0.0
C1952 C 0.37889 0.99815 0.79012 0.0
C1953 C 0.37598 0.99401 0.81706 0.0
C1954 C 0.39322 1.00575 0.83501 0.0
C1955 C 0.39031 1.00183 0.86038 0.0
C1956 C 0.37032 0.98608 0.86803 0.0
C1957 C 0.35323 0.97415 0.8503 0.0
C1958 C 0.35604 0.97802 0.8249 0.0
C1959 C 0.40019 0.91523 0.72558 0.0
C1960 C 0.3841 0.90945 0.70467 0.0
C1961 C 0.40088 0.9384 0.73889 0.0
C1962 C 0.38538 0.95638 0.73178 0.0
C1963 C 0.37019 0.95121 0.71006 0.0
C1964 C 0.36969 0.92802 0.69651 0.0
C1965 C 0.38416 0.97965 0.74808 0.0
C1966 C 0.38021 0.97708 0.77369 0.0
C1967 C 0.38666 1.00412 0.73875 0.0
C1968 C 0.39193 1.00843 0.71226 0.0
C1969 C 0.37644 0.02181 0.69767 0.0
C1970 C 0.38132 0.0258 0.67266 0.0
C1971 C 0.40174 0.01662 0.66208 0.0
C1972 C 0.41737 1.00349 0.6765 0.0
C1973 C 0.41257 0.99947 0.70152 0.0
H1974 H 0.40549 0.01972 0.64271 0.0
H1975 H 0.3681 0.98307 0.88768 0.0
H1976 H 0.40275 0.22073 0.88227 0.0
H1977 H 0.43676 0.25383 0.89004 0.0
H1978 H 0.47603 0.22074 0.83073 0.0
H1979 H 0.44129 0.18878 0.82186 0.0
H1980 H 0.48012 0.25936 0.90423 0.0
H1981 H 0.51142 0.26163 0.80082 0.0
H1982 H 0.49237 0.25506 0.7584 0.0
H1983 H 0.42326 0.27172 0.78649 0.0
H1984 H 0.44195 0.27879 0.82899 0.0
H1985 H 0.60261 0.30003 0.89812 0.0
H1986 H 0.56033 0.28257 0.89828 0.0
H1987 H 0.5397 0.34049 0.8505 0.0
H1988 H 0.58303 0.3573 0.849 0.0
H1989 H 0.51926 0.2997 0.83206 0.0
H1990 H 0.51912 0.33373 0.91371 0.0
H1991 H 0.5335 0.34594 0.957 0.0
H1992 H 0.53208 0.268 0.97394 0.0
H1993 H 0.51805 0.25528 0.93066 0.0
C1994 C 0.41882 0.22038 0.87114 0.0
C1995 C 0.41942 0.20221 0.85146 0.0
C1996 C 0.43824 0.23939 0.87551 0.0
C1997 C 0.45883 0.24037 0.86056 0.0
C1998 C 0.46004 0.22113 0.84196 0.0
C1999 C 0.44034 0.2026 0.83711 0.0
C2000 C 0.47898 0.26143 0.8642 0.0
C2001 C 0.48857 0.26827 0.88845 0.0
C2002 C 0.48932 0.27423 0.84382 0.0
C2003 C 0.47809 0.27058 0.81815 0.0
C2004 C 0.49221 0.26408 0.79792 0.0
C2005 C 0.48145 0.26022 0.77387 0.0
C2006 C 0.45661 0.2629 0.76977 0.0
C2007 C 0.44248 0.26957 0.7897 0.0
C2008 C 0.45315 0.2735 0.81378 0.0
C2009 C 0.58909 0.30952 0.88805 0.0
C2010 C 0.5963 0.32997 0.87335 0.0
C2011 C 0.56467 0.29959 0.88838 0.0
C2012 C 0.54647 0.31021 0.87461 0.0
C2013 C 0.55333 0.33186 0.86129 0.0
C2014 C 0.57807 0.34169 0.86067 0.0
C2015 C 0.52124 0.29663 0.872 0.0
C2016 C 0.51058 0.29118 0.84793 0.0
C2017 C 0.50917 0.28609 0.89268 0.0
C2018 C 0.51758 0.29355 0.91884 0.0
C2019 C 0.52201 0.31918 0.92661 0.0
C2020 C 0.53008 0.32619 0.95117 0.0
C2021 C 0.53371 0.30776 0.9682 0.0
C2022 C 0.52924 0.28226 0.96073 0.0
C2023 C 0.52116 0.27514 0.93619 0.0
H2024 H 0.53998 0.31324 0.98721 0.0
H2025 H 0.44831 0.25985 0.75114 0.0
H2026 H 0.40467 0.61219 0.24399 0.0
H2027 H 0.40096 0.57283 0.26574 0.0
H2028 H 0.34036 0.54367 0.216 0.0
H2029 H 0.3441 0.58309 0.19385 0.0
H2030 H 0.3312 0.53703 0.26725 0.0
H2031 H 0.39298 0.52057 0.20936 0.0
H2032 H 0.43164 0.52971 0.18785 0.0
H2033 H 0.47221 0.53224 0.25796 0.0
H2034 H 0.43375 0.52346 0.27994 0.0
H2035 H 0.32575 0.41267 0.31415 0.0
H2036 H 0.32662 0.44974 0.2887 0.0
H2037 H 0.39688 0.47816 0.32295 0.0
H2038 H 0.3965 0.44072 0.34749 0.0
H2039 H 0.39963 0.48399 0.27661 0.0
H2040 H 0.33952 0.50356 0.33534 0.0
H2041 H 0.30159 0.49643 0.3585 0.0
H2042 H 0.25879 0.4903 0.28957 0.0
H2043 H 0.29651 0.49708 0.26596 0.0
C2044 C 0.39071 0.59735 0.23741 0.0
C2045 C 0.37477 0.60088 0.217 0.0
C2046 C 0.38861 0.57479 0.24992 0.0
C2047 C 0.3704 0.55518 0.24254 0.0
C2048 C 0.35456 0.5585 0.22207 0.0
C2049 C 0.35686 0.58099 0.20928 0.0
C2050 C 0.36777 0.53155 0.25663 0.0
C2051 C 0.346 0.52516 0.26898 0.0
C2052 C 0.38728 0.51641 0.25951 0.0
C2053 C 0.41045 0.52157 0.24632 0.0
C2054 C 0.41013 0.52327 0.22022 0.0
C2055 C 0.43201 0.52835 0.20793 0.0
C2056 C 0.45436 0.53161 0.22153 0.0
C2057 C 0.45488 0.52973 0.24745 0.0
C2058 C 0.43305 0.52468 0.25982 0.0
C2059 C 0.34122 0.42701 0.31648 0.0
C2060 C 0.36103 0.42372 0.33293 0.0
C2061 C 0.3417 0.44831 0.30192 0.0
C2062 C 0.36176 0.46712 0.30387 0.0
C2063 C 0.38122 0.46403 0.32083 0.0
C2064 C 0.38092 0.44261 0.33503 0.0
C2065 C 0.36312 0.4895 0.28774 0.0
C2066 C 0.3847 0.49569 0.27491 0.0
C2067 C 0.34354 0.50465 0.28474 0.0
C2068 C 0.32085 0.50054 0.29888 0.0
C2069 C 0.32203 0.50049 0.32511 0.0
C2070 C 0.30057 0.49655 0.33832 0.0
C2071 C 0.2778 0.49284 0.32551 0.0
C2072 C 0.27644 0.49313 0.29946 0.0
C2073 C 0.29785 0.49703 0.28616 0.0
H2074 H 0.26121 0.4898 0.33577 0.0
H2075 H 0.47128 0.53555 0.21199 0.0
H2076 H 0.6241 0.08752 0.35318 0.0
H2077 H 0.62124 0.04673 0.32964 0.0
H2078 H 0.6904 0.06847 0.29693 0.0
H2079 H 0.69361 0.10891 0.32058 0.0
H2080 H 0.65218 0.05041 0.2616 0.0
H2081 H 0.68904 0.02637 0.3387 0.0
H2082 H 0.69177 0.02192 0.38424 0.0
H2083 H 0.62264 0.97607 0.38054 0.0
H2084 H 0.61933 0.98055 0.33498 0.0
H2085 H 0.67734 0.93584 0.20066 0.0
H2086 H 0.67724 0.97549 0.22503 0.0
H2087 H 0.61801 0.94249 0.26776 0.0
H2088 H 0.6188 0.90241 0.24413 0.0
H2089 H 0.64912 0.96663 0.29837 0.0
H2090 H 0.61138 0.98912 0.22226 0.0
H2091 H 0.60661 0.99385 0.17688 0.0
H2092 H 0.67376 0.04291 0.17845 0.0
H2093 H 0.6791 0.03822 0.22381 0.0
C2094 C 0.63889 0.08342 0.3413 0.0
C2095 C 0.65911 0.10148 0.33885 0.0
C2096 C 0.63721 0.06013 0.32782 0.0
C2097 C 0.65557 0.05458 0.31142 0.0
C2098 C 0.67598 0.07236 0.30937 0.0
C2099 C 0.67785 0.09543 0.32308 0.0
C2100 C 0.65319 0.03069 0.29568 0.0
C2101 C 0.65176 0.03207 0.26959 0.0
C2102 C 0.65183 1.00676 0.30611 0.0
C2103 C 0.65381 1.00404 0.33348 0.0
C2104 C 0.67431 0.01554 0.34763 0.0
C2105 C 0.67598 0.01297 0.37344 0.0
C2106 C 0.65735 0.99878 0.38529 0.0
C2107 C 0.63703 0.98709 0.37134 0.0
C2108 C 0.63526 0.98963 0.34552 0.0
C2109 C 0.66396 0.93712 0.21492 0.0
C2110 C 0.64798 0.91589 0.22029 0.0
C2111 C 0.66389 0.95992 0.22889 0.0
C2112 C 0.64742 0.96229 0.24819 0.0
C2113 C 0.63097 0.94128 0.25308 0.0
C2114 C 0.63132 0.91836 0.2394 0.0
C2115 C 0.64817 0.98618 0.26405 0.0
C2116 C 0.64933 0.98488 0.29022 0.0
C2117 C 0.6489 0.01021 0.25367 0.0
C2118 C 0.64574 0.01313 0.2264 0.0
C2119 C 0.62522 1.00077 0.2129 0.0
C2120 C 0.6224 1.00347 0.18718 0.0
C2121 C 0.6399 0.01862 0.17478 0.0
C2122 C 0.66023 0.03116 0.18808 0.0
C2123 C 0.66315 0.02851 0.2138 0.0
H2124 H 0.63769 0.02069 0.15487 0.0
H2125 H 0.65869 0.9968 0.40527 0.0
H2126 H 0.57746 0.84906 0.16645 0.0
H2127 H 0.54086 0.81965 0.15688 0.0
H2128 H 0.58458 0.76929 0.1177 0.0
H2129 H 0.6211 0.79932 0.12644 0.0
H2130 H 0.5373 0.76347 0.09839 0.0
H2131 H 0.5773 0.76377 0.18 0.0
H2132 H 0.59455 0.78281 0.22043 0.0
H2133 H 0.52481 0.8074 0.23757 0.0
H2134 H 0.50708 0.78848 0.19731 0.0
H2135 H 0.4594 0.66706 0.18161 0.0
H2136 H 0.49669 0.69266 0.17088 0.0
H2137 H 0.45563 0.72734 0.11426 0.0
H2138 H 0.41854 0.70075 0.12426 0.0
H2139 H 0.50342 0.73947 0.17953 0.0
H2140 H 0.49396 0.75898 0.07426 0.0
H2141 H 0.47908 0.73649 0.03461 0.0
H2142 H 0.49212 0.66591 0.06521 0.0
H2143 H 0.50737 0.688 0.10492 0.0
C2144 C 0.57898 0.83241 0.15454 0.0
C2145 C 0.60206 0.82665 0.14691 0.0
C2146 C 0.55811 0.81538 0.1494 0.0
C2147 C 0.56002 0.79185 0.13718 0.0
C2148 C 0.58259 0.78723 0.12723 0.0
C2149 C 0.60345 0.80455 0.132 0.0
C2150 C 0.5397 0.77104 0.1382 0.0
C2151 C 0.5298 0.75823 0.11609 0.0
C2152 C 0.5303 0.76359 0.16132 0.0
C2153 C 0.54093 0.7749 0.18557 0.0
C2154 C 0.56568 0.77335 0.19234 0.0
C2155 C 0.57554 0.78411 0.2152 0.0
C2156 C 0.56084 0.79643 0.23145 0.0
C2157 C 0.53619 0.7979 0.22494 0.0
C2158 C 0.5262 0.7871 0.20214 0.0
C2159 C 0.45861 0.67927 0.16606 0.0
C2160 C 0.43612 0.68162 0.15355 0.0
C2161 C 0.47989 0.6942 0.16012 0.0
C2162 C 0.47916 0.71226 0.14187 0.0
C2163 C 0.45699 0.71339 0.12815 0.0
C2164 C 0.43573 0.69803 0.13377 0.0
C2165 C 0.50058 0.73177 0.13967 0.0
C2166 C 0.51076 0.7445 0.1617 0.0
C2167 C 0.51048 0.7386 0.11652 0.0
C2168 C 0.50158 0.72515 0.09265 0.0
C2169 C 0.49374 0.73867 0.07249 0.0
C2170 C 0.48523 0.72599 0.05001 0.0
C2171 C 0.48458 0.69978 0.04742 0.0
C2172 C 0.49253 0.6862 0.06728 0.0
C2173 C 0.50107 0.69879 0.08979 0.0
H2174 H 0.47797 0.69 0.03001 0.0
H2175 H 0.56853 0.80477 0.24912 0.0
loop_
_geom_bond_atom_site_label_1
_geom_bond_atom_site_label_2
_geom_bond_distance
_geom_bond_site_symmetry_2
_ccdc_geom_bond_type
Mn0 O5 2.095 . S
Mn0 O15 2.162 . S
Mn0 O16 2.297 . S
Mn0 O24 2.385 . S
Mn0 O25 2.209 . S
Mn0 O26 2.094 . S
Mn1 O6 2.121 . S
Mn1 N8 2.257 . S
Mn1 N17 2.282 . S
Mn1 O25 2.215 . S
Mn1 O27 2.117 . S
C2 O24 1.234 . S
C2 O25 1.283 . S
C3 O15 1.281 . S
C3 O16 1.236 . S
C4 O26 1.240 . S
C4 O27 1.264 . S
O5 Mn0 2.095 . S
O5 C14 1.250 . S
O6 Mn1 2.121 . S
O6 C14 1.258 . S
C7 N8 1.326 . S
C7 C11 1.460 . S
C7 H13 0.929 . S
N8 Mn1 2.257 . S
N8 C7 1.326 . S
N8 C12 1.362 . S
C9 C10 1.258 . S
C9 C12 1.431 . S
C9 C29 1.449 . S
C10 C9 1.258 . S
C10 C11 1.477 . S
C10 H30 0.931 . S
C11 C7 1.460 . S
C11 C10 1.477 . S
C11 H31 0.930 . S
C12 N8 1.362 . S
C12 C9 1.431 . S
C12 C22 1.476 . S
H13 C7 0.929 . S
C14 O5 1.250 . S
C14 O6 1.258 . S
O15 Mn0 2.162 . S
O15 C3 1.281 . S
O16 Mn0 2.297 . S
O16 C3 1.236 . S
N17 Mn1 2.282 . S
N17 C18 1.328 . S
N17 C22 1.318 . S
C18 N17 1.328 . S
C18 C19 1.457 . S
C18 H23 0.929 . S
C19 C18 1.457 . S
C19 C20 1.291 . S
C19 H32 0.931 . S
C20 C19 1.291 . S
C20 C21 1.373 . S
C20 H33 0.929 . S
C21 C20 1.373 . S
C21 C22 1.396 . S
C21 C28 1.403 . S
C22 C12 1.476 . S
C22 N17 1.318 . S
C22 C21 1.396 . S
H23 C18 0.929 . S
O24 Mn0 2.385 . S
O24 C2 1.234 . S
O25 Mn0 2.209 . S
O25 Mn1 2.215 . S
O25 C2 1.283 . S
O26 Mn0 2.094 . S
O26 C4 1.240 . S
O27 Mn1 2.117 . S
O27 C4 1.264 . S
C28 C21 1.403 . S
C28 C29 1.399 . S
C28 H34 0.929 . S
C29 C9 1.449 . S
C29 C28 1.399 . S
C29 H35 0.930 . S
H30 C10 0.931 . S
H31 C11 0.930 . S
H32 C19 0.931 . S
H33 C20 0.929 . S
H34 C28 0.929 . S
H35 C29 0.930 . S
Mn36 O41 2.095 . S
Mn36 O51 2.162 . S
Mn36 O52 2.297 . S
Mn36 O60 2.385 . S
Mn36 O61 2.209 . S
Mn36 O62 2.094 . S
Mn37 O42 2.121 . S
Mn37 N44 2.257 . S
Mn37 N53 2.282 . S
Mn37 O61 2.215 . S
Mn37 O63 2.117 . S
C38 O60 1.234 . S
C38 O61 1.283 . S
C39 O51 1.281 . S
C39 O52 1.236 . S
C40 O62 1.240 . S
C40 O63 1.264 . S
O41 Mn36 2.095 . S
O41 C50 1.250 . S
O42 Mn37 2.121 . S
O42 C50 1.258 . S
C43 N44 1.326 . S
C43 C47 1.460 . S
C43 H49 0.929 . S
N44 Mn37 2.257 . S
N44 C43 1.326 . S
N44 C48 1.362 . S
C45 C46 1.258 . S
C45 C48 1.431 . S
C45 C65 1.449 . S
C46 C45 1.258 . S
C46 C47 1.477 . S
C46 H66 0.931 . S
C47 C43 1.460 . S
C47 C46 1.477 . S
C47 H67 0.930 . S
C48 N44 1.362 . S
C48 C45 1.431 . S
C48 C58 1.476 . S
H49 C43 0.929 . S
C50 O41 1.250 . S
C50 O42 1.258 . S
O51 Mn36 2.162 . S
O51 C39 1.281 . S
O52 Mn36 2.297 . S
O52 C39 1.236 . S
N53 Mn37 2.282 . S
N53 C54 1.328 . S
N53 C58 1.318 . S
C54 N53 1.328 . S
C54 C55 1.457 . S
C54 H59 0.929 . S
C55 C54 1.457 . S
C55 C56 1.291 . S
C55 H68 0.931 . S
C56 C55 1.291 . S
C56 C57 1.373 . S
C56 H69 0.929 . S
C57 C56 1.373 . S
C57 C58 1.396 . S
C57 C64 1.403 . S
C58 C48 1.476 . S
C58 N53 1.318 . S
C58 C57 1.396 . S
H59 C54 0.929 . S
O60 Mn36 2.385 . S
O60 C38 1.234 . S
O61 Mn36 2.209 . S
O61 Mn37 2.215 . S
O61 C38 1.283 . S
O62 Mn36 2.094 . S
O62 C40 1.240 . S
O63 Mn37 2.117 . S
O63 C40 1.264 . S
C64 C57 1.403 . S
C64 C65 1.399 . S
C64 H70 0.929 . S
C65 C45 1.449 . S
C65 C64 1.399 . S
C65 H71 0.930 . S
H66 C46 0.931 . S
H67 C47 0.930 . S
H68 C55 0.931 . S
H69 C56 0.929 . S
H70 C64 0.929 . S
H71 C65 0.930 . S
Mn72 O77 2.095 . S
Mn72 O87 2.162 . S
Mn72 O88 2.297 . S
Mn72 O96 2.385 . S
Mn72 O97 2.209 . S
Mn72 O98 2.094 . S
Mn73 O78 2.121 . S
Mn73 N80 2.257 . S
Mn73 N89 2.282 . S
Mn73 O97 2.215 . S
Mn73 O99 2.117 . S
C74 O96 1.234 . S
C74 O97 1.283 . S
C75 O87 1.281 . S
C75 O88 1.236 . S
C76 O98 1.240 . S
C76 O99 1.264 . S
O77 Mn72 2.095 . S
O77 C86 1.250 . S
O78 Mn73 2.121 . S
O78 C86 1.258 . S
C79 N80 1.326 . S
C79 C83 1.460 . S
C79 H85 0.929 . S
N80 Mn73 2.257 . S
N80 C79 1.326 . S
N80 C84 1.362 . S
C81 C82 1.258 . S
C81 C84 1.431 . S
C81 C101 1.449 . S
C82 C81 1.258 . S
C82 C83 1.477 . S
C82 H102 0.931 . S
C83 C79 1.460 . S
C83 C82 1.477 . S
C83 H103 0.930 . S
C84 N80 1.362 . S
C84 C81 1.431 . S
C84 C94 1.476 . S
H85 C79 0.929 . S
C86 O77 1.250 . S
C86 O78 1.258 . S
O87 Mn72 2.162 . S
O87 C75 1.281 . S
O88 Mn72 2.297 . S
O88 C75 1.236 . S
N89 Mn73 2.282 . S
N89 C90 1.328 . S
N89 C94 1.318 . S
C90 N89 1.328 . S
C90 C91 1.457 . S
C90 H95 0.929 . S
C91 C90 1.457 . S
C91 C92 1.291 . S
C91 H104 0.931 . S
C92 C91 1.291 . S
C92 C93 1.373 . S
C92 H105 0.929 . S
C93 C92 1.373 . S
C93 C94 1.396 . S
C93 C100 1.403 . S
C94 C84 1.476 . S
C94 N89 1.318 . S
C94 C93 1.396 . S
H95 C90 0.929 . S
O96 Mn72 2.385 . S
O96 C74 1.234 . S
O97 Mn72 2.209 . S
O97 Mn73 2.215 . S
O97 C74 1.283 . S
O98 Mn72 2.094 . S
O98 C76 1.240 . S
O99 Mn73 2.117 . S
O99 C76 1.264 . S
C100 C93 1.403 . S
C100 C101 1.399 . S
C100 H106 0.929 . S
C101 C81 1.449 . S
C101 C100 1.399 . S
C101 H107 0.930 . S
H102 C82 0.931 . S
H103 C83 0.930 . S
H104 C91 0.931 . S
H105 C92 0.929 . S
H106 C100 0.929 . S
H107 C101 0.930 . S
Mn108 O113 2.095 . S
Mn108 O123 2.162 . S
Mn108 O124 2.297 . S
Mn108 O132 2.385 . S
Mn108 O133 2.209 . S
Mn108 O134 2.094 . S
Mn109 O114 2.121 . S
Mn109 N116 2.257 . S
Mn109 N125 2.282 . S
Mn109 O133 2.215 . S
Mn109 O135 2.117 . S
C110 O132 1.234 . S
C110 O133 1.283 . S
C111 O123 1.281 . S
C111 O124 1.236 . S
C112 O134 1.240 . S
C112 O135 1.264 . S
O113 Mn108 2.095 . S
O113 C122 1.250 . S
O114 Mn109 2.121 . S
O114 C122 1.258 . S
C115 N116 1.326 . S
C115 C119 1.460 . S
C115 H121 0.929 . S
N116 Mn109 2.257 . S
N116 C115 1.326 . S
N116 C120 1.362 . S
C117 C118 1.258 . S
C117 C120 1.431 . S
C117 C137 1.449 . S
C118 C117 1.258 . S
C118 C119 1.477 . S
C118 H138 0.931 . S
C119 C115 1.460 . S
C119 C118 1.477 . S
C119 H139 0.930 . S
C120 N116 1.362 . S
C120 C117 1.431 . S
C120 C130 1.476 . S
H121 C115 0.929 . S
C122 O113 1.250 . S
C122 O114 1.258 . S
O123 Mn108 2.162 . S
O123 C111 1.281 . S
O124 Mn108 2.297 . S
O124 C111 1.236 . S
N125 Mn109 2.282 . S
N125 C126 1.328 . S
N125 C130 1.318 . S
C126 N125 1.328 . S
C126 C127 1.457 . S
C126 H131 0.929 . S
C127 C126 1.457 . S
C127 C128 1.291 . S
C127 H140 0.931 . S
C128 C127 1.291 . S
C128 C129 1.373 . S
C128 H141 0.929 . S
C129 C128 1.373 . S
C129 C130 1.396 . S
C129 C136 1.403 . S
C130 C120 1.476 . S
C130 N125 1.318 . S
C130 C129 1.396 . S
H131 C126 0.929 . S
O132 Mn108 2.385 . S
O132 C110 1.234 . S
O133 Mn108 2.209 . S
O133 Mn109 2.215 . S
O133 C110 1.283 . S
O134 Mn108 2.094 . S
O134 C112 1.240 . S
O135 Mn109 2.117 . S
O135 C112 1.264 . S
C136 C129 1.403 . S
C136 C137 1.399 . S
C136 H142 0.929 . S
C137 C117 1.449 . S
C137 C136 1.399 . S
C137 H143 0.930 . S
H138 C118 0.931 . S
H139 C119 0.930 . S
H140 C127 0.931 . S
H141 C128 0.929 . S
H142 C136 0.929 . S
H143 C137 0.930 . S
Mn144 O149 2.095 . S
Mn144 O159 2.162 . S
Mn144 O160 2.297 . S
Mn144 O168 2.385 . S
Mn144 O169 2.209 . S
Mn144 O170 2.094 . S
Mn145 O150 2.121 . S
Mn145 N152 2.257 . S
Mn145 N161 2.282 . S
Mn145 O169 2.215 . S
Mn145 O171 2.117 . S
C146 O168 1.234 . S
C146 O169 1.283 . S
C147 O159 1.281 . S
C147 O160 1.236 . S
C148 O170 1.240 . S
C148 O171 1.264 . S
O149 Mn144 2.095 . S
O149 C158 1.250 . S
O150 Mn145 2.121 . S
O150 C158 1.258 . S
C151 N152 1.326 . S
C151 C155 1.460 . S
C151 H157 0.929 . S
N152 Mn145 2.257 . S
N152 C151 1.326 . S
N152 C156 1.362 . S
C153 C154 1.258 . S
C153 C156 1.431 . S
C153 C173 1.449 . S
C154 C153 1.258 . S
C154 C155 1.477 . S
C154 H174 0.931 . S
C155 C151 1.460 . S
C155 C154 1.477 . S
C155 H175 0.930 . S
C156 N152 1.362 . S
C156 C153 1.431 . S
C156 C166 1.476 . S
H157 C151 0.929 . S
C158 O149 1.250 . S
C158 O150 1.258 . S
O159 Mn144 2.162 . S
O159 C147 1.281 . S
O160 Mn144 2.297 . S
O160 C147 1.236 . S
N161 Mn145 2.282 . S
N161 C162 1.328 . S
N161 C166 1.318 . S
C162 N161 1.328 . S
C162 C163 1.457 . S
C162 H167 0.929 . S
C163 C162 1.457 . S
C163 C164 1.291 . S
C163 H176 0.931 . S
C164 C163 1.291 . S
C164 C165 1.373 . S
C164 H177 0.929 . S
C165 C164 1.373 . S
C165 C166 1.396 . S
C165 C172 1.403 . S
C166 C156 1.476 . S
C166 N161 1.318 . S
C166 C165 1.396 . S
H167 C162 0.929 . S
O168 Mn144 2.385 . S
O168 C146 1.234 . S
O169 Mn144 2.209 . S
O169 Mn145 2.215 . S
O169 C146 1.283 . S
O170 Mn144 2.094 . S
O170 C148 1.240 . S
O171 Mn145 2.117 . S
O171 C148 1.264 . S
C172 C165 1.403 . S
C172 C173 1.399 . S
C172 H178 0.929 . S
C173 C153 1.449 . S
C173 C172 1.399 . S
C173 H179 0.930 . S
H174 C154 0.931 . S
H175 C155 0.930 . S
H176 C163 0.931 . S
H177 C164 0.929 . S
H178 C172 0.929 . S
H179 C173 0.930 . S
Mn180 O185 2.095 . S
Mn180 O195 2.162 . S
Mn180 O196 2.297 . S
Mn180 O204 2.385 . S
Mn180 O205 2.209 . S
Mn180 O206 2.094 . S
Mn181 O186 2.121 . S
Mn181 N188 2.257 . S
Mn181 N197 2.282 . S
Mn181 O205 2.215 . S
Mn181 O207 2.117 . S
C182 O204 1.234 . S
C182 O205 1.283 . S
C183 O195 1.281 . S
C183 O196 1.236 . S
C184 O206 1.240 . S
C184 O207 1.264 . S
O185 Mn180 2.095 . S
O185 C194 1.250 . S
O186 Mn181 2.121 . S
O186 C194 1.258 . S
C187 N188 1.326 . S
C187 C191 1.460 . S
C187 H193 0.929 . S
N188 Mn181 2.257 . S
N188 C187 1.326 . S
N188 C192 1.362 . S
C189 C190 1.258 . S
C189 C192 1.431 . S
C189 C209 1.449 . S
C190 C189 1.258 . S
C190 C191 1.477 . S
C190 H210 0.931 . S
C191 C187 1.460 . S
C191 C190 1.477 . S
C191 H211 0.930 . S
C192 N188 1.362 . S
C192 C189 1.431 . S
C192 C202 1.476 . S
H193 C187 0.929 . S
C194 O185 1.250 . S
C194 O186 1.258 . S
O195 Mn180 2.162 . S
O195 C183 1.281 . S
O196 Mn180 2.297 . S
O196 C183 1.236 . S
N197 Mn181 2.282 . S
N197 C198 1.328 . S
N197 C202 1.318 . S
C198 N197 1.328 . S
C198 C199 1.457 . S
C198 H203 0.929 . S
C199 C198 1.457 . S
C199 C200 1.291 . S
C199 H212 0.931 . S
C200 C199 1.291 . S
C200 C201 1.373 . S
C200 H213 0.929 . S
C201 C200 1.373 . S
C201 C202 1.396 . S
C201 C208 1.403 . S
C202 C192 1.476 . S
C202 N197 1.318 . S
C202 C201 1.396 . S
H203 C198 0.929 . S
O204 Mn180 2.385 . S
O204 C182 1.234 . S
O205 Mn180 2.209 . S
O205 Mn181 2.215 . S
O205 C182 1.283 . S
O206 Mn180 2.094 . S
O206 C184 1.240 . S
O207 Mn181 2.117 . S
O207 C184 1.264 . S
C208 C201 1.403 . S
C208 C209 1.399 . S
C208 H214 0.929 . S
C209 C189 1.449 . S
C209 C208 1.399 . S
C209 H215 0.930 . S
H210 C190 0.931 . S
H211 C191 0.930 . S
H212 C199 0.931 . S
H213 C200 0.929 . S
H214 C208 0.929 . S
H215 C209 0.930 . S
Mn216 O221 2.095 . S
Mn216 O231 2.162 . S
Mn216 O232 2.297 . S
Mn216 O240 2.385 . S
Mn216 O241 2.209 . S
Mn216 O242 2.094 . S
Mn217 O222 2.121 . S
Mn217 N224 2.257 . S
Mn217 N233 2.282 . S
Mn217 O241 2.215 . S
Mn217 O243 2.117 . S
C218 O240 1.234 . S
C218 O241 1.283 . S
C219 O231 1.281 . S
C219 O232 1.236 . S
C220 O242 1.240 . S
C220 O243 1.264 . S
O221 Mn216 2.095 . S
O221 C230 1.250 . S
O222 Mn217 2.121 . S
O222 C230 1.258 . S
C223 N224 1.326 . S
C223 C227 1.460 . S
C223 H229 0.929 . S
N224 Mn217 2.257 . S
N224 C223 1.326 . S
N224 C228 1.362 . S
C225 C226 1.258 . S
C225 C228 1.431 . S
C225 C245 1.449 . S
C226 C225 1.258 . S
C226 C227 1.477 . S
C226 H246 0.931 . S
C227 C223 1.460 . S
C227 C226 1.477 . S
C227 H247 0.930 . S
C228 N224 1.362 . S
C228 C225 1.431 . S
C228 C238 1.476 . S
H229 C223 0.929 . S
C230 O221 1.250 . S
C230 O222 1.258 . S
O231 Mn216 2.162 . S
O231 C219 1.281 . S
O232 Mn216 2.297 . S
O232 C219 1.236 . S
N233 Mn217 2.282 . S
N233 C234 1.328 . S
N233 C238 1.318 . S
C234 N233 1.328 . S
C234 C235 1.457 . S
C234 H239 0.929 . S
C235 C234 1.457 . S
C235 C236 1.291 . S
C235 H248 0.931 . S
C236 C235 1.291 . S
C236 C237 1.373 . S
C236 H249 0.929 . S
C237 C236 1.373 . S
C237 C238 1.396 . S
C237 C244 1.403 . S
C238 C228 1.476 . S
C238 N233 1.318 . S
C238 C237 1.396 . S
H239 C234 0.929 . S
O240 Mn216 2.385 . S
O240 C218 1.234 . S
O241 Mn216 2.209 . S
O241 Mn217 2.215 . S
O241 C218 1.283 . S
O242 Mn216 2.094 . S
O242 C220 1.240 . S
O243 Mn217 2.117 . S
O243 C220 1.264 . S
C244 C237 1.403 . S
C244 C245 1.399 . S
C244 H250 0.929 . S
C245 C225 1.449 . S
C245 C244 1.399 . S
C245 H251 0.930 . S
H246 C226 0.931 . S
H247 C227 0.930 . S
H248 C235 0.931 . S
H249 C236 0.929 . S
H250 C244 0.929 . S
H251 C245 0.930 . S
Mn252 O257 2.095 . S
Mn252 O267 2.162 . S
Mn252 O268 2.297 . S
Mn252 O276 2.385 . S
Mn252 O277 2.209 . S
Mn252 O278 2.094 . S
Mn253 O258 2.121 . S
Mn253 N260 2.257 . S
Mn253 N269 2.282 . S
Mn253 O277 2.215 . S
Mn253 O279 2.117 . S
C254 O276 1.234 . S
C254 O277 1.283 . S
C255 O267 1.281 . S
C255 O268 1.236 . S
C256 O278 1.240 . S
C256 O279 1.264 . S
O257 Mn252 2.095 . S
O257 C266 1.250 . S
O258 Mn253 2.121 . S
O258 C266 1.258 . S
C259 N260 1.326 . S
C259 C263 1.460 . S
C259 H265 0.929 . S
N260 Mn253 2.257 . S
N260 C259 1.326 . S
N260 C264 1.362 . S
C261 C262 1.258 . S
C261 C264 1.431 . S
C261 C281 1.449 . S
C262 C261 1.258 . S
C262 C263 1.477 . S
C262 H282 0.931 . S
C263 C259 1.460 . S
C263 C262 1.477 . S
C263 H283 0.930 . S
C264 N260 1.362 . S
C264 C261 1.431 . S
C264 C274 1.476 . S
H265 C259 0.929 . S
C266 O257 1.250 . S
C266 O258 1.258 . S
O267 Mn252 2.162 . S
O267 C255 1.281 . S
O268 Mn252 2.297 . S
O268 C255 1.236 . S
N269 Mn253 2.282 . S
N269 C270 1.328 . S
N269 C274 1.318 . S
C270 N269 1.328 . S
C270 C271 1.457 . S
C270 H275 0.929 . S
C271 C270 1.457 . S
C271 C272 1.291 . S
C271 H284 0.931 . S
C272 C271 1.291 . S
C272 C273 1.373 . S
C272 H285 0.929 . S
C273 C272 1.373 . S
C273 C274 1.396 . S
C273 C280 1.403 . S
C274 C264 1.476 . S
C274 N269 1.318 . S
C274 C273 1.396 . S
H275 C270 0.929 . S
O276 Mn252 2.385 . S
O276 C254 1.234 . S
O277 Mn252 2.209 . S
O277 Mn253 2.215 . S
O277 C254 1.283 . S
O278 Mn252 2.094 . S
O278 C256 1.240 . S
O279 Mn253 2.117 . S
O279 C256 1.264 . S
C280 C273 1.403 . S
C280 C281 1.399 . S
C280 H286 0.929 . S
C281 C261 1.449 . S
C281 C280 1.399 . S
C281 H287 0.930 . S
H282 C262 0.931 . S
H283 C263 0.930 . S
H284 C271 0.931 . S
H285 C272 0.929 . S
H286 C280 0.929 . S
H287 C281 0.930 . S
Mn288 O293 2.095 . S
Mn288 O303 2.162 . S
Mn288 O304 2.297 . S
Mn288 O312 2.385 . S
Mn288 O313 2.209 . S
Mn288 O314 2.094 . S
Mn289 O294 2.121 . S
Mn289 N296 2.257 . S
Mn289 N305 2.282 . S
Mn289 O313 2.215 . S
Mn289 O315 2.117 . S
C290 O312 1.234 . S
C290 O313 1.283 . S
C291 O303 1.281 . S
C291 O304 1.236 . S
C292 O314 1.240 . S
C292 O315 1.264 . S
O293 Mn288 2.095 . S
O293 C302 1.250 . S
O294 Mn289 2.121 . S
O294 C302 1.258 . S
C295 N296 1.326 . S
C295 C299 1.460 . S
C295 H301 0.929 . S
N296 Mn289 2.257 . S
N296 C295 1.326 . S
N296 C300 1.362 . S
C297 C298 1.258 . S
C297 C300 1.431 . S
C297 C317 1.449 . S
C298 C297 1.258 . S
C298 C299 1.477 . S
C298 H318 0.931 . S
C299 C295 1.460 . S
C299 C298 1.477 . S
C299 H319 0.930 . S
C300 N296 1.362 . S
C300 C297 1.431 . S
C300 C310 1.476 . S
H301 C295 0.929 . S
C302 O293 1.250 . S
C302 O294 1.258 . S
O303 Mn288 2.162 . S
O303 C291 1.281 . S
O304 Mn288 2.297 . S
O304 C291 1.236 . S
N305 Mn289 2.282 . S
N305 C306 1.328 . S
N305 C310 1.318 . S
C306 N305 1.328 . S
C306 C307 1.457 . S
C306 H311 0.929 . S
C307 C306 1.457 . S
C307 C308 1.291 . S
C307 H320 0.931 . S
C308 C307 1.291 . S
C308 C309 1.373 . S
C308 H321 0.929 . S
C309 C308 1.373 . S
C309 C310 1.396 . S
C309 C316 1.403 . S
C310 C300 1.476 . S
C310 N305 1.318 . S
C310 C309 1.396 . S
H311 C306 0.929 . S
O312 Mn288 2.385 . S
O312 C290 1.234 . S
O313 Mn288 2.209 . S
O313 Mn289 2.215 . S
O313 C290 1.283 . S
O314 Mn288 2.094 . S
O314 C292 1.240 . S
O315 Mn289 2.117 . S
O315 C292 1.264 . S
C316 C309 1.403 . S
C316 C317 1.399 . S
C316 H322 0.929 . S
C317 C297 1.449 . S
C317 C316 1.399 . S
C317 H323 0.930 . S
H318 C298 0.931 . S
H319 C299 0.930 . S
H320 C307 0.931 . S
H321 C308 0.929 . S
H322 C316 0.929 . S
H323 C317 0.930 . S
Mn324 O329 2.095 . S
Mn324 O339 2.162 . S
Mn324 O340 2.297 . S
Mn324 O348 2.385 . S
Mn324 O349 2.209 . S
Mn324 O350 2.094 . S
Mn325 O330 2.121 . S
Mn325 N332 2.257 . S
Mn325 N341 2.282 . S
Mn325 O349 2.215 . S
Mn325 O351 2.117 . S
C326 O348 1.234 . S
C326 O349 1.283 . S
C327 O339 1.281 . S
C327 O340 1.236 . S
C328 O350 1.240 . S
C328 O351 1.264 . S
O329 Mn324 2.095 . S
O329 C338 1.250 . S
O330 Mn325 2.121 . S
O330 C338 1.258 . S
C331 N332 1.326 . S
C331 C335 1.460 . S
C331 H337 0.929 . S
N332 Mn325 2.257 . S
N332 C331 1.326 . S
N332 C336 1.362 . S
C333 C334 1.258 . S
C333 C336 1.431 . S
C333 C353 1.449 . S
C334 C333 1.258 . S
C334 C335 1.477 . S
C334 H354 0.931 . S
C335 C331 1.460 . S
C335 C334 1.477 . S
C335 H355 0.930 . S
C336 N332 1.362 . S
C336 C333 1.431 . S
C336 C346 1.476 . S
H337 C331 0.929 . S
C338 O329 1.250 . S
C338 O330 1.258 . S
O339 Mn324 2.162 . S
O339 C327 1.281 . S
O340 Mn324 2.297 . S
O340 C327 1.236 . S
N341 Mn325 2.282 . S
N341 C342 1.328 . S
N341 C346 1.318 . S
C342 N341 1.328 . S
C342 C343 1.457 . S
C342 H347 0.929 . S
C343 C342 1.457 . S
C343 C344 1.291 . S
C343 H356 0.931 . S
C344 C343 1.291 . S
C344 C345 1.373 . S
C344 H357 0.929 . S
C345 C344 1.373 . S
C345 C346 1.396 . S
C345 C352 1.403 . S
C346 C336 1.476 . S
C346 N341 1.318 . S
C346 C345 1.396 . S
H347 C342 0.929 . S
O348 Mn324 2.385 . S
O348 C326 1.234 . S
O349 Mn324 2.209 . S
O349 Mn325 2.215 . S
O349 C326 1.283 . S
O350 Mn324 2.094 . S
O350 C328 1.240 . S
O351 Mn325 2.117 . S
O351 C328 1.264 . S
C352 C345 1.403 . S
C352 C353 1.399 . S
C352 H358 0.929 . S
C353 C333 1.449 . S
C353 C352 1.399 . S
C353 H359 0.930 . S
H354 C334 0.931 . S
H355 C335 0.930 . S
H356 C343 0.931 . S
H357 C344 0.929 . S
H358 C352 0.929 . S
H359 C353 0.930 . S
Mn360 O365 2.095 . S
Mn360 O375 2.162 . S
Mn360 O376 2.297 . S
Mn360 O384 2.385 . S
Mn360 O385 2.209 . S
Mn360 O386 2.094 . S
Mn361 O366 2.121 . S
Mn361 N368 2.257 . S
Mn361 N377 2.282 . S
Mn361 O385 2.215 . S
Mn361 O387 2.117 . S
C362 O384 1.234 . S
C362 O385 1.283 . S
C363 O375 1.281 . S
C363 O376 1.236 . S
C364 O386 1.240 . S
C364 O387 1.264 . S
O365 Mn360 2.095 . S
O365 C374 1.250 . S
O366 Mn361 2.121 . S
O366 C374 1.258 . S
C367 N368 1.326 . S
C367 C371 1.460 . S
C367 H373 0.929 . S
N368 Mn361 2.257 . S
N368 C367 1.326 . S
N368 C372 1.362 . S
C369 C370 1.258 . S
C369 C372 1.431 . S
C369 C389 1.449 . S
C370 C369 1.258 . S
C370 C371 1.477 . S
C370 H390 0.931 . S
C371 C367 1.460 . S
C371 C370 1.477 . S
C371 H391 0.930 . S
C372 N368 1.362 . S
C372 C369 1.431 . S
C372 C382 1.476 . S
H373 C367 0.929 . S
C374 O365 1.250 . S
C374 O366 1.258 . S
O375 Mn360 2.162 . S
O375 C363 1.281 . S
O376 Mn360 2.297 . S
O376 C363 1.236 . S
N377 Mn361 2.282 . S
N377 C378 1.328 . S
N377 C382 1.318 . S
C378 N377 1.328 . S
C378 C379 1.457 . S
C378 H383 0.929 . S
C379 C378 1.457 . S
C379 C380 1.291 . S
C379 H392 0.931 . S
C380 C379 1.291 . S
C380 C381 1.373 . S
C380 H393 0.929 . S
C381 C380 1.373 . S
C381 C382 1.396 . S
C381 C388 1.403 . S
C382 C372 1.476 . S
C382 N377 1.318 . S
C382 C381 1.396 . S
H383 C378 0.929 . S
O384 Mn360 2.385 . S
O384 C362 1.234 . S
O385 Mn360 2.209 . S
O385 Mn361 2.215 . S
O385 C362 1.283 . S
O386 Mn360 2.094 . S
O386 C364 1.240 . S
O387 Mn361 2.117 . S
O387 C364 1.264 . S
C388 C381 1.403 . S
C388 C389 1.399 . S
C388 H394 0.929 . S
C389 C369 1.449 . S
C389 C388 1.399 . S
C389 H395 0.930 . S
H390 C370 0.931 . S
H391 C371 0.930 . S
H392 C379 0.931 . S
H393 C380 0.929 . S
H394 C388 0.929 . S
H395 C389 0.930 . S
Mn396 O401 2.095 . S
Mn396 O411 2.162 . S
Mn396 O412 2.297 . S
Mn396 O420 2.385 . S
Mn396 O421 2.209 . S
Mn396 O422 2.094 . S
Mn397 O402 2.121 . S
Mn397 N404 2.257 . S
Mn397 N413 2.282 . S
Mn397 O421 2.215 . S
Mn397 O423 2.117 . S
C398 O420 1.234 . S
C398 O421 1.283 . S
C399 O411 1.281 . S
C399 O412 1.236 . S
C400 O422 1.240 . S
C400 O423 1.264 . S
O401 Mn396 2.095 . S
O401 C410 1.250 . S
O402 Mn397 2.121 . S
O402 C410 1.258 . S
C403 N404 1.326 . S
C403 C407 1.460 . S
C403 H409 0.929 . S
N404 Mn397 2.257 . S
N404 C403 1.326 . S
N404 C408 1.362 . S
C405 C406 1.258 . S
C405 C408 1.431 . S
C405 C425 1.449 . S
C406 C405 1.258 . S
C406 C407 1.477 . S
C406 H426 0.931 . S
C407 C403 1.460 . S
C407 C406 1.477 . S
C407 H427 0.930 . S
C408 N404 1.362 . S
C408 C405 1.431 . S
C408 C418 1.476 . S
H409 C403 0.929 . S
C410 O401 1.250 . S
C410 O402 1.258 . S
O411 Mn396 2.162 . S
O411 C399 1.281 . S
O412 Mn396 2.297 . S
O412 C399 1.236 . S
N413 Mn397 2.282 . S
N413 C414 1.328 . S
N413 C418 1.318 . S
C414 N413 1.328 . S
C414 C415 1.457 . S
C414 H419 0.929 . S
C415 C414 1.457 . S
C415 C416 1.291 . S
C415 H428 0.931 . S
C416 C415 1.291 . S
C416 C417 1.373 . S
C416 H429 0.929 . S
C417 C416 1.373 . S
C417 C418 1.396 . S
C417 C424 1.403 . S
C418 C408 1.476 . S
C418 N413 1.318 . S
C418 C417 1.396 . S
H419 C414 0.929 . S
O420 Mn396 2.385 . S
O420 C398 1.234 . S
O421 Mn396 2.209 . S
O421 Mn397 2.215 . S
O421 C398 1.283 . S
O422 Mn396 2.094 . S
O422 C400 1.240 . S
O423 Mn397 2.117 . S
O423 C400 1.264 . S
C424 C417 1.403 . S
C424 C425 1.399 . S
C424 H430 0.929 . S
C425 C405 1.449 . S
C425 C424 1.399 . S
C425 H431 0.930 . S
H426 C406 0.931 . S
H427 C407 0.930 . S
H428 C415 0.931 . S
H429 C416 0.929 . S
H430 C424 0.929 . S
H431 C425 0.930 . S
Mn432 O437 2.095 . S
Mn432 O447 2.162 . S
Mn432 O448 2.297 . S
Mn432 O456 2.385 . S
Mn432 O457 2.209 . S
Mn432 O458 2.094 . S
Mn433 O438 2.121 . S
Mn433 N440 2.257 . S
Mn433 N449 2.282 . S
Mn433 O457 2.215 . S
Mn433 O459 2.117 . S
C434 O456 1.234 . S
C434 O457 1.283 . S
C435 O447 1.281 . S
C435 O448 1.236 . S
C436 O458 1.240 . S
C436 O459 1.264 . S
O437 Mn432 2.095 . S
O437 C446 1.250 . S
O438 Mn433 2.121 . S
O438 C446 1.258 . S
C439 N440 1.326 . S
C439 C443 1.460 . S
C439 H445 0.929 . S
N440 Mn433 2.257 . S
N440 C439 1.326 . S
N440 C444 1.362 . S
C441 C442 1.258 . S
C441 C444 1.431 . S
C441 C461 1.449 . S
C442 C441 1.258 . S
C442 C443 1.477 . S
C442 H462 0.931 . S
C443 C439 1.460 . S
C443 C442 1.477 . S
C443 H463 0.930 . S
C444 N440 1.362 . S
C444 C441 1.431 . S
C444 C454 1.476 . S
H445 C439 0.929 . S
C446 O437 1.250 . S
C446 O438 1.258 . S
O447 Mn432 2.162 . S
O447 C435 1.281 . S
O448 Mn432 2.297 . S
O448 C435 1.236 . S
N449 Mn433 2.282 . S
N449 C450 1.328 . S
N449 C454 1.318 . S
C450 N449 1.328 . S
C450 C451 1.457 . S
C450 H455 0.929 . S
C451 C450 1.457 . S
C451 C452 1.291 . S
C451 H464 0.931 . S
C452 C451 1.291 . S
C452 C453 1.373 . S
C452 H465 0.929 . S
C453 C452 1.373 . S
C453 C454 1.396 . S
C453 C460 1.403 . S
C454 C444 1.476 . S
C454 N449 1.318 . S
C454 C453 1.396 . S
H455 C450 0.929 . S
O456 Mn432 2.385 . S
O456 C434 1.234 . S
O457 Mn432 2.209 . S
O457 Mn433 2.215 . S
O457 C434 1.283 . S
O458 Mn432 2.094 . S
O458 C436 1.240 . S
O459 Mn433 2.117 . S
O459 C436 1.264 . S
C460 C453 1.403 . S
C460 C461 1.399 . S
C460 H466 0.929 . S
C461 C441 1.449 . S
C461 C460 1.399 . S
C461 H467 0.930 . S
H462 C442 0.931 . S
H463 C443 0.930 . S
H464 C451 0.931 . S
H465 C452 0.929 . S
H466 C460 0.929 . S
H467 C461 0.930 . S
Mn468 O473 2.095 . S
Mn468 O483 2.162 . S
Mn468 O484 2.297 . S
Mn468 O492 2.385 . S
Mn468 O493 2.209 . S
Mn468 O494 2.094 . S
Mn469 O474 2.121 . S
Mn469 N476 2.257 . S
Mn469 N485 2.282 . S
Mn469 O493 2.215 . S
Mn469 O495 2.117 . S
C470 O492 1.234 . S
C470 O493 1.283 . S
C471 O483 1.281 . S
C471 O484 1.236 . S
C472 O494 1.240 . S
C472 O495 1.264 . S
O473 Mn468 2.095 . S
O473 C482 1.250 . S
O474 Mn469 2.121 . S
O474 C482 1.258 . S
C475 N476 1.326 . S
C475 C479 1.460 . S
C475 H481 0.929 . S
N476 Mn469 2.257 . S
N476 C475 1.326 . S
N476 C480 1.362 . S
C477 C478 1.258 . S
C477 C480 1.431 . S
C477 C497 1.449 . S
C478 C477 1.258 . S
C478 C479 1.477 . S
C478 H498 0.931 . S
C479 C475 1.460 . S
C479 C478 1.477 . S
C479 H499 0.930 . S
C480 N476 1.362 . S
C480 C477 1.431 . S
C480 C490 1.476 . S
H481 C475 0.929 . S
C482 O473 1.250 . S
C482 O474 1.258 . S
O483 Mn468 2.162 . S
O483 C471 1.281 . S
O484 Mn468 2.297 . S
O484 C471 1.236 . S
N485 Mn469 2.282 . S
N485 C486 1.328 . S
N485 C490 1.318 . S
C486 N485 1.328 . S
C486 C487 1.457 . S
C486 H491 0.929 . S
C487 C486 1.457 . S
C487 C488 1.291 . S
C487 H500 0.931 . S
C488 C487 1.291 . S
C488 C489 1.373 . S
C488 H501 0.929 . S
C489 C488 1.373 . S
C489 C490 1.396 . S
C489 C496 1.403 . S
C490 C480 1.476 . S
C490 N485 1.318 . S
C490 C489 1.396 . S
H491 C486 0.929 . S
O492 Mn468 2.385 . S
O492 C470 1.234 . S
O493 Mn468 2.209 . S
O493 Mn469 2.215 . S
O493 C470 1.283 . S
O494 Mn468 2.094 . S
O494 C472 1.240 . S
O495 Mn469 2.117 . S
O495 C472 1.264 . S
C496 C489 1.403 . S
C496 C497 1.399 . S
C496 H502 0.929 . S
C497 C477 1.449 . S
C497 C496 1.399 . S
C497 H503 0.930 . S
H498 C478 0.931 . S
H499 C479 0.930 . S
H500 C487 0.931 . S
H501 C488 0.929 . S
H502 C496 0.929 . S
H503 C497 0.930 . S
Mn504 O509 2.095 . S
Mn504 O519 2.162 . S
Mn504 O520 2.297 . S
Mn504 O528 2.385 . S
Mn504 O529 2.209 . S
Mn504 O530 2.094 . S
Mn505 O510 2.121 . S
Mn505 N512 2.257 . S
Mn505 N521 2.282 . S
Mn505 O529 2.215 . S
Mn505 O531 2.117 . S
C506 O528 1.234 . S
C506 O529 1.283 . S
C507 O519 1.281 . S
C507 O520 1.236 . S
C508 O530 1.240 . S
C508 O531 1.264 . S
O509 Mn504 2.095 . S
O509 C518 1.250 . S
O510 Mn505 2.121 . S
O510 C518 1.258 . S
C511 N512 1.326 . S
C511 C515 1.460 . S
C511 H517 0.929 . S
N512 Mn505 2.257 . S
N512 C511 1.326 . S
N512 C516 1.362 . S
C513 C514 1.258 . S
C513 C516 1.431 . S
C513 C533 1.449 . S
C514 C513 1.258 . S
C514 C515 1.477 . S
C514 H534 0.931 . S
C515 C511 1.460 . S
C515 C514 1.477 . S
C515 H535 0.930 . S
C516 N512 1.362 . S
C516 C513 1.431 . S
C516 C526 1.476 . S
H517 C511 0.929 . S
C518 O509 1.250 . S
C518 O510 1.258 . S
O519 Mn504 2.162 . S
O519 C507 1.281 . S
O520 Mn504 2.297 . S
O520 C507 1.236 . S
N521 Mn505 2.282 . S
N521 C522 1.328 . S
N521 C526 1.318 . S
C522 N521 1.328 . S
C522 C523 1.457 . S
C522 H527 0.929 . S
C523 C522 1.457 . S
C523 C524 1.291 . S
C523 H536 0.931 . S
C524 C523 1.291 . S
C524 C525 1.373 . S
C524 H537 0.929 . S
C525 C524 1.373 . S
C525 C526 1.396 . S
C525 C532 1.403 . S
C526 C516 1.476 . S
C526 N521 1.318 . S
C526 C525 1.396 . S
H527 C522 0.929 . S
O528 Mn504 2.385 . S
O528 C506 1.234 . S
O529 Mn504 2.209 . S
O529 Mn505 2.215 . S
O529 C506 1.283 . S
O530 Mn504 2.094 . S
O530 C508 1.240 . S
O531 Mn505 2.117 . S
O531 C508 1.264 . S
C532 C525 1.403 . S
C532 C533 1.399 . S
C532 H538 0.929 . S
C533 C513 1.449 . S
C533 C532 1.399 . S
C533 H539 0.930 . S
H534 C514 0.931 . S
H535 C515 0.930 . S
H536 C523 0.931 . S
H537 C524 0.929 . S
H538 C532 0.929 . S
H539 C533 0.930 . S
Mn540 O545 2.095 . S
Mn540 O555 2.162 . S
Mn540 O556 2.297 . S
Mn540 O564 2.385 . S
Mn540 O565 2.209 . S
Mn540 O566 2.094 . S
Mn541 O546 2.121 . S
Mn541 N548 2.257 . S
Mn541 N557 2.282 . S
Mn541 O565 2.215 . S
Mn541 O567 2.117 . S
C542 O564 1.234 . S
C542 O565 1.283 . S
C543 O555 1.281 . S
C543 O556 1.236 . S
C544 O566 1.240 . S
C544 O567 1.264 . S
O545 Mn540 2.095 . S
O545 C554 1.250 . S
O546 Mn541 2.121 . S
O546 C554 1.258 . S
C547 N548 1.326 . S
C547 C551 1.460 . S
C547 H553 0.929 . S
N548 Mn541 2.257 . S
N548 C547 1.326 . S
N548 C552 1.362 . S
C549 C550 1.258 . S
C549 C552 1.431 . S
C549 C569 1.449 . S
C550 C549 1.258 . S
C550 C551 1.477 . S
C550 H570 0.931 . S
C551 C547 1.460 . S
C551 C550 1.477 . S
C551 H571 0.930 . S
C552 N548 1.362 . S
C552 C549 1.431 . S
C552 C562 1.476 . S
H553 C547 0.929 . S
C554 O545 1.250 . S
C554 O546 1.258 . S
O555 Mn540 2.162 . S
O555 C543 1.281 . S
O556 Mn540 2.297 . S
O556 C543 1.236 . S
N557 Mn541 2.282 . S
N557 C558 1.328 . S
N557 C562 1.318 . S
C558 N557 1.328 . S
C558 C559 1.457 . S
C558 H563 0.929 . S
C559 C558 1.457 . S
C559 C560 1.291 . S
C559 H572 0.931 . S
C560 C559 1.291 . S
C560 C561 1.373 . S
C560 H573 0.929 . S
C561 C560 1.373 . S
C561 C562 1.396 . S
C561 C568 1.403 . S
C562 C552 1.476 . S
C562 N557 1.318 . S
C562 C561 1.396 . S
H563 C558 0.929 . S
O564 Mn540 2.385 . S
O564 C542 1.234 . S
O565 Mn540 2.209 . S
O565 Mn541 2.215 . S
O565 C542 1.283 . S
O566 Mn540 2.094 . S
O566 C544 1.240 . S
O567 Mn541 2.117 . S
O567 C544 1.264 . S
C568 C561 1.403 . S
C568 C569 1.399 . S
C568 H574 0.929 . S
C569 C549 1.449 . S
C569 C568 1.399 . S
C569 H575 0.930 . S
H570 C550 0.931 . S
H571 C551 0.930 . S
H572 C559 0.931 . S
H573 C560 0.929 . S
H574 C568 0.929 . S
H575 C569 0.930 . S
H576 C594 0.951 . S
H577 C596 0.951 . S
H578 C598 0.950 . S
H579 C599 0.950 . S
H580 C601 0.950 . S
H581 C604 0.950 . S
H582 C605 0.950 . S
H583 C607 0.950 . S
H584 C608 0.950 . S
H585 C609 0.951 . S
H586 C611 0.951 . S
H587 C613 0.950 . S
H588 C614 0.950 . S
H589 C616 0.950 . S
H590 C619 0.950 . S
H591 C620 0.950 . S
H592 C622 0.950 . S
H593 C623 0.950 . S
C594 H576 0.951 . S
C594 C595 1.366 . S
C594 C596 1.388 . S
C595 C594 1.366 . S
C595 C599 1.385 . S
C596 H577 0.951 . S
C596 C594 1.388 . S
C596 C597 1.366 . S
C597 C596 1.366 . S
C597 C598 1.414 . S
C597 C600 1.499 . S
C598 H578 0.950 . S
C598 C597 1.414 . S
C598 C599 1.374 . S
C599 H579 0.950 . S
C599 C595 1.385 . S
C599 C598 1.374 . S
C600 C597 1.499 . S
C600 C601 1.373 . S
C600 C602 1.389 . S
C601 H580 0.950 . S
C601 C600 1.373 . S
C601 C617 1.377 . S
C602 C600 1.389 . S
C602 C603 1.524 . S
C602 C616 1.377 . S
C603 C602 1.524 . S
C603 C604 1.397 . S
C603 C608 1.363 . S
C604 H581 0.950 . S
C604 C603 1.397 . S
C604 C605 1.334 . S
C605 H582 0.950 . S
C605 C604 1.334 . S
C605 C606 1.287 . S
C606 C605 1.287 . S
C606 C607 1.524 . S
C606 H625 0.913 . S
C607 H583 0.950 . S
C607 C606 1.524 . S
C607 C608 1.415 . S
C608 H584 0.950 . S
C608 C603 1.363 . S
C608 C607 1.415 . S
C609 H585 0.951 . S
C609 C610 1.366 . S
C609 C611 1.388 . S
C610 C609 1.366 . S
C610 C614 1.385 . S
C611 H586 0.951 . S
C611 C609 1.388 . S
C611 C612 1.366 . S
C612 C611 1.366 . S
C612 C613 1.414 . S
C612 C615 1.499 . S
C613 H587 0.950 . S
C613 C612 1.414 . S
C613 C614 1.374 . S
C614 H588 0.950 . S
C614 C610 1.385 . S
C614 C613 1.374 . S
C615 C612 1.499 . S
C615 C616 1.373 . S
C615 C617 1.389 . S
C616 H589 0.950 . S
C616 C602 1.377 . S
C616 C615 1.373 . S
C617 C601 1.377 . S
C617 C615 1.389 . S
C617 C618 1.524 . S
C618 C617 1.524 . S
C618 C619 1.397 . S
C618 C623 1.363 . S
C619 H590 0.950 . S
C619 C618 1.397 . S
C619 C620 1.334 . S
C620 H591 0.950 . S
C620 C619 1.334 . S
C620 C621 1.287 . S
C621 C620 1.287 . S
C621 C622 1.524 . S
C621 H624 0.999 . S
C622 H592 0.950 . S
C622 C621 1.524 . S
C622 C623 1.415 . S
C623 H593 0.950 . S
C623 C618 1.363 . S
C623 C622 1.415 . S
H624 C621 0.999 . S
H625 C606 0.913 . S
H626 C644 0.951 . S
H627 C646 0.951 . S
H628 C648 0.950 . S
H629 C649 0.950 . S
H630 C651 0.950 . S
H631 C654 0.950 . S
H632 C655 0.950 . S
H633 C657 0.950 . S
H634 C658 0.950 . S
H635 C659 0.951 . S
H636 C661 0.951 . S
H637 C663 0.950 . S
H638 C664 0.950 . S
H639 C666 0.950 . S
H640 C669 0.950 . S
H641 C670 0.950 . S
H642 C672 0.950 . S
H643 C673 0.950 . S
C644 H626 0.951 . S
C644 C645 1.366 . S
C644 C646 1.388 . S
C645 C644 1.366 . S
C645 C649 1.385 . S
C646 H627 0.951 . S
C646 C644 1.388 . S
C646 C647 1.366 . S
C647 C646 1.366 . S
C647 C648 1.414 . S
C647 C650 1.499 . S
C648 H628 0.950 . S
C648 C647 1.414 . S
C648 C649 1.374 . S
C649 H629 0.950 . S
C649 C645 1.385 . S
C649 C648 1.374 . S
C650 C647 1.499 . S
C650 C651 1.373 . S
C650 C652 1.389 . S
C651 H630 0.950 . S
C651 C650 1.373 . S
C651 C667 1.377 . S
C652 C650 1.389 . S
C652 C653 1.524 . S
C652 C666 1.377 . S
C653 C652 1.524 . S
C653 C654 1.397 . S
C653 C658 1.363 . S
C654 H631 0.950 . S
C654 C653 1.397 . S
C654 C655 1.334 . S
C655 H632 0.950 . S
C655 C654 1.334 . S
C655 C656 1.287 . S
C656 C655 1.287 . S
C656 C657 1.524 . S
C656 H675 0.913 . S
C657 H633 0.950 . S
C657 C656 1.524 . S
C657 C658 1.415 . S
C658 H634 0.950 . S
C658 C653 1.363 . S
C658 C657 1.415 . S
C659 H635 0.951 . S
C659 C660 1.366 . S
C659 C661 1.388 . S
C660 C659 1.366 . S
C660 C664 1.385 . S
C661 H636 0.951 . S
C661 C659 1.388 . S
C661 C662 1.366 . S
C662 C661 1.366 . S
C662 C663 1.414 . S
C662 C665 1.499 . S
C663 H637 0.950 . S
C663 C662 1.414 . S
C663 C664 1.374 . S
C664 H638 0.950 . S
C664 C660 1.385 . S
C664 C663 1.374 . S
C665 C662 1.499 . S
C665 C666 1.373 . S
C665 C667 1.389 . S
C666 H639 0.950 . S
C666 C652 1.377 . S
C666 C665 1.373 . S
C667 C651 1.377 . S
C667 C665 1.389 . S
C667 C668 1.524 . S
C668 C667 1.524 . S
C668 C669 1.397 . S
C668 C673 1.363 . S
C669 H640 0.950 . S
C669 C668 1.397 . S
C669 C670 1.334 . S
C670 H641 0.950 . S
C670 C669 1.334 . S
C670 C671 1.287 . S
C671 C670 1.287 . S
C671 C672 1.524 . S
C671 H674 0.999 . S
C672 H642 0.950 . S
C672 C671 1.524 . S
C672 C673 1.415 . S
C673 H643 0.950 . S
C673 C668 1.363 . S
C673 C672 1.415 . S
H674 C671 0.999 . S
H675 C656 0.913 . S
H676 C694 0.951 . S
H677 C696 0.951 . S
H678 C698 0.950 . S
H679 C699 0.950 . S
H680 C701 0.950 . S
H681 C704 0.950 . S
H682 C705 0.950 . S
H683 C707 0.950 . S
H684 C708 0.950 . S
H685 C709 0.951 . S
H686 C711 0.951 . S
H687 C713 0.950 . S
H688 C714 0.950 . S
H689 C716 0.950 . S
H690 C719 0.950 . S
H691 C720 0.950 . S
H692 C722 0.950 . S
H693 C723 0.950 . S
C694 H676 0.951 . S
C694 C695 1.366 . S
C694 C696 1.388 . S
C695 C694 1.366 . S
C695 C699 1.385 . S
C696 H677 0.951 . S
C696 C694 1.388 . S
C696 C697 1.366 . S
C697 C696 1.366 . S
C697 C698 1.414 . S
C697 C700 1.499 . S
C698 H678 0.950 . S
C698 C697 1.414 . S
C698 C699 1.374 . S
C699 H679 0.950 . S
C699 C695 1.385 . S
C699 C698 1.374 . S
C700 C697 1.499 . S
C700 C701 1.373 . S
C700 C702 1.389 . S
C701 H680 0.950 . S
C701 C700 1.373 . S
C701 C717 1.377 . S
C702 C700 1.389 . S
C702 C703 1.524 . S
C702 C716 1.377 . S
C703 C702 1.524 . S
C703 C704 1.397 . S
C703 C708 1.363 . S
C704 H681 0.950 . S
C704 C703 1.397 . S
C704 C705 1.334 . S
C705 H682 0.950 . S
C705 C704 1.334 . S
C705 C706 1.287 . S
C706 C705 1.287 . S
C706 C707 1.524 . S
C706 H725 0.913 . S
C707 H683 0.950 . S
C707 C706 1.524 . S
C707 C708 1.415 . S
C708 H684 0.950 . S
C708 C703 1.363 . S
C708 C707 1.415 . S
C709 H685 0.951 . S
C709 C710 1.366 . S
C709 C711 1.388 . S
C710 C709 1.366 . S
C710 C714 1.385 . S
C711 H686 0.951 . S
C711 C709 1.388 . S
C711 C712 1.366 . S
C712 C711 1.366 . S
C712 C713 1.414 . S
C712 C715 1.499 . S
C713 H687 0.950 . S
C713 C712 1.414 . S
C713 C714 1.374 . S
C714 H688 0.950 . S
C714 C710 1.385 . S
C714 C713 1.374 . S
C715 C712 1.499 . S
C715 C716 1.373 . S
C715 C717 1.389 . S
C716 H689 0.950 . S
C716 C702 1.377 . S
C716 C715 1.373 . S
C717 C701 1.377 . S
C717 C715 1.389 . S
C717 C718 1.524 . S
C718 C717 1.524 . S
C718 C719 1.397 . S
C718 C723 1.363 . S
C719 H690 0.950 . S
C719 C718 1.397 . S
C719 C720 1.334 . S
C720 H691 0.950 . S
C720 C719 1.334 . S
C720 C721 1.287 . S
C721 C720 1.287 . S
C721 C722 1.524 . S
C721 H724 0.999 . S
C722 H692 0.950 . S
C722 C721 1.524 . S
C722 C723 1.415 . S
C723 H693 0.950 . S
C723 C718 1.363 . S
C723 C722 1.415 . S
H724 C721 0.999 . S
H725 C706 0.913 . S
H726 C744 0.951 . S
H727 C746 0.951 . S
H728 C748 0.950 . S
H729 C749 0.950 . S
H730 C751 0.950 . S
H731 C754 0.950 . S
H732 C755 0.950 . S
H733 C757 0.950 . S
H734 C758 0.950 . S
H735 C759 0.951 . S
H736 C761 0.951 . S
H737 C763 0.950 . S
H738 C764 0.950 . S
H739 C766 0.950 . S
H740 C769 0.950 . S
H741 C770 0.950 . S
H742 C772 0.950 . S
H743 C773 0.950 . S
C744 H726 0.951 . S
C744 C745 1.366 . S
C744 C746 1.388 . S
C745 C744 1.366 . S
C745 C749 1.385 . S
C746 H727 0.951 . S
C746 C744 1.388 . S
C746 C747 1.366 . S
C747 C746 1.366 . S
C747 C748 1.414 . S
C747 C750 1.499 . S
C748 H728 0.950 . S
C748 C747 1.414 . S
C748 C749 1.374 . S
C749 H729 0.950 . S
C749 C745 1.385 . S
C749 C748 1.374 . S
C750 C747 1.499 . S
C750 C751 1.373 . S
C750 C752 1.389 . S
C751 H730 0.950 . S
C751 C750 1.373 . S
C751 C767 1.377 . S
C752 C750 1.389 . S
C752 C753 1.524 . S
C752 C766 1.377 . S
C753 C752 1.524 . S
C753 C754 1.397 . S
C753 C758 1.363 . S
C754 H731 0.950 . S
C754 C753 1.397 . S
C754 C755 1.334 . S
C755 H732 0.950 . S
C755 C754 1.334 . S
C755 C756 1.287 . S
C756 C755 1.287 . S
C756 C757 1.524 . S
C756 H775 0.913 . S
C757 H733 0.950 . S
C757 C756 1.524 . S
C757 C758 1.415 . S
C758 H734 0.950 . S
C758 C753 1.363 . S
C758 C757 1.415 . S
C759 H735 0.951 . S
C759 C760 1.366 . S
C759 C761 1.388 . S
C760 C759 1.366 . S
C760 C764 1.385 . S
C761 H736 0.951 . S
C761 C759 1.388 . S
C761 C762 1.366 . S
C762 C761 1.366 . S
C762 C763 1.414 . S
C762 C765 1.499 . S
C763 H737 0.950 . S
C763 C762 1.414 . S
C763 C764 1.374 . S
C764 H738 0.950 . S
C764 C760 1.385 . S
C764 C763 1.374 . S
C765 C762 1.499 . S
C765 C766 1.373 . S
C765 C767 1.389 . S
C766 H739 0.950 . S
C766 C752 1.377 . S
C766 C765 1.373 . S
C767 C751 1.377 . S
C767 C765 1.389 . S
C767 C768 1.524 . S
C768 C767 1.524 . S
C768 C769 1.397 . S
C768 C773 1.363 . S
C769 H740 0.950 . S
C769 C768 1.397 . S
C769 C770 1.334 . S
C770 H741 0.950 . S
C770 C769 1.334 . S
C770 C771 1.287 . S
C771 C770 1.287 . S
C771 C772 1.524 . S
C771 H774 0.999 . S
C772 H742 0.950 . S
C772 C771 1.524 . S
C772 C773 1.415 . S
C773 H743 0.950 . S
C773 C768 1.363 . S
C773 C772 1.415 . S
H774 C771 0.999 . S
H775 C756 0.913 . S
H776 C794 0.951 . S
H777 C796 0.951 . S
H778 C798 0.950 . S
H779 C799 0.950 . S
H780 C801 0.950 . S
H781 C804 0.950 . S
H782 C805 0.950 . S
H783 C807 0.950 . S
H784 C808 0.950 . S
H785 C809 0.951 . S
H786 C811 0.951 . S
H787 C813 0.950 . S
H788 C814 0.950 . S
H789 C816 0.950 . S
H790 C819 0.950 . S
H791 C820 0.950 . S
H792 C822 0.950 . S
H793 C823 0.950 . S
C794 H776 0.951 . S
C794 C795 1.366 . S
C794 C796 1.388 . S
C795 C794 1.366 . S
C795 C799 1.385 . S
C796 H777 0.951 . S
C796 C794 1.388 . S
C796 C797 1.366 . S
C797 C796 1.366 . S
C797 C798 1.414 . S
C797 C800 1.499 . S
C798 H778 0.950 . S
C798 C797 1.414 . S
C798 C799 1.374 . S
C799 H779 0.950 . S
C799 C795 1.385 . S
C799 C798 1.374 . S
C800 C797 1.499 . S
C800 C801 1.373 . S
C800 C802 1.389 . S
C801 H780 0.950 . S
C801 C800 1.373 . S
C801 C817 1.377 . S
C802 C800 1.389 . S
C802 C803 1.524 . S
C802 C816 1.377 . S
C803 C802 1.524 . S
C803 C804 1.397 . S
C803 C808 1.363 . S
C804 H781 0.950 . S
C804 C803 1.397 . S
C804 C805 1.334 . S
C805 H782 0.950 . S
C805 C804 1.334 . S
C805 C806 1.287 . S
C806 C805 1.287 . S
C806 C807 1.524 . S
C806 H825 0.913 . S
C807 H783 0.950 . S
C807 C806 1.524 . S
C807 C808 1.415 . S
C808 H784 0.950 . S
C808 C803 1.363 . S
C808 C807 1.415 . S
C809 H785 0.951 . S
C809 C810 1.366 . S
C809 C811 1.388 . S
C810 C809 1.366 . S
C810 C814 1.385 . S
C811 H786 0.951 . S
C811 C809 1.388 . S
C811 C812 1.366 . S
C812 C811 1.366 . S
C812 C813 1.414 . S
C812 C815 1.499 . S
C813 H787 0.950 . S
C813 C812 1.414 . S
C813 C814 1.374 . S
C814 H788 0.950 . S
C814 C810 1.385 . S
C814 C813 1.374 . S
C815 C812 1.499 . S
C815 C816 1.373 . S
C815 C817 1.389 . S
C816 H789 0.950 . S
C816 C802 1.377 . S
C816 C815 1.373 . S
C817 C801 1.377 . S
C817 C815 1.389 . S
C817 C818 1.524 . S
C818 C817 1.524 . S
C818 C819 1.397 . S
C818 C823 1.363 . S
C819 H790 0.950 . S
C819 C818 1.397 . S
C819 C820 1.334 . S
C820 H791 0.950 . S
C820 C819 1.334 . S
C820 C821 1.287 . S
C821 C820 1.287 . S
C821 C822 1.524 . S
C821 H824 0.999 . S
C822 H792 0.950 . S
C822 C821 1.524 . S
C822 C823 1.415 . S
C823 H793 0.950 . S
C823 C818 1.363 . S
C823 C822 1.415 . S
H824 C821 0.999 . S
H825 C806 0.913 . S
H826 C844 0.951 . S
H827 C846 0.951 . S
H828 C848 0.950 . S
H829 C849 0.950 . S
H830 C851 0.950 . S
H831 C854 0.950 . S
H832 C855 0.950 . S
H833 C857 0.950 . S
H834 C858 0.950 . S
H835 C859 0.951 . S
H836 C861 0.951 . S
H837 C863 0.950 . S
H838 C864 0.950 . S
H839 C866 0.950 . S
H840 C869 0.950 . S
H841 C870 0.950 . S
H842 C872 0.950 . S
H843 C873 0.950 . S
C844 H826 0.951 . S
C844 C845 1.366 . S
C844 C846 1.388 . S
C845 C844 1.366 . S
C845 C849 1.385 . S
C846 H827 0.951 . S
C846 C844 1.388 . S
C846 C847 1.366 . S
C847 C846 1.366 . S
C847 C848 1.414 . S
C847 C850 1.499 . S
C848 H828 0.950 . S
C848 C847 1.414 . S
C848 C849 1.374 . S
C849 H829 0.950 . S
C849 C845 1.385 . S
C849 C848 1.374 . S
C850 C847 1.499 . S
C850 C851 1.373 . S
C850 C852 1.389 . S
C851 H830 0.950 . S
C851 C850 1.373 . S
C851 C867 1.377 . S
C852 C850 1.389 . S
C852 C853 1.524 . S
C852 C866 1.377 . S
C853 C852 1.524 . S
C853 C854 1.397 . S
C853 C858 1.363 . S
C854 H831 0.950 . S
C854 C853 1.397 . S
C854 C855 1.334 . S
C855 H832 0.950 . S
C855 C854 1.334 . S
C855 C856 1.287 . S
C856 C855 1.287 . S
C856 C857 1.524 . S
C856 H875 0.913 . S
C857 H833 0.950 . S
C857 C856 1.524 . S
C857 C858 1.415 . S
C858 H834 0.950 . S
C858 C853 1.363 . S
C858 C857 1.415 . S
C859 H835 0.951 . S
C859 C860 1.366 . S
C859 C861 1.388 . S
C860 C859 1.366 . S
C860 C864 1.385 . S
C861 H836 0.951 . S
C861 C859 1.388 . S
C861 C862 1.366 . S
C862 C861 1.366 . S
C862 C863 1.414 . S
C862 C865 1.499 . S
C863 H837 0.950 . S
C863 C862 1.414 . S
C863 C864 1.374 . S
C864 H838 0.950 . S
C864 C860 1.385 . S
C864 C863 1.374 . S
C865 C862 1.499 . S
C865 C866 1.373 . S
C865 C867 1.389 . S
C866 H839 0.950 . S
C866 C852 1.377 . S
C866 C865 1.373 . S
C867 C851 1.377 . S
C867 C865 1.389 . S
C867 C868 1.524 . S
C868 C867 1.524 . S
C868 C869 1.397 . S
C868 C873 1.363 . S
C869 H840 0.950 . S
C869 C868 1.397 . S
C869 C870 1.334 . S
C870 H841 0.950 . S
C870 C869 1.334 . S
C870 C871 1.287 . S
C871 C870 1.287 . S
C871 C872 1.524 . S
C871 H874 0.999 . S
C872 H842 0.950 . S
C872 C871 1.524 . S
C872 C873 1.415 . S
C873 H843 0.950 . S
C873 C868 1.363 . S
C873 C872 1.415 . S
H874 C871 0.999 . S
H875 C856 0.913 . S
H876 C894 0.951 . S
H877 C896 0.951 . S
H878 C898 0.950 . S
H879 C899 0.950 . S
H880 C901 0.950 . S
H881 C904 0.950 . S
H882 C905 0.950 . S
H883 C907 0.950 . S
H884 C908 0.950 . S
H885 C909 0.951 . S
H886 C911 0.951 . S
H887 C913 0.950 . S
H888 C914 0.950 . S
H889 C916 0.950 . S
H890 C919 0.950 . S
H891 C920 0.950 . S
H892 C922 0.950 . S
H893 C923 0.950 . S
C894 H876 0.951 . S
C894 C895 1.366 . S
C894 C896 1.388 . S
C895 C894 1.366 . S
C895 C899 1.385 . S
C896 H877 0.951 . S
C896 C894 1.388 . S
C896 C897 1.366 . S
C897 C896 1.366 . S
C897 C898 1.414 . S
C897 C900 1.499 . S
C898 H878 0.950 . S
C898 C897 1.414 . S
C898 C899 1.374 . S
C899 H879 0.950 . S
C899 C895 1.385 . S
C899 C898 1.374 . S
C900 C897 1.499 . S
C900 C901 1.373 . S
C900 C902 1.389 . S
C901 H880 0.950 . S
C901 C900 1.373 . S
C901 C917 1.377 . S
C902 C900 1.389 . S
C902 C903 1.524 . S
C902 C916 1.377 . S
C903 C902 1.524 . S
C903 C904 1.397 . S
C903 C908 1.363 . S
C904 H881 0.950 . S
C904 C903 1.397 . S
C904 C905 1.334 . S
C905 H882 0.950 . S
C905 C904 1.334 . S
C905 C906 1.287 . S
C906 C905 1.287 . S
C906 C907 1.524 . S
C906 H925 0.913 . S
C907 H883 0.950 . S
C907 C906 1.524 . S
C907 C908 1.415 . S
C908 H884 0.950 . S
C908 C903 1.363 . S
C908 C907 1.415 . S
C909 H885 0.951 . S
C909 C910 1.366 . S
C909 C911 1.388 . S
C910 C909 1.366 . S
C910 C914 1.385 . S
C911 H886 0.951 . S
C911 C909 1.388 . S
C911 C912 1.366 . S
C912 C911 1.366 . S
C912 C913 1.414 . S
C912 C915 1.499 . S
C913 H887 0.950 . S
C913 C912 1.414 . S
C913 C914 1.374 . S
C914 H888 0.950 . S
C914 C910 1.385 . S
C914 C913 1.374 . S
C915 C912 1.499 . S
C915 C916 1.373 . S
C915 C917 1.389 . S
C916 H889 0.950 . S
C916 C902 1.377 . S
C916 C915 1.373 . S
C917 C901 1.377 . S
C917 C915 1.389 . S
C917 C918 1.524 . S
C918 C917 1.524 . S
C918 C919 1.397 . S
C918 C923 1.363 . S
C919 H890 0.950 . S
C919 C918 1.397 . S
C919 C920 1.334 . S
C920 H891 0.950 . S
C920 C919 1.334 . S
C920 C921 1.287 . S
C921 C920 1.287 . S
C921 C922 1.524 . S
C921 H924 0.999 . S
C922 H892 0.950 . S
C922 C921 1.524 . S
C922 C923 1.415 . S
C923 H893 0.950 . S
C923 C918 1.363 . S
C923 C922 1.415 . S
H924 C921 0.999 . S
H925 C906 0.913 . S
H926 C944 0.951 . S
H927 C946 0.951 . S
H928 C948 0.950 . S
H929 C949 0.950 . S
H930 C951 0.950 . S
H931 C954 0.950 . S
H932 C955 0.950 . S
H933 C957 0.950 . S
H934 C958 0.950 . S
H935 C959 0.951 . S
H936 C961 0.951 . S
H937 C963 0.950 . S
H938 C964 0.950 . S
H939 C966 0.950 . S
H940 C969 0.950 . S
H941 C970 0.950 . S
H942 C972 0.950 . S
H943 C973 0.950 . S
C944 H926 0.951 . S
C944 C945 1.366 . S
C944 C946 1.388 . S
C945 C944 1.366 . S
C945 C949 1.385 . S
C946 H927 0.951 . S
C946 C944 1.388 . S
C946 C947 1.366 . S
C947 C946 1.366 . S
C947 C948 1.414 . S
C947 C950 1.499 . S
C948 H928 0.950 . S
C948 C947 1.414 . S
C948 C949 1.374 . S
C949 H929 0.950 . S
C949 C945 1.385 . S
C949 C948 1.374 . S
C950 C947 1.499 . S
C950 C951 1.373 . S
C950 C952 1.389 . S
C951 H930 0.950 . S
C951 C950 1.373 . S
C951 C967 1.377 . S
C952 C950 1.389 . S
C952 C953 1.524 . S
C952 C966 1.377 . S
C953 C952 1.524 . S
C953 C954 1.397 . S
C953 C958 1.363 . S
C954 H931 0.950 . S
C954 C953 1.397 . S
C954 C955 1.334 . S
C955 H932 0.950 . S
C955 C954 1.334 . S
C955 C956 1.287 . S
C956 C955 1.287 . S
C956 C957 1.524 . S
C956 H975 0.913 . S
C957 H933 0.950 . S
C957 C956 1.524 . S
C957 C958 1.415 . S
C958 H934 0.950 . S
C958 C953 1.363 . S
C958 C957 1.415 . S
C959 H935 0.951 . S
C959 C960 1.366 . S
C959 C961 1.388 . S
C960 C959 1.366 . S
C960 C964 1.385 . S
C961 H936 0.951 . S
C961 C959 1.388 . S
C961 C962 1.366 . S
C962 C961 1.366 . S
C962 C963 1.414 . S
C962 C965 1.499 . S
C963 H937 0.950 . S
C963 C962 1.414 . S
C963 C964 1.374 . S
C964 H938 0.950 . S
C964 C960 1.385 . S
C964 C963 1.374 . S
C965 C962 1.499 . S
C965 C966 1.373 . S
C965 C967 1.389 . S
C966 H939 0.950 . S
C966 C952 1.377 . S
C966 C965 1.373 . S
C967 C951 1.377 . S
C967 C965 1.389 . S
C967 C968 1.524 . S
C968 C967 1.524 . S
C968 C969 1.397 . S
C968 C973 1.363 . S
C969 H940 0.950 . S
C969 C968 1.397 . S
C969 C970 1.334 . S
C970 H941 0.950 . S
C970 C969 1.334 . S
C970 C971 1.287 . S
C971 C970 1.287 . S
C971 C972 1.524 . S
C971 H974 0.999 . S
C972 H942 0.950 . S
C972 C971 1.524 . S
C972 C973 1.415 . S
C973 H943 0.950 . S
C973 C968 1.363 . S
C973 C972 1.415 . S
H974 C971 0.999 . S
H975 C956 0.913 . S
H976 C994 0.951 . S
H977 C996 0.951 . S
H978 C998 0.950 . S
H979 C999 0.950 . S
H980 C1001 0.950 . S
H981 C1004 0.960 . S
H982 C1005 0.950 1_565 S
H983 C1007 0.950 . S
H984 C1008 0.950 . S
H985 C1009 0.951 . S
H986 C1011 0.951 . S
H987 C1013 0.950 . S
H988 C1014 0.950 . S
H989 C1016 0.950 . S
H990 C1019 0.950 1_545 S
H991 C1020 0.950 . S
H992 C1022 0.950 . S
H993 C1023 0.950 . S
C994 H976 0.951 . S
C994 C995 1.366 . S
C994 C996 1.388 . S
C995 C994 1.366 . S
C995 C999 1.385 . S
C996 H977 0.951 . S
C996 C994 1.388 . S
C996 C997 1.366 . S
C997 C996 1.366 . S
C997 C998 1.414 . S
C997 C1000 1.499 . S
C998 H978 0.950 . S
C998 C997 1.414 . S
C998 C999 1.374 . S
C999 H979 0.950 . S
C999 C995 1.385 . S
C999 C998 1.374 . S
C1000 C997 1.499 . S
C1000 C1001 1.373 . S
C1000 C1002 1.378 1_565 S
C1001 H980 0.950 . S
C1001 C1000 1.373 . S
C1001 C1017 1.377 . S
C1002 C1000 1.378 1_545 S
C1002 C1003 1.526 . S
C1002 C1016 1.387 . S
C1003 C1002 1.526 . S
C1003 C1004 1.391 1_545 S
C1003 C1008 1.363 . S
C1004 H981 0.960 . S
C1004 C1003 1.391 1_565 S
C1004 C1005 1.331 1_565 S
C1005 H982 0.950 1_545 S
C1005 C1004 1.331 1_545 S
C1005 C1006 1.287 . S
C1006 C1005 1.287 . S
C1006 C1007 1.524 . S
C1006 H1025 0.913 . S
C1007 H983 0.950 . S
C1007 C1006 1.524 . S
C1007 C1008 1.415 . S
C1008 H984 0.950 . S
C1008 C1003 1.363 . S
C1008 C1007 1.415 . S
C1009 H985 0.951 . S
C1009 C1010 1.366 . S
C1009 C1011 1.388 . S
C1010 C1009 1.366 . S
C1010 C1014 1.385 . S
C1011 H986 0.951 . S
C1011 C1009 1.388 . S
C1011 C1012 1.366 . S
C1012 C1011 1.366 . S
C1012 C1013 1.414 . S
C1012 C1015 1.499 . S
C1013 H987 0.950 . S
C1013 C1012 1.414 . S
C1013 C1014 1.374 . S
C1014 H988 0.950 . S
C1014 C1010 1.385 . S
C1014 C1013 1.374 . S
C1015 C1012 1.499 . S
C1015 C1016 1.373 . S
C1015 C1017 1.389 1_545 S
C1016 H989 0.950 . S
C1016 C1002 1.387 . S
C1016 C1015 1.373 . S
C1017 C1001 1.377 . S
C1017 C1015 1.389 1_565 S
C1017 C1018 1.524 . S
C1018 C1017 1.524 . S
C1018 C1019 1.397 . S
C1018 C1023 1.363 . S
C1019 H990 0.950 1_565 S
C1019 C1018 1.397 . S
C1019 C1020 1.334 . S
C1020 H991 0.950 . S
C1020 C1019 1.334 . S
C1020 C1021 1.287 . S
C1021 C1020 1.287 . S
C1021 C1022 1.524 . S
C1021 H1024 0.999 . S
C1022 H992 0.950 . S
C1022 C1021 1.524 . S
C1022 C1023 1.415 . S
C1023 H993 0.950 . S
C1023 C1018 1.363 . S
C1023 C1022 1.415 . S
H1024 C1021 0.999 . S
H1025 C1006 0.913 . S
H1026 C1044 0.951 . S
H1027 C1046 0.951 . S
H1028 C1048 0.950 . S
H1029 C1049 0.950 . S
H1030 C1051 0.950 . S
H1031 C1054 0.950 . S
H1032 C1055 0.950 . S
H1033 C1057 0.950 . S
H1034 C1058 0.950 . S
H1035 C1059 0.951 . S
H1036 C1061 0.951 . S
H1037 C1063 0.950 . S
H1038 C1064 0.950 . S
H1039 C1066 0.950 . S
H1040 C1069 0.950 . S
H1041 C1070 0.950 . S
H1042 C1072 0.950 . S
H1043 C1073 0.950 . S
C1044 H1026 0.951 . S
C1044 C1045 1.366 . S
C1044 C1046 1.388 . S
C1045 C1044 1.366 . S
C1045 C1049 1.385 . S
C1046 H1027 0.951 . S
C1046 C1044 1.388 . S
C1046 C1047 1.366 . S
C1047 C1046 1.366 . S
C1047 C1048 1.414 . S
C1047 C1050 1.499 . S
C1048 H1028 0.950 . S
C1048 C1047 1.414 . S
C1048 C1049 1.374 . S
C1049 H1029 0.950 . S
C1049 C1045 1.385 . S
C1049 C1048 1.374 . S
C1050 C1047 1.499 . S
C1050 C1051 1.373 . S
C1050 C1052 1.389 . S
C1051 H1030 0.950 . S
C1051 C1050 1.373 . S
C1051 C1067 1.377 . S
C1052 C1050 1.389 . S
C1052 C1053 1.524 . S
C1052 C1066 1.377 . S
C1053 C1052 1.524 . S
C1053 C1054 1.397 . S
C1053 C1058 1.363 . S
C1054 H1031 0.950 . S
C1054 C1053 1.397 . S
C1054 C1055 1.334 . S
C1055 H1032 0.950 . S
C1055 C1054 1.334 . S
C1055 C1056 1.287 . S
C1056 C1055 1.287 . S
C1056 C1057 1.524 . S
C1056 H1075 0.913 . S
C1057 H1033 0.950 . S
C1057 C1056 1.524 . S
C1057 C1058 1.415 . S
C1058 H1034 0.950 . S
C1058 C1053 1.363 . S
C1058 C1057 1.415 . S
C1059 H1035 0.951 . S
C1059 C1060 1.366 . S
C1059 C1061 1.388 . S
C1060 C1059 1.366 . S
C1060 C1064 1.385 . S
C1061 H1036 0.951 . S
C1061 C1059 1.388 . S
C1061 C1062 1.366 . S
C1062 C1061 1.366 . S
C1062 C1063 1.414 . S
C1062 C1065 1.499 . S
C1063 H1037 0.950 . S
C1063 C1062 1.414 . S
C1063 C1064 1.374 . S
C1064 H1038 0.950 . S
C1064 C1060 1.385 . S
C1064 C1063 1.374 . S
C1065 C1062 1.499 . S
C1065 C1066 1.373 . S
C1065 C1067 1.389 . S
C1066 H1039 0.950 . S
C1066 C1052 1.377 . S
C1066 C1065 1.373 . S
C1067 C1051 1.377 . S
C1067 C1065 1.389 . S
C1067 C1068 1.524 . S
C1068 C1067 1.524 . S
C1068 C1069 1.397 . S
C1068 C1073 1.363 . S
C1069 H1040 0.950 . S
C1069 C1068 1.397 . S
C1069 C1070 1.334 . S
C1070 H1041 0.950 . S
C1070 C1069 1.334 . S
C1070 C1071 1.287 . S
C1071 C1070 1.287 . S
C1071 C1072 1.524 . S
C1071 H1074 0.999 . S
C1072 H1042 0.950 . S
C1072 C1071 1.524 . S
C1072 C1073 1.415 . S
C1073 H1043 0.950 . S
C1073 C1068 1.363 . S
C1073 C1072 1.415 . S
H1074 C1071 0.999 . S
H1075 C1056 0.913 . S
H1076 C1094 0.951 . S
H1077 C1096 0.951 . S
H1078 C1098 0.950 . S
H1079 C1099 0.950 . S
H1080 C1101 0.950 . S
H1081 C1104 0.950 . S
H1082 C1105 0.950 . S
H1083 C1107 0.950 . S
H1084 C1108 0.950 . S
H1085 C1109 0.951 . S
H1086 C1111 0.951 . S
H1087 C1113 0.950 . S
H1088 C1114 0.950 . S
H1089 C1116 0.950 . S
H1090 C1119 0.950 . S
H1091 C1120 0.950 . S
H1092 C1122 0.950 . S
H1093 C1123 0.950 . S
C1094 H1076 0.951 . S
C1094 C1095 1.366 . S
C1094 C1096 1.388 . S
C1095 C1094 1.366 . S
C1095 C1099 1.385 . S
C1096 H1077 0.951 . S
C1096 C1094 1.388 . S
C1096 C1097 1.366 . S
C1097 C1096 1.366 . S
C1097 C1098 1.414 . S
C1097 C1100 1.499 . S
C1098 H1078 0.950 . S
C1098 C1097 1.414 . S
C1098 C1099 1.374 . S
C1099 H1079 0.950 . S
C1099 C1095 1.385 . S
C1099 C1098 1.374 . S
C1100 C1097 1.499 . S
C1100 C1101 1.373 . S
C1100 C1102 1.389 . S
C1101 H1080 0.950 . S
C1101 C1100 1.373 . S
C1101 C1117 1.377 1_556 S
C1102 C1100 1.389 . S
C1102 C1103 1.524 . S
C1102 C1116 1.377 . S
C1103 C1102 1.524 . S
C1103 C1104 1.397 . S
C1103 C1108 1.363 . S
C1104 H1081 0.950 . S
C1104 C1103 1.397 . S
C1104 C1105 1.334 . S
C1105 H1082 0.950 . S
C1105 C1104 1.334 . S
C1105 C1106 1.287 . S
C1106 C1105 1.287 . S
C1106 C1107 1.524 . S
C1106 H1125 0.913 . S
C1107 H1083 0.950 . S
C1107 C1106 1.524 . S
C1107 C1108 1.415 . S
C1108 H1084 0.950 . S
C1108 C1103 1.363 . S
C1108 C1107 1.415 . S
C1109 H1085 0.951 . S
C1109 C1110 1.366 . S
C1109 C1111 1.388 . S
C1110 C1109 1.366 . S
C1110 C1114 1.385 . S
C1111 H1086 0.951 . S
C1111 C1109 1.388 . S
C1111 C1112 1.366 . S
C1112 C1111 1.366 . S
C1112 C1113 1.414 . S
C1112 C1115 1.499 . S
C1113 H1087 0.950 . S
C1113 C1112 1.414 . S
C1113 C1114 1.374 . S
C1114 H1088 0.950 . S
C1114 C1110 1.385 . S
C1114 C1113 1.374 . S
C1115 C1112 1.499 . S
C1115 C1116 1.373 1_554 S
C1115 C1117 1.389 . S
C1116 H1089 0.950 . S
C1116 C1102 1.377 . S
C1116 C1115 1.373 1_556 S
C1117 C1101 1.377 1_554 S
C1117 C1115 1.389 . S
C1117 C1118 1.524 . S
C1118 C1117 1.524 . S
C1118 C1119 1.397 . S
C1118 C1123 1.363 . S
C1119 H1090 0.950 . S
C1119 C1118 1.397 . S
C1119 C1120 1.334 . S
C1120 H1091 0.950 . S
C1120 C1119 1.334 . S
C1120 C1121 1.287 . S
C1121 C1120 1.287 . S
C1121 C1122 1.524 . S
C1121 H1124 0.999 . S
C1122 H1092 0.950 . S
C1122 C1121 1.524 . S
C1122 C1123 1.415 . S
C1123 H1093 0.950 . S
C1123 C1118 1.363 . S
C1123 C1122 1.415 . S
H1124 C1121 0.999 . S
H1125 C1106 0.913 . S
H1126 C1144 0.951 . S
H1127 C1146 0.951 . S
H1128 C1148 0.950 . S
H1129 C1149 0.950 . S
H1130 C1151 0.950 . S
H1131 C1154 0.950 . S
H1132 C1155 0.950 . S
H1133 C1157 0.950 . S
H1134 C1158 0.950 . S
H1135 C1159 0.951 . S
H1136 C1161 0.951 . S
H1137 C1163 0.950 . S
H1138 C1164 0.950 . S
H1139 C1166 0.950 . S
H1140 C1169 0.950 . S
H1141 C1170 0.950 . S
H1142 C1172 0.950 . S
H1143 C1173 0.950 . S
C1144 H1126 0.951 . S
C1144 C1145 1.366 . S
C1144 C1146 1.388 . S
C1145 C1144 1.366 . S
C1145 C1149 1.385 . S
C1146 H1127 0.951 . S
C1146 C1144 1.388 . S
C1146 C1147 1.366 . S
C1147 C1146 1.366 . S
C1147 C1148 1.414 . S
C1147 C1150 1.499 . S
C1148 H1128 0.950 . S
C1148 C1147 1.414 . S
C1148 C1149 1.374 . S
C1149 H1129 0.950 . S
C1149 C1145 1.385 . S
C1149 C1148 1.374 . S
C1150 C1147 1.499 . S
C1150 C1151 1.373 . S
C1150 C1152 1.389 . S
C1151 H1130 0.950 . S
C1151 C1150 1.373 . S
C1151 C1167 1.377 1_554 S
C1152 C1150 1.389 . S
C1152 C1153 1.524 . S
C1152 C1166 1.377 1_554 S
C1153 C1152 1.524 . S
C1153 C1154 1.397 . S
C1153 C1158 1.363 . S
C1154 H1131 0.950 . S
C1154 C1153 1.397 . S
C1154 C1155 1.334 . S
C1155 H1132 0.950 . S
C1155 C1154 1.334 . S
C1155 C1156 1.287 . S
C1156 C1155 1.287 . S
C1156 C1157 1.524 . S
C1156 H1175 0.913 . S
C1157 H1133 0.950 . S
C1157 C1156 1.524 . S
C1157 C1158 1.415 . S
C1158 H1134 0.950 . S
C1158 C1153 1.363 . S
C1158 C1157 1.415 . S
C1159 H1135 0.951 . S
C1159 C1160 1.366 . S
C1159 C1161 1.388 . S
C1160 C1159 1.366 . S
C1160 C1164 1.385 . S
C1161 H1136 0.951 . S
C1161 C1159 1.388 . S
C1161 C1162 1.366 . S
C1162 C1161 1.366 . S
C1162 C1163 1.414 . S
C1162 C1165 1.499 . S
C1163 H1137 0.950 . S
C1163 C1162 1.414 . S
C1163 C1164 1.374 . S
C1164 H1138 0.950 . S
C1164 C1160 1.385 . S
C1164 C1163 1.374 . S
C1165 C1162 1.499 . S
C1165 C1166 1.373 . S
C1165 C1167 1.389 . S
C1166 H1139 0.950 . S
C1166 C1152 1.377 1_556 S
C1166 C1165 1.373 . S
C1167 C1151 1.377 1_556 S
C1167 C1165 1.389 . S
C1167 C1168 1.524 . S
C1168 C1167 1.524 . S
C1168 C1169 1.397 . S
C1168 C1173 1.363 . S
C1169 H1140 0.950 . S
C1169 C1168 1.397 . S
C1169 C1170 1.334 . S
C1170 H1141 0.950 . S
C1170 C1169 1.334 . S
C1170 C1171 1.287 . S
C1171 C1170 1.287 . S
C1171 C1172 1.524 . S
C1171 H1174 0.999 . S
C1172 H1142 0.950 . S
C1172 C1171 1.524 . S
C1172 C1173 1.415 . S
C1173 H1143 0.950 . S
C1173 C1168 1.363 . S
C1173 C1172 1.415 . S
H1174 C1171 0.999 . S
H1175 C1156 0.913 . S
H1176 C1194 0.951 . S
H1177 C1196 0.951 . S
H1178 C1198 0.950 . S
H1179 C1199 0.950 . S
H1180 C1201 0.950 . S
H1181 C1204 0.950 . S
H1182 C1205 0.950 . S
H1183 C1207 0.950 . S
H1184 C1208 0.950 . S
H1185 C1209 0.951 . S
H1186 C1211 0.951 . S
H1187 C1213 0.950 . S
H1188 C1214 0.950 . S
H1189 C1216 0.950 . S
H1190 C1219 0.950 . S
H1191 C1220 0.950 . S
H1192 C1222 0.950 . S
H1193 C1223 0.950 . S
C1194 H1176 0.951 . S
C1194 C1195 1.366 . S
C1194 C1196 1.388 . S
C1195 C1194 1.366 . S
C1195 C1199 1.385 . S
C1196 H1177 0.951 . S
C1196 C1194 1.388 . S
C1196 C1197 1.366 . S
C1197 C1196 1.366 . S
C1197 C1198 1.414 . S
C1197 C1200 1.499 . S
C1198 H1178 0.950 . S
C1198 C1197 1.414 . S
C1198 C1199 1.374 . S
C1199 H1179 0.950 . S
C1199 C1195 1.385 . S
C1199 C1198 1.374 . S
C1200 C1197 1.499 . S
C1200 C1201 1.373 . S
C1200 C1202 1.389 . S
C1201 H1180 0.950 . S
C1201 C1200 1.373 . S
C1201 C1217 1.377 . S
C1202 C1200 1.389 . S
C1202 C1203 1.524 . S
C1202 C1216 1.377 . S
C1203 C1202 1.524 . S
C1203 C1204 1.397 . S
C1203 C1208 1.363 . S
C1204 H1181 0.950 . S
C1204 C1203 1.397 . S
C1204 C1205 1.334 . S
C1205 H1182 0.950 . S
C1205 C1204 1.334 . S
C1205 C1206 1.287 . S
C1206 C1205 1.287 . S
C1206 C1207 1.524 . S
C1206 H1225 0.913 . S
C1207 H1183 0.950 . S
C1207 C1206 1.524 . S
C1207 C1208 1.415 . S
C1208 H1184 0.950 . S
C1208 C1203 1.363 . S
C1208 C1207 1.415 . S
C1209 H1185 0.951 . S
C1209 C1210 1.366 . S
C1209 C1211 1.388 . S
C1210 C1209 1.366 . S
C1210 C1214 1.385 . S
C1211 H1186 0.951 . S
C1211 C1209 1.388 . S
C1211 C1212 1.366 . S
C1212 C1211 1.366 . S
C1212 C1213 1.414 . S
C1212 C1215 1.499 . S
C1213 H1187 0.950 . S
C1213 C1212 1.414 . S
C1213 C1214 1.374 . S
C1214 H1188 0.950 . S
C1214 C1210 1.385 . S
C1214 C1213 1.374 . S
C1215 C1212 1.499 . S
C1215 C1216 1.373 . S
C1215 C1217 1.389 . S
C1216 H1189 0.950 . S
C1216 C1202 1.377 . S
C1216 C1215 1.373 . S
C1217 C1201 1.377 . S
C1217 C1215 1.389 . S
C1217 C1218 1.524 . S
C1218 C1217 1.524 . S
C1218 C1219 1.397 . S
C1218 C1223 1.363 . S
C1219 H1190 0.950 . S
C1219 C1218 1.397 . S
C1219 C1220 1.334 . S
C1220 H1191 0.950 . S
C1220 C1219 1.334 . S
C1220 C1221 1.287 . S
C1221 C1220 1.287 . S
C1221 C1222 1.524 . S
C1221 H1224 0.999 . S
C1222 H1192 0.950 . S
C1222 C1221 1.524 . S
C1222 C1223 1.415 . S
C1223 H1193 0.950 . S
C1223 C1218 1.363 . S
C1223 C1222 1.415 . S
H1224 C1221 0.999 . S
H1225 C1206 0.913 . S
H1226 C1244 0.951 . S
H1227 C1246 0.951 . S
H1228 C1248 0.950 . S
H1229 C1249 0.950 . S
H1230 C1251 0.950 . S
H1231 C1254 0.950 . S
H1232 C1255 0.950 . S
H1233 C1257 0.950 . S
H1234 C1258 0.950 . S
H1235 C1259 0.951 . S
H1236 C1261 0.951 . S
H1237 C1263 0.950 . S
H1238 C1264 0.950 . S
H1239 C1266 0.950 . S
H1240 C1269 0.950 . S
H1241 C1270 0.950 . S
H1242 C1272 0.950 . S
H1243 C1273 0.950 . S
C1244 H1226 0.951 . S
C1244 C1245 1.366 . S
C1244 C1246 1.388 . S
C1245 C1244 1.366 . S
C1245 C1249 1.385 . S
C1246 H1227 0.951 . S
C1246 C1244 1.388 . S
C1246 C1247 1.366 . S
C1247 C1246 1.366 . S
C1247 C1248 1.414 . S
C1247 C1250 1.499 . S
C1248 H1228 0.950 . S
C1248 C1247 1.414 . S
C1248 C1249 1.374 . S
C1249 H1229 0.950 . S
C1249 C1245 1.385 . S
C1249 C1248 1.374 . S
C1250 C1247 1.499 . S
C1250 C1251 1.373 . S
C1250 C1252 1.389 . S
C1251 H1230 0.950 . S
C1251 C1250 1.373 . S
C1251 C1267 1.377 . S
C1252 C1250 1.389 . S
C1252 C1253 1.524 . S
C1252 C1266 1.377 . S
C1253 C1252 1.524 . S
C1253 C1254 1.397 . S
C1253 C1258 1.363 . S
C1254 H1231 0.950 . S
C1254 C1253 1.397 . S
C1254 C1255 1.334 . S
C1255 H1232 0.950 . S
C1255 C1254 1.334 . S
C1255 C1256 1.287 . S
C1256 C1255 1.287 . S
C1256 C1257 1.524 . S
C1256 H1275 0.913 . S
C1257 H1233 0.950 . S
C1257 C1256 1.524 . S
C1257 C1258 1.415 . S
C1258 H1234 0.950 . S
C1258 C1253 1.363 . S
C1258 C1257 1.415 . S
C1259 H1235 0.951 . S
C1259 C1260 1.366 . S
C1259 C1261 1.388 . S
C1260 C1259 1.366 . S
C1260 C1264 1.385 . S
C1261 H1236 0.951 . S
C1261 C1259 1.388 . S
C1261 C1262 1.366 . S
C1262 C1261 1.366 . S
C1262 C1263 1.414 . S
C1262 C1265 1.499 . S
C1263 H1237 0.950 . S
C1263 C1262 1.414 . S
C1263 C1264 1.374 . S
C1264 H1238 0.950 . S
C1264 C1260 1.385 . S
C1264 C1263 1.374 . S
C1265 C1262 1.499 . S
C1265 C1266 1.373 . S
C1265 C1267 1.389 . S
C1266 H1239 0.950 . S
C1266 C1252 1.377 . S
C1266 C1265 1.373 . S
C1267 C1251 1.377 . S
C1267 C1265 1.389 . S
C1267 C1268 1.524 . S
C1268 C1267 1.524 . S
C1268 C1269 1.397 . S
C1268 C1273 1.363 . S
C1269 H1240 0.950 . S
C1269 C1268 1.397 . S
C1269 C1270 1.334 . S
C1270 H1241 0.950 . S
C1270 C1269 1.334 . S
C1270 C1271 1.287 . S
C1271 C1270 1.287 . S
C1271 C1272 1.524 . S
C1271 H1274 0.999 . S
C1272 H1242 0.950 . S
C1272 C1271 1.524 . S
C1272 C1273 1.415 . S
C1273 H1243 0.950 . S
C1273 C1268 1.363 . S
C1273 C1272 1.415 . S
H1274 C1271 0.999 . S
H1275 C1256 0.913 . S
H1276 C1294 0.951 . S
H1277 C1296 0.951 . S
H1278 C1298 0.950 . S
H1279 C1299 0.950 . S
H1280 C1301 0.950 . S
H1281 C1304 0.950 . S
H1282 C1305 0.950 . S
H1283 C1307 0.950 . S
H1284 C1308 0.950 . S
H1285 C1309 0.951 . S
H1286 C1311 0.951 . S
H1287 C1313 0.950 . S
H1288 C1314 0.950 . S
H1289 C1316 0.950 . S
H1290 C1319 0.950 . S
H1291 C1320 0.950 . S
H1292 C1322 0.950 . S
H1293 C1323 0.950 . S
C1294 H1276 0.951 . S
C1294 C1295 1.366 . S
C1294 C1296 1.388 . S
C1295 C1294 1.366 . S
C1295 C1299 1.385 . S
C1296 H1277 0.951 . S
C1296 C1294 1.388 . S
C1296 C1297 1.366 . S
C1297 C1296 1.366 . S
C1297 C1298 1.414 . S
C1297 C1300 1.499 . S
C1298 H1278 0.950 . S
C1298 C1297 1.414 . S
C1298 C1299 1.374 . S
C1299 H1279 0.950 . S
C1299 C1295 1.385 . S
C1299 C1298 1.374 . S
C1300 C1297 1.499 . S
C1300 C1301 1.373 . S
C1300 C1302 1.389 . S
C1301 H1280 0.950 . S
C1301 C1300 1.373 . S
C1301 C1317 1.377 . S
C1302 C1300 1.389 . S
C1302 C1303 1.524 . S
C1302 C1316 1.377 1_655 S
C1303 C1302 1.524 . S
C1303 C1304 1.397 . S
C1303 C1308 1.363 1_655 S
C1304 H1281 0.950 . S
C1304 C1303 1.397 . S
C1304 C1305 1.334 . S
C1305 H1282 0.950 . S
C1305 C1304 1.334 . S
C1305 C1306 1.287 . S
C1306 C1305 1.287 . S
C1306 C1307 1.524 1_655 S
C1306 H1325 0.913 . S
C1307 H1283 0.950 . S
C1307 C1306 1.524 1_455 S
C1307 C1308 1.415 . S
C1308 H1284 0.950 . S
C1308 C1303 1.363 1_455 S
C1308 C1307 1.415 . S
C1309 H1285 0.951 . S
C1309 C1310 1.366 . S
C1309 C1311 1.388 . S
C1310 C1309 1.366 . S
C1310 C1314 1.385 . S
C1311 H1286 0.951 . S
C1311 C1309 1.388 . S
C1311 C1312 1.366 . S
C1312 C1311 1.366 . S
C1312 C1313 1.414 . S
C1312 C1315 1.499 . S
C1313 H1287 0.950 . S
C1313 C1312 1.414 . S
C1313 C1314 1.374 . S
C1314 H1288 0.950 . S
C1314 C1310 1.385 . S
C1314 C1313 1.374 . S
C1315 C1312 1.499 . S
C1315 C1316 1.373 . S
C1315 C1317 1.389 1_455 S
C1316 H1289 0.950 . S
C1316 C1302 1.377 1_455 S
C1316 C1315 1.373 . S
C1317 C1301 1.377 . S
C1317 C1315 1.389 1_655 S
C1317 C1318 1.524 . S
C1318 C1317 1.524 . S
C1318 C1319 1.397 1_655 S
C1318 C1323 1.363 . S
C1319 H1290 0.950 . S
C1319 C1318 1.397 1_455 S
C1319 C1320 1.334 . S
C1320 H1291 0.950 . S
C1320 C1319 1.334 . S
C1320 C1321 1.287 1_455 S
C1321 C1320 1.287 1_655 S
C1321 C1322 1.524 . S
C1321 H1324 0.999 . S
C1322 H1292 0.950 . S
C1322 C1321 1.524 . S
C1322 C1323 1.415 . S
C1323 H1293 0.950 . S
C1323 C1318 1.363 . S
C1323 C1322 1.415 . S
H1324 C1321 0.999 . S
H1325 C1306 0.913 . S
H1326 C1344 0.951 . S
H1327 C1346 0.951 . S
H1328 C1348 0.950 . S
H1329 C1349 0.950 . S
H1330 C1351 0.950 . S
H1331 C1354 0.950 . S
H1332 C1355 0.950 . S
H1333 C1357 0.950 . S
H1334 C1358 0.950 . S
H1335 C1359 0.951 . S
H1336 C1361 0.951 . S
H1337 C1363 0.950 . S
H1338 C1364 0.950 . S
H1339 C1366 0.950 . S
H1340 C1369 0.950 . S
H1341 C1370 0.950 . S
H1342 C1372 0.950 . S
H1343 C1373 0.950 . S
C1344 H1326 0.951 . S
C1344 C1345 1.366 . S
C1344 C1346 1.388 . S
C1345 C1344 1.366 . S
C1345 C1349 1.385 . S
C1346 H1327 0.951 . S
C1346 C1344 1.388 . S
C1346 C1347 1.366 . S
C1347 C1346 1.366 . S
C1347 C1348 1.414 . S
C1347 C1350 1.499 . S
C1348 H1328 0.950 . S
C1348 C1347 1.414 . S
C1348 C1349 1.374 . S
C1349 H1329 0.950 . S
C1349 C1345 1.385 . S
C1349 C1348 1.374 . S
C1350 C1347 1.499 . S
C1350 C1351 1.373 . S
C1350 C1352 1.389 1_655 S
C1351 H1330 0.950 . S
C1351 C1350 1.373 . S
C1351 C1367 1.377 1_655 S
C1352 C1350 1.389 1_455 S
C1352 C1353 1.524 . S
C1352 C1366 1.377 . S
C1353 C1352 1.524 . S
C1353 C1354 1.397 1_455 S
C1353 C1358 1.363 . S
C1354 H1331 0.950 . S
C1354 C1353 1.397 1_655 S
C1354 C1355 1.334 . S
C1355 H1332 0.950 . S
C1355 C1354 1.334 . S
C1355 C1356 1.301 . S
C1356 C1355 1.301 . S
C1356 C1357 1.510 1_655 S
C1356 H1375 0.914 . S
C1357 H1333 0.950 . S
C1357 C1356 1.510 1_455 S
C1357 C1358 1.415 . S
C1358 H1334 0.950 . S
C1358 C1353 1.363 . S
C1358 C1357 1.415 . S
C1359 H1335 0.951 . S
C1359 C1360 1.366 . S
C1359 C1361 1.388 . S
C1360 C1359 1.366 . S
C1360 C1364 1.385 . S
C1361 H1336 0.951 . S
C1361 C1359 1.388 . S
C1361 C1362 1.366 . S
C1362 C1361 1.366 . S
C1362 C1363 1.414 . S
C1362 C1365 1.499 . S
C1363 H1337 0.950 . S
C1363 C1362 1.414 . S
C1363 C1364 1.374 . S
C1364 H1338 0.950 . S
C1364 C1360 1.385 . S
C1364 C1363 1.374 . S
C1365 C1362 1.499 . S
C1365 C1366 1.373 . S
C1365 C1367 1.389 . S
C1366 H1339 0.950 . S
C1366 C1352 1.377 . S
C1366 C1365 1.373 . S
C1367 C1351 1.377 1_455 S
C1367 C1365 1.389 . S
C1367 C1368 1.524 . S
C1368 C1367 1.524 . S
C1368 C1369 1.397 . S
C1368 C1373 1.363 1_455 S
C1369 H1340 0.950 . S
C1369 C1368 1.397 . S
C1369 C1370 1.334 . S
C1370 H1341 0.950 . S
C1370 C1369 1.334 . S
C1370 C1371 1.287 . S
C1371 C1370 1.287 . S
C1371 C1372 1.524 1_455 S
C1371 H1374 0.999 . S
C1372 H1342 0.950 . S
C1372 C1371 1.524 1_655 S
C1372 C1373 1.415 . S
C1373 H1343 0.950 . S
C1373 C1368 1.363 1_655 S
C1373 C1372 1.415 . S
H1374 C1371 0.999 . S
H1375 C1356 0.914 . S
H1376 C1394 0.951 . S
H1377 C1396 0.951 . S
H1378 C1398 0.950 . S
H1379 C1399 0.950 . S
H1380 C1401 0.950 . S
H1381 C1404 0.950 . S
H1382 C1405 0.950 . S
H1383 C1407 0.950 . S
H1384 C1408 0.950 . S
H1385 C1409 0.951 . S
H1386 C1411 0.951 . S
H1387 C1413 0.950 . S
H1388 C1414 0.950 . S
H1389 C1416 0.950 . S
H1390 C1419 0.950 . S
H1391 C1420 0.950 . S
H1392 C1422 0.950 . S
H1393 C1423 0.950 . S
C1394 H1376 0.951 . S
C1394 C1395 1.366 . S
C1394 C1396 1.388 . S
C1395 C1394 1.366 . S
C1395 C1399 1.385 . S
C1396 H1377 0.951 . S
C1396 C1394 1.388 . S
C1396 C1397 1.366 . S
C1397 C1396 1.366 . S
C1397 C1398 1.414 . S
C1397 C1400 1.499 . S
C1398 H1378 0.950 . S
C1398 C1397 1.414 . S
C1398 C1399 1.374 . S
C1399 H1379 0.950 . S
C1399 C1395 1.385 . S
C1399 C1398 1.374 . S
C1400 C1397 1.499 . S
C1400 C1401 1.373 . S
C1400 C1402 1.389 . S
C1401 H1380 0.950 . S
C1401 C1400 1.373 . S
C1401 C1417 1.377 . S
C1402 C1400 1.389 . S
C1402 C1403 1.524 . S
C1402 C1416 1.377 . S
C1403 C1402 1.524 . S
C1403 C1404 1.397 . S
C1403 C1408 1.363 . S
C1404 H1381 0.950 . S
C1404 C1403 1.397 . S
C1404 C1405 1.334 . S
C1405 H1382 0.950 . S
C1405 C1404 1.334 . S
C1405 C1406 1.287 . S
C1406 C1405 1.287 . S
C1406 C1407 1.524 . S
C1406 H1425 0.913 . S
C1407 H1383 0.950 . S
C1407 C1406 1.524 . S
C1407 C1408 1.415 . S
C1408 H1384 0.950 . S
C1408 C1403 1.363 . S
C1408 C1407 1.415 . S
C1409 H1385 0.951 . S
C1409 C1410 1.366 . S
C1409 C1411 1.388 . S
C1410 C1409 1.366 . S
C1410 C1414 1.385 . S
C1411 H1386 0.951 . S
C1411 C1409 1.388 . S
C1411 C1412 1.366 . S
C1412 C1411 1.366 . S
C1412 C1413 1.414 . S
C1412 C1415 1.499 . S
C1413 H1387 0.950 . S
C1413 C1412 1.414 . S
C1413 C1414 1.374 . S
C1414 H1388 0.950 . S
C1414 C1410 1.385 . S
C1414 C1413 1.374 . S
C1415 C1412 1.499 . S
C1415 C1416 1.373 . S
C1415 C1417 1.389 . S
C1416 H1389 0.950 . S
C1416 C1402 1.377 . S
C1416 C1415 1.373 . S
C1417 C1401 1.377 . S
C1417 C1415 1.389 . S
C1417 C1418 1.524 . S
C1418 C1417 1.524 . S
C1418 C1419 1.397 . S
C1418 C1423 1.363 . S
C1419 H1390 0.950 . S
C1419 C1418 1.397 . S
C1419 C1420 1.334 . S
C1420 H1391 0.950 . S
C1420 C1419 1.334 . S
C1420 C1421 1.287 . S
C1421 C1420 1.287 . S
C1421 C1422 1.524 . S
C1421 H1424 0.999 . S
C1422 H1392 0.950 . S
C1422 C1421 1.524 . S
C1422 C1423 1.415 . S
C1423 H1393 0.950 . S
C1423 C1418 1.363 . S
C1423 C1422 1.415 . S
H1424 C1421 0.999 . S
H1425 C1406 0.913 . S
H1426 C1444 0.951 . S
H1427 C1446 0.951 . S
H1428 C1448 0.950 . S
H1429 C1449 0.950 . S
H1430 C1451 0.950 . S
H1431 C1454 0.950 . S
H1432 C1455 0.950 . S
H1433 C1457 0.950 . S
H1434 C1458 0.950 . S
H1435 C1459 0.951 . S
H1436 C1461 0.951 . S
H1437 C1463 0.950 . S
H1438 C1464 0.950 . S
H1439 C1466 0.950 . S
H1440 C1469 0.950 . S
H1441 C1470 0.950 . S
H1442 C1472 0.950 . S
H1443 C1473 0.950 . S
C1444 H1426 0.951 . S
C1444 C1445 1.366 . S
C1444 C1446 1.388 . S
C1445 C1444 1.366 . S
C1445 C1449 1.385 . S
C1446 H1427 0.951 . S
C1446 C1444 1.388 . S
C1446 C1447 1.366 . S
C1447 C1446 1.366 . S
C1447 C1448 1.414 . S
C1447 C1450 1.499 . S
C1448 H1428 0.950 . S
C1448 C1447 1.414 . S
C1448 C1449 1.374 . S
C1449 H1429 0.950 . S
C1449 C1445 1.385 . S
C1449 C1448 1.374 . S
C1450 C1447 1.499 . S
C1450 C1451 1.373 . S
C1450 C1452 1.389 . S
C1451 H1430 0.950 . S
C1451 C1450 1.373 . S
C1451 C1467 1.377 . S
C1452 C1450 1.389 . S
C1452 C1453 1.524 . S
C1452 C1466 1.377 . S
C1453 C1452 1.524 . S
C1453 C1454 1.397 . S
C1453 C1458 1.363 . S
C1454 H1431 0.950 . S
C1454 C1453 1.397 . S
C1454 C1455 1.334 . S
C1455 H1432 0.950 . S
C1455 C1454 1.334 . S
C1455 C1456 1.287 . S
C1456 C1455 1.287 . S
C1456 C1457 1.524 . S
C1456 H1475 0.913 . S
C1457 H1433 0.950 . S
C1457 C1456 1.524 . S
C1457 C1458 1.415 . S
C1458 H1434 0.950 . S
C1458 C1453 1.363 . S
C1458 C1457 1.415 . S
C1459 H1435 0.951 . S
C1459 C1460 1.366 . S
C1459 C1461 1.388 . S
C1460 C1459 1.366 . S
C1460 C1464 1.385 . S
C1461 H1436 0.951 . S
C1461 C1459 1.388 . S
C1461 C1462 1.366 . S
C1462 C1461 1.366 . S
C1462 C1463 1.414 . S
C1462 C1465 1.499 . S
C1463 H1437 0.950 . S
C1463 C1462 1.414 . S
C1463 C1464 1.374 . S
C1464 H1438 0.950 . S
C1464 C1460 1.385 . S
C1464 C1463 1.374 . S
C1465 C1462 1.499 . S
C1465 C1466 1.373 1_565 S
C1465 C1467 1.389 1_565 S
C1466 H1439 0.950 . S
C1466 C1452 1.377 . S
C1466 C1465 1.373 1_545 S
C1467 C1451 1.377 . S
C1467 C1465 1.389 1_545 S
C1467 C1468 1.524 1_545 S
C1468 C1467 1.524 1_565 S
C1468 C1469 1.397 . S
C1468 C1473 1.363 1_565 S
C1469 H1440 0.950 . S
C1469 C1468 1.397 . S
C1469 C1470 1.334 . S
C1470 H1441 0.950 . S
C1470 C1469 1.334 . S
C1470 C1471 1.287 . S
C1471 C1470 1.287 . S
C1471 C1472 1.524 . S
C1471 H1474 0.999 . S
C1472 H1442 0.950 . S
C1472 C1471 1.524 . S
C1472 C1473 1.415 1_565 S
C1473 H1443 0.950 . S
C1473 C1468 1.363 1_545 S
C1473 C1472 1.415 1_545 S
H1474 C1471 0.999 . S
H1475 C1456 0.913 . S
H1476 C1494 0.951 . S
H1477 C1496 0.951 . S
H1478 C1498 0.950 . S
H1479 C1499 0.950 . S
H1480 C1501 0.950 . S
H1481 C1504 0.950 . S
H1482 C1505 0.950 . S
H1483 C1507 0.950 . S
H1484 C1508 0.950 . S
H1485 C1509 0.951 . S
H1486 C1511 0.951 . S
H1487 C1513 0.950 . S
H1488 C1514 0.950 . S
H1489 C1516 0.950 . S
H1490 C1519 0.950 . S
H1491 C1520 0.950 . S
H1492 C1522 0.950 . S
H1493 C1523 0.950 . S
C1494 H1476 0.951 . S
C1494 C1495 1.366 . S
C1494 C1496 1.388 . S
C1495 C1494 1.366 . S
C1495 C1499 1.385 . S
C1496 H1477 0.951 . S
C1496 C1494 1.388 . S
C1496 C1497 1.366 . S
C1497 C1496 1.366 . S
C1497 C1498 1.414 . S
C1497 C1500 1.499 . S
C1498 H1478 0.950 . S
C1498 C1497 1.414 . S
C1498 C1499 1.374 . S
C1499 H1479 0.950 . S
C1499 C1495 1.385 . S
C1499 C1498 1.374 . S
C1500 C1497 1.499 . S
C1500 C1501 1.373 . S
C1500 C1502 1.389 . S
C1501 H1480 0.950 . S
C1501 C1500 1.373 . S
C1501 C1517 1.377 . S
C1502 C1500 1.389 . S
C1502 C1503 1.524 . S
C1502 C1516 1.377 . S
C1503 C1502 1.524 . S
C1503 C1504 1.397 . S
C1503 C1508 1.363 . S
C1504 H1481 0.950 . S
C1504 C1503 1.397 . S
C1504 C1505 1.334 . S
C1505 H1482 0.950 . S
C1505 C1504 1.334 . S
C1505 C1506 1.287 . S
C1506 C1505 1.287 . S
C1506 C1507 1.524 . S
C1506 H1525 0.913 . S
C1507 H1483 0.950 . S
C1507 C1506 1.524 . S
C1507 C1508 1.415 . S
C1508 H1484 0.950 . S
C1508 C1503 1.363 . S
C1508 C1507 1.415 . S
C1509 H1485 0.951 . S
C1509 C1510 1.366 . S
C1509 C1511 1.388 . S
C1510 C1509 1.366 . S
C1510 C1514 1.385 . S
C1511 H1486 0.951 . S
C1511 C1509 1.388 . S
C1511 C1512 1.366 . S
C1512 C1511 1.366 . S
C1512 C1513 1.414 . S
C1512 C1515 1.499 . S
C1513 H1487 0.950 . S
C1513 C1512 1.414 . S
C1513 C1514 1.374 . S
C1514 H1488 0.950 . S
C1514 C1510 1.385 . S
C1514 C1513 1.374 . S
C1515 C1512 1.499 . S
C1515 C1516 1.373 . S
C1515 C1517 1.389 . S
C1516 H1489 0.950 . S
C1516 C1502 1.377 . S
C1516 C1515 1.373 . S
C1517 C1501 1.377 . S
C1517 C1515 1.389 . S
C1517 C1518 1.524 . S
C1518 C1517 1.524 . S
C1518 C1519 1.397 . S
C1518 C1523 1.363 . S
C1519 H1490 0.950 . S
C1519 C1518 1.397 . S
C1519 C1520 1.334 . S
C1520 H1491 0.950 . S
C1520 C1519 1.334 . S
C1520 C1521 1.287 . S
C1521 C1520 1.287 . S
C1521 C1522 1.524 . S
C1521 H1524 0.999 . S
C1522 H1492 0.950 . S
C1522 C1521 1.524 . S
C1522 C1523 1.415 . S
C1523 H1493 0.950 . S
C1523 C1518 1.363 . S
C1523 C1522 1.415 . S
H1524 C1521 0.999 . S
H1525 C1506 0.913 . S
H1526 C1544 0.951 . S
H1527 C1546 0.951 . S
H1528 C1548 0.950 . S
H1529 C1549 0.950 . S
H1530 C1551 0.948 1_556 S
H1531 C1554 0.950 . S
H1532 C1555 0.950 . S
H1533 C1557 0.950 . S
H1534 C1558 0.950 . S
H1535 C1559 0.951 . S
H1536 C1561 0.951 . S
H1537 C1563 0.950 . S
H1538 C1564 0.950 . S
H1539 C1566 0.950 . S
H1540 C1569 0.950 . S
H1541 C1570 0.950 . S
H1542 C1572 0.950 . S
H1543 C1573 0.950 . S
C1544 H1526 0.951 . S
C1544 C1545 1.366 . S
C1544 C1546 1.388 . S
C1545 C1544 1.366 . S
C1545 C1549 1.385 . S
C1546 H1527 0.951 . S
C1546 C1544 1.388 . S
C1546 C1547 1.366 . S
C1547 C1546 1.366 . S
C1547 C1548 1.414 . S
C1547 C1550 1.499 . S
C1548 H1528 0.950 . S
C1548 C1547 1.414 . S
C1548 C1549 1.374 . S
C1549 H1529 0.950 . S
C1549 C1545 1.385 . S
C1549 C1548 1.374 . S
C1550 C1547 1.499 . S
C1550 C1551 1.406 . S
C1550 C1552 1.389 . S
C1551 H1530 0.948 1_554 S
C1551 C1550 1.406 . S
C1551 C1567 1.347 1_554 S
C1552 C1550 1.389 . S
C1552 C1553 1.524 . S
C1552 C1566 1.377 . S
C1553 C1552 1.524 . S
C1553 C1554 1.397 . S
C1553 C1558 1.363 . S
C1554 H1531 0.950 . S
C1554 C1553 1.397 . S
C1554 C1555 1.334 . S
C1555 H1532 0.950 . S
C1555 C1554 1.334 . S
C1555 C1556 1.287 . S
C1556 C1555 1.287 . S
C1556 C1557 1.524 . S
C1556 H1575 0.913 . S
C1557 H1533 0.950 . S
C1557 C1556 1.524 . S
C1557 C1558 1.415 . S
C1558 H1534 0.950 . S
C1558 C1553 1.363 . S
C1558 C1557 1.415 . S
C1559 H1535 0.951 . S
C1559 C1560 1.366 . S
C1559 C1561 1.388 . S
C1560 C1559 1.366 . S
C1560 C1564 1.385 . S
C1561 H1536 0.951 . S
C1561 C1559 1.388 . S
C1561 C1562 1.366 . S
C1562 C1561 1.366 . S
C1562 C1563 1.414 . S
C1562 C1565 1.499 . S
C1563 H1537 0.950 . S
C1563 C1562 1.414 . S
C1563 C1564 1.374 . S
C1564 H1538 0.950 . S
C1564 C1560 1.385 . S
C1564 C1563 1.374 . S
C1565 C1562 1.499 . S
C1565 C1566 1.373 1_556 S
C1565 C1567 1.389 . S
C1566 H1539 0.950 . S
C1566 C1552 1.377 . S
C1566 C1565 1.373 1_554 S
C1567 C1551 1.347 1_556 S
C1567 C1565 1.389 . S
C1567 C1568 1.524 . S
C1568 C1567 1.524 . S
C1568 C1569 1.397 . S
C1568 C1573 1.363 . S
C1569 H1540 0.950 . S
C1569 C1568 1.397 . S
C1569 C1570 1.334 . S
C1570 H1541 0.950 . S
C1570 C1569 1.334 . S
C1570 C1571 1.287 . S
C1571 C1570 1.287 . S
C1571 C1572 1.524 . S
C1571 H1574 0.999 . S
C1572 H1542 0.950 . S
C1572 C1571 1.524 . S
C1572 C1573 1.415 . S
C1573 H1543 0.950 . S
C1573 C1568 1.363 . S
C1573 C1572 1.415 . S
H1574 C1571 0.999 . S
H1575 C1556 0.913 . S
H1576 C1594 0.951 . S
H1577 C1596 0.951 . S
H1578 C1598 0.950 . S
H1579 C1599 0.950 . S
H1580 C1601 0.951 . S
H1581 C1604 0.950 . S
H1582 C1605 0.950 . S
H1583 C1607 0.950 . S
H1584 C1608 0.950 . S
H1585 C1609 0.951 . S
H1586 C1611 0.951 . S
H1587 C1613 0.950 . S
H1588 C1614 0.950 . S
H1589 C1616 0.950 . S
H1590 C1619 0.950 . S
H1591 C1620 0.950 . S
H1592 C1622 0.950 . S
H1593 C1623 0.950 . S
C1594 H1576 0.951 . S
C1594 C1595 1.366 . S
C1594 C1596 1.388 . S
C1595 C1594 1.366 . S
C1595 C1599 1.385 . S
C1596 H1577 0.951 . S
C1596 C1594 1.388 . S
C1596 C1597 1.366 . S
C1597 C1596 1.366 . S
C1597 C1598 1.414 . S
C1597 C1600 1.499 . S
C1598 H1578 0.950 . S
C1598 C1597 1.414 . S
C1598 C1599 1.374 . S
C1599 H1579 0.950 . S
C1599 C1595 1.385 . S
C1599 C1598 1.374 . S
C1600 C1597 1.499 . S
C1600 C1601 1.373 1_556 S
C1600 C1602 1.389 . S
C1601 H1580 0.951 . S
C1601 C1600 1.373 1_554 S
C1601 C1617 1.377 . S
C1602 C1600 1.389 . S
C1602 C1603 1.524 . S
C1602 C1616 1.377 1_556 S
C1603 C1602 1.524 . S
C1603 C1604 1.397 . S
C1603 C1608 1.363 . S
C1604 H1581 0.950 . S
C1604 C1603 1.397 . S
C1604 C1605 1.334 . S
C1605 H1582 0.950 . S
C1605 C1604 1.334 . S
C1605 C1606 1.287 . S
C1606 C1605 1.287 . S
C1606 C1607 1.524 . S
C1606 H1625 0.913 . S
C1607 H1583 0.950 . S
C1607 C1606 1.524 . S
C1607 C1608 1.415 . S
C1608 H1584 0.950 . S
C1608 C1603 1.363 . S
C1608 C1607 1.415 . S
C1609 H1585 0.951 . S
C1609 C1610 1.366 . S
C1609 C1611 1.388 . S
C1610 C1609 1.366 . S
C1610 C1614 1.385 . S
C1611 H1586 0.951 . S
C1611 C1609 1.388 . S
C1611 C1612 1.366 . S
C1612 C1611 1.366 . S
C1612 C1613 1.414 . S
C1612 C1615 1.499 . S
C1613 H1587 0.950 . S
C1613 C1612 1.414 . S
C1613 C1614 1.374 . S
C1614 H1588 0.950 . S
C1614 C1610 1.385 . S
C1614 C1613 1.374 . S
C1615 C1612 1.499 . S
C1615 C1616 1.373 . S
C1615 C1617 1.389 . S
C1616 H1589 0.950 . S
C1616 C1602 1.377 1_554 S
C1616 C1615 1.373 . S
C1617 C1601 1.377 . S
C1617 C1615 1.389 . S
C1617 C1618 1.524 . S
C1618 C1617 1.524 . S
C1618 C1619 1.397 . S
C1618 C1623 1.363 . S
C1619 H1590 0.950 . S
C1619 C1618 1.397 . S
C1619 C1620 1.334 . S
C1620 H1591 0.950 . S
C1620 C1619 1.334 . S
C1620 C1621 1.287 . S
C1621 C1620 1.287 . S
C1621 C1622 1.524 . S
C1621 H1624 0.999 . S
C1622 H1592 0.950 . S
C1622 C1621 1.524 . S
C1622 C1623 1.415 . S
C1623 H1593 0.950 . S
C1623 C1618 1.363 . S
C1623 C1622 1.415 . S
H1624 C1621 0.999 . S
H1625 C1606 0.913 . S
H1626 C1644 0.951 . S
H1627 C1646 0.951 . S
H1628 C1648 0.950 . S
H1629 C1649 0.950 . S
H1630 C1651 0.950 . S
H1631 C1654 0.950 . S
H1632 C1655 0.950 . S
H1633 C1657 0.950 . S
H1634 C1658 0.950 . S
H1635 C1659 0.951 . S
H1636 C1661 0.951 . S
H1637 C1663 0.950 . S
H1638 C1664 0.950 . S
H1639 C1666 0.950 . S
H1640 C1669 0.950 . S
H1641 C1670 0.950 . S
H1642 C1672 0.950 . S
H1643 C1673 0.950 . S
C1644 H1626 0.951 . S
C1644 C1645 1.366 . S
C1644 C1646 1.388 . S
C1645 C1644 1.366 . S
C1645 C1649 1.385 . S
C1646 H1627 0.951 . S
C1646 C1644 1.388 . S
C1646 C1647 1.366 . S
C1647 C1646 1.366 . S
C1647 C1648 1.414 . S
C1647 C1650 1.499 . S
C1648 H1628 0.950 . S
C1648 C1647 1.414 . S
C1648 C1649 1.374 . S
C1649 H1629 0.950 . S
C1649 C1645 1.385 . S
C1649 C1648 1.374 . S
C1650 C1647 1.499 . S
C1650 C1651 1.373 . S
C1650 C1652 1.389 . S
C1651 H1630 0.950 . S
C1651 C1650 1.373 . S
C1651 C1667 1.377 . S
C1652 C1650 1.389 . S
C1652 C1653 1.524 . S
C1652 C1666 1.377 . S
C1653 C1652 1.524 . S
C1653 C1654 1.397 . S
C1653 C1658 1.363 . S
C1654 H1631 0.950 . S
C1654 C1653 1.397 . S
C1654 C1655 1.334 . S
C1655 H1632 0.950 . S
C1655 C1654 1.334 . S
C1655 C1656 1.287 . S
C1656 C1655 1.287 . S
C1656 C1657 1.524 . S
C1656 H1675 0.913 . S
C1657 H1633 0.950 . S
C1657 C1656 1.524 . S
C1657 C1658 1.415 . S
C1658 H1634 0.950 . S
C1658 C1653 1.363 . S
C1658 C1657 1.415 . S
C1659 H1635 0.951 . S
C1659 C1660 1.366 . S
C1659 C1661 1.388 . S
C1660 C1659 1.366 . S
C1660 C1664 1.385 . S
C1661 H1636 0.951 . S
C1661 C1659 1.388 . S
C1661 C1662 1.366 . S
C1662 C1661 1.366 . S
C1662 C1663 1.414 . S
C1662 C1665 1.499 . S
C1663 H1637 0.950 . S
C1663 C1662 1.414 . S
C1663 C1664 1.374 . S
C1664 H1638 0.950 . S
C1664 C1660 1.385 . S
C1664 C1663 1.374 . S
C1665 C1662 1.499 . S
C1665 C1666 1.373 . S
C1665 C1667 1.389 . S
C1666 H1639 0.950 . S
C1666 C1652 1.377 . S
C1666 C1665 1.373 . S
C1667 C1651 1.377 . S
C1667 C1665 1.389 . S
C1667 C1668 1.524 . S
C1668 C1667 1.524 . S
C1668 C1669 1.397 . S
C1668 C1673 1.363 . S
C1669 H1640 0.950 . S
C1669 C1668 1.397 . S
C1669 C1670 1.334 . S
C1670 H1641 0.950 . S
C1670 C1669 1.334 . S
C1670 C1671 1.287 . S
C1671 C1670 1.287 . S
C1671 C1672 1.524 . S
C1671 H1674 0.999 . S
C1672 H1642 0.950 . S
C1672 C1671 1.524 . S
C1672 C1673 1.415 . S
C1673 H1643 0.950 . S
C1673 C1668 1.363 . S
C1673 C1672 1.415 . S
H1674 C1671 0.999 . S
H1675 C1656 0.913 . S
H1676 C1694 0.951 . S
H1677 C1696 0.951 . S
H1678 C1698 0.950 . S
H1679 C1699 0.950 . S
H1680 C1701 0.950 . S
H1681 C1704 0.950 . S
H1682 C1705 0.950 . S
H1683 C1707 0.950 . S
H1684 C1708 0.950 . S
H1685 C1709 0.951 . S
H1686 C1711 0.951 . S
H1687 C1713 0.950 . S
H1688 C1714 0.950 . S
H1689 C1716 0.950 . S
H1690 C1719 0.950 . S
H1691 C1720 0.950 . S
H1692 C1722 0.950 . S
H1693 C1723 0.950 . S
C1694 H1676 0.951 . S
C1694 C1695 1.366 . S
C1694 C1696 1.388 . S
C1695 C1694 1.366 . S
C1695 C1699 1.385 . S
C1696 H1677 0.951 . S
C1696 C1694 1.388 . S
C1696 C1697 1.366 . S
C1697 C1696 1.366 . S
C1697 C1698 1.414 . S
C1697 C1700 1.499 . S
C1698 H1678 0.950 . S
C1698 C1697 1.414 . S
C1698 C1699 1.374 . S
C1699 H1679 0.950 . S
C1699 C1695 1.385 . S
C1699 C1698 1.374 . S
C1700 C1697 1.499 . S
C1700 C1701 1.373 . S
C1700 C1702 1.389 . S
C1701 H1680 0.950 . S
C1701 C1700 1.373 . S
C1701 C1717 1.377 . S
C1702 C1700 1.389 . S
C1702 C1703 1.524 . S
C1702 C1716 1.377 . S
C1703 C1702 1.524 . S
C1703 C1704 1.397 . S
C1703 C1708 1.363 . S
C1704 H1681 0.950 . S
C1704 C1703 1.397 . S
C1704 C1705 1.334 . S
C1705 H1682 0.950 . S
C1705 C1704 1.334 . S
C1705 C1706 1.287 . S
C1706 C1705 1.287 . S
C1706 C1707 1.524 . S
C1706 H1725 0.913 . S
C1707 H1683 0.950 . S
C1707 C1706 1.524 . S
C1707 C1708 1.415 . S
C1708 H1684 0.950 . S
C1708 C1703 1.363 . S
C1708 C1707 1.415 . S
C1709 H1685 0.951 . S
C1709 C1710 1.366 . S
C1709 C1711 1.388 . S
C1710 C1709 1.366 . S
C1710 C1714 1.385 . S
C1711 H1686 0.951 . S
C1711 C1709 1.388 . S
C1711 C1712 1.366 . S
C1712 C1711 1.366 . S
C1712 C1713 1.414 . S
C1712 C1715 1.499 . S
C1713 H1687 0.950 . S
C1713 C1712 1.414 . S
C1713 C1714 1.374 . S
C1714 H1688 0.950 . S
C1714 C1710 1.385 . S
C1714 C1713 1.374 . S
C1715 C1712 1.499 . S
C1715 C1716 1.373 . S
C1715 C1717 1.389 . S
C1716 H1689 0.950 . S
C1716 C1702 1.377 . S
C1716 C1715 1.373 . S
C1717 C1701 1.377 . S
C1717 C1715 1.389 . S
C1717 C1718 1.524 . S
C1718 C1717 1.524 . S
C1718 C1719 1.397 . S
C1718 C1723 1.363 . S
C1719 H1690 0.950 . S
C1719 C1718 1.397 . S
C1719 C1720 1.334 . S
C1720 H1691 0.950 . S
C1720 C1719 1.334 . S
C1720 C1721 1.287 . S
C1721 C1720 1.287 . S
C1721 C1722 1.524 . S
C1721 H1724 0.999 . S
C1722 H1692 0.950 . S
C1722 C1721 1.524 . S
C1722 C1723 1.415 . S
C1723 H1693 0.950 . S
C1723 C1718 1.363 . S
C1723 C1722 1.415 . S
H1724 C1721 0.999 . S
H1725 C1706 0.913 . S
H1726 C1744 0.951 . S
H1727 C1746 0.951 . S
H1728 C1748 0.950 . S
H1729 C1749 0.950 . S
H1730 C1751 0.950 . S
H1731 C1754 0.950 . S
H1732 C1755 0.950 1_455 S
H1733 C1757 0.950 . S
H1734 C1758 0.950 . S
H1735 C1759 0.951 . S
H1736 C1761 0.951 . S
H1737 C1763 0.950 . S
H1738 C1764 0.950 . S
H1739 C1766 0.950 . S
H1740 C1769 0.950 . S
H1741 C1770 0.950 1_655 S
H1742 C1772 0.950 . S
H1743 C1773 0.950 . S
C1744 H1726 0.951 . S
C1744 C1745 1.366 . S
C1744 C1746 1.388 . S
C1745 C1744 1.366 . S
C1745 C1749 1.385 . S
C1746 H1727 0.951 . S
C1746 C1744 1.388 . S
C1746 C1747 1.366 . S
C1747 C1746 1.366 . S
C1747 C1748 1.414 . S
C1747 C1750 1.499 . S
C1748 H1728 0.950 . S
C1748 C1747 1.414 . S
C1748 C1749 1.374 . S
C1749 H1729 0.950 . S
C1749 C1745 1.385 . S
C1749 C1748 1.374 . S
C1750 C1747 1.499 . S
C1750 C1751 1.373 . S
C1750 C1752 1.389 1_455 S
C1751 H1730 0.950 . S
C1751 C1750 1.373 . S
C1751 C1767 1.377 . S
C1752 C1750 1.389 1_655 S
C1752 C1753 1.524 . S
C1752 C1766 1.377 . S
C1753 C1752 1.524 . S
C1753 C1754 1.397 1_655 S
C1753 C1758 1.363 . S
C1754 H1731 0.950 . S
C1754 C1753 1.397 1_455 S
C1754 C1755 1.334 1_455 S
C1755 H1732 0.950 1_655 S
C1755 C1754 1.334 1_655 S
C1755 C1756 1.287 . S
C1756 C1755 1.287 . S
C1756 C1757 1.524 . S
C1756 H1775 0.913 . S
C1757 H1733 0.950 . S
C1757 C1756 1.524 . S
C1757 C1758 1.415 . S
C1758 H1734 0.950 . S
C1758 C1753 1.363 . S
C1758 C1757 1.415 . S
C1759 H1735 0.951 . S
C1759 C1760 1.366 . S
C1759 C1761 1.388 . S
C1760 C1759 1.366 . S
C1760 C1764 1.385 . S
C1761 H1736 0.951 . S
C1761 C1759 1.388 . S
C1761 C1762 1.366 . S
C1762 C1761 1.366 . S
C1762 C1763 1.414 . S
C1762 C1765 1.499 . S
C1763 H1737 0.950 . S
C1763 C1762 1.414 . S
C1763 C1764 1.374 . S
C1764 H1738 0.950 . S
C1764 C1760 1.385 . S
C1764 C1763 1.374 . S
C1765 C1762 1.499 . S
C1765 C1766 1.373 . S
C1765 C1767 1.389 1_655 S
C1766 H1739 0.950 . S
C1766 C1752 1.377 . S
C1766 C1765 1.373 . S
C1767 C1751 1.377 . S
C1767 C1765 1.389 1_455 S
C1767 C1768 1.524 . S
C1768 C1767 1.524 . S
C1768 C1769 1.397 1_455 S
C1768 C1773 1.363 . S
C1769 H1740 0.950 . S
C1769 C1768 1.397 1_655 S
C1769 C1770 1.334 1_655 S
C1770 H1741 0.950 1_455 S
C1770 C1769 1.334 1_455 S
C1770 C1771 1.287 . S
C1771 C1770 1.287 . S
C1771 C1772 1.524 . S
C1771 H1774 0.999 . S
C1772 H1742 0.950 . S
C1772 C1771 1.524 . S
C1772 C1773 1.415 . S
C1773 H1743 0.950 . S
C1773 C1768 1.363 . S
C1773 C1772 1.415 . S
H1774 C1771 0.999 . S
H1775 C1756 0.913 . S
H1776 C1794 0.951 . S
H1777 C1796 0.951 . S
H1778 C1798 0.950 . S
H1779 C1799 0.950 . S
H1780 C1801 0.950 . S
H1781 C1804 0.950 . S
H1782 C1805 0.950 . S
H1783 C1807 0.950 . S
H1784 C1808 0.950 . S
H1785 C1809 0.951 . S
H1786 C1811 0.951 . S
H1787 C1813 0.950 . S
H1788 C1814 0.950 . S
H1789 C1816 0.951 1_655 S
H1790 C1819 0.950 . S
H1791 C1820 0.950 . S
H1792 C1822 0.950 . S
H1793 C1823 0.950 . S
C1794 H1776 0.951 . S
C1794 C1795 1.366 . S
C1794 C1796 1.388 . S
C1795 C1794 1.366 . S
C1795 C1799 1.385 . S
C1796 H1777 0.951 . S
C1796 C1794 1.388 . S
C1796 C1797 1.366 . S
C1797 C1796 1.366 . S
C1797 C1798 1.414 . S
C1797 C1800 1.499 . S
C1798 H1778 0.950 . S
C1798 C1797 1.414 . S
C1798 C1799 1.374 . S
C1799 H1779 0.950 . S
C1799 C1795 1.385 . S
C1799 C1798 1.374 . S
C1800 C1797 1.499 . S
C1800 C1801 1.373 . S
C1800 C1802 1.389 . S
C1801 H1780 0.950 . S
C1801 C1800 1.373 . S
C1801 C1817 1.377 1_455 S
C1802 C1800 1.389 . S
C1802 C1803 1.524 . S
C1802 C1816 1.373 . S
C1803 C1802 1.524 . S
C1803 C1804 1.397 . S
C1803 C1808 1.363 . S
C1804 H1781 0.950 . S
C1804 C1803 1.397 . S
C1804 C1805 1.334 . S
C1805 H1782 0.950 . S
C1805 C1804 1.334 . S
C1805 C1806 1.287 . S
C1806 C1805 1.287 . S
C1806 C1807 1.524 . S
C1806 H1825 0.913 . S
C1807 H1783 0.950 . S
C1807 C1806 1.524 . S
C1807 C1808 1.415 . S
C1808 H1784 0.950 . S
C1808 C1803 1.363 . S
C1808 C1807 1.415 . S
C1809 H1785 0.951 . S
C1809 C1810 1.366 . S
C1809 C1811 1.388 . S
C1810 C1809 1.366 . S
C1810 C1814 1.385 . S
C1811 H1786 0.951 . S
C1811 C1809 1.388 . S
C1811 C1812 1.366 . S
C1812 C1811 1.366 . S
C1812 C1813 1.414 . S
C1812 C1815 1.499 . S
C1813 H1787 0.950 . S
C1813 C1812 1.414 . S
C1813 C1814 1.374 . S
C1814 H1788 0.950 . S
C1814 C1810 1.385 . S
C1814 C1813 1.374 . S
C1815 C1812 1.499 . S
C1815 C1816 1.376 1_655 S
C1815 C1817 1.389 . S
C1816 H1789 0.951 1_455 S
C1816 C1802 1.373 . S
C1816 C1815 1.376 1_455 S
C1817 C1801 1.377 1_655 S
C1817 C1815 1.389 . S
C1817 C1818 1.524 . S
C1818 C1817 1.524 . S
C1818 C1819 1.397 . S
C1818 C1823 1.363 . S
C1819 H1790 0.950 . S
C1819 C1818 1.397 . S
C1819 C1820 1.334 . S
C1820 H1791 0.950 . S
C1820 C1819 1.334 . S
C1820 C1821 1.287 . S
C1821 C1820 1.287 . S
C1821 C1822 1.524 . S
C1821 H1824 0.999 . S
C1822 H1792 0.950 . S
C1822 C1821 1.524 . S
C1822 C1823 1.415 . S
C1823 H1793 0.950 . S
C1823 C1818 1.363 . S
C1823 C1822 1.415 . S
H1824 C1821 0.999 . S
H1825 C1806 0.913 . S
H1826 C1844 0.951 . S
H1827 C1846 0.951 . S
H1828 C1848 0.950 . S
H1829 C1849 0.950 . S
H1830 C1851 0.950 . S
H1831 C1854 0.950 . S
H1832 C1855 0.950 . S
H1833 C1857 0.950 . S
H1834 C1858 0.950 . S
H1835 C1859 0.951 . S
H1836 C1861 0.951 . S
H1837 C1863 0.950 . S
H1838 C1864 0.950 . S
H1839 C1866 0.950 . S
H1840 C1869 0.950 . S
H1841 C1870 0.950 . S
H1842 C1872 0.950 . S
H1843 C1873 0.950 . S
C1844 H1826 0.951 . S
C1844 C1845 1.366 . S
C1844 C1846 1.388 . S
C1845 C1844 1.366 . S
C1845 C1849 1.385 . S
C1846 H1827 0.951 . S
C1846 C1844 1.388 . S
C1846 C1847 1.366 . S
C1847 C1846 1.366 . S
C1847 C1848 1.414 . S
C1847 C1850 1.499 . S
C1848 H1828 0.950 . S
C1848 C1847 1.414 . S
C1848 C1849 1.374 . S
C1849 H1829 0.950 . S
C1849 C1845 1.385 . S
C1849 C1848 1.374 . S
C1850 C1847 1.499 . S
C1850 C1851 1.373 . S
C1850 C1852 1.389 . S
C1851 H1830 0.950 . S
C1851 C1850 1.373 . S
C1851 C1867 1.377 . S
C1852 C1850 1.389 . S
C1852 C1853 1.524 . S
C1852 C1866 1.377 . S
C1853 C1852 1.524 . S
C1853 C1854 1.397 . S
C1853 C1858 1.363 . S
C1854 H1831 0.950 . S
C1854 C1853 1.397 . S
C1854 C1855 1.334 . S
C1855 H1832 0.950 . S
C1855 C1854 1.334 . S
C1855 C1856 1.287 . S
C1856 C1855 1.287 . S
C1856 C1857 1.524 . S
C1856 H1875 0.913 . S
C1857 H1833 0.950 . S
C1857 C1856 1.524 . S
C1857 C1858 1.415 . S
C1858 H1834 0.950 . S
C1858 C1853 1.363 . S
C1858 C1857 1.415 . S
C1859 H1835 0.951 . S
C1859 C1860 1.366 . S
C1859 C1861 1.388 . S
C1860 C1859 1.366 . S
C1860 C1864 1.385 . S
C1861 H1836 0.951 . S
C1861 C1859 1.388 . S
C1861 C1862 1.366 . S
C1862 C1861 1.366 . S
C1862 C1863 1.414 . S
C1862 C1865 1.499 . S
C1863 H1837 0.950 . S
C1863 C1862 1.414 . S
C1863 C1864 1.374 . S
C1864 H1838 0.950 . S
C1864 C1860 1.385 . S
C1864 C1863 1.374 . S
C1865 C1862 1.499 . S
C1865 C1866 1.373 . S
C1865 C1867 1.389 . S
C1866 H1839 0.950 . S
C1866 C1852 1.377 . S
C1866 C1865 1.373 . S
C1867 C1851 1.377 . S
C1867 C1865 1.389 . S
C1867 C1868 1.524 . S
C1868 C1867 1.524 . S
C1868 C1869 1.397 . S
C1868 C1873 1.363 . S
C1869 H1840 0.950 . S
C1869 C1868 1.397 . S
C1869 C1870 1.334 . S
C1870 H1841 0.950 . S
C1870 C1869 1.334 . S
C1870 C1871 1.287 . S
C1871 C1870 1.287 . S
C1871 C1872 1.524 . S
C1871 H1874 0.999 . S
C1872 H1842 0.950 . S
C1872 C1871 1.524 . S
C1872 C1873 1.415 . S
C1873 H1843 0.950 . S
C1873 C1868 1.363 . S
C1873 C1872 1.415 . S
H1874 C1871 0.999 . S
H1875 C1856 0.913 . S
H1876 C1894 0.951 . S
H1877 C1896 0.951 . S
H1878 C1898 0.950 . S
H1879 C1899 0.950 . S
H1880 C1901 0.950 . S
H1881 C1904 0.950 . S
H1882 C1905 0.950 . S
H1883 C1907 0.950 . S
H1884 C1908 0.950 . S
H1885 C1909 0.951 . S
H1886 C1911 0.951 . S
H1887 C1913 0.950 . S
H1888 C1914 0.950 . S
H1889 C1916 0.950 . S
H1890 C1919 0.950 . S
H1891 C1920 0.950 . S
H1892 C1922 0.950 . S
H1893 C1923 0.950 . S
C1894 H1876 0.951 . S
C1894 C1895 1.366 . S
C1894 C1896 1.388 . S
C1895 C1894 1.366 . S
C1895 C1899 1.385 . S
C1896 H1877 0.951 . S
C1896 C1894 1.388 . S
C1896 C1897 1.366 . S
C1897 C1896 1.366 . S
C1897 C1898 1.414 . S
C1897 C1900 1.499 . S
C1898 H1878 0.950 . S
C1898 C1897 1.414 . S
C1898 C1899 1.374 . S
C1899 H1879 0.950 . S
C1899 C1895 1.385 . S
C1899 C1898 1.374 . S
C1900 C1897 1.499 . S
C1900 C1901 1.373 . S
C1900 C1902 1.389 . S
C1901 H1880 0.950 . S
C1901 C1900 1.373 . S
C1901 C1917 1.377 . S
C1902 C1900 1.389 . S
C1902 C1903 1.524 . S
C1902 C1916 1.377 . S
C1903 C1902 1.524 . S
C1903 C1904 1.397 . S
C1903 C1908 1.363 . S
C1904 H1881 0.950 . S
C1904 C1903 1.397 . S
C1904 C1905 1.334 . S
C1905 H1882 0.950 . S
C1905 C1904 1.334 . S
C1905 C1906 1.287 . S
C1906 C1905 1.287 . S
C1906 C1907 1.524 . S
C1906 H1925 0.913 . S
C1907 H1883 0.950 . S
C1907 C1906 1.524 . S
C1907 C1908 1.415 . S
C1908 H1884 0.950 . S
C1908 C1903 1.363 . S
C1908 C1907 1.415 . S
C1909 H1885 0.951 . S
C1909 C1910 1.366 . S
C1909 C1911 1.388 . S
C1910 C1909 1.366 . S
C1910 C1914 1.385 . S
C1911 H1886 0.951 . S
C1911 C1909 1.388 . S
C1911 C1912 1.366 . S
C1912 C1911 1.366 . S
C1912 C1913 1.414 . S
C1912 C1915 1.499 . S
C1913 H1887 0.950 . S
C1913 C1912 1.414 . S
C1913 C1914 1.374 . S
C1914 H1888 0.950 . S
C1914 C1910 1.385 . S
C1914 C1913 1.374 . S
C1915 C1912 1.499 . S
C1915 C1916 1.373 . S
C1915 C1917 1.389 . S
C1916 H1889 0.950 . S
C1916 C1902 1.377 . S
C1916 C1915 1.373 . S
C1917 C1901 1.377 . S
C1917 C1915 1.389 . S
C1917 C1918 1.524 . S
C1918 C1917 1.524 . S
C1918 C1919 1.397 . S
C1918 C1923 1.363 . S
C1919 H1890 0.950 . S
C1919 C1918 1.397 . S
C1919 C1920 1.334 . S
C1920 H1891 0.950 . S
C1920 C1919 1.334 . S
C1920 C1921 1.287 . S
C1921 C1920 1.287 . S
C1921 C1922 1.524 . S
C1921 H1924 0.999 . S
C1922 H1892 0.950 . S
C1922 C1921 1.524 . S
C1922 C1923 1.415 . S
C1923 H1893 0.950 . S
C1923 C1918 1.363 . S
C1923 C1922 1.415 . S
H1924 C1921 0.999 . S
H1925 C1906 0.913 . S
H1926 C1944 0.951 . S
H1927 C1946 0.951 . S
H1928 C1948 0.950 . S
H1929 C1949 0.950 . S
H1930 C1951 0.950 . S
H1931 C1954 0.950 1_545 S
H1932 C1955 0.944 1_545 S
H1933 C1957 0.950 . S
H1934 C1958 0.950 . S
H1935 C1959 0.951 . S
H1936 C1961 0.951 . S
H1937 C1963 0.950 . S
H1938 C1964 0.950 . S
H1939 C1966 0.950 . S
H1940 C1969 0.950 . S
H1941 C1970 0.950 . S
H1942 C1972 0.950 . S
H1943 C1973 0.950 . S
C1944 H1926 0.951 . S
C1944 C1945 1.366 . S
C1944 C1946 1.388 . S
C1945 C1944 1.366 . S
C1945 C1949 1.385 . S
C1946 H1927 0.951 . S
C1946 C1944 1.388 . S
C1946 C1947 1.366 . S
C1947 C1946 1.366 . S
C1947 C1948 1.414 . S
C1947 C1950 1.499 . S
C1948 H1928 0.950 . S
C1948 C1947 1.414 . S
C1948 C1949 1.374 . S
C1949 H1929 0.950 . S
C1949 C1945 1.385 . S
C1949 C1948 1.374 . S
C1950 C1947 1.499 . S
C1950 C1951 1.373 . S
C1950 C1952 1.389 1_545 S
C1951 H1930 0.950 . S
C1951 C1950 1.373 . S
C1951 C1967 1.377 1_545 S
C1952 C1950 1.389 1_565 S
C1952 C1953 1.524 . S
C1952 C1966 1.377 . S
C1953 C1952 1.524 . S
C1953 C1954 1.397 . S
C1953 C1958 1.363 . S
C1954 H1931 0.950 1_565 S
C1954 C1953 1.397 . S
C1954 C1955 1.334 . S
C1955 H1932 0.944 1_565 S
C1955 C1954 1.334 . S
C1955 C1956 1.287 . S
C1956 C1955 1.287 . S
C1956 C1957 1.524 . S
C1956 H1975 0.913 . S
C1957 H1933 0.950 . S
C1957 C1956 1.524 . S
C1957 C1958 1.415 . S
C1958 H1934 0.950 . S
C1958 C1953 1.363 . S
C1958 C1957 1.415 . S
C1959 H1935 0.951 . S
C1959 C1960 1.366 . S
C1959 C1961 1.388 . S
C1960 C1959 1.366 . S
C1960 C1964 1.385 . S
C1961 H1936 0.951 . S
C1961 C1959 1.388 . S
C1961 C1962 1.366 . S
C1962 C1961 1.366 . S
C1962 C1963 1.414 . S
C1962 C1965 1.499 . S
C1963 H1937 0.950 . S
C1963 C1962 1.414 . S
C1963 C1964 1.374 . S
C1964 H1938 0.950 . S
C1964 C1960 1.385 . S
C1964 C1963 1.374 . S
C1965 C1962 1.499 . S
C1965 C1966 1.373 . S
C1965 C1967 1.389 . S
C1966 H1939 0.950 . S
C1966 C1952 1.377 . S
C1966 C1965 1.373 . S
C1967 C1951 1.377 1_565 S
C1967 C1965 1.389 . S
C1967 C1968 1.524 . S
C1968 C1967 1.524 . S
C1968 C1969 1.397 . S
C1968 C1973 1.363 1_565 S
C1969 H1940 0.950 . S
C1969 C1968 1.397 . S
C1969 C1970 1.334 . S
C1970 H1941 0.950 . S
C1970 C1969 1.334 . S
C1970 C1971 1.287 1_565 S
C1971 C1970 1.287 1_545 S
C1971 C1972 1.524 . S
C1971 H1974 0.999 . S
C1972 H1942 0.950 . S
C1972 C1971 1.524 . S
C1972 C1973 1.415 . S
C1973 H1943 0.950 . S
C1973 C1968 1.363 1_545 S
C1973 C1972 1.415 . S
H1974 C1971 0.999 . S
H1975 C1956 0.913 . S
H1976 C1994 0.951 . S
H1977 C1996 0.951 . S
H1978 C1998 0.950 . S
H1979 C1999 0.950 . S
H1980 C2001 0.950 . S
H1981 C2004 0.950 . S
H1982 C2005 0.950 . S
H1983 C2007 0.950 . S
H1984 C2008 0.950 . S
H1985 C2009 0.951 . S
H1986 C2011 0.951 . S
H1987 C2013 0.950 . S
H1988 C2014 0.950 . S
H1989 C2016 0.950 . S
H1990 C2019 0.950 . S
H1991 C2020 0.950 . S
H1992 C2022 0.950 . S
H1993 C2023 0.950 . S
C1994 H1976 0.951 . S
C1994 C1995 1.366 . S
C1994 C1996 1.388 . S
C1995 C1994 1.366 . S
C1995 C1999 1.385 . S
C1996 H1977 0.951 . S
C1996 C1994 1.388 . S
C1996 C1997 1.366 . S
C1997 C1996 1.366 . S
C1997 C1998 1.414 . S
C1997 C2000 1.499 . S
C1998 H1978 0.950 . S
C1998 C1997 1.414 . S
C1998 C1999 1.374 . S
C1999 H1979 0.950 . S
C1999 C1995 1.385 . S
C1999 C1998 1.374 . S
C2000 C1997 1.499 . S
C2000 C2001 1.373 . S
C2000 C2002 1.389 . S
C2001 H1980 0.950 . S
C2001 C2000 1.373 . S
C2001 C2017 1.377 . S
C2002 C2000 1.389 . S
C2002 C2003 1.524 . S
C2002 C2016 1.377 . S
C2003 C2002 1.524 . S
C2003 C2004 1.397 . S
C2003 C2008 1.363 . S
C2004 H1981 0.950 . S
C2004 C2003 1.397 . S
C2004 C2005 1.334 . S
C2005 H1982 0.950 . S
C2005 C2004 1.334 . S
C2005 C2006 1.287 . S
C2006 C2005 1.287 . S
C2006 C2007 1.524 . S
C2006 H2025 0.913 . S
C2007 H1983 0.950 . S
C2007 C2006 1.524 . S
C2007 C2008 1.415 . S
C2008 H1984 0.950 . S
C2008 C2003 1.363 . S
C2008 C2007 1.415 . S
C2009 H1985 0.951 . S
C2009 C2010 1.366 . S
C2009 C2011 1.388 . S
C2010 C2009 1.366 . S
C2010 C2014 1.385 . S
C2011 H1986 0.951 . S
C2011 C2009 1.388 . S
C2011 C2012 1.366 . S
C2012 C2011 1.366 . S
C2012 C2013 1.414 . S
C2012 C2015 1.499 . S
C2013 H1987 0.950 . S
C2013 C2012 1.414 . S
C2013 C2014 1.374 . S
C2014 H1988 0.950 . S
C2014 C2010 1.385 . S
C2014 C2013 1.374 . S
C2015 C2012 1.499 . S
C2015 C2016 1.373 . S
C2015 C2017 1.389 . S
C2016 H1989 0.950 . S
C2016 C2002 1.377 . S
C2016 C2015 1.373 . S
C2017 C2001 1.377 . S
C2017 C2015 1.389 . S
C2017 C2018 1.524 . S
C2018 C2017 1.524 . S
C2018 C2019 1.397 . S
C2018 C2023 1.363 . S
C2019 H1990 0.950 . S
C2019 C2018 1.397 . S
C2019 C2020 1.334 . S
C2020 H1991 0.950 . S
C2020 C2019 1.334 . S
C2020 C2021 1.287 . S
C2021 C2020 1.287 . S
C2021 C2022 1.524 . S
C2021 H2024 0.999 . S
C2022 H1992 0.950 . S
C2022 C2021 1.524 . S
C2022 C2023 1.415 . S
C2023 H1993 0.950 . S
C2023 C2018 1.363 . S
C2023 C2022 1.415 . S
H2024 C2021 0.999 . S
H2025 C2006 0.913 . S
H2026 C2044 0.951 . S
H2027 C2046 0.951 . S
H2028 C2048 0.950 . S
H2029 C2049 0.950 . S
H2030 C2051 0.950 . S
H2031 C2054 0.950 . S
H2032 C2055 0.950 . S
H2033 C2057 0.950 . S
H2034 C2058 0.950 . S
H2035 C2059 0.951 . S
H2036 C2061 0.951 . S
H2037 C2063 0.950 . S
H2038 C2064 0.950 . S
H2039 C2066 0.950 . S
H2040 C2069 0.950 . S
H2041 C2070 0.950 . S
H2042 C2072 0.950 . S
H2043 C2073 0.950 . S
C2044 H2026 0.951 . S
C2044 C2045 1.366 . S
C2044 C2046 1.388 . S
C2045 C2044 1.366 . S
C2045 C2049 1.385 . S
C2046 H2027 0.951 . S
C2046 C2044 1.388 . S
C2046 C2047 1.366 . S
C2047 C2046 1.366 . S
C2047 C2048 1.414 . S
C2047 C2050 1.499 . S
C2048 H2028 0.950 . S
C2048 C2047 1.414 . S
C2048 C2049 1.374 . S
C2049 H2029 0.950 . S
C2049 C2045 1.385 . S
C2049 C2048 1.374 . S
C2050 C2047 1.499 . S
C2050 C2051 1.373 . S
C2050 C2052 1.389 . S
C2051 H2030 0.950 . S
C2051 C2050 1.373 . S
C2051 C2067 1.377 . S
C2052 C2050 1.389 . S
C2052 C2053 1.524 . S
C2052 C2066 1.377 . S
C2053 C2052 1.524 . S
C2053 C2054 1.397 . S
C2053 C2058 1.363 . S
C2054 H2031 0.950 . S
C2054 C2053 1.397 . S
C2054 C2055 1.334 . S
C2055 H2032 0.950 . S
C2055 C2054 1.334 . S
C2055 C2056 1.287 . S
C2056 C2055 1.287 . S
C2056 C2057 1.524 . S
C2056 H2075 0.913 . S
C2057 H2033 0.950 . S
C2057 C2056 1.524 . S
C2057 C2058 1.415 . S
C2058 H2034 0.950 . S
C2058 C2053 1.363 . S
C2058 C2057 1.415 . S
C2059 H2035 0.951 . S
C2059 C2060 1.366 . S
C2059 C2061 1.388 . S
C2060 C2059 1.366 . S
C2060 C2064 1.385 . S
C2061 H2036 0.951 . S
C2061 C2059 1.388 . S
C2061 C2062 1.366 . S
C2062 C2061 1.366 . S
C2062 C2063 1.414 . S
C2062 C2065 1.499 . S
C2063 H2037 0.950 . S
C2063 C2062 1.414 . S
C2063 C2064 1.374 . S
C2064 H2038 0.950 . S
C2064 C2060 1.385 . S
C2064 C2063 1.374 . S
C2065 C2062 1.499 . S
C2065 C2066 1.373 . S
C2065 C2067 1.389 . S
C2066 H2039 0.950 . S
C2066 C2052 1.377 . S
C2066 C2065 1.373 . S
C2067 C2051 1.377 . S
C2067 C2065 1.389 . S
C2067 C2068 1.524 . S
C2068 C2067 1.524 . S
C2068 C2069 1.397 . S
C2068 C2073 1.363 . S
C2069 H2040 0.950 . S
C2069 C2068 1.397 . S
C2069 C2070 1.334 . S
C2070 H2041 0.950 . S
C2070 C2069 1.334 . S
C2070 C2071 1.287 . S
C2071 C2070 1.287 . S
C2071 C2072 1.524 . S
C2071 H2074 0.999 . S
C2072 H2042 0.950 . S
C2072 C2071 1.524 . S
C2072 C2073 1.415 . S
C2073 H2043 0.950 . S
C2073 C2068 1.363 . S
C2073 C2072 1.415 . S
H2074 C2071 0.999 . S
H2075 C2056 0.913 . S
H2076 C2094 0.951 . S
H2077 C2096 0.951 . S
H2078 C2098 0.950 . S
H2079 C2099 0.950 . S
H2080 C2101 0.950 . S
H2081 C2104 0.950 . S
H2082 C2105 0.950 . S
H2083 C2107 0.950 . S
H2084 C2108 0.950 . S
H2085 C2109 0.951 . S
H2086 C2111 0.951 . S
H2087 C2113 0.950 . S
H2088 C2114 0.950 . S
H2089 C2116 0.950 . S
H2090 C2119 0.950 . S
H2091 C2120 0.950 . S
H2092 C2122 0.923 1_545 S
H2093 C2123 0.950 . S
C2094 H2076 0.951 . S
C2094 C2095 1.366 . S
C2094 C2096 1.388 . S
C2095 C2094 1.366 . S
C2095 C2099 1.385 . S
C2096 H2077 0.951 . S
C2096 C2094 1.388 . S
C2096 C2097 1.366 . S
C2097 C2096 1.366 . S
C2097 C2098 1.414 . S
C2097 C2100 1.499 . S
C2098 H2078 0.950 . S
C2098 C2097 1.414 . S
C2098 C2099 1.374 . S
C2099 H2079 0.950 . S
C2099 C2095 1.385 . S
C2099 C2098 1.374 . S
C2100 C2097 1.499 . S
C2100 C2101 1.373 . S
C2100 C2102 1.389 1_545 S
C2101 H2080 0.950 . S
C2101 C2100 1.373 . S
C2101 C2117 1.377 1_545 S
C2102 C2100 1.389 1_565 S
C2102 C2103 1.524 1_565 S
C2102 C2116 1.377 . S
C2103 C2102 1.524 1_545 S
C2103 C2104 1.397 . S
C2103 C2108 1.363 1_545 S
C2104 H2081 0.950 . S
C2104 C2103 1.397 . S
C2104 C2105 1.334 . S
C2105 H2082 0.950 . S
C2105 C2104 1.334 . S
C2105 C2106 1.287 . S
C2106 C2105 1.287 . S
C2106 C2107 1.524 1_545 S
C2106 H2125 0.913 . S
C2107 H2083 0.950 . S
C2107 C2106 1.524 1_565 S
C2107 C2108 1.415 . S
C2108 H2084 0.950 . S
C2108 C2103 1.363 1_565 S
C2108 C2107 1.415 . S
C2109 H2085 0.951 . S
C2109 C2110 1.366 . S
C2109 C2111 1.388 . S
C2110 C2109 1.366 . S
C2110 C2114 1.385 . S
C2111 H2086 0.951 . S
C2111 C2109 1.388 . S
C2111 C2112 1.366 . S
C2112 C2111 1.366 . S
C2112 C2113 1.414 . S
C2112 C2115 1.499 . S
C2113 H2087 0.950 . S
C2113 C2112 1.414 . S
C2113 C2114 1.374 . S
C2114 H2088 0.950 . S
C2114 C2110 1.385 . S
C2114 C2113 1.374 . S
C2115 C2112 1.499 . S
C2115 C2116 1.373 . S
C2115 C2117 1.389 . S
C2116 H2089 0.950 . S
C2116 C2102 1.377 . S
C2116 C2115 1.373 . S
C2117 C2101 1.377 1_565 S
C2117 C2115 1.389 . S
C2117 C2118 1.524 . S
C2118 C2117 1.524 . S
C2118 C2119 1.397 . S
C2118 C2123 1.363 1_565 S
C2119 H2090 0.950 . S
C2119 C2118 1.397 . S
C2119 C2120 1.334 . S
C2120 H2091 0.950 . S
C2120 C2119 1.334 . S
C2120 C2121 1.287 . S
C2121 C2120 1.287 . S
C2121 C2122 1.556 . S
C2121 H2124 0.999 . S
C2122 H2092 0.923 1_565 S
C2122 C2121 1.556 . S
C2122 C2123 1.415 1_565 S
C2123 H2093 0.950 . S
C2123 C2118 1.363 1_545 S
C2123 C2122 1.415 1_545 S
H2124 C2121 0.999 . S
H2125 C2106 0.913 . S
H2126 C2144 0.951 . S
H2127 C2146 0.951 . S
H2128 C2148 0.950 . S
H2129 C2149 0.950 . S
H2130 C2151 0.950 . S
H2131 C2154 0.950 . S
H2132 C2155 0.950 . S
H2133 C2157 0.950 . S
H2134 C2158 0.950 . S
H2135 C2159 0.951 . S
H2136 C2161 0.951 . S
H2137 C2163 0.950 . S
H2138 C2164 0.950 . S
H2139 C2166 0.950 . S
H2140 C2169 0.950 . S
H2141 C2170 0.950 . S
H2142 C2172 0.950 . S
H2143 C2173 0.950 . S
C2144 H2126 0.951 . S
C2144 C2145 1.366 . S
C2144 C2146 1.388 . S
C2145 C2144 1.366 . S
C2145 C2149 1.385 . S
C2146 H2127 0.951 . S
C2146 C2144 1.388 . S
C2146 C2147 1.366 . S
C2147 C2146 1.366 . S
C2147 C2148 1.414 . S
C2147 C2150 1.499 . S
C2148 H2128 0.950 . S
C2148 C2147 1.414 . S
C2148 C2149 1.374 . S
C2149 H2129 0.950 . S
C2149 C2145 1.385 . S
C2149 C2148 1.374 . S
C2150 C2147 1.499 . S
C2150 C2151 1.373 . S
C2150 C2152 1.389 . S
C2151 H2130 0.950 . S
C2151 C2150 1.373 . S
C2151 C2167 1.377 . S
C2152 C2150 1.389 . S
C2152 C2153 1.524 . S
C2152 C2166 1.377 . S
C2153 C2152 1.524 . S
C2153 C2154 1.397 . S
C2153 C2158 1.363 . S
C2154 H2131 0.950 . S
C2154 C2153 1.397 . S
C2154 C2155 1.334 . S
C2155 H2132 0.950 . S
C2155 C2154 1.334 . S
C2155 C2156 1.287 . S
C2156 C2155 1.287 . S
C2156 C2157 1.524 . S
C2156 H2175 0.913 . S
C2157 H2133 0.950 . S
C2157 C2156 1.524 . S
C2157 C2158 1.415 . S
C2158 H2134 0.950 . S
C2158 C2153 1.363 . S
C2158 C2157 1.415 . S
C2159 H2135 0.951 . S
C2159 C2160 1.366 . S
C2159 C2161 1.388 . S
C2160 C2159 1.366 . S
C2160 C2164 1.385 . S
C2161 H2136 0.951 . S
C2161 C2159 1.388 . S
C2161 C2162 1.366 . S
C2162 C2161 1.366 . S
C2162 C2163 1.414 . S
C2162 C2165 1.499 . S
C2163 H2137 0.950 . S
C2163 C2162 1.414 . S
C2163 C2164 1.374 . S
C2164 H2138 0.950 . S
C2164 C2160 1.385 . S
C2164 C2163 1.374 . S
C2165 C2162 1.499 . S
C2165 C2166 1.373 . S
C2165 C2167 1.389 . S
C2166 H2139 0.950 . S
C2166 C2152 1.377 . S
C2166 C2165 1.373 . S
C2167 C2151 1.377 . S
C2167 C2165 1.389 . S
C2167 C2168 1.524 . S
C2168 C2167 1.524 . S
C2168 C2169 1.397 . S
C2168 C2173 1.363 . S
C2169 H2140 0.950 . S
C2169 C2168 1.397 . S
C2169 C2170 1.334 . S
C2170 H2141 0.950 . S
C2170 C2169 1.334 . S
C2170 C2171 1.287 . S
C2171 C2170 1.287 . S
C2171 C2172 1.524 . S
C2171 H2174 0.999 . S
C2172 H2142 0.950 . S
C2172 C2171 1.524 . S
C2172 C2173 1.415 . S
C2173 H2143 0.950 . S
C2173 C2168 1.363 . S
C2173 C2172 1.415 . S
H2174 C2171 0.999 . S
H2175 C2156 0.913 . S
C595 C2 1.147 . S
C610 C470 1.146 . S
C645 C38 0.819 . S
C660 C326 0.818 . S
C695 C506 0.859 . S
C710 C74 0.859 . S
C745 C110 1.104 . S
C760 C542 1.106 . S
C795 C146 0.819 . S
C810 C218 0.819 . S
C845 C362 1.146 . S
C860 C182 1.146 . S
C895 C398 0.858 . S
C910 C254 0.858 . S
C945 C290 1.106 . S
C960 C434 1.104 . S
C995 C75 1.653 . S
C1010 C14 1.551 . S
C1045 C50 1.703 . S
C1060 C122 1.696 . S
C1095 C435 1.700 . S
C1110 C3 1.700 . S
C1145 C39 1.796 . S
C1160 C400 1.789 . S
C1195 C147 1.796 . S
C1210 C76 1.789 . S
C1245 C363 1.700 . S
C1260 C111 1.700 . S
C1295 C40 1.859 . S
C1310 C4 1.848 . S
C1345 C112 0.811 . S
C1360 C86 0.798 . S
C1395 C364 1.848 . S
C1410 C148 1.859 . S
C1445 C256 1.726 . S
C1460 C183 1.730 . S
C1495 C219 1.202 . S
C1510 C292 1.200 . S
C1545 C543 1.698 . S
C1560 C194 1.591 . S
C1595 C230 1.334 . S
C1610 C507 1.414 . S
C1645 C338 1.335 . S
C1660 C255 1.414 . S
C1695 C291 1.697 . S
C1710 C482 1.591 . S
C1745 C220 1.757 . S
C1760 C184 1.759 . S
C1795 C302 1.766 . S
C1810 C266 1.787 . S
C1845 C328 1.757 . S
C1860 C472 1.760 . S
C1895 C374 1.553 . S
C1910 C399 1.653 . S
C1945 C446 1.695 . S
C1960 C158 1.702 . S
C1995 C436 0.812 . S
C2010 C410 0.799 . S
C2045 C508 1.726 . S
C2060 C471 1.729 . S
C2095 C327 1.201 . S
C2110 C544 1.200 . S
C2145 C554 1.767 . S
C2160 C518 1.786 . S
