# Generated by pormake.
# Topology tsi, (8)-cn, num edge types: 1
# Building blocks:
#     Node 0, Type 0, BuildingBlock: AJUNOK_clean_sbu_0, # of connection points: 8
#     Node 1, Type 0, BuildingBlock: AJUNOK_clean_sbu_0, # of connection points: 8
#     Node 2, Type 0, BuildingBlock: AJUNOK_clean_sbu_0, # of connection points: 8
#     Node 3, Type 0, BuildingBlock: AJUNOK_clean_sbu_0, # of connection points: 8
#     Edge 4, Type (0, 0), BuildingBlock: OJICUG_clean_linker_0, # of connection points: 2
#     Edge 5, Type (0, 0), BuildingBlock: OJICUG_clean_linker_0, # of connection points: 2
#     Edge 6, Type (0, 0), BuildingBlock: OJICUG_clean_linker_0, # of connection points: 2
#     Edge 7, Type (0, 0), BuildingBlock: OJICUG_clean_linker_0, # of connection points: 2
#     Edge 8, Type (0, 0), BuildingBlock: OJICUG_clean_linker_0, # of connection points: 2
#     Edge 9, Type (0, 0), BuildingBlock: OJICUG_clean_linker_0, # of connection points: 2
#     Edge 10, Type (0, 0), BuildingBlock: OJICUG_clean_linker_0, # of connection points: 2
#     Edge 11, Type (0, 0), BuildingBlock: OJICUG_clean_linker_0, # of connection points: 2
#     Edge 12, Type (0, 0), BuildingBlock: OJICUG_clean_linker_0, # of connection points: 2
#     Edge 13, Type (0, 0), BuildingBlock: OJICUG_clean_linker_0, # of connection points: 2
#     Edge 14, Type (0, 0), BuildingBlock: OJICUG_clean_linker_0, # of connection points: 2
#     Edge 15, Type (0, 0), BuildingBlock: OJICUG_clean_linker_0, # of connection points: 2
#     Edge 16, Type (0, 0), BuildingBlock: OJICUG_clean_linker_0, # of connection points: 2
#     Edge 17, Type (0, 0), BuildingBlock: OJICUG_clean_linker_0, # of connection points: 2
#     Edge 18, Type (0, 0), BuildingBlock: OJICUG_clean_linker_0, # of connection points: 2
#     Edge 19, Type (0, 0), BuildingBlock: OJICUG_clean_linker_0, # of connection points: 2
# Relax obj value: 0.186
# Max RMSD: 0.217
# Mean RMSD: 0.217
data_MOF--net-tsi--node1-AJUNOK_clean_sbu_0--edge1-OJICUG_clean_linker_0
_symmetry_space_group_name_H-M    P1
_symmetry_Int_Tables_number       1
_symmetry_cell_setting            triclinic
loop_
_symmetry_equiv_pos_as_xyz
'x, y, z'
_cell_length_a     11.882191
_cell_length_b     11.912194
_cell_length_c     59.742268
_cell_angle_alpha  90.02782
_cell_angle_beta   89.995125
_cell_angle_gamma 89.802563
loop_
_atom_site_label
_atom_site_type_symbol
_atom_site_fract_x
_atom_site_fract_y
_atom_site_fract_z
_atom_type_partial_charge
Cd0 Cd 0.92503 0.09224 0.37763 0.0
Cd1 Cd 0.91916 0.28426 0.42575 0.0
C2 C 0.06107 0.18102 0.33436 0.0
N3 N 0.95274 0.16187 0.34064 0.0
C4 C 0.88954 0.2028 0.30329 0.0
C5 C 1.00097 0.22452 0.29653 0.0
C6 C 0.08687 0.21317 0.31252 0.0
C7 C 0.86728 0.17074 0.32551 0.0
H8 H 0.12875 0.16872 0.34611 0.0
H9 H 0.78195 0.15265 0.33065 0.0
C10 C 0.66814 0.17328 0.40369 0.0
C11 C 0.78294 0.31543 0.4718 0.0
C12 C 0.76604 0.34204 0.49435 0.0
C13 C 0.85665 0.33621 0.50943 0.0
C14 C 0.96141 0.29784 0.50145 0.0
C15 C 0.97471 0.27252 0.47872 0.0
N16 N 0.88652 0.2837 0.46439 0.0
H17 H 0.71489 0.32627 0.45997 0.0
H18 H 0.05686 0.25006 0.47227 0.0
C19 C 0.74659 0.40053 0.38982 0.0
N20 N 0.85243 0.35632 0.39092 0.0
C21 C 0.8818 0.40057 0.35228 0.0
C22 C 0.76694 0.42624 0.34984 0.0
C23 C 0.70047 0.43192 0.36923 0.0
C24 C 0.92251 0.36358 0.373 0.0
H25 H 0.69545 0.40557 0.40476 0.0
H26 H 1.00951 0.33878 0.37463 0.0
C27 C 0.17123 0.18572 0.40484 0.0
C28 C 0.92914 0.87099 0.36451 0.0
N29 N 0.94462 1.00114 0.4135 0.0
C30 C 0.04688 0.9604 0.42002 0.0
C31 C 0.06029 0.90782 0.44084 0.0
C32 C 0.96672 0.89291 0.45492 0.0
C33 C 0.86072 0.92612 0.44685 0.0
C34 C 0.85146 0.97789 0.42591 0.0
C35 C 0.97414 0.50769 0.42459 0.0
O36 O 0.7211 0.14948 0.3856 0.0
O37 O 0.72329 0.20255 0.42113 0.0
O38 O 0.1157 0.20125 0.4229 0.0
O39 O 0.11831 0.16625 0.38672 0.0
O40 O 0.83669 0.92443 0.36507 0.0
O41 O 0.01806 0.9291 0.36417 0.0
O42 O 0.04631 0.43354 0.41938 0.0
O43 O 0.88688 0.47533 0.43501 0.0
H44 H 0.11869 0.96826 0.40906 0.0
H45 H 0.76913 0.99611 0.4194 0.0
H46 H 0.82039 0.21052 0.29158 0.0
H47 H 0.17432 0.22539 0.30805 0.0
H48 H 0.68369 0.37016 0.49979 0.0
H49 H 0.03396 0.29348 0.51239 0.0
H50 H 0.93797 0.40054 0.33803 0.0
H51 H 0.61303 0.45753 0.36842 0.0
H52 H 0.14357 0.8813 0.446 0.0
H53 H 0.78516 0.911 0.45651 0.0
Cd54 Cd 0.17325 0.66859 0.62776 0.0
Cd55 Cd 0.98211 0.66377 0.67596 0.0
C56 C 0.08348 0.80424 0.58432 0.0
N57 N 0.10411 0.69647 0.59071 0.0
C58 C 0.06608 0.63233 0.55331 0.0
C59 C 0.043 0.74313 0.54643 0.0
C60 C 0.05196 0.82923 0.56239 0.0
C61 C 0.09723 0.61086 0.57562 0.0
H62 H 0.09402 0.87208 0.59605 0.0
H63 H 0.11648 0.52602 0.58086 0.0
C64 C 0.09393 0.41213 0.65401 0.0
C65 C 0.95333 0.52811 0.72192 0.0
C66 C 0.92785 0.51106 0.7445 0.0
C67 C 0.9362 0.60071 0.7597 0.0
C68 C 0.97648 0.70443 0.7518 0.0
C69 C 1.00068 0.71791 0.72902 0.0
N70 N 0.98651 0.63088 0.71458 0.0
H71 H 0.94015 0.46103 0.71001 0.0
H72 H 0.02445 0.79947 0.72265 0.0
C73 C 0.86672 0.49341 0.63971 0.0
N74 N 0.90999 0.59906 0.641 0.0
C75 C 0.86524 0.62985 0.60242 0.0
C76 C 0.84117 0.51523 0.59977 0.0
C77 C 0.83603 0.4481 0.61903 0.0
C78 C 0.90169 0.66978 0.62322 0.0
H79 H 0.86199 0.44179 0.65456 0.0
H80 H 0.92536 0.75664 0.62502 0.0
C81 C 0.07882 0.91597 0.65478 0.0
C82 C 0.39538 0.66687 0.6149 0.0
N83 N 0.26375 0.69587 0.66348 0.0
C84 C 0.30599 0.7993 0.66835 0.0
C85 C 0.35683 0.82054 0.68905 0.0
C86 C 0.37025 0.73312 0.70458 0.0
C87 C 0.33646 0.62486 0.69828 0.0
C88 C 0.28449 0.60796 0.67749 0.0
C89 C 0.75699 0.71632 0.67552 0.0
O90 O 0.11799 0.46504 0.63597 0.0
O91 O 0.06338 0.46719 0.67139 0.0
O92 O 0.06292 0.86061 0.67282 0.0
O93 O 0.09881 0.86297 0.63667 0.0
O94 O 0.34102 0.57568 0.61612 0.0
O95 O 0.3378 0.75618 0.61358 0.0
O96 O 0.82974 0.78957 0.67042 0.0
O97 O 0.79164 0.62905 0.68562 0.0
H98 H 0.30002 0.86615 0.6562 0.0
H99 H 0.26339 0.52399 0.67247 0.0
H100 H 0.06022 0.56309 0.54162 0.0
H101 H 0.03847 0.91622 0.55782 0.0
H102 H 0.89834 0.42947 0.74986 0.0
H103 H 0.98295 0.77629 0.76283 0.0
H104 H 0.86467 0.68638 0.58824 0.0
H105 H 0.8116 0.36074 0.61804 0.0
H106 H 0.38575 0.90455 0.69284 0.0
H107 H 0.34805 0.55425 0.70946 0.0
Cd108 Cd 0.6045 0.73298 0.92587 0.0
Cd109 Cd 0.59911 0.92331 0.87792 0.0
C110 C 0.77521 0.61514 0.88985 0.0
N111 N 0.66968 0.66007 0.89097 0.0
C112 C 0.64008 0.61647 0.8523 0.0
C113 C 0.75474 0.58989 0.84987 0.0
C114 C 0.82114 0.5836 0.86926 0.0
C115 C 0.59956 0.65342 0.87303 0.0
H116 H 0.82634 0.60982 0.90479 0.0
H117 H 0.51272 0.67855 0.87465 0.0
C118 C 0.35268 0.83001 0.90482 0.0
C119 C 0.47667 0.05544 0.92023 0.0
C120 C 0.46306 0.10843 0.94101 0.0
C121 C 0.55641 0.12317 0.95515 0.0
C122 C 0.66242 0.08923 0.9472 0.0
C123 C 0.67188 0.0371 0.92629 0.0
N124 N 0.57889 0.01416 0.91381 0.0
H125 H 0.40505 0.04768 0.90921 0.0
H126 H 0.75427 0.01847 0.91985 0.0
C127 C 0.46056 0.85278 0.83404 0.0
N128 N 0.56999 0.85892 0.84063 0.0
C129 C 0.63076 0.81679 0.80316 0.0
C130 C 0.51805 0.81181 0.79599 0.0
C131 C 0.43278 0.82892 0.81187 0.0
C132 C 0.65502 0.8427 0.82562 0.0
H133 H 0.39399 0.87036 0.84581 0.0
H134 H 0.74151 0.85088 0.83102 0.0
C135 C 0.8559 0.84199 0.90364 0.0
C136 C 0.54984 0.50945 0.92523 0.0
N137 N 0.63823 0.73532 0.96449 0.0
C138 C 0.74125 0.70097 0.97173 0.0
C139 C 0.75845 0.67433 0.99426 0.0
C140 C 0.66874 0.68294 1.0095 0.0
C141 C 0.56481 0.72439 1.00171 0.0
C142 C 0.55113 0.74956 0.97898 0.0
C143 C 0.59587 0.14529 0.86535 0.0
O144 O 0.40809 0.81591 0.92294 0.0
O145 O 0.40574 0.84815 0.88666 0.0
O146 O 0.80291 0.86529 0.88553 0.0
O147 O 0.80076 0.81336 0.92111 0.0
O148 O 0.47736 0.58318 0.91998 0.0
O149 O 0.6373 0.54254 0.93547 0.0
O150 O 0.68822 0.09165 0.86593 0.0
O151 O 0.5068 0.08745 0.86486 0.0
H152 H 0.80837 0.68779 0.95978 0.0
H153 H 0.46934 0.7742 0.97267 0.0
H154 H 0.58404 0.61734 0.83801 0.0
H155 H 0.90847 0.55759 0.86842 0.0
H156 H 0.37981 0.13547 0.94609 0.0
H157 H 0.73784 0.10417 0.95691 0.0
H158 H 0.69915 0.80485 0.79139 0.0
H159 H 0.34486 0.82561 0.80712 0.0
H160 H 0.8402 0.64387 0.99956 0.0
H161 H 0.49294 0.73111 1.01278 0.0
Cd162 Cd 0.54038 0.35558 0.17593 0.0
Cd163 Cd 0.34893 0.35133 0.12776 0.0
C164 C 0.65814 0.5242 0.13971 0.0
N165 N 0.61357 0.4191 0.14097 0.0
C166 C 0.65748 0.38805 0.10235 0.0
C167 C 0.68299 0.5024 0.09974 0.0
C168 C 0.68929 0.56924 0.11904 0.0
C169 C 0.6208 0.3484 0.12316 0.0
H170 H 0.6635 0.57572 0.15458 0.0
H171 H 0.596 0.26186 0.12493 0.0
C172 C 0.44263 0.10379 0.15472 0.0
C173 C 0.21744 0.22846 0.16992 0.0
C174 C 0.16537 0.21388 0.19076 0.0
C175 C 0.1524 0.3059 0.20528 0.0
C176 C 0.1872 0.41175 0.19766 0.0
C177 C 0.23836 0.42222 0.17668 0.0
N178 N 0.25956 0.33027 0.16379 0.0
H179 H 0.22378 0.15792 0.15862 0.0
H180 H 0.25748 0.50463 0.17051 0.0
C181 C 0.43737 0.21534 0.08435 0.0
N182 N 0.4178 0.32339 0.0907 0.0
C183 C 0.45699 0.38667 0.05331 0.0
C184 C 0.47913 0.27556 0.04647 0.0
C185 C 0.46897 0.18976 0.06244 0.0
C186 C 0.42573 0.40874 0.07559 0.0
H187 H 0.42593 0.14775 0.09609 0.0
H188 H 0.4073 0.49384 0.0808 0.0
C189 C 0.43114 0.60775 0.1536 0.0
C190 C 0.76531 0.30217 0.17591 0.0
N191 N 0.53402 0.38867 0.21454 0.0
C192 C 0.56821 0.49099 0.22196 0.0
C193 C 0.59377 0.50743 0.24456 0.0
C194 C 0.58434 0.41766 0.25969 0.0
C195 C 0.54258 0.31464 0.25173 0.0
C196 C 0.51846 0.30171 0.22893 0.0
C197 C 0.12652 0.35023 0.11516 0.0
O198 O 0.45944 0.15895 0.17275 0.0
O199 O 0.42181 0.15691 0.13668 0.0
O200 O 0.40642 0.55479 0.13558 0.0
O201 O 0.46111 0.5527 0.17101 0.0
O202 O 0.69248 0.22912 0.17074 0.0
O203 O 0.73057 0.38977 0.1859 0.0
O204 O 0.18012 0.44201 0.11598 0.0
O205 O 0.18481 0.26129 0.11413 0.0
H206 H 0.58244 0.558 0.2101 0.0
H207 H 0.49393 0.22049 0.22249 0.0
H208 H 0.65713 0.3316 0.08816 0.0
H209 H 0.71491 0.65627 0.1181 0.0
H210 H 0.1376 0.13086 0.19558 0.0
H211 H 0.17359 0.48633 0.20769 0.0
H212 H 0.46374 0.45568 0.04159 0.0
H213 H 0.48166 0.10258 0.05792 0.0
H214 H 0.62441 0.58853 0.24998 0.0
H215 H 0.53515 0.24276 0.26271 0.0
C216 C 0.78574 0.47761 0.53747 0.0
C217 C 0.84426 0.37719 0.53288 0.0
H218 H 0.73716 0.59932 0.56213 0.0
C219 C 0.89539 0.31957 0.55072 0.0
H220 H 0.74672 0.52503 0.52407 0.0
C221 C 0.89011 0.36234 0.57251 0.0
C222 C 0.83401 0.46418 0.57703 0.0
H223 H 0.94069 0.24187 0.5478 0.0
H224 H 0.93391 0.31759 0.58569 0.0
C225 C 0.78095 0.52075 0.55926 0.0
C226 C 0.75025 0.52821 0.80948 0.0
C227 C 0.80672 0.58111 0.82724 0.0
H228 H 0.74674 0.49269 0.77436 0.0
C229 C 0.90943 0.63533 0.82278 0.0
H230 H 0.67108 0.48574 0.81231 0.0
C231 C 0.95289 0.63939 0.80103 0.0
C232 C 0.89515 0.58877 0.78317 0.0
H233 H 0.95425 0.67873 0.83597 0.0
H234 H 0.03113 0.68347 0.79815 0.0
C235 C 0.7942 0.53154 0.78774 0.0
C236 C 0.73702 0.53947 0.03736 0.0
C237 C 0.68095 0.64142 0.03293 0.0
H238 H 0.78351 0.41631 0.06186 0.0
C239 C 0.63201 0.70009 0.05088 0.0
H240 H 0.77426 0.49119 1.02388 0.0
C241 C 0.63694 0.65689 0.07263 0.0
C242 C 0.69058 0.55359 0.07701 0.0
H243 H 0.58866 0.77898 0.04808 0.0
H244 H 0.59474 0.70259 0.0859 0.0
C245 C 0.74156 0.49597 0.05912 0.0
C246 C 0.61133 0.38276 0.32276 0.0
C247 C 0.71503 0.43525 0.32718 0.0
H248 H 0.48839 0.3368 0.29819 0.0
C249 C 0.77239 0.48667 0.30936 0.0
H250 H 0.56577 0.34034 0.33597 0.0
C251 C 0.72839 0.48354 0.28763 0.0
C252 C 0.62608 0.42859 0.28313 0.0
H253 H 0.85229 0.52788 0.31212 0.0
H254 H 0.77663 0.52098 0.2742 0.0
C255 C 0.56756 0.37932 0.30103 0.0
C256 C 0.15387 0.34972 0.24648 0.0
C257 C 0.10582 0.2916 0.22836 0.0
H258 H 0.15692 0.37659 0.28187 0.0
C259 C 0.01651 0.21727 0.23272 0.0
H260 H 0.22326 0.40698 0.24386 0.0
C261 C 0.97898 0.19882 0.2547 0.0
C262 C 0.03026 0.2538 0.27288 0.0
H263 H 0.97627 0.17237 0.21915 0.0
H264 H 0.9127 0.13828 0.2575 0.0
C265 C 0.11651 0.3313 0.26837 0.0
C266 C 0.3711 0.84606 0.73995 0.0
C267 C 0.41471 0.75593 0.72746 0.0
H268 H 0.36978 0.93411 0.77118 0.0
C269 C 0.49717 0.68662 0.73733 0.0
H270 H 0.30699 0.90044 0.73291 0.0
C271 C 0.53401 0.70654 0.75934 0.0
C272 C 0.48746 0.79472 0.77202 0.0
H273 H 0.53292 0.61697 0.72805 0.0
H274 H 0.59625 0.65108 0.76666 0.0
C275 C 0.40651 0.86481 0.76195 0.0
C276 C 0.46773 0.25891 0.98271 0.0
C277 C 0.54334 0.17038 0.97821 0.0
H278 H 0.38875 0.36234 1.00766 0.0
C279 C 0.60383 0.12354 0.99618 0.0
H280 H 0.42099 0.29821 0.96925 0.0
C281 C 0.58635 0.16112 1.0181 0.0
C282 C 0.50755 0.24647 1.02277 0.0
H283 H 0.66217 0.05482 0.99345 0.0
H284 H 0.63329 0.12152 0.0315 0.0
C285 C 0.45031 0.29674 1.00472 0.0
C286 C 0.05574 0.75846 0.48266 0.0
C287 C 0.97957 0.84631 0.47802 0.0
H288 H 0.13494 0.65623 0.50775 0.0
C289 C 0.91834 0.89313 0.49591 0.0
H290 H 0.10307 0.71918 0.46928 0.0
C291 C 0.93562 0.85622 0.51788 0.0
C292 C 0.01495 0.77157 0.52268 0.0
H293 H 0.85954 0.96135 0.49308 0.0
H294 H 0.88808 0.89579 0.53121 0.0
C295 C 0.07295 0.72131 0.50471 0.0
C296 C 0.04113 0.71238 0.37922 0.0
C297 C 0.93547 0.76296 0.37598 0.0
H298 H 0.13865 0.59647 0.39846 0.0
C299 C 0.84469 0.73145 0.38961 0.0
H300 H 0.11298 0.73651 0.36916 0.0
C301 C 0.86095 0.65694 0.40709 0.0
C302 C 0.96698 0.60798 0.41066 0.0
H303 H 0.76243 0.76994 0.38781 0.0
H304 H 0.78897 0.63481 0.41729 0.0
C305 C 0.05683 0.63564 0.39647 0.0
C306 C 0.53329 0.58497 0.6409 0.0
C307 C 0.50258 0.67407 0.62677 0.0
H308 H 0.62899 0.5319 0.66901 0.0
C309 C 0.55293 0.77953 0.62968 0.0
H310 H 0.49487 0.50297 0.63938 0.0
C311 C 0.62889 0.79668 0.64703 0.0
C312 C 0.65634 0.7084 0.66162 0.0
H313 H 0.52933 0.85019 0.61925 0.0
H314 H 0.66797 0.87829 0.64872 0.0
C315 C 0.60722 0.60266 0.65846 0.0
C316 C 0.66301 0.35907 0.90808 0.0
C317 C 0.55707 0.40866 0.91143 0.0
H318 H 0.76186 0.24539 0.889 0.0
C319 C 0.4677 0.38114 0.89711 0.0
H320 H 0.7346 0.38094 0.91841 0.0
C321 C 0.48387 0.30425 0.87989 0.0
C322 C 0.58947 0.25327 0.87683 0.0
H323 H 0.38595 0.42067 0.89893 0.0
H324 H 0.41238 0.28036 0.8697 0.0
C325 C 0.67973 0.28434 0.89064 0.0
C326 C 0.98913 0.43254 0.14123 0.0
C327 C 0.01969 0.34312 0.12715 0.0
H328 H 0.89362 0.48631 0.16932 0.0
C329 C 0.96966 0.23763 0.13021 0.0
H330 H 0.02746 0.51454 0.13962 0.0
C331 C 0.89388 0.22088 0.1476 0.0
C332 C 0.86629 0.30959 0.1621 0.0
H333 H 0.99327 0.16671 0.11983 0.0
H334 H 0.8549 0.13927 0.14938 0.0
C335 C 0.91539 0.41526 0.15883 0.0
C336 C 0.06406 0.10632 0.67445 0.0
C337 C 0.0832 0.04311 0.65483 0.0
H338 H 0.05244 0.26971 0.68969 0.0
C339 C 0.10725 0.1033 0.63503 0.0
H340 H 0.04532 0.06414 0.69005 0.0
C341 C 0.11185 0.22169 0.63482 0.0
C342 C 0.09246 0.28498 0.6544 0.0
H343 H 0.12257 0.05887 0.6195 0.0
H344 H 0.12985 0.26369 0.61915 0.0
C345 C 0.06837 0.22495 0.67422 0.0
C346 C 0.04655 0.8591 0.88451 0.0
C347 C 0.98315 0.84092 0.90411 0.0
H348 H 0.2098 0.86972 0.8693 0.0
C349 C 0.04315 0.81894 0.92406 0.0
H350 H 1.00448 0.87551 0.86876 0.0
C351 C 0.16204 0.81555 0.92439 0.0
C352 C 0.22538 0.83356 0.90477 0.0
H353 H 0.99818 0.80407 0.93954 0.0
H354 H 0.20431 0.79843 0.94009 0.0
C355 C 0.16519 0.85541 0.88483 0.0
C356 C 0.45648 0.79472 0.17388 0.0
C357 C 0.43214 0.73483 0.15404 0.0
H358 H 0.47877 0.95544 0.18981 0.0
C359 C 0.41144 0.79821 0.13454 0.0
H360 H 0.47336 0.74986 0.18929 0.0
C361 C 0.41493 0.91662 0.13485 0.0
C362 C 0.43918 0.97667 0.15467 0.0
H363 H 0.39312 0.75629 0.11888 0.0
H364 H 0.3986 0.96118 0.11938 0.0
C365 C 0.45975 0.91335 0.1742 0.0
C366 C 0.48082 0.19756 0.42408 0.0
C367 C 0.54086 0.17427 0.40418 0.0
H368 H 0.31963 0.21932 0.44005 0.0
C369 C 0.47743 0.15488 0.38463 0.0
H370 H 0.52578 0.21342 0.43952 0.0
C371 C 0.35878 0.15868 0.38494 0.0
C372 C 0.29857 0.18192 0.40481 0.0
H373 H 0.5195 0.13744 0.36892 0.0
H374 H 0.31419 0.1434 0.36944 0.0
C375 C 0.36191 0.20112 0.4244 0.0
loop_
_geom_bond_atom_site_label_1
_geom_bond_atom_site_label_2
_geom_bond_distance
_geom_bond_site_symmetry_2
_ccdc_geom_bond_type
Cd0 N3 2.334 . S
Cd0 N29 2.304 . S
Cd0 O36 2.268 1_455 S
Cd0 O39 2.273 . S
Cd0 O40 2.417 1_445 S
Cd0 O41 2.330 1_545 S
Cd1 N16 2.304 . S
Cd1 N20 2.334 . S
Cd1 O37 2.273 . S
Cd1 O38 2.268 1_655 S
Cd1 O42 2.417 1_655 S
Cd1 O43 2.330 . S
C2 N3 1.332 . S
C2 C6 1.381 . S
C2 H8 0.931 . S
N3 Cd0 2.334 . S
N3 C2 1.332 . S
N3 C7 1.328 1_455 S
C4 C5 1.396 1_655 S
C4 C7 1.378 . S
C4 H46 0.931 . S
C5 C4 1.396 1_455 S
C5 C6 1.382 . S
C6 C2 1.381 . S
C6 C5 1.382 . S
C6 H47 0.930 . S
C7 N3 1.328 1_655 S
C7 C4 1.378 . S
C7 H9 0.930 . S
H8 C2 0.931 . S
H9 C7 0.930 . S
C10 O36 1.238 . S
C10 O37 1.253 . S
C11 C12 1.379 . S
C11 N16 1.337 . S
C11 H17 0.929 . S
C12 C11 1.379 . S
C12 C13 1.380 . S
C12 H48 0.929 . S
C13 C12 1.380 . S
C13 C14 1.399 1_655 S
C14 C13 1.399 1_455 S
C14 C15 1.376 . S
C14 H49 0.931 . S
C15 C14 1.376 . S
C15 N16 1.338 1_455 S
C15 H18 0.930 . S
N16 Cd1 2.304 . S
N16 C11 1.337 . S
N16 C15 1.338 1_655 S
H17 C11 0.929 . S
H18 C15 0.930 . S
C19 N20 1.332 . S
C19 C23 1.381 . S
C19 H25 0.931 . S
N20 Cd1 2.334 . S
N20 C19 1.332 . S
N20 C24 1.328 1_655 S
C21 C22 1.396 1_455 S
C21 C24 1.378 . S
C21 H50 0.931 . S
C22 C21 1.396 1_655 S
C22 C23 1.382 . S
C23 C19 1.381 . S
C23 C22 1.382 . S
C23 H51 0.930 . S
C24 N20 1.328 1_455 S
C24 C21 1.378 . S
C24 H26 0.930 . S
H25 C19 0.931 . S
H26 C24 0.930 . S
C27 O38 1.238 . S
C27 O39 1.253 . S
C28 O40 1.239 1_455 S
C28 O41 1.230 . S
N29 Cd0 2.304 . S
N29 C30 1.337 . S
N29 C34 1.338 1_455 S
C30 N29 1.337 . S
C30 C31 1.379 . S
C30 H44 0.929 . S
C31 C30 1.379 . S
C31 C32 1.380 . S
C31 H52 0.929 . S
C32 C31 1.380 . S
C32 C33 1.399 1_455 S
C33 C32 1.399 1_655 S
C33 C34 1.376 . S
C33 H53 0.931 . S
C34 N29 1.338 1_655 S
C34 C33 1.376 . S
C34 H45 0.930 . S
C35 O42 1.239 1_655 S
C35 O43 1.230 . S
O36 Cd0 2.268 1_655 S
O36 C10 1.238 . S
O37 Cd1 2.273 . S
O37 C10 1.253 . S
O38 Cd1 2.268 1_455 S
O38 C27 1.238 . S
O39 Cd0 2.273 . S
O39 C27 1.253 . S
O40 Cd0 2.417 1_665 S
O40 C28 1.239 1_655 S
O41 Cd0 2.330 1_565 S
O41 C28 1.230 . S
O42 Cd1 2.417 1_455 S
O42 C35 1.239 1_455 S
O43 Cd1 2.330 . S
O43 C35 1.230 . S
H44 C30 0.929 . S
H45 C34 0.930 . S
H46 C4 0.931 . S
H47 C6 0.930 . S
H48 C12 0.929 . S
H49 C14 0.931 . S
H50 C21 0.931 . S
H51 C23 0.930 . S
H52 C31 0.929 . S
H53 C33 0.931 . S
Cd54 N57 2.334 . S
Cd54 N83 2.304 . S
Cd54 O90 2.268 . S
Cd54 O93 2.273 . S
Cd54 O94 2.417 . S
Cd54 O95 2.330 . S
Cd55 N70 2.304 . S
Cd55 N74 2.334 . S
Cd55 O91 2.273 . S
Cd55 O92 2.268 . S
Cd55 O96 2.417 . S
Cd55 O97 2.330 . S
C56 N57 1.332 . S
C56 C60 1.381 . S
C56 H62 0.931 . S
N57 Cd54 2.334 . S
N57 C56 1.332 . S
N57 C61 1.328 . S
C58 C59 1.396 . S
C58 C61 1.378 . S
C58 H100 0.931 . S
C59 C58 1.396 . S
C59 C60 1.382 . S
C60 C56 1.381 . S
C60 C59 1.382 . S
C60 H101 0.930 . S
C61 N57 1.328 . S
C61 C58 1.378 . S
C61 H63 0.930 . S
H62 C56 0.931 . S
H63 C61 0.930 . S
C64 O90 1.238 1_655 S
C64 O91 1.253 . S
C65 C66 1.379 . S
C65 N70 1.337 . S
C65 H71 0.929 . S
C66 C65 1.379 . S
C66 C67 1.380 . S
C66 H102 0.929 . S
C67 C66 1.380 . S
C67 C68 1.399 . S
C68 C67 1.399 . S
C68 C69 1.376 . S
C68 H103 0.931 . S
C69 C68 1.376 . S
C69 N70 1.338 . S
C69 H72 0.930 . S
N70 Cd55 2.304 . S
N70 C65 1.337 . S
N70 C69 1.338 . S
H71 C65 0.929 . S
H72 C69 0.930 . S
C73 N74 1.332 . S
C73 C77 1.381 . S
C73 H79 0.931 . S
N74 Cd55 2.334 . S
N74 C73 1.332 . S
N74 C78 1.328 . S
C75 C76 1.396 . S
C75 C78 1.378 . S
C75 H104 0.931 . S
C76 C75 1.396 . S
C76 C77 1.382 . S
C77 C73 1.381 . S
C77 C76 1.382 . S
C77 H105 0.930 . S
C78 N74 1.328 . S
C78 C75 1.378 . S
C78 H80 0.930 . S
H79 C73 0.931 . S
H80 C78 0.930 . S
C81 O92 1.238 1_455 S
C81 O93 1.253 . S
C82 O94 1.239 . S
C82 O95 1.230 . S
N83 Cd54 2.304 . S
N83 C84 1.337 . S
N83 C88 1.338 . S
C84 N83 1.337 . S
C84 C85 1.379 . S
C84 H98 0.929 . S
C85 C84 1.379 . S
C85 C86 1.380 . S
C85 H106 0.929 . S
C86 C85 1.380 . S
C86 C87 1.399 . S
C87 C86 1.399 . S
C87 C88 1.376 . S
C87 H107 0.931 . S
C88 N83 1.338 . S
C88 C87 1.376 . S
C88 H99 0.930 . S
C89 O96 1.239 . S
C89 O97 1.230 . S
O90 Cd54 2.268 . S
O90 C64 1.238 1_455 S
O91 Cd55 2.273 . S
O91 C64 1.253 . S
O92 Cd55 2.268 . S
O92 C81 1.238 1_655 S
O93 Cd54 2.273 . S
O93 C81 1.253 . S
O94 Cd54 2.417 . S
O94 C82 1.239 . S
O95 Cd54 2.330 . S
O95 C82 1.230 . S
O96 Cd55 2.417 . S
O96 C89 1.239 . S
O97 Cd55 2.330 . S
O97 C89 1.230 . S
H98 C84 0.929 . S
H99 C88 0.930 . S
H100 C58 0.931 . S
H101 C60 0.930 . S
H102 C66 0.929 . S
H103 C68 0.931 . S
H104 C75 0.931 . S
H105 C77 0.930 . S
H106 C85 0.929 . S
H107 C87 0.931 . S
Cd108 N111 2.334 . S
Cd108 N137 2.304 . S
Cd108 O144 2.268 . S
Cd108 O147 2.273 . S
Cd108 O148 2.417 . S
Cd108 O149 2.330 . S
Cd109 N124 2.304 . S
Cd109 N128 2.334 . S
Cd109 O145 2.273 . S
Cd109 O146 2.268 . S
Cd109 O150 2.417 1_565 S
Cd109 O151 2.330 1_565 S
C110 N111 1.332 . S
C110 C114 1.381 . S
C110 H116 0.931 . S
N111 Cd108 2.334 . S
N111 C110 1.332 . S
N111 C115 1.328 . S
C112 C113 1.396 . S
C112 C115 1.378 . S
C112 H154 0.931 . S
C113 C112 1.396 . S
C113 C114 1.382 . S
C114 C110 1.381 . S
C114 C113 1.382 . S
C114 H155 0.930 . S
C115 N111 1.328 . S
C115 C112 1.378 . S
C115 H117 0.930 . S
H116 C110 0.931 . S
H117 C115 0.930 . S
C118 O144 1.238 . S
C118 O145 1.253 . S
C119 C120 1.379 . S
C119 N124 1.337 . S
C119 H125 0.929 . S
C120 C119 1.379 . S
C120 C121 1.380 . S
C120 H156 0.929 . S
C121 C120 1.380 . S
C121 C122 1.399 . S
C122 C121 1.399 . S
C122 C123 1.376 . S
C122 H157 0.931 . S
C123 C122 1.376 . S
C123 N124 1.338 . S
C123 H126 0.930 . S
N124 Cd109 2.304 . S
N124 C119 1.337 . S
N124 C123 1.338 . S
H125 C119 0.929 . S
H126 C123 0.930 . S
C127 N128 1.332 . S
C127 C131 1.381 . S
C127 H133 0.931 . S
N128 Cd109 2.334 . S
N128 C127 1.332 . S
N128 C132 1.328 . S
C129 C130 1.396 . S
C129 C132 1.378 . S
C129 H158 0.931 . S
C130 C129 1.396 . S
C130 C131 1.382 . S
C131 C127 1.381 . S
C131 C130 1.382 . S
C131 H159 0.930 . S
C132 N128 1.328 . S
C132 C129 1.378 . S
C132 H134 0.930 . S
H133 C127 0.931 . S
H134 C132 0.930 . S
C135 O146 1.238 . S
C135 O147 1.253 . S
C136 O148 1.239 . S
C136 O149 1.230 . S
N137 Cd108 2.304 . S
N137 C138 1.337 . S
N137 C142 1.338 . S
C138 N137 1.337 . S
C138 C139 1.379 . S
C138 H152 0.929 . S
C139 C138 1.379 . S
C139 C140 1.380 . S
C139 H160 0.929 . S
C140 C139 1.380 . S
C140 C141 1.399 . S
C141 C140 1.399 . S
C141 C142 1.376 . S
C141 H161 0.931 . S
C142 N137 1.338 . S
C142 C141 1.376 . S
C142 H153 0.930 . S
C143 O150 1.239 . S
C143 O151 1.230 . S
O144 Cd108 2.268 . S
O144 C118 1.238 . S
O145 Cd109 2.273 . S
O145 C118 1.253 . S
O146 Cd109 2.268 . S
O146 C135 1.238 . S
O147 Cd108 2.273 . S
O147 C135 1.253 . S
O148 Cd108 2.417 . S
O148 C136 1.239 . S
O149 Cd108 2.330 . S
O149 C136 1.230 . S
O150 Cd109 2.417 1_545 S
O150 C143 1.239 . S
O151 Cd109 2.330 1_545 S
O151 C143 1.230 . S
H152 C138 0.929 . S
H153 C142 0.930 . S
H154 C112 0.931 . S
H155 C114 0.930 . S
H156 C120 0.929 . S
H157 C122 0.931 . S
H158 C129 0.931 . S
H159 C131 0.930 . S
H160 C139 0.929 . S
H161 C141 0.931 . S
Cd162 N165 2.334 . S
Cd162 N191 2.304 . S
Cd162 O198 2.268 . S
Cd162 O201 2.273 . S
Cd162 O202 2.417 . S
Cd162 O203 2.330 . S
Cd163 N178 2.304 . S
Cd163 N182 2.334 . S
Cd163 O199 2.273 . S
Cd163 O200 2.268 . S
Cd163 O204 2.417 . S
Cd163 O205 2.330 . S
C164 N165 1.332 . S
C164 C168 1.381 . S
C164 H170 0.931 . S
N165 Cd162 2.334 . S
N165 C164 1.332 . S
N165 C169 1.328 . S
C166 C167 1.396 . S
C166 C169 1.378 . S
C166 H208 0.931 . S
C167 C166 1.396 . S
C167 C168 1.382 . S
C168 C164 1.381 . S
C168 C167 1.382 . S
C168 H209 0.930 . S
C169 N165 1.328 . S
C169 C166 1.378 . S
C169 H171 0.930 . S
H170 C164 0.931 . S
H171 C169 0.930 . S
C172 O198 1.238 . S
C172 O199 1.253 . S
C173 C174 1.379 . S
C173 N178 1.337 . S
C173 H179 0.929 . S
C174 C173 1.379 . S
C174 C175 1.380 . S
C174 H210 0.929 . S
C175 C174 1.380 . S
C175 C176 1.399 . S
C176 C175 1.399 . S
C176 C177 1.376 . S
C176 H211 0.931 . S
C177 C176 1.376 . S
C177 N178 1.338 . S
C177 H180 0.930 . S
N178 Cd163 2.304 . S
N178 C173 1.337 . S
N178 C177 1.338 . S
H179 C173 0.929 . S
H180 C177 0.930 . S
C181 N182 1.332 . S
C181 C185 1.381 . S
C181 H187 0.931 . S
N182 Cd163 2.334 . S
N182 C181 1.332 . S
N182 C186 1.328 . S
C183 C184 1.396 . S
C183 C186 1.378 . S
C183 H212 0.931 . S
C184 C183 1.396 . S
C184 C185 1.382 . S
C185 C181 1.381 . S
C185 C184 1.382 . S
C185 H213 0.930 . S
C186 N182 1.328 . S
C186 C183 1.378 . S
C186 H188 0.930 . S
H187 C181 0.931 . S
H188 C186 0.930 . S
C189 O200 1.238 . S
C189 O201 1.253 . S
C190 O202 1.239 . S
C190 O203 1.230 . S
N191 Cd162 2.304 . S
N191 C192 1.337 . S
N191 C196 1.338 . S
C192 N191 1.337 . S
C192 C193 1.379 . S
C192 H206 0.929 . S
C193 C192 1.379 . S
C193 C194 1.380 . S
C193 H214 0.929 . S
C194 C193 1.380 . S
C194 C195 1.399 . S
C195 C194 1.399 . S
C195 C196 1.376 . S
C195 H215 0.931 . S
C196 N191 1.338 . S
C196 C195 1.376 . S
C196 H207 0.930 . S
C197 O204 1.239 . S
C197 O205 1.230 . S
O198 Cd162 2.268 . S
O198 C172 1.238 . S
O199 Cd163 2.273 . S
O199 C172 1.253 . S
O200 Cd163 2.268 . S
O200 C189 1.238 . S
O201 Cd162 2.273 . S
O201 C189 1.253 . S
O202 Cd162 2.417 . S
O202 C190 1.239 . S
O203 Cd162 2.330 . S
O203 C190 1.230 . S
O204 Cd163 2.417 . S
O204 C197 1.239 . S
O205 Cd163 2.330 . S
O205 C197 1.230 . S
H206 C192 0.929 . S
H207 C196 0.930 . S
H208 C166 0.931 . S
H209 C168 0.930 . S
H210 C174 0.929 . S
H211 C176 0.931 . S
H212 C183 0.931 . S
H213 C185 0.930 . S
H214 C193 0.929 . S
H215 C195 0.931 . S
C216 C217 1.387 . S
C216 H220 0.950 1_655 S
C216 C225 1.390 . S
C217 C216 1.387 . S
C217 C219 1.387 . S
H218 C225 0.950 . S
C219 C217 1.387 . S
C219 C221 1.390 . S
C219 H223 0.950 . S
H220 C216 0.950 1_455 S
C221 C219 1.390 . S
C221 C222 1.387 . S
C221 H224 0.950 . S
C222 C221 1.387 . S
C222 C225 1.387 . S
H223 C219 0.950 . S
H224 C221 0.950 . S
C225 C216 1.390 . S
C225 H218 0.950 . S
C225 C222 1.387 . S
C226 C227 1.387 . S
C226 H230 0.950 . S
C226 C235 1.390 . S
C227 C226 1.387 . S
C227 C229 1.387 . S
H228 C235 0.950 . S
C229 C227 1.387 . S
C229 C231 1.390 . S
C229 H233 0.950 . S
H230 C226 0.950 . S
C231 C229 1.390 . S
C231 C232 1.387 . S
C231 H234 0.950 . S
C232 C231 1.387 . S
C232 C235 1.387 . S
H233 C229 0.950 . S
H234 C231 0.950 . S
C235 C226 1.390 . S
C235 H228 0.950 . S
C235 C232 1.387 . S
C236 C237 1.387 . S
C236 H240 0.950 . S
C236 C245 1.403 . S
C237 C236 1.387 . S
C237 C239 1.369 1_556 S
H238 C245 0.949 . S
C239 C237 1.369 1_554 S
C239 C241 1.409 . S
C239 H243 0.949 . S
H240 C236 0.950 . S
C241 C239 1.409 . S
C241 C242 1.387 . S
C241 H244 0.950 . S
C242 C241 1.387 . S
C242 C245 1.374 1_554 S
H243 C239 0.949 . S
H244 C241 0.950 . S
C245 C236 1.403 . S
C245 H238 0.949 . S
C245 C242 1.374 1_556 S
C246 C247 1.387 . S
C246 H250 0.950 . S
C246 C255 1.390 . S
C247 C246 1.387 . S
C247 C249 1.387 . S
H248 C255 0.950 . S
C249 C247 1.387 . S
C249 C251 1.390 . S
C249 H253 0.950 . S
H250 C246 0.950 . S
C251 C249 1.390 . S
C251 C252 1.387 . S
C251 H254 0.950 . S
C252 C251 1.387 . S
C252 C255 1.387 . S
H253 C249 0.950 . S
H254 C251 0.950 . S
C255 C246 1.390 . S
C255 H248 0.950 . S
C255 C252 1.387 . S
C256 C257 1.387 . S
C256 H260 0.950 . S
C256 C265 1.390 . S
C257 C256 1.387 . S
C257 C259 1.387 . S
H258 C265 0.950 . S
C259 C257 1.387 . S
C259 C261 1.390 . S
C259 H263 0.950 . S
H260 C256 0.950 . S
C261 C259 1.390 . S
C261 C262 1.387 . S
C261 H264 0.950 . S
C262 C261 1.387 . S
C262 C265 1.387 . S
H263 C259 0.950 . S
H264 C261 0.950 . S
C265 C256 1.390 . S
C265 H258 0.950 . S
C265 C262 1.387 . S
C266 C267 1.387 . S
C266 H270 0.950 . S
C266 C275 1.390 . S
C267 C266 1.387 . S
C267 C269 1.387 . S
H268 C275 0.950 1_545 S
C269 C267 1.387 . S
C269 C271 1.390 . S
C269 H273 0.950 . S
H270 C266 0.950 . S
C271 C269 1.390 . S
C271 C272 1.387 . S
C271 H274 0.950 . S
C272 C271 1.387 . S
C272 C275 1.387 . S
H273 C269 0.950 . S
H274 C271 0.950 . S
C275 C266 1.390 . S
C275 H268 0.950 1_565 S
C275 C272 1.387 . S
C276 C277 1.387 1_545 S
C276 H280 0.950 . S
C276 C285 1.390 . S
C277 C276 1.387 1_565 S
C277 C279 1.387 1_556 S
H278 C285 0.950 . S
C279 C277 1.387 1_554 S
C279 C281 1.390 1_565 S
C279 H283 0.950 . S
H280 C276 0.950 . S
C281 C279 1.390 1_545 S
C281 C282 1.387 . S
C281 H284 0.950 . S
C282 C281 1.387 . S
C282 C285 1.387 1_554 S
H283 C279 0.950 . S
H284 C281 0.950 . S
C285 C276 1.390 . S
C285 H278 0.950 . S
C285 C282 1.387 1_556 S
C286 C287 1.387 1_565 S
C286 H290 0.950 . S
C286 C295 1.390 . S
C287 C286 1.387 1_545 S
C287 C289 1.387 . S
H288 C295 0.950 . S
C289 C287 1.387 . S
C289 C291 1.390 1_545 S
C289 H293 0.952 . S
H290 C286 0.950 . S
C291 C289 1.390 1_565 S
C291 C292 1.387 . S
C291 H294 0.950 . S
C292 C291 1.387 . S
C292 C295 1.387 . S
H293 C289 0.952 . S
H294 C291 0.950 . S
C295 C286 1.390 . S
C295 H288 0.950 . S
C295 C292 1.387 . S
C296 C297 1.387 . S
C296 H300 0.950 . S
C296 C305 1.390 1_455 S
C297 C296 1.387 . S
C297 C299 1.387 . S
H298 C305 0.950 . S
C299 C297 1.387 . S
C299 C301 1.390 1_455 S
C299 H303 0.950 . S
H300 C296 0.950 . S
C301 C299 1.390 1_655 S
C301 C302 1.387 . S
C301 H304 0.950 . S
C302 C301 1.387 . S
C302 C305 1.387 . S
H303 C299 0.950 . S
H304 C301 0.950 . S
C305 C296 1.390 1_655 S
C305 H298 0.950 . S
C305 C302 1.387 . S
C306 C307 1.387 . S
C306 H310 0.950 . S
C306 C315 1.390 . S
C307 C306 1.387 . S
C307 C309 1.387 . S
H308 C315 0.950 . S
C309 C307 1.387 . S
C309 C311 1.390 . S
C309 H313 0.950 . S
H310 C306 0.950 . S
C311 C309 1.390 . S
C311 C312 1.387 . S
C311 H314 0.950 . S
C312 C311 1.387 . S
C312 C315 1.387 . S
H313 C309 0.950 . S
H314 C311 0.950 . S
C315 C306 1.390 . S
C315 H308 0.950 . S
C315 C312 1.387 . S
C316 C317 1.387 . S
C316 H320 0.950 . S
C316 C325 1.390 . S
C317 C316 1.387 . S
C317 C319 1.387 . S
H318 C325 0.950 . S
C319 C317 1.387 . S
C319 C321 1.390 . S
C319 H323 0.950 . S
H320 C316 0.950 . S
C321 C319 1.390 . S
C321 C322 1.387 . S
C321 H324 0.950 . S
C322 C321 1.387 . S
C322 C325 1.387 . S
H323 C319 0.950 . S
H324 C321 0.950 . S
C325 C316 1.390 . S
C325 H318 0.950 . S
C325 C322 1.387 . S
C326 C327 1.387 . S
C326 H330 0.950 . S
C326 C335 1.390 1_455 S
C327 C326 1.387 . S
C327 C329 1.387 . S
H328 C335 0.950 . S
C329 C327 1.387 . S
C329 C331 1.390 1_455 S
C329 H333 0.950 . S
H330 C326 0.950 . S
C331 C329 1.390 1_655 S
C331 C332 1.387 . S
C331 H334 0.950 . S
C332 C331 1.387 . S
C332 C335 1.387 . S
H333 C329 0.950 . S
H334 C331 0.950 . S
C335 C326 1.390 1_655 S
C335 H328 0.950 . S
C335 C332 1.387 . S
C336 C337 1.387 . S
C336 H340 0.950 . S
C336 C345 1.390 1_655 S
C337 C336 1.387 . S
C337 C339 1.387 . S
H338 C345 0.950 . S
C339 C337 1.387 . S
C339 C341 1.390 1_655 S
C339 H343 0.950 . S
H340 C336 0.950 . S
C341 C339 1.390 1_455 S
C341 C342 1.387 . S
C341 H344 0.950 . S
C342 C341 1.387 . S
C342 C345 1.387 . S
H343 C339 0.950 . S
H344 C341 0.950 . S
C345 C336 1.390 1_455 S
C345 H338 0.950 . S
C345 C342 1.387 . S
C346 C347 1.387 . S
C346 H350 0.950 . S
C346 C355 1.390 1_655 S
C347 C346 1.387 . S
C347 C349 1.387 . S
H348 C355 0.950 . S
C349 C347 1.387 . S
C349 C351 1.390 1_655 S
C349 H353 0.950 . S
H350 C346 0.950 . S
C351 C349 1.390 1_455 S
C351 C352 1.387 . S
C351 H354 0.950 . S
C352 C351 1.387 . S
C352 C355 1.387 . S
H353 C349 0.950 . S
H354 C351 0.950 . S
C355 C346 1.390 1_455 S
C355 H348 0.950 . S
C355 C352 1.387 . S
C356 C357 1.387 . S
C356 H360 0.950 . S
C356 C365 1.390 . S
C357 C356 1.387 . S
C357 C359 1.387 . S
H358 C365 0.950 . S
C359 C357 1.387 . S
C359 C361 1.390 . S
C359 H363 0.950 . S
H360 C356 0.950 . S
C361 C359 1.390 . S
C361 C362 1.387 . S
C361 H364 0.950 . S
C362 C361 1.387 . S
C362 C365 1.387 . S
H363 C359 0.950 . S
H364 C361 0.950 . S
C365 C356 1.390 . S
C365 H358 0.950 . S
C365 C362 1.387 . S
C366 C367 1.387 . S
C366 H370 0.950 . S
C366 C375 1.390 . S
C367 C366 1.387 . S
C367 C369 1.387 . S
H368 C375 0.950 . S
C369 C367 1.387 . S
C369 C371 1.390 . S
C369 H373 0.950 . S
H370 C366 0.950 . S
C371 C369 1.390 . S
C371 C372 1.387 . S
C371 H374 0.950 . S
C372 C371 1.387 . S
C372 C375 1.387 . S
H373 C369 0.950 . S
H374 C371 0.950 . S
C375 C366 1.390 . S
C375 H368 0.950 . S
C375 C372 1.387 . S
C217 C13 2.096 . S
C222 C76 2.101 . S
C227 C113 2.101 . S
C232 C67 2.097 . S
C237 C140 2.096 . S
C242 C167 2.101 . S
C247 C22 2.101 . S
C252 C194 2.096 . S
C257 C175 2.096 . S
C262 C5 2.100 . S
C267 C86 2.093 . S
C272 C130 2.098 . S
C277 C121 2.094 . S
C282 C184 2.099 . S
C287 C32 2.094 . S
C292 C59 2.100 . S
C297 C28 0.017 . S
C302 C35 0.017 . S
C307 C82 0.027 . S
C312 C89 0.027 . S
C317 C136 0.027 . S
C322 C143 0.027 . S
C327 C197 0.027 . S
C332 C190 0.027 . S
C337 C81 2.134 1_645 S
C342 C64 2.134 1_455 S
C347 C135 2.132 . S
C352 C118 2.132 . S
C357 C189 2.134 . S
C362 C172 2.134 1_565 S
C367 C10 2.134 . S
C372 C27 2.134 . S
