# Generated by pormake.
# Topology hbo, (4)-cn, num edge types: 1
# Building blocks:
#     Node 0, Type 0, BuildingBlock: ICAMEG_clean_sbu_1, # of connection points: 4
#     Node 1, Type 0, BuildingBlock: ICAMEG_clean_sbu_1, # of connection points: 4
#     Node 2, Type 0, BuildingBlock: ICAMEG_clean_sbu_1, # of connection points: 4
#     Node 3, Type 0, BuildingBlock: ICAMEG_clean_sbu_1, # of connection points: 4
#     Node 4, Type 0, BuildingBlock: ICAMEG_clean_sbu_1, # of connection points: 4
#     Node 5, Type 0, BuildingBlock: ICAMEG_clean_sbu_1, # of connection points: 4
#     Node 6, Type 0, BuildingBlock: ICAMEG_clean_sbu_1, # of connection points: 4
#     Node 7, Type 0, BuildingBlock: ICAMEG_clean_sbu_1, # of connection points: 4
#     Node 8, Type 0, BuildingBlock: ICAMEG_clean_sbu_1, # of connection points: 4
#     Node 9, Type 0, BuildingBlock: ICAMEG_clean_sbu_1, # of connection points: 4
#     Node 10, Type 0, BuildingBlock: ICAMEG_clean_sbu_1, # of connection points: 4
#     Node 11, Type 0, BuildingBlock: ICAMEG_clean_sbu_1, # of connection points: 4
#     Node 12, Type 0, BuildingBlock: ICAMEG_clean_sbu_1, # of connection points: 4
#     Node 13, Type 0, BuildingBlock: ICAMEG_clean_sbu_1, # of connection points: 4
#     Node 14, Type 0, BuildingBlock: ICAMEG_clean_sbu_1, # of connection points: 4
#     Node 15, Type 0, BuildingBlock: ICAMEG_clean_sbu_1, # of connection points: 4
#     Node 16, Type 0, BuildingBlock: ICAMEG_clean_sbu_1, # of connection points: 4
#     Node 17, Type 0, BuildingBlock: ICAMEG_clean_sbu_1, # of connection points: 4
#     Node 18, Type 0, BuildingBlock: ICAMEG_clean_sbu_1, # of connection points: 4
#     Node 19, Type 0, BuildingBlock: ICAMEG_clean_sbu_1, # of connection points: 4
#     Node 20, Type 0, BuildingBlock: ICAMEG_clean_sbu_1, # of connection points: 4
#     Node 21, Type 0, BuildingBlock: ICAMEG_clean_sbu_1, # of connection points: 4
#     Node 22, Type 0, BuildingBlock: ICAMEG_clean_sbu_1, # of connection points: 4
#     Node 23, Type 0, BuildingBlock: ICAMEG_clean_sbu_1, # of connection points: 4
#     Edge 24, Type (0, 0), BuildingBlock: EZIPEK_clean_linker_0, # of connection points: 2
#     Edge 25, Type (0, 0), BuildingBlock: EZIPEK_clean_linker_0, # of connection points: 2
#     Edge 26, Type (0, 0), BuildingBlock: EZIPEK_clean_linker_0, # of connection points: 2
#     Edge 27, Type (0, 0), BuildingBlock: EZIPEK_clean_linker_0, # of connection points: 2
#     Edge 28, Type (0, 0), BuildingBlock: EZIPEK_clean_linker_0, # of connection points: 2
#     Edge 29, Type (0, 0), BuildingBlock: EZIPEK_clean_linker_0, # of connection points: 2
#     Edge 30, Type (0, 0), BuildingBlock: EZIPEK_clean_linker_0, # of connection points: 2
#     Edge 31, Type (0, 0), BuildingBlock: EZIPEK_clean_linker_0, # of connection points: 2
#     Edge 32, Type (0, 0), BuildingBlock: EZIPEK_clean_linker_0, # of connection points: 2
#     Edge 33, Type (0, 0), BuildingBlock: EZIPEK_clean_linker_0, # of connection points: 2
#     Edge 34, Type (0, 0), BuildingBlock: EZIPEK_clean_linker_0, # of connection points: 2
#     Edge 35, Type (0, 0), BuildingBlock: EZIPEK_clean_linker_0, # of connection points: 2
#     Edge 36, Type (0, 0), BuildingBlock: EZIPEK_clean_linker_0, # of connection points: 2
#     Edge 37, Type (0, 0), BuildingBlock: EZIPEK_clean_linker_0, # of connection points: 2
#     Edge 38, Type (0, 0), BuildingBlock: EZIPEK_clean_linker_0, # of connection points: 2
#     Edge 39, Type (0, 0), BuildingBlock: EZIPEK_clean_linker_0, # of connection points: 2
#     Edge 40, Type (0, 0), BuildingBlock: EZIPEK_clean_linker_0, # of connection points: 2
#     Edge 41, Type (0, 0), BuildingBlock: EZIPEK_clean_linker_0, # of connection points: 2
#     Edge 42, Type (0, 0), BuildingBlock: EZIPEK_clean_linker_0, # of connection points: 2
#     Edge 43, Type (0, 0), BuildingBlock: EZIPEK_clean_linker_0, # of connection points: 2
#     Edge 44, Type (0, 0), BuildingBlock: EZIPEK_clean_linker_0, # of connection points: 2
#     Edge 45, Type (0, 0), BuildingBlock: EZIPEK_clean_linker_0, # of connection points: 2
#     Edge 46, Type (0, 0), BuildingBlock: EZIPEK_clean_linker_0, # of connection points: 2
#     Edge 47, Type (0, 0), BuildingBlock: EZIPEK_clean_linker_0, # of connection points: 2
#     Edge 48, Type (0, 0), BuildingBlock: EZIPEK_clean_linker_0, # of connection points: 2
#     Edge 49, Type (0, 0), BuildingBlock: EZIPEK_clean_linker_0, # of connection points: 2
#     Edge 50, Type (0, 0), BuildingBlock: EZIPEK_clean_linker_0, # of connection points: 2
#     Edge 51, Type (0, 0), BuildingBlock: EZIPEK_clean_linker_0, # of connection points: 2
#     Edge 52, Type (0, 0), BuildingBlock: EZIPEK_clean_linker_0, # of connection points: 2
#     Edge 53, Type (0, 0), BuildingBlock: EZIPEK_clean_linker_0, # of connection points: 2
#     Edge 54, Type (0, 0), BuildingBlock: EZIPEK_clean_linker_0, # of connection points: 2
#     Edge 55, Type (0, 0), BuildingBlock: EZIPEK_clean_linker_0, # of connection points: 2
#     Edge 56, Type (0, 0), BuildingBlock: EZIPEK_clean_linker_0, # of connection points: 2
#     Edge 57, Type (0, 0), BuildingBlock: EZIPEK_clean_linker_0, # of connection points: 2
#     Edge 58, Type (0, 0), BuildingBlock: EZIPEK_clean_linker_0, # of connection points: 2
#     Edge 59, Type (0, 0), BuildingBlock: EZIPEK_clean_linker_0, # of connection points: 2
#     Edge 60, Type (0, 0), BuildingBlock: EZIPEK_clean_linker_0, # of connection points: 2
#     Edge 61, Type (0, 0), BuildingBlock: EZIPEK_clean_linker_0, # of connection points: 2
#     Edge 62, Type (0, 0), BuildingBlock: EZIPEK_clean_linker_0, # of connection points: 2
#     Edge 63, Type (0, 0), BuildingBlock: EZIPEK_clean_linker_0, # of connection points: 2
#     Edge 64, Type (0, 0), BuildingBlock: EZIPEK_clean_linker_0, # of connection points: 2
#     Edge 65, Type (0, 0), BuildingBlock: EZIPEK_clean_linker_0, # of connection points: 2
#     Edge 66, Type (0, 0), BuildingBlock: EZIPEK_clean_linker_0, # of connection points: 2
#     Edge 67, Type (0, 0), BuildingBlock: EZIPEK_clean_linker_0, # of connection points: 2
#     Edge 68, Type (0, 0), BuildingBlock: EZIPEK_clean_linker_0, # of connection points: 2
#     Edge 69, Type (0, 0), BuildingBlock: EZIPEK_clean_linker_0, # of connection points: 2
#     Edge 70, Type (0, 0), BuildingBlock: EZIPEK_clean_linker_0, # of connection points: 2
#     Edge 71, Type (0, 0), BuildingBlock: EZIPEK_clean_linker_0, # of connection points: 2
# Relax obj value: 0.139
# Max RMSD: 0.174
# Mean RMSD: 0.174
data_MOF--net-hbo--node1-ICAMEG_clean_sbu_1--edge1-EZIPEK_clean_linker_0
_symmetry_space_group_name_H-M    P1
_symmetry_Int_Tables_number       1
_symmetry_cell_setting            triclinic
loop_
_symmetry_equiv_pos_as_xyz
'x, y, z'
_cell_length_a     42.018811
_cell_length_b     42.012842
_cell_length_c     41.98441
_cell_angle_alpha  89.992607
_cell_angle_beta   90.01509
_cell_angle_gamma 89.930895
loop_
_atom_site_label
_atom_site_type_symbol
_atom_site_fract_x
_atom_site_fract_y
_atom_site_fract_z
_atom_type_partial_charge
Co0 Co 0.17443 0.38435 0.27381 0.0
Co1 Co 0.12855 0.32827 0.23545 0.0
O2 O 0.13618 0.37161 0.25059 0.0
C3 C 0.16825 0.43455 0.22309 0.0
O4 O 0.16063 0.41301 0.2018 0.0
C5 C 0.06897 0.3397 0.27234 0.0
O6 O 0.08614 0.34647 0.29758 0.0
O7 O 0.1378 0.31017 0.27853 0.0
O8 O 0.17526 0.34266 0.29767 0.0
H9 H 0.14912 0.21088 0.22775 0.0
H10 H 0.11677 0.42467 0.27197 0.0
O11 O 0.1748 0.42666 0.25159 0.0
H12 H 0.13833 0.4083 0.38618 0.0
H13 H 0.24484 0.46167 0.33257 0.0
H14 H 0.23511 0.35251 0.29065 0.0
H15 H 0.1736 0.38531 0.34554 0.0
H16 H 0.19605 0.44472 0.30474 0.0
O17 O 0.08221 0.33253 0.24605 0.0
H18 H 0.16106 0.26607 0.24335 0.0
H19 H 0.07755 0.29832 0.19621 0.0
H20 H 0.28417 0.36833 0.31863 0.0
H21 H 0.08138 0.44917 0.3118 0.0
H22 H 0.28927 0.42328 0.33986 0.0
H23 H 0.09183 0.44079 0.36941 0.0
O24 O 0.20234 0.36544 0.23993 0.0
H25 H 0.07856 0.40461 0.15803 0.0
H26 H 0.15117 0.31303 0.1698 0.0
H27 H 0.1421 0.33608 0.11654 0.0
H28 H 0.1055 0.38215 0.11039 0.0
H29 H 0.08863 0.38109 0.21091 0.0
H30 H 0.06522 0.24346 0.17943 0.0
H31 H 0.10118 0.19921 0.19527 0.0
O32 O 0.17431 0.32266 0.22399 0.0
C33 C 0.15909 0.31689 0.2992 0.0
C34 C 0.13355 0.22993 0.22034 0.0
C35 C 0.08636 0.24822 0.19336 0.0
N36 N 0.12016 0.28544 0.2205 0.0
C37 C 0.14013 0.26127 0.22915 0.0
C38 C 0.09351 0.27925 0.20287 0.0
C39 C 0.10653 0.22342 0.20225 0.0
C40 C 0.12161 0.42091 0.29697 0.0
N41 N 0.14704 0.40286 0.30633 0.0
C42 C 0.10144 0.43488 0.31943 0.0
C43 C 0.10729 0.43015 0.35173 0.0
C44 C 0.1333 0.41185 0.36115 0.0
C45 C 0.15304 0.39842 0.33799 0.0
C46 C 0.24285 0.43761 0.32357 0.0
C47 C 0.23702 0.37636 0.30004 0.0
C48 C 0.21528 0.42787 0.30775 0.0
N49 N 0.2125 0.39745 0.29652 0.0
C50 C 0.26491 0.38523 0.31578 0.0
C51 C 0.26777 0.41607 0.32765 0.0
C52 C 0.19967 0.33924 0.22465 0.0
C53 C 0.09446 0.38445 0.16038 0.0
C54 C 0.1353 0.33315 0.16734 0.0
C55 C 0.13019 0.34605 0.13711 0.0
C56 C 0.10963 0.37188 0.13367 0.0
N57 N 0.12033 0.34562 0.19342 0.0
C58 C 0.10013 0.37093 0.19024 0.0
Co59 Co 0.18337 0.63243 0.73496 0.0
Co60 Co 0.12366 0.67133 0.77511 0.0
O61 O 0.13929 0.63477 0.75049 0.0
C62 C 0.16641 0.56495 0.75472 0.0
O63 O 0.14049 0.57504 0.76882 0.0
C64 C 0.07155 0.66556 0.72667 0.0
O65 O 0.09239 0.66517 0.70341 0.0
O66 O 0.13722 0.70133 0.74047 0.0
O67 O 0.18388 0.67929 0.72688 0.0
H68 H 0.12729 0.7834 0.81687 0.0
H69 H 0.13041 0.59488 0.7065 0.0
O70 O 0.18545 0.58464 0.74159 0.0
H71 H 0.1778 0.65428 0.61713 0.0
H72 H 0.27624 0.5871 0.67352 0.0
H73 H 0.24032 0.67213 0.74597 0.0
H74 H 0.19983 0.65929 0.67126 0.0
H75 H 0.22068 0.58877 0.69233 0.0
O76 O 0.08044 0.66733 0.75552 0.0
H77 H 0.14771 0.73642 0.78826 0.0
H78 H 0.06423 0.68464 0.8118 0.0
H79 H 0.29563 0.672 0.72706 0.0
H80 H 0.10765 0.58921 0.65278 0.0
H81 H 0.31416 0.62908 0.6907 0.0
H82 H 0.13144 0.61894 0.60755 0.0
O83 O 0.19979 0.63928 0.77915 0.0
H84 H 0.06887 0.57412 0.81805 0.0
H85 H 0.13316 0.66808 0.84584 0.0
H86 H 0.11735 0.63062 0.88802 0.0
H87 H 0.08486 0.58322 0.87427 0.0
H88 H 0.08573 0.61195 0.77651 0.0
H89 H 0.04285 0.73109 0.84059 0.0
H90 H 0.07451 0.78091 0.84339 0.0
O91 O 0.16615 0.67657 0.79657 0.0
C92 C 0.16413 0.7023 0.72638 0.0
C93 C 0.11336 0.76177 0.81602 0.0
C94 C 0.066 0.7324 0.82936 0.0
N95 N 0.10758 0.70753 0.79896 0.0
C96 C 0.12484 0.73504 0.79991 0.0
C97 C 0.0783 0.70612 0.81311 0.0
C98 C 0.08374 0.76035 0.83088 0.0
C99 C 0.14118 0.60763 0.68697 0.0
N100 N 0.1671 0.62659 0.69198 0.0
C101 C 0.12808 0.60441 0.65657 0.0
C102 C 0.1414 0.62113 0.63122 0.0
C103 C 0.16745 0.6409 0.63657 0.0
C104 C 0.17993 0.6435 0.66729 0.0
C105 C 0.26852 0.60588 0.68939 0.0
C106 C 0.24798 0.65356 0.72992 0.0
C107 C 0.2371 0.60684 0.70025 0.0
N108 N 0.22711 0.63064 0.72007 0.0
C109 C 0.27947 0.65349 0.71942 0.0
C110 C 0.28978 0.62945 0.69902 0.0
C111 C 0.19205 0.6608 0.79924 0.0
C112 C 0.08305 0.59467 0.82435 0.0
C113 C 0.11944 0.64738 0.83953 0.0
C114 C 0.11034 0.62631 0.86359 0.0
C115 C 0.09206 0.59976 0.85588 0.0
N116 N 0.11066 0.64216 0.80862 0.0
C117 C 0.09258 0.61626 0.80094 0.0
Co118 Co 0.84251 0.62505 0.28411 0.0
Co119 Co 0.87952 0.68383 0.23956 0.0
O120 O 0.8779 0.64094 0.25797 0.0
C121 C 0.86057 0.56879 0.24144 0.0
O122 O 0.87934 0.58575 0.22317 0.0
C123 C 0.93903 0.67811 0.27701 0.0
O124 O 0.92171 0.66754 0.30073 0.0
O125 O 0.86779 0.70359 0.28113 0.0
O126 O 0.83656 0.66769 0.30471 0.0
H127 H 0.83633 0.79288 0.21709 0.0
H128 H 0.90525 0.59315 0.28501 0.0
O129 O 0.84621 0.58132 0.26505 0.0
H130 H 0.88418 0.62177 0.39675 0.0
H131 H 0.78855 0.54274 0.35263 0.0
H132 H 0.77726 0.64709 0.30084 0.0
H133 H 0.8451 0.63407 0.35481 0.0
H134 H 0.83272 0.56558 0.32169 0.0
O135 O 0.92595 0.68679 0.25103 0.0
H136 H 0.83576 0.739 0.24007 0.0
H137 H 0.9272 0.7202 0.20119 0.0
H138 H 0.73232 0.62547 0.33152 0.0
H139 H 0.94513 0.57999 0.32615 0.0
H140 H 0.73785 0.57278 0.35787 0.0
H141 H 0.93466 0.59439 0.38257 0.0
O142 O 0.81154 0.63732 0.2499 0.0
H143 H 0.9418 0.61178 0.16692 0.0
H144 H 0.8575 0.69329 0.17272 0.0
H145 H 0.87184 0.67027 0.12066 0.0
H146 H 0.91426 0.62914 0.11751 0.0
H147 H 0.92654 0.63536 0.21845 0.0
H148 H 0.92917 0.77436 0.1785 0.0
H149 H 0.88339 0.81106 0.18621 0.0
O150 O 0.83342 0.68087 0.22706 0.0
C151 C 0.84913 0.69528 0.30356 0.0
C152 C 0.85647 0.77721 0.21359 0.0
C153 C 0.90855 0.76676 0.19192 0.0
N154 N 0.88129 0.72637 0.22171 0.0
C155 C 0.85619 0.74655 0.22638 0.0
C156 C 0.90737 0.73617 0.20494 0.0
C157 C 0.88285 0.78734 0.19625 0.0
C158 C 0.90055 0.59926 0.30948 0.0
N159 N 0.8728 0.61407 0.3174 0.0
C160 C 0.9232 0.59183 0.33269 0.0
C161 C 0.91733 0.59994 0.36431 0.0
C162 C 0.88903 0.61531 0.37228 0.0
C163 C 0.86698 0.6223 0.34837 0.0
C164 C 0.78583 0.56577 0.34138 0.0
C165 C 0.77977 0.62437 0.31206 0.0
C166 C 0.81079 0.57886 0.32377 0.0
N167 N 0.8077 0.60804 0.30957 0.0
C168 C 0.75428 0.61213 0.32952 0.0
C169 C 0.7574 0.58261 0.34428 0.0
C170 C 0.81064 0.66105 0.23071 0.0
C171 C 0.92325 0.62964 0.16796 0.0
C172 C 0.87593 0.67535 0.17159 0.0
C173 C 0.88399 0.66244 0.14201 0.0
C174 C 0.90779 0.63938 0.14026 0.0
N175 N 0.89102 0.66548 0.1987 0.0
C176 C 0.91455 0.6431 0.19711 0.0
Co177 Co 0.87596 0.34022 0.77267 0.0
Co178 Co 0.82349 0.37931 0.72246 0.0
O179 O 0.86417 0.37582 0.74489 0.0
C180 C 0.92914 0.34304 0.72574 0.0
O181 O 0.90845 0.34677 0.70263 0.0
C182 C 0.82616 0.43965 0.75959 0.0
O183 O 0.83315 0.42291 0.78507 0.0
O184 O 0.79934 0.36832 0.76201 0.0
O185 O 0.83214 0.33942 0.79225 0.0
H186 H 0.71335 0.34408 0.69228 0.0
H187 H 0.91713 0.39729 0.7707 0.0
O188 O 0.92001 0.33991 0.75445 0.0
H189 H 0.8823 0.38899 0.88247 0.0
H190 H 0.95005 0.28062 0.84582 0.0
H191 H 0.84621 0.27887 0.79128 0.0
H192 H 0.86495 0.34964 0.8428 0.0
H193 H 0.93334 0.32557 0.81195 0.0
O194 O 0.82137 0.42595 0.73299 0.0
H195 H 0.76533 0.33963 0.71917 0.0
H196 H 0.79468 0.4276 0.67889 0.0
H197 H 0.86185 0.2335 0.82503 0.0
H198 H 0.93602 0.43664 0.80985 0.0
H199 H 0.91412 0.23421 0.85268 0.0
H200 H 0.91834 0.43286 0.86615 0.0
O201 O 0.86215 0.30837 0.73989 0.0
H202 H 0.90661 0.43652 0.65835 0.0
H203 H 0.82149 0.35585 0.65539 0.0
H204 H 0.85201 0.36738 0.60659 0.0
H205 H 0.89486 0.40805 0.60785 0.0
H206 H 0.87582 0.42392 0.70672 0.0
H207 H 0.7429 0.4331 0.6517 0.0
H208 H 0.70186 0.3911 0.65824 0.0
O209 O 0.82478 0.33343 0.71075 0.0
C210 C 0.80482 0.3517 0.78697 0.0
C211 C 0.73108 0.36249 0.68913 0.0
C212 C 0.74766 0.41247 0.6664 0.0
N213 N 0.78312 0.3832 0.70037 0.0
C214 C 0.76061 0.36006 0.70422 0.0
C215 C 0.77692 0.40925 0.68188 0.0
C216 C 0.72464 0.38889 0.67008 0.0
C217 C 0.90958 0.39519 0.79521 0.0
N218 N 0.88969 0.37113 0.80432 0.0
C219 C 0.92028 0.41766 0.81727 0.0
C220 C 0.91032 0.41557 0.84883 0.0
C221 C 0.89004 0.39101 0.85797 0.0
C222 C 0.87999 0.36887 0.83529 0.0
C223 C 0.92714 0.28011 0.83405 0.0
C224 C 0.86889 0.27944 0.8033 0.0
C225 C 0.91751 0.30551 0.81486 0.0
N226 N 0.88852 0.30512 0.80005 0.0
C227 C 0.87766 0.25365 0.82237 0.0
C228 C 0.90699 0.25406 0.83786 0.0
C229 C 0.84125 0.30899 0.71778 0.0
C230 C 0.88791 0.41885 0.65746 0.0
C231 C 0.84016 0.37352 0.65617 0.0
C232 C 0.85732 0.37999 0.62844 0.0
C233 C 0.88134 0.40282 0.62915 0.0
N234 N 0.84673 0.38935 0.68384 0.0
C235 C 0.87029 0.41172 0.68474 0.0
Co236 Co 0.21906 0.1331 0.32419 0.0
Co237 Co 0.26964 0.16526 0.38112 0.0
O238 O 0.23997 0.13289 0.3658 0.0
C239 C 0.25384 0.07166 0.32715 0.0
O240 O 0.27812 0.0876 0.33854 0.0
C241 C 0.22061 0.16207 0.43259 0.0
O242 O 0.19793 0.16359 0.41116 0.0
O243 O 0.23882 0.2001 0.36948 0.0
O244 O 0.20933 0.18011 0.32907 0.0
H245 H 0.3453 0.25896 0.37505 0.0
H246 H 0.20033 0.08901 0.37613 0.0
O247 O 0.22822 0.0861 0.31953 0.0
H248 H 0.10102 0.14215 0.34327 0.0
H249 H 0.15225 0.08681 0.23593 0.0
H250 H 0.21837 0.17765 0.26968 0.0
H251 H 0.15184 0.15498 0.31688 0.0
H252 H 0.17663 0.08774 0.2894 0.0
O253 O 0.24978 0.16221 0.42449 0.0
H254 H 0.30828 0.21963 0.35363 0.0
H255 H 0.29996 0.17639 0.44464 0.0
H256 H 0.19444 0.1777 0.21615 0.0
H257 H 0.1502 0.07564 0.4034 0.0
H258 H 0.16105 0.1321 0.1989 0.0
H259 H 0.1 0.10231 0.38699 0.0
O260 O 0.25953 0.14327 0.30177 0.0
H261 H 0.30188 0.06191 0.4322 0.0
H262 H 0.33841 0.15317 0.36811 0.0
H263 H 0.37617 0.11027 0.38146 0.0
H264 H 0.35799 0.06421 0.41376 0.0
H265 H 0.26483 0.10515 0.41794 0.0
H266 H 0.33675 0.21554 0.46707 0.0
H267 H 0.35974 0.25745 0.43237 0.0
O268 O 0.28965 0.16885 0.33777 0.0
C269 C 0.21765 0.20305 0.34757 0.0
C270 C 0.33488 0.24128 0.39064 0.0
C271 C 0.33006 0.21697 0.44221 0.0
N272 N 0.2997 0.19669 0.39795 0.0
C273 C 0.31338 0.21898 0.3786 0.0
C274 C 0.30863 0.19507 0.42932 0.0
C275 C 0.34304 0.24039 0.42274 0.0
C276 C 0.17868 0.10078 0.36892 0.0
N277 N 0.17912 0.12293 0.3451 0.0
C278 C 0.15032 0.09308 0.38442 0.0
C279 C 0.12217 0.10804 0.3752 0.0
C280 C 0.12272 0.13037 0.35066 0.0
C281 C 0.15157 0.13752 0.33579 0.0
C282 C 0.16667 0.10687 0.24318 0.0
C283 C 0.20365 0.15782 0.2625 0.0
C284 C 0.18058 0.10751 0.2734 0.0
N285 N 0.19863 0.13289 0.28276 0.0
C286 C 0.19028 0.1579 0.23208 0.0
C287 C 0.17159 0.13229 0.22242 0.0
C288 C 0.28422 0.15895 0.30951 0.0
C289 C 0.31011 0.08187 0.41815 0.0
C290 C 0.33022 0.13315 0.38202 0.0
C291 C 0.35177 0.10896 0.38959 0.0
C292 C 0.34157 0.08315 0.40775 0.0
N293 N 0.29936 0.13165 0.39218 0.0
C294 C 0.28925 0.1065 0.41011 0.0
Co295 Co 0.33039 0.78218 0.87959 0.0
Co296 Co 0.37548 0.72574 0.83889 0.0
O297 O 0.36735 0.75441 0.8746 0.0
C298 C 0.33049 0.7412 0.93759 0.0
O299 O 0.33568 0.71621 0.91957 0.0
C300 C 0.43179 0.76854 0.84183 0.0
O301 O 0.41264 0.79294 0.8456 0.0
O302 O 0.36322 0.75942 0.8075 0.0
O303 O 0.33336 0.79572 0.83371 0.0
H304 H 0.35144 0.66539 0.73762 0.0
H305 H 0.38513 0.78795 0.92391 0.0
O306 O 0.32744 0.76877 0.92542 0.0
H307 H 0.37202 0.8944 0.87634 0.0
H308 H 0.2586 0.85314 0.94451 0.0
H309 H 0.27808 0.80899 0.83782 0.0
H310 H 0.33612 0.85048 0.86145 0.0
H311 H 0.30549 0.81986 0.93456 0.0
O312 O 0.42084 0.74059 0.83798 0.0
H313 H 0.33887 0.70017 0.78299 0.0
H314 H 0.43208 0.68734 0.81982 0.0
H315 H 0.23047 0.84134 0.84711 0.0
H316 H 0.42139 0.83122 0.93982 0.0
H317 H 0.22038 0.86393 0.90071 0.0
H318 H 0.41505 0.88491 0.91583 0.0
O319 O 0.30097 0.74685 0.86692 0.0
H320 H 0.43211 0.68243 0.93506 0.0
H321 H 0.36079 0.65668 0.84547 0.0
H322 H 0.37539 0.61464 0.88382 0.0
H323 H 0.41131 0.62743 0.92905 0.0
H324 H 0.41657 0.72374 0.89631 0.0
H325 H 0.4455 0.65231 0.77494 0.0
H326 H 0.40505 0.64115 0.73331 0.0
O327 O 0.33003 0.71062 0.83965 0.0
C328 C 0.34638 0.78485 0.8084 0.0
C329 C 0.36932 0.67042 0.75543 0.0
C330 C 0.42213 0.66308 0.77632 0.0
N331 N 0.38494 0.69708 0.80359 0.0
C332 C 0.36242 0.69045 0.78108 0.0
C333 C 0.41441 0.68328 0.80158 0.0
C334 C 0.39943 0.65677 0.75302 0.0
C335 C 0.38211 0.81125 0.91354 0.0
N336 N 0.35865 0.8166 0.89166 0.0
C337 C 0.40274 0.83567 0.92258 0.0
C338 C 0.39919 0.86577 0.90909 0.0
C339 C 0.37508 0.87111 0.88693 0.0
C340 C 0.35487 0.84611 0.87852 0.0
C341 C 0.26235 0.84289 0.92116 0.0
C342 C 0.27347 0.81728 0.86154 0.0
C343 C 0.28877 0.82353 0.91539 0.0
N344 N 0.29374 0.8102 0.88602 0.0
C345 C 0.24665 0.83633 0.8665 0.0
C346 C 0.241 0.84903 0.89658 0.0
C347 C 0.30362 0.72097 0.85087 0.0
C348 C 0.41633 0.67657 0.91555 0.0
C349 C 0.37611 0.66249 0.8653 0.0
C350 C 0.38445 0.63856 0.88684 0.0
C351 C 0.40464 0.64573 0.91217 0.0
N352 N 0.3873 0.69278 0.86902 0.0
C353 C 0.40743 0.69989 0.89355 0.0
Co354 Co 0.77977 0.8774 0.33531 0.0
Co355 Co 0.72768 0.83396 0.38266 0.0
O356 O 0.75323 0.87128 0.37292 0.0
C357 C 0.73342 0.93065 0.33484 0.0
O358 O 0.71087 0.91004 0.34119 0.0
C359 C 0.77221 0.84072 0.4372 0.0
O360 O 0.79547 0.84531 0.41687 0.0
O361 O 0.76358 0.80493 0.37105 0.0
O362 O 0.7972 0.83281 0.33949 0.0
H363 H 0.66622 0.73234 0.36107 0.0
H364 H 0.78193 0.92325 0.38913 0.0
O365 O 0.76211 0.92164 0.33108 0.0
H366 H 0.89229 0.88588 0.37545 0.0
H367 H 0.84746 0.94511 0.26336 0.0
H368 H 0.80423 0.83775 0.28075 0.0
H369 H 0.84957 0.86634 0.34024 0.0
H370 H 0.81464 0.93372 0.31042 0.0
O371 O 0.7439 0.83566 0.42763 0.0
H372 H 0.69737 0.77896 0.34637 0.0
H373 H 0.69623 0.81111 0.4424 0.0
H374 H 0.83693 0.84812 0.23346 0.0
H375 H 0.82387 0.94375 0.42467 0.0
H376 H 0.85885 0.90213 0.22438 0.0
H377 H 0.87954 0.92491 0.41805 0.0
O378 O 0.74576 0.8606 0.30647 0.0
H379 H 0.67644 0.92605 0.43944 0.0
H380 H 0.65931 0.83753 0.36431 0.0
H381 H 0.61456 0.87303 0.37781 0.0
H382 H 0.62296 0.91765 0.41569 0.0
H383 H 0.72063 0.89029 0.42486 0.0
H384 H 0.66481 0.76468 0.45789 0.0
H385 H 0.64968 0.72454 0.41726 0.0
O386 O 0.71241 0.832 0.33744 0.0
C387 C 0.78843 0.80706 0.35345 0.0
C388 C 0.67343 0.74917 0.3792 0.0
C389 C 0.67262 0.76731 0.43346 0.0
N390 N 0.70139 0.79704 0.39374 0.0
C391 C 0.69184 0.77562 0.37109 0.0
C392 C 0.69106 0.79346 0.42449 0.0
C393 C 0.66404 0.74487 0.41067 0.0
C394 C 0.80606 0.91505 0.38603 0.0
N395 N 0.81321 0.89337 0.36286 0.0
C396 C 0.82974 0.92671 0.40624 0.0
C397 C 0.86095 0.9161 0.40254 0.0
C398 C 0.86812 0.89419 0.37867 0.0
C399 C 0.84381 0.88308 0.35891 0.0
C400 C 0.83777 0.92151 0.26686 0.0
C401 C 0.81306 0.86136 0.27695 0.0
C402 C 0.81885 0.91492 0.29339 0.0
N403 N 0.80645 0.88517 0.29811 0.0
C404 C 0.83187 0.86708 0.25013 0.0
C405 C 0.8442 0.89739 0.24504 0.0
C406 C 0.72157 0.84255 0.31041 0.0
C407 C 0.67245 0.90666 0.42296 0.0
C408 C 0.66323 0.85698 0.38067 0.0
C409 C 0.63776 0.87696 0.3883 0.0
C410 C 0.64247 0.90197 0.40958 0.0
N411 N 0.69261 0.86184 0.39376 0.0
C412 C 0.69738 0.88623 0.41472 0.0
Co413 Co 0.67274 0.22841 0.86106 0.0
Co414 Co 0.61881 0.28238 0.82936 0.0
O415 O 0.63199 0.25127 0.86181 0.0
C416 C 0.66813 0.25414 0.92797 0.0
O417 O 0.65269 0.27896 0.91694 0.0
C418 C 0.56348 0.23755 0.83124 0.0
O419 O 0.583 0.21318 0.83185 0.0
O420 O 0.6295 0.25189 0.79404 0.0
O421 O 0.66919 0.22221 0.8144 0.0
H422 H 0.62689 0.34297 0.72623 0.0
H423 H 0.61875 0.20856 0.902 0.0
O424 O 0.67803 0.23284 0.90877 0.0
H425 H 0.64473 0.11444 0.83684 0.0
H426 H 0.75565 0.15098 0.90051 0.0
H427 H 0.72884 0.23064 0.8185 0.0
H428 H 0.67567 0.16393 0.83132 0.0
H429 H 0.70381 0.17861 0.90156 0.0
O430 O 0.57402 0.26589 0.83041 0.0
H431 H 0.64452 0.30506 0.76733 0.0
H432 H 0.56228 0.32487 0.82253 0.0
H433 H 0.78085 0.20356 0.81653 0.0
H434 H 0.58724 0.15951 0.90837 0.0
H435 H 0.79453 0.16334 0.8577 0.0
H436 H 0.60022 0.11194 0.87568 0.0
O437 O 0.69636 0.269 0.85408 0.0
H438 H 0.56795 0.31245 0.93337 0.0
H439 H 0.63291 0.351 0.84374 0.0
H440 H 0.6202 0.38744 0.8878 0.0
H441 H 0.58733 0.36828 0.93305 0.0
H442 H 0.58186 0.27663 0.88905 0.0
H443 H 0.54362 0.36299 0.782 0.0
H444 H 0.57607 0.37238 0.73346 0.0
O445 O 0.66317 0.30073 0.82726 0.0
C446 C 0.65095 0.23039 0.79171 0.0
C447 C 0.61259 0.33922 0.74734 0.0
C448 C 0.5659 0.35047 0.77864 0.0
N449 N 0.60485 0.31307 0.79761 0.0
C450 C 0.62252 0.31775 0.77073 0.0
C451 C 0.57664 0.32886 0.80155 0.0
C452 C 0.58409 0.3557 0.75141 0.0
C453 C 0.6248 0.18784 0.88798 0.0
N454 N 0.64959 0.18888 0.86696 0.0
C455 C 0.60678 0.16017 0.89159 0.0
C456 C 0.61404 0.13352 0.87321 0.0
C457 C 0.63905 0.13488 0.85146 0.0
C458 C 0.65656 0.16296 0.84853 0.0
C459 C 0.74994 0.16843 0.88242 0.0
C460 C 0.73454 0.2131 0.83647 0.0
C461 C 0.72065 0.18419 0.88293 0.0
N462 N 0.7132 0.20608 0.86002 0.0
C463 C 0.76408 0.1979 0.83526 0.0
C464 C 0.77175 0.17537 0.85839 0.0
C465 C 0.69063 0.29483 0.83895 0.0
C466 C 0.58227 0.32111 0.91378 0.0
C467 C 0.61904 0.3423 0.86341 0.0
C468 C 0.61169 0.36314 0.88827 0.0
C469 C 0.5932 0.3524 0.91362 0.0
N470 N 0.60832 0.31161 0.86372 0.0
C471 C 0.5901 0.30097 0.8885 0.0
Co472 Co 0.27799 0.82837 0.62342 0.0
Co473 Co 0.24567 0.8805 0.67726 0.0
O474 O 0.26064 0.87002 0.63449 0.0
C475 C 0.23074 0.84057 0.57167 0.0
O476 O 0.20932 0.84827 0.59308 0.0
C477 C 0.28939 0.93408 0.66245 0.0
O478 O 0.31159 0.91345 0.65477 0.0
O479 O 0.28711 0.86656 0.69619 0.0
O480 O 0.29893 0.82415 0.66634 0.0
H481 H 0.23095 0.86293 0.79459 0.0
H482 H 0.28916 0.88338 0.5807 0.0
O483 O 0.25843 0.83157 0.57999 0.0
H484 H 0.39608 0.84621 0.6118 0.0
H485 H 0.32986 0.74902 0.54993 0.0
H486 H 0.28016 0.76526 0.65505 0.0
H487 H 0.34815 0.81889 0.63155 0.0
H488 H 0.31002 0.80198 0.56569 0.0
O489 O 0.26222 0.92485 0.67205 0.0
H490 H 0.24796 0.84885 0.74035 0.0
H491 H 0.21322 0.9371 0.70536 0.0
H492 H 0.29974 0.71193 0.64032 0.0
H493 H 0.33648 0.91105 0.55987 0.0
H494 H 0.32492 0.70355 0.58744 0.0
H495 H 0.39043 0.8926 0.57554 0.0
O496 O 0.23905 0.80681 0.64042 0.0
H497 H 0.17642 0.93837 0.59864 0.0
H498 H 0.17749 0.86685 0.69179 0.0
H499 H 0.1262 0.88232 0.66777 0.0
H500 H 0.12545 0.91843 0.62091 0.0
H501 H 0.22721 0.9219 0.6231 0.0
H502 H 0.19599 0.95233 0.75941 0.0
H503 H 0.20473 0.91504 0.80453 0.0
O504 O 0.22825 0.83652 0.68362 0.0
C505 C 0.30365 0.84156 0.69088 0.0
C506 C 0.22679 0.8793 0.77518 0.0
C507 C 0.20724 0.92948 0.75541 0.0
N508 N 0.23116 0.89186 0.71961 0.0
C509 C 0.23625 0.87136 0.74433 0.0
C510 C 0.21704 0.92072 0.72485 0.0
C511 C 0.21215 0.90856 0.78071 0.0
C512 C 0.31254 0.87497 0.58739 0.0
N513 N 0.31583 0.84944 0.60731 0.0
C514 C 0.33926 0.89083 0.57561 0.0
C515 C 0.36952 0.8805 0.58445 0.0
C516 C 0.3727 0.85451 0.60482 0.0
C517 C 0.34544 0.8392 0.61609 0.0
C518 C 0.31917 0.75241 0.57314 0.0
C519 C 0.29128 0.76187 0.63209 0.0
C520 C 0.30796 0.78238 0.58223 0.0
N521 N 0.29462 0.7869 0.61158 0.0
C522 C 0.30225 0.73159 0.62385 0.0
C523 C 0.31635 0.72691 0.59417 0.0
C524 C 0.22507 0.8112 0.66709 0.0
C525 C 0.17643 0.92271 0.61911 0.0
C526 C 0.17738 0.88242 0.67129 0.0
C527 C 0.14825 0.89118 0.65786 0.0
C528 C 0.14785 0.91146 0.63159 0.0
N529 N 0.20532 0.89355 0.65892 0.0
C530 C 0.20511 0.91341 0.63315 0.0
Co531 Co 0.62845 0.72683 0.17454 0.0
Co532 Co 0.68623 0.76426 0.13062 0.0
O533 O 0.64297 0.74767 0.13544 0.0
C534 C 0.57679 0.77398 0.1627 0.0
O535 O 0.59812 0.79609 0.15717 0.0
C536 C 0.67715 0.7261 0.07133 0.0
O537 O 0.6665 0.70236 0.08864 0.0
O538 O 0.70478 0.72207 0.143 0.0
O539 O 0.67135 0.70665 0.18135 0.0
H540 H 0.80016 0.78018 0.16323 0.0
H541 H 0.59105 0.7193 0.11536 0.0
O542 O 0.58506 0.74565 0.16932 0.0
H543 H 0.62309 0.61046 0.1455 0.0
H544 H 0.54971 0.66663 0.24193 0.0
H545 H 0.65365 0.72091 0.24031 0.0
H546 H 0.63828 0.65629 0.17878 0.0
H547 H 0.56986 0.69091 0.19243 0.0
O548 O 0.68628 0.75182 0.08442 0.0
H549 H 0.7452 0.7607 0.16923 0.0
H550 H 0.71971 0.80188 0.08042 0.0
H551 H 0.63444 0.69695 0.29032 0.0
H552 H 0.57501 0.67412 0.08152 0.0
H553 H 0.58215 0.66943 0.29132 0.0
H554 H 0.59114 0.61921 0.09648 0.0
O555 O 0.64179 0.76437 0.20056 0.0
H556 H 0.61101 0.83645 0.07193 0.0
H557 H 0.6978 0.83141 0.15088 0.0
H558 H 0.67376 0.88332 0.13758 0.0
H559 H 0.63009 0.88607 0.09778 0.0
H560 H 0.6355 0.78502 0.08616 0.0
H561 H 0.77451 0.82165 0.07332 0.0
H562 H 0.81514 0.81093 0.11499 0.0
O563 O 0.68732 0.7781 0.17623 0.0
C564 C 0.69761 0.70377 0.16628 0.0
C565 C 0.78264 0.78516 0.14498 0.0
C566 C 0.76825 0.80838 0.0945 0.0
N567 N 0.72915 0.78044 0.1254 0.0
C568 C 0.75143 0.77428 0.14831 0.0
C569 C 0.73726 0.79709 0.09864 0.0
C570 C 0.79104 0.80236 0.11789 0.0
C571 C 0.59795 0.69546 0.12217 0.0
N572 N 0.61562 0.69048 0.14904 0.0
C573 C 0.58888 0.66998 0.10285 0.0
C574 C 0.59798 0.63919 0.11123 0.0
C575 C 0.61594 0.63427 0.1387 0.0
C576 C 0.62462 0.66035 0.15741 0.0
C577 C 0.57266 0.6783 0.24174 0.0
C578 C 0.63098 0.70881 0.24048 0.0
C579 C 0.58425 0.69201 0.21375 0.0
N580 N 0.6133 0.70663 0.21326 0.0
C581 C 0.62018 0.69534 0.2689 0.0
C582 C 0.59084 0.67993 0.26945 0.0
C583 C 0.66797 0.77967 0.19961 0.0
C584 C 0.63012 0.83558 0.0892 0.0
C585 C 0.67877 0.8324 0.13359 0.0
C586 C 0.66529 0.86187 0.1261 0.0
C587 C 0.64079 0.8634 0.10376 0.0
N588 N 0.6682 0.80523 0.11916 0.0
C589 C 0.64418 0.80654 0.09725 0.0
Co590 Co 0.73426 0.17674 0.61377 0.0
Co591 Co 0.76501 0.1274 0.67235 0.0
O592 O 0.75089 0.13618 0.62904 0.0
C593 C 0.78525 0.16282 0.56576 0.0
O594 O 0.80583 0.15696 0.58855 0.0
C595 C 0.71953 0.07408 0.65971 0.0
O596 O 0.69875 0.09422 0.64789 0.0
O597 O 0.72444 0.14589 0.69009 0.0
O598 O 0.71076 0.18396 0.65463 0.0
H599 H 0.77298 0.14161 0.79189 0.0
H600 H 0.72664 0.11925 0.57338 0.0
O601 O 0.75679 0.17083 0.57218 0.0
H602 H 0.61745 0.15388 0.59903 0.0
H603 H 0.68061 0.24429 0.53037 0.0
H604 H 0.73738 0.24646 0.6326 0.0
H605 H 0.66366 0.18408 0.61887 0.0
H606 H 0.70102 0.19483 0.55382 0.0
O607 O 0.74619 0.08365 0.67029 0.0
H608 H 0.75517 0.1552 0.73822 0.0
H609 H 0.80063 0.07312 0.70089 0.0
H610 H 0.7167 0.29611 0.61057 0.0
H611 H 0.68109 0.08875 0.55255 0.0
H612 H 0.68789 0.2955 0.55895 0.0
H613 H 0.62601 0.10596 0.56545 0.0
O614 O 0.77162 0.20009 0.6328 0.0
H615 H 0.83017 0.06063 0.59728 0.0
H616 H 0.83409 0.13906 0.68457 0.0
H617 H 0.88416 0.11956 0.66093 0.0
H618 H 0.8824 0.0799 0.61711 0.0
H619 H 0.78065 0.08128 0.62108 0.0
H620 H 0.81854 0.05825 0.75454 0.0
H621 H 0.80516 0.09282 0.80061 0.0
O622 O 0.78472 0.17052 0.67579 0.0
C623 C 0.70836 0.17065 0.68194 0.0
C624 C 0.77991 0.12691 0.7719 0.0
C625 C 0.80534 0.0801 0.75098 0.0
N626 N 0.77904 0.11674 0.7155 0.0
C627 C 0.77041 0.13498 0.74105 0.0
C628 C 0.79539 0.08894 0.72048 0.0
C629 C 0.79777 0.09943 0.77681 0.0
C630 C 0.70275 0.12717 0.57875 0.0
N631 N 0.69786 0.1536 0.59711 0.0
C632 C 0.67705 0.10969 0.56703 0.0
C633 C 0.64616 0.11931 0.57434 0.0
C634 C 0.64134 0.14617 0.59321 0.0
C635 C 0.66761 0.16308 0.60452 0.0
C636 C 0.69223 0.2448 0.55338 0.0
C637 C 0.72341 0.24523 0.61133 0.0
C638 C 0.70354 0.21669 0.56711 0.0
N639 N 0.71796 0.21683 0.5964 0.0
C640 C 0.71237 0.27382 0.59839 0.0
C641 C 0.6964 0.27351 0.56935 0.0
C642 C 0.78625 0.19616 0.65942 0.0
C643 C 0.83125 0.0778 0.61648 0.0
C644 C 0.8331 0.12203 0.6653 0.0
C645 C 0.86154 0.11095 0.65212 0.0
C646 C 0.86054 0.08867 0.62756 0.0
N647 N 0.80444 0.11111 0.65443 0.0
C648 C 0.80328 0.08945 0.63018 0.0
Co649 Co 0.37833 0.26896 0.17101 0.0
Co650 Co 0.3298 0.21347 0.13374 0.0
O651 O 0.36758 0.2406 0.13579 0.0
C652 C 0.43398 0.22584 0.16623 0.0
O653 O 0.41421 0.20176 0.16442 0.0
C654 C 0.32682 0.25402 0.07566 0.0
O655 O 0.33474 0.27856 0.09327 0.0
O656 O 0.30137 0.24879 0.14908 0.0
O657 O 0.33335 0.28381 0.17406 0.0
H658 H 0.23025 0.16105 0.17483 0.0
H659 H 0.41777 0.27267 0.11251 0.0
O660 O 0.42371 0.25424 0.16893 0.0
H661 H 0.36888 0.3788 0.124 0.0
H662 H 0.44983 0.34514 0.22968 0.0
H663 H 0.34556 0.29153 0.22994 0.0
H664 H 0.35829 0.33667 0.16346 0.0
H665 H 0.435 0.3089 0.18606 0.0
O666 O 0.32294 0.22669 0.08818 0.0
H667 H 0.27714 0.19591 0.17801 0.0
H668 H 0.30231 0.17213 0.083 0.0
H669 H 0.35924 0.32802 0.27365 0.0
H670 H 0.42947 0.3143 0.07281 0.0
H671 H 0.41181 0.355 0.27388 0.0
H672 H 0.40477 0.36776 0.0783 0.0
O673 O 0.36891 0.23502 0.20301 0.0
H674 H 0.41609 0.16424 0.06686 0.0
H675 H 0.33545 0.14463 0.14977 0.0
H676 H 0.36988 0.1005 0.13199 0.0
H677 H 0.41053 0.11017 0.09014 0.0
H678 H 0.38156 0.20773 0.08588 0.0
H679 H 0.25517 0.13766 0.07859 0.0
H680 H 0.21879 0.13179 0.12484 0.0
O681 O 0.33661 0.19958 0.17914 0.0
C682 C 0.30603 0.27421 0.16521 0.0
C683 C 0.24579 0.16359 0.15451 0.0
C684 C 0.25978 0.15044 0.10049 0.0
N685 N 0.29248 0.18632 0.13073 0.0
C686 C 0.27249 0.18328 0.1562 0.0
C687 C 0.28635 0.17021 0.10308 0.0
C688 C 0.23941 0.14713 0.12644 0.0
C689 C 0.40722 0.29598 0.11528 0.0
N690 N 0.38734 0.30218 0.14025 0.0
C691 C 0.41383 0.31942 0.09264 0.0
C692 C 0.39992 0.34939 0.09571 0.0
C693 C 0.37975 0.35558 0.12132 0.0
C694 C 0.37374 0.33158 0.14352 0.0
C695 C 0.42694 0.33336 0.22997 0.0
C696 C 0.36843 0.30322 0.22965 0.0
C697 C 0.41848 0.31257 0.20544 0.0
N698 N 0.38961 0.29756 0.20561 0.0
C699 C 0.37607 0.32384 0.25458 0.0
C700 C 0.40557 0.33894 0.25472 0.0
C701 C 0.35218 0.20962 0.2034 0.0
C702 C 0.39853 0.15973 0.08517 0.0
C703 C 0.35339 0.14911 0.13192 0.0
C704 C 0.37267 0.12399 0.12177 0.0
C705 C 0.39543 0.12941 0.09826 0.0
N706 N 0.35677 0.17884 0.1192 0.0
C707 C 0.37889 0.18428 0.09601 0.0
Co708 Co 0.87954 0.67281 0.77234 0.0
Co709 Co 0.8306 0.63622 0.7167 0.0
O710 O 0.86874 0.6382 0.74329 0.0
C711 C 0.93489 0.66819 0.72836 0.0
O712 O 0.91491 0.66544 0.7045 0.0
C713 C 0.82828 0.5777 0.75653 0.0
O714 O 0.83573 0.59528 0.78125 0.0
O715 O 0.80257 0.65036 0.75275 0.0
O716 O 0.8346 0.67502 0.78797 0.0
H717 H 0.72848 0.67644 0.66848 0.0
H718 H 0.91937 0.61445 0.77378 0.0
O719 O 0.92481 0.67158 0.75679 0.0
H720 H 0.87274 0.62306 0.88119 0.0
H721 H 0.95224 0.73034 0.84832 0.0
H722 H 0.84611 0.73014 0.79833 0.0
H723 H 0.86104 0.6635 0.84026 0.0
H724 H 0.93713 0.68775 0.81109 0.0
O725 O 0.82464 0.59029 0.72915 0.0
H726 H 0.77681 0.67992 0.70122 0.0
H727 H 0.80331 0.58621 0.67434 0.0
H728 H 0.86009 0.77275 0.8359 0.0
H729 H 0.9321 0.57374 0.81413 0.0
H730 H 0.91359 0.77326 0.86105 0.0
H731 H 0.90857 0.57779 0.86825 0.0
O732 O 0.86911 0.70557 0.73931 0.0
H733 H 0.91741 0.57224 0.66463 0.0
H734 H 0.83507 0.65431 0.64829 0.0
H735 H 0.86932 0.63845 0.60329 0.0
H736 H 0.91085 0.59707 0.61132 0.0
H737 H 0.88291 0.58922 0.70897 0.0
H738 H 0.75514 0.58164 0.6412 0.0
H739 H 0.71731 0.62702 0.63802 0.0
O740 O 0.83646 0.68204 0.70385 0.0
C741 C 0.80725 0.66605 0.77844 0.0
C742 C 0.74474 0.6565 0.66963 0.0
C743 C 0.75967 0.60329 0.65441 0.0
N744 N 0.79284 0.63329 0.69006 0.0
C745 C 0.77219 0.65835 0.68828 0.0
C746 C 0.78685 0.60598 0.67339 0.0
C747 C 0.73848 0.62876 0.6526 0.0
C748 C 0.90931 0.61658 0.79737 0.0
N749 N 0.88947 0.64131 0.80462 0.0
C750 C 0.91651 0.59338 0.82009 0.0
C751 C 0.90325 0.59564 0.85043 0.0
C752 C 0.88313 0.62101 0.85769 0.0
C753 C 0.8765 0.64378 0.83437 0.0
C754 C 0.92895 0.73056 0.83729 0.0
C755 C 0.86943 0.72997 0.80913 0.0
C756 C 0.92033 0.70663 0.81588 0.0
N757 N 0.89098 0.70671 0.80177 0.0
C758 C 0.87722 0.75429 0.83041 0.0
C759 C 0.90724 0.75458 0.8445 0.0
C760 C 0.85176 0.70631 0.71428 0.0
C761 C 0.89944 0.59032 0.66082 0.0
C762 C 0.8533 0.63655 0.65203 0.0
C763 C 0.87251 0.62753 0.62642 0.0
C764 C 0.89577 0.60428 0.63093 0.0
N765 N 0.8572 0.62294 0.68132 0.0
C766 C 0.8798 0.59999 0.68586 0.0
Co767 Co 0.82911 0.37307 0.27069 0.0
Co768 Co 0.87665 0.33001 0.21935 0.0
O769 O 0.86805 0.36677 0.24664 0.0
C770 C 0.83365 0.43384 0.23389 0.0
O771 O 0.84053 0.41708 0.20843 0.0
C772 C 0.93194 0.33458 0.26291 0.0
O773 O 0.91177 0.33878 0.28637 0.0
O774 O 0.8647 0.29951 0.25413 0.0
O775 O 0.82682 0.3265 0.28085 0.0
H776 H 0.85603 0.22416 0.16652 0.0
H777 H 0.87841 0.42148 0.28725 0.0
O778 O 0.83029 0.41945 0.26032 0.0
H779 H 0.87627 0.35036 0.38016 0.0
H780 H 0.72394 0.42708 0.29009 0.0
H781 H 0.79402 0.34088 0.32651 0.0
H782 H 0.84316 0.33905 0.33419 0.0
H783 H 0.77394 0.41639 0.26226 0.0
O784 O 0.92206 0.33023 0.23455 0.0
H785 H 0.84325 0.26996 0.20058 0.0
H786 H 0.9322 0.3124 0.17911 0.0
H787 H 0.74472 0.3511 0.35493 0.0
H788 H 0.91193 0.43342 0.33304 0.0
H789 H 0.70896 0.39461 0.33711 0.0
H790 H 0.91107 0.39801 0.38032 0.0
O791 O 0.80293 0.36536 0.232 0.0
H792 H 0.92967 0.42682 0.17325 0.0
H793 H 0.86098 0.33453 0.15036 0.0
H794 H 0.87355 0.37251 0.10734 0.0
H795 H 0.90811 0.41909 0.1187 0.0
H796 H 0.91626 0.38838 0.21555 0.0
H797 H 0.94624 0.26686 0.14497 0.0
H798 H 0.90799 0.22232 0.13837 0.0
O799 O 0.83096 0.32913 0.20403 0.0
C800 C 0.84245 0.30114 0.27486 0.0
C801 C 0.87294 0.2434 0.16921 0.0
C802 C 0.92355 0.26733 0.15716 0.0
N803 N 0.88682 0.29392 0.19209 0.0
C804 C 0.86573 0.26948 0.18855 0.0
C805 C 0.91549 0.29302 0.17669 0.0
C806 C 0.90208 0.24237 0.15344 0.0
C807 C 0.87616 0.40654 0.30797 0.0
N808 N 0.85564 0.38116 0.30846 0.0
C809 C 0.89601 0.41319 0.3338 0.0
C810 C 0.89566 0.39327 0.36022 0.0
C811 C 0.87601 0.36667 0.36019 0.0
C812 C 0.85646 0.36077 0.33394 0.0
C813 C 0.73986 0.40879 0.29885 0.0
C814 C 0.78031 0.36114 0.31934 0.0
C815 C 0.76877 0.40295 0.28352 0.0
N816 N 0.78944 0.38016 0.29442 0.0
C817 C 0.75155 0.36627 0.33524 0.0
C818 C 0.73139 0.39051 0.32512 0.0
C819 C 0.80522 0.34443 0.21013 0.0
C820 C 0.91457 0.40663 0.168 0.0
C821 C 0.87591 0.35482 0.15548 0.0
C822 C 0.88304 0.37619 0.13102 0.0
C823 C 0.90245 0.4023 0.13741 0.0
N824 N 0.88771 0.35935 0.18545 0.0
C825 C 0.90696 0.38475 0.19184 0.0
Co826 Co 0.17479 0.3619 0.72087 0.0
Co827 Co 0.1183 0.33092 0.77265 0.0
O828 O 0.13409 0.36375 0.74357 0.0
C829 C 0.17179 0.42661 0.75151 0.0
O830 O 0.15488 0.41403 0.7745 0.0
C831 C 0.06536 0.33776 0.72606 0.0
O832 O 0.08607 0.33603 0.70274 0.0
O833 O 0.12676 0.29678 0.7404 0.0
O834 O 0.16696 0.3158 0.71042 0.0
H835 H 0.12186 0.22945 0.83671 0.0
H836 H 0.12132 0.40585 0.70522 0.0
O837 O 0.18317 0.40865 0.72978 0.0
H838 H 0.15099 0.35575 0.60332 0.0
H839 H 0.26324 0.40264 0.65052 0.0
H840 H 0.22651 0.31429 0.71846 0.0
H841 H 0.17963 0.34206 0.65263 0.0
H842 H 0.21074 0.40504 0.67665 0.0
O843 O 0.07427 0.33641 0.75499 0.0
H844 H 0.14249 0.26965 0.79954 0.0
H845 H 0.05817 0.32426 0.80972 0.0
H846 H 0.27917 0.31098 0.69292 0.0
H847 H 0.09162 0.41962 0.65661 0.0
H848 H 0.29783 0.35531 0.65852 0.0
H849 H 0.10652 0.39471 0.60508 0.0
O850 O 0.19806 0.34989 0.76064 0.0
H851 H 0.07299 0.435 0.81064 0.0
H852 H 0.13516 0.34011 0.84107 0.0
H853 H 0.12547 0.38223 0.88078 0.0
H854 H 0.09411 0.43006 0.86568 0.0
H855 H 0.08382 0.39265 0.77146 0.0
H856 H 0.03625 0.28439 0.84658 0.0
H857 H 0.06816 0.23655 0.86043 0.0
O858 O 0.16205 0.32419 0.79074 0.0
C859 C 0.14723 0.29386 0.71802 0.0
C860 C 0.10764 0.25012 0.8308 0.0
C861 C 0.05959 0.2809 0.83625 0.0
N862 N 0.10156 0.2991 0.80188 0.0
C863 C 0.11932 0.27304 0.80975 0.0
C864 C 0.07209 0.3033 0.8151 0.0
C865 C 0.07752 0.2541 0.84407 0.0
C866 C 0.12787 0.39463 0.68302 0.0
N867 N 0.15254 0.37341 0.68186 0.0
C868 C 0.11101 0.40268 0.65549 0.0
C869 C 0.1194 0.38873 0.6266 0.0
C870 C 0.1444 0.36694 0.62558 0.0
C871 C 0.16068 0.35944 0.6536 0.0
C872 C 0.25533 0.38313 0.66536 0.0
C873 C 0.23433 0.33362 0.70337 0.0
C874 C 0.22564 0.3844 0.68029 0.0
N875 N 0.2154 0.35972 0.69886 0.0
C876 C 0.26424 0.33164 0.68905 0.0
C877 C 0.27472 0.35656 0.66984 0.0
C878 C 0.19048 0.33317 0.78482 0.0
C879 C 0.08664 0.41424 0.81752 0.0
C880 C 0.12176 0.36098 0.83419 0.0
C881 C 0.1162 0.38468 0.85685 0.0
C882 C 0.09856 0.41149 0.84838 0.0
N883 N 0.11013 0.36392 0.80392 0.0
C884 C 0.09266 0.39006 0.7955 0.0
Co885 Co 0.13124 0.67769 0.22933 0.0
Co886 Co 0.17813 0.62337 0.27004 0.0
O887 O 0.13911 0.63609 0.24847 0.0
C888 C 0.07611 0.67032 0.2729 0.0
O889 O 0.09565 0.66165 0.29571 0.0
C890 C 0.16961 0.57106 0.2222 0.0
O891 O 0.16479 0.59219 0.19967 0.0
O892 O 0.20454 0.63938 0.23344 0.0
O893 O 0.17581 0.67999 0.21297 0.0
H894 H 0.29492 0.62723 0.29902 0.0
H895 H 0.08689 0.62453 0.21537 0.0
O896 O 0.08641 0.67679 0.2452 0.0
H897 H 0.13227 0.65521 0.11151 0.0
H898 H 0.0636 0.75401 0.16643 0.0
H899 H 0.16213 0.74222 0.22856 0.0
H900 H 0.14792 0.68354 0.1605 0.0
H901 H 0.07755 0.70251 0.19058 0.0
O902 O 0.17535 0.57977 0.25065 0.0
H903 H 0.24648 0.64526 0.27211 0.0
H904 H 0.19507 0.56693 0.30961 0.0
H905 H 0.14941 0.79393 0.20446 0.0
H906 H 0.07008 0.59602 0.16687 0.0
H907 H 0.09981 0.80022 0.17308 0.0
H908 H 0.09294 0.61122 0.11449 0.0
O909 O 0.14591 0.7 0.26913 0.0
H910 H 0.08745 0.56372 0.32037 0.0
H911 H 0.17888 0.63444 0.34038 0.0
H912 H 0.14528 0.61733 0.38534 0.0
H913 H 0.09932 0.58153 0.37551 0.0
H914 H 0.12116 0.58204 0.27596 0.0
H915 H 0.24332 0.54752 0.33639 0.0
H916 H 0.29371 0.57795 0.33165 0.0
O917 O 0.18174 0.66633 0.29079 0.0
C918 C 0.20157 0.66397 0.21557 0.0
C919 C 0.27288 0.61428 0.30214 0.0
C920 C 0.24397 0.56954 0.32301 0.0
N921 N 0.21691 0.60897 0.29137 0.0
C922 C 0.24498 0.6249 0.28746 0.0
C923 C 0.21655 0.58094 0.30803 0.0
C924 C 0.27224 0.58655 0.32027 0.0
C925 C 0.09665 0.63156 0.19262 0.0
N926 N 0.1182 0.65582 0.19076 0.0
C927 C 0.08715 0.61523 0.16525 0.0
C928 C 0.10003 0.62372 0.13588 0.0
C929 C 0.12213 0.64838 0.1342 0.0
C930 C 0.13101 0.66424 0.16204 0.0
C931 C 0.08555 0.75151 0.17971 0.0
C932 C 0.14109 0.74429 0.21433 0.0
C933 C 0.0937 0.72232 0.19337 0.0
N934 N 0.1215 0.71876 0.21003 0.0
C935 C 0.13373 0.77387 0.201 0.0
C936 C 0.10583 0.77741 0.18346 0.0
C937 C 0.16769 0.69341 0.28958 0.0
C938 C 0.1075 0.57921 0.32498 0.0
C939 C 0.1587 0.61916 0.33582 0.0
C940 C 0.13987 0.6094 0.36142 0.0
C941 C 0.11412 0.58928 0.35589 0.0
N942 N 0.15213 0.60909 0.30555 0.0
C943 C 0.12679 0.58953 0.29994 0.0
Co944 Co 0.7641 0.88288 0.67818 0.0
Co945 Co 0.72521 0.83275 0.62601 0.0
O946 O 0.74534 0.8732 0.63675 0.0
C947 C 0.71962 0.93722 0.6668 0.0
O948 O 0.69726 0.91688 0.65895 0.0
C949 C 0.77183 0.84264 0.57356 0.0
O950 O 0.79344 0.85113 0.59448 0.0
O951 O 0.76288 0.8084 0.64192 0.0
O952 O 0.78235 0.83884 0.68146 0.0
H953 H 0.69643 0.71778 0.64238 0.0
H954 H 0.77696 0.92593 0.6236 0.0
O955 O 0.74695 0.92751 0.67561 0.0
H956 H 0.88203 0.88541 0.65684 0.0
H957 H 0.82409 0.95277 0.75487 0.0
H958 H 0.76465 0.85268 0.74237 0.0
H959 H 0.83343 0.86892 0.68527 0.0
H960 H 0.80111 0.93808 0.70292 0.0
O961 O 0.74411 0.83439 0.58235 0.0
H962 H 0.71999 0.76944 0.6571 0.0
H963 H 0.68978 0.80924 0.56913 0.0
H964 H 0.78761 0.86604 0.79457 0.0
H965 H 0.82502 0.9435 0.59493 0.0
H966 H 0.81765 0.91649 0.80114 0.0
H967 H 0.87803 0.92309 0.61141 0.0
O968 O 0.7248 0.86801 0.70083 0.0
H969 H 0.67207 0.91899 0.56231 0.0
H970 H 0.65434 0.82925 0.63556 0.0
H971 H 0.60848 0.86013 0.61634 0.0
H972 H 0.61713 0.90534 0.57924 0.0
H973 H 0.71736 0.88786 0.5828 0.0
H974 H 0.66611 0.75794 0.5534 0.0
H975 H 0.66923 0.71176 0.59023 0.0
O976 O 0.70522 0.82996 0.66935 0.0
C977 C 0.78168 0.81295 0.66538 0.0
C978 C 0.69483 0.73773 0.62618 0.0
C979 C 0.6777 0.76031 0.5763 0.0
N980 N 0.70556 0.79259 0.61438 0.0
C981 C 0.70807 0.76708 0.63441 0.0
C982 C 0.69106 0.78934 0.5854 0.0
C983 C 0.67953 0.73439 0.59693 0.0
C984 C 0.79997 0.91725 0.6312 0.0
N985 N 0.80237 0.89657 0.65622 0.0
C986 C 0.82709 0.92716 0.61476 0.0
C987 C 0.85681 0.91565 0.62398 0.0
C988 C 0.85907 0.89448 0.64944 0.0
C989 C 0.83144 0.88512 0.66535 0.0
C990 C 0.81143 0.93051 0.75223 0.0
C991 C 0.77838 0.87411 0.74472 0.0
C992 C 0.79845 0.92198 0.72282 0.0
N993 N 0.78263 0.89377 0.71919 0.0
C994 C 0.79103 0.88182 0.7745 0.0
C995 C 0.80778 0.91017 0.77818 0.0
C996 C 0.70506 0.84541 0.6955 0.0
C997 C 0.66797 0.89932 0.57844 0.0
C998 C 0.65846 0.84903 0.61989 0.0
C999 C 0.63231 0.86637 0.60884 0.0
C1000 C 0.63717 0.8917 0.58799 0.0
N1001 N 0.68864 0.85664 0.6105 0.0
C1002 C 0.69354 0.88148 0.59005 0.0
Co1003 Co 0.6778 0.21608 0.13024 0.0
Co1004 Co 0.62465 0.26934 0.16391 0.0
O1005 O 0.63715 0.2385 0.13154 0.0
C1006 C 0.67389 0.24869 0.06698 0.0
O1007 O 0.66645 0.27474 0.08256 0.0
C1008 C 0.57052 0.22366 0.16425 0.0
O1009 O 0.59062 0.2 0.16768 0.0
O1010 O 0.63538 0.238 0.19863 0.0
O1011 O 0.67519 0.20812 0.17788 0.0
H1012 H 0.63878 0.34563 0.2564 0.0
H1013 H 0.61619 0.19709 0.09944 0.0
O1014 O 0.67954 0.22297 0.08234 0.0
H1015 H 0.66127 0.09763 0.14185 0.0
H1016 H 0.76269 0.14677 0.08102 0.0
H1017 H 0.73447 0.21539 0.17202 0.0
H1018 H 0.68867 0.14846 0.15047 0.0
H1019 H 0.70971 0.17194 0.08408 0.0
O1020 O 0.5802 0.25223 0.1621 0.0
H1021 H 0.6566 0.30703 0.21679 0.0
H1022 H 0.56343 0.30331 0.1773 0.0
H1023 H 0.78776 0.19094 0.16974 0.0
H1024 H 0.58795 0.14689 0.09053 0.0
H1025 H 0.80207 0.15607 0.12416 0.0
H1026 H 0.61049 0.09645 0.11162 0.0
O1027 O 0.702 0.25651 0.13727 0.0
H1028 H 0.57554 0.30226 0.05988 0.0
H1029 H 0.6402 0.3375 0.15133 0.0
H1030 H 0.62854 0.37523 0.10788 0.0
H1031 H 0.59597 0.35769 0.06174 0.0
H1032 H 0.58799 0.26523 0.10372 0.0
H1033 H 0.54477 0.34177 0.21689 0.0
H1034 H 0.58239 0.36325 0.25705 0.0
O1035 O 0.66892 0.28669 0.16629 0.0
C1036 C 0.65691 0.21636 0.2011 0.0
C1037 C 0.62194 0.33589 0.23949 0.0
C1038 C 0.56924 0.33369 0.21737 0.0
N1039 N 0.61082 0.30066 0.19565 0.0
C1040 C 0.63184 0.3135 0.21698 0.0
C1041 C 0.57998 0.31132 0.19523 0.0
C1042 C 0.59035 0.34584 0.23981 0.0
C1043 C 0.62686 0.17542 0.1079 0.0
N1044 N 0.65526 0.17592 0.12378 0.0
C1045 C 0.61043 0.14694 0.10313 0.0
C1046 C 0.62301 0.11868 0.11504 0.0
C1047 C 0.65154 0.11932 0.13188 0.0
C1048 C 0.66724 0.14828 0.13627 0.0
C1049 C 0.75666 0.16174 0.10111 0.0
C1050 C 0.74041 0.20008 0.1522 0.0
C1051 C 0.72673 0.17615 0.10292 0.0
N1052 N 0.71883 0.19478 0.12843 0.0
C1053 C 0.77067 0.18637 0.151 0.0
C1054 C 0.77874 0.16694 0.12534 0.0
C1055 C 0.69618 0.2809 0.15432 0.0
C1056 C 0.58965 0.31023 0.07992 0.0
C1057 C 0.62598 0.32967 0.13137 0.0
C1058 C 0.61944 0.35116 0.10683 0.0
C1059 C 0.60116 0.34131 0.08096 0.0
N1060 N 0.61459 0.29924 0.13019 0.0
C1061 C 0.59664 0.28941 0.1049 0.0
Co1062 Co 0.23302 0.11832 0.6725 0.0
Co1063 Co 0.26751 0.17338 0.62184 0.0
O1064 O 0.25125 0.1311 0.63186 0.0
C1065 C 0.28312 0.06964 0.66085 0.0
O1066 O 0.30296 0.09225 0.65255 0.0
C1067 C 0.22194 0.16037 0.5689 0.0
O1068 O 0.2006 0.15124 0.58981 0.0
O1069 O 0.22751 0.19384 0.63833 0.0
O1070 O 0.21035 0.16015 0.67649 0.0
H1071 H 0.28594 0.29138 0.63555 0.0
H1072 H 0.22575 0.07487 0.6172 0.0
O1073 O 0.25485 0.0761 0.6695 0.0
H1074 H 0.11648 0.10541 0.64724 0.0
H1075 H 0.17501 0.04104 0.74352 0.0
H1076 H 0.23446 0.14166 0.74053 0.0
H1077 H 0.16245 0.1259 0.67738 0.0
H1078 H 0.19766 0.06045 0.69322 0.0
O1079 O 0.24922 0.16998 0.57783 0.0
H1080 H 0.26609 0.23868 0.65105 0.0
H1081 H 0.30157 0.19879 0.56535 0.0
H1082 H 0.21167 0.12361 0.79099 0.0
H1083 H 0.18041 0.05314 0.58698 0.0
H1084 H 0.18147 0.07289 0.79291 0.0
H1085 H 0.1253 0.06856 0.60183 0.0
O1086 O 0.2702 0.1368 0.696 0.0
H1087 H 0.33092 0.09297 0.55986 0.0
H1088 H 0.33666 0.18364 0.63422 0.0
H1089 H 0.38619 0.15735 0.61678 0.0
H1090 H 0.38351 0.11174 0.57923 0.0
H1091 H 0.28198 0.11964 0.57825 0.0
H1092 H 0.32154 0.25122 0.54867 0.0
H1093 H 0.31399 0.29804 0.58401 0.0
O1094 O 0.2863 0.178 0.6655 0.0
C1095 C 0.20924 0.18689 0.66185 0.0
C1096 C 0.28984 0.27108 0.62022 0.0
C1097 C 0.30974 0.24859 0.57143 0.0
N1098 N 0.28371 0.21517 0.60996 0.0
C1099 C 0.27892 0.24097 0.62913 0.0
C1100 C 0.29847 0.21887 0.58113 0.0
C1101 C 0.30548 0.27483 0.59123 0.0
C1102 C 0.20184 0.08132 0.62413 0.0
N1103 N 0.19681 0.10145 0.6492 0.0
C1104 C 0.17625 0.06908 0.60681 0.0
C1105 C 0.14534 0.0778 0.6151 0.0
C1106 C 0.14038 0.09851 0.64054 0.0
C1107 C 0.16654 0.11021 0.65739 0.0
C1108 C 0.18729 0.06367 0.74285 0.0
C1109 C 0.22005 0.12061 0.74042 0.0
C1110 C 0.1999 0.07506 0.71427 0.0
N1111 N 0.21511 0.10385 0.71295 0.0
C1112 C 0.20776 0.11001 0.76945 0.0
C1113 C 0.191 0.08148 0.77055 0.0
C1114 C 0.28629 0.16229 0.69162 0.0
C1115 C 0.33241 0.1129 0.57611 0.0
C1116 C 0.33529 0.16369 0.61803 0.0
C1117 C 0.36342 0.14897 0.60814 0.0
C1118 C 0.3619 0.1234 0.58705 0.0
N1119 N 0.30645 0.1533 0.60714 0.0
C1120 C 0.30478 0.12821 0.58649 0.0
Co1121 Co 0.33673 0.78645 0.13274 0.0
Co1122 Co 0.38545 0.7318 0.17112 0.0
O1123 O 0.37524 0.76034 0.13573 0.0
C1124 C 0.33466 0.7457 0.07509 0.0
O1125 O 0.34157 0.72127 0.0933 0.0
C1126 C 0.44052 0.77606 0.16722 0.0
O1127 O 0.42052 0.7999 0.1643 0.0
O1128 O 0.37373 0.76522 0.20334 0.0
O1129 O 0.34168 0.80019 0.17846 0.0
H1130 H 0.36394 0.67079 0.27209 0.0
H1131 H 0.38929 0.79396 0.08623 0.0
O1132 O 0.3315 0.77341 0.08698 0.0
H1133 H 0.37338 0.9005 0.13286 0.0
H1134 H 0.26029 0.86042 0.07715 0.0
H1135 H 0.28206 0.80015 0.17548 0.0
H1136 H 0.33981 0.85531 0.14947 0.0
H1137 H 0.30911 0.82822 0.08218 0.0
O1138 O 0.4305 0.74769 0.17083 0.0
H1139 H 0.351 0.70753 0.22832 0.0
H1140 H 0.44272 0.69329 0.18809 0.0
H1141 H 0.23318 0.83232 0.17164 0.0
H1142 H 0.42303 0.83855 0.06844 0.0
H1143 H 0.22198 0.86274 0.12215 0.0
H1144 H 0.41533 0.89225 0.09198 0.0
O1145 O 0.30916 0.75023 0.14655 0.0
H1146 H 0.44232 0.68883 0.07492 0.0
H1147 H 0.36805 0.66355 0.16221 0.0
H1148 H 0.38195 0.62203 0.12316 0.0
H1149 H 0.41947 0.6345 0.07919 0.0
H1150 H 0.42709 0.72992 0.11398 0.0
H1151 H 0.45681 0.65687 0.23183 0.0
H1152 H 0.41726 0.64529 0.27422 0.0
O1153 O 0.34084 0.71534 0.17199 0.0
C1154 C 0.35639 0.79031 0.20333 0.0
C1155 C 0.38143 0.67572 0.25383 0.0
C1156 C 0.43357 0.668 0.23129 0.0
N1157 N 0.39622 0.70309 0.20583 0.0
C1158 C 0.37422 0.69649 0.22887 0.0
C1159 C 0.42552 0.68891 0.2067 0.0
C1160 C 0.41135 0.66146 0.25503 0.0
C1161 C 0.38573 0.81728 0.09651 0.0
N1162 N 0.36293 0.82195 0.11922 0.0
C1163 C 0.40492 0.84243 0.08635 0.0
C1164 C 0.4006 0.87255 0.09958 0.0
C1165 C 0.37711 0.87718 0.12256 0.0
C1166 C 0.35834 0.85147 0.13206 0.0
C1167 C 0.26489 0.84726 0.09884 0.0
C1168 C 0.27749 0.81339 0.15396 0.0
C1169 C 0.29245 0.82886 0.10178 0.0
N1170 N 0.29852 0.8123 0.12916 0.0
C1171 C 0.2497 0.83154 0.15188 0.0
C1172 C 0.24342 0.84858 0.1241 0.0
C1173 C 0.31377 0.72429 0.16172 0.0
C1174 C 0.42598 0.68308 0.094 0.0
C1175 C 0.38412 0.66932 0.14296 0.0
C1176 C 0.39203 0.64563 0.121 0.0
C1177 C 0.41311 0.65263 0.09637 0.0
N1178 N 0.39672 0.6992 0.14038 0.0
C1179 C 0.41739 0.70622 0.1163 0.0
Co1180 Co 0.73329 0.17041 0.38204 0.0
Co1181 Co 0.76928 0.12293 0.32532 0.0
O1182 O 0.75412 0.13096 0.36865 0.0
C1183 C 0.78503 0.16115 0.4304 0.0
O1184 O 0.80491 0.15226 0.408 0.0
C1185 C 0.72707 0.06714 0.33552 0.0
O1186 O 0.70358 0.08651 0.34263 0.0
O1187 O 0.72755 0.13635 0.30666 0.0
O1188 O 0.70851 0.17244 0.34086 0.0
H1189 H 0.7833 0.14663 0.20891 0.0
H1190 H 0.73303 0.11342 0.42337 0.0
O1191 O 0.75671 0.16951 0.42368 0.0
H1192 H 0.61986 0.14031 0.4082 0.0
H1193 H 0.68035 0.24372 0.46095 0.0
H1194 H 0.71887 0.23187 0.35064 0.0
H1195 H 0.66176 0.17268 0.38338 0.0
H1196 H 0.70502 0.19348 0.4432 0.0
O1197 O 0.75441 0.07785 0.32833 0.0
H1198 H 0.76624 0.15775 0.26392 0.0
H1199 H 0.8036 0.06888 0.29451 0.0
H1200 H 0.69405 0.28242 0.36729 0.0
H1201 H 0.69197 0.08107 0.44986 0.0
H1202 H 0.67456 0.28858 0.42281 0.0
H1203 H 0.63486 0.09421 0.44209 0.0
O1204 O 0.76801 0.19673 0.3627 0.0
H1205 H 0.84031 0.06404 0.40154 0.0
H1206 H 0.83696 0.13957 0.31166 0.0
H1207 H 0.88871 0.12479 0.33515 0.0
H1208 H 0.89061 0.0867 0.38037 0.0
H1209 H 0.78905 0.07974 0.37759 0.0
H1210 H 0.82104 0.05678 0.23975 0.0
H1211 H 0.81095 0.09586 0.19648 0.0
O1212 O 0.78493 0.16743 0.32116 0.0
C1213 C 0.70694 0.15739 0.31439 0.0
C1214 C 0.78803 0.12952 0.22756 0.0
C1215 C 0.80914 0.07906 0.24487 0.0
N1216 N 0.78422 0.11417 0.28249 0.0
C1217 C 0.7785 0.13574 0.25881 0.0
C1218 C 0.79922 0.08606 0.27584 0.0
C1219 C 0.80348 0.10099 0.22061 0.0
C1220 C 0.70827 0.11947 0.41997 0.0
N1221 N 0.69987 0.1448 0.40131 0.0
C1222 C 0.6851 0.10101 0.43504 0.0
C1223 C 0.65307 0.10836 0.43064 0.0
C1224 C 0.64465 0.13414 0.41155 0.0
C1225 C 0.6685 0.15222 0.3971 0.0
C1226 C 0.68858 0.24127 0.43665 0.0
C1227 C 0.71018 0.23426 0.37475 0.0
C1228 C 0.7026 0.21288 0.42645 0.0
N1229 N 0.7129 0.20956 0.39574 0.0
C1230 C 0.69625 0.26299 0.38408 0.0
C1231 C 0.68536 0.26643 0.41524 0.0
C1232 C 0.78464 0.19295 0.33752 0.0
C1233 C 0.83981 0.08056 0.38176 0.0
C1234 C 0.83758 0.12308 0.33141 0.0
C1235 C 0.86696 0.11473 0.34456 0.0
C1236 C 0.86801 0.09334 0.36991 0.0
N1237 N 0.81002 0.11042 0.34315 0.0
C1238 C 0.81086 0.08943 0.36801 0.0
Co1239 Co 0.36713 0.27753 0.83752 0.0
Co1240 Co 0.32709 0.21754 0.87785 0.0
O1241 O 0.36247 0.24737 0.87284 0.0
C1242 C 0.42589 0.23784 0.83491 0.0
O1243 O 0.40802 0.21256 0.83884 0.0
C1244 C 0.32517 0.25534 0.93768 0.0
O1245 O 0.32734 0.28131 0.92044 0.0
O1246 O 0.2952 0.25176 0.86826 0.0
O1247 O 0.32095 0.2903 0.84152 0.0
H1248 H 0.22768 0.15985 0.84423 0.0
H1249 H 0.41082 0.27954 0.89298 0.0
O1250 O 0.41338 0.26545 0.83332 0.0
H1251 H 0.36399 0.387 0.88622 0.0
H1252 H 0.4258 0.35957 0.77265 0.0
H1253 H 0.32709 0.29717 0.7825 0.0
H1254 H 0.34959 0.34559 0.84715 0.0
H1255 H 0.41856 0.32224 0.81735 0.0
O1256 O 0.32477 0.22804 0.92452 0.0
H1257 H 0.27162 0.19804 0.83817 0.0
H1258 H 0.30806 0.17198 0.92894 0.0
H1259 H 0.33315 0.33445 0.73768 0.0
H1260 H 0.42654 0.32038 0.93212 0.0
H1261 H 0.38285 0.36598 0.73248 0.0
H1262 H 0.40284 0.37449 0.92907 0.0
O1263 O 0.35519 0.24454 0.80527 0.0
H1264 H 0.42143 0.1696 0.93377 0.0
H1265 H 0.33778 0.15173 0.85336 0.0
H1266 H 0.37691 0.10936 0.86426 0.0
H1267 H 0.41904 0.11809 0.90484 0.0
H1268 H 0.38229 0.21166 0.92156 0.0
H1269 H 0.26412 0.1339 0.93619 0.0
H1270 H 0.22357 0.12753 0.89361 0.0
O1271 O 0.3286 0.20635 0.83167 0.0
C1272 C 0.29558 0.27857 0.85379 0.0
C1273 C 0.24516 0.16243 0.86299 0.0
C1274 C 0.26555 0.14796 0.91463 0.0
N1275 N 0.29228 0.18761 0.88331 0.0
C1276 C 0.27021 0.18399 0.85967 0.0
C1277 C 0.29027 0.16977 0.91048 0.0
C1278 C 0.24285 0.14435 0.89071 0.0
C1279 C 0.40047 0.30306 0.89144 0.0
N1280 N 0.37882 0.31002 0.86818 0.0
C1281 C 0.40946 0.32609 0.91368 0.0
C1282 C 0.39614 0.35643 0.91196 0.0
C1283 C 0.37429 0.36344 0.88798 0.0
C1284 C 0.36599 0.33983 0.8661 0.0
C1285 C 0.40404 0.34595 0.77464 0.0
C1286 C 0.34869 0.31082 0.78055 0.0
C1287 C 0.39985 0.32465 0.79984 0.0
N1288 N 0.37237 0.30746 0.80261 0.0
C1289 C 0.35203 0.3319 0.75504 0.0
C1290 C 0.37993 0.34956 0.75213 0.0
C1291 C 0.33985 0.21835 0.80623 0.0
C1292 C 0.40314 0.16547 0.91609 0.0
C1293 C 0.3562 0.15586 0.87085 0.0
C1294 C 0.37821 0.1317 0.87702 0.0
C1295 C 0.40182 0.1366 0.89981 0.0
N1296 N 0.3577 0.18415 0.88686 0.0
C1297 C 0.38081 0.18915 0.90919 0.0
Co1298 Co 0.27526 0.83861 0.38158 0.0
Co1299 Co 0.22319 0.87176 0.32662 0.0
O1300 O 0.24638 0.87223 0.36708 0.0
C1301 C 0.22917 0.84397 0.43517 0.0
O1302 O 0.20573 0.84318 0.41452 0.0
C1303 C 0.25827 0.93338 0.32663 0.0
O1304 O 0.28353 0.91808 0.33687 0.0
O1305 O 0.26248 0.8597 0.30244 0.0
O1306 O 0.29295 0.83304 0.33746 0.0
H1307 H 0.19376 0.82587 0.22044 0.0
H1308 H 0.2754 0.899 0.41823 0.0
O1309 O 0.25802 0.8429 0.426 0.0
H1310 H 0.38386 0.88869 0.3747 0.0
H1311 H 0.35014 0.78932 0.46127 0.0
H1312 H 0.29998 0.77708 0.35611 0.0
H1313 H 0.34353 0.84747 0.36415 0.0
H1314 H 0.31346 0.83023 0.4408 0.0
O1315 O 0.23272 0.91834 0.3204 0.0
H1316 H 0.21935 0.82626 0.27316 0.0
H1317 H 0.17962 0.91717 0.29289 0.0
H1318 H 0.33693 0.73582 0.37518 0.0
H1319 H 0.31517 0.94049 0.4299 0.0
H1320 H 0.36223 0.74169 0.42835 0.0
H1321 H 0.3698 0.9356 0.40786 0.0
O1322 O 0.24265 0.80514 0.37227 0.0
H1323 H 0.16078 0.93275 0.40853 0.0
H1324 H 0.15486 0.85251 0.32309 0.0
H1325 H 0.10611 0.8673 0.35226 0.0
H1326 H 0.1089 0.90764 0.39544 0.0
H1327 H 0.20882 0.91732 0.37865 0.0
H1328 H 0.15311 0.91754 0.24043 0.0
H1329 H 0.16003 0.87159 0.20381 0.0
O1330 O 0.21213 0.82545 0.33304 0.0
C1331 C 0.28677 0.8428 0.3093 0.0
C1332 C 0.19016 0.84584 0.23629 0.0
C1333 C 0.16754 0.89737 0.24747 0.0
N1334 N 0.20071 0.87155 0.28624 0.0
C1335 C 0.2046 0.84619 0.26623 0.0
C1336 C 0.18263 0.89705 0.27713 0.0
C1337 C 0.1714 0.87158 0.22694 0.0
C1338 C 0.29918 0.89654 0.40881 0.0
N1339 N 0.30701 0.87093 0.39038 0.0
C1340 C 0.32158 0.92018 0.4154 0.0
C1341 C 0.35221 0.91744 0.40299 0.0
C1342 C 0.36009 0.89116 0.38433 0.0
C1343 C 0.33708 0.86798 0.37828 0.0
C1344 C 0.33919 0.7864 0.43811 0.0
C1345 C 0.31101 0.77997 0.37895 0.0
C1346 C 0.31819 0.80941 0.42644 0.0
N1347 N 0.30423 0.80596 0.39719 0.0
C1348 C 0.33187 0.75644 0.3898 0.0
C1349 C 0.34601 0.75972 0.41962 0.0
C1350 C 0.22003 0.8028 0.35198 0.0
C1351 C 0.15925 0.91507 0.38985 0.0
C1352 C 0.15628 0.87002 0.34188 0.0
C1353 C 0.12858 0.87835 0.35828 0.0
C1354 C 0.13016 0.90098 0.38249 0.0
N1355 N 0.18477 0.8837 0.34941 0.0
C1356 C 0.18642 0.90617 0.37288 0.0
Co1357 Co 0.6263 0.72786 0.83522 0.0
Co1358 Co 0.67318 0.78008 0.87869 0.0
O1359 O 0.6359 0.75245 0.87348 0.0
C1360 C 0.56894 0.76843 0.84366 0.0
O1361 O 0.5878 0.79272 0.84896 0.0
C1362 C 0.67554 0.73475 0.93354 0.0
O1363 O 0.66865 0.71144 0.91393 0.0
O1364 O 0.70232 0.74658 0.86102 0.0
O1365 O 0.67167 0.71452 0.83101 0.0
H1366 H 0.77453 0.83315 0.84391 0.0
H1367 H 0.58661 0.7164 0.89241 0.0
O1368 O 0.58029 0.74086 0.83805 0.0
H1369 H 0.63848 0.61362 0.86938 0.0
H1370 H 0.55957 0.6555 0.76688 0.0
H1371 H 0.6583 0.71854 0.77292 0.0
H1372 H 0.64817 0.66026 0.83511 0.0
H1373 H 0.57282 0.68554 0.81559 0.0
O1374 O 0.67926 0.763 0.92316 0.0
H1375 H 0.72669 0.80003 0.83716 0.0
H1376 H 0.69993 0.81743 0.93316 0.0
H1377 H 0.64611 0.68868 0.72389 0.0
H1378 H 0.57575 0.6702 0.92698 0.0
H1379 H 0.59639 0.6569 0.72062 0.0
H1380 H 0.60195 0.61839 0.91565 0.0
O1381 O 0.63506 0.76528 0.80785 0.0
H1382 H 0.58183 0.81975 0.94505 0.0
H1383 H 0.66926 0.85114 0.87351 0.0
H1384 H 0.63303 0.89223 0.89448 0.0
H1385 H 0.58886 0.87663 0.93055 0.0
H1386 H 0.61837 0.77946 0.92319 0.0
H1387 H 0.74768 0.85052 0.94101 0.0
H1388 H 0.78529 0.85874 0.89613 0.0
O1389 O 0.66707 0.79859 0.83431 0.0
C1390 C 0.69851 0.72304 0.84213 0.0
C1391 C 0.75823 0.82991 0.86359 0.0
C1392 C 0.74322 0.83956 0.91812 0.0
N1393 N 0.71033 0.80695 0.88461 0.0
C1394 C 0.73102 0.81123 0.85988 0.0
C1395 C 0.71627 0.82067 0.91355 0.0
C1396 C 0.76429 0.84419 0.89292 0.0
C1397 C 0.59778 0.69384 0.88711 0.0
N1398 N 0.61796 0.69105 0.86178 0.0
C1399 C 0.59166 0.66779 0.90685 0.0
C1400 C 0.60641 0.63875 0.90052 0.0
C1401 C 0.62694 0.63608 0.87459 0.0
C1402 C 0.63245 0.66262 0.85534 0.0
C1403 C 0.58133 0.66921 0.76804 0.0
C1404 C 0.63677 0.70452 0.77182 0.0
C1405 C 0.58892 0.68632 0.79553 0.0
N1406 N 0.61639 0.70363 0.79717 0.0
C1407 C 0.62993 0.68777 0.74393 0.0
C1408 C 0.60201 0.66999 0.7421 0.0
C1409 C 0.65108 0.79095 0.80937 0.0
C1410 C 0.60078 0.82684 0.92911 0.0
C1411 C 0.64968 0.84404 0.88852 0.0
C1412 C 0.62944 0.86748 0.90066 0.0
C1413 C 0.60473 0.85873 0.92096 0.0
N1414 N 0.64535 0.81273 0.89612 0.0
C1415 C 0.62152 0.80409 0.91653 0.0
C1416 C 0.19887 0.51912 0.21817 0.0
C1417 C 0.16993 0.53636 0.21503 0.0
C1418 C 0.14013 0.48614 0.21095 0.0
C1419 C 0.169 0.46898 0.21493 0.0
N1420 N 0.2262 0.46813 0.21515 0.0
N1421 N 0.11395 0.53713 0.20265 0.0
C1422 C 0.19852 0.48526 0.21624 0.0
C1423 C 0.14089 0.52008 0.2092 0.0
N1424 N 0.2266 0.5352 0.22384 0.0
N1425 N 0.11183 0.47008 0.21092 0.0
H1426 H 0.11335 0.56192 0.20283 0.0
H1427 H 0.09274 0.52697 0.19493 0.0
H1428 H 0.11039 0.44531 0.21141 0.0
H1429 H 0.08967 0.4811 0.21211 0.0
H1430 H 0.24779 0.52424 0.23052 0.0
H1431 H 0.22817 0.55998 0.22312 0.0
H1432 H 0.24868 0.4783 0.21323 0.0
H1433 H 0.22654 0.44334 0.21342 0.0
C1434 C 0.98591 0.6401 0.71407 0.0
C1435 C 0.9697 0.66859 0.72247 0.0
C1436 C 0.02065 0.69645 0.72827 0.0
C1437 C 0.03691 0.6679 0.72017 0.0
N1438 N 0.03579 0.61454 0.69937 0.0
N1439 N 0.97055 0.72526 0.73087 0.0
C1440 C 0.01972 0.64042 0.71084 0.0
C1441 C 0.9868 0.69722 0.72751 0.0
N1442 N 0.96917 0.61237 0.71109 0.0
N1443 N 0.03769 0.72263 0.73744 0.0
H1444 H 0.94576 0.72663 0.7303 0.0
H1445 H 0.98142 0.74749 0.73158 0.0
H1446 H 0.06245 0.7238 0.73585 0.0
H1447 H 0.02756 0.7427 0.74786 0.0
H1448 H 0.97968 0.59009 0.70846 0.0
H1449 H 0.94449 0.61126 0.7134 0.0
H1450 H 0.02469 0.59484 0.68928 0.0
H1451 H 0.06054 0.61378 0.69762 0.0
C1452 C 0.83943 0.48564 0.26329 0.0
C1453 C 0.83521 0.46968 0.23382 0.0
C1454 C 0.84515 0.52119 0.20702 0.0
C1455 C 0.85622 0.53393 0.23642 0.0
N1456 N 0.87328 0.52254 0.29013 0.0
N1457 N 0.82977 0.47458 0.17657 0.0
C1458 C 0.85646 0.51426 0.2637 0.0
C1459 C 0.83717 0.48803 0.20519 0.0
N1460 N 0.8254 0.47523 0.29069 0.0
N1461 N 0.84021 0.54088 0.18159 0.0
H1462 H 0.81701 0.45343 0.1746 0.0
H1463 H 0.83574 0.48487 0.1548 0.0
H1464 H 0.84517 0.56516 0.18208 0.0
H1465 H 0.82894 0.53371 0.1607 0.0
H1466 H 0.8274 0.48761 0.31215 0.0
H1467 H 0.80745 0.45818 0.29081 0.0
H1468 H 0.87511 0.50773 0.31001 0.0
H1469 H 0.88876 0.54176 0.29 0.0
C1470 C 0.0152 0.36744 0.71272 0.0
C1471 C 0.03079 0.3382 0.71927 0.0
C1472 C 0.97941 0.31112 0.72464 0.0
C1473 C 0.96368 0.34053 0.71897 0.0
N1474 N 0.96553 0.39539 0.70231 0.0
N1475 N 0.02899 0.28123 0.7248 0.0
C1476 C 0.98129 0.36824 0.71099 0.0
C1477 C 0.0132 0.30969 0.72309 0.0
N1478 N 0.03282 0.39463 0.7098 0.0
N1479 N 0.96192 0.28476 0.73233 0.0
H1480 H 0.05375 0.2795 0.72374 0.0
H1481 H 0.01779 0.25917 0.72472 0.0
H1482 H 0.93711 0.28432 0.73138 0.0
H1483 H 0.97173 0.26366 0.74084 0.0
H1484 H 0.02314 0.4174 0.70859 0.0
H1485 H 0.05765 0.3946 0.71008 0.0
H1486 H 0.97667 0.41556 0.69329 0.0
H1487 H 0.94079 0.39715 0.7022 0.0
C1488 C 0.18156 0.47859 0.78007 0.0
C1489 C 0.17657 0.46216 0.75084 0.0
C1490 C 0.17405 0.51405 0.72337 0.0
C1491 C 0.17296 0.52997 0.75321 0.0
N1492 N 0.1755 0.52729 0.81053 0.0
N1493 N 0.16592 0.46567 0.69399 0.0
C1494 C 0.1766 0.51216 0.78173 0.0
C1495 C 0.17276 0.48022 0.72225 0.0
N1496 N 0.19274 0.46231 0.80595 0.0
N1497 N 0.17633 0.53102 0.69571 0.0
H1498 H 0.16745 0.44146 0.69012 0.0
H1499 H 0.15703 0.47781 0.67424 0.0
H1500 H 0.17555 0.55563 0.69469 0.0
H1501 H 0.18184 0.5207 0.67382 0.0
H1502 H 0.19964 0.47324 0.82711 0.0
H1503 H 0.19874 0.43826 0.805 0.0
H1504 H 0.1737 0.51525 0.83214 0.0
H1505 H 0.17478 0.55201 0.81282 0.0
C1506 C 0.99248 0.70456 0.28084 0.0
C1507 C 0.97426 0.67626 0.2788 0.0
C1508 C 0.02319 0.64419 0.27987 0.0
C1509 C 0.04142 0.67247 0.27858 0.0
N1510 N 0.04424 0.72973 0.27561 0.0
N1511 N 0.97207 0.61948 0.27084 0.0
C1512 C 0.02628 0.70275 0.27854 0.0
C1513 C 0.98954 0.64611 0.27722 0.0
N1514 N 0.97745 0.73305 0.28562 0.0
N1515 N 0.03805 0.61539 0.28298 0.0
H1516 H 0.94762 0.62022 0.26735 0.0
H1517 H 0.98195 0.59728 0.26593 0.0
H1518 H 0.06271 0.61286 0.283 0.0
H1519 H 0.02605 0.59429 0.28789 0.0
H1520 H 0.98933 0.7542 0.29058 0.0
H1521 H 0.95274 0.73518 0.28695 0.0
H1522 H 0.03468 0.75221 0.27147 0.0
H1523 H 0.06907 0.72945 0.27569 0.0
C1524 C 0.79791 0.52621 0.75745 0.0
C1525 C 0.82742 0.54246 0.7595 0.0
C1526 C 0.85567 0.49141 0.76462 0.0
C1527 C 0.82635 0.47504 0.76076 0.0
N1528 N 0.7699 0.47608 0.75051 0.0
N1529 N 0.88472 0.54121 0.76153 0.0
C1530 C 0.79754 0.49226 0.75631 0.0
C1531 C 0.85638 0.52524 0.76251 0.0
N1532 N 0.7702 0.54334 0.75759 0.0
N1533 N 0.88301 0.47448 0.76968 0.0
H1534 H 0.88619 0.5659 0.76023 0.0
H1535 H 0.90686 0.53025 0.75989 0.0
H1536 H 0.88408 0.44981 0.76775 0.0
H1537 H 0.90439 0.48457 0.777 0.0
H1538 H 0.7477 0.5332 0.75942 0.0
H1539 H 0.7697 0.56816 0.75821 0.0
H1540 H 0.74883 0.48693 0.74328 0.0
H1541 H 0.76832 0.45132 0.75121 0.0
C1542 C 0.98447 0.30694 0.26821 0.0
C1543 C 0.96665 0.3356 0.26911 0.0
C1544 C 0.01558 0.36632 0.27834 0.0
C1545 C 0.03369 0.33802 0.27436 0.0
N1546 N 0.03627 0.28131 0.2657 0.0
N1547 N 0.9642 0.39269 0.27381 0.0
C1548 C 0.01833 0.30827 0.26946 0.0
C1549 C 0.98188 0.36531 0.27431 0.0
N1550 N 0.96882 0.27841 0.26715 0.0
N1551 N 0.0307 0.3942 0.28556 0.0
H1552 H 0.93948 0.3928 0.2716 0.0
H1553 H 0.97382 0.41548 0.27386 0.0
H1554 H 0.05537 0.39622 0.28657 0.0
H1555 H 0.01904 0.415 0.29225 0.0
H1556 H 0.97989 0.25638 0.2695 0.0
H1557 H 0.94406 0.27667 0.26621 0.0
H1558 H 0.02724 0.25965 0.25783 0.0
H1559 H 0.06081 0.28075 0.26941 0.0
C1560 C 0.21319 0.19013 0.51791 0.0
C1561 C 0.21462 0.16053 0.53426 0.0
C1562 C 0.21228 0.13174 0.48327 0.0
C1563 C 0.21298 0.16135 0.46705 0.0
N1564 N 0.20765 0.21829 0.46749 0.0
N1565 N 0.21239 0.10322 0.5338 0.0
C1566 C 0.21128 0.19045 0.48402 0.0
C1567 C 0.21275 0.13129 0.51729 0.0
N1568 N 0.21464 0.21788 0.53492 0.0
N1569 N 0.21211 0.10421 0.46585 0.0
H1570 H 0.21436 0.10212 0.5585 0.0
H1571 H 0.20941 0.08091 0.52358 0.0
H1572 H 0.21003 0.10411 0.44108 0.0
H1573 H 0.21398 0.08146 0.47535 0.0
H1574 H 0.21747 0.24029 0.52481 0.0
H1575 H 0.21395 0.21854 0.55975 0.0
H1576 H 0.2038 0.24036 0.47801 0.0
H1577 H 0.20625 0.21909 0.44269 0.0
C1578 C 0.36093 0.73652 0.98875 0.0
C1579 C 0.33121 0.73841 0.97278 0.0
C1580 C 0.30356 0.74461 0.02398 0.0
C1581 C 0.33321 0.74183 0.04 0.0
N1582 N 0.38985 0.73277 0.03861 0.0
N1583 N 0.274 0.7397 0.97437 0.0
C1584 C 0.36177 0.73676 0.02263 0.0
C1585 C 0.30242 0.74115 0.99021 0.0
N1586 N 0.38848 0.73635 0.97141 0.0
N1587 N 0.27662 0.75116 0.04107 0.0
H1588 H 0.27247 0.73725 0.94968 0.0
H1589 H 0.25196 0.73851 0.98559 0.0
H1590 H 0.27629 0.75223 0.0659 0.0
H1591 H 0.25489 0.75718 0.03082 0.0
H1592 H 0.4111 0.73884 0.98116 0.0
H1593 H 0.38876 0.73564 0.94664 0.0
H1594 H 0.41079 0.72485 0.02803 0.0
H1595 H 0.39199 0.73612 0.06308 0.0
C1596 C 0.77952 0.87094 0.48816 0.0
C1597 C 0.77847 0.84138 0.47185 0.0
C1598 C 0.77849 0.81255 0.52259 0.0
C1599 C 0.77899 0.84211 0.53902 0.0
N1600 N 0.78529 0.89914 0.53834 0.0
N1601 N 0.78358 0.78436 0.47228 0.0
C1602 C 0.78157 0.87122 0.52204 0.0
C1603 C 0.78009 0.81224 0.48875 0.0
N1604 N 0.77676 0.89866 0.4713 0.0
N1605 N 0.77552 0.78482 0.53943 0.0
H1606 H 0.78471 0.78346 0.44746 0.0
H1607 H 0.7879 0.76244 0.48299 0.0
H1608 H 0.77635 0.78394 0.56424 0.0
H1609 H 0.77086 0.76283 0.52905 0.0
H1610 H 0.77358 0.92094 0.48163 0.0
H1611 H 0.7759 0.89927 0.4465 0.0
H1612 H 0.79064 0.92079 0.52758 0.0
H1613 H 0.7851 0.90045 0.56311 0.0
C1614 C 0.65827 0.2255 0.01347 0.0
C1615 C 0.67463 0.24912 0.03119 0.0
C1616 C 0.68792 0.27611 0.98077 0.0
C1617 C 0.67367 0.25086 0.96318 0.0
N1618 N 0.65522 0.19608 0.96451 0.0
N1619 N 0.71206 0.29256 0.03064 0.0
C1620 C 0.66225 0.22375 0.97998 0.0
C1621 C 0.69141 0.27331 0.01453 0.0
N1622 N 0.63691 0.20602 0.02813 0.0
N1623 N 0.69869 0.30261 0.96532 0.0
H1624 H 0.7167 0.28987 0.05486 0.0
H1625 H 0.7272 0.30868 0.01946 0.0
H1626 H 0.69961 0.30444 0.9406 0.0
H1627 H 0.70536 0.32336 0.97715 0.0
H1628 H 0.62209 0.19038 0.01583 0.0
H1629 H 0.63087 0.20886 0.05186 0.0
H1630 H 0.64951 0.17512 0.97651 0.0
H1631 H 0.65914 0.19252 0.94044 0.0
C1632 C 0.22132 0.81355 0.48567 0.0
C1633 C 0.22257 0.84332 0.46984 0.0
C1634 C 0.22051 0.87128 0.52122 0.0
C1635 C 0.22325 0.8415 0.53709 0.0
N1636 N 0.22579 0.78422 0.53538 0.0
N1637 N 0.22244 0.90052 0.47113 0.0
C1638 C 0.22317 0.81258 0.51954 0.0
C1639 C 0.22141 0.87223 0.48724 0.0
N1640 N 0.21813 0.78627 0.46816 0.0
N1641 N 0.21762 0.89858 0.53872 0.0
H1642 H 0.22144 0.90187 0.44632 0.0
H1643 H 0.22529 0.92261 0.48191 0.0
H1644 H 0.2184 0.89886 0.56351 0.0
H1645 H 0.2127 0.92083 0.52904 0.0
H1646 H 0.21422 0.76389 0.47797 0.0
H1647 H 0.21701 0.78627 0.44333 0.0
H1648 H 0.23 0.76249 0.52428 0.0
H1649 H 0.22488 0.78249 0.56016 0.0
C1650 C 0.64742 0.72402 0.01931 0.0
C1651 C 0.67685 0.72436 0.03594 0.0
C1652 C 0.70562 0.73084 0.98529 0.0
C1653 C 0.67629 0.72911 0.96855 0.0
N1654 N 0.61958 0.72023 0.96885 0.0
N1655 N 0.73413 0.72279 0.03506 0.0
C1656 C 0.64734 0.7242 0.98535 0.0
C1657 C 0.70602 0.72626 0.01897 0.0
N1658 N 0.61949 0.72574 0.03597 0.0
N1659 N 0.73302 0.73741 0.96901 0.0
H1660 H 0.73522 0.71918 0.05963 0.0
H1661 H 0.75618 0.72081 0.02397 0.0
H1662 H 0.73393 0.73918 0.94424 0.0
H1663 H 0.75453 0.74288 0.98 0.0
H1664 H 0.59737 0.72942 0.02544 0.0
H1665 H 0.61849 0.72601 0.06076 0.0
H1666 H 0.59846 0.71253 0.97922 0.0
H1667 H 0.61803 0.7228 0.94425 0.0
C1668 C 0.79492 0.19144 0.51442 0.0
C1669 C 0.79476 0.16237 0.53169 0.0
C1670 C 0.79609 0.13211 0.48164 0.0
C1671 C 0.79457 0.16119 0.46444 0.0
N1672 N 0.80044 0.21805 0.46325 0.0
N1673 N 0.8021 0.10557 0.53282 0.0
C1674 C 0.79663 0.19074 0.48056 0.0
C1675 C 0.79797 0.13286 0.51558 0.0
N1676 N 0.79229 0.21963 0.5305 0.0
N1677 N 0.79367 0.10389 0.46561 0.0
H1678 H 0.80253 0.10537 0.55764 0.0
H1679 H 0.80745 0.08357 0.52278 0.0
H1680 H 0.79316 0.10249 0.44082 0.0
H1681 H 0.7907 0.08192 0.47665 0.0
H1682 H 0.78812 0.24145 0.51953 0.0
H1683 H 0.79314 0.22106 0.55531 0.0
H1684 H 0.8047 0.24028 0.47329 0.0
H1685 H 0.80203 0.218 0.43843 0.0
C1686 C 0.29669 0.25226 0.024 0.0
C1687 C 0.32585 0.25692 0.0404 0.0
C1688 C 0.35362 0.26439 0.98943 0.0
C1689 C 0.32498 0.25732 0.97298 0.0
N1690 N 0.26986 0.24152 0.97385 0.0
N1691 N 0.38294 0.26261 0.03909 0.0
C1692 C 0.29665 0.25039 0.99008 0.0
C1693 C 0.35452 0.26206 0.02323 0.0
N1694 N 0.26892 0.25059 0.0409 0.0
N1695 N 0.38017 0.27287 0.97266 0.0
H1696 H 0.38468 0.26044 0.06371 0.0
H1697 H 0.40503 0.26258 0.02789 0.0
H1698 H 0.38126 0.2721 0.9479 0.0
H1699 H 0.40053 0.28237 0.98309 0.0
H1700 H 0.24645 0.25043 0.03048 0.0
H1701 H 0.26815 0.25189 0.06571 0.0
H1702 H 0.24958 0.23245 0.98479 0.0
H1703 H 0.26844 0.24149 0.94904 0.0
C1704 C 0.51978 0.2217 0.19489 0.0
C1705 C 0.53582 0.21806 0.16542 0.0
C1706 C 0.48475 0.21315 0.13749 0.0
C1707 C 0.46877 0.2203 0.16641 0.0
N1708 N 0.47011 0.23223 0.22257 0.0
N1709 N 0.53486 0.21085 0.10859 0.0
C1710 C 0.48603 0.22458 0.19518 0.0
C1711 C 0.51865 0.21348 0.13672 0.0
N1712 N 0.53696 0.22208 0.22258 0.0
N1713 N 0.46743 0.20648 0.11073 0.0
H1714 H 0.55963 0.20972 0.10748 0.0
H1715 H 0.52415 0.21114 0.08626 0.0
H1716 H 0.44269 0.20796 0.11005 0.0
H1717 H 0.4772 0.19784 0.08968 0.0
H1718 H 0.52684 0.22174 0.24518 0.0
H1719 H 0.56173 0.22024 0.22305 0.0
H1720 H 0.48123 0.23955 0.24345 0.0
H1721 H 0.44532 0.23271 0.22412 0.0
C1722 C 0.51683 0.77358 0.87252 0.0
C1723 C 0.53393 0.7729 0.84341 0.0
C1724 C 0.48392 0.7717 0.81323 0.0
C1725 C 0.46674 0.77294 0.84226 0.0
N1726 N 0.4659 0.77955 0.89927 0.0
N1727 N 0.53455 0.77843 0.78638 0.0
C1728 C 0.48296 0.77551 0.87185 0.0
C1729 C 0.51766 0.77406 0.81383 0.0
N1730 N 0.53294 0.77098 0.90071 0.0
N1731 N 0.46797 0.76755 0.78513 0.0
H1732 H 0.55917 0.78106 0.78631 0.0
H1733 H 0.52416 0.78249 0.76424 0.0
H1734 H 0.44318 0.76741 0.78355 0.0
H1735 H 0.47917 0.76244 0.76362 0.0
H1736 H 0.52198 0.76766 0.92267 0.0
H1737 H 0.55772 0.77034 0.90204 0.0
H1738 H 0.47606 0.78496 0.92121 0.0
H1739 H 0.44111 0.7795 0.89976 0.0
C1740 C 0.72257 0.98163 0.36393 0.0
C1741 C 0.72631 0.96516 0.33464 0.0
C1742 C 0.72587 0.01569 0.30543 0.0
C1743 C 0.72231 0.0322 0.33477 0.0
N1744 N 0.71163 0.03135 0.39116 0.0
N1745 N 0.7255 0.96506 0.27736 0.0
C1746 C 0.71851 0.01525 0.36373 0.0
C1747 C 0.72609 0.9818 0.3053 0.0
N1748 N 0.72492 0.96535 0.39202 0.0
N1749 N 0.72973 0.03253 0.27781 0.0
H1750 H 0.7257 0.94023 0.27661 0.0
H1751 H 0.72234 0.97542 0.25508 0.0
H1752 H 0.72731 0.05722 0.27663 0.0
H1753 H 0.73657 0.02236 0.25627 0.0
H1754 H 0.72631 0.97615 0.41428 0.0
H1755 H 0.7277 0.94076 0.39307 0.0
H1756 H 0.70499 0.02033 0.41234 0.0
H1757 H 0.71034 0.05605 0.39225 0.0
C1758 C 0.47724 0.24175 0.80439 0.0
C1759 C 0.46114 0.23464 0.83328 0.0
C1760 C 0.51252 0.22592 0.86023 0.0
C1761 C 0.52848 0.23283 0.83127 0.0
N1762 N 0.52699 0.24201 0.77475 0.0
N1763 N 0.46255 0.21757 0.8881 0.0
C1764 C 0.51105 0.23921 0.80303 0.0
C1765 C 0.47856 0.22569 0.86095 0.0
N1766 N 0.46014 0.25143 0.77838 0.0
N1767 N 0.52995 0.22126 0.88739 0.0
H1768 H 0.43802 0.22017 0.89051 0.0
H1769 H 0.47315 0.20714 0.90791 0.0
H1770 H 0.55475 0.22033 0.8875 0.0
H1771 H 0.52023 0.21974 0.91011 0.0
H1772 H 0.47032 0.26076 0.75782 0.0
H1773 H 0.43532 0.2516 0.77777 0.0
H1774 H 0.5159 0.24371 0.75266 0.0
H1775 H 0.5517 0.24011 0.77302 0.0
C1776 C 0.25797 0.98559 0.35584 0.0
C1777 C 0.25777 0.96882 0.32644 0.0
C1778 C 0.25622 0.01967 0.29726 0.0
C1779 C 0.25496 0.03627 0.32669 0.0
N1780 N 0.24959 0.03539 0.38382 0.0
N1781 N 0.2531 0.96908 0.26924 0.0
C1782 C 0.25471 0.01932 0.35595 0.0
C1783 C 0.25575 0.98566 0.29714 0.0
N1784 N 0.26095 0.96921 0.38381 0.0
N1785 N 0.25905 0.03648 0.2695 0.0
H1786 H 0.25439 0.9443 0.26809 0.0
H1787 H 0.24786 0.97958 0.24741 0.0
H1788 H 0.25912 0.06131 0.26874 0.0
H1789 H 0.26351 0.0261 0.24745 0.0
H1790 H 0.26584 0.97988 0.40563 0.0
H1791 H 0.26 0.9445 0.3851 0.0
H1792 H 0.24542 0.02442 0.40563 0.0
H1793 H 0.24698 0.06 0.38488 0.0
C1794 C 0.5248 0.78535 0.13549 0.0
C1795 C 0.54246 0.78178 0.16405 0.0
C1796 C 0.49312 0.77857 0.19513 0.0
C1797 C 0.47534 0.78164 0.16655 0.0
N1798 N 0.47326 0.79287 0.11029 0.0
N1799 N 0.54459 0.78205 0.22131 0.0
C1800 C 0.49093 0.78693 0.13698 0.0
C1801 C 0.52689 0.78065 0.19399 0.0
N1802 N 0.54039 0.78536 0.10689 0.0
N1803 N 0.47767 0.77275 0.22321 0.0
H1804 H 0.56937 0.78387 0.22113 0.0
H1805 H 0.53487 0.78417 0.244 0.0
H1806 H 0.45292 0.77289 0.22527 0.0
H1807 H 0.48916 0.76626 0.24419 0.0
H1808 H 0.52905 0.78407 0.0849 0.0
H1809 H 0.56516 0.78511 0.10509 0.0
H1810 H 0.48288 0.80018 0.08867 0.0
H1811 H 0.44848 0.79234 0.11023 0.0
C1812 C 0.71239 0.99055 0.69292 0.0
C1813 C 0.71396 0.97211 0.66461 0.0
C1814 C 0.71467 0.02104 0.63237 0.0
C1815 C 0.71294 0.03938 0.66071 0.0
N1816 N 0.70367 0.0424 0.71715 0.0
N1817 N 0.71207 0.96902 0.6073 0.0
C1818 C 0.70976 0.0243 0.69076 0.0
C1819 C 0.7133 0.98716 0.63429 0.0
N1820 N 0.71433 0.97579 0.72191 0.0
N1821 N 0.71975 0.03595 0.60386 0.0
H1822 H 0.71344 0.94428 0.60768 0.0
H1823 H 0.70783 0.97821 0.58468 0.0
H1824 H 0.72048 0.06063 0.6015 0.0
H1825 H 0.72515 0.02408 0.58279 0.0
H1826 H 0.71734 0.98786 0.74334 0.0
H1827 H 0.71461 0.9511 0.72449 0.0
H1828 H 0.69815 0.03297 0.73939 0.0
H1829 H 0.7014 0.06713 0.71619 0.0
C1830 C 0.29714 0.01986 0.68988 0.0
C1831 C 0.29295 0.03581 0.66045 0.0
C1832 C 0.29625 0.98494 0.63187 0.0
C1833 C 0.29572 0.96877 0.66156 0.0
N1834 N 0.29626 0.96989 0.71895 0.0
N1835 N 0.28822 0.03465 0.60331 0.0
C1836 C 0.29672 0.986 0.69063 0.0
C1837 C 0.29309 0.01872 0.63131 0.0
N1838 N 0.3018 0.03729 0.71699 0.0
N1839 N 0.29911 0.9679 0.60428 0.0
H1840 H 0.28662 0.05939 0.60204 0.0
H1841 H 0.28419 0.02355 0.58154 0.0
H1842 H 0.29998 0.94312 0.60385 0.0
H1843 H 0.30278 0.97814 0.58203 0.0
H1844 H 0.30771 0.02744 0.73895 0.0
H1845 H 0.30233 0.06213 0.71696 0.0
H1846 H 0.29287 0.98072 0.74097 0.0
H1847 H 0.29804 0.94515 0.72038 0.0
C1848 C 0.15182 0.26249 0.32656 0.0
C1849 C 0.16952 0.29109 0.32236 0.0
C1850 C 0.21734 0.26404 0.34215 0.0
C1851 C 0.20076 0.23455 0.34344 0.0
N1852 N 0.14957 0.21083 0.35238 0.0
N1853 N 0.2121 0.32072 0.34707 0.0
C1854 C 0.16709 0.23518 0.34004 0.0
C1855 C 0.20018 0.29252 0.3365 0.0
N1856 N 0.12025 0.26166 0.31905 0.0
N1857 N 0.24948 0.26547 0.34567 0.0
H1858 H 0.19805 0.34094 0.3484 0.0
H1859 H 0.2335 0.32265 0.35949 0.0
H1860 H 0.26314 0.24603 0.35178 0.0
H1861 H 0.26265 0.28587 0.34051 0.0
H1862 H 0.10744 0.24054 0.31691 0.0
H1863 H 0.10686 0.28226 0.31545 0.0
H1864 H 0.12479 0.2106 0.35292 0.0
H1865 H 0.16013 0.19286 0.36588 0.0
C1866 C 0.24638 0.72094 0.83342 0.0
C1867 C 0.27369 0.70347 0.84246 0.0
C1868 C 0.24422 0.65415 0.83064 0.0
C1869 C 0.21694 0.6726 0.82242 0.0
N1870 N 0.18965 0.72113 0.83782 0.0
N1871 N 0.29389 0.65284 0.86042 0.0
C1872 C 0.21702 0.70519 0.83107 0.0
C1873 C 0.27141 0.6697 0.84416 0.0
N1874 N 0.24858 0.75195 0.8244 0.0
N1875 N 0.24379 0.62192 0.82679 0.0
H1876 H 0.31168 0.66413 0.87347 0.0
H1877 H 0.29251 0.6284 0.8643 0.0
H1878 H 0.22291 0.60947 0.82181 0.0
H1879 H 0.26414 0.60783 0.8285 0.0
H1880 H 0.22891 0.7651 0.81677 0.0
H1881 H 0.27055 0.76209 0.81923 0.0
H1882 H 0.18962 0.74496 0.84485 0.0
H1883 H 0.16831 0.70922 0.84164 0.0
C1884 C 0.80598 0.71965 0.33723 0.0
C1885 C 0.8378 0.72052 0.32639 0.0
C1886 C 0.84002 0.77603 0.34532 0.0
C1887 C 0.80618 0.77696 0.3461 0.0
N1888 N 0.75733 0.74866 0.33414 0.0
N1889 N 0.88752 0.74926 0.32593 0.0
C1890 C 0.78918 0.74843 0.33991 0.0
C1891 C 0.85565 0.74878 0.33208 0.0
N1892 N 0.79195 0.69192 0.3463 0.0
N1893 N 0.85707 0.80008 0.35888 0.0
H1894 H 0.90037 0.72858 0.32103 0.0
H1895 H 0.90091 0.77011 0.3256 0.0
H1896 H 0.84608 0.81835 0.37157 0.0
H1897 H 0.88176 0.79983 0.36097 0.0
H1898 H 0.76879 0.69111 0.35525 0.0
H1899 H 0.80514 0.67133 0.35018 0.0
H1900 H 0.74479 0.72819 0.32778 0.0
H1901 H 0.74492 0.76972 0.33081 0.0
C1902 C 0.747 0.35886 0.80252 0.0
C1903 C 0.77671 0.34382 0.80858 0.0
C1904 C 0.74806 0.31077 0.84779 0.0
C1905 C 0.71851 0.31721 0.83261 0.0
N1906 N 0.6907 0.35314 0.79606 0.0
N1907 N 0.80448 0.30549 0.84265 0.0
C1908 C 0.71807 0.34291 0.81013 0.0
C1909 C 0.77709 0.3198 0.83284 0.0
N1910 N 0.74623 0.38958 0.79187 0.0
N1911 N 0.74854 0.29831 0.87785 0.0
H1912 H 0.82694 0.31468 0.83903 0.0
H1913 H 0.80441 0.28433 0.85568 0.0
H1914 H 0.72791 0.29567 0.89138 0.0
H1915 H 0.76942 0.29537 0.89096 0.0
H1916 H 0.72518 0.40248 0.78919 0.0
H1917 H 0.76668 0.40359 0.79061 0.0
H1918 H 0.69083 0.3675 0.77577 0.0
H1919 H 0.66816 0.34859 0.8047 0.0
C1920 C 0.17958 0.77159 0.66892 0.0
C1921 C 0.20813 0.7839 0.68224 0.0
C1922 C 0.20366 0.74647 0.72702 0.0
C1923 C 0.1761 0.73291 0.71298 0.0
N1924 N 0.13973 0.72961 0.66883 0.0
N1925 N 0.2464 0.78463 0.7251 0.0
C1926 C 0.16434 0.74489 0.68358 0.0
C1927 C 0.21986 0.77167 0.71156 0.0
N1928 N 0.16636 0.7863 0.64307 0.0
N1929 N 0.21546 0.73384 0.75456 0.0
H1930 H 0.26162 0.7996 0.71277 0.0
H1931 H 0.25293 0.78156 0.7488 0.0
H1932 H 0.20225 0.71861 0.76883 0.0
H1933 H 0.23869 0.73705 0.76245 0.0
H1934 H 0.14391 0.78088 0.63411 0.0
H1935 H 0.17688 0.80578 0.63186 0.0
H1936 H 0.13237 0.73446 0.64566 0.0
H1937 H 0.12778 0.71052 0.67917 0.0
C1938 C 0.75092 0.67391 0.16278 0.0
C1939 C 0.72338 0.68289 0.18048 0.0
C1940 C 0.75321 0.67684 0.22986 0.0
C1941 C 0.78062 0.66738 0.21296 0.0
N1942 N 0.80273 0.64779 0.16384 0.0
N1943 N 0.69651 0.67153 0.23031 0.0
C1944 C 0.77873 0.66318 0.17942 0.0
C1945 C 0.72375 0.67754 0.21388 0.0
N1946 N 0.75021 0.67466 0.1303 0.0
N1947 N 0.75529 0.68693 0.26063 0.0
H1948 H 0.67537 0.66589 0.21871 0.0
H1949 H 0.6965 0.66663 0.25468 0.0
H1950 H 0.77717 0.69082 0.27171 0.0
H1951 H 0.73559 0.69536 0.27322 0.0
H1952 H 0.77051 0.67257 0.11621 0.0
H1953 H 0.72908 0.6774 0.11755 0.0
H1954 H 0.80188 0.64186 0.13978 0.0
H1955 H 0.8222 0.63815 0.17589 0.0
C1956 C 0.7944 0.23301 0.70649 0.0
C1957 C 0.80262 0.22414 0.67463 0.0
C1958 C 0.84078 0.26883 0.673 0.0
C1959 C 0.83049 0.27848 0.70374 0.0
N1960 N 0.79389 0.2731 0.74758 0.0
N1961 N 0.83419 0.23331 0.62757 0.0
C1962 C 0.80671 0.26121 0.72003 0.0
C1963 C 0.82598 0.24207 0.65783 0.0
N1964 N 0.77402 0.21493 0.72403 0.0
N1965 N 0.86503 0.2851 0.65868 0.0
H1966 H 0.82628 0.21233 0.617 0.0
H1967 H 0.84832 0.24688 0.61247 0.0
H1968 H 0.87582 0.3048 0.6692 0.0
H1969 H 0.87571 0.27847 0.63737 0.0
H1970 H 0.77254 0.21595 0.74879 0.0
H1971 H 0.75831 0.19906 0.71382 0.0
H1972 H 0.77333 0.2643 0.75825 0.0
H1973 H 0.80221 0.29352 0.75877 0.0
C1974 C 0.2413 0.29686 0.2243 0.0
C1975 C 0.22834 0.32458 0.20999 0.0
C1976 C 0.26724 0.32029 0.16637 0.0
C1977 C 0.27818 0.29099 0.17928 0.0
N1978 N 0.27402 0.24985 0.21916 0.0
N1979 N 0.22616 0.36116 0.16591 0.0
C1980 C 0.26464 0.27884 0.20779 0.0
C1981 C 0.24065 0.33602 0.18065 0.0
N1982 N 0.23224 0.2885 0.25445 0.0
N1983 N 0.28257 0.33323 0.14077 0.0
H1984 H 0.2071 0.37346 0.17602 0.0
H1985 H 0.23157 0.36856 0.14288 0.0
H1986 H 0.30123 0.32172 0.12911 0.0
H1987 H 0.27819 0.35611 0.1323 0.0
H1988 H 0.24316 0.27066 0.26776 0.0
H1989 H 0.21554 0.30133 0.26748 0.0
H1990 H 0.26163 0.23732 0.23658 0.0
H1991 H 0.29307 0.23723 0.20971 0.0
C1992 C 0.33912 0.16054 0.23621 0.0
C1993 C 0.34576 0.19367 0.23476 0.0
C1994 C 0.31241 0.20273 0.28085 0.0
C1995 C 0.30585 0.16984 0.28357 0.0
N1996 N 0.31788 0.11617 0.26698 0.0
N1997 N 0.35366 0.23988 0.26799 0.0
C1998 C 0.32073 0.14817 0.26215 0.0
C1999 C 0.33735 0.21281 0.26102 0.0
N2000 N 0.35125 0.1411 0.21324 0.0
N2001 N 0.29329 0.22474 0.29501 0.0
H2002 H 0.37546 0.24493 0.25732 0.0
H2003 H 0.3483 0.25382 0.28786 0.0
H2004 H 0.27213 0.2183 0.30619 0.0
H2005 H 0.2965 0.24917 0.29183 0.0
H2006 H 0.34466 0.11741 0.21023 0.0
H2007 H 0.36825 0.14931 0.19709 0.0
H2008 H 0.32992 0.09909 0.25367 0.0
H2009 H 0.30497 0.10668 0.28589 0.0
C2010 C 0.34513 0.83375 0.77231 0.0
C2011 C 0.33909 0.80084 0.77747 0.0
C2012 C 0.32724 0.79522 0.72111 0.0
C2013 C 0.3242 0.82864 0.71753 0.0
N2014 N 0.33605 0.88049 0.7393 0.0
N2015 N 0.31482 0.75288 0.7572 0.0
C2016 C 0.33479 0.84827 0.74315 0.0
C2017 C 0.32749 0.78225 0.75197 0.0
N2018 N 0.36205 0.85059 0.79433 0.0
N2019 N 0.33135 0.77575 0.69554 0.0
H2020 H 0.31056 0.74441 0.78013 0.0
H2021 H 0.30454 0.73943 0.73901 0.0
H2022 H 0.33723 0.78468 0.6732 0.0
H2023 H 0.33446 0.75121 0.69793 0.0
H2024 H 0.36936 0.87401 0.79098 0.0
H2025 H 0.37155 0.83995 0.81464 0.0
H2026 H 0.33929 0.89631 0.75812 0.0
H2027 H 0.3338 0.89126 0.71703 0.0
C2028 C 0.67596 0.83597 0.27136 0.0
C2029 C 0.70711 0.82774 0.28166 0.0
C2030 C 0.70923 0.7853 0.24177 0.0
C2031 C 0.67973 0.79554 0.22904 0.0
N2032 N 0.63616 0.83286 0.22932 0.0
N2033 N 0.75501 0.79682 0.2739 0.0
C2034 C 0.6632 0.8214 0.24331 0.0
C2035 C 0.72426 0.80332 0.26578 0.0
N2036 N 0.65864 0.85759 0.28841 0.0
N2037 N 0.72205 0.75694 0.23236 0.0
H2038 H 0.76569 0.8062 0.29401 0.0
H2039 H 0.77039 0.78331 0.25988 0.0
H2040 H 0.71058 0.74175 0.21664 0.0
H2041 H 0.74223 0.74686 0.24256 0.0
H2042 H 0.63463 0.86218 0.28431 0.0
H2043 H 0.66791 0.86965 0.30804 0.0
H2044 H 0.62469 0.85359 0.23658 0.0
H2045 H 0.62639 0.82279 0.20886 0.0
C2046 C 0.69456 0.22031 0.71365 0.0
C2047 C 0.68891 0.18741 0.70695 0.0
C2048 C 0.65035 0.1862 0.7513 0.0
C2049 C 0.65961 0.2175 0.76004 0.0
N2050 N 0.69475 0.26221 0.75287 0.0
N2051 N 0.65988 0.13933 0.71848 0.0
C2052 C 0.68228 0.23421 0.74175 0.0
C2053 C 0.66621 0.17045 0.72552 0.0
N2054 N 0.71303 0.23842 0.69414 0.0
N2055 N 0.62626 0.17178 0.7677 0.0
H2056 H 0.66857 0.12813 0.6981 0.0
H2057 H 0.64664 0.12426 0.73298 0.0
H2058 H 0.6145 0.18294 0.78651 0.0
H2059 H 0.6164 0.14993 0.7616 0.0
H2060 H 0.71254 0.26324 0.69416 0.0
H2061 H 0.72936 0.22875 0.67856 0.0
H2062 H 0.71445 0.27342 0.74283 0.0
H2063 H 0.68748 0.27297 0.77396 0.0
C2064 C 0.80797 0.78191 0.70913 0.0
C2065 C 0.80297 0.78636 0.67606 0.0
C2066 C 0.83844 0.7406 0.66621 0.0
C2067 C 0.84403 0.73793 0.69945 0.0
N2068 N 0.84836 0.76926 0.74742 0.0
N2069 N 0.82109 0.77442 0.62259 0.0
C2070 C 0.83352 0.76285 0.71938 0.0
C2071 C 0.82039 0.76695 0.65422 0.0
N2072 N 0.78713 0.79383 0.73094 0.0
N2073 N 0.85131 0.71855 0.64618 0.0
H2074 H 0.80994 0.79448 0.6133 0.0
H2075 H 0.83532 0.7626 0.60609 0.0
H2076 H 0.86807 0.70201 0.65416 0.0
H2077 H 0.84508 0.7165 0.62226 0.0
H2078 H 0.78974 0.78989 0.75535 0.0
H2079 H 0.76503 0.80292 0.72418 0.0
H2080 H 0.8414 0.78808 0.76209 0.0
H2081 H 0.87059 0.75963 0.75268 0.0
C2082 C 0.72917 0.29796 0.20049 0.0
C2083 C 0.72363 0.29928 0.1673 0.0
C2084 C 0.77082 0.33347 0.16151 0.0
C2085 C 0.77508 0.33304 0.19514 0.0
N2086 N 0.75177 0.32185 0.24699 0.0
N2087 N 0.73579 0.3225 0.11647 0.0
C2088 C 0.75181 0.31819 0.21466 0.0
C2089 C 0.74358 0.31822 0.14774 0.0
N2090 N 0.71496 0.27499 0.21842 0.0
N2091 N 0.79243 0.34903 0.14296 0.0
H2092 H 0.71558 0.31221 0.10643 0.0
H2093 H 0.74773 0.33793 0.10123 0.0
H2094 H 0.81013 0.36342 0.15272 0.0
H2095 H 0.79315 0.34734 0.11824 0.0
H2096 H 0.71957 0.27154 0.24251 0.0
H2097 H 0.70163 0.25691 0.20834 0.0
H2098 H 0.73234 0.31574 0.26117 0.0
H2099 H 0.76997 0.33232 0.2598 0.0
C2100 C 0.15775 0.2353 0.71955 0.0
C2101 C 0.15091 0.26252 0.70138 0.0
C2102 C 0.17162 0.23426 0.65433 0.0
C2103 C 0.1872 0.21207 0.67483 0.0
N2104 N 0.19905 0.19784 0.72982 0.0
N2105 N 0.14477 0.28544 0.64953 0.0
C2106 C 0.181 0.21394 0.70824 0.0
C2107 C 0.15598 0.26127 0.66802 0.0
N2108 N 0.14203 0.22948 0.74727 0.0
N2109 N 0.1704 0.22885 0.62228 0.0
H2110 H 0.1296 0.3028 0.65884 0.0
H2111 H 0.15069 0.28836 0.62562 0.0
H2112 H 0.17911 0.20809 0.61189 0.0
H2113 H 0.1577 0.24309 0.60646 0.0
H2114 H 0.14575 0.2089 0.76067 0.0
H2115 H 0.12178 0.24233 0.75348 0.0
H2116 H 0.19585 0.19995 0.75436 0.0
H2117 H 0.22021 0.18694 0.72356 0.0
C2118 C 0.24895 0.66192 0.17779 0.0
C2119 C 0.23079 0.67831 0.20126 0.0
C2120 C 0.26908 0.72238 0.20023 0.0
C2121 C 0.28544 0.70774 0.17475 0.0
N2122 N 0.29102 0.66443 0.13777 0.0
N2123 N 0.22217 0.72632 0.23213 0.0
C2124 C 0.27552 0.67758 0.16317 0.0
C2125 C 0.24036 0.70921 0.21141 0.0
N2126 N 0.24071 0.6316 0.16945 0.0
N2127 N 0.28212 0.74802 0.2154 0.0
H2128 H 0.20376 0.71645 0.24505 0.0
H2129 H 0.22456 0.75076 0.23561 0.0
H2130 H 0.30367 0.75795 0.20873 0.0
H2131 H 0.27327 0.75761 0.23645 0.0
H2132 H 0.25452 0.61702 0.15496 0.0
H2133 H 0.22051 0.62029 0.17835 0.0
H2134 H 0.28352 0.64398 0.12601 0.0
H2135 H 0.31074 0.67517 0.1272 0.0
C2136 C 0.84273 0.26097 0.31981 0.0
C2137 C 0.83057 0.27139 0.28998 0.0
C2138 C 0.7873 0.23245 0.2936 0.0
C2139 C 0.79997 0.2211 0.32275 0.0
N2140 N 0.84162 0.22119 0.36206 0.0
N2141 N 0.79511 0.26303 0.24569 0.0
C2142 C 0.82822 0.23449 0.33554 0.0
C2143 C 0.80412 0.25573 0.27602 0.0
N2144 N 0.86792 0.27662 0.3331 0.0
N2145 N 0.7582 0.22197 0.28346 0.0
H2146 H 0.80501 0.28179 0.23312 0.0
H2147 H 0.77951 0.24929 0.23222 0.0
H2148 H 0.74408 0.20665 0.29678 0.0
H2149 H 0.74664 0.23016 0.2632 0.0
H2150 H 0.87583 0.27291 0.35629 0.0
H2151 H 0.88029 0.29446 0.32109 0.0
H2152 H 0.8638 0.22758 0.37102 0.0
H2153 H 0.83122 0.20222 0.37421 0.0
C2154 C 0.23746 0.34145 0.82232 0.0
C2155 C 0.21639 0.32073 0.80579 0.0
C2156 C 0.23841 0.27585 0.83544 0.0
C2157 C 0.26437 0.2946 0.84579 0.0
N2158 N 0.28483 0.34697 0.85542 0.0
N2159 N 0.20343 0.26665 0.7912 0.0
C2160 C 0.26279 0.32809 0.84097 0.0
C2161 C 0.21866 0.28749 0.81088 0.0
N2162 N 0.23262 0.37357 0.82099 0.0
N2163 N 0.23113 0.24791 0.85015 0.0
H2164 H 0.19097 0.27404 0.77103 0.0
H2165 H 0.2065 0.24208 0.79304 0.0
H2166 H 0.24122 0.24158 0.87191 0.0
H2167 H 0.21136 0.23431 0.8438 0.0
H2168 H 0.24551 0.39005 0.83421 0.0
H2169 H 0.21403 0.38369 0.80804 0.0
H2170 H 0.28799 0.371 0.85033 0.0
H2171 H 0.29984 0.338 0.87309 0.0
C2172 C 0.17075 0.76979 0.34045 0.0
C2173 C 0.20371 0.77128 0.3475 0.0
C2174 C 0.21231 0.72136 0.32 0.0
C2175 C 0.17942 0.71943 0.31145 0.0
N2176 N 0.126 0.73724 0.32368 0.0
N2177 N 0.24831 0.73802 0.36128 0.0
C2178 C 0.15807 0.74238 0.32465 0.0
C2179 C 0.22211 0.74368 0.34305 0.0
N2180 N 0.15155 0.79395 0.35038 0.0
N2181 N 0.23498 0.70411 0.30456 0.0
H2182 H 0.25304 0.75132 0.38165 0.0
H2183 H 0.26165 0.71714 0.35938 0.0
H2184 H 0.23016 0.69148 0.28401 0.0
H2185 H 0.25925 0.70663 0.30918 0.0
H2186 H 0.12809 0.79693 0.34295 0.0
H2187 H 0.15979 0.81106 0.3664 0.0
H2188 H 0.10933 0.752 0.33455 0.0
H2189 H 0.11612 0.7163 0.31494 0.0
C2190 C 0.76394 0.70692 0.78187 0.0
C2191 C 0.77916 0.67979 0.79522 0.0
C2192 C 0.7412 0.68056 0.83991 0.0
C2193 C 0.7271 0.70854 0.82717 0.0
N2194 N 0.72645 0.7503 0.78777 0.0
N2195 N 0.78514 0.6427 0.83848 0.0
C2196 C 0.73882 0.72214 0.79857 0.0
C2197 C 0.76863 0.66717 0.82477 0.0
N2198 N 0.77346 0.71816 0.75291 0.0
N2199 N 0.72776 0.66636 0.86591 0.0
H2200 H 0.80444 0.6317 0.82739 0.0
H2201 H 0.781 0.63444 0.86147 0.0
H2202 H 0.70816 0.67598 0.87773 0.0
H2203 H 0.73462 0.64421 0.87463 0.0
H2204 H 0.76001 0.73363 0.73897 0.0
H2205 H 0.79421 0.71061 0.74187 0.0
H2206 H 0.73615 0.76366 0.76933 0.0
H2207 H 0.70732 0.76166 0.79856 0.0
C2208 C 0.67843 0.85508 0.74938 0.0
C2209 C 0.68236 0.83535 0.72196 0.0
C2210 C 0.64853 0.79571 0.74899 0.0
C2211 C 0.65482 0.81009 0.77887 0.0
N2212 N 0.66624 0.85917 0.80569 0.0
N2213 N 0.66523 0.78621 0.69572 0.0
C2214 C 0.66735 0.84147 0.7786 0.0
C2215 C 0.66581 0.80551 0.72174 0.0
N2216 N 0.6822 0.88727 0.74669 0.0
N2217 N 0.62357 0.77521 0.74539 0.0
H2218 H 0.666 0.7946 0.67262 0.0
H2219 H 0.66026 0.76192 0.69745 0.0
H2220 H 0.60637 0.77191 0.76284 0.0
H2221 H 0.61674 0.76578 0.72346 0.0
H2222 H 0.67817 0.90324 0.7652 0.0
H2223 H 0.68487 0.89845 0.72469 0.0
H2224 H 0.67929 0.87996 0.80905 0.0
H2225 H 0.65081 0.85314 0.82409 0.0
C2226 C 0.67819 0.1507 0.26069 0.0
C2227 C 0.68358 0.16855 0.28905 0.0
C2228 C 0.6643 0.21659 0.26198 0.0
C2229 C 0.66176 0.19973 0.23268 0.0
N2230 N 0.65137 0.14856 0.20949 0.0
N2231 N 0.66116 0.21232 0.31895 0.0
C2232 C 0.66447 0.16601 0.23352 0.0
C2233 C 0.67038 0.19965 0.29055 0.0
N2234 N 0.68483 0.11892 0.26002 0.0
N2235 N 0.66169 0.24884 0.26307 0.0
H2236 H 0.66001 0.1987 0.33947 0.0
H2237 H 0.64943 0.23411 0.32097 0.0
H2238 H 0.65638 0.2624 0.24332 0.0
H2239 H 0.66749 0.26218 0.2832 0.0
H2240 H 0.68614 0.10578 0.23901 0.0
H2241 H 0.68863 0.10571 0.2807 0.0
H2242 H 0.65029 0.1238 0.20945 0.0
H2243 H 0.63783 0.15924 0.19162 0.0
C2244 C 0.32668 0.16076 0.73668 0.0
C2245 C 0.30218 0.17707 0.71984 0.0
C2246 C 0.30279 0.21964 0.75995 0.0
C2247 C 0.32848 0.20452 0.77572 0.0
N2248 N 0.36699 0.16229 0.77849 0.0
N2249 N 0.26982 0.22446 0.7136 0.0
C2250 C 0.34102 0.17543 0.76393 0.0
C2251 C 0.2915 0.20735 0.73073 0.0
N2252 N 0.33617 0.13131 0.72659 0.0
N2253 N 0.28729 0.24449 0.77416 0.0
H2254 H 0.2564 0.21474 0.69539 0.0
H2255 H 0.26574 0.2487 0.71697 0.0
H2256 H 0.29415 0.25393 0.79592 0.0
H2257 H 0.26588 0.25394 0.76601 0.0
H2258 H 0.35123 0.11645 0.73946 0.0
H2259 H 0.32791 0.12104 0.70556 0.0
H2260 H 0.37935 0.14267 0.7698 0.0
H2261 H 0.37752 0.17236 0.7986 0.0
C2262 C 0.31365 0.79799 0.28047 0.0
C2263 C 0.30757 0.83107 0.28283 0.0
C2264 C 0.34178 0.8394 0.23581 0.0
C2265 C 0.34809 0.80615 0.23455 0.0
N2266 N 0.35393 0.75952 0.26767 0.0
N2267 N 0.32078 0.88433 0.26597 0.0
C2268 C 0.33849 0.78712 0.26062 0.0
C2269 C 0.32308 0.85224 0.26137 0.0
N2270 N 0.29454 0.77655 0.29558 0.0
N2271 N 0.35467 0.85862 0.21308 0.0
H2272 H 0.30766 0.89428 0.28451 0.0
H2273 H 0.33349 0.90107 0.25289 0.0
H2274 H 0.37207 0.85025 0.19744 0.0
H2275 H 0.34826 0.88232 0.20972 0.0
H2276 H 0.29719 0.75202 0.29268 0.0
H2277 H 0.27392 0.78334 0.30765 0.0
H2278 H 0.34804 0.74562 0.28739 0.0
H2279 H 0.37582 0.75398 0.25748 0.0
loop_
_geom_bond_atom_site_label_1
_geom_bond_atom_site_label_2
_geom_bond_distance
_geom_bond_site_symmetry_2
_ccdc_geom_bond_type
Co0 O2 2.143 . S
Co0 O8 2.074 . S
Co0 O11 2.093 . S
Co0 O24 2.097 . S
Co0 N41 2.151 . S
Co0 N49 2.214 . S
Co1 O2 2.160 . S
Co1 O7 2.058 . S
Co1 O17 2.057 . S
Co1 O32 2.037 . S
Co1 N36 2.145 . S
Co1 N57 2.257 . S
O2 Co0 2.143 . S
O2 Co1 2.160 . S
C3 O4 1.278 . S
C3 O11 1.224 . S
O4 C3 1.278 . S
C5 O6 1.245 . S
C5 O17 1.232 . S
O6 C5 1.245 . S
O7 Co1 2.058 . S
O7 C33 1.269 . S
O8 Co0 2.074 . S
O8 C33 1.257 . S
H9 C34 0.930 . S
H10 C40 0.930 . S
O11 Co0 2.093 . S
O11 C3 1.224 . S
H12 C44 0.929 . S
H13 C46 0.930 . S
H14 C47 0.930 . S
H15 C45 0.929 . S
H16 C48 0.928 . S
O17 Co1 2.057 . S
O17 C5 1.232 . S
H18 C37 0.929 . S
H19 C38 0.929 . S
H20 C50 0.931 . S
H21 C42 0.929 . S
H22 C51 0.930 . S
H23 C43 0.931 . S
O24 Co0 2.097 . S
O24 C52 1.214 . S
H25 C53 0.929 . S
H26 C54 0.929 . S
H27 C55 0.930 . S
H28 C56 0.929 . S
H29 C58 0.930 . S
H30 C35 0.930 . S
H31 C39 0.930 . S
O32 Co1 2.037 . S
O32 C52 1.234 . S
C33 O7 1.269 . S
C33 O8 1.257 . S
C34 H9 0.930 . S
C34 C37 1.388 . S
C34 C39 1.418 . S
C35 H30 0.930 . S
C35 C38 1.404 . S
C35 C39 1.353 . S
N36 Co1 2.145 . S
N36 C37 1.397 . S
N36 C38 1.334 . S
C37 H18 0.929 . S
C37 C34 1.388 . S
C37 N36 1.397 . S
C38 H19 0.929 . S
C38 C35 1.404 . S
C38 N36 1.334 . S
C39 H31 0.930 . S
C39 C34 1.418 . S
C39 C35 1.353 . S
C40 H10 0.930 . S
C40 N41 1.330 . S
C40 C42 1.446 . S
N41 Co0 2.151 . S
N41 C40 1.330 . S
N41 C45 1.418 . S
C42 H21 0.929 . S
C42 C40 1.446 . S
C42 C43 1.332 . S
C43 H23 0.931 . S
C43 C42 1.332 . S
C43 C44 1.267 . S
C44 H12 0.929 . S
C44 C43 1.267 . S
C44 C45 1.251 . S
C45 H15 0.929 . S
C45 N41 1.418 . S
C45 C44 1.251 . S
C46 H13 0.930 . S
C46 C48 1.406 . S
C46 C51 1.261 . S
C47 H14 0.930 . S
C47 N49 1.325 . S
C47 C50 1.357 . S
C48 H16 0.928 . S
C48 C46 1.406 . S
C48 N49 1.261 . S
N49 Co0 2.214 . S
N49 C47 1.325 . S
N49 C48 1.261 . S
C50 H20 0.931 . S
C50 C47 1.357 . S
C50 C51 1.312 . S
C51 H22 0.930 . S
C51 C46 1.261 . S
C51 C50 1.312 . S
C52 O24 1.214 . S
C52 O32 1.234 . S
C53 H25 0.929 . S
C53 C56 1.391 . S
C53 C58 1.391 . S
C54 H26 0.929 . S
C54 C55 1.390 . S
C54 N57 1.391 . S
C55 H27 0.930 . S
C55 C54 1.390 . S
C55 C56 1.392 . S
C56 H28 0.929 . S
C56 C53 1.391 . S
C56 C55 1.392 . S
N57 Co1 2.257 . S
N57 C54 1.391 . S
N57 C58 1.388 . S
C58 H29 0.930 . S
C58 C53 1.391 . S
C58 N57 1.388 . S
Co59 O61 2.143 . S
Co59 O67 2.074 . S
Co59 O70 2.093 . S
Co59 O83 2.097 . S
Co59 N100 2.151 . S
Co59 N108 2.214 . S
Co60 O61 2.160 . S
Co60 O66 2.058 . S
Co60 O76 2.057 . S
Co60 O91 2.037 . S
Co60 N95 2.145 . S
Co60 N116 2.257 . S
O61 Co59 2.143 . S
O61 Co60 2.160 . S
C62 O63 1.278 . S
C62 O70 1.224 . S
O63 C62 1.278 . S
C64 O65 1.245 . S
C64 O76 1.232 . S
O65 C64 1.245 . S
O66 Co60 2.058 . S
O66 C92 1.269 . S
O67 Co59 2.074 . S
O67 C92 1.257 . S
H68 C93 0.930 . S
H69 C99 0.930 . S
O70 Co59 2.093 . S
O70 C62 1.224 . S
H71 C103 0.929 . S
H72 C105 0.930 . S
H73 C106 0.930 . S
H74 C104 0.929 . S
H75 C107 0.928 . S
O76 Co60 2.057 . S
O76 C64 1.232 . S
H77 C96 0.929 . S
H78 C97 0.929 . S
H79 C109 0.931 . S
H80 C101 0.929 . S
H81 C110 0.930 . S
H82 C102 0.931 . S
O83 Co59 2.097 . S
O83 C111 1.214 . S
H84 C112 0.929 . S
H85 C113 0.929 . S
H86 C114 0.930 . S
H87 C115 0.929 . S
H88 C117 0.930 . S
H89 C94 0.930 . S
H90 C98 0.930 . S
O91 Co60 2.037 . S
O91 C111 1.234 . S
C92 O66 1.269 . S
C92 O67 1.257 . S
C93 H68 0.930 . S
C93 C96 1.388 . S
C93 C98 1.418 . S
C94 H89 0.930 . S
C94 C97 1.404 . S
C94 C98 1.353 . S
N95 Co60 2.145 . S
N95 C96 1.397 . S
N95 C97 1.334 . S
C96 H77 0.929 . S
C96 C93 1.388 . S
C96 N95 1.397 . S
C97 H78 0.929 . S
C97 C94 1.404 . S
C97 N95 1.334 . S
C98 H90 0.930 . S
C98 C93 1.418 . S
C98 C94 1.353 . S
C99 H69 0.930 . S
C99 N100 1.330 . S
C99 C101 1.446 . S
N100 Co59 2.151 . S
N100 C99 1.330 . S
N100 C104 1.418 . S
C101 H80 0.929 . S
C101 C99 1.446 . S
C101 C102 1.332 . S
C102 H82 0.931 . S
C102 C101 1.332 . S
C102 C103 1.267 . S
C103 H71 0.929 . S
C103 C102 1.267 . S
C103 C104 1.251 . S
C104 H74 0.929 . S
C104 N100 1.418 . S
C104 C103 1.251 . S
C105 H72 0.930 . S
C105 C107 1.406 . S
C105 C110 1.261 . S
C106 H73 0.930 . S
C106 N108 1.325 . S
C106 C109 1.357 . S
C107 H75 0.928 . S
C107 C105 1.406 . S
C107 N108 1.261 . S
N108 Co59 2.214 . S
N108 C106 1.325 . S
N108 C107 1.261 . S
C109 H79 0.931 . S
C109 C106 1.357 . S
C109 C110 1.312 . S
C110 H81 0.930 . S
C110 C105 1.261 . S
C110 C109 1.312 . S
C111 O83 1.214 . S
C111 O91 1.234 . S
C112 H84 0.929 . S
C112 C115 1.391 . S
C112 C117 1.391 . S
C113 H85 0.929 . S
C113 C114 1.390 . S
C113 N116 1.391 . S
C114 H86 0.930 . S
C114 C113 1.390 . S
C114 C115 1.392 . S
C115 H87 0.929 . S
C115 C112 1.391 . S
C115 C114 1.392 . S
N116 Co60 2.257 . S
N116 C113 1.391 . S
N116 C117 1.388 . S
C117 H88 0.930 . S
C117 C112 1.391 . S
C117 N116 1.388 . S
Co118 O120 2.143 . S
Co118 O126 2.074 . S
Co118 O129 2.093 . S
Co118 O142 2.097 . S
Co118 N159 2.151 . S
Co118 N167 2.214 . S
Co119 O120 2.160 . S
Co119 O125 2.058 . S
Co119 O135 2.057 . S
Co119 O150 2.037 . S
Co119 N154 2.145 . S
Co119 N175 2.257 . S
O120 Co118 2.143 . S
O120 Co119 2.160 . S
C121 O122 1.278 . S
C121 O129 1.224 . S
O122 C121 1.278 . S
C123 O124 1.245 . S
C123 O135 1.232 . S
O124 C123 1.245 . S
O125 Co119 2.058 . S
O125 C151 1.269 . S
O126 Co118 2.074 . S
O126 C151 1.257 . S
H127 C152 0.930 . S
H128 C158 0.930 . S
O129 Co118 2.093 . S
O129 C121 1.224 . S
H130 C162 0.929 . S
H131 C164 0.930 . S
H132 C165 0.930 . S
H133 C163 0.929 . S
H134 C166 0.928 . S
O135 Co119 2.057 . S
O135 C123 1.232 . S
H136 C155 0.929 . S
H137 C156 0.929 . S
H138 C168 0.931 . S
H139 C160 0.929 . S
H140 C169 0.930 . S
H141 C161 0.931 . S
O142 Co118 2.097 . S
O142 C170 1.214 . S
H143 C171 0.929 . S
H144 C172 0.929 . S
H145 C173 0.930 . S
H146 C174 0.929 . S
H147 C176 0.930 . S
H148 C153 0.930 . S
H149 C157 0.930 . S
O150 Co119 2.037 . S
O150 C170 1.234 . S
C151 O125 1.269 . S
C151 O126 1.257 . S
C152 H127 0.930 . S
C152 C155 1.388 . S
C152 C157 1.418 . S
C153 H148 0.930 . S
C153 C156 1.404 . S
C153 C157 1.353 . S
N154 Co119 2.145 . S
N154 C155 1.397 . S
N154 C156 1.334 . S
C155 H136 0.929 . S
C155 C152 1.388 . S
C155 N154 1.397 . S
C156 H137 0.929 . S
C156 C153 1.404 . S
C156 N154 1.334 . S
C157 H149 0.930 . S
C157 C152 1.418 . S
C157 C153 1.353 . S
C158 H128 0.930 . S
C158 N159 1.330 . S
C158 C160 1.446 . S
N159 Co118 2.151 . S
N159 C158 1.330 . S
N159 C163 1.418 . S
C160 H139 0.929 . S
C160 C158 1.446 . S
C160 C161 1.332 . S
C161 H141 0.931 . S
C161 C160 1.332 . S
C161 C162 1.267 . S
C162 H130 0.929 . S
C162 C161 1.267 . S
C162 C163 1.251 . S
C163 H133 0.929 . S
C163 N159 1.418 . S
C163 C162 1.251 . S
C164 H131 0.930 . S
C164 C166 1.406 . S
C164 C169 1.261 . S
C165 H132 0.930 . S
C165 N167 1.325 . S
C165 C168 1.357 . S
C166 H134 0.928 . S
C166 C164 1.406 . S
C166 N167 1.261 . S
N167 Co118 2.214 . S
N167 C165 1.325 . S
N167 C166 1.261 . S
C168 H138 0.931 . S
C168 C165 1.357 . S
C168 C169 1.312 . S
C169 H140 0.930 . S
C169 C164 1.261 . S
C169 C168 1.312 . S
C170 O142 1.214 . S
C170 O150 1.234 . S
C171 H143 0.929 . S
C171 C174 1.391 . S
C171 C176 1.391 . S
C172 H144 0.929 . S
C172 C173 1.390 . S
C172 N175 1.391 . S
C173 H145 0.930 . S
C173 C172 1.390 . S
C173 C174 1.392 . S
C174 H146 0.929 . S
C174 C171 1.391 . S
C174 C173 1.392 . S
N175 Co119 2.257 . S
N175 C172 1.391 . S
N175 C176 1.388 . S
C176 H147 0.930 . S
C176 C171 1.391 . S
C176 N175 1.388 . S
Co177 O179 2.143 . S
Co177 O185 2.074 . S
Co177 O188 2.093 . S
Co177 O201 2.097 . S
Co177 N218 2.151 . S
Co177 N226 2.214 . S
Co178 O179 2.160 . S
Co178 O184 2.058 . S
Co178 O194 2.057 . S
Co178 O209 2.037 . S
Co178 N213 2.145 . S
Co178 N234 2.257 . S
O179 Co177 2.143 . S
O179 Co178 2.160 . S
C180 O181 1.278 . S
C180 O188 1.224 . S
O181 C180 1.278 . S
C182 O183 1.245 . S
C182 O194 1.232 . S
O183 C182 1.245 . S
O184 Co178 2.058 . S
O184 C210 1.269 . S
O185 Co177 2.074 . S
O185 C210 1.257 . S
H186 C211 0.930 . S
H187 C217 0.930 . S
O188 Co177 2.093 . S
O188 C180 1.224 . S
H189 C221 0.929 . S
H190 C223 0.930 . S
H191 C224 0.930 . S
H192 C222 0.929 . S
H193 C225 0.928 . S
O194 Co178 2.057 . S
O194 C182 1.232 . S
H195 C214 0.929 . S
H196 C215 0.929 . S
H197 C227 0.931 . S
H198 C219 0.929 . S
H199 C228 0.930 . S
H200 C220 0.931 . S
O201 Co177 2.097 . S
O201 C229 1.214 . S
H202 C230 0.929 . S
H203 C231 0.929 . S
H204 C232 0.930 . S
H205 C233 0.929 . S
H206 C235 0.930 . S
H207 C212 0.930 . S
H208 C216 0.930 . S
O209 Co178 2.037 . S
O209 C229 1.234 . S
C210 O184 1.269 . S
C210 O185 1.257 . S
C211 H186 0.930 . S
C211 C214 1.388 . S
C211 C216 1.418 . S
C212 H207 0.930 . S
C212 C215 1.404 . S
C212 C216 1.353 . S
N213 Co178 2.145 . S
N213 C214 1.397 . S
N213 C215 1.334 . S
C214 H195 0.929 . S
C214 C211 1.388 . S
C214 N213 1.397 . S
C215 H196 0.929 . S
C215 C212 1.404 . S
C215 N213 1.334 . S
C216 H208 0.930 . S
C216 C211 1.418 . S
C216 C212 1.353 . S
C217 H187 0.930 . S
C217 N218 1.330 . S
C217 C219 1.446 . S
N218 Co177 2.151 . S
N218 C217 1.330 . S
N218 C222 1.418 . S
C219 H198 0.929 . S
C219 C217 1.446 . S
C219 C220 1.332 . S
C220 H200 0.931 . S
C220 C219 1.332 . S
C220 C221 1.267 . S
C221 H189 0.929 . S
C221 C220 1.267 . S
C221 C222 1.251 . S
C222 H192 0.929 . S
C222 N218 1.418 . S
C222 C221 1.251 . S
C223 H190 0.930 . S
C223 C225 1.406 . S
C223 C228 1.261 . S
C224 H191 0.930 . S
C224 N226 1.325 . S
C224 C227 1.357 . S
C225 H193 0.928 . S
C225 C223 1.406 . S
C225 N226 1.261 . S
N226 Co177 2.214 . S
N226 C224 1.325 . S
N226 C225 1.261 . S
C227 H197 0.931 . S
C227 C224 1.357 . S
C227 C228 1.312 . S
C228 H199 0.930 . S
C228 C223 1.261 . S
C228 C227 1.312 . S
C229 O201 1.214 . S
C229 O209 1.234 . S
C230 H202 0.929 . S
C230 C233 1.391 . S
C230 C235 1.391 . S
C231 H203 0.929 . S
C231 C232 1.390 . S
C231 N234 1.391 . S
C232 H204 0.930 . S
C232 C231 1.390 . S
C232 C233 1.392 . S
C233 H205 0.929 . S
C233 C230 1.391 . S
C233 C232 1.392 . S
N234 Co178 2.257 . S
N234 C231 1.391 . S
N234 C235 1.388 . S
C235 H206 0.930 . S
C235 C230 1.391 . S
C235 N234 1.388 . S
Co236 O238 2.143 . S
Co236 O244 2.074 . S
Co236 O247 2.093 . S
Co236 O260 2.097 . S
Co236 N277 2.151 . S
Co236 N285 2.214 . S
Co237 O238 2.160 . S
Co237 O243 2.058 . S
Co237 O253 2.057 . S
Co237 O268 2.037 . S
Co237 N272 2.145 . S
Co237 N293 2.257 . S
O238 Co236 2.143 . S
O238 Co237 2.160 . S
C239 O240 1.278 . S
C239 O247 1.224 . S
O240 C239 1.278 . S
C241 O242 1.245 . S
C241 O253 1.232 . S
O242 C241 1.245 . S
O243 Co237 2.058 . S
O243 C269 1.269 . S
O244 Co236 2.074 . S
O244 C269 1.257 . S
H245 C270 0.930 . S
H246 C276 0.930 . S
O247 Co236 2.093 . S
O247 C239 1.224 . S
H248 C280 0.929 . S
H249 C282 0.930 . S
H250 C283 0.930 . S
H251 C281 0.929 . S
H252 C284 0.928 . S
O253 Co237 2.057 . S
O253 C241 1.232 . S
H254 C273 0.929 . S
H255 C274 0.929 . S
H256 C286 0.931 . S
H257 C278 0.929 . S
H258 C287 0.930 . S
H259 C279 0.931 . S
O260 Co236 2.097 . S
O260 C288 1.214 . S
H261 C289 0.929 . S
H262 C290 0.929 . S
H263 C291 0.930 . S
H264 C292 0.929 . S
H265 C294 0.930 . S
H266 C271 0.930 . S
H267 C275 0.930 . S
O268 Co237 2.037 . S
O268 C288 1.234 . S
C269 O243 1.269 . S
C269 O244 1.257 . S
C270 H245 0.930 . S
C270 C273 1.388 . S
C270 C275 1.418 . S
C271 H266 0.930 . S
C271 C274 1.404 . S
C271 C275 1.353 . S
N272 Co237 2.145 . S
N272 C273 1.397 . S
N272 C274 1.334 . S
C273 H254 0.929 . S
C273 C270 1.388 . S
C273 N272 1.397 . S
C274 H255 0.929 . S
C274 C271 1.404 . S
C274 N272 1.334 . S
C275 H267 0.930 . S
C275 C270 1.418 . S
C275 C271 1.353 . S
C276 H246 0.930 . S
C276 N277 1.330 . S
C276 C278 1.446 . S
N277 Co236 2.151 . S
N277 C276 1.330 . S
N277 C281 1.418 . S
C278 H257 0.929 . S
C278 C276 1.446 . S
C278 C279 1.332 . S
C279 H259 0.931 . S
C279 C278 1.332 . S
C279 C280 1.267 . S
C280 H248 0.929 . S
C280 C279 1.267 . S
C280 C281 1.251 . S
C281 H251 0.929 . S
C281 N277 1.418 . S
C281 C280 1.251 . S
C282 H249 0.930 . S
C282 C284 1.406 . S
C282 C287 1.261 . S
C283 H250 0.930 . S
C283 N285 1.325 . S
C283 C286 1.357 . S
C284 H252 0.928 . S
C284 C282 1.406 . S
C284 N285 1.261 . S
N285 Co236 2.214 . S
N285 C283 1.325 . S
N285 C284 1.261 . S
C286 H256 0.931 . S
C286 C283 1.357 . S
C286 C287 1.312 . S
C287 H258 0.930 . S
C287 C282 1.261 . S
C287 C286 1.312 . S
C288 O260 1.214 . S
C288 O268 1.234 . S
C289 H261 0.929 . S
C289 C292 1.391 . S
C289 C294 1.391 . S
C290 H262 0.929 . S
C290 C291 1.390 . S
C290 N293 1.391 . S
C291 H263 0.930 . S
C291 C290 1.390 . S
C291 C292 1.392 . S
C292 H264 0.929 . S
C292 C289 1.391 . S
C292 C291 1.392 . S
N293 Co237 2.257 . S
N293 C290 1.391 . S
N293 C294 1.388 . S
C294 H265 0.930 . S
C294 C289 1.391 . S
C294 N293 1.388 . S
Co295 O297 2.143 . S
Co295 O303 2.074 . S
Co295 O306 2.093 . S
Co295 O319 2.097 . S
Co295 N336 2.151 . S
Co295 N344 2.214 . S
Co296 O297 2.160 . S
Co296 O302 2.058 . S
Co296 O312 2.057 . S
Co296 O327 2.037 . S
Co296 N331 2.145 . S
Co296 N352 2.257 . S
O297 Co295 2.143 . S
O297 Co296 2.160 . S
C298 O299 1.278 . S
C298 O306 1.224 . S
O299 C298 1.278 . S
C300 O301 1.245 . S
C300 O312 1.232 . S
O301 C300 1.245 . S
O302 Co296 2.058 . S
O302 C328 1.269 . S
O303 Co295 2.074 . S
O303 C328 1.257 . S
H304 C329 0.930 . S
H305 C335 0.930 . S
O306 Co295 2.093 . S
O306 C298 1.224 . S
H307 C339 0.929 . S
H308 C341 0.930 . S
H309 C342 0.930 . S
H310 C340 0.929 . S
H311 C343 0.928 . S
O312 Co296 2.057 . S
O312 C300 1.232 . S
H313 C332 0.929 . S
H314 C333 0.929 . S
H315 C345 0.931 . S
H316 C337 0.929 . S
H317 C346 0.930 . S
H318 C338 0.931 . S
O319 Co295 2.097 . S
O319 C347 1.214 . S
H320 C348 0.929 . S
H321 C349 0.929 . S
H322 C350 0.930 . S
H323 C351 0.929 . S
H324 C353 0.930 . S
H325 C330 0.930 . S
H326 C334 0.930 . S
O327 Co296 2.037 . S
O327 C347 1.234 . S
C328 O302 1.269 . S
C328 O303 1.257 . S
C329 H304 0.930 . S
C329 C332 1.388 . S
C329 C334 1.418 . S
C330 H325 0.930 . S
C330 C333 1.404 . S
C330 C334 1.353 . S
N331 Co296 2.145 . S
N331 C332 1.397 . S
N331 C333 1.334 . S
C332 H313 0.929 . S
C332 C329 1.388 . S
C332 N331 1.397 . S
C333 H314 0.929 . S
C333 C330 1.404 . S
C333 N331 1.334 . S
C334 H326 0.930 . S
C334 C329 1.418 . S
C334 C330 1.353 . S
C335 H305 0.930 . S
C335 N336 1.330 . S
C335 C337 1.446 . S
N336 Co295 2.151 . S
N336 C335 1.330 . S
N336 C340 1.418 . S
C337 H316 0.929 . S
C337 C335 1.446 . S
C337 C338 1.332 . S
C338 H318 0.931 . S
C338 C337 1.332 . S
C338 C339 1.267 . S
C339 H307 0.929 . S
C339 C338 1.267 . S
C339 C340 1.251 . S
C340 H310 0.929 . S
C340 N336 1.418 . S
C340 C339 1.251 . S
C341 H308 0.930 . S
C341 C343 1.406 . S
C341 C346 1.261 . S
C342 H309 0.930 . S
C342 N344 1.325 . S
C342 C345 1.357 . S
C343 H311 0.928 . S
C343 C341 1.406 . S
C343 N344 1.261 . S
N344 Co295 2.214 . S
N344 C342 1.325 . S
N344 C343 1.261 . S
C345 H315 0.931 . S
C345 C342 1.357 . S
C345 C346 1.312 . S
C346 H317 0.930 . S
C346 C341 1.261 . S
C346 C345 1.312 . S
C347 O319 1.214 . S
C347 O327 1.234 . S
C348 H320 0.929 . S
C348 C351 1.391 . S
C348 C353 1.391 . S
C349 H321 0.929 . S
C349 C350 1.390 . S
C349 N352 1.391 . S
C350 H322 0.930 . S
C350 C349 1.390 . S
C350 C351 1.392 . S
C351 H323 0.929 . S
C351 C348 1.391 . S
C351 C350 1.392 . S
N352 Co296 2.257 . S
N352 C349 1.391 . S
N352 C353 1.388 . S
C353 H324 0.930 . S
C353 C348 1.391 . S
C353 N352 1.388 . S
Co354 O356 2.143 . S
Co354 O362 2.074 . S
Co354 O365 2.093 . S
Co354 O378 2.097 . S
Co354 N395 2.151 . S
Co354 N403 2.214 . S
Co355 O356 2.160 . S
Co355 O361 2.058 . S
Co355 O371 2.057 . S
Co355 O386 2.037 . S
Co355 N390 2.145 . S
Co355 N411 2.257 . S
O356 Co354 2.143 . S
O356 Co355 2.160 . S
C357 O358 1.278 . S
C357 O365 1.224 . S
O358 C357 1.278 . S
C359 O360 1.245 . S
C359 O371 1.232 . S
O360 C359 1.245 . S
O361 Co355 2.058 . S
O361 C387 1.269 . S
O362 Co354 2.074 . S
O362 C387 1.257 . S
H363 C388 0.930 . S
H364 C394 0.930 . S
O365 Co354 2.093 . S
O365 C357 1.224 . S
H366 C398 0.929 . S
H367 C400 0.930 . S
H368 C401 0.930 . S
H369 C399 0.929 . S
H370 C402 0.928 . S
O371 Co355 2.057 . S
O371 C359 1.232 . S
H372 C391 0.929 . S
H373 C392 0.929 . S
H374 C404 0.931 . S
H375 C396 0.929 . S
H376 C405 0.930 . S
H377 C397 0.931 . S
O378 Co354 2.097 . S
O378 C406 1.214 . S
H379 C407 0.929 . S
H380 C408 0.929 . S
H381 C409 0.930 . S
H382 C410 0.929 . S
H383 C412 0.930 . S
H384 C389 0.930 . S
H385 C393 0.930 . S
O386 Co355 2.037 . S
O386 C406 1.234 . S
C387 O361 1.269 . S
C387 O362 1.257 . S
C388 H363 0.930 . S
C388 C391 1.388 . S
C388 C393 1.418 . S
C389 H384 0.930 . S
C389 C392 1.404 . S
C389 C393 1.353 . S
N390 Co355 2.145 . S
N390 C391 1.397 . S
N390 C392 1.334 . S
C391 H372 0.929 . S
C391 C388 1.388 . S
C391 N390 1.397 . S
C392 H373 0.929 . S
C392 C389 1.404 . S
C392 N390 1.334 . S
C393 H385 0.930 . S
C393 C388 1.418 . S
C393 C389 1.353 . S
C394 H364 0.930 . S
C394 N395 1.330 . S
C394 C396 1.446 . S
N395 Co354 2.151 . S
N395 C394 1.330 . S
N395 C399 1.418 . S
C396 H375 0.929 . S
C396 C394 1.446 . S
C396 C397 1.332 . S
C397 H377 0.931 . S
C397 C396 1.332 . S
C397 C398 1.267 . S
C398 H366 0.929 . S
C398 C397 1.267 . S
C398 C399 1.251 . S
C399 H369 0.929 . S
C399 N395 1.418 . S
C399 C398 1.251 . S
C400 H367 0.930 . S
C400 C402 1.406 . S
C400 C405 1.261 . S
C401 H368 0.930 . S
C401 N403 1.325 . S
C401 C404 1.357 . S
C402 H370 0.928 . S
C402 C400 1.406 . S
C402 N403 1.261 . S
N403 Co354 2.214 . S
N403 C401 1.325 . S
N403 C402 1.261 . S
C404 H374 0.931 . S
C404 C401 1.357 . S
C404 C405 1.312 . S
C405 H376 0.930 . S
C405 C400 1.261 . S
C405 C404 1.312 . S
C406 O378 1.214 . S
C406 O386 1.234 . S
C407 H379 0.929 . S
C407 C410 1.391 . S
C407 C412 1.391 . S
C408 H380 0.929 . S
C408 C409 1.390 . S
C408 N411 1.391 . S
C409 H381 0.930 . S
C409 C408 1.390 . S
C409 C410 1.392 . S
C410 H382 0.929 . S
C410 C407 1.391 . S
C410 C409 1.392 . S
N411 Co355 2.257 . S
N411 C408 1.391 . S
N411 C412 1.388 . S
C412 H383 0.930 . S
C412 C407 1.391 . S
C412 N411 1.388 . S
Co413 O415 2.143 . S
Co413 O421 2.074 . S
Co413 O424 2.093 . S
Co413 O437 2.097 . S
Co413 N454 2.151 . S
Co413 N462 2.214 . S
Co414 O415 2.160 . S
Co414 O420 2.058 . S
Co414 O430 2.057 . S
Co414 O445 2.037 . S
Co414 N449 2.145 . S
Co414 N470 2.257 . S
O415 Co413 2.143 . S
O415 Co414 2.160 . S
C416 O417 1.278 . S
C416 O424 1.224 . S
O417 C416 1.278 . S
C418 O419 1.245 . S
C418 O430 1.232 . S
O419 C418 1.245 . S
O420 Co414 2.058 . S
O420 C446 1.269 . S
O421 Co413 2.074 . S
O421 C446 1.257 . S
H422 C447 0.930 . S
H423 C453 0.930 . S
O424 Co413 2.093 . S
O424 C416 1.224 . S
H425 C457 0.929 . S
H426 C459 0.930 . S
H427 C460 0.930 . S
H428 C458 0.929 . S
H429 C461 0.928 . S
O430 Co414 2.057 . S
O430 C418 1.232 . S
H431 C450 0.929 . S
H432 C451 0.929 . S
H433 C463 0.931 . S
H434 C455 0.929 . S
H435 C464 0.930 . S
H436 C456 0.931 . S
O437 Co413 2.097 . S
O437 C465 1.214 . S
H438 C466 0.929 . S
H439 C467 0.929 . S
H440 C468 0.930 . S
H441 C469 0.929 . S
H442 C471 0.930 . S
H443 C448 0.930 . S
H444 C452 0.930 . S
O445 Co414 2.037 . S
O445 C465 1.234 . S
C446 O420 1.269 . S
C446 O421 1.257 . S
C447 H422 0.930 . S
C447 C450 1.388 . S
C447 C452 1.418 . S
C448 H443 0.930 . S
C448 C451 1.404 . S
C448 C452 1.353 . S
N449 Co414 2.145 . S
N449 C450 1.397 . S
N449 C451 1.334 . S
C450 H431 0.929 . S
C450 C447 1.388 . S
C450 N449 1.397 . S
C451 H432 0.929 . S
C451 C448 1.404 . S
C451 N449 1.334 . S
C452 H444 0.930 . S
C452 C447 1.418 . S
C452 C448 1.353 . S
C453 H423 0.930 . S
C453 N454 1.330 . S
C453 C455 1.446 . S
N454 Co413 2.151 . S
N454 C453 1.330 . S
N454 C458 1.418 . S
C455 H434 0.929 . S
C455 C453 1.446 . S
C455 C456 1.332 . S
C456 H436 0.931 . S
C456 C455 1.332 . S
C456 C457 1.267 . S
C457 H425 0.929 . S
C457 C456 1.267 . S
C457 C458 1.251 . S
C458 H428 0.929 . S
C458 N454 1.418 . S
C458 C457 1.251 . S
C459 H426 0.930 . S
C459 C461 1.406 . S
C459 C464 1.261 . S
C460 H427 0.930 . S
C460 N462 1.325 . S
C460 C463 1.357 . S
C461 H429 0.928 . S
C461 C459 1.406 . S
C461 N462 1.261 . S
N462 Co413 2.214 . S
N462 C460 1.325 . S
N462 C461 1.261 . S
C463 H433 0.931 . S
C463 C460 1.357 . S
C463 C464 1.312 . S
C464 H435 0.930 . S
C464 C459 1.261 . S
C464 C463 1.312 . S
C465 O437 1.214 . S
C465 O445 1.234 . S
C466 H438 0.929 . S
C466 C469 1.391 . S
C466 C471 1.391 . S
C467 H439 0.929 . S
C467 C468 1.390 . S
C467 N470 1.391 . S
C468 H440 0.930 . S
C468 C467 1.390 . S
C468 C469 1.392 . S
C469 H441 0.929 . S
C469 C466 1.391 . S
C469 C468 1.392 . S
N470 Co414 2.257 . S
N470 C467 1.391 . S
N470 C471 1.388 . S
C471 H442 0.930 . S
C471 C466 1.391 . S
C471 N470 1.388 . S
Co472 O474 2.143 . S
Co472 O480 2.074 . S
Co472 O483 2.093 . S
Co472 O496 2.097 . S
Co472 N513 2.151 . S
Co472 N521 2.214 . S
Co473 O474 2.160 . S
Co473 O479 2.058 . S
Co473 O489 2.057 . S
Co473 O504 2.037 . S
Co473 N508 2.145 . S
Co473 N529 2.257 . S
O474 Co472 2.143 . S
O474 Co473 2.160 . S
C475 O476 1.278 . S
C475 O483 1.224 . S
O476 C475 1.278 . S
C477 O478 1.245 . S
C477 O489 1.232 . S
O478 C477 1.245 . S
O479 Co473 2.058 . S
O479 C505 1.269 . S
O480 Co472 2.074 . S
O480 C505 1.257 . S
H481 C506 0.930 . S
H482 C512 0.930 . S
O483 Co472 2.093 . S
O483 C475 1.224 . S
H484 C516 0.929 . S
H485 C518 0.930 . S
H486 C519 0.930 . S
H487 C517 0.929 . S
H488 C520 0.928 . S
O489 Co473 2.057 . S
O489 C477 1.232 . S
H490 C509 0.929 . S
H491 C510 0.929 . S
H492 C522 0.931 . S
H493 C514 0.929 . S
H494 C523 0.930 . S
H495 C515 0.931 . S
O496 Co472 2.097 . S
O496 C524 1.214 . S
H497 C525 0.929 . S
H498 C526 0.929 . S
H499 C527 0.930 . S
H500 C528 0.929 . S
H501 C530 0.930 . S
H502 C507 0.930 . S
H503 C511 0.930 . S
O504 Co473 2.037 . S
O504 C524 1.234 . S
C505 O479 1.269 . S
C505 O480 1.257 . S
C506 H481 0.930 . S
C506 C509 1.388 . S
C506 C511 1.418 . S
C507 H502 0.930 . S
C507 C510 1.404 . S
C507 C511 1.353 . S
N508 Co473 2.145 . S
N508 C509 1.397 . S
N508 C510 1.334 . S
C509 H490 0.929 . S
C509 C506 1.388 . S
C509 N508 1.397 . S
C510 H491 0.929 . S
C510 C507 1.404 . S
C510 N508 1.334 . S
C511 H503 0.930 . S
C511 C506 1.418 . S
C511 C507 1.353 . S
C512 H482 0.930 . S
C512 N513 1.330 . S
C512 C514 1.446 . S
N513 Co472 2.151 . S
N513 C512 1.330 . S
N513 C517 1.418 . S
C514 H493 0.929 . S
C514 C512 1.446 . S
C514 C515 1.332 . S
C515 H495 0.931 . S
C515 C514 1.332 . S
C515 C516 1.267 . S
C516 H484 0.929 . S
C516 C515 1.267 . S
C516 C517 1.251 . S
C517 H487 0.929 . S
C517 N513 1.418 . S
C517 C516 1.251 . S
C518 H485 0.930 . S
C518 C520 1.406 . S
C518 C523 1.261 . S
C519 H486 0.930 . S
C519 N521 1.325 . S
C519 C522 1.357 . S
C520 H488 0.928 . S
C520 C518 1.406 . S
C520 N521 1.261 . S
N521 Co472 2.214 . S
N521 C519 1.325 . S
N521 C520 1.261 . S
C522 H492 0.931 . S
C522 C519 1.357 . S
C522 C523 1.312 . S
C523 H494 0.930 . S
C523 C518 1.261 . S
C523 C522 1.312 . S
C524 O496 1.214 . S
C524 O504 1.234 . S
C525 H497 0.929 . S
C525 C528 1.391 . S
C525 C530 1.391 . S
C526 H498 0.929 . S
C526 C527 1.390 . S
C526 N529 1.391 . S
C527 H499 0.930 . S
C527 C526 1.390 . S
C527 C528 1.392 . S
C528 H500 0.929 . S
C528 C525 1.391 . S
C528 C527 1.392 . S
N529 Co473 2.257 . S
N529 C526 1.391 . S
N529 C530 1.388 . S
C530 H501 0.930 . S
C530 C525 1.391 . S
C530 N529 1.388 . S
Co531 O533 2.143 . S
Co531 O539 2.074 . S
Co531 O542 2.093 . S
Co531 O555 2.097 . S
Co531 N572 2.151 . S
Co531 N580 2.214 . S
Co532 O533 2.160 . S
Co532 O538 2.058 . S
Co532 O548 2.057 . S
Co532 O563 2.037 . S
Co532 N567 2.145 . S
Co532 N588 2.257 . S
O533 Co531 2.143 . S
O533 Co532 2.160 . S
C534 O535 1.278 . S
C534 O542 1.224 . S
O535 C534 1.278 . S
C536 O537 1.245 . S
C536 O548 1.232 . S
O537 C536 1.245 . S
O538 Co532 2.058 . S
O538 C564 1.269 . S
O539 Co531 2.074 . S
O539 C564 1.257 . S
H540 C565 0.930 . S
H541 C571 0.930 . S
O542 Co531 2.093 . S
O542 C534 1.224 . S
H543 C575 0.929 . S
H544 C577 0.930 . S
H545 C578 0.930 . S
H546 C576 0.929 . S
H547 C579 0.928 . S
O548 Co532 2.057 . S
O548 C536 1.232 . S
H549 C568 0.929 . S
H550 C569 0.929 . S
H551 C581 0.931 . S
H552 C573 0.929 . S
H553 C582 0.930 . S
H554 C574 0.931 . S
O555 Co531 2.097 . S
O555 C583 1.214 . S
H556 C584 0.929 . S
H557 C585 0.929 . S
H558 C586 0.930 . S
H559 C587 0.929 . S
H560 C589 0.930 . S
H561 C566 0.930 . S
H562 C570 0.930 . S
O563 Co532 2.037 . S
O563 C583 1.234 . S
C564 O538 1.269 . S
C564 O539 1.257 . S
C565 H540 0.930 . S
C565 C568 1.388 . S
C565 C570 1.418 . S
C566 H561 0.930 . S
C566 C569 1.404 . S
C566 C570 1.353 . S
N567 Co532 2.145 . S
N567 C568 1.397 . S
N567 C569 1.334 . S
C568 H549 0.929 . S
C568 C565 1.388 . S
C568 N567 1.397 . S
C569 H550 0.929 . S
C569 C566 1.404 . S
C569 N567 1.334 . S
C570 H562 0.930 . S
C570 C565 1.418 . S
C570 C566 1.353 . S
C571 H541 0.930 . S
C571 N572 1.330 . S
C571 C573 1.446 . S
N572 Co531 2.151 . S
N572 C571 1.330 . S
N572 C576 1.418 . S
C573 H552 0.929 . S
C573 C571 1.446 . S
C573 C574 1.332 . S
C574 H554 0.931 . S
C574 C573 1.332 . S
C574 C575 1.267 . S
C575 H543 0.929 . S
C575 C574 1.267 . S
C575 C576 1.251 . S
C576 H546 0.929 . S
C576 N572 1.418 . S
C576 C575 1.251 . S
C577 H544 0.930 . S
C577 C579 1.406 . S
C577 C582 1.261 . S
C578 H545 0.930 . S
C578 N580 1.325 . S
C578 C581 1.357 . S
C579 H547 0.928 . S
C579 C577 1.406 . S
C579 N580 1.261 . S
N580 Co531 2.214 . S
N580 C578 1.325 . S
N580 C579 1.261 . S
C581 H551 0.931 . S
C581 C578 1.357 . S
C581 C582 1.312 . S
C582 H553 0.930 . S
C582 C577 1.261 . S
C582 C581 1.312 . S
C583 O555 1.214 . S
C583 O563 1.234 . S
C584 H556 0.929 . S
C584 C587 1.391 . S
C584 C589 1.391 . S
C585 H557 0.929 . S
C585 C586 1.390 . S
C585 N588 1.391 . S
C586 H558 0.930 . S
C586 C585 1.390 . S
C586 C587 1.392 . S
C587 H559 0.929 . S
C587 C584 1.391 . S
C587 C586 1.392 . S
N588 Co532 2.257 . S
N588 C585 1.391 . S
N588 C589 1.388 . S
C589 H560 0.930 . S
C589 C584 1.391 . S
C589 N588 1.388 . S
Co590 O592 2.143 . S
Co590 O598 2.074 . S
Co590 O601 2.093 . S
Co590 O614 2.097 . S
Co590 N631 2.151 . S
Co590 N639 2.214 . S
Co591 O592 2.160 . S
Co591 O597 2.058 . S
Co591 O607 2.057 . S
Co591 O622 2.037 . S
Co591 N626 2.145 . S
Co591 N647 2.257 . S
O592 Co590 2.143 . S
O592 Co591 2.160 . S
C593 O594 1.278 . S
C593 O601 1.224 . S
O594 C593 1.278 . S
C595 O596 1.245 . S
C595 O607 1.232 . S
O596 C595 1.245 . S
O597 Co591 2.058 . S
O597 C623 1.269 . S
O598 Co590 2.074 . S
O598 C623 1.257 . S
H599 C624 0.930 . S
H600 C630 0.930 . S
O601 Co590 2.093 . S
O601 C593 1.224 . S
H602 C634 0.929 . S
H603 C636 0.930 . S
H604 C637 0.930 . S
H605 C635 0.929 . S
H606 C638 0.928 . S
O607 Co591 2.057 . S
O607 C595 1.232 . S
H608 C627 0.929 . S
H609 C628 0.929 . S
H610 C640 0.931 . S
H611 C632 0.929 . S
H612 C641 0.930 . S
H613 C633 0.931 . S
O614 Co590 2.097 . S
O614 C642 1.214 . S
H615 C643 0.929 . S
H616 C644 0.929 . S
H617 C645 0.930 . S
H618 C646 0.929 . S
H619 C648 0.930 . S
H620 C625 0.930 . S
H621 C629 0.930 . S
O622 Co591 2.037 . S
O622 C642 1.234 . S
C623 O597 1.269 . S
C623 O598 1.257 . S
C624 H599 0.930 . S
C624 C627 1.388 . S
C624 C629 1.418 . S
C625 H620 0.930 . S
C625 C628 1.404 . S
C625 C629 1.353 . S
N626 Co591 2.145 . S
N626 C627 1.397 . S
N626 C628 1.334 . S
C627 H608 0.929 . S
C627 C624 1.388 . S
C627 N626 1.397 . S
C628 H609 0.929 . S
C628 C625 1.404 . S
C628 N626 1.334 . S
C629 H621 0.930 . S
C629 C624 1.418 . S
C629 C625 1.353 . S
C630 H600 0.930 . S
C630 N631 1.330 . S
C630 C632 1.446 . S
N631 Co590 2.151 . S
N631 C630 1.330 . S
N631 C635 1.418 . S
C632 H611 0.929 . S
C632 C630 1.446 . S
C632 C633 1.332 . S
C633 H613 0.931 . S
C633 C632 1.332 . S
C633 C634 1.267 . S
C634 H602 0.929 . S
C634 C633 1.267 . S
C634 C635 1.251 . S
C635 H605 0.929 . S
C635 N631 1.418 . S
C635 C634 1.251 . S
C636 H603 0.930 . S
C636 C638 1.406 . S
C636 C641 1.261 . S
C637 H604 0.930 . S
C637 N639 1.325 . S
C637 C640 1.357 . S
C638 H606 0.928 . S
C638 C636 1.406 . S
C638 N639 1.261 . S
N639 Co590 2.214 . S
N639 C637 1.325 . S
N639 C638 1.261 . S
C640 H610 0.931 . S
C640 C637 1.357 . S
C640 C641 1.312 . S
C641 H612 0.930 . S
C641 C636 1.261 . S
C641 C640 1.312 . S
C642 O614 1.214 . S
C642 O622 1.234 . S
C643 H615 0.929 . S
C643 C646 1.391 . S
C643 C648 1.391 . S
C644 H616 0.929 . S
C644 C645 1.390 . S
C644 N647 1.391 . S
C645 H617 0.930 . S
C645 C644 1.390 . S
C645 C646 1.392 . S
C646 H618 0.929 . S
C646 C643 1.391 . S
C646 C645 1.392 . S
N647 Co591 2.257 . S
N647 C644 1.391 . S
N647 C648 1.388 . S
C648 H619 0.930 . S
C648 C643 1.391 . S
C648 N647 1.388 . S
Co649 O651 2.143 . S
Co649 O657 2.074 . S
Co649 O660 2.093 . S
Co649 O673 2.097 . S
Co649 N690 2.151 . S
Co649 N698 2.214 . S
Co650 O651 2.160 . S
Co650 O656 2.058 . S
Co650 O666 2.057 . S
Co650 O681 2.037 . S
Co650 N685 2.145 . S
Co650 N706 2.257 . S
O651 Co649 2.143 . S
O651 Co650 2.160 . S
C652 O653 1.278 . S
C652 O660 1.224 . S
O653 C652 1.278 . S
C654 O655 1.245 . S
C654 O666 1.232 . S
O655 C654 1.245 . S
O656 Co650 2.058 . S
O656 C682 1.269 . S
O657 Co649 2.074 . S
O657 C682 1.257 . S
H658 C683 0.930 . S
H659 C689 0.930 . S
O660 Co649 2.093 . S
O660 C652 1.224 . S
H661 C693 0.929 . S
H662 C695 0.930 . S
H663 C696 0.930 . S
H664 C694 0.929 . S
H665 C697 0.928 . S
O666 Co650 2.057 . S
O666 C654 1.232 . S
H667 C686 0.929 . S
H668 C687 0.929 . S
H669 C699 0.931 . S
H670 C691 0.929 . S
H671 C700 0.930 . S
H672 C692 0.931 . S
O673 Co649 2.097 . S
O673 C701 1.214 . S
H674 C702 0.929 . S
H675 C703 0.929 . S
H676 C704 0.930 . S
H677 C705 0.929 . S
H678 C707 0.930 . S
H679 C684 0.930 . S
H680 C688 0.930 . S
O681 Co650 2.037 . S
O681 C701 1.234 . S
C682 O656 1.269 . S
C682 O657 1.257 . S
C683 H658 0.930 . S
C683 C686 1.388 . S
C683 C688 1.418 . S
C684 H679 0.930 . S
C684 C687 1.404 . S
C684 C688 1.353 . S
N685 Co650 2.145 . S
N685 C686 1.397 . S
N685 C687 1.334 . S
C686 H667 0.929 . S
C686 C683 1.388 . S
C686 N685 1.397 . S
C687 H668 0.929 . S
C687 C684 1.404 . S
C687 N685 1.334 . S
C688 H680 0.930 . S
C688 C683 1.418 . S
C688 C684 1.353 . S
C689 H659 0.930 . S
C689 N690 1.330 . S
C689 C691 1.446 . S
N690 Co649 2.151 . S
N690 C689 1.330 . S
N690 C694 1.418 . S
C691 H670 0.929 . S
C691 C689 1.446 . S
C691 C692 1.332 . S
C692 H672 0.931 . S
C692 C691 1.332 . S
C692 C693 1.267 . S
C693 H661 0.929 . S
C693 C692 1.267 . S
C693 C694 1.251 . S
C694 H664 0.929 . S
C694 N690 1.418 . S
C694 C693 1.251 . S
C695 H662 0.930 . S
C695 C697 1.406 . S
C695 C700 1.261 . S
C696 H663 0.930 . S
C696 N698 1.325 . S
C696 C699 1.357 . S
C697 H665 0.928 . S
C697 C695 1.406 . S
C697 N698 1.261 . S
N698 Co649 2.214 . S
N698 C696 1.325 . S
N698 C697 1.261 . S
C699 H669 0.931 . S
C699 C696 1.357 . S
C699 C700 1.312 . S
C700 H671 0.930 . S
C700 C695 1.261 . S
C700 C699 1.312 . S
C701 O673 1.214 . S
C701 O681 1.234 . S
C702 H674 0.929 . S
C702 C705 1.391 . S
C702 C707 1.391 . S
C703 H675 0.929 . S
C703 C704 1.390 . S
C703 N706 1.391 . S
C704 H676 0.930 . S
C704 C703 1.390 . S
C704 C705 1.392 . S
C705 H677 0.929 . S
C705 C702 1.391 . S
C705 C704 1.392 . S
N706 Co650 2.257 . S
N706 C703 1.391 . S
N706 C707 1.388 . S
C707 H678 0.930 . S
C707 C702 1.391 . S
C707 N706 1.388 . S
Co708 O710 2.143 . S
Co708 O716 2.074 . S
Co708 O719 2.093 . S
Co708 O732 2.097 . S
Co708 N749 2.151 . S
Co708 N757 2.214 . S
Co709 O710 2.160 . S
Co709 O715 2.058 . S
Co709 O725 2.057 . S
Co709 O740 2.037 . S
Co709 N744 2.145 . S
Co709 N765 2.257 . S
O710 Co708 2.143 . S
O710 Co709 2.160 . S
C711 O712 1.278 . S
C711 O719 1.224 . S
O712 C711 1.278 . S
C713 O714 1.245 . S
C713 O725 1.232 . S
O714 C713 1.245 . S
O715 Co709 2.058 . S
O715 C741 1.269 . S
O716 Co708 2.074 . S
O716 C741 1.257 . S
H717 C742 0.930 . S
H718 C748 0.930 . S
O719 Co708 2.093 . S
O719 C711 1.224 . S
H720 C752 0.929 . S
H721 C754 0.930 . S
H722 C755 0.930 . S
H723 C753 0.929 . S
H724 C756 0.928 . S
O725 Co709 2.057 . S
O725 C713 1.232 . S
H726 C745 0.929 . S
H727 C746 0.929 . S
H728 C758 0.931 . S
H729 C750 0.929 . S
H730 C759 0.930 . S
H731 C751 0.931 . S
O732 Co708 2.097 . S
O732 C760 1.214 . S
H733 C761 0.929 . S
H734 C762 0.929 . S
H735 C763 0.930 . S
H736 C764 0.929 . S
H737 C766 0.930 . S
H738 C743 0.930 . S
H739 C747 0.930 . S
O740 Co709 2.037 . S
O740 C760 1.234 . S
C741 O715 1.269 . S
C741 O716 1.257 . S
C742 H717 0.930 . S
C742 C745 1.388 . S
C742 C747 1.418 . S
C743 H738 0.930 . S
C743 C746 1.404 . S
C743 C747 1.353 . S
N744 Co709 2.145 . S
N744 C745 1.397 . S
N744 C746 1.334 . S
C745 H726 0.929 . S
C745 C742 1.388 . S
C745 N744 1.397 . S
C746 H727 0.929 . S
C746 C743 1.404 . S
C746 N744 1.334 . S
C747 H739 0.930 . S
C747 C742 1.418 . S
C747 C743 1.353 . S
C748 H718 0.930 . S
C748 N749 1.330 . S
C748 C750 1.446 . S
N749 Co708 2.151 . S
N749 C748 1.330 . S
N749 C753 1.418 . S
C750 H729 0.929 . S
C750 C748 1.446 . S
C750 C751 1.332 . S
C751 H731 0.931 . S
C751 C750 1.332 . S
C751 C752 1.267 . S
C752 H720 0.929 . S
C752 C751 1.267 . S
C752 C753 1.251 . S
C753 H723 0.929 . S
C753 N749 1.418 . S
C753 C752 1.251 . S
C754 H721 0.930 . S
C754 C756 1.406 . S
C754 C759 1.261 . S
C755 H722 0.930 . S
C755 N757 1.325 . S
C755 C758 1.357 . S
C756 H724 0.928 . S
C756 C754 1.406 . S
C756 N757 1.261 . S
N757 Co708 2.214 . S
N757 C755 1.325 . S
N757 C756 1.261 . S
C758 H728 0.931 . S
C758 C755 1.357 . S
C758 C759 1.312 . S
C759 H730 0.930 . S
C759 C754 1.261 . S
C759 C758 1.312 . S
C760 O732 1.214 . S
C760 O740 1.234 . S
C761 H733 0.929 . S
C761 C764 1.391 . S
C761 C766 1.391 . S
C762 H734 0.929 . S
C762 C763 1.390 . S
C762 N765 1.391 . S
C763 H735 0.930 . S
C763 C762 1.390 . S
C763 C764 1.392 . S
C764 H736 0.929 . S
C764 C761 1.391 . S
C764 C763 1.392 . S
N765 Co709 2.257 . S
N765 C762 1.391 . S
N765 C766 1.388 . S
C766 H737 0.930 . S
C766 C761 1.391 . S
C766 N765 1.388 . S
Co767 O769 2.143 . S
Co767 O775 2.074 . S
Co767 O778 2.093 . S
Co767 O791 2.097 . S
Co767 N808 2.151 . S
Co767 N816 2.214 . S
Co768 O769 2.160 . S
Co768 O774 2.058 . S
Co768 O784 2.057 . S
Co768 O799 2.037 . S
Co768 N803 2.145 . S
Co768 N824 2.257 . S
O769 Co767 2.143 . S
O769 Co768 2.160 . S
C770 O771 1.278 . S
C770 O778 1.224 . S
O771 C770 1.278 . S
C772 O773 1.245 . S
C772 O784 1.232 . S
O773 C772 1.245 . S
O774 Co768 2.058 . S
O774 C800 1.269 . S
O775 Co767 2.074 . S
O775 C800 1.257 . S
H776 C801 0.930 . S
H777 C807 0.930 . S
O778 Co767 2.093 . S
O778 C770 1.224 . S
H779 C811 0.929 . S
H780 C813 0.930 . S
H781 C814 0.930 . S
H782 C812 0.929 . S
H783 C815 0.928 . S
O784 Co768 2.057 . S
O784 C772 1.232 . S
H785 C804 0.929 . S
H786 C805 0.929 . S
H787 C817 0.931 . S
H788 C809 0.929 . S
H789 C818 0.930 . S
H790 C810 0.931 . S
O791 Co767 2.097 . S
O791 C819 1.214 . S
H792 C820 0.929 . S
H793 C821 0.929 . S
H794 C822 0.930 . S
H795 C823 0.929 . S
H796 C825 0.930 . S
H797 C802 0.930 . S
H798 C806 0.930 . S
O799 Co768 2.037 . S
O799 C819 1.234 . S
C800 O774 1.269 . S
C800 O775 1.257 . S
C801 H776 0.930 . S
C801 C804 1.388 . S
C801 C806 1.418 . S
C802 H797 0.930 . S
C802 C805 1.404 . S
C802 C806 1.353 . S
N803 Co768 2.145 . S
N803 C804 1.397 . S
N803 C805 1.334 . S
C804 H785 0.929 . S
C804 C801 1.388 . S
C804 N803 1.397 . S
C805 H786 0.929 . S
C805 C802 1.404 . S
C805 N803 1.334 . S
C806 H798 0.930 . S
C806 C801 1.418 . S
C806 C802 1.353 . S
C807 H777 0.930 . S
C807 N808 1.330 . S
C807 C809 1.446 . S
N808 Co767 2.151 . S
N808 C807 1.330 . S
N808 C812 1.418 . S
C809 H788 0.929 . S
C809 C807 1.446 . S
C809 C810 1.332 . S
C810 H790 0.931 . S
C810 C809 1.332 . S
C810 C811 1.267 . S
C811 H779 0.929 . S
C811 C810 1.267 . S
C811 C812 1.251 . S
C812 H782 0.929 . S
C812 N808 1.418 . S
C812 C811 1.251 . S
C813 H780 0.930 . S
C813 C815 1.406 . S
C813 C818 1.261 . S
C814 H781 0.930 . S
C814 N816 1.325 . S
C814 C817 1.357 . S
C815 H783 0.928 . S
C815 C813 1.406 . S
C815 N816 1.261 . S
N816 Co767 2.214 . S
N816 C814 1.325 . S
N816 C815 1.261 . S
C817 H787 0.931 . S
C817 C814 1.357 . S
C817 C818 1.312 . S
C818 H789 0.930 . S
C818 C813 1.261 . S
C818 C817 1.312 . S
C819 O791 1.214 . S
C819 O799 1.234 . S
C820 H792 0.929 . S
C820 C823 1.391 . S
C820 C825 1.391 . S
C821 H793 0.929 . S
C821 C822 1.390 . S
C821 N824 1.391 . S
C822 H794 0.930 . S
C822 C821 1.390 . S
C822 C823 1.392 . S
C823 H795 0.929 . S
C823 C820 1.391 . S
C823 C822 1.392 . S
N824 Co768 2.257 . S
N824 C821 1.391 . S
N824 C825 1.388 . S
C825 H796 0.930 . S
C825 C820 1.391 . S
C825 N824 1.388 . S
Co826 O828 2.143 . S
Co826 O834 2.074 . S
Co826 O837 2.093 . S
Co826 O850 2.097 . S
Co826 N867 2.151 . S
Co826 N875 2.214 . S
Co827 O828 2.160 . S
Co827 O833 2.058 . S
Co827 O843 2.057 . S
Co827 O858 2.037 . S
Co827 N862 2.145 . S
Co827 N883 2.257 . S
O828 Co826 2.143 . S
O828 Co827 2.160 . S
C829 O830 1.278 . S
C829 O837 1.224 . S
O830 C829 1.278 . S
C831 O832 1.245 . S
C831 O843 1.232 . S
O832 C831 1.245 . S
O833 Co827 2.058 . S
O833 C859 1.269 . S
O834 Co826 2.074 . S
O834 C859 1.257 . S
H835 C860 0.930 . S
H836 C866 0.930 . S
O837 Co826 2.093 . S
O837 C829 1.224 . S
H838 C870 0.929 . S
H839 C872 0.930 . S
H840 C873 0.930 . S
H841 C871 0.929 . S
H842 C874 0.928 . S
O843 Co827 2.057 . S
O843 C831 1.232 . S
H844 C863 0.929 . S
H845 C864 0.929 . S
H846 C876 0.931 . S
H847 C868 0.929 . S
H848 C877 0.930 . S
H849 C869 0.931 . S
O850 Co826 2.097 . S
O850 C878 1.214 . S
H851 C879 0.929 . S
H852 C880 0.929 . S
H853 C881 0.930 . S
H854 C882 0.929 . S
H855 C884 0.930 . S
H856 C861 0.930 . S
H857 C865 0.930 . S
O858 Co827 2.037 . S
O858 C878 1.234 . S
C859 O833 1.269 . S
C859 O834 1.257 . S
C860 H835 0.930 . S
C860 C863 1.388 . S
C860 C865 1.418 . S
C861 H856 0.930 . S
C861 C864 1.404 . S
C861 C865 1.353 . S
N862 Co827 2.145 . S
N862 C863 1.397 . S
N862 C864 1.334 . S
C863 H844 0.929 . S
C863 C860 1.388 . S
C863 N862 1.397 . S
C864 H845 0.929 . S
C864 C861 1.404 . S
C864 N862 1.334 . S
C865 H857 0.930 . S
C865 C860 1.418 . S
C865 C861 1.353 . S
C866 H836 0.930 . S
C866 N867 1.330 . S
C866 C868 1.446 . S
N867 Co826 2.151 . S
N867 C866 1.330 . S
N867 C871 1.418 . S
C868 H847 0.929 . S
C868 C866 1.446 . S
C868 C869 1.332 . S
C869 H849 0.931 . S
C869 C868 1.332 . S
C869 C870 1.267 . S
C870 H838 0.929 . S
C870 C869 1.267 . S
C870 C871 1.251 . S
C871 H841 0.929 . S
C871 N867 1.418 . S
C871 C870 1.251 . S
C872 H839 0.930 . S
C872 C874 1.406 . S
C872 C877 1.261 . S
C873 H840 0.930 . S
C873 N875 1.325 . S
C873 C876 1.357 . S
C874 H842 0.928 . S
C874 C872 1.406 . S
C874 N875 1.261 . S
N875 Co826 2.214 . S
N875 C873 1.325 . S
N875 C874 1.261 . S
C876 H846 0.931 . S
C876 C873 1.357 . S
C876 C877 1.312 . S
C877 H848 0.930 . S
C877 C872 1.261 . S
C877 C876 1.312 . S
C878 O850 1.214 . S
C878 O858 1.234 . S
C879 H851 0.929 . S
C879 C882 1.391 . S
C879 C884 1.391 . S
C880 H852 0.929 . S
C880 C881 1.390 . S
C880 N883 1.391 . S
C881 H853 0.930 . S
C881 C880 1.390 . S
C881 C882 1.392 . S
C882 H854 0.929 . S
C882 C879 1.391 . S
C882 C881 1.392 . S
N883 Co827 2.257 . S
N883 C880 1.391 . S
N883 C884 1.388 . S
C884 H855 0.930 . S
C884 C879 1.391 . S
C884 N883 1.388 . S
Co885 O887 2.143 . S
Co885 O893 2.074 . S
Co885 O896 2.093 . S
Co885 O909 2.097 . S
Co885 N926 2.151 . S
Co885 N934 2.214 . S
Co886 O887 2.160 . S
Co886 O892 2.058 . S
Co886 O902 2.057 . S
Co886 O917 2.037 . S
Co886 N921 2.145 . S
Co886 N942 2.257 . S
O887 Co885 2.143 . S
O887 Co886 2.160 . S
C888 O889 1.278 . S
C888 O896 1.224 . S
O889 C888 1.278 . S
C890 O891 1.245 . S
C890 O902 1.232 . S
O891 C890 1.245 . S
O892 Co886 2.058 . S
O892 C918 1.269 . S
O893 Co885 2.074 . S
O893 C918 1.257 . S
H894 C919 0.930 . S
H895 C925 0.930 . S
O896 Co885 2.093 . S
O896 C888 1.224 . S
H897 C929 0.929 . S
H898 C931 0.930 . S
H899 C932 0.930 . S
H900 C930 0.929 . S
H901 C933 0.928 . S
O902 Co886 2.057 . S
O902 C890 1.232 . S
H903 C922 0.929 . S
H904 C923 0.929 . S
H905 C935 0.931 . S
H906 C927 0.929 . S
H907 C936 0.930 . S
H908 C928 0.931 . S
O909 Co885 2.097 . S
O909 C937 1.214 . S
H910 C938 0.929 . S
H911 C939 0.929 . S
H912 C940 0.930 . S
H913 C941 0.929 . S
H914 C943 0.930 . S
H915 C920 0.930 . S
H916 C924 0.930 . S
O917 Co886 2.037 . S
O917 C937 1.234 . S
C918 O892 1.269 . S
C918 O893 1.257 . S
C919 H894 0.930 . S
C919 C922 1.388 . S
C919 C924 1.418 . S
C920 H915 0.930 . S
C920 C923 1.404 . S
C920 C924 1.353 . S
N921 Co886 2.145 . S
N921 C922 1.397 . S
N921 C923 1.334 . S
C922 H903 0.929 . S
C922 C919 1.388 . S
C922 N921 1.397 . S
C923 H904 0.929 . S
C923 C920 1.404 . S
C923 N921 1.334 . S
C924 H916 0.930 . S
C924 C919 1.418 . S
C924 C920 1.353 . S
C925 H895 0.930 . S
C925 N926 1.330 . S
C925 C927 1.446 . S
N926 Co885 2.151 . S
N926 C925 1.330 . S
N926 C930 1.418 . S
C927 H906 0.929 . S
C927 C925 1.446 . S
C927 C928 1.332 . S
C928 H908 0.931 . S
C928 C927 1.332 . S
C928 C929 1.267 . S
C929 H897 0.929 . S
C929 C928 1.267 . S
C929 C930 1.251 . S
C930 H900 0.929 . S
C930 N926 1.418 . S
C930 C929 1.251 . S
C931 H898 0.930 . S
C931 C933 1.406 . S
C931 C936 1.261 . S
C932 H899 0.930 . S
C932 N934 1.325 . S
C932 C935 1.357 . S
C933 H901 0.928 . S
C933 C931 1.406 . S
C933 N934 1.261 . S
N934 Co885 2.214 . S
N934 C932 1.325 . S
N934 C933 1.261 . S
C935 H905 0.931 . S
C935 C932 1.357 . S
C935 C936 1.312 . S
C936 H907 0.930 . S
C936 C931 1.261 . S
C936 C935 1.312 . S
C937 O909 1.214 . S
C937 O917 1.234 . S
C938 H910 0.929 . S
C938 C941 1.391 . S
C938 C943 1.391 . S
C939 H911 0.929 . S
C939 C940 1.390 . S
C939 N942 1.391 . S
C940 H912 0.930 . S
C940 C939 1.390 . S
C940 C941 1.392 . S
C941 H913 0.929 . S
C941 C938 1.391 . S
C941 C940 1.392 . S
N942 Co886 2.257 . S
N942 C939 1.391 . S
N942 C943 1.388 . S
C943 H914 0.930 . S
C943 C938 1.391 . S
C943 N942 1.388 . S
Co944 O946 2.143 . S
Co944 O952 2.074 . S
Co944 O955 2.093 . S
Co944 O968 2.097 . S
Co944 N985 2.151 . S
Co944 N993 2.214 . S
Co945 O946 2.160 . S
Co945 O951 2.058 . S
Co945 O961 2.057 . S
Co945 O976 2.037 . S
Co945 N980 2.145 . S
Co945 N1001 2.257 . S
O946 Co944 2.143 . S
O946 Co945 2.160 . S
C947 O948 1.278 . S
C947 O955 1.224 . S
O948 C947 1.278 . S
C949 O950 1.245 . S
C949 O961 1.232 . S
O950 C949 1.245 . S
O951 Co945 2.058 . S
O951 C977 1.269 . S
O952 Co944 2.074 . S
O952 C977 1.257 . S
H953 C978 0.930 . S
H954 C984 0.930 . S
O955 Co944 2.093 . S
O955 C947 1.224 . S
H956 C988 0.929 . S
H957 C990 0.930 . S
H958 C991 0.930 . S
H959 C989 0.929 . S
H960 C992 0.928 . S
O961 Co945 2.057 . S
O961 C949 1.232 . S
H962 C981 0.929 . S
H963 C982 0.929 . S
H964 C994 0.931 . S
H965 C986 0.929 . S
H966 C995 0.930 . S
H967 C987 0.931 . S
O968 Co944 2.097 . S
O968 C996 1.214 . S
H969 C997 0.929 . S
H970 C998 0.929 . S
H971 C999 0.930 . S
H972 C1000 0.929 . S
H973 C1002 0.930 . S
H974 C979 0.930 . S
H975 C983 0.930 . S
O976 Co945 2.037 . S
O976 C996 1.234 . S
C977 O951 1.269 . S
C977 O952 1.257 . S
C978 H953 0.930 . S
C978 C981 1.388 . S
C978 C983 1.418 . S
C979 H974 0.930 . S
C979 C982 1.404 . S
C979 C983 1.353 . S
N980 Co945 2.145 . S
N980 C981 1.397 . S
N980 C982 1.334 . S
C981 H962 0.929 . S
C981 C978 1.388 . S
C981 N980 1.397 . S
C982 H963 0.929 . S
C982 C979 1.404 . S
C982 N980 1.334 . S
C983 H975 0.930 . S
C983 C978 1.418 . S
C983 C979 1.353 . S
C984 H954 0.930 . S
C984 N985 1.330 . S
C984 C986 1.446 . S
N985 Co944 2.151 . S
N985 C984 1.330 . S
N985 C989 1.418 . S
C986 H965 0.929 . S
C986 C984 1.446 . S
C986 C987 1.332 . S
C987 H967 0.931 . S
C987 C986 1.332 . S
C987 C988 1.267 . S
C988 H956 0.929 . S
C988 C987 1.267 . S
C988 C989 1.251 . S
C989 H959 0.929 . S
C989 N985 1.418 . S
C989 C988 1.251 . S
C990 H957 0.930 . S
C990 C992 1.406 . S
C990 C995 1.261 . S
C991 H958 0.930 . S
C991 N993 1.325 . S
C991 C994 1.357 . S
C992 H960 0.928 . S
C992 C990 1.406 . S
C992 N993 1.261 . S
N993 Co944 2.214 . S
N993 C991 1.325 . S
N993 C992 1.261 . S
C994 H964 0.931 . S
C994 C991 1.357 . S
C994 C995 1.312 . S
C995 H966 0.930 . S
C995 C990 1.261 . S
C995 C994 1.312 . S
C996 O968 1.214 . S
C996 O976 1.234 . S
C997 H969 0.929 . S
C997 C1000 1.391 . S
C997 C1002 1.391 . S
C998 H970 0.929 . S
C998 C999 1.390 . S
C998 N1001 1.391 . S
C999 H971 0.930 . S
C999 C998 1.390 . S
C999 C1000 1.392 . S
C1000 H972 0.929 . S
C1000 C997 1.391 . S
C1000 C999 1.392 . S
N1001 Co945 2.257 . S
N1001 C998 1.391 . S
N1001 C1002 1.388 . S
C1002 H973 0.930 . S
C1002 C997 1.391 . S
C1002 N1001 1.388 . S
Co1003 O1005 2.143 . S
Co1003 O1011 2.074 . S
Co1003 O1014 2.093 . S
Co1003 O1027 2.097 . S
Co1003 N1044 2.151 . S
Co1003 N1052 2.214 . S
Co1004 O1005 2.160 . S
Co1004 O1010 2.058 . S
Co1004 O1020 2.057 . S
Co1004 O1035 2.037 . S
Co1004 N1039 2.145 . S
Co1004 N1060 2.257 . S
O1005 Co1003 2.143 . S
O1005 Co1004 2.160 . S
C1006 O1007 1.278 . S
C1006 O1014 1.224 . S
O1007 C1006 1.278 . S
C1008 O1009 1.245 . S
C1008 O1020 1.232 . S
O1009 C1008 1.245 . S
O1010 Co1004 2.058 . S
O1010 C1036 1.269 . S
O1011 Co1003 2.074 . S
O1011 C1036 1.257 . S
H1012 C1037 0.930 . S
H1013 C1043 0.930 . S
O1014 Co1003 2.093 . S
O1014 C1006 1.224 . S
H1015 C1047 0.929 . S
H1016 C1049 0.930 . S
H1017 C1050 0.930 . S
H1018 C1048 0.929 . S
H1019 C1051 0.928 . S
O1020 Co1004 2.057 . S
O1020 C1008 1.232 . S
H1021 C1040 0.929 . S
H1022 C1041 0.929 . S
H1023 C1053 0.931 . S
H1024 C1045 0.929 . S
H1025 C1054 0.930 . S
H1026 C1046 0.931 . S
O1027 Co1003 2.097 . S
O1027 C1055 1.214 . S
H1028 C1056 0.929 . S
H1029 C1057 0.929 . S
H1030 C1058 0.930 . S
H1031 C1059 0.929 . S
H1032 C1061 0.930 . S
H1033 C1038 0.930 . S
H1034 C1042 0.930 . S
O1035 Co1004 2.037 . S
O1035 C1055 1.234 . S
C1036 O1010 1.269 . S
C1036 O1011 1.257 . S
C1037 H1012 0.930 . S
C1037 C1040 1.388 . S
C1037 C1042 1.418 . S
C1038 H1033 0.930 . S
C1038 C1041 1.404 . S
C1038 C1042 1.353 . S
N1039 Co1004 2.145 . S
N1039 C1040 1.397 . S
N1039 C1041 1.334 . S
C1040 H1021 0.929 . S
C1040 C1037 1.388 . S
C1040 N1039 1.397 . S
C1041 H1022 0.929 . S
C1041 C1038 1.404 . S
C1041 N1039 1.334 . S
C1042 H1034 0.930 . S
C1042 C1037 1.418 . S
C1042 C1038 1.353 . S
C1043 H1013 0.930 . S
C1043 N1044 1.330 . S
C1043 C1045 1.446 . S
N1044 Co1003 2.151 . S
N1044 C1043 1.330 . S
N1044 C1048 1.418 . S
C1045 H1024 0.929 . S
C1045 C1043 1.446 . S
C1045 C1046 1.332 . S
C1046 H1026 0.931 . S
C1046 C1045 1.332 . S
C1046 C1047 1.267 . S
C1047 H1015 0.929 . S
C1047 C1046 1.267 . S
C1047 C1048 1.251 . S
C1048 H1018 0.929 . S
C1048 N1044 1.418 . S
C1048 C1047 1.251 . S
C1049 H1016 0.930 . S
C1049 C1051 1.406 . S
C1049 C1054 1.261 . S
C1050 H1017 0.930 . S
C1050 N1052 1.325 . S
C1050 C1053 1.357 . S
C1051 H1019 0.928 . S
C1051 C1049 1.406 . S
C1051 N1052 1.261 . S
N1052 Co1003 2.214 . S
N1052 C1050 1.325 . S
N1052 C1051 1.261 . S
C1053 H1023 0.931 . S
C1053 C1050 1.357 . S
C1053 C1054 1.312 . S
C1054 H1025 0.930 . S
C1054 C1049 1.261 . S
C1054 C1053 1.312 . S
C1055 O1027 1.214 . S
C1055 O1035 1.234 . S
C1056 H1028 0.929 . S
C1056 C1059 1.391 . S
C1056 C1061 1.391 . S
C1057 H1029 0.929 . S
C1057 C1058 1.390 . S
C1057 N1060 1.391 . S
C1058 H1030 0.930 . S
C1058 C1057 1.390 . S
C1058 C1059 1.392 . S
C1059 H1031 0.929 . S
C1059 C1056 1.391 . S
C1059 C1058 1.392 . S
N1060 Co1004 2.257 . S
N1060 C1057 1.391 . S
N1060 C1061 1.388 . S
C1061 H1032 0.930 . S
C1061 C1056 1.391 . S
C1061 N1060 1.388 . S
Co1062 O1064 2.143 . S
Co1062 O1070 2.074 . S
Co1062 O1073 2.093 . S
Co1062 O1086 2.097 . S
Co1062 N1103 2.151 . S
Co1062 N1111 2.214 . S
Co1063 O1064 2.160 . S
Co1063 O1069 2.058 . S
Co1063 O1079 2.057 . S
Co1063 O1094 2.037 . S
Co1063 N1098 2.145 . S
Co1063 N1119 2.257 . S
O1064 Co1062 2.143 . S
O1064 Co1063 2.160 . S
C1065 O1066 1.278 . S
C1065 O1073 1.224 . S
O1066 C1065 1.278 . S
C1067 O1068 1.245 . S
C1067 O1079 1.232 . S
O1068 C1067 1.245 . S
O1069 Co1063 2.058 . S
O1069 C1095 1.269 . S
O1070 Co1062 2.074 . S
O1070 C1095 1.257 . S
H1071 C1096 0.930 . S
H1072 C1102 0.930 . S
O1073 Co1062 2.093 . S
O1073 C1065 1.224 . S
H1074 C1106 0.929 . S
H1075 C1108 0.930 . S
H1076 C1109 0.930 . S
H1077 C1107 0.929 . S
H1078 C1110 0.928 . S
O1079 Co1063 2.057 . S
O1079 C1067 1.232 . S
H1080 C1099 0.929 . S
H1081 C1100 0.929 . S
H1082 C1112 0.931 . S
H1083 C1104 0.929 . S
H1084 C1113 0.930 . S
H1085 C1105 0.931 . S
O1086 Co1062 2.097 . S
O1086 C1114 1.214 . S
H1087 C1115 0.929 . S
H1088 C1116 0.929 . S
H1089 C1117 0.930 . S
H1090 C1118 0.929 . S
H1091 C1120 0.930 . S
H1092 C1097 0.930 . S
H1093 C1101 0.930 . S
O1094 Co1063 2.037 . S
O1094 C1114 1.234 . S
C1095 O1069 1.269 . S
C1095 O1070 1.257 . S
C1096 H1071 0.930 . S
C1096 C1099 1.388 . S
C1096 C1101 1.418 . S
C1097 H1092 0.930 . S
C1097 C1100 1.404 . S
C1097 C1101 1.353 . S
N1098 Co1063 2.145 . S
N1098 C1099 1.397 . S
N1098 C1100 1.334 . S
C1099 H1080 0.929 . S
C1099 C1096 1.388 . S
C1099 N1098 1.397 . S
C1100 H1081 0.929 . S
C1100 C1097 1.404 . S
C1100 N1098 1.334 . S
C1101 H1093 0.930 . S
C1101 C1096 1.418 . S
C1101 C1097 1.353 . S
C1102 H1072 0.930 . S
C1102 N1103 1.330 . S
C1102 C1104 1.446 . S
N1103 Co1062 2.151 . S
N1103 C1102 1.330 . S
N1103 C1107 1.418 . S
C1104 H1083 0.929 . S
C1104 C1102 1.446 . S
C1104 C1105 1.332 . S
C1105 H1085 0.931 . S
C1105 C1104 1.332 . S
C1105 C1106 1.267 . S
C1106 H1074 0.929 . S
C1106 C1105 1.267 . S
C1106 C1107 1.251 . S
C1107 H1077 0.929 . S
C1107 N1103 1.418 . S
C1107 C1106 1.251 . S
C1108 H1075 0.930 . S
C1108 C1110 1.406 . S
C1108 C1113 1.261 . S
C1109 H1076 0.930 . S
C1109 N1111 1.325 . S
C1109 C1112 1.357 . S
C1110 H1078 0.928 . S
C1110 C1108 1.406 . S
C1110 N1111 1.261 . S
N1111 Co1062 2.214 . S
N1111 C1109 1.325 . S
N1111 C1110 1.261 . S
C1112 H1082 0.931 . S
C1112 C1109 1.357 . S
C1112 C1113 1.312 . S
C1113 H1084 0.930 . S
C1113 C1108 1.261 . S
C1113 C1112 1.312 . S
C1114 O1086 1.214 . S
C1114 O1094 1.234 . S
C1115 H1087 0.929 . S
C1115 C1118 1.391 . S
C1115 C1120 1.391 . S
C1116 H1088 0.929 . S
C1116 C1117 1.390 . S
C1116 N1119 1.391 . S
C1117 H1089 0.930 . S
C1117 C1116 1.390 . S
C1117 C1118 1.392 . S
C1118 H1090 0.929 . S
C1118 C1115 1.391 . S
C1118 C1117 1.392 . S
N1119 Co1063 2.257 . S
N1119 C1116 1.391 . S
N1119 C1120 1.388 . S
C1120 H1091 0.930 . S
C1120 C1115 1.391 . S
C1120 N1119 1.388 . S
Co1121 O1123 2.143 . S
Co1121 O1129 2.074 . S
Co1121 O1132 2.093 . S
Co1121 O1145 2.097 . S
Co1121 N1162 2.151 . S
Co1121 N1170 2.214 . S
Co1122 O1123 2.160 . S
Co1122 O1128 2.058 . S
Co1122 O1138 2.057 . S
Co1122 O1153 2.037 . S
Co1122 N1157 2.145 . S
Co1122 N1178 2.257 . S
O1123 Co1121 2.143 . S
O1123 Co1122 2.160 . S
C1124 O1125 1.278 . S
C1124 O1132 1.224 . S
O1125 C1124 1.278 . S
C1126 O1127 1.245 . S
C1126 O1138 1.232 . S
O1127 C1126 1.245 . S
O1128 Co1122 2.058 . S
O1128 C1154 1.269 . S
O1129 Co1121 2.074 . S
O1129 C1154 1.257 . S
H1130 C1155 0.930 . S
H1131 C1161 0.930 . S
O1132 Co1121 2.093 . S
O1132 C1124 1.224 . S
H1133 C1165 0.929 . S
H1134 C1167 0.930 . S
H1135 C1168 0.930 . S
H1136 C1166 0.929 . S
H1137 C1169 0.928 . S
O1138 Co1122 2.057 . S
O1138 C1126 1.232 . S
H1139 C1158 0.929 . S
H1140 C1159 0.929 . S
H1141 C1171 0.931 . S
H1142 C1163 0.929 . S
H1143 C1172 0.930 . S
H1144 C1164 0.931 . S
O1145 Co1121 2.097 . S
O1145 C1173 1.214 . S
H1146 C1174 0.929 . S
H1147 C1175 0.929 . S
H1148 C1176 0.930 . S
H1149 C1177 0.929 . S
H1150 C1179 0.930 . S
H1151 C1156 0.930 . S
H1152 C1160 0.930 . S
O1153 Co1122 2.037 . S
O1153 C1173 1.234 . S
C1154 O1128 1.269 . S
C1154 O1129 1.257 . S
C1155 H1130 0.930 . S
C1155 C1158 1.388 . S
C1155 C1160 1.418 . S
C1156 H1151 0.930 . S
C1156 C1159 1.404 . S
C1156 C1160 1.353 . S
N1157 Co1122 2.145 . S
N1157 C1158 1.397 . S
N1157 C1159 1.334 . S
C1158 H1139 0.929 . S
C1158 C1155 1.388 . S
C1158 N1157 1.397 . S
C1159 H1140 0.929 . S
C1159 C1156 1.404 . S
C1159 N1157 1.334 . S
C1160 H1152 0.930 . S
C1160 C1155 1.418 . S
C1160 C1156 1.353 . S
C1161 H1131 0.930 . S
C1161 N1162 1.330 . S
C1161 C1163 1.446 . S
N1162 Co1121 2.151 . S
N1162 C1161 1.330 . S
N1162 C1166 1.418 . S
C1163 H1142 0.929 . S
C1163 C1161 1.446 . S
C1163 C1164 1.332 . S
C1164 H1144 0.931 . S
C1164 C1163 1.332 . S
C1164 C1165 1.267 . S
C1165 H1133 0.929 . S
C1165 C1164 1.267 . S
C1165 C1166 1.251 . S
C1166 H1136 0.929 . S
C1166 N1162 1.418 . S
C1166 C1165 1.251 . S
C1167 H1134 0.930 . S
C1167 C1169 1.406 . S
C1167 C1172 1.261 . S
C1168 H1135 0.930 . S
C1168 N1170 1.325 . S
C1168 C1171 1.357 . S
C1169 H1137 0.928 . S
C1169 C1167 1.406 . S
C1169 N1170 1.261 . S
N1170 Co1121 2.214 . S
N1170 C1168 1.325 . S
N1170 C1169 1.261 . S
C1171 H1141 0.931 . S
C1171 C1168 1.357 . S
C1171 C1172 1.312 . S
C1172 H1143 0.930 . S
C1172 C1167 1.261 . S
C1172 C1171 1.312 . S
C1173 O1145 1.214 . S
C1173 O1153 1.234 . S
C1174 H1146 0.929 . S
C1174 C1177 1.391 . S
C1174 C1179 1.391 . S
C1175 H1147 0.929 . S
C1175 C1176 1.390 . S
C1175 N1178 1.391 . S
C1176 H1148 0.930 . S
C1176 C1175 1.390 . S
C1176 C1177 1.392 . S
C1177 H1149 0.929 . S
C1177 C1174 1.391 . S
C1177 C1176 1.392 . S
N1178 Co1122 2.257 . S
N1178 C1175 1.391 . S
N1178 C1179 1.388 . S
C1179 H1150 0.930 . S
C1179 C1174 1.391 . S
C1179 N1178 1.388 . S
Co1180 O1182 2.143 . S
Co1180 O1188 2.074 . S
Co1180 O1191 2.093 . S
Co1180 O1204 2.097 . S
Co1180 N1221 2.151 . S
Co1180 N1229 2.214 . S
Co1181 O1182 2.160 . S
Co1181 O1187 2.058 . S
Co1181 O1197 2.057 . S
Co1181 O1212 2.037 . S
Co1181 N1216 2.145 . S
Co1181 N1237 2.257 . S
O1182 Co1180 2.143 . S
O1182 Co1181 2.160 . S
C1183 O1184 1.278 . S
C1183 O1191 1.224 . S
O1184 C1183 1.278 . S
C1185 O1186 1.245 . S
C1185 O1197 1.232 . S
O1186 C1185 1.245 . S
O1187 Co1181 2.058 . S
O1187 C1213 1.269 . S
O1188 Co1180 2.074 . S
O1188 C1213 1.257 . S
H1189 C1214 0.930 . S
H1190 C1220 0.930 . S
O1191 Co1180 2.093 . S
O1191 C1183 1.224 . S
H1192 C1224 0.929 . S
H1193 C1226 0.930 . S
H1194 C1227 0.930 . S
H1195 C1225 0.929 . S
H1196 C1228 0.928 . S
O1197 Co1181 2.057 . S
O1197 C1185 1.232 . S
H1198 C1217 0.929 . S
H1199 C1218 0.929 . S
H1200 C1230 0.931 . S
H1201 C1222 0.929 . S
H1202 C1231 0.930 . S
H1203 C1223 0.931 . S
O1204 Co1180 2.097 . S
O1204 C1232 1.214 . S
H1205 C1233 0.929 . S
H1206 C1234 0.929 . S
H1207 C1235 0.930 . S
H1208 C1236 0.929 . S
H1209 C1238 0.930 . S
H1210 C1215 0.930 . S
H1211 C1219 0.930 . S
O1212 Co1181 2.037 . S
O1212 C1232 1.234 . S
C1213 O1187 1.269 . S
C1213 O1188 1.257 . S
C1214 H1189 0.930 . S
C1214 C1217 1.388 . S
C1214 C1219 1.418 . S
C1215 H1210 0.930 . S
C1215 C1218 1.404 . S
C1215 C1219 1.353 . S
N1216 Co1181 2.145 . S
N1216 C1217 1.397 . S
N1216 C1218 1.334 . S
C1217 H1198 0.929 . S
C1217 C1214 1.388 . S
C1217 N1216 1.397 . S
C1218 H1199 0.929 . S
C1218 C1215 1.404 . S
C1218 N1216 1.334 . S
C1219 H1211 0.930 . S
C1219 C1214 1.418 . S
C1219 C1215 1.353 . S
C1220 H1190 0.930 . S
C1220 N1221 1.330 . S
C1220 C1222 1.446 . S
N1221 Co1180 2.151 . S
N1221 C1220 1.330 . S
N1221 C1225 1.418 . S
C1222 H1201 0.929 . S
C1222 C1220 1.446 . S
C1222 C1223 1.332 . S
C1223 H1203 0.931 . S
C1223 C1222 1.332 . S
C1223 C1224 1.267 . S
C1224 H1192 0.929 . S
C1224 C1223 1.267 . S
C1224 C1225 1.251 . S
C1225 H1195 0.929 . S
C1225 N1221 1.418 . S
C1225 C1224 1.251 . S
C1226 H1193 0.930 . S
C1226 C1228 1.406 . S
C1226 C1231 1.261 . S
C1227 H1194 0.930 . S
C1227 N1229 1.325 . S
C1227 C1230 1.357 . S
C1228 H1196 0.928 . S
C1228 C1226 1.406 . S
C1228 N1229 1.261 . S
N1229 Co1180 2.214 . S
N1229 C1227 1.325 . S
N1229 C1228 1.261 . S
C1230 H1200 0.931 . S
C1230 C1227 1.357 . S
C1230 C1231 1.312 . S
C1231 H1202 0.930 . S
C1231 C1226 1.261 . S
C1231 C1230 1.312 . S
C1232 O1204 1.214 . S
C1232 O1212 1.234 . S
C1233 H1205 0.929 . S
C1233 C1236 1.391 . S
C1233 C1238 1.391 . S
C1234 H1206 0.929 . S
C1234 C1235 1.390 . S
C1234 N1237 1.391 . S
C1235 H1207 0.930 . S
C1235 C1234 1.390 . S
C1235 C1236 1.392 . S
C1236 H1208 0.929 . S
C1236 C1233 1.391 . S
C1236 C1235 1.392 . S
N1237 Co1181 2.257 . S
N1237 C1234 1.391 . S
N1237 C1238 1.388 . S
C1238 H1209 0.930 . S
C1238 C1233 1.391 . S
C1238 N1237 1.388 . S
Co1239 O1241 2.143 . S
Co1239 O1247 2.074 . S
Co1239 O1250 2.093 . S
Co1239 O1263 2.097 . S
Co1239 N1280 2.151 . S
Co1239 N1288 2.214 . S
Co1240 O1241 2.160 . S
Co1240 O1246 2.058 . S
Co1240 O1256 2.057 . S
Co1240 O1271 2.037 . S
Co1240 N1275 2.145 . S
Co1240 N1296 2.257 . S
O1241 Co1239 2.143 . S
O1241 Co1240 2.160 . S
C1242 O1243 1.278 . S
C1242 O1250 1.224 . S
O1243 C1242 1.278 . S
C1244 O1245 1.245 . S
C1244 O1256 1.232 . S
O1245 C1244 1.245 . S
O1246 Co1240 2.058 . S
O1246 C1272 1.269 . S
O1247 Co1239 2.074 . S
O1247 C1272 1.257 . S
H1248 C1273 0.930 . S
H1249 C1279 0.930 . S
O1250 Co1239 2.093 . S
O1250 C1242 1.224 . S
H1251 C1283 0.929 . S
H1252 C1285 0.930 . S
H1253 C1286 0.930 . S
H1254 C1284 0.929 . S
H1255 C1287 0.928 . S
O1256 Co1240 2.057 . S
O1256 C1244 1.232 . S
H1257 C1276 0.929 . S
H1258 C1277 0.929 . S
H1259 C1289 0.931 . S
H1260 C1281 0.929 . S
H1261 C1290 0.930 . S
H1262 C1282 0.931 . S
O1263 Co1239 2.097 . S
O1263 C1291 1.214 . S
H1264 C1292 0.929 . S
H1265 C1293 0.929 . S
H1266 C1294 0.930 . S
H1267 C1295 0.929 . S
H1268 C1297 0.930 . S
H1269 C1274 0.930 . S
H1270 C1278 0.930 . S
O1271 Co1240 2.037 . S
O1271 C1291 1.234 . S
C1272 O1246 1.269 . S
C1272 O1247 1.257 . S
C1273 H1248 0.930 . S
C1273 C1276 1.388 . S
C1273 C1278 1.418 . S
C1274 H1269 0.930 . S
C1274 C1277 1.404 . S
C1274 C1278 1.353 . S
N1275 Co1240 2.145 . S
N1275 C1276 1.397 . S
N1275 C1277 1.334 . S
C1276 H1257 0.929 . S
C1276 C1273 1.388 . S
C1276 N1275 1.397 . S
C1277 H1258 0.929 . S
C1277 C1274 1.404 . S
C1277 N1275 1.334 . S
C1278 H1270 0.930 . S
C1278 C1273 1.418 . S
C1278 C1274 1.353 . S
C1279 H1249 0.930 . S
C1279 N1280 1.330 . S
C1279 C1281 1.446 . S
N1280 Co1239 2.151 . S
N1280 C1279 1.330 . S
N1280 C1284 1.418 . S
C1281 H1260 0.929 . S
C1281 C1279 1.446 . S
C1281 C1282 1.332 . S
C1282 H1262 0.931 . S
C1282 C1281 1.332 . S
C1282 C1283 1.267 . S
C1283 H1251 0.929 . S
C1283 C1282 1.267 . S
C1283 C1284 1.251 . S
C1284 H1254 0.929 . S
C1284 N1280 1.418 . S
C1284 C1283 1.251 . S
C1285 H1252 0.930 . S
C1285 C1287 1.406 . S
C1285 C1290 1.261 . S
C1286 H1253 0.930 . S
C1286 N1288 1.325 . S
C1286 C1289 1.357 . S
C1287 H1255 0.928 . S
C1287 C1285 1.406 . S
C1287 N1288 1.261 . S
N1288 Co1239 2.214 . S
N1288 C1286 1.325 . S
N1288 C1287 1.261 . S
C1289 H1259 0.931 . S
C1289 C1286 1.357 . S
C1289 C1290 1.312 . S
C1290 H1261 0.930 . S
C1290 C1285 1.261 . S
C1290 C1289 1.312 . S
C1291 O1263 1.214 . S
C1291 O1271 1.234 . S
C1292 H1264 0.929 . S
C1292 C1295 1.391 . S
C1292 C1297 1.391 . S
C1293 H1265 0.929 . S
C1293 C1294 1.390 . S
C1293 N1296 1.391 . S
C1294 H1266 0.930 . S
C1294 C1293 1.390 . S
C1294 C1295 1.392 . S
C1295 H1267 0.929 . S
C1295 C1292 1.391 . S
C1295 C1294 1.392 . S
N1296 Co1240 2.257 . S
N1296 C1293 1.391 . S
N1296 C1297 1.388 . S
C1297 H1268 0.930 . S
C1297 C1292 1.391 . S
C1297 N1296 1.388 . S
Co1298 O1300 2.143 . S
Co1298 O1306 2.074 . S
Co1298 O1309 2.093 . S
Co1298 O1322 2.097 . S
Co1298 N1339 2.151 . S
Co1298 N1347 2.214 . S
Co1299 O1300 2.160 . S
Co1299 O1305 2.058 . S
Co1299 O1315 2.057 . S
Co1299 O1330 2.037 . S
Co1299 N1334 2.145 . S
Co1299 N1355 2.257 . S
O1300 Co1298 2.143 . S
O1300 Co1299 2.160 . S
C1301 O1302 1.278 . S
C1301 O1309 1.224 . S
O1302 C1301 1.278 . S
C1303 O1304 1.245 . S
C1303 O1315 1.232 . S
O1304 C1303 1.245 . S
O1305 Co1299 2.058 . S
O1305 C1331 1.269 . S
O1306 Co1298 2.074 . S
O1306 C1331 1.257 . S
H1307 C1332 0.930 . S
H1308 C1338 0.930 . S
O1309 Co1298 2.093 . S
O1309 C1301 1.224 . S
H1310 C1342 0.929 . S
H1311 C1344 0.930 . S
H1312 C1345 0.930 . S
H1313 C1343 0.929 . S
H1314 C1346 0.928 . S
O1315 Co1299 2.057 . S
O1315 C1303 1.232 . S
H1316 C1335 0.929 . S
H1317 C1336 0.929 . S
H1318 C1348 0.931 . S
H1319 C1340 0.929 . S
H1320 C1349 0.930 . S
H1321 C1341 0.931 . S
O1322 Co1298 2.097 . S
O1322 C1350 1.214 . S
H1323 C1351 0.929 . S
H1324 C1352 0.929 . S
H1325 C1353 0.930 . S
H1326 C1354 0.929 . S
H1327 C1356 0.930 . S
H1328 C1333 0.930 . S
H1329 C1337 0.930 . S
O1330 Co1299 2.037 . S
O1330 C1350 1.234 . S
C1331 O1305 1.269 . S
C1331 O1306 1.257 . S
C1332 H1307 0.930 . S
C1332 C1335 1.388 . S
C1332 C1337 1.418 . S
C1333 H1328 0.930 . S
C1333 C1336 1.404 . S
C1333 C1337 1.353 . S
N1334 Co1299 2.145 . S
N1334 C1335 1.397 . S
N1334 C1336 1.334 . S
C1335 H1316 0.929 . S
C1335 C1332 1.388 . S
C1335 N1334 1.397 . S
C1336 H1317 0.929 . S
C1336 C1333 1.404 . S
C1336 N1334 1.334 . S
C1337 H1329 0.930 . S
C1337 C1332 1.418 . S
C1337 C1333 1.353 . S
C1338 H1308 0.930 . S
C1338 N1339 1.330 . S
C1338 C1340 1.446 . S
N1339 Co1298 2.151 . S
N1339 C1338 1.330 . S
N1339 C1343 1.418 . S
C1340 H1319 0.929 . S
C1340 C1338 1.446 . S
C1340 C1341 1.332 . S
C1341 H1321 0.931 . S
C1341 C1340 1.332 . S
C1341 C1342 1.267 . S
C1342 H1310 0.929 . S
C1342 C1341 1.267 . S
C1342 C1343 1.251 . S
C1343 H1313 0.929 . S
C1343 N1339 1.418 . S
C1343 C1342 1.251 . S
C1344 H1311 0.930 . S
C1344 C1346 1.406 . S
C1344 C1349 1.261 . S
C1345 H1312 0.930 . S
C1345 N1347 1.325 . S
C1345 C1348 1.357 . S
C1346 H1314 0.928 . S
C1346 C1344 1.406 . S
C1346 N1347 1.261 . S
N1347 Co1298 2.214 . S
N1347 C1345 1.325 . S
N1347 C1346 1.261 . S
C1348 H1318 0.931 . S
C1348 C1345 1.357 . S
C1348 C1349 1.312 . S
C1349 H1320 0.930 . S
C1349 C1344 1.261 . S
C1349 C1348 1.312 . S
C1350 O1322 1.214 . S
C1350 O1330 1.234 . S
C1351 H1323 0.929 . S
C1351 C1354 1.391 . S
C1351 C1356 1.391 . S
C1352 H1324 0.929 . S
C1352 C1353 1.390 . S
C1352 N1355 1.391 . S
C1353 H1325 0.930 . S
C1353 C1352 1.390 . S
C1353 C1354 1.392 . S
C1354 H1326 0.929 . S
C1354 C1351 1.391 . S
C1354 C1353 1.392 . S
N1355 Co1299 2.257 . S
N1355 C1352 1.391 . S
N1355 C1356 1.388 . S
C1356 H1327 0.930 . S
C1356 C1351 1.391 . S
C1356 N1355 1.388 . S
Co1357 O1359 2.143 . S
Co1357 O1365 2.074 . S
Co1357 O1368 2.093 . S
Co1357 O1381 2.097 . S
Co1357 N1398 2.151 . S
Co1357 N1406 2.214 . S
Co1358 O1359 2.160 . S
Co1358 O1364 2.058 . S
Co1358 O1374 2.057 . S
Co1358 O1389 2.037 . S
Co1358 N1393 2.145 . S
Co1358 N1414 2.257 . S
O1359 Co1357 2.143 . S
O1359 Co1358 2.160 . S
C1360 O1361 1.278 . S
C1360 O1368 1.224 . S
O1361 C1360 1.278 . S
C1362 O1363 1.245 . S
C1362 O1374 1.232 . S
O1363 C1362 1.245 . S
O1364 Co1358 2.058 . S
O1364 C1390 1.269 . S
O1365 Co1357 2.074 . S
O1365 C1390 1.257 . S
H1366 C1391 0.930 . S
H1367 C1397 0.930 . S
O1368 Co1357 2.093 . S
O1368 C1360 1.224 . S
H1369 C1401 0.929 . S
H1370 C1403 0.930 . S
H1371 C1404 0.930 . S
H1372 C1402 0.929 . S
H1373 C1405 0.928 . S
O1374 Co1358 2.057 . S
O1374 C1362 1.232 . S
H1375 C1394 0.929 . S
H1376 C1395 0.929 . S
H1377 C1407 0.931 . S
H1378 C1399 0.929 . S
H1379 C1408 0.930 . S
H1380 C1400 0.931 . S
O1381 Co1357 2.097 . S
O1381 C1409 1.214 . S
H1382 C1410 0.929 . S
H1383 C1411 0.929 . S
H1384 C1412 0.930 . S
H1385 C1413 0.929 . S
H1386 C1415 0.930 . S
H1387 C1392 0.930 . S
H1388 C1396 0.930 . S
O1389 Co1358 2.037 . S
O1389 C1409 1.234 . S
C1390 O1364 1.269 . S
C1390 O1365 1.257 . S
C1391 H1366 0.930 . S
C1391 C1394 1.388 . S
C1391 C1396 1.418 . S
C1392 H1387 0.930 . S
C1392 C1395 1.404 . S
C1392 C1396 1.353 . S
N1393 Co1358 2.145 . S
N1393 C1394 1.397 . S
N1393 C1395 1.334 . S
C1394 H1375 0.929 . S
C1394 C1391 1.388 . S
C1394 N1393 1.397 . S
C1395 H1376 0.929 . S
C1395 C1392 1.404 . S
C1395 N1393 1.334 . S
C1396 H1388 0.930 . S
C1396 C1391 1.418 . S
C1396 C1392 1.353 . S
C1397 H1367 0.930 . S
C1397 N1398 1.330 . S
C1397 C1399 1.446 . S
N1398 Co1357 2.151 . S
N1398 C1397 1.330 . S
N1398 C1402 1.418 . S
C1399 H1378 0.929 . S
C1399 C1397 1.446 . S
C1399 C1400 1.332 . S
C1400 H1380 0.931 . S
C1400 C1399 1.332 . S
C1400 C1401 1.267 . S
C1401 H1369 0.929 . S
C1401 C1400 1.267 . S
C1401 C1402 1.251 . S
C1402 H1372 0.929 . S
C1402 N1398 1.418 . S
C1402 C1401 1.251 . S
C1403 H1370 0.930 . S
C1403 C1405 1.406 . S
C1403 C1408 1.261 . S
C1404 H1371 0.930 . S
C1404 N1406 1.325 . S
C1404 C1407 1.357 . S
C1405 H1373 0.928 . S
C1405 C1403 1.406 . S
C1405 N1406 1.261 . S
N1406 Co1357 2.214 . S
N1406 C1404 1.325 . S
N1406 C1405 1.261 . S
C1407 H1377 0.931 . S
C1407 C1404 1.357 . S
C1407 C1408 1.312 . S
C1408 H1379 0.930 . S
C1408 C1403 1.261 . S
C1408 C1407 1.312 . S
C1409 O1381 1.214 . S
C1409 O1389 1.234 . S
C1410 H1382 0.929 . S
C1410 C1413 1.391 . S
C1410 C1415 1.391 . S
C1411 H1383 0.929 . S
C1411 C1412 1.390 . S
C1411 N1414 1.391 . S
C1412 H1384 0.930 . S
C1412 C1411 1.390 . S
C1412 C1413 1.392 . S
C1413 H1385 0.929 . S
C1413 C1410 1.391 . S
C1413 C1412 1.392 . S
N1414 Co1358 2.257 . S
N1414 C1411 1.391 . S
N1414 C1415 1.388 . S
C1415 H1386 0.930 . S
C1415 C1410 1.391 . S
C1415 N1414 1.388 . S
C1416 C1417 1.363 . S
C1416 C1422 1.379 . S
C1416 N1424 1.356 . S
C1417 C1416 1.363 . S
C1417 C1423 1.363 . S
C1418 C1419 1.363 . S
C1418 C1423 1.379 . S
C1418 N1425 1.356 . S
C1419 C1418 1.363 . S
C1419 C1422 1.363 . S
N1420 C1422 1.356 . S
N1420 H1432 0.984 . S
N1420 H1433 0.985 . S
N1421 C1423 1.356 . S
N1421 H1426 0.984 . S
N1421 H1427 0.985 . S
C1422 C1416 1.379 . S
C1422 C1419 1.363 . S
C1422 N1420 1.356 . S
C1423 C1417 1.363 . S
C1423 C1418 1.379 . S
C1423 N1421 1.356 . S
N1424 C1416 1.356 . S
N1424 H1430 0.984 . S
N1424 H1431 0.984 . S
N1425 C1418 1.356 . S
N1425 H1428 0.984 . S
N1425 H1429 0.985 . S
H1426 N1421 0.984 . S
H1427 N1421 0.985 . S
H1428 N1425 0.984 . S
H1429 N1425 0.985 . S
H1430 N1424 0.984 . S
H1431 N1424 0.984 . S
H1432 N1420 0.984 . S
H1433 N1420 0.985 . S
C1434 C1435 1.363 . S
C1434 C1440 1.379 1_655 S
C1434 N1442 1.356 . S
C1435 C1434 1.363 . S
C1435 C1441 1.363 . S
C1436 C1437 1.363 . S
C1436 C1441 1.379 1_455 S
C1436 N1443 1.356 . S
C1437 C1436 1.363 . S
C1437 C1440 1.363 . S
N1438 C1440 1.356 . S
N1438 H1450 0.984 . S
N1438 H1451 0.985 . S
N1439 C1441 1.356 . S
N1439 H1444 0.984 . S
N1439 H1445 0.985 . S
C1440 C1434 1.379 1_455 S
C1440 C1437 1.363 . S
C1440 N1438 1.356 . S
C1441 C1435 1.363 . S
C1441 C1436 1.379 1_655 S
C1441 N1439 1.356 . S
N1442 C1434 1.356 . S
N1442 H1448 0.984 . S
N1442 H1449 0.984 . S
N1443 C1436 1.356 . S
N1443 H1446 0.984 . S
N1443 H1447 0.985 . S
H1444 N1439 0.984 . S
H1445 N1439 0.985 . S
H1446 N1443 0.984 . S
H1447 N1443 0.985 . S
H1448 N1442 0.984 . S
H1449 N1442 0.984 . S
H1450 N1438 0.984 . S
H1451 N1438 0.985 . S
C1452 C1453 1.363 . S
C1452 C1458 1.379 . S
C1452 N1460 1.356 . S
C1453 C1452 1.363 . S
C1453 C1459 1.363 . S
C1454 C1455 1.363 . S
C1454 C1459 1.379 . S
C1454 N1461 1.356 . S
C1455 C1454 1.363 . S
C1455 C1458 1.363 . S
N1456 C1458 1.356 . S
N1456 H1468 0.984 . S
N1456 H1469 0.985 . S
N1457 C1459 1.356 . S
N1457 H1462 0.984 . S
N1457 H1463 0.985 . S
C1458 C1452 1.379 . S
C1458 C1455 1.363 . S
C1458 N1456 1.356 . S
C1459 C1453 1.363 . S
C1459 C1454 1.379 . S
C1459 N1457 1.356 . S
N1460 C1452 1.356 . S
N1460 H1466 0.984 . S
N1460 H1467 0.984 . S
N1461 C1454 1.356 . S
N1461 H1464 0.984 . S
N1461 H1465 0.985 . S
H1462 N1457 0.984 . S
H1463 N1457 0.985 . S
H1464 N1461 0.984 . S
H1465 N1461 0.985 . S
H1466 N1460 0.984 . S
H1467 N1460 0.984 . S
H1468 N1456 0.984 . S
H1469 N1456 0.985 . S
C1470 C1471 1.363 . S
C1470 C1476 1.379 1_455 S
C1470 N1478 1.356 . S
C1471 C1470 1.363 . S
C1471 C1477 1.363 . S
C1472 C1473 1.363 . S
C1472 C1477 1.379 1_655 S
C1472 N1479 1.356 . S
C1473 C1472 1.363 . S
C1473 C1476 1.363 . S
N1474 C1476 1.356 . S
N1474 H1486 0.984 . S
N1474 H1487 0.985 . S
N1475 C1477 1.356 . S
N1475 H1480 0.984 . S
N1475 H1481 0.985 . S
C1476 C1470 1.379 1_655 S
C1476 C1473 1.363 . S
C1476 N1474 1.356 . S
C1477 C1471 1.363 . S
C1477 C1472 1.379 1_455 S
C1477 N1475 1.356 . S
N1478 C1470 1.356 . S
N1478 H1484 0.984 . S
N1478 H1485 0.984 . S
N1479 C1472 1.356 . S
N1479 H1482 0.984 . S
N1479 H1483 0.985 . S
H1480 N1475 0.984 . S
H1481 N1475 0.985 . S
H1482 N1479 0.984 . S
H1483 N1479 0.985 . S
H1484 N1478 0.984 . S
H1485 N1478 0.984 . S
H1486 N1474 0.984 . S
H1487 N1474 0.985 . S
C1488 C1489 1.363 . S
C1488 C1494 1.379 . S
C1488 N1496 1.356 . S
C1489 C1488 1.363 . S
C1489 C1495 1.363 . S
C1490 C1491 1.363 . S
C1490 C1495 1.379 . S
C1490 N1497 1.356 . S
C1491 C1490 1.363 . S
C1491 C1494 1.363 . S
N1492 C1494 1.356 . S
N1492 H1504 0.984 . S
N1492 H1505 0.985 . S
N1493 C1495 1.356 . S
N1493 H1498 0.984 . S
N1493 H1499 0.985 . S
C1494 C1488 1.379 . S
C1494 C1491 1.363 . S
C1494 N1492 1.356 . S
C1495 C1489 1.363 . S
C1495 C1490 1.379 . S
C1495 N1493 1.356 . S
N1496 C1488 1.356 . S
N1496 H1502 0.984 . S
N1496 H1503 0.984 . S
N1497 C1490 1.356 . S
N1497 H1500 0.984 . S
N1497 H1501 0.985 . S
H1498 N1493 0.984 . S
H1499 N1493 0.985 . S
H1500 N1497 0.984 . S
H1501 N1497 0.985 . S
H1502 N1496 0.984 . S
H1503 N1496 0.984 . S
H1504 N1492 0.984 . S
H1505 N1492 0.985 . S
C1506 C1507 1.363 . S
C1506 C1512 1.379 1_655 S
C1506 N1514 1.356 . S
C1507 C1506 1.363 . S
C1507 C1513 1.363 . S
C1508 C1509 1.363 . S
C1508 C1513 1.379 1_455 S
C1508 N1515 1.356 . S
C1509 C1508 1.363 . S
C1509 C1512 1.363 . S
N1510 C1512 1.356 . S
N1510 H1522 0.984 . S
N1510 H1523 0.985 . S
N1511 C1513 1.356 . S
N1511 H1516 0.984 . S
N1511 H1517 0.985 . S
C1512 C1506 1.379 1_455 S
C1512 C1509 1.363 . S
C1512 N1510 1.356 . S
C1513 C1507 1.363 . S
C1513 C1508 1.379 1_655 S
C1513 N1511 1.356 . S
N1514 C1506 1.356 . S
N1514 H1520 0.984 . S
N1514 H1521 0.984 . S
N1515 C1508 1.356 . S
N1515 H1518 0.984 . S
N1515 H1519 0.985 . S
H1516 N1511 0.984 . S
H1517 N1511 0.985 . S
H1518 N1515 0.984 . S
H1519 N1515 0.985 . S
H1520 N1514 0.984 . S
H1521 N1514 0.984 . S
H1522 N1510 0.984 . S
H1523 N1510 0.985 . S
C1524 C1525 1.363 . S
C1524 C1530 1.379 . S
C1524 N1532 1.356 . S
C1525 C1524 1.363 . S
C1525 C1531 1.363 . S
C1526 C1527 1.363 . S
C1526 C1531 1.379 . S
C1526 N1533 1.356 . S
C1527 C1526 1.363 . S
C1527 C1530 1.363 . S
N1528 C1530 1.356 . S
N1528 H1540 0.984 . S
N1528 H1541 0.985 . S
N1529 C1531 1.356 . S
N1529 H1534 0.984 . S
N1529 H1535 0.985 . S
C1530 C1524 1.379 . S
C1530 C1527 1.363 . S
C1530 N1528 1.356 . S
C1531 C1525 1.363 . S
C1531 C1526 1.379 . S
C1531 N1529 1.356 . S
N1532 C1524 1.356 . S
N1532 H1538 0.984 . S
N1532 H1539 0.984 . S
N1533 C1526 1.356 . S
N1533 H1536 0.984 . S
N1533 H1537 0.985 . S
H1534 N1529 0.984 . S
H1535 N1529 0.985 . S
H1536 N1533 0.984 . S
H1537 N1533 0.985 . S
H1538 N1532 0.984 . S
H1539 N1532 0.984 . S
H1540 N1528 0.984 . S
H1541 N1528 0.985 . S
C1542 C1543 1.363 . S
C1542 C1548 1.379 1_655 S
C1542 N1550 1.356 . S
C1543 C1542 1.363 . S
C1543 C1549 1.363 . S
C1544 C1545 1.363 . S
C1544 C1549 1.379 1_455 S
C1544 N1551 1.356 . S
C1545 C1544 1.363 . S
C1545 C1548 1.363 . S
N1546 C1548 1.356 . S
N1546 H1558 0.984 . S
N1546 H1559 0.985 . S
N1547 C1549 1.356 . S
N1547 H1552 0.984 . S
N1547 H1553 0.985 . S
C1548 C1542 1.379 1_455 S
C1548 C1545 1.363 . S
C1548 N1546 1.356 . S
C1549 C1543 1.363 . S
C1549 C1544 1.379 1_655 S
C1549 N1547 1.356 . S
N1550 C1542 1.356 . S
N1550 H1556 0.984 . S
N1550 H1557 0.984 . S
N1551 C1544 1.356 . S
N1551 H1554 0.984 . S
N1551 H1555 0.985 . S
H1552 N1547 0.984 . S
H1553 N1547 0.985 . S
H1554 N1551 0.984 . S
H1555 N1551 0.985 . S
H1556 N1550 0.984 . S
H1557 N1550 0.984 . S
H1558 N1546 0.984 . S
H1559 N1546 0.985 . S
C1560 C1561 1.363 . S
C1560 C1566 1.379 . S
C1560 N1568 1.356 . S
C1561 C1560 1.363 . S
C1561 C1567 1.363 . S
C1562 C1563 1.363 . S
C1562 C1567 1.379 . S
C1562 N1569 1.356 . S
C1563 C1562 1.363 . S
C1563 C1566 1.363 . S
N1564 C1566 1.356 . S
N1564 H1576 0.984 . S
N1564 H1577 0.985 . S
N1565 C1567 1.356 . S
N1565 H1570 0.984 . S
N1565 H1571 0.985 . S
C1566 C1560 1.379 . S
C1566 C1563 1.363 . S
C1566 N1564 1.356 . S
C1567 C1561 1.363 . S
C1567 C1562 1.379 . S
C1567 N1565 1.356 . S
N1568 C1560 1.356 . S
N1568 H1574 0.984 . S
N1568 H1575 0.984 . S
N1569 C1562 1.356 . S
N1569 H1572 0.984 . S
N1569 H1573 0.985 . S
H1570 N1565 0.984 . S
H1571 N1565 0.985 . S
H1572 N1569 0.984 . S
H1573 N1569 0.985 . S
H1574 N1568 0.984 . S
H1575 N1568 0.984 . S
H1576 N1564 0.984 . S
H1577 N1564 0.985 . S
C1578 C1579 1.363 . S
C1578 C1584 1.379 1_556 S
C1578 N1586 1.356 . S
C1579 C1578 1.363 . S
C1579 C1585 1.363 . S
C1580 C1581 1.363 . S
C1580 C1585 1.379 1_554 S
C1580 N1587 1.356 . S
C1581 C1580 1.363 . S
C1581 C1584 1.363 . S
N1582 C1584 1.356 . S
N1582 H1594 0.984 . S
N1582 H1595 0.985 . S
N1583 C1585 1.356 . S
N1583 H1588 0.984 . S
N1583 H1589 0.985 . S
C1584 C1578 1.379 1_554 S
C1584 C1581 1.363 . S
C1584 N1582 1.356 . S
C1585 C1579 1.363 . S
C1585 C1580 1.379 1_556 S
C1585 N1583 1.356 . S
N1586 C1578 1.356 . S
N1586 H1592 0.984 . S
N1586 H1593 0.984 . S
N1587 C1580 1.356 . S
N1587 H1590 0.984 . S
N1587 H1591 0.985 . S
H1588 N1583 0.984 . S
H1589 N1583 0.985 . S
H1590 N1587 0.984 . S
H1591 N1587 0.985 . S
H1592 N1586 0.984 . S
H1593 N1586 0.984 . S
H1594 N1582 0.984 . S
H1595 N1582 0.985 . S
C1596 C1597 1.363 . S
C1596 C1602 1.379 . S
C1596 N1604 1.356 . S
C1597 C1596 1.363 . S
C1597 C1603 1.363 . S
C1598 C1599 1.363 . S
C1598 C1603 1.379 . S
C1598 N1605 1.356 . S
C1599 C1598 1.363 . S
C1599 C1602 1.363 . S
N1600 C1602 1.356 . S
N1600 H1612 0.984 . S
N1600 H1613 0.985 . S
N1601 C1603 1.356 . S
N1601 H1606 0.984 . S
N1601 H1607 0.985 . S
C1602 C1596 1.379 . S
C1602 C1599 1.363 . S
C1602 N1600 1.356 . S
C1603 C1597 1.363 . S
C1603 C1598 1.379 . S
C1603 N1601 1.356 . S
N1604 C1596 1.356 . S
N1604 H1610 0.984 . S
N1604 H1611 0.984 . S
N1605 C1598 1.356 . S
N1605 H1608 0.984 . S
N1605 H1609 0.985 . S
H1606 N1601 0.984 . S
H1607 N1601 0.985 . S
H1608 N1605 0.984 . S
H1609 N1605 0.985 . S
H1610 N1604 0.984 . S
H1611 N1604 0.984 . S
H1612 N1600 0.984 . S
H1613 N1600 0.985 . S
C1614 C1615 1.363 . S
C1614 C1620 1.379 1_554 S
C1614 N1622 1.356 . S
C1615 C1614 1.363 . S
C1615 C1621 1.363 . S
C1616 C1617 1.363 . S
C1616 C1621 1.379 1_556 S
C1616 N1623 1.356 . S
C1617 C1616 1.363 . S
C1617 C1620 1.363 . S
N1618 C1620 1.356 . S
N1618 H1630 0.984 . S
N1618 H1631 0.985 . S
N1619 C1621 1.356 . S
N1619 H1624 0.984 . S
N1619 H1625 0.985 . S
C1620 C1614 1.379 1_556 S
C1620 C1617 1.363 . S
C1620 N1618 1.356 . S
C1621 C1615 1.363 . S
C1621 C1616 1.379 1_554 S
C1621 N1619 1.356 . S
N1622 C1614 1.356 . S
N1622 H1628 0.984 . S
N1622 H1629 0.984 . S
N1623 C1616 1.356 . S
N1623 H1626 0.984 . S
N1623 H1627 0.985 . S
H1624 N1619 0.984 . S
H1625 N1619 0.985 . S
H1626 N1623 0.984 . S
H1627 N1623 0.985 . S
H1628 N1622 0.984 . S
H1629 N1622 0.984 . S
H1630 N1618 0.984 . S
H1631 N1618 0.985 . S
C1632 C1633 1.363 . S
C1632 C1638 1.379 . S
C1632 N1640 1.356 . S
C1633 C1632 1.363 . S
C1633 C1639 1.363 . S
C1634 C1635 1.363 . S
C1634 C1639 1.379 . S
C1634 N1641 1.356 . S
C1635 C1634 1.363 . S
C1635 C1638 1.363 . S
N1636 C1638 1.356 . S
N1636 H1648 0.984 . S
N1636 H1649 0.985 . S
N1637 C1639 1.356 . S
N1637 H1642 0.984 . S
N1637 H1643 0.985 . S
C1638 C1632 1.379 . S
C1638 C1635 1.363 . S
C1638 N1636 1.356 . S
C1639 C1633 1.363 . S
C1639 C1634 1.379 . S
C1639 N1637 1.356 . S
N1640 C1632 1.356 . S
N1640 H1646 0.984 . S
N1640 H1647 0.984 . S
N1641 C1634 1.356 . S
N1641 H1644 0.984 . S
N1641 H1645 0.985 . S
H1642 N1637 0.984 . S
H1643 N1637 0.985 . S
H1644 N1641 0.984 . S
H1645 N1641 0.985 . S
H1646 N1640 0.984 . S
H1647 N1640 0.984 . S
H1648 N1636 0.984 . S
H1649 N1636 0.985 . S
C1650 C1651 1.363 . S
C1650 C1656 1.379 1_554 S
C1650 N1658 1.356 . S
C1651 C1650 1.363 . S
C1651 C1657 1.363 . S
C1652 C1653 1.363 . S
C1652 C1657 1.379 1_556 S
C1652 N1659 1.356 . S
C1653 C1652 1.363 . S
C1653 C1656 1.363 . S
N1654 C1656 1.356 . S
N1654 H1666 0.984 . S
N1654 H1667 0.985 . S
N1655 C1657 1.356 . S
N1655 H1660 0.984 . S
N1655 H1661 0.985 . S
C1656 C1650 1.379 1_556 S
C1656 C1653 1.363 . S
C1656 N1654 1.356 . S
C1657 C1651 1.363 . S
C1657 C1652 1.379 1_554 S
C1657 N1655 1.356 . S
N1658 C1650 1.356 . S
N1658 H1664 0.984 . S
N1658 H1665 0.984 . S
N1659 C1652 1.356 . S
N1659 H1662 0.984 . S
N1659 H1663 0.985 . S
H1660 N1655 0.984 . S
H1661 N1655 0.985 . S
H1662 N1659 0.984 . S
H1663 N1659 0.985 . S
H1664 N1658 0.984 . S
H1665 N1658 0.984 . S
H1666 N1654 0.984 . S
H1667 N1654 0.985 . S
C1668 C1669 1.363 . S
C1668 C1674 1.379 . S
C1668 N1676 1.356 . S
C1669 C1668 1.363 . S
C1669 C1675 1.363 . S
C1670 C1671 1.363 . S
C1670 C1675 1.379 . S
C1670 N1677 1.356 . S
C1671 C1670 1.363 . S
C1671 C1674 1.363 . S
N1672 C1674 1.356 . S
N1672 H1684 0.984 . S
N1672 H1685 0.985 . S
N1673 C1675 1.356 . S
N1673 H1678 0.984 . S
N1673 H1679 0.985 . S
C1674 C1668 1.379 . S
C1674 C1671 1.363 . S
C1674 N1672 1.356 . S
C1675 C1669 1.363 . S
C1675 C1670 1.379 . S
C1675 N1673 1.356 . S
N1676 C1668 1.356 . S
N1676 H1682 0.984 . S
N1676 H1683 0.984 . S
N1677 C1670 1.356 . S
N1677 H1680 0.984 . S
N1677 H1681 0.985 . S
H1678 N1673 0.984 . S
H1679 N1673 0.985 . S
H1680 N1677 0.984 . S
H1681 N1677 0.985 . S
H1682 N1676 0.984 . S
H1683 N1676 0.984 . S
H1684 N1672 0.984 . S
H1685 N1672 0.985 . S
C1686 C1687 1.363 . S
C1686 C1692 1.379 1_554 S
C1686 N1694 1.356 . S
C1687 C1686 1.363 . S
C1687 C1693 1.363 . S
C1688 C1689 1.363 . S
C1688 C1693 1.379 1_556 S
C1688 N1695 1.356 . S
C1689 C1688 1.363 . S
C1689 C1692 1.363 . S
N1690 C1692 1.356 . S
N1690 H1702 0.984 . S
N1690 H1703 0.985 . S
N1691 C1693 1.356 . S
N1691 H1696 0.984 . S
N1691 H1697 0.985 . S
C1692 C1686 1.379 1_556 S
C1692 C1689 1.363 . S
C1692 N1690 1.356 . S
C1693 C1687 1.363 . S
C1693 C1688 1.379 1_554 S
C1693 N1691 1.356 . S
N1694 C1686 1.356 . S
N1694 H1700 0.984 . S
N1694 H1701 0.984 . S
N1695 C1688 1.356 . S
N1695 H1698 0.984 . S
N1695 H1699 0.985 . S
H1696 N1691 0.984 . S
H1697 N1691 0.985 . S
H1698 N1695 0.984 . S
H1699 N1695 0.985 . S
H1700 N1694 0.984 . S
H1701 N1694 0.984 . S
H1702 N1690 0.984 . S
H1703 N1690 0.985 . S
C1704 C1705 1.363 . S
C1704 C1710 1.379 . S
C1704 N1712 1.356 . S
C1705 C1704 1.363 . S
C1705 C1711 1.363 . S
C1706 C1707 1.363 . S
C1706 C1711 1.379 . S
C1706 N1713 1.356 . S
C1707 C1706 1.363 . S
C1707 C1710 1.363 . S
N1708 C1710 1.356 . S
N1708 H1720 0.984 . S
N1708 H1721 0.985 . S
N1709 C1711 1.356 . S
N1709 H1714 0.984 . S
N1709 H1715 0.985 . S
C1710 C1704 1.379 . S
C1710 C1707 1.363 . S
C1710 N1708 1.356 . S
C1711 C1705 1.363 . S
C1711 C1706 1.379 . S
C1711 N1709 1.356 . S
N1712 C1704 1.356 . S
N1712 H1718 0.984 . S
N1712 H1719 0.984 . S
N1713 C1706 1.356 . S
N1713 H1716 0.984 . S
N1713 H1717 0.985 . S
H1714 N1709 0.984 . S
H1715 N1709 0.985 . S
H1716 N1713 0.984 . S
H1717 N1713 0.985 . S
H1718 N1712 0.984 . S
H1719 N1712 0.984 . S
H1720 N1708 0.984 . S
H1721 N1708 0.985 . S
C1722 C1723 1.363 . S
C1722 C1728 1.379 . S
C1722 N1730 1.356 . S
C1723 C1722 1.363 . S
C1723 C1729 1.363 . S
C1724 C1725 1.363 . S
C1724 C1729 1.379 . S
C1724 N1731 1.356 . S
C1725 C1724 1.363 . S
C1725 C1728 1.363 . S
N1726 C1728 1.356 . S
N1726 H1738 0.984 . S
N1726 H1739 0.985 . S
N1727 C1729 1.356 . S
N1727 H1732 0.984 . S
N1727 H1733 0.985 . S
C1728 C1722 1.379 . S
C1728 C1725 1.363 . S
C1728 N1726 1.356 . S
C1729 C1723 1.363 . S
C1729 C1724 1.379 . S
C1729 N1727 1.356 . S
N1730 C1722 1.356 . S
N1730 H1736 0.984 . S
N1730 H1737 0.984 . S
N1731 C1724 1.356 . S
N1731 H1734 0.984 . S
N1731 H1735 0.985 . S
H1732 N1727 0.984 . S
H1733 N1727 0.985 . S
H1734 N1731 0.984 . S
H1735 N1731 0.985 . S
H1736 N1730 0.984 . S
H1737 N1730 0.984 . S
H1738 N1726 0.984 . S
H1739 N1726 0.985 . S
C1740 C1741 1.363 . S
C1740 C1746 1.379 1_565 S
C1740 N1748 1.356 . S
C1741 C1740 1.363 . S
C1741 C1747 1.363 . S
C1742 C1743 1.363 . S
C1742 C1747 1.379 1_545 S
C1742 N1749 1.356 . S
C1743 C1742 1.363 . S
C1743 C1746 1.363 . S
N1744 C1746 1.356 . S
N1744 H1756 0.984 . S
N1744 H1757 0.985 . S
N1745 C1747 1.356 . S
N1745 H1750 0.984 . S
N1745 H1751 0.985 . S
C1746 C1740 1.379 1_545 S
C1746 C1743 1.363 . S
C1746 N1744 1.356 . S
C1747 C1741 1.363 . S
C1747 C1742 1.379 1_565 S
C1747 N1745 1.356 . S
N1748 C1740 1.356 . S
N1748 H1754 0.984 . S
N1748 H1755 0.984 . S
N1749 C1742 1.356 . S
N1749 H1752 0.984 . S
N1749 H1753 0.985 . S
H1750 N1745 0.984 . S
H1751 N1745 0.985 . S
H1752 N1749 0.984 . S
H1753 N1749 0.985 . S
H1754 N1748 0.984 . S
H1755 N1748 0.984 . S
H1756 N1744 0.984 . S
H1757 N1744 0.985 . S
C1758 C1759 1.363 . S
C1758 C1764 1.379 . S
C1758 N1766 1.356 . S
C1759 C1758 1.363 . S
C1759 C1765 1.363 . S
C1760 C1761 1.363 . S
C1760 C1765 1.379 . S
C1760 N1767 1.356 . S
C1761 C1760 1.363 . S
C1761 C1764 1.363 . S
N1762 C1764 1.356 . S
N1762 H1774 0.984 . S
N1762 H1775 0.985 . S
N1763 C1765 1.356 . S
N1763 H1768 0.984 . S
N1763 H1769 0.985 . S
C1764 C1758 1.379 . S
C1764 C1761 1.363 . S
C1764 N1762 1.356 . S
C1765 C1759 1.363 . S
C1765 C1760 1.379 . S
C1765 N1763 1.356 . S
N1766 C1758 1.356 . S
N1766 H1772 0.984 . S
N1766 H1773 0.984 . S
N1767 C1760 1.356 . S
N1767 H1770 0.984 . S
N1767 H1771 0.985 . S
H1768 N1763 0.984 . S
H1769 N1763 0.985 . S
H1770 N1767 0.984 . S
H1771 N1767 0.985 . S
H1772 N1766 0.984 . S
H1773 N1766 0.984 . S
H1774 N1762 0.984 . S
H1775 N1762 0.985 . S
C1776 C1777 1.363 . S
C1776 C1782 1.379 1_565 S
C1776 N1784 1.356 . S
C1777 C1776 1.363 . S
C1777 C1783 1.363 . S
C1778 C1779 1.363 . S
C1778 C1783 1.379 1_545 S
C1778 N1785 1.356 . S
C1779 C1778 1.363 . S
C1779 C1782 1.363 . S
N1780 C1782 1.356 . S
N1780 H1792 0.984 . S
N1780 H1793 0.985 . S
N1781 C1783 1.356 . S
N1781 H1786 0.984 . S
N1781 H1787 0.985 . S
C1782 C1776 1.379 1_545 S
C1782 C1779 1.363 . S
C1782 N1780 1.356 . S
C1783 C1777 1.363 . S
C1783 C1778 1.379 1_565 S
C1783 N1781 1.356 . S
N1784 C1776 1.356 . S
N1784 H1790 0.984 . S
N1784 H1791 0.984 . S
N1785 C1778 1.356 . S
N1785 H1788 0.984 . S
N1785 H1789 0.985 . S
H1786 N1781 0.984 . S
H1787 N1781 0.985 . S
H1788 N1785 0.984 . S
H1789 N1785 0.985 . S
H1790 N1784 0.984 . S
H1791 N1784 0.984 . S
H1792 N1780 0.984 . S
H1793 N1780 0.985 . S
C1794 C1795 1.363 . S
C1794 C1800 1.379 . S
C1794 N1802 1.356 . S
C1795 C1794 1.363 . S
C1795 C1801 1.363 . S
C1796 C1797 1.363 . S
C1796 C1801 1.379 . S
C1796 N1803 1.356 . S
C1797 C1796 1.363 . S
C1797 C1800 1.363 . S
N1798 C1800 1.356 . S
N1798 H1810 0.984 . S
N1798 H1811 0.985 . S
N1799 C1801 1.356 . S
N1799 H1804 0.984 . S
N1799 H1805 0.985 . S
C1800 C1794 1.379 . S
C1800 C1797 1.363 . S
C1800 N1798 1.356 . S
C1801 C1795 1.363 . S
C1801 C1796 1.379 . S
C1801 N1799 1.356 . S
N1802 C1794 1.356 . S
N1802 H1808 0.984 . S
N1802 H1809 0.984 . S
N1803 C1796 1.356 . S
N1803 H1806 0.984 . S
N1803 H1807 0.985 . S
H1804 N1799 0.984 . S
H1805 N1799 0.985 . S
H1806 N1803 0.984 . S
H1807 N1803 0.985 . S
H1808 N1802 0.984 . S
H1809 N1802 0.984 . S
H1810 N1798 0.984 . S
H1811 N1798 0.985 . S
C1812 C1813 1.363 . S
C1812 C1818 1.379 1_565 S
C1812 N1820 1.356 . S
C1813 C1812 1.363 . S
C1813 C1819 1.363 . S
C1814 C1815 1.363 . S
C1814 C1819 1.379 1_545 S
C1814 N1821 1.356 . S
C1815 C1814 1.363 . S
C1815 C1818 1.363 . S
N1816 C1818 1.356 . S
N1816 H1828 0.984 . S
N1816 H1829 0.985 . S
N1817 C1819 1.356 . S
N1817 H1822 0.984 . S
N1817 H1823 0.985 . S
C1818 C1812 1.379 1_545 S
C1818 C1815 1.363 . S
C1818 N1816 1.356 . S
C1819 C1813 1.363 . S
C1819 C1814 1.379 1_565 S
C1819 N1817 1.356 . S
N1820 C1812 1.356 . S
N1820 H1826 0.984 . S
N1820 H1827 0.984 . S
N1821 C1814 1.356 . S
N1821 H1824 0.984 . S
N1821 H1825 0.985 . S
H1822 N1817 0.984 . S
H1823 N1817 0.985 . S
H1824 N1821 0.984 . S
H1825 N1821 0.985 . S
H1826 N1820 0.984 . S
H1827 N1820 0.984 . S
H1828 N1816 0.984 . S
H1829 N1816 0.985 . S
C1830 C1831 1.363 . S
C1830 C1836 1.379 1_545 S
C1830 N1838 1.356 . S
C1831 C1830 1.363 . S
C1831 C1837 1.363 . S
C1832 C1833 1.363 . S
C1832 C1837 1.379 1_565 S
C1832 N1839 1.356 . S
C1833 C1832 1.363 . S
C1833 C1836 1.363 . S
N1834 C1836 1.356 . S
N1834 H1846 0.984 . S
N1834 H1847 0.985 . S
N1835 C1837 1.356 . S
N1835 H1840 0.984 . S
N1835 H1841 0.985 . S
C1836 C1830 1.379 1_565 S
C1836 C1833 1.363 . S
C1836 N1834 1.356 . S
C1837 C1831 1.363 . S
C1837 C1832 1.379 1_545 S
C1837 N1835 1.356 . S
N1838 C1830 1.356 . S
N1838 H1844 0.984 . S
N1838 H1845 0.984 . S
N1839 C1832 1.356 . S
N1839 H1842 0.984 . S
N1839 H1843 0.985 . S
H1840 N1835 0.984 . S
H1841 N1835 0.985 . S
H1842 N1839 0.984 . S
H1843 N1839 0.985 . S
H1844 N1838 0.984 . S
H1845 N1838 0.984 . S
H1846 N1834 0.984 . S
H1847 N1834 0.985 . S
C1848 C1849 1.363 . S
C1848 C1854 1.379 . S
C1848 N1856 1.356 . S
C1849 C1848 1.363 . S
C1849 C1855 1.363 . S
C1850 C1851 1.363 . S
C1850 C1855 1.379 . S
C1850 N1857 1.356 . S
C1851 C1850 1.363 . S
C1851 C1854 1.363 . S
N1852 C1854 1.356 . S
N1852 H1864 0.984 . S
N1852 H1865 0.985 . S
N1853 C1855 1.356 . S
N1853 H1858 0.984 . S
N1853 H1859 0.985 . S
C1854 C1848 1.379 . S
C1854 C1851 1.363 . S
C1854 N1852 1.356 . S
C1855 C1849 1.363 . S
C1855 C1850 1.379 . S
C1855 N1853 1.356 . S
N1856 C1848 1.356 . S
N1856 H1862 0.984 . S
N1856 H1863 0.984 . S
N1857 C1850 1.356 . S
N1857 H1860 0.984 . S
N1857 H1861 0.985 . S
H1858 N1853 0.984 . S
H1859 N1853 0.985 . S
H1860 N1857 0.984 . S
H1861 N1857 0.985 . S
H1862 N1856 0.984 . S
H1863 N1856 0.984 . S
H1864 N1852 0.984 . S
H1865 N1852 0.985 . S
C1866 C1867 1.363 . S
C1866 C1872 1.379 . S
C1866 N1874 1.356 . S
C1867 C1866 1.363 . S
C1867 C1873 1.363 . S
C1868 C1869 1.363 . S
C1868 C1873 1.379 . S
C1868 N1875 1.356 . S
C1869 C1868 1.363 . S
C1869 C1872 1.363 . S
N1870 C1872 1.356 . S
N1870 H1882 0.984 . S
N1870 H1883 0.985 . S
N1871 C1873 1.356 . S
N1871 H1876 0.984 . S
N1871 H1877 0.985 . S
C1872 C1866 1.379 . S
C1872 C1869 1.363 . S
C1872 N1870 1.356 . S
C1873 C1867 1.363 . S
C1873 C1868 1.379 . S
C1873 N1871 1.356 . S
N1874 C1866 1.356 . S
N1874 H1880 0.984 . S
N1874 H1881 0.984 . S
N1875 C1868 1.356 . S
N1875 H1878 0.984 . S
N1875 H1879 0.985 . S
H1876 N1871 0.984 . S
H1877 N1871 0.985 . S
H1878 N1875 0.984 . S
H1879 N1875 0.985 . S
H1880 N1874 0.984 . S
H1881 N1874 0.984 . S
H1882 N1870 0.984 . S
H1883 N1870 0.985 . S
C1884 C1885 1.363 . S
C1884 C1890 1.379 . S
C1884 N1892 1.356 . S
C1885 C1884 1.363 . S
C1885 C1891 1.363 . S
C1886 C1887 1.363 . S
C1886 C1891 1.379 . S
C1886 N1893 1.356 . S
C1887 C1886 1.363 . S
C1887 C1890 1.363 . S
N1888 C1890 1.356 . S
N1888 H1900 0.984 . S
N1888 H1901 0.985 . S
N1889 C1891 1.356 . S
N1889 H1894 0.984 . S
N1889 H1895 0.985 . S
C1890 C1884 1.379 . S
C1890 C1887 1.363 . S
C1890 N1888 1.356 . S
C1891 C1885 1.363 . S
C1891 C1886 1.379 . S
C1891 N1889 1.356 . S
N1892 C1884 1.356 . S
N1892 H1898 0.984 . S
N1892 H1899 0.984 . S
N1893 C1886 1.356 . S
N1893 H1896 0.984 . S
N1893 H1897 0.985 . S
H1894 N1889 0.984 . S
H1895 N1889 0.985 . S
H1896 N1893 0.984 . S
H1897 N1893 0.985 . S
H1898 N1892 0.984 . S
H1899 N1892 0.984 . S
H1900 N1888 0.984 . S
H1901 N1888 0.985 . S
C1902 C1903 1.363 . S
C1902 C1908 1.379 . S
C1902 N1910 1.356 . S
C1903 C1902 1.363 . S
C1903 C1909 1.363 . S
C1904 C1905 1.363 . S
C1904 C1909 1.379 . S
C1904 N1911 1.356 . S
C1905 C1904 1.363 . S
C1905 C1908 1.363 . S
N1906 C1908 1.356 . S
N1906 H1918 0.984 . S
N1906 H1919 0.985 . S
N1907 C1909 1.356 . S
N1907 H1912 0.984 . S
N1907 H1913 0.985 . S
C1908 C1902 1.379 . S
C1908 C1905 1.363 . S
C1908 N1906 1.356 . S
C1909 C1903 1.363 . S
C1909 C1904 1.379 . S
C1909 N1907 1.356 . S
N1910 C1902 1.356 . S
N1910 H1916 0.984 . S
N1910 H1917 0.984 . S
N1911 C1904 1.356 . S
N1911 H1914 0.984 . S
N1911 H1915 0.985 . S
H1912 N1907 0.984 . S
H1913 N1907 0.985 . S
H1914 N1911 0.984 . S
H1915 N1911 0.985 . S
H1916 N1910 0.984 . S
H1917 N1910 0.984 . S
H1918 N1906 0.984 . S
H1919 N1906 0.985 . S
C1920 C1921 1.363 . S
C1920 C1926 1.379 . S
C1920 N1928 1.356 . S
C1921 C1920 1.363 . S
C1921 C1927 1.363 . S
C1922 C1923 1.363 . S
C1922 C1927 1.379 . S
C1922 N1929 1.356 . S
C1923 C1922 1.363 . S
C1923 C1926 1.363 . S
N1924 C1926 1.356 . S
N1924 H1936 0.984 . S
N1924 H1937 0.985 . S
N1925 C1927 1.356 . S
N1925 H1930 0.984 . S
N1925 H1931 0.985 . S
C1926 C1920 1.379 . S
C1926 C1923 1.363 . S
C1926 N1924 1.356 . S
C1927 C1921 1.363 . S
C1927 C1922 1.379 . S
C1927 N1925 1.356 . S
N1928 C1920 1.356 . S
N1928 H1934 0.984 . S
N1928 H1935 0.984 . S
N1929 C1922 1.356 . S
N1929 H1932 0.984 . S
N1929 H1933 0.985 . S
H1930 N1925 0.984 . S
H1931 N1925 0.985 . S
H1932 N1929 0.984 . S
H1933 N1929 0.985 . S
H1934 N1928 0.984 . S
H1935 N1928 0.984 . S
H1936 N1924 0.984 . S
H1937 N1924 0.985 . S
C1938 C1939 1.363 . S
C1938 C1944 1.379 . S
C1938 N1946 1.356 . S
C1939 C1938 1.363 . S
C1939 C1945 1.363 . S
C1940 C1941 1.363 . S
C1940 C1945 1.379 . S
C1940 N1947 1.356 . S
C1941 C1940 1.363 . S
C1941 C1944 1.363 . S
N1942 C1944 1.356 . S
N1942 H1954 0.984 . S
N1942 H1955 0.985 . S
N1943 C1945 1.356 . S
N1943 H1948 0.984 . S
N1943 H1949 0.985 . S
C1944 C1938 1.379 . S
C1944 C1941 1.363 . S
C1944 N1942 1.356 . S
C1945 C1939 1.363 . S
C1945 C1940 1.379 . S
C1945 N1943 1.356 . S
N1946 C1938 1.356 . S
N1946 H1952 0.984 . S
N1946 H1953 0.984 . S
N1947 C1940 1.356 . S
N1947 H1950 0.984 . S
N1947 H1951 0.985 . S
H1948 N1943 0.984 . S
H1949 N1943 0.985 . S
H1950 N1947 0.984 . S
H1951 N1947 0.985 . S
H1952 N1946 0.984 . S
H1953 N1946 0.984 . S
H1954 N1942 0.984 . S
H1955 N1942 0.985 . S
C1956 C1957 1.363 . S
C1956 C1962 1.379 . S
C1956 N1964 1.356 . S
C1957 C1956 1.363 . S
C1957 C1963 1.363 . S
C1958 C1959 1.363 . S
C1958 C1963 1.379 . S
C1958 N1965 1.356 . S
C1959 C1958 1.363 . S
C1959 C1962 1.363 . S
N1960 C1962 1.356 . S
N1960 H1972 0.984 . S
N1960 H1973 0.985 . S
N1961 C1963 1.356 . S
N1961 H1966 0.984 . S
N1961 H1967 0.985 . S
C1962 C1956 1.379 . S
C1962 C1959 1.363 . S
C1962 N1960 1.356 . S
C1963 C1957 1.363 . S
C1963 C1958 1.379 . S
C1963 N1961 1.356 . S
N1964 C1956 1.356 . S
N1964 H1970 0.984 . S
N1964 H1971 0.984 . S
N1965 C1958 1.356 . S
N1965 H1968 0.984 . S
N1965 H1969 0.985 . S
H1966 N1961 0.984 . S
H1967 N1961 0.985 . S
H1968 N1965 0.984 . S
H1969 N1965 0.985 . S
H1970 N1964 0.984 . S
H1971 N1964 0.984 . S
H1972 N1960 0.984 . S
H1973 N1960 0.985 . S
C1974 C1975 1.363 . S
C1974 C1980 1.379 . S
C1974 N1982 1.356 . S
C1975 C1974 1.363 . S
C1975 C1981 1.363 . S
C1976 C1977 1.363 . S
C1976 C1981 1.379 . S
C1976 N1983 1.356 . S
C1977 C1976 1.363 . S
C1977 C1980 1.363 . S
N1978 C1980 1.356 . S
N1978 H1990 0.984 . S
N1978 H1991 0.985 . S
N1979 C1981 1.356 . S
N1979 H1984 0.984 . S
N1979 H1985 0.985 . S
C1980 C1974 1.379 . S
C1980 C1977 1.363 . S
C1980 N1978 1.356 . S
C1981 C1975 1.363 . S
C1981 C1976 1.379 . S
C1981 N1979 1.356 . S
N1982 C1974 1.356 . S
N1982 H1988 0.984 . S
N1982 H1989 0.984 . S
N1983 C1976 1.356 . S
N1983 H1986 0.984 . S
N1983 H1987 0.985 . S
H1984 N1979 0.984 . S
H1985 N1979 0.985 . S
H1986 N1983 0.984 . S
H1987 N1983 0.985 . S
H1988 N1982 0.984 . S
H1989 N1982 0.984 . S
H1990 N1978 0.984 . S
H1991 N1978 0.985 . S
C1992 C1993 1.363 . S
C1992 C1998 1.379 . S
C1992 N2000 1.356 . S
C1993 C1992 1.363 . S
C1993 C1999 1.363 . S
C1994 C1995 1.363 . S
C1994 C1999 1.379 . S
C1994 N2001 1.356 . S
C1995 C1994 1.363 . S
C1995 C1998 1.363 . S
N1996 C1998 1.356 . S
N1996 H2008 0.984 . S
N1996 H2009 0.985 . S
N1997 C1999 1.356 . S
N1997 H2002 0.984 . S
N1997 H2003 0.985 . S
C1998 C1992 1.379 . S
C1998 C1995 1.363 . S
C1998 N1996 1.356 . S
C1999 C1993 1.363 . S
C1999 C1994 1.379 . S
C1999 N1997 1.356 . S
N2000 C1992 1.356 . S
N2000 H2006 0.984 . S
N2000 H2007 0.984 . S
N2001 C1994 1.356 . S
N2001 H2004 0.984 . S
N2001 H2005 0.985 . S
H2002 N1997 0.984 . S
H2003 N1997 0.985 . S
H2004 N2001 0.984 . S
H2005 N2001 0.985 . S
H2006 N2000 0.984 . S
H2007 N2000 0.984 . S
H2008 N1996 0.984 . S
H2009 N1996 0.985 . S
C2010 C2011 1.363 . S
C2010 C2016 1.379 . S
C2010 N2018 1.356 . S
C2011 C2010 1.363 . S
C2011 C2017 1.363 . S
C2012 C2013 1.363 . S
C2012 C2017 1.379 . S
C2012 N2019 1.356 . S
C2013 C2012 1.363 . S
C2013 C2016 1.363 . S
N2014 C2016 1.356 . S
N2014 H2026 0.984 . S
N2014 H2027 0.985 . S
N2015 C2017 1.356 . S
N2015 H2020 0.984 . S
N2015 H2021 0.985 . S
C2016 C2010 1.379 . S
C2016 C2013 1.363 . S
C2016 N2014 1.356 . S
C2017 C2011 1.363 . S
C2017 C2012 1.379 . S
C2017 N2015 1.356 . S
N2018 C2010 1.356 . S
N2018 H2024 0.984 . S
N2018 H2025 0.984 . S
N2019 C2012 1.356 . S
N2019 H2022 0.984 . S
N2019 H2023 0.985 . S
H2020 N2015 0.984 . S
H2021 N2015 0.985 . S
H2022 N2019 0.984 . S
H2023 N2019 0.985 . S
H2024 N2018 0.984 . S
H2025 N2018 0.984 . S
H2026 N2014 0.984 . S
H2027 N2014 0.985 . S
C2028 C2029 1.363 . S
C2028 C2034 1.379 . S
C2028 N2036 1.356 . S
C2029 C2028 1.363 . S
C2029 C2035 1.363 . S
C2030 C2031 1.363 . S
C2030 C2035 1.379 . S
C2030 N2037 1.356 . S
C2031 C2030 1.363 . S
C2031 C2034 1.363 . S
N2032 C2034 1.356 . S
N2032 H2044 0.984 . S
N2032 H2045 0.985 . S
N2033 C2035 1.356 . S
N2033 H2038 0.984 . S
N2033 H2039 0.985 . S
C2034 C2028 1.379 . S
C2034 C2031 1.363 . S
C2034 N2032 1.356 . S
C2035 C2029 1.363 . S
C2035 C2030 1.379 . S
C2035 N2033 1.356 . S
N2036 C2028 1.356 . S
N2036 H2042 0.984 . S
N2036 H2043 0.984 . S
N2037 C2030 1.356 . S
N2037 H2040 0.984 . S
N2037 H2041 0.985 . S
H2038 N2033 0.984 . S
H2039 N2033 0.985 . S
H2040 N2037 0.984 . S
H2041 N2037 0.985 . S
H2042 N2036 0.984 . S
H2043 N2036 0.984 . S
H2044 N2032 0.984 . S
H2045 N2032 0.985 . S
C2046 C2047 1.363 . S
C2046 C2052 1.379 . S
C2046 N2054 1.356 . S
C2047 C2046 1.363 . S
C2047 C2053 1.363 . S
C2048 C2049 1.363 . S
C2048 C2053 1.379 . S
C2048 N2055 1.356 . S
C2049 C2048 1.363 . S
C2049 C2052 1.363 . S
N2050 C2052 1.356 . S
N2050 H2062 0.984 . S
N2050 H2063 0.985 . S
N2051 C2053 1.356 . S
N2051 H2056 0.984 . S
N2051 H2057 0.985 . S
C2052 C2046 1.379 . S
C2052 C2049 1.363 . S
C2052 N2050 1.356 . S
C2053 C2047 1.363 . S
C2053 C2048 1.379 . S
C2053 N2051 1.356 . S
N2054 C2046 1.356 . S
N2054 H2060 0.984 . S
N2054 H2061 0.984 . S
N2055 C2048 1.356 . S
N2055 H2058 0.984 . S
N2055 H2059 0.985 . S
H2056 N2051 0.984 . S
H2057 N2051 0.985 . S
H2058 N2055 0.984 . S
H2059 N2055 0.985 . S
H2060 N2054 0.984 . S
H2061 N2054 0.984 . S
H2062 N2050 0.984 . S
H2063 N2050 0.985 . S
C2064 C2065 1.363 . S
C2064 C2070 1.379 . S
C2064 N2072 1.356 . S
C2065 C2064 1.363 . S
C2065 C2071 1.363 . S
C2066 C2067 1.363 . S
C2066 C2071 1.379 . S
C2066 N2073 1.356 . S
C2067 C2066 1.363 . S
C2067 C2070 1.363 . S
N2068 C2070 1.356 . S
N2068 H2080 0.984 . S
N2068 H2081 0.985 . S
N2069 C2071 1.356 . S
N2069 H2074 0.984 . S
N2069 H2075 0.985 . S
C2070 C2064 1.379 . S
C2070 C2067 1.363 . S
C2070 N2068 1.356 . S
C2071 C2065 1.363 . S
C2071 C2066 1.379 . S
C2071 N2069 1.356 . S
N2072 C2064 1.356 . S
N2072 H2078 0.984 . S
N2072 H2079 0.984 . S
N2073 C2066 1.356 . S
N2073 H2076 0.984 . S
N2073 H2077 0.985 . S
H2074 N2069 0.984 . S
H2075 N2069 0.985 . S
H2076 N2073 0.984 . S
H2077 N2073 0.985 . S
H2078 N2072 0.984 . S
H2079 N2072 0.984 . S
H2080 N2068 0.984 . S
H2081 N2068 0.985 . S
C2082 C2083 1.363 . S
C2082 C2088 1.379 . S
C2082 N2090 1.356 . S
C2083 C2082 1.363 . S
C2083 C2089 1.363 . S
C2084 C2085 1.363 . S
C2084 C2089 1.379 . S
C2084 N2091 1.356 . S
C2085 C2084 1.363 . S
C2085 C2088 1.363 . S
N2086 C2088 1.356 . S
N2086 H2098 0.984 . S
N2086 H2099 0.985 . S
N2087 C2089 1.356 . S
N2087 H2092 0.984 . S
N2087 H2093 0.985 . S
C2088 C2082 1.379 . S
C2088 C2085 1.363 . S
C2088 N2086 1.356 . S
C2089 C2083 1.363 . S
C2089 C2084 1.379 . S
C2089 N2087 1.356 . S
N2090 C2082 1.356 . S
N2090 H2096 0.984 . S
N2090 H2097 0.984 . S
N2091 C2084 1.356 . S
N2091 H2094 0.984 . S
N2091 H2095 0.985 . S
H2092 N2087 0.984 . S
H2093 N2087 0.985 . S
H2094 N2091 0.984 . S
H2095 N2091 0.985 . S
H2096 N2090 0.984 . S
H2097 N2090 0.984 . S
H2098 N2086 0.984 . S
H2099 N2086 0.985 . S
C2100 C2101 1.363 . S
C2100 C2106 1.379 . S
C2100 N2108 1.356 . S
C2101 C2100 1.363 . S
C2101 C2107 1.363 . S
C2102 C2103 1.363 . S
C2102 C2107 1.379 . S
C2102 N2109 1.356 . S
C2103 C2102 1.363 . S
C2103 C2106 1.363 . S
N2104 C2106 1.356 . S
N2104 H2116 0.984 . S
N2104 H2117 0.985 . S
N2105 C2107 1.356 . S
N2105 H2110 0.984 . S
N2105 H2111 0.985 . S
C2106 C2100 1.379 . S
C2106 C2103 1.363 . S
C2106 N2104 1.356 . S
C2107 C2101 1.363 . S
C2107 C2102 1.379 . S
C2107 N2105 1.356 . S
N2108 C2100 1.356 . S
N2108 H2114 0.984 . S
N2108 H2115 0.984 . S
N2109 C2102 1.356 . S
N2109 H2112 0.984 . S
N2109 H2113 0.985 . S
H2110 N2105 0.984 . S
H2111 N2105 0.985 . S
H2112 N2109 0.984 . S
H2113 N2109 0.985 . S
H2114 N2108 0.984 . S
H2115 N2108 0.984 . S
H2116 N2104 0.984 . S
H2117 N2104 0.985 . S
C2118 C2119 1.363 . S
C2118 C2124 1.379 . S
C2118 N2126 1.356 . S
C2119 C2118 1.363 . S
C2119 C2125 1.363 . S
C2120 C2121 1.363 . S
C2120 C2125 1.379 . S
C2120 N2127 1.356 . S
C2121 C2120 1.363 . S
C2121 C2124 1.363 . S
N2122 C2124 1.356 . S
N2122 H2134 0.984 . S
N2122 H2135 0.985 . S
N2123 C2125 1.356 . S
N2123 H2128 0.984 . S
N2123 H2129 0.985 . S
C2124 C2118 1.379 . S
C2124 C2121 1.363 . S
C2124 N2122 1.356 . S
C2125 C2119 1.363 . S
C2125 C2120 1.379 . S
C2125 N2123 1.356 . S
N2126 C2118 1.356 . S
N2126 H2132 0.984 . S
N2126 H2133 0.984 . S
N2127 C2120 1.356 . S
N2127 H2130 0.984 . S
N2127 H2131 0.985 . S
H2128 N2123 0.984 . S
H2129 N2123 0.985 . S
H2130 N2127 0.984 . S
H2131 N2127 0.985 . S
H2132 N2126 0.984 . S
H2133 N2126 0.984 . S
H2134 N2122 0.984 . S
H2135 N2122 0.985 . S
C2136 C2137 1.363 . S
C2136 C2142 1.379 . S
C2136 N2144 1.356 . S
C2137 C2136 1.363 . S
C2137 C2143 1.363 . S
C2138 C2139 1.363 . S
C2138 C2143 1.379 . S
C2138 N2145 1.356 . S
C2139 C2138 1.363 . S
C2139 C2142 1.363 . S
N2140 C2142 1.356 . S
N2140 H2152 0.984 . S
N2140 H2153 0.985 . S
N2141 C2143 1.356 . S
N2141 H2146 0.984 . S
N2141 H2147 0.985 . S
C2142 C2136 1.379 . S
C2142 C2139 1.363 . S
C2142 N2140 1.356 . S
C2143 C2137 1.363 . S
C2143 C2138 1.379 . S
C2143 N2141 1.356 . S
N2144 C2136 1.356 . S
N2144 H2150 0.984 . S
N2144 H2151 0.984 . S
N2145 C2138 1.356 . S
N2145 H2148 0.984 . S
N2145 H2149 0.985 . S
H2146 N2141 0.984 . S
H2147 N2141 0.985 . S
H2148 N2145 0.984 . S
H2149 N2145 0.985 . S
H2150 N2144 0.984 . S
H2151 N2144 0.984 . S
H2152 N2140 0.984 . S
H2153 N2140 0.985 . S
C2154 C2155 1.363 . S
C2154 C2160 1.379 . S
C2154 N2162 1.356 . S
C2155 C2154 1.363 . S
C2155 C2161 1.363 . S
C2156 C2157 1.363 . S
C2156 C2161 1.379 . S
C2156 N2163 1.356 . S
C2157 C2156 1.363 . S
C2157 C2160 1.363 . S
N2158 C2160 1.356 . S
N2158 H2170 0.984 . S
N2158 H2171 0.985 . S
N2159 C2161 1.356 . S
N2159 H2164 0.984 . S
N2159 H2165 0.985 . S
C2160 C2154 1.379 . S
C2160 C2157 1.363 . S
C2160 N2158 1.356 . S
C2161 C2155 1.363 . S
C2161 C2156 1.379 . S
C2161 N2159 1.356 . S
N2162 C2154 1.356 . S
N2162 H2168 0.984 . S
N2162 H2169 0.984 . S
N2163 C2156 1.356 . S
N2163 H2166 0.984 . S
N2163 H2167 0.985 . S
H2164 N2159 0.984 . S
H2165 N2159 0.985 . S
H2166 N2163 0.984 . S
H2167 N2163 0.985 . S
H2168 N2162 0.984 . S
H2169 N2162 0.984 . S
H2170 N2158 0.984 . S
H2171 N2158 0.985 . S
C2172 C2173 1.363 . S
C2172 C2178 1.379 . S
C2172 N2180 1.356 . S
C2173 C2172 1.363 . S
C2173 C2179 1.363 . S
C2174 C2175 1.363 . S
C2174 C2179 1.379 . S
C2174 N2181 1.356 . S
C2175 C2174 1.363 . S
C2175 C2178 1.363 . S
N2176 C2178 1.356 . S
N2176 H2188 0.984 . S
N2176 H2189 0.985 . S
N2177 C2179 1.356 . S
N2177 H2182 0.984 . S
N2177 H2183 0.985 . S
C2178 C2172 1.379 . S
C2178 C2175 1.363 . S
C2178 N2176 1.356 . S
C2179 C2173 1.363 . S
C2179 C2174 1.379 . S
C2179 N2177 1.356 . S
N2180 C2172 1.356 . S
N2180 H2186 0.984 . S
N2180 H2187 0.984 . S
N2181 C2174 1.356 . S
N2181 H2184 0.984 . S
N2181 H2185 0.985 . S
H2182 N2177 0.984 . S
H2183 N2177 0.985 . S
H2184 N2181 0.984 . S
H2185 N2181 0.985 . S
H2186 N2180 0.984 . S
H2187 N2180 0.984 . S
H2188 N2176 0.984 . S
H2189 N2176 0.985 . S
C2190 C2191 1.363 . S
C2190 C2196 1.379 . S
C2190 N2198 1.356 . S
C2191 C2190 1.363 . S
C2191 C2197 1.363 . S
C2192 C2193 1.363 . S
C2192 C2197 1.379 . S
C2192 N2199 1.356 . S
C2193 C2192 1.363 . S
C2193 C2196 1.363 . S
N2194 C2196 1.356 . S
N2194 H2206 0.984 . S
N2194 H2207 0.985 . S
N2195 C2197 1.356 . S
N2195 H2200 0.984 . S
N2195 H2201 0.985 . S
C2196 C2190 1.379 . S
C2196 C2193 1.363 . S
C2196 N2194 1.356 . S
C2197 C2191 1.363 . S
C2197 C2192 1.379 . S
C2197 N2195 1.356 . S
N2198 C2190 1.356 . S
N2198 H2204 0.984 . S
N2198 H2205 0.984 . S
N2199 C2192 1.356 . S
N2199 H2202 0.984 . S
N2199 H2203 0.985 . S
H2200 N2195 0.984 . S
H2201 N2195 0.985 . S
H2202 N2199 0.984 . S
H2203 N2199 0.985 . S
H2204 N2198 0.984 . S
H2205 N2198 0.984 . S
H2206 N2194 0.984 . S
H2207 N2194 0.985 . S
C2208 C2209 1.363 . S
C2208 C2214 1.379 . S
C2208 N2216 1.356 . S
C2209 C2208 1.363 . S
C2209 C2215 1.363 . S
C2210 C2211 1.363 . S
C2210 C2215 1.379 . S
C2210 N2217 1.356 . S
C2211 C2210 1.363 . S
C2211 C2214 1.363 . S
N2212 C2214 1.356 . S
N2212 H2224 0.984 . S
N2212 H2225 0.985 . S
N2213 C2215 1.356 . S
N2213 H2218 0.984 . S
N2213 H2219 0.985 . S
C2214 C2208 1.379 . S
C2214 C2211 1.363 . S
C2214 N2212 1.356 . S
C2215 C2209 1.363 . S
C2215 C2210 1.379 . S
C2215 N2213 1.356 . S
N2216 C2208 1.356 . S
N2216 H2222 0.984 . S
N2216 H2223 0.984 . S
N2217 C2210 1.356 . S
N2217 H2220 0.984 . S
N2217 H2221 0.985 . S
H2218 N2213 0.984 . S
H2219 N2213 0.985 . S
H2220 N2217 0.984 . S
H2221 N2217 0.985 . S
H2222 N2216 0.984 . S
H2223 N2216 0.984 . S
H2224 N2212 0.984 . S
H2225 N2212 0.985 . S
C2226 C2227 1.363 . S
C2226 C2232 1.379 . S
C2226 N2234 1.356 . S
C2227 C2226 1.363 . S
C2227 C2233 1.363 . S
C2228 C2229 1.363 . S
C2228 C2233 1.379 . S
C2228 N2235 1.356 . S
C2229 C2228 1.363 . S
C2229 C2232 1.363 . S
N2230 C2232 1.356 . S
N2230 H2242 0.984 . S
N2230 H2243 0.985 . S
N2231 C2233 1.356 . S
N2231 H2236 0.984 . S
N2231 H2237 0.985 . S
C2232 C2226 1.379 . S
C2232 C2229 1.363 . S
C2232 N2230 1.356 . S
C2233 C2227 1.363 . S
C2233 C2228 1.379 . S
C2233 N2231 1.356 . S
N2234 C2226 1.356 . S
N2234 H2240 0.984 . S
N2234 H2241 0.984 . S
N2235 C2228 1.356 . S
N2235 H2238 0.984 . S
N2235 H2239 0.985 . S
H2236 N2231 0.984 . S
H2237 N2231 0.985 . S
H2238 N2235 0.984 . S
H2239 N2235 0.985 . S
H2240 N2234 0.984 . S
H2241 N2234 0.984 . S
H2242 N2230 0.984 . S
H2243 N2230 0.985 . S
C2244 C2245 1.363 . S
C2244 C2250 1.379 . S
C2244 N2252 1.356 . S
C2245 C2244 1.363 . S
C2245 C2251 1.363 . S
C2246 C2247 1.363 . S
C2246 C2251 1.379 . S
C2246 N2253 1.356 . S
C2247 C2246 1.363 . S
C2247 C2250 1.363 . S
N2248 C2250 1.356 . S
N2248 H2260 0.984 . S
N2248 H2261 0.985 . S
N2249 C2251 1.356 . S
N2249 H2254 0.984 . S
N2249 H2255 0.985 . S
C2250 C2244 1.379 . S
C2250 C2247 1.363 . S
C2250 N2248 1.356 . S
C2251 C2245 1.363 . S
C2251 C2246 1.379 . S
C2251 N2249 1.356 . S
N2252 C2244 1.356 . S
N2252 H2258 0.984 . S
N2252 H2259 0.984 . S
N2253 C2246 1.356 . S
N2253 H2256 0.984 . S
N2253 H2257 0.985 . S
H2254 N2249 0.984 . S
H2255 N2249 0.985 . S
H2256 N2253 0.984 . S
H2257 N2253 0.985 . S
H2258 N2252 0.984 . S
H2259 N2252 0.984 . S
H2260 N2248 0.984 . S
H2261 N2248 0.985 . S
C2262 C2263 1.363 . S
C2262 C2268 1.379 . S
C2262 N2270 1.356 . S
C2263 C2262 1.363 . S
C2263 C2269 1.363 . S
C2264 C2265 1.363 . S
C2264 C2269 1.379 . S
C2264 N2271 1.356 . S
C2265 C2264 1.363 . S
C2265 C2268 1.363 . S
N2266 C2268 1.356 . S
N2266 H2278 0.984 . S
N2266 H2279 0.985 . S
N2267 C2269 1.356 . S
N2267 H2272 0.984 . S
N2267 H2273 0.985 . S
C2268 C2262 1.379 . S
C2268 C2265 1.363 . S
C2268 N2266 1.356 . S
C2269 C2263 1.363 . S
C2269 C2264 1.379 . S
C2269 N2267 1.356 . S
N2270 C2262 1.356 . S
N2270 H2276 0.984 . S
N2270 H2277 0.984 . S
N2271 C2264 1.356 . S
N2271 H2274 0.984 . S
N2271 H2275 0.985 . S
H2272 N2267 0.984 . S
H2273 N2267 0.985 . S
H2274 N2271 0.984 . S
H2275 N2271 0.985 . S
H2276 N2270 0.984 . S
H2277 N2270 0.984 . S
H2278 N2266 0.984 . S
H2279 N2266 0.985 . S
C1417 C890 1.433 . S
C1419 C3 1.431 . S
C1435 C711 1.434 . S
C1437 C64 1.437 . S
C1453 C770 1.437 . S
C1455 C121 1.437 . S
C1471 C831 1.437 . S
C1473 C180 1.434 . S
C1489 C829 1.439 . S
C1491 C62 1.439 . S
C1507 C123 1.439 . S
C1509 C888 1.437 . S
C1525 C713 1.430 . S
C1527 C182 1.430 . S
C1543 C772 1.433 . S
C1545 C5 1.433 . S
C1561 C1067 1.429 . S
C1563 C241 1.429 . S
C1579 C298 1.442 . S
C1581 C1124 1.442 . S
C1597 C359 1.428 . S
C1599 C949 1.428 . S
C1615 C1006 1.441 . S
C1617 C416 1.441 . S
C1633 C1301 1.442 . S
C1635 C475 1.442 . S
C1651 C536 1.429 . S
C1653 C1362 1.429 . S
C1669 C593 1.441 . S
C1671 C1183 1.441 . S
C1687 C654 1.428 . S
C1689 C1244 1.428 . S
C1705 C1008 1.435 . S
C1707 C652 1.432 . S
C1723 C1360 1.435 . S
C1725 C300 1.437 . S
C1741 C357 1.435 . S
C1743 C1185 1.438 . S
C1759 C1242 1.434 . S
C1761 C418 1.437 . S
C1777 C1303 1.436 . S
C1779 C239 1.433 . S
C1795 C534 1.435 . S
C1797 C1126 1.437 . S
C1813 C947 1.431 . S
C1815 C595 1.434 . S
C1831 C1065 1.436 . S
C1833 C477 1.438 . S
C1849 C33 1.168 . S
C1851 C269 1.168 . S
C1867 C347 1.179 . S
C1869 C111 1.180 . S
C1885 C151 1.171 . S
C1887 C387 1.171 . S
C1903 C210 1.171 . S
C1905 C465 1.177 . S
C1921 C524 1.180 . S
C1923 C92 1.173 . S
C1939 C564 1.171 . S
C1941 C170 1.177 . S
C1957 C642 1.176 . S
C1959 C229 1.176 . S
C1975 C52 1.174 . S
C1977 C682 1.168 . S
C1993 C701 1.173 . S
C1995 C288 1.173 . S
C2011 C328 1.175 . S
C2013 C505 1.174 . S
C2029 C406 1.173 . S
C2031 C583 1.173 . S
C2047 C623 1.174 . S
C2049 C446 1.174 . S
C2065 C977 1.167 . S
C2067 C760 1.174 . S
C2083 C1055 1.178 . S
C2085 C819 1.178 . S
C2101 C859 1.171 . S
C2103 C1095 1.171 . S
C2119 C918 1.172 . S
C2121 C1173 1.178 . S
C2137 C800 1.172 . S
C2139 C1232 1.179 . S
C2155 C878 1.177 . S
C2157 C1272 1.171 . S
C2173 C1350 1.178 . S
C2175 C937 1.178 . S
C2191 C741 1.168 . S
C2193 C1390 1.169 . S
C2209 C996 1.173 . S
C2211 C1409 1.173 . S
C2227 C1213 1.174 . S
C2229 C1036 1.174 . S
C2245 C1114 1.173 . S
C2247 C1291 1.173 . S
C2263 C1331 1.175 . S
C2265 C1154 1.174 . S
