# Generated by pormake.
# Topology uog, (4)-cn, num edge types: 1
# Building blocks:
#     Node 0, Type 0, BuildingBlock: KOZSID_clean_sbu_0, # of connection points: 4
#     Node 1, Type 0, BuildingBlock: KOZSID_clean_sbu_0, # of connection points: 4
#     Node 2, Type 0, BuildingBlock: KOZSID_clean_sbu_0, # of connection points: 4
#     Node 3, Type 0, BuildingBlock: KOZSID_clean_sbu_0, # of connection points: 4
#     Node 4, Type 0, BuildingBlock: KOZSID_clean_sbu_0, # of connection points: 4
#     Node 5, Type 0, BuildingBlock: KOZSID_clean_sbu_0, # of connection points: 4
#     Edge 6, Type (0, 0), BuildingBlock: FUNLAD_clean_linker_0, # of connection points: 2
#     Edge 7, Type (0, 0), BuildingBlock: FUNLAD_clean_linker_0, # of connection points: 2
#     Edge 8, Type (0, 0), BuildingBlock: FUNLAD_clean_linker_0, # of connection points: 2
#     Edge 9, Type (0, 0), BuildingBlock: FUNLAD_clean_linker_0, # of connection points: 2
#     Edge 10, Type (0, 0), BuildingBlock: FUNLAD_clean_linker_0, # of connection points: 2
#     Edge 11, Type (0, 0), BuildingBlock: FUNLAD_clean_linker_0, # of connection points: 2
#     Edge 12, Type (0, 0), BuildingBlock: FUNLAD_clean_linker_0, # of connection points: 2
#     Edge 13, Type (0, 0), BuildingBlock: FUNLAD_clean_linker_0, # of connection points: 2
#     Edge 14, Type (0, 0), BuildingBlock: FUNLAD_clean_linker_0, # of connection points: 2
#     Edge 15, Type (0, 0), BuildingBlock: FUNLAD_clean_linker_0, # of connection points: 2
#     Edge 16, Type (0, 0), BuildingBlock: FUNLAD_clean_linker_0, # of connection points: 2
#     Edge 17, Type (0, 0), BuildingBlock: FUNLAD_clean_linker_0, # of connection points: 2
# Relax obj value: 0.022
# Max RMSD: 0.253
# Mean RMSD: 0.253
data_MOF--net-uog--node1-KOZSID_clean_sbu_0--edge1-FUNLAD_clean_linker_0
_symmetry_space_group_name_H-M    P1
_symmetry_Int_Tables_number       1
_symmetry_cell_setting            triclinic
loop_
_symmetry_equiv_pos_as_xyz
'x, y, z'
_cell_length_a     43.016083
_cell_length_b     43.1867
_cell_length_c     53.381505
_cell_angle_alpha  90.050838
_cell_angle_beta   90.049494
_cell_angle_gamma 119.99181
loop_
_atom_site_label
_atom_site_type_symbol
_atom_site_fract_x
_atom_site_fract_y
_atom_site_fract_z
_atom_type_partial_charge
C0 C 0.56205 0.29656 0.22613 0.0
C1 C 0.5296 0.29017 0.23606 0.0
C2 C 0.50657 0.28259 0.21625 0.0
C3 C 0.52615 0.28482 0.19535 0.0
N4 N 0.5599 0.29246 0.2007 0.0
Co5 Co 0.59797 0.30281 0.17517 0.0
N6 N 0.56294 0.28414 0.14685 0.0
C7 C 0.52882 0.27725 0.14771 0.0
C8 C 0.51098 0.26461 0.12536 0.0
C9 C 0.53549 0.26362 0.10938 0.0
C10 C 0.56698 0.2757 0.12292 0.0
N11 N 0.63645 0.31431 0.14989 0.0
C12 C 0.63425 0.30363 0.12575 0.0
C13 C 0.66814 0.31742 0.11514 0.0
C14 C 0.69234 0.33767 0.13311 0.0
C15 C 0.67209 0.33496 0.15365 0.0
N16 N 0.63357 0.32091 0.20328 0.0
C17 C 0.6696 0.33833 0.20101 0.0
C18 C 0.6875 0.34589 0.2234 0.0
C19 C 0.66126 0.3332 0.24115 0.0
C20 C 0.62872 0.31908 0.22847 0.0
N21 N 0.59067 0.25375 0.17946 0.0
C22 C 0.57662 0.18183 0.18099 0.0
C23 C 0.61199 0.21119 0.18024 0.0
C24 C 0.61841 0.24671 0.17958 0.0
C25 C 0.54881 0.18987 0.18135 0.0
C26 C 0.55629 0.22542 0.18061 0.0
N27 N 0.603 0.35093 0.17051 0.0
C28 C 0.59504 0.39821 0.18838 0.0
C29 C 0.58784 0.40758 0.16476 0.0
C30 C 0.59189 0.38992 0.1439 0.0
C31 C 0.59983 0.36219 0.14714 0.0
C32 C 0.60283 0.37036 0.19078 0.0
H33 H 0.60144 0.34862 0.13065 0.0
H34 H 0.60658 0.36337 0.20933 0.0
H35 H 0.64579 0.26837 0.1788 0.0
H36 H 0.53374 0.22964 0.18029 0.0
C37 C 0.51361 0.27885 0.17054 0.0
C38 C 0.59522 0.31074 0.24111 0.0
C39 C 0.60087 0.28139 0.112 0.0
C40 C 0.68577 0.34537 0.17764 0.0
H41 H 0.52365 0.29212 0.2555 0.0
H42 H 0.47901 0.27673 0.217 0.0
H43 H 0.48322 0.25625 0.12131 0.0
H44 H 0.5309 0.25532 0.08995 0.0
H45 H 0.67487 0.31295 0.09647 0.0
H46 H 0.72131 0.35106 0.1318 0.0
H47 H 0.7162 0.35918 0.22646 0.0
H48 H 0.66564 0.33575 0.2612 0.0
H49 H 0.63471 0.20689 0.18021 0.0
H50 H 0.521 0.16876 0.18142 0.0
H51 H 0.5928 0.41089 0.20524 0.0
H52 H 0.58814 0.39682 0.12508 0.0
C53 C 0.28479 0.55282 0.5592 0.0
C54 C 0.25949 0.52084 0.56998 0.0
C55 C 0.24255 0.49728 0.55069 0.0
C56 C 0.25838 0.51606 0.52922 0.0
N57 N 0.28479 0.54981 0.53376 0.0
Co58 Co 0.31095 0.58669 0.50749 0.0
N59 N 0.29404 0.5507 0.47991 0.0
C60 C 0.26694 0.51675 0.48147 0.0
C61 C 0.26141 0.49811 0.45947 0.0
C62 C 0.28656 0.52193 0.44301 0.0
C63 C 0.30608 0.55386 0.45591 0.0
N64 N 0.33617 0.62396 0.4814 0.0
C65 C 0.34407 0.62096 0.4573 0.0
C66 C 0.36121 0.65414 0.44554 0.0
C67 C 0.36426 0.67869 0.4629 0.0
C68 C 0.34886 0.6593 0.48414 0.0
N69 N 0.32902 0.62335 0.53475 0.0
C70 C 0.34483 0.65902 0.53154 0.0
C71 C 0.35482 0.67807 0.55344 0.0
C72 C 0.34405 0.65295 0.57183 0.0
C73 C 0.32774 0.61972 0.56004 0.0
N74 N 0.35345 0.58033 0.51138 0.0
C75 C 0.41215 0.56724 0.51299 0.0
C76 C 0.41762 0.60229 0.51146 0.0
C77 C 0.38807 0.60825 0.51078 0.0
C78 C 0.37643 0.53929 0.51397 0.0
C79 C 0.34796 0.5463 0.51318 0.0
N80 N 0.26707 0.59082 0.50344 0.0
C81 C 0.21389 0.58657 0.52254 0.0
C82 C 0.1955 0.57735 0.49959 0.0
C83 C 0.21485 0.57773 0.47828 0.0
C84 C 0.25064 0.58527 0.48052 0.0
C85 C 0.24929 0.59305 0.52407 0.0
H86 H 0.26435 0.58489 0.46372 0.0
H87 H 0.26135 0.59803 0.54232 0.0
H88 H 0.39324 0.63536 0.50944 0.0
H89 H 0.32127 0.52363 0.51341 0.0
C90 C 0.25085 0.5025 0.50467 0.0
C91 C 0.30583 0.58611 0.5736 0.0
C92 C 0.33421 0.58729 0.44448 0.0
C93 C 0.35188 0.67396 0.50776 0.0
H94 H 0.25329 0.51547 0.5897 0.0
H95 H 0.22118 0.46976 0.55217 0.0
H96 H 0.24212 0.47026 0.45598 0.0
H97 H 0.29002 0.51654 0.42372 0.0
H98 H 0.37064 0.66015 0.42641 0.0
H99 H 0.37758 0.70741 0.46061 0.0
H100 H 0.36813 0.7068 0.55576 0.0
H101 H 0.34636 0.65861 0.5917 0.0
H102 H 0.44454 0.62509 0.51088 0.0
H103 H 0.37014 0.5117 0.51462 0.0
H104 H 0.20044 0.58705 0.53955 0.0
H105 H 0.20227 0.5718 0.45998 0.0
C106 C 0.75137 0.27577 0.89292 0.0
C107 C 0.75884 0.25122 0.90407 0.0
C108 C 0.76585 0.23419 0.88503 0.0
C109 C 0.76229 0.24918 0.86332 0.0
N110 N 0.75423 0.27517 0.86752 0.0
Co111 Co 0.74213 0.29974 0.84088 0.0
N112 N 0.76228 0.28347 0.81366 0.0
C113 C 0.77036 0.25727 0.81548 0.0
C114 C 0.78537 0.25323 0.79384 0.0
C115 C 0.78673 0.27851 0.77746 0.0
C116 C 0.7724 0.29657 0.79002 0.0
N117 N 0.72837 0.32297 0.81444 0.0
C118 C 0.7394 0.33074 0.79043 0.0
C119 C 0.72127 0.34518 0.77788 0.0
C120 C 0.69848 0.347 0.79484 0.0
C121 C 0.7038 0.33341 0.81659 0.0
N122 N 0.72273 0.31757 0.86769 0.0
C123 C 0.7014 0.3318 0.8641 0.0
C124 C 0.69214 0.34208 0.88578 0.0
C125 C 0.7079 0.33313 0.9044 0.0
C126 C 0.72577 0.31748 0.89298 0.0
N127 N 0.79041 0.34304 0.84435 0.0
C128 C 0.8617 0.40238 0.84573 0.0
C129 C 0.83162 0.40714 0.84325 0.0
C130 C 0.79632 0.37724 0.84273 0.0
C131 C 0.85471 0.36712 0.84763 0.0
C132 C 0.8195 0.33835 0.8469 0.0
N133 N 0.69485 0.25501 0.83737 0.0
C134 C 0.64756 0.20236 0.85771 0.0
C135 C 0.63909 0.18226 0.83547 0.0
C136 C 0.65708 0.20088 0.81363 0.0
C137 C 0.68433 0.23716 0.81493 0.0
C138 C 0.6752 0.23817 0.85827 0.0
H139 H 0.69821 0.25006 0.79788 0.0
H140 H 0.68173 0.25137 0.87614 0.0
H141 H 0.77391 0.38174 0.84071 0.0
H142 H 0.8162 0.31205 0.84778 0.0
C143 C 0.7688 0.2416 0.83885 0.0
C144 C 0.73865 0.29677 0.90695 0.0
C145 C 0.76659 0.32453 0.77888 0.0
C146 C 0.69203 0.33684 0.84011 0.0
H147 H 0.75836 0.24562 0.92387 0.0
H148 H 0.77273 0.21337 0.88685 0.0
H149 H 0.79548 0.2351 0.79066 0.0
H150 H 0.79701 0.28311 0.75852 0.0
H151 H 0.7245 0.35396 0.75859 0.0
H152 H 0.68152 0.3586 0.792 0.0
H153 H 0.67559 0.35428 0.88783 0.0
H154 H 0.70472 0.33599 0.92422 0.0
H155 H 0.83522 0.43373 0.84184 0.0
H156 H 0.87645 0.36139 0.84895 0.0
H157 H 0.63365 0.19035 0.87501 0.0
H158 H 0.65152 0.18726 0.79577 0.0
C159 C 0.49338 0.73935 0.22649 0.0
C160 C 0.52583 0.74724 0.23737 0.0
C161 C 0.5496 0.75428 0.21819 0.0
C162 C 0.53054 0.75048 0.19666 0.0
N163 N 0.4964 0.74232 0.20105 0.0
Co164 Co 0.45929 0.73066 0.17461 0.0
N165 N 0.4954 0.74964 0.14706 0.0
C166 C 0.52966 0.75717 0.1488 0.0
C167 C 0.54836 0.77024 0.12683 0.0
C168 C 0.52427 0.77087 0.11019 0.0
C169 C 0.49213 0.7581 0.12296 0.0
N170 N 0.42185 0.71771 0.14832 0.0
C171 C 0.42478 0.72822 0.12413 0.0
C172 C 0.3915 0.71173 0.11227 0.0
C173 C 0.36692 0.69039 0.12966 0.0
C174 C 0.38642 0.69492 0.15102 0.0
N175 N 0.42247 0.71223 0.20185 0.0
C176 C 0.38666 0.69223 0.19848 0.0
C177 C 0.36742 0.68292 0.22024 0.0
C178 C 0.39249 0.69714 0.23876 0.0
C179 C 0.426 0.71439 0.2272 0.0
N180 N 0.46515 0.77925 0.17798 0.0
C181 C 0.47773 0.85064 0.17915 0.0
C182 C 0.44262 0.82085 0.17788 0.0
C183 C 0.43693 0.78554 0.17729 0.0
C184 C 0.50594 0.84327 0.18044 0.0
C185 C 0.4992 0.80802 0.17978 0.0
N186 N 0.4558 0.68298 0.17115 0.0
C187 C 0.46226 0.63637 0.19154 0.0
C188 C 0.4731 0.62745 0.16915 0.0
C189 C 0.47129 0.64467 0.14725 0.0
C190 C 0.46219 0.67188 0.14862 0.0
C191 C 0.45371 0.66375 0.19212 0.0
H192 H 0.46244 0.68529 0.13152 0.0
H193 H 0.44746 0.67047 0.21003 0.0
H194 H 0.40979 0.76343 0.17591 0.0
H195 H 0.5221 0.80437 0.18035 0.0
C196 C 0.54414 0.75623 0.17214 0.0
C197 C 0.45971 0.72563 0.24087 0.0
C198 C 0.45849 0.75232 0.1114 0.0
C199 C 0.37175 0.68381 0.17465 0.0
H200 H 0.53136 0.74679 0.25711 0.0
H201 H 0.57741 0.76114 0.21977 0.0
H202 H 0.57644 0.77934 0.1235 0.0
H203 H 0.52963 0.77957 0.09088 0.0
H204 H 0.38544 0.71483 0.09307 0.0
H205 H 0.33809 0.67479 0.12734 0.0
H206 H 0.33857 0.66717 0.22241 0.0
H207 H 0.38636 0.6932 0.2585 0.0
H208 H 0.41964 0.82468 0.17678 0.0
H209 H 0.5335 0.86469 0.18211 0.0
H210 H 0.46138 0.62303 0.20891 0.0
H211 H 0.47865 0.63861 0.12928 0.0
C212 C 0.77494 0.47977 0.55876 0.0
C213 C 0.80081 0.51133 0.56974 0.0
C214 C 0.81594 0.5359 0.55084 0.0
C215 C 0.79861 0.51804 0.52937 0.0
N216 N 0.77277 0.48394 0.53357 0.0
Co217 Co 0.74582 0.44794 0.50672 0.0
N218 N 0.76183 0.48484 0.47982 0.0
C219 C 0.78805 0.51912 0.48196 0.0
C220 C 0.79217 0.53866 0.46066 0.0
C221 C 0.76699 0.51513 0.44403 0.0
C222 C 0.74896 0.48239 0.45609 0.0
N223 N 0.72031 0.41142 0.48012 0.0
C224 C 0.71314 0.41516 0.45598 0.0
C225 C 0.69711 0.38251 0.44347 0.0
C226 C 0.6933 0.35737 0.46053 0.0
C227 C 0.7075 0.37599 0.48229 0.0
N228 N 0.72802 0.41048 0.53344 0.0
C229 C 0.71019 0.37482 0.52975 0.0
C230 C 0.69956 0.35532 0.55143 0.0
C231 C 0.71214 0.38011 0.57019 0.0
C232 C 0.7303 0.41347 0.5588 0.0
N233 N 0.70327 0.45408 0.51164 0.0
C234 C 0.6448 0.46758 0.513 0.0
C235 C 0.63918 0.43261 0.51013 0.0
C236 C 0.66862 0.42647 0.50952 0.0
C237 C 0.68043 0.49507 0.51602 0.0
C238 C 0.70879 0.4879 0.51523 0.0
N239 N 0.78974 0.44411 0.50141 0.0
C240 C 0.84228 0.44593 0.51973 0.0
C241 C 0.8615 0.45817 0.49728 0.0
C242 C 0.84288 0.46045 0.47638 0.0
C243 C 0.80695 0.4525 0.47868 0.0
C244 C 0.80683 0.4392 0.52136 0.0
H245 H 0.79378 0.45475 0.46217 0.0
H246 H 0.79406 0.43172 0.53921 0.0
H247 H 0.66331 0.39949 0.50678 0.0
H248 H 0.73541 0.51037 0.51692 0.0
C249 C 0.80473 0.53259 0.50516 0.0
C250 C 0.75568 0.44575 0.57256 0.0
C251 C 0.72139 0.44897 0.44414 0.0
C252 C 0.7032 0.3605 0.50573 0.0
H253 H 0.80861 0.51574 0.58928 0.0
H254 H 0.83734 0.56338 0.55253 0.0
H255 H 0.8105 0.56689 0.45779 0.0
H256 H 0.76254 0.52134 0.4252 0.0
H257 H 0.68864 0.3772 0.42409 0.0
H258 H 0.68023 0.32875 0.45769 0.0
H259 H 0.685 0.32652 0.55338 0.0
H260 H 0.71029 0.37424 0.59002 0.0
H261 H 0.61232 0.41016 0.5077 0.0
H262 H 0.68674 0.52241 0.519 0.0
H263 H 0.8551 0.44321 0.5364 0.0
H264 H 0.85609 0.46868 0.45837 0.0
C265 C 0.30859 0.76106 0.89203 0.0
C266 C 0.30136 0.7861 0.90267 0.0
C267 C 0.294 0.80232 0.88332 0.0
C268 C 0.29697 0.78629 0.86196 0.0
N269 N 0.30491 0.76032 0.86661 0.0
Co270 Co 0.31497 0.73348 0.84039 0.0
N271 N 0.295 0.74963 0.81288 0.0
C272 C 0.28804 0.77666 0.81433 0.0
C273 C 0.27423 0.7816 0.79244 0.0
C274 C 0.27253 0.75612 0.77615 0.0
C275 C 0.28537 0.73698 0.78906 0.0
N276 N 0.3262 0.70746 0.81429 0.0
C277 C 0.31411 0.69849 0.79046 0.0
C278 C 0.32838 0.67942 0.779 0.0
C279 C 0.35049 0.67677 0.7961 0.0
C280 C 0.3483 0.69401 0.81698 0.0
N281 N 0.33455 0.71629 0.86765 0.0
C282 C 0.35431 0.7003 0.86426 0.0
C283 C 0.36502 0.69179 0.88602 0.0
C284 C 0.35194 0.70373 0.90455 0.0
C285 C 0.33384 0.71907 0.893 0.0
N286 N 0.26614 0.69134 0.84499 0.0
C287 C 0.19414 0.63327 0.84625 0.0
C288 C 0.22366 0.62749 0.84494 0.0
C289 C 0.25929 0.65676 0.84433 0.0
C290 C 0.20209 0.6689 0.84776 0.0
C291 C 0.23765 0.69705 0.84705 0.0
N292 N 0.36284 0.77698 0.83554 0.0
C293 C 0.4111 0.83139 0.85365 0.0
C294 C 0.4198 0.84873 0.83031 0.0
C295 C 0.40119 0.82781 0.80932 0.0
C296 C 0.37336 0.79212 0.81229 0.0
C297 C 0.38296 0.7959 0.85583 0.0
H298 H 0.35903 0.77753 0.79579 0.0
H299 H 0.37651 0.78466 0.8743 0.0
H300 H 0.28118 0.65139 0.84282 0.0
H301 H 0.24173 0.72367 0.8476 0.0
C302 C 0.29028 0.79316 0.83742 0.0
C303 C 0.32245 0.7414 0.90654 0.0
C304 C 0.29049 0.70875 0.7777 0.0
C305 C 0.36084 0.69192 0.84047 0.0
H306 H 0.3024 0.79271 0.92232 0.0
H307 H 0.28738 0.82337 0.8847 0.0
H308 H 0.26545 0.80071 0.78893 0.0
H309 H 0.26317 0.75218 0.75696 0.0
H310 H 0.32318 0.6682 0.76032 0.0
H311 H 0.3649 0.66234 0.79399 0.0
H312 H 0.38084 0.6788 0.88817 0.0
H313 H 0.35705 0.70272 0.92426 0.0
H314 H 0.21937 0.60061 0.84373 0.0
H315 H 0.18088 0.67533 0.84951 0.0
H316 H 0.42534 0.84533 0.87046 0.0
H317 H 0.40672 0.83924 0.79072 0.0
C318 C 0.53786 0.11603 0.19325 0.0
C319 C 0.56824 0.14322 0.18073 0.0
C320 C 0.52886 0.07984 0.19197 0.0
C321 C 0.54996 0.06931 0.17809 0.0
C322 C 0.58063 0.09656 0.16598 0.0
C323 C 0.58959 0.13271 0.16723 0.0
C324 C 0.54185 0.03089 0.17594 0.0
C325 C 0.51117 1.00124 0.18364 0.0
C326 C 0.50315 0.96282 0.18149 0.0
C327 C 0.47144 0.93519 0.19235 0.0
C328 C 0.46279 0.89909 0.19125 0.0
C329 C 0.48559 0.88908 0.17923 0.0
H330 H 0.54995 0.9723 0.15984 0.0
C331 C 0.51695 0.91663 0.16787 0.0
C332 C 0.52561 0.9527 0.16898 0.0
H333 H 0.535 0.91037 0.15786 0.0
H334 H 0.52094 0.12267 0.20433 0.0
H335 H 0.50548 0.06045 0.20214 0.0
H336 H 0.59775 0.08983 0.15518 0.0
H337 H 0.61292 0.15232 0.15704 0.0
H338 H 0.5626 0.02732 0.16725 0.0
H339 H 0.49034 1.00486 0.19214 0.0
H340 H 0.45324 0.94158 0.20205 0.0
H341 H 0.43855 0.87914 0.20041 0.0
C342 C 0.44021 0.52971 0.52622 0.0
C343 C 0.44273 0.5592 0.51293 0.0
C344 C 0.46757 0.52079 0.52508 0.0
C345 C 0.49868 0.54106 0.51054 0.0
C346 C 0.50152 0.57094 0.49771 0.0
C347 C 0.47414 0.57983 0.49882 0.0
C348 C 0.5291 0.53291 0.50855 0.0
C349 C 0.52799 0.5023 0.51637 0.0
C350 C 0.55838 0.49405 0.51446 0.0
C351 C 0.55315 0.46125 0.52394 0.0
C352 C 0.58055 0.45234 0.52313 0.0
C353 C 0.61445 0.47597 0.51283 0.0
H354 H 0.59791 0.54281 0.49588 0.0
C355 C 0.61948 0.50852 0.50291 0.0
C356 C 0.59212 0.51744 0.50372 0.0
H357 H 0.64472 0.52733 0.49425 0.0
H358 H 0.41704 0.51343 0.53781 0.0
H359 H 0.46413 0.49814 0.53588 0.0
H360 H 0.52501 0.58745 0.48643 0.0
H361 H 0.47734 0.60248 0.48807 0.0
H362 H 0.55339 0.55339 0.49974 0.0
H363 H 0.50332 0.48156 0.52464 0.0
H364 H 0.52769 0.44235 0.53231 0.0
H365 H 0.5753 0.42718 0.53117 0.0
C366 C 0.92693 0.43158 0.86018 0.0
C367 C 0.90015 0.43313 0.84576 0.0
C368 C 0.96323 0.45875 0.85899 0.0
C369 C 0.97428 0.48869 0.84327 0.0
C370 C 0.94738 0.49068 0.82937 0.0
C371 C 0.91106 0.46346 0.83054 0.0
C372 C 1.01294 0.51872 0.84112 0.0
C373 C 0.04231 0.51777 0.84977 0.0
C374 C 0.08107 0.54772 0.84777 0.0
C375 C 0.10837 0.5431 0.85874 0.0
C376 C 0.14477 0.57018 0.85791 0.0
C377 C 0.15538 0.60312 0.84607 0.0
H378 H 0.07242 0.58563 0.82635 0.0
C379 C 0.12816 0.60747 0.83461 0.0
C380 C 0.09178 0.58043 0.83545 0.0
H381 H 0.1349 0.63193 0.82474 0.0
H382 H 0.91988 0.40927 0.87264 0.0
H383 H 0.98229 0.45608 0.87066 0.0
H384 H 0.95454 0.51331 0.81718 0.0
H385 H 0.89169 0.46584 0.81895 0.0
H386 H 1.01693 0.54251 0.83151 0.0
H387 H 0.03817 0.49358 0.85888 0.0
H388 H 0.1015 0.5184 0.86833 0.0
H389 H 0.16448 0.56552 0.86713 0.0
C390 C 0.1314 0.5356 0.48511 0.0
C391 C 0.15635 0.56659 0.49818 0.0
C392 C 0.09451 0.52468 0.48479 0.0
C393 C 0.08154 0.54481 0.49719 0.0
C394 C 0.10663 0.57611 0.50981 0.0
C395 C 0.1433 0.58656 0.5106 0.0
C396 C 0.04258 0.53502 0.49652 0.0
C397 C 1.01456 0.50104 0.4953 0.0
C398 C 0.97557 0.49113 0.49575 0.0
C399 C 0.94996 0.45812 0.5061 0.0
C400 C 0.91325 0.44752 0.50658 0.0
C401 C 0.9007 0.46913 0.49606 0.0
H402 H 0.98172 0.53818 0.47665 0.0
C403 C 0.92618 0.50189 0.48521 0.0
C404 C 0.9631 0.5129 0.48525 0.0
H405 H 0.91762 0.51937 0.47707 0.0
H406 H 0.14034 0.51939 0.47545 0.0
H407 H 0.07633 0.50081 0.47445 0.0
H408 H 0.09776 0.59246 0.51938 0.0
H409 H 0.16158 0.61063 0.52075 0.0
H410 H 0.03686 0.5567 0.49865 0.0
H411 H 1.02023 0.47919 0.49554 0.0
H412 H 0.95844 0.44051 0.51415 0.0
H413 H 0.89456 0.42209 0.515 0.0
C414 C 0.45136 0.91233 0.84772 0.0
C415 C 0.44691 0.88833 0.82818 0.0
C416 C 0.47584 0.94925 0.8457 0.0
C417 C 0.49682 0.96371 0.82397 0.0
C418 C 0.49221 0.93989 0.80438 0.0
C419 C 0.46792 0.90291 0.80647 0.0
C420 C 0.52259 1.0033 0.82064 0.0
C421 C 0.53775 0.0269 0.83982 0.0
C422 C 0.56415 0.06642 0.8372 0.0
C423 C 0.58577 0.08483 0.85791 0.0
C424 C 0.60992 0.12178 0.85712 0.0
C425 C 0.6131 0.14223 0.83566 0.0
H426 H 0.55097 0.0737 0.79919 0.0
C427 C 0.59155 0.12378 0.81474 0.0
C428 C 0.56747 0.08648 0.81547 0.0
H429 H 0.59266 0.13819 0.79788 0.0
H430 H 0.43524 0.90283 0.86453 0.0
H431 H 0.47744 0.9664 0.86101 0.0
H432 H 0.50768 0.94989 0.78732 0.0
H433 H 0.46592 0.88578 0.79101 0.0
H434 H 0.53045 1.01287 0.80161 0.0
H435 H 0.53193 1.01663 0.85882 0.0
H436 H 0.58416 0.07047 0.87495 0.0
H437 H 0.62644 0.13414 0.87347 0.0
C438 C 0.48288 0.57892 0.149 0.0
C439 C 0.48784 0.60204 0.16926 0.0
C440 C 0.49712 0.55563 0.14957 0.0
C441 C 0.51698 0.5548 0.17045 0.0
C442 C 0.52205 0.57813 0.19046 0.0
C443 C 0.50792 0.60123 0.1899 0.0
C444 C 0.53319 0.53076 0.17264 0.0
C445 C 0.5303 0.50601 0.15561 0.0
C446 C 0.54634 0.48188 0.15848 0.0
C447 C 0.53564 0.45303 0.14175 0.0
C448 C 0.54938 0.42958 0.14354 0.0
C449 C 0.57464 0.43408 0.16213 0.0
H450 H 0.58206 0.50889 0.18993 0.0
C451 C 0.58583 0.46329 0.17869 0.0
C452 C 0.57205 0.4868 0.1769 0.0
H453 H 0.60562 0.46834 0.19303 0.0
H454 H 0.46757 0.57842 0.13275 0.0
H455 H 0.49239 0.53848 0.13357 0.0
H456 H 0.53729 0.5787 0.2068 0.0
H457 H 0.5134 0.619 0.20568 0.0
H458 H 0.54791 0.53355 0.18978 0.0
H459 H 0.5147 0.50228 0.13877 0.0
H460 H 0.51608 0.44823 0.12726 0.0
H461 H 0.53941 0.40731 0.1306 0.0
C462 C 0.69309 0.25951 0.9396 0.0
C463 C 0.72711 0.28863 0.93378 0.0
C464 C 0.67701 0.25742 0.96295 0.0
C465 C 0.69463 0.28457 0.98104 0.0
C466 C 0.72953 0.31254 0.97558 0.0
C467 C 0.74557 0.31453 0.9523 0.0
C468 C 0.67678 0.2868 1.00465 0.0
C469 C 0.64709 0.25942 0.01517 0.0
C470 C 0.63051 0.26362 0.03873 0.0
C471 C 0.61555 0.23567 0.05634 0.0
C472 C 0.60288 0.24021 0.07954 0.0
C473 C 0.60388 0.27243 0.08532 0.0
H474 H 0.63989 0.31685 0.03064 0.0
C475 C 0.61619 0.29934 0.06697 0.0
C476 C 0.62958 0.29512 0.04401 0.0
H477 H 0.61775 0.32465 0.07111 0.0
H478 H 0.67787 0.23967 0.92541 0.0
H479 H 0.65 0.23567 0.96606 0.0
H480 H 0.7439 0.33391 0.98898 0.0
H481 H 0.77139 0.33768 0.94811 0.0
H482 H 0.68933 0.31254 0.01412 0.0
H483 H 0.63583 0.23272 1.00739 0.0
H484 H 0.61542 0.21093 0.0527 0.0
H485 H 0.59413 0.21932 0.0935 0.0
C486 C 0.44365 0.72266 0.28671 0.0
C487 C 0.45672 0.71094 0.26686 0.0
C488 C 0.43209 0.70309 0.30913 0.0
C489 C 0.43427 0.67188 0.31247 0.0
C490 C 0.45007 0.6619 0.2934 0.0
C491 C 0.46068 0.68087 0.27072 0.0
C492 C 0.42037 0.64948 0.33563 0.0
C493 C 0.38914 0.64229 0.34665 0.0
C494 C 0.37405 0.62061 0.37008 0.0
C495 C 0.33735 0.60647 0.37544 0.0
C496 C 0.32313 0.59119 0.39885 0.0
C497 C 0.34534 0.58993 0.41763 0.0
H498 H 0.42417 0.6279 0.38521 0.0
C499 C 0.38151 0.60192 0.41184 0.0
C500 C 0.39572 0.61694 0.3883 0.0
H501 H 0.39947 0.6023 0.42623 0.0
H502 H 0.44022 0.74566 0.28424 0.0
H503 H 0.42096 0.71212 0.3237 0.0
H504 H 0.45259 0.63831 0.29556 0.0
H505 H 0.47038 0.671 0.25573 0.0
H506 H 0.43507 0.63693 0.34267 0.0
H507 H 0.37327 0.65248 0.33782 0.0
H508 H 0.31991 0.6089 0.3619 0.0
H509 H 0.29547 0.58319 0.403 0.0
C510 C 0.76743 0.32428 0.73163 0.0
C511 C 0.78163 0.34258 0.75432 0.0
C512 C 0.7712 0.34326 0.70932 0.0
C513 C 0.78888 0.38099 0.70934 0.0
C514 C 0.80488 0.39905 0.73176 0.0
C515 C 0.80156 0.38014 0.75387 0.0
C516 C 0.78771 0.40208 0.68736 0.0
C517 C 0.7859 0.39182 0.66325 0.0
C518 C 0.78301 0.41194 0.64131 0.0
C519 C 0.79753 0.40986 0.61826 0.0
C520 C 0.79147 0.42406 0.59646 0.0
C521 C 0.77001 0.44019 0.59686 0.0
H522 H 0.75111 0.43163 0.65946 0.0
C523 C 0.75659 0.44371 0.62006 0.0
C524 C 0.76326 0.43 0.64213 0.0
H525 H 0.73932 0.45526 0.62088 0.0
H526 H 0.75087 0.29543 0.73154 0.0
H527 H 0.75795 0.32829 0.69258 0.0
H528 H 0.81858 0.42798 0.73248 0.0
H529 H 0.81198 0.39496 0.77117 0.0
H530 H 0.78914 0.42746 0.69128 0.0
H531 H 0.78775 0.36814 0.65918 0.0
H532 H 0.81272 0.39608 0.61693 0.0
H533 H 0.80179 0.42029 0.57899 0.0
C534 C 0.32462 0.72773 0.95234 0.0
C535 C 0.33667 0.75279 0.93271 0.0
C536 C 0.34383 0.73545 0.97497 0.0
C537 C 0.37504 0.76882 0.97875 0.0
C538 C 0.38537 0.79483 0.95988 0.0
C539 C 0.36676 0.78675 0.93698 0.0
C540 C 0.39708 0.77705 1.00217 0.0
C541 C 0.40416 0.753 0.01318 0.0
C542 C 0.42554 0.75934 0.03681 0.0
C543 C 0.43988 0.73703 0.04214 0.0
C544 C 0.45495 0.73789 0.06565 0.0
C545 C 0.4558 0.76091 0.08457 0.0
H546 H 0.41759 0.80147 0.05216 0.0
C547 C 0.44353 0.7848 0.07886 0.0
C548 C 0.42874 0.7842 0.05522 0.0
H549 H 0.44283 0.80202 0.09335 0.0
H550 H 0.30164 0.7013 0.94953 0.0
H551 H 0.33454 0.71511 0.98937 0.0
H552 H 0.40898 0.82091 0.96236 0.0
H553 H 0.37694 0.80648 0.92215 0.0
H554 H 0.4095 0.80413 0.00945 0.0
H555 H 0.39416 0.72716 1.00414 0.0
H556 H 0.43781 0.71753 0.02847 0.0
H557 H 0.46317 0.71846 0.06973 0.0
C558 C 0.66964 0.42901 0.41429 0.0
C559 C 0.70704 0.44701 0.41817 0.0
C560 C 0.65495 0.41703 0.39032 0.0
C561 C 0.67738 0.42308 0.36952 0.0
C562 C 0.7148 0.44338 0.37316 0.0
C563 C 0.72947 0.45478 0.39722 0.0
C564 C 0.66289 0.40838 0.34394 0.0
C565 C 0.63189 0.37721 0.33981 0.0
C566 C 0.6193 0.36076 0.31433 0.0
C567 C 0.59798 0.3233 0.31197 0.0
C568 C 0.58799 0.30687 0.28827 0.0
C569 C 0.59846 0.32758 0.26637 0.0
H570 H 0.64357 0.41036 0.29329 0.0
C571 C 0.61782 0.3651 0.26876 0.0
C572 C 0.6282 0.38148 0.29237 0.0
H573 H 0.62648 0.3818 0.25222 0.0
H574 H 0.65167 0.42214 0.43015 0.0
H575 H 0.62605 0.40241 0.38825 0.0
H576 H 0.73284 0.44882 0.35752 0.0
H577 H 0.7583 0.46768 0.39962 0.0
H578 H 0.68006 0.42225 0.3281 0.0
H579 H 0.61649 0.36159 0.35582 0.0
H580 H 0.59028 0.30656 0.32851 0.0
H581 H 0.57345 0.27796 0.28701 0.0
C582 C 0.30622 0.71179 0.73217 0.0
C583 C 0.28026 0.6965 0.75118 0.0
C584 C 0.30166 0.69396 0.70927 0.0
C585 C 0.27071 0.66066 0.70471 0.0
C586 C 0.24349 0.64692 0.72296 0.0
C587 C 0.24846 0.66435 0.74612 0.0
C588 C 0.26653 0.63968 0.6813 0.0
C589 C 0.29422 0.6378 0.67083 0.0
C590 C 0.29215 0.61755 0.64739 0.0
C591 C 0.31997 0.6102 0.64238 0.0
C592 C 0.3223 0.59616 0.61919 0.0
C593 C 0.29693 0.58926 0.6003 0.0
H594 H 0.24383 0.61406 0.63177 0.0
C595 C 0.26788 0.59452 0.60568 0.0
C596 C 0.26542 0.60844 0.62897 0.0
H597 H 0.24847 0.5903 0.59121 0.0
H598 H 0.33125 0.73625 0.73576 0.0
H599 H 0.32277 0.70584 0.6954 0.0
H600 H 0.21918 0.62159 0.71987 0.0
H601 H 0.22836 0.65167 0.7606 0.0
H602 H 0.2397 0.62371 0.67364 0.0
H603 H 0.32009 0.65148 0.68026 0.0
H604 H 0.34102 0.61689 0.65607 0.0
H605 H 0.34539 0.59317 0.61535 0.0
loop_
_geom_bond_atom_site_label_1
_geom_bond_atom_site_label_2
_geom_bond_distance
_geom_bond_site_symmetry_2
_ccdc_geom_bond_type
C0 C1 1.443 . S
C0 N4 1.376 . S
C0 C38 1.389 . S
C1 C0 1.443 . S
C1 C2 1.340 . S
C1 H41 0.951 . S
C2 C1 1.340 . S
C2 C3 1.439 . S
C2 H42 0.950 . S
C3 C2 1.439 . S
C3 N4 1.374 . S
C3 C37 1.395 . S
N4 C0 1.376 . S
N4 C3 1.374 . S
N4 Co5 2.008 . S
Co5 N4 2.008 . S
Co5 N6 1.995 . S
Co5 N11 2.008 . S
Co5 N16 1.995 . S
Co5 N21 2.282 . S
Co5 N27 2.282 . S
N6 Co5 1.995 . S
N6 C7 1.376 . S
N6 C10 1.383 . S
C7 N6 1.376 . S
C7 C8 1.446 . S
C7 C37 1.391 . S
C8 C7 1.446 . S
C8 C9 1.339 . S
C8 H43 0.949 . S
C9 C8 1.339 . S
C9 C10 1.439 . S
C9 H44 0.950 . S
C10 N6 1.383 . S
C10 C9 1.439 . S
C10 C39 1.392 . S
N11 Co5 2.008 . S
N11 C12 1.376 . S
N11 C15 1.374 . S
C12 N11 1.376 . S
C12 C13 1.443 . S
C12 C39 1.389 . S
C13 C12 1.443 . S
C13 C14 1.340 . S
C13 H45 0.951 . S
C14 C13 1.340 . S
C14 C15 1.439 . S
C14 H46 0.950 . S
C15 N11 1.374 . S
C15 C14 1.439 . S
C15 C40 1.395 . S
N16 Co5 1.995 . S
N16 C17 1.376 . S
N16 C20 1.383 . S
C17 N16 1.376 . S
C17 C18 1.446 . S
C17 C40 1.391 . S
C18 C17 1.446 . S
C18 C19 1.339 . S
C18 H47 0.949 . S
C19 C18 1.339 . S
C19 C20 1.439 . S
C19 H48 0.950 . S
C20 N16 1.383 . S
C20 C19 1.439 . S
C20 C38 1.392 . S
N21 Co5 2.282 . S
N21 C24 1.332 . S
N21 C26 1.332 . S
C22 C23 1.386 . S
C22 C25 1.388 . S
C23 C22 1.386 . S
C23 C24 1.382 . S
C23 H49 0.950 . S
C24 N21 1.332 . S
C24 C23 1.382 . S
C24 H35 0.952 . S
C25 C22 1.388 . S
C25 C26 1.382 . S
C25 H50 0.950 . S
C26 N21 1.332 . S
C26 C25 1.382 . S
C26 H36 0.948 . S
N27 Co5 2.282 . S
N27 C31 1.332 . S
N27 C32 1.332 . S
C28 C29 1.388 . S
C28 C32 1.382 . S
C28 H51 0.950 . S
C29 C28 1.388 . S
C29 C30 1.386 . S
C30 C29 1.386 . S
C30 C31 1.382 . S
C30 H52 0.950 . S
C31 N27 1.332 . S
C31 C30 1.382 . S
C31 H33 0.952 . S
C32 N27 1.332 . S
C32 C28 1.382 . S
C32 H34 0.948 . S
H33 C31 0.952 . S
H34 C32 0.948 . S
H35 C24 0.952 . S
H36 C26 0.948 . S
C37 C3 1.395 . S
C37 C7 1.391 . S
C38 C0 1.389 . S
C38 C20 1.392 . S
C39 C10 1.392 . S
C39 C12 1.389 . S
C40 C15 1.395 . S
C40 C17 1.391 . S
H41 C1 0.951 . S
H42 C2 0.950 . S
H43 C8 0.949 . S
H44 C9 0.950 . S
H45 C13 0.951 . S
H46 C14 0.950 . S
H47 C18 0.949 . S
H48 C19 0.950 . S
H49 C23 0.950 . S
H50 C25 0.950 . S
H51 C28 0.950 . S
H52 C30 0.950 . S
C53 C54 1.443 . S
C53 N57 1.376 . S
C53 C91 1.389 . S
C54 C53 1.443 . S
C54 C55 1.340 . S
C54 H94 0.951 . S
C55 C54 1.340 . S
C55 C56 1.439 . S
C55 H95 0.950 . S
C56 C55 1.439 . S
C56 N57 1.374 . S
C56 C90 1.395 . S
N57 C53 1.376 . S
N57 C56 1.374 . S
N57 Co58 2.008 . S
Co58 N57 2.008 . S
Co58 N59 1.995 . S
Co58 N64 2.008 . S
Co58 N69 1.995 . S
Co58 N74 2.282 . S
Co58 N80 2.282 . S
N59 Co58 1.995 . S
N59 C60 1.376 . S
N59 C63 1.383 . S
C60 N59 1.376 . S
C60 C61 1.446 . S
C60 C90 1.391 . S
C61 C60 1.446 . S
C61 C62 1.339 . S
C61 H96 0.949 . S
C62 C61 1.339 . S
C62 C63 1.439 . S
C62 H97 0.950 . S
C63 N59 1.383 . S
C63 C62 1.439 . S
C63 C92 1.392 . S
N64 Co58 2.008 . S
N64 C65 1.376 . S
N64 C68 1.374 . S
C65 N64 1.376 . S
C65 C66 1.443 . S
C65 C92 1.389 . S
C66 C65 1.443 . S
C66 C67 1.340 . S
C66 H98 0.951 . S
C67 C66 1.340 . S
C67 C68 1.439 . S
C67 H99 0.950 . S
C68 N64 1.374 . S
C68 C67 1.439 . S
C68 C93 1.395 . S
N69 Co58 1.995 . S
N69 C70 1.376 . S
N69 C73 1.383 . S
C70 N69 1.376 . S
C70 C71 1.446 . S
C70 C93 1.391 . S
C71 C70 1.446 . S
C71 C72 1.339 . S
C71 H100 0.949 . S
C72 C71 1.339 . S
C72 C73 1.439 . S
C72 H101 0.950 . S
C73 N69 1.383 . S
C73 C72 1.439 . S
C73 C91 1.392 . S
N74 Co58 2.282 . S
N74 C77 1.332 . S
N74 C79 1.332 . S
C75 C76 1.386 . S
C75 C78 1.388 . S
C76 C75 1.386 . S
C76 C77 1.382 . S
C76 H102 0.950 . S
C77 N74 1.332 . S
C77 C76 1.382 . S
C77 H88 0.952 . S
C78 C75 1.388 . S
C78 C79 1.382 . S
C78 H103 0.950 . S
C79 N74 1.332 . S
C79 C78 1.382 . S
C79 H89 0.948 . S
N80 Co58 2.282 . S
N80 C84 1.332 . S
N80 C85 1.332 . S
C81 C82 1.388 . S
C81 C85 1.382 . S
C81 H104 0.950 . S
C82 C81 1.388 . S
C82 C83 1.386 . S
C83 C82 1.386 . S
C83 C84 1.382 . S
C83 H105 0.950 . S
C84 N80 1.332 . S
C84 C83 1.382 . S
C84 H86 0.952 . S
C85 N80 1.332 . S
C85 C81 1.382 . S
C85 H87 0.948 . S
H86 C84 0.952 . S
H87 C85 0.948 . S
H88 C77 0.952 . S
H89 C79 0.948 . S
C90 C56 1.395 . S
C90 C60 1.391 . S
C91 C53 1.389 . S
C91 C73 1.392 . S
C92 C63 1.392 . S
C92 C65 1.389 . S
C93 C68 1.395 . S
C93 C70 1.391 . S
H94 C54 0.951 . S
H95 C55 0.950 . S
H96 C61 0.949 . S
H97 C62 0.950 . S
H98 C66 0.951 . S
H99 C67 0.950 . S
H100 C71 0.949 . S
H101 C72 0.950 . S
H102 C76 0.950 . S
H103 C78 0.950 . S
H104 C81 0.950 . S
H105 C83 0.950 . S
C106 C107 1.443 . S
C106 N110 1.376 . S
C106 C144 1.389 . S
C107 C106 1.443 . S
C107 C108 1.340 . S
C107 H147 0.951 . S
C108 C107 1.340 . S
C108 C109 1.439 . S
C108 H148 0.950 . S
C109 C108 1.439 . S
C109 N110 1.374 . S
C109 C143 1.395 . S
N110 C106 1.376 . S
N110 C109 1.374 . S
N110 Co111 2.008 . S
Co111 N110 2.008 . S
Co111 N112 1.995 . S
Co111 N117 2.008 . S
Co111 N122 1.995 . S
Co111 N127 2.282 . S
Co111 N133 2.282 . S
N112 Co111 1.995 . S
N112 C113 1.376 . S
N112 C116 1.383 . S
C113 N112 1.376 . S
C113 C114 1.446 . S
C113 C143 1.391 . S
C114 C113 1.446 . S
C114 C115 1.339 . S
C114 H149 0.949 . S
C115 C114 1.339 . S
C115 C116 1.439 . S
C115 H150 0.950 . S
C116 N112 1.383 . S
C116 C115 1.439 . S
C116 C145 1.392 . S
N117 Co111 2.008 . S
N117 C118 1.376 . S
N117 C121 1.374 . S
C118 N117 1.376 . S
C118 C119 1.443 . S
C118 C145 1.389 . S
C119 C118 1.443 . S
C119 C120 1.340 . S
C119 H151 0.951 . S
C120 C119 1.340 . S
C120 C121 1.439 . S
C120 H152 0.950 . S
C121 N117 1.374 . S
C121 C120 1.439 . S
C121 C146 1.395 . S
N122 Co111 1.995 . S
N122 C123 1.376 . S
N122 C126 1.383 . S
C123 N122 1.376 . S
C123 C124 1.446 . S
C123 C146 1.391 . S
C124 C123 1.446 . S
C124 C125 1.339 . S
C124 H153 0.949 . S
C125 C124 1.339 . S
C125 C126 1.439 . S
C125 H154 0.950 . S
C126 N122 1.383 . S
C126 C125 1.439 . S
C126 C144 1.392 . S
N127 Co111 2.282 . S
N127 C130 1.332 . S
N127 C132 1.332 . S
C128 C129 1.386 . S
C128 C131 1.388 . S
C129 C128 1.386 . S
C129 C130 1.382 . S
C129 H155 0.950 . S
C130 N127 1.332 . S
C130 C129 1.382 . S
C130 H141 0.952 . S
C131 C128 1.388 . S
C131 C132 1.382 . S
C131 H156 0.950 . S
C132 N127 1.332 . S
C132 C131 1.382 . S
C132 H142 0.948 . S
N133 Co111 2.282 . S
N133 C137 1.332 . S
N133 C138 1.332 . S
C134 C135 1.388 . S
C134 C138 1.382 . S
C134 H157 0.950 . S
C135 C134 1.388 . S
C135 C136 1.386 . S
C136 C135 1.386 . S
C136 C137 1.382 . S
C136 H158 0.950 . S
C137 N133 1.332 . S
C137 C136 1.382 . S
C137 H139 0.952 . S
C138 N133 1.332 . S
C138 C134 1.382 . S
C138 H140 0.948 . S
H139 C137 0.952 . S
H140 C138 0.948 . S
H141 C130 0.952 . S
H142 C132 0.948 . S
C143 C109 1.395 . S
C143 C113 1.391 . S
C144 C106 1.389 . S
C144 C126 1.392 . S
C145 C116 1.392 . S
C145 C118 1.389 . S
C146 C121 1.395 . S
C146 C123 1.391 . S
H147 C107 0.951 . S
H148 C108 0.950 . S
H149 C114 0.949 . S
H150 C115 0.950 . S
H151 C119 0.951 . S
H152 C120 0.950 . S
H153 C124 0.949 . S
H154 C125 0.950 . S
H155 C129 0.950 . S
H156 C131 0.950 . S
H157 C134 0.950 . S
H158 C136 0.950 . S
C159 C160 1.443 . S
C159 N163 1.376 . S
C159 C197 1.389 . S
C160 C159 1.443 . S
C160 C161 1.340 . S
C160 H200 0.951 . S
C161 C160 1.340 . S
C161 C162 1.439 . S
C161 H201 0.950 . S
C162 C161 1.439 . S
C162 N163 1.374 . S
C162 C196 1.395 . S
N163 C159 1.376 . S
N163 C162 1.374 . S
N163 Co164 2.008 . S
Co164 N163 2.008 . S
Co164 N165 1.995 . S
Co164 N170 2.008 . S
Co164 N175 1.995 . S
Co164 N180 2.282 . S
Co164 N186 2.282 . S
N165 Co164 1.995 . S
N165 C166 1.376 . S
N165 C169 1.383 . S
C166 N165 1.376 . S
C166 C167 1.446 . S
C166 C196 1.391 . S
C167 C166 1.446 . S
C167 C168 1.339 . S
C167 H202 0.949 . S
C168 C167 1.339 . S
C168 C169 1.439 . S
C168 H203 0.950 . S
C169 N165 1.383 . S
C169 C168 1.439 . S
C169 C198 1.392 . S
N170 Co164 2.008 . S
N170 C171 1.376 . S
N170 C174 1.374 . S
C171 N170 1.376 . S
C171 C172 1.443 . S
C171 C198 1.389 . S
C172 C171 1.443 . S
C172 C173 1.340 . S
C172 H204 0.951 . S
C173 C172 1.340 . S
C173 C174 1.439 . S
C173 H205 0.950 . S
C174 N170 1.374 . S
C174 C173 1.439 . S
C174 C199 1.395 . S
N175 Co164 1.995 . S
N175 C176 1.376 . S
N175 C179 1.383 . S
C176 N175 1.376 . S
C176 C177 1.446 . S
C176 C199 1.391 . S
C177 C176 1.446 . S
C177 C178 1.339 . S
C177 H206 0.949 . S
C178 C177 1.339 . S
C178 C179 1.439 . S
C178 H207 0.950 . S
C179 N175 1.383 . S
C179 C178 1.439 . S
C179 C197 1.392 . S
N180 Co164 2.282 . S
N180 C183 1.332 . S
N180 C185 1.332 . S
C181 C182 1.386 . S
C181 C184 1.388 . S
C182 C181 1.386 . S
C182 C183 1.382 . S
C182 H208 0.950 . S
C183 N180 1.332 . S
C183 C182 1.382 . S
C183 H194 0.952 . S
C184 C181 1.388 . S
C184 C185 1.382 . S
C184 H209 0.950 . S
C185 N180 1.332 . S
C185 C184 1.382 . S
C185 H195 0.948 . S
N186 Co164 2.282 . S
N186 C190 1.332 . S
N186 C191 1.332 . S
C187 C188 1.388 . S
C187 C191 1.382 . S
C187 H210 0.950 . S
C188 C187 1.388 . S
C188 C189 1.386 . S
C189 C188 1.386 . S
C189 C190 1.382 . S
C189 H211 0.950 . S
C190 N186 1.332 . S
C190 C189 1.382 . S
C190 H192 0.952 . S
C191 N186 1.332 . S
C191 C187 1.382 . S
C191 H193 0.948 . S
H192 C190 0.952 . S
H193 C191 0.948 . S
H194 C183 0.952 . S
H195 C185 0.948 . S
C196 C162 1.395 . S
C196 C166 1.391 . S
C197 C159 1.389 . S
C197 C179 1.392 . S
C198 C169 1.392 . S
C198 C171 1.389 . S
C199 C174 1.395 . S
C199 C176 1.391 . S
H200 C160 0.951 . S
H201 C161 0.950 . S
H202 C167 0.949 . S
H203 C168 0.950 . S
H204 C172 0.951 . S
H205 C173 0.950 . S
H206 C177 0.949 . S
H207 C178 0.950 . S
H208 C182 0.950 . S
H209 C184 0.950 . S
H210 C187 0.950 . S
H211 C189 0.950 . S
C212 C213 1.443 . S
C212 N216 1.376 . S
C212 C250 1.389 . S
C213 C212 1.443 . S
C213 C214 1.340 . S
C213 H253 0.951 . S
C214 C213 1.340 . S
C214 C215 1.439 . S
C214 H254 0.950 . S
C215 C214 1.439 . S
C215 N216 1.374 . S
C215 C249 1.395 . S
N216 C212 1.376 . S
N216 C215 1.374 . S
N216 Co217 2.008 . S
Co217 N216 2.008 . S
Co217 N218 1.995 . S
Co217 N223 2.008 . S
Co217 N228 1.995 . S
Co217 N233 2.282 . S
Co217 N239 2.282 . S
N218 Co217 1.995 . S
N218 C219 1.376 . S
N218 C222 1.383 . S
C219 N218 1.376 . S
C219 C220 1.446 . S
C219 C249 1.391 . S
C220 C219 1.446 . S
C220 C221 1.339 . S
C220 H255 0.949 . S
C221 C220 1.339 . S
C221 C222 1.439 . S
C221 H256 0.950 . S
C222 N218 1.383 . S
C222 C221 1.439 . S
C222 C251 1.392 . S
N223 Co217 2.008 . S
N223 C224 1.376 . S
N223 C227 1.374 . S
C224 N223 1.376 . S
C224 C225 1.443 . S
C224 C251 1.389 . S
C225 C224 1.443 . S
C225 C226 1.340 . S
C225 H257 0.951 . S
C226 C225 1.340 . S
C226 C227 1.439 . S
C226 H258 0.950 . S
C227 N223 1.374 . S
C227 C226 1.439 . S
C227 C252 1.395 . S
N228 Co217 1.995 . S
N228 C229 1.376 . S
N228 C232 1.383 . S
C229 N228 1.376 . S
C229 C230 1.446 . S
C229 C252 1.391 . S
C230 C229 1.446 . S
C230 C231 1.339 . S
C230 H259 0.949 . S
C231 C230 1.339 . S
C231 C232 1.439 . S
C231 H260 0.950 . S
C232 N228 1.383 . S
C232 C231 1.439 . S
C232 C250 1.392 . S
N233 Co217 2.282 . S
N233 C236 1.332 . S
N233 C238 1.332 . S
C234 C235 1.386 . S
C234 C237 1.388 . S
C235 C234 1.386 . S
C235 C236 1.382 . S
C235 H261 0.950 . S
C236 N233 1.332 . S
C236 C235 1.382 . S
C236 H247 0.952 . S
C237 C234 1.388 . S
C237 C238 1.382 . S
C237 H262 0.950 . S
C238 N233 1.332 . S
C238 C237 1.382 . S
C238 H248 0.948 . S
N239 Co217 2.282 . S
N239 C243 1.332 . S
N239 C244 1.332 . S
C240 C241 1.388 . S
C240 C244 1.382 . S
C240 H263 0.950 . S
C241 C240 1.388 . S
C241 C242 1.386 . S
C242 C241 1.386 . S
C242 C243 1.382 . S
C242 H264 0.950 . S
C243 N239 1.332 . S
C243 C242 1.382 . S
C243 H245 0.952 . S
C244 N239 1.332 . S
C244 C240 1.382 . S
C244 H246 0.948 . S
H245 C243 0.952 . S
H246 C244 0.948 . S
H247 C236 0.952 . S
H248 C238 0.948 . S
C249 C215 1.395 . S
C249 C219 1.391 . S
C250 C212 1.389 . S
C250 C232 1.392 . S
C251 C222 1.392 . S
C251 C224 1.389 . S
C252 C227 1.395 . S
C252 C229 1.391 . S
H253 C213 0.951 . S
H254 C214 0.950 . S
H255 C220 0.949 . S
H256 C221 0.950 . S
H257 C225 0.951 . S
H258 C226 0.950 . S
H259 C230 0.949 . S
H260 C231 0.950 . S
H261 C235 0.950 . S
H262 C237 0.950 . S
H263 C240 0.950 . S
H264 C242 0.950 . S
C265 C266 1.443 . S
C265 N269 1.376 . S
C265 C303 1.389 . S
C266 C265 1.443 . S
C266 C267 1.340 . S
C266 H306 0.951 . S
C267 C266 1.340 . S
C267 C268 1.439 . S
C267 H307 0.950 . S
C268 C267 1.439 . S
C268 N269 1.374 . S
C268 C302 1.395 . S
N269 C265 1.376 . S
N269 C268 1.374 . S
N269 Co270 2.008 . S
Co270 N269 2.008 . S
Co270 N271 1.995 . S
Co270 N276 2.008 . S
Co270 N281 1.995 . S
Co270 N286 2.282 . S
Co270 N292 2.282 . S
N271 Co270 1.995 . S
N271 C272 1.376 . S
N271 C275 1.383 . S
C272 N271 1.376 . S
C272 C273 1.446 . S
C272 C302 1.391 . S
C273 C272 1.446 . S
C273 C274 1.339 . S
C273 H308 0.949 . S
C274 C273 1.339 . S
C274 C275 1.439 . S
C274 H309 0.950 . S
C275 N271 1.383 . S
C275 C274 1.439 . S
C275 C304 1.392 . S
N276 Co270 2.008 . S
N276 C277 1.376 . S
N276 C280 1.374 . S
C277 N276 1.376 . S
C277 C278 1.443 . S
C277 C304 1.389 . S
C278 C277 1.443 . S
C278 C279 1.340 . S
C278 H310 0.951 . S
C279 C278 1.340 . S
C279 C280 1.439 . S
C279 H311 0.950 . S
C280 N276 1.374 . S
C280 C279 1.439 . S
C280 C305 1.395 . S
N281 Co270 1.995 . S
N281 C282 1.376 . S
N281 C285 1.383 . S
C282 N281 1.376 . S
C282 C283 1.446 . S
C282 C305 1.391 . S
C283 C282 1.446 . S
C283 C284 1.339 . S
C283 H312 0.949 . S
C284 C283 1.339 . S
C284 C285 1.439 . S
C284 H313 0.950 . S
C285 N281 1.383 . S
C285 C284 1.439 . S
C285 C303 1.392 . S
N286 Co270 2.282 . S
N286 C289 1.332 . S
N286 C291 1.332 . S
C287 C288 1.386 . S
C287 C290 1.388 . S
C288 C287 1.386 . S
C288 C289 1.382 . S
C288 H314 0.950 . S
C289 N286 1.332 . S
C289 C288 1.382 . S
C289 H300 0.952 . S
C290 C287 1.388 . S
C290 C291 1.382 . S
C290 H315 0.950 . S
C291 N286 1.332 . S
C291 C290 1.382 . S
C291 H301 0.948 . S
N292 Co270 2.282 . S
N292 C296 1.332 . S
N292 C297 1.332 . S
C293 C294 1.388 . S
C293 C297 1.382 . S
C293 H316 0.950 . S
C294 C293 1.388 . S
C294 C295 1.386 . S
C295 C294 1.386 . S
C295 C296 1.382 . S
C295 H317 0.950 . S
C296 N292 1.332 . S
C296 C295 1.382 . S
C296 H298 0.952 . S
C297 N292 1.332 . S
C297 C293 1.382 . S
C297 H299 0.948 . S
H298 C296 0.952 . S
H299 C297 0.948 . S
H300 C289 0.952 . S
H301 C291 0.948 . S
C302 C268 1.395 . S
C302 C272 1.391 . S
C303 C265 1.389 . S
C303 C285 1.392 . S
C304 C275 1.392 . S
C304 C277 1.389 . S
C305 C280 1.395 . S
C305 C282 1.391 . S
H306 C266 0.951 . S
H307 C267 0.950 . S
H308 C273 0.949 . S
H309 C274 0.950 . S
H310 C278 0.951 . S
H311 C279 0.950 . S
H312 C283 0.949 . S
H313 C284 0.950 . S
H314 C288 0.950 . S
H315 C290 0.950 . S
H316 C293 0.950 . S
H317 C295 0.950 . S
C318 C319 1.386 . S
C318 C320 1.383 . S
C318 H334 0.951 . S
C319 C318 1.386 . S
C319 C323 1.383 . S
C320 C318 1.383 . S
C320 C321 1.402 . S
C320 H335 0.951 . S
C321 C320 1.402 . S
C321 C322 1.375 . S
C321 C324 1.481 . S
C322 C321 1.375 . S
C322 C323 1.367 . S
C322 H336 0.951 . S
C323 C319 1.383 . S
C323 C322 1.367 . S
C323 H337 0.950 . S
C324 C321 1.481 . S
C324 C325 1.297 1_545 S
C324 H338 0.950 . S
C325 C324 1.297 1_565 S
C325 C326 1.479 . S
C325 H339 0.950 . S
C326 C325 1.479 . S
C326 C327 1.375 . S
C326 C332 1.404 . S
C327 C326 1.375 . S
C327 C328 1.369 . S
C327 H340 0.950 . S
C328 C327 1.369 . S
C328 C329 1.392 . S
C328 H341 0.951 . S
C329 C328 1.392 . S
C329 C331 1.384 . S
H330 C332 0.949 . S
C331 C329 1.384 . S
C331 C332 1.385 . S
C331 H333 0.950 . S
C332 C326 1.404 . S
C332 H330 0.949 . S
C332 C331 1.385 . S
H333 C331 0.950 . S
H334 C318 0.951 . S
H335 C320 0.951 . S
H336 C322 0.951 . S
H337 C323 0.950 . S
H338 C324 0.950 . S
H339 C325 0.950 . S
H340 C327 0.950 . S
H341 C328 0.951 . S
C342 C343 1.386 . S
C342 C344 1.383 . S
C342 H358 0.951 . S
C343 C342 1.386 . S
C343 C347 1.383 . S
C344 C342 1.383 . S
C344 C345 1.402 . S
C344 H359 0.951 . S
C345 C344 1.402 . S
C345 C346 1.375 . S
C345 C348 1.481 . S
C346 C345 1.375 . S
C346 C347 1.367 . S
C346 H360 0.951 . S
C347 C343 1.383 . S
C347 C346 1.367 . S
C347 H361 0.950 . S
C348 C345 1.481 . S
C348 C349 1.297 . S
C348 H362 0.950 . S
C349 C348 1.297 . S
C349 C350 1.479 . S
C349 H363 0.950 . S
C350 C349 1.479 . S
C350 C351 1.375 . S
C350 C356 1.404 . S
C351 C350 1.375 . S
C351 C352 1.369 . S
C351 H364 0.950 . S
C352 C351 1.369 . S
C352 C353 1.392 . S
C352 H365 0.951 . S
C353 C352 1.392 . S
C353 C355 1.384 . S
H354 C356 0.949 . S
C355 C353 1.384 . S
C355 C356 1.385 . S
C355 H357 0.950 . S
C356 C350 1.404 . S
C356 H354 0.949 . S
C356 C355 1.385 . S
H357 C355 0.950 . S
H358 C342 0.951 . S
H359 C344 0.951 . S
H360 C346 0.951 . S
H361 C347 0.950 . S
H362 C348 0.950 . S
H363 C349 0.950 . S
H364 C351 0.950 . S
H365 C352 0.951 . S
C366 C367 1.386 . S
C366 C368 1.383 . S
C366 H382 0.951 . S
C367 C366 1.386 . S
C367 C371 1.383 . S
C368 C366 1.383 . S
C368 C369 1.402 . S
C368 H383 0.951 . S
C369 C368 1.402 . S
C369 C370 1.375 . S
C369 C372 1.481 . S
C370 C369 1.375 . S
C370 C371 1.367 . S
C370 H384 0.951 . S
C371 C367 1.383 . S
C371 C370 1.367 . S
C371 H385 0.950 . S
C372 C369 1.481 . S
C372 C373 1.297 1_655 S
C372 H386 0.950 . S
C373 C372 1.297 1_455 S
C373 C374 1.479 . S
C373 H387 0.950 . S
C374 C373 1.479 . S
C374 C375 1.375 . S
C374 C380 1.404 . S
C375 C374 1.375 . S
C375 C376 1.369 . S
C375 H388 0.950 . S
C376 C375 1.369 . S
C376 C377 1.392 . S
C376 H389 0.951 . S
C377 C376 1.392 . S
C377 C379 1.384 . S
H378 C380 0.949 . S
C379 C377 1.384 . S
C379 C380 1.385 . S
C379 H381 0.950 . S
C380 C374 1.404 . S
C380 H378 0.949 . S
C380 C379 1.385 . S
H381 C379 0.950 . S
H382 C366 0.951 . S
H383 C368 0.951 . S
H384 C370 0.951 . S
H385 C371 0.950 . S
H386 C372 0.950 . S
H387 C373 0.950 . S
H388 C375 0.950 . S
H389 C376 0.951 . S
C390 C391 1.386 . S
C390 C392 1.383 . S
C390 H406 0.951 . S
C391 C390 1.386 . S
C391 C395 1.383 . S
C392 C390 1.383 . S
C392 C393 1.402 . S
C392 H407 0.951 . S
C393 C392 1.402 . S
C393 C394 1.375 . S
C393 C396 1.481 . S
C394 C393 1.375 . S
C394 C395 1.367 . S
C394 H408 0.951 . S
C395 C391 1.383 . S
C395 C394 1.367 . S
C395 H409 0.950 . S
C396 C393 1.481 . S
C396 C397 1.297 1_455 S
C396 H410 0.950 . S
C397 C396 1.297 1_655 S
C397 C398 1.479 . S
C397 H411 0.950 . S
C398 C397 1.479 . S
C398 C399 1.375 . S
C398 C404 1.404 . S
C399 C398 1.375 . S
C399 C400 1.369 . S
C399 H412 0.950 . S
C400 C399 1.369 . S
C400 C401 1.392 . S
C400 H413 0.951 . S
C401 C400 1.392 . S
C401 C403 1.384 . S
H402 C404 0.949 . S
C403 C401 1.384 . S
C403 C404 1.385 . S
C403 H405 0.950 . S
C404 C398 1.404 . S
C404 H402 0.949 . S
C404 C403 1.385 . S
H405 C403 0.950 . S
H406 C390 0.951 . S
H407 C392 0.951 . S
H408 C394 0.951 . S
H409 C395 0.950 . S
H410 C396 0.950 . S
H411 C397 0.950 . S
H412 C399 0.950 . S
H413 C400 0.951 . S
C414 C415 1.386 . S
C414 C416 1.383 . S
C414 H430 0.951 . S
C415 C414 1.386 . S
C415 C419 1.383 . S
C416 C414 1.383 . S
C416 C417 1.402 . S
C416 H431 0.951 . S
C417 C416 1.402 . S
C417 C418 1.375 . S
C417 C420 1.481 . S
C418 C417 1.375 . S
C418 C419 1.367 . S
C418 H432 0.951 . S
C419 C415 1.383 . S
C419 C418 1.367 . S
C419 H433 0.950 . S
C420 C417 1.481 . S
C420 C421 1.297 1_565 S
C420 H434 0.950 . S
C421 C420 1.297 1_545 S
C421 C422 1.479 . S
C421 H435 0.950 1_545 S
C422 C421 1.479 . S
C422 C423 1.375 . S
C422 C428 1.404 . S
C423 C422 1.375 . S
C423 C424 1.369 . S
C423 H436 0.950 . S
C424 C423 1.369 . S
C424 C425 1.392 . S
C424 H437 0.951 . S
C425 C424 1.392 . S
C425 C427 1.384 . S
H426 C428 0.949 . S
C427 C425 1.384 . S
C427 C428 1.385 . S
C427 H429 0.950 . S
C428 C422 1.404 . S
C428 H426 0.949 . S
C428 C427 1.385 . S
H429 C427 0.950 . S
H430 C414 0.951 . S
H431 C416 0.951 . S
H432 C418 0.951 . S
H433 C419 0.950 . S
H434 C420 0.950 . S
H435 C421 0.950 1_565 S
H436 C423 0.950 . S
H437 C424 0.951 . S
C438 C439 1.386 . S
C438 C440 1.383 . S
C438 H454 0.951 . S
C439 C438 1.386 . S
C439 C443 1.383 . S
C440 C438 1.383 . S
C440 C441 1.402 . S
C440 H455 0.951 . S
C441 C440 1.402 . S
C441 C442 1.375 . S
C441 C444 1.481 . S
C442 C441 1.375 . S
C442 C443 1.367 . S
C442 H456 0.951 . S
C443 C439 1.383 . S
C443 C442 1.367 . S
C443 H457 0.950 . S
C444 C441 1.481 . S
C444 C445 1.297 . S
C444 H458 0.950 . S
C445 C444 1.297 . S
C445 C446 1.479 . S
C445 H459 0.950 . S
C446 C445 1.479 . S
C446 C447 1.375 . S
C446 C452 1.404 . S
C447 C446 1.375 . S
C447 C448 1.369 . S
C447 H460 0.950 . S
C448 C447 1.369 . S
C448 C449 1.392 . S
C448 H461 0.951 . S
C449 C448 1.392 . S
C449 C451 1.384 . S
H450 C452 0.949 . S
C451 C449 1.384 . S
C451 C452 1.385 . S
C451 H453 0.950 . S
C452 C446 1.404 . S
C452 H450 0.949 . S
C452 C451 1.385 . S
H453 C451 0.950 . S
H454 C438 0.951 . S
H455 C440 0.951 . S
H456 C442 0.951 . S
H457 C443 0.950 . S
H458 C444 0.950 . S
H459 C445 0.950 . S
H460 C447 0.950 . S
H461 C448 0.951 . S
C462 C463 1.386 . S
C462 C464 1.383 . S
C462 H478 0.951 . S
C463 C462 1.386 . S
C463 C467 1.383 . S
C464 C462 1.383 . S
C464 C465 1.402 . S
C464 H479 0.951 . S
C465 C464 1.402 . S
C465 C466 1.375 . S
C465 C468 1.486 . S
C466 C465 1.375 . S
C466 C467 1.367 . S
C466 H480 0.951 . S
C467 C463 1.383 . S
C467 C466 1.367 . S
C467 H481 0.950 . S
C468 C465 1.486 . S
C468 C469 1.294 1_556 S
C468 H482 0.948 1_556 S
C469 C468 1.294 1_554 S
C469 C470 1.479 . S
C469 H483 0.950 . S
C470 C469 1.479 . S
C470 C471 1.375 . S
C470 C476 1.404 . S
C471 C470 1.375 . S
C471 C472 1.369 . S
C471 H484 0.950 . S
C472 C471 1.369 . S
C472 C473 1.392 . S
C472 H485 0.951 . S
C473 C472 1.392 . S
C473 C475 1.384 . S
H474 C476 0.949 . S
C475 C473 1.384 . S
C475 C476 1.385 . S
C475 H477 0.950 . S
C476 C470 1.404 . S
C476 H474 0.949 . S
C476 C475 1.385 . S
H477 C475 0.950 . S
H478 C462 0.951 . S
H479 C464 0.951 . S
H480 C466 0.951 . S
H481 C467 0.950 . S
H482 C468 0.948 1_554 S
H483 C469 0.950 . S
H484 C471 0.950 . S
H485 C472 0.951 . S
C486 C487 1.386 . S
C486 C488 1.383 . S
C486 H502 0.951 . S
C487 C486 1.386 . S
C487 C491 1.383 . S
C488 C486 1.383 . S
C488 C489 1.402 . S
C488 H503 0.951 . S
C489 C488 1.402 . S
C489 C490 1.375 . S
C489 C492 1.481 . S
C490 C489 1.375 . S
C490 C491 1.367 . S
C490 H504 0.951 . S
C491 C487 1.383 . S
C491 C490 1.367 . S
C491 H505 0.950 . S
C492 C489 1.481 . S
C492 C493 1.297 . S
C492 H506 0.950 . S
C493 C492 1.297 . S
C493 C494 1.479 . S
C493 H507 0.950 . S
C494 C493 1.479 . S
C494 C495 1.375 . S
C494 C500 1.404 . S
C495 C494 1.375 . S
C495 C496 1.369 . S
C495 H508 0.950 . S
C496 C495 1.369 . S
C496 C497 1.392 . S
C496 H509 0.951 . S
C497 C496 1.392 . S
C497 C499 1.384 . S
H498 C500 0.949 . S
C499 C497 1.384 . S
C499 C500 1.385 . S
C499 H501 0.950 . S
C500 C494 1.404 . S
C500 H498 0.949 . S
C500 C499 1.385 . S
H501 C499 0.950 . S
H502 C486 0.951 . S
H503 C488 0.951 . S
H504 C490 0.951 . S
H505 C491 0.950 . S
H506 C492 0.950 . S
H507 C493 0.950 . S
H508 C495 0.950 . S
H509 C496 0.951 . S
C510 C511 1.386 . S
C510 C512 1.383 . S
C510 H526 0.951 . S
C511 C510 1.386 . S
C511 C515 1.383 . S
C512 C510 1.383 . S
C512 C513 1.402 . S
C512 H527 0.951 . S
C513 C512 1.402 . S
C513 C514 1.375 . S
C513 C516 1.481 . S
C514 C513 1.375 . S
C514 C515 1.367 . S
C514 H528 0.951 . S
C515 C511 1.383 . S
C515 C514 1.367 . S
C515 H529 0.950 . S
C516 C513 1.481 . S
C516 C517 1.297 . S
C516 H530 0.950 . S
C517 C516 1.297 . S
C517 C518 1.479 . S
C517 H531 0.950 . S
C518 C517 1.479 . S
C518 C519 1.375 . S
C518 C524 1.404 . S
C519 C518 1.375 . S
C519 C520 1.369 . S
C519 H532 0.950 . S
C520 C519 1.369 . S
C520 C521 1.392 . S
C520 H533 0.951 . S
C521 C520 1.392 . S
C521 C523 1.384 . S
H522 C524 0.949 . S
C523 C521 1.384 . S
C523 C524 1.385 . S
C523 H525 0.950 . S
C524 C518 1.404 . S
C524 H522 0.949 . S
C524 C523 1.385 . S
H525 C523 0.950 . S
H526 C510 0.951 . S
H527 C512 0.951 . S
H528 C514 0.951 . S
H529 C515 0.950 . S
H530 C516 0.950 . S
H531 C517 0.950 . S
H532 C519 0.950 . S
H533 C520 0.951 . S
C534 C535 1.386 . S
C534 C536 1.383 . S
C534 H550 0.951 . S
C535 C534 1.386 . S
C535 C539 1.383 . S
C536 C534 1.383 . S
C536 C537 1.402 . S
C536 H551 0.951 . S
C537 C536 1.402 . S
C537 C538 1.375 . S
C537 C540 1.481 . S
C538 C537 1.375 . S
C538 C539 1.367 . S
C538 H552 0.951 . S
C539 C535 1.383 . S
C539 C538 1.367 . S
C539 H553 0.950 . S
C540 C537 1.481 . S
C540 C541 1.303 . S
C540 H554 0.950 . S
C541 C540 1.303 . S
C541 C542 1.468 1_556 S
C541 H555 0.957 . S
C542 C541 1.468 1_554 S
C542 C543 1.375 . S
C542 C548 1.404 . S
C543 C542 1.375 . S
C543 C544 1.369 . S
C543 H556 0.950 . S
C544 C543 1.369 . S
C544 C545 1.392 . S
C544 H557 0.951 . S
C545 C544 1.392 . S
C545 C547 1.384 . S
H546 C548 0.949 . S
C547 C545 1.384 . S
C547 C548 1.385 . S
C547 H549 0.950 . S
C548 C542 1.404 . S
C548 H546 0.949 . S
C548 C547 1.385 . S
H549 C547 0.950 . S
H550 C534 0.951 . S
H551 C536 0.951 . S
H552 C538 0.951 . S
H553 C539 0.950 . S
H554 C540 0.950 . S
H555 C541 0.957 . S
H556 C543 0.950 . S
H557 C544 0.951 . S
C558 C559 1.386 . S
C558 C560 1.383 . S
C558 H574 0.951 . S
C559 C558 1.386 . S
C559 C563 1.383 . S
C560 C558 1.383 . S
C560 C561 1.402 . S
C560 H575 0.951 . S
C561 C560 1.402 . S
C561 C562 1.375 . S
C561 C564 1.481 . S
C562 C561 1.375 . S
C562 C563 1.367 . S
C562 H576 0.951 . S
C563 C559 1.383 . S
C563 C562 1.367 . S
C563 H577 0.950 . S
C564 C561 1.481 . S
C564 C565 1.297 . S
C564 H578 0.950 . S
C565 C564 1.297 . S
C565 C566 1.479 . S
C565 H579 0.950 . S
C566 C565 1.479 . S
C566 C567 1.375 . S
C566 C572 1.404 . S
C567 C566 1.375 . S
C567 C568 1.369 . S
C567 H580 0.950 . S
C568 C567 1.369 . S
C568 C569 1.392 . S
C568 H581 0.951 . S
C569 C568 1.392 . S
C569 C571 1.384 . S
H570 C572 0.949 . S
C571 C569 1.384 . S
C571 C572 1.385 . S
C571 H573 0.950 . S
C572 C566 1.404 . S
C572 H570 0.949 . S
C572 C571 1.385 . S
H573 C571 0.950 . S
H574 C558 0.951 . S
H575 C560 0.951 . S
H576 C562 0.951 . S
H577 C563 0.950 . S
H578 C564 0.950 . S
H579 C565 0.950 . S
H580 C567 0.950 . S
H581 C568 0.951 . S
C582 C583 1.386 . S
C582 C584 1.383 . S
C582 H598 0.951 . S
C583 C582 1.386 . S
C583 C587 1.383 . S
C584 C582 1.383 . S
C584 C585 1.402 . S
C584 H599 0.951 . S
C585 C584 1.402 . S
C585 C586 1.375 . S
C585 C588 1.481 . S
C586 C585 1.375 . S
C586 C587 1.367 . S
C586 H600 0.951 . S
C587 C583 1.383 . S
C587 C586 1.367 . S
C587 H601 0.950 . S
C588 C585 1.481 . S
C588 C589 1.297 . S
C588 H602 0.950 . S
C589 C588 1.297 . S
C589 C590 1.479 . S
C589 H603 0.950 . S
C590 C589 1.479 . S
C590 C591 1.375 . S
C590 C596 1.404 . S
C591 C590 1.375 . S
C591 C592 1.369 . S
C591 H604 0.950 . S
C592 C591 1.369 . S
C592 C593 1.392 . S
C592 H605 0.951 . S
C593 C592 1.392 . S
C593 C595 1.384 . S
H594 C596 0.949 . S
C595 C593 1.384 . S
C595 C596 1.385 . S
C595 H597 0.950 . S
C596 C590 1.404 . S
C596 H594 0.949 . S
C596 C595 1.385 . S
H597 C595 0.950 . S
H598 C582 0.951 . S
H599 C584 0.951 . S
H600 C586 0.951 . S
H601 C587 0.950 . S
H602 C588 0.950 . S
H603 C589 0.950 . S
H604 C591 0.950 . S
H605 C592 0.951 . S
C319 C22 1.648 . S
C329 C181 1.655 . S
C343 C75 1.653 . S
C353 C234 1.646 . S
C367 C128 1.642 . S
C377 C287 1.658 . S
C391 C82 1.652 . S
C401 C241 1.656 . S
C415 C294 1.650 . S
C425 C135 1.617 . S
C439 C188 1.635 . S
C449 C29 1.648 . S
C463 C144 2.344 . S
C473 C39 2.294 . S
C487 C197 2.339 . S
C497 C92 2.344 . S
C511 C145 2.306 . S
C521 C250 2.311 . S
C535 C303 2.336 . S
C545 C198 2.342 . S
C559 C251 2.344 . S
C569 C38 2.346 . S
C583 C304 2.335 . S
C593 C91 2.357 . S
