# Generated by pormake.
# Topology neb, (4)-cn, num edge types: 1
# Building blocks:
#     Node 0, Type 0, BuildingBlock: GALJAG_clean_sbu_0, # of connection points: 4
#     Node 1, Type 0, BuildingBlock: GALJAG_clean_sbu_0, # of connection points: 4
#     Node 2, Type 0, BuildingBlock: GALJAG_clean_sbu_0, # of connection points: 4
#     Node 3, Type 0, BuildingBlock: GALJAG_clean_sbu_0, # of connection points: 4
#     Node 4, Type 0, BuildingBlock: GALJAG_clean_sbu_0, # of connection points: 4
#     Node 5, Type 0, BuildingBlock: GALJAG_clean_sbu_0, # of connection points: 4
#     Node 6, Type 0, BuildingBlock: GALJAG_clean_sbu_0, # of connection points: 4
#     Node 7, Type 0, BuildingBlock: GALJAG_clean_sbu_0, # of connection points: 4
#     Node 8, Type 0, BuildingBlock: GALJAG_clean_sbu_0, # of connection points: 4
#     Node 9, Type 0, BuildingBlock: GALJAG_clean_sbu_0, # of connection points: 4
#     Node 10, Type 0, BuildingBlock: GALJAG_clean_sbu_0, # of connection points: 4
#     Node 11, Type 0, BuildingBlock: GALJAG_clean_sbu_0, # of connection points: 4
#     Node 12, Type 0, BuildingBlock: GALJAG_clean_sbu_0, # of connection points: 4
#     Node 13, Type 0, BuildingBlock: GALJAG_clean_sbu_0, # of connection points: 4
#     Node 14, Type 0, BuildingBlock: GALJAG_clean_sbu_0, # of connection points: 4
#     Node 15, Type 0, BuildingBlock: GALJAG_clean_sbu_0, # of connection points: 4
#     Edge 16, Type (0, 0), BuildingBlock: EZIPEK_clean_linker_0, # of connection points: 2
#     Edge 17, Type (0, 0), BuildingBlock: EZIPEK_clean_linker_0, # of connection points: 2
#     Edge 18, Type (0, 0), BuildingBlock: EZIPEK_clean_linker_0, # of connection points: 2
#     Edge 19, Type (0, 0), BuildingBlock: EZIPEK_clean_linker_0, # of connection points: 2
#     Edge 20, Type (0, 0), BuildingBlock: EZIPEK_clean_linker_0, # of connection points: 2
#     Edge 21, Type (0, 0), BuildingBlock: EZIPEK_clean_linker_0, # of connection points: 2
#     Edge 22, Type (0, 0), BuildingBlock: EZIPEK_clean_linker_0, # of connection points: 2
#     Edge 23, Type (0, 0), BuildingBlock: EZIPEK_clean_linker_0, # of connection points: 2
#     Edge 24, Type (0, 0), BuildingBlock: EZIPEK_clean_linker_0, # of connection points: 2
#     Edge 25, Type (0, 0), BuildingBlock: EZIPEK_clean_linker_0, # of connection points: 2
#     Edge 26, Type (0, 0), BuildingBlock: EZIPEK_clean_linker_0, # of connection points: 2
#     Edge 27, Type (0, 0), BuildingBlock: EZIPEK_clean_linker_0, # of connection points: 2
#     Edge 28, Type (0, 0), BuildingBlock: EZIPEK_clean_linker_0, # of connection points: 2
#     Edge 29, Type (0, 0), BuildingBlock: EZIPEK_clean_linker_0, # of connection points: 2
#     Edge 30, Type (0, 0), BuildingBlock: EZIPEK_clean_linker_0, # of connection points: 2
#     Edge 31, Type (0, 0), BuildingBlock: EZIPEK_clean_linker_0, # of connection points: 2
#     Edge 32, Type (0, 0), BuildingBlock: EZIPEK_clean_linker_0, # of connection points: 2
#     Edge 33, Type (0, 0), BuildingBlock: EZIPEK_clean_linker_0, # of connection points: 2
#     Edge 34, Type (0, 0), BuildingBlock: EZIPEK_clean_linker_0, # of connection points: 2
#     Edge 35, Type (0, 0), BuildingBlock: EZIPEK_clean_linker_0, # of connection points: 2
#     Edge 36, Type (0, 0), BuildingBlock: EZIPEK_clean_linker_0, # of connection points: 2
#     Edge 37, Type (0, 0), BuildingBlock: EZIPEK_clean_linker_0, # of connection points: 2
#     Edge 38, Type (0, 0), BuildingBlock: EZIPEK_clean_linker_0, # of connection points: 2
#     Edge 39, Type (0, 0), BuildingBlock: EZIPEK_clean_linker_0, # of connection points: 2
#     Edge 40, Type (0, 0), BuildingBlock: EZIPEK_clean_linker_0, # of connection points: 2
#     Edge 41, Type (0, 0), BuildingBlock: EZIPEK_clean_linker_0, # of connection points: 2
#     Edge 42, Type (0, 0), BuildingBlock: EZIPEK_clean_linker_0, # of connection points: 2
#     Edge 43, Type (0, 0), BuildingBlock: EZIPEK_clean_linker_0, # of connection points: 2
#     Edge 44, Type (0, 0), BuildingBlock: EZIPEK_clean_linker_0, # of connection points: 2
#     Edge 45, Type (0, 0), BuildingBlock: EZIPEK_clean_linker_0, # of connection points: 2
#     Edge 46, Type (0, 0), BuildingBlock: EZIPEK_clean_linker_0, # of connection points: 2
#     Edge 47, Type (0, 0), BuildingBlock: EZIPEK_clean_linker_0, # of connection points: 2
# Relax obj value: 0.003
# Max RMSD: 0.033
# Mean RMSD: 0.033
data_MOF--net-neb--node1-GALJAG_clean_sbu_0--edge1-EZIPEK_clean_linker_0
_symmetry_space_group_name_H-M    P1
_symmetry_Int_Tables_number       1
_symmetry_cell_setting            triclinic
loop_
_symmetry_equiv_pos_as_xyz
'x, y, z'
_cell_length_a     31.032122
_cell_length_b     18.260985
_cell_length_c     51.758317
_cell_angle_alpha  89.929265
_cell_angle_beta   90.457272
_cell_angle_gamma 90.043534
loop_
_atom_site_label
_atom_site_type_symbol
_atom_site_fract_x
_atom_site_fract_y
_atom_site_fract_z
_atom_type_partial_charge
In0 In 0.12381 0.13356 0.43258 0.0
O1 O 0.15918 0.02941 0.42039 0.0
O2 O 0.10427 0.06185 0.39836 0.0
C3 C 0.18545 0.19323 0.46281 0.0
C4 C 0.06605 0.07464 0.46507 0.0
C5 C 0.11033 0.25221 0.40256 0.0
O6 O 0.19413 0.15162 0.44409 0.0
O7 O 0.14583 0.20434 0.46639 0.0
O8 O 0.08315 0.23106 0.419 0.0
O9 O 0.14342 0.21251 0.40077 0.0
C10 C 0.13378 0.01548 0.4019 0.0
O11 O 0.055 0.11694 0.44688 0.0
O12 O 0.10593 0.06277 0.46707 0.0
In13 In 0.12978 0.13048 0.81744 0.0
O14 O 0.09525 0.02394 0.82785 0.0
O15 O 0.14685 0.05889 0.85219 0.0
C16 C 0.06714 0.18626 0.78709 0.0
C17 C 0.19125 0.07485 0.78676 0.0
C18 C 0.14183 0.25002 0.84715 0.0
O19 O 0.05913 0.1429 0.80544 0.0
O20 O 0.1064 0.20132 0.78397 0.0
O21 O 0.16713 0.23342 0.82911 0.0
O22 O 0.11125 0.20561 0.85064 0.0
C23 C 0.1187 0.01096 0.84733 0.0
O24 O 0.2002 0.11293 0.8064 0.0
O25 O 0.15163 0.06561 0.7824 0.0
In26 In 0.8859 0.87307 0.5643 0.0
O27 O 0.8506 0.97737 0.57631 0.0
O28 O 0.90548 0.94518 0.59842 0.0
C29 C 0.8244 0.81451 0.53376 0.0
C30 C 0.9444 0.93105 0.53211 0.0
C31 C 0.89802 0.75444 0.5946 0.0
O32 O 0.81566 0.85594 0.55251 0.0
O33 O 0.864 0.8031 0.53023 0.0
O34 O 0.92559 0.77468 0.57824 0.0
O35 O 0.86526 0.79498 0.59614 0.0
C36 C 0.87593 0.99146 0.59482 0.0
O37 O 0.95501 0.88845 0.55031 0.0
O38 O 0.90462 0.94366 0.52996 0.0
In39 In 0.86426 0.88992 0.18662 0.0
O40 O 0.79523 0.90495 0.20079 0.0
O41 O 0.8457 0.95776 0.22169 0.0
C42 C 0.85345 0.77271 0.15564 0.0
C43 C 0.87312 0.00854 0.1561 0.0
C44 C 0.9263 0.83113 0.21664 0.0
O45 O 0.82725 0.78828 0.17334 0.0
O46 O 0.88415 0.81736 0.15297 0.0
O47 O 0.93395 0.88229 0.2009 0.0
O48 O 0.88762 0.81025 0.21749 0.0
C49 C 0.80585 0.94607 0.21936 0.0
O50 O 0.90066 0.99162 0.17315 0.0
O51 O 0.84186 0.96477 0.1539 0.0
In52 In 0.12673 0.62918 0.94009 0.0
O53 O 0.16573 0.52836 0.92827 0.0
O54 O 0.10907 0.55323 0.90667 0.0
C55 C 0.1858 0.68812 0.97229 0.0
C56 C 0.06438 0.57356 0.97032 0.0
C57 C 0.11694 0.74727 0.90916 0.0
O58 O 0.19567 0.64246 0.95505 0.0
O59 O 0.14626 0.70338 0.97361 0.0
O60 O 0.08871 0.72815 0.92523 0.0
O61 O 0.14933 0.70575 0.90809 0.0
C62 C 0.14045 0.51044 0.91016 0.0
O63 O 0.0562 0.61495 0.95138 0.0
O64 O 0.10379 0.56048 0.97417 0.0
In65 In 0.11861 0.6335 0.30997 0.0
O66 O 0.08374 0.52816 0.3214 0.0
O67 O 0.13658 0.56285 0.34482 0.0
C68 C 0.05691 0.69234 0.27968 0.0
C69 C 0.17862 0.57569 0.2787 0.0
C70 C 0.13083 0.75209 0.34013 0.0
O71 O 0.04834 0.64802 0.29764 0.0
O72 O 0.09635 0.70634 0.27673 0.0
O73 O 0.15768 0.73309 0.3232 0.0
O74 O 0.09866 0.71033 0.34235 0.0
C75 C 0.1079 0.51537 0.34058 0.0
O76 O 0.18824 0.61847 0.29699 0.0
O77 O 0.13895 0.56304 0.27586 0.0
In78 In 0.86891 0.39109 0.06375 0.0
O79 O 0.83082 0.49272 0.07547 0.0
O80 O 0.88762 0.46672 0.09697 0.0
C81 C 0.81134 0.33085 0.03088 0.0
C82 C 0.93194 0.44681 0.03424 0.0
C83 C 0.8762 0.27439 0.0954 0.0
O84 O 0.80041 0.3759 0.04809 0.0
O85 O 0.8511 0.3176 0.02981 0.0
O86 O 0.90387 0.28898 0.07842 0.0
O87 O 0.84574 0.31974 0.09708 0.0
C88 C 0.85649 0.51016 0.09349 0.0
O89 O 0.93931 0.39972 0.05159 0.0
O90 O 0.89303 0.46545 0.03164 0.0
In91 In 0.88089 0.37403 0.68706 0.0
O92 O 0.80976 0.39488 0.69588 0.0
O93 O 0.85669 0.43456 0.72257 0.0
C94 C 0.87354 0.25529 0.65647 0.0
C95 C 0.89503 0.49235 0.65702 0.0
C96 C 0.93975 0.31635 0.71951 0.0
O97 O 0.84516 0.2722 0.67276 0.0
O98 O 0.90492 0.2991 0.6551 0.0
O99 O 0.94882 0.36772 0.70412 0.0
O100 O 0.90119 0.29455 0.71873 0.0
C101 C 0.81744 0.42912 0.71656 0.0
O102 O 0.91774 0.47848 0.67674 0.0
O103 O 0.86608 0.44591 0.65203 0.0
In104 In 0.62811 0.11975 0.93473 0.0
O105 O 0.66405 0.01632 0.9225 0.0
O106 O 0.60768 0.04645 0.90125 0.0
C107 C 0.68803 0.18078 0.96571 0.0
C108 C 0.56928 0.06075 0.96637 0.0
C109 C 0.6171 0.23782 0.90411 0.0
O110 O 0.69803 0.14036 0.94691 0.0
O111 O 0.6482 0.18916 0.96917 0.0
O112 O 0.59084 0.22163 0.92175 0.0
O113 O 0.64785 0.19348 0.90138 0.0
C114 C 0.63789 1.00111 0.90448 0.0
O115 O 0.55892 0.10455 0.94847 0.0
O116 O 0.60899 0.04736 0.96851 0.0
In117 In 0.62008 0.13017 0.31928 0.0
O118 O 0.68823 0.12897 0.30281 0.0
O119 O 0.64278 0.05253 0.28776 0.0
C120 C 0.63063 0.2468 0.35053 0.0
C121 C 0.61244 0.01208 0.35057 0.0
C122 C 0.55891 0.18714 0.28788 0.0
O123 O 0.65917 0.22674 0.33483 0.0
O124 O 0.59736 0.20703 0.35106 0.0
O125 O 0.55026 0.14057 0.30511 0.0
O126 O 0.59812 0.2042 0.28625 0.0
C127 C 0.68077 0.07694 0.2874 0.0
O128 O 0.58626 0.02485 0.33233 0.0
O129 O 0.64158 0.05965 0.35344 0.0
In130 In 0.38075 0.87942 0.06522 0.0
O131 O 0.45143 0.90321 0.05555 0.0
O132 O 0.40373 0.92893 0.02728 0.0
C133 C 0.39106 0.76083 0.09545 0.0
C134 C 0.37101 0.99802 0.09585 0.0
C135 C 0.31627 0.8234 0.03648 0.0
O136 O 0.41852 0.77858 0.07862 0.0
O137 O 0.3592 0.80335 0.09729 0.0
O138 O 0.31046 0.87666 0.05163 0.0
O139 O 0.35425 0.79912 0.0357 0.0
C140 C 0.44302 0.92923 0.03349 0.0
O141 O 0.35421 0.99409 0.07361 0.0
O142 O 0.39135 0.94163 0.10284 0.0
In143 In 0.3725 0.87486 0.68817 0.0
O144 O 0.30421 0.89478 0.70253 0.0
O145 O 0.3561 0.94354 0.72351 0.0
C146 C 0.35574 0.75697 0.65837 0.0
C147 C 0.38188 0.99351 0.65761 0.0
C148 C 0.43607 0.81525 0.7169 0.0
O149 O 0.33231 0.77439 0.67719 0.0
O150 O 0.38679 0.79982 0.65413 0.0
O151 O 0.44357 0.85947 0.69872 0.0
O152 O 0.39683 0.80138 0.72071 0.0
C153 C 0.31599 0.93445 0.72123 0.0
O154 O 0.40955 0.97599 0.6745 0.0
O155 O 0.35035 0.95028 0.65559 0.0
In156 In 0.62417 0.62774 0.44334 0.0
O157 O 0.65988 0.52326 0.43161 0.0
O158 O 0.60247 0.55143 0.41099 0.0
C159 C 0.68996 0.68451 0.47085 0.0
C160 C 0.56594 0.57389 0.47709 0.0
C161 C 0.6137 0.74565 0.41211 0.0
O162 O 0.69562 0.63459 0.45431 0.0
O163 O 0.65149 0.70505 0.47354 0.0
O164 O 0.59398 0.73912 0.43324 0.0
O165 O 0.63684 0.69151 0.40633 0.0
C166 C 0.63317 0.5069 0.41397 0.0
O167 O 0.55491 0.60228 0.45578 0.0
O168 O 0.60582 0.57501 0.48166 0.0
In169 In 0.62743 0.62008 0.81171 0.0
O170 O 0.69694 0.60659 0.79827 0.0
O171 O 0.64778 0.54972 0.77755 0.0
C172 C 0.63723 0.73759 0.84268 0.0
C173 C 0.61753 0.50255 0.84274 0.0
C174 C 0.56689 0.67851 0.78044 0.0
O175 O 0.66457 0.72068 0.82578 0.0
O176 O 0.6057 0.69424 0.84452 0.0
O177 O 0.55847 0.62762 0.79614 0.0
O178 O 0.60562 0.69928 0.78024 0.0
C179 C 0.68737 0.56345 0.78009 0.0
O180 O 0.59065 0.51865 0.82523 0.0
O181 O 0.64861 0.54659 0.84515 0.0
In182 In 0.36878 0.37862 0.56619 0.0
O183 O 0.32716 0.47693 0.57774 0.0
O184 O 0.38448 0.45583 0.59932 0.0
C185 C 0.31252 0.32354 0.53111 0.0
C186 C 0.43387 0.44049 0.53997 0.0
C187 C 0.37997 0.25787 0.59589 0.0
O188 O 0.3007 0.34744 0.5528 0.0
O189 O 0.35229 0.32909 0.52687 0.0
O190 O 0.40334 0.27135 0.57661 0.0
O191 O 0.35169 0.30549 0.60045 0.0
C192 C 0.35227 0.49669 0.59575 0.0
O193 O 0.44027 0.39385 0.55767 0.0
O194 O 0.39484 0.45553 0.53549 0.0
In195 In 0.37333 0.38133 0.18822 0.0
O196 O 0.30196 0.39822 0.19707 0.0
O197 O 0.34851 0.44852 0.22188 0.0
C198 C 0.36676 0.26296 0.15735 0.0
C199 C 0.38687 0.50041 0.15866 0.0
C200 C 0.43181 0.32313 0.22104 0.0
O201 O 0.34099 0.27408 0.17569 0.0
O202 O 0.39458 0.31238 0.15414 0.0
O203 O 0.44255 0.36321 0.20226 0.0
O204 O 0.39182 0.31396 0.22363 0.0
C205 C 0.30929 0.43811 0.21654 0.0
O206 O 0.41075 0.48508 0.17779 0.0
O207 O 0.35689 0.45538 0.15422 0.0
C208 C 0.28537 0.21652 0.50512 0.0
C209 C 0.28192 0.29154 0.51208 0.0
C210 C 0.21937 0.30418 0.48315 0.0
C211 C 0.21922 0.22721 0.47929 0.0
N212 N 0.2476 0.10814 0.49046 0.0
N213 N 0.24412 0.40679 0.50894 0.0
C214 C 0.25115 0.18277 0.49119 0.0
C215 C 0.24824 0.33528 0.50159 0.0
N216 N 0.32134 0.17727 0.51159 0.0
N217 N 0.19369 0.34801 0.46813 0.0
H218 H 0.2666 0.4336 0.52066 0.0
H219 H 0.21716 0.4385 0.50452 0.0
H220 H 0.17385 0.32751 0.45349 0.0
H221 H 0.19534 0.40496 0.46824 0.0
H222 H 0.3273 0.12472 0.50467 0.0
H223 H 0.34733 0.19943 0.52169 0.0
H224 H 0.26731 0.07329 0.50126 0.0
H225 H 0.22228 0.08093 0.48122 0.0
C226 C 0.97802 0.94639 0.48864 0.0
C227 C 0.97631 0.96643 0.51511 0.0
C228 C 0.03288 0.05858 0.50864 0.0
C229 C 0.03451 0.03868 0.48217 0.0
N230 N 0.01412 0.95794 0.44734 0.0
N231 N 0.99682 0.04697 0.54997 0.0
C232 C 0.00826 0.98143 0.47218 0.0
C233 C 0.00263 0.02355 0.52511 0.0
N234 N 0.95011 0.89462 0.47924 0.0
N235 N 0.06083 0.1103 0.51805 0.0
H236 H 0.97509 0.02261 0.56263 0.0
H237 H 0.01126 0.09338 0.55781 0.0
H238 H 0.08154 0.14029 0.5063 0.0
H239 H 0.06526 0.12152 0.53758 0.0
H240 H 0.94571 0.88333 0.45971 0.0
H241 H 0.9294 0.86461 0.491 0.0
H242 H 0.99974 0.91146 0.43952 0.0
H243 H 0.03586 0.98229 0.43468 0.0
C244 C 0.28112 0.94884 0.76439 0.0
C245 C 0.28488 0.97144 0.73826 0.0
C246 C 0.22912 0.06495 0.74441 0.0
C247 C 0.22466 0.0413 0.7704 0.0
N248 N 0.24161 0.95615 0.80464 0.0
N249 N 0.26866 0.05723 0.70414 0.0
C250 C 0.24975 0.98253 0.78039 0.0
C251 C 0.26032 0.03092 0.72839 0.0
N252 N 0.30805 0.89579 0.77392 0.0
N253 N 0.20294 0.11928 0.73503 0.0
H254 H 0.29148 0.03407 0.69193 0.0
H255 H 0.25535 0.10486 0.69649 0.0
H256 H 0.18184 0.14888 0.74661 0.0
H257 H 0.20048 0.13351 0.71561 0.0
H258 H 0.31081 0.88245 0.7934 0.0
H259 H 0.32977 0.86716 0.76245 0.0
H260 H 0.25499 0.90843 0.81218 0.0
H261 H 0.21901 0.97937 0.81697 0.0
C262 C 0.01472 0.17623 0.75031 0.0
C263 C 0.03303 0.21845 0.77059 0.0
C264 C 0.98781 0.32337 0.75848 0.0
C265 C 0.97207 0.28303 0.73699 0.0
N266 N 0.97399 0.17546 0.71008 0.0
N267 N 0.03983 0.33254 0.79362 0.0
C268 C 0.98625 0.21041 0.73233 0.0
C269 C 0.02043 0.29226 0.77454 0.0
N270 N 0.0244 0.10339 0.74838 0.0
N271 N 0.97024 0.39012 0.76411 0.0
H272 H 0.06131 0.30991 0.80701 0.0
H273 H 0.03632 0.38893 0.79556 0.0
H274 H 0.94642 0.41468 0.75272 0.0
H275 H 0.97684 0.41912 0.78098 0.0
H276 H 0.00859 0.06758 0.73587 0.0
H277 H 0.04637 0.07717 0.76063 0.0
H278 H 0.98656 0.1255 0.70412 0.0
H279 H 0.95362 0.1992 0.6963 0.0
C280 C 0.78462 0.70384 0.51765 0.0
C281 C 0.79062 0.78097 0.51725 0.0
C282 C 0.73355 0.7935 0.48447 0.0
C283 C 0.72557 0.71705 0.48619 0.0
N284 N 0.73857 0.60067 0.50689 0.0
N285 N 0.76914 0.90074 0.50226 0.0
C286 C 0.75006 0.67231 0.50325 0.0
C287 C 0.76447 0.82627 0.50129 0.0
N288 N 0.81169 0.66077 0.53207 0.0
N289 N 0.71283 0.83424 0.46597 0.0
H290 H 0.79347 0.92675 0.51281 0.0
H291 H 0.74755 0.9373 0.49376 0.0
H292 H 0.68975 0.81251 0.45341 0.0
H293 H 0.72064 0.88825 0.4616 0.0
H294 H 0.81288 0.60397 0.53057 0.0
H295 H 0.83476 0.68195 0.54474 0.0
H296 H 0.75186 0.56717 0.52114 0.0
H297 H 0.7131 0.5757 0.49703 0.0
C298 C 0.70884 0.05389 0.24287 0.0
C299 C 0.71391 0.04655 0.27004 0.0
C300 C 0.77731 0.96865 0.2638 0.0
C301 C 0.77397 0.98008 0.23674 0.0
N302 N 0.74233 0.0457 0.20082 0.0
N303 N 0.75694 0.0079 0.30669 0.0
C304 C 0.74118 0.02576 0.2263 0.0
C305 C 0.74953 0.00763 0.28061 0.0
N306 N 0.67325 0.08816 0.23287 0.0
N307 N 0.80555 0.91772 0.27338 0.0
H308 H 0.73673 0.03368 0.31981 0.0
H309 H 0.78499 0.98754 0.3152 0.0
H310 H 0.82582 0.8868 0.26169 0.0
H311 H 0.80617 0.901 0.29262 0.0
H312 H 0.66498 0.0869 0.21333 0.0
H313 H 0.65048 0.11461 0.24425 0.0
H314 H 0.72214 0.08516 0.1927 0.0
H315 H 0.76614 0.02804 0.18817 0.0
C316 C 0.97376 0.72415 0.22659 0.0
C317 C 0.96035 0.79643 0.23251 0.0
C318 C 0.01177 0.80158 0.26866 0.0
C319 C 0.02311 0.72761 0.26376 0.0
N320 N 0.01206 0.61489 0.24044 0.0
N321 N 0.96179 0.90149 0.26062 0.0
C322 C 0.00314 0.68772 0.24346 0.0
C323 C 0.97822 0.83474 0.25387 0.0
N324 N 0.95979 0.69168 0.20424 0.0
N325 N 0.03321 0.84006 0.28744 0.0
H326 H 0.93746 0.92765 0.25009 0.0
H327 H 0.96995 0.92892 0.27758 0.0
H328 H 0.05578 0.81617 0.29986 0.0
H329 H 0.0304 0.89639 0.28993 0.0
H330 H 0.97154 0.64206 0.19739 0.0
H331 H 0.93883 0.71732 0.19123 0.0
H332 H 0.99506 0.58063 0.22795 0.0
H333 H 0.03475 0.58714 0.25175 0.0
C334 C 0.26233 0.8308 1.0003 0.0
C335 C 0.28118 0.79046 0.02091 0.0
C336 C 0.239 0.68187 0.00886 0.0
C337 C 0.21845 0.72332 0.98912 0.0
N338 N 0.20702 0.83811 0.967 0.0
N339 N 0.28342 0.68244 0.0477 0.0
C340 C 0.22889 0.79826 0.98525 0.0
C341 C 0.26851 0.71716 0.02595 0.0
N342 N 0.27806 0.89868 0.99426 0.0
N343 N 0.23048 0.60864 0.01114 0.0
H344 H 0.30464 0.70695 0.06082 0.0
H345 H 0.27225 0.6318 0.054 0.0
H346 H 0.20733 0.5817 0.99993 0.0
H347 H 0.24803 0.57339 0.02302 0.0
H348 H 0.26928 0.92775 0.97774 0.0
H349 H 0.30246 0.92437 0.00486 0.0
H350 H 0.20899 0.89482 0.96536 0.0
H351 H 0.18499 0.81484 0.9541 0.0
C352 C 0.02197 0.46475 0.98516 0.0
C353 C 0.0302 0.54119 0.98651 0.0
C354 C 0.97659 0.55412 0.02075 0.0
C355 C 0.96642 0.47869 0.01821 0.0
N356 N 0.97468 0.36355 0.99611 0.0
N357 N 0.01259 0.66079 0.00309 0.0
C358 C 0.98804 0.43414 1.00003 0.0
C359 C 0.00651 0.5866 0.00349 0.0
N360 N 0.04648 0.42155 0.9695 0.0
N361 N 0.95918 0.59374 0.04051 0.0
H362 H 0.03594 0.68634 0.99183 0.0
H363 H 0.99277 0.6977 0.01265 0.0
H364 H 0.93798 0.57121 0.05389 0.0
H365 H 0.9684 0.64696 0.04512 0.0
H366 H 0.04618 0.36459 0.97005 0.0
H367 H 0.06888 0.44275 0.95659 0.0
H368 H 0.98577 0.33038 0.98125 0.0
H369 H 0.94993 0.33926 0.00662 0.0
C370 C 0.24962 0.52919 0.2214 0.0
C371 C 0.27458 0.47127 0.23201 0.0
C372 C 0.23801 0.4843 0.27359 0.0
C373 C 0.21153 0.53976 0.26258 0.0
N374 N 0.1876 0.60911 0.22547 0.0
N375 N 0.28899 0.38564 0.26643 0.0
C376 C 0.21585 0.56019 0.23626 0.0
C377 C 0.26791 0.44673 0.25767 0.0
N378 N 0.25962 0.5569 0.19761 0.0
N379 N 0.23454 0.46764 0.29927 0.0
H380 H 0.31101 0.3567 0.25525 0.0
H381 H 0.2824 0.35996 0.28391 0.0
H382 H 0.21115 0.49029 0.3112 0.0
H383 H 0.25621 0.43432 0.30924 0.0
H384 H 0.24607 0.60443 0.18998 0.0
H385 H 0.28402 0.53552 0.18611 0.0
H386 H 0.1857 0.61974 0.20573 0.0
H387 H 0.16397 0.6361 0.23605 0.0
C388 C 0.72441 0.19779 0.00857 0.0
C389 C 0.72044 0.2178 0.98217 0.0
C390 C 0.77793 0.30898 0.98736 0.0
C391 C 0.77973 0.29271 0.01415 0.0
N392 N 0.75332 0.22614 0.05111 0.0
N393 N 0.738 0.29904 0.94702 0.0
C394 C 0.7524 0.23859 0.02503 0.0
C395 C 0.74592 0.27491 0.97164 0.0
N396 N 0.70271 0.1378 0.01757 0.0
N397 N 0.80693 0.35685 0.97692 0.0
H398 H 0.71477 0.27565 0.9349 0.0
H399 H 0.75192 0.34585 0.93918 0.0
H400 H 0.82923 0.38616 0.988 0.0
H401 H 0.81077 0.36432 0.95713 0.0
H402 H 0.70748 0.11527 0.03584 0.0
H403 H 0.68204 0.10654 0.00602 0.0
H404 H 0.73081 0.19406 0.06072 0.0
H405 H 0.77535 0.25112 0.06361 0.0
C406 C 0.74725 0.47336 0.77434 0.0
C407 C 0.72027 0.52861 0.76368 0.0
C408 C 0.75791 0.52019 0.72231 0.0
C409 C 0.78314 0.46193 0.73247 0.0
N410 N 0.79793 0.37484 0.76641 0.0
N411 N 0.69535 0.59856 0.72694 0.0
C412 C 0.77689 0.43642 0.75807 0.0
C413 C 0.7241 0.54995 0.73743 0.0
N414 N 0.7445 0.45619 0.80001 0.0
N415 N 0.76776 0.54963 0.69876 0.0
H416 H 0.6716 0.62461 0.73771 0.0
H417 H 0.69315 0.60964 0.70724 0.0
H418 H 0.79243 0.52974 0.68714 0.0
H419 H 0.75393 0.59745 0.69154 0.0
H420 H 0.76665 0.4231 0.80969 0.0
H421 H 0.72132 0.47837 0.8122 0.0
H422 H 0.79153 0.34861 0.78383 0.0
H423 H 0.81955 0.34593 0.75495 0.0
C424 C 0.53169 0.05467 0.00886 0.0
C425 C 0.53724 0.0267 0.98358 0.0
C426 C 0.48445 0.92976 0.99209 0.0
C427 C 0.47624 0.96156 0.01656 0.0
N428 N 0.48572 0.06182 0.04637 0.0
N429 N 0.51683 0.94262 0.94975 0.0
C430 C 0.49834 0.02586 0.02455 0.0
C431 C 0.5129 0.96575 0.97475 0.0
N432 N 0.55841 0.10858 0.01793 0.0
N433 N 0.46631 0.86373 0.98587 0.0
H434 H 0.53872 0.96557 0.93685 0.0
H435 H 0.49663 0.90392 0.94122 0.0
H436 H 0.44555 0.83567 0.99818 0.0
H437 H 0.47437 0.83373 0.96953 0.0
H438 H 0.55926 0.12519 0.03717 0.0
H439 H 0.58205 0.13328 0.00665 0.0
H440 H 0.49746 0.113 0.0518 0.0
H441 H 0.46037 0.04385 0.05783 0.0
C442 C 0.46759 0.21056 0.239 0.0
C443 C 0.46375 0.28815 0.23853 0.0
C444 C 0.51875 0.29815 0.27265 0.0
C445 C 0.52546 0.22139 0.2713 0.0
N446 N 0.51134 0.10542 0.25072 0.0
N447 N 0.48786 0.40698 0.25306 0.0
C448 C 0.50106 0.17767 0.25393 0.0
C449 C 0.4902 0.33233 0.2547 0.0
N450 N 0.43928 0.16813 0.22522 0.0
N451 N 0.53797 0.33778 0.29198 0.0
H452 H 0.4652 0.43434 0.24163 0.0
H453 H 0.50998 0.44201 0.26188 0.0
H454 H 0.55798 0.31422 0.30597 0.0
H455 H 0.53109 0.39251 0.29572 0.0
H456 H 0.43719 0.11151 0.22723 0.0
H457 H 0.41567 0.18957 0.21296 0.0
H458 H 0.49823 0.0726 0.23623 0.0
H459 H 0.53582 0.07942 0.26117 0.0
C460 C 0.4823 0.70713 0.7278 0.0
C461 C 0.47071 0.78108 0.7325 0.0
C462 C 0.52021 0.78594 0.76959 0.0
C463 C 0.53352 0.71334 0.76405 0.0
N464 N 0.53236 0.60759 0.73627 0.0
N465 N 0.48182 0.89465 0.75528 0.0
C466 C 0.51583 0.67447 0.74276 0.0
C467 C 0.49077 0.82173 0.75258 0.0
N468 N 0.46105 0.66817 0.70908 0.0
N469 N 0.53427 0.81934 0.79176 0.0
H470 H 0.45916 0.922 0.74383 0.0
H471 H 0.49882 0.9294 0.7676 0.0
H472 H 0.5554 0.79442 0.80484 0.0
H473 H 0.52248 0.86917 0.7984 0.0
H474 H 0.46398 0.61182 0.70671 0.0
H475 H 0.43859 0.69181 0.69651 0.0
H476 H 0.52428 0.57961 0.71942 0.0
H477 H 0.55676 0.58191 0.7469 0.0
C478 C 0.4712 0.55257 0.52304 0.0
C479 C 0.4694 0.47514 0.52537 0.0
C480 C 0.53647 0.46502 0.50109 0.0
C481 C 0.53446 0.54105 0.49521 0.0
N482 N 0.49863 0.65763 0.4997 0.0
N483 N 0.49607 0.35659 0.51246 0.0
C484 C 0.50123 0.5849 0.50579 0.0
C485 C 0.50101 0.43098 0.51341 0.0
N486 N 0.44593 0.59535 0.53839 0.0
N487 N 0.57222 0.42501 0.49521 0.0
H488 H 0.4698 0.32923 0.52037 0.0
H489 H 0.51568 0.32266 0.50146 0.0
H490 H 0.59935 0.44734 0.4866 0.0
H491 H 0.57685 0.37128 0.50144 0.0
H492 H 0.44859 0.65212 0.53937 0.0
H493 H 0.42547 0.57358 0.55231 0.0
H494 H 0.47211 0.69004 0.50417 0.0
H495 H 0.52203 0.68498 0.48901 0.0
C496 C 0.13907 0.88892 0.34379 0.0
C497 C 0.13583 0.81928 0.35594 0.0
C498 C 0.13076 0.87857 0.3983 0.0
C499 C 0.13672 0.94777 0.38632 0.0
N500 N 0.15487 0.01836 0.34858 0.0
N501 N 0.13814 0.74684 0.39492 0.0
C502 C 0.14338 0.9528 0.35931 0.0
C503 C 0.1345 0.81383 0.38327 0.0
N504 N 0.1358 0.89466 0.3175 0.0
N505 N 0.11938 0.87467 0.42374 0.0
H506 H 0.14182 0.69828 0.38457 0.0
H507 H 0.14182 0.74007 0.4148 0.0
H508 H 0.11593 0.92066 0.43546 0.0
H509 H 0.10966 0.82633 0.43267 0.0
H510 H 0.13263 0.94446 0.30785 0.0
H511 H 0.13261 0.84964 0.3053 0.0
H512 H 0.16468 0.024 0.32948 0.0
H513 H 0.15843 0.06624 0.35938 0.0
C514 C 0.09896 0.38848 0.39855 0.0
C515 C 0.10463 0.3191 0.3866 0.0
C516 C 0.11265 0.37875 0.34444 0.0
C517 C 0.10462 0.44759 0.35614 0.0
N518 N 0.08181 0.51724 0.39308 0.0
N519 N 0.10666 0.24677 0.34767 0.0
C520 C 0.09525 0.45222 0.38285 0.0
C521 C 0.10842 0.31384 0.35937 0.0
N522 N 0.09935 0.39426 0.42488 0.0
N523 N 0.12646 0.37544 0.31944 0.0
H524 H 0.10249 0.19808 0.35793 0.0
H525 H 0.10491 0.23994 0.32772 0.0
H526 H 0.13043 0.42163 0.30783 0.0
H527 H 0.13764 0.32754 0.31089 0.0
H528 H 0.10083 0.44412 0.43459 0.0
H529 H 0.1016 0.34933 0.43723 0.0
H530 H 0.07004 0.52241 0.41177 0.0
H531 H 0.07873 0.56502 0.38214 0.0
C532 C 0.15141 0.31021 0.89021 0.0
C533 C 0.14703 0.31697 0.86302 0.0
C534 C 0.14849 0.45085 0.86694 0.0
C535 C 0.14653 0.44387 0.89421 0.0
N536 N 0.14261 0.36672 0.93211 0.0
N537 N 0.13774 0.39339 0.82525 0.0
C538 C 0.14751 0.37353 0.90599 0.0
C539 C 0.14501 0.38721 0.85125 0.0
N540 N 0.16058 0.24341 0.90089 0.0
N541 N 0.15507 0.51823 0.85609 0.0
H542 H 0.1358 0.34851 0.81288 0.0
H543 H 0.13042 0.44276 0.81614 0.0
H544 H 0.15869 0.56582 0.86703 0.0
H545 H 0.16119 0.5261 0.83653 0.0
H546 H 0.16867 0.23607 0.92028 0.0
H547 H 0.16425 0.19602 0.88988 0.0
H548 H 0.1374 0.3168 0.94132 0.0
H549 H 0.14059 0.41128 0.94457 0.0
C550 C 0.10814 0.88393 0.90512 0.0
C551 C 0.11326 0.81444 0.89316 0.0
C552 C 0.12259 0.87412 0.85111 0.0
C553 C 0.11482 0.94309 0.86279 0.0
N554 N 0.09175 0.01289 0.89966 0.0
N555 N 0.1156 0.74224 0.85421 0.0
C556 C 0.10508 0.94776 0.88945 0.0
C557 C 0.11762 0.8092 0.86596 0.0
N558 N 0.10841 0.88966 0.93146 0.0
N559 N 0.13673 0.87065 0.82618 0.0
H560 H 0.11094 0.69357 0.8644 0.0
H561 H 0.11419 0.73553 0.83424 0.0
H562 H 0.14113 0.9168 0.81461 0.0
H563 H 0.14773 0.82259 0.81767 0.0
H564 H 0.11022 0.9395 0.94117 0.0
H565 H 0.11042 0.84471 0.94382 0.0
H566 H 0.0797 0.01805 0.91829 0.0
H567 H 0.08894 0.06074 0.88873 0.0
C568 C 0.86933 0.11813 0.65288 0.0
C569 C 0.87119 0.18778 0.64065 0.0
C570 C 0.8779 0.1284 0.59841 0.0
C571 C 0.87269 0.05907 0.61043 0.0
N572 N 0.85561 0.98801 0.64827 0.0
N573 N 0.86861 0.25983 0.60158 0.0
C574 C 0.86611 0.05394 0.63744 0.0
C575 C 0.87298 0.19311 0.61333 0.0
N576 N 0.87283 0.11285 0.67917 0.0
N577 N 0.88961 0.13253 0.57303 0.0
H578 H 0.86428 0.30838 0.61184 0.0
H579 H 0.86514 0.26629 0.58168 0.0
H580 H 0.89405 0.08654 0.56143 0.0
H581 H 0.89871 0.18117 0.56407 0.0
H582 H 0.87683 0.06332 0.68889 0.0
H583 H 0.87555 0.1582 0.69128 0.0
H584 H 0.84589 0.98219 0.66737 0.0
H585 H 0.85278 0.93986 0.63755 0.0
C586 C 0.89306 0.62923 0.65297 0.0
C587 C 0.90034 0.55983 0.6415 0.0
C588 C 0.90811 0.61792 0.59903 0.0
C589 C 0.90291 0.68773 0.61075 0.0
N590 N 0.90102 0.76087 0.64948 0.0
N591 N 0.92357 0.48873 0.605 0.0
C592 C 0.8986 0.69366 0.63793 0.0
C593 C 0.91055 0.55439 0.61492 0.0
N594 N 0.87866 0.63364 0.67783 0.0
N595 N 0.90842 0.6116 0.57272 0.0
H596 H 0.92587 0.44114 0.61611 0.0
H597 H 0.93586 0.48278 0.58646 0.0
H598 H 0.90714 0.65633 0.56024 0.0
H599 H 0.90659 0.56159 0.56313 0.0
H600 H 0.86797 0.68217 0.68615 0.0
H601 H 0.87375 0.58789 0.68952 0.0
H602 H 0.9024 0.76803 0.66943 0.0
H603 H 0.90614 0.80915 0.63914 0.0
C604 C 0.84857 0.57134 0.13646 0.0
C605 C 0.85126 0.57736 0.1092 0.0
C606 C 0.84687 0.71123 0.11255 0.0
C607 C 0.84982 0.70535 0.13983 0.0
N608 N 0.85902 0.63013 0.17793 0.0
N609 N 0.85815 0.65312 0.07113 0.0
C610 C 0.85183 0.63548 0.15189 0.0
C611 C 0.85145 0.64732 0.09714 0.0
N612 N 0.8416 0.50442 0.14757 0.0
N613 N 0.83847 0.77771 0.10142 0.0
H614 H 0.86149 0.60799 0.05901 0.0
H615 H 0.8639 0.70272 0.06182 0.0
H616 H 0.83446 0.82555 0.11213 0.0
H617 H 0.83145 0.78436 0.08185 0.0
H618 H 0.83485 0.49745 0.16709 0.0
H619 H 0.83836 0.45634 0.13685 0.0
H620 H 0.86613 0.58096 0.18724 0.0
H621 H 0.86149 0.67543 0.19007 0.0
C622 C 0.87544 0.14569 0.15317 0.0
C623 C 0.87603 0.07655 0.14063 0.0
C624 C 0.87419 0.1374 0.09841 0.0
C625 C 0.8775 0.20635 0.11094 0.0
N626 N 0.88847 0.27633 0.1499 0.0
N627 N 0.88362 0.00594 0.10159 0.0
C628 C 0.88021 0.21058 0.13825 0.0
C629 C 0.8776 0.07219 0.1133 0.0
N630 N 0.86815 0.14963 0.17916 0.0
N631 N 0.86563 0.1341 0.07247 0.0
H632 H 0.88659 0.957 0.11187 0.0
H633 H 0.88961 1.00024 0.08193 0.0
H634 H 0.86218 0.18048 0.06086 0.0
H635 H 0.85803 0.08567 0.06286 0.0
H636 H 0.86259 0.19863 0.18885 0.0
H637 H 0.86372 0.10357 0.19077 0.0
H638 H 0.89538 0.28164 0.16953 0.0
H639 H 0.89224 0.325 0.13957 0.0
C640 C 0.64054 0.79941 0.88587 0.0
C641 C 0.64071 0.80492 0.85853 0.0
C642 C 0.64616 0.93871 0.86175 0.0
C643 C 0.64102 0.93345 0.88888 0.0
N644 N 0.62641 0.85977 0.92658 0.0
N645 N 0.63706 0.88017 0.82012 0.0
C646 C 0.63657 0.86404 0.90096 0.0
C647 C 0.64201 0.87466 0.84633 0.0
N648 N 0.6455 0.73257 0.89745 0.0
N649 N 0.6561 0.0047 0.85078 0.0
H650 H 0.63361 0.83494 0.80802 0.0
H651 H 0.63257 0.92978 0.81054 0.0
H652 H 0.65958 0.05275 0.86149 0.0
H653 H 0.66478 0.01066 0.8315 0.0
H654 H 0.65011 0.72591 0.91727 0.0
H655 H 0.64918 0.68412 0.88704 0.0
H656 H 0.61785 0.81108 0.9357 0.0
H657 H 0.62279 0.90568 0.93832 0.0
C658 C 0.61626 0.37509 0.90086 0.0
C659 C 0.61373 0.30572 0.88855 0.0
C660 C 0.6154 0.36543 0.84612 0.0
C661 C 0.61435 0.43488 0.85843 0.0
N662 N 0.60563 0.50623 0.89719 0.0
N663 N 0.60273 0.23482 0.84979 0.0
C664 C 0.61236 0.43984 0.88573 0.0
C665 C 0.61086 0.30089 0.86125 0.0
N666 N 0.62468 0.37933 0.92679 0.0
N667 N 0.62306 0.3608 0.82019 0.0
H668 H 0.59886 0.18645 0.86028 0.0
H669 H 0.59584 0.22906 0.83017 0.0
H670 H 0.62745 0.40654 0.80841 0.0
H671 H 0.62901 0.31157 0.81073 0.0
H672 H 0.63178 0.42826 0.93624 0.0
H673 H 0.62845 0.33341 0.93858 0.0
H674 H 0.59941 0.51228 0.91682 0.0
H675 H 0.60225 0.55477 0.88671 0.0
C676 C 0.63347 0.3059 0.3941 0.0
C677 C 0.63526 0.31293 0.36685 0.0
C678 C 0.64377 0.44606 0.37115 0.0
C679 C 0.63677 0.43969 0.39809 0.0
N680 N 0.62008 0.36492 0.43509 0.0
N681 N 0.63723 0.38994 0.3289 0.0
C682 C 0.63061 0.3699 0.40958 0.0
C683 C 0.63946 0.38304 0.35519 0.0
N684 N 0.63586 0.23803 0.40523 0.0
N685 N 0.65563 0.51209 0.36092 0.0
H686 H 0.63434 0.34539 0.31644 0.0
H687 H 0.63483 0.44014 0.31944 0.0
H688 H 0.65921 0.55928 0.37209 0.0
H689 H 0.66569 0.51879 0.34192 0.0
H690 H 0.63922 0.22968 0.42505 0.0
H691 H 0.63854 0.18992 0.39451 0.0
H692 H 0.60989 0.31669 0.4439 0.0
H693 H 0.61837 0.41051 0.44705 0.0
C694 C 0.57297 0.84973 0.39074 0.0
C695 C 0.61262 0.81367 0.3962 0.0
C696 C 0.64998 0.90126 0.36831 0.0
C697 C 0.61172 0.94317 0.36588 0.0
N698 N 0.53803 0.9635 0.37861 0.0
N699 N 0.69071 0.81757 0.39493 0.0
C700 C 0.57345 0.91916 0.37814 0.0
C701 C 0.65169 0.84287 0.38633 0.0
N702 N 0.53475 0.81651 0.39647 0.0
N703 N 0.6842 0.91471 0.35253 0.0
H704 H 0.69416 0.77725 0.40903 0.0
H705 H 0.71977 0.84265 0.39016 0.0
H706 H 0.68332 0.95383 0.33787 0.0
H707 H 0.71131 0.88109 0.35193 0.0
H708 H 0.50498 0.83726 0.39059 0.0
H709 H 0.53282 0.76442 0.40464 0.0
H710 H 0.51083 0.95183 0.38955 0.0
H711 H 0.53736 0.0153 0.37012 0.0
C712 C 0.40585 0.15369 0.14019 0.0
C713 C 0.36704 0.19433 0.14209 0.0
C714 C 0.32941 0.10065 0.11652 0.0
C715 C 0.36935 0.06515 0.11197 0.0
N716 N 0.44723 0.06733 0.1154 0.0
N717 N 0.29332 0.21315 0.12843 0.0
C718 C 0.40804 0.09413 0.12272 0.0
C719 C 0.32911 0.16962 0.1293 0.0
N720 N 0.4403 0.16989 0.15583 0.0
N721 N 0.2916 0.06721 0.10965 0.0
H722 H 0.29204 0.26459 0.13712 0.0
H723 H 0.26636 0.20132 0.11706 0.0
H724 H 0.29031 0.01568 0.10103 0.0
H725 H 0.26146 0.08715 0.11487 0.0
H726 H 0.46745 0.13656 0.15731 0.0
H727 H 0.44019 0.21218 0.16932 0.0
H728 H 0.47631 0.09244 0.12035 0.0
H729 H 0.45096 0.0246 0.10233 0.0
C730 C 0.38873 0.63739 0.1544 0.0
C731 C 0.39249 0.56727 0.14283 0.0
C732 C 0.39585 0.62396 0.09993 0.0
C733 C 0.39493 0.6942 0.11164 0.0
N734 N 0.40013 0.76812 0.15011 0.0
N735 N 0.40887 0.494 0.10546 0.0
C736 C 0.39432 0.70099 0.13893 0.0
C737 C 0.39887 0.56062 0.11583 0.0
N738 N 0.3775 0.64346 0.1798 0.0
N739 N 0.39147 0.61732 0.07372 0.0
H740 H 0.41189 0.44655 0.11659 0.0
H741 H 0.41822 0.48706 0.08634 0.0
H742 H 0.3887 0.66209 0.06131 0.0
H743 H 0.38681 0.56732 0.06445 0.0
H744 H 0.36945 0.69305 0.18842 0.0
H745 H 0.37239 0.59838 0.19178 0.0
H746 H 0.40434 0.77546 0.16992 0.0
H747 H 0.40502 0.81578 0.13939 0.0
C748 C 0.34253 0.69716 0.61553 0.0
C749 C 0.34828 0.6903 0.64264 0.0
C750 C 0.34448 0.55658 0.63881 0.0
C751 C 0.34551 0.56335 0.61153 0.0
N752 N 0.34849 0.64011 0.57351 0.0
N753 N 0.35843 0.61345 0.68025 0.0
C754 C 0.34477 0.63363 0.59971 0.0
C755 C 0.34973 0.62001 0.65441 0.0
N756 N 0.33384 0.76432 0.605 0.0
N757 N 0.33749 0.48948 0.64977 0.0
H758 H 0.3621 0.65815 0.69256 0.0
H759 H 0.36533 0.56369 0.68921 0.0
H760 H 0.33275 0.44209 0.63885 0.0
H761 H 0.33206 0.48187 0.66942 0.0
H762 H 0.32496 0.77198 0.58574 0.0
H763 H 0.33142 0.81183 0.61607 0.0
H764 H 0.35385 0.68978 0.56416 0.0
H765 H 0.34928 0.59538 0.56106 0.0
C766 C 0.37809 0.1205 0.59955 0.0
C767 C 0.38393 0.18986 0.61146 0.0
C768 C 0.38746 0.13059 0.65397 0.0
C769 C 0.38509 0.06098 0.64181 0.0
N770 N 0.38725 0.98908 0.60279 0.0
N771 N 0.40289 0.26009 0.6493 0.0
C772 C 0.38316 0.05576 0.6145 0.0
C773 C 0.39125 0.19466 0.63849 0.0
N774 N 0.36527 0.11638 0.57429 0.0
N775 N 0.38368 0.13608 0.68021 0.0
H776 H 0.40643 0.30801 0.63852 0.0
H777 H 0.41301 0.26536 0.66845 0.0
H778 H 0.37981 0.09088 0.69229 0.0
H779 H 0.38035 0.18585 0.68979 0.0
H780 H 0.35579 0.06778 0.56538 0.0
H781 H 0.36003 0.16256 0.56292 0.0
H782 H 0.39045 0.9828 0.58289 0.0
H783 H 0.39172 0.94048 0.61308 0.0
loop_
_geom_bond_atom_site_label_1
_geom_bond_atom_site_label_2
_geom_bond_distance
_geom_bond_site_symmetry_2
_ccdc_geom_bond_type
In0 O1 2.294 . S
In0 O2 2.326 . S
In0 O6 2.266 . S
In0 O7 2.326 . S
In0 O8 2.266 . S
In0 O9 2.326 . S
In0 O11 2.294 . S
In0 O12 2.326 . S
O1 In0 2.294 . S
O1 C10 1.240 . S
O2 In0 2.326 . S
O2 C10 1.252 . S
C3 O6 1.252 . S
C3 O7 1.260 . S
C4 O11 1.240 . S
C4 O12 1.252 . S
C5 O8 1.252 . S
C5 O9 1.260 . S
O6 In0 2.266 . S
O6 C3 1.252 . S
O7 In0 2.326 . S
O7 C3 1.260 . S
O8 In0 2.266 . S
O8 C5 1.252 . S
O9 In0 2.326 . S
O9 C5 1.260 . S
C10 O1 1.240 . S
C10 O2 1.252 . S
O11 In0 2.294 . S
O11 C4 1.240 . S
O12 In0 2.326 . S
O12 C4 1.252 . S
In13 O14 2.294 . S
In13 O15 2.326 . S
In13 O19 2.266 . S
In13 O20 2.326 . S
In13 O21 2.266 . S
In13 O22 2.326 . S
In13 O24 2.294 . S
In13 O25 2.326 . S
O14 In13 2.294 . S
O14 C23 1.240 . S
O15 In13 2.326 . S
O15 C23 1.252 . S
C16 O19 1.252 . S
C16 O20 1.260 . S
C17 O24 1.240 . S
C17 O25 1.252 . S
C18 O21 1.252 . S
C18 O22 1.260 . S
O19 In13 2.266 . S
O19 C16 1.252 . S
O20 In13 2.326 . S
O20 C16 1.260 . S
O21 In13 2.266 . S
O21 C18 1.252 . S
O22 In13 2.326 . S
O22 C18 1.260 . S
C23 O14 1.240 . S
C23 O15 1.252 . S
O24 In13 2.294 . S
O24 C17 1.240 . S
O25 In13 2.326 . S
O25 C17 1.252 . S
In26 O27 2.294 . S
In26 O28 2.326 . S
In26 O32 2.266 . S
In26 O33 2.326 . S
In26 O34 2.266 . S
In26 O35 2.326 . S
In26 O37 2.294 . S
In26 O38 2.326 . S
O27 In26 2.294 . S
O27 C36 1.240 . S
O28 In26 2.326 . S
O28 C36 1.252 . S
C29 O32 1.252 . S
C29 O33 1.260 . S
C30 O37 1.240 . S
C30 O38 1.252 . S
C31 O34 1.252 . S
C31 O35 1.260 . S
O32 In26 2.266 . S
O32 C29 1.252 . S
O33 In26 2.326 . S
O33 C29 1.260 . S
O34 In26 2.266 . S
O34 C31 1.252 . S
O35 In26 2.326 . S
O35 C31 1.260 . S
C36 O27 1.240 . S
C36 O28 1.252 . S
O37 In26 2.294 . S
O37 C30 1.240 . S
O38 In26 2.326 . S
O38 C30 1.252 . S
In39 O40 2.294 . S
In39 O41 2.326 . S
In39 O45 2.266 . S
In39 O46 2.326 . S
In39 O47 2.266 . S
In39 O48 2.326 . S
In39 O50 2.294 . S
In39 O51 2.326 . S
O40 In39 2.294 . S
O40 C49 1.240 . S
O41 In39 2.326 . S
O41 C49 1.252 . S
C42 O45 1.252 . S
C42 O46 1.260 . S
C43 O50 1.240 . S
C43 O51 1.252 . S
C44 O47 1.252 . S
C44 O48 1.260 . S
O45 In39 2.266 . S
O45 C42 1.252 . S
O46 In39 2.326 . S
O46 C42 1.260 . S
O47 In39 2.266 . S
O47 C44 1.252 . S
O48 In39 2.326 . S
O48 C44 1.260 . S
C49 O40 1.240 . S
C49 O41 1.252 . S
O50 In39 2.294 . S
O50 C43 1.240 . S
O51 In39 2.326 . S
O51 C43 1.252 . S
In52 O53 2.294 . S
In52 O54 2.326 . S
In52 O58 2.266 . S
In52 O59 2.326 . S
In52 O60 2.266 . S
In52 O61 2.326 . S
In52 O63 2.294 . S
In52 O64 2.326 . S
O53 In52 2.294 . S
O53 C62 1.240 . S
O54 In52 2.326 . S
O54 C62 1.252 . S
C55 O58 1.252 . S
C55 O59 1.260 . S
C56 O63 1.240 . S
C56 O64 1.252 . S
C57 O60 1.252 . S
C57 O61 1.260 . S
O58 In52 2.266 . S
O58 C55 1.252 . S
O59 In52 2.326 . S
O59 C55 1.260 . S
O60 In52 2.266 . S
O60 C57 1.252 . S
O61 In52 2.326 . S
O61 C57 1.260 . S
C62 O53 1.240 . S
C62 O54 1.252 . S
O63 In52 2.294 . S
O63 C56 1.240 . S
O64 In52 2.326 . S
O64 C56 1.252 . S
In65 O66 2.294 . S
In65 O67 2.326 . S
In65 O71 2.266 . S
In65 O72 2.326 . S
In65 O73 2.266 . S
In65 O74 2.326 . S
In65 O76 2.294 . S
In65 O77 2.326 . S
O66 In65 2.294 . S
O66 C75 1.240 . S
O67 In65 2.326 . S
O67 C75 1.252 . S
C68 O71 1.252 . S
C68 O72 1.260 . S
C69 O76 1.240 . S
C69 O77 1.252 . S
C70 O73 1.252 . S
C70 O74 1.260 . S
O71 In65 2.266 . S
O71 C68 1.252 . S
O72 In65 2.326 . S
O72 C68 1.260 . S
O73 In65 2.266 . S
O73 C70 1.252 . S
O74 In65 2.326 . S
O74 C70 1.260 . S
C75 O66 1.240 . S
C75 O67 1.252 . S
O76 In65 2.294 . S
O76 C69 1.240 . S
O77 In65 2.326 . S
O77 C69 1.252 . S
In78 O79 2.294 . S
In78 O80 2.326 . S
In78 O84 2.266 . S
In78 O85 2.326 . S
In78 O86 2.266 . S
In78 O87 2.326 . S
In78 O89 2.294 . S
In78 O90 2.326 . S
O79 In78 2.294 . S
O79 C88 1.240 . S
O80 In78 2.326 . S
O80 C88 1.252 . S
C81 O84 1.252 . S
C81 O85 1.260 . S
C82 O89 1.240 . S
C82 O90 1.252 . S
C83 O86 1.252 . S
C83 O87 1.260 . S
O84 In78 2.266 . S
O84 C81 1.252 . S
O85 In78 2.326 . S
O85 C81 1.260 . S
O86 In78 2.266 . S
O86 C83 1.252 . S
O87 In78 2.326 . S
O87 C83 1.260 . S
C88 O79 1.240 . S
C88 O80 1.252 . S
O89 In78 2.294 . S
O89 C82 1.240 . S
O90 In78 2.326 . S
O90 C82 1.252 . S
In91 O92 2.294 . S
In91 O93 2.326 . S
In91 O97 2.266 . S
In91 O98 2.326 . S
In91 O99 2.266 . S
In91 O100 2.326 . S
In91 O102 2.294 . S
In91 O103 2.326 . S
O92 In91 2.294 . S
O92 C101 1.240 . S
O93 In91 2.326 . S
O93 C101 1.252 . S
C94 O97 1.252 . S
C94 O98 1.260 . S
C95 O102 1.240 . S
C95 O103 1.252 . S
C96 O99 1.252 . S
C96 O100 1.260 . S
O97 In91 2.266 . S
O97 C94 1.252 . S
O98 In91 2.326 . S
O98 C94 1.260 . S
O99 In91 2.266 . S
O99 C96 1.252 . S
O100 In91 2.326 . S
O100 C96 1.260 . S
C101 O92 1.240 . S
C101 O93 1.252 . S
O102 In91 2.294 . S
O102 C95 1.240 . S
O103 In91 2.326 . S
O103 C95 1.252 . S
In104 O105 2.294 . S
In104 O106 2.326 . S
In104 O110 2.266 . S
In104 O111 2.326 . S
In104 O112 2.266 . S
In104 O113 2.326 . S
In104 O115 2.294 . S
In104 O116 2.326 . S
O105 In104 2.294 . S
O105 C114 1.240 . S
O106 In104 2.326 . S
O106 C114 1.252 . S
C107 O110 1.252 . S
C107 O111 1.260 . S
C108 O115 1.240 . S
C108 O116 1.252 . S
C109 O112 1.252 . S
C109 O113 1.260 . S
O110 In104 2.266 . S
O110 C107 1.252 . S
O111 In104 2.326 . S
O111 C107 1.260 . S
O112 In104 2.266 . S
O112 C109 1.252 . S
O113 In104 2.326 . S
O113 C109 1.260 . S
C114 O105 1.240 . S
C114 O106 1.252 . S
O115 In104 2.294 . S
O115 C108 1.240 . S
O116 In104 2.326 . S
O116 C108 1.252 . S
In117 O118 2.294 . S
In117 O119 2.326 . S
In117 O123 2.266 . S
In117 O124 2.326 . S
In117 O125 2.266 . S
In117 O126 2.326 . S
In117 O128 2.294 . S
In117 O129 2.326 . S
O118 In117 2.294 . S
O118 C127 1.240 . S
O119 In117 2.326 . S
O119 C127 1.252 . S
C120 O123 1.252 . S
C120 O124 1.260 . S
C121 O128 1.240 . S
C121 O129 1.252 . S
C122 O125 1.252 . S
C122 O126 1.260 . S
O123 In117 2.266 . S
O123 C120 1.252 . S
O124 In117 2.326 . S
O124 C120 1.260 . S
O125 In117 2.266 . S
O125 C122 1.252 . S
O126 In117 2.326 . S
O126 C122 1.260 . S
C127 O118 1.240 . S
C127 O119 1.252 . S
O128 In117 2.294 . S
O128 C121 1.240 . S
O129 In117 2.326 . S
O129 C121 1.252 . S
In130 O131 2.294 . S
In130 O132 2.326 . S
In130 O136 2.266 . S
In130 O137 2.326 . S
In130 O138 2.266 . S
In130 O139 2.326 . S
In130 O141 2.294 . S
In130 O142 2.326 . S
O131 In130 2.294 . S
O131 C140 1.240 . S
O132 In130 2.326 . S
O132 C140 1.252 . S
C133 O136 1.252 . S
C133 O137 1.260 . S
C134 O141 1.240 . S
C134 O142 1.252 . S
C135 O138 1.252 . S
C135 O139 1.260 . S
O136 In130 2.266 . S
O136 C133 1.252 . S
O137 In130 2.326 . S
O137 C133 1.260 . S
O138 In130 2.266 . S
O138 C135 1.252 . S
O139 In130 2.326 . S
O139 C135 1.260 . S
C140 O131 1.240 . S
C140 O132 1.252 . S
O141 In130 2.294 . S
O141 C134 1.240 . S
O142 In130 2.326 . S
O142 C134 1.252 . S
In143 O144 2.294 . S
In143 O145 2.326 . S
In143 O149 2.266 . S
In143 O150 2.326 . S
In143 O151 2.266 . S
In143 O152 2.326 . S
In143 O154 2.294 . S
In143 O155 2.326 . S
O144 In143 2.294 . S
O144 C153 1.240 . S
O145 In143 2.326 . S
O145 C153 1.252 . S
C146 O149 1.252 . S
C146 O150 1.260 . S
C147 O154 1.240 . S
C147 O155 1.252 . S
C148 O151 1.252 . S
C148 O152 1.260 . S
O149 In143 2.266 . S
O149 C146 1.252 . S
O150 In143 2.326 . S
O150 C146 1.260 . S
O151 In143 2.266 . S
O151 C148 1.252 . S
O152 In143 2.326 . S
O152 C148 1.260 . S
C153 O144 1.240 . S
C153 O145 1.252 . S
O154 In143 2.294 . S
O154 C147 1.240 . S
O155 In143 2.326 . S
O155 C147 1.252 . S
In156 O157 2.294 . S
In156 O158 2.326 . S
In156 O162 2.266 . S
In156 O163 2.326 . S
In156 O164 2.266 . S
In156 O165 2.326 . S
In156 O167 2.294 . S
In156 O168 2.326 . S
O157 In156 2.294 . S
O157 C166 1.240 . S
O158 In156 2.326 . S
O158 C166 1.252 . S
C159 O162 1.252 . S
C159 O163 1.260 . S
C160 O167 1.240 . S
C160 O168 1.252 . S
C161 O164 1.252 . S
C161 O165 1.260 . S
O162 In156 2.266 . S
O162 C159 1.252 . S
O163 In156 2.326 . S
O163 C159 1.260 . S
O164 In156 2.266 . S
O164 C161 1.252 . S
O165 In156 2.326 . S
O165 C161 1.260 . S
C166 O157 1.240 . S
C166 O158 1.252 . S
O167 In156 2.294 . S
O167 C160 1.240 . S
O168 In156 2.326 . S
O168 C160 1.252 . S
In169 O170 2.294 . S
In169 O171 2.326 . S
In169 O175 2.266 . S
In169 O176 2.326 . S
In169 O177 2.266 . S
In169 O178 2.326 . S
In169 O180 2.294 . S
In169 O181 2.326 . S
O170 In169 2.294 . S
O170 C179 1.240 . S
O171 In169 2.326 . S
O171 C179 1.252 . S
C172 O175 1.252 . S
C172 O176 1.260 . S
C173 O180 1.240 . S
C173 O181 1.252 . S
C174 O177 1.252 . S
C174 O178 1.260 . S
O175 In169 2.266 . S
O175 C172 1.252 . S
O176 In169 2.326 . S
O176 C172 1.260 . S
O177 In169 2.266 . S
O177 C174 1.252 . S
O178 In169 2.326 . S
O178 C174 1.260 . S
C179 O170 1.240 . S
C179 O171 1.252 . S
O180 In169 2.294 . S
O180 C173 1.240 . S
O181 In169 2.326 . S
O181 C173 1.252 . S
In182 O183 2.294 . S
In182 O184 2.326 . S
In182 O188 2.266 . S
In182 O189 2.326 . S
In182 O190 2.266 . S
In182 O191 2.326 . S
In182 O193 2.294 . S
In182 O194 2.326 . S
O183 In182 2.294 . S
O183 C192 1.240 . S
O184 In182 2.326 . S
O184 C192 1.252 . S
C185 O188 1.252 . S
C185 O189 1.260 . S
C186 O193 1.240 . S
C186 O194 1.252 . S
C187 O190 1.252 . S
C187 O191 1.260 . S
O188 In182 2.266 . S
O188 C185 1.252 . S
O189 In182 2.326 . S
O189 C185 1.260 . S
O190 In182 2.266 . S
O190 C187 1.252 . S
O191 In182 2.326 . S
O191 C187 1.260 . S
C192 O183 1.240 . S
C192 O184 1.252 . S
O193 In182 2.294 . S
O193 C186 1.240 . S
O194 In182 2.326 . S
O194 C186 1.252 . S
In195 O196 2.294 . S
In195 O197 2.326 . S
In195 O201 2.266 . S
In195 O202 2.326 . S
In195 O203 2.266 . S
In195 O204 2.326 . S
In195 O206 2.294 . S
In195 O207 2.326 . S
O196 In195 2.294 . S
O196 C205 1.240 . S
O197 In195 2.326 . S
O197 C205 1.252 . S
C198 O201 1.252 . S
C198 O202 1.260 . S
C199 O206 1.240 . S
C199 O207 1.252 . S
C200 O203 1.252 . S
C200 O204 1.260 . S
O201 In195 2.266 . S
O201 C198 1.252 . S
O202 In195 2.326 . S
O202 C198 1.260 . S
O203 In195 2.266 . S
O203 C200 1.252 . S
O204 In195 2.326 . S
O204 C200 1.260 . S
C205 O196 1.240 . S
C205 O197 1.252 . S
O206 In195 2.294 . S
O206 C199 1.240 . S
O207 In195 2.326 . S
O207 C199 1.252 . S
C208 C209 1.363 . S
C208 C214 1.379 . S
C208 N216 1.356 . S
C209 C208 1.363 . S
C209 C215 1.363 . S
C210 C211 1.363 . S
C210 C215 1.379 . S
C210 N217 1.356 . S
C211 C210 1.363 . S
C211 C214 1.363 . S
N212 C214 1.356 . S
N212 H224 0.984 . S
N212 H225 0.985 . S
N213 C215 1.356 . S
N213 H218 0.984 . S
N213 H219 0.985 . S
C214 C208 1.379 . S
C214 C211 1.363 . S
C214 N212 1.356 . S
C215 C209 1.363 . S
C215 C210 1.379 . S
C215 N213 1.356 . S
N216 C208 1.356 . S
N216 H222 0.984 . S
N216 H223 0.984 . S
N217 C210 1.356 . S
N217 H220 0.984 . S
N217 H221 0.985 . S
H218 N213 0.984 . S
H219 N213 0.985 . S
H220 N217 0.984 . S
H221 N217 0.985 . S
H222 N216 0.984 . S
H223 N216 0.984 . S
H224 N212 0.984 . S
H225 N212 0.985 . S
C226 C227 1.363 1_545 S
C226 C232 1.379 . S
C226 N234 1.356 . S
C227 C226 1.363 1_565 S
C227 C233 1.363 1_655 S
C228 C229 1.363 1_565 S
C228 C233 1.379 . S
C228 N235 1.356 . S
C229 C228 1.363 1_545 S
C229 C232 1.363 1_455 S
N230 C232 1.356 . S
N230 H242 0.984 . S
N230 H243 0.985 1_655 S
N231 C233 1.356 . S
N231 H236 0.984 1_455 S
N231 H237 0.985 . S
C232 C226 1.379 . S
C232 C229 1.363 1_655 S
C232 N230 1.356 . S
C233 C227 1.363 1_455 S
C233 C228 1.379 . S
C233 N231 1.356 . S
N234 C226 1.356 . S
N234 H240 0.984 . S
N234 H241 0.984 1_545 S
N235 C228 1.356 . S
N235 H238 0.984 1_565 S
N235 H239 0.985 . S
H236 N231 0.984 1_655 S
H237 N231 0.985 . S
H238 N235 0.984 1_545 S
H239 N235 0.985 . S
H240 N234 0.984 . S
H241 N234 0.984 1_565 S
H242 N230 0.984 . S
H243 N230 0.985 1_455 S
C244 C245 1.363 1_545 S
C244 C250 1.379 . S
C244 N252 1.356 . S
C245 C244 1.363 1_565 S
C245 C251 1.363 . S
C246 C247 1.363 1_565 S
C246 C251 1.379 . S
C246 N253 1.356 . S
C247 C246 1.363 1_545 S
C247 C250 1.363 . S
N248 C250 1.356 . S
N248 H260 0.984 . S
N248 H261 0.985 . S
N249 C251 1.356 . S
N249 H254 0.984 . S
N249 H255 0.985 . S
C250 C244 1.379 . S
C250 C247 1.363 . S
C250 N248 1.356 . S
C251 C245 1.363 . S
C251 C246 1.379 . S
C251 N249 1.356 . S
N252 C244 1.356 . S
N252 H258 0.984 . S
N252 H259 0.984 . S
N253 C246 1.356 . S
N253 H256 0.984 . S
N253 H257 0.985 . S
H254 N249 0.984 . S
H255 N249 0.985 . S
H256 N253 0.984 . S
H257 N253 0.985 . S
H258 N252 0.984 . S
H259 N252 0.984 . S
H260 N248 0.984 . S
H261 N248 0.985 . S
C262 C263 1.363 . S
C262 C268 1.379 1_455 S
C262 N270 1.356 . S
C263 C262 1.363 . S
C263 C269 1.363 . S
C264 C265 1.363 . S
C264 C269 1.379 1_655 S
C264 N271 1.356 . S
C265 C264 1.363 . S
C265 C268 1.363 . S
N266 C268 1.356 . S
N266 H278 0.984 . S
N266 H279 0.985 . S
N267 C269 1.356 . S
N267 H272 0.984 . S
N267 H273 0.985 . S
C268 C262 1.379 1_655 S
C268 C265 1.363 . S
C268 N266 1.356 . S
C269 C263 1.363 . S
C269 C264 1.379 1_455 S
C269 N267 1.356 . S
N270 C262 1.356 . S
N270 H276 0.984 . S
N270 H277 0.984 . S
N271 C264 1.356 . S
N271 H274 0.984 . S
N271 H275 0.985 . S
H272 N267 0.984 . S
H273 N267 0.985 . S
H274 N271 0.984 . S
H275 N271 0.985 . S
H276 N270 0.984 . S
H277 N270 0.984 . S
H278 N266 0.984 . S
H279 N266 0.985 . S
C280 C281 1.363 . S
C280 C286 1.379 . S
C280 N288 1.356 . S
C281 C280 1.363 . S
C281 C287 1.363 . S
C282 C283 1.363 . S
C282 C287 1.379 . S
C282 N289 1.356 . S
C283 C282 1.363 . S
C283 C286 1.363 . S
N284 C286 1.356 . S
N284 H296 0.984 . S
N284 H297 0.985 . S
N285 C287 1.356 . S
N285 H290 0.984 . S
N285 H291 0.985 . S
C286 C280 1.379 . S
C286 C283 1.363 . S
C286 N284 1.356 . S
C287 C281 1.363 . S
C287 C282 1.379 . S
C287 N285 1.356 . S
N288 C280 1.356 . S
N288 H294 0.984 . S
N288 H295 0.984 . S
N289 C282 1.356 . S
N289 H292 0.984 . S
N289 H293 0.985 . S
H290 N285 0.984 . S
H291 N285 0.985 . S
H292 N289 0.984 . S
H293 N289 0.985 . S
H294 N288 0.984 . S
H295 N288 0.984 . S
H296 N284 0.984 . S
H297 N284 0.985 . S
C298 C299 1.363 . S
C298 C304 1.379 1_545 S
C298 N306 1.356 . S
C299 C298 1.363 . S
C299 C305 1.363 . S
C300 C301 1.363 . S
C300 C305 1.379 1_565 S
C300 N307 1.356 . S
C301 C300 1.363 . S
C301 C304 1.363 . S
N302 C304 1.356 . S
N302 H314 0.986 . S
N302 H315 0.985 . S
N303 C305 1.356 . S
N303 H308 0.984 . S
N303 H309 0.986 . S
C304 C298 1.379 1_565 S
C304 C301 1.363 . S
C304 N302 1.356 . S
C305 C299 1.363 . S
C305 C300 1.379 1_545 S
C305 N303 1.356 . S
N306 C298 1.356 . S
N306 H312 0.984 . S
N306 H313 0.984 . S
N307 C300 1.356 . S
N307 H310 0.984 . S
N307 H311 0.985 . S
H308 N303 0.984 . S
H309 N303 0.986 . S
H310 N307 0.984 . S
H311 N307 0.985 . S
H312 N306 0.984 . S
H313 N306 0.984 . S
H314 N302 0.986 . S
H315 N302 0.985 . S
C316 C317 1.363 . S
C316 C322 1.379 . S
C316 N324 1.356 . S
C317 C316 1.363 . S
C317 C323 1.363 1_655 S
C318 C319 1.363 . S
C318 C323 1.379 . S
C318 N325 1.356 . S
C319 C318 1.363 . S
C319 C322 1.363 1_455 S
N320 C322 1.356 . S
N320 H332 0.984 . S
N320 H333 0.985 1_655 S
N321 C323 1.356 . S
N321 H326 0.984 1_455 S
N321 H327 0.985 . S
C322 C316 1.379 . S
C322 C319 1.363 1_655 S
C322 N320 1.356 . S
C323 C317 1.363 1_455 S
C323 C318 1.379 . S
C323 N321 1.356 . S
N324 C316 1.356 . S
N324 H330 0.984 . S
N324 H331 0.984 . S
N325 C318 1.356 . S
N325 H328 0.984 . S
N325 H329 0.985 . S
H326 N321 0.984 1_655 S
H327 N321 0.985 . S
H328 N325 0.984 . S
H329 N325 0.985 . S
H330 N324 0.984 . S
H331 N324 0.984 . S
H332 N320 0.984 . S
H333 N320 0.985 1_455 S
C334 C335 1.389 . S
C334 C340 1.353 1_554 S
C334 N342 1.367 . S
C335 C334 1.389 . S
C335 C341 1.363 . S
C336 C337 1.389 . S
C336 C341 1.353 1_556 S
C336 N343 1.367 . S
C337 C336 1.389 . S
C337 C340 1.363 . S
N338 C340 1.356 . S
N338 H350 0.984 . S
N338 H351 0.985 . S
N339 C341 1.356 . S
N339 H344 0.984 . S
N339 H345 0.985 . S
C340 C334 1.353 1_556 S
C340 C337 1.363 . S
C340 N338 1.356 . S
C341 C335 1.363 . S
C341 C336 1.353 1_554 S
C341 N339 1.356 . S
N342 C334 1.367 . S
N342 H348 0.984 1_554 S
N342 H349 0.984 . S
N343 C336 1.367 . S
N343 H346 0.984 . S
N343 H347 0.985 1_556 S
H344 N339 0.984 . S
H345 N339 0.985 . S
H346 N343 0.984 . S
H347 N343 0.985 1_554 S
H348 N342 0.984 1_556 S
H349 N342 0.984 . S
H350 N338 0.984 . S
H351 N338 0.985 . S
C352 C353 1.363 . S
C352 C358 1.363 1_456 S
C352 N360 1.356 . S
C353 C352 1.363 . S
C353 C359 1.379 . S
C354 C355 1.363 . S
C354 C359 1.363 1_654 S
C354 N361 1.356 . S
C355 C354 1.363 . S
C355 C358 1.379 . S
N356 C358 1.362 . S
N356 H368 0.984 1_655 S
N356 H369 0.985 . S
N357 C359 1.362 . S
N357 H362 0.984 . S
N357 H363 0.985 1_455 S
C358 C352 1.363 1_654 S
C358 C355 1.379 . S
C358 N356 1.362 . S
C359 C353 1.379 . S
C359 C354 1.363 1_456 S
C359 N357 1.362 . S
N360 C352 1.356 . S
N360 H366 0.984 . S
N360 H367 0.984 . S
N361 C354 1.356 . S
N361 H364 0.984 . S
N361 H365 0.985 . S
H362 N357 0.984 . S
H363 N357 0.985 1_655 S
H364 N361 0.984 . S
H365 N361 0.985 . S
H366 N360 0.984 . S
H367 N360 0.984 . S
H368 N356 0.984 1_455 S
H369 N356 0.985 . S
C370 C371 1.363 . S
C370 C376 1.379 . S
C370 N378 1.356 . S
C371 C370 1.363 . S
C371 C377 1.363 . S
C372 C373 1.363 . S
C372 C377 1.379 . S
C372 N379 1.356 . S
C373 C372 1.363 . S
C373 C376 1.363 . S
N374 C376 1.356 . S
N374 H386 0.984 . S
N374 H387 0.985 . S
N375 C377 1.356 . S
N375 H380 0.984 . S
N375 H381 0.985 . S
C376 C370 1.379 . S
C376 C373 1.363 . S
C376 N374 1.356 . S
C377 C371 1.363 . S
C377 C372 1.379 . S
C377 N375 1.356 . S
N378 C370 1.356 . S
N378 H384 0.984 . S
N378 H385 0.984 . S
N379 C372 1.356 . S
N379 H382 0.984 . S
N379 H383 0.985 . S
H380 N375 0.984 . S
H381 N375 0.985 . S
H382 N379 0.984 . S
H383 N379 0.985 . S
H384 N378 0.984 . S
H385 N378 0.984 . S
H386 N374 0.984 . S
H387 N374 0.985 . S
C388 C389 1.363 1_554 S
C388 C394 1.379 . S
C388 N396 1.356 . S
C389 C388 1.363 1_556 S
C389 C395 1.363 . S
C390 C391 1.363 1_556 S
C390 C395 1.379 . S
C390 N397 1.356 . S
C391 C390 1.363 1_554 S
C391 C394 1.363 . S
N392 C394 1.356 . S
N392 H404 0.984 . S
N392 H405 0.985 . S
N393 C395 1.356 . S
N393 H398 0.984 . S
N393 H399 0.985 . S
C394 C388 1.379 . S
C394 C391 1.363 . S
C394 N392 1.356 . S
C395 C389 1.363 . S
C395 C390 1.379 . S
C395 N393 1.356 . S
N396 C388 1.356 . S
N396 H402 0.984 . S
N396 H403 0.984 1_554 S
N397 C390 1.356 . S
N397 H400 0.984 1_556 S
N397 H401 0.985 . S
H398 N393 0.984 . S
H399 N393 0.985 . S
H400 N397 0.984 1_554 S
H401 N397 0.985 . S
H402 N396 0.984 . S
H403 N396 0.984 1_556 S
H404 N392 0.984 . S
H405 N392 0.985 . S
C406 C407 1.363 . S
C406 C412 1.379 . S
C406 N414 1.356 . S
C407 C406 1.363 . S
C407 C413 1.363 . S
C408 C409 1.363 . S
C408 C413 1.379 . S
C408 N415 1.356 . S
C409 C408 1.363 . S
C409 C412 1.363 . S
N410 C412 1.356 . S
N410 H422 0.984 . S
N410 H423 0.985 . S
N411 C413 1.356 . S
N411 H416 0.984 . S
N411 H417 0.985 . S
C412 C406 1.379 . S
C412 C409 1.363 . S
C412 N410 1.356 . S
C413 C407 1.363 . S
C413 C408 1.379 . S
C413 N411 1.356 . S
N414 C406 1.356 . S
N414 H420 0.984 . S
N414 H421 0.984 . S
N415 C408 1.356 . S
N415 H418 0.984 . S
N415 H419 0.985 . S
H416 N411 0.984 . S
H417 N411 0.985 . S
H418 N415 0.984 . S
H419 N415 0.985 . S
H420 N414 0.984 . S
H421 N414 0.984 . S
H422 N410 0.984 . S
H423 N410 0.985 . S
C424 C425 1.363 1_554 S
C424 C430 1.379 . S
C424 N432 1.356 . S
C425 C424 1.363 1_556 S
C425 C431 1.363 1_545 S
C426 C427 1.363 1_556 S
C426 C431 1.379 . S
C426 N433 1.356 . S
C427 C426 1.363 1_554 S
C427 C430 1.363 1_565 S
N428 C430 1.356 . S
N428 H440 0.984 . S
N428 H441 0.980 1_545 S
N429 C431 1.356 . S
N429 H434 0.980 1_565 S
N429 H435 0.985 . S
C430 C424 1.379 . S
C430 C427 1.363 1_545 S
C430 N428 1.356 . S
C431 C425 1.363 1_565 S
C431 C426 1.379 . S
C431 N429 1.356 . S
N432 C424 1.356 . S
N432 H438 0.984 . S
N432 H439 0.984 1_554 S
N433 C426 1.356 . S
N433 H436 0.984 1_556 S
N433 H437 0.985 . S
H434 N429 0.980 1_545 S
H435 N429 0.985 . S
H436 N433 0.984 1_554 S
H437 N433 0.985 . S
H438 N432 0.984 . S
H439 N432 0.984 1_556 S
H440 N428 0.984 . S
H441 N428 0.980 1_565 S
C442 C443 1.363 . S
C442 C448 1.379 . S
C442 N450 1.356 . S
C443 C442 1.363 . S
C443 C449 1.363 . S
C444 C445 1.363 . S
C444 C449 1.379 . S
C444 N451 1.356 . S
C445 C444 1.363 . S
C445 C448 1.363 . S
N446 C448 1.356 . S
N446 H458 0.984 . S
N446 H459 0.985 . S
N447 C449 1.356 . S
N447 H452 0.984 . S
N447 H453 0.985 . S
C448 C442 1.379 . S
C448 C445 1.363 . S
C448 N446 1.356 . S
C449 C443 1.363 . S
C449 C444 1.379 . S
C449 N447 1.356 . S
N450 C442 1.356 . S
N450 H456 0.984 . S
N450 H457 0.984 . S
N451 C444 1.356 . S
N451 H454 0.984 . S
N451 H455 0.985 . S
H452 N447 0.984 . S
H453 N447 0.985 . S
H454 N451 0.984 . S
H455 N451 0.985 . S
H456 N450 0.984 . S
H457 N450 0.984 . S
H458 N446 0.984 . S
H459 N446 0.985 . S
C460 C461 1.363 . S
C460 C466 1.379 . S
C460 N468 1.356 . S
C461 C460 1.363 . S
C461 C467 1.363 . S
C462 C463 1.363 . S
C462 C467 1.379 . S
C462 N469 1.356 . S
C463 C462 1.363 . S
C463 C466 1.363 . S
N464 C466 1.356 . S
N464 H476 0.984 . S
N464 H477 0.985 . S
N465 C467 1.356 . S
N465 H470 0.984 . S
N465 H471 0.985 . S
C466 C460 1.379 . S
C466 C463 1.363 . S
C466 N464 1.356 . S
C467 C461 1.363 . S
C467 C462 1.379 . S
C467 N465 1.356 . S
N468 C460 1.356 . S
N468 H474 0.984 . S
N468 H475 0.984 . S
N469 C462 1.356 . S
N469 H472 0.984 . S
N469 H473 0.985 . S
H470 N465 0.984 . S
H471 N465 0.985 . S
H472 N469 0.984 . S
H473 N469 0.985 . S
H474 N468 0.984 . S
H475 N468 0.984 . S
H476 N464 0.984 . S
H477 N464 0.985 . S
C478 C479 1.363 . S
C478 C484 1.379 . S
C478 N486 1.356 . S
C479 C478 1.363 . S
C479 C485 1.363 . S
C480 C481 1.363 . S
C480 C485 1.379 . S
C480 N487 1.356 . S
C481 C480 1.363 . S
C481 C484 1.363 . S
N482 C484 1.356 . S
N482 H494 0.984 . S
N482 H495 0.985 . S
N483 C485 1.356 . S
N483 H488 0.984 . S
N483 H489 0.985 . S
C484 C478 1.379 . S
C484 C481 1.363 . S
C484 N482 1.356 . S
C485 C479 1.363 . S
C485 C480 1.379 . S
C485 N483 1.356 . S
N486 C478 1.356 . S
N486 H492 0.984 . S
N486 H493 0.984 . S
N487 C480 1.356 . S
N487 H490 0.984 . S
N487 H491 0.985 . S
H488 N483 0.984 . S
H489 N483 0.985 . S
H490 N487 0.984 . S
H491 N487 0.985 . S
H492 N486 0.984 . S
H493 N486 0.984 . S
H494 N482 0.984 . S
H495 N482 0.985 . S
C496 C497 1.363 . S
C496 C502 1.379 . S
C496 N504 1.356 . S
C497 C496 1.363 . S
C497 C503 1.363 . S
C498 C499 1.363 . S
C498 C503 1.379 . S
C498 N505 1.356 . S
C499 C498 1.363 . S
C499 C502 1.363 . S
N500 C502 1.356 1_545 S
N500 H512 0.984 . S
N500 H513 0.985 . S
N501 C503 1.356 . S
N501 H506 0.984 . S
N501 H507 0.985 . S
C502 C496 1.379 . S
C502 C499 1.363 . S
C502 N500 1.356 1_565 S
C503 C497 1.363 . S
C503 C498 1.379 . S
C503 N501 1.356 . S
N504 C496 1.356 . S
N504 H510 0.984 . S
N504 H511 0.984 . S
N505 C498 1.356 . S
N505 H508 0.984 . S
N505 H509 0.985 . S
H506 N501 0.984 . S
H507 N501 0.985 . S
H508 N505 0.984 . S
H509 N505 0.985 . S
H510 N504 0.984 . S
H511 N504 0.984 . S
H512 N500 0.984 . S
H513 N500 0.985 . S
C514 C515 1.363 . S
C514 C520 1.379 . S
C514 N522 1.356 . S
C515 C514 1.363 . S
C515 C521 1.363 . S
C516 C517 1.363 . S
C516 C521 1.379 . S
C516 N523 1.356 . S
C517 C516 1.363 . S
C517 C520 1.363 . S
N518 C520 1.356 . S
N518 H530 0.984 . S
N518 H531 0.985 . S
N519 C521 1.356 . S
N519 H524 0.984 . S
N519 H525 0.985 . S
C520 C514 1.379 . S
C520 C517 1.363 . S
C520 N518 1.356 . S
C521 C515 1.363 . S
C521 C516 1.379 . S
C521 N519 1.356 . S
N522 C514 1.356 . S
N522 H528 0.984 . S
N522 H529 0.984 . S
N523 C516 1.356 . S
N523 H526 0.984 . S
N523 H527 0.985 . S
H524 N519 0.984 . S
H525 N519 0.985 . S
H526 N523 0.984 . S
H527 N523 0.985 . S
H528 N522 0.984 . S
H529 N522 0.984 . S
H530 N518 0.984 . S
H531 N518 0.985 . S
C532 C533 1.363 . S
C532 C538 1.379 . S
C532 N540 1.356 . S
C533 C532 1.363 . S
C533 C539 1.363 . S
C534 C535 1.363 . S
C534 C539 1.379 . S
C534 N541 1.356 . S
C535 C534 1.363 . S
C535 C538 1.363 . S
N536 C538 1.356 . S
N536 H548 0.984 . S
N536 H549 0.985 . S
N537 C539 1.356 . S
N537 H542 0.984 . S
N537 H543 0.985 . S
C538 C532 1.379 . S
C538 C535 1.363 . S
C538 N536 1.356 . S
C539 C533 1.363 . S
C539 C534 1.379 . S
C539 N537 1.356 . S
N540 C532 1.356 . S
N540 H546 0.984 . S
N540 H547 0.984 . S
N541 C534 1.356 . S
N541 H544 0.984 . S
N541 H545 0.985 . S
H542 N537 0.984 . S
H543 N537 0.985 . S
H544 N541 0.984 . S
H545 N541 0.985 . S
H546 N540 0.984 . S
H547 N540 0.984 . S
H548 N536 0.984 . S
H549 N536 0.985 . S
C550 C551 1.363 . S
C550 C556 1.379 . S
C550 N558 1.356 . S
C551 C550 1.363 . S
C551 C557 1.363 . S
C552 C553 1.363 . S
C552 C557 1.379 . S
C552 N559 1.356 . S
C553 C552 1.363 . S
C553 C556 1.363 . S
N554 C556 1.356 . S
N554 H566 0.984 1_565 S
N554 H567 0.985 1_565 S
N555 C557 1.356 . S
N555 H560 0.984 . S
N555 H561 0.985 . S
C556 C550 1.379 . S
C556 C553 1.363 . S
C556 N554 1.356 . S
C557 C551 1.363 . S
C557 C552 1.379 . S
C557 N555 1.356 . S
N558 C550 1.356 . S
N558 H564 0.984 . S
N558 H565 0.984 . S
N559 C552 1.356 . S
N559 H562 0.984 . S
N559 H563 0.985 . S
H560 N555 0.984 . S
H561 N555 0.985 . S
H562 N559 0.984 . S
H563 N559 0.985 . S
H564 N558 0.984 . S
H565 N558 0.984 . S
H566 N554 0.984 1_545 S
H567 N554 0.985 1_545 S
C568 C569 1.363 . S
C568 C574 1.379 . S
C568 N576 1.356 . S
C569 C568 1.363 . S
C569 C575 1.363 . S
C570 C571 1.363 . S
C570 C575 1.379 . S
C570 N577 1.356 . S
C571 C570 1.363 . S
C571 C574 1.363 . S
N572 C574 1.356 1_565 S
N572 H584 0.984 . S
N572 H585 0.985 . S
N573 C575 1.356 . S
N573 H578 0.984 . S
N573 H579 0.985 . S
C574 C568 1.379 . S
C574 C571 1.363 . S
C574 N572 1.356 1_545 S
C575 C569 1.363 . S
C575 C570 1.379 . S
C575 N573 1.356 . S
N576 C568 1.356 . S
N576 H582 0.984 . S
N576 H583 0.984 . S
N577 C570 1.356 . S
N577 H580 0.984 . S
N577 H581 0.985 . S
H578 N573 0.984 . S
H579 N573 0.985 . S
H580 N577 0.984 . S
H581 N577 0.985 . S
H582 N576 0.984 . S
H583 N576 0.984 . S
H584 N572 0.984 . S
H585 N572 0.985 . S
C586 C587 1.363 . S
C586 C592 1.379 . S
C586 N594 1.356 . S
C587 C586 1.363 . S
C587 C593 1.363 . S
C588 C589 1.363 . S
C588 C593 1.379 . S
C588 N595 1.356 . S
C589 C588 1.363 . S
C589 C592 1.363 . S
N590 C592 1.356 . S
N590 H602 0.984 . S
N590 H603 0.985 . S
N591 C593 1.356 . S
N591 H596 0.984 . S
N591 H597 0.985 . S
C592 C586 1.379 . S
C592 C589 1.363 . S
C592 N590 1.356 . S
C593 C587 1.363 . S
C593 C588 1.379 . S
C593 N591 1.356 . S
N594 C586 1.356 . S
N594 H600 0.984 . S
N594 H601 0.984 . S
N595 C588 1.356 . S
N595 H598 0.984 . S
N595 H599 0.985 . S
H596 N591 0.984 . S
H597 N591 0.985 . S
H598 N595 0.984 . S
H599 N595 0.985 . S
H600 N594 0.984 . S
H601 N594 0.984 . S
H602 N590 0.984 . S
H603 N590 0.985 . S
C604 C605 1.363 . S
C604 C610 1.379 . S
C604 N612 1.356 . S
C605 C604 1.363 . S
C605 C611 1.363 . S
C606 C607 1.363 . S
C606 C611 1.379 . S
C606 N613 1.356 . S
C607 C606 1.363 . S
C607 C610 1.363 . S
N608 C610 1.356 . S
N608 H620 0.984 . S
N608 H621 0.985 . S
N609 C611 1.356 . S
N609 H614 0.984 . S
N609 H615 0.985 . S
C610 C604 1.379 . S
C610 C607 1.363 . S
C610 N608 1.356 . S
C611 C605 1.363 . S
C611 C606 1.379 . S
C611 N609 1.356 . S
N612 C604 1.356 . S
N612 H618 0.984 . S
N612 H619 0.984 . S
N613 C606 1.356 . S
N613 H616 0.984 . S
N613 H617 0.985 . S
H614 N609 0.984 . S
H615 N609 0.985 . S
H616 N613 0.984 . S
H617 N613 0.985 . S
H618 N612 0.984 . S
H619 N612 0.984 . S
H620 N608 0.984 . S
H621 N608 0.985 . S
C622 C623 1.363 . S
C622 C628 1.379 . S
C622 N630 1.356 . S
C623 C622 1.363 . S
C623 C629 1.363 . S
C624 C625 1.363 . S
C624 C629 1.379 . S
C624 N631 1.356 . S
C625 C624 1.363 . S
C625 C628 1.363 . S
N626 C628 1.356 . S
N626 H638 0.984 . S
N626 H639 0.985 . S
N627 C629 1.356 . S
N627 H632 0.984 1_545 S
N627 H633 0.985 . S
C628 C622 1.379 . S
C628 C625 1.363 . S
C628 N626 1.356 . S
C629 C623 1.363 . S
C629 C624 1.379 . S
C629 N627 1.356 . S
N630 C622 1.356 . S
N630 H636 0.984 . S
N630 H637 0.984 . S
N631 C624 1.356 . S
N631 H634 0.984 . S
N631 H635 0.985 . S
H632 N627 0.984 1_565 S
H633 N627 0.985 . S
H634 N631 0.984 . S
H635 N631 0.985 . S
H636 N630 0.984 . S
H637 N630 0.984 . S
H638 N626 0.984 . S
H639 N626 0.985 . S
C640 C641 1.363 . S
C640 C646 1.379 . S
C640 N648 1.356 . S
C641 C640 1.363 . S
C641 C647 1.363 . S
C642 C643 1.363 . S
C642 C647 1.379 . S
C642 N649 1.356 . S
C643 C642 1.363 . S
C643 C646 1.363 . S
N644 C646 1.356 . S
N644 H656 0.984 . S
N644 H657 0.985 . S
N645 C647 1.356 . S
N645 H650 0.984 . S
N645 H651 0.985 . S
C646 C640 1.379 . S
C646 C643 1.363 . S
C646 N644 1.356 . S
C647 C641 1.363 . S
C647 C642 1.379 . S
C647 N645 1.356 . S
N648 C640 1.356 . S
N648 H654 0.984 . S
N648 H655 0.984 . S
N649 C642 1.356 . S
N649 H652 0.984 1_565 S
N649 H653 0.985 1_565 S
H650 N645 0.984 . S
H651 N645 0.985 . S
H652 N649 0.984 1_545 S
H653 N649 0.985 1_545 S
H654 N648 0.984 . S
H655 N648 0.984 . S
H656 N644 0.984 . S
H657 N644 0.985 . S
C658 C659 1.363 . S
C658 C664 1.379 . S
C658 N666 1.356 . S
C659 C658 1.363 . S
C659 C665 1.363 . S
C660 C661 1.363 . S
C660 C665 1.379 . S
C660 N667 1.356 . S
C661 C660 1.363 . S
C661 C664 1.363 . S
N662 C664 1.356 . S
N662 H674 0.984 . S
N662 H675 0.985 . S
N663 C665 1.356 . S
N663 H668 0.984 . S
N663 H669 0.985 . S
C664 C658 1.379 . S
C664 C661 1.363 . S
C664 N662 1.356 . S
C665 C659 1.363 . S
C665 C660 1.379 . S
C665 N663 1.356 . S
N666 C658 1.356 . S
N666 H672 0.984 . S
N666 H673 0.984 . S
N667 C660 1.356 . S
N667 H670 0.984 . S
N667 H671 0.985 . S
H668 N663 0.984 . S
H669 N663 0.985 . S
H670 N667 0.984 . S
H671 N667 0.985 . S
H672 N666 0.984 . S
H673 N666 0.984 . S
H674 N662 0.984 . S
H675 N662 0.985 . S
C676 C677 1.363 . S
C676 C682 1.379 . S
C676 N684 1.356 . S
C677 C676 1.363 . S
C677 C683 1.363 . S
C678 C679 1.363 . S
C678 C683 1.379 . S
C678 N685 1.356 . S
C679 C678 1.363 . S
C679 C682 1.363 . S
N680 C682 1.356 . S
N680 H692 0.984 . S
N680 H693 0.985 . S
N681 C683 1.356 . S
N681 H686 0.984 . S
N681 H687 0.985 . S
C682 C676 1.379 . S
C682 C679 1.363 . S
C682 N680 1.356 . S
C683 C677 1.363 . S
C683 C678 1.379 . S
C683 N681 1.356 . S
N684 C676 1.356 . S
N684 H690 0.984 . S
N684 H691 0.984 . S
N685 C678 1.356 . S
N685 H688 0.984 . S
N685 H689 0.985 . S
H686 N681 0.984 . S
H687 N681 0.985 . S
H688 N685 0.984 . S
H689 N685 0.985 . S
H690 N684 0.984 . S
H691 N684 0.984 . S
H692 N680 0.984 . S
H693 N680 0.985 . S
C694 C695 1.363 . S
C694 C700 1.379 . S
C694 N702 1.356 . S
C695 C694 1.363 . S
C695 C701 1.363 . S
C696 C697 1.363 . S
C696 C701 1.379 . S
C696 N703 1.356 . S
C697 C696 1.363 . S
C697 C700 1.363 . S
N698 C700 1.356 . S
N698 H710 0.984 . S
N698 H711 0.985 . S
N699 C701 1.356 . S
N699 H704 0.984 . S
N699 H705 0.985 . S
C700 C694 1.379 . S
C700 C697 1.363 . S
C700 N698 1.356 . S
C701 C695 1.363 . S
C701 C696 1.379 . S
C701 N699 1.356 . S
N702 C694 1.356 . S
N702 H708 0.984 . S
N702 H709 0.984 . S
N703 C696 1.356 . S
N703 H706 0.984 1_565 S
N703 H707 0.985 . S
H704 N699 0.984 . S
H705 N699 0.985 . S
H706 N703 0.984 1_545 S
H707 N703 0.985 . S
H708 N702 0.984 . S
H709 N702 0.984 . S
H710 N698 0.984 . S
H711 N698 0.985 . S
C712 C713 1.363 . S
C712 C718 1.379 . S
C712 N720 1.356 . S
C713 C712 1.363 . S
C713 C719 1.363 . S
C714 C715 1.363 . S
C714 C719 1.379 . S
C714 N721 1.356 . S
C715 C714 1.363 . S
C715 C718 1.363 . S
N716 C718 1.356 . S
N716 H728 0.984 . S
N716 H729 0.985 1_545 S
N717 C719 1.356 . S
N717 H722 0.984 . S
N717 H723 0.985 . S
C718 C712 1.379 . S
C718 C715 1.363 . S
C718 N716 1.356 . S
C719 C713 1.363 . S
C719 C714 1.379 . S
C719 N717 1.356 . S
N720 C712 1.356 . S
N720 H726 0.984 . S
N720 H727 0.984 . S
N721 C714 1.356 . S
N721 H724 0.984 . S
N721 H725 0.985 . S
H722 N717 0.984 . S
H723 N717 0.985 . S
H724 N721 0.984 . S
H725 N721 0.985 . S
H726 N720 0.984 . S
H727 N720 0.984 . S
H728 N716 0.984 . S
H729 N716 0.985 1_565 S
C730 C731 1.363 . S
C730 C736 1.379 . S
C730 N738 1.356 . S
C731 C730 1.363 . S
C731 C737 1.363 . S
C732 C733 1.363 . S
C732 C737 1.379 . S
C732 N739 1.356 . S
C733 C732 1.363 . S
C733 C736 1.363 . S
N734 C736 1.356 . S
N734 H746 0.984 . S
N734 H747 0.985 . S
N735 C737 1.356 . S
N735 H740 0.984 . S
N735 H741 0.985 . S
C736 C730 1.379 . S
C736 C733 1.363 . S
C736 N734 1.356 . S
C737 C731 1.363 . S
C737 C732 1.379 . S
C737 N735 1.356 . S
N738 C730 1.356 . S
N738 H744 0.984 . S
N738 H745 0.984 . S
N739 C732 1.356 . S
N739 H742 0.984 . S
N739 H743 0.985 . S
H740 N735 0.984 . S
H741 N735 0.985 . S
H742 N739 0.984 . S
H743 N739 0.985 . S
H744 N738 0.984 . S
H745 N738 0.984 . S
H746 N734 0.984 . S
H747 N734 0.985 . S
C748 C749 1.363 . S
C748 C754 1.379 . S
C748 N756 1.356 . S
C749 C748 1.363 . S
C749 C755 1.363 . S
C750 C751 1.363 . S
C750 C755 1.379 . S
C750 N757 1.356 . S
C751 C750 1.363 . S
C751 C754 1.363 . S
N752 C754 1.356 . S
N752 H764 0.984 . S
N752 H765 0.985 . S
N753 C755 1.356 . S
N753 H758 0.984 . S
N753 H759 0.985 . S
C754 C748 1.379 . S
C754 C751 1.363 . S
C754 N752 1.356 . S
C755 C749 1.363 . S
C755 C750 1.379 . S
C755 N753 1.356 . S
N756 C748 1.356 . S
N756 H762 0.984 . S
N756 H763 0.984 . S
N757 C750 1.356 . S
N757 H760 0.984 . S
N757 H761 0.985 . S
H758 N753 0.984 . S
H759 N753 0.985 . S
H760 N757 0.984 . S
H761 N757 0.985 . S
H762 N756 0.984 . S
H763 N756 0.984 . S
H764 N752 0.984 . S
H765 N752 0.985 . S
C766 C767 1.363 . S
C766 C772 1.379 . S
C766 N774 1.356 . S
C767 C766 1.363 . S
C767 C773 1.363 . S
C768 C769 1.363 . S
C768 C773 1.379 . S
C768 N775 1.356 . S
C769 C768 1.363 . S
C769 C772 1.363 . S
N770 C772 1.356 . S
N770 H782 0.984 . S
N770 H783 0.985 1_545 S
N771 C773 1.356 . S
N771 H776 0.984 . S
N771 H777 0.985 . S
C772 C766 1.379 . S
C772 C769 1.363 . S
C772 N770 1.356 . S
C773 C767 1.363 . S
C773 C768 1.379 . S
C773 N771 1.356 . S
N774 C766 1.356 . S
N774 H780 0.984 . S
N774 H781 0.984 . S
N775 C768 1.356 . S
N775 H778 0.984 . S
N775 H779 0.985 . S
H776 N771 0.984 . S
H777 N771 0.985 . S
H778 N775 0.984 . S
H779 N775 0.985 . S
H780 N774 0.984 . S
H781 N774 0.984 . S
H782 N770 0.984 . S
H783 N770 0.985 1_565 S
C209 C185 1.507 . S
C211 C3 1.507 . S
C227 C30 1.507 . S
C229 C4 1.507 . S
C245 C153 1.507 . S
C247 C17 1.507 . S
C263 C16 1.507 . S
C265 C96 1.507 . S
C281 C29 1.507 . S
C283 C159 1.507 . S
C299 C127 1.507 . S
C301 C49 1.507 . S
C317 C44 1.507 . S
C319 C68 1.507 . S
C335 C135 1.507 . S
C337 C55 1.507 . S
C353 C56 1.507 . S
C355 C82 1.507 . S
C371 C205 1.507 . S
C373 C69 1.507 . S
C389 C107 1.507 . S
C391 C81 1.507 . S
C407 C179 1.507 . S
C409 C101 1.507 . S
C425 C108 1.507 . S
C427 C140 1.507 . S
C443 C200 1.507 . S
C445 C122 1.507 . S
C461 C148 1.507 . S
C463 C174 1.507 . S
C479 C186 1.507 . S
C481 C160 1.507 . S
C497 C70 1.556 . S
C499 C10 1.555 1_565 S
C515 C5 1.556 . S
C517 C75 1.555 . S
C533 C18 1.556 . S
C535 C62 1.555 . S
C551 C57 1.556 . S
C553 C23 1.555 1_565 S
C569 C94 1.556 . S
C571 C36 1.555 1_545 S
C587 C95 1.555 . S
C589 C31 1.556 . S
C605 C88 1.555 . S
C607 C42 1.556 . S
C623 C43 1.555 1_545 S
C625 C83 1.556 . S
C641 C172 1.556 . S
C643 C114 1.555 1_565 S
C659 C109 1.556 . S
C661 C173 1.555 . S
C677 C120 1.556 . S
C679 C166 1.555 . S
C695 C161 1.556 . S
C697 C121 1.555 1_565 S
C713 C198 1.556 . S
C715 C134 1.555 1_545 S
C731 C199 1.555 . S
C733 C133 1.556 . S
C749 C146 1.556 . S
C751 C192 1.555 . S
C767 C187 1.556 . S
C769 C147 1.555 1_545 S
