# Generated by pormake.
# Topology wif, (6)-cn, num edge types: 1
# Building blocks:
#     Node 0, Type 0, BuildingBlock: IZENUY_clean_sbu_0, # of connection points: 6
#     Node 1, Type 0, BuildingBlock: IZENUY_clean_sbu_0, # of connection points: 6
#     Node 2, Type 0, BuildingBlock: IZENUY_clean_sbu_0, # of connection points: 6
#     Node 3, Type 0, BuildingBlock: IZENUY_clean_sbu_0, # of connection points: 6
#     Node 4, Type 0, BuildingBlock: IZENUY_clean_sbu_0, # of connection points: 6
#     Node 5, Type 0, BuildingBlock: IZENUY_clean_sbu_0, # of connection points: 6
#     Node 6, Type 0, BuildingBlock: IZENUY_clean_sbu_0, # of connection points: 6
#     Node 7, Type 0, BuildingBlock: IZENUY_clean_sbu_0, # of connection points: 6
#     Node 8, Type 0, BuildingBlock: IZENUY_clean_sbu_0, # of connection points: 6
#     Node 9, Type 0, BuildingBlock: IZENUY_clean_sbu_0, # of connection points: 6
#     Node 10, Type 0, BuildingBlock: IZENUY_clean_sbu_0, # of connection points: 6
#     Node 11, Type 0, BuildingBlock: IZENUY_clean_sbu_0, # of connection points: 6
#     Node 12, Type 0, BuildingBlock: IZENUY_clean_sbu_0, # of connection points: 6
#     Node 13, Type 0, BuildingBlock: IZENUY_clean_sbu_0, # of connection points: 6
#     Node 14, Type 0, BuildingBlock: IZENUY_clean_sbu_0, # of connection points: 6
#     Node 15, Type 0, BuildingBlock: IZENUY_clean_sbu_0, # of connection points: 6
#     Edge 16, Type (0, 0), BuildingBlock: XUDNAN_clean_linker_2, # of connection points: 2
#     Edge 17, Type (0, 0), BuildingBlock: XUDNAN_clean_linker_2, # of connection points: 2
#     Edge 18, Type (0, 0), BuildingBlock: XUDNAN_clean_linker_2, # of connection points: 2
#     Edge 19, Type (0, 0), BuildingBlock: XUDNAN_clean_linker_2, # of connection points: 2
#     Edge 20, Type (0, 0), BuildingBlock: XUDNAN_clean_linker_2, # of connection points: 2
#     Edge 21, Type (0, 0), BuildingBlock: XUDNAN_clean_linker_2, # of connection points: 2
#     Edge 22, Type (0, 0), BuildingBlock: XUDNAN_clean_linker_2, # of connection points: 2
#     Edge 23, Type (0, 0), BuildingBlock: XUDNAN_clean_linker_2, # of connection points: 2
#     Edge 24, Type (0, 0), BuildingBlock: XUDNAN_clean_linker_2, # of connection points: 2
#     Edge 25, Type (0, 0), BuildingBlock: XUDNAN_clean_linker_2, # of connection points: 2
#     Edge 26, Type (0, 0), BuildingBlock: XUDNAN_clean_linker_2, # of connection points: 2
#     Edge 27, Type (0, 0), BuildingBlock: XUDNAN_clean_linker_2, # of connection points: 2
#     Edge 28, Type (0, 0), BuildingBlock: XUDNAN_clean_linker_2, # of connection points: 2
#     Edge 29, Type (0, 0), BuildingBlock: XUDNAN_clean_linker_2, # of connection points: 2
#     Edge 30, Type (0, 0), BuildingBlock: XUDNAN_clean_linker_2, # of connection points: 2
#     Edge 31, Type (0, 0), BuildingBlock: XUDNAN_clean_linker_2, # of connection points: 2
#     Edge 32, Type (0, 0), BuildingBlock: XUDNAN_clean_linker_2, # of connection points: 2
#     Edge 33, Type (0, 0), BuildingBlock: XUDNAN_clean_linker_2, # of connection points: 2
#     Edge 34, Type (0, 0), BuildingBlock: XUDNAN_clean_linker_2, # of connection points: 2
#     Edge 35, Type (0, 0), BuildingBlock: XUDNAN_clean_linker_2, # of connection points: 2
#     Edge 36, Type (0, 0), BuildingBlock: XUDNAN_clean_linker_2, # of connection points: 2
#     Edge 37, Type (0, 0), BuildingBlock: XUDNAN_clean_linker_2, # of connection points: 2
#     Edge 38, Type (0, 0), BuildingBlock: XUDNAN_clean_linker_2, # of connection points: 2
#     Edge 39, Type (0, 0), BuildingBlock: XUDNAN_clean_linker_2, # of connection points: 2
#     Edge 40, Type (0, 0), BuildingBlock: XUDNAN_clean_linker_2, # of connection points: 2
#     Edge 41, Type (0, 0), BuildingBlock: XUDNAN_clean_linker_2, # of connection points: 2
#     Edge 42, Type (0, 0), BuildingBlock: XUDNAN_clean_linker_2, # of connection points: 2
#     Edge 43, Type (0, 0), BuildingBlock: XUDNAN_clean_linker_2, # of connection points: 2
#     Edge 44, Type (0, 0), BuildingBlock: XUDNAN_clean_linker_2, # of connection points: 2
#     Edge 45, Type (0, 0), BuildingBlock: XUDNAN_clean_linker_2, # of connection points: 2
#     Edge 46, Type (0, 0), BuildingBlock: XUDNAN_clean_linker_2, # of connection points: 2
#     Edge 47, Type (0, 0), BuildingBlock: XUDNAN_clean_linker_2, # of connection points: 2
#     Edge 48, Type (0, 0), BuildingBlock: XUDNAN_clean_linker_2, # of connection points: 2
#     Edge 49, Type (0, 0), BuildingBlock: XUDNAN_clean_linker_2, # of connection points: 2
#     Edge 50, Type (0, 0), BuildingBlock: XUDNAN_clean_linker_2, # of connection points: 2
#     Edge 51, Type (0, 0), BuildingBlock: XUDNAN_clean_linker_2, # of connection points: 2
#     Edge 52, Type (0, 0), BuildingBlock: XUDNAN_clean_linker_2, # of connection points: 2
#     Edge 53, Type (0, 0), BuildingBlock: XUDNAN_clean_linker_2, # of connection points: 2
#     Edge 54, Type (0, 0), BuildingBlock: XUDNAN_clean_linker_2, # of connection points: 2
#     Edge 55, Type (0, 0), BuildingBlock: XUDNAN_clean_linker_2, # of connection points: 2
#     Edge 56, Type (0, 0), BuildingBlock: XUDNAN_clean_linker_2, # of connection points: 2
#     Edge 57, Type (0, 0), BuildingBlock: XUDNAN_clean_linker_2, # of connection points: 2
#     Edge 58, Type (0, 0), BuildingBlock: XUDNAN_clean_linker_2, # of connection points: 2
#     Edge 59, Type (0, 0), BuildingBlock: XUDNAN_clean_linker_2, # of connection points: 2
#     Edge 60, Type (0, 0), BuildingBlock: XUDNAN_clean_linker_2, # of connection points: 2
#     Edge 61, Type (0, 0), BuildingBlock: XUDNAN_clean_linker_2, # of connection points: 2
#     Edge 62, Type (0, 0), BuildingBlock: XUDNAN_clean_linker_2, # of connection points: 2
#     Edge 63, Type (0, 0), BuildingBlock: XUDNAN_clean_linker_2, # of connection points: 2
# Relax obj value: 0.830
# Max RMSD: 0.280
# Mean RMSD: 0.279
data_MOF--net-wif--node1-IZENUY_clean_sbu_0--edge1-XUDNAN_clean_linker_2
_symmetry_space_group_name_H-M    P1
_symmetry_Int_Tables_number       1
_symmetry_cell_setting            triclinic
loop_
_symmetry_equiv_pos_as_xyz
'x, y, z'
_cell_length_a     34.644466
_cell_length_b     34.514789
_cell_length_c     29.123864
_cell_angle_alpha  90.023013
_cell_angle_beta   89.934083
_cell_angle_gamma 90.033189
loop_
_atom_site_label
_atom_site_type_symbol
_atom_site_fract_x
_atom_site_fract_y
_atom_site_fract_z
_atom_type_partial_charge
Fe0 Fe 0.25676 0.06523 0.12138 0.0
Fe1 Fe 0.3071 0.01965 0.05133 0.0
O2 O 0.29269 0.06438 0.07752 0.0
Fe3 Fe 0.31585 0.1084 0.06142 0.0
O4 O 0.33314 0.11686 0.11909 0.0
O5 O 0.27877 0.1047 0.15492 0.0
O6 O 0.28419 0.03221 0.15679 0.0
C7 C 0.29695 0.99945 0.14511 0.0
C8 C 0.23785 0.13242 0.07706 0.0
O9 O 0.30037 0.99006 0.10328 0.0
C10 C 0.31475 0.07633 0.97705 0.0
O11 O 0.22873 0.02478 0.09733 0.0
O12 O 0.25757 1.00752 0.03284 0.0
O13 O 0.27339 0.13888 0.07066 0.0
O14 O 0.22631 0.09935 0.09003 0.0
C15 C 0.37744 0.05485 0.06286 0.0
O16 O 0.31937 0.04246 0.99417 0.0
O17 O 0.30121 0.10295 1.00198 0.0
C18 C 0.22965 1.00404 0.06134 0.0
O19 O 0.35665 0.02562 0.07001 0.0
O20 O 0.36274 0.08656 0.05035 0.0
C21 C 0.31291 0.11778 0.15493 0.0
Fe22 Fe 0.02071 0.72906 0.9872 0.0
Fe23 Fe 0.06357 0.75916 0.90096 0.0
O24 O 0.06401 0.73431 0.95446 0.0
Fe25 Fe 0.10741 0.71318 0.9744 0.0
O26 O 0.08428 0.67073 1.00038 0.0
O27 O 0.02297 0.67678 0.98258 0.0
O28 O 0.98866 0.72753 0.93687 0.0
C29 C 0.99601 0.71781 0.89582 0.0
C30 C 0.08086 0.73059 0.057 0.0
O31 O 0.02836 0.72537 0.87804 0.0
C32 C 0.13242 0.78483 0.93498 0.0
O33 O 0.01366 0.78177 0.9917 0.0
O34 O 0.02551 0.79337 0.91841 0.0
O35 O 0.10468 0.74096 0.02679 0.0
O36 O 0.04566 0.7265 0.04468 0.0
C37 C 0.11112 0.69496 0.88292 0.0
O38 O 0.09952 0.79422 0.91981 0.0
O39 O 0.13852 0.75121 0.95085 0.0
C40 C 1.00937 0.80283 0.95599 0.0
O41 O 0.1008 0.72906 0.87299 0.0
O42 O 0.11179 0.68359 0.92384 0.0
C43 C 0.05129 0.65612 0.99409 0.0
Fe44 Fe 0.75651 0.96259 0.12592 0.0
Fe45 Fe 0.72871 1.00673 0.0397 0.0
O46 O 0.72888 0.96424 0.07439 0.0
Fe47 Fe 0.69966 0.92414 0.05949 0.0
O48 O 0.67398 0.92624 0.11309 0.0
O49 O 0.72456 0.92847 0.15739 0.0
O50 O 0.72827 1.00203 0.14967 0.0
C51 C 0.72333 0.03442 0.13023 0.0
C52 C 0.76996 0.89007 0.09289 0.0
O53 O 0.73305 0.03971 0.08873 0.0
C54 C 0.7182 0.94428 0.97348 0.0
O55 O 0.79376 0.99719 0.10562 0.0
O56 O 0.78159 1.00645 0.03235 0.0
O57 O 0.73462 0.88849 0.0813 0.0
O58 O 0.78539 0.92196 0.10474 0.0
C59 C 0.6516 0.98848 0.04059 0.0
O60 O 0.71985 0.98024 0.98399 0.0
O61 O 0.72283 0.91939 1.00436 0.0
C62 C 0.80365 1.01131 0.06705 0.0
O63 O 0.67789 0.01279 0.04696 0.0
O64 O 0.65911 0.95277 0.03631 0.0
C65 C 0.68934 0.92021 0.15131 0.0
Fe66 Fe 0.01168 0.29997 0.99417 0.0
Fe67 Fe 0.97434 0.26751 0.90406 0.0
O68 O 0.97358 0.29913 0.95282 0.0
Fe69 Fe 0.93408 0.33087 0.96003 0.0
O70 O 0.96488 0.3731 0.95446 0.0
O71 O 1.0079 0.35222 1.00439 0.0
O72 O 0.04665 0.31179 0.9499 0.0
C73 C 0.05097 0.29638 0.91087 0.0
C74 C 0.95106 0.3139 0.05324 0.0
O75 O 0.02627 0.2732 0.89432 0.0
C76 C 0.89455 0.26729 0.93389 0.0
O77 O 0.02473 0.24773 0.98817 0.0
O78 O 0.98193 0.2251 0.93977 0.0
O79 O 0.93643 0.33373 0.02168 0.0
O80 O 0.9789 0.29068 0.04409 0.0
C81 C 0.94174 0.33095 0.86341 0.0
O82 O 0.92094 0.25855 0.90499 0.0
O83 O 0.90233 0.28974 0.96673 0.0
C84 C 0.01249 0.22022 0.96286 0.0
O85 O 0.9686 0.3066 0.86258 0.0
O86 O 0.92266 0.33606 0.89951 0.0
C87 C 0.99337 0.37927 0.98058 0.0
Fe88 Fe 0.30268 0.40787 0.18799 0.0
Fe89 Fe 0.25296 0.4597 0.12764 0.0
O90 O 0.28315 0.45381 0.17621 0.0
Fe91 Fe 0.29433 0.49415 0.21302 0.0
O92 O 0.3454 0.49037 0.20118 0.0
O93 O 0.34922 0.42731 0.20793 0.0
O94 O 0.32595 0.40363 0.13251 0.0
C95 C 0.30861 0.40615 0.09471 0.0
C96 C 0.29574 0.42779 0.27566 0.0
O97 O 0.27599 0.42234 0.09227 0.0
C98 C 0.21938 0.51249 0.19312 0.0
O99 O 0.26048 0.3809 0.16816 0.0
O100 O 0.21725 0.42459 0.14815 0.0
O101 O 0.30171 0.46386 0.26753 0.0
O102 O 0.27985 0.40924 0.24391 0.0
C103 C 0.29965 0.52379 0.12325 0.0
O104 O 0.22462 0.49909 0.15307 0.0
O105 O 0.24275 0.50356 0.22546 0.0
C106 C 0.22614 0.38989 0.15789 0.0
O107 O 0.28742 0.49349 0.10385 0.0
O108 O 0.29339 0.52999 0.16562 0.0
C109 C 0.36521 0.4601 0.20485 0.0
Fe110 Fe 0.45793 0.76509 0.87822 0.0
Fe111 Fe 0.4118 0.71635 0.80928 0.0
O112 O 0.45579 0.73844 0.82588 0.0
Fe113 Fe 0.49801 0.732 0.79164 0.0
O114 O 0.53137 0.73132 0.8407 0.0
O115 O 0.49331 0.73166 0.90116 0.0
O116 O 0.42116 0.73628 0.909 0.0
C117 C 0.41127 0.70159 0.90164 0.0
C118 C 0.51147 0.80633 0.81966 0.0
O119 O 0.40993 0.68839 0.86152 0.0
C120 C 0.43563 0.73203 0.7244 0.0
O121 O 0.42168 0.79967 0.85897 0.0
O122 O 0.3816 0.75509 0.833 0.0
O123 O 0.50533 0.78446 0.78505 0.0
O124 O 0.49608 0.7984 0.85815 0.0
C125 C 0.46702 0.65896 0.78829 0.0
O126 O 0.41191 0.74193 0.75512 0.0
O127 O 0.47118 0.72852 0.73559 0.0
C128 C 0.38836 0.78951 0.84584 0.0
O129 O 0.43385 0.67345 0.78359 0.0
O130 O 0.49573 0.67979 0.79785 0.0
C131 C 0.52482 0.72263 0.88226 0.0
Fe132 Fe 0.69022 0.58757 0.20103 0.0
Fe133 Fe 0.75272 0.54925 0.14179 0.0
O134 O 0.72091 0.54747 0.18988 0.0
Fe135 Fe 0.71821 0.50488 0.22449 0.0
O136 O 0.66777 0.49881 0.21294 0.0
O137 O 0.64841 0.55894 0.22055 0.0
O138 O 0.66874 0.58524 0.14444 0.0
C139 C 0.68727 0.58836 0.10754 0.0
C140 C 0.70416 0.56783 0.28934 0.0
O141 O 0.72314 0.58203 0.10684 0.0
C142 C 0.79517 0.50098 0.20514 0.0
O143 O 0.72648 0.62341 0.18307 0.0
O144 O 0.77924 0.59051 0.16545 0.0
O145 O 0.70635 0.53182 0.27906 0.0
O146 O 0.70869 0.593 0.25863 0.0
C147 C 0.71932 0.47719 0.13366 0.0
O148 O 0.78864 0.5157 0.16604 0.0
O149 O 0.77026 0.50489 0.23712 0.0
C150 C 0.76262 0.62225 0.17551 0.0
O151 O 0.72692 0.50943 0.11515 0.0
O152 O 0.72584 0.4715 0.176 0.0
C153 C 0.64118 0.52311 0.21744 0.0
Fe154 Fe 0.54622 0.2664 0.85625 0.0
Fe155 Fe 0.58593 0.33214 0.80344 0.0
O156 O 0.54614 0.30059 0.80988 0.0
Fe157 Fe 0.50725 0.30422 0.77009 0.0
O158 O 0.47341 0.31321 0.81621 0.0
O159 O 0.49464 0.27211 0.86876 0.0
O160 O 0.55393 0.30346 0.90004 0.0
C161 C 0.58142 0.32718 0.89984 0.0
C162 C 0.50576 0.22302 0.79476 0.0
O163 O 0.59987 0.33322 0.86351 0.0
C164 C 0.56577 0.32182 0.70996 0.0
O165 O 0.59952 0.25685 0.85208 0.0
O166 O 0.61593 0.2906 0.79139 0.0
O167 O 0.49428 0.25211 0.77163 0.0
O168 O 0.53645 0.22565 0.81825 0.0
C169 C 0.52657 0.38217 0.79059 0.0
O170 O 0.58158 0.33943 0.74248 0.0
O171 O 0.53849 0.29786 0.71833 0.0
C172 C 0.62496 0.26692 0.8225 0.0
O173 O 0.5562 0.3745 0.81433 0.0
O174 O 0.51126 0.35682 0.76486 0.0
C175 C 0.46964 0.29585 0.85411 0.0
Fe176 Fe 0.80159 0.51315 0.54412 0.0
Fe177 Fe 0.82681 0.59662 0.5691 0.0
O178 O 0.79785 0.55507 0.5797 0.0
Fe179 Fe 0.76658 0.55453 0.62819 0.0
O180 O 0.79432 0.5156 0.65347 0.0
O181 O 0.7949 0.47868 0.59184 0.0
O182 O 0.85202 0.5086 0.55568 0.0
C183 C 0.87793 0.53373 0.55163 0.0
C184 C 0.72476 0.5074 0.56345 0.0
O185 O 0.86984 0.56951 0.54955 0.0
C186 C 0.75263 0.62706 0.59597 0.0
O187 O 0.81298 0.54096 0.49015 0.0
O188 O 0.80846 0.60177 0.51137 0.0
O189 O 0.73189 0.5202 0.60332 0.0
O190 O 0.74949 0.51207 0.53142 0.0
C191 C 0.83027 0.59627 0.6628 0.0
O192 O 0.78859 0.63071 0.58765 0.0
O193 O 0.73814 0.59434 0.60567 0.0
C194 C 0.81453 0.57707 0.48045 0.0
O195 O 0.84852 0.59484 0.62561 0.0
O196 O 0.79478 0.58812 0.66376 0.0
C197 C 0.80225 0.48384 0.63411 0.0
Fe198 Fe 0.52231 0.21397 0.47974 0.0
Fe199 Fe 0.55401 0.25869 0.39536 0.0
O200 O 0.56096 0.22586 0.4411 0.0
Fe201 Fe 0.60708 0.20473 0.44781 0.0
O202 O 0.58672 0.15773 0.43654 0.0
O203 O 0.53804 0.16318 0.48543 0.0
O204 O 0.49178 0.19675 0.43371 0.0
C205 C 0.4847 0.21346 0.39634 0.0
C206 C 0.58259 0.20933 0.54099 0.0
O207 O 0.50464 0.24195 0.38301 0.0
C208 C 0.62909 0.27815 0.42926 0.0
O209 O 0.49717 0.26321 0.47571 0.0
O210 O 0.53936 0.2952 0.43647 0.0
O211 O 0.60334 0.19682 0.50891 0.0
O212 O 0.55079 0.22684 0.5319 0.0
C213 C 0.60017 0.20651 0.35213 0.0
O214 O 0.60298 0.27943 0.39869 0.0
O215 O 0.62911 0.25151 0.45905 0.0
C216 C 0.50619 0.29426 0.45381 0.0
O217 O 0.56842 0.22402 0.35172 0.0
O218 O 0.62089 0.20673 0.38754 0.0
C219 C 0.55883 0.14302 0.45845 0.0
Fe220 Fe 0.26889 0.46019 0.63805 0.0
Fe221 Fe 0.22341 0.50077 0.55941 0.0
O222 O 0.236 0.4581 0.59147 0.0
Fe223 Fe 0.21523 0.41337 0.57694 0.0
O224 O 0.19428 0.40629 0.63334 0.0
O225 O 0.24687 0.42076 0.67139 0.0
O226 O 0.23647 0.49239 0.66748 0.0
C227 C 0.22267 0.52361 0.65214 0.0
C228 C 0.29273 0.39258 0.59898 0.0
O229 O 0.22659 0.53305 0.61018 0.0
C230 C 0.21906 0.43846 0.49106 0.0
O231 O 0.29639 0.50113 0.61469 0.0
O232 O 0.27433 0.51101 0.54467 0.0
O233 O 0.25762 0.38478 0.59144 0.0
O234 O 0.30289 0.4263 0.61152 0.0
C235 C 0.15263 0.46692 0.56792 0.0
O236 O 0.21353 0.47399 0.50268 0.0
O237 O 0.23599 0.41802 0.52019 0.0
C238 C 0.29929 0.51773 0.57605 0.0
O239 O 0.17288 0.4966 0.57385 0.0
O240 O 0.16822 0.43435 0.56134 0.0
C241 C 0.21328 0.40644 0.67017 0.0
Fe242 Fe 0.50618 0.79586 0.4709 0.0
Fe243 Fe 0.45434 0.76031 0.3957 0.0
O244 O 0.46019 0.79117 0.44393 0.0
Fe245 Fe 0.42044 0.81861 0.4644 0.0
O246 O 0.44936 0.86184 0.4796 0.0
O247 O 0.50771 0.84607 0.45662 0.0
O248 O 0.5343 0.78867 0.41756 0.0
C249 C 0.52415 0.79326 0.37606 0.0
C250 C 0.45165 0.80774 0.54634 0.0
O251 O 0.48981 0.78737 0.36355 0.0
C252 C 0.38667 0.74563 0.43955 0.0
O253 O 0.50932 0.74382 0.48385 0.0
O254 O 0.49124 0.72526 0.41462 0.0
O255 O 0.42473 0.79718 0.52052 0.0
O256 O 0.48591 0.80811 0.52966 0.0
C257 C 0.40718 0.82501 0.3726 0.0
O258 O 0.41789 0.73145 0.42459 0.0
O259 O 0.38461 0.78104 0.45103 0.0
C260 C 0.51011 0.71896 0.45129 0.0
O261 O 0.41695 0.78998 0.36688 0.0
O262 O 0.41333 0.84197 0.40998 0.0
C263 C 0.48248 0.87113 0.4648 0.0
Fe264 Fe 0.76814 0.96536 0.63557 0.0
Fe265 Fe 0.81228 0.9938 0.72257 0.0
O266 O 0.79866 0.95641 0.68369 0.0
Fe267 Fe 0.8177 0.90918 0.69129 0.0
O268 O 0.8152 0.89438 0.63131 0.0
O269 O 0.80437 0.94794 0.59456 0.0
O270 O 0.78708 0.0141 0.62346 0.0
C271 C 0.81602 0.03214 0.63921 0.0
C272 C 0.74401 0.8908 0.67115 0.0
O273 O 0.83072 0.02346 0.67714 0.0
C274 C 0.81378 0.93464 0.78443 0.0
O275 O 0.72958 0.98538 0.671 0.0
O276 O 0.76483 0.0194 0.7196 0.0
O277 O 0.76977 0.89036 0.70201 0.0
O278 O 0.74441 0.91677 0.63974 0.0
C279 C 0.8817 0.95436 0.70181 0.0
O280 O 0.79741 0.96649 0.77416 0.0
O281 O 0.82576 0.91292 0.75284 0.0
C282 C 0.73342 0.01442 0.69724 0.0
O283 O 0.86219 0.97621 0.72822 0.0
O284 O 0.86594 0.92683 0.6801 0.0
C285 C 0.81823 0.91434 0.59543 0.0
Fe286 Fe 0.99895 0.22347 0.27622 0.0
Fe287 Fe 0.96859 0.26111 0.36555 0.0
O288 O 0.96121 0.23066 0.31776 0.0
Fe289 Fe 0.91619 0.20701 0.31195 0.0
O290 O 0.93983 0.16035 0.31665 0.0
O291 O 0.98501 0.1731 0.26513 0.0
O292 O 0.03109 0.20389 0.31911 0.0
C293 C 0.03849 0.21805 0.35783 0.0
C294 C 0.93679 0.22034 0.21788 0.0
O295 O 0.01917 0.2461 0.37357 0.0
C296 C 0.89082 0.27792 0.33892 0.0
O297 O 0.0225 0.27323 0.28451 0.0
O298 O 0.97938 0.30051 0.32663 0.0
O299 O 0.91772 0.20479 0.24984 0.0
O300 O 0.96816 0.23874 0.22715 0.0
C301 C 0.92729 0.20405 0.40753 0.0
O302 O 0.91882 0.27955 0.36694 0.0
O303 O 0.89032 0.25262 0.30748 0.0
C304 C 0.01213 0.30265 0.30855 0.0
O305 O 0.9579 0.22352 0.40701 0.0
O306 O 0.90538 0.20362 0.3731 0.0
C307 C 0.96713 0.14956 0.2909 0.0
Fe308 Fe 0.26401 0.05932 0.63185 0.0
Fe309 Fe 0.22823 0.01766 0.71536 0.0
O310 O 0.2321 0.05969 0.67975 0.0
Fe311 Fe 0.20269 0.10104 0.68973 0.0
O312 O 0.18233 0.10021 0.63259 0.0
O313 O 0.23662 0.093 0.59566 0.0
O314 O 0.23637 0.02034 0.60599 0.0
C315 C 0.22863 0.98849 0.62541 0.0
C316 C 0.27746 0.13151 0.66645 0.0
O317 O 0.23608 0.98353 0.66766 0.0
C318 C 0.21185 0.08132 0.7786 0.0
O319 O 0.2982 0.02482 0.65699 0.0
O320 O 0.28036 0.01681 0.72888 0.0
O321 O 0.24129 0.13521 0.6731 0.0
O322 O 0.2922 0.09917 0.65541 0.0
C323 C 0.15194 0.03765 0.70225 0.0
O324 O 0.21534 0.04517 0.7695 0.0
O325 O 0.21968 0.10565 0.74792 0.0
C326 C 0.3052 1.01205 0.69681 0.0
O327 O 0.17812 0.01262 0.70202 0.0
O328 O 0.15932 0.07337 0.70697 0.0
C329 C 0.20131 0.10171 0.59597 0.0
Fe330 Fe 0.10062 0.82359 0.31192 0.0
Fe331 Fe 0.02042 0.80379 0.27373 0.0
O332 O 0.05655 0.79758 0.3167 0.0
Fe333 Fe 0.04849 0.76726 0.3655 0.0
O334 O 0.05791 0.8062 0.4064 0.0
O335 O 0.11003 0.82779 0.37291 0.0
O336 O 0.07514 0.86994 0.31521 0.0
C337 C 0.04839 0.87924 0.28776 0.0
C338 C 0.12713 0.7531 0.33994 0.0
O339 O 0.03229 0.85414 0.26275 0.0
C340 C 1.00768 0.7246 0.30429 0.0
O341 O 0.10115 0.82554 0.24971 0.0
O342 O 0.05316 0.78922 0.22577 0.0
O343 O 0.09897 0.75061 0.36781 0.0
O344 O 0.12794 0.77873 0.30885 0.0
C345 C 0.97735 0.80636 0.3542 0.0
O346 O 0.99991 0.75411 0.27962 0.0
O347 O 0.03695 0.7254 0.33013 0.0
C348 C 0.08438 0.80802 0.2175 0.0
O349 O 0.98594 0.82178 0.31623 0.0
O350 O 0.99745 0.7795 0.37135 0.0
C351 C 0.0878 0.82687 0.40692 0.0
H352 H 0.06941 0.87984 0.1874 0.0
H353 H 0.13107 0.77635 0.14908 0.0
H354 H 0.16927 0.81472 0.09274 0.0
H355 H 0.07246 0.93396 0.07553 0.0
H356 H 0.08095 0.97905 0.10511 0.0
H357 H 0.05261 0.94159 0.13207 0.0
H358 H 0.09809 0.94325 0.20245 0.0
H359 H 0.12671 0.98027 0.17571 0.0
H360 H 0.14912 0.93585 0.19426 0.0
H361 H 0.20838 0.86952 0.04837 0.0
H362 H 0.24345 0.92983 0.02759 0.0
H363 H 0.15806 0.99709 0.10133 0.0
C364 C 0.08889 0.86463 0.16493 0.0
C365 C 0.09509 0.8243 0.17119 0.0
C366 C 0.12383 0.8065 0.14353 0.0
C367 C 0.14623 0.82848 0.11183 0.0
C368 C 0.14039 0.86872 0.10852 0.0
C369 C 0.11205 0.88637 0.13459 0.0
C370 C 0.1148 0.93031 0.13126 0.0
C371 C 0.07802 0.94722 0.10969 0.0
C372 C 0.12265 0.94844 0.17871 0.0
C373 C 0.14933 0.93516 0.09953 0.0
C374 C 0.16356 0.89948 0.08595 0.0
C375 C 0.19689 0.89736 0.05862 0.0
C376 C 0.21655 0.93204 0.0464 0.0
C377 C 0.20344 0.96883 0.06184 0.0
C378 C 0.16869 0.96985 0.08788 0.0
H379 H 0.88873 0.94955 0.80472 0.0
H380 H 0.786 0.89697 0.86011 0.0
H381 H 0.82504 0.86668 0.92212 0.0
H382 H 0.94174 0.86755 0.81137 0.0
H383 H 0.98749 0.89033 0.82324 0.0
H384 H 0.95077 0.9166 0.79293 0.0
H385 H 0.95303 0.97146 0.85332 0.0
H386 H 0.99061 0.94575 0.88332 0.0
H387 H 0.94734 0.96001 0.91332 0.0
H388 H 0.87855 0.83437 0.97175 0.0
H389 H 0.93748 0.79958 0.99669 0.0
H390 H 1.00549 0.86767 0.9015 0.0
C391 C 0.87404 0.93363 0.8315 0.0
C392 C 0.83346 0.92802 0.82949 0.0
C393 C 0.8162 0.90418 0.86319 0.0
C394 C 0.83855 0.88626 0.89793 0.0
C395 C 0.87871 0.89146 0.89793 0.0
C396 C 0.8962 0.91459 0.86517 0.0
C397 C 0.93991 0.91051 0.86693 0.0
C398 C 0.95588 0.89533 0.82091 0.0
C399 C 0.95885 0.94924 0.88003 0.0
C400 C 0.94458 0.88076 0.90503 0.0
C401 C 0.9091 0.87081 0.92347 0.0
C402 C 0.90636 0.84247 0.95775 0.0
C403 C 0.94021 0.82303 0.97221 0.0
C404 C 0.97657 0.8312 0.9519 0.0
C405 C 0.97847 0.86123 0.91861 0.0
H406 H 0.78782 0.08592 0.09399 0.0
H407 H 0.88299 0.01283 0.05235 0.0
H408 H 0.92888 0.0654 0.0736 0.0
H409 H 0.82929 0.1813 0.0611 0.0
H410 H 0.80943 0.20461 0.11124 0.0
H411 H 0.78473 0.16397 0.08572 0.0
H412 H 0.78582 0.12788 0.16359 0.0
H413 H 0.81007 0.16843 0.18939 0.0
H414 H 0.83123 0.12082 0.19258 0.0
H415 H 0.96513 0.12581 0.10934 0.0
H416 H 0.98555 0.18004 0.15971 0.0
H417 H 0.86602 0.21233 0.17835 0.0
C418 C 0.81814 0.08122 0.08752 0.0
C419 C 0.83134 0.04524 0.06953 0.0
C420 C 0.87175 0.04034 0.06422 0.0
C421 C 0.89811 0.07019 0.07659 0.0
C422 C 0.88397 0.10512 0.09481 0.0
C423 C 0.84467 0.1105 0.10014 0.0
C424 C 0.83634 0.14845 0.12497 0.0
C425 C 0.8136 0.17622 0.09389 0.0
C426 C 0.81461 0.14093 0.1703 0.0
C427 C 0.87699 0.16363 0.13369 0.0
C428 C 0.90428 0.13868 0.11556 0.0
C429 C 0.94375 0.14569 0.1227 0.0
C430 C 0.95533 0.17732 0.1508 0.0
C431 C 0.92774 0.20185 0.17215 0.0
C432 C 0.88814 0.19542 0.16133 0.0
H433 H 0.02855 0.1993 0.87365 0.0
H434 H 0.06584 0.17723 0.01301 0.0
H435 H 0.11925 0.13608 0.98306 0.0
H436 H 0.05457 0.10868 0.81962 0.0
H437 H 0.07244 0.13195 0.76841 0.0
H438 H 0.03482 0.15452 0.80168 0.0
H439 H 0.07645 0.21645 0.80858 0.0
H440 H 0.11445 0.194 0.77588 0.0
H441 H 0.12441 0.21332 0.83214 0.0
H442 H 0.17027 0.09491 0.93366 0.0
H443 H 0.2144 0.0679 0.87382 0.0
H444 H 0.14817 0.12714 0.76922 0.0
C445 C 0.0473 0.18517 0.89817 0.0
C446 C 0.04179 0.19077 0.94611 0.0
C447 C 0.06845 0.17275 0.97634 0.0
C448 C 0.09913 0.14939 0.95944 0.0
C449 C 0.10402 0.14509 0.91186 0.0
C450 C 0.07899 0.16334 0.88185 0.0
C451 C 0.09239 0.15838 0.83247 0.0
C452 C 0.06173 0.13711 0.80386 0.0
C453 C 0.10254 0.19786 0.81103 0.0
C454 C 0.12827 0.13355 0.83882 0.0
C455 C 0.1345 0.12545 0.88467 0.0
C456 C 0.16552 0.10162 0.89781 0.0
C457 C 0.19054 0.08618 0.86354 0.0
C458 C 0.18525 0.09529 0.81649 0.0
C459 C 0.15351 0.11947 0.80467 0.0
H460 H 0.23578 0.57999 0.15034 0.0
H461 H 0.14688 0.52543 0.23208 0.0
H462 H 0.10252 0.58019 0.21403 0.0
H463 H 0.21319 0.68261 0.17301 0.0
H464 H 0.22298 0.696 0.1143 0.0
H465 H 0.24816 0.65582 0.13989 0.0
H466 H 0.22433 0.61052 0.07386 0.0
H467 H 0.19999 0.65125 0.04835 0.0
H468 H 0.17348 0.6078 0.06184 0.0
H469 H 0.06495 0.63886 0.17608 0.0
H470 H 0.0407 0.69177 0.12615 0.0
H471 H 0.15605 0.70707 0.07121 0.0
C472 C 0.20759 0.58033 0.16631 0.0
C473 C 0.19557 0.54891 0.19434 0.0
C474 C 0.15749 0.5497 0.21217 0.0
C475 C 0.13194 0.58065 0.20155 0.0
C476 C 0.14465 0.61072 0.17272 0.0
C477 C 0.18193 0.61066 0.15576 0.0
C478 C 0.18804 0.6435 0.12179 0.0
C479 C 0.21998 0.67112 0.13825 0.0
C480 C 0.19701 0.62733 0.07364 0.0
C481 C 0.14876 0.66296 0.12264 0.0
C482 C 0.12373 0.64358 0.15169 0.0
C483 C 0.08479 0.65445 0.15408 0.0
C484 C 0.07119 0.6849 0.12563 0.0
C485 C 0.09627 0.70473 0.09494 0.0
C486 C 0.13587 0.69377 0.09485 0.0
H487 H 0.5199 0.87708 0.86348 0.0
H488 H 0.58352 0.79165 0.78515 0.0
H489 H 0.64483 0.82299 0.80789 0.0
H490 H 0.58829 0.96096 0.83712 0.0
H491 H 0.58145 0.98131 0.89358 0.0
H492 H 0.54274 0.95505 0.86631 0.0
H493 H 0.53833 0.90937 0.9366 0.0
H494 H 0.5768 0.93581 0.96361 0.0
H495 H 0.581 0.88422 0.95572 0.0
H496 H 0.69888 0.85376 0.85626 0.0
H497 H 0.7396 0.88823 0.91294 0.0
H498 H 0.64381 0.96271 0.9473 0.0
C499 C 0.54665 0.86605 0.84935 0.0
C500 C 0.5465 0.83214 0.82156 0.0
C501 C 0.58245 0.81804 0.80524 0.0
C502 C 0.61762 0.83551 0.81852 0.0
C503 C 0.61677 0.86805 0.8472 0.0
C504 C 0.58207 0.88406 0.861 0.0
C505 C 0.58913 0.91838 0.89293 0.0
C506 C 0.57454 0.95617 0.87117 0.0
C507 C 0.57019 0.91148 0.94001 0.0
C508 C 0.63305 0.91828 0.89657 0.0
C509 C 0.64845 0.8886 0.87042 0.0
C510 C 0.68739 0.87849 0.87459 0.0
C511 C 0.71079 0.89878 0.90623 0.0
C512 C 0.69633 0.93044 0.93196 0.0
C513 C 0.65678 0.94045 0.92621 0.0
H514 H 0.8665 0.49943 0.16319 0.0
H515 H 0.78896 0.42795 0.24327 0.0
H516 H 0.82832 0.37013 0.22422 0.0
H517 H 0.88091 0.4368 0.07378 0.0
H518 H 0.93127 0.44766 0.06496 0.0
H519 H 0.90018 0.4832 0.09062 0.0
H520 H 0.94578 0.48726 0.16091 0.0
H521 H 0.97688 0.45143 0.13517 0.0
H522 H 0.95776 0.44377 0.19206 0.0
H523 H 0.86953 0.3175 0.18055 0.0
H524 H 0.90871 0.28031 0.12416 0.0
H525 H 0.9646 0.3865 0.08214 0.0
C526 C 0.85875 0.47192 0.17851 0.0
C527 C 0.82483 0.46883 0.2058 0.0
C528 C 0.81524 0.43173 0.22359 0.0
C529 C 0.83736 0.39845 0.2124 0.0
C530 C 0.8699 0.40238 0.18409 0.0
C531 C 0.88107 0.43861 0.16852 0.0
C532 C 0.91578 0.4353 0.13666 0.0
C533 C 0.90645 0.45168 0.0887 0.0
C534 C 0.95115 0.45565 0.15746 0.0
C535 C 0.92162 0.39159 0.13511 0.0
C536 C 0.89489 0.37276 0.1624 0.0
C537 C 0.89146 0.33218 0.16056 0.0
C538 C 0.91447 0.31089 0.12891 0.0
C539 C 0.94146 0.32983 0.09994 0.0
C540 C 0.94593 0.3706 0.10531 0.0
H541 H 0.39391 0.0836 0.97162 0.0
H542 H 0.2901 0.1028 0.89235 0.0
H543 H 0.32933 0.13507 0.83187 0.0
H544 H 0.43162 0.17887 0.94831 0.0
H545 H 0.48113 0.1629 0.9503 0.0
H546 H 0.44477 0.13771 0.98263 0.0
H547 H 0.46544 0.07364 0.94209 0.0
H548 H 0.50074 0.09975 0.90876 0.0
H549 H 0.46437 0.07118 0.88025 0.0
H550 H 0.38087 0.17058 0.78228 0.0
H551 H 0.43588 0.20861 0.75263 0.0
H552 H 0.5055 0.17053 0.86771 0.0
C553 C 0.37936 0.09362 0.94113 0.0
C554 C 0.33869 0.0892 0.93641 0.0
C555 C 0.32113 0.10445 0.89636 0.0
C556 C 0.34333 0.12313 0.86189 0.0
C557 C 0.38325 0.12756 0.86819 0.0
C558 C 0.40092 0.11355 0.9073 0.0
C559 C 0.44321 0.12596 0.90881 0.0
C560 C 0.45062 0.15294 0.94994 0.0
C561 C 0.47003 0.09052 0.91004 0.0
C562 C 0.44717 0.14819 0.86387 0.0
C563 C 0.41224 0.14884 0.84088 0.0
C564 C 0.40826 0.16977 0.80007 0.0
C565 C 0.44002 0.1913 0.78323 0.0
C566 C 0.47589 0.19247 0.80697 0.0
C567 C 0.47928 0.16969 0.84755 0.0
H568 H 0.65467 0.50805 0.60704 0.0
H569 H 0.72599 0.43628 0.51956 0.0
H570 H 0.68373 0.37996 0.5363 0.0
H571 H 0.6409 0.44294 0.69288 0.0
H572 H 0.59159 0.45574 0.7056 0.0
H573 H 0.6232 0.49083 0.67997 0.0
H574 H 0.57487 0.49991 0.61302 0.0
H575 H 0.54317 0.46456 0.63871 0.0
H576 H 0.55936 0.45838 0.58031 0.0
H577 H 0.64049 0.32794 0.57742 0.0
H578 H 0.60158 0.29043 0.63406 0.0
H579 H 0.55523 0.39683 0.68794 0.0
C580 C 0.66037 0.48094 0.58959 0.0
C581 C 0.6934 0.47717 0.56097 0.0
C582 C 0.7004 0.44058 0.54033 0.0
C583 C 0.6766 0.40816 0.55014 0.0
C584 C 0.64513 0.41262 0.58001 0.0
C585 C 0.63656 0.44857 0.5985 0.0
C586 C 0.60323 0.44566 0.63237 0.0
C587 C 0.61549 0.45958 0.68051 0.0
C588 C 0.56807 0.46848 0.61505 0.0
C589 C 0.5953 0.40231 0.6318 0.0
C590 C 0.61951 0.38346 0.60136 0.0
C591 C 0.6206 0.34278 0.60006 0.0
C592 C 0.59793 0.32132 0.6318 0.0
C593 C 0.57407 0.34011 0.66425 0.0
C594 C 0.57167 0.38122 0.66223 0.0
H595 H 0.43761 0.33817 0.48085 0.0
H596 H 0.50823 0.3086 0.36245 0.0
H597 H 0.45734 0.32913 0.31133 0.0
H598 H 0.34002 0.33269 0.43403 0.0
H599 H 0.32343 0.37968 0.4525 0.0
H600 H 0.36052 0.35489 0.48445 0.0
H601 H 0.40574 0.4139 0.47545 0.0
H602 H 0.36865 0.439 0.44383 0.0
H603 H 0.41587 0.43256 0.41888 0.0
H604 H 0.39254 0.33484 0.27564 0.0
H605 H 0.33593 0.366 0.24438 0.0
H606 H 0.31927 0.42923 0.37212 0.0
C607 C 0.44202 0.3356 0.44419 0.0
C608 C 0.47558 0.31622 0.42635 0.0
C609 C 0.48149 0.31809 0.37802 0.0
C610 C 0.45274 0.33038 0.34808 0.0
C611 C 0.41932 0.34609 0.36622 0.0
C612 C 0.41509 0.3527 0.4126 0.0
C613 C 0.38025 0.38015 0.41953 0.0
C614 C 0.34921 0.36069 0.44942 0.0
C615 C 0.39342 0.41871 0.4407 0.0
C616 C 0.36568 0.38602 0.36981 0.0
C617 C 0.38776 0.36331 0.34114 0.0
C618 C 0.37693 0.35568 0.29635 0.0
C619 C 0.34458 0.37429 0.27869 0.0
C620 C 0.32524 0.40433 0.30309 0.0
C621 C 0.3351 0.40911 0.35072 0.0
H622 H 0.2813 0.58439 0.6207 0.0
H623 H 0.37235 0.53198 0.54032 0.0
H624 H 0.41612 0.58627 0.56182 0.0
H625 H 0.30579 0.68791 0.60162 0.0
H626 H 0.29399 0.70034 0.6601 0.0
H627 H 0.26922 0.66098 0.63206 0.0
H628 H 0.28959 0.6144 0.698 0.0
H629 H 0.31383 0.65401 0.72596 0.0
H630 H 0.33993 0.61028 0.71257 0.0
H631 H 0.45253 0.64377 0.60216 0.0
H632 H 0.47617 0.69519 0.65448 0.0
H633 H 0.3602 0.70909 0.70812 0.0
C634 C 0.30986 0.58516 0.60574 0.0
C635 C 0.32264 0.55448 0.57696 0.0
C636 C 0.36118 0.55575 0.56064 0.0
C637 C 0.38638 0.58643 0.57323 0.0
C638 C 0.37293 0.61574 0.60262 0.0
C639 C 0.33527 0.61527 0.6183 0.0
C640 C 0.3284 0.64748 0.65304 0.0
C641 C 0.29752 0.67587 0.63565 0.0
C642 C 0.31728 0.63054 0.70016 0.0
C643 C 0.36798 0.66651 0.65477 0.0
C644 C 0.39346 0.6479 0.62557 0.0
C645 C 0.43242 0.65873 0.62441 0.0
C646 C 0.44566 0.68835 0.65425 0.0
C647 C 0.42026 0.7073 0.68534 0.0
C648 C 0.38061 0.6964 0.68431 0.0
H649 H 0.51231 0.65311 0.39778 0.0
H650 H 0.58268 0.72079 0.49098 0.0
H651 H 0.64029 0.68344 0.46684 0.0
H652 H 0.56572 0.55896 0.41112 0.0
H653 H 0.55952 0.54726 0.35122 0.0
H654 H 0.52357 0.57565 0.38073 0.0
H655 H 0.53054 0.6291 0.31919 0.0
H656 H 0.567 0.60132 0.29003 0.0
H657 H 0.57733 0.65011 0.30833 0.0
H658 H 0.6927 0.64658 0.41987 0.0
H659 H 0.73138 0.61023 0.36229 0.0
H660 H 0.62665 0.56166 0.30619 0.0
C661 C 0.53953 0.65909 0.41461 0.0
C662 C 0.54239 0.68974 0.44717 0.0
C663 C 0.57909 0.69706 0.46703 0.0
C664 C 0.61223 0.67611 0.45303 0.0
C665 C 0.60852 0.64715 0.41958 0.0
C666 C 0.57275 0.63806 0.40148 0.0
C667 C 0.57652 0.60737 0.3641 0.0
C668 C 0.55506 0.57009 0.37763 0.0
C669 C 0.56199 0.62292 0.31769 0.0
C670 C 0.61999 0.60098 0.36322 0.0
C671 C 0.63815 0.62442 0.39511 0.0
C672 C 0.67851 0.62707 0.39617 0.0
C673 C 0.7005 0.60594 0.36366 0.0
C674 C 0.68256 0.58129 0.33116 0.0
C675 C 0.64165 0.57855 0.33184 0.0
H676 H 0.66335 0.01764 0.64933 0.0
H677 H 0.74074 0.08885 0.73051 0.0
H678 H 0.70332 0.14687 0.70923 0.0
H679 H 0.65127 0.0814 0.55788 0.0
H680 H 0.60075 0.07157 0.54865 0.0
H681 H 0.63101 0.03531 0.57439 0.0
H682 H 0.58438 0.03191 0.64347 0.0
H683 H 0.55447 0.06918 0.61872 0.0
H684 H 0.57373 0.07524 0.6757 0.0
H685 H 0.66575 0.19898 0.66512 0.0
H686 H 0.62896 0.23742 0.6089 0.0
H687 H 0.5683 0.13467 0.56576 0.0
C688 C 0.67177 0.0452 0.66398 0.0
C689 C 0.70527 0.04795 0.69231 0.0
C690 C 0.71524 0.08519 0.70948 0.0
C691 C 0.69411 0.11865 0.69727 0.0
C692 C 0.66211 0.11502 0.66835 0.0
C693 C 0.65046 0.07904 0.65271 0.0
C694 C 0.61597 0.08334 0.62044 0.0
C695 C 0.62533 0.06695 0.57252 0.0
C696 C 0.58001 0.06373 0.64081 0.0
C697 C 0.61099 0.12732 0.619 0.0
C698 C 0.638 0.14511 0.6468 0.0
C699 C 0.64298 0.18536 0.64547 0.0
C700 C 0.62079 0.20762 0.61439 0.0
C701 C 0.59226 0.1905 0.58606 0.0
C702 C 0.58722 0.14955 0.58949 0.0
H703 H 0.19304 0.44392 0.39571 0.0
H704 H 0.17966 0.37543 0.52007 0.0
H705 H 0.12373 0.34384 0.48822 0.0
H706 H 0.09435 0.44543 0.35188 0.0
H707 H 0.10476 0.43028 0.29393 0.0
H708 H 0.14087 0.45571 0.32683 0.0
H709 H 0.18912 0.39982 0.31355 0.0
H710 H 0.15318 0.37455 0.28027 0.0
H711 H 0.17544 0.35105 0.32873 0.0
H712 H 0.06031 0.33393 0.45259 0.0
H713 H 0.01098 0.31105 0.40082 0.0
H714 H 0.07729 0.35236 0.28371 0.0
C715 C 0.17787 0.42276 0.41636 0.0
C716 C 0.1886 0.41638 0.46344 0.0
C717 C 0.1702 0.38504 0.48657 0.0
C718 C 0.13826 0.36607 0.46847 0.0
C719 C 0.12674 0.37487 0.42427 0.0
C720 C 0.14759 0.39959 0.39662 0.0
C721 C 0.13262 0.39514 0.34687 0.0
C722 C 0.11724 0.43397 0.3288 0.0
C723 C 0.16452 0.37919 0.31549 0.0
C724 C 0.09949 0.36541 0.35253 0.0
C725 C 0.09606 0.35675 0.39851 0.0
C726 C 0.06433 0.33735 0.41594 0.0
C727 C 0.03648 0.3238 0.38556 0.0
C728 C 0.04176 0.325 0.33709 0.0
C729 C 0.07352 0.34777 0.32019 0.0
H730 H 0.38022 0.81585 0.58793 0.0
H731 H 0.49577 0.86404 0.59009 0.0
H732 H 0.47248 0.91762 0.63948 0.0
H733 H 0.33157 0.90337 0.57674 0.0
H734 H 0.29094 0.89016 0.61213 0.0
H735 H 0.31797 0.8532 0.58278 0.0
H736 H 0.32959 0.81839 0.65997 0.0
H737 H 0.30334 0.85557 0.69032 0.0
H738 H 0.35223 0.84412 0.70654 0.0
H739 H 0.4332 0.97232 0.67977 0.0
H740 H 0.38377 0.01942 0.706 0.0
H741 H 0.29447 0.93469 0.68013 0.0
C742 C 0.4011 0.83685 0.60002 0.0
C743 C 0.44034 0.83475 0.5853 0.0
C744 C 0.46598 0.86389 0.60134 0.0
C745 C 0.45279 0.89484 0.6293 0.0
C746 C 0.41373 0.89655 0.64181 0.0
C747 C 0.38839 0.86791 0.62794 0.0
C748 C 0.34732 0.8776 0.64298 0.0
C749 C 0.32038 0.8813 0.60118 0.0
C750 C 0.3322 0.84711 0.67698 0.0
C751 C 0.3531 0.91661 0.66658 0.0
C752 C 0.39164 0.92709 0.66583 0.0
C753 C 0.40321 0.96365 0.68167 0.0
C754 C 0.3749 0.99025 0.69723 0.0
C755 C 0.33513 0.98046 0.69777 0.0
C756 C 0.3246 0.94264 0.68284 0.0
H757 H 0.89296 0.57387 0.4658 0.0
H758 H 0.78753 0.61779 0.40614 0.0
H759 H 0.82593 0.65306 0.34745 0.0
H760 H 0.9411 0.66334 0.45911 0.0
H761 H 0.98828 0.64298 0.44919 0.0
H762 H 0.95249 0.61551 0.47997 0.0
H763 H 0.96023 0.55926 0.42226 0.0
H764 H 0.99593 0.58665 0.39099 0.0
H765 H 0.95392 0.56822 0.36172 0.0
H766 H 0.87719 0.6878 0.29833 0.0
H767 H 0.93382 0.72348 0.26929 0.0
H768 H 1.00665 0.66306 0.36695 0.0
C769 C 0.87778 0.58972 0.43943 0.0
C770 C 0.83672 0.59126 0.43931 0.0
C771 C 0.81854 0.61437 0.40555 0.0
C772 C 0.84035 0.63489 0.37238 0.0
C773 C 0.88075 0.63324 0.37402 0.0
C774 C 0.89926 0.6115 0.40717 0.0
C775 C 0.94276 0.61858 0.40563 0.0
C776 C 0.95698 0.63616 0.45117 0.0
C777 C 0.96449 0.58093 0.39447 0.0
C778 C 0.94602 0.64769 0.36637 0.0
C779 C 0.90995 0.65523 0.34813 0.0
C780 C 0.90547 0.68184 0.3124 0.0
C781 C 0.93815 0.70195 0.29581 0.0
C782 C 0.97541 0.69625 0.3151 0.0
C783 C 0.97908 0.66796 0.35051 0.0
H784 H 0.23072 0.35621 0.07551 0.0
H785 H 0.17395 0.34692 0.20708 0.0
H786 H 0.15516 0.27939 0.18889 0.0
H787 H 0.16856 0.28239 0.00803 0.0
H788 H 0.21121 0.26483 0.97931 0.0
H789 H 0.20748 0.31526 0.99492 0.0
H790 H 0.27199 0.31011 0.03917 0.0
H791 H 0.27585 0.2599 0.02445 0.0
H792 H 0.27693 0.27437 0.08391 0.0
H793 H 0.15588 0.20931 0.16416 0.0
H794 H 0.18038 0.14518 0.1401 0.0
H795 H 0.24172 0.19907 0.02737 0.0
C796 C 0.21201 0.34072 0.09901 0.0
C797 C 0.20211 0.35729 0.14177 0.0
C798 C 0.18014 0.33537 0.17332 0.0
C799 C 0.16965 0.29683 0.16324 0.0
C800 C 0.18181 0.28048 0.12167 0.0
C801 C 0.20242 0.30202 0.08988 0.0
C802 C 0.21926 0.27635 0.05258 0.0
C803 C 0.20049 0.28524 1.00596 0.0
C804 C 0.26359 0.28042 0.04996 0.0
C805 C 0.20725 0.23671 0.0699 0.0
C806 C 0.18433 0.23967 0.1087 0.0
C807 C 0.17301 0.20674 0.13322 0.0
C808 C 0.18685 0.17025 0.1191 0.0
C809 C 0.21261 0.16704 0.0815 0.0
C810 C 0.22143 0.20058 0.05563 0.0
H811 H 0.19951 0.78862 0.98302 0.0
H812 H 0.14366 0.83197 0.86048 0.0
H813 H 0.20678 0.85377 0.83063 0.0
H814 H 0.28182 0.865 0.98489 0.0
H815 H 0.31549 0.82897 1.00488 0.0
H816 H 0.26567 0.82693 0.02267 0.0
H817 H 0.25999 0.75673 0.99241 0.0
H818 H 0.30964 0.75825 0.97551 0.0
H819 H 0.27313 0.74638 0.93371 0.0
H820 H 0.27564 0.85227 0.80481 0.0
H821 H 0.34289 0.83214 0.78878 0.0
H822 H 0.35515 0.79354 0.92903 0.0
C823 C 0.20044 0.80449 0.95096 0.0
C824 C 0.16673 0.80883 0.9242 0.0
C825 C 0.16898 0.82897 0.88196 0.0
C826 C 0.20484 0.84133 0.86466 0.0
C827 C 0.23802 0.8343 0.89057 0.0
C828 C 0.23595 0.8173 0.93354 0.0
C829 C 0.27583 0.80813 0.95192 0.0
C830 C 0.28525 0.83381 0.99355 0.0
C831 C 0.27983 0.76482 0.964 0.0
C832 C 0.30047 0.81909 0.91088 0.0
C833 C 0.2783 0.83509 0.87618 0.0
C834 C 0.29358 0.84148 0.83238 0.0
C835 C 0.33185 0.83013 0.82347 0.0
C836 C 0.35448 0.813 0.85826 0.0
C837 C 0.33896 0.80862 0.90273 0.0
H838 H 0.74524 0.69072 0.21662 0.0
H839 H 0.82192 0.63998 0.11562 0.0
H840 H 0.84131 0.70579 0.09039 0.0
H841 H 0.70847 0.76123 0.14936 0.0
H842 H 0.70524 0.79782 0.19338 0.0
H843 H 0.7039 0.74757 0.2089 0.0
H844 H 0.76183 0.75851 0.26385 0.0
H845 H 0.76299 0.80897 0.24795 0.0
H846 H 0.80575 0.77965 0.24199 0.0
H847 H 0.84198 0.77766 0.06627 0.0
H848 H 0.8257 0.84637 0.04912 0.0
H849 H 0.74972 0.84877 0.16703 0.0
C850 C 0.76727 0.69342 0.19039 0.0
C851 C 0.78233 0.66014 0.16843 0.0
C852 C 0.81053 0.66495 0.13362 0.0
C853 C 0.82153 0.70232 0.11888 0.0
C854 C 0.80462 0.73461 0.13984 0.0
C855 C 0.7786 0.73033 0.17558 0.0
C856 C 0.76148 0.76891 0.1897 0.0
C857 C 0.71717 0.76882 0.18499 0.0
C858 C 0.77377 0.77964 0.23878 0.0
C859 C 0.78021 0.79544 0.1548 0.0
C860 C 0.80553 0.7755 0.12665 0.0
C861 C 0.82309 0.79367 0.08901 0.0
C862 C 0.81389 0.83273 0.07954 0.0
C863 C 0.78739 0.85301 0.10759 0.0
C864 C 0.7711 0.83422 0.14603 0.0
H865 H 0.84089 0.2084 0.91028 0.0
H866 H 0.85537 0.33316 0.92292 0.0
H867 H 0.79137 0.34357 0.89214 0.0
H868 H 0.77928 0.20748 0.80853 0.0
H869 H 0.74615 0.1712 0.8293 0.0
H870 H 0.79554 0.17131 0.84875 0.0
H871 H 0.77231 0.17442 0.93314 0.0
H872 H 0.72285 0.17415 0.91397 0.0
H873 H 0.73995 0.21257 0.95063 0.0
H874 H 0.73051 0.34315 0.85585 0.0
H875 H 0.66569 0.33249 0.82759 0.0
H876 H 0.6778 0.20834 0.84968 0.0
C877 C 0.83042 0.23773 0.90615 0.0
C878 C 0.85413 0.27001 0.91734 0.0
C879 C 0.83888 0.30794 0.91298 0.0
C880 C 0.80217 0.31431 0.89573 0.0
C881 C 0.77981 0.28246 0.88452 0.0
C882 C 0.79232 0.24485 0.89061 0.0
C883 C 0.75953 0.21668 0.87921 0.0
C884 C 0.77081 0.19009 0.83906 0.0
C885 C 0.74798 0.19305 0.92178 0.0
C886 C 0.72745 0.24479 0.86529 0.0
C887 C 0.7409 0.28237 0.86794 0.0
C888 C 0.7191 0.31398 0.85455 0.0
C889 C 0.68202 0.30742 0.83855 0.0
C890 C 0.66592 0.26962 0.83734 0.0
C891 C 0.68903 0.23759 0.85093 0.0
H892 H 0.73391 0.85231 0.58994 0.0
H893 H 0.71142 0.8441 0.7359 0.0
H894 H 0.69508 0.77493 0.72687 0.0
H895 H 0.65922 0.77025 0.55528 0.0
H896 H 0.69113 0.75442 0.51013 0.0
H897 H 0.68792 0.80519 0.52444 0.0
H898 H 0.76094 0.80658 0.53519 0.0
H899 H 0.76525 0.75603 0.52311 0.0
H900 H 0.7837 0.77464 0.57657 0.0
H901 H 0.69542 0.70508 0.70596 0.0
H902 H 0.71606 0.64135 0.67636 0.0
H903 H 0.74332 0.69322 0.54503 0.0
C904 C 0.72325 0.83644 0.61941 0.0
C905 C 0.72298 0.85384 0.66351 0.0
C906 C 0.71098 0.83161 0.70176 0.0
C907 C 0.7016 0.79224 0.69687 0.0
C908 C 0.70423 0.77531 0.65342 0.0
C909 C 0.7142 0.79684 0.61508 0.0
C910 C 0.72065 0.77048 0.57382 0.0
C911 C 0.68778 0.77538 0.53886 0.0
C912 C 0.76006 0.77735 0.551 0.0
C913 C 0.71837 0.73101 0.59649 0.0
C914 C 0.70628 0.73435 0.64162 0.0
C915 C 0.70408 0.70213 0.67042 0.0
C916 C 0.71581 0.66596 0.65328 0.0
C917 C 0.73087 0.66245 0.60829 0.0
C918 C 0.73128 0.6952 0.57927 0.0
H919 H 0.8216 0.27718 0.29259 0.0
H920 H 0.87694 0.32225 0.41513 0.0
H921 H 0.81352 0.33957 0.44685 0.0
H922 H 0.73712 0.3497 0.29328 0.0
H923 H 0.70466 0.31265 0.27295 0.0
H924 H 0.75456 0.31242 0.25521 0.0
H925 H 0.76131 0.24195 0.2849 0.0
H926 H 0.71184 0.24206 0.30312 0.0
H927 H 0.74945 0.23127 0.34386 0.0
H928 H 0.7454 0.33444 0.47413 0.0
H929 H 0.67768 0.31501 0.4895 0.0
H930 H 0.66541 0.27983 0.34757 0.0
C931 C 0.82052 0.29223 0.32519 0.0
C932 C 0.85437 0.29804 0.35136 0.0
C933 C 0.85156 0.31741 0.39423 0.0
C934 C 0.81554 0.32744 0.41265 0.0
C935 C 0.78253 0.31898 0.38734 0.0
C936 C 0.78472 0.30287 0.34386 0.0
C937 C 0.74494 0.29292 0.32582 0.0
C938 C 0.73471 0.31846 0.28436 0.0
C939 C 0.74173 0.24951 0.31377 0.0
C940 C 0.72045 0.30323 0.3672 0.0
C941 C 0.74254 0.31858 0.40228 0.0
C942 C 0.72742 0.32408 0.44635 0.0
C943 C 0.68903 0.31297 0.45491 0.0
C944 C 0.66615 0.29733 0.41932 0.0
C945 C 0.68182 0.29351 0.37477 0.0
H946 H 0.2832 0.17217 0.588 0.0
H947 H 0.31832 0.17289 0.73034 0.0
H948 H 0.34394 0.23963 0.72095 0.0
H949 H 0.36286 0.23854 0.54134 0.0
H950 H 0.32916 0.26146 0.50288 0.0
H951 H 0.32355 0.21095 0.51734 0.0
H952 H 0.25351 0.22393 0.54492 0.0
H953 H 0.25879 0.274 0.52995 0.0
H954 H 0.24502 0.26084 0.58758 0.0
H955 H 0.35283 0.31021 0.7001 0.0
H956 H 0.33844 0.37654 0.6731 0.0
H957 H 0.29789 0.33002 0.54399 0.0
C958 C 0.29802 0.18588 0.61644 0.0
C959 C 0.3 0.16729 0.65946 0.0
C960 C 0.31766 0.18645 0.69681 0.0
C961 C 0.33227 0.22431 0.69166 0.0
C962 C 0.32896 0.2425 0.64889 0.0
C963 C 0.31241 0.22364 0.61181 0.0
C964 C 0.3063 0.25106 0.57186 0.0
C965 C 0.33201 0.23982 0.53094 0.0
C966 C 0.26339 0.25256 0.55783 0.0
C967 C 0.31959 0.28888 0.59306 0.0
C968 C 0.33374 0.28331 0.637 0.0
C969 C 0.34289 0.31475 0.66531 0.0
C970 C 0.33512 0.35252 0.64948 0.0
C971 C 0.31779 0.35842 0.60607 0.0
C972 C 0.31228 0.32631 0.5767 0.0
H973 H 0.16277 0.75972 0.42149 0.0
H974 H 0.17547 0.70918 0.28631 0.0
H975 H 0.24153 0.68731 0.30667 0.0
H976 H 0.25097 0.80192 0.42133 0.0
H977 H 0.26024 0.79676 0.48191 0.0
H978 H 0.21144 0.79863 0.46148 0.0
H979 H 0.19721 0.73292 0.50121 0.0
H980 H 0.24633 0.73071 0.52147 0.0
H981 H 0.22673 0.69133 0.48818 0.0
H982 H 0.30845 0.67856 0.33826 0.0
H983 H 0.37234 0.69353 0.37095 0.0
H984 H 0.31746 0.75555 0.48276 0.0
C985 C 0.17895 0.74252 0.39701 0.0
C986 C 0.16388 0.73482 0.35296 0.0
C987 C 0.18641 0.71437 0.3206 0.0
C988 C 0.22377 0.70174 0.33204 0.0
C989 C 0.23825 0.71047 0.37565 0.0
C990 C 0.21657 0.73088 0.40742 0.0
C991 C 0.2408 0.74329 0.44813 0.0
C992 C 0.24087 0.78776 0.45346 0.0
C993 C 0.22693 0.72336 0.49236 0.0
C994 C 0.27994 0.72815 0.43354 0.0
C995 C 0.27761 0.70797 0.39256 0.0
C996 C 0.31051 0.69379 0.37065 0.0
C997 C 0.34676 0.7022 0.38973 0.0
C998 C 0.34985 0.72555 0.42959 0.0
C999 C 0.3159 0.73714 0.45269 0.0
H1000 H 0.3527 0.94274 0.146 0.0
H1001 H 0.25898 0.99172 0.22611 0.0
H1002 H 0.27272 0.94573 0.28869 0.0
H1003 H 0.34273 0.84111 0.18626 0.0
H1004 H 0.39416 0.83354 0.18873 0.0
H1005 H 0.37415 0.86676 0.14735 0.0
H1006 H 0.41814 0.92148 0.17844 0.0
H1007 H 0.43835 0.88848 0.21973 0.0
H1008 H 0.41683 0.93324 0.23875 0.0
H1009 H 0.29886 0.8994 0.3444 0.0
H1010 H 0.33904 0.85757 0.39335 0.0
H1011 H 0.41775 0.83808 0.27979 0.0
C1012 C 0.33468 0.94311 0.17641 0.0
C1013 C 0.30458 0.9705 0.18122 0.0
C1014 C 0.28216 0.97097 0.22185 0.0
C1015 C 0.28956 0.94478 0.2574 0.0
C1016 C 0.31968 0.91847 0.25196 0.0
C1017 C 0.34213 0.91748 0.21273 0.0
C1018 C 0.37509 0.88876 0.21787 0.0
C1019 C 0.37129 0.85557 0.18297 0.0
C1020 C 0.41442 0.90922 0.21345 0.0
C1021 C 0.3681 0.87452 0.26652 0.0
C1022 C 0.33552 0.89171 0.28503 0.0
C1023 C 0.32414 0.88539 0.33021 0.0
C1024 C 0.34714 0.86167 0.35772 0.0
C1025 C 0.38116 0.84452 0.34009 0.0
C1026 C 0.39138 0.85025 0.29362 0.0
H1027 H 0.90646 0.61689 0.67316 0.0
H1028 H 0.79742 0.61093 0.74665 0.0
H1029 H 0.82843 0.63978 0.81479 0.0
H1030 H 0.96796 0.59439 0.77149 0.0
H1031 H 1.00552 0.62725 0.75356 0.0
H1032 H 0.97522 0.60428 0.7113 0.0
H1033 H 0.95676 0.67157 0.67872 0.0
H1034 H 0.98679 0.69479 0.72097 0.0
H1035 H 0.93651 0.70765 0.71651 0.0
H1036 H 0.87041 0.67188 0.87376 0.0
H1037 H 0.92083 0.7038 0.92005 0.0
H1038 H 1.00251 0.68891 0.80813 0.0
C1039 C 0.88911 0.62137 0.70366 0.0
C1040 C 0.84942 0.6117 0.70445 0.0
C1041 C 0.82784 0.61805 0.74514 0.0
C1042 C 0.8452 0.63443 0.78406 0.0
C1043 C 0.8842 0.64411 0.78188 0.0
C1044 C 0.90597 0.6376 0.74286 0.0
C1045 C 0.94716 0.6514 0.74918 0.0
C1046 C 0.97564 0.6173 0.74622 0.0
C1047 C 0.95738 0.68325 0.71427 0.0
C1048 C 0.9449 0.66741 0.79754 0.0
C1049 C 0.9084 0.66268 0.81588 0.0
C1050 C 0.89915 0.67561 0.85985 0.0
C1051 C 0.928 0.6938 0.88584 0.0
C1052 C 0.96563 0.69908 0.86773 0.0
C1053 C 0.97402 0.68555 0.82295 0.0
H1054 H 0.71951 0.04387 0.22334 0.0
H1055 H 0.68654 0.09728 0.09432 0.0
H1056 H 0.65125 0.14819 0.13666 0.0
H1057 H 0.63226 0.05976 0.28251 0.0
H1058 H 0.65469 0.07052 0.33683 0.0
H1059 H 0.67861 0.03918 0.29642 0.0
H1060 H 0.73915 0.08361 0.29778 0.0
H1061 H 0.71553 0.11483 0.33863 0.0
H1062 H 0.73392 0.13456 0.28564 0.0
H1063 H 0.61472 0.19004 0.19358 0.0
H1064 H 0.58642 0.22357 0.2612 0.0
H1065 H 0.64682 0.14414 0.35139 0.0
C1066 C 0.7052 0.0665 0.20404 0.0
C1067 C 0.70567 0.06669 0.15569 0.0
C1068 C 0.68674 0.09683 0.13151 0.0
C1069 C 0.66647 0.12573 0.15518 0.0
C1070 C 0.66596 0.12431 0.20293 0.0
C1071 C 0.68539 0.09584 0.22707 0.0
C1072 C 0.68055 0.10083 0.27822 0.0
C1073 C 0.66032 0.06547 0.29973 0.0
C1074 C 0.71961 0.10895 0.30142 0.0
C1075 C 0.65486 0.13612 0.27907 0.0
C1076 C 0.6464 0.14919 0.23543 0.0
C1077 C 0.62159 0.18043 0.22798 0.0
C1078 C 0.60551 0.19912 0.26637 0.0
C1079 C 0.61493 0.18663 0.3112 0.0
C1080 C 0.63972 0.15469 0.31739 0.0
H1081 H 0.05636 0.29287 0.81763 0.0
H1082 H 0.12007 0.32697 0.93934 0.0
H1083 H 0.17194 0.35357 0.89017 0.0
H1084 H 0.14071 0.26951 0.74394 0.0
H1085 H 0.11807 0.28956 0.69357 0.0
H1086 H 0.08894 0.26796 0.73804 0.0
H1087 H 0.04937 0.33126 0.74513 0.0
H1088 H 0.07822 0.35329 0.70089 0.0
H1089 H 0.07405 0.3763 0.75624 0.0
H1090 H 0.2135 0.38197 0.82791 0.0
H1091 H 0.24141 0.41065 0.75775 0.0
H1092 H 0.14878 0.36031 0.67696 0.0
C1093 C 0.08175 0.30488 0.83399 0.0
C1094 C 0.08442 0.30753 0.88229 0.0
C1095 C 0.11757 0.3245 0.90238 0.0
C1096 C 0.14719 0.33957 0.87473 0.0
C1097 C 0.14306 0.33756 0.82715 0.0
C1098 C 0.11122 0.32051 0.80695 0.0
C1099 C 0.11186 0.3253 0.75527 0.0
C1100 C 0.11511 0.28573 0.7313 0.0
C1101 C 0.07627 0.34789 0.73843 0.0
C1102 C 0.14849 0.34873 0.74959 0.0
C1103 C 0.1664 0.35492 0.79135 0.0
C1104 C 0.19995 0.37695 0.79497 0.0
C1105 C 0.21554 0.39318 0.7549 0.0
C1106 C 0.19731 0.38773 0.71181 0.0
C1107 C 0.16346 0.36498 0.70931 0.0
H1108 H 0.36017 0.70831 0.97401 0.0
H1109 H 0.44716 0.63363 0.91397 0.0
H1110 H 0.4335 0.58378 0.97235 0.0
H1111 H 0.3736 0.67644 0.09672 0.0
H1112 H 0.32253 0.67793 0.10853 0.0
H1113 H 0.3433 0.71082 0.06722 0.0
H1114 H 0.29563 0.68631 1.00463 0.0
H1115 H 0.27454 0.6551 0.04703 0.0
H1116 H 0.29205 0.63501 0.99377 0.0
H1117 H 0.4055 0.53922 0.02836 0.0
H1118 H 0.36386 0.50108 0.08 0.0
H1119 H 0.29348 0.60258 0.10607 0.0
C1120 C 0.37686 0.68183 0.97423 0.0
C1121 C 0.40486 0.67465 0.93999 0.0
C1122 C 0.42565 0.63944 0.94015 0.0
C1123 C 0.41824 0.61111 0.97326 0.0
C1124 C 0.38972 0.61836 1.00587 0.0
C1125 C 0.36929 0.65277 1.00687 0.0
C1126 C 0.33741 0.65114 0.04275 0.0
C1127 C 0.34467 0.68085 0.08109 0.0
C1128 C 0.29756 0.6572 0.02067 0.0
C1129 C 0.34222 0.60993 0.06027 0.0
C1130 C 0.37307 0.59197 0.03886 0.0
C1131 C 0.38172 0.55308 0.04601 0.0
C1132 C 0.35785 0.53164 0.07517 0.0
C1133 C 0.32583 0.54906 0.09703 0.0
C1134 C 0.31828 0.58891 0.09034 0.0
H1135 H 0.61164 0.61131 0.09877 0.0
H1136 H 0.7197 0.60306 0.02356 0.0
H1137 H 0.68935 0.63501 0.95707 0.0
H1138 H 0.54801 0.59481 0.99995 0.0
H1139 H 0.51233 0.62879 0.02012 0.0
H1140 H 0.54178 0.6028 0.0607 0.0
H1141 H 0.56384 0.66788 0.09648 0.0
H1142 H 0.53475 0.6941 0.05585 0.0
H1143 H 0.58565 0.70422 0.06033 0.0
H1144 H 0.64853 0.671 0.90038 0.0
H1145 H 0.59926 0.70682 0.85642 0.0
H1146 H 0.51798 0.69187 0.96875 0.0
C1147 C 0.62884 0.61578 0.06816 0.0
C1148 C 0.66813 0.60474 0.06648 0.0
C1149 C 0.68959 0.61127 0.02574 0.0
C1150 C 0.67261 0.62939 0.98775 0.0
C1151 C 0.6341 0.64062 0.99092 0.0
C1152 C 0.61236 0.6338 0.0299 0.0
C1153 C 0.57188 0.64983 0.02492 0.0
C1154 C 0.54173 0.6171 0.02651 0.0
C1155 C 0.56357 0.68085 0.06157 0.0
C1156 C 0.57458 0.66745 0.97743 0.0
C1157 C 0.61061 0.66157 0.95829 0.0
C1158 C 0.62013 0.67563 0.9149 0.0
C1159 C 0.59198 0.69604 0.89027 0.0
C1160 C 0.55482 0.70239 0.90921 0.0
C1161 C 0.54619 0.68782 0.95342 0.0
H1162 H 0.63159 0.38723 0.90596 0.0
H1163 H 0.56568 0.30718 0.99013 0.0
H1164 H 0.59663 0.33457 0.05989 0.0
H1165 H 0.71898 0.38331 0.96956 0.0
H1166 H 0.72984 0.43394 0.96159 0.0
H1167 H 0.70214 0.40823 0.91906 0.0
H1168 H 0.64679 0.45848 0.92643 0.0
H1169 H 0.67451 0.48468 0.96847 0.0
H1170 H 0.6264 0.46846 0.98217 0.0
H1171 H 0.63722 0.37035 0.12011 0.0
H1172 H 0.67771 0.41519 0.16557 0.0
H1173 H 0.71529 0.47153 0.04004 0.0
C1174 C 0.62343 0.37538 0.93902 0.0
C1175 C 0.59637 0.34485 0.94261 0.0
C1176 C 0.58632 0.33057 0.9866 0.0
C1177 C 0.60393 0.3458 0.02629 0.0
C1178 C 0.63125 0.37533 0.0212 0.0
C1179 C 0.64047 0.3902 0.97858 0.0
C1180 C 0.67001 0.42234 0.98181 0.0
C1181 C 0.70745 0.41128 0.95652 0.0
C1182 C 0.65342 0.46076 0.96366 0.0
C1183 C 0.67601 0.4236 0.03313 0.0
C1184 C 0.65382 0.39603 0.05536 0.0
C1185 C 0.65466 0.392 0.10297 0.0
C1186 C 0.67799 0.41742 0.12847 0.0
C1187 C 0.69982 0.44677 0.10633 0.0
C1188 C 0.69909 0.44935 0.05798 0.0
H1189 H 0.46511 0.29148 0.94759 0.0
H1190 H 0.39982 0.32427 0.82665 0.0
H1191 H 0.34801 0.35011 0.87619 0.0
H1192 H 0.38026 0.26813 0.02335 0.0
H1193 H 0.40379 0.28859 0.07292 0.0
H1194 H 0.4321 0.26623 0.0282 0.0
H1195 H 0.47199 0.32951 0.02014 0.0
H1196 H 0.44343 0.35219 0.06417 0.0
H1197 H 0.44739 0.37444 0.00838 0.0
H1198 H 0.30727 0.37889 0.93779 0.0
H1199 H 0.28016 0.40912 0.0073 0.0
H1200 H 0.37322 0.36007 0.08847 0.0
C1201 C 0.43929 0.30287 0.93159 0.0
C1202 C 0.4362 0.30553 0.88333 0.0
C1203 C 0.40259 0.32178 0.86358 0.0
C1204 C 0.373 0.33641 0.89142 0.0
C1205 C 0.37753 0.33461 0.9389 0.0
C1206 C 0.40972 0.31808 0.9589 0.0
C1207 C 0.40943 0.32353 0.01053 0.0
C1208 C 0.4062 0.28428 0.0352 0.0
C1209 C 0.44517 0.34627 0.02672 0.0
C1210 C 0.37286 0.34705 0.01618 0.0
C1211 C 0.35452 0.35241 0.97455 0.0
C1212 C 0.3211 0.37453 0.97067 0.0
C1213 C 0.30605 0.39174 0.01038 0.0
C1214 C 0.32463 0.38712 0.05337 0.0
C1215 C 0.35833 0.36418 0.05617 0.0
H1216 H 0.80891 0.4783 0.72734 0.0
H1217 H 0.84319 0.42187 0.60053 0.0
H1218 H 0.88469 0.37696 0.64462 0.0
H1219 H 0.89935 0.4751 0.7818 0.0
H1220 H 0.8802 0.46556 0.83823 0.0
H1221 H 0.85169 0.49173 0.79696 0.0
H1222 H 0.79611 0.44171 0.80556 0.0
H1223 H 0.8242 0.41584 0.84752 0.0
H1224 H 0.80616 0.39089 0.7976 0.0
H1225 H 0.92583 0.34041 0.70378 0.0
H1226 H 0.95679 0.31179 0.77278 0.0
H1227 H 0.89423 0.39313 0.85875 0.0
C1228 C 0.82465 0.45614 0.70881 0.0
C1229 C 0.82264 0.45348 0.66052 0.0
C1230 C 0.84389 0.42414 0.63761 0.0
C1231 C 0.86779 0.39871 0.66232 0.0
C1232 C 0.86984 0.40282 0.7099 0.0
C1233 C 0.8483 0.43047 0.73286 0.0
C1234 C 0.85547 0.42923 0.78398 0.0
C1235 C 0.8727 0.46769 0.80123 0.0
C1236 C 0.81828 0.41879 0.81019 0.0
C1237 C 0.88467 0.39683 0.78628 0.0
C1238 C 0.89289 0.38191 0.74338 0.0
C1239 C 0.91938 0.35176 0.73756 0.0
C1240 C 0.93703 0.33586 0.77683 0.0
C1241 C 0.92779 0.35009 0.82112 0.0
C1242 C 0.90179 0.3814 0.82543 0.0
H1243 H 0.37449 0.16739 0.16286 0.0
H1244 H 0.28973 0.10432 0.24334 0.0
H1245 H 0.32198 0.1257 0.31465 0.0
H1246 H 0.45492 0.14611 0.22935 0.0
H1247 H 0.47731 0.19306 0.22422 0.0
H1248 H 0.44564 0.17588 0.17972 0.0
H1249 H 0.40335 0.23743 0.18842 0.0
H1250 H 0.43507 0.25495 0.23285 0.0
H1251 H 0.38415 0.24998 0.24403 0.0
H1252 H 0.36806 0.14734 0.37645 0.0
H1253 H 0.42146 0.17205 0.42449 0.0
H1254 H 0.47402 0.22413 0.30407 0.0
C1255 C 0.36232 0.1586 0.19551 0.0
C1256 C 0.32957 0.13417 0.19756 0.0
C1257 C 0.31458 0.12327 0.24095 0.0
C1258 C 0.33277 0.13519 0.28163 0.0
C1259 C 0.36547 0.15861 0.27837 0.0
C1260 C 0.37971 0.17079 0.23643 0.0
C1261 C 0.4159 0.19499 0.24229 0.0
C1262 C 0.45047 0.17639 0.21743 0.0
C1263 C 0.4092 0.23681 0.22593 0.0
C1264 C 0.42063 0.1933 0.29394 0.0
C1265 C 0.3912 0.17226 0.31415 0.0
C1266 C 0.39086 0.16445 0.36111 0.0
C1267 C 0.4214 0.17845 0.38808 0.0
C1268 C 0.45171 0.20027 0.36809 0.0
C1269 C 0.45092 0.20809 0.32046 0.0
H1270 H 0.15222 0.70528 0.80202 0.0
H1271 H 0.08946 0.62039 0.88289 0.0
H1272 H 0.10543 0.56989 0.82656 0.0
H1273 H 0.12915 0.66258 0.68671 0.0
H1274 H 0.17665 0.67234 0.66416 0.0
H1275 H 0.15609 0.70384 0.70712 0.0
H1276 H 0.21574 0.69288 0.75966 0.0
H1277 H 0.23617 0.66251 0.7158 0.0
H1278 H 0.23015 0.644 0.77324 0.0
H1279 H 0.13242 0.5277 0.76864 0.0
H1280 H 0.17116 0.49385 0.71062 0.0
H1281 H 0.21857 0.60358 0.66424 0.0
C1282 C 0.14135 0.67617 0.80709 0.0
C1283 C 0.11964 0.66654 0.84665 0.0
C1284 C 0.10635 0.62816 0.85291 0.0
C1285 C 0.11501 0.59936 0.82096 0.0
C1286 C 0.13715 0.60933 0.78292 0.0
C1287 C 0.1503 0.64663 0.77557 0.0
C1288 C 0.17648 0.64815 0.7336 0.0
C1289 C 0.1585 0.67322 0.69564 0.0
C1290 C 0.21704 0.66272 0.7464 0.0
C1291 C 0.17703 0.60562 0.71991 0.0
C1292 C 0.15347 0.58417 0.74864 0.0
C1293 C 0.1506 0.54412 0.74551 0.0
C1294 C 0.17291 0.52517 0.71265 0.0
C1295 C 0.19781 0.54615 0.68319 0.0
C1296 C 0.19937 0.58703 0.68608 0.0
H1297 H 0.68107 0.92299 0.24623 0.0
H1298 H 0.65173 0.85599 0.12504 0.0
H1299 H 0.61286 0.81172 0.1721 0.0
H1300 H 0.68302 0.83897 0.32813 0.0
H1301 H 0.66099 0.86634 0.3739 0.0
H1302 H 0.69117 0.89045 0.33227 0.0
H1303 H 0.63544 0.93795 0.31332 0.0
H1304 H 0.60548 0.91409 0.35515 0.0
H1305 H 0.58908 0.91877 0.29671 0.0
H1306 H 0.57136 0.7798 0.22793 0.0
H1307 H 0.52856 0.76099 0.29173 0.0
H1308 H 0.58352 0.84617 0.37961 0.0
C1309 C 0.66708 0.89846 0.23009 0.0
C1310 C 0.66925 0.89289 0.18207 0.0
C1311 C 0.65008 0.86095 0.16174 0.0
C1312 C 0.62815 0.83545 0.1882 0.0
C1313 C 0.62563 0.84209 0.23514 0.0
C1314 C 0.6445 0.87264 0.25621 0.0
C1315 C 0.63386 0.87464 0.30682 0.0
C1316 C 0.66938 0.86714 0.33707 0.0
C1317 C 0.61483 0.91368 0.31865 0.0
C1318 C 0.60512 0.84143 0.31012 0.0
C1319 C 0.60137 0.82288 0.26831 0.0
C1320 C 0.57448 0.79352 0.26114 0.0
C1321 C 0.55021 0.78315 0.29745 0.0
C1322 C 0.55312 0.80187 0.34048 0.0
C1323 C 0.58145 0.83085 0.34724 0.0
H1324 H 0.86588 0.15529 0.41646 0.0
H1325 H 0.96145 0.20535 0.49269 0.0
H1326 H 0.94045 0.16962 0.56194 0.0
H1327 H 0.79564 0.15584 0.50833 0.0
H1328 H 0.77502 0.10995 0.4918 0.0
H1329 H 0.79642 0.14095 0.449 0.0
H1330 H 0.84181 0.08512 0.42373 0.0
H1331 H 0.82048 0.05391 0.46627 0.0
H1332 H 0.87191 0.06175 0.46589 0.0
H1333 H 0.91013 0.12738 0.62155 0.0
H1334 H 0.87495 0.07905 0.66719 0.0
H1335 H 0.79952 0.05589 0.55116 0.0
C1336 C 0.88225 0.15914 0.4478 0.0
C1337 C 0.91509 0.18341 0.44938 0.0
C1338 C 0.93605 0.1871 0.49084 0.0
C1339 C 0.92429 0.16703 0.5303 0.0
C1340 C 0.89167 0.14346 0.52746 0.0
C1341 C 0.87108 0.13927 0.48723 0.0
C1342 C 0.83822 0.11072 0.49255 0.0
C1343 C 0.79901 0.13057 0.48498 0.0
C1344 C 0.84344 0.07581 0.4602 0.0
C1345 C 0.84361 0.09925 0.54217 0.0
C1346 C 0.87443 0.11869 0.5617 0.0
C1347 C 0.88583 0.11215 0.60674 0.0
C1348 C 0.86556 0.08458 0.63234 0.0
C1349 C 0.83431 0.06368 0.61276 0.0
C1350 C 0.82298 0.07159 0.56723 0.0
H1351 H 0.04688 0.22156 0.45101 0.0
H1352 H 0.09984 0.17481 0.32778 0.0
H1353 H 0.14897 0.14189 0.37529 0.0
H1354 H 0.13523 0.23574 0.51749 0.0
H1355 H 0.11286 0.22073 0.57049 0.0
H1356 H 0.08431 0.24342 0.52638 0.0
H1357 H 0.03783 0.18447 0.52656 0.0
H1358 H 0.06641 0.16146 0.57033 0.0
H1359 H 0.05698 0.13658 0.51708 0.0
H1360 H 0.19157 0.11303 0.43656 0.0
H1361 H 0.2225 0.08791 0.50706 0.0
H1362 H 0.13889 0.15017 0.59 0.0
C1363 C 0.06931 0.20507 0.43395 0.0
C1364 C 0.06992 0.20119 0.38567 0.0
C1365 C 0.09905 0.17843 0.36471 0.0
C1366 C 0.12707 0.15966 0.3914 0.0
C1367 C 0.1253 0.16362 0.43898 0.0
C1368 C 0.09706 0.18563 0.46008 0.0
C1369 C 0.09994 0.18313 0.51187 0.0
C1370 C 0.10861 0.22313 0.53278 0.0
C1371 C 0.06311 0.16535 0.53267 0.0
C1372 C 0.1341 0.15608 0.51665 0.0
C1373 C 0.14864 0.14556 0.47423 0.0
C1374 C 0.18043 0.12107 0.46996 0.0
C1375 C 0.19782 0.10699 0.51013 0.0
C1376 C 0.18298 0.11695 0.55389 0.0
C1377 C 0.15066 0.14177 0.557 0.0
H1378 H 0.12168 0.89704 0.40967 0.0
H1379 H 0.08396 0.80257 0.49683 0.0
H1380 H 0.11674 0.83348 0.56333 0.0
H1381 H 0.21361 0.90797 0.45512 0.0
H1382 H 0.21473 0.96008 0.45125 0.0
H1383 H 0.18549 0.93254 0.41199 0.0
H1384 H 0.12458 0.97111 0.43635 0.0
H1385 H 0.15381 0.99953 0.47485 0.0
H1386 H 0.11199 0.97423 0.49632 0.0
H1387 H 0.1595 0.87229 0.61791 0.0
H1388 H 0.20097 0.91936 0.65853 0.0
H1389 H 0.20884 0.98852 0.53435 0.0
C1390 C 0.11964 0.88329 0.44303 0.0
C1391 C 0.10031 0.8476 0.44847 0.0
C1392 C 0.09825 0.83023 0.49236 0.0
C1393 C 0.11705 0.84741 0.53005 0.0
C1394 C 0.13711 0.88206 0.52307 0.0
C1395 C 0.13775 0.90016 0.48077 0.0
C1396 C 0.1617 0.93678 0.48165 0.0
C1397 C 0.1959 0.93415 0.44801 0.0
C1398 C 0.13652 0.97252 0.47172 0.0
C1399 C 0.17526 0.93623 0.5309 0.0
C1400 C 0.16096 0.90444 0.55429 0.0
C1401 C 0.17049 0.89746 0.60001 0.0
C1402 C 0.19435 0.92422 0.62267 0.0
C1403 C 0.20822 0.95769 0.59965 0.0
C1404 C 0.19884 0.96327 0.55297 0.0
H1405 H 0.95441 0.88018 0.37721 0.0
H1406 H 0.92397 0.75885 0.39091 0.0
H1407 H 0.87339 0.77591 0.44681 0.0
H1408 H 0.9484 0.90214 0.49159 0.0
H1409 H 0.92784 0.9499 0.48629 0.0
H1410 H 0.95635 0.93021 0.44021 0.0
H1411 H 0.90003 0.9407 0.3835 0.0
H1412 H 0.87131 0.96094 0.42928 0.0
H1413 H 0.85315 0.92067 0.39629 0.0
H1414 H 0.83759 0.80252 0.5108 0.0
H1415 H 0.81136 0.83889 0.5762 0.0
H1416 H 0.85988 0.94518 0.52206 0.0
C1417 C 0.93581 0.85761 0.39061 0.0
C1418 C 0.94245 0.81825 0.37939 0.0
C1419 C 0.9189 0.78912 0.39883 0.0
C1420 C 0.89013 0.79857 0.43054 0.0
C1421 C 0.88524 0.83733 0.4425 0.0
C1422 C 0.9069 0.86663 0.42285 0.0
C1423 C 0.89822 0.90534 0.44584 0.0
C1424 C 0.93488 0.9229 0.46725 0.0
C1425 C 0.87955 0.93358 0.41168 0.0
C1426 C 0.86956 0.89276 0.48258 0.0
C1427 C 0.86261 0.85336 0.47953 0.0
C1428 C 0.84139 0.8336 0.51253 0.0
C1429 C 0.82659 0.85449 0.54957 0.0
C1430 C 0.83221 0.89493 0.55327 0.0
C1431 C 0.85378 0.91451 0.51905 0.0
H1432 H 0.5829 0.94845 0.05137 0.0
H1433 H 0.63062 0.06277 0.02444 0.0
H1434 H 0.56601 0.09108 0.02974 0.0
H1435 H 0.49425 0.96344 0.98519 0.0
H1436 H 0.46372 0.93734 0.02471 0.0
H1437 H 0.5137 0.92407 0.0187 0.0
H1438 H 0.52485 0.93293 0.10542 0.0
H1439 H 0.47481 0.9457 0.11279 0.0
H1440 H 0.51208 0.97815 0.13244 0.0
H1441 H 0.4992 0.10858 0.04522 0.0
H1442 H 0.42923 0.1135 0.05725 0.0
H1443 H 0.42152 0.98816 0.0682 0.0
C1444 C 0.57952 0.97927 0.04569 0.0
C1445 C 0.61183 1.00336 0.03765 0.0
C1446 C 0.60638 0.04369 0.03092 0.0
C1447 C 0.5698 0.06016 0.03393 0.0
C1448 C 0.5388 0.03596 0.04324 0.0
C1449 C 0.54286 0.99634 0.04812 0.0
C1450 C 0.50414 0.97739 0.05772 0.0
C1451 C 0.49331 0.9489 0.01925 0.0
C1452 C 0.50398 0.95736 0.1049 0.0
C1453 C 0.47807 0.0127 0.0576 0.0
C1454 C 0.49901 0.0461 0.04988 0.0
C1455 C 0.4822 0.08262 0.05028 0.0
C1456 C 0.44244 0.08507 0.05706 0.0
C1457 C 0.4198 0.0512 0.0622 0.0
C1458 C 0.43802 0.01454 0.06364 0.0
H1459 H 0.99409 0.60968 0.96012 0.0
H1460 H 0.0971 0.60856 0.04502 0.0
H1461 H 0.09166 0.53767 0.05294 0.0
H1462 H 0.94275 0.53121 0.021 0.0
H1463 H 0.92281 0.51181 0.9687 0.0
H1464 H 0.93272 0.56293 0.9733 0.0
H1465 H 0.9753 0.55906 0.90011 0.0
H1466 H 0.96592 0.5079 0.89564 0.0
H1467 H 0.01495 0.52528 0.89827 0.0
H1468 H 0.07775 0.4675 0.04784 0.0
H1469 H 0.05553 0.40129 0.03149 0.0
H1470 H 0.96179 0.44737 0.94883 0.0
C1471 C 0.01502 0.59455 0.98109 0.0
C1472 C 0.04596 0.61444 1.00201 0.0
C1473 C 0.07327 0.59373 0.02854 0.0
C1474 C 0.07035 0.55355 0.03338 0.0
C1475 C 0.04001 0.53468 0.01146 0.0
C1476 C 0.01269 0.55439 0.98605 0.0
C1477 C 0.98412 0.52681 0.96413 0.0
C1478 C 0.94318 0.53361 0.98292 0.0
C1479 C 0.98516 0.52996 0.91142 0.0
C1480 C 1.00023 0.48849 0.98041 0.0
C1481 C 0.03221 0.49381 0.00802 0.0
C1482 C 0.05257 0.46289 0.02658 0.0
C1483 C 0.03973 0.4254 0.01695 0.0
C1484 C 1.0069 0.41915 0.98885 0.0
C1485 C 0.987 0.4512 0.97031 0.0
H1486 H 0.4108 0.52536 0.19811 0.0
H1487 H 0.41548 0.40131 0.22334 0.0
H1488 H 0.48572 0.40553 0.23358 0.0
H1489 H 0.49783 0.53034 0.13266 0.0
H1490 H 0.51272 0.57661 0.15523 0.0
H1491 H 0.46218 0.56465 0.15217 0.0
H1492 H 0.4548 0.5776 0.23984 0.0
H1493 H 0.50515 0.59041 0.24205 0.0
H1494 H 0.48654 0.55322 0.27946 0.0
H1495 H 0.55457 0.42182 0.2384 0.0
H1496 H 0.61992 0.44903 0.23599 0.0
H1497 H 0.57252 0.56312 0.20761 0.0
C1498 C 0.42658 0.49914 0.20611 0.0
C1499 C 0.4075 0.46303 0.21037 0.0
C1500 C 0.42928 0.42933 0.22027 0.0
C1501 C 0.46924 0.43141 0.2262 0.0
C1502 C 0.48706 0.46737 0.22195 0.0
C1503 C 0.46664 0.50065 0.212 0.0
C1504 C 0.4934 0.5353 0.20761 0.0
C1505 C 0.49141 0.55274 0.15904 0.0
C1506 C 0.48443 0.56592 0.24446 0.0
C1507 C 0.53205 0.51607 0.2163 0.0
C1508 C 0.52746 0.47691 0.22466 0.0
C1509 C 0.55862 0.45246 0.23216 0.0
C1510 C 0.59566 0.46828 0.2306 0.0
C1511 C 0.60136 0.50827 0.22164 0.0
C1512 C 0.56903 0.53257 0.21496 0.0
H1513 H 0.5611 0.44981 0.82048 0.0
H1514 H 0.45913 0.40465 0.75185 0.0
H1515 H 0.43536 0.4708 0.74031 0.0
H1516 H 0.51299 0.52738 0.87992 0.0
H1517 H 0.55213 0.5613 0.87291 0.0
H1518 H 0.56196 0.51012 0.87528 0.0
H1519 H 0.5724 0.53414 0.74793 0.0
H1520 H 0.59733 0.51444 0.79692 0.0
H1521 H 0.58728 0.56561 0.79407 0.0
H1522 H 0.4218 0.54023 0.73621 0.0
H1523 H 0.41724 0.611 0.74388 0.0
H1524 H 0.52732 0.61278 0.81542 0.0
C1525 C 0.5337 0.45391 0.8033 0.0
C1526 C 0.51208 0.4221 0.78691 0.0
C1527 C 0.47638 0.42859 0.76442 0.0
C1528 C 0.46259 0.46605 0.75758 0.0
C1529 C 0.48477 0.49674 0.77343 0.0
C1530 C 0.51938 0.49131 0.79606 0.0
C1531 C 0.53695 0.52969 0.8102 0.0
C1532 C 0.54124 0.53226 0.86269 0.0
C1533 C 0.57579 0.53636 0.78582 0.0
C1534 C 0.50631 0.55727 0.79266 0.0
C1535 C 0.47674 0.53749 0.77118 0.0
C1536 C 0.44471 0.55619 0.75294 0.0
C1537 C 0.44237 0.59635 0.7576 0.0
C1538 C 0.47186 0.61723 0.78042 0.0
C1539 C 0.50453 0.5975 0.79751 0.0
H1540 H 0.10802 0.53268 0.57781 0.0
H1541 H 0.10164 0.40981 0.5456 0.0
H1542 H 0.03194 0.41587 0.53259 0.0
H1543 H 0.01898 0.53715 0.6398 0.0
H1544 H 1.00566 0.58444 0.61896 0.0
H1545 H 0.05584 0.57141 0.62353 0.0
H1546 H 0.06578 0.58768 0.53723 0.0
H1547 H 0.01559 0.60082 0.5328 0.0
H1548 H 0.0355 0.56472 0.49487 0.0
H1549 H 0.96419 0.43363 0.52464 0.0
H1550 H 0.89923 0.46129 0.52668 0.0
H1551 H 0.94677 0.57333 0.56506 0.0
C1552 C 0.09195 0.5071 0.56789 0.0
C1553 C 0.11045 0.4708 0.5623 0.0
C1554 C 0.08832 0.43795 0.54974 0.0
C1555 C 0.04867 0.4411 0.54214 0.0
C1556 C 0.03148 0.47723 0.54745 0.0
C1557 C 0.05212 0.50966 0.56033 0.0
C1558 C 0.02579 0.54461 0.56541 0.0
C1559 C 0.02662 0.56031 0.61486 0.0
C1560 C 0.03631 0.57632 0.53049 0.0
C1561 C 0.98709 0.52639 0.55411 0.0
C1562 C 0.99144 0.48761 0.54338 0.0
C1563 C 0.96031 0.46396 0.53288 0.0
C1564 C 0.92347 0.48005 0.53428 0.0
C1565 C 0.91786 0.5195 0.54631 0.0
C1566 C 0.95022 0.54321 0.55549 0.0
H1567 H 0.51158 0.09691 0.51118 0.0
H1568 H 0.58784 0.09562 0.39242 0.0
H1569 H 0.57237 0.02708 0.37942 0.0
H1570 H 0.53617 1.00244 0.55137 0.0
H1571 H 0.48807 0.98975 0.56973 0.0
H1572 H 0.50307 0.03968 0.56964 0.0
H1573 H 0.44561 0.05825 0.51793 0.0
H1574 H 0.42964 1.00855 0.51797 0.0
H1575 H 0.43839 0.03313 0.46434 0.0
H1576 H 0.54986 0.96044 0.37854 0.0
H1577 H 0.52527 0.89496 0.39363 0.0
H1578 H 0.46317 0.93718 0.51324 0.0
C1579 C 0.52494 0.08217 0.48244 0.0
C1580 C 0.55084 0.10154 0.45276 0.0
C1581 C 0.56806 0.08129 0.41574 0.0
C1582 C 0.55926 0.04245 0.40783 0.0
C1583 C 0.53332 0.02437 0.4373 0.0
C1584 C 0.51663 0.04321 0.47411 0.0
C1585 C 0.49082 0.01614 0.50137 0.0
C1586 C 0.50544 1.01172 0.55095 0.0
C1587 C 0.44861 0.02984 0.50032 0.0
C1588 C 0.49604 0.9791 0.47418 0.0
C1589 C 0.52042 0.98492 0.43715 0.0
C1590 C 0.53081 0.95534 0.40738 0.0
C1591 C 0.51675 0.91835 0.41632 0.0
C1592 C 0.49259 0.91133 0.45468 0.0
C1593 C 0.48131 0.94213 0.48349 0.0
H1594 H 0.08385 0.06132 0.74345 0.0
H1595 H 0.13171 0.98189 0.64288 0.0
H1596 H 0.06797 0.95203 0.63222 0.0
H1597 H 0.01959 0.99244 0.79593 0.0
H1598 H 0.98153 0.02719 0.80511 0.0
H1599 H 0.03104 0.04297 0.80331 0.0
H1600 H 0.01258 0.09183 0.73826 0.0
H1601 H 0.96342 0.07495 0.74041 0.0
H1602 H 0.9897 0.07383 0.68699 0.0
H1603 H 1.00096 0.92865 0.63441 0.0
H1604 H 0.93191 0.91507 0.64638 0.0
H1605 H 0.92612 1.00871 0.74607 0.0
C1606 C 0.08051 0.03815 0.7187 0.0
C1607 C 0.11249 0.02375 0.69404 0.0
C1608 C 0.10748 0.99299 0.66238 0.0
C1609 C 0.07144 0.97588 0.65599 0.0
C1610 C 0.04063 0.98983 0.68162 0.0
C1611 C 0.04451 0.02035 0.71213 0.0
C1612 C 1.00653 0.02869 0.73605 0.0
C1613 C 0.0099 0.02245 0.78818 0.0
C1614 C 0.99222 0.06976 0.72474 0.0
C1615 C 0.98108 0.99808 0.7142 0.0
C1616 C 1.00145 0.97602 0.68299 0.0
C1617 C 0.98451 0.94577 0.65864 0.0
C1618 C 0.94533 0.93818 0.66585 0.0
C1619 C 0.9236 0.96078 0.69716 0.0
C1620 C 0.94193 0.9909 0.72189 0.0
H1621 H 0.99962 0.0995 0.35172 0.0
H1622 H 0.95141 0.10863 0.21486 0.0
H1623 H 0.96886 0.04049 0.1994 0.0
H1624 H 0.08093 0.04168 0.3204 0.0
H1625 H 0.08037 1.0121 0.3714 0.0
H1626 H 0.06209 0.06093 0.37343 0.0
H1627 H 0.99645 0.03576 0.40437 0.0
H1628 H 0.01483 0.98695 0.403 0.0
H1629 H 0.97092 0.99873 0.37298 0.0
H1630 H 0.98979 0.97346 0.19889 0.0
H1631 H 0.01373 0.90806 0.21188 0.0
H1632 H 0.05454 0.94135 0.34747 0.0
C1633 C 0.99229 0.08662 0.31893 0.0
C1634 C 0.97395 0.10845 0.28438 0.0
C1635 C 0.96532 0.09173 0.24144 0.0
C1636 C 0.97514 0.0533 0.23248 0.0
C1637 C 0.99389 0.03253 0.2668 0.0
C1638 C 1.0024 0.04829 0.3092 0.0
C1639 C 0.02374 0.01947 0.33925 0.0
C1640 C 0.06418 0.03445 0.35184 0.0
C1641 C 1.00006 1.00965 0.38245 0.0
C1642 C 0.02594 0.98518 0.30683 0.0
C1643 C 1.00818 0.99361 0.26552 0.0
C1644 C 1.0043 0.96654 0.23074 0.0
C1645 C 0.01839 0.92944 0.23847 0.0
C1646 C 0.03718 0.91984 0.28023 0.0
C1647 C 0.04132 0.94822 0.31478 0.0
loop_
_geom_bond_atom_site_label_1
_geom_bond_atom_site_label_2
_geom_bond_distance
_geom_bond_site_symmetry_2
_ccdc_geom_bond_type
Fe0 O2 1.918 . S
Fe0 O5 1.997 . S
Fe0 O6 2.020 . S
Fe0 O11 1.976 . S
Fe0 O14 1.996 . S
Fe1 O2 1.918 . S
Fe1 O9 1.997 1_545 S
Fe1 O12 1.993 1_545 S
Fe1 O16 1.976 1_554 S
Fe1 O19 2.002 1_545 S
O2 Fe0 1.918 . S
O2 Fe1 1.918 . S
O2 Fe3 1.918 . S
Fe3 O2 1.918 . S
Fe3 O4 2.002 . S
Fe3 O13 1.976 . S
Fe3 O17 1.996 1_554 S
Fe3 O20 1.997 . S
O4 Fe3 2.002 . S
O4 C21 1.295 . S
O5 Fe0 1.997 . S
O5 C21 1.235 . S
O6 Fe0 2.020 . S
O6 C7 1.279 1_545 S
C7 O6 1.279 1_565 S
C7 O9 1.235 . S
C8 O13 1.287 . S
C8 O14 1.255 . S
O9 Fe1 1.997 1_565 S
O9 C7 1.235 . S
C10 O16 1.287 . S
C10 O17 1.255 . S
O11 Fe0 1.976 . S
O11 C18 1.287 . S
O12 Fe1 1.993 1_565 S
O12 C18 1.243 1_565 S
O13 Fe3 1.976 . S
O13 C8 1.287 . S
O14 Fe0 1.996 . S
O14 C8 1.255 . S
C15 O19 1.295 1_545 S
C15 O20 1.235 . S
O16 Fe1 1.976 1_556 S
O16 C10 1.287 . S
O17 Fe3 1.996 1_556 S
O17 C10 1.255 . S
C18 O11 1.287 . S
C18 O12 1.243 1_545 S
O19 Fe1 2.002 1_565 S
O19 C15 1.295 1_565 S
O20 Fe3 1.997 . S
O20 C15 1.235 . S
C21 O4 1.295 . S
C21 O5 1.235 . S
Fe22 O24 1.918 . S
Fe22 O27 1.999 . S
Fe22 O28 2.002 1_455 S
Fe22 O33 1.976 . S
Fe22 O36 1.996 1_556 S
Fe23 O24 1.918 . S
Fe23 O31 1.997 1_455 S
Fe23 O34 1.996 . S
Fe23 O38 1.976 . S
Fe23 O41 2.002 . S
O24 Fe22 1.918 . S
O24 Fe23 1.918 . S
O24 Fe25 1.918 . S
Fe25 O24 1.918 . S
Fe25 O26 2.002 . S
Fe25 O35 1.976 1_556 S
Fe25 O39 1.996 . S
Fe25 O42 1.997 . S
O26 Fe25 2.002 . S
O26 C43 1.295 . S
O27 Fe22 1.999 . S
O27 C43 1.255 . S
O28 Fe22 2.002 1_655 S
O28 C29 1.295 . S
C29 O28 1.295 . S
C29 O31 1.235 . S
C30 O35 1.287 . S
C30 O36 1.255 . S
O31 Fe23 1.997 1_655 S
O31 C29 1.235 . S
C32 O38 1.287 . S
C32 O39 1.255 . S
O33 Fe22 1.976 . S
O33 C40 1.287 . S
O34 Fe23 1.996 . S
O34 C40 1.255 . S
O35 Fe25 1.976 1_554 S
O35 C30 1.287 . S
O36 Fe22 1.996 1_554 S
O36 C30 1.255 . S
C37 O41 1.295 . S
C37 O42 1.235 . S
O38 Fe23 1.976 . S
O38 C32 1.287 . S
O39 Fe25 1.996 . S
O39 C32 1.255 . S
C40 O33 1.287 . S
C40 O34 1.255 . S
O41 Fe23 2.002 . S
O41 C37 1.295 . S
O42 Fe25 1.997 . S
O42 C37 1.235 . S
C43 O26 1.295 . S
C43 O27 1.255 . S
Fe44 O46 1.918 . S
Fe44 O49 1.997 . S
Fe44 O50 2.020 . S
Fe44 O55 1.976 . S
Fe44 O58 1.996 . S
Fe45 O46 1.918 . S
Fe45 O53 1.997 1_565 S
Fe45 O56 1.993 1_565 S
Fe45 O60 1.976 1_554 S
Fe45 O63 2.002 1_565 S
O46 Fe44 1.918 . S
O46 Fe45 1.918 . S
O46 Fe47 1.918 . S
Fe47 O46 1.918 . S
Fe47 O48 2.002 . S
Fe47 O57 1.976 . S
Fe47 O61 1.996 1_554 S
Fe47 O64 1.997 . S
O48 Fe47 2.002 . S
O48 C65 1.295 . S
O49 Fe44 1.997 . S
O49 C65 1.235 . S
O50 Fe44 2.020 . S
O50 C51 1.279 1_565 S
C51 O50 1.279 1_545 S
C51 O53 1.235 . S
C52 O57 1.287 . S
C52 O58 1.255 . S
O53 Fe45 1.997 1_545 S
O53 C51 1.235 . S
C54 O60 1.287 . S
C54 O61 1.255 . S
O55 Fe44 1.976 . S
O55 C62 1.287 . S
O56 Fe45 1.993 1_545 S
O56 C62 1.243 1_545 S
O57 Fe47 1.976 . S
O57 C52 1.287 . S
O58 Fe44 1.996 . S
O58 C52 1.255 . S
C59 O63 1.295 1_565 S
C59 O64 1.235 . S
O60 Fe45 1.976 1_556 S
O60 C54 1.287 . S
O61 Fe47 1.996 1_556 S
O61 C54 1.255 . S
C62 O55 1.287 . S
C62 O56 1.243 1_565 S
O63 Fe45 2.002 1_545 S
O63 C59 1.295 1_545 S
O64 Fe47 1.997 . S
O64 C59 1.235 . S
C65 O48 1.295 . S
C65 O49 1.235 . S
Fe66 O68 1.918 . S
Fe66 O71 1.999 . S
Fe66 O72 2.002 1_655 S
Fe66 O77 1.976 . S
Fe66 O80 1.996 1_556 S
Fe67 O68 1.918 . S
Fe67 O75 1.997 1_655 S
Fe67 O78 1.996 . S
Fe67 O82 1.976 . S
Fe67 O85 2.002 . S
O68 Fe66 1.918 . S
O68 Fe67 1.918 . S
O68 Fe69 1.918 . S
Fe69 O68 1.918 . S
Fe69 O70 2.002 . S
Fe69 O79 1.976 1_556 S
Fe69 O83 1.996 . S
Fe69 O86 1.997 . S
O70 Fe69 2.002 . S
O70 C87 1.295 . S
O71 Fe66 1.999 . S
O71 C87 1.255 . S
O72 Fe66 2.002 1_455 S
O72 C73 1.295 . S
C73 O72 1.295 . S
C73 O75 1.235 . S
C74 O79 1.287 . S
C74 O80 1.255 . S
O75 Fe67 1.997 1_455 S
O75 C73 1.235 . S
C76 O82 1.287 . S
C76 O83 1.255 . S
O77 Fe66 1.976 . S
O77 C84 1.287 . S
O78 Fe67 1.996 . S
O78 C84 1.255 . S
O79 Fe69 1.976 1_554 S
O79 C74 1.287 . S
O80 Fe66 1.996 1_554 S
O80 C74 1.255 . S
C81 O85 1.295 . S
C81 O86 1.235 . S
O82 Fe67 1.976 . S
O82 C76 1.287 . S
O83 Fe69 1.996 . S
O83 C76 1.255 . S
C84 O77 1.287 . S
C84 O78 1.255 . S
O85 Fe67 2.002 . S
O85 C81 1.295 . S
O86 Fe69 1.997 . S
O86 C81 1.235 . S
C87 O70 1.295 . S
C87 O71 1.255 . S
Fe88 O90 1.918 . S
Fe88 O93 1.997 . S
Fe88 O94 2.002 . S
Fe88 O99 1.976 . S
Fe88 O102 1.996 . S
Fe89 O90 1.918 . S
Fe89 O97 1.997 . S
Fe89 O100 1.996 . S
Fe89 O104 1.976 . S
Fe89 O107 2.002 . S
O90 Fe88 1.918 . S
O90 Fe89 1.918 . S
O90 Fe91 1.918 . S
Fe91 O90 1.918 . S
Fe91 O92 2.002 . S
Fe91 O101 1.976 . S
Fe91 O105 1.996 . S
Fe91 O108 1.997 . S
O92 Fe91 2.002 . S
O92 C109 1.295 . S
O93 Fe88 1.997 . S
O93 C109 1.235 . S
O94 Fe88 2.002 . S
O94 C95 1.295 . S
C95 O94 1.295 . S
C95 O97 1.235 . S
C96 O101 1.287 . S
C96 O102 1.255 . S
O97 Fe89 1.997 . S
O97 C95 1.235 . S
C98 O104 1.287 . S
C98 O105 1.255 . S
O99 Fe88 1.976 . S
O99 C106 1.287 . S
O100 Fe89 1.996 . S
O100 C106 1.255 . S
O101 Fe91 1.976 . S
O101 C96 1.287 . S
O102 Fe88 1.996 . S
O102 C96 1.255 . S
C103 O107 1.295 . S
C103 O108 1.235 . S
O104 Fe89 1.976 . S
O104 C98 1.287 . S
O105 Fe91 1.996 . S
O105 C98 1.255 . S
C106 O99 1.287 . S
C106 O100 1.255 . S
O107 Fe89 2.002 . S
O107 C103 1.295 . S
O108 Fe91 1.997 . S
O108 C103 1.235 . S
C109 O92 1.295 . S
C109 O93 1.235 . S
Fe110 O112 1.918 . S
Fe110 O115 1.997 . S
Fe110 O116 2.002 . S
Fe110 O121 1.976 . S
Fe110 O124 1.996 . S
Fe111 O112 1.918 . S
Fe111 O119 1.997 . S
Fe111 O122 1.996 . S
Fe111 O126 1.976 . S
Fe111 O129 2.002 . S
O112 Fe110 1.918 . S
O112 Fe111 1.918 . S
O112 Fe113 1.918 . S
Fe113 O112 1.918 . S
Fe113 O114 2.002 . S
Fe113 O123 1.976 . S
Fe113 O127 1.996 . S
Fe113 O130 1.997 . S
O114 Fe113 2.002 . S
O114 C131 1.295 . S
O115 Fe110 1.997 . S
O115 C131 1.235 . S
O116 Fe110 2.002 . S
O116 C117 1.295 . S
C117 O116 1.295 . S
C117 O119 1.235 . S
C118 O123 1.287 . S
C118 O124 1.255 . S
O119 Fe111 1.997 . S
O119 C117 1.235 . S
C120 O126 1.287 . S
C120 O127 1.255 . S
O121 Fe110 1.976 . S
O121 C128 1.287 . S
O122 Fe111 1.996 . S
O122 C128 1.255 . S
O123 Fe113 1.976 . S
O123 C118 1.287 . S
O124 Fe110 1.996 . S
O124 C118 1.255 . S
C125 O129 1.295 . S
C125 O130 1.235 . S
O126 Fe111 1.976 . S
O126 C120 1.287 . S
O127 Fe113 1.996 . S
O127 C120 1.255 . S
C128 O121 1.287 . S
C128 O122 1.255 . S
O129 Fe111 2.002 . S
O129 C125 1.295 . S
O130 Fe113 1.997 . S
O130 C125 1.235 . S
C131 O114 1.295 . S
C131 O115 1.235 . S
Fe132 O134 1.918 . S
Fe132 O137 1.997 . S
Fe132 O138 2.002 . S
Fe132 O143 1.976 . S
Fe132 O146 1.996 . S
Fe133 O134 1.918 . S
Fe133 O141 1.997 . S
Fe133 O144 1.996 . S
Fe133 O148 1.976 . S
Fe133 O151 2.002 . S
O134 Fe132 1.918 . S
O134 Fe133 1.918 . S
O134 Fe135 1.918 . S
Fe135 O134 1.918 . S
Fe135 O136 2.002 . S
Fe135 O145 1.976 . S
Fe135 O149 1.996 . S
Fe135 O152 1.997 . S
O136 Fe135 2.002 . S
O136 C153 1.295 . S
O137 Fe132 1.997 . S
O137 C153 1.235 . S
O138 Fe132 2.002 . S
O138 C139 1.295 . S
C139 O138 1.295 . S
C139 O141 1.235 . S
C140 O145 1.287 . S
C140 O146 1.255 . S
O141 Fe133 1.997 . S
O141 C139 1.235 . S
C142 O148 1.287 . S
C142 O149 1.255 . S
O143 Fe132 1.976 . S
O143 C150 1.287 . S
O144 Fe133 1.996 . S
O144 C150 1.255 . S
O145 Fe135 1.976 . S
O145 C140 1.287 . S
O146 Fe132 1.996 . S
O146 C140 1.255 . S
C147 O151 1.295 . S
C147 O152 1.235 . S
O148 Fe133 1.976 . S
O148 C142 1.287 . S
O149 Fe135 1.996 . S
O149 C142 1.255 . S
C150 O143 1.287 . S
C150 O144 1.255 . S
O151 Fe133 2.002 . S
O151 C147 1.295 . S
O152 Fe135 1.997 . S
O152 C147 1.235 . S
C153 O136 1.295 . S
C153 O137 1.235 . S
Fe154 O156 1.918 . S
Fe154 O159 1.997 . S
Fe154 O160 2.002 . S
Fe154 O165 1.976 . S
Fe154 O168 1.996 . S
Fe155 O156 1.918 . S
Fe155 O163 1.997 . S
Fe155 O166 1.996 . S
Fe155 O170 1.976 . S
Fe155 O173 2.002 . S
O156 Fe154 1.918 . S
O156 Fe155 1.918 . S
O156 Fe157 1.918 . S
Fe157 O156 1.918 . S
Fe157 O158 2.002 . S
Fe157 O167 1.976 . S
Fe157 O171 1.996 . S
Fe157 O174 1.997 . S
O158 Fe157 2.002 . S
O158 C175 1.295 . S
O159 Fe154 1.997 . S
O159 C175 1.235 . S
O160 Fe154 2.002 . S
O160 C161 1.295 . S
C161 O160 1.295 . S
C161 O163 1.235 . S
C162 O167 1.287 . S
C162 O168 1.255 . S
O163 Fe155 1.997 . S
O163 C161 1.235 . S
C164 O170 1.287 . S
C164 O171 1.255 . S
O165 Fe154 1.976 . S
O165 C172 1.287 . S
O166 Fe155 1.996 . S
O166 C172 1.255 . S
O167 Fe157 1.976 . S
O167 C162 1.287 . S
O168 Fe154 1.996 . S
O168 C162 1.255 . S
C169 O173 1.295 . S
C169 O174 1.235 . S
O170 Fe155 1.976 . S
O170 C164 1.287 . S
O171 Fe157 1.996 . S
O171 C164 1.255 . S
C172 O165 1.287 . S
C172 O166 1.255 . S
O173 Fe155 2.002 . S
O173 C169 1.295 . S
O174 Fe157 1.997 . S
O174 C169 1.235 . S
C175 O158 1.295 . S
C175 O159 1.235 . S
Fe176 O178 1.918 . S
Fe176 O181 1.997 . S
Fe176 O182 2.002 . S
Fe176 O187 1.976 . S
Fe176 O190 1.996 . S
Fe177 O178 1.918 . S
Fe177 O185 1.997 . S
Fe177 O188 1.996 . S
Fe177 O192 1.976 . S
Fe177 O195 2.002 . S
O178 Fe176 1.918 . S
O178 Fe177 1.918 . S
O178 Fe179 1.918 . S
Fe179 O178 1.918 . S
Fe179 O180 2.002 . S
Fe179 O189 1.976 . S
Fe179 O193 1.996 . S
Fe179 O196 1.997 . S
O180 Fe179 2.002 . S
O180 C197 1.295 . S
O181 Fe176 1.997 . S
O181 C197 1.235 . S
O182 Fe176 2.002 . S
O182 C183 1.295 . S
C183 O182 1.295 . S
C183 O185 1.235 . S
C184 O189 1.287 . S
C184 O190 1.255 . S
O185 Fe177 1.997 . S
O185 C183 1.235 . S
C186 O192 1.287 . S
C186 O193 1.255 . S
O187 Fe176 1.976 . S
O187 C194 1.287 . S
O188 Fe177 1.996 . S
O188 C194 1.255 . S
O189 Fe179 1.976 . S
O189 C184 1.287 . S
O190 Fe176 1.996 . S
O190 C184 1.255 . S
C191 O195 1.295 . S
C191 O196 1.235 . S
O192 Fe177 1.976 . S
O192 C186 1.287 . S
O193 Fe179 1.996 . S
O193 C186 1.255 . S
C194 O187 1.287 . S
C194 O188 1.255 . S
O195 Fe177 2.002 . S
O195 C191 1.295 . S
O196 Fe179 1.997 . S
O196 C191 1.235 . S
C197 O180 1.295 . S
C197 O181 1.235 . S
Fe198 O200 1.918 . S
Fe198 O203 1.997 . S
Fe198 O204 2.002 . S
Fe198 O209 1.976 . S
Fe198 O212 1.996 . S
Fe199 O200 1.918 . S
Fe199 O207 1.997 . S
Fe199 O210 1.996 . S
Fe199 O214 1.976 . S
Fe199 O217 2.002 . S
O200 Fe198 1.918 . S
O200 Fe199 1.918 . S
O200 Fe201 1.918 . S
Fe201 O200 1.918 . S
Fe201 O202 2.002 . S
Fe201 O211 1.976 . S
Fe201 O215 1.996 . S
Fe201 O218 1.997 . S
O202 Fe201 2.002 . S
O202 C219 1.295 . S
O203 Fe198 1.997 . S
O203 C219 1.235 . S
O204 Fe198 2.002 . S
O204 C205 1.295 . S
C205 O204 1.295 . S
C205 O207 1.235 . S
C206 O211 1.287 . S
C206 O212 1.255 . S
O207 Fe199 1.997 . S
O207 C205 1.235 . S
C208 O214 1.287 . S
C208 O215 1.255 . S
O209 Fe198 1.976 . S
O209 C216 1.287 . S
O210 Fe199 1.996 . S
O210 C216 1.255 . S
O211 Fe201 1.976 . S
O211 C206 1.287 . S
O212 Fe198 1.996 . S
O212 C206 1.255 . S
C213 O217 1.295 . S
C213 O218 1.235 . S
O214 Fe199 1.976 . S
O214 C208 1.287 . S
O215 Fe201 1.996 . S
O215 C208 1.255 . S
C216 O209 1.287 . S
C216 O210 1.255 . S
O217 Fe199 2.002 . S
O217 C213 1.295 . S
O218 Fe201 1.997 . S
O218 C213 1.235 . S
C219 O202 1.295 . S
C219 O203 1.235 . S
Fe220 O222 1.918 . S
Fe220 O225 1.997 . S
Fe220 O226 2.002 . S
Fe220 O231 1.976 . S
Fe220 O234 1.996 . S
Fe221 O222 1.918 . S
Fe221 O229 1.997 . S
Fe221 O232 1.996 . S
Fe221 O236 1.976 . S
Fe221 O239 2.002 . S
O222 Fe220 1.918 . S
O222 Fe221 1.918 . S
O222 Fe223 1.918 . S
Fe223 O222 1.918 . S
Fe223 O224 2.002 . S
Fe223 O233 1.976 . S
Fe223 O237 1.996 . S
Fe223 O240 1.997 . S
O224 Fe223 2.002 . S
O224 C241 1.295 . S
O225 Fe220 1.997 . S
O225 C241 1.235 . S
O226 Fe220 2.002 . S
O226 C227 1.295 . S
C227 O226 1.295 . S
C227 O229 1.235 . S
C228 O233 1.287 . S
C228 O234 1.255 . S
O229 Fe221 1.997 . S
O229 C227 1.235 . S
C230 O236 1.287 . S
C230 O237 1.255 . S
O231 Fe220 1.976 . S
O231 C238 1.287 . S
O232 Fe221 1.996 . S
O232 C238 1.255 . S
O233 Fe223 1.976 . S
O233 C228 1.287 . S
O234 Fe220 1.996 . S
O234 C228 1.255 . S
C235 O239 1.295 . S
C235 O240 1.235 . S
O236 Fe221 1.976 . S
O236 C230 1.287 . S
O237 Fe223 1.996 . S
O237 C230 1.255 . S
C238 O231 1.287 . S
C238 O232 1.255 . S
O239 Fe221 2.002 . S
O239 C235 1.295 . S
O240 Fe223 1.997 . S
O240 C235 1.235 . S
C241 O224 1.295 . S
C241 O225 1.235 . S
Fe242 O244 1.918 . S
Fe242 O247 1.997 . S
Fe242 O248 2.002 . S
Fe242 O253 1.976 . S
Fe242 O256 1.996 . S
Fe243 O244 1.918 . S
Fe243 O251 1.997 . S
Fe243 O254 1.996 . S
Fe243 O258 1.976 . S
Fe243 O261 2.002 . S
O244 Fe242 1.918 . S
O244 Fe243 1.918 . S
O244 Fe245 1.918 . S
Fe245 O244 1.918 . S
Fe245 O246 2.002 . S
Fe245 O255 1.976 . S
Fe245 O259 1.996 . S
Fe245 O262 1.997 . S
O246 Fe245 2.002 . S
O246 C263 1.295 . S
O247 Fe242 1.997 . S
O247 C263 1.235 . S
O248 Fe242 2.002 . S
O248 C249 1.295 . S
C249 O248 1.295 . S
C249 O251 1.235 . S
C250 O255 1.287 . S
C250 O256 1.255 . S
O251 Fe243 1.997 . S
O251 C249 1.235 . S
C252 O258 1.287 . S
C252 O259 1.255 . S
O253 Fe242 1.976 . S
O253 C260 1.287 . S
O254 Fe243 1.996 . S
O254 C260 1.255 . S
O255 Fe245 1.976 . S
O255 C250 1.287 . S
O256 Fe242 1.996 . S
O256 C250 1.255 . S
C257 O261 1.295 . S
C257 O262 1.235 . S
O258 Fe243 1.976 . S
O258 C252 1.287 . S
O259 Fe245 1.996 . S
O259 C252 1.255 . S
C260 O253 1.287 . S
C260 O254 1.255 . S
O261 Fe243 2.002 . S
O261 C257 1.295 . S
O262 Fe245 1.997 . S
O262 C257 1.235 . S
C263 O246 1.295 . S
C263 O247 1.235 . S
Fe264 O266 1.918 . S
Fe264 O269 1.997 . S
Fe264 O270 2.020 . S
Fe264 O275 1.976 . S
Fe264 O278 1.996 . S
Fe265 O266 1.918 . S
Fe265 O273 1.997 1_565 S
Fe265 O276 1.993 1_565 S
Fe265 O280 1.976 . S
Fe265 O283 2.002 1_565 S
O266 Fe264 1.918 . S
O266 Fe265 1.918 . S
O266 Fe267 1.918 . S
Fe267 O266 1.918 . S
Fe267 O268 2.002 . S
Fe267 O277 1.976 . S
Fe267 O281 1.996 . S
Fe267 O284 1.997 . S
O268 Fe267 2.002 . S
O268 C285 1.295 . S
O269 Fe264 1.997 . S
O269 C285 1.235 . S
O270 Fe264 2.020 . S
O270 C271 1.280 1_565 S
C271 O270 1.280 1_545 S
C271 O273 1.235 . S
C272 O277 1.287 . S
C272 O278 1.255 . S
O273 Fe265 1.997 1_545 S
O273 C271 1.235 . S
C274 O280 1.287 . S
C274 O281 1.255 . S
O275 Fe264 1.976 . S
O275 C282 1.287 . S
O276 Fe265 1.993 1_545 S
O276 C282 1.243 1_545 S
O277 Fe267 1.976 . S
O277 C272 1.287 . S
O278 Fe264 1.996 . S
O278 C272 1.255 . S
C279 O283 1.295 1_565 S
C279 O284 1.235 . S
O280 Fe265 1.976 . S
O280 C274 1.287 . S
O281 Fe267 1.996 . S
O281 C274 1.255 . S
C282 O275 1.287 . S
C282 O276 1.243 1_565 S
O283 Fe265 2.002 1_545 S
O283 C279 1.295 1_545 S
O284 Fe267 1.997 . S
O284 C279 1.235 . S
C285 O268 1.295 . S
C285 O269 1.235 . S
Fe286 O288 1.918 . S
Fe286 O291 1.999 . S
Fe286 O292 2.002 1_655 S
Fe286 O297 1.976 . S
Fe286 O300 1.996 . S
Fe287 O288 1.918 . S
Fe287 O295 1.997 1_655 S
Fe287 O298 1.996 . S
Fe287 O302 1.976 . S
Fe287 O305 2.002 . S
O288 Fe286 1.918 . S
O288 Fe287 1.918 . S
O288 Fe289 1.918 . S
Fe289 O288 1.918 . S
Fe289 O290 2.002 . S
Fe289 O299 1.976 . S
Fe289 O303 1.996 . S
Fe289 O306 1.997 . S
O290 Fe289 2.002 . S
O290 C307 1.295 . S
O291 Fe286 1.999 . S
O291 C307 1.254 . S
O292 Fe286 2.002 1_455 S
O292 C293 1.295 . S
C293 O292 1.295 . S
C293 O295 1.235 . S
C294 O299 1.287 . S
C294 O300 1.255 . S
O295 Fe287 1.997 1_455 S
O295 C293 1.235 . S
C296 O302 1.287 . S
C296 O303 1.255 . S
O297 Fe286 1.976 . S
O297 C304 1.287 . S
O298 Fe287 1.996 . S
O298 C304 1.255 . S
O299 Fe289 1.976 . S
O299 C294 1.287 . S
O300 Fe286 1.996 . S
O300 C294 1.255 . S
C301 O305 1.295 . S
C301 O306 1.235 . S
O302 Fe287 1.976 . S
O302 C296 1.287 . S
O303 Fe289 1.996 . S
O303 C296 1.255 . S
C304 O297 1.287 . S
C304 O298 1.255 . S
O305 Fe287 2.002 . S
O305 C301 1.295 . S
O306 Fe289 1.997 . S
O306 C301 1.235 . S
C307 O290 1.295 . S
C307 O291 1.254 . S
Fe308 O310 1.918 . S
Fe308 O313 1.997 . S
Fe308 O314 2.020 . S
Fe308 O319 1.976 . S
Fe308 O322 1.996 . S
Fe309 O310 1.918 . S
Fe309 O317 1.997 1_545 S
Fe309 O320 1.993 1_545 S
Fe309 O324 1.976 . S
Fe309 O327 2.002 1_545 S
O310 Fe308 1.918 . S
O310 Fe309 1.918 . S
O310 Fe311 1.918 . S
Fe311 O310 1.918 . S
Fe311 O312 2.002 . S
Fe311 O321 1.976 . S
Fe311 O325 1.996 . S
Fe311 O328 1.997 . S
O312 Fe311 2.002 . S
O312 C329 1.295 . S
O313 Fe308 1.997 . S
O313 C329 1.235 . S
O314 Fe308 2.020 . S
O314 C315 1.280 1_545 S
C315 O314 1.280 1_565 S
C315 O317 1.235 . S
C316 O321 1.287 . S
C316 O322 1.255 . S
O317 Fe309 1.997 1_565 S
O317 C315 1.235 . S
C318 O324 1.287 . S
C318 O325 1.255 . S
O319 Fe308 1.976 . S
O319 C326 1.287 . S
O320 Fe309 1.993 1_565 S
O320 C326 1.243 1_565 S
O321 Fe311 1.976 . S
O321 C316 1.287 . S
O322 Fe308 1.996 . S
O322 C316 1.255 . S
C323 O327 1.295 1_545 S
C323 O328 1.235 . S
O324 Fe309 1.976 . S
O324 C318 1.287 . S
O325 Fe311 1.996 . S
O325 C318 1.255 . S
C326 O319 1.287 . S
C326 O320 1.243 1_545 S
O327 Fe309 2.002 1_565 S
O327 C323 1.295 1_565 S
O328 Fe311 1.997 . S
O328 C323 1.235 . S
C329 O312 1.295 . S
C329 O313 1.235 . S
Fe330 O332 1.918 . S
Fe330 O335 1.997 . S
Fe330 O336 2.002 . S
Fe330 O341 1.976 . S
Fe330 O344 1.996 . S
Fe331 O332 1.918 . S
Fe331 O339 1.999 . S
Fe331 O342 1.996 . S
Fe331 O346 1.976 . S
Fe331 O349 2.002 1_455 S
O332 Fe330 1.918 . S
O332 Fe331 1.918 . S
O332 Fe333 1.918 . S
Fe333 O332 1.918 . S
Fe333 O334 2.002 . S
Fe333 O343 1.976 . S
Fe333 O347 1.996 . S
Fe333 O350 1.997 1_455 S
O334 Fe333 2.002 . S
O334 C351 1.295 . S
O335 Fe330 1.997 . S
O335 C351 1.235 . S
O336 Fe330 2.002 . S
O336 C337 1.295 . S
C337 O336 1.295 . S
C337 O339 1.254 . S
C338 O343 1.287 . S
C338 O344 1.255 . S
O339 Fe331 1.999 . S
O339 C337 1.254 . S
C340 O346 1.287 . S
C340 O347 1.255 . S
O341 Fe330 1.976 . S
O341 C348 1.287 . S
O342 Fe331 1.996 . S
O342 C348 1.255 . S
O343 Fe333 1.976 . S
O343 C338 1.287 . S
O344 Fe330 1.996 . S
O344 C338 1.255 . S
C345 O349 1.295 . S
C345 O350 1.235 . S
O346 Fe331 1.976 . S
O346 C340 1.287 . S
O347 Fe333 1.996 . S
O347 C340 1.255 . S
C348 O341 1.287 . S
C348 O342 1.255 . S
O349 Fe331 2.002 1_655 S
O349 C345 1.295 . S
O350 Fe333 1.997 1_655 S
O350 C345 1.235 . S
C351 O334 1.295 . S
C351 O335 1.235 . S
H352 C364 0.930 . S
H353 C366 0.930 . S
H354 C367 0.930 . S
H355 C371 0.959 . S
H356 C371 0.959 . S
H357 C371 0.961 . S
H358 C372 0.960 . S
H359 C372 0.961 . S
H360 C372 0.959 . S
H361 C375 0.929 . S
H362 C376 0.931 . S
H363 C378 0.930 1_545 S
C364 H352 0.930 . S
C364 C365 1.399 . S
C364 C369 1.399 . S
C365 C364 1.399 . S
C365 C366 1.376 . S
C366 H353 0.930 . S
C366 C365 1.376 . S
C366 C367 1.388 . S
C367 H354 0.930 . S
C367 C366 1.388 . S
C367 C368 1.390 . S
C368 C367 1.390 . S
C368 C369 1.394 . S
C368 C374 1.465 . S
C369 C364 1.399 . S
C369 C368 1.394 . S
C369 C370 1.516 . S
C370 C369 1.516 . S
C370 C371 1.502 . S
C370 C372 1.561 . S
C370 C373 1.526 . S
C371 H355 0.959 . S
C371 H356 0.959 . S
C371 H357 0.961 . S
C371 C370 1.502 . S
C372 H358 0.960 . S
C372 H359 0.961 . S
C372 H360 0.959 . S
C372 C370 1.561 . S
C373 C370 1.526 . S
C373 C374 1.396 . S
C373 C378 1.390 . S
C374 C368 1.465 . S
C374 C373 1.396 . S
C374 C375 1.399 . S
C375 H361 0.929 . S
C375 C374 1.399 . S
C375 C376 1.385 . S
C376 H362 0.931 . S
C376 C375 1.385 . S
C376 C377 1.389 . S
C377 C376 1.389 . S
C377 C378 1.387 . S
C378 H363 0.930 1_565 S
C378 C373 1.390 . S
C378 C377 1.387 . S
H379 C391 0.930 . S
H380 C393 0.930 . S
H381 C394 0.930 . S
H382 C398 0.959 . S
H383 C398 0.959 . S
H384 C398 0.961 . S
H385 C399 0.960 . S
H386 C399 0.948 1_554 S
H387 C399 0.959 . S
H388 C402 0.929 . S
H389 C403 0.931 . S
H390 C405 0.930 . S
C391 H379 0.930 . S
C391 C392 1.399 . S
C391 C396 1.399 . S
C392 C391 1.399 . S
C392 C393 1.376 . S
C393 H380 0.930 . S
C393 C392 1.376 . S
C393 C394 1.388 . S
C394 H381 0.930 . S
C394 C393 1.388 . S
C394 C395 1.390 . S
C395 C394 1.390 . S
C395 C396 1.394 . S
C395 C401 1.465 . S
C396 C391 1.399 . S
C396 C395 1.394 . S
C396 C397 1.516 . S
C397 C396 1.516 . S
C397 C398 1.502 . S
C397 C399 1.561 . S
C397 C400 1.526 . S
C398 H382 0.959 . S
C398 H383 0.959 . S
C398 H384 0.961 . S
C398 C397 1.502 . S
C399 H385 0.960 . S
C399 H386 0.948 1_556 S
C399 H387 0.959 . S
C399 C397 1.561 . S
C400 C397 1.526 . S
C400 C401 1.396 . S
C400 C405 1.390 . S
C401 C395 1.465 . S
C401 C400 1.396 . S
C401 C402 1.399 . S
C402 H388 0.929 . S
C402 C401 1.399 . S
C402 C403 1.385 . S
C403 H389 0.931 . S
C403 C402 1.385 . S
C403 C404 1.389 . S
C404 C403 1.389 . S
C404 C405 1.387 . S
C405 H390 0.930 . S
C405 C400 1.390 . S
C405 C404 1.387 . S
H406 C418 0.930 . S
H407 C420 0.930 . S
H408 C421 0.930 . S
H409 C425 0.959 . S
H410 C425 0.959 . S
H411 C425 0.961 . S
H412 C426 0.960 . S
H413 C426 0.961 . S
H414 C426 0.959 . S
H415 C429 0.929 . S
H416 C430 0.931 . S
H417 C432 0.930 . S
C418 H406 0.930 . S
C418 C419 1.399 . S
C418 C423 1.399 . S
C419 C418 1.399 . S
C419 C420 1.376 . S
C420 H407 0.930 . S
C420 C419 1.376 . S
C420 C421 1.388 . S
C421 H408 0.930 . S
C421 C420 1.388 . S
C421 C422 1.390 . S
C422 C421 1.390 . S
C422 C423 1.394 . S
C422 C428 1.465 . S
C423 C418 1.399 . S
C423 C422 1.394 . S
C423 C424 1.516 . S
C424 C423 1.516 . S
C424 C425 1.502 . S
C424 C426 1.561 . S
C424 C427 1.526 . S
C425 H409 0.959 . S
C425 H410 0.959 . S
C425 H411 0.961 . S
C425 C424 1.502 . S
C426 H412 0.960 . S
C426 H413 0.961 . S
C426 H414 0.959 . S
C426 C424 1.561 . S
C427 C424 1.526 . S
C427 C428 1.396 . S
C427 C432 1.390 . S
C428 C422 1.465 . S
C428 C427 1.396 . S
C428 C429 1.399 . S
C429 H415 0.929 . S
C429 C428 1.399 . S
C429 C430 1.385 . S
C430 H416 0.931 . S
C430 C429 1.385 . S
C430 C431 1.389 . S
C431 C430 1.389 . S
C431 C432 1.387 . S
C432 H417 0.930 . S
C432 C427 1.390 . S
C432 C431 1.387 . S
H433 C445 0.930 1_655 S
H434 C447 0.930 . S
H435 C448 0.930 . S
H436 C452 0.959 . S
H437 C452 0.959 . S
H438 C452 0.961 . S
H439 C453 0.960 . S
H440 C453 0.961 . S
H441 C453 0.959 . S
H442 C456 0.929 . S
H443 C457 0.931 . S
H444 C459 0.930 . S
C445 H433 0.930 1_455 S
C445 C446 1.399 . S
C445 C450 1.399 . S
C446 C445 1.399 . S
C446 C447 1.376 . S
C447 H434 0.930 . S
C447 C446 1.376 . S
C447 C448 1.388 . S
C448 H435 0.930 . S
C448 C447 1.388 . S
C448 C449 1.390 . S
C449 C448 1.390 . S
C449 C450 1.394 . S
C449 C455 1.465 . S
C450 C445 1.399 . S
C450 C449 1.394 . S
C450 C451 1.516 . S
C451 C450 1.516 . S
C451 C452 1.502 . S
C451 C453 1.561 . S
C451 C454 1.526 . S
C452 H436 0.959 . S
C452 H437 0.959 . S
C452 H438 0.961 . S
C452 C451 1.502 . S
C453 H439 0.960 . S
C453 H440 0.961 . S
C453 H441 0.959 . S
C453 C451 1.561 . S
C454 C451 1.526 . S
C454 C455 1.396 . S
C454 C459 1.390 . S
C455 C449 1.465 . S
C455 C454 1.396 . S
C455 C456 1.399 . S
C456 H442 0.929 . S
C456 C455 1.399 . S
C456 C457 1.385 . S
C457 H443 0.931 . S
C457 C456 1.385 . S
C457 C458 1.389 . S
C458 C457 1.389 . S
C458 C459 1.387 . S
C459 H444 0.930 . S
C459 C454 1.390 . S
C459 C458 1.387 . S
H460 C472 0.930 . S
H461 C474 0.930 . S
H462 C475 0.930 . S
H463 C479 0.959 . S
H464 C479 0.959 . S
H465 C479 0.961 . S
H466 C480 0.960 . S
H467 C480 0.961 . S
H468 C480 0.959 . S
H469 C483 0.929 . S
H470 C484 0.931 . S
H471 C486 0.930 . S
C472 H460 0.930 . S
C472 C473 1.399 . S
C472 C477 1.399 . S
C473 C472 1.399 . S
C473 C474 1.376 . S
C474 H461 0.930 . S
C474 C473 1.376 . S
C474 C475 1.388 . S
C475 H462 0.930 . S
C475 C474 1.388 . S
C475 C476 1.390 . S
C476 C475 1.390 . S
C476 C477 1.394 . S
C476 C482 1.465 . S
C477 C472 1.399 . S
C477 C476 1.394 . S
C477 C478 1.516 . S
C478 C477 1.516 . S
C478 C479 1.502 . S
C478 C480 1.561 . S
C478 C481 1.526 . S
C479 H463 0.959 . S
C479 H464 0.959 . S
C479 H465 0.961 . S
C479 C478 1.502 . S
C480 H466 0.960 . S
C480 H467 0.961 . S
C480 H468 0.959 . S
C480 C478 1.561 . S
C481 C478 1.526 . S
C481 C482 1.396 . S
C481 C486 1.390 . S
C482 C476 1.465 . S
C482 C481 1.396 . S
C482 C483 1.399 . S
C483 H469 0.929 . S
C483 C482 1.399 . S
C483 C484 1.385 . S
C484 H470 0.931 . S
C484 C483 1.385 . S
C484 C485 1.389 . S
C485 C484 1.389 . S
C485 C486 1.387 . S
C486 H471 0.930 . S
C486 C481 1.390 . S
C486 C485 1.387 . S
H487 C499 0.930 . S
H488 C501 0.930 . S
H489 C502 0.930 . S
H490 C506 0.959 . S
H491 C506 0.959 . S
H492 C506 0.961 . S
H493 C507 0.960 . S
H494 C507 0.961 . S
H495 C507 0.959 . S
H496 C510 0.929 . S
H497 C511 0.931 . S
H498 C513 0.930 . S
C499 H487 0.930 . S
C499 C500 1.399 . S
C499 C504 1.399 . S
C500 C499 1.399 . S
C500 C501 1.376 . S
C501 H488 0.930 . S
C501 C500 1.376 . S
C501 C502 1.388 . S
C502 H489 0.930 . S
C502 C501 1.388 . S
C502 C503 1.390 . S
C503 C502 1.390 . S
C503 C504 1.394 . S
C503 C509 1.465 . S
C504 C499 1.399 . S
C504 C503 1.394 . S
C504 C505 1.516 . S
C505 C504 1.516 . S
C505 C506 1.502 . S
C505 C507 1.561 . S
C505 C508 1.526 . S
C506 H490 0.959 . S
C506 H491 0.959 . S
C506 H492 0.961 . S
C506 C505 1.502 . S
C507 H493 0.960 . S
C507 H494 0.961 . S
C507 H495 0.959 . S
C507 C505 1.561 . S
C508 C505 1.526 . S
C508 C509 1.396 . S
C508 C513 1.390 . S
C509 C503 1.465 . S
C509 C508 1.396 . S
C509 C510 1.399 . S
C510 H496 0.929 . S
C510 C509 1.399 . S
C510 C511 1.385 . S
C511 H497 0.931 . S
C511 C510 1.385 . S
C511 C512 1.389 . S
C512 C511 1.389 . S
C512 C513 1.387 . S
C513 H498 0.930 . S
C513 C508 1.390 . S
C513 C512 1.387 . S
H514 C526 0.930 . S
H515 C528 0.930 . S
H516 C529 0.930 . S
H517 C533 0.959 . S
H518 C533 0.959 . S
H519 C533 0.961 . S
H520 C534 0.960 . S
H521 C534 0.961 . S
H522 C534 0.959 . S
H523 C537 0.929 . S
H524 C538 0.931 . S
H525 C540 0.930 . S
C526 H514 0.930 . S
C526 C527 1.399 . S
C526 C531 1.399 . S
C527 C526 1.399 . S
C527 C528 1.376 . S
C528 H515 0.930 . S
C528 C527 1.376 . S
C528 C529 1.388 . S
C529 H516 0.930 . S
C529 C528 1.388 . S
C529 C530 1.390 . S
C530 C529 1.390 . S
C530 C531 1.394 . S
C530 C536 1.465 . S
C531 C526 1.399 . S
C531 C530 1.394 . S
C531 C532 1.516 . S
C532 C531 1.516 . S
C532 C533 1.502 . S
C532 C534 1.561 . S
C532 C535 1.526 . S
C533 H517 0.959 . S
C533 H518 0.959 . S
C533 H519 0.961 . S
C533 C532 1.502 . S
C534 H520 0.960 . S
C534 H521 0.961 . S
C534 H522 0.959 . S
C534 C532 1.561 . S
C535 C532 1.526 . S
C535 C536 1.396 . S
C535 C540 1.390 . S
C536 C530 1.465 . S
C536 C535 1.396 . S
C536 C537 1.399 . S
C537 H523 0.929 . S
C537 C536 1.399 . S
C537 C538 1.385 . S
C538 H524 0.931 . S
C538 C537 1.385 . S
C538 C539 1.389 . S
C539 C538 1.389 . S
C539 C540 1.387 . S
C540 H525 0.930 . S
C540 C535 1.390 . S
C540 C539 1.387 . S
H541 C553 0.930 . S
H542 C555 0.930 . S
H543 C556 0.930 . S
H544 C560 0.959 . S
H545 C560 0.959 . S
H546 C560 0.961 . S
H547 C561 0.960 . S
H548 C561 0.961 . S
H549 C561 0.959 . S
H550 C564 0.929 . S
H551 C565 0.931 . S
H552 C567 0.930 . S
C553 H541 0.930 . S
C553 C554 1.399 . S
C553 C558 1.399 . S
C554 C553 1.399 . S
C554 C555 1.376 . S
C555 H542 0.930 . S
C555 C554 1.376 . S
C555 C556 1.388 . S
C556 H543 0.930 . S
C556 C555 1.388 . S
C556 C557 1.390 . S
C557 C556 1.390 . S
C557 C558 1.394 . S
C557 C563 1.465 . S
C558 C553 1.399 . S
C558 C557 1.394 . S
C558 C559 1.516 . S
C559 C558 1.516 . S
C559 C560 1.502 . S
C559 C561 1.561 . S
C559 C562 1.526 . S
C560 H544 0.959 . S
C560 H545 0.959 . S
C560 H546 0.961 . S
C560 C559 1.502 . S
C561 H547 0.960 . S
C561 H548 0.961 . S
C561 H549 0.959 . S
C561 C559 1.561 . S
C562 C559 1.526 . S
C562 C563 1.396 . S
C562 C567 1.390 . S
C563 C557 1.465 . S
C563 C562 1.396 . S
C563 C564 1.399 . S
C564 H550 0.929 . S
C564 C563 1.399 . S
C564 C565 1.385 . S
C565 H551 0.931 . S
C565 C564 1.385 . S
C565 C566 1.389 . S
C566 C565 1.389 . S
C566 C567 1.387 . S
C567 H552 0.930 . S
C567 C562 1.390 . S
C567 C566 1.387 . S
H568 C580 0.930 . S
H569 C582 0.930 . S
H570 C583 0.930 . S
H571 C587 0.959 . S
H572 C587 0.959 . S
H573 C587 0.961 . S
H574 C588 0.960 . S
H575 C588 0.961 . S
H576 C588 0.959 . S
H577 C591 0.929 . S
H578 C592 0.931 . S
H579 C594 0.930 . S
C580 H568 0.930 . S
C580 C581 1.399 . S
C580 C585 1.399 . S
C581 C580 1.399 . S
C581 C582 1.376 . S
C582 H569 0.930 . S
C582 C581 1.376 . S
C582 C583 1.388 . S
C583 H570 0.930 . S
C583 C582 1.388 . S
C583 C584 1.390 . S
C584 C583 1.390 . S
C584 C585 1.394 . S
C584 C590 1.465 . S
C585 C580 1.399 . S
C585 C584 1.394 . S
C585 C586 1.516 . S
C586 C585 1.516 . S
C586 C587 1.502 . S
C586 C588 1.561 . S
C586 C589 1.526 . S
C587 H571 0.959 . S
C587 H572 0.959 . S
C587 H573 0.961 . S
C587 C586 1.502 . S
C588 H574 0.960 . S
C588 H575 0.961 . S
C588 H576 0.959 . S
C588 C586 1.561 . S
C589 C586 1.526 . S
C589 C590 1.396 . S
C589 C594 1.390 . S
C590 C584 1.465 . S
C590 C589 1.396 . S
C590 C591 1.399 . S
C591 H577 0.929 . S
C591 C590 1.399 . S
C591 C592 1.385 . S
C592 H578 0.931 . S
C592 C591 1.385 . S
C592 C593 1.389 . S
C593 C592 1.389 . S
C593 C594 1.387 . S
C594 H579 0.930 . S
C594 C589 1.390 . S
C594 C593 1.387 . S
H595 C607 0.930 . S
H596 C609 0.930 . S
H597 C610 0.930 . S
H598 C614 0.959 . S
H599 C614 0.959 . S
H600 C614 0.961 . S
H601 C615 0.960 . S
H602 C615 0.961 . S
H603 C615 0.959 . S
H604 C618 0.929 . S
H605 C619 0.931 . S
H606 C621 0.930 . S
C607 H595 0.930 . S
C607 C608 1.399 . S
C607 C612 1.399 . S
C608 C607 1.399 . S
C608 C609 1.376 . S
C609 H596 0.930 . S
C609 C608 1.376 . S
C609 C610 1.388 . S
C610 H597 0.930 . S
C610 C609 1.388 . S
C610 C611 1.390 . S
C611 C610 1.390 . S
C611 C612 1.394 . S
C611 C617 1.465 . S
C612 C607 1.399 . S
C612 C611 1.394 . S
C612 C613 1.516 . S
C613 C612 1.516 . S
C613 C614 1.502 . S
C613 C615 1.561 . S
C613 C616 1.526 . S
C614 H598 0.959 . S
C614 H599 0.959 . S
C614 H600 0.961 . S
C614 C613 1.502 . S
C615 H601 0.960 . S
C615 H602 0.961 . S
C615 H603 0.959 . S
C615 C613 1.561 . S
C616 C613 1.526 . S
C616 C617 1.396 . S
C616 C621 1.390 . S
C617 C611 1.465 . S
C617 C616 1.396 . S
C617 C618 1.399 . S
C618 H604 0.929 . S
C618 C617 1.399 . S
C618 C619 1.385 . S
C619 H605 0.931 . S
C619 C618 1.385 . S
C619 C620 1.389 . S
C620 C619 1.389 . S
C620 C621 1.387 . S
C621 H606 0.930 . S
C621 C616 1.390 . S
C621 C620 1.387 . S
H622 C634 0.930 . S
H623 C636 0.930 . S
H624 C637 0.930 . S
H625 C641 0.959 . S
H626 C641 0.959 . S
H627 C641 0.961 . S
H628 C642 0.960 . S
H629 C642 0.961 . S
H630 C642 0.959 . S
H631 C645 0.929 . S
H632 C646 0.931 . S
H633 C648 0.930 . S
C634 H622 0.930 . S
C634 C635 1.399 . S
C634 C639 1.399 . S
C635 C634 1.399 . S
C635 C636 1.376 . S
C636 H623 0.930 . S
C636 C635 1.376 . S
C636 C637 1.388 . S
C637 H624 0.930 . S
C637 C636 1.388 . S
C637 C638 1.390 . S
C638 C637 1.390 . S
C638 C639 1.394 . S
C638 C644 1.465 . S
C639 C634 1.399 . S
C639 C638 1.394 . S
C639 C640 1.516 . S
C640 C639 1.516 . S
C640 C641 1.502 . S
C640 C642 1.561 . S
C640 C643 1.526 . S
C641 H625 0.959 . S
C641 H626 0.959 . S
C641 H627 0.961 . S
C641 C640 1.502 . S
C642 H628 0.960 . S
C642 H629 0.961 . S
C642 H630 0.959 . S
C642 C640 1.561 . S
C643 C640 1.526 . S
C643 C644 1.396 . S
C643 C648 1.390 . S
C644 C638 1.465 . S
C644 C643 1.396 . S
C644 C645 1.399 . S
C645 H631 0.929 . S
C645 C644 1.399 . S
C645 C646 1.385 . S
C646 H632 0.931 . S
C646 C645 1.385 . S
C646 C647 1.389 . S
C647 C646 1.389 . S
C647 C648 1.387 . S
C648 H633 0.930 . S
C648 C643 1.390 . S
C648 C647 1.387 . S
H649 C661 0.930 . S
H650 C663 0.930 . S
H651 C664 0.930 . S
H652 C668 0.959 . S
H653 C668 0.959 . S
H654 C668 0.961 . S
H655 C669 0.960 . S
H656 C669 0.961 . S
H657 C669 0.959 . S
H658 C672 0.929 . S
H659 C673 0.931 . S
H660 C675 0.930 . S
C661 H649 0.930 . S
C661 C662 1.399 . S
C661 C666 1.399 . S
C662 C661 1.399 . S
C662 C663 1.376 . S
C663 H650 0.930 . S
C663 C662 1.376 . S
C663 C664 1.388 . S
C664 H651 0.930 . S
C664 C663 1.388 . S
C664 C665 1.390 . S
C665 C664 1.390 . S
C665 C666 1.394 . S
C665 C671 1.465 . S
C666 C661 1.399 . S
C666 C665 1.394 . S
C666 C667 1.516 . S
C667 C666 1.516 . S
C667 C668 1.502 . S
C667 C669 1.561 . S
C667 C670 1.526 . S
C668 H652 0.959 . S
C668 H653 0.959 . S
C668 H654 0.961 . S
C668 C667 1.502 . S
C669 H655 0.960 . S
C669 H656 0.961 . S
C669 H657 0.959 . S
C669 C667 1.561 . S
C670 C667 1.526 . S
C670 C671 1.396 . S
C670 C675 1.390 . S
C671 C665 1.465 . S
C671 C670 1.396 . S
C671 C672 1.399 . S
C672 H658 0.929 . S
C672 C671 1.399 . S
C672 C673 1.385 . S
C673 H659 0.931 . S
C673 C672 1.385 . S
C673 C674 1.389 . S
C674 C673 1.389 . S
C674 C675 1.387 . S
C675 H660 0.930 . S
C675 C670 1.390 . S
C675 C674 1.387 . S
H676 C688 0.930 . S
H677 C690 0.930 . S
H678 C691 0.930 . S
H679 C695 0.959 . S
H680 C695 0.959 . S
H681 C695 0.961 . S
H682 C696 0.960 . S
H683 C696 0.961 . S
H684 C696 0.959 . S
H685 C699 0.929 . S
H686 C700 0.931 . S
H687 C702 0.930 . S
C688 H676 0.930 . S
C688 C689 1.399 . S
C688 C693 1.399 . S
C689 C688 1.399 . S
C689 C690 1.376 . S
C690 H677 0.930 . S
C690 C689 1.376 . S
C690 C691 1.388 . S
C691 H678 0.930 . S
C691 C690 1.388 . S
C691 C692 1.390 . S
C692 C691 1.390 . S
C692 C693 1.394 . S
C692 C698 1.465 . S
C693 C688 1.399 . S
C693 C692 1.394 . S
C693 C694 1.516 . S
C694 C693 1.516 . S
C694 C695 1.502 . S
C694 C696 1.561 . S
C694 C697 1.526 . S
C695 H679 0.959 . S
C695 H680 0.959 . S
C695 H681 0.961 . S
C695 C694 1.502 . S
C696 H682 0.960 . S
C696 H683 0.961 . S
C696 H684 0.959 . S
C696 C694 1.561 . S
C697 C694 1.526 . S
C697 C698 1.396 . S
C697 C702 1.390 . S
C698 C692 1.465 . S
C698 C697 1.396 . S
C698 C699 1.399 . S
C699 H685 0.929 . S
C699 C698 1.399 . S
C699 C700 1.385 . S
C700 H686 0.931 . S
C700 C699 1.385 . S
C700 C701 1.389 . S
C701 C700 1.389 . S
C701 C702 1.387 . S
C702 H687 0.930 . S
C702 C697 1.390 . S
C702 C701 1.387 . S
H703 C715 0.930 . S
H704 C717 0.930 . S
H705 C718 0.930 . S
H706 C722 0.959 . S
H707 C722 0.959 . S
H708 C722 0.961 . S
H709 C723 0.960 . S
H710 C723 0.961 . S
H711 C723 0.959 . S
H712 C726 0.929 . S
H713 C727 0.931 1_655 S
H714 C729 0.930 . S
C715 H703 0.930 . S
C715 C716 1.399 . S
C715 C720 1.399 . S
C716 C715 1.399 . S
C716 C717 1.376 . S
C717 H704 0.930 . S
C717 C716 1.376 . S
C717 C718 1.388 . S
C718 H705 0.930 . S
C718 C717 1.388 . S
C718 C719 1.390 . S
C719 C718 1.390 . S
C719 C720 1.394 . S
C719 C725 1.465 . S
C720 C715 1.399 . S
C720 C719 1.394 . S
C720 C721 1.516 . S
C721 C720 1.516 . S
C721 C722 1.502 . S
C721 C723 1.561 . S
C721 C724 1.526 . S
C722 H706 0.959 . S
C722 H707 0.959 . S
C722 H708 0.961 . S
C722 C721 1.502 . S
C723 H709 0.960 . S
C723 H710 0.961 . S
C723 H711 0.959 . S
C723 C721 1.561 . S
C724 C721 1.526 . S
C724 C725 1.396 . S
C724 C729 1.390 . S
C725 C719 1.465 . S
C725 C724 1.396 . S
C725 C726 1.399 . S
C726 H712 0.929 . S
C726 C725 1.399 . S
C726 C727 1.385 . S
C727 H713 0.931 1_455 S
C727 C726 1.385 . S
C727 C728 1.389 . S
C728 C727 1.389 . S
C728 C729 1.387 . S
C729 H714 0.930 . S
C729 C724 1.390 . S
C729 C728 1.387 . S
H730 C742 0.930 . S
H731 C744 0.930 . S
H732 C745 0.930 . S
H733 C749 0.959 . S
H734 C749 0.959 . S
H735 C749 0.961 . S
H736 C750 0.960 . S
H737 C750 0.961 . S
H738 C750 0.959 . S
H739 C753 0.929 . S
H740 C754 0.931 . S
H741 C756 0.930 . S
C742 H730 0.930 . S
C742 C743 1.399 . S
C742 C747 1.399 . S
C743 C742 1.399 . S
C743 C744 1.376 . S
C744 H731 0.930 . S
C744 C743 1.376 . S
C744 C745 1.388 . S
C745 H732 0.930 . S
C745 C744 1.388 . S
C745 C746 1.390 . S
C746 C745 1.390 . S
C746 C747 1.394 . S
C746 C752 1.465 . S
C747 C742 1.399 . S
C747 C746 1.394 . S
C747 C748 1.516 . S
C748 C747 1.516 . S
C748 C749 1.502 . S
C748 C750 1.561 . S
C748 C751 1.526 . S
C749 H733 0.959 . S
C749 H734 0.959 . S
C749 H735 0.961 . S
C749 C748 1.502 . S
C750 H736 0.960 . S
C750 H737 0.961 . S
C750 H738 0.959 . S
C750 C748 1.561 . S
C751 C748 1.526 . S
C751 C752 1.396 . S
C751 C756 1.390 . S
C752 C746 1.465 . S
C752 C751 1.396 . S
C752 C753 1.399 . S
C753 H739 0.929 . S
C753 C752 1.399 . S
C753 C754 1.385 . S
C754 H740 0.931 . S
C754 C753 1.385 . S
C754 C755 1.389 . S
C755 C754 1.389 . S
C755 C756 1.387 . S
C756 H741 0.930 . S
C756 C751 1.390 . S
C756 C755 1.387 . S
H757 C769 0.930 . S
H758 C771 0.930 . S
H759 C772 0.930 . S
H760 C776 0.959 . S
H761 C776 0.959 . S
H762 C776 0.961 . S
H763 C777 0.960 . S
H764 C777 0.961 . S
H765 C777 0.959 . S
H766 C780 0.929 . S
H767 C781 0.931 . S
H768 C783 0.930 . S
C769 H757 0.930 . S
C769 C770 1.399 . S
C769 C774 1.399 . S
C770 C769 1.399 . S
C770 C771 1.376 . S
C771 H758 0.930 . S
C771 C770 1.376 . S
C771 C772 1.388 . S
C772 H759 0.930 . S
C772 C771 1.388 . S
C772 C773 1.390 . S
C773 C772 1.390 . S
C773 C774 1.394 . S
C773 C779 1.465 . S
C774 C769 1.399 . S
C774 C773 1.394 . S
C774 C775 1.516 . S
C775 C774 1.516 . S
C775 C776 1.502 . S
C775 C777 1.561 . S
C775 C778 1.526 . S
C776 H760 0.959 . S
C776 H761 0.959 . S
C776 H762 0.961 . S
C776 C775 1.502 . S
C777 H763 0.960 . S
C777 H764 0.961 . S
C777 H765 0.959 . S
C777 C775 1.561 . S
C778 C775 1.526 . S
C778 C779 1.396 . S
C778 C783 1.390 . S
C779 C773 1.465 . S
C779 C778 1.396 . S
C779 C780 1.399 . S
C780 H766 0.929 . S
C780 C779 1.399 . S
C780 C781 1.385 . S
C781 H767 0.931 . S
C781 C780 1.385 . S
C781 C782 1.389 . S
C782 C781 1.389 . S
C782 C783 1.387 . S
C783 H768 0.930 . S
C783 C778 1.390 . S
C783 C782 1.387 . S
H784 C796 0.930 . S
H785 C798 0.930 . S
H786 C799 0.930 . S
H787 C803 0.959 . S
H788 C803 0.959 . S
H789 C803 0.961 . S
H790 C804 0.960 . S
H791 C804 0.961 . S
H792 C804 0.959 . S
H793 C807 0.929 . S
H794 C808 0.931 . S
H795 C810 0.930 . S
C796 H784 0.930 . S
C796 C797 1.399 . S
C796 C801 1.399 . S
C797 C796 1.399 . S
C797 C798 1.376 . S
C798 H785 0.930 . S
C798 C797 1.376 . S
C798 C799 1.388 . S
C799 H786 0.930 . S
C799 C798 1.388 . S
C799 C800 1.390 . S
C800 C799 1.390 . S
C800 C801 1.394 . S
C800 C806 1.465 . S
C801 C796 1.399 . S
C801 C800 1.394 . S
C801 C802 1.516 . S
C802 C801 1.516 . S
C802 C803 1.502 . S
C802 C804 1.561 . S
C802 C805 1.526 . S
C803 H787 0.959 . S
C803 H788 0.959 . S
C803 H789 0.961 . S
C803 C802 1.502 . S
C804 H790 0.960 . S
C804 H791 0.961 . S
C804 H792 0.959 . S
C804 C802 1.561 . S
C805 C802 1.526 . S
C805 C806 1.396 . S
C805 C810 1.390 . S
C806 C800 1.465 . S
C806 C805 1.396 . S
C806 C807 1.399 . S
C807 H793 0.929 . S
C807 C806 1.399 . S
C807 C808 1.385 . S
C808 H794 0.931 . S
C808 C807 1.385 . S
C808 C809 1.389 . S
C809 C808 1.389 . S
C809 C810 1.387 . S
C810 H795 0.930 . S
C810 C805 1.390 . S
C810 C809 1.387 . S
H811 C823 0.930 . S
H812 C825 0.930 . S
H813 C826 0.930 . S
H814 C830 0.959 . S
H815 C830 0.959 . S
H816 C830 0.961 . S
H817 C831 0.960 . S
H818 C831 0.961 . S
H819 C831 0.959 . S
H820 C834 0.929 . S
H821 C835 0.931 . S
H822 C837 0.930 . S
C823 H811 0.930 . S
C823 C824 1.399 . S
C823 C828 1.399 . S
C824 C823 1.399 . S
C824 C825 1.376 . S
C825 H812 0.930 . S
C825 C824 1.376 . S
C825 C826 1.388 . S
C826 H813 0.930 . S
C826 C825 1.388 . S
C826 C827 1.390 . S
C827 C826 1.390 . S
C827 C828 1.394 . S
C827 C833 1.465 . S
C828 C823 1.399 . S
C828 C827 1.394 . S
C828 C829 1.516 . S
C829 C828 1.516 . S
C829 C830 1.502 . S
C829 C831 1.561 . S
C829 C832 1.526 . S
C830 H814 0.959 . S
C830 H815 0.959 . S
C830 H816 0.961 . S
C830 C829 1.502 . S
C831 H817 0.960 . S
C831 H818 0.961 . S
C831 H819 0.959 . S
C831 C829 1.561 . S
C832 C829 1.526 . S
C832 C833 1.396 . S
C832 C837 1.390 . S
C833 C827 1.465 . S
C833 C832 1.396 . S
C833 C834 1.399 . S
C834 H820 0.929 . S
C834 C833 1.399 . S
C834 C835 1.385 . S
C835 H821 0.931 . S
C835 C834 1.385 . S
C835 C836 1.389 . S
C836 C835 1.389 . S
C836 C837 1.387 . S
C837 H822 0.930 . S
C837 C832 1.390 . S
C837 C836 1.387 . S
H838 C850 0.930 . S
H839 C852 0.930 . S
H840 C853 0.930 . S
H841 C857 0.959 . S
H842 C857 0.959 . S
H843 C857 0.961 . S
H844 C858 0.960 . S
H845 C858 0.961 . S
H846 C858 0.959 . S
H847 C861 0.929 . S
H848 C862 0.931 . S
H849 C864 0.930 . S
C850 H838 0.930 . S
C850 C851 1.399 . S
C850 C855 1.399 . S
C851 C850 1.399 . S
C851 C852 1.376 . S
C852 H839 0.930 . S
C852 C851 1.376 . S
C852 C853 1.388 . S
C853 H840 0.930 . S
C853 C852 1.388 . S
C853 C854 1.390 . S
C854 C853 1.390 . S
C854 C855 1.394 . S
C854 C860 1.465 . S
C855 C850 1.399 . S
C855 C854 1.394 . S
C855 C856 1.516 . S
C856 C855 1.516 . S
C856 C857 1.502 . S
C856 C858 1.561 . S
C856 C859 1.526 . S
C857 H841 0.959 . S
C857 H842 0.959 . S
C857 H843 0.961 . S
C857 C856 1.502 . S
C858 H844 0.960 . S
C858 H845 0.961 . S
C858 H846 0.959 . S
C858 C856 1.561 . S
C859 C856 1.526 . S
C859 C860 1.396 . S
C859 C864 1.390 . S
C860 C854 1.465 . S
C860 C859 1.396 . S
C860 C861 1.399 . S
C861 H847 0.929 . S
C861 C860 1.399 . S
C861 C862 1.385 . S
C862 H848 0.931 . S
C862 C861 1.385 . S
C862 C863 1.389 . S
C863 C862 1.389 . S
C863 C864 1.387 . S
C864 H849 0.930 . S
C864 C859 1.390 . S
C864 C863 1.387 . S
H865 C877 0.930 . S
H866 C879 0.930 . S
H867 C880 0.930 . S
H868 C884 0.959 . S
H869 C884 0.959 . S
H870 C884 0.961 . S
H871 C885 0.960 . S
H872 C885 0.961 . S
H873 C885 0.959 . S
H874 C888 0.929 . S
H875 C889 0.931 . S
H876 C891 0.930 . S
C877 H865 0.930 . S
C877 C878 1.399 . S
C877 C882 1.399 . S
C878 C877 1.399 . S
C878 C879 1.376 . S
C879 H866 0.930 . S
C879 C878 1.376 . S
C879 C880 1.388 . S
C880 H867 0.930 . S
C880 C879 1.388 . S
C880 C881 1.390 . S
C881 C880 1.390 . S
C881 C882 1.394 . S
C881 C887 1.465 . S
C882 C877 1.399 . S
C882 C881 1.394 . S
C882 C883 1.516 . S
C883 C882 1.516 . S
C883 C884 1.502 . S
C883 C885 1.561 . S
C883 C886 1.526 . S
C884 H868 0.959 . S
C884 H869 0.959 . S
C884 H870 0.961 . S
C884 C883 1.502 . S
C885 H871 0.960 . S
C885 H872 0.961 . S
C885 H873 0.959 . S
C885 C883 1.561 . S
C886 C883 1.526 . S
C886 C887 1.396 . S
C886 C891 1.390 . S
C887 C881 1.465 . S
C887 C886 1.396 . S
C887 C888 1.399 . S
C888 H874 0.929 . S
C888 C887 1.399 . S
C888 C889 1.385 . S
C889 H875 0.931 . S
C889 C888 1.385 . S
C889 C890 1.389 . S
C890 C889 1.389 . S
C890 C891 1.387 . S
C891 H876 0.930 . S
C891 C886 1.390 . S
C891 C890 1.387 . S
H892 C904 0.930 . S
H893 C906 0.930 . S
H894 C907 0.930 . S
H895 C911 0.959 . S
H896 C911 0.959 . S
H897 C911 0.961 . S
H898 C912 0.960 . S
H899 C912 0.961 . S
H900 C912 0.959 . S
H901 C915 0.929 . S
H902 C916 0.931 . S
H903 C918 0.930 . S
C904 H892 0.930 . S
C904 C905 1.399 . S
C904 C909 1.399 . S
C905 C904 1.399 . S
C905 C906 1.376 . S
C906 H893 0.930 . S
C906 C905 1.376 . S
C906 C907 1.388 . S
C907 H894 0.930 . S
C907 C906 1.388 . S
C907 C908 1.390 . S
C908 C907 1.390 . S
C908 C909 1.394 . S
C908 C914 1.465 . S
C909 C904 1.399 . S
C909 C908 1.394 . S
C909 C910 1.516 . S
C910 C909 1.516 . S
C910 C911 1.502 . S
C910 C912 1.561 . S
C910 C913 1.526 . S
C911 H895 0.959 . S
C911 H896 0.959 . S
C911 H897 0.961 . S
C911 C910 1.502 . S
C912 H898 0.960 . S
C912 H899 0.961 . S
C912 H900 0.959 . S
C912 C910 1.561 . S
C913 C910 1.526 . S
C913 C914 1.396 . S
C913 C918 1.390 . S
C914 C908 1.465 . S
C914 C913 1.396 . S
C914 C915 1.399 . S
C915 H901 0.929 . S
C915 C914 1.399 . S
C915 C916 1.385 . S
C916 H902 0.931 . S
C916 C915 1.385 . S
C916 C917 1.389 . S
C917 C916 1.389 . S
C917 C918 1.387 . S
C918 H903 0.930 . S
C918 C913 1.390 . S
C918 C917 1.387 . S
H919 C931 0.930 . S
H920 C933 0.930 . S
H921 C934 0.930 . S
H922 C938 0.959 . S
H923 C938 0.959 . S
H924 C938 0.961 . S
H925 C939 0.960 . S
H926 C939 0.961 . S
H927 C939 0.959 . S
H928 C942 0.929 . S
H929 C943 0.931 . S
H930 C945 0.930 . S
C931 H919 0.930 . S
C931 C932 1.399 . S
C931 C936 1.399 . S
C932 C931 1.399 . S
C932 C933 1.376 . S
C933 H920 0.930 . S
C933 C932 1.376 . S
C933 C934 1.388 . S
C934 H921 0.930 . S
C934 C933 1.388 . S
C934 C935 1.390 . S
C935 C934 1.390 . S
C935 C936 1.394 . S
C935 C941 1.465 . S
C936 C931 1.399 . S
C936 C935 1.394 . S
C936 C937 1.516 . S
C937 C936 1.516 . S
C937 C938 1.502 . S
C937 C939 1.561 . S
C937 C940 1.526 . S
C938 H922 0.959 . S
C938 H923 0.959 . S
C938 H924 0.961 . S
C938 C937 1.502 . S
C939 H925 0.960 . S
C939 H926 0.961 . S
C939 H927 0.959 . S
C939 C937 1.561 . S
C940 C937 1.526 . S
C940 C941 1.396 . S
C940 C945 1.390 . S
C941 C935 1.465 . S
C941 C940 1.396 . S
C941 C942 1.399 . S
C942 H928 0.929 . S
C942 C941 1.399 . S
C942 C943 1.385 . S
C943 H929 0.931 . S
C943 C942 1.385 . S
C943 C944 1.389 . S
C944 C943 1.389 . S
C944 C945 1.387 . S
C945 H930 0.930 . S
C945 C940 1.390 . S
C945 C944 1.387 . S
H946 C958 0.930 . S
H947 C960 0.930 . S
H948 C961 0.930 . S
H949 C965 0.959 . S
H950 C965 0.959 . S
H951 C965 0.961 . S
H952 C966 0.960 . S
H953 C966 0.961 . S
H954 C966 0.959 . S
H955 C969 0.929 . S
H956 C970 0.931 . S
H957 C972 0.930 . S
C958 H946 0.930 . S
C958 C959 1.399 . S
C958 C963 1.399 . S
C959 C958 1.399 . S
C959 C960 1.376 . S
C960 H947 0.930 . S
C960 C959 1.376 . S
C960 C961 1.388 . S
C961 H948 0.930 . S
C961 C960 1.388 . S
C961 C962 1.390 . S
C962 C961 1.390 . S
C962 C963 1.394 . S
C962 C968 1.465 . S
C963 C958 1.399 . S
C963 C962 1.394 . S
C963 C964 1.516 . S
C964 C963 1.516 . S
C964 C965 1.502 . S
C964 C966 1.561 . S
C964 C967 1.526 . S
C965 H949 0.959 . S
C965 H950 0.959 . S
C965 H951 0.961 . S
C965 C964 1.502 . S
C966 H952 0.960 . S
C966 H953 0.961 . S
C966 H954 0.959 . S
C966 C964 1.561 . S
C967 C964 1.526 . S
C967 C968 1.396 . S
C967 C972 1.390 . S
C968 C962 1.465 . S
C968 C967 1.396 . S
C968 C969 1.399 . S
C969 H955 0.929 . S
C969 C968 1.399 . S
C969 C970 1.385 . S
C970 H956 0.931 . S
C970 C969 1.385 . S
C970 C971 1.389 . S
C971 C970 1.389 . S
C971 C972 1.387 . S
C972 H957 0.930 . S
C972 C967 1.390 . S
C972 C971 1.387 . S
H973 C985 0.930 . S
H974 C987 0.930 . S
H975 C988 0.930 . S
H976 C992 0.959 . S
H977 C992 0.959 . S
H978 C992 0.961 . S
H979 C993 0.960 . S
H980 C993 0.961 . S
H981 C993 0.959 . S
H982 C996 0.929 . S
H983 C997 0.931 . S
H984 C999 0.930 . S
C985 H973 0.930 . S
C985 C986 1.399 . S
C985 C990 1.399 . S
C986 C985 1.399 . S
C986 C987 1.376 . S
C987 H974 0.930 . S
C987 C986 1.376 . S
C987 C988 1.388 . S
C988 H975 0.930 . S
C988 C987 1.388 . S
C988 C989 1.390 . S
C989 C988 1.390 . S
C989 C990 1.394 . S
C989 C995 1.465 . S
C990 C985 1.399 . S
C990 C989 1.394 . S
C990 C991 1.516 . S
C991 C990 1.516 . S
C991 C992 1.502 . S
C991 C993 1.561 . S
C991 C994 1.526 . S
C992 H976 0.959 . S
C992 H977 0.959 . S
C992 H978 0.961 . S
C992 C991 1.502 . S
C993 H979 0.960 . S
C993 H980 0.961 . S
C993 H981 0.959 . S
C993 C991 1.561 . S
C994 C991 1.526 . S
C994 C995 1.396 . S
C994 C999 1.390 . S
C995 C989 1.465 . S
C995 C994 1.396 . S
C995 C996 1.399 . S
C996 H982 0.929 . S
C996 C995 1.399 . S
C996 C997 1.385 . S
C997 H983 0.931 . S
C997 C996 1.385 . S
C997 C998 1.389 . S
C998 C997 1.389 . S
C998 C999 1.387 . S
C999 H984 0.930 . S
C999 C994 1.390 . S
C999 C998 1.387 . S
H1000 C1012 0.930 . S
H1001 C1014 0.930 . S
H1002 C1015 0.930 . S
H1003 C1019 0.959 . S
H1004 C1019 0.959 . S
H1005 C1019 0.961 . S
H1006 C1020 0.960 . S
H1007 C1020 0.961 . S
H1008 C1020 0.959 . S
H1009 C1023 0.929 . S
H1010 C1024 0.931 . S
H1011 C1026 0.930 . S
C1012 H1000 0.930 . S
C1012 C1013 1.399 . S
C1012 C1017 1.399 . S
C1013 C1012 1.399 . S
C1013 C1014 1.376 . S
C1014 H1001 0.930 . S
C1014 C1013 1.376 . S
C1014 C1015 1.388 . S
C1015 H1002 0.930 . S
C1015 C1014 1.388 . S
C1015 C1016 1.390 . S
C1016 C1015 1.390 . S
C1016 C1017 1.394 . S
C1016 C1022 1.465 . S
C1017 C1012 1.399 . S
C1017 C1016 1.394 . S
C1017 C1018 1.516 . S
C1018 C1017 1.516 . S
C1018 C1019 1.502 . S
C1018 C1020 1.561 . S
C1018 C1021 1.526 . S
C1019 H1003 0.959 . S
C1019 H1004 0.959 . S
C1019 H1005 0.961 . S
C1019 C1018 1.502 . S
C1020 H1006 0.960 . S
C1020 H1007 0.961 . S
C1020 H1008 0.959 . S
C1020 C1018 1.561 . S
C1021 C1018 1.526 . S
C1021 C1022 1.396 . S
C1021 C1026 1.390 . S
C1022 C1016 1.465 . S
C1022 C1021 1.396 . S
C1022 C1023 1.399 . S
C1023 H1009 0.929 . S
C1023 C1022 1.399 . S
C1023 C1024 1.385 . S
C1024 H1010 0.931 . S
C1024 C1023 1.385 . S
C1024 C1025 1.389 . S
C1025 C1024 1.389 . S
C1025 C1026 1.387 . S
C1026 H1011 0.930 . S
C1026 C1021 1.390 . S
C1026 C1025 1.387 . S
H1027 C1039 0.930 . S
H1028 C1041 0.930 . S
H1029 C1042 0.930 . S
H1030 C1046 0.959 . S
H1031 C1046 0.959 . S
H1032 C1046 0.961 . S
H1033 C1047 0.960 . S
H1034 C1047 0.961 . S
H1035 C1047 0.959 . S
H1036 C1050 0.929 . S
H1037 C1051 0.931 . S
H1038 C1053 0.930 . S
C1039 H1027 0.930 . S
C1039 C1040 1.399 . S
C1039 C1044 1.399 . S
C1040 C1039 1.399 . S
C1040 C1041 1.376 . S
C1041 H1028 0.930 . S
C1041 C1040 1.376 . S
C1041 C1042 1.388 . S
C1042 H1029 0.930 . S
C1042 C1041 1.388 . S
C1042 C1043 1.390 . S
C1043 C1042 1.390 . S
C1043 C1044 1.394 . S
C1043 C1049 1.465 . S
C1044 C1039 1.399 . S
C1044 C1043 1.394 . S
C1044 C1045 1.516 . S
C1045 C1044 1.516 . S
C1045 C1046 1.502 . S
C1045 C1047 1.561 . S
C1045 C1048 1.526 . S
C1046 H1030 0.959 . S
C1046 H1031 0.959 . S
C1046 H1032 0.961 . S
C1046 C1045 1.502 . S
C1047 H1033 0.960 . S
C1047 H1034 0.961 . S
C1047 H1035 0.959 . S
C1047 C1045 1.561 . S
C1048 C1045 1.526 . S
C1048 C1049 1.396 . S
C1048 C1053 1.390 . S
C1049 C1043 1.465 . S
C1049 C1048 1.396 . S
C1049 C1050 1.399 . S
C1050 H1036 0.929 . S
C1050 C1049 1.399 . S
C1050 C1051 1.385 . S
C1051 H1037 0.931 . S
C1051 C1050 1.385 . S
C1051 C1052 1.389 . S
C1052 C1051 1.389 . S
C1052 C1053 1.387 . S
C1053 H1038 0.930 . S
C1053 C1048 1.390 . S
C1053 C1052 1.387 . S
H1054 C1066 0.930 . S
H1055 C1068 0.930 . S
H1056 C1069 0.930 . S
H1057 C1073 0.959 . S
H1058 C1073 0.959 . S
H1059 C1073 0.961 . S
H1060 C1074 0.960 1_565 S
H1061 C1074 0.961 . S
H1062 C1074 0.959 . S
H1063 C1077 0.929 . S
H1064 C1078 0.931 . S
H1065 C1080 0.930 . S
C1066 H1054 0.930 . S
C1066 C1067 1.399 . S
C1066 C1071 1.399 . S
C1067 C1066 1.399 . S
C1067 C1068 1.376 . S
C1068 H1055 0.930 . S
C1068 C1067 1.376 . S
C1068 C1069 1.388 . S
C1069 H1056 0.930 . S
C1069 C1068 1.388 . S
C1069 C1070 1.390 . S
C1070 C1069 1.390 . S
C1070 C1071 1.394 . S
C1070 C1076 1.465 . S
C1071 C1066 1.399 . S
C1071 C1070 1.394 . S
C1071 C1072 1.516 . S
C1072 C1071 1.516 . S
C1072 C1073 1.502 . S
C1072 C1074 1.561 . S
C1072 C1075 1.526 . S
C1073 H1057 0.959 . S
C1073 H1058 0.959 . S
C1073 H1059 0.961 . S
C1073 C1072 1.502 . S
C1074 H1060 0.960 1_545 S
C1074 H1061 0.961 . S
C1074 H1062 0.959 . S
C1074 C1072 1.561 . S
C1075 C1072 1.526 . S
C1075 C1076 1.396 . S
C1075 C1080 1.390 . S
C1076 C1070 1.465 . S
C1076 C1075 1.396 . S
C1076 C1077 1.399 . S
C1077 H1063 0.929 . S
C1077 C1076 1.399 . S
C1077 C1078 1.385 . S
C1078 H1064 0.931 . S
C1078 C1077 1.385 . S
C1078 C1079 1.389 . S
C1079 C1078 1.389 . S
C1079 C1080 1.387 . S
C1080 H1065 0.930 . S
C1080 C1075 1.390 . S
C1080 C1079 1.387 . S
H1081 C1093 0.930 . S
H1082 C1095 0.930 . S
H1083 C1096 0.930 . S
H1084 C1100 0.959 . S
H1085 C1100 0.959 . S
H1086 C1100 0.961 . S
H1087 C1101 0.960 . S
H1088 C1101 0.961 . S
H1089 C1101 0.959 . S
H1090 C1104 0.929 . S
H1091 C1105 0.931 . S
H1092 C1107 0.930 . S
C1093 H1081 0.930 . S
C1093 C1094 1.399 . S
C1093 C1098 1.399 . S
C1094 C1093 1.399 . S
C1094 C1095 1.376 . S
C1095 H1082 0.930 . S
C1095 C1094 1.376 . S
C1095 C1096 1.388 . S
C1096 H1083 0.930 . S
C1096 C1095 1.388 . S
C1096 C1097 1.390 . S
C1097 C1096 1.390 . S
C1097 C1098 1.394 . S
C1097 C1103 1.465 . S
C1098 C1093 1.399 . S
C1098 C1097 1.394 . S
C1098 C1099 1.516 . S
C1099 C1098 1.516 . S
C1099 C1100 1.502 . S
C1099 C1101 1.561 . S
C1099 C1102 1.526 . S
C1100 H1084 0.959 . S
C1100 H1085 0.959 . S
C1100 H1086 0.961 . S
C1100 C1099 1.502 . S
C1101 H1087 0.960 . S
C1101 H1088 0.961 . S
C1101 H1089 0.959 . S
C1101 C1099 1.561 . S
C1102 C1099 1.526 . S
C1102 C1103 1.396 . S
C1102 C1107 1.390 . S
C1103 C1097 1.465 . S
C1103 C1102 1.396 . S
C1103 C1104 1.399 . S
C1104 H1090 0.929 . S
C1104 C1103 1.399 . S
C1104 C1105 1.385 . S
C1105 H1091 0.931 . S
C1105 C1104 1.385 . S
C1105 C1106 1.389 . S
C1106 C1105 1.389 . S
C1106 C1107 1.387 . S
C1107 H1092 0.930 . S
C1107 C1102 1.390 . S
C1107 C1106 1.387 . S
H1108 C1120 0.930 . S
H1109 C1122 0.930 . S
H1110 C1123 0.930 . S
H1111 C1127 0.959 . S
H1112 C1127 0.959 . S
H1113 C1127 0.961 1_556 S
H1114 C1128 0.960 . S
H1115 C1128 0.961 . S
H1116 C1128 0.959 . S
H1117 C1131 0.929 . S
H1118 C1132 0.931 . S
H1119 C1134 0.930 . S
C1120 H1108 0.930 . S
C1120 C1121 1.399 . S
C1120 C1125 1.399 . S
C1121 C1120 1.399 . S
C1121 C1122 1.376 . S
C1122 H1109 0.930 . S
C1122 C1121 1.376 . S
C1122 C1123 1.388 . S
C1123 H1110 0.930 . S
C1123 C1122 1.388 . S
C1123 C1124 1.390 . S
C1124 C1123 1.390 . S
C1124 C1125 1.394 . S
C1124 C1130 1.465 1_556 S
C1125 C1120 1.399 . S
C1125 C1124 1.394 . S
C1125 C1126 1.516 1_556 S
C1126 C1125 1.516 1_554 S
C1126 C1127 1.502 . S
C1126 C1128 1.561 1_554 S
C1126 C1129 1.526 . S
C1127 H1111 0.959 . S
C1127 H1112 0.959 . S
C1127 H1113 0.961 1_554 S
C1127 C1126 1.502 . S
C1128 H1114 0.960 . S
C1128 H1115 0.961 . S
C1128 H1116 0.959 . S
C1128 C1126 1.561 1_556 S
C1129 C1126 1.526 . S
C1129 C1130 1.396 . S
C1129 C1134 1.390 . S
C1130 C1124 1.465 1_554 S
C1130 C1129 1.396 . S
C1130 C1131 1.399 . S
C1131 H1117 0.929 . S
C1131 C1130 1.399 . S
C1131 C1132 1.385 . S
C1132 H1118 0.931 . S
C1132 C1131 1.385 . S
C1132 C1133 1.389 . S
C1133 C1132 1.389 . S
C1133 C1134 1.387 . S
C1134 H1119 0.930 . S
C1134 C1129 1.390 . S
C1134 C1133 1.387 . S
H1135 C1147 0.930 . S
H1136 C1149 0.930 . S
H1137 C1150 0.930 . S
H1138 C1154 0.959 . S
H1139 C1154 0.959 . S
H1140 C1154 0.961 . S
H1141 C1155 0.960 1_554 S
H1142 C1155 0.961 . S
H1143 C1155 0.959 1_554 S
H1144 C1158 0.929 . S
H1145 C1159 0.931 . S
H1146 C1161 0.930 . S
C1147 H1135 0.930 . S
C1147 C1148 1.399 . S
C1147 C1152 1.399 . S
C1148 C1147 1.399 . S
C1148 C1149 1.376 . S
C1149 H1136 0.930 . S
C1149 C1148 1.376 . S
C1149 C1150 1.388 . S
C1150 H1137 0.930 . S
C1150 C1149 1.388 . S
C1150 C1151 1.390 . S
C1151 C1150 1.390 . S
C1151 C1152 1.394 . S
C1151 C1157 1.465 1_554 S
C1152 C1147 1.399 . S
C1152 C1151 1.394 . S
C1152 C1153 1.516 1_554 S
C1153 C1152 1.516 1_556 S
C1153 C1154 1.502 . S
C1153 C1155 1.561 . S
C1153 C1156 1.526 . S
C1154 H1138 0.959 . S
C1154 H1139 0.959 . S
C1154 H1140 0.961 . S
C1154 C1153 1.502 . S
C1155 H1141 0.960 1_556 S
C1155 H1142 0.961 . S
C1155 H1143 0.959 1_556 S
C1155 C1153 1.561 . S
C1156 C1153 1.526 . S
C1156 C1157 1.396 . S
C1156 C1161 1.390 . S
C1157 C1151 1.465 1_556 S
C1157 C1156 1.396 . S
C1157 C1158 1.399 . S
C1158 H1144 0.929 . S
C1158 C1157 1.399 . S
C1158 C1159 1.385 . S
C1159 H1145 0.931 . S
C1159 C1158 1.385 . S
C1159 C1160 1.389 . S
C1160 C1159 1.389 . S
C1160 C1161 1.387 . S
C1161 H1146 0.930 . S
C1161 C1156 1.390 . S
C1161 C1160 1.387 . S
H1162 C1174 0.930 . S
H1163 C1176 0.930 . S
H1164 C1177 0.930 . S
H1165 C1181 0.959 . S
H1166 C1181 0.959 . S
H1167 C1181 0.961 . S
H1168 C1182 0.960 . S
H1169 C1182 0.961 1_554 S
H1170 C1182 0.959 . S
H1171 C1185 0.929 . S
H1172 C1186 0.931 . S
H1173 C1188 0.930 . S
C1174 H1162 0.930 . S
C1174 C1175 1.399 . S
C1174 C1179 1.399 . S
C1175 C1174 1.399 . S
C1175 C1176 1.376 . S
C1176 H1163 0.930 . S
C1176 C1175 1.376 . S
C1176 C1177 1.388 . S
C1177 H1164 0.930 . S
C1177 C1176 1.388 . S
C1177 C1178 1.390 . S
C1178 C1177 1.390 . S
C1178 C1179 1.394 . S
C1178 C1184 1.465 1_556 S
C1179 C1174 1.399 . S
C1179 C1178 1.394 . S
C1179 C1180 1.516 1_556 S
C1180 C1179 1.516 1_554 S
C1180 C1181 1.502 . S
C1180 C1182 1.561 1_554 S
C1180 C1183 1.526 . S
C1181 H1165 0.959 . S
C1181 H1166 0.959 . S
C1181 H1167 0.961 . S
C1181 C1180 1.502 . S
C1182 H1168 0.960 . S
C1182 H1169 0.961 1_556 S
C1182 H1170 0.959 . S
C1182 C1180 1.561 1_556 S
C1183 C1180 1.526 . S
C1183 C1184 1.396 . S
C1183 C1188 1.390 . S
C1184 C1178 1.465 1_554 S
C1184 C1183 1.396 . S
C1184 C1185 1.399 . S
C1185 H1171 0.929 . S
C1185 C1184 1.399 . S
C1185 C1186 1.385 . S
C1186 H1172 0.931 . S
C1186 C1185 1.385 . S
C1186 C1187 1.389 . S
C1187 C1186 1.389 . S
C1187 C1188 1.387 . S
C1188 H1173 0.930 . S
C1188 C1183 1.390 . S
C1188 C1187 1.387 . S
H1189 C1201 0.930 . S
H1190 C1203 0.930 . S
H1191 C1204 0.930 . S
H1192 C1208 0.959 . S
H1193 C1208 0.959 1_554 S
H1194 C1208 0.961 . S
H1195 C1209 0.960 . S
H1196 C1209 0.961 . S
H1197 C1209 0.959 . S
H1198 C1212 0.929 . S
H1199 C1213 0.931 . S
H1200 C1215 0.930 . S
C1201 H1189 0.930 . S
C1201 C1202 1.399 . S
C1201 C1206 1.399 . S
C1202 C1201 1.399 . S
C1202 C1203 1.376 . S
C1203 H1190 0.930 . S
C1203 C1202 1.376 . S
C1203 C1204 1.388 . S
C1204 H1191 0.930 . S
C1204 C1203 1.388 . S
C1204 C1205 1.390 . S
C1205 C1204 1.390 . S
C1205 C1206 1.394 . S
C1205 C1211 1.453 1_556 S
C1206 C1201 1.399 . S
C1206 C1205 1.394 . S
C1206 C1207 1.513 1_556 S
C1207 C1206 1.513 1_554 S
C1207 C1208 1.501 1_554 S
C1207 C1209 1.564 . S
C1207 C1210 1.528 . S
C1208 H1192 0.959 . S
C1208 H1193 0.959 1_556 S
C1208 H1194 0.961 . S
C1208 C1207 1.501 1_556 S
C1209 H1195 0.960 . S
C1209 H1196 0.961 . S
C1209 H1197 0.959 . S
C1209 C1207 1.564 . S
C1210 C1207 1.528 . S
C1210 C1211 1.404 . S
C1210 C1215 1.390 . S
C1211 C1205 1.453 1_554 S
C1211 C1210 1.404 . S
C1211 C1212 1.404 . S
C1212 H1198 0.929 . S
C1212 C1211 1.404 . S
C1212 C1213 1.385 . S
C1213 H1199 0.931 . S
C1213 C1212 1.385 . S
C1213 C1214 1.389 . S
C1214 C1213 1.389 . S
C1214 C1215 1.387 . S
C1215 H1200 0.930 . S
C1215 C1210 1.390 . S
C1215 C1214 1.387 . S
H1216 C1228 0.930 . S
H1217 C1230 0.930 . S
H1218 C1231 0.930 . S
H1219 C1235 0.959 . S
H1220 C1235 0.959 . S
H1221 C1235 0.961 . S
H1222 C1236 0.960 . S
H1223 C1236 0.961 . S
H1224 C1236 0.959 . S
H1225 C1239 0.929 . S
H1226 C1240 0.931 . S
H1227 C1242 0.930 . S
C1228 H1216 0.930 . S
C1228 C1229 1.399 . S
C1228 C1233 1.399 . S
C1229 C1228 1.399 . S
C1229 C1230 1.376 . S
C1230 H1217 0.930 . S
C1230 C1229 1.376 . S
C1230 C1231 1.388 . S
C1231 H1218 0.930 . S
C1231 C1230 1.388 . S
C1231 C1232 1.390 . S
C1232 C1231 1.390 . S
C1232 C1233 1.394 . S
C1232 C1238 1.465 . S
C1233 C1228 1.399 . S
C1233 C1232 1.394 . S
C1233 C1234 1.516 . S
C1234 C1233 1.516 . S
C1234 C1235 1.502 . S
C1234 C1236 1.561 . S
C1234 C1237 1.526 . S
C1235 H1219 0.959 . S
C1235 H1220 0.959 . S
C1235 H1221 0.961 . S
C1235 C1234 1.502 . S
C1236 H1222 0.960 . S
C1236 H1223 0.961 . S
C1236 H1224 0.959 . S
C1236 C1234 1.561 . S
C1237 C1234 1.526 . S
C1237 C1238 1.396 . S
C1237 C1242 1.390 . S
C1238 C1232 1.465 . S
C1238 C1237 1.396 . S
C1238 C1239 1.399 . S
C1239 H1225 0.929 . S
C1239 C1238 1.399 . S
C1239 C1240 1.385 . S
C1240 H1226 0.931 . S
C1240 C1239 1.385 . S
C1240 C1241 1.389 . S
C1241 C1240 1.389 . S
C1241 C1242 1.387 . S
C1242 H1227 0.930 . S
C1242 C1237 1.390 . S
C1242 C1241 1.387 . S
H1243 C1255 0.930 . S
H1244 C1257 0.930 . S
H1245 C1258 0.930 . S
H1246 C1262 0.959 . S
H1247 C1262 0.959 . S
H1248 C1262 0.961 . S
H1249 C1263 0.960 . S
H1250 C1263 0.961 . S
H1251 C1263 0.959 . S
H1252 C1266 0.929 . S
H1253 C1267 0.931 . S
H1254 C1269 0.930 . S
C1255 H1243 0.930 . S
C1255 C1256 1.399 . S
C1255 C1260 1.399 . S
C1256 C1255 1.399 . S
C1256 C1257 1.376 . S
C1257 H1244 0.930 . S
C1257 C1256 1.376 . S
C1257 C1258 1.388 . S
C1258 H1245 0.930 . S
C1258 C1257 1.388 . S
C1258 C1259 1.390 . S
C1259 C1258 1.390 . S
C1259 C1260 1.394 . S
C1259 C1265 1.465 . S
C1260 C1255 1.399 . S
C1260 C1259 1.394 . S
C1260 C1261 1.516 . S
C1261 C1260 1.516 . S
C1261 C1262 1.502 . S
C1261 C1263 1.561 . S
C1261 C1264 1.526 . S
C1262 H1246 0.959 . S
C1262 H1247 0.959 . S
C1262 H1248 0.961 . S
C1262 C1261 1.502 . S
C1263 H1249 0.960 . S
C1263 H1250 0.961 . S
C1263 H1251 0.959 . S
C1263 C1261 1.561 . S
C1264 C1261 1.526 . S
C1264 C1265 1.396 . S
C1264 C1269 1.390 . S
C1265 C1259 1.465 . S
C1265 C1264 1.396 . S
C1265 C1266 1.399 . S
C1266 H1252 0.929 . S
C1266 C1265 1.399 . S
C1266 C1267 1.385 . S
C1267 H1253 0.931 . S
C1267 C1266 1.385 . S
C1267 C1268 1.389 . S
C1268 C1267 1.389 . S
C1268 C1269 1.387 . S
C1269 H1254 0.930 . S
C1269 C1264 1.390 . S
C1269 C1268 1.387 . S
H1270 C1282 0.930 . S
H1271 C1284 0.930 . S
H1272 C1285 0.930 . S
H1273 C1289 0.959 . S
H1274 C1289 0.959 . S
H1275 C1289 0.961 . S
H1276 C1290 0.960 . S
H1277 C1290 0.961 . S
H1278 C1290 0.959 . S
H1279 C1293 0.929 . S
H1280 C1294 0.931 . S
H1281 C1296 0.930 . S
C1282 H1270 0.930 . S
C1282 C1283 1.399 . S
C1282 C1287 1.399 . S
C1283 C1282 1.399 . S
C1283 C1284 1.376 . S
C1284 H1271 0.930 . S
C1284 C1283 1.376 . S
C1284 C1285 1.388 . S
C1285 H1272 0.930 . S
C1285 C1284 1.388 . S
C1285 C1286 1.390 . S
C1286 C1285 1.390 . S
C1286 C1287 1.394 . S
C1286 C1292 1.465 . S
C1287 C1282 1.399 . S
C1287 C1286 1.394 . S
C1287 C1288 1.516 . S
C1288 C1287 1.516 . S
C1288 C1289 1.502 . S
C1288 C1290 1.561 . S
C1288 C1291 1.526 . S
C1289 H1273 0.959 . S
C1289 H1274 0.959 . S
C1289 H1275 0.961 . S
C1289 C1288 1.502 . S
C1290 H1276 0.960 . S
C1290 H1277 0.961 . S
C1290 H1278 0.959 . S
C1290 C1288 1.561 . S
C1291 C1288 1.526 . S
C1291 C1292 1.396 . S
C1291 C1296 1.390 . S
C1292 C1286 1.465 . S
C1292 C1291 1.396 . S
C1292 C1293 1.399 . S
C1293 H1279 0.929 . S
C1293 C1292 1.399 . S
C1293 C1294 1.385 . S
C1294 H1280 0.931 . S
C1294 C1293 1.385 . S
C1294 C1295 1.389 . S
C1295 C1294 1.389 . S
C1295 C1296 1.387 . S
C1296 H1281 0.930 . S
C1296 C1291 1.390 . S
C1296 C1295 1.387 . S
H1297 C1309 0.930 . S
H1298 C1311 0.930 . S
H1299 C1312 0.930 . S
H1300 C1316 0.959 . S
H1301 C1316 0.959 . S
H1302 C1316 0.961 . S
H1303 C1317 0.960 . S
H1304 C1317 0.961 . S
H1305 C1317 0.959 . S
H1306 C1320 0.929 . S
H1307 C1321 0.931 . S
H1308 C1323 0.930 . S
C1309 H1297 0.930 . S
C1309 C1310 1.399 . S
C1309 C1314 1.399 . S
C1310 C1309 1.399 . S
C1310 C1311 1.376 . S
C1311 H1298 0.930 . S
C1311 C1310 1.376 . S
C1311 C1312 1.388 . S
C1312 H1299 0.930 . S
C1312 C1311 1.388 . S
C1312 C1313 1.390 . S
C1313 C1312 1.390 . S
C1313 C1314 1.394 . S
C1313 C1319 1.465 . S
C1314 C1309 1.399 . S
C1314 C1313 1.394 . S
C1314 C1315 1.516 . S
C1315 C1314 1.516 . S
C1315 C1316 1.502 . S
C1315 C1317 1.561 . S
C1315 C1318 1.526 . S
C1316 H1300 0.959 . S
C1316 H1301 0.959 . S
C1316 H1302 0.961 . S
C1316 C1315 1.502 . S
C1317 H1303 0.960 . S
C1317 H1304 0.961 . S
C1317 H1305 0.959 . S
C1317 C1315 1.561 . S
C1318 C1315 1.526 . S
C1318 C1319 1.396 . S
C1318 C1323 1.390 . S
C1319 C1313 1.465 . S
C1319 C1318 1.396 . S
C1319 C1320 1.399 . S
C1320 H1306 0.929 . S
C1320 C1319 1.399 . S
C1320 C1321 1.385 . S
C1321 H1307 0.931 . S
C1321 C1320 1.385 . S
C1321 C1322 1.389 . S
C1322 C1321 1.389 . S
C1322 C1323 1.387 . S
C1323 H1308 0.930 . S
C1323 C1318 1.390 . S
C1323 C1322 1.387 . S
H1324 C1336 0.930 . S
H1325 C1338 0.930 . S
H1326 C1339 0.930 . S
H1327 C1343 0.959 . S
H1328 C1343 0.959 . S
H1329 C1343 0.961 . S
H1330 C1344 0.960 . S
H1331 C1344 0.961 . S
H1332 C1344 0.959 . S
H1333 C1347 0.929 . S
H1334 C1348 0.931 . S
H1335 C1350 0.930 . S
C1336 H1324 0.930 . S
C1336 C1337 1.399 . S
C1336 C1341 1.399 . S
C1337 C1336 1.399 . S
C1337 C1338 1.376 . S
C1338 H1325 0.930 . S
C1338 C1337 1.376 . S
C1338 C1339 1.388 . S
C1339 H1326 0.930 . S
C1339 C1338 1.388 . S
C1339 C1340 1.390 . S
C1340 C1339 1.390 . S
C1340 C1341 1.394 . S
C1340 C1346 1.465 . S
C1341 C1336 1.399 . S
C1341 C1340 1.394 . S
C1341 C1342 1.516 . S
C1342 C1341 1.516 . S
C1342 C1343 1.502 . S
C1342 C1344 1.561 . S
C1342 C1345 1.526 . S
C1343 H1327 0.959 . S
C1343 H1328 0.959 . S
C1343 H1329 0.961 . S
C1343 C1342 1.502 . S
C1344 H1330 0.960 . S
C1344 H1331 0.961 . S
C1344 H1332 0.959 . S
C1344 C1342 1.561 . S
C1345 C1342 1.526 . S
C1345 C1346 1.396 . S
C1345 C1350 1.390 . S
C1346 C1340 1.465 . S
C1346 C1345 1.396 . S
C1346 C1347 1.399 . S
C1347 H1333 0.929 . S
C1347 C1346 1.399 . S
C1347 C1348 1.385 . S
C1348 H1334 0.931 . S
C1348 C1347 1.385 . S
C1348 C1349 1.389 . S
C1349 C1348 1.389 . S
C1349 C1350 1.387 . S
C1350 H1335 0.930 . S
C1350 C1345 1.390 . S
C1350 C1349 1.387 . S
H1351 C1363 0.930 . S
H1352 C1365 0.930 . S
H1353 C1366 0.930 . S
H1354 C1370 0.959 . S
H1355 C1370 0.959 . S
H1356 C1370 0.961 . S
H1357 C1371 0.960 . S
H1358 C1371 0.961 . S
H1359 C1371 0.959 . S
H1360 C1374 0.929 . S
H1361 C1375 0.931 . S
H1362 C1377 0.930 . S
C1363 H1351 0.930 . S
C1363 C1364 1.399 . S
C1363 C1368 1.399 . S
C1364 C1363 1.399 . S
C1364 C1365 1.376 . S
C1365 H1352 0.930 . S
C1365 C1364 1.376 . S
C1365 C1366 1.388 . S
C1366 H1353 0.930 . S
C1366 C1365 1.388 . S
C1366 C1367 1.390 . S
C1367 C1366 1.390 . S
C1367 C1368 1.394 . S
C1367 C1373 1.465 . S
C1368 C1363 1.399 . S
C1368 C1367 1.394 . S
C1368 C1369 1.516 . S
C1369 C1368 1.516 . S
C1369 C1370 1.502 . S
C1369 C1371 1.561 . S
C1369 C1372 1.526 . S
C1370 H1354 0.959 . S
C1370 H1355 0.959 . S
C1370 H1356 0.961 . S
C1370 C1369 1.502 . S
C1371 H1357 0.960 . S
C1371 H1358 0.961 . S
C1371 H1359 0.959 . S
C1371 C1369 1.561 . S
C1372 C1369 1.526 . S
C1372 C1373 1.396 . S
C1372 C1377 1.390 . S
C1373 C1367 1.465 . S
C1373 C1372 1.396 . S
C1373 C1374 1.399 . S
C1374 H1360 0.929 . S
C1374 C1373 1.399 . S
C1374 C1375 1.385 . S
C1375 H1361 0.931 . S
C1375 C1374 1.385 . S
C1375 C1376 1.389 . S
C1376 C1375 1.389 . S
C1376 C1377 1.387 . S
C1377 H1362 0.930 . S
C1377 C1372 1.390 . S
C1377 C1376 1.387 . S
H1378 C1390 0.930 . S
H1379 C1392 0.930 . S
H1380 C1393 0.930 . S
H1381 C1397 0.959 . S
H1382 C1397 0.959 1_545 S
H1383 C1397 0.961 . S
H1384 C1398 0.960 . S
H1385 C1398 0.940 1_545 S
H1386 C1398 0.959 . S
H1387 C1401 0.929 . S
H1388 C1402 0.931 . S
H1389 C1404 0.930 . S
C1390 H1378 0.930 . S
C1390 C1391 1.399 . S
C1390 C1395 1.399 . S
C1391 C1390 1.399 . S
C1391 C1392 1.376 . S
C1392 H1379 0.930 . S
C1392 C1391 1.376 . S
C1392 C1393 1.388 . S
C1393 H1380 0.930 . S
C1393 C1392 1.388 . S
C1393 C1394 1.390 . S
C1394 C1393 1.390 . S
C1394 C1395 1.394 . S
C1394 C1400 1.465 . S
C1395 C1390 1.399 . S
C1395 C1394 1.394 . S
C1395 C1396 1.516 . S
C1396 C1395 1.516 . S
C1396 C1397 1.502 . S
C1396 C1398 1.561 . S
C1396 C1399 1.526 . S
C1397 H1381 0.959 . S
C1397 H1382 0.959 1_565 S
C1397 H1383 0.961 . S
C1397 C1396 1.502 . S
C1398 H1384 0.960 . S
C1398 H1385 0.940 1_565 S
C1398 H1386 0.959 . S
C1398 C1396 1.561 . S
C1399 C1396 1.526 . S
C1399 C1400 1.396 . S
C1399 C1404 1.390 . S
C1400 C1394 1.465 . S
C1400 C1399 1.396 . S
C1400 C1401 1.399 . S
C1401 H1387 0.929 . S
C1401 C1400 1.399 . S
C1401 C1402 1.385 . S
C1402 H1388 0.931 . S
C1402 C1401 1.385 . S
C1402 C1403 1.389 . S
C1403 C1402 1.389 . S
C1403 C1404 1.387 . S
C1404 H1389 0.930 . S
C1404 C1399 1.390 . S
C1404 C1403 1.387 . S
H1405 C1417 0.930 . S
H1406 C1419 0.930 . S
H1407 C1420 0.930 . S
H1408 C1424 0.959 . S
H1409 C1424 0.959 . S
H1410 C1424 0.961 . S
H1411 C1425 0.960 . S
H1412 C1425 0.961 . S
H1413 C1425 0.959 . S
H1414 C1428 0.929 . S
H1415 C1429 0.931 . S
H1416 C1431 0.930 . S
C1417 H1405 0.930 . S
C1417 C1418 1.399 . S
C1417 C1422 1.399 . S
C1418 C1417 1.399 . S
C1418 C1419 1.376 . S
C1419 H1406 0.930 . S
C1419 C1418 1.376 . S
C1419 C1420 1.388 . S
C1420 H1407 0.930 . S
C1420 C1419 1.388 . S
C1420 C1421 1.390 . S
C1421 C1420 1.390 . S
C1421 C1422 1.394 . S
C1421 C1427 1.465 . S
C1422 C1417 1.399 . S
C1422 C1421 1.394 . S
C1422 C1423 1.516 . S
C1423 C1422 1.516 . S
C1423 C1424 1.502 . S
C1423 C1425 1.561 . S
C1423 C1426 1.526 . S
C1424 H1408 0.959 . S
C1424 H1409 0.959 . S
C1424 H1410 0.961 . S
C1424 C1423 1.502 . S
C1425 H1411 0.960 . S
C1425 H1412 0.961 . S
C1425 H1413 0.959 . S
C1425 C1423 1.561 . S
C1426 C1423 1.526 . S
C1426 C1427 1.396 . S
C1426 C1431 1.390 . S
C1427 C1421 1.465 . S
C1427 C1426 1.396 . S
C1427 C1428 1.399 . S
C1428 H1414 0.929 . S
C1428 C1427 1.399 . S
C1428 C1429 1.385 . S
C1429 H1415 0.931 . S
C1429 C1428 1.385 . S
C1429 C1430 1.389 . S
C1430 C1429 1.389 . S
C1430 C1431 1.387 . S
C1431 H1416 0.930 . S
C1431 C1426 1.390 . S
C1431 C1430 1.387 . S
H1432 C1444 0.930 . S
H1433 C1446 0.930 . S
H1434 C1447 0.930 . S
H1435 C1451 0.959 1_545 S
H1436 C1451 0.959 . S
H1437 C1451 0.961 . S
H1438 C1452 0.960 . S
H1439 C1452 0.961 . S
H1440 C1452 0.959 . S
H1441 C1455 0.929 . S
H1442 C1456 0.931 . S
H1443 C1458 0.939 . S
C1444 H1432 0.930 . S
C1444 C1445 1.399 1_556 S
C1444 C1449 1.399 . S
C1445 C1444 1.399 1_554 S
C1445 C1446 1.378 1_565 S
C1446 H1433 0.930 . S
C1446 C1445 1.378 1_545 S
C1446 C1447 1.388 . S
C1447 H1434 0.930 . S
C1447 C1446 1.388 . S
C1447 C1448 1.395 . S
C1448 C1447 1.395 . S
C1448 C1449 1.384 1_544 S
C1448 C1454 1.470 . S
C1449 C1444 1.399 . S
C1449 C1448 1.384 1_566 S
C1449 C1450 1.516 . S
C1450 C1449 1.516 . S
C1450 C1451 1.502 . S
C1450 C1452 1.561 . S
C1450 C1453 1.526 . S
C1451 H1435 0.959 1_565 S
C1451 H1436 0.959 . S
C1451 H1437 0.961 . S
C1451 C1450 1.502 . S
C1452 H1438 0.960 . S
C1452 H1439 0.961 . S
C1452 H1440 0.959 . S
C1452 C1450 1.561 . S
C1453 C1450 1.526 . S
C1453 C1454 1.396 1_566 S
C1453 C1458 1.393 . S
C1454 C1448 1.470 . S
C1454 C1453 1.396 1_544 S
C1454 C1455 1.399 . S
C1455 H1441 0.929 . S
C1455 C1454 1.399 . S
C1455 C1456 1.385 . S
C1456 H1442 0.931 . S
C1456 C1455 1.385 . S
C1456 C1457 1.389 . S
C1457 C1456 1.389 . S
C1457 C1458 1.375 1_544 S
C1458 H1443 0.939 . S
C1458 C1453 1.393 . S
C1458 C1457 1.375 1_566 S
H1459 C1471 0.920 1_655 S
H1460 C1473 0.930 . S
H1461 C1474 0.930 . S
H1462 C1478 0.959 . S
H1463 C1478 0.959 . S
H1464 C1478 0.961 . S
H1465 C1479 0.960 . S
H1466 C1479 0.961 1_655 S
H1467 C1479 0.959 . S
H1468 C1482 0.929 . S
H1469 C1483 0.931 . S
H1470 C1485 0.930 . S
C1471 H1459 0.920 1_455 S
C1471 C1472 1.410 . S
C1471 C1476 1.399 1_455 S
C1472 C1471 1.410 . S
C1472 C1473 1.376 1_556 S
C1473 H1460 0.930 . S
C1473 C1472 1.376 1_554 S
C1473 C1474 1.388 . S
C1474 H1461 0.930 . S
C1474 C1473 1.388 . S
C1474 C1475 1.390 . S
C1475 C1474 1.390 . S
C1475 C1476 1.391 1_454 S
C1475 C1481 1.465 . S
C1476 C1471 1.399 1_655 S
C1476 C1475 1.391 1_656 S
C1476 C1477 1.518 . S
C1477 C1476 1.518 . S
C1477 C1478 1.502 . S
C1477 C1479 1.561 1_655 S
C1477 C1480 1.526 . S
C1478 H1462 0.959 . S
C1478 H1463 0.959 . S
C1478 H1464 0.961 . S
C1478 C1477 1.502 . S
C1479 H1465 0.960 . S
C1479 H1466 0.961 1_455 S
C1479 H1467 0.959 . S
C1479 C1477 1.561 1_455 S
C1480 C1477 1.526 . S
C1480 C1481 1.396 1_656 S
C1480 C1485 1.390 . S
C1481 C1475 1.465 . S
C1481 C1480 1.396 1_454 S
C1481 C1482 1.399 . S
C1482 H1468 0.929 . S
C1482 C1481 1.399 . S
C1482 C1483 1.385 . S
C1483 H1469 0.931 . S
C1483 C1482 1.385 . S
C1483 C1484 1.389 1_454 S
C1484 C1483 1.389 1_656 S
C1484 C1485 1.387 . S
C1485 H1470 0.930 . S
C1485 C1480 1.390 . S
C1485 C1484 1.387 . S
H1486 C1498 0.930 . S
H1487 C1500 0.930 . S
H1488 C1501 0.930 . S
H1489 C1505 0.959 . S
H1490 C1505 0.959 . S
H1491 C1505 0.961 . S
H1492 C1506 0.960 . S
H1493 C1506 0.961 . S
H1494 C1506 0.959 . S
H1495 C1509 0.929 . S
H1496 C1510 0.931 . S
H1497 C1512 0.930 . S
C1498 H1486 0.930 . S
C1498 C1499 1.399 . S
C1498 C1503 1.399 . S
C1499 C1498 1.399 . S
C1499 C1500 1.376 . S
C1500 H1487 0.930 . S
C1500 C1499 1.376 . S
C1500 C1501 1.388 . S
C1501 H1488 0.930 . S
C1501 C1500 1.388 . S
C1501 C1502 1.390 . S
C1502 C1501 1.390 . S
C1502 C1503 1.394 . S
C1502 C1508 1.465 . S
C1503 C1498 1.399 . S
C1503 C1502 1.394 . S
C1503 C1504 1.516 . S
C1504 C1503 1.516 . S
C1504 C1505 1.502 . S
C1504 C1506 1.561 . S
C1504 C1507 1.526 . S
C1505 H1489 0.959 . S
C1505 H1490 0.959 . S
C1505 H1491 0.961 . S
C1505 C1504 1.502 . S
C1506 H1492 0.960 . S
C1506 H1493 0.961 . S
C1506 H1494 0.959 . S
C1506 C1504 1.561 . S
C1507 C1504 1.526 . S
C1507 C1508 1.396 . S
C1507 C1512 1.390 . S
C1508 C1502 1.465 . S
C1508 C1507 1.396 . S
C1508 C1509 1.399 . S
C1509 H1495 0.929 . S
C1509 C1508 1.399 . S
C1509 C1510 1.385 . S
C1510 H1496 0.931 . S
C1510 C1509 1.385 . S
C1510 C1511 1.389 . S
C1511 C1510 1.389 . S
C1511 C1512 1.387 . S
C1512 H1497 0.930 . S
C1512 C1507 1.390 . S
C1512 C1511 1.387 . S
H1513 C1525 0.930 . S
H1514 C1527 0.930 . S
H1515 C1528 0.930 . S
H1516 C1532 0.959 . S
H1517 C1532 0.959 . S
H1518 C1532 0.961 . S
H1519 C1533 0.960 . S
H1520 C1533 0.961 . S
H1521 C1533 0.959 . S
H1522 C1536 0.929 . S
H1523 C1537 0.931 . S
H1524 C1539 0.930 . S
C1525 H1513 0.930 . S
C1525 C1526 1.399 . S
C1525 C1530 1.399 . S
C1526 C1525 1.399 . S
C1526 C1527 1.376 . S
C1527 H1514 0.930 . S
C1527 C1526 1.376 . S
C1527 C1528 1.388 . S
C1528 H1515 0.930 . S
C1528 C1527 1.388 . S
C1528 C1529 1.390 . S
C1529 C1528 1.390 . S
C1529 C1530 1.394 . S
C1529 C1535 1.465 . S
C1530 C1525 1.399 . S
C1530 C1529 1.394 . S
C1530 C1531 1.516 . S
C1531 C1530 1.516 . S
C1531 C1532 1.502 . S
C1531 C1533 1.561 . S
C1531 C1534 1.526 . S
C1532 H1516 0.959 . S
C1532 H1517 0.959 . S
C1532 H1518 0.961 . S
C1532 C1531 1.502 . S
C1533 H1519 0.960 . S
C1533 H1520 0.961 . S
C1533 H1521 0.959 . S
C1533 C1531 1.561 . S
C1534 C1531 1.526 . S
C1534 C1535 1.396 . S
C1534 C1539 1.390 . S
C1535 C1529 1.465 . S
C1535 C1534 1.396 . S
C1535 C1536 1.399 . S
C1536 H1522 0.929 . S
C1536 C1535 1.399 . S
C1536 C1537 1.385 . S
C1537 H1523 0.931 . S
C1537 C1536 1.385 . S
C1537 C1538 1.389 . S
C1538 C1537 1.389 . S
C1538 C1539 1.387 . S
C1539 H1524 0.930 . S
C1539 C1534 1.390 . S
C1539 C1538 1.387 . S
H1540 C1552 0.930 . S
H1541 C1554 0.930 . S
H1542 C1555 0.930 . S
H1543 C1559 0.959 . S
H1544 C1559 0.959 1_655 S
H1545 C1559 0.961 . S
H1546 C1560 0.960 . S
H1547 C1560 0.961 1_655 S
H1548 C1560 0.959 1_655 S
H1549 C1563 0.929 . S
H1550 C1564 0.931 . S
H1551 C1566 0.930 . S
C1552 H1540 0.930 . S
C1552 C1553 1.399 . S
C1552 C1557 1.399 . S
C1553 C1552 1.399 . S
C1553 C1554 1.376 . S
C1554 H1541 0.930 . S
C1554 C1553 1.376 . S
C1554 C1555 1.388 . S
C1555 H1542 0.930 . S
C1555 C1554 1.388 . S
C1555 C1556 1.390 . S
C1556 C1555 1.390 . S
C1556 C1557 1.394 . S
C1556 C1562 1.465 1_455 S
C1557 C1552 1.399 . S
C1557 C1556 1.394 . S
C1557 C1558 1.516 . S
C1558 C1557 1.516 . S
C1558 C1559 1.502 . S
C1558 C1560 1.561 . S
C1558 C1561 1.526 1_455 S
C1559 H1543 0.959 . S
C1559 H1544 0.959 1_455 S
C1559 H1545 0.961 . S
C1559 C1558 1.502 . S
C1560 H1546 0.960 . S
C1560 H1547 0.961 1_455 S
C1560 H1548 0.959 1_455 S
C1560 C1558 1.561 . S
C1561 C1558 1.526 1_655 S
C1561 C1562 1.396 . S
C1561 C1566 1.390 . S
C1562 C1556 1.465 1_655 S
C1562 C1561 1.396 . S
C1562 C1563 1.399 . S
C1563 H1549 0.929 . S
C1563 C1562 1.399 . S
C1563 C1564 1.385 . S
C1564 H1550 0.931 . S
C1564 C1563 1.385 . S
C1564 C1565 1.389 . S
C1565 C1564 1.389 . S
C1565 C1566 1.387 . S
C1566 H1551 0.930 . S
C1566 C1561 1.390 . S
C1566 C1565 1.387 . S
H1567 C1579 0.930 . S
H1568 C1581 0.930 . S
H1569 C1582 0.930 . S
H1570 C1586 0.959 . S
H1571 C1586 0.959 . S
H1572 C1586 0.961 1_545 S
H1573 C1587 0.960 . S
H1574 C1587 0.961 1_565 S
H1575 C1587 0.959 . S
H1576 C1590 0.929 . S
H1577 C1591 0.931 . S
H1578 C1593 0.930 . S
C1579 H1567 0.930 . S
C1579 C1580 1.399 . S
C1579 C1584 1.399 . S
C1580 C1579 1.399 . S
C1580 C1581 1.376 . S
C1581 H1568 0.930 . S
C1581 C1580 1.376 . S
C1581 C1582 1.388 . S
C1582 H1569 0.930 . S
C1582 C1581 1.388 . S
C1582 C1583 1.390 . S
C1583 C1582 1.390 . S
C1583 C1584 1.394 . S
C1583 C1589 1.465 1_545 S
C1584 C1579 1.399 . S
C1584 C1583 1.394 . S
C1584 C1585 1.498 1_545 S
C1585 C1584 1.498 1_565 S
C1585 C1586 1.505 . S
C1585 C1587 1.559 1_565 S
C1585 C1588 1.543 . S
C1586 H1570 0.959 . S
C1586 H1571 0.959 . S
C1586 H1572 0.961 1_565 S
C1586 C1585 1.505 . S
C1587 H1573 0.960 . S
C1587 H1574 0.961 1_545 S
C1587 H1575 0.959 . S
C1587 C1585 1.559 1_545 S
C1588 C1585 1.543 . S
C1588 C1589 1.396 . S
C1588 C1593 1.390 . S
C1589 C1583 1.465 1_565 S
C1589 C1588 1.396 . S
C1589 C1590 1.399 . S
C1590 H1576 0.929 . S
C1590 C1589 1.399 . S
C1590 C1591 1.385 . S
C1591 H1577 0.931 . S
C1591 C1590 1.385 . S
C1591 C1592 1.389 . S
C1592 C1591 1.389 . S
C1592 C1593 1.387 . S
C1593 H1578 0.930 . S
C1593 C1588 1.390 . S
C1593 C1592 1.387 . S
H1594 C1606 0.930 . S
H1595 C1608 0.930 . S
H1596 C1609 0.930 . S
H1597 C1613 0.959 . S
H1598 C1613 0.959 1_655 S
H1599 C1613 0.961 . S
H1600 C1614 0.960 1_455 S
H1601 C1614 0.961 . S
H1602 C1614 0.959 . S
H1603 C1617 0.929 . S
H1604 C1618 0.931 . S
H1605 C1620 0.930 . S
C1606 H1594 0.930 . S
C1606 C1607 1.399 . S
C1606 C1611 1.399 . S
C1607 C1606 1.399 . S
C1607 C1608 1.376 . S
C1608 H1595 0.930 . S
C1608 C1607 1.376 . S
C1608 C1609 1.388 . S
C1609 H1596 0.930 . S
C1609 C1608 1.388 . S
C1609 C1610 1.390 . S
C1610 C1609 1.390 . S
C1610 C1611 1.394 . S
C1610 C1616 1.465 1_455 S
C1611 C1606 1.399 . S
C1611 C1610 1.394 . S
C1611 C1612 1.519 1_545 S
C1612 C1611 1.519 1_565 S
C1612 C1613 1.502 . S
C1612 C1614 1.561 1_465 S
C1612 C1615 1.523 1_455 S
C1613 H1597 0.959 . S
C1613 H1598 0.959 1_455 S
C1613 H1599 0.961 . S
C1613 C1612 1.502 . S
C1614 H1600 0.960 1_655 S
C1614 H1601 0.961 . S
C1614 H1602 0.959 . S
C1614 C1612 1.561 1_645 S
C1615 C1612 1.523 1_655 S
C1615 C1616 1.396 1_565 S
C1615 C1620 1.390 . S
C1616 C1610 1.465 1_655 S
C1616 C1615 1.396 1_545 S
C1616 C1617 1.399 . S
C1617 H1603 0.929 . S
C1617 C1616 1.399 . S
C1617 C1618 1.385 1_545 S
C1618 H1604 0.931 . S
C1618 C1617 1.385 1_565 S
C1618 C1619 1.389 . S
C1619 C1618 1.389 . S
C1619 C1620 1.387 . S
C1620 H1605 0.930 . S
C1620 C1615 1.390 . S
C1620 C1619 1.387 . S
H1621 C1633 0.930 1_455 S
H1622 C1635 0.930 . S
H1623 C1636 0.930 . S
H1624 C1640 0.959 . S
H1625 C1640 0.959 1_565 S
H1626 C1640 0.961 . S
H1627 C1641 0.960 1_545 S
H1628 C1641 0.961 . S
H1629 C1641 0.959 . S
H1630 C1644 0.929 . S
H1631 C1645 0.933 . S
H1632 C1647 0.930 . S
C1633 H1621 0.930 1_655 S
C1633 C1634 1.399 . S
C1633 C1638 1.399 . S
C1634 C1633 1.399 . S
C1634 C1635 1.376 . S
C1635 H1622 0.930 . S
C1635 C1634 1.376 . S
C1635 C1636 1.388 . S
C1636 H1623 0.930 . S
C1636 C1635 1.388 . S
C1636 C1637 1.390 . S
C1637 C1636 1.390 . S
C1637 C1638 1.394 . S
C1637 C1643 1.465 1_545 S
C1638 C1633 1.399 . S
C1638 C1637 1.394 . S
C1638 C1639 1.516 1_655 S
C1639 C1638 1.516 1_455 S
C1639 C1640 1.502 . S
C1639 C1641 1.561 1_445 S
C1639 C1642 1.526 1_545 S
C1640 H1624 0.959 . S
C1640 H1625 0.959 1_545 S
C1640 H1626 0.961 . S
C1640 C1639 1.502 . S
C1641 H1627 0.960 1_565 S
C1641 H1628 0.961 . S
C1641 H1629 0.959 . S
C1641 C1639 1.561 1_665 S
C1642 C1639 1.526 1_565 S
C1642 C1643 1.396 1_455 S
C1642 C1647 1.390 . S
C1643 C1637 1.465 1_565 S
C1643 C1642 1.396 1_655 S
C1643 C1644 1.399 . S
C1644 H1630 0.929 . S
C1644 C1643 1.399 . S
C1644 C1645 1.391 . S
C1645 H1631 0.933 . S
C1645 C1644 1.391 . S
C1645 C1646 1.381 1_655 S
C1646 C1645 1.381 1_455 S
C1646 C1647 1.387 . S
C1647 H1632 0.930 . S
C1647 C1642 1.390 . S
C1647 C1646 1.387 . S
C365 C348 1.730 . S
C377 C18 1.767 1_565 S
C392 C274 1.622 . S
C404 C40 1.712 1_655 S
C419 C62 1.819 1_545 S
C431 C294 1.723 . S
C446 C84 1.743 1_455 S
C458 C318 1.704 . S
C473 C98 1.729 . S
C485 C30 1.636 . S
C500 C118 1.721 . S
C512 C54 1.685 . S
C527 C142 1.794 . S
C539 C74 1.742 . S
C554 C10 1.666 . S
C566 C162 1.713 . S
C581 C184 1.801 . S
C593 C164 1.742 . S
C608 C216 1.717 . S
C620 C96 1.609 . S
C635 C238 1.816 . S
C647 C120 1.702 . S
C662 C260 1.714 . S
C674 C140 1.614 . S
C689 C282 1.806 1_545 S
C701 C206 1.741 . S
C716 C230 1.605 . S
C728 C304 1.720 1_455 S
C743 C250 1.741 . S
C755 C326 1.788 1_565 S
C770 C194 1.667 . S
C782 C340 1.713 1_655 S
C797 C106 1.040 . S
C809 C8 1.005 . S
C824 C32 1.057 . S
C836 C128 1.089 . S
C851 C150 1.057 . S
C863 C52 1.091 . S
C878 C76 0.992 . S
C890 C172 0.982 . S
C905 C272 1.011 . S
C917 C186 0.995 . S
C932 C296 0.988 . S
C944 C208 0.985 . S
C959 C316 1.019 . S
C971 C228 0.996 . S
C986 C338 1.007 . S
C998 C252 0.977 . S
C1013 C7 0.981 . S
C1025 C257 1.048 . S
C1040 C191 1.031 . S
C1052 C29 1.046 . S
C1067 C51 1.073 . S
C1079 C213 1.005 . S
C1094 C73 1.028 . S
C1106 C241 1.057 . S
C1121 C117 1.081 . S
C1133 C103 0.978 . S
C1148 C139 1.019 . S
C1160 C131 1.065 . S
C1175 C161 1.080 . S
C1187 C147 0.974 . S
C1202 C175 0.982 . S
C1214 C95 1.083 . S
C1229 C197 1.075 . S
C1241 C81 1.006 . S
C1256 C21 1.023 . S
C1268 C205 1.073 . S
C1283 C37 1.075 . S
C1295 C227 0.969 . S
C1310 C65 1.044 . S
C1322 C249 1.027 . S
C1337 C301 1.075 . S
C1349 C271 1.013 . S
C1364 C293 1.008 . S
C1376 C329 1.070 . S
C1391 C351 1.023 . S
C1403 C315 1.078 . S
C1418 C345 1.063 . S
C1430 C285 1.021 . S
C1445 C59 0.314 . S
C1457 C15 0.296 . S
C1472 C43 0.313 . S
C1484 C87 0.418 . S
C1499 C109 0.278 . S
C1511 C153 0.340 . S
C1526 C169 0.411 . S
C1538 C125 0.263 . S
C1553 C235 0.270 . S
C1565 C183 0.370 . S
C1580 C219 0.372 . S
C1592 C263 0.294 . S
C1607 C323 0.281 . S
C1619 C279 0.334 . S
C1634 C307 0.326 . S
C1646 C337 0.412 . S
