# Generated by pormake.
# Topology ume, (4)-cn, num edge types: 1
# Building blocks:
#     Node 0, Type 0, BuildingBlock: QUQFOY_clean_sbu_1, # of connection points: 4
#     Node 1, Type 0, BuildingBlock: QUQFOY_clean_sbu_1, # of connection points: 4
#     Node 2, Type 0, BuildingBlock: QUQFOY_clean_sbu_1, # of connection points: 4
#     Node 3, Type 0, BuildingBlock: QUQFOY_clean_sbu_1, # of connection points: 4
#     Node 4, Type 0, BuildingBlock: QUQFOY_clean_sbu_1, # of connection points: 4
#     Node 5, Type 0, BuildingBlock: QUQFOY_clean_sbu_1, # of connection points: 4
#     Node 6, Type 0, BuildingBlock: QUQFOY_clean_sbu_1, # of connection points: 4
#     Node 7, Type 0, BuildingBlock: QUQFOY_clean_sbu_1, # of connection points: 4
#     Node 8, Type 0, BuildingBlock: QUQFOY_clean_sbu_1, # of connection points: 4
#     Node 9, Type 0, BuildingBlock: QUQFOY_clean_sbu_1, # of connection points: 4
#     Node 10, Type 0, BuildingBlock: QUQFOY_clean_sbu_1, # of connection points: 4
#     Node 11, Type 0, BuildingBlock: QUQFOY_clean_sbu_1, # of connection points: 4
#     Node 12, Type 0, BuildingBlock: QUQFOY_clean_sbu_1, # of connection points: 4
#     Node 13, Type 0, BuildingBlock: QUQFOY_clean_sbu_1, # of connection points: 4
#     Node 14, Type 0, BuildingBlock: QUQFOY_clean_sbu_1, # of connection points: 4
#     Node 15, Type 0, BuildingBlock: QUQFOY_clean_sbu_1, # of connection points: 4
#     Edge 16, Type (0, 0), BuildingBlock: CIFDUS_clean_linker_0, # of connection points: 2
#     Edge 17, Type (0, 0), BuildingBlock: CIFDUS_clean_linker_0, # of connection points: 2
#     Edge 18, Type (0, 0), BuildingBlock: CIFDUS_clean_linker_0, # of connection points: 2
#     Edge 19, Type (0, 0), BuildingBlock: CIFDUS_clean_linker_0, # of connection points: 2
#     Edge 20, Type (0, 0), BuildingBlock: CIFDUS_clean_linker_0, # of connection points: 2
#     Edge 21, Type (0, 0), BuildingBlock: CIFDUS_clean_linker_0, # of connection points: 2
#     Edge 22, Type (0, 0), BuildingBlock: CIFDUS_clean_linker_0, # of connection points: 2
#     Edge 23, Type (0, 0), BuildingBlock: CIFDUS_clean_linker_0, # of connection points: 2
#     Edge 24, Type (0, 0), BuildingBlock: CIFDUS_clean_linker_0, # of connection points: 2
#     Edge 25, Type (0, 0), BuildingBlock: CIFDUS_clean_linker_0, # of connection points: 2
#     Edge 26, Type (0, 0), BuildingBlock: CIFDUS_clean_linker_0, # of connection points: 2
#     Edge 27, Type (0, 0), BuildingBlock: CIFDUS_clean_linker_0, # of connection points: 2
#     Edge 28, Type (0, 0), BuildingBlock: CIFDUS_clean_linker_0, # of connection points: 2
#     Edge 29, Type (0, 0), BuildingBlock: CIFDUS_clean_linker_0, # of connection points: 2
#     Edge 30, Type (0, 0), BuildingBlock: CIFDUS_clean_linker_0, # of connection points: 2
#     Edge 31, Type (0, 0), BuildingBlock: CIFDUS_clean_linker_0, # of connection points: 2
#     Edge 32, Type (0, 0), BuildingBlock: CIFDUS_clean_linker_0, # of connection points: 2
#     Edge 33, Type (0, 0), BuildingBlock: CIFDUS_clean_linker_0, # of connection points: 2
#     Edge 34, Type (0, 0), BuildingBlock: CIFDUS_clean_linker_0, # of connection points: 2
#     Edge 35, Type (0, 0), BuildingBlock: CIFDUS_clean_linker_0, # of connection points: 2
#     Edge 36, Type (0, 0), BuildingBlock: CIFDUS_clean_linker_0, # of connection points: 2
#     Edge 37, Type (0, 0), BuildingBlock: CIFDUS_clean_linker_0, # of connection points: 2
#     Edge 38, Type (0, 0), BuildingBlock: CIFDUS_clean_linker_0, # of connection points: 2
#     Edge 39, Type (0, 0), BuildingBlock: CIFDUS_clean_linker_0, # of connection points: 2
#     Edge 40, Type (0, 0), BuildingBlock: CIFDUS_clean_linker_0, # of connection points: 2
#     Edge 41, Type (0, 0), BuildingBlock: CIFDUS_clean_linker_0, # of connection points: 2
#     Edge 42, Type (0, 0), BuildingBlock: CIFDUS_clean_linker_0, # of connection points: 2
#     Edge 43, Type (0, 0), BuildingBlock: CIFDUS_clean_linker_0, # of connection points: 2
#     Edge 44, Type (0, 0), BuildingBlock: CIFDUS_clean_linker_0, # of connection points: 2
#     Edge 45, Type (0, 0), BuildingBlock: CIFDUS_clean_linker_0, # of connection points: 2
#     Edge 46, Type (0, 0), BuildingBlock: CIFDUS_clean_linker_0, # of connection points: 2
#     Edge 47, Type (0, 0), BuildingBlock: CIFDUS_clean_linker_0, # of connection points: 2
# Relax obj value: 0.054
# Max RMSD: 0.122
# Mean RMSD: 0.122
data_MOF--net-ume--node1-QUQFOY_clean_sbu_1--edge1-CIFDUS_clean_linker_0
_symmetry_space_group_name_H-M    P1
_symmetry_Int_Tables_number       1
_symmetry_cell_setting            triclinic
loop_
_symmetry_equiv_pos_as_xyz
'x, y, z'
_cell_length_a     25.139352
_cell_length_b     25.236781
_cell_length_c     99.384539
_cell_angle_alpha  90.595221
_cell_angle_beta   89.914339
_cell_angle_gamma 89.867605
loop_
_atom_site_label
_atom_site_type_symbol
_atom_site_fract_x
_atom_site_fract_y
_atom_site_fract_z
_atom_type_partial_charge
O0 O 0.2572 0.09458 0.3525 0.0
Cd1 Cd 0.24914 0.06512 0.33318 0.0
Cd2 Cd 0.29299 0.15784 0.32813 0.0
O3 O 0.27059 0.17871 0.34768 0.0
O4 O 0.19825 1.00424 0.33418 0.0
O5 O 0.18016 0.07872 0.3236 0.0
C6 C 0.1651 0.03243 0.32741 0.0
C7 C 0.26383 0.19432 0.30802 0.0
C8 C 0.26258 0.14257 0.35629 0.0
C9 C 0.3608 0.06199 0.32369 0.0
O10 O 0.36066 0.11162 0.32609 0.0
O11 O 0.31771 0.03585 0.32439 0.0
O12 O 0.2989 0.21843 0.31535 0.0
O13 O 0.24249 0.15188 0.31274 0.0
O14 O 0.9236 0.75527 0.59872 0.0
Cd15 Cd 0.94838 0.75119 0.57898 0.0
Cd16 Cd 0.85416 0.8002 0.57646 0.0
O17 O 0.83931 0.77757 0.5962 0.0
O18 O 1.01012 0.70051 0.57889 0.0
O19 O 0.93368 0.68317 0.56888 0.0
C20 C 0.98071 0.6678 0.57221 0.0
C21 C 0.81609 0.7692 0.55659 0.0
C22 C 0.87781 0.76403 0.60376 0.0
C23 C 0.95098 0.8648 0.57099 0.0
O24 O 0.90181 0.86583 0.57403 0.0
O25 O 0.97644 0.82112 0.57092 0.0
O26 O 0.79205 0.80484 0.56383 0.0
O27 O 0.85906 0.74851 0.56132 0.0
O28 O 0.26706 0.43376 0.84922 0.0
Cd29 Cd 0.26944 0.44936 0.82898 0.0
Cd30 Cd 0.21515 0.35764 0.82924 0.0
O31 O 0.2406 0.35047 0.84909 0.0
O32 O 0.32693 0.50427 0.82701 0.0
O33 O 0.33458 0.42231 0.81929 0.0
C34 C 0.35597 0.46795 0.82145 0.0
C35 C 0.23881 0.30818 0.81027 0.0
C36 C 0.25755 0.39107 0.85548 0.0
C37 C 0.15422 0.45483 0.82174 0.0
O38 O 0.15173 0.40768 0.82609 0.0
O39 O 0.19911 0.47789 0.82065 0.0
O40 O 0.20352 0.29059 0.81859 0.0
O41 O 0.26344 0.35127 0.81346 0.0
O42 O 0.59817 0.76628 0.10054 0.0
Cd43 Cd 0.5694 0.77259 0.08122 0.0
Cd44 Cd 0.6626 0.72758 0.07636 0.0
O45 O 0.68273 0.75129 0.09584 0.0
O46 O 0.50845 0.82391 0.08229 0.0
O47 O 0.58359 0.84108 0.07164 0.0
C48 C 0.53725 0.85674 0.07562 0.0
C49 C 0.70046 0.75499 0.05619 0.0
C50 C 0.64607 0.76069 0.1044 0.0
C51 C 0.56617 0.66018 0.07233 0.0
O52 O 0.61596 0.66044 0.07461 0.0
O53 O 0.53989 0.70333 0.07282 0.0
O54 O 0.72389 0.72002 0.06355 0.0
O55 O 0.65777 0.77704 0.06088 0.0
O56 O 0.25494 0.42117 0.94024 0.0
Cd57 Cd 0.25169 0.44817 0.95986 0.0
Cd58 Cd 0.28507 0.34883 0.96331 0.0
O59 O 0.25801 0.33498 0.94381 0.0
O60 O 0.20091 0.51067 0.96032 0.0
O61 O 0.18218 0.43361 0.96941 0.0
C62 C 0.1669 0.4807 0.96632 0.0
C63 C 0.25651 0.31219 0.98346 0.0
C64 C 0.25404 0.37374 0.93575 0.0
C65 C 0.36558 0.43506 0.96766 0.0
O66 O 0.35742 0.38646 0.96486 0.0
O67 O 0.32653 0.4676 0.96796 0.0
O68 O 0.28768 0.28576 0.97548 0.0
O69 O 0.23837 0.35707 0.97936 0.0
O70 O 0.59807 0.7566 0.1917 0.0
Cd71 Cd 0.58525 0.75798 0.21216 0.0
Cd72 Cd 0.67707 0.81265 0.21019 0.0
O73 O 0.68137 0.78356 0.19052 0.0
O74 O 0.5314 0.70037 0.2155 0.0
O75 O 0.61491 0.69554 0.22218 0.0
C76 C 0.56914 0.67318 0.2209 0.0
C77 C 0.72985 0.79427 0.22876 0.0
C78 C 0.6398 0.76531 0.18481 0.0
C79 C 0.58023 0.87418 0.21838 0.0
O80 O 0.62683 0.87594 0.21341 0.0
O81 O 0.55739 0.82967 0.22015 0.0
O82 O 0.74558 0.82786 0.21985 0.0
O83 O 0.68691 0.76797 0.22632 0.0
O84 O 0.2797 0.09049 0.4425 0.0
Cd85 Cd 0.27552 0.07008 0.46246 0.0
Cd86 Cd 0.22315 0.16479 0.46235 0.0
O87 O 0.2509 0.17321 0.44272 0.0
O88 O 0.32478 1.0077 0.46393 0.0
O89 O 0.34053 0.08501 0.4737 0.0
C90 C 0.35608 0.0375 0.47091 0.0
C91 C 0.25218 0.20511 0.48217 0.0
C92 C 0.27051 0.13357 0.43638 0.0
C93 C 0.15863 0.06878 0.46844 0.0
O94 O 0.1577 0.11692 0.46477 0.0
O95 O 0.20262 0.04402 0.46941 0.0
O96 O 0.2176 0.22858 0.47464 0.0
O97 O 0.27298 0.16155 0.47774 0.0
O98 O 0.95307 0.77341 0.68992 0.0
Cd99 Cd 0.97095 0.78119 0.71002 0.0
Cd100 Cd 0.87671 0.72832 0.71076 0.0
O101 O 0.86843 0.75024 0.69069 0.0
O102 O 0.0262 0.83935 0.71146 0.0
O103 O 0.94418 0.84774 0.71908 0.0
C104 C 0.98983 0.8689 0.71686 0.0
C105 C 0.83171 0.75794 0.72991 0.0
C106 C 0.90944 0.76336 0.68394 0.0
C107 C 0.97465 0.66751 0.71828 0.0
O108 O 0.92675 0.66523 0.71419 0.0
O109 O 0.99869 0.71197 0.71897 0.0
O110 O 0.81109 0.7214 0.72233 0.0
O111 O 0.87499 0.77993 0.72587 0.0
O112 O 0.7561 0.60318 0.84914 0.0
Cd113 Cd 0.74672 0.57836 0.82951 0.0
Cd114 Cd 0.79773 0.67057 0.82595 0.0
O115 O 0.77512 0.68747 0.84576 0.0
O116 O 0.68782 0.5239 0.82906 0.0
O117 O 0.68044 0.60354 0.82028 0.0
C118 C 0.65884 0.55881 0.8231 0.0
C119 C 0.77077 0.70969 0.80594 0.0
C120 C 0.76456 0.64967 0.85374 0.0
C121 C 0.85972 0.57132 0.82062 0.0
O122 O 0.86193 0.62036 0.82367 0.0
O123 O 0.81514 0.54728 0.82062 0.0
O124 O 0.80658 0.73213 0.81339 0.0
O125 O 0.74782 0.66796 0.81051 0.0
O126 O 0.42979 0.26054 0.10266 0.0
Cd127 Cd 0.45614 0.25225 0.0831 0.0
Cd128 Cd 0.36214 0.29721 0.07904 0.0
O129 O 0.34477 0.27604 0.09874 0.0
O130 O 0.51708 0.20076 0.08354 0.0
O131 O 0.44052 0.18317 0.07359 0.0
C132 C 0.48739 0.16767 0.07706 0.0
C133 C 0.32135 0.26696 0.05942 0.0
C134 C 0.38249 0.26708 0.10695 0.0
C135 C 0.45818 0.3637 0.07384 0.0
O136 O 0.40869 0.36389 0.07655 0.0
O137 O 0.48449 0.3206 0.07431 0.0
O138 O 0.29908 0.30316 0.06683 0.0
O139 O 0.3646 0.24546 0.06378 0.0
O140 O 0.76181 0.92478 0.3508 0.0
Cd141 Cd 0.76971 0.95018 0.33127 0.0
Cd142 Cd 0.72621 0.8579 0.32693 0.0
O143 O 0.7496 0.83984 0.34644 0.0
O144 O 0.82111 1.01042 0.33188 0.0
O145 O 0.83862 0.93379 0.32178 0.0
C146 C 0.85416 0.98052 0.32539 0.0
C147 C 0.75012 0.81354 0.30716 0.0
C148 C 0.75721 0.87739 0.35486 0.0
C149 C 0.65819 0.95322 0.32234 0.0
O150 O 0.6585 0.90408 0.32506 0.0
O151 O 0.70143 0.97924 0.32254 0.0
O152 O 0.71569 0.79369 0.31535 0.0
O153 O 0.77402 0.85665 0.31079 0.0
O154 O 0.07992 0.27299 0.59892 0.0
Cd155 Cd 0.06026 0.27486 0.57885 0.0
Cd156 Cd 0.15563 0.22558 0.57814 0.0
O157 O 0.16477 0.25061 0.59807 0.0
O158 O 0.998 0.32483 0.57786 0.0
O159 O 0.07654 0.34241 0.56904 0.0
C160 C 0.02869 0.35753 0.57171 0.0
C161 C 0.19637 0.25606 0.55866 0.0
C162 C 0.12404 0.26503 0.60484 0.0
C163 C 0.06053 0.16017 0.57116 0.0
O164 O 0.10866 0.15968 0.5751 0.0
O165 O 0.03509 0.20376 0.57045 0.0
O166 O 0.21992 0.22126 0.56607 0.0
O167 O 0.15239 0.27625 0.56304 0.0
O168 O 0.74278 0.93674 0.44146 0.0
Cd169 Cd 0.74627 0.95674 0.46157 0.0
Cd170 Cd 0.79861 0.86174 0.46089 0.0
O171 O 0.77172 0.85405 0.44117 0.0
O172 O 0.69696 0.0191 0.46344 0.0
O173 O 0.68109 0.94158 0.47268 0.0
C174 C 0.66561 0.98918 0.47024 0.0
C175 C 0.76798 0.8205 0.48021 0.0
C176 C 0.75233 0.89381 0.43506 0.0
C177 C 0.86295 0.9576 0.46781 0.0
O178 O 0.86397 0.90948 0.46387 0.0
O179 O 0.81897 0.98247 0.46879 0.0
O180 O 0.80324 0.7974 0.47265 0.0
O181 O 0.74767 0.86436 0.47607 0.0
O182 O 0.11536 0.26518 0.69011 0.0
Cd183 Cd 0.0948 0.25925 0.71008 0.0
Cd184 Cd 0.18688 0.31028 0.71216 0.0
O185 O 0.20028 0.28527 0.69236 0.0
O186 O 0.04091 0.20037 0.71126 0.0
O187 O 0.12228 0.19449 0.71945 0.0
C188 C 0.07724 0.1722 0.71695 0.0
C189 C 0.23297 0.28907 0.7317 0.0
C190 C 0.16092 0.27293 0.6849 0.0
C191 C 0.08847 0.37281 0.71829 0.0
O192 O 0.13696 0.37456 0.71464 0.0
O193 O 0.06443 0.32841 0.7188 0.0
O194 O 0.25192 0.32342 0.72341 0.0
O195 O 0.19055 0.2638 0.72821 0.0
O196 O 0.77031 0.578 0.93944 0.0
Cd197 Cd 0.76842 0.55786 0.95947 0.0
Cd198 Cd 0.73127 0.65889 0.96021 0.0
O199 O 0.75954 0.66482 0.94057 0.0
O200 O 0.81802 0.49472 0.9611 0.0
O201 O 0.83705 0.57377 0.96935 0.0
C202 C 0.85204 0.52584 0.96683 0.0
C203 C 0.7605 0.69951 0.97997 0.0
C204 C 0.76929 0.62291 0.93373 0.0
C205 C 0.65244 0.573 0.9661 0.0
O206 O 0.65996 0.62046 0.96238 0.0
O207 O 0.69193 0.54124 0.96715 0.0
O208 O 0.72937 0.72463 0.97186 0.0
O209 O 0.77825 0.65377 0.97616 0.0
O210 O 0.44355 0.28545 0.19345 0.0
Cd211 Cd 0.46217 0.28545 0.2136 0.0
Cd212 Cd 0.36861 0.23028 0.21308 0.0
O213 O 0.36063 0.25674 0.1934 0.0
O214 O 0.51783 0.34261 0.21583 0.0
O215 O 0.43681 0.34913 0.22421 0.0
C216 C 0.48228 0.37077 0.22198 0.0
C217 C 0.32198 0.25503 0.23238 0.0
C218 C 0.40066 0.27532 0.18715 0.0
C219 C 0.46741 0.16932 0.21981 0.0
O220 O 0.41939 0.16733 0.21582 0.0
O221 O 0.49112 0.21382 0.22099 0.0
O222 O 0.30274 0.21947 0.22428 0.0
O223 O 0.36487 0.27901 0.22879 0.0
H224 H 0.94243 0.91904 0.32373 0.0
H225 H 0.88952 0.08157 0.32253 0.0
H226 H 0.98182 0.11175 0.32153 0.0
H227 H 0.0774 0.09228 0.32299 0.0
H228 H 0.13013 0.9303 0.32655 0.0
H229 H 0.03829 0.89941 0.32455 0.0
C230 C 0.9512 0.96098 0.32301 0.0
C231 C 0.9094 0.99807 0.32315 0.0
C232 C 1.00436 0.9781 0.32298 0.0
C233 C 0.92117 0.05234 0.32245 0.0
C234 C 0.97388 0.0696 0.3219 0.0
C235 C 0.0688 0.05019 0.32313 0.0
C236 C 0.11038 0.01358 0.3249 0.0
C237 C 0.0158 0.0329 0.32246 0.0
C238 C 0.09869 0.95921 0.32524 0.0
C239 C 0.04622 0.94155 0.3241 0.0
H240 H 0.91895 0.58129 0.56823 0.0
H241 H 0.08266 0.63122 0.57062 0.0
H242 H 0.11214 0.53896 0.56892 0.0
H243 H 0.09102 0.44401 0.56896 0.0
H244 H 0.92709 0.39397 0.56893 0.0
H245 H 0.89792 0.48627 0.56736 0.0
C246 C 0.96109 0.57198 0.56814 0.0
C247 C 0.99862 0.61291 0.56953 0.0
C248 C 0.97761 0.51879 0.56768 0.0
C249 C 0.05306 0.60032 0.5696 0.0
C250 C 0.0699 0.5476 0.56864 0.0
C251 C 0.04894 0.45329 0.56836 0.0
C252 C 1.01122 0.41233 0.56903 0.0
C253 C 0.0325 0.50647 0.568 0.0
C254 C 0.95683 0.4249 0.56845 0.0
C255 C 0.94016 0.47763 0.56759 0.0
H256 H 0.60658 0.46454 0.82064 0.0
H257 H 0.58222 0.63376 0.82007 0.0
H258 H 0.48622 0.62094 0.8186 0.0
H259 H 0.40861 0.56174 0.81934 0.0
H260 H 0.43283 0.39246 0.81866 0.0
H261 H 0.52907 0.40517 0.81855 0.0
C262 C 0.58022 0.49852 0.82005 0.0
C263 C 0.60146 0.54998 0.82062 0.0
C264 C 0.52492 0.49089 0.819 0.0
C265 C 0.56691 0.59368 0.81967 0.0
C266 C 0.51193 0.58643 0.81887 0.0
C267 C 0.43498 0.52767 0.81897 0.0
C268 C 0.41355 0.47628 0.81913 0.0
C269 C 0.4904 0.53524 0.8188 0.0
C270 C 0.44823 0.4325 0.81852 0.0
C271 C 0.50336 0.4397 0.81854 0.0
H272 H 0.4257 0.08045 0.07396 0.0
H273 H 0.58928 0.13139 0.07495 0.0
H274 H 0.61917 0.03929 0.07301 0.0
H275 H 0.59876 0.944 0.07288 0.0
H276 H 0.43527 0.89301 0.07425 0.0
H277 H 0.40527 0.98519 0.0733 0.0
C278 C 0.46787 0.07137 0.07354 0.0
C279 C 0.50527 0.11258 0.07455 0.0
C280 C 0.48472 0.01825 0.07293 0.0
C281 C 0.55978 0.10028 0.07421 0.0
C282 C 0.57686 0.04765 0.07312 0.0
C283 C 0.55657 0.95311 0.07275 0.0
C284 C 0.51923 0.91185 0.07357 0.0
C285 C 0.5397 1.00626 0.07273 0.0
C286 C 0.46471 0.92416 0.07363 0.0
C287 C 0.44757 0.97684 0.07311 0.0
H288 H 0.07951 0.41848 0.96963 0.0
H289 H 0.12806 0.58197 0.96747 0.0
H290 H 0.03506 0.61038 0.96889 0.0
H291 H 0.93953 0.58861 0.96906 0.0
H292 H 0.89077 0.4249 0.96913 0.0
H293 H 0.98391 0.39678 0.97032 0.0
C294 C 0.0698 0.46038 0.96967 0.0
C295 C 0.11087 0.49807 0.96851 0.0
C296 C 0.016 0.47636 0.97004 0.0
C297 C 0.09738 0.55214 0.96836 0.0
C298 C 0.04413 0.5684 0.96915 0.0
C299 C 0.94922 0.54678 0.96956 0.0
C300 C 0.90807 0.50891 0.96909 0.0
C301 C 1.00303 0.53086 0.96977 0.0
C302 C 0.92153 0.45487 0.9695 0.0
C303 C 0.97485 0.43877 0.97015 0.0
H304 H 0.57654 0.42409 0.22362 0.0
H305 H 0.40667 0.44611 0.22658 0.0
H306 H 0.4184 0.54201 0.22752 0.0
H307 H 0.47635 0.62001 0.22513 0.0
H308 H 0.64644 0.59819 0.22328 0.0
H309 H 0.63523 0.50228 0.22445 0.0
C310 C 0.54219 0.44988 0.22469 0.0
C311 C 0.49081 0.42791 0.22487 0.0
C312 C 0.5492 0.5052 0.22534 0.0
C313 C 0.4467 0.46187 0.22641 0.0
C314 C 0.45332 0.51684 0.22687 0.0
C315 C 0.51096 0.59427 0.22521 0.0
C316 C 0.56208 0.61624 0.22397 0.0
C317 C 0.50428 0.53901 0.22598 0.0
C318 C 0.6066 0.58239 0.22422 0.0
C319 C 0.60023 0.52743 0.22481 0.0
H320 H 0.44229 0.09923 0.47514 0.0
H321 H 0.39181 0.93606 0.47355 0.0
H322 H 0.48431 0.90666 0.47532 0.0
H323 H 0.57953 0.92751 0.47446 0.0
H324 H 0.62995 0.09067 0.47343 0.0
H325 H 0.53756 0.12008 0.47571 0.0
C326 C 0.4515 0.05724 0.47548 0.0
C327 C 0.41045 0.0198 0.47421 0.0
C328 C 0.50482 0.04074 0.4759 0.0
C329 C 0.42287 0.96555 0.47447 0.0
C330 C 0.47571 0.94877 0.47545 0.0
C331 C 0.57035 0.9695 0.47503 0.0
C332 C 0.61135 1.00692 0.47377 0.0
C333 C 0.51706 0.98601 0.47574 0.0
C334 C 0.59894 0.06118 0.47433 0.0
C335 C 0.54616 0.07797 0.4756 0.0
H336 H 0.98369 0.1186 0.71917 0.0
H337 H 0.15389 0.09678 0.71977 0.0
H338 H 0.14239 1.00078 0.72046 0.0
H339 H 0.08385 0.9225 0.71903 0.0
H340 H 0.91365 0.94476 0.71968 0.0
H341 H 0.92527 0.04064 0.72048 0.0
C342 C 0.01821 0.09282 0.71962 0.0
C343 C 0.06952 0.11482 0.71928 0.0
C344 C 1.01134 0.03756 0.72016 0.0
C345 C 0.1139 0.08092 0.72003 0.0
C346 C 0.10739 0.02593 0.72035 0.0
C347 C 0.04938 0.94837 0.71951 0.0
C348 C 0.99801 0.92645 0.71916 0.0
C349 C 0.0563 1.00372 0.72014 0.0
C350 C 0.95369 0.9605 0.71993 0.0
C351 C 0.96025 0.01545 0.72033 0.0
H352 H 0.55945 0.90972 0.32031 0.0
H353 H 0.64163 0.05974 0.31964 0.0
H354 H 0.55669 0.10655 0.31896 0.0
H355 H 0.45921 0.10523 0.3205 0.0
H356 H 0.37715 0.95516 0.32135 0.0
H357 H 0.46191 0.90825 0.3199 0.0
C358 C 0.55887 0.95264 0.31987 0.0
C359 C 0.60696 0.98109 0.32018 0.0
C360 C 0.50985 0.97942 0.31959 0.0
C361 C 0.60532 0.03672 0.31948 0.0
C362 C 0.5567 0.06362 0.31913 0.0
C363 C 0.45976 0.06226 0.32023 0.0
C364 C 0.41179 0.03387 0.32119 0.0
C365 C 0.50872 0.03542 0.31949 0.0
C366 C 0.41337 0.97815 0.3207 0.0
C367 C 0.46189 0.9512 0.3199 0.0
H368 H 0.90808 0.96287 0.56751 0.0
H369 H 0.05841 0.88018 0.56933 0.0
H370 H 0.10575 0.96436 0.56843 0.0
H371 H 0.10431 0.0616 0.56917 0.0
H372 H 0.95398 0.14433 0.56737 0.0
H373 H 0.907 0.05994 0.56607 0.0
C374 C 0.95122 0.96317 0.56757 0.0
C375 C 0.97956 0.91522 0.56866 0.0
C376 C 0.97827 1.01177 0.56712 0.0
C377 C 0.03549 0.91641 0.56856 0.0
C378 C 0.06266 0.9646 0.56809 0.0
C379 C 0.06129 0.06126 0.56835 0.0
C380 C 0.03275 0.10933 0.56854 0.0
C381 C 0.03443 1.01256 0.56769 0.0
C382 C 0.97704 0.10802 0.5673 0.0
C383 C 0.95006 0.05972 0.56661 0.0
H384 H 0.0546 0.41385 0.81941 0.0
H385 H 0.14086 0.56141 0.81797 0.0
H386 H 0.05709 0.61021 0.81635 0.0
H387 H 0.9594 0.61145 0.81738 0.0
H388 H 0.87328 0.46379 0.8189 0.0
H389 H 0.95704 0.41465 0.8183 0.0
C390 C 0.05519 0.45667 0.81861 0.0
C391 C 0.10406 0.48391 0.81898 0.0
C392 C 1.00687 0.48452 0.81775 0.0
C393 C 0.10395 0.53936 0.81775 0.0
C394 C 0.056 0.56735 0.81688 0.0
C395 C 0.95883 0.56848 0.81743 0.0
C396 C 0.90997 0.54145 0.81834 0.0
C397 C 1.00721 0.54042 0.81718 0.0
C398 C 0.91016 0.48573 0.81824 0.0
C399 C 0.95811 0.45755 0.81796 0.0
H400 H 0.60992 0.56158 0.06993 0.0
H401 H 0.45893 0.64354 0.07031 0.0
H402 H 0.41223 0.5589 0.06977 0.0
H403 H 0.41413 0.46181 0.07109 0.0
H404 H 0.56514 0.37989 0.07091 0.0
H405 H 0.61171 0.46432 0.06935 0.0
C406 C 0.56679 0.56104 0.06975 0.0
C407 C 0.53809 0.60902 0.0703 0.0
C408 C 0.54007 0.51217 0.06956 0.0
C409 C 0.48217 0.60736 0.06995 0.0
C410 C 0.45535 0.5589 0.06969 0.0
C411 C 0.45722 0.4623 0.07058 0.0
C412 C 0.486 0.41444 0.07126 0.0
C413 C 0.48388 0.51107 0.06979 0.0
C414 C 0.54185 0.41599 0.07046 0.0
C415 C 0.56861 0.46434 0.06961 0.0
H416 H 0.40351 0.53696 0.96919 0.0
H417 H 0.45437 0.3736 0.97029 0.0
H418 H 0.54708 0.40124 0.97085 0.0
H419 H 0.61479 0.47159 0.96935 0.0
H420 H 0.56364 0.63484 0.96795 0.0
H421 H 0.47109 0.60745 0.96929 0.0
C422 C 0.4348 0.50741 0.96974 0.0
C423 C 0.42154 0.45324 0.96959 0.0
C424 C 0.48854 0.52352 0.96991 0.0
C425 C 0.463 0.41563 0.97028 0.0
C426 C 0.51631 0.43136 0.97059 0.0
C427 C 0.58347 0.50121 0.96951 0.0
C428 C 0.59661 0.55521 0.96843 0.0
C429 C 0.52972 0.48518 0.97015 0.0
C430 C 0.55511 0.59291 0.96865 0.0
C431 C 0.50188 0.57732 0.96941 0.0
H432 H 0.62266 0.97288 0.22077 0.0
H433 H 0.47325 0.88913 0.2221 0.0
H434 H 0.42535 0.97338 0.22372 0.0
H435 H 0.4256 0.0707 0.22277 0.0
H436 H 0.57508 0.15438 0.22158 0.0
H437 H 0.62322 0.07019 0.22205 0.0
C438 C 0.57962 0.97296 0.22154 0.0
C439 C 0.55158 0.92466 0.22115 0.0
C440 C 0.55232 0.02155 0.22244 0.0
C441 C 0.49587 0.92561 0.22235 0.0
C442 C 0.46842 0.97382 0.22322 0.0
C443 C 0.46874 0.07062 0.22275 0.0
C444 C 0.49664 0.11891 0.22198 0.0
C445 C 0.49618 0.02203 0.22296 0.0
C446 C 0.55254 0.11795 0.22215 0.0
C447 C 0.58012 0.06975 0.22234 0.0
H448 H 0.96195 0.91497 0.47022 0.0
H449 H 0.87777 0.06432 0.47074 0.0
H450 H 0.96201 0.11191 0.47196 0.0
H451 H 0.05955 0.11129 0.47099 0.0
H452 H 0.14375 0.96197 0.4706 0.0
H453 H 0.05947 0.91433 0.47136 0.0
C454 C 0.96197 0.95793 0.47073 0.0
C455 C 0.91359 0.98599 0.47022 0.0
C456 C 1.01057 0.98512 0.47139 0.0
C457 C 0.91437 0.04165 0.47106 0.0
C458 C 0.96257 0.06896 0.47171 0.0
C459 C 0.05952 0.06833 0.47119 0.0
C460 C 0.10792 0.04029 0.47057 0.0
C461 C 1.01091 0.04112 0.47158 0.0
C462 C 0.10713 0.98462 0.47102 0.0
C463 C 0.05891 0.95728 0.4714 0.0
H464 H 0.13015 0.47171 0.72144 0.0
H465 H 0.98087 0.3875 0.72066 0.0
H466 H 0.93251 0.47151 0.72179 0.0
H467 H 0.93263 0.56876 0.72089 0.0
H468 H 0.08188 0.65303 0.72159 0.0
H469 H 0.1301 0.56904 0.72276 0.0
C470 C 0.08701 0.47161 0.72166 0.0
C471 C 0.05925 0.42321 0.7208 0.0
C472 C 0.05941 0.52012 0.72223 0.0
C473 C 1.00335 0.424 0.72127 0.0
C474 C 0.97562 0.47211 0.72186 0.0
C475 C 0.97571 0.56889 0.72145 0.0
C476 C 1.00354 0.61729 0.72099 0.0
C477 C 1.00324 0.52041 0.72202 0.0
C478 C 0.05935 0.61653 0.72189 0.0
C479 C 0.08701 0.56843 0.7225 0.0
H480 H 0.30669 0.082 0.37512 0.0
H481 H 0.22281 0.22945 0.37013 0.0
H482 H 0.22052 0.24249 0.39472 0.0
H483 H 0.23751 0.20758 0.41777 0.0
H484 H 0.32512 0.06091 0.42164 0.0
H485 H 0.33132 0.05248 0.39741 0.0
C486 C 0.288 0.11713 0.37941 0.0
C487 C 0.26413 0.15423 0.3709 0.0
C488 C 0.28757 0.1245 0.39338 0.0
C489 C 0.24119 0.20019 0.37653 0.0
C490 C 0.23982 0.20752 0.39057 0.0
C491 C 0.2586 0.17427 0.4133 0.0
C492 C 0.28001 0.13454 0.42161 0.0
C493 C 0.26222 0.1694 0.39914 0.0
C494 C 0.30749 0.09177 0.41559 0.0
C495 C 0.31111 0.08674 0.40168 0.0
H496 H 0.95681 0.75816 0.62188 0.0
H497 H 0.78578 0.76656 0.61916 0.0
H498 H 0.77941 0.76624 0.64385 0.0
H499 H 0.82387 0.76477 0.66638 0.0
H500 H 0.99574 0.76062 0.66778 0.0
H501 H 0.99998 0.75819 0.64348 0.0
C502 C 0.91788 0.75958 0.6266 0.0
C503 C 0.87184 0.76199 0.61863 0.0
C504 C 0.91469 0.76046 0.64065 0.0
C505 C 0.82194 0.76449 0.62504 0.0
C506 C 0.81832 0.76439 0.63916 0.0
C507 C 0.86212 0.7634 0.66133 0.0
C508 C 0.90936 0.76312 0.66899 0.0
C509 C 0.86459 0.76263 0.64711 0.0
C510 C 0.95864 0.76142 0.66225 0.0
C511 C 0.96126 0.75979 0.6483 0.0
H512 H 0.22958 0.31408 0.8738 0.0
H513 H 0.30105 0.46919 0.8707 0.0
H514 H 0.30595 0.47642 0.89495 0.0
H515 H 0.28728 0.44176 0.91703 0.0
H516 H 0.21907 0.2863 0.92131 0.0
H517 H 0.21572 0.27616 0.89667 0.0
C518 C 0.24663 0.34917 0.87845 0.0
C519 C 0.26433 0.39121 0.87033 0.0
C520 C 0.24958 0.35333 0.89262 0.0
C521 C 0.28655 0.43632 0.87658 0.0
C522 C 0.28942 0.44067 0.89051 0.0
C523 C 0.27143 0.4056 0.91261 0.0
C524 C 0.25265 0.36521 0.92098 0.0
C525 C 0.27036 0.39992 0.8986 0.0
C526 C 0.23348 0.31815 0.91507 0.0
C527 C 0.23156 0.31241 0.90099 0.0
H528 H 0.57872 0.73283 0.12397 0.0
H529 H 0.73828 0.78951 0.11766 0.0
H530 H 0.75212 0.79429 0.14215 0.0
H531 H 0.71623 0.78581 0.16548 0.0
H532 H 0.55678 0.72531 0.17068 0.0
H533 H 0.54596 0.71831 0.14655 0.0
C534 C 0.61661 0.74634 0.12793 0.0
C535 C 0.6571 0.76161 0.11904 0.0
C536 C 0.62434 0.74823 0.14186 0.0
C537 C 0.70637 0.7778 0.12432 0.0
C538 C 0.7142 0.78059 0.13831 0.0
C539 C 0.67937 0.77066 0.16132 0.0
C540 C 0.63725 0.75674 0.17 0.0
C541 C 0.67315 0.76637 0.14722 0.0
C542 C 0.58985 0.73686 0.16437 0.0
C543 C 0.58343 0.73281 0.15051 0.0
H544 H 0.79258 0.57686 0.87178 0.0
H545 H 0.74184 0.73954 0.86888 0.0
H546 H 0.74137 0.74744 0.8936 0.0
H547 H 0.75119 0.70533 0.91613 0.0
H548 H 0.80497 0.54267 0.91785 0.0
H549 H 0.80884 0.53793 0.89353 0.0
C550 C 0.78128 0.61416 0.87653 0.0
C551 C 0.76633 0.65725 0.86854 0.0
C552 C 0.78177 0.61842 0.89057 0.0
C553 C 0.75316 0.70565 0.87484 0.0
C554 C 0.75286 0.71009 0.88896 0.0
C555 C 0.76432 0.66914 0.91117 0.0
C556 C 0.77705 0.62423 0.9189 0.0
C557 C 0.76655 0.66641 0.89696 0.0
C558 C 0.79422 0.57771 0.91226 0.0
C559 C 0.79648 0.57481 0.89829 0.0
H560 H 0.32231 0.24871 0.16876 0.0
H561 H 0.47887 0.3183 0.17203 0.0
H562 H 0.48577 0.32217 0.14778 0.0
H563 H 0.45083 0.30186 0.12563 0.0
H564 H 0.29367 0.23629 0.12123 0.0
H565 H 0.28347 0.23497 0.14587 0.0
C566 C 0.35762 0.26521 0.16415 0.0
C567 C 0.40023 0.28249 0.17232 0.0
C568 C 0.36154 0.26766 0.14999 0.0
C569 C 0.44556 0.3041 0.16612 0.0
C570 C 0.44974 0.30635 0.15219 0.0
C571 C 0.41426 0.28721 0.13004 0.0
C572 C 0.37344 0.26835 0.12167 0.0
C573 C 0.40854 0.28739 0.14405 0.0
C574 C 0.3258 0.25074 0.12751 0.0
C575 C 0.32006 0.24993 0.14158 0.0
H576 H 0.71931 0.94329 0.37383 0.0
H577 H 0.79263 0.78994 0.36872 0.0
H578 H 0.79535 0.77926 0.3933 0.0
H579 H 0.78099 0.81698 0.41635 0.0
H580 H 0.70385 0.96966 0.42038 0.0
H581 H 0.69808 0.97667 0.39615 0.0
C582 C 0.73591 0.90744 0.37808 0.0
C583 C 0.75658 0.86788 0.36952 0.0
C584 C 0.73656 0.90143 0.39206 0.0
C585 C 0.77676 0.8211 0.37514 0.0
C586 C 0.77835 0.81509 0.38918 0.0
C587 C 0.76237 0.85141 0.41192 0.0
C588 C 0.74362 0.89302 0.42027 0.0
C589 C 0.75892 0.85542 0.39777 0.0
C590 C 0.71929 0.93722 0.4143 0.0
C591 C 0.71594 0.94145 0.40039 0.0
H592 H 0.08096 0.2789 0.6671 0.0
H593 H 0.25159 0.2634 0.66917 0.0
H594 H 0.25627 0.25987 0.64445 0.0
H595 H 0.2104 0.26017 0.62212 0.0
H596 H 0.03943 0.27954 0.62132 0.0
H597 H 0.03676 0.28265 0.64561 0.0
C598 C 0.11936 0.27446 0.66221 0.0
C599 C 0.16578 0.27079 0.67001 0.0
C600 C 0.12171 0.27333 0.64815 0.0
C601 C 0.21516 0.26608 0.66342 0.0
C602 C 0.2178 0.26406 0.64928 0.0
C603 C 0.17269 0.26529 0.62729 0.0
C604 C 0.12524 0.26948 0.61977 0.0
C605 C 0.17117 0.26755 0.64151 0.0
C606 C 0.07674 0.2763 0.62669 0.0
C607 C 0.07497 0.27796 0.64066 0.0
H608 H 0.30528 0.27885 0.2948 0.0
H609 H 0.20209 0.14396 0.28927 0.0
H610 H 0.20377 0.15646 0.26497 0.0
H611 H 0.24677 0.19625 0.24524 0.0
H612 H 0.35203 0.3295 0.25088 0.0
H613 H 0.33643 0.32765 0.27508 0.0
C614 C 0.28212 0.25293 0.28832 0.0
C615 C 0.25443 0.20995 0.29387 0.0
C616 C 0.28409 0.25967 0.2743 0.0
C617 C 0.22421 0.1771 0.2853 0.0
C618 C 0.22534 0.18404 0.27136 0.0
C619 C 0.26514 0.2258 0.25172 0.0
C620 C 0.30125 0.26233 0.24625 0.0
C621 C 0.25699 0.22378 0.26572 0.0
C622 C 0.32452 0.30049 0.25481 0.0
C623 C 0.31584 0.29934 0.26869 0.0
H624 H 0.81828 0.74222 0.49406 0.0
H625 H 0.69411 0.85988 0.49778 0.0
H626 H 0.69178 0.84768 0.52206 0.0
H627 H 0.73583 0.81535 0.54244 0.0
H628 H 0.86203 0.69982 0.53878 0.0
H629 H 0.85193 0.69874 0.51439 0.0
C630 C 0.78969 0.76412 0.50013 0.0
C631 C 0.75716 0.8026 0.49411 0.0
C632 C 0.78938 0.75786 0.51418 0.0
C633 C 0.72013 0.83043 0.50214 0.0
C634 C 0.7189 0.82368 0.51607 0.0
C635 C 0.76019 0.78889 0.53635 0.0
C636 C 0.80029 0.75852 0.54245 0.0
C637 C 0.75504 0.78931 0.52226 0.0
C638 C 0.83121 0.72414 0.53437 0.0
C639 C 0.82567 0.72365 0.52038 0.0
H640 H 0.19625 0.22615 0.75174 0.0
H641 H 0.31526 0.34411 0.74312 0.0
H642 H 0.33413 0.3538 0.7671 0.0
H643 H 0.30607 0.33993 0.79047 0.0
H644 H 0.18381 0.22529 0.79909 0.0
H645 H 0.17778 0.20252 0.7752 0.0
C646 C 0.22723 0.25308 0.75507 0.0
C647 C 0.25365 0.28501 0.74563 0.0
C648 C 0.23687 0.25954 0.76892 0.0
C649 C 0.29398 0.31934 0.75014 0.0
C650 C 0.3046 0.32515 0.76388 0.0
C651 C 0.27896 0.30904 0.78718 0.0
C652 C 0.24479 0.28501 0.79656 0.0
C653 C 0.27464 0.29717 0.77338 0.0
C654 C 0.2103 0.24475 0.79211 0.0
C655 C 0.20658 0.23191 0.77841 0.0
H656 H 0.70761 0.77804 0.99354 0.0
H657 H 0.83085 0.66036 0.99821 0.0
H658 H 0.82886 0.67348 0.02255 0.0
H659 H 0.78188 0.70722 0.04255 0.0
H660 H 0.6559 0.82204 0.03794 0.0
H661 H 0.66986 0.8218 1.01364 0.0
C662 C 0.73509 0.75635 0.99984 0.0
C663 C 0.76878 0.71774 0.99405 0.0
C664 C 0.7327 0.76299 1.01391 0.0
C665 C 0.80412 0.68999 1.0024 0.0
C666 C 0.80284 0.69726 1.01635 0.0
C667 C 0.75829 0.73314 0.03628 0.0
C668 C 0.71732 0.76391 0.04207 0.0
C669 C 0.76567 0.73191 0.02225 0.0
C670 C 0.6874 0.79752 0.03377 0.0
C671 C 0.69519 0.79727 1.01983 0.0
H672 H 0.23985 0.31468 0.04613 0.0
H673 H 0.36186 0.19535 0.04131 0.0
H674 H 0.34568 0.19214 1.01712 0.0
H675 H 0.30775 0.23406 0.99707 0.0
H676 H 0.18873 0.35634 1.00189 0.0
H677 H 0.19217 0.34674 0.02627 0.0
C678 C 0.26203 0.28702 0.03985 0.0
C679 C 0.30264 0.256 0.04552 0.0
C680 C 0.25346 0.28631 0.02587 0.0
C681 C 0.33072 0.22013 0.03721 0.0
C682 C 0.32166 0.21841 0.02334 0.0
C683 C 0.28149 0.25759 1.00343 0.0
C684 C 0.24867 0.29644 0.99765 0.0
C685 C 0.28475 0.25295 1.01749 0.0
C686 C 0.21482 0.32649 1.00606 0.0
C687 C 0.21693 0.32123 1.02003 0.0
H688 H 0.80853 0.85404 0.28653 0.0
H689 H 0.7034 0.72517 0.29646 0.0
H690 H 0.69529 0.70183 0.27269 0.0
H691 H 0.70583 0.7273 0.24911 0.0
H692 H 0.80786 0.85838 0.23905 0.0
H693 H 0.83028 0.87068 0.26278 0.0
C694 C 0.78488 0.82004 0.28353 0.0
C695 C 0.75587 0.79201 0.29328 0.0
C696 C 0.77935 0.80752 0.26977 0.0
C697 C 0.72572 0.74783 0.28919 0.0
C698 C 0.72086 0.73455 0.27557 0.0
C699 C 0.73401 0.75776 0.25205 0.0
C700 C 0.75439 0.79243 0.24231 0.0
C701 C 0.74562 0.76553 0.26575 0.0
C702 C 0.79128 0.8313 0.24631 0.0
C703 C 0.80383 0.83864 0.25992 0.0
H704 H 0.20178 0.28393 0.49628 0.0
H705 H 0.32288 0.16348 0.49999 0.0
H706 H 0.32259 0.17501 0.52437 0.0
H707 H 0.27703 0.20804 0.5447 0.0
H708 H 0.154 0.32653 0.54099 0.0
H709 H 0.16676 0.32768 0.51668 0.0
C710 C 0.22914 0.26122 0.50238 0.0
C711 C 0.26157 0.22225 0.4963 0.0
C712 C 0.22796 0.26716 0.51648 0.0
C713 C 0.29699 0.19338 0.50439 0.0
C714 C 0.29671 0.19974 0.51837 0.0
C715 C 0.25399 0.23514 0.53863 0.0
C716 C 0.21397 0.2664 0.54467 0.0
C717 C 0.26067 0.23479 0.52456 0.0
C718 C 0.18471 0.30153 0.53662 0.0
C719 C 0.19178 0.30207 0.52267 0.0
H720 H 0.7516 0.70781 0.74328 0.0
H721 H 0.86887 0.83133 0.74785 0.0
H722 H 0.85404 0.83333 0.77208 0.0
H723 H 0.81947 0.78924 0.79221 0.0
H724 H 0.70327 0.66471 0.78767 0.0
H725 H 0.70532 0.67469 0.76332 0.0
C726 C 0.77286 0.73617 0.74953 0.0
C727 C 0.81205 0.76855 0.74376 0.0
C728 C 0.76491 0.73649 0.76355 0.0
C729 C 0.83893 0.80538 0.75202 0.0
C730 C 0.83068 0.80643 0.76592 0.0
C731 C 0.79357 0.76522 0.78593 0.0
C732 C 0.76214 0.72558 0.79178 0.0
C733 C 0.79558 0.77048 0.77185 0.0
C734 C 0.72843 0.69516 0.78346 0.0
C735 C 0.72971 0.70063 0.76949 0.0
loop_
_geom_bond_atom_site_label_1
_geom_bond_atom_site_label_2
_geom_bond_distance
_geom_bond_site_symmetry_2
_ccdc_geom_bond_type
O0 Cd1 2.223 . S
O0 C8 1.315 . S
Cd1 O0 2.223 . S
Cd1 O4 2.297 . S
Cd1 O5 2.439 . S
Cd1 O11 2.240 . S
Cd2 O3 2.240 . S
Cd2 O10 2.223 . S
Cd2 O12 2.297 . S
Cd2 O13 2.439 . S
O3 Cd2 2.240 . S
O3 C8 1.279 . S
O4 Cd1 2.297 . S
O4 C6 1.247 . S
O5 Cd1 2.439 . S
O5 C6 1.208 . S
C6 O4 1.247 . S
C6 O5 1.208 . S
C7 O12 1.247 . S
C7 O13 1.208 . S
C8 O0 1.315 . S
C8 O3 1.279 . S
C9 O10 1.315 . S
C9 O11 1.279 . S
O10 Cd2 2.223 . S
O10 C9 1.315 . S
O11 Cd1 2.240 . S
O11 C9 1.279 . S
O12 Cd2 2.297 . S
O12 C7 1.247 . S
O13 Cd2 2.439 . S
O13 C7 1.208 . S
O14 Cd15 2.223 . S
O14 C22 1.315 . S
Cd15 O14 2.223 . S
Cd15 O18 2.297 . S
Cd15 O19 2.439 . S
Cd15 O25 2.240 . S
Cd16 O17 2.240 . S
Cd16 O24 2.223 . S
Cd16 O26 2.297 . S
Cd16 O27 2.439 . S
O17 Cd16 2.240 . S
O17 C22 1.279 . S
O18 Cd15 2.297 . S
O18 C20 1.247 . S
O19 Cd15 2.439 . S
O19 C20 1.208 . S
C20 O18 1.247 . S
C20 O19 1.208 . S
C21 O26 1.247 . S
C21 O27 1.208 . S
C22 O14 1.315 . S
C22 O17 1.279 . S
C23 O24 1.315 . S
C23 O25 1.279 . S
O24 Cd16 2.223 . S
O24 C23 1.315 . S
O25 Cd15 2.240 . S
O25 C23 1.279 . S
O26 Cd16 2.297 . S
O26 C21 1.247 . S
O27 Cd16 2.439 . S
O27 C21 1.208 . S
O28 Cd29 2.223 . S
O28 C36 1.315 . S
Cd29 O28 2.223 . S
Cd29 O32 2.297 . S
Cd29 O33 2.439 . S
Cd29 O39 2.240 . S
Cd30 O31 2.240 . S
Cd30 O38 2.223 . S
Cd30 O40 2.297 . S
Cd30 O41 2.439 . S
O31 Cd30 2.240 . S
O31 C36 1.279 . S
O32 Cd29 2.297 . S
O32 C34 1.247 . S
O33 Cd29 2.439 . S
O33 C34 1.208 . S
C34 O32 1.247 . S
C34 O33 1.208 . S
C35 O40 1.247 . S
C35 O41 1.208 . S
C36 O28 1.315 . S
C36 O31 1.279 . S
C37 O38 1.315 . S
C37 O39 1.279 . S
O38 Cd30 2.223 . S
O38 C37 1.315 . S
O39 Cd29 2.240 . S
O39 C37 1.279 . S
O40 Cd30 2.297 . S
O40 C35 1.247 . S
O41 Cd30 2.439 . S
O41 C35 1.208 . S
O42 Cd43 2.223 . S
O42 C50 1.315 . S
Cd43 O42 2.223 . S
Cd43 O46 2.297 . S
Cd43 O47 2.439 . S
Cd43 O53 2.240 . S
Cd44 O45 2.240 . S
Cd44 O52 2.223 . S
Cd44 O54 2.297 . S
Cd44 O55 2.439 . S
O45 Cd44 2.240 . S
O45 C50 1.279 . S
O46 Cd43 2.297 . S
O46 C48 1.247 . S
O47 Cd43 2.439 . S
O47 C48 1.208 . S
C48 O46 1.247 . S
C48 O47 1.208 . S
C49 O54 1.247 . S
C49 O55 1.208 . S
C50 O42 1.315 . S
C50 O45 1.279 . S
C51 O52 1.315 . S
C51 O53 1.279 . S
O52 Cd44 2.223 . S
O52 C51 1.315 . S
O53 Cd43 2.240 . S
O53 C51 1.279 . S
O54 Cd44 2.297 . S
O54 C49 1.247 . S
O55 Cd44 2.439 . S
O55 C49 1.208 . S
O56 Cd57 2.223 . S
O56 C64 1.315 . S
Cd57 O56 2.223 . S
Cd57 O60 2.297 . S
Cd57 O61 2.439 . S
Cd57 O67 2.240 . S
Cd58 O59 2.240 . S
Cd58 O66 2.223 . S
Cd58 O68 2.297 . S
Cd58 O69 2.439 . S
O59 Cd58 2.240 . S
O59 C64 1.279 . S
O60 Cd57 2.297 . S
O60 C62 1.247 . S
O61 Cd57 2.439 . S
O61 C62 1.208 . S
C62 O60 1.247 . S
C62 O61 1.208 . S
C63 O68 1.247 . S
C63 O69 1.208 . S
C64 O56 1.315 . S
C64 O59 1.279 . S
C65 O66 1.315 . S
C65 O67 1.279 . S
O66 Cd58 2.223 . S
O66 C65 1.315 . S
O67 Cd57 2.240 . S
O67 C65 1.279 . S
O68 Cd58 2.297 . S
O68 C63 1.247 . S
O69 Cd58 2.439 . S
O69 C63 1.208 . S
O70 Cd71 2.223 . S
O70 C78 1.315 . S
Cd71 O70 2.223 . S
Cd71 O74 2.297 . S
Cd71 O75 2.439 . S
Cd71 O81 2.240 . S
Cd72 O73 2.240 . S
Cd72 O80 2.223 . S
Cd72 O82 2.297 . S
Cd72 O83 2.439 . S
O73 Cd72 2.240 . S
O73 C78 1.279 . S
O74 Cd71 2.297 . S
O74 C76 1.247 . S
O75 Cd71 2.439 . S
O75 C76 1.208 . S
C76 O74 1.247 . S
C76 O75 1.208 . S
C77 O82 1.247 . S
C77 O83 1.208 . S
C78 O70 1.315 . S
C78 O73 1.279 . S
C79 O80 1.315 . S
C79 O81 1.279 . S
O80 Cd72 2.223 . S
O80 C79 1.315 . S
O81 Cd71 2.240 . S
O81 C79 1.279 . S
O82 Cd72 2.297 . S
O82 C77 1.247 . S
O83 Cd72 2.439 . S
O83 C77 1.208 . S
O84 Cd85 2.223 . S
O84 C92 1.315 . S
Cd85 O84 2.223 . S
Cd85 O88 2.297 . S
Cd85 O89 2.439 . S
Cd85 O95 2.240 . S
Cd86 O87 2.240 . S
Cd86 O94 2.223 . S
Cd86 O96 2.297 . S
Cd86 O97 2.439 . S
O87 Cd86 2.240 . S
O87 C92 1.279 . S
O88 Cd85 2.297 . S
O88 C90 1.247 . S
O89 Cd85 2.439 . S
O89 C90 1.208 . S
C90 O88 1.247 . S
C90 O89 1.208 . S
C91 O96 1.247 . S
C91 O97 1.208 . S
C92 O84 1.315 . S
C92 O87 1.279 . S
C93 O94 1.315 . S
C93 O95 1.279 . S
O94 Cd86 2.223 . S
O94 C93 1.315 . S
O95 Cd85 2.240 . S
O95 C93 1.279 . S
O96 Cd86 2.297 . S
O96 C91 1.247 . S
O97 Cd86 2.439 . S
O97 C91 1.208 . S
O98 Cd99 2.223 . S
O98 C106 1.315 . S
Cd99 O98 2.223 . S
Cd99 O102 2.297 . S
Cd99 O103 2.439 . S
Cd99 O109 2.240 . S
Cd100 O101 2.240 . S
Cd100 O108 2.223 . S
Cd100 O110 2.297 . S
Cd100 O111 2.439 . S
O101 Cd100 2.240 . S
O101 C106 1.279 . S
O102 Cd99 2.297 . S
O102 C104 1.247 . S
O103 Cd99 2.439 . S
O103 C104 1.208 . S
C104 O102 1.247 . S
C104 O103 1.208 . S
C105 O110 1.247 . S
C105 O111 1.208 . S
C106 O98 1.315 . S
C106 O101 1.279 . S
C107 O108 1.315 . S
C107 O109 1.279 . S
O108 Cd100 2.223 . S
O108 C107 1.315 . S
O109 Cd99 2.240 . S
O109 C107 1.279 . S
O110 Cd100 2.297 . S
O110 C105 1.247 . S
O111 Cd100 2.439 . S
O111 C105 1.208 . S
O112 Cd113 2.223 . S
O112 C120 1.315 . S
Cd113 O112 2.223 . S
Cd113 O116 2.297 . S
Cd113 O117 2.439 . S
Cd113 O123 2.240 . S
Cd114 O115 2.240 . S
Cd114 O122 2.223 . S
Cd114 O124 2.297 . S
Cd114 O125 2.439 . S
O115 Cd114 2.240 . S
O115 C120 1.279 . S
O116 Cd113 2.297 . S
O116 C118 1.247 . S
O117 Cd113 2.439 . S
O117 C118 1.208 . S
C118 O116 1.247 . S
C118 O117 1.208 . S
C119 O124 1.247 . S
C119 O125 1.208 . S
C120 O112 1.315 . S
C120 O115 1.279 . S
C121 O122 1.315 . S
C121 O123 1.279 . S
O122 Cd114 2.223 . S
O122 C121 1.315 . S
O123 Cd113 2.240 . S
O123 C121 1.279 . S
O124 Cd114 2.297 . S
O124 C119 1.247 . S
O125 Cd114 2.439 . S
O125 C119 1.208 . S
O126 Cd127 2.223 . S
O126 C134 1.315 . S
Cd127 O126 2.223 . S
Cd127 O130 2.297 . S
Cd127 O131 2.439 . S
Cd127 O137 2.240 . S
Cd128 O129 2.240 . S
Cd128 O136 2.223 . S
Cd128 O138 2.297 . S
Cd128 O139 2.439 . S
O129 Cd128 2.240 . S
O129 C134 1.279 . S
O130 Cd127 2.297 . S
O130 C132 1.247 . S
O131 Cd127 2.439 . S
O131 C132 1.208 . S
C132 O130 1.247 . S
C132 O131 1.208 . S
C133 O138 1.247 . S
C133 O139 1.208 . S
C134 O126 1.315 . S
C134 O129 1.279 . S
C135 O136 1.315 . S
C135 O137 1.279 . S
O136 Cd128 2.223 . S
O136 C135 1.315 . S
O137 Cd127 2.240 . S
O137 C135 1.279 . S
O138 Cd128 2.297 . S
O138 C133 1.247 . S
O139 Cd128 2.439 . S
O139 C133 1.208 . S
O140 Cd141 2.223 . S
O140 C148 1.315 . S
Cd141 O140 2.223 . S
Cd141 O144 2.297 . S
Cd141 O145 2.439 . S
Cd141 O151 2.240 . S
Cd142 O143 2.240 . S
Cd142 O150 2.223 . S
Cd142 O152 2.297 . S
Cd142 O153 2.439 . S
O143 Cd142 2.240 . S
O143 C148 1.279 . S
O144 Cd141 2.297 . S
O144 C146 1.247 . S
O145 Cd141 2.439 . S
O145 C146 1.208 . S
C146 O144 1.247 . S
C146 O145 1.208 . S
C147 O152 1.247 . S
C147 O153 1.208 . S
C148 O140 1.315 . S
C148 O143 1.279 . S
C149 O150 1.315 . S
C149 O151 1.279 . S
O150 Cd142 2.223 . S
O150 C149 1.315 . S
O151 Cd141 2.240 . S
O151 C149 1.279 . S
O152 Cd142 2.297 . S
O152 C147 1.247 . S
O153 Cd142 2.439 . S
O153 C147 1.208 . S
O154 Cd155 2.223 . S
O154 C162 1.315 . S
Cd155 O154 2.223 . S
Cd155 O158 2.297 . S
Cd155 O159 2.439 . S
Cd155 O165 2.240 . S
Cd156 O157 2.240 . S
Cd156 O164 2.223 . S
Cd156 O166 2.297 . S
Cd156 O167 2.439 . S
O157 Cd156 2.240 . S
O157 C162 1.279 . S
O158 Cd155 2.297 . S
O158 C160 1.247 . S
O159 Cd155 2.439 . S
O159 C160 1.208 . S
C160 O158 1.247 . S
C160 O159 1.208 . S
C161 O166 1.247 . S
C161 O167 1.208 . S
C162 O154 1.315 . S
C162 O157 1.279 . S
C163 O164 1.315 . S
C163 O165 1.279 . S
O164 Cd156 2.223 . S
O164 C163 1.315 . S
O165 Cd155 2.240 . S
O165 C163 1.279 . S
O166 Cd156 2.297 . S
O166 C161 1.247 . S
O167 Cd156 2.439 . S
O167 C161 1.208 . S
O168 Cd169 2.223 . S
O168 C176 1.315 . S
Cd169 O168 2.223 . S
Cd169 O172 2.297 . S
Cd169 O173 2.439 . S
Cd169 O179 2.240 . S
Cd170 O171 2.240 . S
Cd170 O178 2.223 . S
Cd170 O180 2.297 . S
Cd170 O181 2.439 . S
O171 Cd170 2.240 . S
O171 C176 1.279 . S
O172 Cd169 2.297 . S
O172 C174 1.247 . S
O173 Cd169 2.439 . S
O173 C174 1.208 . S
C174 O172 1.247 . S
C174 O173 1.208 . S
C175 O180 1.247 . S
C175 O181 1.208 . S
C176 O168 1.315 . S
C176 O171 1.279 . S
C177 O178 1.315 . S
C177 O179 1.279 . S
O178 Cd170 2.223 . S
O178 C177 1.315 . S
O179 Cd169 2.240 . S
O179 C177 1.279 . S
O180 Cd170 2.297 . S
O180 C175 1.247 . S
O181 Cd170 2.439 . S
O181 C175 1.208 . S
O182 Cd183 2.223 . S
O182 C190 1.315 . S
Cd183 O182 2.223 . S
Cd183 O186 2.297 . S
Cd183 O187 2.439 . S
Cd183 O193 2.240 . S
Cd184 O185 2.240 . S
Cd184 O192 2.223 . S
Cd184 O194 2.297 . S
Cd184 O195 2.439 . S
O185 Cd184 2.240 . S
O185 C190 1.279 . S
O186 Cd183 2.297 . S
O186 C188 1.247 . S
O187 Cd183 2.439 . S
O187 C188 1.208 . S
C188 O186 1.247 . S
C188 O187 1.208 . S
C189 O194 1.247 . S
C189 O195 1.208 . S
C190 O182 1.315 . S
C190 O185 1.279 . S
C191 O192 1.315 . S
C191 O193 1.279 . S
O192 Cd184 2.223 . S
O192 C191 1.315 . S
O193 Cd183 2.240 . S
O193 C191 1.279 . S
O194 Cd184 2.297 . S
O194 C189 1.247 . S
O195 Cd184 2.439 . S
O195 C189 1.208 . S
O196 Cd197 2.223 . S
O196 C204 1.315 . S
Cd197 O196 2.223 . S
Cd197 O200 2.297 . S
Cd197 O201 2.439 . S
Cd197 O207 2.240 . S
Cd198 O199 2.240 . S
Cd198 O206 2.223 . S
Cd198 O208 2.297 . S
Cd198 O209 2.439 . S
O199 Cd198 2.240 . S
O199 C204 1.279 . S
O200 Cd197 2.297 . S
O200 C202 1.247 . S
O201 Cd197 2.439 . S
O201 C202 1.208 . S
C202 O200 1.247 . S
C202 O201 1.208 . S
C203 O208 1.247 . S
C203 O209 1.208 . S
C204 O196 1.315 . S
C204 O199 1.279 . S
C205 O206 1.315 . S
C205 O207 1.279 . S
O206 Cd198 2.223 . S
O206 C205 1.315 . S
O207 Cd197 2.240 . S
O207 C205 1.279 . S
O208 Cd198 2.297 . S
O208 C203 1.247 . S
O209 Cd198 2.439 . S
O209 C203 1.208 . S
O210 Cd211 2.223 . S
O210 C218 1.315 . S
Cd211 O210 2.223 . S
Cd211 O214 2.297 . S
Cd211 O215 2.439 . S
Cd211 O221 2.240 . S
Cd212 O213 2.240 . S
Cd212 O220 2.223 . S
Cd212 O222 2.297 . S
Cd212 O223 2.439 . S
O213 Cd212 2.240 . S
O213 C218 1.279 . S
O214 Cd211 2.297 . S
O214 C216 1.247 . S
O215 Cd211 2.439 . S
O215 C216 1.208 . S
C216 O214 1.247 . S
C216 O215 1.208 . S
C217 O222 1.247 . S
C217 O223 1.208 . S
C218 O210 1.315 . S
C218 O213 1.279 . S
C219 O220 1.315 . S
C219 O221 1.279 . S
O220 Cd212 2.223 . S
O220 C219 1.315 . S
O221 Cd211 2.240 . S
O221 C219 1.279 . S
O222 Cd212 2.297 . S
O222 C217 1.247 . S
O223 Cd212 2.439 . S
O223 C217 1.208 . S
H224 C230 0.930 . S
H225 C233 0.930 . S
H226 C234 0.930 . S
H227 C235 0.930 . S
H228 C238 0.930 . S
H229 C239 0.930 . S
C230 H224 0.930 . S
C230 C231 1.355 . S
C230 C232 1.415 . S
C231 C230 1.355 . S
C231 C233 1.419 1_565 S
C232 C230 1.415 . S
C232 C237 1.425 1_665 S
C232 C239 1.409 1_655 S
C233 H225 0.930 . S
C233 C231 1.419 1_545 S
C233 C234 1.362 . S
C234 H226 0.930 . S
C234 C233 1.362 . S
C234 C237 1.409 1_655 S
C235 H227 0.930 . S
C235 C236 1.355 . S
C235 C237 1.415 . S
C236 C235 1.355 . S
C236 C238 1.419 1_545 S
C237 C232 1.425 1_445 S
C237 C234 1.409 1_455 S
C237 C235 1.415 . S
C238 H228 0.930 . S
C238 C236 1.419 1_565 S
C238 C239 1.362 . S
C239 H229 0.930 . S
C239 C232 1.409 1_455 S
C239 C238 1.362 . S
H240 C246 0.930 . S
H241 C249 0.930 . S
H242 C250 0.930 . S
H243 C251 0.930 . S
H244 C254 0.930 . S
H245 C255 0.930 . S
C246 H240 0.930 . S
C246 C247 1.355 . S
C246 C248 1.415 . S
C247 C246 1.355 . S
C247 C249 1.419 . S
C248 C246 1.415 . S
C248 C253 1.425 1_655 S
C248 C255 1.409 . S
C249 H241 0.930 . S
C249 C247 1.419 . S
C249 C250 1.362 1_655 S
C250 H242 0.930 . S
C250 C249 1.362 1_455 S
C250 C253 1.409 . S
C251 H243 0.930 . S
C251 C252 1.355 . S
C251 C253 1.415 . S
C252 C251 1.355 . S
C252 C254 1.419 . S
C253 C248 1.425 1_455 S
C253 C250 1.409 . S
C253 C251 1.415 . S
C254 H244 0.930 . S
C254 C252 1.419 . S
C254 C255 1.362 1_455 S
C255 H245 0.930 . S
C255 C248 1.409 . S
C255 C254 1.362 1_655 S
H256 C262 0.930 . S
H257 C265 0.930 . S
H258 C266 0.930 . S
H259 C267 0.930 . S
H260 C270 0.930 . S
H261 C271 0.930 . S
C262 H256 0.930 . S
C262 C263 1.355 . S
C262 C264 1.415 . S
C263 C262 1.355 . S
C263 C265 1.419 . S
C264 C262 1.415 . S
C264 C269 1.425 . S
C264 C271 1.409 . S
C265 H257 0.930 . S
C265 C263 1.419 . S
C265 C266 1.362 . S
C266 H258 0.930 . S
C266 C265 1.362 . S
C266 C269 1.409 . S
C267 H259 0.930 . S
C267 C268 1.355 . S
C267 C269 1.415 . S
C268 C267 1.355 . S
C268 C270 1.419 . S
C269 C264 1.425 . S
C269 C266 1.409 . S
C269 C267 1.415 . S
C270 H260 0.930 . S
C270 C268 1.419 . S
C270 C271 1.362 . S
C271 H261 0.930 . S
C271 C264 1.409 . S
C271 C270 1.362 . S
H272 C278 0.930 . S
H273 C281 0.930 . S
H274 C282 0.930 . S
H275 C283 0.930 . S
H276 C286 0.930 . S
H277 C287 0.930 . S
C278 H272 0.930 . S
C278 C279 1.355 . S
C278 C280 1.414 1_545 S
C279 C278 1.355 . S
C279 C281 1.419 . S
C280 C278 1.414 1_565 S
C280 C285 1.425 1_565 S
C280 C287 1.409 . S
C281 H273 0.930 . S
C281 C279 1.419 . S
C281 C282 1.362 . S
C282 H274 0.930 . S
C282 C281 1.362 . S
C282 C285 1.408 . S
C283 H275 0.930 . S
C283 C284 1.355 . S
C283 C285 1.415 1_565 S
C284 C283 1.355 . S
C284 C286 1.419 . S
C285 C280 1.425 1_545 S
C285 C282 1.408 . S
C285 C283 1.415 1_545 S
C286 H276 0.930 . S
C286 C284 1.419 . S
C286 C287 1.362 . S
C287 H277 0.930 . S
C287 C280 1.409 . S
C287 C286 1.362 . S
H288 C294 0.930 . S
H289 C297 0.930 . S
H290 C298 0.930 . S
H291 C299 0.930 . S
H292 C302 0.930 . S
H293 C303 0.930 . S
C294 H288 0.930 . S
C294 C295 1.355 . S
C294 C296 1.408 1_455 S
C295 C294 1.355 . S
C295 C297 1.419 . S
C296 C294 1.408 1_655 S
C296 C301 1.425 1_655 S
C296 C303 1.416 . S
C297 H289 0.930 . S
C297 C295 1.419 . S
C297 C298 1.362 . S
C298 H290 0.930 . S
C298 C297 1.362 . S
C298 C301 1.417 . S
C299 H291 0.930 . S
C299 C300 1.355 . S
C299 C301 1.407 1_655 S
C300 C299 1.355 . S
C300 C302 1.419 . S
C301 C296 1.425 1_455 S
C301 C298 1.417 . S
C301 C299 1.407 1_455 S
C302 H292 0.930 . S
C302 C300 1.419 . S
C302 C303 1.362 . S
C303 H293 0.930 . S
C303 C296 1.416 . S
C303 C302 1.362 . S
H304 C310 0.930 . S
H305 C313 0.930 . S
H306 C314 0.930 . S
H307 C315 0.930 . S
H308 C318 0.930 . S
H309 C319 0.930 . S
C310 H304 0.930 . S
C310 C311 1.355 . S
C310 C312 1.415 . S
C311 C310 1.355 . S
C311 C313 1.419 . S
C312 C310 1.415 . S
C312 C317 1.425 . S
C312 C319 1.409 . S
C313 H305 0.930 . S
C313 C311 1.419 . S
C313 C314 1.362 . S
C314 H306 0.930 . S
C314 C313 1.362 . S
C314 C317 1.409 . S
C315 H307 0.930 . S
C315 C316 1.355 . S
C315 C317 1.415 . S
C316 C315 1.355 . S
C316 C318 1.419 . S
C317 C312 1.425 . S
C317 C314 1.409 . S
C317 C315 1.415 . S
C318 H308 0.930 . S
C318 C316 1.419 . S
C318 C319 1.362 . S
C319 H309 0.930 . S
C319 C312 1.409 . S
C319 C318 1.362 . S
H320 C326 0.930 . S
H321 C329 0.930 . S
H322 C330 0.930 . S
H323 C331 0.930 . S
H324 C334 0.930 . S
H325 C335 0.930 . S
C326 H320 0.930 . S
C326 C327 1.355 . S
C326 C328 1.415 . S
C327 C326 1.355 . S
C327 C329 1.419 1_545 S
C328 C326 1.415 . S
C328 C333 1.425 1_545 S
C328 C335 1.409 . S
C329 H321 0.930 . S
C329 C327 1.419 1_565 S
C329 C330 1.362 . S
C330 H322 0.930 . S
C330 C329 1.362 . S
C330 C333 1.409 . S
C331 H323 0.930 . S
C331 C332 1.355 . S
C331 C333 1.415 . S
C332 C331 1.355 . S
C332 C334 1.419 1_565 S
C333 C328 1.425 1_565 S
C333 C330 1.409 . S
C333 C331 1.415 . S
C334 H324 0.930 . S
C334 C332 1.419 1_545 S
C334 C335 1.362 . S
C335 H325 0.930 . S
C335 C328 1.409 . S
C335 C334 1.362 . S
H336 C342 0.928 1_655 S
H337 C345 0.930 . S
H338 C346 0.930 1_565 S
H339 C347 0.928 1_455 S
H340 C350 0.930 . S
H341 C351 0.930 1_545 S
C342 H336 0.928 1_455 S
C342 C343 1.355 . S
C342 C344 1.415 1_455 S
C343 C342 1.355 . S
C343 C345 1.419 . S
C344 C342 1.415 1_655 S
C344 C349 1.425 1_645 S
C344 C351 1.409 1_545 S
C345 H337 0.930 . S
C345 C343 1.419 . S
C345 C346 1.362 . S
C346 H338 0.930 1_545 S
C346 C345 1.362 . S
C346 C349 1.409 1_545 S
C347 H339 0.928 1_655 S
C347 C348 1.355 . S
C347 C349 1.415 1_655 S
C348 C347 1.355 . S
C348 C350 1.419 . S
C349 C344 1.425 1_465 S
C349 C346 1.409 1_565 S
C349 C347 1.415 1_455 S
C350 H340 0.930 . S
C350 C348 1.419 . S
C350 C351 1.362 . S
C351 H341 0.930 1_565 S
C351 C344 1.409 1_565 S
C351 C350 1.362 . S
H352 C358 0.930 . S
H353 C361 0.930 . S
H354 C362 0.930 . S
H355 C363 0.930 . S
H356 C366 0.930 . S
H357 C367 0.930 . S
C358 H352 0.930 . S
C358 C359 1.355 . S
C358 C360 1.415 . S
C359 C358 1.355 . S
C359 C361 1.419 . S
C360 C358 1.415 . S
C360 C365 1.425 1_565 S
C360 C367 1.409 . S
C361 H353 0.930 . S
C361 C359 1.419 . S
C361 C362 1.362 1_565 S
C362 H354 0.930 . S
C362 C361 1.362 1_545 S
C362 C365 1.409 . S
C363 H355 0.930 . S
C363 C364 1.355 . S
C363 C365 1.415 . S
C364 C363 1.355 . S
C364 C366 1.419 . S
C365 C360 1.425 1_545 S
C365 C362 1.409 . S
C365 C363 1.415 . S
C366 H356 0.930 . S
C366 C364 1.419 . S
C366 C367 1.362 1_545 S
C367 H357 0.930 . S
C367 C360 1.409 . S
C367 C366 1.362 1_565 S
H368 C374 0.930 . S
H369 C377 0.930 . S
H370 C378 0.930 . S
H371 C379 0.930 . S
H372 C382 0.930 . S
H373 C383 0.930 . S
C374 H368 0.930 . S
C374 C375 1.355 . S
C374 C376 1.415 1_565 S
C375 C374 1.355 . S
C375 C377 1.419 1_655 S
C376 C374 1.415 1_545 S
C376 C381 1.425 1_645 S
C376 C383 1.409 . S
C377 H369 0.930 . S
C377 C375 1.419 1_455 S
C377 C378 1.362 . S
C378 H370 0.930 . S
C378 C377 1.362 . S
C378 C381 1.409 . S
C379 H371 0.930 . S
C379 C380 1.355 . S
C379 C381 1.415 1_545 S
C380 C379 1.355 . S
C380 C382 1.419 1_455 S
C381 C376 1.425 1_465 S
C381 C378 1.409 . S
C381 C379 1.415 1_565 S
C382 H372 0.930 . S
C382 C380 1.419 1_655 S
C382 C383 1.362 . S
C383 H373 0.930 . S
C383 C376 1.409 . S
C383 C382 1.362 . S
H384 C390 0.930 . S
H385 C393 0.930 . S
H386 C394 0.930 . S
H387 C395 0.930 . S
H388 C398 0.930 . S
H389 C399 0.930 . S
C390 H384 0.930 . S
C390 C391 1.355 . S
C390 C392 1.415 1_455 S
C391 C390 1.355 . S
C391 C393 1.419 . S
C392 C390 1.415 1_655 S
C392 C397 1.425 1_655 S
C392 C399 1.409 . S
C393 H385 0.930 . S
C393 C391 1.419 . S
C393 C394 1.362 . S
C394 H386 0.930 . S
C394 C393 1.362 . S
C394 C397 1.409 . S
C395 H387 0.930 . S
C395 C396 1.355 . S
C395 C397 1.415 1_655 S
C396 C395 1.355 . S
C396 C398 1.419 . S
C397 C392 1.425 1_455 S
C397 C394 1.409 . S
C397 C395 1.415 1_455 S
C398 H388 0.930 . S
C398 C396 1.419 . S
C398 C399 1.362 . S
C399 H389 0.930 . S
C399 C392 1.409 . S
C399 C398 1.362 . S
H400 C406 0.930 . S
H401 C409 0.930 . S
H402 C410 0.930 . S
H403 C411 0.930 . S
H404 C414 0.930 . S
H405 C415 0.930 . S
C406 H400 0.930 . S
C406 C407 1.355 . S
C406 C408 1.415 . S
C407 C406 1.355 . S
C407 C409 1.419 . S
C408 C406 1.415 . S
C408 C413 1.425 . S
C408 C415 1.409 . S
C409 H401 0.930 . S
C409 C407 1.419 . S
C409 C410 1.362 . S
C410 H402 0.930 . S
C410 C409 1.362 . S
C410 C413 1.409 . S
C411 H403 0.930 . S
C411 C412 1.355 . S
C411 C413 1.415 . S
C412 C411 1.355 . S
C412 C414 1.419 . S
C413 C408 1.425 . S
C413 C410 1.409 . S
C413 C411 1.415 . S
C414 H404 0.930 . S
C414 C412 1.419 . S
C414 C415 1.362 . S
C415 H405 0.930 . S
C415 C408 1.409 . S
C415 C414 1.362 . S
H416 C422 0.930 . S
H417 C425 0.930 . S
H418 C426 0.930 . S
H419 C427 0.930 . S
H420 C430 0.930 . S
H421 C431 0.930 . S
C422 H416 0.930 . S
C422 C423 1.355 . S
C422 C424 1.415 . S
C423 C422 1.355 . S
C423 C425 1.419 . S
C424 C422 1.415 . S
C424 C429 1.425 . S
C424 C431 1.409 . S
C425 H417 0.930 . S
C425 C423 1.419 . S
C425 C426 1.362 . S
C426 H418 0.930 . S
C426 C425 1.362 . S
C426 C429 1.409 . S
C427 H419 0.930 . S
C427 C428 1.355 . S
C427 C429 1.415 . S
C428 C427 1.355 . S
C428 C430 1.419 . S
C429 C424 1.425 . S
C429 C426 1.409 . S
C429 C427 1.415 . S
C430 H420 0.930 . S
C430 C428 1.419 . S
C430 C431 1.362 . S
C431 H421 0.930 . S
C431 C424 1.409 . S
C431 C430 1.362 . S
H432 C438 0.930 . S
H433 C441 0.930 . S
H434 C442 0.930 . S
H435 C443 0.930 . S
H436 C446 0.930 . S
H437 C447 0.930 . S
C438 H432 0.930 . S
C438 C439 1.355 . S
C438 C440 1.415 1_565 S
C439 C438 1.355 . S
C439 C441 1.419 . S
C440 C438 1.415 1_545 S
C440 C445 1.425 1_545 S
C440 C447 1.409 . S
C441 H433 0.930 . S
C441 C439 1.419 . S
C441 C442 1.362 . S
C442 H434 0.930 . S
C442 C441 1.362 . S
C442 C445 1.409 . S
C443 H435 0.930 . S
C443 C444 1.355 . S
C443 C445 1.415 1_545 S
C444 C443 1.355 . S
C444 C446 1.419 . S
C445 C440 1.425 1_565 S
C445 C442 1.409 . S
C445 C443 1.415 1_565 S
C446 H436 0.930 . S
C446 C444 1.419 . S
C446 C447 1.362 . S
C447 H437 0.930 . S
C447 C440 1.409 . S
C447 C446 1.362 . S
H448 C454 0.930 . S
H449 C457 0.930 . S
H450 C458 0.930 . S
H451 C459 0.930 . S
H452 C462 0.930 . S
H453 C463 0.930 . S
C454 H448 0.930 . S
C454 C455 1.355 . S
C454 C456 1.415 1_655 S
C455 C454 1.355 . S
C455 C457 1.419 1_565 S
C456 C454 1.415 1_455 S
C456 C461 1.425 1_465 S
C456 C463 1.409 . S
C457 H449 0.930 . S
C457 C455 1.419 1_545 S
C457 C458 1.362 . S
C458 H450 0.930 . S
C458 C457 1.362 . S
C458 C461 1.409 . S
C459 H451 0.930 . S
C459 C460 1.355 . S
C459 C461 1.415 1_455 S
C460 C459 1.355 . S
C460 C462 1.419 1_545 S
C461 C456 1.425 1_645 S
C461 C458 1.409 . S
C461 C459 1.415 1_655 S
C462 H452 0.930 . S
C462 C460 1.419 1_565 S
C462 C463 1.362 . S
C463 H453 0.930 . S
C463 C456 1.409 . S
C463 C462 1.362 . S
H464 C470 0.930 . S
H465 C473 0.930 . S
H466 C474 0.930 . S
H467 C475 0.930 . S
H468 C478 0.930 . S
H469 C479 0.930 . S
C470 H464 0.930 . S
C470 C471 1.355 . S
C470 C472 1.415 . S
C471 C470 1.355 . S
C471 C473 1.419 . S
C472 C470 1.415 . S
C472 C477 1.425 1_455 S
C472 C479 1.409 . S
C473 H465 0.930 . S
C473 C471 1.419 . S
C473 C474 1.362 1_455 S
C474 H466 0.930 . S
C474 C473 1.362 1_655 S
C474 C477 1.409 . S
C475 H467 0.930 . S
C475 C476 1.355 . S
C475 C477 1.415 . S
C476 C475 1.355 . S
C476 C478 1.419 . S
C477 C472 1.425 1_655 S
C477 C474 1.409 . S
C477 C475 1.415 . S
C478 H468 0.930 . S
C478 C476 1.419 . S
C478 C479 1.362 1_655 S
C479 H469 0.930 . S
C479 C472 1.409 . S
C479 C478 1.362 1_455 S
H480 C486 0.930 . S
H481 C489 0.930 . S
H482 C490 0.930 . S
H483 C491 0.930 . S
H484 C494 0.930 . S
H485 C495 0.930 . S
C486 H480 0.930 . S
C486 C487 1.355 . S
C486 C488 1.415 . S
C487 C486 1.355 . S
C487 C489 1.419 . S
C488 C486 1.415 . S
C488 C493 1.425 . S
C488 C495 1.409 . S
C489 H481 0.930 . S
C489 C487 1.419 . S
C489 C490 1.362 . S
C490 H482 0.930 . S
C490 C489 1.362 . S
C490 C493 1.409 . S
C491 H483 0.930 . S
C491 C492 1.355 . S
C491 C493 1.415 . S
C492 C491 1.355 . S
C492 C494 1.419 . S
C493 C488 1.425 . S
C493 C490 1.409 . S
C493 C491 1.415 . S
C494 H484 0.930 . S
C494 C492 1.419 . S
C494 C495 1.362 . S
C495 H485 0.930 . S
C495 C488 1.409 . S
C495 C494 1.362 . S
H496 C502 0.930 . S
H497 C505 0.930 . S
H498 C506 0.930 . S
H499 C507 0.930 . S
H500 C510 0.930 . S
H501 C511 0.930 . S
C502 H496 0.930 . S
C502 C503 1.355 . S
C502 C504 1.415 . S
C503 C502 1.355 . S
C503 C505 1.419 . S
C504 C502 1.415 . S
C504 C509 1.425 . S
C504 C511 1.409 . S
C505 H497 0.930 . S
C505 C503 1.419 . S
C505 C506 1.362 . S
C506 H498 0.930 . S
C506 C505 1.362 . S
C506 C509 1.409 . S
C507 H499 0.930 . S
C507 C508 1.355 . S
C507 C509 1.415 . S
C508 C507 1.355 . S
C508 C510 1.419 . S
C509 C504 1.425 . S
C509 C506 1.409 . S
C509 C507 1.415 . S
C510 H500 0.930 . S
C510 C508 1.419 . S
C510 C511 1.362 . S
C511 H501 0.930 . S
C511 C504 1.409 . S
C511 C510 1.362 . S
H512 C518 0.930 . S
H513 C521 0.930 . S
H514 C522 0.930 . S
H515 C523 0.930 . S
H516 C526 0.930 . S
H517 C527 0.930 . S
C518 H512 0.930 . S
C518 C519 1.355 . S
C518 C520 1.415 . S
C519 C518 1.355 . S
C519 C521 1.419 . S
C520 C518 1.415 . S
C520 C525 1.425 . S
C520 C527 1.409 . S
C521 H513 0.930 . S
C521 C519 1.419 . S
C521 C522 1.362 . S
C522 H514 0.930 . S
C522 C521 1.362 . S
C522 C525 1.409 . S
C523 H515 0.930 . S
C523 C524 1.355 . S
C523 C525 1.415 . S
C524 C523 1.355 . S
C524 C526 1.419 . S
C525 C520 1.425 . S
C525 C522 1.409 . S
C525 C523 1.415 . S
C526 H516 0.930 . S
C526 C524 1.419 . S
C526 C527 1.362 . S
C527 H517 0.930 . S
C527 C520 1.409 . S
C527 C526 1.362 . S
H528 C534 0.930 . S
H529 C537 0.930 . S
H530 C538 0.930 . S
H531 C539 0.930 . S
H532 C542 0.930 . S
H533 C543 0.930 . S
C534 H528 0.930 . S
C534 C535 1.355 . S
C534 C536 1.415 . S
C535 C534 1.355 . S
C535 C537 1.419 . S
C536 C534 1.415 . S
C536 C541 1.425 . S
C536 C543 1.409 . S
C537 H529 0.930 . S
C537 C535 1.419 . S
C537 C538 1.362 . S
C538 H530 0.930 . S
C538 C537 1.362 . S
C538 C541 1.409 . S
C539 H531 0.930 . S
C539 C540 1.355 . S
C539 C541 1.415 . S
C540 C539 1.355 . S
C540 C542 1.419 . S
C541 C536 1.425 . S
C541 C538 1.409 . S
C541 C539 1.415 . S
C542 H532 0.930 . S
C542 C540 1.419 . S
C542 C543 1.362 . S
C543 H533 0.930 . S
C543 C536 1.409 . S
C543 C542 1.362 . S
H544 C550 0.930 . S
H545 C553 0.930 . S
H546 C554 0.930 . S
H547 C555 0.930 . S
H548 C558 0.930 . S
H549 C559 0.930 . S
C550 H544 0.930 . S
C550 C551 1.355 . S
C550 C552 1.415 . S
C551 C550 1.355 . S
C551 C553 1.419 . S
C552 C550 1.415 . S
C552 C557 1.425 . S
C552 C559 1.409 . S
C553 H545 0.930 . S
C553 C551 1.419 . S
C553 C554 1.362 . S
C554 H546 0.930 . S
C554 C553 1.362 . S
C554 C557 1.409 . S
C555 H547 0.930 . S
C555 C556 1.355 . S
C555 C557 1.415 . S
C556 C555 1.355 . S
C556 C558 1.419 . S
C557 C552 1.425 . S
C557 C554 1.409 . S
C557 C555 1.415 . S
C558 H548 0.930 . S
C558 C556 1.419 . S
C558 C559 1.362 . S
C559 H549 0.930 . S
C559 C552 1.409 . S
C559 C558 1.362 . S
H560 C566 0.930 . S
H561 C569 0.930 . S
H562 C570 0.930 . S
H563 C571 0.930 . S
H564 C574 0.930 . S
H565 C575 0.930 . S
C566 H560 0.930 . S
C566 C567 1.355 . S
C566 C568 1.415 . S
C567 C566 1.355 . S
C567 C569 1.419 . S
C568 C566 1.415 . S
C568 C573 1.425 . S
C568 C575 1.409 . S
C569 H561 0.930 . S
C569 C567 1.419 . S
C569 C570 1.362 . S
C570 H562 0.930 . S
C570 C569 1.362 . S
C570 C573 1.409 . S
C571 H563 0.930 . S
C571 C572 1.355 . S
C571 C573 1.415 . S
C572 C571 1.355 . S
C572 C574 1.419 . S
C573 C568 1.425 . S
C573 C570 1.409 . S
C573 C571 1.415 . S
C574 H564 0.930 . S
C574 C572 1.419 . S
C574 C575 1.362 . S
C575 H565 0.930 . S
C575 C568 1.409 . S
C575 C574 1.362 . S
H576 C582 0.930 . S
H577 C585 0.930 . S
H578 C586 0.930 . S
H579 C587 0.930 . S
H580 C590 0.930 . S
H581 C591 0.930 . S
C582 H576 0.930 . S
C582 C583 1.355 . S
C582 C584 1.415 . S
C583 C582 1.355 . S
C583 C585 1.419 . S
C584 C582 1.415 . S
C584 C589 1.425 . S
C584 C591 1.409 . S
C585 H577 0.930 . S
C585 C583 1.419 . S
C585 C586 1.362 . S
C586 H578 0.930 . S
C586 C585 1.362 . S
C586 C589 1.409 . S
C587 H579 0.930 . S
C587 C588 1.355 . S
C587 C589 1.415 . S
C588 C587 1.355 . S
C588 C590 1.419 . S
C589 C584 1.425 . S
C589 C586 1.409 . S
C589 C587 1.415 . S
C590 H580 0.930 . S
C590 C588 1.419 . S
C590 C591 1.362 . S
C591 H581 0.930 . S
C591 C584 1.409 . S
C591 C590 1.362 . S
H592 C598 0.930 . S
H593 C601 0.930 . S
H594 C602 0.930 . S
H595 C603 0.930 . S
H596 C606 0.930 . S
H597 C607 0.930 . S
C598 H592 0.930 . S
C598 C599 1.355 . S
C598 C600 1.415 . S
C599 C598 1.355 . S
C599 C601 1.419 . S
C600 C598 1.415 . S
C600 C605 1.425 . S
C600 C607 1.409 . S
C601 H593 0.930 . S
C601 C599 1.419 . S
C601 C602 1.362 . S
C602 H594 0.930 . S
C602 C601 1.362 . S
C602 C605 1.409 . S
C603 H595 0.930 . S
C603 C604 1.355 . S
C603 C605 1.415 . S
C604 C603 1.355 . S
C604 C606 1.419 . S
C605 C600 1.425 . S
C605 C602 1.409 . S
C605 C603 1.415 . S
C606 H596 0.930 . S
C606 C604 1.419 . S
C606 C607 1.362 . S
C607 H597 0.930 . S
C607 C600 1.409 . S
C607 C606 1.362 . S
H608 C614 0.930 . S
H609 C617 0.930 . S
H610 C618 0.930 . S
H611 C619 0.930 . S
H612 C622 0.930 . S
H613 C623 0.930 . S
C614 H608 0.930 . S
C614 C615 1.355 . S
C614 C616 1.415 . S
C615 C614 1.355 . S
C615 C617 1.419 . S
C616 C614 1.415 . S
C616 C621 1.425 . S
C616 C623 1.409 . S
C617 H609 0.930 . S
C617 C615 1.419 . S
C617 C618 1.362 . S
C618 H610 0.930 . S
C618 C617 1.362 . S
C618 C621 1.409 . S
C619 H611 0.930 . S
C619 C620 1.355 . S
C619 C621 1.415 . S
C620 C619 1.355 . S
C620 C622 1.419 . S
C621 C616 1.425 . S
C621 C618 1.409 . S
C621 C619 1.415 . S
C622 H612 0.930 . S
C622 C620 1.419 . S
C622 C623 1.362 . S
C623 H613 0.930 . S
C623 C616 1.409 . S
C623 C622 1.362 . S
H624 C630 0.930 . S
H625 C633 0.930 . S
H626 C634 0.930 . S
H627 C635 0.930 . S
H628 C638 0.930 . S
H629 C639 0.930 . S
C630 H624 0.930 . S
C630 C631 1.355 . S
C630 C632 1.415 . S
C631 C630 1.355 . S
C631 C633 1.419 . S
C632 C630 1.415 . S
C632 C637 1.425 . S
C632 C639 1.409 . S
C633 H625 0.930 . S
C633 C631 1.419 . S
C633 C634 1.362 . S
C634 H626 0.930 . S
C634 C633 1.362 . S
C634 C637 1.409 . S
C635 H627 0.930 . S
C635 C636 1.355 . S
C635 C637 1.415 . S
C636 C635 1.355 . S
C636 C638 1.419 . S
C637 C632 1.425 . S
C637 C634 1.409 . S
C637 C635 1.415 . S
C638 H628 0.930 . S
C638 C636 1.419 . S
C638 C639 1.362 . S
C639 H629 0.930 . S
C639 C632 1.409 . S
C639 C638 1.362 . S
H640 C646 0.930 . S
H641 C649 0.930 . S
H642 C650 0.930 . S
H643 C651 0.930 . S
H644 C654 0.930 . S
H645 C655 0.930 . S
C646 H640 0.930 . S
C646 C647 1.355 . S
C646 C648 1.415 . S
C647 C646 1.355 . S
C647 C649 1.419 . S
C648 C646 1.415 . S
C648 C653 1.425 . S
C648 C655 1.409 . S
C649 H641 0.930 . S
C649 C647 1.419 . S
C649 C650 1.362 . S
C650 H642 0.930 . S
C650 C649 1.362 . S
C650 C653 1.409 . S
C651 H643 0.930 . S
C651 C652 1.355 . S
C651 C653 1.415 . S
C652 C651 1.355 . S
C652 C654 1.419 . S
C653 C648 1.425 . S
C653 C650 1.409 . S
C653 C651 1.415 . S
C654 H644 0.930 . S
C654 C652 1.419 . S
C654 C655 1.362 . S
C655 H645 0.930 . S
C655 C648 1.409 . S
C655 C654 1.362 . S
H656 C662 0.930 . S
H657 C665 0.930 . S
H658 C666 0.930 . S
H659 C667 0.930 . S
H660 C670 0.930 . S
H661 C671 0.930 . S
C662 H656 0.930 . S
C662 C663 1.355 . S
C662 C664 1.415 . S
C663 C662 1.355 . S
C663 C665 1.419 . S
C664 C662 1.415 . S
C664 C669 1.425 1_556 S
C664 C671 1.409 1_556 S
C665 H657 0.930 . S
C665 C663 1.419 . S
C665 C666 1.362 . S
C666 H658 0.930 . S
C666 C665 1.362 . S
C666 C669 1.409 1_556 S
C667 H659 0.930 . S
C667 C668 1.355 . S
C667 C669 1.415 . S
C668 C667 1.355 . S
C668 C670 1.419 . S
C669 C664 1.425 1_554 S
C669 C666 1.409 1_554 S
C669 C667 1.415 . S
C670 H660 0.930 . S
C670 C668 1.419 . S
C670 C671 1.362 . S
C671 H661 0.930 . S
C671 C664 1.409 1_554 S
C671 C670 1.362 . S
H672 C678 0.930 . S
H673 C681 0.930 . S
H674 C682 0.930 . S
H675 C683 0.930 . S
H676 C686 0.930 . S
H677 C687 0.930 . S
C678 H672 0.930 . S
C678 C679 1.355 . S
C678 C680 1.415 . S
C679 C678 1.355 . S
C679 C681 1.419 . S
C680 C678 1.415 . S
C680 C685 1.425 1_554 S
C680 C687 1.409 1_554 S
C681 H673 0.930 . S
C681 C679 1.419 . S
C681 C682 1.362 . S
C682 H674 0.930 . S
C682 C681 1.362 . S
C682 C685 1.409 1_554 S
C683 H675 0.930 . S
C683 C684 1.355 . S
C683 C685 1.415 . S
C684 C683 1.355 . S
C684 C686 1.419 . S
C685 C680 1.425 1_556 S
C685 C682 1.409 1_556 S
C685 C683 1.415 . S
C686 H676 0.930 . S
C686 C684 1.419 . S
C686 C687 1.362 . S
C687 H677 0.930 . S
C687 C680 1.409 1_556 S
C687 C686 1.362 . S
H688 C694 0.930 . S
H689 C697 0.930 . S
H690 C698 0.930 . S
H691 C699 0.930 . S
H692 C702 0.930 . S
H693 C703 0.930 . S
C694 H688 0.930 . S
C694 C695 1.355 . S
C694 C696 1.415 . S
C695 C694 1.355 . S
C695 C697 1.419 . S
C696 C694 1.415 . S
C696 C701 1.425 . S
C696 C703 1.409 . S
C697 H689 0.930 . S
C697 C695 1.419 . S
C697 C698 1.362 . S
C698 H690 0.930 . S
C698 C697 1.362 . S
C698 C701 1.409 . S
C699 H691 0.930 . S
C699 C700 1.355 . S
C699 C701 1.415 . S
C700 C699 1.355 . S
C700 C702 1.419 . S
C701 C696 1.425 . S
C701 C698 1.409 . S
C701 C699 1.415 . S
C702 H692 0.930 . S
C702 C700 1.419 . S
C702 C703 1.362 . S
C703 H693 0.930 . S
C703 C696 1.409 . S
C703 C702 1.362 . S
H704 C710 0.930 . S
H705 C713 0.930 . S
H706 C714 0.930 . S
H707 C715 0.930 . S
H708 C718 0.930 . S
H709 C719 0.930 . S
C710 H704 0.930 . S
C710 C711 1.355 . S
C710 C712 1.415 . S
C711 C710 1.355 . S
C711 C713 1.419 . S
C712 C710 1.415 . S
C712 C717 1.425 . S
C712 C719 1.409 . S
C713 H705 0.930 . S
C713 C711 1.419 . S
C713 C714 1.362 . S
C714 H706 0.930 . S
C714 C713 1.362 . S
C714 C717 1.409 . S
C715 H707 0.930 . S
C715 C716 1.355 . S
C715 C717 1.415 . S
C716 C715 1.355 . S
C716 C718 1.419 . S
C717 C712 1.425 . S
C717 C714 1.409 . S
C717 C715 1.415 . S
C718 H708 0.930 . S
C718 C716 1.419 . S
C718 C719 1.362 . S
C719 H709 0.930 . S
C719 C712 1.409 . S
C719 C718 1.362 . S
H720 C726 0.930 . S
H721 C729 0.930 . S
H722 C730 0.930 . S
H723 C731 0.930 . S
H724 C734 0.930 . S
H725 C735 0.930 . S
C726 H720 0.930 . S
C726 C727 1.355 . S
C726 C728 1.415 . S
C727 C726 1.355 . S
C727 C729 1.419 . S
C728 C726 1.415 . S
C728 C733 1.425 . S
C728 C735 1.409 . S
C729 H721 0.930 . S
C729 C727 1.419 . S
C729 C730 1.362 . S
C730 H722 0.930 . S
C730 C729 1.362 . S
C730 C733 1.409 . S
C731 H723 0.930 . S
C731 C732 1.355 . S
C731 C733 1.415 . S
C732 C731 1.355 . S
C732 C734 1.419 . S
C733 C728 1.425 . S
C733 C730 1.409 . S
C733 C731 1.415 . S
C734 H724 0.930 . S
C734 C732 1.419 . S
C734 C735 1.362 . S
C735 H725 0.930 . S
C735 C728 1.409 . S
C735 C734 1.362 . S
C231 C146 1.305 . S
C236 C6 1.292 . S
C247 C20 1.314 . S
C252 C160 1.295 . S
C263 C118 1.355 . S
C268 C34 1.349 . S
C279 C132 1.299 . S
C284 C48 1.292 . S
C295 C62 1.296 . S
C300 C202 1.316 . S
C311 C216 1.354 . S
C316 C76 1.352 . S
C327 C90 1.294 . S
C332 C174 1.312 . S
C343 C188 1.339 . S
C348 C104 1.354 . S
C359 C149 1.760 . S
C364 C9 1.744 . S
C375 C23 1.752 . S
C380 C163 1.760 . S
C391 C37 1.749 . S
C396 C121 1.760 . S
C407 C51 1.760 . S
C412 C135 1.744 . S
C423 C65 1.740 . S
C428 C205 1.719 . S
C439 C79 1.757 . S
C444 C219 1.756 . S
C455 C177 1.750 . S
C460 C93 1.760 . S
C471 C191 1.726 . S
C476 C107 1.750 . S
C487 C8 1.201 . S
C492 C92 1.191 . S
C503 C22 1.265 . S
C508 C106 1.178 . S
C519 C36 1.178 . S
C524 C64 1.265 . S
C535 C50 1.195 . S
C540 C78 1.197 . S
C551 C120 1.220 . S
C556 C204 1.177 . S
C567 C218 1.175 . S
C572 C134 1.225 . S
C583 C148 1.183 . S
C588 C176 1.212 . S
C599 C190 1.253 . S
C604 C162 1.170 . S
C615 C7 1.455 . S
C620 C217 1.458 . S
C631 C175 1.462 . S
C636 C21 1.451 . S
C647 C189 1.447 . S
C652 C35 1.463 . S
C663 C203 1.464 . S
C668 C49 1.448 . S
C679 C133 1.464 . S
C684 C63 1.446 . S
C695 C147 1.453 . S
C700 C77 1.456 . S
C711 C91 1.463 . S
C716 C161 1.449 . S
C727 C105 1.448 . S
C732 C119 1.464 . S
