# Generated by pormake.
# Topology ume, (4)-cn, num edge types: 1
# Building blocks:
#     Node 0, Type 0, BuildingBlock: CEKHIL_clean_sbu_0, # of connection points: 4
#     Node 1, Type 0, BuildingBlock: CEKHIL_clean_sbu_0, # of connection points: 4
#     Node 2, Type 0, BuildingBlock: CEKHIL_clean_sbu_0, # of connection points: 4
#     Node 3, Type 0, BuildingBlock: CEKHIL_clean_sbu_0, # of connection points: 4
#     Node 4, Type 0, BuildingBlock: CEKHIL_clean_sbu_0, # of connection points: 4
#     Node 5, Type 0, BuildingBlock: CEKHIL_clean_sbu_0, # of connection points: 4
#     Node 6, Type 0, BuildingBlock: CEKHIL_clean_sbu_0, # of connection points: 4
#     Node 7, Type 0, BuildingBlock: CEKHIL_clean_sbu_0, # of connection points: 4
#     Node 8, Type 0, BuildingBlock: CEKHIL_clean_sbu_0, # of connection points: 4
#     Node 9, Type 0, BuildingBlock: CEKHIL_clean_sbu_0, # of connection points: 4
#     Node 10, Type 0, BuildingBlock: CEKHIL_clean_sbu_0, # of connection points: 4
#     Node 11, Type 0, BuildingBlock: CEKHIL_clean_sbu_0, # of connection points: 4
#     Node 12, Type 0, BuildingBlock: CEKHIL_clean_sbu_0, # of connection points: 4
#     Node 13, Type 0, BuildingBlock: CEKHIL_clean_sbu_0, # of connection points: 4
#     Node 14, Type 0, BuildingBlock: CEKHIL_clean_sbu_0, # of connection points: 4
#     Node 15, Type 0, BuildingBlock: CEKHIL_clean_sbu_0, # of connection points: 4
#     Edge 16, Type (0, 0), BuildingBlock: MIFKUJ_clean_linker_0, # of connection points: 2
#     Edge 17, Type (0, 0), BuildingBlock: MIFKUJ_clean_linker_0, # of connection points: 2
#     Edge 18, Type (0, 0), BuildingBlock: MIFKUJ_clean_linker_0, # of connection points: 2
#     Edge 19, Type (0, 0), BuildingBlock: MIFKUJ_clean_linker_0, # of connection points: 2
#     Edge 20, Type (0, 0), BuildingBlock: MIFKUJ_clean_linker_0, # of connection points: 2
#     Edge 21, Type (0, 0), BuildingBlock: MIFKUJ_clean_linker_0, # of connection points: 2
#     Edge 22, Type (0, 0), BuildingBlock: MIFKUJ_clean_linker_0, # of connection points: 2
#     Edge 23, Type (0, 0), BuildingBlock: MIFKUJ_clean_linker_0, # of connection points: 2
#     Edge 24, Type (0, 0), BuildingBlock: MIFKUJ_clean_linker_0, # of connection points: 2
#     Edge 25, Type (0, 0), BuildingBlock: MIFKUJ_clean_linker_0, # of connection points: 2
#     Edge 26, Type (0, 0), BuildingBlock: MIFKUJ_clean_linker_0, # of connection points: 2
#     Edge 27, Type (0, 0), BuildingBlock: MIFKUJ_clean_linker_0, # of connection points: 2
#     Edge 28, Type (0, 0), BuildingBlock: MIFKUJ_clean_linker_0, # of connection points: 2
#     Edge 29, Type (0, 0), BuildingBlock: MIFKUJ_clean_linker_0, # of connection points: 2
#     Edge 30, Type (0, 0), BuildingBlock: MIFKUJ_clean_linker_0, # of connection points: 2
#     Edge 31, Type (0, 0), BuildingBlock: MIFKUJ_clean_linker_0, # of connection points: 2
#     Edge 32, Type (0, 0), BuildingBlock: MIFKUJ_clean_linker_0, # of connection points: 2
#     Edge 33, Type (0, 0), BuildingBlock: MIFKUJ_clean_linker_0, # of connection points: 2
#     Edge 34, Type (0, 0), BuildingBlock: MIFKUJ_clean_linker_0, # of connection points: 2
#     Edge 35, Type (0, 0), BuildingBlock: MIFKUJ_clean_linker_0, # of connection points: 2
#     Edge 36, Type (0, 0), BuildingBlock: MIFKUJ_clean_linker_0, # of connection points: 2
#     Edge 37, Type (0, 0), BuildingBlock: MIFKUJ_clean_linker_0, # of connection points: 2
#     Edge 38, Type (0, 0), BuildingBlock: MIFKUJ_clean_linker_0, # of connection points: 2
#     Edge 39, Type (0, 0), BuildingBlock: MIFKUJ_clean_linker_0, # of connection points: 2
#     Edge 40, Type (0, 0), BuildingBlock: MIFKUJ_clean_linker_0, # of connection points: 2
#     Edge 41, Type (0, 0), BuildingBlock: MIFKUJ_clean_linker_0, # of connection points: 2
#     Edge 42, Type (0, 0), BuildingBlock: MIFKUJ_clean_linker_0, # of connection points: 2
#     Edge 43, Type (0, 0), BuildingBlock: MIFKUJ_clean_linker_0, # of connection points: 2
#     Edge 44, Type (0, 0), BuildingBlock: MIFKUJ_clean_linker_0, # of connection points: 2
#     Edge 45, Type (0, 0), BuildingBlock: MIFKUJ_clean_linker_0, # of connection points: 2
#     Edge 46, Type (0, 0), BuildingBlock: MIFKUJ_clean_linker_0, # of connection points: 2
#     Edge 47, Type (0, 0), BuildingBlock: MIFKUJ_clean_linker_0, # of connection points: 2
# Relax obj value: 0.097
# Max RMSD: 0.136
# Mean RMSD: 0.136
data_MOF--net-ume--node1-CEKHIL_clean_sbu_0--edge1-MIFKUJ_clean_linker_0
_symmetry_space_group_name_H-M    P1
_symmetry_Int_Tables_number       1
_symmetry_cell_setting            triclinic
loop_
_symmetry_equiv_pos_as_xyz
'x, y, z'
_cell_length_a     35.590172
_cell_length_b     35.565523
_cell_length_c     143.75775
_cell_angle_alpha  89.955791
_cell_angle_beta   89.996105
_cell_angle_gamma 89.990305
loop_
_atom_site_label
_atom_site_type_symbol
_atom_site_fract_x
_atom_site_fract_y
_atom_site_fract_z
_atom_type_partial_charge
Co0 Co 0.23664 0.10859 0.30141 0.0
O1 O 0.1835 0.11706 0.30209 0.0
O2 O 0.21168 0.06439 0.30641 0.0
C3 C 0.24433 0.13083 0.2869 0.0
O4 O 0.29114 0.08993 0.30128 0.0
Co5 Co 0.28992 0.17756 0.29944 0.0
O6 O 0.32753 0.13816 0.2966 0.0
C7 C 0.25684 0.16022 0.31768 0.0
C8 C 0.18055 0.08322 0.30537 0.0
C9 C 0.32305 0.10356 0.29864 0.0
O10 O 0.24294 0.12974 0.31431 0.0
O11 O 0.27459 0.18443 0.31276 0.0
O12 O 0.23248 0.0967 0.28821 0.0
O13 O 0.24713 0.15132 0.29429 0.0
Co14 Co 0.89865 0.74019 0.55255 0.0
O15 O 0.89356 0.68656 0.55314 0.0
O16 O 0.94486 0.71793 0.55716 0.0
C17 C 0.87467 0.74791 0.53823 0.0
O18 O 0.91352 0.79572 0.55258 0.0
Co19 Co 0.82563 0.78799 0.55151 0.0
O20 O 0.86156 0.83003 0.54968 0.0
C21 C 0.84651 0.7522 0.56911 0.0
C22 C 0.92768 0.68578 0.55628 0.0
C23 C 0.89691 0.82737 0.55101 0.0
O24 O 0.87871 0.74418 0.5656 0.0
O25 O 0.81959 0.76648 0.56437 0.0
O26 O 0.90954 0.73802 0.5393 0.0
O27 O 0.85465 0.74832 0.54573 0.0
Co28 Co 0.26476 0.39597 0.80254 0.0
O29 O 0.31819 0.3893 0.80249 0.0
O30 O 0.28908 0.4391 0.80827 0.0
C31 C 0.25461 0.37933 0.7877 0.0
O32 O 0.20965 0.41228 0.80339 0.0
Co33 Co 0.21439 0.32547 0.7996 0.0
O34 O 0.174 0.36352 0.79864 0.0
C35 C 0.2487 0.3383 0.81789 0.0
C36 C 0.32056 0.4217 0.80656 0.0
C37 C 0.17764 0.39766 0.8012 0.0
O38 O 0.26171 0.36991 0.81497 0.0
O39 O 0.23071 0.31525 0.81271 0.0
O40 O 0.26545 0.41325 0.78969 0.0
O41 O 0.25474 0.35573 0.79454 0.0
Co42 Co 0.60886 0.7623 0.05317 0.0
O43 O 0.61526 0.81575 0.05311 0.0
O44 O 0.56444 0.78654 0.05827 0.0
C45 C 0.62905 0.75218 0.03861 0.0
O46 O 0.5926 0.70722 0.05391 0.0
Co47 Co 0.67998 0.71228 0.05137 0.0
O48 O 0.64276 0.67097 0.05052 0.0
C49 C 0.6641 0.74931 0.06916 0.0
C50 C 0.58207 0.81807 0.05677 0.0
C51 C 0.60792 0.67494 0.05235 0.0
O52 O 0.63206 0.75975 0.06593 0.0
O53 O 0.68888 0.73258 0.06421 0.0
O54 O 0.59456 0.76249 0.0401 0.0
O55 O 0.65099 0.75246 0.04577 0.0
Co56 Co 0.24138 0.39245 0.93318 0.0
O57 O 0.18802 0.38497 0.93243 0.0
O58 O 0.21736 0.43722 0.92827 0.0
C59 C 0.24879 0.36978 0.94766 0.0
O60 O 0.29613 0.41046 0.93335 0.0
Co61 Co 0.29403 0.32288 0.9352 0.0
O62 O 0.3333 0.36138 0.93712 0.0
C63 C 0.26215 0.34136 0.91689 0.0
C64 C 0.18588 0.41894 0.9292 0.0
C65 C 0.32849 0.39618 0.93537 0.0
O66 O 0.24726 0.37137 0.92025 0.0
O67 O 0.28044 0.3174 0.92174 0.0
O68 O 0.2376 0.40417 0.94638 0.0
O69 O 0.25113 0.34935 0.94025 0.0
Co70 Co 0.60745 0.74104 0.18392 0.0
O71 O 0.61478 0.68794 0.18264 0.0
O72 O 0.56259 0.71774 0.17872 0.0
C73 C 0.62986 0.74546 0.19849 0.0
O74 O 0.59057 0.79614 0.1847 0.0
Co75 Co 0.67868 0.79096 0.18637 0.0
O76 O 0.64078 0.83023 0.1892 0.0
C77 C 0.66105 0.75963 0.16802 0.0
C78 C 0.58093 0.68611 0.17938 0.0
C79 C 0.60582 0.82735 0.18735 0.0
O80 O 0.62875 0.74918 0.1711 0.0
O81 O 0.68665 0.77363 0.17322 0.0
O82 O 0.59541 0.73491 0.19707 0.0
O83 O 0.65037 0.74878 0.19112 0.0
Co84 Co 0.25925 0.10813 0.43362 0.0
O85 O 0.31267 0.11526 0.43318 0.0
O86 O 0.28345 0.06316 0.42886 0.0
C87 C 0.25081 0.13099 0.44802 0.0
O88 O 0.20437 0.09064 0.4335 0.0
Co89 Co 0.20701 0.17769 0.43515 0.0
O90 O 0.1688 0.13921 0.4383 0.0
C91 C 0.2417 0.15957 0.41714 0.0
C92 C 0.31493 0.08134 0.42994 0.0
C93 C 0.17274 0.10457 0.43624 0.0
O94 O 0.25486 0.12905 0.42066 0.0
O95 O 0.22345 0.18401 0.42187 0.0
O96 O 0.2616 0.09643 0.44683 0.0
O97 O 0.24935 0.15145 0.44059 0.0
Co98 Co 0.89418 0.76434 0.68447 0.0
O99 O 0.88655 0.81708 0.68228 0.0
O100 O 0.93969 0.78663 0.67949 0.0
C101 C 0.86918 0.76269 0.69882 0.0
O102 O 0.91209 0.71003 0.6861 0.0
Co103 Co 0.82438 0.71254 0.68699 0.0
O104 O 0.86275 0.67488 0.69064 0.0
C105 C 0.84465 0.73929 0.66829 0.0
C106 C 0.92108 0.81816 0.67943 0.0
C107 C 0.89773 0.67875 0.68896 0.0
O108 O 0.87544 0.75283 0.67157 0.0
O109 O 0.81897 0.72491 0.67342 0.0
O110 O 0.90362 0.77374 0.69762 0.0
O111 O 0.85007 0.7571 0.69131 0.0
Co112 Co 0.74424 0.60755 0.80261 0.0
O113 O 0.69081 0.61356 0.8036 0.0
O114 O 0.72151 0.56119 0.807 0.0
C115 C 0.75032 0.63365 0.78845 0.0
O116 O 0.79942 0.59138 0.8021 0.0
Co117 Co 0.79407 0.67933 0.80162 0.0
O118 O 0.83428 0.64247 0.79874 0.0
C119 C 0.75958 0.65761 0.81936 0.0
C120 C 0.68959 0.57897 0.80642 0.0
C121 C 0.83105 0.60712 0.80004 0.0
O122 O 0.75028 0.62583 0.81577 0.0
O123 O 0.7741 0.68447 0.81464 0.0
O124 O 0.74005 0.59875 0.78926 0.0
O125 O 0.75248 0.65233 0.79613 0.0
Co126 Co 0.3971 0.24162 0.05206 0.0
O127 O 0.39088 0.18815 0.05281 0.0
O128 O 0.44165 0.21883 0.05745 0.0
C129 C 0.37668 0.24836 0.03738 0.0
O130 O 0.4132 0.2968 0.05203 0.0
Co131 Co 0.32604 0.29136 0.04953 0.0
O132 O 0.36381 0.3314 0.04726 0.0
C133 C 0.34221 0.2587 0.06785 0.0
C134 C 0.42424 0.18689 0.0564 0.0
C135 C 0.39839 0.3283 0.04948 0.0
O136 O 0.37415 0.24735 0.06476 0.0
O137 O 0.3173 0.27416 0.06268 0.0
O138 O 0.41111 0.23814 0.039 0.0
O139 O 0.35496 0.24989 0.04457 0.0
Co140 Co 0.75723 0.89652 0.30269 0.0
O141 O 0.81087 0.89118 0.30329 0.0
O142 O 0.77965 0.94249 0.30737 0.0
C143 C 0.74946 0.87303 0.28833 0.0
O144 O 0.70181 0.91183 0.30271 0.0
Co145 Co 0.70889 0.82366 0.30148 0.0
O146 O 0.66689 0.85989 0.30018 0.0
C147 C 0.74424 0.84391 0.31919 0.0
C148 C 0.81175 0.92533 0.30643 0.0
C149 C 0.66997 0.89527 0.30141 0.0
O150 O 0.75295 0.8761 0.31572 0.0
O151 O 0.72968 0.81737 0.31438 0.0
O152 O 0.75982 0.90775 0.28943 0.0
O153 O 0.74866 0.8528 0.2958 0.0
Co154 Co 0.11053 0.2604 0.55312 0.0
O155 O 0.11695 0.31383 0.55311 0.0
O156 O 0.06621 0.28467 0.55831 0.0
C157 C 0.1305 0.25136 0.53848 0.0
O158 O 0.0941 0.20526 0.55375 0.0
Co159 Co 0.18091 0.20972 0.55091 0.0
O160 O 0.14286 0.16987 0.54898 0.0
C161 C 0.16511 0.24412 0.56908 0.0
C162 C 0.08368 0.31624 0.55671 0.0
C163 C 0.1085 0.1734 0.55133 0.0
O164 O 0.13407 0.25727 0.56584 0.0
O165 O 0.1889 0.22607 0.56412 0.0
O166 O 0.09597 0.26127 0.54007 0.0
O167 O 0.15253 0.25095 0.54562 0.0
Co168 Co 0.73868 0.89579 0.43457 0.0
O169 O 0.68531 0.88997 0.43373 0.0
O170 O 0.7161 0.94135 0.42956 0.0
C171 C 0.74456 0.87311 0.44909 0.0
O172 O 0.79409 0.91129 0.43483 0.0
Co173 Co 0.78701 0.82331 0.43652 0.0
O174 O 0.8289 0.85966 0.43787 0.0
C175 C 0.75454 0.8425 0.41838 0.0
C176 C 0.68411 0.92385 0.43044 0.0
C177 C 0.82583 0.89491 0.43642 0.0
O178 O 0.74447 0.87457 0.42168 0.0
O179 O 0.76883 0.81642 0.4234 0.0
O180 O 0.73495 0.90792 0.44775 0.0
O181 O 0.74618 0.85246 0.44171 0.0
Co182 Co 0.10309 0.24332 0.68432 0.0
O183 O 0.10857 0.18974 0.68474 0.0
O184 O 0.05898 0.21929 0.67901 0.0
C185 C 0.12167 0.2548 0.69895 0.0
O186 O 0.08771 0.29866 0.68324 0.0
Co187 Co 0.17481 0.29249 0.68629 0.0
O188 O 0.13783 0.3339 0.68725 0.0
C189 C 0.15941 0.25562 0.66845 0.0
C190 C 0.07576 0.18759 0.68088 0.0
C191 C 0.10324 0.33061 0.68509 0.0
O192 O 0.12765 0.24438 0.67169 0.0
O193 O 0.18364 0.27339 0.67334 0.0
O194 O 0.08735 0.24438 0.69727 0.0
O195 O 0.14445 0.25345 0.69195 0.0
Co196 Co 0.76251 0.60414 0.9346 0.0
O197 O 0.81585 0.61024 0.93373 0.0
O198 O 0.78515 0.55921 0.92929 0.0
C199 C 0.7564 0.62511 0.94924 0.0
O200 O 0.70715 0.58847 0.93485 0.0
Co201 Co 0.71369 0.67597 0.93701 0.0
O202 O 0.67388 0.63855 0.93977 0.0
C203 C 0.74474 0.65822 0.91861 0.0
C204 C 0.8171 0.5767 0.93024 0.0
C205 C 0.67621 0.60384 0.93761 0.0
O206 O 0.75639 0.62656 0.92184 0.0
O207 O 0.72949 0.68349 0.92371 0.0
O208 O 0.76648 0.59059 0.94768 0.0
O209 O 0.75481 0.64663 0.942 0.0
Co210 Co 0.39556 0.26164 0.18321 0.0
O211 O 0.38894 0.31497 0.18205 0.0
O212 O 0.4413 0.28468 0.17848 0.0
C213 C 0.37091 0.25641 0.19753 0.0
O214 O 0.41213 0.20644 0.18392 0.0
Co215 Co 0.32415 0.21149 0.18486 0.0
O216 O 0.36145 0.17179 0.18778 0.0
C217 C 0.34404 0.24463 0.16681 0.0
C218 C 0.42326 0.31648 0.17907 0.0
C219 C 0.39663 0.17495 0.18626 0.0
O220 O 0.37599 0.25465 0.17019 0.0
O221 O 0.31788 0.23005 0.17175 0.0
O222 O 0.40564 0.26682 0.19647 0.0
O223 O 0.35153 0.25362 0.18997 0.0
H224 H 0.87721 0.89094 0.31104 0.0
H225 H 0.93911 0.91979 0.31295 0.0
H226 H 0.89081 0.02926 0.3081 0.0
H227 H 0.82834 1.00053 0.3064 0.0
H228 H 0.95401 0.00805 0.29628 0.0
H229 H 0.91949 0.01479 0.32844 0.0
H230 H 0.89654 0.99027 0.34344 0.0
H231 H 0.98879 0.91258 0.34451 0.0
H232 H 0.01201 0.93624 0.32943 0.0
H233 H 0.11314 0.11838 0.30385 0.0
H234 H 0.05074 0.09153 0.30576 0.0
H235 H 0.09973 0.98483 0.31325 0.0
H236 H 0.16296 0.01174 0.31136 0.0
H237 H 0.03622 0.00411 0.32416 0.0
H238 H 0.06976 0.99404 0.29215 0.0
H239 H 0.09327 0.01589 0.27695 0.0
H240 H 0.00324 0.096 0.27528 0.0
H241 H 0.97951 0.07502 0.29056 0.0
C242 C 0.87967 0.92123 0.31052 0.0
C243 C 0.84805 0.94354 0.30854 0.0
C244 C 0.915 0.93765 0.31165 0.0
C245 C 0.91946 0.9766 0.31068 0.0
C246 C 0.88782 0.99912 0.3089 0.0
C247 C 0.85222 0.98274 0.30796 0.0
C248 C 0.95764 0.99316 0.31076 0.0
C249 C 0.97176 0.00785 0.30242 0.0
C250 C 0.98117 0.99139 0.31869 0.0
C251 C 0.96726 0.97701 0.32775 0.0
C252 C 0.93468 0.99219 0.33182 0.0
C253 C 0.92166 0.97851 0.34035 0.0
C254 C 0.94113 0.9498 0.34491 0.0
C255 C 0.97371 0.93478 0.34096 0.0
C256 C 0.98682 0.94833 0.33242 0.0
C257 C 0.11084 0.08926 0.30598 0.0
C258 C 0.14307 0.06706 0.30736 0.0
C259 C 0.07506 0.07396 0.30706 0.0
C260 C 0.0706 0.03609 0.30952 0.0
C261 C 0.10262 0.01413 0.31132 0.0
C262 C 0.13867 0.02948 0.31021 0.0
C263 C 0.0324 0.01941 0.3097 0.0
C264 C 0.01839 0.00448 0.31804 0.0
C265 C 0.00896 0.02049 0.30174 0.0
C266 C 0.0231 0.03323 0.29255 0.0
C267 C 0.05517 0.01656 0.28859 0.0
C268 C 0.0685 0.02875 0.27995 0.0
C269 C 0.04982 0.05739 0.27516 0.0
C270 C 0.01771 0.07386 0.279 0.0
C271 C 0.0043 0.06181 0.28765 0.0
H272 H 0.06016 0.06677 0.26847 0.0
H273 H 0.93102 0.93927 0.35152 0.0
H274 H 0.89304 0.62223 0.56212 0.0
H275 H 0.92079 0.55987 0.56427 0.0
H276 H 0.02988 0.6044 0.55728 0.0
H277 H 0.00233 0.66742 0.55539 0.0
H278 H 1.00087 0.53922 0.54626 0.0
H279 H 0.0229 0.58009 0.57762 0.0
H280 H 0.0053 0.60673 0.59283 0.0
H281 H 0.92635 0.51704 0.59704 0.0
H282 H 0.94305 0.49016 0.58177 0.0
H283 H 0.1159 0.38407 0.55356 0.0
H284 H 0.08799 0.44607 0.55516 0.0
H285 H 0.98555 0.39625 0.5654 0.0
H286 H 0.01355 0.33322 0.56378 0.0
H287 H 0.0086 0.46322 0.57518 0.0
H288 H 0.9844 0.42227 0.54427 0.0
H289 H 0.99895 0.39505 0.52892 0.0
H290 H 0.07736 0.48425 0.5236 0.0
H291 H 0.06373 0.5117 0.53899 0.0
C292 C 0.92306 0.61886 0.56119 0.0
C293 C 0.94559 0.64953 0.55856 0.0
C294 C 0.93884 0.58329 0.56245 0.0
C295 C 0.9773 0.57764 0.56094 0.0
C296 C 1.00012 0.60837 0.55852 0.0
C297 C 0.98444 0.64426 0.55746 0.0
C298 C 0.99277 0.53903 0.56109 0.0
C299 C 0.00319 0.5228 0.5526 0.0
C300 C 0.9941 0.51724 0.56932 0.0
C301 C 0.98392 0.53336 0.5785 0.0
C302 C 0.00147 0.56627 0.58174 0.0
C303 C 0.99173 0.58136 0.59039 0.0
C304 C 0.96463 0.56366 0.59589 0.0
C305 C 0.94729 0.53076 0.59276 0.0
C306 C 0.9569 0.51557 0.58411 0.0
C307 C 0.08749 0.38607 0.55622 0.0
C308 C 0.06679 0.35362 0.55847 0.0
C309 C 0.0716 0.42164 0.55713 0.0
C310 C 0.0346 0.42572 0.56029 0.0
C311 C 0.01417 0.3936 0.56292 0.0
C312 C 0.03011 0.35769 0.56197 0.0
C313 C 0.01731 0.46364 0.56036 0.0
C314 C 0.00633 0.47967 0.56885 0.0
C315 C 0.01493 0.48524 0.5521 0.0
C316 C 0.02332 0.46883 0.54283 0.0
C317 C 0.00503 0.43589 0.53987 0.0
C318 C 0.01305 0.42045 0.53115 0.0
C319 C 0.03914 0.43785 0.5253 0.0
C320 C 0.0572 0.47077 0.52815 0.0
C321 C 0.04931 0.4863 0.53687 0.0
H322 H 0.04529 0.42587 0.51855 0.0
H323 H 0.95715 0.57537 0.60258 0.0
H324 H 0.62267 0.6139 0.80917 0.0
H325 H 0.56112 0.58515 0.81139 0.0
H326 H 0.61174 0.475 0.81065 0.0
H327 H 0.67389 0.50378 0.80845 0.0
H328 H 0.55143 0.48276 0.79861 0.0
H329 H 0.57748 0.50718 0.83068 0.0
H330 H 0.59627 0.54552 0.84418 0.0
H331 H 0.50312 0.6198 0.83941 0.0
H332 H 0.48406 0.58222 0.8258 0.0
H333 H 0.38644 0.3839 0.8078 0.0
H334 H 0.44926 0.40969 0.80984 0.0
H335 H 0.40261 0.52122 0.81226 0.0
H336 H 0.33899 0.49519 0.81044 0.0
H337 H 0.46175 0.51147 0.82408 0.0
H338 H 0.43797 0.49134 0.79168 0.0
H339 H 0.41887 0.45536 0.77781 0.0
H340 H 0.50776 0.37613 0.78271 0.0
H341 H 0.52707 0.41137 0.79669 0.0
C342 C 0.62085 0.58355 0.80958 0.0
C343 C 0.65311 0.56106 0.8086 0.0
C344 C 0.58562 0.56718 0.81091 0.0
C345 C 0.58186 0.52797 0.81125 0.0
C346 C 0.6141 0.50536 0.81044 0.0
C347 C 0.64955 0.52179 0.80921 0.0
C348 C 0.54388 0.51085 0.81173 0.0
C349 C 0.53209 0.4884 0.80427 0.0
C350 C 0.51821 0.51942 0.81895 0.0
C351 C 0.52952 0.54203 0.82716 0.0
C352 C 0.56117 0.53186 0.83246 0.0
C353 C 0.57184 0.55343 0.84015 0.0
C354 C 0.55096 0.58512 0.84264 0.0
C355 C 0.51929 0.59526 0.83747 0.0
C356 C 0.50852 0.57381 0.82977 0.0
C357 C 0.38942 0.4139 0.80885 0.0
C358 C 0.35782 0.43763 0.80883 0.0
C359 C 0.42541 0.42861 0.81 0.0
C360 C 0.43075 0.46747 0.81098 0.0
C361 C 0.39914 0.49114 0.81145 0.0
C362 C 0.36286 0.47629 0.8104 0.0
C363 C 0.46943 0.48322 0.81097 0.0
C364 C 0.48125 0.50557 0.81846 0.0
C365 C 0.49513 0.47493 0.80373 0.0
C366 C 0.48373 0.45379 0.79529 0.0
C367 C 0.45327 0.46609 0.78984 0.0
C368 C 0.44243 0.44586 0.78195 0.0
C369 C 0.46203 0.41343 0.77939 0.0
C370 C 0.49257 0.40123 0.78471 0.0
C371 C 0.5035 0.42133 0.79261 0.0
H372 H 0.45359 0.3978 0.77328 0.0
H373 H 0.55926 0.60178 0.84859 0.0
H374 H 0.49857 0.17098 0.05969 0.0
H375 H 0.52663 0.10851 0.06194 0.0
H376 H 0.41651 0.05812 0.0608 0.0
H377 H 0.38844 0.12005 0.05853 0.0
H378 H 0.46246 0.02507 0.07429 0.0
H379 H 0.46664 0.0597 0.04179 0.0
H380 H 0.48286 0.10057 0.02852 0.0
H381 H 0.59994 0.09143 0.03539 0.0
H382 H 0.58432 0.05092 0.04879 0.0
H383 H 0.50837 0.83615 0.06051 0.0
H384 H 0.4821 0.8995 0.06254 0.0
H385 H 0.59328 0.94691 0.06008 0.0
H386 H 0.61929 0.88432 0.05782 0.0
H387 H 0.5477 0.98252 0.0491 0.0
H388 H 0.54449 0.94433 0.08107 0.0
H389 H 0.52845 0.90357 0.09437 0.0
H390 H 0.41094 0.91899 0.08877 0.0
H391 H 0.42628 0.95946 0.07535 0.0
C392 C 0.48037 0.14662 0.06007 0.0
C393 C 0.44139 0.15033 0.05884 0.0
C394 C 0.49639 0.11099 0.06133 0.0
C395 C 0.47361 0.07869 0.06145 0.0
C396 C 0.43456 0.08264 0.06073 0.0
C397 C 0.41862 0.11807 0.05937 0.0
C398 C 0.4904 0.04053 0.06156 0.0
C399 C 0.48098 0.01559 0.06877 0.0
C400 C 0.51486 0.02842 0.05442 0.0
C401 C 0.52428 0.05267 0.04635 0.0
C402 C 0.49581 0.06669 0.04052 0.0
C403 C 0.5049 0.08973 0.03297 0.0
C404 C 0.5424 0.09869 0.03113 0.0
C405 C 0.57089 0.08453 0.03683 0.0
C406 C 0.56195 0.06152 0.0444 0.0
C407 C 0.52714 0.86012 0.06051 0.0
C408 C 0.5658 0.85532 0.05892 0.0
C409 C 0.51217 0.89628 0.06171 0.0
C410 C 0.53575 0.92805 0.06148 0.0
C411 C 0.57448 0.92295 0.06022 0.0
C412 C 0.58931 0.88707 0.05894 0.0
C413 C 0.52021 0.96682 0.0619 0.0
C414 C 0.5296 0.99191 0.05471 0.0
C415 C 0.49587 0.97897 0.06909 0.0
C416 C 0.48655 0.95462 0.07715 0.0
C417 C 0.51523 0.93877 0.08263 0.0
C418 C 0.50626 0.91577 0.0902 0.0
C419 C 0.4687 0.90861 0.0924 0.0
C420 C 0.44002 0.92452 0.08705 0.0
C421 C 0.44884 0.94752 0.07947 0.0
H422 H 0.46181 0.89081 0.09827 0.0
H423 H 0.54938 0.11652 0.02527 0.0
H424 H 0.1194 0.3825 0.92691 0.0
H425 H 0.05711 0.41009 0.9249 0.0
H426 H 0.10593 0.52107 0.92483 0.0
H427 H 0.16872 0.4935 0.92679 0.0
H428 H 0.04714 0.51261 0.93744 0.0
H429 H 0.07054 0.48774 0.90526 0.0
H430 H 0.08843 0.4493 0.8917 0.0
H431 H 0.99639 0.37434 0.89708 0.0
H432 H 0.97825 0.41204 0.91076 0.0
H433 H 0.8835 0.61293 0.92818 0.0
H434 H 0.94558 0.5856 0.92603 0.0
H435 H 0.89669 0.47473 0.92491 0.0
H436 H 0.83374 0.50224 0.92691 0.0
H437 H 0.9556 0.48302 0.91245 0.0
H438 H 0.93378 0.50472 0.94483 0.0
H439 H 0.91567 0.54134 0.95868 0.0
H440 H 0.00491 0.61967 0.95333 0.0
H441 H 0.02321 0.5838 0.93936 0.0
C442 C 0.11699 0.41278 0.92635 0.0
C443 C 0.14893 0.43588 0.92705 0.0
C444 C 0.08136 0.42847 0.92515 0.0
C445 C 0.07691 0.4676 0.92467 0.0
C446 C 0.10883 0.49077 0.92516 0.0
C447 C 0.14464 0.47502 0.92625 0.0
C448 C 0.03866 0.48415 0.9244 0.0
C449 C 0.02736 0.50673 0.93189 0.0
C450 C 0.01246 0.47526 0.91732 0.0
C451 C 0.02324 0.45254 0.90909 0.0
C452 C 0.0543 0.46287 0.9036 0.0
C453 C 0.06445 0.44125 0.89588 0.0
C454 C 0.04362 0.40934 0.89354 0.0
C455 C 0.01253 0.39904 0.89891 0.0
C456 C 0.00227 0.42055 0.90664 0.0
C457 C 0.88578 0.58273 0.92739 0.0
C458 C 0.85376 0.55965 0.92784 0.0
C459 C 0.92135 0.56715 0.92617 0.0
C460 C 0.92587 0.52809 0.92551 0.0
C461 C 0.89382 0.50497 0.92545 0.0
C462 C 0.85793 0.52067 0.92661 0.0
C463 C 0.96427 0.51173 0.92545 0.0
C464 C 0.9755 0.48906 0.91796 0.0
C465 C 0.99045 0.5202 0.93257 0.0
C466 C 0.97963 0.54177 0.941 0.0
C467 C 0.94936 0.52992 0.94656 0.0
C468 C 0.93908 0.55051 0.95444 0.0
C469 C 0.95906 0.58286 0.95687 0.0
C470 C 0.98942 0.59463 0.95143 0.0
C471 C 0.99978 0.57416 0.94354 0.0
H472 H 0.95107 0.59877 0.96297 0.0
H473 H 0.05152 0.39264 0.88756 0.0
H474 H 0.49805 0.333 0.17651 0.0
H475 H 0.526 0.39566 0.17452 0.0
H476 H 0.41545 0.44535 0.17475 0.0
H477 H 0.38751 0.38325 0.1767 0.0
H478 H 0.4609 0.47906 0.16184 0.0
H479 H 0.46579 0.44413 0.19421 0.0
H480 H 0.48225 0.40362 0.20753 0.0
H481 H 0.59933 0.41399 0.20077 0.0
H482 H 0.58349 0.45416 0.18732 0.0
H483 H 0.50677 0.66818 0.17602 0.0
H484 H 0.48038 0.60485 0.17394 0.0
H485 H 0.59187 0.55755 0.17534 0.0
H486 H 0.6181 0.62007 0.17753 0.0
H487 H 0.54669 0.52194 0.18686 0.0
H488 H 0.54183 0.56034 0.15488 0.0
H489 H 0.52481 0.60122 0.14168 0.0
H490 H 0.40772 0.58522 0.1477 0.0
H491 H 0.42406 0.54463 0.16102 0.0
C492 C 0.47976 0.35725 0.176 0.0
C493 C 0.44063 0.35324 0.17685 0.0
C494 C 0.49572 0.39301 0.17489 0.0
C495 C 0.47278 0.42522 0.17459 0.0
C496 C 0.43368 0.42096 0.17497 0.0
C497 C 0.41778 0.3854 0.17614 0.0
C498 C 0.4893 0.46359 0.1745 0.0
C499 C 0.4795 0.48858 0.16733 0.0
C500 C 0.51384 0.47586 0.18161 0.0
C501 C 0.52343 0.45176 0.1897 0.0
C502 C 0.49502 0.4375 0.19551 0.0
C503 C 0.50424 0.41465 0.2031 0.0
C504 C 0.54181 0.40614 0.20498 0.0
C505 C 0.57024 0.42054 0.1993 0.0
C506 C 0.56116 0.44336 0.19169 0.0
C507 C 0.5256 0.64428 0.17574 0.0
C508 C 0.56446 0.6491 0.17701 0.0
C509 C 0.51054 0.60812 0.17454 0.0
C510 C 0.53417 0.57637 0.1745 0.0
C511 C 0.57304 0.5815 0.17541 0.0
C512 C 0.58799 0.61736 0.17665 0.0
C513 C 0.51867 0.53755 0.17413 0.0
C514 C 0.52843 0.51246 0.18129 0.0
C515 C 0.4941 0.52532 0.16701 0.0
C516 C 0.48419 0.54976 0.15901 0.0
C517 C 0.51246 0.56581 0.15344 0.0
C518 C 0.50294 0.58887 0.14592 0.0
C519 C 0.46521 0.5959 0.14386 0.0
C520 C 0.43693 0.5798 0.14931 0.0
C521 C 0.44631 0.55674 0.15684 0.0
H522 H 0.45789 0.61376 0.13804 0.0
H523 H 0.5489 0.38846 0.21085 0.0
H524 H 0.38158 0.11787 0.42822 0.0
H525 H 0.44391 0.09056 0.42619 0.0
H526 H 0.3951 0.97966 0.42509 0.0
H527 H 0.3322 0.00698 0.4271 0.0
H528 H 0.45342 0.98579 0.43777 0.0
H529 H 0.43142 0.01681 0.40582 0.0
H530 H 0.41411 0.0579 0.39269 0.0
H531 H 0.50588 0.13169 0.39919 0.0
H532 H 0.52342 0.09133 0.41246 0.0
H533 H 0.6179 0.88779 0.42796 0.0
H534 H 0.55579 0.91523 0.42598 0.0
H535 H 0.60432 0.02636 0.42596 0.0
H536 H 0.66733 0.99875 0.42779 0.0
H537 H 0.54603 0.02019 0.41339 0.0
H538 H 0.5664 0.99268 0.44556 0.0
H539 H 0.58392 0.95372 0.45907 0.0
H540 H 0.49516 0.8762 0.45266 0.0
H541 H 0.47745 0.91443 0.43901 0.0
C542 C 0.38399 0.08768 0.42744 0.0
C543 C 0.352 0.06452 0.42786 0.0
C544 C 0.41966 0.07214 0.42623 0.0
C545 C 0.42414 0.03312 0.42544 0.0
C546 C 0.39219 0.00989 0.42566 0.0
C547 C 0.35633 0.0255 0.42678 0.0
C548 C 0.46242 0.01664 0.42508 0.0
C549 C 0.47343 0.99273 0.43234 0.0
C550 C 0.48894 0.02691 0.41819 0.0
C551 C 0.47853 0.0512 0.41019 0.0
C552 C 0.44772 0.04197 0.4045 0.0
C553 C 0.4379 0.0651 0.39702 0.0
C554 C 0.45883 0.09743 0.39512 0.0
C555 C 0.48967 0.10666 0.40068 0.0
C556 C 0.49959 0.08364 0.40817 0.0
C557 C 0.61553 0.91809 0.42745 0.0
C558 C 0.64746 0.94117 0.42816 0.0
C559 C 0.57993 0.93373 0.42632 0.0
C560 C 0.5753 0.97285 0.42603 0.0
C561 C 0.60728 0.99606 0.42624 0.0
C562 C 0.6432 0.98031 0.42729 0.0
C563 C 0.53684 0.98908 0.42604 0.0
C564 C 0.5259 0.01308 0.41878 0.0
C565 C 0.51035 0.97924 0.43299 0.0
C566 C 0.52084 0.95623 0.44121 0.0
C567 C 0.55081 0.96717 0.44698 0.0
C568 C 0.56074 0.94524 0.45467 0.0
C569 C 0.54073 0.91246 0.45671 0.0
C570 C 0.51067 0.90158 0.45106 0.0
C571 C 0.50065 0.92338 0.44336 0.0
H572 H 0.54846 0.89552 0.46267 0.0
H573 H 0.45118 0.1153 0.38932 0.0
H574 H 0.10549 0.11911 0.6848 0.0
H575 H 0.07818 0.0575 0.68204 0.0
H576 H 0.98087 0.10937 0.66956 0.0
H577 H 0.00799 0.17182 0.67248 0.0
H578 H 0.96132 0.05557 0.6818 0.0
H579 H 0.04664 0.06296 0.65613 0.0
H580 H 0.10768 0.07437 0.64851 0.0
H581 H 0.15769 0.98582 0.66462 0.0
H582 H 0.09709 0.97421 0.67243 0.0
H583 H 0.88638 0.87804 0.67152 0.0
H584 H 0.91216 0.94087 0.66898 0.0
H585 H 0.01961 0.90349 0.67942 0.0
H586 H 0.9943 0.83987 0.68144 0.0
H587 H 0.03107 0.95219 0.66634 0.0
H588 H 0.95049 0.9503 0.69341 0.0
H589 H 0.89122 0.93934 0.70189 0.0
H590 H 0.83442 0.01788 0.68406 0.0
H591 H 0.89329 0.02897 0.67541 0.0
C592 C 0.07835 0.11758 0.68141 0.0
C593 C 0.0589 0.15043 0.67885 0.0
C594 C 0.06288 0.0822 0.67978 0.0
C595 C 0.02777 0.0787 0.67544 0.0
C596 C 0.00815 0.11142 0.67286 0.0
C597 C 0.02364 0.14704 0.67453 0.0
C598 C 0.01104 0.0408 0.6741 0.0
C599 C 0.97619 0.03317 0.67824 0.0
C600 C 0.03092 0.01127 0.66968 0.0
C601 C 0.06732 0.01785 0.6649 0.0
C602 C 0.07069 0.04605 0.65808 0.0
C603 C 0.10522 0.05254 0.65373 0.0
C604 C 0.13655 0.03087 0.65609 0.0
C605 C 0.1334 0.00258 0.66279 0.0
C606 C 0.09894 0.99599 0.66717 0.0
C607 C 0.91568 0.88313 0.67312 0.0
C608 C 0.93831 0.8543 0.67675 0.0
C609 C 0.93034 0.91912 0.67173 0.0
C610 C 0.96753 0.92736 0.67429 0.0
C611 C 0.99075 0.89798 0.67745 0.0
C612 C 0.97632 0.86164 0.67861 0.0
C613 C 0.98156 0.96682 0.67416 0.0
C614 C 0.01593 0.97472 0.66978 0.0
C615 C 0.96146 0.99658 0.67846 0.0
C616 C 0.92617 0.99017 0.68371 0.0
C617 C 0.9253 0.96507 0.69127 0.0
C618 C 0.8918 0.95885 0.69611 0.0
C619 C 0.85906 0.97782 0.6935 0.0
C620 C 0.85979 0.00316 0.68607 0.0
C621 C 0.89321 0.00945 0.6812 0.0
H622 H 0.83314 0.97296 0.69725 0.0
H623 H 0.16326 0.03596 0.65272 0.0
H624 H 0.60007 0.87033 0.30578 0.0
H625 H 0.54119 0.90501 0.30541 0.0
H626 H 0.6004 0.00479 0.29662 0.0
H627 H 0.66013 0.97027 0.29734 0.0
H628 H 0.54885 0.023 0.30874 0.0
H629 H 0.54859 0.94818 0.2811 0.0
H630 H 0.55413 0.89009 0.27184 0.0
H631 H 0.46127 0.84177 0.28671 0.0
H632 H 0.45548 0.8994 0.29614 0.0
H633 H 0.39224 0.12177 0.29186 0.0
H634 H 0.44966 0.08493 0.29248 0.0
H635 H 0.38951 0.99339 0.30532 0.0
H636 H 0.33118 0.03033 0.30474 0.0
H637 H 0.44049 0.97058 0.2913 0.0
H638 H 0.44109 0.04815 0.3187 0.0
H639 H 0.43592 0.10786 0.32732 0.0
H640 H 0.52907 0.15292 0.31195 0.0
H641 H 0.53446 0.09364 0.30314 0.0
C642 C 0.60067 0.89968 0.30376 0.0
C643 C 0.63476 0.91748 0.30148 0.0
C644 C 0.56686 0.91945 0.30351 0.0
C645 C 0.5661 0.95728 0.30075 0.0
C646 C 0.60022 0.97551 0.29871 0.0
C647 C 0.63432 0.95581 0.29911 0.0
C648 C 0.52964 0.97759 0.30005 0.0
C649 C 0.52538 0.01175 0.30481 0.0
C650 C 0.4986 0.9626 0.29509 0.0
C651 C 0.50182 0.928 0.28938 0.0
C652 C 0.5295 0.92508 0.28243 0.0
C653 C 0.53267 0.89224 0.27715 0.0
C654 C 0.50813 0.86223 0.2787 0.0
C655 C 0.48029 0.86503 0.28552 0.0
C656 C 0.47702 0.89779 0.29083 0.0
C657 C 0.39091 0.09376 0.2948 0.0
C658 C 0.35698 0.07922 0.29835 0.0
C659 C 0.42393 0.07277 0.29516 0.0
C660 C 0.424 0.03674 0.29909 0.0
C661 C 0.39004 0.02131 0.30231 0.0
C662 C 0.35676 0.04244 0.30197 0.0
C663 C 0.45991 0.01584 0.29997 0.0
C664 C 0.46402 0.98166 0.29523 0.0
C665 C 0.49094 0.031 0.30486 0.0
C666 C 0.48798 0.06655 0.31022 0.0
C667 C 0.46031 0.07088 0.31712 0.0
C668 C 0.45736 0.10463 0.32204 0.0
C669 C 0.4821 0.13419 0.32017 0.0
C670 C 0.50991 0.13001 0.31338 0.0
C671 C 0.51295 0.09632 0.30843 0.0
H672 H 0.47977 0.1603 0.32399 0.0
H673 H 0.51063 0.83682 0.2746 0.0
H674 H 0.97375 0.83618 0.55011 0.0
H675 H 0.00909 0.89531 0.55021 0.0
H676 H 0.90536 0.95752 0.55237 0.0
H677 H 0.87002 0.89906 0.55198 0.0
H678 H 0.94827 0.99112 0.54058 0.0
H679 H 0.96582 0.94215 0.57142 0.0
H680 H 0.98381 0.89502 0.5832 0.0
H681 H 0.0971 0.89545 0.57292 0.0
H682 H 0.07965 0.94225 0.561 0.0
H683 H 0.03204 0.1667 0.55417 0.0
H684 H 0.99483 0.10855 0.55432 0.0
H685 H 0.09503 0.0439 0.54898 0.0
H686 H 0.13218 0.10118 0.54884 0.0
H687 H 0.05293 0.01266 0.56272 0.0
H688 H 0.03387 0.06179 0.53174 0.0
H689 H 0.01505 0.10975 0.52024 0.0
H690 H 0.90302 0.11002 0.53134 0.0
H691 H 0.92134 0.06242 0.54299 0.0
C692 C 0.95851 0.86247 0.55061 0.0
C693 C 0.91904 0.86277 0.55104 0.0
C694 C 0.97874 0.89628 0.5507 0.0
C695 C 0.95993 0.93098 0.55142 0.0
C696 C 0.92057 0.93123 0.5518 0.0
C697 C 0.90038 0.89763 0.55158 0.0
C698 C 0.98094 0.96717 0.55174 0.0
C699 C 0.97082 0.99594 0.54551 0.0
C700 C 0.01075 0.97346 0.55808 0.0
C701 C 0.02133 0.94542 0.56526 0.0
C702 C 0.9945 0.93199 0.57163 0.0
C703 C 0.00461 0.90537 0.57834 0.0
C704 C 0.04155 0.89218 0.57879 0.0
C705 C 0.06848 0.90566 0.57255 0.0
C706 C 0.05851 0.93225 0.56582 0.0
C707 C 0.04612 0.1401 0.55303 0.0
C708 C 0.08514 0.13877 0.55147 0.0
C709 C 0.02481 0.10692 0.5531 0.0
C710 C 0.04218 0.0719 0.55162 0.0
C711 C 0.08105 0.07055 0.55015 0.0
C712 C 0.10223 0.10351 0.55004 0.0
C713 C 0.02023 0.03639 0.55156 0.0
C714 C 0.03023 0.00779 0.55782 0.0
C715 C 0.99014 0.03035 0.54531 0.0
C716 C 0.97909 0.05887 0.5383 0.0
C717 C 0.00531 0.07232 0.53177 0.0
C718 C 0.99472 0.09939 0.52522 0.0
C719 C 0.95789 0.11301 0.52508 0.0
C720 C 0.93155 0.0995 0.53147 0.0
C721 C 0.94202 0.07246 0.53804 0.0
H722 H 0.94974 0.13396 0.52 0.0
H723 H 0.04932 0.87157 0.58399 0.0
H724 H 0.10615 0.3721 0.80309 0.0
H725 H 0.04812 0.40811 0.80296 0.0
H726 H 0.11142 0.51091 0.80008 0.0
H727 H 0.17029 0.47477 0.80049 0.0
H728 H 0.05389 0.52044 0.81178 0.0
H729 H 0.06816 0.46902 0.78128 0.0
H730 H 0.07983 0.4184 0.76992 0.0
H731 H 0.98043 0.36095 0.77911 0.0
H732 H 0.96852 0.41089 0.79065 0.0
H733 H 0.90232 0.63154 0.79638 0.0
H734 H 0.96032 0.59545 0.79653 0.0
H735 H 0.89809 0.4945 0.80269 0.0
H736 H 0.83924 0.53058 0.80257 0.0
H737 H 0.955 0.48449 0.78911 0.0
H738 H 0.94213 0.53647 0.81982 0.0
H739 H 0.9319 0.58715 0.83124 0.0
H740 H 0.0299 0.64473 0.8212 0.0
H741 H 0.04041 0.59462 0.80962 0.0
C742 C 0.1079 0.4024 0.80245 0.0
C743 C 0.1429 0.42056 0.80169 0.0
C744 C 0.07458 0.42296 0.80234 0.0
C745 C 0.07528 0.46214 0.80127 0.0
C746 C 0.11019 0.48063 0.80084 0.0
C747 C 0.14379 0.46 0.80108 0.0
C748 C 0.03941 0.48339 0.8005 0.0
C749 C 0.03254 0.51294 0.80672 0.0
C750 C 0.01116 0.47312 0.79402 0.0
C751 C 0.01759 0.4436 0.78688 0.0
C752 C 0.04886 0.44552 0.78091 0.0
C753 C 0.05554 0.41694 0.77444 0.0
C754 C 0.03092 0.38646 0.77381 0.0
C755 C 0.99949 0.38458 0.77962 0.0
C756 C 0.99274 0.41303 0.78612 0.0
C757 C 0.90065 0.60163 0.79774 0.0
C758 C 0.86591 0.58409 0.79955 0.0
C759 C 0.93402 0.58105 0.79783 0.0
C760 C 0.9336 0.54242 0.79974 0.0
C761 C 0.899 0.52438 0.80124 0.0
C762 C 0.86542 0.54505 0.80119 0.0
C763 C 0.96957 0.5214 0.8004 0.0
C764 C 0.97643 0.49195 0.79414 0.0
C765 C 0.99795 0.53193 0.8068 0.0
C766 C 0.99185 0.56196 0.8138 0.0
C767 C 0.96133 0.56008 0.82 0.0
C768 C 0.95551 0.58868 0.82651 0.0
C769 C 0.98018 0.61919 0.82693 0.0
C770 C 0.01079 0.6211 0.82086 0.0
C771 C 0.01671 0.59259 0.81433 0.0
H772 H 0.97563 0.6413 0.83197 0.0
H773 H 0.03618 0.36432 0.76881 0.0
H774 H 0.533 0.6666 0.04826 0.0
H775 H 0.49707 0.60778 0.04785 0.0
H776 H 0.59488 0.54691 0.05731 0.0
H777 H 0.63105 0.60504 0.05728 0.0
H778 H 0.56562 0.50971 0.04415 0.0
H779 H 0.51473 0.56784 0.07161 0.0
H780 H 0.48445 0.61809 0.08075 0.0
H781 H 0.38711 0.61258 0.06315 0.0
H782 H 0.417 0.5626 0.05384 0.0
H783 H 0.47099 0.33792 0.05571 0.0
H784 H 0.50679 0.39673 0.05639 0.0
H785 H 0.41394 0.45603 0.04388 0.0
H786 H 0.37799 0.39793 0.04324 0.0
H787 H 0.44039 0.49345 0.05871 0.0
H788 H 0.49269 0.43447 0.03138 0.0
H789 H 0.52343 0.38329 0.02266 0.0
H790 H 0.61915 0.3895 0.04077 0.0
H791 H 0.58875 0.44041 0.04968 0.0
C792 C 0.54662 0.64067 0.05032 0.0
C793 C 0.58482 0.64039 0.05278 0.0
C794 C 0.52607 0.60705 0.05012 0.0
C795 C 0.5431 0.57276 0.05263 0.0
C796 C 0.58106 0.5728 0.05528 0.0
C797 C 0.60171 0.60613 0.05529 0.0
C798 C 0.52212 0.53653 0.05223 0.0
C799 C 0.53847 0.50611 0.04746 0.0
C800 C 0.48631 0.53177 0.05636 0.0
C801 C 0.46826 0.56174 0.06197 0.0
C802 C 0.48697 0.57753 0.06965 0.0
C803 C 0.46986 0.60593 0.07487 0.0
C804 C 0.43392 0.61859 0.07252 0.0
C805 C 0.41497 0.60279 0.06496 0.0
C806 C 0.43196 0.5744 0.05971 0.0
C807 C 0.4583 0.36342 0.05304 0.0
C808 C 0.42152 0.36308 0.04945 0.0
C809 C 0.47881 0.39702 0.05343 0.0
C810 C 0.46305 0.4308 0.05016 0.0
C811 C 0.4266 0.43039 0.04648 0.0
C812 C 0.40612 0.39699 0.0461 0.0
C813 C 0.48404 0.46685 0.05069 0.0
C814 C 0.46763 0.49717 0.05545 0.0
C815 C 0.51993 0.47144 0.04663 0.0
C816 C 0.53829 0.44099 0.04124 0.0
C817 C 0.52017 0.42473 0.03354 0.0
C818 C 0.53756 0.39581 0.02856 0.0
C819 C 0.57318 0.38309 0.03117 0.0
C820 C 0.59154 0.39935 0.03876 0.0
C821 C 0.57426 0.42825 0.04377 0.0
H822 H 0.58659 0.36069 0.02731 0.0
H823 H 0.42072 0.64058 0.07656 0.0
H824 H 0.33563 0.47024 0.94064 0.0
H825 H 0.39405 0.50692 0.94152 0.0
H826 H 0.45584 0.4125 0.93046 0.0
H827 H 0.39831 0.3756 0.93002 0.0
H828 H 0.49312 0.43886 0.94397 0.0
H829 H 0.43185 0.49604 0.91747 0.0
H830 H 0.38036 0.52859 0.90926 0.0
H831 H 0.3883 0.6211 0.92834 0.0
H832 H 0.43955 0.58889 0.93672 0.0
H833 H 0.66386 0.53169 0.9313 0.0
H834 H 0.60423 0.4972 0.9312 0.0
H835 H 0.54961 0.59057 0.94474 0.0
H836 H 0.60845 0.62529 0.94473 0.0
H837 H 0.50832 0.56641 0.93056 0.0
H838 H 0.57147 0.50952 0.95663 0.0
H839 H 0.62362 0.47699 0.96457 0.0
H840 H 0.61265 0.38349 0.94588 0.0
H841 H 0.56074 0.41569 0.93775 0.0
C842 C 0.36172 0.45759 0.93834 0.0
C843 C 0.36249 0.42009 0.93529 0.0
C844 C 0.39508 0.47854 0.93882 0.0
C845 C 0.42952 0.46263 0.93599 0.0
C846 C 0.42987 0.42542 0.93276 0.0
C847 C 0.39688 0.40436 0.93248 0.0
C848 C 0.46555 0.48388 0.93657 0.0
C849 C 0.49646 0.46657 0.94092 0.0
C850 C 0.46994 0.52047 0.93283 0.0
C851 C 0.43925 0.53989 0.92777 0.0
C852 C 0.42243 0.52321 0.91994 0.0
C853 C 0.39333 0.54162 0.91526 0.0
C854 C 0.381 0.57684 0.91829 0.0
C855 C 0.39783 0.59379 0.926 0.0
C856 C 0.42693 0.5755 0.93072 0.0
C857 C 0.63923 0.54475 0.93432 0.0
C858 C 0.64107 0.58132 0.93801 0.0
C859 C 0.60514 0.52498 0.93427 0.0
C860 C 0.57241 0.54125 0.938 0.0
C861 C 0.57437 0.57749 0.94179 0.0
C862 C 0.60822 0.59725 0.9418 0.0
C863 C 0.53582 0.52107 0.93781 0.0
C864 C 0.50486 0.53866 0.93358 0.0
C865 C 0.53142 0.48465 0.94161 0.0
C866 C 0.56245 0.46516 0.94653 0.0
C867 C 0.58036 0.48213 0.95417 0.0
C868 C 0.60984 0.46374 0.95871 0.0
C869 C 0.6215 0.42823 0.95572 0.0
C870 C 0.60362 0.41101 0.94819 0.0
C871 C 0.57414 0.4293 0.94362 0.0
H872 H 0.64434 0.41404 0.95924 0.0
H873 H 0.35845 0.59104 0.91466 0.0
H874 H 0.63078 0.89848 0.19088 0.0
H875 H 0.59515 0.95648 0.19119 0.0
H876 H 0.49304 0.89476 0.18588 0.0
H877 H 0.52911 0.836 0.18519 0.0
H878 H 0.49357 0.9545 0.17558 0.0
H879 H 0.51376 0.93536 0.20811 0.0
H880 H 0.54944 0.92241 0.22247 0.0
H881 H 0.618 0.01975 0.21757 0.0
H882 H 0.58265 0.03333 0.20318 0.0
H883 H 0.37136 0.10296 0.18828 0.0
H884 H 0.40777 0.04515 0.18878 0.0
H885 H 0.51036 0.10876 0.18638 0.0
H886 H 0.47391 0.16748 0.18574 0.0
H887 H 0.50912 0.04892 0.2007 0.0
H888 H 0.48438 0.06781 0.16809 0.0
H889 H 0.44404 0.08055 0.1545 0.0
H890 H 0.37958 0.98128 0.16036 0.0
H891 H 0.4192 0.96825 0.17408 0.0
C892 C 0.6007 0.89691 0.18981 0.0
C893 C 0.5829 0.86229 0.188 0.0
C894 C 0.58023 0.93033 0.19008 0.0
C895 C 0.5412 0.93017 0.18873 0.0
C896 C 0.52313 0.89568 0.18697 0.0
C897 C 0.54377 0.86206 0.1866 0.0
C898 C 0.51984 0.96629 0.18877 0.0
C899 C 0.49658 0.97479 0.18116 0.0
C900 C 0.52422 0.99338 0.19594 0.0
C901 C 0.54572 0.98521 0.20454 0.0
C902 C 0.53655 0.95391 0.21008 0.0
C903 C 0.55659 0.94656 0.21824 0.0
C904 C 0.58594 0.97026 0.22093 0.0
C905 C 0.59521 0.00145 0.21548 0.0
C906 C 0.57509 0.00908 0.20735 0.0
C907 C 0.40168 0.10498 0.18787 0.0
C908 C 0.41965 0.1401 0.1869 0.0
C909 C 0.42243 0.07173 0.18814 0.0
C910 C 0.46169 0.07263 0.18754 0.0
C911 C 0.48001 0.10752 0.18683 0.0
C912 C 0.45915 0.141 0.18643 0.0
C913 C 0.48314 0.03683 0.18753 0.0
C914 C 0.50629 0.02847 0.19514 0.0
C915 C 0.47821 0.00966 0.18045 0.0
C916 C 0.45455 0.01726 0.17216 0.0
C917 C 0.46141 0.04887 0.16653 0.0
C918 C 0.43871 0.05611 0.15879 0.0
C919 C 0.40921 0.03179 0.15658 0.0
C920 C 0.40241 1.00011 0.16209 0.0
C921 C 0.42501 0.99277 0.16984 0.0
H922 H 0.39166 0.03745 0.15059 0.0
H923 H 0.60157 0.96438 0.22723 0.0
H924 H 0.89381 0.87187 0.43017 0.0
H925 H 0.95277 0.90653 0.43005 0.0
H926 H 0.8973 0.00192 0.44254 0.0
H927 H 0.83734 0.96771 0.44216 0.0
H928 H 0.9428 0.02622 0.43021 0.0
H929 H 0.95999 0.93722 0.45535 0.0
H930 H 0.96195 0.87466 0.46282 0.0
H931 H 0.04269 0.83719 0.44269 0.0
H932 H 0.04158 0.89957 0.43517 0.0
H933 H 0.10592 0.12096 0.44458 0.0
H934 H 0.04834 0.08417 0.44452 0.0
H935 H 0.10376 0.99689 0.42887 0.0
H936 H 0.16222 0.03356 0.429 0.0
H937 H 0.05939 0.96804 0.44251 0.0
H938 H 0.04478 0.05871 0.41806 0.0
H939 H 0.04501 0.12223 0.41117 0.0
H940 H 0.95912 0.15708 0.43029 0.0
H941 H 0.95873 0.09389 0.43737 0.0
C942 C 0.89416 0.90025 0.4329 0.0
C943 C 0.86103 0.91703 0.43624 0.0
C944 C 0.92804 0.91997 0.43291 0.0
C945 C 0.92998 0.95654 0.43654 0.0
C946 C 0.89671 0.97364 0.43975 0.0
C947 C 0.86245 0.95415 0.43953 0.0
C948 C 0.96651 0.97713 0.43676 0.0
C949 C 0.96809 0.01364 0.43305 0.0
C950 C 1.00002 0.9605 0.44019 0.0
C951 C 1.00044 0.92292 0.44466 0.0
C952 C 0.97797 0.91555 0.45249 0.0
C953 C 0.97897 0.88017 0.45674 0.0
C954 C 0.00217 0.85192 0.45319 0.0
C955 C 0.02467 0.85907 0.44542 0.0
C956 C 0.024 0.89446 0.44119 0.0
C957 C 0.10609 0.09392 0.44112 0.0
C958 C 0.13872 0.08044 0.43669 0.0
C959 C 0.07297 0.07296 0.44107 0.0
C960 C 0.07144 0.03816 0.43651 0.0
C961 C 0.10424 0.02385 0.43237 0.0
C962 C 0.13763 0.04482 0.43245 0.0
C963 C 0.0354 0.01708 0.43607 0.0
C964 C 0.03399 0.98053 0.4397 0.0
C965 C 0.00203 0.03372 0.43261 0.0
C966 C 0.00194 0.07164 0.42829 0.0
C967 C 0.02611 0.07998 0.42083 0.0
C968 C 0.02624 0.11592 0.41688 0.0
C969 C 0.00215 0.14369 0.4203 0.0
C970 C 0.97779 0.13555 0.42765 0.0
C971 C 0.97756 0.09966 0.43163 0.0
H972 H 0.00231 0.17151 0.41724 0.0
H973 H 0.00283 0.82455 0.45648 0.0
H974 H 0.12836 0.40101 0.68134 0.0
H975 H 0.09359 0.45986 0.68209 0.0
H976 H 0.99283 0.39905 0.68933 0.0
H977 H 0.0275 0.33945 0.68824 0.0
H978 H 0.97603 0.45403 0.67791 0.0
H979 H 0.04763 0.44619 0.70599 0.0
H980 H 0.10437 0.43775 0.71562 0.0
H981 H 0.15522 0.53391 0.70265 0.0
H982 H 0.09896 0.54265 0.69286 0.0
H983 H 0.87769 0.60979 0.6957 0.0
H984 H 0.91364 0.55165 0.69519 0.0
H985 H 0.00784 0.611 0.68337 0.0
H986 H 0.97186 0.66988 0.6838 0.0
H987 H 0.02759 0.55726 0.69732 0.0
H988 H 0.95436 0.56368 0.66915 0.0
H989 H 0.896 0.57205 0.66013 0.0
H990 H 0.84644 0.47769 0.67418 0.0
H991 H 0.90439 0.46904 0.68336 0.0
C992 C 0.09872 0.40007 0.68304 0.0
C993 C 0.08072 0.36559 0.68481 0.0
C994 C 0.07891 0.43382 0.68353 0.0
C995 C 0.04081 0.43409 0.68603 0.0
C996 C 0.02231 0.3996 0.68746 0.0
C997 C 0.04208 0.36557 0.68682 0.0
C998 C 0.02064 0.47047 0.68718 0.0
C999 C 0.98708 0.47633 0.68226 0.0
C1000 C 0.03532 0.50001 0.69273 0.0
C1001 C 0.06916 0.4949 0.69864 0.0
C1002 C 0.071 0.4654 0.70515 0.0
C1003 C 0.10305 0.46059 0.71065 0.0
C1004 C 0.13338 0.48528 0.70975 0.0
C1005 C 0.1317 0.51483 0.70335 0.0
C1006 C 0.09972 0.51975 0.69783 0.0
C1007 C 0.90615 0.61079 0.69304 0.0
C1008 C 0.92167 0.64462 0.68968 0.0
C1009 C 0.92663 0.57738 0.69275 0.0
C1010 C 0.96312 0.5769 0.6891 0.0
C1011 C 0.97958 0.6108 0.68617 0.0
C1012 C 0.95898 0.6444 0.68642 0.0
C1013 C 0.98325 0.54061 0.68803 0.0
C1014 C 0.01669 0.53483 0.69297 0.0
C1015 C 0.9683 0.51103 0.68258 0.0
C1016 C 0.9336 0.5159 0.67699 0.0
C1017 C 0.93093 0.54487 0.67036 0.0
C1018 C 0.89794 0.54964 0.66521 0.0
C1019 C 0.8675 0.52547 0.6666 0.0
C1020 C 0.87003 0.4964 0.67311 0.0
C1021 C 0.90296 0.49152 0.67828 0.0
H1022 H 0.84197 0.52922 0.66261 0.0
H1023 H 0.15817 0.48152 0.71401 0.0
H1024 H 0.29934 0.20706 0.32849 0.0
H1025 H 0.29867 0.2122 0.34544 0.0
H1026 H 0.20624 0.13386 0.34672 0.0
H1027 H 0.20753 0.12762 0.32981 0.0
H1028 H 0.25155 0.23334 0.35851 0.0
H1029 H 0.21623 0.07601 0.36482 0.0
H1030 H 0.22478 0.0149 0.35698 0.0
H1031 H 0.32128 0.05797 0.34256 0.0
H1032 H 0.31363 0.11912 0.35041 0.0
H1033 H 0.19848 0.20233 0.40551 0.0
H1034 H 0.20409 0.20799 0.38863 0.0
H1035 H 0.30302 0.13774 0.3892 0.0
H1036 H 0.29657 0.13071 0.40601 0.0
H1037 H 0.26045 0.11429 0.37638 0.0
H1038 H 0.30594 0.23553 0.38465 0.0
H1039 H 0.30584 0.29734 0.3924 0.0
H1040 H 0.20504 0.32784 0.37782 0.0
H1041 H 0.20424 0.26599 0.37007 0.0
C1042 C 0.27863 0.19119 0.33237 0.0
C1043 C 0.25382 0.16652 0.32782 0.0
C1044 C 0.27824 0.19424 0.34206 0.0
C1045 C 0.25289 0.17289 0.34736 0.0
C1046 C 0.22665 0.14993 0.34278 0.0
C1047 C 0.22737 0.14644 0.33312 0.0
C1048 C 0.25516 0.17298 0.35766 0.0
C1049 C 0.25348 0.20736 0.36243 0.0
C1050 C 0.25886 0.13916 0.36277 0.0
C1051 C 0.26411 0.10223 0.35814 0.0
C1052 C 0.23937 0.07236 0.36001 0.0
C1053 C 0.24404 0.03774 0.35556 0.0
C1054 C 0.27348 0.0326 0.34925 0.0
C1055 C 0.29841 0.06202 0.34742 0.0
C1056 C 0.29391 0.09667 0.35186 0.0
C1057 C 0.22166 0.18846 0.40204 0.0
C1058 C 0.24696 0.16592 0.40707 0.0
C1059 C 0.22497 0.19186 0.39239 0.0
C1060 C 0.25417 0.17354 0.38763 0.0
C1061 C 0.28014 0.15199 0.3927 0.0
C1062 C 0.27645 0.14802 0.40231 0.0
C1063 C 0.2562 0.17466 0.37731 0.0
C1064 C 0.25864 0.1404 0.3725 0.0
C1065 C 0.25448 0.2087 0.3722 0.0
C1066 C 0.25486 0.24597 0.37684 0.0
C1067 C 0.28359 0.2553 0.38315 0.0
C1068 C 0.28372 0.29037 0.38753 0.0
C1069 C 0.2554 0.31647 0.38562 0.0
C1070 C 0.22694 0.30758 0.3793 0.0
C1071 C 0.22666 0.27254 0.3749 0.0
H1072 H 0.25555 0.3436 0.38903 0.0
H1073 H 0.27701 0.00579 0.3458 0.0
H1074 H 0.78044 0.74241 0.57864 0.0
H1075 H 0.77259 0.73347 0.59543 0.0
H1076 H 0.89276 0.74117 0.59908 0.0
H1077 H 0.9008 0.74827 0.58237 0.0
H1078 H 0.86794 0.6888 0.60965 0.0
H1079 H 0.82809 0.81702 0.60321 0.0
H1080 H 0.78898 0.86554 0.59566 0.0
H1081 H 0.68959 0.81556 0.60724 0.0
H1082 H 0.72811 0.7665 0.61478 0.0
H1083 H 0.89695 0.7551 0.65494 0.0
H1084 H 0.88947 0.75136 0.63811 0.0
H1085 H 0.77356 0.71899 0.64155 0.0
H1086 H 0.78069 0.72244 0.65848 0.0
H1087 H 0.78648 0.77544 0.62767 0.0
H1088 H 0.83038 0.65316 0.63622 0.0
H1089 H 0.87191 0.608 0.64421 0.0
H1090 H 0.96654 0.64981 0.62883 0.0
H1091 H 0.9257 0.69568 0.62086 0.0
C1092 C 0.80513 0.74204 0.58304 0.0
C1093 C 0.84121 0.74616 0.5792 0.0
C1094 C 0.80062 0.73707 0.59263 0.0
C1095 C 0.83205 0.73718 0.59855 0.0
C1096 C 0.86807 0.74083 0.59468 0.0
C1097 C 0.87263 0.74501 0.58511 0.0
C1098 C 0.82799 0.73428 0.60881 0.0
C1099 C 0.85025 0.70791 0.61357 0.0
C1100 C 0.80402 0.75836 0.61396 0.0
C1101 C 0.78091 0.78788 0.60946 0.0
C1102 C 0.79787 0.81626 0.60409 0.0
C1103 C 0.77582 0.84386 0.59983 0.0
C1104 C 0.73681 0.84356 0.60095 0.0
C1105 C 0.71979 0.81571 0.60636 0.0
C1106 C 0.74171 0.78802 0.61064 0.0
C1107 C 0.86976 0.74734 0.65215 0.0
C1108 C 0.83945 0.73889 0.65807 0.0
C1109 C 0.86562 0.74508 0.64253 0.0
C1110 C 0.8311 0.73449 0.63862 0.0
C1111 C 0.80045 0.72705 0.64446 0.0
C1112 C 0.80464 0.72896 0.65412 0.0
C1113 C 0.82752 0.7311 0.62842 0.0
C1114 C 0.8037 0.75604 0.6237 0.0
C1115 C 0.85039 0.70605 0.62331 0.0
C1116 C 0.87498 0.67806 0.62799 0.0
C1117 C 0.86009 0.65292 0.63459 0.0
C1118 C 0.8835 0.62716 0.63911 0.0
C1119 C 0.92185 0.62608 0.63704 0.0
C1120 C 0.93683 0.65069 0.63043 0.0
C1121 C 0.91355 0.67654 0.6259 0.0
H1122 H 0.93993 0.60615 0.64056 0.0
H1123 H 0.71979 0.86495 0.59764 0.0
H1124 H 0.20104 0.29696 0.82865 0.0
H1125 H 0.20295 0.28956 0.8456 0.0
H1126 H 0.3066 0.35209 0.84662 0.0
H1127 H 0.30436 0.36069 0.8297 0.0
H1128 H 0.29349 0.27492 0.8586 0.0
H1129 H 0.24887 0.40372 0.8512 0.0
H1130 H 0.2059 0.44634 0.84282 0.0
H1131 H 0.11088 0.38883 0.85452 0.0
H1132 H 0.1534 0.34545 0.86284 0.0
H1133 H 0.31975 0.33105 0.90495 0.0
H1134 H 0.31643 0.32372 0.88808 0.0
H1135 H 0.19515 0.32755 0.88948 0.0
H1136 H 0.19894 0.3383 0.90631 0.0
H1137 H 0.21279 0.36481 0.87586 0.0
H1138 H 0.2514 0.2426 0.88508 0.0
H1139 H 0.28905 0.19437 0.89315 0.0
H1140 H 0.38732 0.22918 0.87811 0.0
H1141 H 0.35039 0.27796 0.87004 0.0
C1142 C 0.22459 0.30856 0.83247 0.0
C1143 C 0.25249 0.32955 0.82788 0.0
C1144 C 0.22558 0.30431 0.84213 0.0
C1145 C 0.2549 0.32029 0.84729 0.0
C1146 C 0.28386 0.33949 0.84269 0.0
C1147 C 0.28244 0.34451 0.83307 0.0
C1148 C 0.25357 0.32003 0.85753 0.0
C1149 C 0.27615 0.29463 0.86244 0.0
C1150 C 0.22968 0.34472 0.86243 0.0
C1151 C 0.20426 0.3711 0.85753 0.0
C1152 C 0.21882 0.39994 0.8519 0.0
C1153 C 0.19455 0.42428 0.84718 0.0
C1154 C 0.15568 0.42022 0.84811 0.0
C1155 C 0.14099 0.39189 0.85379 0.0
C1156 C 0.16516 0.36744 0.85851 0.0
C1157 C 0.29246 0.33016 0.90161 0.0
C1158 C 0.25959 0.33503 0.90683 0.0
C1159 C 0.29049 0.32555 0.89199 0.0
C1160 C 0.25548 0.32402 0.88746 0.0
C1161 C 0.22253 0.32853 0.89276 0.0
C1162 C 0.22461 0.33454 0.90236 0.0
C1163 C 0.25342 0.31993 0.87716 0.0
C1164 C 0.23003 0.34457 0.87217 0.0
C1165 C 0.27584 0.29366 0.87221 0.0
C1166 C 0.29815 0.26414 0.877 0.0
C1167 C 0.28109 0.24012 0.88353 0.0
C1168 C 0.3023 0.21266 0.8881 0.0
C1169 C 0.34057 0.20876 0.88616 0.0
C1170 C 0.35768 0.23224 0.87962 0.0
C1171 C 0.33661 0.25977 0.87503 0.0
H1172 H 0.35695 0.1875 0.88971 0.0
H1173 H 0.13693 0.43908 0.84445 0.0
H1174 H 0.72723 0.72973 0.07903 0.0
H1175 H 0.73672 0.73409 0.09584 0.0
H1176 H 0.62737 0.785 0.09885 0.0
H1177 H 0.61789 0.78152 0.0821 0.0
H1178 H 0.67614 0.81818 0.11007 0.0
H1179 H 0.641 0.69095 0.10255 0.0
H1180 H 0.6469 0.62991 0.09455 0.0
H1181 H 0.75624 0.61405 0.10656 0.0
H1182 H 0.75116 0.67531 0.11454 0.0
H1183 H 0.60913 0.75603 0.15411 0.0
H1184 H 0.62058 0.75606 0.13735 0.0
H1185 H 0.74007 0.75694 0.14219 0.0
H1186 H 0.729 0.75789 0.15905 0.0
H1187 H 0.69738 0.69924 0.12739 0.0
H1188 H 0.72718 0.82829 0.13596 0.0
H1189 H 0.71444 0.88736 0.14436 0.0
H1190 H 0.60799 0.89729 0.13051 0.0
H1191 H 0.61988 0.8379 0.12214 0.0
C1192 C 0.70535 0.74224 0.08325 0.0
C1193 C 0.67161 0.75492 0.07921 0.0
C1194 C 0.7108 0.74459 0.09286 0.0
C1195 C 0.68253 0.75936 0.09861 0.0
C1196 C 0.64955 0.77345 0.09455 0.0
C1197 C 0.64413 0.77127 0.08496 0.0
C1198 C 0.68616 0.75858 0.10888 0.0
C1199 C 0.68094 0.79217 0.11383 0.0
C1200 C 0.6928 0.72471 0.11381 0.0
C1201 C 0.69591 0.6879 0.10904 0.0
C1202 C 0.66643 0.67458 0.10342 0.0
C1203 C 0.6696 0.63994 0.0989 0.0
C1204 C 0.70198 0.61818 0.10002 0.0
C1205 C 0.73121 0.63099 0.10569 0.0
C1206 C 0.72821 0.66566 0.11021 0.0
C1207 C 0.63788 0.75595 0.15164 0.0
C1208 C 0.66818 0.75712 0.1579 0.0
C1209 C 0.64432 0.75603 0.14207 0.0
C1210 C 0.6811 0.75665 0.1386 0.0
C1211 C 0.7115 0.75654 0.14479 0.0
C1212 C 0.7051 0.7572 0.15439 0.0
C1213 C 0.68715 0.75868 0.12847 0.0
C1214 C 0.69375 0.72532 0.12357 0.0
C1215 C 0.68128 0.79258 0.12358 0.0
C1216 C 0.67425 0.82848 0.12851 0.0
C1217 C 0.7009 0.84288 0.13478 0.0
C1218 C 0.69387 0.87646 0.13952 0.0
C1219 C 0.66038 0.89602 0.13799 0.0
C1220 C 0.6339 0.88209 0.1317 0.0
C1221 C 0.64079 0.84849 0.12695 0.0
H1222 H 0.65498 0.922 0.14167 0.0
H1223 H 0.70438 0.59135 0.09653 0.0
H1224 H 0.7528 0.72363 0.82901 0.0
H1225 H 0.74569 0.73144 0.84584 0.0
H1226 H 0.74964 0.61093 0.84936 0.0
H1227 H 0.75497 0.60297 0.83258 0.0
H1228 H 0.69894 0.63736 0.86013 0.0
H1229 H 0.82762 0.67258 0.85338 0.0
H1230 H 0.87731 0.70953 0.84565 0.0
H1231 H 0.83208 0.81117 0.85724 0.0
H1232 H 0.78185 0.77482 0.86496 0.0
H1233 H 0.76485 0.60745 0.90528 0.0
H1234 H 0.76364 0.61576 0.88847 0.0
H1235 H 0.72897 0.73105 0.8919 0.0
H1236 H 0.72972 0.72307 0.90885 0.0
H1237 H 0.78824 0.71681 0.87791 0.0
H1238 H 0.66414 0.67669 0.88646 0.0
H1239 H 0.61821 0.6364 0.89456 0.0
H1240 H 0.65892 0.53998 0.87969 0.0
H1241 H 0.70553 0.57959 0.87161 0.0
C1242 C 0.75204 0.69884 0.83339 0.0
C1243 C 0.75458 0.66269 0.82949 0.0
C1244 C 0.74813 0.70334 0.84301 0.0
C1245 C 0.74772 0.6718 0.8489 0.0
C1246 C 0.74979 0.63572 0.84497 0.0
C1247 C 0.75293 0.63119 0.83537 0.0
C1248 C 0.74554 0.6759 0.85917 0.0
C1249 C 0.71864 0.65461 0.864 0.0
C1250 C 0.7705 0.69924 0.86424 0.0
C1251 C 0.80077 0.72105 0.85965 0.0
C1252 C 0.82814 0.70284 0.85423 0.0
C1253 C 0.85642 0.72366 0.84986 0.0
C1254 C 0.85778 0.76269 0.85093 0.0
C1255 C 0.83095 0.78095 0.85641 0.0
C1256 C 0.80259 0.76026 0.86078 0.0
C1257 C 0.75724 0.63475 0.90251 0.0
C1258 C 0.74709 0.66454 0.90844 0.0
C1259 C 0.7565 0.63937 0.89289 0.0
C1260 C 0.74584 0.67386 0.88898 0.0
C1261 C 0.73716 0.70419 0.89483 0.0
C1262 C 0.73752 0.69951 0.90449 0.0
C1263 C 0.7426 0.6773 0.87877 0.0
C1264 C 0.76827 0.70007 0.87399 0.0
C1265 C 0.71692 0.6549 0.87373 0.0
C1266 C 0.68852 0.63109 0.87848 0.0
C1267 C 0.66348 0.64685 0.88497 0.0
C1268 C 0.6373 0.62414 0.88955 0.0
C1269 C 0.63569 0.58565 0.88766 0.0
C1270 C 0.6602 0.5698 0.88116 0.0
C1271 C 0.68648 0.59238 0.87657 0.0
H1272 H 0.61541 0.5681 0.89122 0.0
H1273 H 0.87968 0.77876 0.84755 0.0
H1274 H 0.27736 0.24073 0.1573 0.0
H1275 H 0.26774 0.24657 0.14052 0.0
H1276 H 0.38683 0.26336 0.13668 0.0
H1277 H 0.39652 0.25876 0.15341 0.0
H1278 H 0.35001 0.30987 0.12609 0.0
H1279 H 0.34208 0.17678 0.1328 0.0
H1280 H 0.31662 0.12037 0.14055 0.0
H1281 H 0.20737 0.1437 0.12926 0.0
H1282 H 0.23213 0.20053 0.12152 0.0
H1283 H 0.39354 0.24504 0.0815 0.0
H1284 H 0.38347 0.24558 0.09826 0.0
H1285 H 0.26534 0.26622 0.09406 0.0
H1286 H 0.27512 0.26638 0.07714 0.0
H1287 H 0.28987 0.20627 0.10841 0.0
H1288 H 0.30366 0.33638 0.09989 0.0
H1289 H 0.33377 0.38931 0.09169 0.0
H1290 H 0.43698 0.36809 0.10624 0.0
H1291 H 0.40765 0.3146 0.11442 0.0
C1292 C 0.30149 0.24577 0.15288 0.0
C1293 C 0.33775 0.24909 0.1567 0.0
C1294 C 0.29593 0.249 0.14329 0.0
C1295 C 0.32662 0.25492 0.13733 0.0
C1296 C 0.3627 0.25886 0.14114 0.0
C1297 C 0.36822 0.25612 0.15072 0.0
C1298 C 0.32168 0.25644 0.12709 0.0
C1299 C 0.33689 0.28716 0.12225 0.0
C1300 C 0.30372 0.22727 0.12206 0.0
C1301 C 0.28884 0.19312 0.12668 0.0
C1302 C 0.31257 0.17002 0.13203 0.0
C1303 C 0.29828 0.13796 0.13641 0.0
C1304 C 0.26037 0.12853 0.13542 0.0
C1305 C 0.23671 0.15109 0.13003 0.0
C1306 C 0.25085 0.18321 0.12564 0.0
C1307 C 0.36529 0.24935 0.08409 0.0
C1308 C 0.33515 0.25588 0.07797 0.0
C1309 C 0.35965 0.24971 0.09368 0.0
C1310 C 0.32376 0.25618 0.09734 0.0
C1311 C 0.29324 0.26124 0.09131 0.0
C1312 C 0.29894 0.26144 0.08167 0.0
C1313 C 0.3191 0.25909 0.10751 0.0
C1314 C 0.30217 0.22929 0.11231 0.0
C1315 C 0.33592 0.2888 0.11252 0.0
C1316 C 0.35351 0.32129 0.10771 0.0
C1317 C 0.33286 0.3428 0.10129 0.0
C1318 C 0.34977 0.37294 0.09665 0.0
C1319 C 0.38729 0.38201 0.09843 0.0
C1320 C 0.40793 0.36102 0.10487 0.0
C1321 C 0.39115 0.33081 0.10951 0.0
H1322 H 0.40034 0.40534 0.09483 0.0
H1323 H 0.24937 0.10369 0.13882 0.0
H1324 H 0.74091 0.77766 0.32896 0.0
H1325 H 0.7464 0.76919 0.34579 0.0
H1326 H 0.76384 0.88851 0.34911 0.0
H1327 H 0.75962 0.89705 0.33234 0.0
H1328 H 0.80881 0.85244 0.36018 0.0
H1329 H 0.67659 0.84474 0.35276 0.0
H1330 H 0.62078 0.81918 0.3448 0.0
H1331 H 0.64208 0.71047 0.35671 0.0
H1332 H 0.69834 0.73533 0.36465 0.0
H1333 H 0.74407 0.89574 0.40497 0.0
H1334 H 0.74525 0.88707 0.38814 0.0
H1335 H 0.75994 0.76767 0.39182 0.0
H1336 H 0.75938 0.77601 0.40876 0.0
H1337 H 0.70352 0.79354 0.37753 0.0
H1338 H 0.83266 0.80703 0.38666 0.0
H1339 H 0.88521 0.83702 0.39501 0.0
H1340 H 0.86636 0.93973 0.38 0.0
H1341 H 0.81323 0.91055 0.37168 0.0
C1342 C 0.74614 0.80207 0.33327 0.0
C1343 C 0.74956 0.83808 0.3293 0.0
C1344 C 0.74914 0.79718 0.3429 0.0
C1345 C 0.75494 0.8283 0.34873 0.0
C1346 C 0.75937 0.86407 0.34475 0.0
C1347 C 0.75684 0.86891 0.33515 0.0
C1348 C 0.75544 0.82419 0.359 0.0
C1349 C 0.7857 0.83965 0.36396 0.0
C1350 C 0.72571 0.80671 0.36395 0.0
C1351 C 0.6919 0.79177 0.3592 0.0
C1352 C 0.66952 0.81532 0.35362 0.0
C1353 C 0.63779 0.80097 0.34913 0.0
C1354 C 0.62796 0.76319 0.35023 0.0
C1355 C 0.64978 0.73971 0.35585 0.0
C1356 C 0.68158 0.75391 0.36035 0.0
C1357 C 0.74719 0.86753 0.40224 0.0
C1358 C 0.75186 0.83657 0.40822 0.0
C1359 C 0.74795 0.86269 0.39262 0.0
C1360 C 0.75299 0.82681 0.38879 0.0
C1361 C 0.75612 0.79557 0.39469 0.0
C1362 C 0.7559 0.80044 0.40435 0.0
C1363 C 0.75631 0.82265 0.37861 0.0
C1364 C 0.72687 0.80565 0.37371 0.0
C1365 C 0.78648 0.83918 0.3737 0.0
C1366 C 0.81876 0.85667 0.3786 0.0
C1367 C 0.83951 0.83611 0.3852 0.0
C1368 C 0.86944 0.85295 0.38992 0.0
C1369 C 0.87907 0.89028 0.38805 0.0
C1370 C 0.85885 0.91082 0.38144 0.0
C1371 C 0.82885 0.89413 0.37672 0.0
H1372 H 0.90224 0.90328 0.39171 0.0
H1373 H 0.60338 0.75214 0.34674 0.0
H1374 H 0.12754 0.2037 0.65691 0.0
H1375 H 0.13567 0.19799 0.6401 0.0
H1376 H 0.21497 0.28981 0.64049 0.0
H1377 H 0.20804 0.29468 0.65734 0.0
H1378 H 0.11727 0.24457 0.6275 0.0
H1379 H 0.27418 0.28581 0.62217 0.0
H1380 H 0.33508 0.27767 0.63011 0.0
H1381 H 0.29352 0.17872 0.6438 0.0
H1382 H 0.23257 0.18596 0.63584 0.0
H1383 H 0.13683 0.29678 0.581 0.0
H1384 H 0.14306 0.29823 0.59793 0.0
H1385 H 0.21407 0.19993 0.59691 0.0
H1386 H 0.20931 0.19935 0.57996 0.0
H1387 H 0.23772 0.24341 0.61014 0.0
H1388 H 0.11807 0.19371 0.60133 0.0
H1389 H 0.05706 0.19334 0.59319 0.0
H1390 H 0.02374 0.293 0.60788 0.0
H1391 H 0.08479 0.29425 0.61601 0.0
C1392 C 0.14714 0.2223 0.65343 0.0
C1393 C 0.16709 0.2497 0.65845 0.0
C1394 C 0.15171 0.21906 0.64381 0.0
C1395 C 0.17602 0.24338 0.63901 0.0
C1396 C 0.19661 0.27021 0.64404 0.0
C1397 C 0.1925 0.27307 0.65368 0.0
C1398 C 0.17763 0.24249 0.62868 0.0
C1399 C 0.14367 0.24417 0.62373 0.0
C1400 C 0.21198 0.24144 0.62371 0.0
C1401 C 0.24867 0.23668 0.62847 0.0
C1402 C 0.27808 0.26224 0.62684 0.0
C1403 C 0.31261 0.2578 0.63135 0.0
C1404 C 0.31812 0.22777 0.63748 0.0
C1405 C 0.28916 0.20205 0.63908 0.0
C1406 C 0.2546 0.20635 0.63459 0.0
C1407 C 0.15419 0.27579 0.58438 0.0
C1408 C 0.17225 0.24771 0.57917 0.0
C1409 C 0.15762 0.27656 0.59406 0.0
C1410 C 0.17826 0.24861 0.59872 0.0
C1411 C 0.19787 0.22169 0.59349 0.0
C1412 C 0.19506 0.22136 0.58379 0.0
C1413 C 0.17741 0.24598 0.60903 0.0
C1414 C 0.21142 0.24373 0.61395 0.0
C1415 C 0.14306 0.2452 0.61399 0.0
C1416 C 0.10611 0.24425 0.60922 0.0
C1417 C 0.0978 0.21565 0.60278 0.0
C1418 C 0.06321 0.21528 0.59817 0.0
C1419 C 0.03657 0.24318 0.6 0.0
C1420 C 0.04442 0.27143 0.60646 0.0
C1421 C 0.07899 0.27197 0.61108 0.0
H1422 H 0.00982 0.24286 0.59642 0.0
H1423 H 0.34486 0.22439 0.64097 0.0
H1424 H 0.29416 0.18658 0.28291 0.0
H1425 H 0.31404 0.20816 0.26758 0.0
H1426 H 0.23814 0.12901 0.2547 0.0
H1427 H 0.22019 0.10556 0.27009 0.0
H1428 H 0.29814 0.12909 0.24534 0.0
H1429 H 0.21971 0.22808 0.25654 0.0
H1430 H 0.19688 0.27578 0.26762 0.0
H1431 H 0.30303 0.33287 0.26622 0.0
H1432 H 0.32667 0.28524 0.25521 0.0
H1433 H 0.3048 0.22059 0.20116 0.0
H1434 H 0.28078 0.20083 0.21635 0.0
H1435 H 0.37771 0.24959 0.2297 0.0
H1436 H 0.40226 0.269 0.21452 0.0
H1437 H 0.3042 0.26559 0.23828 0.0
H1438 H 0.38067 0.16245 0.22674 0.0
H1439 H 0.39805 0.11673 0.21459 0.0
H1440 H 0.28747 0.0687 0.21577 0.0
H1441 H 0.26919 0.11467 0.2278 0.0
C1442 C 0.28175 0.17381 0.27681 0.0
C1443 C 0.25556 0.14455 0.27766 0.0
C1444 C 0.2929 0.18634 0.26804 0.0
C1445 C 0.27696 0.17088 0.25996 0.0
C1446 C 0.25081 0.14148 0.26082 0.0
C1447 C 0.24047 0.12819 0.2696 0.0
C1448 C 0.288 0.18501 0.25062 0.0
C1449 C 0.29886 0.15893 0.24379 0.0
C1450 C 0.28929 0.22399 0.24855 0.0
C1451 C 0.27505 0.25291 0.2551 0.0
C1452 C 0.23825 0.25069 0.25863 0.0
C1453 C 0.22516 0.27773 0.2649 0.0
C1454 C 0.24852 0.30729 0.26764 0.0
C1455 C 0.28498 0.30994 0.2641 0.0
C1456 C 0.29822 0.28296 0.25783 0.0
C1457 C 0.3209 0.22726 0.20733 0.0
C1458 C 0.35549 0.2461 0.20667 0.0
C1459 C 0.30715 0.21598 0.21598 0.0
C1460 C 0.32762 0.22371 0.22409 0.0
C1461 C 0.36158 0.2435 0.22349 0.0
C1462 C 0.3756 0.25436 0.21483 0.0
C1463 C 0.3144 0.20971 0.23317 0.0
C1464 C 0.30317 0.23581 0.2399 0.0
C1465 C 0.312 0.17082 0.23508 0.0
C1466 C 0.32347 0.14221 0.22812 0.0
C1467 C 0.36 0.14226 0.22438 0.0
C1468 C 0.37002 0.11631 0.21751 0.0
C1469 C 0.34386 0.08988 0.21439 0.0
C1470 C 0.3077 0.08922 0.21818 0.0
C1471 C 0.2975 0.1152 0.22503 0.0
H1472 H 0.35164 0.06988 0.20906 0.0
H1473 H 0.23834 0.32817 0.2725 0.0
H1474 H 0.75313 0.91344 0.46504 0.0
H1475 H 0.77253 0.89003 0.4803 0.0
H1476 H 0.77758 0.77716 0.46941 0.0
H1477 H 0.75837 0.8004 0.45408 0.0
H1478 H 0.74394 0.78257 0.48735 0.0
H1479 H 0.85367 0.82236 0.47068 0.0
H1480 H 0.89012 0.86807 0.46148 0.0
H1481 H 0.89154 0.94405 0.48468 0.0
H1482 H 0.85381 0.89935 0.49391 0.0
H1483 H 0.90981 0.74333 0.52146 0.0
H1484 H 0.88551 0.76249 0.5063 0.0
H1485 H 0.78215 0.79866 0.51919 0.0
H1486 H 0.80601 0.77867 0.53438 0.0
H1487 H 0.86548 0.829 0.49979 0.0
H1488 H 0.70996 0.78629 0.50412 0.0
H1489 H 0.67185 0.73967 0.51264 0.0
H1490 H 0.76572 0.66385 0.5133 0.0
H1491 H 0.80424 0.70983 0.50469 0.0
C1492 C 0.75813 0.8836 0.46591 0.0
C1493 C 0.75456 0.85873 0.45837 0.0
C1494 C 0.76914 0.87031 0.47462 0.0
C1495 C 0.7766 0.83195 0.47594 0.0
C1496 C 0.77183 0.80686 0.46851 0.0
C1497 C 0.76113 0.82019 0.45976 0.0
C1498 C 0.79163 0.81843 0.48491 0.0
C1499 C 0.77046 0.79269 0.4901 0.0
C1500 C 0.82652 0.83134 0.48836 0.0
C1501 C 0.85052 0.85764 0.48296 0.0
C1502 C 0.86147 0.84894 0.4738 0.0
C1503 C 0.88232 0.87469 0.46857 0.0
C1504 C 0.89311 0.90897 0.47249 0.0
C1505 C 0.8831 0.91751 0.48165 0.0
C1506 C 0.86189 0.89201 0.48687 0.0
C1507 C 0.88185 0.75525 0.52107 0.0
C1508 C 0.85972 0.75939 0.52909 0.0
C1509 C 0.86806 0.76628 0.5124 0.0
C1510 C 0.83192 0.78171 0.5116 0.0
C1511 C 0.80989 0.78624 0.51963 0.0
C1512 C 0.82358 0.77493 0.5283 0.0
C1513 C 0.81758 0.79334 0.50236 0.0
C1514 C 0.83892 0.81882 0.49708 0.0
C1515 C 0.78308 0.77978 0.49878 0.0
C1516 C 0.76005 0.75165 0.50383 0.0
C1517 C 0.7224 0.7596 0.50605 0.0
C1518 C 0.70075 0.7333 0.5109 0.0
C1519 C 0.71639 0.69886 0.51353 0.0
C1520 C 0.75368 0.69059 0.51129 0.0
C1521 C 0.77545 0.71678 0.50643 0.0
H1522 H 0.69959 0.67856 0.5173 0.0
H1523 H 0.90927 0.92888 0.46844 0.0
H1524 H 0.07594 0.27797 0.713 0.0
H1525 H 0.09457 0.30462 0.72798 0.0
H1526 H 0.21132 0.29061 0.72058 0.0
H1527 H 0.19275 0.26549 0.70544 0.0
H1528 H 0.12908 0.27939 0.74215 0.0
H1529 H 0.26511 0.35842 0.72996 0.0
H1530 H 0.2878 0.39103 0.7159 0.0
H1531 H 0.17407 0.41057 0.70721 0.0
H1532 H 0.15064 0.37922 0.72136 0.0
H1533 H 0.24501 0.30935 0.78048 0.0
H1534 H 0.21921 0.29294 0.76527 0.0
H1535 H 0.20316 0.41068 0.75908 0.0
H1536 H 0.23061 0.42721 0.77414 0.0
H1537 H 0.22682 0.37847 0.74436 0.0
H1538 H 0.12788 0.35321 0.76527 0.0
H1539 H 0.09755 0.32804 0.77938 0.0
H1540 H 0.12223 0.2154 0.77053 0.0
H1541 H 0.15319 0.23993 0.75642 0.0
C1542 C 0.10558 0.28067 0.71458 0.0
C1543 C 0.13296 0.26986 0.70807 0.0
C1544 C 0.11618 0.29582 0.72314 0.0
C1545 C 0.15434 0.3001 0.72537 0.0
C1546 C 0.1817 0.28844 0.71894 0.0
C1547 C 0.17111 0.27389 0.71031 0.0
C1548 C 0.16563 0.31639 0.73445 0.0
C1549 C 0.15035 0.30115 0.74262 0.0
C1550 C 0.19225 0.34588 0.73508 0.0
C1551 C 0.20614 0.36609 0.7267 0.0
C1552 C 0.24493 0.37 0.72511 0.0
C1553 C 0.25791 0.38831 0.71712 0.0
C1554 C 0.23238 0.40287 0.71067 0.0
C1555 C 0.1938 0.39937 0.71222 0.0
C1556 C 0.18066 0.38136 0.72023 0.0
C1557 C 0.23606 0.33168 0.77585 0.0
C1558 C 0.23969 0.36949 0.77847 0.0
C1559 C 0.22111 0.32232 0.76719 0.0
C1560 C 0.20854 0.35056 0.76109 0.0
C1561 C 0.21261 0.38841 0.76366 0.0
C1562 C 0.22823 0.39781 0.77227 0.0
C1563 C 0.19134 0.34039 0.75203 0.0
C1564 C 0.20536 0.35691 0.74387 0.0
C1565 C 0.1622 0.31343 0.75141 0.0
C1566 C 0.14307 0.29842 0.75981 0.0
C1567 C 0.127 0.32307 0.76635 0.0
C1568 C 0.10968 0.30892 0.77435 0.0
C1569 C 0.108 0.27014 0.77585 0.0
C1570 C 0.12354 0.24543 0.76935 0.0
C1571 C 0.14093 0.25944 0.76134 0.0
H1572 H 0.09463 0.25923 0.78205 0.0
H1573 H 0.24249 0.41687 0.70447 0.0
H1574 H 0.74734 0.58224 0.96478 0.0
H1575 H 0.72481 0.60252 0.98003 0.0
H1576 H 0.71685 0.7167 0.97002 0.0
H1577 H 0.73838 0.69635 0.95466 0.0
H1578 H 0.75034 0.64795 0.9927 0.0
H1579 H 0.64343 0.76021 0.97968 0.0
H1580 H 0.60213 0.77078 0.96613 0.0
H1581 H 0.59855 0.65193 0.96096 0.0
H1582 H 0.63952 0.64066 0.9745 0.0
H1583 H 0.69921 0.75757 0.03132 0.0
H1584 H 0.72023 0.73621 0.01601 0.0
H1585 H 0.60883 0.69393 0.01027 0.0
H1586 H 0.58726 0.71774 0.02532 0.0
H1587 H 0.63282 0.72217 -0.00449 0.0
H1588 H 0.68664 0.63589 0.01715 0.0
H1589 H 0.72263 0.61634 0.03099 0.0
H1590 H 0.82244 0.66604 0.01956 0.0
H1591 H 0.78692 0.68637 0.0057 0.0
C1592 C 0.74083 0.61168 0.96584 0.0
C1593 C 0.7444 0.63773 0.95854 0.0
C1594 C 0.72807 0.62324 0.97456 0.0
C1595 C 0.71875 0.66103 0.97613 0.0
C1596 C 0.72322 0.68726 0.9689 0.0
C1597 C 0.73567 0.67565 0.96016 0.0
C1598 C 0.70398 0.67295 0.98531 0.0
C1599 C 0.72464 0.66417 0.99333 0.0
C1600 C 0.66988 0.69309 0.98615 0.0
C1601 C 0.64484 0.69967 0.97805 0.0
C1602 C 0.63372 0.73635 0.97567 0.0
C1603 C 0.61042 0.74246 0.96798 0.0
C1604 C 0.59787 0.71206 0.96266 0.0
C1605 C 0.60847 0.67548 0.96504 0.0
C1606 C 0.63178 0.66922 0.97271 0.0
C1607 C 0.6793 0.74378 0.02675 0.0
C1608 C 0.64175 0.7391 0.02945 0.0
C1609 C 0.69133 0.73136 0.01804 0.0
C1610 C 0.66635 0.71266 0.01204 0.0
C1611 C 0.62867 0.70826 0.01475 0.0
C1612 C 0.61638 0.72172 0.02335 0.0
C1613 C 0.67946 0.69768 0.00296 0.0
C1614 C 0.6585 0.70592 -0.00507 0.0
C1615 C 0.71244 0.67557 0.00216 0.0
C1616 C 0.73404 0.6629 0.01042 0.0
C1617 C 0.71623 0.6428 0.01761 0.0
C1618 C 0.73654 0.63158 0.02545 0.0
C1619 C 0.77478 0.64 0.02616 0.0
C1620 C 0.79281 0.65956 0.01901 0.0
C1621 C 0.77261 0.6709 0.01115 0.0
H1622 H 0.79045 0.63132 0.03225 0.0
H1623 H 0.57984 0.71685 0.95671 0.0
H1624 H 0.30542 0.26587 0.03191 0.0
H1625 H 0.2846 0.2849 0.01637 0.0
H1626 H 0.39837 0.27571 0.00627 0.0
H1627 H 0.4194 0.2566 0.02177 0.0
H1628 H 0.36364 0.34103 0.00052 0.0
H1629 H 0.3392 0.20879 0.00089 0.0
H1630 H 0.31359 0.14941 0.00708 0.0
H1631 H 0.20159 0.19353 0.00499 0.0
H1632 H 0.2266 0.25341 -0.0011 0.0
H1633 H 0.27768 0.30086 0.95189 0.0
H1634 H 0.30027 0.27896 0.96702 0.0
H1635 H 0.26929 0.38521 0.9793 0.0
H1636 H 0.24721 0.40752 0.96416 0.0
H1637 H 0.26612 0.26889 0.98349 0.0
H1638 H 0.33494 0.40778 -0.00421 0.0
H1639 H 0.36355 0.4646 0.98894 0.0
H1640 H 0.39366 0.40213 0.9645 0.0
H1641 H 0.36587 0.3448 0.97127 0.0
C1642 C 0.32597 0.26787 0.02637 0.0
C1643 C 0.36399 0.25965 0.02803 0.0
C1644 C 0.31404 0.27865 0.01751 0.0
C1645 C 0.33995 0.28148 0.01019 0.0
C1646 C 0.37799 0.27369 0.01185 0.0
C1647 C 0.3899 0.26264 0.02069 0.0
C1648 C 0.32731 0.2926 0.00078 0.0
C1649 C 0.34232 0.32531 -0.00321 0.0
C1650 C 0.29997 0.27166 -0.00412 0.0
C1651 C 0.28481 0.23571 -0.00047 0.0
C1652 C 0.30914 0.20595 0.00183 0.0
C1653 C 0.29473 0.17218 0.0053 0.0
C1654 C 0.256 0.16773 0.00645 0.0
C1655 C 0.23159 0.19703 0.00411 0.0
C1656 C 0.24587 0.23088 0.00064 0.0
C1657 C 0.27562 0.31952 0.95782 0.0
C1658 C 0.26093 0.35597 0.95684 0.0
C1659 C 0.28841 0.30693 0.96645 0.0
C1660 C 0.28681 0.33061 0.97424 0.0
C1661 C 0.27129 0.36671 0.97333 0.0
C1662 C 0.2586 0.37936 0.96469 0.0
C1663 C 0.30193 0.31772 0.98328 0.0
C1664 C 0.28739 0.28468 0.98722 0.0
C1665 C 0.33021 0.33801 0.98805 0.0
C1666 C 0.34796 0.37209 0.98401 0.0
C1667 C 0.34787 0.40612 0.98898 0.0
C1668 C 0.36393 0.43842 0.9851 0.0
C1669 C 0.38031 0.437 0.97628 0.0
C1670 C 0.38087 0.40321 0.97132 0.0
C1671 C 0.36495 0.37081 0.97518 0.0
H1672 H 0.39264 0.46205 0.97328 0.0
H1673 H 0.24489 0.14156 0.00914 0.0
H1674 H 0.69648 0.8198 0.28473 0.0
H1675 H 0.67533 0.79786 0.26951 0.0
H1676 H 0.75658 0.87032 0.25619 0.0
H1677 H 0.77557 0.89441 0.27142 0.0
H1678 H 0.69769 0.87303 0.24664 0.0
H1679 H 0.76765 0.76921 0.25925 0.0
H1680 H 0.78452 0.72128 0.27094 0.0
H1681 H 0.674 0.67354 0.26897 0.0
H1682 H 0.65634 0.72145 0.25734 0.0
H1683 H 0.69615 0.77943 0.20295 0.0
H1684 H 0.71724 0.79908 0.21841 0.0
H1685 H 0.61613 0.75346 0.2305 0.0
H1686 H 0.59463 0.73401 0.21506 0.0
H1687 H 0.68473 0.73643 0.24039 0.0
H1688 H 0.61857 0.84036 0.22639 0.0
H1689 H 0.6077 0.88461 0.21348 0.0
H1690 H 0.71751 0.9318 0.21749 0.0
H1691 H 0.72984 0.88648 0.23013 0.0
C1692 C 0.70978 0.83094 0.27855 0.0
C1693 C 0.73776 0.85855 0.27921 0.0
C1694 C 0.69788 0.81824 0.26984 0.0
C1695 C 0.71494 0.83171 0.26167 0.0
C1696 C 0.74295 0.85941 0.26237 0.0
C1697 C 0.75394 0.87302 0.27106 0.0
C1698 C 0.70349 0.81721 0.25239 0.0
C1699 C 0.6954 0.84313 0.24527 0.0
C1700 C 0.69989 0.77818 0.25057 0.0
C1701 C 0.71059 0.7491 0.25749 0.0
C1702 C 0.7469 0.74859 0.26135 0.0
C1703 C 0.7566 0.72142 0.26796 0.0
C1704 C 0.73032 0.69444 0.27071 0.0
C1705 C 0.69432 0.69448 0.26684 0.0
C1706 C 0.68446 0.7216 0.26023 0.0
C1707 C 0.67853 0.77339 0.20891 0.0
C1708 C 0.64365 0.75546 0.20782 0.0
C1709 C 0.69061 0.7846 0.21771 0.0
C1710 C 0.66808 0.77785 0.22554 0.0
C1711 C 0.63384 0.75883 0.22452 0.0
C1712 C 0.62157 0.74795 0.2157 0.0
C1713 C 0.67938 0.7922 0.23475 0.0
C1714 C 0.68723 0.76628 0.24182 0.0
C1715 C 0.68343 0.83113 0.23646 0.0
C1716 C 0.67531 0.85966 0.22916 0.0
C1717 C 0.64057 0.85992 0.22448 0.0
C1718 C 0.63416 0.88516 0.21719 0.0
C1719 C 0.66185 0.91106 0.21468 0.0
C1720 C 0.69607 0.9117 0.21944 0.0
C1721 C 0.70286 0.88611 0.22664 0.0
H1722 H 0.65675 0.93067 0.20905 0.0
H1723 H 0.73788 0.67345 0.27584 0.0
H1724 H 0.23626 0.20365 0.45288 0.0
H1725 H 0.21821 0.22734 0.46822 0.0
H1726 H 0.21988 0.11412 0.47906 0.0
H1727 H 0.23913 0.09053 0.46384 0.0
H1728 H 0.15993 0.21744 0.47863 0.0
H1729 H 0.24638 0.11309 0.50146 0.0
H1730 H 0.30659 0.0788 0.5008 0.0
H1731 H 0.35032 0.16042 0.48163 0.0
H1732 H 0.29061 0.19548 0.48227 0.0
H1733 H 0.08896 0.22181 0.5244 0.0
H1734 H 0.11083 0.20364 0.50892 0.0
H1735 H 0.22278 0.241 0.51595 0.0
H1736 H 0.20136 0.25682 0.53162 0.0
H1737 H 0.2295 0.18116 0.50715 0.0
H1738 H 0.15883 0.29265 0.50126 0.0
H1739 H 0.10404 0.33508 0.50171 0.0
H1740 H 0.03852 0.25406 0.48665 0.0
H1741 H 0.09278 0.21093 0.48621 0.0
C1742 C 0.2329 0.18388 0.45855 0.0
C1743 C 0.23935 0.14532 0.4572 0.0
C1744 C 0.22249 0.19742 0.4673 0.0
C1745 C 0.21818 0.17258 0.47482 0.0
C1746 C 0.22386 0.13393 0.47342 0.0
C1747 C 0.2347 0.12045 0.46471 0.0
C1748 C 0.2073 0.18695 0.48412 0.0
C1749 C 0.17519 0.20964 0.48487 0.0
C1750 C 0.22774 0.17754 0.49224 0.0
C1751 C 0.26384 0.15668 0.49184 0.0
C1752 C 0.26888 0.12378 0.49712 0.0
C1753 C 0.30292 0.1042 0.49675 0.0
C1754 C 0.33221 0.11735 0.49115 0.0
C1755 C 0.32756 0.15017 0.48593 0.0
C1756 C 0.2936 0.16988 0.48629 0.0
C1757 C 0.11822 0.22609 0.52261 0.0
C1758 C 0.14353 0.24074 0.52915 0.0
C1759 C 0.13066 0.21599 0.51374 0.0
C1760 C 0.16835 0.22164 0.51117 0.0
C1761 C 0.1936 0.23632 0.51775 0.0
C1762 C 0.18137 0.24542 0.52669 0.0
C1763 C 0.18174 0.21135 0.50172 0.0
C1764 C 0.21429 0.18925 0.50093 0.0
C1765 C 0.16249 0.22252 0.49354 0.0
C1766 C 0.1298 0.24843 0.49377 0.0
C1767 C 0.13267 0.28378 0.4981 0.0
C1768 C 0.10171 0.30797 0.49834 0.0
C1769 C 0.0678 0.29724 0.49423 0.0
C1770 C 0.0648 0.26232 0.48984 0.0
C1771 C 0.09565 0.23801 0.48959 0.0
H1772 H 0.04387 0.31601 0.49442 0.0
H1773 H 0.35853 0.10215 0.49088 0.0
H1774 H 0.89453 0.78872 0.71545 0.0
H1775 H 0.87172 0.772 0.73095 0.0
H1776 H 0.7888 0.6987 0.71863 0.0
H1777 H 0.8101 0.71714 0.70314 0.0
H1778 H 0.75875 0.73096 0.73256 0.0
H1779 H 0.87565 0.66669 0.72802 0.0
H1780 H 0.94313 0.66058 0.72443 0.0
H1781 H 0.97035 0.73119 0.74769 0.0
H1782 H 0.90296 0.73817 0.75134 0.0
H1783 H 0.73507 0.60568 0.77123 0.0
H1784 H 0.75278 0.63273 0.75618 0.0
H1785 H 0.80677 0.72532 0.77018 0.0
H1786 H 0.78852 0.69887 0.78526 0.0
H1787 H 0.85101 0.68609 0.75595 0.0
H1788 H 0.73011 0.74467 0.76064 0.0
H1789 H 0.66212 0.74482 0.76393 0.0
H1790 H 0.64229 0.67633 0.73984 0.0
H1791 H 0.71026 0.67528 0.73649 0.0
C1792 C 0.87126 0.76924 0.71607 0.0
C1793 C 0.85427 0.75393 0.70812 0.0
C1794 C 0.85838 0.75953 0.72493 0.0
C1795 C 0.82911 0.73336 0.72598 0.0
C1796 C 0.81148 0.71885 0.71801 0.0
C1797 C 0.82376 0.72929 0.70916 0.0
C1798 C 0.81736 0.7204 0.73536 0.0
C1799 C 0.77896 0.7208 0.73763 0.0
C1800 C 0.84369 0.70755 0.74205 0.0
C1801 C 0.88425 0.70327 0.73989 0.0
C1802 C 0.89601 0.68113 0.73233 0.0
C1803 C 0.93425 0.67749 0.73029 0.0
C1804 C 0.96101 0.69557 0.73581 0.0
C1805 C 0.94959 0.71725 0.74341 0.0
C1806 C 0.91138 0.72105 0.74547 0.0
C1807 C 0.75058 0.63188 0.7711 0.0
C1808 C 0.76046 0.65021 0.7794 0.0
C1809 C 0.76054 0.64731 0.76251 0.0
C1810 C 0.7809 0.68102 0.76212 0.0
C1811 C 0.79097 0.6993 0.77038 0.0
C1812 C 0.78048 0.68421 0.77897 0.0
C1813 C 0.79265 0.69654 0.75305 0.0
C1814 C 0.831 0.6965 0.75087 0.0
C1815 C 0.76624 0.70883 0.74637 0.0
C1816 C 0.72534 0.70959 0.74837 0.0
C1817 C 0.7113 0.72934 0.75609 0.0
C1818 C 0.67275 0.72965 0.75796 0.0
C1819 C 0.64791 0.71051 0.75211 0.0
C1820 C 0.66156 0.69111 0.74437 0.0
C1821 C 0.7001 0.69067 0.74248 0.0
H1822 H 0.61807 0.71079 0.75357 0.0
H1823 H 0.99059 0.69271 0.73422 0.0
loop_
_geom_bond_atom_site_label_1
_geom_bond_atom_site_label_2
_geom_bond_distance
_geom_bond_site_symmetry_2
_ccdc_geom_bond_type
Co0 O1 2.216 . S
Co0 O2 2.091 . S
Co0 O4 2.004 . S
Co0 O10 2.021 . S
Co0 O12 2.137 . S
Co0 O13 2.244 . S
O1 Co0 2.216 . S
O1 C8 1.247 . S
O2 Co0 2.091 . S
O2 C8 1.261 . S
C3 O12 1.247 . S
C3 O13 1.272 . S
O4 Co0 2.004 . S
O4 C9 1.259 . S
Co5 O6 2.061 . S
Co5 O11 2.052 . S
Co5 O13 2.135 . S
O6 Co5 2.061 . S
O6 C9 1.235 . S
C7 O10 1.238 . S
C7 O11 1.241 . S
C8 O1 1.247 . S
C8 O2 1.261 . S
C9 O4 1.259 . S
C9 O6 1.235 . S
O10 Co0 2.021 . S
O10 C7 1.238 . S
O11 Co5 2.052 . S
O11 C7 1.241 . S
O12 Co0 2.137 . S
O12 C3 1.247 . S
O13 Co0 2.244 . S
O13 C3 1.272 . S
O13 Co5 2.135 . S
Co14 O15 2.216 . S
Co14 O16 2.091 . S
Co14 O18 2.004 . S
Co14 O24 2.021 . S
Co14 O26 2.137 . S
Co14 O27 2.244 . S
O15 Co14 2.216 . S
O15 C22 1.247 . S
O16 Co14 2.091 . S
O16 C22 1.261 . S
C17 O26 1.247 . S
C17 O27 1.272 . S
O18 Co14 2.004 . S
O18 C23 1.259 . S
Co19 O20 2.061 . S
Co19 O25 2.052 . S
Co19 O27 2.135 . S
O20 Co19 2.061 . S
O20 C23 1.235 . S
C21 O24 1.238 . S
C21 O25 1.241 . S
C22 O15 1.247 . S
C22 O16 1.261 . S
C23 O18 1.259 . S
C23 O20 1.235 . S
O24 Co14 2.021 . S
O24 C21 1.238 . S
O25 Co19 2.052 . S
O25 C21 1.241 . S
O26 Co14 2.137 . S
O26 C17 1.247 . S
O27 Co14 2.244 . S
O27 C17 1.272 . S
O27 Co19 2.135 . S
Co28 O29 2.216 . S
Co28 O30 2.091 . S
Co28 O32 2.004 . S
Co28 O38 2.021 . S
Co28 O40 2.137 . S
Co28 O41 2.244 . S
O29 Co28 2.216 . S
O29 C36 1.247 . S
O30 Co28 2.091 . S
O30 C36 1.261 . S
C31 O40 1.247 . S
C31 O41 1.272 . S
O32 Co28 2.004 . S
O32 C37 1.259 . S
Co33 O34 2.061 . S
Co33 O39 2.052 . S
Co33 O41 2.135 . S
O34 Co33 2.061 . S
O34 C37 1.235 . S
C35 O38 1.238 . S
C35 O39 1.241 . S
C36 O29 1.247 . S
C36 O30 1.261 . S
C37 O32 1.259 . S
C37 O34 1.235 . S
O38 Co28 2.021 . S
O38 C35 1.238 . S
O39 Co33 2.052 . S
O39 C35 1.241 . S
O40 Co28 2.137 . S
O40 C31 1.247 . S
O41 Co28 2.244 . S
O41 C31 1.272 . S
O41 Co33 2.135 . S
Co42 O43 2.216 . S
Co42 O44 2.091 . S
Co42 O46 2.004 . S
Co42 O52 2.021 . S
Co42 O54 2.137 . S
Co42 O55 2.244 . S
O43 Co42 2.216 . S
O43 C50 1.247 . S
O44 Co42 2.091 . S
O44 C50 1.261 . S
C45 O54 1.247 . S
C45 O55 1.272 . S
O46 Co42 2.004 . S
O46 C51 1.259 . S
Co47 O48 2.061 . S
Co47 O53 2.052 . S
Co47 O55 2.135 . S
O48 Co47 2.061 . S
O48 C51 1.235 . S
C49 O52 1.238 . S
C49 O53 1.241 . S
C50 O43 1.247 . S
C50 O44 1.261 . S
C51 O46 1.259 . S
C51 O48 1.235 . S
O52 Co42 2.021 . S
O52 C49 1.238 . S
O53 Co47 2.052 . S
O53 C49 1.241 . S
O54 Co42 2.137 . S
O54 C45 1.247 . S
O55 Co42 2.244 . S
O55 C45 1.272 . S
O55 Co47 2.135 . S
Co56 O57 2.216 . S
Co56 O58 2.091 . S
Co56 O60 2.004 . S
Co56 O66 2.021 . S
Co56 O68 2.137 . S
Co56 O69 2.244 . S
O57 Co56 2.216 . S
O57 C64 1.247 . S
O58 Co56 2.091 . S
O58 C64 1.261 . S
C59 O68 1.247 . S
C59 O69 1.272 . S
O60 Co56 2.004 . S
O60 C65 1.259 . S
Co61 O62 2.061 . S
Co61 O67 2.052 . S
Co61 O69 2.135 . S
O62 Co61 2.061 . S
O62 C65 1.235 . S
C63 O66 1.238 . S
C63 O67 1.241 . S
C64 O57 1.247 . S
C64 O58 1.261 . S
C65 O60 1.259 . S
C65 O62 1.235 . S
O66 Co56 2.021 . S
O66 C63 1.238 . S
O67 Co61 2.052 . S
O67 C63 1.241 . S
O68 Co56 2.137 . S
O68 C59 1.247 . S
O69 Co56 2.244 . S
O69 C59 1.272 . S
O69 Co61 2.135 . S
Co70 O71 2.216 . S
Co70 O72 2.091 . S
Co70 O74 2.004 . S
Co70 O80 2.021 . S
Co70 O82 2.137 . S
Co70 O83 2.244 . S
O71 Co70 2.216 . S
O71 C78 1.247 . S
O72 Co70 2.091 . S
O72 C78 1.261 . S
C73 O82 1.247 . S
C73 O83 1.272 . S
O74 Co70 2.004 . S
O74 C79 1.259 . S
Co75 O76 2.061 . S
Co75 O81 2.052 . S
Co75 O83 2.135 . S
O76 Co75 2.061 . S
O76 C79 1.235 . S
C77 O80 1.238 . S
C77 O81 1.241 . S
C78 O71 1.247 . S
C78 O72 1.261 . S
C79 O74 1.259 . S
C79 O76 1.235 . S
O80 Co70 2.021 . S
O80 C77 1.238 . S
O81 Co75 2.052 . S
O81 C77 1.241 . S
O82 Co70 2.137 . S
O82 C73 1.247 . S
O83 Co70 2.244 . S
O83 C73 1.272 . S
O83 Co75 2.135 . S
Co84 O85 2.216 . S
Co84 O86 2.091 . S
Co84 O88 2.004 . S
Co84 O94 2.021 . S
Co84 O96 2.137 . S
Co84 O97 2.244 . S
O85 Co84 2.216 . S
O85 C92 1.247 . S
O86 Co84 2.091 . S
O86 C92 1.261 . S
C87 O96 1.247 . S
C87 O97 1.272 . S
O88 Co84 2.004 . S
O88 C93 1.259 . S
Co89 O90 2.061 . S
Co89 O95 2.052 . S
Co89 O97 2.135 . S
O90 Co89 2.061 . S
O90 C93 1.235 . S
C91 O94 1.238 . S
C91 O95 1.241 . S
C92 O85 1.247 . S
C92 O86 1.261 . S
C93 O88 1.259 . S
C93 O90 1.235 . S
O94 Co84 2.021 . S
O94 C91 1.238 . S
O95 Co89 2.052 . S
O95 C91 1.241 . S
O96 Co84 2.137 . S
O96 C87 1.247 . S
O97 Co84 2.244 . S
O97 C87 1.272 . S
O97 Co89 2.135 . S
Co98 O99 2.216 . S
Co98 O100 2.091 . S
Co98 O102 2.004 . S
Co98 O108 2.021 . S
Co98 O110 2.137 . S
Co98 O111 2.244 . S
O99 Co98 2.216 . S
O99 C106 1.247 . S
O100 Co98 2.091 . S
O100 C106 1.261 . S
C101 O110 1.247 . S
C101 O111 1.272 . S
O102 Co98 2.004 . S
O102 C107 1.259 . S
Co103 O104 2.061 . S
Co103 O109 2.052 . S
Co103 O111 2.135 . S
O104 Co103 2.061 . S
O104 C107 1.235 . S
C105 O108 1.238 . S
C105 O109 1.241 . S
C106 O99 1.247 . S
C106 O100 1.261 . S
C107 O102 1.259 . S
C107 O104 1.235 . S
O108 Co98 2.021 . S
O108 C105 1.238 . S
O109 Co103 2.052 . S
O109 C105 1.241 . S
O110 Co98 2.137 . S
O110 C101 1.247 . S
O111 Co98 2.244 . S
O111 C101 1.272 . S
O111 Co103 2.135 . S
Co112 O113 2.216 . S
Co112 O114 2.091 . S
Co112 O116 2.004 . S
Co112 O122 2.021 . S
Co112 O124 2.137 . S
Co112 O125 2.244 . S
O113 Co112 2.216 . S
O113 C120 1.247 . S
O114 Co112 2.091 . S
O114 C120 1.261 . S
C115 O124 1.247 . S
C115 O125 1.272 . S
O116 Co112 2.004 . S
O116 C121 1.259 . S
Co117 O118 2.061 . S
Co117 O123 2.052 . S
Co117 O125 2.135 . S
O118 Co117 2.061 . S
O118 C121 1.235 . S
C119 O122 1.238 . S
C119 O123 1.241 . S
C120 O113 1.247 . S
C120 O114 1.261 . S
C121 O116 1.259 . S
C121 O118 1.235 . S
O122 Co112 2.021 . S
O122 C119 1.238 . S
O123 Co117 2.052 . S
O123 C119 1.241 . S
O124 Co112 2.137 . S
O124 C115 1.247 . S
O125 Co112 2.244 . S
O125 C115 1.272 . S
O125 Co117 2.135 . S
Co126 O127 2.216 . S
Co126 O128 2.091 . S
Co126 O130 2.004 . S
Co126 O136 2.021 . S
Co126 O138 2.137 . S
Co126 O139 2.244 . S
O127 Co126 2.216 . S
O127 C134 1.247 . S
O128 Co126 2.091 . S
O128 C134 1.261 . S
C129 O138 1.247 . S
C129 O139 1.272 . S
O130 Co126 2.004 . S
O130 C135 1.259 . S
Co131 O132 2.061 . S
Co131 O137 2.052 . S
Co131 O139 2.135 . S
O132 Co131 2.061 . S
O132 C135 1.235 . S
C133 O136 1.238 . S
C133 O137 1.241 . S
C134 O127 1.247 . S
C134 O128 1.261 . S
C135 O130 1.259 . S
C135 O132 1.235 . S
O136 Co126 2.021 . S
O136 C133 1.238 . S
O137 Co131 2.052 . S
O137 C133 1.241 . S
O138 Co126 2.137 . S
O138 C129 1.247 . S
O139 Co126 2.244 . S
O139 C129 1.272 . S
O139 Co131 2.135 . S
Co140 O141 2.216 . S
Co140 O142 2.091 . S
Co140 O144 2.004 . S
Co140 O150 2.021 . S
Co140 O152 2.137 . S
Co140 O153 2.244 . S
O141 Co140 2.216 . S
O141 C148 1.247 . S
O142 Co140 2.091 . S
O142 C148 1.261 . S
C143 O152 1.247 . S
C143 O153 1.272 . S
O144 Co140 2.004 . S
O144 C149 1.259 . S
Co145 O146 2.061 . S
Co145 O151 2.052 . S
Co145 O153 2.135 . S
O146 Co145 2.061 . S
O146 C149 1.235 . S
C147 O150 1.238 . S
C147 O151 1.241 . S
C148 O141 1.247 . S
C148 O142 1.261 . S
C149 O144 1.259 . S
C149 O146 1.235 . S
O150 Co140 2.021 . S
O150 C147 1.238 . S
O151 Co145 2.052 . S
O151 C147 1.241 . S
O152 Co140 2.137 . S
O152 C143 1.247 . S
O153 Co140 2.244 . S
O153 C143 1.272 . S
O153 Co145 2.135 . S
Co154 O155 2.216 . S
Co154 O156 2.091 . S
Co154 O158 2.004 . S
Co154 O164 2.021 . S
Co154 O166 2.137 . S
Co154 O167 2.244 . S
O155 Co154 2.216 . S
O155 C162 1.247 . S
O156 Co154 2.091 . S
O156 C162 1.261 . S
C157 O166 1.247 . S
C157 O167 1.272 . S
O158 Co154 2.004 . S
O158 C163 1.259 . S
Co159 O160 2.061 . S
Co159 O165 2.052 . S
Co159 O167 2.135 . S
O160 Co159 2.061 . S
O160 C163 1.235 . S
C161 O164 1.238 . S
C161 O165 1.241 . S
C162 O155 1.247 . S
C162 O156 1.261 . S
C163 O158 1.259 . S
C163 O160 1.235 . S
O164 Co154 2.021 . S
O164 C161 1.238 . S
O165 Co159 2.052 . S
O165 C161 1.241 . S
O166 Co154 2.137 . S
O166 C157 1.247 . S
O167 Co154 2.244 . S
O167 C157 1.272 . S
O167 Co159 2.135 . S
Co168 O169 2.216 . S
Co168 O170 2.091 . S
Co168 O172 2.004 . S
Co168 O178 2.021 . S
Co168 O180 2.137 . S
Co168 O181 2.244 . S
O169 Co168 2.216 . S
O169 C176 1.247 . S
O170 Co168 2.091 . S
O170 C176 1.261 . S
C171 O180 1.247 . S
C171 O181 1.272 . S
O172 Co168 2.004 . S
O172 C177 1.259 . S
Co173 O174 2.061 . S
Co173 O179 2.052 . S
Co173 O181 2.135 . S
O174 Co173 2.061 . S
O174 C177 1.235 . S
C175 O178 1.238 . S
C175 O179 1.241 . S
C176 O169 1.247 . S
C176 O170 1.261 . S
C177 O172 1.259 . S
C177 O174 1.235 . S
O178 Co168 2.021 . S
O178 C175 1.238 . S
O179 Co173 2.052 . S
O179 C175 1.241 . S
O180 Co168 2.137 . S
O180 C171 1.247 . S
O181 Co168 2.244 . S
O181 C171 1.272 . S
O181 Co173 2.135 . S
Co182 O183 2.216 . S
Co182 O184 2.091 . S
Co182 O186 2.004 . S
Co182 O192 2.021 . S
Co182 O194 2.137 . S
Co182 O195 2.244 . S
O183 Co182 2.216 . S
O183 C190 1.247 . S
O184 Co182 2.091 . S
O184 C190 1.261 . S
C185 O194 1.247 . S
C185 O195 1.272 . S
O186 Co182 2.004 . S
O186 C191 1.259 . S
Co187 O188 2.061 . S
Co187 O193 2.052 . S
Co187 O195 2.135 . S
O188 Co187 2.061 . S
O188 C191 1.235 . S
C189 O192 1.238 . S
C189 O193 1.241 . S
C190 O183 1.247 . S
C190 O184 1.261 . S
C191 O186 1.259 . S
C191 O188 1.235 . S
O192 Co182 2.021 . S
O192 C189 1.238 . S
O193 Co187 2.052 . S
O193 C189 1.241 . S
O194 Co182 2.137 . S
O194 C185 1.247 . S
O195 Co182 2.244 . S
O195 C185 1.272 . S
O195 Co187 2.135 . S
Co196 O197 2.216 . S
Co196 O198 2.091 . S
Co196 O200 2.004 . S
Co196 O206 2.021 . S
Co196 O208 2.137 . S
Co196 O209 2.244 . S
O197 Co196 2.216 . S
O197 C204 1.247 . S
O198 Co196 2.091 . S
O198 C204 1.261 . S
C199 O208 1.247 . S
C199 O209 1.272 . S
O200 Co196 2.004 . S
O200 C205 1.259 . S
Co201 O202 2.061 . S
Co201 O207 2.052 . S
Co201 O209 2.135 . S
O202 Co201 2.061 . S
O202 C205 1.235 . S
C203 O206 1.238 . S
C203 O207 1.241 . S
C204 O197 1.247 . S
C204 O198 1.261 . S
C205 O200 1.259 . S
C205 O202 1.235 . S
O206 Co196 2.021 . S
O206 C203 1.238 . S
O207 Co201 2.052 . S
O207 C203 1.241 . S
O208 Co196 2.137 . S
O208 C199 1.247 . S
O209 Co196 2.244 . S
O209 C199 1.272 . S
O209 Co201 2.135 . S
Co210 O211 2.216 . S
Co210 O212 2.091 . S
Co210 O214 2.004 . S
Co210 O220 2.021 . S
Co210 O222 2.137 . S
Co210 O223 2.244 . S
O211 Co210 2.216 . S
O211 C218 1.247 . S
O212 Co210 2.091 . S
O212 C218 1.261 . S
C213 O222 1.247 . S
C213 O223 1.272 . S
O214 Co210 2.004 . S
O214 C219 1.259 . S
Co215 O216 2.061 . S
Co215 O221 2.052 . S
Co215 O223 2.135 . S
O216 Co215 2.061 . S
O216 C219 1.235 . S
C217 O220 1.238 . S
C217 O221 1.241 . S
C218 O211 1.247 . S
C218 O212 1.261 . S
C219 O214 1.259 . S
C219 O216 1.235 . S
O220 Co210 2.021 . S
O220 C217 1.238 . S
O221 Co215 2.052 . S
O221 C217 1.241 . S
O222 Co210 2.137 . S
O222 C213 1.247 . S
O223 Co210 2.244 . S
O223 C213 1.272 . S
O223 Co215 2.135 . S
H224 C242 0.951 . S
H225 C244 0.951 . S
H226 C246 0.950 . S
H227 C247 0.950 . S
H228 C249 0.950 . S
H229 C252 0.950 . S
H230 C253 0.950 . S
H231 C255 0.950 1_565 S
H232 C256 0.950 . S
H233 C257 0.951 . S
H234 C259 0.951 . S
H235 C261 0.950 . S
H236 C262 0.950 . S
H237 C264 0.950 . S
H238 C267 0.950 . S
H239 C268 0.950 . S
H240 C270 0.950 1_545 S
H241 C271 0.950 . S
C242 H224 0.951 . S
C242 C243 1.366 . S
C242 C244 1.388 . S
C243 C242 1.366 . S
C243 C247 1.385 . S
C244 H225 0.951 . S
C244 C242 1.388 . S
C244 C245 1.366 . S
C245 C244 1.366 . S
C245 C246 1.414 . S
C245 C248 1.499 . S
C246 H226 0.950 . S
C246 C245 1.414 . S
C246 C247 1.374 . S
C247 H227 0.950 . S
C247 C243 1.385 . S
C247 C246 1.374 . S
C248 C245 1.499 . S
C248 C249 1.373 . S
C248 C250 1.375 1_565 S
C249 H228 0.950 . S
C249 C248 1.373 . S
C249 C265 1.389 1_655 S
C250 C248 1.375 1_545 S
C250 C251 1.528 . S
C250 C264 1.390 1_655 S
C251 C250 1.528 . S
C251 C252 1.397 . S
C251 C256 1.363 1_545 S
C252 H229 0.950 . S
C252 C251 1.397 . S
C252 C253 1.334 . S
C253 H230 0.950 . S
C253 C252 1.334 . S
C253 C254 1.287 . S
C254 C253 1.287 . S
C254 C255 1.524 . S
C254 H273 0.913 . S
C255 H231 0.950 1_545 S
C255 C254 1.524 . S
C255 C256 1.415 1_545 S
C256 H232 0.950 . S
C256 C251 1.363 1_565 S
C256 C255 1.415 1_565 S
C257 H233 0.951 . S
C257 C258 1.366 . S
C257 C259 1.388 . S
C258 C257 1.366 . S
C258 C262 1.385 . S
C259 H234 0.951 . S
C259 C257 1.388 . S
C259 C260 1.366 . S
C260 C259 1.366 . S
C260 C261 1.414 . S
C260 C263 1.499 . S
C261 H235 0.950 . S
C261 C260 1.414 . S
C261 C262 1.374 . S
C262 H236 0.950 . S
C262 C258 1.385 . S
C262 C261 1.374 . S
C263 C260 1.499 . S
C263 C264 1.373 . S
C263 C265 1.376 1_545 S
C264 H237 0.950 . S
C264 C250 1.390 1_455 S
C264 C263 1.373 . S
C265 C249 1.389 1_455 S
C265 C263 1.376 1_565 S
C265 C266 1.528 . S
C266 C265 1.528 . S
C266 C267 1.397 . S
C266 C271 1.363 1_565 S
C267 H238 0.950 . S
C267 C266 1.397 . S
C267 C268 1.334 . S
C268 H239 0.950 . S
C268 C267 1.334 . S
C268 C269 1.287 . S
C269 C268 1.287 . S
C269 C270 1.524 . S
C269 H272 0.999 . S
C270 H240 0.950 1_565 S
C270 C269 1.524 . S
C270 C271 1.415 1_565 S
C271 H241 0.950 . S
C271 C266 1.363 1_545 S
C271 C270 1.415 1_545 S
H272 C269 0.999 . S
H273 C254 0.913 . S
H274 C292 0.951 . S
H275 C294 0.951 . S
H276 C296 0.950 . S
H277 C297 0.950 . S
H278 C299 0.950 . S
H279 C302 0.950 . S
H280 C303 0.950 . S
H281 C305 0.950 . S
H282 C306 0.950 1_655 S
H283 C307 0.951 . S
H284 C309 0.951 . S
H285 C311 0.950 . S
H286 C312 0.950 . S
H287 C314 0.950 . S
H288 C317 0.950 . S
H289 C318 0.950 . S
H290 C320 0.950 . S
H291 C321 0.950 1_455 S
C292 H274 0.951 . S
C292 C293 1.366 . S
C292 C294 1.388 . S
C293 C292 1.366 . S
C293 C297 1.385 . S
C294 H275 0.951 . S
C294 C292 1.388 . S
C294 C295 1.366 . S
C295 C294 1.366 . S
C295 C296 1.414 . S
C295 C298 1.499 . S
C296 H276 0.950 . S
C296 C295 1.414 . S
C296 C297 1.374 . S
C297 H277 0.950 . S
C297 C293 1.385 . S
C297 C296 1.374 . S
C298 C295 1.499 . S
C298 C299 1.373 . S
C298 C300 1.389 1_655 S
C299 H278 0.950 . S
C299 C298 1.373 . S
C299 C315 1.377 . S
C300 C298 1.389 1_455 S
C300 C301 1.524 . S
C300 C314 1.377 . S
C301 C300 1.524 . S
C301 C302 1.397 . S
C301 C306 1.363 . S
C302 H279 0.950 . S
C302 C301 1.397 . S
C302 C303 1.334 . S
C303 H280 0.950 . S
C303 C302 1.334 . S
C303 C304 1.287 . S
C304 C303 1.287 . S
C304 C305 1.524 . S
C304 H323 0.913 . S
C305 H281 0.950 . S
C305 C304 1.524 . S
C305 C306 1.415 . S
C306 H282 0.950 1_455 S
C306 C301 1.363 . S
C306 C305 1.415 . S
C307 H283 0.951 . S
C307 C308 1.366 . S
C307 C309 1.388 . S
C308 C307 1.366 . S
C308 C312 1.385 . S
C309 H284 0.951 . S
C309 C307 1.388 . S
C309 C310 1.366 . S
C310 C309 1.366 . S
C310 C311 1.414 . S
C310 C313 1.499 . S
C311 H285 0.950 . S
C311 C310 1.414 . S
C311 C312 1.374 . S
C312 H286 0.950 . S
C312 C308 1.385 . S
C312 C311 1.374 . S
C313 C310 1.499 . S
C313 C314 1.373 . S
C313 C315 1.389 1_455 S
C314 H287 0.950 . S
C314 C300 1.377 . S
C314 C313 1.373 . S
C315 C299 1.377 . S
C315 C313 1.389 1_655 S
C315 C316 1.524 . S
C316 C315 1.524 . S
C316 C317 1.397 . S
C316 C321 1.363 . S
C317 H288 0.950 . S
C317 C316 1.397 . S
C317 C318 1.334 . S
C318 H289 0.950 . S
C318 C317 1.334 . S
C318 C319 1.287 . S
C319 C318 1.287 . S
C319 C320 1.524 . S
C319 H322 0.999 . S
C320 H290 0.950 . S
C320 C319 1.524 . S
C320 C321 1.415 . S
C321 H291 0.950 1_655 S
C321 C316 1.363 . S
C321 C320 1.415 . S
H322 C319 0.999 . S
H323 C304 0.913 . S
H324 C342 0.951 . S
H325 C344 0.951 . S
H326 C346 0.950 . S
H327 C347 0.950 . S
H328 C349 0.950 . S
H329 C352 0.950 . S
H330 C353 0.950 . S
H331 C355 0.950 . S
H332 C356 0.950 . S
H333 C357 0.951 . S
H334 C359 0.951 . S
H335 C361 0.950 . S
H336 C362 0.950 . S
H337 C364 0.950 . S
H338 C367 0.950 . S
H339 C368 0.950 . S
H340 C370 0.950 . S
H341 C371 0.950 . S
C342 H324 0.951 . S
C342 C343 1.366 . S
C342 C344 1.388 . S
C343 C342 1.366 . S
C343 C347 1.385 . S
C344 H325 0.951 . S
C344 C342 1.388 . S
C344 C345 1.366 . S
C345 C344 1.366 . S
C345 C346 1.414 . S
C345 C348 1.499 . S
C346 H326 0.950 . S
C346 C345 1.414 . S
C346 C347 1.374 . S
C347 H327 0.950 . S
C347 C343 1.385 . S
C347 C346 1.374 . S
C348 C345 1.499 . S
C348 C349 1.373 . S
C348 C350 1.389 . S
C349 H328 0.950 . S
C349 C348 1.373 . S
C349 C365 1.377 . S
C350 C348 1.389 . S
C350 C351 1.524 . S
C350 C364 1.377 . S
C351 C350 1.524 . S
C351 C352 1.397 . S
C351 C356 1.363 . S
C352 H329 0.950 . S
C352 C351 1.397 . S
C352 C353 1.334 . S
C353 H330 0.950 . S
C353 C352 1.334 . S
C353 C354 1.287 . S
C354 C353 1.287 . S
C354 C355 1.524 . S
C354 H373 0.913 . S
C355 H331 0.950 . S
C355 C354 1.524 . S
C355 C356 1.415 . S
C356 H332 0.950 . S
C356 C351 1.363 . S
C356 C355 1.415 . S
C357 H333 0.951 . S
C357 C358 1.366 . S
C357 C359 1.388 . S
C358 C357 1.366 . S
C358 C362 1.385 . S
C359 H334 0.951 . S
C359 C357 1.388 . S
C359 C360 1.366 . S
C360 C359 1.366 . S
C360 C361 1.414 . S
C360 C363 1.499 . S
C361 H335 0.950 . S
C361 C360 1.414 . S
C361 C362 1.374 . S
C362 H336 0.950 . S
C362 C358 1.385 . S
C362 C361 1.374 . S
C363 C360 1.499 . S
C363 C364 1.373 . S
C363 C365 1.389 . S
C364 H337 0.950 . S
C364 C350 1.377 . S
C364 C363 1.373 . S
C365 C349 1.377 . S
C365 C363 1.389 . S
C365 C366 1.524 . S
C366 C365 1.524 . S
C366 C367 1.397 . S
C366 C371 1.363 . S
C367 H338 0.950 . S
C367 C366 1.397 . S
C367 C368 1.334 . S
C368 H339 0.950 . S
C368 C367 1.334 . S
C368 C369 1.287 . S
C369 C368 1.287 . S
C369 C370 1.524 . S
C369 H372 0.999 . S
C370 H340 0.950 . S
C370 C369 1.524 . S
C370 C371 1.415 . S
C371 H341 0.950 . S
C371 C366 1.363 . S
C371 C370 1.415 . S
H372 C369 0.999 . S
H373 C354 0.913 . S
H374 C392 0.951 . S
H375 C394 0.951 . S
H376 C396 0.950 . S
H377 C397 0.950 . S
H378 C399 0.950 . S
H379 C402 0.950 . S
H380 C403 0.950 . S
H381 C405 0.950 . S
H382 C406 0.950 . S
H383 C407 0.951 . S
H384 C409 0.951 . S
H385 C411 0.950 . S
H386 C412 0.950 . S
H387 C414 0.950 . S
H388 C417 0.950 . S
H389 C418 0.950 . S
H390 C420 0.950 . S
H391 C421 0.950 . S
C392 H374 0.951 . S
C392 C393 1.366 . S
C392 C394 1.388 . S
C393 C392 1.366 . S
C393 C397 1.385 . S
C394 H375 0.951 . S
C394 C392 1.388 . S
C394 C395 1.366 . S
C395 C394 1.366 . S
C395 C396 1.414 . S
C395 C398 1.499 . S
C396 H376 0.950 . S
C396 C395 1.414 . S
C396 C397 1.374 . S
C397 H377 0.950 . S
C397 C393 1.385 . S
C397 C396 1.374 . S
C398 C395 1.499 . S
C398 C399 1.373 . S
C398 C400 1.389 . S
C399 H378 0.950 . S
C399 C398 1.373 . S
C399 C415 1.377 1_545 S
C400 C398 1.389 . S
C400 C401 1.524 . S
C400 C414 1.377 1_545 S
C401 C400 1.524 . S
C401 C402 1.397 . S
C401 C406 1.363 . S
C402 H379 0.950 . S
C402 C401 1.397 . S
C402 C403 1.334 . S
C403 H380 0.950 . S
C403 C402 1.334 . S
C403 C404 1.287 . S
C404 C403 1.287 . S
C404 C405 1.524 . S
C404 H423 0.913 . S
C405 H381 0.950 . S
C405 C404 1.524 . S
C405 C406 1.415 . S
C406 H382 0.950 . S
C406 C401 1.363 . S
C406 C405 1.415 . S
C407 H383 0.951 . S
C407 C408 1.366 . S
C407 C409 1.388 . S
C408 C407 1.366 . S
C408 C412 1.385 . S
C409 H384 0.951 . S
C409 C407 1.388 . S
C409 C410 1.366 . S
C410 C409 1.366 . S
C410 C411 1.414 . S
C410 C413 1.499 . S
C411 H385 0.950 . S
C411 C410 1.414 . S
C411 C412 1.374 . S
C412 H386 0.950 . S
C412 C408 1.385 . S
C412 C411 1.374 . S
C413 C410 1.499 . S
C413 C414 1.373 . S
C413 C415 1.389 . S
C414 H387 0.950 . S
C414 C400 1.377 1_565 S
C414 C413 1.373 . S
C415 C399 1.377 1_565 S
C415 C413 1.389 . S
C415 C416 1.524 . S
C416 C415 1.524 . S
C416 C417 1.397 . S
C416 C421 1.363 . S
C417 H388 0.950 . S
C417 C416 1.397 . S
C417 C418 1.334 . S
C418 H389 0.950 . S
C418 C417 1.334 . S
C418 C419 1.287 . S
C419 C418 1.287 . S
C419 C420 1.524 . S
C419 H422 0.999 . S
C420 H390 0.950 . S
C420 C419 1.524 . S
C420 C421 1.415 . S
C421 H391 0.950 . S
C421 C416 1.363 . S
C421 C420 1.415 . S
H422 C419 0.999 . S
H423 C404 0.913 . S
H424 C442 0.951 . S
H425 C444 0.951 . S
H426 C446 0.950 . S
H427 C447 0.950 . S
H428 C449 0.950 . S
H429 C452 0.950 . S
H430 C453 0.950 . S
H431 C455 0.950 1_655 S
H432 C456 0.950 . S
H433 C457 0.951 . S
H434 C459 0.951 . S
H435 C461 0.950 . S
H436 C462 0.950 . S
H437 C464 0.950 . S
H438 C467 0.950 . S
H439 C468 0.950 . S
H440 C470 0.950 1_455 S
H441 C471 0.950 . S
C442 H424 0.951 . S
C442 C443 1.366 . S
C442 C444 1.388 . S
C443 C442 1.366 . S
C443 C447 1.385 . S
C444 H425 0.951 . S
C444 C442 1.388 . S
C444 C445 1.366 . S
C445 C444 1.366 . S
C445 C446 1.414 . S
C445 C448 1.499 . S
C446 H426 0.950 . S
C446 C445 1.414 . S
C446 C447 1.374 . S
C447 H427 0.950 . S
C447 C443 1.385 . S
C447 C446 1.374 . S
C448 C445 1.499 . S
C448 C449 1.373 . S
C448 C450 1.389 . S
C449 H428 0.950 . S
C449 C448 1.373 . S
C449 C465 1.377 1_455 S
C450 C448 1.389 . S
C450 C451 1.524 . S
C450 C464 1.377 1_455 S
C451 C450 1.524 . S
C451 C452 1.397 . S
C451 C456 1.363 1_455 S
C452 H429 0.950 . S
C452 C451 1.397 . S
C452 C453 1.334 . S
C453 H430 0.950 . S
C453 C452 1.334 . S
C453 C454 1.287 . S
C454 C453 1.287 . S
C454 C455 1.524 . S
C454 H473 0.913 . S
C455 H431 0.950 1_455 S
C455 C454 1.524 . S
C455 C456 1.415 1_455 S
C456 H432 0.950 . S
C456 C451 1.363 1_655 S
C456 C455 1.415 1_655 S
C457 H433 0.951 . S
C457 C458 1.366 . S
C457 C459 1.388 . S
C458 C457 1.366 . S
C458 C462 1.385 . S
C459 H434 0.951 . S
C459 C457 1.388 . S
C459 C460 1.366 . S
C460 C459 1.366 . S
C460 C461 1.414 . S
C460 C463 1.499 . S
C461 H435 0.950 . S
C461 C460 1.414 . S
C461 C462 1.374 . S
C462 H436 0.950 . S
C462 C458 1.385 . S
C462 C461 1.374 . S
C463 C460 1.499 . S
C463 C464 1.373 . S
C463 C465 1.389 . S
C464 H437 0.950 . S
C464 C450 1.377 1_655 S
C464 C463 1.373 . S
C465 C449 1.377 1_655 S
C465 C463 1.389 . S
C465 C466 1.524 . S
C466 C465 1.524 . S
C466 C467 1.397 . S
C466 C471 1.363 1_655 S
C467 H438 0.950 . S
C467 C466 1.397 . S
C467 C468 1.334 . S
C468 H439 0.950 . S
C468 C467 1.334 . S
C468 C469 1.287 . S
C469 C468 1.287 . S
C469 C470 1.524 . S
C469 H472 0.999 . S
C470 H440 0.950 1_655 S
C470 C469 1.524 . S
C470 C471 1.415 1_655 S
C471 H441 0.950 . S
C471 C466 1.363 1_455 S
C471 C470 1.415 1_455 S
H472 C469 0.999 . S
H473 C454 0.913 . S
H474 C492 0.951 . S
H475 C494 0.951 . S
H476 C496 0.950 . S
H477 C497 0.950 . S
H478 C499 0.950 . S
H479 C502 0.950 . S
H480 C503 0.950 . S
H481 C505 0.950 . S
H482 C506 0.950 . S
H483 C507 0.951 . S
H484 C509 0.951 . S
H485 C511 0.950 . S
H486 C512 0.950 . S
H487 C514 0.950 . S
H488 C517 0.950 . S
H489 C518 0.950 . S
H490 C520 0.950 . S
H491 C521 0.950 . S
C492 H474 0.951 . S
C492 C493 1.366 . S
C492 C494 1.388 . S
C493 C492 1.366 . S
C493 C497 1.385 . S
C494 H475 0.951 . S
C494 C492 1.388 . S
C494 C495 1.366 . S
C495 C494 1.366 . S
C495 C496 1.414 . S
C495 C498 1.499 . S
C496 H476 0.950 . S
C496 C495 1.414 . S
C496 C497 1.374 . S
C497 H477 0.950 . S
C497 C493 1.385 . S
C497 C496 1.374 . S
C498 C495 1.499 . S
C498 C499 1.373 . S
C498 C500 1.389 . S
C499 H478 0.950 . S
C499 C498 1.373 . S
C499 C515 1.377 . S
C500 C498 1.389 . S
C500 C501 1.524 . S
C500 C514 1.377 . S
C501 C500 1.524 . S
C501 C502 1.397 . S
C501 C506 1.363 . S
C502 H479 0.950 . S
C502 C501 1.397 . S
C502 C503 1.334 . S
C503 H480 0.950 . S
C503 C502 1.334 . S
C503 C504 1.287 . S
C504 C503 1.287 . S
C504 C505 1.524 . S
C504 H523 0.913 . S
C505 H481 0.950 . S
C505 C504 1.524 . S
C505 C506 1.415 . S
C506 H482 0.950 . S
C506 C501 1.363 . S
C506 C505 1.415 . S
C507 H483 0.951 . S
C507 C508 1.366 . S
C507 C509 1.388 . S
C508 C507 1.366 . S
C508 C512 1.385 . S
C509 H484 0.951 . S
C509 C507 1.388 . S
C509 C510 1.366 . S
C510 C509 1.366 . S
C510 C511 1.414 . S
C510 C513 1.499 . S
C511 H485 0.950 . S
C511 C510 1.414 . S
C511 C512 1.374 . S
C512 H486 0.950 . S
C512 C508 1.385 . S
C512 C511 1.374 . S
C513 C510 1.499 . S
C513 C514 1.373 . S
C513 C515 1.389 . S
C514 H487 0.950 . S
C514 C500 1.377 . S
C514 C513 1.373 . S
C515 C499 1.377 . S
C515 C513 1.389 . S
C515 C516 1.524 . S
C516 C515 1.524 . S
C516 C517 1.397 . S
C516 C521 1.363 . S
C517 H488 0.950 . S
C517 C516 1.397 . S
C517 C518 1.334 . S
C518 H489 0.950 . S
C518 C517 1.334 . S
C518 C519 1.287 . S
C519 C518 1.287 . S
C519 C520 1.524 . S
C519 H522 0.999 . S
C520 H490 0.950 . S
C520 C519 1.524 . S
C520 C521 1.415 . S
C521 H491 0.950 . S
C521 C516 1.363 . S
C521 C520 1.415 . S
H522 C519 0.999 . S
H523 C504 0.913 . S
H524 C542 0.951 . S
H525 C544 0.951 . S
H526 C546 0.950 1_565 S
H527 C547 0.950 . S
H528 C549 0.950 . S
H529 C552 0.950 . S
H530 C553 0.950 . S
H531 C555 0.950 . S
H532 C556 0.950 . S
H533 C557 0.951 . S
H534 C559 0.951 . S
H535 C561 0.950 1_545 S
H536 C562 0.950 . S
H537 C564 0.950 . S
H538 C567 0.950 . S
H539 C568 0.950 . S
H540 C570 0.950 . S
H541 C571 0.950 . S
C542 H524 0.951 . S
C542 C543 1.366 . S
C542 C544 1.388 . S
C543 C542 1.366 . S
C543 C547 1.385 . S
C544 H525 0.951 . S
C544 C542 1.388 . S
C544 C545 1.366 . S
C545 C544 1.366 . S
C545 C546 1.414 . S
C545 C548 1.499 . S
C546 H526 0.950 1_545 S
C546 C545 1.414 . S
C546 C547 1.374 . S
C547 H527 0.950 . S
C547 C543 1.385 . S
C547 C546 1.374 . S
C548 C545 1.499 . S
C548 C549 1.373 1_545 S
C548 C550 1.389 . S
C549 H528 0.950 . S
C549 C548 1.373 1_565 S
C549 C565 1.377 . S
C550 C548 1.389 . S
C550 C551 1.524 . S
C550 C564 1.377 . S
C551 C550 1.524 . S
C551 C552 1.397 . S
C551 C556 1.363 . S
C552 H529 0.950 . S
C552 C551 1.397 . S
C552 C553 1.334 . S
C553 H530 0.950 . S
C553 C552 1.334 . S
C553 C554 1.287 . S
C554 C553 1.287 . S
C554 C555 1.524 . S
C554 H573 0.913 . S
C555 H531 0.950 . S
C555 C554 1.524 . S
C555 C556 1.415 . S
C556 H532 0.950 . S
C556 C551 1.363 . S
C556 C555 1.415 . S
C557 H533 0.951 . S
C557 C558 1.366 . S
C557 C559 1.388 . S
C558 C557 1.366 . S
C558 C562 1.385 . S
C559 H534 0.951 . S
C559 C557 1.388 . S
C559 C560 1.366 . S
C560 C559 1.366 . S
C560 C561 1.414 . S
C560 C563 1.499 . S
C561 H535 0.950 1_565 S
C561 C560 1.414 . S
C561 C562 1.374 . S
C562 H536 0.950 . S
C562 C558 1.385 . S
C562 C561 1.374 . S
C563 C560 1.499 . S
C563 C564 1.373 1_565 S
C563 C565 1.389 . S
C564 H537 0.950 . S
C564 C550 1.377 . S
C564 C563 1.373 1_545 S
C565 C549 1.377 . S
C565 C563 1.389 . S
C565 C566 1.524 . S
C566 C565 1.524 . S
C566 C567 1.397 . S
C566 C571 1.363 . S
C567 H538 0.950 . S
C567 C566 1.397 . S
C567 C568 1.334 . S
C568 H539 0.950 . S
C568 C567 1.334 . S
C568 C569 1.287 . S
C569 C568 1.287 . S
C569 C570 1.524 . S
C569 H572 0.999 . S
C570 H540 0.950 . S
C570 C569 1.524 . S
C570 C571 1.415 . S
C571 H541 0.950 . S
C571 C566 1.363 . S
C571 C570 1.415 . S
H572 C569 0.999 . S
H573 C554 0.913 . S
H574 C592 0.951 . S
H575 C594 0.951 . S
H576 C596 0.950 . S
H577 C597 0.950 . S
H578 C599 0.950 . S
H579 C602 0.950 . S
H580 C603 0.950 . S
H581 C605 0.950 . S
H582 C606 0.950 . S
H583 C607 0.951 . S
H584 C609 0.951 . S
H585 C611 0.950 . S
H586 C612 0.950 . S
H587 C614 0.950 . S
H588 C617 0.950 . S
H589 C618 0.950 . S
H590 C620 0.950 . S
H591 C621 0.950 . S
C592 H574 0.951 . S
C592 C593 1.366 . S
C592 C594 1.388 . S
C593 C592 1.366 . S
C593 C597 1.385 . S
C594 H575 0.951 . S
C594 C592 1.388 . S
C594 C595 1.366 . S
C595 C594 1.366 . S
C595 C596 1.414 . S
C595 C598 1.499 . S
C596 H576 0.950 . S
C596 C595 1.414 . S
C596 C597 1.374 . S
C597 H577 0.950 . S
C597 C593 1.385 . S
C597 C596 1.374 . S
C598 C595 1.499 . S
C598 C599 1.373 1_455 S
C598 C600 1.391 . S
C599 H578 0.950 . S
C599 C598 1.373 1_655 S
C599 C615 1.375 1_545 S
C600 C598 1.391 . S
C600 C601 1.524 1_545 S
C600 C614 1.375 1_545 S
C601 C600 1.524 1_565 S
C601 C602 1.397 1_565 S
C601 C606 1.363 . S
C602 H579 0.950 . S
C602 C601 1.397 1_545 S
C602 C603 1.334 . S
C603 H580 0.950 . S
C603 C602 1.334 . S
C603 C604 1.287 1_545 S
C604 C603 1.287 1_565 S
C604 C605 1.524 . S
C604 H623 0.913 . S
C605 H581 0.950 . S
C605 C604 1.524 . S
C605 C606 1.415 . S
C606 H582 0.950 . S
C606 C601 1.363 . S
C606 C605 1.415 . S
C607 H583 0.951 . S
C607 C608 1.366 . S
C607 C609 1.388 . S
C608 C607 1.366 . S
C608 C612 1.385 . S
C609 H584 0.951 . S
C609 C607 1.388 . S
C609 C610 1.366 . S
C610 C609 1.366 . S
C610 C611 1.414 . S
C610 C613 1.499 . S
C611 H585 0.950 . S
C611 C610 1.414 . S
C611 C612 1.374 . S
C612 H586 0.950 . S
C612 C608 1.385 . S
C612 C611 1.374 . S
C613 C610 1.499 . S
C613 C614 1.373 1_655 S
C613 C615 1.391 . S
C614 H587 0.950 . S
C614 C600 1.375 1_565 S
C614 C613 1.373 1_455 S
C615 C599 1.375 1_565 S
C615 C613 1.391 . S
C615 C616 1.524 1_565 S
C616 C615 1.524 1_545 S
C616 C617 1.397 1_545 S
C616 C621 1.363 . S
C617 H588 0.950 . S
C617 C616 1.397 1_565 S
C617 C618 1.334 . S
C618 H589 0.950 . S
C618 C617 1.334 . S
C618 C619 1.287 1_565 S
C619 C618 1.287 1_545 S
C619 C620 1.524 . S
C619 H622 0.999 . S
C620 H590 0.950 . S
C620 C619 1.524 . S
C620 C621 1.415 . S
C621 H591 0.950 . S
C621 C616 1.363 . S
C621 C620 1.415 . S
H622 C619 0.999 . S
H623 C604 0.913 . S
H624 C642 0.951 . S
H625 C644 0.951 . S
H626 C646 0.950 . S
H627 C647 0.950 . S
H628 C649 0.950 . S
H629 C652 0.950 . S
H630 C653 0.950 . S
H631 C655 0.950 . S
H632 C656 0.950 . S
H633 C657 0.951 . S
H634 C659 0.951 . S
H635 C661 0.950 . S
H636 C662 0.950 . S
H637 C664 0.950 . S
H638 C667 0.950 . S
H639 C668 0.950 . S
H640 C670 0.950 . S
H641 C671 0.950 . S
C642 H624 0.951 . S
C642 C643 1.366 . S
C642 C644 1.388 . S
C643 C642 1.366 . S
C643 C647 1.385 . S
C644 H625 0.951 . S
C644 C642 1.388 . S
C644 C645 1.366 . S
C645 C644 1.366 . S
C645 C646 1.414 . S
C645 C648 1.499 . S
C646 H626 0.950 . S
C646 C645 1.414 . S
C646 C647 1.374 . S
C647 H627 0.950 . S
C647 C643 1.385 . S
C647 C646 1.374 . S
C648 C645 1.499 . S
C648 C649 1.373 1_565 S
C648 C650 1.389 . S
C649 H628 0.950 . S
C649 C648 1.373 1_545 S
C649 C665 1.377 . S
C650 C648 1.389 . S
C650 C651 1.524 . S
C650 C664 1.377 . S
C651 C650 1.524 . S
C651 C652 1.397 . S
C651 C656 1.363 . S
C652 H629 0.950 . S
C652 C651 1.397 . S
C652 C653 1.334 . S
C653 H630 0.950 . S
C653 C652 1.334 . S
C653 C654 1.287 . S
C654 C653 1.287 . S
C654 C655 1.524 . S
C654 H673 0.913 . S
C655 H631 0.950 . S
C655 C654 1.524 . S
C655 C656 1.415 . S
C656 H632 0.950 . S
C656 C651 1.363 . S
C656 C655 1.415 . S
C657 H633 0.951 . S
C657 C658 1.366 . S
C657 C659 1.388 . S
C658 C657 1.366 . S
C658 C662 1.385 . S
C659 H634 0.951 . S
C659 C657 1.388 . S
C659 C660 1.366 . S
C660 C659 1.366 . S
C660 C661 1.414 . S
C660 C663 1.499 . S
C661 H635 0.950 . S
C661 C660 1.414 . S
C661 C662 1.374 . S
C662 H636 0.950 . S
C662 C658 1.385 . S
C662 C661 1.374 . S
C663 C660 1.499 . S
C663 C664 1.373 1_545 S
C663 C665 1.389 . S
C664 H637 0.950 . S
C664 C650 1.377 . S
C664 C663 1.373 1_565 S
C665 C649 1.377 . S
C665 C663 1.389 . S
C665 C666 1.524 . S
C666 C665 1.524 . S
C666 C667 1.397 . S
C666 C671 1.363 . S
C667 H638 0.950 . S
C667 C666 1.397 . S
C667 C668 1.334 . S
C668 H639 0.950 . S
C668 C667 1.334 . S
C668 C669 1.287 . S
C669 C668 1.287 . S
C669 C670 1.524 . S
C669 H672 0.999 . S
C670 H640 0.950 . S
C670 C669 1.524 . S
C670 C671 1.415 . S
C671 H641 0.950 . S
C671 C666 1.363 . S
C671 C670 1.415 . S
H672 C669 0.999 . S
H673 C654 0.913 . S
H674 C692 0.951 . S
H675 C694 0.951 1_455 S
H676 C696 0.950 . S
H677 C697 0.950 . S
H678 C699 0.950 . S
H679 C702 0.950 1_655 S
H680 C703 0.950 . S
H681 C705 0.950 . S
H682 C706 0.950 . S
H683 C707 0.951 . S
H684 C709 0.951 1_655 S
H685 C711 0.950 . S
H686 C712 0.950 . S
H687 C714 0.950 . S
H688 C717 0.950 1_455 S
H689 C718 0.950 . S
H690 C720 0.950 . S
H691 C721 0.950 . S
C692 H674 0.951 . S
C692 C693 1.366 . S
C692 C694 1.388 . S
C693 C692 1.366 . S
C693 C697 1.385 . S
C694 H675 0.951 1_655 S
C694 C692 1.388 . S
C694 C695 1.366 . S
C695 C694 1.366 . S
C695 C696 1.414 . S
C695 C698 1.499 . S
C696 H676 0.950 . S
C696 C695 1.414 . S
C696 C697 1.374 . S
C697 H677 0.950 . S
C697 C693 1.385 . S
C697 C696 1.374 . S
C698 C695 1.499 . S
C698 C699 1.373 . S
C698 C700 1.389 1_655 S
C699 H678 0.950 . S
C699 C698 1.373 . S
C699 C715 1.377 1_565 S
C700 C698 1.389 1_455 S
C700 C701 1.524 . S
C700 C714 1.377 1_565 S
C701 C700 1.524 . S
C701 C702 1.397 . S
C701 C706 1.363 . S
C702 H679 0.950 1_455 S
C702 C701 1.397 . S
C702 C703 1.334 . S
C703 H680 0.950 . S
C703 C702 1.334 . S
C703 C704 1.287 . S
C704 C703 1.287 . S
C704 C705 1.524 . S
C704 H723 0.913 . S
C705 H681 0.950 . S
C705 C704 1.524 . S
C705 C706 1.415 . S
C706 H682 0.950 . S
C706 C701 1.363 . S
C706 C705 1.415 . S
C707 H683 0.951 . S
C707 C708 1.366 . S
C707 C709 1.388 . S
C708 C707 1.366 . S
C708 C712 1.385 . S
C709 H684 0.951 1_455 S
C709 C707 1.388 . S
C709 C710 1.366 . S
C710 C709 1.366 . S
C710 C711 1.414 . S
C710 C713 1.499 . S
C711 H685 0.950 . S
C711 C710 1.414 . S
C711 C712 1.374 . S
C712 H686 0.950 . S
C712 C708 1.385 . S
C712 C711 1.374 . S
C713 C710 1.499 . S
C713 C714 1.373 . S
C713 C715 1.389 1_455 S
C714 H687 0.950 . S
C714 C700 1.377 1_545 S
C714 C713 1.373 . S
C715 C699 1.377 1_545 S
C715 C713 1.389 1_655 S
C715 C716 1.524 . S
C716 C715 1.524 . S
C716 C717 1.397 . S
C716 C721 1.363 . S
C717 H688 0.950 1_655 S
C717 C716 1.397 . S
C717 C718 1.334 . S
C718 H689 0.950 . S
C718 C717 1.334 . S
C718 C719 1.287 . S
C719 C718 1.287 . S
C719 C720 1.524 . S
C719 H722 0.999 . S
C720 H690 0.950 . S
C720 C719 1.524 . S
C720 C721 1.415 . S
C721 H691 0.950 . S
C721 C716 1.363 . S
C721 C720 1.415 . S
H722 C719 0.999 . S
H723 C704 0.913 . S
H724 C742 0.951 . S
H725 C744 0.951 . S
H726 C746 0.950 . S
H727 C747 0.950 . S
H728 C749 0.950 . S
H729 C752 0.950 . S
H730 C753 0.950 . S
H731 C755 0.950 . S
H732 C756 0.950 . S
H733 C757 0.951 . S
H734 C759 0.951 . S
H735 C761 0.950 . S
H736 C762 0.950 . S
H737 C764 0.950 . S
H738 C767 0.950 . S
H739 C768 0.950 . S
H740 C770 0.950 . S
H741 C771 0.950 . S
C742 H724 0.951 . S
C742 C743 1.366 . S
C742 C744 1.388 . S
C743 C742 1.366 . S
C743 C747 1.385 . S
C744 H725 0.951 . S
C744 C742 1.388 . S
C744 C745 1.366 . S
C745 C744 1.366 . S
C745 C746 1.414 . S
C745 C748 1.499 . S
C746 H726 0.950 . S
C746 C745 1.414 . S
C746 C747 1.374 . S
C747 H727 0.950 . S
C747 C743 1.385 . S
C747 C746 1.374 . S
C748 C745 1.499 . S
C748 C749 1.373 . S
C748 C750 1.389 . S
C749 H728 0.950 . S
C749 C748 1.373 . S
C749 C765 1.377 1_455 S
C750 C748 1.389 . S
C750 C751 1.524 . S
C750 C764 1.377 1_455 S
C751 C750 1.524 . S
C751 C752 1.397 . S
C751 C756 1.363 1_455 S
C752 H729 0.950 . S
C752 C751 1.397 . S
C752 C753 1.334 . S
C753 H730 0.950 . S
C753 C752 1.334 . S
C753 C754 1.287 . S
C754 C753 1.287 . S
C754 C755 1.524 1_455 S
C754 H773 0.913 . S
C755 H731 0.950 . S
C755 C754 1.524 1_655 S
C755 C756 1.415 . S
C756 H732 0.950 . S
C756 C751 1.363 1_655 S
C756 C755 1.415 . S
C757 H733 0.951 . S
C757 C758 1.366 . S
C757 C759 1.388 . S
C758 C757 1.366 . S
C758 C762 1.385 . S
C759 H734 0.951 . S
C759 C757 1.388 . S
C759 C760 1.366 . S
C760 C759 1.366 . S
C760 C761 1.414 . S
C760 C763 1.499 . S
C761 H735 0.950 . S
C761 C760 1.414 . S
C761 C762 1.374 . S
C762 H736 0.950 . S
C762 C758 1.385 . S
C762 C761 1.374 . S
C763 C760 1.499 . S
C763 C764 1.373 . S
C763 C765 1.389 . S
C764 H737 0.950 . S
C764 C750 1.377 1_655 S
C764 C763 1.373 . S
C765 C749 1.377 1_655 S
C765 C763 1.389 . S
C765 C766 1.524 . S
C766 C765 1.524 . S
C766 C767 1.397 . S
C766 C771 1.363 1_655 S
C767 H738 0.950 . S
C767 C766 1.397 . S
C767 C768 1.334 . S
C768 H739 0.950 . S
C768 C767 1.334 . S
C768 C769 1.287 . S
C769 C768 1.287 . S
C769 C770 1.524 1_655 S
C769 H772 0.999 . S
C770 H740 0.950 . S
C770 C769 1.524 1_455 S
C770 C771 1.415 . S
C771 H741 0.950 . S
C771 C766 1.363 1_455 S
C771 C770 1.415 . S
H772 C769 0.999 . S
H773 C754 0.913 . S
H774 C792 0.951 . S
H775 C794 0.951 . S
H776 C796 0.950 . S
H777 C797 0.950 . S
H778 C799 0.950 . S
H779 C802 0.950 . S
H780 C803 0.950 . S
H781 C805 0.950 . S
H782 C806 0.950 . S
H783 C807 0.951 . S
H784 C809 0.951 . S
H785 C811 0.950 . S
H786 C812 0.950 . S
H787 C814 0.950 . S
H788 C817 0.950 . S
H789 C818 0.950 . S
H790 C820 0.950 . S
H791 C821 0.950 . S
C792 H774 0.951 . S
C792 C793 1.366 . S
C792 C794 1.388 . S
C793 C792 1.366 . S
C793 C797 1.385 . S
C794 H775 0.951 . S
C794 C792 1.388 . S
C794 C795 1.366 . S
C795 C794 1.366 . S
C795 C796 1.414 . S
C795 C798 1.499 . S
C796 H776 0.950 . S
C796 C795 1.414 . S
C796 C797 1.374 . S
C797 H777 0.950 . S
C797 C793 1.385 . S
C797 C796 1.374 . S
C798 C795 1.499 . S
C798 C799 1.373 . S
C798 C800 1.389 . S
C799 H778 0.950 . S
C799 C798 1.373 . S
C799 C815 1.377 . S
C800 C798 1.389 . S
C800 C801 1.524 . S
C800 C814 1.377 . S
C801 C800 1.524 . S
C801 C802 1.397 . S
C801 C806 1.363 . S
C802 H779 0.950 . S
C802 C801 1.397 . S
C802 C803 1.334 . S
C803 H780 0.950 . S
C803 C802 1.334 . S
C803 C804 1.287 . S
C804 C803 1.287 . S
C804 C805 1.524 . S
C804 H823 0.913 . S
C805 H781 0.950 . S
C805 C804 1.524 . S
C805 C806 1.415 . S
C806 H782 0.950 . S
C806 C801 1.363 . S
C806 C805 1.415 . S
C807 H783 0.951 . S
C807 C808 1.366 . S
C807 C809 1.388 . S
C808 C807 1.366 . S
C808 C812 1.385 . S
C809 H784 0.951 . S
C809 C807 1.388 . S
C809 C810 1.366 . S
C810 C809 1.366 . S
C810 C811 1.414 . S
C810 C813 1.499 . S
C811 H785 0.950 . S
C811 C810 1.414 . S
C811 C812 1.374 . S
C812 H786 0.950 . S
C812 C808 1.385 . S
C812 C811 1.374 . S
C813 C810 1.499 . S
C813 C814 1.373 . S
C813 C815 1.389 . S
C814 H787 0.950 . S
C814 C800 1.377 . S
C814 C813 1.373 . S
C815 C799 1.377 . S
C815 C813 1.389 . S
C815 C816 1.524 . S
C816 C815 1.524 . S
C816 C817 1.397 . S
C816 C821 1.363 . S
C817 H788 0.950 . S
C817 C816 1.397 . S
C817 C818 1.334 . S
C818 H789 0.950 . S
C818 C817 1.334 . S
C818 C819 1.287 . S
C819 C818 1.287 . S
C819 C820 1.524 . S
C819 H822 0.999 . S
C820 H790 0.950 . S
C820 C819 1.524 . S
C820 C821 1.415 . S
C821 H791 0.950 . S
C821 C816 1.363 . S
C821 C820 1.415 . S
H822 C819 0.999 . S
H823 C804 0.913 . S
H824 C842 0.951 . S
H825 C844 0.951 . S
H826 C846 0.950 . S
H827 C847 0.950 . S
H828 C849 0.950 . S
H829 C852 0.950 . S
H830 C853 0.950 . S
H831 C855 0.950 . S
H832 C856 0.950 . S
H833 C857 0.951 . S
H834 C859 0.951 . S
H835 C861 0.950 . S
H836 C862 0.950 . S
H837 C864 0.950 . S
H838 C867 0.950 . S
H839 C868 0.950 . S
H840 C870 0.950 . S
H841 C871 0.950 . S
C842 H824 0.951 . S
C842 C843 1.366 . S
C842 C844 1.388 . S
C843 C842 1.366 . S
C843 C847 1.385 . S
C844 H825 0.951 . S
C844 C842 1.388 . S
C844 C845 1.366 . S
C845 C844 1.366 . S
C845 C846 1.414 . S
C845 C848 1.499 . S
C846 H826 0.950 . S
C846 C845 1.414 . S
C846 C847 1.374 . S
C847 H827 0.950 . S
C847 C843 1.385 . S
C847 C846 1.374 . S
C848 C845 1.499 . S
C848 C849 1.373 . S
C848 C850 1.389 . S
C849 H828 0.950 . S
C849 C848 1.373 . S
C849 C865 1.377 . S
C850 C848 1.389 . S
C850 C851 1.524 . S
C850 C864 1.377 . S
C851 C850 1.524 . S
C851 C852 1.397 . S
C851 C856 1.363 . S
C852 H829 0.950 . S
C852 C851 1.397 . S
C852 C853 1.334 . S
C853 H830 0.950 . S
C853 C852 1.334 . S
C853 C854 1.287 . S
C854 C853 1.287 . S
C854 C855 1.524 . S
C854 H873 0.913 . S
C855 H831 0.950 . S
C855 C854 1.524 . S
C855 C856 1.415 . S
C856 H832 0.950 . S
C856 C851 1.363 . S
C856 C855 1.415 . S
C857 H833 0.951 . S
C857 C858 1.366 . S
C857 C859 1.388 . S
C858 C857 1.366 . S
C858 C862 1.385 . S
C859 H834 0.951 . S
C859 C857 1.388 . S
C859 C860 1.366 . S
C860 C859 1.366 . S
C860 C861 1.414 . S
C860 C863 1.499 . S
C861 H835 0.950 . S
C861 C860 1.414 . S
C861 C862 1.374 . S
C862 H836 0.950 . S
C862 C858 1.385 . S
C862 C861 1.374 . S
C863 C860 1.499 . S
C863 C864 1.373 . S
C863 C865 1.389 . S
C864 H837 0.950 . S
C864 C850 1.377 . S
C864 C863 1.373 . S
C865 C849 1.377 . S
C865 C863 1.389 . S
C865 C866 1.524 . S
C866 C865 1.524 . S
C866 C867 1.397 . S
C866 C871 1.363 . S
C867 H838 0.950 . S
C867 C866 1.397 . S
C867 C868 1.334 . S
C868 H839 0.950 . S
C868 C867 1.334 . S
C868 C869 1.287 . S
C869 C868 1.287 . S
C869 C870 1.524 . S
C869 H872 0.999 . S
C870 H840 0.950 . S
C870 C869 1.524 . S
C870 C871 1.415 . S
C871 H841 0.950 . S
C871 C866 1.363 . S
C871 C870 1.415 . S
H872 C869 0.999 . S
H873 C854 0.913 . S
H874 C892 0.951 . S
H875 C894 0.951 . S
H876 C896 0.950 . S
H877 C897 0.950 . S
H878 C899 0.950 . S
H879 C902 0.950 . S
H880 C903 0.950 . S
H881 C905 0.950 1_545 S
H882 C906 0.950 . S
H883 C907 0.951 . S
H884 C909 0.951 . S
H885 C911 0.950 . S
H886 C912 0.950 . S
H887 C914 0.950 . S
H888 C917 0.950 . S
H889 C918 0.950 . S
H890 C920 0.950 1_565 S
H891 C921 0.950 . S
C892 H874 0.951 . S
C892 C893 1.366 . S
C892 C894 1.388 . S
C893 C892 1.366 . S
C893 C897 1.385 . S
C894 H875 0.951 . S
C894 C892 1.388 . S
C894 C895 1.366 . S
C895 C894 1.366 . S
C895 C896 1.414 . S
C895 C898 1.499 . S
C896 H876 0.950 . S
C896 C895 1.414 . S
C896 C897 1.374 . S
C897 H877 0.950 . S
C897 C893 1.385 . S
C897 C896 1.374 . S
C898 C895 1.499 . S
C898 C899 1.373 . S
C898 C900 1.389 . S
C899 H878 0.950 . S
C899 C898 1.373 . S
C899 C915 1.377 1_565 S
C900 C898 1.389 . S
C900 C901 1.524 . S
C900 C914 1.377 1_565 S
C901 C900 1.524 . S
C901 C902 1.397 . S
C901 C906 1.363 1_565 S
C902 H879 0.950 . S
C902 C901 1.397 . S
C902 C903 1.334 . S
C903 H880 0.950 . S
C903 C902 1.334 . S
C903 C904 1.287 . S
C904 C903 1.287 . S
C904 C905 1.524 . S
C904 H923 0.913 . S
C905 H881 0.950 1_565 S
C905 C904 1.524 . S
C905 C906 1.415 1_565 S
C906 H882 0.950 . S
C906 C901 1.363 1_545 S
C906 C905 1.415 1_545 S
C907 H883 0.951 . S
C907 C908 1.366 . S
C907 C909 1.388 . S
C908 C907 1.366 . S
C908 C912 1.385 . S
C909 H884 0.951 . S
C909 C907 1.388 . S
C909 C910 1.366 . S
C910 C909 1.366 . S
C910 C911 1.414 . S
C910 C913 1.499 . S
C911 H885 0.950 . S
C911 C910 1.414 . S
C911 C912 1.374 . S
C912 H886 0.950 . S
C912 C908 1.385 . S
C912 C911 1.374 . S
C913 C910 1.499 . S
C913 C914 1.373 . S
C913 C915 1.389 . S
C914 H887 0.950 . S
C914 C900 1.377 1_545 S
C914 C913 1.373 . S
C915 C899 1.377 1_545 S
C915 C913 1.389 . S
C915 C916 1.524 . S
C916 C915 1.524 . S
C916 C917 1.397 . S
C916 C921 1.363 1_545 S
C917 H888 0.950 . S
C917 C916 1.397 . S
C917 C918 1.334 . S
C918 H889 0.950 . S
C918 C917 1.334 . S
C918 C919 1.287 . S
C919 C918 1.287 . S
C919 C920 1.524 . S
C919 H922 0.999 . S
C920 H890 0.950 1_545 S
C920 C919 1.524 . S
C920 C921 1.415 1_545 S
C921 H891 0.950 . S
C921 C916 1.363 1_565 S
C921 C920 1.415 1_565 S
H922 C919 0.999 . S
H923 C904 0.913 . S
H924 C942 0.951 . S
H925 C944 0.951 . S
H926 C946 0.950 . S
H927 C947 0.950 . S
H928 C949 0.950 . S
H929 C952 0.950 . S
H930 C953 0.950 . S
H931 C955 0.950 . S
H932 C956 0.950 . S
H933 C957 0.951 . S
H934 C959 0.951 . S
H935 C961 0.950 . S
H936 C962 0.950 . S
H937 C964 0.950 . S
H938 C967 0.950 . S
H939 C968 0.950 . S
H940 C970 0.950 . S
H941 C971 0.950 . S
C942 H924 0.951 . S
C942 C943 1.366 . S
C942 C944 1.388 . S
C943 C942 1.366 . S
C943 C947 1.385 . S
C944 H925 0.951 . S
C944 C942 1.388 . S
C944 C945 1.366 . S
C945 C944 1.366 . S
C945 C946 1.414 . S
C945 C948 1.499 . S
C946 H926 0.950 . S
C946 C945 1.414 . S
C946 C947 1.374 . S
C947 H927 0.950 . S
C947 C943 1.385 . S
C947 C946 1.374 . S
C948 C945 1.499 . S
C948 C949 1.373 1_565 S
C948 C950 1.393 . S
C949 H928 0.950 . S
C949 C948 1.373 1_545 S
C949 C965 1.372 1_655 S
C950 C948 1.393 . S
C950 C951 1.524 1_655 S
C950 C964 1.373 1_655 S
C951 C950 1.524 1_455 S
C951 C952 1.397 1_455 S
C951 C956 1.363 . S
C952 H929 0.950 . S
C952 C951 1.397 1_655 S
C952 C953 1.334 . S
C953 H930 0.950 . S
C953 C952 1.334 . S
C953 C954 1.287 1_655 S
C954 C953 1.287 1_455 S
C954 C955 1.524 . S
C954 H973 0.913 . S
C955 H931 0.950 . S
C955 C954 1.524 . S
C955 C956 1.415 . S
C956 H932 0.950 . S
C956 C951 1.363 . S
C956 C955 1.415 . S
C957 H933 0.951 . S
C957 C958 1.366 . S
C957 C959 1.388 . S
C958 C957 1.366 . S
C958 C962 1.385 . S
C959 H934 0.951 . S
C959 C957 1.388 . S
C959 C960 1.366 . S
C960 C959 1.366 . S
C960 C961 1.414 . S
C960 C963 1.499 . S
C961 H935 0.950 . S
C961 C960 1.414 . S
C961 C962 1.374 . S
C962 H936 0.950 . S
C962 C958 1.385 . S
C962 C961 1.374 . S
C963 C960 1.499 . S
C963 C964 1.373 1_545 S
C963 C965 1.394 . S
C964 H937 0.950 . S
C964 C950 1.373 1_455 S
C964 C963 1.373 1_565 S
C965 C949 1.372 1_455 S
C965 C963 1.394 . S
C965 C966 1.524 1_455 S
C966 C965 1.524 1_655 S
C966 C967 1.397 1_655 S
C966 C971 1.363 . S
C967 H938 0.950 . S
C967 C966 1.397 1_455 S
C967 C968 1.334 . S
C968 H939 0.950 . S
C968 C967 1.334 . S
C968 C969 1.287 1_455 S
C969 C968 1.287 1_655 S
C969 C970 1.524 . S
C969 H972 0.999 . S
C970 H940 0.950 . S
C970 C969 1.524 . S
C970 C971 1.415 . S
C971 H941 0.950 . S
C971 C966 1.363 . S
C971 C970 1.415 . S
H972 C969 0.999 . S
H973 C954 0.913 . S
H974 C992 0.951 . S
H975 C994 0.951 . S
H976 C996 0.950 . S
H977 C997 0.950 . S
H978 C999 0.950 . S
H979 C1002 0.950 . S
H980 C1003 0.950 . S
H981 C1005 0.950 . S
H982 C1006 0.950 . S
H983 C1007 0.951 . S
H984 C1009 0.951 . S
H985 C1011 0.950 . S
H986 C1012 0.950 . S
H987 C1014 0.950 . S
H988 C1017 0.950 . S
H989 C1018 0.950 . S
H990 C1020 0.950 . S
H991 C1021 0.950 . S
C992 H974 0.951 . S
C992 C993 1.366 . S
C992 C994 1.388 . S
C993 C992 1.366 . S
C993 C997 1.385 . S
C994 H975 0.951 . S
C994 C992 1.388 . S
C994 C995 1.366 . S
C995 C994 1.366 . S
C995 C996 1.414 . S
C995 C998 1.499 . S
C996 H976 0.950 . S
C996 C995 1.414 . S
C996 C997 1.374 . S
C997 H977 0.950 . S
C997 C993 1.385 . S
C997 C996 1.374 . S
C998 C995 1.499 . S
C998 C999 1.373 1_455 S
C998 C1000 1.389 . S
C999 H978 0.950 . S
C999 C998 1.373 1_655 S
C999 C1015 1.377 . S
C1000 C998 1.389 . S
C1000 C1001 1.524 . S
C1000 C1014 1.377 . S
C1001 C1000 1.524 . S
C1001 C1002 1.397 . S
C1001 C1006 1.363 . S
C1002 H979 0.950 . S
C1002 C1001 1.397 . S
C1002 C1003 1.334 . S
C1003 H980 0.950 . S
C1003 C1002 1.334 . S
C1003 C1004 1.287 . S
C1004 C1003 1.287 . S
C1004 C1005 1.524 . S
C1004 H1023 0.913 . S
C1005 H981 0.950 . S
C1005 C1004 1.524 . S
C1005 C1006 1.415 . S
C1006 H982 0.950 . S
C1006 C1001 1.363 . S
C1006 C1005 1.415 . S
C1007 H983 0.951 . S
C1007 C1008 1.366 . S
C1007 C1009 1.388 . S
C1008 C1007 1.366 . S
C1008 C1012 1.385 . S
C1009 H984 0.951 . S
C1009 C1007 1.388 . S
C1009 C1010 1.366 . S
C1010 C1009 1.366 . S
C1010 C1011 1.414 . S
C1010 C1013 1.499 . S
C1011 H985 0.950 . S
C1011 C1010 1.414 . S
C1011 C1012 1.374 . S
C1012 H986 0.950 . S
C1012 C1008 1.385 . S
C1012 C1011 1.374 . S
C1013 C1010 1.499 . S
C1013 C1014 1.373 1_655 S
C1013 C1015 1.389 . S
C1014 H987 0.950 . S
C1014 C1000 1.377 . S
C1014 C1013 1.373 1_455 S
C1015 C999 1.377 . S
C1015 C1013 1.389 . S
C1015 C1016 1.524 . S
C1016 C1015 1.524 . S
C1016 C1017 1.397 . S
C1016 C1021 1.363 . S
C1017 H988 0.950 . S
C1017 C1016 1.397 . S
C1017 C1018 1.334 . S
C1018 H989 0.950 . S
C1018 C1017 1.334 . S
C1018 C1019 1.287 . S
C1019 C1018 1.287 . S
C1019 C1020 1.524 . S
C1019 H1022 0.999 . S
C1020 H990 0.950 . S
C1020 C1019 1.524 . S
C1020 C1021 1.415 . S
C1021 H991 0.950 . S
C1021 C1016 1.363 . S
C1021 C1020 1.415 . S
H1022 C1019 0.999 . S
H1023 C1004 0.913 . S
H1024 C1042 0.951 . S
H1025 C1044 0.951 . S
H1026 C1046 0.950 . S
H1027 C1047 0.950 . S
H1028 C1049 0.950 . S
H1029 C1052 0.950 . S
H1030 C1053 0.950 . S
H1031 C1055 0.950 . S
H1032 C1056 0.950 . S
H1033 C1057 0.951 . S
H1034 C1059 0.951 . S
H1035 C1061 0.950 . S
H1036 C1062 0.950 . S
H1037 C1064 0.950 . S
H1038 C1067 0.950 . S
H1039 C1068 0.950 . S
H1040 C1070 0.950 . S
H1041 C1071 0.950 . S
C1042 H1024 0.951 . S
C1042 C1043 1.366 . S
C1042 C1044 1.388 . S
C1043 C1042 1.366 . S
C1043 C1047 1.385 . S
C1044 H1025 0.951 . S
C1044 C1042 1.388 . S
C1044 C1045 1.366 . S
C1045 C1044 1.366 . S
C1045 C1046 1.414 . S
C1045 C1048 1.499 . S
C1046 H1026 0.950 . S
C1046 C1045 1.414 . S
C1046 C1047 1.374 . S
C1047 H1027 0.950 . S
C1047 C1043 1.385 . S
C1047 C1046 1.374 . S
C1048 C1045 1.499 . S
C1048 C1049 1.373 . S
C1048 C1050 1.389 . S
C1049 H1028 0.950 . S
C1049 C1048 1.373 . S
C1049 C1065 1.377 . S
C1050 C1048 1.389 . S
C1050 C1051 1.524 . S
C1050 C1064 1.377 . S
C1051 C1050 1.524 . S
C1051 C1052 1.397 . S
C1051 C1056 1.363 . S
C1052 H1029 0.950 . S
C1052 C1051 1.397 . S
C1052 C1053 1.334 . S
C1053 H1030 0.950 . S
C1053 C1052 1.334 . S
C1053 C1054 1.287 . S
C1054 C1053 1.287 . S
C1054 C1055 1.524 . S
C1054 H1073 0.913 1_545 S
C1055 H1031 0.950 . S
C1055 C1054 1.524 . S
C1055 C1056 1.415 . S
C1056 H1032 0.950 . S
C1056 C1051 1.363 . S
C1056 C1055 1.415 . S
C1057 H1033 0.951 . S
C1057 C1058 1.366 . S
C1057 C1059 1.388 . S
C1058 C1057 1.366 . S
C1058 C1062 1.385 . S
C1059 H1034 0.951 . S
C1059 C1057 1.388 . S
C1059 C1060 1.366 . S
C1060 C1059 1.366 . S
C1060 C1061 1.414 . S
C1060 C1063 1.499 . S
C1061 H1035 0.950 . S
C1061 C1060 1.414 . S
C1061 C1062 1.374 . S
C1062 H1036 0.950 . S
C1062 C1058 1.385 . S
C1062 C1061 1.374 . S
C1063 C1060 1.499 . S
C1063 C1064 1.373 . S
C1063 C1065 1.389 . S
C1064 H1037 0.950 . S
C1064 C1050 1.377 . S
C1064 C1063 1.373 . S
C1065 C1049 1.377 . S
C1065 C1063 1.389 . S
C1065 C1066 1.524 . S
C1066 C1065 1.524 . S
C1066 C1067 1.397 . S
C1066 C1071 1.363 . S
C1067 H1038 0.950 . S
C1067 C1066 1.397 . S
C1067 C1068 1.334 . S
C1068 H1039 0.950 . S
C1068 C1067 1.334 . S
C1068 C1069 1.287 . S
C1069 C1068 1.287 . S
C1069 C1070 1.524 . S
C1069 H1072 0.999 . S
C1070 H1040 0.950 . S
C1070 C1069 1.524 . S
C1070 C1071 1.415 . S
C1071 H1041 0.950 . S
C1071 C1066 1.363 . S
C1071 C1070 1.415 . S
H1072 C1069 0.999 . S
H1073 C1054 0.913 1_565 S
H1074 C1092 0.951 . S
H1075 C1094 0.951 . S
H1076 C1096 0.950 . S
H1077 C1097 0.950 . S
H1078 C1099 0.950 . S
H1079 C1102 0.950 . S
H1080 C1103 0.950 . S
H1081 C1105 0.950 . S
H1082 C1106 0.950 . S
H1083 C1107 0.951 . S
H1084 C1109 0.951 . S
H1085 C1111 0.950 . S
H1086 C1112 0.950 . S
H1087 C1114 0.950 . S
H1088 C1117 0.950 . S
H1089 C1118 0.950 . S
H1090 C1120 0.950 1_455 S
H1091 C1121 0.950 . S
C1092 H1074 0.951 . S
C1092 C1093 1.366 . S
C1092 C1094 1.388 . S
C1093 C1092 1.366 . S
C1093 C1097 1.385 . S
C1094 H1075 0.951 . S
C1094 C1092 1.388 . S
C1094 C1095 1.366 . S
C1095 C1094 1.366 . S
C1095 C1096 1.414 . S
C1095 C1098 1.499 . S
C1096 H1076 0.950 . S
C1096 C1095 1.414 . S
C1096 C1097 1.374 . S
C1097 H1077 0.950 . S
C1097 C1093 1.385 . S
C1097 C1096 1.374 . S
C1098 C1095 1.499 . S
C1098 C1099 1.373 . S
C1098 C1100 1.389 . S
C1099 H1078 0.950 . S
C1099 C1098 1.373 . S
C1099 C1115 1.377 . S
C1100 C1098 1.389 . S
C1100 C1101 1.524 . S
C1100 C1114 1.377 . S
C1101 C1100 1.524 . S
C1101 C1102 1.397 . S
C1101 C1106 1.363 . S
C1102 H1079 0.950 . S
C1102 C1101 1.397 . S
C1102 C1103 1.334 . S
C1103 H1080 0.950 . S
C1103 C1102 1.334 . S
C1103 C1104 1.287 . S
C1104 C1103 1.287 . S
C1104 C1105 1.524 . S
C1104 H1123 0.913 . S
C1105 H1081 0.950 . S
C1105 C1104 1.524 . S
C1105 C1106 1.415 . S
C1106 H1082 0.950 . S
C1106 C1101 1.363 . S
C1106 C1105 1.415 . S
C1107 H1083 0.951 . S
C1107 C1108 1.366 . S
C1107 C1109 1.388 . S
C1108 C1107 1.366 . S
C1108 C1112 1.385 . S
C1109 H1084 0.951 . S
C1109 C1107 1.388 . S
C1109 C1110 1.366 . S
C1110 C1109 1.366 . S
C1110 C1111 1.414 . S
C1110 C1113 1.499 . S
C1111 H1085 0.950 . S
C1111 C1110 1.414 . S
C1111 C1112 1.374 . S
C1112 H1086 0.950 . S
C1112 C1108 1.385 . S
C1112 C1111 1.374 . S
C1113 C1110 1.499 . S
C1113 C1114 1.373 . S
C1113 C1115 1.389 . S
C1114 H1087 0.950 . S
C1114 C1100 1.377 . S
C1114 C1113 1.373 . S
C1115 C1099 1.377 . S
C1115 C1113 1.389 . S
C1115 C1116 1.524 . S
C1116 C1115 1.524 . S
C1116 C1117 1.397 . S
C1116 C1121 1.363 . S
C1117 H1088 0.950 . S
C1117 C1116 1.397 . S
C1117 C1118 1.334 . S
C1118 H1089 0.950 . S
C1118 C1117 1.334 . S
C1118 C1119 1.287 . S
C1119 C1118 1.287 . S
C1119 C1120 1.524 . S
C1119 H1122 0.999 . S
C1120 H1090 0.950 1_655 S
C1120 C1119 1.524 . S
C1120 C1121 1.415 . S
C1121 H1091 0.950 . S
C1121 C1116 1.363 . S
C1121 C1120 1.415 . S
H1122 C1119 0.999 . S
H1123 C1104 0.913 . S
H1124 C1142 0.951 . S
H1125 C1144 0.951 . S
H1126 C1146 0.950 . S
H1127 C1147 0.950 . S
H1128 C1149 0.950 . S
H1129 C1152 0.950 . S
H1130 C1153 0.950 . S
H1131 C1155 0.950 . S
H1132 C1156 0.950 . S
H1133 C1157 0.951 . S
H1134 C1159 0.951 . S
H1135 C1161 0.950 . S
H1136 C1162 0.950 . S
H1137 C1164 0.950 . S
H1138 C1167 0.950 . S
H1139 C1168 0.950 . S
H1140 C1170 0.950 . S
H1141 C1171 0.950 . S
C1142 H1124 0.951 . S
C1142 C1143 1.366 . S
C1142 C1144 1.388 . S
C1143 C1142 1.366 . S
C1143 C1147 1.385 . S
C1144 H1125 0.951 . S
C1144 C1142 1.388 . S
C1144 C1145 1.366 . S
C1145 C1144 1.366 . S
C1145 C1146 1.414 . S
C1145 C1148 1.499 . S
C1146 H1126 0.950 . S
C1146 C1145 1.414 . S
C1146 C1147 1.374 . S
C1147 H1127 0.950 . S
C1147 C1143 1.385 . S
C1147 C1146 1.374 . S
C1148 C1145 1.499 . S
C1148 C1149 1.373 . S
C1148 C1150 1.389 . S
C1149 H1128 0.950 . S
C1149 C1148 1.373 . S
C1149 C1165 1.377 . S
C1150 C1148 1.389 . S
C1150 C1151 1.524 . S
C1150 C1164 1.377 . S
C1151 C1150 1.524 . S
C1151 C1152 1.397 . S
C1151 C1156 1.363 . S
C1152 H1129 0.950 . S
C1152 C1151 1.397 . S
C1152 C1153 1.334 . S
C1153 H1130 0.950 . S
C1153 C1152 1.334 . S
C1153 C1154 1.287 . S
C1154 C1153 1.287 . S
C1154 C1155 1.524 . S
C1154 H1173 0.913 . S
C1155 H1131 0.950 . S
C1155 C1154 1.524 . S
C1155 C1156 1.415 . S
C1156 H1132 0.950 . S
C1156 C1151 1.363 . S
C1156 C1155 1.415 . S
C1157 H1133 0.951 . S
C1157 C1158 1.366 . S
C1157 C1159 1.388 . S
C1158 C1157 1.366 . S
C1158 C1162 1.385 . S
C1159 H1134 0.951 . S
C1159 C1157 1.388 . S
C1159 C1160 1.366 . S
C1160 C1159 1.366 . S
C1160 C1161 1.414 . S
C1160 C1163 1.499 . S
C1161 H1135 0.950 . S
C1161 C1160 1.414 . S
C1161 C1162 1.374 . S
C1162 H1136 0.950 . S
C1162 C1158 1.385 . S
C1162 C1161 1.374 . S
C1163 C1160 1.499 . S
C1163 C1164 1.373 . S
C1163 C1165 1.389 . S
C1164 H1137 0.950 . S
C1164 C1150 1.377 . S
C1164 C1163 1.373 . S
C1165 C1149 1.377 . S
C1165 C1163 1.389 . S
C1165 C1166 1.524 . S
C1166 C1165 1.524 . S
C1166 C1167 1.397 . S
C1166 C1171 1.363 . S
C1167 H1138 0.950 . S
C1167 C1166 1.397 . S
C1167 C1168 1.334 . S
C1168 H1139 0.950 . S
C1168 C1167 1.334 . S
C1168 C1169 1.287 . S
C1169 C1168 1.287 . S
C1169 C1170 1.524 . S
C1169 H1172 0.999 . S
C1170 H1140 0.950 . S
C1170 C1169 1.524 . S
C1170 C1171 1.415 . S
C1171 H1141 0.950 . S
C1171 C1166 1.363 . S
C1171 C1170 1.415 . S
H1172 C1169 0.999 . S
H1173 C1154 0.913 . S
H1174 C1192 0.951 . S
H1175 C1194 0.951 . S
H1176 C1196 0.950 . S
H1177 C1197 0.950 . S
H1178 C1199 0.950 . S
H1179 C1202 0.950 . S
H1180 C1203 0.950 . S
H1181 C1205 0.950 . S
H1182 C1206 0.950 . S
H1183 C1207 0.951 . S
H1184 C1209 0.951 . S
H1185 C1211 0.950 . S
H1186 C1212 0.950 . S
H1187 C1214 0.950 . S
H1188 C1217 0.950 . S
H1189 C1218 0.950 . S
H1190 C1220 0.950 . S
H1191 C1221 0.950 . S
C1192 H1174 0.951 . S
C1192 C1193 1.366 . S
C1192 C1194 1.388 . S
C1193 C1192 1.366 . S
C1193 C1197 1.385 . S
C1194 H1175 0.951 . S
C1194 C1192 1.388 . S
C1194 C1195 1.366 . S
C1195 C1194 1.366 . S
C1195 C1196 1.414 . S
C1195 C1198 1.499 . S
C1196 H1176 0.950 . S
C1196 C1195 1.414 . S
C1196 C1197 1.374 . S
C1197 H1177 0.950 . S
C1197 C1193 1.385 . S
C1197 C1196 1.374 . S
C1198 C1195 1.499 . S
C1198 C1199 1.373 . S
C1198 C1200 1.389 . S
C1199 H1178 0.950 . S
C1199 C1198 1.373 . S
C1199 C1215 1.377 . S
C1200 C1198 1.389 . S
C1200 C1201 1.524 . S
C1200 C1214 1.377 . S
C1201 C1200 1.524 . S
C1201 C1202 1.397 . S
C1201 C1206 1.363 . S
C1202 H1179 0.950 . S
C1202 C1201 1.397 . S
C1202 C1203 1.334 . S
C1203 H1180 0.950 . S
C1203 C1202 1.334 . S
C1203 C1204 1.287 . S
C1204 C1203 1.287 . S
C1204 C1205 1.524 . S
C1204 H1223 0.913 . S
C1205 H1181 0.950 . S
C1205 C1204 1.524 . S
C1205 C1206 1.415 . S
C1206 H1182 0.950 . S
C1206 C1201 1.363 . S
C1206 C1205 1.415 . S
C1207 H1183 0.951 . S
C1207 C1208 1.366 . S
C1207 C1209 1.388 . S
C1208 C1207 1.366 . S
C1208 C1212 1.385 . S
C1209 H1184 0.951 . S
C1209 C1207 1.388 . S
C1209 C1210 1.366 . S
C1210 C1209 1.366 . S
C1210 C1211 1.414 . S
C1210 C1213 1.499 . S
C1211 H1185 0.950 . S
C1211 C1210 1.414 . S
C1211 C1212 1.374 . S
C1212 H1186 0.950 . S
C1212 C1208 1.385 . S
C1212 C1211 1.374 . S
C1213 C1210 1.499 . S
C1213 C1214 1.373 . S
C1213 C1215 1.389 . S
C1214 H1187 0.950 . S
C1214 C1200 1.377 . S
C1214 C1213 1.373 . S
C1215 C1199 1.377 . S
C1215 C1213 1.389 . S
C1215 C1216 1.524 . S
C1216 C1215 1.524 . S
C1216 C1217 1.397 . S
C1216 C1221 1.363 . S
C1217 H1188 0.950 . S
C1217 C1216 1.397 . S
C1217 C1218 1.334 . S
C1218 H1189 0.950 . S
C1218 C1217 1.334 . S
C1218 C1219 1.287 . S
C1219 C1218 1.287 . S
C1219 C1220 1.524 . S
C1219 H1222 0.999 . S
C1220 H1190 0.950 . S
C1220 C1219 1.524 . S
C1220 C1221 1.415 . S
C1221 H1191 0.950 . S
C1221 C1216 1.363 . S
C1221 C1220 1.415 . S
H1222 C1219 0.999 . S
H1223 C1204 0.913 . S
H1224 C1242 0.951 . S
H1225 C1244 0.951 . S
H1226 C1246 0.950 . S
H1227 C1247 0.950 . S
H1228 C1249 0.950 . S
H1229 C1252 0.950 . S
H1230 C1253 0.950 . S
H1231 C1255 0.950 . S
H1232 C1256 0.950 . S
H1233 C1257 0.951 . S
H1234 C1259 0.951 . S
H1235 C1261 0.950 . S
H1236 C1262 0.950 . S
H1237 C1264 0.950 . S
H1238 C1267 0.950 . S
H1239 C1268 0.950 . S
H1240 C1270 0.950 . S
H1241 C1271 0.950 . S
C1242 H1224 0.951 . S
C1242 C1243 1.366 . S
C1242 C1244 1.388 . S
C1243 C1242 1.366 . S
C1243 C1247 1.385 . S
C1244 H1225 0.951 . S
C1244 C1242 1.388 . S
C1244 C1245 1.366 . S
C1245 C1244 1.366 . S
C1245 C1246 1.414 . S
C1245 C1248 1.499 . S
C1246 H1226 0.950 . S
C1246 C1245 1.414 . S
C1246 C1247 1.374 . S
C1247 H1227 0.950 . S
C1247 C1243 1.385 . S
C1247 C1246 1.374 . S
C1248 C1245 1.499 . S
C1248 C1249 1.373 . S
C1248 C1250 1.389 . S
C1249 H1228 0.950 . S
C1249 C1248 1.373 . S
C1249 C1265 1.377 . S
C1250 C1248 1.389 . S
C1250 C1251 1.524 . S
C1250 C1264 1.377 . S
C1251 C1250 1.524 . S
C1251 C1252 1.397 . S
C1251 C1256 1.363 . S
C1252 H1229 0.950 . S
C1252 C1251 1.397 . S
C1252 C1253 1.334 . S
C1253 H1230 0.950 . S
C1253 C1252 1.334 . S
C1253 C1254 1.287 . S
C1254 C1253 1.287 . S
C1254 C1255 1.524 . S
C1254 H1273 0.913 . S
C1255 H1231 0.950 . S
C1255 C1254 1.524 . S
C1255 C1256 1.415 . S
C1256 H1232 0.950 . S
C1256 C1251 1.363 . S
C1256 C1255 1.415 . S
C1257 H1233 0.951 . S
C1257 C1258 1.366 . S
C1257 C1259 1.388 . S
C1258 C1257 1.366 . S
C1258 C1262 1.385 . S
C1259 H1234 0.951 . S
C1259 C1257 1.388 . S
C1259 C1260 1.366 . S
C1260 C1259 1.366 . S
C1260 C1261 1.414 . S
C1260 C1263 1.499 . S
C1261 H1235 0.950 . S
C1261 C1260 1.414 . S
C1261 C1262 1.374 . S
C1262 H1236 0.950 . S
C1262 C1258 1.385 . S
C1262 C1261 1.374 . S
C1263 C1260 1.499 . S
C1263 C1264 1.373 . S
C1263 C1265 1.389 . S
C1264 H1237 0.950 . S
C1264 C1250 1.377 . S
C1264 C1263 1.373 . S
C1265 C1249 1.377 . S
C1265 C1263 1.389 . S
C1265 C1266 1.524 . S
C1266 C1265 1.524 . S
C1266 C1267 1.397 . S
C1266 C1271 1.363 . S
C1267 H1238 0.950 . S
C1267 C1266 1.397 . S
C1267 C1268 1.334 . S
C1268 H1239 0.950 . S
C1268 C1267 1.334 . S
C1268 C1269 1.287 . S
C1269 C1268 1.287 . S
C1269 C1270 1.524 . S
C1269 H1272 0.999 . S
C1270 H1240 0.950 . S
C1270 C1269 1.524 . S
C1270 C1271 1.415 . S
C1271 H1241 0.950 . S
C1271 C1266 1.363 . S
C1271 C1270 1.415 . S
H1272 C1269 0.999 . S
H1273 C1254 0.913 . S
H1274 C1292 0.951 . S
H1275 C1294 0.951 . S
H1276 C1296 0.950 . S
H1277 C1297 0.950 . S
H1278 C1299 0.950 . S
H1279 C1302 0.950 . S
H1280 C1303 0.950 . S
H1281 C1305 0.950 . S
H1282 C1306 0.950 . S
H1283 C1307 0.951 . S
H1284 C1309 0.951 . S
H1285 C1311 0.950 . S
H1286 C1312 0.950 . S
H1287 C1314 0.950 . S
H1288 C1317 0.950 . S
H1289 C1318 0.950 . S
H1290 C1320 0.950 . S
H1291 C1321 0.950 . S
C1292 H1274 0.951 . S
C1292 C1293 1.366 . S
C1292 C1294 1.388 . S
C1293 C1292 1.366 . S
C1293 C1297 1.385 . S
C1294 H1275 0.951 . S
C1294 C1292 1.388 . S
C1294 C1295 1.366 . S
C1295 C1294 1.366 . S
C1295 C1296 1.414 . S
C1295 C1298 1.499 . S
C1296 H1276 0.950 . S
C1296 C1295 1.414 . S
C1296 C1297 1.374 . S
C1297 H1277 0.950 . S
C1297 C1293 1.385 . S
C1297 C1296 1.374 . S
C1298 C1295 1.499 . S
C1298 C1299 1.373 . S
C1298 C1300 1.389 . S
C1299 H1278 0.950 . S
C1299 C1298 1.373 . S
C1299 C1315 1.377 . S
C1300 C1298 1.389 . S
C1300 C1301 1.524 . S
C1300 C1314 1.377 . S
C1301 C1300 1.524 . S
C1301 C1302 1.397 . S
C1301 C1306 1.363 . S
C1302 H1279 0.950 . S
C1302 C1301 1.397 . S
C1302 C1303 1.334 . S
C1303 H1280 0.950 . S
C1303 C1302 1.334 . S
C1303 C1304 1.287 . S
C1304 C1303 1.287 . S
C1304 C1305 1.524 . S
C1304 H1323 0.913 . S
C1305 H1281 0.950 . S
C1305 C1304 1.524 . S
C1305 C1306 1.415 . S
C1306 H1282 0.950 . S
C1306 C1301 1.363 . S
C1306 C1305 1.415 . S
C1307 H1283 0.951 . S
C1307 C1308 1.366 . S
C1307 C1309 1.388 . S
C1308 C1307 1.366 . S
C1308 C1312 1.385 . S
C1309 H1284 0.951 . S
C1309 C1307 1.388 . S
C1309 C1310 1.366 . S
C1310 C1309 1.366 . S
C1310 C1311 1.414 . S
C1310 C1313 1.499 . S
C1311 H1285 0.950 . S
C1311 C1310 1.414 . S
C1311 C1312 1.374 . S
C1312 H1286 0.950 . S
C1312 C1308 1.385 . S
C1312 C1311 1.374 . S
C1313 C1310 1.499 . S
C1313 C1314 1.373 . S
C1313 C1315 1.389 . S
C1314 H1287 0.950 . S
C1314 C1300 1.377 . S
C1314 C1313 1.373 . S
C1315 C1299 1.377 . S
C1315 C1313 1.389 . S
C1315 C1316 1.524 . S
C1316 C1315 1.524 . S
C1316 C1317 1.397 . S
C1316 C1321 1.363 . S
C1317 H1288 0.950 . S
C1317 C1316 1.397 . S
C1317 C1318 1.334 . S
C1318 H1289 0.950 . S
C1318 C1317 1.334 . S
C1318 C1319 1.287 . S
C1319 C1318 1.287 . S
C1319 C1320 1.524 . S
C1319 H1322 0.999 . S
C1320 H1290 0.950 . S
C1320 C1319 1.524 . S
C1320 C1321 1.415 . S
C1321 H1291 0.950 . S
C1321 C1316 1.363 . S
C1321 C1320 1.415 . S
H1322 C1319 0.999 . S
H1323 C1304 0.913 . S
H1324 C1342 0.951 . S
H1325 C1344 0.951 . S
H1326 C1346 0.950 . S
H1327 C1347 0.950 . S
H1328 C1349 0.950 . S
H1329 C1352 0.950 . S
H1330 C1353 0.950 . S
H1331 C1355 0.950 . S
H1332 C1356 0.950 . S
H1333 C1357 0.951 . S
H1334 C1359 0.951 . S
H1335 C1361 0.950 . S
H1336 C1362 0.950 . S
H1337 C1364 0.950 . S
H1338 C1367 0.950 . S
H1339 C1368 0.950 . S
H1340 C1370 0.950 . S
H1341 C1371 0.950 . S
C1342 H1324 0.951 . S
C1342 C1343 1.366 . S
C1342 C1344 1.388 . S
C1343 C1342 1.366 . S
C1343 C1347 1.385 . S
C1344 H1325 0.951 . S
C1344 C1342 1.388 . S
C1344 C1345 1.366 . S
C1345 C1344 1.366 . S
C1345 C1346 1.414 . S
C1345 C1348 1.499 . S
C1346 H1326 0.950 . S
C1346 C1345 1.414 . S
C1346 C1347 1.374 . S
C1347 H1327 0.950 . S
C1347 C1343 1.385 . S
C1347 C1346 1.374 . S
C1348 C1345 1.499 . S
C1348 C1349 1.373 . S
C1348 C1350 1.389 . S
C1349 H1328 0.950 . S
C1349 C1348 1.373 . S
C1349 C1365 1.377 . S
C1350 C1348 1.389 . S
C1350 C1351 1.524 . S
C1350 C1364 1.377 . S
C1351 C1350 1.524 . S
C1351 C1352 1.397 . S
C1351 C1356 1.363 . S
C1352 H1329 0.950 . S
C1352 C1351 1.397 . S
C1352 C1353 1.334 . S
C1353 H1330 0.950 . S
C1353 C1352 1.334 . S
C1353 C1354 1.287 . S
C1354 C1353 1.287 . S
C1354 C1355 1.524 . S
C1354 H1373 0.913 . S
C1355 H1331 0.950 . S
C1355 C1354 1.524 . S
C1355 C1356 1.415 . S
C1356 H1332 0.950 . S
C1356 C1351 1.363 . S
C1356 C1355 1.415 . S
C1357 H1333 0.951 . S
C1357 C1358 1.366 . S
C1357 C1359 1.388 . S
C1358 C1357 1.366 . S
C1358 C1362 1.385 . S
C1359 H1334 0.951 . S
C1359 C1357 1.388 . S
C1359 C1360 1.366 . S
C1360 C1359 1.366 . S
C1360 C1361 1.414 . S
C1360 C1363 1.499 . S
C1361 H1335 0.950 . S
C1361 C1360 1.414 . S
C1361 C1362 1.374 . S
C1362 H1336 0.950 . S
C1362 C1358 1.385 . S
C1362 C1361 1.374 . S
C1363 C1360 1.499 . S
C1363 C1364 1.373 . S
C1363 C1365 1.389 . S
C1364 H1337 0.950 . S
C1364 C1350 1.377 . S
C1364 C1363 1.373 . S
C1365 C1349 1.377 . S
C1365 C1363 1.389 . S
C1365 C1366 1.524 . S
C1366 C1365 1.524 . S
C1366 C1367 1.397 . S
C1366 C1371 1.363 . S
C1367 H1338 0.950 . S
C1367 C1366 1.397 . S
C1367 C1368 1.334 . S
C1368 H1339 0.950 . S
C1368 C1367 1.334 . S
C1368 C1369 1.287 . S
C1369 C1368 1.287 . S
C1369 C1370 1.524 . S
C1369 H1372 0.999 . S
C1370 H1340 0.950 . S
C1370 C1369 1.524 . S
C1370 C1371 1.415 . S
C1371 H1341 0.950 . S
C1371 C1366 1.363 . S
C1371 C1370 1.415 . S
H1372 C1369 0.999 . S
H1373 C1354 0.913 . S
H1374 C1392 0.951 . S
H1375 C1394 0.951 . S
H1376 C1396 0.950 . S
H1377 C1397 0.950 . S
H1378 C1399 0.950 . S
H1379 C1402 0.950 . S
H1380 C1403 0.950 . S
H1381 C1405 0.950 . S
H1382 C1406 0.950 . S
H1383 C1407 0.951 . S
H1384 C1409 0.951 . S
H1385 C1411 0.950 . S
H1386 C1412 0.950 . S
H1387 C1414 0.950 . S
H1388 C1417 0.950 . S
H1389 C1418 0.950 . S
H1390 C1420 0.950 . S
H1391 C1421 0.950 . S
C1392 H1374 0.951 . S
C1392 C1393 1.366 . S
C1392 C1394 1.388 . S
C1393 C1392 1.366 . S
C1393 C1397 1.385 . S
C1394 H1375 0.951 . S
C1394 C1392 1.388 . S
C1394 C1395 1.366 . S
C1395 C1394 1.366 . S
C1395 C1396 1.414 . S
C1395 C1398 1.499 . S
C1396 H1376 0.950 . S
C1396 C1395 1.414 . S
C1396 C1397 1.374 . S
C1397 H1377 0.950 . S
C1397 C1393 1.385 . S
C1397 C1396 1.374 . S
C1398 C1395 1.499 . S
C1398 C1399 1.373 . S
C1398 C1400 1.389 . S
C1399 H1378 0.950 . S
C1399 C1398 1.373 . S
C1399 C1415 1.377 . S
C1400 C1398 1.389 . S
C1400 C1401 1.524 . S
C1400 C1414 1.377 . S
C1401 C1400 1.524 . S
C1401 C1402 1.397 . S
C1401 C1406 1.363 . S
C1402 H1379 0.950 . S
C1402 C1401 1.397 . S
C1402 C1403 1.334 . S
C1403 H1380 0.950 . S
C1403 C1402 1.334 . S
C1403 C1404 1.287 . S
C1404 C1403 1.287 . S
C1404 C1405 1.524 . S
C1404 H1423 0.913 . S
C1405 H1381 0.950 . S
C1405 C1404 1.524 . S
C1405 C1406 1.415 . S
C1406 H1382 0.950 . S
C1406 C1401 1.363 . S
C1406 C1405 1.415 . S
C1407 H1383 0.951 . S
C1407 C1408 1.366 . S
C1407 C1409 1.388 . S
C1408 C1407 1.366 . S
C1408 C1412 1.385 . S
C1409 H1384 0.951 . S
C1409 C1407 1.388 . S
C1409 C1410 1.366 . S
C1410 C1409 1.366 . S
C1410 C1411 1.414 . S
C1410 C1413 1.499 . S
C1411 H1385 0.950 . S
C1411 C1410 1.414 . S
C1411 C1412 1.374 . S
C1412 H1386 0.950 . S
C1412 C1408 1.385 . S
C1412 C1411 1.374 . S
C1413 C1410 1.499 . S
C1413 C1414 1.373 . S
C1413 C1415 1.389 . S
C1414 H1387 0.950 . S
C1414 C1400 1.377 . S
C1414 C1413 1.373 . S
C1415 C1399 1.377 . S
C1415 C1413 1.389 . S
C1415 C1416 1.524 . S
C1416 C1415 1.524 . S
C1416 C1417 1.397 . S
C1416 C1421 1.363 . S
C1417 H1388 0.950 . S
C1417 C1416 1.397 . S
C1417 C1418 1.334 . S
C1418 H1389 0.950 . S
C1418 C1417 1.334 . S
C1418 C1419 1.287 . S
C1419 C1418 1.287 . S
C1419 C1420 1.524 . S
C1419 H1422 0.999 1_455 S
C1420 H1390 0.950 . S
C1420 C1419 1.524 . S
C1420 C1421 1.415 . S
C1421 H1391 0.950 . S
C1421 C1416 1.363 . S
C1421 C1420 1.415 . S
H1422 C1419 0.999 1_655 S
H1423 C1404 0.913 . S
H1424 C1442 0.951 . S
H1425 C1444 0.951 . S
H1426 C1446 0.950 . S
H1427 C1447 0.950 . S
H1428 C1449 0.950 . S
H1429 C1452 0.950 . S
H1430 C1453 0.950 . S
H1431 C1455 0.950 . S
H1432 C1456 0.950 . S
H1433 C1457 0.951 . S
H1434 C1459 0.951 . S
H1435 C1461 0.950 . S
H1436 C1462 0.950 . S
H1437 C1464 0.950 . S
H1438 C1467 0.950 . S
H1439 C1468 0.950 . S
H1440 C1470 0.950 . S
H1441 C1471 0.950 . S
C1442 H1424 0.951 . S
C1442 C1443 1.366 . S
C1442 C1444 1.388 . S
C1443 C1442 1.366 . S
C1443 C1447 1.385 . S
C1444 H1425 0.951 . S
C1444 C1442 1.388 . S
C1444 C1445 1.366 . S
C1445 C1444 1.366 . S
C1445 C1446 1.414 . S
C1445 C1448 1.499 . S
C1446 H1426 0.950 . S
C1446 C1445 1.414 . S
C1446 C1447 1.374 . S
C1447 H1427 0.950 . S
C1447 C1443 1.385 . S
C1447 C1446 1.374 . S
C1448 C1445 1.499 . S
C1448 C1449 1.373 . S
C1448 C1450 1.389 . S
C1449 H1428 0.950 . S
C1449 C1448 1.373 . S
C1449 C1465 1.377 . S
C1450 C1448 1.389 . S
C1450 C1451 1.524 . S
C1450 C1464 1.377 . S
C1451 C1450 1.524 . S
C1451 C1452 1.397 . S
C1451 C1456 1.363 . S
C1452 H1429 0.950 . S
C1452 C1451 1.397 . S
C1452 C1453 1.334 . S
C1453 H1430 0.950 . S
C1453 C1452 1.334 . S
C1453 C1454 1.287 . S
C1454 C1453 1.287 . S
C1454 C1455 1.524 . S
C1454 H1473 0.913 . S
C1455 H1431 0.950 . S
C1455 C1454 1.524 . S
C1455 C1456 1.415 . S
C1456 H1432 0.950 . S
C1456 C1451 1.363 . S
C1456 C1455 1.415 . S
C1457 H1433 0.951 . S
C1457 C1458 1.366 . S
C1457 C1459 1.388 . S
C1458 C1457 1.366 . S
C1458 C1462 1.385 . S
C1459 H1434 0.951 . S
C1459 C1457 1.388 . S
C1459 C1460 1.366 . S
C1460 C1459 1.366 . S
C1460 C1461 1.414 . S
C1460 C1463 1.499 . S
C1461 H1435 0.950 . S
C1461 C1460 1.414 . S
C1461 C1462 1.374 . S
C1462 H1436 0.950 . S
C1462 C1458 1.385 . S
C1462 C1461 1.374 . S
C1463 C1460 1.499 . S
C1463 C1464 1.373 . S
C1463 C1465 1.389 . S
C1464 H1437 0.950 . S
C1464 C1450 1.377 . S
C1464 C1463 1.373 . S
C1465 C1449 1.377 . S
C1465 C1463 1.389 . S
C1465 C1466 1.524 . S
C1466 C1465 1.524 . S
C1466 C1467 1.397 . S
C1466 C1471 1.363 . S
C1467 H1438 0.950 . S
C1467 C1466 1.397 . S
C1467 C1468 1.334 . S
C1468 H1439 0.950 . S
C1468 C1467 1.334 . S
C1468 C1469 1.287 . S
C1469 C1468 1.287 . S
C1469 C1470 1.524 . S
C1469 H1472 0.999 . S
C1470 H1440 0.950 . S
C1470 C1469 1.524 . S
C1470 C1471 1.415 . S
C1471 H1441 0.950 . S
C1471 C1466 1.363 . S
C1471 C1470 1.415 . S
H1472 C1469 0.999 . S
H1473 C1454 0.913 . S
H1474 C1492 0.951 . S
H1475 C1494 0.951 . S
H1476 C1496 0.950 . S
H1477 C1497 0.950 . S
H1478 C1499 0.950 . S
H1479 C1502 0.950 . S
H1480 C1503 0.950 . S
H1481 C1505 0.950 . S
H1482 C1506 0.950 . S
H1483 C1507 0.951 . S
H1484 C1509 0.951 . S
H1485 C1511 0.950 . S
H1486 C1512 0.950 . S
H1487 C1514 0.950 . S
H1488 C1517 0.950 . S
H1489 C1518 0.950 . S
H1490 C1520 0.950 . S
H1491 C1521 0.950 . S
C1492 H1474 0.951 . S
C1492 C1493 1.366 . S
C1492 C1494 1.388 . S
C1493 C1492 1.366 . S
C1493 C1497 1.385 . S
C1494 H1475 0.951 . S
C1494 C1492 1.388 . S
C1494 C1495 1.366 . S
C1495 C1494 1.366 . S
C1495 C1496 1.414 . S
C1495 C1498 1.499 . S
C1496 H1476 0.950 . S
C1496 C1495 1.414 . S
C1496 C1497 1.374 . S
C1497 H1477 0.950 . S
C1497 C1493 1.385 . S
C1497 C1496 1.374 . S
C1498 C1495 1.499 . S
C1498 C1499 1.373 . S
C1498 C1500 1.389 . S
C1499 H1478 0.950 . S
C1499 C1498 1.373 . S
C1499 C1515 1.377 . S
C1500 C1498 1.389 . S
C1500 C1501 1.524 . S
C1500 C1514 1.377 . S
C1501 C1500 1.524 . S
C1501 C1502 1.397 . S
C1501 C1506 1.363 . S
C1502 H1479 0.950 . S
C1502 C1501 1.397 . S
C1502 C1503 1.334 . S
C1503 H1480 0.950 . S
C1503 C1502 1.334 . S
C1503 C1504 1.287 . S
C1504 C1503 1.287 . S
C1504 C1505 1.524 . S
C1504 H1523 0.913 . S
C1505 H1481 0.950 . S
C1505 C1504 1.524 . S
C1505 C1506 1.415 . S
C1506 H1482 0.950 . S
C1506 C1501 1.363 . S
C1506 C1505 1.415 . S
C1507 H1483 0.951 . S
C1507 C1508 1.366 . S
C1507 C1509 1.388 . S
C1508 C1507 1.366 . S
C1508 C1512 1.385 . S
C1509 H1484 0.951 . S
C1509 C1507 1.388 . S
C1509 C1510 1.366 . S
C1510 C1509 1.366 . S
C1510 C1511 1.414 . S
C1510 C1513 1.499 . S
C1511 H1485 0.950 . S
C1511 C1510 1.414 . S
C1511 C1512 1.374 . S
C1512 H1486 0.950 . S
C1512 C1508 1.385 . S
C1512 C1511 1.374 . S
C1513 C1510 1.499 . S
C1513 C1514 1.373 . S
C1513 C1515 1.389 . S
C1514 H1487 0.950 . S
C1514 C1500 1.377 . S
C1514 C1513 1.373 . S
C1515 C1499 1.377 . S
C1515 C1513 1.389 . S
C1515 C1516 1.524 . S
C1516 C1515 1.524 . S
C1516 C1517 1.397 . S
C1516 C1521 1.363 . S
C1517 H1488 0.950 . S
C1517 C1516 1.397 . S
C1517 C1518 1.334 . S
C1518 H1489 0.950 . S
C1518 C1517 1.334 . S
C1518 C1519 1.287 . S
C1519 C1518 1.287 . S
C1519 C1520 1.524 . S
C1519 H1522 0.999 . S
C1520 H1490 0.950 . S
C1520 C1519 1.524 . S
C1520 C1521 1.415 . S
C1521 H1491 0.950 . S
C1521 C1516 1.363 . S
C1521 C1520 1.415 . S
H1522 C1519 0.999 . S
H1523 C1504 0.913 . S
H1524 C1542 0.951 . S
H1525 C1544 0.951 . S
H1526 C1546 0.950 . S
H1527 C1547 0.950 . S
H1528 C1549 0.950 . S
H1529 C1552 0.950 . S
H1530 C1553 0.950 . S
H1531 C1555 0.950 . S
H1532 C1556 0.950 . S
H1533 C1557 0.951 . S
H1534 C1559 0.951 . S
H1535 C1561 0.950 . S
H1536 C1562 0.950 . S
H1537 C1564 0.950 . S
H1538 C1567 0.950 . S
H1539 C1568 0.950 . S
H1540 C1570 0.950 . S
H1541 C1571 0.950 . S
C1542 H1524 0.951 . S
C1542 C1543 1.366 . S
C1542 C1544 1.388 . S
C1543 C1542 1.366 . S
C1543 C1547 1.385 . S
C1544 H1525 0.951 . S
C1544 C1542 1.388 . S
C1544 C1545 1.366 . S
C1545 C1544 1.366 . S
C1545 C1546 1.414 . S
C1545 C1548 1.499 . S
C1546 H1526 0.950 . S
C1546 C1545 1.414 . S
C1546 C1547 1.374 . S
C1547 H1527 0.950 . S
C1547 C1543 1.385 . S
C1547 C1546 1.374 . S
C1548 C1545 1.499 . S
C1548 C1549 1.373 . S
C1548 C1550 1.389 . S
C1549 H1528 0.950 . S
C1549 C1548 1.373 . S
C1549 C1565 1.377 . S
C1550 C1548 1.389 . S
C1550 C1551 1.524 . S
C1550 C1564 1.377 . S
C1551 C1550 1.524 . S
C1551 C1552 1.397 . S
C1551 C1556 1.363 . S
C1552 H1529 0.950 . S
C1552 C1551 1.397 . S
C1552 C1553 1.334 . S
C1553 H1530 0.950 . S
C1553 C1552 1.334 . S
C1553 C1554 1.287 . S
C1554 C1553 1.287 . S
C1554 C1555 1.524 . S
C1554 H1573 0.913 . S
C1555 H1531 0.950 . S
C1555 C1554 1.524 . S
C1555 C1556 1.415 . S
C1556 H1532 0.950 . S
C1556 C1551 1.363 . S
C1556 C1555 1.415 . S
C1557 H1533 0.951 . S
C1557 C1558 1.366 . S
C1557 C1559 1.388 . S
C1558 C1557 1.366 . S
C1558 C1562 1.385 . S
C1559 H1534 0.951 . S
C1559 C1557 1.388 . S
C1559 C1560 1.366 . S
C1560 C1559 1.366 . S
C1560 C1561 1.414 . S
C1560 C1563 1.499 . S
C1561 H1535 0.950 . S
C1561 C1560 1.414 . S
C1561 C1562 1.374 . S
C1562 H1536 0.950 . S
C1562 C1558 1.385 . S
C1562 C1561 1.374 . S
C1563 C1560 1.499 . S
C1563 C1564 1.373 . S
C1563 C1565 1.389 . S
C1564 H1537 0.950 . S
C1564 C1550 1.377 . S
C1564 C1563 1.373 . S
C1565 C1549 1.377 . S
C1565 C1563 1.389 . S
C1565 C1566 1.524 . S
C1566 C1565 1.524 . S
C1566 C1567 1.397 . S
C1566 C1571 1.363 . S
C1567 H1538 0.950 . S
C1567 C1566 1.397 . S
C1567 C1568 1.334 . S
C1568 H1539 0.950 . S
C1568 C1567 1.334 . S
C1568 C1569 1.287 . S
C1569 C1568 1.287 . S
C1569 C1570 1.524 . S
C1569 H1572 0.999 . S
C1570 H1540 0.950 . S
C1570 C1569 1.524 . S
C1570 C1571 1.415 . S
C1571 H1541 0.950 . S
C1571 C1566 1.363 . S
C1571 C1570 1.415 . S
H1572 C1569 0.999 . S
H1573 C1554 0.913 . S
H1574 C1592 0.951 . S
H1575 C1594 0.951 . S
H1576 C1596 0.950 . S
H1577 C1597 0.950 . S
H1578 C1599 0.950 . S
H1579 C1602 0.950 . S
H1580 C1603 0.950 . S
H1581 C1605 0.950 . S
H1582 C1606 0.950 . S
H1583 C1607 0.951 . S
H1584 C1609 0.951 . S
H1585 C1611 0.950 . S
H1586 C1612 0.950 . S
H1587 C1614 0.950 . S
H1588 C1617 0.950 . S
H1589 C1618 0.950 . S
H1590 C1620 0.950 . S
H1591 C1621 0.950 . S
C1592 H1574 0.951 . S
C1592 C1593 1.366 . S
C1592 C1594 1.388 . S
C1593 C1592 1.366 . S
C1593 C1597 1.385 . S
C1594 H1575 0.951 . S
C1594 C1592 1.388 . S
C1594 C1595 1.366 . S
C1595 C1594 1.366 . S
C1595 C1596 1.414 . S
C1595 C1598 1.499 . S
C1596 H1576 0.950 . S
C1596 C1595 1.414 . S
C1596 C1597 1.374 . S
C1597 H1577 0.950 . S
C1597 C1593 1.385 . S
C1597 C1596 1.374 . S
C1598 C1595 1.499 . S
C1598 C1599 1.373 . S
C1598 C1600 1.389 . S
C1599 H1578 0.950 . S
C1599 C1598 1.373 . S
C1599 C1615 1.377 1_556 S
C1600 C1598 1.389 . S
C1600 C1601 1.524 . S
C1600 C1614 1.377 1_556 S
C1601 C1600 1.524 . S
C1601 C1602 1.397 . S
C1601 C1606 1.363 . S
C1602 H1579 0.950 . S
C1602 C1601 1.397 . S
C1602 C1603 1.334 . S
C1603 H1580 0.950 . S
C1603 C1602 1.334 . S
C1603 C1604 1.287 . S
C1604 C1603 1.287 . S
C1604 C1605 1.524 . S
C1604 H1623 0.913 . S
C1605 H1581 0.950 . S
C1605 C1604 1.524 . S
C1605 C1606 1.415 . S
C1606 H1582 0.950 . S
C1606 C1601 1.363 . S
C1606 C1605 1.415 . S
C1607 H1583 0.951 . S
C1607 C1608 1.366 . S
C1607 C1609 1.388 . S
C1608 C1607 1.366 . S
C1608 C1612 1.385 . S
C1609 H1584 0.951 . S
C1609 C1607 1.388 . S
C1609 C1610 1.366 . S
C1610 C1609 1.366 . S
C1610 C1611 1.414 . S
C1610 C1613 1.499 . S
C1611 H1585 0.950 . S
C1611 C1610 1.414 . S
C1611 C1612 1.374 . S
C1612 H1586 0.950 . S
C1612 C1608 1.385 . S
C1612 C1611 1.374 . S
C1613 C1610 1.499 . S
C1613 C1614 1.373 . S
C1613 C1615 1.389 . S
C1614 H1587 0.950 . S
C1614 C1600 1.377 1_554 S
C1614 C1613 1.373 . S
C1615 C1599 1.377 1_554 S
C1615 C1613 1.389 . S
C1615 C1616 1.524 . S
C1616 C1615 1.524 . S
C1616 C1617 1.397 . S
C1616 C1621 1.363 . S
C1617 H1588 0.950 . S
C1617 C1616 1.397 . S
C1617 C1618 1.334 . S
C1618 H1589 0.950 . S
C1618 C1617 1.334 . S
C1618 C1619 1.287 . S
C1619 C1618 1.287 . S
C1619 C1620 1.524 . S
C1619 H1622 0.999 . S
C1620 H1590 0.950 . S
C1620 C1619 1.524 . S
C1620 C1621 1.415 . S
C1621 H1591 0.950 . S
C1621 C1616 1.363 . S
C1621 C1620 1.415 . S
H1622 C1619 0.999 . S
H1623 C1604 0.913 . S
H1624 C1642 0.951 . S
H1625 C1644 0.951 . S
H1626 C1646 0.950 . S
H1627 C1647 0.950 . S
H1628 C1649 0.950 . S
H1629 C1652 0.950 . S
H1630 C1653 0.950 . S
H1631 C1655 0.950 . S
H1632 C1656 0.950 . S
H1633 C1657 0.951 . S
H1634 C1659 0.951 . S
H1635 C1661 0.950 . S
H1636 C1662 0.950 . S
H1637 C1664 0.950 . S
H1638 C1667 0.950 . S
H1639 C1668 0.950 . S
H1640 C1670 0.950 . S
H1641 C1671 0.950 . S
C1642 H1624 0.951 . S
C1642 C1643 1.366 . S
C1642 C1644 1.388 . S
C1643 C1642 1.366 . S
C1643 C1647 1.385 . S
C1644 H1625 0.951 . S
C1644 C1642 1.388 . S
C1644 C1645 1.366 . S
C1645 C1644 1.366 . S
C1645 C1646 1.414 . S
C1645 C1648 1.499 . S
C1646 H1626 0.950 . S
C1646 C1645 1.414 . S
C1646 C1647 1.374 . S
C1647 H1627 0.950 . S
C1647 C1643 1.385 . S
C1647 C1646 1.374 . S
C1648 C1645 1.499 . S
C1648 C1649 1.373 . S
C1648 C1650 1.389 . S
C1649 H1628 0.950 . S
C1649 C1648 1.373 . S
C1649 C1665 1.377 1_554 S
C1650 C1648 1.389 . S
C1650 C1651 1.524 . S
C1650 C1664 1.377 1_554 S
C1651 C1650 1.524 . S
C1651 C1652 1.397 . S
C1651 C1656 1.363 . S
C1652 H1629 0.950 . S
C1652 C1651 1.397 . S
C1652 C1653 1.334 . S
C1653 H1630 0.950 . S
C1653 C1652 1.334 . S
C1653 C1654 1.287 . S
C1654 C1653 1.287 . S
C1654 C1655 1.524 . S
C1654 H1673 0.913 . S
C1655 H1631 0.950 . S
C1655 C1654 1.524 . S
C1655 C1656 1.415 . S
C1656 H1632 0.950 . S
C1656 C1651 1.363 . S
C1656 C1655 1.415 . S
C1657 H1633 0.951 . S
C1657 C1658 1.366 . S
C1657 C1659 1.388 . S
C1658 C1657 1.366 . S
C1658 C1662 1.385 . S
C1659 H1634 0.951 . S
C1659 C1657 1.388 . S
C1659 C1660 1.366 . S
C1660 C1659 1.366 . S
C1660 C1661 1.414 . S
C1660 C1663 1.499 . S
C1661 H1635 0.950 . S
C1661 C1660 1.414 . S
C1661 C1662 1.374 . S
C1662 H1636 0.950 . S
C1662 C1658 1.385 . S
C1662 C1661 1.374 . S
C1663 C1660 1.499 . S
C1663 C1664 1.373 . S
C1663 C1665 1.389 . S
C1664 H1637 0.950 . S
C1664 C1650 1.377 1_556 S
C1664 C1663 1.373 . S
C1665 C1649 1.377 1_556 S
C1665 C1663 1.389 . S
C1665 C1666 1.524 . S
C1666 C1665 1.524 . S
C1666 C1667 1.397 . S
C1666 C1671 1.363 . S
C1667 H1638 0.950 . S
C1667 C1666 1.397 . S
C1667 C1668 1.334 . S
C1668 H1639 0.950 . S
C1668 C1667 1.334 . S
C1668 C1669 1.287 . S
C1669 C1668 1.287 . S
C1669 C1670 1.524 . S
C1669 H1672 0.999 . S
C1670 H1640 0.950 . S
C1670 C1669 1.524 . S
C1670 C1671 1.415 . S
C1671 H1641 0.950 . S
C1671 C1666 1.363 . S
C1671 C1670 1.415 . S
H1672 C1669 0.999 . S
H1673 C1654 0.913 . S
H1674 C1692 0.951 . S
H1675 C1694 0.951 . S
H1676 C1696 0.950 . S
H1677 C1697 0.950 . S
H1678 C1699 0.950 . S
H1679 C1702 0.950 . S
H1680 C1703 0.950 . S
H1681 C1705 0.950 . S
H1682 C1706 0.950 . S
H1683 C1707 0.951 . S
H1684 C1709 0.951 . S
H1685 C1711 0.950 . S
H1686 C1712 0.950 . S
H1687 C1714 0.950 . S
H1688 C1717 0.950 . S
H1689 C1718 0.950 . S
H1690 C1720 0.950 . S
H1691 C1721 0.950 . S
C1692 H1674 0.951 . S
C1692 C1693 1.366 . S
C1692 C1694 1.388 . S
C1693 C1692 1.366 . S
C1693 C1697 1.385 . S
C1694 H1675 0.951 . S
C1694 C1692 1.388 . S
C1694 C1695 1.366 . S
C1695 C1694 1.366 . S
C1695 C1696 1.414 . S
C1695 C1698 1.499 . S
C1696 H1676 0.950 . S
C1696 C1695 1.414 . S
C1696 C1697 1.374 . S
C1697 H1677 0.950 . S
C1697 C1693 1.385 . S
C1697 C1696 1.374 . S
C1698 C1695 1.499 . S
C1698 C1699 1.373 . S
C1698 C1700 1.389 . S
C1699 H1678 0.950 . S
C1699 C1698 1.373 . S
C1699 C1715 1.377 . S
C1700 C1698 1.389 . S
C1700 C1701 1.524 . S
C1700 C1714 1.377 . S
C1701 C1700 1.524 . S
C1701 C1702 1.397 . S
C1701 C1706 1.363 . S
C1702 H1679 0.950 . S
C1702 C1701 1.397 . S
C1702 C1703 1.334 . S
C1703 H1680 0.950 . S
C1703 C1702 1.334 . S
C1703 C1704 1.287 . S
C1704 C1703 1.287 . S
C1704 C1705 1.524 . S
C1704 H1723 0.913 . S
C1705 H1681 0.950 . S
C1705 C1704 1.524 . S
C1705 C1706 1.415 . S
C1706 H1682 0.950 . S
C1706 C1701 1.363 . S
C1706 C1705 1.415 . S
C1707 H1683 0.951 . S
C1707 C1708 1.366 . S
C1707 C1709 1.388 . S
C1708 C1707 1.366 . S
C1708 C1712 1.385 . S
C1709 H1684 0.951 . S
C1709 C1707 1.388 . S
C1709 C1710 1.366 . S
C1710 C1709 1.366 . S
C1710 C1711 1.414 . S
C1710 C1713 1.499 . S
C1711 H1685 0.950 . S
C1711 C1710 1.414 . S
C1711 C1712 1.374 . S
C1712 H1686 0.950 . S
C1712 C1708 1.385 . S
C1712 C1711 1.374 . S
C1713 C1710 1.499 . S
C1713 C1714 1.373 . S
C1713 C1715 1.389 . S
C1714 H1687 0.950 . S
C1714 C1700 1.377 . S
C1714 C1713 1.373 . S
C1715 C1699 1.377 . S
C1715 C1713 1.389 . S
C1715 C1716 1.524 . S
C1716 C1715 1.524 . S
C1716 C1717 1.397 . S
C1716 C1721 1.363 . S
C1717 H1688 0.950 . S
C1717 C1716 1.397 . S
C1717 C1718 1.334 . S
C1718 H1689 0.950 . S
C1718 C1717 1.334 . S
C1718 C1719 1.287 . S
C1719 C1718 1.287 . S
C1719 C1720 1.524 . S
C1719 H1722 0.999 . S
C1720 H1690 0.950 . S
C1720 C1719 1.524 . S
C1720 C1721 1.415 . S
C1721 H1691 0.950 . S
C1721 C1716 1.363 . S
C1721 C1720 1.415 . S
H1722 C1719 0.999 . S
H1723 C1704 0.913 . S
H1724 C1742 0.951 . S
H1725 C1744 0.951 . S
H1726 C1746 0.950 . S
H1727 C1747 0.950 . S
H1728 C1749 0.950 . S
H1729 C1752 0.950 . S
H1730 C1753 0.950 . S
H1731 C1755 0.950 . S
H1732 C1756 0.950 . S
H1733 C1757 0.951 . S
H1734 C1759 0.951 . S
H1735 C1761 0.950 . S
H1736 C1762 0.950 . S
H1737 C1764 0.950 . S
H1738 C1767 0.950 . S
H1739 C1768 0.950 . S
H1740 C1770 0.950 . S
H1741 C1771 0.950 . S
C1742 H1724 0.951 . S
C1742 C1743 1.366 . S
C1742 C1744 1.388 . S
C1743 C1742 1.366 . S
C1743 C1747 1.385 . S
C1744 H1725 0.951 . S
C1744 C1742 1.388 . S
C1744 C1745 1.366 . S
C1745 C1744 1.366 . S
C1745 C1746 1.414 . S
C1745 C1748 1.499 . S
C1746 H1726 0.950 . S
C1746 C1745 1.414 . S
C1746 C1747 1.374 . S
C1747 H1727 0.950 . S
C1747 C1743 1.385 . S
C1747 C1746 1.374 . S
C1748 C1745 1.499 . S
C1748 C1749 1.373 . S
C1748 C1750 1.389 . S
C1749 H1728 0.950 . S
C1749 C1748 1.373 . S
C1749 C1765 1.377 . S
C1750 C1748 1.389 . S
C1750 C1751 1.524 . S
C1750 C1764 1.377 . S
C1751 C1750 1.524 . S
C1751 C1752 1.397 . S
C1751 C1756 1.363 . S
C1752 H1729 0.950 . S
C1752 C1751 1.397 . S
C1752 C1753 1.334 . S
C1753 H1730 0.950 . S
C1753 C1752 1.334 . S
C1753 C1754 1.287 . S
C1754 C1753 1.287 . S
C1754 C1755 1.524 . S
C1754 H1773 0.913 . S
C1755 H1731 0.950 . S
C1755 C1754 1.524 . S
C1755 C1756 1.415 . S
C1756 H1732 0.950 . S
C1756 C1751 1.363 . S
C1756 C1755 1.415 . S
C1757 H1733 0.951 . S
C1757 C1758 1.366 . S
C1757 C1759 1.388 . S
C1758 C1757 1.366 . S
C1758 C1762 1.385 . S
C1759 H1734 0.951 . S
C1759 C1757 1.388 . S
C1759 C1760 1.366 . S
C1760 C1759 1.366 . S
C1760 C1761 1.414 . S
C1760 C1763 1.499 . S
C1761 H1735 0.950 . S
C1761 C1760 1.414 . S
C1761 C1762 1.374 . S
C1762 H1736 0.950 . S
C1762 C1758 1.385 . S
C1762 C1761 1.374 . S
C1763 C1760 1.499 . S
C1763 C1764 1.373 . S
C1763 C1765 1.389 . S
C1764 H1737 0.950 . S
C1764 C1750 1.377 . S
C1764 C1763 1.373 . S
C1765 C1749 1.377 . S
C1765 C1763 1.389 . S
C1765 C1766 1.524 . S
C1766 C1765 1.524 . S
C1766 C1767 1.397 . S
C1766 C1771 1.363 . S
C1767 H1738 0.950 . S
C1767 C1766 1.397 . S
C1767 C1768 1.334 . S
C1768 H1739 0.950 . S
C1768 C1767 1.334 . S
C1768 C1769 1.287 . S
C1769 C1768 1.287 . S
C1769 C1770 1.524 . S
C1769 H1772 0.999 . S
C1770 H1740 0.950 . S
C1770 C1769 1.524 . S
C1770 C1771 1.415 . S
C1771 H1741 0.950 . S
C1771 C1766 1.363 . S
C1771 C1770 1.415 . S
H1772 C1769 0.999 . S
H1773 C1754 0.913 . S
H1774 C1792 0.951 . S
H1775 C1794 0.951 . S
H1776 C1796 0.950 . S
H1777 C1797 0.950 . S
H1778 C1799 0.950 . S
H1779 C1802 0.950 . S
H1780 C1803 0.950 . S
H1781 C1805 0.950 . S
H1782 C1806 0.950 . S
H1783 C1807 0.951 . S
H1784 C1809 0.951 . S
H1785 C1811 0.950 . S
H1786 C1812 0.950 . S
H1787 C1814 0.950 . S
H1788 C1817 0.950 . S
H1789 C1818 0.950 . S
H1790 C1820 0.950 . S
H1791 C1821 0.950 . S
C1792 H1774 0.951 . S
C1792 C1793 1.366 . S
C1792 C1794 1.388 . S
C1793 C1792 1.366 . S
C1793 C1797 1.385 . S
C1794 H1775 0.951 . S
C1794 C1792 1.388 . S
C1794 C1795 1.366 . S
C1795 C1794 1.366 . S
C1795 C1796 1.414 . S
C1795 C1798 1.499 . S
C1796 H1776 0.950 . S
C1796 C1795 1.414 . S
C1796 C1797 1.374 . S
C1797 H1777 0.950 . S
C1797 C1793 1.385 . S
C1797 C1796 1.374 . S
C1798 C1795 1.499 . S
C1798 C1799 1.373 . S
C1798 C1800 1.389 . S
C1799 H1778 0.950 . S
C1799 C1798 1.373 . S
C1799 C1815 1.377 . S
C1800 C1798 1.389 . S
C1800 C1801 1.524 . S
C1800 C1814 1.377 . S
C1801 C1800 1.524 . S
C1801 C1802 1.397 . S
C1801 C1806 1.363 . S
C1802 H1779 0.950 . S
C1802 C1801 1.397 . S
C1802 C1803 1.334 . S
C1803 H1780 0.950 . S
C1803 C1802 1.334 . S
C1803 C1804 1.287 . S
C1804 C1803 1.287 . S
C1804 C1805 1.524 . S
C1804 H1823 0.913 . S
C1805 H1781 0.950 . S
C1805 C1804 1.524 . S
C1805 C1806 1.415 . S
C1806 H1782 0.950 . S
C1806 C1801 1.363 . S
C1806 C1805 1.415 . S
C1807 H1783 0.951 . S
C1807 C1808 1.366 . S
C1807 C1809 1.388 . S
C1808 C1807 1.366 . S
C1808 C1812 1.385 . S
C1809 H1784 0.951 . S
C1809 C1807 1.388 . S
C1809 C1810 1.366 . S
C1810 C1809 1.366 . S
C1810 C1811 1.414 . S
C1810 C1813 1.499 . S
C1811 H1785 0.950 . S
C1811 C1810 1.414 . S
C1811 C1812 1.374 . S
C1812 H1786 0.950 . S
C1812 C1808 1.385 . S
C1812 C1811 1.374 . S
C1813 C1810 1.499 . S
C1813 C1814 1.373 . S
C1813 C1815 1.389 . S
C1814 H1787 0.950 . S
C1814 C1800 1.377 . S
C1814 C1813 1.373 . S
C1815 C1799 1.377 . S
C1815 C1813 1.389 . S
C1815 C1816 1.524 . S
C1816 C1815 1.524 . S
C1816 C1817 1.397 . S
C1816 C1821 1.363 . S
C1817 H1788 0.950 . S
C1817 C1816 1.397 . S
C1817 C1818 1.334 . S
C1818 H1789 0.950 . S
C1818 C1817 1.334 . S
C1818 C1819 1.287 . S
C1819 C1818 1.287 . S
C1819 C1820 1.524 . S
C1819 H1822 0.999 . S
C1820 H1790 0.950 . S
C1820 C1819 1.524 . S
C1820 C1821 1.415 . S
C1821 H1791 0.950 . S
C1821 C1816 1.363 . S
C1821 C1820 1.415 . S
H1822 C1819 0.999 . S
H1823 C1804 0.913 . S
C243 C148 1.614 . S
C258 C8 1.614 . S
C293 C22 1.613 . S
C308 C162 1.613 . S
C343 C120 1.614 . S
C358 C36 1.614 . S
C393 C134 1.614 . S
C408 C50 1.614 . S
C443 C64 1.614 . S
C458 C204 1.614 . S
C493 C218 1.614 . S
C508 C78 1.614 . S
C543 C92 1.613 . S
C558 C176 1.613 . S
C593 C190 1.613 . S
C608 C106 1.613 . S
C643 C149 1.478 . S
C658 C9 1.478 . S
C693 C23 1.477 . S
C708 C163 1.477 . S
C743 C37 1.478 . S
C758 C121 1.478 . S
C793 C51 1.477 . S
C808 C135 1.477 . S
C843 C65 1.477 . S
C858 C205 1.477 . S
C893 C79 1.478 . S
C908 C219 1.478 . S
C943 C177 1.478 . S
C958 C93 1.478 . S
C993 C191 1.478 . S
C1008 C107 1.478 . S
C1043 C7 1.161 . S
C1058 C91 1.161 . S
C1093 C21 1.161 . S
C1108 C105 1.161 . S
C1143 C35 1.161 . S
C1158 C63 1.161 . S
C1193 C49 1.162 . S
C1208 C77 1.161 . S
C1243 C119 1.161 . S
C1258 C203 1.161 . S
C1293 C217 1.161 . S
C1308 C133 1.161 . S
C1343 C147 1.162 . S
C1358 C175 1.162 . S
C1393 C189 1.161 . S
C1408 C161 1.161 . S
C1443 C3 1.096 . S
C1458 C213 1.097 . S
C1493 C171 1.097 . S
C1508 C17 1.097 . S
C1543 C185 1.097 . S
C1558 C31 1.097 . S
C1593 C199 1.097 . S
C1608 C45 1.097 . S
C1643 C129 1.097 . S
C1658 C59 1.098 . S
C1693 C143 1.097 . S
C1708 C73 1.097 . S
C1743 C87 1.098 . S
C1758 C157 1.098 . S
C1793 C101 1.098 . S
C1808 C115 1.097 . S
