# Generated by pormake.
# Topology wgq, (5)-cn, num edge types: 1
# Building blocks:
#     Node 0, Type 0, BuildingBlock: XOMCOT_clean_sbu_0, # of connection points: 5
#     Node 1, Type 0, BuildingBlock: XOMCOT_clean_sbu_0, # of connection points: 5
#     Node 2, Type 0, BuildingBlock: XOMCOT_clean_sbu_0, # of connection points: 5
#     Node 3, Type 0, BuildingBlock: XOMCOT_clean_sbu_0, # of connection points: 5
#     Node 4, Type 0, BuildingBlock: XOMCOT_clean_sbu_0, # of connection points: 5
#     Node 5, Type 0, BuildingBlock: XOMCOT_clean_sbu_0, # of connection points: 5
#     Node 6, Type 0, BuildingBlock: XOMCOT_clean_sbu_0, # of connection points: 5
#     Node 7, Type 0, BuildingBlock: XOMCOT_clean_sbu_0, # of connection points: 5
#     Node 8, Type 0, BuildingBlock: XOMCOT_clean_sbu_0, # of connection points: 5
#     Node 9, Type 0, BuildingBlock: XOMCOT_clean_sbu_0, # of connection points: 5
#     Node 10, Type 0, BuildingBlock: XOMCOT_clean_sbu_0, # of connection points: 5
#     Node 11, Type 0, BuildingBlock: XOMCOT_clean_sbu_0, # of connection points: 5
#     Node 12, Type 0, BuildingBlock: XOMCOT_clean_sbu_0, # of connection points: 5
#     Node 13, Type 0, BuildingBlock: XOMCOT_clean_sbu_0, # of connection points: 5
#     Node 14, Type 0, BuildingBlock: XOMCOT_clean_sbu_0, # of connection points: 5
#     Node 15, Type 0, BuildingBlock: XOMCOT_clean_sbu_0, # of connection points: 5
#     Node 16, Type 0, BuildingBlock: XOMCOT_clean_sbu_0, # of connection points: 5
#     Node 17, Type 0, BuildingBlock: XOMCOT_clean_sbu_0, # of connection points: 5
#     Node 18, Type 0, BuildingBlock: XOMCOT_clean_sbu_0, # of connection points: 5
#     Node 19, Type 0, BuildingBlock: XOMCOT_clean_sbu_0, # of connection points: 5
#     Node 20, Type 0, BuildingBlock: XOMCOT_clean_sbu_0, # of connection points: 5
#     Node 21, Type 0, BuildingBlock: XOMCOT_clean_sbu_0, # of connection points: 5
#     Node 22, Type 0, BuildingBlock: XOMCOT_clean_sbu_0, # of connection points: 5
#     Node 23, Type 0, BuildingBlock: XOMCOT_clean_sbu_0, # of connection points: 5
#     Node 24, Type 0, BuildingBlock: XOMCOT_clean_sbu_0, # of connection points: 5
#     Node 25, Type 0, BuildingBlock: XOMCOT_clean_sbu_0, # of connection points: 5
#     Node 26, Type 0, BuildingBlock: XOMCOT_clean_sbu_0, # of connection points: 5
#     Node 27, Type 0, BuildingBlock: XOMCOT_clean_sbu_0, # of connection points: 5
#     Node 28, Type 0, BuildingBlock: XOMCOT_clean_sbu_0, # of connection points: 5
#     Node 29, Type 0, BuildingBlock: XOMCOT_clean_sbu_0, # of connection points: 5
#     Node 30, Type 0, BuildingBlock: XOMCOT_clean_sbu_0, # of connection points: 5
#     Node 31, Type 0, BuildingBlock: XOMCOT_clean_sbu_0, # of connection points: 5
#     Edge 32, Type (0, 0), BuildingBlock: AJUNOK_clean_linker_0, # of connection points: 2
#     Edge 33, Type (0, 0), BuildingBlock: AJUNOK_clean_linker_0, # of connection points: 2
#     Edge 34, Type (0, 0), BuildingBlock: AJUNOK_clean_linker_0, # of connection points: 2
#     Edge 35, Type (0, 0), BuildingBlock: AJUNOK_clean_linker_0, # of connection points: 2
#     Edge 36, Type (0, 0), BuildingBlock: AJUNOK_clean_linker_0, # of connection points: 2
#     Edge 37, Type (0, 0), BuildingBlock: AJUNOK_clean_linker_0, # of connection points: 2
#     Edge 38, Type (0, 0), BuildingBlock: AJUNOK_clean_linker_0, # of connection points: 2
#     Edge 39, Type (0, 0), BuildingBlock: AJUNOK_clean_linker_0, # of connection points: 2
#     Edge 40, Type (0, 0), BuildingBlock: AJUNOK_clean_linker_0, # of connection points: 2
#     Edge 41, Type (0, 0), BuildingBlock: AJUNOK_clean_linker_0, # of connection points: 2
#     Edge 42, Type (0, 0), BuildingBlock: AJUNOK_clean_linker_0, # of connection points: 2
#     Edge 43, Type (0, 0), BuildingBlock: AJUNOK_clean_linker_0, # of connection points: 2
#     Edge 44, Type (0, 0), BuildingBlock: AJUNOK_clean_linker_0, # of connection points: 2
#     Edge 45, Type (0, 0), BuildingBlock: AJUNOK_clean_linker_0, # of connection points: 2
#     Edge 46, Type (0, 0), BuildingBlock: AJUNOK_clean_linker_0, # of connection points: 2
#     Edge 47, Type (0, 0), BuildingBlock: AJUNOK_clean_linker_0, # of connection points: 2
#     Edge 48, Type (0, 0), BuildingBlock: AJUNOK_clean_linker_0, # of connection points: 2
#     Edge 49, Type (0, 0), BuildingBlock: AJUNOK_clean_linker_0, # of connection points: 2
#     Edge 50, Type (0, 0), BuildingBlock: AJUNOK_clean_linker_0, # of connection points: 2
#     Edge 51, Type (0, 0), BuildingBlock: AJUNOK_clean_linker_0, # of connection points: 2
#     Edge 52, Type (0, 0), BuildingBlock: AJUNOK_clean_linker_0, # of connection points: 2
#     Edge 53, Type (0, 0), BuildingBlock: AJUNOK_clean_linker_0, # of connection points: 2
#     Edge 54, Type (0, 0), BuildingBlock: AJUNOK_clean_linker_0, # of connection points: 2
#     Edge 55, Type (0, 0), BuildingBlock: AJUNOK_clean_linker_0, # of connection points: 2
#     Edge 56, Type (0, 0), BuildingBlock: AJUNOK_clean_linker_0, # of connection points: 2
#     Edge 57, Type (0, 0), BuildingBlock: AJUNOK_clean_linker_0, # of connection points: 2
#     Edge 58, Type (0, 0), BuildingBlock: AJUNOK_clean_linker_0, # of connection points: 2
#     Edge 59, Type (0, 0), BuildingBlock: AJUNOK_clean_linker_0, # of connection points: 2
#     Edge 60, Type (0, 0), BuildingBlock: AJUNOK_clean_linker_0, # of connection points: 2
#     Edge 61, Type (0, 0), BuildingBlock: AJUNOK_clean_linker_0, # of connection points: 2
#     Edge 62, Type (0, 0), BuildingBlock: AJUNOK_clean_linker_0, # of connection points: 2
#     Edge 63, Type (0, 0), BuildingBlock: AJUNOK_clean_linker_0, # of connection points: 2
#     Edge 64, Type (0, 0), BuildingBlock: AJUNOK_clean_linker_0, # of connection points: 2
#     Edge 65, Type (0, 0), BuildingBlock: AJUNOK_clean_linker_0, # of connection points: 2
#     Edge 66, Type (0, 0), BuildingBlock: AJUNOK_clean_linker_0, # of connection points: 2
#     Edge 67, Type (0, 0), BuildingBlock: AJUNOK_clean_linker_0, # of connection points: 2
#     Edge 68, Type (0, 0), BuildingBlock: AJUNOK_clean_linker_0, # of connection points: 2
#     Edge 69, Type (0, 0), BuildingBlock: AJUNOK_clean_linker_0, # of connection points: 2
#     Edge 70, Type (0, 0), BuildingBlock: AJUNOK_clean_linker_0, # of connection points: 2
#     Edge 71, Type (0, 0), BuildingBlock: AJUNOK_clean_linker_0, # of connection points: 2
#     Edge 72, Type (0, 0), BuildingBlock: AJUNOK_clean_linker_0, # of connection points: 2
#     Edge 73, Type (0, 0), BuildingBlock: AJUNOK_clean_linker_0, # of connection points: 2
#     Edge 74, Type (0, 0), BuildingBlock: AJUNOK_clean_linker_0, # of connection points: 2
#     Edge 75, Type (0, 0), BuildingBlock: AJUNOK_clean_linker_0, # of connection points: 2
#     Edge 76, Type (0, 0), BuildingBlock: AJUNOK_clean_linker_0, # of connection points: 2
#     Edge 77, Type (0, 0), BuildingBlock: AJUNOK_clean_linker_0, # of connection points: 2
#     Edge 78, Type (0, 0), BuildingBlock: AJUNOK_clean_linker_0, # of connection points: 2
#     Edge 79, Type (0, 0), BuildingBlock: AJUNOK_clean_linker_0, # of connection points: 2
#     Edge 80, Type (0, 0), BuildingBlock: AJUNOK_clean_linker_0, # of connection points: 2
#     Edge 81, Type (0, 0), BuildingBlock: AJUNOK_clean_linker_0, # of connection points: 2
#     Edge 82, Type (0, 0), BuildingBlock: AJUNOK_clean_linker_0, # of connection points: 2
#     Edge 83, Type (0, 0), BuildingBlock: AJUNOK_clean_linker_0, # of connection points: 2
#     Edge 84, Type (0, 0), BuildingBlock: AJUNOK_clean_linker_0, # of connection points: 2
#     Edge 85, Type (0, 0), BuildingBlock: AJUNOK_clean_linker_0, # of connection points: 2
#     Edge 86, Type (0, 0), BuildingBlock: AJUNOK_clean_linker_0, # of connection points: 2
#     Edge 87, Type (0, 0), BuildingBlock: AJUNOK_clean_linker_0, # of connection points: 2
#     Edge 88, Type (0, 0), BuildingBlock: AJUNOK_clean_linker_0, # of connection points: 2
#     Edge 89, Type (0, 0), BuildingBlock: AJUNOK_clean_linker_0, # of connection points: 2
#     Edge 90, Type (0, 0), BuildingBlock: AJUNOK_clean_linker_0, # of connection points: 2
#     Edge 91, Type (0, 0), BuildingBlock: AJUNOK_clean_linker_0, # of connection points: 2
#     Edge 92, Type (0, 0), BuildingBlock: AJUNOK_clean_linker_0, # of connection points: 2
#     Edge 93, Type (0, 0), BuildingBlock: AJUNOK_clean_linker_0, # of connection points: 2
#     Edge 94, Type (0, 0), BuildingBlock: AJUNOK_clean_linker_0, # of connection points: 2
#     Edge 95, Type (0, 0), BuildingBlock: AJUNOK_clean_linker_0, # of connection points: 2
#     Edge 96, Type (0, 0), BuildingBlock: AJUNOK_clean_linker_0, # of connection points: 2
#     Edge 97, Type (0, 0), BuildingBlock: AJUNOK_clean_linker_0, # of connection points: 2
#     Edge 98, Type (0, 0), BuildingBlock: AJUNOK_clean_linker_0, # of connection points: 2
#     Edge 99, Type (0, 0), BuildingBlock: AJUNOK_clean_linker_0, # of connection points: 2
#     Edge 100, Type (0, 0), BuildingBlock: AJUNOK_clean_linker_0, # of connection points: 2
#     Edge 101, Type (0, 0), BuildingBlock: AJUNOK_clean_linker_0, # of connection points: 2
#     Edge 102, Type (0, 0), BuildingBlock: AJUNOK_clean_linker_0, # of connection points: 2
#     Edge 103, Type (0, 0), BuildingBlock: AJUNOK_clean_linker_0, # of connection points: 2
#     Edge 104, Type (0, 0), BuildingBlock: AJUNOK_clean_linker_0, # of connection points: 2
#     Edge 105, Type (0, 0), BuildingBlock: AJUNOK_clean_linker_0, # of connection points: 2
#     Edge 106, Type (0, 0), BuildingBlock: AJUNOK_clean_linker_0, # of connection points: 2
#     Edge 107, Type (0, 0), BuildingBlock: AJUNOK_clean_linker_0, # of connection points: 2
#     Edge 108, Type (0, 0), BuildingBlock: AJUNOK_clean_linker_0, # of connection points: 2
#     Edge 109, Type (0, 0), BuildingBlock: AJUNOK_clean_linker_0, # of connection points: 2
#     Edge 110, Type (0, 0), BuildingBlock: AJUNOK_clean_linker_0, # of connection points: 2
#     Edge 111, Type (0, 0), BuildingBlock: AJUNOK_clean_linker_0, # of connection points: 2
# Relax obj value: 0.354
# Max RMSD: 0.249
# Mean RMSD: 0.249
data_MOF--net-wgq--node1-XOMCOT_clean_sbu_0--edge1-AJUNOK_clean_linker_0
_symmetry_space_group_name_H-M    P1
_symmetry_Int_Tables_number       1
_symmetry_cell_setting            triclinic
loop_
_symmetry_equiv_pos_as_xyz
'x, y, z'
_cell_length_a     22.163693
_cell_length_b     22.222591
_cell_length_c     108.81789
_cell_angle_alpha  89.929846
_cell_angle_beta   90.058535
_cell_angle_gamma 90.113287
loop_
_atom_site_label
_atom_site_type_symbol
_atom_site_fract_x
_atom_site_fract_y
_atom_site_fract_z
_atom_type_partial_charge
Co0 Co 0.27081 0.05186 0.20212 0.0
C1 C 0.28415 0.03566 0.17492 0.0
C2 C 0.25157 0.9563 0.18408 0.0
C3 C 0.25187 0.94565 0.17161 0.0
N4 N 0.27087 1.01293 0.18615 0.0
N5 N 0.27204 0.99555 0.16588 0.0
H6 H 0.29944 0.08133 0.17336 0.0
H7 H 0.23657 0.92546 0.19114 0.0
C8 C 0.14321 0.0374 0.2116 0.0
O9 O 0.15444 0.08995 0.21661 0.0
N10 N 0.27397 0.08516 0.21873 0.0
C11 C 0.30509 0.13317 0.22305 0.0
C12 C 0.30697 0.13065 0.23572 0.0
C13 C 0.26156 0.05216 0.22891 0.0
N14 N 0.27965 0.07955 0.23934 0.0
C15 C 0.22354 0.17353 0.19902 0.0
C16 C 0.12661 0.1386 0.1847 0.0
C17 C 0.12685 0.19648 0.1897 0.0
C18 C 0.17724 0.21448 0.19664 0.0
C19 C 0.17213 0.09851 0.1878 0.0
N20 N 0.21825 0.11491 0.19551 0.0
H21 H 0.2618 0.18874 0.20416 0.0
H22 H 0.16702 0.05263 0.18474 0.0
H23 H 0.33015 0.16485 0.2175 0.0
H24 H 0.24229 1.00739 0.22865 0.0
O25 O 0.34847 0.08904 0.19842 0.0
O26 O 0.34256 1.00125 0.20712 0.0
O27 O 0.18832 1.00858 0.20654 0.0
C28 C 0.37776 0.04473 0.20319 0.0
H29 H 0.23783 0.90459 0.16708 0.0
H30 H 0.33071 0.16139 0.24175 0.0
H31 H 0.0897 0.12303 0.17899 0.0
H32 H 0.1799 0.25857 0.20081 0.0
Co33 Co 0.25471 0.03201 0.45203 0.0
C34 C 0.26718 0.04206 0.4247 0.0
C35 C 0.34954 1.01589 0.4336 0.0
C36 C 0.35843 1.01482 0.42107 0.0
N37 N 0.29221 0.03223 0.43588 0.0
N38 N 0.30647 0.03047 0.41544 0.0
H39 H 0.22074 0.05562 0.42344 0.0
H40 H 0.38199 1.00336 0.44058 0.0
C41 C 0.26796 0.90309 0.46111 0.0
O42 O 0.21556 0.91355 0.46629 0.0
N43 N 0.22226 0.03473 0.46877 0.0
C44 C 0.17832 0.07101 0.47309 0.0
C45 C 0.18218 0.074 0.48572 0.0
C46 C 0.25387 1.01885 0.47897 0.0
N47 N 0.22962 0.04077 0.48948 0.0
C48 C 0.20307 0.93541 0.43791 0.0
C49 C 0.08916 0.94157 0.44796 0.0
C50 C 0.10668 0.88976 0.44159 0.0
C51 C 0.16269 0.88862 0.43584 0.0
C52 C 0.13069 0.98846 0.44955 0.0
N53 N 0.18869 0.98241 0.44553 0.0
H54 H 0.24842 0.92959 0.43453 0.0
H55 H 0.11713 0.02721 0.45472 0.0
H56 H 0.14917 0.09871 0.46749 0.0
H57 H 0.29603 0.99452 0.47862 0.0
O58 O 0.22193 0.113 0.4487 0.0
O59 O 0.30963 0.09867 0.45734 0.0
O60 O 0.29625 0.94838 0.45599 0.0
C61 C 0.2691 0.13752 0.45361 0.0
H62 H 0.39933 1.00098 0.41645 0.0
H63 H 0.15529 0.10298 0.49151 0.0
H64 H 0.04545 0.94391 0.45238 0.0
H65 H 0.17766 0.84902 0.43091 0.0
Co66 Co 0.27608 0.99593 0.70159 0.0
C67 C 0.26081 1.01652 0.67452 0.0
C68 C 0.29765 0.09326 0.68393 0.0
C69 C 0.29877 0.10457 0.67147 0.0
N70 N 0.27494 0.03772 0.68585 0.0
N71 N 0.27581 0.05637 0.66561 0.0
H72 H 0.24409 0.97151 0.6728 0.0
H73 H 0.31518 0.12228 0.69107 0.0
C74 C 0.40596 1.00245 0.71011 0.0
O75 O 0.39391 0.94847 0.71438 0.0
N76 N 0.27454 0.95962 0.71802 0.0
C77 C 0.23811 0.91538 0.72222 0.0
C78 C 0.23643 0.91734 0.73489 0.0
C79 C 0.29195 0.98933 0.72834 0.0
N80 N 0.27057 0.96391 0.73879 0.0
C81 C 0.31588 0.87219 0.69726 0.0
C82 C 0.41016 0.90555 0.68206 0.0
C83 C 0.40908 0.84722 0.6868 0.0
C84 C 0.35956 0.8296 0.69402 0.0
C85 C 0.36786 0.94695 0.686 0.0
N86 N 0.32303 0.93117 0.69406 0.0
H87 H 0.27891 0.85817 0.70295 0.0
H88 H 0.37516 0.99317 0.68337 0.0
H89 H 0.2094 0.88749 0.71655 0.0
H90 H 0.31671 0.03129 0.72813 0.0
O91 O 0.19452 0.96523 0.69827 0.0
O92 O 0.21105 0.05037 0.7077 0.0
O93 O 0.36125 0.03413 0.70567 0.0
C94 C 0.17118 1.01142 0.70365 0.0
H95 H 0.31686 0.14427 0.66702 0.0
H96 H 0.20758 0.88994 0.74064 0.0
H97 H 0.44672 0.92078 0.67622 0.0
H98 H 0.35661 0.7848 0.69789 0.0
Co99 Co 0.30616 1.02157 0.953 0.0
C100 C 0.30235 1.00996 0.92491 0.0
C101 C 0.2255 0.05342 0.93278 0.0
C102 C 0.2185 0.05304 0.92024 0.0
N103 N 0.27946 0.02932 0.93582 0.0
N104 N 0.26674 0.02591 0.91529 0.0
H105 H 0.34295 0.98363 0.92393 0.0
H106 H 0.19302 0.07057 0.9393 0.0
C107 C 0.27294 0.15397 0.95048 0.0
O108 O 0.3027 0.1498 0.94009 0.0
N109 N 0.32719 1.01142 0.97021 0.0
C110 C 0.38022 0.99271 0.97486 0.0
C111 C 0.37533 0.98982 0.98747 0.0
C112 C 0.29037 1.01826 0.97999 0.0
N113 N 0.31851 1.00513 0.99073 0.0
C114 C 0.41701 0.06514 0.94073 0.0
C115 C 0.43511 0.15484 0.95792 0.0
C116 C 0.47026 0.15509 0.94731 0.0
C117 C 0.46214 0.10862 0.93872 0.0
C118 C 0.39161 0.11115 0.95954 0.0
N119 N 0.37956 0.06941 0.95066 0.0
H120 H 0.41218 0.02909 0.93426 0.0
H121 H 0.364 0.11428 0.96766 0.0
H122 H 0.41991 0.98273 0.96946 0.0
H123 H 0.24359 0.03158 0.9792 0.0
O124 O 0.33855 0.94071 0.94977 0.0
O125 O 0.24534 0.95652 0.95539 0.0
O126 O 0.26395 0.10504 0.95696 0.0
C127 C 0.28731 0.91701 0.95282 0.0
H128 H 0.1804 0.07046 0.91513 0.0
H129 H 0.41167 0.97871 0.9937 0.0
H130 H 0.43866 0.19017 0.96472 0.0
H131 H 0.4897 0.10642 0.93052 0.0
Co132 Co 0.25624 0.99384 0.326 0.0
C133 C 0.2815 1.00591 0.35349 0.0
C134 C 0.21883 0.0708 0.34654 0.0
C135 C 0.22465 0.07951 0.35896 0.0
N136 N 0.25234 1.02305 0.34304 0.0
N137 N 0.26363 0.03865 0.36334 0.0
H138 H 0.31397 0.96967 0.35398 0.0
H139 H 0.19234 0.09888 0.34053 0.0
C140 C 0.1304 0.0336 0.31484 0.0
O141 O 0.14496 1.01954 0.30353 0.0
N142 N 0.26269 0.97051 0.30883 0.0
C143 C 0.27221 0.91573 0.30392 0.0
C144 C 0.27748 0.92185 0.29133 0.0
C145 C 0.26662 1.00926 0.29928 0.0
N146 N 0.27332 0.98083 0.28837 0.0
C147 C 0.20819 0.89557 0.34101 0.0
C148 C 0.11444 0.86978 0.32514 0.0
C149 C 0.11278 0.84696 0.33702 0.0
C150 C 0.16156 0.85736 0.34489 0.0
C151 C 0.16189 0.90656 0.32165 0.0
N152 N 0.20552 0.92372 0.32984 0.0
H153 H 0.24576 0.90237 0.34706 0.0
H154 H 0.16164 0.92239 0.31236 0.0
H155 H 0.27464 0.87424 0.30911 0.0
H156 H 0.26511 0.0575 0.30047 0.0
O157 O 0.33661 0.9587 0.32883 0.0
O158 O 0.32374 0.05155 0.32286 0.0
O159 O 0.17263 0.03771 0.32312 0.0
C160 C 0.36204 1.00857 0.32554 0.0
H161 H 0.20181 0.11324 0.3644 0.0
H162 H 0.28328 0.88534 0.28488 0.0
H163 H 0.07915 0.85926 0.31857 0.0
H164 H 0.16331 0.83671 0.3539 0.0
Co165 Co 0.31971 1.01485 0.57613 0.0
C166 C 0.30674 0.03244 0.60397 0.0
C167 C 0.23369 0.98566 0.5954 0.0
C168 C 0.22122 0.99068 0.60767 0.0
N169 N 0.28871 1.00897 0.59301 0.0
N170 N 0.26717 1.01979 0.6132 0.0
H171 H 0.34573 0.06112 0.60509 0.0
H172 H 0.20379 0.96654 0.58858 0.0
C173 C 0.2867 0.88324 0.57897 0.0
O174 O 0.3137 0.88904 0.58965 0.0
N175 N 0.34318 1.02304 0.55901 0.0
C176 C 0.39254 0.04994 0.55433 0.0
C177 C 0.38535 0.05506 0.54175 0.0
C178 C 0.30667 1.01258 0.54929 0.0
N179 N 0.33099 0.0321 0.53857 0.0
C180 C 0.4238 0.97264 0.59025 0.0
C181 C 0.45013 0.88106 0.57397 0.0
C182 C 0.47503 0.87977 0.5857 0.0
C183 C 0.4646 0.9277 0.59372 0.0
C184 C 0.40928 0.92595 0.57098 0.0
N185 N 0.3924 0.96799 0.57948 0.0
H186 H 0.41618 1.00941 0.59641 0.0
H187 H 0.38693 0.92305 0.5622 0.0
H188 H 0.4299 0.06686 0.55972 0.0
H189 H 0.26268 0.99202 0.55018 0.0
O190 O 0.35279 0.09442 0.57956 0.0
O191 O 0.26032 0.08096 0.57307 0.0
O192 O 0.27875 0.93108 0.57214 0.0
C193 C 0.30277 0.11918 0.57623 0.0
H194 H 0.18107 0.97385 0.61217 0.0
H195 H 0.41667 0.07661 0.53551 0.0
H196 H 0.45941 0.84553 0.56743 0.0
H197 H 0.48572 0.92907 0.6027 0.0
Co198 Co 0.29831 0.05007 0.82576 0.0
C199 C 0.28156 0.0366 0.8537 0.0
C200 C 0.32997 0.96515 0.84509 0.0
C201 C 0.32642 0.95297 0.85742 0.0
N202 N 0.30463 1.01906 0.84267 0.0
N203 N 0.29577 0.99766 0.86293 0.0
H204 H 0.25284 0.07528 0.85498 0.0
H205 H 0.3503 0.93617 0.83829 0.0
C206 C 0.43174 1.0216 0.82869 0.0
O207 O 0.42511 0.0485 0.83934 0.0
N208 N 0.28992 0.07349 0.80861 0.0
C209 C 0.26249 0.1225 0.80397 0.0
C210 C 0.25729 0.11565 0.79139 0.0
C211 C 0.3005 0.03742 0.79884 0.0
N212 N 0.28068 0.06181 0.78814 0.0
C213 C 0.33668 0.15579 0.83985 0.0
C214 C 0.42744 0.18588 0.82357 0.0
C215 C 0.42744 0.2113 0.83523 0.0
C216 C 0.37984 0.19879 0.84326 0.0
C217 C 0.38463 0.14256 0.82068 0.0
N218 N 0.34298 0.12416 0.82917 0.0
H219 H 0.29986 0.14702 0.84595 0.0
H220 H 0.38881 0.12 0.81195 0.0
H221 H 0.24528 0.15941 0.8094 0.0
H222 H 0.32132 0.99367 0.79969 0.0
O223 O 0.21698 0.08019 0.82906 0.0
O224 O 0.23381 0.98894 0.82248 0.0
O225 O 0.38392 1.01212 0.82187 0.0
C226 C 0.19385 0.02976 0.82553 0.0
H227 H 0.34652 0.91459 0.86194 0.0
H228 H 0.2354 0.14685 0.78519 0.0
H229 H 0.4626 0.19674 0.81701 0.0
H230 H 0.37736 0.22015 0.85218 0.0
Co231 Co 0.24184 0.04759 0.07683 0.0
C232 C 0.26302 1.01959 0.10385 0.0
C233 C 0.31342 0.09579 0.09754 0.0
C234 C 0.32399 0.08879 0.10985 0.0
N235 N 0.27387 0.0535 0.09367 0.0
N236 N 0.29198 0.04136 0.11395 0.0
H237 H 0.23378 0.98059 0.1039 0.0
H238 H 0.33378 0.13051 0.09199 0.0
C239 C 0.27303 0.17541 0.06537 0.0
O240 O 0.25443 0.16075 0.05433 0.0
N241 N 0.21469 0.04001 0.05991 0.0
C242 C 0.15896 0.02722 0.05561 0.0
C243 C 0.16212 1.01952 0.04302 0.0
C244 C 0.25129 0.03626 0.05001 0.0
N245 N 0.22027 0.02494 0.03958 0.0
C246 C 0.14437 0.08736 0.09282 0.0
C247 C 0.10712 0.17919 0.07753 0.0
C248 C 0.08709 0.17808 0.08962 0.0
C249 C 0.10336 0.1301 0.09722 0.0
C250 C 0.14755 0.13599 0.07357 0.0
N251 N 0.16989 0.09353 0.08143 0.0
H252 H 0.15599 0.05025 0.09868 0.0
H253 H 0.16149 0.13829 0.06417 0.0
H254 H 0.11898 1.023 0.06124 0.0
H255 H 0.29979 0.04181 0.05044 0.0
O256 O 0.21086 0.96582 0.07995 0.0
O257 O 0.30171 0.98218 0.07312 0.0
O258 O 0.28154 0.13312 0.07348 0.0
C259 C 0.26072 0.94222 0.07618 0.0
H260 H 0.35176 0.11808 0.11544 0.0
H261 H 0.12502 1.00887 0.03692 0.0
H262 H 0.09226 0.21392 0.07122 0.0
H263 H 0.08564 0.12638 0.10647 0.0
Co264 Co 0.80377 0.99389 0.82685 0.0
C265 C 0.77893 1.00986 0.85444 0.0
C266 C 0.84161 0.07332 0.84701 0.0
C267 C 0.83607 0.08413 0.85934 0.0
N268 N 0.80776 0.02527 0.84382 0.0
N269 N 0.79642 0.04464 0.86414 0.0
H270 H 0.74567 0.97431 0.85511 0.0
H271 H 0.86838 0.1003 0.84084 0.0
C272 C 0.92864 0.03338 0.81542 0.0
O273 O 0.91355 1.01804 0.8042 0.0
N274 N 0.79769 0.9683 0.80972 0.0
C275 C 0.79229 0.91236 0.80501 0.0
C276 C 0.78645 0.91666 0.79237 0.0
C277 C 0.79098 1.00567 0.79997 0.0
N278 N 0.78547 0.97538 0.78926 0.0
C279 C 0.8479 0.89659 0.84233 0.0
C280 C 0.94616 0.87081 0.8277 0.0
C281 C 0.94452 0.84892 0.83967 0.0
C282 C 0.89342 0.85904 0.84687 0.0
C283 C 0.89968 0.9071 0.82355 0.0
N284 N 0.85404 0.92453 0.83119 0.0
H285 H 0.80849 0.90357 0.84785 0.0
H286 H 0.90198 0.92207 0.81421 0.0
H287 H 0.79273 0.8713 0.81036 0.0
H288 H 0.79156 0.05427 0.80067 0.0
O289 O 0.7244 0.95815 0.82988 0.0
O290 O 0.73544 0.05052 0.8234 0.0
O291 O 0.88681 0.03809 0.82372 0.0
C292 C 0.69807 1.00705 0.82638 0.0
H293 H 0.86112 0.11783 0.86438 0.0
H294 H 0.78212 0.87961 0.78598 0.0
H295 H 0.98347 0.8604 0.82164 0.0
H296 H 0.88932 0.83924 0.85593 0.0
Co297 Co 0.81162 1.02169 0.57802 0.0
C298 C 0.79347 1.00963 0.60523 0.0
C299 C 0.71108 0.02671 0.59541 0.0
C300 C 0.69805 1.02233 0.60777 0.0
N301 N 0.77083 1.01917 0.59382 0.0
N302 N 0.7499 1.01238 0.61392 0.0
H303 H 0.84075 1.00179 0.60715 0.0
H304 H 0.67926 0.03526 0.58808 0.0
C305 C 0.80191 0.15092 0.5693 0.0
O306 O 0.85483 0.13937 0.56444 0.0
N307 N 0.84724 1.02054 0.56152 0.0
C308 C 0.89576 0.98978 0.55749 0.0
C309 C 0.89503 0.98795 0.54483 0.0
C310 C 0.81587 0.0333 0.55111 0.0
N311 N 0.84399 1.01436 0.54073 0.0
C312 C 0.93523 0.06496 0.58239 0.0
C313 C 0.89853 0.16137 0.59654 0.0
C314 C 0.95681 0.16166 0.59172 0.0
C315 C 0.97625 0.11108 0.58509 0.0
C316 C 0.85869 0.11622 0.59316 0.0
N317 N 0.87582 0.07067 0.58542 0.0
H318 H 0.95101 0.02689 0.57733 0.0
H319 H 0.81219 0.12176 0.59585 0.0
H320 H 0.92678 0.96483 0.56319 0.0
H321 H 0.77094 0.05222 0.55124 0.0
O322 O 0.84348 0.94054 0.58121 0.0
O323 O 0.75711 0.95618 0.57211 0.0
O324 O 0.77155 0.1059 0.57403 0.0
C325 C 0.79646 0.91673 0.57609 0.0
H326 H 0.65408 0.02738 0.61197 0.0
H327 H 0.92904 0.96659 0.53925 0.0
H328 H 0.88203 0.19856 0.60201 0.0
H329 H 1.02124 0.10876 0.58127 0.0
Co330 Co 0.75923 0.04131 0.32692 0.0
C331 C 0.77536 0.02541 0.35423 0.0
C332 C 0.7401 0.94665 0.34536 0.0
C333 C 0.74106 0.93669 0.35787 0.0
N334 N 0.76063 1.00255 0.34306 0.0
N335 N 0.76312 0.98618 0.36352 0.0
H336 H 0.79183 0.07082 0.35555 0.0
H337 H 0.72265 0.91627 0.33846 0.0
C338 C 0.62938 0.03305 0.31834 0.0
O339 O 0.64237 0.08437 0.31297 0.0
N340 N 0.76158 0.07423 0.31014 0.0
C341 C 0.79918 0.11742 0.30586 0.0
C342 C 0.80346 0.11304 0.29325 0.0
C343 C 0.74568 0.0428 0.2999 0.0
N344 N 0.7696 0.06623 0.28948 0.0
C345 C 0.6681 0.09318 0.34238 0.0
C346 C 0.66566 0.20466 0.3314 0.0
C347 C 0.61853 0.18803 0.33937 0.0
C348 C 0.62398 0.13388 0.34577 0.0
C349 C 0.71268 0.16427 0.32907 0.0
N350 N 0.71073 0.10719 0.33371 0.0
H351 H 0.66372 0.04844 0.34608 0.0
H352 H 0.74758 0.1779 0.32285 0.0
H353 H 0.82668 0.14653 0.31152 0.0
H354 H 0.72177 1.00031 0.30018 0.0
O355 O 0.84034 0.07349 0.33013 0.0
O356 O 0.82562 0.98643 0.3214 0.0
O357 O 0.67382 1.00234 0.32319 0.0
C358 C 0.86475 0.02666 0.32521 0.0
H359 H 0.7232 0.89723 0.36243 0.0
H360 H 0.83258 0.13968 0.28739 0.0
H361 H 0.66493 0.24696 0.32646 0.0
H362 H 0.59209 0.12071 0.3528 0.0
Co363 Co 0.72839 0.02737 0.07695 0.0
C364 C 0.74338 0.03764 0.10523 0.0
C365 C 0.82254 1.01429 0.09507 0.0
C366 C 0.83762 1.01711 0.10729 0.0
N367 N 0.76317 0.02575 0.09362 0.0
N368 N 0.78798 0.03164 0.11372 0.0
H369 H 0.69895 0.05297 0.10762 0.0
H370 H 0.85315 1.00424 0.08762 0.0
C371 C 0.76852 0.89782 0.08071 0.0
O372 O 0.74722 0.90592 0.09184 0.0
N373 N 0.70136 0.0304 0.05993 0.0
C374 C 0.6461 0.04116 0.05531 0.0
C375 C 0.64985 0.04141 0.04262 0.0
C376 C 0.73792 0.02549 0.05003 0.0
N377 N 0.70795 0.03228 0.03924 0.0
C378 C 0.62341 0.99195 0.09156 0.0
C379 C 0.60626 0.88627 0.07873 0.0
C380 C 0.58039 0.89235 0.09035 0.0
C381 C 0.58527 0.94755 0.09646 0.0
C382 C 0.64346 0.93146 0.07431 0.0
N383 N 0.6576 0.97991 0.08144 0.0
H384 H 0.62588 0.03525 0.09592 0.0
H385 H 0.66513 0.92504 0.06556 0.0
H386 H 0.6059 0.04793 0.06076 0.0
H387 H 0.78607 1.01857 0.0508 0.0
O388 O 0.69506 0.10798 0.07985 0.0
O389 O 0.78603 0.09334 0.07276 0.0
O390 O 0.77087 0.94401 0.07327 0.0
C391 C 0.74442 0.13224 0.07591 0.0
H392 H 0.8818 1.00871 0.11118 0.0
H393 H 0.61198 0.04683 0.03645 0.0
H394 H 0.5998 0.84576 0.07334 0.0
H395 H 0.56161 0.95546 0.10501 0.0
Co396 Co 0.77786 0.05103 0.70276 0.0
C397 C 0.76717 0.03759 0.67535 0.0
C398 C 0.78284 0.95401 0.68477 0.0
C399 C 0.77805 0.94247 0.67238 0.0
N400 N 0.77626 1.0135 0.68665 0.0
N401 N 0.76881 0.99496 0.66646 0.0
H402 H 0.75966 0.08501 0.67367 0.0
H403 H 0.79051 0.92126 0.69196 0.0
C404 C 0.90611 0.03621 0.71191 0.0
O405 O 0.89571 0.08801 0.71729 0.0
N406 N 0.77605 0.08298 0.71954 0.0
C407 C 0.74582 0.13101 0.72394 0.0
C408 C 0.74352 0.12769 0.73658 0.0
C409 C 0.78797 0.04937 0.7297 0.0
N410 N 0.76913 0.07561 0.74027 0.0
C411 C 0.82221 0.17476 0.69956 0.0
C412 C 0.92274 0.13997 0.68629 0.0
C413 C 0.92145 0.19702 0.69153 0.0
C414 C 0.86934 0.21581 0.69768 0.0
C415 C 0.87555 0.10032 0.68861 0.0
N416 N 0.82838 0.11609 0.6961 0.0
H417 H 0.78277 0.18976 0.70431 0.0
H418 H 0.88077 0.05464 0.68545 0.0
H419 H 0.72162 0.16355 0.71848 0.0
H420 H 0.80645 1.0044 0.72924 0.0
O421 O 0.69701 0.08438 0.69965 0.0
O422 O 0.71147 0.99621 0.70803 0.0
O423 O 0.86087 1.00863 0.70663 0.0
C424 C 0.6725 0.03666 0.70434 0.0
H425 H 0.7819 0.89891 0.668 0.0
H426 H 0.72252 0.16072 0.74245 0.0
H427 H 0.96247 0.1241 0.68149 0.0
H428 H 0.8667 0.26044 0.70163 0.0
Co429 Co 0.74947 0.04343 0.45362 0.0
C430 C 0.75237 1.01706 0.42593 0.0
C431 C 0.8138 0.08629 0.43152 0.0
C432 C 0.81733 0.08062 0.41902 0.0
N433 N 0.77163 0.04808 0.43603 0.0
N434 N 0.77874 0.0375 0.41543 0.0
H435 H 0.71862 0.98181 0.42618 0.0
H436 H 0.84153 0.11664 0.4368 0.0
C437 C 0.7975 0.16826 0.46408 0.0
O438 O 0.79084 0.1535 0.47567 0.0
N439 N 0.7318 0.03685 0.47118 0.0
C440 C 0.67735 0.02911 0.47652 0.0
C441 C 0.68503 0.02449 0.48908 0.0
C442 C 0.77206 0.03246 0.48054 0.0
N443 N 0.74453 0.02657 0.49158 0.0
C444 C 0.64525 0.09033 0.44031 0.0
C445 C 0.62612 0.18421 0.45642 0.0
C446 C 0.59585 0.18416 0.4452 0.0
C447 C 0.60442 0.1359 0.43714 0.0
C448 C 0.66564 0.13817 0.4592 0.0
N449 N 0.67834 0.09389 0.45091 0.0
H450 H 0.65058 0.05301 0.43415 0.0
H451 H 0.68735 0.14 0.468 0.0
H452 H 0.63487 0.02741 0.47163 0.0
H453 H 0.82047 0.03498 0.47931 0.0
O454 O 0.71268 0.9635 0.45151 0.0
O455 O 0.80818 0.97567 0.45566 0.0
O456 O 0.79436 0.12666 0.45573 0.0
C457 C 0.76361 0.93774 0.45388 0.0
H458 H 0.84646 0.10624 0.41297 0.0
H459 H 0.6497 1.01912 0.49586 0.0
H460 H 0.62042 0.22048 0.46297 0.0
H461 H 0.58002 0.13354 0.42852 0.0
Co462 Co 0.77053 0.99194 0.20311 0.0
C463 C 0.77546 1.00654 0.17532 0.0
C464 C 0.78359 0.08951 0.18522 0.0
C465 C 0.78892 0.10163 0.17288 0.0
N466 N 0.77331 0.03019 0.18685 0.0
N467 N 0.78373 0.04962 0.16661 0.0
H468 H 0.77213 0.95894 0.17333 0.0
H469 H 0.78665 0.12209 0.19257 0.0
C470 C 0.64696 0.06129 0.2017 0.0
O471 O 0.66297 0.08962 0.19165 0.0
N472 N 0.77154 0.95876 0.21986 0.0
C473 C 0.81126 0.91819 0.22436 0.0
C474 C 0.81265 0.92195 0.237 0.0
C475 C 0.75038 0.9874 0.23003 0.0
N476 N 0.77442 0.96548 0.24059 0.0
C477 C 0.72496 0.86918 0.20155 0.0
C478 C 0.62646 0.89845 0.18715 0.0
C479 C 0.6268 0.84356 0.19332 0.0
C480 C 0.67799 0.82753 0.20013 0.0
C481 C 0.67338 0.93892 0.18904 0.0
N482 N 0.72009 0.92603 0.19686 0.0
H483 H 0.76353 0.85627 0.2069 0.0
H484 H 0.6694 0.98214 0.18471 0.0
H485 H 0.84169 0.89144 0.21887 0.0
H486 H 0.72319 0.02774 0.2297 0.0
O487 O 0.85176 0.95944 0.19982 0.0
O488 O 0.83727 0.04626 0.20863 0.0
O489 O 0.68697 0.03074 0.20775 0.0
C490 C 0.87636 1.00645 0.20474 0.0
H491 H 0.79565 0.1456 0.1688 0.0
H492 H 0.84284 0.89758 0.24304 0.0
H493 H 0.58808 0.91197 0.18162 0.0
H494 H 0.68062 0.7842 0.20467 0.0
Co495 Co 0.80164 1.01789 0.95327 0.0
C496 C 0.79146 0.03261 0.92581 0.0
C497 C 0.7136 0.99089 0.93393 0.0
C498 C 0.70647 0.99088 0.92135 0.0
N499 N 0.76718 1.01615 0.93676 0.0
N500 N 0.75524 1.01709 0.91625 0.0
H501 H 0.8356 0.053 0.92483 0.0
H502 H 0.68261 0.97192 0.94056 0.0
C503 C 0.79348 0.88936 0.96248 0.0
O504 O 0.84511 0.90379 0.96761 0.0
N505 N 0.82991 1.02179 0.97035 0.0
C506 C 0.87516 0.05461 0.97534 0.0
C507 C 0.868 0.05654 0.98796 0.0
C508 C 0.79408 1.00776 0.98007 0.0
N509 N 0.81685 0.02721 0.99089 0.0
C510 C 0.92834 0.9827 0.95091 0.0
C511 C 0.90298 0.8812 0.93712 0.0
C512 C 0.96005 0.88752 0.94234 0.0
C513 C 0.9738 0.94028 0.94882 0.0
C514 C 0.85902 0.92375 0.93962 0.0
N515 N 0.87052 0.97153 0.94723 0.0
H516 H 0.93946 1.02289 0.95585 0.0
H517 H 0.814 0.91456 0.93634 0.0
H518 H 0.90748 0.08116 0.97027 0.0
H519 H 0.75008 0.98701 0.97915 0.0
O520 O 0.83279 0.09951 0.95019 0.0
O521 O 0.74373 0.08292 0.95801 0.0
O522 O 0.76301 0.93245 0.95711 0.0
C523 C 0.78409 0.12282 0.9546 0.0
H524 H 0.66852 0.97267 0.9163 0.0
H525 H 0.89532 0.08207 0.99436 0.0
H526 H 0.89083 0.84118 0.93199 0.0
H527 H 1.01843 0.94742 0.95262 0.0
Co528 Co 0.7635 0.55995 0.70466 0.0
C529 C 0.78961 0.54599 0.6771 0.0
C530 C 0.72689 0.4819 0.6843 0.0
C531 C 0.73363 0.4711 0.67201 0.0
N532 N 0.75995 0.53033 0.6876 0.0
N533 N 0.77276 0.5114 0.66733 0.0
H534 H 0.82355 0.58096 0.67666 0.0
H535 H 0.70058 0.45412 0.6904 0.0
C536 C 0.63658 0.52163 0.71532 0.0
O537 O 0.64977 0.53737 0.72662 0.0
N538 N 0.76909 0.5834 0.72189 0.0
C539 C 0.77808 0.63864 0.72671 0.0
C540 C 0.78256 0.63346 0.73934 0.0
C541 C 0.7724 0.5452 0.73157 0.0
N542 N 0.77896 0.5747 0.74233 0.0
C543 C 0.71971 0.65841 0.68943 0.0
C544 C 0.6233 0.68538 0.70446 0.0
C545 C 0.62377 0.7068 0.69245 0.0
C546 C 0.674 0.69615 0.68504 0.0
C547 C 0.6698 0.64865 0.70843 0.0
N548 N 0.71437 0.63054 0.70059 0.0
H549 H 0.75841 0.65099 0.68373 0.0
H550 H 0.66797 0.63343 0.71776 0.0
H551 H 0.78093 0.67982 0.72143 0.0
H552 H 0.76866 0.49677 0.73078 0.0
O553 O 0.84364 0.59526 0.70215 0.0
O554 O 0.83068 0.50181 0.70779 0.0
O555 O 0.67972 0.51634 0.70731 0.0
C556 C 0.86892 0.54533 0.70534 0.0
H557 H 0.71074 0.43607 0.66691 0.0
H558 H 0.78877 0.66986 0.74583 0.0
H559 H 0.58653 0.69592 0.71065 0.0
H560 H 0.67711 0.71541 0.67591 0.0
Co561 Co 0.74907 0.51782 0.9536 0.0
C562 C 0.76574 0.53542 0.92649 0.0
C563 C 0.84347 0.49671 0.93527 0.0
C564 C 0.85423 0.49979 0.92282 0.0
N565 N 0.78781 0.51827 0.93757 0.0
N566 N 0.80545 0.52398 0.91736 0.0
H567 H 0.72109 0.5539 0.92511 0.0
H568 H 0.87363 0.47862 0.94216 0.0
C569 C 0.75889 0.3882 0.96239 0.0
O570 O 0.70671 0.3994 0.96759 0.0
N571 N 0.71533 0.52053 0.97027 0.0
C572 C 0.67097 0.55698 0.97435 0.0
C573 C 0.67332 0.56033 0.98698 0.0
C574 C 0.74585 0.50499 0.98066 0.0
N575 N 0.72033 0.52735 0.99102 0.0
C576 C 0.62434 0.47575 0.95062 0.0
C577 C 0.65641 0.3782 0.93625 0.0
C578 C 0.60001 0.37881 0.94182 0.0
C579 C 0.58251 0.42954 0.94855 0.0
C580 C 0.69702 0.42418 0.9388 0.0
N581 N 0.68258 0.46999 0.94671 0.0
H582 H 0.61058 0.51361 0.95602 0.0
H583 H 0.74244 0.41838 0.93549 0.0
H584 H 0.64265 0.58476 0.96859 0.0
H585 H 0.78813 0.48075 0.98055 0.0
O586 O 0.71859 0.59979 0.95041 0.0
O587 O 0.80552 0.58234 0.95913 0.0
O588 O 0.78833 0.43318 0.95746 0.0
C589 C 0.7664 0.62263 0.95541 0.0
H590 H 0.89452 0.485 0.91809 0.0
H591 H 0.64578 0.58951 0.9926 0.0
H592 H 0.67142 0.33936 0.93108 0.0
H593 H 0.53852 0.43145 0.95286 0.0
Co594 Co 0.77029 0.49019 0.20321 0.0
C595 C 0.75345 0.50784 0.17596 0.0
C596 C 0.77894 0.58875 0.18545 0.0
C597 C 0.77277 0.60177 0.17313 0.0
N598 N 0.76736 0.52989 0.18724 0.0
N599 N 0.7575 0.55087 0.16716 0.0
H600 H 0.74176 0.46131 0.17421 0.0
H601 H 0.7915 0.61998 0.19263 0.0
C602 C 0.90071 0.49766 0.21137 0.0
O603 O 0.88846 0.44553 0.21648 0.0
N604 N 0.7692 0.45629 0.21988 0.0
C605 C 0.73257 0.41239 0.22417 0.0
C606 C 0.73012 0.41531 0.23681 0.0
C607 C 0.78568 0.48714 0.23015 0.0
N608 N 0.76374 0.46233 0.24063 0.0
C609 C 0.85974 0.43843 0.18736 0.0
C610 C 0.86147 0.32589 0.1979 0.0
C611 C 0.90869 0.34287 0.18998 0.0
C612 C 0.90346 0.39763 0.18378 0.0
C613 C 0.81487 0.36651 0.20044 0.0
N614 N 0.81724 0.42404 0.19604 0.0
H615 H 0.86428 0.48354 0.18384 0.0
H616 H 0.77994 0.35254 0.20662 0.0
H617 H 0.70429 0.38388 0.21854 0.0
H618 H 0.8101 0.52933 0.22987 0.0
O619 O 0.68783 0.46011 0.20038 0.0
O620 O 0.707 0.54653 0.20913 0.0
O621 O 0.85598 0.52844 0.20669 0.0
C622 C 0.66599 0.50784 0.2055 0.0
H623 H 0.78034 0.64507 0.16881 0.0
H624 H 0.70111 0.38821 0.24259 0.0
H625 H 0.86192 0.28312 0.20267 0.0
H626 H 0.93538 0.41119 0.17678 0.0
Co627 Co 0.80943 0.5382 0.45433 0.0
C628 C 0.80813 0.52117 0.42628 0.0
C629 C 0.73081 0.56561 0.43375 0.0
C630 C 0.7231 0.56113 0.42128 0.0
N631 N 0.78524 0.54321 0.43698 0.0
N632 N 0.77162 0.53352 0.41658 0.0
H633 H 0.84889 0.4949 0.42555 0.0
H634 H 0.69818 0.58374 0.44012 0.0
C635 C 0.7818 0.67072 0.45019 0.0
O636 O 0.81189 0.66151 0.43997 0.0
N637 N 0.82719 0.53046 0.4718 0.0
C638 C 0.87653 0.50489 0.47676 0.0
C639 C 0.86884 0.50104 0.4893 0.0
C640 C 0.78984 0.54133 0.48138 0.0
N641 N 0.81421 0.52368 0.49227 0.0
C642 C 0.92248 0.57769 0.44255 0.0
C643 C 0.94178 0.66825 0.45952 0.0
C644 C 0.97732 0.66693 0.44894 0.0
C645 C 0.96877 0.61982 0.44053 0.0
C646 C 0.89636 0.62638 0.46107 0.0
N647 N 0.88414 0.58409 0.45228 0.0
H648 H 0.91699 0.54135 0.43617 0.0
H649 H 0.86732 0.63197 0.46894 0.0
H650 H 0.91475 0.48859 0.47158 0.0
H651 H 0.74577 0.56143 0.48031 0.0
O652 O 0.84193 0.45691 0.45185 0.0
O653 O 0.74773 0.473 0.45661 0.0
O654 O 0.76909 0.62407 0.45716 0.0
C655 C 0.79025 0.43342 0.45446 0.0
H656 H 0.68431 0.57601 0.41605 0.0
H657 H 0.9004 0.48099 0.49569 0.0
H658 H 0.94539 0.70438 0.46615 0.0
H659 H 0.9966 0.61638 0.43239 0.0
Co660 Co 0.78289 0.50056 0.82872 0.0
C661 C 0.79816 0.51732 0.85597 0.0
C662 C 0.76376 0.59562 0.84677 0.0
C663 C 0.76585 0.60707 0.85918 0.0
N664 N 0.78333 0.53927 0.84474 0.0
N665 N 0.78775 0.55806 0.86502 0.0
H666 H 0.81458 0.47208 0.85749 0.0
H667 H 0.74697 0.62562 0.83972 0.0
C668 C 0.65385 0.5096 0.81971 0.0
O669 O 0.66602 0.45686 0.81489 0.0
N670 N 0.78532 0.4677 0.81204 0.0
C671 C 0.81825 0.42166 0.80755 0.0
C672 C 0.8192 0.4251 0.79489 0.0
C673 C 0.7703 0.50032 0.80195 0.0
N674 N 0.78897 0.47481 0.79131 0.0
C675 C 0.74082 0.37616 0.83197 0.0
C676 C 0.6437 0.40854 0.84644 0.0
C677 C 0.64433 0.3513 0.8412 0.0
C678 C 0.6952 0.33402 0.83437 0.0
C679 C 0.68862 0.44948 0.84345 0.0
N680 N 0.73453 0.43459 0.83559 0.0
H681 H 0.7789 0.36223 0.82664 0.0
H682 H 0.6824 0.49514 0.84654 0.0
H683 H 0.84484 0.39082 0.81299 0.0
H684 H 0.75059 0.54466 0.80255 0.0
O685 O 0.86442 0.46926 0.83187 0.0
O686 O 0.84816 0.55665 0.82333 0.0
O687 O 0.69827 0.53987 0.82468 0.0
C688 C 0.88799 0.51704 0.82704 0.0
H689 H 0.74957 0.64755 0.86356 0.0
H690 H 0.84327 0.39485 0.78886 0.0
H691 H 0.60613 0.42336 0.85203 0.0
H692 H 0.69808 0.28992 0.8302 0.0
Co693 Co 0.79045 0.52579 0.07829 0.0
C694 C 0.77643 0.53804 0.10569 0.0
C695 C 0.69217 0.52521 0.09626 0.0
C696 C 0.68077 0.53038 0.10867 0.0
N697 N 0.75208 0.52949 0.09438 0.0
N698 N 0.73373 0.53761 0.11458 0.0
H699 H 0.82426 0.54354 0.10739 0.0
H700 H 0.65908 0.51853 0.08908 0.0
C701 C 0.77596 0.39757 0.06961 0.0
O702 O 0.82916 0.40796 0.06474 0.0
N703 N 0.82306 0.52608 0.06153 0.0
C704 C 0.86923 0.55876 0.05691 0.0
C705 C 0.86459 0.56056 0.04424 0.0
C706 C 0.78964 0.5113 0.05149 0.0
N707 N 0.81406 0.53109 0.0408 0.0
C708 C 0.91268 0.47814 0.08169 0.0
C709 C 0.87661 0.38702 0.09742 0.0
C710 C 0.93449 0.38482 0.09245 0.0
C711 C 0.95355 0.43277 0.08493 0.0
C712 C 0.83665 0.43071 0.09343 0.0
N713 N 0.85377 0.47446 0.08523 0.0
H714 H 0.92794 0.51404 0.07585 0.0
H715 H 0.79035 0.42632 0.09636 0.0
H716 H 0.90104 0.58452 0.0623 0.0
H717 H 0.7467 0.48847 0.05213 0.0
O718 O 0.82679 0.60457 0.08148 0.0
O719 O 0.73847 0.5949 0.07283 0.0
O720 O 0.74702 0.44297 0.0745 0.0
C721 C 0.78068 0.63156 0.07678 0.0
H722 H 0.63703 0.52773 0.11307 0.0
H723 H 0.89376 0.58564 0.03811 0.0
H724 H 0.86077 0.35309 0.10381 0.0
H725 H 0.99855 0.43376 0.08107 0.0
Co726 Co 0.7691 0.54046 0.32759 0.0
C727 C 0.75937 0.5297 0.3551 0.0
C728 C 0.78521 0.44725 0.34633 0.0
C729 C 0.78736 0.439 0.35887 0.0
N730 N 0.76855 0.50426 0.34393 0.0
N731 N 0.77206 0.49102 0.36444 0.0
H732 H 0.74605 0.57612 0.35631 0.0
H733 H 0.79757 0.41464 0.3394 0.0
C734 C 0.89791 0.53025 0.3187 0.0
O735 O 0.88635 0.58323 0.3139 0.0
N736 N 0.76683 0.57095 0.31066 0.0
C737 C 0.73189 0.61495 0.3059 0.0
C738 C 0.72996 0.60921 0.29326 0.0
C739 C 0.78293 0.53755 0.30074 0.0
N740 N 0.76164 0.56005 0.28999 0.0
C741 C 0.8098 0.66592 0.33023 0.0
C742 C 0.9053 0.63643 0.34546 0.0
C743 C 0.90433 0.69323 0.34004 0.0
C744 C 0.85406 0.70928 0.33288 0.0
C745 C 0.86253 0.59413 0.34209 0.0
N746 N 0.81683 0.60781 0.33406 0.0
H747 H 0.77217 0.67863 0.32459 0.0
H748 H 0.86974 0.54868 0.34524 0.0
H749 H 0.70456 0.64566 0.31119 0.0
H750 H 0.80754 0.4958 0.3015 0.0
O751 O 0.68676 0.5711 0.3304 0.0
O752 O 0.70523 0.48289 0.32243 0.0
O753 O 0.85368 0.50086 0.32392 0.0
C754 C 0.66443 0.52223 0.32577 0.0
H755 H 0.80196 0.3985 0.36353 0.0
H756 H 0.70321 0.6364 0.28706 0.0
H757 H 0.94165 0.623 0.35153 0.0
H758 H 0.8507 0.75359 0.32879 0.0
Co759 Co 0.7546 0.52142 0.57909 0.0
C760 C 0.7754 0.50748 0.6062 0.0
C761 C 0.85195 0.54451 0.59672 0.0
C762 C 0.86333 0.54624 0.60918 0.0
N763 N 0.79645 0.52133 0.59485 0.0
N764 N 0.81516 0.52329 0.61511 0.0
H765 H 0.73051 0.49021 0.60796 0.0
H766 H 0.88099 0.56175 0.58955 0.0
C767 C 0.76136 0.65092 0.57031 0.0
O768 O 0.70738 0.63906 0.56594 0.0
N769 N 0.71796 0.51889 0.56268 0.0
C770 C 0.67346 0.48233 0.55863 0.0
C771 C 0.67401 0.48119 0.54595 0.0
C772 C 0.74656 0.53678 0.55227 0.0
N773 N 0.71998 0.51578 0.54189 0.0
C774 C 0.63049 0.563 0.5829 0.0
C775 C 0.66462 0.65897 0.59751 0.0
C776 C 0.60723 0.65924 0.59225 0.0
C777 C 0.5889 0.60883 0.5854 0.0
C778 C 0.7051 0.6142 0.59435 0.0
N779 N 0.68933 0.56879 0.58645 0.0
H780 H 0.61606 0.52559 0.57741 0.0
H781 H 0.75113 0.62061 0.59727 0.0
H782 H 0.64609 0.45355 0.56439 0.0
H783 H 0.78837 0.56192 0.55233 0.0
O784 O 0.72456 0.43957 0.58248 0.0
O785 O 0.80993 0.4567 0.57316 0.0
O786 O 0.79275 0.60633 0.57486 0.0
C787 C 0.77131 0.41649 0.57719 0.0
H788 H 0.90327 0.56433 0.61357 0.0
H789 H 0.64603 0.45256 0.54027 0.0
H790 H 0.68021 0.69619 0.60311 0.0
H791 H 0.54463 0.60671 0.58122 0.0
Co792 Co 0.26773 0.48589 0.327 0.0
C793 C 0.25657 0.50509 0.35432 0.0
C794 C 0.27516 0.58624 0.34425 0.0
C795 C 0.27091 0.60025 0.35655 0.0
N796 N 0.26667 0.52665 0.34283 0.0
N797 N 0.26001 0.54923 0.36288 0.0
H798 H 0.2476 0.45825 0.35638 0.0
H799 H 0.28403 0.61735 0.33682 0.0
C800 C 0.39716 0.49045 0.31838 0.0
O801 O 0.38193 0.43841 0.31363 0.0
N802 N 0.26504 0.4512 0.31044 0.0
C803 C 0.22836 0.40729 0.30616 0.0
C804 C 0.2253 0.41079 0.29352 0.0
C805 C 0.28087 0.4825 0.30019 0.0
N806 N 0.2585 0.45818 0.28972 0.0
C807 C 0.30668 0.36182 0.33065 0.0
C808 C 0.40323 0.39265 0.3455 0.0
C809 C 0.40159 0.33532 0.34029 0.0
C810 C 0.35113 0.31906 0.33319 0.0
C811 C 0.35988 0.43451 0.34222 0.0
N812 N 0.31409 0.42008 0.33427 0.0
H813 H 0.26888 0.34867 0.32512 0.0
H814 H 0.3671 0.48029 0.34518 0.0
H815 H 0.20008 0.37876 0.31178 0.0
H816 H 0.30511 0.52477 0.30049 0.0
O817 O 0.18601 0.45565 0.33028 0.0
O818 O 0.20336 0.54133 0.32104 0.0
O819 O 0.35384 0.52318 0.32307 0.0
C820 C 0.16323 0.50235 0.32496 0.0
H821 H 0.27658 0.64442 0.36058 0.0
H822 H 0.19613 0.38393 0.28772 0.0
H823 H 0.44035 0.40673 0.35131 0.0
H824 H 0.3476 0.27523 0.32893 0.0
Co825 Co 0.29835 0.54667 0.07723 0.0
C826 C 0.27894 0.51926 0.10461 0.0
C827 C 0.21912 0.58561 0.0973 0.0
C828 C 0.20745 0.57945 0.10959 0.0
N829 N 0.26553 0.54974 0.09407 0.0
N830 N 0.24478 0.53765 0.1143 0.0
H831 H 0.31293 0.4845 0.10523 0.0
H832 H 0.19419 0.61457 0.0912 0.0
C833 C 0.26618 0.67571 0.06633 0.0
O834 O 0.28458 0.66169 0.05525 0.0
N835 N 0.32507 0.54184 0.06017 0.0
C836 C 0.3809 0.53225 0.05563 0.0
C837 C 0.37707 0.52692 0.04297 0.0
C838 C 0.28792 0.53844 0.0503 0.0
N839 N 0.31854 0.5307 0.0397 0.0
C840 C 0.3962 0.58481 0.09348 0.0
C841 C 0.42854 0.68223 0.07922 0.0
C842 C 0.44738 0.68008 0.09143 0.0
C843 C 0.43418 0.6291 0.09845 0.0
C844 C 0.39127 0.63735 0.07471 0.0
N845 N 0.37036 0.59239 0.08215 0.0
H846 H 0.38688 0.54553 0.09888 0.0
H847 H 0.3777 0.64087 0.0653 0.0
H848 H 0.42148 0.52883 0.06111 0.0
H849 H 0.23929 0.54192 0.05087 0.0
O850 O 0.3293 0.46448 0.07984 0.0
O851 O 0.23843 0.48172 0.07314 0.0
O852 O 0.25905 0.63299 0.07443 0.0
C853 C 0.27938 0.44134 0.07592 0.0
H854 H 0.17503 0.60574 0.1147 0.0
H855 H 0.41411 0.51919 0.0367 0.0
H856 H 0.44111 0.71946 0.0733 0.0
H857 H 0.4513 0.62448 0.10773 0.0
Co858 Co 0.28206 0.55229 0.82868 0.0
C859 C 0.29809 0.53669 0.85594 0.0
C860 C 0.28737 0.45291 0.84635 0.0
C861 C 0.29207 0.44103 0.85874 0.0
N862 N 0.29058 0.51282 0.84458 0.0
N863 N 0.29789 0.49369 0.86476 0.0
H864 H 0.30215 0.58442 0.85774 0.0
H865 H 0.28079 0.42021 0.83912 0.0
C866 C 0.15529 0.53949 0.82088 0.0
O867 O 0.19598 0.5032 0.82547 0.0
N868 N 0.2742 0.58768 0.81204 0.0
C869 C 0.2374 0.63182 0.80787 0.0
C870 C 0.23668 0.63148 0.7952 0.0
C871 C 0.29365 0.5604 0.80158 0.0
N872 N 0.272 0.58636 0.7912 0.0
C873 C 0.24743 0.67498 0.83475 0.0
C874 C 0.15027 0.64158 0.84915 0.0
C875 C 0.15447 0.70128 0.8452 0.0
C876 C 0.20583 0.71875 0.83846 0.0
C877 C 0.19006 0.59936 0.84455 0.0
N878 N 0.2351 0.61554 0.83662 0.0
H879 H 0.28578 0.68802 0.82923 0.0
H880 H 0.18234 0.55268 0.84692 0.0
H881 H 0.20764 0.65897 0.81337 0.0
H882 H 0.31877 0.51886 0.80152 0.0
O883 O 0.36282 0.58785 0.83074 0.0
O884 O 0.34828 0.4998 0.8224 0.0
O885 O 0.19899 0.50738 0.82544 0.0
C886 C 0.38724 0.54095 0.82581 0.0
H887 H 0.28939 0.39717 0.86306 0.0
H888 H 0.2094 0.66026 0.78942 0.0
H889 H 0.11336 0.62648 0.8549 0.0
H890 H 0.2117 0.76446 0.83522 0.0
Co891 Co 0.2492 0.51452 0.5761 0.0
C892 C 0.25432 0.52885 0.6043 0.0
C893 C 0.33155 0.48682 0.59629 0.0
C894 C 0.33948 0.48803 0.60881 0.0
N895 N 0.27679 0.50943 0.59334 0.0
N896 N 0.29094 0.51413 0.61385 0.0
H897 H 0.21358 0.55476 0.60539 0.0
H898 H 0.36392 0.46998 0.58972 0.0
C899 C 0.28304 0.3835 0.57947 0.0
O900 O 0.25406 0.38947 0.58992 0.0
N901 N 0.22844 0.52144 0.55875 0.0
C902 C 0.17516 0.53687 0.55367 0.0
C903 C 0.18182 0.53865 0.54104 0.0
C904 C 0.26704 0.51566 0.5492 0.0
N905 N 0.23968 0.52577 0.53826 0.0
C906 C 0.14021 0.47544 0.58899 0.0
C907 C 0.12135 0.37802 0.5737 0.0
C908 C 0.09196 0.38023 0.58498 0.0
C909 C 0.09843 0.43116 0.5924 0.0
C910 C 0.16254 0.4227 0.57075 0.0
N911 N 0.17612 0.46732 0.57895 0.0
H912 H 0.14444 0.515 0.59455 0.0
H913 H 0.18764 0.41818 0.56233 0.0
H914 H 0.13447 0.54643 0.55878 0.0
H915 H 0.31431 0.50464 0.55025 0.0
O916 O 0.21526 0.59407 0.57905 0.0
O917 O 0.30897 0.58079 0.57339 0.0
O918 O 0.29158 0.43111 0.5726 0.0
C919 C 0.26586 0.61895 0.57607 0.0
H920 H 0.3784 0.47189 0.61384 0.0
H921 H 0.14724 0.5502 0.53441 0.0
H922 H 0.11498 0.34027 0.56753 0.0
H923 H 0.07344 0.43545 0.6009 0.0
Co924 Co 0.27192 0.54631 0.20326 0.0
C925 C 0.25797 0.53494 0.17583 0.0
C926 C 0.29941 0.45774 0.18418 0.0
C927 C 0.29889 0.44957 0.17164 0.0
N928 N 0.27472 0.51157 0.18683 0.0
N929 N 0.27283 0.49792 0.1664 0.0
H930 H 0.23761 0.57884 0.1747 0.0
H931 H 0.31802 0.4271 0.19091 0.0
C932 C 0.39998 0.53784 0.21273 0.0
O933 O 0.38595 0.58942 0.21783 0.0
N934 N 0.26654 0.57495 0.22027 0.0
C935 C 0.22976 0.61747 0.22499 0.0
C936 C 0.22597 0.61004 0.23757 0.0
C937 C 0.28182 0.54061 0.23013 0.0
N938 N 0.25828 0.5612 0.24081 0.0
C939 C 0.30964 0.67238 0.20152 0.0
C940 C 0.41117 0.64713 0.18768 0.0
C941 C 0.40639 0.70322 0.19331 0.0
C942 C 0.35357 0.71701 0.1998 0.0
C943 C 0.36705 0.60395 0.18977 0.0
N944 N 0.31915 0.61519 0.19738 0.0
H945 H 0.26989 0.68336 0.20665 0.0
H946 H 0.3754 0.55938 0.18626 0.0
H947 H 0.20237 0.6481 0.21967 0.0
H948 H 0.30741 0.49947 0.22935 0.0
O949 O 0.1904 0.5769 0.19992 0.0
O950 O 0.2069 0.48807 0.20781 0.0
O951 O 0.35679 0.50769 0.20732 0.0
C952 C 0.16699 0.52803 0.20427 0.0
H953 H 0.31648 0.41114 0.16671 0.0
H954 H 0.19761 0.63574 0.24372 0.0
H955 H 0.45113 0.63489 0.18254 0.0
H956 H 0.34749 0.76095 0.20391 0.0
Co957 Co 0.24385 0.52456 0.95335 0.0
C958 C 0.26054 0.5143 0.92595 0.0
C959 C 0.34289 0.5303 0.93588 0.0
C960 C 0.35637 0.5255 0.92359 0.0
N961 N 0.28298 0.5235 0.93739 0.0
N962 N 0.3047 0.51602 0.91735 0.0
H963 H 0.2133 0.50644 0.92398 0.0
H964 H 0.37463 0.53795 0.94327 0.0
C965 C 0.25752 0.6526 0.96228 0.0
O966 O 0.206 0.64111 0.96776 0.0
N967 N 0.21094 0.52222 0.97005 0.0
C968 C 0.16332 0.49083 0.97442 0.0
C969 C 0.16688 0.48786 0.98706 0.0
C970 C 0.24446 0.53442 0.98022 0.0
N971 N 0.21859 0.51451 0.99075 0.0
C972 C 0.12093 0.56963 0.95011 0.0
C973 C 0.15641 0.66914 0.93659 0.0
C974 C 0.09911 0.66811 0.94182 0.0
C975 C 0.08 0.61641 0.94809 0.0
C976 C 0.19597 0.62225 0.93903 0.0
N977 N 0.17974 0.57554 0.94661 0.0
H978 H 0.10575 0.53051 0.95497 0.0
H979 H 0.24192 0.62743 0.93592 0.0
H980 H 0.13097 0.46647 0.96891 0.0
H981 H 0.28926 0.55376 0.97979 0.0
O982 O 0.2085 0.44557 0.94986 0.0
O983 O 0.29653 0.45565 0.9586 0.0
O984 O 0.28654 0.60742 0.95737 0.0
C985 C 0.2547 0.41878 0.95457 0.0
H986 H 0.40073 0.52927 0.91949 0.0
H987 H 0.13451 0.46566 0.99295 0.0
H988 H 0.17239 0.70823 0.93158 0.0
H989 H 0.03486 0.61347 0.95185 0.0
Co990 Co 0.26801 0.50172 0.70394 0.0
C991 C 0.28075 0.50778 0.67568 0.0
C992 C 0.23888 0.58384 0.68411 0.0
C993 C 0.24125 0.59384 0.67169 0.0
N994 N 0.2612 0.52888 0.68675 0.0
N995 N 0.26789 0.54636 0.66628 0.0
H996 H 0.30619 0.46688 0.67446 0.0
H997 H 0.22144 0.61501 0.69084 0.0
C998 C 0.13514 0.52926 0.70061 0.0
O999 O 0.14322 0.50095 0.69016 0.0
N1000 N 0.27732 0.48144 0.72127 0.0
C1001 C 0.30393 0.43199 0.72596 0.0
C1002 C 0.30938 0.43878 0.73851 0.0
C1003 C 0.26729 0.51782 0.73104 0.0
N1004 N 0.28676 0.49292 0.7417 0.0
C1005 C 0.22907 0.39012 0.69161 0.0
C1006 C 0.14015 0.3667 0.70877 0.0
C1007 C 0.14158 0.3324 0.69804 0.0
C1008 C 0.18779 0.34318 0.6895 0.0
C1009 C 0.18099 0.41301 0.71038 0.0
N1010 N 0.22249 0.42713 0.70153 0.0
H1011 H 0.26516 0.39688 0.6852 0.0
H1012 H 0.17547 0.44083 0.71842 0.0
H1013 H 0.31956 0.39424 0.72057 0.0
H1014 H 0.24841 0.56256 0.73029 0.0
O1015 O 0.34928 0.47067 0.70086 0.0
O1016 O 0.33268 0.56335 0.70657 0.0
O1017 O 0.18249 0.54094 0.70745 0.0
C1018 C 0.37257 0.52175 0.70395 0.0
H1019 H 0.22328 0.6329 0.66702 0.0
H1020 H 0.32877 0.40639 0.74481 0.0
H1021 H 0.10474 0.36113 0.71553 0.0
H1022 H 0.19137 0.31632 0.68124 0.0
Co1023 Co 0.30717 0.53194 0.45167 0.0
C1024 C 0.28963 0.54112 0.42429 0.0
C1025 C 0.20646 0.53413 0.43431 0.0
C1026 C 0.19329 0.53753 0.42195 0.0
N1027 N 0.26673 0.53617 0.43581 0.0
N1028 N 0.24551 0.5412 0.41566 0.0
H1029 H 0.33734 0.5442 0.42226 0.0
H1030 H 0.17428 0.53004 0.44173 0.0
C1031 C 0.29183 0.40303 0.46072 0.0
O1032 O 0.34516 0.41246 0.4656 0.0
N1033 N 0.34218 0.52998 0.46825 0.0
C1034 C 0.39786 0.54235 0.47263 0.0
C1035 C 0.39643 0.54151 0.48531 0.0
C1036 C 0.30765 0.52413 0.47849 0.0
N1037 N 0.33934 0.53092 0.48907 0.0
C1038 C 0.4301 0.49695 0.44499 0.0
C1039 C 0.39454 0.3907 0.43392 0.0
C1040 C 0.45471 0.39819 0.43727 0.0
C1041 C 0.47358 0.4535 0.44212 0.0
C1042 C 0.35307 0.43434 0.43725 0.0
N1043 N 0.37027 0.48335 0.44403 0.0
H1044 H 0.44434 0.5403 0.44829 0.0
H1045 H 0.30611 0.42609 0.4352 0.0
H1046 H 0.43697 0.55399 0.46732 0.0
H1047 H 0.25936 0.51715 0.47811 0.0
O1048 O 0.34137 0.61275 0.44883 0.0
O1049 O 0.25464 0.59857 0.45783 0.0
O1050 O 0.26427 0.44856 0.45553 0.0
C1051 C 0.29517 0.63735 0.45403 0.0
H1052 H 0.14876 0.53619 0.41786 0.0
H1053 H 0.43508 0.54856 0.4912 0.0
H1054 H 0.37871 0.34884 0.42994 0.0
H1055 H 0.5205 0.46136 0.44441 0.0
C1056 C 0.30342 0.97625 0.26636 0.0
C1057 C 0.27487 1.00701 0.27611 0.0
C1058 C 0.30432 0.99977 0.25436 0.0
C1059 C 0.27772 0.0555 0.25163 0.0
H1060 H 0.32578 0.93377 0.268 0.0
H1061 H 0.32679 0.97472 0.24717 0.0
S1062 S 0.1937 0.15292 0.27315 0.0
N1063 N 0.21547 0.0953 0.28165 0.0
N1064 N 0.22054 0.14011 0.25926 0.0
C1065 C 0.24914 0.08687 0.26113 0.0
C1066 C 0.2469 0.06256 0.27331 0.0
C1067 C 0.31647 0.03077 0.50388 0.0
C1068 C 0.25387 0.03645 0.50188 0.0
C1069 C 0.34095 0.0288 0.51582 0.0
C1070 C 0.30412 0.03233 0.52636 0.0
H1071 H 0.34717 0.02904 0.49617 0.0
H1072 H 0.38934 0.02438 0.5168 0.0
S1073 S 0.13703 0.04682 0.52625 0.0
N1074 N 0.15535 0.04347 0.51158 0.0
N1075 N 0.20129 0.04272 0.53387 0.0
C1076 C 0.24136 0.03773 0.5245 0.0
C1077 C 0.21637 0.0392 0.51233 0.0
C1078 C 0.28147 0.04943 0.75342 0.0
C1079 C 0.2755 0.98714 0.75127 0.0
C1080 C 0.28387 0.07304 0.76542 0.0
C1081 C 0.28056 0.03565 0.77588 0.0
H1082 H 0.28299 0.08064 0.74579 0.0
H1083 H 0.28836 0.12125 0.76649 0.0
S1084 S 0.2659 0.86897 0.77538 0.0
N1085 N 0.26854 0.88823 0.76074 0.0
N1086 N 0.27054 0.93253 0.78316 0.0
C1087 C 0.27512 0.97315 0.77387 0.0
C1088 C 0.27305 0.94904 0.76163 0.0
C1089 C 0.24577 0.04827 1.0057 0.0
C1090 C 0.2934 1.00825 1.00305 0.0
C1091 C 0.22148 0.05293 0.0176 0.0
C1092 C 0.24448 1.01853 0.02737 0.0
H1093 H 0.22765 0.07705 0.99857 0.0
H1094 H 0.18531 0.08456 0.01926 0.0
S1095 S 0.36379 0.9027 0.02542 0.0
N1096 N 0.35842 0.92945 1.0113 0.0
N1097 N 0.31437 0.94079 0.03365 0.0
C1098 C 0.29115 0.97785 0.02491 0.0
C1099 C 0.31522 0.97208 1.01277 0.0
C1100 C 0.82093 0.98364 0.76773 0.0
C1101 C 0.78047 1.00051 0.77705 0.0
C1102 C 0.81713 1.00853 0.75583 0.0
C1103 C 0.77196 0.05061 0.75266 0.0
H1104 H 0.85646 0.95172 0.76974 0.0
H1105 H 0.85036 0.9951 0.7491 0.0
S1106 S 0.65063 0.10359 0.77368 0.0
N1107 N 0.69228 0.05885 0.78232 0.0
N1108 N 0.68245 0.10341 0.75997 0.0
C1109 C 0.73006 0.06626 0.76193 0.0
C1110 C 0.73497 0.04177 0.77409 0.0
C1111 C 0.75357 0.0643 0.5129 0.0
C1112 C 0.77195 0.02433 0.50363 0.0
C1113 C 0.77799 0.06133 0.52484 0.0
C1114 C 0.82101 1.01734 0.52815 0.0
H1115 H 0.72024 0.09844 0.51084 0.0
H1116 H 0.76295 0.09402 0.53152 0.0
S1117 S 0.87954 0.89847 0.50716 0.0
N1118 N 0.83373 0.93856 0.49845 0.0
N1119 N 0.87758 0.93008 0.52088 0.0
C1120 C 0.83889 0.97634 0.51887 0.0
C1121 C 0.81486 0.98053 0.50664 0.0
C1122 C 0.82419 0.03122 0.27096 0.0
C1123 C 0.76948 0.04027 0.27726 0.0
C1124 C 0.82533 1.00676 0.25904 0.0
C1125 C 0.77174 0.99168 0.25277 0.0
H1126 H 0.86654 0.04246 0.27537 0.0
H1127 H 0.86852 1.00011 0.2546 0.0
S1128 S 0.6167 1.00768 0.26504 0.0
N1129 N 0.66037 0.03217 0.27632 0.0
N1130 N 0.66245 0.98802 0.25375 0.0
C1131 C 0.71671 1.00122 0.25888 0.0
C1132 C 0.71561 0.02487 0.27116 0.0
C1133 C 0.81499 0.99844 1.01288 0.0
C1134 C 0.7877 0.02688 1.00278 0.0
C1135 C 0.78825 0.99961 0.02463 0.0
C1136 C 0.73356 0.03041 0.02687 0.0
H1137 H 0.85722 0.97482 1.01164 0.0
H1138 H 0.81079 0.97589 0.032 0.0
S1139 S 0.64744 0.11694 1.00335 0.0
N1140 N 0.70479 0.0884 0.99566 0.0
N1141 N 0.65554 0.09346 0.01767 0.0
C1142 C 0.7065 0.05997 0.01674 0.0
C1143 C 0.73335 0.0576 1.00474 0.0
C1144 C 0.8259 0.50878 0.75796 0.0
C1145 C 0.78021 0.54908 0.75452 0.0
C1146 C 0.82847 0.48478 0.76994 0.0
C1147 C 0.78475 0.4993 0.77892 0.0
H1148 H 0.86054 0.49677 0.7514 0.0
H1149 H 0.86573 0.45541 0.77219 0.0
S1150 S 0.65166 0.59787 0.77374 0.0
N1151 N 0.68861 0.60012 0.76058 0.0
N1152 N 0.69111 0.55326 0.78285 0.0
C1153 C 0.73761 0.53829 0.77534 0.0
C1154 C 0.7359 0.56352 0.76321 0.0
C1155 C 0.80546 0.52302 1.00601 0.0
C1156 C 0.74299 0.52464 1.00357 0.0
C1157 C 0.82804 0.52457 0.01814 0.0
C1158 C 0.78931 0.52741 0.02841 0.0
H1159 H 0.83734 0.52213 0.99849 0.0
H1160 H 0.87642 0.52361 0.01948 0.0
S1161 S 0.62171 0.5311 0.02708 0.0
N1162 N 0.6427 0.52683 1.01257 0.0
N1163 N 0.68477 0.53211 0.03515 0.0
C1164 C 0.72667 0.52829 0.02609 0.0
C1165 C 0.70372 0.52643 1.01376 0.0
C1166 C 0.7673 0.57208 0.26729 0.0
C1167 C 0.76541 0.53433 0.27772 0.0
C1168 C 0.76835 0.54851 0.25526 0.0
C1169 C 0.76704 0.48599 0.25308 0.0
H1170 H 0.76779 0.62046 0.26844 0.0
H1171 H 0.7685 0.57966 0.24761 0.0
S1172 S 0.76286 0.36712 0.27711 0.0
N1173 N 0.76206 0.43071 0.28492 0.0
N1174 N 0.76597 0.38675 0.26249 0.0
C1175 C 0.76615 0.4477 0.26343 0.0
C1176 C 0.76497 0.47167 0.27567 0.0
C1177 C 0.80408 0.52778 0.52697 0.0
C1178 C 0.74193 0.52122 0.52934 0.0
C1179 C 0.8267 0.52995 0.51491 0.0
C1180 C 0.78849 0.52557 0.50457 0.0
H1181 H 0.83602 0.52973 0.53448 0.0
H1182 H 0.87492 0.5348 0.5137 0.0
S1183 S 0.62149 0.51103 0.50563 0.0
N1184 N 0.64196 0.51394 0.52021 0.0
N1185 N 0.68458 0.51552 0.49763 0.0
C1186 C 0.72601 0.52027 0.50678 0.0
C1187 C 0.70284 0.5185 0.5191 0.0
C1188 C 0.2619 0.54582 0.27546 0.0
C1189 C 0.26115 0.48307 0.27737 0.0
C1190 C 0.2615 0.5707 0.26354 0.0
C1191 C 0.26091 0.53409 0.25297 0.0
H1192 H 0.26132 0.57614 0.28323 0.0
H1193 H 0.26165 0.6192 0.26259 0.0
S1194 S 0.25943 0.36685 0.25287 0.0
N1195 N 0.26118 0.38484 0.26758 0.0
N1196 N 0.2589 0.43129 0.24531 0.0
C1197 C 0.26071 0.47121 0.25474 0.0
C1198 C 0.26107 0.44588 0.26688 0.0
C1199 C 0.30754 0.56873 0.01842 0.0
C1200 C 0.29367 0.52577 0.02748 0.0
C1201 C 0.28277 0.56484 1.0065 0.0
C1202 C 0.24376 0.51731 1.00311 0.0
H1203 H 0.33703 0.60607 0.02065 0.0
H1204 H 0.29374 0.59979 0.99994 0.0
S1205 S 0.20002 0.38935 0.02335 0.0
N1206 N 0.24191 0.43278 0.03224 0.0
N1207 N 0.19748 0.42322 1.00985 0.0
C1208 C 0.23127 0.47303 1.01211 0.0
C1209 C 0.25571 0.47781 0.02427 0.0
C1210 C 0.23332 0.54916 0.7581 0.0
C1211 C 0.28496 0.51868 0.75394 0.0
C1212 C 0.22958 0.57151 0.77019 0.0
C1213 C 0.27761 0.56483 0.77863 0.0
H1214 H 0.19485 0.55431 0.75205 0.0
H1215 H 0.18807 0.59294 0.77301 0.0
S1216 S 0.42604 0.49548 0.77173 0.0
N1217 N 0.38708 0.48737 0.75889 0.0
N1218 N 0.38062 0.53005 0.78144 0.0
C1219 C 0.33033 0.53624 0.77441 0.0
C1220 C 0.33389 0.5131 0.76213 0.0
C1221 C 0.23827 0.49576 0.51631 0.0
C1222 C 0.26652 0.52586 0.52613 0.0
C1223 C 0.2627 0.49695 0.50436 0.0
C1224 C 0.31595 0.52931 0.50161 0.0
H1225 H 0.19713 0.47062 0.51794 0.0
H1226 H 0.23962 0.47197 0.49723 0.0
S1227 S 0.40364 0.62083 0.52409 0.0
N1228 N 0.34876 0.59093 0.53233 0.0
N1229 N 0.39356 0.59581 0.50995 0.0
C1230 C 0.34396 0.56058 0.51141 0.0
C1231 C 0.31952 0.55825 0.52362 0.0
C1232 C 1.01454 0.20844 0.18971 0.0
C1233 C 0.0722 0.23488 0.18865 0.0
C1234 C 0.96213 0.24335 0.18967 0.0
C1235 C 0.96498 0.30647 0.18896 0.0
H1236 H 1.00958 0.16029 0.19091 0.0
H1237 H 0.91912 0.22042 0.19037 0.0
S1238 S 0.10536 0.39788 0.18564 0.0
N1239 N 0.12886 0.32756 0.18581 0.0
N1240 N 0.03151 0.39411 0.18731 0.0
C1241 C 1.02262 0.33359 0.18785 0.0
C1242 C 0.07582 0.29765 0.18736 0.0
C1243 C 0.04314 0.8052 0.43351 0.0
C1244 C 0.07417 0.83261 0.44327 0.0
C1245 C 1.01468 0.7492 0.43513 0.0
C1246 C 1.01792 0.71857 0.44646 0.0
H1247 H 0.03985 0.82773 0.4247 0.0
H1248 H 0.98803 0.73103 0.42765 0.0
S1249 S 0.10092 0.76878 0.47425 0.0
N1250 N 0.11009 0.82401 0.46426 0.0
N1251 N 0.0605 0.71721 0.46707 0.0
C1252 C 0.05233 0.74422 0.45598 0.0
C1253 C 0.0794 0.80171 0.45445 0.0
C1254 C 0.52085 0.838 0.68813 0.0
C1255 C 0.46445 0.81012 0.68601 0.0
C1256 C 0.57367 0.80432 0.68914 0.0
C1257 C 0.57188 0.74165 0.68818 0.0
H1258 H 0.52402 0.88601 0.68974 0.0
H1259 H 0.61546 0.82706 0.69146 0.0
S1260 S 0.43811 0.64663 0.68167 0.0
N1261 N 0.41156 0.71606 0.68196 0.0
N1262 N 0.51126 0.65242 0.6844 0.0
C1263 C 0.51682 0.71307 0.68557 0.0
C1264 C 0.46291 0.7474 0.68438 0.0
C1265 C 0.50834 0.23951 0.93411 0.0
C1266 C 0.51118 0.20686 0.9452 0.0
C1267 C 0.53674 0.29585 0.93297 0.0
C1268 C 0.5672 0.32155 0.94301 0.0
H1269 H 0.48202 0.22266 0.92645 0.0
H1270 H 0.53385 0.31997 0.92434 0.0
S1271 S 0.59281 0.25206 0.97351 0.0
N1272 N 0.55316 0.20166 0.96585 0.0
N1273 N 0.60216 0.30918 0.96399 0.0
C1274 C 0.5721 0.28858 0.95394 0.0
C1275 C 0.54531 0.23073 0.95496 0.0
C1276 C 1.00497 0.83145 0.34244 0.0
C1277 C 0.06256 0.80723 0.34033 0.0
C1278 C 0.95381 0.79422 0.34275 0.0
C1279 C 0.95884 0.7319 0.34073 0.0
H1280 H 0.9993 0.87966 0.34338 0.0
H1281 H 0.91002 0.81444 0.34427 0.0
S1282 S 0.1006 0.64862 0.33416 0.0
N1283 N 0.1224 0.71888 0.33614 0.0
N1284 N 0.02675 0.64855 0.33609 0.0
C1285 C 1.0168 0.70753 0.3387 0.0
C1286 C 0.06858 0.74534 0.33865 0.0
C1287 C 0.60254 0.77073 0.58977 0.0
C1288 C 0.57216 0.71603 0.59223 0.0
C1289 C 0.5711 0.82479 0.58847 0.0
C1290 C 0.50827 0.82594 0.5895 0.0
H1291 H 0.65087 0.77153 0.58829 0.0
H1292 H 0.59573 0.86529 0.58605 0.0
S1293 S 0.40714 0.6974 0.59647 0.0
N1294 N 0.47551 0.66785 0.59633 0.0
N1295 N 0.41623 0.76974 0.59346 0.0
C1296 C 0.47722 0.77249 0.59227 0.0
C1297 C 0.50921 0.71737 0.59371 0.0
C1298 C 0.47925 0.30938 0.83788 0.0
C1299 C 0.48018 0.2467 0.839 0.0
C1300 C 0.5325 0.34275 0.83903 0.0
C1301 C 0.58841 0.31449 0.84139 0.0
H1302 H 0.43776 0.33237 0.8355 0.0
H1303 H 0.53012 0.39086 0.83748 0.0
S1304 S 0.61261 0.15076 0.84582 0.0
N1305 N 0.53968 0.15713 0.84296 0.0
N1306 N 0.63996 0.21998 0.84554 0.0
C1307 C 0.58913 0.25173 0.84298 0.0
C1308 C 0.53488 0.21781 0.84171 0.0
C1309 C 0.07228 0.28477 0.09523 0.0
C1310 C 0.04772 0.22696 0.09371 0.0
C1311 C 0.03506 0.33556 0.09554 0.0
C1312 C 0.97219 0.33015 0.09408 0.0
H1313 H 0.12079 0.29096 0.09548 0.0
H1314 H 0.05593 0.37946 0.09642 0.0
S1315 S 0.88692 0.18677 0.09024 0.0
N1316 N 0.95804 0.16587 0.09144 0.0
N1317 N 0.88734 0.26084 0.09139 0.0
C1318 C 0.94716 0.27173 0.09308 0.0
C1319 C 0.9852 0.2202 0.09304 0.0
C1320 C 0.043 0.71455 0.84396 0.0
C1321 C 0.10037 0.74035 0.84617 0.0
C1322 C 0.99139 0.74996 0.84297 0.0
C1323 C 0.99524 0.81249 0.84398 0.0
H1324 H 0.03802 0.66681 0.84223 0.0
H1325 H 0.94896 0.72867 0.84056 0.0
S1326 S 0.13185 0.90289 0.85078 0.0
N1327 N 0.15608 0.83262 0.85047 0.0
N1328 N 0.05866 0.89955 0.84793 0.0
C1329 C 0.05115 0.83915 0.84669 0.0
C1330 C 0.10387 0.80298 0.84792 0.0
C1331 C 0.96267 0.2732 0.58937 0.0
C1332 C 0.99227 0.2183 0.59194 0.0
C1333 C 0.9949 0.32684 0.58797 0.0
C1334 C 0.05777 0.32727 0.58898 0.0
H1335 H 0.91441 0.27442 0.5878 0.0
H1336 H 0.97091 0.36744 0.58542 0.0
S1337 S 0.15694 0.19831 0.5965 0.0
N1338 N 0.08814 0.16951 0.59638 0.0
N1339 N 0.14892 0.27048 0.59324 0.0
C1340 C 0.08798 0.27375 0.59197 0.0
C1341 C 0.05519 0.21915 0.59356 0.0
C1342 C 0.51343 0.32266 0.33968 0.0
C1343 C 0.45581 0.29653 0.34104 0.0
C1344 C 0.56556 0.28755 0.33954 0.0
C1345 C 0.56241 0.22452 0.34039 0.0
H1346 H 0.51852 0.37077 0.33845 0.0
H1347 H 0.60859 0.31029 0.33865 0.0
S1348 S 0.42182 0.13404 0.34437 0.0
N1349 N 0.39867 0.20447 0.34411 0.0
N1350 N 0.49557 0.13724 0.34243 0.0
C1351 C 0.50474 0.19767 0.34173 0.0
C1352 C 0.45181 0.2339 0.34235 0.0
C1353 C 0.48472 0.84187 0.09617 0.0
C1354 C 0.54785 0.84041 0.0955 0.0
C1355 C 0.45156 0.78822 0.09652 0.0
C1356 C 0.48082 0.73203 0.09626 0.0
H1357 H 0.46084 0.88408 0.09513 0.0
H1358 H 0.40286 0.79054 0.09572 0.0
S1359 S 0.64539 0.70519 0.0968 0.0
N1360 N 0.6386 0.77922 0.09644 0.0
N1361 N 0.57586 0.67824 0.09705 0.0
C1362 C 0.54378 0.7303 0.09705 0.0
C1363 C 0.57753 0.78478 0.09668 0.0
C1364 C 1.00297 0.26377 0.68315 0.0
C1365 C 0.97852 0.23018 0.69288 0.0
C1366 C 0.05834 0.29397 0.68455 0.0
C1367 C 0.09111 0.29022 0.69563 0.0
H1368 H 0.97856 0.26778 0.67456 0.0
H1369 H 0.07421 0.32244 0.67713 0.0
S1370 S 0.04866 0.20163 0.72322 0.0
N1371 N 0.99208 0.1916 0.71355 0.0
N1372 N 0.09756 0.24495 0.71596 0.0
C1373 C 0.06842 0.25345 0.70509 0.0
C1374 C 1.01167 0.22436 0.70378 0.0
C1375 C 0.53284 0.32447 0.43008 0.0
C1376 C 0.49124 0.34384 0.43895 0.0
C1377 C 0.56482 0.27048 0.43177 0.0
C1378 C 0.55546 0.23486 0.44232 0.0
H1379 H 0.54082 0.35121 0.42191 0.0
H1380 H 0.59827 0.25752 0.42503 0.0
S1381 S 0.44885 0.2655 0.46771 0.0
N1382 N 0.44099 0.32319 0.45829 0.0
N1383 N 0.49945 0.22129 0.4613 0.0
C1384 C 0.51241 0.25323 0.45096 0.0
C1385 C 0.48077 0.30798 0.44933 0.0
C1386 C 0.54407 0.78905 0.18238 0.0
C1387 C 0.5714 0.8066 0.19347 0.0
C1388 C 0.48935 0.75739 0.18235 0.0
C1389 C 0.45963 0.74335 0.19341 0.0
H1390 H 0.5654 0.79951 0.17368 0.0
H1391 H 0.47034 0.74332 0.17364 0.0
S1392 S 0.51144 0.78174 0.22485 0.0
N1393 N 0.56404 0.80968 0.21573 0.0
N1394 N 0.46124 0.74981 0.21571 0.0
C1395 C 0.48602 0.76163 0.20454 0.0
C1396 C 0.54199 0.79327 0.20457 0.0
C1397 C 1.01542 0.80688 0.93109 0.0
C1398 C 1.00101 0.83536 0.94225 0.0
C1399 C 0.04682 0.75223 0.93097 0.0
C1400 C 0.06329 0.7238 0.942 0.0
H1401 H 1.00159 0.82666 0.92243 0.0
H1402 H 0.05764 0.73168 0.92222 0.0
S1403 S 0.03748 0.78054 0.97356 0.0
N1404 N 1.00655 0.83176 0.96455 0.0
N1405 N 0.06533 0.7288 0.9643 0.0
C1406 C 0.04981 0.75211 0.95319 0.0
C1407 C 1.01874 0.80806 0.95331 0.0
C1408 C 0.48438 0.9987 0.20727 0.0
C1409 C 0.44686 0.04828 0.20428 0.0
C1410 C 0.54894 1.00344 0.20736 0.0
C1411 C 0.57937 0.05795 0.20444 0.0
H1412 H 0.46394 0.95542 0.20921 0.0
H1413 H 0.57513 0.96333 0.20918 0.0
S1414 S 0.5037 0.20291 0.1974 0.0
N1415 N 0.44736 0.15538 0.19945 0.0
N1416 N 0.56567 0.16317 0.19944 0.0
C1417 C 0.54227 0.10794 0.20199 0.0
C1418 C 0.47729 0.10344 0.20196 0.0
C1419 C 0.2543 0.31076 0.44834 0.0
C1420 C 0.27404 0.33662 0.45953 0.0
C1421 C 0.25282 0.24703 0.44651 0.0
C1422 C 0.27241 0.20557 0.45562 0.0
H1423 H 0.24214 0.3398 0.44075 0.0
H1424 H 0.23765 0.2301 0.43771 0.0
S1425 S 0.31884 0.2483 0.4872 0.0
N1426 N 0.30676 0.31356 0.48033 0.0
N1427 N 0.30515 0.19612 0.47676 0.0
C1428 C 0.28954 0.23073 0.46697 0.0
C1429 C 0.29004 0.29518 0.46892 0.0
C1430 C 1.01599 0.04752 0.71816 0.0
C1431 C 0.97272 1.02051 0.71025 0.0
C1432 C 0.079 0.04568 0.71588 0.0
C1433 C 0.10315 1.01556 0.70565 0.0
H1434 H 1.00086 0.07198 0.72618 0.0
H1435 H 0.1091 0.06774 0.72231 0.0
S1436 S 1.01163 0.93432 0.68217 0.0
N1437 N 0.96047 0.96105 0.69174 0.0
N1438 N 0.07788 0.95556 0.68766 0.0
C1439 C 0.06082 0.98624 0.69786 0.0
C1440 C 0.99631 0.98898 0.7001 0.0
C1441 C 0.23014 0.7632 0.96477 0.0
C1442 C 0.27032 0.71948 0.95986 0.0
C1443 C 0.23472 0.82552 0.96216 0.0
C1444 C 0.28044 0.84905 0.95458 0.0
H1445 H 0.19361 0.74934 0.97074 0.0
H1446 H 0.20243 0.85571 0.96635 0.0
S1447 S 0.3973 0.75628 0.93892 0.0
N1448 N 0.35697 0.70605 0.94656 0.0
N1449 N 0.36707 0.82255 0.94197 0.0
C1450 C 0.32132 0.80633 0.94958 0.0
C1451 C 0.31599 0.74224 0.95211 0.0
C1452 C 0.45632 0.0553 0.31594 0.0
C1453 C 0.43055 1.01324 0.32406 0.0
C1454 C 0.51945 0.05858 0.31395 0.0
C1455 C 0.56172 1.02058 0.32003 0.0
H1456 H 0.42733 0.08593 0.31093 0.0
H1457 H 0.53516 0.09253 0.30756 0.0
S1458 S 0.51865 0.9033 0.34271 0.0
N1459 N 0.45328 0.93227 0.33842 0.0
N1460 N 0.57116 0.93988 0.33491 0.0
C1461 C 0.53661 0.97829 0.32825 0.0
C1462 C 0.47175 0.97434 0.33018 0.0
C1463 C 0.3322 0.22127 0.5846 0.0
C1464 C 0.298 0.18737 0.57609 0.0
C1465 C 0.33149 0.28493 0.58476 0.0
C1466 C 0.29851 0.31914 0.57613 0.0
H1467 H 0.3586 0.19824 0.59154 0.0
H1468 H 0.35536 0.30777 0.5921 0.0
S1469 S 0.2053 0.25321 0.55106 0.0
N1470 N 0.23201 0.19364 0.55834 0.0
N1471 N 0.23284 0.31265 0.55828 0.0
C1472 C 0.26613 0.28587 0.56719 0.0
C1473 C 0.26539 0.22055 0.56725 0.0
C1474 C 0.1001 0.99745 0.81344 0.0
C1475 C 0.12576 1.02421 0.82395 0.0
C1476 C 0.0373 1.00136 0.81086 0.0
C1477 C 0.99593 0.03145 0.81872 0.0
H1478 H 0.12912 0.9753 0.80685 0.0
H1479 H 1.02111 0.98032 0.80252 0.0
S1480 S 0.03913 0.10505 0.84808 0.0
N1481 N 0.10382 0.07988 0.8426 0.0
N1482 N 0.98695 0.08528 0.83801 0.0
C1483 C 1.02091 0.05626 0.82952 0.0
C1484 C 0.0851 0.05328 0.83203 0.0
C1485 C 0.29982 0.78495 0.06264 0.0
C1486 C 0.26527 0.74313 0.06965 0.0
C1487 C 0.30074 0.84795 0.0651 0.0
C1488 C 0.26627 0.87376 0.07462 0.0
H1489 H 0.32695 0.76888 0.05506 0.0
H1490 H 0.32729 0.87691 0.05919 0.0
S1491 S 0.16986 0.78613 0.09626 0.0
N1492 N 0.19778 0.73407 0.08707 0.0
N1493 N 0.19779 0.85098 0.09145 0.0
C1494 C 0.23227 0.83261 0.08185 0.0
C1495 C 0.2323 0.7682 0.07948 0.0
C1496 C 0.53058 0.96997 0.833 0.0
C1497 C 0.49674 1.00811 0.82523 0.0
C1498 C 0.59459 0.9699 0.8331 0.0
C1499 C 0.62929 1.00972 0.82579 0.0
H1500 H 0.50716 0.94141 0.83952 0.0
H1501 H 0.61714 0.93946 0.83938 0.0
S1502 S 0.56446 0.11863 0.80353 0.0
N1503 N 0.50452 0.08557 0.80956 0.0
N1504 N 0.62378 0.08749 0.81018 0.0
C1505 C 0.59639 0.0477 0.81784 0.0
C1506 C 0.53085 0.04646 0.81747 0.0
C1507 C 0.74041 0.76059 0.56511 0.0
C1508 C 0.77715 0.71784 0.57134 0.0
C1509 C 0.74648 0.8236 0.56674 0.0
C1510 C 0.79015 0.84854 0.57464 0.0
H1511 H 0.7052 0.74532 0.55895 0.0
H1512 H 0.71643 0.85306 0.5617 0.0
S1513 S 0.89824 0.75847 0.5934 0.0
N1514 N 0.85887 0.70681 0.58597 0.0
N1515 N 0.87149 0.82425 0.58887 0.0
C1516 C 0.82797 0.80666 0.58085 0.0
C1517 C 0.82132 0.74206 0.57925 0.0
C1518 C 0.95885 0.9967 0.31292 0.0
C1519 C 0.93305 1.02398 0.32334 0.0
C1520 C 1.02167 1.00084 0.31035 0.0
C1521 C 0.06308 0.03161 0.31814 0.0
H1522 H 0.92998 0.9735 0.30642 0.0
H1523 H 0.03792 0.97917 0.30209 0.0
S1524 S 1.01983 0.10768 0.34718 0.0
N1525 N 0.95518 0.0815 0.3418 0.0
N1526 N 0.07199 0.08738 0.33719 0.0
C1527 C 0.03802 0.05733 0.32882 0.0
C1528 C 0.97379 0.05413 0.33132 0.0
C1529 C 0.78682 0.2255 0.06527 0.0
C1530 C 0.75002 0.20032 0.07446 0.0
C1531 C 0.79107 0.28852 0.06347 0.0
C1532 C 0.75948 0.33096 0.07082 0.0
H1533 H 0.8126 0.19618 0.05932 0.0
H1534 H 0.82098 0.30412 0.05627 0.0
S1535 S 0.65763 0.28919 0.0965 0.0
N1536 N 0.68063 0.22363 0.0911 0.0
N1537 N 0.69031 0.3413 0.08793 0.0
C1538 C 0.72206 0.30641 0.08002 0.0
C1539 C 0.71703 0.24175 0.08177 0.0
C1540 C 0.57899 0.98601 0.71336 0.0
C1541 C 0.60412 0.0307 0.70575 0.0
C1542 C 0.51585 0.98006 0.715 0.0
C1543 C 0.4731 1.01793 0.70905 0.0
H1544 H 0.60841 0.95507 0.71818 0.0
H1545 H 0.5005 0.94407 0.72094 0.0
S1546 S 0.51424 0.14223 0.68784 0.0
N1547 N 0.58011 0.11439 0.69212 0.0
N1548 N 0.46229 0.10199 0.69501 0.0
C1549 C 0.4975 0.06316 0.70143 0.0
C1550 C 0.5623 0.06971 0.69984 0.0
C1551 C 0.82698 0.77543 0.45187 0.0
C1552 C 0.77653 0.73691 0.45384 0.0
C1553 C 0.82341 0.83918 0.45246 0.0
C1554 C 0.76847 0.86905 0.45461 0.0
H1555 H 0.8699 0.75615 0.44931 0.0
H1556 H 0.86373 0.86528 0.45061 0.0
S1557 S 0.62205 0.79128 0.46057 0.0
N1558 N 0.6697 0.73517 0.45841 0.0
N1559 N 0.66193 0.85386 0.45919 0.0
C1560 C 0.71763 0.8313 0.45684 0.0
C1561 C 0.72178 0.76602 0.45652 0.0
C1562 C 0.96988 0.05247 0.21483 0.0
C1563 C 0.94483 1.01174 0.20634 0.0
C1564 C 0.03301 0.05716 0.21674 0.0
C1565 C 0.076 1.02209 0.21019 0.0
H1566 H 0.94035 0.08111 0.22016 0.0
H1567 H 0.04819 0.09008 0.22339 0.0
S1568 S 0.03513 0.90873 0.18658 0.0
N1569 N 0.96918 0.93473 0.19124 0.0
N1570 N 0.08696 0.94508 0.1946 0.0
C1571 C 0.05166 0.98084 0.20168 0.0
C1572 C 0.98683 0.97543 0.19982 0.0
C1573 C 0.7466 0.27851 0.9687 0.0
C1574 C 0.77397 0.32142 0.96076 0.0
C1575 C 0.74838 0.21549 0.96652 0.0
C1576 C 0.77885 0.19088 0.95635 0.0
H1577 H 0.72216 0.29396 0.9767 0.0
H1578 H 0.72627 0.18572 0.973 0.0
S1579 S 0.86004 0.28129 0.9327 0.0
N1580 N 0.8333 0.33273 0.94219 0.0
N1581 N 0.83891 0.21542 0.93833 0.0
C1582 C 0.80821 0.23286 0.94851 0.0
C1583 C 0.80543 0.29737 0.95063 0.0
C1584 C 0.03129 0.48284 0.70294 0.0
C1585 C 0.06955 0.53355 0.70469 0.0
C1586 C 0.96749 0.48587 0.70384 0.0
C1587 C 0.93754 0.54052 0.70608 0.0
H1588 H 0.05069 0.44027 0.70025 0.0
H1589 H 0.94138 0.44554 0.70208 0.0
S1590 S 1.01476 0.68726 0.71161 0.0
N1591 N 0.07113 0.64014 0.70922 0.0
N1592 N 0.95221 0.64695 0.71054 0.0
C1593 C 0.97507 0.59156 0.70813 0.0
C1594 C 0.04038 0.58794 0.70751 0.0
C1595 C 0.73775 0.73271 0.95052 0.0
C1596 C 0.77266 0.69061 0.95734 0.0
C1597 C 0.74209 0.79632 0.95237 0.0
C1598 C 0.78075 0.82151 0.96135 0.0
H1599 H 0.70727 0.71641 0.94348 0.0
H1600 H 0.71594 0.82588 0.94652 0.0
S1601 S 0.87782 0.73109 0.98255 0.0
N1602 N 0.84495 0.67989 0.97385 0.0
N1603 N 0.85194 0.79652 0.97771 0.0
C1604 C 0.81426 0.77929 0.96849 0.0
C1605 C 0.8106 0.71509 0.96641 0.0
C1606 C 0.49196 0.48514 0.20275 0.0
C1607 C 0.46761 0.52453 0.21162 0.0
C1608 C 0.55549 0.48001 0.20085 0.0
C1609 C 0.59824 0.51476 0.20755 0.0
H1610 H 0.46179 0.45905 0.197 0.0
H1611 H 0.57122 0.44907 0.19388 0.0
S1612 S 0.55995 0.62158 0.23248 0.0
N1613 N 0.49386 0.59623 0.22777 0.0
N1614 N 0.6106 0.58768 0.22384 0.0
C1615 C 0.57461 0.55339 0.21654 0.0
C1616 C 0.51043 0.5579 0.21865 0.0
C1617 C 0.81016 0.27881 0.47011 0.0
C1618 C 0.79698 0.23562 0.4609 0.0
C1619 C 0.80518 0.34177 0.46807 0.0
C1620 C 0.78548 0.36595 0.45676 0.0
H1621 H 0.8249 0.26388 0.4791 0.0
H1622 H 0.81777 0.37204 0.47544 0.0
S1623 S 0.7432 0.27471 0.42948 0.0
N1624 N 0.76173 0.22366 0.43987 0.0
N1625 N 0.75283 0.34096 0.43611 0.0
C1626 C 0.77185 0.32378 0.44744 0.0
C1627 C 0.77728 0.25934 0.44948 0.0
C1628 C 0.99603 0.47652 0.8295 0.0
C1629 C 0.9564 0.52311 0.82557 0.0
C1630 C 0.05997 0.48011 0.82808 0.0
C1631 C 0.08769 0.53036 0.82249 0.0
H1632 H 0.97749 0.43655 0.83377 0.0
H1633 H 0.0876 0.44328 0.83137 0.0
S1634 S 1.00682 0.66593 0.81107 0.0
N1635 N 0.95209 0.62208 0.81619 0.0
N1636 N 0.07013 0.62854 0.81341 0.0
C1637 C 0.04877 0.57713 0.81862 0.0
C1638 C 0.98408 0.57373 0.82016 0.0
C1639 C 0.81213 0.79644 0.08591 0.0
C1640 C 0.78079 0.83241 0.07731 0.0
C1641 C 0.81195 0.73278 0.08543 0.0
C1642 C 0.77863 0.70024 0.07656 0.0
H1643 H 0.83568 0.81789 0.09347 0.0
H1644 H 0.83686 0.70869 0.09245 0.0
S1645 S 0.69021 0.77076 0.05138 0.0
N1646 N 0.71774 0.82891 0.05902 0.0
N1647 N 0.71501 0.7099 0.05851 0.0
C1648 C 0.74772 0.73515 0.06771 0.0
C1649 C 0.7494 0.80062 0.06798 0.0
C1650 C 0.49031 0.55116 0.32625 0.0
C1651 C 0.46544 0.50154 0.31989 0.0
C1652 C 0.55393 0.55749 0.32812 0.0
C1653 C 0.5964 0.51424 0.3239 0.0
H1654 H 0.46051 0.58524 0.32992 0.0
H1655 H 0.56994 0.59678 0.33302 0.0
S1656 S 0.55695 0.37515 0.30686 0.0
N1657 N 0.4914 0.40793 0.30931 0.0
N1658 N 0.60772 0.41989 0.31312 0.0
C1659 C 0.57224 0.46458 0.31761 0.0
C1660 C 0.50809 0.4583 0.31555 0.0
C1661 C 0.81931 0.3243 0.56703 0.0
C1662 C 0.77713 0.34837 0.57534 0.0
C1663 C 0.8241 0.26149 0.56489 0.0
C1664 C 0.78748 0.21795 0.57097 0.0
H1665 H 0.84907 0.35431 0.56204 0.0
H1666 H 0.85819 0.24699 0.55843 0.0
S1667 S 0.66999 0.2561 0.59394 0.0
N1668 N 0.6973 0.32233 0.58978 0.0
N1669 N 0.70754 0.20535 0.58593 0.0
C1670 C 0.74487 0.24132 0.5793 0.0
C1671 C 0.73952 0.30572 0.58142 0.0
C1672 C 0.05394 0.48111 0.33142 0.0
C1673 C 0.09542 0.50714 0.323 0.0
C1674 C 0.99019 0.48483 0.32977 0.0
C1675 C 0.96456 0.5137 0.31945 0.0
H1676 H 0.0709 0.45898 0.33959 0.0
H1677 H 0.96095 0.46706 0.33688 0.0
S1678 S 0.05283 0.58197 0.2938 0.0
N1679 N 0.10515 0.5583 0.30346 0.0
N1680 N 0.9875 0.56411 0.30012 0.0
C1681 C 1.00593 0.53717 0.3107 0.0
C1682 C 0.07041 0.53421 0.3125 0.0
C1683 C 0.31521 0.26913 0.07681 0.0
C1684 C 0.27279 0.24267 0.06875 0.0
C1685 C 0.31611 0.33241 0.07918 0.0
C1686 C 0.27359 0.37304 0.07396 0.0
H1687 H 0.34926 0.24107 0.08105 0.0
H1688 H 0.35113 0.34975 0.08516 0.0
S1689 S 0.14877 0.32694 0.05322 0.0
N1690 N 0.18477 0.26344 0.05604 0.0
N1691 N 0.18535 0.37969 0.06089 0.0
C1692 C 0.22951 0.34671 0.06632 0.0
C1693 C 0.22945 0.28274 0.06364 0.0
C1694 C 0.48076 0.49304 0.81622 0.0
C1695 C 0.45557 0.53599 0.82418 0.0
C1696 C 0.54395 0.48777 0.81454 0.0
C1697 C 0.58665 0.52454 0.82082 0.0
H1698 H 0.45135 0.46294 0.81116 0.0
H1699 H 0.55938 0.4531 0.80832 0.0
S1700 S 0.54525 0.64431 0.84297 0.0
N1701 N 0.47945 0.61701 0.83846 0.0
N1702 N 0.59727 0.6058 0.8355 0.0
C1703 C 0.56214 0.56811 0.82877 0.0
C1704 C 0.49734 0.57402 0.8304 0.0
C1705 C 0.2346 0.78549 0.58357 0.0
C1706 C 0.27141 0.81901 0.57548 0.0
C1707 C 0.23336 0.72179 0.58354 0.0
C1708 C 0.27066 0.68721 0.57575 0.0
H1709 H 0.20809 0.80888 0.59042 0.0
H1710 H 0.20404 0.69932 0.59006 0.0
S1711 S 0.37435 0.75125 0.55236 0.0
N1712 N 0.34441 0.81121 0.55892 0.0
N1713 N 0.34399 0.6922 0.55925 0.0
C1714 C 0.30714 0.71974 0.56744 0.0
C1715 C 0.3071 0.78505 0.56723 0.0
C1716 C 0.07401 0.48071 0.21429 0.0
C1717 C 0.09875 0.52171 0.20582 0.0
C1718 C 1.01093 0.47609 0.21625 0.0
C1719 C 0.96794 0.51174 0.20981 0.0
H1720 H 0.10371 0.45194 0.21958 0.0
H1721 H 0.99578 0.44304 0.22289 0.0
S1722 S 1.00819 0.62518 0.18613 0.0
N1723 N 0.07419 0.59887 0.19072 0.0
N1724 N 0.95657 0.58898 0.19424 0.0
C1725 C 0.99203 0.553 0.20127 0.0
C1726 C 0.0567 0.55818 0.19933 0.0
C1727 C 0.22293 0.31689 0.9462 0.0
C1728 C 0.25706 0.35009 0.95486 0.0
C1729 C 0.22367 0.25315 0.94575 0.0
C1730 C 0.25674 0.21789 0.9542 0.0
H1731 H 0.19686 0.34051 0.93929 0.0
H1732 H 0.20002 0.23116 0.93828 0.0
S1733 S 0.34936 0.28122 0.97965 0.0
N1734 N 0.3227 0.34161 0.97263 0.0
N1735 N 0.32197 0.2226 0.97213 0.0
C1736 C 0.28871 0.25034 0.96334 0.0
C1737 C 0.28934 0.31577 0.96359 0.0
C1738 C 0.52799 0.55708 0.71855 0.0
C1739 C 0.56989 0.52278 0.71159 0.0
C1740 C 0.46546 0.55976 0.71564 0.0
C1741 C 0.44061 0.52742 0.70572 0.0
H1742 H 0.54358 0.58245 0.72643 0.0
H1743 H 0.436 0.58556 0.72156 0.0
S1744 S 0.52919 0.43335 0.68399 0.0
N1745 N 0.58051 0.45847 0.69374 0.0
N1746 N 0.46412 0.4617 0.68856 0.0
C1747 C 0.48193 0.49401 0.69851 0.0
C1748 C 0.54586 0.49227 0.70133 0.0
C1749 C 0.25658 0.79378 0.46768 0.0
C1750 C 0.28439 0.83645 0.45976 0.0
C1751 C 0.25923 0.73068 0.4657 0.0
C1752 C 0.29135 0.7056 0.4558 0.0
H1753 H 0.23092 0.80945 0.4755 0.0
H1754 H 0.23613 0.70123 0.4721 0.0
S1755 S 0.37507 0.7953 0.43238 0.0
N1756 N 0.34631 0.84712 0.44153 0.0
N1757 N 0.35385 0.72958 0.43807 0.0
C1758 C 0.32149 0.74736 0.44801 0.0
C1759 C 0.31765 0.81203 0.44991 0.0
C1760 C 0.33572 0.03549 0.1349 0.0
C1761 C 0.28729 1.02379 0.12677 0.0
C1762 C 0.33033 0.02665 0.14763 0.0
C1763 C 0.27676 1.00449 0.15278 0.0
H1764 H 0.3782 0.05241 0.13141 0.0
H1765 H 0.36846 0.03681 0.15351 0.0
S1766 S 0.13611 0.96721 0.13594 0.0
N1767 N 0.18318 0.98979 0.12511 0.0
N1768 N 0.17417 0.97103 0.14897 0.0
C1769 C 0.2284 0.99118 0.14485 0.0
C1770 C 0.23342 1.00115 0.13187 0.0
C1771 C 0.33276 0.04487 0.38116 0.0
C1772 C 0.27632 0.02957 0.3762 0.0
C1773 C 0.34224 0.04498 0.39397 0.0
C1774 C 0.29555 0.02997 0.40228 0.0
H1775 H 0.36898 0.05881 0.37511 0.0
H1776 H 0.38609 0.05836 0.39741 0.0
S1777 S 0.14103 0.98108 0.39355 0.0
N1778 N 0.17429 0.99612 0.38032 0.0
N1779 N 0.19204 0.99456 0.40428 0.0
C1780 C 0.23945 1.01274 0.3973 0.0
C1781 C 0.22992 1.01298 0.3843 0.0
C1782 C 0.21771 0.03777 0.63336 0.0
C1783 C 0.27099 0.03268 0.62628 0.0
C1784 C 0.21952 0.04443 0.6462 0.0
C1785 C 0.2746 0.04737 0.6525 0.0
H1786 H 0.17393 0.03656 0.62897 0.0
H1787 H 0.17762 0.04805 0.65126 0.0
S1788 S 0.42698 0.03568 0.63879 0.0
N1789 N 0.38076 0.02976 0.62693 0.0
N1790 N 0.38359 0.04481 0.65098 0.0
C1791 C 0.32815 0.04341 0.64566 0.0
C1792 C 0.32652 0.03563 0.63258 0.0
C1793 C 0.28004 0.06799 0.89443 0.0
C1794 C 0.27661 1.01772 0.90229 0.0
C1795 C 0.28498 0.06128 0.88159 0.0
C1796 C 0.28562 1.00393 0.87608 0.0
H1797 H 0.27918 0.11286 0.89829 0.0
H1798 H 0.28938 0.10128 0.87598 0.0
S1799 S 0.26893 0.85833 0.89271 0.0
N1800 N 0.26959 0.90937 0.90373 0.0
N1801 N 0.27608 0.89596 0.87969 0.0
C1802 C 0.27988 0.95333 0.88391 0.0
C1803 C 0.27606 0.96041 0.89698 0.0
C1804 C 0.76186 0.97508 0.89517 0.0
C1805 C 0.76584 0.02456 0.90323 0.0
C1806 C 0.77014 0.98195 0.88239 0.0
C1807 C 0.78162 0.03883 0.87712 0.0
H1808 H 0.75326 0.93057 0.89884 0.0
H1809 H 0.76898 0.94226 0.87663 0.0
S1810 S 0.7866 0.18378 0.89425 0.0
N1811 N 0.77695 0.13241 0.90504 0.0
N1812 N 0.7893 0.14657 0.88113 0.0
C1813 C 0.78274 0.08901 0.88513 0.0
C1814 C 0.77571 0.08157 0.89813 0.0
C1815 C 0.7196 0.96822 0.6338 0.0
C1816 C 0.75625 1.00813 0.62708 0.0
C1817 C 0.72362 0.9646 0.64667 0.0
C1818 C 0.76301 1.00214 0.65333 0.0
H1819 H 0.68816 0.93912 0.62902 0.0
H1820 H 0.69548 0.93245 0.65149 0.0
S1821 S 0.86713 0.11562 0.6401 0.0
N1822 N 0.83273 0.08632 0.62802 0.0
N1823 N 0.83904 0.08074 0.65225 0.0
C1824 C 0.79913 0.04298 0.64674 0.0
C1825 C 0.79611 0.04561 0.63361 0.0
C1826 C 0.75815 0.06786 0.394 0.0
C1827 C 0.76779 1.02187 0.40271 0.0
C1828 C 0.7565 0.0559 0.38132 0.0
C1829 C 0.76516 0.99735 0.3767 0.0
H1830 H 0.75272 0.11388 0.39707 0.0
H1831 H 0.74828 0.09299 0.37509 0.0
S1832 S 0.79534 0.86134 0.39573 0.0
N1833 N 0.78719 0.91587 0.4059 0.0
N1834 N 0.78575 0.89285 0.38211 0.0
C1835 C 0.77467 0.95074 0.38537 0.0
C1836 C 0.77557 0.96309 0.39834 0.0
C1837 C 0.7418 1.01027 0.14695 0.0
C1838 C 0.78604 0.04343 0.15336 0.0
C1839 C 0.74104 1.00833 0.13395 0.0
C1840 C 0.78512 0.03861 0.12694 0.0
H1841 H 0.70699 0.98668 0.15201 0.0
H1842 H 0.70665 0.98196 0.12936 0.0
S1843 S 0.91082 0.13105 0.13927 0.0
N1844 N 0.87497 0.10685 0.15163 0.0
N1845 N 0.87374 0.10286 0.12742 0.0
C1846 C 0.82952 0.07159 0.13327 0.0
C1847 C 0.82992 0.07411 0.14641 0.0
C1848 C 0.79371 0.46644 0.6341 0.0
C1849 C 0.80656 0.52116 0.62825 0.0
C1850 C 0.78587 0.46344 0.6469 0.0
C1851 C 0.78906 0.51533 0.65441 0.0
H1852 H 0.79027 0.4256 0.62872 0.0
H1853 H 0.77666 0.41984 0.65091 0.0
S1854 S 0.81985 0.67032 0.64323 0.0
N1855 N 0.82255 0.62847 0.63071 0.0
N1856 N 0.80519 0.62365 0.65468 0.0
C1857 C 0.80234 0.57046 0.64859 0.0
C1858 C 0.81149 0.57318 0.63554 0.0
C1859 C 0.78607 0.48499 0.89647 0.0
C1860 C 0.7981 0.5336 0.90436 0.0
C1861 C 0.78331 0.49302 0.88363 0.0
C1862 C 0.7932 0.54991 0.87822 0.0
H1863 H 0.77886 0.44054 0.90029 0.0
H1864 H 0.77263 0.45455 0.87793 0.0
S1865 S 0.83256 0.69003 0.89512 0.0
N1866 N 0.82305 0.63919 0.90603 0.0
N1867 N 0.81999 0.65472 0.88201 0.0
C1868 C 0.8067 0.59851 0.88613 0.0
C1869 C 0.80871 0.59023 0.89916 0.0
C1870 C 0.70918 0.58362 0.13461 0.0
C1871 C 0.74165 0.54106 0.12773 0.0
C1872 C 0.71424 0.5862 0.14749 0.0
C1873 C 0.75035 0.545 0.15401 0.0
H1874 H 0.68016 0.61549 0.12995 0.0
H1875 H 0.6894 0.62039 0.15243 0.0
S1876 S 0.84319 0.42384 0.14031 0.0
N1877 N 0.81087 0.45664 0.12836 0.0
N1878 N 0.81901 0.46029 0.15259 0.0
C1879 C 0.78233 0.50163 0.14725 0.0
C1880 C 0.77836 0.5 0.13411 0.0
C1881 C 0.76094 0.45568 0.38601 0.0
C1882 C 0.77437 0.50229 0.37759 0.0
C1883 C 0.76338 0.46499 0.39881 0.0
C1884 C 0.77989 0.52108 0.40369 0.0
H1885 H 0.74693 0.41195 0.38268 0.0
H1886 H 0.75037 0.4288 0.40494 0.0
S1887 S 0.8233 0.65684 0.38601 0.0
N1888 N 0.8084 0.60598 0.37537 0.0
N1889 N 0.8113 0.62328 0.39935 0.0
C1890 C 0.79451 0.56762 0.39549 0.0
C1891 C 0.79222 0.55832 0.38246 0.0
C1892 C 0.21868 0.58492 0.38264 0.0
C1893 C 0.25539 0.54454 0.3761 0.0
C1894 C 0.21591 0.58365 0.39555 0.0
C1895 C 0.25119 0.54322 0.40244 0.0
H1896 H 0.1916 0.61748 0.37771 0.0
H1897 H 0.18642 0.61495 0.40022 0.0
S1898 S 0.35544 0.42885 0.38976 0.0
N1899 N 0.32775 0.46292 0.37747 0.0
N1900 N 0.32376 0.46161 0.40175 0.0
C1901 C 0.28854 0.50297 0.39602 0.0
C1902 C 0.29027 0.5033 0.38285 0.0
C1903 C 0.31427 0.5019 0.14525 0.0
C1904 C 0.26505 0.50752 0.15336 0.0
C1905 C 0.30722 0.50981 0.13247 0.0
C1906 C 0.2504 0.52262 0.12727 0.0
H1907 H 0.35876 0.49245 0.14888 0.0
H1908 H 0.3468 0.50751 0.12667 0.0
S1909 S 0.1058 0.53204 0.14453 0.0
N1910 N 0.15729 0.52134 0.15529 0.0
N1911 N 0.14281 0.53339 0.13136 0.0
C1912 C 0.20038 0.52533 0.13532 0.0
C1913 C 0.208 0.51854 0.14832 0.0
C1914 C 0.33751 0.46462 0.88512 0.0
C1915 C 0.29944 0.50106 0.87794 0.0
C1916 C 0.33838 0.46932 0.89799 0.0
C1917 C 0.29988 0.5093 0.9042 0.0
H1918 H 0.36737 0.43278 0.88071 0.0
H1919 H 0.36922 0.4413 0.90317 0.0
S1920 S 0.19047 0.61345 0.88971 0.0
N1921 N 0.22183 0.5781 0.87799 0.0
N1922 N 0.22249 0.58582 0.90223 0.0
C1923 C 0.26089 0.54532 0.89716 0.0
C1924 C 0.26098 0.54154 0.88402 0.0
C1925 C 0.27092 0.48127 0.64766 0.0
C1926 C 0.2765 0.53852 0.65312 0.0
C1927 C 0.27417 0.47383 0.6348 0.0
C1928 C 0.28216 0.52336 0.62686 0.0
H1929 H 0.26299 0.44207 0.65336 0.0
H1930 H 0.27032 0.42902 0.63098 0.0
S1931 S 0.3068 0.68131 0.63626 0.0
N1932 N 0.29664 0.6449 0.64934 0.0
N1933 N 0.30028 0.63035 0.6253 0.0
C1934 C 0.28906 0.58037 0.63213 0.0
C1935 C 0.2868 0.58809 0.6452 0.0
loop_
_geom_bond_atom_site_label_1
_geom_bond_atom_site_label_2
_geom_bond_distance
_geom_bond_site_symmetry_2
_ccdc_geom_bond_type
Co0 N4 2.148 . S
Co0 N10 2.128 . S
Co0 N20 2.194 . S
Co0 O25 2.351 . S
Co0 O26 2.155 1_545 S
Co0 O27 2.096 1_545 S
C1 N4 1.301 . S
C1 N5 1.328 . S
C1 H6 0.930 . S
C2 C3 1.333 . S
C2 N4 1.317 1_565 S
C2 H7 0.930 . S
C3 C2 1.333 . S
C3 N5 1.350 1_565 S
C3 H29 0.931 . S
N4 Co0 2.148 . S
N4 C1 1.301 . S
N4 C2 1.317 1_545 S
N5 C1 1.328 . S
N5 C3 1.350 1_545 S
H6 C1 0.930 . S
H7 C2 0.930 . S
C8 O9 1.224 1_565 S
C8 O27 1.247 1_655 S
O9 C8 1.224 1_545 S
N10 Co0 2.128 . S
N10 C11 1.355 . S
N10 C13 1.311 1_545 S
C11 N10 1.355 . S
C11 C12 1.363 . S
C11 H23 0.929 . S
C12 C11 1.363 . S
C12 N14 1.375 1_545 S
C12 H30 0.931 . S
C13 N10 1.311 1_565 S
C13 N14 1.347 . S
C13 H24 0.929 . S
N14 C12 1.375 1_565 S
N14 C13 1.347 . S
C15 C18 1.365 . S
C15 N20 1.328 . S
C15 H21 0.929 . S
C16 C17 1.362 . S
C16 C19 1.378 . S
C16 H31 0.929 1_455 S
C17 C16 1.362 . S
C17 C18 1.366 . S
C18 C15 1.365 . S
C18 C17 1.366 . S
C18 H32 0.930 . S
C19 C16 1.378 . S
C19 N20 1.315 . S
C19 H22 0.930 1_455 S
N20 Co0 2.194 . S
N20 C15 1.328 . S
N20 C19 1.315 . S
H21 C15 0.929 . S
H22 C19 0.930 1_655 S
H23 C11 0.929 . S
H24 C13 0.929 . S
O25 Co0 2.351 . S
O25 C28 1.244 1_545 S
O26 Co0 2.155 1_565 S
O26 C28 1.240 . S
O27 Co0 2.096 1_565 S
O27 C8 1.247 1_455 S
C28 O25 1.244 1_565 S
C28 O26 1.240 . S
H29 C3 0.931 . S
H30 C12 0.931 . S
H31 C16 0.929 1_655 S
H32 C18 0.930 . S
Co33 N37 2.148 . S
Co33 N43 2.128 . S
Co33 N53 2.194 . S
Co33 O58 2.351 . S
Co33 O59 2.155 . S
Co33 O60 2.096 . S
C34 N37 1.301 . S
C34 N38 1.328 . S
C34 H39 0.930 . S
C35 C36 1.333 . S
C35 N37 1.317 . S
C35 H40 0.930 . S
C36 C35 1.333 . S
C36 N38 1.350 . S
C36 H62 0.931 . S
N37 Co33 2.148 . S
N37 C34 1.301 . S
N37 C35 1.317 . S
N38 C34 1.328 . S
N38 C36 1.350 . S
H39 C34 0.930 . S
H40 C35 0.930 . S
C41 O42 1.224 . S
C41 O60 1.247 . S
O42 C41 1.224 . S
N43 Co33 2.128 . S
N43 C44 1.355 . S
N43 C46 1.311 . S
C44 N43 1.355 . S
C44 C45 1.363 . S
C44 H56 0.929 . S
C45 C44 1.363 . S
C45 N47 1.375 . S
C45 H63 0.931 . S
C46 N43 1.311 . S
C46 N47 1.347 . S
C46 H57 0.929 . S
N47 C45 1.375 . S
N47 C46 1.347 . S
C48 C51 1.365 . S
C48 N53 1.328 . S
C48 H54 0.929 . S
C49 C50 1.362 . S
C49 C52 1.378 . S
C49 H64 0.929 . S
C50 C49 1.362 . S
C50 C51 1.366 . S
C51 C48 1.365 . S
C51 C50 1.366 . S
C51 H65 0.930 . S
C52 C49 1.378 . S
C52 N53 1.315 . S
C52 H55 0.930 . S
N53 Co33 2.194 . S
N53 C48 1.328 . S
N53 C52 1.315 . S
H54 C48 0.929 . S
H55 C52 0.930 . S
H56 C44 0.929 . S
H57 C46 0.929 . S
O58 Co33 2.351 . S
O58 C61 1.244 . S
O59 Co33 2.155 . S
O59 C61 1.240 . S
O60 Co33 2.096 . S
O60 C41 1.247 . S
C61 O58 1.244 . S
C61 O59 1.240 . S
H62 C36 0.931 . S
H63 C45 0.931 . S
H64 C49 0.929 . S
H65 C51 0.930 . S
Co66 N70 2.148 . S
Co66 N76 2.128 . S
Co66 N86 2.194 . S
Co66 O91 2.351 . S
Co66 O92 2.155 1_565 S
Co66 O93 2.096 1_565 S
C67 N70 1.301 . S
C67 N71 1.328 . S
C67 H72 0.930 . S
C68 C69 1.333 . S
C68 N70 1.317 1_545 S
C68 H73 0.930 . S
C69 C68 1.333 . S
C69 N71 1.350 1_545 S
C69 H95 0.931 . S
N70 Co66 2.148 . S
N70 C67 1.301 . S
N70 C68 1.317 1_565 S
N71 C67 1.328 . S
N71 C69 1.350 1_565 S
H72 C67 0.930 . S
H73 C68 0.930 . S
C74 O75 1.224 1_545 S
C74 O93 1.247 . S
O75 C74 1.224 1_565 S
N76 Co66 2.128 . S
N76 C77 1.355 . S
N76 C79 1.311 1_565 S
C77 N76 1.355 . S
C77 C78 1.363 . S
C77 H89 0.929 . S
C78 C77 1.363 . S
C78 N80 1.375 1_565 S
C78 H96 0.931 . S
C79 N76 1.311 1_545 S
C79 N80 1.347 . S
C79 H90 0.929 . S
N80 C78 1.375 1_545 S
N80 C79 1.347 . S
C81 C84 1.365 . S
C81 N86 1.328 . S
C81 H87 0.929 . S
C82 C83 1.362 . S
C82 C85 1.378 . S
C82 H97 0.929 . S
C83 C82 1.362 . S
C83 C84 1.366 . S
C84 C81 1.365 . S
C84 C83 1.366 . S
C84 H98 0.930 . S
C85 C82 1.378 . S
C85 N86 1.315 . S
C85 H88 0.930 . S
N86 Co66 2.194 . S
N86 C81 1.328 . S
N86 C85 1.315 . S
H87 C81 0.929 . S
H88 C85 0.930 . S
H89 C77 0.929 . S
H90 C79 0.929 . S
O91 Co66 2.351 . S
O91 C94 1.244 1_565 S
O92 Co66 2.155 1_545 S
O92 C94 1.240 . S
O93 Co66 2.096 1_545 S
O93 C74 1.247 . S
C94 O91 1.244 1_545 S
C94 O92 1.240 . S
H95 C69 0.931 . S
H96 C78 0.931 . S
H97 C82 0.929 . S
H98 C84 0.930 . S
Co99 N103 2.148 . S
Co99 N109 2.128 . S
Co99 N119 2.194 . S
Co99 O124 2.351 . S
Co99 O125 2.155 . S
Co99 O126 2.096 . S
C100 N103 1.301 . S
C100 N104 1.328 . S
C100 H105 0.930 . S
C101 C102 1.333 . S
C101 N103 1.317 . S
C101 H106 0.930 . S
C102 C101 1.333 . S
C102 N104 1.350 . S
C102 H128 0.931 . S
N103 Co99 2.148 . S
N103 C100 1.301 . S
N103 C101 1.317 . S
N104 C100 1.328 . S
N104 C102 1.350 . S
H105 C100 0.930 . S
H106 C101 0.930 . S
C107 O108 1.224 . S
C107 O126 1.247 . S
O108 C107 1.224 . S
N109 Co99 2.128 . S
N109 C110 1.355 . S
N109 C112 1.311 . S
C110 N109 1.355 . S
C110 C111 1.363 . S
C110 H122 0.929 . S
C111 C110 1.363 . S
C111 N113 1.375 . S
C111 H129 0.931 . S
C112 N109 1.311 . S
C112 N113 1.347 . S
C112 H123 0.929 . S
N113 C111 1.375 . S
N113 C112 1.347 . S
C114 C117 1.365 . S
C114 N119 1.328 . S
C114 H120 0.929 . S
C115 C116 1.362 . S
C115 C118 1.378 . S
C115 H130 0.929 . S
C116 C115 1.362 . S
C116 C117 1.366 . S
C117 C114 1.365 . S
C117 C116 1.366 . S
C117 H131 0.930 . S
C118 C115 1.378 . S
C118 N119 1.315 . S
C118 H121 0.930 . S
N119 Co99 2.194 . S
N119 C114 1.328 . S
N119 C118 1.315 . S
H120 C114 0.929 . S
H121 C118 0.930 . S
H122 C110 0.929 . S
H123 C112 0.929 . S
O124 Co99 2.351 . S
O124 C127 1.244 . S
O125 Co99 2.155 . S
O125 C127 1.240 . S
O126 Co99 2.096 . S
O126 C107 1.247 . S
C127 O124 1.244 . S
C127 O125 1.240 . S
H128 C102 0.931 . S
H129 C111 0.931 . S
H130 C115 0.929 . S
H131 C117 0.930 . S
Co132 N136 2.148 . S
Co132 N142 2.128 . S
Co132 N152 2.194 . S
Co132 O157 2.351 . S
Co132 O158 2.155 1_565 S
Co132 O159 2.096 1_565 S
C133 N136 1.301 . S
C133 N137 1.328 . S
C133 H138 0.930 . S
C134 C135 1.333 . S
C134 N136 1.317 1_545 S
C134 H139 0.930 . S
C135 C134 1.333 . S
C135 N137 1.350 1_545 S
C135 H161 0.931 . S
N136 Co132 2.148 . S
N136 C133 1.301 . S
N136 C134 1.317 1_565 S
N137 C133 1.328 . S
N137 C135 1.350 1_565 S
H138 C133 0.930 . S
H139 C134 0.930 . S
C140 O141 1.224 1_545 S
C140 O159 1.247 1_655 S
O141 C140 1.224 1_565 S
N142 Co132 2.128 . S
N142 C143 1.355 . S
N142 C145 1.311 1_565 S
C143 N142 1.355 . S
C143 C144 1.363 . S
C143 H155 0.929 . S
C144 C143 1.363 . S
C144 N146 1.375 1_565 S
C144 H162 0.931 . S
C145 N142 1.311 1_545 S
C145 N146 1.347 . S
C145 H156 0.929 . S
N146 C144 1.375 1_545 S
N146 C145 1.347 . S
C147 C150 1.365 . S
C147 N152 1.328 . S
C147 H153 0.929 . S
C148 C149 1.362 . S
C148 C151 1.378 . S
C148 H163 0.929 1_455 S
C149 C148 1.362 . S
C149 C150 1.366 . S
C150 C147 1.365 . S
C150 C149 1.366 . S
C150 H164 0.930 . S
C151 C148 1.378 . S
C151 N152 1.315 . S
C151 H154 0.930 1_455 S
N152 Co132 2.194 . S
N152 C147 1.328 . S
N152 C151 1.315 . S
H153 C147 0.929 . S
H154 C151 0.930 1_655 S
H155 C143 0.929 . S
H156 C145 0.929 . S
O157 Co132 2.351 . S
O157 C160 1.244 1_565 S
O158 Co132 2.155 1_545 S
O158 C160 1.240 . S
O159 Co132 2.096 1_545 S
O159 C140 1.247 1_455 S
C160 O157 1.244 1_545 S
C160 O158 1.240 . S
H161 C135 0.931 . S
H162 C144 0.931 . S
H163 C148 0.929 1_655 S
H164 C150 0.930 . S
Co165 N169 2.148 . S
Co165 N175 2.128 . S
Co165 N185 2.194 . S
Co165 O190 2.351 . S
Co165 O191 2.155 . S
Co165 O192 2.096 . S
C166 N169 1.301 . S
C166 N170 1.328 . S
C166 H171 0.930 . S
C167 C168 1.333 . S
C167 N169 1.317 . S
C167 H172 0.930 . S
C168 C167 1.333 . S
C168 N170 1.350 . S
C168 H194 0.931 . S
N169 Co165 2.148 . S
N169 C166 1.301 . S
N169 C167 1.317 . S
N170 C166 1.328 . S
N170 C168 1.350 . S
H171 C166 0.930 . S
H172 C167 0.930 . S
C173 O174 1.224 . S
C173 O192 1.247 . S
O174 C173 1.224 . S
N175 Co165 2.128 . S
N175 C176 1.355 . S
N175 C178 1.311 . S
C176 N175 1.355 . S
C176 C177 1.363 . S
C176 H188 0.929 . S
C177 C176 1.363 . S
C177 N179 1.375 . S
C177 H195 0.931 . S
C178 N175 1.311 . S
C178 N179 1.347 . S
C178 H189 0.929 . S
N179 C177 1.375 . S
N179 C178 1.347 . S
C180 C183 1.365 . S
C180 N185 1.328 . S
C180 H186 0.929 . S
C181 C182 1.362 . S
C181 C184 1.378 . S
C181 H196 0.929 . S
C182 C181 1.362 . S
C182 C183 1.366 . S
C183 C180 1.365 . S
C183 C182 1.366 . S
C183 H197 0.930 . S
C184 C181 1.378 . S
C184 N185 1.315 . S
C184 H187 0.930 . S
N185 Co165 2.194 . S
N185 C180 1.328 . S
N185 C184 1.315 . S
H186 C180 0.929 . S
H187 C184 0.930 . S
H188 C176 0.929 . S
H189 C178 0.929 . S
O190 Co165 2.351 . S
O190 C193 1.244 . S
O191 Co165 2.155 . S
O191 C193 1.240 . S
O192 Co165 2.096 . S
O192 C173 1.247 . S
C193 O190 1.244 . S
C193 O191 1.240 . S
H194 C168 0.931 . S
H195 C177 0.931 . S
H196 C181 0.929 . S
H197 C183 0.930 . S
Co198 N202 2.148 . S
Co198 N208 2.128 . S
Co198 N218 2.194 . S
Co198 O223 2.351 . S
Co198 O224 2.155 1_545 S
Co198 O225 2.096 1_545 S
C199 N202 1.301 . S
C199 N203 1.328 . S
C199 H204 0.930 . S
C200 C201 1.333 . S
C200 N202 1.317 1_565 S
C200 H205 0.930 . S
C201 C200 1.333 . S
C201 N203 1.350 1_565 S
C201 H227 0.931 . S
N202 Co198 2.148 . S
N202 C199 1.301 . S
N202 C200 1.317 1_545 S
N203 C199 1.328 . S
N203 C201 1.350 1_545 S
H204 C199 0.930 . S
H205 C200 0.930 . S
C206 O207 1.224 1_565 S
C206 O225 1.247 . S
O207 C206 1.224 1_545 S
N208 Co198 2.128 . S
N208 C209 1.355 . S
N208 C211 1.311 1_545 S
C209 N208 1.355 . S
C209 C210 1.363 . S
C209 H221 0.929 . S
C210 C209 1.363 . S
C210 N212 1.375 1_545 S
C210 H228 0.931 . S
C211 N208 1.311 1_565 S
C211 N212 1.347 . S
C211 H222 0.929 . S
N212 C210 1.375 1_565 S
N212 C211 1.347 . S
C213 C216 1.365 . S
C213 N218 1.328 . S
C213 H219 0.929 . S
C214 C215 1.362 . S
C214 C217 1.378 . S
C214 H229 0.929 . S
C215 C214 1.362 . S
C215 C216 1.366 . S
C216 C213 1.365 . S
C216 C215 1.366 . S
C216 H230 0.930 . S
C217 C214 1.378 . S
C217 N218 1.315 . S
C217 H220 0.930 . S
N218 Co198 2.194 . S
N218 C213 1.328 . S
N218 C217 1.315 . S
H219 C213 0.929 . S
H220 C217 0.930 . S
H221 C209 0.929 . S
H222 C211 0.929 . S
O223 Co198 2.351 . S
O223 C226 1.244 1_545 S
O224 Co198 2.155 1_565 S
O224 C226 1.240 . S
O225 Co198 2.096 1_565 S
O225 C206 1.247 . S
C226 O223 1.244 1_565 S
C226 O224 1.240 . S
H227 C201 0.931 . S
H228 C210 0.931 . S
H229 C214 0.929 . S
H230 C216 0.930 . S
Co231 N235 2.148 . S
Co231 N241 2.128 . S
Co231 N251 2.194 . S
Co231 O256 2.351 . S
Co231 O257 2.155 . S
Co231 O258 2.096 . S
C232 N235 1.301 . S
C232 N236 1.328 . S
C232 H237 0.930 . S
C233 C234 1.333 . S
C233 N235 1.317 . S
C233 H238 0.930 . S
C234 C233 1.333 . S
C234 N236 1.350 . S
C234 H260 0.931 . S
N235 Co231 2.148 . S
N235 C232 1.301 . S
N235 C233 1.317 . S
N236 C232 1.328 . S
N236 C234 1.350 . S
H237 C232 0.930 . S
H238 C233 0.930 . S
C239 O240 1.224 . S
C239 O258 1.247 . S
O240 C239 1.224 . S
N241 Co231 2.128 . S
N241 C242 1.355 . S
N241 C244 1.311 . S
C242 N241 1.355 . S
C242 C243 1.363 . S
C242 H254 0.929 . S
C243 C242 1.363 . S
C243 N245 1.375 . S
C243 H261 0.931 . S
C244 N241 1.311 . S
C244 N245 1.347 . S
C244 H255 0.929 . S
N245 C243 1.375 . S
N245 C244 1.347 . S
C246 C249 1.365 . S
C246 N251 1.328 . S
C246 H252 0.929 . S
C247 C248 1.362 . S
C247 C250 1.378 . S
C247 H262 0.929 . S
C248 C247 1.362 . S
C248 C249 1.366 . S
C249 C246 1.365 . S
C249 C248 1.366 . S
C249 H263 0.930 . S
C250 C247 1.378 . S
C250 N251 1.315 . S
C250 H253 0.930 . S
N251 Co231 2.194 . S
N251 C246 1.328 . S
N251 C250 1.315 . S
H252 C246 0.929 . S
H253 C250 0.930 . S
H254 C242 0.929 . S
H255 C244 0.929 . S
O256 Co231 2.351 . S
O256 C259 1.244 . S
O257 Co231 2.155 . S
O257 C259 1.240 . S
O258 Co231 2.096 . S
O258 C239 1.247 . S
C259 O256 1.244 . S
C259 O257 1.240 . S
H260 C234 0.931 . S
H261 C243 0.931 . S
H262 C247 0.929 . S
H263 C249 0.930 . S
Co264 N268 2.148 . S
Co264 N274 2.128 . S
Co264 N284 2.194 . S
Co264 O289 2.351 . S
Co264 O290 2.155 1_565 S
Co264 O291 2.096 1_565 S
C265 N268 1.301 . S
C265 N269 1.328 . S
C265 H270 0.930 . S
C266 C267 1.333 . S
C266 N268 1.317 1_545 S
C266 H271 0.930 . S
C267 C266 1.333 . S
C267 N269 1.350 1_545 S
C267 H293 0.931 . S
N268 Co264 2.148 . S
N268 C265 1.301 . S
N268 C266 1.317 1_565 S
N269 C265 1.328 . S
N269 C267 1.350 1_565 S
H270 C265 0.930 . S
H271 C266 0.930 . S
C272 O273 1.224 1_545 S
C272 O291 1.247 1_455 S
O273 C272 1.224 1_565 S
N274 Co264 2.128 . S
N274 C275 1.355 . S
N274 C277 1.311 1_565 S
C275 N274 1.355 . S
C275 C276 1.363 . S
C275 H287 0.929 . S
C276 C275 1.363 . S
C276 N278 1.375 1_565 S
C276 H294 0.931 . S
C277 N274 1.311 1_545 S
C277 N278 1.347 . S
C277 H288 0.929 . S
N278 C276 1.375 1_545 S
N278 C277 1.347 . S
C279 C282 1.365 . S
C279 N284 1.328 . S
C279 H285 0.929 . S
C280 C281 1.362 . S
C280 C283 1.378 . S
C280 H295 0.929 1_655 S
C281 C280 1.362 . S
C281 C282 1.366 . S
C282 C279 1.365 . S
C282 C281 1.366 . S
C282 H296 0.930 . S
C283 C280 1.378 . S
C283 N284 1.315 . S
C283 H286 0.930 1_655 S
N284 Co264 2.194 . S
N284 C279 1.328 . S
N284 C283 1.315 . S
H285 C279 0.929 . S
H286 C283 0.930 1_455 S
H287 C275 0.929 . S
H288 C277 0.929 . S
O289 Co264 2.351 . S
O289 C292 1.244 1_565 S
O290 Co264 2.155 1_545 S
O290 C292 1.240 . S
O291 Co264 2.096 1_545 S
O291 C272 1.247 1_655 S
C292 O289 1.244 1_545 S
C292 O290 1.240 . S
H293 C267 0.931 . S
H294 C276 0.931 . S
H295 C280 0.929 1_455 S
H296 C282 0.930 . S
Co297 N301 2.148 . S
Co297 N307 2.128 . S
Co297 N317 2.194 . S
Co297 O322 2.351 . S
Co297 O323 2.155 . S
Co297 O324 2.096 . S
C298 N301 1.301 . S
C298 N302 1.328 . S
C298 H303 0.930 . S
C299 C300 1.333 . S
C299 N301 1.317 . S
C299 H304 0.930 . S
C300 C299 1.333 . S
C300 N302 1.350 . S
C300 H326 0.931 . S
N301 Co297 2.148 . S
N301 C298 1.301 . S
N301 C299 1.317 . S
N302 C298 1.328 . S
N302 C300 1.350 . S
H303 C298 0.930 . S
H304 C299 0.930 . S
C305 O306 1.224 . S
C305 O324 1.247 . S
O306 C305 1.224 . S
N307 Co297 2.128 . S
N307 C308 1.355 . S
N307 C310 1.311 . S
C308 N307 1.355 . S
C308 C309 1.363 . S
C308 H320 0.929 . S
C309 C308 1.363 . S
C309 N311 1.375 . S
C309 H327 0.931 . S
C310 N307 1.311 . S
C310 N311 1.347 . S
C310 H321 0.929 . S
N311 C309 1.375 . S
N311 C310 1.347 . S
C312 C315 1.365 . S
C312 N317 1.328 . S
C312 H318 0.929 . S
C313 C314 1.362 . S
C313 C316 1.378 . S
C313 H328 0.929 . S
C314 C313 1.362 . S
C314 C315 1.366 . S
C315 C312 1.365 . S
C315 C314 1.366 . S
C315 H329 0.930 . S
C316 C313 1.378 . S
C316 N317 1.315 . S
C316 H319 0.930 . S
N317 Co297 2.194 . S
N317 C312 1.328 . S
N317 C316 1.315 . S
H318 C312 0.929 . S
H319 C316 0.930 . S
H320 C308 0.929 . S
H321 C310 0.929 . S
O322 Co297 2.351 . S
O322 C325 1.244 . S
O323 Co297 2.155 . S
O323 C325 1.240 . S
O324 Co297 2.096 . S
O324 C305 1.247 . S
C325 O322 1.244 . S
C325 O323 1.240 . S
H326 C300 0.931 . S
H327 C309 0.931 . S
H328 C313 0.929 . S
H329 C315 0.930 . S
Co330 N334 2.148 . S
Co330 N340 2.128 . S
Co330 N350 2.194 . S
Co330 O355 2.351 . S
Co330 O356 2.155 1_545 S
Co330 O357 2.096 1_545 S
C331 N334 1.301 . S
C331 N335 1.328 . S
C331 H336 0.930 . S
C332 C333 1.333 . S
C332 N334 1.317 1_565 S
C332 H337 0.930 . S
C333 C332 1.333 . S
C333 N335 1.350 1_565 S
C333 H359 0.931 . S
N334 Co330 2.148 . S
N334 C331 1.301 . S
N334 C332 1.317 1_545 S
N335 C331 1.328 . S
N335 C333 1.350 1_545 S
H336 C331 0.930 . S
H337 C332 0.930 . S
C338 O339 1.224 1_565 S
C338 O357 1.247 . S
O339 C338 1.224 1_545 S
N340 Co330 2.128 . S
N340 C341 1.355 . S
N340 C343 1.311 1_545 S
C341 N340 1.355 . S
C341 C342 1.363 . S
C341 H353 0.929 . S
C342 C341 1.363 . S
C342 N344 1.375 1_545 S
C342 H360 0.931 . S
C343 N340 1.311 1_565 S
C343 N344 1.347 . S
C343 H354 0.929 . S
N344 C342 1.375 1_565 S
N344 C343 1.347 . S
C345 C348 1.365 . S
C345 N350 1.328 . S
C345 H351 0.929 . S
C346 C347 1.362 . S
C346 C349 1.378 . S
C346 H361 0.929 . S
C347 C346 1.362 . S
C347 C348 1.366 . S
C348 C345 1.365 . S
C348 C347 1.366 . S
C348 H362 0.930 . S
C349 C346 1.378 . S
C349 N350 1.315 . S
C349 H352 0.930 . S
N350 Co330 2.194 . S
N350 C345 1.328 . S
N350 C349 1.315 . S
H351 C345 0.929 . S
H352 C349 0.930 . S
H353 C341 0.929 . S
H354 C343 0.929 . S
O355 Co330 2.351 . S
O355 C358 1.244 1_545 S
O356 Co330 2.155 1_565 S
O356 C358 1.240 . S
O357 Co330 2.096 1_565 S
O357 C338 1.247 . S
C358 O355 1.244 1_565 S
C358 O356 1.240 . S
H359 C333 0.931 . S
H360 C342 0.931 . S
H361 C346 0.929 . S
H362 C348 0.930 . S
Co363 N367 2.148 . S
Co363 N373 2.128 . S
Co363 N383 2.194 . S
Co363 O388 2.351 . S
Co363 O389 2.155 . S
Co363 O390 2.096 . S
C364 N367 1.301 . S
C364 N368 1.328 . S
C364 H369 0.930 . S
C365 C366 1.333 . S
C365 N367 1.317 . S
C365 H370 0.930 . S
C366 C365 1.333 . S
C366 N368 1.350 . S
C366 H392 0.931 . S
N367 Co363 2.148 . S
N367 C364 1.301 . S
N367 C365 1.317 . S
N368 C364 1.328 . S
N368 C366 1.350 . S
H369 C364 0.930 . S
H370 C365 0.930 . S
C371 O372 1.224 . S
C371 O390 1.247 . S
O372 C371 1.224 . S
N373 Co363 2.128 . S
N373 C374 1.355 . S
N373 C376 1.311 . S
C374 N373 1.355 . S
C374 C375 1.363 . S
C374 H386 0.929 . S
C375 C374 1.363 . S
C375 N377 1.375 . S
C375 H393 0.931 . S
C376 N373 1.311 . S
C376 N377 1.347 . S
C376 H387 0.929 . S
N377 C375 1.375 . S
N377 C376 1.347 . S
C378 C381 1.365 . S
C378 N383 1.328 . S
C378 H384 0.929 . S
C379 C380 1.362 . S
C379 C382 1.378 . S
C379 H394 0.929 . S
C380 C379 1.362 . S
C380 C381 1.366 . S
C381 C378 1.365 . S
C381 C380 1.366 . S
C381 H395 0.930 . S
C382 C379 1.378 . S
C382 N383 1.315 . S
C382 H385 0.930 . S
N383 Co363 2.194 . S
N383 C378 1.328 . S
N383 C382 1.315 . S
H384 C378 0.929 . S
H385 C382 0.930 . S
H386 C374 0.929 . S
H387 C376 0.929 . S
O388 Co363 2.351 . S
O388 C391 1.244 . S
O389 Co363 2.155 . S
O389 C391 1.240 . S
O390 Co363 2.096 . S
O390 C371 1.247 . S
C391 O388 1.244 . S
C391 O389 1.240 . S
H392 C366 0.931 . S
H393 C375 0.931 . S
H394 C379 0.929 . S
H395 C381 0.930 . S
Co396 N400 2.148 . S
Co396 N406 2.128 . S
Co396 N416 2.194 . S
Co396 O421 2.351 . S
Co396 O422 2.155 1_545 S
Co396 O423 2.096 1_545 S
C397 N400 1.301 . S
C397 N401 1.328 . S
C397 H402 0.930 . S
C398 C399 1.333 . S
C398 N400 1.317 1_565 S
C398 H403 0.930 . S
C399 C398 1.333 . S
C399 N401 1.350 1_565 S
C399 H425 0.931 . S
N400 Co396 2.148 . S
N400 C397 1.301 . S
N400 C398 1.317 1_545 S
N401 C397 1.328 . S
N401 C399 1.350 1_545 S
H402 C397 0.930 . S
H403 C398 0.930 . S
C404 O405 1.224 1_565 S
C404 O423 1.247 1_455 S
O405 C404 1.224 1_545 S
N406 Co396 2.128 . S
N406 C407 1.355 . S
N406 C409 1.311 1_545 S
C407 N406 1.355 . S
C407 C408 1.363 . S
C407 H419 0.929 . S
C408 C407 1.363 . S
C408 N410 1.375 1_545 S
C408 H426 0.931 . S
C409 N406 1.311 1_565 S
C409 N410 1.347 . S
C409 H420 0.929 . S
N410 C408 1.375 1_565 S
N410 C409 1.347 . S
C411 C414 1.365 . S
C411 N416 1.328 . S
C411 H417 0.929 . S
C412 C413 1.362 . S
C412 C415 1.378 . S
C412 H427 0.929 1_655 S
C413 C412 1.362 . S
C413 C414 1.366 . S
C414 C411 1.365 . S
C414 C413 1.366 . S
C414 H428 0.930 . S
C415 C412 1.378 . S
C415 N416 1.315 . S
C415 H418 0.930 1_655 S
N416 Co396 2.194 . S
N416 C411 1.328 . S
N416 C415 1.315 . S
H417 C411 0.929 . S
H418 C415 0.930 1_455 S
H419 C407 0.929 . S
H420 C409 0.929 . S
O421 Co396 2.351 . S
O421 C424 1.244 1_545 S
O422 Co396 2.155 1_565 S
O422 C424 1.240 . S
O423 Co396 2.096 1_565 S
O423 C404 1.247 1_655 S
C424 O421 1.244 1_565 S
C424 O422 1.240 . S
H425 C399 0.931 . S
H426 C408 0.931 . S
H427 C412 0.929 1_455 S
H428 C414 0.930 . S
Co429 N433 2.148 . S
Co429 N439 2.128 . S
Co429 N449 2.194 . S
Co429 O454 2.351 . S
Co429 O455 2.155 . S
Co429 O456 2.096 . S
C430 N433 1.301 . S
C430 N434 1.328 . S
C430 H435 0.930 . S
C431 C432 1.333 . S
C431 N433 1.317 . S
C431 H436 0.930 . S
C432 C431 1.333 . S
C432 N434 1.350 . S
C432 H458 0.931 . S
N433 Co429 2.148 . S
N433 C430 1.301 . S
N433 C431 1.317 . S
N434 C430 1.328 . S
N434 C432 1.350 . S
H435 C430 0.930 . S
H436 C431 0.930 . S
C437 O438 1.224 . S
C437 O456 1.247 . S
O438 C437 1.224 . S
N439 Co429 2.128 . S
N439 C440 1.355 . S
N439 C442 1.311 . S
C440 N439 1.355 . S
C440 C441 1.363 . S
C440 H452 0.929 . S
C441 C440 1.363 . S
C441 N443 1.375 . S
C441 H459 0.931 . S
C442 N439 1.311 . S
C442 N443 1.347 . S
C442 H453 0.929 . S
N443 C441 1.375 . S
N443 C442 1.347 . S
C444 C447 1.365 . S
C444 N449 1.328 . S
C444 H450 0.929 . S
C445 C446 1.362 . S
C445 C448 1.378 . S
C445 H460 0.929 . S
C446 C445 1.362 . S
C446 C447 1.366 . S
C447 C444 1.365 . S
C447 C446 1.366 . S
C447 H461 0.930 . S
C448 C445 1.378 . S
C448 N449 1.315 . S
C448 H451 0.930 . S
N449 Co429 2.194 . S
N449 C444 1.328 . S
N449 C448 1.315 . S
H450 C444 0.929 . S
H451 C448 0.930 . S
H452 C440 0.929 . S
H453 C442 0.929 . S
O454 Co429 2.351 . S
O454 C457 1.244 . S
O455 Co429 2.155 . S
O455 C457 1.240 . S
O456 Co429 2.096 . S
O456 C437 1.247 . S
C457 O454 1.244 . S
C457 O455 1.240 . S
H458 C432 0.931 . S
H459 C441 0.931 . S
H460 C445 0.929 . S
H461 C447 0.930 . S
Co462 N466 2.148 . S
Co462 N472 2.128 . S
Co462 N482 2.194 . S
Co462 O487 2.351 . S
Co462 O488 2.155 1_565 S
Co462 O489 2.096 1_565 S
C463 N466 1.301 . S
C463 N467 1.328 . S
C463 H468 0.930 . S
C464 C465 1.333 . S
C464 N466 1.317 1_545 S
C464 H469 0.930 . S
C465 C464 1.333 . S
C465 N467 1.350 1_545 S
C465 H491 0.931 . S
N466 Co462 2.148 . S
N466 C463 1.301 . S
N466 C464 1.317 1_565 S
N467 C463 1.328 . S
N467 C465 1.350 1_565 S
H468 C463 0.930 . S
H469 C464 0.930 . S
C470 O471 1.224 1_545 S
C470 O489 1.247 . S
O471 C470 1.224 1_565 S
N472 Co462 2.128 . S
N472 C473 1.355 . S
N472 C475 1.311 1_565 S
C473 N472 1.355 . S
C473 C474 1.363 . S
C473 H485 0.929 . S
C474 C473 1.363 . S
C474 N476 1.375 1_565 S
C474 H492 0.931 . S
C475 N472 1.311 1_545 S
C475 N476 1.347 . S
C475 H486 0.929 . S
N476 C474 1.375 1_545 S
N476 C475 1.347 . S
C477 C480 1.365 . S
C477 N482 1.328 . S
C477 H483 0.929 . S
C478 C479 1.362 . S
C478 C481 1.378 . S
C478 H493 0.929 . S
C479 C478 1.362 . S
C479 C480 1.366 . S
C480 C477 1.365 . S
C480 C479 1.366 . S
C480 H494 0.930 . S
C481 C478 1.378 . S
C481 N482 1.315 . S
C481 H484 0.930 . S
N482 Co462 2.194 . S
N482 C477 1.328 . S
N482 C481 1.315 . S
H483 C477 0.929 . S
H484 C481 0.930 . S
H485 C473 0.929 . S
H486 C475 0.929 . S
O487 Co462 2.351 . S
O487 C490 1.244 1_565 S
O488 Co462 2.155 1_545 S
O488 C490 1.240 . S
O489 Co462 2.096 1_545 S
O489 C470 1.247 . S
C490 O487 1.244 1_545 S
C490 O488 1.240 . S
H491 C465 0.931 . S
H492 C474 0.931 . S
H493 C478 0.929 . S
H494 C480 0.930 . S
Co495 N499 2.148 . S
Co495 N505 2.128 . S
Co495 N515 2.194 . S
Co495 O520 2.351 . S
Co495 O521 2.155 . S
Co495 O522 2.096 . S
C496 N499 1.301 . S
C496 N500 1.328 . S
C496 H501 0.930 . S
C497 C498 1.333 . S
C497 N499 1.317 . S
C497 H502 0.930 . S
C498 C497 1.333 . S
C498 N500 1.350 . S
C498 H524 0.931 . S
N499 Co495 2.148 . S
N499 C496 1.301 . S
N499 C497 1.317 . S
N500 C496 1.328 . S
N500 C498 1.350 . S
H501 C496 0.930 . S
H502 C497 0.930 . S
C503 O504 1.224 . S
C503 O522 1.247 . S
O504 C503 1.224 . S
N505 Co495 2.128 . S
N505 C506 1.355 . S
N505 C508 1.311 . S
C506 N505 1.355 . S
C506 C507 1.363 . S
C506 H518 0.929 . S
C507 C506 1.363 . S
C507 N509 1.375 . S
C507 H525 0.931 . S
C508 N505 1.311 . S
C508 N509 1.347 . S
C508 H519 0.929 . S
N509 C507 1.375 . S
N509 C508 1.347 . S
C510 C513 1.365 . S
C510 N515 1.328 . S
C510 H516 0.929 . S
C511 C512 1.362 . S
C511 C514 1.378 . S
C511 H526 0.929 . S
C512 C511 1.362 . S
C512 C513 1.366 . S
C513 C510 1.365 . S
C513 C512 1.366 . S
C513 H527 0.930 . S
C514 C511 1.378 . S
C514 N515 1.315 . S
C514 H517 0.930 . S
N515 Co495 2.194 . S
N515 C510 1.328 . S
N515 C514 1.315 . S
H516 C510 0.929 . S
H517 C514 0.930 . S
H518 C506 0.929 . S
H519 C508 0.929 . S
O520 Co495 2.351 . S
O520 C523 1.244 . S
O521 Co495 2.155 . S
O521 C523 1.240 . S
O522 Co495 2.096 . S
O522 C503 1.247 . S
C523 O520 1.244 . S
C523 O521 1.240 . S
H524 C498 0.931 . S
H525 C507 0.931 . S
H526 C511 0.929 . S
H527 C513 0.930 . S
Co528 N532 2.148 . S
Co528 N538 2.128 . S
Co528 N548 2.194 . S
Co528 O553 2.351 . S
Co528 O554 2.155 . S
Co528 O555 2.096 . S
C529 N532 1.301 . S
C529 N533 1.328 . S
C529 H534 0.930 . S
C530 C531 1.333 . S
C530 N532 1.317 . S
C530 H535 0.930 . S
C531 C530 1.333 . S
C531 N533 1.350 . S
C531 H557 0.931 . S
N532 Co528 2.148 . S
N532 C529 1.301 . S
N532 C530 1.317 . S
N533 C529 1.328 . S
N533 C531 1.350 . S
H534 C529 0.930 . S
H535 C530 0.930 . S
C536 O537 1.224 . S
C536 O555 1.247 . S
O537 C536 1.224 . S
N538 Co528 2.128 . S
N538 C539 1.355 . S
N538 C541 1.311 . S
C539 N538 1.355 . S
C539 C540 1.363 . S
C539 H551 0.929 . S
C540 C539 1.363 . S
C540 N542 1.375 . S
C540 H558 0.931 . S
C541 N538 1.311 . S
C541 N542 1.347 . S
C541 H552 0.929 . S
N542 C540 1.375 . S
N542 C541 1.347 . S
C543 C546 1.365 . S
C543 N548 1.328 . S
C543 H549 0.929 . S
C544 C545 1.362 . S
C544 C547 1.378 . S
C544 H559 0.929 . S
C545 C544 1.362 . S
C545 C546 1.366 . S
C546 C543 1.365 . S
C546 C545 1.366 . S
C546 H560 0.930 . S
C547 C544 1.378 . S
C547 N548 1.315 . S
C547 H550 0.930 . S
N548 Co528 2.194 . S
N548 C543 1.328 . S
N548 C547 1.315 . S
H549 C543 0.929 . S
H550 C547 0.930 . S
H551 C539 0.929 . S
H552 C541 0.929 . S
O553 Co528 2.351 . S
O553 C556 1.244 . S
O554 Co528 2.155 . S
O554 C556 1.240 . S
O555 Co528 2.096 . S
O555 C536 1.247 . S
C556 O553 1.244 . S
C556 O554 1.240 . S
H557 C531 0.931 . S
H558 C540 0.931 . S
H559 C544 0.929 . S
H560 C546 0.930 . S
Co561 N565 2.148 . S
Co561 N571 2.128 . S
Co561 N581 2.194 . S
Co561 O586 2.351 . S
Co561 O587 2.155 . S
Co561 O588 2.096 . S
C562 N565 1.301 . S
C562 N566 1.328 . S
C562 H567 0.930 . S
C563 C564 1.333 . S
C563 N565 1.317 . S
C563 H568 0.930 . S
C564 C563 1.333 . S
C564 N566 1.350 . S
C564 H590 0.931 . S
N565 Co561 2.148 . S
N565 C562 1.301 . S
N565 C563 1.317 . S
N566 C562 1.328 . S
N566 C564 1.350 . S
H567 C562 0.930 . S
H568 C563 0.930 . S
C569 O570 1.224 . S
C569 O588 1.247 . S
O570 C569 1.224 . S
N571 Co561 2.128 . S
N571 C572 1.355 . S
N571 C574 1.311 . S
C572 N571 1.355 . S
C572 C573 1.363 . S
C572 H584 0.929 . S
C573 C572 1.363 . S
C573 N575 1.375 . S
C573 H591 0.931 . S
C574 N571 1.311 . S
C574 N575 1.347 . S
C574 H585 0.929 . S
N575 C573 1.375 . S
N575 C574 1.347 . S
C576 C579 1.365 . S
C576 N581 1.328 . S
C576 H582 0.929 . S
C577 C578 1.362 . S
C577 C580 1.378 . S
C577 H592 0.929 . S
C578 C577 1.362 . S
C578 C579 1.366 . S
C579 C576 1.365 . S
C579 C578 1.366 . S
C579 H593 0.930 . S
C580 C577 1.378 . S
C580 N581 1.315 . S
C580 H583 0.930 . S
N581 Co561 2.194 . S
N581 C576 1.328 . S
N581 C580 1.315 . S
H582 C576 0.929 . S
H583 C580 0.930 . S
H584 C572 0.929 . S
H585 C574 0.929 . S
O586 Co561 2.351 . S
O586 C589 1.244 . S
O587 Co561 2.155 . S
O587 C589 1.240 . S
O588 Co561 2.096 . S
O588 C569 1.247 . S
C589 O586 1.244 . S
C589 O587 1.240 . S
H590 C564 0.931 . S
H591 C573 0.931 . S
H592 C577 0.929 . S
H593 C579 0.930 . S
Co594 N598 2.148 . S
Co594 N604 2.128 . S
Co594 N614 2.194 . S
Co594 O619 2.351 . S
Co594 O620 2.155 . S
Co594 O621 2.096 . S
C595 N598 1.301 . S
C595 N599 1.328 . S
C595 H600 0.930 . S
C596 C597 1.333 . S
C596 N598 1.317 . S
C596 H601 0.930 . S
C597 C596 1.333 . S
C597 N599 1.350 . S
C597 H623 0.931 . S
N598 Co594 2.148 . S
N598 C595 1.301 . S
N598 C596 1.317 . S
N599 C595 1.328 . S
N599 C597 1.350 . S
H600 C595 0.930 . S
H601 C596 0.930 . S
C602 O603 1.224 . S
C602 O621 1.247 1_455 S
O603 C602 1.224 . S
N604 Co594 2.128 . S
N604 C605 1.355 . S
N604 C607 1.311 . S
C605 N604 1.355 . S
C605 C606 1.363 . S
C605 H617 0.929 . S
C606 C605 1.363 . S
C606 N608 1.375 . S
C606 H624 0.931 . S
C607 N604 1.311 . S
C607 N608 1.347 . S
C607 H618 0.929 . S
N608 C606 1.375 . S
N608 C607 1.347 . S
C609 C612 1.365 . S
C609 N614 1.328 . S
C609 H615 0.929 . S
C610 C611 1.362 . S
C610 C613 1.378 . S
C610 H625 0.929 1_655 S
C611 C610 1.362 . S
C611 C612 1.366 . S
C612 C609 1.365 . S
C612 C611 1.366 . S
C612 H626 0.930 . S
C613 C610 1.378 . S
C613 N614 1.315 . S
C613 H616 0.930 1_655 S
N614 Co594 2.194 . S
N614 C609 1.328 . S
N614 C613 1.315 . S
H615 C609 0.929 . S
H616 C613 0.930 1_455 S
H617 C605 0.929 . S
H618 C607 0.929 . S
O619 Co594 2.351 . S
O619 C622 1.244 . S
O620 Co594 2.155 . S
O620 C622 1.240 . S
O621 Co594 2.096 . S
O621 C602 1.247 1_655 S
C622 O619 1.244 . S
C622 O620 1.240 . S
H623 C597 0.931 . S
H624 C606 0.931 . S
H625 C610 0.929 1_455 S
H626 C612 0.930 . S
Co627 N631 2.148 . S
Co627 N637 2.128 . S
Co627 N647 2.194 . S
Co627 O652 2.351 . S
Co627 O653 2.155 . S
Co627 O654 2.096 . S
C628 N631 1.301 . S
C628 N632 1.328 . S
C628 H633 0.930 . S
C629 C630 1.333 . S
C629 N631 1.317 . S
C629 H634 0.930 . S
C630 C629 1.333 . S
C630 N632 1.350 . S
C630 H656 0.931 . S
N631 Co627 2.148 . S
N631 C628 1.301 . S
N631 C629 1.317 . S
N632 C628 1.328 . S
N632 C630 1.350 . S
H633 C628 0.930 . S
H634 C629 0.930 . S
C635 O636 1.224 . S
C635 O654 1.247 . S
O636 C635 1.224 . S
N637 Co627 2.128 . S
N637 C638 1.355 . S
N637 C640 1.311 . S
C638 N637 1.355 . S
C638 C639 1.363 . S
C638 H650 0.929 . S
C639 C638 1.363 . S
C639 N641 1.375 . S
C639 H657 0.931 . S
C640 N637 1.311 . S
C640 N641 1.347 . S
C640 H651 0.929 . S
N641 C639 1.375 . S
N641 C640 1.347 . S
C642 C645 1.365 . S
C642 N647 1.328 . S
C642 H648 0.929 . S
C643 C644 1.362 . S
C643 C646 1.378 . S
C643 H658 0.929 . S
C644 C643 1.362 . S
C644 C645 1.366 . S
C645 C642 1.365 . S
C645 C644 1.366 . S
C645 H659 0.930 . S
C646 C643 1.378 . S
C646 N647 1.315 . S
C646 H649 0.930 . S
N647 Co627 2.194 . S
N647 C642 1.328 . S
N647 C646 1.315 . S
H648 C642 0.929 . S
H649 C646 0.930 . S
H650 C638 0.929 . S
H651 C640 0.929 . S
O652 Co627 2.351 . S
O652 C655 1.244 . S
O653 Co627 2.155 . S
O653 C655 1.240 . S
O654 Co627 2.096 . S
O654 C635 1.247 . S
C655 O652 1.244 . S
C655 O653 1.240 . S
H656 C630 0.931 . S
H657 C639 0.931 . S
H658 C643 0.929 . S
H659 C645 0.930 . S
Co660 N664 2.148 . S
Co660 N670 2.128 . S
Co660 N680 2.194 . S
Co660 O685 2.351 . S
Co660 O686 2.155 . S
Co660 O687 2.096 . S
C661 N664 1.301 . S
C661 N665 1.328 . S
C661 H666 0.930 . S
C662 C663 1.333 . S
C662 N664 1.317 . S
C662 H667 0.930 . S
C663 C662 1.333 . S
C663 N665 1.350 . S
C663 H689 0.931 . S
N664 Co660 2.148 . S
N664 C661 1.301 . S
N664 C662 1.317 . S
N665 C661 1.328 . S
N665 C663 1.350 . S
H666 C661 0.930 . S
H667 C662 0.930 . S
C668 O669 1.224 . S
C668 O687 1.247 . S
O669 C668 1.224 . S
N670 Co660 2.128 . S
N670 C671 1.355 . S
N670 C673 1.311 . S
C671 N670 1.355 . S
C671 C672 1.363 . S
C671 H683 0.929 . S
C672 C671 1.363 . S
C672 N674 1.375 . S
C672 H690 0.931 . S
C673 N670 1.311 . S
C673 N674 1.347 . S
C673 H684 0.929 . S
N674 C672 1.375 . S
N674 C673 1.347 . S
C675 C678 1.365 . S
C675 N680 1.328 . S
C675 H681 0.929 . S
C676 C677 1.362 . S
C676 C679 1.378 . S
C676 H691 0.929 . S
C677 C676 1.362 . S
C677 C678 1.366 . S
C678 C675 1.365 . S
C678 C677 1.366 . S
C678 H692 0.930 . S
C679 C676 1.378 . S
C679 N680 1.315 . S
C679 H682 0.930 . S
N680 Co660 2.194 . S
N680 C675 1.328 . S
N680 C679 1.315 . S
H681 C675 0.929 . S
H682 C679 0.930 . S
H683 C671 0.929 . S
H684 C673 0.929 . S
O685 Co660 2.351 . S
O685 C688 1.244 . S
O686 Co660 2.155 . S
O686 C688 1.240 . S
O687 Co660 2.096 . S
O687 C668 1.247 . S
C688 O685 1.244 . S
C688 O686 1.240 . S
H689 C663 0.931 . S
H690 C672 0.931 . S
H691 C676 0.929 . S
H692 C678 0.930 . S
Co693 N697 2.148 . S
Co693 N703 2.128 . S
Co693 N713 2.194 . S
Co693 O718 2.351 . S
Co693 O719 2.155 . S
Co693 O720 2.096 . S
C694 N697 1.301 . S
C694 N698 1.328 . S
C694 H699 0.930 . S
C695 C696 1.333 . S
C695 N697 1.317 . S
C695 H700 0.930 . S
C696 C695 1.333 . S
C696 N698 1.350 . S
C696 H722 0.931 . S
N697 Co693 2.148 . S
N697 C694 1.301 . S
N697 C695 1.317 . S
N698 C694 1.328 . S
N698 C696 1.350 . S
H699 C694 0.930 . S
H700 C695 0.930 . S
C701 O702 1.224 . S
C701 O720 1.247 . S
O702 C701 1.224 . S
N703 Co693 2.128 . S
N703 C704 1.355 . S
N703 C706 1.311 . S
C704 N703 1.355 . S
C704 C705 1.363 . S
C704 H716 0.929 . S
C705 C704 1.363 . S
C705 N707 1.375 . S
C705 H723 0.931 . S
C706 N703 1.311 . S
C706 N707 1.347 . S
C706 H717 0.929 . S
N707 C705 1.375 . S
N707 C706 1.347 . S
C708 C711 1.365 . S
C708 N713 1.328 . S
C708 H714 0.929 . S
C709 C710 1.362 . S
C709 C712 1.378 . S
C709 H724 0.929 . S
C710 C709 1.362 . S
C710 C711 1.366 . S
C711 C708 1.365 . S
C711 C710 1.366 . S
C711 H725 0.930 . S
C712 C709 1.378 . S
C712 N713 1.315 . S
C712 H715 0.930 . S
N713 Co693 2.194 . S
N713 C708 1.328 . S
N713 C712 1.315 . S
H714 C708 0.929 . S
H715 C712 0.930 . S
H716 C704 0.929 . S
H717 C706 0.929 . S
O718 Co693 2.351 . S
O718 C721 1.244 . S
O719 Co693 2.155 . S
O719 C721 1.240 . S
O720 Co693 2.096 . S
O720 C701 1.247 . S
C721 O718 1.244 . S
C721 O719 1.240 . S
H722 C696 0.931 . S
H723 C705 0.931 . S
H724 C709 0.929 . S
H725 C711 0.930 . S
Co726 N730 2.148 . S
Co726 N736 2.128 . S
Co726 N746 2.194 . S
Co726 O751 2.351 . S
Co726 O752 2.155 . S
Co726 O753 2.096 . S
C727 N730 1.301 . S
C727 N731 1.328 . S
C727 H732 0.930 . S
C728 C729 1.333 . S
C728 N730 1.317 . S
C728 H733 0.930 . S
C729 C728 1.333 . S
C729 N731 1.350 . S
C729 H755 0.931 . S
N730 Co726 2.148 . S
N730 C727 1.301 . S
N730 C728 1.317 . S
N731 C727 1.328 . S
N731 C729 1.350 . S
H732 C727 0.930 . S
H733 C728 0.930 . S
C734 O735 1.224 . S
C734 O753 1.247 1_455 S
O735 C734 1.224 . S
N736 Co726 2.128 . S
N736 C737 1.355 . S
N736 C739 1.311 . S
C737 N736 1.355 . S
C737 C738 1.363 . S
C737 H749 0.929 . S
C738 C737 1.363 . S
C738 N740 1.375 . S
C738 H756 0.931 . S
C739 N736 1.311 . S
C739 N740 1.347 . S
C739 H750 0.929 . S
N740 C738 1.375 . S
N740 C739 1.347 . S
C741 C744 1.365 . S
C741 N746 1.328 . S
C741 H747 0.929 . S
C742 C743 1.362 . S
C742 C745 1.378 . S
C742 H757 0.929 1_655 S
C743 C742 1.362 . S
C743 C744 1.366 . S
C744 C741 1.365 . S
C744 C743 1.366 . S
C744 H758 0.930 . S
C745 C742 1.378 . S
C745 N746 1.315 . S
C745 H748 0.930 1_655 S
N746 Co726 2.194 . S
N746 C741 1.328 . S
N746 C745 1.315 . S
H747 C741 0.929 . S
H748 C745 0.930 1_455 S
H749 C737 0.929 . S
H750 C739 0.929 . S
O751 Co726 2.351 . S
O751 C754 1.244 . S
O752 Co726 2.155 . S
O752 C754 1.240 . S
O753 Co726 2.096 . S
O753 C734 1.247 1_655 S
C754 O751 1.244 . S
C754 O752 1.240 . S
H755 C729 0.931 . S
H756 C738 0.931 . S
H757 C742 0.929 1_455 S
H758 C744 0.930 . S
Co759 N763 2.148 . S
Co759 N769 2.128 . S
Co759 N779 2.194 . S
Co759 O784 2.351 . S
Co759 O785 2.155 . S
Co759 O786 2.096 . S
C760 N763 1.301 . S
C760 N764 1.328 . S
C760 H765 0.930 . S
C761 C762 1.333 . S
C761 N763 1.317 . S
C761 H766 0.930 . S
C762 C761 1.333 . S
C762 N764 1.350 . S
C762 H788 0.931 . S
N763 Co759 2.148 . S
N763 C760 1.301 . S
N763 C761 1.317 . S
N764 C760 1.328 . S
N764 C762 1.350 . S
H765 C760 0.930 . S
H766 C761 0.930 . S
C767 O768 1.224 . S
C767 O786 1.247 . S
O768 C767 1.224 . S
N769 Co759 2.128 . S
N769 C770 1.355 . S
N769 C772 1.311 . S
C770 N769 1.355 . S
C770 C771 1.363 . S
C770 H782 0.929 . S
C771 C770 1.363 . S
C771 N773 1.375 . S
C771 H789 0.931 . S
C772 N769 1.311 . S
C772 N773 1.347 . S
C772 H783 0.929 . S
N773 C771 1.375 . S
N773 C772 1.347 . S
C774 C777 1.365 . S
C774 N779 1.328 . S
C774 H780 0.929 . S
C775 C776 1.362 . S
C775 C778 1.378 . S
C775 H790 0.929 . S
C776 C775 1.362 . S
C776 C777 1.366 . S
C777 C774 1.365 . S
C777 C776 1.366 . S
C777 H791 0.930 . S
C778 C775 1.378 . S
C778 N779 1.315 . S
C778 H781 0.930 . S
N779 Co759 2.194 . S
N779 C774 1.328 . S
N779 C778 1.315 . S
H780 C774 0.929 . S
H781 C778 0.930 . S
H782 C770 0.929 . S
H783 C772 0.929 . S
O784 Co759 2.351 . S
O784 C787 1.244 . S
O785 Co759 2.155 . S
O785 C787 1.240 . S
O786 Co759 2.096 . S
O786 C767 1.247 . S
C787 O784 1.244 . S
C787 O785 1.240 . S
H788 C762 0.931 . S
H789 C771 0.931 . S
H790 C775 0.929 . S
H791 C777 0.930 . S
Co792 N796 2.148 . S
Co792 N802 2.128 . S
Co792 N812 2.194 . S
Co792 O817 2.351 . S
Co792 O818 2.155 . S
Co792 O819 2.096 . S
C793 N796 1.301 . S
C793 N797 1.328 . S
C793 H798 0.930 . S
C794 C795 1.333 . S
C794 N796 1.317 . S
C794 H799 0.930 . S
C795 C794 1.333 . S
C795 N797 1.350 . S
C795 H821 0.931 . S
N796 Co792 2.148 . S
N796 C793 1.301 . S
N796 C794 1.317 . S
N797 C793 1.328 . S
N797 C795 1.350 . S
H798 C793 0.930 . S
H799 C794 0.930 . S
C800 O801 1.224 . S
C800 O819 1.247 . S
O801 C800 1.224 . S
N802 Co792 2.128 . S
N802 C803 1.355 . S
N802 C805 1.311 . S
C803 N802 1.355 . S
C803 C804 1.363 . S
C803 H815 0.929 . S
C804 C803 1.363 . S
C804 N806 1.375 . S
C804 H822 0.931 . S
C805 N802 1.311 . S
C805 N806 1.347 . S
C805 H816 0.929 . S
N806 C804 1.375 . S
N806 C805 1.347 . S
C807 C810 1.365 . S
C807 N812 1.328 . S
C807 H813 0.929 . S
C808 C809 1.362 . S
C808 C811 1.378 . S
C808 H823 0.929 . S
C809 C808 1.362 . S
C809 C810 1.366 . S
C810 C807 1.365 . S
C810 C809 1.366 . S
C810 H824 0.930 . S
C811 C808 1.378 . S
C811 N812 1.315 . S
C811 H814 0.930 . S
N812 Co792 2.194 . S
N812 C807 1.328 . S
N812 C811 1.315 . S
H813 C807 0.929 . S
H814 C811 0.930 . S
H815 C803 0.929 . S
H816 C805 0.929 . S
O817 Co792 2.351 . S
O817 C820 1.244 . S
O818 Co792 2.155 . S
O818 C820 1.240 . S
O819 Co792 2.096 . S
O819 C800 1.247 . S
C820 O817 1.244 . S
C820 O818 1.240 . S
H821 C795 0.931 . S
H822 C804 0.931 . S
H823 C808 0.929 . S
H824 C810 0.930 . S
Co825 N829 2.148 . S
Co825 N835 2.128 . S
Co825 N845 2.194 . S
Co825 O850 2.351 . S
Co825 O851 2.155 . S
Co825 O852 2.096 . S
C826 N829 1.301 . S
C826 N830 1.328 . S
C826 H831 0.930 . S
C827 C828 1.333 . S
C827 N829 1.317 . S
C827 H832 0.930 . S
C828 C827 1.333 . S
C828 N830 1.350 . S
C828 H854 0.931 . S
N829 Co825 2.148 . S
N829 C826 1.301 . S
N829 C827 1.317 . S
N830 C826 1.328 . S
N830 C828 1.350 . S
H831 C826 0.930 . S
H832 C827 0.930 . S
C833 O834 1.224 . S
C833 O852 1.247 . S
O834 C833 1.224 . S
N835 Co825 2.128 . S
N835 C836 1.355 . S
N835 C838 1.311 . S
C836 N835 1.355 . S
C836 C837 1.363 . S
C836 H848 0.929 . S
C837 C836 1.363 . S
C837 N839 1.375 . S
C837 H855 0.931 . S
C838 N835 1.311 . S
C838 N839 1.347 . S
C838 H849 0.929 . S
N839 C837 1.375 . S
N839 C838 1.347 . S
C840 C843 1.365 . S
C840 N845 1.328 . S
C840 H846 0.929 . S
C841 C842 1.362 . S
C841 C844 1.378 . S
C841 H856 0.929 . S
C842 C841 1.362 . S
C842 C843 1.366 . S
C843 C840 1.365 . S
C843 C842 1.366 . S
C843 H857 0.930 . S
C844 C841 1.378 . S
C844 N845 1.315 . S
C844 H847 0.930 . S
N845 Co825 2.194 . S
N845 C840 1.328 . S
N845 C844 1.315 . S
H846 C840 0.929 . S
H847 C844 0.930 . S
H848 C836 0.929 . S
H849 C838 0.929 . S
O850 Co825 2.351 . S
O850 C853 1.244 . S
O851 Co825 2.155 . S
O851 C853 1.240 . S
O852 Co825 2.096 . S
O852 C833 1.247 . S
C853 O850 1.244 . S
C853 O851 1.240 . S
H854 C828 0.931 . S
H855 C837 0.931 . S
H856 C841 0.929 . S
H857 C843 0.930 . S
Co858 N862 2.148 . S
Co858 N868 2.128 . S
Co858 N878 2.194 . S
Co858 O883 2.351 . S
Co858 O884 2.155 . S
Co858 O885 2.096 . S
C859 N862 1.301 . S
C859 N863 1.328 . S
C859 H864 0.930 . S
C860 C861 1.333 . S
C860 N862 1.317 . S
C860 H865 0.930 . S
C861 C860 1.333 . S
C861 N863 1.350 . S
C861 H887 0.931 . S
N862 Co858 2.148 . S
N862 C859 1.301 . S
N862 C860 1.317 . S
N863 C859 1.328 . S
N863 C861 1.350 . S
H864 C859 0.930 . S
H865 C860 0.930 . S
C866 O867 1.224 . S
C866 O885 1.247 1_655 S
O867 C866 1.224 . S
N868 Co858 2.128 . S
N868 C869 1.355 . S
N868 C871 1.311 . S
C869 N868 1.355 . S
C869 C870 1.363 . S
C869 H881 0.929 . S
C870 C869 1.363 . S
C870 N872 1.375 . S
C870 H888 0.931 . S
C871 N868 1.311 . S
C871 N872 1.347 . S
C871 H882 0.929 . S
N872 C870 1.375 . S
N872 C871 1.347 . S
C873 C876 1.365 . S
C873 N878 1.328 . S
C873 H879 0.929 . S
C874 C875 1.362 . S
C874 C877 1.378 . S
C874 H889 0.929 1_455 S
C875 C874 1.362 . S
C875 C876 1.366 . S
C876 C873 1.365 . S
C876 C875 1.366 . S
C876 H890 0.930 . S
C877 C874 1.378 . S
C877 N878 1.315 . S
C877 H880 0.930 1_455 S
N878 Co858 2.194 . S
N878 C873 1.328 . S
N878 C877 1.315 . S
H879 C873 0.929 . S
H880 C877 0.930 1_655 S
H881 C869 0.929 . S
H882 C871 0.929 . S
O883 Co858 2.351 . S
O883 C886 1.244 . S
O884 Co858 2.155 . S
O884 C886 1.240 . S
O885 Co858 2.096 . S
O885 C866 1.247 1_455 S
C886 O883 1.244 . S
C886 O884 1.240 . S
H887 C861 0.931 . S
H888 C870 0.931 . S
H889 C874 0.929 1_655 S
H890 C876 0.930 . S
Co891 N895 2.148 . S
Co891 N901 2.128 . S
Co891 N911 2.194 . S
Co891 O916 2.351 . S
Co891 O917 2.155 . S
Co891 O918 2.096 . S
C892 N895 1.301 . S
C892 N896 1.328 . S
C892 H897 0.930 . S
C893 C894 1.333 . S
C893 N895 1.317 . S
C893 H898 0.930 . S
C894 C893 1.333 . S
C894 N896 1.350 . S
C894 H920 0.931 . S
N895 Co891 2.148 . S
N895 C892 1.301 . S
N895 C893 1.317 . S
N896 C892 1.328 . S
N896 C894 1.350 . S
H897 C892 0.930 . S
H898 C893 0.930 . S
C899 O900 1.224 . S
C899 O918 1.247 . S
O900 C899 1.224 . S
N901 Co891 2.128 . S
N901 C902 1.355 . S
N901 C904 1.311 . S
C902 N901 1.355 . S
C902 C903 1.363 . S
C902 H914 0.929 . S
C903 C902 1.363 . S
C903 N905 1.375 . S
C903 H921 0.931 . S
C904 N901 1.311 . S
C904 N905 1.347 . S
C904 H915 0.929 . S
N905 C903 1.375 . S
N905 C904 1.347 . S
C906 C909 1.365 . S
C906 N911 1.328 . S
C906 H912 0.929 . S
C907 C908 1.362 . S
C907 C910 1.378 . S
C907 H922 0.929 . S
C908 C907 1.362 . S
C908 C909 1.366 . S
C909 C906 1.365 . S
C909 C908 1.366 . S
C909 H923 0.930 . S
C910 C907 1.378 . S
C910 N911 1.315 . S
C910 H913 0.930 . S
N911 Co891 2.194 . S
N911 C906 1.328 . S
N911 C910 1.315 . S
H912 C906 0.929 . S
H913 C910 0.930 . S
H914 C902 0.929 . S
H915 C904 0.929 . S
O916 Co891 2.351 . S
O916 C919 1.244 . S
O917 Co891 2.155 . S
O917 C919 1.240 . S
O918 Co891 2.096 . S
O918 C899 1.247 . S
C919 O916 1.244 . S
C919 O917 1.240 . S
H920 C894 0.931 . S
H921 C903 0.931 . S
H922 C907 0.929 . S
H923 C909 0.930 . S
Co924 N928 2.148 . S
Co924 N934 2.128 . S
Co924 N944 2.194 . S
Co924 O949 2.351 . S
Co924 O950 2.155 . S
Co924 O951 2.096 . S
C925 N928 1.301 . S
C925 N929 1.328 . S
C925 H930 0.930 . S
C926 C927 1.333 . S
C926 N928 1.317 . S
C926 H931 0.930 . S
C927 C926 1.333 . S
C927 N929 1.350 . S
C927 H953 0.931 . S
N928 Co924 2.148 . S
N928 C925 1.301 . S
N928 C926 1.317 . S
N929 C925 1.328 . S
N929 C927 1.350 . S
H930 C925 0.930 . S
H931 C926 0.930 . S
C932 O933 1.224 . S
C932 O951 1.247 . S
O933 C932 1.224 . S
N934 Co924 2.128 . S
N934 C935 1.355 . S
N934 C937 1.311 . S
C935 N934 1.355 . S
C935 C936 1.363 . S
C935 H947 0.929 . S
C936 C935 1.363 . S
C936 N938 1.375 . S
C936 H954 0.931 . S
C937 N934 1.311 . S
C937 N938 1.347 . S
C937 H948 0.929 . S
N938 C936 1.375 . S
N938 C937 1.347 . S
C939 C942 1.365 . S
C939 N944 1.328 . S
C939 H945 0.929 . S
C940 C941 1.362 . S
C940 C943 1.378 . S
C940 H955 0.929 . S
C941 C940 1.362 . S
C941 C942 1.366 . S
C942 C939 1.365 . S
C942 C941 1.366 . S
C942 H956 0.930 . S
C943 C940 1.378 . S
C943 N944 1.315 . S
C943 H946 0.930 . S
N944 Co924 2.194 . S
N944 C939 1.328 . S
N944 C943 1.315 . S
H945 C939 0.929 . S
H946 C943 0.930 . S
H947 C935 0.929 . S
H948 C937 0.929 . S
O949 Co924 2.351 . S
O949 C952 1.244 . S
O950 Co924 2.155 . S
O950 C952 1.240 . S
O951 Co924 2.096 . S
O951 C932 1.247 . S
C952 O949 1.244 . S
C952 O950 1.240 . S
H953 C927 0.931 . S
H954 C936 0.931 . S
H955 C940 0.929 . S
H956 C942 0.930 . S
Co957 N961 2.148 . S
Co957 N967 2.128 . S
Co957 N977 2.194 . S
Co957 O982 2.351 . S
Co957 O983 2.155 . S
Co957 O984 2.096 . S
C958 N961 1.301 . S
C958 N962 1.328 . S
C958 H963 0.930 . S
C959 C960 1.333 . S
C959 N961 1.317 . S
C959 H964 0.930 . S
C960 C959 1.333 . S
C960 N962 1.350 . S
C960 H986 0.931 . S
N961 Co957 2.148 . S
N961 C958 1.301 . S
N961 C959 1.317 . S
N962 C958 1.328 . S
N962 C960 1.350 . S
H963 C958 0.930 . S
H964 C959 0.930 . S
C965 O966 1.224 . S
C965 O984 1.247 . S
O966 C965 1.224 . S
N967 Co957 2.128 . S
N967 C968 1.355 . S
N967 C970 1.311 . S
C968 N967 1.355 . S
C968 C969 1.363 . S
C968 H980 0.929 . S
C969 C968 1.363 . S
C969 N971 1.375 . S
C969 H987 0.931 . S
C970 N967 1.311 . S
C970 N971 1.347 . S
C970 H981 0.929 . S
N971 C969 1.375 . S
N971 C970 1.347 . S
C972 C975 1.365 . S
C972 N977 1.328 . S
C972 H978 0.929 . S
C973 C974 1.362 . S
C973 C976 1.378 . S
C973 H988 0.929 . S
C974 C973 1.362 . S
C974 C975 1.366 . S
C975 C972 1.365 . S
C975 C974 1.366 . S
C975 H989 0.930 . S
C976 C973 1.378 . S
C976 N977 1.315 . S
C976 H979 0.930 . S
N977 Co957 2.194 . S
N977 C972 1.328 . S
N977 C976 1.315 . S
H978 C972 0.929 . S
H979 C976 0.930 . S
H980 C968 0.929 . S
H981 C970 0.929 . S
O982 Co957 2.351 . S
O982 C985 1.244 . S
O983 Co957 2.155 . S
O983 C985 1.240 . S
O984 Co957 2.096 . S
O984 C965 1.247 . S
C985 O982 1.244 . S
C985 O983 1.240 . S
H986 C960 0.931 . S
H987 C969 0.931 . S
H988 C973 0.929 . S
H989 C975 0.930 . S
Co990 N994 2.148 . S
Co990 N1000 2.128 . S
Co990 N1010 2.194 . S
Co990 O1015 2.351 . S
Co990 O1016 2.155 . S
Co990 O1017 2.096 . S
C991 N994 1.301 . S
C991 N995 1.328 . S
C991 H996 0.930 . S
C992 C993 1.333 . S
C992 N994 1.317 . S
C992 H997 0.930 . S
C993 C992 1.333 . S
C993 N995 1.350 . S
C993 H1019 0.931 . S
N994 Co990 2.148 . S
N994 C991 1.301 . S
N994 C992 1.317 . S
N995 C991 1.328 . S
N995 C993 1.350 . S
H996 C991 0.930 . S
H997 C992 0.930 . S
C998 O999 1.224 . S
C998 O1017 1.247 1_655 S
O999 C998 1.224 . S
N1000 Co990 2.128 . S
N1000 C1001 1.355 . S
N1000 C1003 1.311 . S
C1001 N1000 1.355 . S
C1001 C1002 1.363 . S
C1001 H1013 0.929 . S
C1002 C1001 1.363 . S
C1002 N1004 1.375 . S
C1002 H1020 0.931 . S
C1003 N1000 1.311 . S
C1003 N1004 1.347 . S
C1003 H1014 0.929 . S
N1004 C1002 1.375 . S
N1004 C1003 1.347 . S
C1005 C1008 1.365 . S
C1005 N1010 1.328 . S
C1005 H1011 0.929 . S
C1006 C1007 1.362 . S
C1006 C1009 1.378 . S
C1006 H1021 0.929 1_455 S
C1007 C1006 1.362 . S
C1007 C1008 1.366 . S
C1008 C1005 1.365 . S
C1008 C1007 1.366 . S
C1008 H1022 0.930 . S
C1009 C1006 1.378 . S
C1009 N1010 1.315 . S
C1009 H1012 0.930 1_455 S
N1010 Co990 2.194 . S
N1010 C1005 1.328 . S
N1010 C1009 1.315 . S
H1011 C1005 0.929 . S
H1012 C1009 0.930 1_655 S
H1013 C1001 0.929 . S
H1014 C1003 0.929 . S
O1015 Co990 2.351 . S
O1015 C1018 1.244 . S
O1016 Co990 2.155 . S
O1016 C1018 1.240 . S
O1017 Co990 2.096 . S
O1017 C998 1.247 1_455 S
C1018 O1015 1.244 . S
C1018 O1016 1.240 . S
H1019 C993 0.931 . S
H1020 C1002 0.931 . S
H1021 C1006 0.929 1_655 S
H1022 C1008 0.930 . S
Co1023 N1027 2.148 . S
Co1023 N1033 2.128 . S
Co1023 N1043 2.194 . S
Co1023 O1048 2.351 . S
Co1023 O1049 2.155 . S
Co1023 O1050 2.096 . S
C1024 N1027 1.301 . S
C1024 N1028 1.328 . S
C1024 H1029 0.930 . S
C1025 C1026 1.333 . S
C1025 N1027 1.317 . S
C1025 H1030 0.930 . S
C1026 C1025 1.333 . S
C1026 N1028 1.350 . S
C1026 H1052 0.931 . S
N1027 Co1023 2.148 . S
N1027 C1024 1.301 . S
N1027 C1025 1.317 . S
N1028 C1024 1.328 . S
N1028 C1026 1.350 . S
H1029 C1024 0.930 . S
H1030 C1025 0.930 . S
C1031 O1032 1.224 . S
C1031 O1050 1.247 . S
O1032 C1031 1.224 . S
N1033 Co1023 2.128 . S
N1033 C1034 1.355 . S
N1033 C1036 1.311 . S
C1034 N1033 1.355 . S
C1034 C1035 1.363 . S
C1034 H1046 0.929 . S
C1035 C1034 1.363 . S
C1035 N1037 1.375 . S
C1035 H1053 0.931 . S
C1036 N1033 1.311 . S
C1036 N1037 1.347 . S
C1036 H1047 0.929 . S
N1037 C1035 1.375 . S
N1037 C1036 1.347 . S
C1038 C1041 1.365 . S
C1038 N1043 1.328 . S
C1038 H1044 0.929 . S
C1039 C1040 1.362 . S
C1039 C1042 1.378 . S
C1039 H1054 0.929 . S
C1040 C1039 1.362 . S
C1040 C1041 1.366 . S
C1041 C1038 1.365 . S
C1041 C1040 1.366 . S
C1041 H1055 0.930 . S
C1042 C1039 1.378 . S
C1042 N1043 1.315 . S
C1042 H1045 0.930 . S
N1043 Co1023 2.194 . S
N1043 C1038 1.328 . S
N1043 C1042 1.315 . S
H1044 C1038 0.929 . S
H1045 C1042 0.930 . S
H1046 C1034 0.929 . S
H1047 C1036 0.929 . S
O1048 Co1023 2.351 . S
O1048 C1051 1.244 . S
O1049 Co1023 2.155 . S
O1049 C1051 1.240 . S
O1050 Co1023 2.096 . S
O1050 C1031 1.247 . S
C1051 O1048 1.244 . S
C1051 O1049 1.240 . S
H1052 C1026 0.931 . S
H1053 C1035 0.931 . S
H1054 C1039 0.929 . S
H1055 C1041 0.930 . S
C1056 C1057 1.369 . S
C1056 C1058 1.419 1_545 S
C1056 H1060 0.930 . S
C1057 C1056 1.369 . S
C1057 C1066 1.425 1_455 S
C1058 C1056 1.419 1_565 S
C1058 C1059 1.363 . S
C1058 H1061 0.929 . S
C1059 C1058 1.363 . S
C1059 C1065 1.427 1_455 S
H1060 C1056 0.930 . S
H1061 C1058 0.929 . S
S1062 N1063 1.614 . S
S1062 N1064 1.610 . S
N1063 S1062 1.614 . S
N1063 C1066 1.354 1_565 S
N1064 S1062 1.610 . S
N1064 C1065 1.353 . S
C1065 C1059 1.427 1_655 S
C1065 N1064 1.353 . S
C1065 C1066 1.434 1_565 S
C1066 C1057 1.425 1_655 S
C1066 N1063 1.354 1_545 S
C1066 C1065 1.434 1_545 S
C1067 C1068 1.369 . S
C1067 C1069 1.419 . S
C1067 H1071 0.930 . S
C1068 C1067 1.369 . S
C1068 C1077 1.429 . S
C1069 C1067 1.419 . S
C1069 C1070 1.363 . S
C1069 H1072 0.929 . S
C1070 C1069 1.363 . S
C1070 C1076 1.428 . S
H1071 C1067 0.930 . S
H1072 C1069 0.929 . S
S1073 N1074 1.613 . S
S1073 N1075 1.610 . S
N1074 S1073 1.613 . S
N1074 C1077 1.350 . S
N1075 S1073 1.610 . S
N1075 C1076 1.351 . S
C1076 C1070 1.428 . S
C1076 N1075 1.351 . S
C1076 C1077 1.434 . S
C1077 C1068 1.429 . S
C1077 N1074 1.350 . S
C1077 C1076 1.434 . S
C1078 C1079 1.369 . S
C1078 C1080 1.419 . S
C1078 H1082 0.930 . S
C1079 C1078 1.369 . S
C1079 C1088 1.429 1_545 S
C1080 C1078 1.419 . S
C1080 C1081 1.363 1_545 S
C1080 H1083 0.929 . S
C1081 C1080 1.363 1_565 S
C1081 C1087 1.428 . S
H1082 C1078 0.930 . S
H1083 C1080 0.929 . S
S1084 N1085 1.613 . S
S1084 N1086 1.610 . S
N1085 S1084 1.613 . S
N1085 C1088 1.350 . S
N1086 S1084 1.610 . S
N1086 C1087 1.351 . S
C1087 C1081 1.428 . S
C1087 N1086 1.351 . S
C1087 C1088 1.434 . S
C1088 C1079 1.429 1_565 S
C1088 N1085 1.350 . S
C1088 C1087 1.434 . S
C1089 C1090 1.369 . S
C1089 C1091 1.419 1_556 S
C1089 H1093 0.930 . S
C1090 C1089 1.369 . S
C1090 C1099 1.429 . S
C1091 C1089 1.419 1_554 S
C1091 C1092 1.363 . S
C1091 H1094 0.929 . S
C1092 C1091 1.363 . S
C1092 C1098 1.428 . S
H1093 C1089 0.930 . S
H1094 C1091 0.929 . S
S1095 N1096 1.615 1_554 S
S1095 N1097 1.609 . S
N1096 S1095 1.615 1_556 S
N1096 C1099 1.350 . S
N1097 S1095 1.609 . S
N1097 C1098 1.351 . S
C1098 C1092 1.428 . S
C1098 N1097 1.351 . S
C1098 C1099 1.434 1_554 S
C1099 C1090 1.429 . S
C1099 N1096 1.350 . S
C1099 C1098 1.434 1_556 S
C1100 C1101 1.369 1_565 S
C1100 C1102 1.419 . S
C1100 H1104 0.930 1_655 S
C1101 C1100 1.369 1_545 S
C1101 C1110 1.429 . S
C1102 C1100 1.419 . S
C1102 C1103 1.363 . S
C1102 H1105 0.929 1_655 S
C1103 C1102 1.363 . S
C1103 C1109 1.428 1_565 S
H1104 C1100 0.930 1_455 S
H1105 C1102 0.929 1_455 S
S1106 N1107 1.613 . S
S1106 N1108 1.610 . S
N1107 S1106 1.613 . S
N1107 C1110 1.350 . S
N1108 S1106 1.610 . S
N1108 C1109 1.351 . S
C1109 C1103 1.428 1_545 S
C1109 N1108 1.351 . S
C1109 C1110 1.434 . S
C1110 C1101 1.429 . S
C1110 N1107 1.350 . S
C1110 C1109 1.434 . S
C1111 C1112 1.369 . S
C1111 C1113 1.419 . S
C1111 H1115 0.930 . S
C1112 C1111 1.369 . S
C1112 C1121 1.429 . S
C1113 C1111 1.419 . S
C1113 C1114 1.363 . S
C1113 H1116 0.929 . S
C1114 C1113 1.363 . S
C1114 C1120 1.428 . S
H1115 C1111 0.930 . S
H1116 C1113 0.929 . S
S1117 N1118 1.613 . S
S1117 N1119 1.610 . S
N1118 S1117 1.613 . S
N1118 C1121 1.350 . S
N1119 S1117 1.610 . S
N1119 C1120 1.351 . S
C1120 C1114 1.428 . S
C1120 N1119 1.351 . S
C1120 C1121 1.434 . S
C1121 C1112 1.429 . S
C1121 N1118 1.350 . S
C1121 C1120 1.434 . S
C1122 C1123 1.369 1_545 S
C1122 C1124 1.419 . S
C1122 H1126 0.930 . S
C1123 C1122 1.369 1_565 S
C1123 C1132 1.429 . S
C1124 C1122 1.419 . S
C1124 C1125 1.363 . S
C1124 H1127 0.929 . S
C1125 C1124 1.363 . S
C1125 C1131 1.428 1_545 S
H1126 C1122 0.930 . S
H1127 C1124 0.929 . S
S1128 N1129 1.613 . S
S1128 N1130 1.610 . S
N1129 S1128 1.613 . S
N1129 C1132 1.350 . S
N1130 S1128 1.610 . S
N1130 C1131 1.351 . S
C1131 C1125 1.428 1_565 S
C1131 N1130 1.351 . S
C1131 C1132 1.434 . S
C1132 C1123 1.429 . S
C1132 N1129 1.350 . S
C1132 C1131 1.434 . S
C1133 C1134 1.369 . S
C1133 C1135 1.419 1_556 S
C1133 H1137 0.930 . S
C1134 C1133 1.369 . S
C1134 C1143 1.429 . S
C1135 C1133 1.419 1_554 S
C1135 C1136 1.363 . S
C1135 H1138 0.929 . S
C1136 C1135 1.363 . S
C1136 C1142 1.428 . S
H1137 C1133 0.930 . S
H1138 C1135 0.929 . S
S1139 N1140 1.613 1_554 S
S1139 N1141 1.610 . S
N1140 S1139 1.613 1_556 S
N1140 C1143 1.350 . S
N1141 S1139 1.610 . S
N1141 C1142 1.351 . S
C1142 C1136 1.428 . S
C1142 N1141 1.351 . S
C1142 C1143 1.434 1_554 S
C1143 C1134 1.429 . S
C1143 N1140 1.350 . S
C1143 C1142 1.434 1_556 S
C1144 C1145 1.369 . S
C1144 C1146 1.419 . S
C1144 H1148 0.930 . S
C1145 C1144 1.369 . S
C1145 C1154 1.429 . S
C1146 C1144 1.419 . S
C1146 C1147 1.363 . S
C1146 H1149 0.929 . S
C1147 C1146 1.363 . S
C1147 C1153 1.428 . S
H1148 C1144 0.930 . S
H1149 C1146 0.929 . S
S1150 N1151 1.613 . S
S1150 N1152 1.610 . S
N1151 S1150 1.613 . S
N1151 C1154 1.350 . S
N1152 S1150 1.610 . S
N1152 C1153 1.351 . S
C1153 C1147 1.428 . S
C1153 N1152 1.351 . S
C1153 C1154 1.434 . S
C1154 C1145 1.429 . S
C1154 N1151 1.350 . S
C1154 C1153 1.434 . S
C1155 C1156 1.369 . S
C1155 C1157 1.419 1_556 S
C1155 H1159 0.930 . S
C1156 C1155 1.369 . S
C1156 C1165 1.429 . S
C1157 C1155 1.419 1_554 S
C1157 C1158 1.363 . S
C1157 H1160 0.929 . S
C1158 C1157 1.363 . S
C1158 C1164 1.428 . S
H1159 C1155 0.930 . S
H1160 C1157 0.929 . S
S1161 N1162 1.613 . S
S1161 N1163 1.610 1_556 S
N1162 S1161 1.613 . S
N1162 C1165 1.350 . S
N1163 S1161 1.610 1_554 S
N1163 C1164 1.351 . S
C1164 C1158 1.428 . S
C1164 N1163 1.351 . S
C1164 C1165 1.434 1_554 S
C1165 C1156 1.429 . S
C1165 N1162 1.350 . S
C1165 C1164 1.434 1_556 S
C1166 C1167 1.369 . S
C1166 C1168 1.419 . S
C1166 H1170 0.930 . S
C1167 C1166 1.369 . S
C1167 C1176 1.429 . S
C1168 C1166 1.419 . S
C1168 C1169 1.363 . S
C1168 H1171 0.929 . S
C1169 C1168 1.363 . S
C1169 C1175 1.428 . S
H1170 C1166 0.930 . S
H1171 C1168 0.929 . S
S1172 N1173 1.613 . S
S1172 N1174 1.610 . S
N1173 S1172 1.613 . S
N1173 C1176 1.350 . S
N1174 S1172 1.610 . S
N1174 C1175 1.351 . S
C1175 C1169 1.428 . S
C1175 N1174 1.351 . S
C1175 C1176 1.434 . S
C1176 C1167 1.429 . S
C1176 N1173 1.350 . S
C1176 C1175 1.434 . S
C1177 C1178 1.369 . S
C1177 C1179 1.419 . S
C1177 H1181 0.930 . S
C1178 C1177 1.369 . S
C1178 C1187 1.429 . S
C1179 C1177 1.419 . S
C1179 C1180 1.363 . S
C1179 H1182 0.929 . S
C1180 C1179 1.363 . S
C1180 C1186 1.428 . S
H1181 C1177 0.930 . S
H1182 C1179 0.929 . S
S1183 N1184 1.613 . S
S1183 N1185 1.610 . S
N1184 S1183 1.613 . S
N1184 C1187 1.350 . S
N1185 S1183 1.610 . S
N1185 C1186 1.351 . S
C1186 C1180 1.428 . S
C1186 N1185 1.351 . S
C1186 C1187 1.434 . S
C1187 C1178 1.429 . S
C1187 N1184 1.350 . S
C1187 C1186 1.434 . S
C1188 C1189 1.369 . S
C1188 C1190 1.419 . S
C1188 H1192 0.930 . S
C1189 C1188 1.369 . S
C1189 C1198 1.429 . S
C1190 C1188 1.419 . S
C1190 C1191 1.363 . S
C1190 H1193 0.929 . S
C1191 C1190 1.363 . S
C1191 C1197 1.428 . S
H1192 C1188 0.930 . S
H1193 C1190 0.929 . S
S1194 N1195 1.613 . S
S1194 N1196 1.610 . S
N1195 S1194 1.613 . S
N1195 C1198 1.350 . S
N1196 S1194 1.610 . S
N1196 C1197 1.351 . S
C1197 C1191 1.428 . S
C1197 N1196 1.351 . S
C1197 C1198 1.434 . S
C1198 C1189 1.429 . S
C1198 N1195 1.350 . S
C1198 C1197 1.434 . S
C1199 C1200 1.369 . S
C1199 C1201 1.419 1_554 S
C1199 H1203 0.930 . S
C1200 C1199 1.369 . S
C1200 C1209 1.429 . S
C1201 C1199 1.419 1_556 S
C1201 C1202 1.363 . S
C1201 H1204 0.929 . S
C1202 C1201 1.363 . S
C1202 C1208 1.428 . S
H1203 C1199 0.930 . S
H1204 C1201 0.929 . S
S1205 N1206 1.613 1_556 S
S1205 N1207 1.610 . S
N1206 S1205 1.613 1_554 S
N1206 C1209 1.350 . S
N1207 S1205 1.610 . S
N1207 C1208 1.351 . S
C1208 C1202 1.428 . S
C1208 N1207 1.351 . S
C1208 C1209 1.434 1_556 S
C1209 C1200 1.429 . S
C1209 N1206 1.350 . S
C1209 C1208 1.434 1_554 S
C1210 C1211 1.369 . S
C1210 C1212 1.419 . S
C1210 H1214 0.930 1_455 S
C1211 C1210 1.369 . S
C1211 C1220 1.429 . S
C1212 C1210 1.419 . S
C1212 C1213 1.363 . S
C1212 H1215 0.929 1_455 S
C1213 C1212 1.363 . S
C1213 C1219 1.428 . S
H1214 C1210 0.930 1_655 S
H1215 C1212 0.929 1_655 S
S1216 N1217 1.613 . S
S1216 N1218 1.610 . S
N1217 S1216 1.613 . S
N1217 C1220 1.350 . S
N1218 S1216 1.610 . S
N1218 C1219 1.351 . S
C1219 C1213 1.428 . S
C1219 N1218 1.351 . S
C1219 C1220 1.434 . S
C1220 C1211 1.429 . S
C1220 N1217 1.350 . S
C1220 C1219 1.434 . S
C1221 C1222 1.369 . S
C1221 C1223 1.419 . S
C1221 H1225 0.930 . S
C1222 C1221 1.369 . S
C1222 C1231 1.429 . S
C1223 C1221 1.419 . S
C1223 C1224 1.363 . S
C1223 H1226 0.929 . S
C1224 C1223 1.363 . S
C1224 C1230 1.428 . S
H1225 C1221 0.930 . S
H1226 C1223 0.929 . S
S1227 N1228 1.613 . S
S1227 N1229 1.610 . S
N1228 S1227 1.613 . S
N1228 C1231 1.350 . S
N1229 S1227 1.610 . S
N1229 C1230 1.351 . S
C1230 C1224 1.428 . S
C1230 N1229 1.351 . S
C1230 C1231 1.434 . S
C1231 C1222 1.429 . S
C1231 N1228 1.350 . S
C1231 C1230 1.434 . S
C1232 C1233 1.369 . S
C1232 C1234 1.419 1_455 S
C1232 H1236 0.930 . S
C1233 C1232 1.369 . S
C1233 C1242 1.429 . S
C1234 C1232 1.419 1_655 S
C1234 C1235 1.363 . S
C1234 H1237 0.929 . S
C1235 C1234 1.363 . S
C1235 C1241 1.428 . S
H1236 C1232 0.930 . S
H1237 C1234 0.929 . S
S1238 N1239 1.613 . S
S1238 N1240 1.610 1_455 S
N1239 S1238 1.613 . S
N1239 C1242 1.350 . S
N1240 S1238 1.610 1_655 S
N1240 C1241 1.351 . S
C1241 C1235 1.428 . S
C1241 N1240 1.351 . S
C1241 C1242 1.434 1_655 S
C1242 C1233 1.429 . S
C1242 N1239 1.350 . S
C1242 C1241 1.434 1_455 S
C1243 C1244 1.369 . S
C1243 C1245 1.419 . S
C1243 H1247 0.930 . S
C1244 C1243 1.369 . S
C1244 C1253 1.429 1_455 S
C1245 C1243 1.419 . S
C1245 C1246 1.363 1_455 S
C1245 H1248 0.929 . S
C1246 C1245 1.363 1_655 S
C1246 C1252 1.428 . S
H1247 C1243 0.930 . S
H1248 C1245 0.929 . S
S1249 N1250 1.613 . S
S1249 N1251 1.610 . S
N1250 S1249 1.613 . S
N1250 C1253 1.350 . S
N1251 S1249 1.610 . S
N1251 C1252 1.351 . S
C1252 C1246 1.428 . S
C1252 N1251 1.351 . S
C1252 C1253 1.434 . S
C1253 C1244 1.429 1_655 S
C1253 N1250 1.350 . S
C1253 C1252 1.434 . S
C1254 C1255 1.369 . S
C1254 C1256 1.419 . S
C1254 H1258 0.930 . S
C1255 C1254 1.369 . S
C1255 C1264 1.429 . S
C1256 C1254 1.419 . S
C1256 C1257 1.363 . S
C1256 H1259 0.929 . S
C1257 C1256 1.363 . S
C1257 C1263 1.428 . S
H1258 C1254 0.930 . S
H1259 C1256 0.929 . S
S1260 N1261 1.613 . S
S1260 N1262 1.610 . S
N1261 S1260 1.613 . S
N1261 C1264 1.350 . S
N1262 S1260 1.610 . S
N1262 C1263 1.351 . S
C1263 C1257 1.428 . S
C1263 N1262 1.351 . S
C1263 C1264 1.434 . S
C1264 C1255 1.429 . S
C1264 N1261 1.350 . S
C1264 C1263 1.434 . S
C1265 C1266 1.369 . S
C1265 C1267 1.419 . S
C1265 H1269 0.930 . S
C1266 C1265 1.369 . S
C1266 C1275 1.429 . S
C1267 C1265 1.419 . S
C1267 C1268 1.363 . S
C1267 H1270 0.929 . S
C1268 C1267 1.363 . S
C1268 C1274 1.428 . S
H1269 C1265 0.930 . S
H1270 C1267 0.929 . S
S1271 N1272 1.613 . S
S1271 N1273 1.610 . S
N1272 S1271 1.613 . S
N1272 C1275 1.350 . S
N1273 S1271 1.610 . S
N1273 C1274 1.351 . S
C1274 C1268 1.428 . S
C1274 N1273 1.351 . S
C1274 C1275 1.434 . S
C1275 C1266 1.429 . S
C1275 N1272 1.350 . S
C1275 C1274 1.434 . S
C1276 C1277 1.369 . S
C1276 C1278 1.419 1_455 S
C1276 H1280 0.930 . S
C1277 C1276 1.369 . S
C1277 C1286 1.429 . S
C1278 C1276 1.419 1_655 S
C1278 C1279 1.363 . S
C1278 H1281 0.929 . S
C1279 C1278 1.363 . S
C1279 C1285 1.428 . S
H1280 C1276 0.930 . S
H1281 C1278 0.929 . S
S1282 N1283 1.613 . S
S1282 N1284 1.610 1_455 S
N1283 S1282 1.613 . S
N1283 C1286 1.350 . S
N1284 S1282 1.610 1_655 S
N1284 C1285 1.351 . S
C1285 C1279 1.428 . S
C1285 N1284 1.351 . S
C1285 C1286 1.434 1_655 S
C1286 C1277 1.429 . S
C1286 N1283 1.350 . S
C1286 C1285 1.434 1_455 S
C1287 C1288 1.369 . S
C1287 C1289 1.419 . S
C1287 H1291 0.930 . S
C1288 C1287 1.369 . S
C1288 C1297 1.429 . S
C1289 C1287 1.419 . S
C1289 C1290 1.363 . S
C1289 H1292 0.929 . S
C1290 C1289 1.363 . S
C1290 C1296 1.428 . S
H1291 C1287 0.930 . S
H1292 C1289 0.929 . S
S1293 N1294 1.613 . S
S1293 N1295 1.610 . S
N1294 S1293 1.613 . S
N1294 C1297 1.350 . S
N1295 S1293 1.610 . S
N1295 C1296 1.351 . S
C1296 C1290 1.428 . S
C1296 N1295 1.351 . S
C1296 C1297 1.434 . S
C1297 C1288 1.429 . S
C1297 N1294 1.350 . S
C1297 C1296 1.434 . S
C1298 C1299 1.369 . S
C1298 C1300 1.419 . S
C1298 H1302 0.930 . S
C1299 C1298 1.369 . S
C1299 C1308 1.429 . S
C1300 C1298 1.419 . S
C1300 C1301 1.363 . S
C1300 H1303 0.929 . S
C1301 C1300 1.363 . S
C1301 C1307 1.428 . S
H1302 C1298 0.930 . S
H1303 C1300 0.929 . S
S1304 N1305 1.613 . S
S1304 N1306 1.610 . S
N1305 S1304 1.613 . S
N1305 C1308 1.350 . S
N1306 S1304 1.610 . S
N1306 C1307 1.351 . S
C1307 C1301 1.428 . S
C1307 N1306 1.351 . S
C1307 C1308 1.434 . S
C1308 C1299 1.429 . S
C1308 N1305 1.350 . S
C1308 C1307 1.434 . S
C1309 C1310 1.369 . S
C1309 C1311 1.419 . S
C1309 H1313 0.930 . S
C1310 C1309 1.369 . S
C1310 C1319 1.429 1_455 S
C1311 C1309 1.419 . S
C1311 C1312 1.363 1_455 S
C1311 H1314 0.929 . S
C1312 C1311 1.363 1_655 S
C1312 C1318 1.428 . S
H1313 C1309 0.930 . S
H1314 C1311 0.929 . S
S1315 N1316 1.613 . S
S1315 N1317 1.610 . S
N1316 S1315 1.613 . S
N1316 C1319 1.350 . S
N1317 S1315 1.610 . S
N1317 C1318 1.351 . S
C1318 C1312 1.428 . S
C1318 N1317 1.351 . S
C1318 C1319 1.434 . S
C1319 C1310 1.429 1_655 S
C1319 N1316 1.350 . S
C1319 C1318 1.434 . S
C1320 C1321 1.369 . S
C1320 C1322 1.419 1_455 S
C1320 H1324 0.930 . S
C1321 C1320 1.369 . S
C1321 C1330 1.429 . S
C1322 C1320 1.419 1_655 S
C1322 C1323 1.363 . S
C1322 H1325 0.929 . S
C1323 C1322 1.363 . S
C1323 C1329 1.428 . S
H1324 C1320 0.930 . S
H1325 C1322 0.929 . S
S1326 N1327 1.613 . S
S1326 N1328 1.610 1_455 S
N1327 S1326 1.613 . S
N1327 C1330 1.350 . S
N1328 S1326 1.610 1_655 S
N1328 C1329 1.351 . S
C1329 C1323 1.428 . S
C1329 N1328 1.351 . S
C1329 C1330 1.434 1_655 S
C1330 C1321 1.429 . S
C1330 N1327 1.350 . S
C1330 C1329 1.434 1_455 S
C1331 C1332 1.369 . S
C1331 C1333 1.419 . S
C1331 H1335 0.930 . S
C1332 C1331 1.369 . S
C1332 C1341 1.429 1_655 S
C1333 C1331 1.419 . S
C1333 C1334 1.363 1_655 S
C1333 H1336 0.929 . S
C1334 C1333 1.363 1_455 S
C1334 C1340 1.428 . S
H1335 C1331 0.930 . S
H1336 C1333 0.929 . S
S1337 N1338 1.613 . S
S1337 N1339 1.610 . S
N1338 S1337 1.613 . S
N1338 C1341 1.350 . S
N1339 S1337 1.610 . S
N1339 C1340 1.351 . S
C1340 C1334 1.428 . S
C1340 N1339 1.351 . S
C1340 C1341 1.434 . S
C1341 C1332 1.429 1_455 S
C1341 N1338 1.350 . S
C1341 C1340 1.434 . S
C1342 C1343 1.369 . S
C1342 C1344 1.419 . S
C1342 H1346 0.930 . S
C1343 C1342 1.369 . S
C1343 C1352 1.429 . S
C1344 C1342 1.419 . S
C1344 C1345 1.363 . S
C1344 H1347 0.929 . S
C1345 C1344 1.363 . S
C1345 C1351 1.428 . S
H1346 C1342 0.930 . S
H1347 C1344 0.929 . S
S1348 N1349 1.613 . S
S1348 N1350 1.610 . S
N1349 S1348 1.613 . S
N1349 C1352 1.350 . S
N1350 S1348 1.610 . S
N1350 C1351 1.351 . S
C1351 C1345 1.428 . S
C1351 N1350 1.351 . S
C1351 C1352 1.434 . S
C1352 C1343 1.429 . S
C1352 N1349 1.350 . S
C1352 C1351 1.434 . S
C1353 C1354 1.369 . S
C1353 C1355 1.419 . S
C1353 H1357 0.930 . S
C1354 C1353 1.369 . S
C1354 C1363 1.429 . S
C1355 C1353 1.419 . S
C1355 C1356 1.363 . S
C1355 H1358 0.929 . S
C1356 C1355 1.363 . S
C1356 C1362 1.428 . S
H1357 C1353 0.930 . S
H1358 C1355 0.929 . S
S1359 N1360 1.613 . S
S1359 N1361 1.610 . S
N1360 S1359 1.613 . S
N1360 C1363 1.350 . S
N1361 S1359 1.610 . S
N1361 C1362 1.351 . S
C1362 C1356 1.428 . S
C1362 N1361 1.351 . S
C1362 C1363 1.434 . S
C1363 C1354 1.429 . S
C1363 N1360 1.350 . S
C1363 C1362 1.434 . S
C1364 C1365 1.369 . S
C1364 C1366 1.419 1_655 S
C1364 H1368 0.930 . S
C1365 C1364 1.369 . S
C1365 C1374 1.429 . S
C1366 C1364 1.419 1_455 S
C1366 C1367 1.363 . S
C1366 H1369 0.929 . S
C1367 C1366 1.363 . S
C1367 C1373 1.428 . S
H1368 C1364 0.930 . S
H1369 C1366 0.929 . S
S1370 N1371 1.613 1_455 S
S1370 N1372 1.610 . S
N1371 S1370 1.613 1_655 S
N1371 C1374 1.350 . S
N1372 S1370 1.610 . S
N1372 C1373 1.351 . S
C1373 C1367 1.428 . S
C1373 N1372 1.351 . S
C1373 C1374 1.434 1_455 S
C1374 C1365 1.429 . S
C1374 N1371 1.350 . S
C1374 C1373 1.434 1_655 S
C1375 C1376 1.369 . S
C1375 C1377 1.419 . S
C1375 H1379 0.930 . S
C1376 C1375 1.369 . S
C1376 C1385 1.429 . S
C1377 C1375 1.419 . S
C1377 C1378 1.363 . S
C1377 H1380 0.929 . S
C1378 C1377 1.363 . S
C1378 C1384 1.428 . S
H1379 C1375 0.930 . S
H1380 C1377 0.929 . S
S1381 N1382 1.613 . S
S1381 N1383 1.610 . S
N1382 S1381 1.613 . S
N1382 C1385 1.350 . S
N1383 S1381 1.610 . S
N1383 C1384 1.351 . S
C1384 C1378 1.428 . S
C1384 N1383 1.351 . S
C1384 C1385 1.434 . S
C1385 C1376 1.429 . S
C1385 N1382 1.350 . S
C1385 C1384 1.434 . S
C1386 C1387 1.369 . S
C1386 C1388 1.419 . S
C1386 H1390 0.930 . S
C1387 C1386 1.369 . S
C1387 C1396 1.429 . S
C1388 C1386 1.419 . S
C1388 C1389 1.363 . S
C1388 H1391 0.929 . S
C1389 C1388 1.363 . S
C1389 C1395 1.428 . S
H1390 C1386 0.930 . S
H1391 C1388 0.929 . S
S1392 N1393 1.613 . S
S1392 N1394 1.610 . S
N1393 S1392 1.613 . S
N1393 C1396 1.350 . S
N1394 S1392 1.610 . S
N1394 C1395 1.351 . S
C1395 C1389 1.428 . S
C1395 N1394 1.351 . S
C1395 C1396 1.434 . S
C1396 C1387 1.429 . S
C1396 N1393 1.350 . S
C1396 C1395 1.434 . S
C1397 C1398 1.369 1_455 S
C1397 C1399 1.419 . S
C1397 H1401 0.930 . S
C1398 C1397 1.369 1_655 S
C1398 C1407 1.429 . S
C1399 C1397 1.419 . S
C1399 C1400 1.363 . S
C1399 H1402 0.929 . S
C1400 C1399 1.363 . S
C1400 C1406 1.428 1_455 S
H1401 C1397 0.930 . S
H1402 C1399 0.929 . S
S1403 N1404 1.613 . S
S1403 N1405 1.610 . S
N1404 S1403 1.613 . S
N1404 C1407 1.350 . S
N1405 S1403 1.610 . S
N1405 C1406 1.351 . S
C1406 C1400 1.428 1_655 S
C1406 N1405 1.351 . S
C1406 C1407 1.434 . S
C1407 C1398 1.429 . S
C1407 N1404 1.350 . S
C1407 C1406 1.434 . S
C1408 C1409 1.369 . S
C1408 C1410 1.419 1_565 S
C1408 H1412 0.930 . S
C1409 C1408 1.369 . S
C1409 C1418 1.429 1_565 S
C1410 C1408 1.419 1_545 S
C1410 C1411 1.363 . S
C1410 H1413 0.929 1_545 S
C1411 C1410 1.363 . S
C1411 C1417 1.428 . S
H1412 C1408 0.930 . S
H1413 C1410 0.929 1_565 S
S1414 N1415 1.613 . S
S1414 N1416 1.610 . S
N1415 S1414 1.613 . S
N1415 C1418 1.350 . S
N1416 S1414 1.610 . S
N1416 C1417 1.351 . S
C1417 C1411 1.428 . S
C1417 N1416 1.351 . S
C1417 C1418 1.434 . S
C1418 C1409 1.429 1_545 S
C1418 N1415 1.350 . S
C1418 C1417 1.434 . S
C1419 C1420 1.369 . S
C1419 C1421 1.419 . S
C1419 H1423 0.930 . S
C1420 C1419 1.369 . S
C1420 C1429 1.429 . S
C1421 C1419 1.419 . S
C1421 C1422 1.363 . S
C1421 H1424 0.929 . S
C1422 C1421 1.363 . S
C1422 C1428 1.428 . S
H1423 C1419 0.930 . S
H1424 C1421 0.929 . S
S1425 N1426 1.613 . S
S1425 N1427 1.610 . S
N1426 S1425 1.613 . S
N1426 C1429 1.350 . S
N1427 S1425 1.610 . S
N1427 C1428 1.351 . S
C1428 C1422 1.428 . S
C1428 N1427 1.351 . S
C1428 C1429 1.434 . S
C1429 C1420 1.429 . S
C1429 N1426 1.350 . S
C1429 C1428 1.434 . S
C1430 C1431 1.369 . S
C1430 C1432 1.419 1_565 S
C1430 H1434 0.930 1_565 S
C1431 C1430 1.369 . S
C1431 C1440 1.429 . S
C1432 C1430 1.419 1_545 S
C1432 C1433 1.363 . S
C1432 H1435 0.929 . S
C1433 C1432 1.363 . S
C1433 C1439 1.428 1_545 S
H1434 C1430 0.930 1_545 S
H1435 C1432 0.929 . S
S1436 N1437 1.613 . S
S1436 N1438 1.610 . S
N1437 S1436 1.613 . S
N1437 C1440 1.350 . S
N1438 S1436 1.610 . S
N1438 C1439 1.351 . S
C1439 C1433 1.428 1_565 S
C1439 N1438 1.351 . S
C1439 C1440 1.434 . S
C1440 C1431 1.429 . S
C1440 N1437 1.350 . S
C1440 C1439 1.434 . S
C1441 C1442 1.369 . S
C1441 C1443 1.419 . S
C1441 H1445 0.930 . S
C1442 C1441 1.369 . S
C1442 C1451 1.429 . S
C1443 C1441 1.419 . S
C1443 C1444 1.363 . S
C1443 H1446 0.929 . S
C1444 C1443 1.363 . S
C1444 C1450 1.428 . S
H1445 C1441 0.930 . S
H1446 C1443 0.929 . S
S1447 N1448 1.613 . S
S1447 N1449 1.610 . S
N1448 S1447 1.613 . S
N1448 C1451 1.350 . S
N1449 S1447 1.610 . S
N1449 C1450 1.351 . S
C1450 C1444 1.428 . S
C1450 N1449 1.351 . S
C1450 C1451 1.434 . S
C1451 C1442 1.429 . S
C1451 N1448 1.350 . S
C1451 C1450 1.434 . S
C1452 C1453 1.369 . S
C1452 C1454 1.419 . S
C1452 H1456 0.930 . S
C1453 C1452 1.369 . S
C1453 C1462 1.429 1_545 S
C1454 C1452 1.419 . S
C1454 C1455 1.363 1_545 S
C1454 H1457 0.929 . S
C1455 C1454 1.363 1_565 S
C1455 C1461 1.428 . S
H1456 C1452 0.930 . S
H1457 C1454 0.929 . S
S1458 N1459 1.613 . S
S1458 N1460 1.610 . S
N1459 S1458 1.613 . S
N1459 C1462 1.350 . S
N1460 S1458 1.610 . S
N1460 C1461 1.351 . S
C1461 C1455 1.428 . S
C1461 N1460 1.351 . S
C1461 C1462 1.434 . S
C1462 C1453 1.429 1_565 S
C1462 N1459 1.350 . S
C1462 C1461 1.434 . S
C1463 C1464 1.369 . S
C1463 C1465 1.419 . S
C1463 H1467 0.930 . S
C1464 C1463 1.369 . S
C1464 C1473 1.429 . S
C1465 C1463 1.419 . S
C1465 C1466 1.363 . S
C1465 H1468 0.929 . S
C1466 C1465 1.363 . S
C1466 C1472 1.428 . S
H1467 C1463 0.930 . S
H1468 C1465 0.929 . S
S1469 N1470 1.613 . S
S1469 N1471 1.610 . S
N1470 S1469 1.613 . S
N1470 C1473 1.350 . S
N1471 S1469 1.610 . S
N1471 C1472 1.351 . S
C1472 C1466 1.428 . S
C1472 N1471 1.351 . S
C1472 C1473 1.434 . S
C1473 C1464 1.429 . S
C1473 N1470 1.350 . S
C1473 C1472 1.434 . S
C1474 C1475 1.369 . S
C1474 C1476 1.419 1_565 S
C1474 H1478 0.930 . S
C1475 C1474 1.369 . S
C1475 C1484 1.429 1_565 S
C1476 C1474 1.419 1_545 S
C1476 C1477 1.363 . S
C1476 H1479 0.929 1_545 S
C1477 C1476 1.363 . S
C1477 C1483 1.428 . S
H1478 C1474 0.930 . S
H1479 C1476 0.929 1_565 S
S1480 N1481 1.613 . S
S1480 N1482 1.610 . S
N1481 S1480 1.613 . S
N1481 C1484 1.350 . S
N1482 S1480 1.610 . S
N1482 C1483 1.351 . S
C1483 C1477 1.428 . S
C1483 N1482 1.351 . S
C1483 C1484 1.434 . S
C1484 C1475 1.429 1_545 S
C1484 N1481 1.350 . S
C1484 C1483 1.434 . S
C1485 C1486 1.369 . S
C1485 C1487 1.419 . S
C1485 H1489 0.930 . S
C1486 C1485 1.369 . S
C1486 C1495 1.429 . S
C1487 C1485 1.419 . S
C1487 C1488 1.363 . S
C1487 H1490 0.929 . S
C1488 C1487 1.363 . S
C1488 C1494 1.428 . S
H1489 C1485 0.930 . S
H1490 C1487 0.929 . S
S1491 N1492 1.613 . S
S1491 N1493 1.610 . S
N1492 S1491 1.613 . S
N1492 C1495 1.350 . S
N1493 S1491 1.610 . S
N1493 C1494 1.351 . S
C1494 C1488 1.428 . S
C1494 N1493 1.351 . S
C1494 C1495 1.434 . S
C1495 C1486 1.429 . S
C1495 N1492 1.350 . S
C1495 C1494 1.434 . S
C1496 C1497 1.369 . S
C1496 C1498 1.419 . S
C1496 H1500 0.930 . S
C1497 C1496 1.369 . S
C1497 C1506 1.429 1_565 S
C1498 C1496 1.419 . S
C1498 C1499 1.363 1_565 S
C1498 H1501 0.929 . S
C1499 C1498 1.363 1_545 S
C1499 C1505 1.428 . S
H1500 C1496 0.930 . S
H1501 C1498 0.929 . S
S1502 N1503 1.613 . S
S1502 N1504 1.610 . S
N1503 S1502 1.613 . S
N1503 C1506 1.350 . S
N1504 S1502 1.610 . S
N1504 C1505 1.351 . S
C1505 C1499 1.428 . S
C1505 N1504 1.351 . S
C1505 C1506 1.434 . S
C1506 C1497 1.429 1_545 S
C1506 N1503 1.350 . S
C1506 C1505 1.434 . S
C1507 C1508 1.369 . S
C1507 C1509 1.419 . S
C1507 H1511 0.930 . S
C1508 C1507 1.369 . S
C1508 C1517 1.429 . S
C1509 C1507 1.419 . S
C1509 C1510 1.363 . S
C1509 H1512 0.929 . S
C1510 C1509 1.363 . S
C1510 C1516 1.428 . S
H1511 C1507 0.930 . S
H1512 C1509 0.929 . S
S1513 N1514 1.613 . S
S1513 N1515 1.610 . S
N1514 S1513 1.613 . S
N1514 C1517 1.350 . S
N1515 S1513 1.610 . S
N1515 C1516 1.351 . S
C1516 C1510 1.428 . S
C1516 N1515 1.351 . S
C1516 C1517 1.434 . S
C1517 C1508 1.429 . S
C1517 N1514 1.350 . S
C1517 C1516 1.434 . S
C1518 C1519 1.369 1_545 S
C1518 C1520 1.419 . S
C1518 H1522 0.930 . S
C1519 C1518 1.369 1_565 S
C1519 C1528 1.429 . S
C1520 C1518 1.419 . S
C1520 C1521 1.363 . S
C1520 H1523 0.929 . S
C1521 C1520 1.363 . S
C1521 C1527 1.428 1_545 S
H1522 C1518 0.930 . S
H1523 C1520 0.929 . S
S1524 N1525 1.613 . S
S1524 N1526 1.610 . S
N1525 S1524 1.613 . S
N1525 C1528 1.350 . S
N1526 S1524 1.610 . S
N1526 C1527 1.351 . S
C1527 C1521 1.428 1_565 S
C1527 N1526 1.351 . S
C1527 C1528 1.434 . S
C1528 C1519 1.429 . S
C1528 N1525 1.350 . S
C1528 C1527 1.434 . S
C1529 C1530 1.369 . S
C1529 C1531 1.419 . S
C1529 H1533 0.930 . S
C1530 C1529 1.369 . S
C1530 C1539 1.429 . S
C1531 C1529 1.419 . S
C1531 C1532 1.363 . S
C1531 H1534 0.929 . S
C1532 C1531 1.363 . S
C1532 C1538 1.428 . S
H1533 C1529 0.930 . S
H1534 C1531 0.929 . S
S1535 N1536 1.613 . S
S1535 N1537 1.610 . S
N1536 S1535 1.613 . S
N1536 C1539 1.350 . S
N1537 S1535 1.610 . S
N1537 C1538 1.351 . S
C1538 C1532 1.428 . S
C1538 N1537 1.351 . S
C1538 C1539 1.434 . S
C1539 C1530 1.429 . S
C1539 N1536 1.350 . S
C1539 C1538 1.434 . S
C1540 C1541 1.369 . S
C1540 C1542 1.419 . S
C1540 H1544 0.930 . S
C1541 C1540 1.369 . S
C1541 C1550 1.429 1_565 S
C1542 C1540 1.419 . S
C1542 C1543 1.363 1_565 S
C1542 H1545 0.929 . S
C1543 C1542 1.363 1_545 S
C1543 C1549 1.428 . S
H1544 C1540 0.930 . S
H1545 C1542 0.929 . S
S1546 N1547 1.613 . S
S1546 N1548 1.610 . S
N1547 S1546 1.613 . S
N1547 C1550 1.350 . S
N1548 S1546 1.610 . S
N1548 C1549 1.351 . S
C1549 C1543 1.428 . S
C1549 N1548 1.351 . S
C1549 C1550 1.434 . S
C1550 C1541 1.429 1_545 S
C1550 N1547 1.350 . S
C1550 C1549 1.434 . S
C1551 C1552 1.369 . S
C1551 C1553 1.419 . S
C1551 H1555 0.930 . S
C1552 C1551 1.369 . S
C1552 C1561 1.429 . S
C1553 C1551 1.419 . S
C1553 C1554 1.363 . S
C1553 H1556 0.929 . S
C1554 C1553 1.363 . S
C1554 C1560 1.428 . S
H1555 C1551 0.930 . S
H1556 C1553 0.929 . S
S1557 N1558 1.613 . S
S1557 N1559 1.610 . S
N1558 S1557 1.613 . S
N1558 C1561 1.350 . S
N1559 S1557 1.610 . S
N1559 C1560 1.351 . S
C1560 C1554 1.428 . S
C1560 N1559 1.351 . S
C1560 C1561 1.434 . S
C1561 C1552 1.429 . S
C1561 N1558 1.350 . S
C1561 C1560 1.434 . S
C1562 C1563 1.369 . S
C1562 C1564 1.419 . S
C1562 H1566 0.930 . S
C1563 C1562 1.369 . S
C1563 C1572 1.429 1_545 S
C1564 C1562 1.419 . S
C1564 C1565 1.363 1_545 S
C1564 H1567 0.929 . S
C1565 C1564 1.363 1_565 S
C1565 C1571 1.428 . S
H1566 C1562 0.930 . S
H1567 C1564 0.929 . S
S1568 N1569 1.613 . S
S1568 N1570 1.610 . S
N1569 S1568 1.613 . S
N1569 C1572 1.350 . S
N1570 S1568 1.610 . S
N1570 C1571 1.351 . S
C1571 C1565 1.428 . S
C1571 N1570 1.351 . S
C1571 C1572 1.434 . S
C1572 C1563 1.429 1_565 S
C1572 N1569 1.350 . S
C1572 C1571 1.434 . S
C1573 C1574 1.369 . S
C1573 C1575 1.419 . S
C1573 H1577 0.930 . S
C1574 C1573 1.369 . S
C1574 C1583 1.429 . S
C1575 C1573 1.419 . S
C1575 C1576 1.363 . S
C1575 H1578 0.929 . S
C1576 C1575 1.363 . S
C1576 C1582 1.428 . S
H1577 C1573 0.930 . S
H1578 C1575 0.929 . S
S1579 N1580 1.613 . S
S1579 N1581 1.610 . S
N1580 S1579 1.613 . S
N1580 C1583 1.350 . S
N1581 S1579 1.610 . S
N1581 C1582 1.351 . S
C1582 C1576 1.428 . S
C1582 N1581 1.351 . S
C1582 C1583 1.434 . S
C1583 C1574 1.429 . S
C1583 N1580 1.350 . S
C1583 C1582 1.434 . S
C1584 C1585 1.369 . S
C1584 C1586 1.419 . S
C1584 H1588 0.930 . S
C1585 C1584 1.369 . S
C1585 C1594 1.429 . S
C1586 C1584 1.419 . S
C1586 C1587 1.363 . S
C1586 H1589 0.929 . S
C1587 C1586 1.363 . S
C1587 C1593 1.428 . S
H1588 C1584 0.930 . S
H1589 C1586 0.929 . S
S1590 N1591 1.613 . S
S1590 N1592 1.610 . S
N1591 S1590 1.613 . S
N1591 C1594 1.350 . S
N1592 S1590 1.610 . S
N1592 C1593 1.351 . S
C1593 C1587 1.428 . S
C1593 N1592 1.351 . S
C1593 C1594 1.434 . S
C1594 C1585 1.429 . S
C1594 N1591 1.350 . S
C1594 C1593 1.434 . S
C1595 C1596 1.369 . S
C1595 C1597 1.419 . S
C1595 H1599 0.930 . S
C1596 C1595 1.369 . S
C1596 C1605 1.429 . S
C1597 C1595 1.419 . S
C1597 C1598 1.363 . S
C1597 H1600 0.929 . S
C1598 C1597 1.363 . S
C1598 C1604 1.428 . S
H1599 C1595 0.930 . S
H1600 C1597 0.929 . S
S1601 N1602 1.613 . S
S1601 N1603 1.610 . S
N1602 S1601 1.613 . S
N1602 C1605 1.350 . S
N1603 S1601 1.610 . S
N1603 C1604 1.351 . S
C1604 C1598 1.428 . S
C1604 N1603 1.351 . S
C1604 C1605 1.434 . S
C1605 C1596 1.429 . S
C1605 N1602 1.350 . S
C1605 C1604 1.434 . S
C1606 C1607 1.369 . S
C1606 C1608 1.419 . S
C1606 H1610 0.930 . S
C1607 C1606 1.369 . S
C1607 C1616 1.429 . S
C1608 C1606 1.419 . S
C1608 C1609 1.363 . S
C1608 H1611 0.929 . S
C1609 C1608 1.363 . S
C1609 C1615 1.428 . S
H1610 C1606 0.930 . S
H1611 C1608 0.929 . S
S1612 N1613 1.613 . S
S1612 N1614 1.610 . S
N1613 S1612 1.613 . S
N1613 C1616 1.350 . S
N1614 S1612 1.610 . S
N1614 C1615 1.351 . S
C1615 C1609 1.428 . S
C1615 N1614 1.351 . S
C1615 C1616 1.434 . S
C1616 C1607 1.429 . S
C1616 N1613 1.350 . S
C1616 C1615 1.434 . S
C1617 C1618 1.369 . S
C1617 C1619 1.419 . S
C1617 H1621 0.930 . S
C1618 C1617 1.369 . S
C1618 C1627 1.429 . S
C1619 C1617 1.419 . S
C1619 C1620 1.363 . S
C1619 H1622 0.929 . S
C1620 C1619 1.363 . S
C1620 C1626 1.428 . S
H1621 C1617 0.930 . S
H1622 C1619 0.929 . S
S1623 N1624 1.613 . S
S1623 N1625 1.610 . S
N1624 S1623 1.613 . S
N1624 C1627 1.350 . S
N1625 S1623 1.610 . S
N1625 C1626 1.351 . S
C1626 C1620 1.428 . S
C1626 N1625 1.351 . S
C1626 C1627 1.434 . S
C1627 C1618 1.429 . S
C1627 N1624 1.350 . S
C1627 C1626 1.434 . S
C1628 C1629 1.369 . S
C1628 C1630 1.419 . S
C1628 H1632 0.930 . S
C1629 C1628 1.369 . S
C1629 C1638 1.429 . S
C1630 C1628 1.419 . S
C1630 C1631 1.363 . S
C1630 H1633 0.929 . S
C1631 C1630 1.363 . S
C1631 C1637 1.428 . S
H1632 C1628 0.930 . S
H1633 C1630 0.929 . S
S1634 N1635 1.613 . S
S1634 N1636 1.610 . S
N1635 S1634 1.613 . S
N1635 C1638 1.350 . S
N1636 S1634 1.610 . S
N1636 C1637 1.351 . S
C1637 C1631 1.428 . S
C1637 N1636 1.351 . S
C1637 C1638 1.434 . S
C1638 C1629 1.429 . S
C1638 N1635 1.350 . S
C1638 C1637 1.434 . S
C1639 C1640 1.369 . S
C1639 C1641 1.419 . S
C1639 H1643 0.930 . S
C1640 C1639 1.369 . S
C1640 C1649 1.429 . S
C1641 C1639 1.419 . S
C1641 C1642 1.363 . S
C1641 H1644 0.929 . S
C1642 C1641 1.363 . S
C1642 C1648 1.428 . S
H1643 C1639 0.930 . S
H1644 C1641 0.929 . S
S1645 N1646 1.613 . S
S1645 N1647 1.610 . S
N1646 S1645 1.613 . S
N1646 C1649 1.350 . S
N1647 S1645 1.610 . S
N1647 C1648 1.351 . S
C1648 C1642 1.428 . S
C1648 N1647 1.351 . S
C1648 C1649 1.434 . S
C1649 C1640 1.429 . S
C1649 N1646 1.350 . S
C1649 C1648 1.434 . S
C1650 C1651 1.369 . S
C1650 C1652 1.419 . S
C1650 H1654 0.930 . S
C1651 C1650 1.369 . S
C1651 C1660 1.429 . S
C1652 C1650 1.419 . S
C1652 C1653 1.363 . S
C1652 H1655 0.929 . S
C1653 C1652 1.363 . S
C1653 C1659 1.428 . S
H1654 C1650 0.930 . S
H1655 C1652 0.929 . S
S1656 N1657 1.613 . S
S1656 N1658 1.610 . S
N1657 S1656 1.613 . S
N1657 C1660 1.350 . S
N1658 S1656 1.610 . S
N1658 C1659 1.351 . S
C1659 C1653 1.428 . S
C1659 N1658 1.351 . S
C1659 C1660 1.434 . S
C1660 C1651 1.429 . S
C1660 N1657 1.350 . S
C1660 C1659 1.434 . S
C1661 C1662 1.369 . S
C1661 C1663 1.419 . S
C1661 H1665 0.930 . S
C1662 C1661 1.369 . S
C1662 C1671 1.429 . S
C1663 C1661 1.419 . S
C1663 C1664 1.363 . S
C1663 H1666 0.929 . S
C1664 C1663 1.363 . S
C1664 C1670 1.428 . S
H1665 C1661 0.930 . S
H1666 C1663 0.929 . S
S1667 N1668 1.613 . S
S1667 N1669 1.610 . S
N1668 S1667 1.613 . S
N1668 C1671 1.350 . S
N1669 S1667 1.610 . S
N1669 C1670 1.351 . S
C1670 C1664 1.428 . S
C1670 N1669 1.351 . S
C1670 C1671 1.434 . S
C1671 C1662 1.429 . S
C1671 N1668 1.350 . S
C1671 C1670 1.434 . S
C1672 C1673 1.369 . S
C1672 C1674 1.419 . S
C1672 H1676 0.930 . S
C1673 C1672 1.369 . S
C1673 C1682 1.429 . S
C1674 C1672 1.419 . S
C1674 C1675 1.363 . S
C1674 H1677 0.929 . S
C1675 C1674 1.363 . S
C1675 C1681 1.428 . S
H1676 C1672 0.930 . S
H1677 C1674 0.929 . S
S1678 N1679 1.613 . S
S1678 N1680 1.610 . S
N1679 S1678 1.613 . S
N1679 C1682 1.350 . S
N1680 S1678 1.610 . S
N1680 C1681 1.351 . S
C1681 C1675 1.428 . S
C1681 N1680 1.351 . S
C1681 C1682 1.434 . S
C1682 C1673 1.429 . S
C1682 N1679 1.350 . S
C1682 C1681 1.434 . S
C1683 C1684 1.369 . S
C1683 C1685 1.419 . S
C1683 H1687 0.930 . S
C1684 C1683 1.369 . S
C1684 C1693 1.429 . S
C1685 C1683 1.419 . S
C1685 C1686 1.363 . S
C1685 H1688 0.929 . S
C1686 C1685 1.363 . S
C1686 C1692 1.428 . S
H1687 C1683 0.930 . S
H1688 C1685 0.929 . S
S1689 N1690 1.613 . S
S1689 N1691 1.610 . S
N1690 S1689 1.613 . S
N1690 C1693 1.350 . S
N1691 S1689 1.610 . S
N1691 C1692 1.351 . S
C1692 C1686 1.428 . S
C1692 N1691 1.351 . S
C1692 C1693 1.434 . S
C1693 C1684 1.429 . S
C1693 N1690 1.350 . S
C1693 C1692 1.434 . S
C1694 C1695 1.369 . S
C1694 C1696 1.419 . S
C1694 H1698 0.930 . S
C1695 C1694 1.369 . S
C1695 C1704 1.429 . S
C1696 C1694 1.419 . S
C1696 C1697 1.363 . S
C1696 H1699 0.929 . S
C1697 C1696 1.363 . S
C1697 C1703 1.428 . S
H1698 C1694 0.930 . S
H1699 C1696 0.929 . S
S1700 N1701 1.613 . S
S1700 N1702 1.610 . S
N1701 S1700 1.613 . S
N1701 C1704 1.350 . S
N1702 S1700 1.610 . S
N1702 C1703 1.351 . S
C1703 C1697 1.428 . S
C1703 N1702 1.351 . S
C1703 C1704 1.434 . S
C1704 C1695 1.429 . S
C1704 N1701 1.350 . S
C1704 C1703 1.434 . S
C1705 C1706 1.369 . S
C1705 C1707 1.419 . S
C1705 H1709 0.930 . S
C1706 C1705 1.369 . S
C1706 C1715 1.429 . S
C1707 C1705 1.419 . S
C1707 C1708 1.363 . S
C1707 H1710 0.929 . S
C1708 C1707 1.363 . S
C1708 C1714 1.428 . S
H1709 C1705 0.930 . S
H1710 C1707 0.929 . S
S1711 N1712 1.613 . S
S1711 N1713 1.610 . S
N1712 S1711 1.613 . S
N1712 C1715 1.350 . S
N1713 S1711 1.610 . S
N1713 C1714 1.351 . S
C1714 C1708 1.428 . S
C1714 N1713 1.351 . S
C1714 C1715 1.434 . S
C1715 C1706 1.429 . S
C1715 N1712 1.350 . S
C1715 C1714 1.434 . S
C1716 C1717 1.369 . S
C1716 C1718 1.419 . S
C1716 H1720 0.930 . S
C1717 C1716 1.369 . S
C1717 C1726 1.429 . S
C1718 C1716 1.419 . S
C1718 C1719 1.363 . S
C1718 H1721 0.929 . S
C1719 C1718 1.363 . S
C1719 C1725 1.428 . S
H1720 C1716 0.930 . S
H1721 C1718 0.929 . S
S1722 N1723 1.613 . S
S1722 N1724 1.610 . S
N1723 S1722 1.613 . S
N1723 C1726 1.350 . S
N1724 S1722 1.610 . S
N1724 C1725 1.351 . S
C1725 C1719 1.428 . S
C1725 N1724 1.351 . S
C1725 C1726 1.434 . S
C1726 C1717 1.429 . S
C1726 N1723 1.350 . S
C1726 C1725 1.434 . S
C1727 C1728 1.369 . S
C1727 C1729 1.419 . S
C1727 H1731 0.930 . S
C1728 C1727 1.369 . S
C1728 C1737 1.429 . S
C1729 C1727 1.419 . S
C1729 C1730 1.363 . S
C1729 H1732 0.929 . S
C1730 C1729 1.363 . S
C1730 C1736 1.428 . S
H1731 C1727 0.930 . S
H1732 C1729 0.929 . S
S1733 N1734 1.613 . S
S1733 N1735 1.610 . S
N1734 S1733 1.613 . S
N1734 C1737 1.350 . S
N1735 S1733 1.610 . S
N1735 C1736 1.351 . S
C1736 C1730 1.428 . S
C1736 N1735 1.351 . S
C1736 C1737 1.434 . S
C1737 C1728 1.429 . S
C1737 N1734 1.350 . S
C1737 C1736 1.434 . S
C1738 C1739 1.369 . S
C1738 C1740 1.419 . S
C1738 H1742 0.930 . S
C1739 C1738 1.369 . S
C1739 C1748 1.429 . S
C1740 C1738 1.419 . S
C1740 C1741 1.363 . S
C1740 H1743 0.929 . S
C1741 C1740 1.363 . S
C1741 C1747 1.428 . S
H1742 C1738 0.930 . S
H1743 C1740 0.929 . S
S1744 N1745 1.613 . S
S1744 N1746 1.610 . S
N1745 S1744 1.613 . S
N1745 C1748 1.350 . S
N1746 S1744 1.610 . S
N1746 C1747 1.351 . S
C1747 C1741 1.428 . S
C1747 N1746 1.351 . S
C1747 C1748 1.434 . S
C1748 C1739 1.429 . S
C1748 N1745 1.350 . S
C1748 C1747 1.434 . S
C1749 C1750 1.369 . S
C1749 C1751 1.419 . S
C1749 H1753 0.930 . S
C1750 C1749 1.369 . S
C1750 C1759 1.429 . S
C1751 C1749 1.419 . S
C1751 C1752 1.363 . S
C1751 H1754 0.929 . S
C1752 C1751 1.363 . S
C1752 C1758 1.428 . S
H1753 C1749 0.930 . S
H1754 C1751 0.929 . S
S1755 N1756 1.613 . S
S1755 N1757 1.610 . S
N1756 S1755 1.613 . S
N1756 C1759 1.350 . S
N1757 S1755 1.610 . S
N1757 C1758 1.351 . S
C1758 C1752 1.428 . S
C1758 N1757 1.351 . S
C1758 C1759 1.434 . S
C1759 C1750 1.429 . S
C1759 N1756 1.350 . S
C1759 C1758 1.434 . S
C1760 C1761 1.369 . S
C1760 C1762 1.419 . S
C1760 H1764 0.930 . S
C1761 C1760 1.369 . S
C1761 C1770 1.429 . S
C1762 C1760 1.419 . S
C1762 C1763 1.363 . S
C1762 H1765 0.929 . S
C1763 C1762 1.363 . S
C1763 C1769 1.428 . S
H1764 C1760 0.930 . S
H1765 C1762 0.929 . S
S1766 N1767 1.613 . S
S1766 N1768 1.610 . S
N1767 S1766 1.613 . S
N1767 C1770 1.350 . S
N1768 S1766 1.610 . S
N1768 C1769 1.351 . S
C1769 C1763 1.428 . S
C1769 N1768 1.351 . S
C1769 C1770 1.434 . S
C1770 C1761 1.429 . S
C1770 N1767 1.350 . S
C1770 C1769 1.434 . S
C1771 C1772 1.369 . S
C1771 C1773 1.419 . S
C1771 H1775 0.930 . S
C1772 C1771 1.369 . S
C1772 C1781 1.429 . S
C1773 C1771 1.419 . S
C1773 C1774 1.363 . S
C1773 H1776 0.929 . S
C1774 C1773 1.363 . S
C1774 C1780 1.428 . S
H1775 C1771 0.930 . S
H1776 C1773 0.929 . S
S1777 N1778 1.613 . S
S1777 N1779 1.610 . S
N1778 S1777 1.613 . S
N1778 C1781 1.350 . S
N1779 S1777 1.610 . S
N1779 C1780 1.351 . S
C1780 C1774 1.428 . S
C1780 N1779 1.351 . S
C1780 C1781 1.434 . S
C1781 C1772 1.429 . S
C1781 N1778 1.350 . S
C1781 C1780 1.434 . S
C1782 C1783 1.369 . S
C1782 C1784 1.419 . S
C1782 H1786 0.930 . S
C1783 C1782 1.369 . S
C1783 C1792 1.429 . S
C1784 C1782 1.419 . S
C1784 C1785 1.363 . S
C1784 H1787 0.929 . S
C1785 C1784 1.363 . S
C1785 C1791 1.428 . S
H1786 C1782 0.930 . S
H1787 C1784 0.929 . S
S1788 N1789 1.613 . S
S1788 N1790 1.610 . S
N1789 S1788 1.613 . S
N1789 C1792 1.350 . S
N1790 S1788 1.610 . S
N1790 C1791 1.351 . S
C1791 C1785 1.428 . S
C1791 N1790 1.351 . S
C1791 C1792 1.434 . S
C1792 C1783 1.429 . S
C1792 N1789 1.350 . S
C1792 C1791 1.434 . S
C1793 C1794 1.369 . S
C1793 C1795 1.419 . S
C1793 H1797 0.930 . S
C1794 C1793 1.369 . S
C1794 C1803 1.429 . S
C1795 C1793 1.419 . S
C1795 C1796 1.363 . S
C1795 H1798 0.929 . S
C1796 C1795 1.363 . S
C1796 C1802 1.428 . S
H1797 C1793 0.930 . S
H1798 C1795 0.929 . S
S1799 N1800 1.613 1_565 S
S1799 N1801 1.610 . S
N1800 S1799 1.613 1_545 S
N1800 C1803 1.350 . S
N1801 S1799 1.610 . S
N1801 C1802 1.351 1_565 S
C1802 C1796 1.428 . S
C1802 N1801 1.351 1_545 S
C1802 C1803 1.434 . S
C1803 C1794 1.429 . S
C1803 N1800 1.350 . S
C1803 C1802 1.434 . S
C1804 C1805 1.369 . S
C1804 C1806 1.419 . S
C1804 H1808 0.930 . S
C1805 C1804 1.369 . S
C1805 C1814 1.429 . S
C1806 C1804 1.419 . S
C1806 C1807 1.363 . S
C1806 H1809 0.929 . S
C1807 C1806 1.363 . S
C1807 C1813 1.428 . S
H1808 C1804 0.930 . S
H1809 C1806 0.929 . S
S1810 N1811 1.613 1_545 S
S1810 N1812 1.610 . S
N1811 S1810 1.613 1_565 S
N1811 C1814 1.350 . S
N1812 S1810 1.610 . S
N1812 C1813 1.351 1_545 S
C1813 C1807 1.428 . S
C1813 N1812 1.351 1_565 S
C1813 C1814 1.434 . S
C1814 C1805 1.429 . S
C1814 N1811 1.350 . S
C1814 C1813 1.434 . S
C1815 C1816 1.369 . S
C1815 C1817 1.419 . S
C1815 H1819 0.930 . S
C1816 C1815 1.369 . S
C1816 C1825 1.429 . S
C1817 C1815 1.419 . S
C1817 C1818 1.363 . S
C1817 H1820 0.929 1_545 S
C1818 C1817 1.363 . S
C1818 C1824 1.428 . S
H1819 C1815 0.930 . S
H1820 C1817 0.929 1_565 S
S1821 N1822 1.613 . S
S1821 N1823 1.610 . S
N1822 S1821 1.613 . S
N1822 C1825 1.350 . S
N1823 S1821 1.610 . S
N1823 C1824 1.351 . S
C1824 C1818 1.428 . S
C1824 N1823 1.351 . S
C1824 C1825 1.434 . S
C1825 C1816 1.429 . S
C1825 N1822 1.350 . S
C1825 C1824 1.434 . S
C1826 C1827 1.369 . S
C1826 C1828 1.419 . S
C1826 H1830 0.930 . S
C1827 C1826 1.369 . S
C1827 C1836 1.429 . S
C1828 C1826 1.419 . S
C1828 C1829 1.363 . S
C1828 H1831 0.929 . S
C1829 C1828 1.363 . S
C1829 C1835 1.428 . S
H1830 C1826 0.930 . S
H1831 C1828 0.929 . S
S1832 N1833 1.613 1_565 S
S1832 N1834 1.610 . S
N1833 S1832 1.613 1_545 S
N1833 C1836 1.350 . S
N1834 S1832 1.610 . S
N1834 C1835 1.351 1_565 S
C1835 C1829 1.428 . S
C1835 N1834 1.351 1_545 S
C1835 C1836 1.434 . S
C1836 C1827 1.429 . S
C1836 N1833 1.350 . S
C1836 C1835 1.434 . S
C1837 C1838 1.369 . S
C1837 C1839 1.419 . S
C1837 H1841 0.930 . S
C1838 C1837 1.369 . S
C1838 C1847 1.429 . S
C1839 C1837 1.419 . S
C1839 C1840 1.363 . S
C1839 H1842 0.929 . S
C1840 C1839 1.363 . S
C1840 C1846 1.428 . S
H1841 C1837 0.930 . S
H1842 C1839 0.929 . S
S1843 N1844 1.613 . S
S1843 N1845 1.610 1_545 S
N1844 S1843 1.613 . S
N1844 C1847 1.350 1_545 S
N1845 S1843 1.610 1_565 S
N1845 C1846 1.351 . S
C1846 C1840 1.428 . S
C1846 N1845 1.351 . S
C1846 C1847 1.434 . S
C1847 C1838 1.429 . S
C1847 N1844 1.350 1_565 S
C1847 C1846 1.434 . S
C1848 C1849 1.369 . S
C1848 C1850 1.419 . S
C1848 H1852 0.930 . S
C1849 C1848 1.369 . S
C1849 C1858 1.429 . S
C1850 C1848 1.419 . S
C1850 C1851 1.363 . S
C1850 H1853 0.929 . S
C1851 C1850 1.363 . S
C1851 C1857 1.428 . S
H1852 C1848 0.930 . S
H1853 C1850 0.929 . S
S1854 N1855 1.613 . S
S1854 N1856 1.610 . S
N1855 S1854 1.613 . S
N1855 C1858 1.350 . S
N1856 S1854 1.610 . S
N1856 C1857 1.351 . S
C1857 C1851 1.428 . S
C1857 N1856 1.351 . S
C1857 C1858 1.434 . S
C1858 C1849 1.429 . S
C1858 N1855 1.350 . S
C1858 C1857 1.434 . S
C1859 C1860 1.369 . S
C1859 C1861 1.419 . S
C1859 H1863 0.930 . S
C1860 C1859 1.369 . S
C1860 C1869 1.429 . S
C1861 C1859 1.419 . S
C1861 C1862 1.363 . S
C1861 H1864 0.929 . S
C1862 C1861 1.363 . S
C1862 C1868 1.428 . S
H1863 C1859 0.930 . S
H1864 C1861 0.929 . S
S1865 N1866 1.613 . S
S1865 N1867 1.610 . S
N1866 S1865 1.613 . S
N1866 C1869 1.350 . S
N1867 S1865 1.610 . S
N1867 C1868 1.351 . S
C1868 C1862 1.428 . S
C1868 N1867 1.351 . S
C1868 C1869 1.434 . S
C1869 C1860 1.429 . S
C1869 N1866 1.350 . S
C1869 C1868 1.434 . S
C1870 C1871 1.369 . S
C1870 C1872 1.419 . S
C1870 H1874 0.930 . S
C1871 C1870 1.369 . S
C1871 C1880 1.429 . S
C1872 C1870 1.419 . S
C1872 C1873 1.363 . S
C1872 H1875 0.929 . S
C1873 C1872 1.363 . S
C1873 C1879 1.428 . S
H1874 C1870 0.930 . S
H1875 C1872 0.929 . S
S1876 N1877 1.613 . S
S1876 N1878 1.610 . S
N1877 S1876 1.613 . S
N1877 C1880 1.350 . S
N1878 S1876 1.610 . S
N1878 C1879 1.351 . S
C1879 C1873 1.428 . S
C1879 N1878 1.351 . S
C1879 C1880 1.434 . S
C1880 C1871 1.429 . S
C1880 N1877 1.350 . S
C1880 C1879 1.434 . S
C1881 C1882 1.369 . S
C1881 C1883 1.419 . S
C1881 H1885 0.930 . S
C1882 C1881 1.369 . S
C1882 C1891 1.429 . S
C1883 C1881 1.419 . S
C1883 C1884 1.363 . S
C1883 H1886 0.929 . S
C1884 C1883 1.363 . S
C1884 C1890 1.428 . S
H1885 C1881 0.930 . S
H1886 C1883 0.929 . S
S1887 N1888 1.613 . S
S1887 N1889 1.610 . S
N1888 S1887 1.613 . S
N1888 C1891 1.350 . S
N1889 S1887 1.610 . S
N1889 C1890 1.351 . S
C1890 C1884 1.428 . S
C1890 N1889 1.351 . S
C1890 C1891 1.434 . S
C1891 C1882 1.429 . S
C1891 N1888 1.350 . S
C1891 C1890 1.434 . S
C1892 C1893 1.369 . S
C1892 C1894 1.419 . S
C1892 H1896 0.930 . S
C1893 C1892 1.369 . S
C1893 C1902 1.429 . S
C1894 C1892 1.419 . S
C1894 C1895 1.363 . S
C1894 H1897 0.929 . S
C1895 C1894 1.363 . S
C1895 C1901 1.428 . S
H1896 C1892 0.930 . S
H1897 C1894 0.929 . S
S1898 N1899 1.613 . S
S1898 N1900 1.610 . S
N1899 S1898 1.613 . S
N1899 C1902 1.350 . S
N1900 S1898 1.610 . S
N1900 C1901 1.351 . S
C1901 C1895 1.428 . S
C1901 N1900 1.351 . S
C1901 C1902 1.434 . S
C1902 C1893 1.429 . S
C1902 N1899 1.350 . S
C1902 C1901 1.434 . S
C1903 C1904 1.369 . S
C1903 C1905 1.419 . S
C1903 H1907 0.930 . S
C1904 C1903 1.369 . S
C1904 C1913 1.429 . S
C1905 C1903 1.419 . S
C1905 C1906 1.363 . S
C1905 H1908 0.929 . S
C1906 C1905 1.363 . S
C1906 C1912 1.428 . S
H1907 C1903 0.930 . S
H1908 C1905 0.929 . S
S1909 N1910 1.613 . S
S1909 N1911 1.610 . S
N1910 S1909 1.613 . S
N1910 C1913 1.350 . S
N1911 S1909 1.610 . S
N1911 C1912 1.351 . S
C1912 C1906 1.428 . S
C1912 N1911 1.351 . S
C1912 C1913 1.434 . S
C1913 C1904 1.429 . S
C1913 N1910 1.350 . S
C1913 C1912 1.434 . S
C1914 C1915 1.369 . S
C1914 C1916 1.419 . S
C1914 H1918 0.930 . S
C1915 C1914 1.369 . S
C1915 C1924 1.429 . S
C1916 C1914 1.419 . S
C1916 C1917 1.363 . S
C1916 H1919 0.929 . S
C1917 C1916 1.363 . S
C1917 C1923 1.428 . S
H1918 C1914 0.930 . S
H1919 C1916 0.929 . S
S1920 N1921 1.613 . S
S1920 N1922 1.610 . S
N1921 S1920 1.613 . S
N1921 C1924 1.350 . S
N1922 S1920 1.610 . S
N1922 C1923 1.351 . S
C1923 C1917 1.428 . S
C1923 N1922 1.351 . S
C1923 C1924 1.434 . S
C1924 C1915 1.429 . S
C1924 N1921 1.350 . S
C1924 C1923 1.434 . S
C1925 C1926 1.369 . S
C1925 C1927 1.419 . S
C1925 H1929 0.930 . S
C1926 C1925 1.369 . S
C1926 C1935 1.429 . S
C1927 C1925 1.419 . S
C1927 C1928 1.363 . S
C1927 H1930 0.929 . S
C1928 C1927 1.363 . S
C1928 C1934 1.428 . S
H1929 C1925 0.930 . S
H1930 C1927 0.929 . S
S1931 N1932 1.613 . S
S1931 N1933 1.610 . S
N1932 S1931 1.613 . S
N1932 C1935 1.350 . S
N1933 S1931 1.610 . S
N1933 C1934 1.351 . S
C1934 C1928 1.428 . S
C1934 N1933 1.351 . S
C1934 C1935 1.434 . S
C1935 C1926 1.429 . S
C1935 N1932 1.350 . S
C1935 C1934 1.434 . S
C1057 N146 1.566 . S
C1059 N14 1.568 . S
C1068 N47 1.559 . S
C1070 N179 1.564 . S
C1079 N80 1.561 . S
C1081 N212 1.568 . S
C1090 N113 1.563 . S
C1092 N245 1.561 . S
C1101 N278 1.562 . S
C1103 N410 1.561 . S
C1112 N443 1.563 . S
C1114 N311 1.560 . S
C1123 N344 1.570 . S
C1125 N476 1.563 . S
C1134 N509 1.562 . S
C1136 N377 1.561 . S
C1145 N542 1.565 . S
C1147 N674 1.568 . S
C1156 N575 1.559 . S
C1158 N707 1.566 . S
C1167 N740 1.569 . S
C1169 N608 1.562 . S
C1178 N773 1.560 . S
C1180 N641 1.562 . S
C1189 N806 1.564 . S
C1191 N938 1.569 . S
C1200 N839 1.561 . S
C1202 N971 1.560 . S
C1211 N1004 1.559 . S
C1213 N872 1.563 . S
C1222 N905 1.561 . S
C1224 N1037 1.561 . S
C1233 C17 0.759 . S
C1235 C611 0.737 . S
C1244 C50 0.758 . S
C1246 C644 0.743 . S
C1255 C83 0.764 . S
C1257 C545 0.735 . S
C1266 C116 0.757 . S
C1268 C578 0.743 . S
C1277 C149 0.764 . S
C1279 C743 0.737 . S
C1288 C776 0.764 . S
C1290 C182 0.734 . S
C1299 C215 0.742 . S
C1301 C677 0.749 . S
C1310 C248 0.752 . S
C1312 C710 0.748 . S
C1321 C875 0.742 . S
C1323 C281 0.747 . S
C1332 C314 0.757 . S
C1334 C908 0.736 . S
C1343 C809 0.741 . S
C1345 C347 0.747 . S
C1354 C380 0.757 . S
C1356 C842 0.736 . S
C1365 C413 0.737 . S
C1367 C1007 0.760 . S
C1376 C1040 0.737 . S
C1378 C446 0.759 . S
C1387 C479 0.733 . S
C1389 C941 0.761 . S
C1398 C512 0.733 . S
C1400 C974 0.760 . S
C1409 C28 2.098 . S
C1411 C470 1.920 . S
C1420 C1031 1.913 . S
C1422 C61 2.100 1_545 S
C1431 C404 1.924 . S
C1433 C94 2.096 . S
C1442 C965 1.921 . S
C1444 C127 2.097 1_565 S
C1453 C160 2.093 . S
C1455 C338 1.924 . S
C1464 C193 2.099 1_545 S
C1466 C899 1.915 . S
C1475 C226 2.098 . S
C1477 C272 1.920 . S
C1486 C833 1.916 . S
C1488 C259 2.099 1_565 S
C1497 C206 1.915 . S
C1499 C292 2.099 . S
C1508 C767 1.920 . S
C1510 C325 2.097 1_565 S
C1519 C358 2.100 . S
C1521 C140 1.917 . S
C1530 C391 2.095 1_545 S
C1532 C701 1.921 . S
C1541 C424 2.094 . S
C1543 C74 1.922 . S
C1552 C635 1.920 . S
C1554 C457 2.096 1_565 S
C1563 C490 2.094 . S
C1565 C8 1.924 . S
C1574 C569 1.925 . S
C1576 C523 2.094 1_545 S
C1585 C998 1.926 . S
C1587 C556 2.095 . S
C1596 C589 2.099 . S
C1598 C503 1.915 . S
C1607 C932 1.917 . S
C1609 C622 2.098 . S
C1618 C437 1.916 . S
C1620 C655 2.099 . S
C1629 C688 2.100 . S
C1631 C866 1.916 . S
C1640 C371 1.913 . S
C1642 C721 2.099 . S
C1651 C800 1.920 . S
C1653 C754 2.096 . S
C1662 C787 2.093 . S
C1664 C305 1.923 . S
C1673 C820 2.101 . S
C1675 C734 1.915 . S
C1684 C239 1.918 . S
C1686 C853 2.096 . S
C1695 C886 2.097 . S
C1697 C668 1.920 . S
C1706 C173 1.920 . S
C1708 C919 2.095 . S
C1717 C952 2.094 . S
C1719 C602 1.924 . S
C1728 C985 2.099 . S
C1730 C107 1.915 . S
C1739 C536 1.913 . S
C1741 C1018 2.100 . S
C1750 C41 1.925 . S
C1752 C1051 2.094 . S
C1761 N236 1.751 . S
C1763 N5 1.752 . S
C1772 N137 1.753 . S
C1774 N38 1.752 . S
C1783 N170 1.752 . S
C1785 N71 1.752 . S
C1794 N104 1.752 . S
C1796 N203 1.753 . S
C1805 N500 1.752 . S
C1807 N269 1.753 . S
C1816 N302 1.752 . S
C1818 N401 1.752 . S
C1827 N434 1.753 . S
C1829 N335 1.753 . S
C1838 N467 1.753 . S
C1840 N368 1.752 . S
C1849 N764 1.753 . S
C1851 N533 1.752 . S
C1860 N566 1.753 . S
C1862 N665 1.753 . S
C1871 N698 1.752 . S
C1873 N599 1.752 . S
C1882 N731 1.751 . S
C1884 N632 1.752 . S
C1893 N797 1.752 . S
C1895 N1028 1.753 . S
C1904 N929 1.753 . S
C1906 N830 1.753 . S
C1915 N863 1.751 . S
C1917 N962 1.752 . S
C1926 N995 1.753 . S
C1928 N896 1.752 . S
