# Generated by pormake.
# Topology kag, (6)-cn, num edge types: 1
# Building blocks:
#     Node 0, Type 0, BuildingBlock: KUMJIN_clean_sbu_0, # of connection points: 6
#     Node 1, Type 0, BuildingBlock: KUMJIN_clean_sbu_0, # of connection points: 6
#     Node 2, Type 0, BuildingBlock: KUMJIN_clean_sbu_0, # of connection points: 6
#     Edge 3, Type (0, 0), BuildingBlock: FUNLAD_clean_linker_0, # of connection points: 2
#     Edge 4, Type (0, 0), BuildingBlock: FUNLAD_clean_linker_0, # of connection points: 2
#     Edge 5, Type (0, 0), BuildingBlock: FUNLAD_clean_linker_0, # of connection points: 2
#     Edge 6, Type (0, 0), BuildingBlock: FUNLAD_clean_linker_0, # of connection points: 2
#     Edge 7, Type (0, 0), BuildingBlock: FUNLAD_clean_linker_0, # of connection points: 2
#     Edge 8, Type (0, 0), BuildingBlock: FUNLAD_clean_linker_0, # of connection points: 2
#     Edge 9, Type (0, 0), BuildingBlock: FUNLAD_clean_linker_0, # of connection points: 2
#     Edge 10, Type (0, 0), BuildingBlock: FUNLAD_clean_linker_0, # of connection points: 2
#     Edge 11, Type (0, 0), BuildingBlock: FUNLAD_clean_linker_0, # of connection points: 2
# Relax obj value: 0.061
# Max RMSD: 0.178
# Mean RMSD: 0.133
data_MOF--net-kag--node1-KUMJIN_clean_sbu_0--edge1-FUNLAD_clean_linker_0
_symmetry_space_group_name_H-M    P1
_symmetry_Int_Tables_number       1
_symmetry_cell_setting            triclinic
loop_
_symmetry_equiv_pos_as_xyz
'x, y, z'
_cell_length_a     44.818863
_cell_length_b     35.445183
_cell_length_c     17.802573
_cell_angle_alpha  93.834688
_cell_angle_beta   114.29875
_cell_angle_gamma 100.65026
loop_
_atom_site_label
_atom_site_type_symbol
_atom_site_fract_x
_atom_site_fract_y
_atom_site_fract_z
_atom_type_partial_charge
Eu0 Eu 0.9986 0.47759 0.97028 0.0
C1 C 0.99664 0.64716 0.0789 0.0
C2 C 0.93994 0.65155 0.98912 0.0
C3 C 0.97015 0.69127 0.12657 0.0
C4 C 0.9679 0.63522 0.0043 0.0
C5 C 0.99835 0.67591 0.14016 0.0
C6 C 0.94098 0.67906 0.05127 0.0
C7 C 0.05647 0.67412 0.22115 0.0
N8 N 0.02343 0.63173 0.09027 0.0
C9 C 0.05354 0.64566 0.15859 0.0
C10 C 0.02863 0.68899 0.21239 0.0
Eu11 Eu 0.01632 0.58352 0.98226 0.0
N12 N 0.96776 0.60878 0.94527 0.0
C13 C 0.94139 0.59934 0.86771 0.0
C14 C 0.91205 0.64036 0.91125 0.0
C15 C 0.91296 0.61451 0.84995 0.0
H16 H 0.07504 0.63407 0.16556 0.0
H17 H 0.89176 0.60618 0.78905 0.0
H18 H 0.91963 0.69168 0.04102 0.0
H19 H 0.08014 0.68453 0.27607 0.0
H20 H 0.94178 0.5793 0.81994 0.0
H21 H 0.12325 0.45659 0.16839 0.0
H22 H 0.89002 0.65211 0.89727 0.0
H23 H 0.94114 0.42609 0.7867 0.0
H24 H 0.07249 0.48222 0.13528 0.0
H25 H 0.93749 0.37621 0.67702 0.0
H26 H 0.97087 0.71314 0.17321 0.0
H27 H 0.12676 0.4121 0.06075 0.0
H28 H 0.09863 0.37313 0.91644 0.0
H29 H 0.03096 0.71106 0.2609 0.0
H30 H 0.04805 0.35105 0.783 0.0
N31 N 0.04784 0.45348 0.00931 0.0
C32 C 0.07364 0.46279 0.08775 0.0
C33 C 0.10441 0.42331 0.04578 0.0
C34 C 0.07705 0.41212 0.967 0.0
C35 C 0.10249 0.44834 0.10677 0.0
C36 C 0.04864 0.42772 0.95057 0.0
H37 H 0.98768 0.3515 0.69378 0.0
N38 N 0.99292 0.42987 0.86308 0.0
C39 C 0.96097 0.38714 0.73226 0.0
C40 C 0.02026 0.41541 0.87532 0.0
C41 C 0.96306 0.41526 0.79435 0.0
C42 C 0.98938 0.37333 0.74191 0.0
C43 C 0.01939 0.38704 0.81459 0.0
O44 O 0.95436 0.43472 0.95759 0.0
O45 O 0.97941 0.53065 0.97769 0.0
O46 O 0.01388 0.57138 0.10283 0.0
O47 O 0.02229 0.50837 0.10656 0.0
O48 O 0.94481 0.48336 0.89533 0.0
O49 O 1.00155 0.44272 0.06839 0.0
O50 O 0.06118 0.62384 0.99122 0.0
O51 O 0.03529 0.53038 0.97457 0.0
O52 O 1.0009 0.49015 0.84977 0.0
O53 O 0.99165 0.55275 0.8459 0.0
O54 O 0.07008 0.57735 0.05726 0.0
O55 O 0.01302 0.61969 0.88583 0.0
C56 C 0.94856 0.51843 0.92843 0.0
C57 C 0.96564 0.37961 0.0205 0.0
C58 C 0.93037 0.31716 0.01458 0.0
C59 C 0.93651 0.35793 0.02234 0.0
C60 C 0.95385 0.29839 0.0045 0.0
C61 C 0.98887 0.36043 0.01089 0.0
C62 C 0.9829 0.31998 0.00273 0.0
C63 C 0.01986 0.54121 0.14197 0.0
C64 C 0.97073 0.42203 0.02647 0.0
C65 C 0.04811 0.37259 0.82925 0.0
C66 C 0.07691 0.38516 0.90524 0.0
C67 C 0.06616 0.54231 0.02369 0.0
C68 C 0.05299 0.68041 0.9317 0.0
C69 C 0.08249 0.69856 0.92661 0.0
C70 C 0.09225 0.73932 0.93632 0.0
C71 C 0.07165 0.7617 0.95039 0.0
C72 C 0.0328 0.70312 0.9462 0.0
C73 C 0.04213 0.74362 0.95528 0.0
C74 C 0.99449 0.52018 0.8105 0.0
C75 C 0.04473 0.63786 0.92442 0.0
H76 H 0.91886 0.37295 0.03086 0.0
H77 H 0.94963 0.26701 -0.00275 0.0
H78 H 0.01156 0.37659 0.00973 0.0
H79 H 1.00082 0.30531 -0.0051 0.0
H80 H 0.09774 0.68073 0.91452 0.0
H81 H 0.07859 0.79315 0.95883 0.0
H82 H 1.00999 0.68966 0.95068 0.0
H83 H 0.02654 0.76108 0.96665 0.0
Eu84 Eu 0.55159 0.04344 0.04705 0.0
C85 C 0.44155 0.1067 0.91359 0.0
C86 C 0.42579 0.12818 0.02126 0.0
C87 C 0.42518 0.16852 0.91611 0.0
C88 C 0.43693 0.10054 0.98441 0.0
C89 C 0.43474 0.14031 0.8774 0.0
C90 C 0.42093 0.16258 0.98822 0.0
C91 C 0.44609 0.11528 0.76524 0.0
N92 N 0.45195 0.0796 0.87886 0.0
C93 C 0.45257 0.08261 0.80333 0.0
C94 C 0.43764 0.14459 0.80307 0.0
Eu95 Eu 0.46194 1.02415 0.94563 0.0
N96 N 0.4413 0.06665 0.01423 0.0
C97 C 0.42982 0.05663 0.07255 0.0
C98 C 0.41853 0.11983 0.08831 0.0
C99 C 0.41974 0.08345 0.11262 0.0
H100 H 0.45683 0.05945 0.76997 0.0
H101 H 0.41207 0.07563 0.16085 0.0
H102 H 0.41285 0.18423 0.01648 0.0
H103 H 0.44714 0.11752 0.70599 0.0
H104 H 0.42777 1.02766 0.08826 0.0
H105 H 0.56275 0.91915 0.87033 0.0
H106 H 0.41017 0.14037 0.11853 0.0
H107 H 0.5955 0.07508 0.25425 0.0
H108 H 0.54864 0.98168 0.89161 0.0
H109 H 0.62535 0.04909 0.38313 0.0
H110 H 0.42053 0.19477 0.89006 0.0
H111 H 0.58717 0.88518 0.99033 0.0
H112 H 0.60893 0.88487 0.14458 0.0
H113 H 0.43264 0.16991 0.77345 0.0
H114 H 0.62461 0.91964 0.28454 0.0
N115 N 0.56384 0.98288 0.02181 0.0
C116 C 0.55887 0.96708 0.94431 0.0
C117 C 0.58091 0.91264 -3e-05 0.0
C118 C 0.58725 0.92974 0.0798 0.0
C119 C 0.56713 0.93172 0.93212 0.0
C120 C 0.57868 0.9656 0.08901 0.0
H121 H 0.63118 0.9811 0.37429 0.0
N122 N 0.58194 1.02128 0.17419 0.0
C123 C 0.61444 1.03057 0.32304 0.0
C124 C 0.58726 0.985 0.16761 0.0
C125 C 0.59751 0.04513 0.25007 0.0
C126 C 0.61754 0.99214 0.31778 0.0
C127 C 0.60498 0.96929 0.2393 0.0
O128 O 0.59796 0.08929 0.10952 0.0
O129 O 0.50861 0.07384 0.98673 0.0
O130 O 0.48049 1.0107 0.84865 0.0
O131 O 0.53428 0.04982 0.91145 0.0
O132 O 0.54568 0.09942 0.10423 0.0
O133 O 0.58811 0.05495 -0.0056 0.0
O134 O 0.4265 0.99418 0.82017 0.0
O135 O 0.50527 0.99357 0.97783 0.0
O136 O 0.53427 0.03645 0.14846 0.0
O137 O 0.47593 1.01825 0.08045 0.0
O138 O 0.46439 0.96659 -0.00336 0.0
O139 O 0.40898 1.00026 0.91503 0.0
C140 C 0.51882 0.10391 0.04339 0.0
C141 C 0.64487 0.07784 0.09043 0.0
C142 C 0.70142 0.09693 0.09861 0.0
C143 C 0.66809 0.10136 0.06901 0.0
C144 C 0.71127 0.06903 0.15061 0.0
C145 C 0.65529 0.05017 0.14221 0.0
C146 C 0.68829 0.04588 0.17229 0.0
C147 C 0.50812 1.02922 0.84519 0.0
C148 C 0.60973 0.08153 0.05618 0.0
C149 C 0.61147 0.93239 0.23024 0.0
C150 C 0.60269 0.91269 0.15059 0.0
C151 C 0.49338 0.96309 0.00186 0.0
C152 C 0.3832 0.94279 0.8163 0.0
C153 C 0.35495 0.93102 0.83245 0.0
C154 C 0.33778 0.89166 0.81373 0.0
C155 C 0.34879 0.86426 0.77681 0.0
C156 C 0.39378 0.91487 0.77946 0.0
C157 C 0.37651 0.8759 0.75959 0.0
C158 C 0.50455 1.02574 0.14809 0.0
C159 C 0.40165 0.98402 0.84012 0.0
H160 H 0.66007 0.12249 0.02818 0.0
H161 H 0.73687 0.06538 0.17523 0.0
H162 H 0.63806 0.03175 0.15931 0.0
H163 H 0.69605 1.02447 0.2124 0.0
H164 H 0.34692 0.95237 0.8617 0.0
H165 H 0.33582 0.83383 0.76081 0.0
H166 H 0.41547 0.92301 0.76645 0.0
H167 H 0.38477 0.85456 0.73117 0.0
Eu168 Eu 0.46292 0.51908 0.96069 0.0
C169 C 0.59078 0.62965 0.15729 0.0
C170 C 0.5882 0.67975 0.07045 0.0
C171 C 0.61497 0.69766 0.22126 0.0
C172 C 0.58015 0.64034 0.07918 0.0
C173 C 0.60948 0.65813 0.22934 0.0
C174 C 0.60447 0.70845 0.1418 0.0
C175 C 0.62192 0.60643 0.31019 0.0
N176 N 0.58651 0.59118 0.16225 0.0
C177 C 0.60407 0.57947 0.23668 0.0
C178 C 0.62401 0.64597 0.3068 0.0
Eu179 Eu 0.55356 0.54652 0.03429 0.0
N180 N 0.56474 0.61184 0.01163 0.0
C181 C 0.55913 0.62051 0.93409 0.0
C182 C 0.58093 0.68893 0.99054 0.0
C183 C 0.56698 0.65906 0.92226 0.0
H184 H 0.60322 0.54892 0.23967 0.0
H185 H 0.56207 0.6657 0.86039 0.0
H186 H 0.61023 0.73891 0.13626 0.0
H187 H 0.63443 0.59671 0.3692 0.0
H188 H 0.54877 0.59778 0.88109 0.0
H189 H 0.44068 0.44995 0.20821 0.0
H190 H 0.58684 0.71879 0.98121 0.0
H191 H 0.44457 0.47501 0.76579 0.0
H192 H 0.44901 0.50343 0.13513 0.0
H193 H 0.42922 0.40973 0.68836 0.0
H194 H 0.62882 0.71994 0.27589 0.0
H195 H 0.43136 0.38242 0.14397 0.0
H196 H 0.42184 0.33651 0.02004 0.0
H197 H 0.63844 0.6669 0.36356 0.0
H198 H 0.41717 0.32557 0.87774 0.0
N199 N 0.45208 0.46859 0.03638 0.0
C200 C 0.44854 0.47496 0.10894 0.0
C201 C 0.43675 0.40624 0.1129 0.0
C202 C 0.43605 0.39933 0.03402 0.0
C203 C 0.4423 0.44426 0.14965 0.0
C204 C 0.4435 0.43143 -0.00383 0.0
H205 H 0.41969 0.35244 0.75419 0.0
N206 N 0.44794 0.45634 0.88 0.0
C207 C 0.4329 0.41358 0.75266 0.0
C208 C 0.44085 0.4252 0.91563 0.0
C209 C 0.44262 0.45092 0.79822 0.0
C210 C 0.42728 0.38136 0.78974 0.0
C211 C 0.43072 0.38684 0.87158 0.0
O212 O 0.41646 0.51962 0.85052 0.0
O213 O 0.50614 0.57065 0.97998 0.0
O214 O 0.54198 0.54209 0.14613 0.0
O215 O 0.48547 0.54247 0.09784 0.0
O216 O 0.46799 0.58302 0.00579 0.0
O217 O 0.41575 0.51957 0.97211 0.0
O218 O 0.60276 0.53109 0.0862 0.0
O219 O 0.50882 0.49343 0.98267 0.0
O220 O 0.47345 0.53599 0.8512 0.0
O221 O 0.5279 0.52726 0.89427 0.0
O222 O 0.55136 0.48921 0.08513 0.0
O223 O 0.58309 0.54321 0.96205 0.0
C224 C 0.49638 0.5989 0.00583 0.0
C225 C 0.36185 0.51874 0.85372 0.0
C226 C 0.30713 0.51573 0.85906 0.0
C227 C 0.34241 0.51842 0.90023 0.0
C228 C 0.29213 0.51414 0.77194 0.0
C229 C 0.34557 0.517 0.76682 0.0
C230 C 0.31115 0.51486 0.72661 0.0
C231 C 0.5154 0.5448 0.15835 0.0
C232 C 0.3985 0.51886 0.8927 0.0
C233 C 0.42446 0.3551 0.9103 0.0
C234 C 0.42723 0.36132 0.99139 0.0
C235 C 0.52163 0.46997 0.03261 0.0
C236 C 0.64261 0.56042 0.039 0.0
C237 C 0.66632 0.54566 0.01892 0.0
C238 C 0.69844 0.56983 0.03766 0.0
C239 C 0.7057 0.6088 0.07457 0.0
C240 C 0.65127 0.5993 0.0766 0.0
C241 C 0.68238 0.62326 0.09375 0.0
C242 C 0.49945 0.53215 0.83613 0.0
C243 C 0.60897 0.53591 0.02203 0.0
H244 H 0.35437 0.51937 0.96724 0.0
H245 H 0.26545 0.51267 0.73853 0.0
H246 H 0.35944 0.51695 0.72934 0.0
H247 H 0.29905 0.51358 0.65956 0.0
H248 H 0.66006 0.51557 0.99041 0.0
H249 H 0.72951 0.62846 0.08808 0.0
H250 H 0.63394 0.61123 0.09296 0.0
H251 H 0.6885 0.6533 0.12227 0.0
C252 C 0.98951 0.55025 0.68235 0.0
C253 C 0.99373 0.51844 0.72583 0.0
C254 C 0.99216 0.5497 0.6064 0.0
C255 C 0.99917 0.51726 0.57215 0.0
C256 C 1.00234 0.48513 0.61444 0.0
C257 C 0.99994 0.4858 0.69034 0.0
C258 C 1.00286 0.5152 0.49231 0.0
C259 C 0.01139 0.54664 0.4601 0.0
C260 C 0.01516 0.54454 0.38033 0.0
C261 C 0.01226 0.57672 0.33816 0.0
C262 C 0.01469 0.57596 0.26227 0.0
C263 C 0.02063 0.54313 0.22666 0.0
H264 H 0.02551 0.48698 0.37754 0.0
C265 C 0.02463 0.51129 0.2701 0.0
C266 C 0.02198 0.51196 0.34603 0.0
H267 H 0.02931 0.48551 0.24491 0.0
H268 H 0.98467 0.57591 0.70752 0.0
H269 H 0.98848 0.57464 0.5748 0.0
H270 H 1.00749 0.45961 0.58962 0.0
H271 H 1.00382 0.46091 0.722 0.0
H272 H 0.99902 0.48638 0.46013 0.0
H273 H 0.01523 0.57547 0.49229 0.0
H274 H 1.00729 0.60237 0.36307 0.0
H275 H 0.01107 0.60093 0.23072 0.0
C276 C 0.52915 0.04165 0.30288 0.0
C277 C 0.50323 1.02041 0.22796 0.0
C278 C 0.52809 0.03677 0.37875 0.0
C279 C 0.50064 1.011 0.38112 0.0
C280 C 0.47505 0.98912 0.30624 0.0
C281 C 0.47622 0.9939 0.23019 0.0
C282 C 0.49812 1.0062 0.46055 0.0
C283 C 0.51298 0.03455 0.52738 0.0
C284 C 0.51146 1.03072 0.60798 0.0
C285 C 0.53747 0.05403 0.6802 0.0
C286 C 0.53666 0.05284 0.75732 0.0
C287 C 0.50951 1.02861 0.76376 0.0
H288 H 0.46343 0.98842 0.55948 0.0
C289 C 0.48345 1.00503 0.69155 0.0
C290 C 0.48437 1.00607 0.61419 0.0
H291 H 0.46211 0.98619 0.69451 0.0
H292 H 0.55006 0.06255 0.303 0.0
H293 H 0.54903 0.0531 0.43512 0.0
H294 H 0.45388 0.96868 0.30646 0.0
H295 H 0.45612 0.97668 0.17327 0.0
H296 H 0.48315 0.9789 0.46304 0.0
H297 H 0.52754 0.06199 0.52423 0.0
H298 H 0.55852 0.07338 0.67695 0.0
H299 H 0.55713 0.07148 0.81161 0.0
C300 C 0.52704 0.53632 0.73947 0.0
C301 C 0.49787 0.53496 0.75191 0.0
C302 C 0.52676 0.54062 0.66205 0.0
C303 C 0.49697 0.54272 0.59371 0.0
C304 C 0.46777 0.54152 0.6061 0.0
C305 C 0.46821 0.53782 0.68442 0.0
C306 C 0.49559 0.5471 0.50964 0.0
C307 C 0.51955 0.5404 0.48639 0.0
C308 C 0.51881 0.54421 0.40287 0.0
C309 C 0.54179 0.52905 0.38211 0.0
C310 C 0.54161 0.53063 0.30379 0.0
C311 C 0.51835 0.54738 0.24428 0.0
H312 H 0.47898 0.5757 0.35788 0.0
C313 C 0.49611 0.5638 0.26562 0.0
C314 C 0.49641 0.56245 0.3442 0.0
H315 H 0.47813 0.57726 0.22102 0.0
H316 H 0.55058 0.53486 0.7901 0.0
H317 H 0.55031 0.54298 0.65753 0.0
H318 H 0.44451 0.54349 0.55503 0.0
H319 H 0.44536 0.53722 0.69196 0.0
H320 H 0.47341 0.55487 0.46513 0.0
H321 H 0.54043 0.52991 0.52906 0.0
H322 H 0.55957 0.51514 0.42608 0.0
H323 H 0.55884 0.51739 0.28887 0.0
C324 C 0.12784 0.54435 0.0691 0.0
C325 C 0.09419 0.53111 0.00889 0.0
C326 C 0.15469 0.53733 0.05261 0.0
C327 C 0.14858 0.51713 0.97471 0.0
C328 C 0.11481 0.50341 0.91539 0.0
C329 C 0.08815 0.51057 0.9318 0.0
C330 C 0.17595 0.50983 0.95099 0.0
C331 C 0.20948 0.526 -0.00562 0.0
C332 C 0.23572 0.52018 0.96484 0.0
C333 C 0.26762 0.54643 0.00024 0.0
C334 C 0.29186 0.54375 0.97005 0.0
C335 C 0.28487 0.51467 0.90347 0.0
H336 H 0.20641 0.4676 0.87459 0.0
C337 C 0.25381 0.4871 0.87146 0.0
C338 C 0.22974 0.48961 0.90179 0.0
H339 H 0.24771 0.46395 0.82092 0.0
H340 H 0.13344 0.56056 0.12895 0.0
H341 H 0.18002 0.54803 0.10103 0.0
H342 H 0.10892 0.48765 0.85486 0.0
H343 H 0.06284 0.50062 0.88305 0.0
H344 H 0.16733 0.49142 0.89148 0.0
H345 H 0.2182 0.54618 0.05165 0.0
H346 H 0.27343 0.57002 0.04966 0.0
H347 H 0.31537 0.56559 -0.00403 0.0
C348 C 0.72994 0.16166 0.08216 0.0
C349 C 0.72617 0.12119 0.07597 0.0
C350 C 0.75541 0.18475 0.0679 0.0
C351 C 0.77735 0.16762 0.04618 0.0
C352 C 0.77277 0.12704 0.03767 0.0
C353 C 0.7475 0.10408 0.05228 0.0
C354 C 0.80672 0.19072 0.03764 0.0
C355 C 0.81091 0.22847 0.02843 0.0
C356 C 0.84174 0.25071 0.02505 0.0
C357 C 0.83978 0.28233 0.98127 0.0
C358 C 0.86844 0.30383 0.97735 0.0
C359 C 0.89977 0.29433 0.01799 0.0
H360 H 0.87606 0.21853 0.10421 0.0
C361 C 0.90183 0.26313 0.06311 0.0
C362 C 0.87321 0.24166 0.06693 0.0
H363 H 0.92573 0.25572 0.09688 0.0
H364 H 0.71406 0.17561 0.10126 0.0
H365 H 0.75842 0.21592 0.07704 0.0
H366 H 0.78923 0.113 0.02104 0.0
H367 H 0.74489 0.07288 0.04603 0.0
H368 H 0.82566 0.17545 0.03795 0.0
H369 H 0.79096 0.24337 0.02016 0.0
H370 H 0.81593 0.29016 0.9492 0.0
H371 H 0.86599 0.32759 0.94168 0.0
C372 C 0.49556 0.89608 0.93756 0.0
C373 C 0.50242 0.92316 0.00843 0.0
C374 C 0.49853 0.85663 0.94332 0.0
C375 C 0.50796 0.84211 0.02028 0.0
C376 C 0.51462 0.86944 0.09049 0.0
C377 C 0.51142 0.90845 0.08455 0.0
C378 C 0.51048 0.79947 0.03222 0.0
C379 C 0.50403 0.7681 0.97273 0.0
C380 C 0.50521 0.7252 0.98551 0.0
C381 C 0.49638 0.69634 0.91576 0.0
C382 C 0.4953 0.65622 0.92244 0.0
C383 C 0.50378 0.64262 -0.00019 0.0
H384 H 0.5207 0.73154 0.11927 0.0
C385 C 0.51256 0.6713 0.06961 0.0
C386 C 0.51372 0.71151 0.06309 0.0
H387 H 0.51819 0.66244 0.13009 0.0
H388 H 0.48708 0.90518 0.87679 0.0
H389 H 0.4928 0.83752 0.88681 0.0
H390 H 0.5218 0.86035 0.15117 0.0
H391 H 0.51576 0.92728 0.14033 0.0
H392 H 0.51781 0.79382 0.09574 0.0
H393 H 0.49671 0.77364 0.90911 0.0
H394 H 0.48945 0.7047 0.85448 0.0
H395 H 0.48699 0.63558 0.86611 0.0
C396 C 0.8867 0.51484 0.88233 0.0
C397 C 0.92028 0.52956 0.942 0.0
C398 C 0.85958 0.52163 0.89773 0.0
C399 C 0.86531 0.54327 0.97381 0.0
C400 C 0.89896 0.55852 0.03258 0.0
C401 C 0.92595 0.55141 0.01745 0.0
C402 C 0.83752 0.55115 -0.00497 0.0
C403 C 0.80462 0.53169 0.95577 0.0
C404 C 0.77756 0.5397 0.98008 0.0
C405 C 0.74336 0.52632 0.92293 0.0
C406 C 0.71743 0.53435 0.94233 0.0
C407 C 0.72499 0.55596 0.01973 0.0
H408 H 0.81046 0.56914 0.10685 0.0
C409 C 0.75908 0.56764 0.0783 0.0
C410 C 0.78488 0.55963 0.05907 0.0
H411 H 0.76595 0.58356 0.13937 0.0
H412 H 0.88138 0.49761 0.82375 0.0
H413 H 0.83432 0.50993 0.84964 0.0
H414 H 0.9045 0.57545 0.09167 0.0
H415 H 0.95122 0.56249 0.06583 0.0
H416 H 0.84513 0.5741 0.04717 0.0
H417 H 0.79674 0.50906 0.90286 0.0
H418 H 0.73664 0.51036 0.862 0.0
H419 H 0.69159 0.52494 0.89552 0.0
C420 C 0.12506 0.78966 0.88837 0.0
C421 C 0.12387 0.75804 0.9316 0.0
C422 C 0.15429 0.80559 0.87984 0.0
C423 C 0.18302 0.79029 0.91479 0.0
C424 C 0.18191 0.75914 0.95899 0.0
C425 C 0.15282 0.74336 0.9678 0.0
C426 C 0.21382 0.80407 0.9023 0.0
C427 C 0.22308 0.83991 0.88612 0.0
C428 C 0.25338 0.85305 0.87063 0.0
C429 C 0.25612 0.88679 0.83433 0.0
C430 C 0.28359 0.89963 0.81645 0.0
C431 C 0.30896 0.87893 0.83441 0.0
H432 H 0.27943 0.80793 0.92194 0.0
C433 C 0.30672 0.84577 0.87252 0.0
C434 C 0.27945 0.8331 0.89099 0.0
H435 H 0.32633 0.82979 0.88903 0.0
H436 H 0.10303 0.80126 0.85869 0.0
H437 H 0.15374 0.82886 0.84331 0.0
H438 H 0.20362 0.74673 0.9865 0.0
H439 H 0.15299 0.71946 0.00271 0.0
H440 H 0.2292 0.7833 0.90682 0.0
H441 H 0.20756 0.86052 0.88238 0.0
H442 H 0.23669 0.90302 0.81858 0.0
H443 H 0.28463 0.92532 0.78704 0.0
C444 C 0.51796 0.40377 0.083 0.0
C445 C 0.51488 0.42524 0.01685 0.0
C446 C 0.51605 0.36296 0.07434 0.0
C447 C 0.51177 0.34134 -0.0008 0.0
C448 C 0.5091 0.36308 0.93333 0.0
C449 C 0.51084 0.4039 0.94198 0.0
C450 C 0.51108 0.29721 0.98707 0.0
C451 C 0.51139 0.27181 0.04281 0.0
C452 C 0.51151 0.22788 0.03485 0.0
C453 C 0.51017 0.20755 0.09969 0.0
C454 C 0.51145 0.16785 0.09983 0.0
C455 C 0.51348 0.14543 0.0343 0.0
H456 H 0.51526 0.21927 0.91743 0.0
C457 C 0.51509 0.16542 0.96899 0.0
C458 C 0.51386 0.20565 0.96883 0.0
H459 H 0.5178 0.15009 0.91833 0.0
H460 H 0.5221 0.41882 0.14268 0.0
H461 H 0.51866 0.3488 0.12785 0.0
H462 H 0.50602 0.34845 0.87434 0.0
H463 H 0.50955 0.4189 0.89009 0.0
H464 H 0.51026 0.28529 0.92832 0.0
H465 H 0.5115 0.28385 0.10054 0.0
H466 H 0.50853 0.22273 0.15221 0.0
H467 H 0.51097 0.15452 0.15245 0.0
loop_
_geom_bond_atom_site_label_1
_geom_bond_atom_site_label_2
_geom_bond_distance
_geom_bond_site_symmetry_2
_ccdc_geom_bond_type
Eu0 N31 2.657 1_656 S
Eu0 N38 2.609 . S
Eu0 O44 2.558 . S
Eu0 O45 2.614 . S
Eu0 O47 2.339 1_556 S
Eu0 O48 2.563 . S
Eu0 O49 2.419 1_556 S
Eu0 O51 2.380 1_656 S
Eu0 O52 2.432 . S
Eu0 C64 2.848 . S
C1 C4 1.429 . S
C1 C5 1.411 . S
C1 N8 1.377 1_655 S
C2 C4 1.420 1_556 S
C2 C6 1.423 1_556 S
C2 C14 1.392 . S
C3 C5 1.420 . S
C3 C6 1.351 . S
C3 H26 0.931 . S
C4 C1 1.429 . S
C4 C2 1.420 1_554 S
C4 N12 1.362 1_554 S
C5 C1 1.411 . S
C5 C3 1.420 . S
C5 C10 1.395 1_655 S
C6 C2 1.423 1_554 S
C6 C3 1.351 . S
C6 H18 0.930 1_554 S
C7 C9 1.400 . S
C7 C10 1.386 . S
C7 H19 0.930 . S
N8 C1 1.377 1_455 S
N8 C9 1.321 . S
N8 Eu11 2.609 . S
C9 C7 1.400 . S
C9 N8 1.321 . S
C9 H16 0.930 . S
C10 C5 1.395 1_455 S
C10 C7 1.386 . S
C10 H29 0.930 . S
Eu11 N8 2.609 . S
Eu11 N12 2.657 1_454 S
Eu11 O45 2.382 1_454 S
Eu11 O46 2.432 . S
Eu11 O50 2.558 . S
Eu11 O51 2.612 . S
Eu11 O53 2.339 1_554 S
Eu11 O54 2.563 . S
Eu11 O55 2.419 1_554 S
Eu11 C75 2.848 . S
N12 C4 1.362 1_556 S
N12 Eu11 2.657 1_656 S
N12 C13 1.334 . S
C13 N12 1.334 . S
C13 C15 1.413 . S
C13 H20 0.929 . S
C14 C2 1.392 . S
C14 C15 1.367 . S
C14 H22 0.930 . S
C15 C13 1.413 . S
C15 C14 1.367 . S
C15 H17 0.930 . S
H16 C9 0.930 . S
H17 C15 0.930 . S
H18 C6 0.930 1_556 S
H19 C7 0.930 . S
H20 C13 0.929 . S
H21 C35 0.930 . S
H22 C14 0.930 . S
H23 C41 0.930 . S
H24 C32 0.929 . S
H25 C39 0.930 . S
H26 C3 0.931 . S
H27 C33 0.930 . S
H28 C66 0.930 1_554 S
H29 C10 0.930 . S
H30 C65 0.931 . S
N31 Eu0 2.657 1_454 S
N31 C32 1.334 . S
N31 C36 1.362 1_554 S
C32 H24 0.929 . S
C32 N31 1.334 . S
C32 C35 1.413 . S
C33 H27 0.930 . S
C33 C34 1.392 . S
C33 C35 1.367 . S
C34 C33 1.392 . S
C34 C36 1.420 1_554 S
C34 C66 1.423 1_554 S
C35 H21 0.930 . S
C35 C32 1.413 . S
C35 C33 1.367 . S
C36 N31 1.362 1_556 S
C36 C34 1.420 1_556 S
C36 C40 1.429 . S
H37 C42 0.930 . S
N38 Eu0 2.609 . S
N38 C40 1.377 1_655 S
N38 C41 1.321 . S
C39 H25 0.930 . S
C39 C41 1.400 . S
C39 C42 1.386 . S
C40 C36 1.429 . S
C40 N38 1.377 1_455 S
C40 C43 1.411 . S
C41 H23 0.930 . S
C41 N38 1.321 . S
C41 C39 1.400 . S
C42 H37 0.930 . S
C42 C39 1.386 . S
C42 C43 1.395 1_655 S
C43 C40 1.411 . S
C43 C42 1.395 1_455 S
C43 C65 1.420 . S
O44 Eu0 2.558 . S
O44 C64 1.257 . S
O45 Eu0 2.614 . S
O45 Eu11 2.382 1_656 S
O45 C56 1.274 . S
O46 Eu11 2.432 . S
O46 C63 1.264 . S
O47 Eu0 2.339 1_554 S
O47 C63 1.253 1_655 S
O48 Eu0 2.563 . S
O48 C56 1.235 . S
O49 Eu0 2.419 1_554 S
O49 C64 1.249 1_554 S
O50 Eu11 2.558 . S
O50 C75 1.257 . S
O51 Eu0 2.380 1_454 S
O51 Eu11 2.612 . S
O51 C67 1.276 . S
O52 Eu0 2.432 . S
O52 C74 1.264 . S
O53 Eu11 2.339 1_556 S
O53 C74 1.254 1_455 S
O54 Eu11 2.563 . S
O54 C67 1.235 . S
O55 Eu11 2.419 1_556 S
O55 C75 1.249 1_556 S
C56 O45 1.274 . S
C56 O48 1.235 . S
C57 C59 1.393 . S
C57 C61 1.395 . S
C57 C64 1.492 . S
C58 C59 1.392 . S
C58 C60 1.386 . S
C59 C57 1.393 . S
C59 C58 1.392 . S
C59 H76 0.930 1_556 S
C60 C58 1.386 . S
C60 C62 1.395 . S
C60 H77 0.930 . S
C61 C57 1.395 . S
C61 C62 1.379 . S
C61 H78 0.930 . S
C62 C60 1.395 . S
C62 C61 1.379 . S
C62 H79 0.930 . S
C63 O46 1.264 . S
C63 O47 1.253 1_455 S
C64 Eu0 2.848 . S
C64 O44 1.257 . S
C64 O49 1.249 1_556 S
C64 C57 1.492 . S
C65 H30 0.931 . S
C65 C43 1.420 . S
C65 C66 1.351 . S
C66 H28 0.930 1_556 S
C66 C34 1.423 1_556 S
C66 C65 1.351 . S
C67 O51 1.276 . S
C67 O54 1.235 . S
C68 C69 1.393 . S
C68 C72 1.395 . S
C68 C75 1.492 . S
C69 C68 1.393 . S
C69 C70 1.392 . S
C69 H80 0.930 1_554 S
C70 C69 1.392 . S
C70 C71 1.386 . S
C71 C70 1.386 . S
C71 C73 1.395 . S
C71 H81 0.930 . S
C72 C68 1.395 . S
C72 C73 1.379 . S
C72 H82 0.930 . S
C73 C71 1.395 . S
C73 C72 1.379 . S
C73 H83 0.930 . S
C74 O52 1.264 . S
C74 O53 1.254 1_655 S
C75 Eu11 2.848 . S
C75 O50 1.257 . S
C75 O55 1.249 1_554 S
C75 C68 1.492 . S
H76 C59 0.930 1_554 S
H77 C60 0.930 . S
H78 C61 0.930 . S
H79 C62 0.930 . S
H80 C69 0.930 1_556 S
H81 C71 0.930 . S
H82 C72 0.930 . S
H83 C73 0.930 . S
Eu84 N115 2.657 1_545 S
Eu84 N122 2.609 1_545 S
Eu84 O128 2.558 . S
Eu84 O129 2.612 1_554 S
Eu84 O131 2.339 1_554 S
Eu84 O132 2.563 . S
Eu84 O133 2.419 . S
Eu84 O135 2.380 1_545 S
Eu84 O136 2.432 . S
Eu84 C148 2.848 . S
C85 C88 1.429 . S
C85 C89 1.411 . S
C85 N92 1.377 . S
C86 C88 1.420 . S
C86 C90 1.423 . S
C86 C98 1.392 1_556 S
C87 C89 1.420 . S
C87 C90 1.351 . S
C87 H110 0.931 . S
C88 C85 1.429 . S
C88 C86 1.420 . S
C88 N96 1.362 . S
C89 C85 1.411 . S
C89 C87 1.420 . S
C89 C94 1.395 . S
C90 C86 1.423 . S
C90 C87 1.351 . S
C90 H102 0.930 . S
C91 C93 1.400 . S
C91 C94 1.386 1_565 S
C91 H103 0.930 . S
N92 C85 1.377 . S
N92 C93 1.321 1_545 S
N92 Eu95 2.609 1_545 S
C93 C91 1.400 . S
C93 N92 1.321 1_565 S
C93 H100 0.930 . S
C94 C89 1.395 . S
C94 C91 1.386 1_545 S
C94 H113 0.930 . S
Eu95 N92 2.609 1_565 S
Eu95 N96 2.657 1_565 S
Eu95 O129 2.380 1_565 S
Eu95 O130 2.432 . S
Eu95 O134 2.558 . S
Eu95 O135 2.612 1_556 S
Eu95 O137 2.339 1_556 S
Eu95 O138 2.563 . S
Eu95 O139 2.419 . S
Eu95 C159 2.848 . S
N96 C88 1.362 . S
N96 Eu95 2.657 1_545 S
N96 C97 1.334 1_556 S
C97 N96 1.334 1_554 S
C97 C99 1.413 . S
C97 H104 0.929 . S
C98 C86 1.392 1_554 S
C98 C99 1.367 . S
C98 H106 0.930 . S
C99 C97 1.413 . S
C99 C98 1.367 . S
C99 H101 0.930 . S
H100 C93 0.930 . S
H101 C99 0.930 . S
H102 C90 0.930 . S
H103 C91 0.930 . S
H104 C97 0.929 . S
H105 C119 0.930 . S
H106 C98 0.930 . S
H107 C125 0.930 . S
H108 C116 0.929 . S
H109 C123 0.930 . S
H110 C87 0.931 . S
H111 C117 0.930 . S
H112 C150 0.930 . S
H113 C94 0.930 . S
H114 C149 0.931 . S
N115 Eu84 2.657 1_565 S
N115 C116 1.334 1_554 S
N115 C120 1.362 . S
C116 H108 0.929 . S
C116 N115 1.334 1_556 S
C116 C119 1.413 . S
C117 H111 0.930 . S
C117 C118 1.392 1_556 S
C117 C119 1.367 . S
C118 C117 1.392 1_554 S
C118 C120 1.420 . S
C118 C150 1.423 . S
C119 H105 0.930 . S
C119 C116 1.413 . S
C119 C117 1.367 . S
C120 N115 1.362 . S
C120 C118 1.420 . S
C120 C124 1.429 . S
H121 C126 0.930 . S
N122 Eu84 2.609 1_565 S
N122 C124 1.377 . S
N122 C125 1.321 1_565 S
C123 H109 0.930 . S
C123 C125 1.400 . S
C123 C126 1.386 1_545 S
C124 C120 1.429 . S
C124 N122 1.377 . S
C124 C127 1.411 . S
C125 H107 0.930 . S
C125 N122 1.321 1_545 S
C125 C123 1.400 . S
C126 H121 0.930 . S
C126 C123 1.386 1_565 S
C126 C127 1.395 . S
C127 C124 1.411 . S
C127 C126 1.395 . S
C127 C149 1.420 . S
O128 Eu84 2.558 . S
O128 C148 1.257 . S
O129 Eu84 2.612 1_556 S
O129 Eu95 2.380 1_545 S
O129 C140 1.276 . S
O130 Eu95 2.432 . S
O130 C147 1.256 1_565 S
O131 Eu84 2.339 1_556 S
O131 C147 1.251 . S
O132 Eu84 2.563 . S
O132 C140 1.235 1_554 S
O133 Eu84 2.419 . S
O133 C148 1.249 . S
O134 Eu95 2.558 . S
O134 C159 1.257 . S
O135 Eu84 2.380 1_565 S
O135 Eu95 2.612 1_554 S
O135 C151 1.276 . S
O136 Eu84 2.432 . S
O136 C158 1.265 1_545 S
O137 Eu95 2.339 1_554 S
O137 C158 1.254 . S
O138 Eu95 2.563 . S
O138 C151 1.235 1_556 S
O139 Eu95 2.419 . S
O139 C159 1.249 . S
C140 O129 1.276 . S
C140 O132 1.235 1_556 S
C141 C143 1.393 . S
C141 C145 1.395 . S
C141 C148 1.492 . S
C142 C143 1.392 . S
C142 C144 1.386 . S
C143 C141 1.393 . S
C143 C142 1.392 . S
C143 H160 0.930 1_554 S
C144 C142 1.386 . S
C144 C146 1.395 . S
C144 H161 0.930 . S
C145 C141 1.395 . S
C145 C146 1.379 . S
C145 H162 0.930 . S
C146 C144 1.395 . S
C146 C145 1.379 . S
C146 H163 0.930 . S
C147 O130 1.256 1_545 S
C147 O131 1.251 . S
C148 Eu84 2.848 . S
C148 O128 1.257 . S
C148 O133 1.249 . S
C148 C141 1.492 . S
C149 H114 0.931 . S
C149 C127 1.420 . S
C149 C150 1.351 . S
C150 H112 0.930 . S
C150 C118 1.423 . S
C150 C149 1.351 . S
C151 O135 1.276 . S
C151 O138 1.235 1_554 S
C152 C153 1.393 . S
C152 C156 1.395 . S
C152 C159 1.492 . S
C153 C152 1.393 . S
C153 C154 1.392 . S
C153 H164 0.930 1_556 S
C154 C153 1.392 . S
C154 C155 1.386 . S
C155 C154 1.386 . S
C155 C157 1.395 . S
C155 H165 0.930 . S
C156 C152 1.395 . S
C156 C157 1.379 . S
C156 H166 0.930 . S
C157 C155 1.395 . S
C157 C156 1.379 . S
C157 H167 0.930 . S
C158 O136 1.265 1_565 S
C158 O137 1.254 . S
C159 Eu95 2.848 . S
C159 O134 1.257 . S
C159 O139 1.249 . S
C159 C152 1.492 . S
H160 C143 0.930 1_556 S
H161 C144 0.930 . S
H162 C145 0.930 . S
H163 C146 0.930 . S
H164 C153 0.930 1_554 S
H165 C155 0.930 . S
H166 C156 0.930 . S
H167 C157 0.930 . S
Eu168 N199 2.657 . S
Eu168 N206 2.609 . S
Eu168 O212 2.558 . S
Eu168 O213 2.612 1_556 S
Eu168 O215 2.339 1_556 S
Eu168 O216 2.563 . S
Eu168 O217 2.419 . S
Eu168 O219 2.380 . S
Eu168 O220 2.432 . S
Eu168 C232 2.848 . S
C169 C172 1.429 . S
C169 C173 1.411 . S
C169 N176 1.377 . S
C170 C172 1.420 . S
C170 C174 1.423 . S
C170 C182 1.392 1_554 S
C171 C173 1.420 . S
C171 C174 1.351 . S
C171 H194 0.931 . S
C172 C169 1.429 . S
C172 C170 1.420 . S
C172 N180 1.362 . S
C173 C169 1.411 . S
C173 C171 1.420 . S
C173 C178 1.395 . S
C174 C170 1.423 . S
C174 C171 1.351 . S
C174 H186 0.930 . S
C175 C177 1.400 . S
C175 C178 1.386 . S
C175 H187 0.930 . S
N176 C169 1.377 . S
N176 C177 1.321 . S
N176 Eu179 2.609 . S
C177 C175 1.400 . S
C177 N176 1.321 . S
C177 H184 0.930 . S
C178 C173 1.395 . S
C178 C175 1.386 . S
C178 H197 0.930 . S
Eu179 N176 2.609 . S
Eu179 N180 2.657 . S
Eu179 O213 2.380 . S
Eu179 O214 2.432 . S
Eu179 O218 2.558 . S
Eu179 O219 2.612 1_554 S
Eu179 O221 2.339 1_554 S
Eu179 O222 2.563 . S
Eu179 O223 2.419 . S
Eu179 C243 2.848 . S
N180 C172 1.362 . S
N180 Eu179 2.657 . S
N180 C181 1.334 1_554 S
C181 N180 1.334 1_556 S
C181 C183 1.413 . S
C181 H188 0.929 . S
C182 C170 1.392 1_556 S
C182 C183 1.367 . S
C182 H190 0.930 . S
C183 C181 1.413 . S
C183 C182 1.367 . S
C183 H185 0.930 . S
H184 C177 0.930 . S
H185 C183 0.930 . S
H186 C174 0.930 . S
H187 C175 0.930 . S
H188 C181 0.929 . S
H189 C203 0.930 . S
H190 C182 0.930 . S
H191 C209 0.930 . S
H192 C200 0.929 . S
H193 C207 0.930 . S
H194 C171 0.931 . S
H195 C201 0.930 . S
H196 C234 0.930 . S
H197 C178 0.930 . S
H198 C233 0.931 . S
N199 Eu168 2.657 . S
N199 C200 1.334 1_556 S
N199 C204 1.362 . S
C200 H192 0.929 . S
C200 N199 1.334 1_554 S
C200 C203 1.413 . S
C201 H195 0.930 . S
C201 C202 1.392 1_554 S
C201 C203 1.367 . S
C202 C201 1.392 1_556 S
C202 C204 1.420 . S
C202 C234 1.423 . S
C203 H189 0.930 . S
C203 C200 1.413 . S
C203 C201 1.367 . S
C204 N199 1.362 . S
C204 C202 1.420 . S
C204 C208 1.429 . S
H205 C210 0.930 . S
N206 Eu168 2.609 . S
N206 C208 1.377 . S
N206 C209 1.321 . S
C207 H193 0.930 . S
C207 C209 1.400 . S
C207 C210 1.386 . S
C208 C204 1.429 . S
C208 N206 1.377 . S
C208 C211 1.411 . S
C209 H191 0.930 . S
C209 N206 1.321 . S
C209 C207 1.400 . S
C210 H205 0.930 . S
C210 C207 1.386 . S
C210 C211 1.395 . S
C211 C208 1.411 . S
C211 C210 1.395 . S
C211 C233 1.420 . S
O212 Eu168 2.558 . S
O212 C232 1.257 . S
O213 Eu168 2.612 1_554 S
O213 Eu179 2.380 . S
O213 C224 1.276 . S
O214 Eu179 2.432 . S
O214 C231 1.264 . S
O215 Eu168 2.339 1_554 S
O215 C231 1.254 . S
O216 Eu168 2.563 . S
O216 C224 1.235 1_556 S
O217 Eu168 2.419 . S
O217 C232 1.249 . S
O218 Eu179 2.558 . S
O218 C243 1.257 . S
O219 Eu168 2.380 . S
O219 Eu179 2.612 1_556 S
O219 C235 1.276 . S
O220 Eu168 2.432 . S
O220 C242 1.264 . S
O221 Eu179 2.339 1_556 S
O221 C242 1.254 . S
O222 Eu179 2.563 . S
O222 C235 1.235 1_554 S
O223 Eu179 2.419 . S
O223 C243 1.249 . S
C224 O213 1.276 . S
C224 O216 1.235 1_554 S
C225 C227 1.393 . S
C225 C229 1.395 . S
C225 C232 1.492 . S
C226 C227 1.392 . S
C226 C228 1.386 . S
C227 C225 1.393 . S
C227 C226 1.392 . S
C227 H244 0.930 1_556 S
C228 C226 1.386 . S
C228 C230 1.395 . S
C228 H245 0.930 . S
C229 C225 1.395 . S
C229 C230 1.379 . S
C229 H246 0.930 . S
C230 C228 1.395 . S
C230 C229 1.379 . S
C230 H247 0.930 . S
C231 O214 1.264 . S
C231 O215 1.254 . S
C232 Eu168 2.848 . S
C232 O212 1.257 . S
C232 O217 1.249 . S
C232 C225 1.492 . S
C233 H198 0.931 . S
C233 C211 1.420 . S
C233 C234 1.351 . S
C234 H196 0.930 . S
C234 C202 1.423 . S
C234 C233 1.351 . S
C235 O219 1.276 . S
C235 O222 1.235 1_556 S
C236 C237 1.393 . S
C236 C240 1.395 . S
C236 C243 1.492 . S
C237 C236 1.393 . S
C237 C238 1.392 . S
C237 H248 0.930 1_554 S
C238 C237 1.392 . S
C238 C239 1.386 . S
C239 C238 1.386 . S
C239 C241 1.395 . S
C239 H249 0.930 . S
C240 C236 1.395 . S
C240 C241 1.379 . S
C240 H250 0.930 . S
C241 C239 1.395 . S
C241 C240 1.379 . S
C241 H251 0.930 . S
C242 O220 1.264 . S
C242 O221 1.254 . S
C243 Eu179 2.848 . S
C243 O218 1.257 . S
C243 O223 1.249 . S
C243 C236 1.492 . S
H244 C227 0.930 1_554 S
H245 C228 0.930 . S
H246 C229 0.930 . S
H247 C230 0.930 . S
H248 C237 0.930 1_556 S
H249 C239 0.930 . S
H250 C240 0.930 . S
H251 C241 0.930 . S
C252 C253 1.386 1_455 S
C252 C254 1.383 . S
C252 H268 0.951 . S
C253 C252 1.386 1_655 S
C253 C257 1.383 . S
C254 C252 1.383 . S
C254 C255 1.402 1_455 S
C254 H269 0.951 . S
C255 C254 1.402 1_655 S
C255 C256 1.375 . S
C255 C258 1.481 . S
C256 C255 1.375 . S
C256 C257 1.367 . S
C256 H270 0.951 . S
C257 C253 1.383 . S
C257 C256 1.367 . S
C257 H271 0.950 . S
C258 C255 1.481 . S
C258 C259 1.297 1_655 S
C258 H272 0.950 . S
C259 C258 1.297 1_455 S
C259 C260 1.479 . S
C259 H273 0.950 . S
C260 C259 1.479 . S
C260 C261 1.375 . S
C260 C266 1.404 1_455 S
C261 C260 1.375 . S
C261 C262 1.369 . S
C261 H274 0.950 . S
C262 C261 1.369 . S
C262 C263 1.392 . S
C262 H275 0.951 . S
C263 C262 1.392 . S
C263 C265 1.384 1_455 S
H264 C266 0.949 . S
C265 C263 1.384 1_655 S
C265 C266 1.385 . S
C265 H267 0.950 . S
C266 C260 1.404 1_655 S
C266 H264 0.949 . S
C266 C265 1.385 . S
H267 C265 0.950 . S
H268 C252 0.951 . S
H269 C254 0.951 . S
H270 C256 0.951 . S
H271 C257 0.950 . S
H272 C258 0.950 . S
H273 C259 0.950 . S
H274 C261 0.950 . S
H275 C262 0.951 . S
C276 C277 1.386 1_545 S
C276 C278 1.383 . S
C276 H292 0.951 . S
C277 C276 1.386 1_565 S
C277 C281 1.383 . S
C278 C276 1.383 . S
C278 C279 1.402 1_545 S
C278 H293 0.951 . S
C279 C278 1.402 1_565 S
C279 C280 1.375 . S
C279 C282 1.481 . S
C280 C279 1.375 . S
C280 C281 1.367 . S
C280 H294 0.951 . S
C281 C277 1.383 . S
C281 C280 1.367 . S
C281 H295 0.950 . S
C282 C279 1.481 . S
C282 C283 1.297 1_565 S
C282 H296 0.950 . S
C283 C282 1.297 1_545 S
C283 C284 1.479 . S
C283 H297 0.950 . S
C284 C283 1.479 . S
C284 C285 1.375 . S
C284 C290 1.404 1_545 S
C285 C284 1.375 . S
C285 C286 1.369 . S
C285 H298 0.950 . S
C286 C285 1.369 . S
C286 C287 1.392 . S
C286 H299 0.951 . S
C287 C286 1.392 . S
C287 C289 1.384 1_545 S
H288 C290 0.949 . S
C289 C287 1.384 1_565 S
C289 C290 1.385 . S
C289 H291 0.950 . S
C290 C284 1.404 1_565 S
C290 H288 0.949 . S
C290 C289 1.385 . S
H291 C289 0.950 . S
H292 C276 0.951 . S
H293 C278 0.951 . S
H294 C280 0.951 . S
H295 C281 0.950 . S
H296 C282 0.950 . S
H297 C283 0.950 . S
H298 C285 0.950 . S
H299 C286 0.951 . S
C300 C301 1.386 . S
C300 C302 1.383 . S
C300 H316 0.951 . S
C301 C300 1.386 . S
C301 C305 1.383 . S
C302 C300 1.383 . S
C302 C303 1.402 . S
C302 H317 0.951 . S
C303 C302 1.402 . S
C303 C304 1.375 . S
C303 C306 1.481 . S
C304 C303 1.375 . S
C304 C305 1.367 . S
C304 H318 0.951 . S
C305 C301 1.383 . S
C305 C304 1.367 . S
C305 H319 0.950 . S
C306 C303 1.481 . S
C306 C307 1.297 . S
C306 H320 0.950 . S
C307 C306 1.297 . S
C307 C308 1.479 . S
C307 H321 0.950 . S
C308 C307 1.479 . S
C308 C309 1.375 . S
C308 C314 1.404 . S
C309 C308 1.375 . S
C309 C310 1.369 . S
C309 H322 0.950 . S
C310 C309 1.369 . S
C310 C311 1.392 . S
C310 H323 0.951 . S
C311 C310 1.392 . S
C311 C313 1.384 . S
H312 C314 0.949 . S
C313 C311 1.384 . S
C313 C314 1.385 . S
C313 H315 0.950 . S
C314 C308 1.404 . S
C314 H312 0.949 . S
C314 C313 1.385 . S
H315 C313 0.950 . S
H316 C300 0.951 . S
H317 C302 0.951 . S
H318 C304 0.951 . S
H319 C305 0.950 . S
H320 C306 0.950 . S
H321 C307 0.950 . S
H322 C309 0.950 . S
H323 C310 0.951 . S
C324 C325 1.386 . S
C324 C326 1.383 . S
C324 H340 0.951 . S
C325 C324 1.386 . S
C325 C329 1.383 1_554 S
C326 C324 1.383 . S
C326 C327 1.402 1_554 S
C326 H341 0.951 . S
C327 C326 1.402 1_556 S
C327 C328 1.375 . S
C327 C330 1.481 . S
C328 C327 1.375 . S
C328 C329 1.367 . S
C328 H342 0.951 . S
C329 C325 1.383 1_556 S
C329 C328 1.367 . S
C329 H343 0.950 . S
C330 C327 1.481 . S
C330 C331 1.297 1_556 S
C330 H344 0.950 . S
C331 C330 1.297 1_554 S
C331 C332 1.479 . S
C331 H345 0.950 . S
C332 C331 1.479 . S
C332 C333 1.375 . S
C332 C338 1.404 1_554 S
C333 C332 1.375 . S
C333 C334 1.369 . S
C333 H346 0.950 . S
C334 C333 1.369 . S
C334 C335 1.392 . S
C334 H347 0.951 . S
C335 C334 1.392 . S
C335 C337 1.384 1_554 S
H336 C338 0.949 . S
C337 C335 1.384 1_556 S
C337 C338 1.385 . S
C337 H339 0.950 . S
C338 C332 1.404 1_556 S
C338 H336 0.949 . S
C338 C337 1.385 . S
H339 C337 0.950 . S
H340 C324 0.951 . S
H341 C326 0.951 . S
H342 C328 0.951 . S
H343 C329 0.950 . S
H344 C330 0.950 . S
H345 C331 0.950 . S
H346 C333 0.950 . S
H347 C334 0.951 . S
C348 C349 1.386 . S
C348 C350 1.383 . S
C348 H364 0.951 . S
C349 C348 1.386 . S
C349 C353 1.383 . S
C350 C348 1.383 . S
C350 C351 1.402 . S
C350 H365 0.951 . S
C351 C350 1.402 . S
C351 C352 1.375 . S
C351 C354 1.481 . S
C352 C351 1.375 . S
C352 C353 1.367 . S
C352 H366 0.951 . S
C353 C349 1.383 . S
C353 C352 1.367 . S
C353 H367 0.950 . S
C354 C351 1.481 . S
C354 C355 1.297 . S
C354 H368 0.950 . S
C355 C354 1.297 . S
C355 C356 1.479 . S
C355 H369 0.950 . S
C356 C355 1.479 . S
C356 C357 1.375 . S
C356 C362 1.404 . S
C357 C356 1.375 . S
C357 C358 1.369 . S
C357 H370 0.950 . S
C358 C357 1.369 . S
C358 C359 1.392 . S
C358 H371 0.951 . S
C359 C358 1.392 . S
C359 C361 1.384 . S
H360 C362 0.949 . S
C361 C359 1.384 . S
C361 C362 1.385 . S
C361 H363 0.950 . S
C362 C356 1.404 . S
C362 H360 0.949 . S
C362 C361 1.385 . S
H363 C361 0.950 . S
H364 C348 0.951 . S
H365 C350 0.951 . S
H366 C352 0.951 . S
H367 C353 0.950 . S
H368 C354 0.950 . S
H369 C355 0.950 . S
H370 C357 0.950 . S
H371 C358 0.951 . S
C372 C373 1.386 . S
C372 C374 1.383 . S
C372 H388 0.954 1_554 S
C373 C372 1.386 . S
C373 C377 1.383 . S
C374 C372 1.383 . S
C374 C375 1.398 . S
C374 H389 0.954 1_554 S
C375 C374 1.398 . S
C375 C376 1.375 . S
C375 C378 1.481 . S
C376 C375 1.375 . S
C376 C377 1.367 . S
C376 H390 0.951 . S
C377 C373 1.383 . S
C377 C376 1.367 . S
C377 H391 0.950 . S
C378 C375 1.481 . S
C378 C379 1.297 1_554 S
C378 H392 0.950 . S
C379 C378 1.297 1_556 S
C379 C380 1.479 . S
C379 H393 0.950 . S
C380 C379 1.479 . S
C380 C381 1.375 . S
C380 C386 1.406 1_556 S
C381 C380 1.375 . S
C381 C382 1.369 1_556 S
C381 H394 0.950 . S
C382 C381 1.369 1_554 S
C382 C383 1.392 . S
C382 H395 0.945 . S
C383 C382 1.392 . S
C383 C385 1.384 . S
H384 C386 0.946 1_556 S
C385 C383 1.384 . S
C385 C386 1.386 . S
C385 H387 0.950 . S
C386 C380 1.406 1_554 S
C386 H384 0.946 1_554 S
C386 C385 1.386 . S
H387 C385 0.950 . S
H388 C372 0.954 1_556 S
H389 C374 0.954 1_556 S
H390 C376 0.951 . S
H391 C377 0.950 . S
H392 C378 0.950 . S
H393 C379 0.950 . S
H394 C381 0.950 . S
H395 C382 0.945 . S
C396 C397 1.386 . S
C396 C398 1.383 . S
C396 H412 0.951 . S
C397 C396 1.386 . S
C397 C401 1.383 1_556 S
C398 C396 1.383 . S
C398 C399 1.402 . S
C398 H413 0.951 . S
C399 C398 1.402 . S
C399 C400 1.375 1_556 S
C399 C402 1.481 . S
C400 C399 1.375 1_554 S
C400 C401 1.367 . S
C400 H414 0.951 . S
C401 C397 1.383 1_554 S
C401 C400 1.367 . S
C401 H415 0.950 . S
C402 C399 1.481 . S
C402 C403 1.297 . S
C402 H416 0.950 1_556 S
C403 C402 1.297 . S
C403 C404 1.479 . S
C403 H417 0.950 . S
C404 C403 1.479 . S
C404 C405 1.375 . S
C404 C410 1.404 . S
C405 C404 1.375 . S
C405 C406 1.369 . S
C405 H418 0.950 . S
C406 C405 1.369 . S
C406 C407 1.392 . S
C406 H419 0.951 . S
C407 C406 1.392 . S
C407 C409 1.384 1_556 S
H408 C410 0.949 1_554 S
C409 C407 1.384 1_554 S
C409 C410 1.385 1_554 S
C409 H411 0.950 . S
C410 C404 1.404 . S
C410 H408 0.949 1_556 S
C410 C409 1.385 1_556 S
H411 C409 0.950 . S
H412 C396 0.951 . S
H413 C398 0.951 . S
H414 C400 0.951 . S
H415 C401 0.950 . S
H416 C402 0.950 1_554 S
H417 C403 0.950 . S
H418 C405 0.950 . S
H419 C406 0.951 . S
C420 C421 1.386 . S
C420 C422 1.383 . S
C420 H436 0.951 . S
C421 C420 1.386 . S
C421 C425 1.383 1_556 S
C422 C420 1.383 . S
C422 C423 1.402 1_556 S
C422 H437 0.951 . S
C423 C422 1.402 1_554 S
C423 C424 1.375 . S
C423 C426 1.481 . S
C424 C423 1.375 . S
C424 C425 1.367 . S
C424 H438 0.951 . S
C425 C421 1.383 1_554 S
C425 C424 1.367 . S
C425 H439 0.950 . S
C426 C423 1.481 . S
C426 C427 1.297 1_554 S
C426 H440 0.950 . S
C427 C426 1.297 1_556 S
C427 C428 1.479 . S
C427 H441 0.950 . S
C428 C427 1.479 . S
C428 C429 1.375 . S
C428 C434 1.404 1_556 S
C429 C428 1.375 . S
C429 C430 1.369 . S
C429 H442 0.950 . S
C430 C429 1.369 . S
C430 C431 1.392 . S
C430 H443 0.951 . S
C431 C430 1.392 . S
C431 C433 1.384 1_556 S
H432 C434 0.949 . S
C433 C431 1.384 1_554 S
C433 C434 1.385 . S
C433 H435 0.950 . S
C434 C428 1.404 1_554 S
C434 H432 0.949 . S
C434 C433 1.385 . S
H435 C433 0.950 . S
H436 C420 0.951 . S
H437 C422 0.951 . S
H438 C424 0.951 . S
H439 C425 0.950 . S
H440 C426 0.950 . S
H441 C427 0.950 . S
H442 C429 0.950 . S
H443 C430 0.951 . S
C444 C445 1.386 1_554 S
C444 C446 1.383 . S
C444 H460 0.951 . S
C445 C444 1.386 1_556 S
C445 C449 1.383 . S
C446 C444 1.383 . S
C446 C447 1.402 1_554 S
C446 H461 0.951 . S
C447 C446 1.402 1_556 S
C447 C448 1.375 . S
C447 C450 1.481 . S
C448 C447 1.375 . S
C448 C449 1.367 . S
C448 H462 0.951 . S
C449 C445 1.383 . S
C449 C448 1.367 . S
C449 H463 0.950 . S
C450 C447 1.481 . S
C450 C451 1.289 1_556 S
C450 H464 0.950 . S
C451 C450 1.289 1_554 S
C451 C452 1.480 1_554 S
C451 H465 0.959 . S
C452 C451 1.480 1_556 S
C452 C453 1.375 1_556 S
C452 C458 1.404 . S
C453 C452 1.375 1_554 S
C453 C454 1.369 . S
C453 H466 0.950 . S
C454 C453 1.369 . S
C454 C455 1.392 1_554 S
C454 H467 0.951 . S
C455 C454 1.392 1_556 S
C455 C457 1.384 . S
H456 C458 0.949 . S
C457 C455 1.384 . S
C457 C458 1.385 . S
C457 H459 0.950 . S
C458 C452 1.404 . S
C458 H456 0.949 . S
C458 C457 1.385 . S
H459 C457 0.950 . S
H460 C444 0.951 . S
H461 C446 0.951 . S
H462 C448 0.951 . S
H463 C449 0.950 . S
H464 C450 0.950 . S
H465 C451 0.959 . S
H466 C453 0.950 . S
H467 C454 0.951 . S
C253 C74 1.467 . S
C263 C63 1.477 . S
C277 C158 1.496 . S
C287 C147 1.474 . S
C301 C242 1.484 . S
C311 C231 1.432 . S
C325 C67 1.580 . S
C335 C226 1.443 1_554 S
C349 C142 0.697 . S
C359 C58 0.909 1_554 S
C373 C151 2.307 . S
C383 C224 2.309 . S
C397 C56 1.505 . S
C407 C238 1.528 1_556 S
C421 C70 0.694 1_556 S
C431 C154 0.796 . S
C445 C235 2.362 . S
C455 C140 2.310 . S
