# Generated by pormake.
# Topology sxg, (6)-cn, num edge types: 1
# Building blocks:
#     Node 0, Type 0, BuildingBlock: UKALOJ_clean_sbu_0, # of connection points: 6
#     Node 1, Type 0, BuildingBlock: UKALOJ_clean_sbu_0, # of connection points: 6
#     Node 2, Type 0, BuildingBlock: UKALOJ_clean_sbu_0, # of connection points: 6
#     Node 3, Type 0, BuildingBlock: UKALOJ_clean_sbu_0, # of connection points: 6
#     Node 4, Type 0, BuildingBlock: UKALOJ_clean_sbu_0, # of connection points: 6
#     Node 5, Type 0, BuildingBlock: UKALOJ_clean_sbu_0, # of connection points: 6
#     Node 6, Type 0, BuildingBlock: UKALOJ_clean_sbu_0, # of connection points: 6
#     Node 7, Type 0, BuildingBlock: UKALOJ_clean_sbu_0, # of connection points: 6
#     Node 8, Type 0, BuildingBlock: UKALOJ_clean_sbu_0, # of connection points: 6
#     Node 9, Type 0, BuildingBlock: UKALOJ_clean_sbu_0, # of connection points: 6
#     Node 10, Type 0, BuildingBlock: UKALOJ_clean_sbu_0, # of connection points: 6
#     Node 11, Type 0, BuildingBlock: UKALOJ_clean_sbu_0, # of connection points: 6
#     Node 12, Type 0, BuildingBlock: UKALOJ_clean_sbu_0, # of connection points: 6
#     Node 13, Type 0, BuildingBlock: UKALOJ_clean_sbu_0, # of connection points: 6
#     Node 14, Type 0, BuildingBlock: UKALOJ_clean_sbu_0, # of connection points: 6
#     Node 15, Type 0, BuildingBlock: UKALOJ_clean_sbu_0, # of connection points: 6
#     Node 16, Type 0, BuildingBlock: UKALOJ_clean_sbu_0, # of connection points: 6
#     Node 17, Type 0, BuildingBlock: UKALOJ_clean_sbu_0, # of connection points: 6
#     Node 18, Type 0, BuildingBlock: UKALOJ_clean_sbu_0, # of connection points: 6
#     Node 19, Type 0, BuildingBlock: UKALOJ_clean_sbu_0, # of connection points: 6
#     Node 20, Type 0, BuildingBlock: UKALOJ_clean_sbu_0, # of connection points: 6
#     Node 21, Type 0, BuildingBlock: UKALOJ_clean_sbu_0, # of connection points: 6
#     Node 22, Type 0, BuildingBlock: UKALOJ_clean_sbu_0, # of connection points: 6
#     Node 23, Type 0, BuildingBlock: UKALOJ_clean_sbu_0, # of connection points: 6
#     Edge 24, Type (0, 0), None
#     Edge 25, Type (0, 0), None
#     Edge 26, Type (0, 0), None
#     Edge 27, Type (0, 0), None
#     Edge 28, Type (0, 0), None
#     Edge 29, Type (0, 0), None
#     Edge 30, Type (0, 0), None
#     Edge 31, Type (0, 0), None
#     Edge 32, Type (0, 0), None
#     Edge 33, Type (0, 0), None
#     Edge 34, Type (0, 0), None
#     Edge 35, Type (0, 0), None
#     Edge 36, Type (0, 0), None
#     Edge 37, Type (0, 0), None
#     Edge 38, Type (0, 0), None
#     Edge 39, Type (0, 0), None
#     Edge 40, Type (0, 0), None
#     Edge 41, Type (0, 0), None
#     Edge 42, Type (0, 0), None
#     Edge 43, Type (0, 0), None
#     Edge 44, Type (0, 0), None
#     Edge 45, Type (0, 0), None
#     Edge 46, Type (0, 0), None
#     Edge 47, Type (0, 0), None
#     Edge 48, Type (0, 0), None
#     Edge 49, Type (0, 0), None
#     Edge 50, Type (0, 0), None
#     Edge 51, Type (0, 0), None
#     Edge 52, Type (0, 0), None
#     Edge 53, Type (0, 0), None
#     Edge 54, Type (0, 0), None
#     Edge 55, Type (0, 0), None
#     Edge 56, Type (0, 0), None
#     Edge 57, Type (0, 0), None
#     Edge 58, Type (0, 0), None
#     Edge 59, Type (0, 0), None
#     Edge 60, Type (0, 0), None
#     Edge 61, Type (0, 0), None
#     Edge 62, Type (0, 0), None
#     Edge 63, Type (0, 0), None
#     Edge 64, Type (0, 0), None
#     Edge 65, Type (0, 0), None
#     Edge 66, Type (0, 0), None
#     Edge 67, Type (0, 0), None
#     Edge 68, Type (0, 0), None
#     Edge 69, Type (0, 0), None
#     Edge 70, Type (0, 0), None
#     Edge 71, Type (0, 0), None
#     Edge 72, Type (0, 0), None
#     Edge 73, Type (0, 0), None
#     Edge 74, Type (0, 0), None
#     Edge 75, Type (0, 0), None
#     Edge 76, Type (0, 0), None
#     Edge 77, Type (0, 0), None
#     Edge 78, Type (0, 0), None
#     Edge 79, Type (0, 0), None
#     Edge 80, Type (0, 0), None
#     Edge 81, Type (0, 0), None
#     Edge 82, Type (0, 0), None
#     Edge 83, Type (0, 0), None
#     Edge 84, Type (0, 0), None
#     Edge 85, Type (0, 0), None
#     Edge 86, Type (0, 0), None
#     Edge 87, Type (0, 0), None
#     Edge 88, Type (0, 0), None
#     Edge 89, Type (0, 0), None
#     Edge 90, Type (0, 0), None
#     Edge 91, Type (0, 0), None
#     Edge 92, Type (0, 0), None
#     Edge 93, Type (0, 0), None
#     Edge 94, Type (0, 0), None
#     Edge 95, Type (0, 0), None
# Relax obj value: 0.388
# Max RMSD: 0.312
# Mean RMSD: 0.312
data_MOF--net-sxg--node1-UKALOJ_clean_sbu_0--edge1-none
_symmetry_space_group_name_H-M    P1
_symmetry_Int_Tables_number       1
_symmetry_cell_setting            triclinic
loop_
_symmetry_equiv_pos_as_xyz
'x, y, z'
_cell_length_a     23.906412
_cell_length_b     24.077096
_cell_length_c     23.853485
_cell_angle_alpha  89.999167
_cell_angle_beta   89.998074
_cell_angle_gamma 89.999987
loop_
_atom_site_label
_atom_site_type_symbol
_atom_site_fract_x
_atom_site_fract_y
_atom_site_fract_z
_atom_type_partial_charge
Zn0 Zn 0.02948 0.26318 0.18724 0.0
O1 O 0.96784 0.25569 0.24944 0.0
C2 C 0.01048 0.38963 0.20349 0.0
Zn3 Zn 0.08899 0.30927 0.24055 0.0
C4 C 0.97703 0.28397 0.29381 0.0
O5 O 0.02327 0.30972 0.29967 0.0
C6 C 0.1436 0.27553 0.1337 0.0
O7 O 0.11649 0.23512 0.27341 0.0
O8 O 0.06775 0.18257 0.21502 0.0
N9 N 0.13776 0.35406 0.29322 0.0
C10 C 0.18673 0.37832 0.27988 0.0
C11 C 0.14267 0.43407 0.33344 0.0
N12 N 0.11093 0.38839 0.32726 0.0
N13 N 0.1897 0.42958 0.3027 0.0
C14 C 0.93637 0.27408 0.09893 0.0
C15 C 0.97935 0.25683 0.02351 0.0
N16 N 0.98126 0.24321 0.11377 0.0
N17 N 1.00739 0.23217 0.06601 0.0
N18 N 0.9351 0.28594 0.0428 0.0
H19 H 0.88898 0.2419 0.16634 0.0
H20 H 0.8499 0.2772 0.11365 0.0
H21 H 0.89134 0.31638 0.16042 0.0
C22 C 0.88849 0.27774 0.13724 0.0
C23 C 0.23208 0.3504 0.24702 0.0
H24 H 0.22584 0.30481 0.24622 0.0
H25 H 0.27266 0.35736 0.267 0.0
H26 H 0.23406 0.36789 0.20402 0.0
O27 O 0.15354 0.30227 0.17843 0.0
O28 O 0.09358 0.26345 0.12328 0.0
C29 C 0.10263 0.18727 0.25637 0.0
O30 O 0.99015 0.3469 0.17958 0.0
O31 O 0.06209 0.38861 0.21457 0.0
Zn32 Zn 0.4884 0.74749 0.68724 0.0
O33 O 0.55005 0.75498 0.74944 0.0
C34 C 0.50741 0.62104 0.70351 0.0
Zn35 Zn 0.4289 0.7014 0.74055 0.0
C36 C 0.54086 0.7267 0.79381 0.0
O37 O 0.49461 0.70095 0.79968 0.0
C38 C 0.37429 0.73513 0.6337 0.0
O39 O 0.4014 0.77555 0.7734 0.0
O40 O 0.45014 0.8281 0.71501 0.0
N41 N 0.38012 0.65661 0.79323 0.0
C42 C 0.33116 0.63235 0.77989 0.0
C43 C 0.37521 0.5766 0.83345 0.0
N44 N 0.40695 0.62227 0.82727 0.0
N45 N 0.32818 0.58109 0.80271 0.0
C46 C 0.58152 0.73659 0.59894 0.0
C47 C 0.53853 0.75384 0.52352 0.0
N48 N 0.53663 0.76746 0.61377 0.0
N49 N 0.5105 0.7785 0.56601 0.0
N50 N 0.58278 0.72472 0.5428 0.0
H51 H 0.62891 0.76878 0.66633 0.0
H52 H 0.66799 0.73346 0.61365 0.0
H53 H 0.62654 0.6943 0.66043 0.0
C54 C 0.62939 0.73293 0.63724 0.0
C55 C 0.2858 0.66027 0.74703 0.0
H56 H 0.29205 0.70586 0.74622 0.0
H57 H 0.24523 0.65332 0.76702 0.0
H58 H 0.28383 0.64278 0.70404 0.0
O59 O 0.36435 0.7084 0.67844 0.0
O60 O 0.42431 0.74722 0.62328 0.0
C61 C 0.41526 0.82339 0.75637 0.0
O62 O 0.52774 0.66377 0.67958 0.0
O63 O 0.45579 0.62206 0.71458 0.0
Zn64 Zn 0.58899 0.2014 0.7796 0.0
O65 O 0.61648 0.27556 0.74675 0.0
C66 C 0.64359 0.23513 0.88645 0.0
Zn67 Zn 0.52948 0.24749 0.8329 0.0
C68 C 0.60262 0.3234 0.76378 0.0
O69 O 0.56774 0.3281 0.80513 0.0
C70 C 0.51047 0.12104 0.81664 0.0
O71 O 0.46783 0.25498 0.77071 0.0
O72 O 0.52327 0.20095 0.72048 0.0
N73 N 0.48126 0.26746 0.90637 0.0
C74 C 0.43636 0.23659 0.92121 0.0
C75 C 0.47935 0.25384 0.99663 0.0
N76 N 0.50738 0.2785 0.95414 0.0
N77 N 0.4351 0.22472 0.97735 0.0
C78 C 0.68673 0.13235 0.74026 0.0
C79 C 0.64267 0.0766 0.6867 0.0
N80 N 0.63776 0.15661 0.72692 0.0
N81 N 0.61093 0.12228 0.69288 0.0
N82 N 0.6897 0.0811 0.71744 0.0
H83 H 0.72584 0.20586 0.77393 0.0
H84 H 0.77265 0.15332 0.75313 0.0
H85 H 0.73406 0.14278 0.81611 0.0
C86 C 0.73208 0.16028 0.77312 0.0
C87 C 0.38849 0.23292 0.88291 0.0
H88 H 0.38898 0.26877 0.85381 0.0
H89 H 0.34989 0.23346 0.90649 0.0
H90 H 0.39135 0.19429 0.85972 0.0
O91 O 0.49014 0.16377 0.84057 0.0
O92 O 0.56209 0.12206 0.80557 0.0
C93 C 0.47702 0.2267 0.72634 0.0
O94 O 0.65354 0.2084 0.84171 0.0
O95 O 0.59358 0.24722 0.89686 0.0
Zn96 Zn 0.9289 0.80926 0.2796 0.0
O97 O 0.9014 0.73512 0.24674 0.0
C98 C 0.87429 0.77553 0.38645 0.0
Zn99 Zn 0.9884 0.76317 0.3329 0.0
C100 C 0.91526 0.68727 0.26377 0.0
O101 O 0.95014 0.68257 0.30512 0.0
C102 C 1.00741 0.88963 0.31665 0.0
O103 O 0.05005 0.75569 0.2707 0.0
O104 O 0.99462 0.80972 0.22048 0.0
N105 N 0.03663 0.7432 0.40637 0.0
C106 C 0.08152 0.77407 0.42121 0.0
C107 C 0.03853 0.75682 0.49663 0.0
N108 N 0.0105 0.73216 0.45414 0.0
N109 N 0.08279 0.78594 0.47735 0.0
C110 C 0.83116 0.87832 0.24027 0.0
C111 C 0.87522 0.93408 0.1867 0.0
N112 N 0.88013 0.85407 0.22692 0.0
N113 N 0.90696 0.8884 0.19289 0.0
N114 N 0.82819 0.92958 0.21745 0.0
H115 H 0.79205 0.80481 0.27393 0.0
H116 H 0.74523 0.85736 0.25314 0.0
H117 H 0.78383 0.86789 0.31612 0.0
C118 C 0.78581 0.8504 0.27312 0.0
C119 C 0.12939 0.77773 0.3829 0.0
H120 H 0.1289 0.74189 0.35381 0.0
H121 H 0.16799 0.77719 0.40649 0.0
H122 H 0.12655 0.81637 0.35972 0.0
O123 O 0.02774 0.84689 0.34057 0.0
O124 O 0.95579 0.8886 0.30558 0.0
C125 C 0.04086 0.78397 0.22634 0.0
O126 O 0.86435 0.80226 0.34171 0.0
O127 O 0.9243 0.76345 0.39686 0.0
Zn128 Zn 0.24088 0.08466 0.31522 0.0
O129 O 0.27414 0.10897 0.23902 0.0
C130 C 0.13515 0.14025 0.28027 0.0
Zn131 Zn 0.18535 0.02606 0.27059 0.0
C132 C 0.25661 0.09507 0.19095 0.0
O133 O 0.2146 0.06111 0.18717 0.0
C134 C 0.20207 0.01115 0.3986 0.0
O135 O 0.24563 0.9624 0.26646 0.0
O136 O 0.29802 0.01758 0.31869 0.0
N137 N 0.1106 0.97934 0.25215 0.0
C138 C 0.09634 0.93204 0.2792 0.0
C139 C 0.021 0.97714 0.26866 0.0
N140 N 0.06292 0.00665 0.24522 0.0
N141 N 0.04065 0.93053 0.293 0.0
C142 C 0.27828 0.18219 0.38268 0.0
C143 C 0.33112 0.1394 0.44027 0.0
N144 N 0.2939 0.13422 0.35818 0.0
N145 N 0.32743 0.10818 0.3937 0.0
N146 N 0.29911 0.18517 0.43519 0.0
H147 H 0.24774 0.22085 0.30687 0.0
H148 H 0.26878 0.26792 0.35899 0.0
H149 H 0.20462 0.23187 0.36941 0.0
C150 C 0.24779 0.22795 0.35275 0.0
C151 C 0.13164 0.88276 0.27085 0.0
H152 H 0.1665 0.88526 0.29937 0.0
H153 H 0.14914 0.88265 0.22773 0.0
H154 H 0.10831 0.84493 0.2782 0.0
O155 O 0.17566 0.99119 0.35661 0.0
O156 O 0.21519 0.06178 0.39611 0.0
C157 C 0.28997 0.97063 0.29521 0.0
O158 O 0.18029 0.14951 0.30644 0.0
O159 O 0.12367 0.09087 0.26851 0.0
Zn160 Zn 0.33253 0.98461 0.77058 0.0
O161 O 0.27225 0.04827 0.76645 0.0
C162 C 0.3158 0.99951 0.89859 0.0
Zn163 Zn 0.27699 0.926 0.81521 0.0
C164 C 0.22791 0.04004 0.79521 0.0
O165 O 0.21986 0.99308 0.81868 0.0
C166 C 0.38273 0.87042 0.78026 0.0
O167 O 0.24374 0.90169 0.73901 0.0
O168 O 0.30328 0.94956 0.68716 0.0
N169 N 0.22397 0.87644 0.85817 0.0
C170 C 0.2396 0.82847 0.88267 0.0
C171 C 0.18676 0.87127 0.94026 0.0
N172 N 0.19045 0.90249 0.89369 0.0
N173 N 0.21878 0.8255 0.93519 0.0
C174 C 0.42154 0.07862 0.7792 0.0
C175 C 0.49688 0.03353 0.76865 0.0
N176 N 0.40729 0.03133 0.75214 0.0
N177 N 0.45497 1.00402 0.74521 0.0
N178 N 0.47724 0.08013 0.79299 0.0
H179 H 0.35139 0.12541 0.79937 0.0
H180 H 0.36875 0.12802 0.72773 0.0
H181 H 0.40957 0.16574 0.77819 0.0
C182 C 0.38624 0.1279 0.77084 0.0
C183 C 0.2701 0.78272 0.85275 0.0
H184 H 0.27014 0.78981 0.80686 0.0
H185 H 0.24911 0.74274 0.85898 0.0
H186 H 0.31326 0.7788 0.8694 0.0
O187 O 0.33759 0.86116 0.80643 0.0
O188 O 0.39421 0.9198 0.7685 0.0
C189 C 0.26127 0.9156 0.69094 0.0
O190 O 0.34222 0.01947 0.8566 0.0
O191 O 0.30268 0.94889 0.8961 0.0
Zn192 Zn 0.68535 0.48461 0.74956 0.0
O193 O 0.74563 0.54827 0.75369 0.0
C194 C 0.70207 0.49952 0.62156 0.0
Zn195 Zn 0.74088 0.426 0.70494 0.0
C196 C 0.78997 0.54004 0.72494 0.0
O197 O 0.79802 0.49308 0.70146 0.0
C198 C 0.63514 0.37042 0.73988 0.0
O199 O 0.77414 0.40169 0.78113 0.0
O200 O 0.7146 0.44956 0.83298 0.0
N201 N 0.7939 0.37645 0.66197 0.0
C202 C 0.77827 0.32848 0.63747 0.0
C203 C 0.83111 0.37127 0.57988 0.0
N204 N 0.82743 0.40249 0.62645 0.0
N205 N 0.7991 0.32551 0.58495 0.0
C206 C 0.59634 0.57863 0.74096 0.0
C207 C 0.521 0.53353 0.75151 0.0
N208 N 0.6106 0.53134 0.76801 0.0
N209 N 0.56292 0.50402 0.77495 0.0
N210 N 0.54065 0.58013 0.72716 0.0
H211 H 0.66649 0.62541 0.72078 0.0
H212 H 0.64914 0.62802 0.79242 0.0
H213 H 0.60831 0.66574 0.74196 0.0
C214 C 0.63164 0.62791 0.74931 0.0
C215 C 0.74778 0.28273 0.66739 0.0
H216 H 0.74774 0.28981 0.71327 0.0
H217 H 0.76876 0.24275 0.66115 0.0
H218 H 0.70461 0.27881 0.65074 0.0
O219 O 0.68029 0.36116 0.71372 0.0
O220 O 0.62367 0.4198 0.75165 0.0
C221 C 0.75661 0.4156 0.82921 0.0
O222 O 0.67565 0.51948 0.66354 0.0
O223 O 0.71519 0.44889 0.62405 0.0
Zn224 Zn 0.777 0.58467 0.20493 0.0
O225 O 0.74375 0.60898 0.28113 0.0
C226 C 0.88274 0.64025 0.23987 0.0
Zn227 Zn 0.83254 0.52606 0.24955 0.0
C228 C 0.76128 0.59507 0.3292 0.0
O229 O 0.80328 0.56111 0.33297 0.0
C230 C 0.81581 0.51116 0.12155 0.0
O231 O 0.77225 0.4624 0.25368 0.0
O232 O 0.71986 0.51759 0.20146 0.0
N233 N 0.90729 0.47934 0.26799 0.0
C234 C 0.92155 0.43205 0.24094 0.0
C235 C 0.99689 0.47714 0.25149 0.0
N236 N 0.95497 0.50666 0.27492 0.0
N237 N 0.97724 0.43054 0.22715 0.0
C238 C 0.73961 0.6822 0.13747 0.0
C239 C 0.68676 0.63941 0.07988 0.0
N240 N 0.72398 0.63423 0.16197 0.0
N241 N 0.69045 0.60818 0.12645 0.0
N242 N 0.71878 0.68517 0.08495 0.0
H243 H 0.77014 0.72086 0.21327 0.0
H244 H 0.74911 0.76793 0.16116 0.0
H245 H 0.81327 0.73188 0.15073 0.0
C246 C 0.7701 0.72795 0.16739 0.0
C247 C 0.88624 0.38277 0.2493 0.0
H248 H 0.85139 0.38526 0.22077 0.0
H249 H 0.86875 0.38265 0.29241 0.0
H250 H 0.90958 0.34493 0.24195 0.0
O251 O 0.84223 0.4912 0.16353 0.0
O252 O 0.80269 0.56178 0.12404 0.0
C253 C 0.72792 0.47063 0.22493 0.0
O254 O 0.8376 0.64952 0.21371 0.0
O255 O 0.89421 0.59087 0.25164 0.0
Zn256 Zn 0.26791 0.18113 0.02878 0.0
O257 O 0.26129 0.24378 0.96707 0.0
C258 C 0.39578 0.19833 0.0108 0.0
Zn259 Zn 0.31443 0.23414 0.08807 0.0
C260 C 0.29093 0.28706 0.97598 0.0
O261 O 0.31644 0.29268 0.0225 0.0
C262 C 0.28028 0.1276 0.14302 0.0
O263 O 0.23924 0.26739 0.11483 0.0
O264 O 0.18598 0.20933 0.06675 0.0
N265 N 0.35905 0.28587 0.13682 0.0
C266 C 0.38402 0.27025 0.18478 0.0
C267 C 0.44138 0.32208 0.14058 0.0
N268 N 0.3945 0.31854 0.10973 0.0
N269 N 0.43654 0.2908 0.18713 0.0
C270 C 0.28274 0.08952 0.93831 0.0
C271 C 0.25342 0.01709 0.97802 0.0
N272 N 0.2485 0.10762 0.97978 0.0
N273 N 0.23031 0.06153 1.00428 0.0
N274 N 0.28877 0.03341 0.93701 0.0
H275 H 0.28939 0.16863 0.90383 0.0
H276 H 0.28351 0.114 0.85529 0.0
H277 H 0.34918 0.12175 0.89274 0.0
C278 C 0.30323 0.12646 0.89474 0.0
C279 C 0.35367 0.24244 0.23203 0.0
H280 H 0.30807 0.24098 0.22393 0.0
H281 H 0.35879 0.26681 0.27058 0.0
H282 H 0.37088 0.20024 0.23932 0.0
O283 O 0.30675 0.17232 0.15276 0.0
O284 O 0.26773 0.11708 0.09292 0.0
C285 C 0.19086 0.25086 0.10112 0.0
O286 O 0.35307 0.17406 0.99053 0.0
O287 O 0.39473 0.20847 0.06262 0.0
Zn288 Zn 0.76791 0.32953 0.99137 0.0
O289 O 0.76129 0.26688 0.05308 0.0
C290 C 0.89578 0.31232 1.00934 0.0
Zn291 Zn 0.81443 0.27652 0.93207 0.0
C292 C 0.79093 0.22361 0.04417 0.0
O293 O 0.81643 0.21798 0.99765 0.0
C294 C 0.78028 0.38306 0.87713 0.0
O295 O 0.73924 0.24327 0.90532 0.0
O296 O 0.68598 0.30133 0.9534 0.0
N297 N 0.85904 0.22479 0.88332 0.0
C298 C 0.88401 0.24041 0.83536 0.0
C299 C 0.94137 0.18858 0.87956 0.0
N300 N 0.89449 0.19212 0.91041 0.0
N301 N 0.93653 0.21986 0.83301 0.0
C302 C 0.78275 0.42115 0.08183 0.0
C303 C 0.75342 0.49357 0.04213 0.0
N304 N 0.7485 0.40304 0.04037 0.0
N305 N 0.7303 0.44913 0.01587 0.0
N306 N 0.78877 0.47726 0.08314 0.0
H307 H 0.7894 0.34204 0.11631 0.0
H308 H 0.78352 0.39667 0.16486 0.0
H309 H 0.84919 0.38892 0.1274 0.0
C310 C 0.80324 0.38421 0.1254 0.0
C311 C 0.85366 0.26822 0.78811 0.0
H312 H 0.80806 0.26968 0.79622 0.0
H313 H 0.85878 0.24384 0.74957 0.0
H314 H 0.87087 0.31042 0.78082 0.0
O315 O 0.80675 0.33835 0.86739 0.0
O316 O 0.76773 0.39358 0.92723 0.0
C317 C 0.69086 0.25981 0.91903 0.0
O318 O 0.85307 0.3366 0.02961 0.0
O319 O 0.89473 0.30218 0.95752 0.0
Zn320 Zn 0.74998 0.68114 0.49137 0.0
O321 O 0.75659 0.74379 0.55307 0.0
C322 C 0.62211 0.69834 0.50934 0.0
Zn323 Zn 0.70346 0.73415 0.43207 0.0
C324 C 0.72695 0.78706 0.54417 0.0
O325 O 0.70145 0.79269 0.49765 0.0
C326 C 0.73761 0.6276 0.37713 0.0
O327 O 0.77864 0.76739 0.40532 0.0
O328 O 0.8319 0.70934 0.4534 0.0
N329 N 0.65884 0.78587 0.38332 0.0
C330 C 0.63387 0.77025 0.33536 0.0
C331 C 0.57651 0.82208 0.37956 0.0
N332 N 0.62339 0.81854 0.41041 0.0
N333 N 0.58135 0.79081 0.33301 0.0
C334 C 0.73513 0.58952 0.58183 0.0
C335 C 0.76446 0.5171 0.54213 0.0
N336 N 0.76938 0.60763 0.54037 0.0
N337 N 0.78757 0.56154 0.51587 0.0
N338 N 0.72911 0.53341 0.58314 0.0
H339 H 0.72849 0.66863 0.61631 0.0
H340 H 0.73437 0.614 0.66486 0.0
H341 H 0.6687 0.62176 0.62741 0.0
C342 C 0.71465 0.62647 0.62541 0.0
C343 C 0.66422 0.74244 0.28811 0.0
H344 H 0.70982 0.74099 0.29622 0.0
H345 H 0.6591 0.76683 0.24956 0.0
H346 H 0.64701 0.70025 0.28082 0.0
O347 O 0.71114 0.67232 0.36739 0.0
O348 O 0.75015 0.61708 0.42723 0.0
C349 C 0.82702 0.75086 0.41903 0.0
O350 O 0.66481 0.67406 0.52962 0.0
O351 O 0.62315 0.70848 0.45752 0.0
Zn352 Zn 0.20346 0.77651 0.58807 0.0
O353 O 0.27864 0.74327 0.61483 0.0
C354 C 0.23761 0.88306 0.64301 0.0
Zn355 Zn 0.24998 0.82952 0.52878 0.0
C356 C 0.32703 0.75981 0.60112 0.0
O357 O 0.33191 0.80133 0.56674 0.0
C358 C 0.12211 0.81232 0.5108 0.0
O359 O 0.2566 0.76688 0.46707 0.0
O360 O 0.20145 0.71797 0.5225 0.0
N361 N 0.26938 0.90304 0.47977 0.0
C362 C 0.23514 0.92114 0.43832 0.0
C363 C 0.26447 0.99356 0.47801 0.0
N364 N 0.28758 0.94912 0.50427 0.0
N365 N 0.22911 0.97725 0.43701 0.0
C366 C 0.13387 0.74041 0.68478 0.0
C367 C 0.07651 0.68858 0.64058 0.0
N368 N 0.15884 0.72479 0.63682 0.0
N369 N 0.1234 0.69211 0.60973 0.0
N370 N 0.08135 0.71986 0.68713 0.0
H371 H 0.20982 0.76968 0.72393 0.0
H372 H 0.1591 0.74384 0.77058 0.0
H373 H 0.14701 0.81041 0.73933 0.0
C374 C 0.16422 0.76822 0.73203 0.0
C375 C 0.21464 0.8842 0.39474 0.0
H376 H 0.22848 0.84203 0.40384 0.0
H377 H 0.23437 0.89666 0.35529 0.0
H378 H 0.16869 0.88892 0.39274 0.0
O379 O 0.16482 0.83659 0.49053 0.0
O380 O 0.12315 0.80218 0.56262 0.0
C381 C 0.22696 0.7236 0.47598 0.0
O382 O 0.21114 0.83835 0.65275 0.0
O383 O 0.25015 0.89358 0.59291 0.0
Zn384 Zn 0.92889 0.70141 0.77959 0.0
O385 O 0.9014 0.77556 0.74674 0.0
C386 C 0.87429 0.73514 0.88645 0.0
Zn387 Zn 0.9884 0.7475 0.8329 0.0
C388 C 0.91526 0.8234 0.76378 0.0
O389 O 0.95013 0.82811 0.80513 0.0
C390 C 1.00741 0.62104 0.81665 0.0
O391 O 0.05005 0.75498 0.7707 0.0
O392 O 0.99461 0.70095 0.72047 0.0
N393 N 0.03662 0.76746 0.90637 0.0
C394 C 0.08152 0.73659 0.92121 0.0
C395 C 0.03853 0.75384 0.99663 0.0
N396 N 0.0105 0.7785 0.95414 0.0
N397 N 0.08278 0.72473 0.97735 0.0
C398 C 0.83116 0.63235 0.74028 0.0
C399 C 0.87522 0.5766 0.68671 0.0
N400 N 0.88011 0.65661 0.72692 0.0
N401 N 0.90695 0.62228 0.69288 0.0
N402 N 0.8282 0.58108 0.71748 0.0
H403 H 0.79204 0.70586 0.77393 0.0
H404 H 0.74523 0.6533 0.75315 0.0
H405 H 0.78382 0.64278 0.81613 0.0
C406 C 0.7858 0.66027 0.77313 0.0
C407 C 0.12939 0.73293 0.8829 0.0
H408 H 0.1289 0.76878 0.85381 0.0
H409 H 0.16799 0.73347 0.90649 0.0
H410 H 0.12653 0.6943 0.85972 0.0
O411 O 0.02773 0.66378 0.84057 0.0
O412 O 0.95579 0.62207 0.80557 0.0
C413 C 0.04085 0.7267 0.72634 0.0
O414 O 0.86434 0.70841 0.84171 0.0
O415 O 0.9243 0.74722 0.89686 0.0
Zn416 Zn 0.52949 0.26318 0.3329 0.0
O417 O 0.46784 0.25569 0.2707 0.0
C418 C 0.51048 0.38963 0.31663 0.0
Zn419 Zn 0.58899 0.30926 0.27959 0.0
C420 C 0.47703 0.28396 0.22633 0.0
O421 O 0.52328 0.30972 0.22046 0.0
C422 C 0.64359 0.27554 0.38645 0.0
O423 O 0.61649 0.23511 0.24674 0.0
O424 O 0.56775 0.18257 0.30513 0.0
N425 N 0.63777 0.35406 0.22691 0.0
C426 C 0.68673 0.37832 0.24027 0.0
C427 C 0.64267 0.43408 0.18671 0.0
N428 N 0.61094 0.38839 0.19287 0.0
N429 N 0.68969 0.42959 0.21747 0.0
C430 C 0.43637 0.27408 0.42121 0.0
C431 C 0.47935 0.25683 0.49663 0.0
N432 N 0.48126 0.24321 0.40637 0.0
N433 N 0.50739 0.23217 0.45413 0.0
N434 N 0.4351 0.28595 0.47735 0.0
H435 H 0.38898 0.24189 0.35382 0.0
H436 H 0.3499 0.27721 0.4065 0.0
H437 H 0.39135 0.31637 0.35971 0.0
C438 C 0.3885 0.27774 0.38291 0.0
C439 C 0.73208 0.3504 0.27313 0.0
H440 H 0.72585 0.30481 0.27393 0.0
H441 H 0.77266 0.35736 0.25314 0.0
H442 H 0.73406 0.36789 0.31612 0.0
O443 O 0.65354 0.30227 0.34171 0.0
O444 O 0.59358 0.26345 0.39686 0.0
C445 C 0.60263 0.18727 0.26378 0.0
O446 O 0.49015 0.3469 0.34056 0.0
O447 O 0.56209 0.38861 0.30556 0.0
Zn448 Zn 0.4289 0.80926 0.24055 0.0
O449 O 0.4014 0.73511 0.2734 0.0
C450 C 0.37429 0.77553 0.13369 0.0
Zn451 Zn 0.4884 0.76317 0.18724 0.0
C452 C 0.41526 0.68727 0.25636 0.0
O453 O 0.45014 0.68256 0.21501 0.0
C454 C 0.50741 0.88963 0.2035 0.0
O455 O 0.55005 0.75569 0.24944 0.0
O456 O 0.49461 0.80971 0.29967 0.0
N457 N 0.53663 0.74321 0.11377 0.0
C458 C 0.58152 0.77408 0.09893 0.0
C459 C 0.53854 0.75683 0.02352 0.0
N460 N 0.5105 0.73217 0.06601 0.0
N461 N 0.58278 0.78595 0.0428 0.0
C462 C 0.33116 0.87832 0.27987 0.0
C463 C 0.37522 0.93407 0.33344 0.0
N464 N 0.38011 0.85405 0.29323 0.0
N465 N 0.40695 0.88838 0.32727 0.0
N466 N 0.3282 0.92959 0.30267 0.0
H467 H 0.29204 0.80481 0.24621 0.0
H468 H 0.24523 0.85736 0.26701 0.0
H469 H 0.28382 0.86789 0.20402 0.0
C470 C 0.2858 0.8504 0.24702 0.0
C471 C 0.62939 0.77775 0.13724 0.0
H472 H 0.6289 0.7419 0.16633 0.0
H473 H 0.66799 0.77722 0.11365 0.0
H474 H 0.62653 0.81638 0.16042 0.0
O475 O 0.52774 0.8469 0.17958 0.0
O476 O 0.45579 0.88861 0.21458 0.0
C477 C 0.54086 0.78396 0.29381 0.0
O478 O 0.36435 0.80227 0.17843 0.0
O479 O 0.42431 0.76345 0.12328 0.0
Zn480 Zn 0.08899 0.20141 0.74055 0.0
O481 O 0.11649 0.27556 0.7734 0.0
C482 C 0.14359 0.23514 0.6337 0.0
Zn483 Zn 0.02948 0.2475 0.68724 0.0
C484 C 0.10263 0.3234 0.75637 0.0
O485 O 0.06775 0.32811 0.71502 0.0
C486 C 0.01048 0.12104 0.7035 0.0
O487 O 0.96784 0.25498 0.74944 0.0
O488 O 0.02327 0.20095 0.79967 0.0
N489 N 0.98126 0.26747 0.61377 0.0
C490 C 0.93637 0.2366 0.59894 0.0
C491 C 0.97935 0.25385 0.52352 0.0
N492 N 1.00739 0.27851 0.56601 0.0
N493 N 0.9351 0.22473 0.5428 0.0
C494 C 0.18672 0.13235 0.77986 0.0
C495 C 0.14266 0.07659 0.83343 0.0
N496 N 0.13777 0.15661 0.79323 0.0
N497 N 0.11093 0.12228 0.82727 0.0
N498 N 0.18968 0.08108 0.80266 0.0
H499 H 0.22584 0.20585 0.74621 0.0
H500 H 0.27265 0.1533 0.767 0.0
H501 H 0.23406 0.14278 0.70401 0.0
C502 C 0.23208 0.16027 0.74701 0.0
C503 C 0.88849 0.23294 0.63724 0.0
H504 H 0.88898 0.26878 0.66634 0.0
H505 H 0.8499 0.23348 0.61365 0.0
H506 H 0.89134 0.1943 0.66043 0.0
O507 O 0.99015 0.16378 0.67958 0.0
O508 O 0.06209 0.12207 0.71458 0.0
C509 C 0.97703 0.2267 0.79381 0.0
O510 O 0.15354 0.20841 0.67843 0.0
O511 O 0.09358 0.24723 0.62328 0.0
Zn512 Zn 0.777 0.92601 0.70493 0.0
O513 O 0.74374 0.9017 0.78112 0.0
C514 C 0.88274 0.87042 0.73988 0.0
Zn515 Zn 0.83254 0.98462 0.74955 0.0
C516 C 0.76127 0.91561 0.8292 0.0
O517 O 0.80328 0.94957 0.83297 0.0
C518 C 0.81582 0.99952 0.62155 0.0
O519 O 0.77225 0.04828 0.75367 0.0
O520 O 0.71986 0.99309 0.70145 0.0
N521 N 0.90729 0.03134 0.76799 0.0
C522 C 0.92155 0.07863 0.74094 0.0
C523 C 0.99689 0.03353 0.75149 0.0
N524 N 0.95497 1.00402 0.77492 0.0
N525 N 0.97724 0.08014 0.72715 0.0
C526 C 0.73961 0.82848 0.63747 0.0
C527 C 0.68677 0.87127 0.57987 0.0
N528 N 0.72398 0.87645 0.66197 0.0
N529 N 0.69045 0.90249 0.62644 0.0
N530 N 0.71879 0.82551 0.58495 0.0
H531 H 0.77014 0.78982 0.71327 0.0
H532 H 0.74911 0.74275 0.66116 0.0
H533 H 0.81326 0.7788 0.65073 0.0
C534 C 0.7701 0.78273 0.66739 0.0
C535 C 0.88625 0.12791 0.7493 0.0
H536 H 0.85139 0.12542 0.72078 0.0
H537 H 0.86875 0.12802 0.79242 0.0
H538 H 0.90958 0.16575 0.74195 0.0
O539 O 0.84224 0.01947 0.66353 0.0
O540 O 0.8027 0.94889 0.62404 0.0
C541 C 0.72792 0.04005 0.72492 0.0
O542 O 0.83759 0.86116 0.71371 0.0
O543 O 0.89421 0.9198 0.75164 0.0
Zn544 Zn 0.68535 0.02606 0.24956 0.0
O545 O 0.74564 0.9624 0.25368 0.0
C546 C 0.70208 0.01116 0.12156 0.0
Zn547 Zn 0.74089 0.08467 0.20494 0.0
C548 C 0.78997 0.97063 0.22493 0.0
O549 O 0.79803 0.01759 0.20146 0.0
C550 C 0.63515 0.14025 0.23989 0.0
O551 O 0.77415 0.10897 0.28113 0.0
O552 O 0.71461 0.06111 0.33298 0.0
N553 N 0.79391 0.13423 0.16198 0.0
C554 C 0.77828 0.18219 0.13747 0.0
C555 C 0.83112 0.1394 0.07988 0.0
N556 N 0.82744 0.10818 0.12645 0.0
N557 N 0.7991 0.18516 0.08495 0.0
C558 C 0.59634 0.93204 0.24095 0.0
C559 C 0.521 0.97714 0.2515 0.0
N560 N 0.6106 0.97933 0.268 0.0
N561 N 0.56292 0.00665 0.27494 0.0
N562 N 0.54065 0.93054 0.22716 0.0
H563 H 0.66649 0.88525 0.22078 0.0
H564 H 0.64914 0.88264 0.29242 0.0
H565 H 0.6083 0.84493 0.24196 0.0
C566 C 0.63164 0.88276 0.24931 0.0
C567 C 0.74779 0.22795 0.1674 0.0
H568 H 0.74775 0.22086 0.21328 0.0
H569 H 0.76877 0.26792 0.16116 0.0
H570 H 0.70462 0.23187 0.15074 0.0
O571 O 0.6803 0.14951 0.21372 0.0
O572 O 0.62368 0.09087 0.25165 0.0
C573 C 0.75662 0.09507 0.32921 0.0
O574 O 0.67566 0.9912 0.16354 0.0
O575 O 0.7152 0.06179 0.12405 0.0
Zn576 Zn 0.33254 0.52605 0.27058 0.0
O577 O 0.27225 0.4624 0.26646 0.0
C578 C 0.31582 0.51116 0.39859 0.0
Zn579 Zn 0.277 0.58466 0.31521 0.0
C580 C 0.22792 0.47062 0.29522 0.0
O581 O 0.21987 0.51758 0.31869 0.0
C582 C 0.38274 0.64024 0.28026 0.0
O583 O 0.24374 0.60897 0.23901 0.0
O584 O 0.30328 0.56111 0.18716 0.0
N585 N 0.22398 0.63422 0.35817 0.0
C586 C 0.23962 0.68219 0.38268 0.0
C587 C 0.18677 0.63939 0.44027 0.0
N588 N 0.19046 0.60818 0.3937 0.0
N589 N 0.21879 0.68515 0.4352 0.0
C590 C 0.42155 0.43204 0.27919 0.0
C591 C 0.49689 0.47714 0.26863 0.0
N592 N 0.40729 0.47933 0.25213 0.0
N593 N 0.45497 0.50665 0.2452 0.0
N594 N 0.47724 0.43053 0.29298 0.0
H595 H 0.3514 0.38524 0.29936 0.0
H596 H 0.36875 0.38264 0.22772 0.0
H597 H 0.40958 0.34492 0.27818 0.0
C598 C 0.38625 0.38276 0.27083 0.0
C599 C 0.27011 0.72794 0.35275 0.0
H600 H 0.27015 0.72086 0.30687 0.0
H601 H 0.24913 0.76792 0.359 0.0
H602 H 0.31328 0.73186 0.36941 0.0
O603 O 0.33759 0.64951 0.30642 0.0
O604 O 0.39421 0.59087 0.26849 0.0
C605 C 0.26127 0.59506 0.19094 0.0
O606 O 0.34224 0.49119 0.3566 0.0
O607 O 0.3027 0.56178 0.39609 0.0
Zn608 Zn 0.24089 0.426 0.81522 0.0
O609 O 0.27415 0.4017 0.73902 0.0
C610 C 0.13515 0.37042 0.78027 0.0
Zn611 Zn 0.18535 0.48461 0.77059 0.0
C612 C 0.25662 0.41561 0.69094 0.0
O613 O 0.21461 0.44956 0.68717 0.0
C614 C 0.20207 0.49951 0.8986 0.0
O615 O 0.24563 0.54827 0.76647 0.0
O616 O 0.29802 0.49308 0.81869 0.0
N617 N 0.1106 0.53134 0.75215 0.0
C618 C 0.09634 0.57863 0.7792 0.0
C619 C 0.021 0.53353 0.76865 0.0
N620 N 0.06292 0.50402 0.74522 0.0
N621 N 0.04064 0.58013 0.793 0.0
C622 C 0.27827 0.32847 0.88268 0.0
C623 C 0.33112 0.37127 0.94026 0.0
N624 N 0.29391 0.37644 0.85817 0.0
N625 N 0.32743 0.40249 0.8937 0.0
N626 N 0.2991 0.3255 0.93519 0.0
H627 H 0.24774 0.28981 0.80687 0.0
H628 H 0.26877 0.24274 0.85899 0.0
H629 H 0.20462 0.2788 0.86942 0.0
C630 C 0.24778 0.28272 0.85275 0.0
C631 C 0.13164 0.62791 0.77084 0.0
H632 H 0.16649 0.62542 0.79937 0.0
H633 H 0.14914 0.62802 0.72773 0.0
H634 H 0.1083 0.66574 0.77819 0.0
O635 O 0.17565 0.51947 0.85661 0.0
O636 O 0.21519 0.44889 0.8961 0.0
C637 C 0.28997 0.54004 0.79523 0.0
O638 O 0.18029 0.36116 0.80643 0.0
O639 O 0.12367 0.4198 0.7685 0.0
Zn640 Zn 0.74997 0.82954 0.99136 0.0
O641 O 0.75659 0.76689 0.05307 0.0
C642 C 0.6221 0.81234 1.00934 0.0
Zn643 Zn 0.70345 0.77653 0.93207 0.0
C644 C 0.72695 0.72362 0.04417 0.0
O645 O 0.70144 0.71799 0.99765 0.0
C646 C 0.7376 0.88307 0.87713 0.0
O647 O 0.77864 0.74328 0.90532 0.0
O648 O 0.8319 0.80134 0.9534 0.0
N649 N 0.65883 0.7248 0.88333 0.0
C650 C 0.63387 0.74042 0.83536 0.0
C651 C 0.57651 0.68858 0.87957 0.0
N652 N 0.62339 0.69213 0.91042 0.0
N653 N 0.58135 0.71986 0.83301 0.0
C654 C 0.73513 0.92115 0.08183 0.0
C655 C 0.76447 0.99358 0.04213 0.0
N656 N 0.76938 0.90305 0.04037 0.0
N657 N 0.78758 0.94914 0.01587 0.0
N658 N 0.72911 0.97727 0.08314 0.0
H659 H 0.72849 0.84204 0.11631 0.0
H660 H 0.73436 0.89667 0.16486 0.0
H661 H 0.66869 0.88892 0.1274 0.0
C662 C 0.71464 0.88421 0.1254 0.0
C663 C 0.66422 0.76823 0.78811 0.0
H664 H 0.70982 0.76969 0.79622 0.0
H665 H 0.6591 0.74385 0.74956 0.0
H666 H 0.64701 0.81042 0.78082 0.0
O667 O 0.71114 0.83836 0.86739 0.0
O668 O 0.75015 0.8936 0.92723 0.0
C669 C 0.82702 0.75982 0.91903 0.0
O670 O 0.66481 0.83661 0.02961 0.0
O671 O 0.62315 0.8022 0.95752 0.0
Zn672 Zn 0.24998 0.68114 0.02878 0.0
O673 O 0.25659 0.74379 0.96706 0.0
C674 C 0.12211 0.69835 0.0108 0.0
Zn675 Zn 0.20346 0.73415 0.08807 0.0
C676 C 0.22696 0.78706 0.97597 0.0
O677 O 0.20145 0.79269 0.0225 0.0
C678 C 0.2376 0.6276 0.14301 0.0
O679 O 0.27864 0.7674 0.11482 0.0
O680 O 0.3319 0.70934 0.06674 0.0
N681 N 0.15884 0.78588 0.13682 0.0
C682 C 0.13388 0.77026 0.18478 0.0
C683 C 0.07652 0.8221 0.14058 0.0
N684 N 0.1234 0.81855 0.10973 0.0
N685 N 0.08136 0.79082 0.18714 0.0
C686 C 0.23513 0.58952 0.93832 0.0
C687 C 0.26446 0.5171 0.97801 0.0
N688 N 0.26938 0.60762 0.97977 0.0
N689 N 0.28758 0.56154 1.00427 0.0
N690 N 0.22911 0.53341 0.93701 0.0
H691 H 0.22848 0.66863 0.90383 0.0
H692 H 0.23435 0.614 0.85529 0.0
H693 H 0.16868 0.62175 0.89275 0.0
C694 C 0.21463 0.62646 0.89475 0.0
C695 C 0.16423 0.74245 0.23203 0.0
H696 H 0.20983 0.74099 0.22392 0.0
H697 H 0.15911 0.76683 0.27058 0.0
H698 H 0.14701 0.70026 0.23933 0.0
O699 O 0.21114 0.67232 0.15275 0.0
O700 O 0.25015 0.61708 0.09291 0.0
C701 C 0.32703 0.75086 0.10111 0.0
O702 O 0.16481 0.67407 0.99053 0.0
O703 O 0.12315 0.70849 0.06262 0.0
Zn704 Zn 0.26791 0.32954 0.52878 0.0
O705 O 0.2613 0.26689 0.46707 0.0
C706 C 0.39578 0.31233 0.5108 0.0
Zn707 Zn 0.31443 0.27653 0.58807 0.0
C708 C 0.29093 0.22361 0.47598 0.0
O709 O 0.31644 0.21798 0.5225 0.0
C710 C 0.28028 0.38307 0.64302 0.0
O711 O 0.23924 0.24328 0.61483 0.0
O712 O 0.18599 0.30134 0.56674 0.0
N713 N 0.35905 0.2248 0.63682 0.0
C714 C 0.38401 0.24041 0.68479 0.0
C715 C 0.44138 0.18858 0.64058 0.0
N716 N 0.39449 0.19213 0.60973 0.0
N717 N 0.43653 0.21985 0.68714 0.0
C718 C 0.28276 0.42115 0.43831 0.0
C719 C 0.25343 0.49357 0.47801 0.0
N720 N 0.24851 0.40305 0.47977 0.0
N721 N 0.23031 0.44913 0.50427 0.0
N722 N 0.28878 0.47726 0.437 0.0
H723 H 0.2894 0.34204 0.40383 0.0
H724 H 0.28353 0.39667 0.35528 0.0
H725 H 0.3492 0.38891 0.39274 0.0
C726 C 0.30325 0.38421 0.39474 0.0
C727 C 0.35366 0.26822 0.73204 0.0
H728 H 0.30806 0.26968 0.72393 0.0
H729 H 0.35877 0.24384 0.77058 0.0
H730 H 0.37087 0.31042 0.73933 0.0
O731 O 0.30675 0.33836 0.65276 0.0
O732 O 0.26773 0.39359 0.59292 0.0
C733 C 0.19086 0.25982 0.60112 0.0
O734 O 0.35308 0.33661 0.49053 0.0
O735 O 0.39474 0.30219 0.56262 0.0
Zn736 Zn 0.81443 0.23415 0.43207 0.0
O737 O 0.73924 0.2674 0.40532 0.0
C738 C 0.78028 0.1276 0.37713 0.0
Zn739 Zn 0.76791 0.18114 0.49137 0.0
C740 C 0.69086 0.25086 0.41903 0.0
O741 O 0.68598 0.20934 0.4534 0.0
C742 C 0.89578 0.19835 0.50934 0.0
O743 O 0.76129 0.24379 0.55308 0.0
O744 O 0.81643 0.2927 0.49765 0.0
N745 N 0.74851 0.10763 0.54037 0.0
C746 C 0.78276 0.08953 0.58183 0.0
C747 C 0.75342 0.0171 0.54213 0.0
N748 N 0.7303 0.06155 0.51588 0.0
N749 N 0.78878 0.03342 0.58313 0.0
C750 C 0.88401 0.27026 0.33536 0.0
C751 C 0.94137 0.3221 0.37956 0.0
N752 N 0.85904 0.28588 0.38332 0.0
N753 N 0.89449 0.31856 0.41041 0.0
N754 N 0.93653 0.29082 0.33301 0.0
H755 H 0.80806 0.24099 0.29622 0.0
H756 H 0.85878 0.26683 0.24957 0.0
H757 H 0.87087 0.20026 0.28082 0.0
C758 C 0.85366 0.24245 0.28811 0.0
C759 C 0.80325 0.12647 0.6254 0.0
H760 H 0.78941 0.16864 0.61631 0.0
H761 H 0.78353 0.11401 0.66485 0.0
H762 H 0.8492 0.12175 0.62739 0.0
O763 O 0.85307 0.17408 0.52962 0.0
O764 O 0.89473 0.20849 0.45752 0.0
C765 C 0.79092 0.28707 0.54417 0.0
O766 O 0.80675 0.17232 0.36739 0.0
O767 O 0.76773 0.11709 0.42723 0.0
loop_
_geom_bond_atom_site_label_1
_geom_bond_atom_site_label_2
_geom_bond_distance
_geom_bond_site_symmetry_2
_ccdc_geom_bond_type
Zn0 O1 2.055 1_455 S
Zn0 O8 2.046 . S
Zn0 N16 2.036 1_455 S
Zn0 O28 2.053 . S
Zn0 O30 2.066 1_455 S
O1 Zn0 2.055 1_655 S
O1 C4 1.259 . S
C2 O30 1.256 . S
C2 O31 1.244 1_655 S
Zn3 O5 2.046 . S
Zn3 O7 2.055 . S
Zn3 N9 2.036 . S
Zn3 O27 2.066 . S
Zn3 O31 2.053 . S
C4 O1 1.259 . S
C4 O5 1.254 1_655 S
O5 Zn3 2.046 . S
O5 C4 1.254 1_455 S
C6 O27 1.256 . S
C6 O28 1.244 . S
O7 Zn3 2.055 . S
O7 C29 1.259 . S
O8 Zn0 2.046 . S
O8 C29 1.254 . S
N9 Zn3 2.036 . S
N9 C10 1.298 . S
N9 N12 1.398 . S
C10 N9 1.298 . S
C10 N13 1.367 . S
C10 C23 1.481 . S
C11 N12 1.299 . S
C11 N13 1.379 . S
N12 N9 1.398 . S
N12 C11 1.299 . S
N13 C10 1.367 . S
N13 C11 1.379 . S
C14 N16 1.298 . S
C14 N18 1.367 . S
C14 C22 1.481 . S
C15 N17 1.299 . S
C15 N18 1.379 . S
N16 Zn0 2.036 1_655 S
N16 C14 1.298 . S
N16 N17 1.398 . S
N17 C15 1.299 . S
N17 N16 1.398 . S
N18 C14 1.367 . S
N18 C15 1.379 . S
H19 C22 0.980 . S
H20 C22 0.981 . S
H21 C22 0.981 . S
C22 C14 1.481 . S
C22 H19 0.980 . S
C22 H20 0.981 . S
C22 H21 0.981 . S
C23 C10 1.481 . S
C23 H24 0.980 . S
C23 H25 0.981 . S
C23 H26 0.981 . S
H24 C23 0.980 . S
H25 C23 0.981 . S
H26 C23 0.981 . S
O27 Zn3 2.066 . S
O27 C6 1.256 . S
O28 Zn0 2.053 . S
O28 C6 1.244 . S
C29 O7 1.259 . S
C29 O8 1.254 . S
O30 Zn0 2.066 1_655 S
O30 C2 1.256 . S
O31 C2 1.244 1_455 S
O31 Zn3 2.053 . S
Zn32 O33 2.055 . S
Zn32 O40 2.046 . S
Zn32 N48 2.036 . S
Zn32 O60 2.053 . S
Zn32 O62 2.066 . S
O33 Zn32 2.055 . S
O33 C36 1.259 . S
C34 O62 1.256 . S
C34 O63 1.244 . S
Zn35 O37 2.046 . S
Zn35 O39 2.055 . S
Zn35 N41 2.036 . S
Zn35 O59 2.066 . S
Zn35 O63 2.053 . S
C36 O33 1.259 . S
C36 O37 1.254 . S
O37 Zn35 2.046 . S
O37 C36 1.254 . S
C38 O59 1.256 . S
C38 O60 1.244 . S
O39 Zn35 2.055 . S
O39 C61 1.259 . S
O40 Zn32 2.046 . S
O40 C61 1.254 . S
N41 Zn35 2.036 . S
N41 C42 1.298 . S
N41 N44 1.398 . S
C42 N41 1.298 . S
C42 N45 1.367 . S
C42 C55 1.481 . S
C43 N44 1.299 . S
C43 N45 1.379 . S
N44 N41 1.398 . S
N44 C43 1.299 . S
N45 C42 1.367 . S
N45 C43 1.379 . S
C46 N48 1.298 . S
C46 N50 1.367 . S
C46 C54 1.481 . S
C47 N49 1.299 . S
C47 N50 1.379 . S
N48 Zn32 2.036 . S
N48 C46 1.298 . S
N48 N49 1.398 . S
N49 C47 1.299 . S
N49 N48 1.398 . S
N50 C46 1.367 . S
N50 C47 1.379 . S
H51 C54 0.980 . S
H52 C54 0.981 . S
H53 C54 0.981 . S
C54 C46 1.481 . S
C54 H51 0.980 . S
C54 H52 0.981 . S
C54 H53 0.981 . S
C55 C42 1.481 . S
C55 H56 0.980 . S
C55 H57 0.981 . S
C55 H58 0.981 . S
H56 C55 0.980 . S
H57 C55 0.981 . S
H58 C55 0.981 . S
O59 Zn35 2.066 . S
O59 C38 1.256 . S
O60 Zn32 2.053 . S
O60 C38 1.244 . S
C61 O39 1.259 . S
C61 O40 1.254 . S
O62 Zn32 2.066 . S
O62 C34 1.256 . S
O63 C34 1.244 . S
O63 Zn35 2.053 . S
Zn64 O65 2.055 . S
Zn64 O72 2.046 . S
Zn64 N80 2.036 . S
Zn64 O92 2.053 . S
Zn64 O94 2.066 . S
O65 Zn64 2.055 . S
O65 C68 1.259 . S
C66 O94 1.256 . S
C66 O95 1.244 . S
Zn67 O69 2.046 . S
Zn67 O71 2.055 . S
Zn67 N73 2.036 . S
Zn67 O91 2.066 . S
Zn67 O95 2.053 . S
C68 O65 1.259 . S
C68 O69 1.254 . S
O69 Zn67 2.046 . S
O69 C68 1.254 . S
C70 O91 1.256 . S
C70 O92 1.244 . S
O71 Zn67 2.055 . S
O71 C93 1.259 . S
O72 Zn64 2.046 . S
O72 C93 1.254 . S
N73 Zn67 2.036 . S
N73 C74 1.298 . S
N73 N76 1.398 . S
C74 N73 1.298 . S
C74 N77 1.367 . S
C74 C87 1.481 . S
C75 N76 1.299 . S
C75 N77 1.379 . S
N76 N73 1.398 . S
N76 C75 1.299 . S
N77 C74 1.367 . S
N77 C75 1.379 . S
C78 N80 1.298 . S
C78 N82 1.367 . S
C78 C86 1.481 . S
C79 N81 1.299 . S
C79 N82 1.379 . S
N80 Zn64 2.036 . S
N80 C78 1.298 . S
N80 N81 1.398 . S
N81 C79 1.299 . S
N81 N80 1.398 . S
N82 C78 1.367 . S
N82 C79 1.379 . S
H83 C86 0.980 . S
H84 C86 0.981 . S
H85 C86 0.981 . S
C86 C78 1.481 . S
C86 H83 0.980 . S
C86 H84 0.981 . S
C86 H85 0.981 . S
C87 C74 1.481 . S
C87 H88 0.980 . S
C87 H89 0.981 . S
C87 H90 0.981 . S
H88 C87 0.980 . S
H89 C87 0.981 . S
H90 C87 0.981 . S
O91 Zn67 2.066 . S
O91 C70 1.256 . S
O92 Zn64 2.053 . S
O92 C70 1.244 . S
C93 O71 1.259 . S
C93 O72 1.254 . S
O94 Zn64 2.066 . S
O94 C66 1.256 . S
O95 C66 1.244 . S
O95 Zn67 2.053 . S
Zn96 O97 2.055 . S
Zn96 O104 2.046 . S
Zn96 N112 2.036 . S
Zn96 O124 2.053 . S
Zn96 O126 2.066 . S
O97 Zn96 2.055 . S
O97 C100 1.259 . S
C98 O126 1.256 . S
C98 O127 1.244 . S
Zn99 O101 2.046 . S
Zn99 O103 2.055 1_655 S
Zn99 N105 2.036 1_655 S
Zn99 O123 2.066 1_655 S
Zn99 O127 2.053 . S
C100 O97 1.259 . S
C100 O101 1.254 . S
O101 Zn99 2.046 . S
O101 C100 1.254 . S
C102 O123 1.256 . S
C102 O124 1.244 1_455 S
O103 Zn99 2.055 1_455 S
O103 C125 1.259 . S
O104 Zn96 2.046 . S
O104 C125 1.254 1_655 S
N105 Zn99 2.036 1_455 S
N105 C106 1.298 . S
N105 N108 1.398 . S
C106 N105 1.298 . S
C106 N109 1.367 . S
C106 C119 1.481 . S
C107 N108 1.299 . S
C107 N109 1.379 . S
N108 N105 1.398 . S
N108 C107 1.299 . S
N109 C106 1.367 . S
N109 C107 1.379 . S
C110 N112 1.298 . S
C110 N114 1.367 . S
C110 C118 1.481 . S
C111 N113 1.299 . S
C111 N114 1.379 . S
N112 Zn96 2.036 . S
N112 C110 1.298 . S
N112 N113 1.398 . S
N113 C111 1.299 . S
N113 N112 1.398 . S
N114 C110 1.367 . S
N114 C111 1.379 . S
H115 C118 0.980 . S
H116 C118 0.981 . S
H117 C118 0.981 . S
C118 C110 1.481 . S
C118 H115 0.980 . S
C118 H116 0.981 . S
C118 H117 0.981 . S
C119 C106 1.481 . S
C119 H120 0.980 . S
C119 H121 0.981 . S
C119 H122 0.981 . S
H120 C119 0.980 . S
H121 C119 0.981 . S
H122 C119 0.981 . S
O123 Zn99 2.066 1_455 S
O123 C102 1.256 . S
O124 Zn96 2.053 . S
O124 C102 1.244 1_655 S
C125 O103 1.259 . S
C125 O104 1.254 1_455 S
O126 Zn96 2.066 . S
O126 C98 1.256 . S
O127 C98 1.244 . S
O127 Zn99 2.053 . S
Zn128 O129 2.055 . S
Zn128 O136 2.046 . S
Zn128 N144 2.036 . S
Zn128 O156 2.053 . S
Zn128 O158 2.066 . S
O129 Zn128 2.055 . S
O129 C132 1.259 . S
C130 O158 1.256 . S
C130 O159 1.244 . S
Zn131 O133 2.046 . S
Zn131 O135 2.055 1_545 S
Zn131 N137 2.036 1_545 S
Zn131 O155 2.066 1_545 S
Zn131 O159 2.053 . S
C132 O129 1.259 . S
C132 O133 1.254 . S
O133 Zn131 2.046 . S
O133 C132 1.254 . S
C134 O155 1.256 . S
C134 O156 1.244 1_565 S
O135 Zn131 2.055 1_565 S
O135 C157 1.259 . S
O136 Zn128 2.046 . S
O136 C157 1.254 1_545 S
N137 Zn131 2.036 1_565 S
N137 C138 1.298 . S
N137 N140 1.398 . S
C138 N137 1.298 . S
C138 N141 1.367 . S
C138 C151 1.481 . S
C139 N140 1.299 . S
C139 N141 1.379 . S
N140 N137 1.398 . S
N140 C139 1.299 . S
N141 C138 1.367 . S
N141 C139 1.379 . S
C142 N144 1.298 . S
C142 N146 1.367 . S
C142 C150 1.481 . S
C143 N145 1.299 . S
C143 N146 1.379 . S
N144 Zn128 2.036 . S
N144 C142 1.298 . S
N144 N145 1.398 . S
N145 C143 1.299 . S
N145 N144 1.398 . S
N146 C142 1.367 . S
N146 C143 1.379 . S
H147 C150 0.980 . S
H148 C150 0.981 . S
H149 C150 0.981 . S
C150 C142 1.481 . S
C150 H147 0.980 . S
C150 H148 0.981 . S
C150 H149 0.981 . S
C151 C138 1.481 . S
C151 H152 0.980 . S
C151 H153 0.981 . S
C151 H154 0.981 . S
H152 C151 0.980 . S
H153 C151 0.981 . S
H154 C151 0.981 . S
O155 Zn131 2.066 1_565 S
O155 C134 1.256 . S
O156 Zn128 2.053 . S
O156 C134 1.244 1_545 S
C157 O135 1.259 . S
C157 O136 1.254 1_565 S
O158 Zn128 2.066 . S
O158 C130 1.256 . S
O159 C130 1.244 . S
O159 Zn131 2.053 . S
Zn160 O161 2.055 1_565 S
Zn160 O168 2.046 . S
Zn160 N176 2.036 1_565 S
Zn160 O188 2.053 . S
Zn160 O190 2.066 1_565 S
O161 Zn160 2.055 1_545 S
O161 C164 1.259 . S
C162 O190 1.256 . S
C162 O191 1.244 1_545 S
Zn163 O165 2.046 . S
Zn163 O167 2.055 . S
Zn163 N169 2.036 . S
Zn163 O187 2.066 . S
Zn163 O191 2.053 . S
C164 O161 1.259 . S
C164 O165 1.254 1_545 S
O165 Zn163 2.046 . S
O165 C164 1.254 1_565 S
C166 O187 1.256 . S
C166 O188 1.244 . S
O167 Zn163 2.055 . S
O167 C189 1.259 . S
O168 Zn160 2.046 . S
O168 C189 1.254 . S
N169 Zn163 2.036 . S
N169 C170 1.298 . S
N169 N172 1.398 . S
C170 N169 1.298 . S
C170 N173 1.367 . S
C170 C183 1.481 . S
C171 N172 1.299 . S
C171 N173 1.379 . S
N172 N169 1.398 . S
N172 C171 1.299 . S
N173 C170 1.367 . S
N173 C171 1.379 . S
C174 N176 1.298 . S
C174 N178 1.367 . S
C174 C182 1.481 . S
C175 N177 1.299 . S
C175 N178 1.379 . S
N176 Zn160 2.036 1_545 S
N176 C174 1.298 . S
N176 N177 1.398 . S
N177 C175 1.299 . S
N177 N176 1.398 . S
N178 C174 1.367 . S
N178 C175 1.379 . S
H179 C182 0.980 . S
H180 C182 0.981 . S
H181 C182 0.981 . S
C182 C174 1.481 . S
C182 H179 0.980 . S
C182 H180 0.981 . S
C182 H181 0.981 . S
C183 C170 1.481 . S
C183 H184 0.980 . S
C183 H185 0.981 . S
C183 H186 0.981 . S
H184 C183 0.980 . S
H185 C183 0.981 . S
H186 C183 0.981 . S
O187 Zn163 2.066 . S
O187 C166 1.256 . S
O188 Zn160 2.053 . S
O188 C166 1.244 . S
C189 O167 1.259 . S
C189 O168 1.254 . S
O190 Zn160 2.066 1_545 S
O190 C162 1.256 . S
O191 C162 1.244 1_565 S
O191 Zn163 2.053 . S
Zn192 O193 2.055 . S
Zn192 O200 2.046 . S
Zn192 N208 2.036 . S
Zn192 O220 2.053 . S
Zn192 O222 2.066 . S
O193 Zn192 2.055 . S
O193 C196 1.259 . S
C194 O222 1.256 . S
C194 O223 1.244 . S
Zn195 O197 2.046 . S
Zn195 O199 2.055 . S
Zn195 N201 2.036 . S
Zn195 O219 2.066 . S
Zn195 O223 2.053 . S
C196 O193 1.259 . S
C196 O197 1.254 . S
O197 Zn195 2.046 . S
O197 C196 1.254 . S
C198 O219 1.256 . S
C198 O220 1.244 . S
O199 Zn195 2.055 . S
O199 C221 1.259 . S
O200 Zn192 2.046 . S
O200 C221 1.254 . S
N201 Zn195 2.036 . S
N201 C202 1.298 . S
N201 N204 1.398 . S
C202 N201 1.298 . S
C202 N205 1.367 . S
C202 C215 1.481 . S
C203 N204 1.299 . S
C203 N205 1.379 . S
N204 N201 1.398 . S
N204 C203 1.299 . S
N205 C202 1.367 . S
N205 C203 1.379 . S
C206 N208 1.298 . S
C206 N210 1.367 . S
C206 C214 1.481 . S
C207 N209 1.299 . S
C207 N210 1.379 . S
N208 Zn192 2.036 . S
N208 C206 1.298 . S
N208 N209 1.398 . S
N209 C207 1.299 . S
N209 N208 1.398 . S
N210 C206 1.367 . S
N210 C207 1.379 . S
H211 C214 0.980 . S
H212 C214 0.981 . S
H213 C214 0.981 . S
C214 C206 1.481 . S
C214 H211 0.980 . S
C214 H212 0.981 . S
C214 H213 0.981 . S
C215 C202 1.481 . S
C215 H216 0.980 . S
C215 H217 0.981 . S
C215 H218 0.981 . S
H216 C215 0.980 . S
H217 C215 0.981 . S
H218 C215 0.981 . S
O219 Zn195 2.066 . S
O219 C198 1.256 . S
O220 Zn192 2.053 . S
O220 C198 1.244 . S
C221 O199 1.259 . S
C221 O200 1.254 . S
O222 Zn192 2.066 . S
O222 C194 1.256 . S
O223 C194 1.244 . S
O223 Zn195 2.053 . S
Zn224 O225 2.055 . S
Zn224 O232 2.046 . S
Zn224 N240 2.036 . S
Zn224 O252 2.053 . S
Zn224 O254 2.066 . S
O225 Zn224 2.055 . S
O225 C228 1.259 . S
C226 O254 1.256 . S
C226 O255 1.244 . S
Zn227 O229 2.046 . S
Zn227 O231 2.055 . S
Zn227 N233 2.036 . S
Zn227 O251 2.066 . S
Zn227 O255 2.053 . S
C228 O225 1.259 . S
C228 O229 1.254 . S
O229 Zn227 2.046 . S
O229 C228 1.254 . S
C230 O251 1.256 . S
C230 O252 1.244 . S
O231 Zn227 2.055 . S
O231 C253 1.259 . S
O232 Zn224 2.046 . S
O232 C253 1.254 . S
N233 Zn227 2.036 . S
N233 C234 1.298 . S
N233 N236 1.398 . S
C234 N233 1.298 . S
C234 N237 1.367 . S
C234 C247 1.481 . S
C235 N236 1.299 . S
C235 N237 1.379 . S
N236 N233 1.398 . S
N236 C235 1.299 . S
N237 C234 1.367 . S
N237 C235 1.379 . S
C238 N240 1.298 . S
C238 N242 1.367 . S
C238 C246 1.481 . S
C239 N241 1.299 . S
C239 N242 1.379 . S
N240 Zn224 2.036 . S
N240 C238 1.298 . S
N240 N241 1.398 . S
N241 C239 1.299 . S
N241 N240 1.398 . S
N242 C238 1.367 . S
N242 C239 1.379 . S
H243 C246 0.980 . S
H244 C246 0.981 . S
H245 C246 0.981 . S
C246 C238 1.481 . S
C246 H243 0.980 . S
C246 H244 0.981 . S
C246 H245 0.981 . S
C247 C234 1.481 . S
C247 H248 0.980 . S
C247 H249 0.981 . S
C247 H250 0.981 . S
H248 C247 0.980 . S
H249 C247 0.981 . S
H250 C247 0.981 . S
O251 Zn227 2.066 . S
O251 C230 1.256 . S
O252 Zn224 2.053 . S
O252 C230 1.244 . S
C253 O231 1.259 . S
C253 O232 1.254 . S
O254 Zn224 2.066 . S
O254 C226 1.256 . S
O255 C226 1.244 . S
O255 Zn227 2.053 . S
Zn256 O257 2.055 1_554 S
Zn256 O264 2.046 . S
Zn256 N272 2.036 1_554 S
Zn256 O284 2.053 . S
Zn256 O286 2.066 1_554 S
O257 Zn256 2.055 1_556 S
O257 C260 1.259 . S
C258 O286 1.256 . S
C258 O287 1.244 1_556 S
Zn259 O261 2.046 . S
Zn259 O263 2.055 . S
Zn259 N265 2.036 . S
Zn259 O283 2.066 . S
Zn259 O287 2.053 . S
C260 O257 1.259 . S
C260 O261 1.254 1_556 S
O261 Zn259 2.046 . S
O261 C260 1.254 1_554 S
C262 O283 1.256 . S
C262 O284 1.244 . S
O263 Zn259 2.055 . S
O263 C285 1.259 . S
O264 Zn256 2.046 . S
O264 C285 1.254 . S
N265 Zn259 2.036 . S
N265 C266 1.298 . S
N265 N268 1.398 . S
C266 N265 1.298 . S
C266 N269 1.367 . S
C266 C279 1.481 . S
C267 N268 1.299 . S
C267 N269 1.379 . S
N268 N265 1.398 . S
N268 C267 1.299 . S
N269 C266 1.367 . S
N269 C267 1.379 . S
C270 N272 1.298 . S
C270 N274 1.367 . S
C270 C278 1.481 . S
C271 N273 1.299 . S
C271 N274 1.379 . S
N272 Zn256 2.036 1_556 S
N272 C270 1.298 . S
N272 N273 1.398 . S
N273 C271 1.299 . S
N273 N272 1.398 . S
N274 C270 1.367 . S
N274 C271 1.379 . S
H275 C278 0.980 . S
H276 C278 0.981 . S
H277 C278 0.981 . S
C278 C270 1.481 . S
C278 H275 0.980 . S
C278 H276 0.981 . S
C278 H277 0.981 . S
C279 C266 1.481 . S
C279 H280 0.980 . S
C279 H281 0.981 . S
C279 H282 0.981 . S
H280 C279 0.980 . S
H281 C279 0.981 . S
H282 C279 0.981 . S
O283 Zn259 2.066 . S
O283 C262 1.256 . S
O284 Zn256 2.053 . S
O284 C262 1.244 . S
C285 O263 1.259 . S
C285 O264 1.254 . S
O286 Zn256 2.066 1_556 S
O286 C258 1.256 . S
O287 C258 1.244 1_554 S
O287 Zn259 2.053 . S
Zn288 O289 2.055 1_556 S
Zn288 O296 2.046 . S
Zn288 N304 2.036 1_556 S
Zn288 O316 2.053 . S
Zn288 O318 2.066 1_556 S
O289 Zn288 2.055 1_554 S
O289 C292 1.259 . S
C290 O318 1.256 . S
C290 O319 1.244 1_554 S
Zn291 O293 2.046 . S
Zn291 O295 2.055 . S
Zn291 N297 2.036 . S
Zn291 O315 2.066 . S
Zn291 O319 2.053 . S
C292 O289 1.259 . S
C292 O293 1.254 1_554 S
O293 Zn291 2.046 . S
O293 C292 1.254 1_556 S
C294 O315 1.256 . S
C294 O316 1.244 . S
O295 Zn291 2.055 . S
O295 C317 1.259 . S
O296 Zn288 2.046 . S
O296 C317 1.254 . S
N297 Zn291 2.036 . S
N297 C298 1.298 . S
N297 N300 1.398 . S
C298 N297 1.298 . S
C298 N301 1.367 . S
C298 C311 1.481 . S
C299 N300 1.299 . S
C299 N301 1.379 . S
N300 N297 1.398 . S
N300 C299 1.299 . S
N301 C298 1.367 . S
N301 C299 1.379 . S
C302 N304 1.298 . S
C302 N306 1.367 . S
C302 C310 1.481 . S
C303 N305 1.299 . S
C303 N306 1.379 . S
N304 Zn288 2.036 1_554 S
N304 C302 1.298 . S
N304 N305 1.398 . S
N305 C303 1.299 . S
N305 N304 1.398 . S
N306 C302 1.367 . S
N306 C303 1.379 . S
H307 C310 0.980 . S
H308 C310 0.981 . S
H309 C310 0.981 . S
C310 C302 1.481 . S
C310 H307 0.980 . S
C310 H308 0.981 . S
C310 H309 0.981 . S
C311 C298 1.481 . S
C311 H312 0.980 . S
C311 H313 0.981 . S
C311 H314 0.981 . S
H312 C311 0.980 . S
H313 C311 0.981 . S
H314 C311 0.981 . S
O315 Zn291 2.066 . S
O315 C294 1.256 . S
O316 Zn288 2.053 . S
O316 C294 1.244 . S
C317 O295 1.259 . S
C317 O296 1.254 . S
O318 Zn288 2.066 1_554 S
O318 C290 1.256 . S
O319 C290 1.244 1_556 S
O319 Zn291 2.053 . S
Zn320 O321 2.055 . S
Zn320 O328 2.046 . S
Zn320 N336 2.036 . S
Zn320 O348 2.053 . S
Zn320 O350 2.066 . S
O321 Zn320 2.055 . S
O321 C324 1.259 . S
C322 O350 1.256 . S
C322 O351 1.244 . S
Zn323 O325 2.046 . S
Zn323 O327 2.055 . S
Zn323 N329 2.036 . S
Zn323 O347 2.066 . S
Zn323 O351 2.053 . S
C324 O321 1.259 . S
C324 O325 1.254 . S
O325 Zn323 2.046 . S
O325 C324 1.254 . S
C326 O347 1.256 . S
C326 O348 1.244 . S
O327 Zn323 2.055 . S
O327 C349 1.259 . S
O328 Zn320 2.046 . S
O328 C349 1.254 . S
N329 Zn323 2.036 . S
N329 C330 1.298 . S
N329 N332 1.398 . S
C330 N329 1.298 . S
C330 N333 1.367 . S
C330 C343 1.481 . S
C331 N332 1.299 . S
C331 N333 1.379 . S
N332 N329 1.398 . S
N332 C331 1.299 . S
N333 C330 1.367 . S
N333 C331 1.379 . S
C334 N336 1.298 . S
C334 N338 1.367 . S
C334 C342 1.481 . S
C335 N337 1.299 . S
C335 N338 1.379 . S
N336 Zn320 2.036 . S
N336 C334 1.298 . S
N336 N337 1.398 . S
N337 C335 1.299 . S
N337 N336 1.398 . S
N338 C334 1.367 . S
N338 C335 1.379 . S
H339 C342 0.980 . S
H340 C342 0.981 . S
H341 C342 0.981 . S
C342 C334 1.481 . S
C342 H339 0.980 . S
C342 H340 0.981 . S
C342 H341 0.981 . S
C343 C330 1.481 . S
C343 H344 0.980 . S
C343 H345 0.981 . S
C343 H346 0.981 . S
H344 C343 0.980 . S
H345 C343 0.981 . S
H346 C343 0.981 . S
O347 Zn323 2.066 . S
O347 C326 1.256 . S
O348 Zn320 2.053 . S
O348 C326 1.244 . S
C349 O327 1.259 . S
C349 O328 1.254 . S
O350 Zn320 2.066 . S
O350 C322 1.256 . S
O351 C322 1.244 . S
O351 Zn323 2.053 . S
Zn352 O353 2.055 . S
Zn352 O360 2.046 . S
Zn352 N368 2.036 . S
Zn352 O380 2.053 . S
Zn352 O382 2.066 . S
O353 Zn352 2.055 . S
O353 C356 1.259 . S
C354 O382 1.256 . S
C354 O383 1.244 . S
Zn355 O357 2.046 . S
Zn355 O359 2.055 . S
Zn355 N361 2.036 . S
Zn355 O379 2.066 . S
Zn355 O383 2.053 . S
C356 O353 1.259 . S
C356 O357 1.254 . S
O357 Zn355 2.046 . S
O357 C356 1.254 . S
C358 O379 1.256 . S
C358 O380 1.244 . S
O359 Zn355 2.055 . S
O359 C381 1.259 . S
O360 Zn352 2.046 . S
O360 C381 1.254 . S
N361 Zn355 2.036 . S
N361 C362 1.298 . S
N361 N364 1.398 . S
C362 N361 1.298 . S
C362 N365 1.367 . S
C362 C375 1.481 . S
C363 N364 1.299 . S
C363 N365 1.379 . S
N364 N361 1.398 . S
N364 C363 1.299 . S
N365 C362 1.367 . S
N365 C363 1.379 . S
C366 N368 1.298 . S
C366 N370 1.367 . S
C366 C374 1.481 . S
C367 N369 1.299 . S
C367 N370 1.379 . S
N368 Zn352 2.036 . S
N368 C366 1.298 . S
N368 N369 1.398 . S
N369 C367 1.299 . S
N369 N368 1.398 . S
N370 C366 1.367 . S
N370 C367 1.379 . S
H371 C374 0.980 . S
H372 C374 0.981 . S
H373 C374 0.981 . S
C374 C366 1.481 . S
C374 H371 0.980 . S
C374 H372 0.981 . S
C374 H373 0.981 . S
C375 C362 1.481 . S
C375 H376 0.980 . S
C375 H377 0.981 . S
C375 H378 0.981 . S
H376 C375 0.980 . S
H377 C375 0.981 . S
H378 C375 0.981 . S
O379 Zn355 2.066 . S
O379 C358 1.256 . S
O380 Zn352 2.053 . S
O380 C358 1.244 . S
C381 O359 1.259 . S
C381 O360 1.254 . S
O382 Zn352 2.066 . S
O382 C354 1.256 . S
O383 C354 1.244 . S
O383 Zn355 2.053 . S
Zn384 O385 2.055 . S
Zn384 O392 2.046 . S
Zn384 N400 2.036 . S
Zn384 O412 2.053 . S
Zn384 O414 2.066 . S
O385 Zn384 2.055 . S
O385 C388 1.259 . S
C386 O414 1.256 . S
C386 O415 1.244 . S
Zn387 O389 2.046 . S
Zn387 O391 2.055 1_655 S
Zn387 N393 2.036 1_655 S
Zn387 O411 2.066 1_655 S
Zn387 O415 2.053 . S
C388 O385 1.259 . S
C388 O389 1.254 . S
O389 Zn387 2.046 . S
O389 C388 1.254 . S
C390 O411 1.256 . S
C390 O412 1.244 1_455 S
O391 Zn387 2.055 1_455 S
O391 C413 1.259 . S
O392 Zn384 2.046 . S
O392 C413 1.254 1_655 S
N393 Zn387 2.036 1_455 S
N393 C394 1.298 . S
N393 N396 1.398 . S
C394 N393 1.298 . S
C394 N397 1.367 . S
C394 C407 1.481 . S
C395 N396 1.299 . S
C395 N397 1.379 . S
N396 N393 1.398 . S
N396 C395 1.299 . S
N397 C394 1.367 . S
N397 C395 1.379 . S
C398 N400 1.298 . S
C398 N402 1.367 . S
C398 C406 1.481 . S
C399 N401 1.299 . S
C399 N402 1.379 . S
N400 Zn384 2.036 . S
N400 C398 1.298 . S
N400 N401 1.398 . S
N401 C399 1.299 . S
N401 N400 1.398 . S
N402 C398 1.367 . S
N402 C399 1.379 . S
H403 C406 0.980 . S
H404 C406 0.981 . S
H405 C406 0.981 . S
C406 C398 1.481 . S
C406 H403 0.980 . S
C406 H404 0.981 . S
C406 H405 0.981 . S
C407 C394 1.481 . S
C407 H408 0.980 . S
C407 H409 0.981 . S
C407 H410 0.981 . S
H408 C407 0.980 . S
H409 C407 0.981 . S
H410 C407 0.981 . S
O411 Zn387 2.066 1_455 S
O411 C390 1.256 . S
O412 Zn384 2.053 . S
O412 C390 1.244 1_655 S
C413 O391 1.259 . S
C413 O392 1.254 1_455 S
O414 Zn384 2.066 . S
O414 C386 1.256 . S
O415 C386 1.244 . S
O415 Zn387 2.053 . S
Zn416 O417 2.055 . S
Zn416 O424 2.046 . S
Zn416 N432 2.036 . S
Zn416 O444 2.053 . S
Zn416 O446 2.066 . S
O417 Zn416 2.055 . S
O417 C420 1.259 . S
C418 O446 1.256 . S
C418 O447 1.244 . S
Zn419 O421 2.046 . S
Zn419 O423 2.055 . S
Zn419 N425 2.036 . S
Zn419 O443 2.066 . S
Zn419 O447 2.053 . S
C420 O417 1.259 . S
C420 O421 1.254 . S
O421 Zn419 2.046 . S
O421 C420 1.254 . S
C422 O443 1.256 . S
C422 O444 1.244 . S
O423 Zn419 2.055 . S
O423 C445 1.259 . S
O424 Zn416 2.046 . S
O424 C445 1.254 . S
N425 Zn419 2.036 . S
N425 C426 1.298 . S
N425 N428 1.398 . S
C426 N425 1.298 . S
C426 N429 1.367 . S
C426 C439 1.481 . S
C427 N428 1.299 . S
C427 N429 1.379 . S
N428 N425 1.398 . S
N428 C427 1.299 . S
N429 C426 1.367 . S
N429 C427 1.379 . S
C430 N432 1.298 . S
C430 N434 1.367 . S
C430 C438 1.481 . S
C431 N433 1.299 . S
C431 N434 1.379 . S
N432 Zn416 2.036 . S
N432 C430 1.298 . S
N432 N433 1.398 . S
N433 C431 1.299 . S
N433 N432 1.398 . S
N434 C430 1.367 . S
N434 C431 1.379 . S
H435 C438 0.980 . S
H436 C438 0.981 . S
H437 C438 0.981 . S
C438 C430 1.481 . S
C438 H435 0.980 . S
C438 H436 0.981 . S
C438 H437 0.981 . S
C439 C426 1.481 . S
C439 H440 0.980 . S
C439 H441 0.981 . S
C439 H442 0.981 . S
H440 C439 0.980 . S
H441 C439 0.981 . S
H442 C439 0.981 . S
O443 Zn419 2.066 . S
O443 C422 1.256 . S
O444 Zn416 2.053 . S
O444 C422 1.244 . S
C445 O423 1.259 . S
C445 O424 1.254 . S
O446 Zn416 2.066 . S
O446 C418 1.256 . S
O447 C418 1.244 . S
O447 Zn419 2.053 . S
Zn448 O449 2.055 . S
Zn448 O456 2.046 . S
Zn448 N464 2.036 . S
Zn448 O476 2.053 . S
Zn448 O478 2.066 . S
O449 Zn448 2.055 . S
O449 C452 1.259 . S
C450 O478 1.256 . S
C450 O479 1.244 . S
Zn451 O453 2.046 . S
Zn451 O455 2.055 . S
Zn451 N457 2.036 . S
Zn451 O475 2.066 . S
Zn451 O479 2.053 . S
C452 O449 1.259 . S
C452 O453 1.254 . S
O453 Zn451 2.046 . S
O453 C452 1.254 . S
C454 O475 1.256 . S
C454 O476 1.244 . S
O455 Zn451 2.055 . S
O455 C477 1.259 . S
O456 Zn448 2.046 . S
O456 C477 1.254 . S
N457 Zn451 2.036 . S
N457 C458 1.298 . S
N457 N460 1.398 . S
C458 N457 1.298 . S
C458 N461 1.367 . S
C458 C471 1.481 . S
C459 N460 1.299 . S
C459 N461 1.379 . S
N460 N457 1.398 . S
N460 C459 1.299 . S
N461 C458 1.367 . S
N461 C459 1.379 . S
C462 N464 1.298 . S
C462 N466 1.367 . S
C462 C470 1.481 . S
C463 N465 1.299 . S
C463 N466 1.379 . S
N464 Zn448 2.036 . S
N464 C462 1.298 . S
N464 N465 1.398 . S
N465 C463 1.299 . S
N465 N464 1.398 . S
N466 C462 1.367 . S
N466 C463 1.379 . S
H467 C470 0.980 . S
H468 C470 0.981 . S
H469 C470 0.981 . S
C470 C462 1.481 . S
C470 H467 0.980 . S
C470 H468 0.981 . S
C470 H469 0.981 . S
C471 C458 1.481 . S
C471 H472 0.980 . S
C471 H473 0.981 . S
C471 H474 0.981 . S
H472 C471 0.980 . S
H473 C471 0.981 . S
H474 C471 0.981 . S
O475 Zn451 2.066 . S
O475 C454 1.256 . S
O476 Zn448 2.053 . S
O476 C454 1.244 . S
C477 O455 1.259 . S
C477 O456 1.254 . S
O478 Zn448 2.066 . S
O478 C450 1.256 . S
O479 C450 1.244 . S
O479 Zn451 2.053 . S
Zn480 O481 2.055 . S
Zn480 O488 2.046 . S
Zn480 N496 2.036 . S
Zn480 O508 2.053 . S
Zn480 O510 2.066 . S
O481 Zn480 2.055 . S
O481 C484 1.259 . S
C482 O510 1.256 . S
C482 O511 1.244 . S
Zn483 O485 2.046 . S
Zn483 O487 2.055 1_455 S
Zn483 N489 2.036 1_455 S
Zn483 O507 2.066 1_455 S
Zn483 O511 2.053 . S
C484 O481 1.259 . S
C484 O485 1.254 . S
O485 Zn483 2.046 . S
O485 C484 1.254 . S
C486 O507 1.256 . S
C486 O508 1.244 1_655 S
O487 Zn483 2.055 1_655 S
O487 C509 1.259 . S
O488 Zn480 2.046 . S
O488 C509 1.254 1_455 S
N489 Zn483 2.036 1_655 S
N489 C490 1.298 . S
N489 N492 1.398 . S
C490 N489 1.298 . S
C490 N493 1.367 . S
C490 C503 1.481 . S
C491 N492 1.299 . S
C491 N493 1.379 . S
N492 N489 1.398 . S
N492 C491 1.299 . S
N493 C490 1.367 . S
N493 C491 1.379 . S
C494 N496 1.298 . S
C494 N498 1.367 . S
C494 C502 1.481 . S
C495 N497 1.299 . S
C495 N498 1.379 . S
N496 Zn480 2.036 . S
N496 C494 1.298 . S
N496 N497 1.398 . S
N497 C495 1.299 . S
N497 N496 1.398 . S
N498 C494 1.367 . S
N498 C495 1.379 . S
H499 C502 0.980 . S
H500 C502 0.981 . S
H501 C502 0.981 . S
C502 C494 1.481 . S
C502 H499 0.980 . S
C502 H500 0.981 . S
C502 H501 0.981 . S
C503 C490 1.481 . S
C503 H504 0.980 . S
C503 H505 0.981 . S
C503 H506 0.981 . S
H504 C503 0.980 . S
H505 C503 0.981 . S
H506 C503 0.981 . S
O507 Zn483 2.066 1_655 S
O507 C486 1.256 . S
O508 Zn480 2.053 . S
O508 C486 1.244 1_455 S
C509 O487 1.259 . S
C509 O488 1.254 1_655 S
O510 Zn480 2.066 . S
O510 C482 1.256 . S
O511 C482 1.244 . S
O511 Zn483 2.053 . S
Zn512 O513 2.055 . S
Zn512 O520 2.046 . S
Zn512 N528 2.036 . S
Zn512 O540 2.053 . S
Zn512 O542 2.066 . S
O513 Zn512 2.055 . S
O513 C516 1.259 . S
C514 O542 1.256 . S
C514 O543 1.244 . S
Zn515 O517 2.046 . S
Zn515 O519 2.055 1_565 S
Zn515 N521 2.036 1_565 S
Zn515 O539 2.066 1_565 S
Zn515 O543 2.053 . S
C516 O513 1.259 . S
C516 O517 1.254 . S
O517 Zn515 2.046 . S
O517 C516 1.254 . S
C518 O539 1.256 . S
C518 O540 1.244 1_545 S
O519 Zn515 2.055 1_545 S
O519 C541 1.259 . S
O520 Zn512 2.046 . S
O520 C541 1.254 1_565 S
N521 Zn515 2.036 1_545 S
N521 C522 1.298 . S
N521 N524 1.398 . S
C522 N521 1.298 . S
C522 N525 1.367 . S
C522 C535 1.481 . S
C523 N524 1.299 . S
C523 N525 1.379 . S
N524 N521 1.398 . S
N524 C523 1.299 . S
N525 C522 1.367 . S
N525 C523 1.379 . S
C526 N528 1.298 . S
C526 N530 1.367 . S
C526 C534 1.481 . S
C527 N529 1.299 . S
C527 N530 1.379 . S
N528 Zn512 2.036 . S
N528 C526 1.298 . S
N528 N529 1.398 . S
N529 C527 1.299 . S
N529 N528 1.398 . S
N530 C526 1.367 . S
N530 C527 1.379 . S
H531 C534 0.980 . S
H532 C534 0.981 . S
H533 C534 0.981 . S
C534 C526 1.481 . S
C534 H531 0.980 . S
C534 H532 0.981 . S
C534 H533 0.981 . S
C535 C522 1.481 . S
C535 H536 0.980 . S
C535 H537 0.981 . S
C535 H538 0.981 . S
H536 C535 0.980 . S
H537 C535 0.981 . S
H538 C535 0.981 . S
O539 Zn515 2.066 1_545 S
O539 C518 1.256 . S
O540 Zn512 2.053 . S
O540 C518 1.244 1_565 S
C541 O519 1.259 . S
C541 O520 1.254 1_545 S
O542 Zn512 2.066 . S
O542 C514 1.256 . S
O543 C514 1.244 . S
O543 Zn515 2.053 . S
Zn544 O545 2.055 1_545 S
Zn544 O552 2.046 . S
Zn544 N560 2.036 1_545 S
Zn544 O572 2.053 . S
Zn544 O574 2.066 1_545 S
O545 Zn544 2.055 1_565 S
O545 C548 1.259 . S
C546 O574 1.256 . S
C546 O575 1.244 1_565 S
Zn547 O549 2.046 . S
Zn547 O551 2.055 . S
Zn547 N553 2.036 . S
Zn547 O571 2.066 . S
Zn547 O575 2.053 . S
C548 O545 1.259 . S
C548 O549 1.254 1_565 S
O549 Zn547 2.046 . S
O549 C548 1.254 1_545 S
C550 O571 1.256 . S
C550 O572 1.244 . S
O551 Zn547 2.055 . S
O551 C573 1.259 . S
O552 Zn544 2.046 . S
O552 C573 1.254 . S
N553 Zn547 2.036 . S
N553 C554 1.298 . S
N553 N556 1.398 . S
C554 N553 1.298 . S
C554 N557 1.367 . S
C554 C567 1.481 . S
C555 N556 1.299 . S
C555 N557 1.379 . S
N556 N553 1.398 . S
N556 C555 1.299 . S
N557 C554 1.367 . S
N557 C555 1.379 . S
C558 N560 1.298 . S
C558 N562 1.367 . S
C558 C566 1.481 . S
C559 N561 1.299 . S
C559 N562 1.379 . S
N560 Zn544 2.036 1_565 S
N560 C558 1.298 . S
N560 N561 1.398 . S
N561 C559 1.299 . S
N561 N560 1.398 . S
N562 C558 1.367 . S
N562 C559 1.379 . S
H563 C566 0.980 . S
H564 C566 0.981 . S
H565 C566 0.981 . S
C566 C558 1.481 . S
C566 H563 0.980 . S
C566 H564 0.981 . S
C566 H565 0.981 . S
C567 C554 1.481 . S
C567 H568 0.980 . S
C567 H569 0.981 . S
C567 H570 0.981 . S
H568 C567 0.980 . S
H569 C567 0.981 . S
H570 C567 0.981 . S
O571 Zn547 2.066 . S
O571 C550 1.256 . S
O572 Zn544 2.053 . S
O572 C550 1.244 . S
C573 O551 1.259 . S
C573 O552 1.254 . S
O574 Zn544 2.066 1_565 S
O574 C546 1.256 . S
O575 C546 1.244 1_545 S
O575 Zn547 2.053 . S
Zn576 O577 2.055 . S
Zn576 O584 2.046 . S
Zn576 N592 2.036 . S
Zn576 O604 2.053 . S
Zn576 O606 2.066 . S
O577 Zn576 2.055 . S
O577 C580 1.259 . S
C578 O606 1.256 . S
C578 O607 1.244 . S
Zn579 O581 2.046 . S
Zn579 O583 2.055 . S
Zn579 N585 2.036 . S
Zn579 O603 2.066 . S
Zn579 O607 2.053 . S
C580 O577 1.259 . S
C580 O581 1.254 . S
O581 Zn579 2.046 . S
O581 C580 1.254 . S
C582 O603 1.256 . S
C582 O604 1.244 . S
O583 Zn579 2.055 . S
O583 C605 1.259 . S
O584 Zn576 2.046 . S
O584 C605 1.254 . S
N585 Zn579 2.036 . S
N585 C586 1.298 . S
N585 N588 1.398 . S
C586 N585 1.298 . S
C586 N589 1.367 . S
C586 C599 1.481 . S
C587 N588 1.299 . S
C587 N589 1.379 . S
N588 N585 1.398 . S
N588 C587 1.299 . S
N589 C586 1.367 . S
N589 C587 1.379 . S
C590 N592 1.298 . S
C590 N594 1.367 . S
C590 C598 1.481 . S
C591 N593 1.299 . S
C591 N594 1.379 . S
N592 Zn576 2.036 . S
N592 C590 1.298 . S
N592 N593 1.398 . S
N593 C591 1.299 . S
N593 N592 1.398 . S
N594 C590 1.367 . S
N594 C591 1.379 . S
H595 C598 0.980 . S
H596 C598 0.981 . S
H597 C598 0.981 . S
C598 C590 1.481 . S
C598 H595 0.980 . S
C598 H596 0.981 . S
C598 H597 0.981 . S
C599 C586 1.481 . S
C599 H600 0.980 . S
C599 H601 0.981 . S
C599 H602 0.981 . S
H600 C599 0.980 . S
H601 C599 0.981 . S
H602 C599 0.981 . S
O603 Zn579 2.066 . S
O603 C582 1.256 . S
O604 Zn576 2.053 . S
O604 C582 1.244 . S
C605 O583 1.259 . S
C605 O584 1.254 . S
O606 Zn576 2.066 . S
O606 C578 1.256 . S
O607 C578 1.244 . S
O607 Zn579 2.053 . S
Zn608 O609 2.055 . S
Zn608 O616 2.046 . S
Zn608 N624 2.036 . S
Zn608 O636 2.053 . S
Zn608 O638 2.066 . S
O609 Zn608 2.055 . S
O609 C612 1.259 . S
C610 O638 1.256 . S
C610 O639 1.244 . S
Zn611 O613 2.046 . S
Zn611 O615 2.055 . S
Zn611 N617 2.036 . S
Zn611 O635 2.066 . S
Zn611 O639 2.053 . S
C612 O609 1.259 . S
C612 O613 1.254 . S
O613 Zn611 2.046 . S
O613 C612 1.254 . S
C614 O635 1.256 . S
C614 O636 1.244 . S
O615 Zn611 2.055 . S
O615 C637 1.259 . S
O616 Zn608 2.046 . S
O616 C637 1.254 . S
N617 Zn611 2.036 . S
N617 C618 1.298 . S
N617 N620 1.398 . S
C618 N617 1.298 . S
C618 N621 1.367 . S
C618 C631 1.481 . S
C619 N620 1.299 . S
C619 N621 1.379 . S
N620 N617 1.398 . S
N620 C619 1.299 . S
N621 C618 1.367 . S
N621 C619 1.379 . S
C622 N624 1.298 . S
C622 N626 1.367 . S
C622 C630 1.481 . S
C623 N625 1.299 . S
C623 N626 1.379 . S
N624 Zn608 2.036 . S
N624 C622 1.298 . S
N624 N625 1.398 . S
N625 C623 1.299 . S
N625 N624 1.398 . S
N626 C622 1.367 . S
N626 C623 1.379 . S
H627 C630 0.980 . S
H628 C630 0.981 . S
H629 C630 0.981 . S
C630 C622 1.481 . S
C630 H627 0.980 . S
C630 H628 0.981 . S
C630 H629 0.981 . S
C631 C618 1.481 . S
C631 H632 0.980 . S
C631 H633 0.981 . S
C631 H634 0.981 . S
H632 C631 0.980 . S
H633 C631 0.981 . S
H634 C631 0.981 . S
O635 Zn611 2.066 . S
O635 C614 1.256 . S
O636 Zn608 2.053 . S
O636 C614 1.244 . S
C637 O615 1.259 . S
C637 O616 1.254 . S
O638 Zn608 2.066 . S
O638 C610 1.256 . S
O639 C610 1.244 . S
O639 Zn611 2.053 . S
Zn640 O641 2.055 1_556 S
Zn640 O648 2.046 . S
Zn640 N656 2.036 1_556 S
Zn640 O668 2.053 . S
Zn640 O670 2.066 1_556 S
O641 Zn640 2.055 1_554 S
O641 C644 1.259 . S
C642 O670 1.256 . S
C642 O671 1.244 1_554 S
Zn643 O645 2.046 . S
Zn643 O647 2.055 . S
Zn643 N649 2.036 . S
Zn643 O667 2.066 . S
Zn643 O671 2.053 . S
C644 O641 1.259 . S
C644 O645 1.254 1_554 S
O645 Zn643 2.046 . S
O645 C644 1.254 1_556 S
C646 O667 1.256 . S
C646 O668 1.244 . S
O647 Zn643 2.055 . S
O647 C669 1.259 . S
O648 Zn640 2.046 . S
O648 C669 1.254 . S
N649 Zn643 2.036 . S
N649 C650 1.298 . S
N649 N652 1.398 . S
C650 N649 1.298 . S
C650 N653 1.367 . S
C650 C663 1.481 . S
C651 N652 1.299 . S
C651 N653 1.379 . S
N652 N649 1.398 . S
N652 C651 1.299 . S
N653 C650 1.367 . S
N653 C651 1.379 . S
C654 N656 1.298 . S
C654 N658 1.367 . S
C654 C662 1.481 . S
C655 N657 1.299 . S
C655 N658 1.379 . S
N656 Zn640 2.036 1_554 S
N656 C654 1.298 . S
N656 N657 1.398 . S
N657 C655 1.299 . S
N657 N656 1.398 . S
N658 C654 1.367 . S
N658 C655 1.379 . S
H659 C662 0.980 . S
H660 C662 0.981 . S
H661 C662 0.981 . S
C662 C654 1.481 . S
C662 H659 0.980 . S
C662 H660 0.981 . S
C662 H661 0.981 . S
C663 C650 1.481 . S
C663 H664 0.980 . S
C663 H665 0.981 . S
C663 H666 0.981 . S
H664 C663 0.980 . S
H665 C663 0.981 . S
H666 C663 0.981 . S
O667 Zn643 2.066 . S
O667 C646 1.256 . S
O668 Zn640 2.053 . S
O668 C646 1.244 . S
C669 O647 1.259 . S
C669 O648 1.254 . S
O670 Zn640 2.066 1_554 S
O670 C642 1.256 . S
O671 C642 1.244 1_556 S
O671 Zn643 2.053 . S
Zn672 O673 2.055 1_554 S
Zn672 O680 2.046 . S
Zn672 N688 2.036 1_554 S
Zn672 O700 2.053 . S
Zn672 O702 2.066 1_554 S
O673 Zn672 2.055 1_556 S
O673 C676 1.259 . S
C674 O702 1.256 . S
C674 O703 1.244 1_556 S
Zn675 O677 2.046 . S
Zn675 O679 2.055 . S
Zn675 N681 2.036 . S
Zn675 O699 2.066 . S
Zn675 O703 2.053 . S
C676 O673 1.259 . S
C676 O677 1.254 1_556 S
O677 Zn675 2.046 . S
O677 C676 1.254 1_554 S
C678 O699 1.256 . S
C678 O700 1.244 . S
O679 Zn675 2.055 . S
O679 C701 1.259 . S
O680 Zn672 2.046 . S
O680 C701 1.254 . S
N681 Zn675 2.036 . S
N681 C682 1.298 . S
N681 N684 1.398 . S
C682 N681 1.298 . S
C682 N685 1.367 . S
C682 C695 1.481 . S
C683 N684 1.299 . S
C683 N685 1.379 . S
N684 N681 1.398 . S
N684 C683 1.299 . S
N685 C682 1.367 . S
N685 C683 1.379 . S
C686 N688 1.298 . S
C686 N690 1.367 . S
C686 C694 1.481 . S
C687 N689 1.299 . S
C687 N690 1.379 . S
N688 Zn672 2.036 1_556 S
N688 C686 1.298 . S
N688 N689 1.398 . S
N689 C687 1.299 . S
N689 N688 1.398 . S
N690 C686 1.367 . S
N690 C687 1.379 . S
H691 C694 0.980 . S
H692 C694 0.981 . S
H693 C694 0.981 . S
C694 C686 1.481 . S
C694 H691 0.980 . S
C694 H692 0.981 . S
C694 H693 0.981 . S
C695 C682 1.481 . S
C695 H696 0.980 . S
C695 H697 0.981 . S
C695 H698 0.981 . S
H696 C695 0.980 . S
H697 C695 0.981 . S
H698 C695 0.981 . S
O699 Zn675 2.066 . S
O699 C678 1.256 . S
O700 Zn672 2.053 . S
O700 C678 1.244 . S
C701 O679 1.259 . S
C701 O680 1.254 . S
O702 Zn672 2.066 1_556 S
O702 C674 1.256 . S
O703 C674 1.244 1_554 S
O703 Zn675 2.053 . S
Zn704 O705 2.055 . S
Zn704 O712 2.046 . S
Zn704 N720 2.036 . S
Zn704 O732 2.053 . S
Zn704 O734 2.066 . S
O705 Zn704 2.055 . S
O705 C708 1.259 . S
C706 O734 1.256 . S
C706 O735 1.244 . S
Zn707 O709 2.046 . S
Zn707 O711 2.055 . S
Zn707 N713 2.036 . S
Zn707 O731 2.066 . S
Zn707 O735 2.053 . S
C708 O705 1.259 . S
C708 O709 1.254 . S
O709 Zn707 2.046 . S
O709 C708 1.254 . S
C710 O731 1.256 . S
C710 O732 1.244 . S
O711 Zn707 2.055 . S
O711 C733 1.259 . S
O712 Zn704 2.046 . S
O712 C733 1.254 . S
N713 Zn707 2.036 . S
N713 C714 1.298 . S
N713 N716 1.398 . S
C714 N713 1.298 . S
C714 N717 1.367 . S
C714 C727 1.481 . S
C715 N716 1.299 . S
C715 N717 1.379 . S
N716 N713 1.398 . S
N716 C715 1.299 . S
N717 C714 1.367 . S
N717 C715 1.379 . S
C718 N720 1.298 . S
C718 N722 1.367 . S
C718 C726 1.481 . S
C719 N721 1.299 . S
C719 N722 1.379 . S
N720 Zn704 2.036 . S
N720 C718 1.298 . S
N720 N721 1.398 . S
N721 C719 1.299 . S
N721 N720 1.398 . S
N722 C718 1.367 . S
N722 C719 1.379 . S
H723 C726 0.980 . S
H724 C726 0.981 . S
H725 C726 0.981 . S
C726 C718 1.481 . S
C726 H723 0.980 . S
C726 H724 0.981 . S
C726 H725 0.981 . S
C727 C714 1.481 . S
C727 H728 0.980 . S
C727 H729 0.981 . S
C727 H730 0.981 . S
H728 C727 0.980 . S
H729 C727 0.981 . S
H730 C727 0.981 . S
O731 Zn707 2.066 . S
O731 C710 1.256 . S
O732 Zn704 2.053 . S
O732 C710 1.244 . S
C733 O711 1.259 . S
C733 O712 1.254 . S
O734 Zn704 2.066 . S
O734 C706 1.256 . S
O735 C706 1.244 . S
O735 Zn707 2.053 . S
Zn736 O737 2.055 . S
Zn736 O744 2.046 . S
Zn736 N752 2.036 . S
Zn736 O764 2.053 . S
Zn736 O766 2.066 . S
O737 Zn736 2.055 . S
O737 C740 1.259 . S
C738 O766 1.256 . S
C738 O767 1.244 . S
Zn739 O741 2.046 . S
Zn739 O743 2.055 . S
Zn739 N745 2.036 . S
Zn739 O763 2.066 . S
Zn739 O767 2.053 . S
C740 O737 1.259 . S
C740 O741 1.254 . S
O741 Zn739 2.046 . S
O741 C740 1.254 . S
C742 O763 1.256 . S
C742 O764 1.244 . S
O743 Zn739 2.055 . S
O743 C765 1.259 . S
O744 Zn736 2.046 . S
O744 C765 1.254 . S
N745 Zn739 2.036 . S
N745 C746 1.298 . S
N745 N748 1.398 . S
C746 N745 1.298 . S
C746 N749 1.367 . S
C746 C759 1.481 . S
C747 N748 1.299 . S
C747 N749 1.379 . S
N748 N745 1.398 . S
N748 C747 1.299 . S
N749 C746 1.367 . S
N749 C747 1.379 . S
C750 N752 1.298 . S
C750 N754 1.367 . S
C750 C758 1.481 . S
C751 N753 1.299 . S
C751 N754 1.379 . S
N752 Zn736 2.036 . S
N752 C750 1.298 . S
N752 N753 1.398 . S
N753 C751 1.299 . S
N753 N752 1.398 . S
N754 C750 1.367 . S
N754 C751 1.379 . S
H755 C758 0.980 . S
H756 C758 0.981 . S
H757 C758 0.981 . S
C758 C750 1.481 . S
C758 H755 0.980 . S
C758 H756 0.981 . S
C758 H757 0.981 . S
C759 C746 1.481 . S
C759 H760 0.980 . S
C759 H761 0.981 . S
C759 H762 0.981 . S
H760 C759 0.980 . S
H761 C759 0.981 . S
H762 C759 0.981 . S
O763 Zn739 2.066 . S
O763 C742 1.256 . S
O764 Zn736 2.053 . S
O764 C742 1.244 . S
C765 O743 1.259 . S
C765 O744 1.254 . S
O766 Zn736 2.066 . S
O766 C738 1.256 . S
O767 C738 1.244 . S
O767 Zn739 2.053 . S
N13 C580 2.390 . S
C637 N45 2.390 . S
N82 C541 2.390 . S
N114 C548 2.390 . S
C708 N146 2.390 . S
N173 C676 2.390 . S
C765 N205 2.390 . S
N242 C644 2.390 . S
N269 C420 2.390 . S
N301 C509 2.390 . S
C477 N333 2.390 . S
N370 C413 2.390 . S
N402 C196 2.390 . S
N429 C253 2.390 . S
N466 C157 2.390 . S
C164 N498 2.390 . S
N530 C324 2.390 . S
C292 N557 2.390 . S
C381 N589 2.390 . S
C260 N626 2.390 . S
C36 N653 2.390 . S
C125 N685 2.390 . S
C93 N717 2.390 . S
N754 C4 2.390 . S
C130 C29 2.417 . S
C166 C61 2.417 . S
C198 C68 2.417 . S
C226 C100 2.417 . S
C132 C262 2.417 . S
C189 C354 2.417 . S
C221 C294 2.417 . S
C228 C326 2.417 . S
C285 C6 2.417 . S
C317 C66 2.417 . S
C349 C98 2.417 . S
C38 C356 2.417 . S
C514 C388 2.417 . S
C550 C445 2.417 . S
C452 C582 2.417 . S
C484 C610 2.417 . S
C646 C516 2.417 . S
C573 C738 2.417 . S
C678 C605 2.417 . S
C612 C710 2.417 . S
C386 C669 2.417 . S
C701 C450 2.417 . S
C733 C482 2.417 . S
C422 C740 2.417 . S
N18 C290 3.360 . S
C322 N50 3.360 . S
C258 N77 3.360 . S
C358 N109 3.360 . S
N141 C102 3.360 . S
C70 N178 3.360 . S
N210 C34 3.360 . S
C2 N237 3.360 . S
N274 C162 3.360 . S
N306 C230 3.360 . S
N338 C194 3.360 . S
N365 C134 3.360 . S
N397 C674 3.360 . S
N434 C706 3.360 . S
C642 N461 3.360 . S
C742 N493 3.360 . S
N525 C486 3.360 . S
N562 C454 3.360 . S
C418 N594 3.360 . S
N621 C390 3.360 . S
N658 C546 3.360 . S
C614 N690 3.360 . S
N722 C578 3.360 . S
N749 C518 3.360 . S
