# Generated by pormake.
# Topology vby, (6)-cn, num edge types: 1
# Building blocks:
#     Node 0, Type 0, BuildingBlock: PAMTOO_clean_sbu_0, # of connection points: 6
#     Node 1, Type 0, BuildingBlock: PAMTOO_clean_sbu_0, # of connection points: 6
#     Node 2, Type 0, BuildingBlock: PAMTOO_clean_sbu_0, # of connection points: 6
#     Node 3, Type 0, BuildingBlock: PAMTOO_clean_sbu_0, # of connection points: 6
#     Node 4, Type 0, BuildingBlock: PAMTOO_clean_sbu_0, # of connection points: 6
#     Node 5, Type 0, BuildingBlock: PAMTOO_clean_sbu_0, # of connection points: 6
#     Node 6, Type 0, BuildingBlock: PAMTOO_clean_sbu_0, # of connection points: 6
#     Node 7, Type 0, BuildingBlock: PAMTOO_clean_sbu_0, # of connection points: 6
#     Edge 8, Type (0, 0), BuildingBlock: OJICUG_clean_linker_0, # of connection points: 2
#     Edge 9, Type (0, 0), BuildingBlock: OJICUG_clean_linker_0, # of connection points: 2
#     Edge 10, Type (0, 0), BuildingBlock: OJICUG_clean_linker_0, # of connection points: 2
#     Edge 11, Type (0, 0), BuildingBlock: OJICUG_clean_linker_0, # of connection points: 2
#     Edge 12, Type (0, 0), BuildingBlock: OJICUG_clean_linker_0, # of connection points: 2
#     Edge 13, Type (0, 0), BuildingBlock: OJICUG_clean_linker_0, # of connection points: 2
#     Edge 14, Type (0, 0), BuildingBlock: OJICUG_clean_linker_0, # of connection points: 2
#     Edge 15, Type (0, 0), BuildingBlock: OJICUG_clean_linker_0, # of connection points: 2
#     Edge 16, Type (0, 0), BuildingBlock: OJICUG_clean_linker_0, # of connection points: 2
#     Edge 17, Type (0, 0), BuildingBlock: OJICUG_clean_linker_0, # of connection points: 2
#     Edge 18, Type (0, 0), BuildingBlock: OJICUG_clean_linker_0, # of connection points: 2
#     Edge 19, Type (0, 0), BuildingBlock: OJICUG_clean_linker_0, # of connection points: 2
#     Edge 20, Type (0, 0), BuildingBlock: OJICUG_clean_linker_0, # of connection points: 2
#     Edge 21, Type (0, 0), BuildingBlock: OJICUG_clean_linker_0, # of connection points: 2
#     Edge 22, Type (0, 0), BuildingBlock: OJICUG_clean_linker_0, # of connection points: 2
#     Edge 23, Type (0, 0), BuildingBlock: OJICUG_clean_linker_0, # of connection points: 2
#     Edge 24, Type (0, 0), BuildingBlock: OJICUG_clean_linker_0, # of connection points: 2
#     Edge 25, Type (0, 0), BuildingBlock: OJICUG_clean_linker_0, # of connection points: 2
#     Edge 26, Type (0, 0), BuildingBlock: OJICUG_clean_linker_0, # of connection points: 2
#     Edge 27, Type (0, 0), BuildingBlock: OJICUG_clean_linker_0, # of connection points: 2
#     Edge 28, Type (0, 0), BuildingBlock: OJICUG_clean_linker_0, # of connection points: 2
#     Edge 29, Type (0, 0), BuildingBlock: OJICUG_clean_linker_0, # of connection points: 2
#     Edge 30, Type (0, 0), BuildingBlock: OJICUG_clean_linker_0, # of connection points: 2
#     Edge 31, Type (0, 0), BuildingBlock: OJICUG_clean_linker_0, # of connection points: 2
# Relax obj value: 0.143
# Max RMSD: 0.198
# Mean RMSD: 0.188
data_MOF--net-vby--node1-PAMTOO_clean_sbu_0--edge1-OJICUG_clean_linker_0
_symmetry_space_group_name_H-M    P1
_symmetry_Int_Tables_number       1
_symmetry_cell_setting            triclinic
loop_
_symmetry_equiv_pos_as_xyz
'x, y, z'
_cell_length_a     11.277117
_cell_length_b     89.117981
_cell_length_c     22.005237
_cell_angle_alpha  85.571587
_cell_angle_beta   94.197521
_cell_angle_gamma 89.89866
loop_
_atom_site_label
_atom_site_type_symbol
_atom_site_fract_x
_atom_site_fract_y
_atom_site_fract_z
_atom_type_partial_charge
Dy0 Dy 0.09867 0.40752 0.98377 0.0
Dy1 Dy 0.09535 0.36985 0.00182 0.0
C2 C 0.08269 0.39025 0.11348 0.0
O3 O 0.28421 0.39969 0.01158 0.0
O4 O 0.28087 0.37568 0.9802 0.0
O5 O 0.17044 0.42844 0.01207 0.0
O6 O 0.05324 0.42832 0.92897 0.0
O7 O 1.02555 0.37732 0.90704 0.0
O8 O 0.13923 0.39827 0.89659 0.0
O9 O 0.90977 0.3768 0.01418 0.0
O10 O 0.9052 0.40155 0.97326 0.0
O11 O 0.0798 0.34857 0.96207 0.0
O12 O 0.0972 0.34905 0.06063 0.0
C13 C 0.33895 0.38776 -0.00444 0.0
O14 O 0.04121 0.40169 0.077 0.0
O15 O 0.13809 0.37893 0.09263 0.0
C16 C 0.07517 0.45176 0.97551 0.0
C17 C 0.03921 0.48271 -0.01115 0.0
C18 C 0.06364 0.47254 0.04047 0.0
C19 C 0.0816 0.45722 0.0339 0.0
C20 C 0.04562 0.46178 0.92424 0.0
C21 C 1.02753 0.47707 0.93078 0.0
C22 C 0.11688 0.43645 0.96586 0.0
C23 C 0.07595 0.38767 0.87237 0.0
C24 C 0.85168 0.38917 -0.00661 0.0
C25 C 0.15451 0.32626 0.01895 0.0
C26 C 0.24006 0.29646 0.01701 0.0
C27 C 0.26573 0.30758 0.97092 0.0
C28 C 0.22347 0.32232 0.97186 0.0
C29 C 0.13445 0.3154 0.06673 0.0
C30 C 0.17719 0.30066 0.06596 0.0
C31 C 0.08794 0.34066 0.01456 0.0
H32 H 0.07132 0.47648 0.08593 0.0
H33 H 0.10479 0.44979 0.07433 0.0
H34 H 0.04198 0.4579 0.87867 0.0
H35 H 1.01005 0.48458 0.88999 0.0
H36 H 0.31576 0.30476 0.93313 0.0
H37 H 0.24059 0.33044 0.93436 0.0
H38 H 0.08055 0.31811 0.10324 0.0
H39 H 0.15537 0.29237 0.10197 0.0
Dy40 Dy 0.96317 0.66015 -0.01325 0.0
Dy41 Dy 0.9623 0.62241 0.01164 0.0
C42 C 0.97159 0.64399 0.12177 0.0
O43 O 0.14956 0.65288 0.9766 0.0
O44 O 0.15505 0.62862 0.02254 0.0
O45 O 0.04032 0.68197 -0.00065 0.0
O46 O 0.88628 0.67994 0.93534 0.0
O47 O 1.02219 0.62645 0.91793 0.0
O48 O 0.94227 0.65021 0.89651 0.0
O49 O 0.77714 0.63033 0.98239 0.0
O50 O 0.78145 0.65416 0.01464 0.0
O51 O 0.88509 0.60136 -0.01176 0.0
O52 O 1.0113 0.60188 0.06761 0.0
C53 C 0.20831 0.64082 0.00052 0.0
O54 O 1.00436 0.65565 0.08701 0.0
O55 O 0.92727 0.63179 0.09941 0.0
C56 C 0.92513 0.70413 0.97075 0.0
C57 C 0.85906 0.73396 -0.01122 0.0
C58 C 0.84253 0.72218 0.03393 0.0
C59 C 0.87534 0.70734 0.02495 0.0
C60 C 0.94174 0.71581 0.92598 0.0
C61 C 0.90951 0.73054 0.93486 0.0
C62 C 0.96453 0.68895 0.95926 0.0
C63 C 0.99156 0.638 0.87941 0.0
C64 C 0.72252 0.64215 -0.00059 0.0
C65 C 0.98319 0.57821 0.02376 0.0
C66 C 1.01829 0.54725 0.01019 0.0
C67 C 0.99397 0.55745 0.95863 0.0
C68 C 0.97647 0.57278 0.96532 0.0
C69 C 1.01246 0.56816 0.07496 0.0
C70 C 1.03009 0.55287 0.06831 0.0
C71 C 0.94308 0.59357 0.0336 0.0
H72 H 0.80313 0.7244 0.07578 0.0
H73 H 0.86213 0.69843 0.06009 0.0
H74 H 0.98101 0.71355 0.88408 0.0
H75 H 0.9259 0.73931 0.89965 0.0
H76 H 0.9862 0.55353 0.91313 0.0
H77 H 0.95364 0.58025 0.92495 0.0
H78 H 1.01644 0.57204 0.12055 0.0
H79 H 0.04749 0.54534 0.10905 0.0
Dy80 Dy 0.08879 0.65943 0.50487 0.0
Dy81 Dy 0.09517 0.62175 0.50263 0.0
C82 C 0.06372 0.64349 0.38261 0.0
O83 O 0.90193 0.6523 0.51436 0.0
O84 O 0.90086 0.62729 0.49221 0.0
O85 O 0.12046 0.68147 0.46177 0.0
O86 O 0.04211 0.67923 0.54935 0.0
O87 O 0.04425 0.62662 0.5949 0.0
O88 O 0.13821 0.64942 0.59938 0.0
O89 O 0.28075 0.62878 0.52647 0.0
O90 O 0.27559 0.65354 0.48816 0.0
O91 O 0.15514 0.59979 0.54213 0.0
O92 O 0.06433 0.60231 0.45105 0.0
C93 C 0.846 0.63978 0.50305 0.0
O94 O 1.01675 0.65378 0.41283 0.0
O95 O 0.12908 0.63257 0.41094 0.0
C96 C 0.14041 0.70237 0.52393 0.0
C97 C 0.22393 0.73167 0.54295 0.0
C98 C 0.28013 0.72262 0.50372 0.0
C99 C 0.23864 0.70814 0.49417 0.0
C100 C 0.08791 0.71112 0.56524 0.0
C101 C 0.12932 0.72558 0.57479 0.0
C102 C 0.08049 0.68845 0.50625 0.0
C103 C 0.08666 0.63768 0.62591 0.0
C104 C 0.33428 0.6411 0.50716 0.0
C105 C 0.07612 0.5773 0.50037 0.0
C106 C 0.05072 0.54571 0.50382 0.0
C107 C 0.08403 0.55271 0.55751 0.0
C108 C 0.09751 0.56837 0.55572 0.0
C109 C 0.03585 0.57032 0.44767 0.0
C110 C 1.02324 0.55472 0.44937 0.0
C111 C 0.11641 0.59309 0.49386 0.0
H112 H 0.35255 0.72699 0.47804 0.0
H113 H 0.28046 0.70173 0.46161 0.0
H114 H 1.01142 0.70701 0.58839 0.0
H115 H 0.08526 0.73215 0.60604 0.0
H116 H 0.10604 0.54602 0.60007 0.0
H117 H 0.1303 0.57337 0.59696 0.0
H118 H 1.02012 0.57683 0.40416 0.0
H119 H 0.99566 0.54965 0.40748 0.0
Dy120 Dy 0.98261 0.36837 0.49573 0.0
Dy121 Dy 0.97482 0.40596 0.48027 0.0
C122 C 0.98989 0.38683 0.36855 0.0
O123 O 0.17158 0.37516 0.51216 0.0
O124 O 0.16694 0.40024 0.47531 0.0
O125 O 0.96343 0.34764 0.45222 0.0
O126 O 1.01785 0.34711 0.5491 0.0
O127 O 0.04372 0.39929 0.57586 0.0
O128 O 0.94844 0.3766 0.586 0.0
O129 O 0.79409 0.39852 0.50248 0.0
O130 O 0.79113 0.37436 0.47265 0.0
O131 O 0.91232 0.42683 0.51012 0.0
O132 O 1.00536 0.42692 0.42684 0.0
C133 C 0.22499 0.38768 0.4943 0.0
O134 O 0.04412 0.37639 0.40541 0.0
O135 O 0.92456 0.39704 0.39018 0.0
C136 C 0.9246 0.32498 0.51195 0.0
C137 C 0.83393 0.29539 0.52518 0.0
C138 C 0.82906 0.3035 0.4676 0.0
C139 C 0.87383 0.31806 0.46109 0.0
C140 C 0.9265 0.3171 0.56992 0.0
C141 C 0.88123 0.30247 0.5765 0.0
C142 C 0.99062 0.33922 0.50249 0.0
C143 C 1.0031 0.38799 0.61006 0.0
C144 C 0.73636 0.38645 0.48734 0.0
C145 C 0.9953 0.45023 0.47381 0.0
C146 C 0.03747 0.48102 0.48922 0.0
C147 C 0.04224 0.47038 0.54014 0.0
C148 C 1.02107 0.45511 0.53254 0.0
C149 C 0.99477 0.46073 0.42301 0.0
C150 C 1.0154 0.47593 0.43052 0.0
C151 C 0.95204 0.43493 0.46408 0.0
H152 H 0.79557 0.29835 0.42682 0.0
H153 H 0.87317 0.32365 0.41557 0.0
H154 H 0.96656 0.32202 0.60992 0.0
H155 H 0.88529 0.29661 0.62159 0.0
H156 H 0.0605 0.47388 0.58592 0.0
H157 H 1.02132 0.44724 0.5726 0.0
H158 H 0.97311 0.45727 0.37738 0.0
H159 H 1.00883 0.48376 0.39027 0.0
Dy160 Dy 0.5984 0.90746 0.98257 0.0
Dy161 Dy 0.59502 0.86982 0.00017 0.0
C162 C 0.58298 0.89008 0.11215 0.0
O163 O 0.78397 0.89963 0.01015 0.0
O164 O 0.7805 0.87565 0.97845 0.0
O165 O 0.67024 0.92835 0.01114 0.0
O166 O 0.55297 0.92829 0.92803 0.0
O167 O 0.52472 0.87735 0.90556 0.0
O168 O 0.63846 0.89829 0.89513 0.0
O169 O 0.40951 0.87675 0.01281 0.0
O170 O 0.4049 0.90152 0.97208 0.0
O171 O 0.57948 0.84858 0.96015 0.0
O172 O 0.59663 0.84899 0.05875 0.0
C173 C 0.83864 0.88771 -0.00604 0.0
O174 O 0.54126 0.90154 0.07584 0.0
O175 O 0.6385 0.87881 0.09105 0.0
C176 C 0.57498 0.95169 0.97487 0.0
C177 C 0.53914 0.98262 -0.01143 0.0
C178 C 0.56365 0.97242 0.04008 0.0
C179 C 0.58156 0.95711 0.03334 0.0
C180 C 0.54532 0.96174 0.92372 0.0
C181 C 0.52729 0.97702 0.93043 0.0
C182 C 0.61667 0.93639 0.96503 0.0
C183 C 0.57506 0.8877 0.87089 0.0
C184 C 0.35139 0.88912 -0.00788 0.0
C185 C 0.65459 0.82627 0.01684 0.0
C186 C 0.74025 0.79649 0.01485 0.0
C187 C 0.76417 0.80754 0.96822 0.0
C188 C 0.72188 0.82228 0.96918 0.0
C189 C 0.63644 0.81547 0.06515 0.0
C190 C 0.67927 0.80074 0.06436 0.0
C191 C 0.58764 0.84064 0.01257 0.0
H192 H 0.57146 0.97633 0.0856 0.0
H193 H 0.60484 0.94965 0.07368 0.0
H194 H 0.54158 0.95789 0.87809 0.0
H195 H 0.50974 0.98455 0.88972 0.0
H196 H 0.81272 0.80468 0.92997 0.0
H197 H 0.73754 0.83035 0.93127 0.0
H198 H 0.58385 0.81823 0.10211 0.0
H199 H 0.6589 0.79249 0.10081 0.0
Dy200 Dy 0.46433 0.16003 -0.01126 0.0
Dy201 Dy 0.4631 0.12226 0.01278 0.0
C202 C 0.47325 0.14361 0.12335 0.0
O203 O 0.65071 0.15279 0.97851 0.0
O204 O 0.65596 0.12846 0.0237 0.0
O205 O 0.54095 0.18184 0.00233 0.0
O206 O 0.38776 0.1799 0.93769 0.0
O207 O 0.52316 0.12637 0.91921 0.0
O208 O 0.44532 0.15026 0.89804 0.0
O209 O 0.27816 0.13022 0.98333 0.0
O210 O 0.28247 0.15399 0.01629 0.0
O211 O 0.38582 0.10124 -0.01092 0.0
O212 O 0.51191 0.1017 0.06854 0.0
C213 C 0.70932 0.14068 0.00202 0.0
O214 O 0.50649 0.15531 0.08889 0.0
O215 O 0.42757 0.13154 0.1006 0.0
C216 C 0.42643 0.20407 0.97349 0.0
C217 C 0.36017 0.23392 -0.00876 0.0
C218 C 0.34085 0.22209 0.03578 0.0
C219 C 0.37374 0.20725 0.02694 0.0
C220 C 0.4459 0.2158 0.92936 0.0
C221 C 0.41356 0.23053 0.9381 0.0
C222 C 0.46571 0.18887 0.96208 0.0
C223 C 0.49362 0.13798 0.88084 0.0
C224 C 0.22352 0.14201 0.00065 0.0
C225 C 0.48379 0.07807 0.0244 0.0
C226 C 0.51876 0.04713 0.01053 0.0
C227 C 0.49442 0.05735 0.95905 0.0
C228 C 0.47699 0.07268 0.96589 0.0
C229 C 0.51309 0.068 0.0755 0.0
C230 C 0.53066 0.05271 0.06871 0.0
C231 C 0.44371 0.09342 0.03439 0.0
H232 H 0.29916 0.22428 0.07703 0.0
H233 H 0.35829 0.1983 0.06159 0.0
H234 H 0.48739 0.21356 0.88803 0.0
H235 H 0.43213 0.23933 0.9034 0.0
H236 H 0.48657 0.05346 0.91351 0.0
H237 H 0.45413 0.08017 0.92559 0.0
H238 H 0.51713 0.07184 0.12114 0.0
H239 H 0.54809 0.04516 0.10938 0.0
Dy240 Dy 0.59223 0.15867 0.50544 0.0
Dy241 Dy 0.59884 0.12102 0.50488 0.0
C242 C 0.56626 0.14236 0.38429 0.0
O243 O 0.4064 0.15156 0.51838 0.0
O244 O 0.40465 0.12671 0.49406 0.0
O245 O 0.61012 0.18033 0.45622 0.0
O246 O 0.55905 0.17896 0.54984 0.0
O247 O 0.54855 0.12613 0.59703 0.0
O248 O 0.64056 0.14909 0.60065 0.0
O249 O 0.78456 0.12809 0.52808 0.0
O250 O 0.77924 0.1528 0.48903 0.0
O251 O 0.658 0.09912 0.5455 0.0
O252 O 0.56788 0.10142 0.45439 0.0
C253 C 0.35005 0.13912 0.50621 0.0
O254 O 0.51752 0.15246 0.41473 0.0
O255 O 0.63239 0.13152 0.41259 0.0
C256 C 0.64277 0.20226 0.51069 0.0
C257 C 0.71481 0.23227 0.52307 0.0
C258 C 0.69426 0.22687 0.46497 0.0
C259 C 0.6586 0.21206 0.45889 0.0
C260 C 0.66836 0.20742 0.56904 0.0
C261 C 0.70501 0.22229 0.57515 0.0
C262 C 0.58269 0.18776 0.50209 0.0
C263 C 0.59005 0.13733 0.62759 0.0
C264 C 0.83802 0.1404 0.50854 0.0
C265 C 0.57258 0.07672 0.5062 0.0
C266 C 0.53005 0.04535 0.51228 0.0
C267 C 0.57918 0.05221 0.56379 0.0
C268 C 0.60068 0.06772 0.56071 0.0
C269 C 0.51863 0.06998 0.45568 0.0
C270 C 0.49753 0.05452 0.45867 0.0
C271 C 0.61837 0.09225 0.49784 0.0
H272 H 0.70294 0.23424 0.42404 0.0
H273 H 0.63835 0.20846 0.41337 0.0
H274 H 0.65573 0.20018 0.60987 0.0
H275 H 0.72022 0.22619 0.62047 0.0
H276 H 0.60387 0.04553 0.60606 0.0
H277 H 0.64391 0.07252 0.60023 0.0
H278 H 0.49826 0.07651 0.41258 0.0
H279 H 0.4614 0.04966 0.41772 0.0
Dy280 Dy 0.48262 0.86801 0.49507 0.0
Dy281 Dy 0.47473 0.9057 0.4786 0.0
C282 C 0.48916 0.8863 0.36713 0.0
O283 O 0.67177 0.87493 0.50841 0.0
O284 O 0.66697 0.90015 0.47372 0.0
O285 O 0.44914 0.84682 0.45644 0.0
O286 O 0.5342 0.84724 0.54832 0.0
O287 O 0.54381 0.89909 0.57422 0.0
O288 O 0.44694 0.87652 0.58467 0.0
O289 O 0.29411 0.89823 0.50083 0.0
O290 O 0.2911 0.87396 0.47229 0.0
O291 O 0.40767 0.92643 0.50728 0.0
O292 O 0.50773 0.92679 0.42618 0.0
C293 C 0.72494 0.88752 0.4914 0.0
O294 O 0.54175 0.87567 0.40379 0.0
O295 O 0.42494 0.89663 0.38876 0.0
C296 C 0.43641 0.82447 0.52319 0.0
C297 C 0.3562 0.79457 0.54275 0.0
C298 C 0.2909 0.80505 0.50222 0.0
C299 C 0.3307 0.81985 0.49242 0.0
C300 C 0.49823 0.81425 0.5659 0.0
C301 C 0.45851 0.79947 0.57572 0.0
C302 C 0.49338 0.8389 0.50532 0.0
C303 C 0.5024 0.88787 0.60859 0.0
C304 C 0.2364 0.88614 0.48613 0.0
C305 C 0.48667 0.95012 0.47245 0.0
C306 C 0.51185 0.98094 0.49138 0.0
C307 C 0.53295 0.96994 0.54043 0.0
C308 C 0.51966 0.95462 0.53112 0.0
C309 C 0.47201 0.96105 0.42314 0.0
C310 C 0.48426 0.97629 0.43245 0.0
C311 C 0.44943 0.93462 0.4621 0.0
H312 H 0.21221 0.80164 0.47571 0.0
H313 H 0.28144 0.82745 0.45888 0.0
H314 H 0.58041 0.8175 0.58989 0.0
H315 H 0.50977 0.79177 0.60801 0.0
H316 H 0.55433 0.97321 0.58632 0.0
H317 H 0.53064 0.94638 0.56999 0.0
H318 H 0.44577 0.95783 0.3776 0.0
H319 H 0.4695 0.98449 0.39363 0.0
C320 C 0.53062 0.40192 -0.00688 0.0
C321 C 0.47009 0.38811 -0.00522 0.0
H322 H 0.69849 0.41314 -0.00946 0.0
C323 C 0.536 0.37472 -0.00477 0.0
H324 H 0.48228 0.41246 -0.0077 0.0
C325 C 0.65983 0.37513 -0.00509 0.0
C326 C 0.7204 0.38893 -0.0069 0.0
H327 H 0.49212 0.36391 -0.00349 0.0
H328 H 0.70804 0.36458 -0.0044 0.0
C329 C 0.65443 0.40234 -0.00824 0.0
C330 C 0.4064 0.62764 0.00445 0.0
C331 C 0.34003 0.64107 0.0014 0.0
H332 H 0.57889 0.61748 0.00537 0.0
C333 C 0.40072 0.65487 -0.00155 0.0
H334 H 0.36242 0.61684 0.0066 0.0
C335 C 0.52487 0.65524 -0.00134 0.0
C336 C 0.59109 0.64183 0.00059 0.0
H337 H 0.3523 0.66543 -0.00358 0.0
H338 H 0.56875 0.66605 -0.00363 0.0
C339 C 0.53043 0.62803 0.00345 0.0
C340 C 0.65069 0.62655 0.50924 0.0
C341 C 0.71494 0.63998 0.50311 0.0
H342 H 0.48009 0.61637 0.51604 0.0
C343 C 0.65292 0.65379 0.49813 0.0
H344 H 0.69589 0.61574 0.51339 0.0
C345 C 0.52937 0.65418 0.49922 0.0
C346 C 0.46518 0.64076 0.5061 0.0
H347 H 0.69972 0.66437 0.49302 0.0
H348 H 0.4844 0.665 0.49519 0.0
C349 C 0.52711 0.62693 0.51113 0.0
C350 C 0.54066 0.37321 0.49126 0.0
C351 C 0.6054 0.38665 0.48834 0.0
H352 H 0.36979 0.36299 0.49637 0.0
C353 C 0.54408 0.40043 0.48775 0.0
H354 H 0.58537 0.36242 0.49205 0.0
C355 C 0.42065 0.40079 0.48978 0.0
C356 C 0.35595 0.38736 0.49334 0.0
H357 H 0.59134 0.41101 0.48529 0.0
H358 H 0.37612 0.41159 0.48895 0.0
C359 C 0.41725 0.37356 0.4942 0.0
C360 C 1.03032 0.90187 -0.00829 0.0
C361 C 0.96978 0.88806 -0.00678 0.0
H362 H 0.19819 0.91309 -0.01064 0.0
C363 C 0.03569 0.87467 -0.00636 0.0
H364 H 0.98196 0.91241 -0.00907 0.0
C365 C 0.15955 0.87508 -0.00656 0.0
C366 C 0.22012 0.88889 -0.00822 0.0
H367 H 0.99181 0.86386 -0.00519 0.0
H368 H 0.20778 0.86454 -0.0059 0.0
C369 C 0.15413 0.90229 -0.00953 0.0
C370 C 1.03134 0.12788 0.00428 0.0
C371 C 0.09209 0.14169 0.00184 0.0
H372 H 0.86327 0.1167 0.0072 0.0
C373 C 1.02595 0.15509 0.00041 0.0
H374 H 0.07974 0.11734 0.00582 0.0
C375 C 0.90182 0.15472 0.0003 0.0
C376 C 0.84105 0.14092 0.00284 0.0
H377 H 0.06989 0.1659 -0.00154 0.0
H378 H 0.85348 0.16527 -0.00133 0.0
C379 C 0.90732 0.1275 0.00538 0.0
C380 C 0.15465 0.12589 0.51146 0.0
C381 C 0.219 0.13933 0.50627 0.0
H382 H 0.98386 0.11569 0.51694 0.0
C383 C 0.15701 0.15314 0.50168 0.0
H384 H 0.19983 0.11508 0.51524 0.0
C385 C 1.03331 0.15351 0.50212 0.0
C386 C 0.96901 0.14008 0.508 0.0
H387 H 0.20392 0.16372 0.49726 0.0
H388 H 0.9883 0.16433 0.49838 0.0
C389 C 1.03096 0.12626 0.51275 0.0
C390 C 0.92085 0.9006 0.4875 0.0
C391 C 0.85584 0.88719 0.49044 0.0
H392 H 0.09191 0.91075 0.48405 0.0
C393 C 0.91689 0.87337 0.49119 0.0
H394 H 0.87653 0.91141 0.4868 0.0
C395 C 0.04036 0.87298 0.48888 0.0
C396 C 0.10543 0.88639 0.48664 0.0
H397 H 0.86923 0.86282 0.49291 0.0
H398 H 0.08483 0.86217 0.4896 0.0
C399 C 0.04437 0.9002 0.48603 0.0
C400 C 0.10962 0.5217 0.0401 0.0
C401 C 1.02522 0.53075 0.00393 0.0
H402 H 0.18086 0.49956 0.06336 0.0
C403 C 0.94445 0.52384 0.96323 0.0
H404 H 0.17403 0.52667 0.07139 0.0
C405 C 0.94799 0.50827 0.95881 0.0
C406 C 1.03234 0.49922 -0.00499 0.0
H407 H 0.87676 0.53042 0.93555 0.0
H408 H 0.8836 0.5033 0.92751 0.0
C409 C 0.11315 0.50613 0.03568 0.0
C410 C 0.10702 0.50678 0.45368 0.0
C411 C 0.04932 0.49746 0.49664 0.0
H412 H 0.1526 0.52921 0.42252 0.0
C413 C 0.99688 0.50413 0.54423 0.0
H414 H 0.15079 0.50205 0.41727 0.0
C415 C 0.99904 0.51977 0.54754 0.0
C416 C 0.05256 0.52906 0.50299 0.0
H417 H 0.95054 0.49733 0.57775 0.0
H418 H 0.95564 0.52464 0.58377 0.0
C419 C 0.10809 0.52236 0.45666 0.0
C420 C 0.44796 1.0082 0.95886 0.0
C421 C 0.53238 0.99912 -0.0051 0.0
H422 H 0.37682 0.03036 0.93586 0.0
C423 C 0.61341 1.00601 0.03556 0.0
H424 H 0.38341 1.00325 0.92757 0.0
C425 C 0.61001 0.02157 0.04012 0.0
C426 C 0.52555 0.03064 0.00411 0.0
H427 H 0.68117 0.99941 0.06312 0.0
H428 H 0.67457 0.02651 0.07141 0.0
C429 C 0.44456 0.02376 0.96342 0.0
C430 C 0.42371 0.02216 0.47994 0.0
C431 C 0.51991 0.02866 0.51247 0.0
H432 H 0.34583 1.00206 0.44817 0.0
C433 C 0.61035 0.01913 0.54144 0.0
H434 H 0.35122 0.02908 0.45817 0.0
C435 C 0.60653 1.00357 0.53615 0.0
C436 C 0.51288 0.99724 0.50129 0.0
H437 H 0.68657 0.02373 0.56626 0.0
H438 H 0.67898 0.99656 0.55741 0.0
C439 C 0.42055 1.00667 0.47421 0.0
C440 C 0.25077 0.27417 0.95488 0.0
C441 C 0.27076 0.28039 0.01144 0.0
H442 H 0.2594 0.25467 0.90469 0.0
C443 C 0.31642 0.27105 0.06228 0.0
H444 H 0.21274 0.28093 0.91516 0.0
C445 C 0.34379 0.2559 0.05624 0.0
C446 C 0.32553 0.24976 -0.00072 0.0
H447 H 0.33295 0.27552 0.10648 0.0
H448 H 0.38178 0.24911 0.09584 0.0
C449 C 0.27735 0.25907 0.94893 0.0
C450 C 0.74742 0.77411 0.95307 0.0
C451 C 0.77049 0.78042 0.00926 0.0
H452 H 0.75336 0.75455 0.90315 0.0
C453 C 0.81883 0.77117 0.05973 0.0
H454 H 0.70729 0.78082 0.91371 0.0
C455 C 0.84594 0.75601 0.05363 0.0
C456 C 0.82465 0.74979 -0.003 0.0
H457 H 0.83768 0.77571 0.10363 0.0
H458 H 0.8861 0.74928 0.09288 0.0
C459 C 0.77368 0.75902 0.94708 0.0
C460 C 0.37865 0.75193 0.54889 0.0
C461 C 0.2586 0.74768 0.54743 0.0
H462 H 0.50338 0.76998 0.54828 0.0
C463 C 0.17102 0.75896 0.54729 0.0
H464 H 0.44835 0.74353 0.5495 0.0
C465 C 0.20257 0.77413 0.5472 0.0
C466 C 0.32248 0.7784 0.54736 0.0
H467 H 0.07757 0.75612 0.54541 0.0
H468 H 0.13287 0.78253 0.54649 0.0
C469 C 0.41021 0.76709 0.54891 0.0
C470 C 0.86268 0.26845 0.56821 0.0
C471 C 0.79617 0.27936 0.53023 0.0
H472 H 0.88928 0.24496 0.5957 0.0
C473 C 0.69806 0.27464 0.49352 0.0
H474 H 0.93951 0.27165 0.59664 0.0
C475 C 0.67074 0.2594 0.4924 0.0
C476 C 0.74001 0.24847 0.52839 0.0
H477 H 0.64315 0.28273 0.4648 0.0
H478 H 0.59567 0.25613 0.46285 0.0
C479 C 0.83446 0.25315 0.5675 0.0
C480 C 0.99255 0.40085 0.20183 0.0
C481 C 0.06149 0.38968 0.17903 0.0
H482 H 0.91465 0.40866 0.27957 0.0
C483 C 0.10513 0.37754 0.2189 0.0
H484 H 0.95697 0.41032 0.17219 0.0
C485 C 0.08038 0.37657 0.2802 0.0
C486 C 1.01128 0.3877 0.30303 0.0
H487 H 0.15802 0.36871 0.20282 0.0
H488 H 0.11576 0.36706 0.30967 0.0
C489 C 0.96756 0.39986 0.26326 0.0
C490 C 0.99261 0.65762 0.21735 0.0
C491 C 0.99103 0.64408 0.18861 0.0
H492 H 1.01519 0.66802 0.30215 0.0
C493 C 1.01359 0.63045 0.22407 0.0
H494 H 0.97568 0.66827 0.19092 0.0
C495 C 0.03905 0.63035 0.287 0.0
C496 C 0.03974 0.64383 0.31591 0.0
H497 H 1.01418 0.61986 0.203 0.0
H498 H 0.05673 0.61967 0.31314 0.0
C499 C 1.01513 0.65747 0.28076 0.0
C500 C 0.03601 0.65122 0.78007 0.0
C501 C 1.01716 0.63767 0.81485 0.0
H502 H 0.07544 0.66179 0.69347 0.0
C503 C 1.02566 0.62398 0.78773 0.0
H504 H 1.03142 0.66193 0.80003 0.0
C505 C 0.04949 0.62392 0.72625 0.0
C506 C 0.06821 0.63751 0.69155 0.0
H507 H 1.01183 0.61338 0.81367 0.0
H508 H 0.05338 0.61325 0.70591 0.0
C509 C 0.06246 0.65113 0.71923 0.0
C510 C 0.08505 0.39954 0.70411 0.0
C511 C 1.02092 0.38796 0.67717 0.0
H512 H 0.15327 0.4085 0.78685 0.0
C513 C 0.97568 0.37623 0.71497 0.0
H514 H 0.12135 0.40873 0.6763 0.0
C515 C 0.99404 0.37609 0.7784 0.0
C516 C 0.05827 0.38767 0.8053 0.0
H517 H 0.926 0.36712 0.69567 0.0
H518 H 0.95782 0.36691 0.80627 0.0
C519 C 0.10368 0.39938 0.76753 0.0
C520 C 0.49287 0.90055 0.20074 0.0
C521 C 0.56158 0.8894 0.17769 0.0
H522 H 0.41487 0.90826 0.2786 0.0
C523 C 0.60466 0.87718 0.21727 0.0
H524 H 0.45772 0.91008 0.17133 0.0
C525 C 0.57958 0.8761 0.27854 0.0
C526 C 0.5107 0.88722 0.30161 0.0
H527 H 0.65736 0.86835 0.20098 0.0
H528 H 0.61458 0.86654 0.3078 0.0
C529 C 0.46757 0.89946 0.26211 0.0
C530 C 0.49493 0.15693 0.21964 0.0
C531 C 0.49363 0.1435 0.1902 0.0
H532 H 0.51729 0.16705 0.30504 0.0
C533 C 0.51703 0.12978 0.22494 0.0
H534 H 0.47742 0.16764 0.19377 0.0
C535 C 0.54278 0.12948 0.28792 0.0
C536 C 0.5428 0.14286 0.31754 0.0
H537 H 0.51789 0.11927 0.20326 0.0
H538 H 0.56098 0.11875 0.31355 0.0
C539 C 0.51766 0.15658 0.28308 0.0
C540 C 0.53811 0.15112 0.78124 0.0
C541 C 0.51925 0.1376 0.81629 0.0
H542 H 0.57798 0.16157 0.6945 0.0
C543 C 0.5281 0.12388 0.7895 0.0
H544 H 0.53323 0.16186 0.80094 0.0
C545 C 0.55244 0.12373 0.72814 0.0
C546 C 0.57121 0.13727 0.69316 0.0
H547 H 0.51428 0.1133 0.81562 0.0
H548 H 0.55665 0.11303 0.70811 0.0
C549 C 0.56498 0.15095 0.72048 0.0
C550 C 0.5845 0.89948 0.70253 0.0
C551 C 0.52003 0.88791 0.67569 0.0
H552 H 0.65296 0.90846 0.7852 0.0
C553 C 0.47435 0.87623 0.71359 0.0
H554 H 0.62113 0.90863 0.67463 0.0
C555 C 0.49268 0.87613 0.77701 0.0
C556 C 0.55729 0.88769 0.80382 0.0
H557 H 0.42441 0.86713 0.69438 0.0
H558 H 0.45615 0.86698 0.80494 0.0
C559 C 0.60307 0.89936 0.76595 0.0
loop_
_geom_bond_atom_site_label_1
_geom_bond_atom_site_label_2
_geom_bond_distance
_geom_bond_site_symmetry_2
_ccdc_geom_bond_type
Dy0 O3 2.305 . S
Dy0 O5 2.405 1_455 S
Dy0 O6 2.374 1_554 S
Dy0 O8 2.322 1_554 S
Dy0 O10 2.298 1_454 S
Dy0 O14 2.288 . S
Dy0 C22 2.741 1_455 S
Dy1 O4 2.298 . S
Dy1 O7 2.275 1_554 S
Dy1 O9 2.307 1_455 S
Dy1 O11 2.395 1_554 S
Dy1 O12 2.379 . S
Dy1 O15 2.339 . S
Dy1 C31 2.738 . S
C2 O14 1.254 . S
C2 O15 1.257 . S
O3 Dy0 2.305 . S
O3 C13 1.266 . S
O4 Dy1 2.298 . S
O4 C13 1.236 . S
O5 Dy0 2.405 1_655 S
O5 C22 1.255 . S
O6 Dy0 2.374 1_556 S
O6 C22 1.249 1_456 S
O7 Dy1 2.275 1_556 S
O7 C23 1.254 . S
O8 Dy0 2.322 1_556 S
O8 C23 1.257 . S
O9 Dy1 2.307 1_655 S
O9 C24 1.266 . S
O10 Dy0 2.298 1_656 S
O10 C24 1.236 1_556 S
O11 Dy1 2.395 1_556 S
O11 C31 1.255 1_556 S
O12 Dy1 2.379 . S
O12 C31 1.249 . S
C13 O3 1.266 . S
C13 O4 1.236 . S
O14 Dy0 2.288 . S
O14 C2 1.254 . S
O15 Dy1 2.339 . S
O15 C2 1.257 . S
C16 C19 1.344 . S
C16 C20 1.328 1_554 S
C16 C22 1.516 . S
C17 C18 1.304 . S
C17 C21 1.323 1_554 S
C18 C17 1.304 . S
C18 C19 1.371 . S
C18 H32 0.930 . S
C19 C16 1.344 . S
C19 C18 1.371 . S
C19 H33 0.931 . S
C20 C16 1.328 1_556 S
C20 C21 1.433 . S
C20 H34 0.931 . S
C21 C17 1.323 1_556 S
C21 C20 1.433 . S
C21 H35 0.933 . S
C22 Dy0 2.741 1_655 S
C22 O5 1.255 . S
C22 O6 1.249 1_654 S
C22 C16 1.516 . S
C23 O7 1.254 . S
C23 O8 1.257 . S
C24 O9 1.266 . S
C24 O10 1.236 1_554 S
C25 C28 1.344 1_554 S
C25 C29 1.328 . S
C25 C31 1.516 . S
C26 C27 1.304 1_554 S
C26 C30 1.323 . S
C27 C26 1.304 1_556 S
C27 C28 1.371 . S
C27 H36 0.930 . S
C28 C25 1.344 1_556 S
C28 C27 1.371 . S
C28 H37 0.931 . S
C29 C25 1.328 . S
C29 C30 1.433 . S
C29 H38 0.931 . S
C30 C26 1.323 . S
C30 C29 1.433 . S
C30 H39 0.933 . S
C31 Dy1 2.738 . S
C31 O11 1.255 1_554 S
C31 O12 1.249 . S
C31 C25 1.516 . S
H32 C18 0.930 . S
H33 C19 0.931 . S
H34 C20 0.931 . S
H35 C21 0.933 . S
H36 C27 0.930 . S
H37 C28 0.931 . S
H38 C29 0.931 . S
H39 C30 0.933 . S
Dy40 O43 2.306 1_655 S
Dy40 O45 2.395 1_556 S
Dy40 O46 2.379 . S
Dy40 O48 2.339 . S
Dy40 O50 2.298 . S
Dy40 O54 2.275 1_556 S
Dy40 C62 2.738 1_556 S
Dy41 O44 2.298 1_655 S
Dy41 O47 2.275 1_554 S
Dy41 O49 2.307 . S
Dy41 O51 2.395 1_654 S
Dy41 O52 2.379 . S
Dy41 O55 2.339 . S
Dy41 C71 2.738 1_655 S
C42 O54 1.254 . S
C42 O55 1.257 . S
O43 Dy40 2.306 1_455 S
O43 C53 1.264 1_556 S
O44 Dy41 2.298 1_455 S
O44 C53 1.236 . S
O45 Dy40 2.395 1_554 S
O45 C62 1.255 . S
O46 Dy40 2.379 . S
O46 C62 1.249 1_556 S
O47 Dy41 2.275 1_556 S
O47 C63 1.254 . S
O48 Dy40 2.339 . S
O48 C63 1.257 . S
O49 Dy41 2.307 . S
O49 C64 1.266 . S
O50 Dy40 2.298 . S
O50 C64 1.236 1_556 S
O51 Dy41 2.395 1_456 S
O51 C71 1.255 1_556 S
O52 Dy41 2.379 . S
O52 C71 1.249 1_655 S
C53 O43 1.264 1_554 S
C53 O44 1.236 . S
O54 Dy40 2.275 1_554 S
O54 C42 1.254 . S
O55 Dy41 2.339 . S
O55 C42 1.257 . S
C56 C59 1.344 . S
C56 C60 1.328 1_554 S
C56 C62 1.516 . S
C57 C58 1.304 . S
C57 C61 1.323 1_554 S
C58 C57 1.304 . S
C58 C59 1.371 . S
C58 H72 0.930 . S
C59 C56 1.344 . S
C59 C58 1.371 . S
C59 H73 0.931 . S
C60 C56 1.328 1_556 S
C60 C61 1.433 . S
C60 H74 0.931 . S
C61 C57 1.323 1_556 S
C61 C60 1.433 . S
C61 H75 0.933 . S
C62 Dy40 2.738 1_554 S
C62 O45 1.255 . S
C62 O46 1.249 1_554 S
C62 C56 1.516 . S
C63 O47 1.254 . S
C63 O48 1.257 . S
C64 O49 1.266 . S
C64 O50 1.236 1_554 S
C65 C68 1.344 1_554 S
C65 C69 1.328 . S
C65 C71 1.516 . S
C66 C67 1.304 . S
C66 C70 1.323 1_556 S
C67 C66 1.304 . S
C67 C68 1.371 . S
C67 H76 0.930 . S
C68 C65 1.344 1_556 S
C68 C67 1.371 . S
C68 H77 0.931 . S
C69 C65 1.328 . S
C69 C70 1.433 . S
C69 H78 0.931 . S
C70 C66 1.323 1_554 S
C70 C69 1.433 . S
C70 H79 0.933 . S
C71 Dy41 2.738 1_455 S
C71 O51 1.255 1_554 S
C71 O52 1.249 1_455 S
C71 C65 1.516 . S
H72 C58 0.930 . S
H73 C59 0.931 . S
H74 C60 0.931 . S
H75 C61 0.933 . S
H76 C67 0.930 . S
H77 C68 0.931 . S
H78 C69 0.931 . S
H79 C70 0.933 . S
Dy80 O83 2.307 1_455 S
Dy80 O85 2.395 . S
Dy80 O86 2.379 . S
Dy80 O88 2.339 . S
Dy80 O90 2.298 . S
Dy80 O94 2.275 . S
Dy80 C102 2.738 . S
Dy81 O84 2.298 1_455 S
Dy81 O87 2.275 . S
Dy81 O89 2.307 . S
Dy81 O91 2.395 . S
Dy81 O92 2.379 . S
Dy81 O95 2.339 . S
Dy81 C111 2.738 1_455 S
C82 O94 1.254 . S
C82 O95 1.257 . S
O83 Dy80 2.307 1_655 S
O83 C93 1.266 . S
O84 Dy81 2.298 1_655 S
O84 C93 1.236 . S
O85 Dy80 2.395 . S
O85 C102 1.255 . S
O86 Dy80 2.379 . S
O86 C102 1.249 . S
O87 Dy81 2.275 . S
O87 C103 1.254 . S
O88 Dy80 2.339 . S
O88 C103 1.257 . S
O89 Dy81 2.307 . S
O89 C104 1.266 . S
O90 Dy80 2.298 . S
O90 C104 1.236 . S
O91 Dy81 2.395 . S
O91 C111 1.255 1_455 S
O92 Dy81 2.379 . S
O92 C111 1.249 1_455 S
C93 O83 1.266 . S
C93 O84 1.236 . S
O94 Dy80 2.275 . S
O94 C82 1.254 . S
O95 Dy81 2.339 . S
O95 C82 1.257 . S
C96 C99 1.344 . S
C96 C100 1.328 . S
C96 C102 1.516 . S
C97 C98 1.304 . S
C97 C101 1.323 . S
C98 C97 1.304 . S
C98 C99 1.371 . S
C98 H112 0.930 . S
C99 C96 1.344 . S
C99 C98 1.371 . S
C99 H113 0.931 . S
C100 C96 1.328 . S
C100 C101 1.433 . S
C100 H114 0.931 . S
C101 C97 1.323 . S
C101 C100 1.433 . S
C101 H115 0.933 . S
C102 Dy80 2.738 . S
C102 O85 1.255 . S
C102 O86 1.249 . S
C102 C96 1.516 . S
C103 O87 1.254 . S
C103 O88 1.257 . S
C104 O89 1.266 . S
C104 O90 1.236 . S
C105 C108 1.344 . S
C105 C109 1.328 . S
C105 C111 1.516 . S
C106 C107 1.304 . S
C106 C110 1.323 . S
C107 C106 1.304 . S
C107 C108 1.371 . S
C107 H116 0.930 . S
C108 C105 1.344 . S
C108 C107 1.371 . S
C108 H117 0.931 . S
C109 C105 1.328 . S
C109 C110 1.433 . S
C109 H118 0.931 . S
C110 C106 1.323 . S
C110 C109 1.433 . S
C110 H119 0.933 . S
C111 Dy81 2.738 1_655 S
C111 O91 1.255 1_655 S
C111 O92 1.249 1_655 S
C111 C105 1.516 . S
H112 C98 0.930 . S
H113 C99 0.931 . S
H114 C100 0.931 . S
H115 C101 0.933 . S
H116 C107 0.930 . S
H117 C108 0.931 . S
H118 C109 0.931 . S
H119 C110 0.933 . S
Dy120 O123 2.307 1_655 S
Dy120 O125 2.395 . S
Dy120 O126 2.379 . S
Dy120 O128 2.339 . S
Dy120 O130 2.298 . S
Dy120 O134 2.275 . S
Dy120 C142 2.738 . S
Dy121 O124 2.298 1_655 S
Dy121 O127 2.275 . S
Dy121 O129 2.307 . S
Dy121 O131 2.395 1_655 S
Dy121 O132 2.379 . S
Dy121 O135 2.339 . S
Dy121 C151 2.738 1_655 S
C122 O134 1.254 . S
C122 O135 1.257 . S
O123 Dy120 2.307 1_455 S
O123 C133 1.266 . S
O124 Dy121 2.298 1_455 S
O124 C133 1.236 . S
O125 Dy120 2.395 . S
O125 C142 1.255 . S
O126 Dy120 2.379 . S
O126 C142 1.249 . S
O127 Dy121 2.275 . S
O127 C143 1.254 . S
O128 Dy120 2.339 . S
O128 C143 1.257 . S
O129 Dy121 2.307 . S
O129 C144 1.266 . S
O130 Dy120 2.298 . S
O130 C144 1.236 . S
O131 Dy121 2.395 1_455 S
O131 C151 1.255 . S
O132 Dy121 2.379 . S
O132 C151 1.249 1_655 S
C133 O123 1.266 . S
C133 O124 1.236 . S
O134 Dy120 2.275 . S
O134 C122 1.254 . S
O135 Dy121 2.339 . S
O135 C122 1.257 . S
C136 C139 1.344 . S
C136 C140 1.328 . S
C136 C142 1.516 . S
C137 C138 1.304 . S
C137 C141 1.323 . S
C138 C137 1.304 . S
C138 C139 1.371 . S
C138 H152 0.930 . S
C139 C136 1.344 . S
C139 C138 1.371 . S
C139 H153 0.931 . S
C140 C136 1.328 . S
C140 C141 1.433 . S
C140 H154 0.931 . S
C141 C137 1.323 . S
C141 C140 1.433 . S
C141 H155 0.933 . S
C142 Dy120 2.738 . S
C142 O125 1.255 . S
C142 O126 1.249 . S
C142 C136 1.516 . S
C143 O127 1.254 . S
C143 O128 1.257 . S
C144 O129 1.266 . S
C144 O130 1.236 . S
C145 C148 1.344 . S
C145 C149 1.328 . S
C145 C151 1.516 . S
C146 C147 1.304 . S
C146 C150 1.323 . S
C147 C146 1.304 . S
C147 C148 1.371 . S
C147 H156 0.930 . S
C148 C145 1.344 . S
C148 C147 1.371 . S
C148 H157 0.931 . S
C149 C145 1.328 . S
C149 C150 1.433 . S
C149 H158 0.931 . S
C150 C146 1.323 . S
C150 C149 1.433 . S
C150 H159 0.933 . S
C151 Dy121 2.738 1_455 S
C151 O131 1.255 . S
C151 O132 1.249 1_455 S
C151 C145 1.516 . S
H152 C138 0.930 . S
H153 C139 0.931 . S
H154 C140 0.931 . S
H155 C141 0.933 . S
H156 C147 0.930 . S
H157 C148 0.931 . S
H158 C149 0.931 . S
H159 C150 0.933 . S
Dy160 O163 2.307 . S
Dy160 O165 2.395 . S
Dy160 O166 2.379 1_554 S
Dy160 O168 2.339 1_554 S
Dy160 O170 2.298 1_554 S
Dy160 O174 2.275 . S
Dy160 C182 2.738 . S
Dy161 O164 2.298 . S
Dy161 O167 2.275 1_554 S
Dy161 O169 2.307 . S
Dy161 O171 2.395 1_554 S
Dy161 O172 2.379 . S
Dy161 O175 2.339 . S
Dy161 C191 2.738 . S
C162 O174 1.254 . S
C162 O175 1.257 . S
O163 Dy160 2.307 . S
O163 C173 1.266 . S
O164 Dy161 2.298 . S
O164 C173 1.236 . S
O165 Dy160 2.395 . S
O165 C182 1.255 . S
O166 Dy160 2.379 1_556 S
O166 C182 1.249 1_556 S
O167 Dy161 2.275 1_556 S
O167 C183 1.254 . S
O168 Dy160 2.339 1_556 S
O168 C183 1.257 . S
O169 Dy161 2.307 . S
O169 C184 1.266 . S
O170 Dy160 2.298 1_556 S
O170 C184 1.236 1_556 S
O171 Dy161 2.395 1_556 S
O171 C191 1.255 1_556 S
O172 Dy161 2.379 . S
O172 C191 1.249 . S
C173 O163 1.266 . S
C173 O164 1.236 . S
O174 Dy160 2.275 . S
O174 C162 1.254 . S
O175 Dy161 2.339 . S
O175 C162 1.257 . S
C176 C179 1.344 . S
C176 C180 1.328 1_554 S
C176 C182 1.516 . S
C177 C178 1.304 . S
C177 C181 1.323 1_554 S
C178 C177 1.304 . S
C178 C179 1.371 . S
C178 H192 0.930 . S
C179 C176 1.344 . S
C179 C178 1.371 . S
C179 H193 0.931 . S
C180 C176 1.328 1_556 S
C180 C181 1.433 . S
C180 H194 0.931 . S
C181 C177 1.323 1_556 S
C181 C180 1.433 . S
C181 H195 0.933 . S
C182 Dy160 2.738 . S
C182 O165 1.255 . S
C182 O166 1.249 1_554 S
C182 C176 1.516 . S
C183 O167 1.254 . S
C183 O168 1.257 . S
C184 O169 1.266 . S
C184 O170 1.236 1_554 S
C185 C188 1.344 1_554 S
C185 C189 1.328 . S
C185 C191 1.516 . S
C186 C187 1.304 1_554 S
C186 C190 1.323 . S
C187 C186 1.304 1_556 S
C187 C188 1.371 . S
C187 H196 0.930 . S
C188 C185 1.344 1_556 S
C188 C187 1.371 . S
C188 H197 0.931 . S
C189 C185 1.328 . S
C189 C190 1.433 . S
C189 H198 0.931 . S
C190 C186 1.323 . S
C190 C189 1.433 . S
C190 H199 0.933 . S
C191 Dy161 2.738 . S
C191 O171 1.255 1_554 S
C191 O172 1.249 . S
C191 C185 1.516 . S
H192 C178 0.930 . S
H193 C179 0.931 . S
H194 C180 0.931 . S
H195 C181 0.933 . S
H196 C187 0.930 . S
H197 C188 0.931 . S
H198 C189 0.931 . S
H199 C190 0.933 . S
Dy200 O203 2.306 . S
Dy200 O205 2.395 1_556 S
Dy200 O206 2.379 . S
Dy200 O208 2.339 . S
Dy200 O210 2.298 . S
Dy200 O214 2.275 1_556 S
Dy200 C222 2.738 1_556 S
Dy201 O204 2.298 . S
Dy201 O207 2.275 1_554 S
Dy201 O209 2.307 . S
Dy201 O211 2.395 1_554 S
Dy201 O212 2.379 . S
Dy201 O215 2.339 . S
Dy201 C231 2.738 . S
C202 O214 1.254 . S
C202 O215 1.257 . S
O203 Dy200 2.306 . S
O203 C213 1.264 1_556 S
O204 Dy201 2.298 . S
O204 C213 1.236 . S
O205 Dy200 2.395 1_554 S
O205 C222 1.255 . S
O206 Dy200 2.379 . S
O206 C222 1.249 1_556 S
O207 Dy201 2.275 1_556 S
O207 C223 1.254 . S
O208 Dy200 2.339 . S
O208 C223 1.257 . S
O209 Dy201 2.307 . S
O209 C224 1.266 . S
O210 Dy200 2.298 . S
O210 C224 1.236 1_556 S
O211 Dy201 2.395 1_556 S
O211 C231 1.255 1_556 S
O212 Dy201 2.379 . S
O212 C231 1.249 . S
C213 O203 1.264 1_554 S
C213 O204 1.236 . S
O214 Dy200 2.275 1_554 S
O214 C202 1.254 . S
O215 Dy201 2.339 . S
O215 C202 1.257 . S
C216 C219 1.344 . S
C216 C220 1.328 1_554 S
C216 C222 1.516 . S
C217 C218 1.304 . S
C217 C221 1.323 1_554 S
C218 C217 1.304 . S
C218 C219 1.371 . S
C218 H232 0.930 . S
C219 C216 1.344 . S
C219 C218 1.371 . S
C219 H233 0.931 . S
C220 C216 1.328 1_556 S
C220 C221 1.433 . S
C220 H234 0.931 . S
C221 C217 1.323 1_556 S
C221 C220 1.433 . S
C221 H235 0.933 . S
C222 Dy200 2.738 1_554 S
C222 O205 1.255 . S
C222 O206 1.249 1_554 S
C222 C216 1.516 . S
C223 O207 1.254 . S
C223 O208 1.257 . S
C224 O209 1.266 . S
C224 O210 1.236 1_554 S
C225 C228 1.344 1_554 S
C225 C229 1.328 . S
C225 C231 1.516 . S
C226 C227 1.304 . S
C226 C230 1.323 1_556 S
C227 C226 1.304 . S
C227 C228 1.371 . S
C227 H236 0.930 . S
C228 C225 1.344 1_556 S
C228 C227 1.371 . S
C228 H237 0.931 . S
C229 C225 1.328 . S
C229 C230 1.433 . S
C229 H238 0.931 . S
C230 C226 1.323 1_554 S
C230 C229 1.433 . S
C230 H239 0.933 . S
C231 Dy201 2.738 . S
C231 O211 1.255 1_554 S
C231 O212 1.249 . S
C231 C225 1.516 . S
H232 C218 0.930 . S
H233 C219 0.931 . S
H234 C220 0.931 . S
H235 C221 0.933 . S
H236 C227 0.930 . S
H237 C228 0.931 . S
H238 C229 0.931 . S
H239 C230 0.933 . S
Dy240 O243 2.307 . S
Dy240 O245 2.395 . S
Dy240 O246 2.379 . S
Dy240 O248 2.339 . S
Dy240 O250 2.298 . S
Dy240 O254 2.275 . S
Dy240 C262 2.738 . S
Dy241 O244 2.298 . S
Dy241 O247 2.275 . S
Dy241 O249 2.307 . S
Dy241 O251 2.395 . S
Dy241 O252 2.379 . S
Dy241 O255 2.339 . S
Dy241 C271 2.738 . S
C242 O254 1.254 . S
C242 O255 1.257 . S
O243 Dy240 2.307 . S
O243 C253 1.266 . S
O244 Dy241 2.298 . S
O244 C253 1.236 . S
O245 Dy240 2.395 . S
O245 C262 1.255 . S
O246 Dy240 2.379 . S
O246 C262 1.249 . S
O247 Dy241 2.275 . S
O247 C263 1.254 . S
O248 Dy240 2.339 . S
O248 C263 1.257 . S
O249 Dy241 2.307 . S
O249 C264 1.266 . S
O250 Dy240 2.298 . S
O250 C264 1.236 . S
O251 Dy241 2.395 . S
O251 C271 1.255 . S
O252 Dy241 2.379 . S
O252 C271 1.249 . S
C253 O243 1.266 . S
C253 O244 1.236 . S
O254 Dy240 2.275 . S
O254 C242 1.254 . S
O255 Dy241 2.339 . S
O255 C242 1.257 . S
C256 C259 1.344 . S
C256 C260 1.328 . S
C256 C262 1.516 . S
C257 C258 1.304 . S
C257 C261 1.323 . S
C258 C257 1.304 . S
C258 C259 1.371 . S
C258 H272 0.930 . S
C259 C256 1.344 . S
C259 C258 1.371 . S
C259 H273 0.931 . S
C260 C256 1.328 . S
C260 C261 1.433 . S
C260 H274 0.931 . S
C261 C257 1.323 . S
C261 C260 1.433 . S
C261 H275 0.933 . S
C262 Dy240 2.738 . S
C262 O245 1.255 . S
C262 O246 1.249 . S
C262 C256 1.516 . S
C263 O247 1.254 . S
C263 O248 1.257 . S
C264 O249 1.266 . S
C264 O250 1.236 . S
C265 C268 1.344 . S
C265 C269 1.328 . S
C265 C271 1.516 . S
C266 C267 1.304 . S
C266 C270 1.323 . S
C267 C266 1.304 . S
C267 C268 1.371 . S
C267 H276 0.930 . S
C268 C265 1.344 . S
C268 C267 1.371 . S
C268 H277 0.931 . S
C269 C265 1.328 . S
C269 C270 1.433 . S
C269 H278 0.931 . S
C270 C266 1.323 . S
C270 C269 1.433 . S
C270 H279 0.933 . S
C271 Dy241 2.738 . S
C271 O251 1.255 . S
C271 O252 1.249 . S
C271 C265 1.516 . S
H272 C258 0.930 . S
H273 C259 0.931 . S
H274 C260 0.931 . S
H275 C261 0.933 . S
H276 C267 0.930 . S
H277 C268 0.931 . S
H278 C269 0.931 . S
H279 C270 0.933 . S
Dy280 O283 2.307 . S
Dy280 O285 2.395 . S
Dy280 O286 2.379 . S
Dy280 O288 2.339 . S
Dy280 O290 2.298 . S
Dy280 O294 2.275 . S
Dy280 C302 2.738 . S
Dy281 O284 2.298 . S
Dy281 O287 2.275 . S
Dy281 O289 2.307 . S
Dy281 O291 2.395 . S
Dy281 O292 2.379 . S
Dy281 O295 2.339 . S
Dy281 C311 2.738 . S
C282 O294 1.254 . S
C282 O295 1.257 . S
O283 Dy280 2.307 . S
O283 C293 1.266 . S
O284 Dy281 2.298 . S
O284 C293 1.236 . S
O285 Dy280 2.395 . S
O285 C302 1.255 . S
O286 Dy280 2.379 . S
O286 C302 1.249 . S
O287 Dy281 2.275 . S
O287 C303 1.254 . S
O288 Dy280 2.339 . S
O288 C303 1.257 . S
O289 Dy281 2.307 . S
O289 C304 1.266 . S
O290 Dy280 2.298 . S
O290 C304 1.236 . S
O291 Dy281 2.395 . S
O291 C311 1.255 . S
O292 Dy281 2.379 . S
O292 C311 1.249 . S
C293 O283 1.266 . S
C293 O284 1.236 . S
O294 Dy280 2.275 . S
O294 C282 1.254 . S
O295 Dy281 2.339 . S
O295 C282 1.257 . S
C296 C299 1.344 . S
C296 C300 1.328 . S
C296 C302 1.516 . S
C297 C298 1.304 . S
C297 C301 1.323 . S
C298 C297 1.304 . S
C298 C299 1.371 . S
C298 H312 0.930 . S
C299 C296 1.344 . S
C299 C298 1.371 . S
C299 H313 0.931 . S
C300 C296 1.328 . S
C300 C301 1.433 . S
C300 H314 0.931 . S
C301 C297 1.323 . S
C301 C300 1.433 . S
C301 H315 0.933 . S
C302 Dy280 2.738 . S
C302 O285 1.255 . S
C302 O286 1.249 . S
C302 C296 1.516 . S
C303 O287 1.254 . S
C303 O288 1.257 . S
C304 O289 1.266 . S
C304 O290 1.236 . S
C305 C308 1.344 . S
C305 C309 1.328 . S
C305 C311 1.516 . S
C306 C307 1.304 . S
C306 C310 1.323 . S
C307 C306 1.304 . S
C307 C308 1.371 . S
C307 H316 0.930 . S
C308 C305 1.344 . S
C308 C307 1.371 . S
C308 H317 0.931 . S
C309 C305 1.328 . S
C309 C310 1.433 . S
C309 H318 0.931 . S
C310 C306 1.323 . S
C310 C309 1.433 . S
C310 H319 0.933 . S
C311 Dy281 2.738 . S
C311 O291 1.255 . S
C311 O292 1.249 . S
C311 C305 1.516 . S
H312 C298 0.930 . S
H313 C299 0.931 . S
H314 C300 0.931 . S
H315 C301 0.933 . S
H316 C307 0.930 . S
H317 C308 0.931 . S
H318 C309 0.931 . S
H319 C310 0.933 . S
C320 C321 1.387 1_556 S
C320 H324 0.950 . S
C320 C329 1.390 . S
C321 C320 1.387 1_554 S
C321 C323 1.387 . S
H322 C329 0.950 . S
C323 C321 1.387 . S
C323 C325 1.390 . S
C323 H327 0.950 . S
H324 C320 0.950 . S
C325 C323 1.390 . S
C325 C326 1.387 . S
C325 H328 0.950 . S
C326 C325 1.387 . S
C326 C329 1.387 1_554 S
H327 C323 0.950 . S
H328 C325 0.950 . S
C329 C320 1.390 . S
C329 H322 0.950 . S
C329 C326 1.387 1_556 S
C330 C331 1.387 1_556 S
C330 H334 0.950 . S
C330 C339 1.390 . S
C331 C330 1.387 1_554 S
C331 C333 1.387 . S
H332 C339 0.950 . S
C333 C331 1.387 . S
C333 C335 1.390 . S
C333 H337 0.950 . S
H334 C330 0.950 . S
C335 C333 1.390 . S
C335 C336 1.387 . S
C335 H338 0.950 . S
C336 C335 1.387 . S
C336 C339 1.387 1_554 S
H337 C333 0.950 . S
H338 C335 0.950 . S
C339 C330 1.390 . S
C339 H332 0.950 . S
C339 C336 1.387 1_556 S
C340 C341 1.387 . S
C340 H344 0.950 . S
C340 C349 1.390 . S
C341 C340 1.387 . S
C341 C343 1.387 . S
H342 C349 0.950 . S
C343 C341 1.387 . S
C343 C345 1.390 . S
C343 H347 0.950 . S
H344 C340 0.950 . S
C345 C343 1.390 . S
C345 C346 1.387 . S
C345 H348 0.950 . S
C346 C345 1.387 . S
C346 C349 1.387 . S
H347 C343 0.950 . S
H348 C345 0.950 . S
C349 C340 1.390 . S
C349 H342 0.950 . S
C349 C346 1.387 . S
C350 C351 1.387 . S
C350 H354 0.950 . S
C350 C359 1.390 . S
C351 C350 1.387 . S
C351 C353 1.387 . S
H352 C359 0.950 . S
C353 C351 1.387 . S
C353 C355 1.390 . S
C353 H357 0.950 . S
H354 C350 0.950 . S
C355 C353 1.390 . S
C355 C356 1.387 . S
C355 H358 0.950 . S
C356 C355 1.387 . S
C356 C359 1.387 . S
H357 C353 0.950 . S
H358 C355 0.950 . S
C359 C350 1.390 . S
C359 H352 0.950 . S
C359 C356 1.387 . S
C360 C361 1.387 1_455 S
C360 H364 0.950 1_455 S
C360 C369 1.390 . S
C361 C360 1.387 1_655 S
C361 C363 1.387 1_654 S
H362 C369 0.950 . S
C363 C361 1.387 1_456 S
C363 C365 1.390 . S
C363 H367 0.950 1_455 S
H364 C360 0.950 1_655 S
C365 C363 1.390 . S
C365 C366 1.387 1_556 S
C365 H368 0.950 . S
C366 C365 1.387 1_554 S
C366 C369 1.387 . S
H367 C363 0.950 1_655 S
H368 C365 0.950 . S
C369 C360 1.390 . S
C369 H362 0.950 . S
C369 C366 1.387 . S
C370 C371 1.387 1_656 S
C370 H374 0.950 1_655 S
C370 C379 1.390 . S
C371 C370 1.387 1_454 S
C371 C373 1.387 1_455 S
H372 C379 0.950 . S
C373 C371 1.387 1_655 S
C373 C375 1.390 . S
C373 H377 0.950 1_655 S
H374 C370 0.950 1_455 S
C375 C373 1.390 . S
C375 C376 1.387 . S
C375 H378 0.950 . S
C376 C375 1.387 . S
C376 C379 1.387 1_554 S
H377 C373 0.950 1_455 S
H378 C375 0.950 . S
C379 C370 1.390 . S
C379 H372 0.950 . S
C379 C376 1.387 1_556 S
C380 C381 1.387 . S
C380 H384 0.950 . S
C380 C389 1.390 . S
C381 C380 1.387 . S
C381 C383 1.387 . S
H382 C389 0.950 1_655 S
C383 C381 1.387 . S
C383 C385 1.390 1_455 S
C383 H387 0.950 . S
H384 C380 0.950 . S
C385 C383 1.390 1_655 S
C385 C386 1.387 . S
C385 H388 0.950 . S
C386 C385 1.387 . S
C386 C389 1.387 1_655 S
H387 C383 0.950 . S
H388 C385 0.950 . S
C389 C380 1.390 . S
C389 H382 0.950 1_455 S
C389 C386 1.387 1_455 S
C390 C391 1.387 . S
C390 H394 0.950 . S
C390 C399 1.390 1_655 S
C391 C390 1.387 . S
C391 C393 1.387 . S
H392 C399 0.950 . S
C393 C391 1.387 . S
C393 C395 1.390 . S
C393 H397 0.950 . S
H394 C390 0.950 . S
C395 C393 1.390 . S
C395 C396 1.387 1_655 S
C395 H398 0.950 1_655 S
C396 C395 1.387 1_455 S
C396 C399 1.387 . S
H397 C393 0.950 . S
H398 C395 0.950 1_455 S
C399 C390 1.390 1_455 S
C399 H392 0.950 . S
C399 C396 1.387 . S
C400 C401 1.387 . S
C400 H404 0.950 . S
C400 C409 1.390 1_455 S
C401 C400 1.387 . S
C401 C403 1.387 1_554 S
H402 C409 0.950 . S
C403 C401 1.387 1_556 S
C403 C405 1.390 1_455 S
C403 H407 0.950 . S
H404 C400 0.950 . S
C405 C403 1.390 1_655 S
C405 C406 1.387 1_556 S
C405 H408 0.950 . S
C406 C405 1.387 1_554 S
C406 C409 1.387 . S
H407 C403 0.950 . S
H408 C405 0.950 . S
C409 C400 1.390 1_655 S
C409 H402 0.950 . S
C409 C406 1.387 . S
C410 C411 1.387 . S
C410 H414 0.950 . S
C410 C419 1.390 1_455 S
C411 C410 1.387 . S
C411 C413 1.387 . S
H412 C419 0.950 . S
C413 C411 1.387 . S
C413 C415 1.390 1_455 S
C413 H417 0.950 . S
H414 C410 0.950 . S
C415 C413 1.390 1_655 S
C415 C416 1.387 . S
C415 H418 0.950 . S
C416 C415 1.387 . S
C416 C419 1.387 . S
H417 C413 0.950 . S
H418 C415 0.950 . S
C419 C410 1.390 1_655 S
C419 H412 0.950 . S
C419 C416 1.387 . S
C420 C421 1.387 1_556 S
C420 H424 0.950 . S
C420 C429 1.390 1_565 S
C421 C420 1.387 1_554 S
C421 C423 1.387 . S
H422 C429 0.950 . S
C423 C421 1.387 . S
C423 C425 1.390 1_565 S
C423 H427 0.950 . S
H424 C420 0.950 . S
C425 C423 1.390 1_545 S
C425 C426 1.387 . S
C425 H428 0.950 . S
C426 C425 1.387 . S
C426 C429 1.387 1_554 S
H427 C423 0.950 . S
H428 C425 0.950 . S
C429 C420 1.390 1_545 S
C429 H422 0.950 . S
C429 C426 1.387 1_556 S
C430 C431 1.387 1_565 S
C430 H434 0.950 . S
C430 C439 1.390 . S
C431 C430 1.387 1_545 S
C431 C433 1.387 . S
H432 C439 0.950 . S
C433 C431 1.387 . S
C433 C435 1.390 . S
C433 H437 0.950 . S
H434 C430 0.950 . S
C435 C433 1.390 . S
C435 C436 1.387 1_545 S
C435 H438 0.950 . S
C436 C435 1.387 1_565 S
C436 C439 1.387 . S
H437 C433 0.950 . S
H438 C435 0.950 . S
C439 C430 1.390 . S
C439 H432 0.950 . S
C439 C436 1.387 . S
C440 C441 1.387 1_556 S
C440 H444 0.950 . S
C440 C449 1.390 . S
C441 C440 1.387 1_554 S
C441 C443 1.387 . S
H442 C449 0.950 . S
C443 C441 1.387 . S
C443 C445 1.390 . S
C443 H447 0.950 . S
H444 C440 0.950 . S
C445 C443 1.390 . S
C445 C446 1.387 . S
C445 H448 0.950 . S
C446 C445 1.387 . S
C446 C449 1.387 1_554 S
H447 C443 0.950 . S
H448 C445 0.950 . S
C449 C440 1.390 . S
C449 H442 0.950 . S
C449 C446 1.387 1_556 S
C450 C451 1.387 1_556 S
C450 H454 0.950 . S
C450 C459 1.390 . S
C451 C450 1.387 1_554 S
C451 C453 1.387 . S
H452 C459 0.950 . S
C453 C451 1.387 . S
C453 C455 1.390 . S
C453 H457 0.950 . S
H454 C450 0.950 . S
C455 C453 1.390 . S
C455 C456 1.387 . S
C455 H458 0.950 . S
C456 C455 1.387 . S
C456 C459 1.387 1_554 S
H457 C453 0.950 . S
H458 C455 0.950 . S
C459 C450 1.390 . S
C459 H452 0.950 . S
C459 C456 1.387 1_556 S
C460 C461 1.387 . S
C460 H464 0.950 . S
C460 C469 1.390 . S
C461 C460 1.387 . S
C461 C463 1.387 . S
H462 C469 0.950 . S
C463 C461 1.387 . S
C463 C465 1.390 . S
C463 H467 0.950 . S
H464 C460 0.950 . S
C465 C463 1.390 . S
C465 C466 1.387 . S
C465 H468 0.950 . S
C466 C465 1.387 . S
C466 C469 1.387 . S
H467 C463 0.950 . S
H468 C465 0.950 . S
C469 C460 1.390 . S
C469 H462 0.950 . S
C469 C466 1.387 . S
C470 C471 1.387 . S
C470 H474 0.950 . S
C470 C479 1.390 . S
C471 C470 1.387 . S
C471 C473 1.387 . S
H472 C479 0.950 . S
C473 C471 1.387 . S
C473 C475 1.390 . S
C473 H477 0.950 . S
H474 C470 0.950 . S
C475 C473 1.390 . S
C475 C476 1.387 . S
C475 H478 0.950 . S
C476 C475 1.387 . S
C476 C479 1.387 . S
H477 C473 0.950 . S
H478 C475 0.950 . S
C479 C470 1.390 . S
C479 H472 0.950 . S
C479 C476 1.387 . S
C480 C481 1.387 . S
C480 H484 0.950 . S
C480 C489 1.390 1_455 S
C481 C480 1.387 . S
C481 C483 1.387 . S
H482 C489 0.950 . S
C483 C481 1.387 . S
C483 C485 1.390 1_455 S
C483 H487 0.950 . S
H484 C480 0.950 . S
C485 C483 1.390 1_655 S
C485 C486 1.387 . S
C485 H488 0.950 . S
C486 C485 1.387 . S
C486 C489 1.387 . S
H487 C483 0.950 . S
H488 C485 0.950 . S
C489 C480 1.390 1_655 S
C489 H482 0.950 . S
C489 C486 1.387 . S
C490 C491 1.387 . S
C490 H494 0.950 . S
C490 C499 1.390 1_655 S
C491 C490 1.387 . S
C491 C493 1.387 . S
H492 C499 0.950 . S
C493 C491 1.387 . S
C493 C495 1.390 1_655 S
C493 H497 0.950 . S
H494 C490 0.950 . S
C495 C493 1.390 1_455 S
C495 C496 1.387 . S
C495 H498 0.950 . S
C496 C495 1.387 . S
C496 C499 1.387 . S
H497 C493 0.950 . S
H498 C495 0.950 . S
C499 C490 1.390 1_455 S
C499 H492 0.950 . S
C499 C496 1.387 . S
C500 C501 1.387 . S
C500 H504 0.950 . S
C500 C509 1.390 . S
C501 C500 1.387 . S
C501 C503 1.387 1_655 S
H502 C509 0.950 . S
C503 C501 1.387 1_455 S
C503 C505 1.390 . S
C503 H507 0.950 . S
H504 C500 0.950 . S
C505 C503 1.390 . S
C505 C506 1.387 . S
C505 H508 0.950 . S
C506 C505 1.387 . S
C506 C509 1.387 1_455 S
H507 C503 0.950 . S
H508 C505 0.950 . S
C509 C500 1.390 . S
C509 H502 0.950 . S
C509 C506 1.387 1_655 S
C510 C511 1.387 . S
C510 H514 0.950 . S
C510 C519 1.390 1_655 S
C511 C510 1.387 . S
C511 C513 1.387 1_655 S
H512 C519 0.950 . S
C513 C511 1.387 1_455 S
C513 C515 1.390 . S
C513 H517 0.950 1_455 S
H514 C510 0.950 . S
C515 C513 1.390 . S
C515 C516 1.387 . S
C515 H518 0.950 . S
C516 C515 1.387 . S
C516 C519 1.387 . S
H517 C513 0.950 1_655 S
H518 C515 0.950 . S
C519 C510 1.390 1_455 S
C519 H512 0.950 . S
C519 C516 1.387 . S
C520 C521 1.387 . S
C520 H524 0.950 . S
C520 C529 1.390 . S
C521 C520 1.387 . S
C521 C523 1.387 . S
H522 C529 0.950 . S
C523 C521 1.387 . S
C523 C525 1.390 . S
C523 H527 0.950 . S
H524 C520 0.950 . S
C525 C523 1.390 . S
C525 C526 1.387 . S
C525 H528 0.950 . S
C526 C525 1.387 . S
C526 C529 1.387 . S
H527 C523 0.950 . S
H528 C525 0.950 . S
C529 C520 1.390 . S
C529 H522 0.950 . S
C529 C526 1.387 . S
C530 C531 1.387 . S
C530 H534 0.950 . S
C530 C539 1.390 . S
C531 C530 1.387 . S
C531 C533 1.387 . S
H532 C539 0.950 . S
C533 C531 1.387 . S
C533 C535 1.390 . S
C533 H537 0.950 . S
H534 C530 0.950 . S
C535 C533 1.390 . S
C535 C536 1.387 . S
C535 H538 0.950 . S
C536 C535 1.387 . S
C536 C539 1.387 . S
H537 C533 0.950 . S
H538 C535 0.950 . S
C539 C530 1.390 . S
C539 H532 0.950 . S
C539 C536 1.387 . S
C540 C541 1.387 . S
C540 H544 0.950 . S
C540 C549 1.390 . S
C541 C540 1.387 . S
C541 C543 1.387 . S
H542 C549 0.950 . S
C543 C541 1.387 . S
C543 C545 1.390 . S
C543 H547 0.950 . S
H544 C540 0.950 . S
C545 C543 1.390 . S
C545 C546 1.387 . S
C545 H548 0.950 . S
C546 C545 1.387 . S
C546 C549 1.387 . S
H547 C543 0.950 . S
H548 C545 0.950 . S
C549 C540 1.390 . S
C549 H542 0.950 . S
C549 C546 1.387 . S
C550 C551 1.387 . S
C550 H554 0.950 . S
C550 C559 1.390 . S
C551 C550 1.387 . S
C551 C553 1.387 . S
H552 C559 0.950 . S
C553 C551 1.387 . S
C553 C555 1.390 . S
C553 H557 0.950 . S
H554 C550 0.950 . S
C555 C553 1.390 . S
C555 C556 1.387 . S
C555 H558 0.950 . S
C556 C555 1.387 . S
C556 C559 1.387 . S
H557 C553 0.950 . S
H558 C555 0.950 . S
C559 C550 1.390 . S
C559 H552 0.950 . S
C559 C556 1.387 . S
C321 C13 2.083 . S
C326 C24 2.083 . S
C331 C53 2.083 . S
C336 C64 2.083 . S
C341 C93 2.078 . S
C346 C104 2.078 . S
C351 C144 2.099 . S
C356 C133 2.099 . S
C361 C173 2.081 . S
C366 C184 2.081 . S
C371 C224 2.083 . S
C376 C213 2.083 . S
C381 C253 2.080 . S
C386 C264 2.080 . S
C391 C293 2.099 . S
C396 C304 2.099 . S
C401 C66 2.564 1_554 S
C406 C17 2.564 . S
C411 C146 2.571 . S
C416 C106 2.571 . S
C421 C177 2.559 . S
C426 C226 2.559 1_554 S
C431 C266 2.572 . S
C436 C306 2.572 . S
C441 C26 1.810 . S
C446 C217 1.810 . S
C451 C186 1.810 . S
C456 C57 1.810 . S
C461 C97 1.832 . S
C466 C297 1.831 . S
C471 C137 1.830 . S
C476 C257 1.831 . S
C481 C2 1.642 . S
C486 C122 1.607 . S
C491 C42 1.535 . S
C496 C82 1.497 . S
C501 C63 1.602 . S
C506 C103 1.567 . S
C511 C143 1.480 . S
C516 C23 1.466 . S
C521 C162 1.641 . S
C526 C282 1.606 . S
C531 C202 1.536 . S
C536 C242 1.497 . S
C541 C223 1.602 . S
C546 C263 1.567 . S
C551 C303 1.480 . S
C556 C183 1.466 . S
