# Generated by pormake.
# Topology yfb, (5)-cn, num edge types: 1
# Building blocks:
#     Node 0, Type 0, BuildingBlock: BEQFEK_clean_sbu_0, # of connection points: 5
#     Node 1, Type 0, BuildingBlock: BEQFEK_clean_sbu_0, # of connection points: 5
#     Node 2, Type 0, BuildingBlock: BEQFEK_clean_sbu_0, # of connection points: 5
#     Node 3, Type 0, BuildingBlock: BEQFEK_clean_sbu_0, # of connection points: 5
#     Node 4, Type 0, BuildingBlock: BEQFEK_clean_sbu_0, # of connection points: 5
#     Node 5, Type 0, BuildingBlock: BEQFEK_clean_sbu_0, # of connection points: 5
#     Node 6, Type 0, BuildingBlock: BEQFEK_clean_sbu_0, # of connection points: 5
#     Node 7, Type 0, BuildingBlock: BEQFEK_clean_sbu_0, # of connection points: 5
#     Node 8, Type 0, BuildingBlock: BEQFEK_clean_sbu_0, # of connection points: 5
#     Node 9, Type 0, BuildingBlock: BEQFEK_clean_sbu_0, # of connection points: 5
#     Node 10, Type 0, BuildingBlock: BEQFEK_clean_sbu_0, # of connection points: 5
#     Node 11, Type 0, BuildingBlock: BEQFEK_clean_sbu_0, # of connection points: 5
#     Node 12, Type 0, BuildingBlock: BEQFEK_clean_sbu_0, # of connection points: 5
#     Node 13, Type 0, BuildingBlock: BEQFEK_clean_sbu_0, # of connection points: 5
#     Node 14, Type 0, BuildingBlock: BEQFEK_clean_sbu_0, # of connection points: 5
#     Node 15, Type 0, BuildingBlock: BEQFEK_clean_sbu_0, # of connection points: 5
#     Edge 16, Type (0, 0), BuildingBlock: ZUJKAS_clean_linker_0, # of connection points: 2
#     Edge 17, Type (0, 0), BuildingBlock: ZUJKAS_clean_linker_0, # of connection points: 2
#     Edge 18, Type (0, 0), BuildingBlock: ZUJKAS_clean_linker_0, # of connection points: 2
#     Edge 19, Type (0, 0), BuildingBlock: ZUJKAS_clean_linker_0, # of connection points: 2
#     Edge 20, Type (0, 0), BuildingBlock: ZUJKAS_clean_linker_0, # of connection points: 2
#     Edge 21, Type (0, 0), BuildingBlock: ZUJKAS_clean_linker_0, # of connection points: 2
#     Edge 22, Type (0, 0), BuildingBlock: ZUJKAS_clean_linker_0, # of connection points: 2
#     Edge 23, Type (0, 0), BuildingBlock: ZUJKAS_clean_linker_0, # of connection points: 2
#     Edge 24, Type (0, 0), BuildingBlock: ZUJKAS_clean_linker_0, # of connection points: 2
#     Edge 25, Type (0, 0), BuildingBlock: ZUJKAS_clean_linker_0, # of connection points: 2
#     Edge 26, Type (0, 0), BuildingBlock: ZUJKAS_clean_linker_0, # of connection points: 2
#     Edge 27, Type (0, 0), BuildingBlock: ZUJKAS_clean_linker_0, # of connection points: 2
#     Edge 28, Type (0, 0), BuildingBlock: ZUJKAS_clean_linker_0, # of connection points: 2
#     Edge 29, Type (0, 0), BuildingBlock: ZUJKAS_clean_linker_0, # of connection points: 2
#     Edge 30, Type (0, 0), BuildingBlock: ZUJKAS_clean_linker_0, # of connection points: 2
#     Edge 31, Type (0, 0), BuildingBlock: ZUJKAS_clean_linker_0, # of connection points: 2
#     Edge 32, Type (0, 0), BuildingBlock: ZUJKAS_clean_linker_0, # of connection points: 2
#     Edge 33, Type (0, 0), BuildingBlock: ZUJKAS_clean_linker_0, # of connection points: 2
#     Edge 34, Type (0, 0), BuildingBlock: ZUJKAS_clean_linker_0, # of connection points: 2
#     Edge 35, Type (0, 0), BuildingBlock: ZUJKAS_clean_linker_0, # of connection points: 2
#     Edge 36, Type (0, 0), BuildingBlock: ZUJKAS_clean_linker_0, # of connection points: 2
#     Edge 37, Type (0, 0), BuildingBlock: ZUJKAS_clean_linker_0, # of connection points: 2
#     Edge 38, Type (0, 0), BuildingBlock: ZUJKAS_clean_linker_0, # of connection points: 2
#     Edge 39, Type (0, 0), BuildingBlock: ZUJKAS_clean_linker_0, # of connection points: 2
#     Edge 40, Type (0, 0), BuildingBlock: ZUJKAS_clean_linker_0, # of connection points: 2
#     Edge 41, Type (0, 0), BuildingBlock: ZUJKAS_clean_linker_0, # of connection points: 2
#     Edge 42, Type (0, 0), BuildingBlock: ZUJKAS_clean_linker_0, # of connection points: 2
#     Edge 43, Type (0, 0), BuildingBlock: ZUJKAS_clean_linker_0, # of connection points: 2
#     Edge 44, Type (0, 0), BuildingBlock: ZUJKAS_clean_linker_0, # of connection points: 2
#     Edge 45, Type (0, 0), BuildingBlock: ZUJKAS_clean_linker_0, # of connection points: 2
#     Edge 46, Type (0, 0), BuildingBlock: ZUJKAS_clean_linker_0, # of connection points: 2
#     Edge 47, Type (0, 0), BuildingBlock: ZUJKAS_clean_linker_0, # of connection points: 2
#     Edge 48, Type (0, 0), BuildingBlock: ZUJKAS_clean_linker_0, # of connection points: 2
#     Edge 49, Type (0, 0), BuildingBlock: ZUJKAS_clean_linker_0, # of connection points: 2
#     Edge 50, Type (0, 0), BuildingBlock: ZUJKAS_clean_linker_0, # of connection points: 2
#     Edge 51, Type (0, 0), BuildingBlock: ZUJKAS_clean_linker_0, # of connection points: 2
#     Edge 52, Type (0, 0), BuildingBlock: ZUJKAS_clean_linker_0, # of connection points: 2
#     Edge 53, Type (0, 0), BuildingBlock: ZUJKAS_clean_linker_0, # of connection points: 2
#     Edge 54, Type (0, 0), BuildingBlock: ZUJKAS_clean_linker_0, # of connection points: 2
#     Edge 55, Type (0, 0), BuildingBlock: ZUJKAS_clean_linker_0, # of connection points: 2
# Relax obj value: 0.640
# Max RMSD: 0.194
# Mean RMSD: 0.194
data_MOF--net-yfb--node1-BEQFEK_clean_sbu_0--edge1-ZUJKAS_clean_linker_0
_symmetry_space_group_name_H-M    P1
_symmetry_Int_Tables_number       1
_symmetry_cell_setting            triclinic
loop_
_symmetry_equiv_pos_as_xyz
'x, y, z'
_cell_length_a     58.751781
_cell_length_b     58.838093
_cell_length_c     57.073477
_cell_angle_alpha  90.086568
_cell_angle_beta   90.000527
_cell_angle_gamma 89.806066
loop_
_atom_site_label
_atom_site_type_symbol
_atom_site_fract_x
_atom_site_fract_y
_atom_site_fract_z
_atom_type_partial_charge
Co0 Co 0.66757 0.10042 0.11227 0.0
Co1 Co 0.64389 0.05804 0.08931 0.0
C2 C 0.62595 0.10698 0.08507 0.0
O3 O 0.64065 0.11499 0.099 0.0
O4 O 0.62605 0.08596 0.07974 0.0
C5 C 0.67271 0.13983 0.14066 0.0
O6 O 0.6504 0.13864 0.14153 0.0
C7 C 0.60235 0.03371 0.07513 0.0
C8 C 0.61561 0.00178 0.06017 0.0
C9 C 0.59572 0.01435 0.0628 0.0
N10 N 0.62501 0.03286 0.07901 0.0
N11 N 0.63275 0.01353 0.07022 0.0
C12 C 0.58732 0.05254 0.08374 0.0
H13 H 0.59458 0.06015 0.09989 0.0
H14 H 0.56992 0.04617 0.08742 0.0
H15 H 0.58618 0.06596 0.07015 0.0
C16 C 0.6686 0.07099 0.15328 0.0
N17 N 0.6606 0.0755 0.1317 0.0
N18 N 0.6519 0.05693 0.12243 0.0
C19 C 0.65482 0.03973 0.13794 0.0
C20 C 0.66531 0.04817 0.15816 0.0
C21 C 0.68274 0.0873 0.16722 0.0
H22 H 0.69776 0.09244 0.15673 0.0
H23 H 0.6725 0.10269 0.17113 0.0
H24 H 0.68879 0.07992 0.18396 0.0
O25 O 0.6878 0.09012 0.08646 0.0
O26 O 0.67295 0.05878 0.07086 0.0
H27 H 0.66241 0.00961 0.1186 0.0
H28 H 0.65225 0.00448 0.14809 0.0
C29 C 0.6503 0.01536 0.13233 0.0
H30 H 0.63285 0.01364 0.12512 0.0
H31 H 0.64989 0.00882 0.07011 0.0
O32 O 0.68375 0.12461 0.12959 0.0
C33 C 0.68864 0.07376 0.07178 0.0
Co34 Co 0.37917 0.66763 0.11374 0.0
Co35 Co 0.4211 0.6435 0.08986 0.0
C36 C 0.37191 0.6265 0.08565 0.0
O37 O 0.36414 0.6415 0.09949 0.0
O38 O 0.39301 0.6259 0.08051 0.0
C39 C 0.33837 0.67487 0.14034 0.0
O40 O 0.33619 0.65274 0.1383 0.0
C41 C 0.44674 0.60219 0.07597 0.0
C42 C 0.47692 0.61668 0.05863 0.0
C43 C 0.46582 0.59628 0.0627 0.0
N44 N 0.44658 0.62494 0.07931 0.0
N45 N 0.46494 0.63338 0.06923 0.0
C46 C 0.42728 0.5871 0.08245 0.0
H47 H 0.41536 0.586 0.06742 0.0
H48 H 0.41809 0.59419 0.09781 0.0
H49 H 0.4331 0.56968 0.08665 0.0
C50 C 0.40879 0.66731 0.15442 0.0
N51 N 0.40402 0.65953 0.13281 0.0
N52 N 0.42263 0.65133 0.12302 0.0
C53 C 0.44014 0.65463 0.13811 0.0
C54 C 0.43186 0.66472 0.15865 0.0
C55 C 0.39235 0.68083 0.16895 0.0
H56 H 0.38857 0.69713 0.15998 0.0
H57 H 0.37627 0.67121 0.17082 0.0
H58 H 0.39913 0.6846 0.18665 0.0
O59 O 0.38996 0.68835 0.08877 0.0
O60 O 0.42009 0.67254 0.07154 0.0
H61 H 0.46919 0.66326 0.1176 0.0
H62 H 0.47588 0.6538 0.14703 0.0
C63 C 0.46456 0.65115 0.13169 0.0
H64 H 0.46694 0.63371 0.12466 0.0
H65 H 0.46857 0.6507 0.06832 0.0
O66 O 0.3557 0.68455 0.13159 0.0
C67 C 0.40586 0.68891 0.07357 0.0
Co68 Co 0.80937 0.37837 0.11306 0.0
Co69 Co 0.835 0.41934 0.08956 0.0
C70 C 0.8512 0.36995 0.08576 0.0
O71 O 0.83523 0.36282 0.09871 0.0
O72 O 0.85294 0.39103 0.08101 0.0
C73 C 0.80195 0.33769 0.1393 0.0
O74 O 0.82411 0.3354 0.13725 0.0
C75 C 0.8767 0.4438 0.07589 0.0
C76 C 0.86331 0.47493 0.05942 0.0
C77 C 0.88334 0.46285 0.06309 0.0
N78 N 0.85393 0.44436 0.07903 0.0
N79 N 0.84611 0.46323 0.06936 0.0
C80 C 0.8918 0.42564 0.08569 0.0
H81 H 0.884 0.41818 0.10162 0.0
H82 H 0.90883 0.4326 0.09002 0.0
H83 H 0.89396 0.41197 0.0725 0.0
C84 C 0.81002 0.40789 0.1538 0.0
N85 N 0.81782 0.40297 0.13222 0.0
N86 N 0.82674 0.42125 0.12264 0.0
C87 C 0.82403 0.43874 0.13792 0.0
C88 C 0.81351 0.43076 0.15831 0.0
C89 C 0.79568 0.39195 0.16793 0.0
H90 H 0.77965 0.38845 0.15832 0.0
H91 H 0.80495 0.37568 0.17029 0.0
H92 H 0.79131 0.39892 0.18541 0.0
O93 O 0.78892 0.38956 0.08815 0.0
O94 O 0.80608 0.41855 0.07055 0.0
H95 H 0.81676 0.4685 0.11797 0.0
H96 H 0.82674 0.47418 0.14743 0.0
C97 C 0.82873 0.46297 0.13189 0.0
H98 H 0.84624 0.46445 0.12478 0.0
H99 H 0.8289 0.46761 0.06857 0.0
O100 O 0.79223 0.35514 0.13076 0.0
C101 C 0.78913 0.40513 0.07265 0.0
Co102 Co 0.10125 0.81061 0.117 0.0
Co103 Co 0.05996 0.83491 0.09229 0.0
C104 C 0.10927 0.85154 0.08893 0.0
O105 O 0.11661 0.83661 0.10301 0.0
O106 O 0.0883 0.85224 0.08332 0.0
C107 C 0.14037 0.80501 0.14588 0.0
O108 O 0.13956 0.82732 0.14649 0.0
C109 C 0.03601 0.87643 0.07681 0.0
C110 C 0.00432 0.86315 0.06147 0.0
C111 C 0.01685 0.88298 0.06402 0.0
N112 N 0.03508 0.85388 0.08103 0.0
N113 N 0.0159 0.84613 0.07198 0.0
C114 C 0.0547 0.89144 0.08556 0.0
H115 H 0.06202 0.88438 0.10195 0.0
H116 H 0.04826 0.9089 0.08888 0.0
H117 H 0.06839 0.89227 0.0722 0.0
C118 C 0.07078 0.8108 0.15701 0.0
N119 N 0.0761 0.81881 0.13564 0.0
N120 N 0.05776 0.82721 0.1255 0.0
C121 C 0.0399 0.82388 0.14015 0.0
C122 C 0.04765 0.81348 0.16073 0.0
C123 C 0.08676 0.79711 0.17183 0.0
H124 H 0.09133 0.7812 0.16247 0.0
H125 H 0.10251 0.80697 0.17492 0.0
H126 H 0.07918 0.79269 0.18903 0.0
O127 O 0.09081 0.78978 0.09189 0.0
O128 O 0.06111 0.80576 0.07405 0.0
H129 H 0.01127 0.81493 0.11915 0.0
H130 H 0.004 0.82494 0.14825 0.0
C131 C 0.01564 0.8273 0.13313 0.0
H132 H 0.01345 0.84461 0.12576 0.0
H133 H 0.01118 0.82904 0.07207 0.0
O134 O 0.12492 0.79422 0.13499 0.0
C135 C 0.07517 0.78929 0.07638 0.0
Co136 Co 0.67421 0.38254 0.39758 0.0
Co137 Co 0.64455 0.42247 0.41844 0.0
C138 C 0.63174 0.37268 0.42392 0.0
O139 O 0.64905 0.36633 0.41234 0.0
O140 O 0.62781 0.39373 0.42739 0.0
C141 C 0.68271 0.34243 0.37113 0.0
O142 O 0.66039 0.34122 0.37122 0.0
C143 C 0.60192 0.44724 0.43064 0.0
C144 C 0.6155 0.47767 0.44828 0.0
C145 C 0.59538 0.46616 0.44384 0.0
N146 N 0.62477 0.44749 0.42781 0.0
N147 N 0.63263 0.46606 0.438 0.0
C148 C 0.58719 0.42769 0.42362 0.0
H149 H 0.58327 0.41733 0.43932 0.0
H150 H 0.59588 0.41701 0.41031 0.0
H151 H 0.57088 0.43376 0.41618 0.0
C152 C 0.6724 0.41021 0.35554 0.0
N153 N 0.66459 0.40574 0.37719 0.0
N154 N 0.65362 0.42358 0.38553 0.0
C155 C 0.65478 0.44034 0.36926 0.0
C156 C 0.66656 0.43226 0.34958 0.0
C157 C 0.68852 0.39496 0.34251 0.0
H158 H 0.70385 0.39186 0.35341 0.0
H159 H 0.68013 0.37843 0.33914 0.0
H160 H 0.69397 0.40226 0.32554 0.0
O161 O 0.69367 0.39588 0.42207 0.0
O162 O 0.67296 0.42347 0.43835 0.0
H163 H 0.65788 0.47183 0.3875 0.0
H164 H 0.64838 0.47462 0.35743 0.0
C165 C 0.64713 0.46421 0.37358 0.0
H166 H 0.62932 0.46417 0.38005 0.0
H167 H 0.64988 0.47002 0.43932 0.0
O168 O 0.69238 0.35919 0.38101 0.0
C169 C 0.69126 0.41171 0.43713 0.0
Co170 Co 0.10019 0.66455 0.39384 0.0
Co171 Co 0.05816 0.64129 0.41803 0.0
C172 C 0.10697 0.62333 0.42196 0.0
O173 O 0.11465 0.63804 0.40789 0.0
O174 O 0.08601 0.62322 0.4276 0.0
C175 C 0.1397 0.66808 0.36552 0.0
O176 O 0.13753 0.64587 0.36476 0.0
C177 C 0.03236 0.60038 0.43216 0.0
C178 C 0.00246 0.61524 0.44987 0.0
C179 C 0.01342 0.5947 0.44567 0.0
N180 N 0.03259 0.62312 0.4288 0.0
N181 N 0.01437 0.63178 0.43911 0.0
C182 C 0.0517 0.58506 0.42548 0.0
H183 H 0.06068 0.59194 0.40994 0.0
H184 H 0.04581 0.56765 0.42149 0.0
H185 H 0.06385 0.58401 0.44034 0.0
C186 C 0.07017 0.66534 0.35349 0.0
N187 N 0.07512 0.65712 0.37488 0.0
N188 N 0.05657 0.64903 0.38476 0.0
C189 C 0.03893 0.65274 0.36991 0.0
C190 C 0.04704 0.66301 0.34944 0.0
C191 C 0.08643 0.67924 0.33929 0.0
H192 H 0.09147 0.69449 0.34947 0.0
H193 H 0.10191 0.66904 0.33563 0.0
H194 H 0.07898 0.68483 0.3224 0.0
O195 O 0.08992 0.68573 0.41884 0.0
O196 O 0.05961 0.67052 0.43614 0.0
H197 H 0.01016 0.66197 0.39067 0.0
H198 H 0.00311 0.65237 0.36138 0.0
C199 C 0.01455 0.64966 0.3766 0.0
H200 H 0.0121 0.63232 0.38376 0.0
H201 H 0.01084 0.64915 0.44008 0.0
O202 O 0.12472 0.67983 0.37618 0.0
C203 C 0.07403 0.68664 0.43407 0.0
Co204 Co 0.80952 0.10006 0.39638 0.0
Co205 Co 0.83454 0.05795 0.41859 0.0
C206 C 0.85198 0.10675 0.42292 0.0
O207 O 0.83628 0.11437 0.40988 0.0
O208 O 0.85303 0.08566 0.42783 0.0
C209 C 0.8049 0.13911 0.3678 0.0
O210 O 0.82709 0.13671 0.36616 0.0
C211 C 0.87563 0.03129 0.43093 0.0
C212 C 0.86083 0.0023 0.44996 0.0
C213 C 0.88143 0.01259 0.44473 0.0
N214 N 0.85276 0.03209 0.4285 0.0
N215 N 0.84412 0.01437 0.43953 0.0
C216 C 0.89113 0.04989 0.42301 0.0
H217 H 0.89533 0.06093 0.43817 0.0
H218 H 0.88285 0.0602 0.40914 0.0
H219 H 0.90724 0.04289 0.41598 0.0
C220 C 0.80828 0.07075 0.35523 0.0
N221 N 0.81653 0.07528 0.37672 0.0
N222 N 0.82596 0.05686 0.38561 0.0
C223 C 0.82339 0.03973 0.36991 0.0
C224 C 0.81232 0.0481 0.34997 0.0
C225 C 0.79325 0.08678 0.34186 0.0
H226 H 0.80321 0.10198 0.33687 0.0
H227 H 0.78613 0.07902 0.32576 0.0
H228 H 0.77893 0.09232 0.35319 0.0
O229 O 0.78958 0.08984 0.42211 0.0
O230 O 0.80568 0.05904 0.43765 0.0
H231 H 0.81758 0.00928 0.38918 0.0
H232 H 0.82684 0.00464 0.35926 0.0
C233 C 0.82896 0.01546 0.37505 0.0
H234 H 0.84671 0.0142 0.38158 0.0
H235 H 0.82671 0.01139 0.44133 0.0
O236 O 0.79355 0.12459 0.37937 0.0
C237 C 0.78952 0.07363 0.43692 0.0
Co238 Co 0.3827 0.80043 0.40128 0.0
Co239 Co 0.42079 0.83401 0.41996 0.0
C240 C 0.37011 0.84364 0.42528 0.0
O241 O 0.36505 0.82491 0.41566 0.0
O242 O 0.39083 0.84965 0.42734 0.0
C243 C 0.34298 0.78984 0.37549 0.0
O244 O 0.34147 0.8121 0.37455 0.0
C245 C 0.44282 0.87583 0.43949 0.0
C246 C 0.47941 0.86841 0.4358 0.0
C247 C 0.46434 0.88485 0.44383 0.0
N248 N 0.44505 0.85543 0.42872 0.0
N249 N 0.46709 0.85109 0.42689 0.0
C250 C 0.42071 0.88485 0.4486 0.0
H251 H 0.41135 0.87102 0.45753 0.0
H252 H 0.41043 0.89118 0.43367 0.0
H253 H 0.42306 0.89872 0.46152 0.0
C254 C 0.40897 0.80271 0.3584 0.0
N255 N 0.40492 0.8107 0.3801 0.0
N256 N 0.42192 0.82371 0.38704 0.0
C257 C 0.43746 0.82417 0.36936 0.0
C258 C 0.42962 0.81094 0.35066 0.0
C259 C 0.39494 0.78466 0.3468 0.0
H260 H 0.39265 0.77021 0.35901 0.0
H261 H 0.37797 0.79176 0.34245 0.0
H262 H 0.40284 0.77815 0.33048 0.0
O263 O 0.39778 0.78275 0.42579 0.0
O264 O 0.42338 0.80638 0.44118 0.0
H265 H 0.47215 0.8246 0.38012 0.0
H266 H 0.46683 0.83886 0.35279 0.0
C267 C 0.45999 0.83572 0.37063 0.0
H268 H 0.45832 0.85205 0.38021 0.0
H269 H 0.4738 0.83597 0.42024 0.0
O270 O 0.35991 0.78077 0.38577 0.0
C271 C 0.41331 0.78714 0.44063 0.0
Co272 Co 0.31016 0.87799 0.89272 0.0
Co273 Co 0.33483 0.91915 0.91707 0.0
C274 C 0.35145 0.86973 0.92024 0.0
O275 O 0.33632 0.86242 0.90635 0.0
O276 O 0.35221 0.89068 0.92582 0.0
C277 C 0.30281 0.83781 0.86553 0.0
O278 O 0.32506 0.83599 0.86685 0.0
C279 C 0.37667 0.94271 0.93197 0.0
C280 C 0.36369 0.97471 0.94706 0.0
C281 C 0.38345 0.96194 0.94445 0.0
N282 N 0.35404 0.94385 0.92797 0.0
N283 N 0.34647 0.96321 0.93686 0.0
C284 C 0.39153 0.92379 0.9233 0.0
H285 H 0.38431 0.91642 0.90701 0.0
H286 H 0.40904 0.92996 0.91983 0.0
H287 H 0.39238 0.91023 0.93676 0.0
C288 C 0.31031 0.90809 0.85257 0.0
N289 N 0.31834 0.90292 0.87397 0.0
N290 N 0.32677 0.92127 0.88395 0.0
C291 C 0.32337 0.939 0.86918 0.0
C292 C 0.31287 0.93115 0.84871 0.0
C293 C 0.29695 0.89197 0.83765 0.0
H294 H 0.30648 0.87578 0.8358 0.0
H295 H 0.29368 0.89903 0.81993 0.0
H296 H 0.2804 0.88839 0.84624 0.0
O297 O 0.28973 0.88871 0.91816 0.0
O298 O 0.30588 0.91837 0.93568 0.0
H299 H 0.31451 0.96778 0.89008 0.0
H300 H 0.32426 0.97478 0.86086 0.0
C301 C 0.32679 0.96326 0.87603 0.0
H302 H 0.34418 0.96543 0.88325 0.0
H303 H 0.32939 0.96813 0.93687 0.0
O304 O 0.29298 0.85489 0.87478 0.0
C305 C 0.2894 0.90438 0.93363 0.0
Co306 Co 0.59775 0.30704 0.89419 0.0
Co307 Co 0.55757 0.33455 0.91735 0.0
C308 C 0.60737 0.34896 0.92079 0.0
O309 O 0.61402 0.33279 0.90776 0.0
O310 O 0.58639 0.35126 0.92594 0.0
C311 C 0.63546 0.29798 0.8636 0.0
O312 O 0.63387 0.3197 0.85852 0.0
C313 C 0.53335 0.37684 0.93131 0.0
C314 C 0.50208 0.36332 0.94742 0.0
C315 C 0.51409 0.38331 0.94401 0.0
N316 N 0.53274 0.35415 0.92762 0.0
N317 N 0.51375 0.34632 0.93698 0.0
C318 C 0.55355 0.39127 0.92569 0.0
H319 H 0.56559 0.39073 0.94065 0.0
H320 H 0.56229 0.38465 0.90984 0.0
H321 H 0.54869 0.40922 0.92275 0.0
C322 C 0.56782 0.30766 0.85354 0.0
N323 N 0.57332 0.31577 0.87484 0.0
N324 N 0.55551 0.32594 0.8843 0.0
C325 C 0.53784 0.324 0.86913 0.0
C326 C 0.54518 0.31249 0.84902 0.0
C327 C 0.58286 0.29221 0.83943 0.0
H328 H 0.59836 0.30157 0.8342 0.0
H329 H 0.57436 0.28597 0.82331 0.0
H330 H 0.58799 0.27742 0.85025 0.0
O331 O 0.58578 0.28725 0.91922 0.0
O332 O 0.55741 0.30595 0.93665 0.0
H333 H 0.5078 0.31895 0.88942 0.0
H334 H 0.50248 0.32837 0.8597 0.0
C335 C 0.51385 0.33018 0.87513 0.0
H336 H 0.51325 0.34792 0.88172 0.0
H337 H 0.5094 0.32914 0.93747 0.0
O338 O 0.62115 0.28912 0.87753 0.0
C339 C 0.57014 0.2884 0.93464 0.0
Co340 Co 0.17076 0.59879 0.8946 0.0
Co341 Co 0.14447 0.5581 0.91794 0.0
C342 C 0.12955 0.60763 0.92275 0.0
O343 O 0.1453 0.61458 0.90945 0.0
O344 O 0.12763 0.5866 0.92751 0.0
C345 C 0.17624 0.6379 0.86622 0.0
O346 O 0.15392 0.63676 0.86546 0.0
C347 C 0.1024 0.5348 0.93259 0.0
C348 C 0.11509 0.5024 0.94689 0.0
C349 C 0.09546 0.51543 0.9447 0.0
N350 N 0.12499 0.53347 0.92843 0.0
N351 N 0.13238 0.51387 0.93684 0.0
C352 C 0.08773 0.55405 0.92439 0.0
H353 H 0.08707 0.56736 0.93816 0.0
H354 H 0.095 0.56164 0.90825 0.0
H355 H 0.07015 0.54814 0.92081 0.0
C356 C 0.16915 0.56966 0.85356 0.0
N357 N 0.16158 0.57463 0.87521 0.0
N358 N 0.15211 0.55654 0.88464 0.0
C359 C 0.15409 0.53916 0.86912 0.0
C360 C 0.16477 0.54702 0.84877 0.0
C361 C 0.18413 0.58514 0.83959 0.0
H362 H 0.19941 0.58953 0.85006 0.0
H363 H 0.17471 0.60103 0.83565 0.0
H364 H 0.18977 0.5774 0.82285 0.0
O365 O 0.19156 0.58667 0.91884 0.0
O366 O 0.1737 0.55793 0.93631 0.0
H367 H 0.16061 0.50887 0.8885 0.0
H368 H 0.15 0.50398 0.85913 0.0
C369 C 0.14863 0.51502 0.87486 0.0
H370 H 0.13118 0.51405 0.88223 0.0
H371 H 0.1494 0.50875 0.93663 0.0
O372 O 0.18728 0.62259 0.87711 0.0
C373 C 0.19104 0.57082 0.93405 0.0
Co374 Co 0.87764 0.16858 0.89708 0.0
Co375 Co 0.91956 0.14282 0.91877 0.0
C376 C 0.87032 0.12591 0.92243 0.0
O377 O 0.86276 0.14163 0.90941 0.0
O378 O 0.89143 0.12482 0.92748 0.0
C379 C 0.8399 0.17721 0.86634 0.0
O380 O 0.84284 0.15598 0.85981 0.0
C381 C 0.94434 0.10089 0.93144 0.0
C382 C 0.97567 0.11396 0.94773 0.0
C383 C 0.96353 0.09406 0.94405 0.0
N384 N 0.94487 0.12364 0.92845 0.0
N385 N 0.96387 0.13126 0.938 0.0
C386 C 0.92603 0.086 0.92172 0.0
H387 H 0.9184 0.09393 0.90591 0.0
H388 H 0.93294 0.06897 0.9172 0.0
H389 H 0.91247 0.08388 0.93502 0.0
C390 C 0.90729 0.17056 0.85593 0.0
N391 N 0.90253 0.16202 0.87724 0.0
N392 N 0.92077 0.15198 0.88592 0.0
C393 C 0.93792 0.15427 0.87019 0.0
C394 C 0.9298 0.16591 0.85052 0.0
C395 C 0.89173 0.18619 0.84271 0.0
H396 H 0.87721 0.1763 0.83573 0.0
H397 H 0.90037 0.19461 0.82781 0.0
H398 H 0.88507 0.19951 0.85466 0.0
O399 O 0.88813 0.18746 0.92348 0.0
O400 O 0.91909 0.17125 0.93855 0.0
H401 H 0.96882 0.15876 0.88921 0.0
H402 H 0.97279 0.14957 0.85917 0.0
C403 C 0.96205 0.14774 0.87505 0.0
H404 H 0.9627 0.12993 0.8814 0.0
H405 H 0.96824 0.14842 0.93893 0.0
O406 O 0.85335 0.18595 0.88125 0.0
C407 C 0.90441 0.18734 0.93824 0.0
Co408 Co 0.31076 0.60011 0.61451 0.0
Co409 Co 0.33545 0.55832 0.591 0.0
C410 C 0.35273 0.60727 0.58746 0.0
O411 O 0.33732 0.61494 0.60087 0.0
O412 O 0.35347 0.58624 0.58217 0.0
C413 C 0.30535 0.63939 0.64317 0.0
O414 O 0.32768 0.6384 0.64384 0.0
C415 C 0.3767 0.5325 0.577 0.0
C416 C 0.36196 0.50254 0.5595 0.0
C417 C 0.38247 0.51349 0.56357 0.0
N418 N 0.35393 0.53278 0.58041 0.0
N419 N 0.34535 0.51453 0.57024 0.0
C420 C 0.39196 0.55181 0.58359 0.0
H421 H 0.39302 0.56382 0.56866 0.0
H422 H 0.38502 0.5609 0.59908 0.0
H423 H 0.4094 0.54589 0.58764 0.0
C424 C 0.31019 0.57024 0.65506 0.0
N425 N 0.3183 0.57512 0.63361 0.0
N426 N 0.32727 0.55674 0.62408 0.0
C427 C 0.32443 0.53929 0.63929 0.0
C428 C 0.31372 0.54736 0.65958 0.0
C429 C 0.2955 0.58621 0.66895 0.0
H430 H 0.28055 0.59125 0.65827 0.0
H431 H 0.30536 0.6017 0.6732 0.0
H432 H 0.28931 0.5786 0.6855 0.0
O433 O 0.29025 0.58966 0.5892 0.0
O434 O 0.30644 0.55955 0.57234 0.0
H435 H 0.31732 0.5095 0.61929 0.0
H436 H 0.32718 0.50386 0.64881 0.0
C437 C 0.32921 0.51502 0.63328 0.0
H438 H 0.34676 0.51345 0.62626 0.0
H439 H 0.32797 0.511 0.56934 0.0
O440 O 0.29445 0.62411 0.63215 0.0
C441 C 0.28998 0.57373 0.57401 0.0
Co442 Co 0.87727 0.30939 0.61103 0.0
Co443 Co 0.91952 0.33403 0.58907 0.0
C444 C 0.87048 0.35222 0.5864 0.0
O445 O 0.86265 0.33719 0.60004 0.0
O446 O 0.89135 0.35206 0.58039 0.0
C447 C 0.83967 0.30044 0.642 0.0
O448 O 0.84253 0.32153 0.64896 0.0
C449 C 0.94477 0.37572 0.57587 0.0
C450 C 0.97569 0.36151 0.55949 0.0
C451 C 0.96407 0.38179 0.56312 0.0
N452 N 0.94496 0.35299 0.57936 0.0
N453 N 0.96378 0.34474 0.56986 0.0
C454 C 0.92485 0.39064 0.58166 0.0
H455 H 0.91276 0.39051 0.56672 0.0
H456 H 0.91604 0.38417 0.59749 0.0
H457 H 0.93006 0.40844 0.58476 0.0
C458 C 0.90728 0.30619 0.65186 0.0
N459 N 0.90249 0.31498 0.63066 0.0
N460 N 0.92081 0.32469 0.62189 0.0
C461 C 0.93804 0.32191 0.63746 0.0
C462 C 0.92989 0.31034 0.65713 0.0
C463 C 0.8916 0.29074 0.66505 0.0
H464 H 0.88463 0.27773 0.653 0.0
H465 H 0.87732 0.30087 0.67231 0.0
H466 H 0.90025 0.28192 0.67972 0.0
O467 O 0.88722 0.29068 0.58401 0.0
O468 O 0.9189 0.30568 0.5694 0.0
H469 H 0.96878 0.31673 0.6183 0.0
H470 H 0.97303 0.32595 0.64828 0.0
C471 C 0.96223 0.32794 0.63245 0.0
H472 H 0.9631 0.34571 0.62602 0.0
H473 H 0.96778 0.32746 0.56913 0.0
O474 O 0.85303 0.292 0.62677 0.0
C475 C 0.90368 0.2902 0.56944 0.0
Co476 Co 0.16565 0.87695 0.61456 0.0
Co477 Co 0.14171 0.91856 0.59019 0.0
C478 C 0.12436 0.8694 0.58702 0.0
O479 O 0.13912 0.86191 0.60125 0.0
O480 O 0.12407 0.8903 0.5812 0.0
C481 C 0.17336 0.83625 0.64099 0.0
O482 O 0.15126 0.83371 0.63875 0.0
C483 C 0.10042 0.94401 0.57593 0.0
C484 C 0.115 0.97409 0.55857 0.0
C485 C 0.09457 0.963 0.56259 0.0
N486 N 0.12318 0.94388 0.57939 0.0
N487 N 0.13167 0.96219 0.56929 0.0
C488 C 0.08529 0.92457 0.58235 0.0
H489 H 0.08475 0.91235 0.56753 0.0
H490 H 0.09205 0.91575 0.59807 0.0
H491 H 0.06767 0.93028 0.58592 0.0
C492 C 0.16606 0.9073 0.6547 0.0
N493 N 0.15803 0.9022 0.63327 0.0
N494 N 0.14982 0.92063 0.62325 0.0
C495 C 0.1534 0.93837 0.63797 0.0
C496 C 0.16367 0.93043 0.65855 0.0
C497 C 0.1796 0.89108 0.6694 0.0
H498 H 0.19599 0.88732 0.66052 0.0
H499 H 0.17005 0.87497 0.67133 0.0
H500 H 0.1832 0.89807 0.68706 0.0
O501 O 0.18588 0.88681 0.58867 0.0
O502 O 0.17061 0.91725 0.57167 0.0
H503 H 0.16232 0.96686 0.61686 0.0
H504 H 0.153 0.97423 0.64619 0.0
C505 C 0.15017 0.96265 0.63109 0.0
H506 H 0.13272 0.96509 0.62409 0.0
H507 H 0.14902 0.96583 0.56846 0.0
O508 O 0.18284 0.85379 0.6325 0.0
C509 C 0.18657 0.90253 0.57332 0.0
Co510 Co 0.5999 0.16949 0.61228 0.0
Co511 Co 0.55841 0.14463 0.58894 0.0
C512 C 0.60753 0.12689 0.58661 0.0
O513 O 0.61489 0.14242 0.60001 0.0
O514 O 0.58656 0.12616 0.58092 0.0
C515 C 0.63738 0.17797 0.64367 0.0
O516 O 0.63506 0.15656 0.64969 0.0
C517 C 0.53224 0.10335 0.5765 0.0
C518 C 0.50445 0.11783 0.55523 0.0
C519 C 0.51434 0.09733 0.5617 0.0
N520 N 0.533 0.12624 0.57832 0.0
N521 N 0.51596 0.13469 0.56594 0.0
C522 C 0.5502 0.08786 0.58609 0.0
H523 H 0.56125 0.08186 0.57157 0.0
H524 H 0.56062 0.09677 0.59942 0.0
H525 H 0.54238 0.07276 0.59433 0.0
C526 C 0.56903 0.17177 0.65238 0.0
N527 N 0.57442 0.1631 0.63126 0.0
N528 N 0.55629 0.15369 0.62174 0.0
C529 C 0.53855 0.15668 0.63664 0.0
C530 C 0.54616 0.16801 0.65672 0.0
C531 C 0.58447 0.18692 0.66626 0.0
H532 H 0.59094 0.20071 0.65487 0.0
H533 H 0.59915 0.17682 0.67267 0.0
H534 H 0.57582 0.19468 0.68158 0.0
O535 O 0.59031 0.18876 0.58578 0.0
O536 O 0.55982 0.17309 0.5694 0.0
H537 H 0.50903 0.16248 0.6157 0.0
H538 H 0.50292 0.15419 0.64562 0.0
C539 C 0.51443 0.15143 0.63045 0.0
H540 H 0.51325 0.13354 0.62438 0.0
H541 H 0.51318 0.15205 0.56341 0.0
O542 O 0.62371 0.18669 0.62893 0.0
C543 C 0.57456 0.18898 0.57043 0.0
H544 H 0.70378 0.0221 0.15665 0.0
H545 H 0.72867 0.01314 0.18998 0.0
H546 H 0.67818 0.04006 0.2374 0.0
H547 H 0.65353 0.04926 0.20406 0.0
H548 H 0.7192 0.06086 0.24223 0.0
H549 H 0.73218 0.96749 0.24384 0.0
H550 H 0.73692 0.98025 0.2157 0.0
H551 H 0.70888 0.98075 0.22829 0.0
C552 C 0.6976 0.02507 0.17428 0.0
C553 C 0.67655 0.03597 0.17783 0.0
C554 C 0.71189 0.02005 0.19336 0.0
C555 C 0.70535 0.02579 0.21636 0.0
C556 C 0.68364 0.03534 0.21993 0.0
H557 H 0.77575 0.01956 0.35134 0.0
H558 H 0.75045 0.0107 0.31822 0.0
C559 C 0.66942 0.04037 0.20089 0.0
C560 C 0.72206 0.02484 0.23617 0.0
H561 H 0.75753 -0.01032 0.26731 0.0
C562 C 0.72742 0.04523 0.24776 0.0
C563 C 0.73289 0.00449 0.24351 0.0
C564 C 0.72732 0.98194 0.23236 0.0
C565 C 0.7434 0.04591 0.26609 0.0
C566 C 0.75463 0.02571 0.27306 0.0
C567 C 0.74908 0.00519 0.26183 0.0
C568 C 0.77209 0.02608 0.29206 0.0
C569 C 0.7482 0.06833 0.27797 0.0
C570 C 0.79317 0.03665 0.28824 0.0
C571 C 0.80767 0.04152 0.30708 0.0
C572 C 0.80143 0.03586 0.33011 0.0
C573 C 0.78121 0.02364 0.33372 0.0
C574 C 0.76666 0.01875 0.31482 0.0
H575 H 0.73546 0.08156 0.27328 0.0
H576 H 0.74831 0.06626 0.29731 0.0
H577 H 0.76527 0.07444 0.27261 0.0
H578 H 0.79772 0.0425 0.27088 0.0
H579 H 0.82292 0.05135 0.30389 0.0
H580 H 0.41979 0.82063 0.30538 0.0
H581 H 0.42887 0.79666 0.27144 0.0
H582 H 0.47324 0.75583 0.31444 0.0
H583 H 0.4642 0.77995 0.34846 0.0
H584 H 0.48739 0.76355 0.26277 0.0
H585 H 0.39982 0.73074 0.27705 0.0
H586 H 0.40256 0.76111 0.27506 0.0
H587 H 0.41515 0.74626 0.29928 0.0
C588 C 0.43237 0.80725 0.30729 0.0
C589 C 0.44157 0.80236 0.32945 0.0
C590 C 0.43734 0.79338 0.28795 0.0
C591 C 0.45153 0.77426 0.29042 0.0
C592 C 0.46231 0.77051 0.31208 0.0
H593 H 0.43505 0.65311 0.20453 0.0
H594 H 0.44389 0.67872 0.23719 0.0
C595 C 0.45732 0.78443 0.33147 0.0
C596 C 0.45247 0.75669 0.27152 0.0
H597 H 0.41953 0.71698 0.24402 0.0
C598 C 0.47261 0.75331 0.25866 0.0
C599 C 0.43329 0.74305 0.26639 0.0
C600 C 0.41149 0.74524 0.28022 0.0
C601 C 0.47384 0.73701 0.24047 0.0
C602 C 0.4544 0.72383 0.23491 0.0
C603 C 0.43447 0.727 0.24816 0.0
C604 C 0.45387 0.70695 0.21523 0.0
C605 C 0.49603 0.73385 0.22759 0.0
C606 C 0.45736 0.71383 0.1919 0.0
C607 C 0.45261 0.699 0.17321 0.0
C608 C 0.44421 0.67706 0.17749 0.0
C609 C 0.44206 0.66971 0.20077 0.0
C610 C 0.44686 0.68447 0.21944 0.0
H611 H 0.51067 0.74012 0.23804 0.0
H612 H 0.49897 0.71569 0.22317 0.0
H613 H 0.49545 0.74365 0.21101 0.0
H614 H 0.46223 0.73115 0.18804 0.0
H615 H 0.45375 0.70531 0.15543 0.0
H616 H 0.70273 0.46116 0.34975 0.0
H617 H 0.72707 0.4699 0.31598 0.0
H618 H 0.6787 0.43749 0.2701 0.0
H619 H 0.6546 0.42857 0.30389 0.0
H620 H 0.72128 0.41876 0.26703 0.0
H621 H 0.72783 0.51244 0.25912 0.0
H622 H 0.73294 0.50173 0.28812 0.0
H623 H 0.70521 0.49876 0.2752 0.0
C624 C 0.69679 0.45698 0.3323 0.0
C625 C 0.67655 0.44463 0.32936 0.0
C626 C 0.71078 0.46184 0.31297 0.0
C627 C 0.70476 0.45446 0.29034 0.0
C628 C 0.68374 0.44349 0.28729 0.0
H629 H 0.77526 0.45705 0.15544 0.0
H630 H 0.74941 0.46625 0.18805 0.0
C631 C 0.66979 0.43864 0.30657 0.0
C632 C 0.72155 0.45519 0.27059 0.0
H633 H 0.75471 0.49043 0.23722 0.0
C634 C 0.72844 0.43448 0.26047 0.0
C635 C 0.731 0.47566 0.26191 0.0
C636 C 0.72376 0.49845 0.27147 0.0
C637 C 0.7446 0.43363 0.2423 0.0
C638 C 0.75444 0.454 0.23398 0.0
C639 C 0.74735 0.4748 0.24374 0.0
C640 C 0.77195 0.45354 0.21501 0.0
C641 C 0.75104 0.41084 0.23201 0.0
C642 C 0.79366 0.44441 0.21938 0.0
C643 C 0.80849 0.43938 0.20081 0.0
C644 C 0.80192 0.44342 0.17751 0.0
C645 C 0.78095 0.45424 0.17326 0.0
C646 C 0.7661 0.45932 0.19188 0.0
H647 H 0.73917 0.39719 0.2375 0.0
H648 H 0.75125 0.41167 0.21257 0.0
H649 H 0.76843 0.40615 0.23793 0.0
H650 H 0.79856 0.43979 0.23705 0.0
H651 H 0.82433 0.43062 0.20453 0.0
H652 H 0.04337 0.65267 0.30315 0.0
H653 H 0.0341 0.67929 0.27139 0.0
H654 H 0.01593 0.73027 0.32242 0.0
H655 H 0.02507 0.70356 0.35417 0.0
H656 H -0.00673 0.71041 0.26002 0.0
H657 H 0.07357 0.75429 0.28473 0.0
H658 H 0.06749 0.72554 0.29372 0.0
H659 H 0.0534 0.74895 0.30779 0.0
C660 C 0.03639 0.6692 0.30752 0.0
C661 C 0.03453 0.67592 0.33109 0.0
C662 C 0.03129 0.68449 0.28938 0.0
C663 C 0.02451 0.70688 0.29448 0.0
C664 C 0.02117 0.71312 0.31803 0.0
H665 H 0.03719 0.82695 0.2051 0.0
H666 H 0.02724 0.80207 0.23802 0.0
C667 C 0.02612 0.69777 0.33618 0.0
C668 C 0.0236 0.72427 0.27544 0.0
H669 H 0.05316 0.76921 0.25299 0.0
C670 C 0.00626 0.72338 0.25853 0.0
C671 C 0.04055 0.74121 0.27346 0.0
C672 C 0.05994 0.74262 0.29074 0.0
C673 C 0.00535 0.73903 0.23979 0.0
C674 C 0.02263 0.75569 0.23748 0.0
C675 C 0.03979 0.75665 0.25465 0.0
C676 C 0.02414 0.77158 0.21696 0.0
C677 C 0.98566 0.7377 0.2229 0.0
C678 C 0.02498 0.76311 0.19389 0.0
C679 C 0.03014 0.77749 0.17503 0.0
C680 C 0.0348 0.80062 0.17879 0.0
C681 C 0.03298 0.80935 0.20162 0.0
C682 C 0.0276 0.79502 0.22048 0.0
H683 H 0.97042 0.73016 0.23135 0.0
H684 H 0.98103 0.75474 0.216 0.0
H685 H -0.00954 0.72661 0.20795 0.0
H686 H 0.02313 0.7451 0.19056 0.0
H687 H 0.03225 0.77018 0.15773 0.0
H688 H 0.26825 0.94277 0.85038 0.0
H689 H 0.24372 0.9514 0.8168 0.0
H690 H 0.30288 0.95517 0.77225 0.0
H691 H 0.32731 0.94566 0.80581 0.0
H692 H 0.23752 0.9835 0.78363 0.0
H693 H 0.26874 0.9042 0.74165 0.0
H694 H 0.27591 0.9117 0.77135 0.0
H695 H 0.29081 0.92448 0.74719 0.0
C696 C 0.27604 0.94629 0.83357 0.0
C697 C 0.29969 0.94385 0.83073 0.0
C698 C 0.262 0.95103 0.81431 0.0
C699 C 0.27129 0.95336 0.79174 0.0
C700 C 0.29516 0.95286 0.7893 0.0
H701 H 0.20529 0.9499 0.65392 0.0
H702 H 0.23162 0.95952 0.68584 0.0
C703 C 0.3092 0.94786 0.80856 0.0
C704 C 0.25591 0.95431 0.77078 0.0
H705 H 0.24249 0.92609 0.72011 0.0
C706 C 0.23872 0.97101 0.7697 0.0
C707 C 0.25714 0.93786 0.7526 0.0
C708 C 0.27397 0.91841 0.75328 0.0
C709 C 0.22294 0.97173 0.75104 0.0
C710 C 0.22426 0.95531 0.73294 0.0
C711 C 0.24161 0.93885 0.73383 0.0
C712 C 0.20717 0.95387 0.71356 0.0
C713 C 0.20499 -0.00991 0.75079 0.0
C714 C 0.18443 0.94812 0.71837 0.0
C715 C 0.16938 0.94267 0.7001 0.0
C716 C 0.1767 0.94306 0.67667 0.0
C717 C 0.19903 0.95011 0.67177 0.0
C718 C 0.21414 0.95536 0.69004 0.0
H719 H 0.20958 0.00452 0.76242 0.0
H720 H 0.2023 -0.00339 0.73274 0.0
H721 H 0.18865 0.98291 0.75705 0.0
H722 H 0.17871 0.94637 0.73631 0.0
H723 H 0.15249 0.93662 0.70437 0.0
H724 H 0.53832 0.32735 0.80451 0.0
H725 H 0.52819 0.30373 0.77065 0.0
H726 H 0.51579 0.24714 0.81685 0.0
H727 H 0.52512 0.27107 0.8506 0.0
H728 H 0.55242 0.26888 0.75746 0.0
H729 H 0.46519 0.23694 0.77167 0.0
H730 H 0.47662 0.26048 0.78817 0.0
H731 H 0.48302 0.23164 0.79657 0.0
C732 C 0.53221 0.31024 0.80745 0.0
C733 C 0.53184 0.30123 0.83021 0.0
C734 C 0.52673 0.29659 0.78807 0.0
C735 C 0.52098 0.27354 0.79099 0.0
C736 C 0.51947 0.26493 0.81393 0.0
H737 H 0.54472 0.15701 0.70285 0.0
H738 H 0.53464 0.18268 0.73524 0.0
C739 C 0.52473 0.27866 0.83332 0.0
C740 C 0.51971 0.25795 0.77019 0.0
H741 H 0.48845 0.2155 0.74456 0.0
C742 C 0.5382 0.25753 0.75451 0.0
C743 C 0.50129 0.24287 0.7662 0.0
C744 C 0.48032 0.24314 0.78142 0.0
C745 C 0.53907 0.24222 0.73557 0.0
C746 C 0.52101 0.22678 0.73201 0.0
C747 C 0.50232 0.22731 0.74734 0.0
C748 C 0.52208 0.20953 0.71285 0.0
C749 C 0.55961 0.24218 0.71969 0.0
C750 C 0.51746 0.2157 0.68954 0.0
C751 C 0.52289 0.20088 0.67103 0.0
C752 C 0.5331 0.17969 0.67554 0.0
C753 C 0.5363 0.17297 0.69894 0.0
C754 C 0.53073 0.18771 0.71743 0.0
H755 H 0.57279 0.25447 0.72547 0.0
H756 H 0.56729 0.22491 0.71912 0.0
H757 H 0.55431 0.2466 0.70159 0.0
H758 H 0.51098 0.23252 0.68559 0.0
H759 H 0.52086 0.20672 0.65316 0.0
H760 H 0.27635 0.52005 0.6566 0.0
H761 H 0.2504 0.51074 0.68901 0.0
H762 H 0.29798 0.53938 0.73822 0.0
H763 H 0.32387 0.54865 0.70591 0.0
H764 H 0.25719 0.48791 0.74016 0.0
H765 H 0.23585 0.58006 0.73529 0.0
H766 H 0.24836 0.56485 0.71095 0.0
H767 H 0.26555 0.57242 0.73571 0.0
C768 C 0.28172 0.52332 0.67444 0.0
C769 C 0.30224 0.53478 0.67881 0.0
C770 C 0.26681 0.51817 0.69294 0.0
C771 C 0.27218 0.52448 0.71605 0.0
C772 C 0.2935 0.53429 0.72057 0.0
H773 H 0.20272 0.52029 0.85052 0.0
H774 H 0.22767 0.51107 0.81731 0.0
C775 C 0.30838 0.53939 0.70213 0.0
C776 C 0.25446 0.524 0.73478 0.0
H777 H 0.21874 0.55902 0.7655 0.0
C778 C 0.24871 0.50341 0.74569 0.0
C779 C 0.24322 0.54418 0.74183 0.0
C780 C 0.24834 0.56668 0.73032 0.0
C781 C 0.23228 0.50261 0.76378 0.0
C782 C 0.2214 0.52294 0.77119 0.0
C783 C 0.22697 0.5434 0.7599 0.0
C784 C 0.20453 0.52381 0.79084 0.0
C785 C 0.22652 0.48001 0.77462 0.0
C786 C 0.18287 0.53343 0.78718 0.0
C787 C 0.16859 0.53857 0.80616 0.0
C788 C 0.17564 0.53423 0.82924 0.0
C789 C 0.19659 0.52319 0.83287 0.0
C790 C 0.21093 0.51804 0.81385 0.0
H791 H 0.23148 0.46562 0.76305 0.0
H792 H 0.23589 0.47819 0.79139 0.0
H793 H 0.20802 0.47884 0.77843 0.0
H794 H 0.17753 0.53817 0.76968 0.0
H795 H 0.15281 0.54761 0.80292 0.0
H796 H 0.92689 0.15386 0.80483 0.0
H797 H 0.93606 0.17778 0.77105 0.0
H798 H 0.96673 0.22704 0.81719 0.0
H799 H 0.95785 0.2028 0.85095 0.0
H800 H 0.91684 0.21919 0.76645 0.0
H801 H 0.01056 0.22869 0.76186 0.0
H802 H -0.00296 0.2062 0.77822 0.0
H803 H -0.00117 0.23435 0.79035 0.0
C804 C 0.93662 0.16924 0.8076 0.0
C805 C 0.94214 0.17622 0.83044 0.0
C806 C 0.94163 0.18307 0.78831 0.0
C807 C 0.95221 0.20428 0.7914 0.0
C808 C 0.95902 0.21061 0.81414 0.0
H809 H 0.92622 0.32117 0.7031 0.0
H810 H 0.93502 0.29619 0.73626 0.0
C811 C 0.95406 0.19668 0.83348 0.0
C812 C 0.95312 0.22083 0.77147 0.0
H813 H 0.98846 0.25481 0.73907 0.0
C814 C 0.93257 0.22681 0.76043 0.0
C815 C 0.97359 0.23088 0.76345 0.0
C816 C -0.0037 0.22458 0.77391 0.0
C817 C 0.93184 0.24263 0.742 0.0
C818 C 0.95218 0.25315 0.73439 0.0
C819 C 0.97285 0.24695 0.74505 0.0
C820 C 0.95181 0.27049 0.71529 0.0
C821 C 0.90923 0.24794 0.73065 0.0
C822 C 0.95945 0.26502 0.69262 0.0
C823 C 0.95464 0.27948 0.67363 0.0
C824 C 0.94221 0.29967 0.67707 0.0
C825 C 0.93624 0.30596 0.70004 0.0
C826 C 0.94105 0.29156 0.71896 0.0
H827 H 0.89596 0.23536 0.73542 0.0
H828 H 0.90335 0.26499 0.73645 0.0
H829 H 0.91093 0.24829 0.71127 0.0
H830 H 0.96768 0.24882 0.68933 0.0
H831 H 0.95894 0.27397 0.65606 0.0
H832 H 0.41467 0.93228 0.96398 0.0
H833 H 0.45039 0.94139 0.9836 0.0
H834 H 0.43852 0.0127 0.97128 0.0
H835 H 0.4027 0.00365 0.95134 0.0
H836 H 0.48919 0.96334 0.96831 0.0
H837 H 0.44975 0.01143 0.04152 0.0
H838 H 0.43332 -0.00591 0.0217 0.0
H839 H 0.44234 0.02202 0.01303 0.0
C840 C 0.41983 0.94988 0.96482 0.0
C841 C 0.40594 0.96719 0.95548 0.0
C842 C 0.44024 0.95509 0.97638 0.0
C843 C 0.44716 0.97776 0.97923 0.0
C844 C 0.43343 -0.00491 0.96975 0.0
H845 H 0.56436 0.04371 0.04309 0.0
H846 H 0.52868 0.03434 0.02356 0.0
C847 C 0.413 -0.01012 0.9582 0.0
C848 C 0.46871 0.98316 0.99206 0.0
H849 H 0.49005 0.01228 0.03913 0.0
C850 C 0.48934 0.97396 0.98385 0.0
C851 C 0.46903 -0.00299 0.0124 0.0
C852 C 0.44742 0.00655 0.02286 0.0
C853 C 0.51021 0.97859 0.99505 0.0
C854 C 0.51053 -0.00753 0.01537 0.0
C855 C 0.4899 0.00164 0.02359 0.0
C856 C 0.53209 -0.002 0.02812 0.0
C857 C 0.53182 0.96905 0.98461 0.0
C858 C 0.54592 0.98078 0.03766 0.0
C859 C 0.56634 0.98616 0.04918 0.0
C860 C 0.57328 0.0089 0.05179 0.0
C861 C 0.55929 0.02609 0.04235 0.0
C862 C 0.53891 0.02072 0.03084 0.0
H863 H 0.52947 0.96406 0.96598 0.0
H864 H 0.54589 0.98157 0.98566 0.0
H865 H 0.53697 0.95366 0.99452 0.0
H866 H 0.54092 0.96314 0.03623 0.0
H867 H 0.57672 0.97248 0.05609 0.0
H868 H 0.50227 0.39038 0.98954 0.0
H869 H 0.49398 0.42648 0.00932 0.0
H870 H 0.50593 0.46244 0.94474 0.0
H871 H 0.51347 0.42626 0.92472 0.0
H872 H 0.52167 0.46415 0.01551 0.0
H873 H 0.44445 0.48779 0.96509 0.0
H874 H 0.45656 0.45957 0.96421 0.0
H875 H 0.469 0.48208 0.94727 0.0
C876 C 0.50303 0.40598 0.97953 0.0
C877 C 0.509 0.40547 0.95566 0.0
C878 C 0.49837 0.42664 0.99088 0.0
C879 C 0.49918 0.44728 0.97857 0.0
C880 C 0.50495 0.44679 0.95464 0.0
H881 H 0.47698 0.58933 0.01696 0.0
H882 H 0.48567 0.55337 0.99712 0.0
C883 C 0.50966 0.42611 0.94327 0.0
C884 C 0.49436 0.46923 0.99092 0.0
H885 H 0.45912 0.51568 0.991 0.0
C886 C 0.50793 0.47537 0.0102 0.0
C887 C 0.47645 0.48396 0.98404 0.0
C888 C 0.46062 0.47799 0.96417 0.0
C889 C 0.50438 0.49591 0.02244 0.0
C890 C 0.48643 0.51062 0.0156 0.0
C891 C 0.47288 0.50448 0.99631 0.0
C892 C 0.48152 0.53253 0.02802 0.0
C893 C 0.52031 0.5019 0.04223 0.0
C894 C 0.47623 0.53298 0.05207 0.0
C895 C 0.47136 0.5536 0.06349 0.0
C896 C 0.47129 0.57421 0.05104 0.0
C897 C 0.47678 0.57375 0.02705 0.0
C898 C 0.48166 0.55317 0.01565 0.0
H899 H 0.53663 0.49237 0.04098 0.0
H900 H 0.52409 0.52038 0.04241 0.0
H901 H 0.5122 0.49742 0.05915 0.0
H902 H 0.47573 0.51734 0.06203 0.0
H903 H 0.46801 0.5534 0.08213 0.0
H904 H 0.06427 0.54506 0.96453 0.0
H905 H 0.02859 0.53589 0.98417 0.0
H906 H 0.04046 0.46462 0.97145 0.0
H907 H 0.07618 0.47373 0.95138 0.0
H908 H -0.01034 0.51333 0.96848 0.0
H909 H 0.02963 0.46641 0.04209 0.0
H910 H 0.04583 0.48397 0.0223 0.0
H911 H 0.03723 0.45591 0.01358 0.0
C912 C 0.05911 0.52747 0.96525 0.0
C913 C 0.07298 0.51018 0.95574 0.0
C914 C 0.03873 0.52222 0.97684 0.0
C915 C 0.03183 0.49954 0.97958 0.0
C916 C 0.04553 0.48224 0.96997 0.0
H917 H 0.9156 0.43338 0.04507 0.0
H918 H 0.95127 0.44276 0.02553 0.0
C919 C 0.06591 0.48748 0.95835 0.0
C920 C 0.01035 0.4941 0.99247 0.0
H921 H 0.98936 0.46547 0.03994 0.0
C922 C 0.98962 0.50294 0.98416 0.0
C923 C 0.01019 0.48052 0.01296 0.0
C924 C 0.03191 0.4713 0.02344 0.0
C925 C 0.9688 0.49823 0.99541 0.0
C926 C 0.96864 0.48468 0.01594 0.0
C927 C 0.98938 0.47586 0.02426 0.0
C928 C 0.94714 0.47916 0.02882 0.0
C929 C 0.94709 0.5073 0.98476 0.0
C930 C 0.93294 0.49643 0.03773 0.0
C931 C 0.9125 0.49107 0.04919 0.0
C932 C 0.90593 0.46831 0.05243 0.0
C933 C 0.92035 0.45106 0.04379 0.0
C934 C 0.94073 0.45642 0.03227 0.0
H935 H 0.94937 0.51174 0.96599 0.0
H936 H 0.9331 0.49474 0.9862 0.0
H937 H 0.94189 0.52297 0.99422 0.0
H938 H 0.93763 0.51411 0.03579 0.0
H939 H 0.90179 0.50478 0.05552 0.0
H940 H 0.93408 0.06188 0.96187 0.0
H941 H 0.94356 0.02629 0.98148 0.0
H942 H 0.01499 0.03977 0.97169 0.0
H943 H 0.00557 0.0755 0.95181 0.0
H944 H 0.96695 0.98807 0.9672 0.0
H945 H 0.01189 0.02856 0.04171 0.0
H946 H -0.0052 0.04461 0.02128 0.0
H947 H 0.02325 0.03601 0.01357 0.0
C948 C 0.9518 0.0571 0.96323 0.0
C949 C 0.96904 0.07146 0.95467 0.0
C950 C 0.95723 0.03676 0.9748 0.0
C951 C 0.98001 0.03035 0.97842 0.0
C952 C -0.00273 0.04447 0.9696 0.0
H953 H 0.04642 0.91433 0.04485 0.0
H954 H 0.03709 0.94973 0.02477 0.0
C955 C -0.00815 0.06485 0.95806 0.0
C956 C 0.9856 0.00896 0.99145 0.0
H957 H 0.01379 0.98834 0.0395 0.0
C958 C 0.97712 0.98817 0.98306 0.0
C959 C -0.00115 0.00896 0.01221 0.0
C960 C 0.00757 0.03073 0.0229 0.0
C961 C 0.98187 0.96746 0.9945 0.0
C962 C -0.00486 0.96747 0.01524 0.0
C963 C 0.00363 0.98825 0.02363 0.0
C964 C 0.00064 0.9461 0.02834 0.0
C965 C 0.97308 0.94568 0.98391 0.0
C966 C 0.98333 0.93228 0.03752 0.0
C967 C 0.98866 0.91204 0.04938 0.0
C968 C 0.01144 0.90528 0.05268 0.0
C969 C 0.02873 0.91927 0.04359 0.0
C970 C 0.0234 0.93948 0.03175 0.0
H971 H 0.96858 0.94784 0.96513 0.0
H972 H 0.98587 0.93183 0.98542 0.0
H973 H 0.95749 0.94039 0.99339 0.0
H974 H 0.96564 0.93713 0.03554 0.0
H975 H 0.9749 0.90167 0.056 0.0
H976 H 0.38905 0.50253 0.51772 0.0
H977 H 0.42488 0.49385 0.49758 0.0
H978 H 0.46151 0.5034 0.56229 0.0
H979 H 0.42558 0.51108 0.58269 0.0
H980 H 0.46257 0.52017 0.49121 0.0
H981 H 0.48634 0.44274 0.5408 0.0
H982 H 0.45833 0.4553 0.54256 0.0
H983 H 0.48154 0.4671 0.55912 0.0
C984 C 0.40474 0.50264 0.5277 0.0
C985 C 0.40448 0.50802 0.55173 0.0
C986 C 0.42525 0.49776 0.51612 0.0
C987 C 0.44602 0.4978 0.52835 0.0
C988 C 0.44577 0.50297 0.55243 0.0
H989 H 0.58814 0.47769 0.48941 0.0
H990 H 0.55197 0.48563 0.50918 0.0
C991 C 0.42522 0.50783 0.56403 0.0
C992 C 0.46785 0.49289 0.51573 0.0
H993 H 0.51446 0.4578 0.51529 0.0
C994 C 0.47384 0.50644 0.49642 0.0
C995 C 0.48267 0.47498 0.52243 0.0
C996 C 0.47684 0.45904 0.54221 0.0
C997 C 0.49431 0.50291 0.48402 0.0
C998 C 0.50916 0.48506 0.49078 0.0
C999 C 0.50316 0.47149 0.51006 0.0
C1000 C 0.53115 0.4804 0.47839 0.0
C1001 C 0.50012 0.51874 0.46414 0.0
C1002 C 0.53166 0.47472 0.45443 0.0
C1003 C 0.55241 0.4702 0.44305 0.0
C1004 C 0.5731 0.47101 0.45543 0.0
C1005 C 0.57253 0.47685 0.47935 0.0
C1006 C 0.55183 0.48131 0.49072 0.0
H1007 H 0.49022 0.53484 0.46511 0.0
H1008 H 0.51855 0.5229 0.46415 0.0
H1009 H 0.49602 0.51034 0.44725 0.0
H1010 H 0.51599 0.47367 0.44452 0.0
H1011 H 0.55223 0.46656 0.42448 0.0
H1012 H 0.96553 0.42478 0.58244 0.0
H1013 H 0.97306 0.46083 0.5623 0.0
H1014 H 0.98404 0.42446 0.49763 0.0
H1015 H 0.97579 0.38855 0.51752 0.0
H1016 H 0.01155 0.47539 0.53849 0.0
H1017 H 0.93806 0.47266 0.47762 0.0
H1018 H 0.94023 0.45432 0.50285 0.0
H1019 H 0.95577 0.44775 0.47653 0.0
C1020 C 0.96898 0.42453 0.56381 0.0
C1021 C 0.96932 0.40384 0.55143 0.0
C1022 C 0.97357 0.44514 0.55235 0.0
C1023 C 0.97859 0.44553 0.52825 0.0
C1024 C 0.97962 0.42478 0.51605 0.0
H1025 H 0.0108 0.55175 0.42631 0.0
H1026 H 0.00327 0.5158 0.44657 0.0
C1027 C 0.97508 0.40421 0.5275 0.0
C1028 C 0.98327 0.46751 0.51598 0.0
H1029 H 0.96562 0.50126 0.47059 0.0
C1030 C 0.00142 0.48109 0.52373 0.0
C1031 C 0.97015 0.47502 0.49662 0.0
C1032 C 0.94983 0.46181 0.488 0.0
C1033 C 0.00706 0.50162 0.51244 0.0
C1034 C -0.00608 0.50915 0.49308 0.0
C1035 C 0.97576 0.49557 0.48535 0.0
C1036 C -0.00136 0.5311 0.48075 0.0
C1037 C 0.02746 0.51475 0.521 0.0
C1038 C -0.00189 0.55186 0.49298 0.0
C1039 C 0.00273 0.57238 0.48147 0.0
C1040 C 0.00805 0.5727 0.45743 0.0
C1041 C 0.00781 0.55204 0.44501 0.0
C1042 C 0.00318 0.53147 0.45655 0.0
H1043 H 0.0393 0.50379 0.53117 0.0
H1044 H 0.03695 0.52238 0.50616 0.0
H1045 H 0.02162 0.52868 0.53269 0.0
H1046 H -0.00599 0.55223 0.51147 0.0
H1047 H 0.00244 0.58803 0.49149 0.0
H1048 H 0.88885 0.00229 0.49056 0.0
H1049 H 0.92505 -0.00586 0.51016 0.0
H1050 H 0.96038 0.00152 0.44443 0.0
H1051 H 0.92415 0.00932 0.42469 0.0
H1052 H 0.95652 0.96002 0.50278 0.0
H1053 H -0.00361 0.04398 0.48707 0.0
H1054 H 0.96637 0.03906 0.4828 0.0
H1055 H 0.98655 0.02997 0.46101 0.0
C1056 C 0.90434 0.00222 0.48026 0.0
C1057 C 0.90364 0.00719 0.45616 0.0
C1058 C 0.92505 -0.00241 0.49152 0.0
C1059 C 0.94562 -0.00225 0.47896 0.0
C1060 C 0.9449 0.00203 0.45472 0.0
H1061 H 0.08769 0.9737 0.51676 0.0
H1062 H 0.05164 0.98182 0.49678 0.0
C1063 C 0.92414 0.00668 0.44344 0.0
C1064 C 0.96764 -0.00704 0.4912 0.0
H1065 H 0.01992 0.01546 0.50369 0.0
C1066 C 0.97034 0.97219 0.50304 0.0
C1067 C 0.98576 0.00879 0.49159 0.0
C1068 C 0.98365 0.03179 0.48013 0.0
C1069 C -0.00931 0.96667 0.51484 0.0
C1070 C 0.0088 0.98252 0.51528 0.0
C1071 C 0.00611 0.00328 0.50341 0.0
C1072 C 0.03074 0.9778 0.52771 0.0
C1073 C -0.0072 0.94363 0.52623 0.0
C1074 C 0.03123 0.97332 0.55192 0.0
C1075 C 0.05188 0.96867 0.56338 0.0
C1076 C 0.07251 0.96836 0.55088 0.0
C1077 C 0.07207 0.97358 0.52684 0.0
C1078 C 0.05145 0.9782 0.51539 0.0
H1079 H 0.98023 0.9314 0.51904 0.0
H1080 H 0.01016 0.93647 0.5238 0.0
H1081 H 0.98958 0.94535 0.54531 0.0
H1082 H 0.01564 0.97366 0.56204 0.0
H1083 H 0.05172 0.96575 0.5821 0.0
H1084 H 0.44352 0.92665 0.43983 0.0
H1085 H 0.45272 0.96183 0.46073 0.0
H1086 H 0.50934 0.92833 0.49422 0.0
H1087 H 0.4998 0.89284 0.47383 0.0
H1088 H 0.45569 0.96847 0.51133 0.0
H1089 H 0.53678 0.98738 0.46525 0.0
H1090 H 0.51586 0.96801 0.45355 0.0
H1091 H 0.53415 0.95917 0.47704 0.0
C1092 C 0.45768 0.92661 0.45197 0.0
C1093 C 0.47049 0.90667 0.45568 0.0
C1094 C 0.46305 0.94683 0.46375 0.0
C1095 C 0.48171 0.94779 0.47911 0.0
C1096 C 0.49494 0.9281 0.48238 0.0
H1097 H 0.50944 0.05531 0.58264 0.0
H1098 H 0.50213 0.01872 0.56338 0.0
C1099 C 0.48945 0.9078 0.47072 0.0
C1100 C 0.48704 0.96932 0.49188 0.0
H1101 H 0.52669 0.01156 0.49671 0.0
C1102 C 0.47125 0.97785 0.50819 0.0
C1103 C 0.50724 0.98171 0.48766 0.0
C1104 C 0.52447 0.97379 0.46981 0.0
C1105 C 0.47516 -0.0017 0.52045 0.0
C1106 C 0.49548 0.01057 0.51641 0.0
C1107 C 0.51121 0.0021 0.49998 0.0
C1108 C 0.50031 0.03267 0.52835 0.0
C1109 C 0.45726 0.00689 0.53724 0.0
C1110 C 0.50205 0.05271 0.51516 0.0
C1111 C 0.50641 0.07358 0.52612 0.0
C1112 C 0.50955 0.0749 0.55053 0.0
C1113 C 0.5078 0.05483 0.56377 0.0
C1114 C 0.50327 0.03393 0.55279 0.0
H1115 H 0.44071 -0.00186 0.53474 0.0
H1116 H 0.46302 0.00381 0.55548 0.0
H1117 H 0.45461 0.02547 0.53508 0.0
H1118 H 0.49983 0.05224 0.49632 0.0
H1119 H 0.50762 0.08871 0.51541 0.0
H1120 H 0.56014 0.28863 0.98167 0.0
H1121 H 0.56297 0.25617 0.00868 0.0
H1122 H 0.57636 0.21156 0.9502 0.0
H1123 H 0.57462 0.2439 0.92351 0.0
H1124 H 0.54281 0.21445 0.01468 0.0
H1125 H 0.63297 0.20291 0.98866 0.0
H1126 H 0.61651 0.22738 0.97996 0.0
H1127 H 0.61402 0.20098 0.96414 0.0
C1128 C 0.56334 0.27182 0.97463 0.0
C1129 C 0.56753 0.26879 0.95059 0.0
C1130 C 0.56498 0.2533 0.99004 0.0
C1131 C 0.57056 0.23152 0.98154 0.0
C1132 C 0.57281 0.22829 0.95728 0.0
H1133 H 0.60379 0.10072 0.04328 0.0
H1134 H 0.58617 0.13029 0.019 0.0
C1135 C 0.57167 0.24676 0.94202 0.0
C1136 C 0.57561 0.21247 0.99789 0.0
H1137 H 0.6169 0.17377 0.01202 0.0
C1138 C 0.55902 0.2056 0.01415 0.0
C1139 C 0.59691 0.20106 0.99743 0.0
C1140 C 0.6162 0.2086 0.9818 0.0
C1141 C 0.56305 0.18733 0.02955 0.0
C1142 C 0.58405 0.17563 0.0285 0.0
C1143 C 0.60064 0.18256 0.01242 0.0
C1144 C 0.59002 0.15696 0.04479 0.0
C1145 C 0.54493 0.18046 0.0468 0.0
C1146 C 0.5975 0.16211 0.06749 0.0
C1147 C 0.60779 0.14536 0.08129 0.0
C1148 C 0.61072 0.12311 0.07264 0.0
C1149 C 0.60171 0.11763 0.05051 0.0
C1150 C 0.59166 0.13451 0.0366 0.0
H1151 H 0.52863 0.18963 0.04379 0.0
H1152 H 0.54187 0.16188 0.04563 0.0
H1153 H 0.55088 0.18419 0.06486 0.0
H1154 H 0.59659 0.17939 0.07401 0.0
H1155 H 0.61448 0.15013 0.09828 0.0
H1156 H 0.23498 0.58055 0.92375 0.0
H1157 H 0.26736 0.58172 0.95041 0.0
H1158 H 0.22465 0.55798 0.00674 0.0
H1159 H 0.19221 0.55595 0.97969 0.0
H1160 H 0.2696 0.60936 0.98645 0.0
H1161 H 0.28141 0.52134 0.01892 0.0
H1162 H 0.264 0.52789 0.99373 0.0
H1163 H 0.253 0.53197 0.02286 0.0
C1164 C 0.23257 0.57512 0.94171 0.0
C1165 C 0.21103 0.56826 0.94967 0.0
C1166 C 0.25112 0.57578 0.95695 0.0
C1167 C 0.24857 0.56986 0.98062 0.0
C1168 C 0.22724 0.56216 0.98847 0.0
H1169 H 0.32747 0.61868 0.09699 0.0
H1170 H 0.29841 0.60117 0.0723 0.0
C1171 C 0.20866 0.56112 0.97304 0.0
C1172 C 0.26757 0.57434 0.99726 0.0
H1173 H 0.30164 0.55058 0.03937 0.0
C1174 C 0.27669 0.59639 0.99782 0.0
C1175 C 0.27685 0.55748 0.01222 0.0
C1176 C 0.26847 0.53329 0.0118 0.0
C1177 C 0.29459 0.60208 0.01294 0.0
C1178 C 0.30358 0.58538 0.0281 0.0
C1179 C 0.29465 0.5633 0.02765 0.0
C1180 C 0.32182 0.59128 0.04491 0.0
C1181 C 0.30372 0.62602 0.01285 0.0
C1182 C 0.34473 0.59081 0.03797 0.0
C1183 C 0.36148 0.60082 0.05206 0.0
C1184 C 0.35548 0.61163 0.0732 0.0
C1185 C 0.33269 0.61064 0.08076 0.0
C1186 C 0.31603 0.60056 0.06674 0.0
H1187 H 0.29504 0.63698 0.99975 0.0
H1188 H 0.30155 0.63375 0.03047 0.0
H1189 H 0.32223 0.62573 0.00891 0.0
H1190 H 0.34945 0.58386 0.02106 0.0
H1191 H 0.37883 0.60134 0.04566 0.0
H1192 H 0.87035 0.21646 0.94988 0.0
H1193 H 0.87168 0.24903 0.97594 0.0
H1194 H 0.94224 0.23501 0.99116 0.0
H1195 H 0.94089 0.20154 0.96518 0.0
H1196 H 0.91892 0.24696 0.03049 0.0
H1197 H 0.89978 0.30955 0.96162 0.0
H1198 H 0.87862 0.2877 0.96142 0.0
H1199 H 0.90785 0.28064 0.95488 0.0
C1200 C 0.88626 0.22023 0.95863 0.0
C1201 C 0.90563 0.20651 0.95516 0.0
C1202 C 0.88701 0.23903 0.97346 0.0
C1203 C 0.90724 0.24497 0.98494 0.0
C1204 C 0.92652 0.23095 0.98219 0.0
H1205 H 0.88506 0.37696 0.05305 0.0
H1206 H 0.90577 0.34801 0.03067 0.0
C1207 C 0.92572 0.21183 0.9674 0.0
C1208 C 0.90754 0.26553 1.00016 0.0
H1209 H 0.88884 0.32048 1.00118 0.0
C1210 C 0.91282 0.26319 0.02402 0.0
C1211 C 0.90034 0.287 0.9917 0.0
C1212 C 0.8966 0.29143 0.96594 0.0
C1213 C 0.90919 0.28116 0.03991 0.0
C1214 C 0.89933 0.30175 0.03182 0.0
C1215 C 0.89595 0.30465 0.00765 0.0
C1216 C 0.89003 0.31939 0.04806 0.0
C1217 C 0.91567 0.27768 0.06522 0.0
C1218 C 0.87456 0.31311 0.06563 0.0
C1219 C 0.86307 0.32959 0.07872 0.0
C1220 C 0.86629 0.35289 0.07426 0.0
C1221 C 0.8823 0.35924 0.05716 0.0
C1222 C 0.89408 0.34265 0.04424 0.0
H1223 H 0.93089 0.26651 0.06665 0.0
H1224 H 0.91933 0.29403 0.07417 0.0
H1225 H 0.90151 0.26907 0.07448 0.0
H1226 H 0.87043 0.29541 0.0685 0.0
H1227 H 0.85081 0.32395 0.09163 0.0
H1228 H 0.2492 0.88183 0.92944 0.0
H1229 H 0.21806 0.88001 0.95745 0.0
H1230 H 0.25322 0.92674 1.00293 0.0
H1231 H 0.2847 0.92889 0.97467 0.0
H1232 H 0.22394 0.86415 1.00302 0.0
H1233 H 0.1867 0.95119 1.00228 0.0
H1234 H 0.2046 0.94059 0.97891 0.0
H1235 H 0.21704 0.94926 0.0062 0.0
C1236 C 0.25032 0.89199 0.94524 0.0
C1237 C 0.26962 0.90539 0.94985 0.0
C1238 C 0.23241 0.89094 0.96123 0.0
C1239 C 0.23323 0.90329 0.98224 0.0
C1240 C 0.25207 0.91732 0.98666 0.0
H1241 H 0.15307 0.86015 0.10199 0.0
H1242 H 0.18319 0.87639 0.07782 0.0
C1243 C 0.27009 0.91845 0.97054 0.0
C1244 C 0.21525 0.89959 1.00014 0.0
H1245 H 0.17113 0.92501 0.02939 0.0
C1246 C 0.21247 0.87749 0.00886 0.0
C1247 C 0.2002 0.91698 0.00758 0.0
C1248 C 0.20206 0.94084 0.99819 0.0
C1249 C 0.19498 0.87221 0.02462 0.0
C1250 C 0.18002 0.8896 0.03228 0.0
C1251 C 0.18276 0.91177 0.02364 0.0
C1252 C 0.1611 0.88451 0.04869 0.0
C1253 C 0.1923 0.84787 0.03248 0.0
C1254 C 0.13843 0.88496 0.04089 0.0
C1255 C 0.12104 0.87582 0.05478 0.0
C1256 C 0.12613 0.86599 0.07664 0.0
C1257 C 0.14859 0.86732 0.08513 0.0
C1258 C 0.16586 0.87658 0.07133 0.0
H1259 H 0.2019 0.83586 0.0211 0.0
H1260 H 0.19888 0.84609 0.05061 0.0
H1261 H 0.17409 0.84285 0.03248 0.0
H1262 H 0.1344 0.89108 0.02348 0.0
H1263 H 0.10395 0.87508 0.04772 0.0
H1264 H 0.59312 0.37811 0.45105 0.0
H1265 H 0.57308 0.34865 0.47324 0.0
H1266 H 0.61904 0.29794 0.44563 0.0
H1267 H 0.63828 0.3268 0.42275 0.0
H1268 H 0.57757 0.28089 0.44892 0.0
H1269 H 0.59929 0.32416 0.53272 0.0
H1270 H 0.58158 0.34024 0.51318 0.0
H1271 H 0.6104 0.33354 0.50498 0.0
C1272 C 0.59869 0.36064 0.44941 0.0
C1273 C 0.61752 0.35496 0.43529 0.0
C1274 C 0.58734 0.34381 0.46228 0.0
C1275 C 0.5949 0.32109 0.46162 0.0
C1276 C 0.61289 0.3153 0.44658 0.0
H1277 H 0.60844 0.21916 0.562 0.0
H1278 H 0.60854 0.25115 0.53527 0.0
C1279 C 0.62398 0.33195 0.43352 0.0
C1280 C 0.58549 0.30338 0.47754 0.0
H1281 H 0.58228 0.28845 0.53527 0.0
C1282 C 0.5783 0.28262 0.46782 0.0
C1283 C 0.58652 0.3056 0.50225 0.0
C1284 C 0.59502 0.32698 0.51398 0.0
C1285 C 0.57343 0.26369 0.48199 0.0
C1286 C 0.57516 0.26575 0.50663 0.0
C1287 C 0.58095 0.2869 0.51638 0.0
C1288 C 0.5743 0.2457 0.52251 0.0
C1289 C 0.56792 0.24132 0.47039 0.0
C1290 C 0.555 0.2317 0.52427 0.0
C1291 C 0.55497 0.21297 0.53954 0.0
C1292 C 0.57412 0.20818 0.55354 0.0
C1293 C 0.5933 0.22233 0.55167 0.0
C1294 C 0.59339 0.24074 0.53636 0.0
H1295 H 0.57144 0.24159 0.45127 0.0
H1296 H 0.57791 0.22729 0.4784 0.0
H1297 H 0.54959 0.23754 0.47288 0.0
H1298 H 0.5399 0.23539 0.51407 0.0
H1299 H 0.53988 0.2025 0.54066 0.0
H1300 H 0.1031 0.60361 0.4653 0.0
H1301 H 0.13426 0.58759 0.48874 0.0
H1302 H 0.17949 0.5934 0.42959 0.0
H1303 H 0.14873 0.60995 0.40633 0.0
H1304 H 0.16722 0.55153 0.48557 0.0
H1305 H 0.20646 0.63709 0.47814 0.0
H1306 H 0.17756 0.63156 0.46922 0.0
H1307 H 0.2009 0.62332 0.45066 0.0
C1308 C 0.11952 0.6009 0.45711 0.0
C1309 C 0.12357 0.60841 0.43411 0.0
C1310 C 0.13732 0.59176 0.47053 0.0
C1311 C 0.15933 0.58984 0.46107 0.0
C1312 C 0.16278 0.59521 0.4374 0.0
H1313 H 0.28404 0.54611 0.53527 0.0
H1314 H 0.25222 0.54704 0.50725 0.0
C1315 C 0.14514 0.6046 0.42411 0.0
C1316 C 0.1791 0.58497 0.47654 0.0
H1317 H 0.22706 0.60943 0.49897 0.0
C1318 C 0.18041 0.56409 0.4884 0.0
C1319 C 0.19616 0.60152 0.48043 0.0
C1320 C 0.1952 0.62471 0.46914 0.0
C1321 C 0.19835 0.55939 0.50409 0.0
C1322 C 0.21533 0.57597 0.50788 0.0
C1323 C 0.2141 0.59669 0.49585 0.0
C1324 C 0.2335 0.57324 0.52572 0.0
C1325 C 0.1987 0.53713 0.51712 0.0
C1326 C 0.23345 0.58756 0.54536 0.0
C1327 C 0.25149 0.58715 0.56122 0.0
C1328 C 0.27018 0.57248 0.55781 0.0
C1329 C 0.26993 0.55761 0.53844 0.0
C1330 C 0.25173 0.55804 0.52247 0.0
H1331 H 0.183 0.52707 0.5141 0.0
H1332 H 0.21357 0.5269 0.5113 0.0
H1333 H 0.20061 0.54024 0.53622 0.0
H1334 H 0.21957 0.59944 0.54816 0.0
H1335 H 0.25091 0.59875 0.57597 0.0
H1336 H 0.85337 0.15252 0.41592 0.0
H1337 H 0.87268 0.18082 0.43937 0.0
H1338 H 0.9051 0.12784 0.47967 0.0
H1339 H 0.88475 0.09909 0.45672 0.0
H1340 H 0.88705 0.15652 0.50788 0.0
H1341 H 0.93369 0.20796 0.44383 0.0
H1342 H 0.90473 0.20602 0.43437 0.0
H1343 H 0.92197 0.18061 0.43623 0.0
C1344 C 0.86494 0.14672 0.42943 0.0
C1345 C 0.86734 0.12341 0.43447 0.0
C1346 C 0.87627 0.16306 0.44273 0.0
C1347 C 0.89076 0.15663 0.46113 0.0
C1348 C 0.89414 0.13331 0.46548 0.0
H1349 H 0.9405 0.27444 0.54394 0.0
H1350 H 0.94182 0.24054 0.51861 0.0
C1351 C 0.88255 0.11684 0.45228 0.0
C1352 C 0.8996 0.1743 0.47752 0.0
H1353 H 0.92018 0.2286 0.4788 0.0
C1354 C 0.89482 0.17202 0.50152 0.0
C1355 C 0.91028 0.19446 0.46959 0.0
C1356 C 0.91818 0.19723 0.44462 0.0
C1357 C 0.89864 0.18992 0.51731 0.0
C1358 C 0.90675 0.21101 0.50883 0.0
C1359 C 0.91338 0.21268 0.48526 0.0
C1360 C 0.90637 0.23187 0.52364 0.0
C1361 C 0.89344 0.18613 0.5429 0.0
C1362 C 0.88591 0.23871 0.53422 0.0
C1363 C 0.88516 0.25778 0.54871 0.0
C1364 C 0.90478 0.27088 0.5527 0.0
C1365 C 0.92511 0.26467 0.54129 0.0
C1366 C 0.9259 0.24529 0.52687 0.0
H1367 H 0.89593 0.16801 0.54776 0.0
H1368 H 0.90435 0.19679 0.55436 0.0
H1369 H 0.87535 0.19049 0.54631 0.0
H1370 H 0.8704 0.2292 0.53132 0.0
H1371 H 0.86909 0.26224 0.55685 0.0
H1372 H 0.372 0.88626 0.44579 0.0
H1373 H 0.3418 0.90563 0.46771 0.0
H1374 H 0.2959 0.85063 0.45201 0.0
H1375 H 0.32554 0.83164 0.42963 0.0
H1376 H 0.27414 0.89065 0.45007 0.0
H1377 H 0.32435 0.88546 0.53259 0.0
H1378 H 0.33724 0.90139 0.50933 0.0
H1379 H 0.33319 0.87127 0.50609 0.0
C1380 C 0.35547 0.87839 0.44682 0.0
C1381 C 0.35146 0.85716 0.43623 0.0
C1382 C 0.33819 0.88945 0.45948 0.0
C1383 C 0.31669 0.87933 0.46203 0.0
C1384 C 0.31235 0.85877 0.45043 0.0
H1385 H 0.22062 0.8712 0.56965 0.0
H1386 H 0.25204 0.87029 0.54207 0.0
C1387 C 0.32944 0.84787 0.43764 0.0
C1388 C 0.29894 0.88906 0.47778 0.0
H1389 H 0.28705 0.89915 0.53547 0.0
C1390 C 0.277 0.89283 0.46871 0.0
C1391 C 0.30268 0.89178 0.50214 0.0
C1392 C 0.32556 0.88712 0.51323 0.0
C1393 C 0.2585 0.89804 0.48343 0.0
C1394 C 0.26214 0.90012 0.50785 0.0
C1395 C 0.2843 0.89761 0.51673 0.0
C1396 C 0.24298 0.90177 0.52483 0.0
C1397 C 0.23501 0.89986 0.47287 0.0
C1398 C 0.22736 0.91993 0.52455 0.0
C1399 C 0.20901 0.92043 0.54034 0.0
C1400 C 0.20616 0.90288 0.55682 0.0
C1401 C 0.22217 0.88504 0.55727 0.0
C1402 C 0.24027 0.88449 0.54149 0.0
H1403 H 0.23456 0.89358 0.4545 0.0
H1404 H 0.22252 0.89004 0.48333 0.0
H1405 H 0.22954 0.91792 0.47286 0.0
H1406 H 0.22933 0.9337 0.51216 0.0
H1407 H 0.1971 0.93449 0.5396 0.0
H1408 H 0.43035 0.69384 0.03261 0.0
H1409 H 0.42809 0.72555 0.00471 0.0
H1410 H 0.38147 0.76056 0.05073 0.0
H1411 H 0.38339 0.72917 0.07835 0.0
H1412 H 0.36532 0.75506 0.00528 0.0
H1413 H 0.45241 0.79183 0.00573 0.0
H1414 H 0.45053 0.76157 1.00154 0.0
H1415 H 0.44203 0.77382 0.02899 0.0
C1416 C 0.41992 0.70847 0.03693 0.0
C1417 C 0.40689 0.70883 0.05764 0.0
C1418 C 0.41873 0.72662 0.02102 0.0
C1419 C 0.40469 0.74548 0.0257 0.0
C1420 C 0.39241 0.7462 0.04675 0.0
H1421 H 0.37533 0.87491 0.96128 0.0
H1422 H 0.3918 0.84442 0.98522 0.0
C1423 C 0.3935 0.72815 0.06252 0.0
C1424 C 0.40082 0.76355 0.00798 0.0
H1425 H 0.42597 0.8076 0.97884 0.0
C1426 C 0.37861 0.76647 0.99943 0.0
C1427 C 0.41815 0.77853 1.00053 0.0
C1428 C 0.44212 0.77651 0.00974 0.0
C1429 C 0.37317 0.78403 0.98383 0.0
C1430 C 0.39051 0.79891 0.97614 0.0
C1431 C 0.41278 0.79603 0.98461 0.0
C1432 C 0.38524 0.81787 0.95987 0.0
C1433 C 0.34872 0.78688 0.97617 0.0
C1434 C 0.37716 0.8132 0.93726 0.0
C1435 C 0.36763 0.83049 0.92364 0.0
C1436 C 0.36618 0.85287 0.9323 0.0
C1437 C 0.37617 0.85787 0.95411 0.0
C1438 C 0.38557 0.84046 0.96782 0.0
H1439 H 0.33681 0.7773 0.98757 0.0
H1440 H 0.34367 0.80508 0.97632 0.0
H1441 H 0.34681 0.78041 0.958 0.0
H1442 H 0.37705 0.79593 0.93066 0.0
H1443 H 0.36035 0.82608 0.90681 0.0
H1444 H 0.78619 0.4265 0.02967 0.0
H1445 H 0.75466 0.42394 1.00142 0.0
H1446 H 0.71611 0.38439 0.05093 0.0
H1447 H 0.74725 0.38662 0.0789 0.0
H1448 H 0.72176 0.36357 0.0073 0.0
H1449 H 0.68952 0.45215 0.99832 0.0
H1450 H 0.71976 0.44805 0.99537 0.0
H1451 H 0.70635 0.44298 0.0231 0.0
C1452 C 0.77081 0.41764 0.03466 0.0
C1453 C 0.76937 0.40657 0.05646 0.0
C1454 C 0.75278 0.41626 0.01854 0.0
C1455 C 0.73299 0.40401 0.02411 0.0
C1456 C 0.7312 0.39389 0.04624 0.0
H1457 H 0.60293 0.37572 0.96009 0.0
H1458 H 0.6339 0.39233 0.98323 0.0
C1459 C 0.74911 0.39516 0.0622 0.0
C1460 C 0.71502 0.39953 0.00639 0.0
H1461 H 0.67254 0.42418 0.97411 0.0
C1462 C 0.71108 0.37685 0.99996 0.0
C1463 C 0.701 0.41686 0.99699 0.0
C1464 C 0.70415 0.4414 1.00384 0.0
C1465 C 0.69343 0.37096 0.98462 0.0
C1466 C 0.67948 0.38825 0.97503 0.0
C1467 C 0.68338 0.41099 0.98134 0.0
C1468 C 0.66046 0.38253 0.95896 0.0
C1469 C 0.68949 0.34614 0.97925 0.0
C1470 C 0.66503 0.37246 0.93718 0.0
C1471 C 0.64746 0.36288 0.92401 0.0
C1472 C 0.62488 0.36332 0.93227 0.0
C1473 C 0.62009 0.37509 0.9532 0.0
C1474 C 0.63778 0.38459 0.96646 0.0
H1475 H 0.69846 0.33482 0.99181 0.0
H1476 H 0.67104 0.3421 0.97968 0.0
H1477 H 0.69593 0.34227 0.9614 0.0
H1478 H 0.68239 0.37094 0.93094 0.0
H1479 H 0.65174 0.35417 0.90785 0.0
H1480 H 0.05191 0.78463 0.03463 0.0
H1481 H 0.05449 0.75279 0.00684 0.0
H1482 H 0.09889 0.71708 0.05447 0.0
H1483 H 0.0967 0.74863 0.08198 0.0
H1484 H 0.11672 0.72161 0.01003 0.0
H1485 H 0.02868 0.68744 0.0065 0.0
H1486 H 0.03141 0.71757 1.00205 0.0
H1487 H 0.03848 0.70553 0.03001 0.0
C1488 C 0.06191 0.76983 0.03932 0.0
C1489 C 0.07426 0.76931 0.06046 0.0
C1490 C 0.06328 0.75159 0.02347 0.0
C1491 C 0.0768 0.73248 0.02863 0.0
C1492 C 0.08837 0.73163 0.0501 0.0
H1493 H 0.10436 0.60258 0.963 0.0
H1494 H 0.08828 0.6332 0.98717 0.0
C1495 C 0.08712 0.74977 0.0658 0.0
C1496 C 0.08087 0.71427 0.01105 0.0
H1497 H 0.05559 0.67127 0.98024 0.0
C1498 C 0.10332 0.71066 1.00349 0.0
C1499 C 0.06341 0.69988 1.00266 0.0
C1500 C 0.03913 0.70258 0.0108 0.0
C1501 C 0.10886 0.69305 0.98792 0.0
C1502 C 0.0914 0.67882 0.97925 0.0
C1503 C 0.06889 0.68234 0.98677 0.0
C1504 C 0.0967 0.65998 0.96278 0.0
C1505 C 0.13351 0.68948 0.9813 0.0
C1506 C 0.10574 0.6648 0.94061 0.0
C1507 C 0.11504 0.64744 0.92687 0.0
C1508 C 0.1153 0.62485 0.93494 0.0
C1509 C 0.10445 0.61978 0.95628 0.0
C1510 C 0.09526 0.63726 0.97013 0.0
H1511 H 0.14523 0.69846 0.99343 0.0
H1512 H 0.13794 0.67112 0.98128 0.0
H1513 H 0.13641 0.69618 0.96338 0.0
H1514 H 0.10671 0.68218 0.93447 0.0
H1515 H 0.12301 0.65191 0.9104 0.0
H1516 H 0.70382 0.03757 0.04505 0.0
H1517 H 0.73744 0.03654 0.01936 0.0
H1518 H 0.75064 0.10695 0.03529 0.0
H1519 H 0.71794 0.1079 0.06127 0.0
H1520 H 0.74866 0.05889 0.9806 0.0
H1521 H 0.81192 0.08043 0.04806 0.0
H1522 H 0.78318 0.07247 0.05544 0.0
H1523 H 0.78986 0.1015 0.04803 0.0
C1524 C 0.71401 0.05277 0.04313 0.0
C1525 C 0.70835 0.07272 0.05549 0.0
C1526 C 0.73322 0.05215 0.02847 0.0
C1527 C 0.74703 0.07148 0.0259 0.0
C1528 C 0.74086 0.09155 0.03763 0.0
H1529 H 0.8243 0.12513 0.91622 0.0
H1530 H 0.79617 0.10612 0.94017 0.0
C1531 C 0.72197 0.09211 0.0524 0.0
C1532 C 0.76741 0.07137 0.01038 0.0
H1533 H 0.82212 0.09051 0.0081 0.0
C1534 C 0.76488 0.06537 0.9867 0.0
C1535 C 0.7889 0.07904 0.01835 0.0
C1536 C 0.79368 0.08344 0.04393 0.0
C1537 C 0.78263 0.0686 0.9705 0.0
C1538 C 0.80319 0.07886 0.97802 0.0
C1539 C 0.8063 0.08308 1.00205 0.0
C1540 C 0.8206 0.08761 0.96129 0.0
C1541 C 0.77896 0.06121 0.94548 0.0
C1542 C 0.84399 0.08391 0.96513 0.0
C1543 C 0.86033 0.09537 0.95172 0.0
C1544 C 0.85362 0.11069 0.93409 0.0
C1545 C 0.83022 0.11341 0.92953 0.0
C1546 C 0.81397 0.10227 0.94312 0.0
H1547 H 0.768 0.04587 0.94472 0.0
H1548 H 0.77001 0.07493 0.9358 0.0
H1549 H 0.79528 0.05737 0.93648 0.0
H1550 H 0.84962 0.07282 0.97913 0.0
H1551 H 0.87814 0.09301 0.95594 0.0
H1552 H 0.42505 0.74366 0.43142 0.0
H1553 H 0.42399 0.71165 0.45869 0.0
H1554 H 0.40981 0.75783 0.51566 0.0
H1555 H 0.41194 0.79011 0.4884 0.0
H1556 H 0.43589 0.72059 0.52991 0.0
H1557 H 0.36088 0.69251 0.47852 0.0
H1558 H 0.38632 0.69446 0.46131 0.0
H1559 H 0.37413 0.71973 0.47405 0.0
C1560 C 0.42249 0.74701 0.44991 0.0
C1561 C 0.41858 0.76926 0.45788 0.0
C1562 C 0.42166 0.72872 0.46544 0.0
C1563 C 0.41611 0.73226 0.48909 0.0
C1564 C 0.41396 0.75467 0.49745 0.0
H1565 H 0.36087 0.65125 0.60019 0.0
H1566 H 0.38038 0.68035 0.57741 0.0
C1567 C 0.41528 0.77311 0.48193 0.0
C1568 C 0.41021 0.71262 0.50429 0.0
H1569 H 0.3733 0.66805 0.50862 0.0
C1570 C 0.42225 0.70907 0.52525 0.0
C1571 C 0.39222 0.69768 0.49833 0.0
C1572 C 0.37748 0.70137 0.47697 0.0
C1573 C 0.41693 0.69082 0.54022 0.0
C1574 C 0.39909 0.67585 0.53409 0.0
C1575 C 0.3872 0.67933 0.5131 0.0
C1576 C 0.3911 0.65744 0.54983 0.0
C1577 C 0.43046 0.68761 0.56243 0.0
C1578 C 0.39087 0.63476 0.54208 0.0
C1579 C 0.3797 0.61799 0.55512 0.0
C1580 C 0.36823 0.62371 0.57595 0.0
C1581 C 0.36949 0.64624 0.58421 0.0
C1582 C 0.38079 0.66292 0.57128 0.0
H1583 H 0.44707 0.69656 0.56163 0.0
H1584 H 0.42067 0.69467 0.5774 0.0
H1585 H 0.43358 0.6693 0.56588 0.0
H1586 H 0.39856 0.63022 0.52546 0.0
H1587 H 0.37895 0.60088 0.54817 0.0
H1588 H 0.68843 0.42596 0.4829 0.0
H1589 H 0.71912 0.42514 0.51225 0.0
H1590 H 0.76683 0.40437 0.45893 0.0
H1591 H 0.73638 0.40471 0.42978 0.0
H1592 H 0.74579 0.38065 0.51774 0.0
H1593 H 0.79969 0.45601 0.49959 0.0
H1594 H 0.76962 0.45523 0.49284 0.0
H1595 H 0.78957 0.44037 0.47455 0.0
C1596 C 0.70558 0.42178 0.47737 0.0
C1597 C 0.71 0.41529 0.45409 0.0
C1598 C 0.72306 0.42129 0.49413 0.0
C1599 C 0.74526 0.41489 0.48768 0.0
C1600 C 0.74989 0.40965 0.4642 0.0
H1601 H 0.87338 0.37154 0.54294 0.0
H1602 H 0.84248 0.39001 0.52124 0.0
C1603 C 0.73244 0.40973 0.4476 0.0
C1604 C 0.76298 0.41057 0.50563 0.0
H1605 H 0.81587 0.42713 0.5236 0.0
C1606 C 0.76095 0.391 0.51941 0.0
C1607 C 0.78285 0.42392 0.50734 0.0
C1608 C 0.78565 0.44517 0.49293 0.0
C1609 C 0.77869 0.38379 0.53413 0.0
C1610 C 0.79877 0.39705 0.53582 0.0
C1611 C 0.80049 0.41704 0.52246 0.0
C1612 C 0.81861 0.38952 0.55015 0.0
C1613 C 0.7762 0.36129 0.54659 0.0
C1614 C 0.81596 0.38422 0.57398 0.0
C1615 C 0.83343 0.37327 0.58625 0.0
C1616 C 0.85416 0.36804 0.57514 0.0
C1617 C 0.8576 0.37535 0.55197 0.0
C1618 C 0.83991 0.38588 0.53954 0.0
H1619 H 0.76281 0.35057 0.53846 0.0
H1620 H 0.79244 0.3516 0.54644 0.0
H1621 H 0.77123 0.3644 0.56507 0.0
H1622 H 0.8 0.38759 0.58283 0.0
H1623 H 0.83039 0.3681 0.60419 0.0
H1624 H 0.04818 0.69291 0.47399 0.0
H1625 H 0.04994 0.72503 0.50149 0.0
H1626 H 0.09945 0.75778 0.45731 0.0
H1627 H 0.09805 0.72597 0.43009 0.0
H1628 H 0.11324 0.75347 0.50346 0.0
H1629 H 0.02664 0.7915 0.49786 0.0
H1630 H 0.02788 0.76138 0.50311 0.0
H1631 H 0.03782 0.77253 0.47572 0.0
C1632 C 0.05919 0.70711 0.46999 0.0
C1633 C 0.0731 0.70672 0.44989 0.0
C1634 C 0.06009 0.72551 0.48567 0.0
C1635 C 0.07473 0.74389 0.48138 0.0
C1636 C 0.08803 0.74381 0.46098 0.0
H1637 H 0.10209 0.87432 0.54498 0.0
H1638 H 0.08645 0.84364 0.52075 0.0
C1639 C 0.08722 0.72552 0.44544 0.0
C1640 C 0.07796 0.76234 0.49888 0.0
H1641 H 0.05182 0.80733 0.52594 0.0
C1642 C 0.09977 0.76518 0.50843 0.0
C1643 C 0.06041 0.77772 0.50519 0.0
C1644 C 0.03688 0.77586 0.49485 0.0
C1645 C 0.10461 0.783 0.52396 0.0
C1646 C 0.08705 0.79825 0.53054 0.0
C1647 C 0.06517 0.79549 0.52103 0.0
C1648 C 0.09167 0.81744 0.54677 0.0
C1649 C 0.1287 0.78569 0.53275 0.0
C1650 C 0.09866 0.81307 0.56982 0.0
C1651 C 0.10771 0.83047 0.58361 0.0
C1652 C 0.10976 0.85266 0.5747 0.0
C1653 C 0.10077 0.85743 0.55238 0.0
C1654 C 0.09184 0.83991 0.53848 0.0
H1655 H 0.14106 0.77577 0.52209 0.0
H1656 H 0.13386 0.80383 0.53256 0.0
H1657 H 0.12974 0.77953 0.55109 0.0
H1658 H 0.09835 0.79591 0.57667 0.0
H1659 H 0.11423 0.82625 0.60083 0.0
H1660 H 0.6537 0.12756 0.59147 0.0
H1661 H 0.6818 0.10847 0.56724 0.0
H1662 H 0.62848 0.07173 0.53181 0.0
H1663 H 0.59988 0.09188 0.55532 0.0
H1664 H 0.69607 0.0672 0.55763 0.0
H1665 H 0.65631 0.10362 0.47749 0.0
H1666 H 0.64695 0.11135 0.50647 0.0
H1667 H 0.63852 0.08464 0.49379 0.0
C1668 C 0.64781 0.11524 0.57874 0.0
C1669 C 0.62439 0.11163 0.57508 0.0
C1670 C 0.66402 0.10422 0.56489 0.0
C1671 C 0.65732 0.08909 0.54718 0.0
C1672 C 0.63407 0.08389 0.54482 0.0
H1673 H 0.77417 0.0369 0.46251 0.0
H1674 H 0.74103 0.03589 0.48885 0.0
C1675 C 0.61772 0.09526 0.55846 0.0
C1676 C 0.67474 0.08063 0.53024 0.0
H1677 H 0.69069 0.08427 0.47281 0.0
C1678 C 0.69481 0.07068 0.53902 0.0
C1679 C 0.67316 0.08525 0.50593 0.0
C1680 C 0.6527 0.09696 0.49531 0.0
C1681 C 0.71374 0.0665 0.52451 0.0
C1682 C 0.71234 0.07175 0.50035 0.0
C1683 C 0.69177 0.08029 0.49133 0.0
C1684 C 0.7326 0.07153 0.48464 0.0
C1685 C 0.7355 0.05791 0.53547 0.0
C1686 C 0.7387 0.09169 0.47317 0.0
C1687 C 0.75718 0.09218 0.4579 0.0
C1688 C 0.77031 0.07255 0.45377 0.0
C1689 C 0.76448 0.05234 0.46546 0.0
C1690 C 0.74561 0.05178 0.4806 0.0
H1691 H 0.73513 0.05918 0.55489 0.0
H1692 H 0.73796 0.03977 0.53074 0.0
H1693 H 0.75038 0.06758 0.52891 0.0
H1694 H 0.72909 0.1072 0.47606 0.0
H1695 H 0.76124 0.1081 0.44938 0.0
H1696 H 0.81486 0.29368 0.14646 0.0
H1697 H 0.79028 0.26173 0.15646 0.0
H1698 H 0.73344 0.30763 0.16481 0.0
H1699 H 0.75777 0.33964 0.15404 0.0
H1700 H 0.76239 0.24942 0.19319 0.0
H1701 H 0.7121 0.26642 0.11242 0.0
H1702 H 0.73857 0.28063 0.11852 0.0
H1703 H 0.71282 0.28951 0.13297 0.0
C1704 C 0.79721 0.29703 0.15074 0.0
C1705 C 0.78811 0.31908 0.14901 0.0
C1706 C 0.7832 0.27876 0.15652 0.0
C1707 C 0.75994 0.28227 0.16083 0.0
C1708 C 0.75122 0.30451 0.16094 0.0
H1709 H 0.65393 0.17877 0.15835 0.0
H1710 H 0.67383 0.21376 0.16896 0.0
C1711 C 0.76514 0.32276 0.15485 0.0
C1712 C 0.74462 0.26248 0.16302 0.0
H1713 H 0.70134 0.23507 0.13501 0.0
C1714 C 0.74887 0.24637 0.18063 0.0
C1715 C 0.72708 0.2585 0.14651 0.0
C1716 C 0.72243 0.27454 0.12641 0.0
C1717 C 0.7363 0.22615 0.1819 0.0
C1718 C 0.71919 0.222 0.16505 0.0
C1719 C 0.71439 0.23845 0.14801 0.0
C1720 C 0.7075 0.19989 0.16309 0.0
C1721 C 0.74158 0.20925 0.20099 0.0
C1722 C 0.71991 0.18046 0.15665 0.0
C1723 C 0.70861 0.16052 0.1504 0.0
C1724 C 0.6847 0.15973 0.15043 0.0
C1725 C 0.67236 0.17886 0.15811 0.0
C1726 C 0.68368 0.19884 0.16423 0.0
H1727 H 0.75027 0.21746 0.21607 0.0
H1728 H 0.72583 0.20088 0.20733 0.0
H1729 H 0.75308 0.19591 0.19391 0.0
H1730 H 0.73828 0.18108 0.15523 0.0
H1731 H 0.7186 0.14604 0.14466 0.0
H1732 H 0.17868 0.8231 0.16563 0.0
H1733 H 0.214 0.80301 0.17524 0.0
H1734 H 0.18276 0.73928 0.15673 0.0
H1735 H 0.14733 0.7591 0.14724 0.0
H1736 H 0.21366 0.73866 0.1981 0.0
H1737 H 0.25016 0.77761 0.11748 0.0
H1738 H 0.23802 0.79662 0.13881 0.0
H1739 H 0.21996 0.7773 0.12317 0.0
C1740 C 0.17916 0.80476 0.16403 0.0
C1741 C 0.16034 0.79272 0.15529 0.0
C1742 C 0.19935 0.79334 0.16953 0.0
C1743 C 0.20098 0.76976 0.16638 0.0
C1744 C 0.18177 0.75751 0.15923 0.0
H1745 H 0.29508 0.66152 0.15073 0.0
H1746 H 0.26322 0.68577 0.16225 0.0
C1747 C 0.16159 0.76889 0.15371 0.0
C1748 C 0.22324 0.75812 0.16776 0.0
H1749 H 0.27277 0.7513 0.13747 0.0
C1750 C 0.22677 0.74157 0.18507 0.0
C1751 C 0.24022 0.76203 0.15071 0.0
C1752 C 0.23699 0.77923 0.13136 0.0
C1753 C 0.2468 0.72848 0.1855 0.0
C1754 C 0.26337 0.73174 0.16783 0.0
C1755 C 0.26011 0.74887 0.15106 0.0
C1756 C 0.28328 0.71649 0.16489 0.0
C1757 C 0.24995 0.71125 0.20477 0.0
C1758 C 0.30519 0.72565 0.16253 0.0
C1759 C 0.32336 0.71189 0.1555 0.0
C1760 C 0.31995 0.68871 0.15075 0.0
C1761 C 0.29827 0.67931 0.15434 0.0
C1762 C 0.28005 0.69313 0.16114 0.0
H1763 H 0.24048 0.7163 0.22081 0.0
H1764 H 0.24315 0.69462 0.19887 0.0
H1765 H 0.26821 0.70902 0.2093 0.0
H1766 H 0.30803 0.74365 0.16522 0.0
H1767 H 0.33992 0.71959 0.15307 0.0
H1768 H 0.72855 0.34182 0.36315 0.0
H1769 H 0.75191 0.30911 0.35194 0.0
H1770 H 0.6916 0.26774 0.34702 0.0
H1771 H 0.66811 0.30045 0.35757 0.0
H1772 H 0.75502 0.27239 0.37853 0.0
H1773 H 0.72618 0.24578 0.29054 0.0
H1774 H 0.71941 0.27335 0.3027 0.0
H1775 H 0.70272 0.24884 0.31039 0.0
C1776 C 0.72022 0.32587 0.35919 0.0
C1777 C 0.69651 0.32363 0.36143 0.0
C1778 C 0.73359 0.30723 0.35271 0.0
C1779 C 0.7235 0.28604 0.34839 0.0
C1780 C 0.69973 0.28404 0.34966 0.0
H1781 H 0.7593 0.14819 0.36618 0.0
H1782 H 0.74117 0.18452 0.35679 0.0
C1783 C 0.68633 0.30272 0.35593 0.0
C1784 C 0.73787 0.26545 0.34594 0.0
H1785 H 0.745 0.21687 0.31386 0.0
C1786 C 0.75319 0.26051 0.36411 0.0
C1787 C 0.73538 0.2499 0.32717 0.0
C1788 C 0.72019 0.25486 0.30649 0.0
C1789 C 0.76528 0.23998 0.36463 0.0
C1790 C 0.76205 0.22405 0.3464 0.0
C1791 C 0.74734 0.22919 0.3278 0.0
C1792 C 0.77261 0.20133 0.34766 0.0
C1793 C 0.78063 0.23497 0.38521 0.0
C1794 C 0.79616 0.1987 0.34485 0.0
C1795 C 0.8066 0.17799 0.35022 0.0
C1796 C 0.7936 0.15969 0.3586 0.0
C1797 C 0.7698 0.16203 0.35998 0.0
C1798 C 0.75939 0.1827 0.35451 0.0
H1799 H 0.77918 0.24802 0.39922 0.0
H1800 H 0.7765 0.2181 0.3928 0.0
H1801 H 0.79859 0.23439 0.3792 0.0
H1802 H 0.80656 0.21296 0.33953 0.0
H1803 H 0.82494 0.17669 0.34886 0.0
H1804 H 0.34298 0.74374 0.36932 0.0
H1805 H 0.31088 0.71993 0.35755 0.0
H1806 H 0.26899 0.77979 0.34957 0.0
H1807 H 0.30107 0.80367 0.36063 0.0
H1808 H 0.27287 0.71659 0.3819 0.0
H1809 H 0.25027 0.74467 0.29256 0.0
H1810 H 0.2771 0.75182 0.3061 0.0
H1811 H 0.25192 0.76835 0.31227 0.0
C1812 C 0.32704 0.75184 0.36462 0.0
C1813 C 0.3245 0.77557 0.36602 0.0
C1814 C 0.30875 0.73822 0.35783 0.0
C1815 C 0.28761 0.74808 0.35235 0.0
C1816 C 0.28528 0.77182 0.35305 0.0
H1817 H 0.149 0.71349 0.36312 0.0
H1818 H 0.18592 0.73099 0.35536 0.0
C1819 C 0.30361 0.78545 0.35961 0.0
C1820 C 0.26729 0.73359 0.34897 0.0
H1821 H 0.22017 0.72639 0.3147 0.0
C1822 C 0.26162 0.71836 0.36693 0.0
C1823 C 0.25259 0.73595 0.32946 0.0
C1824 C 0.25842 0.75092 0.30891 0.0
C1825 C 0.2411 0.70633 0.36654 0.0
C1826 C 0.22593 0.70953 0.34762 0.0
C1827 C 0.23189 0.72408 0.3292 0.0
C1828 C 0.20309 0.69923 0.34792 0.0
C1829 C 0.23524 0.6911 0.38693 0.0
C1830 C 0.20047 0.67568 0.34546 0.0
C1831 C 0.17942 0.6656 0.34989 0.0
C1832 C 0.16073 0.67896 0.35696 0.0
C1833 C 0.16311 0.70272 0.35791 0.0
C1834 C 0.18414 0.71277 0.35338 0.0
H1835 H 0.24762 0.69267 0.40156 0.0
H1836 H 0.21797 0.69522 0.39367 0.0
H1837 H 0.23513 0.67314 0.38098 0.0
H1838 H 0.21496 0.66503 0.34116 0.0
H1839 H 0.17811 0.64727 0.34888 0.0
H1840 H 0.31703 0.79488 0.85464 0.0
H1841 H 0.29326 0.76241 0.84457 0.0
H1842 H 0.2339 0.80579 0.84395 0.0
H1843 H 0.25753 0.8383 0.8547 0.0
H1844 H 0.22848 0.77083 0.87239 0.0
H1845 H 0.26091 0.73814 0.78791 0.0
H1846 H 0.28344 0.74154 0.8088 0.0
H1847 H 0.26793 0.76612 0.79873 0.0
C1848 C 0.299 0.79763 0.85184 0.0
C1849 C 0.2891 0.81909 0.85571 0.0
C1850 C 0.28544 0.77906 0.84586 0.0
C1851 C 0.26182 0.7817 0.84322 0.0
C1852 C 0.2521 0.80339 0.8458 0.0
H1853 H 0.15738 0.67587 0.84653 0.0
H1854 H 0.17685 0.71122 0.83638 0.0
C1855 C 0.26561 0.82193 0.85201 0.0
C1856 C 0.24704 0.76143 0.84127 0.0
H1857 H 0.24017 0.71127 0.81192 0.0
C1858 C 0.2307 0.75805 0.85886 0.0
C1859 C 0.25004 0.74471 0.82368 0.0
C1860 C 0.26638 0.74792 0.80359 0.0
C1861 C 0.21806 0.73797 0.86001 0.0
C1862 C 0.22171 0.72088 0.84299 0.0
C1863 C 0.23749 0.72446 0.82494 0.0
C1864 C 0.21043 0.6986 0.84497 0.0
C1865 C 0.20166 0.73468 0.88009 0.0
C1866 C 0.22306 0.67964 0.85226 0.0
C1867 C 0.21203 0.65945 0.85813 0.0
C1868 C 0.18818 0.65794 0.85674 0.0
C1869 C 0.17575 0.67654 0.84796 0.0
C1870 C 0.18681 0.69674 0.84214 0.0
H1871 H 0.20337 0.74811 0.89368 0.0
H1872 H 0.18395 0.73514 0.87333 0.0
H1873 H 0.20442 0.71787 0.88846 0.0
H1874 H 0.24133 0.68082 0.85454 0.0
H1875 H 0.22211 0.64537 0.86464 0.0
H1876 H 0.82071 0.21413 0.88698 0.0
H1877 H 0.78624 0.23412 0.87533 0.0
H1878 H 0.78068 0.19125 0.81415 0.0
H1879 H 0.81474 0.17022 0.82656 0.0
H1880 H 0.77423 0.25848 0.83928 0.0
H1881 H 0.71952 0.1815 0.84212 0.0
H1882 H 0.74857 0.18117 0.85218 0.0
H1883 H 0.74238 0.18046 0.82131 0.0
C1884 C 0.81222 0.20898 0.87099 0.0
C1885 C 0.82023 0.19044 0.85782 0.0
C1886 C 0.79252 0.22047 0.86429 0.0
C1887 C 0.78058 0.21395 0.84408 0.0
C1888 C 0.7892 0.19617 0.83018 0.0
H1889 H 0.6625 0.30602 0.82541 0.0
H1890 H 0.6967 0.28481 0.8137 0.0
C1891 C 0.80872 0.18427 0.83719 0.0
C1892 C 0.75869 0.22543 0.83859 0.0
H1893 H 0.70143 0.21633 0.8356 0.0
C1894 C 0.75829 0.24929 0.83821 0.0
C1895 C 0.73793 0.21335 0.83712 0.0
C1896 C 0.73698 0.18773 0.83837 0.0
C1897 C 0.73772 0.26145 0.83837 0.0
C1898 C 0.71692 0.24936 0.83771 0.0
C1899 C 0.71739 0.22553 0.83614 0.0
C1900 C 0.69472 0.26066 0.84224 0.0
C1901 C 0.73858 0.28697 0.84108 0.0
C1902 C 0.68149 0.25331 0.86125 0.0
C1903 C 0.66169 0.26491 0.86748 0.0
C1904 C 0.65489 0.28437 0.85507 0.0
C1905 C 0.66758 0.29125 0.83547 0.0
C1906 C 0.68718 0.27925 0.82888 0.0
H1907 H 0.75574 0.29295 0.8464 0.0
H1908 H 0.73435 0.29508 0.82409 0.0
H1909 H 0.7261 0.29291 0.85437 0.0
H1910 H 0.6869 0.23901 0.87184 0.0
H1911 H 0.65227 0.25919 0.88267 0.0
H1912 H 0.32365 0.67854 0.66066 0.0
H1913 H 0.30329 0.71342 0.67118 0.0
H1914 H 0.23926 0.68018 0.65793 0.0
H1915 H 0.2594 0.64525 0.64746 0.0
H1916 H 0.27546 0.73437 0.6373 0.0
H1917 H 0.22685 0.71685 0.71848 0.0
H1918 H 0.25145 0.70033 0.70976 0.0
H1919 H 0.22422 0.69517 0.69645 0.0
C1920 C 0.30522 0.67847 0.66052 0.0
C1921 C 0.29313 0.65922 0.65299 0.0
C1922 C 0.29364 0.6984 0.66659 0.0
C1923 C 0.2698 0.69928 0.66555 0.0
C1924 C 0.25764 0.67972 0.65928 0.0
H1925 H 0.16109 0.79216 0.64832 0.0
H1926 H 0.18613 0.76045 0.6585 0.0
C1927 C 0.2692 0.65983 0.65309 0.0
C1928 C 0.2578 0.72132 0.6674 0.0
H1929 H 0.21419 0.74855 0.69537 0.0
C1930 C 0.26237 0.73772 0.65027 0.0
C1931 C 0.24063 0.72543 0.68422 0.0
C1932 C 0.23559 0.7086 0.70342 0.0
C1933 C 0.24939 0.75766 0.64866 0.0
C1934 C 0.23177 0.76158 0.66513 0.0
C1935 C 0.22775 0.74553 0.68284 0.0
C1936 C 0.21616 0.78125 0.66283 0.0
C1937 C 0.25381 0.77364 0.62848 0.0
C1938 C 0.22455 0.80355 0.66285 0.0
C1939 C 0.21037 0.82167 0.65666 0.0
C1940 C 0.18746 0.81778 0.65081 0.0
C1941 C 0.17869 0.79567 0.65262 0.0
C1942 C 0.19297 0.77753 0.65849 0.0
H1943 H 0.26428 0.76554 0.61454 0.0
H1944 H 0.23759 0.77955 0.62054 0.0
H1945 H 0.26318 0.78872 0.63497 0.0
H1946 H 0.24229 0.80683 0.66673 0.0
H1947 H 0.2175 0.8386 0.65579 0.0
H1948 H 0.82099 0.26343 0.62125 0.0
H1949 H 0.78702 0.24293 0.63306 0.0
H1950 H 0.78106 0.28539 0.69452 0.0
H1951 H 0.81463 0.3069 0.682 0.0
H1952 H 0.77569 0.21823 0.6693 0.0
H1953 H 0.71959 0.29462 0.66673 0.0
H1954 H 0.74856 0.29528 0.65648 0.0
H1955 H 0.74256 0.29581 0.68739 0.0
C1956 C 0.81253 0.26838 0.63734 0.0
C1957 C 0.82027 0.28695 0.65056 0.0
C1958 C 0.79312 0.25659 0.64413 0.0
C1959 C 0.7812 0.26285 0.66447 0.0
C1960 C 0.78957 0.28066 0.67841 0.0
H1961 H 0.66412 0.16991 0.6822 0.0
H1962 H 0.69805 0.19113 0.6943 0.0
C1963 C 0.8088 0.29285 0.67132 0.0
C1964 C 0.75955 0.2511 0.67002 0.0
H1965 H 0.70211 0.25955 0.67275 0.0
C1966 C 0.75958 0.22723 0.67035 0.0
C1967 C 0.73857 0.26294 0.67147 0.0
C1968 C 0.73717 0.28855 0.67033 0.0
C1969 C 0.73922 0.21484 0.6701 0.0
C1970 C 0.71822 0.2267 0.67062 0.0
C1971 C 0.71824 0.25052 0.6723 0.0
C1972 C 0.69628 0.21522 0.66568 0.0
C1973 C 0.74052 0.18933 0.66741 0.0
C1974 C 0.68331 0.22245 0.64641 0.0
C1975 C 0.66371 0.21081 0.6399 0.0
C1976 C 0.65681 0.19143 0.65231 0.0
C1977 C 0.66927 0.18462 0.67213 0.0
C1978 C 0.68871 0.19663 0.67896 0.0
H1979 H 0.75787 0.18348 0.66245 0.0
H1980 H 0.73606 0.18119 0.68431 0.0
H1981 H 0.72838 0.18331 0.65387 0.0
H1982 H 0.68877 0.23673 0.63586 0.0
H1983 H 0.65448 0.2165 0.62455 0.0
loop_
_geom_bond_atom_site_label_1
_geom_bond_atom_site_label_2
_geom_bond_distance
_geom_bond_site_symmetry_2
_ccdc_geom_bond_type
Co0 O3 1.970 . S
Co0 N17 1.989 . S
Co0 O25 1.967 . S
Co0 O32 1.920 . S
Co1 O4 1.966 . S
Co1 N10 2.022 . S
Co1 N18 1.993 . S
Co1 O26 1.941 . S
C2 O3 1.258 . S
C2 O4 1.263 . S
O3 Co0 1.970 . S
O3 C2 1.258 . S
O4 Co1 1.966 . S
O4 C2 1.263 . S
C5 O6 1.235 . S
C5 O32 1.289 . S
O6 C5 1.235 . S
C7 C9 1.400 . S
C7 N10 1.351 . S
C7 C12 1.501 . S
C8 C9 1.387 . S
C8 N11 1.341 . S
C9 C7 1.400 . S
C9 C8 1.387 . S
N10 Co1 2.022 . S
N10 C7 1.351 . S
N10 N11 1.365 . S
N11 C8 1.341 . S
N11 N10 1.365 . S
N11 H31 0.862 . S
C12 C7 1.501 . S
C12 H13 0.961 . S
C12 H14 0.961 . S
C12 H15 0.960 . S
H13 C12 0.961 . S
H14 C12 0.961 . S
H15 C12 0.960 . S
C16 N17 1.342 . S
C16 C20 1.401 . S
C16 C21 1.499 . S
N17 Co0 1.989 . S
N17 C16 1.342 . S
N17 N18 1.388 . S
N18 Co1 1.993 . S
N18 N17 1.388 . S
N18 C19 1.346 . S
C19 N18 1.346 . S
C19 C20 1.396 . S
C19 C29 1.510 . S
C20 C16 1.401 . S
C20 C19 1.396 . S
C21 C16 1.499 . S
C21 H22 0.959 . S
C21 H23 0.960 . S
C21 H24 0.961 . S
H22 C21 0.959 . S
H23 C21 0.960 . S
H24 C21 0.961 . S
O25 Co0 1.967 . S
O25 C33 1.258 . S
O26 Co1 1.941 . S
O26 C33 1.266 . S
H27 C29 0.959 . S
H28 C29 0.961 . S
C29 C19 1.510 . S
C29 H27 0.959 . S
C29 H28 0.961 . S
C29 H30 0.960 . S
H30 C29 0.960 . S
H31 N11 0.862 . S
O32 Co0 1.920 . S
O32 C5 1.289 . S
C33 O25 1.258 . S
C33 O26 1.266 . S
Co34 O37 1.970 . S
Co34 N51 1.989 . S
Co34 O59 1.967 . S
Co34 O66 1.920 . S
Co35 O38 1.966 . S
Co35 N44 2.022 . S
Co35 N52 1.993 . S
Co35 O60 1.941 . S
C36 O37 1.258 . S
C36 O38 1.263 . S
O37 Co34 1.970 . S
O37 C36 1.258 . S
O38 Co35 1.966 . S
O38 C36 1.263 . S
C39 O40 1.235 . S
C39 O66 1.289 . S
O40 C39 1.235 . S
C41 C43 1.400 . S
C41 N44 1.351 . S
C41 C46 1.501 . S
C42 C43 1.387 . S
C42 N45 1.341 . S
C43 C41 1.400 . S
C43 C42 1.387 . S
N44 Co35 2.022 . S
N44 C41 1.351 . S
N44 N45 1.365 . S
N45 C42 1.341 . S
N45 N44 1.365 . S
N45 H65 0.862 . S
C46 C41 1.501 . S
C46 H47 0.961 . S
C46 H48 0.961 . S
C46 H49 0.960 . S
H47 C46 0.961 . S
H48 C46 0.961 . S
H49 C46 0.960 . S
C50 N51 1.342 . S
C50 C54 1.401 . S
C50 C55 1.499 . S
N51 Co34 1.989 . S
N51 C50 1.342 . S
N51 N52 1.388 . S
N52 Co35 1.993 . S
N52 N51 1.388 . S
N52 C53 1.346 . S
C53 N52 1.346 . S
C53 C54 1.396 . S
C53 C63 1.510 . S
C54 C50 1.401 . S
C54 C53 1.396 . S
C55 C50 1.499 . S
C55 H56 0.959 . S
C55 H57 0.960 . S
C55 H58 0.961 . S
H56 C55 0.959 . S
H57 C55 0.960 . S
H58 C55 0.961 . S
O59 Co34 1.967 . S
O59 C67 1.258 . S
O60 Co35 1.941 . S
O60 C67 1.266 . S
H61 C63 0.959 . S
H62 C63 0.961 . S
C63 C53 1.510 . S
C63 H61 0.959 . S
C63 H62 0.961 . S
C63 H64 0.960 . S
H64 C63 0.960 . S
H65 N45 0.862 . S
O66 Co34 1.920 . S
O66 C39 1.289 . S
C67 O59 1.258 . S
C67 O60 1.266 . S
Co68 O71 1.970 . S
Co68 N85 1.989 . S
Co68 O93 1.967 . S
Co68 O100 1.920 . S
Co69 O72 1.966 . S
Co69 N78 2.022 . S
Co69 N86 1.993 . S
Co69 O94 1.941 . S
C70 O71 1.258 . S
C70 O72 1.263 . S
O71 Co68 1.970 . S
O71 C70 1.258 . S
O72 Co69 1.966 . S
O72 C70 1.263 . S
C73 O74 1.235 . S
C73 O100 1.289 . S
O74 C73 1.235 . S
C75 C77 1.400 . S
C75 N78 1.351 . S
C75 C80 1.501 . S
C76 C77 1.387 . S
C76 N79 1.341 . S
C77 C75 1.400 . S
C77 C76 1.387 . S
N78 Co69 2.022 . S
N78 C75 1.351 . S
N78 N79 1.365 . S
N79 C76 1.341 . S
N79 N78 1.365 . S
N79 H99 0.862 . S
C80 C75 1.501 . S
C80 H81 0.961 . S
C80 H82 0.961 . S
C80 H83 0.960 . S
H81 C80 0.961 . S
H82 C80 0.961 . S
H83 C80 0.960 . S
C84 N85 1.342 . S
C84 C88 1.401 . S
C84 C89 1.499 . S
N85 Co68 1.989 . S
N85 C84 1.342 . S
N85 N86 1.388 . S
N86 Co69 1.993 . S
N86 N85 1.388 . S
N86 C87 1.346 . S
C87 N86 1.346 . S
C87 C88 1.396 . S
C87 C97 1.510 . S
C88 C84 1.401 . S
C88 C87 1.396 . S
C89 C84 1.499 . S
C89 H90 0.959 . S
C89 H91 0.960 . S
C89 H92 0.961 . S
H90 C89 0.959 . S
H91 C89 0.960 . S
H92 C89 0.961 . S
O93 Co68 1.967 . S
O93 C101 1.258 . S
O94 Co69 1.941 . S
O94 C101 1.266 . S
H95 C97 0.959 . S
H96 C97 0.961 . S
C97 C87 1.510 . S
C97 H95 0.959 . S
C97 H96 0.961 . S
C97 H98 0.960 . S
H98 C97 0.960 . S
H99 N79 0.862 . S
O100 Co68 1.920 . S
O100 C73 1.289 . S
C101 O93 1.258 . S
C101 O94 1.266 . S
Co102 O105 1.970 . S
Co102 N119 1.989 . S
Co102 O127 1.967 . S
Co102 O134 1.920 . S
Co103 O106 1.966 . S
Co103 N112 2.022 . S
Co103 N120 1.993 . S
Co103 O128 1.941 . S
C104 O105 1.258 . S
C104 O106 1.263 . S
O105 Co102 1.970 . S
O105 C104 1.258 . S
O106 Co103 1.966 . S
O106 C104 1.263 . S
C107 O108 1.235 . S
C107 O134 1.289 . S
O108 C107 1.235 . S
C109 C111 1.400 . S
C109 N112 1.351 . S
C109 C114 1.501 . S
C110 C111 1.387 . S
C110 N113 1.341 . S
C111 C109 1.400 . S
C111 C110 1.387 . S
N112 Co103 2.022 . S
N112 C109 1.351 . S
N112 N113 1.365 . S
N113 C110 1.341 . S
N113 N112 1.365 . S
N113 H133 0.862 . S
C114 C109 1.501 . S
C114 H115 0.961 . S
C114 H116 0.961 . S
C114 H117 0.960 . S
H115 C114 0.961 . S
H116 C114 0.961 . S
H117 C114 0.960 . S
C118 N119 1.342 . S
C118 C122 1.401 . S
C118 C123 1.499 . S
N119 Co102 1.989 . S
N119 C118 1.342 . S
N119 N120 1.388 . S
N120 Co103 1.993 . S
N120 N119 1.388 . S
N120 C121 1.346 . S
C121 N120 1.346 . S
C121 C122 1.396 . S
C121 C131 1.510 . S
C122 C118 1.401 . S
C122 C121 1.396 . S
C123 C118 1.499 . S
C123 H124 0.959 . S
C123 H125 0.960 . S
C123 H126 0.961 . S
H124 C123 0.959 . S
H125 C123 0.960 . S
H126 C123 0.961 . S
O127 Co102 1.967 . S
O127 C135 1.258 . S
O128 Co103 1.941 . S
O128 C135 1.266 . S
H129 C131 0.959 . S
H130 C131 0.961 . S
C131 C121 1.510 . S
C131 H129 0.959 . S
C131 H130 0.961 . S
C131 H132 0.960 . S
H132 C131 0.960 . S
H133 N113 0.862 . S
O134 Co102 1.920 . S
O134 C107 1.289 . S
C135 O127 1.258 . S
C135 O128 1.266 . S
Co136 O139 1.970 . S
Co136 N153 1.989 . S
Co136 O161 1.967 . S
Co136 O168 1.920 . S
Co137 O140 1.966 . S
Co137 N146 2.022 . S
Co137 N154 1.993 . S
Co137 O162 1.941 . S
C138 O139 1.258 . S
C138 O140 1.263 . S
O139 Co136 1.970 . S
O139 C138 1.258 . S
O140 Co137 1.966 . S
O140 C138 1.263 . S
C141 O142 1.235 . S
C141 O168 1.289 . S
O142 C141 1.235 . S
C143 C145 1.400 . S
C143 N146 1.351 . S
C143 C148 1.501 . S
C144 C145 1.387 . S
C144 N147 1.341 . S
C145 C143 1.400 . S
C145 C144 1.387 . S
N146 Co137 2.022 . S
N146 C143 1.351 . S
N146 N147 1.365 . S
N147 C144 1.341 . S
N147 N146 1.365 . S
N147 H167 0.862 . S
C148 C143 1.501 . S
C148 H149 0.961 . S
C148 H150 0.961 . S
C148 H151 0.960 . S
H149 C148 0.961 . S
H150 C148 0.961 . S
H151 C148 0.960 . S
C152 N153 1.342 . S
C152 C156 1.401 . S
C152 C157 1.499 . S
N153 Co136 1.989 . S
N153 C152 1.342 . S
N153 N154 1.388 . S
N154 Co137 1.993 . S
N154 N153 1.388 . S
N154 C155 1.346 . S
C155 N154 1.346 . S
C155 C156 1.396 . S
C155 C165 1.510 . S
C156 C152 1.401 . S
C156 C155 1.396 . S
C157 C152 1.499 . S
C157 H158 0.959 . S
C157 H159 0.960 . S
C157 H160 0.961 . S
H158 C157 0.959 . S
H159 C157 0.960 . S
H160 C157 0.961 . S
O161 Co136 1.967 . S
O161 C169 1.258 . S
O162 Co137 1.941 . S
O162 C169 1.266 . S
H163 C165 0.959 . S
H164 C165 0.961 . S
C165 C155 1.510 . S
C165 H163 0.959 . S
C165 H164 0.961 . S
C165 H166 0.960 . S
H166 C165 0.960 . S
H167 N147 0.862 . S
O168 Co136 1.920 . S
O168 C141 1.289 . S
C169 O161 1.258 . S
C169 O162 1.266 . S
Co170 O173 1.970 . S
Co170 N187 1.989 . S
Co170 O195 1.967 . S
Co170 O202 1.920 . S
Co171 O174 1.966 . S
Co171 N180 2.022 . S
Co171 N188 1.993 . S
Co171 O196 1.941 . S
C172 O173 1.258 . S
C172 O174 1.263 . S
O173 Co170 1.970 . S
O173 C172 1.258 . S
O174 Co171 1.966 . S
O174 C172 1.263 . S
C175 O176 1.235 . S
C175 O202 1.289 . S
O176 C175 1.235 . S
C177 C179 1.400 . S
C177 N180 1.351 . S
C177 C182 1.501 . S
C178 C179 1.387 . S
C178 N181 1.341 . S
C179 C177 1.400 . S
C179 C178 1.387 . S
N180 Co171 2.022 . S
N180 C177 1.351 . S
N180 N181 1.365 . S
N181 C178 1.341 . S
N181 N180 1.365 . S
N181 H201 0.862 . S
C182 C177 1.501 . S
C182 H183 0.961 . S
C182 H184 0.961 . S
C182 H185 0.960 . S
H183 C182 0.961 . S
H184 C182 0.961 . S
H185 C182 0.960 . S
C186 N187 1.342 . S
C186 C190 1.401 . S
C186 C191 1.499 . S
N187 Co170 1.989 . S
N187 C186 1.342 . S
N187 N188 1.388 . S
N188 Co171 1.993 . S
N188 N187 1.388 . S
N188 C189 1.346 . S
C189 N188 1.346 . S
C189 C190 1.396 . S
C189 C199 1.510 . S
C190 C186 1.401 . S
C190 C189 1.396 . S
C191 C186 1.499 . S
C191 H192 0.959 . S
C191 H193 0.960 . S
C191 H194 0.961 . S
H192 C191 0.959 . S
H193 C191 0.960 . S
H194 C191 0.961 . S
O195 Co170 1.967 . S
O195 C203 1.258 . S
O196 Co171 1.941 . S
O196 C203 1.266 . S
H197 C199 0.959 . S
H198 C199 0.961 . S
C199 C189 1.510 . S
C199 H197 0.959 . S
C199 H198 0.961 . S
C199 H200 0.960 . S
H200 C199 0.960 . S
H201 N181 0.862 . S
O202 Co170 1.920 . S
O202 C175 1.289 . S
C203 O195 1.258 . S
C203 O196 1.266 . S
Co204 O207 1.970 . S
Co204 N221 1.989 . S
Co204 O229 1.967 . S
Co204 O236 1.920 . S
Co205 O208 1.966 . S
Co205 N214 2.022 . S
Co205 N222 1.993 . S
Co205 O230 1.941 . S
C206 O207 1.258 . S
C206 O208 1.263 . S
O207 Co204 1.970 . S
O207 C206 1.258 . S
O208 Co205 1.966 . S
O208 C206 1.263 . S
C209 O210 1.235 . S
C209 O236 1.289 . S
O210 C209 1.235 . S
C211 C213 1.400 . S
C211 N214 1.351 . S
C211 C216 1.501 . S
C212 C213 1.387 . S
C212 N215 1.341 . S
C213 C211 1.400 . S
C213 C212 1.387 . S
N214 Co205 2.022 . S
N214 C211 1.351 . S
N214 N215 1.365 . S
N215 C212 1.341 . S
N215 N214 1.365 . S
N215 H235 0.862 . S
C216 C211 1.501 . S
C216 H217 0.961 . S
C216 H218 0.961 . S
C216 H219 0.960 . S
H217 C216 0.961 . S
H218 C216 0.961 . S
H219 C216 0.960 . S
C220 N221 1.342 . S
C220 C224 1.401 . S
C220 C225 1.499 . S
N221 Co204 1.989 . S
N221 C220 1.342 . S
N221 N222 1.388 . S
N222 Co205 1.993 . S
N222 N221 1.388 . S
N222 C223 1.346 . S
C223 N222 1.346 . S
C223 C224 1.396 . S
C223 C233 1.510 . S
C224 C220 1.401 . S
C224 C223 1.396 . S
C225 C220 1.499 . S
C225 H226 0.959 . S
C225 H227 0.960 . S
C225 H228 0.961 . S
H226 C225 0.959 . S
H227 C225 0.960 . S
H228 C225 0.961 . S
O229 Co204 1.967 . S
O229 C237 1.258 . S
O230 Co205 1.941 . S
O230 C237 1.266 . S
H231 C233 0.959 . S
H232 C233 0.961 . S
C233 C223 1.510 . S
C233 H231 0.959 . S
C233 H232 0.961 . S
C233 H234 0.960 . S
H234 C233 0.960 . S
H235 N215 0.862 . S
O236 Co204 1.920 . S
O236 C209 1.289 . S
C237 O229 1.258 . S
C237 O230 1.266 . S
Co238 O241 1.970 . S
Co238 N255 1.989 . S
Co238 O263 1.967 . S
Co238 O270 1.920 . S
Co239 O242 1.966 . S
Co239 N248 2.022 . S
Co239 N256 1.993 . S
Co239 O264 1.941 . S
C240 O241 1.258 . S
C240 O242 1.263 . S
O241 Co238 1.970 . S
O241 C240 1.258 . S
O242 Co239 1.966 . S
O242 C240 1.263 . S
C243 O244 1.235 . S
C243 O270 1.289 . S
O244 C243 1.235 . S
C245 C247 1.400 . S
C245 N248 1.351 . S
C245 C250 1.501 . S
C246 C247 1.387 . S
C246 N249 1.341 . S
C247 C245 1.400 . S
C247 C246 1.387 . S
N248 Co239 2.022 . S
N248 C245 1.351 . S
N248 N249 1.365 . S
N249 C246 1.341 . S
N249 N248 1.365 . S
N249 H269 0.862 . S
C250 C245 1.501 . S
C250 H251 0.961 . S
C250 H252 0.961 . S
C250 H253 0.960 . S
H251 C250 0.961 . S
H252 C250 0.961 . S
H253 C250 0.960 . S
C254 N255 1.342 . S
C254 C258 1.401 . S
C254 C259 1.499 . S
N255 Co238 1.989 . S
N255 C254 1.342 . S
N255 N256 1.388 . S
N256 Co239 1.993 . S
N256 N255 1.388 . S
N256 C257 1.346 . S
C257 N256 1.346 . S
C257 C258 1.396 . S
C257 C267 1.510 . S
C258 C254 1.401 . S
C258 C257 1.396 . S
C259 C254 1.499 . S
C259 H260 0.959 . S
C259 H261 0.960 . S
C259 H262 0.961 . S
H260 C259 0.959 . S
H261 C259 0.960 . S
H262 C259 0.961 . S
O263 Co238 1.967 . S
O263 C271 1.258 . S
O264 Co239 1.941 . S
O264 C271 1.266 . S
H265 C267 0.959 . S
H266 C267 0.961 . S
C267 C257 1.510 . S
C267 H265 0.959 . S
C267 H266 0.961 . S
C267 H268 0.960 . S
H268 C267 0.960 . S
H269 N249 0.862 . S
O270 Co238 1.920 . S
O270 C243 1.289 . S
C271 O263 1.258 . S
C271 O264 1.266 . S
Co272 O275 1.970 . S
Co272 N289 1.989 . S
Co272 O297 1.967 . S
Co272 O304 1.920 . S
Co273 O276 1.966 . S
Co273 N282 2.022 . S
Co273 N290 1.993 . S
Co273 O298 1.941 . S
C274 O275 1.258 . S
C274 O276 1.263 . S
O275 Co272 1.970 . S
O275 C274 1.258 . S
O276 Co273 1.966 . S
O276 C274 1.263 . S
C277 O278 1.235 . S
C277 O304 1.289 . S
O278 C277 1.235 . S
C279 C281 1.400 . S
C279 N282 1.351 . S
C279 C284 1.501 . S
C280 C281 1.387 . S
C280 N283 1.341 . S
C281 C279 1.400 . S
C281 C280 1.387 . S
N282 Co273 2.022 . S
N282 C279 1.351 . S
N282 N283 1.365 . S
N283 C280 1.341 . S
N283 N282 1.365 . S
N283 H303 0.862 . S
C284 C279 1.501 . S
C284 H285 0.961 . S
C284 H286 0.961 . S
C284 H287 0.960 . S
H285 C284 0.961 . S
H286 C284 0.961 . S
H287 C284 0.960 . S
C288 N289 1.342 . S
C288 C292 1.401 . S
C288 C293 1.499 . S
N289 Co272 1.989 . S
N289 C288 1.342 . S
N289 N290 1.388 . S
N290 Co273 1.993 . S
N290 N289 1.388 . S
N290 C291 1.346 . S
C291 N290 1.346 . S
C291 C292 1.396 . S
C291 C301 1.510 . S
C292 C288 1.401 . S
C292 C291 1.396 . S
C293 C288 1.499 . S
C293 H294 0.959 . S
C293 H295 0.960 . S
C293 H296 0.961 . S
H294 C293 0.959 . S
H295 C293 0.960 . S
H296 C293 0.961 . S
O297 Co272 1.967 . S
O297 C305 1.258 . S
O298 Co273 1.941 . S
O298 C305 1.266 . S
H299 C301 0.959 . S
H300 C301 0.961 . S
C301 C291 1.510 . S
C301 H299 0.959 . S
C301 H300 0.961 . S
C301 H302 0.960 . S
H302 C301 0.960 . S
H303 N283 0.862 . S
O304 Co272 1.920 . S
O304 C277 1.289 . S
C305 O297 1.258 . S
C305 O298 1.266 . S
Co306 O309 1.970 . S
Co306 N323 1.989 . S
Co306 O331 1.967 . S
Co306 O338 1.920 . S
Co307 O310 1.966 . S
Co307 N316 2.022 . S
Co307 N324 1.993 . S
Co307 O332 1.941 . S
C308 O309 1.258 . S
C308 O310 1.263 . S
O309 Co306 1.970 . S
O309 C308 1.258 . S
O310 Co307 1.966 . S
O310 C308 1.263 . S
C311 O312 1.235 . S
C311 O338 1.289 . S
O312 C311 1.235 . S
C313 C315 1.400 . S
C313 N316 1.351 . S
C313 C318 1.501 . S
C314 C315 1.387 . S
C314 N317 1.341 . S
C315 C313 1.400 . S
C315 C314 1.387 . S
N316 Co307 2.022 . S
N316 C313 1.351 . S
N316 N317 1.365 . S
N317 C314 1.341 . S
N317 N316 1.365 . S
N317 H337 0.862 . S
C318 C313 1.501 . S
C318 H319 0.961 . S
C318 H320 0.961 . S
C318 H321 0.960 . S
H319 C318 0.961 . S
H320 C318 0.961 . S
H321 C318 0.960 . S
C322 N323 1.342 . S
C322 C326 1.401 . S
C322 C327 1.499 . S
N323 Co306 1.989 . S
N323 C322 1.342 . S
N323 N324 1.388 . S
N324 Co307 1.993 . S
N324 N323 1.388 . S
N324 C325 1.346 . S
C325 N324 1.346 . S
C325 C326 1.396 . S
C325 C335 1.510 . S
C326 C322 1.401 . S
C326 C325 1.396 . S
C327 C322 1.499 . S
C327 H328 0.959 . S
C327 H329 0.960 . S
C327 H330 0.961 . S
H328 C327 0.959 . S
H329 C327 0.960 . S
H330 C327 0.961 . S
O331 Co306 1.967 . S
O331 C339 1.258 . S
O332 Co307 1.941 . S
O332 C339 1.266 . S
H333 C335 0.959 . S
H334 C335 0.961 . S
C335 C325 1.510 . S
C335 H333 0.959 . S
C335 H334 0.961 . S
C335 H336 0.960 . S
H336 C335 0.960 . S
H337 N317 0.862 . S
O338 Co306 1.920 . S
O338 C311 1.289 . S
C339 O331 1.258 . S
C339 O332 1.266 . S
Co340 O343 1.970 . S
Co340 N357 1.989 . S
Co340 O365 1.967 . S
Co340 O372 1.920 . S
Co341 O344 1.966 . S
Co341 N350 2.022 . S
Co341 N358 1.993 . S
Co341 O366 1.941 . S
C342 O343 1.258 . S
C342 O344 1.263 . S
O343 Co340 1.970 . S
O343 C342 1.258 . S
O344 Co341 1.966 . S
O344 C342 1.263 . S
C345 O346 1.235 . S
C345 O372 1.289 . S
O346 C345 1.235 . S
C347 C349 1.400 . S
C347 N350 1.351 . S
C347 C352 1.501 . S
C348 C349 1.387 . S
C348 N351 1.341 . S
C349 C347 1.400 . S
C349 C348 1.387 . S
N350 Co341 2.022 . S
N350 C347 1.351 . S
N350 N351 1.365 . S
N351 C348 1.341 . S
N351 N350 1.365 . S
N351 H371 0.862 . S
C352 C347 1.501 . S
C352 H353 0.961 . S
C352 H354 0.961 . S
C352 H355 0.960 . S
H353 C352 0.961 . S
H354 C352 0.961 . S
H355 C352 0.960 . S
C356 N357 1.342 . S
C356 C360 1.401 . S
C356 C361 1.499 . S
N357 Co340 1.989 . S
N357 C356 1.342 . S
N357 N358 1.388 . S
N358 Co341 1.993 . S
N358 N357 1.388 . S
N358 C359 1.346 . S
C359 N358 1.346 . S
C359 C360 1.396 . S
C359 C369 1.510 . S
C360 C356 1.401 . S
C360 C359 1.396 . S
C361 C356 1.499 . S
C361 H362 0.959 . S
C361 H363 0.960 . S
C361 H364 0.961 . S
H362 C361 0.959 . S
H363 C361 0.960 . S
H364 C361 0.961 . S
O365 Co340 1.967 . S
O365 C373 1.258 . S
O366 Co341 1.941 . S
O366 C373 1.266 . S
H367 C369 0.959 . S
H368 C369 0.961 . S
C369 C359 1.510 . S
C369 H367 0.959 . S
C369 H368 0.961 . S
C369 H370 0.960 . S
H370 C369 0.960 . S
H371 N351 0.862 . S
O372 Co340 1.920 . S
O372 C345 1.289 . S
C373 O365 1.258 . S
C373 O366 1.266 . S
Co374 O377 1.970 . S
Co374 N391 1.989 . S
Co374 O399 1.967 . S
Co374 O406 1.920 . S
Co375 O378 1.966 . S
Co375 N384 2.022 . S
Co375 N392 1.993 . S
Co375 O400 1.941 . S
C376 O377 1.258 . S
C376 O378 1.263 . S
O377 Co374 1.970 . S
O377 C376 1.258 . S
O378 Co375 1.966 . S
O378 C376 1.263 . S
C379 O380 1.235 . S
C379 O406 1.289 . S
O380 C379 1.235 . S
C381 C383 1.400 . S
C381 N384 1.351 . S
C381 C386 1.501 . S
C382 C383 1.387 . S
C382 N385 1.341 . S
C383 C381 1.400 . S
C383 C382 1.387 . S
N384 Co375 2.022 . S
N384 C381 1.351 . S
N384 N385 1.365 . S
N385 C382 1.341 . S
N385 N384 1.365 . S
N385 H405 0.862 . S
C386 C381 1.501 . S
C386 H387 0.961 . S
C386 H388 0.961 . S
C386 H389 0.960 . S
H387 C386 0.961 . S
H388 C386 0.961 . S
H389 C386 0.960 . S
C390 N391 1.342 . S
C390 C394 1.401 . S
C390 C395 1.499 . S
N391 Co374 1.989 . S
N391 C390 1.342 . S
N391 N392 1.388 . S
N392 Co375 1.993 . S
N392 N391 1.388 . S
N392 C393 1.346 . S
C393 N392 1.346 . S
C393 C394 1.396 . S
C393 C403 1.510 . S
C394 C390 1.401 . S
C394 C393 1.396 . S
C395 C390 1.499 . S
C395 H396 0.959 . S
C395 H397 0.960 . S
C395 H398 0.961 . S
H396 C395 0.959 . S
H397 C395 0.960 . S
H398 C395 0.961 . S
O399 Co374 1.967 . S
O399 C407 1.258 . S
O400 Co375 1.941 . S
O400 C407 1.266 . S
H401 C403 0.959 . S
H402 C403 0.961 . S
C403 C393 1.510 . S
C403 H401 0.959 . S
C403 H402 0.961 . S
C403 H404 0.960 . S
H404 C403 0.960 . S
H405 N385 0.862 . S
O406 Co374 1.920 . S
O406 C379 1.289 . S
C407 O399 1.258 . S
C407 O400 1.266 . S
Co408 O411 1.970 . S
Co408 N425 1.989 . S
Co408 O433 1.967 . S
Co408 O440 1.920 . S
Co409 O412 1.966 . S
Co409 N418 2.022 . S
Co409 N426 1.993 . S
Co409 O434 1.941 . S
C410 O411 1.258 . S
C410 O412 1.263 . S
O411 Co408 1.970 . S
O411 C410 1.258 . S
O412 Co409 1.966 . S
O412 C410 1.263 . S
C413 O414 1.235 . S
C413 O440 1.289 . S
O414 C413 1.235 . S
C415 C417 1.400 . S
C415 N418 1.351 . S
C415 C420 1.501 . S
C416 C417 1.387 . S
C416 N419 1.341 . S
C417 C415 1.400 . S
C417 C416 1.387 . S
N418 Co409 2.022 . S
N418 C415 1.351 . S
N418 N419 1.365 . S
N419 C416 1.341 . S
N419 N418 1.365 . S
N419 H439 0.862 . S
C420 C415 1.501 . S
C420 H421 0.961 . S
C420 H422 0.961 . S
C420 H423 0.960 . S
H421 C420 0.961 . S
H422 C420 0.961 . S
H423 C420 0.960 . S
C424 N425 1.342 . S
C424 C428 1.401 . S
C424 C429 1.499 . S
N425 Co408 1.989 . S
N425 C424 1.342 . S
N425 N426 1.388 . S
N426 Co409 1.993 . S
N426 N425 1.388 . S
N426 C427 1.346 . S
C427 N426 1.346 . S
C427 C428 1.396 . S
C427 C437 1.510 . S
C428 C424 1.401 . S
C428 C427 1.396 . S
C429 C424 1.499 . S
C429 H430 0.959 . S
C429 H431 0.960 . S
C429 H432 0.961 . S
H430 C429 0.959 . S
H431 C429 0.960 . S
H432 C429 0.961 . S
O433 Co408 1.967 . S
O433 C441 1.258 . S
O434 Co409 1.941 . S
O434 C441 1.266 . S
H435 C437 0.959 . S
H436 C437 0.961 . S
C437 C427 1.510 . S
C437 H435 0.959 . S
C437 H436 0.961 . S
C437 H438 0.960 . S
H438 C437 0.960 . S
H439 N419 0.862 . S
O440 Co408 1.920 . S
O440 C413 1.289 . S
C441 O433 1.258 . S
C441 O434 1.266 . S
Co442 O445 1.970 . S
Co442 N459 1.989 . S
Co442 O467 1.967 . S
Co442 O474 1.920 . S
Co443 O446 1.966 . S
Co443 N452 2.022 . S
Co443 N460 1.993 . S
Co443 O468 1.941 . S
C444 O445 1.258 . S
C444 O446 1.263 . S
O445 Co442 1.970 . S
O445 C444 1.258 . S
O446 Co443 1.966 . S
O446 C444 1.263 . S
C447 O448 1.235 . S
C447 O474 1.289 . S
O448 C447 1.235 . S
C449 C451 1.400 . S
C449 N452 1.351 . S
C449 C454 1.501 . S
C450 C451 1.387 . S
C450 N453 1.341 . S
C451 C449 1.400 . S
C451 C450 1.387 . S
N452 Co443 2.022 . S
N452 C449 1.351 . S
N452 N453 1.365 . S
N453 C450 1.341 . S
N453 N452 1.365 . S
N453 H473 0.862 . S
C454 C449 1.501 . S
C454 H455 0.961 . S
C454 H456 0.961 . S
C454 H457 0.960 . S
H455 C454 0.961 . S
H456 C454 0.961 . S
H457 C454 0.960 . S
C458 N459 1.342 . S
C458 C462 1.401 . S
C458 C463 1.499 . S
N459 Co442 1.989 . S
N459 C458 1.342 . S
N459 N460 1.388 . S
N460 Co443 1.993 . S
N460 N459 1.388 . S
N460 C461 1.346 . S
C461 N460 1.346 . S
C461 C462 1.396 . S
C461 C471 1.510 . S
C462 C458 1.401 . S
C462 C461 1.396 . S
C463 C458 1.499 . S
C463 H464 0.959 . S
C463 H465 0.960 . S
C463 H466 0.961 . S
H464 C463 0.959 . S
H465 C463 0.960 . S
H466 C463 0.961 . S
O467 Co442 1.967 . S
O467 C475 1.258 . S
O468 Co443 1.941 . S
O468 C475 1.266 . S
H469 C471 0.959 . S
H470 C471 0.961 . S
C471 C461 1.510 . S
C471 H469 0.959 . S
C471 H470 0.961 . S
C471 H472 0.960 . S
H472 C471 0.960 . S
H473 N453 0.862 . S
O474 Co442 1.920 . S
O474 C447 1.289 . S
C475 O467 1.258 . S
C475 O468 1.266 . S
Co476 O479 1.970 . S
Co476 N493 1.989 . S
Co476 O501 1.967 . S
Co476 O508 1.920 . S
Co477 O480 1.966 . S
Co477 N486 2.022 . S
Co477 N494 1.993 . S
Co477 O502 1.941 . S
C478 O479 1.258 . S
C478 O480 1.263 . S
O479 Co476 1.970 . S
O479 C478 1.258 . S
O480 Co477 1.966 . S
O480 C478 1.263 . S
C481 O482 1.235 . S
C481 O508 1.289 . S
O482 C481 1.235 . S
C483 C485 1.400 . S
C483 N486 1.351 . S
C483 C488 1.501 . S
C484 C485 1.387 . S
C484 N487 1.341 . S
C485 C483 1.400 . S
C485 C484 1.387 . S
N486 Co477 2.022 . S
N486 C483 1.351 . S
N486 N487 1.365 . S
N487 C484 1.341 . S
N487 N486 1.365 . S
N487 H507 0.862 . S
C488 C483 1.501 . S
C488 H489 0.961 . S
C488 H490 0.961 . S
C488 H491 0.960 . S
H489 C488 0.961 . S
H490 C488 0.961 . S
H491 C488 0.960 . S
C492 N493 1.342 . S
C492 C496 1.401 . S
C492 C497 1.499 . S
N493 Co476 1.989 . S
N493 C492 1.342 . S
N493 N494 1.388 . S
N494 Co477 1.993 . S
N494 N493 1.388 . S
N494 C495 1.346 . S
C495 N494 1.346 . S
C495 C496 1.396 . S
C495 C505 1.510 . S
C496 C492 1.401 . S
C496 C495 1.396 . S
C497 C492 1.499 . S
C497 H498 0.959 . S
C497 H499 0.960 . S
C497 H500 0.961 . S
H498 C497 0.959 . S
H499 C497 0.960 . S
H500 C497 0.961 . S
O501 Co476 1.967 . S
O501 C509 1.258 . S
O502 Co477 1.941 . S
O502 C509 1.266 . S
H503 C505 0.959 . S
H504 C505 0.961 . S
C505 C495 1.510 . S
C505 H503 0.959 . S
C505 H504 0.961 . S
C505 H506 0.960 . S
H506 C505 0.960 . S
H507 N487 0.862 . S
O508 Co476 1.920 . S
O508 C481 1.289 . S
C509 O501 1.258 . S
C509 O502 1.266 . S
Co510 O513 1.970 . S
Co510 N527 1.989 . S
Co510 O535 1.967 . S
Co510 O542 1.920 . S
Co511 O514 1.966 . S
Co511 N520 2.022 . S
Co511 N528 1.993 . S
Co511 O536 1.941 . S
C512 O513 1.258 . S
C512 O514 1.263 . S
O513 Co510 1.970 . S
O513 C512 1.258 . S
O514 Co511 1.966 . S
O514 C512 1.263 . S
C515 O516 1.235 . S
C515 O542 1.289 . S
O516 C515 1.235 . S
C517 C519 1.400 . S
C517 N520 1.351 . S
C517 C522 1.501 . S
C518 C519 1.387 . S
C518 N521 1.341 . S
C519 C517 1.400 . S
C519 C518 1.387 . S
N520 Co511 2.022 . S
N520 C517 1.351 . S
N520 N521 1.365 . S
N521 C518 1.341 . S
N521 N520 1.365 . S
N521 H541 0.862 . S
C522 C517 1.501 . S
C522 H523 0.961 . S
C522 H524 0.961 . S
C522 H525 0.960 . S
H523 C522 0.961 . S
H524 C522 0.961 . S
H525 C522 0.960 . S
C526 N527 1.342 . S
C526 C530 1.401 . S
C526 C531 1.499 . S
N527 Co510 1.989 . S
N527 C526 1.342 . S
N527 N528 1.388 . S
N528 Co511 1.993 . S
N528 N527 1.388 . S
N528 C529 1.346 . S
C529 N528 1.346 . S
C529 C530 1.396 . S
C529 C539 1.510 . S
C530 C526 1.401 . S
C530 C529 1.396 . S
C531 C526 1.499 . S
C531 H532 0.959 . S
C531 H533 0.960 . S
C531 H534 0.961 . S
H532 C531 0.959 . S
H533 C531 0.960 . S
H534 C531 0.961 . S
O535 Co510 1.967 . S
O535 C543 1.258 . S
O536 Co511 1.941 . S
O536 C543 1.266 . S
H537 C539 0.959 . S
H538 C539 0.961 . S
C539 C529 1.510 . S
C539 H537 0.959 . S
C539 H538 0.961 . S
C539 H540 0.960 . S
H540 C539 0.960 . S
H541 N521 0.862 . S
O542 Co510 1.920 . S
O542 C515 1.289 . S
C543 O535 1.258 . S
C543 O536 1.266 . S
H544 C552 0.929 . S
H545 C554 0.930 . S
H546 C556 0.930 . S
H547 C559 0.929 . S
H548 C562 0.930 . S
H549 C564 0.960 . S
H550 C564 0.960 . S
H551 C564 0.960 . S
C552 H544 0.929 . S
C552 C553 1.377 . S
C552 C554 1.384 . S
C553 C552 1.377 . S
C553 C559 1.390 . S
C554 H545 0.930 . S
C554 C552 1.384 . S
C554 C555 1.372 . S
C555 C554 1.372 . S
C555 C556 1.400 . S
C555 C560 1.490 . S
C556 H546 0.930 . S
C556 C555 1.400 . S
C556 C559 1.386 . S
H557 C573 0.930 . S
H558 C574 0.931 . S
C559 H547 0.929 . S
C559 C553 1.390 . S
C559 C556 1.386 . S
C560 C555 1.490 . S
C560 C562 1.395 . S
C560 C563 1.403 . S
H561 C567 0.930 . S
C562 H548 0.930 . S
C562 C560 1.395 . S
C562 C565 1.403 . S
C563 C560 1.403 . S
C563 C564 1.524 . S
C563 C567 1.400 . S
C564 H549 0.960 . S
C564 H550 0.960 . S
C564 H551 0.960 . S
C564 C563 1.524 . S
C565 C562 1.403 . S
C565 C566 1.392 . S
C565 C569 1.495 . S
C566 C565 1.392 . S
C566 C567 1.385 . S
C566 C568 1.478 . S
C567 H561 0.930 . S
C567 C563 1.400 . S
C567 C566 1.385 . S
C568 C566 1.478 . S
C568 C570 1.381 . S
C568 C574 1.383 . S
C569 C565 1.495 . S
C569 H575 0.959 . S
C569 H576 0.961 . S
C569 H577 0.960 . S
C570 C568 1.381 . S
C570 C571 1.394 . S
C570 H578 0.930 . S
C571 C570 1.394 . S
C571 C572 1.383 . S
C571 H579 0.929 . S
C572 C571 1.383 . S
C572 C573 1.377 . S
C573 H557 0.930 . S
C573 C572 1.377 . S
C573 C574 1.379 . S
C574 H558 0.931 . S
C574 C568 1.383 . S
C574 C573 1.379 . S
H575 C569 0.959 . S
H576 C569 0.961 . S
H577 C569 0.960 . S
H578 C570 0.930 . S
H579 C571 0.929 . S
H580 C588 0.929 . S
H581 C590 0.930 . S
H582 C592 0.930 . S
H583 C595 0.929 . S
H584 C598 0.930 . S
H585 C600 0.960 . S
H586 C600 0.960 . S
H587 C600 0.960 . S
C588 H580 0.929 . S
C588 C589 1.377 . S
C588 C590 1.384 . S
C589 C588 1.377 . S
C589 C595 1.390 . S
C590 H581 0.930 . S
C590 C588 1.384 . S
C590 C591 1.372 . S
C591 C590 1.372 . S
C591 C592 1.400 . S
C591 C596 1.490 . S
C592 H582 0.930 . S
C592 C591 1.400 . S
C592 C595 1.386 . S
H593 C609 0.930 . S
H594 C610 0.931 . S
C595 H583 0.929 . S
C595 C589 1.390 . S
C595 C592 1.386 . S
C596 C591 1.490 . S
C596 C598 1.395 . S
C596 C599 1.403 . S
H597 C603 0.930 . S
C598 H584 0.930 . S
C598 C596 1.395 . S
C598 C601 1.403 . S
C599 C596 1.403 . S
C599 C600 1.524 . S
C599 C603 1.400 . S
C600 H585 0.960 . S
C600 H586 0.960 . S
C600 H587 0.960 . S
C600 C599 1.524 . S
C601 C598 1.403 . S
C601 C602 1.392 . S
C601 C605 1.495 . S
C602 C601 1.392 . S
C602 C603 1.385 . S
C602 C604 1.478 . S
C603 H597 0.930 . S
C603 C599 1.400 . S
C603 C602 1.385 . S
C604 C602 1.478 . S
C604 C606 1.381 . S
C604 C610 1.383 . S
C605 C601 1.495 . S
C605 H611 0.959 . S
C605 H612 0.961 . S
C605 H613 0.960 . S
C606 C604 1.381 . S
C606 C607 1.394 . S
C606 H614 0.930 . S
C607 C606 1.394 . S
C607 C608 1.383 . S
C607 H615 0.929 . S
C608 C607 1.383 . S
C608 C609 1.377 . S
C609 H593 0.930 . S
C609 C608 1.377 . S
C609 C610 1.379 . S
C610 H594 0.931 . S
C610 C604 1.383 . S
C610 C609 1.379 . S
H611 C605 0.959 . S
H612 C605 0.961 . S
H613 C605 0.960 . S
H614 C606 0.930 . S
H615 C607 0.929 . S
H616 C624 0.929 . S
H617 C626 0.930 . S
H618 C628 0.930 . S
H619 C631 0.929 . S
H620 C634 0.930 . S
H621 C636 0.960 . S
H622 C636 0.960 . S
H623 C636 0.960 . S
C624 H616 0.929 . S
C624 C625 1.377 . S
C624 C626 1.384 . S
C625 C624 1.377 . S
C625 C631 1.390 . S
C626 H617 0.930 . S
C626 C624 1.384 . S
C626 C627 1.372 . S
C627 C626 1.372 . S
C627 C628 1.400 . S
C627 C632 1.490 . S
C628 H618 0.930 . S
C628 C627 1.400 . S
C628 C631 1.386 . S
H629 C645 0.930 . S
H630 C646 0.931 . S
C631 H619 0.929 . S
C631 C625 1.390 . S
C631 C628 1.386 . S
C632 C627 1.490 . S
C632 C634 1.395 . S
C632 C635 1.403 . S
H633 C639 0.930 . S
C634 H620 0.930 . S
C634 C632 1.395 . S
C634 C637 1.403 . S
C635 C632 1.403 . S
C635 C636 1.524 . S
C635 C639 1.400 . S
C636 H621 0.960 . S
C636 H622 0.960 . S
C636 H623 0.960 . S
C636 C635 1.524 . S
C637 C634 1.403 . S
C637 C638 1.392 . S
C637 C641 1.495 . S
C638 C637 1.392 . S
C638 C639 1.385 . S
C638 C640 1.478 . S
C639 H633 0.930 . S
C639 C635 1.400 . S
C639 C638 1.385 . S
C640 C638 1.478 . S
C640 C642 1.381 . S
C640 C646 1.383 . S
C641 C637 1.495 . S
C641 H647 0.959 . S
C641 H648 0.961 . S
C641 H649 0.960 . S
C642 C640 1.381 . S
C642 C643 1.394 . S
C642 H650 0.930 . S
C643 C642 1.394 . S
C643 C644 1.383 . S
C643 H651 0.929 . S
C644 C643 1.383 . S
C644 C645 1.377 . S
C645 H629 0.930 . S
C645 C644 1.377 . S
C645 C646 1.379 . S
C646 H630 0.931 . S
C646 C640 1.383 . S
C646 C645 1.379 . S
H647 C641 0.959 . S
H648 C641 0.961 . S
H649 C641 0.960 . S
H650 C642 0.930 . S
H651 C643 0.929 . S
H652 C660 0.929 . S
H653 C662 0.930 . S
H654 C664 0.930 . S
H655 C667 0.929 . S
H656 C670 0.930 . S
H657 C672 0.960 . S
H658 C672 0.960 . S
H659 C672 0.960 . S
C660 H652 0.929 . S
C660 C661 1.377 . S
C660 C662 1.384 . S
C661 C660 1.377 . S
C661 C667 1.390 . S
C662 H653 0.930 . S
C662 C660 1.384 . S
C662 C663 1.372 . S
C663 C662 1.372 . S
C663 C664 1.400 . S
C663 C668 1.490 . S
C664 H654 0.930 . S
C664 C663 1.400 . S
C664 C667 1.386 . S
H665 C681 0.930 . S
H666 C682 0.931 . S
C667 H655 0.929 . S
C667 C661 1.390 . S
C667 C664 1.386 . S
C668 C663 1.490 . S
C668 C670 1.395 . S
C668 C671 1.403 . S
H669 C675 0.930 . S
C670 H656 0.930 . S
C670 C668 1.395 . S
C670 C673 1.403 . S
C671 C668 1.403 . S
C671 C672 1.524 . S
C671 C675 1.400 . S
C672 H657 0.960 . S
C672 H658 0.960 . S
C672 H659 0.960 . S
C672 C671 1.524 . S
C673 C670 1.403 . S
C673 C674 1.392 . S
C673 C677 1.495 . S
C674 C673 1.392 . S
C674 C675 1.385 . S
C674 C676 1.478 . S
C675 H669 0.930 . S
C675 C671 1.400 . S
C675 C674 1.385 . S
C676 C674 1.478 . S
C676 C678 1.381 . S
C676 C682 1.383 . S
C677 C673 1.495 . S
C677 H683 0.959 . S
C677 H684 0.961 . S
C677 H685 0.960 . S
C678 C676 1.381 . S
C678 C679 1.394 . S
C678 H686 0.930 . S
C679 C678 1.394 . S
C679 C680 1.383 . S
C679 H687 0.929 . S
C680 C679 1.383 . S
C680 C681 1.377 . S
C681 H665 0.930 . S
C681 C680 1.377 . S
C681 C682 1.379 . S
C682 H666 0.931 . S
C682 C676 1.383 . S
C682 C681 1.379 . S
H683 C677 0.959 . S
H684 C677 0.961 . S
H685 C677 0.960 . S
H686 C678 0.930 . S
H687 C679 0.929 . S
H688 C696 0.929 . S
H689 C698 0.930 . S
H690 C700 0.930 . S
H691 C703 0.929 . S
H692 C706 0.930 . S
H693 C708 0.960 . S
H694 C708 0.960 . S
H695 C708 0.960 . S
C696 H688 0.929 . S
C696 C697 1.377 . S
C696 C698 1.384 . S
C697 C696 1.377 . S
C697 C703 1.390 . S
C698 H689 0.930 . S
C698 C696 1.384 . S
C698 C699 1.372 . S
C699 C698 1.372 . S
C699 C700 1.400 . S
C699 C704 1.490 . S
C700 H690 0.930 . S
C700 C699 1.400 . S
C700 C703 1.386 . S
H701 C717 0.930 . S
H702 C718 0.931 . S
C703 H691 0.929 . S
C703 C697 1.390 . S
C703 C700 1.386 . S
C704 C699 1.490 . S
C704 C706 1.395 . S
C704 C707 1.403 . S
H705 C711 0.930 . S
C706 H692 0.930 . S
C706 C704 1.395 . S
C706 C709 1.403 . S
C707 C704 1.403 . S
C707 C708 1.524 . S
C707 C711 1.400 . S
C708 H693 0.960 . S
C708 H694 0.960 . S
C708 H695 0.960 . S
C708 C707 1.524 . S
C709 C706 1.403 . S
C709 C710 1.392 . S
C709 C713 1.495 . S
C710 C709 1.392 . S
C710 C711 1.385 . S
C710 C712 1.478 . S
C711 H705 0.930 . S
C711 C707 1.400 . S
C711 C710 1.385 . S
C712 C710 1.478 . S
C712 C714 1.381 . S
C712 C718 1.383 . S
C713 C709 1.495 . S
C713 H719 0.959 . S
C713 H720 0.961 . S
C713 H721 0.960 . S
C714 C712 1.381 . S
C714 C715 1.394 . S
C714 H722 0.930 . S
C715 C714 1.394 . S
C715 C716 1.383 . S
C715 H723 0.929 . S
C716 C715 1.383 . S
C716 C717 1.377 . S
C717 H701 0.930 . S
C717 C716 1.377 . S
C717 C718 1.379 . S
C718 H702 0.931 . S
C718 C712 1.383 . S
C718 C717 1.379 . S
H719 C713 0.959 . S
H720 C713 0.961 . S
H721 C713 0.960 . S
H722 C714 0.930 . S
H723 C715 0.929 . S
H724 C732 0.929 . S
H725 C734 0.930 . S
H726 C736 0.930 . S
H727 C739 0.929 . S
H728 C742 0.930 . S
H729 C744 0.960 . S
H730 C744 0.960 . S
H731 C744 0.960 . S
C732 H724 0.929 . S
C732 C733 1.377 . S
C732 C734 1.384 . S
C733 C732 1.377 . S
C733 C739 1.390 . S
C734 H725 0.930 . S
C734 C732 1.384 . S
C734 C735 1.372 . S
C735 C734 1.372 . S
C735 C736 1.400 . S
C735 C740 1.490 . S
C736 H726 0.930 . S
C736 C735 1.400 . S
C736 C739 1.386 . S
H737 C753 0.930 . S
H738 C754 0.931 . S
C739 H727 0.929 . S
C739 C733 1.390 . S
C739 C736 1.386 . S
C740 C735 1.490 . S
C740 C742 1.395 . S
C740 C743 1.403 . S
H741 C747 0.930 . S
C742 H728 0.930 . S
C742 C740 1.395 . S
C742 C745 1.403 . S
C743 C740 1.403 . S
C743 C744 1.524 . S
C743 C747 1.400 . S
C744 H729 0.960 . S
C744 H730 0.960 . S
C744 H731 0.960 . S
C744 C743 1.524 . S
C745 C742 1.403 . S
C745 C746 1.392 . S
C745 C749 1.495 . S
C746 C745 1.392 . S
C746 C747 1.385 . S
C746 C748 1.478 . S
C747 H741 0.930 . S
C747 C743 1.400 . S
C747 C746 1.385 . S
C748 C746 1.478 . S
C748 C750 1.381 . S
C748 C754 1.383 . S
C749 C745 1.495 . S
C749 H755 0.959 . S
C749 H756 0.961 . S
C749 H757 0.960 . S
C750 C748 1.381 . S
C750 C751 1.394 . S
C750 H758 0.930 . S
C751 C750 1.394 . S
C751 C752 1.383 . S
C751 H759 0.929 . S
C752 C751 1.383 . S
C752 C753 1.377 . S
C753 H737 0.930 . S
C753 C752 1.377 . S
C753 C754 1.379 . S
C754 H738 0.931 . S
C754 C748 1.383 . S
C754 C753 1.379 . S
H755 C749 0.959 . S
H756 C749 0.961 . S
H757 C749 0.960 . S
H758 C750 0.930 . S
H759 C751 0.929 . S
H760 C768 0.929 . S
H761 C770 0.930 . S
H762 C772 0.930 . S
H763 C775 0.929 . S
H764 C778 0.930 . S
H765 C780 0.960 . S
H766 C780 0.960 . S
H767 C780 0.960 . S
C768 H760 0.929 . S
C768 C769 1.377 . S
C768 C770 1.384 . S
C769 C768 1.377 . S
C769 C775 1.390 . S
C770 H761 0.930 . S
C770 C768 1.384 . S
C770 C771 1.372 . S
C771 C770 1.372 . S
C771 C772 1.400 . S
C771 C776 1.490 . S
C772 H762 0.930 . S
C772 C771 1.400 . S
C772 C775 1.386 . S
H773 C789 0.930 . S
H774 C790 0.931 . S
C775 H763 0.929 . S
C775 C769 1.390 . S
C775 C772 1.386 . S
C776 C771 1.490 . S
C776 C778 1.395 . S
C776 C779 1.403 . S
H777 C783 0.930 . S
C778 H764 0.930 . S
C778 C776 1.395 . S
C778 C781 1.403 . S
C779 C776 1.403 . S
C779 C780 1.524 . S
C779 C783 1.400 . S
C780 H765 0.960 . S
C780 H766 0.960 . S
C780 H767 0.960 . S
C780 C779 1.524 . S
C781 C778 1.403 . S
C781 C782 1.392 . S
C781 C785 1.495 . S
C782 C781 1.392 . S
C782 C783 1.385 . S
C782 C784 1.478 . S
C783 H777 0.930 . S
C783 C779 1.400 . S
C783 C782 1.385 . S
C784 C782 1.478 . S
C784 C786 1.381 . S
C784 C790 1.383 . S
C785 C781 1.495 . S
C785 H791 0.959 . S
C785 H792 0.961 . S
C785 H793 0.960 . S
C786 C784 1.381 . S
C786 C787 1.394 . S
C786 H794 0.930 . S
C787 C786 1.394 . S
C787 C788 1.383 . S
C787 H795 0.929 . S
C788 C787 1.383 . S
C788 C789 1.377 . S
C789 H773 0.930 . S
C789 C788 1.377 . S
C789 C790 1.379 . S
C790 H774 0.931 . S
C790 C784 1.383 . S
C790 C789 1.379 . S
H791 C785 0.959 . S
H792 C785 0.961 . S
H793 C785 0.960 . S
H794 C786 0.930 . S
H795 C787 0.929 . S
H796 C804 0.929 . S
H797 C806 0.930 . S
H798 C808 0.930 . S
H799 C811 0.929 . S
H800 C814 0.930 . S
H801 C816 0.960 . S
H802 C816 0.960 . S
H803 C816 0.960 . S
C804 H796 0.929 . S
C804 C805 1.377 . S
C804 C806 1.384 . S
C805 C804 1.377 . S
C805 C811 1.390 . S
C806 H797 0.930 . S
C806 C804 1.384 . S
C806 C807 1.372 . S
C807 C806 1.372 . S
C807 C808 1.400 . S
C807 C812 1.490 . S
C808 H798 0.930 . S
C808 C807 1.400 . S
C808 C811 1.386 . S
H809 C825 0.930 . S
H810 C826 0.931 . S
C811 H799 0.929 . S
C811 C805 1.390 . S
C811 C808 1.386 . S
C812 C807 1.490 . S
C812 C814 1.395 . S
C812 C815 1.403 . S
H813 C819 0.930 . S
C814 H800 0.930 . S
C814 C812 1.395 . S
C814 C817 1.403 . S
C815 C812 1.403 . S
C815 C816 1.524 . S
C815 C819 1.400 . S
C816 H801 0.960 . S
C816 H802 0.960 . S
C816 H803 0.960 . S
C816 C815 1.524 . S
C817 C814 1.403 . S
C817 C818 1.392 . S
C817 C821 1.495 . S
C818 C817 1.392 . S
C818 C819 1.385 . S
C818 C820 1.478 . S
C819 H813 0.930 . S
C819 C815 1.400 . S
C819 C818 1.385 . S
C820 C818 1.478 . S
C820 C822 1.381 . S
C820 C826 1.383 . S
C821 C817 1.495 . S
C821 H827 0.959 . S
C821 H828 0.961 . S
C821 H829 0.960 . S
C822 C820 1.381 . S
C822 C823 1.394 . S
C822 H830 0.930 . S
C823 C822 1.394 . S
C823 C824 1.383 . S
C823 H831 0.929 . S
C824 C823 1.383 . S
C824 C825 1.377 . S
C825 H809 0.930 . S
C825 C824 1.377 . S
C825 C826 1.379 . S
C826 H810 0.931 . S
C826 C820 1.383 . S
C826 C825 1.379 . S
H827 C821 0.959 . S
H828 C821 0.961 . S
H829 C821 0.960 . S
H830 C822 0.930 . S
H831 C823 0.929 . S
H832 C840 0.929 . S
H833 C842 0.930 . S
H834 C844 0.930 . S
H835 C847 0.929 . S
H836 C850 0.930 . S
H837 C852 0.960 . S
H838 C852 0.960 . S
H839 C852 0.960 . S
C840 H832 0.929 . S
C840 C841 1.377 . S
C840 C842 1.384 . S
C841 C840 1.377 . S
C841 C847 1.390 1_565 S
C842 H833 0.930 . S
C842 C840 1.384 . S
C842 C843 1.372 . S
C843 C842 1.372 . S
C843 C844 1.400 1_565 S
C843 C848 1.490 . S
C844 H834 0.930 . S
C844 C843 1.400 1_545 S
C844 C847 1.386 . S
H845 C861 0.930 . S
H846 C862 0.931 . S
C847 H835 0.929 . S
C847 C841 1.390 1_545 S
C847 C844 1.386 . S
C848 C843 1.490 . S
C848 C850 1.395 . S
C848 C851 1.403 1_566 S
H849 C855 0.930 . S
C850 H836 0.930 . S
C850 C848 1.395 . S
C850 C853 1.403 . S
C851 C848 1.403 1_544 S
C851 C852 1.524 . S
C851 C855 1.400 . S
C852 H837 0.960 . S
C852 H838 0.960 . S
C852 H839 0.960 . S
C852 C851 1.524 . S
C853 C850 1.403 . S
C853 C854 1.390 1_566 S
C853 C857 1.495 . S
C854 C853 1.390 1_544 S
C854 C855 1.387 . S
C854 C856 1.478 . S
C855 H849 0.930 . S
C855 C851 1.400 . S
C855 C854 1.387 . S
C856 C854 1.478 . S
C856 C858 1.381 1_545 S
C856 C862 1.383 . S
C857 C853 1.495 . S
C857 H863 0.959 . S
C857 H864 0.961 . S
C857 H865 0.960 . S
C858 C856 1.381 1_565 S
C858 C859 1.394 . S
C858 H866 0.930 . S
C859 C858 1.394 . S
C859 C860 1.383 1_565 S
C859 H867 0.929 . S
C860 C859 1.383 1_545 S
C860 C861 1.377 . S
C861 H845 0.930 . S
C861 C860 1.377 . S
C861 C862 1.379 . S
C862 H846 0.931 . S
C862 C856 1.383 . S
C862 C861 1.379 . S
H863 C857 0.959 . S
H864 C857 0.961 . S
H865 C857 0.960 . S
H866 C858 0.930 . S
H867 C859 0.929 . S
H868 C876 0.929 . S
H869 C878 0.930 . S
H870 C880 0.930 . S
H871 C883 0.929 . S
H872 C886 0.930 . S
H873 C888 0.960 . S
H874 C888 0.960 . S
H875 C888 0.960 . S
C876 H868 0.929 . S
C876 C877 1.377 . S
C876 C878 1.384 . S
C877 C876 1.377 . S
C877 C883 1.390 . S
C878 H869 0.930 . S
C878 C876 1.384 . S
C878 C879 1.372 . S
C879 C878 1.372 . S
C879 C880 1.400 . S
C879 C884 1.490 . S
C880 H870 0.930 . S
C880 C879 1.400 . S
C880 C883 1.386 . S
H881 C897 0.930 . S
H882 C898 0.931 . S
C883 H871 0.929 . S
C883 C877 1.390 . S
C883 C880 1.386 . S
C884 C879 1.490 . S
C884 C886 1.395 1_556 S
C884 C887 1.403 . S
H885 C891 0.930 . S
C886 H872 0.930 . S
C886 C884 1.395 1_554 S
C886 C889 1.403 . S
C887 C884 1.403 . S
C887 C888 1.524 . S
C887 C891 1.400 . S
C888 H873 0.960 . S
C888 H874 0.960 . S
C888 H875 0.960 . S
C888 C887 1.524 . S
C889 C886 1.403 . S
C889 C890 1.392 . S
C889 C893 1.495 . S
C890 C889 1.392 . S
C890 C891 1.385 1_554 S
C890 C892 1.478 . S
C891 H885 0.930 . S
C891 C887 1.400 . S
C891 C890 1.385 1_556 S
C892 C890 1.478 . S
C892 C894 1.381 . S
C892 C898 1.383 . S
C893 C889 1.495 . S
C893 H899 0.959 . S
C893 H900 0.961 . S
C893 H901 0.960 . S
C894 C892 1.381 . S
C894 C895 1.394 . S
C894 H902 0.930 . S
C895 C894 1.394 . S
C895 C896 1.383 . S
C895 H903 0.929 . S
C896 C895 1.383 . S
C896 C897 1.377 . S
C897 H881 0.930 . S
C897 C896 1.377 . S
C897 C898 1.379 . S
C898 H882 0.931 . S
C898 C892 1.383 . S
C898 C897 1.379 . S
H899 C893 0.959 . S
H900 C893 0.961 . S
H901 C893 0.960 . S
H902 C894 0.930 . S
H903 C895 0.929 . S
H904 C912 0.929 . S
H905 C914 0.933 . S
H906 C916 0.930 . S
H907 C919 0.929 . S
H908 C922 0.930 . S
H909 C924 0.960 . S
H910 C924 0.960 . S
H911 C924 0.960 . S
C912 H904 0.929 . S
C912 C913 1.377 . S
C912 C914 1.384 . S
C913 C912 1.377 . S
C913 C919 1.390 . S
C914 H905 0.933 . S
C914 C912 1.384 . S
C914 C915 1.372 . S
C915 C914 1.372 . S
C915 C916 1.400 . S
C915 C920 1.490 . S
C916 H906 0.930 . S
C916 C915 1.400 . S
C916 C919 1.386 . S
H917 C933 0.930 . S
H918 C934 0.953 . S
C919 H907 0.929 . S
C919 C913 1.390 . S
C919 C916 1.386 . S
C920 C915 1.490 . S
C920 C922 1.395 . S
C920 C923 1.403 . S
H921 C927 0.930 . S
C922 H908 0.930 . S
C922 C920 1.395 . S
C922 C925 1.403 1_456 S
C923 C920 1.403 . S
C923 C924 1.524 . S
C923 C927 1.400 1_456 S
C924 H909 0.960 . S
C924 H910 0.960 . S
C924 H911 0.960 . S
C924 C923 1.524 . S
C925 C922 1.403 1_654 S
C925 C926 1.392 . S
C925 C929 1.495 . S
C926 C925 1.392 . S
C926 C927 1.385 . S
C926 C928 1.478 . S
C927 H921 0.930 . S
C927 C923 1.400 1_654 S
C927 C926 1.385 . S
C928 C926 1.478 . S
C928 C930 1.381 . S
C928 C934 1.383 . S
C929 C925 1.495 . S
C929 H935 0.959 . S
C929 H936 0.961 . S
C929 H937 0.960 . S
C930 C928 1.381 . S
C930 C931 1.394 . S
C930 H938 0.930 . S
C931 C930 1.394 . S
C931 C932 1.383 . S
C931 H939 0.929 . S
C932 C931 1.383 . S
C932 C933 1.377 . S
C933 H917 0.930 . S
C933 C932 1.377 . S
C933 C934 1.379 . S
C934 H918 0.953 . S
C934 C928 1.383 . S
C934 C933 1.379 . S
H935 C929 0.959 . S
H936 C929 0.961 . S
H937 C929 0.960 . S
H938 C930 0.930 . S
H939 C931 0.929 . S
H940 C948 0.929 . S
H941 C950 0.930 . S
H942 C952 0.930 . S
H943 C955 0.929 . S
H944 C958 0.930 . S
H945 C960 0.960 . S
H946 C960 0.960 . S
H947 C960 0.960 1_556 S
C948 H940 0.929 . S
C948 C949 1.377 . S
C948 C950 1.384 . S
C949 C948 1.377 . S
C949 C955 1.390 1_655 S
C950 H941 0.930 . S
C950 C948 1.384 . S
C950 C951 1.372 . S
C951 C950 1.372 . S
C951 C952 1.400 1_655 S
C951 C956 1.490 . S
C952 H942 0.930 . S
C952 C951 1.400 1_455 S
C952 C955 1.386 . S
H953 C969 0.930 . S
H954 C970 0.931 . S
C955 H943 0.929 . S
C955 C949 1.390 1_455 S
C955 C952 1.386 . S
C956 C951 1.490 . S
C956 C958 1.395 . S
C956 C959 1.403 1_656 S
H957 C963 0.930 . S
C958 H944 0.930 . S
C958 C956 1.395 . S
C958 C961 1.403 1_545 S
C959 C956 1.403 1_454 S
C959 C960 1.524 . S
C959 C963 1.400 1_545 S
C960 H945 0.960 . S
C960 H946 0.960 . S
C960 H947 0.960 1_554 S
C960 C959 1.524 . S
C961 C958 1.403 1_565 S
C961 C962 1.431 1_556 S
C961 C965 1.495 . S
C962 C961 1.431 1_554 S
C962 C963 1.352 1_655 S
C962 C964 1.471 1_655 S
C963 H957 0.930 . S
C963 C959 1.400 1_565 S
C963 C962 1.352 1_455 S
C964 C962 1.471 1_455 S
C964 C966 1.381 1_455 S
C964 C970 1.383 . S
C965 C961 1.495 . S
C965 H971 0.959 . S
C965 H972 0.961 . S
C965 H973 0.960 1_556 S
C966 C964 1.381 1_655 S
C966 C967 1.394 . S
C966 H974 0.930 . S
C967 C966 1.394 . S
C967 C968 1.383 1_655 S
C967 H975 0.929 . S
C968 C967 1.383 1_455 S
C968 C969 1.377 . S
C969 H953 0.930 . S
C969 C968 1.377 . S
C969 C970 1.379 . S
C970 H954 0.931 . S
C970 C964 1.383 . S
C970 C969 1.379 . S
H971 C965 0.959 . S
H972 C965 0.961 . S
H973 C965 0.960 1_554 S
H974 C966 0.930 . S
H975 C967 0.929 . S
H976 C984 0.929 . S
H977 C986 0.930 . S
H978 C988 0.930 . S
H979 C991 0.929 . S
H980 C994 0.930 . S
H981 C996 0.960 . S
H982 C996 0.960 . S
H983 C996 0.960 . S
C984 H976 0.929 . S
C984 C985 1.377 . S
C984 C986 1.384 . S
C985 C984 1.377 . S
C985 C991 1.390 . S
C986 H977 0.930 . S
C986 C984 1.384 . S
C986 C987 1.372 . S
C987 C986 1.372 . S
C987 C988 1.400 . S
C987 C992 1.490 . S
C988 H978 0.930 . S
C988 C987 1.400 . S
C988 C991 1.386 . S
H989 C1005 0.930 . S
H990 C1006 0.931 . S
C991 H979 0.929 . S
C991 C985 1.390 . S
C991 C988 1.386 . S
C992 C987 1.490 . S
C992 C994 1.395 . S
C992 C995 1.403 . S
H993 C999 0.930 . S
C994 H980 0.930 . S
C994 C992 1.395 . S
C994 C997 1.403 . S
C995 C992 1.403 . S
C995 C996 1.524 . S
C995 C999 1.400 . S
C996 H981 0.960 . S
C996 H982 0.960 . S
C996 H983 0.960 . S
C996 C995 1.524 . S
C997 C994 1.403 . S
C997 C998 1.392 . S
C997 C1001 1.495 . S
C998 C997 1.392 . S
C998 C999 1.385 . S
C998 C1000 1.478 . S
C999 H993 0.930 . S
C999 C995 1.400 . S
C999 C998 1.385 . S
C1000 C998 1.478 . S
C1000 C1002 1.381 . S
C1000 C1006 1.383 . S
C1001 C997 1.495 . S
C1001 H1007 0.959 . S
C1001 H1008 0.961 . S
C1001 H1009 0.960 . S
C1002 C1000 1.381 . S
C1002 C1003 1.394 . S
C1002 H1010 0.930 . S
C1003 C1002 1.394 . S
C1003 C1004 1.383 . S
C1003 H1011 0.929 . S
C1004 C1003 1.383 . S
C1004 C1005 1.377 . S
C1005 H989 0.930 . S
C1005 C1004 1.377 . S
C1005 C1006 1.379 . S
C1006 H990 0.931 . S
C1006 C1000 1.383 . S
C1006 C1005 1.379 . S
H1007 C1001 0.959 . S
H1008 C1001 0.961 . S
H1009 C1001 0.960 . S
H1010 C1002 0.930 . S
H1011 C1003 0.929 . S
H1012 C1020 0.929 . S
H1013 C1022 0.930 . S
H1014 C1024 0.940 . S
H1015 C1027 0.929 . S
H1016 C1030 0.930 . S
H1017 C1032 0.960 . S
H1018 C1032 0.960 . S
H1019 C1032 0.960 . S
C1020 H1012 0.929 . S
C1020 C1021 1.377 . S
C1020 C1022 1.384 . S
C1021 C1020 1.377 . S
C1021 C1027 1.390 . S
C1022 H1013 0.930 . S
C1022 C1020 1.384 . S
C1022 C1023 1.372 . S
C1023 C1022 1.372 . S
C1023 C1024 1.400 . S
C1023 C1028 1.490 . S
C1024 H1014 0.940 . S
C1024 C1023 1.400 . S
C1024 C1027 1.386 . S
H1025 C1041 0.930 . S
H1026 C1042 0.931 . S
C1027 H1015 0.929 . S
C1027 C1021 1.390 . S
C1027 C1024 1.386 . S
C1028 C1023 1.490 . S
C1028 C1030 1.395 1_655 S
C1028 C1031 1.403 . S
H1029 C1035 0.930 . S
C1030 H1016 0.930 . S
C1030 C1028 1.395 1_455 S
C1030 C1033 1.403 . S
C1031 C1028 1.403 . S
C1031 C1032 1.524 . S
C1031 C1035 1.400 . S
C1032 H1017 0.960 . S
C1032 H1018 0.960 . S
C1032 H1019 0.960 . S
C1032 C1031 1.524 . S
C1033 C1030 1.403 . S
C1033 C1034 1.392 . S
C1033 C1037 1.495 . S
C1034 C1033 1.392 . S
C1034 C1035 1.385 1_455 S
C1034 C1036 1.478 . S
C1035 H1029 0.930 . S
C1035 C1031 1.400 . S
C1035 C1034 1.385 1_655 S
C1036 C1034 1.478 . S
C1036 C1038 1.381 . S
C1036 C1042 1.383 . S
C1037 C1033 1.495 . S
C1037 H1043 0.959 . S
C1037 H1044 0.961 . S
C1037 H1045 0.960 . S
C1038 C1036 1.381 . S
C1038 C1039 1.394 . S
C1038 H1046 0.930 1_455 S
C1039 C1038 1.394 . S
C1039 C1040 1.383 . S
C1039 H1047 0.929 . S
C1040 C1039 1.383 . S
C1040 C1041 1.377 . S
C1041 H1025 0.930 . S
C1041 C1040 1.377 . S
C1041 C1042 1.379 . S
C1042 H1026 0.931 . S
C1042 C1036 1.383 . S
C1042 C1041 1.379 . S
H1043 C1037 0.959 . S
H1044 C1037 0.961 . S
H1045 C1037 0.960 . S
H1046 C1038 0.930 1_655 S
H1047 C1039 0.929 . S
H1048 C1056 0.929 . S
H1049 C1058 0.930 1_565 S
H1050 C1060 0.930 . S
H1051 C1063 0.929 . S
H1052 C1066 0.930 . S
H1053 C1068 0.960 1_455 S
H1054 C1068 0.960 . S
H1055 C1068 0.960 . S
C1056 H1048 0.929 . S
C1056 C1057 1.377 . S
C1056 C1058 1.384 . S
C1057 C1056 1.377 . S
C1057 C1063 1.390 . S
C1058 H1049 0.930 1_545 S
C1058 C1056 1.384 . S
C1058 C1059 1.372 . S
C1059 C1058 1.372 . S
C1059 C1060 1.400 . S
C1059 C1064 1.490 . S
C1060 H1050 0.930 . S
C1060 C1059 1.400 . S
C1060 C1063 1.386 . S
H1061 C1077 0.930 . S
H1062 C1078 0.931 . S
C1063 H1051 0.929 . S
C1063 C1057 1.390 . S
C1063 C1060 1.386 . S
C1064 C1059 1.490 . S
C1064 C1066 1.395 1_545 S
C1064 C1067 1.403 . S
H1065 C1071 0.930 . S
C1066 H1052 0.930 . S
C1066 C1064 1.395 1_565 S
C1066 C1069 1.403 1_655 S
C1067 C1064 1.403 . S
C1067 C1068 1.524 . S
C1067 C1071 1.400 1_655 S
C1068 H1053 0.960 1_655 S
C1068 H1054 0.960 . S
C1068 H1055 0.960 . S
C1068 C1067 1.524 . S
C1069 C1066 1.403 1_455 S
C1069 C1070 1.392 . S
C1069 C1073 1.495 . S
C1070 C1069 1.392 . S
C1070 C1071 1.385 1_565 S
C1070 C1072 1.478 . S
C1071 H1065 0.930 . S
C1071 C1067 1.400 1_455 S
C1071 C1070 1.385 1_545 S
C1072 C1070 1.478 . S
C1072 C1074 1.381 . S
C1072 C1078 1.383 . S
C1073 C1069 1.495 . S
C1073 H1079 0.959 1_455 S
C1073 H1080 0.961 . S
C1073 H1081 0.960 . S
C1074 C1072 1.381 . S
C1074 C1075 1.394 . S
C1074 H1082 0.930 . S
C1075 C1074 1.394 . S
C1075 C1076 1.383 . S
C1075 H1083 0.929 . S
C1076 C1075 1.383 . S
C1076 C1077 1.377 . S
C1077 H1061 0.930 . S
C1077 C1076 1.377 . S
C1077 C1078 1.379 . S
C1078 H1062 0.931 . S
C1078 C1072 1.383 . S
C1078 C1077 1.379 . S
H1079 C1073 0.959 1_655 S
H1080 C1073 0.961 . S
H1081 C1073 0.960 . S
H1082 C1074 0.930 . S
H1083 C1075 0.929 . S
H1084 C1092 0.929 . S
H1085 C1094 0.930 . S
H1086 C1096 0.930 . S
H1087 C1099 0.929 . S
H1088 C1102 0.930 . S
H1089 C1104 0.960 . S
H1090 C1104 0.958 1_565 S
H1091 C1104 0.960 1_565 S
C1092 H1084 0.929 . S
C1092 C1093 1.377 . S
C1092 C1094 1.384 . S
C1093 C1092 1.377 . S
C1093 C1099 1.390 . S
C1094 H1085 0.930 . S
C1094 C1092 1.384 . S
C1094 C1095 1.372 . S
C1095 C1094 1.372 . S
C1095 C1096 1.400 . S
C1095 C1100 1.490 . S
C1096 H1086 0.930 . S
C1096 C1095 1.400 . S
C1096 C1099 1.386 . S
H1097 C1113 0.930 . S
H1098 C1114 0.931 . S
C1099 H1087 0.929 . S
C1099 C1093 1.390 . S
C1099 C1096 1.386 . S
C1100 C1095 1.490 . S
C1100 C1102 1.395 . S
C1100 C1103 1.423 . S
H1101 C1107 0.930 . S
C1102 H1088 0.930 . S
C1102 C1100 1.395 . S
C1102 C1105 1.421 . S
C1103 C1100 1.423 . S
C1103 C1104 1.522 1_565 S
C1103 C1107 1.380 1_565 S
C1104 H1089 0.960 . S
C1104 H1090 0.958 1_545 S
C1104 H1091 0.960 1_545 S
C1104 C1103 1.522 1_545 S
C1105 C1102 1.421 . S
C1105 C1106 1.375 1_565 S
C1105 C1109 1.496 . S
C1106 C1105 1.375 1_545 S
C1106 C1107 1.385 . S
C1106 C1108 1.478 . S
C1107 H1101 0.930 . S
C1107 C1103 1.380 1_545 S
C1107 C1106 1.385 . S
C1108 C1106 1.478 . S
C1108 C1110 1.381 . S
C1108 C1114 1.383 . S
C1109 C1105 1.496 . S
C1109 H1115 0.959 . S
C1109 H1116 0.959 1_565 S
C1109 H1117 0.960 1_565 S
C1110 C1108 1.381 . S
C1110 C1111 1.394 . S
C1110 H1118 0.930 . S
C1111 C1110 1.394 . S
C1111 C1112 1.383 . S
C1111 H1119 0.929 . S
C1112 C1111 1.383 . S
C1112 C1113 1.377 . S
C1113 H1097 0.930 . S
C1113 C1112 1.377 . S
C1113 C1114 1.379 . S
C1114 H1098 0.931 . S
C1114 C1108 1.383 . S
C1114 C1113 1.379 . S
H1115 C1109 0.959 . S
H1116 C1109 0.959 1_545 S
H1117 C1109 0.960 1_545 S
H1118 C1110 0.930 . S
H1119 C1111 0.929 . S
H1120 C1128 0.929 . S
H1121 C1130 0.930 . S
H1122 C1132 0.930 . S
H1123 C1135 0.929 . S
H1124 C1138 0.930 . S
H1125 C1140 0.960 . S
H1126 C1140 0.960 . S
H1127 C1140 0.960 . S
C1128 H1120 0.929 . S
C1128 C1129 1.377 . S
C1128 C1130 1.384 . S
C1129 C1128 1.377 . S
C1129 C1135 1.390 . S
C1130 H1121 0.930 . S
C1130 C1128 1.384 . S
C1130 C1131 1.372 . S
C1131 C1130 1.372 . S
C1131 C1132 1.400 . S
C1131 C1136 1.490 . S
C1132 H1122 0.930 . S
C1132 C1131 1.400 . S
C1132 C1135 1.386 . S
H1133 C1149 0.930 . S
H1134 C1150 0.931 . S
C1135 H1123 0.929 . S
C1135 C1129 1.390 . S
C1135 C1132 1.386 . S
C1136 C1131 1.490 . S
C1136 C1138 1.395 1_556 S
C1136 C1139 1.403 . S
H1137 C1143 0.930 . S
C1138 H1124 0.930 . S
C1138 C1136 1.395 1_554 S
C1138 C1141 1.403 . S
C1139 C1136 1.403 . S
C1139 C1140 1.524 . S
C1139 C1143 1.400 . S
C1140 H1125 0.960 . S
C1140 H1126 0.960 . S
C1140 H1127 0.960 . S
C1140 C1139 1.524 . S
C1141 C1138 1.403 . S
C1141 C1142 1.392 . S
C1141 C1145 1.495 . S
C1142 C1141 1.392 . S
C1142 C1143 1.385 1_554 S
C1142 C1144 1.478 . S
C1143 H1137 0.930 . S
C1143 C1139 1.400 . S
C1143 C1142 1.385 1_556 S
C1144 C1142 1.478 . S
C1144 C1146 1.381 . S
C1144 C1150 1.383 . S
C1145 C1141 1.495 . S
C1145 H1151 0.959 . S
C1145 H1152 0.961 . S
C1145 H1153 0.960 . S
C1146 C1144 1.381 . S
C1146 C1147 1.394 . S
C1146 H1154 0.930 . S
C1147 C1146 1.394 . S
C1147 C1148 1.383 . S
C1147 H1155 0.929 . S
C1148 C1147 1.383 . S
C1148 C1149 1.377 . S
C1149 H1133 0.930 . S
C1149 C1148 1.377 . S
C1149 C1150 1.379 . S
C1150 H1134 0.931 . S
C1150 C1144 1.383 . S
C1150 C1149 1.379 . S
H1151 C1145 0.959 . S
H1152 C1145 0.961 . S
H1153 C1145 0.960 . S
H1154 C1146 0.930 . S
H1155 C1147 0.929 . S
H1156 C1164 0.929 . S
H1157 C1166 0.930 . S
H1158 C1168 0.930 1_554 S
H1159 C1171 0.929 . S
H1160 C1174 0.930 . S
H1161 C1176 0.960 . S
H1162 C1176 0.960 . S
H1163 C1176 0.960 . S
C1164 H1156 0.929 . S
C1164 C1165 1.377 . S
C1164 C1166 1.384 . S
C1165 C1164 1.377 . S
C1165 C1171 1.390 . S
C1166 H1157 0.930 . S
C1166 C1164 1.384 . S
C1166 C1167 1.372 . S
C1167 C1166 1.372 . S
C1167 C1168 1.400 . S
C1167 C1172 1.490 . S
C1168 H1158 0.930 1_556 S
C1168 C1167 1.400 . S
C1168 C1171 1.386 . S
H1169 C1185 0.930 . S
H1170 C1186 0.931 . S
C1171 H1159 0.929 . S
C1171 C1165 1.390 . S
C1171 C1168 1.386 . S
C1172 C1167 1.490 . S
C1172 C1174 1.395 . S
C1172 C1175 1.403 1_556 S
H1173 C1179 0.930 . S
C1174 H1160 0.930 . S
C1174 C1172 1.395 . S
C1174 C1177 1.403 . S
C1175 C1172 1.403 1_554 S
C1175 C1176 1.524 . S
C1175 C1179 1.400 . S
C1176 H1161 0.960 . S
C1176 H1162 0.960 . S
C1176 H1163 0.960 . S
C1176 C1175 1.524 . S
C1177 C1174 1.403 . S
C1177 C1178 1.392 1_556 S
C1177 C1181 1.495 . S
C1178 C1177 1.392 1_554 S
C1178 C1179 1.385 . S
C1178 C1180 1.478 . S
C1179 H1173 0.930 . S
C1179 C1175 1.400 . S
C1179 C1178 1.385 . S
C1180 C1178 1.478 . S
C1180 C1182 1.381 . S
C1180 C1186 1.383 . S
C1181 C1177 1.495 . S
C1181 H1187 0.959 . S
C1181 H1188 0.961 . S
C1181 H1189 0.960 . S
C1182 C1180 1.381 . S
C1182 C1183 1.394 . S
C1182 H1190 0.968 . S
C1183 C1182 1.394 . S
C1183 C1184 1.383 . S
C1183 H1191 0.929 . S
C1184 C1183 1.383 . S
C1184 C1185 1.377 . S
C1185 H1169 0.930 . S
C1185 C1184 1.377 . S
C1185 C1186 1.379 . S
C1186 H1170 0.931 . S
C1186 C1180 1.383 . S
C1186 C1185 1.379 . S
H1187 C1181 0.959 . S
H1188 C1181 0.961 . S
H1189 C1181 0.960 . S
H1190 C1182 0.968 . S
H1191 C1183 0.929 . S
H1192 C1200 0.929 . S
H1193 C1202 0.930 . S
H1194 C1204 0.930 . S
H1195 C1207 0.929 . S
H1196 C1210 0.930 . S
H1197 C1212 0.960 . S
H1198 C1212 0.960 . S
H1199 C1212 0.960 . S
C1200 H1192 0.929 . S
C1200 C1201 1.377 . S
C1200 C1202 1.384 . S
C1201 C1200 1.377 . S
C1201 C1207 1.390 . S
C1202 H1193 0.930 . S
C1202 C1200 1.384 . S
C1202 C1203 1.372 . S
C1203 C1202 1.372 . S
C1203 C1204 1.400 . S
C1203 C1208 1.490 . S
C1204 H1194 0.930 . S
C1204 C1203 1.400 . S
C1204 C1207 1.386 . S
H1205 C1221 0.930 . S
H1206 C1222 0.931 . S
C1207 H1195 0.929 . S
C1207 C1201 1.390 . S
C1207 C1204 1.386 . S
C1208 C1203 1.490 . S
C1208 C1210 1.395 1_556 S
C1208 C1211 1.403 . S
H1209 C1215 0.926 1_556 S
C1210 H1196 0.930 . S
C1210 C1208 1.395 1_554 S
C1210 C1213 1.403 . S
C1211 C1208 1.403 . S
C1211 C1212 1.524 . S
C1211 C1215 1.379 1_556 S
C1212 H1197 0.960 . S
C1212 H1198 0.960 . S
C1212 H1199 0.960 . S
C1212 C1211 1.524 . S
C1213 C1210 1.403 . S
C1213 C1214 1.392 . S
C1213 C1217 1.495 . S
C1214 C1213 1.392 . S
C1214 C1215 1.411 . S
C1214 C1216 1.478 . S
C1215 H1209 0.926 1_554 S
C1215 C1211 1.379 1_554 S
C1215 C1214 1.411 . S
C1216 C1214 1.478 . S
C1216 C1218 1.381 . S
C1216 C1222 1.383 . S
C1217 C1213 1.495 . S
C1217 H1223 0.959 . S
C1217 H1224 0.961 . S
C1217 H1225 0.960 . S
C1218 C1216 1.381 . S
C1218 C1219 1.394 . S
C1218 H1226 0.930 . S
C1219 C1218 1.394 . S
C1219 C1220 1.383 . S
C1219 H1227 0.929 . S
C1220 C1219 1.383 . S
C1220 C1221 1.377 . S
C1221 H1205 0.930 . S
C1221 C1220 1.377 . S
C1221 C1222 1.379 . S
C1222 H1206 0.931 . S
C1222 C1216 1.383 . S
C1222 C1221 1.379 . S
H1223 C1217 0.959 . S
H1224 C1217 0.961 . S
H1225 C1217 0.960 . S
H1226 C1218 0.930 . S
H1227 C1219 0.929 . S
H1228 C1236 0.929 . S
H1229 C1238 0.930 . S
H1230 C1240 0.930 . S
H1231 C1243 0.929 . S
H1232 C1246 0.930 . S
H1233 C1248 0.960 . S
H1234 C1248 0.960 . S
H1235 C1248 0.960 . S
C1236 H1228 0.929 . S
C1236 C1237 1.377 . S
C1236 C1238 1.384 . S
C1237 C1236 1.377 . S
C1237 C1243 1.390 . S
C1238 H1229 0.930 . S
C1238 C1236 1.384 . S
C1238 C1239 1.372 . S
C1239 C1238 1.372 . S
C1239 C1240 1.400 . S
C1239 C1244 1.490 . S
C1240 H1230 0.930 . S
C1240 C1239 1.400 . S
C1240 C1243 1.386 . S
H1241 C1257 0.930 . S
H1242 C1258 0.931 . S
C1243 H1231 0.929 . S
C1243 C1237 1.390 . S
C1243 C1240 1.386 . S
C1244 C1239 1.490 . S
C1244 C1246 1.395 1_556 S
C1244 C1247 1.403 . S
H1245 C1251 0.930 . S
C1246 H1232 0.930 . S
C1246 C1244 1.395 1_554 S
C1246 C1249 1.403 . S
C1247 C1244 1.403 . S
C1247 C1248 1.524 . S
C1247 C1251 1.400 1_556 S
C1248 H1233 0.960 . S
C1248 H1234 0.960 . S
C1248 H1235 0.960 . S
C1248 C1247 1.524 . S
C1249 C1246 1.403 . S
C1249 C1250 1.392 . S
C1249 C1253 1.495 . S
C1250 C1249 1.392 . S
C1250 C1251 1.385 . S
C1250 C1252 1.478 . S
C1251 H1245 0.930 . S
C1251 C1247 1.400 1_554 S
C1251 C1250 1.385 . S
C1252 C1250 1.478 . S
C1252 C1254 1.381 . S
C1252 C1258 1.383 . S
C1253 C1249 1.495 . S
C1253 H1259 0.959 . S
C1253 H1260 0.961 . S
C1253 H1261 0.960 . S
C1254 C1252 1.381 . S
C1254 C1255 1.394 . S
C1254 H1262 0.930 . S
C1255 C1254 1.394 . S
C1255 C1256 1.383 . S
C1255 H1263 0.929 . S
C1256 C1255 1.383 . S
C1256 C1257 1.377 . S
C1257 H1241 0.930 . S
C1257 C1256 1.377 . S
C1257 C1258 1.379 . S
C1258 H1242 0.931 . S
C1258 C1252 1.383 . S
C1258 C1257 1.379 . S
H1259 C1253 0.959 . S
H1260 C1253 0.961 . S
H1261 C1253 0.960 . S
H1262 C1254 0.930 . S
H1263 C1255 0.929 . S
H1264 C1272 0.929 . S
H1265 C1274 0.930 . S
H1266 C1276 0.930 . S
H1267 C1279 0.929 . S
H1268 C1282 0.930 . S
H1269 C1284 0.960 . S
H1270 C1284 0.960 . S
H1271 C1284 0.960 . S
C1272 H1264 0.929 . S
C1272 C1273 1.377 . S
C1272 C1274 1.384 . S
C1273 C1272 1.377 . S
C1273 C1279 1.390 . S
C1274 H1265 0.930 . S
C1274 C1272 1.384 . S
C1274 C1275 1.372 . S
C1275 C1274 1.372 . S
C1275 C1276 1.400 . S
C1275 C1280 1.490 . S
C1276 H1266 0.930 . S
C1276 C1275 1.400 . S
C1276 C1279 1.386 . S
H1277 C1293 0.930 . S
H1278 C1294 0.931 . S
C1279 H1267 0.929 . S
C1279 C1273 1.390 . S
C1279 C1276 1.386 . S
C1280 C1275 1.490 . S
C1280 C1282 1.395 . S
C1280 C1283 1.403 . S
H1281 C1287 0.930 . S
C1282 H1268 0.930 . S
C1282 C1280 1.395 . S
C1282 C1285 1.403 . S
C1283 C1280 1.403 . S
C1283 C1284 1.524 . S
C1283 C1287 1.400 . S
C1284 H1269 0.960 . S
C1284 H1270 0.960 . S
C1284 H1271 0.960 . S
C1284 C1283 1.524 . S
C1285 C1282 1.403 . S
C1285 C1286 1.392 . S
C1285 C1289 1.495 . S
C1286 C1285 1.392 . S
C1286 C1287 1.385 . S
C1286 C1288 1.478 . S
C1287 H1281 0.930 . S
C1287 C1283 1.400 . S
C1287 C1286 1.385 . S
C1288 C1286 1.478 . S
C1288 C1290 1.381 . S
C1288 C1294 1.383 . S
C1289 C1285 1.495 . S
C1289 H1295 0.959 . S
C1289 H1296 0.961 . S
C1289 H1297 0.960 . S
C1290 C1288 1.381 . S
C1290 C1291 1.394 . S
C1290 H1298 0.930 . S
C1291 C1290 1.394 . S
C1291 C1292 1.383 . S
C1291 H1299 0.929 . S
C1292 C1291 1.383 . S
C1292 C1293 1.377 . S
C1293 H1277 0.930 . S
C1293 C1292 1.377 . S
C1293 C1294 1.379 . S
C1294 H1278 0.931 . S
C1294 C1288 1.383 . S
C1294 C1293 1.379 . S
H1295 C1289 0.959 . S
H1296 C1289 0.961 . S
H1297 C1289 0.960 . S
H1298 C1290 0.930 . S
H1299 C1291 0.929 . S
H1300 C1308 0.929 . S
H1301 C1310 0.930 . S
H1302 C1312 0.930 . S
H1303 C1315 0.929 . S
H1304 C1318 0.930 . S
H1305 C1320 0.960 . S
H1306 C1320 0.960 . S
H1307 C1320 0.960 . S
C1308 H1300 0.929 . S
C1308 C1309 1.377 . S
C1308 C1310 1.384 . S
C1309 C1308 1.377 . S
C1309 C1315 1.390 . S
C1310 H1301 0.930 . S
C1310 C1308 1.384 . S
C1310 C1311 1.372 . S
C1311 C1310 1.372 . S
C1311 C1312 1.400 . S
C1311 C1316 1.490 . S
C1312 H1302 0.930 . S
C1312 C1311 1.400 . S
C1312 C1315 1.386 . S
H1313 C1329 0.930 . S
H1314 C1330 0.931 . S
C1315 H1303 0.929 . S
C1315 C1309 1.390 . S
C1315 C1312 1.386 . S
C1316 C1311 1.490 . S
C1316 C1318 1.395 . S
C1316 C1319 1.403 . S
H1317 C1323 0.930 . S
C1318 H1304 0.930 . S
C1318 C1316 1.395 . S
C1318 C1321 1.403 . S
C1319 C1316 1.403 . S
C1319 C1320 1.524 . S
C1319 C1323 1.400 . S
C1320 H1305 0.960 . S
C1320 H1306 0.960 . S
C1320 H1307 0.960 . S
C1320 C1319 1.524 . S
C1321 C1318 1.403 . S
C1321 C1322 1.392 . S
C1321 C1325 1.495 . S
C1322 C1321 1.392 . S
C1322 C1323 1.385 . S
C1322 C1324 1.478 . S
C1323 H1317 0.930 . S
C1323 C1319 1.400 . S
C1323 C1322 1.385 . S
C1324 C1322 1.478 . S
C1324 C1326 1.381 . S
C1324 C1330 1.383 . S
C1325 C1321 1.495 . S
C1325 H1331 0.959 . S
C1325 H1332 0.961 . S
C1325 H1333 0.960 . S
C1326 C1324 1.381 . S
C1326 C1327 1.394 . S
C1326 H1334 0.930 . S
C1327 C1326 1.394 . S
C1327 C1328 1.383 . S
C1327 H1335 0.929 . S
C1328 C1327 1.383 . S
C1328 C1329 1.377 . S
C1329 H1313 0.930 . S
C1329 C1328 1.377 . S
C1329 C1330 1.379 . S
C1330 H1314 0.931 . S
C1330 C1324 1.383 . S
C1330 C1329 1.379 . S
H1331 C1325 0.959 . S
H1332 C1325 0.961 . S
H1333 C1325 0.960 . S
H1334 C1326 0.930 . S
H1335 C1327 0.929 . S
H1336 C1344 0.929 . S
H1337 C1346 0.930 . S
H1338 C1348 0.930 . S
H1339 C1351 0.929 . S
H1340 C1354 0.930 . S
H1341 C1356 0.960 . S
H1342 C1356 0.960 . S
H1343 C1356 0.960 . S
C1344 H1336 0.929 . S
C1344 C1345 1.377 . S
C1344 C1346 1.384 . S
C1345 C1344 1.377 . S
C1345 C1351 1.390 . S
C1346 H1337 0.930 . S
C1346 C1344 1.384 . S
C1346 C1347 1.372 . S
C1347 C1346 1.372 . S
C1347 C1348 1.400 . S
C1347 C1352 1.490 . S
C1348 H1338 0.930 . S
C1348 C1347 1.400 . S
C1348 C1351 1.386 . S
H1349 C1365 0.930 . S
H1350 C1366 0.931 . S
C1351 H1339 0.929 . S
C1351 C1345 1.390 . S
C1351 C1348 1.386 . S
C1352 C1347 1.490 . S
C1352 C1354 1.395 . S
C1352 C1355 1.403 . S
H1353 C1359 0.930 . S
C1354 H1340 0.930 . S
C1354 C1352 1.395 . S
C1354 C1357 1.403 . S
C1355 C1352 1.403 . S
C1355 C1356 1.524 . S
C1355 C1359 1.400 . S
C1356 H1341 0.960 . S
C1356 H1342 0.960 . S
C1356 H1343 0.960 . S
C1356 C1355 1.524 . S
C1357 C1354 1.403 . S
C1357 C1358 1.392 . S
C1357 C1361 1.495 . S
C1358 C1357 1.392 . S
C1358 C1359 1.385 . S
C1358 C1360 1.478 . S
C1359 H1353 0.930 . S
C1359 C1355 1.400 . S
C1359 C1358 1.385 . S
C1360 C1358 1.478 . S
C1360 C1362 1.381 . S
C1360 C1366 1.383 . S
C1361 C1357 1.495 . S
C1361 H1367 0.959 . S
C1361 H1368 0.961 . S
C1361 H1369 0.960 . S
C1362 C1360 1.381 . S
C1362 C1363 1.394 . S
C1362 H1370 0.930 . S
C1363 C1362 1.394 . S
C1363 C1364 1.383 . S
C1363 H1371 0.929 . S
C1364 C1363 1.383 . S
C1364 C1365 1.377 . S
C1365 H1349 0.930 . S
C1365 C1364 1.377 . S
C1365 C1366 1.379 . S
C1366 H1350 0.931 . S
C1366 C1360 1.383 . S
C1366 C1365 1.379 . S
H1367 C1361 0.959 . S
H1368 C1361 0.961 . S
H1369 C1361 0.960 . S
H1370 C1362 0.930 . S
H1371 C1363 0.929 . S
H1372 C1380 0.929 . S
H1373 C1382 0.930 . S
H1374 C1384 0.930 . S
H1375 C1387 0.929 . S
H1376 C1390 0.930 . S
H1377 C1392 0.960 . S
H1378 C1392 0.960 . S
H1379 C1392 0.960 . S
C1380 H1372 0.929 . S
C1380 C1381 1.377 . S
C1380 C1382 1.384 . S
C1381 C1380 1.377 . S
C1381 C1387 1.390 . S
C1382 H1373 0.930 . S
C1382 C1380 1.384 . S
C1382 C1383 1.372 . S
C1383 C1382 1.372 . S
C1383 C1384 1.400 . S
C1383 C1388 1.490 . S
C1384 H1374 0.930 . S
C1384 C1383 1.400 . S
C1384 C1387 1.386 . S
H1385 C1401 0.930 . S
H1386 C1402 0.931 . S
C1387 H1375 0.929 . S
C1387 C1381 1.390 . S
C1387 C1384 1.386 . S
C1388 C1383 1.490 . S
C1388 C1390 1.395 . S
C1388 C1391 1.403 . S
H1389 C1395 0.930 . S
C1390 H1376 0.930 . S
C1390 C1388 1.395 . S
C1390 C1393 1.403 . S
C1391 C1388 1.403 . S
C1391 C1392 1.524 . S
C1391 C1395 1.400 . S
C1392 H1377 0.960 . S
C1392 H1378 0.960 . S
C1392 H1379 0.960 . S
C1392 C1391 1.524 . S
C1393 C1390 1.403 . S
C1393 C1394 1.392 . S
C1393 C1397 1.495 . S
C1394 C1393 1.392 . S
C1394 C1395 1.385 . S
C1394 C1396 1.478 . S
C1395 H1389 0.930 . S
C1395 C1391 1.400 . S
C1395 C1394 1.385 . S
C1396 C1394 1.478 . S
C1396 C1398 1.381 . S
C1396 C1402 1.383 . S
C1397 C1393 1.495 . S
C1397 H1403 0.959 . S
C1397 H1404 0.961 . S
C1397 H1405 0.960 . S
C1398 C1396 1.381 . S
C1398 C1399 1.394 . S
C1398 H1406 0.930 . S
C1399 C1398 1.394 . S
C1399 C1400 1.383 . S
C1399 H1407 0.929 . S
C1400 C1399 1.383 . S
C1400 C1401 1.377 . S
C1401 H1385 0.930 . S
C1401 C1400 1.377 . S
C1401 C1402 1.379 . S
C1402 H1386 0.931 . S
C1402 C1396 1.383 . S
C1402 C1401 1.379 . S
H1403 C1397 0.959 . S
H1404 C1397 0.961 . S
H1405 C1397 0.960 . S
H1406 C1398 0.930 . S
H1407 C1399 0.929 . S
H1408 C1416 0.929 . S
H1409 C1418 0.930 . S
H1410 C1420 0.930 . S
H1411 C1423 0.929 . S
H1412 C1426 0.930 . S
H1413 C1428 0.960 . S
H1414 C1428 0.960 . S
H1415 C1428 0.960 1_554 S
C1416 H1408 0.929 . S
C1416 C1417 1.377 . S
C1416 C1418 1.384 . S
C1417 C1416 1.377 . S
C1417 C1423 1.390 . S
C1418 H1409 0.930 . S
C1418 C1416 1.384 . S
C1418 C1419 1.372 . S
C1419 C1418 1.372 . S
C1419 C1420 1.400 . S
C1419 C1424 1.490 . S
C1420 H1410 0.930 . S
C1420 C1419 1.400 . S
C1420 C1423 1.386 . S
H1421 C1437 0.930 . S
H1422 C1438 0.931 . S
C1423 H1411 0.929 . S
C1423 C1417 1.390 . S
C1423 C1420 1.386 . S
C1424 C1419 1.490 . S
C1424 C1426 1.395 . S
C1424 C1427 1.403 1_554 S
H1425 C1431 0.930 . S
C1426 H1412 0.930 . S
C1426 C1424 1.395 . S
C1426 C1429 1.403 1_554 S
C1427 C1424 1.403 1_556 S
C1427 C1428 1.524 . S
C1427 C1431 1.400 . S
C1428 H1413 0.960 . S
C1428 H1414 0.960 . S
C1428 H1415 0.960 1_556 S
C1428 C1427 1.524 . S
C1429 C1426 1.403 1_556 S
C1429 C1430 1.392 . S
C1429 C1433 1.495 . S
C1430 C1429 1.392 . S
C1430 C1431 1.385 . S
C1430 C1432 1.478 . S
C1431 H1425 0.930 . S
C1431 C1427 1.400 . S
C1431 C1430 1.385 . S
C1432 C1430 1.478 . S
C1432 C1434 1.381 . S
C1432 C1438 1.383 . S
C1433 C1429 1.495 . S
C1433 H1439 0.959 1_556 S
C1433 H1440 0.961 1_556 S
C1433 H1441 0.960 . S
C1434 C1432 1.381 . S
C1434 C1435 1.394 . S
C1434 H1442 0.930 . S
C1435 C1434 1.394 . S
C1435 C1436 1.383 . S
C1435 H1443 0.929 . S
C1436 C1435 1.383 . S
C1436 C1437 1.377 . S
C1437 H1421 0.930 . S
C1437 C1436 1.377 . S
C1437 C1438 1.379 . S
C1438 H1422 0.931 . S
C1438 C1432 1.383 . S
C1438 C1437 1.379 . S
H1439 C1433 0.959 1_554 S
H1440 C1433 0.961 1_554 S
H1441 C1433 0.960 . S
H1442 C1434 0.930 . S
H1443 C1435 0.929 . S
H1444 C1452 0.929 . S
H1445 C1454 0.930 . S
H1446 C1456 0.930 . S
H1447 C1459 0.929 . S
H1448 C1462 0.930 . S
H1449 C1464 0.960 . S
H1450 C1464 0.960 . S
H1451 C1464 0.960 1_554 S
C1452 H1444 0.929 . S
C1452 C1453 1.377 . S
C1452 C1454 1.384 . S
C1453 C1452 1.377 . S
C1453 C1459 1.390 . S
C1454 H1445 0.930 . S
C1454 C1452 1.384 . S
C1454 C1455 1.372 . S
C1455 C1454 1.372 . S
C1455 C1456 1.400 . S
C1455 C1460 1.490 . S
C1456 H1446 0.930 . S
C1456 C1455 1.400 . S
C1456 C1459 1.386 . S
H1457 C1473 0.930 . S
H1458 C1474 0.931 . S
C1459 H1447 0.929 . S
C1459 C1453 1.390 . S
C1459 C1456 1.386 . S
C1460 C1455 1.490 . S
C1460 C1462 1.395 . S
C1460 C1463 1.403 1_554 S
H1461 C1467 0.930 . S
C1462 H1448 0.930 . S
C1462 C1460 1.395 . S
C1462 C1465 1.403 1_554 S
C1463 C1460 1.403 1_556 S
C1463 C1464 1.524 . S
C1463 C1467 1.400 . S
C1464 H1449 0.960 . S
C1464 H1450 0.960 . S
C1464 H1451 0.960 1_556 S
C1464 C1463 1.524 . S
C1465 C1462 1.403 1_556 S
C1465 C1466 1.392 . S
C1465 C1469 1.497 . S
C1466 C1465 1.392 . S
C1466 C1467 1.385 . S
C1466 C1468 1.478 . S
C1467 H1461 0.930 . S
C1467 C1463 1.400 . S
C1467 C1466 1.385 . S
C1468 C1466 1.478 . S
C1468 C1470 1.381 . S
C1468 C1474 1.383 . S
C1469 C1465 1.497 . S
C1469 H1475 0.945 1_556 S
C1469 H1476 0.950 1_556 S
C1469 H1477 0.984 . S
C1470 C1468 1.381 . S
C1470 C1471 1.394 . S
C1470 H1478 0.930 . S
C1471 C1470 1.394 . S
C1471 C1472 1.383 . S
C1471 H1479 0.929 . S
C1472 C1471 1.383 . S
C1472 C1473 1.377 . S
C1473 H1457 0.930 . S
C1473 C1472 1.377 . S
C1473 C1474 1.379 . S
C1474 H1458 0.931 . S
C1474 C1468 1.383 . S
C1474 C1473 1.379 . S
H1475 C1469 0.945 1_554 S
H1476 C1469 0.950 1_554 S
H1477 C1469 0.984 . S
H1478 C1470 0.930 . S
H1479 C1471 0.929 . S
H1480 C1488 0.929 . S
H1481 C1490 0.930 1_556 S
H1482 C1492 0.930 . S
H1483 C1495 0.929 . S
H1484 C1498 0.930 1_554 S
H1485 C1500 0.960 . S
H1486 C1500 0.960 . S
H1487 C1500 0.960 . S
C1488 H1480 0.929 . S
C1488 C1489 1.377 . S
C1488 C1490 1.384 . S
C1489 C1488 1.377 . S
C1489 C1495 1.390 . S
C1490 H1481 0.930 1_554 S
C1490 C1488 1.384 . S
C1490 C1491 1.372 . S
C1491 C1490 1.372 . S
C1491 C1492 1.400 . S
C1491 C1496 1.490 . S
C1492 H1482 0.930 . S
C1492 C1491 1.400 . S
C1492 C1495 1.386 . S
H1493 C1509 0.930 . S
H1494 C1510 0.931 . S
C1495 H1483 0.929 . S
C1495 C1489 1.390 . S
C1495 C1492 1.386 . S
C1496 C1491 1.490 . S
C1496 C1498 1.395 1_554 S
C1496 C1499 1.403 . S
H1497 C1503 0.930 . S
C1498 H1484 0.930 1_556 S
C1498 C1496 1.395 1_556 S
C1498 C1501 1.403 . S
C1499 C1496 1.403 . S
C1499 C1500 1.524 . S
C1499 C1503 1.400 1_554 S
C1500 H1485 0.960 . S
C1500 H1486 0.960 . S
C1500 H1487 0.960 . S
C1500 C1499 1.524 . S
C1501 C1498 1.403 . S
C1501 C1502 1.392 . S
C1501 C1505 1.495 . S
C1502 C1501 1.392 . S
C1502 C1503 1.385 . S
C1502 C1504 1.478 . S
C1503 H1497 0.930 . S
C1503 C1499 1.400 1_556 S
C1503 C1502 1.385 . S
C1504 C1502 1.478 . S
C1504 C1506 1.381 . S
C1504 C1510 1.383 . S
C1505 C1501 1.495 . S
C1505 H1511 0.959 . S
C1505 H1512 0.961 . S
C1505 H1513 0.960 . S
C1506 C1504 1.381 . S
C1506 C1507 1.394 . S
C1506 H1514 0.930 . S
C1507 C1506 1.394 . S
C1507 C1508 1.383 . S
C1507 H1515 0.929 . S
C1508 C1507 1.383 . S
C1508 C1509 1.377 . S
C1509 H1493 0.930 . S
C1509 C1508 1.377 . S
C1509 C1510 1.379 . S
C1510 H1494 0.931 . S
C1510 C1504 1.383 . S
C1510 C1509 1.379 . S
H1511 C1505 0.959 . S
H1512 C1505 0.961 . S
H1513 C1505 0.960 . S
H1514 C1506 0.930 . S
H1515 C1507 0.929 . S
H1516 C1524 0.929 . S
H1517 C1526 0.930 1_556 S
H1518 C1528 0.930 . S
H1519 C1531 0.929 . S
H1520 C1534 0.930 . S
H1521 C1536 0.960 . S
H1522 C1536 0.960 . S
H1523 C1536 0.960 . S
C1524 H1516 0.929 . S
C1524 C1525 1.377 . S
C1524 C1526 1.384 . S
C1525 C1524 1.377 . S
C1525 C1531 1.390 . S
C1526 H1517 0.930 1_554 S
C1526 C1524 1.384 . S
C1526 C1527 1.372 . S
C1527 C1526 1.372 . S
C1527 C1528 1.400 . S
C1527 C1532 1.490 . S
C1528 H1518 0.930 . S
C1528 C1527 1.400 . S
C1528 C1531 1.386 . S
H1529 C1545 0.930 . S
H1530 C1546 0.931 . S
C1531 H1519 0.929 . S
C1531 C1525 1.390 . S
C1531 C1528 1.386 . S
C1532 C1527 1.490 . S
C1532 C1534 1.395 1_554 S
C1532 C1535 1.403 . S
H1533 C1539 0.934 . S
C1534 H1520 0.930 . S
C1534 C1532 1.395 1_556 S
C1534 C1537 1.403 . S
C1535 C1532 1.403 . S
C1535 C1536 1.524 . S
C1535 C1539 1.400 1_554 S
C1536 H1521 0.960 . S
C1536 H1522 0.960 . S
C1536 H1523 0.960 . S
C1536 C1535 1.524 . S
C1537 C1534 1.403 . S
C1537 C1538 1.392 . S
C1537 C1541 1.495 . S
C1538 C1537 1.392 . S
C1538 C1539 1.385 . S
C1538 C1540 1.478 . S
C1539 H1533 0.934 . S
C1539 C1535 1.400 1_556 S
C1539 C1538 1.385 . S
C1540 C1538 1.478 . S
C1540 C1542 1.381 . S
C1540 C1546 1.383 . S
C1541 C1537 1.495 . S
C1541 H1547 0.959 . S
C1541 H1548 0.961 . S
C1541 H1549 0.960 . S
C1542 C1540 1.381 . S
C1542 C1543 1.394 . S
C1542 H1550 0.930 . S
C1543 C1542 1.394 . S
C1543 C1544 1.383 . S
C1543 H1551 0.929 . S
C1544 C1543 1.383 . S
C1544 C1545 1.377 . S
C1545 H1529 0.930 . S
C1545 C1544 1.377 . S
C1545 C1546 1.379 . S
C1546 H1530 0.931 . S
C1546 C1540 1.383 . S
C1546 C1545 1.379 . S
H1547 C1541 0.959 . S
H1548 C1541 0.961 . S
H1549 C1541 0.960 . S
H1550 C1542 0.930 . S
H1551 C1543 0.929 . S
H1552 C1560 0.929 . S
H1553 C1562 0.930 . S
H1554 C1564 0.930 . S
H1555 C1567 0.929 . S
H1556 C1570 0.930 . S
H1557 C1572 0.960 . S
H1558 C1572 0.960 . S
H1559 C1572 0.960 . S
C1560 H1552 0.929 . S
C1560 C1561 1.377 . S
C1560 C1562 1.384 . S
C1561 C1560 1.377 . S
C1561 C1567 1.390 . S
C1562 H1553 0.930 . S
C1562 C1560 1.384 . S
C1562 C1563 1.372 . S
C1563 C1562 1.372 . S
C1563 C1564 1.400 . S
C1563 C1568 1.490 . S
C1564 H1554 0.930 . S
C1564 C1563 1.400 . S
C1564 C1567 1.386 . S
H1565 C1581 0.930 . S
H1566 C1582 0.931 . S
C1567 H1555 0.929 . S
C1567 C1561 1.390 . S
C1567 C1564 1.386 . S
C1568 C1563 1.490 . S
C1568 C1570 1.395 . S
C1568 C1571 1.403 . S
H1569 C1575 0.930 . S
C1570 H1556 0.930 . S
C1570 C1568 1.395 . S
C1570 C1573 1.403 . S
C1571 C1568 1.403 . S
C1571 C1572 1.524 . S
C1571 C1575 1.400 . S
C1572 H1557 0.960 . S
C1572 H1558 0.960 . S
C1572 H1559 0.960 . S
C1572 C1571 1.524 . S
C1573 C1570 1.403 . S
C1573 C1574 1.392 . S
C1573 C1577 1.495 . S
C1574 C1573 1.392 . S
C1574 C1575 1.385 . S
C1574 C1576 1.478 . S
C1575 H1569 0.930 . S
C1575 C1571 1.400 . S
C1575 C1574 1.385 . S
C1576 C1574 1.478 . S
C1576 C1578 1.381 . S
C1576 C1582 1.383 . S
C1577 C1573 1.495 . S
C1577 H1583 0.959 . S
C1577 H1584 0.961 . S
C1577 H1585 0.960 . S
C1578 C1576 1.381 . S
C1578 C1579 1.394 . S
C1578 H1586 0.930 . S
C1579 C1578 1.394 . S
C1579 C1580 1.383 . S
C1579 H1587 0.929 . S
C1580 C1579 1.383 . S
C1580 C1581 1.377 . S
C1581 H1565 0.930 . S
C1581 C1580 1.377 . S
C1581 C1582 1.379 . S
C1582 H1566 0.931 . S
C1582 C1576 1.383 . S
C1582 C1581 1.379 . S
H1583 C1577 0.959 . S
H1584 C1577 0.961 . S
H1585 C1577 0.960 . S
H1586 C1578 0.930 . S
H1587 C1579 0.929 . S
H1588 C1596 0.929 . S
H1589 C1598 0.930 . S
H1590 C1600 0.930 . S
H1591 C1603 0.929 . S
H1592 C1606 0.930 . S
H1593 C1608 0.960 . S
H1594 C1608 0.960 . S
H1595 C1608 0.960 . S
C1596 H1588 0.929 . S
C1596 C1597 1.377 . S
C1596 C1598 1.384 . S
C1597 C1596 1.377 . S
C1597 C1603 1.390 . S
C1598 H1589 0.930 . S
C1598 C1596 1.384 . S
C1598 C1599 1.372 . S
C1599 C1598 1.372 . S
C1599 C1600 1.400 . S
C1599 C1604 1.490 . S
C1600 H1590 0.930 . S
C1600 C1599 1.400 . S
C1600 C1603 1.386 . S
H1601 C1617 0.930 . S
H1602 C1618 0.931 . S
C1603 H1591 0.929 . S
C1603 C1597 1.390 . S
C1603 C1600 1.386 . S
C1604 C1599 1.490 . S
C1604 C1606 1.395 . S
C1604 C1607 1.403 . S
H1605 C1611 0.930 . S
C1606 H1592 0.930 . S
C1606 C1604 1.395 . S
C1606 C1609 1.403 . S
C1607 C1604 1.403 . S
C1607 C1608 1.524 . S
C1607 C1611 1.400 . S
C1608 H1593 0.960 . S
C1608 H1594 0.960 . S
C1608 H1595 0.960 . S
C1608 C1607 1.524 . S
C1609 C1606 1.403 . S
C1609 C1610 1.392 . S
C1609 C1613 1.495 . S
C1610 C1609 1.392 . S
C1610 C1611 1.385 . S
C1610 C1612 1.478 . S
C1611 H1605 0.930 . S
C1611 C1607 1.400 . S
C1611 C1610 1.385 . S
C1612 C1610 1.478 . S
C1612 C1614 1.381 . S
C1612 C1618 1.383 . S
C1613 C1609 1.495 . S
C1613 H1619 0.959 . S
C1613 H1620 0.961 . S
C1613 H1621 0.960 . S
C1614 C1612 1.381 . S
C1614 C1615 1.394 . S
C1614 H1622 0.930 . S
C1615 C1614 1.394 . S
C1615 C1616 1.383 . S
C1615 H1623 0.929 . S
C1616 C1615 1.383 . S
C1616 C1617 1.377 . S
C1617 H1601 0.930 . S
C1617 C1616 1.377 . S
C1617 C1618 1.379 . S
C1618 H1602 0.931 . S
C1618 C1612 1.383 . S
C1618 C1617 1.379 . S
H1619 C1613 0.959 . S
H1620 C1613 0.961 . S
H1621 C1613 0.960 . S
H1622 C1614 0.930 . S
H1623 C1615 0.929 . S
H1624 C1632 0.929 . S
H1625 C1634 0.930 . S
H1626 C1636 0.930 . S
H1627 C1639 0.929 . S
H1628 C1642 0.930 . S
H1629 C1644 0.960 . S
H1630 C1644 0.960 . S
H1631 C1644 0.960 . S
C1632 H1624 0.929 . S
C1632 C1633 1.377 . S
C1632 C1634 1.384 . S
C1633 C1632 1.377 . S
C1633 C1639 1.390 . S
C1634 H1625 0.930 . S
C1634 C1632 1.384 . S
C1634 C1635 1.372 . S
C1635 C1634 1.372 . S
C1635 C1636 1.400 . S
C1635 C1640 1.490 . S
C1636 H1626 0.930 . S
C1636 C1635 1.400 . S
C1636 C1639 1.386 . S
H1637 C1653 0.930 . S
H1638 C1654 0.931 . S
C1639 H1627 0.929 . S
C1639 C1633 1.390 . S
C1639 C1636 1.386 . S
C1640 C1635 1.490 . S
C1640 C1642 1.395 . S
C1640 C1643 1.403 . S
H1641 C1647 0.930 . S
C1642 H1628 0.930 . S
C1642 C1640 1.395 . S
C1642 C1645 1.403 . S
C1643 C1640 1.403 . S
C1643 C1644 1.524 . S
C1643 C1647 1.400 . S
C1644 H1629 0.960 . S
C1644 H1630 0.960 . S
C1644 H1631 0.960 . S
C1644 C1643 1.524 . S
C1645 C1642 1.403 . S
C1645 C1646 1.392 . S
C1645 C1649 1.495 . S
C1646 C1645 1.392 . S
C1646 C1647 1.385 . S
C1646 C1648 1.478 . S
C1647 H1641 0.930 . S
C1647 C1643 1.400 . S
C1647 C1646 1.385 . S
C1648 C1646 1.478 . S
C1648 C1650 1.381 . S
C1648 C1654 1.383 . S
C1649 C1645 1.495 . S
C1649 H1655 0.959 . S
C1649 H1656 0.961 . S
C1649 H1657 0.960 . S
C1650 C1648 1.381 . S
C1650 C1651 1.394 . S
C1650 H1658 0.930 . S
C1651 C1650 1.394 . S
C1651 C1652 1.383 . S
C1651 H1659 0.929 . S
C1652 C1651 1.383 . S
C1652 C1653 1.377 . S
C1653 H1637 0.930 . S
C1653 C1652 1.377 . S
C1653 C1654 1.379 . S
C1654 H1638 0.931 . S
C1654 C1648 1.383 . S
C1654 C1653 1.379 . S
H1655 C1649 0.959 . S
H1656 C1649 0.961 . S
H1657 C1649 0.960 . S
H1658 C1650 0.930 . S
H1659 C1651 0.929 . S
H1660 C1668 0.929 . S
H1661 C1670 0.930 . S
H1662 C1672 0.930 . S
H1663 C1675 0.929 . S
H1664 C1678 0.930 . S
H1665 C1680 0.960 . S
H1666 C1680 0.960 . S
H1667 C1680 0.960 . S
C1668 H1660 0.929 . S
C1668 C1669 1.377 . S
C1668 C1670 1.384 . S
C1669 C1668 1.377 . S
C1669 C1675 1.390 . S
C1670 H1661 0.930 . S
C1670 C1668 1.384 . S
C1670 C1671 1.372 . S
C1671 C1670 1.372 . S
C1671 C1672 1.400 . S
C1671 C1676 1.490 . S
C1672 H1662 0.930 . S
C1672 C1671 1.400 . S
C1672 C1675 1.386 . S
H1673 C1689 0.930 . S
H1674 C1690 0.931 . S
C1675 H1663 0.929 . S
C1675 C1669 1.390 . S
C1675 C1672 1.386 . S
C1676 C1671 1.490 . S
C1676 C1678 1.395 . S
C1676 C1679 1.403 . S
H1677 C1683 0.930 . S
C1678 H1664 0.930 . S
C1678 C1676 1.395 . S
C1678 C1681 1.403 . S
C1679 C1676 1.403 . S
C1679 C1680 1.524 . S
C1679 C1683 1.400 . S
C1680 H1665 0.960 . S
C1680 H1666 0.960 . S
C1680 H1667 0.960 . S
C1680 C1679 1.524 . S
C1681 C1678 1.403 . S
C1681 C1682 1.392 . S
C1681 C1685 1.495 . S
C1682 C1681 1.392 . S
C1682 C1683 1.385 . S
C1682 C1684 1.478 . S
C1683 H1677 0.930 . S
C1683 C1679 1.400 . S
C1683 C1682 1.385 . S
C1684 C1682 1.478 . S
C1684 C1686 1.381 . S
C1684 C1690 1.383 . S
C1685 C1681 1.495 . S
C1685 H1691 0.959 . S
C1685 H1692 0.961 . S
C1685 H1693 0.960 . S
C1686 C1684 1.381 . S
C1686 C1687 1.394 . S
C1686 H1694 0.930 . S
C1687 C1686 1.394 . S
C1687 C1688 1.383 . S
C1687 H1695 0.929 . S
C1688 C1687 1.383 . S
C1688 C1689 1.377 . S
C1689 H1673 0.930 . S
C1689 C1688 1.377 . S
C1689 C1690 1.379 . S
C1690 H1674 0.931 . S
C1690 C1684 1.383 . S
C1690 C1689 1.379 . S
H1691 C1685 0.959 . S
H1692 C1685 0.961 . S
H1693 C1685 0.960 . S
H1694 C1686 0.930 . S
H1695 C1687 0.929 . S
H1696 C1704 0.929 . S
H1697 C1706 0.930 . S
H1698 C1708 0.930 . S
H1699 C1711 0.929 . S
H1700 C1714 0.930 . S
H1701 C1716 0.960 . S
H1702 C1716 0.960 . S
H1703 C1716 0.960 . S
C1704 H1696 0.929 . S
C1704 C1705 1.377 . S
C1704 C1706 1.384 . S
C1705 C1704 1.377 . S
C1705 C1711 1.390 . S
C1706 H1697 0.930 . S
C1706 C1704 1.384 . S
C1706 C1707 1.372 . S
C1707 C1706 1.372 . S
C1707 C1708 1.400 . S
C1707 C1712 1.490 . S
C1708 H1698 0.930 . S
C1708 C1707 1.400 . S
C1708 C1711 1.386 . S
H1709 C1725 0.930 . S
H1710 C1726 0.931 . S
C1711 H1699 0.929 . S
C1711 C1705 1.390 . S
C1711 C1708 1.386 . S
C1712 C1707 1.490 . S
C1712 C1714 1.395 . S
C1712 C1715 1.403 . S
H1713 C1719 0.930 . S
C1714 H1700 0.930 . S
C1714 C1712 1.395 . S
C1714 C1717 1.403 . S
C1715 C1712 1.403 . S
C1715 C1716 1.524 . S
C1715 C1719 1.400 . S
C1716 H1701 0.960 . S
C1716 H1702 0.960 . S
C1716 H1703 0.960 . S
C1716 C1715 1.524 . S
C1717 C1714 1.403 . S
C1717 C1718 1.392 . S
C1717 C1721 1.495 . S
C1718 C1717 1.392 . S
C1718 C1719 1.385 . S
C1718 C1720 1.478 . S
C1719 H1713 0.930 . S
C1719 C1715 1.400 . S
C1719 C1718 1.385 . S
C1720 C1718 1.478 . S
C1720 C1722 1.381 . S
C1720 C1726 1.383 . S
C1721 C1717 1.495 . S
C1721 H1727 0.959 . S
C1721 H1728 0.961 . S
C1721 H1729 0.960 . S
C1722 C1720 1.381 . S
C1722 C1723 1.394 . S
C1722 H1730 0.930 . S
C1723 C1722 1.394 . S
C1723 C1724 1.383 . S
C1723 H1731 0.929 . S
C1724 C1723 1.383 . S
C1724 C1725 1.377 . S
C1725 H1709 0.930 . S
C1725 C1724 1.377 . S
C1725 C1726 1.379 . S
C1726 H1710 0.931 . S
C1726 C1720 1.383 . S
C1726 C1725 1.379 . S
H1727 C1721 0.959 . S
H1728 C1721 0.961 . S
H1729 C1721 0.960 . S
H1730 C1722 0.930 . S
H1731 C1723 0.929 . S
H1732 C1740 0.929 . S
H1733 C1742 0.930 . S
H1734 C1744 0.930 . S
H1735 C1747 0.929 . S
H1736 C1750 0.930 . S
H1737 C1752 0.960 . S
H1738 C1752 0.960 . S
H1739 C1752 0.960 . S
C1740 H1732 0.929 . S
C1740 C1741 1.377 . S
C1740 C1742 1.384 . S
C1741 C1740 1.377 . S
C1741 C1747 1.390 . S
C1742 H1733 0.930 . S
C1742 C1740 1.384 . S
C1742 C1743 1.372 . S
C1743 C1742 1.372 . S
C1743 C1744 1.400 . S
C1743 C1748 1.490 . S
C1744 H1734 0.930 . S
C1744 C1743 1.400 . S
C1744 C1747 1.386 . S
H1745 C1761 0.930 . S
H1746 C1762 0.931 . S
C1747 H1735 0.929 . S
C1747 C1741 1.390 . S
C1747 C1744 1.386 . S
C1748 C1743 1.490 . S
C1748 C1750 1.395 . S
C1748 C1751 1.403 . S
H1749 C1755 0.930 . S
C1750 H1736 0.930 . S
C1750 C1748 1.395 . S
C1750 C1753 1.403 . S
C1751 C1748 1.403 . S
C1751 C1752 1.524 . S
C1751 C1755 1.400 . S
C1752 H1737 0.960 . S
C1752 H1738 0.960 . S
C1752 H1739 0.960 . S
C1752 C1751 1.524 . S
C1753 C1750 1.403 . S
C1753 C1754 1.392 . S
C1753 C1757 1.495 . S
C1754 C1753 1.392 . S
C1754 C1755 1.385 . S
C1754 C1756 1.478 . S
C1755 H1749 0.930 . S
C1755 C1751 1.400 . S
C1755 C1754 1.385 . S
C1756 C1754 1.478 . S
C1756 C1758 1.381 . S
C1756 C1762 1.383 . S
C1757 C1753 1.495 . S
C1757 H1763 0.959 . S
C1757 H1764 0.961 . S
C1757 H1765 0.960 . S
C1758 C1756 1.381 . S
C1758 C1759 1.394 . S
C1758 H1766 0.930 . S
C1759 C1758 1.394 . S
C1759 C1760 1.383 . S
C1759 H1767 0.929 . S
C1760 C1759 1.383 . S
C1760 C1761 1.377 . S
C1761 H1745 0.930 . S
C1761 C1760 1.377 . S
C1761 C1762 1.379 . S
C1762 H1746 0.931 . S
C1762 C1756 1.383 . S
C1762 C1761 1.379 . S
H1763 C1757 0.959 . S
H1764 C1757 0.961 . S
H1765 C1757 0.960 . S
H1766 C1758 0.930 . S
H1767 C1759 0.929 . S
H1768 C1776 0.929 . S
H1769 C1778 0.930 . S
H1770 C1780 0.930 . S
H1771 C1783 0.929 . S
H1772 C1786 0.930 . S
H1773 C1788 0.960 . S
H1774 C1788 0.960 . S
H1775 C1788 0.960 . S
C1776 H1768 0.929 . S
C1776 C1777 1.377 . S
C1776 C1778 1.384 . S
C1777 C1776 1.377 . S
C1777 C1783 1.390 . S
C1778 H1769 0.930 . S
C1778 C1776 1.384 . S
C1778 C1779 1.372 . S
C1779 C1778 1.372 . S
C1779 C1780 1.400 . S
C1779 C1784 1.490 . S
C1780 H1770 0.930 . S
C1780 C1779 1.400 . S
C1780 C1783 1.386 . S
H1781 C1797 0.930 . S
H1782 C1798 0.931 . S
C1783 H1771 0.929 . S
C1783 C1777 1.390 . S
C1783 C1780 1.386 . S
C1784 C1779 1.490 . S
C1784 C1786 1.395 . S
C1784 C1787 1.403 . S
H1785 C1791 0.930 . S
C1786 H1772 0.930 . S
C1786 C1784 1.395 . S
C1786 C1789 1.403 . S
C1787 C1784 1.403 . S
C1787 C1788 1.524 . S
C1787 C1791 1.400 . S
C1788 H1773 0.960 . S
C1788 H1774 0.960 . S
C1788 H1775 0.960 . S
C1788 C1787 1.524 . S
C1789 C1786 1.403 . S
C1789 C1790 1.392 . S
C1789 C1793 1.495 . S
C1790 C1789 1.392 . S
C1790 C1791 1.385 . S
C1790 C1792 1.478 . S
C1791 H1785 0.930 . S
C1791 C1787 1.400 . S
C1791 C1790 1.385 . S
C1792 C1790 1.478 . S
C1792 C1794 1.381 . S
C1792 C1798 1.383 . S
C1793 C1789 1.495 . S
C1793 H1799 0.959 . S
C1793 H1800 0.961 . S
C1793 H1801 0.960 . S
C1794 C1792 1.381 . S
C1794 C1795 1.394 . S
C1794 H1802 0.930 . S
C1795 C1794 1.394 . S
C1795 C1796 1.383 . S
C1795 H1803 0.929 . S
C1796 C1795 1.383 . S
C1796 C1797 1.377 . S
C1797 H1781 0.930 . S
C1797 C1796 1.377 . S
C1797 C1798 1.379 . S
C1798 H1782 0.931 . S
C1798 C1792 1.383 . S
C1798 C1797 1.379 . S
H1799 C1793 0.959 . S
H1800 C1793 0.961 . S
H1801 C1793 0.960 . S
H1802 C1794 0.930 . S
H1803 C1795 0.929 . S
H1804 C1812 0.929 . S
H1805 C1814 0.930 . S
H1806 C1816 0.930 . S
H1807 C1819 0.929 . S
H1808 C1822 0.930 . S
H1809 C1824 0.960 . S
H1810 C1824 0.960 . S
H1811 C1824 0.960 . S
C1812 H1804 0.929 . S
C1812 C1813 1.377 . S
C1812 C1814 1.384 . S
C1813 C1812 1.377 . S
C1813 C1819 1.390 . S
C1814 H1805 0.930 . S
C1814 C1812 1.384 . S
C1814 C1815 1.372 . S
C1815 C1814 1.372 . S
C1815 C1816 1.400 . S
C1815 C1820 1.490 . S
C1816 H1806 0.930 . S
C1816 C1815 1.400 . S
C1816 C1819 1.386 . S
H1817 C1833 0.930 . S
H1818 C1834 0.931 . S
C1819 H1807 0.929 . S
C1819 C1813 1.390 . S
C1819 C1816 1.386 . S
C1820 C1815 1.490 . S
C1820 C1822 1.395 . S
C1820 C1823 1.403 . S
H1821 C1827 0.930 . S
C1822 H1808 0.930 . S
C1822 C1820 1.395 . S
C1822 C1825 1.403 . S
C1823 C1820 1.403 . S
C1823 C1824 1.524 . S
C1823 C1827 1.400 . S
C1824 H1809 0.960 . S
C1824 H1810 0.960 . S
C1824 H1811 0.960 . S
C1824 C1823 1.524 . S
C1825 C1822 1.403 . S
C1825 C1826 1.392 . S
C1825 C1829 1.495 . S
C1826 C1825 1.392 . S
C1826 C1827 1.385 . S
C1826 C1828 1.478 . S
C1827 H1821 0.930 . S
C1827 C1823 1.400 . S
C1827 C1826 1.385 . S
C1828 C1826 1.478 . S
C1828 C1830 1.381 . S
C1828 C1834 1.383 . S
C1829 C1825 1.495 . S
C1829 H1835 0.959 . S
C1829 H1836 0.961 . S
C1829 H1837 0.960 . S
C1830 C1828 1.381 . S
C1830 C1831 1.394 . S
C1830 H1838 0.930 . S
C1831 C1830 1.394 . S
C1831 C1832 1.383 . S
C1831 H1839 0.929 . S
C1832 C1831 1.383 . S
C1832 C1833 1.377 . S
C1833 H1817 0.930 . S
C1833 C1832 1.377 . S
C1833 C1834 1.379 . S
C1834 H1818 0.931 . S
C1834 C1828 1.383 . S
C1834 C1833 1.379 . S
H1835 C1829 0.959 . S
H1836 C1829 0.961 . S
H1837 C1829 0.960 . S
H1838 C1830 0.930 . S
H1839 C1831 0.929 . S
H1840 C1848 0.929 . S
H1841 C1850 0.930 . S
H1842 C1852 0.930 . S
H1843 C1855 0.929 . S
H1844 C1858 0.930 . S
H1845 C1860 0.960 . S
H1846 C1860 0.960 . S
H1847 C1860 0.960 . S
C1848 H1840 0.929 . S
C1848 C1849 1.377 . S
C1848 C1850 1.384 . S
C1849 C1848 1.377 . S
C1849 C1855 1.390 . S
C1850 H1841 0.930 . S
C1850 C1848 1.384 . S
C1850 C1851 1.372 . S
C1851 C1850 1.372 . S
C1851 C1852 1.400 . S
C1851 C1856 1.490 . S
C1852 H1842 0.930 . S
C1852 C1851 1.400 . S
C1852 C1855 1.386 . S
H1853 C1869 0.930 . S
H1854 C1870 0.931 . S
C1855 H1843 0.929 . S
C1855 C1849 1.390 . S
C1855 C1852 1.386 . S
C1856 C1851 1.490 . S
C1856 C1858 1.395 . S
C1856 C1859 1.403 . S
H1857 C1863 0.930 . S
C1858 H1844 0.930 . S
C1858 C1856 1.395 . S
C1858 C1861 1.403 . S
C1859 C1856 1.403 . S
C1859 C1860 1.524 . S
C1859 C1863 1.400 . S
C1860 H1845 0.960 . S
C1860 H1846 0.960 . S
C1860 H1847 0.960 . S
C1860 C1859 1.524 . S
C1861 C1858 1.403 . S
C1861 C1862 1.392 . S
C1861 C1865 1.495 . S
C1862 C1861 1.392 . S
C1862 C1863 1.385 . S
C1862 C1864 1.478 . S
C1863 H1857 0.930 . S
C1863 C1859 1.400 . S
C1863 C1862 1.385 . S
C1864 C1862 1.478 . S
C1864 C1866 1.381 . S
C1864 C1870 1.383 . S
C1865 C1861 1.495 . S
C1865 H1871 0.959 . S
C1865 H1872 0.961 . S
C1865 H1873 0.960 . S
C1866 C1864 1.381 . S
C1866 C1867 1.394 . S
C1866 H1874 0.930 . S
C1867 C1866 1.394 . S
C1867 C1868 1.383 . S
C1867 H1875 0.929 . S
C1868 C1867 1.383 . S
C1868 C1869 1.377 . S
C1869 H1853 0.930 . S
C1869 C1868 1.377 . S
C1869 C1870 1.379 . S
C1870 H1854 0.931 . S
C1870 C1864 1.383 . S
C1870 C1869 1.379 . S
H1871 C1865 0.959 . S
H1872 C1865 0.961 . S
H1873 C1865 0.960 . S
H1874 C1866 0.930 . S
H1875 C1867 0.929 . S
H1876 C1884 0.929 . S
H1877 C1886 0.930 . S
H1878 C1888 0.930 . S
H1879 C1891 0.929 . S
H1880 C1894 0.930 . S
H1881 C1896 0.960 . S
H1882 C1896 0.960 . S
H1883 C1896 0.960 . S
C1884 H1876 0.929 . S
C1884 C1885 1.377 . S
C1884 C1886 1.384 . S
C1885 C1884 1.377 . S
C1885 C1891 1.390 . S
C1886 H1877 0.930 . S
C1886 C1884 1.384 . S
C1886 C1887 1.372 . S
C1887 C1886 1.372 . S
C1887 C1888 1.400 . S
C1887 C1892 1.490 . S
C1888 H1878 0.930 . S
C1888 C1887 1.400 . S
C1888 C1891 1.386 . S
H1889 C1905 0.930 . S
H1890 C1906 0.931 . S
C1891 H1879 0.929 . S
C1891 C1885 1.390 . S
C1891 C1888 1.386 . S
C1892 C1887 1.490 . S
C1892 C1894 1.395 . S
C1892 C1895 1.403 . S
H1893 C1899 0.930 . S
C1894 H1880 0.930 . S
C1894 C1892 1.395 . S
C1894 C1897 1.403 . S
C1895 C1892 1.403 . S
C1895 C1896 1.524 . S
C1895 C1899 1.400 . S
C1896 H1881 0.960 . S
C1896 H1882 0.960 . S
C1896 H1883 0.960 . S
C1896 C1895 1.524 . S
C1897 C1894 1.403 . S
C1897 C1898 1.392 . S
C1897 C1901 1.495 . S
C1898 C1897 1.392 . S
C1898 C1899 1.385 . S
C1898 C1900 1.478 . S
C1899 H1893 0.930 . S
C1899 C1895 1.400 . S
C1899 C1898 1.385 . S
C1900 C1898 1.478 . S
C1900 C1902 1.381 . S
C1900 C1906 1.383 . S
C1901 C1897 1.495 . S
C1901 H1907 0.959 . S
C1901 H1908 0.961 . S
C1901 H1909 0.960 . S
C1902 C1900 1.381 . S
C1902 C1903 1.394 . S
C1902 H1910 0.930 . S
C1903 C1902 1.394 . S
C1903 C1904 1.383 . S
C1903 H1911 0.929 . S
C1904 C1903 1.383 . S
C1904 C1905 1.377 . S
C1905 H1889 0.930 . S
C1905 C1904 1.377 . S
C1905 C1906 1.379 . S
C1906 H1890 0.931 . S
C1906 C1900 1.383 . S
C1906 C1905 1.379 . S
H1907 C1901 0.959 . S
H1908 C1901 0.961 . S
H1909 C1901 0.960 . S
H1910 C1902 0.930 . S
H1911 C1903 0.929 . S
H1912 C1920 0.929 . S
H1913 C1922 0.930 . S
H1914 C1924 0.930 . S
H1915 C1927 0.929 . S
H1916 C1930 0.930 . S
H1917 C1932 0.960 . S
H1918 C1932 0.960 . S
H1919 C1932 0.960 . S
C1920 H1912 0.929 . S
C1920 C1921 1.377 . S
C1920 C1922 1.384 . S
C1921 C1920 1.377 . S
C1921 C1927 1.390 . S
C1922 H1913 0.930 . S
C1922 C1920 1.384 . S
C1922 C1923 1.372 . S
C1923 C1922 1.372 . S
C1923 C1924 1.400 . S
C1923 C1928 1.490 . S
C1924 H1914 0.930 . S
C1924 C1923 1.400 . S
C1924 C1927 1.386 . S
H1925 C1941 0.930 . S
H1926 C1942 0.931 . S
C1927 H1915 0.929 . S
C1927 C1921 1.390 . S
C1927 C1924 1.386 . S
C1928 C1923 1.490 . S
C1928 C1930 1.395 . S
C1928 C1931 1.403 . S
H1929 C1935 0.930 . S
C1930 H1916 0.930 . S
C1930 C1928 1.395 . S
C1930 C1933 1.403 . S
C1931 C1928 1.403 . S
C1931 C1932 1.524 . S
C1931 C1935 1.400 . S
C1932 H1917 0.960 . S
C1932 H1918 0.960 . S
C1932 H1919 0.960 . S
C1932 C1931 1.524 . S
C1933 C1930 1.403 . S
C1933 C1934 1.392 . S
C1933 C1937 1.495 . S
C1934 C1933 1.392 . S
C1934 C1935 1.385 . S
C1934 C1936 1.478 . S
C1935 H1929 0.930 . S
C1935 C1931 1.400 . S
C1935 C1934 1.385 . S
C1936 C1934 1.478 . S
C1936 C1938 1.381 . S
C1936 C1942 1.383 . S
C1937 C1933 1.495 . S
C1937 H1943 0.959 . S
C1937 H1944 0.961 . S
C1937 H1945 0.960 . S
C1938 C1936 1.381 . S
C1938 C1939 1.394 . S
C1938 H1946 0.930 . S
C1939 C1938 1.394 . S
C1939 C1940 1.383 . S
C1939 H1947 0.929 . S
C1940 C1939 1.383 . S
C1940 C1941 1.377 . S
C1941 H1925 0.930 . S
C1941 C1940 1.377 . S
C1941 C1942 1.379 . S
C1942 H1926 0.931 . S
C1942 C1936 1.383 . S
C1942 C1941 1.379 . S
H1943 C1937 0.959 . S
H1944 C1937 0.961 . S
H1945 C1937 0.960 . S
H1946 C1938 0.930 . S
H1947 C1939 0.929 . S
H1948 C1956 0.929 . S
H1949 C1958 0.930 . S
H1950 C1960 0.930 . S
H1951 C1963 0.929 . S
H1952 C1966 0.930 . S
H1953 C1968 0.960 . S
H1954 C1968 0.960 . S
H1955 C1968 0.960 . S
C1956 H1948 0.929 . S
C1956 C1957 1.377 . S
C1956 C1958 1.384 . S
C1957 C1956 1.377 . S
C1957 C1963 1.390 . S
C1958 H1949 0.930 . S
C1958 C1956 1.384 . S
C1958 C1959 1.372 . S
C1959 C1958 1.372 . S
C1959 C1960 1.400 . S
C1959 C1964 1.490 . S
C1960 H1950 0.930 . S
C1960 C1959 1.400 . S
C1960 C1963 1.386 . S
H1961 C1977 0.930 . S
H1962 C1978 0.931 . S
C1963 H1951 0.929 . S
C1963 C1957 1.390 . S
C1963 C1960 1.386 . S
C1964 C1959 1.490 . S
C1964 C1966 1.395 . S
C1964 C1967 1.403 . S
H1965 C1971 0.930 . S
C1966 H1952 0.930 . S
C1966 C1964 1.395 . S
C1966 C1969 1.403 . S
C1967 C1964 1.403 . S
C1967 C1968 1.524 . S
C1967 C1971 1.400 . S
C1968 H1953 0.960 . S
C1968 H1954 0.960 . S
C1968 H1955 0.960 . S
C1968 C1967 1.524 . S
C1969 C1966 1.403 . S
C1969 C1970 1.392 . S
C1969 C1973 1.495 . S
C1970 C1969 1.392 . S
C1970 C1971 1.385 . S
C1970 C1972 1.478 . S
C1971 H1965 0.930 . S
C1971 C1967 1.400 . S
C1971 C1970 1.385 . S
C1972 C1970 1.478 . S
C1972 C1974 1.381 . S
C1972 C1978 1.383 . S
C1973 C1969 1.495 . S
C1973 H1979 0.959 . S
C1973 H1980 0.961 . S
C1973 H1981 0.960 . S
C1974 C1972 1.381 . S
C1974 C1975 1.394 . S
C1974 H1982 0.930 . S
C1975 C1974 1.394 . S
C1975 C1976 1.383 . S
C1975 H1983 0.929 . S
C1976 C1975 1.383 . S
C1976 C1977 1.377 . S
C1977 H1961 0.930 . S
C1977 C1976 1.377 . S
C1977 C1978 1.379 . S
C1978 H1962 0.931 . S
C1978 C1972 1.383 . S
C1978 C1977 1.379 . S
H1979 C1973 0.959 . S
H1980 C1973 0.961 . S
H1981 C1973 0.960 . S
H1982 C1974 0.930 . S
H1983 C1975 0.929 . S
C553 C20 1.580 . S
C572 C224 1.565 . S
C589 C258 1.578 . S
C608 C54 1.587 . S
C625 C156 1.582 . S
C644 C88 1.574 . S
C661 C190 1.576 . S
C680 C122 1.575 . S
C697 C292 1.574 . S
C716 C496 1.603 . S
C733 C326 1.583 . S
C752 C530 1.550 . S
C769 C428 1.573 . S
C788 C360 1.598 . S
C805 C394 1.585 . S
C824 C462 1.548 . S
C841 C281 2.487 . S
C860 C9 2.474 . S
C877 C315 2.492 . S
C896 C43 2.503 . S
C913 C349 2.488 . S
C932 C77 2.493 . S
C949 C383 2.487 . S
C968 C111 2.480 . S
C985 C417 2.492 . S
C1004 C145 2.504 . S
C1021 C451 2.491 . S
C1040 C179 2.472 . S
C1057 C213 2.487 . S
C1076 C485 2.483 . S
C1093 C247 2.493 . S
C1112 C519 2.503 . S
C1129 C339 0.468 . S
C1148 C2 0.400 . S
C1165 C373 0.499 . S
C1184 C36 0.420 . S
C1201 C407 0.475 . S
C1220 C70 0.372 . S
C1237 C305 0.478 . S
C1256 C104 0.371 . S
C1273 C138 0.441 . S
C1292 C543 0.479 . S
C1309 C172 0.420 . S
C1328 C441 0.504 . S
C1345 C206 0.419 . S
C1364 C475 0.494 . S
C1381 C240 0.436 . S
C1400 C509 0.436 . S
C1417 C67 0.495 . S
C1436 C274 0.396 . S
C1453 C101 0.494 . S
C1472 C308 0.399 . S
C1489 C135 0.500 . S
C1508 C342 0.376 . S
C1525 C33 0.503 . S
C1544 C376 0.371 . S
C1561 C271 0.488 . S
C1580 C410 0.438 . S
C1597 C169 0.492 . S
C1616 C444 0.407 . S
C1633 C203 0.499 . S
C1652 C478 0.382 . S
C1669 C512 0.432 . S
C1688 C237 0.471 . S
C1705 C73 0.355 . S
C1724 C5 0.429 . S
C1741 C107 0.364 . S
C1760 C39 0.333 . S
C1777 C141 0.394 . S
C1796 C209 0.373 . S
C1813 C243 0.383 . S
C1832 C175 0.286 . S
C1849 C277 0.357 . S
C1868 C345 0.311 . S
C1885 C379 0.356 . S
C1904 C311 0.286 . S
C1921 C413 0.370 . S
C1940 C481 0.390 . S
C1957 C447 0.362 . S
C1976 C515 0.306 . S
