# Generated by pormake.
# Topology fnk, (5)-cn, num edge types: 1
# Building blocks:
#     Node 0, Type 0, BuildingBlock: BEQFEK_clean_sbu_0, # of connection points: 5
#     Node 1, Type 0, BuildingBlock: BEQFEK_clean_sbu_0, # of connection points: 5
#     Node 2, Type 0, BuildingBlock: BEQFEK_clean_sbu_0, # of connection points: 5
#     Node 3, Type 0, BuildingBlock: BEQFEK_clean_sbu_0, # of connection points: 5
#     Node 4, Type 0, BuildingBlock: BEQFEK_clean_sbu_0, # of connection points: 5
#     Node 5, Type 0, BuildingBlock: BEQFEK_clean_sbu_0, # of connection points: 5
#     Node 6, Type 0, BuildingBlock: BEQFEK_clean_sbu_0, # of connection points: 5
#     Node 7, Type 0, BuildingBlock: BEQFEK_clean_sbu_0, # of connection points: 5
#     Node 8, Type 0, BuildingBlock: BEQFEK_clean_sbu_0, # of connection points: 5
#     Node 9, Type 0, BuildingBlock: BEQFEK_clean_sbu_0, # of connection points: 5
#     Node 10, Type 0, BuildingBlock: BEQFEK_clean_sbu_0, # of connection points: 5
#     Node 11, Type 0, BuildingBlock: BEQFEK_clean_sbu_0, # of connection points: 5
#     Node 12, Type 0, BuildingBlock: BEQFEK_clean_sbu_0, # of connection points: 5
#     Node 13, Type 0, BuildingBlock: BEQFEK_clean_sbu_0, # of connection points: 5
#     Node 14, Type 0, BuildingBlock: BEQFEK_clean_sbu_0, # of connection points: 5
#     Node 15, Type 0, BuildingBlock: BEQFEK_clean_sbu_0, # of connection points: 5
#     Edge 16, Type (0, 0), BuildingBlock: EZIPEK_clean_linker_0, # of connection points: 2
#     Edge 17, Type (0, 0), BuildingBlock: EZIPEK_clean_linker_0, # of connection points: 2
#     Edge 18, Type (0, 0), BuildingBlock: EZIPEK_clean_linker_0, # of connection points: 2
#     Edge 19, Type (0, 0), BuildingBlock: EZIPEK_clean_linker_0, # of connection points: 2
#     Edge 20, Type (0, 0), BuildingBlock: EZIPEK_clean_linker_0, # of connection points: 2
#     Edge 21, Type (0, 0), BuildingBlock: EZIPEK_clean_linker_0, # of connection points: 2
#     Edge 22, Type (0, 0), BuildingBlock: EZIPEK_clean_linker_0, # of connection points: 2
#     Edge 23, Type (0, 0), BuildingBlock: EZIPEK_clean_linker_0, # of connection points: 2
#     Edge 24, Type (0, 0), BuildingBlock: EZIPEK_clean_linker_0, # of connection points: 2
#     Edge 25, Type (0, 0), BuildingBlock: EZIPEK_clean_linker_0, # of connection points: 2
#     Edge 26, Type (0, 0), BuildingBlock: EZIPEK_clean_linker_0, # of connection points: 2
#     Edge 27, Type (0, 0), BuildingBlock: EZIPEK_clean_linker_0, # of connection points: 2
#     Edge 28, Type (0, 0), BuildingBlock: EZIPEK_clean_linker_0, # of connection points: 2
#     Edge 29, Type (0, 0), BuildingBlock: EZIPEK_clean_linker_0, # of connection points: 2
#     Edge 30, Type (0, 0), BuildingBlock: EZIPEK_clean_linker_0, # of connection points: 2
#     Edge 31, Type (0, 0), BuildingBlock: EZIPEK_clean_linker_0, # of connection points: 2
#     Edge 32, Type (0, 0), BuildingBlock: EZIPEK_clean_linker_0, # of connection points: 2
#     Edge 33, Type (0, 0), BuildingBlock: EZIPEK_clean_linker_0, # of connection points: 2
#     Edge 34, Type (0, 0), BuildingBlock: EZIPEK_clean_linker_0, # of connection points: 2
#     Edge 35, Type (0, 0), BuildingBlock: EZIPEK_clean_linker_0, # of connection points: 2
#     Edge 36, Type (0, 0), BuildingBlock: EZIPEK_clean_linker_0, # of connection points: 2
#     Edge 37, Type (0, 0), BuildingBlock: EZIPEK_clean_linker_0, # of connection points: 2
#     Edge 38, Type (0, 0), BuildingBlock: EZIPEK_clean_linker_0, # of connection points: 2
#     Edge 39, Type (0, 0), BuildingBlock: EZIPEK_clean_linker_0, # of connection points: 2
#     Edge 40, Type (0, 0), BuildingBlock: EZIPEK_clean_linker_0, # of connection points: 2
#     Edge 41, Type (0, 0), BuildingBlock: EZIPEK_clean_linker_0, # of connection points: 2
#     Edge 42, Type (0, 0), BuildingBlock: EZIPEK_clean_linker_0, # of connection points: 2
#     Edge 43, Type (0, 0), BuildingBlock: EZIPEK_clean_linker_0, # of connection points: 2
#     Edge 44, Type (0, 0), BuildingBlock: EZIPEK_clean_linker_0, # of connection points: 2
#     Edge 45, Type (0, 0), BuildingBlock: EZIPEK_clean_linker_0, # of connection points: 2
#     Edge 46, Type (0, 0), BuildingBlock: EZIPEK_clean_linker_0, # of connection points: 2
#     Edge 47, Type (0, 0), BuildingBlock: EZIPEK_clean_linker_0, # of connection points: 2
#     Edge 48, Type (0, 0), BuildingBlock: EZIPEK_clean_linker_0, # of connection points: 2
#     Edge 49, Type (0, 0), BuildingBlock: EZIPEK_clean_linker_0, # of connection points: 2
#     Edge 50, Type (0, 0), BuildingBlock: EZIPEK_clean_linker_0, # of connection points: 2
#     Edge 51, Type (0, 0), BuildingBlock: EZIPEK_clean_linker_0, # of connection points: 2
#     Edge 52, Type (0, 0), BuildingBlock: EZIPEK_clean_linker_0, # of connection points: 2
#     Edge 53, Type (0, 0), BuildingBlock: EZIPEK_clean_linker_0, # of connection points: 2
#     Edge 54, Type (0, 0), BuildingBlock: EZIPEK_clean_linker_0, # of connection points: 2
#     Edge 55, Type (0, 0), BuildingBlock: EZIPEK_clean_linker_0, # of connection points: 2
# Relax obj value: 0.379
# Max RMSD: 0.211
# Mean RMSD: 0.211
data_MOF--net-fnk--node1-BEQFEK_clean_sbu_0--edge1-EZIPEK_clean_linker_0
_symmetry_space_group_name_H-M    P1
_symmetry_Int_Tables_number       1
_symmetry_cell_setting            triclinic
loop_
_symmetry_equiv_pos_as_xyz
'x, y, z'
_cell_length_a     39.558805
_cell_length_b     39.586864
_cell_length_c     36.38536
_cell_angle_alpha  89.878848
_cell_angle_beta   89.684448
_cell_angle_gamma 89.991863
loop_
_atom_site_label
_atom_site_type_symbol
_atom_site_fract_x
_atom_site_fract_y
_atom_site_fract_z
_atom_type_partial_charge
Co0 Co 0.0788 0.41053 0.16307 0.0
Co1 Co 0.12936 0.36106 0.19954 0.0
C2 C 0.13213 0.43423 0.21727 0.0
O3 O 0.10732 0.43855 0.19563 0.0
O4 O 0.14535 0.40504 0.22154 0.0
C5 C 0.06764 0.46547 0.11454 0.0
O6 O 0.10075 0.46599 0.11212 0.0
C7 C 0.19001 0.3226 0.22365 0.0
C8 C 0.17733 0.27333 0.1992 0.0
C9 C 0.20412 0.29087 0.21484 0.0
N10 N 0.15832 0.32379 0.21028 0.0
N11 N 0.15061 0.29392 0.1969 0.0
C12 C 0.20376 0.35059 0.24673 0.0
H13 H 0.18268 0.36554 0.25858 0.0
H14 H 0.21919 0.36791 0.22951 0.0
H15 H 0.21865 0.34053 0.26998 0.0
C16 C 0.10522 0.3788 0.0953 0.0
N17 N 0.10434 0.38234 0.1321 0.0
N18 N 0.1286 0.36419 0.14679 0.0
C19 C 0.14699 0.35011 0.11924 0.0
C20 C 0.13244 0.35873 0.08595 0.0
C21 C 0.08034 0.39393 0.06923 0.0
H22 H 0.05566 0.3978 0.08314 0.0
H23 H 0.09026 0.41844 0.05904 0.0
H24 H 0.07673 0.37735 0.04501 0.0
O25 O 0.04747 0.38486 0.1941 0.0
O26 O 0.08293 0.34909 0.22075 0.0
H27 H 0.17242 0.30316 0.12699 0.0
H28 H 0.19533 0.33281 0.09928 0.0
C29 C 0.17883 0.33027 0.12391 0.0
H30 H 0.19276 0.33905 0.14842 0.0
H31 H 0.12771 0.28822 0.18425 0.0
O32 O 0.0532 0.44281 0.13379 0.0
C33 C 0.05311 0.361 0.21669 0.0
Co34 Co 0.58458 0.08847 0.14706 0.0
Co35 Co 0.63043 0.13993 0.18723 0.0
C36 C 0.55541 0.13551 0.20314 0.0
O37 O 0.55211 0.11378 0.17757 0.0
O38 O 0.58424 0.14847 0.21056 0.0
C39 C 0.54648 0.03269 0.13127 0.0
O40 O 0.54737 0.03105 0.16731 0.0
C41 C 0.66281 0.197 0.22656 0.0
C42 C 0.71566 0.19034 0.20783 0.0
C43 C 0.69521 0.20996 0.23009 0.0
N44 N 0.66402 0.17116 0.20267 0.0
N45 N 0.69568 0.16744 0.19157 0.0
C46 C 0.63193 0.20694 0.24778 0.0
H47 H 0.61102 0.21221 0.22838 0.0
H48 H 0.63667 0.22952 0.26503 0.0
H49 H 0.62394 0.18552 0.26553 0.0
C50 C 0.61427 0.11939 0.08165 0.0
N51 N 0.6112 0.11704 0.11835 0.0
N52 N 0.62947 0.14054 0.13416 0.0
C53 C 0.64437 0.15928 0.10733 0.0
C54 C 0.63539 0.14612 0.07333 0.0
C55 C 0.59688 0.09655 0.05499 0.0
H56 H 0.56911 0.09913 0.05838 0.0
H57 H 0.60383 0.10251 0.02613 0.0
H58 H 0.60376 0.06995 0.06104 0.0
O59 O 0.61101 0.05977 0.18047 0.0
O60 O 0.64614 0.09511 0.20759 0.0
H61 H 0.66523 0.2068 0.08937 0.0
H62 H 0.65762 0.20339 0.13841 0.0
C63 C 0.66607 0.18962 0.1135 0.0
H64 H 0.69264 0.18139 0.11714 0.0
H65 H 0.70382 0.14845 0.17376 0.0
O66 O 0.56069 0.05713 0.11495 0.0
C67 C 0.63431 0.06542 0.20347 0.0
Co68 Co 0.90691 0.58042 0.16778 0.0
Co69 Co 0.85901 0.63072 0.20745 0.0
C70 C 0.85689 0.55521 0.22286 0.0
O71 O 0.88044 0.55002 0.19953 0.0
O72 O 0.84485 0.58488 0.22809 0.0
C73 C 0.96305 0.54265 0.14895 0.0
O74 O 0.96806 0.54539 0.18447 0.0
C75 C 0.79608 0.66593 0.23009 0.0
C76 C 0.81613 0.71741 0.23896 0.0
C77 C 0.78676 0.69853 0.23967 0.0
N78 N 0.8296 0.66571 0.22366 0.0
N79 N 0.84136 0.69653 0.22914 0.0
C80 C 0.77375 0.63567 0.22697 0.0
H81 H 0.77627 0.62019 0.25228 0.0
H82 H 0.78197 0.61994 0.20333 0.0
H83 H 0.74688 0.64319 0.22388 0.0
C84 C 0.87785 0.61159 0.10228 0.0
N85 N 0.87972 0.60848 0.13899 0.0
N86 N 0.86001 0.63095 0.15472 0.0
C87 C 0.84523 0.64962 0.12801 0.0
C88 C 0.85628 0.63794 0.09393 0.0
C89 C 0.89643 0.58958 0.07563 0.0
H90 H 0.92367 0.59623 0.07584 0.0
H91 H 0.89374 0.56273 0.08392 0.0
H92 H 0.88651 0.59264 0.04745 0.0
O93 O 0.93748 0.60628 0.19939 0.0
O94 O 0.90453 0.64272 0.22839 0.0
H95 H 0.83361 0.69725 0.1525 0.0
H96 H 0.81329 0.69014 0.10866 0.0
C97 C 0.82133 0.67814 0.13479 0.0
H98 H 0.79882 0.66832 0.14956 0.0
H99 H 0.86665 0.7034 0.22573 0.0
O100 O 0.93661 0.55502 0.13497 0.0
C101 C 0.93355 0.62976 0.22268 0.0
Co102 Co 0.41216 0.91651 0.15545 0.0
Co103 Co 0.36378 0.86835 0.19795 0.0
C104 C 0.43773 0.86812 0.21313 0.0
O105 O 0.44129 0.88961 0.18743 0.0
O106 O 0.40867 0.85607 0.22125 0.0
C107 C 0.46672 0.92627 0.10601 0.0
O108 O 0.46702 0.89313 0.1049 0.0
C109 C 0.32741 0.8072 0.2241 0.0
C110 C 0.27585 0.82806 0.2305 0.0
C111 C 0.29453 0.79871 0.23366 0.0
N112 N 0.32809 0.84026 0.21544 0.0
N113 N 0.2972 0.85251 0.21945 0.0
C114 C 0.35743 0.78434 0.22283 0.0
H115 H 0.37659 0.7942 0.20315 0.0
H116 H 0.34975 0.75835 0.21509 0.0
H117 H 0.36893 0.78329 0.25056 0.0
C118 C 0.37718 0.88844 0.0915 0.0
N119 N 0.38257 0.89011 0.12789 0.0
N120 N 0.36373 0.86757 0.1449 0.0
C121 C 0.34632 0.85004 0.11925 0.0
C122 C 0.35451 0.86274 0.08462 0.0
C123 C 0.39303 0.91141 0.06361 0.0
H124 H 0.41727 0.90029 0.05413 0.0
H125 H 0.37659 0.91454 0.03926 0.0
H126 H 0.39778 0.93657 0.07581 0.0
O127 O 0.38856 0.94865 0.18778 0.0
O128 O 0.35277 0.91483 0.21724 0.0
H129 H 0.3125 0.81035 0.10195 0.0
H130 H 0.33581 0.80223 0.14378 0.0
C131 C 0.32247 0.82178 0.12753 0.0
H132 H 0.30108 0.83142 0.14431 0.0
H133 H 0.29061 0.87757 0.21418 0.0
O134 O 0.4437 0.94135 0.12409 0.0
C135 C 0.36568 0.94399 0.212 0.0
Co136 Co 0.0863 0.58065 0.35725 0.0
Co137 Co 0.13283 0.63072 0.31518 0.0
C138 C 0.13597 0.55661 0.29952 0.0
O139 O 0.11277 0.55205 0.32335 0.0
O140 O 0.14829 0.58602 0.29374 0.0
C141 C 0.07587 0.52445 0.4043 0.0
O142 O 0.10834 0.51967 0.39876 0.0
C143 C 0.19285 0.66891 0.28883 0.0
C144 C 0.17018 0.7195 0.28127 0.0
C145 C 0.20025 0.70187 0.27871 0.0
N146 N 0.15973 0.66718 0.29726 0.0
N147 N 0.14639 0.69749 0.29253 0.0
C148 C 0.21675 0.63976 0.29081 0.0
H149 H 0.20837 0.62164 0.31233 0.0
H150 H 0.24284 0.64861 0.29644 0.0
H151 H 0.2168 0.62649 0.26397 0.0
C152 C 0.11511 0.61525 0.4214 0.0
N153 N 0.11313 0.61023 0.38492 0.0
N154 N 0.13408 0.63081 0.36787 0.0
C155 C 0.15065 0.64921 0.39342 0.0
C156 C 0.13918 0.63972 0.42812 0.0
C157 C 0.09305 0.5982 0.44932 0.0
H158 H 0.0669 0.59635 0.43872 0.0
H159 H 0.10282 0.57239 0.45457 0.0
H160 H 0.09262 0.61217 0.47568 0.0
O161 O 0.05281 0.60478 0.32773 0.0
O162 O 0.08554 0.64055 0.29699 0.0
H163 H 0.16509 0.69561 0.36771 0.0
H164 H 0.18671 0.68701 0.41043 0.0
C165 C 0.17654 0.67557 0.38496 0.0
H166 H 0.19748 0.66384 0.36916 0.0
H167 H 0.12103 0.70326 0.29747 0.0
O168 O 0.06177 0.54995 0.38976 0.0
C169 C 0.05648 0.62795 0.30382 0.0
Co170 Co 0.41437 0.08862 0.36034 0.0
Co171 Co 0.36529 0.13631 0.3191 0.0
C172 C 0.43887 0.13671 0.30109 0.0
O173 O 0.44307 0.1153 0.32679 0.0
O174 O 0.40961 0.14877 0.29416 0.0
C175 C 0.46909 0.08064 0.40878 0.0
O176 O 0.47073 0.11361 0.40521 0.0
C177 C 0.328 0.19205 0.28315 0.0
C178 C 0.2755 0.17784 0.29771 0.0
C179 C 0.29456 0.20184 0.27933 0.0
N180 N 0.32869 0.16367 0.30345 0.0
N181 N 0.29725 0.15539 0.31207 0.0
C182 C 0.35857 0.20829 0.26651 0.0
H183 H 0.37 0.19079 0.24614 0.0
H184 H 0.37761 0.21277 0.28824 0.0
H185 H 0.35216 0.2325 0.25276 0.0
C186 C 0.37942 0.11625 0.42485 0.0
N187 N 0.38497 0.11507 0.3884 0.0
N188 N 0.36629 0.1379 0.37192 0.0
C189 C 0.34911 0.1554 0.39802 0.0
C190 C 0.3569 0.142 0.4323 0.0
C191 C 0.39439 0.09229 0.45211 0.0
H192 H 0.39831 0.06719 0.43935 0.0
H193 H 0.41902 0.10239 0.46151 0.0
H194 H 0.37772 0.0893 0.47649 0.0
O195 O 0.39048 0.05588 0.32927 0.0
O196 O 0.35424 0.0896 0.30071 0.0
H197 H 0.30002 0.17392 0.38489 0.0
H198 H 0.32358 0.20085 0.41504 0.0
C199 C 0.32555 0.18411 0.39067 0.0
H200 H 0.33438 0.19889 0.36655 0.0
H201 H 0.29066 0.13412 0.32752 0.0
O202 O 0.44573 0.06469 0.39242 0.0
C203 C 0.36721 0.06045 0.30576 0.0
Co204 Co 0.9123 0.40884 0.35936 0.0
Co205 Co 0.85973 0.35981 0.32535 0.0
C206 C 0.85899 0.4341 0.30721 0.0
O207 O 0.88426 0.43867 0.32825 0.0
O208 O 0.8454 0.4049 0.30367 0.0
C209 C 0.96994 0.44674 0.37344 0.0
O210 O 0.97413 0.44282 0.33787 0.0
C211 C 0.79787 0.32272 0.30106 0.0
C212 C 0.80878 0.27363 0.32708 0.0
C213 C 0.78301 0.29119 0.30957 0.0
N214 N 0.82892 0.32372 0.3161 0.0
N215 N 0.83556 0.29395 0.33052 0.0
C216 C 0.7859 0.3501 0.27583 0.0
H217 H 0.80789 0.36403 0.26436 0.0
H218 H 0.77034 0.36855 0.29136 0.0
H219 H 0.77145 0.33955 0.25253 0.0
C220 C 0.88468 0.38237 0.42838 0.0
N221 N 0.88596 0.38284 0.39143 0.0
N222 N 0.86211 0.36336 0.37814 0.0
C223 C 0.84404 0.35065 0.40682 0.0
C224 C 0.85805 0.36211 0.43942 0.0
C225 C 0.90806 0.40177 0.45265 0.0
H226 H 0.93462 0.39598 0.445 0.0
H227 H 0.90382 0.42923 0.44857 0.0
H228 H 0.90407 0.39541 0.48199 0.0
O229 O 0.94047 0.3814 0.32707 0.0
O230 O 0.90449 0.34572 0.30178 0.0
H231 H 0.81986 0.30278 0.40135 0.0
H232 H 0.79667 0.33237 0.42876 0.0
C233 C 0.8127 0.32975 0.40379 0.0
H234 H 0.79793 0.33747 0.37939 0.0
H235 H 0.85797 0.28798 0.34406 0.0
O236 O 0.9437 0.43512 0.38892 0.0
C237 C 0.93436 0.35759 0.30487 0.0
Co238 Co 0.58861 0.9244 0.35567 0.0
Co239 Co 0.63394 0.87409 0.31295 0.0
C240 C 0.55784 0.87621 0.3031 0.0
O241 O 0.55509 0.89784 0.32883 0.0
O242 O 0.58672 0.86453 0.29336 0.0
C243 C 0.55125 0.98051 0.37564 0.0
O244 O 0.55076 0.98434 0.33978 0.0
C245 C 0.66379 0.80882 0.28935 0.0
C246 C 0.71595 0.82531 0.27648 0.0
C247 C 0.69521 0.79725 0.27791 0.0
N248 N 0.66602 0.84236 0.29474 0.0
N249 N 0.69722 0.85199 0.28683 0.0
C250 C 0.6324 0.78852 0.29533 0.0
H251 H 0.61698 0.79977 0.31776 0.0
H252 H 0.63864 0.76183 0.30178 0.0
H253 H 0.61719 0.78908 0.2698 0.0
C254 C 0.62038 0.89352 0.41934 0.0
N255 N 0.61692 0.8966 0.38279 0.0
N256 N 0.63599 0.87427 0.36592 0.0
C257 C 0.6526 0.85617 0.39183 0.0
C258 C 0.64305 0.86787 0.42644 0.0
C259 C 0.60105 0.91388 0.44705 0.0
H260 H 0.60758 0.94097 0.44372 0.0
H261 H 0.57356 0.91097 0.44212 0.0
H262 H 0.60666 0.90599 0.47565 0.0
O263 O 0.61277 0.95327 0.31992 0.0
O264 O 0.64821 0.9189 0.2914 0.0
H265 H 0.69532 0.83556 0.36343 0.0
H266 H 0.68878 0.81865 0.40928 0.0
C267 C 0.67607 0.82757 0.38392 0.0
H268 H 0.66128 0.8065 0.37208 0.0
H269 H 0.70588 0.8768 0.28907 0.0
O270 O 0.56609 0.95529 0.38947 0.0
C271 C 0.63561 0.94824 0.2959 0.0
Co272 Co 0.91596 0.58994 0.86732 0.0
Co273 Co 0.86963 0.64093 0.82688 0.0
C274 C 0.94553 0.63732 0.81199 0.0
O275 O 0.94877 0.61717 0.83914 0.0
O276 O 0.91631 0.64878 0.80313 0.0
C277 C 0.95047 0.53122 0.88341 0.0
O278 O 0.94873 0.52888 0.84748 0.0
C279 C 0.8347 0.69644 0.78607 0.0
C280 C 0.78332 0.6905 0.80947 0.0
C281 C 0.80196 0.70908 0.78438 0.0
N282 N 0.83542 0.67192 0.81173 0.0
N283 N 0.80458 0.66856 0.82543 0.0
C284 C 0.86392 0.7054 0.76175 0.0
H285 H 0.87565 0.682 0.75077 0.0
H286 H 0.88326 0.71863 0.77834 0.0
H287 H 0.85601 0.72204 0.73876 0.0
C288 C 0.8859 0.61954 0.93264 0.0
N289 N 0.8888 0.6176 0.89594 0.0
N290 N 0.87044 0.64119 0.88031 0.0
C291 C 0.8555 0.65952 0.90744 0.0
C292 C 0.86441 0.64583 0.94132 0.0
C293 C 0.9046 0.59736 0.9589 0.0
H294 H 0.8966 0.57075 0.955 0.0
H295 H 0.93211 0.59904 0.95312 0.0
H296 H 0.89997 0.60484 0.98776 0.0
O297 O 0.88986 0.56186 0.83309 0.0
O298 O 0.85342 0.59644 0.80682 0.0
H299 H 0.80763 0.6834 0.90003 0.0
H300 H 0.83736 0.70794 0.92558 0.0
C301 C 0.83466 0.69059 0.90184 0.0
H302 H 0.84241 0.70382 0.87627 0.0
H303 H 0.79776 0.6503 0.84482 0.0
O304 O 0.93884 0.55722 0.89922 0.0
C305 C 0.86591 0.56703 0.81079 0.0
Co306 Co 0.41986 0.90658 0.8596 0.0
Co307 Co 0.36732 0.8631 0.81868 0.0
C308 C 0.37247 0.93863 0.80575 0.0
O309 O 0.39439 0.94066 0.83129 0.0
O310 O 0.35918 0.9102 0.79693 0.0
C311 C 0.45786 0.9577 0.89669 0.0
O312 O 0.43567 0.97926 0.8837 0.0
C313 C 0.31247 0.82798 0.77723 0.0
C314 C 0.31563 0.77781 0.80391 0.0
C315 C 0.29872 0.79564 0.77701 0.0
N316 N 0.33599 0.82924 0.80376 0.0
N317 N 0.33776 0.7991 0.81935 0.0
C318 C 0.30564 0.85617 0.75093 0.0
H319 H 0.32969 0.86405 0.7376 0.0
H320 H 0.29578 0.87824 0.76639 0.0
H321 H 0.2871 0.84861 0.72967 0.0
C322 C 0.38791 0.87737 0.92471 0.0
N323 N 0.3911 0.87996 0.88802 0.0
N324 N 0.36645 0.86357 0.87189 0.0
C325 C 0.34595 0.8507 0.8985 0.0
C326 C 0.35931 0.85869 0.93267 0.0
C327 C 0.4108 0.89426 0.95168 0.0
H328 H 0.43733 0.88674 0.94601 0.0
H329 H 0.4089 0.92205 0.94827 0.0
H330 H 0.40424 0.88755 0.98046 0.0
O331 O 0.44753 0.88138 0.82459 0.0
O332 O 0.412 0.84668 0.79753 0.0
H333 H 0.31714 0.80561 0.89137 0.0
H334 H 0.29501 0.83856 0.9149 0.0
C335 C 0.31296 0.8333 0.89206 0.0
H336 H 0.3017 0.84169 0.86574 0.0
H337 H 0.35499 0.79274 0.83985 0.0
O338 O 0.45401 0.92648 0.891 0.0
C339 C 0.44179 0.85832 0.8014 0.0
Co340 Co 0.08188 0.41473 0.8599 0.0
Co341 Co 0.13415 0.36932 0.81939 0.0
C342 C 0.06261 0.36341 0.80002 0.0
O343 O 0.05733 0.38718 0.8229 0.0
O344 O 0.09212 0.35083 0.7956 0.0
C345 C 0.02453 0.42187 0.90863 0.0
O346 O 0.02459 0.38878 0.91119 0.0
C347 C 0.17995 0.31309 0.7966 0.0
C348 C 0.22804 0.33426 0.81615 0.0
C349 C 0.21377 0.30413 0.80422 0.0
N350 N 0.17484 0.34529 0.80737 0.0
N351 N 0.20396 0.35797 0.81794 0.0
C352 C 0.15335 0.29386 0.77631 0.0
H353 H 0.13673 0.31176 0.7614 0.0
H354 H 0.13713 0.27985 0.79607 0.0
H355 H 0.16472 0.27641 0.75593 0.0
C356 C 0.11441 0.3874 0.92549 0.0
N357 N 0.11077 0.38941 0.88885 0.0
N358 N 0.13108 0.36774 0.87265 0.0
C359 C 0.14704 0.34977 0.89923 0.0
C360 C 0.13704 0.362 0.93335 0.0
C361 C 0.0972 0.40985 0.95279 0.0
H362 H 0.0735 0.39759 0.96222 0.0
H363 H 0.11326 0.41381 0.97731 0.0
H364 H 0.09146 0.43469 0.9402 0.0
O365 O 0.1067 0.44985 0.83354 0.0
O366 O 0.1387 0.41724 0.79797 0.0
H367 H 0.17212 0.30447 0.91754 0.0
H368 H 0.16158 0.30552 0.86923 0.0
C369 C 0.17047 0.32078 0.89275 0.0
H370 H 0.19611 0.33063 0.88669 0.0
H371 H 0.20697 0.38232 0.82838 0.0
O372 O 0.04706 0.43683 0.88966 0.0
C373 C 0.1269 0.44632 0.80653 0.0
Co374 Co 0.58593 0.08317 0.84942 0.0
Co375 Co 0.63566 0.13124 0.80864 0.0
C376 C 0.63782 0.05702 0.79454 0.0
O377 O 0.61349 0.05345 0.81725 0.0
O378 O 0.65102 0.08603 0.78884 0.0
C379 C 0.57336 0.03161 0.90336 0.0
O380 O 0.6063 0.03106 0.90758 0.0
C381 C 0.69772 0.16698 0.78381 0.0
C382 C 0.67795 0.21903 0.7788 0.0
C383 C 0.70708 0.19995 0.7757 0.0
N384 N 0.66447 0.16674 0.79189 0.0
N385 N 0.65286 0.19791 0.78862 0.0
C386 C 0.71982 0.13638 0.78414 0.0
H387 H 0.71314 0.12008 0.80795 0.0
H388 H 0.74695 0.14346 0.78516 0.0
H389 H 0.71523 0.12163 0.75876 0.0
C390 C 0.61208 0.12019 0.91403 0.0
N391 N 0.61183 0.11347 0.87778 0.0
N392 N 0.6349 0.13209 0.86127 0.0
C393 C 0.65157 0.15012 0.88706 0.0
C394 C 0.63756 0.14299 0.92127 0.0
C395 C 0.58758 0.10627 0.94148 0.0
H396 H 0.56347 0.09959 0.92799 0.0
H397 H 0.59892 0.08366 0.95455 0.0
H398 H 0.58232 0.12491 0.9635 0.0
O399 O 0.55418 0.10754 0.81782 0.0
O400 O 0.58908 0.14227 0.78839 0.0
H401 H 0.6714 0.19507 0.86264 0.0
H402 H 0.69158 0.18318 0.90519 0.0
C403 C 0.68039 0.17346 0.87937 0.0
H404 H 0.69995 0.15975 0.86341 0.0
H405 H 0.62782 0.20485 0.79373 0.0
O406 O 0.56001 0.05247 0.88119 0.0
C407 C 0.55938 0.13055 0.79401 0.0
Co408 Co 0.90955 0.42369 0.66205 0.0
Co409 Co 0.86451 0.37451 0.70608 0.0
C410 C 0.94218 0.37591 0.71229 0.0
O411 O 0.94438 0.39501 0.68415 0.0
O412 O 0.91312 0.36666 0.72462 0.0
C413 C 0.95822 0.46595 0.62573 0.0
O414 O 0.98145 0.44672 0.64063 0.0
C415 C 0.83359 0.30842 0.728 0.0
C416 C 0.7834 0.32647 0.74642 0.0
C417 C 0.80233 0.29758 0.741 0.0
N418 N 0.83292 0.34239 0.72551 0.0
N419 N 0.80288 0.35286 0.7368 0.0
C420 C 0.86323 0.287 0.71771 0.0
H421 H 0.88011 0.30082 0.69839 0.0
H422 H 0.85473 0.26287 0.70533 0.0
H423 H 0.87765 0.28087 0.74293 0.0
C424 C 0.87595 0.39453 0.59938 0.0
N425 N 0.87986 0.39727 0.63584 0.0
N426 N 0.86093 0.37497 0.653 0.0
C427 C 0.84365 0.35741 0.62723 0.0
C428 C 0.853 0.36915 0.59247 0.0
C429 C 0.89528 0.41487 0.57164 0.0
H430 H 0.92277 0.41229 0.57684 0.0
H431 H 0.88982 0.40677 0.5432 0.0
H432 H 0.8884 0.4419 0.57454 0.0
O433 O 0.88781 0.45121 0.70047 0.0
O434 O 0.8494 0.41898 0.72716 0.0
H435 H 0.80476 0.32255 0.61064 0.0
H436 H 0.83456 0.30694 0.644 0.0
C437 C 0.8197 0.32928 0.63531 0.0
H438 H 0.80245 0.33652 0.65807 0.0
H439 H 0.79534 0.37812 0.73715 0.0
O440 O 0.92733 0.45861 0.62944 0.0
C441 C 0.86394 0.44746 0.72352 0.0
Co442 Co 0.58486 0.91139 0.65788 0.0
Co443 Co 0.63612 0.86157 0.69303 0.0
C444 C 0.63862 0.93408 0.71262 0.0
O445 O 0.61379 0.93845 0.69102 0.0
O446 O 0.6523 0.905 0.71639 0.0
C447 C 0.57271 0.96702 0.60993 0.0
O448 O 0.60555 0.96662 0.60459 0.0
C449 C 0.69587 0.82057 0.71648 0.0
C450 C 0.68228 0.77272 0.68956 0.0
C451 C 0.70909 0.78857 0.70704 0.0
N452 N 0.66472 0.82349 0.70195 0.0
N453 N 0.65651 0.79445 0.68687 0.0
C454 C 0.70961 0.84669 0.7421 0.0
H455 H 0.68844 0.86046 0.75547 0.0
H456 H 0.72458 0.86557 0.72641 0.0
H457 H 0.72523 0.83502 0.7639 0.0
C458 C 0.61068 0.88062 0.58926 0.0
N459 N 0.6101 0.88373 0.62611 0.0
N460 N 0.63484 0.86589 0.64026 0.0
C461 C 0.65331 0.85261 0.61228 0.0
C462 C 0.63825 0.86129 0.57923 0.0
C463 C 0.58519 0.89543 0.56372 0.0
H464 H 0.56101 0.90001 0.57839 0.0
H465 H 0.59516 0.91946 0.5523 0.0
H466 H 0.58064 0.87818 0.54026 0.0
O467 O 0.55387 0.8853 0.68873 0.0
O468 O 0.58983 0.84972 0.71496 0.0
H469 H 0.68032 0.80627 0.61792 0.0
H470 H 0.70239 0.83791 0.59208 0.0
C471 C 0.68579 0.8337 0.61636 0.0
H472 H 0.69917 0.84182 0.64151 0.0
H473 H 0.63379 0.78999 0.67328 0.0
O474 O 0.55891 0.94462 0.63006 0.0
C475 C 0.55991 0.86154 0.71129 0.0
Co476 Co 0.08101 0.59374 0.65419 0.0
Co477 Co 0.13355 0.63844 0.69394 0.0
C478 C 0.06228 0.64462 0.71524 0.0
O479 O 0.05668 0.6209 0.69239 0.0
O480 O 0.09186 0.65718 0.71878 0.0
C481 C 0.02355 0.58441 0.60571 0.0
O482 O 0.02144 0.61742 0.60301 0.0
C483 C 0.18016 0.69377 0.71621 0.0
C484 C 0.22794 0.67164 0.69635 0.0
C485 C 0.21417 0.70203 0.70836 0.0
N486 N 0.17451 0.66168 0.70553 0.0
N487 N 0.20342 0.6484 0.69477 0.0
C488 C 0.15382 0.71361 0.73653 0.0
H489 H 0.13668 0.69611 0.7515 0.0
H490 H 0.1381 0.72797 0.71678 0.0
H491 H 0.16539 0.73083 0.75686 0.0
C492 C 0.11346 0.62107 0.58805 0.0
N493 N 0.10961 0.61931 0.62473 0.0
N494 N 0.1304 0.64052 0.64066 0.0
C495 C 0.14696 0.65791 0.61384 0.0
C496 C 0.13677 0.64584 0.57982 0.0
C497 C 0.09674 0.59811 0.56116 0.0
H498 H 0.07314 0.61018 0.55138 0.0
H499 H 0.11328 0.5937 0.53692 0.0
H500 H 0.09086 0.57348 0.57421 0.0
O501 O 0.10621 0.55824 0.67925 0.0
O502 O 0.13786 0.59045 0.71506 0.0
H503 H 0.17409 0.70193 0.59507 0.0
H504 H 0.16343 0.70157 0.64349 0.0
C505 C 0.17167 0.68582 0.61997 0.0
H506 H 0.19683 0.67483 0.62582 0.0
H507 H 0.206 0.62399 0.68436 0.0
O508 O 0.04662 0.57096 0.62493 0.0
C509 C 0.12615 0.56146 0.70624 0.0
Co510 Co 0.4125 0.08716 0.65565 0.0
Co511 Co 0.36266 0.13413 0.69777 0.0
C512 C 0.3665 0.05965 0.71488 0.0
O513 O 0.3879 0.05633 0.6888 0.0
O514 O 0.35329 0.08846 0.72244 0.0
C515 C 0.46642 0.04737 0.63855 0.0
O516 O 0.46881 0.04907 0.67449 0.0
C517 C 0.30964 0.17356 0.73872 0.0
C518 C 0.31711 0.22319 0.7118 0.0
C519 C 0.29814 0.2068 0.73839 0.0
N520 N 0.33389 0.17045 0.71283 0.0
N521 N 0.33824 0.2003 0.69714 0.0
C522 C 0.29965 0.14595 0.76465 0.0
H523 H 0.32258 0.13568 0.77812 0.0
H524 H 0.28802 0.12506 0.74884 0.0
H525 H 0.28151 0.15508 0.78579 0.0
C526 C 0.38089 0.11726 0.59147 0.0
N527 N 0.38364 0.11392 0.62806 0.0
N528 N 0.36028 0.13199 0.64464 0.0
C529 C 0.3409 0.14664 0.61836 0.0
C530 C 0.35378 0.13806 0.58398 0.0
C531 C 0.40403 0.10081 0.56418 0.0
H532 H 0.43066 0.10638 0.57142 0.0
H533 H 0.40043 0.07303 0.56532 0.0
H534 H 0.3992 0.10975 0.5358 0.0
O535 O 0.44312 0.11352 0.68623 0.0
O536 O 0.40896 0.14836 0.71584 0.0
H537 H 0.31702 0.19454 0.62567 0.0
H538 H 0.29148 0.1639 0.60277 0.0
C539 C 0.30997 0.16743 0.62528 0.0
H540 H 0.29806 0.16039 0.65186 0.0
H541 H 0.35632 0.20522 0.67683 0.0
O542 O 0.44186 0.06156 0.62267 0.0
C543 C 0.43848 0.13661 0.70978 0.0
C544 C 0.98563 0.50134 0.10262 0.0
C545 C 0.99044 0.53002 0.12524 0.0
C546 C 0.05164 0.526 0.1177 0.0
C547 C 0.04662 0.49388 0.10175 0.0
N548 N 0.01237 0.46012 0.06241 0.0
N549 N 0.02565 0.57737 0.14096 0.0
C550 C 0.01459 0.48512 0.08796 0.0
C551 C 0.02283 0.54506 0.12822 0.0
N552 N 0.95409 0.48814 0.09761 0.0
N553 N 0.0836 0.53705 0.12483 0.0
H554 H 0.00453 0.59184 0.148 0.0
H555 H 0.04823 0.59082 0.14132 0.0
H556 H 0.10492 0.5252 0.11393 0.0
H557 H 0.089 0.55801 0.14097 0.0
H558 H 0.94974 0.46516 0.0846 0.0
H559 H 0.93223 0.49936 0.108 0.0
H560 H 0.98999 0.4535 0.04931 0.0
H561 H 0.03411 0.44869 0.0518 0.0
C562 C 0.54728 0.97142 0.11781 0.0
C563 C 0.53352 0.00373 0.11041 0.0
C564 C 0.48778 0.97768 0.07614 0.0
C565 C 0.49573 0.94671 0.09332 0.0
N566 N 0.53714 0.91122 0.1227 0.0
N567 N 0.49364 0.03862 0.07761 0.0
C568 C 0.52737 0.94241 0.11074 0.0
C569 C 0.50521 0.00727 0.08702 0.0
N570 N 0.57927 0.96884 0.13154 0.0
N571 N 0.46246 0.97843 0.05086 0.0
H572 H 0.50605 0.0608 0.08491 0.0
H573 H 0.47107 0.04279 0.06376 0.0
H574 H 0.45021 0.9563 0.04283 0.0
H575 H 0.45594 0.99977 0.03575 0.0
H576 H 0.59194 0.94603 0.135 0.0
H577 H 0.59436 0.99002 0.13624 0.0
H578 H 0.55723 0.90714 0.14054 0.0
H579 H 0.52509 0.88914 0.11448 0.0
C580 C 0.99253 0.49001 0.41722 0.0
C581 C 0.99763 0.46053 0.39572 0.0
C582 C 0.05867 0.46397 0.40559 0.0
C583 C 0.05355 0.49723 0.41826 0.0
N584 N 0.0188 0.53366 0.45443 0.0
N585 N 0.03366 0.41421 0.37761 0.0
C586 C 0.0213 0.50708 0.43083 0.0
C587 C 0.03022 0.44552 0.39297 0.0
N588 N 0.96087 0.50326 0.42179 0.0
N589 N 0.0904 0.45047 0.40615 0.0
H590 H 0.01289 0.39934 0.3706 0.0
H591 H 0.05675 0.4028 0.37186 0.0
H592 H 0.11038 0.46284 0.41899 0.0
H593 H 0.09643 0.4262 0.39745 0.0
H594 H 0.95622 0.52662 0.43386 0.0
H595 H 0.93909 0.49171 0.41193 0.0
H596 H 0.99631 0.54131 0.46688 0.0
H597 H 0.04043 0.54573 0.4642 0.0
C598 C 0.55003 0.04061 0.39532 0.0
C599 C 0.53748 0.0072 0.39943 0.0
C600 C 0.49038 0.02815 0.43624 0.0
C601 C 0.49783 0.06075 0.42294 0.0
N602 N 0.54205 0.10024 0.4093 0.0
N603 N 0.49919 0.96793 0.42918 0.0
C604 C 0.53038 0.06782 0.40904 0.0
C605 C 0.50936 1.00041 0.42274 0.0
N606 N 0.57988 0.04606 0.37715 0.0
N607 N 0.46421 0.02432 0.46044 0.0
H608 H 0.51252 0.94696 0.41974 0.0
H609 H 0.47693 0.96159 0.44291 0.0
H610 H 0.45078 0.04526 0.47006 0.0
H611 H 0.45797 0.00161 0.47324 0.0
H612 H 0.58883 0.06983 0.36973 0.0
H613 H 0.59567 0.02629 0.36899 0.0
H614 H 0.56613 0.10733 0.40063 0.0
H615 H 0.52856 0.11957 0.42217 0.0
C616 C 0.94615 0.47 0.89667 0.0
C617 C 0.96126 0.50153 0.90477 0.0
C618 C 0.00448 0.47257 0.94019 0.0
C619 C 0.99594 0.44247 0.92177 0.0
N620 N 0.95455 0.40978 0.88913 0.0
N621 N 0.00257 0.53367 0.93876 0.0
C622 C 0.96479 0.44003 0.90311 0.0
C623 C 0.98917 0.50323 0.92896 0.0
N624 N 0.9142 0.46903 0.88271 0.0
N625 N 0.0283 0.4715 0.96708 0.0
H626 H 0.99191 0.55669 0.93118 0.0
H627 H 0.02517 0.5361 0.95304 0.0
H628 H 0.0389 0.44858 0.97535 0.0
H629 H 0.03456 0.49213 0.98341 0.0
H630 H 0.90067 0.44676 0.87902 0.0
H631 H 0.90004 0.49094 0.87845 0.0
H632 H 0.93467 0.40723 0.87069 0.0
H633 H 0.96638 0.3871 0.89584 0.0
C634 C 0.4924 0.99669 0.93565 0.0
C635 C 0.49088 0.96984 0.91008 0.0
C636 C 0.552 0.97329 0.89984 0.0
C637 C 0.5516 0.00463 0.91817 0.0
N638 N 0.52702 0.04029 0.96398 0.0
N639 N 0.51772 0.93036 0.86993 0.0
C640 C 0.52345 0.01427 0.9398 0.0
C641 C 0.52076 0.95671 0.89377 0.0
N642 N 0.46406 0.00545 0.95503 0.0
N643 N 0.582 0.96029 0.8876 0.0
H644 H 0.53728 0.92043 0.85397 0.0
H645 H 0.53728 0.92043 0.85397 0.0
H646 H 0.60502 0.97222 0.89245 0.0
H647 H 0.58474 0.93633 0.8763 0.0
H648 H 0.46246 0.02598 0.97271 0.0
H649 H 0.44181 0.99133 0.95384 0.0
H650 H 0.50789 0.04963 0.98082 0.0
H651 H 0.55062 0.05111 0.96868 0.0
C652 C 0.95601 0.52897 0.63048 0.0
C653 C 0.96724 0.49956 0.61151 0.0
C654 C 0.00413 0.5339 0.57267 0.0
C655 C 0.99572 0.56218 0.59451 0.0
N656 N 0.95379 0.59021 0.63111 0.0
N657 N 0.99337 0.47504 0.55788 0.0
C658 C 0.96775 0.56091 0.6185 0.0
C659 C 0.9884 0.50238 0.58013 0.0
N660 N 0.93676 0.5264 0.66172 0.0
N661 N 0.02857 0.53724 0.54635 0.0
H662 H 0.98183 0.45176 0.56294 0.0
H663 H 0.00664 0.47603 0.53313 0.0
H664 H 0.03809 0.56094 0.53916 0.0
H665 H 0.03932 0.51707 0.53218 0.0
H666 H 0.93122 0.5469 0.6786 0.0
H667 H 0.92867 0.50353 0.67285 0.0
H668 H 0.93172 0.59103 0.64684 0.0
H669 H 0.96227 0.61378 0.6221 0.0
C670 C 0.49092 0.00528 0.59432 0.0
C671 C 0.49495 0.03392 0.61711 0.0
C672 C 0.55622 0.02737 0.61622 0.0
C673 C 0.55162 0.99585 0.59863 0.0
N674 N 0.51902 0.96314 0.55649 0.0
N675 N 0.53045 0.07996 0.63601 0.0
C676 C 0.5203 0.98796 0.58235 0.0
C677 C 0.52743 0.04766 0.62331 0.0
N678 N 0.45941 0.9933 0.58644 0.0
N679 N 0.58737 0.03662 0.62862 0.0
H680 H 0.50944 0.0953 0.64094 0.0
H681 H 0.55347 0.09255 0.63794 0.0
H682 H 0.60937 0.02371 0.62151 0.0
H683 H 0.59133 0.05687 0.64628 0.0
H684 H 0.45515 0.97036 0.57331 0.0
H685 H 0.43732 0.00561 0.59456 0.0
H686 H 0.49738 0.95726 0.54163 0.0
H687 H 0.541 0.95116 0.54735 0.0
C688 C 0.26247 0.28663 0.24535 0.0
C689 C 0.23841 0.27482 0.22003 0.0
C690 C 0.26469 0.21896 0.22197 0.0
C691 C 0.28043 0.22838 0.25537 0.0
N692 N 0.29744 0.27246 0.29731 0.0
N693 N 0.23474 0.2381 0.16772 0.0
C694 C 0.28069 0.26271 0.26644 0.0
C695 C 0.24509 0.24333 0.20298 0.0
N696 N 0.27271 0.31936 0.24385 0.0
N697 N 0.26757 0.18663 0.20923 0.0
H698 H 0.22374 0.25742 0.15227 0.0
H699 H 0.2407 0.21666 0.15249 0.0
H700 H 0.28362 0.16886 0.22118 0.0
H701 H 0.25328 0.17714 0.18765 0.0
H702 H 0.29238 0.3288 0.25978 0.0
H703 H 0.26488 0.33502 0.22244 0.0
H704 H 0.2955 0.29686 0.3079 0.0
H705 H 0.31162 0.25572 0.31317 0.0
C706 C 0.72546 0.28987 0.27706 0.0
C707 C 0.74943 0.27504 0.30066 0.0
C708 C 0.72401 0.21972 0.28999 0.0
C709 C 0.70813 0.23326 0.25836 0.0
N710 N 0.68974 0.2821 0.22399 0.0
N711 N 0.75175 0.23218 0.34758 0.0
C712 C 0.70715 0.26871 0.2528 0.0
C713 C 0.74276 0.24165 0.31289 0.0
N714 N 0.71617 0.32257 0.28233 0.0
N715 N 0.72218 0.1859 0.29736 0.0
H716 H 0.76131 0.24956 0.36639 0.0
H717 H 0.74548 0.20894 0.35921 0.0
H718 H 0.70687 0.16946 0.28249 0.0
H719 H 0.73683 0.17402 0.31726 0.0
H720 H 0.69667 0.33415 0.26784 0.0
H721 H 0.72499 0.336 0.30499 0.0
H722 H 0.69119 0.3076 0.21691 0.0
H723 H 0.67525 0.26731 0.20634 0.0
C724 C 0.7214 0.74278 0.29708 0.0
C725 C 0.70664 0.76261 0.26898 0.0
C726 C 0.7331 0.72707 0.222 0.0
C727 C 0.75325 0.71234 0.24979 0.0
N728 N 0.76402 0.70112 0.31352 0.0
N729 N 0.69329 0.77139 0.20539 0.0
C730 C 0.74597 0.71808 0.2874 0.0
C731 C 0.71031 0.75346 0.23157 0.0
N732 N 0.7124 0.74839 0.33283 0.0
N733 N 0.7366 0.71622 0.18658 0.0
H734 H 0.67533 0.7897 0.2122 0.0
H735 H 0.69703 0.76869 0.17724 0.0
H736 H 0.75308 0.69674 0.17944 0.0
H737 H 0.72173 0.72445 0.16485 0.0
H738 H 0.72068 0.73394 0.35492 0.0
H739 H 0.69434 0.76634 0.3401 0.0
H740 H 0.76284 0.7062 0.34153 0.0
H741 H 0.78091 0.6818 0.30679 0.0
C742 C 0.25303 0.7331 0.29418 0.0
C743 C 0.23285 0.71707 0.26732 0.0
C744 C 0.26503 0.74497 0.21826 0.0
C745 C 0.28031 0.76574 0.24511 0.0
N746 N 0.29247 0.77831 0.30827 0.0
N747 N 0.22106 0.70414 0.20416 0.0
C748 C 0.27596 0.75889 0.28306 0.0
C749 C 0.23982 0.72139 0.22937 0.0
N750 N 0.24972 0.72385 0.33022 0.0
N751 N 0.27441 0.74836 0.18224 0.0
H752 H 0.20365 0.68555 0.21174 0.0
H753 H 0.22192 0.70865 0.17599 0.0
H754 H 0.29285 0.76554 0.17376 0.0
H755 H 0.26614 0.73264 0.16127 0.0
H756 H 0.26512 0.73266 0.35119 0.0
H757 H 0.233 0.70503 0.33873 0.0
H758 H 0.28778 0.77753 0.33641 0.0
H759 H 0.3106 0.79621 0.30069 0.0
C760 C 0.76876 0.78666 0.73459 0.0
C761 C 0.74227 0.7711 0.7151 0.0
C762 C 0.76721 0.71582 0.72777 0.0
C763 C 0.78671 0.73091 0.75592 0.0
N764 N 0.80949 0.78129 0.78367 0.0
N765 N 0.73518 0.72528 0.67227 0.0
C766 C 0.78903 0.76659 0.75824 0.0
C767 C 0.74693 0.73674 0.70518 0.0
N768 N 0.77772 0.81894 0.72614 0.0
N769 N 0.76742 0.68156 0.72322 0.0
H770 H 0.72547 0.74168 0.65249 0.0
H771 H 0.73981 0.70107 0.66231 0.0
H772 H 0.78393 0.66567 0.73734 0.0
H773 H 0.75031 0.66889 0.70651 0.0
H774 H 0.79873 0.83093 0.73733 0.0
H775 H 0.76659 0.83151 0.70404 0.0
H776 H 0.80927 0.80719 0.78879 0.0
H777 H 0.82533 0.76727 0.80074 0.0
C778 C 0.26972 0.73415 0.70436 0.0
C779 C 0.23461 0.7341 0.71258 0.0
C780 C 0.24157 0.78532 0.7488 0.0
C781 C 0.27695 0.77951 0.74915 0.0
N782 N 0.32575 0.75244 0.72206 0.0
N783 N 0.19053 0.77551 0.71423 0.0
C784 C 0.29142 0.75543 0.72487 0.0
C785 C 0.22089 0.76433 0.72672 0.0
N786 N 0.28154 0.71693 0.67447 0.0
N787 N 0.22753 0.80976 0.77038 0.0
H788 H 0.17834 0.76308 0.69277 0.0
H789 H 0.1804 0.79894 0.7213 0.0
H790 H 0.242 0.82599 0.78646 0.0
H791 H 0.20145 0.81247 0.77353 0.0
H792 H 0.30657 0.71776 0.66552 0.0
H793 H 0.26523 0.70612 0.65538 0.0
H794 H 0.33768 0.73239 0.70878 0.0
H795 H 0.34234 0.76957 0.73414 0.0
C796 C 0.2403 0.21987 0.76446 0.0
C797 C 0.27587 0.2245 0.76499 0.0
C798 C 0.26857 0.27069 0.80895 0.0
C799 C 0.23366 0.27159 0.8001 0.0
N800 N 0.18875 0.23113 0.79811 0.0
N801 N 0.32456 0.25064 0.79278 0.0
C802 C 0.21959 0.24158 0.78595 0.0
C803 C 0.29026 0.24857 0.78918 0.0
N804 N 0.22612 0.19582 0.74264 0.0
N805 N 0.28006 0.28782 0.83892 0.0
H806 H 0.34105 0.23283 0.78151 0.0
H807 H 0.33665 0.2706 0.8059 0.0
H808 H 0.26354 0.2991 0.85768 0.0
H809 H 0.30481 0.2864 0.84838 0.0
H810 H 0.20006 0.19396 0.73893 0.0
H811 H 0.24049 0.17919 0.72677 0.0
H812 H 0.17827 0.20788 0.79103 0.0
H813 H 0.17644 0.24383 0.81944 0.0
C814 C 0.77183 0.24636 0.7188 0.0
C815 C 0.78917 0.26299 0.74754 0.0
C816 C 0.76255 0.22553 0.7929 0.0
C817 C 0.74049 0.21393 0.76509 0.0
N818 N 0.72642 0.20822 0.7013 0.0
N819 N 0.8059 0.26592 0.81075 0.0
C820 C 0.7464 0.22226 0.72774 0.0
C821 C 0.78655 0.25118 0.78422 0.0
N822 N 0.7793 0.25442 0.68318 0.0
N823 N 0.75977 0.21248 0.82756 0.0
H824 H 0.82471 0.28353 0.80441 0.0
H825 H 0.80339 0.26125 0.83876 0.0
H826 H 0.74238 0.19364 0.83416 0.0
H827 H 0.77588 0.21834 0.84911 0.0
H828 H 0.76909 0.24242 0.66041 0.0
H829 H 0.79794 0.27191 0.67643 0.0
H830 H 0.72665 0.21531 0.67378 0.0
H831 H 0.70889 0.18924 0.70727 0.0
C832 C 0.1667 0.37249 0.02964 0.0
C833 C 0.14368 0.35068 0.04797 0.0
C834 C 0.12571 0.32684 0.98926 0.0
C835 C 0.14636 0.35082 0.9709 0.0
N836 N 0.1938 0.38851 0.97199 0.0
N837 N 0.10939 0.30063 0.04723 0.0
C838 C 0.16966 0.3707 0.99073 0.0
C839 C 0.12614 0.32539 0.02832 0.0
N840 N 0.18396 0.39625 0.04921 0.0
N841 N 0.10423 0.3071 0.96938 0.0
H842 H 0.1095 0.29937 0.07589 0.0
H843 H 0.09801 0.27994 0.03478 0.0
H844 H 0.10448 0.30681 0.9407 0.0
H845 H 0.08552 0.29196 0.98105 0.0
H846 H 0.19809 0.41555 0.03719 0.0
H847 H 0.18302 0.39748 0.07783 0.0
H848 H 0.21322 0.40178 0.98465 0.0
H849 H 0.19602 0.38736 0.94341 0.0
C850 C 0.62785 0.17921 0.97633 0.0
C851 C 0.64771 0.15433 0.95855 0.0
C852 C 0.67135 0.13721 0.01782 0.0
C853 C 0.64598 0.15643 0.03568 0.0
N854 N 0.60211 0.19836 0.03345 0.0
N855 N 0.69096 0.11171 0.96086 0.0
C856 C 0.62539 0.17894 0.01539 0.0
C857 C 0.67095 0.13454 0.97883 0.0
N858 N 0.61073 0.20225 0.95555 0.0
N859 N 0.6951 0.12096 0.03844 0.0
H860 H 0.69208 0.1103 0.93225 0.0
H861 H 0.70559 0.09357 0.97405 0.0
H862 H 0.69554 0.12277 0.06706 0.0
H863 H 0.71581 0.10827 0.02739 0.0
H864 H 0.59736 0.22256 0.96645 0.0
H865 H 0.61243 0.2025 0.9269 0.0
H866 H 0.58358 0.21255 0.02036 0.0
H867 H 0.60081 0.1994 0.06208 0.0
C868 C 0.8762 0.67478 1.00106 0.0
C869 C 0.85384 0.6555 0.97921 0.0
C870 C 0.82472 0.63477 0.03448 0.0
C871 C 0.84946 0.65097 0.05627 0.0
N872 N 0.89233 0.6935 0.06222 0.0
N873 N 0.80162 0.62512 0.97349 0.0
C874 C 0.8729 0.67368 0.04007 0.0
C875 C 0.82608 0.63842 0.99552 0.0
N876 N 0.9017 0.69245 0.98437 0.0
N877 N 0.80129 0.61441 0.05112 0.0
H878 H 0.8024 0.62755 0.94494 0.0
H879 H 0.77944 0.61412 0.98326 0.0
H880 H 0.79902 0.61267 0.07966 0.0
H881 H 0.78476 0.59871 0.03705 0.0
H882 H 0.92137 0.70406 0.99836 0.0
H883 H 0.90353 0.69474 0.95584 0.0
H884 H 0.90852 0.71228 0.05259 0.0
H885 H 0.89017 0.69289 0.09081 0.0
C886 C 0.36292 0.82464 0.99015 0.0
C887 C 0.34657 0.85061 0.9702 0.0
C888 C 0.32163 0.87202 0.02733 0.0
C889 C 0.34421 0.85139 0.04739 0.0
N890 N 0.3843 0.80576 0.04919 0.0
N891 N 0.30828 0.89779 0.96852 0.0
C892 C 0.36359 0.82632 0.02921 0.0
C893 C 0.32453 0.87343 0.98835 0.0
N894 N 0.37842 0.79901 0.97146 0.0
N895 N 0.29838 0.89099 0.04595 0.0
H896 H 0.3093 0.89875 0.93988 0.0
H897 H 0.29493 0.9177 0.98031 0.0
H898 H 0.29628 0.89011 0.07456 0.0
H899 H 0.27951 0.90503 0.03321 0.0
H900 H 0.38887 0.77788 0.98411 0.0
H901 H 0.37808 0.7976 0.94282 0.0
H902 H 0.40223 0.78972 0.03757 0.0
H903 H 0.38426 0.80567 0.07786 0.0
C904 C 0.12699 0.67596 0.48286 0.0
C905 C 0.14864 0.65255 0.46505 0.0
C906 C 0.17273 0.63567 0.52416 0.0
C907 C 0.14782 0.65549 0.54211 0.0
N908 N 0.10815 0.70129 0.54043 0.0
N909 N 0.19822 0.61766 0.46631 0.0
C910 C 0.12748 0.67826 0.52191 0.0
C911 C 0.17389 0.63519 0.48502 0.0
N912 N 0.10469 0.6943 0.46233 0.0
N913 N 0.19365 0.61582 0.54473 0.0
H914 H 0.19923 0.61719 0.43765 0.0
H915 H 0.21866 0.60576 0.47868 0.0
H916 H 0.19399 0.61698 0.57338 0.0
H917 H 0.21014 0.59794 0.53386 0.0
H918 H 0.08564 0.70939 0.47329 0.0
H919 H 0.10508 0.6939 0.43364 0.0
H920 H 0.09384 0.72 0.52782 0.0
H921 H 0.10844 0.70312 0.56904 0.0
C922 C 0.3646 0.17514 0.49014 0.0
C923 C 0.34513 0.1519 0.46962 0.0
C924 C 0.3209 0.12847 0.52624 0.0
C925 C 0.34315 0.1491 0.54672 0.0
N926 N 0.37785 0.1987 0.55009 0.0
N927 N 0.29764 0.1144 0.46636 0.0
C928 C 0.36193 0.175 0.52917 0.0
C929 C 0.3205 0.13152 0.48725 0.0
N930 N 0.38716 0.19564 0.47234 0.0
N931 N 0.30193 0.10461 0.544 0.0
H932 H 0.29732 0.11649 0.43775 0.0
H933 H 0.27751 0.10064 0.47721 0.0
H934 H 0.30102 0.10281 0.57261 0.0
H935 H 0.28802 0.08606 0.53065 0.0
H936 H 0.40509 0.21038 0.48564 0.0
H937 H 0.38855 0.19705 0.44373 0.0
H938 H 0.39022 0.21973 0.5393 0.0
H939 H 0.37608 0.19873 0.57873 0.0
C940 C 0.86517 0.33116 0.49901 0.0
C941 C 0.84727 0.35547 0.47804 0.0
C942 C 0.82161 0.37852 0.53414 0.0
C943 C 0.84319 0.35754 0.55515 0.0
N944 N 0.87912 0.30886 0.55957 0.0
N945 N 0.80348 0.39739 0.47355 0.0
C946 C 0.86256 0.33181 0.5381 0.0
C947 C 0.82343 0.37729 0.49502 0.0
N948 N 0.88583 0.30868 0.48131 0.0
N949 N 0.80077 0.40067 0.55205 0.0
H950 H 0.80465 0.39698 0.44491 0.0
H951 H 0.78477 0.41342 0.48351 0.0
H952 H 0.7983 0.40068 0.58064 0.0
H953 H 0.78582 0.41873 0.53925 0.0
H954 H 0.90197 0.29185 0.49439 0.0
H955 H 0.88696 0.30695 0.45271 0.0
H956 H 0.89289 0.28847 0.54958 0.0
H957 H 0.87743 0.30915 0.58818 0.0
C958 C 0.63326 0.83095 0.48151 0.0
C959 C 0.65282 0.85621 0.46375 0.0
C960 C 0.67166 0.87788 0.52316 0.0
C961 C 0.64969 0.85463 0.54093 0.0
N962 N 0.61771 0.80312 0.53887 0.0
N963 N 0.69823 0.89622 0.46604 0.0
C964 C 0.63345 0.82892 0.52059 0.0
C965 C 0.67489 0.87693 0.48422 0.0
N966 N 0.61292 0.81051 0.46105 0.0
N967 N 0.68767 0.9021 0.54333 0.0
H968 H 0.70072 0.89561 0.43746 0.0
H969 H 0.71688 0.91024 0.4791 0.0
H970 H 0.68661 0.90276 0.57197 0.0
H971 H 0.70083 0.92231 0.5318 0.0
H972 H 0.59492 0.79426 0.47224 0.0
H973 H 0.61339 0.81071 0.43238 0.0
H974 H 0.60737 0.78214 0.52592 0.0
H975 H 0.61762 0.80141 0.56751 0.0
C976 C 0.15118 0.49533 0.29612 0.0
C977 C 0.14651 0.52648 0.27737 0.0
C978 C 0.14809 0.49545 0.21896 0.0
C979 C 0.14415 0.46442 0.23821 0.0
N980 N 0.13938 0.43544 0.29675 0.0
N981 N 0.13821 0.55568 0.21947 0.0
C982 C 0.14572 0.46432 0.27727 0.0
C983 C 0.14507 0.52659 0.23829 0.0
N984 N 0.16056 0.49549 0.33218 0.0
N985 N 0.15451 0.49506 0.18204 0.0
H986 H 0.13523 0.57913 0.23188 0.0
H987 H 0.13289 0.5561 0.19147 0.0
H988 H 0.1576 0.47259 0.16742 0.0
H989 H 0.16043 0.5167 0.16696 0.0
H990 H 0.16699 0.47366 0.34659 0.0
H991 H 0.16549 0.51788 0.34631 0.0
H992 H 0.13612 0.43519 0.32519 0.0
H993 H 0.13455 0.41217 0.28464 0.0
C994 C 0.51126 0.1698 0.23908 0.0
C995 C 0.52656 0.13842 0.22964 0.0
C996 C 0.48015 0.10834 0.25981 0.0
C997 C 0.46693 0.13915 0.27356 0.0
N998 N 0.47154 0.19955 0.27909 0.0
N999 N 0.53066 0.07852 0.24226 0.0
C1000 C 0.48288 0.17014 0.26391 0.0
C1001 C 0.5125 0.10792 0.24337 0.0
N1002 N 0.52319 0.19895 0.22371 0.0
N1003 N 0.46134 0.07938 0.26135 0.0
H1004 H 0.5556 0.07735 0.23287 0.0
H1005 H 0.5224 0.05631 0.25488 0.0
H1006 H 0.43651 0.07883 0.27115 0.0
H1007 H 0.46894 0.05696 0.24876 0.0
H1008 H 0.51124 0.22223 0.22667 0.0
H1009 H 0.54392 0.19935 0.20586 0.0
H1010 H 0.48403 0.22255 0.27609 0.0
H1011 H 0.45064 0.20042 0.29667 0.0
C1012 C 0.84338 0.4953 0.30442 0.0
C1013 C 0.84687 0.46402 0.28577 0.0
C1014 C 0.84031 0.49434 0.22728 0.0
C1015 C 0.84566 0.52558 0.24546 0.0
N1016 N 0.85444 0.55528 0.30286 0.0
N1017 N 0.85056 0.43415 0.22781 0.0
C1018 C 0.847 0.52613 0.28454 0.0
C1019 C 0.84508 0.46344 0.24673 0.0
N1020 N 0.83686 0.49543 0.34132 0.0
N1021 N 0.831 0.49432 0.19119 0.0
H1022 H 0.85477 0.41091 0.24035 0.0
H1023 H 0.85358 0.43341 0.19936 0.0
H1024 H 0.82678 0.51666 0.1766 0.0
H1025 H 0.82394 0.47251 0.17721 0.0
H1026 H 0.83116 0.51734 0.35592 0.0
H1027 H 0.83347 0.47317 0.35633 0.0
H1028 H 0.85985 0.55585 0.33084 0.0
H1029 H 0.85787 0.57854 0.29005 0.0
C1030 C 0.51019 0.90105 0.26793 0.0
C1031 C 0.52756 0.87152 0.27934 0.0
C1032 C 0.48486 0.83708 0.24734 0.0
C1033 C 0.46601 0.86684 0.23998 0.0
N1034 N 0.45597 0.92551 0.25461 0.0
N1035 N 0.5293 0.81075 0.28369 0.0
C1036 C 0.47716 0.89824 0.25406 0.0
C1037 C 0.51435 0.83918 0.27009 0.0
N1038 N 0.52587 0.93185 0.26834 0.0
N1039 N 0.47513 0.80724 0.23199 0.0
H1040 H 0.55071 0.81161 0.30027 0.0
H1041 H 0.51914 0.78665 0.28072 0.0
H1042 H 0.45328 0.80512 0.2162 0.0
H1043 H 0.48959 0.78529 0.23319 0.0
H1044 H 0.51495 0.95356 0.25727 0.0
H1045 H 0.55123 0.93495 0.27529 0.0
H1046 H 0.46218 0.94818 0.26748 0.0
H1047 H 0.43087 0.92415 0.24612 0.0
C1048 C 0.85687 0.53947 0.74874 0.0
C1049 C 0.85477 0.53799 0.78772 0.0
C1050 C 0.85169 0.47601 0.78499 0.0
C1051 C 0.85395 0.47752 0.74596 0.0
N1052 N 0.84577 0.51089 0.69124 0.0
N1053 N 0.83856 0.50616 0.84136 0.0
C1054 C 0.8521 0.5094 0.72809 0.0
C1055 C 0.84811 0.50661 0.80523 0.0
N1056 N 0.8659 0.56873 0.73127 0.0
N1057 N 0.85541 0.446 0.80313 0.0
H1058 H 0.83539 0.52829 0.85657 0.0
H1059 H 0.83044 0.4844 0.85493 0.0
H1060 H 0.85914 0.42296 0.79004 0.0
H1061 H 0.85738 0.44422 0.83158 0.0
H1062 H 0.87173 0.56982 0.70333 0.0
H1063 H 0.8703 0.59141 0.74483 0.0
H1064 H 0.84138 0.53347 0.67728 0.0
H1065 H 0.84109 0.48931 0.67563 0.0
C1066 C 0.49936 0.8438 0.71771 0.0
C1067 C 0.53109 0.84946 0.73471 0.0
C1068 C 0.50303 0.84382 0.79475 0.0
C1069 C 0.47093 0.84717 0.77782 0.0
N1070 N 0.439 0.85235 0.7213 0.0
N1071 N 0.5624 0.85765 0.79111 0.0
C1072 C 0.46902 0.84695 0.73874 0.0
C1073 C 0.53297 0.84951 0.77374 0.0
N1074 N 0.4983 0.83564 0.68129 0.0
N1075 N 0.50482 0.83559 0.83115 0.0
H1076 H 0.58493 0.86296 0.77741 0.0
H1077 H 0.56371 0.86196 0.81931 0.0
H1078 H 0.48325 0.83049 0.8469 0.0
H1079 H 0.5275 0.83015 0.84435 0.0
H1080 H 0.47618 0.82835 0.66806 0.0
H1081 H 0.52019 0.83255 0.66549 0.0
H1082 H 0.43734 0.85665 0.6931 0.0
H1083 H 0.41596 0.85513 0.73482 0.0
C1084 C 0.15956 0.49036 0.7691 0.0
C1085 C 0.12854 0.47491 0.77964 0.0
C1086 C 0.09718 0.51854 0.74598 0.0
C1087 C 0.12805 0.53244 0.73256 0.0
N1088 N 0.1887 0.52947 0.72789 0.0
N1089 N 0.06815 0.47004 0.77095 0.0
C1090 C 0.15936 0.51783 0.74327 0.0
C1091 C 0.09752 0.4878 0.76595 0.0
N1092 N 0.18899 0.4795 0.78462 0.0
N1093 N 0.06731 0.53532 0.74081 0.0
H1094 H 0.0669 0.44673 0.78417 0.0
H1095 H 0.04536 0.47661 0.75875 0.0
H1096 H 0.0653 0.55828 0.72704 0.0
H1097 H 0.04473 0.52844 0.75359 0.0
H1098 H 0.21207 0.49175 0.78115 0.0
H1099 H 0.18984 0.45937 0.80315 0.0
H1100 H 0.21207 0.51788 0.73155 0.0
H1101 H 0.18928 0.54951 0.70923 0.0
C1102 C 0.49986 0.15098 0.71395 0.0
C1103 C 0.46834 0.1468 0.73225 0.0
C1104 C 0.4985 0.14772 0.79101 0.0
C1105 C 0.52968 0.1427 0.7723 0.0
N1106 N 0.55942 0.13747 0.71409 0.0
N1107 N 0.43829 0.13838 0.78994 0.0
C1108 C 0.53044 0.14448 0.73322 0.0
C1109 C 0.46763 0.14513 0.77134 0.0
N1110 N 0.50041 0.16068 0.67792 0.0
N1111 N 0.49841 0.15495 0.8277 0.0
H1112 H 0.4149 0.13558 0.77745 0.0
H1113 H 0.43767 0.13282 0.81795 0.0
H1114 H 0.52069 0.15805 0.84257 0.0
H1115 H 0.47658 0.16166 0.84211 0.0
H1116 H 0.52257 0.16687 0.66384 0.0
H1117 H 0.4783 0.16607 0.66348 0.0
H1118 H 0.56016 0.13527 0.68559 0.0
H1119 H 0.5822 0.13101 0.72635 0.0
C1120 C 0.65202 0.9952 0.79268 0.0
C1121 C 0.64881 0.02634 0.77344 0.0
C1122 C 0.65482 0.9951 0.71537 0.0
C1123 C 0.6498 0.96412 0.73434 0.0
N1124 N 0.64143 0.93501 0.79222 0.0
N1125 N 0.64473 0.05531 0.71481 0.0
C1126 C 0.6485 0.96409 0.7734 0.0
C1127 C 0.6503 0.02631 0.7343 0.0
N1128 N 0.65843 0.99545 0.82954 0.0
N1129 N 0.6635 0.99457 0.67898 0.0
H1130 H 0.6401 0.07869 0.72679 0.0
H1131 H 0.64194 0.05574 0.68638 0.0
H1132 H 0.66728 0.97203 0.66468 0.0
H1133 H 0.67045 0.0161 0.66426 0.0
H1134 H 0.66381 0.97368 0.84455 0.0
H1135 H 0.66202 0.01782 0.84414 0.0
H1136 H 0.6359 0.93457 0.82025 0.0
H1137 H 0.63859 0.91161 0.77962 0.0
C1138 C 0.98258 0.67312 0.76772 0.0
C1139 C 0.97628 0.64269 0.78785 0.0
C1140 C 0.03287 0.6231 0.77043 0.0
C1141 C 0.03624 0.64942 0.74457 0.0
N1142 N 0.01288 0.69909 0.71636 0.0
N1143 N 0.99255 0.58376 0.7945 0.0
C1144 C 0.01063 0.67444 0.74249 0.0
C1145 C 1.00074 0.61631 0.78567 0.0
N1146 N 0.96295 0.70096 0.7735 0.0
N1147 N 0.06007 0.60374 0.77962 0.0
H1148 H 0.96769 0.57589 0.79875 0.0
H1149 H 0.00955 0.5638 0.7917 0.0
H1150 H 0.08421 0.60825 0.76894 0.0
H1151 H 0.05897 0.58559 0.80044 0.0
H1152 H 0.96809 0.72433 0.7615 0.0
H1153 H 0.94384 0.70168 0.79328 0.0
H1154 H 0.99334 0.71601 0.71098 0.0
H1155 H 0.03377 0.70118 0.69884 0.0
C1156 C 0.33487 0.01269 0.7495 0.0
C1157 C 0.36498 0.03099 0.7417 0.0
C1158 C 0.39838 0.98607 0.77005 0.0
C1159 C 0.36849 0.96921 0.78175 0.0
N1160 N 0.30767 0.96901 0.7866 0.0
N1161 N 0.42395 0.03976 0.75565 0.0
C1162 C 0.33642 0.98319 0.77256 0.0
C1163 C 0.39621 0.01914 0.75562 0.0
N1164 N 0.30516 0.02287 0.73418 0.0
N1165 N 0.42892 0.96987 0.77069 0.0
H1166 H 0.42313 0.06484 0.7468 0.0
H1167 H 0.44654 0.03314 0.76843 0.0
H1168 H 0.43157 0.94452 0.77803 0.0
H1169 H 0.45085 0.9803 0.75941 0.0
H1170 H 0.28297 0.00876 0.73561 0.0
H1171 H 0.30335 0.04462 0.71805 0.0
H1172 H 0.28382 0.97982 0.7838 0.0
H1173 H 0.30803 0.94768 0.80345 0.0
C1174 C 0.9791 0.33878 0.75462 0.0
C1175 C 0.97435 0.36861 0.73305 0.0
C1176 C 0.03368 0.38321 0.74423 0.0
C1177 C 0.0359 0.35836 0.7719 0.0
N1178 N 0.00955 0.31314 0.80559 0.0
N1179 N 0.99608 0.42491 0.71993 0.0
C1180 C 0.00823 0.33621 0.77777 0.0
C1181 C 0.00148 0.39232 0.73087 0.0
N1182 N 0.9569 0.31253 0.75216 0.0
N1183 N 0.06206 0.39946 0.73213 0.0
H1184 H 0.97203 0.43545 0.71768 0.0
H1185 H 0.01525 0.4429 0.71868 0.0
H1186 H 0.08611 0.39348 0.74183 0.0
H1187 H 0.06175 0.41632 0.71005 0.0
H1188 H 0.96069 0.28947 0.76539 0.0
H1189 H 0.93694 0.31231 0.73364 0.0
H1190 H 0.98877 0.29871 0.81373 0.0
H1191 H 0.03113 0.30994 0.82163 0.0
C1192 C 0.35295 0.00542 0.22069 0.0
C1193 C 0.35686 0.97293 0.23656 0.0
C1194 C 0.35361 0.99908 0.29765 0.0
C1195 C 0.35789 0.03148 0.28161 0.0
N1196 N 0.36675 0.0645 0.226 0.0
N1197 N 0.36571 0.93964 0.29191 0.0
C1198 C 0.35836 0.03461 0.24258 0.0
C1199 C 0.3579 0.96976 0.27558 0.0
N1200 N 0.34429 0.00841 0.18454 0.0
N1201 N 0.34562 0.9963 0.3341 0.0
H1202 H 0.37081 0.91753 0.27757 0.0
H1203 H 0.37045 0.93741 0.31996 0.0
H1204 H 0.34153 0.01738 0.35074 0.0
H1205 H 0.33936 0.97338 0.34653 0.0
H1206 H 0.33833 0.03149 0.17235 0.0
H1207 H 0.33936 0.98744 0.16807 0.0
H1208 H 0.37094 0.06663 0.19778 0.0
H1209 H 0.373 0.08637 0.24022 0.0
C1210 C 0.99226 0.34385 0.22171 0.0
C1211 C 0.02387 0.34861 0.23933 0.0
C1212 C 0.99506 0.34134 0.29877 0.0
C1213 C 0.96327 0.34577 0.28151 0.0
N1214 N 0.93186 0.35258 0.22498 0.0
N1215 N 0.0548 0.35376 0.29644 0.0
C1216 C 0.96174 0.3466 0.24247 0.0
C1217 C 0.02536 0.34707 0.27838 0.0
N1218 N 0.99149 0.33679 0.185 0.0
N1219 N 0.99611 0.33223 0.33497 0.0
H1220 H 0.07756 0.35928 0.28332 0.0
H1221 H 0.05606 0.35654 0.32485 0.0
H1222 H 0.97418 0.32749 0.35023 0.0
H1223 H 0.01842 0.32588 0.34843 0.0
H1224 H 0.96942 0.33023 0.17122 0.0
H1225 H 0.01351 0.33378 0.16939 0.0
H1226 H 0.93039 0.35775 0.19694 0.0
H1227 H 0.90873 0.35472 0.2385 0.0
C1228 C 0.6454 0.97476 0.23273 0.0
C1229 C 0.64546 0.97737 0.27178 0.0
C1230 C 0.64435 0.03925 0.26653 0.0
C1231 C 0.64507 0.03667 0.22749 0.0
N1232 N 0.65832 0.00238 0.17478 0.0
N1233 N 0.65741 0.01205 0.32446 0.0
C1234 C 0.64984 0.00449 0.21114 0.0
C1235 C 0.64927 0.00966 0.28813 0.0
N1236 N 0.63842 0.94476 0.21588 0.0
N1237 N 0.63629 0.06904 0.28336 0.0
H1238 H 0.66203 0.9908 0.34071 0.0
H1239 H 0.66322 0.0349 0.33713 0.0
H1240 H 0.63119 0.09136 0.26933 0.0
H1241 H 0.63164 0.07084 0.31151 0.0
H1242 H 0.63446 0.94276 0.18769 0.0
H1243 H 0.63345 0.92238 0.2299 0.0
H1244 H 0.66488 0.97973 0.16205 0.0
H1245 H 0.66237 0.02379 0.15854 0.0
C1246 C 0.99484 0.64457 0.22496 0.0
C1247 C 0.96384 0.64019 0.24416 0.0
C1248 C 0.99503 0.64311 0.30214 0.0
C1249 C 0.02595 0.63861 0.28275 0.0
N1250 N 0.05452 0.632 0.22397 0.0
N1251 N 0.9349 0.63267 0.30255 0.0
C1252 C 0.02588 0.63921 0.24362 0.0
C1253 C 0.96386 0.63944 0.28325 0.0
N1254 N 0.99451 0.65351 0.18869 0.0
N1255 N 0.99551 0.65083 0.3387 0.0
H1256 H 0.91144 0.62907 0.29041 0.0
H1257 H 0.93473 0.62787 0.33072 0.0
H1258 H 0.01801 0.65461 0.35298 0.0
H1259 H 0.97384 0.65719 0.35356 0.0
H1260 H 0.0163 0.65982 0.17399 0.0
H1261 H 0.97205 0.65815 0.17459 0.0
H1262 H 0.05456 0.62871 0.19558 0.0
H1263 H 0.07768 0.62624 0.2358 0.0
loop_
_geom_bond_atom_site_label_1
_geom_bond_atom_site_label_2
_geom_bond_distance
_geom_bond_site_symmetry_2
_ccdc_geom_bond_type
Co0 O3 1.970 . S
Co0 N17 1.989 . S
Co0 O25 1.967 . S
Co0 O32 1.920 . S
Co1 O4 1.966 . S
Co1 N10 2.022 . S
Co1 N18 1.993 . S
Co1 O26 1.941 . S
C2 O3 1.258 . S
C2 O4 1.263 . S
O3 Co0 1.970 . S
O3 C2 1.258 . S
O4 Co1 1.966 . S
O4 C2 1.263 . S
C5 O6 1.235 . S
C5 O32 1.289 . S
O6 C5 1.235 . S
C7 C9 1.400 . S
C7 N10 1.351 . S
C7 C12 1.501 . S
C8 C9 1.387 . S
C8 N11 1.341 . S
C9 C7 1.400 . S
C9 C8 1.387 . S
N10 Co1 2.022 . S
N10 C7 1.351 . S
N10 N11 1.365 . S
N11 C8 1.341 . S
N11 N10 1.365 . S
N11 H31 0.862 . S
C12 C7 1.501 . S
C12 H13 0.961 . S
C12 H14 0.961 . S
C12 H15 0.960 . S
H13 C12 0.961 . S
H14 C12 0.961 . S
H15 C12 0.960 . S
C16 N17 1.342 . S
C16 C20 1.401 . S
C16 C21 1.499 . S
N17 Co0 1.989 . S
N17 C16 1.342 . S
N17 N18 1.388 . S
N18 Co1 1.993 . S
N18 N17 1.388 . S
N18 C19 1.346 . S
C19 N18 1.346 . S
C19 C20 1.396 . S
C19 C29 1.510 . S
C20 C16 1.401 . S
C20 C19 1.396 . S
C21 C16 1.499 . S
C21 H22 0.959 . S
C21 H23 0.960 . S
C21 H24 0.961 . S
H22 C21 0.959 . S
H23 C21 0.960 . S
H24 C21 0.961 . S
O25 Co0 1.967 . S
O25 C33 1.258 . S
O26 Co1 1.941 . S
O26 C33 1.266 . S
H27 C29 0.959 . S
H28 C29 0.961 . S
C29 C19 1.510 . S
C29 H27 0.959 . S
C29 H28 0.961 . S
C29 H30 0.960 . S
H30 C29 0.960 . S
H31 N11 0.862 . S
O32 Co0 1.920 . S
O32 C5 1.289 . S
C33 O25 1.258 . S
C33 O26 1.266 . S
Co34 O37 1.970 . S
Co34 N51 1.989 . S
Co34 O59 1.967 . S
Co34 O66 1.920 . S
Co35 O38 1.966 . S
Co35 N44 2.022 . S
Co35 N52 1.993 . S
Co35 O60 1.941 . S
C36 O37 1.258 . S
C36 O38 1.263 . S
O37 Co34 1.970 . S
O37 C36 1.258 . S
O38 Co35 1.966 . S
O38 C36 1.263 . S
C39 O40 1.235 . S
C39 O66 1.289 . S
O40 C39 1.235 . S
C41 C43 1.400 . S
C41 N44 1.351 . S
C41 C46 1.501 . S
C42 C43 1.387 . S
C42 N45 1.341 . S
C43 C41 1.400 . S
C43 C42 1.387 . S
N44 Co35 2.022 . S
N44 C41 1.351 . S
N44 N45 1.365 . S
N45 C42 1.341 . S
N45 N44 1.365 . S
N45 H65 0.862 . S
C46 C41 1.501 . S
C46 H47 0.961 . S
C46 H48 0.961 . S
C46 H49 0.960 . S
H47 C46 0.961 . S
H48 C46 0.961 . S
H49 C46 0.960 . S
C50 N51 1.342 . S
C50 C54 1.401 . S
C50 C55 1.499 . S
N51 Co34 1.989 . S
N51 C50 1.342 . S
N51 N52 1.388 . S
N52 Co35 1.993 . S
N52 N51 1.388 . S
N52 C53 1.346 . S
C53 N52 1.346 . S
C53 C54 1.396 . S
C53 C63 1.510 . S
C54 C50 1.401 . S
C54 C53 1.396 . S
C55 C50 1.499 . S
C55 H56 0.959 . S
C55 H57 0.960 . S
C55 H58 0.961 . S
H56 C55 0.959 . S
H57 C55 0.960 . S
H58 C55 0.961 . S
O59 Co34 1.967 . S
O59 C67 1.258 . S
O60 Co35 1.941 . S
O60 C67 1.266 . S
H61 C63 0.959 . S
H62 C63 0.961 . S
C63 C53 1.510 . S
C63 H61 0.959 . S
C63 H62 0.961 . S
C63 H64 0.960 . S
H64 C63 0.960 . S
H65 N45 0.862 . S
O66 Co34 1.920 . S
O66 C39 1.289 . S
C67 O59 1.258 . S
C67 O60 1.266 . S
Co68 O71 1.970 . S
Co68 N85 1.989 . S
Co68 O93 1.967 . S
Co68 O100 1.920 . S
Co69 O72 1.966 . S
Co69 N78 2.022 . S
Co69 N86 1.993 . S
Co69 O94 1.941 . S
C70 O71 1.258 . S
C70 O72 1.263 . S
O71 Co68 1.970 . S
O71 C70 1.258 . S
O72 Co69 1.966 . S
O72 C70 1.263 . S
C73 O74 1.235 . S
C73 O100 1.289 . S
O74 C73 1.235 . S
C75 C77 1.400 . S
C75 N78 1.351 . S
C75 C80 1.501 . S
C76 C77 1.387 . S
C76 N79 1.341 . S
C77 C75 1.400 . S
C77 C76 1.387 . S
N78 Co69 2.022 . S
N78 C75 1.351 . S
N78 N79 1.365 . S
N79 C76 1.341 . S
N79 N78 1.365 . S
N79 H99 0.862 . S
C80 C75 1.501 . S
C80 H81 0.961 . S
C80 H82 0.961 . S
C80 H83 0.960 . S
H81 C80 0.961 . S
H82 C80 0.961 . S
H83 C80 0.960 . S
C84 N85 1.342 . S
C84 C88 1.401 . S
C84 C89 1.499 . S
N85 Co68 1.989 . S
N85 C84 1.342 . S
N85 N86 1.388 . S
N86 Co69 1.993 . S
N86 N85 1.388 . S
N86 C87 1.346 . S
C87 N86 1.346 . S
C87 C88 1.396 . S
C87 C97 1.510 . S
C88 C84 1.401 . S
C88 C87 1.396 . S
C89 C84 1.499 . S
C89 H90 0.959 . S
C89 H91 0.960 . S
C89 H92 0.961 . S
H90 C89 0.959 . S
H91 C89 0.960 . S
H92 C89 0.961 . S
O93 Co68 1.967 . S
O93 C101 1.258 . S
O94 Co69 1.941 . S
O94 C101 1.266 . S
H95 C97 0.959 . S
H96 C97 0.961 . S
C97 C87 1.510 . S
C97 H95 0.959 . S
C97 H96 0.961 . S
C97 H98 0.960 . S
H98 C97 0.960 . S
H99 N79 0.862 . S
O100 Co68 1.920 . S
O100 C73 1.289 . S
C101 O93 1.258 . S
C101 O94 1.266 . S
Co102 O105 1.970 . S
Co102 N119 1.989 . S
Co102 O127 1.967 . S
Co102 O134 1.920 . S
Co103 O106 1.966 . S
Co103 N112 2.022 . S
Co103 N120 1.993 . S
Co103 O128 1.941 . S
C104 O105 1.258 . S
C104 O106 1.263 . S
O105 Co102 1.970 . S
O105 C104 1.258 . S
O106 Co103 1.966 . S
O106 C104 1.263 . S
C107 O108 1.235 . S
C107 O134 1.289 . S
O108 C107 1.235 . S
C109 C111 1.400 . S
C109 N112 1.351 . S
C109 C114 1.501 . S
C110 C111 1.387 . S
C110 N113 1.341 . S
C111 C109 1.400 . S
C111 C110 1.387 . S
N112 Co103 2.022 . S
N112 C109 1.351 . S
N112 N113 1.365 . S
N113 C110 1.341 . S
N113 N112 1.365 . S
N113 H133 0.862 . S
C114 C109 1.501 . S
C114 H115 0.961 . S
C114 H116 0.961 . S
C114 H117 0.960 . S
H115 C114 0.961 . S
H116 C114 0.961 . S
H117 C114 0.960 . S
C118 N119 1.342 . S
C118 C122 1.401 . S
C118 C123 1.499 . S
N119 Co102 1.989 . S
N119 C118 1.342 . S
N119 N120 1.388 . S
N120 Co103 1.993 . S
N120 N119 1.388 . S
N120 C121 1.346 . S
C121 N120 1.346 . S
C121 C122 1.396 . S
C121 C131 1.510 . S
C122 C118 1.401 . S
C122 C121 1.396 . S
C123 C118 1.499 . S
C123 H124 0.959 . S
C123 H125 0.960 . S
C123 H126 0.961 . S
H124 C123 0.959 . S
H125 C123 0.960 . S
H126 C123 0.961 . S
O127 Co102 1.967 . S
O127 C135 1.258 . S
O128 Co103 1.941 . S
O128 C135 1.266 . S
H129 C131 0.959 . S
H130 C131 0.961 . S
C131 C121 1.510 . S
C131 H129 0.959 . S
C131 H130 0.961 . S
C131 H132 0.960 . S
H132 C131 0.960 . S
H133 N113 0.862 . S
O134 Co102 1.920 . S
O134 C107 1.289 . S
C135 O127 1.258 . S
C135 O128 1.266 . S
Co136 O139 1.970 . S
Co136 N153 1.989 . S
Co136 O161 1.967 . S
Co136 O168 1.920 . S
Co137 O140 1.966 . S
Co137 N146 2.022 . S
Co137 N154 1.993 . S
Co137 O162 1.941 . S
C138 O139 1.258 . S
C138 O140 1.263 . S
O139 Co136 1.970 . S
O139 C138 1.258 . S
O140 Co137 1.966 . S
O140 C138 1.263 . S
C141 O142 1.235 . S
C141 O168 1.289 . S
O142 C141 1.235 . S
C143 C145 1.400 . S
C143 N146 1.351 . S
C143 C148 1.501 . S
C144 C145 1.387 . S
C144 N147 1.341 . S
C145 C143 1.400 . S
C145 C144 1.387 . S
N146 Co137 2.022 . S
N146 C143 1.351 . S
N146 N147 1.365 . S
N147 C144 1.341 . S
N147 N146 1.365 . S
N147 H167 0.862 . S
C148 C143 1.501 . S
C148 H149 0.961 . S
C148 H150 0.961 . S
C148 H151 0.960 . S
H149 C148 0.961 . S
H150 C148 0.961 . S
H151 C148 0.960 . S
C152 N153 1.342 . S
C152 C156 1.401 . S
C152 C157 1.499 . S
N153 Co136 1.989 . S
N153 C152 1.342 . S
N153 N154 1.388 . S
N154 Co137 1.993 . S
N154 N153 1.388 . S
N154 C155 1.346 . S
C155 N154 1.346 . S
C155 C156 1.396 . S
C155 C165 1.510 . S
C156 C152 1.401 . S
C156 C155 1.396 . S
C157 C152 1.499 . S
C157 H158 0.959 . S
C157 H159 0.960 . S
C157 H160 0.961 . S
H158 C157 0.959 . S
H159 C157 0.960 . S
H160 C157 0.961 . S
O161 Co136 1.967 . S
O161 C169 1.258 . S
O162 Co137 1.941 . S
O162 C169 1.266 . S
H163 C165 0.959 . S
H164 C165 0.961 . S
C165 C155 1.510 . S
C165 H163 0.959 . S
C165 H164 0.961 . S
C165 H166 0.960 . S
H166 C165 0.960 . S
H167 N147 0.862 . S
O168 Co136 1.920 . S
O168 C141 1.289 . S
C169 O161 1.258 . S
C169 O162 1.266 . S
Co170 O173 1.970 . S
Co170 N187 1.989 . S
Co170 O195 1.967 . S
Co170 O202 1.920 . S
Co171 O174 1.966 . S
Co171 N180 2.022 . S
Co171 N188 1.993 . S
Co171 O196 1.941 . S
C172 O173 1.258 . S
C172 O174 1.263 . S
O173 Co170 1.970 . S
O173 C172 1.258 . S
O174 Co171 1.966 . S
O174 C172 1.263 . S
C175 O176 1.235 . S
C175 O202 1.289 . S
O176 C175 1.235 . S
C177 C179 1.400 . S
C177 N180 1.351 . S
C177 C182 1.501 . S
C178 C179 1.387 . S
C178 N181 1.341 . S
C179 C177 1.400 . S
C179 C178 1.387 . S
N180 Co171 2.022 . S
N180 C177 1.351 . S
N180 N181 1.365 . S
N181 C178 1.341 . S
N181 N180 1.365 . S
N181 H201 0.862 . S
C182 C177 1.501 . S
C182 H183 0.961 . S
C182 H184 0.961 . S
C182 H185 0.960 . S
H183 C182 0.961 . S
H184 C182 0.961 . S
H185 C182 0.960 . S
C186 N187 1.342 . S
C186 C190 1.401 . S
C186 C191 1.499 . S
N187 Co170 1.989 . S
N187 C186 1.342 . S
N187 N188 1.388 . S
N188 Co171 1.993 . S
N188 N187 1.388 . S
N188 C189 1.346 . S
C189 N188 1.346 . S
C189 C190 1.396 . S
C189 C199 1.510 . S
C190 C186 1.401 . S
C190 C189 1.396 . S
C191 C186 1.499 . S
C191 H192 0.959 . S
C191 H193 0.960 . S
C191 H194 0.961 . S
H192 C191 0.959 . S
H193 C191 0.960 . S
H194 C191 0.961 . S
O195 Co170 1.967 . S
O195 C203 1.258 . S
O196 Co171 1.941 . S
O196 C203 1.266 . S
H197 C199 0.959 . S
H198 C199 0.961 . S
C199 C189 1.510 . S
C199 H197 0.959 . S
C199 H198 0.961 . S
C199 H200 0.960 . S
H200 C199 0.960 . S
H201 N181 0.862 . S
O202 Co170 1.920 . S
O202 C175 1.289 . S
C203 O195 1.258 . S
C203 O196 1.266 . S
Co204 O207 1.970 . S
Co204 N221 1.989 . S
Co204 O229 1.967 . S
Co204 O236 1.920 . S
Co205 O208 1.966 . S
Co205 N214 2.022 . S
Co205 N222 1.993 . S
Co205 O230 1.941 . S
C206 O207 1.258 . S
C206 O208 1.263 . S
O207 Co204 1.970 . S
O207 C206 1.258 . S
O208 Co205 1.966 . S
O208 C206 1.263 . S
C209 O210 1.235 . S
C209 O236 1.289 . S
O210 C209 1.235 . S
C211 C213 1.400 . S
C211 N214 1.351 . S
C211 C216 1.501 . S
C212 C213 1.387 . S
C212 N215 1.341 . S
C213 C211 1.400 . S
C213 C212 1.387 . S
N214 Co205 2.022 . S
N214 C211 1.351 . S
N214 N215 1.365 . S
N215 C212 1.341 . S
N215 N214 1.365 . S
N215 H235 0.862 . S
C216 C211 1.501 . S
C216 H217 0.961 . S
C216 H218 0.961 . S
C216 H219 0.960 . S
H217 C216 0.961 . S
H218 C216 0.961 . S
H219 C216 0.960 . S
C220 N221 1.342 . S
C220 C224 1.401 . S
C220 C225 1.499 . S
N221 Co204 1.989 . S
N221 C220 1.342 . S
N221 N222 1.388 . S
N222 Co205 1.993 . S
N222 N221 1.388 . S
N222 C223 1.346 . S
C223 N222 1.346 . S
C223 C224 1.396 . S
C223 C233 1.510 . S
C224 C220 1.401 . S
C224 C223 1.396 . S
C225 C220 1.499 . S
C225 H226 0.959 . S
C225 H227 0.960 . S
C225 H228 0.961 . S
H226 C225 0.959 . S
H227 C225 0.960 . S
H228 C225 0.961 . S
O229 Co204 1.967 . S
O229 C237 1.258 . S
O230 Co205 1.941 . S
O230 C237 1.266 . S
H231 C233 0.959 . S
H232 C233 0.961 . S
C233 C223 1.510 . S
C233 H231 0.959 . S
C233 H232 0.961 . S
C233 H234 0.960 . S
H234 C233 0.960 . S
H235 N215 0.862 . S
O236 Co204 1.920 . S
O236 C209 1.289 . S
C237 O229 1.258 . S
C237 O230 1.266 . S
Co238 O241 1.970 . S
Co238 N255 1.989 . S
Co238 O263 1.967 . S
Co238 O270 1.920 . S
Co239 O242 1.966 . S
Co239 N248 2.022 . S
Co239 N256 1.993 . S
Co239 O264 1.941 . S
C240 O241 1.258 . S
C240 O242 1.263 . S
O241 Co238 1.970 . S
O241 C240 1.258 . S
O242 Co239 1.966 . S
O242 C240 1.263 . S
C243 O244 1.235 . S
C243 O270 1.289 . S
O244 C243 1.235 . S
C245 C247 1.400 . S
C245 N248 1.351 . S
C245 C250 1.501 . S
C246 C247 1.387 . S
C246 N249 1.341 . S
C247 C245 1.400 . S
C247 C246 1.387 . S
N248 Co239 2.022 . S
N248 C245 1.351 . S
N248 N249 1.365 . S
N249 C246 1.341 . S
N249 N248 1.365 . S
N249 H269 0.862 . S
C250 C245 1.501 . S
C250 H251 0.961 . S
C250 H252 0.961 . S
C250 H253 0.960 . S
H251 C250 0.961 . S
H252 C250 0.961 . S
H253 C250 0.960 . S
C254 N255 1.342 . S
C254 C258 1.401 . S
C254 C259 1.499 . S
N255 Co238 1.989 . S
N255 C254 1.342 . S
N255 N256 1.388 . S
N256 Co239 1.993 . S
N256 N255 1.388 . S
N256 C257 1.346 . S
C257 N256 1.346 . S
C257 C258 1.396 . S
C257 C267 1.510 . S
C258 C254 1.401 . S
C258 C257 1.396 . S
C259 C254 1.499 . S
C259 H260 0.959 . S
C259 H261 0.960 . S
C259 H262 0.961 . S
H260 C259 0.959 . S
H261 C259 0.960 . S
H262 C259 0.961 . S
O263 Co238 1.967 . S
O263 C271 1.258 . S
O264 Co239 1.941 . S
O264 C271 1.266 . S
H265 C267 0.959 . S
H266 C267 0.961 . S
C267 C257 1.510 . S
C267 H265 0.959 . S
C267 H266 0.961 . S
C267 H268 0.960 . S
H268 C267 0.960 . S
H269 N249 0.862 . S
O270 Co238 1.920 . S
O270 C243 1.289 . S
C271 O263 1.258 . S
C271 O264 1.266 . S
Co272 O275 1.970 . S
Co272 N289 1.989 . S
Co272 O297 1.967 . S
Co272 O304 1.920 . S
Co273 O276 1.966 . S
Co273 N282 2.022 . S
Co273 N290 1.993 . S
Co273 O298 1.941 . S
C274 O275 1.258 . S
C274 O276 1.263 . S
O275 Co272 1.970 . S
O275 C274 1.258 . S
O276 Co273 1.966 . S
O276 C274 1.263 . S
C277 O278 1.235 . S
C277 O304 1.289 . S
O278 C277 1.235 . S
C279 C281 1.400 . S
C279 N282 1.351 . S
C279 C284 1.501 . S
C280 C281 1.387 . S
C280 N283 1.341 . S
C281 C279 1.400 . S
C281 C280 1.387 . S
N282 Co273 2.022 . S
N282 C279 1.351 . S
N282 N283 1.365 . S
N283 C280 1.341 . S
N283 N282 1.365 . S
N283 H303 0.862 . S
C284 C279 1.501 . S
C284 H285 0.961 . S
C284 H286 0.961 . S
C284 H287 0.960 . S
H285 C284 0.961 . S
H286 C284 0.961 . S
H287 C284 0.960 . S
C288 N289 1.342 . S
C288 C292 1.401 . S
C288 C293 1.499 . S
N289 Co272 1.989 . S
N289 C288 1.342 . S
N289 N290 1.388 . S
N290 Co273 1.993 . S
N290 N289 1.388 . S
N290 C291 1.346 . S
C291 N290 1.346 . S
C291 C292 1.396 . S
C291 C301 1.510 . S
C292 C288 1.401 . S
C292 C291 1.396 . S
C293 C288 1.499 . S
C293 H294 0.959 . S
C293 H295 0.960 . S
C293 H296 0.961 . S
H294 C293 0.959 . S
H295 C293 0.960 . S
H296 C293 0.961 . S
O297 Co272 1.967 . S
O297 C305 1.258 . S
O298 Co273 1.941 . S
O298 C305 1.266 . S
H299 C301 0.959 . S
H300 C301 0.961 . S
C301 C291 1.510 . S
C301 H299 0.959 . S
C301 H300 0.961 . S
C301 H302 0.960 . S
H302 C301 0.960 . S
H303 N283 0.862 . S
O304 Co272 1.920 . S
O304 C277 1.289 . S
C305 O297 1.258 . S
C305 O298 1.266 . S
Co306 O309 1.970 . S
Co306 N323 1.989 . S
Co306 O331 1.967 . S
Co306 O338 1.920 . S
Co307 O310 1.966 . S
Co307 N316 2.022 . S
Co307 N324 1.993 . S
Co307 O332 1.941 . S
C308 O309 1.258 . S
C308 O310 1.263 . S
O309 Co306 1.970 . S
O309 C308 1.258 . S
O310 Co307 1.966 . S
O310 C308 1.263 . S
C311 O312 1.235 . S
C311 O338 1.289 . S
O312 C311 1.235 . S
C313 C315 1.400 . S
C313 N316 1.351 . S
C313 C318 1.501 . S
C314 C315 1.387 . S
C314 N317 1.341 . S
C315 C313 1.400 . S
C315 C314 1.387 . S
N316 Co307 2.022 . S
N316 C313 1.351 . S
N316 N317 1.365 . S
N317 C314 1.341 . S
N317 N316 1.365 . S
N317 H337 0.862 . S
C318 C313 1.501 . S
C318 H319 0.961 . S
C318 H320 0.961 . S
C318 H321 0.960 . S
H319 C318 0.961 . S
H320 C318 0.961 . S
H321 C318 0.960 . S
C322 N323 1.342 . S
C322 C326 1.401 . S
C322 C327 1.499 . S
N323 Co306 1.989 . S
N323 C322 1.342 . S
N323 N324 1.388 . S
N324 Co307 1.993 . S
N324 N323 1.388 . S
N324 C325 1.346 . S
C325 N324 1.346 . S
C325 C326 1.396 . S
C325 C335 1.510 . S
C326 C322 1.401 . S
C326 C325 1.396 . S
C327 C322 1.499 . S
C327 H328 0.959 . S
C327 H329 0.960 . S
C327 H330 0.961 . S
H328 C327 0.959 . S
H329 C327 0.960 . S
H330 C327 0.961 . S
O331 Co306 1.967 . S
O331 C339 1.258 . S
O332 Co307 1.941 . S
O332 C339 1.266 . S
H333 C335 0.959 . S
H334 C335 0.961 . S
C335 C325 1.510 . S
C335 H333 0.959 . S
C335 H334 0.961 . S
C335 H336 0.960 . S
H336 C335 0.960 . S
H337 N317 0.862 . S
O338 Co306 1.920 . S
O338 C311 1.289 . S
C339 O331 1.258 . S
C339 O332 1.266 . S
Co340 O343 1.970 . S
Co340 N357 1.989 . S
Co340 O365 1.967 . S
Co340 O372 1.920 . S
Co341 O344 1.966 . S
Co341 N350 2.022 . S
Co341 N358 1.993 . S
Co341 O366 1.941 . S
C342 O343 1.258 . S
C342 O344 1.263 . S
O343 Co340 1.970 . S
O343 C342 1.258 . S
O344 Co341 1.966 . S
O344 C342 1.263 . S
C345 O346 1.235 . S
C345 O372 1.289 . S
O346 C345 1.235 . S
C347 C349 1.400 . S
C347 N350 1.351 . S
C347 C352 1.501 . S
C348 C349 1.387 . S
C348 N351 1.341 . S
C349 C347 1.400 . S
C349 C348 1.387 . S
N350 Co341 2.022 . S
N350 C347 1.351 . S
N350 N351 1.365 . S
N351 C348 1.341 . S
N351 N350 1.365 . S
N351 H371 0.862 . S
C352 C347 1.501 . S
C352 H353 0.961 . S
C352 H354 0.961 . S
C352 H355 0.960 . S
H353 C352 0.961 . S
H354 C352 0.961 . S
H355 C352 0.960 . S
C356 N357 1.342 . S
C356 C360 1.401 . S
C356 C361 1.499 . S
N357 Co340 1.989 . S
N357 C356 1.342 . S
N357 N358 1.388 . S
N358 Co341 1.993 . S
N358 N357 1.388 . S
N358 C359 1.346 . S
C359 N358 1.346 . S
C359 C360 1.396 . S
C359 C369 1.510 . S
C360 C356 1.401 . S
C360 C359 1.396 . S
C361 C356 1.499 . S
C361 H362 0.959 . S
C361 H363 0.960 . S
C361 H364 0.961 . S
H362 C361 0.959 . S
H363 C361 0.960 . S
H364 C361 0.961 . S
O365 Co340 1.967 . S
O365 C373 1.258 . S
O366 Co341 1.941 . S
O366 C373 1.266 . S
H367 C369 0.959 . S
H368 C369 0.961 . S
C369 C359 1.510 . S
C369 H367 0.959 . S
C369 H368 0.961 . S
C369 H370 0.960 . S
H370 C369 0.960 . S
H371 N351 0.862 . S
O372 Co340 1.920 . S
O372 C345 1.289 . S
C373 O365 1.258 . S
C373 O366 1.266 . S
Co374 O377 1.970 . S
Co374 N391 1.989 . S
Co374 O399 1.967 . S
Co374 O406 1.920 . S
Co375 O378 1.966 . S
Co375 N384 2.022 . S
Co375 N392 1.993 . S
Co375 O400 1.941 . S
C376 O377 1.258 . S
C376 O378 1.263 . S
O377 Co374 1.970 . S
O377 C376 1.258 . S
O378 Co375 1.966 . S
O378 C376 1.263 . S
C379 O380 1.235 . S
C379 O406 1.289 . S
O380 C379 1.235 . S
C381 C383 1.400 . S
C381 N384 1.351 . S
C381 C386 1.501 . S
C382 C383 1.387 . S
C382 N385 1.341 . S
C383 C381 1.400 . S
C383 C382 1.387 . S
N384 Co375 2.022 . S
N384 C381 1.351 . S
N384 N385 1.365 . S
N385 C382 1.341 . S
N385 N384 1.365 . S
N385 H405 0.862 . S
C386 C381 1.501 . S
C386 H387 0.961 . S
C386 H388 0.961 . S
C386 H389 0.960 . S
H387 C386 0.961 . S
H388 C386 0.961 . S
H389 C386 0.960 . S
C390 N391 1.342 . S
C390 C394 1.401 . S
C390 C395 1.499 . S
N391 Co374 1.989 . S
N391 C390 1.342 . S
N391 N392 1.388 . S
N392 Co375 1.993 . S
N392 N391 1.388 . S
N392 C393 1.346 . S
C393 N392 1.346 . S
C393 C394 1.396 . S
C393 C403 1.510 . S
C394 C390 1.401 . S
C394 C393 1.396 . S
C395 C390 1.499 . S
C395 H396 0.959 . S
C395 H397 0.960 . S
C395 H398 0.961 . S
H396 C395 0.959 . S
H397 C395 0.960 . S
H398 C395 0.961 . S
O399 Co374 1.967 . S
O399 C407 1.258 . S
O400 Co375 1.941 . S
O400 C407 1.266 . S
H401 C403 0.959 . S
H402 C403 0.961 . S
C403 C393 1.510 . S
C403 H401 0.959 . S
C403 H402 0.961 . S
C403 H404 0.960 . S
H404 C403 0.960 . S
H405 N385 0.862 . S
O406 Co374 1.920 . S
O406 C379 1.289 . S
C407 O399 1.258 . S
C407 O400 1.266 . S
Co408 O411 1.970 . S
Co408 N425 1.989 . S
Co408 O433 1.967 . S
Co408 O440 1.920 . S
Co409 O412 1.966 . S
Co409 N418 2.022 . S
Co409 N426 1.993 . S
Co409 O434 1.941 . S
C410 O411 1.258 . S
C410 O412 1.263 . S
O411 Co408 1.970 . S
O411 C410 1.258 . S
O412 Co409 1.966 . S
O412 C410 1.263 . S
C413 O414 1.235 . S
C413 O440 1.289 . S
O414 C413 1.235 . S
C415 C417 1.400 . S
C415 N418 1.351 . S
C415 C420 1.501 . S
C416 C417 1.387 . S
C416 N419 1.341 . S
C417 C415 1.400 . S
C417 C416 1.387 . S
N418 Co409 2.022 . S
N418 C415 1.351 . S
N418 N419 1.365 . S
N419 C416 1.341 . S
N419 N418 1.365 . S
N419 H439 0.862 . S
C420 C415 1.501 . S
C420 H421 0.961 . S
C420 H422 0.961 . S
C420 H423 0.960 . S
H421 C420 0.961 . S
H422 C420 0.961 . S
H423 C420 0.960 . S
C424 N425 1.342 . S
C424 C428 1.401 . S
C424 C429 1.499 . S
N425 Co408 1.989 . S
N425 C424 1.342 . S
N425 N426 1.388 . S
N426 Co409 1.993 . S
N426 N425 1.388 . S
N426 C427 1.346 . S
C427 N426 1.346 . S
C427 C428 1.396 . S
C427 C437 1.510 . S
C428 C424 1.401 . S
C428 C427 1.396 . S
C429 C424 1.499 . S
C429 H430 0.959 . S
C429 H431 0.960 . S
C429 H432 0.961 . S
H430 C429 0.959 . S
H431 C429 0.960 . S
H432 C429 0.961 . S
O433 Co408 1.967 . S
O433 C441 1.258 . S
O434 Co409 1.941 . S
O434 C441 1.266 . S
H435 C437 0.959 . S
H436 C437 0.961 . S
C437 C427 1.510 . S
C437 H435 0.959 . S
C437 H436 0.961 . S
C437 H438 0.960 . S
H438 C437 0.960 . S
H439 N419 0.862 . S
O440 Co408 1.920 . S
O440 C413 1.289 . S
C441 O433 1.258 . S
C441 O434 1.266 . S
Co442 O445 1.970 . S
Co442 N459 1.989 . S
Co442 O467 1.967 . S
Co442 O474 1.920 . S
Co443 O446 1.966 . S
Co443 N452 2.022 . S
Co443 N460 1.993 . S
Co443 O468 1.941 . S
C444 O445 1.258 . S
C444 O446 1.263 . S
O445 Co442 1.970 . S
O445 C444 1.258 . S
O446 Co443 1.966 . S
O446 C444 1.263 . S
C447 O448 1.235 . S
C447 O474 1.289 . S
O448 C447 1.235 . S
C449 C451 1.400 . S
C449 N452 1.351 . S
C449 C454 1.501 . S
C450 C451 1.387 . S
C450 N453 1.341 . S
C451 C449 1.400 . S
C451 C450 1.387 . S
N452 Co443 2.022 . S
N452 C449 1.351 . S
N452 N453 1.365 . S
N453 C450 1.341 . S
N453 N452 1.365 . S
N453 H473 0.862 . S
C454 C449 1.501 . S
C454 H455 0.961 . S
C454 H456 0.961 . S
C454 H457 0.960 . S
H455 C454 0.961 . S
H456 C454 0.961 . S
H457 C454 0.960 . S
C458 N459 1.342 . S
C458 C462 1.401 . S
C458 C463 1.499 . S
N459 Co442 1.989 . S
N459 C458 1.342 . S
N459 N460 1.388 . S
N460 Co443 1.993 . S
N460 N459 1.388 . S
N460 C461 1.346 . S
C461 N460 1.346 . S
C461 C462 1.396 . S
C461 C471 1.510 . S
C462 C458 1.401 . S
C462 C461 1.396 . S
C463 C458 1.499 . S
C463 H464 0.959 . S
C463 H465 0.960 . S
C463 H466 0.961 . S
H464 C463 0.959 . S
H465 C463 0.960 . S
H466 C463 0.961 . S
O467 Co442 1.967 . S
O467 C475 1.258 . S
O468 Co443 1.941 . S
O468 C475 1.266 . S
H469 C471 0.959 . S
H470 C471 0.961 . S
C471 C461 1.510 . S
C471 H469 0.959 . S
C471 H470 0.961 . S
C471 H472 0.960 . S
H472 C471 0.960 . S
H473 N453 0.862 . S
O474 Co442 1.920 . S
O474 C447 1.289 . S
C475 O467 1.258 . S
C475 O468 1.266 . S
Co476 O479 1.970 . S
Co476 N493 1.989 . S
Co476 O501 1.967 . S
Co476 O508 1.920 . S
Co477 O480 1.966 . S
Co477 N486 2.022 . S
Co477 N494 1.993 . S
Co477 O502 1.941 . S
C478 O479 1.258 . S
C478 O480 1.263 . S
O479 Co476 1.970 . S
O479 C478 1.258 . S
O480 Co477 1.966 . S
O480 C478 1.263 . S
C481 O482 1.235 . S
C481 O508 1.289 . S
O482 C481 1.235 . S
C483 C485 1.400 . S
C483 N486 1.351 . S
C483 C488 1.501 . S
C484 C485 1.387 . S
C484 N487 1.341 . S
C485 C483 1.400 . S
C485 C484 1.387 . S
N486 Co477 2.022 . S
N486 C483 1.351 . S
N486 N487 1.365 . S
N487 C484 1.341 . S
N487 N486 1.365 . S
N487 H507 0.862 . S
C488 C483 1.501 . S
C488 H489 0.961 . S
C488 H490 0.961 . S
C488 H491 0.960 . S
H489 C488 0.961 . S
H490 C488 0.961 . S
H491 C488 0.960 . S
C492 N493 1.342 . S
C492 C496 1.401 . S
C492 C497 1.499 . S
N493 Co476 1.989 . S
N493 C492 1.342 . S
N493 N494 1.388 . S
N494 Co477 1.993 . S
N494 N493 1.388 . S
N494 C495 1.346 . S
C495 N494 1.346 . S
C495 C496 1.396 . S
C495 C505 1.510 . S
C496 C492 1.401 . S
C496 C495 1.396 . S
C497 C492 1.499 . S
C497 H498 0.959 . S
C497 H499 0.960 . S
C497 H500 0.961 . S
H498 C497 0.959 . S
H499 C497 0.960 . S
H500 C497 0.961 . S
O501 Co476 1.967 . S
O501 C509 1.258 . S
O502 Co477 1.941 . S
O502 C509 1.266 . S
H503 C505 0.959 . S
H504 C505 0.961 . S
C505 C495 1.510 . S
C505 H503 0.959 . S
C505 H504 0.961 . S
C505 H506 0.960 . S
H506 C505 0.960 . S
H507 N487 0.862 . S
O508 Co476 1.920 . S
O508 C481 1.289 . S
C509 O501 1.258 . S
C509 O502 1.266 . S
Co510 O513 1.970 . S
Co510 N527 1.989 . S
Co510 O535 1.967 . S
Co510 O542 1.920 . S
Co511 O514 1.966 . S
Co511 N520 2.022 . S
Co511 N528 1.993 . S
Co511 O536 1.941 . S
C512 O513 1.258 . S
C512 O514 1.263 . S
O513 Co510 1.970 . S
O513 C512 1.258 . S
O514 Co511 1.966 . S
O514 C512 1.263 . S
C515 O516 1.235 . S
C515 O542 1.289 . S
O516 C515 1.235 . S
C517 C519 1.400 . S
C517 N520 1.351 . S
C517 C522 1.501 . S
C518 C519 1.387 . S
C518 N521 1.341 . S
C519 C517 1.400 . S
C519 C518 1.387 . S
N520 Co511 2.022 . S
N520 C517 1.351 . S
N520 N521 1.365 . S
N521 C518 1.341 . S
N521 N520 1.365 . S
N521 H541 0.862 . S
C522 C517 1.501 . S
C522 H523 0.961 . S
C522 H524 0.961 . S
C522 H525 0.960 . S
H523 C522 0.961 . S
H524 C522 0.961 . S
H525 C522 0.960 . S
C526 N527 1.342 . S
C526 C530 1.401 . S
C526 C531 1.499 . S
N527 Co510 1.989 . S
N527 C526 1.342 . S
N527 N528 1.388 . S
N528 Co511 1.993 . S
N528 N527 1.388 . S
N528 C529 1.346 . S
C529 N528 1.346 . S
C529 C530 1.396 . S
C529 C539 1.510 . S
C530 C526 1.401 . S
C530 C529 1.396 . S
C531 C526 1.499 . S
C531 H532 0.959 . S
C531 H533 0.960 . S
C531 H534 0.961 . S
H532 C531 0.959 . S
H533 C531 0.960 . S
H534 C531 0.961 . S
O535 Co510 1.967 . S
O535 C543 1.258 . S
O536 Co511 1.941 . S
O536 C543 1.266 . S
H537 C539 0.959 . S
H538 C539 0.961 . S
C539 C529 1.510 . S
C539 H537 0.959 . S
C539 H538 0.961 . S
C539 H540 0.960 . S
H540 C539 0.960 . S
H541 N521 0.862 . S
O542 Co510 1.920 . S
O542 C515 1.289 . S
C543 O535 1.258 . S
C543 O536 1.266 . S
C544 C545 1.363 . S
C544 C550 1.379 1_655 S
C544 N552 1.356 . S
C545 C544 1.363 . S
C545 C551 1.363 . S
C546 C547 1.363 . S
C546 C551 1.379 1_455 S
C546 N553 1.356 . S
C547 C546 1.363 . S
C547 C550 1.363 . S
N548 C550 1.356 . S
N548 H560 0.984 . S
N548 H561 0.985 . S
N549 C551 1.356 . S
N549 H554 0.984 . S
N549 H555 0.985 . S
C550 C544 1.379 1_455 S
C550 C547 1.363 . S
C550 N548 1.356 . S
C551 C545 1.363 . S
C551 C546 1.379 1_655 S
C551 N549 1.356 . S
N552 C544 1.356 . S
N552 H558 0.984 . S
N552 H559 0.984 . S
N553 C546 1.356 . S
N553 H556 0.984 . S
N553 H557 0.985 . S
H554 N549 0.984 . S
H555 N549 0.985 . S
H556 N553 0.984 . S
H557 N553 0.985 . S
H558 N552 0.984 . S
H559 N552 0.984 . S
H560 N548 0.984 . S
H561 N548 0.985 . S
C562 C563 1.363 . S
C562 C568 1.379 1_545 S
C562 N570 1.356 . S
C563 C562 1.363 . S
C563 C569 1.363 . S
C564 C565 1.363 . S
C564 C569 1.379 1_565 S
C564 N571 1.356 . S
C565 C564 1.363 . S
C565 C568 1.363 . S
N566 C568 1.356 . S
N566 H578 0.984 . S
N566 H579 0.985 . S
N567 C569 1.356 . S
N567 H572 0.984 . S
N567 H573 0.985 . S
C568 C562 1.379 1_565 S
C568 C565 1.363 . S
C568 N566 1.356 . S
C569 C563 1.363 . S
C569 C564 1.379 1_545 S
C569 N567 1.356 . S
N570 C562 1.356 . S
N570 H576 0.984 . S
N570 H577 0.984 . S
N571 C564 1.356 . S
N571 H574 0.984 . S
N571 H575 0.985 . S
H572 N567 0.984 . S
H573 N567 0.985 . S
H574 N571 0.984 . S
H575 N571 0.985 . S
H576 N570 0.984 . S
H577 N570 0.984 . S
H578 N566 0.984 . S
H579 N566 0.985 . S
C580 C581 1.363 . S
C580 C586 1.379 1_655 S
C580 N588 1.356 . S
C581 C580 1.363 . S
C581 C587 1.363 . S
C582 C583 1.363 . S
C582 C587 1.379 1_455 S
C582 N589 1.356 . S
C583 C582 1.363 . S
C583 C586 1.363 . S
N584 C586 1.356 . S
N584 H596 0.984 . S
N584 H597 0.985 . S
N585 C587 1.356 . S
N585 H590 0.984 . S
N585 H591 0.985 . S
C586 C580 1.379 1_455 S
C586 C583 1.363 . S
C586 N584 1.356 . S
C587 C581 1.363 . S
C587 C582 1.379 1_655 S
C587 N585 1.356 . S
N588 C580 1.356 . S
N588 H594 0.984 . S
N588 H595 0.984 . S
N589 C582 1.356 . S
N589 H592 0.984 . S
N589 H593 0.985 . S
H590 N585 0.984 . S
H591 N585 0.985 . S
H592 N589 0.984 . S
H593 N589 0.985 . S
H594 N588 0.984 . S
H595 N588 0.984 . S
H596 N584 0.984 . S
H597 N584 0.985 . S
C598 C599 1.363 . S
C598 C604 1.379 1_565 S
C598 N606 1.356 . S
C599 C598 1.363 . S
C599 C605 1.363 . S
C600 C601 1.363 . S
C600 C605 1.379 1_545 S
C600 N607 1.356 . S
C601 C600 1.363 . S
C601 C604 1.363 . S
N602 C604 1.356 . S
N602 H614 0.984 . S
N602 H615 0.985 . S
N603 C605 1.356 . S
N603 H608 0.984 . S
N603 H609 0.985 . S
C604 C598 1.379 1_545 S
C604 C601 1.363 . S
C604 N602 1.356 . S
C605 C599 1.363 . S
C605 C600 1.379 1_565 S
C605 N603 1.356 . S
N606 C598 1.356 . S
N606 H612 0.984 . S
N606 H613 0.984 . S
N607 C600 1.356 . S
N607 H610 0.984 . S
N607 H611 0.985 . S
H608 N603 0.984 . S
H609 N603 0.985 . S
H610 N607 0.984 . S
H611 N607 0.985 . S
H612 N606 0.984 . S
H613 N606 0.984 . S
H614 N602 0.984 . S
H615 N602 0.985 . S
C616 C617 1.363 . S
C616 C622 1.379 . S
C616 N624 1.356 . S
C617 C616 1.363 . S
C617 C623 1.363 1_655 S
C618 C619 1.363 . S
C618 C623 1.379 . S
C618 N625 1.356 . S
C619 C618 1.363 . S
C619 C622 1.363 1_455 S
N620 C622 1.356 . S
N620 H632 0.984 . S
N620 H633 0.985 . S
N621 C623 1.356 . S
N621 H626 0.984 . S
N621 H627 0.985 . S
C622 C616 1.379 . S
C622 C619 1.363 1_655 S
C622 N620 1.356 . S
C623 C617 1.363 1_455 S
C623 C618 1.379 . S
C623 N621 1.356 . S
N624 C616 1.356 . S
N624 H630 0.984 . S
N624 H631 0.984 . S
N625 C618 1.356 . S
N625 H628 0.984 . S
N625 H629 0.985 . S
H626 N621 0.984 . S
H627 N621 0.985 . S
H628 N625 0.984 . S
H629 N625 0.985 . S
H630 N624 0.984 . S
H631 N624 0.984 . S
H632 N620 0.984 . S
H633 N620 0.985 . S
C634 C635 1.363 1_545 S
C634 C640 1.379 . S
C634 N642 1.356 . S
C635 C634 1.363 1_565 S
C635 C641 1.363 . S
C636 C637 1.363 1_565 S
C636 C641 1.379 . S
C636 N643 1.356 . S
C637 C636 1.363 1_545 S
C637 C640 1.363 . S
N638 C640 1.356 . S
N638 H650 0.984 . S
N638 H651 0.985 . S
N639 C641 1.356 . S
N639 H644 0.984 . S
N639 H645 0.985 . S
C640 C634 1.379 . S
C640 C637 1.363 . S
C640 N638 1.356 . S
C641 C635 1.363 . S
C641 C636 1.379 . S
C641 N639 1.356 . S
N642 C634 1.356 . S
N642 H648 0.984 . S
N642 H649 0.984 . S
N643 C636 1.356 . S
N643 H646 0.984 . S
N643 H647 0.985 . S
H644 N639 0.984 . S
H645 N639 0.985 . S
H646 N643 0.984 . S
H647 N643 0.985 . S
H648 N642 0.984 . S
H649 N642 0.984 . S
H650 N638 0.984 . S
H651 N638 0.985 . S
C652 C653 1.363 . S
C652 C658 1.379 . S
C652 N660 1.356 . S
C653 C652 1.363 . S
C653 C659 1.363 1_655 S
C654 C655 1.363 . S
C654 C659 1.379 . S
C654 N661 1.356 . S
C655 C654 1.363 . S
C655 C658 1.363 1_455 S
N656 C658 1.356 . S
N656 H668 0.984 . S
N656 H669 0.985 . S
N657 C659 1.356 . S
N657 H662 0.984 . S
N657 H663 0.985 . S
C658 C652 1.379 . S
C658 C655 1.363 1_655 S
C658 N656 1.356 . S
C659 C653 1.363 1_455 S
C659 C654 1.379 . S
C659 N657 1.356 . S
N660 C652 1.356 . S
N660 H666 0.984 . S
N660 H667 0.984 . S
N661 C654 1.356 . S
N661 H664 0.984 . S
N661 H665 0.985 . S
H662 N657 0.984 . S
H663 N657 0.985 . S
H664 N661 0.984 . S
H665 N661 0.985 . S
H666 N660 0.984 . S
H667 N660 0.984 . S
H668 N656 0.984 . S
H669 N656 0.985 . S
C670 C671 1.363 1_565 S
C670 C676 1.379 . S
C670 N678 1.356 . S
C671 C670 1.363 1_545 S
C671 C677 1.363 . S
C672 C673 1.363 1_545 S
C672 C677 1.379 . S
C672 N679 1.356 . S
C673 C672 1.363 1_565 S
C673 C676 1.363 . S
N674 C676 1.356 . S
N674 H686 0.984 . S
N674 H687 0.985 . S
N675 C677 1.356 . S
N675 H680 0.984 . S
N675 H681 0.985 . S
C676 C670 1.379 . S
C676 C673 1.363 . S
C676 N674 1.356 . S
C677 C671 1.363 . S
C677 C672 1.379 . S
C677 N675 1.356 . S
N678 C670 1.356 . S
N678 H684 0.984 . S
N678 H685 0.984 . S
N679 C672 1.356 . S
N679 H682 0.984 . S
N679 H683 0.985 . S
H680 N675 0.984 . S
H681 N675 0.985 . S
H682 N679 0.984 . S
H683 N679 0.985 . S
H684 N678 0.984 . S
H685 N678 0.984 . S
H686 N674 0.984 . S
H687 N674 0.985 . S
C688 C689 1.363 . S
C688 C694 1.379 . S
C688 N696 1.356 . S
C689 C688 1.363 . S
C689 C695 1.363 . S
C690 C691 1.363 . S
C690 C695 1.379 . S
C690 N697 1.356 . S
C691 C690 1.363 . S
C691 C694 1.363 . S
N692 C694 1.356 . S
N692 H704 0.984 . S
N692 H705 0.985 . S
N693 C695 1.356 . S
N693 H698 0.984 . S
N693 H699 0.985 . S
C694 C688 1.379 . S
C694 C691 1.363 . S
C694 N692 1.356 . S
C695 C689 1.363 . S
C695 C690 1.379 . S
C695 N693 1.356 . S
N696 C688 1.356 . S
N696 H702 0.984 . S
N696 H703 0.984 . S
N697 C690 1.356 . S
N697 H700 0.984 . S
N697 H701 0.985 . S
H698 N693 0.984 . S
H699 N693 0.985 . S
H700 N697 0.984 . S
H701 N697 0.985 . S
H702 N696 0.984 . S
H703 N696 0.984 . S
H704 N692 0.984 . S
H705 N692 0.985 . S
C706 C707 1.363 . S
C706 C712 1.379 . S
C706 N714 1.356 . S
C707 C706 1.363 . S
C707 C713 1.363 . S
C708 C709 1.363 . S
C708 C713 1.379 . S
C708 N715 1.356 . S
C709 C708 1.363 . S
C709 C712 1.363 . S
N710 C712 1.356 . S
N710 H722 0.984 . S
N710 H723 0.985 . S
N711 C713 1.356 . S
N711 H716 0.984 . S
N711 H717 0.985 . S
C712 C706 1.379 . S
C712 C709 1.363 . S
C712 N710 1.356 . S
C713 C707 1.363 . S
C713 C708 1.379 . S
C713 N711 1.356 . S
N714 C706 1.356 . S
N714 H720 0.984 . S
N714 H721 0.984 . S
N715 C708 1.356 . S
N715 H718 0.984 . S
N715 H719 0.985 . S
H716 N711 0.984 . S
H717 N711 0.985 . S
H718 N715 0.984 . S
H719 N715 0.985 . S
H720 N714 0.984 . S
H721 N714 0.984 . S
H722 N710 0.984 . S
H723 N710 0.985 . S
C724 C725 1.363 . S
C724 C730 1.379 . S
C724 N732 1.356 . S
C725 C724 1.363 . S
C725 C731 1.363 . S
C726 C727 1.363 . S
C726 C731 1.379 . S
C726 N733 1.356 . S
C727 C726 1.363 . S
C727 C730 1.363 . S
N728 C730 1.356 . S
N728 H740 0.984 . S
N728 H741 0.985 . S
N729 C731 1.356 . S
N729 H734 0.984 . S
N729 H735 0.985 . S
C730 C724 1.379 . S
C730 C727 1.363 . S
C730 N728 1.356 . S
C731 C725 1.363 . S
C731 C726 1.379 . S
C731 N729 1.356 . S
N732 C724 1.356 . S
N732 H738 0.984 . S
N732 H739 0.984 . S
N733 C726 1.356 . S
N733 H736 0.984 . S
N733 H737 0.985 . S
H734 N729 0.984 . S
H735 N729 0.985 . S
H736 N733 0.984 . S
H737 N733 0.985 . S
H738 N732 0.984 . S
H739 N732 0.984 . S
H740 N728 0.984 . S
H741 N728 0.985 . S
C742 C743 1.363 . S
C742 C748 1.379 . S
C742 N750 1.356 . S
C743 C742 1.363 . S
C743 C749 1.363 . S
C744 C745 1.363 . S
C744 C749 1.379 . S
C744 N751 1.356 . S
C745 C744 1.363 . S
C745 C748 1.363 . S
N746 C748 1.356 . S
N746 H758 0.984 . S
N746 H759 0.985 . S
N747 C749 1.356 . S
N747 H752 0.984 . S
N747 H753 0.985 . S
C748 C742 1.379 . S
C748 C745 1.363 . S
C748 N746 1.356 . S
C749 C743 1.363 . S
C749 C744 1.379 . S
C749 N747 1.356 . S
N750 C742 1.356 . S
N750 H756 0.984 . S
N750 H757 0.984 . S
N751 C744 1.356 . S
N751 H754 0.984 . S
N751 H755 0.985 . S
H752 N747 0.984 . S
H753 N747 0.985 . S
H754 N751 0.984 . S
H755 N751 0.985 . S
H756 N750 0.984 . S
H757 N750 0.984 . S
H758 N746 0.984 . S
H759 N746 0.985 . S
C760 C761 1.363 . S
C760 C766 1.379 . S
C760 N768 1.356 . S
C761 C760 1.363 . S
C761 C767 1.363 . S
C762 C763 1.363 . S
C762 C767 1.379 . S
C762 N769 1.356 . S
C763 C762 1.363 . S
C763 C766 1.363 . S
N764 C766 1.356 . S
N764 H776 0.984 . S
N764 H777 0.985 . S
N765 C767 1.356 . S
N765 H770 0.984 . S
N765 H771 0.985 . S
C766 C760 1.379 . S
C766 C763 1.363 . S
C766 N764 1.356 . S
C767 C761 1.363 . S
C767 C762 1.379 . S
C767 N765 1.356 . S
N768 C760 1.356 . S
N768 H774 0.984 . S
N768 H775 0.984 . S
N769 C762 1.356 . S
N769 H772 0.984 . S
N769 H773 0.985 . S
H770 N765 0.984 . S
H771 N765 0.985 . S
H772 N769 0.984 . S
H773 N769 0.985 . S
H774 N768 0.984 . S
H775 N768 0.984 . S
H776 N764 0.984 . S
H777 N764 0.985 . S
C778 C779 1.363 . S
C778 C784 1.379 . S
C778 N786 1.356 . S
C779 C778 1.363 . S
C779 C785 1.363 . S
C780 C781 1.363 . S
C780 C785 1.379 . S
C780 N787 1.356 . S
C781 C780 1.363 . S
C781 C784 1.363 . S
N782 C784 1.356 . S
N782 H794 0.984 . S
N782 H795 0.985 . S
N783 C785 1.356 . S
N783 H788 0.984 . S
N783 H789 0.985 . S
C784 C778 1.379 . S
C784 C781 1.363 . S
C784 N782 1.356 . S
C785 C779 1.363 . S
C785 C780 1.379 . S
C785 N783 1.356 . S
N786 C778 1.356 . S
N786 H792 0.984 . S
N786 H793 0.984 . S
N787 C780 1.356 . S
N787 H790 0.984 . S
N787 H791 0.985 . S
H788 N783 0.984 . S
H789 N783 0.985 . S
H790 N787 0.984 . S
H791 N787 0.985 . S
H792 N786 0.984 . S
H793 N786 0.984 . S
H794 N782 0.984 . S
H795 N782 0.985 . S
C796 C797 1.363 . S
C796 C802 1.379 . S
C796 N804 1.356 . S
C797 C796 1.363 . S
C797 C803 1.363 . S
C798 C799 1.363 . S
C798 C803 1.379 . S
C798 N805 1.356 . S
C799 C798 1.363 . S
C799 C802 1.363 . S
N800 C802 1.356 . S
N800 H812 0.984 . S
N800 H813 0.985 . S
N801 C803 1.356 . S
N801 H806 0.984 . S
N801 H807 0.985 . S
C802 C796 1.379 . S
C802 C799 1.363 . S
C802 N800 1.356 . S
C803 C797 1.363 . S
C803 C798 1.379 . S
C803 N801 1.356 . S
N804 C796 1.356 . S
N804 H810 0.984 . S
N804 H811 0.984 . S
N805 C798 1.356 . S
N805 H808 0.984 . S
N805 H809 0.985 . S
H806 N801 0.984 . S
H807 N801 0.985 . S
H808 N805 0.984 . S
H809 N805 0.985 . S
H810 N804 0.984 . S
H811 N804 0.984 . S
H812 N800 0.984 . S
H813 N800 0.985 . S
C814 C815 1.363 . S
C814 C820 1.379 . S
C814 N822 1.356 . S
C815 C814 1.363 . S
C815 C821 1.363 . S
C816 C817 1.363 . S
C816 C821 1.379 . S
C816 N823 1.356 . S
C817 C816 1.363 . S
C817 C820 1.363 . S
N818 C820 1.356 . S
N818 H830 0.984 . S
N818 H831 0.985 . S
N819 C821 1.356 . S
N819 H824 0.984 . S
N819 H825 0.985 . S
C820 C814 1.379 . S
C820 C817 1.363 . S
C820 N818 1.356 . S
C821 C815 1.363 . S
C821 C816 1.379 . S
C821 N819 1.356 . S
N822 C814 1.356 . S
N822 H828 0.984 . S
N822 H829 0.984 . S
N823 C816 1.356 . S
N823 H826 0.984 . S
N823 H827 0.985 . S
H824 N819 0.984 . S
H825 N819 0.985 . S
H826 N823 0.984 . S
H827 N823 0.985 . S
H828 N822 0.984 . S
H829 N822 0.984 . S
H830 N818 0.984 . S
H831 N818 0.985 . S
C832 C833 1.363 . S
C832 C838 1.379 1_554 S
C832 N840 1.356 . S
C833 C832 1.363 . S
C833 C839 1.363 . S
C834 C835 1.363 . S
C834 C839 1.379 1_556 S
C834 N841 1.356 . S
C835 C834 1.363 . S
C835 C838 1.363 . S
N836 C838 1.356 . S
N836 H848 0.984 . S
N836 H849 0.985 . S
N837 C839 1.356 . S
N837 H842 0.984 . S
N837 H843 0.985 . S
C838 C832 1.379 1_556 S
C838 C835 1.363 . S
C838 N836 1.356 . S
C839 C833 1.363 . S
C839 C834 1.379 1_554 S
C839 N837 1.356 . S
N840 C832 1.356 . S
N840 H846 0.984 . S
N840 H847 0.984 . S
N841 C834 1.356 . S
N841 H844 0.984 . S
N841 H845 0.985 . S
H842 N837 0.984 . S
H843 N837 0.985 . S
H844 N841 0.984 . S
H845 N841 0.985 . S
H846 N840 0.984 . S
H847 N840 0.984 . S
H848 N836 0.984 . S
H849 N836 0.985 . S
C850 C851 1.363 . S
C850 C856 1.379 1_556 S
C850 N858 1.356 . S
C851 C850 1.363 . S
C851 C857 1.363 . S
C852 C853 1.363 . S
C852 C857 1.379 1_554 S
C852 N859 1.356 . S
C853 C852 1.363 . S
C853 C856 1.363 . S
N854 C856 1.356 . S
N854 H866 0.984 . S
N854 H867 0.985 . S
N855 C857 1.356 . S
N855 H860 0.984 . S
N855 H861 0.985 . S
C856 C850 1.379 1_554 S
C856 C853 1.363 . S
C856 N854 1.356 . S
C857 C851 1.363 . S
C857 C852 1.379 1_556 S
C857 N855 1.356 . S
N858 C850 1.356 . S
N858 H864 0.984 . S
N858 H865 0.984 . S
N859 C852 1.356 . S
N859 H862 0.984 . S
N859 H863 0.985 . S
H860 N855 0.984 . S
H861 N855 0.985 . S
H862 N859 0.984 . S
H863 N859 0.985 . S
H864 N858 0.984 . S
H865 N858 0.984 . S
H866 N854 0.984 . S
H867 N854 0.985 . S
C868 C869 1.363 . S
C868 C874 1.379 1_556 S
C868 N876 1.356 . S
C869 C868 1.363 . S
C869 C875 1.363 . S
C870 C871 1.363 . S
C870 C875 1.379 1_554 S
C870 N877 1.356 . S
C871 C870 1.363 . S
C871 C874 1.363 . S
N872 C874 1.356 . S
N872 H884 0.984 . S
N872 H885 0.985 . S
N873 C875 1.356 . S
N873 H878 0.984 . S
N873 H879 0.985 . S
C874 C868 1.379 1_554 S
C874 C871 1.363 . S
C874 N872 1.356 . S
C875 C869 1.363 . S
C875 C870 1.379 1_556 S
C875 N873 1.356 . S
N876 C868 1.356 . S
N876 H882 0.984 . S
N876 H883 0.984 . S
N877 C870 1.356 . S
N877 H880 0.984 . S
N877 H881 0.985 . S
H878 N873 0.984 . S
H879 N873 0.985 . S
H880 N877 0.984 . S
H881 N877 0.985 . S
H882 N876 0.984 . S
H883 N876 0.984 . S
H884 N872 0.984 . S
H885 N872 0.985 . S
C886 C887 1.363 . S
C886 C892 1.379 1_556 S
C886 N894 1.356 . S
C887 C886 1.363 . S
C887 C893 1.363 . S
C888 C889 1.363 . S
C888 C893 1.379 1_554 S
C888 N895 1.356 . S
C889 C888 1.363 . S
C889 C892 1.363 . S
N890 C892 1.356 . S
N890 H902 0.984 . S
N890 H903 0.985 . S
N891 C893 1.356 . S
N891 H896 0.984 . S
N891 H897 0.985 . S
C892 C886 1.379 1_554 S
C892 C889 1.363 . S
C892 N890 1.356 . S
C893 C887 1.363 . S
C893 C888 1.379 1_556 S
C893 N891 1.356 . S
N894 C886 1.356 . S
N894 H900 0.984 . S
N894 H901 0.984 . S
N895 C888 1.356 . S
N895 H898 0.984 . S
N895 H899 0.985 . S
H896 N891 0.984 . S
H897 N891 0.985 . S
H898 N895 0.984 . S
H899 N895 0.985 . S
H900 N894 0.984 . S
H901 N894 0.984 . S
H902 N890 0.984 . S
H903 N890 0.985 . S
C904 C905 1.363 . S
C904 C910 1.379 . S
C904 N912 1.356 . S
C905 C904 1.363 . S
C905 C911 1.363 . S
C906 C907 1.363 . S
C906 C911 1.379 . S
C906 N913 1.356 . S
C907 C906 1.363 . S
C907 C910 1.363 . S
N908 C910 1.356 . S
N908 H920 0.984 . S
N908 H921 0.985 . S
N909 C911 1.356 . S
N909 H914 0.984 . S
N909 H915 0.985 . S
C910 C904 1.379 . S
C910 C907 1.363 . S
C910 N908 1.356 . S
C911 C905 1.363 . S
C911 C906 1.379 . S
C911 N909 1.356 . S
N912 C904 1.356 . S
N912 H918 0.984 . S
N912 H919 0.984 . S
N913 C906 1.356 . S
N913 H916 0.984 . S
N913 H917 0.985 . S
H914 N909 0.984 . S
H915 N909 0.985 . S
H916 N913 0.984 . S
H917 N913 0.985 . S
H918 N912 0.984 . S
H919 N912 0.984 . S
H920 N908 0.984 . S
H921 N908 0.985 . S
C922 C923 1.363 . S
C922 C928 1.379 . S
C922 N930 1.356 . S
C923 C922 1.363 . S
C923 C929 1.363 . S
C924 C925 1.363 . S
C924 C929 1.379 . S
C924 N931 1.356 . S
C925 C924 1.363 . S
C925 C928 1.363 . S
N926 C928 1.356 . S
N926 H938 0.984 . S
N926 H939 0.985 . S
N927 C929 1.356 . S
N927 H932 0.984 . S
N927 H933 0.985 . S
C928 C922 1.379 . S
C928 C925 1.363 . S
C928 N926 1.356 . S
C929 C923 1.363 . S
C929 C924 1.379 . S
C929 N927 1.356 . S
N930 C922 1.356 . S
N930 H936 0.984 . S
N930 H937 0.984 . S
N931 C924 1.356 . S
N931 H934 0.984 . S
N931 H935 0.985 . S
H932 N927 0.984 . S
H933 N927 0.985 . S
H934 N931 0.984 . S
H935 N931 0.985 . S
H936 N930 0.984 . S
H937 N930 0.984 . S
H938 N926 0.984 . S
H939 N926 0.985 . S
C940 C941 1.363 . S
C940 C946 1.379 . S
C940 N948 1.356 . S
C941 C940 1.363 . S
C941 C947 1.363 . S
C942 C943 1.363 . S
C942 C947 1.379 . S
C942 N949 1.356 . S
C943 C942 1.363 . S
C943 C946 1.363 . S
N944 C946 1.356 . S
N944 H956 0.984 . S
N944 H957 0.985 . S
N945 C947 1.356 . S
N945 H950 0.984 . S
N945 H951 0.985 . S
C946 C940 1.379 . S
C946 C943 1.363 . S
C946 N944 1.356 . S
C947 C941 1.363 . S
C947 C942 1.379 . S
C947 N945 1.356 . S
N948 C940 1.356 . S
N948 H954 0.984 . S
N948 H955 0.984 . S
N949 C942 1.356 . S
N949 H952 0.984 . S
N949 H953 0.985 . S
H950 N945 0.984 . S
H951 N945 0.985 . S
H952 N949 0.984 . S
H953 N949 0.985 . S
H954 N948 0.984 . S
H955 N948 0.984 . S
H956 N944 0.984 . S
H957 N944 0.985 . S
C958 C959 1.363 . S
C958 C964 1.379 . S
C958 N966 1.356 . S
C959 C958 1.363 . S
C959 C965 1.363 . S
C960 C961 1.363 . S
C960 C965 1.379 . S
C960 N967 1.356 . S
C961 C960 1.363 . S
C961 C964 1.363 . S
N962 C964 1.356 . S
N962 H974 0.984 . S
N962 H975 0.985 . S
N963 C965 1.356 . S
N963 H968 0.984 . S
N963 H969 0.985 . S
C964 C958 1.379 . S
C964 C961 1.363 . S
C964 N962 1.356 . S
C965 C959 1.363 . S
C965 C960 1.379 . S
C965 N963 1.356 . S
N966 C958 1.356 . S
N966 H972 0.984 . S
N966 H973 0.984 . S
N967 C960 1.356 . S
N967 H970 0.984 . S
N967 H971 0.985 . S
H968 N963 0.984 . S
H969 N963 0.985 . S
H970 N967 0.984 . S
H971 N967 0.985 . S
H972 N966 0.984 . S
H973 N966 0.984 . S
H974 N962 0.984 . S
H975 N962 0.985 . S
C976 C977 1.363 . S
C976 C982 1.379 . S
C976 N984 1.356 . S
C977 C976 1.363 . S
C977 C983 1.363 . S
C978 C979 1.363 . S
C978 C983 1.379 . S
C978 N985 1.356 . S
C979 C978 1.363 . S
C979 C982 1.363 . S
N980 C982 1.356 . S
N980 H992 0.984 . S
N980 H993 0.985 . S
N981 C983 1.356 . S
N981 H986 0.984 . S
N981 H987 0.985 . S
C982 C976 1.379 . S
C982 C979 1.363 . S
C982 N980 1.356 . S
C983 C977 1.363 . S
C983 C978 1.379 . S
C983 N981 1.356 . S
N984 C976 1.356 . S
N984 H990 0.984 . S
N984 H991 0.984 . S
N985 C978 1.356 . S
N985 H988 0.984 . S
N985 H989 0.985 . S
H986 N981 0.984 . S
H987 N981 0.985 . S
H988 N985 0.984 . S
H989 N985 0.985 . S
H990 N984 0.984 . S
H991 N984 0.984 . S
H992 N980 0.984 . S
H993 N980 0.985 . S
C994 C995 1.363 . S
C994 C1000 1.379 . S
C994 N1002 1.356 . S
C995 C994 1.363 . S
C995 C1001 1.363 . S
C996 C997 1.363 . S
C996 C1001 1.379 . S
C996 N1003 1.356 . S
C997 C996 1.363 . S
C997 C1000 1.363 . S
N998 C1000 1.356 . S
N998 H1010 0.984 . S
N998 H1011 0.985 . S
N999 C1001 1.356 . S
N999 H1004 0.984 . S
N999 H1005 0.985 . S
C1000 C994 1.379 . S
C1000 C997 1.363 . S
C1000 N998 1.356 . S
C1001 C995 1.363 . S
C1001 C996 1.379 . S
C1001 N999 1.356 . S
N1002 C994 1.356 . S
N1002 H1008 0.984 . S
N1002 H1009 0.984 . S
N1003 C996 1.356 . S
N1003 H1006 0.984 . S
N1003 H1007 0.985 . S
H1004 N999 0.984 . S
H1005 N999 0.985 . S
H1006 N1003 0.984 . S
H1007 N1003 0.985 . S
H1008 N1002 0.984 . S
H1009 N1002 0.984 . S
H1010 N998 0.984 . S
H1011 N998 0.985 . S
C1012 C1013 1.363 . S
C1012 C1018 1.379 . S
C1012 N1020 1.356 . S
C1013 C1012 1.363 . S
C1013 C1019 1.363 . S
C1014 C1015 1.363 . S
C1014 C1019 1.379 . S
C1014 N1021 1.356 . S
C1015 C1014 1.363 . S
C1015 C1018 1.363 . S
N1016 C1018 1.356 . S
N1016 H1028 0.984 . S
N1016 H1029 0.985 . S
N1017 C1019 1.356 . S
N1017 H1022 0.984 . S
N1017 H1023 0.985 . S
C1018 C1012 1.379 . S
C1018 C1015 1.363 . S
C1018 N1016 1.356 . S
C1019 C1013 1.363 . S
C1019 C1014 1.379 . S
C1019 N1017 1.356 . S
N1020 C1012 1.356 . S
N1020 H1026 0.984 . S
N1020 H1027 0.984 . S
N1021 C1014 1.356 . S
N1021 H1024 0.984 . S
N1021 H1025 0.985 . S
H1022 N1017 0.984 . S
H1023 N1017 0.985 . S
H1024 N1021 0.984 . S
H1025 N1021 0.985 . S
H1026 N1020 0.984 . S
H1027 N1020 0.984 . S
H1028 N1016 0.984 . S
H1029 N1016 0.985 . S
C1030 C1031 1.363 . S
C1030 C1036 1.379 . S
C1030 N1038 1.356 . S
C1031 C1030 1.363 . S
C1031 C1037 1.363 . S
C1032 C1033 1.363 . S
C1032 C1037 1.379 . S
C1032 N1039 1.356 . S
C1033 C1032 1.363 . S
C1033 C1036 1.363 . S
N1034 C1036 1.356 . S
N1034 H1046 0.984 . S
N1034 H1047 0.985 . S
N1035 C1037 1.356 . S
N1035 H1040 0.984 . S
N1035 H1041 0.985 . S
C1036 C1030 1.379 . S
C1036 C1033 1.363 . S
C1036 N1034 1.356 . S
C1037 C1031 1.363 . S
C1037 C1032 1.379 . S
C1037 N1035 1.356 . S
N1038 C1030 1.356 . S
N1038 H1044 0.984 . S
N1038 H1045 0.984 . S
N1039 C1032 1.356 . S
N1039 H1042 0.984 . S
N1039 H1043 0.985 . S
H1040 N1035 0.984 . S
H1041 N1035 0.985 . S
H1042 N1039 0.984 . S
H1043 N1039 0.985 . S
H1044 N1038 0.984 . S
H1045 N1038 0.984 . S
H1046 N1034 0.984 . S
H1047 N1034 0.985 . S
C1048 C1049 1.363 . S
C1048 C1054 1.379 . S
C1048 N1056 1.356 . S
C1049 C1048 1.363 . S
C1049 C1055 1.363 . S
C1050 C1051 1.363 . S
C1050 C1055 1.379 . S
C1050 N1057 1.356 . S
C1051 C1050 1.363 . S
C1051 C1054 1.363 . S
N1052 C1054 1.356 . S
N1052 H1064 0.984 . S
N1052 H1065 0.985 . S
N1053 C1055 1.356 . S
N1053 H1058 0.984 . S
N1053 H1059 0.985 . S
C1054 C1048 1.379 . S
C1054 C1051 1.363 . S
C1054 N1052 1.356 . S
C1055 C1049 1.363 . S
C1055 C1050 1.379 . S
C1055 N1053 1.356 . S
N1056 C1048 1.356 . S
N1056 H1062 0.984 . S
N1056 H1063 0.984 . S
N1057 C1050 1.356 . S
N1057 H1060 0.984 . S
N1057 H1061 0.985 . S
H1058 N1053 0.984 . S
H1059 N1053 0.985 . S
H1060 N1057 0.984 . S
H1061 N1057 0.985 . S
H1062 N1056 0.984 . S
H1063 N1056 0.984 . S
H1064 N1052 0.984 . S
H1065 N1052 0.985 . S
C1066 C1067 1.363 . S
C1066 C1072 1.379 . S
C1066 N1074 1.356 . S
C1067 C1066 1.363 . S
C1067 C1073 1.363 . S
C1068 C1069 1.363 . S
C1068 C1073 1.379 . S
C1068 N1075 1.356 . S
C1069 C1068 1.363 . S
C1069 C1072 1.363 . S
N1070 C1072 1.356 . S
N1070 H1082 0.984 . S
N1070 H1083 0.985 . S
N1071 C1073 1.356 . S
N1071 H1076 0.984 . S
N1071 H1077 0.985 . S
C1072 C1066 1.379 . S
C1072 C1069 1.363 . S
C1072 N1070 1.356 . S
C1073 C1067 1.363 . S
C1073 C1068 1.379 . S
C1073 N1071 1.356 . S
N1074 C1066 1.356 . S
N1074 H1080 0.984 . S
N1074 H1081 0.984 . S
N1075 C1068 1.356 . S
N1075 H1078 0.984 . S
N1075 H1079 0.985 . S
H1076 N1071 0.984 . S
H1077 N1071 0.985 . S
H1078 N1075 0.984 . S
H1079 N1075 0.985 . S
H1080 N1074 0.984 . S
H1081 N1074 0.984 . S
H1082 N1070 0.984 . S
H1083 N1070 0.985 . S
C1084 C1085 1.363 . S
C1084 C1090 1.379 . S
C1084 N1092 1.356 . S
C1085 C1084 1.363 . S
C1085 C1091 1.363 . S
C1086 C1087 1.363 . S
C1086 C1091 1.379 . S
C1086 N1093 1.356 . S
C1087 C1086 1.363 . S
C1087 C1090 1.363 . S
N1088 C1090 1.356 . S
N1088 H1100 0.984 . S
N1088 H1101 0.985 . S
N1089 C1091 1.356 . S
N1089 H1094 0.984 . S
N1089 H1095 0.985 . S
C1090 C1084 1.379 . S
C1090 C1087 1.363 . S
C1090 N1088 1.356 . S
C1091 C1085 1.363 . S
C1091 C1086 1.379 . S
C1091 N1089 1.356 . S
N1092 C1084 1.356 . S
N1092 H1098 0.984 . S
N1092 H1099 0.984 . S
N1093 C1086 1.356 . S
N1093 H1096 0.984 . S
N1093 H1097 0.985 . S
H1094 N1089 0.984 . S
H1095 N1089 0.985 . S
H1096 N1093 0.984 . S
H1097 N1093 0.985 . S
H1098 N1092 0.984 . S
H1099 N1092 0.984 . S
H1100 N1088 0.984 . S
H1101 N1088 0.985 . S
C1102 C1103 1.363 . S
C1102 C1108 1.379 . S
C1102 N1110 1.356 . S
C1103 C1102 1.363 . S
C1103 C1109 1.363 . S
C1104 C1105 1.363 . S
C1104 C1109 1.379 . S
C1104 N1111 1.356 . S
C1105 C1104 1.363 . S
C1105 C1108 1.363 . S
N1106 C1108 1.356 . S
N1106 H1118 0.984 . S
N1106 H1119 0.985 . S
N1107 C1109 1.356 . S
N1107 H1112 0.984 . S
N1107 H1113 0.985 . S
C1108 C1102 1.379 . S
C1108 C1105 1.363 . S
C1108 N1106 1.356 . S
C1109 C1103 1.363 . S
C1109 C1104 1.379 . S
C1109 N1107 1.356 . S
N1110 C1102 1.356 . S
N1110 H1116 0.984 . S
N1110 H1117 0.984 . S
N1111 C1104 1.356 . S
N1111 H1114 0.984 . S
N1111 H1115 0.985 . S
H1112 N1107 0.984 . S
H1113 N1107 0.985 . S
H1114 N1111 0.984 . S
H1115 N1111 0.985 . S
H1116 N1110 0.984 . S
H1117 N1110 0.984 . S
H1118 N1106 0.984 . S
H1119 N1106 0.985 . S
C1120 C1121 1.363 . S
C1120 C1126 1.379 1_545 S
C1120 N1128 1.356 . S
C1121 C1120 1.363 . S
C1121 C1127 1.363 . S
C1122 C1123 1.363 . S
C1122 C1127 1.379 1_565 S
C1122 N1129 1.356 . S
C1123 C1122 1.363 . S
C1123 C1126 1.363 . S
N1124 C1126 1.356 . S
N1124 H1136 0.984 . S
N1124 H1137 0.985 . S
N1125 C1127 1.356 . S
N1125 H1130 0.984 . S
N1125 H1131 0.985 . S
C1126 C1120 1.379 1_565 S
C1126 C1123 1.363 . S
C1126 N1124 1.356 . S
C1127 C1121 1.363 . S
C1127 C1122 1.379 1_545 S
C1127 N1125 1.356 . S
N1128 C1120 1.356 . S
N1128 H1134 0.984 . S
N1128 H1135 0.984 . S
N1129 C1122 1.356 . S
N1129 H1132 0.984 . S
N1129 H1133 0.985 . S
H1130 N1125 0.984 . S
H1131 N1125 0.985 . S
H1132 N1129 0.984 . S
H1133 N1129 0.985 . S
H1134 N1128 0.984 . S
H1135 N1128 0.984 . S
H1136 N1124 0.984 . S
H1137 N1124 0.985 . S
C1138 C1139 1.363 . S
C1138 C1144 1.379 1_655 S
C1138 N1146 1.356 . S
C1139 C1138 1.363 . S
C1139 C1145 1.363 . S
C1140 C1141 1.363 . S
C1140 C1145 1.379 1_455 S
C1140 N1147 1.356 . S
C1141 C1140 1.363 . S
C1141 C1144 1.363 . S
N1142 C1144 1.356 . S
N1142 H1154 0.984 . S
N1142 H1155 0.985 . S
N1143 C1145 1.356 . S
N1143 H1148 0.984 . S
N1143 H1149 0.985 . S
C1144 C1138 1.379 1_455 S
C1144 C1141 1.363 . S
C1144 N1142 1.356 . S
C1145 C1139 1.363 . S
C1145 C1140 1.379 1_655 S
C1145 N1143 1.356 . S
N1146 C1138 1.356 . S
N1146 H1152 0.984 . S
N1146 H1153 0.984 . S
N1147 C1140 1.356 . S
N1147 H1150 0.984 . S
N1147 H1151 0.985 . S
H1148 N1143 0.984 . S
H1149 N1143 0.985 . S
H1150 N1147 0.984 . S
H1151 N1147 0.985 . S
H1152 N1146 0.984 . S
H1153 N1146 0.984 . S
H1154 N1142 0.984 . S
H1155 N1142 0.985 . S
C1156 C1157 1.363 . S
C1156 C1162 1.379 1_545 S
C1156 N1164 1.356 . S
C1157 C1156 1.363 . S
C1157 C1163 1.363 . S
C1158 C1159 1.363 . S
C1158 C1163 1.379 1_565 S
C1158 N1165 1.356 . S
C1159 C1158 1.363 . S
C1159 C1162 1.363 . S
N1160 C1162 1.356 . S
N1160 H1172 0.984 . S
N1160 H1173 0.985 . S
N1161 C1163 1.356 . S
N1161 H1166 0.984 . S
N1161 H1167 0.985 . S
C1162 C1156 1.379 1_565 S
C1162 C1159 1.363 . S
C1162 N1160 1.356 . S
C1163 C1157 1.363 . S
C1163 C1158 1.379 1_545 S
C1163 N1161 1.356 . S
N1164 C1156 1.356 . S
N1164 H1170 0.984 . S
N1164 H1171 0.984 . S
N1165 C1158 1.356 . S
N1165 H1168 0.984 . S
N1165 H1169 0.985 . S
H1166 N1161 0.984 . S
H1167 N1161 0.985 . S
H1168 N1165 0.984 . S
H1169 N1165 0.985 . S
H1170 N1164 0.984 . S
H1171 N1164 0.984 . S
H1172 N1160 0.984 . S
H1173 N1160 0.985 . S
C1174 C1175 1.363 . S
C1174 C1180 1.379 1_655 S
C1174 N1182 1.356 . S
C1175 C1174 1.363 . S
C1175 C1181 1.363 . S
C1176 C1177 1.363 . S
C1176 C1181 1.379 1_455 S
C1176 N1183 1.356 . S
C1177 C1176 1.363 . S
C1177 C1180 1.363 . S
N1178 C1180 1.356 . S
N1178 H1190 0.984 . S
N1178 H1191 0.985 . S
N1179 C1181 1.356 . S
N1179 H1184 0.984 . S
N1179 H1185 0.985 . S
C1180 C1174 1.379 1_455 S
C1180 C1177 1.363 . S
C1180 N1178 1.356 . S
C1181 C1175 1.363 . S
C1181 C1176 1.379 1_655 S
C1181 N1179 1.356 . S
N1182 C1174 1.356 . S
N1182 H1188 0.984 . S
N1182 H1189 0.984 . S
N1183 C1176 1.356 . S
N1183 H1186 0.984 . S
N1183 H1187 0.985 . S
H1184 N1179 0.984 . S
H1185 N1179 0.985 . S
H1186 N1183 0.984 . S
H1187 N1183 0.985 . S
H1188 N1182 0.984 . S
H1189 N1182 0.984 . S
H1190 N1178 0.984 . S
H1191 N1178 0.985 . S
C1192 C1193 1.363 . S
C1192 C1198 1.379 1_565 S
C1192 N1200 1.356 . S
C1193 C1192 1.363 . S
C1193 C1199 1.363 . S
C1194 C1195 1.363 . S
C1194 C1199 1.379 1_545 S
C1194 N1201 1.356 . S
C1195 C1194 1.363 . S
C1195 C1198 1.363 . S
N1196 C1198 1.356 . S
N1196 H1208 0.984 . S
N1196 H1209 0.985 . S
N1197 C1199 1.356 . S
N1197 H1202 0.984 . S
N1197 H1203 0.985 . S
C1198 C1192 1.379 1_545 S
C1198 C1195 1.363 . S
C1198 N1196 1.356 . S
C1199 C1193 1.363 . S
C1199 C1194 1.379 1_565 S
C1199 N1197 1.356 . S
N1200 C1192 1.356 . S
N1200 H1206 0.984 . S
N1200 H1207 0.984 . S
N1201 C1194 1.356 . S
N1201 H1204 0.984 . S
N1201 H1205 0.985 . S
H1202 N1197 0.984 . S
H1203 N1197 0.985 . S
H1204 N1201 0.984 . S
H1205 N1201 0.985 . S
H1206 N1200 0.984 . S
H1207 N1200 0.984 . S
H1208 N1196 0.984 . S
H1209 N1196 0.985 . S
C1210 C1211 1.363 . S
C1210 C1216 1.379 1_455 S
C1210 N1218 1.356 . S
C1211 C1210 1.363 . S
C1211 C1217 1.363 . S
C1212 C1213 1.363 . S
C1212 C1217 1.379 1_655 S
C1212 N1219 1.356 . S
C1213 C1212 1.363 . S
C1213 C1216 1.363 . S
N1214 C1216 1.356 . S
N1214 H1226 0.984 . S
N1214 H1227 0.985 . S
N1215 C1217 1.356 . S
N1215 H1220 0.984 . S
N1215 H1221 0.985 . S
C1216 C1210 1.379 1_655 S
C1216 C1213 1.363 . S
C1216 N1214 1.356 . S
C1217 C1211 1.363 . S
C1217 C1212 1.379 1_455 S
C1217 N1215 1.356 . S
N1218 C1210 1.356 . S
N1218 H1224 0.984 . S
N1218 H1225 0.984 . S
N1219 C1212 1.356 . S
N1219 H1222 0.984 . S
N1219 H1223 0.985 . S
H1220 N1215 0.984 . S
H1221 N1215 0.985 . S
H1222 N1219 0.984 . S
H1223 N1219 0.985 . S
H1224 N1218 0.984 . S
H1225 N1218 0.984 . S
H1226 N1214 0.984 . S
H1227 N1214 0.985 . S
C1228 C1229 1.363 . S
C1228 C1234 1.379 1_565 S
C1228 N1236 1.356 . S
C1229 C1228 1.363 . S
C1229 C1235 1.363 . S
C1230 C1231 1.363 . S
C1230 C1235 1.379 1_545 S
C1230 N1237 1.356 . S
C1231 C1230 1.363 . S
C1231 C1234 1.363 . S
N1232 C1234 1.356 . S
N1232 H1244 0.984 . S
N1232 H1245 0.985 . S
N1233 C1235 1.356 . S
N1233 H1238 0.984 . S
N1233 H1239 0.985 . S
C1234 C1228 1.379 1_545 S
C1234 C1231 1.363 . S
C1234 N1232 1.356 . S
C1235 C1229 1.363 . S
C1235 C1230 1.379 1_565 S
C1235 N1233 1.356 . S
N1236 C1228 1.356 . S
N1236 H1242 0.984 . S
N1236 H1243 0.984 . S
N1237 C1230 1.356 . S
N1237 H1240 0.984 . S
N1237 H1241 0.985 . S
H1238 N1233 0.984 . S
H1239 N1233 0.985 . S
H1240 N1237 0.984 . S
H1241 N1237 0.985 . S
H1242 N1236 0.984 . S
H1243 N1236 0.984 . S
H1244 N1232 0.984 . S
H1245 N1232 0.985 . S
C1246 C1247 1.363 . S
C1246 C1252 1.379 1_655 S
C1246 N1254 1.356 . S
C1247 C1246 1.363 . S
C1247 C1253 1.363 . S
C1248 C1249 1.363 . S
C1248 C1253 1.379 1_455 S
C1248 N1255 1.356 . S
C1249 C1248 1.363 . S
C1249 C1252 1.363 . S
N1250 C1252 1.356 . S
N1250 H1262 0.984 . S
N1250 H1263 0.985 . S
N1251 C1253 1.356 . S
N1251 H1256 0.984 . S
N1251 H1257 0.985 . S
C1252 C1246 1.379 1_455 S
C1252 C1249 1.363 . S
C1252 N1250 1.356 . S
C1253 C1247 1.363 . S
C1253 C1248 1.379 1_655 S
C1253 N1251 1.356 . S
N1254 C1246 1.356 . S
N1254 H1260 0.984 . S
N1254 H1261 0.984 . S
N1255 C1248 1.356 . S
N1255 H1258 0.984 . S
N1255 H1259 0.985 . S
H1256 N1251 0.984 . S
H1257 N1251 0.985 . S
H1258 N1255 0.984 . S
H1259 N1255 0.985 . S
H1260 N1254 0.984 . S
H1261 N1254 0.984 . S
H1262 N1250 0.984 . S
H1263 N1250 0.985 . S
C545 C73 1.056 . S
C547 C5 1.056 . S
C563 C39 1.056 . S
C565 C107 1.056 . S
C581 C209 1.056 . S
C583 C141 1.056 . S
C599 C243 1.056 . S
C601 C175 1.056 . S
C617 C277 1.056 . S
C619 C345 1.056 . S
C635 C311 1.056 . S
C637 C379 1.056 . S
C653 C413 1.056 . S
C655 C481 1.056 . S
C671 C515 1.056 . S
C673 C447 1.056 . S
C689 C9 1.673 . S
C691 C179 1.673 . S
C707 C213 1.673 . S
C709 C43 1.673 . S
C725 C247 1.673 . S
C727 C77 1.673 . S
C743 C145 1.673 . S
C745 C111 1.673 . S
C761 C451 1.673 . S
C763 C281 1.673 . S
C779 C485 1.673 . S
C781 C315 1.673 . S
C797 C519 1.673 . S
C799 C349 1.673 . S
C815 C417 1.673 . S
C817 C383 1.673 . S
C833 C20 1.481 . S
C835 C360 1.481 . S
C851 C394 1.481 . S
C853 C54 1.481 . S
C869 C292 1.481 . S
C871 C88 1.481 . S
C887 C326 1.481 . S
C889 C122 1.481 . S
C905 C156 1.481 . S
C907 C496 1.481 . S
C923 C190 1.481 . S
C925 C530 1.481 . S
C941 C224 1.481 . S
C943 C428 1.481 . S
C959 C258 1.481 . S
C961 C462 1.481 . S
C977 C138 1.408 . S
C979 C2 1.408 . S
C995 C36 1.408 . S
C997 C172 1.408 . S
C1013 C206 1.408 . S
C1015 C70 1.408 . S
C1031 C240 1.408 . S
C1033 C104 1.408 . S
C1049 C305 1.521 . S
C1051 C441 1.521 . S
C1067 C475 1.521 . S
C1069 C339 1.521 . S
C1085 C373 1.521 . S
C1087 C509 1.521 . S
C1103 C543 1.521 . S
C1105 C407 1.521 . S
C1121 C376 1.408 . S
C1123 C444 1.408 . S
C1139 C274 1.408 . S
C1141 C478 1.408 . S
C1157 C512 1.408 . S
C1159 C308 1.408 . S
C1175 C410 1.408 . S
C1177 C342 1.408 . S
C1193 C135 1.521 . S
C1195 C203 1.521 . S
C1211 C33 1.521 . S
C1213 C237 1.521 . S
C1229 C271 1.521 . S
C1231 C67 1.521 . S
C1247 C101 1.521 . S
C1249 C169 1.521 . S
