# Generated by pormake.
# Topology cha, (4)-cn, num edge types: 1
# Building blocks:
#     Node 0, Type 0, BuildingBlock: NAHDIM_clean_sbu_0, # of connection points: 4
#     Node 1, Type 0, BuildingBlock: NAHDIM_clean_sbu_0, # of connection points: 4
#     Node 2, Type 0, BuildingBlock: NAHDIM_clean_sbu_0, # of connection points: 4
#     Node 3, Type 0, BuildingBlock: NAHDIM_clean_sbu_0, # of connection points: 4
#     Node 4, Type 0, BuildingBlock: NAHDIM_clean_sbu_0, # of connection points: 4
#     Node 5, Type 0, BuildingBlock: NAHDIM_clean_sbu_0, # of connection points: 4
#     Node 6, Type 0, BuildingBlock: NAHDIM_clean_sbu_0, # of connection points: 4
#     Node 7, Type 0, BuildingBlock: NAHDIM_clean_sbu_0, # of connection points: 4
#     Node 8, Type 0, BuildingBlock: NAHDIM_clean_sbu_0, # of connection points: 4
#     Node 9, Type 0, BuildingBlock: NAHDIM_clean_sbu_0, # of connection points: 4
#     Node 10, Type 0, BuildingBlock: NAHDIM_clean_sbu_0, # of connection points: 4
#     Node 11, Type 0, BuildingBlock: NAHDIM_clean_sbu_0, # of connection points: 4
#     Node 12, Type 0, BuildingBlock: NAHDIM_clean_sbu_0, # of connection points: 4
#     Node 13, Type 0, BuildingBlock: NAHDIM_clean_sbu_0, # of connection points: 4
#     Node 14, Type 0, BuildingBlock: NAHDIM_clean_sbu_0, # of connection points: 4
#     Node 15, Type 0, BuildingBlock: NAHDIM_clean_sbu_0, # of connection points: 4
#     Node 16, Type 0, BuildingBlock: NAHDIM_clean_sbu_0, # of connection points: 4
#     Node 17, Type 0, BuildingBlock: NAHDIM_clean_sbu_0, # of connection points: 4
#     Node 18, Type 0, BuildingBlock: NAHDIM_clean_sbu_0, # of connection points: 4
#     Node 19, Type 0, BuildingBlock: NAHDIM_clean_sbu_0, # of connection points: 4
#     Node 20, Type 0, BuildingBlock: NAHDIM_clean_sbu_0, # of connection points: 4
#     Node 21, Type 0, BuildingBlock: NAHDIM_clean_sbu_0, # of connection points: 4
#     Node 22, Type 0, BuildingBlock: NAHDIM_clean_sbu_0, # of connection points: 4
#     Node 23, Type 0, BuildingBlock: NAHDIM_clean_sbu_0, # of connection points: 4
#     Node 24, Type 0, BuildingBlock: NAHDIM_clean_sbu_0, # of connection points: 4
#     Node 25, Type 0, BuildingBlock: NAHDIM_clean_sbu_0, # of connection points: 4
#     Node 26, Type 0, BuildingBlock: NAHDIM_clean_sbu_0, # of connection points: 4
#     Node 27, Type 0, BuildingBlock: NAHDIM_clean_sbu_0, # of connection points: 4
#     Node 28, Type 0, BuildingBlock: NAHDIM_clean_sbu_0, # of connection points: 4
#     Node 29, Type 0, BuildingBlock: NAHDIM_clean_sbu_0, # of connection points: 4
#     Node 30, Type 0, BuildingBlock: NAHDIM_clean_sbu_0, # of connection points: 4
#     Node 31, Type 0, BuildingBlock: NAHDIM_clean_sbu_0, # of connection points: 4
#     Node 32, Type 0, BuildingBlock: NAHDIM_clean_sbu_0, # of connection points: 4
#     Node 33, Type 0, BuildingBlock: NAHDIM_clean_sbu_0, # of connection points: 4
#     Node 34, Type 0, BuildingBlock: NAHDIM_clean_sbu_0, # of connection points: 4
#     Node 35, Type 0, BuildingBlock: NAHDIM_clean_sbu_0, # of connection points: 4
#     Edge 36, Type (0, 0), BuildingBlock: AJUNOK_clean_linker_0, # of connection points: 2
#     Edge 37, Type (0, 0), BuildingBlock: AJUNOK_clean_linker_0, # of connection points: 2
#     Edge 38, Type (0, 0), BuildingBlock: AJUNOK_clean_linker_0, # of connection points: 2
#     Edge 39, Type (0, 0), BuildingBlock: AJUNOK_clean_linker_0, # of connection points: 2
#     Edge 40, Type (0, 0), BuildingBlock: AJUNOK_clean_linker_0, # of connection points: 2
#     Edge 41, Type (0, 0), BuildingBlock: AJUNOK_clean_linker_0, # of connection points: 2
#     Edge 42, Type (0, 0), BuildingBlock: AJUNOK_clean_linker_0, # of connection points: 2
#     Edge 43, Type (0, 0), BuildingBlock: AJUNOK_clean_linker_0, # of connection points: 2
#     Edge 44, Type (0, 0), BuildingBlock: AJUNOK_clean_linker_0, # of connection points: 2
#     Edge 45, Type (0, 0), BuildingBlock: AJUNOK_clean_linker_0, # of connection points: 2
#     Edge 46, Type (0, 0), BuildingBlock: AJUNOK_clean_linker_0, # of connection points: 2
#     Edge 47, Type (0, 0), BuildingBlock: AJUNOK_clean_linker_0, # of connection points: 2
#     Edge 48, Type (0, 0), BuildingBlock: AJUNOK_clean_linker_0, # of connection points: 2
#     Edge 49, Type (0, 0), BuildingBlock: AJUNOK_clean_linker_0, # of connection points: 2
#     Edge 50, Type (0, 0), BuildingBlock: AJUNOK_clean_linker_0, # of connection points: 2
#     Edge 51, Type (0, 0), BuildingBlock: AJUNOK_clean_linker_0, # of connection points: 2
#     Edge 52, Type (0, 0), BuildingBlock: AJUNOK_clean_linker_0, # of connection points: 2
#     Edge 53, Type (0, 0), BuildingBlock: AJUNOK_clean_linker_0, # of connection points: 2
#     Edge 54, Type (0, 0), BuildingBlock: AJUNOK_clean_linker_0, # of connection points: 2
#     Edge 55, Type (0, 0), BuildingBlock: AJUNOK_clean_linker_0, # of connection points: 2
#     Edge 56, Type (0, 0), BuildingBlock: AJUNOK_clean_linker_0, # of connection points: 2
#     Edge 57, Type (0, 0), BuildingBlock: AJUNOK_clean_linker_0, # of connection points: 2
#     Edge 58, Type (0, 0), BuildingBlock: AJUNOK_clean_linker_0, # of connection points: 2
#     Edge 59, Type (0, 0), BuildingBlock: AJUNOK_clean_linker_0, # of connection points: 2
#     Edge 60, Type (0, 0), BuildingBlock: AJUNOK_clean_linker_0, # of connection points: 2
#     Edge 61, Type (0, 0), BuildingBlock: AJUNOK_clean_linker_0, # of connection points: 2
#     Edge 62, Type (0, 0), BuildingBlock: AJUNOK_clean_linker_0, # of connection points: 2
#     Edge 63, Type (0, 0), BuildingBlock: AJUNOK_clean_linker_0, # of connection points: 2
#     Edge 64, Type (0, 0), BuildingBlock: AJUNOK_clean_linker_0, # of connection points: 2
#     Edge 65, Type (0, 0), BuildingBlock: AJUNOK_clean_linker_0, # of connection points: 2
#     Edge 66, Type (0, 0), BuildingBlock: AJUNOK_clean_linker_0, # of connection points: 2
#     Edge 67, Type (0, 0), BuildingBlock: AJUNOK_clean_linker_0, # of connection points: 2
#     Edge 68, Type (0, 0), BuildingBlock: AJUNOK_clean_linker_0, # of connection points: 2
#     Edge 69, Type (0, 0), BuildingBlock: AJUNOK_clean_linker_0, # of connection points: 2
#     Edge 70, Type (0, 0), BuildingBlock: AJUNOK_clean_linker_0, # of connection points: 2
#     Edge 71, Type (0, 0), BuildingBlock: AJUNOK_clean_linker_0, # of connection points: 2
#     Edge 72, Type (0, 0), BuildingBlock: AJUNOK_clean_linker_0, # of connection points: 2
#     Edge 73, Type (0, 0), BuildingBlock: AJUNOK_clean_linker_0, # of connection points: 2
#     Edge 74, Type (0, 0), BuildingBlock: AJUNOK_clean_linker_0, # of connection points: 2
#     Edge 75, Type (0, 0), BuildingBlock: AJUNOK_clean_linker_0, # of connection points: 2
#     Edge 76, Type (0, 0), BuildingBlock: AJUNOK_clean_linker_0, # of connection points: 2
#     Edge 77, Type (0, 0), BuildingBlock: AJUNOK_clean_linker_0, # of connection points: 2
#     Edge 78, Type (0, 0), BuildingBlock: AJUNOK_clean_linker_0, # of connection points: 2
#     Edge 79, Type (0, 0), BuildingBlock: AJUNOK_clean_linker_0, # of connection points: 2
#     Edge 80, Type (0, 0), BuildingBlock: AJUNOK_clean_linker_0, # of connection points: 2
#     Edge 81, Type (0, 0), BuildingBlock: AJUNOK_clean_linker_0, # of connection points: 2
#     Edge 82, Type (0, 0), BuildingBlock: AJUNOK_clean_linker_0, # of connection points: 2
#     Edge 83, Type (0, 0), BuildingBlock: AJUNOK_clean_linker_0, # of connection points: 2
#     Edge 84, Type (0, 0), BuildingBlock: AJUNOK_clean_linker_0, # of connection points: 2
#     Edge 85, Type (0, 0), BuildingBlock: AJUNOK_clean_linker_0, # of connection points: 2
#     Edge 86, Type (0, 0), BuildingBlock: AJUNOK_clean_linker_0, # of connection points: 2
#     Edge 87, Type (0, 0), BuildingBlock: AJUNOK_clean_linker_0, # of connection points: 2
#     Edge 88, Type (0, 0), BuildingBlock: AJUNOK_clean_linker_0, # of connection points: 2
#     Edge 89, Type (0, 0), BuildingBlock: AJUNOK_clean_linker_0, # of connection points: 2
#     Edge 90, Type (0, 0), BuildingBlock: AJUNOK_clean_linker_0, # of connection points: 2
#     Edge 91, Type (0, 0), BuildingBlock: AJUNOK_clean_linker_0, # of connection points: 2
#     Edge 92, Type (0, 0), BuildingBlock: AJUNOK_clean_linker_0, # of connection points: 2
#     Edge 93, Type (0, 0), BuildingBlock: AJUNOK_clean_linker_0, # of connection points: 2
#     Edge 94, Type (0, 0), BuildingBlock: AJUNOK_clean_linker_0, # of connection points: 2
#     Edge 95, Type (0, 0), BuildingBlock: AJUNOK_clean_linker_0, # of connection points: 2
#     Edge 96, Type (0, 0), BuildingBlock: AJUNOK_clean_linker_0, # of connection points: 2
#     Edge 97, Type (0, 0), BuildingBlock: AJUNOK_clean_linker_0, # of connection points: 2
#     Edge 98, Type (0, 0), BuildingBlock: AJUNOK_clean_linker_0, # of connection points: 2
#     Edge 99, Type (0, 0), BuildingBlock: AJUNOK_clean_linker_0, # of connection points: 2
#     Edge 100, Type (0, 0), BuildingBlock: AJUNOK_clean_linker_0, # of connection points: 2
#     Edge 101, Type (0, 0), BuildingBlock: AJUNOK_clean_linker_0, # of connection points: 2
#     Edge 102, Type (0, 0), BuildingBlock: AJUNOK_clean_linker_0, # of connection points: 2
#     Edge 103, Type (0, 0), BuildingBlock: AJUNOK_clean_linker_0, # of connection points: 2
#     Edge 104, Type (0, 0), BuildingBlock: AJUNOK_clean_linker_0, # of connection points: 2
#     Edge 105, Type (0, 0), BuildingBlock: AJUNOK_clean_linker_0, # of connection points: 2
#     Edge 106, Type (0, 0), BuildingBlock: AJUNOK_clean_linker_0, # of connection points: 2
#     Edge 107, Type (0, 0), BuildingBlock: AJUNOK_clean_linker_0, # of connection points: 2
# Relax obj value: 0.157
# Max RMSD: 0.150
# Mean RMSD: 0.150
data_MOF--net-cha--node1-NAHDIM_clean_sbu_0--edge1-AJUNOK_clean_linker_0
_symmetry_space_group_name_H-M    P1
_symmetry_Int_Tables_number       1
_symmetry_cell_setting            triclinic
loop_
_symmetry_equiv_pos_as_xyz
'x, y, z'
_cell_length_a     46.082299
_cell_length_b     46.078488
_cell_length_c     57.391669
_cell_angle_alpha  89.920883
_cell_angle_beta   90.006351
_cell_angle_gamma 120.06538
loop_
_atom_site_label
_atom_site_type_symbol
_atom_site_fract_x
_atom_site_fract_y
_atom_site_fract_z
_atom_type_partial_charge
C0 C 0.02064 0.30054 0.13274 0.0
O1 O 0.03588 0.28526 0.1413 0.0
O2 O 0.06111 0.26519 0.09845 0.0
Zn3 Zn 0.01748 0.26347 0.09162 0.0
O4 O 0.97889 0.21702 0.097 0.0
C5 C 0.04095 0.28475 0.04446 0.0
O6 O 0.06999 0.29168 0.05333 0.0
O7 O 0.01132 0.29557 0.11159 0.0
C8 C 0.97628 0.19346 0.08407 0.0
O9 O -0.00025 0.20026 0.0685 0.0
C10 C 0.06356 0.24451 0.11181 0.0
O11 O 0.03666 0.22144 0.12254 0.0
O12 O 0.0156 0.27373 0.0578 0.0
C13 C 0.74996 0.75465 0.13545 0.0
O14 O 0.76746 0.7842 0.14527 0.0
O15 O 0.78302 0.83128 0.09811 0.0
Zn16 Zn 0.78768 0.79034 0.09478 0.0
O17 O 0.83391 0.80096 0.1041 0.0
C18 C 0.76609 0.78193 0.04633 0.0
O19 O 0.74925 0.79657 0.05297 0.0
O20 O 0.75388 0.75175 0.11385 0.0
C21 C 0.85842 0.82403 0.0929 0.0
O22 O 0.85225 0.84063 0.0769 0.0
C23 C 0.80033 0.85389 0.11294 0.0
O24 O 0.82054 0.84959 0.12681 0.0
O25 O 0.78313 0.77656 0.06129 0.0
C26 C 0.29853 0.02931 0.13534 0.0
O27 O 0.26787 0.01499 0.14364 0.0
O28 O 0.22408 0.98893 0.09857 0.0
Zn29 Zn 0.26609 0.0333 0.09351 0.0
O30 O 0.25742 0.07104 0.10011 0.0
C31 C 0.27476 0.01347 0.04712 0.0
O32 O 0.26075 0.98331 0.05631 0.0
O33 O 0.30349 0.03832 0.1141 0.0
C34 C 0.23689 0.0745 0.08729 0.0
O35 O 0.22105 0.05242 0.07076 0.0
C36 C 0.20166 0.98578 0.11291 0.0
O37 O 0.20642 0.01206 0.12492 0.0
O38 O 0.27999 0.03805 0.05995 0.0
C39 C 0.29696 0.02098 0.85708 0.0
O40 O 0.27739 0.03183 0.84913 0.0
O41 O 0.2674 0.06408 0.89592 0.0
Zn42 Zn 0.26389 0.01901 0.89977 0.0
O43 O 0.21715 0.98196 0.89272 0.0
C44 C 0.28856 0.0368 0.94713 0.0
O45 O 0.30182 0.06765 0.93925 0.0
O46 O 0.29612 0.0145 0.87868 0.0
C47 C 0.19337 0.97816 0.90592 0.0
O48 O 0.20003 -0.0003 0.92291 0.0
C49 C 0.24804 0.06879 0.88269 0.0
O50 O 0.22514 0.04346 0.87059 0.0
O51 O 0.27251 0.01257 0.93316 0.0
C52 C 0.02647 0.30024 0.85749 0.0
O53 O 0.01287 0.27095 0.84709 0.0
O54 O 0.98118 0.22279 0.89358 0.0
Zn55 Zn 0.02766 0.26221 0.897 0.0
O56 O 0.06196 0.25011 0.88713 0.0
C57 C 0.01636 0.27569 0.94464 0.0
O58 O 0.9869 0.26918 0.93681 0.0
O59 O 0.03409 0.30212 0.8789 0.0
C60 C 0.06265 0.22646 0.89806 0.0
O61 O 0.0396 0.20991 0.91392 0.0
C62 C 0.97429 0.20007 0.87852 0.0
O63 O -0.00205 0.20317 0.86423 0.0
O64 O 0.03703 0.27447 0.93065 0.0
C65 C 0.7474 0.74884 0.85903 0.0
O66 O 0.77709 0.76596 0.84926 0.0
O67 O 0.82505 0.78356 0.8937 0.0
Zn68 Zn 0.78356 0.78663 0.89923 0.0
O69 O 0.79225 0.83255 0.89093 0.0
C70 C 0.78131 0.76585 0.94732 0.0
O71 O 0.79877 0.75257 0.93936 0.0
O72 O 0.74444 0.7529 0.88058 0.0
C73 C 0.81409 0.85746 0.90245 0.0
O74 O 0.83117 0.85231 0.91866 0.0
C75 C 0.84742 0.80233 0.87912 0.0
O76 O 0.84272 0.8235 0.86661 0.0
O77 O 0.77169 0.78053 0.93319 0.0
C78 C 0.02052 0.75097 0.8582 0.0
O79 O 0.01047 0.77093 0.84968 0.0
O80 O 0.97661 0.78225 0.89313 0.0
Zn81 Zn 0.02018 0.78383 0.90008 0.0
O82 O 0.05953 0.82979 0.89408 0.0
C83 C 0.00296 0.77646 0.94859 0.0
O84 O 0.98175 0.7855 0.94106 0.0
O85 O 0.02546 0.75131 0.88 0.0
C86 C 0.06418 0.85488 0.9061 0.0
O87 O 0.04192 0.85074 0.92201 0.0
C88 C 0.97419 0.80322 0.88007 0.0
O89 O 0.00119 0.82679 0.86972 0.0
O90 O 0.0218 0.77319 0.93394 0.0
C91 C 0.29456 0.29622 0.85899 0.0
O92 O 0.27665 0.26706 0.8487 0.0
O93 O 0.26443 0.21824 0.89545 0.0
Zn94 Zn 0.25748 0.25784 0.89853 0.0
O95 O 0.21163 0.24616 0.88751 0.0
C96 C 0.27911 0.27288 0.94753 0.0
O97 O 0.30497 0.26986 0.9415 0.0
O98 O 0.2915 0.29811 0.88083 0.0
C99 C 0.18672 0.22352 0.89866 0.0
O100 O 0.19226 0.20724 0.91526 0.0
C101 C 0.24818 0.19524 0.88063 0.0
O102 O 0.22742 0.19818 0.86644 0.0
O103 O 0.25777 0.26929 0.93218 0.0
C104 C 0.75039 0.02875 0.85664 0.0
O105 O 0.78116 0.04495 0.84852 0.0
O106 O 0.82424 0.06848 0.89417 0.0
Zn107 Zn 0.78327 0.02296 0.89742 0.0
O108 O 0.79351 0.98688 0.889 0.0
C109 C 0.76915 0.03685 0.94402 0.0
O110 O 0.77873 0.06682 0.93555 0.0
O111 O 0.74555 0.01807 0.87748 0.0
C112 C 0.8145 0.9835 0.90134 0.0
O113 O 0.83022 0.00516 0.91813 0.0
C114 C 0.84753 0.07398 0.8799 0.0
O115 O 0.84429 0.04939 0.86655 0.0
O116 O 0.76866 0.01466 0.9307 0.0
C117 C 0.74591 0.02338 0.13304 0.0
O118 O 0.76578 0.01329 0.14166 0.0
O119 O 0.77859 0.98181 0.09525 0.0
Zn120 Zn 0.77995 0.02578 0.09062 0.0
O121 O 0.82625 0.06412 0.09684 0.0
C122 C 0.7559 0.00733 0.04305 0.0
O123 O 0.74539 0.97653 0.05018 0.0
O124 O 0.74723 0.02963 0.1114 0.0
C125 C 0.84974 0.06731 0.08355 0.0
O126 O 0.84279 0.04465 0.06734 0.0
C127 C 0.79864 0.97936 0.10925 0.0
O128 O 0.82015 0.00598 0.12099 0.0
O129 O 0.77021 0.03127 0.05745 0.0
C130 C 0.02472 0.75742 0.13451 0.0
O131 O 0.0359 0.78616 0.14536 0.0
O132 O 0.07035 0.83719 0.10055 0.0
Zn133 Zn 0.02475 0.79672 0.09593 0.0
O134 O 0.98874 0.8062 0.10619 0.0
C135 C 0.02968 0.77671 0.04767 0.0
O136 O 0.05309 0.77062 0.05508 0.0
O137 O 0.01914 0.75614 0.11277 0.0
C138 C 0.98641 0.82869 0.0949 0.0
O139 O 0.00914 0.8459 0.07899 0.0
C140 C 0.0754 0.8592 0.11581 0.0
O141 O 0.05054 0.85446 0.12948 0.0
O142 O 0.01606 0.78731 0.06191 0.0
C143 C 0.28937 0.29628 0.13764 0.0
O144 O 0.26059 0.27166 0.14518 0.0
O145 O 0.21467 0.26848 0.1006 0.0
Zn146 Zn 0.25765 0.26838 0.09462 0.0
O147 O 0.25145 0.22262 0.10037 0.0
C148 C 0.25091 0.27813 0.04576 0.0
O149 O 0.22076 0.2709 0.05243 0.0
O150 O 0.29399 0.30079 0.11581 0.0
C151 C 0.23181 0.19805 0.08761 0.0
O152 O 0.21463 0.20283 0.07129 0.0
C153 C 0.19093 0.2466 0.11303 0.0
O154 O 0.19466 0.22316 0.12325 0.0
O155 O 0.2716 0.27964 0.06103 0.0
C156 C 0.69025 0.63337 0.46334 0.0
O157 O 0.70077 0.61432 0.4728 0.0
O158 O 0.7323 0.59852 0.42908 0.0
Zn159 Zn 0.68862 0.59699 0.42253 0.0
O160 O 0.6496 0.55138 0.42986 0.0
C161 C 0.70399 0.60167 0.3737 0.0
O162 O 0.72541 0.59286 0.38118 0.0
O163 O 0.68419 0.6309 0.44163 0.0
C164 C 0.64637 0.52545 0.41971 0.0
O165 O 0.66961 0.5288 0.40491 0.0
C166 C 0.73494 0.57834 0.44285 0.0
O167 O 0.70839 0.55634 0.45447 0.0
O168 O 0.68571 0.60565 0.38844 0.0
C169 C 0.4111 0.07998 0.46742 0.0
O170 O 0.4285 0.10855 0.47851 0.0
O171 O 0.44472 0.16097 0.43882 0.0
Zn172 Zn 0.44872 0.12121 0.42917 0.0
O173 O 0.49467 0.12854 0.43651 0.0
C174 C 0.45312 0.14164 0.38181 0.0
O175 O 0.46334 0.17064 0.39203 0.0
O176 O 0.4148 0.07937 0.44554 0.0
C177 C 0.52118 0.15402 0.42906 0.0
O178 O 0.51862 0.17713 0.41734 0.0
C179 C 0.46319 0.1824 0.45396 0.0
O180 O 0.48521 0.17777 0.46542 0.0
O181 O 0.44329 0.11554 0.39428 0.0
C182 C 0.96412 0.35735 0.46879 0.0
O183 O 0.93459 0.34814 0.4779 0.0
O184 O 0.88932 0.31359 0.43044 0.0
Zn185 Zn 0.93123 0.35834 0.42644 0.0
O186 O 0.92206 0.39562 0.43347 0.0
C187 C 0.93512 0.34179 0.37809 0.0
O188 O 0.91336 0.3111 0.38469 0.0
O189 O 0.96821 0.36254 0.447 0.0
C190 C 0.90212 0.39919 0.42006 0.0
O191 O 0.88719 0.37731 0.40326 0.0
C192 C 0.86567 0.30922 0.444 0.0
O193 O 0.86893 0.33463 0.4564 0.0
O194 O 0.94651 0.36512 0.3931 0.0
C195 C 0.96347 0.36108 0.19169 0.0
O196 O 0.94749 0.37493 0.18206 0.0
O197 O 0.92959 0.40436 0.22676 0.0
Zn198 Zn 0.92534 0.35916 0.2319 0.0
O199 O 0.87912 0.3225 0.22353 0.0
C200 C 0.95272 0.37358 0.27921 0.0
O201 O 0.97488 0.40304 0.27084 0.0
O202 O 0.95863 0.35321 0.21312 0.0
C203 C 0.85429 0.32052 0.23457 0.0
O204 O 0.85975 0.34377 0.24999 0.0
C205 C 0.91204 0.40829 0.21133 0.0
O206 O 0.89158 0.38252 0.19847 0.0
O207 O 0.93061 0.35212 0.26569 0.0
C208 C 0.68497 0.63143 0.18886 0.0
O209 O 0.66894 0.60263 0.17786 0.0
O210 O 0.64026 0.55079 0.22 0.0
Zn211 Zn 0.68654 0.58971 0.22542 0.0
O212 O 0.72161 0.57929 0.21447 0.0
C213 C 0.67727 0.6019 0.27455 0.0
O214 O 0.65039 0.60251 0.26766 0.0
O215 O 0.694 0.63177 0.2098 0.0
C216 C 0.72338 0.5559 0.22492 0.0
O217 O 0.70034 0.53796 0.24047 0.0
C218 C 0.63383 0.52971 0.20375 0.0
O219 O 0.658 0.53408 0.18951 0.0
O220 O 0.6949 0.59738 0.25962 0.0
C221 C 0.41553 0.08387 0.19513 0.0
O222 O 0.44526 0.10004 0.18536 0.0
O223 O 0.49357 0.11661 0.22813 0.0
Zn224 Zn 0.45343 0.1218 0.23451 0.0
O225 O 0.46186 0.16782 0.22566 0.0
C226 C 0.46937 0.1331 0.28221 0.0
O227 O 0.49936 0.14951 0.27284 0.0
O228 O 0.41291 0.08813 0.21672 0.0
C229 C 0.48941 0.19514 0.22823 0.0
O230 O 0.51564 0.19426 0.23622 0.0
C231 C 0.51499 0.13148 0.21207 0.0
O232 O 0.51095 0.15129 0.1976 0.0
O233 O 0.44413 0.11676 0.26905 0.0
C234 C 0.68477 0.07733 0.1941 0.0
O235 O 0.66167 0.08419 0.18727 0.0
O236 O 0.64769 0.11622 0.22797 0.0
Zn237 Zn 0.69348 0.12198 0.23237 0.0
O238 O 0.72887 0.16879 0.22412 0.0
C239 C 0.67699 0.09929 0.28025 0.0
O240 O 0.64591 0.08427 0.27267 0.0
O241 O 0.70042 0.08994 0.21297 0.0
C242 C 0.72969 0.19324 0.23492 0.0
O243 O 0.70605 0.18703 0.25021 0.0
C244 C 0.64153 0.13222 0.21257 0.0
O245 O 0.66574 0.15269 0.19854 0.0
O246 O 0.70071 0.11586 0.26599 0.0
C247 C 0.96379 0.63453 0.18849 0.0
O248 O 0.95016 0.60482 0.17871 0.0
O249 O 0.92857 0.55657 0.22336 0.0
Zn250 Zn 0.92288 0.59676 0.22767 0.0
O251 O 0.8766 0.58574 0.21805 0.0
C252 C 0.94727 0.60659 0.27529 0.0
O253 O 0.96839 0.598 0.26685 0.0
O254 O 0.95652 0.63675 0.20952 0.0
C255 C 0.8516 0.56122 0.22786 0.0
O256 O 0.85709 0.54311 0.24302 0.0
C257 C 0.91232 0.53471 0.20784 0.0
O258 O 0.89262 0.53941 0.19372 0.0
O259 O 0.9265 0.60824 0.2616 0.0
C260 C 0.4059 0.36219 0.1975 0.0
O261 O 0.43346 0.38892 0.19047 0.0
O262 O 0.48839 0.39957 0.22444 0.0
Zn263 Zn 0.44861 0.35462 0.23213 0.0
O264 O 0.45788 0.31712 0.22484 0.0
C265 C 0.46212 0.35267 0.27975 0.0
O266 O 0.48918 0.3552 0.27021 0.0
O267 O 0.40709 0.34539 0.21466 0.0
C268 C 0.48667 0.31974 0.22364 0.0
O269 O 0.51356 0.34934 0.22618 0.0
C270 C 0.50501 0.40611 0.2056 0.0
O271 O 0.49519 0.38288 0.18946 0.0
O272 O 0.4399 0.35267 0.26664 0.0
C273 C 0.41421 0.35883 0.46667 0.0
O274 O 0.43189 0.34716 0.47675 0.0
O275 O 0.44662 0.31245 0.43758 0.0
Zn276 Zn 0.44996 0.35578 0.42744 0.0
O277 O 0.49599 0.39521 0.4333 0.0
C278 C 0.44982 0.33662 0.38027 0.0
O279 O 0.46102 0.31856 0.39039 0.0
O280 O 0.41694 0.36375 0.44481 0.0
C281 C 0.52217 0.39734 0.42428 0.0
O282 O 0.51937 0.37217 0.41183 0.0
C283 C 0.46615 0.30985 0.45197 0.0
O284 O 0.48982 0.33697 0.46209 0.0
O285 O 0.44184 0.35423 0.39284 0.0
C286 C 0.68819 0.08422 0.46687 0.0
O287 O 0.70137 0.11408 0.47639 0.0
O288 O 0.73125 0.16076 0.43109 0.0
Zn289 Zn 0.6857 0.1201 0.42691 0.0
O290 O 0.64919 0.12928 0.43633 0.0
C291 C 0.70262 0.11208 0.37994 0.0
O292 O 0.7326 0.12357 0.38897 0.0
O293 O 0.68056 0.08103 0.44541 0.0
C294 C 0.6458 0.15158 0.4257 0.0
O295 O 0.66782 0.16967 0.40961 0.0
C296 C 0.73739 0.18448 0.44509 0.0
O297 O 0.71308 0.18234 0.45826 0.0
O298 O 0.67869 0.10793 0.3931 0.0
C299 C 0.95719 0.62731 0.46518 0.0
O300 O 0.92699 0.60715 0.47337 0.0
O301 O 0.88305 0.59557 0.42783 0.0
Zn302 Zn 0.92552 0.59407 0.42292 0.0
O303 O 0.91816 0.54829 0.43023 0.0
C304 C 0.92774 0.61464 0.37471 0.0
O305 O 0.90535 0.62243 0.38171 0.0
O306 O 0.96239 0.627 0.44348 0.0
C307 C 0.899 0.52367 0.41735 0.0
O308 O 0.88324 0.52865 0.40009 0.0
C309 C 0.85971 0.57519 0.44122 0.0
O310 O 0.86351 0.55255 0.45257 0.0
O311 O 0.94002 0.60316 0.38942 0.0
C312 C 0.36215 0.97092 0.79594 0.0
O313 O 0.38066 0.95957 0.80509 0.0
O314 O 0.40436 0.9349 0.76277 0.0
Zn315 Zn 0.35899 0.92978 0.7569 0.0
O316 O 0.32144 0.8833 0.76492 0.0
C317 C 0.36041 0.91706 0.70926 0.0
O318 O 0.37015 0.89733 0.71858 0.0
O319 O 0.35146 0.96261 0.77523 0.0
C320 C 0.32222 0.85615 0.76348 0.0
O321 O 0.35033 0.8573 0.75768 0.0
C322 C 0.41154 0.92119 0.77928 0.0
O323 O 0.38841 0.90292 0.79469 0.0
O324 O 0.35479 0.93579 0.72249 0.0
C325 C 0.08462 0.42174 0.80201 0.0
O326 O 0.10172 0.45139 0.81174 0.0
O327 O 0.11634 0.49967 0.76834 0.0
Zn328 Zn 0.12039 0.45899 0.76156 0.0
O329 O 0.167 0.46735 0.76823 0.0
C330 C 0.12535 0.47296 0.71329 0.0
O331 O 0.13926 0.50361 0.72152 0.0
O332 O 0.08774 0.4191 0.78026 0.0
C333 C 0.19344 0.49369 0.76166 0.0
O334 O 0.19079 0.51803 0.7519 0.0
C335 C 0.13367 0.52156 0.78358 0.0
O336 O 0.15464 0.51716 0.79656 0.0
O337 O 0.1128 0.44836 0.72735 0.0
C338 C 0.62924 0.68943 0.80035 0.0
O339 O 0.59878 0.67462 0.80904 0.0
O340 O 0.55458 0.64708 0.76228 0.0
Zn341 Zn 0.59556 0.69282 0.75896 0.0
O342 O 0.58488 0.72878 0.76699 0.0
C343 C 0.60488 0.67896 0.71078 0.0
O344 O 0.58868 0.64737 0.71733 0.0
O345 O 0.63347 0.69832 0.77909 0.0
C346 C 0.56355 0.73142 0.7545 0.0
O347 O 0.54791 0.70915 0.73805 0.0
C348 C 0.5312 0.64162 0.77646 0.0
O349 O 0.53436 0.66629 0.78969 0.0
O350 O 0.61075 0.70155 0.72569 0.0
C351 C 0.63662 0.69662 0.52301 0.0
O352 O 0.62211 0.71257 0.51439 0.0
O353 O 0.60151 0.7377 0.55895 0.0
Zn354 Zn 0.59899 0.69325 0.56414 0.0
O355 O 0.55261 0.65589 0.55705 0.0
C356 C 0.62194 0.71149 0.612 0.0
O357 O 0.63513 0.74242 0.60432 0.0
O358 O 0.63131 0.68729 0.54418 0.0
C359 C 0.52839 0.65285 0.56942 0.0
O360 O 0.53447 0.6752 0.58572 0.0
C361 C 0.5825 0.74057 0.54421 0.0
O362 O 0.56198 0.71433 0.53174 0.0
O363 O 0.60667 0.68743 0.59778 0.0
C364 C 0.34918 0.95697 0.52148 0.0
O365 O 0.33894 0.92787 0.51139 0.0
O366 O 0.30232 0.87822 0.55415 0.0
Zn367 Zn 0.34659 0.91909 0.56162 0.0
O368 O 0.38536 0.91198 0.55429 0.0
C369 C 0.33371 0.90358 0.60987 0.0
O370 O 0.31602 0.87329 0.60116 0.0
O371 O 0.35315 0.95908 0.54344 0.0
C372 C 0.38748 0.88731 0.56216 0.0
O373 O 0.36261 0.86434 0.57457 0.0
C374 C 0.29843 0.85567 0.53972 0.0
O375 O 0.32437 0.85952 0.52769 0.0
O376 O 0.34861 0.92837 0.59607 0.0
C377 C 0.08108 0.40958 0.52829 0.0
O378 O 0.11108 0.42569 0.51888 0.0
O379 O 0.15967 0.44574 0.55882 0.0
Zn380 Zn 0.11842 0.44783 0.56737 0.0
O381 O 0.12444 0.49322 0.5599 0.0
C382 C 0.1369 0.45206 0.61498 0.0
O383 O 0.16622 0.46218 0.60524 0.0
O384 O 0.07797 0.41387 0.5498 0.0
C385 C 0.1481 0.52002 0.56857 0.0
O386 O 0.17044 0.51831 0.58181 0.0
C387 C 0.18181 0.4658 0.54459 0.0
O388 O 0.17682 0.48782 0.53344 0.0
O389 O 0.11119 0.44201 0.6021 0.0
C390 C 0.35726 0.42041 0.52483 0.0
O391 O 0.34393 0.4373 0.5159 0.0
O392 O 0.31517 0.4537 0.56022 0.0
Zn393 Zn 0.3598 0.45712 0.56575 0.0
O394 O 0.39725 0.50321 0.55807 0.0
C395 C 0.34035 0.43204 0.61298 0.0
O396 O 0.30989 0.41676 0.60429 0.0
O397 O 0.36516 0.42417 0.54626 0.0
C398 C 0.40127 0.52789 0.5703 0.0
O399 O 0.37961 0.52263 0.58696 0.0
C400 C 0.31127 0.47254 0.54591 0.0
O401 O 0.33723 0.49487 0.53396 0.0
O402 O 0.36495 0.44961 0.59957 0.0
C403 C 0.62723 0.96368 0.52316 0.0
O404 O 0.61084 0.93426 0.51299 0.0
O405 O 0.59308 0.88603 0.5582 0.0
Zn406 Zn 0.58798 0.92651 0.5628 0.0
O407 O 0.54196 0.91686 0.55364 0.0
C408 C 0.61514 0.93758 0.60941 0.0
O409 O 0.63595 0.92921 0.60009 0.0
O410 O 0.62198 0.96602 0.5446 0.0
C411 C 0.5166 0.89381 0.56415 0.0
O412 O 0.52125 0.87569 0.5798 0.0
C413 C 0.5762 0.86368 0.54312 0.0
O414 O 0.55531 0.86753 0.52966 0.0
O415 O 0.59313 0.93844 0.59661 0.0
C416 C 0.07306 0.68656 0.52587 0.0
O417 O 0.10319 0.70375 0.51678 0.0
O418 O 0.15083 0.72603 0.55829 0.0
Zn419 Zn 0.10947 0.68179 0.56511 0.0
O420 O 0.11774 0.64408 0.55768 0.0
C421 C 0.10845 0.70336 0.61242 0.0
O422 O 0.12484 0.73349 0.60321 0.0
O423 O 0.06994 0.67557 0.54656 0.0
C424 C 0.14084 0.64225 0.56845 0.0
O425 O 0.15942 0.66599 0.58338 0.0
C426 C 0.17216 0.72923 0.54296 0.0
O427 O 0.16659 0.70299 0.53057 0.0
O428 O 0.09884 0.67803 0.59927 0.0
C429 C 0.07806 0.6912 0.799 0.0
O430 O 0.08944 0.67273 0.80819 0.0
O431 O 0.11712 0.65223 0.76593 0.0
Zn432 Zn 0.12134 0.69734 0.76045 0.0
O433 O 0.16737 0.73394 0.76925 0.0
C434 C 0.09794 0.68034 0.71259 0.0
O435 O 0.08051 0.64959 0.72068 0.0
O436 O 0.08767 0.70331 0.77873 0.0
C437 C 0.19288 0.73385 0.76095 0.0
O438 O 0.18837 0.70886 0.74752 0.0
C439 C 0.13314 0.64759 0.78217 0.0
O440 O 0.15197 0.67261 0.79613 0.0
O441 O 0.11626 0.70389 0.72648 0.0
C442 C 0.35316 0.4163 0.80182 0.0
O443 O 0.36651 0.44638 0.81098 0.0
O444 O 0.39801 0.49169 0.764 0.0
Zn445 Zn 0.35191 0.45129 0.76057 0.0
O446 O 0.3166 0.46277 0.76912 0.0
C447 C 0.367 0.44375 0.7126 0.0
O448 O 0.39819 0.45921 0.71995 0.0
O449 O 0.34582 0.41269 0.78029 0.0
C450 C 0.31505 0.48543 0.75748 0.0
O451 O 0.33765 0.5015 0.74125 0.0
C452 C 0.40426 0.51542 0.77804 0.0
O453 O 0.38011 0.51303 0.79151 0.0
O454 O 0.34366 0.43728 0.72703 0.0
C455 C 0.63403 0.96946 0.79666 0.0
O456 O 0.60375 0.95555 0.80561 0.0
O457 O 0.55856 0.93448 0.76165 0.0
Zn458 Zn 0.59882 0.92921 0.75691 0.0
O459 O 0.58816 0.88258 0.7651 0.0
C460 C 0.60375 0.95152 0.70906 0.0
O461 O 0.58684 0.96553 0.71679 0.0
O462 O 0.63772 0.96217 0.77596 0.0
C463 C 0.56549 0.85831 0.75352 0.0
O464 O 0.54883 0.86472 0.73772 0.0
C465 C 0.53579 0.91749 0.77648 0.0
O466 O 0.53873 0.89578 0.78968 0.0
O467 O 0.61186 0.9356 0.72321 0.0
C468 C 0.12412 0.26987 0.10147 0.0
C469 C 0.09613 0.24548 0.1139 0.0
C470 C 0.15471 0.27038 0.10177 0.0
C471 C 0.15873 0.2465 0.11449 0.0
H472 H 0.12237 0.28855 0.09104 0.0
H473 H 0.17518 0.28941 0.09154 0.0
S474 S 0.09384 0.17836 0.15115 0.0
N475 N 0.07484 0.19758 0.14018 0.0
N476 N 0.13241 0.19854 0.14073 0.0
C477 C 0.13125 0.22246 0.12754 0.0
C478 C 0.09998 0.22195 0.12725 0.0
C479 C 0.77802 0.92024 0.09674 0.0
C480 C 0.79851 0.94722 0.11149 0.0
C481 C 0.77838 0.89006 0.09766 0.0
C482 C 0.79919 0.88551 0.11341 0.0
H483 H 0.76186 0.92251 0.08405 0.0
H484 H 0.76246 0.87032 0.08565 0.0
S485 S 0.85641 0.94773 0.15676 0.0
N486 N 0.83931 0.96694 0.14303 0.0
N487 N 0.83997 0.91024 0.14478 0.0
C488 C 0.81927 0.912 0.12866 0.0
C489 C 0.81895 0.94282 0.1277 0.0
C490 C 0.13352 0.89625 0.10076 0.0
C491 C 0.10811 0.89089 0.11673 0.0
C492 C 0.16381 0.92672 0.1 0.0
C493 C 0.17004 0.95321 0.11516 0.0
H494 H 0.12986 0.87698 0.08838 0.0
H495 H 0.18223 0.92964 0.08709 0.0
S496 S 0.1127 0.95136 0.16138 0.0
N497 N 0.09192 0.91419 0.14891 0.0
N498 N 0.14887 0.97146 0.14748 0.0
C499 C 0.14527 0.94792 0.13169 0.0
C500 C 0.11435 0.9168 0.13248 0.0
C501 C 0.22837 0.10661 0.86695 0.0
C502 C 0.25021 0.10201 0.88162 0.0
C503 C 0.22852 0.13706 0.86638 0.0
C504 C 0.25046 0.16423 0.8805 0.0
H505 H 0.21058 0.08638 0.85598 0.0
H506 H 0.21076 0.13898 0.85504 0.0
S507 S 0.31412 0.166 0.9211 0.0
N508 N 0.29551 0.12788 0.90996 0.0
N509 N 0.29573 0.18505 0.9089 0.0
C510 C 0.27307 0.16034 0.89485 0.0
C511 C 0.27297 0.12929 0.8954 0.0
C512 C 0.93496 0.14276 0.86318 0.0
C513 C 0.94085 0.16923 0.87824 0.0
C514 C 0.90452 0.11239 0.86357 0.0
C515 C 0.87863 0.10719 0.87902 0.0
H516 H 0.95422 0.14515 0.85121 0.0
H517 H 0.90156 0.09268 0.85186 0.0
S518 S 0.88049 0.16927 0.92116 0.0
N519 N 0.91756 0.18878 0.90839 0.0
N520 N 0.86038 0.13175 0.90913 0.0
C521 C 0.88378 0.13378 0.89376 0.0
C522 C 0.91485 0.16476 0.89337 0.0
C523 C 0.88406 0.77973 0.89197 0.0
C524 C 0.87927 0.80173 0.8776 0.0
C525 C 0.91452 0.77994 0.89219 0.0
C526 C 0.9416 0.80222 0.87808 0.0
H527 H 0.86433 0.76246 0.90353 0.0
H528 H 0.91695 0.76286 0.90394 0.0
S529 S 0.94145 0.86353 0.83607 0.0
N530 N 0.90377 0.8454 0.84796 0.0
N531 N 0.96107 0.84581 0.84841 0.0
C532 C 0.93692 0.82376 0.8631 0.0
C533 C 0.90577 0.8235 0.86285 0.0
C534 C 0.79429 0.6006 0.43025 0.0
C535 C 0.76701 0.57814 0.44414 0.0
C536 C 0.82419 0.59974 0.42977 0.0
C537 C 0.8282 0.57638 0.44315 0.0
H538 H 0.79247 0.61877 0.41928 0.0
H539 H 0.84414 0.61732 0.41848 0.0
S540 S 0.76507 0.5131 0.48348 0.0
N541 N 0.74643 0.5326 0.47239 0.0
N542 N 0.80268 0.53098 0.47149 0.0
C543 C 0.80145 0.55425 0.45759 0.0
C544 C 0.77089 0.55514 0.45809 0.0
C545 C 0.43955 0.2489 0.44281 0.0
C546 C 0.46392 0.27684 0.45524 0.0
C547 C 0.43877 0.21821 0.44334 0.0
C548 C 0.4623 0.214 0.45633 0.0
H549 H 0.42136 0.25086 0.43197 0.0
H550 H 0.42004 0.1979 0.43288 0.0
S551 S 0.52922 0.27826 0.49393 0.0
N552 N 0.51065 0.29759 0.48242 0.0
N553 N 0.50919 0.23975 0.48343 0.0
C554 C 0.48581 0.24119 0.46981 0.0
C555 C 0.48662 0.27262 0.46925 0.0
C556 C 0.8074 0.2726 0.45907 0.0
C557 C 0.83403 0.27643 0.4449 0.0
C558 C 0.77657 0.2426 0.45936 0.0
C559 C 0.77102 0.21513 0.44548 0.0
H560 H 0.8101 0.29311 0.46982 0.0
H561 H 0.75677 0.24123 0.4703 0.0
S562 S 0.83317 0.21142 0.40616 0.0
N563 N 0.85322 0.24953 0.41728 0.0
N564 N 0.79536 0.19324 0.41782 0.0
C565 C 0.7977 0.21828 0.43164 0.0
C566 C 0.82915 0.24886 0.43135 0.0
C567 C 0.93237 0.46701 0.22473 0.0
C568 C 0.91333 0.44098 0.20891 0.0
C569 C 0.9325 0.49743 0.22384 0.0
C570 C 0.91362 0.50319 0.20709 0.0
H571 H 0.94687 0.46372 0.23826 0.0
H572 H 0.94709 0.51632 0.23675 0.0
S573 S 0.86138 0.4441 0.16052 0.0
N574 N 0.87644 0.42368 0.17513 0.0
N575 N 0.8767 0.48084 0.17347 0.0
C576 C 0.89527 0.47779 0.19068 0.0
C577 C 0.89511 0.44672 0.19159 0.0
C578 C 0.5762 0.49329 0.21966 0.0
C579 C 0.60015 0.49928 0.20231 0.0
C580 C 0.54522 0.46358 0.22008 0.0
C581 C 0.53671 0.43855 0.20314 0.0
H582 H 0.58162 0.51133 0.23345 0.0
H583 H 0.52808 0.46003 0.23416 0.0
S584 S 0.58943 0.44287 0.15282 0.0
N585 N 0.61244 0.47844 0.16687 0.0
N586 N 0.5541 0.42253 0.16767 0.0
C587 C 0.55985 0.44469 0.18512 0.0
C588 C 0.59157 0.47503 0.18472 0.0
C589 C 0.57252 0.15071 0.19651 0.0
C590 C 0.54582 0.12898 0.21109 0.0
C591 C 0.60303 0.15095 0.19669 0.0
C592 C 0.6081 0.12946 0.21143 0.0
H593 H 0.57025 0.16836 0.18526 0.0
H594 H 0.62304 0.16874 0.18553 0.0
S595 S 0.54503 0.06545 0.25143 0.0
N596 N 0.52567 0.08373 0.23956 0.0
N597 N 0.58292 0.08417 0.23988 0.0
C598 C 0.58116 0.10668 0.22547 0.0
C599 C 0.55008 0.10645 0.2253 0.0
C600 C 0.44954 0.90125 0.79421 0.0
C601 C 0.44455 0.92295 0.77965 0.0
C602 C 0.47938 0.90019 0.7934 0.0
C603 C 0.50549 0.92087 0.77805 0.0
H604 H 0.42992 0.88422 0.80593 0.0
H605 H 0.48162 0.88249 0.80462 0.0
S606 S 0.5062 0.98437 0.73769 0.0
N607 N 0.46915 0.96722 0.75045 0.0
N608 N 0.52516 0.96529 0.74894 0.0
C609 C 0.50133 0.9436 0.76399 0.0
C610 C 0.4709 0.94463 0.76479 0.0
C611 C 0.11285 0.55881 0.76873 0.0
C612 C 0.1322 0.55294 0.78501 0.0
C613 C 0.11278 0.58912 0.76834 0.0
C614 C 0.13203 0.61495 0.78423 0.0
H615 H 0.09806 0.54011 0.75576 0.0
H616 H 0.09791 0.59246 0.75513 0.0
S617 S 0.18529 0.61148 0.83153 0.0
N618 N 0.16984 0.57493 0.81828 0.0
N619 N 0.16972 0.63196 0.81758 0.0
C620 C 0.15071 0.60908 0.80112 0.0
C621 C 0.1508 0.57811 0.8015 0.0
C622 C 0.44344 0.57311 0.79294 0.0
C623 C 0.43766 0.54639 0.77816 0.0
C624 C 0.47392 0.60345 0.79253 0.0
C625 C 0.49999 0.60844 0.77731 0.0
H626 H 0.42409 0.57087 0.80475 0.0
H627 H 0.47679 0.62331 0.80405 0.0
S628 S 0.49835 0.54586 0.73576 0.0
N629 N 0.46118 0.52651 0.74839 0.0
N630 N 0.51842 0.5835 0.74761 0.0
C631 C 0.4949 0.58166 0.76279 0.0
C632 C 0.4638 0.55069 0.76322 0.0
C633 C 0.6009 0.79869 0.55806 0.0
C634 C 0.58198 0.77244 0.54236 0.0
C635 C 0.59933 0.82825 0.55781 0.0
C636 C 0.57879 0.83289 0.54185 0.0
H637 H 0.61665 0.79625 0.57101 0.0
H638 H 0.61398 0.84736 0.57057 0.0
S639 S 0.52596 0.77279 0.49594 0.0
N640 N 0.54329 0.75372 0.50957 0.0
N641 N 0.54034 0.80927 0.50911 0.0
C642 C 0.56045 0.80725 0.52559 0.0
C643 C 0.56204 0.77707 0.52585 0.0
C644 C 0.20918 0.78913 0.55425 0.0
C645 C 0.20367 0.76181 0.54022 0.0
C646 C 0.23946 0.81955 0.55339 0.0
C647 C 0.26566 0.82406 0.53847 0.0
H648 H 0.19019 0.78692 0.56641 0.0
H649 H 0.2425 0.83943 0.56496 0.0
S650 S 0.26323 0.76123 0.49685 0.0
N651 N 0.22639 0.74185 0.50995 0.0
N652 N 0.2834 0.79911 0.50835 0.0
C653 C 0.26016 0.79737 0.52374 0.0
C654 C 0.22918 0.76626 0.5246 0.0
C655 C 0.25094 0.44622 0.5571 0.0
C656 C 0.27802 0.47005 0.54369 0.0
C657 C 0.21976 0.44443 0.55664 0.0
C658 C 0.21422 0.46641 0.54277 0.0
H659 H 0.2539 0.42907 0.56844 0.0
H660 H 0.20007 0.42604 0.56772 0.0
S661 S 0.27614 0.53196 0.50309 0.0
N662 N 0.29674 0.51506 0.51513 0.0
N663 N 0.23803 0.51169 0.51428 0.0
C664 C 0.24071 0.48967 0.52865 0.0
C665 C 0.2726 0.4915 0.52911 0.0
C666 C 0.99294 0.33475 0.13845 0.0
C667 C 0.01066 0.32001 0.148 0.0
C668 C 0.97928 0.34953 0.15266 0.0
C669 C 0.98262 0.35006 0.17703 0.0
H670 H 0.98853 0.33392 0.11986 0.0
H671 H 0.96477 0.35931 0.14445 0.0
S672 S 0.03078 0.3193 0.21061 0.0
N673 N 0.03387 0.31013 0.18326 0.0
N674 N 0.00806 0.33784 0.20998 0.0
C675 C 0.00204 0.33732 0.18675 0.0
C676 C 0.0161 0.32233 0.17224 0.0
C677 C 0.71172 0.69273 0.13859 0.0
C678 C 0.7293 0.72416 0.14965 0.0
C679 C 0.69588 0.66295 0.15148 0.0
C680 C 0.69708 0.66333 0.17596 0.0
H681 H 0.71114 0.69091 0.11976 0.0
H682 H 0.68391 0.63944 0.14206 0.0
S683 S 0.73544 0.73909 0.21351 0.0
N684 N 0.74371 0.75395 0.18666 0.0
N685 N 0.71398 0.6979 0.21088 0.0
C686 C 0.71263 0.69461 0.18731 0.0
C687 C 0.7287 0.72503 0.17416 0.0
C688 C 0.36018 0.0549 0.1416 0.0
C689 C 0.32754 0.03861 0.15095 0.0
C690 C 0.3884 0.06791 0.15602 0.0
C691 C 0.38522 0.06534 0.18043 0.0
H692 H 0.36413 0.05868 0.12298 0.0
H693 H 0.41289 0.08128 0.1479 0.0
S694 S 0.30543 0.02103 0.21364 0.0
N695 N 0.29367 0.0176 0.18614 0.0
N696 N 0.34681 0.04221 0.21326 0.0
C697 C 0.35277 0.04734 0.19 0.0
C698 C 0.32393 0.03394 0.17526 0.0
C699 C 0.33676 -2e-05 0.8499 0.0
C700 C 0.31695 0.01275 0.84093 0.0
C701 C 0.35272 0.98815 0.83514 0.0
C702 C 0.3494 0.98841 0.81079 0.0
H703 H 0.33918 -0.00193 0.86853 0.0
H704 H 0.3666 0.97743 0.84302 0.0
S705 S 0.30415 0.02339 0.77826 0.0
N706 N 0.29775 0.02808 0.80595 0.0
N707 N 0.32764 0.00567 0.77824 0.0
C708 C 0.33132 0.00292 0.8015 0.0
C709 C 0.31515 0.01513 0.81655 0.0
C710 C 0.0512 0.35934 0.80593 0.0
C711 C 0.06567 0.39116 0.81647 0.0
C712 C 0.03712 0.32998 0.81931 0.0
C713 C 0.037 0.33123 0.84379 0.0
H714 H 0.05178 0.357 0.78718 0.0
H715 H 0.02751 0.30625 0.81035 0.0
S716 S 0.06723 0.40788 0.87989 0.0
N717 N 0.07571 0.4219 0.85285 0.0
N718 N 0.04929 0.36671 0.87799 0.0
C719 C 0.04947 0.36272 0.85453 0.0
C720 C 0.06378 0.39267 0.84088 0.0
C721 C 0.69127 0.71775 0.80593 0.0
C722 C 0.65885 0.69985 0.81557 0.0
C723 C 0.71983 0.73202 0.82008 0.0
C724 C 0.71718 0.7291 0.84448 0.0
H725 H 0.69474 0.72188 0.7873 0.0
H726 H 0.74406 0.74664 0.81178 0.0
S727 S 0.63843 0.68065 0.87833 0.0
N728 N 0.62599 0.67692 0.85097 0.0
N729 N 0.6797 0.70381 0.87758 0.0
C730 C 0.68506 0.70946 0.8543 0.0
C731 C 0.65591 0.69481 0.83986 0.0
C732 C 0.04433 0.71333 0.85203 0.0
C733 C 0.03033 0.73177 0.84254 0.0
C734 C 0.05811 0.69874 0.83773 0.0
C735 C 0.05858 0.70212 0.81336 0.0
H736 H 0.04584 0.71112 0.87073 0.0
H737 H 0.06981 0.68603 0.84597 0.0
S738 S 0.02054 0.74339 0.77953 0.0
N739 N 0.01436 0.74926 0.80703 0.0
N740 N 0.0404 0.72193 0.78018 0.0
C741 C 0.04273 0.71858 0.80354 0.0
C742 C 0.02856 0.73336 0.81811 0.0
C743 C 0.32556 0.35413 0.80664 0.0
C744 C 0.34274 0.38629 0.8167 0.0
C745 C 0.31152 0.32516 0.82042 0.0
C746 C 0.31399 0.32707 0.84486 0.0
H747 H 0.32184 0.35117 0.78797 0.0
H748 H 0.29751 0.30113 0.81179 0.0
S749 S 0.36036 0.40502 0.87975 0.0
N750 N 0.36439 0.41821 0.85255 0.0
N751 N 0.33796 0.36372 0.87846 0.0
C752 C 0.33286 0.35897 0.85511 0.0
C753 C 0.34724 0.38856 0.84104 0.0
C754 C 0.6886 0.0012 0.85035 0.0
C755 C 0.72126 0.01869 0.84105 0.0
C756 C 0.66041 0.98691 0.83587 0.0
C757 C 0.66376 0.98934 0.8115 0.0
H758 H 0.68467 -0.0026 0.86898 0.0
H759 H 0.63593 0.97252 0.84388 0.0
S760 S 0.74331 0.03676 0.77841 0.0
N761 N 0.75507 0.0409 0.80594 0.0
N762 N 0.70201 0.01384 0.77872 0.0
C763 C 0.6961 0.00863 0.80198 0.0
C764 C 0.72486 0.02339 0.81676 0.0
C765 C 0.7338 0.03689 0.17262 0.0
C766 C 0.72605 0.03218 0.14875 0.0
C767 C 0.71908 0.05005 0.18734 0.0
C768 C 0.69582 0.0588 0.17883 0.0
H769 H 0.75253 0.03184 0.17988 0.0
H770 H 0.72692 0.05442 0.20541 0.0
S771 S 0.66325 0.04658 0.1183 0.0
N772 N 0.69092 0.03381 0.11769 0.0
N773 N 0.66307 0.05842 0.14541 0.0
C774 C 0.68609 0.05204 0.15531 0.0
C775 C 0.70128 0.0388 0.14025 0.0
C776 C 0.01155 0.72669 0.17239 0.0
C777 C 0.01385 0.72616 0.14798 0.0
C778 C -0.00326 0.697 0.1854 0.0
C779 C 0.98371 0.6655 0.17457 0.0
H780 H 0.01994 0.75011 0.18154 0.0
H781 H 0.99447 0.69881 0.20406 0.0
S782 S 0.98808 0.65068 0.11139 0.0
N783 N 0.00522 0.69174 0.11367 0.0
N784 N 0.97742 0.63588 0.13813 0.0
C785 C 0.98789 0.66472 0.15032 0.0
C786 C 0.00292 0.69504 0.13702 0.0
C787 C 0.34844 0.34137 0.14542 0.0
C788 C 0.31738 0.31592 0.15402 0.0
C789 C 0.37657 0.35754 0.15992 0.0
C790 C 0.37482 0.3487 0.18354 0.0
H791 H 0.35144 0.3482 0.12715 0.0
H792 H 0.40019 0.37599 0.15224 0.0
S793 S 0.29852 0.28707 0.21552 0.0
N794 N 0.28584 0.28519 0.18838 0.0
N795 N 0.33881 0.31543 0.21551 0.0
C796 C 0.34353 0.32473 0.19271 0.0
C797 C 0.3148 0.3084 0.17799 0.0
C798 C 0.66689 0.66492 0.51699 0.0
C799 C 0.65479 0.68514 0.50768 0.0
C800 C 0.67982 0.64963 0.50259 0.0
C801 C 0.68114 0.65383 0.47826 0.0
H802 H 0.66527 0.65976 0.53551 0.0
H803 H 0.68755 0.63329 0.5106 0.0
S804 S 0.65738 0.70829 0.44538 0.0
N805 N 0.64844 0.71153 0.47276 0.0
N806 N 0.67272 0.68271 0.44569 0.0
C807 C 0.67116 0.67571 0.46882 0.0
C808 C 0.65803 0.69138 0.48353 0.0
C809 C 0.39241 0.04904 0.5052 0.0
C810 C 0.39107 0.04841 0.4807 0.0
C811 C 0.37745 0.01937 0.51825 0.0
C812 C 0.3605 0.9878 0.50736 0.0
H813 H 0.40618 0.07257 0.51445 0.0
H814 H 0.38035 0.02132 0.53701 0.0
S815 S 0.3456 0.97243 0.4438 0.0
N816 N 0.36834 0.0136 0.44614 0.0
N817 N 0.34021 0.95782 0.47068 0.0
C818 C 0.35717 0.98682 0.48294 0.0
C819 C 0.37245 0.0171 0.46962 0.0
C820 C 0.99079 0.36937 0.50816 0.0
C821 C 0.99328 0.36586 0.48402 0.0
C822 C 0.01905 0.38188 0.52257 0.0
C823 C 0.05093 0.39135 0.51341 0.0
H824 H 0.96713 0.3638 0.51594 0.0
H825 H 0.01601 0.38547 0.54086 0.0
S826 S 0.0699 0.38181 0.45194 0.0
N827 N 0.02944 0.36904 0.45201 0.0
N828 N 0.08253 0.39251 0.47908 0.0
C829 C 0.05335 0.38578 0.48956 0.0
C830 C 0.02455 0.37306 0.47487 0.0
C831 C 0.3845 0.38575 0.51949 0.0
C832 C 0.36718 0.40075 0.50972 0.0
C833 C 0.39821 0.37086 0.50545 0.0
C834 C 0.39525 0.37038 0.48105 0.0
H835 H 0.38861 0.38647 0.53811 0.0
H836 H 0.41234 0.3608 0.51386 0.0
S837 S 0.34821 0.40193 0.44693 0.0
N838 N 0.34476 0.41105 0.47423 0.0
N839 N 0.37061 0.38306 0.44782 0.0
C840 C 0.37621 0.38341 0.4711 0.0
C841 C 0.36215 0.39857 0.48544 0.0
C842 C 0.64487 0.99278 0.48471 0.0
C843 C 0.6475 0.99437 0.50914 0.0
C844 C 0.65958 0.02194 0.47113 0.0
C845 C 0.6776 0.0539 0.48141 0.0
H846 H 0.63009 0.96894 0.47599 0.0
H847 H 0.65559 0.01932 0.45247 0.0
S848 S 0.6965 0.07144 0.54443 0.0
N849 N 0.67289 0.03026 0.5429 0.0
N850 N 0.7006 0.08511 0.51736 0.0
C851 C 0.68245 0.05574 0.5057 0.0
C852 C 0.66737 0.02598 0.51956 0.0
C853 C 0.01856 0.66468 0.47209 0.0
C854 C 0.98583 0.6465 0.48118 0.0
C855 C 0.04658 0.67907 0.48675 0.0
C856 C 0.04302 0.67578 0.5111 0.0
H857 H 0.0228 0.66681 0.45344 0.0
H858 H 0.07122 0.69159 0.47881 0.0
S859 S 0.96271 0.63521 0.54389 0.0
N860 N 0.95139 0.62936 0.51624 0.0
N861 N 0.00409 0.65635 0.54378 0.0
C862 C 0.01041 0.65961 0.5205 0.0
C863 C 0.98182 0.64501 0.50555 0.0
C864 C 0.00526 0.27881 0.00992 0.0
C865 C 0.03665 0.28615 0.01893 0.0
C866 C -0.00071 0.27659 0.98588 0.0
C867 C 0.02441 0.28148 0.96983 0.0
H868 H 0.98475 0.27394 0.02151 0.0
H869 H 0.97444 0.27004 0.97993 0.0
S870 S 0.1119 0.30401 0.98424 0.0
N871 N 0.09387 0.30037 0.00975 0.0
N872 N 0.08269 0.29618 0.96463 0.0
C873 C 0.05636 0.29015 0.97854 0.0
C874 C 0.06247 0.29251 0.00305 0.0
C875 C 0.75713 0.78179 0.98062 0.0
C876 C 0.77529 0.76661 0.97267 0.0
C877 C 0.7534 0.78565 0.00443 0.0
C878 C 0.76775 0.77458 0.02135 0.0
H879 H 0.74621 0.79151 0.96836 0.0
H880 H 0.73987 0.79823 0.00952 0.0
S881 S 0.8155 0.7307 0.0099 0.0
N882 N 0.8061 0.73858 0.98377 0.0
N883 N 0.79914 0.74581 0.02851 0.0
C884 C 0.78493 0.75819 0.01371 0.0
C885 C 0.78868 0.75421 0.98941 0.0
C886 C 0.29891 0.05704 0.98832 0.0
C887 C 0.28847 0.03037 0.97249 0.0
C888 C 0.29542 0.05136 0.01239 0.0
C889 C 0.28143 0.01877 0.0217 0.0
H890 H 0.30886 0.08251 0.98212 0.0
H891 H 0.30297 0.07275 0.02372 0.0
S892 S 0.25358 0.94057 0.98782 0.0
N893 N 0.26606 0.97033 0.9679 0.0
N894 N 0.25955 0.95966 0.01315 0.0
C895 C 0.27243 0.992 0.00612 0.0
C896 C 0.27592 -0.0022 0.98155 0.0
C897 C 0.0338 0.76919 0.982 0.0
C898 C 0.00727 0.77341 0.97393 0.0
C899 C 0.04029 0.76927 0.00588 0.0
C900 C 0.02055 0.77363 0.02264 0.0
H901 H 0.05032 0.76665 0.96979 0.0
H902 H 0.06154 0.76681 0.01115 0.0
S903 S 0.94588 0.78227 0.01081 0.0
N904 N 0.95956 0.77957 0.98479 0.0
N905 N 0.97169 0.77973 0.02953 0.0
C906 C 0.99307 0.77649 0.01485 0.0
C907 C 0.98645 0.77637 0.99056 0.0
C908 C 0.28813 0.2796 0.01342 0.0
C909 C 0.25933 0.28041 0.02062 0.0
C910 C 0.29485 0.27816 0.98976 0.0
C911 C 0.27311 0.27758 0.97232 0.0
H912 H 0.30519 0.27903 0.02615 0.0
H913 H 0.31686 0.27665 0.9852 0.0
S914 S 0.19595 0.2827 0.98185 0.0
N915 N 0.21016 0.28303 0.0083 0.0
N916 N 0.22271 0.28041 0.96393 0.0
C917 C 0.24495 0.27987 0.97925 0.0
C918 C 0.23809 0.28126 0.00335 0.0
C919 C 0.75165 -0.00315 0.9775 0.0
C920 C 0.76209 0.02942 0.96921 0.0
C921 C 0.74824 0.98961 0.00136 0.0
C922 C 0.75526 0.01467 0.01796 0.0
H923 H 0.74692 0.97681 0.96551 0.0
H924 H 0.74123 0.9644 0.00677 0.0
S925 S 0.77968 0.10318 0.00543 0.0
N926 N 0.77664 0.08636 0.97954 0.0
N927 N 0.77026 0.07278 0.02441 0.0
C928 C 0.76404 0.04697 0.00993 0.0
C929 C 0.76742 0.05434 0.98557 0.0
C930 C 0.66517 0.60672 0.3165 0.0
C931 C 0.68598 0.60423 0.29965 0.0
C932 C 0.67169 0.60677 0.34037 0.0
C933 C 0.69923 0.60423 0.34837 0.0
H934 H 0.64327 0.60804 0.3113 0.0
H935 H 0.65448 0.60804 0.35262 0.0
S936 S 0.76297 0.59962 0.3114 0.0
N937 N 0.7365 0.60101 0.29271 0.0
N938 N 0.74859 0.60105 0.33744 0.0
C939 C 0.72085 0.60276 0.33171 0.0
C940 C 0.71428 0.60278 0.30741 0.0
C941 C 0.43493 0.11099 0.34381 0.0
C942 C 0.45676 0.14011 0.35634 0.0
C943 C 0.43875 0.10898 0.31969 0.0
C944 C 0.46511 0.13566 0.30749 0.0
H945 H 0.41464 0.08972 0.35267 0.0
H946 H 0.42135 0.08619 0.31064 0.0
S947 S 0.52918 0.21726 0.3323 0.0
N948 N 0.5055 0.19622 0.35473 0.0
N949 N 0.51311 0.19215 0.30965 0.0
C950 C 0.48714 0.16482 0.31985 0.0
C951 C 0.48284 0.16713 0.34423 0.0
C952 C 0.92406 0.3255 0.33617 0.0
C953 C 0.94298 0.34981 0.35303 0.0
C954 C 0.92817 0.33328 0.31239 0.0
C955 C 0.9515 0.36568 0.3044 0.0
H956 H 0.90508 0.30044 0.34132 0.0
H957 H 0.91229 0.31377 0.30023 0.0
S958 S 0.00976 0.43762 0.34132 0.0
N959 N 0.98779 0.40709 0.36002 0.0
N960 N -0.00445 0.42167 0.31528 0.0
C961 C 0.97173 0.38987 0.321 0.0
C962 C 0.96745 0.38196 0.3453 0.0
C963 C 0.664 0.09163 0.34568 0.0
C964 C 0.69687 0.10636 0.35452 0.0
C965 C 0.65777 0.08838 0.32168 0.0
C966 C 0.68416 0.0999 0.30549 0.0
H967 H 0.64279 0.08305 0.35736 0.0
H968 H 0.63206 0.0776 0.31585 0.0
S969 S 0.77475 0.13809 0.3195 0.0
N970 N 0.75609 0.13083 0.34511 0.0
N971 N 0.74442 0.12479 0.30001 0.0
C972 C 0.71711 0.11358 0.31406 0.0
C973 C 0.72345 0.11676 0.33855 0.0
C974 C 0.91694 0.62176 0.33301 0.0
C975 C 0.93581 0.61575 0.34957 0.0
C976 C 0.92157 0.61968 0.3091 0.0
C977 C 0.94537 0.6116 0.30068 0.0
H978 H 0.89766 0.6272 0.33848 0.0
H979 H 0.90573 0.62373 0.29717 0.0
S980 S 0.00361 0.59675 0.33676 0.0
N981 N 0.98099 0.60369 0.35585 0.0
N982 N 0.98972 0.59982 0.31089 0.0
C983 C 0.96546 0.60693 0.31702 0.0
C984 C 0.96068 0.60898 0.34144 0.0
C985 C 0.47188 0.33154 0.34188 0.0
C986 C 0.45074 0.33954 0.35459 0.0
C987 C 0.47527 0.33597 0.31775 0.0
C988 C 0.45727 0.34806 0.30523 0.0
H989 H 0.48661 0.32247 0.35067 0.0
H990 H 0.49215 0.32971 0.30884 0.0
S991 S 0.3975 0.37148 0.33009 0.0
N992 N 0.41091 0.35952 0.35284 0.0
N993 N 0.41685 0.36727 0.30723 0.0
C994 C 0.43543 0.35549 0.31759 0.0
C995 C 0.43232 0.35143 0.34232 0.0
C996 C 0.3439 0.88453 0.67241 0.0
C997 C 0.35325 0.91479 0.68404 0.0
C998 C 0.33684 0.88106 0.64857 0.0
C999 C 0.33949 0.90793 0.63527 0.0
H1000 H 0.34173 0.86313 0.68183 0.0
H1001 H 0.32995 0.85726 0.64043 0.0
S1002 S 0.36283 0.99249 0.6574 0.0
N1003 N 0.36424 0.97203 0.68064 0.0
N1004 N 0.35178 0.9658 0.63549 0.0
C1005 C 0.34877 0.93839 0.64664 0.0
C1006 C 0.35538 0.94173 0.67112 0.0
C1007 C 0.10199 0.44095 0.67632 0.0
C1008 C 0.1285 0.46754 0.68838 0.0
C1009 C 0.10483 0.43593 0.6525 0.0
C1010 C 0.13465 0.4567 0.64023 0.0
H1011 H 0.07872 0.42437 0.68525 0.0
H1012 H 0.08363 0.41559 0.64367 0.0
S1013 S 0.21193 0.52873 0.66442 0.0
N1014 N 0.18567 0.51427 0.68664 0.0
N1015 N 0.19143 0.50443 0.64214 0.0
C1016 C 0.1616 0.48287 0.65233 0.0
C1017 C 0.1584 0.48841 0.67635 0.0
C1018 C 0.60024 0.66275 0.66882 0.0
C1019 C 0.61295 0.68803 0.68586 0.0
C1020 C 0.60434 0.67064 0.64504 0.0
C1021 C 0.62138 0.70418 0.63726 0.0
H1022 H 0.58605 0.63657 0.67379 0.0
H1023 H 0.59318 0.65015 0.6327 0.0
S1024 S 0.66271 0.77981 0.67483 0.0
N1025 N 0.64573 0.74809 0.6933 0.0
N1026 N 0.6534 0.76287 0.64862 0.0
C1027 C 0.63564 0.72972 0.6541 0.0
C1028 C 0.63144 0.72168 0.67837 0.0
C1029 C 0.38568 0.4513 0.67105 0.0
C1030 C 0.35941 0.43725 0.68738 0.0
C1031 C 0.37922 0.44857 0.64708 0.0
C1032 C 0.34619 0.43154 0.63839 0.0
H1033 H 0.41153 0.46546 0.67675 0.0
H1034 H 0.4004 0.46064 0.63532 0.0
S1035 S 0.26845 0.38738 0.67381 0.0
N1036 N 0.29903 0.40354 0.69315 0.0
N1037 N 0.2869 0.39837 0.64811 0.0
C1038 C 0.31968 0.41607 0.6545 0.0
C1039 C 0.32628 0.41894 0.67897 0.0
C1040 C 0.59259 0.95968 0.6677 0.0
C1041 C 0.60997 0.95098 0.68378 0.0
C1042 C 0.59517 0.95607 0.64371 0.0
C1043 C 0.61546 0.94384 0.63477 0.0
H1044 H 0.57594 0.96837 0.67365 0.0
H1045 H 0.58057 0.96236 0.63213 0.0
S1046 S 0.6687 0.92043 0.66945 0.0
N1047 N 0.65004 0.93171 0.68904 0.0
N1048 N 0.655 0.92504 0.64392 0.0
C1049 C 0.63417 0.93642 0.6506 0.0
C1050 C 0.63139 0.93993 0.67509 0.0
C1051 C 0.08398 0.6603 0.67144 0.0
C1052 C 0.09848 0.68716 0.68726 0.0
C1053 C 0.08656 0.66589 0.64734 0.0
C1054 C 0.10365 0.69858 0.63802 0.0
H1055 H 0.07124 0.63463 0.67763 0.0
H1056 H 0.0756 0.64424 0.63596 0.0
S1057 S 0.14356 0.77777 0.67201 0.0
N1058 N 0.12873 0.74786 0.6919 0.0
N1059 N 0.13353 0.75833 0.64665 0.0
C1060 C 0.11715 0.72574 0.65365 0.0
C1061 C 0.1146 0.72005 0.67823 0.0
C1062 C 0.88888 0.12392 0.10015 0.0
C1063 C 0.88344 0.09776 0.08491 0.0
C1064 C 0.91933 0.15429 0.10026 0.0
C1065 C 0.94569 0.15982 0.08515 0.0
H1066 H 0.86916 0.12138 0.11171 0.0
H1067 H 0.92181 0.17387 0.11191 0.0
S1068 S 0.94556 0.09813 0.04347 0.0
N1069 N 0.90798 0.07848 0.0555 0.0
N1070 N 0.96519 0.13553 0.0557 0.0
C1071 C 0.94117 0.13334 0.07053 0.0
C1072 C 0.91008 0.10235 0.07041 0.0
C1073 C 0.92841 0.80772 0.11013 0.0
C1074 C 0.95583 0.83151 0.09694 0.0
C1075 C 0.89745 0.80651 0.10957 0.0
C1076 C 0.89262 0.82904 0.0958 0.0
H1077 H 0.93034 0.7889 0.12026 0.0
H1078 H 0.87682 0.78685 0.11931 0.0
S1079 S 0.95782 0.89944 0.06082 0.0
N1080 N 0.97718 0.88054 0.07176 0.0
N1081 N 0.91901 0.87828 0.0707 0.0
C1082 C 0.92042 0.85436 0.08373 0.0
C1083 C 0.952 0.85559 0.08431 0.0
C1084 C 0.21497 0.11087 0.07241 0.0
C1085 C 0.23324 0.10462 0.08937 0.0
C1086 C 0.21373 0.14062 0.07249 0.0
C1087 C 0.23072 0.1654 0.08952 0.0
H1088 H 0.20223 0.09309 0.0585 0.0
H1089 H 0.2001 0.14453 0.05862 0.0
S1090 S 0.27901 0.15973 0.13943 0.0
N1091 N 0.26645 0.12457 0.12485 0.0
N1092 N 0.26412 0.18046 0.125 0.0
C1093 C 0.24781 0.15883 0.10725 0.0
C1094 C 0.24907 0.12848 0.10717 0.0
C1095 C 0.13471 0.94244 0.92049 0.0
C1096 C 0.15945 0.94813 0.90384 0.0
C1097 C 0.10359 0.91277 0.92053 0.0
C1098 C 0.09586 0.88747 0.90395 0.0
H1099 H 0.13966 0.96062 0.93409 0.0
H1100 H 0.08589 0.90932 0.93417 0.0
S1101 S 0.15042 0.89143 0.85494 0.0
N1102 N 0.173 0.927 0.86909 0.0
N1103 N 0.11454 0.87126 0.86918 0.0
C1104 C 0.11974 0.89344 0.8865 0.0
C1105 C 0.15148 0.92374 0.88644 0.0
C1106 C 0.14933 0.24299 0.88187 0.0
C1107 C 0.15305 0.21981 0.89571 0.0
C1108 C 0.11935 0.24374 0.88176 0.0
C1109 C 0.09181 0.22134 0.89549 0.0
H1110 H 0.17021 0.26178 0.8718 0.0
H1111 H 0.11837 0.26307 0.87161 0.0
S1112 S 0.08666 0.15205 0.93172 0.0
N1113 N 0.1252 0.17118 0.92124 0.0
N1114 N 0.06882 0.17258 0.92104 0.0
C1115 C 0.09432 0.19643 0.90806 0.0
C1116 C 0.12493 0.19567 0.90817 0.0
C1117 C 0.83589 0.91623 0.91614 0.0
C1118 C 0.81739 0.89099 0.8997 0.0
C1119 C 0.83605 0.94668 0.91584 0.0
C1120 C 0.81773 0.95318 0.89908 0.0
H1121 H 0.84941 0.91206 0.92996 0.0
H1122 H 0.84968 0.96471 0.92945 0.0
S1123 S 0.76912 0.89731 0.85005 0.0
N1124 N 0.78314 0.87593 0.86464 0.0
N1125 N 0.78344 0.93318 0.86406 0.0
C1126 C 0.80079 0.929 0.88164 0.0
C1127 C 0.80061 0.89792 0.88196 0.0
C1128 C 0.58147 0.43367 0.41119 0.0
C1129 C 0.55472 0.42917 0.4255 0.0
C1130 C 0.6113 0.46458 0.41 0.0
C1131 C 0.61573 0.49229 0.42311 0.0
H1132 H 0.57907 0.4135 0.4002 0.0
H1133 H 0.6307 0.46688 0.3982 0.0
S1134 S 0.55477 0.49269 0.46532 0.0
N1135 N 0.53562 0.45435 0.45453 0.0
N1136 N 0.59169 0.5124 0.45235 0.0
C1137 C 0.58978 0.48772 0.43835 0.0
C1138 C 0.55932 0.45621 0.43953 0.0
C1139 C 0.61096 0.17758 0.41599 0.0
C1140 C 0.61545 0.15446 0.42931 0.0
C1141 C 0.58092 0.17822 0.41684 0.0
C1142 C 0.55404 0.15565 0.43096 0.0
H1143 H 0.63039 0.19472 0.40421 0.0
H1144 H 0.5784 0.19574 0.4056 0.0
S1145 S 0.55433 0.09294 0.47151 0.0
N1146 N 0.59145 0.1105 0.45881 0.0
N1147 N 0.53496 0.11164 0.46027 0.0
C1148 C 0.55877 0.1336 0.44533 0.0
C1149 C 0.58947 0.13303 0.44456 0.0
C1150 C 0.88089 0.43554 0.40406 0.0
C1151 C 0.89865 0.42947 0.42152 0.0
C1152 C 0.88016 0.46554 0.40339 0.0
C1153 C 0.89715 0.49076 0.42014 0.0
H1154 H 0.86822 0.41745 0.39031 0.0
H1155 H 0.86695 0.4693 0.38915 0.0
S1156 S 0.94418 0.48576 0.47112 0.0
N1157 N 0.93134 0.45008 0.45717 0.0
N1158 N 0.92996 0.50645 0.45592 0.0
C1159 C 0.91365 0.48437 0.43839 0.0
C1160 C 0.9144 0.45375 0.43907 0.0
C1161 C 0.78699 0.23204 0.21926 0.0
C1162 C 0.75929 0.22735 0.23255 0.0
C1163 C 0.81705 0.26275 0.21916 0.0
C1164 C 0.82072 0.29011 0.23236 0.0
H1165 H 0.78601 0.21147 0.20948 0.0
H1166 H 0.83795 0.26454 0.20932 0.0
S1167 S 0.75418 0.29254 0.26736 0.0
N1168 N 0.73629 0.25386 0.25724 0.0
N1169 N 0.79283 0.31163 0.25706 0.0
C1170 C 0.79257 0.28648 0.24455 0.0
C1171 C 0.76187 0.25511 0.24465 0.0
C1172 C 0.81303 0.57948 0.21143 0.0
C1173 C 0.8174 0.55604 0.22445 0.0
C1174 C 0.78199 0.57808 0.21059 0.0
C1175 C 0.75402 0.55319 0.22275 0.0
H1176 H 0.83405 0.59999 0.20255 0.0
H1177 H 0.78044 0.59763 0.20115 0.0
S1178 S 0.75072 0.48261 0.2563 0.0
N1179 N 0.79002 0.50476 0.2475 0.0
N1180 N 0.73169 0.50216 0.24593 0.0
C1181 C 0.7574 0.5282 0.23449 0.0
C1182 C 0.78907 0.52962 0.23534 0.0
C1183 C 0.4602 0.25783 0.21825 0.0
C1184 C 0.48927 0.28897 0.22221 0.0
C1185 C 0.46086 0.22784 0.21934 0.0
C1186 C 0.49059 0.22761 0.22455 0.0
H1187 H 0.43641 0.25642 0.21482 0.0
H1188 H 0.43751 0.20457 0.21676 0.0
S1189 S 0.57442 0.30258 0.23425 0.0
N1190 N 0.54929 0.31793 0.22993 0.0
N1191 N 0.55051 0.26151 0.23205 0.0
C1192 C 0.52023 0.25866 0.22751 0.0
C1193 C 0.51958 0.28932 0.22631 0.0
C1194 C 0.26122 0.82309 0.7731 0.0
C1195 C 0.29053 0.82361 0.76554 0.0
C1196 C 0.23002 0.7936 0.77251 0.0
C1197 C 0.22675 0.76341 0.76416 0.0
H1198 H 0.26211 0.84587 0.77895 0.0
H1199 H 0.20815 0.7949 0.77783 0.0
S1200 S 0.29618 0.75023 0.74486 0.0
N1201 N 0.31466 0.79049 0.75136 0.0
N1202 N 0.25592 0.73507 0.75015 0.0
C1203 C 0.25604 0.76309 0.75768 0.0
C1204 C 0.28794 0.79315 0.75842 0.0
C1205 C 0.25858 0.46841 0.77417 0.0
C1206 C 0.28607 0.49079 0.7604 0.0
C1207 C 0.22925 0.47037 0.77515 0.0
C1208 C 0.22623 0.49493 0.76254 0.0
H1209 H 0.25918 0.44841 0.78371 0.0
H1210 H 0.20847 0.45188 0.78545 0.0
S1211 S 0.29211 0.5616 0.72553 0.0
N1212 N 0.30926 0.53986 0.73514 0.0
N1213 N 0.25419 0.54359 0.73701 0.0
C1214 C 0.25412 0.51853 0.7496 0.0
C1215 C 0.28399 0.51643 0.7485 0.0
C1216 C 0.5824 0.78859 0.77051 0.0
C1217 C 0.56011 0.76168 0.75633 0.0
C1218 C 0.58291 0.81922 0.77024 0.0
C1219 C 0.56113 0.82426 0.75579 0.0
H1220 H 0.60057 0.78653 0.78131 0.0
H1221 H 0.60142 0.83945 0.78086 0.0
S1222 S 0.49467 0.76026 0.71778 0.0
N1223 N 0.5133 0.74095 0.72922 0.0
N1224 N 0.51423 0.79851 0.72872 0.0
C1225 C 0.53731 0.79692 0.74258 0.0
C1226 C 0.53681 0.76566 0.74285 0.0
C1227 C 0.47016 0.61626 0.58436 0.0
C1228 C 0.49467 0.62265 0.56737 0.0
C1229 C 0.43948 0.58613 0.58457 0.0
C1230 C 0.43202 0.56113 0.56778 0.0
H1231 H 0.47505 0.63414 0.59817 0.0
H1232 H 0.422 0.58204 0.59852 0.0
S1233 S 0.4858 0.5673 0.51762 0.0
N1234 N 0.50807 0.6028 0.53192 0.0
N1235 N 0.4504 0.54618 0.53229 0.0
C1236 C 0.45552 0.56795 0.54989 0.0
C1237 C 0.48682 0.59868 0.54969 0.0
C1238 C 0.42464 0.86481 0.574 0.0
C1239 C 0.41923 0.88668 0.55992 0.0
C1240 C 0.4558 0.86644 0.57451 0.0
C1241 C 0.48286 0.88993 0.56092 0.0
H1242 H 0.40506 0.84704 0.58543 0.0
H1243 H 0.4589 0.84979 0.58627 0.0
S1244 S 0.48047 0.94993 0.5187 0.0
N1245 N 0.44261 0.93043 0.53033 0.0
N1246 N 0.50116 0.93346 0.53122 0.0
C1247 C 0.47725 0.91068 0.54573 0.0
C1248 C 0.44548 0.90908 0.54526 0.0
C1249 C 0.16762 0.60892 0.58036 0.0
C1250 C 0.14468 0.6123 0.56605 0.0
C1251 C 0.16944 0.5795 0.58034 0.0
C1252 C 0.14835 0.55217 0.56605 0.0
H1253 H 0.18372 0.62877 0.59224 0.0
H1254 H 0.1868 0.57785 0.59226 0.0
S1255 S 0.08666 0.5496 0.52324 0.0
N1256 N 0.10242 0.58678 0.53563 0.0
N1257 N 0.10582 0.53146 0.53565 0.0
C1258 C 0.12644 0.55578 0.55078 0.0
C1259 C 0.12462 0.58582 0.55076 0.0
loop_
_geom_bond_atom_site_label_1
_geom_bond_atom_site_label_2
_geom_bond_distance
_geom_bond_site_symmetry_2
_ccdc_geom_bond_type
C0 O1 1.160 . S
C0 O7 1.185 . S
O1 C0 1.160 . S
O2 Zn3 1.899 . S
O2 C10 1.284 . S
Zn3 O2 1.899 . S
Zn3 O4 2.032 1_455 S
Zn3 O7 2.086 . S
Zn3 O12 1.977 . S
O4 Zn3 2.032 1_655 S
O4 C8 1.278 . S
C5 O6 1.203 . S
C5 O12 1.267 . S
O6 C5 1.203 . S
O7 C0 1.185 . S
O7 Zn3 2.086 . S
C8 O4 1.278 . S
C8 O9 1.211 . S
O9 C8 1.211 . S
C10 O2 1.284 . S
C10 O11 1.273 . S
O11 C10 1.273 . S
O12 Zn3 1.977 . S
O12 C5 1.267 . S
C13 O14 1.160 . S
C13 O20 1.185 . S
O14 C13 1.160 . S
O15 Zn16 1.899 . S
O15 C23 1.284 . S
Zn16 O15 1.899 . S
Zn16 O17 2.032 . S
Zn16 O20 2.086 . S
Zn16 O25 1.977 . S
O17 Zn16 2.032 . S
O17 C21 1.278 . S
C18 O19 1.203 . S
C18 O25 1.267 . S
O19 C18 1.203 . S
O20 C13 1.185 . S
O20 Zn16 2.086 . S
C21 O17 1.278 . S
C21 O22 1.211 . S
O22 C21 1.211 . S
C23 O15 1.284 . S
C23 O24 1.273 . S
O24 C23 1.273 . S
O25 Zn16 1.977 . S
O25 C18 1.267 . S
C26 O27 1.160 . S
C26 O33 1.185 . S
O27 C26 1.160 . S
O28 Zn29 1.899 1_565 S
O28 C36 1.284 . S
Zn29 O28 1.899 1_545 S
Zn29 O30 2.032 . S
Zn29 O33 2.086 . S
Zn29 O38 1.977 . S
O30 Zn29 2.032 . S
O30 C34 1.278 . S
C31 O32 1.206 . S
C31 O38 1.267 . S
O32 C31 1.206 . S
O33 C26 1.185 . S
O33 Zn29 2.086 . S
C34 O30 1.278 . S
C34 O35 1.211 . S
O35 C34 1.211 . S
C36 O28 1.284 . S
C36 O37 1.273 . S
O37 C36 1.273 . S
O38 Zn29 1.977 . S
O38 C31 1.267 . S
C39 O40 1.160 . S
C39 O46 1.185 . S
O40 C39 1.160 . S
O41 Zn42 1.899 . S
O41 C49 1.284 . S
Zn42 O41 1.899 . S
Zn42 O43 2.032 1_545 S
Zn42 O46 2.086 . S
Zn42 O51 1.977 . S
O43 Zn42 2.032 1_565 S
O43 C47 1.278 . S
C44 O45 1.203 . S
C44 O51 1.267 . S
O45 C44 1.203 . S
O46 C39 1.185 . S
O46 Zn42 2.086 . S
C47 O43 1.278 . S
C47 O48 1.211 . S
O48 C47 1.211 . S
C49 O41 1.284 . S
C49 O50 1.273 . S
O50 C49 1.273 . S
O51 Zn42 1.977 . S
O51 C44 1.267 . S
C52 O53 1.160 . S
C52 O59 1.185 . S
O53 C52 1.160 . S
O54 Zn55 1.899 1_655 S
O54 C62 1.284 . S
Zn55 O54 1.899 1_455 S
Zn55 O56 2.032 . S
Zn55 O59 2.086 . S
Zn55 O64 1.977 . S
O56 Zn55 2.032 . S
O56 C60 1.278 . S
C57 O58 1.206 . S
C57 O64 1.267 . S
O58 C57 1.206 . S
O59 C52 1.185 . S
O59 Zn55 2.086 . S
C60 O56 1.278 . S
C60 O61 1.211 . S
O61 C60 1.211 . S
C62 O54 1.284 . S
C62 O63 1.273 . S
O63 C62 1.273 . S
O64 Zn55 1.977 . S
O64 C57 1.267 . S
C65 O66 1.160 . S
C65 O72 1.185 . S
O66 C65 1.160 . S
O67 Zn68 1.899 . S
O67 C75 1.284 . S
Zn68 O67 1.899 . S
Zn68 O69 2.032 . S
Zn68 O72 2.086 . S
Zn68 O77 1.977 . S
O69 Zn68 2.032 . S
O69 C73 1.278 . S
C70 O71 1.203 . S
C70 O77 1.267 . S
O71 C70 1.203 . S
O72 C65 1.185 . S
O72 Zn68 2.086 . S
C73 O69 1.278 . S
C73 O74 1.211 . S
O74 C73 1.211 . S
C75 O67 1.284 . S
C75 O76 1.273 . S
O76 C75 1.273 . S
O77 Zn68 1.977 . S
O77 C70 1.267 . S
C78 O79 1.160 . S
C78 O85 1.185 . S
O79 C78 1.160 . S
O80 Zn81 1.899 1_655 S
O80 C88 1.284 . S
Zn81 O80 1.899 1_455 S
Zn81 O82 2.032 . S
Zn81 O85 2.086 . S
Zn81 O90 1.977 . S
O82 Zn81 2.032 . S
O82 C86 1.278 . S
C83 O84 1.236 . S
C83 O90 1.267 . S
O84 C83 1.236 . S
O85 C78 1.185 . S
O85 Zn81 2.086 . S
C86 O82 1.278 . S
C86 O87 1.211 . S
O87 C86 1.211 . S
C88 O80 1.284 . S
C88 O89 1.273 . S
O89 C88 1.273 . S
O90 Zn81 1.977 . S
O90 C83 1.267 . S
C91 O92 1.160 . S
C91 O98 1.185 . S
O92 C91 1.160 . S
O93 Zn94 1.899 . S
O93 C101 1.284 . S
Zn94 O93 1.899 . S
Zn94 O95 2.032 . S
Zn94 O98 2.086 . S
Zn94 O103 1.977 . S
O95 Zn94 2.032 . S
O95 C99 1.278 . S
C96 O97 1.203 . S
C96 O103 1.267 . S
O97 C96 1.203 . S
O98 C91 1.185 . S
O98 Zn94 2.086 . S
C99 O95 1.278 . S
C99 O100 1.211 . S
O100 C99 1.211 . S
C101 O93 1.284 . S
C101 O102 1.273 . S
O102 C101 1.273 . S
O103 Zn94 1.977 . S
O103 C96 1.267 . S
C104 O105 1.160 . S
C104 O111 1.185 . S
O105 C104 1.160 . S
O106 Zn107 1.899 . S
O106 C114 1.284 . S
Zn107 O106 1.899 . S
Zn107 O108 2.032 1_545 S
Zn107 O111 2.086 . S
Zn107 O116 1.977 . S
O108 Zn107 2.032 1_565 S
O108 C112 1.278 . S
C109 O110 1.203 . S
C109 O116 1.267 . S
O110 C109 1.203 . S
O111 C104 1.185 . S
O111 Zn107 2.086 . S
C112 O108 1.278 . S
C112 O113 1.211 . S
O113 C112 1.211 . S
C114 O106 1.284 . S
C114 O115 1.273 . S
O115 C114 1.273 . S
O116 Zn107 1.977 . S
O116 C109 1.267 . S
C117 O118 1.160 . S
C117 O124 1.185 . S
O118 C117 1.160 . S
O119 Zn120 1.899 1_565 S
O119 C127 1.284 . S
Zn120 O119 1.899 1_545 S
Zn120 O121 2.032 . S
Zn120 O124 2.086 . S
Zn120 O129 1.977 . S
O121 Zn120 2.032 . S
O121 C125 1.278 . S
C122 O123 1.236 . S
C122 O129 1.267 . S
O123 C122 1.236 . S
O124 C117 1.185 . S
O124 Zn120 2.086 . S
C125 O121 1.278 . S
C125 O126 1.211 . S
O126 C125 1.211 . S
C127 O119 1.284 . S
C127 O128 1.273 . S
O128 C127 1.273 . S
O129 Zn120 1.977 . S
O129 C122 1.267 . S
C130 O131 1.160 . S
C130 O137 1.185 . S
O131 C130 1.160 . S
O132 Zn133 1.899 . S
O132 C140 1.284 . S
Zn133 O132 1.899 . S
Zn133 O134 2.032 1_455 S
Zn133 O137 2.086 . S
Zn133 O142 1.977 . S
O134 Zn133 2.032 1_655 S
O134 C138 1.278 . S
C135 O136 1.203 . S
C135 O142 1.267 . S
O136 C135 1.203 . S
O137 C130 1.185 . S
O137 Zn133 2.086 . S
C138 O134 1.278 . S
C138 O139 1.211 . S
O139 C138 1.211 . S
C140 O132 1.284 . S
C140 O141 1.273 . S
O141 C140 1.273 . S
O142 Zn133 1.977 . S
O142 C135 1.267 . S
C143 O144 1.160 . S
C143 O150 1.185 . S
O144 C143 1.160 . S
O145 Zn146 1.899 . S
O145 C153 1.284 . S
Zn146 O145 1.899 . S
Zn146 O147 2.032 . S
Zn146 O150 2.086 . S
Zn146 O155 1.977 . S
O147 Zn146 2.032 . S
O147 C151 1.278 . S
C148 O149 1.203 . S
C148 O155 1.267 . S
O149 C148 1.203 . S
O150 C143 1.185 . S
O150 Zn146 2.086 . S
C151 O147 1.278 . S
C151 O152 1.211 . S
O152 C151 1.211 . S
C153 O145 1.284 . S
C153 O154 1.273 . S
O154 C153 1.273 . S
O155 Zn146 1.977 . S
O155 C148 1.267 . S
C156 O157 1.160 . S
C156 O163 1.185 . S
O157 C156 1.160 . S
O158 Zn159 1.899 . S
O158 C166 1.284 . S
Zn159 O158 1.899 . S
Zn159 O160 2.032 . S
Zn159 O163 2.086 . S
Zn159 O168 1.977 . S
O160 Zn159 2.032 . S
O160 C164 1.278 . S
C161 O162 1.203 . S
C161 O168 1.267 . S
O162 C161 1.203 . S
O163 C156 1.185 . S
O163 Zn159 2.086 . S
C164 O160 1.278 . S
C164 O165 1.211 . S
O165 C164 1.211 . S
C166 O158 1.284 . S
C166 O167 1.273 . S
O167 C166 1.273 . S
O168 Zn159 1.977 . S
O168 C161 1.267 . S
C169 O170 1.160 . S
C169 O176 1.185 . S
O170 C169 1.160 . S
O171 Zn172 1.899 . S
O171 C179 1.284 . S
Zn172 O171 1.899 . S
Zn172 O173 2.032 . S
Zn172 O176 2.086 . S
Zn172 O181 1.977 . S
O173 Zn172 2.032 . S
O173 C177 1.278 . S
C174 O175 1.203 . S
C174 O181 1.267 . S
O175 C174 1.203 . S
O176 C169 1.185 . S
O176 Zn172 2.086 . S
C177 O173 1.278 . S
C177 O178 1.211 . S
O178 C177 1.211 . S
C179 O171 1.284 . S
C179 O180 1.273 . S
O180 C179 1.273 . S
O181 Zn172 1.977 . S
O181 C174 1.267 . S
C182 O183 1.160 . S
C182 O189 1.185 . S
O183 C182 1.160 . S
O184 Zn185 1.899 . S
O184 C192 1.284 . S
Zn185 O184 1.899 . S
Zn185 O186 2.032 . S
Zn185 O189 2.086 . S
Zn185 O194 1.977 . S
O186 Zn185 2.032 . S
O186 C190 1.278 . S
C187 O188 1.203 . S
C187 O194 1.267 . S
O188 C187 1.203 . S
O189 C182 1.185 . S
O189 Zn185 2.086 . S
C190 O186 1.278 . S
C190 O191 1.211 . S
O191 C190 1.211 . S
C192 O184 1.284 . S
C192 O193 1.273 . S
O193 C192 1.273 . S
O194 Zn185 1.977 . S
O194 C187 1.267 . S
C195 O196 1.160 . S
C195 O202 1.185 . S
O196 C195 1.160 . S
O197 Zn198 1.899 . S
O197 C205 1.284 . S
Zn198 O197 1.899 . S
Zn198 O199 2.032 . S
Zn198 O202 2.086 . S
Zn198 O207 1.977 . S
O199 Zn198 2.032 . S
O199 C203 1.278 . S
C200 O201 1.203 . S
C200 O207 1.267 . S
O201 C200 1.203 . S
O202 C195 1.185 . S
O202 Zn198 2.086 . S
C203 O199 1.278 . S
C203 O204 1.211 . S
O204 C203 1.211 . S
C205 O197 1.284 . S
C205 O206 1.273 . S
O206 C205 1.273 . S
O207 Zn198 1.977 . S
O207 C200 1.267 . S
C208 O209 1.160 . S
C208 O215 1.185 . S
O209 C208 1.160 . S
O210 Zn211 1.899 . S
O210 C218 1.284 . S
Zn211 O210 1.899 . S
Zn211 O212 2.032 . S
Zn211 O215 2.086 . S
Zn211 O220 1.977 . S
O212 Zn211 2.032 . S
O212 C216 1.278 . S
C213 O214 1.203 . S
C213 O220 1.267 . S
O214 C213 1.203 . S
O215 C208 1.185 . S
O215 Zn211 2.086 . S
C216 O212 1.278 . S
C216 O217 1.211 . S
O217 C216 1.211 . S
C218 O210 1.284 . S
C218 O219 1.273 . S
O219 C218 1.273 . S
O220 Zn211 1.977 . S
O220 C213 1.267 . S
C221 O222 1.160 . S
C221 O228 1.185 . S
O222 C221 1.160 . S
O223 Zn224 1.899 . S
O223 C231 1.284 . S
Zn224 O223 1.899 . S
Zn224 O225 2.032 . S
Zn224 O228 2.086 . S
Zn224 O233 1.977 . S
O225 Zn224 2.032 . S
O225 C229 1.278 . S
C226 O227 1.203 . S
C226 O233 1.267 . S
O227 C226 1.203 . S
O228 C221 1.185 . S
O228 Zn224 2.086 . S
C229 O225 1.278 . S
C229 O230 1.211 . S
O230 C229 1.211 . S
C231 O223 1.284 . S
C231 O232 1.273 . S
O232 C231 1.273 . S
O233 Zn224 1.977 . S
O233 C226 1.267 . S
C234 O235 1.160 . S
C234 O241 1.185 . S
O235 C234 1.160 . S
O236 Zn237 1.899 . S
O236 C244 1.284 . S
Zn237 O236 1.899 . S
Zn237 O238 2.032 . S
Zn237 O241 2.086 . S
Zn237 O246 1.977 . S
O238 Zn237 2.032 . S
O238 C242 1.278 . S
C239 O240 1.203 . S
C239 O246 1.267 . S
O240 C239 1.203 . S
O241 C234 1.185 . S
O241 Zn237 2.086 . S
C242 O238 1.278 . S
C242 O243 1.211 . S
O243 C242 1.211 . S
C244 O236 1.284 . S
C244 O245 1.273 . S
O245 C244 1.273 . S
O246 Zn237 1.977 . S
O246 C239 1.267 . S
C247 O248 1.160 . S
C247 O254 1.185 . S
O248 C247 1.160 . S
O249 Zn250 1.899 . S
O249 C257 1.284 . S
Zn250 O249 1.899 . S
Zn250 O251 2.032 . S
Zn250 O254 2.086 . S
Zn250 O259 1.977 . S
O251 Zn250 2.032 . S
O251 C255 1.278 . S
C252 O253 1.203 . S
C252 O259 1.267 . S
O253 C252 1.203 . S
O254 C247 1.185 . S
O254 Zn250 2.086 . S
C255 O251 1.278 . S
C255 O256 1.211 . S
O256 C255 1.211 . S
C257 O249 1.284 . S
C257 O258 1.273 . S
O258 C257 1.273 . S
O259 Zn250 1.977 . S
O259 C252 1.267 . S
C260 O261 1.160 . S
C260 O267 1.185 . S
O261 C260 1.160 . S
O262 Zn263 1.899 . S
O262 C270 1.284 . S
Zn263 O262 1.899 . S
Zn263 O264 2.032 . S
Zn263 O267 2.086 . S
Zn263 O272 1.977 . S
O264 Zn263 2.032 . S
O264 C268 1.278 . S
C265 O266 1.203 . S
C265 O272 1.267 . S
O266 C265 1.203 . S
O267 C260 1.185 . S
O267 Zn263 2.086 . S
C268 O264 1.278 . S
C268 O269 1.211 . S
O269 C268 1.211 . S
C270 O262 1.284 . S
C270 O271 1.273 . S
O271 C270 1.273 . S
O272 Zn263 1.977 . S
O272 C265 1.267 . S
C273 O274 1.160 . S
C273 O280 1.185 . S
O274 C273 1.160 . S
O275 Zn276 1.899 . S
O275 C283 1.284 . S
Zn276 O275 1.899 . S
Zn276 O277 2.032 . S
Zn276 O280 2.086 . S
Zn276 O285 1.977 . S
O277 Zn276 2.032 . S
O277 C281 1.278 . S
C278 O279 1.203 . S
C278 O285 1.267 . S
O279 C278 1.203 . S
O280 C273 1.185 . S
O280 Zn276 2.086 . S
C281 O277 1.278 . S
C281 O282 1.211 . S
O282 C281 1.211 . S
C283 O275 1.284 . S
C283 O284 1.273 . S
O284 C283 1.273 . S
O285 Zn276 1.977 . S
O285 C278 1.267 . S
C286 O287 1.160 . S
C286 O293 1.185 . S
O287 C286 1.160 . S
O288 Zn289 1.899 . S
O288 C296 1.284 . S
Zn289 O288 1.899 . S
Zn289 O290 2.032 . S
Zn289 O293 2.086 . S
Zn289 O298 1.977 . S
O290 Zn289 2.032 . S
O290 C294 1.278 . S
C291 O292 1.203 . S
C291 O298 1.267 . S
O292 C291 1.203 . S
O293 C286 1.185 . S
O293 Zn289 2.086 . S
C294 O290 1.278 . S
C294 O295 1.211 . S
O295 C294 1.211 . S
C296 O288 1.284 . S
C296 O297 1.273 . S
O297 C296 1.273 . S
O298 Zn289 1.977 . S
O298 C291 1.267 . S
C299 O300 1.160 . S
C299 O306 1.185 . S
O300 C299 1.160 . S
O301 Zn302 1.899 . S
O301 C309 1.284 . S
Zn302 O301 1.899 . S
Zn302 O303 2.032 . S
Zn302 O306 2.086 . S
Zn302 O311 1.977 . S
O303 Zn302 2.032 . S
O303 C307 1.278 . S
C304 O305 1.203 . S
C304 O311 1.267 . S
O305 C304 1.203 . S
O306 C299 1.185 . S
O306 Zn302 2.086 . S
C307 O303 1.278 . S
C307 O308 1.211 . S
O308 C307 1.211 . S
C309 O301 1.284 . S
C309 O310 1.273 . S
O310 C309 1.273 . S
O311 Zn302 1.977 . S
O311 C304 1.267 . S
C312 O313 1.160 . S
C312 O319 1.185 . S
O313 C312 1.160 . S
O314 Zn315 1.899 . S
O314 C322 1.284 . S
Zn315 O314 1.899 . S
Zn315 O316 2.032 . S
Zn315 O319 2.086 . S
Zn315 O324 1.977 . S
O316 Zn315 2.032 . S
O316 C320 1.278 . S
C317 O318 1.203 . S
C317 O324 1.267 . S
O318 C317 1.203 . S
O319 C312 1.185 . S
O319 Zn315 2.086 . S
C320 O316 1.278 . S
C320 O321 1.211 . S
O321 C320 1.211 . S
C322 O314 1.284 . S
C322 O323 1.273 . S
O323 C322 1.273 . S
O324 Zn315 1.977 . S
O324 C317 1.267 . S
C325 O326 1.160 . S
C325 O332 1.185 . S
O326 C325 1.160 . S
O327 Zn328 1.899 . S
O327 C335 1.284 . S
Zn328 O327 1.899 . S
Zn328 O329 2.032 . S
Zn328 O332 2.086 . S
Zn328 O337 1.977 . S
O329 Zn328 2.032 . S
O329 C333 1.278 . S
C330 O331 1.203 . S
C330 O337 1.267 . S
O331 C330 1.203 . S
O332 C325 1.185 . S
O332 Zn328 2.086 . S
C333 O329 1.278 . S
C333 O334 1.211 . S
O334 C333 1.211 . S
C335 O327 1.284 . S
C335 O336 1.273 . S
O336 C335 1.273 . S
O337 Zn328 1.977 . S
O337 C330 1.267 . S
C338 O339 1.160 . S
C338 O345 1.185 . S
O339 C338 1.160 . S
O340 Zn341 1.899 . S
O340 C348 1.284 . S
Zn341 O340 1.899 . S
Zn341 O342 2.032 . S
Zn341 O345 2.086 . S
Zn341 O350 1.977 . S
O342 Zn341 2.032 . S
O342 C346 1.278 . S
C343 O344 1.203 . S
C343 O350 1.267 . S
O344 C343 1.203 . S
O345 C338 1.185 . S
O345 Zn341 2.086 . S
C346 O342 1.278 . S
C346 O347 1.211 . S
O347 C346 1.211 . S
C348 O340 1.284 . S
C348 O349 1.273 . S
O349 C348 1.273 . S
O350 Zn341 1.977 . S
O350 C343 1.267 . S
C351 O352 1.160 . S
C351 O358 1.185 . S
O352 C351 1.160 . S
O353 Zn354 1.899 . S
O353 C361 1.284 . S
Zn354 O353 1.899 . S
Zn354 O355 2.032 . S
Zn354 O358 2.086 . S
Zn354 O363 1.977 . S
O355 Zn354 2.032 . S
O355 C359 1.278 . S
C356 O357 1.203 . S
C356 O363 1.267 . S
O357 C356 1.203 . S
O358 C351 1.185 . S
O358 Zn354 2.086 . S
C359 O355 1.278 . S
C359 O360 1.211 . S
O360 C359 1.211 . S
C361 O353 1.284 . S
C361 O362 1.273 . S
O362 C361 1.273 . S
O363 Zn354 1.977 . S
O363 C356 1.267 . S
C364 O365 1.160 . S
C364 O371 1.185 . S
O365 C364 1.160 . S
O366 Zn367 1.899 . S
O366 C374 1.284 . S
Zn367 O366 1.899 . S
Zn367 O368 2.032 . S
Zn367 O371 2.086 . S
Zn367 O376 1.977 . S
O368 Zn367 2.032 . S
O368 C372 1.278 . S
C369 O370 1.203 . S
C369 O376 1.267 . S
O370 C369 1.203 . S
O371 C364 1.185 . S
O371 Zn367 2.086 . S
C372 O368 1.278 . S
C372 O373 1.211 . S
O373 C372 1.211 . S
C374 O366 1.284 . S
C374 O375 1.273 . S
O375 C374 1.273 . S
O376 Zn367 1.977 . S
O376 C369 1.267 . S
C377 O378 1.160 . S
C377 O384 1.185 . S
O378 C377 1.160 . S
O379 Zn380 1.899 . S
O379 C387 1.284 . S
Zn380 O379 1.899 . S
Zn380 O381 2.032 . S
Zn380 O384 2.086 . S
Zn380 O389 1.977 . S
O381 Zn380 2.032 . S
O381 C385 1.278 . S
C382 O383 1.203 . S
C382 O389 1.267 . S
O383 C382 1.203 . S
O384 C377 1.185 . S
O384 Zn380 2.086 . S
C385 O381 1.278 . S
C385 O386 1.211 . S
O386 C385 1.211 . S
C387 O379 1.284 . S
C387 O388 1.273 . S
O388 C387 1.273 . S
O389 Zn380 1.977 . S
O389 C382 1.267 . S
C390 O391 1.160 . S
C390 O397 1.185 . S
O391 C390 1.160 . S
O392 Zn393 1.899 . S
O392 C400 1.284 . S
Zn393 O392 1.899 . S
Zn393 O394 2.032 . S
Zn393 O397 2.086 . S
Zn393 O402 1.977 . S
O394 Zn393 2.032 . S
O394 C398 1.278 . S
C395 O396 1.203 . S
C395 O402 1.267 . S
O396 C395 1.203 . S
O397 C390 1.185 . S
O397 Zn393 2.086 . S
C398 O394 1.278 . S
C398 O399 1.211 . S
O399 C398 1.211 . S
C400 O392 1.284 . S
C400 O401 1.273 . S
O401 C400 1.273 . S
O402 Zn393 1.977 . S
O402 C395 1.267 . S
C403 O404 1.160 . S
C403 O410 1.185 . S
O404 C403 1.160 . S
O405 Zn406 1.899 . S
O405 C413 1.284 . S
Zn406 O405 1.899 . S
Zn406 O407 2.032 . S
Zn406 O410 2.086 . S
Zn406 O415 1.977 . S
O407 Zn406 2.032 . S
O407 C411 1.278 . S
C408 O409 1.203 . S
C408 O415 1.267 . S
O409 C408 1.203 . S
O410 C403 1.185 . S
O410 Zn406 2.086 . S
C411 O407 1.278 . S
C411 O412 1.211 . S
O412 C411 1.211 . S
C413 O405 1.284 . S
C413 O414 1.273 . S
O414 C413 1.273 . S
O415 Zn406 1.977 . S
O415 C408 1.267 . S
C416 O417 1.160 . S
C416 O423 1.185 . S
O417 C416 1.160 . S
O418 Zn419 1.899 . S
O418 C426 1.284 . S
Zn419 O418 1.899 . S
Zn419 O420 2.032 . S
Zn419 O423 2.086 . S
Zn419 O428 1.977 . S
O420 Zn419 2.032 . S
O420 C424 1.278 . S
C421 O422 1.203 . S
C421 O428 1.267 . S
O422 C421 1.203 . S
O423 C416 1.185 . S
O423 Zn419 2.086 . S
C424 O420 1.278 . S
C424 O425 1.211 . S
O425 C424 1.211 . S
C426 O418 1.284 . S
C426 O427 1.273 . S
O427 C426 1.273 . S
O428 Zn419 1.977 . S
O428 C421 1.267 . S
C429 O430 1.160 . S
C429 O436 1.185 . S
O430 C429 1.160 . S
O431 Zn432 1.899 . S
O431 C439 1.284 . S
Zn432 O431 1.899 . S
Zn432 O433 2.032 . S
Zn432 O436 2.086 . S
Zn432 O441 1.977 . S
O433 Zn432 2.032 . S
O433 C437 1.278 . S
C434 O435 1.203 . S
C434 O441 1.267 . S
O435 C434 1.203 . S
O436 C429 1.185 . S
O436 Zn432 2.086 . S
C437 O433 1.278 . S
C437 O438 1.211 . S
O438 C437 1.211 . S
C439 O431 1.284 . S
C439 O440 1.273 . S
O440 C439 1.273 . S
O441 Zn432 1.977 . S
O441 C434 1.267 . S
C442 O443 1.160 . S
C442 O449 1.185 . S
O443 C442 1.160 . S
O444 Zn445 1.899 . S
O444 C452 1.284 . S
Zn445 O444 1.899 . S
Zn445 O446 2.032 . S
Zn445 O449 2.086 . S
Zn445 O454 1.977 . S
O446 Zn445 2.032 . S
O446 C450 1.278 . S
C447 O448 1.203 . S
C447 O454 1.267 . S
O448 C447 1.203 . S
O449 C442 1.185 . S
O449 Zn445 2.086 . S
C450 O446 1.278 . S
C450 O451 1.211 . S
O451 C450 1.211 . S
C452 O444 1.284 . S
C452 O453 1.273 . S
O453 C452 1.273 . S
O454 Zn445 1.977 . S
O454 C447 1.267 . S
C455 O456 1.160 . S
C455 O462 1.185 . S
O456 C455 1.160 . S
O457 Zn458 1.899 . S
O457 C465 1.284 . S
Zn458 O457 1.899 . S
Zn458 O459 2.032 . S
Zn458 O462 2.086 . S
Zn458 O467 1.977 . S
O459 Zn458 2.032 . S
O459 C463 1.278 . S
C460 O461 1.203 . S
C460 O467 1.267 . S
O461 C460 1.203 . S
O462 C455 1.185 . S
O462 Zn458 2.086 . S
C463 O459 1.278 . S
C463 O464 1.211 . S
O464 C463 1.211 . S
C465 O457 1.284 . S
C465 O466 1.273 . S
O466 C465 1.273 . S
O467 Zn458 1.977 . S
O467 C460 1.267 . S
C468 C469 1.369 . S
C468 C470 1.419 . S
C468 H472 0.930 . S
C469 C468 1.369 . S
C469 C478 1.429 . S
C470 C468 1.419 . S
C470 C471 1.363 . S
C470 H473 0.929 . S
C471 C470 1.363 . S
C471 C477 1.428 . S
H472 C468 0.930 . S
H473 C470 0.929 . S
S474 N475 1.613 . S
S474 N476 1.610 . S
N475 S474 1.613 . S
N475 C478 1.350 . S
N476 S474 1.610 . S
N476 C477 1.351 . S
C477 C471 1.428 . S
C477 N476 1.351 . S
C477 C478 1.434 . S
C478 C469 1.429 . S
C478 N475 1.350 . S
C478 C477 1.434 . S
C479 C480 1.369 . S
C479 C481 1.419 . S
C479 H483 0.930 . S
C480 C479 1.369 . S
C480 C489 1.429 . S
C481 C479 1.419 . S
C481 C482 1.363 . S
C481 H484 0.929 . S
C482 C481 1.363 . S
C482 C488 1.428 . S
H483 C479 0.930 . S
H484 C481 0.929 . S
S485 N486 1.613 . S
S485 N487 1.610 . S
N486 S485 1.613 . S
N486 C489 1.350 . S
N487 S485 1.610 . S
N487 C488 1.351 . S
C488 C482 1.428 . S
C488 N487 1.351 . S
C488 C489 1.434 . S
C489 C480 1.429 . S
C489 N486 1.350 . S
C489 C488 1.434 . S
C490 C491 1.369 . S
C490 C492 1.419 . S
C490 H494 0.930 . S
C491 C490 1.369 . S
C491 C500 1.429 . S
C492 C490 1.419 . S
C492 C493 1.363 . S
C492 H495 0.929 . S
C493 C492 1.363 . S
C493 C499 1.428 . S
H494 C490 0.930 . S
H495 C492 0.929 . S
S496 N497 1.613 . S
S496 N498 1.610 . S
N497 S496 1.613 . S
N497 C500 1.350 . S
N498 S496 1.610 . S
N498 C499 1.351 . S
C499 C493 1.428 . S
C499 N498 1.351 . S
C499 C500 1.434 . S
C500 C491 1.429 . S
C500 N497 1.350 . S
C500 C499 1.434 . S
C501 C502 1.369 . S
C501 C503 1.419 . S
C501 H505 0.930 . S
C502 C501 1.369 . S
C502 C511 1.429 . S
C503 C501 1.419 . S
C503 C504 1.363 . S
C503 H506 0.929 . S
C504 C503 1.363 . S
C504 C510 1.428 . S
H505 C501 0.930 . S
H506 C503 0.929 . S
S507 N508 1.613 . S
S507 N509 1.610 . S
N508 S507 1.613 . S
N508 C511 1.350 . S
N509 S507 1.610 . S
N509 C510 1.351 . S
C510 C504 1.428 . S
C510 N509 1.351 . S
C510 C511 1.434 . S
C511 C502 1.429 . S
C511 N508 1.350 . S
C511 C510 1.434 . S
C512 C513 1.369 . S
C512 C514 1.419 . S
C512 H516 0.930 . S
C513 C512 1.369 . S
C513 C522 1.429 . S
C514 C512 1.419 . S
C514 C515 1.363 . S
C514 H517 0.929 . S
C515 C514 1.363 . S
C515 C521 1.428 . S
H516 C512 0.930 . S
H517 C514 0.929 . S
S518 N519 1.613 . S
S518 N520 1.610 . S
N519 S518 1.613 . S
N519 C522 1.350 . S
N520 S518 1.610 . S
N520 C521 1.351 . S
C521 C515 1.428 . S
C521 N520 1.351 . S
C521 C522 1.434 . S
C522 C513 1.429 . S
C522 N519 1.350 . S
C522 C521 1.434 . S
C523 C524 1.369 . S
C523 C525 1.419 . S
C523 H527 0.930 . S
C524 C523 1.369 . S
C524 C533 1.429 . S
C525 C523 1.419 . S
C525 C526 1.363 . S
C525 H528 0.929 . S
C526 C525 1.363 . S
C526 C532 1.428 . S
H527 C523 0.930 . S
H528 C525 0.929 . S
S529 N530 1.613 . S
S529 N531 1.610 . S
N530 S529 1.613 . S
N530 C533 1.350 . S
N531 S529 1.610 . S
N531 C532 1.351 . S
C532 C526 1.428 . S
C532 N531 1.351 . S
C532 C533 1.434 . S
C533 C524 1.429 . S
C533 N530 1.350 . S
C533 C532 1.434 . S
C534 C535 1.369 . S
C534 C536 1.419 . S
C534 H538 0.930 . S
C535 C534 1.369 . S
C535 C544 1.429 . S
C536 C534 1.419 . S
C536 C537 1.363 . S
C536 H539 0.929 . S
C537 C536 1.363 . S
C537 C543 1.428 . S
H538 C534 0.930 . S
H539 C536 0.929 . S
S540 N541 1.613 . S
S540 N542 1.610 . S
N541 S540 1.613 . S
N541 C544 1.350 . S
N542 S540 1.610 . S
N542 C543 1.351 . S
C543 C537 1.428 . S
C543 N542 1.351 . S
C543 C544 1.434 . S
C544 C535 1.429 . S
C544 N541 1.350 . S
C544 C543 1.434 . S
C545 C546 1.369 . S
C545 C547 1.419 . S
C545 H549 0.930 . S
C546 C545 1.369 . S
C546 C555 1.429 . S
C547 C545 1.419 . S
C547 C548 1.363 . S
C547 H550 0.929 . S
C548 C547 1.363 . S
C548 C554 1.428 . S
H549 C545 0.930 . S
H550 C547 0.929 . S
S551 N552 1.613 . S
S551 N553 1.610 . S
N552 S551 1.613 . S
N552 C555 1.350 . S
N553 S551 1.610 . S
N553 C554 1.351 . S
C554 C548 1.428 . S
C554 N553 1.351 . S
C554 C555 1.434 . S
C555 C546 1.429 . S
C555 N552 1.350 . S
C555 C554 1.434 . S
C556 C557 1.369 . S
C556 C558 1.419 . S
C556 H560 0.930 . S
C557 C556 1.369 . S
C557 C566 1.429 . S
C558 C556 1.419 . S
C558 C559 1.363 . S
C558 H561 0.929 . S
C559 C558 1.363 . S
C559 C565 1.428 . S
H560 C556 0.930 . S
H561 C558 0.929 . S
S562 N563 1.613 . S
S562 N564 1.610 . S
N563 S562 1.613 . S
N563 C566 1.350 . S
N564 S562 1.610 . S
N564 C565 1.351 . S
C565 C559 1.428 . S
C565 N564 1.351 . S
C565 C566 1.434 . S
C566 C557 1.429 . S
C566 N563 1.350 . S
C566 C565 1.434 . S
C567 C568 1.369 . S
C567 C569 1.419 . S
C567 H571 0.930 . S
C568 C567 1.369 . S
C568 C577 1.429 . S
C569 C567 1.419 . S
C569 C570 1.363 . S
C569 H572 0.929 . S
C570 C569 1.363 . S
C570 C576 1.428 . S
H571 C567 0.930 . S
H572 C569 0.929 . S
S573 N574 1.613 . S
S573 N575 1.610 . S
N574 S573 1.613 . S
N574 C577 1.350 . S
N575 S573 1.610 . S
N575 C576 1.351 . S
C576 C570 1.428 . S
C576 N575 1.351 . S
C576 C577 1.434 . S
C577 C568 1.429 . S
C577 N574 1.350 . S
C577 C576 1.434 . S
C578 C579 1.369 . S
C578 C580 1.419 . S
C578 H582 0.930 . S
C579 C578 1.369 . S
C579 C588 1.429 . S
C580 C578 1.419 . S
C580 C581 1.363 . S
C580 H583 0.929 . S
C581 C580 1.363 . S
C581 C587 1.428 . S
H582 C578 0.930 . S
H583 C580 0.929 . S
S584 N585 1.613 . S
S584 N586 1.610 . S
N585 S584 1.613 . S
N585 C588 1.350 . S
N586 S584 1.610 . S
N586 C587 1.351 . S
C587 C581 1.428 . S
C587 N586 1.351 . S
C587 C588 1.434 . S
C588 C579 1.429 . S
C588 N585 1.350 . S
C588 C587 1.434 . S
C589 C590 1.369 . S
C589 C591 1.419 . S
C589 H593 0.930 . S
C590 C589 1.369 . S
C590 C599 1.429 . S
C591 C589 1.419 . S
C591 C592 1.363 . S
C591 H594 0.929 . S
C592 C591 1.363 . S
C592 C598 1.428 . S
H593 C589 0.930 . S
H594 C591 0.929 . S
S595 N596 1.613 . S
S595 N597 1.610 . S
N596 S595 1.613 . S
N596 C599 1.350 . S
N597 S595 1.610 . S
N597 C598 1.351 . S
C598 C592 1.428 . S
C598 N597 1.351 . S
C598 C599 1.434 . S
C599 C590 1.429 . S
C599 N596 1.350 . S
C599 C598 1.434 . S
C600 C601 1.369 . S
C600 C602 1.419 . S
C600 H604 0.930 . S
C601 C600 1.369 . S
C601 C610 1.429 . S
C602 C600 1.419 . S
C602 C603 1.363 . S
C602 H605 0.929 . S
C603 C602 1.363 . S
C603 C609 1.428 . S
H604 C600 0.930 . S
H605 C602 0.929 . S
S606 N607 1.613 . S
S606 N608 1.610 . S
N607 S606 1.613 . S
N607 C610 1.350 . S
N608 S606 1.610 . S
N608 C609 1.351 . S
C609 C603 1.428 . S
C609 N608 1.351 . S
C609 C610 1.434 . S
C610 C601 1.429 . S
C610 N607 1.350 . S
C610 C609 1.434 . S
C611 C612 1.369 . S
C611 C613 1.419 . S
C611 H615 0.930 . S
C612 C611 1.369 . S
C612 C621 1.429 . S
C613 C611 1.419 . S
C613 C614 1.363 . S
C613 H616 0.929 . S
C614 C613 1.363 . S
C614 C620 1.428 . S
H615 C611 0.930 . S
H616 C613 0.929 . S
S617 N618 1.613 . S
S617 N619 1.610 . S
N618 S617 1.613 . S
N618 C621 1.350 . S
N619 S617 1.610 . S
N619 C620 1.351 . S
C620 C614 1.428 . S
C620 N619 1.351 . S
C620 C621 1.434 . S
C621 C612 1.429 . S
C621 N618 1.350 . S
C621 C620 1.434 . S
C622 C623 1.369 . S
C622 C624 1.419 . S
C622 H626 0.930 . S
C623 C622 1.369 . S
C623 C632 1.429 . S
C624 C622 1.419 . S
C624 C625 1.363 . S
C624 H627 0.929 . S
C625 C624 1.363 . S
C625 C631 1.428 . S
H626 C622 0.930 . S
H627 C624 0.929 . S
S628 N629 1.613 . S
S628 N630 1.610 . S
N629 S628 1.613 . S
N629 C632 1.350 . S
N630 S628 1.610 . S
N630 C631 1.351 . S
C631 C625 1.428 . S
C631 N630 1.351 . S
C631 C632 1.434 . S
C632 C623 1.429 . S
C632 N629 1.350 . S
C632 C631 1.434 . S
C633 C634 1.369 . S
C633 C635 1.419 . S
C633 H637 0.930 . S
C634 C633 1.369 . S
C634 C643 1.429 . S
C635 C633 1.419 . S
C635 C636 1.363 . S
C635 H638 0.929 . S
C636 C635 1.363 . S
C636 C642 1.428 . S
H637 C633 0.930 . S
H638 C635 0.929 . S
S639 N640 1.613 . S
S639 N641 1.610 . S
N640 S639 1.613 . S
N640 C643 1.350 . S
N641 S639 1.610 . S
N641 C642 1.351 . S
C642 C636 1.428 . S
C642 N641 1.351 . S
C642 C643 1.434 . S
C643 C634 1.429 . S
C643 N640 1.350 . S
C643 C642 1.434 . S
C644 C645 1.369 . S
C644 C646 1.419 . S
C644 H648 0.930 . S
C645 C644 1.369 . S
C645 C654 1.429 . S
C646 C644 1.419 . S
C646 C647 1.363 . S
C646 H649 0.929 . S
C647 C646 1.363 . S
C647 C653 1.428 . S
H648 C644 0.930 . S
H649 C646 0.929 . S
S650 N651 1.613 . S
S650 N652 1.610 . S
N651 S650 1.613 . S
N651 C654 1.350 . S
N652 S650 1.610 . S
N652 C653 1.351 . S
C653 C647 1.428 . S
C653 N652 1.351 . S
C653 C654 1.434 . S
C654 C645 1.429 . S
C654 N651 1.350 . S
C654 C653 1.434 . S
C655 C656 1.369 . S
C655 C657 1.419 . S
C655 H659 0.930 . S
C656 C655 1.369 . S
C656 C665 1.429 . S
C657 C655 1.419 . S
C657 C658 1.363 . S
C657 H660 0.929 . S
C658 C657 1.363 . S
C658 C664 1.428 . S
H659 C655 0.930 . S
H660 C657 0.929 . S
S661 N662 1.613 . S
S661 N663 1.610 . S
N662 S661 1.613 . S
N662 C665 1.350 . S
N663 S661 1.610 . S
N663 C664 1.351 . S
C664 C658 1.428 . S
C664 N663 1.351 . S
C664 C665 1.434 . S
C665 C656 1.429 . S
C665 N662 1.350 . S
C665 C664 1.434 . S
C666 C667 1.369 1_655 S
C666 C668 1.419 . S
C666 H670 0.930 . S
C667 C666 1.369 1_455 S
C667 C676 1.429 . S
C668 C666 1.419 . S
C668 C669 1.363 . S
C668 H671 0.929 . S
C669 C668 1.363 . S
C669 C675 1.428 1_655 S
H670 C666 0.930 . S
H671 C668 0.929 . S
S672 N673 1.613 . S
S672 N674 1.610 . S
N673 S672 1.613 . S
N673 C676 1.350 . S
N674 S672 1.610 . S
N674 C675 1.351 . S
C675 C669 1.428 1_455 S
C675 N674 1.351 . S
C675 C676 1.434 . S
C676 C667 1.429 . S
C676 N673 1.350 . S
C676 C675 1.434 . S
C677 C678 1.369 . S
C677 C679 1.419 . S
C677 H681 0.930 . S
C678 C677 1.369 . S
C678 C687 1.429 . S
C679 C677 1.419 . S
C679 C680 1.363 . S
C679 H682 0.929 . S
C680 C679 1.363 . S
C680 C686 1.428 . S
H681 C677 0.930 . S
H682 C679 0.929 . S
S683 N684 1.613 . S
S683 N685 1.610 . S
N684 S683 1.613 . S
N684 C687 1.350 . S
N685 S683 1.610 . S
N685 C686 1.351 . S
C686 C680 1.428 . S
C686 N685 1.351 . S
C686 C687 1.434 . S
C687 C678 1.429 . S
C687 N684 1.350 . S
C687 C686 1.434 . S
C688 C689 1.369 . S
C688 C690 1.419 . S
C688 H692 0.930 . S
C689 C688 1.369 . S
C689 C698 1.429 . S
C690 C688 1.419 . S
C690 C691 1.363 . S
C690 H693 0.929 . S
C691 C690 1.363 . S
C691 C697 1.428 . S
H692 C688 0.930 . S
H693 C690 0.929 . S
S694 N695 1.613 . S
S694 N696 1.610 . S
N695 S694 1.613 . S
N695 C698 1.350 . S
N696 S694 1.610 . S
N696 C697 1.351 . S
C697 C691 1.428 . S
C697 N696 1.351 . S
C697 C698 1.434 . S
C698 C689 1.429 . S
C698 N695 1.350 . S
C698 C697 1.434 . S
C699 C700 1.369 . S
C699 C701 1.419 . S
C699 H703 0.930 . S
C700 C699 1.369 . S
C700 C709 1.429 1_545 S
C701 C699 1.419 . S
C701 C702 1.363 1_545 S
C701 H704 0.929 . S
C702 C701 1.363 1_565 S
C702 C708 1.428 . S
H703 C699 0.930 . S
H704 C701 0.929 . S
S705 N706 1.613 . S
S705 N707 1.610 . S
N706 S705 1.613 . S
N706 C709 1.350 . S
N707 S705 1.610 . S
N707 C708 1.351 . S
C708 C702 1.428 . S
C708 N707 1.351 . S
C708 C709 1.434 . S
C709 C700 1.429 1_565 S
C709 N706 1.350 . S
C709 C708 1.434 . S
C710 C711 1.369 . S
C710 C712 1.419 . S
C710 H714 0.930 . S
C711 C710 1.369 . S
C711 C720 1.429 . S
C712 C710 1.419 . S
C712 C713 1.363 . S
C712 H715 0.929 . S
C713 C712 1.363 . S
C713 C719 1.428 . S
H714 C710 0.930 . S
H715 C712 0.929 . S
S716 N717 1.613 . S
S716 N718 1.610 . S
N717 S716 1.613 . S
N717 C720 1.350 . S
N718 S716 1.610 . S
N718 C719 1.351 . S
C719 C713 1.428 . S
C719 N718 1.351 . S
C719 C720 1.434 . S
C720 C711 1.429 . S
C720 N717 1.350 . S
C720 C719 1.434 . S
C721 C722 1.369 . S
C721 C723 1.419 . S
C721 H725 0.930 . S
C722 C721 1.369 . S
C722 C731 1.429 . S
C723 C721 1.419 . S
C723 C724 1.363 . S
C723 H726 0.929 . S
C724 C723 1.363 . S
C724 C730 1.428 . S
H725 C721 0.930 . S
H726 C723 0.929 . S
S727 N728 1.613 . S
S727 N729 1.610 . S
N728 S727 1.613 . S
N728 C731 1.350 . S
N729 S727 1.610 . S
N729 C730 1.351 . S
C730 C724 1.428 . S
C730 N729 1.351 . S
C730 C731 1.434 . S
C731 C722 1.429 . S
C731 N728 1.350 . S
C731 C730 1.434 . S
C732 C733 1.369 . S
C732 C734 1.419 . S
C732 H736 0.930 . S
C733 C732 1.369 . S
C733 C742 1.429 . S
C734 C732 1.419 . S
C734 C735 1.363 . S
C734 H737 0.929 . S
C735 C734 1.363 . S
C735 C741 1.428 . S
H736 C732 0.930 . S
H737 C734 0.929 . S
S738 N739 1.613 . S
S738 N740 1.610 1_655 S
N739 S738 1.613 . S
N739 C742 1.350 1_655 S
N740 S738 1.610 1_455 S
N740 C741 1.351 . S
C741 C735 1.428 . S
C741 N740 1.351 . S
C741 C742 1.434 . S
C742 C733 1.429 . S
C742 N739 1.350 1_455 S
C742 C741 1.434 . S
C743 C744 1.369 . S
C743 C745 1.419 . S
C743 H747 0.930 . S
C744 C743 1.369 . S
C744 C753 1.429 . S
C745 C743 1.419 . S
C745 C746 1.363 . S
C745 H748 0.929 . S
C746 C745 1.363 . S
C746 C752 1.428 . S
H747 C743 0.930 . S
H748 C745 0.929 . S
S749 N750 1.613 . S
S749 N751 1.610 . S
N750 S749 1.613 . S
N750 C753 1.350 . S
N751 S749 1.610 . S
N751 C752 1.351 . S
C752 C746 1.428 . S
C752 N751 1.351 . S
C752 C753 1.434 . S
C753 C744 1.429 . S
C753 N750 1.350 . S
C753 C752 1.434 . S
C754 C755 1.369 1_565 S
C754 C756 1.419 . S
C754 H758 0.930 . S
C755 C754 1.369 1_545 S
C755 C764 1.429 . S
C756 C754 1.419 . S
C756 C757 1.363 . S
C756 H759 0.929 . S
C757 C756 1.363 . S
C757 C763 1.428 1_565 S
H758 C754 0.930 . S
H759 C756 0.929 . S
S760 N761 1.613 . S
S760 N762 1.610 . S
N761 S760 1.613 . S
N761 C764 1.350 . S
N762 S760 1.610 . S
N762 C763 1.351 . S
C763 C757 1.428 1_545 S
C763 N762 1.351 . S
C763 C764 1.434 . S
C764 C755 1.429 . S
C764 N761 1.350 . S
C764 C763 1.434 . S
C765 C766 1.369 . S
C765 C767 1.419 . S
C765 H769 0.930 . S
C766 C765 1.369 . S
C766 C775 1.429 . S
C767 C765 1.419 . S
C767 C768 1.363 . S
C767 H770 0.929 . S
C768 C767 1.363 . S
C768 C774 1.428 . S
H769 C765 0.930 . S
H770 C767 0.929 . S
S771 N772 1.613 . S
S771 N773 1.610 . S
N772 S771 1.613 . S
N772 C775 1.350 . S
N773 S771 1.610 . S
N773 C774 1.351 . S
C774 C768 1.428 . S
C774 N773 1.351 . S
C774 C775 1.434 . S
C775 C766 1.429 . S
C775 N772 1.350 . S
C775 C774 1.434 . S
C776 C777 1.369 . S
C776 C778 1.419 . S
C776 H780 0.930 . S
C777 C776 1.369 . S
C777 C786 1.429 1_455 S
C778 C776 1.419 . S
C778 C779 1.363 1_455 S
C778 H781 0.929 . S
C779 C778 1.363 1_655 S
C779 C785 1.428 . S
H780 C776 0.930 . S
H781 C778 0.929 . S
S782 N783 1.613 . S
S782 N784 1.610 . S
N783 S782 1.613 . S
N783 C786 1.350 . S
N784 S782 1.610 . S
N784 C785 1.351 . S
C785 C779 1.428 . S
C785 N784 1.351 . S
C785 C786 1.434 . S
C786 C777 1.429 1_655 S
C786 N783 1.350 . S
C786 C785 1.434 . S
C787 C788 1.369 . S
C787 C789 1.419 . S
C787 H791 0.930 . S
C788 C787 1.369 . S
C788 C797 1.429 . S
C789 C787 1.419 . S
C789 C790 1.363 . S
C789 H792 0.929 . S
C790 C789 1.363 . S
C790 C796 1.428 . S
H791 C787 0.930 . S
H792 C789 0.929 . S
S793 N794 1.613 . S
S793 N795 1.610 . S
N794 S793 1.613 . S
N794 C797 1.350 . S
N795 S793 1.610 . S
N795 C796 1.351 . S
C796 C790 1.428 . S
C796 N795 1.351 . S
C796 C797 1.434 . S
C797 C788 1.429 . S
C797 N794 1.350 . S
C797 C796 1.434 . S
C798 C799 1.369 . S
C798 C800 1.419 . S
C798 H802 0.930 . S
C799 C798 1.369 . S
C799 C808 1.429 . S
C800 C798 1.419 . S
C800 C801 1.363 . S
C800 H803 0.929 . S
C801 C800 1.363 . S
C801 C807 1.428 . S
H802 C798 0.930 . S
H803 C800 0.929 . S
S804 N805 1.613 . S
S804 N806 1.610 . S
N805 S804 1.613 . S
N805 C808 1.350 . S
N806 S804 1.610 . S
N806 C807 1.351 . S
C807 C801 1.428 . S
C807 N806 1.351 . S
C807 C808 1.434 . S
C808 C799 1.429 . S
C808 N805 1.350 . S
C808 C807 1.434 . S
C809 C810 1.369 . S
C809 C811 1.419 . S
C809 H813 0.930 . S
C810 C809 1.369 . S
C810 C819 1.429 . S
C811 C809 1.419 . S
C811 C812 1.363 . S
C811 H814 0.929 . S
C812 C811 1.363 . S
C812 C818 1.428 . S
H813 C809 0.930 . S
H814 C811 0.929 . S
S815 N816 1.613 1_565 S
S815 N817 1.610 . S
N816 S815 1.613 1_545 S
N816 C819 1.350 . S
N817 S815 1.610 . S
N817 C818 1.351 1_565 S
C818 C812 1.428 . S
C818 N817 1.351 1_545 S
C818 C819 1.434 . S
C819 C810 1.429 . S
C819 N816 1.350 . S
C819 C818 1.434 . S
C820 C821 1.369 1_655 S
C820 C822 1.419 1_655 S
C820 H824 0.930 . S
C821 C820 1.369 1_455 S
C821 C830 1.429 . S
C822 C820 1.419 1_455 S
C822 C823 1.363 . S
C822 H825 0.929 . S
C823 C822 1.363 . S
C823 C829 1.428 . S
H824 C820 0.930 . S
H825 C822 0.929 . S
S826 N827 1.613 . S
S826 N828 1.610 . S
N827 S826 1.613 . S
N827 C830 1.350 . S
N828 S826 1.610 . S
N828 C829 1.351 . S
C829 C823 1.428 . S
C829 N828 1.351 . S
C829 C830 1.434 . S
C830 C821 1.429 . S
C830 N827 1.350 . S
C830 C829 1.434 . S
C831 C832 1.369 . S
C831 C833 1.419 . S
C831 H835 0.930 . S
C832 C831 1.369 . S
C832 C841 1.429 . S
C833 C831 1.419 . S
C833 C834 1.363 . S
C833 H836 0.929 . S
C834 C833 1.363 . S
C834 C840 1.428 . S
H835 C831 0.930 . S
H836 C833 0.929 . S
S837 N838 1.613 . S
S837 N839 1.610 . S
N838 S837 1.613 . S
N838 C841 1.350 . S
N839 S837 1.610 . S
N839 C840 1.351 . S
C840 C834 1.428 . S
C840 N839 1.351 . S
C840 C841 1.434 . S
C841 C832 1.429 . S
C841 N838 1.350 . S
C841 C840 1.434 . S
C842 C843 1.369 . S
C842 C844 1.419 . S
C842 H846 0.930 1_545 S
C843 C842 1.369 . S
C843 C852 1.429 . S
C844 C842 1.419 . S
C844 C845 1.363 . S
C844 H847 0.929 . S
C845 C844 1.363 . S
C845 C851 1.428 . S
H846 C842 0.930 1_565 S
H847 C844 0.929 . S
S848 N849 1.613 . S
S848 N850 1.610 . S
N849 S848 1.613 . S
N849 C852 1.350 . S
N850 S848 1.610 . S
N850 C851 1.351 . S
C851 C845 1.428 . S
C851 N850 1.351 . S
C851 C852 1.434 . S
C852 C843 1.429 . S
C852 N849 1.350 . S
C852 C851 1.434 . S
C853 C854 1.369 . S
C853 C855 1.419 . S
C853 H857 0.930 . S
C854 C853 1.369 . S
C854 C863 1.429 1_455 S
C855 C853 1.419 . S
C855 C856 1.363 . S
C855 H858 0.929 . S
C856 C855 1.363 . S
C856 C862 1.428 . S
H857 C853 0.930 . S
H858 C855 0.929 . S
S859 N860 1.613 . S
S859 N861 1.610 1_655 S
N860 S859 1.613 . S
N860 C863 1.350 . S
N861 S859 1.610 1_455 S
N861 C862 1.351 . S
C862 C856 1.428 . S
C862 N861 1.351 . S
C862 C863 1.434 1_455 S
C863 C854 1.429 1_655 S
C863 N860 1.350 . S
C863 C862 1.434 1_655 S
C864 C865 1.369 . S
C864 C866 1.419 1_554 S
C864 H868 0.930 1_455 S
C865 C864 1.369 . S
C865 C874 1.429 . S
C866 C864 1.419 1_556 S
C866 C867 1.363 . S
C866 H869 0.929 1_455 S
C867 C866 1.363 . S
C867 C873 1.428 . S
H868 C864 0.930 1_655 S
H869 C866 0.929 1_655 S
S870 N871 1.613 1_556 S
S870 N872 1.610 . S
N871 S870 1.613 1_554 S
N871 C874 1.350 . S
N872 S870 1.610 . S
N872 C873 1.351 . S
C873 C867 1.428 . S
C873 N872 1.351 . S
C873 C874 1.434 1_556 S
C874 C865 1.429 . S
C874 N871 1.350 . S
C874 C873 1.434 1_554 S
C875 C876 1.369 . S
C875 C877 1.419 1_556 S
C875 H879 0.930 . S
C876 C875 1.369 . S
C876 C885 1.429 . S
C877 C875 1.419 1_554 S
C877 C878 1.363 . S
C877 H880 0.929 . S
C878 C877 1.363 . S
C878 C884 1.428 . S
H879 C875 0.930 . S
H880 C877 0.929 . S
S881 N882 1.613 1_554 S
S881 N883 1.610 . S
N882 S881 1.613 1_556 S
N882 C885 1.350 . S
N883 S881 1.610 . S
N883 C884 1.351 . S
C884 C878 1.428 . S
C884 N883 1.351 . S
C884 C885 1.434 1_554 S
C885 C876 1.429 . S
C885 N882 1.350 . S
C885 C884 1.434 1_556 S
C886 C887 1.369 . S
C886 C888 1.419 1_556 S
C886 H890 0.930 . S
C887 C886 1.369 . S
C887 C896 1.429 . S
C888 C886 1.419 1_554 S
C888 C889 1.363 . S
C888 H891 0.929 . S
C889 C888 1.363 . S
C889 C895 1.428 . S
H890 C886 0.930 . S
H891 C888 0.929 . S
S892 N893 1.613 . S
S892 N894 1.610 1_556 S
N893 S892 1.613 . S
N893 C896 1.350 1_565 S
N894 S892 1.610 1_554 S
N894 C895 1.351 1_565 S
C895 C889 1.428 . S
C895 N894 1.351 1_545 S
C895 C896 1.434 1_554 S
C896 C887 1.429 . S
C896 N893 1.350 1_545 S
C896 C895 1.434 1_556 S
C897 C898 1.369 . S
C897 C899 1.419 1_556 S
C897 H901 0.930 . S
C898 C897 1.369 . S
C898 C907 1.429 . S
C899 C897 1.419 1_554 S
C899 C900 1.363 . S
C899 H902 0.929 . S
C900 C899 1.363 . S
C900 C906 1.428 . S
H901 C897 0.930 . S
H902 C899 0.929 . S
S903 N904 1.613 1_554 S
S903 N905 1.610 . S
N904 S903 1.613 1_556 S
N904 C907 1.350 1_655 S
N905 S903 1.610 . S
N905 C906 1.351 1_655 S
C906 C900 1.428 . S
C906 N905 1.351 1_455 S
C906 C907 1.434 1_554 S
C907 C898 1.429 . S
C907 N904 1.350 1_455 S
C907 C906 1.434 1_556 S
C908 C909 1.369 . S
C908 C910 1.419 1_554 S
C908 H912 0.930 . S
C909 C908 1.369 . S
C909 C918 1.429 . S
C910 C908 1.419 1_556 S
C910 C911 1.363 . S
C910 H913 0.929 . S
C911 C910 1.363 . S
C911 C917 1.428 . S
H912 C908 0.930 . S
H913 C910 0.929 . S
S914 N915 1.613 1_556 S
S914 N916 1.610 . S
N915 S914 1.613 1_554 S
N915 C918 1.350 . S
N916 S914 1.610 . S
N916 C917 1.351 . S
C917 C911 1.428 . S
C917 N916 1.351 . S
C917 C918 1.434 1_556 S
C918 C909 1.429 . S
C918 N915 1.350 . S
C918 C917 1.434 1_554 S
C919 C920 1.369 . S
C919 C921 1.419 1_556 S
C919 H923 0.930 1_545 S
C920 C919 1.369 . S
C920 C929 1.429 . S
C921 C919 1.419 1_554 S
C921 C922 1.363 . S
C921 H924 0.929 1_545 S
C922 C921 1.363 . S
C922 C928 1.428 . S
H923 C919 0.930 1_565 S
H924 C921 0.929 1_565 S
S925 N926 1.613 1_554 S
S925 N927 1.610 . S
N926 S925 1.613 1_556 S
N926 C929 1.350 . S
N927 S925 1.610 . S
N927 C928 1.351 . S
C928 C922 1.428 . S
C928 N927 1.351 . S
C928 C929 1.434 1_554 S
C929 C920 1.429 . S
C929 N926 1.350 . S
C929 C928 1.434 1_556 S
C930 C931 1.369 . S
C930 C932 1.419 . S
C930 H934 0.930 . S
C931 C930 1.369 . S
C931 C940 1.429 . S
C932 C930 1.419 . S
C932 C933 1.363 . S
C932 H935 0.929 . S
C933 C932 1.363 . S
C933 C939 1.428 . S
H934 C930 0.930 . S
H935 C932 0.929 . S
S936 N937 1.613 . S
S936 N938 1.610 . S
N937 S936 1.613 . S
N937 C940 1.350 . S
N938 S936 1.610 . S
N938 C939 1.351 . S
C939 C933 1.428 . S
C939 N938 1.351 . S
C939 C940 1.434 . S
C940 C931 1.429 . S
C940 N937 1.350 . S
C940 C939 1.434 . S
C941 C942 1.369 . S
C941 C943 1.419 . S
C941 H945 0.930 . S
C942 C941 1.369 . S
C942 C951 1.429 . S
C943 C941 1.419 . S
C943 C944 1.363 . S
C943 H946 0.929 . S
C944 C943 1.363 . S
C944 C950 1.428 . S
H945 C941 0.930 . S
H946 C943 0.929 . S
S947 N948 1.613 . S
S947 N949 1.610 . S
N948 S947 1.613 . S
N948 C951 1.350 . S
N949 S947 1.610 . S
N949 C950 1.351 . S
C950 C944 1.428 . S
C950 N949 1.351 . S
C950 C951 1.434 . S
C951 C942 1.429 . S
C951 N948 1.350 . S
C951 C950 1.434 . S
C952 C953 1.369 . S
C952 C954 1.419 . S
C952 H956 0.930 . S
C953 C952 1.369 . S
C953 C962 1.429 . S
C954 C952 1.419 . S
C954 C955 1.363 . S
C954 H957 0.929 . S
C955 C954 1.363 . S
C955 C961 1.428 . S
H956 C952 0.930 . S
H957 C954 0.929 . S
S958 N959 1.613 . S
S958 N960 1.610 . S
N959 S958 1.613 . S
N959 C962 1.350 1_455 S
N960 S958 1.610 . S
N960 C961 1.351 1_455 S
C961 C955 1.428 . S
C961 N960 1.351 1_655 S
C961 C962 1.434 . S
C962 C953 1.429 . S
C962 N959 1.350 1_655 S
C962 C961 1.434 . S
C963 C964 1.369 . S
C963 C965 1.419 . S
C963 H967 0.930 . S
C964 C963 1.369 . S
C964 C973 1.429 . S
C965 C963 1.419 . S
C965 C966 1.363 . S
C965 H968 0.929 . S
C966 C965 1.363 . S
C966 C972 1.428 . S
H967 C963 0.930 . S
H968 C965 0.929 . S
S969 N970 1.613 . S
S969 N971 1.610 . S
N970 S969 1.613 . S
N970 C973 1.350 . S
N971 S969 1.610 . S
N971 C972 1.351 . S
C972 C966 1.428 . S
C972 N971 1.351 . S
C972 C973 1.434 . S
C973 C964 1.429 . S
C973 N970 1.350 . S
C973 C972 1.434 . S
C974 C975 1.369 . S
C974 C976 1.419 . S
C974 H978 0.930 . S
C975 C974 1.369 . S
C975 C984 1.429 . S
C976 C974 1.419 . S
C976 C977 1.363 . S
C976 H979 0.929 . S
C977 C976 1.363 . S
C977 C983 1.428 . S
H978 C974 0.930 . S
H979 C976 0.929 . S
S980 N981 1.613 . S
S980 N982 1.610 . S
N981 S980 1.613 . S
N981 C984 1.350 1_455 S
N982 S980 1.610 . S
N982 C983 1.351 1_455 S
C983 C977 1.428 . S
C983 N982 1.351 1_655 S
C983 C984 1.434 . S
C984 C975 1.429 . S
C984 N981 1.350 1_655 S
C984 C983 1.434 . S
C985 C986 1.369 . S
C985 C987 1.419 . S
C985 H989 0.930 . S
C986 C985 1.369 . S
C986 C995 1.429 . S
C987 C985 1.419 . S
C987 C988 1.363 . S
C987 H990 0.929 . S
C988 C987 1.363 . S
C988 C994 1.428 . S
H989 C985 0.930 . S
H990 C987 0.929 . S
S991 N992 1.613 . S
S991 N993 1.610 . S
N992 S991 1.613 . S
N992 C995 1.350 . S
N993 S991 1.610 . S
N993 C994 1.351 . S
C994 C988 1.428 . S
C994 N993 1.351 . S
C994 C995 1.434 . S
C995 C986 1.429 . S
C995 N992 1.350 . S
C995 C994 1.434 . S
C996 C997 1.369 . S
C996 C998 1.419 . S
C996 H1000 0.930 . S
C997 C996 1.369 . S
C997 C1006 1.429 . S
C998 C996 1.419 . S
C998 C999 1.363 . S
C998 H1001 0.929 . S
C999 C998 1.363 . S
C999 C1005 1.428 . S
H1000 C996 0.930 . S
H1001 C998 0.929 . S
S1002 N1003 1.613 . S
S1002 N1004 1.610 . S
N1003 S1002 1.613 . S
N1003 C1006 1.350 1_545 S
N1004 S1002 1.610 . S
N1004 C1005 1.351 1_545 S
C1005 C999 1.428 . S
C1005 N1004 1.351 1_565 S
C1005 C1006 1.434 . S
C1006 C997 1.429 . S
C1006 N1003 1.350 1_565 S
C1006 C1005 1.434 . S
C1007 C1008 1.369 . S
C1007 C1009 1.419 . S
C1007 H1011 0.930 . S
C1008 C1007 1.369 . S
C1008 C1017 1.429 . S
C1009 C1007 1.419 . S
C1009 C1010 1.363 . S
C1009 H1012 0.929 . S
C1010 C1009 1.363 . S
C1010 C1016 1.428 . S
H1011 C1007 0.930 . S
H1012 C1009 0.929 . S
S1013 N1014 1.613 . S
S1013 N1015 1.610 . S
N1014 S1013 1.613 . S
N1014 C1017 1.350 . S
N1015 S1013 1.610 . S
N1015 C1016 1.351 . S
C1016 C1010 1.428 . S
C1016 N1015 1.351 . S
C1016 C1017 1.434 . S
C1017 C1008 1.429 . S
C1017 N1014 1.350 . S
C1017 C1016 1.434 . S
C1018 C1019 1.369 . S
C1018 C1020 1.419 . S
C1018 H1022 0.930 . S
C1019 C1018 1.369 . S
C1019 C1028 1.429 . S
C1020 C1018 1.419 . S
C1020 C1021 1.363 . S
C1020 H1023 0.929 . S
C1021 C1020 1.363 . S
C1021 C1027 1.428 . S
H1022 C1018 0.930 . S
H1023 C1020 0.929 . S
S1024 N1025 1.613 . S
S1024 N1026 1.610 . S
N1025 S1024 1.613 . S
N1025 C1028 1.350 . S
N1026 S1024 1.610 . S
N1026 C1027 1.351 . S
C1027 C1021 1.428 . S
C1027 N1026 1.351 . S
C1027 C1028 1.434 . S
C1028 C1019 1.429 . S
C1028 N1025 1.350 . S
C1028 C1027 1.434 . S
C1029 C1030 1.369 . S
C1029 C1031 1.419 . S
C1029 H1033 0.930 . S
C1030 C1029 1.369 . S
C1030 C1039 1.429 . S
C1031 C1029 1.419 . S
C1031 C1032 1.363 . S
C1031 H1034 0.929 . S
C1032 C1031 1.363 . S
C1032 C1038 1.428 . S
H1033 C1029 0.930 . S
H1034 C1031 0.929 . S
S1035 N1036 1.613 . S
S1035 N1037 1.610 . S
N1036 S1035 1.613 . S
N1036 C1039 1.350 . S
N1037 S1035 1.610 . S
N1037 C1038 1.351 . S
C1038 C1032 1.428 . S
C1038 N1037 1.351 . S
C1038 C1039 1.434 . S
C1039 C1030 1.429 . S
C1039 N1036 1.350 . S
C1039 C1038 1.434 . S
C1040 C1041 1.369 . S
C1040 C1042 1.419 . S
C1040 H1044 0.930 . S
C1041 C1040 1.369 . S
C1041 C1050 1.429 . S
C1042 C1040 1.419 . S
C1042 C1043 1.363 . S
C1042 H1045 0.929 . S
C1043 C1042 1.363 . S
C1043 C1049 1.428 . S
H1044 C1040 0.930 . S
H1045 C1042 0.929 . S
S1046 N1047 1.613 . S
S1046 N1048 1.610 . S
N1047 S1046 1.613 . S
N1047 C1050 1.350 . S
N1048 S1046 1.610 . S
N1048 C1049 1.351 . S
C1049 C1043 1.428 . S
C1049 N1048 1.351 . S
C1049 C1050 1.434 . S
C1050 C1041 1.429 . S
C1050 N1047 1.350 . S
C1050 C1049 1.434 . S
C1051 C1052 1.369 . S
C1051 C1053 1.419 . S
C1051 H1055 0.930 . S
C1052 C1051 1.369 . S
C1052 C1061 1.429 . S
C1053 C1051 1.419 . S
C1053 C1054 1.363 . S
C1053 H1056 0.929 . S
C1054 C1053 1.363 . S
C1054 C1060 1.428 . S
H1055 C1051 0.930 . S
H1056 C1053 0.929 . S
S1057 N1058 1.613 . S
S1057 N1059 1.610 . S
N1058 S1057 1.613 . S
N1058 C1061 1.350 . S
N1059 S1057 1.610 . S
N1059 C1060 1.351 . S
C1060 C1054 1.428 . S
C1060 N1059 1.351 . S
C1060 C1061 1.434 . S
C1061 C1052 1.429 . S
C1061 N1058 1.350 . S
C1061 C1060 1.434 . S
C1062 C1063 1.369 . S
C1062 C1064 1.419 . S
C1062 H1066 0.930 . S
C1063 C1062 1.369 . S
C1063 C1072 1.429 . S
C1064 C1062 1.419 . S
C1064 C1065 1.363 . S
C1064 H1067 0.929 . S
C1065 C1064 1.363 . S
C1065 C1071 1.428 . S
H1066 C1062 0.930 . S
H1067 C1064 0.929 . S
S1068 N1069 1.613 . S
S1068 N1070 1.610 . S
N1069 S1068 1.613 . S
N1069 C1072 1.350 . S
N1070 S1068 1.610 . S
N1070 C1071 1.351 . S
C1071 C1065 1.428 . S
C1071 N1070 1.351 . S
C1071 C1072 1.434 . S
C1072 C1063 1.429 . S
C1072 N1069 1.350 . S
C1072 C1071 1.434 . S
C1073 C1074 1.369 . S
C1073 C1075 1.419 . S
C1073 H1077 0.930 . S
C1074 C1073 1.369 . S
C1074 C1083 1.429 . S
C1075 C1073 1.419 . S
C1075 C1076 1.363 . S
C1075 H1078 0.929 . S
C1076 C1075 1.363 . S
C1076 C1082 1.428 . S
H1077 C1073 0.930 . S
H1078 C1075 0.929 . S
S1079 N1080 1.613 . S
S1079 N1081 1.610 . S
N1080 S1079 1.613 . S
N1080 C1083 1.350 . S
N1081 S1079 1.610 . S
N1081 C1082 1.351 . S
C1082 C1076 1.428 . S
C1082 N1081 1.351 . S
C1082 C1083 1.434 . S
C1083 C1074 1.429 . S
C1083 N1080 1.350 . S
C1083 C1082 1.434 . S
C1084 C1085 1.369 . S
C1084 C1086 1.419 . S
C1084 H1088 0.930 . S
C1085 C1084 1.369 . S
C1085 C1094 1.429 . S
C1086 C1084 1.419 . S
C1086 C1087 1.363 . S
C1086 H1089 0.929 . S
C1087 C1086 1.363 . S
C1087 C1093 1.428 . S
H1088 C1084 0.930 . S
H1089 C1086 0.929 . S
S1090 N1091 1.613 . S
S1090 N1092 1.610 . S
N1091 S1090 1.613 . S
N1091 C1094 1.350 . S
N1092 S1090 1.610 . S
N1092 C1093 1.351 . S
C1093 C1087 1.428 . S
C1093 N1092 1.351 . S
C1093 C1094 1.434 . S
C1094 C1085 1.429 . S
C1094 N1091 1.350 . S
C1094 C1093 1.434 . S
C1095 C1096 1.369 . S
C1095 C1097 1.419 . S
C1095 H1099 0.930 . S
C1096 C1095 1.369 . S
C1096 C1105 1.429 . S
C1097 C1095 1.419 . S
C1097 C1098 1.363 . S
C1097 H1100 0.929 . S
C1098 C1097 1.363 . S
C1098 C1104 1.428 . S
H1099 C1095 0.930 . S
H1100 C1097 0.929 . S
S1101 N1102 1.613 . S
S1101 N1103 1.610 . S
N1102 S1101 1.613 . S
N1102 C1105 1.350 . S
N1103 S1101 1.610 . S
N1103 C1104 1.351 . S
C1104 C1098 1.428 . S
C1104 N1103 1.351 . S
C1104 C1105 1.434 . S
C1105 C1096 1.429 . S
C1105 N1102 1.350 . S
C1105 C1104 1.434 . S
C1106 C1107 1.369 . S
C1106 C1108 1.419 . S
C1106 H1110 0.930 . S
C1107 C1106 1.369 . S
C1107 C1116 1.429 . S
C1108 C1106 1.419 . S
C1108 C1109 1.363 . S
C1108 H1111 0.929 . S
C1109 C1108 1.363 . S
C1109 C1115 1.428 . S
H1110 C1106 0.930 . S
H1111 C1108 0.929 . S
S1112 N1113 1.613 . S
S1112 N1114 1.610 . S
N1113 S1112 1.613 . S
N1113 C1116 1.350 . S
N1114 S1112 1.610 . S
N1114 C1115 1.351 . S
C1115 C1109 1.428 . S
C1115 N1114 1.351 . S
C1115 C1116 1.434 . S
C1116 C1107 1.429 . S
C1116 N1113 1.350 . S
C1116 C1115 1.434 . S
C1117 C1118 1.369 . S
C1117 C1119 1.419 . S
C1117 H1121 0.930 . S
C1118 C1117 1.369 . S
C1118 C1127 1.429 . S
C1119 C1117 1.419 . S
C1119 C1120 1.363 . S
C1119 H1122 0.929 . S
C1120 C1119 1.363 . S
C1120 C1126 1.428 . S
H1121 C1117 0.930 . S
H1122 C1119 0.929 . S
S1123 N1124 1.613 . S
S1123 N1125 1.610 . S
N1124 S1123 1.613 . S
N1124 C1127 1.350 . S
N1125 S1123 1.610 . S
N1125 C1126 1.351 . S
C1126 C1120 1.428 . S
C1126 N1125 1.351 . S
C1126 C1127 1.434 . S
C1127 C1118 1.429 . S
C1127 N1124 1.350 . S
C1127 C1126 1.434 . S
C1128 C1129 1.369 . S
C1128 C1130 1.419 . S
C1128 H1132 0.930 . S
C1129 C1128 1.369 . S
C1129 C1138 1.429 . S
C1130 C1128 1.419 . S
C1130 C1131 1.363 . S
C1130 H1133 0.929 . S
C1131 C1130 1.363 . S
C1131 C1137 1.428 . S
H1132 C1128 0.930 . S
H1133 C1130 0.929 . S
S1134 N1135 1.613 . S
S1134 N1136 1.610 . S
N1135 S1134 1.613 . S
N1135 C1138 1.350 . S
N1136 S1134 1.610 . S
N1136 C1137 1.351 . S
C1137 C1131 1.428 . S
C1137 N1136 1.351 . S
C1137 C1138 1.434 . S
C1138 C1129 1.429 . S
C1138 N1135 1.350 . S
C1138 C1137 1.434 . S
C1139 C1140 1.369 . S
C1139 C1141 1.419 . S
C1139 H1143 0.930 . S
C1140 C1139 1.369 . S
C1140 C1149 1.429 . S
C1141 C1139 1.419 . S
C1141 C1142 1.363 . S
C1141 H1144 0.929 . S
C1142 C1141 1.363 . S
C1142 C1148 1.428 . S
H1143 C1139 0.930 . S
H1144 C1141 0.929 . S
S1145 N1146 1.613 . S
S1145 N1147 1.610 . S
N1146 S1145 1.613 . S
N1146 C1149 1.350 . S
N1147 S1145 1.610 . S
N1147 C1148 1.351 . S
C1148 C1142 1.428 . S
C1148 N1147 1.351 . S
C1148 C1149 1.434 . S
C1149 C1140 1.429 . S
C1149 N1146 1.350 . S
C1149 C1148 1.434 . S
C1150 C1151 1.369 . S
C1150 C1152 1.419 . S
C1150 H1154 0.930 . S
C1151 C1150 1.369 . S
C1151 C1160 1.429 . S
C1152 C1150 1.419 . S
C1152 C1153 1.363 . S
C1152 H1155 0.929 . S
C1153 C1152 1.363 . S
C1153 C1159 1.428 . S
H1154 C1150 0.930 . S
H1155 C1152 0.929 . S
S1156 N1157 1.613 . S
S1156 N1158 1.610 . S
N1157 S1156 1.613 . S
N1157 C1160 1.350 . S
N1158 S1156 1.610 . S
N1158 C1159 1.351 . S
C1159 C1153 1.428 . S
C1159 N1158 1.351 . S
C1159 C1160 1.434 . S
C1160 C1151 1.429 . S
C1160 N1157 1.350 . S
C1160 C1159 1.434 . S
C1161 C1162 1.369 . S
C1161 C1163 1.419 . S
C1161 H1165 0.930 . S
C1162 C1161 1.369 . S
C1162 C1171 1.429 . S
C1163 C1161 1.419 . S
C1163 C1164 1.363 . S
C1163 H1166 0.929 . S
C1164 C1163 1.363 . S
C1164 C1170 1.428 . S
H1165 C1161 0.930 . S
H1166 C1163 0.929 . S
S1167 N1168 1.613 . S
S1167 N1169 1.610 . S
N1168 S1167 1.613 . S
N1168 C1171 1.350 . S
N1169 S1167 1.610 . S
N1169 C1170 1.351 . S
C1170 C1164 1.428 . S
C1170 N1169 1.351 . S
C1170 C1171 1.434 . S
C1171 C1162 1.429 . S
C1171 N1168 1.350 . S
C1171 C1170 1.434 . S
C1172 C1173 1.369 . S
C1172 C1174 1.419 . S
C1172 H1176 0.930 . S
C1173 C1172 1.369 . S
C1173 C1182 1.429 . S
C1174 C1172 1.419 . S
C1174 C1175 1.363 . S
C1174 H1177 0.929 . S
C1175 C1174 1.363 . S
C1175 C1181 1.428 . S
H1176 C1172 0.930 . S
H1177 C1174 0.929 . S
S1178 N1179 1.613 . S
S1178 N1180 1.610 . S
N1179 S1178 1.613 . S
N1179 C1182 1.350 . S
N1180 S1178 1.610 . S
N1180 C1181 1.351 . S
C1181 C1175 1.428 . S
C1181 N1180 1.351 . S
C1181 C1182 1.434 . S
C1182 C1173 1.429 . S
C1182 N1179 1.350 . S
C1182 C1181 1.434 . S
C1183 C1184 1.369 . S
C1183 C1185 1.419 . S
C1183 H1187 0.930 . S
C1184 C1183 1.369 . S
C1184 C1193 1.429 . S
C1185 C1183 1.419 . S
C1185 C1186 1.363 . S
C1185 H1188 0.929 . S
C1186 C1185 1.363 . S
C1186 C1192 1.428 . S
H1187 C1183 0.930 . S
H1188 C1185 0.929 . S
S1189 N1190 1.613 . S
S1189 N1191 1.610 . S
N1190 S1189 1.613 . S
N1190 C1193 1.350 . S
N1191 S1189 1.610 . S
N1191 C1192 1.351 . S
C1192 C1186 1.428 . S
C1192 N1191 1.351 . S
C1192 C1193 1.434 . S
C1193 C1184 1.429 . S
C1193 N1190 1.350 . S
C1193 C1192 1.434 . S
C1194 C1195 1.369 . S
C1194 C1196 1.419 . S
C1194 H1198 0.930 . S
C1195 C1194 1.369 . S
C1195 C1204 1.429 . S
C1196 C1194 1.419 . S
C1196 C1197 1.363 . S
C1196 H1199 0.929 . S
C1197 C1196 1.363 . S
C1197 C1203 1.428 . S
H1198 C1194 0.930 . S
H1199 C1196 0.929 . S
S1200 N1201 1.613 . S
S1200 N1202 1.610 . S
N1201 S1200 1.613 . S
N1201 C1204 1.350 . S
N1202 S1200 1.610 . S
N1202 C1203 1.351 . S
C1203 C1197 1.428 . S
C1203 N1202 1.351 . S
C1203 C1204 1.434 . S
C1204 C1195 1.429 . S
C1204 N1201 1.350 . S
C1204 C1203 1.434 . S
C1205 C1206 1.369 . S
C1205 C1207 1.419 . S
C1205 H1209 0.930 . S
C1206 C1205 1.369 . S
C1206 C1215 1.429 . S
C1207 C1205 1.419 . S
C1207 C1208 1.363 . S
C1207 H1210 0.929 . S
C1208 C1207 1.363 . S
C1208 C1214 1.428 . S
H1209 C1205 0.930 . S
H1210 C1207 0.929 . S
S1211 N1212 1.613 . S
S1211 N1213 1.610 . S
N1212 S1211 1.613 . S
N1212 C1215 1.350 . S
N1213 S1211 1.610 . S
N1213 C1214 1.351 . S
C1214 C1208 1.428 . S
C1214 N1213 1.351 . S
C1214 C1215 1.434 . S
C1215 C1206 1.429 . S
C1215 N1212 1.350 . S
C1215 C1214 1.434 . S
C1216 C1217 1.369 . S
C1216 C1218 1.419 . S
C1216 H1220 0.930 . S
C1217 C1216 1.369 . S
C1217 C1226 1.429 . S
C1218 C1216 1.419 . S
C1218 C1219 1.363 . S
C1218 H1221 0.929 . S
C1219 C1218 1.363 . S
C1219 C1225 1.428 . S
H1220 C1216 0.930 . S
H1221 C1218 0.929 . S
S1222 N1223 1.613 . S
S1222 N1224 1.610 . S
N1223 S1222 1.613 . S
N1223 C1226 1.350 . S
N1224 S1222 1.610 . S
N1224 C1225 1.351 . S
C1225 C1219 1.428 . S
C1225 N1224 1.351 . S
C1225 C1226 1.434 . S
C1226 C1217 1.429 . S
C1226 N1223 1.350 . S
C1226 C1225 1.434 . S
C1227 C1228 1.369 . S
C1227 C1229 1.419 . S
C1227 H1231 0.930 . S
C1228 C1227 1.369 . S
C1228 C1237 1.429 . S
C1229 C1227 1.419 . S
C1229 C1230 1.363 . S
C1229 H1232 0.929 . S
C1230 C1229 1.363 . S
C1230 C1236 1.428 . S
H1231 C1227 0.930 . S
H1232 C1229 0.929 . S
S1233 N1234 1.613 . S
S1233 N1235 1.610 . S
N1234 S1233 1.613 . S
N1234 C1237 1.350 . S
N1235 S1233 1.610 . S
N1235 C1236 1.351 . S
C1236 C1230 1.428 . S
C1236 N1235 1.351 . S
C1236 C1237 1.434 . S
C1237 C1228 1.429 . S
C1237 N1234 1.350 . S
C1237 C1236 1.434 . S
C1238 C1239 1.369 . S
C1238 C1240 1.419 . S
C1238 H1242 0.930 . S
C1239 C1238 1.369 . S
C1239 C1248 1.429 . S
C1240 C1238 1.419 . S
C1240 C1241 1.363 . S
C1240 H1243 0.929 . S
C1241 C1240 1.363 . S
C1241 C1247 1.428 . S
H1242 C1238 0.930 . S
H1243 C1240 0.929 . S
S1244 N1245 1.613 . S
S1244 N1246 1.610 . S
N1245 S1244 1.613 . S
N1245 C1248 1.350 . S
N1246 S1244 1.610 . S
N1246 C1247 1.351 . S
C1247 C1241 1.428 . S
C1247 N1246 1.351 . S
C1247 C1248 1.434 . S
C1248 C1239 1.429 . S
C1248 N1245 1.350 . S
C1248 C1247 1.434 . S
C1249 C1250 1.369 . S
C1249 C1251 1.419 . S
C1249 H1253 0.930 . S
C1250 C1249 1.369 . S
C1250 C1259 1.429 . S
C1251 C1249 1.419 . S
C1251 C1252 1.363 . S
C1251 H1254 0.929 . S
C1252 C1251 1.363 . S
C1252 C1258 1.428 . S
H1253 C1249 0.930 . S
H1254 C1251 0.929 . S
S1255 N1256 1.613 . S
S1255 N1257 1.610 . S
N1256 S1255 1.613 . S
N1256 C1259 1.350 . S
N1257 S1255 1.610 . S
N1257 C1258 1.351 . S
C1258 C1252 1.428 . S
C1258 N1257 1.351 . S
C1258 C1259 1.434 . S
C1259 C1250 1.429 . S
C1259 N1256 1.350 . S
C1259 C1258 1.434 . S
C469 C10 1.277 . S
C471 C153 1.278 . S
C480 C127 1.277 . S
C482 C23 1.278 . S
C491 C140 1.280 . S
C493 C36 1.281 . S
C502 C49 1.283 . S
C504 C101 1.282 . S
C513 C62 1.283 . S
C515 C114 1.283 . S
C524 C75 1.279 . S
C526 C88 1.279 . S
C535 C166 1.277 . S
C537 C309 1.278 . S
C546 C283 1.281 . S
C548 C179 1.281 . S
C557 C192 1.283 . S
C559 C296 1.283 . S
C568 C205 1.277 . S
C570 C257 1.278 . S
C579 C218 1.282 . S
C581 C270 1.282 . S
C590 C231 1.282 . S
C592 C244 1.282 . S
C601 C322 1.279 . S
C603 C465 1.279 . S
C612 C335 1.283 . S
C614 C439 1.282 . S
C623 C452 1.283 . S
C625 C348 1.282 . S
C634 C361 1.278 . S
C636 C413 1.278 . S
C645 C426 1.278 . S
C647 C374 1.279 . S
C656 C400 1.278 . S
C658 C387 1.279 . S
C667 C0 1.269 . S
C669 C195 1.272 . S
C678 C13 1.269 . S
C680 C208 1.273 . S
C689 C26 1.271 . S
C691 C221 1.271 . S
C700 C39 1.270 . S
C702 C312 1.272 . S
C711 C325 1.272 . S
C713 C52 1.271 . S
C722 C338 1.270 . S
C724 C65 1.272 . S
C733 C78 1.270 . S
C735 C429 1.272 . S
C744 C442 1.269 . S
C746 C91 1.273 . S
C755 C104 1.268 . S
C757 C455 1.273 . S
C766 C117 1.274 . S
C768 C234 1.268 . S
C777 C130 1.274 . S
C779 C247 1.269 . S
C788 C143 1.269 . S
C790 C260 1.273 . S
C799 C351 1.270 . S
C801 C156 1.273 . S
C810 C169 1.271 . S
C812 C364 1.270 1_545 S
C821 C182 1.274 1_455 S
C823 C377 1.269 . S
C832 C390 1.271 . S
C834 C273 1.271 . S
C843 C403 1.273 1_545 S
C845 C286 1.269 . S
C854 C299 1.268 1_455 S
C856 C416 1.273 . S
C865 C5 1.409 . S
C867 C57 1.409 . S
C876 C70 1.411 . S
C878 C18 1.411 . S
C887 C44 1.413 . S
C889 C31 1.413 . S
C898 C83 1.406 . S
C900 C135 1.407 . S
C909 C148 1.407 . S
C911 C96 1.408 . S
C920 C109 1.411 . S
C922 C122 1.412 . S
C931 C213 1.406 . S
C933 C161 1.407 . S
C942 C174 1.407 . S
C944 C226 1.408 . S
C953 C187 1.413 . S
C955 C200 1.413 . S
C964 C291 1.407 . S
C966 C239 1.408 . S
C975 C304 1.415 . S
C977 C252 1.414 . S
C986 C278 1.415 . S
C988 C265 1.414 . S
C997 C317 1.415 . S
C999 C369 1.414 . S
C1008 C330 1.406 . S
C1010 C382 1.407 . S
C1019 C343 1.413 . S
C1021 C356 1.412 . S
C1030 C447 1.415 . S
C1032 C395 1.413 . S
C1041 C460 1.415 . S
C1043 C408 1.414 . S
C1052 C434 1.413 . S
C1054 C421 1.412 . S
C1063 C125 1.405 . S
C1065 C8 1.406 . S
C1074 C138 1.406 . S
C1076 C21 1.406 . S
C1085 C34 1.408 . S
C1087 C151 1.408 . S
C1096 C47 1.409 . S
C1098 C86 1.409 . S
C1107 C99 1.408 . S
C1109 C60 1.408 . S
C1118 C73 1.413 . S
C1120 C112 1.412 . S
C1129 C281 1.414 . S
C1131 C164 1.413 . S
C1140 C294 1.409 . S
C1142 C177 1.409 . S
C1151 C190 1.413 . S
C1153 C307 1.413 . S
C1162 C242 1.414 . S
C1164 C203 1.413 . S
C1173 C255 1.414 . S
C1175 C216 1.413 . S
C1184 C268 1.405 . S
C1186 C229 1.406 . S
C1195 C320 1.406 . S
C1197 C437 1.407 . S
C1206 C450 1.409 . S
C1208 C333 1.409 . S
C1217 C346 1.405 . S
C1219 C463 1.406 . S
C1228 C359 1.413 . S
C1230 C398 1.412 . S
C1239 C372 1.414 . S
C1241 C411 1.413 . S
C1250 C424 1.414 . S
C1252 C385 1.413 . S
