# Generated by pormake.
# Topology uoq, (4)-cn, num edge types: 1
# Building blocks:
#     Node 0, Type 0, BuildingBlock: KUFVIS_clean_sbu_0, # of connection points: 4
#     Node 1, Type 0, BuildingBlock: KUFVIS_clean_sbu_0, # of connection points: 4
#     Node 2, Type 0, BuildingBlock: KUFVIS_clean_sbu_0, # of connection points: 4
#     Node 3, Type 0, BuildingBlock: KUFVIS_clean_sbu_0, # of connection points: 4
#     Node 4, Type 0, BuildingBlock: KUFVIS_clean_sbu_0, # of connection points: 4
#     Node 5, Type 0, BuildingBlock: KUFVIS_clean_sbu_0, # of connection points: 4
#     Node 6, Type 0, BuildingBlock: KUFVIS_clean_sbu_0, # of connection points: 4
#     Node 7, Type 0, BuildingBlock: KUFVIS_clean_sbu_0, # of connection points: 4
#     Node 8, Type 0, BuildingBlock: KUFVIS_clean_sbu_0, # of connection points: 4
#     Node 9, Type 0, BuildingBlock: KUFVIS_clean_sbu_0, # of connection points: 4
#     Node 10, Type 0, BuildingBlock: KUFVIS_clean_sbu_0, # of connection points: 4
#     Node 11, Type 0, BuildingBlock: KUFVIS_clean_sbu_0, # of connection points: 4
#     Edge 12, Type (0, 0), BuildingBlock: UVAHIK_clean_linker_0, # of connection points: 2
#     Edge 13, Type (0, 0), BuildingBlock: UVAHIK_clean_linker_0, # of connection points: 2
#     Edge 14, Type (0, 0), BuildingBlock: UVAHIK_clean_linker_0, # of connection points: 2
#     Edge 15, Type (0, 0), BuildingBlock: UVAHIK_clean_linker_0, # of connection points: 2
#     Edge 16, Type (0, 0), BuildingBlock: UVAHIK_clean_linker_0, # of connection points: 2
#     Edge 17, Type (0, 0), BuildingBlock: UVAHIK_clean_linker_0, # of connection points: 2
#     Edge 18, Type (0, 0), BuildingBlock: UVAHIK_clean_linker_0, # of connection points: 2
#     Edge 19, Type (0, 0), BuildingBlock: UVAHIK_clean_linker_0, # of connection points: 2
#     Edge 20, Type (0, 0), BuildingBlock: UVAHIK_clean_linker_0, # of connection points: 2
#     Edge 21, Type (0, 0), BuildingBlock: UVAHIK_clean_linker_0, # of connection points: 2
#     Edge 22, Type (0, 0), BuildingBlock: UVAHIK_clean_linker_0, # of connection points: 2
#     Edge 23, Type (0, 0), BuildingBlock: UVAHIK_clean_linker_0, # of connection points: 2
#     Edge 24, Type (0, 0), BuildingBlock: UVAHIK_clean_linker_0, # of connection points: 2
#     Edge 25, Type (0, 0), BuildingBlock: UVAHIK_clean_linker_0, # of connection points: 2
#     Edge 26, Type (0, 0), BuildingBlock: UVAHIK_clean_linker_0, # of connection points: 2
#     Edge 27, Type (0, 0), BuildingBlock: UVAHIK_clean_linker_0, # of connection points: 2
#     Edge 28, Type (0, 0), BuildingBlock: UVAHIK_clean_linker_0, # of connection points: 2
#     Edge 29, Type (0, 0), BuildingBlock: UVAHIK_clean_linker_0, # of connection points: 2
#     Edge 30, Type (0, 0), BuildingBlock: UVAHIK_clean_linker_0, # of connection points: 2
#     Edge 31, Type (0, 0), BuildingBlock: UVAHIK_clean_linker_0, # of connection points: 2
#     Edge 32, Type (0, 0), BuildingBlock: UVAHIK_clean_linker_0, # of connection points: 2
#     Edge 33, Type (0, 0), BuildingBlock: UVAHIK_clean_linker_0, # of connection points: 2
#     Edge 34, Type (0, 0), BuildingBlock: UVAHIK_clean_linker_0, # of connection points: 2
#     Edge 35, Type (0, 0), BuildingBlock: UVAHIK_clean_linker_0, # of connection points: 2
# Relax obj value: 0.146
# Max RMSD: 0.133
# Mean RMSD: 0.133
data_MOF--net-uoq--node1-KUFVIS_clean_sbu_0--edge1-UVAHIK_clean_linker_0
_symmetry_space_group_name_H-M    P1
_symmetry_Int_Tables_number       1
_symmetry_cell_setting            triclinic
loop_
_symmetry_equiv_pos_as_xyz
'x, y, z'
_cell_length_a     76.316743
_cell_length_b     76.302815
_cell_length_c     28.971682
_cell_angle_alpha  90.016117
_cell_angle_beta   90.012095
_cell_angle_gamma 119.99888
loop_
_atom_site_label
_atom_site_type_symbol
_atom_site_fract_x
_atom_site_fract_y
_atom_site_fract_z
_atom_type_partial_charge
Mn0 Mn 0.30344 0.44919 0.24331 0.0
Mn1 Mn 0.30893 0.44026 0.35556 0.0
C2 C 0.28768 0.45714 0.3011 0.0
C3 C 0.28558 0.43903 0.17344 0.0
C4 C 0.34112 0.47591 0.30163 0.0
O5 O 0.3146 0.42979 0.23832 0.0
O6 O 0.31602 0.42408 0.31444 0.0
C7 C 0.27598 0.39754 0.36005 0.0
N8 N 0.28496 0.4168 0.37666 0.0
C9 C 0.26051 0.40691 0.43787 0.0
C10 C 0.25105 0.38693 0.42159 0.0
C11 C 0.25878 0.38225 0.38239 0.0
C12 C 0.27755 0.42151 0.41408 0.0
H13 H 0.2819 0.3939 0.33 0.0
C14 C 0.31816 0.42113 0.27189 0.0
O15 O 0.30436 0.45344 0.17493 0.0
O16 O 0.27774 0.42971 0.21187 0.0
N17 N 0.30258 0.45479 0.40005 0.0
C18 C 0.31287 0.47496 0.40994 0.0
C19 C 0.30694 0.48222 0.44789 0.0
C20 C 0.29066 0.46867 0.47559 0.0
C21 C 0.28037 0.44798 0.4649 0.0
C22 C 0.28706 0.4416 0.42685 0.0
H23 H 0.3255 0.48542 0.38901 0.0
O24 O 0.2909 0.46582 0.26112 0.0
O25 O 0.29358 0.44398 0.30615 0.0
O26 O 0.33151 0.47208 0.26339 0.0
O27 O 0.33406 0.46486 0.33755 0.0
C28 C 0.26351 0.43347 0.49001 0.0
C29 C 0.25352 0.41297 0.47636 0.0
H30 H 0.23778 0.3751 0.43871 0.0
H31 H 0.25151 0.36689 0.3695 0.0
H32 H 0.31492 0.49822 0.45585 0.0
H33 H 0.28611 0.47434 0.50478 0.0
H34 H 0.25789 0.43798 0.51937 0.0
H35 H 0.24038 0.40202 0.49547 0.0
Mn36 Mn 0.85349 0.29681 0.59193 0.0
Mn37 Mn 0.86973 0.30417 0.7027 0.0
C38 C 0.83059 0.28361 0.65256 0.0
C39 C 0.84366 0.27719 0.52442 0.0
C40 C 0.86819 0.33649 0.64453 0.0
O41 O 0.88375 0.30606 0.58504 0.0
O42 O 0.89143 0.30733 0.66076 0.0
C43 C 0.8749 0.26843 0.71349 0.0
N44 N 0.86699 0.27992 0.72848 0.0
C45 C 0.85453 0.26028 0.79795 0.0
C46 C 0.86284 0.24841 0.78368 0.0
C47 C 0.87283 0.25233 0.74095 0.0
C48 C 0.85662 0.27574 0.76853 0.0
H49 H 0.88269 0.27155 0.68087 0.0
C50 C 0.89598 0.30852 0.61799 0.0
O51 O 0.84921 0.2963 0.52361 0.0
O52 O 0.84516 0.26993 0.56372 0.0
N53 N 0.8503 0.30153 0.74794 0.0
C54 C 0.84214 0.31361 0.75525 0.0
C55 C 0.83066 0.31092 0.79524 0.0
C56 C 0.82823 0.29628 0.82795 0.0
C57 C 0.83709 0.28429 0.82006 0.0
C58 C 0.84789 0.28728 0.77902 0.0
H59 H 0.84436 0.32521 0.73078 0.0
O60 O 0.82474 0.28618 0.6124 0.0
O61 O 0.84942 0.28857 0.65599 0.0
O62 O 0.86055 0.32584 0.60823 0.0
O63 O 0.87276 0.32991 0.6804 0.0
C64 C 0.8358 0.2696 0.85146 0.0
C65 C 0.84435 0.25746 0.84023 0.0
H66 H 0.86151 0.23616 0.80508 0.0
H67 H 0.87912 0.24313 0.72948 0.0
H68 H 0.82394 0.32029 0.80115 0.0
H69 H 0.81956 0.2944 0.85902 0.0
H70 H 0.82781 0.26715 0.88385 0.0
H71 H 0.84276 0.24583 0.8641 0.0
Mn72 Mn 0.55177 0.85534 0.90829 0.0
Mn73 Mn 0.56106 0.87211 0.01888 0.0
C74 C 0.54412 0.83283 0.96862 0.0
C75 C 0.56194 0.84663 0.83981 0.0
C76 C 0.52553 0.86791 0.96287 0.0
O77 O 0.57097 0.88589 0.90077 0.0
O78 O 0.57795 0.89435 0.97612 0.0
C79 C 0.60335 0.88082 0.0269 0.0
N80 N 0.58395 0.87123 0.0427 0.0
C81 C 0.5928 0.85734 0.10722 0.0
C82 C 0.61291 0.86716 0.09179 0.0
C83 C 0.61818 0.87888 0.05135 0.0
C84 C 0.57868 0.85979 0.08135 0.0
H85 H 0.60744 0.88988 0.99592 0.0
C86 C 0.58041 0.89861 0.9331 0.0
O87 O 0.5474 0.85081 0.84021 0.0
O88 O 0.57138 0.84883 0.87849 0.0
N89 N 0.54578 0.85214 0.0646 0.0
C90 C 0.52554 0.84279 0.07337 0.0
C91 C 0.51768 0.83013 0.11209 0.0
C92 C 0.53071 0.82743 0.1417 0.0
C93 C 0.5515 0.83734 0.13221 0.0
C94 C 0.55848 0.84983 0.09321 0.0
H95 H 0.51548 0.84499 0.05103 0.0
O96 O 0.53545 0.82648 0.92884 0.0
O97 O 0.55712 0.85201 0.97186 0.0
O98 O 0.52867 0.86041 0.9265 0.0
O99 O 0.53705 0.87326 0.99825 0.0
C100 C 0.56553 0.83503 0.1594 0.0
C101 C 0.58615 0.84495 0.14681 0.0
H102 H 0.62439 0.86568 0.11051 0.0
H103 H 0.63365 0.88643 0.03912 0.0
H104 H 0.50161 0.82252 0.11918 0.0
H105 H 0.52458 0.81761 0.17145 0.0
H106 H 0.56056 0.82536 0.18959 0.0
H107 H 0.59672 0.84277 0.16752 0.0
Mn108 Mn 0.70034 0.55362 0.25766 0.0
Mn109 Mn 0.69316 0.56275 0.36839 0.0
C110 C 0.7143 0.54478 0.31827 0.0
C111 C 0.71941 0.56316 0.18943 0.0
C112 C 0.66106 0.52821 0.31135 0.0
O113 O 0.69041 0.57407 0.25042 0.0
O114 O 0.68906 0.5806 0.32606 0.0
C115 C 0.72812 0.60426 0.37763 0.0
N116 N 0.71723 0.58489 0.39321 0.0
C117 C 0.73752 0.59302 0.4619 0.0
C118 C 0.7488 0.61316 0.44697 0.0
C119 C 0.74423 0.61875 0.40436 0.0
C120 C 0.722 0.57919 0.43322 0.0
H121 H 0.7245 0.60856 0.34512 0.0
C122 C 0.68763 0.58368 0.28321 0.0
O123 O 0.7004 0.54933 0.18956 0.0
O124 O 0.72689 0.57236 0.22824 0.0
N125 N 0.69669 0.54665 0.41396 0.0
C126 C 0.68514 0.5264 0.42196 0.0
C127 C 0.68846 0.5181 0.46201 0.0
C128 C 0.70319 0.53079 0.49407 0.0
C129 C 0.71463 0.55163 0.48545 0.0
C130 C 0.71101 0.55894 0.4444 0.0
H131 H 0.67348 0.51665 0.39798 0.0
O132 O 0.71165 0.53612 0.27837 0.0
O133 O 0.70895 0.55837 0.32151 0.0
O134 O 0.67161 0.53136 0.27486 0.0
O135 O 0.6676 0.53944 0.34712 0.0
C136 C 0.72939 0.56547 0.51614 0.0
C137 C 0.74099 0.58613 0.50414 0.0
H138 H 0.76106 0.62443 0.4678 0.0
H139 H 0.75296 0.63422 0.3924 0.0
H140 H 0.67951 0.50201 0.46847 0.0
H141 H 0.70557 0.52437 0.52517 0.0
H142 H 0.73231 0.56031 0.54854 0.0
H143 H 0.75269 0.59652 0.52745 0.0
Mn144 Mn 0.14486 0.69702 0.5821 0.0
Mn145 Mn 0.13156 0.6927 0.6949 0.0
C146 C 0.16915 0.71325 0.63851 0.0
C147 C 0.152 0.71429 0.51159 0.0
C148 C 0.13418 0.65981 0.64179 0.0
O149 O 0.1143 0.68594 0.57851 0.0
O150 O 0.10791 0.6854 0.65487 0.0
C151 C 0.12222 0.72595 0.69871 0.0
N152 N 0.13255 0.717 0.71518 0.0
C153 C 0.14812 0.74221 0.77465 0.0
C154 C 0.13754 0.75162 0.75852 0.0
C155 C 0.1246 0.7435 0.72026 0.0
C156 C 0.14519 0.7248 0.75167 0.0
H157 H 0.11225 0.71973 0.66936 0.0
C158 C 0.10243 0.68284 0.61254 0.0
O159 O 0.14754 0.69549 0.51363 0.0
O160 O 0.15089 0.72247 0.54987 0.0
N161 N 0.1529 0.69934 0.7383 0.0
C162 C 0.16271 0.68899 0.74815 0.0
C163 C 0.17636 0.69525 0.78528 0.0
C164 C 0.17962 0.71194 0.81217 0.0
C165 C 0.16932 0.72232 0.80147 0.0
C166 C 0.15577 0.71527 0.7643 0.0
H167 H 0.16015 0.67606 0.72784 0.0
O168 O 0.17419 0.70959 0.59848 0.0
O169 O 0.15016 0.70746 0.64439 0.0
O170 O 0.1397 0.66909 0.60314 0.0
O171 O 0.13059 0.66724 0.67766 0.0
C172 C 0.17219 0.73957 0.82576 0.0
C173 C 0.16168 0.74957 0.8122 0.0
H174 H 0.13935 0.76517 0.77503 0.0
H175 H 0.11646 0.75074 0.70748 0.0
H176 H 0.1843 0.6872 0.79324 0.0
H177 H 0.19015 0.71671 0.84079 0.0
H178 H 0.1827 0.74546 0.85442 0.0
H179 H 0.16426 0.763 0.83067 0.0
Mn180 Mn 0.44161 0.14397 0.92358 0.0
Mn181 Mn 0.43006 0.12434 0.03159 0.0
C182 C 0.4477 0.16481 0.98677 0.0
C183 C 0.43355 0.15465 0.85495 0.0
C184 C 0.46816 0.13248 0.98182 0.0
O185 O 0.42297 0.1138 0.9102 0.0
O186 O 0.41747 0.10316 0.98407 0.0
C187 C 0.3864 0.11102 0.02682 0.0
N188 N 0.40457 0.1214 0.04874 0.0
C189 C 0.38948 0.12908 0.11271 0.0
C190 C 0.37057 0.11838 0.09099 0.0
C191 C 0.36906 0.10945 0.04766 0.0
C192 C 0.40629 0.13049 0.08979 0.0
H193 H 0.38515 0.10393 0.99381 0.0
C194 C 0.41513 0.09992 0.94073 0.0
O195 O 0.44806 0.15045 0.85666 0.0
O196 O 0.42295 0.15139 0.89223 0.0
N197 N 0.44084 0.14249 0.08283 0.0
C198 C 0.46021 0.15238 0.09898 0.0
C199 C 0.46436 0.16224 0.14189 0.0
C200 C 0.4485 0.16127 0.1684 0.0
C201 C 0.42862 0.15061 0.15155 0.0
C202 C 0.42545 0.14135 0.10827 0.0
H203 H 0.47239 0.15276 0.07925 0.0
O204 O 0.45729 0.17206 0.94834 0.0
O205 O 0.43439 0.14561 0.98732 0.0
O206 O 0.46427 0.13836 0.94378 0.0
O207 O 0.45656 0.12727 0.01704 0.0
C208 C 0.4118 0.14871 0.17609 0.0
C209 C 0.3923 0.13822 0.15639 0.0
H210 H 0.35713 0.11693 0.10724 0.0
H211 H 0.35453 0.1012 0.0306 0.0
H212 H 0.47973 0.17036 0.15474 0.0
H213 H 0.45175 0.16876 0.20164 0.0
H214 H 0.41373 0.15545 0.20996 0.0
H215 H 0.37956 0.13718 0.17526 0.0
Mn216 Mn 0.55571 0.70146 0.40837 0.0
Mn217 Mn 0.56395 0.69592 0.29598 0.0
C218 C 0.54665 0.71653 0.3506 0.0
C219 C 0.56592 0.71958 0.47789 0.0
C220 C 0.52968 0.66309 0.3522 0.0
O221 O 0.57598 0.69115 0.41218 0.0
O222 O 0.58203 0.69108 0.33583 0.0
C223 C 0.60545 0.73091 0.28712 0.0
N224 N 0.58598 0.72031 0.27208 0.0
C225 C 0.59375 0.74143 0.20495 0.0
C226 C 0.61401 0.7524 0.21924 0.0
C227 C 0.61982 0.74728 0.26086 0.0
C228 C 0.58005 0.72565 0.23322 0.0
H229 H 0.60993 0.72686 0.31886 0.0
C230 C 0.58537 0.68889 0.37809 0.0
O231 O 0.55196 0.70062 0.47685 0.0
O232 O 0.57488 0.72751 0.43914 0.0
N233 N 0.54759 0.70025 0.25263 0.0
C234 C 0.52727 0.68889 0.2452 0.0
C235 C 0.51874 0.69282 0.20638 0.0
C236 C 0.53126 0.70791 0.17486 0.0
C237 C 0.55217 0.71913 0.18281 0.0
C238 C 0.55972 0.71494 0.22274 0.0
H239 H 0.51766 0.67694 0.26867 0.0
O240 O 0.5383 0.71334 0.39097 0.0
O241 O 0.56006 0.71104 0.34531 0.0
O242 O 0.53313 0.67309 0.38971 0.0
O243 O 0.54071 0.67012 0.31627 0.0
C244 C 0.56586 0.73416 0.15244 0.0
C245 C 0.58662 0.74543 0.16369 0.0
H246 H 0.62518 0.76484 0.19872 0.0
H247 H 0.63538 0.75578 0.27237 0.0
H248 H 0.5026 0.68403 0.20041 0.0
H249 H 0.52467 0.71073 0.14465 0.0
H250 H 0.56052 0.73753 0.12086 0.0
H251 H 0.59692 0.75732 0.14066 0.0
Mn252 Mn 0.8543 0.54921 0.7573 0.0
Mn253 Mn 0.86893 0.55874 0.64527 0.0
C254 C 0.83071 0.54161 0.69941 0.0
C255 C 0.84648 0.55911 0.82739 0.0
C256 C 0.86524 0.52272 0.69801 0.0
O257 O 0.88484 0.56854 0.76281 0.0
O258 O 0.89212 0.57455 0.68682 0.0
C259 C 0.87892 0.60155 0.64233 0.0
N260 N 0.86861 0.5824 0.62504 0.0
C261 C 0.85434 0.59283 0.56422 0.0
C262 C 0.8649 0.6127 0.5812 0.0
C263 C 0.87717 0.61705 0.62055 0.0
C264 C 0.85661 0.57801 0.58749 0.0
H265 H 0.88839 0.60493 0.67249 0.0
C266 C 0.89713 0.57729 0.72944 0.0
O267 O 0.85079 0.54466 0.82563 0.0
O268 O 0.84807 0.56859 0.78915 0.0
N269 N 0.84813 0.54459 0.60035 0.0
C270 C 0.83818 0.52449 0.58979 0.0
C271 C 0.82511 0.51754 0.55156 0.0
C272 C 0.82259 0.53135 0.52431 0.0
C273 C 0.83305 0.55196 0.53572 0.0
C274 C 0.84598 0.55801 0.574 0.0
H275 H 0.84016 0.51383 0.6104 0.0
O276 O 0.82517 0.53272 0.73914 0.0
O277 O 0.84978 0.55478 0.69465 0.0
O278 O 0.8595 0.52639 0.7365 0.0
O279 O 0.86926 0.53395 0.6624 0.0
C280 C 0.83086 0.56669 0.51114 0.0
C281 C 0.84142 0.5871 0.52552 0.0
H282 H 0.86359 0.62469 0.56451 0.0
H283 H 0.8853 0.63232 0.63397 0.0
H284 H 0.81703 0.5016 0.54307 0.0
H285 H 0.81248 0.52593 0.4949 0.0
H286 H 0.82084 0.56244 0.48162 0.0
H287 H 0.83937 0.59823 0.5068 0.0
Mn288 Mn 0.29966 0.85459 0.08193 0.0
Mn289 Mn 0.30848 0.87444 0.97413 0.0
C290 C 0.28562 0.83381 0.01824 0.0
C291 C 0.28029 0.84401 0.14962 0.0
C292 C 0.33898 0.86826 0.02824 0.0
O293 O 0.31089 0.88486 0.09445 0.0
O294 O 0.31386 0.89538 0.02053 0.0
C295 C 0.27555 0.88421 0.96974 0.0
N296 N 0.28522 0.8749 0.95153 0.0
C297 C 0.26443 0.86528 0.88345 0.0
C298 C 0.25426 0.87482 0.90134 0.0
C299 C 0.25974 0.88418 0.94487 0.0
C300 C 0.27975 0.86541 0.91028 0.0
H301 H 0.27996 0.89169 0.00283 0.0
C302 C 0.31498 0.89851 0.06399 0.0
O303 O 0.29903 0.84826 0.14905 0.0
O304 O 0.27325 0.84713 0.11165 0.0
N305 N 0.30397 0.85607 0.92465 0.0
C306 C 0.31484 0.84698 0.91306 0.0
C307 C 0.31085 0.83644 0.87109 0.0
C308 C 0.2962 0.83592 0.84084 0.0
C309 C 0.28555 0.84579 0.85305 0.0
C310 C 0.28984 0.85564 0.89577 0.0
H311 H 0.32648 0.84779 0.93565 0.0
O312 O 0.28749 0.82643 0.05699 0.0
O313 O 0.29161 0.853 0.01787 0.0
O314 O 0.32806 0.86021 0.06395 0.0
O315 O 0.33318 0.87439 0.9936 0.0
C316 C 0.27092 0.84636 0.82442 0.0
C317 C 0.26012 0.85579 0.8399 0.0
H318 H 0.24223 0.87505 0.88199 0.0
H319 H 0.25195 0.89156 0.95894 0.0
H320 H 0.31922 0.82897 0.8618 0.0
H321 H 0.29328 0.82792 0.80831 0.0
H322 H 0.26754 0.83919 0.79078 0.0
H323 H 0.24856 0.85568 0.81802 0.0
Mn324 Mn 0.4474 0.30284 0.42212 0.0
Mn325 Mn 0.43825 0.30684 0.30928 0.0
C326 C 0.45557 0.28662 0.36591 0.0
C327 C 0.43724 0.28556 0.49265 0.0
C328 C 0.4738 0.33992 0.36198 0.0
O329 O 0.42786 0.31386 0.42553 0.0
O330 O 0.4219 0.31417 0.34917 0.0
C331 C 0.39572 0.27343 0.30612 0.0
N332 N 0.41497 0.2824 0.28947 0.0
C333 C 0.40535 0.25694 0.23062 0.0
C334 C 0.38539 0.24749 0.24695 0.0
C335 C 0.38058 0.25573 0.28499 0.0
C336 C 0.4198 0.27448 0.25322 0.0
H337 H 0.39198 0.27974 0.3353 0.0
C338 C 0.41903 0.31685 0.39144 0.0
O339 O 0.45157 0.30438 0.49066 0.0
O340 O 0.428 0.2774 0.45433 0.0
N341 N 0.45293 0.30017 0.26593 0.0
C342 C 0.47304 0.31069 0.25557 0.0
C343 C 0.48038 0.30443 0.21836 0.0
C344 C 0.46696 0.28757 0.1919 0.0
C345 C 0.44634 0.277 0.20315 0.0
C346 C 0.43987 0.28407 0.24032 0.0
H347 H 0.4834 0.32376 0.2755 0.0
O348 O 0.46423 0.29033 0.40598 0.0
O349 O 0.44228 0.29229 0.35993 0.0
O350 O 0.47012 0.33076 0.40079 0.0
O351 O 0.4627 0.33237 0.32623 0.0
C352 C 0.43199 0.2596 0.17928 0.0
C353 C 0.41153 0.2495 0.19319 0.0
H354 H 0.37367 0.23384 0.23075 0.0
H355 H 0.36523 0.24848 0.29792 0.0
H356 H 0.49633 0.31263 0.20996 0.0
H357 H 0.47267 0.28284 0.16312 0.0
H358 H 0.43658 0.25368 0.15063 0.0
H359 H 0.40069 0.23597 0.17502 0.0
Mn360 Mn 0.14542 0.44515 0.74258 0.0
Mn361 Mn 0.12918 0.43632 0.6318 0.0
C362 C 0.16829 0.45455 0.68194 0.0
C363 C 0.15506 0.4355 0.81051 0.0
C364 C 0.13093 0.47028 0.68993 0.0
O365 O 0.11512 0.42428 0.74944 0.0
O366 O 0.10739 0.41784 0.6737 0.0
C367 C 0.12365 0.39527 0.62072 0.0
N368 N 0.13174 0.41471 0.60591 0.0
C369 C 0.14424 0.40748 0.53653 0.0
C370 C 0.13574 0.38727 0.55062 0.0
C371 C 0.12563 0.3812 0.59321 0.0
C372 C 0.1422 0.42089 0.56596 0.0
H373 H 0.11578 0.3906 0.65322 0.0
C374 C 0.10286 0.41453 0.71651 0.0
O375 O 0.14964 0.44916 0.81076 0.0
O376 O 0.15356 0.42655 0.77145 0.0
N377 N 0.14873 0.45305 0.58673 0.0
C378 C 0.15712 0.47334 0.57967 0.0
C379 C 0.16877 0.48214 0.53991 0.0
C380 C 0.17116 0.4699 0.50717 0.0
C381 C 0.16209 0.44902 0.51484 0.0
C382 C 0.15111 0.4412 0.55565 0.0
H383 H 0.15494 0.48274 0.60417 0.0
O384 O 0.1742 0.46306 0.72202 0.0
O385 O 0.14941 0.4408 0.67858 0.0
O386 O 0.13857 0.46723 0.72611 0.0
O387 O 0.12628 0.45913 0.65406 0.0
C388 C 0.16336 0.4356 0.48343 0.0
C389 C 0.15458 0.41487 0.49443 0.0
H390 H 0.13702 0.37632 0.52919 0.0
H391 H 0.1192 0.36567 0.60455 0.0
H392 H 0.17566 0.49826 0.53419 0.0
H393 H 0.17997 0.4767 0.47629 0.0
H394 H 0.1715 0.44115 0.45121 0.0
H395 H 0.15613 0.4048 0.47055 0.0
Mn396 Mn 0.69485 0.14444 0.09075 0.0
Mn397 Mn 0.68884 0.13087 0.97787 0.0
C398 C 0.71075 0.16849 0.0337 0.0
C399 C 0.7131 0.15159 0.16001 0.0
C400 C 0.65728 0.1348 0.03324 0.0
O401 O 0.68333 0.11378 0.09448 0.0
O402 O 0.68111 0.1072 0.01795 0.0
C403 C 0.72091 0.1199 0.97201 0.0
N404 N 0.71243 0.13076 0.95617 0.0
C405 C 0.73697 0.14522 0.89512 0.0
C406 C 0.74592 0.1341 0.91061 0.0
C407 C 0.7379 0.12145 0.94934 0.0
C408 C 0.72013 0.14312 0.91923 0.0
H409 H 0.71475 0.11013 0.00167 0.0
C410 C 0.67915 0.10175 0.06021 0.0
O411 O 0.69438 0.14744 0.15946 0.0
O412 O 0.72058 0.15012 0.12103 0.0
N413 N 0.69575 0.15218 0.93425 0.0
C414 C 0.6859 0.16254 0.92498 0.0
C415 C 0.69212 0.17596 0.88744 0.0
C416 C 0.70823 0.17841 0.8595 0.0
C417 C 0.71808 0.16752 0.86955 0.0
C418 C 0.71111 0.15425 0.90721 0.0
H419 H 0.67339 0.16058 0.94608 0.0
O420 O 0.70773 0.17377 0.07408 0.0
O421 O 0.70454 0.1494 0.02779 0.0
O422 O 0.66684 0.13984 0.07164 0.0
O423 O 0.66418 0.13106 0.99669 0.0
C424 C 0.73475 0.16956 0.84416 0.0
C425 C 0.74426 0.1585 0.85709 0.0
H426 H 0.75902 0.13525 0.89323 0.0
H427 H 0.74476 0.11288 0.96161 0.0
H428 H 0.68447 0.18435 0.87996 0.0
H429 H 0.71298 0.18878 0.83058 0.0
H430 H 0.74059 0.17985 0.8151 0.0
H431 H 0.75726 0.16043 0.83776 0.0
C432 C 0.34813 0.41735 0.26282 0.0
C433 C 0.32699 0.40822 0.26364 0.0
C434 C 0.35746 0.4062 0.27474 0.0
C435 C 0.35067 0.35569 0.29526 0.0
H436 H 0.38756 0.38163 0.39759 0.0
C437 C 0.3854 0.31418 0.38901 0.0
C438 C 0.40614 0.32578 0.39866 0.0
C439 C 0.37427 0.32361 0.37792 0.0
C440 C 0.37751 0.37422 0.36877 0.0
H441 H 0.29893 0.38022 0.27456 0.0
H442 H 0.31521 0.36043 0.29347 0.0
H443 H 0.37237 0.3991 0.35876 0.0
H444 H 0.43143 0.35614 0.40613 0.0
H445 H 0.41229 0.37273 0.38626 0.0
H446 H 0.35621 0.33109 0.30396 0.0
C447 C 0.32458 0.37616 0.28376 0.0
C448 C 0.36883 0.38427 0.34647 0.0
C449 C 0.31526 0.3874 0.27249 0.0
C450 C 0.4153 0.34691 0.40018 0.0
C451 C 0.40428 0.35638 0.38839 0.0
C452 C 0.35961 0.34575 0.31705 0.0
C453 C 0.34575 0.38573 0.28732 0.0
C454 C 0.3554 0.37516 0.30938 0.0
C455 C 0.38381 0.34486 0.37509 0.0
C456 C 0.3732 0.35489 0.3541 0.0
H457 H 0.35745 0.43351 0.25736 0.0
H458 H 0.37382 0.41388 0.27685 0.0
H459 H 0.34034 0.34833 0.2668 0.0
H460 H 0.37815 0.29785 0.38678 0.0
H461 H 0.35843 0.31422 0.36916 0.0
C462 C 0.92487 0.30343 0.63268 0.0
C463 C 0.91711 0.31409 0.60893 0.0
C464 C 0.94549 0.31239 0.64191 0.0
C465 C 0.98984 0.36401 0.65515 0.0
H466 H 0.01611 0.3335 0.68776 0.0
C467 C 0.06796 0.40436 0.74233 0.0
C468 C 0.0818 0.39888 0.72568 0.0
C469 C 0.04722 0.39204 0.73321 0.0
C470 C 0.00921 0.34241 0.67849 0.0
H471 H 0.92496 0.34166 0.57198 0.0
H472 H 0.96141 0.357 0.58524 0.0
H473 H 0.98365 0.31661 0.64948 0.0
H474 H 0.08482 0.37553 0.69052 0.0
H475 H 0.04933 0.35454 0.67355 0.0
H476 H 0.01608 0.39011 0.68119 0.0
C477 C 0.95144 0.34197 0.5986 0.0
C478 C 0.9903 0.33259 0.65691 0.0
C479 C 0.93061 0.33302 0.58988 0.0
C480 C 0.07446 0.38007 0.70391 0.0
C481 C 0.05392 0.36796 0.6942 0.0
C482 C 0.00901 0.37396 0.67566 0.0
C483 C 0.95901 0.33221 0.62702 0.0
C484 C 0.98018 0.34316 0.64532 0.0
C485 C 0.04008 0.37422 0.70666 0.0
C486 C 0.01898 0.36331 0.68789 0.0
H487 H 0.91478 0.28885 0.64796 0.0
H488 H 0.95041 0.30426 0.66406 0.0
H489 H 0.98251 0.37271 0.64782 0.0
H490 H 0.07329 0.41894 0.75863 0.0
H491 H 0.03699 0.3971 0.74474 0.0
C492 C 0.58479 0.93237 0.91955 0.0
C493 C 0.59361 0.92014 0.92291 0.0
C494 C 0.59594 0.95291 0.93097 0.0
C495 C 0.63925 0.98589 0.00645 0.0
H496 H 0.62781 0.02726 0.96383 0.0
C497 C 0.6821 0.07096 0.06053 0.0
C498 C 0.6701 0.07992 0.06726 0.0
C499 C 0.67321 0.05066 0.0471 0.0
C500 C 0.63099 0.01576 0.97636 0.0
H501 H 0.62128 0.91984 0.93694 0.0
H502 H 0.64124 0.95596 0.95395 0.0
H503 H 0.61348 0.99515 0.92271 0.0
H504 H 0.63952 0.0747 0.06766 0.0
H505 H 0.62391 0.03915 0.04472 0.0
H506 H 0.65719 0.0069 0.05951 0.0
C507 C 0.62554 0.9497 0.94407 0.0
C508 C 0.62282 0.99736 0.95272 0.0
C509 C 0.61428 0.9291 0.93328 0.0
C510 C 0.649 0.06793 0.0639 0.0
C511 C 0.64013 0.04774 0.04996 0.0
C512 C 0.64768 0.00444 0.02966 0.0
C513 C 0.6162 0.9616 0.94574 0.0
C514 C 0.62661 0.98204 0.96775 0.0
C515 C 0.65225 0.03921 0.03934 0.0
C516 C 0.64337 0.01943 0.01526 0.0
H517 H 0.56871 0.92563 0.91299 0.0
H518 H 0.5881 0.96143 0.93206 0.0
H519 H 0.64221 0.97437 0.01982 0.0
H520 H 0.69845 0.08011 0.06158 0.0
H521 H 0.6829 0.04447 0.03901 0.0
C522 C 0.69196 0.61751 0.29587 0.0
C523 C 0.68128 0.59862 0.27387 0.0
C524 C 0.68257 0.62876 0.3054 0.0
C525 C 0.64169 0.63831 0.2817 0.0
H526 H 0.64085 0.64567 0.41434 0.0
C527 C 0.61834 0.6921 0.35938 0.0
C528 C 0.60031 0.6823 0.38501 0.0
C529 C 0.62924 0.68238 0.34972 0.0
C530 C 0.64095 0.64364 0.37735 0.0
H531 H 0.65304 0.57748 0.2409 0.0
H532 H 0.63675 0.59776 0.25581 0.0
H533 H 0.65809 0.62843 0.38265 0.0
H534 H 0.58049 0.65539 0.42408 0.0
H535 H 0.60024 0.63852 0.40861 0.0
H536 H 0.62509 0.65406 0.27632 0.0
C537 C 0.65235 0.60364 0.26612 0.0
C538 C 0.65085 0.63393 0.3592 0.0
C539 C 0.66174 0.5922 0.257 0.0
C540 C 0.59453 0.66341 0.40499 0.0
C541 C 0.60565 0.65368 0.39564 0.0
C542 C 0.63217 0.6484 0.29978 0.0
C543 C 0.66238 0.62144 0.2926 0.0
C544 C 0.6514 0.63129 0.31122 0.0
C545 C 0.62248 0.66274 0.36594 0.0
C546 C 0.63183 0.65124 0.34771 0.0
H547 H 0.707 0.62276 0.30938 0.0
H548 H 0.6907 0.6426 0.3252 0.0
H549 H 0.6419 0.6364 0.24468 0.0
H550 H 0.62312 0.70663 0.34349 0.0
H551 H 0.64234 0.68975 0.32733 0.0
C552 C 0.93087 0.58099 0.73778 0.0
C553 C 0.91884 0.59011 0.73801 0.0
C554 C 0.95135 0.59227 0.72609 0.0
C555 C 0.99505 0.643 0.70795 0.0
H556 H 0.00619 0.61814 0.60368 0.0
C557 C 0.07146 0.68545 0.61541 0.0
C558 C 0.08063 0.67394 0.6051 0.0
C559 C 0.05085 0.6759 0.62616 0.0
C560 C 0.00349 0.62525 0.63304 0.0
H561 H 0.91878 0.61822 0.72918 0.0
H562 H 0.95486 0.63823 0.71063 0.0
H563 H 0.97346 0.60028 0.64206 0.0
H564 H 0.07563 0.64367 0.59598 0.0
H565 H 0.03982 0.62688 0.61523 0.0
H566 H 0.02521 0.66768 0.70019 0.0
C567 C 0.94849 0.62239 0.71938 0.0
C568 C 0.98472 0.61497 0.65508 0.0
C569 C 0.92793 0.61102 0.73044 0.0
C570 C 0.06869 0.65284 0.6025 0.0
C571 C 0.04815 0.64325 0.61393 0.0
C572 C 0.01397 0.65317 0.68639 0.0
C573 C 0.9601 0.61287 0.71476 0.0
C574 C 0.98035 0.62369 0.69287 0.0
C575 C 0.03917 0.65464 0.62794 0.0
C576 C 0.01849 0.64441 0.64865 0.0
H577 H 0.92402 0.56477 0.74224 0.0
H578 H 0.96004 0.58463 0.72316 0.0
H579 H 0.99203 0.65005 0.73697 0.0
H580 H 0.08051 0.70176 0.61842 0.0
H581 H 0.04438 0.6852 0.63549 0.0
C582 C 0.3119 0.92906 0.06691 0.0
C583 C 0.3234 0.9198 0.07678 0.0
C584 C 0.32144 0.94953 0.05476 0.0
C585 C 0.36672 0.9842 0.99202 0.0
H586 H 0.35187 0.02475 0.01959 0.0
C587 C 0.41299 0.06701 0.93165 0.0
C588 C 0.40336 0.0785 0.92803 0.0
C589 C 0.40195 0.04656 0.9437 0.0
C590 C 0.35591 0.01344 0.01068 0.0
H591 H 0.35372 0.92489 0.08581 0.0
H592 H 0.37047 0.96078 0.06552 0.0
H593 H 0.33611 0.99294 0.06233 0.0
H594 H 0.37452 0.07741 0.92972 0.0
H595 H 0.35494 0.04139 0.94824 0.0
H596 H 0.38616 0.00433 0.93978 0.0
C597 C 0.3541 0.95223 0.06683 0.0
C598 C 0.34704 0.99532 0.03569 0.0
C599 C 0.34453 0.93181 0.07943 0.0
C600 C 0.38222 0.06874 0.93145 0.0
C601 C 0.3711 0.04822 0.94319 0.0
C602 C 0.37541 0.00219 0.96666 0.0
C603 C 0.34264 0.96094 0.05177 0.0
C604 C 0.35253 0.98061 0.02698 0.0
C605 C 0.38102 0.03721 0.95227 0.0
C606 C 0.37027 0.01715 0.97588 0.0
H607 H 0.29561 0.91998 0.06356 0.0
H608 H 0.31221 0.95581 0.04335 0.0
H609 H 0.37086 0.9729 0.98364 0.0
H610 H 0.42935 0.07436 0.9305 0.0
H611 H 0.4102 0.0387 0.9505 0.0
C612 C 0.17188 0.41821 0.84867 0.0
C613 C 0.16507 0.43224 0.85098 0.0
C614 C 0.18393 0.41717 0.88388 0.0
C615 C 0.21951 0.44894 0.975 0.0
H616 H 0.21491 0.39859 0.01718 0.0
C617 C 0.28004 0.44834 0.09368 0.0
C618 C 0.27276 0.43523 0.13184 0.0
C619 C 0.26696 0.44668 0.05781 0.0
C620 C 0.21637 0.41279 0.00587 0.0
H621 H 0.16489 0.45561 0.89321 0.0
H622 H 0.1857 0.45367 0.95479 0.0
H623 H 0.19074 0.39788 0.96076 0.0
H624 H 0.24619 0.40951 0.16108 0.0
H625 H 0.22348 0.40658 0.09862 0.0
H626 H 0.24493 0.46385 0.02044 0.0
C627 C 0.18199 0.44366 0.9254 0.0
C628 C 0.20259 0.41239 0.97327 0.0
C629 C 0.16988 0.44463 0.89028 0.0
C630 C 0.25233 0.41983 0.13217 0.0
C631 C 0.23929 0.41812 0.09624 0.0
C632 C 0.23333 0.44934 0.00736 0.0
C633 C 0.18954 0.43021 0.92221 0.0
C634 C 0.20393 0.43047 0.95752 0.0
C635 C 0.24631 0.43183 0.05912 0.0
C636 C 0.23195 0.43128 0.02331 0.0
H637 H 0.16852 0.40847 0.81885 0.0
H638 H 0.18954 0.40672 0.88009 0.0
H639 H 0.2212 0.46318 0.96324 0.0
H640 H 0.29567 0.46038 0.09231 0.0
H641 H 0.27296 0.45729 0.02937 0.0
C642 C 0.82502 0.24259 0.489 0.0
C643 C 0.83353 0.26366 0.48438 0.0
C644 C 0.81296 0.22945 0.45394 0.0
C645 C 0.79965 0.22676 0.33013 0.0
H646 H 0.7493 0.17969 0.36773 0.0
C647 C 0.74705 0.16672 0.19822 0.0
C648 C 0.72632 0.16043 0.20112 0.0
C649 C 0.76035 0.17794 0.23382 0.0
C650 C 0.76327 0.19278 0.35664 0.0
H651 H 0.83663 0.28743 0.43834 0.0
H652 H 0.81575 0.26451 0.37691 0.0
H653 H 0.77269 0.20243 0.42622 0.0
H654 H 0.70323 0.16032 0.24485 0.0
H655 H 0.72645 0.17979 0.30731 0.0
H656 H 0.79009 0.2173 0.26055 0.0
C657 C 0.81842 0.25815 0.40772 0.0
C658 C 0.77679 0.20572 0.39017 0.0
C659 C 0.83039 0.2713 0.44297 0.0
C660 C 0.71907 0.16483 0.24156 0.0
C661 C 0.7324 0.176 0.27738 0.0
C662 C 0.78621 0.21374 0.29661 0.0
C663 C 0.80919 0.23703 0.41318 0.0
C664 C 0.79512 0.22294 0.37736 0.0
C665 C 0.75329 0.18312 0.27344 0.0
C666 C 0.7678 0.19661 0.30941 0.0
H667 H 0.82711 0.23615 0.5204 0.0
H668 H 0.80639 0.21331 0.45899 0.0
H669 H 0.81366 0.2398 0.31902 0.0
H670 H 0.75318 0.16358 0.16765 0.0
H671 H 0.77626 0.18284 0.22999 0.0
C672 C 0.55298 0.83123 0.76053 0.0
C673 C 0.56582 0.83715 0.7992 0.0
C674 C 0.55474 0.81956 0.72545 0.0
C675 C 0.58867 0.80233 0.67643 0.0
H676 H 0.5384 0.75721 0.63178 0.0
C677 C 0.58375 0.75317 0.51829 0.0
C678 C 0.56938 0.73239 0.51936 0.0
C679 C 0.58482 0.766 0.55412 0.0
C680 C 0.5526 0.76961 0.64416 0.0
H681 H 0.59117 0.83614 0.83024 0.0
H682 H 0.59427 0.81589 0.76911 0.0
H683 H 0.53754 0.78026 0.68868 0.0
H684 H 0.5455 0.70866 0.56018 0.0
H685 H 0.54751 0.73098 0.62291 0.0
H686 H 0.60371 0.79148 0.63214 0.0
C687 C 0.58286 0.8203 0.76574 0.0
C688 C 0.5521 0.78303 0.67633 0.0
C689 C 0.58105 0.8319 0.8009 0.0
C690 C 0.55675 0.72458 0.55819 0.0
C691 C 0.55776 0.73743 0.59396 0.0
C692 C 0.58917 0.78894 0.64401 0.0
C693 C 0.56943 0.81357 0.72807 0.0
C694 C 0.57011 0.7996 0.6929 0.0
C695 C 0.57149 0.75838 0.59187 0.0
C696 C 0.57113 0.77237 0.62748 0.0
H697 H 0.54108 0.835 0.7581 0.0
H698 H 0.54437 0.81495 0.69654 0.0
H699 H 0.60284 0.81497 0.68824 0.0
H700 H 0.59368 0.75971 0.48885 0.0
H701 H 0.5955 0.78204 0.55115 0.0
C702 C 0.75349 0.58041 0.15114 0.0
C703 C 0.73265 0.56633 0.14896 0.0
C704 C 0.76656 0.58133 0.11609 0.0
C705 C 0.77038 0.54929 0.02554 0.0
H706 H 0.81629 0.59955 0.9835 0.0
C707 C 0.83143 0.54961 0.90697 0.0
C708 C 0.83743 0.56284 0.86902 0.0
C709 C 0.82 0.55127 0.94281 0.0
C710 C 0.80351 0.58537 0.99475 0.0
H711 H 0.70912 0.54276 0.10707 0.0
H712 H 0.73187 0.54453 0.04569 0.0
H713 H 0.79279 0.60037 0.03954 0.0
H714 H 0.83687 0.58878 0.84012 0.0
H715 H 0.81706 0.59169 0.90244 0.0
H716 H 0.78087 0.53429 0.98033 0.0
C717 C 0.73817 0.55466 0.07491 0.0
C718 C 0.79011 0.58584 0.02716 0.0
C719 C 0.72508 0.55378 0.1099 0.0
C720 C 0.83255 0.57835 0.86887 0.0
C721 C 0.82121 0.58006 0.90474 0.0
C722 C 0.78381 0.54882 0.99333 0.0
C723 C 0.75915 0.56814 0.07801 0.0
C724 C 0.77331 0.5678 0.04287 0.0
C725 C 0.81436 0.56625 0.94166 0.0
C726 C 0.80055 0.56684 0.97741 0.0
H727 H 0.75985 0.59026 0.18079 0.0
H728 H 0.78262 0.59182 0.11984 0.0
H729 H 0.7578 0.53508 0.03729 0.0
H730 H 0.8349 0.53748 0.90818 0.0
H731 H 0.81528 0.54058 0.97109 0.0
C732 C 0.16614 0.71915 0.43123 0.0
C733 C 0.16082 0.72681 0.46955 0.0
C734 C 0.17753 0.73198 0.39501 0.0
C735 C 0.19547 0.78293 0.34337 0.0
H736 H 0.23978 0.77635 0.29918 0.0
C737 C 0.24616 0.82771 0.18762 0.0
C738 C 0.26683 0.83369 0.18958 0.0
C739 C 0.23284 0.81555 0.22231 0.0
C740 C 0.2276 0.77853 0.31139 0.0
H741 H 0.1625 0.7538 0.49869 0.0
H742 H 0.18227 0.77607 0.43577 0.0
H743 H 0.21641 0.75287 0.35621 0.0
H744 H 0.28981 0.83222 0.23064 0.0
H745 H 0.26665 0.81126 0.29142 0.0
H746 H 0.20695 0.80887 0.29909 0.0
C747 C 0.17761 0.76016 0.43345 0.0
C748 C 0.21398 0.76485 0.34363 0.0
C749 C 0.16628 0.74737 0.46967 0.0
C750 C 0.27399 0.82788 0.22799 0.0
C751 C 0.26066 0.81568 0.26263 0.0
C752 C 0.20907 0.7966 0.31096 0.0
C753 C 0.18383 0.75277 0.39617 0.0
C754 C 0.19775 0.76688 0.36018 0.0
C755 C 0.23984 0.80901 0.25979 0.0
C756 C 0.22539 0.79464 0.29469 0.0
H757 H 0.1622 0.70341 0.43002 0.0
H758 H 0.18174 0.72568 0.36646 0.0
H759 H 0.18309 0.7849 0.3551 0.0
H760 H 0.24011 0.83185 0.15846 0.0
H761 H 0.21691 0.81062 0.21876 0.0
C762 C 0.44424 0.17118 0.77708 0.0
C763 C 0.43083 0.16513 0.81469 0.0
C764 C 0.44344 0.18353 0.74231 0.0
C765 C 0.41123 0.20273 0.69238 0.0
H766 H 0.46257 0.24655 0.64878 0.0
C767 C 0.41834 0.25246 0.53431 0.0
C768 C 0.43349 0.27298 0.53461 0.0
C769 C 0.41677 0.23957 0.57041 0.0
C770 C 0.44808 0.23455 0.66091 0.0
H771 H 0.40555 0.16671 0.84425 0.0
H772 H 0.40418 0.18821 0.78387 0.0
H773 H 0.46209 0.22288 0.70581 0.0
H774 H 0.4583 0.29624 0.57434 0.0
H775 H 0.45538 0.27382 0.63779 0.0
H776 H 0.39722 0.21462 0.64793 0.0
C777 C 0.41526 0.18335 0.78095 0.0
C778 C 0.44781 0.22075 0.69315 0.0
C779 C 0.41608 0.17103 0.81571 0.0
C780 C 0.44644 0.28052 0.57301 0.0
C781 C 0.4449 0.2676 0.60915 0.0
C782 C 0.4115 0.21652 0.66005 0.0
C783 C 0.4292 0.19012 0.74425 0.0
C784 C 0.42938 0.20461 0.70926 0.0
C785 C 0.43034 0.24684 0.60781 0.0
C786 C 0.42994 0.23261 0.6438 0.0
H787 H 0.45579 0.16691 0.77517 0.0
H788 H 0.45417 0.18812 0.71414 0.0
H789 H 0.39675 0.19044 0.70374 0.0
H790 H 0.40813 0.24611 0.50523 0.0
H791 H 0.40547 0.22368 0.5679 0.0
C792 C 0.18295 0.43945 0.63067 0.0
C793 C 0.183 0.45677 0.64669 0.0
C794 C 0.19573 0.44084 0.59489 0.0
C795 C 0.23886 0.47673 0.52091 0.0
H796 H 0.2112 0.43359 0.43178 0.0
C797 C 0.27741 0.47767 0.34908 0.0
C798 C 0.27415 0.45881 0.33423 0.0
C799 C 0.26539 0.47873 0.38422 0.0
C800 C 0.21949 0.44566 0.45631 0.0
H801 H 0.19733 0.48931 0.64133 0.0
H802 H 0.21908 0.49181 0.57641 0.0
H803 H 0.19553 0.43178 0.50449 0.0
H804 H 0.25449 0.42643 0.33872 0.0
H805 H 0.23435 0.42793 0.40097 0.0
H806 H 0.26388 0.48958 0.47432 0.0
C807 C 0.20946 0.47714 0.59191 0.0
C808 C 0.2102 0.44478 0.4981 0.0
C809 C 0.19694 0.47576 0.62871 0.0
C810 C 0.25765 0.44112 0.35118 0.0
C811 C 0.24583 0.4421 0.38641 0.0
C812 C 0.24863 0.47722 0.47963 0.0
C813 C 0.20857 0.45958 0.57375 0.0
C814 C 0.21953 0.46038 0.53071 0.0
C815 C 0.24994 0.46091 0.40468 0.0
C816 C 0.23907 0.4616 0.44675 0.0
H817 H 0.1727 0.42472 0.64527 0.0
H818 H 0.19512 0.42709 0.58301 0.0
H819 H 0.24668 0.48887 0.5456 0.0
H820 H 0.28976 0.49151 0.33507 0.0
H821 H 0.26859 0.4935 0.396 0.0
C822 C 0.80222 0.27688 0.70595 0.0
C823 C 0.81584 0.2714 0.68796 0.0
C824 C 0.78973 0.26605 0.74304 0.0
C825 C 0.78864 0.23294 0.83724 0.0
H826 H 0.73563 0.22559 0.8624 0.0
C827 C 0.74081 0.18222 0.98384 0.0
C828 C 0.72456 0.18378 0.00113 0.0
C829 C 0.75282 0.19507 0.94892 0.0
C830 C 0.75071 0.22806 0.8567 0.0
H831 H 0.82556 0.24921 0.68956 0.0
H832 H 0.8031 0.22963 0.75221 0.0
H833 H 0.75268 0.24157 0.79064 0.0
H834 H 0.70965 0.20153 0.00133 0.0
H835 H 0.73118 0.22477 0.94089 0.0
H836 H 0.78763 0.2208 0.9036 0.0
C837 C 0.80276 0.24289 0.7402 0.0
C838 C 0.76039 0.23704 0.81514 0.0
C839 C 0.81555 0.254 0.70418 0.0
C840 C 0.7218 0.19978 0.98704 0.0
C841 C 0.73402 0.2129 0.9522 0.0
C842 C 0.77946 0.22482 0.87928 0.0
C843 C 0.7903 0.24926 0.76144 0.0
C844 C 0.77945 0.23944 0.80482 0.0
C845 C 0.74918 0.21017 0.93132 0.0
C846 C 0.7601 0.22169 0.88928 0.0
H847 H 0.80209 0.29015 0.69316 0.0
H848 H 0.7804 0.27144 0.75859 0.0
H849 H 0.8031 0.23419 0.83049 0.0
H850 H 0.74359 0.17036 0.99572 0.0
H851 H 0.76406 0.19209 0.934 0.0
C852 C 0.52401 0.80313 0.01998 0.0
C853 C 0.54273 0.81844 0.0037 0.0
C854 C 0.52325 0.79089 0.05675 0.0
C855 C 0.55703 0.77982 0.13117 0.0
H856 H 0.51338 0.76342 0.21925 0.0
C857 C 0.56221 0.74743 0.30308 0.0
C858 C 0.54473 0.72993 0.31748 0.0
C859 C 0.5611 0.75968 0.26901 0.0
C860 C 0.52567 0.76791 0.19496 0.0
H861 H 0.57515 0.83142 0.00765 0.0
H862 H 0.5742 0.81133 0.07269 0.0
H863 H 0.51272 0.77968 0.14754 0.0
H864 H 0.51219 0.71217 0.31127 0.0
H865 H 0.51022 0.73283 0.24893 0.0
H866 H 0.57099 0.77014 0.18009 0.0
C867 C 0.55989 0.8082 0.05803 0.0
C868 C 0.52521 0.77703 0.15341 0.0
C869 C 0.56056 0.82013 0.02113 0.0
C870 C 0.52587 0.72551 0.29983 0.0
C871 C 0.52478 0.73746 0.26456 0.0
C872 C 0.55792 0.77165 0.17328 0.0
C873 C 0.54125 0.79382 0.07752 0.0
C874 C 0.54087 0.78302 0.12072 0.0
C875 C 0.54251 0.75435 0.24775 0.0
C876 C 0.54208 0.76508 0.20531 0.0
H877 H 0.51005 0.80125 0.00567 0.0
H878 H 0.50859 0.7795 0.06942 0.0
H879 H 0.56919 0.78357 0.10695 0.0
H880 H 0.57684 0.75141 0.31753 0.0
H881 H 0.57498 0.77297 0.25831 0.0
C882 C 0.74403 0.56008 0.36968 0.0
C883 C 0.72685 0.54269 0.35356 0.0
C884 C 0.75548 0.55874 0.40544 0.0
C885 C 0.76289 0.52284 0.47912 0.0
H886 H 0.77819 0.5658 0.56866 0.0
C887 C 0.79997 0.52133 0.65113 0.0
C888 C 0.81558 0.54012 0.66629 0.0
C889 C 0.78697 0.52042 0.61597 0.0
C890 C 0.77445 0.55378 0.54402 0.0
H891 H 0.70888 0.51012 0.35866 0.0
H892 H 0.7282 0.50773 0.42352 0.0
H893 H 0.76447 0.56776 0.49584 0.0
H894 H 0.82835 0.57252 0.66244 0.0
H895 H 0.80685 0.57129 0.60009 0.0
H896 H 0.77493 0.50987 0.52572 0.0
C897 C 0.73314 0.52239 0.40814 0.0
C898 C 0.76614 0.55475 0.50216 0.0
C899 C 0.72196 0.52372 0.37138 0.0
C900 C 0.81682 0.55788 0.64969 0.0
C901 C 0.80411 0.55706 0.61441 0.0
C902 C 0.77206 0.52225 0.52048 0.0
C903 C 0.74972 0.54 0.42642 0.0
C904 C 0.75991 0.5392 0.46942 0.0
C905 C 0.78943 0.53833 0.59577 0.0
C906 C 0.77802 0.53779 0.55354 0.0
H907 H 0.74839 0.57479 0.35518 0.0
H908 H 0.76855 0.57253 0.41741 0.0
H909 H 0.75863 0.51076 0.45432 0.0
H910 H 0.79843 0.50743 0.6649 0.0
H911 H 0.7754 0.5057 0.60392 0.0
C912 C 0.20038 0.724 0.68514 0.0
C913 C 0.18471 0.72719 0.67048 0.0
C914 C 0.21396 0.73655 0.71895 0.0
C915 C 0.22887 0.78412 0.78592 0.0
H916 H 0.24274 0.75704 0.88008 0.0
C917 C 0.25764 0.82118 0.96168 0.0
C918 C 0.27414 0.82034 0.98015 0.0
C919 C 0.24702 0.80901 0.92428 0.0
C920 C 0.2391 0.76486 0.85395 0.0
H921 H 0.17229 0.74714 0.67392 0.0
H922 H 0.19503 0.7684 0.73385 0.0
H923 H 0.2261 0.73903 0.80966 0.0
H924 H 0.29167 0.80521 0.97739 0.0
H925 H 0.27367 0.78436 0.91036 0.0
H926 H 0.24023 0.80919 0.83151 0.0
C927 C 0.19726 0.75648 0.72007 0.0
C928 C 0.22968 0.75459 0.81327 0.0
C929 C 0.1839 0.74407 0.68626 0.0
C930 C 0.27915 0.80626 0.96283 0.0
C931 C 0.26875 0.79427 0.9248 0.0
C932 C 0.23768 0.79408 0.82694 0.0
C933 C 0.21208 0.75252 0.73809 0.0
C934 C 0.22422 0.76403 0.7789 0.0
C935 C 0.25283 0.79583 0.90448 0.0
C936 C 0.24301 0.78469 0.86142 0.0
H937 H 0.20155 0.71132 0.67205 0.0
H938 H 0.22556 0.73341 0.73081 0.0
H939 H 0.22546 0.7922 0.76003 0.0
H940 H 0.25313 0.83149 0.9758 0.0
H941 H 0.23446 0.81017 0.91046 0.0
C942 C 0.43337 0.17785 0.04519 0.0
C943 C 0.45032 0.17846 0.02498 0.0
C944 C 0.4357 0.19018 0.08288 0.0
C945 C 0.4728 0.23466 0.15016 0.0
H946 H 0.43438 0.20704 0.24875 0.0
C947 C 0.43968 0.25558 0.31896 0.0
C948 C 0.4573 0.27272 0.33407 0.0
C949 C 0.44071 0.24306 0.28553 0.0
C950 C 0.44516 0.21514 0.22155 0.0
H951 H 0.48301 0.19352 0.02457 0.0
H952 H 0.4872 0.2148 0.09174 0.0
H953 H 0.43154 0.18949 0.17752 0.0
H954 H 0.48999 0.28911 0.33145 0.0
H955 H 0.49203 0.26694 0.27295 0.0
H956 H 0.48581 0.26084 0.19347 0.0
C957 C 0.4721 0.20482 0.07866 0.0
C958 C 0.44358 0.20494 0.18066 0.0
C959 C 0.46974 0.1926 0.04055 0.0
C960 C 0.4762 0.27619 0.31893 0.0
C961 C 0.4773 0.26359 0.28537 0.0
C962 C 0.47418 0.24509 0.19093 0.0
C963 C 0.45505 0.20335 0.10094 0.0
C964 C 0.45721 0.21455 0.14432 0.0
C965 C 0.45949 0.24725 0.26716 0.0
C966 C 0.46006 0.23555 0.22676 0.0
H967 H 0.4183 0.16754 0.03237 0.0
H968 H 0.42229 0.1891 0.09845 0.0
H969 H 0.48352 0.24255 0.12269 0.0
H970 H 0.42499 0.25233 0.33159 0.0
H971 H 0.4266 0.23084 0.27231 0.0
C972 C 0.37172 0.50575 0.26669 0.0
C973 C 0.36123 0.49447 0.30576 0.0
C974 C 0.39051 0.52344 0.27143 0.0
C975 C 0.43265 0.5513 0.35547 0.0
H976 H 0.44541 0.59702 0.27603 0.0
C977 C 0.49944 0.63289 0.38735 0.0
C978 C 0.51135 0.64278 0.34848 0.0
C979 C 0.48156 0.61425 0.3826 0.0
C980 C 0.44208 0.58432 0.29826 0.0
H981 H 0.36235 0.49309 0.38057 0.0
H982 H 0.3945 0.52401 0.38878 0.0
H983 H 0.41343 0.56559 0.26608 0.0
H984 H 0.51384 0.64054 0.27417 0.0
H985 H 0.4827 0.60835 0.26617 0.0
H986 H 0.4612 0.57039 0.38834 0.0
C987 C 0.3886 0.51901 0.35433 0.0
C988 C 0.42381 0.56625 0.29242 0.0
C989 C 0.37 0.50127 0.34957 0.0
C990 C 0.5051 0.63344 0.30497 0.0
C991 C 0.48717 0.61502 0.30021 0.0
C992 C 0.45082 0.56947 0.36165 0.0
C993 C 0.39913 0.53036 0.31538 0.0
C994 C 0.41883 0.54948 0.32091 0.0
C995 C 0.47513 0.60532 0.33884 0.0
C996 C 0.45573 0.58612 0.33302 0.0
H997 H 0.36547 0.50089 0.23242 0.0
H998 H 0.39832 0.5316 0.24056 0.0
H999 H 0.42954 0.53862 0.37755 0.0
H1000 H 0.50381 0.63962 0.42134 0.0
H1001 H 0.47249 0.60708 0.41294 0.0
C1002 C 0.86818 0.49731 0.64897 0.0
C1003 C 0.86679 0.50419 0.69316 0.0
C1004 C 0.86918 0.47968 0.64354 0.0
C1005 C 0.85909 0.43292 0.70535 0.0
H1006 H 0.8907 0.42889 0.6053 0.0
C1007 C 0.8751 0.36713 0.69017 0.0
C1008 C 0.87053 0.35698 0.64742 0.0
C1009 C 0.87545 0.38549 0.6948 0.0
C1010 C 0.88172 0.42979 0.63315 0.0
H1011 H 0.86578 0.49799 0.76643 0.0
H1012 H 0.86825 0.46751 0.75709 0.0
H1013 H 0.89033 0.46038 0.61695 0.0
H1014 H 0.86354 0.35874 0.57556 0.0
H1015 H 0.86462 0.39126 0.58365 0.0
H1016 H 0.85098 0.40245 0.72213 0.0
C1017 C 0.86799 0.4755 0.72647 0.0
C1018 C 0.88142 0.44779 0.63983 0.0
C1019 C 0.86669 0.49306 0.7319 0.0
C1020 C 0.86707 0.3661 0.60897 0.0
C1021 C 0.86772 0.38471 0.61354 0.0
C1022 C 0.85964 0.41505 0.69904 0.0
C1023 C 0.86914 0.46852 0.68215 0.0
C1024 C 0.87001 0.44957 0.67591 0.0
C1025 C 0.87153 0.39434 0.65674 0.0
C1026 C 0.8709 0.4133 0.66283 0.0
H1027 H 0.86818 0.50538 0.61822 0.0
H1028 H 0.86961 0.47463 0.60884 0.0
H1029 H 0.8498 0.43351 0.73287 0.0
H1030 H 0.87791 0.36068 0.72063 0.0
H1031 H 0.87869 0.39273 0.72834 0.0
C1032 C 0.50595 0.88253 0.99914 0.0
C1033 C 0.50714 0.86973 0.96587 0.0
C1034 C 0.48813 0.88317 0.005 0.0
C1035 C 0.43344 0.85253 0.99028 0.0
H1036 H 0.43434 0.90353 0.00459 0.0
C1037 C 0.36391 0.85758 0.05229 0.0
C1038 C 0.35911 0.86988 0.02517 0.0
C1039 C 0.3823 0.85798 0.04603 0.0
C1040 C 0.43386 0.88918 1.00062 0.0
H1041 H 0.49059 0.84779 0.91215 0.0
H1042 H 0.45928 0.84883 0.92272 0.0
H1043 H 0.46579 0.90353 0.98867 0.0
H1044 H 0.37016 0.89273 0.97133 0.0
H1045 H 0.40222 0.89357 0.961 0.0
H1046 H 0.40149 0.83819 0.00231 0.0
C1047 C 0.47223 0.85833 0.94422 0.0
C1048 C 0.45185 0.88918 0.99172 0.0
C1049 C 0.49019 0.85787 0.93793 0.0
C1050 C 0.37334 0.88301 0.99273 0.0
C1051 C 0.39176 0.88358 0.98691 0.0
C1052 C 0.41547 0.85253 0.99971 0.0
C1053 C 0.471 0.87088 0.97808 0.0
C1054 C 0.45182 0.87086 0.98633 0.0
C1055 C 0.39633 0.87089 0.01302 0.0
C1056 C 0.4155 0.87086 0.00482 0.0
H1057 H 0.51873 0.89191 0.02119 0.0
H1058 H 0.48758 0.89288 0.03156 0.0
H1059 H 0.43302 0.83819 0.98677 0.0
H1060 H 0.35325 0.84724 0.07742 0.0
H1061 H 0.38554 0.84816 0.0669 0.0
C1062 C 0.63066 0.50395 0.35692 0.0
C1063 C 0.64062 0.51001 0.3141 0.0
C1064 C 0.61205 0.48617 0.36085 0.0
C1065 C 0.57945 0.43747 0.30114 0.0
H1066 H 0.53955 0.43355 0.38982 0.0
C1067 C 0.49902 0.3683 0.31267 0.0
C1068 C 0.49226 0.36005 0.35694 0.0
C1069 C 0.51674 0.38686 0.30715 0.0
C1070 C 0.55063 0.43441 0.36518 0.0
H1071 H 0.6384 0.5023 0.24147 0.0
H1072 H 0.60551 0.47151 0.24801 0.0
H1073 H 0.5706 0.46582 0.3787 0.0
H1074 H 0.49873 0.36519 0.4302 0.0
H1075 H 0.52965 0.39794 0.4204 0.0
H1076 H 0.55914 0.40609 0.28707 0.0
C1077 C 0.61241 0.48029 0.27887 0.0
C1078 C 0.56846 0.45288 0.3588 0.0
C1079 C 0.63122 0.49804 0.27501 0.0
C1080 C 0.50352 0.37106 0.39564 0.0
C1081 C 0.52116 0.38983 0.39008 0.0
C1082 C 0.5615 0.41909 0.3071 0.0
C1083 C 0.60269 0.47401 0.32198 0.0
C1084 C 0.5832 0.45462 0.32697 0.0
C1085 C 0.52802 0.39779 0.34573 0.0
C1086 C 0.54698 0.41735 0.33939 0.0
H1087 H 0.63744 0.51267 0.38793 0.0
H1088 H 0.6053 0.4817 0.39477 0.0
H1089 H 0.59056 0.43808 0.27698 0.0
H1090 H 0.49078 0.36032 0.282 0.0
H1091 H 0.52157 0.39274 0.27261 0.0
C1092 C 0.13214 0.62855 0.60727 0.0
C1093 C 0.13237 0.6396 0.64631 0.0
C1094 C 0.13074 0.60964 0.61222 0.0
C1095 C 0.11762 0.56829 0.69791 0.0
H1096 H 0.14777 0.55365 0.61399 0.0
C1097 C 0.13189 0.50082 0.72617 0.0
C1098 C 0.12861 0.48845 0.68736 0.0
C1099 C 0.13117 0.51875 0.72209 0.0
C1100 C 0.13917 0.5575 0.6375 0.0
H1101 H 0.13138 0.63935 0.72127 0.0
H1102 H 0.12969 0.60697 0.72981 0.0
H1103 H 0.14894 0.58593 0.60443 0.0
H1104 H 0.12149 0.48513 0.61404 0.0
H1105 H 0.12054 0.51635 0.60719 0.0
H1106 H 0.10839 0.53996 0.73166 0.0
C1107 C 0.13 0.61254 0.69527 0.0
C1108 C 0.13973 0.57595 0.63189 0.0
C1109 C 0.13114 0.63127 0.69033 0.0
C1110 C 0.12415 0.49423 0.64475 0.0
C1111 C 0.12371 0.5122 0.64063 0.0
C1112 C 0.1173 0.54994 0.70387 0.0
C1113 C 0.12978 0.60144 0.65634 0.0
C1114 C 0.12892 0.5816 0.66194 0.0
C1115 C 0.12744 0.52476 0.67906 0.0
C1116 C 0.128 0.54434 0.67359 0.0
H1117 H 0.13292 0.63444 0.57286 0.0
H1118 H 0.13026 0.6014 0.58137 0.0
H1119 H 0.10881 0.57191 0.72126 0.0
H1120 H 0.13532 0.49683 0.75949 0.0
H1121 H 0.13414 0.52822 0.75226 0.0
C1122 C 0.62704 0.13461 0.06889 0.0
C1123 C 0.63741 0.13382 0.02958 0.0
C1124 C 0.60842 0.13392 0.06444 0.0
C1125 C 0.56643 0.12034 0.98061 0.0
H1126 H 0.55394 0.15344 0.0603 0.0
C1127 C 0.49946 0.13441 0.94785 0.0
C1128 C 0.48735 0.13216 0.98648 0.0
C1129 C 0.51766 0.13431 0.95307 0.0
C1130 C 0.5572 0.14403 0.03798 0.0
H1131 H 0.63632 0.1319 0.95466 0.0
H1132 H 0.60451 0.13134 0.94703 0.0
H1133 H 0.58577 0.15363 0.07039 0.0
H1134 H 0.48501 0.12805 0.06095 0.0
H1135 H 0.51669 0.12813 0.06979 0.0
H1136 H 0.53798 0.11112 0.94763 0.0
C1137 C 0.61034 0.13191 0.98141 0.0
C1138 C 0.57538 0.14404 0.04391 0.0
C1139 C 0.62876 0.13238 0.98584 0.0
C1140 C 0.49389 0.12984 0.03034 0.0
C1141 C 0.51213 0.12999 0.03556 0.0
C1142 C 0.54836 0.12051 0.97438 0.0
C1143 C 0.59987 0.13261 0.02058 0.0
C1144 C 0.58025 0.1322 0.01526 0.0
C1145 C 0.52421 0.13223 0.99705 0.0
C1146 C 0.54356 0.13234 0.00303 0.0
H1147 H 0.63322 0.13564 0.10309 0.0
H1148 H 0.60065 0.13423 0.09544 0.0
H1149 H 0.56945 0.11072 0.95845 0.0
H1150 H 0.49489 0.1362 0.9136 0.0
H1151 H 0.52676 0.13616 0.92281 0.0
loop_
_geom_bond_atom_site_label_1
_geom_bond_atom_site_label_2
_geom_bond_distance
_geom_bond_site_symmetry_2
_ccdc_geom_bond_type
Mn0 O5 2.095 . S
Mn0 O15 2.162 . S
Mn0 O16 2.297 . S
Mn0 O24 2.385 . S
Mn0 O25 2.209 . S
Mn0 O26 2.094 . S
Mn1 O6 2.121 . S
Mn1 N8 2.257 . S
Mn1 N17 2.282 . S
Mn1 O25 2.215 . S
Mn1 O27 2.117 . S
C2 O24 1.234 . S
C2 O25 1.283 . S
C3 O15 1.281 . S
C3 O16 1.236 . S
C4 O26 1.240 . S
C4 O27 1.264 . S
O5 Mn0 2.095 . S
O5 C14 1.250 . S
O6 Mn1 2.121 . S
O6 C14 1.258 . S
C7 N8 1.326 . S
C7 C11 1.460 . S
C7 H13 0.929 . S
N8 Mn1 2.257 . S
N8 C7 1.326 . S
N8 C12 1.362 . S
C9 C10 1.258 . S
C9 C12 1.431 . S
C9 C29 1.449 . S
C10 C9 1.258 . S
C10 C11 1.477 . S
C10 H30 0.931 . S
C11 C7 1.460 . S
C11 C10 1.477 . S
C11 H31 0.930 . S
C12 N8 1.362 . S
C12 C9 1.431 . S
C12 C22 1.476 . S
H13 C7 0.929 . S
C14 O5 1.250 . S
C14 O6 1.258 . S
O15 Mn0 2.162 . S
O15 C3 1.281 . S
O16 Mn0 2.297 . S
O16 C3 1.236 . S
N17 Mn1 2.282 . S
N17 C18 1.328 . S
N17 C22 1.318 . S
C18 N17 1.328 . S
C18 C19 1.457 . S
C18 H23 0.929 . S
C19 C18 1.457 . S
C19 C20 1.291 . S
C19 H32 0.931 . S
C20 C19 1.291 . S
C20 C21 1.373 . S
C20 H33 0.929 . S
C21 C20 1.373 . S
C21 C22 1.396 . S
C21 C28 1.403 . S
C22 C12 1.476 . S
C22 N17 1.318 . S
C22 C21 1.396 . S
H23 C18 0.929 . S
O24 Mn0 2.385 . S
O24 C2 1.234 . S
O25 Mn0 2.209 . S
O25 Mn1 2.215 . S
O25 C2 1.283 . S
O26 Mn0 2.094 . S
O26 C4 1.240 . S
O27 Mn1 2.117 . S
O27 C4 1.264 . S
C28 C21 1.403 . S
C28 C29 1.399 . S
C28 H34 0.929 . S
C29 C9 1.449 . S
C29 C28 1.399 . S
C29 H35 0.930 . S
H30 C10 0.931 . S
H31 C11 0.930 . S
H32 C19 0.931 . S
H33 C20 0.929 . S
H34 C28 0.929 . S
H35 C29 0.930 . S
Mn36 O41 2.095 . S
Mn36 O51 2.162 . S
Mn36 O52 2.297 . S
Mn36 O60 2.385 . S
Mn36 O61 2.209 . S
Mn36 O62 2.094 . S
Mn37 O42 2.121 . S
Mn37 N44 2.257 . S
Mn37 N53 2.282 . S
Mn37 O61 2.215 . S
Mn37 O63 2.117 . S
C38 O60 1.234 . S
C38 O61 1.283 . S
C39 O51 1.281 . S
C39 O52 1.236 . S
C40 O62 1.240 . S
C40 O63 1.264 . S
O41 Mn36 2.095 . S
O41 C50 1.250 . S
O42 Mn37 2.121 . S
O42 C50 1.258 . S
C43 N44 1.326 . S
C43 C47 1.460 . S
C43 H49 0.929 . S
N44 Mn37 2.257 . S
N44 C43 1.326 . S
N44 C48 1.362 . S
C45 C46 1.258 . S
C45 C48 1.431 . S
C45 C65 1.449 . S
C46 C45 1.258 . S
C46 C47 1.477 . S
C46 H66 0.931 . S
C47 C43 1.460 . S
C47 C46 1.477 . S
C47 H67 0.930 . S
C48 N44 1.362 . S
C48 C45 1.431 . S
C48 C58 1.476 . S
H49 C43 0.929 . S
C50 O41 1.250 . S
C50 O42 1.258 . S
O51 Mn36 2.162 . S
O51 C39 1.281 . S
O52 Mn36 2.297 . S
O52 C39 1.236 . S
N53 Mn37 2.282 . S
N53 C54 1.328 . S
N53 C58 1.318 . S
C54 N53 1.328 . S
C54 C55 1.457 . S
C54 H59 0.929 . S
C55 C54 1.457 . S
C55 C56 1.291 . S
C55 H68 0.931 . S
C56 C55 1.291 . S
C56 C57 1.373 . S
C56 H69 0.929 . S
C57 C56 1.373 . S
C57 C58 1.396 . S
C57 C64 1.403 . S
C58 C48 1.476 . S
C58 N53 1.318 . S
C58 C57 1.396 . S
H59 C54 0.929 . S
O60 Mn36 2.385 . S
O60 C38 1.234 . S
O61 Mn36 2.209 . S
O61 Mn37 2.215 . S
O61 C38 1.283 . S
O62 Mn36 2.094 . S
O62 C40 1.240 . S
O63 Mn37 2.117 . S
O63 C40 1.264 . S
C64 C57 1.403 . S
C64 C65 1.399 . S
C64 H70 0.929 . S
C65 C45 1.449 . S
C65 C64 1.399 . S
C65 H71 0.930 . S
H66 C46 0.931 . S
H67 C47 0.930 . S
H68 C55 0.931 . S
H69 C56 0.929 . S
H70 C64 0.929 . S
H71 C65 0.930 . S
Mn72 O77 2.095 . S
Mn72 O87 2.162 . S
Mn72 O88 2.297 . S
Mn72 O96 2.385 . S
Mn72 O97 2.209 1_556 S
Mn72 O98 2.094 . S
Mn73 O78 2.133 . S
Mn73 N80 2.257 . S
Mn73 N89 2.282 . S
Mn73 O97 2.215 . S
Mn73 O99 2.117 . S
C74 O96 1.234 1_554 S
C74 O97 1.283 . S
C75 O87 1.281 . S
C75 O88 1.236 . S
C76 O98 1.240 . S
C76 O99 1.264 1_556 S
O77 Mn72 2.095 . S
O77 C86 1.250 . S
O78 Mn73 2.133 . S
O78 C86 1.238 1_554 S
C79 N80 1.326 . S
C79 C83 1.460 . S
C79 H85 0.929 . S
N80 Mn73 2.257 . S
N80 C79 1.326 . S
N80 C84 1.362 . S
C81 C82 1.258 . S
C81 C84 1.431 . S
C81 C101 1.449 . S
C82 C81 1.258 . S
C82 C83 1.477 . S
C82 H102 0.931 . S
C83 C79 1.460 . S
C83 C82 1.477 . S
C83 H103 0.930 . S
C84 N80 1.362 . S
C84 C81 1.431 . S
C84 C94 1.476 . S
H85 C79 0.929 . S
C86 O77 1.250 . S
C86 O78 1.238 1_556 S
O87 Mn72 2.162 . S
O87 C75 1.281 . S
O88 Mn72 2.297 . S
O88 C75 1.236 . S
N89 Mn73 2.282 . S
N89 C90 1.328 . S
N89 C94 1.318 . S
C90 N89 1.328 . S
C90 C91 1.457 . S
C90 H95 0.929 . S
C91 C90 1.457 . S
C91 C92 1.291 . S
C91 H104 0.931 . S
C92 C91 1.291 . S
C92 C93 1.373 . S
C92 H105 0.929 . S
C93 C92 1.373 . S
C93 C94 1.396 . S
C93 C100 1.403 . S
C94 C84 1.476 . S
C94 N89 1.318 . S
C94 C93 1.396 . S
H95 C90 0.929 . S
O96 Mn72 2.385 . S
O96 C74 1.234 1_556 S
O97 Mn72 2.209 1_554 S
O97 Mn73 2.215 . S
O97 C74 1.283 . S
O98 Mn72 2.094 . S
O98 C76 1.240 . S
O99 Mn73 2.117 . S
O99 C76 1.264 1_554 S
C100 C93 1.403 . S
C100 C101 1.399 . S
C100 H106 0.929 . S
C101 C81 1.449 . S
C101 C100 1.399 . S
C101 H107 0.930 . S
H102 C82 0.931 . S
H103 C83 0.930 . S
H104 C91 0.931 . S
H105 C92 0.929 . S
H106 C100 0.929 . S
H107 C101 0.930 . S
Mn108 O113 2.095 . S
Mn108 O123 2.162 . S
Mn108 O124 2.297 . S
Mn108 O132 2.385 . S
Mn108 O133 2.209 . S
Mn108 O134 2.094 . S
Mn109 O114 2.121 . S
Mn109 N116 2.257 . S
Mn109 N125 2.282 . S
Mn109 O133 2.215 . S
Mn109 O135 2.117 . S
C110 O132 1.234 . S
C110 O133 1.283 . S
C111 O123 1.281 . S
C111 O124 1.236 . S
C112 O134 1.240 . S
C112 O135 1.264 . S
O113 Mn108 2.095 . S
O113 C122 1.250 . S
O114 Mn109 2.121 . S
O114 C122 1.258 . S
C115 N116 1.326 . S
C115 C119 1.460 . S
C115 H121 0.929 . S
N116 Mn109 2.257 . S
N116 C115 1.326 . S
N116 C120 1.362 . S
C117 C118 1.258 . S
C117 C120 1.431 . S
C117 C137 1.449 . S
C118 C117 1.258 . S
C118 C119 1.477 . S
C118 H138 0.931 . S
C119 C115 1.460 . S
C119 C118 1.477 . S
C119 H139 0.930 . S
C120 N116 1.362 . S
C120 C117 1.431 . S
C120 C130 1.476 . S
H121 C115 0.929 . S
C122 O113 1.250 . S
C122 O114 1.258 . S
O123 Mn108 2.162 . S
O123 C111 1.281 . S
O124 Mn108 2.297 . S
O124 C111 1.236 . S
N125 Mn109 2.282 . S
N125 C126 1.328 . S
N125 C130 1.318 . S
C126 N125 1.328 . S
C126 C127 1.457 . S
C126 H131 0.929 . S
C127 C126 1.457 . S
C127 C128 1.291 . S
C127 H140 0.931 . S
C128 C127 1.291 . S
C128 C129 1.373 . S
C128 H141 0.929 . S
C129 C128 1.373 . S
C129 C130 1.396 . S
C129 C136 1.403 . S
C130 C120 1.476 . S
C130 N125 1.318 . S
C130 C129 1.396 . S
H131 C126 0.929 . S
O132 Mn108 2.385 . S
O132 C110 1.234 . S
O133 Mn108 2.209 . S
O133 Mn109 2.215 . S
O133 C110 1.283 . S
O134 Mn108 2.094 . S
O134 C112 1.240 . S
O135 Mn109 2.117 . S
O135 C112 1.264 . S
C136 C129 1.403 . S
C136 C137 1.399 . S
C136 H142 0.929 . S
C137 C117 1.449 . S
C137 C136 1.399 . S
C137 H143 0.930 . S
H138 C118 0.931 . S
H139 C119 0.930 . S
H140 C127 0.931 . S
H141 C128 0.929 . S
H142 C136 0.929 . S
H143 C137 0.930 . S
Mn144 O149 2.095 . S
Mn144 O159 2.162 . S
Mn144 O160 2.297 . S
Mn144 O168 2.385 . S
Mn144 O169 2.209 . S
Mn144 O170 2.094 . S
Mn145 O150 2.121 . S
Mn145 N152 2.257 . S
Mn145 N161 2.282 . S
Mn145 O169 2.215 . S
Mn145 O171 2.117 . S
C146 O168 1.234 . S
C146 O169 1.283 . S
C147 O159 1.281 . S
C147 O160 1.236 . S
C148 O170 1.240 . S
C148 O171 1.264 . S
O149 Mn144 2.095 . S
O149 C158 1.250 . S
O150 Mn145 2.121 . S
O150 C158 1.258 . S
C151 N152 1.326 . S
C151 C155 1.460 . S
C151 H157 0.929 . S
N152 Mn145 2.257 . S
N152 C151 1.326 . S
N152 C156 1.362 . S
C153 C154 1.258 . S
C153 C156 1.431 . S
C153 C173 1.449 . S
C154 C153 1.258 . S
C154 C155 1.477 . S
C154 H174 0.931 . S
C155 C151 1.460 . S
C155 C154 1.477 . S
C155 H175 0.930 . S
C156 N152 1.362 . S
C156 C153 1.431 . S
C156 C166 1.476 . S
H157 C151 0.929 . S
C158 O149 1.250 . S
C158 O150 1.258 . S
O159 Mn144 2.162 . S
O159 C147 1.281 . S
O160 Mn144 2.297 . S
O160 C147 1.236 . S
N161 Mn145 2.282 . S
N161 C162 1.328 . S
N161 C166 1.318 . S
C162 N161 1.328 . S
C162 C163 1.457 . S
C162 H167 0.929 . S
C163 C162 1.457 . S
C163 C164 1.291 . S
C163 H176 0.931 . S
C164 C163 1.291 . S
C164 C165 1.373 . S
C164 H177 0.929 . S
C165 C164 1.373 . S
C165 C166 1.396 . S
C165 C172 1.403 . S
C166 C156 1.476 . S
C166 N161 1.318 . S
C166 C165 1.396 . S
H167 C162 0.929 . S
O168 Mn144 2.385 . S
O168 C146 1.234 . S
O169 Mn144 2.209 . S
O169 Mn145 2.215 . S
O169 C146 1.283 . S
O170 Mn144 2.094 . S
O170 C148 1.240 . S
O171 Mn145 2.117 . S
O171 C148 1.264 . S
C172 C165 1.403 . S
C172 C173 1.399 . S
C172 H178 0.929 . S
C173 C153 1.449 . S
C173 C172 1.399 . S
C173 H179 0.930 . S
H174 C154 0.931 . S
H175 C155 0.930 . S
H176 C163 0.931 . S
H177 C164 0.929 . S
H178 C172 0.929 . S
H179 C173 0.930 . S
Mn180 O185 2.095 . S
Mn180 O195 2.162 . S
Mn180 O196 2.297 . S
Mn180 O204 2.385 . S
Mn180 O205 2.209 1_556 S
Mn180 O206 2.094 . S
Mn181 O186 2.133 . S
Mn181 N188 2.257 . S
Mn181 N197 2.282 . S
Mn181 O205 2.215 . S
Mn181 O207 2.117 . S
C182 O204 1.234 1_554 S
C182 O205 1.283 . S
C183 O195 1.281 . S
C183 O196 1.236 . S
C184 O206 1.240 . S
C184 O207 1.264 1_556 S
O185 Mn180 2.095 . S
O185 C194 1.250 . S
O186 Mn181 2.133 . S
O186 C194 1.238 1_554 S
C187 N188 1.326 . S
C187 C191 1.460 . S
C187 H193 0.929 . S
N188 Mn181 2.257 . S
N188 C187 1.326 . S
N188 C192 1.362 . S
C189 C190 1.258 . S
C189 C192 1.431 . S
C189 C209 1.449 . S
C190 C189 1.258 . S
C190 C191 1.477 . S
C190 H210 0.931 . S
C191 C187 1.460 . S
C191 C190 1.477 . S
C191 H211 0.930 . S
C192 N188 1.362 . S
C192 C189 1.431 . S
C192 C202 1.476 . S
H193 C187 0.929 . S
C194 O185 1.250 . S
C194 O186 1.238 1_556 S
O195 Mn180 2.162 . S
O195 C183 1.281 . S
O196 Mn180 2.297 . S
O196 C183 1.236 . S
N197 Mn181 2.282 . S
N197 C198 1.328 . S
N197 C202 1.318 . S
C198 N197 1.328 . S
C198 C199 1.457 . S
C198 H203 0.929 . S
C199 C198 1.457 . S
C199 C200 1.291 . S
C199 H212 0.931 . S
C200 C199 1.291 . S
C200 C201 1.373 . S
C200 H213 0.929 . S
C201 C200 1.373 . S
C201 C202 1.396 . S
C201 C208 1.403 . S
C202 C192 1.476 . S
C202 N197 1.318 . S
C202 C201 1.396 . S
H203 C198 0.929 . S
O204 Mn180 2.385 . S
O204 C182 1.234 1_556 S
O205 Mn180 2.209 1_554 S
O205 Mn181 2.215 . S
O205 C182 1.283 . S
O206 Mn180 2.094 . S
O206 C184 1.240 . S
O207 Mn181 2.117 . S
O207 C184 1.264 1_554 S
C208 C201 1.403 . S
C208 C209 1.399 . S
C208 H214 0.929 . S
C209 C189 1.449 . S
C209 C208 1.399 . S
C209 H215 0.930 . S
H210 C190 0.931 . S
H211 C191 0.930 . S
H212 C199 0.931 . S
H213 C200 0.929 . S
H214 C208 0.929 . S
H215 C209 0.930 . S
Mn216 O221 2.095 . S
Mn216 O231 2.162 . S
Mn216 O232 2.297 . S
Mn216 O240 2.385 . S
Mn216 O241 2.209 . S
Mn216 O242 2.094 . S
Mn217 O222 2.121 . S
Mn217 N224 2.257 . S
Mn217 N233 2.282 . S
Mn217 O241 2.215 . S
Mn217 O243 2.117 . S
C218 O240 1.234 . S
C218 O241 1.283 . S
C219 O231 1.281 . S
C219 O232 1.236 . S
C220 O242 1.240 . S
C220 O243 1.264 . S
O221 Mn216 2.095 . S
O221 C230 1.250 . S
O222 Mn217 2.121 . S
O222 C230 1.258 . S
C223 N224 1.326 . S
C223 C227 1.460 . S
C223 H229 0.929 . S
N224 Mn217 2.257 . S
N224 C223 1.326 . S
N224 C228 1.362 . S
C225 C226 1.258 . S
C225 C228 1.431 . S
C225 C245 1.449 . S
C226 C225 1.258 . S
C226 C227 1.477 . S
C226 H246 0.931 . S
C227 C223 1.460 . S
C227 C226 1.477 . S
C227 H247 0.930 . S
C228 N224 1.362 . S
C228 C225 1.431 . S
C228 C238 1.476 . S
H229 C223 0.929 . S
C230 O221 1.250 . S
C230 O222 1.258 . S
O231 Mn216 2.162 . S
O231 C219 1.281 . S
O232 Mn216 2.297 . S
O232 C219 1.236 . S
N233 Mn217 2.282 . S
N233 C234 1.328 . S
N233 C238 1.318 . S
C234 N233 1.328 . S
C234 C235 1.457 . S
C234 H239 0.929 . S
C235 C234 1.457 . S
C235 C236 1.291 . S
C235 H248 0.931 . S
C236 C235 1.291 . S
C236 C237 1.373 . S
C236 H249 0.929 . S
C237 C236 1.373 . S
C237 C238 1.396 . S
C237 C244 1.403 . S
C238 C228 1.476 . S
C238 N233 1.318 . S
C238 C237 1.396 . S
H239 C234 0.929 . S
O240 Mn216 2.385 . S
O240 C218 1.234 . S
O241 Mn216 2.209 . S
O241 Mn217 2.215 . S
O241 C218 1.283 . S
O242 Mn216 2.094 . S
O242 C220 1.240 . S
O243 Mn217 2.117 . S
O243 C220 1.264 . S
C244 C237 1.403 . S
C244 C245 1.399 . S
C244 H250 0.929 . S
C245 C225 1.449 . S
C245 C244 1.399 . S
C245 H251 0.930 . S
H246 C226 0.931 . S
H247 C227 0.930 . S
H248 C235 0.931 . S
H249 C236 0.929 . S
H250 C244 0.929 . S
H251 C245 0.930 . S
Mn252 O257 2.095 . S
Mn252 O267 2.162 . S
Mn252 O268 2.297 . S
Mn252 O276 2.385 . S
Mn252 O277 2.209 . S
Mn252 O278 2.094 . S
Mn253 O258 2.121 . S
Mn253 N260 2.257 . S
Mn253 N269 2.282 . S
Mn253 O277 2.215 . S
Mn253 O279 2.117 . S
C254 O276 1.234 . S
C254 O277 1.283 . S
C255 O267 1.281 . S
C255 O268 1.236 . S
C256 O278 1.240 . S
C256 O279 1.264 . S
O257 Mn252 2.095 . S
O257 C266 1.250 . S
O258 Mn253 2.121 . S
O258 C266 1.258 . S
C259 N260 1.326 . S
C259 C263 1.460 . S
C259 H265 0.929 . S
N260 Mn253 2.257 . S
N260 C259 1.326 . S
N260 C264 1.362 . S
C261 C262 1.258 . S
C261 C264 1.431 . S
C261 C281 1.449 . S
C262 C261 1.258 . S
C262 C263 1.477 . S
C262 H282 0.931 . S
C263 C259 1.460 . S
C263 C262 1.477 . S
C263 H283 0.930 . S
C264 N260 1.362 . S
C264 C261 1.431 . S
C264 C274 1.476 . S
H265 C259 0.929 . S
C266 O257 1.250 . S
C266 O258 1.258 . S
O267 Mn252 2.162 . S
O267 C255 1.281 . S
O268 Mn252 2.297 . S
O268 C255 1.236 . S
N269 Mn253 2.282 . S
N269 C270 1.328 . S
N269 C274 1.318 . S
C270 N269 1.328 . S
C270 C271 1.457 . S
C270 H275 0.929 . S
C271 C270 1.457 . S
C271 C272 1.291 . S
C271 H284 0.931 . S
C272 C271 1.291 . S
C272 C273 1.373 . S
C272 H285 0.929 . S
C273 C272 1.373 . S
C273 C274 1.396 . S
C273 C280 1.403 . S
C274 C264 1.476 . S
C274 N269 1.318 . S
C274 C273 1.396 . S
H275 C270 0.929 . S
O276 Mn252 2.385 . S
O276 C254 1.234 . S
O277 Mn252 2.209 . S
O277 Mn253 2.215 . S
O277 C254 1.283 . S
O278 Mn252 2.094 . S
O278 C256 1.240 . S
O279 Mn253 2.117 . S
O279 C256 1.264 . S
C280 C273 1.403 . S
C280 C281 1.399 . S
C280 H286 0.929 . S
C281 C261 1.449 . S
C281 C280 1.399 . S
C281 H287 0.930 . S
H282 C262 0.931 . S
H283 C263 0.930 . S
H284 C271 0.931 . S
H285 C272 0.929 . S
H286 C280 0.929 . S
H287 C281 0.930 . S
Mn288 O293 2.095 . S
Mn288 O303 2.162 . S
Mn288 O304 2.297 . S
Mn288 O312 2.385 . S
Mn288 O313 2.209 1_554 S
Mn288 O314 2.094 . S
Mn289 O294 2.134 . S
Mn289 N296 2.257 . S
Mn289 N305 2.282 . S
Mn289 O313 2.215 . S
Mn289 O315 2.117 . S
C290 O312 1.234 1_556 S
C290 O313 1.283 . S
C291 O303 1.281 . S
C291 O304 1.236 . S
C292 O314 1.240 . S
C292 O315 1.264 1_554 S
O293 Mn288 2.095 . S
O293 C302 1.250 . S
O294 Mn289 2.134 . S
O294 C302 1.237 1_556 S
C295 N296 1.326 . S
C295 C299 1.460 . S
C295 H301 0.929 . S
N296 Mn289 2.257 . S
N296 C295 1.326 . S
N296 C300 1.362 . S
C297 C298 1.258 . S
C297 C300 1.431 . S
C297 C317 1.449 . S
C298 C297 1.258 . S
C298 C299 1.477 . S
C298 H318 0.931 . S
C299 C295 1.460 . S
C299 C298 1.477 . S
C299 H319 0.930 . S
C300 N296 1.362 . S
C300 C297 1.431 . S
C300 C310 1.476 . S
H301 C295 0.929 . S
C302 O293 1.250 . S
C302 O294 1.237 1_554 S
O303 Mn288 2.162 . S
O303 C291 1.281 . S
O304 Mn288 2.297 . S
O304 C291 1.236 . S
N305 Mn289 2.282 . S
N305 C306 1.328 . S
N305 C310 1.318 . S
C306 N305 1.328 . S
C306 C307 1.457 . S
C306 H311 0.929 . S
C307 C306 1.457 . S
C307 C308 1.291 . S
C307 H320 0.931 . S
C308 C307 1.291 . S
C308 C309 1.373 . S
C308 H321 0.929 . S
C309 C308 1.373 . S
C309 C310 1.396 . S
C309 C316 1.403 . S
C310 C300 1.476 . S
C310 N305 1.318 . S
C310 C309 1.396 . S
H311 C306 0.929 . S
O312 Mn288 2.385 . S
O312 C290 1.234 1_554 S
O313 Mn288 2.209 1_556 S
O313 Mn289 2.215 . S
O313 C290 1.283 . S
O314 Mn288 2.094 . S
O314 C292 1.240 . S
O315 Mn289 2.117 . S
O315 C292 1.264 1_556 S
C316 C309 1.403 . S
C316 C317 1.399 . S
C316 H322 0.929 . S
C317 C297 1.449 . S
C317 C316 1.399 . S
C317 H323 0.930 . S
H318 C298 0.931 . S
H319 C299 0.930 . S
H320 C307 0.931 . S
H321 C308 0.929 . S
H322 C316 0.929 . S
H323 C317 0.930 . S
Mn324 O329 2.095 . S
Mn324 O339 2.162 . S
Mn324 O340 2.297 . S
Mn324 O348 2.385 . S
Mn324 O349 2.209 . S
Mn324 O350 2.094 . S
Mn325 O330 2.121 . S
Mn325 N332 2.257 . S
Mn325 N341 2.282 . S
Mn325 O349 2.215 . S
Mn325 O351 2.117 . S
C326 O348 1.234 . S
C326 O349 1.283 . S
C327 O339 1.281 . S
C327 O340 1.236 . S
C328 O350 1.240 . S
C328 O351 1.264 . S
O329 Mn324 2.095 . S
O329 C338 1.250 . S
O330 Mn325 2.121 . S
O330 C338 1.258 . S
C331 N332 1.326 . S
C331 C335 1.460 . S
C331 H337 0.929 . S
N332 Mn325 2.257 . S
N332 C331 1.326 . S
N332 C336 1.362 . S
C333 C334 1.258 . S
C333 C336 1.431 . S
C333 C353 1.449 . S
C334 C333 1.258 . S
C334 C335 1.477 . S
C334 H354 0.931 . S
C335 C331 1.460 . S
C335 C334 1.477 . S
C335 H355 0.930 . S
C336 N332 1.362 . S
C336 C333 1.431 . S
C336 C346 1.476 . S
H337 C331 0.929 . S
C338 O329 1.250 . S
C338 O330 1.258 . S
O339 Mn324 2.162 . S
O339 C327 1.281 . S
O340 Mn324 2.297 . S
O340 C327 1.236 . S
N341 Mn325 2.282 . S
N341 C342 1.328 . S
N341 C346 1.318 . S
C342 N341 1.328 . S
C342 C343 1.457 . S
C342 H347 0.929 . S
C343 C342 1.457 . S
C343 C344 1.291 . S
C343 H356 0.931 . S
C344 C343 1.291 . S
C344 C345 1.373 . S
C344 H357 0.929 . S
C345 C344 1.373 . S
C345 C346 1.396 . S
C345 C352 1.403 . S
C346 C336 1.476 . S
C346 N341 1.318 . S
C346 C345 1.396 . S
H347 C342 0.929 . S
O348 Mn324 2.385 . S
O348 C326 1.234 . S
O349 Mn324 2.209 . S
O349 Mn325 2.215 . S
O349 C326 1.283 . S
O350 Mn324 2.094 . S
O350 C328 1.240 . S
O351 Mn325 2.117 . S
O351 C328 1.264 . S
C352 C345 1.403 . S
C352 C353 1.399 . S
C352 H358 0.929 . S
C353 C333 1.449 . S
C353 C352 1.399 . S
C353 H359 0.930 . S
H354 C334 0.931 . S
H355 C335 0.930 . S
H356 C343 0.931 . S
H357 C344 0.929 . S
H358 C352 0.929 . S
H359 C353 0.930 . S
Mn360 O365 2.095 . S
Mn360 O375 2.162 . S
Mn360 O376 2.297 . S
Mn360 O384 2.385 . S
Mn360 O385 2.209 . S
Mn360 O386 2.094 . S
Mn361 O366 2.121 . S
Mn361 N368 2.257 . S
Mn361 N377 2.282 . S
Mn361 O385 2.215 . S
Mn361 O387 2.117 . S
C362 O384 1.234 . S
C362 O385 1.283 . S
C363 O375 1.281 . S
C363 O376 1.236 . S
C364 O386 1.240 . S
C364 O387 1.264 . S
O365 Mn360 2.095 . S
O365 C374 1.250 . S
O366 Mn361 2.121 . S
O366 C374 1.258 . S
C367 N368 1.326 . S
C367 C371 1.460 . S
C367 H373 0.929 . S
N368 Mn361 2.257 . S
N368 C367 1.326 . S
N368 C372 1.362 . S
C369 C370 1.258 . S
C369 C372 1.431 . S
C369 C389 1.449 . S
C370 C369 1.258 . S
C370 C371 1.477 . S
C370 H390 0.931 . S
C371 C367 1.460 . S
C371 C370 1.477 . S
C371 H391 0.930 . S
C372 N368 1.362 . S
C372 C369 1.431 . S
C372 C382 1.476 . S
H373 C367 0.929 . S
C374 O365 1.250 . S
C374 O366 1.258 . S
O375 Mn360 2.162 . S
O375 C363 1.281 . S
O376 Mn360 2.297 . S
O376 C363 1.236 . S
N377 Mn361 2.282 . S
N377 C378 1.328 . S
N377 C382 1.318 . S
C378 N377 1.328 . S
C378 C379 1.457 . S
C378 H383 0.929 . S
C379 C378 1.457 . S
C379 C380 1.291 . S
C379 H392 0.931 . S
C380 C379 1.291 . S
C380 C381 1.373 . S
C380 H393 0.929 . S
C381 C380 1.373 . S
C381 C382 1.396 . S
C381 C388 1.403 . S
C382 C372 1.476 . S
C382 N377 1.318 . S
C382 C381 1.396 . S
H383 C378 0.929 . S
O384 Mn360 2.385 . S
O384 C362 1.234 . S
O385 Mn360 2.209 . S
O385 Mn361 2.215 . S
O385 C362 1.283 . S
O386 Mn360 2.094 . S
O386 C364 1.240 . S
O387 Mn361 2.117 . S
O387 C364 1.264 . S
C388 C381 1.403 . S
C388 C389 1.399 . S
C388 H394 0.929 . S
C389 C369 1.449 . S
C389 C388 1.399 . S
C389 H395 0.930 . S
H390 C370 0.931 . S
H391 C371 0.930 . S
H392 C379 0.931 . S
H393 C380 0.929 . S
H394 C388 0.929 . S
H395 C389 0.930 . S
Mn396 O401 2.095 . S
Mn396 O411 2.162 . S
Mn396 O412 2.297 . S
Mn396 O420 2.385 . S
Mn396 O421 2.209 1_554 S
Mn396 O422 2.094 . S
Mn397 O402 2.134 . S
Mn397 N404 2.257 . S
Mn397 N413 2.282 . S
Mn397 O421 2.215 . S
Mn397 O423 2.117 . S
C398 O420 1.234 1_556 S
C398 O421 1.283 . S
C399 O411 1.281 . S
C399 O412 1.236 . S
C400 O422 1.240 . S
C400 O423 1.264 1_554 S
O401 Mn396 2.095 . S
O401 C410 1.250 . S
O402 Mn397 2.134 . S
O402 C410 1.237 1_556 S
C403 N404 1.326 . S
C403 C407 1.460 . S
C403 H409 0.929 . S
N404 Mn397 2.257 . S
N404 C403 1.326 . S
N404 C408 1.362 . S
C405 C406 1.258 . S
C405 C408 1.431 . S
C405 C425 1.449 . S
C406 C405 1.258 . S
C406 C407 1.477 . S
C406 H426 0.931 . S
C407 C403 1.460 . S
C407 C406 1.477 . S
C407 H427 0.930 . S
C408 N404 1.362 . S
C408 C405 1.431 . S
C408 C418 1.476 . S
H409 C403 0.929 . S
C410 O401 1.250 . S
C410 O402 1.237 1_554 S
O411 Mn396 2.162 . S
O411 C399 1.281 . S
O412 Mn396 2.297 . S
O412 C399 1.236 . S
N413 Mn397 2.282 . S
N413 C414 1.328 . S
N413 C418 1.318 . S
C414 N413 1.328 . S
C414 C415 1.457 . S
C414 H419 0.929 . S
C415 C414 1.457 . S
C415 C416 1.291 . S
C415 H428 0.931 . S
C416 C415 1.291 . S
C416 C417 1.373 . S
C416 H429 0.929 . S
C417 C416 1.373 . S
C417 C418 1.396 . S
C417 C424 1.403 . S
C418 C408 1.476 . S
C418 N413 1.318 . S
C418 C417 1.396 . S
H419 C414 0.929 . S
O420 Mn396 2.385 . S
O420 C398 1.234 1_554 S
O421 Mn396 2.209 1_556 S
O421 Mn397 2.215 . S
O421 C398 1.283 . S
O422 Mn396 2.094 . S
O422 C400 1.240 . S
O423 Mn397 2.117 . S
O423 C400 1.264 1_556 S
C424 C417 1.403 . S
C424 C425 1.399 . S
C424 H430 0.929 . S
C425 C405 1.449 . S
C425 C424 1.399 . S
C425 H431 0.930 . S
H426 C406 0.931 . S
H427 C407 0.930 . S
H428 C415 0.931 . S
H429 C416 0.929 . S
H430 C424 0.929 . S
H431 C425 0.930 . S
C432 C433 1.349 . S
C432 C434 1.327 . S
C432 H457 0.950 . S
C433 C432 1.349 . S
C433 C449 1.349 . S
C434 C432 1.327 . S
C434 C453 1.429 . S
C434 H458 0.950 . S
C435 C452 1.574 . S
C435 C454 1.368 . S
C435 H459 0.949 . S
H436 C440 0.949 . S
C437 C438 1.349 . S
C437 C439 1.327 . S
C437 H460 0.950 . S
C438 C437 1.349 . S
C438 C450 1.349 . S
C439 C437 1.327 . S
C439 C455 1.429 . S
C439 H461 0.950 . S
C440 H436 0.949 . S
C440 C448 1.574 . S
C440 C456 1.368 . S
H441 C449 0.950 . S
H442 C447 0.950 . S
H443 C448 0.949 . S
H444 C450 0.950 . S
H445 C451 0.950 . S
H446 C452 0.949 . S
C447 H442 0.950 . S
C447 C449 1.327 . S
C447 C453 1.429 . S
C448 C440 1.574 . S
C448 H443 0.949 . S
C448 C454 1.368 . S
C449 C433 1.349 . S
C449 H441 0.950 . S
C449 C447 1.327 . S
C450 C438 1.349 . S
C450 H444 0.950 . S
C450 C451 1.327 . S
C451 H445 0.950 . S
C451 C450 1.327 . S
C451 C455 1.429 . S
C452 C435 1.574 . S
C452 H446 0.949 . S
C452 C456 1.368 . S
C453 C434 1.429 . S
C453 C447 1.429 . S
C453 C454 1.523 . S
C454 C435 1.368 . S
C454 C448 1.368 . S
C454 C453 1.523 . S
C455 C439 1.429 . S
C455 C451 1.429 . S
C455 C456 1.523 . S
C456 C440 1.368 . S
C456 C452 1.368 . S
C456 C455 1.523 . S
H457 C432 0.950 . S
H458 C434 0.950 . S
H459 C435 0.949 . S
H460 C437 0.950 . S
H461 C439 0.950 . S
C462 C463 1.349 . S
C462 C464 1.327 . S
C462 H487 0.950 . S
C463 C462 1.349 . S
C463 C479 1.349 . S
C464 C462 1.327 . S
C464 C483 1.429 . S
C464 H488 0.950 . S
C465 C482 1.574 1_655 S
C465 C484 1.368 . S
C465 H489 0.949 . S
H466 C470 0.949 . S
C467 C468 1.349 . S
C467 C469 1.327 . S
C467 H490 0.950 . S
C468 C467 1.349 . S
C468 C480 1.349 . S
C469 C467 1.327 . S
C469 C485 1.429 . S
C469 H491 0.950 . S
C470 H466 0.949 . S
C470 C478 1.574 1_455 S
C470 C486 1.368 . S
H471 C479 0.950 . S
H472 C477 0.950 . S
H473 C478 0.949 . S
H474 C480 0.950 . S
H475 C481 0.950 . S
H476 C482 0.949 . S
C477 H472 0.950 . S
C477 C479 1.327 . S
C477 C483 1.429 . S
C478 C470 1.574 1_655 S
C478 H473 0.949 . S
C478 C484 1.368 . S
C479 C463 1.349 . S
C479 H471 0.950 . S
C479 C477 1.327 . S
C480 C468 1.349 . S
C480 H474 0.950 . S
C480 C481 1.327 . S
C481 H475 0.950 . S
C481 C480 1.327 . S
C481 C485 1.429 . S
C482 C465 1.574 1_455 S
C482 H476 0.949 . S
C482 C486 1.368 . S
C483 C464 1.429 . S
C483 C477 1.429 . S
C483 C484 1.523 . S
C484 C465 1.368 . S
C484 C478 1.368 . S
C484 C483 1.523 . S
C485 C469 1.429 . S
C485 C481 1.429 . S
C485 C486 1.523 . S
C486 C470 1.368 . S
C486 C482 1.368 . S
C486 C485 1.523 . S
H487 C462 0.950 . S
H488 C464 0.950 . S
H489 C465 0.949 . S
H490 C467 0.950 . S
H491 C469 0.950 . S
C492 C493 1.349 . S
C492 C494 1.327 . S
C492 H517 0.950 . S
C493 C492 1.349 . S
C493 C509 1.349 . S
C494 C492 1.327 . S
C494 C513 1.429 . S
C494 H518 0.950 . S
C495 C512 1.574 1_565 S
C495 C514 1.368 1_554 S
C495 H519 0.949 . S
H496 C500 0.949 . S
C497 C498 1.349 . S
C497 C499 1.327 . S
C497 H520 0.950 . S
C498 C497 1.349 . S
C498 C510 1.349 . S
C499 C497 1.327 . S
C499 C515 1.429 . S
C499 H521 0.950 . S
C500 H496 0.949 . S
C500 C508 1.574 1_545 S
C500 C516 1.368 1_556 S
H501 C509 0.950 . S
H502 C507 0.950 1_554 S
H503 C508 0.949 . S
H504 C510 0.950 . S
H505 C511 0.950 1_556 S
H506 C512 0.949 . S
C507 H502 0.950 1_556 S
C507 C509 1.327 . S
C507 C513 1.429 . S
C508 C500 1.574 1_565 S
C508 H503 0.949 . S
C508 C514 1.368 . S
C509 C493 1.349 . S
C509 H501 0.950 . S
C509 C507 1.327 . S
C510 C498 1.349 . S
C510 H504 0.950 . S
C510 C511 1.327 . S
C511 H505 0.950 1_554 S
C511 C510 1.327 . S
C511 C515 1.429 . S
C512 C495 1.574 1_545 S
C512 H506 0.949 . S
C512 C516 1.368 . S
C513 C494 1.429 . S
C513 C507 1.429 . S
C513 C514 1.523 . S
C514 C495 1.368 1_556 S
C514 C508 1.368 . S
C514 C513 1.523 . S
C515 C499 1.429 . S
C515 C511 1.429 . S
C515 C516 1.523 . S
C516 C500 1.368 1_554 S
C516 C512 1.368 . S
C516 C515 1.523 . S
H517 C492 0.950 . S
H518 C494 0.950 . S
H519 C495 0.949 . S
H520 C497 0.950 . S
H521 C499 0.950 . S
C522 C523 1.349 . S
C522 C524 1.327 . S
C522 H547 0.950 . S
C523 C522 1.349 . S
C523 C539 1.349 . S
C524 C522 1.327 . S
C524 C543 1.429 . S
C524 H548 0.950 . S
C525 C542 1.574 . S
C525 C544 1.368 . S
C525 H549 0.949 . S
H526 C530 0.949 . S
C527 C528 1.349 . S
C527 C529 1.327 . S
C527 H550 0.950 . S
C528 C527 1.349 . S
C528 C540 1.349 . S
C529 C527 1.327 . S
C529 C545 1.429 . S
C529 H551 0.950 . S
C530 H526 0.949 . S
C530 C538 1.574 . S
C530 C546 1.368 . S
H531 C539 0.950 . S
H532 C537 0.950 . S
H533 C538 0.949 . S
H534 C540 0.950 . S
H535 C541 0.950 . S
H536 C542 0.949 . S
C537 H532 0.950 . S
C537 C539 1.327 . S
C537 C543 1.429 . S
C538 C530 1.574 . S
C538 H533 0.949 . S
C538 C544 1.368 . S
C539 C523 1.349 . S
C539 H531 0.950 . S
C539 C537 1.327 . S
C540 C528 1.349 . S
C540 H534 0.950 . S
C540 C541 1.327 . S
C541 H535 0.950 . S
C541 C540 1.327 . S
C541 C545 1.429 . S
C542 C525 1.574 . S
C542 H536 0.949 . S
C542 C546 1.368 . S
C543 C524 1.429 . S
C543 C537 1.429 . S
C543 C544 1.523 . S
C544 C525 1.368 . S
C544 C538 1.368 . S
C544 C543 1.523 . S
C545 C529 1.429 . S
C545 C541 1.429 . S
C545 C546 1.523 . S
C546 C530 1.368 . S
C546 C542 1.368 . S
C546 C545 1.523 . S
H547 C522 0.950 . S
H548 C524 0.950 . S
H549 C525 0.949 . S
H550 C527 0.950 . S
H551 C529 0.950 . S
C552 C553 1.349 . S
C552 C554 1.327 . S
C552 H577 0.950 . S
C553 C552 1.349 . S
C553 C569 1.349 . S
C554 C552 1.327 . S
C554 C573 1.429 . S
C554 H578 0.950 . S
C555 C572 1.574 1_655 S
C555 C574 1.368 . S
C555 H579 0.949 . S
H556 C560 0.949 . S
C557 C558 1.349 . S
C557 C559 1.327 . S
C557 H580 0.950 . S
C558 C557 1.349 . S
C558 C570 1.349 . S
C559 C557 1.327 . S
C559 C575 1.429 . S
C559 H581 0.950 . S
C560 H556 0.949 . S
C560 C568 1.574 1_455 S
C560 C576 1.368 . S
H561 C569 0.950 . S
H562 C567 0.950 . S
H563 C568 0.949 . S
H564 C570 0.950 . S
H565 C571 0.950 . S
H566 C572 0.949 . S
C567 H562 0.950 . S
C567 C569 1.327 . S
C567 C573 1.429 . S
C568 C560 1.574 1_655 S
C568 H563 0.949 . S
C568 C574 1.368 . S
C569 C553 1.349 . S
C569 H561 0.950 . S
C569 C567 1.327 . S
C570 C558 1.349 . S
C570 H564 0.950 . S
C570 C571 1.327 . S
C571 H565 0.950 . S
C571 C570 1.327 . S
C571 C575 1.429 . S
C572 C555 1.574 1_455 S
C572 H566 0.949 . S
C572 C576 1.368 . S
C573 C554 1.429 . S
C573 C567 1.429 . S
C573 C574 1.523 . S
C574 C555 1.368 . S
C574 C568 1.368 . S
C574 C573 1.523 . S
C575 C559 1.429 . S
C575 C571 1.429 . S
C575 C576 1.523 . S
C576 C560 1.368 . S
C576 C572 1.368 . S
C576 C575 1.523 . S
H577 C552 0.950 . S
H578 C554 0.950 . S
H579 C555 0.949 . S
H580 C557 0.950 . S
H581 C559 0.950 . S
C582 C583 1.349 . S
C582 C584 1.327 . S
C582 H607 0.950 . S
C583 C582 1.349 . S
C583 C599 1.349 . S
C584 C582 1.327 . S
C584 C603 1.429 . S
C584 H608 0.950 . S
C585 C602 1.574 1_565 S
C585 C604 1.368 1_556 S
C585 H609 0.949 . S
H586 C590 0.949 . S
C587 C588 1.349 . S
C587 C589 1.327 . S
C587 H610 0.950 . S
C588 C587 1.349 . S
C588 C600 1.349 . S
C589 C587 1.327 . S
C589 C605 1.429 . S
C589 H611 0.950 . S
C590 H586 0.949 . S
C590 C598 1.574 1_545 S
C590 C606 1.368 1_554 S
H591 C599 0.950 1_556 S
H592 C597 0.950 . S
H593 C598 0.949 . S
H594 C600 0.950 1_554 S
H595 C601 0.950 . S
H596 C602 0.949 . S
C597 H592 0.950 . S
C597 C599 1.327 1_556 S
C597 C603 1.429 1_556 S
C598 C590 1.574 1_565 S
C598 H593 0.949 . S
C598 C604 1.368 . S
C599 C583 1.349 . S
C599 H591 0.950 1_554 S
C599 C597 1.327 1_554 S
C600 C588 1.349 . S
C600 H594 0.950 1_556 S
C600 C601 1.327 1_556 S
C601 H595 0.950 . S
C601 C600 1.327 1_554 S
C601 C605 1.429 1_554 S
C602 C585 1.574 1_545 S
C602 H596 0.949 . S
C602 C606 1.368 . S
C603 C584 1.429 . S
C603 C597 1.429 1_554 S
C603 C604 1.523 . S
C604 C585 1.368 1_554 S
C604 C598 1.368 . S
C604 C603 1.523 . S
C605 C589 1.429 . S
C605 C601 1.429 1_556 S
C605 C606 1.523 . S
C606 C590 1.368 1_556 S
C606 C602 1.368 . S
C606 C605 1.523 . S
H607 C582 0.950 . S
H608 C584 0.950 . S
H609 C585 0.949 . S
H610 C587 0.950 . S
H611 C589 0.950 . S
C612 C613 1.349 . S
C612 C614 1.327 . S
C612 H637 0.950 . S
C613 C612 1.349 . S
C613 C629 1.349 . S
C614 C612 1.327 . S
C614 C633 1.429 . S
C614 H638 0.950 . S
C615 C632 1.574 1_556 S
C615 C634 1.368 . S
C615 H639 0.949 . S
H616 C620 0.949 . S
C617 C618 1.349 . S
C617 C619 1.327 . S
C617 H640 0.950 . S
C618 C617 1.349 . S
C618 C630 1.349 . S
C619 C617 1.327 . S
C619 C635 1.429 . S
C619 H641 0.950 . S
C620 H616 0.949 . S
C620 C628 1.574 1_554 S
C620 C636 1.368 . S
H621 C629 0.950 . S
H622 C627 0.950 . S
H623 C628 0.949 . S
H624 C630 0.950 . S
H625 C631 0.950 . S
H626 C632 0.949 . S
C627 H622 0.950 . S
C627 C629 1.327 . S
C627 C633 1.429 . S
C628 C620 1.574 1_556 S
C628 H623 0.949 . S
C628 C634 1.368 . S
C629 C613 1.349 . S
C629 H621 0.950 . S
C629 C627 1.327 . S
C630 C618 1.349 . S
C630 H624 0.950 . S
C630 C631 1.327 . S
C631 H625 0.950 . S
C631 C630 1.327 . S
C631 C635 1.429 . S
C632 C615 1.574 1_554 S
C632 H626 0.949 . S
C632 C636 1.368 . S
C633 C614 1.429 . S
C633 C627 1.429 . S
C633 C634 1.523 . S
C634 C615 1.368 . S
C634 C628 1.368 . S
C634 C633 1.523 . S
C635 C619 1.429 . S
C635 C631 1.429 . S
C635 C636 1.523 . S
C636 C620 1.368 . S
C636 C632 1.368 . S
C636 C635 1.523 . S
H637 C612 0.950 . S
H638 C614 0.950 . S
H639 C615 0.949 . S
H640 C617 0.950 . S
H641 C619 0.950 . S
C642 C643 1.349 . S
C642 C644 1.327 . S
C642 H667 0.950 . S
C643 C642 1.349 . S
C643 C659 1.349 . S
C644 C642 1.327 . S
C644 C663 1.429 . S
C644 H668 0.950 . S
C645 C662 1.574 . S
C645 C664 1.368 . S
C645 H669 0.949 . S
H646 C650 0.949 . S
C647 C648 1.349 . S
C647 C649 1.327 . S
C647 H670 0.950 . S
C648 C647 1.349 . S
C648 C660 1.349 . S
C649 C647 1.327 . S
C649 C665 1.429 . S
C649 H671 0.950 . S
C650 H646 0.949 . S
C650 C658 1.574 . S
C650 C666 1.368 . S
H651 C659 0.950 . S
H652 C657 0.950 . S
H653 C658 0.949 . S
H654 C660 0.950 . S
H655 C661 0.950 . S
H656 C662 0.949 . S
C657 H652 0.950 . S
C657 C659 1.327 . S
C657 C663 1.429 . S
C658 C650 1.574 . S
C658 H653 0.949 . S
C658 C664 1.368 . S
C659 C643 1.349 . S
C659 H651 0.950 . S
C659 C657 1.327 . S
C660 C648 1.349 . S
C660 H654 0.950 . S
C660 C661 1.327 . S
C661 H655 0.950 . S
C661 C660 1.327 . S
C661 C665 1.429 . S
C662 C645 1.574 . S
C662 H656 0.949 . S
C662 C666 1.368 . S
C663 C644 1.429 . S
C663 C657 1.429 . S
C663 C664 1.523 . S
C664 C645 1.368 . S
C664 C658 1.368 . S
C664 C663 1.523 . S
C665 C649 1.429 . S
C665 C661 1.429 . S
C665 C666 1.523 . S
C666 C650 1.368 . S
C666 C662 1.368 . S
C666 C665 1.523 . S
H667 C642 0.950 . S
H668 C644 0.950 . S
H669 C645 0.949 . S
H670 C647 0.950 . S
H671 C649 0.950 . S
C672 C673 1.349 . S
C672 C674 1.327 . S
C672 H697 0.950 . S
C673 C672 1.349 . S
C673 C689 1.349 . S
C674 C672 1.327 . S
C674 C693 1.429 . S
C674 H698 0.950 . S
C675 C692 1.574 . S
C675 C694 1.368 . S
C675 H699 0.949 . S
H676 C680 0.949 . S
C677 C678 1.349 . S
C677 C679 1.327 . S
C677 H700 0.950 . S
C678 C677 1.349 . S
C678 C690 1.349 . S
C679 C677 1.327 . S
C679 C695 1.429 . S
C679 H701 0.950 . S
C680 H676 0.949 . S
C680 C688 1.574 . S
C680 C696 1.368 . S
H681 C689 0.950 . S
H682 C687 0.950 . S
H683 C688 0.949 . S
H684 C690 0.950 . S
H685 C691 0.950 . S
H686 C692 0.949 . S
C687 H682 0.950 . S
C687 C689 1.327 . S
C687 C693 1.429 . S
C688 C680 1.574 . S
C688 H683 0.949 . S
C688 C694 1.368 . S
C689 C673 1.349 . S
C689 H681 0.950 . S
C689 C687 1.327 . S
C690 C678 1.349 . S
C690 H684 0.950 . S
C690 C691 1.327 . S
C691 H685 0.950 . S
C691 C690 1.327 . S
C691 C695 1.429 . S
C692 C675 1.574 . S
C692 H686 0.949 . S
C692 C696 1.368 . S
C693 C674 1.429 . S
C693 C687 1.429 . S
C693 C694 1.523 . S
C694 C675 1.368 . S
C694 C688 1.368 . S
C694 C693 1.523 . S
C695 C679 1.429 . S
C695 C691 1.429 . S
C695 C696 1.523 . S
C696 C680 1.368 . S
C696 C692 1.368 . S
C696 C695 1.523 . S
H697 C672 0.950 . S
H698 C674 0.950 . S
H699 C675 0.949 . S
H700 C677 0.950 . S
H701 C679 0.950 . S
C702 C703 1.349 . S
C702 C704 1.327 . S
C702 H727 0.950 . S
C703 C702 1.349 . S
C703 C719 1.349 . S
C704 C702 1.327 . S
C704 C723 1.429 . S
C704 H728 0.950 . S
C705 C722 1.574 1_554 S
C705 C724 1.368 . S
C705 H729 0.949 . S
H706 C710 0.949 . S
C707 C708 1.349 . S
C707 C709 1.327 . S
C707 H730 0.950 . S
C708 C707 1.349 . S
C708 C720 1.349 . S
C709 C707 1.327 . S
C709 C725 1.429 . S
C709 H731 0.950 . S
C710 H706 0.949 . S
C710 C718 1.574 1_556 S
C710 C726 1.368 . S
H711 C719 0.950 . S
H712 C717 0.950 . S
H713 C718 0.949 . S
H714 C720 0.950 . S
H715 C721 0.950 . S
H716 C722 0.949 . S
C717 H712 0.950 . S
C717 C719 1.327 . S
C717 C723 1.429 . S
C718 C710 1.574 1_554 S
C718 H713 0.949 . S
C718 C724 1.368 . S
C719 C703 1.349 . S
C719 H711 0.950 . S
C719 C717 1.327 . S
C720 C708 1.349 . S
C720 H714 0.950 . S
C720 C721 1.327 . S
C721 H715 0.950 . S
C721 C720 1.327 . S
C721 C725 1.429 . S
C722 C705 1.574 1_556 S
C722 H716 0.949 . S
C722 C726 1.368 . S
C723 C704 1.429 . S
C723 C717 1.429 . S
C723 C724 1.523 . S
C724 C705 1.368 . S
C724 C718 1.368 . S
C724 C723 1.523 . S
C725 C709 1.429 . S
C725 C721 1.429 . S
C725 C726 1.523 . S
C726 C710 1.368 . S
C726 C722 1.368 . S
C726 C725 1.523 . S
H727 C702 0.950 . S
H728 C704 0.950 . S
H729 C705 0.949 . S
H730 C707 0.950 . S
H731 C709 0.950 . S
C732 C733 1.349 . S
C732 C734 1.327 . S
C732 H757 0.950 . S
C733 C732 1.349 . S
C733 C749 1.349 . S
C734 C732 1.327 . S
C734 C753 1.429 . S
C734 H758 0.950 . S
C735 C752 1.574 . S
C735 C754 1.368 . S
C735 H759 0.949 . S
H736 C740 0.949 . S
C737 C738 1.349 . S
C737 C739 1.327 . S
C737 H760 0.950 . S
C738 C737 1.349 . S
C738 C750 1.349 . S
C739 C737 1.327 . S
C739 C755 1.429 . S
C739 H761 0.950 . S
C740 H736 0.949 . S
C740 C748 1.574 . S
C740 C756 1.368 . S
H741 C749 0.950 . S
H742 C747 0.950 . S
H743 C748 0.949 . S
H744 C750 0.950 . S
H745 C751 0.950 . S
H746 C752 0.949 . S
C747 H742 0.950 . S
C747 C749 1.327 . S
C747 C753 1.429 . S
C748 C740 1.574 . S
C748 H743 0.949 . S
C748 C754 1.368 . S
C749 C733 1.349 . S
C749 H741 0.950 . S
C749 C747 1.327 . S
C750 C738 1.349 . S
C750 H744 0.950 . S
C750 C751 1.327 . S
C751 H745 0.950 . S
C751 C750 1.327 . S
C751 C755 1.429 . S
C752 C735 1.574 . S
C752 H746 0.949 . S
C752 C756 1.368 . S
C753 C734 1.429 . S
C753 C747 1.429 . S
C753 C754 1.523 . S
C754 C735 1.368 . S
C754 C748 1.368 . S
C754 C753 1.523 . S
C755 C739 1.429 . S
C755 C751 1.429 . S
C755 C756 1.523 . S
C756 C740 1.368 . S
C756 C752 1.368 . S
C756 C755 1.523 . S
H757 C732 0.950 . S
H758 C734 0.950 . S
H759 C735 0.949 . S
H760 C737 0.950 . S
H761 C739 0.950 . S
C762 C763 1.349 . S
C762 C764 1.327 . S
C762 H787 0.950 . S
C763 C762 1.349 . S
C763 C779 1.349 . S
C764 C762 1.327 . S
C764 C783 1.429 . S
C764 H788 0.950 . S
C765 C782 1.574 . S
C765 C784 1.368 . S
C765 H789 0.949 . S
H766 C770 0.949 . S
C767 C768 1.349 . S
C767 C769 1.327 . S
C767 H790 0.950 . S
C768 C767 1.349 . S
C768 C780 1.349 . S
C769 C767 1.327 . S
C769 C785 1.429 . S
C769 H791 0.950 . S
C770 H766 0.949 . S
C770 C778 1.574 . S
C770 C786 1.368 . S
H771 C779 0.950 . S
H772 C777 0.950 . S
H773 C778 0.949 . S
H774 C780 0.950 . S
H775 C781 0.950 . S
H776 C782 0.949 . S
C777 H772 0.950 . S
C777 C779 1.327 . S
C777 C783 1.429 . S
C778 C770 1.574 . S
C778 H773 0.949 . S
C778 C784 1.368 . S
C779 C763 1.349 . S
C779 H771 0.950 . S
C779 C777 1.327 . S
C780 C768 1.349 . S
C780 H774 0.950 . S
C780 C781 1.327 . S
C781 H775 0.950 . S
C781 C780 1.327 . S
C781 C785 1.429 . S
C782 C765 1.574 . S
C782 H776 0.949 . S
C782 C786 1.368 . S
C783 C764 1.429 . S
C783 C777 1.429 . S
C783 C784 1.523 . S
C784 C765 1.368 . S
C784 C778 1.368 . S
C784 C783 1.523 . S
C785 C769 1.429 . S
C785 C781 1.429 . S
C785 C786 1.523 . S
C786 C770 1.368 . S
C786 C782 1.368 . S
C786 C785 1.523 . S
H787 C762 0.950 . S
H788 C764 0.950 . S
H789 C765 0.949 . S
H790 C767 0.950 . S
H791 C769 0.950 . S
C792 C793 1.349 . S
C792 C794 1.327 . S
C792 H817 0.950 . S
C793 C792 1.349 . S
C793 C809 1.349 . S
C794 C792 1.327 . S
C794 C813 1.429 . S
C794 H818 0.950 . S
C795 C812 1.574 . S
C795 C814 1.368 . S
C795 H819 0.949 . S
H796 C800 0.949 . S
C797 C798 1.349 . S
C797 C799 1.327 . S
C797 H820 0.950 . S
C798 C797 1.349 . S
C798 C810 1.349 . S
C799 C797 1.327 . S
C799 C815 1.429 . S
C799 H821 0.950 . S
C800 H796 0.949 . S
C800 C808 1.574 . S
C800 C816 1.368 . S
H801 C809 0.950 . S
H802 C807 0.950 . S
H803 C808 0.949 . S
H804 C810 0.950 . S
H805 C811 0.950 . S
H806 C812 0.949 . S
C807 H802 0.950 . S
C807 C809 1.327 . S
C807 C813 1.429 . S
C808 C800 1.574 . S
C808 H803 0.949 . S
C808 C814 1.368 . S
C809 C793 1.349 . S
C809 H801 0.950 . S
C809 C807 1.327 . S
C810 C798 1.349 . S
C810 H804 0.950 . S
C810 C811 1.327 . S
C811 H805 0.950 . S
C811 C810 1.327 . S
C811 C815 1.429 . S
C812 C795 1.574 . S
C812 H806 0.949 . S
C812 C816 1.368 . S
C813 C794 1.429 . S
C813 C807 1.429 . S
C813 C814 1.523 . S
C814 C795 1.368 . S
C814 C808 1.368 . S
C814 C813 1.523 . S
C815 C799 1.429 . S
C815 C811 1.429 . S
C815 C816 1.523 . S
C816 C800 1.368 . S
C816 C812 1.368 . S
C816 C815 1.523 . S
H817 C792 0.950 . S
H818 C794 0.950 . S
H819 C795 0.949 . S
H820 C797 0.950 . S
H821 C799 0.950 . S
C822 C823 1.349 . S
C822 C824 1.327 . S
C822 H847 0.950 . S
C823 C822 1.349 . S
C823 C839 1.349 . S
C824 C822 1.327 . S
C824 C843 1.429 . S
C824 H848 0.950 . S
C825 C842 1.574 . S
C825 C844 1.368 . S
C825 H849 0.949 . S
H826 C830 0.949 . S
C827 C828 1.349 . S
C827 C829 1.327 . S
C827 H850 0.950 1_556 S
C828 C827 1.349 . S
C828 C840 1.349 . S
C829 C827 1.327 . S
C829 C845 1.429 . S
C829 H851 0.950 . S
C830 H826 0.949 . S
C830 C838 1.574 . S
C830 C846 1.368 . S
H831 C839 0.950 . S
H832 C837 0.950 . S
H833 C838 0.949 . S
H834 C840 0.950 . S
H835 C841 0.950 . S
H836 C842 0.949 . S
C837 H832 0.950 . S
C837 C839 1.327 . S
C837 C843 1.429 . S
C838 C830 1.574 . S
C838 H833 0.949 . S
C838 C844 1.368 . S
C839 C823 1.349 . S
C839 H831 0.950 . S
C839 C837 1.327 . S
C840 C828 1.349 . S
C840 H834 0.950 . S
C840 C841 1.327 . S
C841 H835 0.950 . S
C841 C840 1.327 . S
C841 C845 1.429 . S
C842 C825 1.574 . S
C842 H836 0.949 . S
C842 C846 1.368 . S
C843 C824 1.429 . S
C843 C837 1.429 . S
C843 C844 1.523 . S
C844 C825 1.368 . S
C844 C838 1.368 . S
C844 C843 1.523 . S
C845 C829 1.429 . S
C845 C841 1.429 . S
C845 C846 1.523 . S
C846 C830 1.368 . S
C846 C842 1.368 . S
C846 C845 1.523 . S
H847 C822 0.950 . S
H848 C824 0.950 . S
H849 C825 0.949 . S
H850 C827 0.950 1_554 S
H851 C829 0.950 . S
C852 C853 1.349 . S
C852 C854 1.327 . S
C852 H877 0.950 . S
C853 C852 1.349 . S
C853 C869 1.349 . S
C854 C852 1.327 . S
C854 C873 1.429 . S
C854 H878 0.950 . S
C855 C872 1.574 . S
C855 C874 1.368 . S
C855 H879 0.949 . S
H856 C860 0.949 . S
C857 C858 1.349 . S
C857 C859 1.327 . S
C857 H880 0.950 . S
C858 C857 1.349 . S
C858 C870 1.349 . S
C859 C857 1.327 . S
C859 C875 1.429 . S
C859 H881 0.950 . S
C860 H856 0.949 . S
C860 C868 1.574 . S
C860 C876 1.368 . S
H861 C869 0.950 1_556 S
H862 C867 0.950 . S
H863 C868 0.949 . S
H864 C870 0.950 . S
H865 C871 0.950 . S
H866 C872 0.949 . S
C867 H862 0.950 . S
C867 C869 1.327 . S
C867 C873 1.429 . S
C868 C860 1.574 . S
C868 H863 0.949 . S
C868 C874 1.368 . S
C869 C853 1.349 . S
C869 H861 0.950 1_554 S
C869 C867 1.327 . S
C870 C858 1.349 . S
C870 H864 0.950 . S
C870 C871 1.327 . S
C871 H865 0.950 . S
C871 C870 1.327 . S
C871 C875 1.429 . S
C872 C855 1.574 . S
C872 H866 0.949 . S
C872 C876 1.368 . S
C873 C854 1.429 . S
C873 C867 1.429 . S
C873 C874 1.523 . S
C874 C855 1.368 . S
C874 C868 1.368 . S
C874 C873 1.523 . S
C875 C859 1.429 . S
C875 C871 1.429 . S
C875 C876 1.523 . S
C876 C860 1.368 . S
C876 C872 1.368 . S
C876 C875 1.523 . S
H877 C852 0.950 . S
H878 C854 0.950 . S
H879 C855 0.949 . S
H880 C857 0.950 . S
H881 C859 0.950 . S
C882 C883 1.349 . S
C882 C884 1.327 . S
C882 H907 0.950 . S
C883 C882 1.349 . S
C883 C899 1.349 . S
C884 C882 1.327 . S
C884 C903 1.429 . S
C884 H908 0.950 . S
C885 C902 1.574 . S
C885 C904 1.368 . S
C885 H909 0.949 . S
H886 C890 0.949 . S
C887 C888 1.349 . S
C887 C889 1.327 . S
C887 H910 0.950 . S
C888 C887 1.349 . S
C888 C900 1.349 . S
C889 C887 1.327 . S
C889 C905 1.429 . S
C889 H911 0.950 . S
C890 H886 0.949 . S
C890 C898 1.574 . S
C890 C906 1.368 . S
H891 C899 0.950 . S
H892 C897 0.950 . S
H893 C898 0.949 . S
H894 C900 0.950 . S
H895 C901 0.950 . S
H896 C902 0.949 . S
C897 H892 0.950 . S
C897 C899 1.327 . S
C897 C903 1.429 . S
C898 C890 1.574 . S
C898 H893 0.949 . S
C898 C904 1.368 . S
C899 C883 1.349 . S
C899 H891 0.950 . S
C899 C897 1.327 . S
C900 C888 1.349 . S
C900 H894 0.950 . S
C900 C901 1.327 . S
C901 H895 0.950 . S
C901 C900 1.327 . S
C901 C905 1.429 . S
C902 C885 1.574 . S
C902 H896 0.949 . S
C902 C906 1.368 . S
C903 C884 1.429 . S
C903 C897 1.429 . S
C903 C904 1.523 . S
C904 C885 1.368 . S
C904 C898 1.368 . S
C904 C903 1.523 . S
C905 C889 1.429 . S
C905 C901 1.429 . S
C905 C906 1.523 . S
C906 C890 1.368 . S
C906 C902 1.368 . S
C906 C905 1.523 . S
H907 C882 0.950 . S
H908 C884 0.950 . S
H909 C885 0.949 . S
H910 C887 0.950 . S
H911 C889 0.950 . S
C912 C913 1.349 . S
C912 C914 1.327 . S
C912 H937 0.950 . S
C913 C912 1.349 . S
C913 C929 1.349 . S
C914 C912 1.327 . S
C914 C933 1.429 . S
C914 H938 0.950 . S
C915 C932 1.574 . S
C915 C934 1.368 . S
C915 H939 0.949 . S
H916 C920 0.949 . S
C917 C918 1.349 . S
C917 C919 1.327 . S
C917 H940 0.950 . S
C918 C917 1.349 . S
C918 C930 1.349 . S
C919 C917 1.327 . S
C919 C935 1.429 . S
C919 H941 0.950 . S
C920 H916 0.949 . S
C920 C928 1.574 . S
C920 C936 1.368 . S
H921 C929 0.950 . S
H922 C927 0.950 . S
H923 C928 0.949 . S
H924 C930 0.950 . S
H925 C931 0.950 . S
H926 C932 0.949 . S
C927 H922 0.950 . S
C927 C929 1.327 . S
C927 C933 1.429 . S
C928 C920 1.574 . S
C928 H923 0.949 . S
C928 C934 1.368 . S
C929 C913 1.349 . S
C929 H921 0.950 . S
C929 C927 1.327 . S
C930 C918 1.349 . S
C930 H924 0.950 . S
C930 C931 1.327 . S
C931 H925 0.950 . S
C931 C930 1.327 . S
C931 C935 1.429 . S
C932 C915 1.574 . S
C932 H926 0.949 . S
C932 C936 1.368 . S
C933 C914 1.429 . S
C933 C927 1.429 . S
C933 C934 1.523 . S
C934 C915 1.368 . S
C934 C928 1.368 . S
C934 C933 1.523 . S
C935 C919 1.429 . S
C935 C931 1.429 . S
C935 C936 1.523 . S
C936 C920 1.368 . S
C936 C932 1.368 . S
C936 C935 1.523 . S
H937 C912 0.950 . S
H938 C914 0.950 . S
H939 C915 0.949 . S
H940 C917 0.950 . S
H941 C919 0.950 . S
C942 C943 1.349 . S
C942 C944 1.327 . S
C942 H967 0.950 . S
C943 C942 1.349 . S
C943 C959 1.349 . S
C944 C942 1.327 . S
C944 C963 1.429 . S
C944 H968 0.950 . S
C945 C962 1.574 . S
C945 C964 1.368 . S
C945 H969 0.949 . S
H946 C950 0.949 . S
C947 C948 1.349 . S
C947 C949 1.327 . S
C947 H970 0.950 . S
C948 C947 1.349 . S
C948 C960 1.349 . S
C949 C947 1.327 . S
C949 C965 1.429 . S
C949 H971 0.950 . S
C950 H946 0.949 . S
C950 C958 1.574 . S
C950 C966 1.368 . S
H951 C959 0.950 1_556 S
H952 C957 0.950 . S
H953 C958 0.949 . S
H954 C960 0.950 . S
H955 C961 0.950 . S
H956 C962 0.949 . S
C957 H952 0.950 . S
C957 C959 1.327 . S
C957 C963 1.429 . S
C958 C950 1.574 . S
C958 H953 0.949 . S
C958 C964 1.368 . S
C959 C943 1.349 . S
C959 H951 0.950 1_554 S
C959 C957 1.327 . S
C960 C948 1.349 . S
C960 H954 0.950 . S
C960 C961 1.327 . S
C961 H955 0.950 . S
C961 C960 1.327 . S
C961 C965 1.429 . S
C962 C945 1.574 . S
C962 H956 0.949 . S
C962 C966 1.368 . S
C963 C944 1.429 . S
C963 C957 1.429 . S
C963 C964 1.523 . S
C964 C945 1.368 . S
C964 C958 1.368 . S
C964 C963 1.523 . S
C965 C949 1.429 . S
C965 C961 1.429 . S
C965 C966 1.523 . S
C966 C950 1.368 . S
C966 C962 1.368 . S
C966 C965 1.523 . S
H967 C942 0.950 . S
H968 C944 0.950 . S
H969 C945 0.949 . S
H970 C947 0.950 . S
H971 C949 0.950 . S
C972 C973 1.349 . S
C972 C974 1.327 . S
C972 H997 0.950 . S
C973 C972 1.349 . S
C973 C989 1.349 . S
C974 C972 1.327 . S
C974 C993 1.429 . S
C974 H998 0.950 . S
C975 C992 1.574 . S
C975 C994 1.368 . S
C975 H999 0.949 . S
H976 C980 0.949 . S
C977 C978 1.349 . S
C977 C979 1.327 . S
C977 H1000 0.950 . S
C978 C977 1.349 . S
C978 C990 1.349 . S
C979 C977 1.327 . S
C979 C995 1.429 . S
C979 H1001 0.950 . S
C980 H976 0.949 . S
C980 C988 1.574 . S
C980 C996 1.368 . S
H981 C989 0.950 . S
H982 C987 0.950 . S
H983 C988 0.949 . S
H984 C990 0.950 . S
H985 C991 0.950 . S
H986 C992 0.949 . S
C987 H982 0.950 . S
C987 C989 1.327 . S
C987 C993 1.429 . S
C988 C980 1.574 . S
C988 H983 0.949 . S
C988 C994 1.368 . S
C989 C973 1.349 . S
C989 H981 0.950 . S
C989 C987 1.327 . S
C990 C978 1.349 . S
C990 H984 0.950 . S
C990 C991 1.327 . S
C991 H985 0.950 . S
C991 C990 1.327 . S
C991 C995 1.429 . S
C992 C975 1.574 . S
C992 H986 0.949 . S
C992 C996 1.368 . S
C993 C974 1.429 . S
C993 C987 1.429 . S
C993 C994 1.523 . S
C994 C975 1.368 . S
C994 C988 1.368 . S
C994 C993 1.523 . S
C995 C979 1.429 . S
C995 C991 1.429 . S
C995 C996 1.523 . S
C996 C980 1.368 . S
C996 C992 1.368 . S
C996 C995 1.523 . S
H997 C972 0.950 . S
H998 C974 0.950 . S
H999 C975 0.949 . S
H1000 C977 0.950 . S
H1001 C979 0.950 . S
C1002 C1003 1.349 . S
C1002 C1004 1.327 . S
C1002 H1027 0.950 . S
C1003 C1002 1.349 . S
C1003 C1019 1.349 . S
C1004 C1002 1.327 . S
C1004 C1023 1.429 . S
C1004 H1028 0.950 . S
C1005 C1022 1.574 . S
C1005 C1024 1.368 . S
C1005 H1029 0.949 . S
H1006 C1010 0.949 . S
C1007 C1008 1.349 . S
C1007 C1009 1.327 . S
C1007 H1030 0.950 . S
C1008 C1007 1.349 . S
C1008 C1020 1.349 . S
C1009 C1007 1.327 . S
C1009 C1025 1.429 . S
C1009 H1031 0.950 . S
C1010 H1006 0.949 . S
C1010 C1018 1.574 . S
C1010 C1026 1.368 . S
H1011 C1019 0.950 . S
H1012 C1017 0.950 . S
H1013 C1018 0.949 . S
H1014 C1020 0.950 . S
H1015 C1021 0.950 . S
H1016 C1022 0.949 . S
C1017 H1012 0.950 . S
C1017 C1019 1.327 . S
C1017 C1023 1.429 . S
C1018 C1010 1.574 . S
C1018 H1013 0.949 . S
C1018 C1024 1.368 . S
C1019 C1003 1.349 . S
C1019 H1011 0.950 . S
C1019 C1017 1.327 . S
C1020 C1008 1.349 . S
C1020 H1014 0.950 . S
C1020 C1021 1.327 . S
C1021 H1015 0.950 . S
C1021 C1020 1.327 . S
C1021 C1025 1.429 . S
C1022 C1005 1.574 . S
C1022 H1016 0.949 . S
C1022 C1026 1.368 . S
C1023 C1004 1.429 . S
C1023 C1017 1.429 . S
C1023 C1024 1.523 . S
C1024 C1005 1.368 . S
C1024 C1018 1.368 . S
C1024 C1023 1.523 . S
C1025 C1009 1.429 . S
C1025 C1021 1.429 . S
C1025 C1026 1.523 . S
C1026 C1010 1.368 . S
C1026 C1022 1.368 . S
C1026 C1025 1.523 . S
H1027 C1002 0.950 . S
H1028 C1004 0.950 . S
H1029 C1005 0.949 . S
H1030 C1007 0.950 . S
H1031 C1009 0.950 . S
C1032 C1033 1.349 . S
C1032 C1034 1.327 . S
C1032 H1057 0.950 . S
C1033 C1032 1.349 . S
C1033 C1049 1.349 1_556 S
C1034 C1032 1.327 . S
C1034 C1053 1.429 . S
C1034 H1058 0.950 . S
C1035 C1052 1.574 . S
C1035 C1054 1.368 1_554 S
C1035 H1059 0.949 . S
H1036 C1040 0.949 . S
C1037 C1038 1.349 . S
C1037 C1039 1.327 . S
C1037 H1060 0.950 . S
C1038 C1037 1.349 . S
C1038 C1050 1.349 1_554 S
C1039 C1037 1.327 . S
C1039 C1055 1.429 . S
C1039 H1061 0.950 . S
C1040 H1036 0.949 . S
C1040 C1048 1.574 . S
C1040 C1056 1.368 1_556 S
H1041 C1049 0.950 . S
H1042 C1047 0.950 . S
H1043 C1048 0.949 . S
H1044 C1050 0.950 . S
H1045 C1051 0.950 . S
H1046 C1052 0.949 . S
C1047 H1042 0.950 . S
C1047 C1049 1.327 . S
C1047 C1053 1.429 1_554 S
C1048 C1040 1.574 . S
C1048 H1043 0.949 . S
C1048 C1054 1.368 . S
C1049 C1033 1.349 1_554 S
C1049 H1041 0.950 . S
C1049 C1047 1.327 . S
C1050 C1038 1.349 1_556 S
C1050 H1044 0.950 . S
C1050 C1051 1.327 . S
C1051 H1045 0.950 . S
C1051 C1050 1.327 . S
C1051 C1055 1.429 1_556 S
C1052 C1035 1.574 . S
C1052 H1046 0.949 . S
C1052 C1056 1.368 . S
C1053 C1034 1.429 . S
C1053 C1047 1.429 1_556 S
C1053 C1054 1.523 . S
C1054 C1035 1.368 1_556 S
C1054 C1048 1.368 . S
C1054 C1053 1.523 . S
C1055 C1039 1.429 . S
C1055 C1051 1.429 1_554 S
C1055 C1056 1.523 . S
C1056 C1040 1.368 1_554 S
C1056 C1052 1.368 . S
C1056 C1055 1.523 . S
H1057 C1032 0.950 . S
H1058 C1034 0.950 . S
H1059 C1035 0.949 . S
H1060 C1037 0.950 . S
H1061 C1039 0.950 . S
C1062 C1063 1.349 . S
C1062 C1064 1.327 . S
C1062 H1087 0.950 . S
C1063 C1062 1.349 . S
C1063 C1079 1.349 . S
C1064 C1062 1.327 . S
C1064 C1083 1.429 . S
C1064 H1088 0.950 . S
C1065 C1082 1.574 . S
C1065 C1084 1.368 . S
C1065 H1089 0.949 . S
H1066 C1070 0.949 . S
C1067 C1068 1.349 . S
C1067 C1069 1.327 . S
C1067 H1090 0.950 . S
C1068 C1067 1.349 . S
C1068 C1080 1.349 . S
C1069 C1067 1.327 . S
C1069 C1085 1.429 . S
C1069 H1091 0.950 . S
C1070 H1066 0.949 . S
C1070 C1078 1.574 . S
C1070 C1086 1.368 . S
H1071 C1079 0.950 . S
H1072 C1077 0.950 . S
H1073 C1078 0.949 . S
H1074 C1080 0.950 . S
H1075 C1081 0.950 . S
H1076 C1082 0.949 . S
C1077 H1072 0.950 . S
C1077 C1079 1.327 . S
C1077 C1083 1.429 . S
C1078 C1070 1.574 . S
C1078 H1073 0.949 . S
C1078 C1084 1.368 . S
C1079 C1063 1.349 . S
C1079 H1071 0.950 . S
C1079 C1077 1.327 . S
C1080 C1068 1.349 . S
C1080 H1074 0.950 . S
C1080 C1081 1.327 . S
C1081 H1075 0.950 . S
C1081 C1080 1.327 . S
C1081 C1085 1.429 . S
C1082 C1065 1.574 . S
C1082 H1076 0.949 . S
C1082 C1086 1.368 . S
C1083 C1064 1.429 . S
C1083 C1077 1.429 . S
C1083 C1084 1.523 . S
C1084 C1065 1.368 . S
C1084 C1078 1.368 . S
C1084 C1083 1.523 . S
C1085 C1069 1.429 . S
C1085 C1081 1.429 . S
C1085 C1086 1.523 . S
C1086 C1070 1.368 . S
C1086 C1082 1.368 . S
C1086 C1085 1.523 . S
H1087 C1062 0.950 . S
H1088 C1064 0.950 . S
H1089 C1065 0.949 . S
H1090 C1067 0.950 . S
H1091 C1069 0.950 . S
C1092 C1093 1.349 . S
C1092 C1094 1.327 . S
C1092 H1117 0.950 . S
C1093 C1092 1.349 . S
C1093 C1109 1.349 . S
C1094 C1092 1.327 . S
C1094 C1113 1.429 . S
C1094 H1118 0.950 . S
C1095 C1112 1.574 . S
C1095 C1114 1.368 . S
C1095 H1119 0.949 . S
H1096 C1100 0.949 . S
C1097 C1098 1.349 . S
C1097 C1099 1.327 . S
C1097 H1120 0.950 . S
C1098 C1097 1.349 . S
C1098 C1110 1.349 . S
C1099 C1097 1.327 . S
C1099 C1115 1.429 . S
C1099 H1121 0.950 . S
C1100 H1096 0.949 . S
C1100 C1108 1.574 . S
C1100 C1116 1.368 . S
H1101 C1109 0.950 . S
H1102 C1107 0.950 . S
H1103 C1108 0.949 . S
H1104 C1110 0.950 . S
H1105 C1111 0.950 . S
H1106 C1112 0.949 . S
C1107 H1102 0.950 . S
C1107 C1109 1.327 . S
C1107 C1113 1.429 . S
C1108 C1100 1.574 . S
C1108 H1103 0.949 . S
C1108 C1114 1.368 . S
C1109 C1093 1.349 . S
C1109 H1101 0.950 . S
C1109 C1107 1.327 . S
C1110 C1098 1.349 . S
C1110 H1104 0.950 . S
C1110 C1111 1.327 . S
C1111 H1105 0.950 . S
C1111 C1110 1.327 . S
C1111 C1115 1.429 . S
C1112 C1095 1.574 . S
C1112 H1106 0.949 . S
C1112 C1116 1.368 . S
C1113 C1094 1.429 . S
C1113 C1107 1.429 . S
C1113 C1114 1.523 . S
C1114 C1095 1.368 . S
C1114 C1108 1.368 . S
C1114 C1113 1.523 . S
C1115 C1099 1.429 . S
C1115 C1111 1.429 . S
C1115 C1116 1.523 . S
C1116 C1100 1.368 . S
C1116 C1112 1.368 . S
C1116 C1115 1.523 . S
H1117 C1092 0.950 . S
H1118 C1094 0.950 . S
H1119 C1095 0.949 . S
H1120 C1097 0.950 . S
H1121 C1099 0.950 . S
C1122 C1123 1.349 . S
C1122 C1124 1.327 . S
C1122 H1147 0.950 . S
C1123 C1122 1.349 . S
C1123 C1139 1.349 1_554 S
C1124 C1122 1.327 . S
C1124 C1143 1.429 . S
C1124 H1148 0.950 . S
C1125 C1142 1.574 . S
C1125 C1144 1.368 1_556 S
C1125 H1149 0.949 . S
H1126 C1130 0.949 . S
C1127 C1128 1.349 . S
C1127 C1129 1.327 . S
C1127 H1150 0.950 . S
C1128 C1127 1.349 . S
C1128 C1140 1.349 1_556 S
C1129 C1127 1.327 . S
C1129 C1145 1.429 . S
C1129 H1151 0.950 . S
C1130 H1126 0.949 . S
C1130 C1138 1.574 . S
C1130 C1146 1.368 1_554 S
H1131 C1139 0.950 . S
H1132 C1137 0.950 . S
H1133 C1138 0.949 . S
H1134 C1140 0.950 . S
H1135 C1141 0.950 . S
H1136 C1142 0.949 . S
C1137 H1132 0.950 . S
C1137 C1139 1.327 . S
C1137 C1143 1.429 1_556 S
C1138 C1130 1.574 . S
C1138 H1133 0.949 . S
C1138 C1144 1.368 . S
C1139 C1123 1.349 1_556 S
C1139 H1131 0.950 . S
C1139 C1137 1.327 . S
C1140 C1128 1.349 1_554 S
C1140 H1134 0.950 . S
C1140 C1141 1.327 . S
C1141 H1135 0.950 . S
C1141 C1140 1.327 . S
C1141 C1145 1.429 1_554 S
C1142 C1125 1.574 . S
C1142 H1136 0.949 . S
C1142 C1146 1.368 . S
C1143 C1124 1.429 . S
C1143 C1137 1.429 1_554 S
C1143 C1144 1.523 . S
C1144 C1125 1.368 1_554 S
C1144 C1138 1.368 . S
C1144 C1143 1.523 . S
C1145 C1129 1.429 . S
C1145 C1141 1.429 1_556 S
C1145 C1146 1.523 . S
C1146 C1130 1.368 1_556 S
C1146 C1142 1.368 . S
C1146 C1145 1.523 . S
H1147 C1122 0.950 . S
H1148 C1124 0.950 . S
H1149 C1125 0.949 . S
H1150 C1127 0.950 . S
H1151 C1129 0.950 . S
C433 C14 1.140 . S
C438 C338 1.140 . S
C463 C50 1.140 . S
C468 C374 1.140 . S
C493 C86 1.140 . S
C498 C410 1.140 . S
C523 C122 1.140 . S
C528 C230 1.140 . S
C553 C266 1.140 . S
C558 C158 1.140 . S
C583 C302 1.140 . S
C588 C194 1.140 . S
C613 C363 1.793 . S
C618 C3 1.793 . S
C643 C39 1.793 . S
C648 C399 1.793 . S
C673 C75 1.793 . S
C678 C219 1.793 . S
C703 C111 1.793 . S
C708 C255 1.793 . S
C733 C147 1.793 . S
C738 C291 1.793 . S
C763 C183 1.793 . S
C768 C327 1.793 . S
C793 C362 0.762 . S
C798 C2 0.762 . S
C823 C38 0.762 . S
C828 C398 0.762 . S
C853 C74 0.762 . S
C858 C218 0.762 . S
C883 C110 0.762 . S
C888 C254 0.762 . S
C913 C146 0.762 . S
C918 C290 0.762 . S
C943 C182 0.762 . S
C948 C326 0.762 . S
C973 C4 1.669 . S
C978 C220 1.669 . S
C1003 C256 1.669 . S
C1008 C40 1.669 . S
C1033 C76 1.669 . S
C1038 C292 1.669 . S
C1063 C112 1.669 . S
C1068 C328 1.669 . S
C1093 C148 1.669 . S
C1098 C364 1.669 . S
C1123 C400 1.669 . S
C1128 C184 1.669 . S
