# Generated by pormake.
# Topology ilc, (8)-cn, num edge types: 1
# Building blocks:
#     Node 0, Type 0, BuildingBlock: EYACOX_clean_sbu_0, # of connection points: 8
#     Node 1, Type 0, BuildingBlock: EYACOX_clean_sbu_0, # of connection points: 8
#     Node 2, Type 0, BuildingBlock: EYACOX_clean_sbu_0, # of connection points: 8
#     Edge 3, Type (0, 0), BuildingBlock: FUNLAD_clean_linker_1, # of connection points: 2
#     Edge 4, Type (0, 0), BuildingBlock: FUNLAD_clean_linker_1, # of connection points: 2
#     Edge 5, Type (0, 0), BuildingBlock: FUNLAD_clean_linker_1, # of connection points: 2
#     Edge 6, Type (0, 0), BuildingBlock: FUNLAD_clean_linker_1, # of connection points: 2
#     Edge 7, Type (0, 0), BuildingBlock: FUNLAD_clean_linker_1, # of connection points: 2
#     Edge 8, Type (0, 0), BuildingBlock: FUNLAD_clean_linker_1, # of connection points: 2
#     Edge 9, Type (0, 0), BuildingBlock: FUNLAD_clean_linker_1, # of connection points: 2
#     Edge 10, Type (0, 0), BuildingBlock: FUNLAD_clean_linker_1, # of connection points: 2
#     Edge 11, Type (0, 0), BuildingBlock: FUNLAD_clean_linker_1, # of connection points: 2
#     Edge 12, Type (0, 0), BuildingBlock: FUNLAD_clean_linker_1, # of connection points: 2
#     Edge 13, Type (0, 0), BuildingBlock: FUNLAD_clean_linker_1, # of connection points: 2
#     Edge 14, Type (0, 0), BuildingBlock: FUNLAD_clean_linker_1, # of connection points: 2
# Relax obj value: 0.106
# Max RMSD: 0.171
# Mean RMSD: 0.171
data_MOF--net-ilc--node1-EYACOX_clean_sbu_0--edge1-FUNLAD_clean_linker_1
_symmetry_space_group_name_H-M    P1
_symmetry_Int_Tables_number       1
_symmetry_cell_setting            triclinic
loop_
_symmetry_equiv_pos_as_xyz
'x, y, z'
_cell_length_a     27.487894
_cell_length_b     21.878136
_cell_length_c     20.31898
_cell_angle_alpha  85.006152
_cell_angle_beta   121.7199
_cell_angle_gamma 125.44294
loop_
_atom_site_label
_atom_site_type_symbol
_atom_site_fract_x
_atom_site_fract_y
_atom_site_fract_z
_atom_type_partial_charge
Eu0 Eu 0.96881 0.94134 0.01394 0.0
Eu1 Eu 0.09586 0.01423 0.97877 0.0
O2 O 0.89099 0.84525 0.03513 0.0
O3 O 0.91149 0.95632 0.04713 0.0
O4 O 0.9861 0.91903 0.86299 0.0
O5 O 0.92519 0.84332 0.91869 0.0
O6 O 0.92935 0.97934 0.90215 0.0
O7 O 1.04095 0.06833 0.92028 0.0
C8 C 0.89867 0.89197 0.14301 0.0
C9 C 0.93052 0.89357 0.29881 0.0
C10 C 0.86216 0.87313 0.23443 0.0
C11 C 0.84598 0.87075 0.15588 0.0
C12 C 0.98514 0.9196 0.28791 0.0
C13 C 0.96829 0.91757 0.20952 0.0
C14 C 0.88255 0.88866 0.06098 0.0
C15 C 0.93173 0.85225 0.85838 0.0
O16 O 0.19373 0.11659 0.9903 0.0
O17 O 0.14331 0.99918 0.92893 0.0
C18 C 0.97208 0.0372 0.88474 0.0
O19 O 0.15517 0.08836 0.10427 0.0
O20 O 0.05622 0.07089 0.0806 0.0
O21 O 0.09819 0.92679 0.04482 0.0
O22 O 0.05867 0.93873 0.11433 0.0
C23 C 0.18929 0.10039 0.87434 0.0
C24 C 0.12665 0.12182 0.74682 0.0
C25 C 0.13196 0.10166 0.81634 0.0
C26 C 0.18169 0.145 0.73778 0.0
C27 C 0.23775 0.14062 0.79362 0.0
C28 C 0.24204 0.11973 0.86282 0.0
C29 C 0.19114 0.07503 0.94447 0.0
C30 C 0.12737 0.11012 0.12299 0.0
C31 C 0.09228 0.91888 0.10555 0.0
H32 H 0.94048 0.88716 0.35684 0.0
H33 H 0.7928 0.85287 0.1051 0.0
H34 H 1.00967 0.93609 0.20013 0.0
H35 H 0.08955 0.08365 0.82369 0.0
H36 H 0.17992 0.16494 0.68651 0.0
H37 H 0.28513 0.11651 0.90646 0.0
Eu38 Eu 0.65914 0.3161 0.3656 0.0
Eu39 Eu 0.77981 0.36172 0.32827 0.0
O40 O 0.56595 0.22998 0.37016 0.0
O41 O 0.62332 0.3554 0.41289 0.0
O42 O 0.69077 0.23077 0.28855 0.0
O43 O 0.5965 0.23138 0.24538 0.0
O44 O 0.64919 0.38608 0.27767 0.0
O45 O 0.69627 0.36853 0.22125 0.0
C46 C 0.5815 0.27526 0.48524 0.0
C47 C 0.59024 0.25294 0.62725 0.0
C48 C 0.5252 0.23466 0.5577 0.0
C49 C 0.52139 0.24666 0.48675 0.0
C50 C 0.65094 0.2828 0.6272 0.0
C51 C 0.64677 0.29393 0.55592 0.0
C52 C 0.57526 0.28422 0.40936 0.0
C53 C 0.62125 0.19886 0.23688 0.0
O54 O 0.88703 0.43506 0.34782 0.0
O55 O 0.79548 0.32345 0.25068 0.0
C56 C 0.65983 0.38942 0.22086 0.0
O57 O 0.80614 0.47347 0.37841 0.0
O58 O 0.77453 0.4213 0.46244 0.0
O59 O 0.81913 0.33465 0.44782 0.0
O60 O 0.71142 0.26277 0.43904 0.0
C61 C 0.87934 0.42362 0.22661 0.0
C62 C 0.8657 0.49572 0.12853 0.0
C63 C 0.85301 0.46402 0.18601 0.0
C64 C 0.91022 0.49226 0.11723 0.0
C65 C 0.93039 0.44554 0.1507 0.0
C66 C 0.91496 0.41106 0.20566 0.0
C67 C 0.86299 0.38776 0.28432 0.0
C68 C 0.80571 0.48295 0.44087 0.0
C69 C 0.77787 0.28666 0.47198 0.0
H70 H 0.59612 0.24884 0.6842 0.0
H71 H 0.47172 0.23361 0.43278 0.0
H72 H 0.69382 0.31736 0.55557 0.0
H73 H 0.82054 0.46846 0.19725 0.0
H74 H 0.92493 0.52097 0.07756 0.0
H75 H 0.92973 0.37406 0.23109 0.0
Eu76 Eu 0.31163 0.6137 0.70169 0.0
Eu77 Eu 0.43888 0.71671 0.66325 0.0
O78 O 0.25377 0.61474 0.74443 0.0
O79 O 0.23409 0.50679 0.71469 0.0
O80 O 0.36511 0.58774 0.59856 0.0
O81 O 0.25732 0.54216 0.57751 0.0
O82 O 0.29042 0.69071 0.6303 0.0
O83 O 0.33984 0.70444 0.56207 0.0
C84 C 0.24176 0.53633 0.83033 0.0
C85 C 0.27671 0.52251 0.98447 0.0
C86 C 0.20694 0.50055 0.92449 0.0
C87 C 0.18946 0.50755 0.84666 0.0
C88 C 0.33137 0.5586 0.97134 0.0
C89 C 0.31266 0.56267 0.89327 0.0
C90 C 0.22514 0.54334 0.74941 0.0
C91 C 0.29334 0.53547 0.55873 0.0
O92 O 0.50895 0.81964 0.6396 0.0
O93 O 0.50965 0.72143 0.63895 0.0
C94 C 0.2986 0.70979 0.57172 0.0
O95 O 0.46137 0.80409 0.74781 0.0
O96 O 0.41547 0.71942 0.81107 0.0
O97 O 0.49157 0.69443 0.78215 0.0
O98 O 0.38486 0.57948 0.75709 0.0
C99 C 0.52657 0.79156 0.54734 0.0
C100 C 0.46391 0.78834 0.40589 0.0
C101 C 0.46525 0.77901 0.47577 0.0
C102 C 0.52314 0.80924 0.40726 0.0
C103 C 0.58154 0.81493 0.47508 0.0
C104 C 0.58392 0.80796 0.54612 0.0
C105 C 0.53143 0.78827 0.62348 0.0
C106 C 0.45496 0.79085 0.80811 0.0
C107 C 0.45688 0.6279 0.79676 0.0
H108 H 0.28895 0.51345 0.0427 0.0
H109 H 0.13581 0.49012 0.79877 0.0
H110 H 0.35406 0.58839 0.88185 0.0
H111 H 0.41925 0.76282 0.47463 0.0
H112 H 0.52181 0.81847 0.35325 0.0
H113 H 0.63021 0.81539 0.60029 0.0
H114 H 1.03617 0.12519 0.7024 0.0
C115 C 0.05961 0.11179 0.68236 0.0
H116 H 0.97004 0.07163 0.56248 0.0
H117 H 0.08455 0.08404 0.36303 0.0
H118 H 0.07107 0.18507 0.33725 0.0
H119 H 1.04381 0.22777 0.41302 0.0
H120 H 1.02982 0.16952 0.51469 0.0
C121 C 1.01984 0.07794 0.60153 0.0
C122 C 1.04005 0.05331 0.55962 0.0
C123 C 1.04753 0.08753 0.49949 0.0
C124 C 0.06396 0.06349 0.45618 0.0
C125 C 0.07208 0.09976 0.39765 0.0
C126 C 0.0645 0.15803 0.3822 0.0
C127 C 1.0491 0.18199 0.42478 0.0
C128 C 1.04084 0.1476 0.48284 0.0
H129 H 0.08816 0.93913 0.33963 0.0
C130 C 0.05977 0.94683 0.35588 0.0
H131 H 0.15216 1.00041 0.47643 0.0
H132 H 1.02232 0.96838 0.6645 0.0
H133 H 1.04188 0.87224 0.69439 0.0
H134 H 0.06849 0.82964 0.61757 0.0
H135 H 0.07845 0.88581 0.51294 0.0
C136 C 0.09818 0.98494 0.43506 0.0
C137 C 0.07294 1.00506 0.47285 0.0
C138 C 0.06415 0.96979 0.53175 0.0
C139 C 1.04811 0.99396 0.57547 0.0
C140 C 1.03932 0.95667 0.63332 0.0
C141 C 1.04874 0.89978 0.6498 0.0
C142 C 0.06333 0.87554 0.60631 0.0
C143 C 0.06949 0.90877 0.54683 0.0
H144 H 0.70698 0.2634 0.73718 0.0
C145 C 0.71849 0.30673 0.70608 0.0
H146 H 0.78181 0.42213 0.70951 0.0
H147 H 0.89108 0.64893 0.98532 0.0
H148 H 0.96078 0.73311 0.93323 0.0
H149 H 0.96119 0.6764 0.8339 0.0
H150 H 0.89559 0.53517 0.79021 0.0
C151 C 0.77607 0.38412 0.74752 0.0
C152 C 0.81122 0.42318 0.83466 0.0
C153 C 0.84996 0.50562 0.86 0.0
C154 C 0.8488 0.53816 0.91646 0.0
C155 C 0.88898 0.62085 0.94157 0.0
C156 C 0.92927 0.66986 0.91216 0.0
C157 C 0.92954 0.63792 0.85626 0.0
C158 C 0.89072 0.5568 0.83058 0.0
H159 H 0.81629 0.55286 0.10611 0.0
C160 C 0.82798 0.52767 0.07825 0.0
H161 H 0.77455 0.54848 0.97107 0.0
H162 H 0.79753 0.29108 0.86058 0.0
H163 H 0.73853 0.20507 0.92304 0.0
H164 H 0.69927 0.24344 0.98519 0.0
H165 H 0.72563 0.37092 0.99232 0.0
C166 C 0.80088 0.52193 0.99891 0.0
C167 C 0.8083 0.48795 0.94696 0.0
C168 C 0.77916 0.40782 0.93055 0.0
C169 C 0.78956 0.37932 0.88269 0.0
C170 C 0.77991 0.30878 0.88621 0.0
C171 C 0.74772 0.26028 0.92313 0.0
C172 C 0.72612 0.28219 0.95852 0.0
C173 C 0.74163 0.35538 0.96241 0.0
H174 H 0.44046 0.59403 0.02113 0.0
C175 C 0.40903 0.59428 0.038 0.0
H176 H 0.50293 0.65619 0.1582 0.0
H177 H 0.30341 0.74096 0.15315 0.0
H178 H 0.30781 0.79807 0.0463 0.0
H179 H 0.36745 0.7912 0.99244 0.0
H180 H 0.42025 0.72519 0.04258 0.0
C181 C 0.44612 0.6332 0.11647 0.0
C182 C 0.41507 0.64396 0.15256 0.0
C183 C 0.39023 0.68886 0.12756 0.0
C184 C 0.36071 0.69775 0.16284 0.0
C185 C 0.32973 0.73613 0.13115 0.0
C186 C 0.3316 0.76875 0.06969 0.0
C187 C 0.3649 0.7647 0.03917 0.0
C188 C 0.39444 0.72586 0.06797 0.0
H189 H 0.41577 0.81421 0.29805 0.0
C190 C 0.39887 0.76949 0.3271 0.0
H191 H 0.32049 0.65097 0.3018 0.0
H192 H 0.44855 0.54589 0.207 0.0
H193 H 0.44944 0.49381 0.31741 0.0
H194 H 0.41617 0.52575 0.39293 0.0
H195 H 0.38012 0.60748 0.35739 0.0
C196 C 0.34844 0.6943 0.27852 0.0
C197 C 0.36339 0.66936 0.22925 0.0
C198 C 0.38869 0.62464 0.25462 0.0
C199 C 0.41205 0.60986 0.21428 0.0
C200 C 0.43262 0.56113 0.2373 0.0
C201 C 0.43325 0.53063 0.30051 0.0
C202 C 0.41443 0.5485 0.34288 0.0
C203 C 0.39302 0.59532 0.32101 0.0
H204 H 0.23491 0.75242 0.53245 0.0
C205 C 0.26192 0.74071 0.51744 0.0
H206 H 0.2903 0.74624 0.43752 0.0
H207 H 1.01958 0.77194 0.22949 0.0
H208 H 0.94418 0.64905 0.24844 0.0
H209 H 0.99621 0.58637 0.33109 0.0
H210 H 0.12322 0.64608 0.39533 0.0
C211 C 0.26153 0.7555 0.45158 0.0
C212 C 0.2284 0.79163 0.40031 0.0
C213 C 0.15195 0.75217 0.35737 0.0
C214 C 0.1213 0.78687 0.3072 0.0
C215 C 1.04558 0.74791 0.26764 0.0
C216 C 1.0015 0.67707 0.27759 0.0
C217 C 1.03073 0.64182 0.32412 0.0
C218 C 0.10448 0.67772 0.36215 0.0
H219 H 0.15207 0.87112 0.15636 0.0
C220 C 0.12769 0.89058 0.16723 0.0
H221 H 0.10643 0.90727 0.24715 0.0
H222 H 0.37815 0.8877 0.48116 0.0
H223 H 0.45516 0.01659 0.47171 0.0
H224 H 0.40105 0.07488 0.38265 0.0
H225 H 0.26959 1.00481 0.30273 0.0
C226 C 0.13163 0.88932 0.23614 0.0
C227 C 0.16603 0.85858 0.29643 0.0
C228 C 0.2429 0.89997 0.34236 0.0
C229 C 0.27408 0.86641 0.39412 0.0
C230 C 0.35127 0.90982 0.44022 0.0
C231 C 0.39625 0.9841 0.43569 0.0
C232 C 0.36581 0.01696 0.38556 0.0
C233 C 0.29014 0.97576 0.33944 0.0
H234 H 0.19368 0.42427 0.45603 0.0
C235 C 0.25347 0.46668 0.49262 0.0
H236 H 0.35073 0.49819 0.51414 0.0
H237 H 0.19857 0.15224 0.33788 0.0
H238 H 0.2427 0.14394 0.47534 0.0
H239 H 0.28744 0.24592 0.58251 0.0
H240 H 0.29547 0.36049 0.55585 0.0
C241 C 0.2909 0.45709 0.47714 0.0
C242 C 0.25378 0.39073 0.41007 0.0
C243 C 0.25056 0.32488 0.4274 0.0
C244 C 0.22138 0.26439 0.36454 0.0
C245 C 0.21963 0.19956 0.38336 0.0
C246 C 0.24478 0.19407 0.46192 0.0
C247 C 0.27072 0.25185 0.52261 0.0
C248 C 0.2745 0.31706 0.50625 0.0
H249 H 0.23578 0.21476 0.22775 0.0
C250 C 0.17646 0.17987 0.1934 0.0
H251 H 0.08871 0.16559 0.18102 0.0
H252 H 0.25285 0.51013 0.35716 0.0
H253 H 0.21153 0.51943 0.22024 0.0
H254 H 0.16857 0.41843 0.11431 0.0
H255 H 0.15797 0.30237 0.14057 0.0
C256 C 0.14792 0.19946 0.21559 0.0
C257 C 0.19394 0.26946 0.28451 0.0
C258 C 0.20009 0.33685 0.26804 0.0
C259 C 0.22903 0.39724 0.33069 0.0
C260 C 0.23234 0.46294 0.31204 0.0
C261 C 0.20936 0.46939 0.23406 0.0
C262 C 0.18433 0.41201 0.17392 0.0
C263 C 0.17856 0.34577 0.18988 0.0
H264 H 0.69563 0.86163 0.52686 0.0
C265 C 0.64012 0.82962 0.47123 0.0
H266 H 0.56939 0.7676 0.34544 0.0
H267 H 0.7498 0.72615 0.28972 0.0
H268 H 0.66272 0.59372 0.28281 0.0
H269 H 0.58357 0.56542 0.32403 0.0
H270 H 0.59258 0.67073 0.37404 0.0
C271 C 0.62585 0.80601 0.39968 0.0
C272 C 0.68264 0.82643 0.3887 0.0
C273 C 0.6765 0.76447 0.35852 0.0
C274 C 0.72159 0.78065 0.33378 0.0
C275 C 0.71558 0.71751 0.30678 0.0
C276 C 0.66601 0.64087 0.30307 0.0
C277 C 0.62165 0.62504 0.32649 0.0
C278 C 0.62687 0.6859 0.35432 0.0
H279 H 0.74944 0.81769 0.19686 0.0
C280 C 0.8071 0.85314 0.24849 0.0
H281 H 0.88462 0.91997 0.3734 0.0
H282 H 0.70828 0.96018 0.44173 0.0
H283 H 0.80023 0.09367 0.45612 0.0
H284 H 0.8817 0.12259 0.41843 0.0
H285 H 0.86996 0.01718 0.36386 0.0
C286 C 0.82679 0.87897 0.32274 0.0
C287 C 0.77344 0.85934 0.33973 0.0
C288 C 0.78149 0.92177 0.37276 0.0
C289 C 0.73556 0.90534 0.39633 0.0
C290 C 0.74282 0.96878 0.42526 0.0
C291 C 0.79539 0.04613 0.43353 0.0
C292 C 0.84109 0.06234 0.41211 0.0
C293 C 0.83405 1.00115 0.38137 0.0
H294 H 0.78931 0.25243 0.58068 0.0
C295 C 0.80584 0.25907 0.5406 0.0
H296 H 0.85594 0.23596 0.50766 0.0
H297 H 1.04313 0.21693 0.85635 0.0
H298 H 0.13759 0.3196 0.8407 0.0
H299 H 0.10511 0.36432 0.71972 0.0
H300 H 0.9789 0.31029 0.61651 0.0
C301 C 0.84064 0.23138 0.54854 0.0
C302 C 0.85809 0.19334 0.61286 0.0
C303 C 0.93219 0.22509 0.6724 0.0
C304 C 0.9503 0.19593 0.7398 0.0
C305 C 1.02553 0.23297 0.80128 0.0
C306 C 0.08053 0.29283 0.79367 0.0
C307 C 0.06235 0.3185 0.72595 0.0
C308 C 0.98945 0.28652 0.66678 0.0
H309 H 0.95477 0.06549 0.77253 0.0
C310 C 0.94176 0.06266 0.81542 0.0
H311 H 0.89912 0.09413 0.85372 0.0
H312 H 0.70857 0.10403 0.49865 0.0
H313 H 0.61363 0.99983 0.51305 0.0
H314 H 0.64629 0.9582 0.63613 0.0
H315 H 0.77297 0.01495 0.74166 0.0
C316 C 0.91112 0.09473 0.81045 0.0
C317 C 0.8937 0.13202 0.74546 0.0
C318 C 0.81956 0.09963 0.68537 0.0
C319 C 0.8014 0.12816 0.61751 0.0
C320 C 0.72604 0.08897 0.5544 0.0
C321 C 0.67085 0.02822 0.56128 0.0
C322 C 0.68911 1.00407 0.63007 0.0
C323 C 0.76224 0.03779 0.69066 0.0
H324 H 0.78632 0.56912 0.41462 0.0
C325 C 0.81025 0.54907 0.4633 0.0
H326 H 0.85141 0.54873 0.58382 0.0
H327 H 0.84533 0.85133 0.58456 0.0
H328 H 0.88482 0.89106 0.4963 0.0
H329 H 0.90167 0.81292 0.44262 0.0
H330 H 0.88098 0.69632 0.47904 0.0
C331 C 0.83121 0.57368 0.53835 0.0
C332 C 0.81675 0.62208 0.56037 0.0
C333 C 0.84018 0.69654 0.54715 0.0
C334 C 0.83655 0.74549 0.58321 0.0
C335 C 0.85188 0.815 0.56291 0.0
C336 C 0.87279 0.83731 0.51058 0.0
C337 C 0.88231 0.79333 0.48054 0.0
C338 C 0.8686 0.72511 0.50062 0.0
H339 H 0.86856 0.72855 0.7979 0.0
C340 C 0.88079 0.78332 0.7865 0.0
H341 H 0.87063 0.84599 0.70404 0.0
H342 H 0.73949 0.47201 0.5702 0.0
H343 H 0.67406 0.42547 0.63268 0.0
H344 H 0.67192 0.51408 0.69546 0.0
H345 H 0.73535 0.65126 0.69607 0.0
C346 C 0.85501 0.78879 0.71051 0.0
C347 C 0.81921 0.72471 0.63989 0.0
C348 C 0.78005 0.64475 0.63704 0.0
C349 C 0.77999 0.59345 0.59869 0.0
C350 C 0.74201 0.51407 0.59893 0.0
C351 C 0.70385 0.48635 0.634 0.0
C352 C 0.7025 0.53633 0.6694 0.0
C353 C 0.7396 0.61465 0.67038 0.0
H354 H 0.43115 0.22808 0.52535 0.0
C355 C 0.46452 0.21062 0.56217 0.0
H356 H 0.48313 0.15096 0.64856 0.0
H357 H 0.37387 0.29231 0.76266 0.0
H358 H 0.48336 0.42171 0.79531 0.0
H359 H 0.56166 0.43639 0.75929 0.0
H360 H 0.52993 0.32201 0.68885 0.0
C361 C 0.45477 0.17465 0.61617 0.0
C362 C 0.40748 0.16697 0.63661 0.0
C363 C 0.42883 0.23486 0.68074 0.0
C364 C 0.38569 0.22624 0.70496 0.0
C365 C 0.40591 0.29503 0.74525 0.0
C366 C 0.46855 0.36988 0.7641 0.0
C367 C 0.51246 0.37814 0.74355 0.0
C368 C 0.49321 0.31175 0.7025 0.0
H369 H 0.34412 0.17411 0.83116 0.0
C370 C 0.29054 0.1547 0.77912 0.0
H371 H 0.21713 0.11338 0.65046 0.0
H372 H 0.35174 0.02526 0.55311 0.0
H373 H 0.25061 0.89494 0.53469 0.0
H374 H 0.18558 0.87996 0.59193 0.0
H375 H 0.21936 0.99565 0.66461 0.0
C376 C 0.27246 0.13957 0.70355 0.0
C377 C 0.32345 0.14967 0.68814 0.0
C378 C 0.30567 0.082 0.64946 0.0
C379 C 0.34615 0.09064 0.62123 0.0
C380 C 0.32434 0.02194 0.57835 0.0
C381 C 0.26633 0.94683 0.5672 0.0
C382 C 0.22948 0.93841 0.59902 0.0
C383 C 0.24872 1.00504 0.63972 0.0
H384 H 0.62773 0.40589 0.10026 0.0
C385 C 0.62964 0.41681 0.15307 0.0
H386 H 0.60809 0.46666 0.20786 0.0
H387 H 0.59353 0.59315 0.88672 0.0
H388 H 0.722 0.65179 0.9608 0.0
H389 H 0.78655 0.63963 0.09621 0.0
H390 H 0.7213 0.56323 0.15535 0.0
C391 C 0.60681 0.45625 0.1555 0.0
C392 C 0.57458 0.48152 0.08512 0.0
C393 C 0.61504 0.53087 0.05426 0.0
C394 C 0.58012 0.54528 0.98043 0.0
C395 C 0.61907 0.58618 0.94592 0.0
C396 C 0.69264 0.61927 0.98731 0.0
C397 C 0.72877 0.61168 0.06316 0.0
C398 C 0.69054 0.56737 0.09618 0.0
H399 H 0.55535 0.66021 0.91562 0.0
C400 C 0.50001 0.61074 0.86516 0.0
H401 H 0.41552 0.48763 0.81664 0.0
H402 H 0.48247 0.38915 0.13043 0.0
H403 H 0.36025 0.34681 0.06729 0.0
H404 H 0.30457 0.38419 0.94819 0.0
H405 H 0.37016 0.46285 0.89078 0.0
C406 C 0.47091 0.53638 0.86784 0.0
C407 C 0.50753 0.51819 0.94264 0.0
C408 C 0.46893 0.47361 0.97694 0.0
C409 C 0.50199 0.45419 0.04733 0.0
C410 C 0.46094 0.40715 0.07821 0.0
C411 C 0.39048 0.3822 0.04244 0.0
C412 C 0.35904 0.403 0.97525 0.0
C413 C 0.3974 0.44799 0.94261 0.0
H414 H 0.48955 0.842 0.92628 0.0
C415 C 0.48885 0.85575 0.87312 0.0
H416 H 0.50885 0.94282 0.81299 0.0
H417 H 0.45111 0.9958 0.07589 0.0
H418 H 0.32287 0.90285 0.96116 0.0
H419 H 0.28812 0.84712 0.82943 0.0
H420 H 0.38219 0.88356 0.81268 0.0
C421 C 0.50996 0.92699 0.86568 0.0
C422 C 0.53068 0.98281 0.92935 0.0
C423 C 0.47561 0.9651 0.93654 0.0
C424 C 0.49584 1.00057 1.01082 0.0
C425 C 0.43933 0.97506 0.01918 0.0
C426 C 0.36528 0.92083 0.95398 0.0
C427 C 0.34569 0.88914 0.87996 0.0
C428 C 0.40001 0.91021 0.87125 0.0
H429 H 0.53581 0.13905 0.10532 0.0
C430 C 0.57718 0.1396 0.15979 0.0
H431 H 0.63722 0.09787 0.20965 0.0
H432 H 0.64778 0.03759 0.92771 0.0
H433 H 0.77714 0.14116 0.03647 0.0
H434 H 0.8136 0.21017 0.16279 0.0
H435 H 0.72175 0.17449 0.18238 0.0
C436 C 0.59511 0.0958 0.15444 0.0
C437 C 0.57155 0.05829 0.0753 0.0
C438 C 0.62651 0.0816 0.06452 0.0
C439 C 0.6058 0.04327 0.99137 0.0
C440 C 0.6612 0.06525 0.98259 0.0
C441 C 0.7354 0.12467 0.04423 0.0
C442 C 0.75592 0.1635 0.11533 0.0
C443 C 0.70245 0.14237 0.12577 0.0
H444 H 0.17621 0.46731 1.00958 0.0
C445 C 0.15762 0.4753 0.9498 0.0
H446 H 0.07914 0.48332 0.85294 0.0
H447 H 1.00218 0.34542 0.12521 0.0
H448 H 0.98223 0.23017 0.07752 0.0
H449 H 0.99621 0.21946 0.96968 0.0
H450 H 1.03175 0.32517 0.91003 0.0
C451 C 0.09805 0.47164 0.91075 0.0
C452 C 0.06616 0.46619 0.95446 0.0
C453 C 1.03869 0.40112 0.98334 0.0
C454 C 1.02534 0.4049 0.04129 0.0
C455 C 1.00719 0.34317 0.07638 0.0
C456 C 0.99646 0.27693 0.05024 0.0
C457 C 1.00461 0.271 0.98974 0.0
C458 C 1.02565 0.33228 0.9566 0.0
H459 H 0.91369 0.36689 0.06748 0.0
C460 C 0.95527 0.42326 0.1154 0.0
H461 H 0.05859 0.53476 0.17173 0.0
H462 H 0.11276 0.59892 0.9067 0.0
H463 H 0.11938 0.70759 0.94173 0.0
H464 H 0.08232 0.70747 0.02899 0.0
H465 H 1.03959 0.59961 0.08258 0.0
C466 C 1.01957 0.47776 0.12543 0.0
C467 C 1.0325 0.47074 0.06431 0.0
C468 C 0.05296 0.5323 0.02882 0.0
C469 C 0.07148 0.53091 0.97562 0.0
C470 C 0.09642 0.59579 0.94581 0.0
C471 C 0.10057 0.65879 0.96546 0.0
C472 C 0.07988 0.65881 0.01471 0.0
C473 C 0.05591 0.59643 0.04569 0.0
loop_
_geom_bond_atom_site_label_1
_geom_bond_atom_site_label_2
_geom_bond_distance
_geom_bond_site_symmetry_2
_ccdc_geom_bond_type
Eu0 O2 2.472 . S
Eu0 O3 2.507 . S
Eu0 O5 2.336 1_554 S
Eu0 O6 2.389 1_564 S
Eu0 C14 2.835 . S
Eu0 O20 2.396 1_665 S
Eu0 O22 2.323 1_655 S
Eu1 O4 2.396 1_445 S
Eu1 O7 2.323 1_455 S
Eu1 O16 2.472 . S
Eu1 O17 2.507 . S
Eu1 O19 2.336 1_556 S
Eu1 O21 2.389 1_546 S
Eu1 C29 2.835 . S
O2 Eu0 2.472 . S
O2 C14 1.258 . S
O3 Eu0 2.507 . S
O3 C14 1.246 . S
O4 Eu1 2.396 1_665 S
O4 C15 1.216 . S
O5 Eu0 2.336 1_556 S
O5 C15 1.279 . S
O6 Eu0 2.389 1_546 S
O6 C18 1.239 . S
O7 Eu1 2.323 1_655 S
O7 C18 1.249 . S
C8 C11 1.390 . S
C8 C13 1.370 . S
C8 C14 1.489 . S
C9 C10 1.344 . S
C9 C12 1.413 . S
C9 H32 0.931 . S
C10 C9 1.344 . S
C10 C11 1.423 . S
C11 C8 1.390 . S
C11 C10 1.423 . S
C11 H33 0.930 . S
C12 C9 1.413 . S
C12 C13 1.397 . S
C13 C8 1.370 . S
C13 C12 1.397 . S
C13 H34 0.932 . S
C14 Eu0 2.835 . S
C14 O2 1.258 . S
C14 O3 1.246 . S
C14 C8 1.489 . S
C15 O4 1.216 . S
C15 O5 1.279 . S
O16 Eu1 2.472 . S
O16 C29 1.258 . S
O17 Eu1 2.507 . S
O17 C29 1.246 . S
C18 O6 1.239 . S
C18 O7 1.249 . S
O19 Eu1 2.336 1_554 S
O19 C30 1.279 . S
O20 Eu0 2.396 1_445 S
O20 C30 1.216 . S
O21 Eu1 2.389 1_564 S
O21 C31 1.239 . S
O22 Eu0 2.323 1_455 S
O22 C31 1.249 . S
C23 C25 1.370 . S
C23 C28 1.390 . S
C23 C29 1.489 . S
C24 C25 1.397 . S
C24 C26 1.413 . S
C25 C23 1.370 . S
C25 C24 1.397 . S
C25 H35 0.932 . S
C26 C24 1.413 . S
C26 C27 1.344 . S
C26 H36 0.931 . S
C27 C26 1.344 . S
C27 C28 1.423 . S
C28 C23 1.390 . S
C28 C27 1.423 . S
C28 H37 0.930 . S
C29 Eu1 2.835 . S
C29 O16 1.258 . S
C29 O17 1.246 . S
C29 C23 1.489 . S
C30 O19 1.279 . S
C30 O20 1.216 . S
C31 O21 1.239 . S
C31 O22 1.249 . S
H32 C9 0.931 . S
H33 C11 0.930 . S
H34 C13 0.932 . S
H35 C25 0.932 . S
H36 C26 0.931 . S
H37 C28 0.930 . S
Eu38 O40 2.472 . S
Eu38 O41 2.507 . S
Eu38 O43 2.336 . S
Eu38 O44 2.389 . S
Eu38 C52 2.835 . S
Eu38 O58 2.396 . S
Eu38 O60 2.323 . S
Eu39 O42 2.396 . S
Eu39 O45 2.323 . S
Eu39 O54 2.472 . S
Eu39 O55 2.507 . S
Eu39 O57 2.336 . S
Eu39 O59 2.389 . S
Eu39 C67 2.835 . S
O40 Eu38 2.472 . S
O40 C52 1.258 . S
O41 Eu38 2.507 . S
O41 C52 1.246 . S
O42 Eu39 2.396 . S
O42 C53 1.216 . S
O43 Eu38 2.336 . S
O43 C53 1.279 . S
O44 Eu38 2.389 . S
O44 C56 1.239 . S
O45 Eu39 2.323 . S
O45 C56 1.249 . S
C46 C49 1.390 . S
C46 C51 1.370 . S
C46 C52 1.489 . S
C47 C48 1.344 . S
C47 C50 1.413 . S
C47 H70 0.931 . S
C48 C47 1.344 . S
C48 C49 1.423 . S
C49 C46 1.390 . S
C49 C48 1.423 . S
C49 H71 0.930 . S
C50 C47 1.413 . S
C50 C51 1.397 . S
C51 C46 1.370 . S
C51 C50 1.397 . S
C51 H72 0.932 . S
C52 Eu38 2.835 . S
C52 O40 1.258 . S
C52 O41 1.246 . S
C52 C46 1.489 . S
C53 O42 1.216 . S
C53 O43 1.279 . S
O54 Eu39 2.472 . S
O54 C67 1.258 . S
O55 Eu39 2.507 . S
O55 C67 1.246 . S
C56 O44 1.239 . S
C56 O45 1.249 . S
O57 Eu39 2.336 . S
O57 C68 1.279 . S
O58 Eu38 2.396 . S
O58 C68 1.216 . S
O59 Eu39 2.389 . S
O59 C69 1.239 . S
O60 Eu38 2.323 . S
O60 C69 1.249 . S
C61 C63 1.370 . S
C61 C66 1.390 . S
C61 C67 1.489 . S
C62 C63 1.397 . S
C62 C64 1.413 . S
C63 C61 1.370 . S
C63 C62 1.397 . S
C63 H73 0.932 . S
C64 C62 1.413 . S
C64 C65 1.344 . S
C64 H74 0.931 . S
C65 C64 1.344 . S
C65 C66 1.423 . S
C66 C61 1.390 . S
C66 C65 1.423 . S
C66 H75 0.930 . S
C67 Eu39 2.835 . S
C67 O54 1.258 . S
C67 O55 1.246 . S
C67 C61 1.489 . S
C68 O57 1.279 . S
C68 O58 1.216 . S
C69 O59 1.239 . S
C69 O60 1.249 . S
H70 C47 0.931 . S
H71 C49 0.930 . S
H72 C51 0.932 . S
H73 C63 0.932 . S
H74 C64 0.931 . S
H75 C66 0.930 . S
Eu76 O78 2.472 . S
Eu76 O79 2.507 . S
Eu76 O81 2.336 . S
Eu76 O82 2.389 . S
Eu76 C90 2.835 . S
Eu76 O96 2.396 . S
Eu76 O98 2.323 . S
Eu77 O80 2.396 . S
Eu77 O83 2.323 . S
Eu77 O92 2.472 . S
Eu77 O93 2.507 . S
Eu77 O95 2.336 . S
Eu77 O97 2.389 . S
Eu77 C105 2.835 . S
O78 Eu76 2.472 . S
O78 C90 1.258 . S
O79 Eu76 2.507 . S
O79 C90 1.246 . S
O80 Eu77 2.396 . S
O80 C91 1.216 . S
O81 Eu76 2.336 . S
O81 C91 1.279 . S
O82 Eu76 2.389 . S
O82 C94 1.239 . S
O83 Eu77 2.323 . S
O83 C94 1.249 . S
C84 C87 1.390 . S
C84 C89 1.370 . S
C84 C90 1.489 . S
C85 C86 1.344 . S
C85 C88 1.413 . S
C85 H108 0.931 . S
C86 C85 1.344 . S
C86 C87 1.423 . S
C87 C84 1.390 . S
C87 C86 1.423 . S
C87 H109 0.930 . S
C88 C85 1.413 . S
C88 C89 1.397 . S
C89 C84 1.370 . S
C89 C88 1.397 . S
C89 H110 0.932 . S
C90 Eu76 2.835 . S
C90 O78 1.258 . S
C90 O79 1.246 . S
C90 C84 1.489 . S
C91 O80 1.216 . S
C91 O81 1.279 . S
O92 Eu77 2.472 . S
O92 C105 1.258 . S
O93 Eu77 2.507 . S
O93 C105 1.246 . S
C94 O82 1.239 . S
C94 O83 1.249 . S
O95 Eu77 2.336 . S
O95 C106 1.279 . S
O96 Eu76 2.396 . S
O96 C106 1.216 . S
O97 Eu77 2.389 . S
O97 C107 1.239 . S
O98 Eu76 2.323 . S
O98 C107 1.249 . S
C99 C101 1.370 . S
C99 C104 1.390 . S
C99 C105 1.489 . S
C100 C101 1.397 . S
C100 C102 1.413 . S
C101 C99 1.370 . S
C101 C100 1.397 . S
C101 H111 0.932 . S
C102 C100 1.413 . S
C102 C103 1.344 . S
C102 H112 0.931 . S
C103 C102 1.344 . S
C103 C104 1.423 . S
C104 C99 1.390 . S
C104 C103 1.423 . S
C104 H113 0.930 . S
C105 Eu77 2.835 . S
C105 O92 1.258 . S
C105 O93 1.246 . S
C105 C99 1.489 . S
C106 O95 1.279 . S
C106 O96 1.216 . S
C107 O97 1.239 . S
C107 O98 1.249 . S
H108 C85 0.931 . S
H109 C87 0.930 . S
H110 C89 0.932 . S
H111 C101 0.932 . S
H112 C102 0.931 . S
H113 C104 0.930 . S
H114 C115 0.951 . S
C115 H114 0.951 . S
C115 C121 1.265 . S
H116 C121 0.950 . S
H117 C125 0.949 . S
H118 C126 0.950 . S
H119 C127 0.951 . S
H120 C128 0.951 . S
C121 C115 1.265 . S
C121 H116 0.950 . S
C121 C122 1.478 . S
C122 C121 1.478 . S
C122 C123 1.397 . S
C122 C139 1.394 1_545 S
C123 C122 1.397 . S
C123 C124 1.438 1_455 S
C123 C128 1.429 . S
C124 C123 1.438 1_655 S
C124 C125 1.428 . S
C124 C137 1.394 1_545 S
C125 H117 0.949 . S
C125 C124 1.428 . S
C125 C126 1.345 1_655 S
C126 H118 0.950 . S
C126 C125 1.345 1_455 S
C126 C127 1.424 . S
C127 H119 0.951 . S
C127 C126 1.424 . S
C127 C128 1.347 . S
C128 H120 0.951 . S
C128 C123 1.429 . S
C128 C127 1.347 . S
H129 C130 0.951 . S
C130 H129 0.951 . S
C130 C136 1.265 . S
H131 C136 0.950 . S
H132 C140 0.949 . S
H133 C141 0.950 . S
H134 C142 0.951 . S
H135 C143 0.951 . S
C136 C130 1.265 . S
C136 H131 0.950 . S
C136 C137 1.478 . S
C137 C124 1.394 1_565 S
C137 C136 1.478 . S
C137 C138 1.397 . S
C138 C137 1.397 . S
C138 C139 1.438 1_655 S
C138 C143 1.429 . S
C139 C122 1.394 1_565 S
C139 C138 1.438 1_455 S
C139 C140 1.428 . S
C140 H132 0.949 . S
C140 C139 1.428 . S
C140 C141 1.345 1_455 S
C141 H133 0.950 . S
C141 C140 1.345 1_655 S
C141 C142 1.424 . S
C142 H134 0.951 . S
C142 C141 1.424 . S
C142 C143 1.347 . S
C143 H135 0.951 . S
C143 C138 1.429 . S
C143 C142 1.347 . S
H144 C145 0.951 . S
C145 H144 0.951 . S
C145 C151 1.265 . S
H146 C151 0.950 . S
H147 C155 0.949 . S
H148 C156 0.950 . S
H149 C157 0.951 . S
H150 C158 0.951 . S
C151 C145 1.265 . S
C151 H146 0.950 . S
C151 C152 1.478 . S
C152 C151 1.478 . S
C152 C153 1.397 . S
C152 C169 1.394 . S
C153 C152 1.397 . S
C153 C154 1.438 . S
C153 C158 1.429 . S
C154 C153 1.438 . S
C154 C155 1.428 . S
C154 C167 1.394 . S
C155 H147 0.949 . S
C155 C154 1.428 . S
C155 C156 1.345 . S
C156 H148 0.950 . S
C156 C155 1.345 . S
C156 C157 1.424 . S
C157 H149 0.951 . S
C157 C156 1.424 . S
C157 C158 1.347 . S
C158 H150 0.951 . S
C158 C153 1.429 . S
C158 C157 1.347 . S
H159 C160 0.951 . S
C160 H159 0.951 . S
C160 C166 1.265 1_554 S
H161 C166 0.950 . S
H162 C170 0.949 . S
H163 C171 0.950 . S
H164 C172 0.951 . S
H165 C173 0.951 . S
C166 C160 1.265 1_556 S
C166 H161 0.950 . S
C166 C167 1.478 . S
C167 C154 1.394 . S
C167 C166 1.478 . S
C167 C168 1.397 . S
C168 C167 1.397 . S
C168 C169 1.438 . S
C168 C173 1.429 . S
C169 C152 1.394 . S
C169 C168 1.438 . S
C169 C170 1.428 . S
C170 H162 0.949 . S
C170 C169 1.428 . S
C170 C171 1.345 . S
C171 H163 0.950 . S
C171 C170 1.345 . S
C171 C172 1.424 . S
C172 H164 0.951 . S
C172 C171 1.424 . S
C172 C173 1.347 . S
C173 H165 0.951 . S
C173 C168 1.429 . S
C173 C172 1.347 . S
H174 C175 0.951 . S
C175 H174 0.951 . S
C175 C181 1.265 1_556 S
H176 C181 0.950 . S
H177 C185 0.949 . S
H178 C186 0.950 . S
H179 C187 0.951 . S
H180 C188 0.951 . S
C181 C175 1.265 1_554 S
C181 H176 0.950 . S
C181 C182 1.478 . S
C182 C181 1.478 . S
C182 C183 1.397 . S
C182 C199 1.394 . S
C183 C182 1.397 . S
C183 C184 1.438 . S
C183 C188 1.429 . S
C184 C183 1.438 . S
C184 C185 1.428 . S
C184 C197 1.394 . S
C185 H177 0.949 . S
C185 C184 1.428 . S
C185 C186 1.345 . S
C186 H178 0.950 . S
C186 C185 1.345 . S
C186 C187 1.424 . S
C187 H179 0.951 . S
C187 C186 1.424 . S
C187 C188 1.347 . S
C188 H180 0.951 . S
C188 C183 1.429 . S
C188 C187 1.347 . S
H189 C190 0.951 . S
C190 H189 0.951 . S
C190 C196 1.265 . S
H191 C196 0.950 . S
H192 C200 0.949 . S
H193 C201 0.950 . S
H194 C202 0.951 . S
H195 C203 0.951 . S
C196 C190 1.265 . S
C196 H191 0.950 . S
C196 C197 1.478 . S
C197 C184 1.394 . S
C197 C196 1.478 . S
C197 C198 1.397 . S
C198 C197 1.397 . S
C198 C199 1.438 . S
C198 C203 1.429 . S
C199 C182 1.394 . S
C199 C198 1.438 . S
C199 C200 1.428 . S
C200 H192 0.949 . S
C200 C199 1.428 . S
C200 C201 1.345 . S
C201 H193 0.950 . S
C201 C200 1.345 . S
C201 C202 1.424 . S
C202 H194 0.951 . S
C202 C201 1.424 . S
C202 C203 1.347 . S
C203 H195 0.951 . S
C203 C198 1.429 . S
C203 C202 1.347 . S
H204 C205 0.951 . S
C205 H204 0.951 . S
C205 C211 1.265 . S
H206 C211 0.950 . S
H207 C215 0.949 . S
H208 C216 0.950 . S
H209 C217 0.951 . S
H210 C218 0.951 . S
C211 C205 1.265 . S
C211 H206 0.950 . S
C211 C212 1.478 . S
C212 C211 1.478 . S
C212 C213 1.397 . S
C212 C229 1.394 . S
C213 C212 1.397 . S
C213 C214 1.438 . S
C213 C218 1.429 . S
C214 C213 1.438 . S
C214 C215 1.428 . S
C214 C227 1.394 . S
C215 H207 0.949 . S
C215 C214 1.428 . S
C215 C216 1.345 . S
C216 H208 0.950 . S
C216 C215 1.345 . S
C216 C217 1.424 . S
C217 H209 0.951 . S
C217 C216 1.424 . S
C217 C218 1.347 . S
C218 H210 0.951 . S
C218 C213 1.429 . S
C218 C217 1.347 . S
H219 C220 0.951 . S
C220 H219 0.951 . S
C220 C226 1.265 . S
H221 C226 0.950 . S
H222 C230 0.949 . S
H223 C231 0.950 . S
H224 C232 0.951 1_545 S
H225 C233 0.951 . S
C226 C220 1.265 . S
C226 H221 0.950 . S
C226 C227 1.478 . S
C227 C214 1.394 . S
C227 C226 1.478 . S
C227 C228 1.397 . S
C228 C227 1.397 . S
C228 C229 1.438 . S
C228 C233 1.429 . S
C229 C212 1.394 . S
C229 C228 1.438 . S
C229 C230 1.428 . S
C230 H222 0.949 . S
C230 C229 1.428 . S
C230 C231 1.345 . S
C231 H223 0.950 . S
C231 C230 1.345 . S
C231 C232 1.424 . S
C232 H224 0.951 1_565 S
C232 C231 1.424 . S
C232 C233 1.347 . S
C233 H225 0.951 . S
C233 C228 1.429 . S
C233 C232 1.347 . S
H234 C235 0.951 . S
C235 H234 0.951 . S
C235 C241 1.265 . S
H236 C241 0.950 . S
H237 C245 0.949 . S
H238 C246 0.950 . S
H239 C247 0.951 . S
H240 C248 0.951 . S
C241 C235 1.265 . S
C241 H236 0.950 . S
C241 C242 1.478 . S
C242 C241 1.478 . S
C242 C243 1.397 . S
C242 C259 1.394 . S
C243 C242 1.397 . S
C243 C244 1.438 . S
C243 C248 1.429 . S
C244 C243 1.438 . S
C244 C245 1.428 . S
C244 C257 1.394 . S
C245 H237 0.949 . S
C245 C244 1.428 . S
C245 C246 1.345 . S
C246 H238 0.950 . S
C246 C245 1.345 . S
C246 C247 1.424 . S
C247 H239 0.951 . S
C247 C246 1.424 . S
C247 C248 1.347 . S
C248 H240 0.951 . S
C248 C243 1.429 . S
C248 C247 1.347 . S
H249 C250 0.951 . S
C250 H249 0.951 . S
C250 C256 1.265 . S
H251 C256 0.950 . S
H252 C260 0.949 . S
H253 C261 0.950 . S
H254 C262 0.951 . S
H255 C263 0.951 . S
C256 C250 1.265 . S
C256 H251 0.950 . S
C256 C257 1.478 . S
C257 C244 1.394 . S
C257 C256 1.478 . S
C257 C258 1.397 . S
C258 C257 1.397 . S
C258 C259 1.438 . S
C258 C263 1.429 . S
C259 C242 1.394 . S
C259 C258 1.438 . S
C259 C260 1.428 . S
C260 H252 0.949 . S
C260 C259 1.428 . S
C260 C261 1.345 . S
C261 H253 0.950 . S
C261 C260 1.345 . S
C261 C262 1.424 . S
C262 H254 0.951 . S
C262 C261 1.424 . S
C262 C263 1.347 . S
C263 H255 0.951 . S
C263 C258 1.429 . S
C263 C262 1.347 . S
H264 C265 0.951 . S
C265 H264 0.951 . S
C265 C271 1.265 . S
H266 C271 0.950 . S
H267 C275 0.949 . S
H268 C276 0.950 . S
H269 C277 0.951 . S
H270 C278 0.951 . S
C271 C265 1.265 . S
C271 H266 0.950 . S
C271 C272 1.478 . S
C272 C271 1.478 . S
C272 C273 1.397 . S
C272 C289 1.394 . S
C273 C272 1.397 . S
C273 C274 1.438 . S
C273 C278 1.429 . S
C274 C273 1.438 . S
C274 C275 1.428 . S
C274 C287 1.394 . S
C275 H267 0.949 . S
C275 C274 1.428 . S
C275 C276 1.345 . S
C276 H268 0.950 . S
C276 C275 1.345 . S
C276 C277 1.424 . S
C277 H269 0.951 . S
C277 C276 1.424 . S
C277 C278 1.347 . S
C278 H270 0.951 . S
C278 C273 1.429 . S
C278 C277 1.347 . S
H279 C280 0.951 . S
C280 H279 0.951 . S
C280 C286 1.265 . S
H281 C286 0.950 . S
H282 C290 0.949 . S
H283 C291 0.950 . S
H284 C292 0.951 . S
H285 C293 0.951 . S
C286 C280 1.265 . S
C286 H281 0.950 . S
C286 C287 1.478 . S
C287 C274 1.394 . S
C287 C286 1.478 . S
C287 C288 1.397 . S
C288 C287 1.397 . S
C288 C289 1.438 . S
C288 C293 1.429 1_565 S
C289 C272 1.394 . S
C289 C288 1.438 . S
C289 C290 1.428 . S
C290 H282 0.949 . S
C290 C289 1.428 . S
C290 C291 1.345 1_565 S
C291 H283 0.950 . S
C291 C290 1.345 1_545 S
C291 C292 1.424 . S
C292 H284 0.951 . S
C292 C291 1.424 . S
C292 C293 1.347 . S
C293 H285 0.951 . S
C293 C288 1.429 1_545 S
C293 C292 1.347 . S
H294 C295 0.951 . S
C295 H294 0.951 . S
C295 C301 1.265 . S
H296 C301 0.950 . S
H297 C305 0.949 . S
H298 C306 0.950 . S
H299 C307 0.951 . S
H300 C308 0.951 . S
C301 C295 1.265 . S
C301 H296 0.950 . S
C301 C302 1.478 . S
C302 C301 1.478 . S
C302 C303 1.397 . S
C302 C319 1.394 . S
C303 C302 1.397 . S
C303 C304 1.438 . S
C303 C308 1.429 . S
C304 C303 1.438 . S
C304 C305 1.428 . S
C304 C317 1.394 . S
C305 H297 0.949 . S
C305 C304 1.428 . S
C305 C306 1.345 1_655 S
C306 H298 0.950 . S
C306 C305 1.345 1_455 S
C306 C307 1.424 . S
C307 H299 0.951 . S
C307 C306 1.424 . S
C307 C308 1.347 1_455 S
C308 H300 0.951 . S
C308 C303 1.429 . S
C308 C307 1.347 1_655 S
H309 C310 0.951 . S
C310 H309 0.951 . S
C310 C316 1.265 . S
H311 C316 0.950 . S
H312 C320 0.949 . S
H313 C321 0.950 . S
H314 C322 0.951 1_565 S
H315 C323 0.951 . S
C316 C310 1.265 . S
C316 H311 0.950 . S
C316 C317 1.478 . S
C317 C304 1.394 . S
C317 C316 1.478 . S
C317 C318 1.397 . S
C318 C317 1.397 . S
C318 C319 1.438 . S
C318 C323 1.429 . S
C319 C302 1.394 . S
C319 C318 1.438 . S
C319 C320 1.428 . S
C320 H312 0.949 . S
C320 C319 1.428 . S
C320 C321 1.345 . S
C321 H313 0.950 . S
C321 C320 1.345 . S
C321 C322 1.424 . S
C322 H314 0.951 1_545 S
C322 C321 1.424 . S
C322 C323 1.347 . S
C323 H315 0.951 . S
C323 C318 1.429 . S
C323 C322 1.347 . S
H324 C325 0.951 . S
C325 H324 0.951 . S
C325 C331 1.265 . S
H326 C331 0.950 . S
H327 C335 0.949 . S
H328 C336 0.950 . S
H329 C337 0.951 . S
H330 C338 0.951 . S
C331 C325 1.265 . S
C331 H326 0.950 . S
C331 C332 1.478 . S
C332 C331 1.478 . S
C332 C333 1.397 . S
C332 C349 1.394 . S
C333 C332 1.397 . S
C333 C334 1.438 . S
C333 C338 1.429 . S
C334 C333 1.438 . S
C334 C335 1.428 . S
C334 C347 1.394 . S
C335 H327 0.949 . S
C335 C334 1.428 . S
C335 C336 1.345 . S
C336 H328 0.950 . S
C336 C335 1.345 . S
C336 C337 1.424 . S
C337 H329 0.951 . S
C337 C336 1.424 . S
C337 C338 1.347 . S
C338 H330 0.951 . S
C338 C333 1.429 . S
C338 C337 1.347 . S
H339 C340 0.951 . S
C340 H339 0.951 . S
C340 C346 1.265 . S
H341 C346 0.950 . S
H342 C350 0.949 . S
H343 C351 0.950 . S
H344 C352 0.951 . S
H345 C353 0.951 . S
C346 C340 1.265 . S
C346 H341 0.950 . S
C346 C347 1.478 . S
C347 C334 1.394 . S
C347 C346 1.478 . S
C347 C348 1.397 . S
C348 C347 1.397 . S
C348 C349 1.438 . S
C348 C353 1.429 . S
C349 C332 1.394 . S
C349 C348 1.438 . S
C349 C350 1.428 . S
C350 H342 0.949 . S
C350 C349 1.428 . S
C350 C351 1.345 . S
C351 H343 0.950 . S
C351 C350 1.345 . S
C351 C352 1.424 . S
C352 H344 0.951 . S
C352 C351 1.424 . S
C352 C353 1.347 . S
C353 H345 0.951 . S
C353 C348 1.429 . S
C353 C352 1.347 . S
H354 C355 0.951 . S
C355 H354 0.951 . S
C355 C361 1.265 . S
H356 C361 0.950 . S
H357 C365 0.949 . S
H358 C366 0.950 . S
H359 C367 0.951 . S
H360 C368 0.951 . S
C361 C355 1.265 . S
C361 H356 0.950 . S
C361 C362 1.478 . S
C362 C361 1.478 . S
C362 C363 1.397 . S
C362 C379 1.394 . S
C363 C362 1.397 . S
C363 C364 1.438 . S
C363 C368 1.429 . S
C364 C363 1.438 . S
C364 C365 1.428 . S
C364 C377 1.394 . S
C365 H357 0.949 . S
C365 C364 1.428 . S
C365 C366 1.345 . S
C366 H358 0.950 . S
C366 C365 1.345 . S
C366 C367 1.424 . S
C367 H359 0.951 . S
C367 C366 1.424 . S
C367 C368 1.347 . S
C368 H360 0.951 . S
C368 C363 1.429 . S
C368 C367 1.347 . S
H369 C370 0.951 . S
C370 H369 0.951 . S
C370 C376 1.265 . S
H371 C376 0.950 . S
H372 C380 0.949 . S
H373 C381 0.950 . S
H374 C382 0.951 . S
H375 C383 0.951 1_565 S
C376 C370 1.265 . S
C376 H371 0.950 . S
C376 C377 1.478 . S
C377 C364 1.394 . S
C377 C376 1.478 . S
C377 C378 1.397 . S
C378 C377 1.397 . S
C378 C379 1.438 . S
C378 C383 1.429 . S
C379 C362 1.394 . S
C379 C378 1.438 . S
C379 C380 1.428 . S
C380 H372 0.949 . S
C380 C379 1.428 . S
C380 C381 1.345 1_545 S
C381 H373 0.950 . S
C381 C380 1.345 1_565 S
C381 C382 1.424 . S
C382 H374 0.951 . S
C382 C381 1.424 . S
C382 C383 1.347 1_565 S
C383 H375 0.951 1_545 S
C383 C378 1.429 . S
C383 C382 1.347 1_545 S
H384 C385 0.951 . S
C385 H384 0.951 . S
C385 C391 1.265 . S
H386 C391 0.950 . S
H387 C395 0.949 1_556 S
H388 C396 0.950 . S
H389 C397 0.951 . S
H390 C398 0.951 . S
C391 C385 1.265 . S
C391 H386 0.950 . S
C391 C392 1.478 . S
C392 C391 1.478 . S
C392 C393 1.397 . S
C392 C409 1.394 1_554 S
C393 C392 1.397 . S
C393 C394 1.438 . S
C393 C398 1.429 . S
C394 C393 1.438 . S
C394 C395 1.428 . S
C394 C407 1.394 1_554 S
C395 H387 0.949 1_554 S
C395 C394 1.428 . S
C395 C396 1.345 . S
C396 H388 0.950 . S
C396 C395 1.345 . S
C396 C397 1.424 . S
C397 H389 0.951 . S
C397 C396 1.424 . S
C397 C398 1.347 . S
C398 H390 0.951 . S
C398 C393 1.429 . S
C398 C397 1.347 . S
H399 C400 0.951 . S
C400 H399 0.951 . S
C400 C406 1.265 . S
H401 C406 0.950 . S
H402 C410 0.949 1_554 S
H403 C411 0.950 . S
H404 C412 0.951 . S
H405 C413 0.951 . S
C406 C400 1.265 . S
C406 H401 0.950 . S
C406 C407 1.478 . S
C407 C394 1.394 1_556 S
C407 C406 1.478 . S
C407 C408 1.397 . S
C408 C407 1.397 . S
C408 C409 1.438 . S
C408 C413 1.429 . S
C409 C392 1.394 1_556 S
C409 C408 1.438 . S
C409 C410 1.428 . S
C410 H402 0.949 1_556 S
C410 C409 1.428 . S
C410 C411 1.345 . S
C411 H403 0.950 . S
C411 C410 1.345 . S
C411 C412 1.424 . S
C412 H404 0.951 . S
C412 C411 1.424 . S
C412 C413 1.347 . S
C413 H405 0.951 . S
C413 C408 1.429 . S
C413 C412 1.347 . S
H414 C415 0.951 . S
C415 H414 0.951 . S
C415 C421 1.265 . S
H416 C421 0.950 . S
H417 C425 0.949 1_554 S
H418 C426 0.950 . S
H419 C427 0.951 . S
H420 C428 0.951 . S
C421 C415 1.265 . S
C421 H416 0.950 . S
C421 C422 1.478 . S
C422 C421 1.478 . S
C422 C423 1.397 . S
C422 C439 1.394 1_556 S
C423 C422 1.397 . S
C423 C424 1.438 1_565 S
C423 C428 1.429 . S
C424 C423 1.438 1_545 S
C424 C425 1.428 . S
C424 C437 1.394 1_556 S
C425 H417 0.949 1_556 S
C425 C424 1.428 . S
C425 C426 1.345 . S
C426 H418 0.950 . S
C426 C425 1.345 . S
C426 C427 1.424 1_545 S
C427 H419 0.951 . S
C427 C426 1.424 1_565 S
C427 C428 1.347 . S
C428 H420 0.951 . S
C428 C423 1.429 . S
C428 C427 1.347 . S
H429 C430 0.951 . S
C430 H429 0.951 . S
C430 C436 1.265 . S
H431 C436 0.950 . S
H432 C440 0.949 1_556 S
H433 C441 0.950 . S
H434 C442 0.951 . S
H435 C443 0.951 . S
C436 C430 1.265 . S
C436 H431 0.950 . S
C436 C437 1.478 . S
C437 C424 1.394 1_554 S
C437 C436 1.478 . S
C437 C438 1.397 . S
C438 C437 1.397 . S
C438 C439 1.438 1_545 S
C438 C443 1.429 . S
C439 C422 1.394 1_554 S
C439 C438 1.438 1_565 S
C439 C440 1.428 . S
C440 H432 0.949 1_554 S
C440 C439 1.428 . S
C440 C441 1.345 . S
C441 H433 0.950 . S
C441 C440 1.345 . S
C441 C442 1.424 1_565 S
C442 H434 0.951 . S
C442 C441 1.424 1_545 S
C442 C443 1.347 . S
C443 H435 0.951 . S
C443 C438 1.429 . S
C443 C442 1.347 . S
H444 C445 0.951 . S
C445 H444 0.951 . S
C445 C451 1.265 . S
H446 C451 0.950 . S
H447 C455 0.949 . S
H448 C456 0.950 . S
H449 C457 0.951 . S
H450 C458 0.951 . S
C451 C445 1.265 . S
C451 H446 0.950 . S
C451 C452 1.478 . S
C452 C451 1.478 . S
C452 C453 1.397 1_455 S
C452 C469 1.394 1_556 S
C453 C452 1.397 1_655 S
C453 C454 1.438 . S
C453 C458 1.429 . S
C454 C453 1.438 . S
C454 C455 1.428 . S
C454 C467 1.394 1_556 S
C455 H447 0.949 . S
C455 C454 1.428 . S
C455 C456 1.345 . S
C456 H448 0.950 . S
C456 C455 1.345 . S
C456 C457 1.424 . S
C457 H449 0.951 . S
C457 C456 1.424 . S
C457 C458 1.347 . S
C458 H450 0.951 . S
C458 C453 1.429 . S
C458 C457 1.347 . S
H459 C460 0.951 . S
C460 H459 0.951 . S
C460 C466 1.265 . S
H461 C466 0.950 . S
H462 C470 0.949 . S
H463 C471 0.950 . S
H464 C472 0.951 . S
H465 C473 0.951 . S
C466 C460 1.265 . S
C466 H461 0.950 . S
C466 C467 1.478 . S
C467 C454 1.394 1_554 S
C467 C466 1.478 . S
C467 C468 1.397 1_655 S
C468 C467 1.397 1_455 S
C468 C469 1.438 . S
C468 C473 1.429 . S
C469 C452 1.394 1_554 S
C469 C468 1.438 . S
C469 C470 1.428 . S
C470 H462 0.949 . S
C470 C469 1.428 . S
C470 C471 1.345 . S
C471 H463 0.950 . S
C471 C470 1.345 . S
C471 C472 1.424 . S
C472 H464 0.951 . S
C472 C471 1.424 . S
C472 C473 1.347 . S
C473 H465 0.951 . S
C473 C468 1.429 . S
C473 C472 1.347 . S
C115 C24 0.559 . S
C130 C12 0.559 . S
C145 C50 0.623 . S
C160 C62 0.623 . S
C175 C88 0.632 . S
C190 C100 0.632 . S
C205 C94 2.062 . S
C220 C31 2.061 . S
C235 C91 1.327 . S
C250 C30 1.326 . S
C265 C103 2.132 . S
C280 C10 2.133 . S
C295 C69 2.078 . S
C310 C18 2.079 . S
C325 C68 1.290 . S
C340 C15 1.292 . S
C355 C48 2.226 . S
C370 C27 2.226 . S
C385 C56 2.078 . S
C400 C107 2.078 . S
C415 C106 1.267 . S
C430 C53 1.267 . S
C445 C86 2.133 . S
C460 C65 2.133 . S
