# Generated by pormake.
# Topology cds-f, (5)-cn, num edge types: 1
# Building blocks:
#     Node 0, Type 0, BuildingBlock: BEQFEK_clean_sbu_0, # of connection points: 5
#     Node 1, Type 0, BuildingBlock: BEQFEK_clean_sbu_0, # of connection points: 5
#     Node 2, Type 0, BuildingBlock: BEQFEK_clean_sbu_0, # of connection points: 5
#     Node 3, Type 0, BuildingBlock: BEQFEK_clean_sbu_0, # of connection points: 5
#     Node 4, Type 0, BuildingBlock: BEQFEK_clean_sbu_0, # of connection points: 5
#     Node 5, Type 0, BuildingBlock: BEQFEK_clean_sbu_0, # of connection points: 5
#     Node 6, Type 0, BuildingBlock: BEQFEK_clean_sbu_0, # of connection points: 5
#     Node 7, Type 0, BuildingBlock: BEQFEK_clean_sbu_0, # of connection points: 5
#     Node 8, Type 0, BuildingBlock: BEQFEK_clean_sbu_0, # of connection points: 5
#     Node 9, Type 0, BuildingBlock: BEQFEK_clean_sbu_0, # of connection points: 5
#     Node 10, Type 0, BuildingBlock: BEQFEK_clean_sbu_0, # of connection points: 5
#     Node 11, Type 0, BuildingBlock: BEQFEK_clean_sbu_0, # of connection points: 5
#     Node 12, Type 0, BuildingBlock: BEQFEK_clean_sbu_0, # of connection points: 5
#     Node 13, Type 0, BuildingBlock: BEQFEK_clean_sbu_0, # of connection points: 5
#     Node 14, Type 0, BuildingBlock: BEQFEK_clean_sbu_0, # of connection points: 5
#     Node 15, Type 0, BuildingBlock: BEQFEK_clean_sbu_0, # of connection points: 5
#     Edge 16, Type (0, 0), BuildingBlock: KIFKEQ_clean_linker_1, # of connection points: 2
#     Edge 17, Type (0, 0), BuildingBlock: KIFKEQ_clean_linker_1, # of connection points: 2
#     Edge 18, Type (0, 0), BuildingBlock: KIFKEQ_clean_linker_1, # of connection points: 2
#     Edge 19, Type (0, 0), BuildingBlock: KIFKEQ_clean_linker_1, # of connection points: 2
#     Edge 20, Type (0, 0), BuildingBlock: KIFKEQ_clean_linker_1, # of connection points: 2
#     Edge 21, Type (0, 0), BuildingBlock: KIFKEQ_clean_linker_1, # of connection points: 2
#     Edge 22, Type (0, 0), BuildingBlock: KIFKEQ_clean_linker_1, # of connection points: 2
#     Edge 23, Type (0, 0), BuildingBlock: KIFKEQ_clean_linker_1, # of connection points: 2
#     Edge 24, Type (0, 0), BuildingBlock: KIFKEQ_clean_linker_1, # of connection points: 2
#     Edge 25, Type (0, 0), BuildingBlock: KIFKEQ_clean_linker_1, # of connection points: 2
#     Edge 26, Type (0, 0), BuildingBlock: KIFKEQ_clean_linker_1, # of connection points: 2
#     Edge 27, Type (0, 0), BuildingBlock: KIFKEQ_clean_linker_1, # of connection points: 2
#     Edge 28, Type (0, 0), BuildingBlock: KIFKEQ_clean_linker_1, # of connection points: 2
#     Edge 29, Type (0, 0), BuildingBlock: KIFKEQ_clean_linker_1, # of connection points: 2
#     Edge 30, Type (0, 0), BuildingBlock: KIFKEQ_clean_linker_1, # of connection points: 2
#     Edge 31, Type (0, 0), BuildingBlock: KIFKEQ_clean_linker_1, # of connection points: 2
#     Edge 32, Type (0, 0), BuildingBlock: KIFKEQ_clean_linker_1, # of connection points: 2
#     Edge 33, Type (0, 0), BuildingBlock: KIFKEQ_clean_linker_1, # of connection points: 2
#     Edge 34, Type (0, 0), BuildingBlock: KIFKEQ_clean_linker_1, # of connection points: 2
#     Edge 35, Type (0, 0), BuildingBlock: KIFKEQ_clean_linker_1, # of connection points: 2
#     Edge 36, Type (0, 0), BuildingBlock: KIFKEQ_clean_linker_1, # of connection points: 2
#     Edge 37, Type (0, 0), BuildingBlock: KIFKEQ_clean_linker_1, # of connection points: 2
#     Edge 38, Type (0, 0), BuildingBlock: KIFKEQ_clean_linker_1, # of connection points: 2
#     Edge 39, Type (0, 0), BuildingBlock: KIFKEQ_clean_linker_1, # of connection points: 2
#     Edge 40, Type (0, 0), BuildingBlock: KIFKEQ_clean_linker_1, # of connection points: 2
#     Edge 41, Type (0, 0), BuildingBlock: KIFKEQ_clean_linker_1, # of connection points: 2
#     Edge 42, Type (0, 0), BuildingBlock: KIFKEQ_clean_linker_1, # of connection points: 2
#     Edge 43, Type (0, 0), BuildingBlock: KIFKEQ_clean_linker_1, # of connection points: 2
#     Edge 44, Type (0, 0), BuildingBlock: KIFKEQ_clean_linker_1, # of connection points: 2
#     Edge 45, Type (0, 0), BuildingBlock: KIFKEQ_clean_linker_1, # of connection points: 2
#     Edge 46, Type (0, 0), BuildingBlock: KIFKEQ_clean_linker_1, # of connection points: 2
#     Edge 47, Type (0, 0), BuildingBlock: KIFKEQ_clean_linker_1, # of connection points: 2
#     Edge 48, Type (0, 0), BuildingBlock: KIFKEQ_clean_linker_1, # of connection points: 2
#     Edge 49, Type (0, 0), BuildingBlock: KIFKEQ_clean_linker_1, # of connection points: 2
#     Edge 50, Type (0, 0), BuildingBlock: KIFKEQ_clean_linker_1, # of connection points: 2
#     Edge 51, Type (0, 0), BuildingBlock: KIFKEQ_clean_linker_1, # of connection points: 2
#     Edge 52, Type (0, 0), BuildingBlock: KIFKEQ_clean_linker_1, # of connection points: 2
#     Edge 53, Type (0, 0), BuildingBlock: KIFKEQ_clean_linker_1, # of connection points: 2
#     Edge 54, Type (0, 0), BuildingBlock: KIFKEQ_clean_linker_1, # of connection points: 2
#     Edge 55, Type (0, 0), BuildingBlock: KIFKEQ_clean_linker_1, # of connection points: 2
# Relax obj value: 0.091
# Max RMSD: 0.134
# Mean RMSD: 0.097
data_MOF--net-cds-f--node1-BEQFEK_clean_sbu_0--edge1-KIFKEQ_clean_linker_1
_symmetry_space_group_name_H-M    P1
_symmetry_Int_Tables_number       1
_symmetry_cell_setting            triclinic
loop_
_symmetry_equiv_pos_as_xyz
'x, y, z'
_cell_length_a     39.47226
_cell_length_b     39.4779
_cell_length_c     62.633857
_cell_angle_alpha  90.089641
_cell_angle_beta   94.332767
_cell_angle_gamma 87.555698
loop_
_atom_site_label
_atom_site_type_symbol
_atom_site_fract_x
_atom_site_fract_y
_atom_site_fract_z
_atom_type_partial_charge
Co0 Co 0.29269 0.30811 0.13992 0.0
Co1 Co 0.21253 0.31506 0.13642 0.0
C2 C 0.2513 0.28294 0.17466 0.0
O3 O 0.27963 0.28715 0.16672 0.0
O4 O 0.22317 0.29251 0.16468 0.0
C5 C 0.36174 0.27598 0.14121 0.0
O6 O 0.34777 0.24687 0.14403 0.0
C7 C 0.13967 0.29856 0.13554 0.0
C8 C 0.11638 0.33869 0.11391 0.0
C9 C 0.10882 0.31077 0.12571 0.0
N10 N 0.16435 0.31828 0.12962 0.0
N11 N 0.15011 0.34242 0.1169 0.0
C12 C 0.14598 0.26774 0.14934 0.0
H13 H 0.17112 0.25551 0.14661 0.0
H14 H 0.12567 0.24941 0.14608 0.0
H15 H 0.14634 0.27548 0.1664 0.0
C16 C 0.27914 0.27854 0.09669 0.0
N17 N 0.26852 0.28987 0.11546 0.0
N18 N 0.23502 0.29235 0.11403 0.0
C19 C 0.22335 0.28229 0.09431 0.0
C20 C 0.25092 0.27347 0.08257 0.0
C21 C 0.31574 0.27495 0.09197 0.0
H22 H 0.32825 0.29922 0.09537 0.0
H23 H 0.32867 0.25523 0.10259 0.0
H24 H 0.31882 0.26724 0.07517 0.0
O25 O 0.28302 0.35771 0.1406 0.0
O26 O 0.22669 0.3626 0.13861 0.0
H27 H 0.17973 0.31346 0.08396 0.0
H28 H 0.1821 0.27368 0.07016 0.0
C29 C 0.18687 0.28612 0.08589 0.0
H30 H 0.17051 0.27499 0.09741 0.0
H31 H 0.16356 0.36123 0.11 0.0
O32 O 0.34304 0.30295 0.13886 0.0
C33 C 0.25557 0.37591 0.14 0.0
Co34 Co 0.67002 0.28738 0.62808 0.0
Co35 Co 0.66691 0.20795 0.62809 0.0
C36 C 0.69578 0.24368 0.66629 0.0
O37 O 0.69015 0.27195 0.65658 0.0
O38 O 0.68827 0.21581 0.6572 0.0
C39 C 0.70554 0.35037 0.62657 0.0
O40 O 0.73359 0.33117 0.62686 0.0
C41 C 0.67838 0.13245 0.63013 0.0
C42 C 0.63948 0.11803 0.60488 0.0
C43 C 0.6643 0.10466 0.61965 0.0
N44 N 0.66267 0.16087 0.62168 0.0
N45 N 0.63948 0.15192 0.60664 0.0
C46 C 0.70474 0.13204 0.64861 0.0
H47 H 0.73007 0.13514 0.64248 0.0
H48 H 0.70516 0.10785 0.65764 0.0
H49 H 0.6997 0.15329 0.65962 0.0
C50 C 0.702 0.27199 0.58721 0.0
N51 N 0.68957 0.26259 0.60568 0.0
N52 N 0.69053 0.22925 0.60677 0.0
C53 C 0.70481 0.21645 0.58947 0.0
C54 C 0.71222 0.24303 0.57632 0.0
C55 C 0.69968 0.30755 0.57878 0.0
H56 H 0.67882 0.32236 0.58584 0.0
H57 H 0.72404 0.31979 0.58304 0.0
H58 H 0.69511 0.3078 0.56108 0.0
O59 O 0.62041 0.28197 0.6267 0.0
O60 O 0.61905 0.22591 0.62683 0.0
H61 H 0.6874 0.1683 0.57879 0.0
H62 H 0.73115 0.17506 0.57418 0.0
C63 C 0.71121 0.17939 0.58558 0.0
H64 H 0.7194 0.16636 0.60089 0.0
H65 H 0.62345 0.16909 0.59762 0.0
O66 O 0.67695 0.33671 0.62646 0.0
C67 C 0.60386 0.25501 0.62635 0.0
Co68 Co 0.73328 0.69959 0.12726 0.0
Co69 Co 0.81283 0.69205 0.12905 0.0
C70 C 0.77793 0.72236 0.16547 0.0
O71 O 0.74913 0.71878 0.15527 0.0
O72 O 0.80553 0.71321 0.15734 0.0
C73 C 0.66563 0.7294 0.13224 0.0
O74 O 0.68082 0.75075 0.1455 0.0
C75 C 0.88595 0.70707 0.13133 0.0
C76 C 0.90536 0.66643 0.11059 0.0
C77 C 0.91517 0.69436 0.12256 0.0
N78 N 0.86006 0.68761 0.12466 0.0
N79 N 0.87198 0.66318 0.11248 0.0
C80 C 0.88189 0.73862 0.1443 0.0
H81 H 0.85564 0.74977 0.14147 0.0
H82 H 0.90054 0.75745 0.1403 0.0
H83 H 0.88634 0.7321 0.16153 0.0
C84 C 0.74366 0.72903 0.08508 0.0
N85 N 0.75568 0.71791 0.10464 0.0
N86 N 0.78912 0.71647 0.1058 0.0
C87 C 0.79947 0.72763 0.08713 0.0
C88 C 0.77109 0.73549 0.0732 0.0
C89 C 0.70696 0.72811 0.07715 0.0
H90 H 0.6965 0.70391 0.08206 0.0
H91 H 0.69254 0.74909 0.08468 0.0
H92 H 0.70318 0.73058 0.0595 0.0
O93 O 0.74121 0.65 0.12824 0.0
O94 O 0.79745 0.64465 0.12914 0.0
H95 H 0.84619 0.70327 0.07907 0.0
H96 H 0.83854 0.74532 0.06801 0.0
C97 C 0.8359 0.72921 0.08224 0.0
H98 H 0.85094 0.7398 0.09613 0.0
H99 H 0.85707 0.64471 0.10503 0.0
O100 O 0.68339 0.70731 0.12274 0.0
C101 C 0.76848 0.63156 0.12886 0.0
Co102 Co 0.28858 0.80201 0.61688 0.0
Co103 Co 0.29215 0.72269 0.6205 0.0
C104 C 0.2658 0.7577 0.57986 0.0
O105 O 0.27009 0.78678 0.58826 0.0
O106 O 0.27283 0.73056 0.59061 0.0
C107 C 0.25973 0.87021 0.60856 0.0
O108 O 0.23757 0.85594 0.59506 0.0
C109 C 0.27431 0.65056 0.61961 0.0
C110 C 0.31284 0.62902 0.64385 0.0
C111 C 0.28569 0.62052 0.62985 0.0
N112 N 0.29387 0.67556 0.62731 0.0
N113 N 0.31695 0.66243 0.64168 0.0
C114 C 0.2443 0.65603 0.60377 0.0
H115 H 0.23302 0.68206 0.60537 0.0
H116 H 0.22484 0.63715 0.60606 0.0
H117 H 0.25282 0.65323 0.58735 0.0
C118 C 0.25558 0.79464 0.6574 0.0
N119 N 0.26779 0.78132 0.63957 0.0
N120 N 0.26806 0.74805 0.64078 0.0
C121 C 0.25534 0.73918 0.65927 0.0
C122 C 0.24722 0.76842 0.67051 0.0
C123 C 0.2548 0.83167 0.66258 0.0
H124 H 0.23864 0.84565 0.64998 0.0
H125 H 0.24454 0.83685 0.67833 0.0
H126 H 0.28089 0.84111 0.66261 0.0
O127 O 0.33823 0.79154 0.6193 0.0
O128 O 0.34028 0.7355 0.62223 0.0
H129 H 0.28206 0.69486 0.67229 0.0
H130 H 0.24021 0.70163 0.68149 0.0
C131 C 0.25552 0.70357 0.66745 0.0
H132 H 0.2452 0.68672 0.6546 0.0
H133 H 0.33539 0.67639 0.65013 0.0
O134 O 0.28255 0.85186 0.61894 0.0
C135 C 0.35513 0.7634 0.62136 0.0
Co136 Co 0.20609 0.70435 0.88416 0.0
Co137 Co 0.28508 0.69719 0.88206 0.0
C138 C 0.2537 0.72607 0.92074 0.0
O139 O 0.22371 0.72309 0.91205 0.0
O140 O 0.2798 0.71716 0.9109 0.0
C141 C 0.13724 0.732 0.88978 0.0
O142 O 0.15088 0.75431 0.90304 0.0
C143 C 0.35921 0.71 0.88164 0.0
C144 C 0.37504 0.66566 0.86262 0.0
C145 C 0.38738 0.69369 0.87345 0.0
N146 N 0.33161 0.69224 0.87581 0.0
N147 N 0.34137 0.66591 0.86439 0.0
C148 C 0.35868 0.74084 0.89554 0.0
H149 H 0.33569 0.74219 0.90463 0.0
H150 H 0.35825 0.76375 0.88527 0.0
H151 H 0.38179 0.74084 0.90679 0.0
C152 C 0.21176 0.73743 0.84225 0.0
N153 N 0.22588 0.72401 0.86075 0.0
N154 N 0.25914 0.72199 0.86008 0.0
C155 C 0.26726 0.73453 0.8412 0.0
C156 C 0.23748 0.74462 0.82922 0.0
C157 C 0.17426 0.74106 0.83665 0.0
H158 H 0.1623 0.75658 0.84904 0.0
H159 H 0.16834 0.75327 0.82078 0.0
H160 H 0.16325 0.71565 0.83661 0.0
O161 O 0.21455 0.65459 0.88448 0.0
O162 O 0.27027 0.64996 0.88239 0.0
H163 H 0.31042 0.70569 0.83147 0.0
H164 H 0.30378 0.74625 0.81835 0.0
C165 C 0.3024 0.73264 0.8337 0.0
H166 H 0.32031 0.74371 0.84603 0.0
H167 H 0.32501 0.64781 0.85797 0.0
O168 O 0.15625 0.7106 0.88066 0.0
C169 C 0.2418 0.63648 0.88352 0.0
Co170 Co 0.31456 0.29015 0.36875 0.0
Co171 Co 0.3229 0.21095 0.37038 0.0
C172 C 0.29 0.24689 0.33165 0.0
O173 O 0.29409 0.27567 0.34052 0.0
O174 O 0.29967 0.21933 0.34134 0.0
C175 C 0.29005 0.36011 0.36007 0.0
O176 O 0.27253 0.34841 0.34318 0.0
C177 C 0.3075 0.13821 0.3709 0.0
C178 C 0.35196 0.11768 0.39113 0.0
C179 C 0.32203 0.10851 0.3801 0.0
N180 N 0.32792 0.16371 0.37642 0.0
N181 N 0.35455 0.15116 0.38835 0.0
C182 C 0.27393 0.14292 0.3583 0.0
H183 H 0.26325 0.16907 0.36045 0.0
H184 H 0.25584 0.12419 0.36325 0.0
H185 H 0.27766 0.13916 0.34106 0.0
C186 C 0.28169 0.27865 0.40874 0.0
N187 N 0.29596 0.26699 0.39118 0.0
N188 N 0.29985 0.23378 0.39231 0.0
C189 C 0.28857 0.22324 0.41091 0.0
C190 C 0.27672 0.25141 0.42201 0.0
C191 C 0.27392 0.31542 0.41288 0.0
H192 H 0.26077 0.32727 0.39832 0.0
H193 H 0.25755 0.31902 0.42642 0.0
H194 H 0.29808 0.32839 0.41651 0.0
O195 O 0.36469 0.28211 0.37015 0.0
O196 O 0.36992 0.22604 0.3703 0.0
H197 H 0.28434 0.18456 0.43519 0.0
H198 H 0.27956 0.17039 0.40773 0.0
C199 C 0.29338 0.18757 0.41902 0.0
H200 H 0.32078 0.17993 0.41976 0.0
H201 H 0.37428 0.16563 0.39488 0.0
O202 O 0.30792 0.33966 0.37237 0.0
C203 C 0.3831 0.25486 0.3704 0.0
Co204 Co 0.7721 0.30386 0.88106 0.0
Co205 Co 0.69271 0.30993 0.87908 0.0
C206 C 0.73338 0.28073 0.91749 0.0
O207 O 0.76112 0.28488 0.90885 0.0
O208 O 0.70468 0.289 0.90772 0.0
C209 C 0.84133 0.27471 0.8869 0.0
O210 O 0.82965 0.25243 0.89975 0.0
C211 C 0.61909 0.29913 0.88126 0.0
C212 C 0.59764 0.33683 0.85729 0.0
C213 C 0.58864 0.31291 0.87172 0.0
N214 N 0.64479 0.31417 0.87263 0.0
N215 N 0.63175 0.33661 0.85833 0.0
C216 C 0.62411 0.27514 0.8998 0.0
H217 H 0.63981 0.25266 0.89523 0.0
H218 H 0.59975 0.26706 0.90539 0.0
H219 H 0.63836 0.28785 0.91324 0.0
C220 C 0.75699 0.27153 0.83902 0.0
N221 N 0.74708 0.2841 0.85767 0.0
N222 N 0.71367 0.28559 0.85705 0.0
C223 C 0.70126 0.27339 0.83807 0.0
C224 C 0.72822 0.26442 0.82589 0.0
C225 C 0.79295 0.27129 0.83291 0.0
H226 H 0.80328 0.29673 0.83581 0.0
H227 H 0.80864 0.25289 0.84321 0.0
H228 H 0.79502 0.26435 0.81588 0.0
O229 O 0.76331 0.35353 0.8812 0.0
O230 O 0.70704 0.35744 0.87954 0.0
H231 H 0.65456 0.29792 0.82581 0.0
H232 H 0.66 0.25448 0.81745 0.0
C233 C 0.66424 0.27226 0.83105 0.0
H234 H 0.64986 0.26413 0.84454 0.0
H235 H 0.64622 0.35222 0.84952 0.0
O236 O 0.82112 0.29712 0.87787 0.0
C237 C 0.7356 0.3713 0.88043 0.0
Co238 Co 0.71705 0.78663 0.37509 0.0
Co239 Co 0.71788 0.70705 0.37516 0.0
C240 C 0.74232 0.74447 0.41403 0.0
O241 O 0.73546 0.77257 0.40429 0.0
O242 O 0.73774 0.71619 0.40459 0.0
C243 C 0.74242 0.85413 0.38231 0.0
O244 O 0.76437 0.83971 0.39667 0.0
C245 C 0.7344 0.63286 0.37848 0.0
C246 C 0.70102 0.61457 0.35133 0.0
C247 C 0.72489 0.60379 0.36746 0.0
N248 N 0.71705 0.65965 0.36911 0.0
N249 N 0.69694 0.64841 0.35304 0.0
C250 C 0.76055 0.63548 0.3969 0.0
H251 H 0.77453 0.65908 0.39552 0.0
H252 H 0.7787 0.61318 0.39757 0.0
H253 H 0.74758 0.63674 0.41201 0.0
C254 C 0.75133 0.77402 0.33541 0.0
N255 N 0.73932 0.76298 0.35361 0.0
N256 N 0.7408 0.72963 0.35388 0.0
C257 C 0.75457 0.71844 0.33597 0.0
C258 C 0.7613 0.74611 0.32352 0.0
C259 C 0.74849 0.8103 0.32832 0.0
H260 H 0.72209 0.82046 0.3297 0.0
H261 H 0.76561 0.82537 0.33911 0.0
H262 H 0.75531 0.81333 0.3116 0.0
O263 O 0.66787 0.77847 0.3723 0.0
O264 O 0.66913 0.72232 0.37386 0.0
H265 H 0.73501 0.6725 0.32303 0.0
H266 H 0.77855 0.67873 0.31798 0.0
C267 C 0.75945 0.68193 0.33004 0.0
H268 H 0.768 0.66668 0.34444 0.0
H269 H 0.68063 0.664 0.34308 0.0
O270 O 0.72121 0.83607 0.37171 0.0
C271 C 0.65262 0.75075 0.3726 0.0
Co272 Co 0.70648 0.69484 0.87754 0.0
Co273 Co 0.78558 0.68763 0.87667 0.0
C274 C 0.75317 0.71964 0.91384 0.0
O275 O 0.72348 0.7155 0.90504 0.0
O276 O 0.77961 0.71028 0.90452 0.0
C277 C 0.6393 0.72552 0.88279 0.0
O278 O 0.65485 0.74713 0.8957 0.0
C279 C 0.85846 0.70228 0.8789 0.0
C280 C 0.87848 0.65966 0.85991 0.0
C281 C 0.88821 0.6878 0.87169 0.0
N282 N 0.83245 0.6835 0.87155 0.0
N283 N 0.84459 0.65819 0.86017 0.0
C284 C 0.85472 0.73098 0.89429 0.0
H285 H 0.83312 0.74826 0.88841 0.0
H286 H 0.87818 0.74527 0.89694 0.0
H287 H 0.84861 0.72052 0.90989 0.0
C288 C 0.71344 0.72202 0.83419 0.0
N289 N 0.72706 0.71221 0.85369 0.0
N290 N 0.76039 0.71022 0.85355 0.0
C291 C 0.76908 0.71925 0.83403 0.0
C292 C 0.73967 0.72664 0.82099 0.0
C293 C 0.67618 0.72148 0.82764 0.0
H294 H 0.66255 0.74156 0.83648 0.0
H295 H 0.67062 0.72551 0.8102 0.0
H296 H 0.66642 0.69674 0.83214 0.0
O297 O 0.7149 0.64502 0.87914 0.0
O298 O 0.77094 0.64042 0.87808 0.0
H299 H 0.81356 0.69194 0.82487 0.0
H300 H 0.80645 0.7331 0.81246 0.0
C301 C 0.80478 0.71857 0.82747 0.0
H302 H 0.82175 0.72963 0.84031 0.0
H303 H 0.82973 0.63958 0.85285 0.0
O304 O 0.65664 0.70258 0.87372 0.0
C305 C 0.74238 0.62695 0.87901 0.0
Co306 Co 0.32912 0.79084 0.37077 0.0
Co307 Co 0.33446 0.71126 0.37163 0.0
C308 C 0.30691 0.74884 0.33238 0.0
O309 O 0.31067 0.77752 0.34148 0.0
O310 O 0.31469 0.72122 0.3424 0.0
C311 C 0.29669 0.85817 0.36572 0.0
O312 O 0.27261 0.84348 0.35392 0.0
C313 C 0.32052 0.63737 0.36961 0.0
C314 C 0.36166 0.61779 0.3928 0.0
C315 C 0.3347 0.60771 0.37918 0.0
N316 N 0.33827 0.66365 0.37745 0.0
N317 N 0.36276 0.65164 0.39129 0.0
C318 C 0.29166 0.64057 0.35272 0.0
H319 H 0.29337 0.66368 0.34301 0.0
H320 H 0.26734 0.64238 0.36054 0.0
H321 H 0.29146 0.6181 0.34205 0.0
C322 C 0.29532 0.77861 0.41077 0.0
N323 N 0.30888 0.76755 0.39276 0.0
N324 N 0.30986 0.73421 0.39256 0.0
C325 C 0.29611 0.72298 0.41013 0.0
C326 C 0.28676 0.75066 0.42246 0.0
C327 C 0.29487 0.81489 0.41779 0.0
H328 H 0.31911 0.82629 0.41442 0.0
H329 H 0.27389 0.82915 0.40848 0.0
H330 H 0.29125 0.81751 0.4351 0.0
O331 O 0.37911 0.78181 0.37316 0.0
O332 O 0.38201 0.72561 0.37313 0.0
H333 H 0.31758 0.67491 0.42107 0.0
H334 H 0.27418 0.68312 0.42756 0.0
C335 C 0.29246 0.68633 0.41518 0.0
H336 H 0.28337 0.67274 0.40049 0.0
H337 H 0.38039 0.66664 0.39966 0.0
O338 O 0.32179 0.84033 0.37407 0.0
C339 C 0.39642 0.75384 0.37361 0.0
Co340 Co 0.27168 0.31348 0.88585 0.0
Co341 Co 0.19229 0.3196 0.88509 0.0
C342 C 0.23461 0.29021 0.92289 0.0
O343 O 0.26182 0.29442 0.9137 0.0
O344 O 0.20555 0.29851 0.91364 0.0
C345 C 0.3411 0.28535 0.89185 0.0
O346 O 0.32991 0.26495 0.90604 0.0
C347 C 0.11912 0.3038 0.88492 0.0
C348 C 0.0961 0.34984 0.86871 0.0
C349 C 0.08808 0.31973 0.87805 0.0
N350 N 0.14414 0.32375 0.87979 0.0
N351 N 0.1301 0.3511 0.87004 0.0
C352 C 0.12501 0.27106 0.89689 0.0
H353 H 0.15068 0.26945 0.90534 0.0
H354 H 0.12318 0.24975 0.88536 0.0
H355 H 0.10546 0.26833 0.90855 0.0
C356 C 0.25497 0.28324 0.84361 0.0
N357 N 0.24561 0.29414 0.86273 0.0
N358 N 0.21221 0.29622 0.86227 0.0
C359 C 0.19929 0.28655 0.84275 0.0
C360 C 0.22599 0.27818 0.83022 0.0
C361 C 0.29093 0.28179 0.83748 0.0
H362 H 0.30682 0.26551 0.84904 0.0
H363 H 0.2929 0.27144 0.82111 0.0
H364 H 0.30095 0.30764 0.8383 0.0
O365 O 0.26296 0.36316 0.88626 0.0
O366 O 0.20673 0.36706 0.88559 0.0
H367 H 0.15485 0.31797 0.83451 0.0
H368 H 0.15743 0.27952 0.81896 0.0
C369 C 0.1625 0.29061 0.83512 0.0
H370 H 0.14692 0.27805 0.84654 0.0
H371 H 0.14379 0.37085 0.86444 0.0
O372 O 0.32057 0.30659 0.88192 0.0
C373 C 0.23528 0.38091 0.88602 0.0
Co374 Co 0.70503 0.28983 0.38147 0.0
Co375 Co 0.70361 0.21028 0.37941 0.0
C376 C 0.72986 0.24402 0.41897 0.0
O377 O 0.7235 0.27288 0.41014 0.0
O378 O 0.7243 0.2167 0.40871 0.0
C379 C 0.74155 0.35193 0.38153 0.0
O380 O 0.76889 0.33185 0.38105 0.0
C381 C 0.71785 0.13503 0.37885 0.0
C382 C 0.67498 0.12056 0.35642 0.0
C383 C 0.70264 0.10722 0.36905 0.0
N384 N 0.6999 0.16337 0.37216 0.0
N385 N 0.67444 0.15438 0.35872 0.0
C386 C 0.74781 0.13458 0.39499 0.0
H387 H 0.74789 0.15796 0.40472 0.0
H388 H 0.77149 0.13308 0.38648 0.0
H389 H 0.74772 0.11215 0.40565 0.0
C390 C 0.73516 0.27799 0.33983 0.0
N391 N 0.72524 0.26678 0.35861 0.0
N392 N 0.72649 0.2334 0.35853 0.0
C393 C 0.73838 0.22235 0.34004 0.0
C394 C 0.74393 0.25018 0.32743 0.0
C395 C 0.73054 0.31408 0.33245 0.0
H396 H 0.70985 0.3273 0.34063 0.0
H397 H 0.75454 0.3272 0.33632 0.0
H398 H 0.72439 0.31558 0.31489 0.0
O399 O 0.65539 0.28402 0.37867 0.0
O400 O 0.65564 0.22781 0.37878 0.0
H401 H 0.71753 0.17593 0.32882 0.0
H402 H 0.75976 0.18247 0.32086 0.0
C403 C 0.7427 0.18579 0.33408 0.0
H404 H 0.75353 0.17093 0.34816 0.0
H405 H 0.65639 0.17143 0.35126 0.0
O406 O 0.71249 0.3392 0.3813 0.0
C407 C 0.63965 0.25653 0.37825 0.0
Co408 Co 0.79253 0.30936 0.13329 0.0
Co409 Co 0.71231 0.31479 0.13065 0.0
C410 C 0.7522 0.28685 0.16944 0.0
O411 O 0.78016 0.29047 0.16095 0.0
O412 O 0.72378 0.29523 0.15946 0.0
C413 C 0.85995 0.27528 0.13043 0.0
O414 O 0.84419 0.24688 0.12716 0.0
C415 C 0.63934 0.30003 0.13281 0.0
C416 C 0.61541 0.33409 0.10752 0.0
C417 C 0.60819 0.31022 0.1225 0.0
N418 N 0.66389 0.31705 0.12423 0.0
N419 N 0.64928 0.33756 0.10926 0.0
C420 C 0.64588 0.27343 0.14975 0.0
H421 H 0.67032 0.25934 0.14764 0.0
H422 H 0.62493 0.2555 0.14928 0.0
H423 H 0.64773 0.2859 0.16566 0.0
C424 C 0.77708 0.27966 0.08987 0.0
N425 N 0.76781 0.29013 0.1092 0.0
N426 N 0.73445 0.28974 0.10924 0.0
C427 C 0.72173 0.27729 0.09042 0.0
C428 C 0.74813 0.27112 0.0773 0.0
C429 C 0.8118 0.28355 0.08232 0.0
H430 H 0.82534 0.30335 0.09169 0.0
H431 H 0.82656 0.25907 0.08436 0.0
H432 H 0.81027 0.29046 0.06509 0.0
O433 O 0.78293 0.35866 0.13331 0.0
O434 O 0.72649 0.36274 0.13051 0.0
H435 H 0.67217 0.2966 0.07912 0.0
H436 H 0.68131 0.2533 0.07174 0.0
C437 C 0.68477 0.27227 0.08474 0.0
H438 H 0.67251 0.26351 0.09896 0.0
H439 H 0.66254 0.35373 0.10006 0.0
O440 O 0.8428 0.30287 0.13274 0.0
C441 C 0.75522 0.37647 0.13187 0.0
Co442 Co 0.67769 0.78398 0.62322 0.0
Co443 Co 0.67365 0.70487 0.61984 0.0
C444 C 0.70018 0.73864 0.66039 0.0
O445 O 0.69594 0.76788 0.65178 0.0
O446 O 0.69291 0.71183 0.64989 0.0
C447 C 0.70137 0.85144 0.63337 0.0
O448 O 0.7206 0.8368 0.64904 0.0
C449 C 0.69087 0.63104 0.62175 0.0
C450 C 0.65525 0.61264 0.59578 0.0
C451 C 0.6807 0.60198 0.61099 0.0
N452 N 0.67236 0.65772 0.61314 0.0
N453 N 0.65094 0.64644 0.59777 0.0
C454 C 0.71861 0.63377 0.6392 0.0
H455 H 0.73163 0.6579 0.63762 0.0
H456 H 0.73731 0.61201 0.63882 0.0
H457 H 0.70728 0.63391 0.65489 0.0
C458 C 0.71512 0.77296 0.58449 0.0
N459 N 0.69976 0.76105 0.60123 0.0
N460 N 0.69832 0.72791 0.59965 0.0
C461 C 0.71272 0.71766 0.58172 0.0
C462 C 0.72371 0.74596 0.5714 0.0
C463 C 0.72029 0.80977 0.58079 0.0
H464 H 0.73242 0.82095 0.59556 0.0
H465 H 0.73659 0.81365 0.56741 0.0
H466 H 0.69521 0.82317 0.57723 0.0
O467 O 0.62809 0.7773 0.62047 0.0
O468 O 0.62549 0.72148 0.61775 0.0
H469 H 0.68505 0.67655 0.56823 0.0
H470 H 0.72703 0.67834 0.55931 0.0
C471 C 0.71173 0.68219 0.57327 0.0
H472 H 0.72129 0.66412 0.58608 0.0
H473 H 0.6335 0.66193 0.58851 0.0
O474 O 0.68252 0.83351 0.62096 0.0
C475 C 0.61092 0.75079 0.61843 0.0
Co476 Co 0.23358 0.69982 0.13536 0.0
Co477 Co 0.31317 0.69044 0.13673 0.0
C478 C 0.27909 0.72217 0.17319 0.0
O479 O 0.24968 0.71912 0.16364 0.0
O480 O 0.30596 0.7125 0.16443 0.0
C481 C 0.16563 0.7301 0.13989 0.0
O482 O 0.18009 0.75035 0.15418 0.0
C483 C 0.38752 0.70269 0.13775 0.0
C484 C 0.40485 0.65657 0.12096 0.0
C485 C 0.41631 0.686 0.13056 0.0
N486 N 0.36042 0.68396 0.13237 0.0
N487 N 0.3711 0.65646 0.1224 0.0
C488 C 0.3858 0.73516 0.15005 0.0
H489 H 0.36312 0.73654 0.15942 0.0
H490 H 0.38382 0.75676 0.13865 0.0
H491 H 0.40908 0.73757 0.16095 0.0
C492 C 0.24459 0.72851 0.09289 0.0
N493 N 0.25646 0.7172 0.11245 0.0
N494 N 0.28986 0.71436 0.11332 0.0
C495 C 0.30037 0.72457 0.09449 0.0
C496 C 0.27209 0.73348 0.08074 0.0
C497 C 0.2077 0.72925 0.08522 0.0
H498 H 0.19662 0.70499 0.08941 0.0
H499 H 0.19408 0.7499 0.09358 0.0
H500 H 0.20361 0.73323 0.06769 0.0
O501 O 0.24039 0.64987 0.13635 0.0
O502 O 0.29662 0.64385 0.13806 0.0
H503 H 0.34625 0.69764 0.08728 0.0
H504 H 0.33998 0.73874 0.07456 0.0
C505 C 0.33681 0.72421 0.08937 0.0
H506 H 0.35229 0.73558 0.1028 0.0
H507 H 0.35525 0.63756 0.1165 0.0
O508 O 0.18387 0.70848 0.13034 0.0
C509 C 0.2675 0.63113 0.13764 0.0
Co510 Co 0.28062 0.30224 0.61753 0.0
Co511 Co 0.28473 0.22286 0.62068 0.0
C512 C 0.25934 0.25832 0.58 0.0
O513 O 0.26329 0.28721 0.58875 0.0
O514 O 0.2662 0.23092 0.59052 0.0
C515 C 0.2537 0.37149 0.6089 0.0
O516 O 0.23229 0.35837 0.59441 0.0
C517 C 0.26833 0.15026 0.61947 0.0
C518 C 0.30663 0.12964 0.64417 0.0
C519 C 0.28014 0.12047 0.62986 0.0
N520 N 0.28702 0.17575 0.6274 0.0
N521 N 0.30995 0.16316 0.64205 0.0
C522 C 0.23878 0.15501 0.60321 0.0
H523 H 0.22688 0.18082 0.60457 0.0
H524 H 0.21965 0.1357 0.60526 0.0
H525 H 0.24798 0.15232 0.58695 0.0
C526 C 0.24604 0.29412 0.65724 0.0
N527 N 0.2589 0.28102 0.63957 0.0
N528 N 0.25973 0.24772 0.64079 0.0
C529 C 0.24701 0.23863 0.65926 0.0
C530 C 0.23821 0.26776 0.67041 0.0
C531 C 0.24446 0.33119 0.66232 0.0
H532 H 0.22961 0.34505 0.6491 0.0
H533 H 0.23237 0.33638 0.67748 0.0
H534 H 0.27057 0.34075 0.66354 0.0
O535 O 0.33026 0.2921 0.62078 0.0
O536 O 0.33271 0.23604 0.62329 0.0
H537 H 0.27486 0.19525 0.6727 0.0
H538 H 0.23263 0.20078 0.6815 0.0
C539 C 0.24817 0.20307 0.66759 0.0
H540 H 0.23867 0.18576 0.65477 0.0
H541 H 0.3278 0.17757 0.6507 0.0
O542 O 0.27492 0.35214 0.61984 0.0
C543 C 0.34735 0.26411 0.62297 0.0
H544 H 0.90352 0.2321 0.11046 0.0
H545 H 0.90095 0.31957 0.1519 0.0
H546 H 0.96549 0.23546 0.1101 0.0
H547 H 0.96273 0.32222 0.15199 0.0
H548 H 0.07806 0.29444 0.16175 0.0
H549 H 0.01816 0.28133 0.16404 0.0
H550 H 0.00209 0.28654 0.0952 0.0
H551 H 0.0616 0.30047 0.09294 0.0
C552 C 0.91624 0.25169 0.11971 0.0
C553 C 0.89746 0.27567 0.13112 0.0
C554 C 0.95158 0.25361 0.11947 0.0
C555 C 0.96875 0.27896 0.13113 0.0
C556 C 0.95009 0.30224 0.14306 0.0
C557 C 0.91476 0.30085 0.14287 0.0
C558 C 0.06185 0.29205 0.14713 0.0
C559 C 0.07434 0.29825 0.12716 0.0
C560 C 0.02765 0.28477 0.14844 0.0
C561 C 0.00568 0.28285 0.12978 0.0
C562 C 0.01861 0.28756 0.10978 0.0
C563 C 0.05253 0.29564 0.10851 0.0
H564 H 0.72645 0.07138 0.62905 0.0
H565 H 0.61921 0.05495 0.61712 0.0
H566 H 0.73785 0.01011 0.63259 0.0
H567 H 0.63055 0.99407 0.62044 0.0
H568 H 0.66511 0.88863 0.60221 0.0
H569 H 0.65845 0.94996 0.59936 0.0
H570 H 0.7267 0.9605 0.65597 0.0
H571 H 0.73375 0.89873 0.65878 0.0
C572 C 0.70527 0.05479 0.62766 0.0
C573 C 0.67186 0.06798 0.62314 0.0
C574 C 0.71182 0.01972 0.62953 0.0
C575 C 0.68512 0.9973 0.62665 0.0
C576 C 0.65174 0.01065 0.62239 0.0
C577 C 0.64523 0.04553 0.62058 0.0
C578 C 0.67889 0.90392 0.61402 0.0
C579 C 0.69969 0.88876 0.63086 0.0
C580 C 0.67493 0.93911 0.61243 0.0
C581 C 0.69168 0.96003 0.62762 0.0
C582 C 0.71353 0.94499 0.64401 0.0
C583 C 0.71746 0.90964 0.64565 0.0
H584 H 0.95732 0.69931 0.09077 0.0
H585 H 0.95145 0.71717 0.1584 0.0
H586 H 0.01681 0.71378 0.09376 0.0
H587 H 0.01151 0.73063 0.16167 0.0
H588 H 0.11767 0.77071 0.15834 0.0
H589 H 0.05581 0.76784 0.15322 0.0
H590 H 0.06754 0.68583 0.10821 0.0
H591 H 0.12872 0.68942 0.11275 0.0
C592 C 0.9688 0.7066 0.10627 0.0
C593 C 0.94986 0.70715 0.12435 0.0
C594 C 0.00293 0.71471 0.10803 0.0
C595 C 0.01916 0.72289 0.12802 0.0
C596 C -0.00023 0.72479 0.14599 0.0
C597 C 0.96536 0.71708 0.14415 0.0
C598 C 0.10694 0.75237 0.14717 0.0
C599 C 0.12815 0.73026 0.13599 0.0
C600 C 0.07151 0.75058 0.14435 0.0
C601 C 0.05662 0.72664 0.13028 0.0
C602 C 0.07797 0.70503 0.11887 0.0
C603 C 0.1132 0.70691 0.12161 0.0
H604 H 0.21689 0.91832 0.58788 0.0
H605 H 0.29988 0.90619 0.63675 0.0
H606 H 0.21615 0.97977 0.59327 0.0
H607 H 0.29957 0.96711 0.64177 0.0
H608 H 0.27548 0.07315 0.6605 0.0
H609 H 0.2656 0.01305 0.65567 0.0
H610 H 0.25208 0.02796 0.58717 0.0
H611 H 0.26151 0.08834 0.59211 0.0
C612 C 0.23491 0.92872 0.59976 0.0
C613 C 0.25847 0.90736 0.61186 0.0
C614 C 0.23457 0.9639 0.60278 0.0
C615 C 0.25765 0.97832 0.61803 0.0
C616 C 0.28099 0.95684 0.63017 0.0
C617 C 0.28137 0.92185 0.62715 0.0
C618 C 0.26984 0.06365 0.64444 0.0
C619 C 0.26912 0.08541 0.6267 0.0
C620 C 0.26436 0.02922 0.64165 0.0
C621 C 0.25851 0.01563 0.62102 0.0
C622 C 0.2562 0.03769 0.60329 0.0
C623 C 0.26149 0.07232 0.60611 0.0
H624 H 0.91452 0.75095 0.86961 0.0
H625 H 0.9421 0.64567 0.88291 0.0
H626 H 0.97462 0.76476 0.87469 0.0
H627 H 0.00186 0.65926 0.88751 0.0
H628 H 0.10267 0.68722 0.86438 0.0
H629 H 0.0419 0.67929 0.86095 0.0
H630 H 0.02589 0.76301 0.90396 0.0
H631 H 0.08735 0.77116 0.90756 0.0
C632 C 0.93331 0.73098 0.87418 0.0
C633 C 0.92372 0.69735 0.87629 0.0
C634 C 0.96763 0.73883 0.87691 0.0
C635 C 0.99278 0.71304 0.88138 0.0
C636 C 0.98299 0.67957 0.88383 0.0
C637 C 0.94885 0.67181 0.88125 0.0
C638 C 0.08634 0.70415 0.87308 0.0
C639 C 0.09993 0.72961 0.88646 0.0
C640 C 0.05151 0.69947 0.87115 0.0
C641 C 0.02934 0.72021 0.88244 0.0
C642 C 0.04255 0.74666 0.89512 0.0
C643 C 0.07765 0.75124 0.89721 0.0
H644 H 0.34185 0.89502 0.38994 0.0
H645 H 0.24923 0.9055 0.3486 0.0
H646 H 0.34239 0.95603 0.39395 0.0
H647 H 0.24936 0.96711 0.35308 0.0
H648 H 0.29335 0.07526 0.34518 0.0
H649 H 0.28239 0.01484 0.34261 0.0
H650 H 0.31323 0.00284 0.40995 0.0
H651 H 0.32486 0.06285 0.41231 0.0
C652 C 0.32136 0.91034 0.38186 0.0
C653 C 0.29555 0.89535 0.36888 0.0
C654 C 0.32151 0.94541 0.38431 0.0
C655 C 0.29578 0.9665 0.37396 0.0
C656 C 0.26966 0.95156 0.36116 0.0
C657 C 0.26951 0.91629 0.35868 0.0
C658 C 0.29689 0.05983 0.35951 0.0
C659 C 0.30997 0.07363 0.37894 0.0
C660 C 0.29068 0.02521 0.35805 0.0
C661 C 0.29739 0.00392 0.37602 0.0
C662 C 0.30854 0.01835 0.3957 0.0
C663 C 0.31503 0.05273 0.39709 0.0
H664 H 0.89408 0.23714 0.90768 0.0
H665 H 0.87177 0.31536 0.8598 0.0
H666 H 0.95509 0.24488 0.90566 0.0
H667 H 0.93218 0.32283 0.85785 0.0
H668 H 0.0336 0.36141 0.88381 0.0
H669 H 0.97467 0.34686 0.88534 0.0
H670 H 0.00341 0.24076 0.87921 0.0
H671 H 0.06272 0.25534 0.87716 0.0
C672 C 0.90214 0.25561 0.89656 0.0
C673 C 0.8781 0.27602 0.88416 0.0
C674 C 0.937 0.25994 0.89538 0.0
C675 C 0.94819 0.28483 0.88186 0.0
C676 C 0.92417 0.30393 0.86872 0.0
C677 C 0.88956 0.29956 0.86982 0.0
C678 C 0.02749 0.33492 0.88284 0.0
C679 C 0.05297 0.30954 0.88058 0.0
C680 C 0.99371 0.32663 0.88367 0.0
C681 C 0.98452 0.29272 0.88223 0.0
C682 C 0.00996 0.26708 0.88053 0.0
C683 C 0.04395 0.27545 0.87954 0.0
H684 H 0.76592 0.07428 0.37511 0.0
H685 H 0.65834 0.05685 0.36831 0.0
H686 H 0.7782 0.01315 0.37808 0.0
H687 H 0.67057 0.99613 0.37104 0.0
H688 H 0.70268 0.89058 0.35237 0.0
H689 H 0.69577 0.95185 0.34905 0.0
H690 H 0.77061 0.96365 0.40221 0.0
H691 H 0.77797 0.90196 0.40541 0.0
C692 C 0.74489 0.05756 0.37469 0.0
C693 C 0.71111 0.07049 0.3718 0.0
C694 C 0.75195 0.02252 0.37623 0.0
C695 C 0.72536 -0.00017 0.37465 0.0
C696 C 0.69166 0.01289 0.37193 0.0
C697 C 0.68465 0.04772 0.37046 0.0
C698 C 0.71786 0.90615 0.3633 0.0
C699 C 0.74058 0.89136 0.37933 0.0
C700 C 0.71377 0.9413 0.36145 0.0
C701 C 0.73228 0.96258 0.37557 0.0
C702 C 0.75606 0.94789 0.39106 0.0
C703 C 0.76016 0.91258 0.39294 0.0
H704 H 0.20551 0.42262 0.14905 0.0
H705 H 0.30941 0.41372 0.13177 0.0
H706 H 0.2083 0.48413 0.1495 0.0
H707 H 0.31177 0.47511 0.13118 0.0
H708 H 0.31773 0.58468 0.15103 0.0
H709 H 0.3145 0.52341 0.15274 0.0
H710 H 0.20954 0.53181 0.12727 0.0
H711 H 0.21241 0.5933 0.12658 0.0
C712 C 0.22888 0.43382 0.14521 0.0
C713 C 0.25727 0.41328 0.14044 0.0
C714 C 0.23043 0.46914 0.14532 0.0
C715 C 0.26025 0.48479 0.14035 0.0
C716 C 0.28858 0.4641 0.13551 0.0
C717 C 0.28719 0.42881 0.13572 0.0
C718 C 0.29393 0.57343 0.14584 0.0
C719 C 0.26533 0.59385 0.13865 0.0
C720 C 0.29212 0.53822 0.14669 0.0
C721 C 0.2618 0.52245 0.14004 0.0
C722 C 0.23316 0.54297 0.13286 0.0
C723 C 0.23484 0.57827 0.13233 0.0
H724 H 0.3879 0.31516 0.61256 0.0
H725 H 0.39182 0.21254 0.63679 0.0
H726 H 0.44972 0.31348 0.6131 0.0
H727 H 0.45359 0.21129 0.63821 0.0
H728 H 0.55998 0.20498 0.61605 0.0
H729 H 0.4983 0.2081 0.61536 0.0
H730 H 0.50096 0.31291 0.63534 0.0
H731 H 0.56274 0.31011 0.63514 0.0
C732 C 0.40199 0.2924 0.61827 0.0
C733 C 0.38495 0.26392 0.62451 0.0
C734 C 0.43749 0.29147 0.61868 0.0
C735 C 0.45677 0.26217 0.62558 0.0
C736 C 0.43963 0.23402 0.63232 0.0
C737 C 0.40417 0.2348 0.63166 0.0
C738 C 0.5474 0.22872 0.62026 0.0
C739 C 0.56627 0.25728 0.62567 0.0
C740 C 0.51198 0.23046 0.62002 0.0
C741 C 0.49452 0.26069 0.62547 0.0
C742 C 0.51345 0.28933 0.63079 0.0
C743 C 0.54891 0.2877 0.63077 0.0
H744 H 0.8094 0.41448 0.14419 0.0
H745 H 0.7044 0.42305 0.11906 0.0
H746 H 0.81224 0.47583 0.14382 0.0
H747 H 0.7076 0.48451 0.11778 0.0
H748 H 0.71428 0.59488 0.13811 0.0
H749 H 0.71096 0.53353 0.13926 0.0
H750 H 0.81415 0.52243 0.12068 0.0
H751 H 0.81789 0.5838 0.12046 0.0
C752 C 0.78697 0.42948 0.13841 0.0
C753 C 0.75666 0.41387 0.13167 0.0
C754 C 0.78866 0.46472 0.13805 0.0
C755 C 0.76022 0.48528 0.13067 0.0
C756 C 0.72987 0.4696 0.1239 0.0
C757 C 0.72806 0.43432 0.12452 0.0
C758 C 0.73627 0.57933 0.13428 0.0
C759 C 0.76639 0.59423 0.12926 0.0
C760 C 0.7343 0.54409 0.13481 0.0
C761 C 0.76226 0.52286 0.13006 0.0
C762 C 0.7923 0.53787 0.12484 0.0
C763 C 0.79441 0.57311 0.12458 0.0
H764 H 0.57118 0.80604 0.62872 0.0
H765 H 0.56562 0.70232 0.60702 0.0
H766 H 0.50964 0.80969 0.63013 0.0
H767 H 0.50405 0.70634 0.60764 0.0
H768 H 0.39984 0.71081 0.63302 0.0
H769 H 0.46139 0.70875 0.63229 0.0
H770 H 0.45699 0.81203 0.60906 0.0
H771 H 0.39545 0.81448 0.61058 0.0
C772 C 0.55678 0.78416 0.62397 0.0
C773 C 0.57334 0.75384 0.61785 0.0
C774 C 0.52144 0.78629 0.62471 0.0
C775 C 0.50179 0.75825 0.61914 0.0
C776 C 0.51837 0.72821 0.61251 0.0
C777 C 0.5537 0.72597 0.61199 0.0
C778 C 0.41201 0.73315 0.62786 0.0
C779 C 0.39271 0.76279 0.62183 0.0
C780 C 0.44734 0.73189 0.62727 0.0
C781 C 0.46424 0.76011 0.62041 0.0
C782 C 0.44493 0.78993 0.61466 0.0
C783 C 0.40959 0.7913 0.61546 0.0
H784 H 0.18263 0.42659 0.87591 0.0
H785 H 0.28985 0.41989 0.89602 0.0
H786 H 0.18415 0.48808 0.87499 0.0
H787 H 0.29113 0.48149 0.89602 0.0
H788 H 0.2907 0.59013 0.87247 0.0
H789 H 0.28882 0.52866 0.87289 0.0
H790 H 0.18878 0.5367 0.89672 0.0
H791 H 0.19014 0.59826 0.89539 0.0
C792 C 0.20647 0.43828 0.88035 0.0
C793 C 0.23614 0.41834 0.88599 0.0
C794 C 0.20732 0.4736 0.87995 0.0
C795 C 0.23776 0.4899 0.88544 0.0
C796 C 0.26736 0.46988 0.8913 0.0
C797 C 0.26661 0.43453 0.89144 0.0
C798 C 0.26828 0.57877 0.87777 0.0
C799 C 0.24055 0.59909 0.88386 0.0
C800 C 0.26728 0.54346 0.87816 0.0
C801 C 0.23869 0.52756 0.88491 0.0
C802 C 0.211 0.54797 0.89108 0.0
C803 C 0.21183 0.58331 0.89043 0.0
H804 H 0.59902 0.20547 0.38768 0.0
H805 H 0.59524 0.30981 0.36661 0.0
H806 H 0.53741 0.20632 0.38599 0.0
H807 H 0.5332 0.31028 0.36392 0.0
H808 H 0.42243 0.30862 0.38154 0.0
H809 H 0.48435 0.30988 0.38371 0.0
H810 H 0.4899 0.20623 0.36137 0.0
H811 H 0.4284 0.20456 0.36021 0.0
C812 C 0.58499 0.22855 0.38248 0.0
C813 C 0.60204 0.25755 0.37722 0.0
C814 C 0.54955 0.22898 0.38136 0.0
C815 C 0.53014 0.25826 0.3746 0.0
C816 C 0.54724 0.28739 0.36944 0.0
C817 C 0.58282 0.2871 0.37086 0.0
C818 C 0.43696 0.28615 0.37709 0.0
C819 C 0.42054 0.25641 0.37087 0.0
C820 C 0.47247 0.28691 0.37821 0.0
C821 C 0.49229 0.25808 0.37287 0.0
C822 C 0.47565 0.22866 0.36614 0.0
C823 C 0.44028 0.22775 0.36532 0.0
H824 H 0.69015 0.58869 0.89007 0.0
H825 H 0.79201 0.58059 0.86915 0.0
H826 H 0.68864 0.52708 0.89113 0.0
H827 H 0.79003 0.51916 0.8693 0.0
H828 H 0.78983 0.41015 0.89157 0.0
H829 H 0.79116 0.47171 0.89204 0.0
H830 H 0.68498 0.47868 0.86907 0.0
H831 H 0.68337 0.41714 0.86951 0.0
C832 C 0.71213 0.57375 0.88555 0.0
C833 C 0.74123 0.58954 0.8796 0.0
C834 C 0.71121 0.53839 0.88603 0.0
C835 C 0.73922 0.518 0.8803 0.0
C836 C 0.76823 0.53392 0.87422 0.0
C837 C 0.7693 0.56923 0.87401 0.0
C838 C 0.76677 0.42484 0.88664 0.0
C839 C 0.7365 0.40874 0.88052 0.0
C840 C 0.76755 0.46019 0.88679 0.0
C841 C 0.73819 0.48032 0.88054 0.0
C842 C 0.70794 0.46411 0.87435 0.0
C843 C 0.70706 0.42877 0.87447 0.0
H844 H 0.4396 0.70129 0.36402 0.0
H845 H 0.43814 0.80637 0.38344 0.0
H846 H 0.50091 0.70117 0.36303 0.0
H847 H 0.49998 0.80588 0.38347 0.0
H848 H 0.60745 0.80338 0.36111 0.0
H849 H 0.54565 0.80442 0.36116 0.0
H850 H 0.55147 0.70134 0.38486 0.0
H851 H 0.61286 0.69987 0.38381 0.0
C852 C 0.45245 0.7243 0.36836 0.0
C853 C 0.43397 0.75384 0.37385 0.0
C854 C 0.48774 0.72419 0.36791 0.0
C855 C 0.50563 0.75346 0.37327 0.0
C856 C 0.4871 0.783 0.37891 0.0
C857 C 0.45165 0.78324 0.37906 0.0
C858 C 0.59545 0.78091 0.36622 0.0
C859 C 0.61506 0.75148 0.37233 0.0
C860 C 0.56001 0.78158 0.36643 0.0
C861 C 0.54338 0.75297 0.37302 0.0
C862 C 0.56317 0.72365 0.37926 0.0
C863 C 0.59849 0.72283 0.37876 0.0
H864 H 0.28139 0.31341 0.05531 0.0
H865 H 0.21844 0.22688 0.05685 0.0
H866 H 0.27845 0.31074 0.01631 0.0
H867 H 0.21437 0.22493 0.01747 0.0
H868 H 0.18304 0.27718 0.9485 0.0
H869 H 0.18821 0.26747 0.98724 0.0
H870 H 0.29746 0.26876 0.98729 0.0
H871 H 0.29262 0.27814 0.94879 0.0
C872 C 0.26733 0.2935 0.04726 0.0
C873 C 0.2504 0.27015 0.05901 0.0
C874 C 0.26556 0.29202 0.02496 0.0
C875 C 0.24631 0.26752 0.01392 0.0
C876 C 0.22933 0.24408 0.02564 0.0
C877 C 0.23165 0.24519 0.04806 0.0
C878 C 0.20818 0.27474 0.9567 0.0
C879 C 0.23737 0.27891 0.94555 0.0
C880 C 0.21111 0.26905 0.97885 0.0
C881 C 0.24322 0.26777 0.99021 0.0
C882 C 0.2724 0.27004 0.97891 0.0
C883 C 0.26954 0.27533 0.95682 0.0
H884 H 0.7403 0.18743 0.44427 0.0
H885 H 0.73991 0.29692 0.44673 0.0
H886 H 0.74358 0.18531 0.48325 0.0
H887 H 0.74259 0.29468 0.48565 0.0
H888 H 0.75992 0.27895 0.55766 0.0
H889 H 0.77323 0.27746 0.52002 0.0
H890 H 0.6993 0.20092 0.50734 0.0
H891 H 0.68591 0.20282 0.54455 0.0
C892 C 0.74158 0.21103 0.45308 0.0
C893 C 0.7392 0.24238 0.44233 0.0
C894 C 0.74327 0.20979 0.47543 0.0
C895 C 0.74269 0.23984 0.48751 0.0
C896 C 0.74315 0.27107 0.47683 0.0
C897 C 0.74144 0.27233 0.45447 0.0
C898 C 0.74679 0.2617 0.54677 0.0
C899 C 0.72215 0.24078 0.55402 0.0
C900 C 0.7544 0.26079 0.52529 0.0
C901 C 0.73755 0.23883 0.51074 0.0
C902 C 0.71337 0.21751 0.5182 0.0
C903 C 0.70567 0.21858 0.53956 0.0
H904 H 0.8121 0.72692 0.93908 0.0
H905 H 0.70283 0.73971 0.93961 0.0
H906 H 0.81793 0.73742 0.97743 0.0
H907 H 0.70882 0.74978 0.97812 0.0
H908 H 0.73483 0.78284 0.04779 0.0
H909 H 0.73159 0.78646 0.00849 0.0
H910 H 0.80261 0.70033 0.00682 0.0
H911 H 0.80518 0.69642 0.04561 0.0
C912 C 0.78933 0.73255 0.94725 0.0
C913 C 0.75697 0.73194 0.93625 0.0
C914 C 0.7927 0.73842 0.96928 0.0
C915 C 0.76381 0.7439 0.98083 0.0
C916 C 0.73156 0.74573 0.96964 0.0
C917 C 0.72816 0.73977 0.94757 0.0
C918 C 0.74984 0.76494 0.0389 0.0
C919 C 0.77052 0.7396 0.04968 0.0
C920 C 0.74801 0.76698 0.0165 0.0
C921 C 0.76713 0.7439 0.00459 0.0
C922 C 0.78818 0.71898 0.01552 0.0
C923 C 0.7897 0.71675 0.03777 0.0
H924 H 0.23527 0.78703 0.44017 0.0
H925 H 0.31744 0.71339 0.45536 0.0
H926 H 0.22183 0.78736 0.47785 0.0
H927 H 0.30389 0.71319 0.49258 0.0
H928 H 0.26149 0.70045 0.5552 0.0
H929 H 0.25985 0.69729 0.51628 0.0
H930 H 0.25054 0.80651 0.51238 0.0
H931 H 0.25174 0.80982 0.55126 0.0
C932 C 0.25022 0.77076 0.45155 0.0
C933 C 0.27719 0.74999 0.44487 0.0
C934 C 0.24253 0.77089 0.47303 0.0
C935 C 0.26156 0.75002 0.48814 0.0
C936 C 0.2882 0.72895 0.48128 0.0
C937 C 0.29601 0.72907 0.45994 0.0
C938 C 0.2583 0.7238 0.54607 0.0
C939 C 0.25735 0.75542 0.55642 0.0
C940 C 0.25756 0.72196 0.52375 0.0
C941 C 0.25571 0.75167 0.51129 0.0
C942 C 0.25194 0.78316 0.52152 0.0
C943 C 0.25278 0.78503 0.54385 0.0
H944 H 0.20439 0.74704 0.94697 0.0
H945 H 0.31301 0.72803 0.94631 0.0
H946 H 0.21067 0.75426 0.98571 0.0
H947 H 0.31914 0.73556 0.98502 0.0
H948 H 0.30362 0.69317 0.05256 0.0
H949 H 0.30139 0.69842 0.01379 0.0
H950 H 0.23531 0.78812 0.01674 0.0
H951 H 0.23818 0.78307 0.05595 0.0
C952 C 0.22969 0.74506 0.95499 0.0
C953 C 0.25814 0.73643 0.94353 0.0
C954 C 0.23327 0.74939 0.97721 0.0
C955 C 0.26533 0.74503 0.98843 0.0
C956 C 0.29403 0.73853 0.97682 0.0
C957 C 0.2905 0.73437 0.95461 0.0
C958 C 0.28923 0.71445 0.04499 0.0
C959 C 0.27135 0.73793 0.05723 0.0
C960 C 0.28795 0.71747 0.02277 0.0
C961 C 0.26842 0.74386 0.0122 0.0
C962 C 0.25054 0.76749 0.02445 0.0
C963 C 0.25213 0.76463 0.04681 0.0
H964 H 0.2298 0.21538 0.44151 0.0
H965 H 0.30502 0.29065 0.45349 0.0
H966 H 0.21828 0.21667 0.47956 0.0
H967 H 0.29293 0.29275 0.49104 0.0
H968 H 0.24602 0.31155 0.55239 0.0
H969 H 0.24431 0.31008 0.5135 0.0
H970 H 0.253 0.20076 0.51515 0.0
H971 H 0.25474 0.20199 0.55424 0.0
C972 C 0.24367 0.23229 0.45227 0.0
C973 C 0.2682 0.25299 0.44462 0.0
C974 C 0.23705 0.23308 0.47394 0.0
C975 C 0.25448 0.25505 0.48818 0.0
C976 C 0.27862 0.27605 0.48037 0.0
C977 C 0.28554 0.27488 0.45888 0.0
C978 C 0.2469 0.2871 0.54454 0.0
C979 C 0.25113 0.25689 0.55651 0.0
C980 C 0.24604 0.28633 0.52223 0.0
C981 C 0.2491 0.25536 0.51136 0.0
C982 C 0.25058 0.225 0.52314 0.0
C983 C 0.25166 0.22575 0.54554 0.0
H984 H 0.70542 0.3061 0.04847 0.0
H985 H 0.78452 0.22701 0.05304 0.0
H986 H 0.70063 0.30075 0.0098 0.0
H987 H 0.78012 0.22182 0.01382 0.0
H988 H 0.79003 0.26564 0.94435 0.0
H989 H 0.79267 0.25742 0.98297 0.0
H990 H 0.68296 0.26212 0.98076 0.0
H991 H 0.68019 0.27091 0.9422 0.0
C992 C 0.72122 0.28692 0.0412 0.0
C993 C 0.74486 0.26646 0.05377 0.0
C994 C 0.71853 0.28389 0.01899 0.0
C995 C 0.73966 0.26053 0.00872 0.0
C996 C 0.76346 0.24003 0.02128 0.0
C997 C 0.76599 0.24295 0.04365 0.0
C998 C 0.76641 0.26434 0.95201 0.0
C999 C 0.73486 0.26959 0.94016 0.0
C1000 C 0.76797 0.25942 0.97417 0.0
C1001 C 0.73804 0.25964 0.98496 0.0
C1002 C 0.70649 0.26251 0.97293 0.0
C1003 C 0.70491 0.26741 0.95079 0.0
H1004 H 0.75057 0.80003 0.43968 0.0
H1005 H 0.75341 0.69043 0.44165 0.0
H1006 H 0.75292 0.8017 0.47859 0.0
H1007 H 0.75578 0.69235 0.48073 0.0
H1008 H 0.77611 0.71137 0.55345 0.0
H1009 H 0.78868 0.71136 0.5156 0.0
H1010 H 0.70632 0.78548 0.50179 0.0
H1011 H 0.69326 0.7846 0.53918 0.0
C1012 C 0.75241 0.77625 0.44837 0.0
C1013 C 0.75118 0.74508 0.43747 0.0
C1014 C 0.75364 0.77727 0.47069 0.0
C1015 C 0.75398 0.74719 0.48264 0.0
C1016 C 0.75558 0.71594 0.4719 0.0
C1017 C 0.75412 0.71488 0.44951 0.0
C1018 C 0.76084 0.72763 0.54224 0.0
C1019 C 0.73367 0.7479 0.54914 0.0
C1020 C 0.76806 0.72769 0.52067 0.0
C1021 C 0.7486 0.74855 0.50581 0.0
C1022 C 0.72213 0.76956 0.51294 0.0
C1023 C 0.71464 0.76909 0.53434 0.0
H1024 H 0.57988 0.30659 0.16084 0.0
H1025 H 0.55868 0.29143 0.09298 0.0
H1026 H 0.52056 0.29525 0.16669 0.0
H1027 H 0.49972 0.2791 0.09893 0.0
H1028 H 0.40611 0.22685 0.12757 0.0
H1029 H 0.46733 0.23139 0.12393 0.0
H1030 H 0.46235 0.33303 0.14918 0.0
H1031 H 0.40117 0.32907 0.15216 0.0
C1032 C 0.56274 0.30002 0.14728 0.0
C1033 C 0.57377 0.29963 0.12648 0.0
C1034 C 0.52888 0.29373 0.15061 0.0
C1035 C 0.50581 0.28618 0.13325 0.0
C1036 C 0.51717 0.28458 0.11256 0.0
C1037 C 0.55076 0.29172 0.10917 0.0
C1038 C 0.41818 0.25005 0.13246 0.0
C1039 C 0.39892 0.27765 0.14009 0.0
C1040 C 0.45307 0.25263 0.13034 0.0
C1041 C 0.46938 0.28248 0.1364 0.0
C1042 C 0.45032 0.30968 0.14457 0.0
C1043 C 0.41536 0.30745 0.14615 0.0
H1044 H 0.65955 0.39606 0.64133 0.0
H1045 H 0.75413 0.38877 0.61081 0.0
H1046 H 0.65978 0.45784 0.63945 0.0
H1047 H 0.7538 0.4509 0.60845 0.0
H1048 H 0.69658 0.55514 0.58131 0.0
H1049 H 0.70815 0.4942 0.58681 0.0
H1050 H 0.69995 0.50728 0.65467 0.0
H1051 H 0.68907 0.56843 0.64921 0.0
C1052 C 0.68044 0.4077 0.63429 0.0
C1053 C 0.70678 0.38768 0.62616 0.0
C1054 C 0.68068 0.443 0.63337 0.0
C1055 C 0.70688 0.45897 0.6239 0.0
C1056 C 0.73339 0.43906 0.61588 0.0
C1057 C 0.73358 0.40364 0.61726 0.0
C1058 C 0.69803 0.54502 0.59744 0.0
C1059 C 0.69223 0.56635 0.61486 0.0
C1060 C 0.70476 0.51029 0.60058 0.0
C1061 C 0.70494 0.49621 0.62115 0.0
C1062 C 0.70002 0.51766 0.63868 0.0
C1063 C 0.69403 0.55256 0.63558 0.0
H1064 H 0.62722 0.68761 0.10668 0.0
H1065 H 0.61909 0.76772 0.15341 0.0
H1066 H 0.5664 0.68001 0.10647 0.0
H1067 H 0.55786 0.75986 0.15318 0.0
H1068 H 0.44231 0.74991 0.12905 0.0
H1069 H 0.50215 0.76363 0.12909 0.0
H1070 H 0.53127 0.65713 0.13424 0.0
H1071 H 0.47186 0.64345 0.13466 0.0
C1072 C 0.61244 0.70383 0.11678 0.0
C1073 C 0.62811 0.72799 0.13027 0.0
C1074 C 0.57759 0.69934 0.11673 0.0
C1075 C 0.55753 0.71897 0.13007 0.0
C1076 C 0.57276 0.74438 0.14274 0.0
C1077 C 0.6078 0.7488 0.14289 0.0
C1078 C 0.46147 0.72952 0.13082 0.0
C1079 C 0.4523 0.69559 0.13218 0.0
C1080 C 0.49573 0.73738 0.13063 0.0
C1081 C 0.52129 0.71142 0.13146 0.0
C1082 C 0.51208 0.67764 0.1332 0.0
C1083 C 0.47804 0.66984 0.13353 0.0
H1084 H 0.29478 0.40552 0.63763 0.0
H1085 H 0.21346 0.4215 0.58802 0.0
H1086 H 0.29758 0.46623 0.64261 0.0
H1087 H 0.2157 0.48279 0.59346 0.0
H1088 H 0.26539 0.58876 0.5923 0.0
H1089 H 0.25325 0.52893 0.58756 0.0
H1090 H 0.2671 0.51421 0.65608 0.0
H1091 H 0.27989 0.5737 0.66067 0.0
C1092 C 0.27723 0.42199 0.62789 0.0
C1093 C 0.25396 0.4086 0.61236 0.0
C1094 C 0.27865 0.4569 0.63089 0.0
C1095 C 0.25671 0.47945 0.61854 0.0
C1096 C 0.23313 0.46612 0.60312 0.0
C1097 C 0.23174 0.43101 0.60008 0.0
C1098 C 0.26495 0.5729 0.60635 0.0
C1099 C 0.27347 0.58585 0.62686 0.0
C1100 C 0.25807 0.53859 0.60365 0.0
C1101 C 0.25958 0.51666 0.62143 0.0
C1102 C 0.26645 0.53019 0.642 0.0
C1103 C 0.27358 0.5643 0.64466 0.0
H1104 H 0.59315 0.76418 0.90406 0.0
H1105 H 0.60049 0.68714 0.85529 0.0
H1106 H 0.53133 0.75927 0.90198 0.0
H1107 H 0.53914 0.68259 0.85315 0.0
H1108 H 0.44078 0.64854 0.87687 0.0
H1109 H 0.50098 0.6595 0.87858 0.0
H1110 H 0.47717 0.76729 0.87718 0.0
H1111 H 0.41643 0.75631 0.87519 0.0
C1112 C 0.58158 0.74656 0.89273 0.0
C1113 C 0.60176 0.72568 0.88008 0.0
C1114 C 0.54622 0.74385 0.8915 0.0
C1115 C 0.53055 0.72016 0.87766 0.0
C1116 C 0.55062 0.70054 0.86431 0.0
C1117 C 0.58577 0.70326 0.8655 0.0
C1118 C 0.44829 0.67463 0.87698 0.0
C1119 C 0.42378 0.70154 0.87609 0.0
C1120 C 0.48279 0.68089 0.87788 0.0
C1121 C 0.49374 0.71425 0.8778 0.0
C1122 C 0.46939 0.74132 0.87742 0.0
C1123 C 0.43463 0.73502 0.87645 0.0
H1124 H 0.32502 0.39149 0.39307 0.0
H1125 H 0.25936 0.41227 0.33576 0.0
H1126 H 0.33312 0.45181 0.3977 0.0
H1127 H 0.26769 0.47302 0.34048 0.0
H1128 H 0.27095 0.58212 0.37064 0.0
H1129 H 0.2572 0.52262 0.36603 0.0
H1130 H 0.3637 0.49314 0.37683 0.0
H1131 H 0.37755 0.55234 0.38089 0.0
C1132 C 0.31209 0.40892 0.38152 0.0
C1133 C 0.29185 0.39701 0.36388 0.0
C1134 C 0.31687 0.44349 0.38415 0.0
C1135 C 0.30141 0.46703 0.36929 0.0
C1136 C 0.27987 0.45539 0.35219 0.0
C1137 C 0.27521 0.42064 0.34947 0.0
C1138 C 0.29151 0.56306 0.37145 0.0
C1139 C 0.32545 0.57205 0.37569 0.0
C1140 C 0.28356 0.52897 0.36902 0.0
C1141 C 0.30937 0.5033 0.37116 0.0
C1142 C 0.34322 0.51235 0.37538 0.0
C1143 C 0.35115 0.54628 0.37764 0.0
H1144 H 0.39409 0.24884 0.91305 0.0
H1145 H 0.37081 0.32215 0.86227 0.0
H1146 H 0.45487 0.25341 0.90868 0.0
H1147 H 0.43108 0.32636 0.85786 0.0
H1148 H 0.53773 0.35984 0.87538 0.0
H1149 H 0.47821 0.35059 0.88021 0.0
H1150 H 0.49974 0.24239 0.8822 0.0
H1151 H 0.55964 0.25176 0.87714 0.0
C1152 C 0.40188 0.26562 0.90084 0.0
C1153 C 0.37766 0.28545 0.8882 0.0
C1154 C 0.43663 0.26814 0.89831 0.0
C1155 C 0.44766 0.2906 0.88315 0.0
C1156 C 0.42334 0.30937 0.86999 0.0
C1157 C 0.38878 0.30683 0.87247 0.0
C1158 C 0.52979 0.33408 0.87697 0.0
C1159 C 0.55333 0.30655 0.87625 0.0
C1160 C 0.49572 0.32877 0.87964 0.0
C1161 C 0.48432 0.29575 0.88146 0.0
C1162 C 0.50794 0.26812 0.88108 0.0
C1163 C 0.54219 0.27347 0.87834 0.0
H1164 H 0.79216 0.38906 0.36711 0.0
H1165 H 0.69669 0.39872 0.39651 0.0
H1166 H 0.79419 0.45106 0.36566 0.0
H1167 H 0.69917 0.4604 0.39546 0.0
H1168 H 0.72952 0.57009 0.4057 0.0
H1169 H 0.73858 0.50873 0.41123 0.0
H1170 H 0.75248 0.49576 0.34397 0.0
H1171 H 0.74285 0.55685 0.33841 0.0
C1172 C 0.77191 0.40441 0.37352 0.0
C1173 C 0.74417 0.38914 0.3818 0.0
C1174 C 0.77307 0.43977 0.37266 0.0
C1175 C 0.74694 0.46037 0.38056 0.0
C1176 C 0.71982 0.44506 0.38949 0.0
C1177 C 0.71828 0.40981 0.38992 0.0
C1178 C 0.73538 0.55417 0.39226 0.0
C1179 C 0.73571 0.56805 0.37166 0.0
C1180 C 0.74031 0.51915 0.39538 0.0
C1181 C 0.74624 0.49766 0.37801 0.0
C1182 C 0.74828 0.51183 0.35764 0.0
C1183 C 0.74266 0.54668 0.35445 0.0
H1184 H 0.29714 0.19544 0.30271 0.0
H1185 H 0.25302 0.29668 0.30911 0.0
H1186 H 0.2827 0.19795 0.26403 0.0
H1187 H 0.2385 0.29899 0.27063 0.0
H1188 H 0.30349 0.24895 0.19781 0.0
H1189 H 0.30685 0.23445 0.23575 0.0
H1190 H 0.20339 0.27259 0.23972 0.0
H1191 H 0.19982 0.287 0.20164 0.0
C1192 C 0.28373 0.21791 0.29596 0.0
C1193 C 0.27651 0.246 0.30895 0.0
C1194 C 0.27563 0.21938 0.27382 0.0
C1195 C 0.25963 0.24871 0.26433 0.0
C1196 C 0.25058 0.27594 0.2775 0.0
C1197 C 0.2591 0.27469 0.29954 0.0
C1198 C 0.28123 0.2537 0.20665 0.0
C1199 C 0.25151 0.26947 0.19674 0.0
C1200 C 0.2831 0.24517 0.22837 0.0
C1201 C 0.25544 0.25256 0.2407 0.0
C1202 C 0.22516 0.26683 0.2306 0.0
C1203 C 0.22311 0.27495 0.20879 0.0
H1204 H 0.75641 0.21208 0.80361 0.0
H1205 H 0.69624 0.30562 0.7957 0.0
H1206 H 0.75394 0.20511 0.76448 0.0
H1207 H 0.69314 0.29859 0.75699 0.0
H1208 H 0.69916 0.191 0.69507 0.0
H1209 H 0.71059 0.19447 0.73389 0.0
H1210 H 0.73179 0.30034 0.72809 0.0
H1211 H 0.72 0.29714 0.6895 0.0
C1212 C 0.74259 0.23098 0.79345 0.0
C1213 C 0.72631 0.25922 0.8025 0.0
C1214 C 0.74108 0.227 0.77116 0.0
C1215 C 0.72359 0.25146 0.75768 0.0
C1216 C 0.70729 0.2796 0.76691 0.0
C1217 C 0.70867 0.28344 0.78906 0.0
C1218 C 0.70685 0.21486 0.70204 0.0
C1219 C 0.70813 0.24393 0.68921 0.0
C1220 C 0.71347 0.2168 0.72428 0.0
C1221 C 0.72149 0.24782 0.73404 0.0
C1222 C 0.72491 0.27626 0.72105 0.0
C1223 C 0.71829 0.27437 0.69891 0.0
H1224 H 0.72494 0.74913 0.18638 0.0
H1225 H 0.83221 0.72147 0.19576 0.0
H1226 H 0.72306 0.75875 0.22459 0.0
H1227 H 0.83007 0.73093 0.23429 0.0
H1228 H 0.81179 0.77438 0.30268 0.0
H1229 H 0.81818 0.77403 0.26385 0.0
H1230 H 0.72779 0.71625 0.25407 0.0
H1231 H 0.72146 0.71697 0.29244 0.0
C1232 C 0.74827 0.74553 0.19653 0.0
C1233 C 0.77861 0.73396 0.18802 0.0
C1234 C 0.74712 0.75093 0.21847 0.0
C1235 C 0.77625 0.74493 0.23246 0.0
C1236 C 0.80721 0.73571 0.22387 0.0
C1237 C 0.80839 0.73025 0.20181 0.0
C1238 C 0.79348 0.76163 0.29209 0.0
C1239 C 0.7663 0.74551 0.30039 0.0
C1240 C 0.79713 0.76135 0.26998 0.0
C1241 C 0.7733 0.74539 0.25593 0.0
C1242 C 0.74626 0.72922 0.26443 0.0
C1243 C 0.74282 0.72927 0.2864 0.0
H1244 H 0.20805 0.70661 0.79753 0.0
H1245 H 0.25962 0.79964 0.80913 0.0
H1246 H 0.20725 0.71594 0.759 0.0
H1247 H 0.25784 0.81005 0.77053 0.0
H1248 H 0.29068 0.79096 0.70232 0.0
H1249 H 0.28505 0.78846 0.74078 0.0
H1250 H 0.18527 0.74794 0.72883 0.0
H1251 H 0.1919 0.74939 0.69028 0.0
C1252 C 0.21855 0.72946 0.79172 0.0
C1253 C 0.23392 0.75243 0.80611 0.0
C1254 C 0.21798 0.73497 0.76966 0.0
C1255 C 0.23257 0.76375 0.76154 0.0
C1256 C 0.24689 0.78733 0.77614 0.0
C1257 C 0.24773 0.78159 0.79821 0.0
C1258 C 0.2674 0.78201 0.70802 0.0
C1259 C 0.24168 0.7704 0.69353 0.0
C1260 C 0.26403 0.78069 0.73004 0.0
C1261 C 0.2347 0.76793 0.73803 0.0
C1262 C 0.20844 0.7574 0.72332 0.0
C1263 C 0.21202 0.75845 0.70127 0.0
H1264 H 0.70532 0.77558 0.79633 0.0
H1265 H 0.7671 0.68329 0.79266 0.0
H1266 H 0.69855 0.77833 0.75717 0.0
H1267 H 0.76137 0.68639 0.75362 0.0
H1268 H 0.70587 0.68201 0.68596 0.0
H1269 H 0.71738 0.6797 0.72473 0.0
H1270 H 0.73061 0.78776 0.72605 0.0
H1271 H 0.71855 0.79027 0.68741 0.0
C1272 C 0.71768 0.75612 0.78708 0.0
C1273 C 0.73683 0.72937 0.79739 0.0
C1274 C 0.71406 0.75775 0.76471 0.0
C1275 C 0.7295 0.73258 0.75227 0.0
C1276 C 0.74891 0.70599 0.76271 0.0
C1277 C 0.75251 0.70441 0.78503 0.0
C1278 C 0.71161 0.70522 0.69447 0.0
C1279 C 0.71105 0.73634 0.68354 0.0
C1280 C 0.7183 0.70389 0.71671 0.0
C1281 C 0.72461 0.73362 0.72851 0.0
C1282 C 0.72522 0.76451 0.71749 0.0
C1283 C 0.71855 0.76587 0.69528 0.0
H1284 H 0.22915 0.75031 0.19685 0.0
H1285 H 0.33571 0.71855 0.201 0.0
H1286 H 0.23285 0.76018 0.23564 0.0
H1287 H 0.33886 0.72782 0.23952 0.0
H1288 H 0.31062 0.69367 0.30638 0.0
H1289 H 0.3025 0.69221 0.26752 0.0
H1290 H 0.27299 0.79866 0.26628 0.0
H1291 H 0.28177 0.80065 0.30552 0.0
C1292 C 0.25341 0.74594 0.20592 0.0
C1293 C 0.28206 0.73333 0.19583 0.0
C1294 C 0.25546 0.75165 0.22806 0.0
C1295 C 0.28602 0.74435 0.24043 0.0
C1296 C 0.31496 0.73334 0.23026 0.0
C1297 C 0.31311 0.72816 0.20818 0.0
C1298 C 0.30196 0.71678 0.29798 0.0
C1299 C 0.29709 0.74737 0.3091 0.0
C1300 C 0.2975 0.7159 0.27571 0.0
C1301 C 0.28752 0.74539 0.26404 0.0
C1302 C 0.28079 0.77565 0.27504 0.0
C1303 C 0.28583 0.77672 0.29743 0.0
H1304 H 0.18554 0.2459 0.69201 0.0
H1305 H 0.2817 0.29382 0.7008 0.0
H1306 H 0.17976 0.24884 0.73075 0.0
H1307 H 0.27663 0.29621 0.73928 0.0
H1308 H 0.24453 0.32684 0.80386 0.0
H1309 H 0.24452 0.32526 0.76494 0.0
H1310 H 0.20424 0.22507 0.76467 0.0
H1311 H 0.2034 0.22745 0.80383 0.0
C1312 C 0.20534 0.25707 0.7023 0.0
C1313 C 0.23383 0.27 0.69358 0.0
C1314 C 0.2022 0.25859 0.72443 0.0
C1315 C 0.22761 0.273 0.73813 0.0
C1316 C 0.2562 0.28566 0.72921 0.0
C1317 C 0.25921 0.28423 0.70719 0.0
C1318 C 0.23557 0.3046 0.79539 0.0
C1319 C 0.22432 0.27711 0.80664 0.0
C1320 C 0.2357 0.30356 0.77315 0.0
C1321 C 0.22481 0.27484 0.76167 0.0
C1322 C 0.2126 0.24765 0.77299 0.0
C1323 C 0.21228 0.24884 0.79534 0.0
H1324 H 0.78853 0.28667 0.30667 0.0
H1325 H 0.70955 0.21495 0.29598 0.0
H1326 H 0.79247 0.29125 0.26796 0.0
H1327 H 0.71421 0.21846 0.25748 0.0
H1328 H 0.69801 0.27427 0.19254 0.0
H1329 H 0.69866 0.26169 0.23053 0.0
H1330 H 0.80845 0.26064 0.23566 0.0
H1331 H 0.80787 0.27381 0.19758 0.0
C1332 C 0.77249 0.27147 0.29602 0.0
C1333 C 0.74895 0.25031 0.30426 0.0
C1334 C 0.77487 0.27386 0.2739 0.0
C1335 C 0.75359 0.25524 0.25964 0.0
C1336 C 0.73073 0.23336 0.26801 0.0
C1337 C 0.72837 0.231 0.29008 0.0
C1338 C 0.72234 0.27101 0.20166 0.0
C1339 C 0.75286 0.27529 0.19198 0.0
C1340 C 0.72271 0.2636 0.22346 0.0
C1341 C 0.75362 0.2603 0.23615 0.0
C1342 C 0.78422 0.26347 0.22636 0.0
C1343 C 0.78386 0.27078 0.2045 0.0
loop_
_geom_bond_atom_site_label_1
_geom_bond_atom_site_label_2
_geom_bond_distance
_geom_bond_site_symmetry_2
_ccdc_geom_bond_type
Co0 O3 1.970 . S
Co0 N17 1.989 . S
Co0 O25 1.967 . S
Co0 O32 1.920 . S
Co1 O4 1.966 . S
Co1 N10 2.022 . S
Co1 N18 1.993 . S
Co1 O26 1.941 . S
C2 O3 1.258 . S
C2 O4 1.263 . S
O3 Co0 1.970 . S
O3 C2 1.258 . S
O4 Co1 1.966 . S
O4 C2 1.263 . S
C5 O6 1.235 . S
C5 O32 1.289 . S
O6 C5 1.235 . S
C7 C9 1.400 . S
C7 N10 1.351 . S
C7 C12 1.501 . S
C8 C9 1.387 . S
C8 N11 1.341 . S
C9 C7 1.400 . S
C9 C8 1.387 . S
N10 Co1 2.022 . S
N10 C7 1.351 . S
N10 N11 1.365 . S
N11 C8 1.341 . S
N11 N10 1.365 . S
N11 H31 0.862 . S
C12 C7 1.501 . S
C12 H13 0.961 . S
C12 H14 0.961 . S
C12 H15 0.960 . S
H13 C12 0.961 . S
H14 C12 0.961 . S
H15 C12 0.960 . S
C16 N17 1.342 . S
C16 C20 1.401 . S
C16 C21 1.499 . S
N17 Co0 1.989 . S
N17 C16 1.342 . S
N17 N18 1.388 . S
N18 Co1 1.993 . S
N18 N17 1.388 . S
N18 C19 1.346 . S
C19 N18 1.346 . S
C19 C20 1.396 . S
C19 C29 1.510 . S
C20 C16 1.401 . S
C20 C19 1.396 . S
C21 C16 1.499 . S
C21 H22 0.959 . S
C21 H23 0.960 . S
C21 H24 0.961 . S
H22 C21 0.959 . S
H23 C21 0.960 . S
H24 C21 0.961 . S
O25 Co0 1.967 . S
O25 C33 1.258 . S
O26 Co1 1.941 . S
O26 C33 1.266 . S
H27 C29 0.959 . S
H28 C29 0.961 . S
C29 C19 1.510 . S
C29 H27 0.959 . S
C29 H28 0.961 . S
C29 H30 0.960 . S
H30 C29 0.960 . S
H31 N11 0.862 . S
O32 Co0 1.920 . S
O32 C5 1.289 . S
C33 O25 1.258 . S
C33 O26 1.266 . S
Co34 O37 1.970 . S
Co34 N51 1.989 . S
Co34 O59 1.967 . S
Co34 O66 1.920 . S
Co35 O38 1.966 . S
Co35 N44 2.022 . S
Co35 N52 1.993 . S
Co35 O60 1.941 . S
C36 O37 1.258 . S
C36 O38 1.263 . S
O37 Co34 1.970 . S
O37 C36 1.258 . S
O38 Co35 1.966 . S
O38 C36 1.263 . S
C39 O40 1.235 . S
C39 O66 1.289 . S
O40 C39 1.235 . S
C41 C43 1.400 . S
C41 N44 1.351 . S
C41 C46 1.501 . S
C42 C43 1.387 . S
C42 N45 1.341 . S
C43 C41 1.400 . S
C43 C42 1.387 . S
N44 Co35 2.022 . S
N44 C41 1.351 . S
N44 N45 1.365 . S
N45 C42 1.341 . S
N45 N44 1.365 . S
N45 H65 0.862 . S
C46 C41 1.501 . S
C46 H47 0.961 . S
C46 H48 0.961 . S
C46 H49 0.960 . S
H47 C46 0.961 . S
H48 C46 0.961 . S
H49 C46 0.960 . S
C50 N51 1.342 . S
C50 C54 1.401 . S
C50 C55 1.499 . S
N51 Co34 1.989 . S
N51 C50 1.342 . S
N51 N52 1.388 . S
N52 Co35 1.993 . S
N52 N51 1.388 . S
N52 C53 1.346 . S
C53 N52 1.346 . S
C53 C54 1.396 . S
C53 C63 1.510 . S
C54 C50 1.401 . S
C54 C53 1.396 . S
C55 C50 1.499 . S
C55 H56 0.959 . S
C55 H57 0.960 . S
C55 H58 0.961 . S
H56 C55 0.959 . S
H57 C55 0.960 . S
H58 C55 0.961 . S
O59 Co34 1.967 . S
O59 C67 1.258 . S
O60 Co35 1.941 . S
O60 C67 1.266 . S
H61 C63 0.959 . S
H62 C63 0.961 . S
C63 C53 1.510 . S
C63 H61 0.959 . S
C63 H62 0.961 . S
C63 H64 0.960 . S
H64 C63 0.960 . S
H65 N45 0.862 . S
O66 Co34 1.920 . S
O66 C39 1.289 . S
C67 O59 1.258 . S
C67 O60 1.266 . S
Co68 O71 1.970 . S
Co68 N85 1.989 . S
Co68 O93 1.967 . S
Co68 O100 1.920 . S
Co69 O72 1.966 . S
Co69 N78 2.022 . S
Co69 N86 1.993 . S
Co69 O94 1.941 . S
C70 O71 1.258 . S
C70 O72 1.263 . S
O71 Co68 1.970 . S
O71 C70 1.258 . S
O72 Co69 1.966 . S
O72 C70 1.263 . S
C73 O74 1.235 . S
C73 O100 1.289 . S
O74 C73 1.235 . S
C75 C77 1.400 . S
C75 N78 1.351 . S
C75 C80 1.501 . S
C76 C77 1.387 . S
C76 N79 1.341 . S
C77 C75 1.400 . S
C77 C76 1.387 . S
N78 Co69 2.022 . S
N78 C75 1.351 . S
N78 N79 1.365 . S
N79 C76 1.341 . S
N79 N78 1.365 . S
N79 H99 0.862 . S
C80 C75 1.501 . S
C80 H81 0.961 . S
C80 H82 0.961 . S
C80 H83 0.960 . S
H81 C80 0.961 . S
H82 C80 0.961 . S
H83 C80 0.960 . S
C84 N85 1.342 . S
C84 C88 1.401 . S
C84 C89 1.499 . S
N85 Co68 1.989 . S
N85 C84 1.342 . S
N85 N86 1.388 . S
N86 Co69 1.993 . S
N86 N85 1.388 . S
N86 C87 1.346 . S
C87 N86 1.346 . S
C87 C88 1.396 . S
C87 C97 1.510 . S
C88 C84 1.401 . S
C88 C87 1.396 . S
C89 C84 1.499 . S
C89 H90 0.959 . S
C89 H91 0.960 . S
C89 H92 0.961 . S
H90 C89 0.959 . S
H91 C89 0.960 . S
H92 C89 0.961 . S
O93 Co68 1.967 . S
O93 C101 1.258 . S
O94 Co69 1.941 . S
O94 C101 1.266 . S
H95 C97 0.959 . S
H96 C97 0.961 . S
C97 C87 1.510 . S
C97 H95 0.959 . S
C97 H96 0.961 . S
C97 H98 0.960 . S
H98 C97 0.960 . S
H99 N79 0.862 . S
O100 Co68 1.920 . S
O100 C73 1.289 . S
C101 O93 1.258 . S
C101 O94 1.266 . S
Co102 O105 1.970 . S
Co102 N119 1.989 . S
Co102 O127 1.967 . S
Co102 O134 1.920 . S
Co103 O106 1.966 . S
Co103 N112 2.022 . S
Co103 N120 1.993 . S
Co103 O128 1.941 . S
C104 O105 1.258 . S
C104 O106 1.263 . S
O105 Co102 1.970 . S
O105 C104 1.258 . S
O106 Co103 1.966 . S
O106 C104 1.263 . S
C107 O108 1.235 . S
C107 O134 1.289 . S
O108 C107 1.235 . S
C109 C111 1.400 . S
C109 N112 1.351 . S
C109 C114 1.501 . S
C110 C111 1.387 . S
C110 N113 1.341 . S
C111 C109 1.400 . S
C111 C110 1.387 . S
N112 Co103 2.022 . S
N112 C109 1.351 . S
N112 N113 1.365 . S
N113 C110 1.341 . S
N113 N112 1.365 . S
N113 H133 0.862 . S
C114 C109 1.501 . S
C114 H115 0.961 . S
C114 H116 0.961 . S
C114 H117 0.960 . S
H115 C114 0.961 . S
H116 C114 0.961 . S
H117 C114 0.960 . S
C118 N119 1.342 . S
C118 C122 1.401 . S
C118 C123 1.499 . S
N119 Co102 1.989 . S
N119 C118 1.342 . S
N119 N120 1.388 . S
N120 Co103 1.993 . S
N120 N119 1.388 . S
N120 C121 1.346 . S
C121 N120 1.346 . S
C121 C122 1.396 . S
C121 C131 1.510 . S
C122 C118 1.401 . S
C122 C121 1.396 . S
C123 C118 1.499 . S
C123 H124 0.959 . S
C123 H125 0.960 . S
C123 H126 0.961 . S
H124 C123 0.959 . S
H125 C123 0.960 . S
H126 C123 0.961 . S
O127 Co102 1.967 . S
O127 C135 1.258 . S
O128 Co103 1.941 . S
O128 C135 1.266 . S
H129 C131 0.959 . S
H130 C131 0.961 . S
C131 C121 1.510 . S
C131 H129 0.959 . S
C131 H130 0.961 . S
C131 H132 0.960 . S
H132 C131 0.960 . S
H133 N113 0.862 . S
O134 Co102 1.920 . S
O134 C107 1.289 . S
C135 O127 1.258 . S
C135 O128 1.266 . S
Co136 O139 1.970 . S
Co136 N153 1.989 . S
Co136 O161 1.967 . S
Co136 O168 1.920 . S
Co137 O140 1.966 . S
Co137 N146 2.022 . S
Co137 N154 1.993 . S
Co137 O162 1.941 . S
C138 O139 1.258 . S
C138 O140 1.263 . S
O139 Co136 1.970 . S
O139 C138 1.258 . S
O140 Co137 1.966 . S
O140 C138 1.263 . S
C141 O142 1.235 . S
C141 O168 1.289 . S
O142 C141 1.235 . S
C143 C145 1.400 . S
C143 N146 1.351 . S
C143 C148 1.501 . S
C144 C145 1.387 . S
C144 N147 1.341 . S
C145 C143 1.400 . S
C145 C144 1.387 . S
N146 Co137 2.022 . S
N146 C143 1.351 . S
N146 N147 1.365 . S
N147 C144 1.341 . S
N147 N146 1.365 . S
N147 H167 0.862 . S
C148 C143 1.501 . S
C148 H149 0.961 . S
C148 H150 0.961 . S
C148 H151 0.960 . S
H149 C148 0.961 . S
H150 C148 0.961 . S
H151 C148 0.960 . S
C152 N153 1.342 . S
C152 C156 1.401 . S
C152 C157 1.499 . S
N153 Co136 1.989 . S
N153 C152 1.342 . S
N153 N154 1.388 . S
N154 Co137 1.993 . S
N154 N153 1.388 . S
N154 C155 1.346 . S
C155 N154 1.346 . S
C155 C156 1.396 . S
C155 C165 1.510 . S
C156 C152 1.401 . S
C156 C155 1.396 . S
C157 C152 1.499 . S
C157 H158 0.959 . S
C157 H159 0.960 . S
C157 H160 0.961 . S
H158 C157 0.959 . S
H159 C157 0.960 . S
H160 C157 0.961 . S
O161 Co136 1.967 . S
O161 C169 1.258 . S
O162 Co137 1.941 . S
O162 C169 1.266 . S
H163 C165 0.959 . S
H164 C165 0.961 . S
C165 C155 1.510 . S
C165 H163 0.959 . S
C165 H164 0.961 . S
C165 H166 0.960 . S
H166 C165 0.960 . S
H167 N147 0.862 . S
O168 Co136 1.920 . S
O168 C141 1.289 . S
C169 O161 1.258 . S
C169 O162 1.266 . S
Co170 O173 1.970 . S
Co170 N187 1.989 . S
Co170 O195 1.967 . S
Co170 O202 1.920 . S
Co171 O174 1.966 . S
Co171 N180 2.022 . S
Co171 N188 1.993 . S
Co171 O196 1.941 . S
C172 O173 1.258 . S
C172 O174 1.263 . S
O173 Co170 1.970 . S
O173 C172 1.258 . S
O174 Co171 1.966 . S
O174 C172 1.263 . S
C175 O176 1.235 . S
C175 O202 1.289 . S
O176 C175 1.235 . S
C177 C179 1.400 . S
C177 N180 1.351 . S
C177 C182 1.501 . S
C178 C179 1.387 . S
C178 N181 1.341 . S
C179 C177 1.400 . S
C179 C178 1.387 . S
N180 Co171 2.022 . S
N180 C177 1.351 . S
N180 N181 1.365 . S
N181 C178 1.341 . S
N181 N180 1.365 . S
N181 H201 0.862 . S
C182 C177 1.501 . S
C182 H183 0.961 . S
C182 H184 0.961 . S
C182 H185 0.960 . S
H183 C182 0.961 . S
H184 C182 0.961 . S
H185 C182 0.960 . S
C186 N187 1.342 . S
C186 C190 1.401 . S
C186 C191 1.499 . S
N187 Co170 1.989 . S
N187 C186 1.342 . S
N187 N188 1.388 . S
N188 Co171 1.993 . S
N188 N187 1.388 . S
N188 C189 1.346 . S
C189 N188 1.346 . S
C189 C190 1.396 . S
C189 C199 1.510 . S
C190 C186 1.401 . S
C190 C189 1.396 . S
C191 C186 1.499 . S
C191 H192 0.959 . S
C191 H193 0.960 . S
C191 H194 0.961 . S
H192 C191 0.959 . S
H193 C191 0.960 . S
H194 C191 0.961 . S
O195 Co170 1.967 . S
O195 C203 1.258 . S
O196 Co171 1.941 . S
O196 C203 1.266 . S
H197 C199 0.959 . S
H198 C199 0.961 . S
C199 C189 1.510 . S
C199 H197 0.959 . S
C199 H198 0.961 . S
C199 H200 0.960 . S
H200 C199 0.960 . S
H201 N181 0.862 . S
O202 Co170 1.920 . S
O202 C175 1.289 . S
C203 O195 1.258 . S
C203 O196 1.266 . S
Co204 O207 1.970 . S
Co204 N221 1.989 . S
Co204 O229 1.967 . S
Co204 O236 1.920 . S
Co205 O208 1.966 . S
Co205 N214 2.022 . S
Co205 N222 1.993 . S
Co205 O230 1.941 . S
C206 O207 1.258 . S
C206 O208 1.263 . S
O207 Co204 1.970 . S
O207 C206 1.258 . S
O208 Co205 1.966 . S
O208 C206 1.263 . S
C209 O210 1.235 . S
C209 O236 1.289 . S
O210 C209 1.235 . S
C211 C213 1.400 . S
C211 N214 1.351 . S
C211 C216 1.501 . S
C212 C213 1.387 . S
C212 N215 1.341 . S
C213 C211 1.400 . S
C213 C212 1.387 . S
N214 Co205 2.022 . S
N214 C211 1.351 . S
N214 N215 1.365 . S
N215 C212 1.341 . S
N215 N214 1.365 . S
N215 H235 0.862 . S
C216 C211 1.501 . S
C216 H217 0.961 . S
C216 H218 0.961 . S
C216 H219 0.960 . S
H217 C216 0.961 . S
H218 C216 0.961 . S
H219 C216 0.960 . S
C220 N221 1.342 . S
C220 C224 1.401 . S
C220 C225 1.499 . S
N221 Co204 1.989 . S
N221 C220 1.342 . S
N221 N222 1.388 . S
N222 Co205 1.993 . S
N222 N221 1.388 . S
N222 C223 1.346 . S
C223 N222 1.346 . S
C223 C224 1.396 . S
C223 C233 1.510 . S
C224 C220 1.401 . S
C224 C223 1.396 . S
C225 C220 1.499 . S
C225 H226 0.959 . S
C225 H227 0.960 . S
C225 H228 0.961 . S
H226 C225 0.959 . S
H227 C225 0.960 . S
H228 C225 0.961 . S
O229 Co204 1.967 . S
O229 C237 1.258 . S
O230 Co205 1.941 . S
O230 C237 1.266 . S
H231 C233 0.959 . S
H232 C233 0.961 . S
C233 C223 1.510 . S
C233 H231 0.959 . S
C233 H232 0.961 . S
C233 H234 0.960 . S
H234 C233 0.960 . S
H235 N215 0.862 . S
O236 Co204 1.920 . S
O236 C209 1.289 . S
C237 O229 1.258 . S
C237 O230 1.266 . S
Co238 O241 1.970 . S
Co238 N255 1.989 . S
Co238 O263 1.967 . S
Co238 O270 1.920 . S
Co239 O242 1.966 . S
Co239 N248 2.022 . S
Co239 N256 1.993 . S
Co239 O264 1.941 . S
C240 O241 1.258 . S
C240 O242 1.263 . S
O241 Co238 1.970 . S
O241 C240 1.258 . S
O242 Co239 1.966 . S
O242 C240 1.263 . S
C243 O244 1.235 . S
C243 O270 1.289 . S
O244 C243 1.235 . S
C245 C247 1.400 . S
C245 N248 1.351 . S
C245 C250 1.501 . S
C246 C247 1.387 . S
C246 N249 1.341 . S
C247 C245 1.400 . S
C247 C246 1.387 . S
N248 Co239 2.022 . S
N248 C245 1.351 . S
N248 N249 1.365 . S
N249 C246 1.341 . S
N249 N248 1.365 . S
N249 H269 0.862 . S
C250 C245 1.501 . S
C250 H251 0.961 . S
C250 H252 0.961 . S
C250 H253 0.960 . S
H251 C250 0.961 . S
H252 C250 0.961 . S
H253 C250 0.960 . S
C254 N255 1.342 . S
C254 C258 1.401 . S
C254 C259 1.499 . S
N255 Co238 1.989 . S
N255 C254 1.342 . S
N255 N256 1.388 . S
N256 Co239 1.993 . S
N256 N255 1.388 . S
N256 C257 1.346 . S
C257 N256 1.346 . S
C257 C258 1.396 . S
C257 C267 1.510 . S
C258 C254 1.401 . S
C258 C257 1.396 . S
C259 C254 1.499 . S
C259 H260 0.959 . S
C259 H261 0.960 . S
C259 H262 0.961 . S
H260 C259 0.959 . S
H261 C259 0.960 . S
H262 C259 0.961 . S
O263 Co238 1.967 . S
O263 C271 1.258 . S
O264 Co239 1.941 . S
O264 C271 1.266 . S
H265 C267 0.959 . S
H266 C267 0.961 . S
C267 C257 1.510 . S
C267 H265 0.959 . S
C267 H266 0.961 . S
C267 H268 0.960 . S
H268 C267 0.960 . S
H269 N249 0.862 . S
O270 Co238 1.920 . S
O270 C243 1.289 . S
C271 O263 1.258 . S
C271 O264 1.266 . S
Co272 O275 1.970 . S
Co272 N289 1.989 . S
Co272 O297 1.967 . S
Co272 O304 1.920 . S
Co273 O276 1.966 . S
Co273 N282 2.022 . S
Co273 N290 1.993 . S
Co273 O298 1.941 . S
C274 O275 1.258 . S
C274 O276 1.263 . S
O275 Co272 1.970 . S
O275 C274 1.258 . S
O276 Co273 1.966 . S
O276 C274 1.263 . S
C277 O278 1.235 . S
C277 O304 1.289 . S
O278 C277 1.235 . S
C279 C281 1.400 . S
C279 N282 1.351 . S
C279 C284 1.501 . S
C280 C281 1.387 . S
C280 N283 1.341 . S
C281 C279 1.400 . S
C281 C280 1.387 . S
N282 Co273 2.022 . S
N282 C279 1.351 . S
N282 N283 1.365 . S
N283 C280 1.341 . S
N283 N282 1.365 . S
N283 H303 0.862 . S
C284 C279 1.501 . S
C284 H285 0.961 . S
C284 H286 0.961 . S
C284 H287 0.960 . S
H285 C284 0.961 . S
H286 C284 0.961 . S
H287 C284 0.960 . S
C288 N289 1.342 . S
C288 C292 1.401 . S
C288 C293 1.499 . S
N289 Co272 1.989 . S
N289 C288 1.342 . S
N289 N290 1.388 . S
N290 Co273 1.993 . S
N290 N289 1.388 . S
N290 C291 1.346 . S
C291 N290 1.346 . S
C291 C292 1.396 . S
C291 C301 1.510 . S
C292 C288 1.401 . S
C292 C291 1.396 . S
C293 C288 1.499 . S
C293 H294 0.959 . S
C293 H295 0.960 . S
C293 H296 0.961 . S
H294 C293 0.959 . S
H295 C293 0.960 . S
H296 C293 0.961 . S
O297 Co272 1.967 . S
O297 C305 1.258 . S
O298 Co273 1.941 . S
O298 C305 1.266 . S
H299 C301 0.959 . S
H300 C301 0.961 . S
C301 C291 1.510 . S
C301 H299 0.959 . S
C301 H300 0.961 . S
C301 H302 0.960 . S
H302 C301 0.960 . S
H303 N283 0.862 . S
O304 Co272 1.920 . S
O304 C277 1.289 . S
C305 O297 1.258 . S
C305 O298 1.266 . S
Co306 O309 1.970 . S
Co306 N323 1.989 . S
Co306 O331 1.967 . S
Co306 O338 1.920 . S
Co307 O310 1.966 . S
Co307 N316 2.022 . S
Co307 N324 1.993 . S
Co307 O332 1.941 . S
C308 O309 1.258 . S
C308 O310 1.263 . S
O309 Co306 1.970 . S
O309 C308 1.258 . S
O310 Co307 1.966 . S
O310 C308 1.263 . S
C311 O312 1.235 . S
C311 O338 1.289 . S
O312 C311 1.235 . S
C313 C315 1.400 . S
C313 N316 1.351 . S
C313 C318 1.501 . S
C314 C315 1.387 . S
C314 N317 1.341 . S
C315 C313 1.400 . S
C315 C314 1.387 . S
N316 Co307 2.022 . S
N316 C313 1.351 . S
N316 N317 1.365 . S
N317 C314 1.341 . S
N317 N316 1.365 . S
N317 H337 0.862 . S
C318 C313 1.501 . S
C318 H319 0.961 . S
C318 H320 0.961 . S
C318 H321 0.960 . S
H319 C318 0.961 . S
H320 C318 0.961 . S
H321 C318 0.960 . S
C322 N323 1.342 . S
C322 C326 1.401 . S
C322 C327 1.499 . S
N323 Co306 1.989 . S
N323 C322 1.342 . S
N323 N324 1.388 . S
N324 Co307 1.993 . S
N324 N323 1.388 . S
N324 C325 1.346 . S
C325 N324 1.346 . S
C325 C326 1.396 . S
C325 C335 1.510 . S
C326 C322 1.401 . S
C326 C325 1.396 . S
C327 C322 1.499 . S
C327 H328 0.959 . S
C327 H329 0.960 . S
C327 H330 0.961 . S
H328 C327 0.959 . S
H329 C327 0.960 . S
H330 C327 0.961 . S
O331 Co306 1.967 . S
O331 C339 1.258 . S
O332 Co307 1.941 . S
O332 C339 1.266 . S
H333 C335 0.959 . S
H334 C335 0.961 . S
C335 C325 1.510 . S
C335 H333 0.959 . S
C335 H334 0.961 . S
C335 H336 0.960 . S
H336 C335 0.960 . S
H337 N317 0.862 . S
O338 Co306 1.920 . S
O338 C311 1.289 . S
C339 O331 1.258 . S
C339 O332 1.266 . S
Co340 O343 1.970 . S
Co340 N357 1.989 . S
Co340 O365 1.967 . S
Co340 O372 1.920 . S
Co341 O344 1.966 . S
Co341 N350 2.022 . S
Co341 N358 1.993 . S
Co341 O366 1.941 . S
C342 O343 1.258 . S
C342 O344 1.263 . S
O343 Co340 1.970 . S
O343 C342 1.258 . S
O344 Co341 1.966 . S
O344 C342 1.263 . S
C345 O346 1.235 . S
C345 O372 1.289 . S
O346 C345 1.235 . S
C347 C349 1.400 . S
C347 N350 1.351 . S
C347 C352 1.501 . S
C348 C349 1.387 . S
C348 N351 1.341 . S
C349 C347 1.400 . S
C349 C348 1.387 . S
N350 Co341 2.022 . S
N350 C347 1.351 . S
N350 N351 1.365 . S
N351 C348 1.341 . S
N351 N350 1.365 . S
N351 H371 0.862 . S
C352 C347 1.501 . S
C352 H353 0.961 . S
C352 H354 0.961 . S
C352 H355 0.960 . S
H353 C352 0.961 . S
H354 C352 0.961 . S
H355 C352 0.960 . S
C356 N357 1.342 . S
C356 C360 1.401 . S
C356 C361 1.499 . S
N357 Co340 1.989 . S
N357 C356 1.342 . S
N357 N358 1.388 . S
N358 Co341 1.993 . S
N358 N357 1.388 . S
N358 C359 1.346 . S
C359 N358 1.346 . S
C359 C360 1.396 . S
C359 C369 1.510 . S
C360 C356 1.401 . S
C360 C359 1.396 . S
C361 C356 1.499 . S
C361 H362 0.959 . S
C361 H363 0.960 . S
C361 H364 0.961 . S
H362 C361 0.959 . S
H363 C361 0.960 . S
H364 C361 0.961 . S
O365 Co340 1.967 . S
O365 C373 1.258 . S
O366 Co341 1.941 . S
O366 C373 1.266 . S
H367 C369 0.959 . S
H368 C369 0.961 . S
C369 C359 1.510 . S
C369 H367 0.959 . S
C369 H368 0.961 . S
C369 H370 0.960 . S
H370 C369 0.960 . S
H371 N351 0.862 . S
O372 Co340 1.920 . S
O372 C345 1.289 . S
C373 O365 1.258 . S
C373 O366 1.266 . S
Co374 O377 1.970 . S
Co374 N391 1.989 . S
Co374 O399 1.967 . S
Co374 O406 1.920 . S
Co375 O378 1.966 . S
Co375 N384 2.022 . S
Co375 N392 1.993 . S
Co375 O400 1.941 . S
C376 O377 1.258 . S
C376 O378 1.263 . S
O377 Co374 1.970 . S
O377 C376 1.258 . S
O378 Co375 1.966 . S
O378 C376 1.263 . S
C379 O380 1.235 . S
C379 O406 1.289 . S
O380 C379 1.235 . S
C381 C383 1.400 . S
C381 N384 1.351 . S
C381 C386 1.501 . S
C382 C383 1.387 . S
C382 N385 1.341 . S
C383 C381 1.400 . S
C383 C382 1.387 . S
N384 Co375 2.022 . S
N384 C381 1.351 . S
N384 N385 1.365 . S
N385 C382 1.341 . S
N385 N384 1.365 . S
N385 H405 0.862 . S
C386 C381 1.501 . S
C386 H387 0.961 . S
C386 H388 0.961 . S
C386 H389 0.960 . S
H387 C386 0.961 . S
H388 C386 0.961 . S
H389 C386 0.960 . S
C390 N391 1.342 . S
C390 C394 1.401 . S
C390 C395 1.499 . S
N391 Co374 1.989 . S
N391 C390 1.342 . S
N391 N392 1.388 . S
N392 Co375 1.993 . S
N392 N391 1.388 . S
N392 C393 1.346 . S
C393 N392 1.346 . S
C393 C394 1.396 . S
C393 C403 1.510 . S
C394 C390 1.401 . S
C394 C393 1.396 . S
C395 C390 1.499 . S
C395 H396 0.959 . S
C395 H397 0.960 . S
C395 H398 0.961 . S
H396 C395 0.959 . S
H397 C395 0.960 . S
H398 C395 0.961 . S
O399 Co374 1.967 . S
O399 C407 1.258 . S
O400 Co375 1.941 . S
O400 C407 1.266 . S
H401 C403 0.959 . S
H402 C403 0.961 . S
C403 C393 1.510 . S
C403 H401 0.959 . S
C403 H402 0.961 . S
C403 H404 0.960 . S
H404 C403 0.960 . S
H405 N385 0.862 . S
O406 Co374 1.920 . S
O406 C379 1.289 . S
C407 O399 1.258 . S
C407 O400 1.266 . S
Co408 O411 1.970 . S
Co408 N425 1.989 . S
Co408 O433 1.967 . S
Co408 O440 1.920 . S
Co409 O412 1.966 . S
Co409 N418 2.022 . S
Co409 N426 1.993 . S
Co409 O434 1.941 . S
C410 O411 1.258 . S
C410 O412 1.263 . S
O411 Co408 1.970 . S
O411 C410 1.258 . S
O412 Co409 1.966 . S
O412 C410 1.263 . S
C413 O414 1.235 . S
C413 O440 1.289 . S
O414 C413 1.235 . S
C415 C417 1.400 . S
C415 N418 1.351 . S
C415 C420 1.501 . S
C416 C417 1.387 . S
C416 N419 1.341 . S
C417 C415 1.400 . S
C417 C416 1.387 . S
N418 Co409 2.022 . S
N418 C415 1.351 . S
N418 N419 1.365 . S
N419 C416 1.341 . S
N419 N418 1.365 . S
N419 H439 0.862 . S
C420 C415 1.501 . S
C420 H421 0.961 . S
C420 H422 0.961 . S
C420 H423 0.960 . S
H421 C420 0.961 . S
H422 C420 0.961 . S
H423 C420 0.960 . S
C424 N425 1.342 . S
C424 C428 1.401 . S
C424 C429 1.499 . S
N425 Co408 1.989 . S
N425 C424 1.342 . S
N425 N426 1.388 . S
N426 Co409 1.993 . S
N426 N425 1.388 . S
N426 C427 1.346 . S
C427 N426 1.346 . S
C427 C428 1.396 . S
C427 C437 1.510 . S
C428 C424 1.401 . S
C428 C427 1.396 . S
C429 C424 1.499 . S
C429 H430 0.959 . S
C429 H431 0.960 . S
C429 H432 0.961 . S
H430 C429 0.959 . S
H431 C429 0.960 . S
H432 C429 0.961 . S
O433 Co408 1.967 . S
O433 C441 1.258 . S
O434 Co409 1.941 . S
O434 C441 1.266 . S
H435 C437 0.959 . S
H436 C437 0.961 . S
C437 C427 1.510 . S
C437 H435 0.959 . S
C437 H436 0.961 . S
C437 H438 0.960 . S
H438 C437 0.960 . S
H439 N419 0.862 . S
O440 Co408 1.920 . S
O440 C413 1.289 . S
C441 O433 1.258 . S
C441 O434 1.266 . S
Co442 O445 1.970 . S
Co442 N459 1.989 . S
Co442 O467 1.967 . S
Co442 O474 1.920 . S
Co443 O446 1.966 . S
Co443 N452 2.022 . S
Co443 N460 1.993 . S
Co443 O468 1.941 . S
C444 O445 1.258 . S
C444 O446 1.263 . S
O445 Co442 1.970 . S
O445 C444 1.258 . S
O446 Co443 1.966 . S
O446 C444 1.263 . S
C447 O448 1.235 . S
C447 O474 1.289 . S
O448 C447 1.235 . S
C449 C451 1.400 . S
C449 N452 1.351 . S
C449 C454 1.501 . S
C450 C451 1.387 . S
C450 N453 1.341 . S
C451 C449 1.400 . S
C451 C450 1.387 . S
N452 Co443 2.022 . S
N452 C449 1.351 . S
N452 N453 1.365 . S
N453 C450 1.341 . S
N453 N452 1.365 . S
N453 H473 0.862 . S
C454 C449 1.501 . S
C454 H455 0.961 . S
C454 H456 0.961 . S
C454 H457 0.960 . S
H455 C454 0.961 . S
H456 C454 0.961 . S
H457 C454 0.960 . S
C458 N459 1.342 . S
C458 C462 1.401 . S
C458 C463 1.499 . S
N459 Co442 1.989 . S
N459 C458 1.342 . S
N459 N460 1.388 . S
N460 Co443 1.993 . S
N460 N459 1.388 . S
N460 C461 1.346 . S
C461 N460 1.346 . S
C461 C462 1.396 . S
C461 C471 1.510 . S
C462 C458 1.401 . S
C462 C461 1.396 . S
C463 C458 1.499 . S
C463 H464 0.959 . S
C463 H465 0.960 . S
C463 H466 0.961 . S
H464 C463 0.959 . S
H465 C463 0.960 . S
H466 C463 0.961 . S
O467 Co442 1.967 . S
O467 C475 1.258 . S
O468 Co443 1.941 . S
O468 C475 1.266 . S
H469 C471 0.959 . S
H470 C471 0.961 . S
C471 C461 1.510 . S
C471 H469 0.959 . S
C471 H470 0.961 . S
C471 H472 0.960 . S
H472 C471 0.960 . S
H473 N453 0.862 . S
O474 Co442 1.920 . S
O474 C447 1.289 . S
C475 O467 1.258 . S
C475 O468 1.266 . S
Co476 O479 1.970 . S
Co476 N493 1.989 . S
Co476 O501 1.967 . S
Co476 O508 1.920 . S
Co477 O480 1.966 . S
Co477 N486 2.022 . S
Co477 N494 1.993 . S
Co477 O502 1.941 . S
C478 O479 1.258 . S
C478 O480 1.263 . S
O479 Co476 1.970 . S
O479 C478 1.258 . S
O480 Co477 1.966 . S
O480 C478 1.263 . S
C481 O482 1.235 . S
C481 O508 1.289 . S
O482 C481 1.235 . S
C483 C485 1.400 . S
C483 N486 1.351 . S
C483 C488 1.501 . S
C484 C485 1.387 . S
C484 N487 1.341 . S
C485 C483 1.400 . S
C485 C484 1.387 . S
N486 Co477 2.022 . S
N486 C483 1.351 . S
N486 N487 1.365 . S
N487 C484 1.341 . S
N487 N486 1.365 . S
N487 H507 0.862 . S
C488 C483 1.501 . S
C488 H489 0.961 . S
C488 H490 0.961 . S
C488 H491 0.960 . S
H489 C488 0.961 . S
H490 C488 0.961 . S
H491 C488 0.960 . S
C492 N493 1.342 . S
C492 C496 1.401 . S
C492 C497 1.499 . S
N493 Co476 1.989 . S
N493 C492 1.342 . S
N493 N494 1.388 . S
N494 Co477 1.993 . S
N494 N493 1.388 . S
N494 C495 1.346 . S
C495 N494 1.346 . S
C495 C496 1.396 . S
C495 C505 1.510 . S
C496 C492 1.401 . S
C496 C495 1.396 . S
C497 C492 1.499 . S
C497 H498 0.959 . S
C497 H499 0.960 . S
C497 H500 0.961 . S
H498 C497 0.959 . S
H499 C497 0.960 . S
H500 C497 0.961 . S
O501 Co476 1.967 . S
O501 C509 1.258 . S
O502 Co477 1.941 . S
O502 C509 1.266 . S
H503 C505 0.959 . S
H504 C505 0.961 . S
C505 C495 1.510 . S
C505 H503 0.959 . S
C505 H504 0.961 . S
C505 H506 0.960 . S
H506 C505 0.960 . S
H507 N487 0.862 . S
O508 Co476 1.920 . S
O508 C481 1.289 . S
C509 O501 1.258 . S
C509 O502 1.266 . S
Co510 O513 1.970 . S
Co510 N527 1.989 . S
Co510 O535 1.967 . S
Co510 O542 1.920 . S
Co511 O514 1.966 . S
Co511 N520 2.022 . S
Co511 N528 1.993 . S
Co511 O536 1.941 . S
C512 O513 1.258 . S
C512 O514 1.263 . S
O513 Co510 1.970 . S
O513 C512 1.258 . S
O514 Co511 1.966 . S
O514 C512 1.263 . S
C515 O516 1.235 . S
C515 O542 1.289 . S
O516 C515 1.235 . S
C517 C519 1.400 . S
C517 N520 1.351 . S
C517 C522 1.501 . S
C518 C519 1.387 . S
C518 N521 1.341 . S
C519 C517 1.400 . S
C519 C518 1.387 . S
N520 Co511 2.022 . S
N520 C517 1.351 . S
N520 N521 1.365 . S
N521 C518 1.341 . S
N521 N520 1.365 . S
N521 H541 0.862 . S
C522 C517 1.501 . S
C522 H523 0.961 . S
C522 H524 0.961 . S
C522 H525 0.960 . S
H523 C522 0.961 . S
H524 C522 0.961 . S
H525 C522 0.960 . S
C526 N527 1.342 . S
C526 C530 1.401 . S
C526 C531 1.499 . S
N527 Co510 1.989 . S
N527 C526 1.342 . S
N527 N528 1.388 . S
N528 Co511 1.993 . S
N528 N527 1.388 . S
N528 C529 1.346 . S
C529 N528 1.346 . S
C529 C530 1.396 . S
C529 C539 1.510 . S
C530 C526 1.401 . S
C530 C529 1.396 . S
C531 C526 1.499 . S
C531 H532 0.959 . S
C531 H533 0.960 . S
C531 H534 0.961 . S
H532 C531 0.959 . S
H533 C531 0.960 . S
H534 C531 0.961 . S
O535 Co510 1.967 . S
O535 C543 1.258 . S
O536 Co511 1.941 . S
O536 C543 1.266 . S
H537 C539 0.959 . S
H538 C539 0.961 . S
C539 C529 1.510 . S
C539 H537 0.959 . S
C539 H538 0.961 . S
C539 H540 0.960 . S
H540 C539 0.960 . S
H541 N521 0.862 . S
O542 Co510 1.920 . S
O542 C515 1.289 . S
C543 O535 1.258 . S
C543 O536 1.266 . S
H544 C552 0.950 . S
H545 C557 0.950 . S
H546 C554 0.950 . S
H547 C556 0.950 . S
H548 C558 0.950 . S
H549 C560 0.950 . S
H550 C562 0.950 . S
H551 C563 0.950 . S
C552 H544 0.950 . S
C552 C553 1.386 . S
C552 C554 1.391 . S
C553 C552 1.386 . S
C553 C557 1.393 . S
C554 H546 0.950 . S
C554 C552 1.391 . S
C554 C555 1.400 . S
C555 C554 1.400 . S
C555 C556 1.398 . S
C555 C561 1.491 1_655 S
C556 H547 0.950 . S
C556 C555 1.398 . S
C556 C557 1.391 . S
C557 H545 0.950 . S
C557 C553 1.393 . S
C557 C556 1.391 . S
C558 H548 0.950 . S
C558 C559 1.386 . S
C558 C560 1.391 . S
C559 C558 1.386 . S
C559 C563 1.393 . S
C560 H549 0.950 . S
C560 C558 1.391 . S
C560 C561 1.400 . S
C561 C555 1.491 1_455 S
C561 C560 1.400 . S
C561 C562 1.398 . S
C562 H550 0.950 . S
C562 C561 1.398 . S
C562 C563 1.391 . S
C563 H551 0.950 . S
C563 C559 1.393 . S
C563 C562 1.391 . S
H564 C572 0.950 . S
H565 C577 0.950 . S
H566 C574 0.950 . S
H567 C576 0.950 . S
H568 C578 0.950 . S
H569 C580 0.950 . S
H570 C582 0.950 . S
H571 C583 0.950 . S
C572 H564 0.950 . S
C572 C573 1.386 . S
C572 C574 1.391 . S
C573 C572 1.386 . S
C573 C577 1.393 . S
C574 H566 0.950 . S
C574 C572 1.391 . S
C574 C575 1.402 . S
C575 C574 1.402 . S
C575 C576 1.400 . S
C575 C581 1.488 1_545 S
C576 H567 0.950 . S
C576 C575 1.400 . S
C576 C577 1.391 . S
C577 H565 0.950 . S
C577 C573 1.393 . S
C577 C576 1.391 . S
C578 H568 0.950 . S
C578 C579 1.386 . S
C578 C580 1.391 . S
C579 C578 1.386 . S
C579 C583 1.393 . S
C580 H569 0.950 . S
C580 C578 1.391 . S
C580 C581 1.400 . S
C581 C575 1.488 1_565 S
C581 C580 1.400 . S
C581 C582 1.398 . S
C582 H570 0.950 . S
C582 C581 1.398 . S
C582 C583 1.391 . S
C583 H571 0.950 . S
C583 C579 1.393 . S
C583 C582 1.391 . S
H584 C592 0.950 . S
H585 C597 0.950 . S
H586 C594 0.950 . S
H587 C596 0.950 . S
H588 C598 0.950 . S
H589 C600 0.950 . S
H590 C602 0.950 . S
H591 C603 0.950 . S
C592 H584 0.950 . S
C592 C593 1.386 . S
C592 C594 1.391 1_655 S
C593 C592 1.386 . S
C593 C597 1.393 . S
C594 H586 0.950 . S
C594 C592 1.391 1_455 S
C594 C595 1.400 . S
C595 C594 1.400 . S
C595 C596 1.398 . S
C595 C601 1.491 . S
C596 H587 0.950 . S
C596 C595 1.398 . S
C596 C597 1.391 1_455 S
C597 H585 0.950 . S
C597 C593 1.393 . S
C597 C596 1.391 1_655 S
C598 H588 0.950 . S
C598 C599 1.386 . S
C598 C600 1.391 . S
C599 C598 1.386 . S
C599 C603 1.393 . S
C600 H589 0.950 . S
C600 C598 1.391 . S
C600 C601 1.400 . S
C601 C595 1.491 . S
C601 C600 1.400 . S
C601 C602 1.398 . S
C602 H590 0.950 . S
C602 C601 1.398 . S
C602 C603 1.391 . S
C603 H591 0.950 . S
C603 C599 1.393 . S
C603 C602 1.391 . S
H604 C612 0.950 . S
H605 C617 0.950 . S
H606 C614 0.950 . S
H607 C616 0.950 . S
H608 C618 0.950 . S
H609 C620 0.950 . S
H610 C622 0.950 . S
H611 C623 0.950 . S
C612 H604 0.950 . S
C612 C613 1.386 . S
C612 C614 1.391 . S
C613 C612 1.386 . S
C613 C617 1.393 . S
C614 H606 0.950 . S
C614 C612 1.391 . S
C614 C615 1.400 . S
C615 C614 1.400 . S
C615 C616 1.398 . S
C615 C621 1.491 1_565 S
C616 H607 0.950 . S
C616 C615 1.398 . S
C616 C617 1.391 . S
C617 H605 0.950 . S
C617 C613 1.393 . S
C617 C616 1.391 . S
C618 H608 0.950 . S
C618 C619 1.386 . S
C618 C620 1.391 . S
C619 C618 1.386 . S
C619 C623 1.393 . S
C620 H609 0.950 . S
C620 C618 1.391 . S
C620 C621 1.400 . S
C621 C615 1.491 1_545 S
C621 C620 1.400 . S
C621 C622 1.398 . S
C622 H610 0.950 . S
C622 C621 1.398 . S
C622 C623 1.391 . S
C623 H611 0.950 . S
C623 C619 1.393 . S
C623 C622 1.391 . S
H624 C632 0.950 . S
H625 C637 0.950 . S
H626 C634 0.950 . S
H627 C636 0.950 . S
H628 C638 0.950 . S
H629 C640 0.950 . S
H630 C642 0.950 . S
H631 C643 0.950 . S
C632 H624 0.950 . S
C632 C633 1.386 . S
C632 C634 1.391 . S
C633 C632 1.386 . S
C633 C637 1.393 . S
C634 H626 0.950 . S
C634 C632 1.391 . S
C634 C635 1.400 . S
C635 C634 1.400 . S
C635 C636 1.398 . S
C635 C641 1.491 1_655 S
C636 H627 0.950 . S
C636 C635 1.398 . S
C636 C637 1.391 . S
C637 H625 0.950 . S
C637 C633 1.393 . S
C637 C636 1.391 . S
C638 H628 0.950 . S
C638 C639 1.386 . S
C638 C640 1.391 . S
C639 C638 1.386 . S
C639 C643 1.393 . S
C640 H629 0.950 . S
C640 C638 1.391 . S
C640 C641 1.400 . S
C641 C635 1.491 1_455 S
C641 C640 1.400 . S
C641 C642 1.398 . S
C642 H630 0.950 . S
C642 C641 1.398 . S
C642 C643 1.391 . S
C643 H631 0.950 . S
C643 C639 1.393 . S
C643 C642 1.391 . S
H644 C652 0.950 . S
H645 C657 0.950 . S
H646 C654 0.950 . S
H647 C656 0.950 . S
H648 C658 0.950 . S
H649 C660 0.950 . S
H650 C662 0.950 . S
H651 C663 0.950 . S
C652 H644 0.950 . S
C652 C653 1.386 . S
C652 C654 1.391 . S
C653 C652 1.386 . S
C653 C657 1.393 . S
C654 H646 0.950 . S
C654 C652 1.391 . S
C654 C655 1.400 . S
C655 C654 1.400 . S
C655 C656 1.398 . S
C655 C661 1.491 1_565 S
C656 H647 0.950 . S
C656 C655 1.398 . S
C656 C657 1.391 . S
C657 H645 0.950 . S
C657 C653 1.393 . S
C657 C656 1.391 . S
C658 H648 0.950 . S
C658 C659 1.386 . S
C658 C660 1.391 . S
C659 C658 1.386 . S
C659 C663 1.393 . S
C660 H649 0.950 . S
C660 C658 1.391 . S
C660 C661 1.400 . S
C661 C655 1.491 1_545 S
C661 C660 1.400 . S
C661 C662 1.398 . S
C662 H650 0.950 . S
C662 C661 1.398 . S
C662 C663 1.391 . S
C663 H651 0.950 . S
C663 C659 1.393 . S
C663 C662 1.391 . S
H664 C672 0.950 . S
H665 C677 0.950 . S
H666 C674 0.950 . S
H667 C676 0.950 . S
H668 C678 0.950 . S
H669 C680 0.950 . S
H670 C682 0.950 . S
H671 C683 0.950 . S
C672 H664 0.950 . S
C672 C673 1.386 . S
C672 C674 1.391 . S
C673 C672 1.386 . S
C673 C677 1.393 . S
C674 H666 0.950 . S
C674 C672 1.391 . S
C674 C675 1.400 . S
C675 C674 1.400 . S
C675 C676 1.398 . S
C675 C681 1.491 . S
C676 H667 0.950 . S
C676 C675 1.398 . S
C676 C677 1.391 . S
C677 H665 0.950 . S
C677 C673 1.393 . S
C677 C676 1.391 . S
C678 H668 0.950 . S
C678 C679 1.386 . S
C678 C680 1.391 1_455 S
C679 C678 1.386 . S
C679 C683 1.393 . S
C680 H669 0.950 . S
C680 C678 1.391 1_655 S
C680 C681 1.400 . S
C681 C675 1.491 . S
C681 C680 1.400 . S
C681 C682 1.398 . S
C682 H670 0.950 . S
C682 C681 1.398 . S
C682 C683 1.391 1_655 S
C683 H671 0.950 . S
C683 C679 1.393 . S
C683 C682 1.391 1_455 S
H684 C692 0.950 . S
H685 C697 0.950 . S
H686 C694 0.950 1_565 S
H687 C696 0.950 . S
H688 C698 0.950 . S
H689 C700 0.950 . S
H690 C702 0.950 . S
H691 C703 0.950 . S
C692 H684 0.950 . S
C692 C693 1.386 . S
C692 C694 1.391 . S
C693 C692 1.386 . S
C693 C697 1.393 . S
C694 H686 0.950 1_545 S
C694 C692 1.391 . S
C694 C695 1.400 1_545 S
C695 C694 1.400 1_565 S
C695 C696 1.398 1_565 S
C695 C701 1.491 . S
C696 H687 0.950 . S
C696 C695 1.398 1_545 S
C696 C697 1.391 . S
C697 H685 0.950 . S
C697 C693 1.393 . S
C697 C696 1.391 . S
C698 H688 0.950 . S
C698 C699 1.386 . S
C698 C700 1.391 . S
C699 C698 1.386 . S
C699 C703 1.393 . S
C700 H689 0.950 . S
C700 C698 1.391 . S
C700 C701 1.400 . S
C701 C695 1.491 . S
C701 C700 1.400 . S
C701 C702 1.398 . S
C702 H690 0.950 . S
C702 C701 1.398 . S
C702 C703 1.391 . S
C703 H691 0.950 . S
C703 C699 1.393 . S
C703 C702 1.391 . S
H704 C712 0.950 . S
H705 C717 0.950 . S
H706 C714 0.950 . S
H707 C716 0.950 . S
H708 C718 0.950 . S
H709 C720 0.950 . S
H710 C722 0.950 . S
H711 C723 0.950 . S
C712 H704 0.950 . S
C712 C713 1.386 . S
C712 C714 1.391 . S
C713 C712 1.386 . S
C713 C717 1.393 . S
C714 H706 0.950 . S
C714 C712 1.391 . S
C714 C715 1.400 . S
C715 C714 1.400 . S
C715 C716 1.398 . S
C715 C721 1.491 . S
C716 H707 0.950 . S
C716 C715 1.398 . S
C716 C717 1.391 . S
C717 H705 0.950 . S
C717 C713 1.393 . S
C717 C716 1.391 . S
C718 H708 0.950 . S
C718 C719 1.386 . S
C718 C720 1.391 . S
C719 C718 1.386 . S
C719 C723 1.393 . S
C720 H709 0.950 . S
C720 C718 1.391 . S
C720 C721 1.400 . S
C721 C715 1.491 . S
C721 C720 1.400 . S
C721 C722 1.398 . S
C722 H710 0.950 . S
C722 C721 1.398 . S
C722 C723 1.391 . S
C723 H711 0.950 . S
C723 C719 1.393 . S
C723 C722 1.391 . S
H724 C732 0.950 . S
H725 C737 0.950 . S
H726 C734 0.950 . S
H727 C736 0.950 . S
H728 C738 0.950 . S
H729 C740 0.950 . S
H730 C742 0.950 . S
H731 C743 0.950 . S
C732 H724 0.950 . S
C732 C733 1.386 . S
C732 C734 1.391 . S
C733 C732 1.386 . S
C733 C737 1.393 . S
C734 H726 0.950 . S
C734 C732 1.391 . S
C734 C735 1.400 . S
C735 C734 1.400 . S
C735 C736 1.398 . S
C735 C741 1.491 . S
C736 H727 0.950 . S
C736 C735 1.398 . S
C736 C737 1.391 . S
C737 H725 0.950 . S
C737 C733 1.393 . S
C737 C736 1.391 . S
C738 H728 0.950 . S
C738 C739 1.386 . S
C738 C740 1.391 . S
C739 C738 1.386 . S
C739 C743 1.393 . S
C740 H729 0.950 . S
C740 C738 1.391 . S
C740 C741 1.400 . S
C741 C735 1.491 . S
C741 C740 1.400 . S
C741 C742 1.398 . S
C742 H730 0.950 . S
C742 C741 1.398 . S
C742 C743 1.391 . S
C743 H731 0.950 . S
C743 C739 1.393 . S
C743 C742 1.391 . S
H744 C752 0.950 . S
H745 C757 0.950 . S
H746 C754 0.950 . S
H747 C756 0.950 . S
H748 C758 0.950 . S
H749 C760 0.950 . S
H750 C762 0.950 . S
H751 C763 0.950 . S
C752 H744 0.950 . S
C752 C753 1.386 . S
C752 C754 1.391 . S
C753 C752 1.386 . S
C753 C757 1.393 . S
C754 H746 0.950 . S
C754 C752 1.391 . S
C754 C755 1.400 . S
C755 C754 1.400 . S
C755 C756 1.398 . S
C755 C761 1.491 . S
C756 H747 0.950 . S
C756 C755 1.398 . S
C756 C757 1.391 . S
C757 H745 0.950 . S
C757 C753 1.393 . S
C757 C756 1.391 . S
C758 H748 0.950 . S
C758 C759 1.386 . S
C758 C760 1.391 . S
C759 C758 1.386 . S
C759 C763 1.393 . S
C760 H749 0.950 . S
C760 C758 1.391 . S
C760 C761 1.400 . S
C761 C755 1.491 . S
C761 C760 1.400 . S
C761 C762 1.398 . S
C762 H750 0.950 . S
C762 C761 1.398 . S
C762 C763 1.391 . S
C763 H751 0.950 . S
C763 C759 1.393 . S
C763 C762 1.391 . S
H764 C772 0.950 . S
H765 C777 0.950 . S
H766 C774 0.950 . S
H767 C776 0.950 . S
H768 C778 0.950 . S
H769 C780 0.950 . S
H770 C782 0.950 . S
H771 C783 0.950 . S
C772 H764 0.950 . S
C772 C773 1.386 . S
C772 C774 1.391 . S
C773 C772 1.386 . S
C773 C777 1.393 . S
C774 H766 0.950 . S
C774 C772 1.391 . S
C774 C775 1.400 . S
C775 C774 1.400 . S
C775 C776 1.398 . S
C775 C781 1.491 . S
C776 H767 0.950 . S
C776 C775 1.398 . S
C776 C777 1.391 . S
C777 H765 0.950 . S
C777 C773 1.393 . S
C777 C776 1.391 . S
C778 H768 0.950 . S
C778 C779 1.386 . S
C778 C780 1.391 . S
C779 C778 1.386 . S
C779 C783 1.393 . S
C780 H769 0.950 . S
C780 C778 1.391 . S
C780 C781 1.400 . S
C781 C775 1.491 . S
C781 C780 1.400 . S
C781 C782 1.398 . S
C782 H770 0.950 . S
C782 C781 1.398 . S
C782 C783 1.391 . S
C783 H771 0.950 . S
C783 C779 1.393 . S
C783 C782 1.391 . S
H784 C792 0.950 . S
H785 C797 0.950 . S
H786 C794 0.950 . S
H787 C796 0.950 . S
H788 C798 0.950 . S
H789 C800 0.950 . S
H790 C802 0.950 . S
H791 C803 0.950 . S
C792 H784 0.950 . S
C792 C793 1.386 . S
C792 C794 1.391 . S
C793 C792 1.386 . S
C793 C797 1.393 . S
C794 H786 0.950 . S
C794 C792 1.391 . S
C794 C795 1.400 . S
C795 C794 1.400 . S
C795 C796 1.398 . S
C795 C801 1.491 . S
C796 H787 0.950 . S
C796 C795 1.398 . S
C796 C797 1.391 . S
C797 H785 0.950 . S
C797 C793 1.393 . S
C797 C796 1.391 . S
C798 H788 0.950 . S
C798 C799 1.386 . S
C798 C800 1.391 . S
C799 C798 1.386 . S
C799 C803 1.393 . S
C800 H789 0.950 . S
C800 C798 1.391 . S
C800 C801 1.400 . S
C801 C795 1.491 . S
C801 C800 1.400 . S
C801 C802 1.398 . S
C802 H790 0.950 . S
C802 C801 1.398 . S
C802 C803 1.391 . S
C803 H791 0.950 . S
C803 C799 1.393 . S
C803 C802 1.391 . S
H804 C812 0.950 . S
H805 C817 0.950 . S
H806 C814 0.950 . S
H807 C816 0.950 . S
H808 C818 0.950 . S
H809 C820 0.950 . S
H810 C822 0.950 . S
H811 C823 0.950 . S
C812 H804 0.950 . S
C812 C813 1.386 . S
C812 C814 1.391 . S
C813 C812 1.386 . S
C813 C817 1.393 . S
C814 H806 0.950 . S
C814 C812 1.391 . S
C814 C815 1.400 . S
C815 C814 1.400 . S
C815 C816 1.398 . S
C815 C821 1.491 . S
C816 H807 0.950 . S
C816 C815 1.398 . S
C816 C817 1.391 . S
C817 H805 0.950 . S
C817 C813 1.393 . S
C817 C816 1.391 . S
C818 H808 0.950 . S
C818 C819 1.386 . S
C818 C820 1.391 . S
C819 C818 1.386 . S
C819 C823 1.393 . S
C820 H809 0.950 . S
C820 C818 1.391 . S
C820 C821 1.400 . S
C821 C815 1.491 . S
C821 C820 1.400 . S
C821 C822 1.398 . S
C822 H810 0.950 . S
C822 C821 1.398 . S
C822 C823 1.391 . S
C823 H811 0.950 . S
C823 C819 1.393 . S
C823 C822 1.391 . S
H824 C832 0.950 . S
H825 C837 0.950 . S
H826 C834 0.950 . S
H827 C836 0.950 . S
H828 C838 0.950 . S
H829 C840 0.950 . S
H830 C842 0.950 . S
H831 C843 0.950 . S
C832 H824 0.950 . S
C832 C833 1.386 . S
C832 C834 1.391 . S
C833 C832 1.386 . S
C833 C837 1.393 . S
C834 H826 0.950 . S
C834 C832 1.391 . S
C834 C835 1.400 . S
C835 C834 1.400 . S
C835 C836 1.398 . S
C835 C841 1.491 . S
C836 H827 0.950 . S
C836 C835 1.398 . S
C836 C837 1.391 . S
C837 H825 0.950 . S
C837 C833 1.393 . S
C837 C836 1.391 . S
C838 H828 0.950 . S
C838 C839 1.386 . S
C838 C840 1.391 . S
C839 C838 1.386 . S
C839 C843 1.393 . S
C840 H829 0.950 . S
C840 C838 1.391 . S
C840 C841 1.400 . S
C841 C835 1.491 . S
C841 C840 1.400 . S
C841 C842 1.398 . S
C842 H830 0.950 . S
C842 C841 1.398 . S
C842 C843 1.391 . S
C843 H831 0.950 . S
C843 C839 1.393 . S
C843 C842 1.391 . S
H844 C852 0.950 . S
H845 C857 0.950 . S
H846 C854 0.950 . S
H847 C856 0.950 . S
H848 C858 0.950 . S
H849 C860 0.950 . S
H850 C862 0.950 . S
H851 C863 0.950 . S
C852 H844 0.950 . S
C852 C853 1.386 . S
C852 C854 1.391 . S
C853 C852 1.386 . S
C853 C857 1.393 . S
C854 H846 0.950 . S
C854 C852 1.391 . S
C854 C855 1.400 . S
C855 C854 1.400 . S
C855 C856 1.398 . S
C855 C861 1.491 . S
C856 H847 0.950 . S
C856 C855 1.398 . S
C856 C857 1.391 . S
C857 H845 0.950 . S
C857 C853 1.393 . S
C857 C856 1.391 . S
C858 H848 0.950 . S
C858 C859 1.386 . S
C858 C860 1.391 . S
C859 C858 1.386 . S
C859 C863 1.393 . S
C860 H849 0.950 . S
C860 C858 1.391 . S
C860 C861 1.400 . S
C861 C855 1.491 . S
C861 C860 1.400 . S
C861 C862 1.398 . S
C862 H850 0.950 . S
C862 C861 1.398 . S
C862 C863 1.391 . S
C863 H851 0.950 . S
C863 C859 1.393 . S
C863 C862 1.391 . S
H864 C872 0.950 . S
H865 C877 0.950 . S
H866 C874 0.950 . S
H867 C876 0.950 . S
H868 C878 0.950 . S
H869 C880 0.950 . S
H870 C882 0.950 . S
H871 C883 0.950 . S
C872 H864 0.950 . S
C872 C873 1.386 . S
C872 C874 1.391 . S
C873 C872 1.386 . S
C873 C877 1.393 . S
C874 H866 0.950 . S
C874 C872 1.391 . S
C874 C875 1.400 . S
C875 C874 1.400 . S
C875 C876 1.398 . S
C875 C881 1.491 1_554 S
C876 H867 0.950 . S
C876 C875 1.398 . S
C876 C877 1.391 . S
C877 H865 0.950 . S
C877 C873 1.393 . S
C877 C876 1.391 . S
C878 H868 0.950 . S
C878 C879 1.386 . S
C878 C880 1.391 . S
C879 C878 1.386 . S
C879 C883 1.393 . S
C880 H869 0.950 . S
C880 C878 1.391 . S
C880 C881 1.400 . S
C881 C875 1.491 1_556 S
C881 C880 1.400 . S
C881 C882 1.398 . S
C882 H870 0.950 . S
C882 C881 1.398 . S
C882 C883 1.391 . S
C883 H871 0.950 . S
C883 C879 1.393 . S
C883 C882 1.391 . S
H884 C892 0.950 . S
H885 C897 0.950 . S
H886 C894 0.950 . S
H887 C896 0.950 . S
H888 C898 0.950 . S
H889 C900 0.950 . S
H890 C902 0.950 . S
H891 C903 0.950 . S
C892 H884 0.950 . S
C892 C893 1.386 . S
C892 C894 1.391 . S
C893 C892 1.386 . S
C893 C897 1.393 . S
C894 H886 0.950 . S
C894 C892 1.391 . S
C894 C895 1.400 . S
C895 C894 1.400 . S
C895 C896 1.398 . S
C895 C901 1.491 . S
C896 H887 0.950 . S
C896 C895 1.398 . S
C896 C897 1.391 . S
C897 H885 0.950 . S
C897 C893 1.393 . S
C897 C896 1.391 . S
C898 H888 0.950 . S
C898 C899 1.386 . S
C898 C900 1.391 . S
C899 C898 1.386 . S
C899 C903 1.393 . S
C900 H889 0.950 . S
C900 C898 1.391 . S
C900 C901 1.400 . S
C901 C895 1.491 . S
C901 C900 1.400 . S
C901 C902 1.398 . S
C902 H890 0.950 . S
C902 C901 1.398 . S
C902 C903 1.391 . S
C903 H891 0.950 . S
C903 C899 1.393 . S
C903 C902 1.391 . S
H904 C912 0.950 . S
H905 C917 0.950 . S
H906 C914 0.950 . S
H907 C916 0.950 . S
H908 C918 0.950 . S
H909 C920 0.950 . S
H910 C922 0.950 . S
H911 C923 0.950 . S
C912 H904 0.950 . S
C912 C913 1.386 . S
C912 C914 1.391 . S
C913 C912 1.386 . S
C913 C917 1.393 . S
C914 H906 0.950 . S
C914 C912 1.391 . S
C914 C915 1.400 . S
C915 C914 1.400 . S
C915 C916 1.398 . S
C915 C921 1.491 1_556 S
C916 H907 0.950 . S
C916 C915 1.398 . S
C916 C917 1.391 . S
C917 H905 0.950 . S
C917 C913 1.393 . S
C917 C916 1.391 . S
C918 H908 0.950 . S
C918 C919 1.386 . S
C918 C920 1.391 . S
C919 C918 1.386 . S
C919 C923 1.393 . S
C920 H909 0.950 . S
C920 C918 1.391 . S
C920 C921 1.400 . S
C921 C915 1.491 1_554 S
C921 C920 1.400 . S
C921 C922 1.398 . S
C922 H910 0.950 . S
C922 C921 1.398 . S
C922 C923 1.391 . S
C923 H911 0.950 . S
C923 C919 1.393 . S
C923 C922 1.391 . S
H924 C932 0.950 . S
H925 C937 0.950 . S
H926 C934 0.950 . S
H927 C936 0.950 . S
H928 C938 0.950 . S
H929 C940 0.950 . S
H930 C942 0.950 . S
H931 C943 0.950 . S
C932 H924 0.950 . S
C932 C933 1.386 . S
C932 C934 1.391 . S
C933 C932 1.386 . S
C933 C937 1.393 . S
C934 H926 0.950 . S
C934 C932 1.391 . S
C934 C935 1.400 . S
C935 C934 1.400 . S
C935 C936 1.398 . S
C935 C941 1.491 . S
C936 H927 0.950 . S
C936 C935 1.398 . S
C936 C937 1.391 . S
C937 H925 0.950 . S
C937 C933 1.393 . S
C937 C936 1.391 . S
C938 H928 0.950 . S
C938 C939 1.386 . S
C938 C940 1.391 . S
C939 C938 1.386 . S
C939 C943 1.393 . S
C940 H929 0.950 . S
C940 C938 1.391 . S
C940 C941 1.400 . S
C941 C935 1.491 . S
C941 C940 1.400 . S
C941 C942 1.398 . S
C942 H930 0.950 . S
C942 C941 1.398 . S
C942 C943 1.391 . S
C943 H931 0.950 . S
C943 C939 1.393 . S
C943 C942 1.391 . S
H944 C952 0.950 . S
H945 C957 0.950 . S
H946 C954 0.950 . S
H947 C956 0.950 . S
H948 C958 0.950 . S
H949 C960 0.950 . S
H950 C962 0.950 . S
H951 C963 0.950 . S
C952 H944 0.950 . S
C952 C953 1.386 . S
C952 C954 1.391 . S
C953 C952 1.386 . S
C953 C957 1.393 . S
C954 H946 0.950 . S
C954 C952 1.391 . S
C954 C955 1.400 . S
C955 C954 1.400 . S
C955 C956 1.398 . S
C955 C961 1.491 1_556 S
C956 H947 0.950 . S
C956 C955 1.398 . S
C956 C957 1.391 . S
C957 H945 0.950 . S
C957 C953 1.393 . S
C957 C956 1.391 . S
C958 H948 0.950 . S
C958 C959 1.386 . S
C958 C960 1.391 . S
C959 C958 1.386 . S
C959 C963 1.393 . S
C960 H949 0.950 . S
C960 C958 1.391 . S
C960 C961 1.400 . S
C961 C955 1.491 1_554 S
C961 C960 1.400 . S
C961 C962 1.398 . S
C962 H950 0.950 . S
C962 C961 1.398 . S
C962 C963 1.391 . S
C963 H951 0.950 . S
C963 C959 1.393 . S
C963 C962 1.391 . S
H964 C972 0.950 . S
H965 C977 0.950 . S
H966 C974 0.950 . S
H967 C976 0.950 . S
H968 C978 0.950 . S
H969 C980 0.950 . S
H970 C982 0.950 . S
H971 C983 0.950 . S
C972 H964 0.950 . S
C972 C973 1.386 . S
C972 C974 1.391 . S
C973 C972 1.386 . S
C973 C977 1.393 . S
C974 H966 0.950 . S
C974 C972 1.391 . S
C974 C975 1.400 . S
C975 C974 1.400 . S
C975 C976 1.398 . S
C975 C981 1.491 . S
C976 H967 0.950 . S
C976 C975 1.398 . S
C976 C977 1.391 . S
C977 H965 0.950 . S
C977 C973 1.393 . S
C977 C976 1.391 . S
C978 H968 0.950 . S
C978 C979 1.386 . S
C978 C980 1.391 . S
C979 C978 1.386 . S
C979 C983 1.393 . S
C980 H969 0.950 . S
C980 C978 1.391 . S
C980 C981 1.400 . S
C981 C975 1.491 . S
C981 C980 1.400 . S
C981 C982 1.398 . S
C982 H970 0.950 . S
C982 C981 1.398 . S
C982 C983 1.391 . S
C983 H971 0.950 . S
C983 C979 1.393 . S
C983 C982 1.391 . S
H984 C992 0.950 . S
H985 C997 0.950 . S
H986 C994 0.950 . S
H987 C996 0.950 . S
H988 C998 0.950 . S
H989 C1000 0.950 . S
H990 C1002 0.950 . S
H991 C1003 0.950 . S
C992 H984 0.950 . S
C992 C993 1.386 . S
C992 C994 1.391 . S
C993 C992 1.386 . S
C993 C997 1.393 . S
C994 H986 0.950 . S
C994 C992 1.391 . S
C994 C995 1.400 . S
C995 C994 1.400 . S
C995 C996 1.398 . S
C995 C1001 1.491 1_554 S
C996 H987 0.950 . S
C996 C995 1.398 . S
C996 C997 1.391 . S
C997 H985 0.950 . S
C997 C993 1.393 . S
C997 C996 1.391 . S
C998 H988 0.950 . S
C998 C999 1.386 . S
C998 C1000 1.391 . S
C999 C998 1.386 . S
C999 C1003 1.393 . S
C1000 H989 0.950 . S
C1000 C998 1.391 . S
C1000 C1001 1.400 . S
C1001 C995 1.491 1_556 S
C1001 C1000 1.400 . S
C1001 C1002 1.398 . S
C1002 H990 0.950 . S
C1002 C1001 1.398 . S
C1002 C1003 1.391 . S
C1003 H991 0.950 . S
C1003 C999 1.393 . S
C1003 C1002 1.391 . S
H1004 C1012 0.950 . S
H1005 C1017 0.950 . S
H1006 C1014 0.950 . S
H1007 C1016 0.950 . S
H1008 C1018 0.950 . S
H1009 C1020 0.950 . S
H1010 C1022 0.950 . S
H1011 C1023 0.950 . S
C1012 H1004 0.950 . S
C1012 C1013 1.386 . S
C1012 C1014 1.391 . S
C1013 C1012 1.386 . S
C1013 C1017 1.393 . S
C1014 H1006 0.950 . S
C1014 C1012 1.391 . S
C1014 C1015 1.400 . S
C1015 C1014 1.400 . S
C1015 C1016 1.398 . S
C1015 C1021 1.491 . S
C1016 H1007 0.950 . S
C1016 C1015 1.398 . S
C1016 C1017 1.391 . S
C1017 H1005 0.950 . S
C1017 C1013 1.393 . S
C1017 C1016 1.391 . S
C1018 H1008 0.950 . S
C1018 C1019 1.386 . S
C1018 C1020 1.391 . S
C1019 C1018 1.386 . S
C1019 C1023 1.393 . S
C1020 H1009 0.950 . S
C1020 C1018 1.391 . S
C1020 C1021 1.400 . S
C1021 C1015 1.491 . S
C1021 C1020 1.400 . S
C1021 C1022 1.398 . S
C1022 H1010 0.950 . S
C1022 C1021 1.398 . S
C1022 C1023 1.391 . S
C1023 H1011 0.950 . S
C1023 C1019 1.393 . S
C1023 C1022 1.391 . S
H1024 C1032 0.950 . S
H1025 C1037 0.950 . S
H1026 C1034 0.950 . S
H1027 C1036 0.950 . S
H1028 C1038 0.950 . S
H1029 C1040 0.950 . S
H1030 C1042 0.950 . S
H1031 C1043 0.950 . S
C1032 H1024 0.950 . S
C1032 C1033 1.386 . S
C1032 C1034 1.391 . S
C1033 C1032 1.386 . S
C1033 C1037 1.393 . S
C1034 H1026 0.950 . S
C1034 C1032 1.391 . S
C1034 C1035 1.400 . S
C1035 C1034 1.400 . S
C1035 C1036 1.398 . S
C1035 C1041 1.491 . S
C1036 H1027 0.950 . S
C1036 C1035 1.398 . S
C1036 C1037 1.391 . S
C1037 H1025 0.950 . S
C1037 C1033 1.393 . S
C1037 C1036 1.391 . S
C1038 H1028 0.950 . S
C1038 C1039 1.386 . S
C1038 C1040 1.391 . S
C1039 C1038 1.386 . S
C1039 C1043 1.393 . S
C1040 H1029 0.950 . S
C1040 C1038 1.391 . S
C1040 C1041 1.400 . S
C1041 C1035 1.491 . S
C1041 C1040 1.400 . S
C1041 C1042 1.398 . S
C1042 H1030 0.950 . S
C1042 C1041 1.398 . S
C1042 C1043 1.391 . S
C1043 H1031 0.950 . S
C1043 C1039 1.393 . S
C1043 C1042 1.391 . S
H1044 C1052 0.950 . S
H1045 C1057 0.950 . S
H1046 C1054 0.950 . S
H1047 C1056 0.950 . S
H1048 C1058 0.950 . S
H1049 C1060 0.950 . S
H1050 C1062 0.950 . S
H1051 C1063 0.950 . S
C1052 H1044 0.950 . S
C1052 C1053 1.386 . S
C1052 C1054 1.391 . S
C1053 C1052 1.386 . S
C1053 C1057 1.393 . S
C1054 H1046 0.950 . S
C1054 C1052 1.391 . S
C1054 C1055 1.400 . S
C1055 C1054 1.400 . S
C1055 C1056 1.398 . S
C1055 C1061 1.491 . S
C1056 H1047 0.950 . S
C1056 C1055 1.398 . S
C1056 C1057 1.391 . S
C1057 H1045 0.950 . S
C1057 C1053 1.393 . S
C1057 C1056 1.391 . S
C1058 H1048 0.950 . S
C1058 C1059 1.386 . S
C1058 C1060 1.391 . S
C1059 C1058 1.386 . S
C1059 C1063 1.393 . S
C1060 H1049 0.950 . S
C1060 C1058 1.391 . S
C1060 C1061 1.400 . S
C1061 C1055 1.491 . S
C1061 C1060 1.400 . S
C1061 C1062 1.398 . S
C1062 H1050 0.950 . S
C1062 C1061 1.398 . S
C1062 C1063 1.391 . S
C1063 H1051 0.950 . S
C1063 C1059 1.393 . S
C1063 C1062 1.391 . S
H1064 C1072 0.950 . S
H1065 C1077 0.950 . S
H1066 C1074 0.950 . S
H1067 C1076 0.950 . S
H1068 C1078 0.950 . S
H1069 C1080 0.950 . S
H1070 C1082 0.950 . S
H1071 C1083 0.950 . S
C1072 H1064 0.950 . S
C1072 C1073 1.386 . S
C1072 C1074 1.391 . S
C1073 C1072 1.386 . S
C1073 C1077 1.393 . S
C1074 H1066 0.950 . S
C1074 C1072 1.391 . S
C1074 C1075 1.400 . S
C1075 C1074 1.400 . S
C1075 C1076 1.398 . S
C1075 C1081 1.491 . S
C1076 H1067 0.950 . S
C1076 C1075 1.398 . S
C1076 C1077 1.391 . S
C1077 H1065 0.950 . S
C1077 C1073 1.393 . S
C1077 C1076 1.391 . S
C1078 H1068 0.950 . S
C1078 C1079 1.386 . S
C1078 C1080 1.391 . S
C1079 C1078 1.386 . S
C1079 C1083 1.393 . S
C1080 H1069 0.950 . S
C1080 C1078 1.391 . S
C1080 C1081 1.400 . S
C1081 C1075 1.491 . S
C1081 C1080 1.400 . S
C1081 C1082 1.398 . S
C1082 H1070 0.950 . S
C1082 C1081 1.398 . S
C1082 C1083 1.391 . S
C1083 H1071 0.950 . S
C1083 C1079 1.393 . S
C1083 C1082 1.391 . S
H1084 C1092 0.950 . S
H1085 C1097 0.950 . S
H1086 C1094 0.950 . S
H1087 C1096 0.950 . S
H1088 C1098 0.950 . S
H1089 C1100 0.950 . S
H1090 C1102 0.950 . S
H1091 C1103 0.950 . S
C1092 H1084 0.950 . S
C1092 C1093 1.386 . S
C1092 C1094 1.391 . S
C1093 C1092 1.386 . S
C1093 C1097 1.393 . S
C1094 H1086 0.950 . S
C1094 C1092 1.391 . S
C1094 C1095 1.400 . S
C1095 C1094 1.400 . S
C1095 C1096 1.398 . S
C1095 C1101 1.491 . S
C1096 H1087 0.950 . S
C1096 C1095 1.398 . S
C1096 C1097 1.391 . S
C1097 H1085 0.950 . S
C1097 C1093 1.393 . S
C1097 C1096 1.391 . S
C1098 H1088 0.950 . S
C1098 C1099 1.386 . S
C1098 C1100 1.391 . S
C1099 C1098 1.386 . S
C1099 C1103 1.393 . S
C1100 H1089 0.950 . S
C1100 C1098 1.391 . S
C1100 C1101 1.400 . S
C1101 C1095 1.491 . S
C1101 C1100 1.400 . S
C1101 C1102 1.398 . S
C1102 H1090 0.950 . S
C1102 C1101 1.398 . S
C1102 C1103 1.391 . S
C1103 H1091 0.950 . S
C1103 C1099 1.393 . S
C1103 C1102 1.391 . S
H1104 C1112 0.950 . S
H1105 C1117 0.950 . S
H1106 C1114 0.950 . S
H1107 C1116 0.950 . S
H1108 C1118 0.950 . S
H1109 C1120 0.950 . S
H1110 C1122 0.950 . S
H1111 C1123 0.950 . S
C1112 H1104 0.950 . S
C1112 C1113 1.386 . S
C1112 C1114 1.391 . S
C1113 C1112 1.386 . S
C1113 C1117 1.393 . S
C1114 H1106 0.950 . S
C1114 C1112 1.391 . S
C1114 C1115 1.400 . S
C1115 C1114 1.400 . S
C1115 C1116 1.398 . S
C1115 C1121 1.491 . S
C1116 H1107 0.950 . S
C1116 C1115 1.398 . S
C1116 C1117 1.391 . S
C1117 H1105 0.950 . S
C1117 C1113 1.393 . S
C1117 C1116 1.391 . S
C1118 H1108 0.950 . S
C1118 C1119 1.386 . S
C1118 C1120 1.391 . S
C1119 C1118 1.386 . S
C1119 C1123 1.393 . S
C1120 H1109 0.950 . S
C1120 C1118 1.391 . S
C1120 C1121 1.400 . S
C1121 C1115 1.491 . S
C1121 C1120 1.400 . S
C1121 C1122 1.398 . S
C1122 H1110 0.950 . S
C1122 C1121 1.398 . S
C1122 C1123 1.391 . S
C1123 H1111 0.950 . S
C1123 C1119 1.393 . S
C1123 C1122 1.391 . S
H1124 C1132 0.950 . S
H1125 C1137 0.950 . S
H1126 C1134 0.950 . S
H1127 C1136 0.950 . S
H1128 C1138 0.950 . S
H1129 C1140 0.950 . S
H1130 C1142 0.950 . S
H1131 C1143 0.950 . S
C1132 H1124 0.950 . S
C1132 C1133 1.386 . S
C1132 C1134 1.391 . S
C1133 C1132 1.386 . S
C1133 C1137 1.393 . S
C1134 H1126 0.950 . S
C1134 C1132 1.391 . S
C1134 C1135 1.400 . S
C1135 C1134 1.400 . S
C1135 C1136 1.398 . S
C1135 C1141 1.491 . S
C1136 H1127 0.950 . S
C1136 C1135 1.398 . S
C1136 C1137 1.391 . S
C1137 H1125 0.950 . S
C1137 C1133 1.393 . S
C1137 C1136 1.391 . S
C1138 H1128 0.950 . S
C1138 C1139 1.386 . S
C1138 C1140 1.391 . S
C1139 C1138 1.386 . S
C1139 C1143 1.393 . S
C1140 H1129 0.950 . S
C1140 C1138 1.391 . S
C1140 C1141 1.400 . S
C1141 C1135 1.491 . S
C1141 C1140 1.400 . S
C1141 C1142 1.398 . S
C1142 H1130 0.950 . S
C1142 C1141 1.398 . S
C1142 C1143 1.391 . S
C1143 H1131 0.950 . S
C1143 C1139 1.393 . S
C1143 C1142 1.391 . S
H1144 C1152 0.950 . S
H1145 C1157 0.950 . S
H1146 C1154 0.950 . S
H1147 C1156 0.950 . S
H1148 C1158 0.950 . S
H1149 C1160 0.950 . S
H1150 C1162 0.950 . S
H1151 C1163 0.950 . S
C1152 H1144 0.950 . S
C1152 C1153 1.386 . S
C1152 C1154 1.391 . S
C1153 C1152 1.386 . S
C1153 C1157 1.393 . S
C1154 H1146 0.950 . S
C1154 C1152 1.391 . S
C1154 C1155 1.400 . S
C1155 C1154 1.400 . S
C1155 C1156 1.398 . S
C1155 C1161 1.491 . S
C1156 H1147 0.950 . S
C1156 C1155 1.398 . S
C1156 C1157 1.391 . S
C1157 H1145 0.950 . S
C1157 C1153 1.393 . S
C1157 C1156 1.391 . S
C1158 H1148 0.950 . S
C1158 C1159 1.386 . S
C1158 C1160 1.391 . S
C1159 C1158 1.386 . S
C1159 C1163 1.393 . S
C1160 H1149 0.950 . S
C1160 C1158 1.391 . S
C1160 C1161 1.400 . S
C1161 C1155 1.491 . S
C1161 C1160 1.400 . S
C1161 C1162 1.398 . S
C1162 H1150 0.950 . S
C1162 C1161 1.398 . S
C1162 C1163 1.391 . S
C1163 H1151 0.950 . S
C1163 C1159 1.393 . S
C1163 C1162 1.391 . S
H1164 C1172 0.950 . S
H1165 C1177 0.950 . S
H1166 C1174 0.950 . S
H1167 C1176 0.950 . S
H1168 C1178 0.950 . S
H1169 C1180 0.950 . S
H1170 C1182 0.950 . S
H1171 C1183 0.950 . S
C1172 H1164 0.950 . S
C1172 C1173 1.386 . S
C1172 C1174 1.391 . S
C1173 C1172 1.386 . S
C1173 C1177 1.393 . S
C1174 H1166 0.950 . S
C1174 C1172 1.391 . S
C1174 C1175 1.400 . S
C1175 C1174 1.400 . S
C1175 C1176 1.398 . S
C1175 C1181 1.491 . S
C1176 H1167 0.950 . S
C1176 C1175 1.398 . S
C1176 C1177 1.391 . S
C1177 H1165 0.950 . S
C1177 C1173 1.393 . S
C1177 C1176 1.391 . S
C1178 H1168 0.950 . S
C1178 C1179 1.386 . S
C1178 C1180 1.391 . S
C1179 C1178 1.386 . S
C1179 C1183 1.393 . S
C1180 H1169 0.950 . S
C1180 C1178 1.391 . S
C1180 C1181 1.400 . S
C1181 C1175 1.491 . S
C1181 C1180 1.400 . S
C1181 C1182 1.398 . S
C1182 H1170 0.950 . S
C1182 C1181 1.398 . S
C1182 C1183 1.391 . S
C1183 H1171 0.950 . S
C1183 C1179 1.393 . S
C1183 C1182 1.391 . S
H1184 C1192 0.950 . S
H1185 C1197 0.950 . S
H1186 C1194 0.950 . S
H1187 C1196 0.950 . S
H1188 C1198 0.950 . S
H1189 C1200 0.950 . S
H1190 C1202 0.950 . S
H1191 C1203 0.950 . S
C1192 H1184 0.950 . S
C1192 C1193 1.386 . S
C1192 C1194 1.391 . S
C1193 C1192 1.386 . S
C1193 C1197 1.393 . S
C1194 H1186 0.950 . S
C1194 C1192 1.391 . S
C1194 C1195 1.400 . S
C1195 C1194 1.400 . S
C1195 C1196 1.398 . S
C1195 C1201 1.491 . S
C1196 H1187 0.950 . S
C1196 C1195 1.398 . S
C1196 C1197 1.391 . S
C1197 H1185 0.950 . S
C1197 C1193 1.393 . S
C1197 C1196 1.391 . S
C1198 H1188 0.950 . S
C1198 C1199 1.386 . S
C1198 C1200 1.391 . S
C1199 C1198 1.386 . S
C1199 C1203 1.393 . S
C1200 H1189 0.950 . S
C1200 C1198 1.391 . S
C1200 C1201 1.400 . S
C1201 C1195 1.491 . S
C1201 C1200 1.400 . S
C1201 C1202 1.398 . S
C1202 H1190 0.950 . S
C1202 C1201 1.398 . S
C1202 C1203 1.391 . S
C1203 H1191 0.950 . S
C1203 C1199 1.393 . S
C1203 C1202 1.391 . S
H1204 C1212 0.950 . S
H1205 C1217 0.950 . S
H1206 C1214 0.950 . S
H1207 C1216 0.950 . S
H1208 C1218 0.950 . S
H1209 C1220 0.950 . S
H1210 C1222 0.950 . S
H1211 C1223 0.950 . S
C1212 H1204 0.950 . S
C1212 C1213 1.386 . S
C1212 C1214 1.391 . S
C1213 C1212 1.386 . S
C1213 C1217 1.393 . S
C1214 H1206 0.950 . S
C1214 C1212 1.391 . S
C1214 C1215 1.400 . S
C1215 C1214 1.400 . S
C1215 C1216 1.398 . S
C1215 C1221 1.491 . S
C1216 H1207 0.950 . S
C1216 C1215 1.398 . S
C1216 C1217 1.391 . S
C1217 H1205 0.950 . S
C1217 C1213 1.393 . S
C1217 C1216 1.391 . S
C1218 H1208 0.950 . S
C1218 C1219 1.386 . S
C1218 C1220 1.391 . S
C1219 C1218 1.386 . S
C1219 C1223 1.393 . S
C1220 H1209 0.950 . S
C1220 C1218 1.391 . S
C1220 C1221 1.400 . S
C1221 C1215 1.491 . S
C1221 C1220 1.400 . S
C1221 C1222 1.398 . S
C1222 H1210 0.950 . S
C1222 C1221 1.398 . S
C1222 C1223 1.391 . S
C1223 H1211 0.950 . S
C1223 C1219 1.393 . S
C1223 C1222 1.391 . S
H1224 C1232 0.950 . S
H1225 C1237 0.950 . S
H1226 C1234 0.950 . S
H1227 C1236 0.950 . S
H1228 C1238 0.950 . S
H1229 C1240 0.950 . S
H1230 C1242 0.950 . S
H1231 C1243 0.950 . S
C1232 H1224 0.950 . S
C1232 C1233 1.386 . S
C1232 C1234 1.391 . S
C1233 C1232 1.386 . S
C1233 C1237 1.393 . S
C1234 H1226 0.950 . S
C1234 C1232 1.391 . S
C1234 C1235 1.400 . S
C1235 C1234 1.400 . S
C1235 C1236 1.398 . S
C1235 C1241 1.491 . S
C1236 H1227 0.950 . S
C1236 C1235 1.398 . S
C1236 C1237 1.391 . S
C1237 H1225 0.950 . S
C1237 C1233 1.393 . S
C1237 C1236 1.391 . S
C1238 H1228 0.950 . S
C1238 C1239 1.386 . S
C1238 C1240 1.391 . S
C1239 C1238 1.386 . S
C1239 C1243 1.393 . S
C1240 H1229 0.950 . S
C1240 C1238 1.391 . S
C1240 C1241 1.400 . S
C1241 C1235 1.491 . S
C1241 C1240 1.400 . S
C1241 C1242 1.398 . S
C1242 H1230 0.950 . S
C1242 C1241 1.398 . S
C1242 C1243 1.391 . S
C1243 H1231 0.950 . S
C1243 C1239 1.393 . S
C1243 C1242 1.391 . S
H1244 C1252 0.950 . S
H1245 C1257 0.950 . S
H1246 C1254 0.950 . S
H1247 C1256 0.950 . S
H1248 C1258 0.950 . S
H1249 C1260 0.950 . S
H1250 C1262 0.950 . S
H1251 C1263 0.950 . S
C1252 H1244 0.950 . S
C1252 C1253 1.386 . S
C1252 C1254 1.391 . S
C1253 C1252 1.386 . S
C1253 C1257 1.393 . S
C1254 H1246 0.950 . S
C1254 C1252 1.391 . S
C1254 C1255 1.400 . S
C1255 C1254 1.400 . S
C1255 C1256 1.398 . S
C1255 C1261 1.491 . S
C1256 H1247 0.950 . S
C1256 C1255 1.398 . S
C1256 C1257 1.391 . S
C1257 H1245 0.950 . S
C1257 C1253 1.393 . S
C1257 C1256 1.391 . S
C1258 H1248 0.950 . S
C1258 C1259 1.386 . S
C1258 C1260 1.391 . S
C1259 C1258 1.386 . S
C1259 C1263 1.393 . S
C1260 H1249 0.950 . S
C1260 C1258 1.391 . S
C1260 C1261 1.400 . S
C1261 C1255 1.491 . S
C1261 C1260 1.400 . S
C1261 C1262 1.398 . S
C1262 H1250 0.950 . S
C1262 C1261 1.398 . S
C1262 C1263 1.391 . S
C1263 H1251 0.950 . S
C1263 C1259 1.393 . S
C1263 C1262 1.391 . S
H1264 C1272 0.950 . S
H1265 C1277 0.950 . S
H1266 C1274 0.950 . S
H1267 C1276 0.950 . S
H1268 C1278 0.950 . S
H1269 C1280 0.950 . S
H1270 C1282 0.950 . S
H1271 C1283 0.950 . S
C1272 H1264 0.950 . S
C1272 C1273 1.386 . S
C1272 C1274 1.391 . S
C1273 C1272 1.386 . S
C1273 C1277 1.393 . S
C1274 H1266 0.950 . S
C1274 C1272 1.391 . S
C1274 C1275 1.400 . S
C1275 C1274 1.400 . S
C1275 C1276 1.398 . S
C1275 C1281 1.491 . S
C1276 H1267 0.950 . S
C1276 C1275 1.398 . S
C1276 C1277 1.391 . S
C1277 H1265 0.950 . S
C1277 C1273 1.393 . S
C1277 C1276 1.391 . S
C1278 H1268 0.950 . S
C1278 C1279 1.386 . S
C1278 C1280 1.391 . S
C1279 C1278 1.386 . S
C1279 C1283 1.393 . S
C1280 H1269 0.950 . S
C1280 C1278 1.391 . S
C1280 C1281 1.400 . S
C1281 C1275 1.491 . S
C1281 C1280 1.400 . S
C1281 C1282 1.398 . S
C1282 H1270 0.950 . S
C1282 C1281 1.398 . S
C1282 C1283 1.391 . S
C1283 H1271 0.950 . S
C1283 C1279 1.393 . S
C1283 C1282 1.391 . S
H1284 C1292 0.950 . S
H1285 C1297 0.950 . S
H1286 C1294 0.950 . S
H1287 C1296 0.950 . S
H1288 C1298 0.950 . S
H1289 C1300 0.950 . S
H1290 C1302 0.950 . S
H1291 C1303 0.950 . S
C1292 H1284 0.950 . S
C1292 C1293 1.386 . S
C1292 C1294 1.391 . S
C1293 C1292 1.386 . S
C1293 C1297 1.393 . S
C1294 H1286 0.950 . S
C1294 C1292 1.391 . S
C1294 C1295 1.400 . S
C1295 C1294 1.400 . S
C1295 C1296 1.398 . S
C1295 C1301 1.491 . S
C1296 H1287 0.950 . S
C1296 C1295 1.398 . S
C1296 C1297 1.391 . S
C1297 H1285 0.950 . S
C1297 C1293 1.393 . S
C1297 C1296 1.391 . S
C1298 H1288 0.950 . S
C1298 C1299 1.386 . S
C1298 C1300 1.391 . S
C1299 C1298 1.386 . S
C1299 C1303 1.393 . S
C1300 H1289 0.950 . S
C1300 C1298 1.391 . S
C1300 C1301 1.400 . S
C1301 C1295 1.491 . S
C1301 C1300 1.400 . S
C1301 C1302 1.398 . S
C1302 H1290 0.950 . S
C1302 C1301 1.398 . S
C1302 C1303 1.391 . S
C1303 H1291 0.950 . S
C1303 C1299 1.393 . S
C1303 C1302 1.391 . S
H1304 C1312 0.950 . S
H1305 C1317 0.950 . S
H1306 C1314 0.950 . S
H1307 C1316 0.950 . S
H1308 C1318 0.950 . S
H1309 C1320 0.950 . S
H1310 C1322 0.950 . S
H1311 C1323 0.950 . S
C1312 H1304 0.950 . S
C1312 C1313 1.386 . S
C1312 C1314 1.391 . S
C1313 C1312 1.386 . S
C1313 C1317 1.393 . S
C1314 H1306 0.950 . S
C1314 C1312 1.391 . S
C1314 C1315 1.400 . S
C1315 C1314 1.400 . S
C1315 C1316 1.398 . S
C1315 C1321 1.491 . S
C1316 H1307 0.950 . S
C1316 C1315 1.398 . S
C1316 C1317 1.391 . S
C1317 H1305 0.950 . S
C1317 C1313 1.393 . S
C1317 C1316 1.391 . S
C1318 H1308 0.950 . S
C1318 C1319 1.386 . S
C1318 C1320 1.391 . S
C1319 C1318 1.386 . S
C1319 C1323 1.393 . S
C1320 H1309 0.950 . S
C1320 C1318 1.391 . S
C1320 C1321 1.400 . S
C1321 C1315 1.491 . S
C1321 C1320 1.400 . S
C1321 C1322 1.398 . S
C1322 H1310 0.950 . S
C1322 C1321 1.398 . S
C1322 C1323 1.391 . S
C1323 H1311 0.950 . S
C1323 C1319 1.393 . S
C1323 C1322 1.391 . S
H1324 C1332 0.950 . S
H1325 C1337 0.950 . S
H1326 C1334 0.950 . S
H1327 C1336 0.950 . S
H1328 C1338 0.950 . S
H1329 C1340 0.950 . S
H1330 C1342 0.950 . S
H1331 C1343 0.950 . S
C1332 H1324 0.950 . S
C1332 C1333 1.386 . S
C1332 C1334 1.391 . S
C1333 C1332 1.386 . S
C1333 C1337 1.393 . S
C1334 H1326 0.950 . S
C1334 C1332 1.391 . S
C1334 C1335 1.400 . S
C1335 C1334 1.400 . S
C1335 C1336 1.398 . S
C1335 C1341 1.491 . S
C1336 H1327 0.950 . S
C1336 C1335 1.398 . S
C1336 C1337 1.391 . S
C1337 H1325 0.950 . S
C1337 C1333 1.393 . S
C1337 C1336 1.391 . S
C1338 H1328 0.950 . S
C1338 C1339 1.386 . S
C1338 C1340 1.391 . S
C1339 C1338 1.386 . S
C1339 C1343 1.393 . S
C1340 H1329 0.950 . S
C1340 C1338 1.391 . S
C1340 C1341 1.400 . S
C1341 C1335 1.491 . S
C1341 C1340 1.400 . S
C1341 C1342 1.398 . S
C1342 H1330 0.950 . S
C1342 C1341 1.398 . S
C1342 C1343 1.391 . S
C1343 H1331 0.950 . S
C1343 C1339 1.393 . S
C1343 C1342 1.391 . S
C553 C413 1.509 . S
C559 C9 1.443 . S
C573 C43 1.344 . S
C579 C447 1.436 . S
C593 C77 1.428 . S
C599 C481 1.500 . S
C613 C107 1.439 . S
C619 C519 1.324 . S
C633 C281 1.433 . S
C639 C141 1.502 . S
C653 C311 1.573 . S
C659 C179 1.471 . S
C673 C209 1.494 . S
C679 C349 1.417 . S
C693 C383 1.466 . S
C699 C243 1.580 . S
C713 C33 1.558 . S
C719 C509 1.552 . S
C733 C543 1.673 . S
C739 C67 1.672 . S
C753 C441 1.539 . S
C759 C101 1.547 . S
C773 C475 1.677 . S
C779 C135 1.684 . S
C793 C373 1.855 . S
C799 C169 1.851 . S
C813 C407 1.684 . S
C819 C203 1.685 . S
C833 C305 1.855 . S
C839 C237 1.857 . S
C853 C339 1.686 . S
C859 C271 1.688 . S
C873 C20 1.423 . S
C879 C342 1.425 . S
C893 C376 1.448 . S
C899 C54 1.471 . S
C913 C274 1.481 . S
C919 C88 1.456 . S
C933 C326 1.452 . S
C939 C104 1.418 . S
C953 C138 1.427 . S
C959 C496 1.424 . S
C973 C190 1.416 . S
C979 C512 1.399 . S
C993 C428 1.384 . S
C999 C206 1.404 . S
C1013 C240 1.360 . S
C1019 C462 1.388 . S
C1033 C417 1.328 . S
C1039 C5 1.416 . S
C1053 C39 1.490 . S
C1059 C451 1.377 . S
C1073 C73 1.415 . S
C1079 C485 1.332 . S
C1093 C515 1.484 . S
C1099 C111 1.402 . S
C1113 C277 1.418 . S
C1119 C145 1.346 . S
C1133 C175 1.343 . S
C1139 C315 1.257 . S
C1153 C345 1.425 . S
C1159 C213 1.363 . S
C1173 C379 1.354 . S
C1179 C247 1.280 . S
C1193 C172 1.576 . S
C1199 C2 1.582 . S
C1213 C224 1.629 . S
C1219 C36 1.631 . S
C1233 C70 1.211 . S
C1239 C258 1.211 . S
C1253 C156 1.305 . S
C1259 C122 1.292 . S
C1273 C292 1.642 . S
C1279 C444 1.668 . S
C1293 C478 1.509 . S
C1299 C308 1.508 . S
C1313 C530 1.367 . S
C1319 C360 1.361 . S
C1333 C394 1.281 . S
C1339 C410 1.293 . S
