# Generated by pormake.
# Topology npo, (4)-cn, num edge types: 1
# Building blocks:
#     Node 0, Type 0, BuildingBlock: KUFVIS_clean_sbu_0, # of connection points: 4
#     Node 1, Type 0, BuildingBlock: KUFVIS_clean_sbu_0, # of connection points: 4
#     Node 2, Type 0, BuildingBlock: KUFVIS_clean_sbu_0, # of connection points: 4
#     Node 3, Type 0, BuildingBlock: KUFVIS_clean_sbu_0, # of connection points: 4
#     Node 4, Type 0, BuildingBlock: KUFVIS_clean_sbu_0, # of connection points: 4
#     Node 5, Type 0, BuildingBlock: KUFVIS_clean_sbu_0, # of connection points: 4
#     Edge 6, Type (0, 0), BuildingBlock: KIFKEQ_clean_linker_1, # of connection points: 2
#     Edge 7, Type (0, 0), BuildingBlock: KIFKEQ_clean_linker_1, # of connection points: 2
#     Edge 8, Type (0, 0), BuildingBlock: KIFKEQ_clean_linker_1, # of connection points: 2
#     Edge 9, Type (0, 0), BuildingBlock: KIFKEQ_clean_linker_1, # of connection points: 2
#     Edge 10, Type (0, 0), BuildingBlock: KIFKEQ_clean_linker_1, # of connection points: 2
#     Edge 11, Type (0, 0), BuildingBlock: KIFKEQ_clean_linker_1, # of connection points: 2
#     Edge 12, Type (0, 0), BuildingBlock: KIFKEQ_clean_linker_1, # of connection points: 2
#     Edge 13, Type (0, 0), BuildingBlock: KIFKEQ_clean_linker_1, # of connection points: 2
#     Edge 14, Type (0, 0), BuildingBlock: KIFKEQ_clean_linker_1, # of connection points: 2
#     Edge 15, Type (0, 0), BuildingBlock: KIFKEQ_clean_linker_1, # of connection points: 2
#     Edge 16, Type (0, 0), BuildingBlock: KIFKEQ_clean_linker_1, # of connection points: 2
#     Edge 17, Type (0, 0), BuildingBlock: KIFKEQ_clean_linker_1, # of connection points: 2
# Relax obj value: 0.273
# Max RMSD: 0.237
# Mean RMSD: 0.233
data_MOF--net-npo--node1-KUFVIS_clean_sbu_0--edge1-KIFKEQ_clean_linker_1
_symmetry_space_group_name_H-M    P1
_symmetry_Int_Tables_number       1
_symmetry_cell_setting            triclinic
loop_
_symmetry_equiv_pos_as_xyz
'x, y, z'
_cell_length_a     43.126658
_cell_length_b     45.526364
_cell_length_c     24.334954
_cell_angle_alpha  89.921596
_cell_angle_beta   91.42763
_cell_angle_gamma 122.0476
loop_
_atom_site_label
_atom_site_type_symbol
_atom_site_fract_x
_atom_site_fract_y
_atom_site_fract_z
_atom_type_partial_charge
Mn0 Mn 0.55923 0.12553 0.28314 0.0
Mn1 Mn 0.62134 0.10392 0.25726 0.0
C2 C 0.62092 0.16401 0.30159 0.0
C3 C 0.526 0.15125 0.26059 0.0
C4 C 0.57235 0.07735 0.35522 0.0
O5 O 0.53138 0.08541 0.228 0.0
O6 O 0.57505 0.07304 0.21473 0.0
C7 C 0.63285 0.12408 0.14021 0.0
N8 N 0.64658 0.12738 0.19242 0.0
C9 C 0.70708 0.17119 0.16478 0.0
C10 C 0.69359 0.16808 0.1107 0.0
C11 C 0.65632 0.14443 0.09839 0.0
C12 C 0.68244 0.15005 0.20469 0.0
H13 H 0.60417 0.10618 0.13056 0.0
C14 C 0.54314 0.06795 0.20517 0.0
O15 O 0.51553 0.12809 0.29861 0.0
O16 O 0.55434 0.1577 0.23315 0.0
N17 N 0.66749 0.13262 0.29517 0.0
C18 C 0.6759 0.13352 0.34975 0.0
C19 C 0.71206 0.15615 0.36896 0.0
C20 C 0.7392 0.17761 0.33193 0.0
C21 C 0.72995 0.17607 0.27591 0.0
C22 C 0.69356 0.15263 0.25901 0.0
H23 H 0.65513 0.11727 0.3785 0.0
O24 O 0.59675 0.16663 0.32813 0.0
O25 O 0.60817 0.13855 0.26656 0.0
O26 O 0.55529 0.0925 0.34348 0.0
O27 O 0.59762 0.07964 0.32572 0.0
C28 C 0.75529 0.19731 0.23634 0.0
C29 C 0.74385 0.19492 0.18085 0.0
H30 H 0.71154 0.18391 0.0784 0.0
H31 H 0.64566 0.14202 0.0568 0.0
H32 H 0.71896 0.15724 0.41228 0.0
H33 H 0.76696 0.19536 0.34702 0.0
H34 H 0.78352 0.21586 0.24829 0.0
H35 H 0.76349 0.21172 0.15094 0.0
Mn36 Mn 0.43576 0.56364 0.73063 0.0
Mn37 Mn 0.37414 0.47884 0.75341 0.0
C38 C 0.37417 0.54035 0.71269 0.0
C39 C 0.46854 0.62261 0.75396 0.0
C40 C 0.42337 0.50375 0.65584 0.0
O41 O 0.46359 0.55113 0.78499 0.0
O42 O 0.42057 0.49432 0.79566 0.0
C43 C 0.36179 0.48277 0.87169 0.0
N44 N 0.34835 0.47377 0.81907 0.0
C45 C 0.28682 0.45133 0.84806 0.0
C46 C 0.3 0.46017 0.90258 0.0
C47 C 0.33764 0.47597 0.91441 0.0
C48 C 0.31211 0.45823 0.80728 0.0
H49 H 0.3907 0.49509 0.88103 0.0
C50 C 0.45216 0.52151 0.80642 0.0
O51 O 0.47925 0.61036 0.71581 0.0
O52 O 0.44036 0.60024 0.78143 0.0
N53 N 0.32797 0.46145 0.71578 0.0
C54 C 0.32023 0.45779 0.66066 0.0
C55 C 0.28405 0.44422 0.64165 0.0
C56 C 0.25621 0.4345 0.67944 0.0
C57 C 0.26481 0.43842 0.73595 0.0
C58 C 0.30132 0.45183 0.75252 0.0
H59 H 0.34158 0.46555 0.63141 0.0
O60 O 0.39846 0.56731 0.68626 0.0
O61 O 0.3866 0.52693 0.74715 0.0
O62 O 0.44046 0.53579 0.66898 0.0
O63 O 0.3979 0.48025 0.6844 0.0
C64 C 0.23879 0.43058 0.7764 0.0
C65 C 0.24977 0.43695 0.83243 0.0
H66 H 0.28154 0.45537 0.93558 0.0
H67 H 0.34804 0.48306 0.95635 0.0
H68 H 0.27768 0.44146 0.59796 0.0
H69 H 0.22842 0.42445 0.66459 0.0
H70 H 0.21038 0.42028 0.7648 0.0
H71 H 0.22963 0.43141 0.86306 0.0
Mn72 Mn 0.87542 0.45238 0.23804 0.0
Mn73 Mn 0.91798 0.41322 0.28794 0.0
C74 C 0.84618 0.39286 0.23654 0.0
C75 C 0.83838 0.47466 0.24492 0.0
C76 C 0.9343 0.44827 0.17783 0.0
O77 O 0.91607 0.4901 0.28675 0.0
O78 O 0.94167 0.46092 0.3193 0.0
C79 C 0.89806 0.40878 0.40463 0.0
N80 N 0.89735 0.39282 0.35688 0.0
C81 C 0.86132 0.33649 0.39725 0.0
C82 C 0.86185 0.35236 0.4469 0.0
C83 C 0.88033 0.38866 0.4506 0.0
C84 C 0.8798 0.3579 0.35297 0.0
H85 H 0.9119 0.43664 0.40762 0.0
C86 C 0.93925 0.4878 0.31718 0.0
O87 O 0.86189 0.48417 0.20628 0.0
O88 O 0.83779 0.45367 0.28172 0.0
N89 N 0.89645 0.36657 0.26137 0.0
C90 C 0.89738 0.35523 0.20999 0.0
C91 C 0.87982 0.31949 0.19929 0.0
C92 C 0.86145 0.2958 0.24142 0.0
C93 C 0.86103 0.30808 0.29403 0.0
C94 C 0.87952 0.34401 0.30251 0.0
H95 H 0.91118 0.37328 0.17729 0.0
O96 O 0.83622 0.4083 0.20206 0.0
O97 O 0.87319 0.41277 0.27014 0.0
O98 O 0.91117 0.4573 0.18105 0.0
O99 O 0.9403 0.43248 0.21601 0.0
C100 C 0.84249 0.28607 0.33812 0.0
C101 C 0.8426 0.30026 0.38968 0.0
H102 H 0.84794 0.33692 0.48233 0.0
H103 H 0.88072 0.40109 0.48871 0.0
H104 H 0.8802 0.31022 0.15855 0.0
H105 H 0.8476 0.26826 0.2328 0.0
H106 H 0.82776 0.25818 0.33269 0.0
H107 H 0.82794 0.28306 0.42311 0.0
Mn108 Mn 0.46213 0.88187 0.77488 0.0
Mn109 Mn 0.40971 0.91485 0.74455 0.0
C110 C 0.39945 0.84913 0.7848 0.0
C111 C 0.48815 0.84937 0.75542 0.0
C112 C 0.45619 0.93337 0.84875 0.0
O113 O 0.49507 0.92187 0.72436 0.0
O114 O 0.45802 0.94249 0.70956 0.0
C115 C 0.39949 0.89999 0.62472 0.0
N116 N 0.38495 0.89643 0.67515 0.0
C117 C 0.32364 0.86158 0.63712 0.0
C118 C 0.33797 0.86506 0.58476 0.0
C119 C 0.37606 0.88432 0.57856 0.0
C120 C 0.34831 0.87808 0.68154 0.0
H121 H 0.42873 0.91458 0.6197 0.0
C122 C 0.48786 0.94329 0.70254 0.0
O123 O 0.50091 0.87218 0.79511 0.0
O124 O 0.46219 0.84741 0.72437 0.0
N125 N 0.36202 0.88964 0.7751 0.0
C126 C 0.35268 0.8866 0.82883 0.0
C127 C 0.31561 0.86699 0.84231 0.0
C128 C 0.28854 0.85076 0.80047 0.0
C129 C 0.2988 0.85437 0.74548 0.0
C130 C 0.33617 0.87454 0.73446 0.0
H131 H 0.37337 0.89869 0.86121 0.0
O132 O 0.42054 0.84253 0.81412 0.0
O133 O 0.41569 0.87533 0.75223 0.0
O134 O 0.47024 0.91564 0.83731 0.0
O135 O 0.43292 0.9347 0.81718 0.0
C136 C 0.27347 0.83805 0.70128 0.0
C137 C 0.28587 0.84167 0.64714 0.0
H138 H 0.32001 0.85274 0.54912 0.0
H139 H 0.38734 0.88697 0.53832 0.0
H140 H 0.30793 0.86418 0.88488 0.0
H141 H 0.26 0.8353 0.81109 0.0
H142 H 0.24441 0.82221 0.70857 0.0
H143 H 0.26616 0.82856 0.61361 0.0
Mn144 Mn 0.53101 0.41523 0.23579 0.0
Mn145 Mn 0.58659 0.50054 0.26612 0.0
C146 C 0.59279 0.44422 0.21905 0.0
C147 C 0.50448 0.35659 0.25586 0.0
C148 C 0.53717 0.47398 0.16463 0.0
O149 O 0.50053 0.42312 0.28986 0.0
O150 O 0.53933 0.48071 0.30364 0.0
C151 C 0.59861 0.49259 0.38422 0.0
N152 N 0.61236 0.50449 0.3336 0.0
C153 C 0.67389 0.52686 0.36774 0.0
C154 C 0.66039 0.51501 0.42026 0.0
C155 C 0.62258 0.49778 0.4285 0.0
C156 C 0.6487 0.52103 0.3252 0.0
H157 H 0.56956 0.4791 0.39078 0.0
C158 C 0.50914 0.45211 0.31179 0.0
O159 O 0.4907 0.36667 0.2177 0.0
O160 O 0.53187 0.38065 0.2849 0.0
N161 N 0.63358 0.5229 0.23334 0.0
C162 C 0.64222 0.53269 0.18017 0.0
C163 C 0.67903 0.55055 0.16517 0.0
C164 C 0.70656 0.55826 0.20497 0.0
C165 C 0.69706 0.54839 0.25958 0.0
C166 C 0.65997 0.53115 0.27227 0.0
H167 H 0.62119 0.52667 0.14932 0.0
O168 O 0.56999 0.41621 0.19155 0.0
O169 O 0.5788 0.4546 0.25492 0.0
O170 O 0.52214 0.44191 0.17589 0.0
O171 O 0.56199 0.49836 0.19521 0.0
C172 C 0.72292 0.55474 0.30181 0.0
C173 C 0.71133 0.54387 0.35581 0.0
H174 H 0.67877 0.51883 0.45448 0.0
H175 H 0.61192 0.48842 0.46887 0.0
H176 H 0.68613 0.55812 0.12295 0.0
H177 H 0.73488 0.57165 0.19311 0.0
H178 H 0.75175 0.56773 0.29312 0.0
H179 H 0.73143 0.54864 0.38784 0.0
Mn180 Mn 0.11768 0.57493 0.74893 0.0
Mn181 Mn 0.07479 0.49078 0.71034 0.0
C182 C 0.14728 0.54546 0.7583 0.0
C183 C 0.15559 0.63371 0.73267 0.0
C184 C 0.05963 0.51509 0.81618 0.0
O185 O 0.07692 0.5694 0.69815 0.0
O186 O 0.05063 0.51303 0.67358 0.0
C187 C 0.09168 0.4986 0.59201 0.0
N188 N 0.09322 0.4862 0.64232 0.0
C189 C 0.1246 0.46007 0.6061 0.0
C190 C 0.12313 0.47238 0.55386 0.0
C191 C 0.1066 0.49173 0.54681 0.0
C192 C 0.10871 0.46722 0.64946 0.0
H193 H 0.07924 0.51369 0.58638 0.0
C194 C 0.05335 0.54249 0.67067 0.0
O195 O 0.13221 0.62255 0.77183 0.0
O196 O 0.15507 0.6106 0.70082 0.0
N197 N 0.09655 0.46715 0.74212 0.0
C198 C 0.09872 0.45994 0.79595 0.0
C199 C 0.11628 0.44232 0.81048 0.0
C200 C 0.13138 0.43228 0.76959 0.0
C201 C 0.12873 0.4399 0.71448 0.0
C202 C 0.11062 0.45725 0.70237 0.0
H203 H 0.08753 0.46791 0.82765 0.0
O204 O 0.15675 0.57239 0.789 0.0
O205 O 0.12005 0.53602 0.72358 0.0
O206 O 0.08207 0.54729 0.80919 0.0
O207 O 0.05413 0.49184 0.78125 0.0
C208 C 0.14432 0.43189 0.67131 0.0
C209 C 0.14217 0.44189 0.61715 0.0
H210 H 0.13501 0.46751 0.51902 0.0
H211 H 0.10554 0.50148 0.50668 0.0
H212 H 0.11839 0.43671 0.85314 0.0
H213 H 0.14529 0.41907 0.78105 0.0
H214 H 0.15858 0.41858 0.67947 0.0
H215 H 0.15478 0.43608 0.58446 0.0
H216 H 0.48302 0.15862 0.33278 0.0
H217 H 0.53474 0.19468 0.17651 0.0
H218 H 0.46789 0.20334 0.33246 0.0
H219 H 0.51904 0.23897 0.17588 0.0
H220 H 0.51767 0.32579 0.3418 0.0
H221 H 0.51282 0.26984 0.34068 0.0
H222 H 0.46544 0.24956 0.17633 0.0
H223 H 0.46965 0.30534 0.17775 0.0
C224 C 0.49025 0.17543 0.29763 0.0
C225 C 0.51027 0.17323 0.25477 0.0
C226 C 0.48175 0.20114 0.29765 0.0
C227 C 0.49244 0.22473 0.25432 0.0
C228 C 0.5102 0.22099 0.20965 0.0
C229 C 0.51929 0.19568 0.21008 0.0
C230 C 0.50523 0.30896 0.30606 0.0
C231 C 0.49413 0.32001 0.25985 0.0
C232 C 0.50239 0.27689 0.30544 0.0
C233 C 0.48899 0.25546 0.25824 0.0
C234 C 0.47605 0.26565 0.21313 0.0
C235 C 0.47823 0.29747 0.21415 0.0
H236 H 0.33601 0.5271 0.80497 0.0
H237 H 0.33121 0.54321 0.63155 0.0
H238 H 0.27581 0.51661 0.81491 0.0
H239 H 0.27371 0.53962 0.64192 0.0
H240 H 0.16888 0.53172 0.66326 0.0
H241 H 0.21663 0.52005 0.65117 0.0
H242 H 0.24089 0.53559 0.82699 0.0
H243 H 0.18853 0.54028 0.83835 0.0
C244 C 0.32146 0.52782 0.76862 0.0
C245 C 0.33709 0.53374 0.71697 0.0
C246 C 0.28714 0.52315 0.77448 0.0
C247 C 0.26873 0.52752 0.72958 0.0
C248 C 0.28542 0.53473 0.67781 0.0
C249 C 0.31896 0.53738 0.67157 0.0
C250 C 0.18301 0.53013 0.6994 0.0
C251 C 0.17373 0.53483 0.75194 0.0
C252 C 0.21174 0.52489 0.6925 0.0
C253 C 0.23417 0.52733 0.73771 0.0
C254 C 0.22457 0.53234 0.79053 0.0
C255 C 0.19448 0.53552 0.79747 0.0
H256 H 0.64869 0.19723 0.20783 0.0
H257 H 0.67426 0.20045 0.38088 0.0
H258 H 0.7072 0.24991 0.19426 0.0
H259 H 0.73487 0.25229 0.36727 0.0
H260 H 0.81421 0.36827 0.33324 0.0
H261 H 0.76301 0.31047 0.35191 0.0
H262 H 0.76897 0.27757 0.18761 0.0
H263 H 0.81829 0.3367 0.16809 0.0
C264 C 0.66749 0.20904 0.24281 0.0
C265 C 0.65753 0.19477 0.29517 0.0
C266 C 0.70133 0.2391 0.23504 0.0
C267 C 0.72635 0.25548 0.27947 0.0
C268 C 0.71626 0.24081 0.33211 0.0
C269 C 0.68175 0.21105 0.34006 0.0
C270 C 0.80473 0.34839 0.30154 0.0
C271 C 0.82001 0.35654 0.2494 0.0
C272 C 0.77551 0.3151 0.31227 0.0
C273 C 0.7612 0.28914 0.27109 0.0
C274 C 0.77831 0.29705 0.21985 0.0
C275 C 0.80682 0.33073 0.20865 0.0
H276 H 0.47421 0.80462 0.67005 0.0
H277 H 0.52258 0.83285 0.83388 0.0
H278 H 0.47894 0.75344 0.67191 0.0
H279 H 0.52664 0.78128 0.83598 0.0
H280 H 0.51085 0.67327 0.68137 0.0
H281 H 0.52467 0.73276 0.68066 0.0
H282 H 0.47321 0.71661 0.83699 0.0
H283 H 0.45876 0.65691 0.83736 0.0
C284 C 0.48663 0.80035 0.70591 0.0
C285 C 0.49792 0.82275 0.75183 0.0
C286 C 0.48939 0.77107 0.70696 0.0
C287 C 0.50291 0.76326 0.75429 0.0
C288 C 0.51591 0.78658 0.79913 0.0
C289 C 0.51379 0.81622 0.7977 0.0
C290 C 0.50325 0.68263 0.71626 0.0
C291 C 0.48355 0.6603 0.75936 0.0
C292 C 0.51098 0.71664 0.71561 0.0
C293 C 0.49984 0.72924 0.75857 0.0
C294 C 0.48235 0.70768 0.80346 0.0
C295 C 0.47402 0.67347 0.80364 0.0
H296 H 0.64134 0.46852 0.13632 0.0
H297 H 0.63026 0.44418 0.30853 0.0
H298 H 0.70561 0.48681 0.14272 0.0
H299 H 0.69278 0.45829 0.31464 0.0
H300 H 0.80849 0.49202 0.32681 0.0
H301 H 0.75315 0.49403 0.31945 0.0
H302 H 0.74387 0.46853 0.14571 0.0
H303 H 0.801 0.47092 0.1528 0.0
C304 C 0.65287 0.4669 0.17542 0.0
C305 C 0.63155 0.45579 0.22215 0.0
C306 C 0.68962 0.47694 0.17925 0.0
C307 C 0.70509 0.47405 0.22928 0.0
C308 C 0.68291 0.46215 0.27571 0.0
C309 C 0.64674 0.45353 0.27224 0.0
C310 C 0.7949 0.48796 0.28699 0.0
C311 C 0.80874 0.48136 0.24039 0.0
C312 C 0.7628 0.48847 0.28266 0.0
C313 C 0.74287 0.48044 0.23218 0.0
C314 C 0.75809 0.4754 0.18526 0.0
C315 C 0.79096 0.4765 0.18924 0.0
H316 H 0.36507 0.82438 0.6867 0.0
H317 H 0.34822 0.8112 0.8611 0.0
H318 H 0.30202 0.77799 0.66819 0.0
H319 H 0.2853 0.76289 0.84305 0.0
H320 H 0.21232 0.66216 0.66298 0.0
H321 H 0.26917 0.71758 0.67379 0.0
H322 H 0.22469 0.74417 0.80864 0.0
H323 H 0.16785 0.6876 0.79909 0.0
C324 C 0.3475 0.81172 0.7211 0.0
C325 C 0.36086 0.82193 0.77526 0.0
C326 C 0.31154 0.78483 0.71056 0.0
C327 C 0.28846 0.76666 0.75407 0.0
C328 C 0.30203 0.77682 0.80852 0.0
C329 C 0.33807 0.80414 0.819 0.0
C330 C 0.21427 0.68008 0.69416 0.0
C331 C 0.18578 0.67032 0.73064 0.0
C332 C 0.24695 0.71206 0.70029 0.0
C333 C 0.25176 0.73522 0.74268 0.0
C334 C 0.22215 0.72657 0.77642 0.0
C335 C 0.18946 0.69434 0.77054 0.0
H336 H 0.51444 0.94952 0.91739 0.0
H337 H 0.42076 0.96 0.90161 0.0
H338 H 0.53036 0.97924 0.00592 0.0
H339 H 0.43572 0.98843 0.99157 0.0
H340 H 0.50047 0.07351 0.1262 0.0
H341 H 0.47714 0.03994 0.04056 0.0
H342 H 0.51326 0.97259 0.09763 0.0
H343 H 0.53808 0.00728 0.18159 0.0
C344 C 0.49704 0.95791 0.93302 0.0
C345 C 0.46631 0.95231 0.90227 0.0
C346 C 0.50595 0.97471 0.98422 0.0
C347 C 0.48409 0.98594 0.00661 0.0
C348 C 0.45342 0.98048 0.97565 0.0
C349 C 0.44477 0.96405 0.92401 0.0
C350 C 0.50254 0.05099 0.12084 0.0
C351 C 0.52118 0.04305 0.16037 0.0
C352 C 0.48926 0.03174 0.07165 0.0
C353 C 0.49395 0.00388 0.06141 0.0
C354 C 0.51018 0.99451 0.10308 0.0
C355 C 0.52397 0.01407 0.15163 0.0
H356 H 0.49611 0.50336 0.32791 0.0
H357 H 0.47098 0.40476 0.39144 0.0
H358 H 0.47086 0.51327 0.40904 0.0
H359 H 0.44664 0.41511 0.47407 0.0
H360 H 0.38771 0.43961 0.60523 0.0
H361 H 0.4016 0.42361 0.51766 0.0
H362 H 0.49407 0.52829 0.50177 0.0
H363 H 0.47983 0.54447 0.58816 0.0
C364 C 0.48446 0.48347 0.35889 0.0
C365 C 0.48562 0.45337 0.35357 0.0
C366 C 0.47039 0.48932 0.4057 0.0
C367 C 0.45764 0.46545 0.44881 0.0
C368 C 0.45625 0.43405 0.44167 0.0
C369 C 0.47002 0.42801 0.39426 0.0
C370 C 0.41106 0.45922 0.58309 0.0
C371 C 0.43259 0.49342 0.60382 0.0
C372 C 0.41902 0.44998 0.53288 0.0
C373 C 0.44866 0.47472 0.50225 0.0
C374 C 0.47045 0.50873 0.52349 0.0
C375 C 0.46247 0.51797 0.57343 0.0
H376 H 0.99695 0.45364 0.83885 0.0
H377 H 0.08075 0.55092 0.91363 0.0
H378 H 0.96749 0.43472 0.92759 0.0
H379 H 0.05151 0.5316 1.00225 0.0
H380 H 0.00464 0.4652 0.16081 0.0
H381 H 0.03592 0.47991 0.07256 0.0
H382 H 0.93692 0.45999 0.98919 0.0
H383 H 0.90612 0.44613 0.07659 0.0
C384 C 0.00907 0.47094 0.87414 0.0
C385 C 0.04094 0.50391 0.86913 0.0
C386 C 0.99229 0.46006 0.92481 0.0
C387 C 0.0075 0.48166 0.97155 0.0
C388 C 0.03957 0.51438 0.96683 0.0
C389 C 0.05598 0.52553 0.916 0.0
C390 C 0.98966 0.46379 0.12348 0.0
C391 C 0.95317 0.45491 0.12542 0.0
C392 C 0.00749 0.47227 0.07327 0.0
C393 C 0.98869 0.47103 0.02439 0.0
C394 C 0.95189 0.46095 0.02628 0.0
C395 C 0.93442 0.45328 0.07631 0.0
H396 H 0.51639 0.06133 0.4236 0.0
H397 H 0.60807 0.04861 0.40503 0.0
H398 H 0.50326 0.03197 0.51089 0.0
H399 H 0.59516 0.01957 0.49373 0.0
H400 H 0.52537 0.93258 0.62415 0.0
H401 H 0.54984 0.96627 0.54041 0.0
H402 H 0.52874 0.04262 0.60298 0.0
H403 H 0.50339 0.00849 0.68531 0.0
C404 C 0.53388 0.05237 0.43813 0.0
C405 C 0.56342 0.05755 0.40715 0.0
C406 C 0.52653 0.03577 0.48864 0.0
C407 C 0.54858 0.02397 0.50995 0.0
C408 C 0.57766 0.02836 0.47854 0.0
C409 C 0.58503 0.04502 0.42769 0.0
C410 C 0.52715 0.95716 0.62065 0.0
C411 C 0.51229 0.96785 0.66099 0.0
C412 C 0.54097 0.97638 0.57256 0.0
C413 C 0.54034 0.00669 0.56434 0.0
C414 C 0.5286 0.01886 0.6072 0.0
C415 C 0.51449 0.99955 0.65471 0.0
H416 H 0.45655 0.46564 0.83162 0.0
H417 H 0.49486 0.57016 0.88488 0.0
H418 H 0.48061 0.45601 0.91663 0.0
H419 H 0.51743 0.56016 0.97141 0.0
H420 H 0.57277 0.53648 0.11205 0.0
H421 H 0.55826 0.54992 0.02174 0.0
H422 H 0.46254 0.44622 0.00822 0.0
H423 H 0.47799 0.43236 0.09707 0.0
C424 C 0.47066 0.48674 0.8613 0.0
C425 C 0.47381 0.51861 0.85169 0.0
C426 C 0.48401 0.4811 0.91042 0.0
C427 C 0.50016 0.50697 0.95174 0.0
C428 C 0.50531 0.53963 0.94062 0.0
C429 C 0.49248 0.54546 0.89089 0.0
C430 C 0.54861 0.51654 0.08981 0.0
C431 C 0.52671 0.48321 0.11177 0.0
C432 C 0.54021 0.52431 0.03796 0.0
C433 C 0.50947 0.49907 0.00706 0.0
C434 C 0.48706 0.46607 0.02988 0.0
C435 C 0.49569 0.45819 0.08129 0.0
H436 H 0.98384 0.49553 0.63408 0.0
H437 H 0.07684 0.59796 0.60425 0.0
H438 H 0.95644 0.49627 0.54528 0.0
H439 H 0.04996 0.598 0.51441 0.0
H440 H 0.01096 0.51797 0.3474 0.0
H441 H 0.03759 0.54388 0.43768 0.0
H442 H 0.9378 0.53803 0.479 0.0
H443 H 0.91168 0.51351 0.38763 0.0
C444 C -0.00226 0.51864 0.6094 0.0
C445 C 0.03238 0.54665 0.62593 0.0
C446 C 0.98207 0.51912 0.55878 0.0
C447 C 0.0012 0.54724 0.52341 0.0
C448 C 0.03465 0.57625 0.5414 0.0
C449 C 0.04987 0.5762 0.59278 0.0
C450 C 0.99556 0.52405 0.37464 0.0
C451 C 0.95946 0.51403 0.36066 0.0
C452 C 0.01071 0.53878 0.42621 0.0
C453 C 0.98958 0.54277 0.46496 0.0
C454 C 0.9546 0.53543 0.44944 0.0
C455 C 0.93983 0.52165 0.39715 0.0
loop_
_geom_bond_atom_site_label_1
_geom_bond_atom_site_label_2
_geom_bond_distance
_geom_bond_site_symmetry_2
_ccdc_geom_bond_type
Mn0 O5 2.095 . S
Mn0 O15 2.162 . S
Mn0 O16 2.297 . S
Mn0 O24 2.385 . S
Mn0 O25 2.209 . S
Mn0 O26 2.094 . S
Mn1 O6 2.121 . S
Mn1 N8 2.257 . S
Mn1 N17 2.282 . S
Mn1 O25 2.215 . S
Mn1 O27 2.117 . S
C2 O24 1.234 . S
C2 O25 1.283 . S
C3 O15 1.281 . S
C3 O16 1.236 . S
C4 O26 1.240 . S
C4 O27 1.264 . S
O5 Mn0 2.095 . S
O5 C14 1.250 . S
O6 Mn1 2.121 . S
O6 C14 1.258 . S
C7 N8 1.326 . S
C7 C11 1.460 . S
C7 H13 0.929 . S
N8 Mn1 2.257 . S
N8 C7 1.326 . S
N8 C12 1.362 . S
C9 C10 1.258 . S
C9 C12 1.431 . S
C9 C29 1.449 . S
C10 C9 1.258 . S
C10 C11 1.477 . S
C10 H30 0.931 . S
C11 C7 1.460 . S
C11 C10 1.477 . S
C11 H31 0.930 . S
C12 N8 1.362 . S
C12 C9 1.431 . S
C12 C22 1.476 . S
H13 C7 0.929 . S
C14 O5 1.250 . S
C14 O6 1.258 . S
O15 Mn0 2.162 . S
O15 C3 1.281 . S
O16 Mn0 2.297 . S
O16 C3 1.236 . S
N17 Mn1 2.282 . S
N17 C18 1.328 . S
N17 C22 1.318 . S
C18 N17 1.328 . S
C18 C19 1.457 . S
C18 H23 0.929 . S
C19 C18 1.457 . S
C19 C20 1.291 . S
C19 H32 0.931 . S
C20 C19 1.291 . S
C20 C21 1.373 . S
C20 H33 0.929 . S
C21 C20 1.373 . S
C21 C22 1.396 . S
C21 C28 1.403 . S
C22 C12 1.476 . S
C22 N17 1.318 . S
C22 C21 1.396 . S
H23 C18 0.929 . S
O24 Mn0 2.385 . S
O24 C2 1.234 . S
O25 Mn0 2.209 . S
O25 Mn1 2.215 . S
O25 C2 1.283 . S
O26 Mn0 2.094 . S
O26 C4 1.240 . S
O27 Mn1 2.117 . S
O27 C4 1.264 . S
C28 C21 1.403 . S
C28 C29 1.399 . S
C28 H34 0.929 . S
C29 C9 1.449 . S
C29 C28 1.399 . S
C29 H35 0.930 . S
H30 C10 0.931 . S
H31 C11 0.930 . S
H32 C19 0.931 . S
H33 C20 0.929 . S
H34 C28 0.929 . S
H35 C29 0.930 . S
Mn36 O41 2.095 . S
Mn36 O51 2.162 . S
Mn36 O52 2.297 . S
Mn36 O60 2.385 . S
Mn36 O61 2.209 . S
Mn36 O62 2.094 . S
Mn37 O42 2.121 . S
Mn37 N44 2.257 . S
Mn37 N53 2.282 . S
Mn37 O61 2.215 . S
Mn37 O63 2.117 . S
C38 O60 1.234 . S
C38 O61 1.283 . S
C39 O51 1.281 . S
C39 O52 1.236 . S
C40 O62 1.240 . S
C40 O63 1.264 . S
O41 Mn36 2.095 . S
O41 C50 1.250 . S
O42 Mn37 2.121 . S
O42 C50 1.258 . S
C43 N44 1.326 . S
C43 C47 1.460 . S
C43 H49 0.929 . S
N44 Mn37 2.257 . S
N44 C43 1.326 . S
N44 C48 1.362 . S
C45 C46 1.258 . S
C45 C48 1.431 . S
C45 C65 1.449 . S
C46 C45 1.258 . S
C46 C47 1.477 . S
C46 H66 0.931 . S
C47 C43 1.460 . S
C47 C46 1.477 . S
C47 H67 0.930 . S
C48 N44 1.362 . S
C48 C45 1.431 . S
C48 C58 1.476 . S
H49 C43 0.929 . S
C50 O41 1.250 . S
C50 O42 1.258 . S
O51 Mn36 2.162 . S
O51 C39 1.281 . S
O52 Mn36 2.297 . S
O52 C39 1.236 . S
N53 Mn37 2.282 . S
N53 C54 1.328 . S
N53 C58 1.318 . S
C54 N53 1.328 . S
C54 C55 1.457 . S
C54 H59 0.929 . S
C55 C54 1.457 . S
C55 C56 1.291 . S
C55 H68 0.931 . S
C56 C55 1.291 . S
C56 C57 1.373 . S
C56 H69 0.929 . S
C57 C56 1.373 . S
C57 C58 1.396 . S
C57 C64 1.403 . S
C58 C48 1.476 . S
C58 N53 1.318 . S
C58 C57 1.396 . S
H59 C54 0.929 . S
O60 Mn36 2.385 . S
O60 C38 1.234 . S
O61 Mn36 2.209 . S
O61 Mn37 2.215 . S
O61 C38 1.283 . S
O62 Mn36 2.094 . S
O62 C40 1.240 . S
O63 Mn37 2.117 . S
O63 C40 1.264 . S
C64 C57 1.403 . S
C64 C65 1.399 . S
C64 H70 0.929 . S
C65 C45 1.449 . S
C65 C64 1.399 . S
C65 H71 0.930 . S
H66 C46 0.931 . S
H67 C47 0.930 . S
H68 C55 0.931 . S
H69 C56 0.929 . S
H70 C64 0.929 . S
H71 C65 0.930 . S
Mn72 O77 2.095 . S
Mn72 O87 2.162 . S
Mn72 O88 2.297 . S
Mn72 O96 2.385 . S
Mn72 O97 2.209 . S
Mn72 O98 2.094 . S
Mn73 O78 2.121 . S
Mn73 N80 2.257 . S
Mn73 N89 2.282 . S
Mn73 O97 2.215 . S
Mn73 O99 2.117 . S
C74 O96 1.234 . S
C74 O97 1.283 . S
C75 O87 1.281 . S
C75 O88 1.236 . S
C76 O98 1.240 . S
C76 O99 1.264 . S
O77 Mn72 2.095 . S
O77 C86 1.250 . S
O78 Mn73 2.121 . S
O78 C86 1.258 . S
C79 N80 1.326 . S
C79 C83 1.460 . S
C79 H85 0.929 . S
N80 Mn73 2.257 . S
N80 C79 1.326 . S
N80 C84 1.362 . S
C81 C82 1.258 . S
C81 C84 1.431 . S
C81 C101 1.449 . S
C82 C81 1.258 . S
C82 C83 1.477 . S
C82 H102 0.931 . S
C83 C79 1.460 . S
C83 C82 1.477 . S
C83 H103 0.930 . S
C84 N80 1.362 . S
C84 C81 1.431 . S
C84 C94 1.476 . S
H85 C79 0.929 . S
C86 O77 1.250 . S
C86 O78 1.258 . S
O87 Mn72 2.162 . S
O87 C75 1.281 . S
O88 Mn72 2.297 . S
O88 C75 1.236 . S
N89 Mn73 2.282 . S
N89 C90 1.328 . S
N89 C94 1.318 . S
C90 N89 1.328 . S
C90 C91 1.457 . S
C90 H95 0.929 . S
C91 C90 1.457 . S
C91 C92 1.291 . S
C91 H104 0.931 . S
C92 C91 1.291 . S
C92 C93 1.373 . S
C92 H105 0.929 . S
C93 C92 1.373 . S
C93 C94 1.396 . S
C93 C100 1.403 . S
C94 C84 1.476 . S
C94 N89 1.318 . S
C94 C93 1.396 . S
H95 C90 0.929 . S
O96 Mn72 2.385 . S
O96 C74 1.234 . S
O97 Mn72 2.209 . S
O97 Mn73 2.215 . S
O97 C74 1.283 . S
O98 Mn72 2.094 . S
O98 C76 1.240 . S
O99 Mn73 2.117 . S
O99 C76 1.264 . S
C100 C93 1.403 . S
C100 C101 1.399 . S
C100 H106 0.929 . S
C101 C81 1.449 . S
C101 C100 1.399 . S
C101 H107 0.930 . S
H102 C82 0.931 . S
H103 C83 0.930 . S
H104 C91 0.931 . S
H105 C92 0.929 . S
H106 C100 0.929 . S
H107 C101 0.930 . S
Mn108 O113 2.095 . S
Mn108 O123 2.162 . S
Mn108 O124 2.297 . S
Mn108 O132 2.385 . S
Mn108 O133 2.209 . S
Mn108 O134 2.094 . S
Mn109 O114 2.121 . S
Mn109 N116 2.257 . S
Mn109 N125 2.282 . S
Mn109 O133 2.215 . S
Mn109 O135 2.117 . S
C110 O132 1.234 . S
C110 O133 1.283 . S
C111 O123 1.281 . S
C111 O124 1.236 . S
C112 O134 1.240 . S
C112 O135 1.264 . S
O113 Mn108 2.095 . S
O113 C122 1.250 . S
O114 Mn109 2.121 . S
O114 C122 1.258 . S
C115 N116 1.326 . S
C115 C119 1.460 . S
C115 H121 0.929 . S
N116 Mn109 2.257 . S
N116 C115 1.326 . S
N116 C120 1.362 . S
C117 C118 1.258 . S
C117 C120 1.431 . S
C117 C137 1.449 . S
C118 C117 1.258 . S
C118 C119 1.477 . S
C118 H138 0.931 . S
C119 C115 1.460 . S
C119 C118 1.477 . S
C119 H139 0.930 . S
C120 N116 1.362 . S
C120 C117 1.431 . S
C120 C130 1.476 . S
H121 C115 0.929 . S
C122 O113 1.250 . S
C122 O114 1.258 . S
O123 Mn108 2.162 . S
O123 C111 1.281 . S
O124 Mn108 2.297 . S
O124 C111 1.236 . S
N125 Mn109 2.282 . S
N125 C126 1.328 . S
N125 C130 1.318 . S
C126 N125 1.328 . S
C126 C127 1.457 . S
C126 H131 0.929 . S
C127 C126 1.457 . S
C127 C128 1.291 . S
C127 H140 0.931 . S
C128 C127 1.291 . S
C128 C129 1.373 . S
C128 H141 0.929 . S
C129 C128 1.373 . S
C129 C130 1.396 . S
C129 C136 1.403 . S
C130 C120 1.476 . S
C130 N125 1.318 . S
C130 C129 1.396 . S
H131 C126 0.929 . S
O132 Mn108 2.385 . S
O132 C110 1.234 . S
O133 Mn108 2.209 . S
O133 Mn109 2.215 . S
O133 C110 1.283 . S
O134 Mn108 2.094 . S
O134 C112 1.240 . S
O135 Mn109 2.117 . S
O135 C112 1.264 . S
C136 C129 1.403 . S
C136 C137 1.399 . S
C136 H142 0.929 . S
C137 C117 1.449 . S
C137 C136 1.399 . S
C137 H143 0.930 . S
H138 C118 0.931 . S
H139 C119 0.930 . S
H140 C127 0.931 . S
H141 C128 0.929 . S
H142 C136 0.929 . S
H143 C137 0.930 . S
Mn144 O149 2.095 . S
Mn144 O159 2.162 . S
Mn144 O160 2.297 . S
Mn144 O168 2.385 . S
Mn144 O169 2.209 . S
Mn144 O170 2.094 . S
Mn145 O150 2.121 . S
Mn145 N152 2.257 . S
Mn145 N161 2.282 . S
Mn145 O169 2.215 . S
Mn145 O171 2.117 . S
C146 O168 1.234 . S
C146 O169 1.283 . S
C147 O159 1.281 . S
C147 O160 1.236 . S
C148 O170 1.240 . S
C148 O171 1.264 . S
O149 Mn144 2.095 . S
O149 C158 1.250 . S
O150 Mn145 2.121 . S
O150 C158 1.258 . S
C151 N152 1.326 . S
C151 C155 1.460 . S
C151 H157 0.929 . S
N152 Mn145 2.257 . S
N152 C151 1.326 . S
N152 C156 1.362 . S
C153 C154 1.258 . S
C153 C156 1.431 . S
C153 C173 1.449 . S
C154 C153 1.258 . S
C154 C155 1.477 . S
C154 H174 0.931 . S
C155 C151 1.460 . S
C155 C154 1.477 . S
C155 H175 0.930 . S
C156 N152 1.362 . S
C156 C153 1.431 . S
C156 C166 1.476 . S
H157 C151 0.929 . S
C158 O149 1.250 . S
C158 O150 1.258 . S
O159 Mn144 2.162 . S
O159 C147 1.281 . S
O160 Mn144 2.297 . S
O160 C147 1.236 . S
N161 Mn145 2.282 . S
N161 C162 1.328 . S
N161 C166 1.318 . S
C162 N161 1.328 . S
C162 C163 1.457 . S
C162 H167 0.929 . S
C163 C162 1.457 . S
C163 C164 1.291 . S
C163 H176 0.931 . S
C164 C163 1.291 . S
C164 C165 1.373 . S
C164 H177 0.929 . S
C165 C164 1.373 . S
C165 C166 1.396 . S
C165 C172 1.403 . S
C166 C156 1.476 . S
C166 N161 1.318 . S
C166 C165 1.396 . S
H167 C162 0.929 . S
O168 Mn144 2.385 . S
O168 C146 1.234 . S
O169 Mn144 2.209 . S
O169 Mn145 2.215 . S
O169 C146 1.283 . S
O170 Mn144 2.094 . S
O170 C148 1.240 . S
O171 Mn145 2.117 . S
O171 C148 1.264 . S
C172 C165 1.403 . S
C172 C173 1.399 . S
C172 H178 0.929 . S
C173 C153 1.449 . S
C173 C172 1.399 . S
C173 H179 0.930 . S
H174 C154 0.931 . S
H175 C155 0.930 . S
H176 C163 0.931 . S
H177 C164 0.929 . S
H178 C172 0.929 . S
H179 C173 0.930 . S
Mn180 O185 2.095 . S
Mn180 O195 2.162 . S
Mn180 O196 2.297 . S
Mn180 O204 2.385 . S
Mn180 O205 2.209 . S
Mn180 O206 2.094 . S
Mn181 O186 2.121 . S
Mn181 N188 2.257 . S
Mn181 N197 2.282 . S
Mn181 O205 2.215 . S
Mn181 O207 2.117 . S
C182 O204 1.234 . S
C182 O205 1.283 . S
C183 O195 1.281 . S
C183 O196 1.236 . S
C184 O206 1.240 . S
C184 O207 1.264 . S
O185 Mn180 2.095 . S
O185 C194 1.250 . S
O186 Mn181 2.121 . S
O186 C194 1.258 . S
C187 N188 1.326 . S
C187 C191 1.460 . S
C187 H193 0.929 . S
N188 Mn181 2.257 . S
N188 C187 1.326 . S
N188 C192 1.362 . S
C189 C190 1.258 . S
C189 C192 1.431 . S
C189 C209 1.449 . S
C190 C189 1.258 . S
C190 C191 1.477 . S
C190 H210 0.931 . S
C191 C187 1.460 . S
C191 C190 1.477 . S
C191 H211 0.930 . S
C192 N188 1.362 . S
C192 C189 1.431 . S
C192 C202 1.476 . S
H193 C187 0.929 . S
C194 O185 1.250 . S
C194 O186 1.258 . S
O195 Mn180 2.162 . S
O195 C183 1.281 . S
O196 Mn180 2.297 . S
O196 C183 1.236 . S
N197 Mn181 2.282 . S
N197 C198 1.328 . S
N197 C202 1.318 . S
C198 N197 1.328 . S
C198 C199 1.457 . S
C198 H203 0.929 . S
C199 C198 1.457 . S
C199 C200 1.291 . S
C199 H212 0.931 . S
C200 C199 1.291 . S
C200 C201 1.373 . S
C200 H213 0.929 . S
C201 C200 1.373 . S
C201 C202 1.396 . S
C201 C208 1.403 . S
C202 C192 1.476 . S
C202 N197 1.318 . S
C202 C201 1.396 . S
H203 C198 0.929 . S
O204 Mn180 2.385 . S
O204 C182 1.234 . S
O205 Mn180 2.209 . S
O205 Mn181 2.215 . S
O205 C182 1.283 . S
O206 Mn180 2.094 . S
O206 C184 1.240 . S
O207 Mn181 2.117 . S
O207 C184 1.264 . S
C208 C201 1.403 . S
C208 C209 1.399 . S
C208 H214 0.929 . S
C209 C189 1.449 . S
C209 C208 1.399 . S
C209 H215 0.930 . S
H210 C190 0.931 . S
H211 C191 0.930 . S
H212 C199 0.931 . S
H213 C200 0.929 . S
H214 C208 0.929 . S
H215 C209 0.930 . S
H216 C224 0.950 . S
H217 C229 0.950 . S
H218 C226 0.950 . S
H219 C228 0.950 . S
H220 C230 0.950 . S
H221 C232 0.950 . S
H222 C234 0.950 . S
H223 C235 0.950 . S
C224 H216 0.950 . S
C224 C225 1.386 . S
C224 C226 1.391 . S
C225 C224 1.386 . S
C225 C229 1.393 . S
C226 H218 0.950 . S
C226 C224 1.391 . S
C226 C227 1.400 . S
C227 C226 1.400 . S
C227 C228 1.398 . S
C227 C233 1.491 . S
C228 H219 0.950 . S
C228 C227 1.398 . S
C228 C229 1.391 . S
C229 H217 0.950 . S
C229 C225 1.393 . S
C229 C228 1.391 . S
C230 H220 0.950 . S
C230 C231 1.386 . S
C230 C232 1.391 . S
C231 C230 1.386 . S
C231 C235 1.393 . S
C232 H221 0.950 . S
C232 C230 1.391 . S
C232 C233 1.400 . S
C233 C227 1.491 . S
C233 C232 1.400 . S
C233 C234 1.398 . S
C234 H222 0.950 . S
C234 C233 1.398 . S
C234 C235 1.391 . S
C235 H223 0.950 . S
C235 C231 1.393 . S
C235 C234 1.391 . S
H236 C244 0.950 . S
H237 C249 0.950 . S
H238 C246 0.950 . S
H239 C248 0.950 . S
H240 C250 0.950 . S
H241 C252 0.950 . S
H242 C254 0.950 . S
H243 C255 0.950 . S
C244 H236 0.950 . S
C244 C245 1.386 . S
C244 C246 1.391 . S
C245 C244 1.386 . S
C245 C249 1.393 . S
C246 H238 0.950 . S
C246 C244 1.391 . S
C246 C247 1.400 . S
C247 C246 1.400 . S
C247 C248 1.398 . S
C247 C253 1.491 . S
C248 H239 0.950 . S
C248 C247 1.398 . S
C248 C249 1.391 . S
C249 H237 0.950 . S
C249 C245 1.393 . S
C249 C248 1.391 . S
C250 H240 0.950 . S
C250 C251 1.386 . S
C250 C252 1.391 . S
C251 C250 1.386 . S
C251 C255 1.393 . S
C252 H241 0.950 . S
C252 C250 1.391 . S
C252 C253 1.400 . S
C253 C247 1.491 . S
C253 C252 1.400 . S
C253 C254 1.398 . S
C254 H242 0.950 . S
C254 C253 1.398 . S
C254 C255 1.391 . S
C255 H243 0.950 . S
C255 C251 1.393 . S
C255 C254 1.391 . S
H256 C264 0.950 . S
H257 C269 0.950 . S
H258 C266 0.950 . S
H259 C268 0.950 . S
H260 C270 0.950 . S
H261 C272 0.950 . S
H262 C274 0.950 . S
H263 C275 0.950 . S
C264 H256 0.950 . S
C264 C265 1.386 . S
C264 C266 1.391 . S
C265 C264 1.386 . S
C265 C269 1.393 . S
C266 H258 0.950 . S
C266 C264 1.391 . S
C266 C267 1.400 . S
C267 C266 1.400 . S
C267 C268 1.398 . S
C267 C273 1.491 . S
C268 H259 0.950 . S
C268 C267 1.398 . S
C268 C269 1.391 . S
C269 H257 0.950 . S
C269 C265 1.393 . S
C269 C268 1.391 . S
C270 H260 0.950 . S
C270 C271 1.386 . S
C270 C272 1.391 . S
C271 C270 1.386 . S
C271 C275 1.393 . S
C272 H261 0.950 . S
C272 C270 1.391 . S
C272 C273 1.400 . S
C273 C267 1.491 . S
C273 C272 1.400 . S
C273 C274 1.398 . S
C274 H262 0.950 . S
C274 C273 1.398 . S
C274 C275 1.391 . S
C275 H263 0.950 . S
C275 C271 1.393 . S
C275 C274 1.391 . S
H276 C284 0.950 . S
H277 C289 0.950 . S
H278 C286 0.950 . S
H279 C288 0.950 . S
H280 C290 0.950 . S
H281 C292 0.950 . S
H282 C294 0.950 . S
H283 C295 0.950 . S
C284 H276 0.950 . S
C284 C285 1.386 . S
C284 C286 1.391 . S
C285 C284 1.386 . S
C285 C289 1.393 . S
C286 H278 0.950 . S
C286 C284 1.391 . S
C286 C287 1.400 . S
C287 C286 1.400 . S
C287 C288 1.398 . S
C287 C293 1.491 . S
C288 H279 0.950 . S
C288 C287 1.398 . S
C288 C289 1.391 . S
C289 H277 0.950 . S
C289 C285 1.393 . S
C289 C288 1.391 . S
C290 H280 0.950 . S
C290 C291 1.386 . S
C290 C292 1.391 . S
C291 C290 1.386 . S
C291 C295 1.393 . S
C292 H281 0.950 . S
C292 C290 1.391 . S
C292 C293 1.400 . S
C293 C287 1.491 . S
C293 C292 1.400 . S
C293 C294 1.398 . S
C294 H282 0.950 . S
C294 C293 1.398 . S
C294 C295 1.391 . S
C295 H283 0.950 . S
C295 C291 1.393 . S
C295 C294 1.391 . S
H296 C304 0.950 . S
H297 C309 0.950 . S
H298 C306 0.950 . S
H299 C308 0.950 . S
H300 C310 0.950 . S
H301 C312 0.950 . S
H302 C314 0.950 . S
H303 C315 0.950 . S
C304 H296 0.950 . S
C304 C305 1.386 . S
C304 C306 1.391 . S
C305 C304 1.386 . S
C305 C309 1.393 . S
C306 H298 0.950 . S
C306 C304 1.391 . S
C306 C307 1.400 . S
C307 C306 1.400 . S
C307 C308 1.398 . S
C307 C313 1.491 . S
C308 H299 0.950 . S
C308 C307 1.398 . S
C308 C309 1.391 . S
C309 H297 0.950 . S
C309 C305 1.393 . S
C309 C308 1.391 . S
C310 H300 0.950 . S
C310 C311 1.386 . S
C310 C312 1.391 . S
C311 C310 1.386 . S
C311 C315 1.393 . S
C312 H301 0.950 . S
C312 C310 1.391 . S
C312 C313 1.400 . S
C313 C307 1.491 . S
C313 C312 1.400 . S
C313 C314 1.398 . S
C314 H302 0.950 . S
C314 C313 1.398 . S
C314 C315 1.391 . S
C315 H303 0.950 . S
C315 C311 1.393 . S
C315 C314 1.391 . S
H316 C324 0.950 . S
H317 C329 0.950 . S
H318 C326 0.950 . S
H319 C328 0.950 . S
H320 C330 0.950 . S
H321 C332 0.950 . S
H322 C334 0.950 . S
H323 C335 0.950 . S
C324 H316 0.950 . S
C324 C325 1.386 . S
C324 C326 1.391 . S
C325 C324 1.386 . S
C325 C329 1.393 . S
C326 H318 0.950 . S
C326 C324 1.391 . S
C326 C327 1.400 . S
C327 C326 1.400 . S
C327 C328 1.398 . S
C327 C333 1.491 . S
C328 H319 0.950 . S
C328 C327 1.398 . S
C328 C329 1.391 . S
C329 H317 0.950 . S
C329 C325 1.393 . S
C329 C328 1.391 . S
C330 H320 0.950 . S
C330 C331 1.386 . S
C330 C332 1.391 . S
C331 C330 1.386 . S
C331 C335 1.393 . S
C332 H321 0.950 . S
C332 C330 1.391 . S
C332 C333 1.400 . S
C333 C327 1.491 . S
C333 C332 1.400 . S
C333 C334 1.398 . S
C334 H322 0.950 . S
C334 C333 1.398 . S
C334 C335 1.391 . S
C335 H323 0.950 . S
C335 C331 1.393 . S
C335 C334 1.391 . S
H336 C344 0.950 . S
H337 C349 0.950 . S
H338 C346 0.950 1_554 S
H339 C348 0.950 . S
H340 C350 0.950 . S
H341 C352 0.950 . S
H342 C354 0.950 1_565 S
H343 C355 0.950 . S
C344 H336 0.950 . S
C344 C345 1.386 . S
C344 C346 1.391 . S
C345 C344 1.386 . S
C345 C349 1.393 . S
C346 H338 0.950 1_556 S
C346 C344 1.391 . S
C346 C347 1.400 . S
C347 C346 1.400 . S
C347 C348 1.398 1_565 S
C347 C353 1.491 1_566 S
C348 H339 0.950 . S
C348 C347 1.398 1_545 S
C348 C349 1.391 1_545 S
C349 H337 0.950 . S
C349 C345 1.393 . S
C349 C348 1.391 1_565 S
C350 H340 0.950 . S
C350 C351 1.386 . S
C350 C352 1.391 . S
C351 C350 1.386 . S
C351 C355 1.393 . S
C352 H341 0.950 . S
C352 C350 1.391 . S
C352 C353 1.400 . S
C353 C347 1.491 1_544 S
C353 C352 1.400 . S
C353 C354 1.398 . S
C354 H342 0.950 1_545 S
C354 C353 1.398 . S
C354 C355 1.391 . S
C355 H343 0.950 . S
C355 C351 1.393 . S
C355 C354 1.391 . S
H356 C364 0.950 . S
H357 C369 0.950 . S
H358 C366 0.950 . S
H359 C368 0.950 . S
H360 C370 0.950 . S
H361 C372 0.950 . S
H362 C374 0.950 . S
H363 C375 0.950 . S
C364 H356 0.950 . S
C364 C365 1.386 . S
C364 C366 1.391 . S
C365 C364 1.386 . S
C365 C369 1.393 . S
C366 H358 0.950 . S
C366 C364 1.391 . S
C366 C367 1.400 . S
C367 C366 1.400 . S
C367 C368 1.398 . S
C367 C373 1.491 . S
C368 H359 0.950 . S
C368 C367 1.398 . S
C368 C369 1.391 . S
C369 H357 0.950 . S
C369 C365 1.393 . S
C369 C368 1.391 . S
C370 H360 0.950 . S
C370 C371 1.386 . S
C370 C372 1.391 . S
C371 C370 1.386 . S
C371 C375 1.393 . S
C372 H361 0.950 . S
C372 C370 1.391 . S
C372 C373 1.400 . S
C373 C367 1.491 . S
C373 C372 1.400 . S
C373 C374 1.398 . S
C374 H362 0.950 . S
C374 C373 1.398 . S
C374 C375 1.391 . S
C375 H363 0.950 . S
C375 C371 1.393 . S
C375 C374 1.391 . S
H376 C384 0.950 . S
H377 C389 0.950 . S
H378 C386 0.950 1_655 S
H379 C388 0.950 . S
H380 C390 0.950 . S
H381 C392 0.950 1_455 S
H382 C394 0.950 . S
H383 C395 0.950 . S
C384 H376 0.950 . S
C384 C385 1.386 . S
C384 C386 1.391 . S
C385 C384 1.386 . S
C385 C389 1.393 . S
C386 H378 0.950 1_455 S
C386 C384 1.391 . S
C386 C387 1.400 . S
C387 C386 1.400 . S
C387 C388 1.398 . S
C387 C393 1.491 1_456 S
C388 H379 0.950 . S
C388 C387 1.398 . S
C388 C389 1.391 . S
C389 H377 0.950 . S
C389 C385 1.393 . S
C389 C388 1.391 . S
C390 H380 0.950 . S
C390 C391 1.386 . S
C390 C392 1.391 . S
C391 C390 1.386 . S
C391 C395 1.393 . S
C392 H381 0.950 1_655 S
C392 C390 1.391 . S
C392 C393 1.400 . S
C393 C387 1.491 1_654 S
C393 C392 1.400 . S
C393 C394 1.398 . S
C394 H382 0.950 . S
C394 C393 1.398 . S
C394 C395 1.391 . S
C395 H383 0.950 . S
C395 C391 1.393 . S
C395 C394 1.391 . S
H396 C404 0.950 . S
H397 C409 0.950 . S
H398 C406 0.950 . S
H399 C408 0.950 . S
H400 C410 0.950 . S
H401 C412 0.950 1_545 S
H402 C414 0.950 . S
H403 C415 0.950 . S
C404 H396 0.950 . S
C404 C405 1.386 . S
C404 C406 1.391 . S
C405 C404 1.386 . S
C405 C409 1.393 . S
C406 H398 0.950 . S
C406 C404 1.391 . S
C406 C407 1.400 . S
C407 C406 1.400 . S
C407 C408 1.398 . S
C407 C413 1.491 1_545 S
C408 H399 0.950 . S
C408 C407 1.398 . S
C408 C409 1.391 . S
C409 H397 0.950 . S
C409 C405 1.393 . S
C409 C408 1.391 . S
C410 H400 0.950 . S
C410 C411 1.386 . S
C410 C412 1.391 . S
C411 C410 1.386 . S
C411 C415 1.393 . S
C412 H401 0.950 1_565 S
C412 C410 1.391 . S
C412 C413 1.400 . S
C413 C407 1.491 1_565 S
C413 C412 1.400 . S
C413 C414 1.398 . S
C414 H402 0.950 . S
C414 C413 1.398 . S
C414 C415 1.391 . S
C415 H403 0.950 . S
C415 C411 1.393 . S
C415 C414 1.391 . S
H416 C424 0.950 . S
H417 C429 0.950 . S
H418 C426 0.950 . S
H419 C428 0.963 . S
H420 C430 0.950 . S
H421 C432 0.950 . S
H422 C434 0.950 1_556 S
H423 C435 0.950 . S
C424 H416 0.950 . S
C424 C425 1.386 . S
C424 C426 1.391 . S
C425 C424 1.386 . S
C425 C429 1.393 . S
C426 H418 0.950 . S
C426 C424 1.391 . S
C426 C427 1.400 . S
C427 C426 1.400 . S
C427 C428 1.398 . S
C427 C433 1.491 1_556 S
C428 H419 0.963 . S
C428 C427 1.398 . S
C428 C429 1.391 . S
C429 H417 0.950 . S
C429 C425 1.393 . S
C429 C428 1.391 . S
C430 H420 0.950 . S
C430 C431 1.386 . S
C430 C432 1.391 . S
C431 C430 1.386 . S
C431 C435 1.393 . S
C432 H421 0.950 . S
C432 C430 1.391 . S
C432 C433 1.400 . S
C433 C427 1.491 1_554 S
C433 C432 1.400 . S
C433 C434 1.398 . S
C434 H422 0.950 1_554 S
C434 C433 1.398 . S
C434 C435 1.391 . S
C435 H423 0.950 . S
C435 C431 1.393 . S
C435 C434 1.391 . S
H436 C444 0.950 . S
H437 C449 0.950 . S
H438 C446 0.955 . S
H439 C448 0.950 . S
H440 C450 0.950 . S
H441 C452 0.955 . S
H442 C454 0.950 . S
H443 C455 0.950 . S
C444 H436 0.950 . S
C444 C445 1.386 . S
C444 C446 1.391 . S
C445 C444 1.386 . S
C445 C449 1.393 . S
C446 H438 0.955 . S
C446 C444 1.391 . S
C446 C447 1.400 . S
C447 C446 1.400 . S
C447 C448 1.398 . S
C447 C453 1.491 1_455 S
C448 H439 0.950 . S
C448 C447 1.398 . S
C448 C449 1.391 . S
C449 H437 0.950 . S
C449 C445 1.393 . S
C449 C448 1.391 . S
C450 H440 0.950 . S
C450 C451 1.386 . S
C450 C452 1.391 . S
C451 C450 1.386 . S
C451 C455 1.393 . S
C452 H441 0.955 . S
C452 C450 1.391 . S
C452 C453 1.400 . S
C453 C447 1.491 1_655 S
C453 C452 1.400 . S
C453 C454 1.398 . S
C454 H442 0.950 . S
C454 C453 1.398 . S
C454 C455 1.391 . S
C455 H443 0.950 . S
C455 C451 1.393 . S
C455 C454 1.391 . S
C225 C3 1.016 . S
C231 C147 1.017 . S
C245 C38 1.033 . S
C251 C182 1.059 . S
C265 C2 1.036 . S
C271 C74 1.052 . S
C285 C111 1.032 . S
C291 C39 1.037 . S
C305 C146 1.060 . S
C311 C75 1.036 . S
C325 C110 1.036 . S
C331 C183 1.046 . S
C345 C112 1.387 . S
C351 C14 1.343 . S
C365 C158 1.337 . S
C371 C40 1.402 . S
C385 C184 1.406 . S
C391 C76 1.407 . S
C405 C4 1.399 . S
C411 C122 1.322 . S
C425 C50 1.343 . S
C431 C148 1.390 . S
C445 C194 1.338 . S
C451 C86 1.331 . S
