# Generated by pormake.
# Topology uod, (4)-cn, num edge types: 1
# Building blocks:
#     Node 0, Type 0, BuildingBlock: QUQFOY_clean_sbu_1, # of connection points: 4
#     Node 1, Type 0, BuildingBlock: QUQFOY_clean_sbu_1, # of connection points: 4
#     Node 2, Type 0, BuildingBlock: QUQFOY_clean_sbu_1, # of connection points: 4
#     Node 3, Type 0, BuildingBlock: QUQFOY_clean_sbu_1, # of connection points: 4
#     Node 4, Type 0, BuildingBlock: QUQFOY_clean_sbu_1, # of connection points: 4
#     Node 5, Type 0, BuildingBlock: QUQFOY_clean_sbu_1, # of connection points: 4
#     Node 6, Type 0, BuildingBlock: QUQFOY_clean_sbu_1, # of connection points: 4
#     Node 7, Type 0, BuildingBlock: QUQFOY_clean_sbu_1, # of connection points: 4
#     Node 8, Type 0, BuildingBlock: QUQFOY_clean_sbu_1, # of connection points: 4
#     Node 9, Type 0, BuildingBlock: QUQFOY_clean_sbu_1, # of connection points: 4
#     Node 10, Type 0, BuildingBlock: QUQFOY_clean_sbu_1, # of connection points: 4
#     Node 11, Type 0, BuildingBlock: QUQFOY_clean_sbu_1, # of connection points: 4
#     Node 12, Type 0, BuildingBlock: QUQFOY_clean_sbu_1, # of connection points: 4
#     Node 13, Type 0, BuildingBlock: QUQFOY_clean_sbu_1, # of connection points: 4
#     Node 14, Type 0, BuildingBlock: QUQFOY_clean_sbu_1, # of connection points: 4
#     Node 15, Type 0, BuildingBlock: QUQFOY_clean_sbu_1, # of connection points: 4
#     Node 16, Type 0, BuildingBlock: QUQFOY_clean_sbu_1, # of connection points: 4
#     Node 17, Type 0, BuildingBlock: QUQFOY_clean_sbu_1, # of connection points: 4
#     Node 18, Type 0, BuildingBlock: QUQFOY_clean_sbu_1, # of connection points: 4
#     Node 19, Type 0, BuildingBlock: QUQFOY_clean_sbu_1, # of connection points: 4
#     Node 20, Type 0, BuildingBlock: QUQFOY_clean_sbu_1, # of connection points: 4
#     Node 21, Type 0, BuildingBlock: QUQFOY_clean_sbu_1, # of connection points: 4
#     Node 22, Type 0, BuildingBlock: QUQFOY_clean_sbu_1, # of connection points: 4
#     Node 23, Type 0, BuildingBlock: QUQFOY_clean_sbu_1, # of connection points: 4
#     Node 24, Type 0, BuildingBlock: QUQFOY_clean_sbu_1, # of connection points: 4
#     Node 25, Type 0, BuildingBlock: QUQFOY_clean_sbu_1, # of connection points: 4
#     Node 26, Type 0, BuildingBlock: QUQFOY_clean_sbu_1, # of connection points: 4
#     Node 27, Type 0, BuildingBlock: QUQFOY_clean_sbu_1, # of connection points: 4
#     Node 28, Type 0, BuildingBlock: QUQFOY_clean_sbu_1, # of connection points: 4
#     Node 29, Type 0, BuildingBlock: QUQFOY_clean_sbu_1, # of connection points: 4
#     Node 30, Type 0, BuildingBlock: QUQFOY_clean_sbu_1, # of connection points: 4
#     Node 31, Type 0, BuildingBlock: QUQFOY_clean_sbu_1, # of connection points: 4
#     Edge 32, Type (0, 0), BuildingBlock: ZUJKAS_clean_linker_0, # of connection points: 2
#     Edge 33, Type (0, 0), BuildingBlock: ZUJKAS_clean_linker_0, # of connection points: 2
#     Edge 34, Type (0, 0), BuildingBlock: ZUJKAS_clean_linker_0, # of connection points: 2
#     Edge 35, Type (0, 0), BuildingBlock: ZUJKAS_clean_linker_0, # of connection points: 2
#     Edge 36, Type (0, 0), BuildingBlock: ZUJKAS_clean_linker_0, # of connection points: 2
#     Edge 37, Type (0, 0), BuildingBlock: ZUJKAS_clean_linker_0, # of connection points: 2
#     Edge 38, Type (0, 0), BuildingBlock: ZUJKAS_clean_linker_0, # of connection points: 2
#     Edge 39, Type (0, 0), BuildingBlock: ZUJKAS_clean_linker_0, # of connection points: 2
#     Edge 40, Type (0, 0), BuildingBlock: ZUJKAS_clean_linker_0, # of connection points: 2
#     Edge 41, Type (0, 0), BuildingBlock: ZUJKAS_clean_linker_0, # of connection points: 2
#     Edge 42, Type (0, 0), BuildingBlock: ZUJKAS_clean_linker_0, # of connection points: 2
#     Edge 43, Type (0, 0), BuildingBlock: ZUJKAS_clean_linker_0, # of connection points: 2
#     Edge 44, Type (0, 0), BuildingBlock: ZUJKAS_clean_linker_0, # of connection points: 2
#     Edge 45, Type (0, 0), BuildingBlock: ZUJKAS_clean_linker_0, # of connection points: 2
#     Edge 46, Type (0, 0), BuildingBlock: ZUJKAS_clean_linker_0, # of connection points: 2
#     Edge 47, Type (0, 0), BuildingBlock: ZUJKAS_clean_linker_0, # of connection points: 2
#     Edge 48, Type (0, 0), BuildingBlock: ZUJKAS_clean_linker_0, # of connection points: 2
#     Edge 49, Type (0, 0), BuildingBlock: ZUJKAS_clean_linker_0, # of connection points: 2
#     Edge 50, Type (0, 0), BuildingBlock: ZUJKAS_clean_linker_0, # of connection points: 2
#     Edge 51, Type (0, 0), BuildingBlock: ZUJKAS_clean_linker_0, # of connection points: 2
#     Edge 52, Type (0, 0), BuildingBlock: ZUJKAS_clean_linker_0, # of connection points: 2
#     Edge 53, Type (0, 0), BuildingBlock: ZUJKAS_clean_linker_0, # of connection points: 2
#     Edge 54, Type (0, 0), BuildingBlock: ZUJKAS_clean_linker_0, # of connection points: 2
#     Edge 55, Type (0, 0), BuildingBlock: ZUJKAS_clean_linker_0, # of connection points: 2
#     Edge 56, Type (0, 0), BuildingBlock: ZUJKAS_clean_linker_0, # of connection points: 2
#     Edge 57, Type (0, 0), BuildingBlock: ZUJKAS_clean_linker_0, # of connection points: 2
#     Edge 58, Type (0, 0), BuildingBlock: ZUJKAS_clean_linker_0, # of connection points: 2
#     Edge 59, Type (0, 0), BuildingBlock: ZUJKAS_clean_linker_0, # of connection points: 2
#     Edge 60, Type (0, 0), BuildingBlock: ZUJKAS_clean_linker_0, # of connection points: 2
#     Edge 61, Type (0, 0), BuildingBlock: ZUJKAS_clean_linker_0, # of connection points: 2
#     Edge 62, Type (0, 0), BuildingBlock: ZUJKAS_clean_linker_0, # of connection points: 2
#     Edge 63, Type (0, 0), BuildingBlock: ZUJKAS_clean_linker_0, # of connection points: 2
#     Edge 64, Type (0, 0), BuildingBlock: ZUJKAS_clean_linker_0, # of connection points: 2
#     Edge 65, Type (0, 0), BuildingBlock: ZUJKAS_clean_linker_0, # of connection points: 2
#     Edge 66, Type (0, 0), BuildingBlock: ZUJKAS_clean_linker_0, # of connection points: 2
#     Edge 67, Type (0, 0), BuildingBlock: ZUJKAS_clean_linker_0, # of connection points: 2
#     Edge 68, Type (0, 0), BuildingBlock: ZUJKAS_clean_linker_0, # of connection points: 2
#     Edge 69, Type (0, 0), BuildingBlock: ZUJKAS_clean_linker_0, # of connection points: 2
#     Edge 70, Type (0, 0), BuildingBlock: ZUJKAS_clean_linker_0, # of connection points: 2
#     Edge 71, Type (0, 0), BuildingBlock: ZUJKAS_clean_linker_0, # of connection points: 2
#     Edge 72, Type (0, 0), BuildingBlock: ZUJKAS_clean_linker_0, # of connection points: 2
#     Edge 73, Type (0, 0), BuildingBlock: ZUJKAS_clean_linker_0, # of connection points: 2
#     Edge 74, Type (0, 0), BuildingBlock: ZUJKAS_clean_linker_0, # of connection points: 2
#     Edge 75, Type (0, 0), BuildingBlock: ZUJKAS_clean_linker_0, # of connection points: 2
#     Edge 76, Type (0, 0), BuildingBlock: ZUJKAS_clean_linker_0, # of connection points: 2
#     Edge 77, Type (0, 0), BuildingBlock: ZUJKAS_clean_linker_0, # of connection points: 2
#     Edge 78, Type (0, 0), BuildingBlock: ZUJKAS_clean_linker_0, # of connection points: 2
#     Edge 79, Type (0, 0), BuildingBlock: ZUJKAS_clean_linker_0, # of connection points: 2
#     Edge 80, Type (0, 0), BuildingBlock: ZUJKAS_clean_linker_0, # of connection points: 2
#     Edge 81, Type (0, 0), BuildingBlock: ZUJKAS_clean_linker_0, # of connection points: 2
#     Edge 82, Type (0, 0), BuildingBlock: ZUJKAS_clean_linker_0, # of connection points: 2
#     Edge 83, Type (0, 0), BuildingBlock: ZUJKAS_clean_linker_0, # of connection points: 2
#     Edge 84, Type (0, 0), BuildingBlock: ZUJKAS_clean_linker_0, # of connection points: 2
#     Edge 85, Type (0, 0), BuildingBlock: ZUJKAS_clean_linker_0, # of connection points: 2
#     Edge 86, Type (0, 0), BuildingBlock: ZUJKAS_clean_linker_0, # of connection points: 2
#     Edge 87, Type (0, 0), BuildingBlock: ZUJKAS_clean_linker_0, # of connection points: 2
#     Edge 88, Type (0, 0), BuildingBlock: ZUJKAS_clean_linker_0, # of connection points: 2
#     Edge 89, Type (0, 0), BuildingBlock: ZUJKAS_clean_linker_0, # of connection points: 2
#     Edge 90, Type (0, 0), BuildingBlock: ZUJKAS_clean_linker_0, # of connection points: 2
#     Edge 91, Type (0, 0), BuildingBlock: ZUJKAS_clean_linker_0, # of connection points: 2
#     Edge 92, Type (0, 0), BuildingBlock: ZUJKAS_clean_linker_0, # of connection points: 2
#     Edge 93, Type (0, 0), BuildingBlock: ZUJKAS_clean_linker_0, # of connection points: 2
#     Edge 94, Type (0, 0), BuildingBlock: ZUJKAS_clean_linker_0, # of connection points: 2
#     Edge 95, Type (0, 0), BuildingBlock: ZUJKAS_clean_linker_0, # of connection points: 2
# Relax obj value: 0.048
# Max RMSD: 0.088
# Mean RMSD: 0.088
data_MOF--net-uod--node1-QUQFOY_clean_sbu_1--edge1-ZUJKAS_clean_linker_0
_symmetry_space_group_name_H-M    P1
_symmetry_Int_Tables_number       1
_symmetry_cell_setting            triclinic
loop_
_symmetry_equiv_pos_as_xyz
'x, y, z'
_cell_length_a     117.3671
_cell_length_b     36.728942
_cell_length_c     86.957008
_cell_angle_alpha  89.972621
_cell_angle_beta   90.000427
_cell_angle_gamma 90.001964
loop_
_atom_site_label
_atom_site_type_symbol
_atom_site_fract_x
_atom_site_fract_y
_atom_site_fract_z
_atom_type_partial_charge
O0 O 0.0542 0.47147 0.09295 0.0
Cd1 Cd 0.05984 0.42773 0.08063 0.0
Cd2 Cd 0.052 0.39328 0.10545 0.0
O3 O 0.04244 0.44052 0.10768 0.0
O4 O 0.05967 0.44696 0.05916 0.0
O5 O 0.04755 0.40529 0.06759 0.0
C6 C 0.05052 0.42812 0.05698 0.0
C7 C 0.04404 0.33571 0.10963 0.0
C8 C 0.04589 0.47074 0.10227 0.0
C9 C 0.07759 0.39898 0.10095 0.0
O10 O 0.06928 0.39553 0.11024 0.0
O11 O 0.07572 0.40747 0.08696 0.0
O12 O 0.04596 0.35787 0.12083 0.0
O13 O 0.04611 0.34701 0.09583 0.0
O14 O 0.21299 0.79105 0.0905 0.0
Cd15 Cd 0.20617 0.83038 0.07672 0.0
Cd16 Cd 0.21193 0.87102 0.1031 0.0
O17 O 0.22104 0.82433 0.10861 0.0
O18 O 0.20665 0.80537 0.05635 0.0
O19 O 0.21757 0.85248 0.06207 0.0
C20 C 0.21511 0.82614 0.05277 0.0
C21 C 0.21924 0.92855 0.10915 0.0
C22 C 0.21948 0.79372 0.1021 0.0
C23 C 0.18671 0.85979 0.09448 0.0
O24 O 0.19432 0.86929 0.10409 0.0
O25 O 0.18951 0.84577 0.08162 0.0
O26 O 0.21524 0.90722 0.11958 0.0
O27 O 0.21966 0.91659 0.09519 0.0
O28 O 0.04226 0.81517 0.15878 0.0
Cd29 Cd 0.052 0.84511 0.17361 0.0
Cd30 Cd 0.04805 0.89488 0.14714 0.0
O31 O 0.03792 0.85232 0.13961 0.0
O32 O 0.05222 0.81121 0.19166 0.0
O33 O 0.04312 0.86376 0.19194 0.0
C34 C 0.04525 0.83292 0.19851 0.0
C35 C 0.04219 0.95505 0.14269 0.0
C36 C 0.03704 0.82172 0.14632 0.0
C37 C 0.07247 0.87181 0.15569 0.0
O38 O 0.06547 0.88779 0.14678 0.0
O39 O 0.069 0.85456 0.16754 0.0
O40 O 0.04564 0.93436 0.13168 0.0
O41 O 0.04168 0.94117 0.15633 0.0
O42 O 0.22119 0.44562 0.16433 0.0
Cd43 Cd 0.21241 0.41206 0.17889 0.0
Cd44 Cd 0.21678 0.36746 0.15107 0.0
O45 O 0.22622 0.41223 0.14427 0.0
O46 O 0.21218 0.44387 0.19757 0.0
O47 O 0.22215 0.39305 0.19634 0.0
C48 C 0.21975 0.42281 0.20357 0.0
C49 C 0.22276 0.30854 0.14467 0.0
C50 C 0.22647 0.442 0.15169 0.0
C51 C 0.19211 0.38529 0.16106 0.0
O52 O 0.19931 0.37276 0.1515 0.0
O53 O 0.19543 0.40034 0.1735 0.0
O54 O 0.21857 0.33029 0.13453 0.0
O55 O 0.22412 0.32073 0.15848 0.0
O56 O 0.96527 0.54687 0.91637 0.0
Cd57 Cd 0.95851 0.58578 0.93037 0.0
Cd58 Cd 0.96431 0.62814 0.90426 0.0
O59 O 0.97325 0.58125 0.89855 0.0
O60 O 0.95886 0.56036 0.9507 0.0
O61 O 0.96998 0.60711 0.94511 0.0
C62 C 0.96739 0.58075 0.95435 0.0
C63 C 0.97203 0.68538 0.89835 0.0
C64 C 0.9717 0.55026 0.90474 0.0
C65 C 0.93913 0.61719 0.91265 0.0
O66 O 0.94671 0.62722 0.90309 0.0
O67 O 0.94193 0.60214 0.92532 0.0
O68 O 0.96842 0.66368 0.8878 0.0
O69 O 0.97173 0.67398 0.9124 0.0
O70 O 0.80307 0.20714 0.91176 0.0
Cd71 Cd 0.80783 0.16497 0.92561 0.0
Cd72 Cd 0.80013 0.12825 0.90118 0.0
O73 O 0.79059 0.17564 0.8984 0.0
O74 O 0.80754 0.18771 0.94647 0.0
O75 O 0.79514 0.14595 0.93897 0.0
C76 C 0.79823 0.16998 0.94902 0.0
C77 C 0.79229 0.07067 0.8964 0.0
C78 C 0.79461 0.20614 0.9027 0.0
C79 C 0.82573 0.13371 0.90667 0.0
O80 O 0.81758 0.13014 0.89712 0.0
O81 O 0.82363 0.14294 0.9205 0.0
O82 O 0.79452 0.09308 0.8854 0.0
O83 O 0.79394 0.08172 0.91034 0.0
O84 O 0.96732 0.19834 0.8413 0.0
Cd85 Cd 0.96 0.15793 0.82854 0.0
Cd86 Cd 0.96575 0.12096 0.85582 0.0
O87 O 0.97501 0.16766 0.86053 0.0
O88 O 0.95968 0.18244 0.80803 0.0
O89 O 0.97097 0.13594 0.81325 0.0
C90 C 0.96813 0.1621 0.80405 0.0
C91 C 0.9732 0.06295 0.86061 0.0
C92 C 0.97369 0.19711 0.85307 0.0
C93 C 0.94062 0.13117 0.84777 0.0
O94 O 0.94825 0.12363 0.85766 0.0
O95 O 0.94341 0.14255 0.83442 0.0
O96 O 0.97017 0.08425 0.87165 0.0
O97 O 0.97253 0.07533 0.84672 0.0
O98 O 0.80082 0.55258 0.84609 0.0
Cd99 Cd 0.80657 0.5921 0.83161 0.0
Cd100 Cd 0.80004 0.63302 0.85676 0.0
O101 O 0.79065 0.58639 0.86187 0.0
O102 O 0.80641 0.56578 0.81148 0.0
O103 O 0.79473 0.61124 0.81681 0.0
C104 C 0.79763 0.58497 0.80771 0.0
C105 C 0.79253 0.69124 0.86125 0.0
C106 C 0.79351 0.55525 0.85677 0.0
C107 C 0.82546 0.62315 0.84957 0.0
O108 O 0.81764 0.63117 0.85914 0.0
O109 O 0.82292 0.61025 0.8364 0.0
O110 O 0.7955 0.67014 0.87239 0.0
O111 O 0.79327 0.67854 0.84742 0.0
O112 O 0.05128 0.95744 0.59294 0.0
Cd113 Cd 0.05734 0.91437 0.58049 0.0
Cd114 Cd 0.0502 0.87994 0.60585 0.0
O115 O 0.04032 0.92615 0.60865 0.0
O116 O 0.05754 0.93555 0.55938 0.0
O117 O 0.04544 0.89261 0.56659 0.0
C118 C 0.04852 0.9166 0.55651 0.0
C119 C 0.04281 0.82151 0.60942 0.0
C120 C 0.0433 0.95635 0.60275 0.0
C121 C 0.07558 0.88734 0.60056 0.0
O122 O 0.06748 0.88382 0.61016 0.0
O123 O 0.0734 0.89506 0.58657 0.0
O124 O 0.04467 0.84295 0.62088 0.0
O125 O 0.04461 0.83401 0.59573 0.0
O126 O 0.22105 0.30629 0.5957 0.0
Cd127 Cd 0.21169 0.33819 0.58114 0.0
Cd128 Cd 0.21569 0.38566 0.60797 0.0
O129 O 0.22562 0.34227 0.61514 0.0
O130 O 0.21161 0.30628 0.56248 0.0
O131 O 0.221 0.35828 0.56348 0.0
C132 C 0.21883 0.32827 0.55629 0.0
C133 C 0.22195 0.44532 0.61264 0.0
C134 C 0.2263 0.3119 0.60822 0.0
C135 C 0.1912 0.36453 0.59905 0.0
O136 O 0.19822 0.37939 0.60825 0.0
O137 O 0.19468 0.34816 0.58698 0.0
O138 O 0.21837 0.42459 0.62358 0.0
O139 O 0.22233 0.43177 0.59894 0.0
O140 O 0.04611 0.30221 0.66066 0.0
Cd141 Cd 0.05558 0.33413 0.67504 0.0
Cd142 Cd 0.05116 0.38174 0.64822 0.0
O143 O 0.04105 0.33843 0.64151 0.0
O144 O 0.05592 0.30179 0.69357 0.0
O145 O 0.04635 0.3535 0.6929 0.0
C146 C 0.04863 0.3233 0.6999 0.0
C147 C 0.04493 0.4411 0.64292 0.0
C148 C 0.04057 0.30798 0.64839 0.0
C149 C 0.0758 0.36096 0.65671 0.0
O150 O 0.06863 0.37543 0.64759 0.0
O151 O 0.0725 0.3447 0.6689 0.0
O152 O 0.04834 0.41955 0.63219 0.0
O153 O 0.04473 0.42861 0.6568 0.0
O154 O 0.21405 0.95971 0.6656 0.0
Cd155 Cd 0.20883 0.91583 0.67824 0.0
Cd156 Cd 0.2161 0.8822 0.6528 0.0
O157 O 0.22551 0.92958 0.65015 0.0
O158 O 0.20889 0.93619 0.69951 0.0
O159 O 0.2213 0.89503 0.69148 0.0
C160 C 0.21816 0.91813 0.70188 0.0
C161 C 0.22385 0.82463 0.64801 0.0
C162 C 0.22207 0.95954 0.65582 0.0
C163 C 0.19069 0.88715 0.6586 0.0
O164 O 0.19873 0.88473 0.64884 0.0
O165 O 0.19294 0.89467 0.67259 0.0
O166 O 0.22168 0.8471 0.637 0.0
O167 O 0.22219 0.83564 0.66195 0.0
O168 O 0.97063 0.05489 0.41415 0.0
Cd169 Cd 0.96152 0.0892 0.42791 0.0
Cd170 Cd 0.96631 0.13371 0.40058 0.0
O171 O 0.97628 0.08921 0.39469 0.0
O172 O 0.96102 0.05914 0.44707 0.0
O173 O 0.97097 0.10995 0.44524 0.0
C174 C 0.96851 0.08079 0.45288 0.0
C175 C 0.9727 0.19277 0.39495 0.0
C176 C 0.97638 0.05916 0.40194 0.0
C177 C 0.94153 0.11513 0.40911 0.0
O178 O 0.94881 0.12818 0.39977 0.0
O179 O 0.94469 0.10006 0.42163 0.0
O180 O 0.96945 0.17073 0.3843 0.0
O181 O 0.97274 0.18083 0.40893 0.0
O182 O 0.79336 0.70004 0.4114 0.0
Cd183 Cd 0.80393 0.66991 0.42521 0.0
Cd184 Cd 0.79853 0.62441 0.39716 0.0
O185 O 0.78779 0.6669 0.39158 0.0
O186 O 0.80559 0.7077 0.44159 0.0
O187 O 0.79661 0.65585 0.44555 0.0
C188 C 0.79914 0.6882 0.45027 0.0
C189 C 0.79288 0.56403 0.39291 0.0
C190 C 0.78742 0.69611 0.39934 0.0
C191 C 0.82333 0.64568 0.40452 0.0
O192 O 0.81581 0.63341 0.39534 0.0
O193 O 0.82052 0.65867 0.41761 0.0
O194 O 0.79545 0.58545 0.3817 0.0
O195 O 0.79313 0.5773 0.40667 0.0
O196 O 0.96481 0.71012 0.34276 0.0
Cd197 Cd 0.95823 0.66889 0.32969 0.0
Cd198 Cd 0.96466 0.63201 0.3555 0.0
O199 O 0.97472 0.6775 0.35927 0.0
O200 O 0.95795 0.69275 0.30904 0.0
O201 O 0.96959 0.64745 0.31479 0.0
C202 C 0.9666 0.67291 0.30533 0.0
C203 C 0.97161 0.57301 0.35959 0.0
C204 C 0.9723 0.70808 0.35325 0.0
C205 C 0.93939 0.64313 0.34929 0.0
O206 O 0.9473 0.63732 0.35899 0.0
O207 O 0.94186 0.65184 0.33549 0.0
O208 O 0.9694 0.59459 0.37089 0.0
O209 O 0.97037 0.58556 0.3458 0.0
O210 O 0.80012 0.04355 0.34258 0.0
Cd211 Cd 0.80785 0.0819 0.32921 0.0
Cd212 Cd 0.80186 0.1235 0.35526 0.0
O213 O 0.79187 0.07815 0.36005 0.0
O214 O 0.80814 0.05588 0.30905 0.0
O215 O 0.79733 0.10402 0.31339 0.0
C216 C 0.80002 0.07703 0.30456 0.0
C217 C 0.79494 0.18228 0.3601 0.0
C218 C 0.79325 0.04726 0.35372 0.0
C219 C 0.82708 0.10919 0.34831 0.0
O220 O 0.81937 0.11935 0.35766 0.0
O221 O 0.82444 0.09586 0.33526 0.0
O222 O 0.79764 0.16043 0.37111 0.0
O223 O 0.79569 0.17018 0.34619 0.0
O224 O 0.54672 0.45251 0.59536 0.0
Cd225 Cd 0.55579 0.41855 0.58137 0.0
Cd226 Cd 0.55086 0.37317 0.60818 0.0
O227 O 0.54105 0.41747 0.61459 0.0
O228 O 0.55622 0.449 0.56229 0.0
O229 O 0.54625 0.3982 0.56403 0.0
C230 C 0.5487 0.4275 0.55646 0.0
C231 C 0.54408 0.31409 0.61271 0.0
C232 C 0.54099 0.44779 0.60756 0.0
C233 C 0.57571 0.39128 0.60005 0.0
O234 O 0.56836 0.37806 0.60924 0.0
O235 O 0.57262 0.40692 0.58762 0.0
O236 O 0.54743 0.3348 0.62377 0.0
O237 O 0.54421 0.32739 0.59895 0.0
O238 O 0.71288 0.79334 0.58992 0.0
Cd239 Cd 0.70832 0.83992 0.57868 0.0
Cd240 Cd 0.71543 0.8702 0.60442 0.0
O241 O 0.72422 0.82136 0.60626 0.0
O242 O 0.71024 0.82833 0.55639 0.0
O243 O 0.72198 0.86415 0.56948 0.0
C244 C 0.71976 0.84596 0.55709 0.0
C245 C 0.72377 0.92663 0.60966 0.0
C246 C 0.72076 0.79217 0.59991 0.0
C247 C 0.6901 0.86836 0.59839 0.0
O248 O 0.69807 0.86975 0.60828 0.0
O249 O 0.69241 0.86116 0.5844 0.0
O250 O 0.7215 0.90376 0.6205 0.0
O251 O 0.72193 0.91651 0.59565 0.0
O252 O 0.55117 0.79834 0.66572 0.0
Cd253 Cd 0.55738 0.84023 0.67866 0.0
Cd254 Cd 0.55052 0.87731 0.6529 0.0
O255 O 0.54103 0.83046 0.64928 0.0
O256 O 0.55747 0.81755 0.69952 0.0
O257 O 0.5456 0.86161 0.69289 0.0
C258 C 0.54858 0.83683 0.70268 0.0
C259 C 0.54288 0.93496 0.64785 0.0
C260 C 0.54363 0.80003 0.6553 0.0
C261 C 0.57593 0.86933 0.65929 0.0
O262 O 0.56797 0.87506 0.64966 0.0
O263 O 0.57359 0.85875 0.67289 0.0
O264 O 0.5454 0.91268 0.63692 0.0
O265 O 0.54417 0.92379 0.66184 0.0
O266 O 0.72047 0.44421 0.66153 0.0
Cd267 Cd 0.71128 0.41305 0.67657 0.0
Cd268 Cd 0.7151 0.36399 0.65016 0.0
O269 O 0.72465 0.4074 0.64221 0.0
O270 O 0.71127 0.44608 0.69491 0.0
O271 O 0.72067 0.3941 0.6944 0.0
C272 C 0.7185 0.42447 0.70131 0.0
C273 C 0.72166 0.30462 0.64562 0.0
C274 C 0.72544 0.43807 0.64885 0.0
C275 C 0.69066 0.38523 0.65923 0.0
O276 O 0.69762 0.36955 0.65017 0.0
O277 O 0.69423 0.40269 0.67097 0.0
O278 O 0.71778 0.32478 0.63469 0.0
O279 O 0.72211 0.31851 0.65925 0.0
O280 O 0.46853 0.55016 0.41452 0.0
Cd281 Cd 0.46085 0.5908 0.42685 0.0
Cd282 Cd 0.46654 0.62618 0.39952 0.0
O283 O 0.47662 0.58097 0.39565 0.0
O284 O 0.46036 0.56686 0.44748 0.0
O285 O 0.47155 0.6136 0.44228 0.0
C286 C 0.4687 0.58758 0.45153 0.0
C287 C 0.47328 0.68517 0.39502 0.0
C288 C 0.47528 0.55159 0.40314 0.0
C289 C 0.44149 0.61379 0.40685 0.0
O290 O 0.44917 0.62017 0.39689 0.0
O291 O 0.44424 0.60533 0.42059 0.0
O292 O 0.47083 0.66343 0.38386 0.0
O293 O 0.47237 0.67279 0.40889 0.0
O294 O 0.30191 0.21293 0.41382 0.0
Cd295 Cd 0.30803 0.1704 0.42659 0.0
Cd296 Cd 0.30074 0.13464 0.4015 0.0
O297 O 0.29089 0.1808 0.39851 0.0
O298 O 0.30811 0.19193 0.44766 0.0
O299 O 0.29617 0.14848 0.44055 0.0
C300 C 0.29918 0.17264 0.45059 0.0
C301 C 0.29322 0.07661 0.39713 0.0
C302 C 0.2939 0.21132 0.40405 0.0
C303 C 0.3262 0.14262 0.40656 0.0
O304 O 0.31802 0.13842 0.39712 0.0
O305 O 0.3241 0.15106 0.4205 0.0
O306 O 0.29529 0.09876 0.38597 0.0
O307 O 0.29494 0.08808 0.41099 0.0
O308 O 0.46679 0.2032 0.34241 0.0
Cd309 Cd 0.46006 0.16377 0.32853 0.0
Cd310 Cd 0.46643 0.12343 0.35415 0.0
O311 O 0.47628 0.16887 0.35878 0.0
O312 O 0.45977 0.1901 0.30841 0.0
O313 O 0.47136 0.14403 0.31313 0.0
C314 C 0.46838 0.17064 0.30425 0.0
C315 C 0.47344 0.06487 0.35927 0.0
C316 C 0.47406 0.19997 0.35311 0.0
C317 C 0.44114 0.13552 0.34754 0.0
O318 O 0.44901 0.12807 0.3571 0.0
O319 O 0.44364 0.14642 0.33403 0.0
O320 O 0.4708 0.08708 0.37017 0.0
O321 O 0.47257 0.07646 0.34529 0.0
O322 O 0.29626 0.55931 0.34718 0.0
Cd323 Cd 0.3052 0.59587 0.33406 0.0
Cd324 Cd 0.29989 0.63631 0.36106 0.0
O325 O 0.28942 0.59285 0.36613 0.0
O326 O 0.30593 0.56762 0.31445 0.0
O327 O 0.29556 0.61736 0.31706 0.0
C328 C 0.29823 0.58904 0.309 0.0
C329 C 0.29355 0.69599 0.36487 0.0
C330 C 0.2899 0.56294 0.35886 0.0
C331 C 0.32479 0.61926 0.35394 0.0
O332 O 0.31721 0.62902 0.36355 0.0
O333 O 0.32194 0.60822 0.34057 0.0
O334 O 0.29612 0.67508 0.37626 0.0
O335 O 0.29421 0.68253 0.35117 0.0
O336 O 0.55244 0.96222 0.09104 0.0
Cd337 Cd 0.55919 0.923 0.07721 0.0
Cd338 Cd 0.55296 0.88142 0.10283 0.0
O339 O 0.54339 0.92758 0.10776 0.0
O340 O 0.55912 0.94848 0.05689 0.0
O341 O 0.54783 0.90202 0.06224 0.0
C342 C 0.55057 0.92836 0.05308 0.0
C343 C 0.54558 0.82332 0.10802 0.0
C344 C 0.54537 0.95876 0.10198 0.0
C345 C 0.57828 0.8934 0.09569 0.0
O346 O 0.57051 0.88418 0.10514 0.0
O347 O 0.57568 0.90676 0.08262 0.0
O348 O 0.54856 0.84515 0.11889 0.0
O349 O 0.54631 0.83507 0.09405 0.0
O350 O 0.71383 0.28468 0.08934 0.0
Cd351 Cd 0.70771 0.32795 0.07703 0.0
Cd352 Cd 0.71482 0.36202 0.10257 0.0
O353 O 0.72475 0.31583 0.10515 0.0
O354 O 0.70752 0.30742 0.05577 0.0
O355 O 0.71962 0.3501 0.06322 0.0
C356 C 0.71653 0.32649 0.05299 0.0
C357 C 0.72215 0.4205 0.1064 0.0
C358 C 0.72181 0.28569 0.09917 0.0
C359 C 0.68944 0.3543 0.09731 0.0
O360 O 0.69755 0.35767 0.10691 0.0
O361 O 0.69163 0.34706 0.08328 0.0
O362 O 0.72029 0.39874 0.11777 0.0
O363 O 0.72037 0.40832 0.09266 0.0
O364 O 0.54603 0.3067 0.16198 0.0
Cd365 Cd 0.55454 0.34449 0.17492 0.0
Cd366 Cd 0.54903 0.3834 0.14755 0.0
O367 O 0.53868 0.33912 0.14301 0.0
O368 O 0.55539 0.31699 0.19475 0.0
O369 O 0.5446 0.36567 0.19167 0.0
C370 C 0.54745 0.33787 0.19995 0.0
C371 C 0.54282 0.44311 0.14312 0.0
C372 C 0.53952 0.3094 0.1504 0.0
C373 C 0.574 0.36756 0.15486 0.0
O374 O 0.56637 0.37619 0.14513 0.0
O375 O 0.57122 0.35752 0.16841 0.0
O376 O 0.54524 0.42141 0.13194 0.0
O377 O 0.54345 0.43034 0.15696 0.0
O378 O 0.7228 0.93976 0.15903 0.0
Cd379 Cd 0.71336 0.90857 0.17375 0.0
Cd380 Cd 0.71718 0.86023 0.14684 0.0
O381 O 0.72709 0.90359 0.13954 0.0
O382 O 0.71327 0.94142 0.19211 0.0
O383 O 0.72253 0.88915 0.19168 0.0
C384 C 0.7204 0.91957 0.19857 0.0
C385 C 0.72318 0.80072 0.14125 0.0
C386 C 0.72792 0.93394 0.14644 0.0
C387 C 0.69278 0.88215 0.15604 0.0
O388 O 0.69973 0.86673 0.14689 0.0
O389 O 0.69634 0.89902 0.16793 0.0
O390 O 0.71954 0.82239 0.13069 0.0
O391 O 0.72377 0.8132 0.15511 0.0
O392 O 0.466 0.048 0.91364 0.0
Cd393 Cd 0.45999 0.09059 0.9264 0.0
Cd394 Cd 0.46724 0.12606 0.90113 0.0
O395 O 0.47707 0.07974 0.89822 0.0
O396 O 0.45986 0.06892 0.94746 0.0
O397 O 0.4719 0.11212 0.94036 0.0
C398 C 0.46885 0.08796 0.95038 0.0
C399 C 0.47457 0.18425 0.89641 0.0
C400 C 0.47399 0.04933 0.90383 0.0
C401 C 0.44179 0.11788 0.90637 0.0
O402 O 0.44995 0.12198 0.89689 0.0
O403 O 0.44391 0.10979 0.92034 0.0
O404 O 0.47257 0.16171 0.88539 0.0
O405 O 0.47295 0.17306 0.91034 0.0
O406 O 0.29651 0.69177 0.91078 0.0
Cd407 Cd 0.30553 0.66051 0.92595 0.0
Cd408 Cd 0.30234 0.61283 0.89867 0.0
O409 O 0.29314 0.6569 0.89053 0.0
O410 O 0.30507 0.69307 0.94439 0.0
O411 O 0.29589 0.64072 0.94333 0.0
C412 C 0.29781 0.67102 0.95043 0.0
C413 C 0.29611 0.55387 0.89279 0.0
C414 C 0.29199 0.6868 0.8977 0.0
C415 C 0.32655 0.6335 0.90953 0.0
O416 O 0.3198 0.61797 0.90016 0.0
O417 O 0.32272 0.65102 0.92109 0.0
O418 O 0.30094 0.57424 0.88265 0.0
O419 O 0.29441 0.5673 0.90632 0.0
O420 O 0.47018 0.70247 0.84479 0.0
Cd421 Cd 0.46106 0.66765 0.83123 0.0
Cd422 Cd 0.4664 0.62326 0.85786 0.0
O423 O 0.47643 0.66752 0.8637 0.0
O424 O 0.46048 0.69684 0.81182 0.0
O425 O 0.47057 0.64639 0.81409 0.0
C426 C 0.46805 0.67516 0.80622 0.0
C427 C 0.47318 0.56413 0.86218 0.0
C428 C 0.47624 0.69786 0.85669 0.0
C429 C 0.44143 0.64092 0.85046 0.0
O430 O 0.44894 0.62833 0.85958 0.0
O431 O 0.44432 0.65589 0.8378 0.0
O432 O 0.47012 0.58497 0.87335 0.0
O433 O 0.47277 0.57734 0.84841 0.0
O434 O 0.30307 0.04102 0.83988 0.0
Cd435 Cd 0.30874 0.08438 0.82723 0.0
Cd436 Cd 0.30167 0.11839 0.85332 0.0
O437 O 0.29254 0.07082 0.85665 0.0
O438 O 0.30877 0.06322 0.80609 0.0
O439 O 0.29656 0.10552 0.81358 0.0
C440 C 0.29965 0.08181 0.8034 0.0
C441 C 0.29397 0.17543 0.85911 0.0
C442 C 0.29551 0.04111 0.85032 0.0
C443 C 0.32713 0.11284 0.84665 0.0
O444 O 0.31912 0.11639 0.85637 0.0
O445 O 0.32484 0.10431 0.83278 0.0
O446 O 0.29711 0.15322 0.86977 0.0
O447 O 0.29457 0.16449 0.84501 0.0
H448 H 0.03818 0.79645 0.11696 0.0
H449 H 0.03233 0.73568 0.1086 0.0
H450 H 0.01553 0.71843 0.15216 0.0
H451 H 0.02187 0.77842 0.16075 0.0
H452 H 0.03133 0.67048 0.14808 0.0
H453 H 1.00612 0.67479 0.09465 0.0
H454 H 0.01861 0.70246 0.09272 0.0
H455 H 1.00792 0.71434 0.10675 0.0
C456 C 0.03281 0.78024 0.12444 0.0
C457 C 0.0305 0.79177 0.13948 0.0
C458 C 0.02941 0.74553 0.11965 0.0
C459 C 0.02344 0.72241 0.12974 0.0
C460 C 0.02012 0.73572 0.14418 0.0
H461 H 0.02893 0.4824 0.1236 0.0
H462 H 0.02034 0.54106 0.13068 0.0
C463 C 0.02372 0.76998 0.14907 0.0
C464 C 0.02291 0.68274 0.12664 0.0
H465 H 0.01792 0.62041 0.09835 0.0
C466 C 0.02807 0.65937 0.1374 0.0
C467 C 0.0187 0.66819 0.11271 0.0
C468 C 0.01242 0.6913 0.10115 0.0
C469 C 0.02991 0.62253 0.13412 0.0
C470 C 0.02641 0.60858 0.11975 0.0
C471 C 0.02061 0.63129 0.10936 0.0
C472 C 0.0303 0.57246 0.11446 0.0
C473 C 0.03637 0.59948 0.14557 0.0
C474 C 0.03851 0.57079 0.10281 0.0
C475 C 0.04344 0.53765 0.09882 0.0
C476 C 0.04022 0.50536 0.10637 0.0
C477 C 0.03167 0.50684 0.11768 0.0
C478 C 0.02674 0.54024 0.12171 0.0
H479 H 0.03967 0.61573 0.15538 0.0
H480 H 0.03064 0.5781 0.15021 0.0
H481 H 0.04366 0.58572 0.13988 0.0
H482 H 0.0414 0.5954 0.09714 0.0
H483 H 0.04991 0.53752 0.08993 0.0
H484 H 0.23027 0.78218 0.12982 0.0
H485 H 0.23819 0.72438 0.13927 0.0
H486 H 0.22944 0.67283 0.0963 0.0
H487 H 0.22172 0.7298 0.08681 0.0
H488 H 0.22496 0.66369 0.14262 0.0
H489 H 0.26082 0.63099 0.10398 0.0
H490 H 0.25508 0.67646 0.10571 0.0
H491 H 0.24837 0.64359 0.09328 0.0
C492 C 0.23025 0.75865 0.12232 0.0
C493 C 0.22526 0.76045 0.10765 0.0
C494 C 0.23481 0.72575 0.12769 0.0
C495 C 0.23459 0.6945 0.11837 0.0
C496 C 0.22999 0.69676 0.10354 0.0
H497 H 0.22652 0.46802 0.12225 0.0
H498 H 0.23169 0.53028 0.1146 0.0
C499 C 0.22541 0.72934 0.09823 0.0
C500 C 0.23747 0.65824 0.12468 0.0
H501 H 0.25127 0.5791 0.1158 0.0
C502 C 0.23094 0.64545 0.13705 0.0
C503 C 0.2452 0.63445 0.11727 0.0
C504 C 0.25284 0.64724 0.10442 0.0
C505 C 0.23133 0.60885 0.14152 0.0
C506 C 0.23867 0.5846 0.13363 0.0
C507 C 0.24564 0.59775 0.12177 0.0
C508 C 0.23843 0.54512 0.13692 0.0
C509 C 0.22332 0.59603 0.15402 0.0
C510 C 0.24115 0.53242 0.15165 0.0
C511 C 0.23805 0.49732 0.15606 0.0
C512 C 0.23244 0.47416 0.14568 0.0
C513 C 0.23088 0.48541 0.13041 0.0
C514 C 0.23382 0.52091 0.12606 0.0
H515 H 0.21665 0.61654 0.15669 0.0
H516 H 0.21906 0.57025 0.15064 0.0
H517 H 0.22824 0.59087 0.16469 0.0
H518 H 0.2449 0.55053 0.16009 0.0
H519 H 0.23942 0.48902 0.16788 0.0
H520 H 0.97687 0.22271 0.88231 0.0
H521 H 0.98223 0.28523 0.88933 0.0
H522 H 0.9887 0.30975 0.8416 0.0
H523 H 0.98294 0.24807 0.83452 0.0
H524 H 1.00081 0.3341 0.88458 0.0
H525 H 0.96195 0.3758 0.85238 0.0
H526 H 0.96502 0.32889 0.85682 0.0
H527 H 0.97229 0.35129 0.84126 0.0
C528 C 0.9797 0.24126 0.87341 0.0
C529 C 0.9793 0.23102 0.85788 0.0
C530 C 0.98277 0.27688 0.8774 0.0
C531 C 0.98558 0.30226 0.86591 0.0
C532 C 0.98629 0.2908 0.85058 0.0
H533 H 0.98037 0.53913 0.87576 0.0
H534 H 0.98702 0.48104 0.86498 0.0
C535 C 0.98303 0.25561 0.84657 0.0
C536 C 0.98634 0.34145 0.86967 0.0
H537 H 0.9724 0.42198 0.86433 0.0
C538 C 0.99468 0.35344 0.88005 0.0
C539 C 0.97834 0.36661 0.86369 0.0
C540 C 0.96883 0.35508 0.85303 0.0
C541 C 0.99506 0.3899 0.8849 0.0
C542 C 0.9868 0.41466 0.87932 0.0
C543 C 0.9788 0.40298 0.86844 0.0
C544 C 0.98509 0.451 0.88625 0.0
C545 C 1.00413 0.40144 0.89616 0.0
C546 C 0.98193 0.4533 0.90175 0.0
C547 C 0.97804 0.48606 0.90783 0.0
C548 C 0.9772 0.51726 0.89851 0.0
C549 C 0.98093 0.51552 0.88318 0.0
C550 C 0.98475 0.48245 0.87704 0.0
H551 H 0.01185 0.38406 0.89513 0.0
H552 H 1.00661 0.43032 0.89439 0.0
H553 H 1.0008 0.39844 0.90803 0.0
H554 H 0.98185 0.42924 0.90896 0.0
H555 H 0.97532 0.4866 0.91973 0.0
H556 H 0.77418 0.54664 0.8746 0.0
H557 H 0.76582 0.48864 0.88335 0.0
H558 H 0.79323 0.43014 0.86139 0.0
H559 H 0.80137 0.48685 0.85249 0.0
H560 H 0.77178 0.40021 0.85546 0.0
H561 H 0.77874 0.42501 0.91807 0.0
H562 H 0.77037 0.45676 0.90706 0.0
H563 H 0.78543 0.45354 0.9038 0.0
C564 C 0.7784 0.52131 0.87172 0.0
C565 C 0.78844 0.52134 0.86286 0.0
C566 C 0.77361 0.48828 0.87669 0.0
C567 C 0.7789 0.4551 0.87297 0.0
C568 C 0.78892 0.45536 0.86423 0.0
H569 H 0.8045 0.27255 0.90341 0.0
H570 H 0.7961 0.33096 0.89702 0.0
C571 C 0.79361 0.48795 0.85921 0.0
C572 C 0.77466 0.41945 0.8785 0.0
H573 H 0.77716 0.36467 0.90994 0.0
C574 C 0.77255 0.39238 0.86745 0.0
C575 C 0.77553 0.40958 0.89416 0.0
C576 C 0.77766 0.43756 0.90653 0.0
C577 C 0.7729 0.35531 0.87133 0.0
C578 C 0.7751 0.34536 0.88674 0.0
C579 C 0.7756 0.37253 0.8981 0.0
C580 C 0.77965 0.30892 0.89068 0.0
C581 C 0.77216 0.32727 0.85869 0.0
C582 C 0.77324 0.27686 0.889 0.0
C583 C 0.77814 0.24295 0.89245 0.0
C584 C 0.78943 0.24092 0.8978 0.0
C585 C 0.79576 0.27314 0.89939 0.0
C586 C 0.79094 0.30663 0.89582 0.0
H587 H 0.77127 0.33987 0.84713 0.0
H588 H 0.7799 0.30986 0.85871 0.0
H589 H 0.76468 0.30944 0.86069 0.0
H590 H 0.76447 0.27805 0.88517 0.0
H591 H 0.77303 0.21855 0.89127 0.0
H592 H 0.02966 0.96996 0.62782 0.0
H593 H 0.02185 0.02916 0.63569 0.0
H594 H 0.03629 0.07884 0.59517 0.0
H595 H 0.044 0.0204 0.58725 0.0
H596 H 0.03619 0.08691 0.64161 0.0
H597 H 1.0051 0.12714 0.59709 0.0
H598 H 0.0095 0.08044 0.59994 0.0
H599 H 0.01816 0.11113 0.58878 0.0
C600 C 0.03096 0.99341 0.62047 0.0
C601 C 0.03756 0.99066 0.60703 0.0
C602 C 0.02646 0.0271 0.62493 0.0
C603 C 0.02832 0.05821 0.61586 0.0
C604 C 0.03449 0.05505 0.60214 0.0
H605 H 0.041 0.28089 0.61925 0.0
H606 H 0.03447 0.22 0.61164 0.0
C607 C 0.03905 0.02166 0.59775 0.0
C608 C 0.02559 0.09495 0.62173 0.0
H609 H 0.01449 0.17679 0.61064 0.0
C610 C 0.03118 0.10639 0.63511 0.0
C611 C 0.01913 0.12025 0.61311 0.0
C612 C 0.01254 0.10899 0.59901 0.0
C613 C 0.03124 0.14306 0.63948 0.0
C614 C 0.02524 0.16881 0.63043 0.0
C615 C 0.01908 0.15701 0.61753 0.0
C616 C 0.02632 0.20828 0.63344 0.0
C617 C 0.03846 0.15416 0.6531 0.0
C618 C 0.02326 0.22257 0.6478 0.0
C619 C 0.02718 0.25681 0.65223 0.0
C620 C 0.03389 0.27765 0.64216 0.0
C621 C 0.03579 0.26526 0.62713 0.0
C622 C 0.03207 0.23054 0.62282 0.0
H623 H 0.04438 0.13219 0.65674 0.0
H624 H 0.04356 0.1788 0.65039 0.0
H625 H 0.03283 0.16056 0.66299 0.0
H626 H 0.0186 0.20612 0.65601 0.0
H627 H 0.02558 0.26608 0.66386 0.0
H628 H 0.21831 0.02584 0.6687 0.0
H629 H 0.2257 0.08454 0.66048 0.0
H630 H 0.24523 0.0321 0.62481 0.0
H631 H 0.23774 0.97264 0.6329 0.0
H632 H 0.2485 0.11299 0.65643 0.0
H633 H 0.22342 0.10299 0.60208 0.0
H634 H 0.22092 0.07287 0.61812 0.0
H635 H 0.23331 0.06692 0.60629 0.0
C636 C 0.22422 0.02657 0.65914 0.0
C637 C 0.22729 0.99458 0.65128 0.0
C638 C 0.22852 0.06019 0.65456 0.0
C639 C 0.23594 0.06262 0.642 0.0
C640 C 0.23943 0.0307 0.63447 0.0
H641 H 0.24046 0.26675 0.59296 0.0
H642 H 0.24712 0.2072 0.60163 0.0
C643 C 0.23514 0.99683 0.63909 0.0
C644 C 0.23897 0.09907 0.63609 0.0
H645 H 0.23169 0.15888 0.60785 0.0
C646 C 0.24505 0.12299 0.64565 0.0
C647 C 0.23444 0.11188 0.62205 0.0
C648 C 0.2276 0.08755 0.61152 0.0
C649 C 0.24633 0.1599 0.64179 0.0
C650 C 0.24119 0.17319 0.6282 0.0
C651 C 0.23567 0.14872 0.61826 0.0
C652 C 0.24026 0.21256 0.62462 0.0
C653 C 0.25299 0.18433 0.65243 0.0
C654 C 0.23473 0.23623 0.63493 0.0
C655 C 0.23113 0.27068 0.63006 0.0
C656 C 0.23278 0.28139 0.61475 0.0
C657 C 0.23907 0.25892 0.60483 0.0
C658 C 0.24288 0.22494 0.60977 0.0
H659 H 0.25971 0.1688 0.6586 0.0
H660 H 0.25704 0.20718 0.64611 0.0
H661 H 0.24714 0.1958 0.66121 0.0
H662 H 0.23237 0.22704 0.64632 0.0
H663 H 0.22617 0.28744 0.63782 0.0
H664 H 0.98873 0.01216 0.41896 0.0
H665 H 0.9954 0.95199 0.41117 0.0
H666 H 0.98437 0.97351 0.36469 0.0
H667 H 0.97811 0.03448 0.37239 0.0
H668 H 0.97995 0.90505 0.4024 0.0
H669 H 0.01239 0.91344 0.35656 0.0
H670 H 0.00902 0.95162 0.36885 0.0
H671 H 1.00035 0.9417 0.35228 0.0
C672 C 0.98814 0.0045 0.40695 0.0
C673 C 0.98286 0.02766 0.39626 0.0
C674 C 0.99196 0.97017 0.40251 0.0
C675 C 0.99041 0.95817 0.38735 0.0
C676 C 0.9859 0.98239 0.37638 0.0
H677 H 0.97137 0.77422 0.33936 0.0
H678 H 0.9788 0.8318 0.34876 0.0
C679 C 0.98226 0.01717 0.38078 0.0
C680 C 0.99135 0.91879 0.38384 0.0
H681 H 1.00086 0.85828 0.35699 0.0
C682 C 0.98479 0.89465 0.39272 0.0
C683 C 0.99762 0.90525 0.3712 0.0
C684 C 1.00533 0.92937 0.36179 0.0
C685 C 0.98368 0.85793 0.38869 0.0
C686 C 0.98942 0.84484 0.37552 0.0
C687 C 0.9965 0.86843 0.36712 0.0
C688 C 0.98668 0.80872 0.36902 0.0
C689 C 0.97571 0.8341 0.39791 0.0
C690 C 0.98891 0.7764 0.37713 0.0
C691 C 0.98456 0.74317 0.37183 0.0
C692 C 0.97793 0.74197 0.35837 0.0
C693 C 0.97629 0.7742 0.3499 0.0
C694 C 0.98062 0.80716 0.35517 0.0
H695 H 0.97073 0.84987 0.40648 0.0
H696 H 0.96967 0.81974 0.39019 0.0
H697 H 0.98073 0.81322 0.40417 0.0
H698 H 0.99368 0.77709 0.38779 0.0
H699 H 0.98606 0.71875 0.37851 0.0
H700 H 0.78574 0.72379 0.37029 0.0
H701 H 0.77987 0.78614 0.36389 0.0
H702 H 0.76838 0.80205 0.41052 0.0
H703 H 0.7746 0.74043 0.41706 0.0
H704 H 0.7604 0.8341 0.36692 0.0
H705 H 0.79609 0.86955 0.40644 0.0
H706 H 0.79361 0.82364 0.39997 0.0
H707 H 0.78478 0.8431 0.41471 0.0
C708 C 0.78157 0.74018 0.37898 0.0
C709 C 0.78074 0.7277 0.39418 0.0
C710 C 0.77824 0.77577 0.37535 0.0
C711 C 0.77395 0.79889 0.38686 0.0
C712 C 0.77187 0.78484 0.40158 0.0
H713 H 0.78265 0.03595 0.38157 0.0
H714 H 0.7744 0.97847 0.39089 0.0
C715 C 0.77538 0.74964 0.40527 0.0
C716 C 0.77348 0.83863 0.38416 0.0
H717 H 0.78741 0.9173 0.39323 0.0
C718 C 0.76618 0.85244 0.37281 0.0
C719 C 0.78101 0.86252 0.39194 0.0
C720 C 0.78939 0.84907 0.40386 0.0
C721 C 0.76649 0.88939 0.36864 0.0
C722 C 0.77444 0.91279 0.37586 0.0
C723 C 0.78127 0.89936 0.3878 0.0
C724 C 0.77726 0.94921 0.36963 0.0
C725 C 0.75851 0.90283 0.35629 0.0
C726 C 0.7815 0.9518 0.35461 0.0
C727 C 0.78627 0.98418 0.34937 0.0
C728 C 0.78697 0.01476 0.35906 0.0
C729 C 0.78223 0.01282 0.37387 0.0
C730 C 0.77749 0.9801 0.37918 0.0
H731 H 0.75048 0.88679 0.35619 0.0
H732 H 0.7564 0.93206 0.35788 0.0
H733 H 0.76264 0.89943 0.3449 0.0
H734 H 0.78169 0.92815 0.34717 0.0
H735 H 0.78975 0.98484 0.33783 0.0
H736 H 0.53138 0.78698 0.62891 0.0
H737 H 0.52391 0.72799 0.62017 0.0
H738 H 0.53584 0.67779 0.66204 0.0
H739 H 0.54319 0.73599 0.67081 0.0
H740 H 0.53843 0.66996 0.61571 0.0
H741 H 0.50478 0.63015 0.65679 0.0
H742 H 0.50945 0.67674 0.65451 0.0
H743 H 0.51737 0.64568 0.66645 0.0
C744 C 0.53218 0.76347 0.63635 0.0
C745 C 0.53799 0.76599 0.65045 0.0
C746 C 0.52788 0.7299 0.63139 0.0
C747 C 0.52915 0.69868 0.64059 0.0
C748 C 0.53449 0.70164 0.65493 0.0
H749 H 0.54063 0.47407 0.6369 0.0
H750 H 0.53448 0.53544 0.64445 0.0
C751 C 0.53885 0.73491 0.65982 0.0
C752 C 0.52669 0.66204 0.6344 0.0
H753 H 0.51467 0.58045 0.64401 0.0
C754 C 0.53299 0.65058 0.62161 0.0
C755 C 0.51968 0.63682 0.64226 0.0
C756 C 0.51235 0.6481 0.65568 0.0
C757 C 0.53315 0.614 0.61711 0.0
C758 C 0.52652 0.58836 0.6254 0.0
C759 C 0.51974 0.60015 0.63771 0.0
C760 C 0.52744 0.54896 0.62214 0.0
C761 C 0.54103 0.60281 0.6042 0.0
C762 C 0.52487 0.53565 0.60745 0.0
C763 C 0.52857 0.50113 0.60307 0.0
C764 C 0.53457 0.47905 0.61349 0.0
C765 C 0.53597 0.49066 0.62873 0.0
C766 C 0.53248 0.52564 0.63302 0.0
H767 H 0.54729 0.62446 0.60134 0.0
H768 H 0.54578 0.57769 0.60725 0.0
H769 H 0.53593 0.59719 0.59373 0.0
H770 H 0.52077 0.55296 0.59901 0.0
H771 H 0.52733 0.49248 0.59128 0.0
H772 H 0.73486 0.77589 0.62414 0.0
H773 H 0.74194 0.71553 0.63157 0.0
H774 H 0.72512 0.6682 0.59228 0.0
H775 H 0.71808 0.72795 0.58477 0.0
H776 H 0.72681 0.65897 0.63832 0.0
H777 H 0.75629 0.61742 0.59186 0.0
H778 H 0.75248 0.66439 0.59533 0.0
H779 H 0.74302 0.63502 0.58479 0.0
C780 C 0.73284 0.75269 0.61697 0.0
C781 C 0.72582 0.75662 0.60396 0.0
C782 C 0.73693 0.71832 0.62117 0.0
C783 C 0.73422 0.68758 0.61231 0.0
C784 C 0.72755 0.69169 0.59906 0.0
H785 H 0.72367 0.46175 0.61927 0.0
H786 H 0.72895 0.52268 0.61011 0.0
C787 C 0.7234 0.72584 0.59492 0.0
C788 C 0.73685 0.65057 0.61795 0.0
H789 H 0.74809 0.56886 0.60697 0.0
C790 C 0.73169 0.63943 0.63168 0.0
C791 C 0.7431 0.62519 0.60911 0.0
C792 C 0.74913 0.63617 0.59452 0.0
C793 C 0.73201 0.60301 0.6364 0.0
C794 C 0.73799 0.57725 0.62734 0.0
C795 C 0.74356 0.58868 0.6139 0.0
C796 C 0.73762 0.538 0.63112 0.0
C797 C 0.72531 0.59216 0.65052 0.0
C798 C 0.74141 0.52577 0.64551 0.0
C799 C 0.7382 0.49147 0.65083 0.0
C800 C 0.7315 0.46855 0.64162 0.0
C801 C 0.7289 0.47899 0.62651 0.0
C802 C 0.73189 0.51375 0.62131 0.0
H803 H 0.71916 0.61358 0.65405 0.0
H804 H 0.72051 0.56655 0.64849 0.0
H805 H 0.73126 0.58761 0.66024 0.0
H806 H 0.74607 0.5438 0.6531 0.0
H807 H 0.74035 0.48374 0.66251 0.0
H808 H 0.48388 0.50107 0.42246 0.0
H809 H 0.49069 0.44027 0.41588 0.0
H810 H 0.4864 0.46478 0.36767 0.0
H811 H 0.48006 0.52642 0.37426 0.0
H812 H 0.47677 0.39448 0.40321 0.0
H813 H 0.51465 0.40376 0.36583 0.0
H814 H 0.50977 0.44167 0.37729 0.0
H815 H 0.50342 0.43237 0.35884 0.0
C816 C 0.48473 0.49379 0.41044 0.0
C817 C 0.48137 0.51813 0.39884 0.0
C818 C 0.48865 0.45912 0.4067 0.0
C819 C 0.48911 0.44791 0.39129 0.0
C820 C 0.4864 0.47302 0.37962 0.0
H821 H 0.47499 0.26599 0.33919 0.0
H822 H 0.48173 0.32312 0.35 0.0
C823 C 0.48269 0.50814 0.38337 0.0
C824 C 0.49038 0.40868 0.38768 0.0
H825 H 0.50311 0.34895 0.36303 0.0
C826 C 0.48276 0.38436 0.39474 0.0
C827 C 0.49817 0.39547 0.37661 0.0
C828 C 0.50704 0.41969 0.36934 0.0
C829 C 0.48217 0.3478 0.39029 0.0
C830 C 0.4895 0.3351 0.37857 0.0
C831 C 0.49754 0.35883 0.37206 0.0
C832 C 0.48756 0.29927 0.37134 0.0
C833 C 0.47317 0.3237 0.3974 0.0
C834 C 0.48895 0.2667 0.3796 0.0
C835 C 0.48503 0.23377 0.37346 0.0
C836 C 0.47963 0.2332 0.35903 0.0
C837 C 0.47893 0.26559 0.35045 0.0
C838 C 0.48288 0.29826 0.35654 0.0
H839 H 0.46727 0.3391 0.40498 0.0
H840 H 0.46808 0.31007 0.3883 0.0
H841 H 0.47733 0.30222 0.4044 0.0
H842 H 0.49263 0.26703 0.39102 0.0
H843 H 0.48575 0.20918 0.38027 0.0
H844 H 0.27788 0.5173 0.34079 0.0
H845 H 0.27067 0.45713 0.34773 0.0
H846 H 0.28087 0.47539 0.39481 0.0
H847 H 0.28752 0.53645 0.38797 0.0
H848 H 0.28518 0.40876 0.35601 0.0
H849 H 0.25299 0.41594 0.40203 0.0
H850 H 0.25671 0.45509 0.39048 0.0
H851 H 0.26514 0.44296 0.40706 0.0
C852 C 0.27816 0.5089 0.35273 0.0
C853 C 0.28328 0.53116 0.36387 0.0
C854 C 0.27403 0.47459 0.35669 0.0
C855 C 0.27519 0.46164 0.3718 0.0
C856 C 0.2796 0.48499 0.38317 0.0
H857 H 0.29587 0.27779 0.41746 0.0
H858 H 0.28804 0.33539 0.40859 0.0
C859 C 0.28349 0.51979 0.37926 0.0
C860 C 0.27403 0.42211 0.37491 0.0
H861 H 0.26486 0.36093 0.40173 0.0
C862 C 0.28043 0.39816 0.36573 0.0
C863 C 0.26786 0.40821 0.38758 0.0
C864 C 0.2602 0.43195 0.39723 0.0
C865 C 0.28155 0.36133 0.36956 0.0
C866 C 0.27606 0.34803 0.38288 0.0
C867 C 0.26907 0.37133 0.39153 0.0
C868 C 0.27906 0.31205 0.38925 0.0
C869 C 0.28932 0.33757 0.36002 0.0
C870 C 0.27637 0.2797 0.38146 0.0
C871 C 0.28091 0.24649 0.38646 0.0
C872 C 0.28823 0.2454 0.39927 0.0
C873 C 0.29041 0.27772 0.40742 0.0
C874 C 0.28585 0.31066 0.40247 0.0
H875 H 0.29389 0.35324 0.351 0.0
H876 H 0.29571 0.32395 0.36747 0.0
H877 H 0.28422 0.31607 0.35429 0.0
H878 H 0.27108 0.28033 0.37126 0.0
H879 H 0.27901 0.22199 0.38003 0.0
H880 H 0.53639 0.28338 0.12128 0.0
H881 H 0.53044 0.22145 0.11456 0.0
H882 H 0.5226 0.19999 0.16221 0.0
H883 H 0.52901 0.26115 0.16898 0.0
H884 H 0.53772 0.15428 0.15207 0.0
H885 H 0.50282 0.15834 0.10963 0.0
H886 H 0.51429 0.18751 0.10386 0.0
H887 H 0.50654 0.1973 0.12127 0.0
C888 C 0.53301 0.26579 0.13018 0.0
C889 C 0.53324 0.27668 0.14563 0.0
C890 C 0.52954 0.23047 0.12635 0.0
C891 C 0.52601 0.20605 0.13788 0.0
C892 C 0.52528 0.21829 0.15313 0.0
H893 H 0.53269 0.96708 0.12843 0.0
H894 H 0.52477 0.02422 0.13858 0.0
C895 C 0.52896 0.25318 0.15698 0.0
C896 C 0.52526 0.1665 0.13461 0.0
H897 H 0.51504 0.1046 0.10882 0.0
C898 C 0.53251 0.14322 0.1429 0.0
C899 C 0.51847 0.15207 0.12265 0.0
C900 C 0.51001 0.17513 0.11397 0.0
C901 C 0.5338 0.10658 0.13883 0.0
C902 C 0.52756 0.09272 0.12623 0.0
C903 C 0.51979 0.11535 0.11851 0.0
C904 C 0.53048 0.05709 0.1194 0.0
C905 C 0.54247 0.08374 0.14731 0.0
C906 C 0.53593 0.05661 0.10509 0.0
C907 C 0.54044 0.02437 0.09933 0.0
C908 C 0.53959 0.99178 0.10776 0.0
C909 C 0.53357 0.99182 0.12175 0.0
C910 C 0.52905 0.02436 0.12755 0.0
H911 H 0.5476 0.10006 0.15554 0.0
H912 H 0.53803 0.06206 0.15387 0.0
H913 H 0.54836 0.07039 0.13906 0.0
H914 H 0.53714 0.08158 0.09864 0.0
H915 H 0.54487 0.02526 0.0884 0.0
H916 H 0.7429 0.9779 0.1609 0.0
H917 H 0.74899 0.03829 0.15232 0.0
H918 H 0.73232 0.02071 0.10874 0.0
H919 H 0.72665 0.95947 0.11707 0.0
H920 H 0.75177 0.06643 0.10666 0.0
H921 H 0.72225 0.10889 0.15351 0.0
H922 H 0.73424 0.08213 0.15956 0.0
H923 H 0.72352 0.06221 0.14741 0.0
C924 C 0.74094 0.98646 0.14927 0.0
C925 C 0.73424 0.96445 0.13965 0.0
C926 C 0.74436 0.02095 0.14442 0.0
C927 C 0.7408 0.03429 0.1301 0.0
C928 C 0.73509 0.01092 0.11989 0.0
H929 H 0.72088 0.22139 0.08384 0.0
H930 H 0.72882 0.16311 0.09162 0.0
C931 C 0.73188 0.97598 0.12462 0.0
C932 C 0.74133 0.07376 0.12679 0.0
H933 H 0.72977 0.15476 0.13801 0.0
C934 C 0.7471 0.08588 0.11362 0.0
C935 C 0.73521 0.09907 0.13591 0.0
C936 C 0.72837 0.08753 0.14981 0.0
C937 C 0.74661 0.12253 0.10906 0.0
C938 C 0.74009 0.14739 0.11782 0.0
C939 C 0.73484 0.13564 0.1314 0.0
C940 C 0.73707 0.184 0.11204 0.0
C941 C 0.75284 0.13416 0.0947 0.0
C942 C 0.73901 0.21518 0.12102 0.0
C943 C 0.73438 0.24877 0.11665 0.0
C944 C 0.72759 0.25138 0.10338 0.0
C945 C 0.72599 0.22027 0.09421 0.0
C946 C 0.73067 0.18696 0.09851 0.0
H947 H 0.76033 0.11645 0.09249 0.0
H948 H 0.74702 0.13177 0.0847 0.0
H949 H 0.75574 0.16287 0.09553 0.0
H950 H 0.74381 0.21327 0.13164 0.0
H951 H 0.73577 0.27228 0.12392 0.0
H952 H 0.48881 0.74371 0.83943 0.0
H953 H 0.49603 0.80338 0.84704 0.0
H954 H 0.48489 0.78357 0.89361 0.0
H955 H 0.47816 0.72299 0.88611 0.0
H956 H 0.48127 0.85182 0.85542 0.0
H957 H 0.51313 0.8415 0.90184 0.0
H958 H 0.50944 0.80317 0.88981 0.0
H959 H 0.50081 0.81461 0.90626 0.0
C960 C 0.48832 0.75163 0.85142 0.0
C961 C 0.4829 0.72908 0.86222 0.0
C962 C 0.49245 0.78566 0.85575 0.0
C963 C 0.49104 0.79803 0.87089 0.0
C964 C 0.48634 0.77438 0.88195 0.0
H965 H 0.47193 0.98318 0.91749 0.0
H966 H 0.47927 0.92505 0.90852 0.0
C967 C 0.48242 0.73985 0.87766 0.0
C968 C 0.49229 0.83737 0.8743 0.0
H969 H 0.50182 0.89738 0.90134 0.0
C970 C 0.48605 0.86192 0.8652 0.0
C971 C 0.4985 0.85057 0.88707 0.0
C972 C 0.50594 0.82604 0.89669 0.0
C973 C 0.48516 0.89874 0.86915 0.0
C974 C 0.49076 0.91145 0.88248 0.0
C975 C 0.49755 0.88747 0.8911 0.0
C976 C 0.4881 0.94768 0.88889 0.0
C977 C 0.47754 0.92314 0.85967 0.0
C978 C 0.49089 0.97983 0.881 0.0
C979 C 0.48662 0.01336 0.88606 0.0
C980 C 0.47949 0.01498 0.89904 0.0
C981 C 0.47725 0.98286 0.90731 0.0
C982 C 0.48153 0.94959 0.9023 0.0
H983 H 0.47272 0.90782 0.85078 0.0
H984 H 0.47135 0.93753 0.86718 0.0
H985 H 0.4828 0.94401 0.85377 0.0
H986 H 0.49603 0.97881 0.87066 0.0
H987 H 0.48857 0.0377 0.87953 0.0
H988 H 0.2936 0.71294 0.86839 0.0
H989 H 0.28786 0.77415 0.86004 0.0
H990 H 0.27088 0.79119 0.90344 0.0
H991 H 0.27695 0.73082 0.912 0.0
H992 H 0.26772 0.81909 0.8582 0.0
H993 H 0.29772 0.86263 0.90431 0.0
H994 H 0.29666 0.81598 0.89806 0.0
H995 H 0.28599 0.83494 0.91054 0.0
C996 C 0.28831 0.72934 0.87589 0.0
C997 C 0.28584 0.71764 0.89087 0.0
C998 C 0.28505 0.76424 0.87115 0.0
C999 C 0.27919 0.78739 0.8813 0.0
C1000 C 0.27559 0.77396 0.89558 0.0
H1001 H 0.28246 0.02579 0.87579 0.0
H1002 H 0.27519 0.96585 0.88365 0.0
C1003 C 0.27903 0.73951 0.90042 0.0
C1004 C 0.27848 0.8268 0.87799 0.0
H1005 H 0.28969 0.90834 0.88913 0.0
C1006 C 0.2724 0.83873 0.86506 0.0
C1007 C 0.28459 0.85233 0.887 0.0
C1008 C 0.29169 0.84095 0.90068 0.0
C1009 C 0.27252 0.87552 0.86064 0.0
C1010 C 0.27903 0.90067 0.86928 0.0
C1011 C 0.28464 0.88901 0.88262 0.0
C1012 C 0.28162 0.93768 0.86359 0.0
C1013 C 0.2659 0.887 0.8466 0.0
C1014 C 0.28761 0.94156 0.84975 0.0
C1015 C 0.29185 0.97539 0.84536 0.0
C1016 C 0.29022 0.00614 0.85474 0.0
C1017 C 0.28386 0.00257 0.86835 0.0
C1018 C 0.27967 0.96846 0.87281 0.0
H1019 H 0.25847 0.86883 0.84464 0.0
H1020 H 0.26283 0.91549 0.84764 0.0
H1021 H 0.2715 0.88514 0.83634 0.0
H1022 H 0.28948 0.91806 0.84266 0.0
H1023 H 0.29663 0.9772 0.83474 0.0
H1024 H 0.96387 0.52779 0.97597 0.0
H1025 H 0.97785 0.50225 0.99379 0.0
H1026 H 1.00248 0.58216 0.97911 0.0
H1027 H 0.98847 0.60829 0.96145 0.0
H1028 H 0.99789 0.47086 0.98545 0.0
H1029 H 1.00659 0.58537 0.02522 0.0
H1030 H 0.99443 0.58488 0.01251 0.0
H1031 H 0.00827 0.59743 0.00535 0.0
C1032 C 0.97216 0.5406 0.97681 0.0
C1033 C 0.97501 0.57025 0.96729 0.0
C1034 C 0.98018 0.52577 0.98696 0.0
C1035 C 0.99123 0.54028 0.98789 0.0
C1036 C 0.99396 0.57083 0.97886 0.0
H1037 H 0.05395 0.4776 0.03392 0.0
H1038 H 0.03971 0.50226 0.01626 0.0
C1039 C 0.98592 0.58579 0.96874 0.0
C1040 C 1.0001 0.52176 0.99739 0.0
H1041 H 0.01948 0.53533 0.02618 0.0
C1042 C 1.00255 0.48492 0.99444 0.0
C1043 C 1.00624 0.54003 0.00908 0.0
C1044 C 1.00369 0.579 0.01336 0.0
C1045 C 0.01106 0.46613 1.00263 0.0
C1046 C 0.01724 0.48449 0.01424 0.0
C1047 C 0.01479 0.52128 0.01722 0.0
C1048 C 0.02621 0.46614 0.02359 0.0
C1049 C 0.01355 0.42702 0.99855 0.0
C1050 C 0.02347 0.43688 0.03334 0.0
C1051 C 0.03164 0.42253 0.04344 0.0
C1052 C 0.0427 0.43731 0.04407 0.0
C1053 C 0.04555 0.4654 0.03373 0.0
C1054 C 0.03738 0.47973 0.02367 0.0
H1055 H 0.01021 0.41983 0.98699 0.0
H1056 H 0.02286 0.42157 0.9988 0.0
H1057 H 0.00941 0.40891 0.0071 0.0
H1058 H 0.01487 0.42623 0.03366 0.0
H1059 H 0.0291 0.4012 0.05133 0.0
H1060 H 0.3008 0.73102 0.96857 0.0
H1061 H 0.28716 0.75741 0.98664 0.0
H1062 H 0.26457 0.66644 0.97937 0.0
H1063 H 0.27829 0.63948 0.96153 0.0
H1064 H 0.26597 0.77995 0.97939 0.0
H1065 H 0.26307 0.67617 0.02545 0.0
H1066 H 0.27436 0.67614 0.01137 0.0
H1067 H 0.2606 0.65763 0.00667 0.0
C1068 C 0.29306 0.71609 0.97112 0.0
C1069 C 0.29067 0.68301 0.96362 0.0
C1070 C 0.28523 0.73137 0.9814 0.0
C1071 C 0.27483 0.71393 0.98447 0.0
C1072 C 0.27261 0.68015 0.97747 0.0
H1073 H 0.2125 0.77036 0.03229 0.0
H1074 H 0.22687 0.74556 0.01488 0.0
C1075 C 0.28048 0.66472 0.96724 0.0
C1076 C 0.26597 0.73247 0.99396 0.0
H1077 H 0.24857 0.72168 0.02516 0.0
C1078 C 0.26223 0.7673 0.98948 0.0
C1079 C 0.26105 0.71603 0.00711 0.0
C1080 C 0.26505 0.6796 0.01304 0.0
C1081 C 0.25359 0.78572 0.99756 0.0
C1082 C 0.24859 0.76906 0.01057 0.0
C1083 C 0.25236 0.73436 0.01512 0.0
C1084 C 0.23945 0.78701 0.01971 0.0
C1085 C 0.24969 0.82249 0.9919 0.0
C1086 C 0.24161 0.8192 0.02794 0.0
C1087 C 0.23337 0.83361 0.03791 0.0
C1088 C 0.22282 0.81599 0.03989 0.0
C1089 C 0.2205 0.78477 0.03103 0.0
C1090 C 0.22874 0.77038 0.02112 0.0
H1091 H 0.25245 0.82773 0.97988 0.0
H1092 H 0.24026 0.82479 0.9925 0.0
H1093 H 0.25339 0.844 0.99933 0.0
H1094 H 0.24986 0.83229 0.02719 0.0
H1095 H 0.2355 0.85745 0.04465 0.0
H1096 H 0.02609 0.86342 0.21115 0.0
H1097 H 0.0131 0.83525 0.22973 0.0
H1098 H 0.03597 0.74413 0.23441 0.0
H1099 H 0.04899 0.77201 0.21589 0.0
H1100 H 1.003 0.76473 0.22463 0.0
H1101 H 0.02736 0.76921 0.27937 0.0
H1102 H 0.03061 0.79853 0.26326 0.0
H1103 H 0.03502 0.75171 0.26306 0.0
C1104 C 0.02852 0.83788 0.21645 0.0
C1105 C 0.03862 0.82005 0.21203 0.0
C1106 C 0.02103 0.82168 0.22699 0.0
C1107 C 0.02356 0.78761 0.23351 0.0
C1108 C 0.03389 0.77061 0.2297 0.0
H1109 H 0.98696 0.64279 0.29628 0.0
H1110 H 1.00051 0.66789 0.27764 0.0
C1111 C 0.04134 0.78664 0.21908 0.0
C1112 C 0.01502 0.76847 0.24326 0.0
H1113 H 0.01045 0.73408 0.27926 0.0
C1114 C 1.0046 0.75817 0.2366 0.0
C1115 C 0.01717 0.75946 0.2588 0.0
C1116 C 0.0281 0.77049 0.26664 0.0
C1117 C 0.99633 0.73885 0.245 0.0
C1118 C 0.99838 0.73033 0.26065 0.0
C1119 C 0.00885 0.74043 0.26727 0.0
C1120 C 0.98964 0.71245 0.27057 0.0
C1121 C 0.98557 0.7271 0.2369 0.0
C1122 C 0.97889 0.72856 0.27262 0.0
C1123 C 0.97108 0.71402 0.28312 0.0
C1124 C 0.97387 0.68325 0.29201 0.0
C1125 C 0.98447 0.66629 0.28954 0.0
C1126 C 0.99228 0.68081 0.27896 0.0
H1127 H 0.98691 0.72477 0.22428 0.0
H1128 H 0.98246 0.70053 0.24131 0.0
H1129 H 0.97884 0.74782 0.23883 0.0
H1130 H 0.9767 0.75339 0.26658 0.0
H1131 H 0.96306 0.72807 0.2848 0.0
H1132 H 0.21629 0.48337 0.22124 0.0
H1133 H 0.22976 0.51164 0.23904 0.0
H1134 H 0.25267 0.42092 0.23336 0.0
H1135 H 0.23927 0.39252 0.21538 0.0
H1136 H 0.2402 0.48923 0.26666 0.0
H1137 H 0.27201 0.50908 0.22011 0.0
H1138 H 0.2574 0.49667 0.21629 0.0
H1139 H 0.26738 0.46289 0.22278 0.0
C1140 C 0.22409 0.46901 0.22398 0.0
C1141 C 0.22671 0.43572 0.21678 0.0
C1142 C 0.23181 0.48533 0.23413 0.0
C1143 C 0.24235 0.46887 0.23725 0.0
C1144 C 0.2447 0.43454 0.23086 0.0
H1145 H 0.30179 0.53052 0.29019 0.0
H1146 H 0.28826 0.50351 0.27216 0.0
C1147 C 0.23696 0.41811 0.22071 0.0
C1148 C 0.25101 0.48838 0.24669 0.0
H1149 H 0.27767 0.52592 0.24524 0.0
C1150 C 0.24838 0.49734 0.26198 0.0
C1151 C 0.26167 0.49915 0.24054 0.0
C1152 C 0.26479 0.4918 0.224 0.0
C1153 C 0.25621 0.51598 0.27138 0.0
C1154 C 0.26687 0.52675 0.26523 0.0
C1155 C 0.26949 0.51785 0.24993 0.0
C1156 C 0.2756 0.54586 0.27473 0.0
C1157 C 0.2531 0.52306 0.28795 0.0
C1158 C 0.27326 0.57966 0.28161 0.0
C1159 C 0.28103 0.59534 0.29193 0.0
C1160 C 0.29131 0.57754 0.29552 0.0
C1161 C 0.29396 0.545 0.28774 0.0
C1162 C 0.2862 0.52939 0.27745 0.0
H1163 H 0.24594 0.50551 0.29182 0.0
H1164 H 0.26051 0.51832 0.29563 0.0
H1165 H 0.25041 0.55187 0.28923 0.0
H1166 H 0.26526 0.59338 0.27939 0.0
H1167 H 0.2787 0.62039 0.29769 0.0
H1168 H 0.77649 0.14615 0.95499 0.0
H1169 H 0.76263 0.17364 0.97258 0.0
H1170 H 0.78841 0.24747 0.98912 0.0
H1171 H 0.80227 0.22048 0.97151 0.0
H1172 H 0.76198 0.18441 0.00468 0.0
H1173 H 0.76342 0.31639 0.9736 0.0
H1174 H 0.76945 0.27515 0.96578 0.0
H1175 H 0.77703 0.30044 0.98022 0.0
C1176 C 0.77928 0.16776 0.96257 0.0
C1177 C 0.7905 0.18122 0.96174 0.0
C1178 C 0.77132 0.1836 0.97258 0.0
C1179 C 0.77439 0.21327 0.98189 0.0
C1180 C 0.78576 0.22523 0.98177 0.0
H1181 H 0.73808 0.35171 0.04681 0.0
H1182 H 0.75191 0.32526 0.0289 0.0
C1183 C 0.79371 0.20947 0.97178 0.0
C1184 C 0.76566 0.23237 0.99137 0.0
H1185 H 0.75262 0.31481 0.99663 0.0
C1186 C 0.7599 0.21286 0.00287 0.0
C1187 C 0.76293 0.26957 0.98903 0.0
C1188 C 0.76844 0.29162 0.97641 0.0
C1189 C 0.75167 0.22965 0.01227 0.0
C1190 C 0.74893 0.26682 0.00991 0.0
C1191 C 0.7547 0.28635 0.99842 0.0
C1192 C 0.74018 0.28582 0.01939 0.0
C1193 C 0.74618 0.2076 0.02491 0.0
C1194 C 0.72883 0.27374 0.01946 0.0
C1195 C 0.72089 0.28891 0.02963 0.0
C1196 C 0.72411 0.31668 0.03991 0.0
C1197 C 0.73528 0.33047 0.03905 0.0
C1198 C 0.74323 0.31522 0.02886 0.0
H1199 H 0.7512 0.18282 0.0277 0.0
H1200 H 0.74519 0.22407 0.03553 0.0
H1201 H 0.73758 0.19879 0.02112 0.0
H1202 H 0.72619 0.25172 0.01199 0.0
H1203 H 0.71236 0.27767 0.02991 0.0
H1204 H 0.98859 0.13238 0.79516 0.0
H1205 H 1.00251 0.15921 0.77743 0.0
H1206 H 0.97862 0.24407 0.76598 0.0
H1207 H 0.96468 0.21761 0.78362 0.0
H1208 H 1.00156 0.17953 0.74491 0.0
H1209 H 1.00687 0.29865 0.78361 0.0
H1210 H 1.00017 0.25688 0.78978 0.0
H1211 H 0.99245 0.28874 0.77807 0.0
C1212 C 0.98618 0.15625 0.7886 0.0
C1213 C 0.97552 0.17292 0.79091 0.0
C1214 C 0.99419 0.17168 0.77853 0.0
C1215 C 0.9917 0.20414 0.77066 0.0
C1216 C 0.98081 0.21945 0.77217 0.0
H1217 H 0.02908 0.35336 0.71167 0.0
H1218 H 0.01566 0.32461 0.72951 0.0
C1219 C 0.9728 0.20403 0.78218 0.0
C1220 C 1.00062 0.22294 0.76143 0.0
H1221 H 0.01643 0.30111 0.75966 0.0
C1222 C 1.00486 0.20601 0.74816 0.0
C1223 C 1.00491 0.25757 0.76568 0.0
C1224 C 1.00096 0.27651 0.78013 0.0
C1225 C 0.01306 0.22312 0.73882 0.0
C1226 C 0.01739 0.25776 0.74308 0.0
C1227 C 0.01316 0.2746 0.7564 0.0
C1228 C 0.02613 0.27712 0.73368 0.0
C1229 C 0.01677 0.20438 0.7242 0.0
C1230 C 0.03674 0.26098 0.73068 0.0
C1231 C 0.04443 0.27737 0.7205 0.0
C1232 C 0.04174 0.3105 0.71321 0.0
C1233 C 0.03146 0.32793 0.7171 0.0
C1234 C 0.02373 0.31139 0.72724 0.0
H1235 H 0.01053 0.18335 0.72052 0.0
H1236 H 0.01787 0.22426 0.7147 0.0
H1237 H 0.02506 0.19063 0.72619 0.0
H1238 H 0.03894 0.2351 0.73585 0.0
H1239 H 0.05229 0.26325 0.71784 0.0
H1240 H 0.73787 0.39381 0.71334 0.0
H1241 H 0.751 0.42129 0.73194 0.0
H1242 H 0.72809 0.51201 0.73759 0.0
H1243 H 0.71493 0.48478 0.7191 0.0
H1244 H 0.76119 0.49101 0.7275 0.0
H1245 H 0.7368 0.48597 0.78216 0.0
H1246 H 0.73334 0.45766 0.76583 0.0
H1247 H 0.72916 0.50471 0.76609 0.0
C1248 C 0.73547 0.41911 0.71885 0.0
C1249 C 0.72531 0.437 0.71474 0.0
C1250 C 0.74303 0.43493 0.7294 0.0
C1251 C 0.74052 0.46868 0.73622 0.0
C1252 C 0.73015 0.48575 0.73267 0.0
H1253 H 0.77716 0.61415 0.79857 0.0
H1254 H 0.76359 0.58816 0.78016 0.0
C1255 C 0.72263 0.4701 0.72206 0.0
C1256 C 0.74911 0.48742 0.74606 0.0
H1257 H 0.75364 0.52163 0.78209 0.0
C1258 C 0.75957 0.49753 0.73947 0.0
C1259 C 0.74695 0.49635 0.76161 0.0
C1260 C 0.736 0.4854 0.76943 0.0
C1261 C 0.76786 0.51665 0.74792 0.0
C1262 C 0.76576 0.52524 0.76355 0.0
C1263 C 0.75527 0.51524 0.77012 0.0
C1264 C 0.77447 0.5433 0.77348 0.0
C1265 C 0.77867 0.5282 0.73989 0.0
C1266 C 0.78521 0.52723 0.7757 0.0
C1267 C 0.79301 0.54224 0.78609 0.0
C1268 C 0.79024 0.57349 0.79468 0.0
C1269 C 0.77963 0.59028 0.79208 0.0
C1270 C 0.77182 0.57527 0.78163 0.0
H1271 H 0.77743 0.53019 0.72725 0.0
H1272 H 0.78174 0.5549 0.74421 0.0
H1273 H 0.78539 0.50757 0.74203 0.0
H1274 H 0.7874 0.50216 0.76986 0.0
H1275 H 0.80104 0.52831 0.78788 0.0
H1276 H 0.98851 0.11009 0.46349 0.0
H1277 H 1.00192 0.08188 0.48151 0.0
H1278 H 0.97793 0.9954 0.49011 0.0
H1279 H 0.96447 0.02335 0.47215 0.0
H1280 H 0.99015 0.02223 0.5171 0.0
H1281 H 0.01869 0.98628 0.46839 0.0
H1282 H 0.01473 0.03346 0.46978 0.0
H1283 H 1.00405 0.9999 0.46562 0.0
C1284 C 0.98595 0.08558 0.4695 0.0
C1285 C 0.97542 0.0689 0.46629 0.0
C1286 C 0.99368 0.06928 0.47968 0.0
C1287 C 0.99102 0.03611 0.48689 0.0
C1288 C 0.9802 0.02081 0.48457 0.0
H1289 H 0.02739 0.88916 0.54941 0.0
H1290 H 0.01339 0.91573 0.53177 0.0
C1291 C 0.9725 0.03694 0.47433 0.0
C1292 C 0.99969 0.01628 0.49615 0.0
H1293 H 0.0252 0.97178 0.49335 0.0
C1294 C 0.99781 0.01112 0.51193 0.0
C1295 C 0.00965 1.00169 0.48935 0.0
C1296 C 0.01192 0.00526 0.47233 0.0
C1297 C 1.00575 0.99252 0.52118 0.0
C1298 C 0.01572 0.97778 0.51437 0.0
C1299 C 0.01756 0.98286 0.49856 0.0
C1300 C 0.02456 0.95846 0.5236 0.0
C1301 C 1.00355 0.98985 0.53824 0.0
C1302 C 0.03574 0.97201 0.52412 0.0
C1303 C 0.04381 0.9565 0.53399 0.0
C1304 C 0.0409 0.92701 0.54357 0.0
C1305 C 0.02993 0.91187 0.54224 0.0
C1306 C 0.02186 0.92736 0.5323 0.0
H1307 H 0.9972 0.01029 0.54214 0.0
H1308 H 1.00014 0.96242 0.54095 0.0
H1309 H 0.01153 0.9938 0.54489 0.0
H1310 H 0.03808 0.99571 0.5174 0.0
H1311 H 0.05217 0.96891 0.53468 0.0
H1312 H 0.30252 0.22586 0.47209 0.0
H1313 H 0.28849 0.25076 0.48998 0.0
H1314 H 0.26438 0.16852 0.47618 0.0
H1315 H 0.27838 0.14333 0.4582 0.0
H1316 H 0.26682 0.2781 0.47999 0.0
H1317 H 0.26221 0.16889 0.52382 0.0
H1318 H 0.27445 0.17205 0.51128 0.0
H1319 H 0.2612 0.1545 0.5041 0.0
C1320 C 0.29434 0.21241 0.4731 0.0
C1321 C 0.29161 0.18249 0.46368 0.0
C1322 C 0.28629 0.22688 0.48329 0.0
C1323 C 0.27538 0.21156 0.48444 0.0
C1324 C 0.27279 0.18058 0.47563 0.0
H1325 H 0.21516 0.26936 0.53772 0.0
H1326 H 0.22834 0.24292 0.51905 0.0
C1327 C 0.28083 0.16615 0.46536 0.0
C1328 C 0.26648 0.2297 0.49396 0.0
H1329 H 0.24931 0.21818 0.5253 0.0
C1330 C 0.263 0.26505 0.48993 0.0
C1331 C 0.26144 0.21257 0.50683 0.0
C1332 C 0.26504 0.17501 0.5119 0.0
C1333 C 0.25455 0.28359 0.49832 0.0
C1334 C 0.24961 0.26669 0.51136 0.0
C1335 C 0.25306 0.2312 0.51531 0.0
C1336 C 0.24101 0.28537 0.52127 0.0
C1337 C 0.25082 0.32076 0.4929 0.0
C1338 C 0.24356 0.31863 0.5285 0.0
C1339 C 0.23594 0.33412 0.53907 0.0
C1340 C 0.22568 0.3164 0.5428 0.0
C1341 C 0.22295 0.28386 0.53508 0.0
C1342 C 0.23053 0.26854 0.52446 0.0
H1343 H 0.25265 0.32473 0.48047 0.0
H1344 H 0.24157 0.32505 0.49486 0.0
H1345 H 0.25559 0.34187 0.49937 0.0
H1346 H 0.25168 0.33185 0.52653 0.0
H1347 H 0.2384 0.3589 0.54494 0.0
H1348 H 0.24001 0.89483 0.70727 0.0
H1349 H 0.25387 0.92185 0.72497 0.0
H1350 H 0.22792 0.99382 0.74246 0.0
H1351 H 0.21402 0.96671 0.72503 0.0
H1352 H 0.26035 0.99412 0.72424 0.0
H1353 H 0.24316 0.96008 0.78184 0.0
H1354 H 0.23854 0.93709 0.76458 0.0
H1355 H 0.23288 0.98115 0.76941 0.0
C1356 C 0.23716 0.91564 0.71521 0.0
C1357 C 0.22587 0.92848 0.71473 0.0
C1358 C 0.24513 0.93128 0.72524 0.0
C1359 C 0.24196 0.95981 0.73512 0.0
C1360 C 0.23056 0.97146 0.73518 0.0
H1361 H 0.27788 0.10545 0.79768 0.0
H1362 H 0.26407 0.07829 0.77995 0.0
C1363 C 0.2226 0.95589 0.72515 0.0
C1364 C 0.2507 0.97945 0.74438 0.0
H1365 H 0.25761 0.00555 0.78094 0.0
C1366 C 0.2598 0.99638 0.73666 0.0
C1367 C 0.24995 0.98272 0.76057 0.0
C1368 C 0.24067 0.96402 0.76962 0.0
C1369 C 0.26802 0.01692 0.74462 0.0
C1370 C 0.26725 0.02023 0.7608 0.0
C1371 C 0.25816 0.00328 0.76852 0.0
C1372 C 0.27598 0.03994 0.77005 0.0
C1373 C 0.27732 0.03554 0.73558 0.0
C1374 C 0.28736 0.02811 0.77014 0.0
C1375 C 0.29529 0.04374 0.78019 0.0
C1376 C 0.29201 0.07141 0.79048 0.0
C1377 C 0.28074 0.08445 0.78984 0.0
C1378 C 0.2728 0.06873 0.77979 0.0
H1379 H 0.27489 0.03923 0.72333 0.0
H1380 H 0.27939 0.06258 0.74056 0.0
H1381 H 0.28513 0.01853 0.73593 0.0
H1382 H 0.29 0.00558 0.76295 0.0
H1383 H 0.30385 0.03278 0.78044 0.0
H1384 H 0.78857 0.65481 0.47487 0.0
H1385 H 0.77642 0.68389 0.49427 0.0
H1386 H 0.78304 0.78872 0.47366 0.0
H1387 H 0.79579 0.7603 0.45524 0.0
H1388 H 0.78157 0.7994 0.50172 0.0
H1389 H 0.74471 0.71203 0.48727 0.0
H1390 H 0.75632 0.6858 0.49474 0.0
H1391 H 0.75789 0.70977 0.47674 0.0
C1392 C 0.7876 0.68413 0.47473 0.0
C1393 C 0.79316 0.70518 0.46351 0.0
C1394 C 0.78049 0.70075 0.48567 0.0
C1395 C 0.77841 0.73854 0.48519 0.0
C1396 C 0.78437 0.75958 0.47436 0.0
H1397 H 0.717 0.83098 0.52645 0.0
H1398 H 0.73158 0.80918 0.50852 0.0
C1399 C 0.79173 0.7432 0.46379 0.0
C1400 C 0.7699 0.75647 0.49559 0.0
H1401 H 0.74249 0.7512 0.5087 0.0
C1402 C 0.773 0.7889 0.50313 0.0
C1403 C 0.75858 0.74355 0.49728 0.0
C1404 C 0.75413 0.71114 0.48844 0.0
C1405 C 0.76519 0.80861 0.51217 0.0
C1406 C 0.75407 0.79457 0.51456 0.0
C1407 C 0.75099 0.76212 0.50704 0.0
C1408 C 0.74551 0.81259 0.52484 0.0
C1409 C 0.76891 0.84497 0.51852 0.0
C1410 C 0.74841 0.82294 0.53992 0.0
C1411 C 0.74015 0.83689 0.54994 0.0
C1412 C 0.72869 0.83949 0.54535 0.0
C1413 C 0.72578 0.8297 0.53024 0.0
C1414 C 0.73412 0.81686 0.52005 0.0
H1415 H 0.77553 0.85766 0.51111 0.0
H1416 H 0.76166 0.86422 0.51951 0.0
H1417 H 0.77273 0.84093 0.53006 0.0
H1418 H 0.75695 0.81878 0.54424 0.0
H1419 H 0.74261 0.84324 0.56164 0.0
H1420 H 0.73959 0.88821 0.21078 0.0
H1421 H 0.75286 0.91565 0.22919 0.0
H1422 H 0.73034 0.00752 0.23445 0.0
H1423 H 0.71703 0.98029 0.21617 0.0
H1424 H 0.76335 0.98436 0.22425 0.0
H1425 H 0.7391 0.98312 0.27905 0.0
H1426 H 0.73538 0.95447 0.26293 0.0
H1427 H 0.73151 1.0018 0.26293 0.0
C1428 C 0.7373 0.91374 0.21618 0.0
C1429 C 0.72721 0.93197 0.21201 0.0
C1430 C 0.74494 0.92954 0.22663 0.0
C1431 C 0.7426 0.96361 0.23325 0.0
C1432 C 0.73228 0.981 0.22967 0.0
H1433 H 0.78017 0.10886 0.29458 0.0
H1434 H 0.76656 0.08387 0.276 0.0
C1435 C 0.72467 0.96536 0.21918 0.0
C1436 C 0.7513 0.98234 0.24289 0.0
H1437 H 0.75611 0.01797 0.2786 0.0
C1438 C 0.7618 0.99153 0.23616 0.0
C1439 C 0.74922 0.99212 0.25837 0.0
C1440 C 0.73823 0.98215 0.26633 0.0
C1441 C 0.77022 0.01054 0.24443 0.0
C1442 C 0.7682 0.01998 0.25998 0.0
C1443 C 0.75766 0.01094 0.26667 0.0
C1444 C 0.77704 0.03772 0.26975 0.0
C1445 C 0.78109 0.02099 0.23629 0.0
C1446 C 0.7876 0.02067 0.2722 0.0
C1447 C 0.79543 0.03508 0.28269 0.0
C1448 C 0.79286 0.06671 0.29114 0.0
C1449 C 0.78249 0.08466 0.2882 0.0
C1450 C 0.77465 0.07022 0.27766 0.0
H1451 H 0.77985 0.02246 0.22363 0.0
H1452 H 0.78433 0.04768 0.24038 0.0
H1453 H 0.78768 1.00003 0.2386 0.0
H1454 H 0.78959 0.99522 0.26652 0.0
H1455 H 0.80327 0.0203 0.28474 0.0
H1456 H 0.46513 0.53277 0.47225 0.0
H1457 H 0.47893 0.50701 0.49025 0.0
H1458 H 0.50292 0.59137 0.47844 0.0
H1459 H 0.48912 0.6175 0.46041 0.0
H1460 H 0.50034 0.48054 0.48089 0.0
H1461 H 0.50502 0.58737 0.52561 0.0
H1462 H 0.49303 0.58585 0.51262 0.0
H1463 H 0.50652 0.60315 0.50615 0.0
C1464 C 0.47322 0.54651 0.47376 0.0
C1465 C 0.47599 0.57731 0.46486 0.0
C1466 C 0.48114 0.53155 0.484 0.0
C1467 C 0.49198 0.54719 0.48572 0.0
C1468 C 0.49457 0.57905 0.47747 0.0
H1469 H 0.55246 0.48606 0.5377 0.0
H1470 H 0.53915 0.51317 0.51936 0.0
C1471 C 0.48664 0.59404 0.46718 0.0
C1472 C 0.50081 0.52843 0.49515 0.0
H1473 H 0.51814 0.53842 0.52644 0.0
C1474 C 0.50421 0.49314 0.49089 0.0
C1475 C 0.50592 0.54494 0.50812 0.0
C1476 C 0.5024 0.58229 0.51352 0.0
C1477 C 0.51264 0.4741 0.49912 0.0
C1478 C 0.51769 0.49045 0.51219 0.0
C1479 C 0.51432 0.52584 0.51641 0.0
C1480 C 0.52632 0.4713 0.52187 0.0
C1481 C 0.51624 0.43699 0.4935 0.0
C1482 C 0.52372 0.43811 0.52914 0.0
C1483 C 0.5314 0.42226 0.53954 0.0
C1484 C 0.54178 0.4395 0.54304 0.0
C1485 C 0.54457 0.4719 0.53524 0.0
C1486 C 0.53692 0.48762 0.52481 0.0
H1487 H 0.51424 0.43323 0.48111 0.0
H1488 H 0.52552 0.43259 0.49521 0.0
H1489 H 0.51156 0.41581 0.50005 0.0
H1490 H 0.51553 0.42527 0.52733 0.0
H1491 H 0.52889 0.39759 0.54547 0.0
H1492 H 0.52755 0.86454 0.71012 0.0
H1493 H 0.51367 0.83838 0.72804 0.0
H1494 H 0.53823 0.75723 0.74164 0.0
H1495 H 0.55217 0.78357 0.72409 0.0
H1496 H 0.50494 0.76991 0.72624 0.0
H1497 H 0.52579 0.78713 0.78286 0.0
H1498 H 0.53049 0.81123 0.76592 0.0
H1499 H 0.53482 0.76483 0.76916 0.0
C1500 C 0.53012 0.84181 0.71727 0.0
C1501 C 0.54102 0.82631 0.71569 0.0
C1502 C 0.52213 0.82668 0.72743 0.0
C1503 C 0.52489 0.7959 0.7363 0.0
C1504 C 0.53593 0.78136 0.7352 0.0
H1505 H 0.48814 0.64591 0.79592 0.0
H1506 H 0.50152 0.6735 0.7777 0.0
C1507 C 0.54391 0.79649 0.72509 0.0
C1508 C 0.51602 0.77722 0.74574 0.0
H1509 H 0.51026 0.74518 0.78184 0.0
C1510 C 0.50606 0.76481 0.73843 0.0
C1511 C 0.51748 0.77029 0.76164 0.0
C1512 C 0.52767 0.78438 0.7704 0.0
C1513 C 0.49767 0.74513 0.74648 0.0
C1514 C 0.49921 0.73789 0.76232 0.0
C1515 C 0.50913 0.75041 0.76966 0.0
C1516 C 0.49049 0.71848 0.7717 0.0
C1517 C 0.48734 0.73158 0.73791 0.0
C1518 C 0.47971 0.73403 0.77409 0.0
C1519 C 0.47203 0.71829 0.78449 0.0
C1520 C 0.47497 0.68666 0.79274 0.0
C1521 C 0.48554 0.67003 0.78968 0.0
C1522 C 0.49324 0.68595 0.77934 0.0
H1523 H 0.48877 0.73124 0.72528 0.0
H1524 H 0.48498 0.70372 0.74172 0.0
H1525 H 0.48003 0.74989 0.7403 0.0
H1526 H 0.47743 0.75936 0.7685 0.0
H1527 H 0.46401 0.73199 0.78662 0.0
H1528 H 0.46444 0.22644 0.28411 0.0
H1529 H 0.47802 0.25412 0.2663 0.0
H1530 H 0.50274 0.17152 0.2776 0.0
H1531 H 0.48916 0.14341 0.29537 0.0
H1532 H 0.49893 0.28277 0.27514 0.0
H1533 H 0.50493 0.17601 0.23075 0.0
H1534 H 0.49305 0.17577 0.24395 0.0
H1535 H 0.50684 0.16034 0.25015 0.0
C1536 C 0.47266 0.21354 0.28254 0.0
C1537 C 0.47568 0.18257 0.29118 0.0
C1538 C 0.48045 0.22959 0.2724 0.0
C1539 C 0.49141 0.21494 0.27055 0.0
C1540 C 0.49428 0.18306 0.27862 0.0
H1541 H 0.55175 0.28162 0.21972 0.0
H1542 H 0.53852 0.25401 0.23801 0.0
C1543 C 0.48648 0.16696 0.28879 0.0
C1544 C 0.50006 0.2346 0.26111 0.0
H1545 H 0.51776 0.2259 0.23013 0.0
C1546 C 0.50301 0.27039 0.26525 0.0
C1547 C 0.50544 0.21843 0.24826 0.0
C1548 C 0.50235 0.18065 0.24289 0.0
C1549 C 0.51128 0.29021 0.25705 0.0
C1550 C 0.51664 0.27409 0.24416 0.0
C1551 C 0.5137 0.23827 0.24004 0.0
C1552 C 0.52519 0.29388 0.23458 0.0
C1553 C 0.51439 0.32792 0.26249 0.0
C1554 C 0.52228 0.32619 0.22684 0.0
C1555 C 0.5299 0.34231 0.21644 0.0
C1556 C 0.54055 0.32623 0.21344 0.0
C1557 C 0.54365 0.29488 0.22177 0.0
C1558 C 0.53605 0.27887 0.23218 0.0
H1559 H 0.51208 0.33208 0.27475 0.0
H1560 H 0.52366 0.33314 0.26109 0.0
H1561 H 0.50967 0.3483 0.25555 0.0
H1562 H 0.51389 0.33801 0.22826 0.0
H1563 H 0.52716 0.36614 0.2101 0.0
H1564 H 0.46502 0.03655 0.97255 0.0
H1565 H 0.47894 0.01042 0.99029 0.0
H1566 H 0.50406 0.08784 0.97484 0.0
H1567 H 0.49015 0.11439 0.95713 0.0
H1568 H 0.49918 0.97793 0.98078 0.0
H1569 H 0.50806 0.09062 0.02153 0.0
H1570 H 0.49566 0.09012 0.00924 0.0
H1571 H 0.50932 0.10301 1.00162 0.0
C1572 C 0.47341 0.04873 0.9732 0.0
C1573 C 0.47643 0.07769 0.9634 0.0
C1574 C 0.48139 0.03355 0.9833 0.0
C1575 C 0.49256 0.04713 0.98395 0.0
C1576 C 0.49546 0.07719 0.97474 0.0
H1577 H 0.55436 0.98172 0.03174 0.0
H1578 H 0.54054 0.00818 0.01394 0.0
C1579 C 0.48747 0.0924 0.9646 0.0
C1580 C 0.50136 0.028 0.99332 0.0
H1581 H 0.52043 0.03956 0.02261 0.0
C1582 C 0.50379 0.99135 0.98999 0.0
C1583 C 0.50743 0.04553 0.00526 0.0
C1584 C 0.50494 0.08439 0.00976 0.0
C1585 C 0.51221 0.97196 0.99809 0.0
C1586 C 0.51827 0.98946 0.01007 0.0
C1587 C 0.51584 0.02613 0.01339 0.0
C1588 C 0.52704 0.97029 0.01949 0.0
C1589 C 0.51473 0.93319 0.99349 0.0
C1590 C 0.5242 0.93949 0.02829 0.0
C1591 C 0.53214 0.92401 0.03841 0.0
C1592 C 0.54308 0.93928 0.04007 0.0
C1593 C 0.54605 0.96912 0.03073 0.0
C1594 C 0.53812 0.98448 0.0206 0.0
H1595 H 0.51185 0.92741 0.98157 0.0
H1596 H 0.52398 0.92721 0.99432 0.0
H1597 H 0.51013 0.91442 1.00133 0.0
H1598 H 0.51566 0.92837 0.02788 0.0
H1599 H 0.5295 0.90136 0.04555 0.0
H1600 H 0.18242 0.34556 0.13808 0.0
H1601 H 0.16283 0.34741 0.12895 0.0
H1602 H 0.15416 0.42311 0.16497 0.0
H1603 H 0.17396 0.42182 0.17417 0.0
H1604 H 0.14241 0.33056 0.14312 0.0
H1605 H 0.1438 0.47607 0.12564 0.0
H1606 H 0.15647 0.45054 0.13036 0.0
H1607 H 0.14737 0.46725 0.1454 0.0
C1608 C 0.17637 0.36255 0.14417 0.0
C1609 C 0.17983 0.38379 0.15683 0.0
C1610 C 0.16514 0.3635 0.13891 0.0
C1611 C 0.15705 0.38585 0.14607 0.0
C1612 C 0.16031 0.40617 0.15906 0.0
H1613 H 0.08405 0.37688 0.12963 0.0
H1614 H 0.10322 0.37321 0.14026 0.0
C1615 C 0.17161 0.40515 0.16441 0.0
C1616 C 0.14529 0.38786 0.13967 0.0
H1617 H 0.12625 0.44538 0.12245 0.0
C1618 C 0.13886 0.3557 0.13865 0.0
C1619 C 0.14075 0.42053 0.13356 0.0
C1620 C 0.14746 0.45555 0.13363 0.0
C1621 C 0.128 0.35535 0.13184 0.0
C1622 C 0.12334 0.38816 0.12605 0.0
C1623 C 0.1298 0.42028 0.12694 0.0
C1624 C 0.11169 0.3898 0.11931 0.0
C1625 C 0.12169 0.31966 0.13063 0.0
C1626 C 0.11 0.40089 0.104 0.0
C1627 C 0.09897 0.40312 0.09782 0.0
C1628 C 0.08941 0.39464 0.10691 0.0
C1629 C 0.09118 0.38347 0.12223 0.0
C1630 C 0.10217 0.38119 0.12835 0.0
H1631 H 0.12754 0.29601 0.1317 0.0
H1632 H 0.11534 0.31788 0.14005 0.0
H1633 H 0.11708 0.3176 0.11951 0.0
H1634 H 0.11723 0.40783 0.09682 0.0
H1635 H 0.09793 0.41202 0.08603 0.0
H1636 H 0.08896 0.82128 0.16275 0.0
H1637 H 0.10838 0.81813 0.15239 0.0
H1638 H 0.10301 0.91967 0.1285 0.0
H1639 H 0.08356 0.92214 0.13828 0.0
H1640 H 0.11205 0.87242 0.10971 0.0
H1641 H 0.137 0.86999 0.1638 0.0
H1642 H 0.12682 0.83368 0.16262 0.0
H1643 H 0.12197 0.88014 0.16347 0.0
C1644 C 0.09201 0.84323 0.15551 0.0
C1645 C 0.08472 0.87198 0.15136 0.0
C1646 C 0.10314 0.84147 0.14961 0.0
C1647 C 0.10726 0.86886 0.13974 0.0
C1648 C 0.10007 0.89811 0.13602 0.0
H1649 H 0.17775 0.90649 0.11553 0.0
H1650 H 0.15831 0.90831 0.12543 0.0
C1651 C 0.08894 0.89957 0.14169 0.0
C1652 C 0.11882 0.86654 0.13261 0.0
H1653 H 0.1472 0.85846 0.14074 0.0
C1654 C 0.11974 0.86948 0.11653 0.0
C1655 C 0.1289 0.863 0.14144 0.0
C1656 C 0.12866 0.86189 0.15879 0.0
C1657 C 0.13038 0.86931 0.10907 0.0
C1658 C 0.14043 0.86487 0.11786 0.0
C1659 C 0.13951 0.86164 0.13394 0.0
C1660 C 0.15204 0.86504 0.11081 0.0
C1661 C 0.13071 0.87516 0.09189 0.0
C1662 C 0.15504 0.84052 0.09905 0.0
C1663 C 0.16616 0.83994 0.09311 0.0
C1664 C 0.17457 0.8633 0.09907 0.0
C1665 C 0.17149 0.88809 0.11068 0.0
C1666 C 0.16037 0.88905 0.11642 0.0
H1667 H 0.12283 0.88868 0.08768 0.0
H1668 H 0.13815 0.892 0.08849 0.0
H1669 H 0.13138 0.84839 0.08606 0.0
H1670 H 0.14889 0.82108 0.09475 0.0
H1671 H 0.1683 0.82016 0.08433 0.0
H1672 H 0.8342 0.66974 0.87088 0.0
H1673 H 0.85355 0.67126 0.88119 0.0
H1674 H 0.86309 0.5834 0.85087 0.0
H1675 H 0.84385 0.58315 0.83997 0.0
H1676 H 0.8644 0.62334 0.89689 0.0
H1677 H 0.88961 0.64772 0.84416 0.0
H1678 H 0.87431 0.65164 0.84443 0.0
H1679 H 0.88098 0.60767 0.8425 0.0
C1680 C 0.84049 0.65124 0.86619 0.0
C1681 C 0.83752 0.62654 0.8545 0.0
C1682 C 0.85156 0.65199 0.87215 0.0
C1683 C 0.85991 0.62773 0.86675 0.0
C1684 C 0.85696 0.60317 0.85498 0.0
H1685 H 0.921 0.57389 0.9206 0.0
H1686 H 0.90166 0.57618 0.91004 0.0
C1687 C 0.84593 0.60294 0.84876 0.0
C1688 C 0.87144 0.62707 0.87406 0.0
H1689 H 0.89998 0.62871 0.86632 0.0
C1690 C 0.87217 0.62481 0.89018 0.0
C1691 C 0.88165 0.62938 0.86541 0.0
C1692 C 0.88161 0.63463 0.84819 0.0
C1693 C 0.88273 0.62472 0.89786 0.0
C1694 C 0.89294 0.62548 0.88917 0.0
C1695 C 0.8922 0.62781 0.87305 0.0
C1696 C 0.90448 0.62484 0.89644 0.0
C1697 C 0.88276 0.62495 0.91521 0.0
C1698 C 0.91266 0.65095 0.89222 0.0
C1699 C 0.92378 0.64909 0.89795 0.0
C1700 C 0.92698 0.62139 0.90824 0.0
C1701 C 0.91874 0.59592 0.91291 0.0
C1702 C 0.90764 0.59732 0.90689 0.0
H1703 H 0.87469 0.63624 0.91988 0.0
H1704 H 0.88358 0.59659 0.91948 0.0
H1705 H 0.88996 0.64121 0.91982 0.0
H1706 H 0.9105 0.67252 0.88424 0.0
H1707 H 0.92994 0.66911 0.89412 0.0
H1708 H 0.92153 0.15774 0.83301 0.0
H1709 H 0.90176 0.15627 0.84232 0.0
H1710 H 0.9125 0.09652 0.88245 0.0
H1711 H 0.93212 0.09763 0.87329 0.0
H1712 H 0.89249 0.06881 0.86867 0.0
H1713 H 0.88992 0.21799 0.87897 0.0
H1714 H 0.89414 0.20451 0.85993 0.0
H1715 H 0.90329 0.19472 0.87596 0.0
C1716 C 0.91966 0.14403 0.84374 0.0
C1717 C 0.92845 0.12801 0.85242 0.0
C1718 C 0.90837 0.14344 0.84911 0.0
C1719 C 0.90568 0.12675 0.86321 0.0
C1720 C 0.91438 0.10972 0.87159 0.0
H1721 H 0.84568 0.15171 0.92152 0.0
H1722 H 0.86513 0.14865 0.91119 0.0
C1723 C 0.92562 0.11046 0.86632 0.0
C1724 C 0.89388 0.12721 0.86948 0.0
H1725 H 0.87326 0.18366 0.88374 0.0
C1726 C 0.88827 0.09392 0.87191 0.0
C1727 C 0.88845 0.15995 0.87395 0.0
C1728 C 0.89425 0.19637 0.87222 0.0
C1729 C 0.87734 0.09252 0.87854 0.0
C1730 C 0.87183 0.1253 0.88275 0.0
C1731 C 0.87748 0.15857 0.88046 0.0
C1732 C 0.86012 0.12567 0.88931 0.0
C1733 C 0.87186 0.05592 0.88123 0.0
C1734 C 0.85086 0.11372 0.88046 0.0
C1735 C 0.83977 0.11547 0.8863 0.0
C1736 C 0.83766 0.12926 0.90115 0.0
C1737 C 0.84698 0.14072 0.9101 0.0
C1738 C 0.8581 0.13915 0.90419 0.0
H1739 H 0.8782 0.03347 0.88091 0.0
H1740 H 0.8674 0.05526 0.89249 0.0
H1741 H 0.86546 0.0508 0.87208 0.0
H1742 H 0.85218 0.10371 0.86888 0.0
H1743 H 0.83281 0.10649 0.87904 0.0
H1744 H 0.17086 0.89001 0.67559 0.0
H1745 H 0.15123 0.88607 0.66597 0.0
H1746 H 0.16388 0.87276 0.61977 0.0
H1747 H 0.18337 0.87572 0.62922 0.0
H1748 H 0.14038 0.93052 0.64583 0.0
H1749 H 0.14117 0.79106 0.62176 0.0
H1750 H 0.15216 0.80785 0.63441 0.0
H1751 H 0.1524 0.81899 0.61425 0.0
C1752 C 0.16945 0.88576 0.66341 0.0
C1753 C 0.17872 0.88298 0.65322 0.0
C1754 C 0.15823 0.88358 0.65792 0.0
C1755 C 0.15605 0.87846 0.64216 0.0
C1756 C 0.1653 0.8757 0.63201 0.0
H1757 H 0.09554 0.89068 0.58382 0.0
H1758 H 0.11513 0.88813 0.59377 0.0
C1759 C 0.17648 0.87766 0.63747 0.0
C1760 C 0.14417 0.87796 0.63613 0.0
H1761 H 0.12559 0.82885 0.61401 0.0
C1762 C 0.13713 0.90812 0.639 0.0
C1763 C 0.1399 0.84879 0.62714 0.0
C1764 C 0.14677 0.81469 0.62433 0.0
C1765 C 0.12606 0.91022 0.63289 0.0
C1766 C 0.12188 0.88134 0.62374 0.0
C1767 C 0.12887 0.85111 0.6209 0.0
C1768 C 0.1101 0.88156 0.61754 0.0
C1769 C 0.11893 0.94356 0.63607 0.0
C1770 C 0.10082 0.87801 0.62757 0.0
C1771 C 0.08968 0.8792 0.62195 0.0
C1772 C 0.08753 0.88408 0.60613 0.0
C1773 C 0.09687 0.88697 0.59604 0.0
C1774 C 0.10806 0.88552 0.6017 0.0
H1775 H 0.12411 0.96632 0.64075 0.0
H1776 H 0.11461 0.95293 0.62541 0.0
H1777 H 0.11224 0.93666 0.64461 0.0
H1778 H 0.10221 0.87452 0.6398 0.0
H1779 H 0.08274 0.87678 0.63009 0.0
H1780 H 0.09303 0.3147 0.66569 0.0
H1781 H 0.11261 0.31297 0.65584 0.0
H1782 H 0.10578 0.40783 0.62806 0.0
H1783 H 0.0862 0.40886 0.63738 0.0
H1784 H 0.11616 0.35829 0.61141 0.0
H1785 H 0.13983 0.37356 0.6662 0.0
H1786 H 0.13041 0.33512 0.66607 0.0
H1787 H 0.12465 0.38047 0.66492 0.0
C1788 C 0.09577 0.33549 0.65767 0.0
C1789 C 0.08804 0.36194 0.65236 0.0
C1790 C 0.10699 0.33455 0.65206 0.0
C1791 C 0.11077 0.36051 0.64128 0.0
C1792 C 0.10311 0.38741 0.6363 0.0
H1793 H 0.18035 0.41249 0.61789 0.0
H1794 H 0.16074 0.41028 0.62709 0.0
C1795 C 0.0919 0.38804 0.64171 0.0
C1796 C 0.12251 0.3592 0.63466 0.0
H1797 H 0.15079 0.3604 0.64401 0.0
C1798 C 0.12373 0.3588 0.61856 0.0
C1799 C 0.13242 0.36016 0.64392 0.0
C1800 C 0.1318 0.36271 0.66122 0.0
C1801 C 0.13451 0.35977 0.61149 0.0
C1802 C 0.14444 0.36003 0.62076 0.0
C1803 C 0.14321 0.36 0.63686 0.0
C1804 C 0.15616 0.36217 0.61413 0.0
C1805 C 0.13512 0.36185 0.59418 0.0
C1806 C 0.16017 0.33618 0.60353 0.0
C1807 C 0.1714 0.3378 0.59799 0.0
C1808 C 0.17891 0.36497 0.6032 0.0
C1809 C 0.17482 0.39114 0.61365 0.0
C1810 C 0.16359 0.38983 0.61898 0.0
H1811 H 0.127 0.37185 0.58915 0.0
H1812 H 0.14212 0.3801 0.59038 0.0
H1813 H 0.13674 0.33424 0.58949 0.0
H1814 H 0.15473 0.31405 0.59985 0.0
H1815 H 0.17433 0.31694 0.59012 0.0
H1816 H 0.84514 0.06727 0.33883 0.0
H1817 H 0.86444 0.06628 0.34967 0.0
H1818 H 0.85565 0.15566 0.37958 0.0
H1819 H 0.83629 0.15558 0.36934 0.0
H1820 H 0.88141 0.11145 0.35088 0.0
H1821 H 0.86773 0.0869 0.41074 0.0
H1822 H 0.85795 0.08462 0.3948 0.0
H1823 H 0.86151 0.12786 0.40336 0.0
C1824 C 0.84736 0.08681 0.34766 0.0
C1825 C 0.83915 0.11124 0.35334 0.0
C1826 C 0.85838 0.08615 0.3539 0.0
C1827 C 0.86145 0.11014 0.36582 0.0
C1828 C 0.85342 0.13587 0.37086 0.0
H1829 H 0.93105 0.16406 0.39035 0.0
H1830 H 0.9116 0.16212 0.38046 0.0
C1831 C 0.84237 0.13607 0.36486 0.0
C1832 C 0.87304 0.10865 0.37288 0.0
H1833 H 0.88705 0.1065 0.40738 0.0
C1834 C 0.88263 0.11007 0.36323 0.0
C1835 C 0.87472 0.10593 0.389 0.0
C1836 C 0.86492 0.10081 0.40004 0.0
C1837 C 0.89376 0.10998 0.36922 0.0
C1838 C 0.8954 0.10991 0.38538 0.0
C1839 C 0.88584 0.10729 0.39502 0.0
C1840 C 0.90696 0.11265 0.39247 0.0
C1841 C 0.90362 0.10922 0.35807 0.0
C1842 C 0.91066 0.08696 0.40341 0.0
C1843 C 0.92173 0.08866 0.40947 0.0
C1844 C 0.92934 0.1159 0.4046 0.0
C1845 C 0.92545 0.14242 0.39418 0.0
C1846 C 0.91435 0.14111 0.38836 0.0
H1847 H 0.90109 0.09692 0.34691 0.0
H1848 H 0.90645 0.13751 0.35574 0.0
H1849 H 0.91093 0.09358 0.36276 0.0
H1850 H 0.9051 0.06495 0.40693 0.0
H1851 H 0.92448 0.06778 0.41745 0.0
H1852 H 0.91971 0.65047 0.33219 0.0
H1853 H 0.89997 0.65053 0.34172 0.0
H1854 H 0.91211 0.63314 0.38789 0.0
H1855 H 0.93172 0.63264 0.3786 0.0
H1856 H 0.88932 0.58855 0.36364 0.0
H1857 H 0.89052 0.73018 0.38646 0.0
H1858 H 0.89942 0.71575 0.37062 0.0
H1859 H 0.90264 0.70108 0.38979 0.0
C1860 C 0.91817 0.64647 0.34435 0.0
C1861 C 0.92734 0.64158 0.3546 0.0
C1862 C 0.9069 0.64655 0.34977 0.0
C1863 C 0.90462 0.64215 0.36552 0.0
C1864 C 0.91371 0.63684 0.37572 0.0
H1865 H 0.8428 0.65817 0.42161 0.0
H1866 H 0.86264 0.65611 0.41258 0.0
C1867 C 0.92492 0.63646 0.37033 0.0
C1868 C 0.89277 0.64296 0.37145 0.0
H1869 H 0.87389 0.69604 0.39124 0.0
C1870 C 0.8859 0.61207 0.36961 0.0
C1871 C 0.88845 0.67344 0.37947 0.0
C1872 C 0.89557 0.70719 0.38172 0.0
C1873 C 0.8748 0.61074 0.37566 0.0
C1874 C 0.87032 0.64161 0.38339 0.0
C1875 C 0.87728 0.67241 0.38533 0.0
C1876 C 0.85832 0.6429 0.38902 0.0
C1877 C 0.86809 0.57589 0.37403 0.0
C1878 C 0.84929 0.6369 0.37878 0.0
C1879 C 0.83802 0.63768 0.38392 0.0
C1880 C 0.83544 0.64516 0.39942 0.0
C1881 C 0.84447 0.65216 0.40963 0.0
C1882 C 0.85581 0.65101 0.40448 0.0
H1883 H 0.87381 0.55201 0.3726 0.0
H1884 H 0.86254 0.57111 0.38417 0.0
H1885 H 0.86263 0.57763 0.36364 0.0
H1886 H 0.85094 0.63179 0.36672 0.0
H1887 H 0.83132 0.63272 0.37562 0.0
H1888 H 0.59338 0.43539 0.59068 0.0
H1889 H 0.61289 0.43637 0.60081 0.0
H1890 H 0.6051 0.34435 0.6298 0.0
H1891 H 0.58559 0.34409 0.62018 0.0
H1892 H 0.61569 0.39447 0.64592 0.0
H1893 H 0.63973 0.37288 0.59181 0.0
H1894 H 0.6306 0.41199 0.59121 0.0
H1895 H 0.6245 0.36721 0.59293 0.0
C1896 C 0.59589 0.41504 0.59903 0.0
C1897 C 0.58792 0.38964 0.60459 0.0
C1898 C 0.60707 0.41555 0.60481 0.0
C1899 C 0.61056 0.39019 0.616 0.0
C1900 C 0.60265 0.3643 0.62123 0.0
H1901 H 0.67963 0.33577 0.6413 0.0
H1902 H 0.66008 0.3381 0.63188 0.0
C1903 C 0.59149 0.3641 0.61565 0.0
C1904 C 0.62224 0.39114 0.62281 0.0
H1905 H 0.65059 0.38712 0.61398 0.0
C1906 C 0.62332 0.3928 0.63891 0.0
C1907 C 0.63223 0.38867 0.61374 0.0
C1908 C 0.63174 0.38473 0.59648 0.0
C1909 C 0.63403 0.39167 0.64617 0.0
C1910 C 0.64403 0.38993 0.63709 0.0
C1911 C 0.64295 0.38866 0.62098 0.0
C1912 C 0.65568 0.38766 0.64395 0.0
C1913 C 0.63447 0.39106 0.66352 0.0
C1914 C 0.65977 0.4144 0.65416 0.0
C1915 C 0.67096 0.41273 0.65983 0.0
C1916 C 0.67836 0.38473 0.65515 0.0
C1917 C 0.67418 0.35776 0.64514 0.0
C1918 C 0.66299 0.35914 0.63967 0.0
H1919 H 0.62624 0.38204 0.66856 0.0
H1920 H 0.64132 0.37271 0.66772 0.0
H1921 H 0.63624 0.41895 0.6678 0.0
H1922 H 0.65443 0.43717 0.65739 0.0
H1923 H 0.67397 0.43422 0.66734 0.0
H1924 H 0.59555 0.84537 0.67347 0.0
H1925 H 0.61509 0.84834 0.6634 0.0
H1926 H 0.60294 0.90483 0.62316 0.0
H1927 H 0.58351 0.90208 0.63304 0.0
H1928 H 0.62265 0.81895 0.63412 0.0
H1929 H 0.62999 0.96796 0.63848 0.0
H1930 H 0.61897 0.94483 0.64921 0.0
H1931 H 0.61691 0.95508 0.6292 0.0
C1932 C 0.59706 0.85885 0.66258 0.0
C1933 C 0.58794 0.87351 0.65409 0.0
C1934 C 0.60822 0.86039 0.65681 0.0
C1935 C 0.61048 0.87708 0.64258 0.0
C1936 C 0.60143 0.89227 0.63425 0.0
H1937 H 0.67022 0.85156 0.58308 0.0
H1938 H 0.65071 0.85428 0.59329 0.0
C1939 C 0.5903 0.89051 0.63992 0.0
C1940 C 0.62219 0.87734 0.63604 0.0
H1941 H 0.64361 0.93395 0.62429 0.0
C1942 C 0.62726 0.84406 0.63202 0.0
C1943 C 0.62819 0.91013 0.63333 0.0
C1944 C 0.62331 0.94656 0.63788 0.0
C1945 C 0.63811 0.84273 0.62518 0.0
C1946 C 0.64402 0.87558 0.62218 0.0
C1947 C 0.63901 0.90883 0.62641 0.0
C1948 C 0.65567 0.87582 0.61546 0.0
C1949 C 0.64328 0.80618 0.62146 0.0
C1950 C 0.66487 0.88807 0.62434 0.0
C1951 C 0.67597 0.88656 0.61856 0.0
C1952 C 0.67814 0.87308 0.60369 0.0
C1953 C 0.66885 0.86209 0.59456 0.0
C1954 C 0.65772 0.86338 0.60042 0.0
H1955 H 0.63865 0.78351 0.62717 0.0
H1956 H 0.64293 0.8017 0.60885 0.0
H1957 H 0.65236 0.80526 0.62502 0.0
H1958 H 0.66349 0.89796 0.63593 0.0
H1959 H 0.68289 0.89546 0.6259 0.0
H1960 H 0.42207 0.60886 0.42471 0.0
H1961 H 0.40216 0.60992 0.41585 0.0
H1962 H 0.41357 0.6221 0.36904 0.0
H1963 H 0.43333 0.62146 0.37765 0.0
H1964 H 0.39163 0.6707 0.39436 0.0
H1965 H 0.39101 0.52926 0.37139 0.0
H1966 H 0.40059 0.54318 0.38657 0.0
H1967 H 0.40326 0.55704 0.36713 0.0
C1968 C 0.42034 0.61183 0.41254 0.0
C1969 C 0.42934 0.61508 0.40193 0.0
C1970 C 0.40897 0.61243 0.40751 0.0
C1971 C 0.40642 0.61577 0.39178 0.0
C1972 C 0.41535 0.6192 0.38121 0.0
H1973 H 0.34413 0.60695 0.33658 0.0
H1974 H 0.36401 0.60755 0.34544 0.0
C1975 C 0.42667 0.61895 0.38621 0.0
C1976 C 0.39445 0.61616 0.38625 0.0
H1977 H 0.37485 0.56568 0.36652 0.0
C1978 C 0.38791 0.6477 0.38836 0.0
C1979 C 0.38972 0.58636 0.37819 0.0
C1980 C 0.39644 0.55185 0.37569 0.0
C1981 C 0.37677 0.65038 0.38249 0.0
C1982 C 0.37192 0.62026 0.37465 0.0
C1983 C 0.37852 0.58876 0.3725 0.0
C1984 C 0.3599 0.62046 0.36909 0.0
C1985 C 0.37045 0.68587 0.38439 0.0
C1986 C 0.35095 0.62699 0.37942 0.0
C1987 C 0.33965 0.62701 0.37438 0.0
C1988 C 0.33694 0.61988 0.35888 0.0
C1989 C 0.34589 0.61272 0.34855 0.0
C1990 C 0.35726 0.613 0.35362 0.0
H1991 H 0.37641 0.70908 0.38592 0.0
H1992 H 0.36491 0.69159 0.37432 0.0
H1993 H 0.36501 0.68434 0.39481 0.0
H1994 H 0.35269 0.6317 0.39149 0.0
H1995 H 0.33302 0.63218 0.38276 0.0
H1996 H 0.42145 0.14854 0.331 0.0
H1997 H 0.40176 0.14809 0.34071 0.0
H1998 H 0.41391 0.11782 0.38568 0.0
H1999 H 0.43345 0.1178 0.37621 0.0
H2000 H 0.39032 0.0825 0.3602 0.0
H2001 H 0.39378 0.21791 0.38862 0.0
H2002 H 0.40231 0.20582 0.37208 0.0
H2003 H 0.40552 0.18661 0.39053 0.0
C2004 C 0.41992 0.14152 0.34292 0.0
C2005 C 0.42908 0.13329 0.35279 0.0
C2006 C 0.40867 0.14131 0.34845 0.0
C2007 C 0.40642 0.13321 0.36394 0.0
C2008 C 0.41548 0.12437 0.37372 0.0
H2009 H 0.3463 0.14533 0.42302 0.0
H2010 H 0.36578 0.14112 0.41289 0.0
C2011 C 0.42667 0.12432 0.36822 0.0
C2012 C 0.39464 0.13428 0.37012 0.0
H2013 H 0.37687 0.18475 0.39278 0.0
C2014 C 0.38732 0.10491 0.36724 0.0
C2015 C 0.39086 0.16326 0.37951 0.0
C2016 C 0.39846 0.19539 0.38289 0.0
C2017 C 0.37631 0.10359 0.37364 0.0
C2018 C 0.37242 0.13294 0.38285 0.0
C2019 C 0.37981 0.16225 0.38575 0.0
C2020 C 0.36062 0.13434 0.38916 0.0
C2021 C 0.3691 0.07026 0.37079 0.0
C2022 C 0.35122 0.1323 0.37923 0.0
C2023 C 0.34012 0.13435 0.38499 0.0
C2024 C 0.3381 0.13909 0.40083 0.0
C2025 C 0.34752 0.14151 0.41079 0.0
C2026 C 0.35867 0.13917 0.405 0.0
H2027 H 0.37443 0.04615 0.368 0.0
H2028 H 0.36374 0.06365 0.38094 0.0
H2029 H 0.36341 0.07537 0.36083 0.0
H2030 H 0.35245 0.12967 0.36694 0.0
H2031 H 0.33312 0.13279 0.37691 0.0
H2032 H 0.68145 0.83153 0.13908 0.0
H2033 H 0.66199 0.83462 0.12931 0.0
H2034 H 0.657 0.93668 0.1529 0.0
H2035 H 0.67642 0.9329 0.16328 0.0
H2036 H 0.63831 0.89732 0.15457 0.0
H2037 H 0.65244 0.89654 0.09398 0.0
H2038 H 0.65731 0.85672 0.10392 0.0
H2039 H 0.6623 0.90103 0.10976 0.0
C2040 C 0.67618 0.85449 0.14233 0.0
C2041 C 0.68052 0.88213 0.15187 0.0
C2042 C 0.66507 0.85643 0.13658 0.0
C2043 C 0.65812 0.88653 0.13988 0.0
C2044 C 0.66223 0.91337 0.15 0.0
H2045 H 0.59674 0.93233 0.0853 0.0
H2046 H 0.61606 0.93259 0.09608 0.0
C2047 C 0.67332 0.91113 0.156 0.0
C2048 C 0.6466 0.88983 0.13271 0.0
H2049 H 0.63259 0.88529 0.09827 0.0
C2050 C 0.63708 0.89497 0.14224 0.0
C2051 C 0.64495 0.88772 0.11658 0.0
C2052 C 0.65481 0.88563 0.10547 0.0
C2053 C 0.62598 0.89681 0.13618 0.0
C2054 C 0.62427 0.89209 0.12015 0.0
C2055 C 0.63383 0.88821 0.11057 0.0
C2056 C 0.61267 0.89093 0.11312 0.0
C2057 C 0.61624 0.90449 0.14704 0.0
C2058 C 0.60441 0.86659 0.11868 0.0
C2059 C 0.59335 0.86675 0.11268 0.0
C2060 C 0.59035 0.8906 0.10067 0.0
C2061 C 0.59878 0.91357 0.09451 0.0
C2062 C 0.60982 0.91382 0.10071 0.0
H2063 H 0.6192 0.91938 0.15742 0.0
H2064 H 0.60947 0.92082 0.14139 0.0
H2065 H 0.6125 0.87834 0.15095 0.0
H2066 H 0.60646 0.84764 0.12781 0.0
H2067 H 0.58711 0.84837 0.11756 0.0
H2068 H 0.68226 0.35988 0.12706 0.0
H2069 H 0.66282 0.3621 0.13677 0.0
H2070 H 0.64996 0.35888 0.09034 0.0
H2071 H 0.66951 0.35545 0.08047 0.0
H2072 H 0.64621 0.41026 0.13335 0.0
H2073 H 0.63185 0.27801 0.10952 0.0
H2074 H 0.64661 0.29166 0.10948 0.0
H2075 H 0.63699 0.30876 0.09507 0.0
C2076 C 0.67533 0.35959 0.11885 0.0
C2077 C 0.67749 0.35726 0.10294 0.0
C2078 C 0.66418 0.36089 0.12446 0.0
C2079 C 0.65487 0.36 0.11435 0.0
C2080 C 0.65697 0.3586 0.09843 0.0
H2081 H 0.58215 0.38045 0.12598 0.0
H2082 H 0.60181 0.37882 0.11706 0.0
C2083 C 0.66817 0.35694 0.09277 0.0
C2084 C 0.64303 0.36096 0.12062 0.0
H2085 H 0.61759 0.31553 0.12075 0.0
C2086 C 0.63998 0.38939 0.13065 0.0
C2087 C 0.63489 0.33362 0.11723 0.0
C2088 C 0.63776 0.30109 0.10737 0.0
C2089 C 0.62901 0.39159 0.1371 0.0
C2090 C 0.62086 0.36464 0.13347 0.0
C2091 C 0.62387 0.33617 0.12351 0.0
C2092 C 0.60897 0.36637 0.13933 0.0
C2093 C 0.6261 0.4231 0.14749 0.0
C2094 C 0.60645 0.35988 0.1549 0.0
C2095 C 0.59512 0.36057 0.16011 0.0
C2096 C 0.58614 0.36796 0.14983 0.0
C2097 C 0.5888 0.37478 0.13429 0.0
C2098 C 0.60006 0.37379 0.12911 0.0
H2099 H 0.63284 0.44433 0.14749 0.0
H2100 H 0.61792 0.4357 0.14389 0.0
H2101 H 0.62501 0.413 0.15943 0.0
H2102 H 0.61322 0.35379 0.16296 0.0
H2103 H 0.59339 0.3551 0.17212 0.0
H2104 H 0.42167 0.11241 0.92269 0.0
H2105 H 0.40217 0.1139 0.91233 0.0
H2106 H 0.41551 0.1306 0.86671 0.0
H2107 H 0.43488 0.12946 0.87681 0.0
H2108 H 0.39167 0.17401 0.89174 0.0
H2109 H 0.39419 0.03647 0.86514 0.0
H2110 H 0.40324 0.05005 0.88094 0.0
H2111 H 0.40602 0.06674 0.86192 0.0
C2112 C 0.42045 0.11662 0.91047 0.0
C2113 C 0.42988 0.12069 0.90061 0.0
C2114 C 0.40931 0.11744 0.90458 0.0
C2115 C 0.40743 0.12195 0.88873 0.0
C2116 C 0.41679 0.1267 0.87894 0.0
H2117 H 0.34705 0.10944 0.82976 0.0
H2118 H 0.36665 0.11411 0.83949 0.0
C2119 C 0.42787 0.12615 0.88479 0.0
C2120 C 0.39573 0.12153 0.88227 0.0
H2121 H 0.37772 0.07113 0.85991 0.0
C2122 C 0.38858 0.15148 0.88484 0.0
C2123 C 0.3918 0.09235 0.87308 0.0
C2124 C 0.39915 0.05938 0.87012 0.0
C2125 C 0.37761 0.1532 0.87835 0.0
C2126 C 0.37357 0.12365 0.86937 0.0
C2127 C 0.38079 0.0938 0.86673 0.0
C2128 C 0.36172 0.12239 0.86323 0.0
C2129 C 0.37058 0.18706 0.88089 0.0
C2130 C 0.35243 0.12517 0.8733 0.0
C2131 C 0.34128 0.12285 0.86778 0.0
C2132 C 0.3391 0.11708 0.85203 0.0
C2133 C 0.34841 0.11407 0.84192 0.0
C2134 C 0.35962 0.11666 0.84748 0.0
H2135 H 0.37606 0.21104 0.88335 0.0
H2136 H 0.36519 0.19332 0.87073 0.0
H2137 H 0.36493 0.18288 0.89097 0.0
H2138 H 0.35379 0.12849 0.88554 0.0
H2139 H 0.33437 0.12493 0.87598 0.0
H2140 H 0.43197 0.59535 0.87161 0.0
H2141 H 0.41253 0.59538 0.88145 0.0
H2142 H 0.40403 0.68409 0.85102 0.0
H2143 H 0.42348 0.68332 0.84068 0.0
H2144 H 0.40159 0.64626 0.89678 0.0
H2145 H 0.37768 0.61764 0.84315 0.0
H2146 H 0.39295 0.61323 0.84433 0.0
H2147 H 0.38652 0.65735 0.84186 0.0
C2148 C 0.42594 0.61459 0.86683 0.0
C2149 C 0.42929 0.63925 0.85529 0.0
C2150 C 0.41481 0.61466 0.87254 0.0
C2151 C 0.40672 0.63952 0.86695 0.0
C2152 C 0.41 0.66405 0.85531 0.0
H2153 H 0.34293 0.68378 0.91732 0.0
H2154 H 0.36253 0.6869 0.90763 0.0
C2155 C 0.42114 0.66366 0.84942 0.0
C2156 C 0.39505 0.64023 0.87378 0.0
H2157 H 0.36674 0.63312 0.86509 0.0
C2158 C 0.39397 0.64333 0.88984 0.0
C2159 C 0.38508 0.6361 0.86478 0.0
C2160 C 0.38558 0.63053 0.8476 0.0
C2161 C 0.38327 0.64204 0.89714 0.0
C2162 C 0.37329 0.63862 0.88812 0.0
C2163 C 0.37436 0.63592 0.87204 0.0
C2164 C 0.36166 0.6361 0.89502 0.0
C2165 C 0.38285 0.64308 0.91448 0.0
C2166 C 0.35456 0.60672 0.89116 0.0
C2167 C 0.34334 0.60523 0.89648 0.0
C2168 C 0.33892 0.63294 0.90591 0.0
C2169 C 0.34613 0.66174 0.91027 0.0
C2170 C 0.35736 0.6635 0.90473 0.0
H2171 H 0.39114 0.63517 0.91966 0.0
H2172 H 0.38088 0.67122 0.91828 0.0
H2173 H 0.37614 0.62464 0.91901 0.0
H2174 H 0.35765 0.58514 0.88376 0.0
H2175 H 0.33802 0.58264 0.89291 0.0
H2176 H 0.04225 0.99035 0.11508 0.0
H2177 H 0.03997 0.05546 0.11035 0.0
H2178 H 0.03395 0.07327 0.15867 0.0
H2179 H 0.03638 0.00797 0.16359 0.0
H2180 H 0.02208 0.1047 0.11625 0.0
H2181 H 0.06123 0.1396 0.1491 0.0
H2182 H 0.05786 0.09356 0.14349 0.0
H2183 H 0.05074 0.11406 0.1596 0.0
C2184 C 0.04035 0.008 0.12472 0.0
C2185 C 0.0396 0.99397 0.13975 0.0
C2186 C 0.03903 0.04525 0.12197 0.0
C2187 C 0.03697 0.0693 0.13418 0.0
C2188 C 0.03574 0.05525 0.14912 0.0
H2189 H 0.03815 0.306 0.13728 0.0
H2190 H 0.0349 0.24184 0.14321 0.0
C2191 C 0.03707 0.01791 0.15189 0.0
C2192 C 0.03662 0.10912 0.13124 0.0
H2193 H 0.05076 0.18841 0.1387 0.0
C2194 C 0.02832 0.12308 0.1212 0.0
C2195 C 0.0448 0.133 0.13765 0.0
C2196 C 0.05423 0.1194 0.14796 0.0
C2197 C 0.02794 0.16033 0.11747 0.0
C2198 C 0.0362 0.18411 0.12376 0.0
C2199 C 0.04441 0.17018 0.13393 0.0
C2200 C 0.03675 0.2234 0.11972 0.0
C2201 C 0.01863 0.17394 0.10697 0.0
C2202 C 0.0387 0.23454 0.10448 0.0
C2203 C 0.04052 0.27135 0.10102 0.0
C2204 C 0.04053 0.29764 0.11278 0.0
C2205 C 0.0382 0.2865 0.12794 0.0
C2206 C 0.03635 0.24979 0.13137 0.0
H2207 H 0.01126 0.15498 0.10673 0.0
H2208 H 0.0156 0.20126 0.11058 0.0
H2209 H 0.02202 0.17614 0.0951 0.0
H2210 H 0.03927 0.21462 0.09533 0.0
H2211 H 0.04237 0.27896 0.08925 0.0
H2212 H 0.20963 0.97046 0.13114 0.0
H2213 H 0.21311 0.03451 0.13654 0.0
H2214 H 0.23965 0.03614 0.10214 0.0
H2215 H 0.23547 0.97236 0.09584 0.0
H2216 H 0.22916 0.07121 0.14723 0.0
H2217 H 0.2228 0.12132 0.0877 0.0
H2218 H 0.22008 0.07477 0.09299 0.0
H2219 H 0.23442 0.08994 0.08921 0.0
C2220 C 0.21621 0.98449 0.12471 0.0
C2221 C 0.22223 0.96656 0.113 0.0
C2222 C 0.21822 0.02119 0.12782 0.0
C2223 C 0.2265 0.04075 0.11956 0.0
C2224 C 0.23292 0.02229 0.10831 0.0
H2225 H 0.23909 0.26264 0.15639 0.0
H2226 H 0.24204 0.19829 0.14988 0.0
C2227 C 0.23063 0.98572 0.10482 0.0
C2228 C 0.22815 0.08035 0.1228 0.0
H2229 H 0.22843 0.16459 0.10613 0.0
C2230 C 0.22896 0.09163 0.13822 0.0
C2231 C 0.22786 0.10722 0.11109 0.0
C2232 C 0.22613 0.09778 0.09435 0.0
C2233 C 0.22894 0.12864 0.14232 0.0
C2234 C 0.22881 0.1555 0.1306 0.0
C2235 C 0.22856 0.14419 0.11515 0.0
C2236 C 0.22783 0.19526 0.13398 0.0
C2237 C 0.22835 0.13822 0.15919 0.0
C2238 C 0.21932 0.21581 0.12662 0.0
C2239 C 0.21798 0.25278 0.12981 0.0
C2240 C 0.22494 0.27002 0.14074 0.0
C2241 C 0.23354 0.24984 0.14804 0.0
C2242 C 0.23514 0.21295 0.14443 0.0
H2243 H 0.22517 0.11507 0.16621 0.0
H2244 H 0.23702 0.14505 0.16338 0.0
H2245 H 0.22268 0.16193 0.1612 0.0
H2246 H 0.21353 0.20309 0.11853 0.0
H2247 H 0.21123 0.26763 0.12407 0.0
H2248 H 0.97541 0.71373 0.86973 0.0
H2249 H 0.97873 0.77729 0.86285 0.0
H2250 H 0.97936 0.80631 0.91089 0.0
H2251 H 0.97624 0.74247 0.9179 0.0
H2252 H 0.96409 0.83219 0.86952 0.0
H2253 H 1.00649 0.863 0.89442 0.0
H2254 H 1.00138 0.81702 0.89183 0.0
H2255 H 0.99666 0.84364 0.90796 0.0
C2256 C 0.97647 0.73348 0.87887 0.0
C2257 C 0.97554 0.72302 0.89438 0.0
C2258 C 0.97836 0.76985 0.8749 0.0
C2259 C 0.97939 0.79659 0.88633 0.0
C2260 C 0.97884 0.78609 0.90186 0.0
H2261 H 0.97571 0.03052 0.88867 0.0
H2262 H 0.9783 0.96579 0.8941 0.0
C2263 C 0.977 0.74958 0.90586 0.0
C2264 C 0.97993 0.83567 0.88192 0.0
H2265 H 0.99538 0.91392 0.88616 0.0
C2266 C 0.971 0.84995 0.87301 0.0
C2267 C 0.98892 0.85889 0.88655 0.0
C2268 C 0.99896 0.84484 0.8956 0.0
C2269 C 0.97066 0.88691 0.86893 0.0
C2270 C 0.97959 0.91021 0.87366 0.0
C2271 C 0.98857 0.89595 0.88248 0.0
C2272 C 0.97938 0.9498 0.87021 0.0
C2273 C 0.96052 0.90095 0.86004 0.0
C2274 C 0.9795 0.96249 0.85497 0.0
C2275 C 0.97801 0.99958 0.8518 0.0
C2276 C 0.97639 0.02462 0.86384 0.0
C2277 C 0.97687 0.01199 0.87911 0.0
C2278 C 0.97837 0.97497 0.88226 0.0
H2279 H 0.95328 0.88145 0.86023 0.0
H2280 H 0.95756 0.9274 0.86476 0.0
H2281 H 0.96302 0.90531 0.84787 0.0
H2282 H 0.98046 0.94357 0.84551 0.0
H2283 H 0.97772 0.00841 0.83992 0.0
H2284 H 0.78744 0.04135 0.86832 0.0
H2285 H 0.78448 0.97727 0.86201 0.0
H2286 H 0.78707 0.94923 0.91004 0.0
H2287 H 0.7899 0.01351 0.9165 0.0
H2288 H 0.80028 0.9238 0.86761 0.0
H2289 H 0.7595 0.8896 0.89642 0.0
H2290 H 0.76394 0.93597 0.89293 0.0
H2291 H 0.76978 0.9108 0.90881 0.0
C2292 C 0.78716 0.02169 0.8776 0.0
C2293 C 0.78892 0.0326 0.89293 0.0
C2294 C 0.78548 0.98502 0.87396 0.0
C2295 C 0.78546 0.95842 0.88555 0.0
C2296 C 0.78683 0.96931 0.90093 0.0
H2297 H 0.79056 0.72476 0.88914 0.0
H2298 H 0.78784 0.78957 0.89421 0.0
C2299 C 0.78849 0.00609 0.9046 0.0
C2300 C 0.78509 0.91918 0.88135 0.0
H2301 H 0.77061 0.83966 0.88729 0.0
C2302 C 0.79372 0.90548 0.87178 0.0
C2303 C 0.77657 0.89526 0.88686 0.0
C2304 C 0.76686 0.90864 0.89671 0.0
C2305 C 0.79425 0.86841 0.8679 0.0
C2306 C 0.78577 0.8444 0.87349 0.0
C2307 C 0.77707 0.85812 0.88295 0.0
C2308 C 0.78619 0.80466 0.87027 0.0
C2309 C 0.80413 0.85508 0.85832 0.0
C2310 C 0.78579 0.79135 0.85513 0.0
C2311 C 0.78738 0.75419 0.85216 0.0
C2312 C 0.78932 0.72966 0.86431 0.0
C2313 C 0.78913 0.74288 0.8795 0.0
C2314 C 0.78756 0.77996 0.88244 0.0
H2315 H 0.81122 0.87511 0.85802 0.0
H2316 H 0.80746 0.82886 0.86282 0.0
H2317 H 0.80121 0.8506 0.84633 0.0
H2318 H 0.78451 0.80983 0.84558 0.0
H2319 H 0.78742 0.74491 0.84034 0.0
H2320 H 0.04096 0.76672 0.58816 0.0
H2321 H 0.03849 0.70158 0.59325 0.0
H2322 H 0.03568 0.72367 0.6418 0.0
H2323 H 0.03801 0.78865 0.63683 0.0
H2324 H 0.05353 0.66164 0.61128 0.0
H2325 H 0.00974 0.65136 0.63485 0.0
H2326 H 0.01462 0.69053 0.62414 0.0
H2327 H 0.01839 0.68529 0.64406 0.0
C2328 C 0.03956 0.7578 0.59989 0.0
C2329 C 0.0397 0.7829 0.61209 0.0
C2330 C 0.03818 0.72056 0.60278 0.0
C2331 C 0.03679 0.70777 0.61789 0.0
C2332 C 0.03651 0.73292 0.63002 0.0
H2333 H 0.04068 0.49707 0.66306 0.0
H2334 H 0.03801 0.56166 0.65676 0.0
C2335 C 0.03791 0.7701 0.62716 0.0
C2336 C 0.03684 0.66809 0.62115 0.0
H2337 H 0.02177 0.59954 0.63831 0.0
C2338 C 0.04653 0.64798 0.61703 0.0
C2339 C 0.02776 0.65042 0.62884 0.0
C2340 C 0.01699 0.6704 0.63312 0.0
C2341 C 0.04751 0.61088 0.62065 0.0
C2342 C 0.03843 0.59315 0.62832 0.0
C2343 C 0.02871 0.61319 0.63242 0.0
C2344 C 0.03896 0.55379 0.63213 0.0
C2345 C 0.05841 0.59125 0.61661 0.0
C2346 C 0.04001 0.52788 0.62038 0.0
C2347 C 0.04159 0.49114 0.62393 0.0
C2348 C 0.04203 0.47945 0.63933 0.0
C2349 C 0.04041 0.5052 0.65109 0.0
C2350 C 0.03888 0.54209 0.64751 0.0
H2351 H 0.06553 0.61053 0.61449 0.0
H2352 H 0.06095 0.57221 0.62592 0.0
H2353 H 0.05707 0.57518 0.60595 0.0
H2354 H 0.03986 0.5362 0.60843 0.0
H2355 H 0.04269 0.47199 0.61457 0.0
H2356 H 0.22228 0.47984 0.64042 0.0
H2357 H 0.22525 0.54454 0.64546 0.0
H2358 H 0.23126 0.56317 0.59718 0.0
H2359 H 0.22815 0.4983 0.59196 0.0
H2360 H 0.2437 0.59196 0.63957 0.0
H2361 H 0.20474 0.63218 0.60738 0.0
H2362 H 0.20762 0.58564 0.61276 0.0
H2363 H 0.21488 0.60575 0.59666 0.0
C2364 C 0.22432 0.49758 0.63085 0.0
C2365 C 0.22488 0.48392 0.61575 0.0
C2366 C 0.22604 0.53458 0.63378 0.0
C2367 C 0.2283 0.55877 0.62168 0.0
C2368 C 0.22932 0.54506 0.60666 0.0
H2369 H 0.22922 0.79565 0.62004 0.0
H2370 H 0.23191 0.7315 0.61361 0.0
C2371 C 0.2276 0.50796 0.60371 0.0
C2372 C 0.22911 0.59844 0.62481 0.0
H2373 H 0.21575 0.67944 0.61799 0.0
C2374 C 0.23763 0.61116 0.63481 0.0
C2375 C 0.22115 0.62341 0.61864 0.0
C2376 C 0.21151 0.61117 0.60837 0.0
C2377 C 0.23843 0.64822 0.63873 0.0
C2378 C 0.23037 0.67309 0.63271 0.0
C2379 C 0.22195 0.66039 0.62256 0.0
C2380 C 0.23023 0.71226 0.63702 0.0
C2381 C 0.24796 0.66045 0.64916 0.0
C2382 C 0.22859 0.72295 0.65238 0.0
C2383 C 0.22711 0.75975 0.65612 0.0
C2384 C 0.22711 0.78649 0.64454 0.0
C2385 C 0.22916 0.77579 0.62925 0.0
C2386 C 0.23068 0.73909 0.62554 0.0
H2387 H 0.25516 0.64083 0.64908 0.0
H2388 H 0.2512 0.68768 0.64573 0.0
H2389 H 0.24472 0.6623 0.66112 0.0
H2390 H 0.22797 0.70273 0.66141 0.0
H2391 H 0.22546 0.76703 0.66798 0.0
H2392 H 0.97499 0.5185 0.33849 0.0
H2393 H 0.97767 0.45346 0.3437 0.0
H2394 H 0.97735 0.47491 0.39244 0.0
H2395 H 0.97483 0.53984 0.38737 0.0
H2396 H 0.99398 0.42338 0.3835 0.0
H2397 H 0.95124 0.39058 0.35971 0.0
H2398 H 0.96054 0.41453 0.3468 0.0
H2399 H 0.95561 0.43657 0.364 0.0
C2400 C 0.97564 0.50944 0.35031 0.0
C2401 C 0.97459 0.53436 0.36251 0.0
C2402 C 0.9771 0.47224 0.35327 0.0
C2403 C 0.9775 0.45927 0.36847 0.0
C2404 C 0.97701 0.48428 0.38063 0.0
H2405 H 0.9766 0.24948 0.41483 0.0
H2406 H 0.97891 0.31395 0.40828 0.0
C2407 C 0.97555 0.52142 0.37769 0.0
C2408 C 0.97786 0.4196 0.37178 0.0
H2409 H 0.96249 0.34119 0.36795 0.0
C2410 C 0.98712 0.40534 0.38007 0.0
C2411 C 0.96886 0.39617 0.36739 0.0
C2412 C 0.95844 0.41016 0.3591 0.0
C2413 C 0.98768 0.36815 0.38391 0.0
C2414 C 0.97865 0.34479 0.37957 0.0
C2415 C 0.96943 0.35908 0.37122 0.0
C2416 C 0.97842 0.30547 0.38365 0.0
C2417 C 0.99801 0.35414 0.39236 0.0
C2418 C 0.97733 0.27923 0.37202 0.0
C2419 C 0.97591 0.24249 0.37573 0.0
C2420 C 0.97551 0.23113 0.39118 0.0
C2421 C 0.97695 0.25728 0.40283 0.0
C2422 C 0.97833 0.29415 0.39909 0.0
H2423 H 1.00541 0.37274 0.39105 0.0
H2424 H 0.99601 0.35209 0.40481 0.0
H2425 H 1.00047 0.32667 0.3882 0.0
H2426 H 0.97734 0.2873 0.36004 0.0
H2427 H 0.97484 0.2231 0.36646 0.0
H2428 H 0.79228 0.23877 0.33972 0.0
H2429 H 0.78982 0.30348 0.34586 0.0
H2430 H 0.78838 0.27734 0.39416 0.0
H2431 H 0.79101 0.21293 0.38818 0.0
H2432 H 0.773 0.34299 0.36219 0.0
H2433 H 0.81497 0.34912 0.39156 0.0
H2434 H 0.81079 0.31123 0.37962 0.0
H2435 H 0.80554 0.31488 0.39899 0.0
C2436 C 0.79131 0.24676 0.35163 0.0
C2437 C 0.79196 0.22072 0.36346 0.0
C2438 C 0.78991 0.28375 0.35512 0.0
C2439 C 0.78916 0.2953 0.37049 0.0
C2440 C 0.78921 0.26914 0.38225 0.0
H2441 H 0.7897 0.50944 0.41404 0.0
H2442 H 0.78751 0.44416 0.40892 0.0
C2443 C 0.79065 0.23228 0.37879 0.0
C2444 C 0.78879 0.33472 0.37429 0.0
H2445 H 0.80342 0.4017 0.39309 0.0
C2446 C 0.77965 0.35587 0.36893 0.0
C2447 C 0.79749 0.35149 0.38308 0.0
C2448 C 0.80781 0.33065 0.38854 0.0
C2449 C 0.7789 0.39326 0.37229 0.0
C2450 C 0.78761 0.40999 0.38106 0.0
C2451 C 0.79671 0.38878 0.38648 0.0
C2452 C 0.7878 0.44977 0.38415 0.0
C2453 C 0.76873 0.41443 0.3666 0.0
C2454 C 0.78864 0.47459 0.37194 0.0
C2455 C 0.7899 0.51181 0.37482 0.0
C2456 C 0.79041 0.52502 0.39 0.0
C2457 C 0.78929 0.5002 0.40223 0.0
C2458 C 0.78807 0.46289 0.39932 0.0
H2459 H 0.76142 0.39624 0.36396 0.0
H2460 H 0.76597 0.43495 0.37521 0.0
H2461 H 0.77108 0.429 0.35587 0.0
H2462 H 0.7887 0.46507 0.36015 0.0
H2463 H 0.79078 0.53013 0.36513 0.0
H2464 H 0.53758 0.96356 0.61979 0.0
H2465 H 0.53496 0.02766 0.61318 0.0
H2466 H 0.53862 0.05705 0.66092 0.0
H2467 H 0.54107 0.99271 0.6677 0.0
H2468 H 0.52152 0.09712 0.64525 0.0
H2469 H 0.56238 0.09657 0.61299 0.0
H2470 H 0.55228 0.063 0.60673 0.0
H2471 H 0.55828 0.06003 0.62571 0.0
C2472 C 0.53768 0.98356 0.62893 0.0
C2473 C 0.53965 0.97305 0.64426 0.0
C2474 C 0.53624 0.02023 0.62511 0.0
C2475 C 0.53686 0.04719 0.6365 0.0
C2476 C 0.53819 0.03668 0.65193 0.0
H2477 H 0.54202 0.28071 0.6406 0.0
H2478 H 0.53887 0.21619 0.64575 0.0
C2479 C 0.53958 0.9999 0.65579 0.0
C2480 C 0.53674 0.08633 0.63221 0.0
H2481 H 0.55154 0.1506 0.61201 0.0
C2482 C 0.52807 0.10884 0.63797 0.0
C2483 C 0.54531 0.10158 0.62272 0.0
C2484 C 0.55515 0.07919 0.61677 0.0
C2485 C 0.52769 0.14617 0.63438 0.0
C2486 C 0.53631 0.16143 0.62499 0.0
C2487 C 0.54489 0.13881 0.61911 0.0
C2488 C 0.53703 0.2011 0.62183 0.0
C2489 C 0.51802 0.1689 0.64058 0.0
C2490 C 0.53711 0.21416 0.60664 0.0
C2491 C 0.53897 0.25117 0.60363 0.0
C2492 C 0.54089 0.2757 0.61577 0.0
C2493 C 0.54053 0.26261 0.63097 0.0
C2494 C 0.53865 0.22572 0.63396 0.0
H2495 H 0.51053 0.15183 0.6436 0.0
H2496 H 0.52088 0.18302 0.65118 0.0
H2497 H 0.51533 0.18985 0.63211 0.0
H2498 H 0.53597 0.19557 0.59709 0.0
H2499 H 0.53924 0.26032 0.59179 0.0
H2500 H 0.72747 0.25162 0.66648 0.0
H2501 H 0.73106 0.18699 0.66125 0.0
H2502 H 0.72643 0.20627 0.61274 0.0
H2503 H 0.72293 0.27061 0.6178 0.0
H2504 H 0.71542 0.14016 0.64724 0.0
H2505 H 0.75551 0.14487 0.61364 0.0
H2506 H 0.7507 0.1825 0.62533 0.0
H2507 H 0.7447 0.17512 0.60656 0.0
C2508 C 0.72741 0.24219 0.65468 0.0
C2509 C 0.72491 0.26628 0.64256 0.0
C2510 C 0.72945 0.20527 0.65171 0.0
C2511 C 0.72918 0.19189 0.63658 0.0
C2512 C 0.72694 0.21607 0.62446 0.0
H2513 H 0.72521 0.98521 0.59023 0.0
H2514 H 0.72771 0.0492 0.59742 0.0
C2515 C 0.72486 0.25286 0.62741 0.0
C2516 C 0.73019 0.15226 0.6335 0.0
H2517 H 0.7449 0.08929 0.61245 0.0
C2518 C 0.72196 0.12892 0.63982 0.0
C2519 C 0.73867 0.13774 0.62369 0.0
C2520 C 0.74796 0.16129 0.61701 0.0
C2521 C 0.72173 0.09169 0.63619 0.0
C2522 C 0.73013 0.0772 0.62622 0.0
C2523 C 0.73848 0.10042 0.62009 0.0
C2524 C 0.73008 0.03823 0.62166 0.0
C2525 C 0.71221 0.06852 0.64256 0.0
C2526 C 0.73104 0.01074 0.63279 0.0
C2527 C 0.72956 0.97422 0.62874 0.0
C2528 C 0.72721 0.96443 0.61343 0.0
C2529 C 0.72699 0.99182 0.60212 0.0
C2530 C 0.72841 0.02842 0.60621 0.0
H2531 H 0.705 0.08533 0.64682 0.0
H2532 H 0.70893 0.04943 0.63371 0.0
H2533 H 0.71548 0.05223 0.65236 0.0
H2534 H 0.73259 0.01763 0.64472 0.0
H2535 H 0.72989 0.95378 0.63771 0.0
H2536 H 0.47738 0.73972 0.41587 0.0
H2537 H 0.48001 0.80467 0.41045 0.0
H2538 H 0.47808 0.78304 0.36179 0.0
H2539 H 0.47562 0.71818 0.36706 0.0
H2540 H 0.495 0.83417 0.36954 0.0
H2541 H 0.45327 0.86811 0.39613 0.0
H2542 H 0.46297 0.84416 0.40848 0.0
H2543 H 0.45739 0.82198 0.39168 0.0
C2544 C 0.47766 0.74872 0.40401 0.0
C2545 C 0.47619 0.72378 0.3919 0.0
C2546 C 0.47909 0.78588 0.40093 0.0
C2547 C 0.47902 0.79877 0.38572 0.0
C2548 C 0.4781 0.77372 0.37361 0.0
H2549 H 0.47642 0.00797 0.3392 0.0
H2550 H 0.47901 0.94356 0.34569 0.0
C2551 C 0.47668 0.73663 0.37666 0.0
C2552 C 0.47935 0.83841 0.38235 0.0
H2553 H 0.46434 0.91722 0.38715 0.0
C2554 C 0.48832 0.85239 0.37342 0.0
C2555 C 0.47059 0.86208 0.38733 0.0
C2556 C 0.46045 0.8484 0.39632 0.0
C2557 C 0.48882 0.88952 0.36949 0.0
C2558 C 0.48002 0.91312 0.37442 0.0
C2559 C 0.4711 0.89913 0.38343 0.0
C2560 C 0.47972 0.95238 0.37028 0.0
C2561 C 0.49882 0.90325 0.36027 0.0
C2562 C 0.47924 0.97877 0.38192 0.0
C2563 C 0.47769 0.01548 0.37826 0.0
C2564 C 0.47652 0.02663 0.36286 0.0
C2565 C 0.47737 1.00033 0.35117 0.0
C2566 C 0.4789 0.9635 0.35486 0.0
H2567 H 0.50621 0.8844 0.361 0.0
H2568 H 0.49631 0.90549 0.34801 0.0
H2569 H 0.50154 0.93061 0.36428 0.0
H2570 H 0.47982 0.97084 0.3939 0.0
H2571 H 0.47708 0.03499 0.38756 0.0
H2572 H 0.28878 0.74874 0.34344 0.0
H2573 H 0.28593 0.81395 0.34807 0.0
H2574 H 0.28926 0.7962 0.39688 0.0
H2575 H 0.29191 0.73114 0.39241 0.0
H2576 H 0.27188 0.84526 0.38944 0.0
H2577 H 0.31247 0.88045 0.36001 0.0
H2578 H 0.30253 0.85513 0.34852 0.0
H2579 H 0.30882 0.83433 0.36519 0.0
C2580 C 0.28878 0.75867 0.35516 0.0
C2581 C 0.29068 0.73477 0.36754 0.0
C2582 C 0.28722 0.79596 0.35778 0.0
C2583 C 0.2876 0.81 0.3728 0.0
C2584 C 0.28899 0.78598 0.3852 0.0
H2585 H 0.29108 0.02008 0.41757 0.0
H2586 H 0.28829 0.95559 0.41148 0.0
C2587 C 0.29053 0.74877 0.3826 0.0
C2588 C 0.28707 0.84981 0.37567 0.0
H2589 H 0.30142 0.92925 0.36927 0.0
C2590 C 0.27831 0.86369 0.38499 0.0
C2591 C 0.2955 0.87376 0.36992 0.0
C2592 C 0.30543 0.86025 0.36047 0.0
C2593 C 0.27772 0.90094 0.38863 0.0
C2594 C 0.28621 0.92478 0.38299 0.0
C2595 C 0.29489 0.91094 0.37353 0.0
C2596 C 0.28651 0.96408 0.38696 0.0
C2597 C 0.26798 0.91452 0.39837 0.0
C2598 C 0.28641 0.9903 0.37523 0.0
C2599 C 0.28806 0.02707 0.37866 0.0
C2600 C 0.28992 0.03842 0.3939 0.0
C2601 C 0.2896 0.01228 0.40572 0.0
C2602 C 0.28796 0.97541 0.40227 0.0
H2603 H 0.26067 0.89528 0.39823 0.0
H2604 H 0.2709 0.91733 0.41045 0.0
H2605 H 0.26499 0.94159 0.39435 0.0
H2606 H 0.28535 0.98216 0.36334 0.0
H2607 H 0.28825 0.04646 0.36927 0.0
H2608 H 0.54091 0.47674 0.11523 0.0
H2609 H 0.53899 0.54185 0.11011 0.0
H2610 H 0.53702 0.56296 0.1588 0.0
H2611 H 0.53909 0.49772 0.16408 0.0
H2612 H 0.52237 0.59416 0.11796 0.0
H2613 H 0.5643 0.6246 0.14475 0.0
H2614 H 0.55986 0.57887 0.14011 0.0
H2615 H 0.55439 0.60112 0.15697 0.0
C2616 C 0.53995 0.49513 0.12488 0.0
C2617 C 0.54026 0.48202 0.14008 0.0
C2618 C 0.53884 0.53238 0.12191 0.0
C2619 C 0.53806 0.55733 0.13407 0.0
C2620 C 0.53782 0.54423 0.14925 0.0
H2621 H 0.54196 0.79342 0.13632 0.0
H2622 H 0.53877 0.72944 0.14259 0.0
C2623 C 0.53894 0.50691 0.15224 0.0
C2624 C 0.53803 0.59704 0.13079 0.0
H2625 H 0.55363 0.67462 0.13577 0.0
C2626 C 0.52918 0.61183 0.12188 0.0
C2627 C 0.54696 0.61998 0.13584 0.0
C2628 C 0.55698 0.60541 0.14483 0.0
C2629 C 0.52896 0.64904 0.11804 0.0
C2630 C 0.53793 0.67191 0.12302 0.0
C2631 C 0.54673 0.65711 0.13201 0.0
C2632 C 0.53854 0.71119 0.11894 0.0
C2633 C 0.51905 0.66363 0.10887 0.0
C2634 C 0.53933 0.72241 0.10352 0.0
C2635 C 0.54111 0.75915 0.09987 0.0
C2636 C 0.54225 0.78527 0.1116 0.0
C2637 C 0.54113 0.77405 0.12699 0.0
C2638 C 0.53932 0.73744 0.13062 0.0
H2639 H 0.5115 0.64544 0.10966 0.0
H2640 H 0.51658 0.69123 0.11287 0.0
H2641 H 0.52154 0.66556 0.09659 0.0
H2642 H 0.539 0.70259 0.09432 0.0
H2643 H 0.54202 0.76684 0.08791 0.0
H2644 H 0.72641 0.45311 0.13403 0.0
H2645 H 0.72892 0.51803 0.13913 0.0
H2646 H 0.72742 0.54035 0.09049 0.0
H2647 H 0.72476 0.47535 0.08526 0.0
H2648 H 0.74497 0.57088 0.12913 0.0
H2649 H 0.70112 0.60095 0.10856 0.0
H2650 H 0.70596 0.55525 0.11249 0.0
H2651 H 0.71003 0.57767 0.09495 0.0
C2652 C 0.72675 0.47172 0.12438 0.0
C2653 C 0.72527 0.45905 0.10923 0.0
C2654 C 0.7282 0.50885 0.12733 0.0
C2655 C 0.72816 0.53407 0.11522 0.0
C2656 C 0.72728 0.52138 0.10003 0.0
H2657 H 0.7243 0.7696 0.11285 0.0
H2658 H 0.72678 0.70533 0.1066 0.0
C2659 C 0.72582 0.4842 0.09705 0.0
C2660 C 0.72839 0.57368 0.11861 0.0
H2661 H 0.7124 0.65109 0.11589 0.0
C2662 C 0.73787 0.5885 0.12622 0.0
C2663 C 0.71907 0.59652 0.1149 0.0
C2664 C 0.70842 0.58186 0.1074 0.0
C2665 C 0.73836 0.62571 0.13 0.0
C2666 C 0.72903 0.64851 0.1263 0.0
C2667 C 0.71957 0.63363 0.11867 0.0
C2668 C 0.72878 0.68788 0.13021 0.0
C2669 C 0.74892 0.64041 0.13768 0.0
C2670 C 0.72921 0.69961 0.14558 0.0
C2671 C 0.72784 0.73653 0.14921 0.0
C2672 C 0.72589 0.76229 0.13753 0.0
C2673 C 0.72576 0.75052 0.12214 0.0
C2674 C 0.72717 0.71374 0.11853 0.0
H2675 H 0.75635 0.62209 0.13599 0.0
H2676 H 0.7511 0.66785 0.1332 0.0
H2677 H 0.74736 0.64278 0.15023 0.0
H2678 H 0.7302 0.68008 0.15482 0.0
H2679 H 0.7279 0.74468 0.16118 0.0
H2680 H 0.47601 0.24181 0.91644 0.0
H2681 H 0.47833 0.30633 0.90987 0.0
H2682 H 0.48235 0.27784 0.86209 0.0
H2683 H 0.47989 0.21355 0.86848 0.0
H2684 H 0.49566 0.34666 0.8942 0.0
H2685 H 0.4547 0.34654 0.86215 0.0
H2686 H 0.45879 0.31002 0.87489 0.0
H2687 H 0.46478 0.31287 0.85591 0.0
C2688 C 0.47755 0.24923 0.90456 0.0
C2689 C 0.47764 0.22256 0.89296 0.0
C2690 C 0.47886 0.28611 0.90083 0.0
C2691 C 0.48028 0.2969 0.88545 0.0
C2692 C 0.48103 0.27016 0.87398 0.0
H2693 H 0.47768 0.51036 0.84112 0.0
H2694 H 0.48089 0.44553 0.84631 0.0
C2695 C 0.47968 0.23339 0.87768 0.0
C2696 C 0.48037 0.3361 0.88128 0.0
H2697 H 0.46551 0.40063 0.86132 0.0
C2698 C 0.48909 0.3585 0.887 0.0
C2699 C 0.47178 0.35148 0.87188 0.0
C2700 C 0.46192 0.32913 0.86594 0.0
C2701 C 0.48948 0.39586 0.88347 0.0
C2702 C 0.48082 0.41126 0.87418 0.0
C2703 C 0.47219 0.38874 0.86834 0.0
C2704 C 0.48012 0.45096 0.87107 0.0
C2705 C 0.49921 0.41843 0.88959 0.0
C2706 C 0.47868 0.47556 0.88325 0.0
C2707 C 0.47685 0.51251 0.88033 0.0
C2708 C 0.47634 0.52566 0.86514 0.0
C2709 C 0.47807 0.50115 0.85294 0.0
C2710 C 0.47989 0.46409 0.85589 0.0
H2711 H 0.50671 0.40126 0.89244 0.0
H2712 H 0.50184 0.43952 0.88115 0.0
H2713 H 0.49645 0.43236 0.90028 0.0
H2714 H 0.47857 0.46599 0.89503 0.0
H2715 H 0.47551 0.53058 0.89 0.0
H2716 H 0.3017 0.21495 0.88316 0.0
H2717 H 0.29844 0.27902 0.88854 0.0
H2718 H 0.27563 0.28574 0.84968 0.0
H2719 H 0.27967 0.22179 0.84354 0.0
H2720 H 0.28751 0.34109 0.84895 0.0
H2721 H 0.27433 0.33203 0.90934 0.0
H2722 H 0.28796 0.31064 0.90776 0.0
H2723 H 0.27586 0.2919 0.89761 0.0
C2724 C 0.29585 0.22993 0.87589 0.0
C2725 C 0.29086 0.21332 0.863 0.0
C2726 C 0.29388 0.26663 0.87908 0.0
C2727 C 0.28648 0.28734 0.86986 0.0
C2728 C 0.28131 0.27048 0.85709 0.0
H2729 H 0.27843 0.51245 0.90379 0.0
H2730 H 0.27395 0.44908 0.89707 0.0
C2731 C 0.28358 0.23392 0.85359 0.0
C2732 C 0.28504 0.32713 0.87282 0.0
H2733 H 0.28329 0.3895 0.90185 0.0
C2734 C 0.28633 0.35156 0.8605 0.0
C2735 C 0.28313 0.34138 0.88776 0.0
C2736 C 0.2801 0.31748 0.90128 0.0
C2737 C 0.2865 0.38939 0.86283 0.0
C2738 C 0.28604 0.40335 0.87802 0.0
C2739 C 0.28398 0.37909 0.89022 0.0
C2740 C 0.28829 0.44246 0.88159 0.0
C2741 C 0.28709 0.41378 0.84887 0.0
C2742 C 0.29788 0.45996 0.87535 0.0
C2743 C 0.3002 0.49633 0.87877 0.0
C2744 C 0.29327 0.5157 0.88906 0.0
C2745 C 0.28388 0.49809 0.89577 0.0
C2746 C 0.28134 0.4619 0.89194 0.0
H2747 H 0.28263 0.40114 0.83894 0.0
H2748 H 0.2832 0.44083 0.85109 0.0
H2749 H 0.29613 0.41756 0.84549 0.0
H2750 H 0.30373 0.44538 0.86796 0.0
H2751 H 0.30763 0.50902 0.87368 0.0
loop_
_geom_bond_atom_site_label_1
_geom_bond_atom_site_label_2
_geom_bond_distance
_geom_bond_site_symmetry_2
_ccdc_geom_bond_type
O0 Cd1 2.223 . S
O0 C8 1.315 . S
Cd1 O0 2.223 . S
Cd1 O4 2.297 . S
Cd1 O5 2.439 . S
Cd1 O11 2.240 . S
Cd2 O3 2.240 . S
Cd2 O10 2.223 . S
Cd2 O12 2.297 . S
Cd2 O13 2.439 . S
O3 Cd2 2.240 . S
O3 C8 1.279 . S
O4 Cd1 2.297 . S
O4 C6 1.247 . S
O5 Cd1 2.439 . S
O5 C6 1.208 . S
C6 O4 1.247 . S
C6 O5 1.208 . S
C7 O12 1.247 . S
C7 O13 1.208 . S
C8 O0 1.315 . S
C8 O3 1.279 . S
C9 O10 1.315 . S
C9 O11 1.279 . S
O10 Cd2 2.223 . S
O10 C9 1.315 . S
O11 Cd1 2.240 . S
O11 C9 1.279 . S
O12 Cd2 2.297 . S
O12 C7 1.247 . S
O13 Cd2 2.439 . S
O13 C7 1.208 . S
O14 Cd15 2.223 . S
O14 C22 1.315 . S
Cd15 O14 2.223 . S
Cd15 O18 2.297 . S
Cd15 O19 2.439 . S
Cd15 O25 2.240 . S
Cd16 O17 2.240 . S
Cd16 O24 2.223 . S
Cd16 O26 2.297 . S
Cd16 O27 2.439 . S
O17 Cd16 2.240 . S
O17 C22 1.279 . S
O18 Cd15 2.297 . S
O18 C20 1.247 . S
O19 Cd15 2.439 . S
O19 C20 1.208 . S
C20 O18 1.247 . S
C20 O19 1.208 . S
C21 O26 1.247 . S
C21 O27 1.208 . S
C22 O14 1.315 . S
C22 O17 1.279 . S
C23 O24 1.315 . S
C23 O25 1.279 . S
O24 Cd16 2.223 . S
O24 C23 1.315 . S
O25 Cd15 2.240 . S
O25 C23 1.279 . S
O26 Cd16 2.297 . S
O26 C21 1.247 . S
O27 Cd16 2.439 . S
O27 C21 1.208 . S
O28 Cd29 2.223 . S
O28 C36 1.315 . S
Cd29 O28 2.223 . S
Cd29 O32 2.297 . S
Cd29 O33 2.439 . S
Cd29 O39 2.240 . S
Cd30 O31 2.240 . S
Cd30 O38 2.223 . S
Cd30 O40 2.297 . S
Cd30 O41 2.439 . S
O31 Cd30 2.240 . S
O31 C36 1.279 . S
O32 Cd29 2.297 . S
O32 C34 1.247 . S
O33 Cd29 2.439 . S
O33 C34 1.208 . S
C34 O32 1.247 . S
C34 O33 1.208 . S
C35 O40 1.247 . S
C35 O41 1.208 . S
C36 O28 1.315 . S
C36 O31 1.279 . S
C37 O38 1.315 . S
C37 O39 1.279 . S
O38 Cd30 2.223 . S
O38 C37 1.315 . S
O39 Cd29 2.240 . S
O39 C37 1.279 . S
O40 Cd30 2.297 . S
O40 C35 1.247 . S
O41 Cd30 2.439 . S
O41 C35 1.208 . S
O42 Cd43 2.223 . S
O42 C50 1.315 . S
Cd43 O42 2.223 . S
Cd43 O46 2.297 . S
Cd43 O47 2.439 . S
Cd43 O53 2.240 . S
Cd44 O45 2.240 . S
Cd44 O52 2.223 . S
Cd44 O54 2.297 . S
Cd44 O55 2.439 . S
O45 Cd44 2.240 . S
O45 C50 1.279 . S
O46 Cd43 2.297 . S
O46 C48 1.247 . S
O47 Cd43 2.439 . S
O47 C48 1.208 . S
C48 O46 1.247 . S
C48 O47 1.208 . S
C49 O54 1.247 . S
C49 O55 1.208 . S
C50 O42 1.315 . S
C50 O45 1.279 . S
C51 O52 1.315 . S
C51 O53 1.279 . S
O52 Cd44 2.223 . S
O52 C51 1.315 . S
O53 Cd43 2.240 . S
O53 C51 1.279 . S
O54 Cd44 2.297 . S
O54 C49 1.247 . S
O55 Cd44 2.439 . S
O55 C49 1.208 . S
O56 Cd57 2.223 . S
O56 C64 1.315 . S
Cd57 O56 2.223 . S
Cd57 O60 2.297 . S
Cd57 O61 2.439 . S
Cd57 O67 2.240 . S
Cd58 O59 2.240 . S
Cd58 O66 2.223 . S
Cd58 O68 2.297 . S
Cd58 O69 2.439 . S
O59 Cd58 2.240 . S
O59 C64 1.279 . S
O60 Cd57 2.297 . S
O60 C62 1.247 . S
O61 Cd57 2.439 . S
O61 C62 1.208 . S
C62 O60 1.247 . S
C62 O61 1.208 . S
C63 O68 1.247 . S
C63 O69 1.208 . S
C64 O56 1.315 . S
C64 O59 1.279 . S
C65 O66 1.315 . S
C65 O67 1.279 . S
O66 Cd58 2.223 . S
O66 C65 1.315 . S
O67 Cd57 2.240 . S
O67 C65 1.279 . S
O68 Cd58 2.297 . S
O68 C63 1.247 . S
O69 Cd58 2.439 . S
O69 C63 1.208 . S
O70 Cd71 2.223 . S
O70 C78 1.315 . S
Cd71 O70 2.223 . S
Cd71 O74 2.297 . S
Cd71 O75 2.439 . S
Cd71 O81 2.240 . S
Cd72 O73 2.240 . S
Cd72 O80 2.223 . S
Cd72 O82 2.297 . S
Cd72 O83 2.439 . S
O73 Cd72 2.240 . S
O73 C78 1.279 . S
O74 Cd71 2.297 . S
O74 C76 1.247 . S
O75 Cd71 2.439 . S
O75 C76 1.208 . S
C76 O74 1.247 . S
C76 O75 1.208 . S
C77 O82 1.247 . S
C77 O83 1.208 . S
C78 O70 1.315 . S
C78 O73 1.279 . S
C79 O80 1.315 . S
C79 O81 1.279 . S
O80 Cd72 2.223 . S
O80 C79 1.315 . S
O81 Cd71 2.240 . S
O81 C79 1.279 . S
O82 Cd72 2.297 . S
O82 C77 1.247 . S
O83 Cd72 2.439 . S
O83 C77 1.208 . S
O84 Cd85 2.223 . S
O84 C92 1.315 . S
Cd85 O84 2.223 . S
Cd85 O88 2.297 . S
Cd85 O89 2.439 . S
Cd85 O95 2.240 . S
Cd86 O87 2.240 . S
Cd86 O94 2.223 . S
Cd86 O96 2.297 . S
Cd86 O97 2.439 . S
O87 Cd86 2.240 . S
O87 C92 1.279 . S
O88 Cd85 2.297 . S
O88 C90 1.247 . S
O89 Cd85 2.439 . S
O89 C90 1.208 . S
C90 O88 1.247 . S
C90 O89 1.208 . S
C91 O96 1.247 . S
C91 O97 1.208 . S
C92 O84 1.315 . S
C92 O87 1.279 . S
C93 O94 1.315 . S
C93 O95 1.279 . S
O94 Cd86 2.223 . S
O94 C93 1.315 . S
O95 Cd85 2.240 . S
O95 C93 1.279 . S
O96 Cd86 2.297 . S
O96 C91 1.247 . S
O97 Cd86 2.439 . S
O97 C91 1.208 . S
O98 Cd99 2.223 . S
O98 C106 1.315 . S
Cd99 O98 2.223 . S
Cd99 O102 2.297 . S
Cd99 O103 2.439 . S
Cd99 O109 2.240 . S
Cd100 O101 2.240 . S
Cd100 O108 2.223 . S
Cd100 O110 2.297 . S
Cd100 O111 2.439 . S
O101 Cd100 2.240 . S
O101 C106 1.279 . S
O102 Cd99 2.297 . S
O102 C104 1.247 . S
O103 Cd99 2.439 . S
O103 C104 1.208 . S
C104 O102 1.247 . S
C104 O103 1.208 . S
C105 O110 1.247 . S
C105 O111 1.208 . S
C106 O98 1.315 . S
C106 O101 1.279 . S
C107 O108 1.315 . S
C107 O109 1.279 . S
O108 Cd100 2.223 . S
O108 C107 1.315 . S
O109 Cd99 2.240 . S
O109 C107 1.279 . S
O110 Cd100 2.297 . S
O110 C105 1.247 . S
O111 Cd100 2.439 . S
O111 C105 1.208 . S
O112 Cd113 2.223 . S
O112 C120 1.315 . S
Cd113 O112 2.223 . S
Cd113 O116 2.297 . S
Cd113 O117 2.439 . S
Cd113 O123 2.240 . S
Cd114 O115 2.240 . S
Cd114 O122 2.223 . S
Cd114 O124 2.297 . S
Cd114 O125 2.439 . S
O115 Cd114 2.240 . S
O115 C120 1.279 . S
O116 Cd113 2.297 . S
O116 C118 1.247 . S
O117 Cd113 2.439 . S
O117 C118 1.208 . S
C118 O116 1.247 . S
C118 O117 1.208 . S
C119 O124 1.247 . S
C119 O125 1.208 . S
C120 O112 1.315 . S
C120 O115 1.279 . S
C121 O122 1.315 . S
C121 O123 1.279 . S
O122 Cd114 2.223 . S
O122 C121 1.315 . S
O123 Cd113 2.240 . S
O123 C121 1.279 . S
O124 Cd114 2.297 . S
O124 C119 1.247 . S
O125 Cd114 2.439 . S
O125 C119 1.208 . S
O126 Cd127 2.223 . S
O126 C134 1.315 . S
Cd127 O126 2.223 . S
Cd127 O130 2.297 . S
Cd127 O131 2.439 . S
Cd127 O137 2.240 . S
Cd128 O129 2.240 . S
Cd128 O136 2.223 . S
Cd128 O138 2.297 . S
Cd128 O139 2.439 . S
O129 Cd128 2.240 . S
O129 C134 1.279 . S
O130 Cd127 2.297 . S
O130 C132 1.247 . S
O131 Cd127 2.439 . S
O131 C132 1.208 . S
C132 O130 1.247 . S
C132 O131 1.208 . S
C133 O138 1.247 . S
C133 O139 1.208 . S
C134 O126 1.315 . S
C134 O129 1.279 . S
C135 O136 1.315 . S
C135 O137 1.279 . S
O136 Cd128 2.223 . S
O136 C135 1.315 . S
O137 Cd127 2.240 . S
O137 C135 1.279 . S
O138 Cd128 2.297 . S
O138 C133 1.247 . S
O139 Cd128 2.439 . S
O139 C133 1.208 . S
O140 Cd141 2.223 . S
O140 C148 1.315 . S
Cd141 O140 2.223 . S
Cd141 O144 2.297 . S
Cd141 O145 2.439 . S
Cd141 O151 2.240 . S
Cd142 O143 2.240 . S
Cd142 O150 2.223 . S
Cd142 O152 2.297 . S
Cd142 O153 2.439 . S
O143 Cd142 2.240 . S
O143 C148 1.279 . S
O144 Cd141 2.297 . S
O144 C146 1.247 . S
O145 Cd141 2.439 . S
O145 C146 1.208 . S
C146 O144 1.247 . S
C146 O145 1.208 . S
C147 O152 1.247 . S
C147 O153 1.208 . S
C148 O140 1.315 . S
C148 O143 1.279 . S
C149 O150 1.315 . S
C149 O151 1.279 . S
O150 Cd142 2.223 . S
O150 C149 1.315 . S
O151 Cd141 2.240 . S
O151 C149 1.279 . S
O152 Cd142 2.297 . S
O152 C147 1.247 . S
O153 Cd142 2.439 . S
O153 C147 1.208 . S
O154 Cd155 2.223 . S
O154 C162 1.315 . S
Cd155 O154 2.223 . S
Cd155 O158 2.297 . S
Cd155 O159 2.439 . S
Cd155 O165 2.240 . S
Cd156 O157 2.240 . S
Cd156 O164 2.223 . S
Cd156 O166 2.297 . S
Cd156 O167 2.439 . S
O157 Cd156 2.240 . S
O157 C162 1.279 . S
O158 Cd155 2.297 . S
O158 C160 1.247 . S
O159 Cd155 2.439 . S
O159 C160 1.208 . S
C160 O158 1.247 . S
C160 O159 1.208 . S
C161 O166 1.247 . S
C161 O167 1.208 . S
C162 O154 1.315 . S
C162 O157 1.279 . S
C163 O164 1.315 . S
C163 O165 1.279 . S
O164 Cd156 2.223 . S
O164 C163 1.315 . S
O165 Cd155 2.240 . S
O165 C163 1.279 . S
O166 Cd156 2.297 . S
O166 C161 1.247 . S
O167 Cd156 2.439 . S
O167 C161 1.208 . S
O168 Cd169 2.223 . S
O168 C176 1.315 . S
Cd169 O168 2.223 . S
Cd169 O172 2.297 . S
Cd169 O173 2.439 . S
Cd169 O179 2.240 . S
Cd170 O171 2.240 . S
Cd170 O178 2.223 . S
Cd170 O180 2.297 . S
Cd170 O181 2.439 . S
O171 Cd170 2.240 . S
O171 C176 1.279 . S
O172 Cd169 2.297 . S
O172 C174 1.247 . S
O173 Cd169 2.439 . S
O173 C174 1.208 . S
C174 O172 1.247 . S
C174 O173 1.208 . S
C175 O180 1.247 . S
C175 O181 1.208 . S
C176 O168 1.315 . S
C176 O171 1.279 . S
C177 O178 1.315 . S
C177 O179 1.279 . S
O178 Cd170 2.223 . S
O178 C177 1.315 . S
O179 Cd169 2.240 . S
O179 C177 1.279 . S
O180 Cd170 2.297 . S
O180 C175 1.247 . S
O181 Cd170 2.439 . S
O181 C175 1.208 . S
O182 Cd183 2.223 . S
O182 C190 1.315 . S
Cd183 O182 2.223 . S
Cd183 O186 2.297 . S
Cd183 O187 2.439 . S
Cd183 O193 2.240 . S
Cd184 O185 2.240 . S
Cd184 O192 2.223 . S
Cd184 O194 2.297 . S
Cd184 O195 2.439 . S
O185 Cd184 2.240 . S
O185 C190 1.279 . S
O186 Cd183 2.297 . S
O186 C188 1.247 . S
O187 Cd183 2.439 . S
O187 C188 1.208 . S
C188 O186 1.247 . S
C188 O187 1.208 . S
C189 O194 1.247 . S
C189 O195 1.208 . S
C190 O182 1.315 . S
C190 O185 1.279 . S
C191 O192 1.315 . S
C191 O193 1.279 . S
O192 Cd184 2.223 . S
O192 C191 1.315 . S
O193 Cd183 2.240 . S
O193 C191 1.279 . S
O194 Cd184 2.297 . S
O194 C189 1.247 . S
O195 Cd184 2.439 . S
O195 C189 1.208 . S
O196 Cd197 2.223 . S
O196 C204 1.315 . S
Cd197 O196 2.223 . S
Cd197 O200 2.297 . S
Cd197 O201 2.439 . S
Cd197 O207 2.240 . S
Cd198 O199 2.240 . S
Cd198 O206 2.223 . S
Cd198 O208 2.297 . S
Cd198 O209 2.439 . S
O199 Cd198 2.240 . S
O199 C204 1.279 . S
O200 Cd197 2.297 . S
O200 C202 1.247 . S
O201 Cd197 2.439 . S
O201 C202 1.208 . S
C202 O200 1.247 . S
C202 O201 1.208 . S
C203 O208 1.247 . S
C203 O209 1.208 . S
C204 O196 1.315 . S
C204 O199 1.279 . S
C205 O206 1.315 . S
C205 O207 1.279 . S
O206 Cd198 2.223 . S
O206 C205 1.315 . S
O207 Cd197 2.240 . S
O207 C205 1.279 . S
O208 Cd198 2.297 . S
O208 C203 1.247 . S
O209 Cd198 2.439 . S
O209 C203 1.208 . S
O210 Cd211 2.223 . S
O210 C218 1.315 . S
Cd211 O210 2.223 . S
Cd211 O214 2.297 . S
Cd211 O215 2.439 . S
Cd211 O221 2.240 . S
Cd212 O213 2.240 . S
Cd212 O220 2.223 . S
Cd212 O222 2.297 . S
Cd212 O223 2.439 . S
O213 Cd212 2.240 . S
O213 C218 1.279 . S
O214 Cd211 2.297 . S
O214 C216 1.247 . S
O215 Cd211 2.439 . S
O215 C216 1.208 . S
C216 O214 1.247 . S
C216 O215 1.208 . S
C217 O222 1.247 . S
C217 O223 1.208 . S
C218 O210 1.315 . S
C218 O213 1.279 . S
C219 O220 1.315 . S
C219 O221 1.279 . S
O220 Cd212 2.223 . S
O220 C219 1.315 . S
O221 Cd211 2.240 . S
O221 C219 1.279 . S
O222 Cd212 2.297 . S
O222 C217 1.247 . S
O223 Cd212 2.439 . S
O223 C217 1.208 . S
O224 Cd225 2.223 . S
O224 C232 1.315 . S
Cd225 O224 2.223 . S
Cd225 O228 2.297 . S
Cd225 O229 2.439 . S
Cd225 O235 2.240 . S
Cd226 O227 2.240 . S
Cd226 O234 2.223 . S
Cd226 O236 2.297 . S
Cd226 O237 2.439 . S
O227 Cd226 2.240 . S
O227 C232 1.279 . S
O228 Cd225 2.297 . S
O228 C230 1.247 . S
O229 Cd225 2.439 . S
O229 C230 1.208 . S
C230 O228 1.247 . S
C230 O229 1.208 . S
C231 O236 1.247 . S
C231 O237 1.208 . S
C232 O224 1.315 . S
C232 O227 1.279 . S
C233 O234 1.315 . S
C233 O235 1.279 . S
O234 Cd226 2.223 . S
O234 C233 1.315 . S
O235 Cd225 2.240 . S
O235 C233 1.279 . S
O236 Cd226 2.297 . S
O236 C231 1.247 . S
O237 Cd226 2.439 . S
O237 C231 1.208 . S
O238 Cd239 2.223 . S
O238 C246 1.315 . S
Cd239 O238 2.223 . S
Cd239 O242 2.297 . S
Cd239 O243 2.439 . S
Cd239 O249 2.240 . S
Cd240 O241 2.240 . S
Cd240 O248 2.223 . S
Cd240 O250 2.297 . S
Cd240 O251 2.439 . S
O241 Cd240 2.240 . S
O241 C246 1.279 . S
O242 Cd239 2.297 . S
O242 C244 1.247 . S
O243 Cd239 2.439 . S
O243 C244 1.208 . S
C244 O242 1.247 . S
C244 O243 1.208 . S
C245 O250 1.247 . S
C245 O251 1.208 . S
C246 O238 1.315 . S
C246 O241 1.279 . S
C247 O248 1.315 . S
C247 O249 1.279 . S
O248 Cd240 2.223 . S
O248 C247 1.315 . S
O249 Cd239 2.240 . S
O249 C247 1.279 . S
O250 Cd240 2.297 . S
O250 C245 1.247 . S
O251 Cd240 2.439 . S
O251 C245 1.208 . S
O252 Cd253 2.223 . S
O252 C260 1.315 . S
Cd253 O252 2.223 . S
Cd253 O256 2.297 . S
Cd253 O257 2.439 . S
Cd253 O263 2.240 . S
Cd254 O255 2.240 . S
Cd254 O262 2.223 . S
Cd254 O264 2.297 . S
Cd254 O265 2.439 . S
O255 Cd254 2.240 . S
O255 C260 1.279 . S
O256 Cd253 2.297 . S
O256 C258 1.247 . S
O257 Cd253 2.439 . S
O257 C258 1.208 . S
C258 O256 1.247 . S
C258 O257 1.208 . S
C259 O264 1.247 . S
C259 O265 1.208 . S
C260 O252 1.315 . S
C260 O255 1.279 . S
C261 O262 1.315 . S
C261 O263 1.279 . S
O262 Cd254 2.223 . S
O262 C261 1.315 . S
O263 Cd253 2.240 . S
O263 C261 1.279 . S
O264 Cd254 2.297 . S
O264 C259 1.247 . S
O265 Cd254 2.439 . S
O265 C259 1.208 . S
O266 Cd267 2.223 . S
O266 C274 1.315 . S
Cd267 O266 2.223 . S
Cd267 O270 2.297 . S
Cd267 O271 2.439 . S
Cd267 O277 2.240 . S
Cd268 O269 2.240 . S
Cd268 O276 2.223 . S
Cd268 O278 2.297 . S
Cd268 O279 2.439 . S
O269 Cd268 2.240 . S
O269 C274 1.279 . S
O270 Cd267 2.297 . S
O270 C272 1.247 . S
O271 Cd267 2.439 . S
O271 C272 1.208 . S
C272 O270 1.247 . S
C272 O271 1.208 . S
C273 O278 1.247 . S
C273 O279 1.208 . S
C274 O266 1.315 . S
C274 O269 1.279 . S
C275 O276 1.315 . S
C275 O277 1.279 . S
O276 Cd268 2.223 . S
O276 C275 1.315 . S
O277 Cd267 2.240 . S
O277 C275 1.279 . S
O278 Cd268 2.297 . S
O278 C273 1.247 . S
O279 Cd268 2.439 . S
O279 C273 1.208 . S
O280 Cd281 2.223 . S
O280 C288 1.315 . S
Cd281 O280 2.223 . S
Cd281 O284 2.297 . S
Cd281 O285 2.439 . S
Cd281 O291 2.240 . S
Cd282 O283 2.240 . S
Cd282 O290 2.223 . S
Cd282 O292 2.297 . S
Cd282 O293 2.439 . S
O283 Cd282 2.240 . S
O283 C288 1.279 . S
O284 Cd281 2.297 . S
O284 C286 1.247 . S
O285 Cd281 2.439 . S
O285 C286 1.208 . S
C286 O284 1.247 . S
C286 O285 1.208 . S
C287 O292 1.247 . S
C287 O293 1.208 . S
C288 O280 1.315 . S
C288 O283 1.279 . S
C289 O290 1.315 . S
C289 O291 1.279 . S
O290 Cd282 2.223 . S
O290 C289 1.315 . S
O291 Cd281 2.240 . S
O291 C289 1.279 . S
O292 Cd282 2.297 . S
O292 C287 1.247 . S
O293 Cd282 2.439 . S
O293 C287 1.208 . S
O294 Cd295 2.223 . S
O294 C302 1.315 . S
Cd295 O294 2.223 . S
Cd295 O298 2.297 . S
Cd295 O299 2.439 . S
Cd295 O305 2.240 . S
Cd296 O297 2.240 . S
Cd296 O304 2.223 . S
Cd296 O306 2.297 . S
Cd296 O307 2.439 . S
O297 Cd296 2.240 . S
O297 C302 1.279 . S
O298 Cd295 2.297 . S
O298 C300 1.247 . S
O299 Cd295 2.439 . S
O299 C300 1.208 . S
C300 O298 1.247 . S
C300 O299 1.208 . S
C301 O306 1.247 . S
C301 O307 1.208 . S
C302 O294 1.315 . S
C302 O297 1.279 . S
C303 O304 1.315 . S
C303 O305 1.279 . S
O304 Cd296 2.223 . S
O304 C303 1.315 . S
O305 Cd295 2.240 . S
O305 C303 1.279 . S
O306 Cd296 2.297 . S
O306 C301 1.247 . S
O307 Cd296 2.439 . S
O307 C301 1.208 . S
O308 Cd309 2.223 . S
O308 C316 1.315 . S
Cd309 O308 2.223 . S
Cd309 O312 2.297 . S
Cd309 O313 2.439 . S
Cd309 O319 2.240 . S
Cd310 O311 2.240 . S
Cd310 O318 2.223 . S
Cd310 O320 2.297 . S
Cd310 O321 2.439 . S
O311 Cd310 2.240 . S
O311 C316 1.279 . S
O312 Cd309 2.297 . S
O312 C314 1.247 . S
O313 Cd309 2.439 . S
O313 C314 1.208 . S
C314 O312 1.247 . S
C314 O313 1.208 . S
C315 O320 1.247 . S
C315 O321 1.208 . S
C316 O308 1.315 . S
C316 O311 1.279 . S
C317 O318 1.315 . S
C317 O319 1.279 . S
O318 Cd310 2.223 . S
O318 C317 1.315 . S
O319 Cd309 2.240 . S
O319 C317 1.279 . S
O320 Cd310 2.297 . S
O320 C315 1.247 . S
O321 Cd310 2.439 . S
O321 C315 1.208 . S
O322 Cd323 2.223 . S
O322 C330 1.315 . S
Cd323 O322 2.223 . S
Cd323 O326 2.297 . S
Cd323 O327 2.439 . S
Cd323 O333 2.240 . S
Cd324 O325 2.240 . S
Cd324 O332 2.223 . S
Cd324 O334 2.297 . S
Cd324 O335 2.439 . S
O325 Cd324 2.240 . S
O325 C330 1.279 . S
O326 Cd323 2.297 . S
O326 C328 1.247 . S
O327 Cd323 2.439 . S
O327 C328 1.208 . S
C328 O326 1.247 . S
C328 O327 1.208 . S
C329 O334 1.247 . S
C329 O335 1.208 . S
C330 O322 1.315 . S
C330 O325 1.279 . S
C331 O332 1.315 . S
C331 O333 1.279 . S
O332 Cd324 2.223 . S
O332 C331 1.315 . S
O333 Cd323 2.240 . S
O333 C331 1.279 . S
O334 Cd324 2.297 . S
O334 C329 1.247 . S
O335 Cd324 2.439 . S
O335 C329 1.208 . S
O336 Cd337 2.223 . S
O336 C344 1.315 . S
Cd337 O336 2.223 . S
Cd337 O340 2.297 . S
Cd337 O341 2.439 . S
Cd337 O347 2.240 . S
Cd338 O339 2.240 . S
Cd338 O346 2.223 . S
Cd338 O348 2.297 . S
Cd338 O349 2.439 . S
O339 Cd338 2.240 . S
O339 C344 1.279 . S
O340 Cd337 2.297 . S
O340 C342 1.247 . S
O341 Cd337 2.439 . S
O341 C342 1.208 . S
C342 O340 1.247 . S
C342 O341 1.208 . S
C343 O348 1.247 . S
C343 O349 1.208 . S
C344 O336 1.315 . S
C344 O339 1.279 . S
C345 O346 1.315 . S
C345 O347 1.279 . S
O346 Cd338 2.223 . S
O346 C345 1.315 . S
O347 Cd337 2.240 . S
O347 C345 1.279 . S
O348 Cd338 2.297 . S
O348 C343 1.247 . S
O349 Cd338 2.439 . S
O349 C343 1.208 . S
O350 Cd351 2.223 . S
O350 C358 1.315 . S
Cd351 O350 2.223 . S
Cd351 O354 2.297 . S
Cd351 O355 2.439 . S
Cd351 O361 2.240 . S
Cd352 O353 2.240 . S
Cd352 O360 2.223 . S
Cd352 O362 2.297 . S
Cd352 O363 2.439 . S
O353 Cd352 2.240 . S
O353 C358 1.279 . S
O354 Cd351 2.297 . S
O354 C356 1.247 . S
O355 Cd351 2.439 . S
O355 C356 1.208 . S
C356 O354 1.247 . S
C356 O355 1.208 . S
C357 O362 1.247 . S
C357 O363 1.208 . S
C358 O350 1.315 . S
C358 O353 1.279 . S
C359 O360 1.315 . S
C359 O361 1.279 . S
O360 Cd352 2.223 . S
O360 C359 1.315 . S
O361 Cd351 2.240 . S
O361 C359 1.279 . S
O362 Cd352 2.297 . S
O362 C357 1.247 . S
O363 Cd352 2.439 . S
O363 C357 1.208 . S
O364 Cd365 2.223 . S
O364 C372 1.315 . S
Cd365 O364 2.223 . S
Cd365 O368 2.297 . S
Cd365 O369 2.439 . S
Cd365 O375 2.240 . S
Cd366 O367 2.240 . S
Cd366 O374 2.223 . S
Cd366 O376 2.297 . S
Cd366 O377 2.439 . S
O367 Cd366 2.240 . S
O367 C372 1.279 . S
O368 Cd365 2.297 . S
O368 C370 1.247 . S
O369 Cd365 2.439 . S
O369 C370 1.208 . S
C370 O368 1.247 . S
C370 O369 1.208 . S
C371 O376 1.247 . S
C371 O377 1.208 . S
C372 O364 1.315 . S
C372 O367 1.279 . S
C373 O374 1.315 . S
C373 O375 1.279 . S
O374 Cd366 2.223 . S
O374 C373 1.315 . S
O375 Cd365 2.240 . S
O375 C373 1.279 . S
O376 Cd366 2.297 . S
O376 C371 1.247 . S
O377 Cd366 2.439 . S
O377 C371 1.208 . S
O378 Cd379 2.223 . S
O378 C386 1.315 . S
Cd379 O378 2.223 . S
Cd379 O382 2.297 . S
Cd379 O383 2.439 . S
Cd379 O389 2.240 . S
Cd380 O381 2.240 . S
Cd380 O388 2.223 . S
Cd380 O390 2.297 . S
Cd380 O391 2.439 . S
O381 Cd380 2.240 . S
O381 C386 1.279 . S
O382 Cd379 2.297 . S
O382 C384 1.247 . S
O383 Cd379 2.439 . S
O383 C384 1.208 . S
C384 O382 1.247 . S
C384 O383 1.208 . S
C385 O390 1.247 . S
C385 O391 1.208 . S
C386 O378 1.315 . S
C386 O381 1.279 . S
C387 O388 1.315 . S
C387 O389 1.279 . S
O388 Cd380 2.223 . S
O388 C387 1.315 . S
O389 Cd379 2.240 . S
O389 C387 1.279 . S
O390 Cd380 2.297 . S
O390 C385 1.247 . S
O391 Cd380 2.439 . S
O391 C385 1.208 . S
O392 Cd393 2.223 . S
O392 C400 1.315 . S
Cd393 O392 2.223 . S
Cd393 O396 2.297 . S
Cd393 O397 2.439 . S
Cd393 O403 2.240 . S
Cd394 O395 2.240 . S
Cd394 O402 2.223 . S
Cd394 O404 2.297 . S
Cd394 O405 2.439 . S
O395 Cd394 2.240 . S
O395 C400 1.279 . S
O396 Cd393 2.297 . S
O396 C398 1.247 . S
O397 Cd393 2.439 . S
O397 C398 1.208 . S
C398 O396 1.247 . S
C398 O397 1.208 . S
C399 O404 1.247 . S
C399 O405 1.208 . S
C400 O392 1.315 . S
C400 O395 1.279 . S
C401 O402 1.315 . S
C401 O403 1.279 . S
O402 Cd394 2.223 . S
O402 C401 1.315 . S
O403 Cd393 2.240 . S
O403 C401 1.279 . S
O404 Cd394 2.297 . S
O404 C399 1.247 . S
O405 Cd394 2.439 . S
O405 C399 1.208 . S
O406 Cd407 2.223 . S
O406 C414 1.315 . S
Cd407 O406 2.223 . S
Cd407 O410 2.297 . S
Cd407 O411 2.439 . S
Cd407 O417 2.240 . S
Cd408 O409 2.240 . S
Cd408 O416 2.223 . S
Cd408 O418 2.297 . S
Cd408 O419 2.439 . S
O409 Cd408 2.240 . S
O409 C414 1.279 . S
O410 Cd407 2.297 . S
O410 C412 1.247 . S
O411 Cd407 2.439 . S
O411 C412 1.208 . S
C412 O410 1.247 . S
C412 O411 1.208 . S
C413 O418 1.247 . S
C413 O419 1.208 . S
C414 O406 1.315 . S
C414 O409 1.279 . S
C415 O416 1.315 . S
C415 O417 1.279 . S
O416 Cd408 2.223 . S
O416 C415 1.315 . S
O417 Cd407 2.240 . S
O417 C415 1.279 . S
O418 Cd408 2.297 . S
O418 C413 1.247 . S
O419 Cd408 2.439 . S
O419 C413 1.208 . S
O420 Cd421 2.223 . S
O420 C428 1.315 . S
Cd421 O420 2.223 . S
Cd421 O424 2.297 . S
Cd421 O425 2.439 . S
Cd421 O431 2.240 . S
Cd422 O423 2.240 . S
Cd422 O430 2.223 . S
Cd422 O432 2.297 . S
Cd422 O433 2.439 . S
O423 Cd422 2.240 . S
O423 C428 1.279 . S
O424 Cd421 2.297 . S
O424 C426 1.247 . S
O425 Cd421 2.439 . S
O425 C426 1.208 . S
C426 O424 1.247 . S
C426 O425 1.208 . S
C427 O432 1.247 . S
C427 O433 1.208 . S
C428 O420 1.315 . S
C428 O423 1.279 . S
C429 O430 1.315 . S
C429 O431 1.279 . S
O430 Cd422 2.223 . S
O430 C429 1.315 . S
O431 Cd421 2.240 . S
O431 C429 1.279 . S
O432 Cd422 2.297 . S
O432 C427 1.247 . S
O433 Cd422 2.439 . S
O433 C427 1.208 . S
O434 Cd435 2.223 . S
O434 C442 1.315 . S
Cd435 O434 2.223 . S
Cd435 O438 2.297 . S
Cd435 O439 2.439 . S
Cd435 O445 2.240 . S
Cd436 O437 2.240 . S
Cd436 O444 2.223 . S
Cd436 O446 2.297 . S
Cd436 O447 2.439 . S
O437 Cd436 2.240 . S
O437 C442 1.279 . S
O438 Cd435 2.297 . S
O438 C440 1.247 . S
O439 Cd435 2.439 . S
O439 C440 1.208 . S
C440 O438 1.247 . S
C440 O439 1.208 . S
C441 O446 1.247 . S
C441 O447 1.208 . S
C442 O434 1.315 . S
C442 O437 1.279 . S
C443 O444 1.315 . S
C443 O445 1.279 . S
O444 Cd436 2.223 . S
O444 C443 1.315 . S
O445 Cd435 2.240 . S
O445 C443 1.279 . S
O446 Cd436 2.297 . S
O446 C441 1.247 . S
O447 Cd436 2.439 . S
O447 C441 1.208 . S
H448 C456 0.929 . S
H449 C458 0.930 . S
H450 C460 0.930 . S
H451 C463 0.929 . S
H452 C466 0.930 . S
H453 C468 0.960 . S
H454 C468 0.960 . S
H455 C468 0.960 . S
C456 H448 0.929 . S
C456 C457 1.377 . S
C456 C458 1.384 . S
C457 C456 1.377 . S
C457 C463 1.390 . S
C458 H449 0.930 . S
C458 C456 1.384 . S
C458 C459 1.372 . S
C459 C458 1.372 . S
C459 C460 1.400 . S
C459 C464 1.490 . S
C460 H450 0.930 . S
C460 C459 1.400 . S
C460 C463 1.386 . S
H461 C477 0.930 . S
H462 C478 0.931 . S
C463 H451 0.929 . S
C463 C457 1.390 . S
C463 C460 1.386 . S
C464 C459 1.490 . S
C464 C466 1.395 . S
C464 C467 1.403 . S
H465 C471 0.930 . S
C466 H452 0.930 . S
C466 C464 1.395 . S
C466 C469 1.403 . S
C467 C464 1.403 . S
C467 C468 1.524 . S
C467 C471 1.400 . S
C468 H453 0.960 . S
C468 H454 0.960 . S
C468 H455 0.960 . S
C468 C467 1.524 . S
C469 C466 1.403 . S
C469 C470 1.392 . S
C469 C473 1.495 . S
C470 C469 1.392 . S
C470 C471 1.385 . S
C470 C472 1.478 . S
C471 H465 0.930 . S
C471 C467 1.400 . S
C471 C470 1.385 . S
C472 C470 1.478 . S
C472 C474 1.381 . S
C472 C478 1.383 . S
C473 C469 1.495 . S
C473 H479 0.959 . S
C473 H480 0.961 . S
C473 H481 0.960 . S
C474 C472 1.381 . S
C474 C475 1.394 . S
C474 H482 0.930 . S
C475 C474 1.394 . S
C475 C476 1.383 . S
C475 H483 0.929 . S
C476 C475 1.383 . S
C476 C477 1.377 . S
C477 H461 0.930 . S
C477 C476 1.377 . S
C477 C478 1.379 . S
C478 H462 0.931 . S
C478 C472 1.383 . S
C478 C477 1.379 . S
H479 C473 0.959 . S
H480 C473 0.961 . S
H481 C473 0.960 . S
H482 C474 0.930 . S
H483 C475 0.929 . S
H484 C492 0.929 . S
H485 C494 0.930 . S
H486 C496 0.930 . S
H487 C499 0.929 . S
H488 C502 0.930 . S
H489 C504 0.960 . S
H490 C504 0.960 . S
H491 C504 0.960 . S
C492 H484 0.929 . S
C492 C493 1.377 . S
C492 C494 1.384 . S
C493 C492 1.377 . S
C493 C499 1.390 . S
C494 H485 0.930 . S
C494 C492 1.384 . S
C494 C495 1.372 . S
C495 C494 1.372 . S
C495 C496 1.400 . S
C495 C500 1.490 . S
C496 H486 0.930 . S
C496 C495 1.400 . S
C496 C499 1.386 . S
H497 C513 0.930 . S
H498 C514 0.931 . S
C499 H487 0.929 . S
C499 C493 1.390 . S
C499 C496 1.386 . S
C500 C495 1.490 . S
C500 C502 1.395 . S
C500 C503 1.403 . S
H501 C507 0.930 . S
C502 H488 0.930 . S
C502 C500 1.395 . S
C502 C505 1.403 . S
C503 C500 1.403 . S
C503 C504 1.524 . S
C503 C507 1.400 . S
C504 H489 0.960 . S
C504 H490 0.960 . S
C504 H491 0.960 . S
C504 C503 1.524 . S
C505 C502 1.403 . S
C505 C506 1.392 . S
C505 C509 1.495 . S
C506 C505 1.392 . S
C506 C507 1.385 . S
C506 C508 1.478 . S
C507 H501 0.930 . S
C507 C503 1.400 . S
C507 C506 1.385 . S
C508 C506 1.478 . S
C508 C510 1.381 . S
C508 C514 1.383 . S
C509 C505 1.495 . S
C509 H515 0.959 . S
C509 H516 0.961 . S
C509 H517 0.960 . S
C510 C508 1.381 . S
C510 C511 1.394 . S
C510 H518 0.930 . S
C511 C510 1.394 . S
C511 C512 1.383 . S
C511 H519 0.929 . S
C512 C511 1.383 . S
C512 C513 1.377 . S
C513 H497 0.930 . S
C513 C512 1.377 . S
C513 C514 1.379 . S
C514 H498 0.931 . S
C514 C508 1.383 . S
C514 C513 1.379 . S
H515 C509 0.959 . S
H516 C509 0.961 . S
H517 C509 0.960 . S
H518 C510 0.930 . S
H519 C511 0.929 . S
H520 C528 0.929 . S
H521 C530 0.930 . S
H522 C532 0.930 . S
H523 C535 0.929 . S
H524 C538 0.930 . S
H525 C540 0.960 . S
H526 C540 0.960 . S
H527 C540 0.960 . S
C528 H520 0.929 . S
C528 C529 1.377 . S
C528 C530 1.384 . S
C529 C528 1.377 . S
C529 C535 1.390 . S
C530 H521 0.930 . S
C530 C528 1.384 . S
C530 C531 1.372 . S
C531 C530 1.372 . S
C531 C532 1.400 . S
C531 C536 1.490 . S
C532 H522 0.930 . S
C532 C531 1.400 . S
C532 C535 1.386 . S
H533 C549 0.930 . S
H534 C550 0.931 . S
C535 H523 0.929 . S
C535 C529 1.390 . S
C535 C532 1.386 . S
C536 C531 1.490 . S
C536 C538 1.395 . S
C536 C539 1.403 . S
H537 C543 0.930 . S
C538 H524 0.930 . S
C538 C536 1.395 . S
C538 C541 1.403 . S
C539 C536 1.403 . S
C539 C540 1.524 . S
C539 C543 1.400 . S
C540 H525 0.960 . S
C540 H526 0.960 . S
C540 H527 0.960 . S
C540 C539 1.524 . S
C541 C538 1.403 . S
C541 C542 1.392 . S
C541 C545 1.495 . S
C542 C541 1.392 . S
C542 C543 1.385 . S
C542 C544 1.478 . S
C543 H537 0.930 . S
C543 C539 1.400 . S
C543 C542 1.385 . S
C544 C542 1.478 . S
C544 C546 1.381 . S
C544 C550 1.383 . S
C545 C541 1.495 . S
C545 H551 0.959 . S
C545 H552 0.961 . S
C545 H553 0.960 . S
C546 C544 1.381 . S
C546 C547 1.394 . S
C546 H554 0.930 . S
C547 C546 1.394 . S
C547 C548 1.383 . S
C547 H555 0.929 . S
C548 C547 1.383 . S
C548 C549 1.377 . S
C549 H533 0.930 . S
C549 C548 1.377 . S
C549 C550 1.379 . S
C550 H534 0.931 . S
C550 C544 1.383 . S
C550 C549 1.379 . S
H551 C545 0.959 . S
H552 C545 0.961 . S
H553 C545 0.960 . S
H554 C546 0.930 . S
H555 C547 0.929 . S
H556 C564 0.929 . S
H557 C566 0.930 . S
H558 C568 0.930 . S
H559 C571 0.929 . S
H560 C574 0.930 . S
H561 C576 0.960 . S
H562 C576 0.960 . S
H563 C576 0.960 . S
C564 H556 0.929 . S
C564 C565 1.377 . S
C564 C566 1.384 . S
C565 C564 1.377 . S
C565 C571 1.390 . S
C566 H557 0.930 . S
C566 C564 1.384 . S
C566 C567 1.372 . S
C567 C566 1.372 . S
C567 C568 1.400 . S
C567 C572 1.490 . S
C568 H558 0.930 . S
C568 C567 1.400 . S
C568 C571 1.386 . S
H569 C585 0.930 . S
H570 C586 0.931 . S
C571 H559 0.929 . S
C571 C565 1.390 . S
C571 C568 1.386 . S
C572 C567 1.490 . S
C572 C574 1.395 . S
C572 C575 1.403 . S
H573 C579 0.930 . S
C574 H560 0.930 . S
C574 C572 1.395 . S
C574 C577 1.403 . S
C575 C572 1.403 . S
C575 C576 1.524 . S
C575 C579 1.400 . S
C576 H561 0.960 . S
C576 H562 0.960 . S
C576 H563 0.960 . S
C576 C575 1.524 . S
C577 C574 1.403 . S
C577 C578 1.392 . S
C577 C581 1.495 . S
C578 C577 1.392 . S
C578 C579 1.385 . S
C578 C580 1.478 . S
C579 H573 0.930 . S
C579 C575 1.400 . S
C579 C578 1.385 . S
C580 C578 1.478 . S
C580 C582 1.381 . S
C580 C586 1.383 . S
C581 C577 1.495 . S
C581 H587 0.959 . S
C581 H588 0.961 . S
C581 H589 0.960 . S
C582 C580 1.381 . S
C582 C583 1.394 . S
C582 H590 0.930 . S
C583 C582 1.394 . S
C583 C584 1.383 . S
C583 H591 0.929 . S
C584 C583 1.383 . S
C584 C585 1.377 . S
C585 H569 0.930 . S
C585 C584 1.377 . S
C585 C586 1.379 . S
C586 H570 0.931 . S
C586 C580 1.383 . S
C586 C585 1.379 . S
H587 C581 0.959 . S
H588 C581 0.961 . S
H589 C581 0.960 . S
H590 C582 0.930 . S
H591 C583 0.929 . S
H592 C600 0.929 . S
H593 C602 0.930 . S
H594 C604 0.930 . S
H595 C607 0.929 . S
H596 C610 0.930 . S
H597 C612 0.960 . S
H598 C612 0.960 . S
H599 C612 0.960 . S
C600 H592 0.929 . S
C600 C601 1.377 . S
C600 C602 1.384 1_565 S
C601 C600 1.377 . S
C601 C607 1.390 . S
C602 H593 0.930 . S
C602 C600 1.384 1_545 S
C602 C603 1.372 . S
C603 C602 1.372 . S
C603 C604 1.400 . S
C603 C608 1.490 . S
C604 H594 0.930 . S
C604 C603 1.400 . S
C604 C607 1.386 1_545 S
H605 C621 0.930 . S
H606 C622 0.931 . S
C607 H595 0.929 . S
C607 C601 1.390 . S
C607 C604 1.386 1_565 S
C608 C603 1.490 . S
C608 C610 1.395 . S
C608 C611 1.403 . S
H609 C615 0.930 . S
C610 H596 0.930 . S
C610 C608 1.395 . S
C610 C613 1.403 . S
C611 C608 1.403 . S
C611 C612 1.524 . S
C611 C615 1.400 . S
C612 H597 0.960 . S
C612 H598 0.960 . S
C612 H599 0.960 . S
C612 C611 1.524 . S
C613 C610 1.403 . S
C613 C614 1.392 . S
C613 C617 1.495 . S
C614 C613 1.392 . S
C614 C615 1.385 . S
C614 C616 1.478 . S
C615 H609 0.930 . S
C615 C611 1.400 . S
C615 C614 1.385 . S
C616 C614 1.478 . S
C616 C618 1.381 . S
C616 C622 1.383 . S
C617 C613 1.495 . S
C617 H623 0.959 . S
C617 H624 0.961 . S
C617 H625 0.960 . S
C618 C616 1.381 . S
C618 C619 1.394 . S
C618 H626 0.930 . S
C619 C618 1.394 . S
C619 C620 1.383 . S
C619 H627 0.929 . S
C620 C619 1.383 . S
C620 C621 1.377 . S
C621 H605 0.930 . S
C621 C620 1.377 . S
C621 C622 1.379 . S
C622 H606 0.931 . S
C622 C616 1.383 . S
C622 C621 1.379 . S
H623 C617 0.959 . S
H624 C617 0.961 . S
H625 C617 0.960 . S
H626 C618 0.930 . S
H627 C619 0.929 . S
H628 C636 0.929 1_565 S
H629 C638 0.930 . S
H630 C640 0.930 . S
H631 C643 0.929 . S
H632 C646 0.930 . S
H633 C648 0.960 . S
H634 C648 0.960 . S
H635 C648 0.960 . S
C636 H628 0.929 1_545 S
C636 C637 1.377 1_545 S
C636 C638 1.384 . S
C637 C636 1.377 1_565 S
C637 C643 1.390 . S
C638 H629 0.930 . S
C638 C636 1.384 . S
C638 C639 1.372 . S
C639 C638 1.372 . S
C639 C640 1.400 . S
C639 C644 1.490 . S
C640 H630 0.930 . S
C640 C639 1.400 . S
C640 C643 1.386 1_545 S
H641 C657 0.930 . S
H642 C658 0.931 . S
C643 H631 0.929 . S
C643 C637 1.390 . S
C643 C640 1.386 1_565 S
C644 C639 1.490 . S
C644 C646 1.395 . S
C644 C647 1.403 . S
H645 C651 0.930 . S
C646 H632 0.930 . S
C646 C644 1.395 . S
C646 C649 1.403 . S
C647 C644 1.403 . S
C647 C648 1.524 . S
C647 C651 1.400 . S
C648 H633 0.960 . S
C648 H634 0.960 . S
C648 H635 0.960 . S
C648 C647 1.524 . S
C649 C646 1.403 . S
C649 C650 1.392 . S
C649 C653 1.495 . S
C650 C649 1.392 . S
C650 C651 1.385 . S
C650 C652 1.478 . S
C651 H645 0.930 . S
C651 C647 1.400 . S
C651 C650 1.385 . S
C652 C650 1.478 . S
C652 C654 1.381 . S
C652 C658 1.383 . S
C653 C649 1.495 . S
C653 H659 0.959 . S
C653 H660 0.961 . S
C653 H661 0.960 . S
C654 C652 1.381 . S
C654 C655 1.394 . S
C654 H662 0.930 . S
C655 C654 1.394 . S
C655 C656 1.383 . S
C655 H663 0.929 . S
C656 C655 1.383 . S
C656 C657 1.377 . S
C657 H641 0.930 . S
C657 C656 1.377 . S
C657 C658 1.379 . S
C658 H642 0.931 . S
C658 C652 1.383 . S
C658 C657 1.379 . S
H659 C653 0.959 . S
H660 C653 0.961 . S
H661 C653 0.960 . S
H662 C654 0.930 . S
H663 C655 0.929 . S
H664 C672 0.929 1_545 S
H665 C674 0.930 . S
H666 C676 0.930 . S
H667 C679 0.929 . S
H668 C682 0.930 . S
H669 C684 0.960 . S
H670 C684 0.960 . S
H671 C684 0.960 . S
C672 H664 0.929 1_565 S
C672 C673 1.377 1_565 S
C672 C674 1.384 . S
C673 C672 1.377 1_545 S
C673 C679 1.390 . S
C674 H665 0.930 . S
C674 C672 1.384 . S
C674 C675 1.372 . S
C675 C674 1.372 . S
C675 C676 1.400 . S
C675 C680 1.490 . S
C676 H666 0.930 . S
C676 C675 1.400 . S
C676 C679 1.386 1_565 S
H677 C693 0.930 . S
H678 C694 0.931 . S
C679 H667 0.929 . S
C679 C673 1.390 . S
C679 C676 1.386 1_545 S
C680 C675 1.490 . S
C680 C682 1.395 . S
C680 C683 1.403 . S
H681 C687 0.930 . S
C682 H668 0.930 . S
C682 C680 1.395 . S
C682 C685 1.403 . S
C683 C680 1.403 . S
C683 C684 1.524 . S
C683 C687 1.400 . S
C684 H669 0.960 . S
C684 H670 0.960 . S
C684 H671 0.960 . S
C684 C683 1.524 . S
C685 C682 1.403 . S
C685 C686 1.392 . S
C685 C689 1.495 . S
C686 C685 1.392 . S
C686 C687 1.385 . S
C686 C688 1.478 . S
C687 H681 0.930 . S
C687 C683 1.400 . S
C687 C686 1.385 . S
C688 C686 1.478 . S
C688 C690 1.381 . S
C688 C694 1.383 . S
C689 C685 1.495 . S
C689 H695 0.959 . S
C689 H696 0.961 . S
C689 H697 0.960 . S
C690 C688 1.381 . S
C690 C691 1.394 . S
C690 H698 0.930 . S
C691 C690 1.394 . S
C691 C692 1.383 . S
C691 H699 0.929 . S
C692 C691 1.383 . S
C692 C693 1.377 . S
C693 H677 0.930 . S
C693 C692 1.377 . S
C693 C694 1.379 . S
C694 H678 0.931 . S
C694 C688 1.383 . S
C694 C693 1.379 . S
H695 C689 0.959 . S
H696 C689 0.961 . S
H697 C689 0.960 . S
H698 C690 0.930 . S
H699 C691 0.929 . S
H700 C708 0.929 . S
H701 C710 0.930 . S
H702 C712 0.930 . S
H703 C715 0.929 . S
H704 C718 0.930 . S
H705 C720 0.960 . S
H706 C720 0.960 . S
H707 C720 0.960 . S
C708 H700 0.929 . S
C708 C709 1.377 . S
C708 C710 1.384 . S
C709 C708 1.377 . S
C709 C715 1.390 . S
C710 H701 0.930 . S
C710 C708 1.384 . S
C710 C711 1.372 . S
C711 C710 1.372 . S
C711 C712 1.400 . S
C711 C716 1.490 . S
C712 H702 0.930 . S
C712 C711 1.400 . S
C712 C715 1.386 . S
H713 C729 0.930 . S
H714 C730 0.931 . S
C715 H703 0.929 . S
C715 C709 1.390 . S
C715 C712 1.386 . S
C716 C711 1.490 . S
C716 C718 1.395 . S
C716 C719 1.403 . S
H717 C723 0.930 . S
C718 H704 0.930 . S
C718 C716 1.395 . S
C718 C721 1.403 . S
C719 C716 1.403 . S
C719 C720 1.524 . S
C719 C723 1.400 . S
C720 H705 0.960 . S
C720 H706 0.960 . S
C720 H707 0.960 . S
C720 C719 1.524 . S
C721 C718 1.403 . S
C721 C722 1.392 . S
C721 C725 1.495 . S
C722 C721 1.392 . S
C722 C723 1.385 . S
C722 C724 1.478 . S
C723 H717 0.930 . S
C723 C719 1.400 . S
C723 C722 1.385 . S
C724 C722 1.478 . S
C724 C726 1.381 . S
C724 C730 1.383 . S
C725 C721 1.495 . S
C725 H731 0.959 . S
C725 H732 0.961 . S
C725 H733 0.960 . S
C726 C724 1.381 . S
C726 C727 1.409 . S
C726 H734 0.930 . S
C727 C726 1.409 . S
C727 C728 1.374 1_565 S
C727 H735 0.924 1_565 S
C728 C727 1.374 1_545 S
C728 C729 1.377 . S
C729 H713 0.930 . S
C729 C728 1.377 . S
C729 C730 1.379 1_545 S
C730 H714 0.931 . S
C730 C724 1.383 . S
C730 C729 1.379 1_565 S
H731 C725 0.959 . S
H732 C725 0.961 . S
H733 C725 0.960 . S
H734 C726 0.930 . S
H735 C727 0.924 1_545 S
H736 C744 0.929 . S
H737 C746 0.930 . S
H738 C748 0.930 . S
H739 C751 0.929 . S
H740 C754 0.930 . S
H741 C756 0.960 . S
H742 C756 0.960 . S
H743 C756 0.960 . S
C744 H736 0.929 . S
C744 C745 1.377 . S
C744 C746 1.384 . S
C745 C744 1.377 . S
C745 C751 1.390 . S
C746 H737 0.930 . S
C746 C744 1.384 . S
C746 C747 1.372 . S
C747 C746 1.372 . S
C747 C748 1.400 . S
C747 C752 1.490 . S
C748 H738 0.930 . S
C748 C747 1.400 . S
C748 C751 1.386 . S
H749 C765 0.930 . S
H750 C766 0.931 . S
C751 H739 0.929 . S
C751 C745 1.390 . S
C751 C748 1.386 . S
C752 C747 1.490 . S
C752 C754 1.395 . S
C752 C755 1.403 . S
H753 C759 0.930 . S
C754 H740 0.930 . S
C754 C752 1.395 . S
C754 C757 1.403 . S
C755 C752 1.403 . S
C755 C756 1.524 . S
C755 C759 1.400 . S
C756 H741 0.960 . S
C756 H742 0.960 . S
C756 H743 0.960 . S
C756 C755 1.524 . S
C757 C754 1.403 . S
C757 C758 1.392 . S
C757 C761 1.495 . S
C758 C757 1.392 . S
C758 C759 1.385 . S
C758 C760 1.478 . S
C759 H753 0.930 . S
C759 C755 1.400 . S
C759 C758 1.385 . S
C760 C758 1.478 . S
C760 C762 1.381 . S
C760 C766 1.383 . S
C761 C757 1.495 . S
C761 H767 0.959 . S
C761 H768 0.961 . S
C761 H769 0.960 . S
C762 C760 1.381 . S
C762 C763 1.394 . S
C762 H770 0.930 . S
C763 C762 1.394 . S
C763 C764 1.383 . S
C763 H771 0.929 . S
C764 C763 1.383 . S
C764 C765 1.377 . S
C765 H749 0.930 . S
C765 C764 1.377 . S
C765 C766 1.379 . S
C766 H750 0.931 . S
C766 C760 1.383 . S
C766 C765 1.379 . S
H767 C761 0.959 . S
H768 C761 0.961 . S
H769 C761 0.960 . S
H770 C762 0.930 . S
H771 C763 0.929 . S
H772 C780 0.929 . S
H773 C782 0.930 . S
H774 C784 0.930 . S
H775 C787 0.929 . S
H776 C790 0.930 . S
H777 C792 0.960 . S
H778 C792 0.960 . S
H779 C792 0.960 . S
C780 H772 0.929 . S
C780 C781 1.377 . S
C780 C782 1.384 . S
C781 C780 1.377 . S
C781 C787 1.390 . S
C782 H773 0.930 . S
C782 C780 1.384 . S
C782 C783 1.372 . S
C783 C782 1.372 . S
C783 C784 1.400 . S
C783 C788 1.490 . S
C784 H774 0.930 . S
C784 C783 1.400 . S
C784 C787 1.386 . S
H785 C801 0.930 . S
H786 C802 0.931 . S
C787 H775 0.929 . S
C787 C781 1.390 . S
C787 C784 1.386 . S
C788 C783 1.490 . S
C788 C790 1.395 . S
C788 C791 1.403 . S
H789 C795 0.930 . S
C790 H776 0.930 . S
C790 C788 1.395 . S
C790 C793 1.403 . S
C791 C788 1.403 . S
C791 C792 1.524 . S
C791 C795 1.400 . S
C792 H777 0.960 . S
C792 H778 0.960 . S
C792 H779 0.960 . S
C792 C791 1.524 . S
C793 C790 1.403 . S
C793 C794 1.392 . S
C793 C797 1.495 . S
C794 C793 1.392 . S
C794 C795 1.385 . S
C794 C796 1.478 . S
C795 H789 0.930 . S
C795 C791 1.400 . S
C795 C794 1.385 . S
C796 C794 1.478 . S
C796 C798 1.381 . S
C796 C802 1.383 . S
C797 C793 1.495 . S
C797 H803 0.959 . S
C797 H804 0.961 . S
C797 H805 0.960 . S
C798 C796 1.381 . S
C798 C799 1.394 . S
C798 H806 0.930 . S
C799 C798 1.394 . S
C799 C800 1.383 . S
C799 H807 0.929 . S
C800 C799 1.383 . S
C800 C801 1.377 . S
C801 H785 0.930 . S
C801 C800 1.377 . S
C801 C802 1.379 . S
C802 H786 0.931 . S
C802 C796 1.383 . S
C802 C801 1.379 . S
H803 C797 0.959 . S
H804 C797 0.961 . S
H805 C797 0.960 . S
H806 C798 0.930 . S
H807 C799 0.929 . S
H808 C816 0.929 . S
H809 C818 0.930 . S
H810 C820 0.930 . S
H811 C823 0.929 . S
H812 C826 0.930 . S
H813 C828 0.960 . S
H814 C828 0.960 . S
H815 C828 0.960 . S
C816 H808 0.929 . S
C816 C817 1.377 . S
C816 C818 1.384 . S
C817 C816 1.377 . S
C817 C823 1.390 . S
C818 H809 0.930 . S
C818 C816 1.384 . S
C818 C819 1.372 . S
C819 C818 1.372 . S
C819 C820 1.400 . S
C819 C824 1.490 . S
C820 H810 0.930 . S
C820 C819 1.400 . S
C820 C823 1.386 . S
H821 C837 0.930 . S
H822 C838 0.931 . S
C823 H811 0.929 . S
C823 C817 1.390 . S
C823 C820 1.386 . S
C824 C819 1.490 . S
C824 C826 1.395 . S
C824 C827 1.403 . S
H825 C831 0.930 . S
C826 H812 0.930 . S
C826 C824 1.395 . S
C826 C829 1.403 . S
C827 C824 1.403 . S
C827 C828 1.524 . S
C827 C831 1.400 . S
C828 H813 0.960 . S
C828 H814 0.960 . S
C828 H815 0.960 . S
C828 C827 1.524 . S
C829 C826 1.403 . S
C829 C830 1.392 . S
C829 C833 1.495 . S
C830 C829 1.392 . S
C830 C831 1.385 . S
C830 C832 1.478 . S
C831 H825 0.930 . S
C831 C827 1.400 . S
C831 C830 1.385 . S
C832 C830 1.478 . S
C832 C834 1.381 . S
C832 C838 1.383 . S
C833 C829 1.495 . S
C833 H839 0.959 . S
C833 H840 0.961 . S
C833 H841 0.960 . S
C834 C832 1.381 . S
C834 C835 1.394 . S
C834 H842 0.930 . S
C835 C834 1.394 . S
C835 C836 1.383 . S
C835 H843 0.929 . S
C836 C835 1.383 . S
C836 C837 1.377 . S
C837 H821 0.930 . S
C837 C836 1.377 . S
C837 C838 1.379 . S
C838 H822 0.931 . S
C838 C832 1.383 . S
C838 C837 1.379 . S
H839 C833 0.959 . S
H840 C833 0.961 . S
H841 C833 0.960 . S
H842 C834 0.930 . S
H843 C835 0.929 . S
H844 C852 0.929 . S
H845 C854 0.930 . S
H846 C856 0.930 . S
H847 C859 0.929 . S
H848 C862 0.930 . S
H849 C864 0.960 . S
H850 C864 0.960 . S
H851 C864 0.960 . S
C852 H844 0.929 . S
C852 C853 1.377 . S
C852 C854 1.384 . S
C853 C852 1.377 . S
C853 C859 1.390 . S
C854 H845 0.930 . S
C854 C852 1.384 . S
C854 C855 1.372 . S
C855 C854 1.372 . S
C855 C856 1.400 . S
C855 C860 1.490 . S
C856 H846 0.930 . S
C856 C855 1.400 . S
C856 C859 1.386 . S
H857 C873 0.930 . S
H858 C874 0.931 . S
C859 H847 0.929 . S
C859 C853 1.390 . S
C859 C856 1.386 . S
C860 C855 1.490 . S
C860 C862 1.395 . S
C860 C863 1.403 . S
H861 C867 0.930 . S
C862 H848 0.930 . S
C862 C860 1.395 . S
C862 C865 1.403 . S
C863 C860 1.403 . S
C863 C864 1.524 . S
C863 C867 1.400 . S
C864 H849 0.960 . S
C864 H850 0.960 . S
C864 H851 0.960 . S
C864 C863 1.524 . S
C865 C862 1.403 . S
C865 C866 1.392 . S
C865 C869 1.495 . S
C866 C865 1.392 . S
C866 C867 1.385 . S
C866 C868 1.478 . S
C867 H861 0.930 . S
C867 C863 1.400 . S
C867 C866 1.385 . S
C868 C866 1.478 . S
C868 C870 1.381 . S
C868 C874 1.383 . S
C869 C865 1.495 . S
C869 H875 0.959 . S
C869 H876 0.961 . S
C869 H877 0.960 . S
C870 C868 1.381 . S
C870 C871 1.394 . S
C870 H878 0.930 . S
C871 C870 1.394 . S
C871 C872 1.383 . S
C871 H879 0.929 . S
C872 C871 1.383 . S
C872 C873 1.377 . S
C873 H857 0.930 . S
C873 C872 1.377 . S
C873 C874 1.379 . S
C874 H858 0.931 . S
C874 C868 1.383 . S
C874 C873 1.379 . S
H875 C869 0.959 . S
H876 C869 0.961 . S
H877 C869 0.960 . S
H878 C870 0.930 . S
H879 C871 0.929 . S
H880 C888 0.929 . S
H881 C890 0.930 . S
H882 C892 0.930 . S
H883 C895 0.929 . S
H884 C898 0.930 . S
H885 C900 0.960 . S
H886 C900 0.960 . S
H887 C900 0.960 . S
C888 H880 0.929 . S
C888 C889 1.377 . S
C888 C890 1.384 . S
C889 C888 1.377 . S
C889 C895 1.390 . S
C890 H881 0.930 . S
C890 C888 1.384 . S
C890 C891 1.372 . S
C891 C890 1.372 . S
C891 C892 1.400 . S
C891 C896 1.490 . S
C892 H882 0.930 . S
C892 C891 1.400 . S
C892 C895 1.386 . S
H893 C909 0.930 . S
H894 C910 0.931 . S
C895 H883 0.929 . S
C895 C889 1.390 . S
C895 C892 1.386 . S
C896 C891 1.490 . S
C896 C898 1.395 . S
C896 C899 1.403 . S
H897 C903 0.930 . S
C898 H884 0.930 . S
C898 C896 1.395 . S
C898 C901 1.403 . S
C899 C896 1.403 . S
C899 C900 1.524 . S
C899 C903 1.400 . S
C900 H885 0.960 . S
C900 H886 0.960 . S
C900 H887 0.960 . S
C900 C899 1.524 . S
C901 C898 1.403 . S
C901 C902 1.392 . S
C901 C905 1.495 . S
C902 C901 1.392 . S
C902 C903 1.385 . S
C902 C904 1.478 . S
C903 H897 0.930 . S
C903 C899 1.400 . S
C903 C902 1.385 . S
C904 C902 1.478 . S
C904 C906 1.381 . S
C904 C910 1.383 . S
C905 C901 1.495 . S
C905 H911 0.959 . S
C905 H912 0.961 . S
C905 H913 0.960 . S
C906 C904 1.381 . S
C906 C907 1.391 1_545 S
C906 H914 0.930 . S
C907 C906 1.391 1_565 S
C907 C908 1.386 . S
C907 H915 0.930 . S
C908 C907 1.386 . S
C908 C909 1.377 . S
C909 H893 0.930 . S
C909 C908 1.377 . S
C909 C910 1.379 1_565 S
C910 H894 0.931 . S
C910 C904 1.383 . S
C910 C909 1.379 1_545 S
H911 C905 0.959 . S
H912 C905 0.961 . S
H913 C905 0.960 . S
H914 C906 0.930 . S
H915 C907 0.930 . S
H916 C924 0.929 . S
H917 C926 0.930 . S
H918 C928 0.930 . S
H919 C931 0.929 . S
H920 C934 0.930 . S
H921 C936 0.960 . S
H922 C936 0.960 . S
H923 C936 0.960 . S
C924 H916 0.929 . S
C924 C925 1.377 . S
C924 C926 1.384 1_565 S
C925 C924 1.377 . S
C925 C931 1.390 . S
C926 H917 0.930 . S
C926 C924 1.384 1_545 S
C926 C927 1.372 . S
C927 C926 1.372 . S
C927 C928 1.400 . S
C927 C932 1.490 . S
C928 H918 0.930 . S
C928 C927 1.400 . S
C928 C931 1.386 1_545 S
H929 C945 0.930 . S
H930 C946 0.931 . S
C931 H919 0.929 . S
C931 C925 1.390 . S
C931 C928 1.386 1_565 S
C932 C927 1.490 . S
C932 C934 1.395 . S
C932 C935 1.403 . S
H933 C939 0.930 . S
C934 H920 0.930 . S
C934 C932 1.395 . S
C934 C937 1.403 . S
C935 C932 1.403 . S
C935 C936 1.524 . S
C935 C939 1.400 . S
C936 H921 0.960 . S
C936 H922 0.960 . S
C936 H923 0.960 . S
C936 C935 1.524 . S
C937 C934 1.403 . S
C937 C938 1.392 . S
C937 C941 1.495 . S
C938 C937 1.392 . S
C938 C939 1.385 . S
C938 C940 1.478 . S
C939 H933 0.930 . S
C939 C935 1.400 . S
C939 C938 1.385 . S
C940 C938 1.478 . S
C940 C942 1.381 . S
C940 C946 1.383 . S
C941 C937 1.495 . S
C941 H947 0.959 . S
C941 H948 0.961 . S
C941 H949 0.960 . S
C942 C940 1.381 . S
C942 C943 1.394 . S
C942 H950 0.930 . S
C943 C942 1.394 . S
C943 C944 1.383 . S
C943 H951 0.929 . S
C944 C943 1.383 . S
C944 C945 1.377 . S
C945 H929 0.930 . S
C945 C944 1.377 . S
C945 C946 1.379 . S
C946 H930 0.931 . S
C946 C940 1.383 . S
C946 C945 1.379 . S
H947 C941 0.959 . S
H948 C941 0.961 . S
H949 C941 0.960 . S
H950 C942 0.930 . S
H951 C943 0.929 . S
H952 C960 0.929 . S
H953 C962 0.930 . S
H954 C964 0.930 . S
H955 C967 0.929 . S
H956 C970 0.930 . S
H957 C972 0.960 . S
H958 C972 0.960 . S
H959 C972 0.960 . S
C960 H952 0.929 . S
C960 C961 1.377 . S
C960 C962 1.384 . S
C961 C960 1.377 . S
C961 C967 1.390 . S
C962 H953 0.930 . S
C962 C960 1.384 . S
C962 C963 1.372 . S
C963 C962 1.372 . S
C963 C964 1.400 . S
C963 C968 1.490 . S
C964 H954 0.930 . S
C964 C963 1.400 . S
C964 C967 1.386 . S
H965 C981 0.930 1_545 S
H966 C982 0.931 . S
C967 H955 0.929 . S
C967 C961 1.390 . S
C967 C964 1.386 . S
C968 C963 1.490 . S
C968 C970 1.395 . S
C968 C971 1.403 . S
H969 C975 0.930 . S
C970 H956 0.930 . S
C970 C968 1.395 . S
C970 C973 1.403 . S
C971 C968 1.403 . S
C971 C972 1.524 . S
C971 C975 1.400 . S
C972 H957 0.960 . S
C972 H958 0.960 . S
C972 H959 0.960 . S
C972 C971 1.524 . S
C973 C970 1.403 . S
C973 C974 1.392 . S
C973 C977 1.495 . S
C974 C973 1.392 . S
C974 C975 1.385 . S
C974 C976 1.478 . S
C975 H969 0.930 . S
C975 C971 1.400 . S
C975 C974 1.385 . S
C976 C974 1.478 . S
C976 C978 1.381 . S
C976 C982 1.383 . S
C977 C973 1.495 . S
C977 H983 0.959 . S
C977 H984 0.961 . S
C977 H985 0.960 . S
C978 C976 1.381 . S
C978 C979 1.394 1_565 S
C978 H986 0.930 . S
C979 C978 1.394 1_545 S
C979 C980 1.383 . S
C979 H987 0.929 . S
C980 C979 1.383 . S
C980 C981 1.377 1_545 S
C981 H965 0.930 1_565 S
C981 C980 1.377 1_565 S
C981 C982 1.379 . S
C982 H966 0.931 . S
C982 C976 1.383 . S
C982 C981 1.379 . S
H983 C977 0.959 . S
H984 C977 0.961 . S
H985 C977 0.960 . S
H986 C978 0.930 . S
H987 C979 0.929 . S
H988 C996 0.929 . S
H989 C998 0.930 . S
H990 C1000 0.930 . S
H991 C1003 0.929 . S
H992 C1006 0.930 . S
H993 C1008 0.960 . S
H994 C1008 0.960 . S
H995 C1008 0.960 . S
C996 H988 0.929 . S
C996 C997 1.377 . S
C996 C998 1.384 . S
C997 C996 1.377 . S
C997 C1003 1.390 . S
C998 H989 0.930 . S
C998 C996 1.384 . S
C998 C999 1.372 . S
C999 C998 1.372 . S
C999 C1000 1.400 . S
C999 C1004 1.490 . S
C1000 H990 0.930 . S
C1000 C999 1.400 . S
C1000 C1003 1.386 . S
H1001 C1017 0.930 . S
H1002 C1018 0.931 . S
C1003 H991 0.929 . S
C1003 C997 1.390 . S
C1003 C1000 1.386 . S
C1004 C999 1.490 . S
C1004 C1006 1.395 . S
C1004 C1007 1.403 . S
H1005 C1011 0.930 . S
C1006 H992 0.930 . S
C1006 C1004 1.395 . S
C1006 C1009 1.403 . S
C1007 C1004 1.403 . S
C1007 C1008 1.524 . S
C1007 C1011 1.400 . S
C1008 H993 0.960 . S
C1008 H994 0.960 . S
C1008 H995 0.960 . S
C1008 C1007 1.524 . S
C1009 C1006 1.403 . S
C1009 C1010 1.392 . S
C1009 C1013 1.495 . S
C1010 C1009 1.392 . S
C1010 C1011 1.385 . S
C1010 C1012 1.478 . S
C1011 H1005 0.930 . S
C1011 C1007 1.400 . S
C1011 C1010 1.385 . S
C1012 C1010 1.478 . S
C1012 C1014 1.381 . S
C1012 C1018 1.383 . S
C1013 C1009 1.495 . S
C1013 H1019 0.959 . S
C1013 H1020 0.961 . S
C1013 H1021 0.960 . S
C1014 C1012 1.381 . S
C1014 C1015 1.394 . S
C1014 H1022 0.930 . S
C1015 C1014 1.394 . S
C1015 C1016 1.383 1_565 S
C1015 H1023 0.929 1_565 S
C1016 C1015 1.383 1_545 S
C1016 C1017 1.377 . S
C1017 H1001 0.930 . S
C1017 C1016 1.377 . S
C1017 C1018 1.379 1_545 S
C1018 H1002 0.931 . S
C1018 C1012 1.383 . S
C1018 C1017 1.379 1_565 S
H1019 C1013 0.959 . S
H1020 C1013 0.961 . S
H1021 C1013 0.960 . S
H1022 C1014 0.930 . S
H1023 C1015 0.929 1_545 S
H1024 C1032 0.929 . S
H1025 C1034 0.930 . S
H1026 C1036 0.930 . S
H1027 C1039 0.929 . S
H1028 C1042 0.930 . S
H1029 C1044 0.960 . S
H1030 C1044 0.960 . S
H1031 C1044 0.960 . S
C1032 H1024 0.929 . S
C1032 C1033 1.377 . S
C1032 C1034 1.384 . S
C1033 C1032 1.377 . S
C1033 C1039 1.390 . S
C1034 H1025 0.930 . S
C1034 C1032 1.384 . S
C1034 C1035 1.372 . S
C1035 C1034 1.372 . S
C1035 C1036 1.400 . S
C1035 C1040 1.490 . S
C1036 H1026 0.930 . S
C1036 C1035 1.400 . S
C1036 C1039 1.386 . S
H1037 C1053 0.930 . S
H1038 C1054 0.931 . S
C1039 H1027 0.929 . S
C1039 C1033 1.390 . S
C1039 C1036 1.386 . S
C1040 C1035 1.490 . S
C1040 C1042 1.395 . S
C1040 C1043 1.403 1_655 S
H1041 C1047 0.930 . S
C1042 H1028 0.930 . S
C1042 C1040 1.395 . S
C1042 C1045 1.403 1_556 S
C1043 C1040 1.403 1_455 S
C1043 C1044 1.524 . S
C1043 C1047 1.400 1_556 S
C1044 H1029 0.960 . S
C1044 H1030 0.960 . S
C1044 H1031 0.960 . S
C1044 C1043 1.524 . S
C1045 C1042 1.403 1_554 S
C1045 C1046 1.392 1_655 S
C1045 C1049 1.495 . S
C1046 C1045 1.392 1_455 S
C1046 C1047 1.385 . S
C1046 C1048 1.478 . S
C1047 H1041 0.930 . S
C1047 C1043 1.400 1_554 S
C1047 C1046 1.385 . S
C1048 C1046 1.478 . S
C1048 C1050 1.381 . S
C1048 C1054 1.383 . S
C1049 C1045 1.495 . S
C1049 H1055 0.959 . S
C1049 H1056 0.961 . S
C1049 H1057 0.960 . S
C1050 C1048 1.381 . S
C1050 C1051 1.394 . S
C1050 H1058 0.930 . S
C1051 C1050 1.394 . S
C1051 C1052 1.383 . S
C1051 H1059 0.929 . S
C1052 C1051 1.383 . S
C1052 C1053 1.377 . S
C1053 H1037 0.930 . S
C1053 C1052 1.377 . S
C1053 C1054 1.379 . S
C1054 H1038 0.931 . S
C1054 C1048 1.383 . S
C1054 C1053 1.379 . S
H1055 C1049 0.959 . S
H1056 C1049 0.961 . S
H1057 C1049 0.960 . S
H1058 C1050 0.930 . S
H1059 C1051 0.929 . S
H1060 C1068 0.929 . S
H1061 C1070 0.930 . S
H1062 C1072 0.930 . S
H1063 C1075 0.929 . S
H1064 C1078 0.930 . S
H1065 C1080 0.960 . S
H1066 C1080 0.960 . S
H1067 C1080 0.960 1_556 S
C1068 H1060 0.929 . S
C1068 C1069 1.377 . S
C1068 C1070 1.384 . S
C1069 C1068 1.377 . S
C1069 C1075 1.390 . S
C1070 H1061 0.930 . S
C1070 C1068 1.384 . S
C1070 C1071 1.372 . S
C1071 C1070 1.372 . S
C1071 C1072 1.400 . S
C1071 C1076 1.490 . S
C1072 H1062 0.930 . S
C1072 C1071 1.400 . S
C1072 C1075 1.386 . S
H1073 C1089 0.930 . S
H1074 C1090 0.931 . S
C1075 H1063 0.929 . S
C1075 C1069 1.390 . S
C1075 C1072 1.386 . S
C1076 C1071 1.490 . S
C1076 C1078 1.395 . S
C1076 C1079 1.403 1_556 S
H1077 C1083 0.930 . S
C1078 H1064 0.930 . S
C1078 C1076 1.395 . S
C1078 C1081 1.403 . S
C1079 C1076 1.403 1_554 S
C1079 C1080 1.524 . S
C1079 C1083 1.400 . S
C1080 H1065 0.960 . S
C1080 H1066 0.960 . S
C1080 H1067 0.960 1_554 S
C1080 C1079 1.524 . S
C1081 C1078 1.403 . S
C1081 C1082 1.392 1_556 S
C1081 C1085 1.495 . S
C1082 C1081 1.392 1_554 S
C1082 C1083 1.385 . S
C1082 C1084 1.478 . S
C1083 H1077 0.930 . S
C1083 C1079 1.400 . S
C1083 C1082 1.385 . S
C1084 C1082 1.478 . S
C1084 C1086 1.381 . S
C1084 C1090 1.383 . S
C1085 C1081 1.495 . S
C1085 H1091 0.959 . S
C1085 H1092 0.961 . S
C1085 H1093 0.960 1_556 S
C1086 C1084 1.381 . S
C1086 C1087 1.394 . S
C1086 H1094 0.930 . S
C1087 C1086 1.394 . S
C1087 C1088 1.383 . S
C1087 H1095 0.929 . S
C1088 C1087 1.383 . S
C1088 C1089 1.377 . S
C1089 H1073 0.930 . S
C1089 C1088 1.377 . S
C1089 C1090 1.379 . S
C1090 H1074 0.931 . S
C1090 C1084 1.383 . S
C1090 C1089 1.379 . S
H1091 C1085 0.959 . S
H1092 C1085 0.961 . S
H1093 C1085 0.960 1_554 S
H1094 C1086 0.930 . S
H1095 C1087 0.929 . S
H1096 C1104 0.929 . S
H1097 C1106 0.930 . S
H1098 C1108 0.930 . S
H1099 C1111 0.929 . S
H1100 C1114 0.930 . S
H1101 C1116 0.960 . S
H1102 C1116 0.960 . S
H1103 C1116 0.960 . S
C1104 H1096 0.929 . S
C1104 C1105 1.377 . S
C1104 C1106 1.384 . S
C1105 C1104 1.377 . S
C1105 C1111 1.390 . S
C1106 H1097 0.930 . S
C1106 C1104 1.384 . S
C1106 C1107 1.372 . S
C1107 C1106 1.372 . S
C1107 C1108 1.400 . S
C1107 C1112 1.490 . S
C1108 H1098 0.930 . S
C1108 C1107 1.400 . S
C1108 C1111 1.386 . S
H1109 C1125 0.930 . S
H1110 C1126 0.931 . S
C1111 H1099 0.929 . S
C1111 C1105 1.390 . S
C1111 C1108 1.386 . S
C1112 C1107 1.490 . S
C1112 C1114 1.395 1_455 S
C1112 C1115 1.403 . S
H1113 C1119 0.930 . S
C1114 H1100 0.930 . S
C1114 C1112 1.395 1_655 S
C1114 C1117 1.403 . S
C1115 C1112 1.403 . S
C1115 C1116 1.524 . S
C1115 C1119 1.400 . S
C1116 H1101 0.960 . S
C1116 H1102 0.960 . S
C1116 H1103 0.960 . S
C1116 C1115 1.524 . S
C1117 C1114 1.403 . S
C1117 C1118 1.392 . S
C1117 C1121 1.495 . S
C1118 C1117 1.392 . S
C1118 C1119 1.385 1_655 S
C1118 C1120 1.478 . S
C1119 H1113 0.930 . S
C1119 C1115 1.400 . S
C1119 C1118 1.385 1_455 S
C1120 C1118 1.478 . S
C1120 C1122 1.381 . S
C1120 C1126 1.383 . S
C1121 C1117 1.495 . S
C1121 H1127 0.959 . S
C1121 H1128 0.961 . S
C1121 H1129 0.960 . S
C1122 C1120 1.381 . S
C1122 C1123 1.394 . S
C1122 H1130 0.930 . S
C1123 C1122 1.394 . S
C1123 C1124 1.383 . S
C1123 H1131 0.929 . S
C1124 C1123 1.383 . S
C1124 C1125 1.377 . S
C1125 H1109 0.930 . S
C1125 C1124 1.377 . S
C1125 C1126 1.379 . S
C1126 H1110 0.931 . S
C1126 C1120 1.383 . S
C1126 C1125 1.379 . S
H1127 C1121 0.959 . S
H1128 C1121 0.961 . S
H1129 C1121 0.960 . S
H1130 C1122 0.930 . S
H1131 C1123 0.929 . S
H1132 C1140 0.929 . S
H1133 C1142 0.930 . S
H1134 C1144 0.930 . S
H1135 C1147 0.929 . S
H1136 C1150 0.930 . S
H1137 C1152 0.960 . S
H1138 C1152 0.960 . S
H1139 C1152 0.960 . S
C1140 H1132 0.929 . S
C1140 C1141 1.377 . S
C1140 C1142 1.384 . S
C1141 C1140 1.377 . S
C1141 C1147 1.390 . S
C1142 H1133 0.930 . S
C1142 C1140 1.384 . S
C1142 C1143 1.372 . S
C1143 C1142 1.372 . S
C1143 C1144 1.400 . S
C1143 C1148 1.490 . S
C1144 H1134 0.930 . S
C1144 C1143 1.400 . S
C1144 C1147 1.386 . S
H1145 C1161 0.930 . S
H1146 C1162 0.931 . S
C1147 H1135 0.929 . S
C1147 C1141 1.390 . S
C1147 C1144 1.386 . S
C1148 C1143 1.490 . S
C1148 C1150 1.395 . S
C1148 C1151 1.403 . S
H1149 C1155 0.930 . S
C1150 H1136 0.930 . S
C1150 C1148 1.395 . S
C1150 C1153 1.403 . S
C1151 C1148 1.403 . S
C1151 C1152 1.524 . S
C1151 C1155 1.400 . S
C1152 H1137 0.960 . S
C1152 H1138 0.960 . S
C1152 H1139 0.960 . S
C1152 C1151 1.524 . S
C1153 C1150 1.403 . S
C1153 C1154 1.392 . S
C1153 C1157 1.495 . S
C1154 C1153 1.392 . S
C1154 C1155 1.385 . S
C1154 C1156 1.478 . S
C1155 H1149 0.930 . S
C1155 C1151 1.400 . S
C1155 C1154 1.385 . S
C1156 C1154 1.478 . S
C1156 C1158 1.381 . S
C1156 C1162 1.383 . S
C1157 C1153 1.495 . S
C1157 H1163 0.959 . S
C1157 H1164 0.961 . S
C1157 H1165 0.960 . S
C1158 C1156 1.381 . S
C1158 C1159 1.394 . S
C1158 H1166 0.930 . S
C1159 C1158 1.394 . S
C1159 C1160 1.383 . S
C1159 H1167 0.929 . S
C1160 C1159 1.383 . S
C1160 C1161 1.377 . S
C1161 H1145 0.930 . S
C1161 C1160 1.377 . S
C1161 C1162 1.379 . S
C1162 H1146 0.931 . S
C1162 C1156 1.383 . S
C1162 C1161 1.379 . S
H1163 C1157 0.959 . S
H1164 C1157 0.961 . S
H1165 C1157 0.960 . S
H1166 C1158 0.930 . S
H1167 C1159 0.929 . S
H1168 C1176 0.929 . S
H1169 C1178 0.930 . S
H1170 C1180 0.930 . S
H1171 C1183 0.929 . S
H1172 C1186 0.930 . S
H1173 C1188 0.960 . S
H1174 C1188 0.960 . S
H1175 C1188 0.960 . S
C1176 H1168 0.929 . S
C1176 C1177 1.377 . S
C1176 C1178 1.384 . S
C1177 C1176 1.377 . S
C1177 C1183 1.390 . S
C1178 H1169 0.930 . S
C1178 C1176 1.384 . S
C1178 C1179 1.372 . S
C1179 C1178 1.372 . S
C1179 C1180 1.400 . S
C1179 C1184 1.490 . S
C1180 H1170 0.930 . S
C1180 C1179 1.400 . S
C1180 C1183 1.386 . S
H1181 C1197 0.930 . S
H1182 C1198 0.931 . S
C1183 H1171 0.929 . S
C1183 C1177 1.390 . S
C1183 C1180 1.386 . S
C1184 C1179 1.490 . S
C1184 C1186 1.395 1_556 S
C1184 C1187 1.403 . S
H1185 C1191 0.936 . S
C1186 H1172 0.930 . S
C1186 C1184 1.395 1_554 S
C1186 C1189 1.403 . S
C1187 C1184 1.403 . S
C1187 C1188 1.524 . S
C1187 C1191 1.435 . S
C1188 H1173 0.960 . S
C1188 H1174 0.960 . S
C1188 H1175 0.960 . S
C1188 C1187 1.524 . S
C1189 C1186 1.403 . S
C1189 C1190 1.392 . S
C1189 C1193 1.495 . S
C1190 C1189 1.392 . S
C1190 C1191 1.346 1_554 S
C1190 C1192 1.478 . S
C1191 H1185 0.936 . S
C1191 C1187 1.435 . S
C1191 C1190 1.346 1_556 S
C1192 C1190 1.478 . S
C1192 C1194 1.381 . S
C1192 C1198 1.383 . S
C1193 C1189 1.495 . S
C1193 H1199 0.959 . S
C1193 H1200 0.961 . S
C1193 H1201 0.960 . S
C1194 C1192 1.381 . S
C1194 C1195 1.394 . S
C1194 H1202 0.930 . S
C1195 C1194 1.394 . S
C1195 C1196 1.383 . S
C1195 H1203 0.929 . S
C1196 C1195 1.383 . S
C1196 C1197 1.377 . S
C1197 H1181 0.930 . S
C1197 C1196 1.377 . S
C1197 C1198 1.379 . S
C1198 H1182 0.931 . S
C1198 C1192 1.383 . S
C1198 C1197 1.379 . S
H1199 C1193 0.959 . S
H1200 C1193 0.961 . S
H1201 C1193 0.960 . S
H1202 C1194 0.930 . S
H1203 C1195 0.929 . S
H1204 C1212 0.929 . S
H1205 C1214 0.930 . S
H1206 C1216 0.930 . S
H1207 C1219 0.929 . S
H1208 C1222 0.930 . S
H1209 C1224 0.960 . S
H1210 C1224 0.960 . S
H1211 C1224 0.960 . S
C1212 H1204 0.929 . S
C1212 C1213 1.377 . S
C1212 C1214 1.384 . S
C1213 C1212 1.377 . S
C1213 C1219 1.390 . S
C1214 H1205 0.930 . S
C1214 C1212 1.384 . S
C1214 C1215 1.372 . S
C1215 C1214 1.372 . S
C1215 C1216 1.400 . S
C1215 C1220 1.490 . S
C1216 H1206 0.930 . S
C1216 C1215 1.400 . S
C1216 C1219 1.386 . S
H1217 C1233 0.930 . S
H1218 C1234 0.931 . S
C1219 H1207 0.929 . S
C1219 C1213 1.390 . S
C1219 C1216 1.386 . S
C1220 C1215 1.490 . S
C1220 C1222 1.395 1_655 S
C1220 C1223 1.403 . S
H1221 C1227 0.930 . S
C1222 H1208 0.930 . S
C1222 C1220 1.395 1_455 S
C1222 C1225 1.403 . S
C1223 C1220 1.403 . S
C1223 C1224 1.524 . S
C1223 C1227 1.400 . S
C1224 H1209 0.960 . S
C1224 H1210 0.960 . S
C1224 H1211 0.960 . S
C1224 C1223 1.524 . S
C1225 C1222 1.403 . S
C1225 C1226 1.392 . S
C1225 C1229 1.495 . S
C1226 C1225 1.392 . S
C1226 C1227 1.385 1_455 S
C1226 C1228 1.478 . S
C1227 H1221 0.930 . S
C1227 C1223 1.400 . S
C1227 C1226 1.385 1_655 S
C1228 C1226 1.478 . S
C1228 C1230 1.381 . S
C1228 C1234 1.383 . S
C1229 C1225 1.495 . S
C1229 H1235 0.959 . S
C1229 H1236 0.961 . S
C1229 H1237 0.960 . S
C1230 C1228 1.381 . S
C1230 C1231 1.394 . S
C1230 H1238 0.930 . S
C1231 C1230 1.394 . S
C1231 C1232 1.383 . S
C1231 H1239 0.929 . S
C1232 C1231 1.383 . S
C1232 C1233 1.377 . S
C1233 H1217 0.930 . S
C1233 C1232 1.377 . S
C1233 C1234 1.379 . S
C1234 H1218 0.931 . S
C1234 C1228 1.383 . S
C1234 C1233 1.379 . S
H1235 C1229 0.959 . S
H1236 C1229 0.961 . S
H1237 C1229 0.960 . S
H1238 C1230 0.930 . S
H1239 C1231 0.929 . S
H1240 C1248 0.929 . S
H1241 C1250 0.930 . S
H1242 C1252 0.930 . S
H1243 C1255 0.929 . S
H1244 C1258 0.930 . S
H1245 C1260 0.960 . S
H1246 C1260 0.960 . S
H1247 C1260 0.960 . S
C1248 H1240 0.929 . S
C1248 C1249 1.377 . S
C1248 C1250 1.384 . S
C1249 C1248 1.377 . S
C1249 C1255 1.390 . S
C1250 H1241 0.930 . S
C1250 C1248 1.384 . S
C1250 C1251 1.372 . S
C1251 C1250 1.372 . S
C1251 C1252 1.400 . S
C1251 C1256 1.490 . S
C1252 H1242 0.930 . S
C1252 C1251 1.400 . S
C1252 C1255 1.386 . S
H1253 C1269 0.930 . S
H1254 C1270 0.931 . S
C1255 H1243 0.929 . S
C1255 C1249 1.390 . S
C1255 C1252 1.386 . S
C1256 C1251 1.490 . S
C1256 C1258 1.395 . S
C1256 C1259 1.403 . S
H1257 C1263 0.930 . S
C1258 H1244 0.930 . S
C1258 C1256 1.395 . S
C1258 C1261 1.403 . S
C1259 C1256 1.403 . S
C1259 C1260 1.524 . S
C1259 C1263 1.400 . S
C1260 H1245 0.960 . S
C1260 H1246 0.960 . S
C1260 H1247 0.960 . S
C1260 C1259 1.524 . S
C1261 C1258 1.403 . S
C1261 C1262 1.392 . S
C1261 C1265 1.495 . S
C1262 C1261 1.392 . S
C1262 C1263 1.385 . S
C1262 C1264 1.478 . S
C1263 H1257 0.930 . S
C1263 C1259 1.400 . S
C1263 C1262 1.385 . S
C1264 C1262 1.478 . S
C1264 C1266 1.381 . S
C1264 C1270 1.383 . S
C1265 C1261 1.495 . S
C1265 H1271 0.959 . S
C1265 H1272 0.961 . S
C1265 H1273 0.960 . S
C1266 C1264 1.381 . S
C1266 C1267 1.394 . S
C1266 H1274 0.930 . S
C1267 C1266 1.394 . S
C1267 C1268 1.383 . S
C1267 H1275 0.929 . S
C1268 C1267 1.383 . S
C1268 C1269 1.377 . S
C1269 H1253 0.930 . S
C1269 C1268 1.377 . S
C1269 C1270 1.379 . S
C1270 H1254 0.931 . S
C1270 C1264 1.383 . S
C1270 C1269 1.379 . S
H1271 C1265 0.959 . S
H1272 C1265 0.961 . S
H1273 C1265 0.960 . S
H1274 C1266 0.930 . S
H1275 C1267 0.929 . S
H1276 C1284 0.929 . S
H1277 C1286 0.930 . S
H1278 C1288 0.930 1_565 S
H1279 C1291 0.929 . S
H1280 C1294 0.930 . S
H1281 C1296 0.960 1_565 S
H1282 C1296 0.960 . S
H1283 C1296 0.960 1_565 S
C1284 H1276 0.929 . S
C1284 C1285 1.377 . S
C1284 C1286 1.384 . S
C1285 C1284 1.377 . S
C1285 C1291 1.390 . S
C1286 H1277 0.930 . S
C1286 C1284 1.384 . S
C1286 C1287 1.372 . S
C1287 C1286 1.372 . S
C1287 C1288 1.400 . S
C1287 C1292 1.490 . S
C1288 H1278 0.930 1_545 S
C1288 C1287 1.400 . S
C1288 C1291 1.386 . S
H1289 C1305 0.930 . S
H1290 C1306 0.931 . S
C1291 H1279 0.929 . S
C1291 C1285 1.390 . S
C1291 C1288 1.386 . S
C1292 C1287 1.490 . S
C1292 C1294 1.395 . S
C1292 C1295 1.403 1_655 S
H1293 C1299 0.930 . S
C1294 H1280 0.930 . S
C1294 C1292 1.395 . S
C1294 C1297 1.416 . S
C1295 C1292 1.403 1_455 S
C1295 C1296 1.524 . S
C1295 C1299 1.400 1_545 S
C1296 H1281 0.960 1_545 S
C1296 H1282 0.960 . S
C1296 H1283 0.960 1_545 S
C1296 C1295 1.524 . S
C1297 C1294 1.416 . S
C1297 C1298 1.381 1_645 S
C1297 C1301 1.495 1_545 S
C1298 C1297 1.381 1_465 S
C1298 C1299 1.385 . S
C1298 C1300 1.478 . S
C1299 H1293 0.930 . S
C1299 C1295 1.400 1_565 S
C1299 C1298 1.385 . S
C1300 C1298 1.478 . S
C1300 C1302 1.381 . S
C1300 C1306 1.383 . S
C1301 C1297 1.495 1_565 S
C1301 H1307 0.959 1_565 S
C1301 H1308 0.961 . S
C1301 H1309 0.960 1_565 S
C1302 C1300 1.381 . S
C1302 C1303 1.394 . S
C1302 H1310 0.930 1_565 S
C1303 C1302 1.394 . S
C1303 C1304 1.383 . S
C1303 H1311 0.929 . S
C1304 C1303 1.383 . S
C1304 C1305 1.377 . S
C1305 H1289 0.930 . S
C1305 C1304 1.377 . S
C1305 C1306 1.379 . S
C1306 H1290 0.931 . S
C1306 C1300 1.383 . S
C1306 C1305 1.379 . S
H1307 C1301 0.959 1_545 S
H1308 C1301 0.961 . S
H1309 C1301 0.960 1_545 S
H1310 C1302 0.930 1_545 S
H1311 C1303 0.929 . S
H1312 C1320 0.929 . S
H1313 C1322 0.930 . S
H1314 C1324 0.930 . S
H1315 C1327 0.929 . S
H1316 C1330 0.930 . S
H1317 C1332 0.960 . S
H1318 C1332 0.960 . S
H1319 C1332 0.960 . S
C1320 H1312 0.929 . S
C1320 C1321 1.377 . S
C1320 C1322 1.384 . S
C1321 C1320 1.377 . S
C1321 C1327 1.390 . S
C1322 H1313 0.930 . S
C1322 C1320 1.384 . S
C1322 C1323 1.372 . S
C1323 C1322 1.372 . S
C1323 C1324 1.400 . S
C1323 C1328 1.490 . S
C1324 H1314 0.930 . S
C1324 C1323 1.400 . S
C1324 C1327 1.386 . S
H1325 C1341 0.930 . S
H1326 C1342 0.931 . S
C1327 H1315 0.929 . S
C1327 C1321 1.390 . S
C1327 C1324 1.386 . S
C1328 C1323 1.490 . S
C1328 C1330 1.395 . S
C1328 C1331 1.403 . S
H1329 C1335 0.930 . S
C1330 H1316 0.930 . S
C1330 C1328 1.395 . S
C1330 C1333 1.403 . S
C1331 C1328 1.403 . S
C1331 C1332 1.524 . S
C1331 C1335 1.400 . S
C1332 H1317 0.960 . S
C1332 H1318 0.960 . S
C1332 H1319 0.960 . S
C1332 C1331 1.524 . S
C1333 C1330 1.403 . S
C1333 C1334 1.392 . S
C1333 C1337 1.495 . S
C1334 C1333 1.392 . S
C1334 C1335 1.385 . S
C1334 C1336 1.478 . S
C1335 H1329 0.930 . S
C1335 C1331 1.400 . S
C1335 C1334 1.385 . S
C1336 C1334 1.478 . S
C1336 C1338 1.381 . S
C1336 C1342 1.383 . S
C1337 C1333 1.495 . S
C1337 H1343 0.959 . S
C1337 H1344 0.961 . S
C1337 H1345 0.960 . S
C1338 C1336 1.381 . S
C1338 C1339 1.394 . S
C1338 H1346 0.930 . S
C1339 C1338 1.394 . S
C1339 C1340 1.383 . S
C1339 H1347 0.929 . S
C1340 C1339 1.383 . S
C1340 C1341 1.377 . S
C1341 H1325 0.930 . S
C1341 C1340 1.377 . S
C1341 C1342 1.379 . S
C1342 H1326 0.931 . S
C1342 C1336 1.383 . S
C1342 C1341 1.379 . S
H1343 C1337 0.959 . S
H1344 C1337 0.961 . S
H1345 C1337 0.960 . S
H1346 C1338 0.930 . S
H1347 C1339 0.929 . S
H1348 C1356 0.929 . S
H1349 C1358 0.930 . S
H1350 C1360 0.930 . S
H1351 C1363 0.929 . S
H1352 C1366 0.930 . S
H1353 C1368 0.960 . S
H1354 C1368 0.960 . S
H1355 C1368 0.960 . S
C1356 H1348 0.929 . S
C1356 C1357 1.377 . S
C1356 C1358 1.384 . S
C1357 C1356 1.377 . S
C1357 C1363 1.390 . S
C1358 H1349 0.930 . S
C1358 C1356 1.384 . S
C1358 C1359 1.372 . S
C1359 C1358 1.372 . S
C1359 C1360 1.400 . S
C1359 C1364 1.490 . S
C1360 H1350 0.930 . S
C1360 C1359 1.400 . S
C1360 C1363 1.386 . S
H1361 C1377 0.930 . S
H1362 C1378 0.931 . S
C1363 H1351 0.929 . S
C1363 C1357 1.390 . S
C1363 C1360 1.386 . S
C1364 C1359 1.490 . S
C1364 C1366 1.395 1_565 S
C1364 C1367 1.403 . S
H1365 C1371 0.930 . S
C1366 H1352 0.930 . S
C1366 C1364 1.395 1_545 S
C1366 C1369 1.403 . S
C1367 C1364 1.403 . S
C1367 C1368 1.524 . S
C1367 C1371 1.400 . S
C1368 H1353 0.960 . S
C1368 H1354 0.960 . S
C1368 H1355 0.960 . S
C1368 C1367 1.524 . S
C1369 C1366 1.403 . S
C1369 C1370 1.392 . S
C1369 C1373 1.495 . S
C1370 C1369 1.392 . S
C1370 C1371 1.385 1_545 S
C1370 C1372 1.478 . S
C1371 H1365 0.930 . S
C1371 C1367 1.400 . S
C1371 C1370 1.385 1_565 S
C1372 C1370 1.478 . S
C1372 C1374 1.381 . S
C1372 C1378 1.383 . S
C1373 C1369 1.495 . S
C1373 H1379 0.959 . S
C1373 H1380 0.961 . S
C1373 H1381 0.960 . S
C1374 C1372 1.381 . S
C1374 C1375 1.394 . S
C1374 H1382 0.930 . S
C1375 C1374 1.394 . S
C1375 C1376 1.383 . S
C1375 H1383 0.929 . S
C1376 C1375 1.383 . S
C1376 C1377 1.377 . S
C1377 H1361 0.930 . S
C1377 C1376 1.377 . S
C1377 C1378 1.379 . S
C1378 H1362 0.931 . S
C1378 C1372 1.383 . S
C1378 C1377 1.379 . S
H1379 C1373 0.959 . S
H1380 C1373 0.961 . S
H1381 C1373 0.960 . S
H1382 C1374 0.930 . S
H1383 C1375 0.929 . S
H1384 C1392 0.929 . S
H1385 C1394 0.930 . S
H1386 C1396 0.930 . S
H1387 C1399 0.929 . S
H1388 C1402 0.930 . S
H1389 C1404 0.960 . S
H1390 C1404 0.960 . S
H1391 C1404 0.960 . S
C1392 H1384 0.929 . S
C1392 C1393 1.377 . S
C1392 C1394 1.384 . S
C1393 C1392 1.377 . S
C1393 C1399 1.390 . S
C1394 H1385 0.930 . S
C1394 C1392 1.384 . S
C1394 C1395 1.372 . S
C1395 C1394 1.372 . S
C1395 C1396 1.400 . S
C1395 C1400 1.490 . S
C1396 H1386 0.930 . S
C1396 C1395 1.400 . S
C1396 C1399 1.386 . S
H1397 C1413 0.930 . S
H1398 C1414 0.931 . S
C1399 H1387 0.929 . S
C1399 C1393 1.390 . S
C1399 C1396 1.386 . S
C1400 C1395 1.490 . S
C1400 C1402 1.395 . S
C1400 C1403 1.403 . S
H1401 C1407 0.930 . S
C1402 H1388 0.930 . S
C1402 C1400 1.395 . S
C1402 C1405 1.403 . S
C1403 C1400 1.403 . S
C1403 C1404 1.524 . S
C1403 C1407 1.400 . S
C1404 H1389 0.960 . S
C1404 H1390 0.960 . S
C1404 H1391 0.960 . S
C1404 C1403 1.524 . S
C1405 C1402 1.403 . S
C1405 C1406 1.392 . S
C1405 C1409 1.495 . S
C1406 C1405 1.392 . S
C1406 C1407 1.385 . S
C1406 C1408 1.478 . S
C1407 H1401 0.930 . S
C1407 C1403 1.400 . S
C1407 C1406 1.385 . S
C1408 C1406 1.478 . S
C1408 C1410 1.381 . S
C1408 C1414 1.383 . S
C1409 C1405 1.495 . S
C1409 H1415 0.959 . S
C1409 H1416 0.961 . S
C1409 H1417 0.960 . S
C1410 C1408 1.381 . S
C1410 C1411 1.394 . S
C1410 H1418 0.930 . S
C1411 C1410 1.394 . S
C1411 C1412 1.383 . S
C1411 H1419 0.929 . S
C1412 C1411 1.383 . S
C1412 C1413 1.377 . S
C1413 H1397 0.930 . S
C1413 C1412 1.377 . S
C1413 C1414 1.379 . S
C1414 H1398 0.931 . S
C1414 C1408 1.383 . S
C1414 C1413 1.379 . S
H1415 C1409 0.959 . S
H1416 C1409 0.961 . S
H1417 C1409 0.960 . S
H1418 C1410 0.930 . S
H1419 C1411 0.929 . S
H1420 C1428 0.929 . S
H1421 C1430 0.930 . S
H1422 C1432 0.930 1_545 S
H1423 C1435 0.929 . S
H1424 C1438 0.930 . S
H1425 C1440 0.960 . S
H1426 C1440 0.960 . S
H1427 C1440 0.960 . S
C1428 H1420 0.929 . S
C1428 C1429 1.377 . S
C1428 C1430 1.384 . S
C1429 C1428 1.377 . S
C1429 C1435 1.390 . S
C1430 H1421 0.930 . S
C1430 C1428 1.384 . S
C1430 C1431 1.372 . S
C1431 C1430 1.372 . S
C1431 C1432 1.400 . S
C1431 C1436 1.490 . S
C1432 H1422 0.930 1_565 S
C1432 C1431 1.400 . S
C1432 C1435 1.386 . S
H1433 C1449 0.930 . S
H1434 C1450 0.931 . S
C1435 H1423 0.929 . S
C1435 C1429 1.390 . S
C1435 C1432 1.386 . S
C1436 C1431 1.490 . S
C1436 C1438 1.395 . S
C1436 C1439 1.403 1_565 S
H1437 C1443 0.930 . S
C1438 H1424 0.930 . S
C1438 C1436 1.395 . S
C1438 C1441 1.403 . S
C1439 C1436 1.403 1_545 S
C1439 C1440 1.524 . S
C1439 C1443 1.400 . S
C1440 H1425 0.960 . S
C1440 H1426 0.960 . S
C1440 H1427 0.960 . S
C1440 C1439 1.524 . S
C1441 C1438 1.403 . S
C1441 C1442 1.392 1_565 S
C1441 C1445 1.495 . S
C1442 C1441 1.392 1_545 S
C1442 C1443 1.385 . S
C1442 C1444 1.478 . S
C1443 H1437 0.930 . S
C1443 C1439 1.400 . S
C1443 C1442 1.385 . S
C1444 C1442 1.478 . S
C1444 C1446 1.381 . S
C1444 C1450 1.383 . S
C1445 C1441 1.495 . S
C1445 H1451 0.959 . S
C1445 H1452 0.961 . S
C1445 H1453 0.960 . S
C1446 C1444 1.381 . S
C1446 C1447 1.394 . S
C1446 H1454 0.930 1_545 S
C1447 C1446 1.394 . S
C1447 C1448 1.383 . S
C1447 H1455 0.929 . S
C1448 C1447 1.383 . S
C1448 C1449 1.377 . S
C1449 H1433 0.930 . S
C1449 C1448 1.377 . S
C1449 C1450 1.379 . S
C1450 H1434 0.931 . S
C1450 C1444 1.383 . S
C1450 C1449 1.379 . S
H1451 C1445 0.959 . S
H1452 C1445 0.961 . S
H1453 C1445 0.960 . S
H1454 C1446 0.930 1_565 S
H1455 C1447 0.929 . S
H1456 C1464 0.929 . S
H1457 C1466 0.930 . S
H1458 C1468 0.930 . S
H1459 C1471 0.929 . S
H1460 C1474 0.930 . S
H1461 C1476 0.960 . S
H1462 C1476 0.960 . S
H1463 C1476 0.960 . S
C1464 H1456 0.929 . S
C1464 C1465 1.377 . S
C1464 C1466 1.384 . S
C1465 C1464 1.377 . S
C1465 C1471 1.390 . S
C1466 H1457 0.930 . S
C1466 C1464 1.384 . S
C1466 C1467 1.372 . S
C1467 C1466 1.372 . S
C1467 C1468 1.400 . S
C1467 C1472 1.490 . S
C1468 H1458 0.930 . S
C1468 C1467 1.400 . S
C1468 C1471 1.386 . S
H1469 C1485 0.930 . S
H1470 C1486 0.931 . S
C1471 H1459 0.929 . S
C1471 C1465 1.390 . S
C1471 C1468 1.386 . S
C1472 C1467 1.490 . S
C1472 C1474 1.395 . S
C1472 C1475 1.403 . S
H1473 C1479 0.930 . S
C1474 H1460 0.930 . S
C1474 C1472 1.395 . S
C1474 C1477 1.403 . S
C1475 C1472 1.403 . S
C1475 C1476 1.524 . S
C1475 C1479 1.400 . S
C1476 H1461 0.960 . S
C1476 H1462 0.960 . S
C1476 H1463 0.960 . S
C1476 C1475 1.524 . S
C1477 C1474 1.403 . S
C1477 C1478 1.392 . S
C1477 C1481 1.495 . S
C1478 C1477 1.392 . S
C1478 C1479 1.385 . S
C1478 C1480 1.478 . S
C1479 H1473 0.930 . S
C1479 C1475 1.400 . S
C1479 C1478 1.385 . S
C1480 C1478 1.478 . S
C1480 C1482 1.381 . S
C1480 C1486 1.383 . S
C1481 C1477 1.495 . S
C1481 H1487 0.959 . S
C1481 H1488 0.961 . S
C1481 H1489 0.960 . S
C1482 C1480 1.381 . S
C1482 C1483 1.394 . S
C1482 H1490 0.930 . S
C1483 C1482 1.394 . S
C1483 C1484 1.383 . S
C1483 H1491 0.929 . S
C1484 C1483 1.383 . S
C1484 C1485 1.377 . S
C1485 H1469 0.930 . S
C1485 C1484 1.377 . S
C1485 C1486 1.379 . S
C1486 H1470 0.931 . S
C1486 C1480 1.383 . S
C1486 C1485 1.379 . S
H1487 C1481 0.959 . S
H1488 C1481 0.961 . S
H1489 C1481 0.960 . S
H1490 C1482 0.930 . S
H1491 C1483 0.929 . S
H1492 C1500 0.929 . S
H1493 C1502 0.930 . S
H1494 C1504 0.930 . S
H1495 C1507 0.929 . S
H1496 C1510 0.930 . S
H1497 C1512 0.960 . S
H1498 C1512 0.960 . S
H1499 C1512 0.960 . S
C1500 H1492 0.929 . S
C1500 C1501 1.377 . S
C1500 C1502 1.384 . S
C1501 C1500 1.377 . S
C1501 C1507 1.390 . S
C1502 H1493 0.930 . S
C1502 C1500 1.384 . S
C1502 C1503 1.372 . S
C1503 C1502 1.372 . S
C1503 C1504 1.400 . S
C1503 C1508 1.490 . S
C1504 H1494 0.930 . S
C1504 C1503 1.400 . S
C1504 C1507 1.386 . S
H1505 C1521 0.930 . S
H1506 C1522 0.931 . S
C1507 H1495 0.929 . S
C1507 C1501 1.390 . S
C1507 C1504 1.386 . S
C1508 C1503 1.490 . S
C1508 C1510 1.395 . S
C1508 C1511 1.403 . S
H1509 C1515 0.930 . S
C1510 H1496 0.930 . S
C1510 C1508 1.395 . S
C1510 C1513 1.403 . S
C1511 C1508 1.403 . S
C1511 C1512 1.524 . S
C1511 C1515 1.400 . S
C1512 H1497 0.960 . S
C1512 H1498 0.960 . S
C1512 H1499 0.960 . S
C1512 C1511 1.524 . S
C1513 C1510 1.403 . S
C1513 C1514 1.392 . S
C1513 C1517 1.495 . S
C1514 C1513 1.392 . S
C1514 C1515 1.385 . S
C1514 C1516 1.478 . S
C1515 H1509 0.930 . S
C1515 C1511 1.400 . S
C1515 C1514 1.385 . S
C1516 C1514 1.478 . S
C1516 C1518 1.381 . S
C1516 C1522 1.383 . S
C1517 C1513 1.495 . S
C1517 H1523 0.959 . S
C1517 H1524 0.961 . S
C1517 H1525 0.960 . S
C1518 C1516 1.381 . S
C1518 C1519 1.394 . S
C1518 H1526 0.930 . S
C1519 C1518 1.394 . S
C1519 C1520 1.383 . S
C1519 H1527 0.929 . S
C1520 C1519 1.383 . S
C1520 C1521 1.377 . S
C1521 H1505 0.930 . S
C1521 C1520 1.377 . S
C1521 C1522 1.379 . S
C1522 H1506 0.931 . S
C1522 C1516 1.383 . S
C1522 C1521 1.379 . S
H1523 C1517 0.959 . S
H1524 C1517 0.961 . S
H1525 C1517 0.960 . S
H1526 C1518 0.930 . S
H1527 C1519 0.929 . S
H1528 C1536 0.929 . S
H1529 C1538 0.930 . S
H1530 C1540 0.930 . S
H1531 C1543 0.929 . S
H1532 C1546 0.930 . S
H1533 C1548 0.960 . S
H1534 C1548 0.960 . S
H1535 C1548 0.960 . S
C1536 H1528 0.929 . S
C1536 C1537 1.377 . S
C1536 C1538 1.384 . S
C1537 C1536 1.377 . S
C1537 C1543 1.390 . S
C1538 H1529 0.930 . S
C1538 C1536 1.384 . S
C1538 C1539 1.372 . S
C1539 C1538 1.372 . S
C1539 C1540 1.400 . S
C1539 C1544 1.490 . S
C1540 H1530 0.930 . S
C1540 C1539 1.400 . S
C1540 C1543 1.386 . S
H1541 C1557 0.930 . S
H1542 C1558 0.931 . S
C1543 H1531 0.929 . S
C1543 C1537 1.390 . S
C1543 C1540 1.386 . S
C1544 C1539 1.490 . S
C1544 C1546 1.395 . S
C1544 C1547 1.403 . S
H1545 C1551 0.930 . S
C1546 H1532 0.930 . S
C1546 C1544 1.395 . S
C1546 C1549 1.403 . S
C1547 C1544 1.403 . S
C1547 C1548 1.524 . S
C1547 C1551 1.400 . S
C1548 H1533 0.960 . S
C1548 H1534 0.960 . S
C1548 H1535 0.960 . S
C1548 C1547 1.524 . S
C1549 C1546 1.403 . S
C1549 C1550 1.392 . S
C1549 C1553 1.495 . S
C1550 C1549 1.392 . S
C1550 C1551 1.385 . S
C1550 C1552 1.478 . S
C1551 H1545 0.930 . S
C1551 C1547 1.400 . S
C1551 C1550 1.385 . S
C1552 C1550 1.478 . S
C1552 C1554 1.381 . S
C1552 C1558 1.383 . S
C1553 C1549 1.495 . S
C1553 H1559 0.959 . S
C1553 H1560 0.961 . S
C1553 H1561 0.960 . S
C1554 C1552 1.381 . S
C1554 C1555 1.394 . S
C1554 H1562 0.930 . S
C1555 C1554 1.394 . S
C1555 C1556 1.383 . S
C1555 H1563 0.929 . S
C1556 C1555 1.383 . S
C1556 C1557 1.377 . S
C1557 H1541 0.930 . S
C1557 C1556 1.377 . S
C1557 C1558 1.379 . S
C1558 H1542 0.931 . S
C1558 C1552 1.383 . S
C1558 C1557 1.379 . S
H1559 C1553 0.959 . S
H1560 C1553 0.961 . S
H1561 C1553 0.960 . S
H1562 C1554 0.930 . S
H1563 C1555 0.929 . S
H1564 C1572 0.929 . S
H1565 C1574 0.930 . S
H1566 C1576 0.930 . S
H1567 C1579 0.929 . S
H1568 C1582 0.930 . S
H1569 C1584 0.960 1_554 S
H1570 C1584 0.960 . S
H1571 C1584 0.960 . S
C1572 H1564 0.929 . S
C1572 C1573 1.377 . S
C1572 C1574 1.384 . S
C1573 C1572 1.377 . S
C1573 C1579 1.390 . S
C1574 H1565 0.930 . S
C1574 C1572 1.384 . S
C1574 C1575 1.372 . S
C1575 C1574 1.372 . S
C1575 C1576 1.400 . S
C1575 C1580 1.490 . S
C1576 H1566 0.930 . S
C1576 C1575 1.400 . S
C1576 C1579 1.386 . S
H1577 C1593 0.930 . S
H1578 C1594 0.931 . S
C1579 H1567 0.929 . S
C1579 C1573 1.390 . S
C1579 C1576 1.386 . S
C1580 C1575 1.490 . S
C1580 C1582 1.395 1_545 S
C1580 C1583 1.403 . S
H1581 C1587 0.930 . S
C1582 H1568 0.930 . S
C1582 C1580 1.395 1_565 S
C1582 C1585 1.403 1_556 S
C1583 C1580 1.403 . S
C1583 C1584 1.524 . S
C1583 C1587 1.400 1_556 S
C1584 H1569 0.960 1_556 S
C1584 H1570 0.960 . S
C1584 H1571 0.960 . S
C1584 C1583 1.524 . S
C1585 C1582 1.403 1_554 S
C1585 C1586 1.392 . S
C1585 C1589 1.495 . S
C1586 C1585 1.392 . S
C1586 C1587 1.385 1_565 S
C1586 C1588 1.478 . S
C1587 H1581 0.930 . S
C1587 C1583 1.400 1_554 S
C1587 C1586 1.385 1_545 S
C1588 C1586 1.478 . S
C1588 C1590 1.381 . S
C1588 C1594 1.383 . S
C1589 C1585 1.495 . S
C1589 H1595 0.934 1_554 S
C1589 H1596 0.961 . S
C1589 H1597 0.960 . S
C1590 C1588 1.381 . S
C1590 C1591 1.394 . S
C1590 H1598 0.930 . S
C1591 C1590 1.394 . S
C1591 C1592 1.383 . S
C1591 H1599 0.929 . S
C1592 C1591 1.383 . S
C1592 C1593 1.377 . S
C1593 H1577 0.930 . S
C1593 C1592 1.377 . S
C1593 C1594 1.379 . S
C1594 H1578 0.931 . S
C1594 C1588 1.383 . S
C1594 C1593 1.379 . S
H1595 C1589 0.934 1_556 S
H1596 C1589 0.961 . S
H1597 C1589 0.960 . S
H1598 C1590 0.930 . S
H1599 C1591 0.929 . S
H1600 C1608 0.929 . S
H1601 C1610 0.930 . S
H1602 C1612 0.930 . S
H1603 C1615 0.929 . S
H1604 C1618 0.930 . S
H1605 C1620 0.960 . S
H1606 C1620 0.960 . S
H1607 C1620 0.960 . S
C1608 H1600 0.929 . S
C1608 C1609 1.377 . S
C1608 C1610 1.384 . S
C1609 C1608 1.377 . S
C1609 C1615 1.390 . S
C1610 H1601 0.930 . S
C1610 C1608 1.384 . S
C1610 C1611 1.372 . S
C1611 C1610 1.372 . S
C1611 C1612 1.400 . S
C1611 C1616 1.490 . S
C1612 H1602 0.930 . S
C1612 C1611 1.400 . S
C1612 C1615 1.386 . S
H1613 C1629 0.930 . S
H1614 C1630 0.931 . S
C1615 H1603 0.929 . S
C1615 C1609 1.390 . S
C1615 C1612 1.386 . S
C1616 C1611 1.490 . S
C1616 C1618 1.395 . S
C1616 C1619 1.403 . S
H1617 C1623 0.930 . S
C1618 H1604 0.930 . S
C1618 C1616 1.395 . S
C1618 C1621 1.403 . S
C1619 C1616 1.403 . S
C1619 C1620 1.524 . S
C1619 C1623 1.400 . S
C1620 H1605 0.960 . S
C1620 H1606 0.960 . S
C1620 H1607 0.960 . S
C1620 C1619 1.524 . S
C1621 C1618 1.403 . S
C1621 C1622 1.392 . S
C1621 C1625 1.495 . S
C1622 C1621 1.392 . S
C1622 C1623 1.385 . S
C1622 C1624 1.478 . S
C1623 H1617 0.930 . S
C1623 C1619 1.400 . S
C1623 C1622 1.385 . S
C1624 C1622 1.478 . S
C1624 C1626 1.381 . S
C1624 C1630 1.383 . S
C1625 C1621 1.495 . S
C1625 H1631 0.959 . S
C1625 H1632 0.961 . S
C1625 H1633 0.960 . S
C1626 C1624 1.381 . S
C1626 C1627 1.394 . S
C1626 H1634 0.930 . S
C1627 C1626 1.394 . S
C1627 C1628 1.383 . S
C1627 H1635 0.929 . S
C1628 C1627 1.383 . S
C1628 C1629 1.377 . S
C1629 H1613 0.930 . S
C1629 C1628 1.377 . S
C1629 C1630 1.379 . S
C1630 H1614 0.931 . S
C1630 C1624 1.383 . S
C1630 C1629 1.379 . S
H1631 C1625 0.959 . S
H1632 C1625 0.961 . S
H1633 C1625 0.960 . S
H1634 C1626 0.930 . S
H1635 C1627 0.929 . S
H1636 C1644 0.929 . S
H1637 C1646 0.930 . S
H1638 C1648 0.930 . S
H1639 C1651 0.929 . S
H1640 C1654 0.930 . S
H1641 C1656 0.960 . S
H1642 C1656 0.960 . S
H1643 C1656 0.960 . S
C1644 H1636 0.929 . S
C1644 C1645 1.377 . S
C1644 C1646 1.384 . S
C1645 C1644 1.377 . S
C1645 C1651 1.390 . S
C1646 H1637 0.930 . S
C1646 C1644 1.384 . S
C1646 C1647 1.372 . S
C1647 C1646 1.372 . S
C1647 C1648 1.400 . S
C1647 C1652 1.490 . S
C1648 H1638 0.930 . S
C1648 C1647 1.400 . S
C1648 C1651 1.386 . S
H1649 C1665 0.930 . S
H1650 C1666 0.931 . S
C1651 H1639 0.929 . S
C1651 C1645 1.390 . S
C1651 C1648 1.386 . S
C1652 C1647 1.490 . S
C1652 C1654 1.395 . S
C1652 C1655 1.403 . S
H1653 C1659 0.930 . S
C1654 H1640 0.930 . S
C1654 C1652 1.395 . S
C1654 C1657 1.403 . S
C1655 C1652 1.403 . S
C1655 C1656 1.524 . S
C1655 C1659 1.400 . S
C1656 H1641 0.960 . S
C1656 H1642 0.960 . S
C1656 H1643 0.960 . S
C1656 C1655 1.524 . S
C1657 C1654 1.403 . S
C1657 C1658 1.392 . S
C1657 C1661 1.495 . S
C1658 C1657 1.392 . S
C1658 C1659 1.385 . S
C1658 C1660 1.478 . S
C1659 H1653 0.930 . S
C1659 C1655 1.400 . S
C1659 C1658 1.385 . S
C1660 C1658 1.478 . S
C1660 C1662 1.381 . S
C1660 C1666 1.383 . S
C1661 C1657 1.495 . S
C1661 H1667 0.959 . S
C1661 H1668 0.961 . S
C1661 H1669 0.960 . S
C1662 C1660 1.381 . S
C1662 C1663 1.394 . S
C1662 H1670 0.930 . S
C1663 C1662 1.394 . S
C1663 C1664 1.383 . S
C1663 H1671 0.929 . S
C1664 C1663 1.383 . S
C1664 C1665 1.377 . S
C1665 H1649 0.930 . S
C1665 C1664 1.377 . S
C1665 C1666 1.379 . S
C1666 H1650 0.931 . S
C1666 C1660 1.383 . S
C1666 C1665 1.379 . S
H1667 C1661 0.959 . S
H1668 C1661 0.961 . S
H1669 C1661 0.960 . S
H1670 C1662 0.930 . S
H1671 C1663 0.929 . S
H1672 C1680 0.929 . S
H1673 C1682 0.930 . S
H1674 C1684 0.930 . S
H1675 C1687 0.929 . S
H1676 C1690 0.930 . S
H1677 C1692 0.960 . S
H1678 C1692 0.960 . S
H1679 C1692 0.960 . S
C1680 H1672 0.929 . S
C1680 C1681 1.377 . S
C1680 C1682 1.384 . S
C1681 C1680 1.377 . S
C1681 C1687 1.390 . S
C1682 H1673 0.930 . S
C1682 C1680 1.384 . S
C1682 C1683 1.372 . S
C1683 C1682 1.372 . S
C1683 C1684 1.400 . S
C1683 C1688 1.490 . S
C1684 H1674 0.930 . S
C1684 C1683 1.400 . S
C1684 C1687 1.386 . S
H1685 C1701 0.930 . S
H1686 C1702 0.931 . S
C1687 H1675 0.929 . S
C1687 C1681 1.390 . S
C1687 C1684 1.386 . S
C1688 C1683 1.490 . S
C1688 C1690 1.395 . S
C1688 C1691 1.403 . S
H1689 C1695 0.930 . S
C1690 H1676 0.930 . S
C1690 C1688 1.395 . S
C1690 C1693 1.403 . S
C1691 C1688 1.403 . S
C1691 C1692 1.524 . S
C1691 C1695 1.400 . S
C1692 H1677 0.960 . S
C1692 H1678 0.960 . S
C1692 H1679 0.960 . S
C1692 C1691 1.524 . S
C1693 C1690 1.403 . S
C1693 C1694 1.392 . S
C1693 C1697 1.495 . S
C1694 C1693 1.392 . S
C1694 C1695 1.385 . S
C1694 C1696 1.478 . S
C1695 H1689 0.930 . S
C1695 C1691 1.400 . S
C1695 C1694 1.385 . S
C1696 C1694 1.478 . S
C1696 C1698 1.381 . S
C1696 C1702 1.383 . S
C1697 C1693 1.495 . S
C1697 H1703 0.959 . S
C1697 H1704 0.961 . S
C1697 H1705 0.960 . S
C1698 C1696 1.381 . S
C1698 C1699 1.394 . S
C1698 H1706 0.930 . S
C1699 C1698 1.394 . S
C1699 C1700 1.383 . S
C1699 H1707 0.929 . S
C1700 C1699 1.383 . S
C1700 C1701 1.377 . S
C1701 H1685 0.930 . S
C1701 C1700 1.377 . S
C1701 C1702 1.379 . S
C1702 H1686 0.931 . S
C1702 C1696 1.383 . S
C1702 C1701 1.379 . S
H1703 C1697 0.959 . S
H1704 C1697 0.961 . S
H1705 C1697 0.960 . S
H1706 C1698 0.930 . S
H1707 C1699 0.929 . S
H1708 C1716 0.929 . S
H1709 C1718 0.930 . S
H1710 C1720 0.930 . S
H1711 C1723 0.929 . S
H1712 C1726 0.930 . S
H1713 C1728 0.960 . S
H1714 C1728 0.960 . S
H1715 C1728 0.960 . S
C1716 H1708 0.929 . S
C1716 C1717 1.377 . S
C1716 C1718 1.384 . S
C1717 C1716 1.377 . S
C1717 C1723 1.390 . S
C1718 H1709 0.930 . S
C1718 C1716 1.384 . S
C1718 C1719 1.372 . S
C1719 C1718 1.372 . S
C1719 C1720 1.400 . S
C1719 C1724 1.490 . S
C1720 H1710 0.930 . S
C1720 C1719 1.400 . S
C1720 C1723 1.386 . S
H1721 C1737 0.930 . S
H1722 C1738 0.931 . S
C1723 H1711 0.929 . S
C1723 C1717 1.390 . S
C1723 C1720 1.386 . S
C1724 C1719 1.490 . S
C1724 C1726 1.395 . S
C1724 C1727 1.403 . S
H1725 C1731 0.930 . S
C1726 H1712 0.930 . S
C1726 C1724 1.395 . S
C1726 C1729 1.403 . S
C1727 C1724 1.403 . S
C1727 C1728 1.524 . S
C1727 C1731 1.400 . S
C1728 H1713 0.960 . S
C1728 H1714 0.960 . S
C1728 H1715 0.960 . S
C1728 C1727 1.524 . S
C1729 C1726 1.403 . S
C1729 C1730 1.392 . S
C1729 C1733 1.495 . S
C1730 C1729 1.392 . S
C1730 C1731 1.385 . S
C1730 C1732 1.478 . S
C1731 H1725 0.930 . S
C1731 C1727 1.400 . S
C1731 C1730 1.385 . S
C1732 C1730 1.478 . S
C1732 C1734 1.381 . S
C1732 C1738 1.383 . S
C1733 C1729 1.495 . S
C1733 H1739 0.959 . S
C1733 H1740 0.961 . S
C1733 H1741 0.960 . S
C1734 C1732 1.381 . S
C1734 C1735 1.394 . S
C1734 H1742 0.930 . S
C1735 C1734 1.394 . S
C1735 C1736 1.383 . S
C1735 H1743 0.929 . S
C1736 C1735 1.383 . S
C1736 C1737 1.377 . S
C1737 H1721 0.930 . S
C1737 C1736 1.377 . S
C1737 C1738 1.379 . S
C1738 H1722 0.931 . S
C1738 C1732 1.383 . S
C1738 C1737 1.379 . S
H1739 C1733 0.959 . S
H1740 C1733 0.961 . S
H1741 C1733 0.960 . S
H1742 C1734 0.930 . S
H1743 C1735 0.929 . S
H1744 C1752 0.929 . S
H1745 C1754 0.930 . S
H1746 C1756 0.930 . S
H1747 C1759 0.929 . S
H1748 C1762 0.930 . S
H1749 C1764 0.960 . S
H1750 C1764 0.960 . S
H1751 C1764 0.960 . S
C1752 H1744 0.929 . S
C1752 C1753 1.377 . S
C1752 C1754 1.384 . S
C1753 C1752 1.377 . S
C1753 C1759 1.390 . S
C1754 H1745 0.930 . S
C1754 C1752 1.384 . S
C1754 C1755 1.372 . S
C1755 C1754 1.372 . S
C1755 C1756 1.400 . S
C1755 C1760 1.490 . S
C1756 H1746 0.930 . S
C1756 C1755 1.400 . S
C1756 C1759 1.386 . S
H1757 C1773 0.930 . S
H1758 C1774 0.931 . S
C1759 H1747 0.929 . S
C1759 C1753 1.390 . S
C1759 C1756 1.386 . S
C1760 C1755 1.490 . S
C1760 C1762 1.395 . S
C1760 C1763 1.403 . S
H1761 C1767 0.930 . S
C1762 H1748 0.930 . S
C1762 C1760 1.395 . S
C1762 C1765 1.403 . S
C1763 C1760 1.403 . S
C1763 C1764 1.524 . S
C1763 C1767 1.400 . S
C1764 H1749 0.960 . S
C1764 H1750 0.960 . S
C1764 H1751 0.960 . S
C1764 C1763 1.524 . S
C1765 C1762 1.403 . S
C1765 C1766 1.392 . S
C1765 C1769 1.495 . S
C1766 C1765 1.392 . S
C1766 C1767 1.385 . S
C1766 C1768 1.478 . S
C1767 H1761 0.930 . S
C1767 C1763 1.400 . S
C1767 C1766 1.385 . S
C1768 C1766 1.478 . S
C1768 C1770 1.381 . S
C1768 C1774 1.383 . S
C1769 C1765 1.495 . S
C1769 H1775 0.959 . S
C1769 H1776 0.961 . S
C1769 H1777 0.960 . S
C1770 C1768 1.381 . S
C1770 C1771 1.394 . S
C1770 H1778 0.930 . S
C1771 C1770 1.394 . S
C1771 C1772 1.383 . S
C1771 H1779 0.929 . S
C1772 C1771 1.383 . S
C1772 C1773 1.377 . S
C1773 H1757 0.930 . S
C1773 C1772 1.377 . S
C1773 C1774 1.379 . S
C1774 H1758 0.931 . S
C1774 C1768 1.383 . S
C1774 C1773 1.379 . S
H1775 C1769 0.959 . S
H1776 C1769 0.961 . S
H1777 C1769 0.960 . S
H1778 C1770 0.930 . S
H1779 C1771 0.929 . S
H1780 C1788 0.929 . S
H1781 C1790 0.930 . S
H1782 C1792 0.930 . S
H1783 C1795 0.929 . S
H1784 C1798 0.930 . S
H1785 C1800 0.960 . S
H1786 C1800 0.960 . S
H1787 C1800 0.960 . S
C1788 H1780 0.929 . S
C1788 C1789 1.377 . S
C1788 C1790 1.384 . S
C1789 C1788 1.377 . S
C1789 C1795 1.390 . S
C1790 H1781 0.930 . S
C1790 C1788 1.384 . S
C1790 C1791 1.372 . S
C1791 C1790 1.372 . S
C1791 C1792 1.400 . S
C1791 C1796 1.490 . S
C1792 H1782 0.930 . S
C1792 C1791 1.400 . S
C1792 C1795 1.386 . S
H1793 C1809 0.930 . S
H1794 C1810 0.931 . S
C1795 H1783 0.929 . S
C1795 C1789 1.390 . S
C1795 C1792 1.386 . S
C1796 C1791 1.490 . S
C1796 C1798 1.395 . S
C1796 C1799 1.403 . S
H1797 C1803 0.930 . S
C1798 H1784 0.930 . S
C1798 C1796 1.395 . S
C1798 C1801 1.403 . S
C1799 C1796 1.403 . S
C1799 C1800 1.524 . S
C1799 C1803 1.400 . S
C1800 H1785 0.960 . S
C1800 H1786 0.960 . S
C1800 H1787 0.960 . S
C1800 C1799 1.524 . S
C1801 C1798 1.403 . S
C1801 C1802 1.392 . S
C1801 C1805 1.495 . S
C1802 C1801 1.392 . S
C1802 C1803 1.385 . S
C1802 C1804 1.478 . S
C1803 H1797 0.930 . S
C1803 C1799 1.400 . S
C1803 C1802 1.385 . S
C1804 C1802 1.478 . S
C1804 C1806 1.381 . S
C1804 C1810 1.383 . S
C1805 C1801 1.495 . S
C1805 H1811 0.959 . S
C1805 H1812 0.961 . S
C1805 H1813 0.960 . S
C1806 C1804 1.381 . S
C1806 C1807 1.394 . S
C1806 H1814 0.930 . S
C1807 C1806 1.394 . S
C1807 C1808 1.383 . S
C1807 H1815 0.929 . S
C1808 C1807 1.383 . S
C1808 C1809 1.377 . S
C1809 H1793 0.930 . S
C1809 C1808 1.377 . S
C1809 C1810 1.379 . S
C1810 H1794 0.931 . S
C1810 C1804 1.383 . S
C1810 C1809 1.379 . S
H1811 C1805 0.959 . S
H1812 C1805 0.961 . S
H1813 C1805 0.960 . S
H1814 C1806 0.930 . S
H1815 C1807 0.929 . S
H1816 C1824 0.929 . S
H1817 C1826 0.930 . S
H1818 C1828 0.930 . S
H1819 C1831 0.929 . S
H1820 C1834 0.930 . S
H1821 C1836 0.960 . S
H1822 C1836 0.960 . S
H1823 C1836 0.960 . S
C1824 H1816 0.929 . S
C1824 C1825 1.377 . S
C1824 C1826 1.384 . S
C1825 C1824 1.377 . S
C1825 C1831 1.390 . S
C1826 H1817 0.930 . S
C1826 C1824 1.384 . S
C1826 C1827 1.372 . S
C1827 C1826 1.372 . S
C1827 C1828 1.400 . S
C1827 C1832 1.490 . S
C1828 H1818 0.930 . S
C1828 C1827 1.400 . S
C1828 C1831 1.386 . S
H1829 C1845 0.930 . S
H1830 C1846 0.931 . S
C1831 H1819 0.929 . S
C1831 C1825 1.390 . S
C1831 C1828 1.386 . S
C1832 C1827 1.490 . S
C1832 C1834 1.395 . S
C1832 C1835 1.403 . S
H1833 C1839 0.930 . S
C1834 H1820 0.930 . S
C1834 C1832 1.395 . S
C1834 C1837 1.403 . S
C1835 C1832 1.403 . S
C1835 C1836 1.524 . S
C1835 C1839 1.400 . S
C1836 H1821 0.960 . S
C1836 H1822 0.960 . S
C1836 H1823 0.960 . S
C1836 C1835 1.524 . S
C1837 C1834 1.403 . S
C1837 C1838 1.392 . S
C1837 C1841 1.495 . S
C1838 C1837 1.392 . S
C1838 C1839 1.385 . S
C1838 C1840 1.478 . S
C1839 H1833 0.930 . S
C1839 C1835 1.400 . S
C1839 C1838 1.385 . S
C1840 C1838 1.478 . S
C1840 C1842 1.381 . S
C1840 C1846 1.383 . S
C1841 C1837 1.495 . S
C1841 H1847 0.959 . S
C1841 H1848 0.961 . S
C1841 H1849 0.960 . S
C1842 C1840 1.381 . S
C1842 C1843 1.394 . S
C1842 H1850 0.930 . S
C1843 C1842 1.394 . S
C1843 C1844 1.383 . S
C1843 H1851 0.929 . S
C1844 C1843 1.383 . S
C1844 C1845 1.377 . S
C1845 H1829 0.930 . S
C1845 C1844 1.377 . S
C1845 C1846 1.379 . S
C1846 H1830 0.931 . S
C1846 C1840 1.383 . S
C1846 C1845 1.379 . S
H1847 C1841 0.959 . S
H1848 C1841 0.961 . S
H1849 C1841 0.960 . S
H1850 C1842 0.930 . S
H1851 C1843 0.929 . S
H1852 C1860 0.929 . S
H1853 C1862 0.930 . S
H1854 C1864 0.930 . S
H1855 C1867 0.929 . S
H1856 C1870 0.930 . S
H1857 C1872 0.960 . S
H1858 C1872 0.960 . S
H1859 C1872 0.960 . S
C1860 H1852 0.929 . S
C1860 C1861 1.377 . S
C1860 C1862 1.384 . S
C1861 C1860 1.377 . S
C1861 C1867 1.390 . S
C1862 H1853 0.930 . S
C1862 C1860 1.384 . S
C1862 C1863 1.372 . S
C1863 C1862 1.372 . S
C1863 C1864 1.400 . S
C1863 C1868 1.490 . S
C1864 H1854 0.930 . S
C1864 C1863 1.400 . S
C1864 C1867 1.386 . S
H1865 C1881 0.930 . S
H1866 C1882 0.931 . S
C1867 H1855 0.929 . S
C1867 C1861 1.390 . S
C1867 C1864 1.386 . S
C1868 C1863 1.490 . S
C1868 C1870 1.395 . S
C1868 C1871 1.403 . S
H1869 C1875 0.930 . S
C1870 H1856 0.930 . S
C1870 C1868 1.395 . S
C1870 C1873 1.403 . S
C1871 C1868 1.403 . S
C1871 C1872 1.524 . S
C1871 C1875 1.400 . S
C1872 H1857 0.960 . S
C1872 H1858 0.960 . S
C1872 H1859 0.960 . S
C1872 C1871 1.524 . S
C1873 C1870 1.403 . S
C1873 C1874 1.392 . S
C1873 C1877 1.495 . S
C1874 C1873 1.392 . S
C1874 C1875 1.385 . S
C1874 C1876 1.478 . S
C1875 H1869 0.930 . S
C1875 C1871 1.400 . S
C1875 C1874 1.385 . S
C1876 C1874 1.478 . S
C1876 C1878 1.381 . S
C1876 C1882 1.383 . S
C1877 C1873 1.495 . S
C1877 H1883 0.959 . S
C1877 H1884 0.961 . S
C1877 H1885 0.960 . S
C1878 C1876 1.381 . S
C1878 C1879 1.394 . S
C1878 H1886 0.930 . S
C1879 C1878 1.394 . S
C1879 C1880 1.383 . S
C1879 H1887 0.929 . S
C1880 C1879 1.383 . S
C1880 C1881 1.377 . S
C1881 H1865 0.930 . S
C1881 C1880 1.377 . S
C1881 C1882 1.379 . S
C1882 H1866 0.931 . S
C1882 C1876 1.383 . S
C1882 C1881 1.379 . S
H1883 C1877 0.959 . S
H1884 C1877 0.961 . S
H1885 C1877 0.960 . S
H1886 C1878 0.930 . S
H1887 C1879 0.929 . S
H1888 C1896 0.929 . S
H1889 C1898 0.930 . S
H1890 C1900 0.930 . S
H1891 C1903 0.929 . S
H1892 C1906 0.930 . S
H1893 C1908 0.960 . S
H1894 C1908 0.960 . S
H1895 C1908 0.960 . S
C1896 H1888 0.929 . S
C1896 C1897 1.377 . S
C1896 C1898 1.384 . S
C1897 C1896 1.377 . S
C1897 C1903 1.390 . S
C1898 H1889 0.930 . S
C1898 C1896 1.384 . S
C1898 C1899 1.372 . S
C1899 C1898 1.372 . S
C1899 C1900 1.400 . S
C1899 C1904 1.490 . S
C1900 H1890 0.930 . S
C1900 C1899 1.400 . S
C1900 C1903 1.386 . S
H1901 C1917 0.930 . S
H1902 C1918 0.931 . S
C1903 H1891 0.929 . S
C1903 C1897 1.390 . S
C1903 C1900 1.386 . S
C1904 C1899 1.490 . S
C1904 C1906 1.395 . S
C1904 C1907 1.403 . S
H1905 C1911 0.930 . S
C1906 H1892 0.930 . S
C1906 C1904 1.395 . S
C1906 C1909 1.403 . S
C1907 C1904 1.403 . S
C1907 C1908 1.524 . S
C1907 C1911 1.400 . S
C1908 H1893 0.960 . S
C1908 H1894 0.960 . S
C1908 H1895 0.960 . S
C1908 C1907 1.524 . S
C1909 C1906 1.403 . S
C1909 C1910 1.392 . S
C1909 C1913 1.495 . S
C1910 C1909 1.392 . S
C1910 C1911 1.385 . S
C1910 C1912 1.478 . S
C1911 H1905 0.930 . S
C1911 C1907 1.400 . S
C1911 C1910 1.385 . S
C1912 C1910 1.478 . S
C1912 C1914 1.381 . S
C1912 C1918 1.383 . S
C1913 C1909 1.495 . S
C1913 H1919 0.959 . S
C1913 H1920 0.961 . S
C1913 H1921 0.960 . S
C1914 C1912 1.381 . S
C1914 C1915 1.394 . S
C1914 H1922 0.930 . S
C1915 C1914 1.394 . S
C1915 C1916 1.383 . S
C1915 H1923 0.929 . S
C1916 C1915 1.383 . S
C1916 C1917 1.377 . S
C1917 H1901 0.930 . S
C1917 C1916 1.377 . S
C1917 C1918 1.379 . S
C1918 H1902 0.931 . S
C1918 C1912 1.383 . S
C1918 C1917 1.379 . S
H1919 C1913 0.959 . S
H1920 C1913 0.961 . S
H1921 C1913 0.960 . S
H1922 C1914 0.930 . S
H1923 C1915 0.929 . S
H1924 C1932 0.929 . S
H1925 C1934 0.930 . S
H1926 C1936 0.930 . S
H1927 C1939 0.929 . S
H1928 C1942 0.930 . S
H1929 C1944 0.960 . S
H1930 C1944 0.960 . S
H1931 C1944 0.960 . S
C1932 H1924 0.929 . S
C1932 C1933 1.377 . S
C1932 C1934 1.384 . S
C1933 C1932 1.377 . S
C1933 C1939 1.390 . S
C1934 H1925 0.930 . S
C1934 C1932 1.384 . S
C1934 C1935 1.372 . S
C1935 C1934 1.372 . S
C1935 C1936 1.400 . S
C1935 C1940 1.490 . S
C1936 H1926 0.930 . S
C1936 C1935 1.400 . S
C1936 C1939 1.386 . S
H1937 C1953 0.930 . S
H1938 C1954 0.931 . S
C1939 H1927 0.929 . S
C1939 C1933 1.390 . S
C1939 C1936 1.386 . S
C1940 C1935 1.490 . S
C1940 C1942 1.395 . S
C1940 C1943 1.403 . S
H1941 C1947 0.930 . S
C1942 H1928 0.930 . S
C1942 C1940 1.395 . S
C1942 C1945 1.403 . S
C1943 C1940 1.403 . S
C1943 C1944 1.524 . S
C1943 C1947 1.400 . S
C1944 H1929 0.960 . S
C1944 H1930 0.960 . S
C1944 H1931 0.960 . S
C1944 C1943 1.524 . S
C1945 C1942 1.403 . S
C1945 C1946 1.392 . S
C1945 C1949 1.495 . S
C1946 C1945 1.392 . S
C1946 C1947 1.385 . S
C1946 C1948 1.478 . S
C1947 H1941 0.930 . S
C1947 C1943 1.400 . S
C1947 C1946 1.385 . S
C1948 C1946 1.478 . S
C1948 C1950 1.381 . S
C1948 C1954 1.383 . S
C1949 C1945 1.495 . S
C1949 H1955 0.959 . S
C1949 H1956 0.961 . S
C1949 H1957 0.960 . S
C1950 C1948 1.381 . S
C1950 C1951 1.394 . S
C1950 H1958 0.930 . S
C1951 C1950 1.394 . S
C1951 C1952 1.383 . S
C1951 H1959 0.929 . S
C1952 C1951 1.383 . S
C1952 C1953 1.377 . S
C1953 H1937 0.930 . S
C1953 C1952 1.377 . S
C1953 C1954 1.379 . S
C1954 H1938 0.931 . S
C1954 C1948 1.383 . S
C1954 C1953 1.379 . S
H1955 C1949 0.959 . S
H1956 C1949 0.961 . S
H1957 C1949 0.960 . S
H1958 C1950 0.930 . S
H1959 C1951 0.929 . S
H1960 C1968 0.929 . S
H1961 C1970 0.930 . S
H1962 C1972 0.930 . S
H1963 C1975 0.929 . S
H1964 C1978 0.930 . S
H1965 C1980 0.960 . S
H1966 C1980 0.960 . S
H1967 C1980 0.960 . S
C1968 H1960 0.929 . S
C1968 C1969 1.377 . S
C1968 C1970 1.384 . S
C1969 C1968 1.377 . S
C1969 C1975 1.390 . S
C1970 H1961 0.930 . S
C1970 C1968 1.384 . S
C1970 C1971 1.372 . S
C1971 C1970 1.372 . S
C1971 C1972 1.400 . S
C1971 C1976 1.490 . S
C1972 H1962 0.930 . S
C1972 C1971 1.400 . S
C1972 C1975 1.386 . S
H1973 C1989 0.930 . S
H1974 C1990 0.931 . S
C1975 H1963 0.929 . S
C1975 C1969 1.390 . S
C1975 C1972 1.386 . S
C1976 C1971 1.490 . S
C1976 C1978 1.395 . S
C1976 C1979 1.403 . S
H1977 C1983 0.930 . S
C1978 H1964 0.930 . S
C1978 C1976 1.395 . S
C1978 C1981 1.403 . S
C1979 C1976 1.403 . S
C1979 C1980 1.524 . S
C1979 C1983 1.400 . S
C1980 H1965 0.960 . S
C1980 H1966 0.960 . S
C1980 H1967 0.960 . S
C1980 C1979 1.524 . S
C1981 C1978 1.403 . S
C1981 C1982 1.392 . S
C1981 C1985 1.495 . S
C1982 C1981 1.392 . S
C1982 C1983 1.385 . S
C1982 C1984 1.478 . S
C1983 H1977 0.930 . S
C1983 C1979 1.400 . S
C1983 C1982 1.385 . S
C1984 C1982 1.478 . S
C1984 C1986 1.381 . S
C1984 C1990 1.383 . S
C1985 C1981 1.495 . S
C1985 H1991 0.959 . S
C1985 H1992 0.961 . S
C1985 H1993 0.960 . S
C1986 C1984 1.381 . S
C1986 C1987 1.394 . S
C1986 H1994 0.930 . S
C1987 C1986 1.394 . S
C1987 C1988 1.383 . S
C1987 H1995 0.929 . S
C1988 C1987 1.383 . S
C1988 C1989 1.377 . S
C1989 H1973 0.930 . S
C1989 C1988 1.377 . S
C1989 C1990 1.379 . S
C1990 H1974 0.931 . S
C1990 C1984 1.383 . S
C1990 C1989 1.379 . S
H1991 C1985 0.959 . S
H1992 C1985 0.961 . S
H1993 C1985 0.960 . S
H1994 C1986 0.930 . S
H1995 C1987 0.929 . S
H1996 C2004 0.929 . S
H1997 C2006 0.930 . S
H1998 C2008 0.930 . S
H1999 C2011 0.929 . S
H2000 C2014 0.930 . S
H2001 C2016 0.960 . S
H2002 C2016 0.960 . S
H2003 C2016 0.960 . S
C2004 H1996 0.929 . S
C2004 C2005 1.377 . S
C2004 C2006 1.384 . S
C2005 C2004 1.377 . S
C2005 C2011 1.390 . S
C2006 H1997 0.930 . S
C2006 C2004 1.384 . S
C2006 C2007 1.372 . S
C2007 C2006 1.372 . S
C2007 C2008 1.400 . S
C2007 C2012 1.490 . S
C2008 H1998 0.930 . S
C2008 C2007 1.400 . S
C2008 C2011 1.386 . S
H2009 C2025 0.930 . S
H2010 C2026 0.931 . S
C2011 H1999 0.929 . S
C2011 C2005 1.390 . S
C2011 C2008 1.386 . S
C2012 C2007 1.490 . S
C2012 C2014 1.395 . S
C2012 C2015 1.403 . S
H2013 C2019 0.930 . S
C2014 H2000 0.930 . S
C2014 C2012 1.395 . S
C2014 C2017 1.403 . S
C2015 C2012 1.403 . S
C2015 C2016 1.524 . S
C2015 C2019 1.400 . S
C2016 H2001 0.960 . S
C2016 H2002 0.960 . S
C2016 H2003 0.960 . S
C2016 C2015 1.524 . S
C2017 C2014 1.403 . S
C2017 C2018 1.392 . S
C2017 C2021 1.495 . S
C2018 C2017 1.392 . S
C2018 C2019 1.385 . S
C2018 C2020 1.478 . S
C2019 H2013 0.930 . S
C2019 C2015 1.400 . S
C2019 C2018 1.385 . S
C2020 C2018 1.478 . S
C2020 C2022 1.381 . S
C2020 C2026 1.383 . S
C2021 C2017 1.495 . S
C2021 H2027 0.959 . S
C2021 H2028 0.961 . S
C2021 H2029 0.960 . S
C2022 C2020 1.381 . S
C2022 C2023 1.394 . S
C2022 H2030 0.930 . S
C2023 C2022 1.394 . S
C2023 C2024 1.383 . S
C2023 H2031 0.929 . S
C2024 C2023 1.383 . S
C2024 C2025 1.377 . S
C2025 H2009 0.930 . S
C2025 C2024 1.377 . S
C2025 C2026 1.379 . S
C2026 H2010 0.931 . S
C2026 C2020 1.383 . S
C2026 C2025 1.379 . S
H2027 C2021 0.959 . S
H2028 C2021 0.961 . S
H2029 C2021 0.960 . S
H2030 C2022 0.930 . S
H2031 C2023 0.929 . S
H2032 C2040 0.929 . S
H2033 C2042 0.930 . S
H2034 C2044 0.930 . S
H2035 C2047 0.929 . S
H2036 C2050 0.930 . S
H2037 C2052 0.960 . S
H2038 C2052 0.960 . S
H2039 C2052 0.960 . S
C2040 H2032 0.929 . S
C2040 C2041 1.377 . S
C2040 C2042 1.384 . S
C2041 C2040 1.377 . S
C2041 C2047 1.390 . S
C2042 H2033 0.930 . S
C2042 C2040 1.384 . S
C2042 C2043 1.372 . S
C2043 C2042 1.372 . S
C2043 C2044 1.400 . S
C2043 C2048 1.490 . S
C2044 H2034 0.930 . S
C2044 C2043 1.400 . S
C2044 C2047 1.386 . S
H2045 C2061 0.930 . S
H2046 C2062 0.931 . S
C2047 H2035 0.929 . S
C2047 C2041 1.390 . S
C2047 C2044 1.386 . S
C2048 C2043 1.490 . S
C2048 C2050 1.395 . S
C2048 C2051 1.403 . S
H2049 C2055 0.930 . S
C2050 H2036 0.930 . S
C2050 C2048 1.395 . S
C2050 C2053 1.403 . S
C2051 C2048 1.403 . S
C2051 C2052 1.524 . S
C2051 C2055 1.400 . S
C2052 H2037 0.960 . S
C2052 H2038 0.960 . S
C2052 H2039 0.960 . S
C2052 C2051 1.524 . S
C2053 C2050 1.403 . S
C2053 C2054 1.392 . S
C2053 C2057 1.495 . S
C2054 C2053 1.392 . S
C2054 C2055 1.385 . S
C2054 C2056 1.478 . S
C2055 H2049 0.930 . S
C2055 C2051 1.400 . S
C2055 C2054 1.385 . S
C2056 C2054 1.478 . S
C2056 C2058 1.381 . S
C2056 C2062 1.383 . S
C2057 C2053 1.495 . S
C2057 H2063 0.959 . S
C2057 H2064 0.961 . S
C2057 H2065 0.960 . S
C2058 C2056 1.381 . S
C2058 C2059 1.394 . S
C2058 H2066 0.930 . S
C2059 C2058 1.394 . S
C2059 C2060 1.383 . S
C2059 H2067 0.929 . S
C2060 C2059 1.383 . S
C2060 C2061 1.377 . S
C2061 H2045 0.930 . S
C2061 C2060 1.377 . S
C2061 C2062 1.379 . S
C2062 H2046 0.931 . S
C2062 C2056 1.383 . S
C2062 C2061 1.379 . S
H2063 C2057 0.959 . S
H2064 C2057 0.961 . S
H2065 C2057 0.960 . S
H2066 C2058 0.930 . S
H2067 C2059 0.929 . S
H2068 C2076 0.929 . S
H2069 C2078 0.930 . S
H2070 C2080 0.930 . S
H2071 C2083 0.929 . S
H2072 C2086 0.930 . S
H2073 C2088 0.960 . S
H2074 C2088 0.960 . S
H2075 C2088 0.960 . S
C2076 H2068 0.929 . S
C2076 C2077 1.377 . S
C2076 C2078 1.384 . S
C2077 C2076 1.377 . S
C2077 C2083 1.390 . S
C2078 H2069 0.930 . S
C2078 C2076 1.384 . S
C2078 C2079 1.372 . S
C2079 C2078 1.372 . S
C2079 C2080 1.400 . S
C2079 C2084 1.490 . S
C2080 H2070 0.930 . S
C2080 C2079 1.400 . S
C2080 C2083 1.386 . S
H2081 C2097 0.930 . S
H2082 C2098 0.931 . S
C2083 H2071 0.929 . S
C2083 C2077 1.390 . S
C2083 C2080 1.386 . S
C2084 C2079 1.490 . S
C2084 C2086 1.395 . S
C2084 C2087 1.403 . S
H2085 C2091 0.930 . S
C2086 H2072 0.930 . S
C2086 C2084 1.395 . S
C2086 C2089 1.403 . S
C2087 C2084 1.403 . S
C2087 C2088 1.524 . S
C2087 C2091 1.400 . S
C2088 H2073 0.960 . S
C2088 H2074 0.960 . S
C2088 H2075 0.960 . S
C2088 C2087 1.524 . S
C2089 C2086 1.403 . S
C2089 C2090 1.392 . S
C2089 C2093 1.495 . S
C2090 C2089 1.392 . S
C2090 C2091 1.385 . S
C2090 C2092 1.478 . S
C2091 H2085 0.930 . S
C2091 C2087 1.400 . S
C2091 C2090 1.385 . S
C2092 C2090 1.478 . S
C2092 C2094 1.381 . S
C2092 C2098 1.383 . S
C2093 C2089 1.495 . S
C2093 H2099 0.959 . S
C2093 H2100 0.961 . S
C2093 H2101 0.960 . S
C2094 C2092 1.381 . S
C2094 C2095 1.394 . S
C2094 H2102 0.930 . S
C2095 C2094 1.394 . S
C2095 C2096 1.383 . S
C2095 H2103 0.929 . S
C2096 C2095 1.383 . S
C2096 C2097 1.377 . S
C2097 H2081 0.930 . S
C2097 C2096 1.377 . S
C2097 C2098 1.379 . S
C2098 H2082 0.931 . S
C2098 C2092 1.383 . S
C2098 C2097 1.379 . S
H2099 C2093 0.959 . S
H2100 C2093 0.961 . S
H2101 C2093 0.960 . S
H2102 C2094 0.930 . S
H2103 C2095 0.929 . S
H2104 C2112 0.929 . S
H2105 C2114 0.930 . S
H2106 C2116 0.930 . S
H2107 C2119 0.929 . S
H2108 C2122 0.930 . S
H2109 C2124 0.960 . S
H2110 C2124 0.960 . S
H2111 C2124 0.960 . S
C2112 H2104 0.929 . S
C2112 C2113 1.377 . S
C2112 C2114 1.384 . S
C2113 C2112 1.377 . S
C2113 C2119 1.390 . S
C2114 H2105 0.930 . S
C2114 C2112 1.384 . S
C2114 C2115 1.372 . S
C2115 C2114 1.372 . S
C2115 C2116 1.400 . S
C2115 C2120 1.490 . S
C2116 H2106 0.930 . S
C2116 C2115 1.400 . S
C2116 C2119 1.386 . S
H2117 C2133 0.930 . S
H2118 C2134 0.931 . S
C2119 H2107 0.929 . S
C2119 C2113 1.390 . S
C2119 C2116 1.386 . S
C2120 C2115 1.490 . S
C2120 C2122 1.395 . S
C2120 C2123 1.403 . S
H2121 C2127 0.930 . S
C2122 H2108 0.930 . S
C2122 C2120 1.395 . S
C2122 C2125 1.403 . S
C2123 C2120 1.403 . S
C2123 C2124 1.524 . S
C2123 C2127 1.400 . S
C2124 H2109 0.960 . S
C2124 H2110 0.960 . S
C2124 H2111 0.960 . S
C2124 C2123 1.524 . S
C2125 C2122 1.403 . S
C2125 C2126 1.392 . S
C2125 C2129 1.495 . S
C2126 C2125 1.392 . S
C2126 C2127 1.385 . S
C2126 C2128 1.478 . S
C2127 H2121 0.930 . S
C2127 C2123 1.400 . S
C2127 C2126 1.385 . S
C2128 C2126 1.478 . S
C2128 C2130 1.381 . S
C2128 C2134 1.383 . S
C2129 C2125 1.495 . S
C2129 H2135 0.959 . S
C2129 H2136 0.961 . S
C2129 H2137 0.960 . S
C2130 C2128 1.381 . S
C2130 C2131 1.394 . S
C2130 H2138 0.930 . S
C2131 C2130 1.394 . S
C2131 C2132 1.383 . S
C2131 H2139 0.929 . S
C2132 C2131 1.383 . S
C2132 C2133 1.377 . S
C2133 H2117 0.930 . S
C2133 C2132 1.377 . S
C2133 C2134 1.379 . S
C2134 H2118 0.931 . S
C2134 C2128 1.383 . S
C2134 C2133 1.379 . S
H2135 C2129 0.959 . S
H2136 C2129 0.961 . S
H2137 C2129 0.960 . S
H2138 C2130 0.930 . S
H2139 C2131 0.929 . S
H2140 C2148 0.929 . S
H2141 C2150 0.930 . S
H2142 C2152 0.930 . S
H2143 C2155 0.929 . S
H2144 C2158 0.930 . S
H2145 C2160 0.960 . S
H2146 C2160 0.960 . S
H2147 C2160 0.960 . S
C2148 H2140 0.929 . S
C2148 C2149 1.377 . S
C2148 C2150 1.384 . S
C2149 C2148 1.377 . S
C2149 C2155 1.390 . S
C2150 H2141 0.930 . S
C2150 C2148 1.384 . S
C2150 C2151 1.372 . S
C2151 C2150 1.372 . S
C2151 C2152 1.400 . S
C2151 C2156 1.490 . S
C2152 H2142 0.930 . S
C2152 C2151 1.400 . S
C2152 C2155 1.386 . S
H2153 C2169 0.930 . S
H2154 C2170 0.931 . S
C2155 H2143 0.929 . S
C2155 C2149 1.390 . S
C2155 C2152 1.386 . S
C2156 C2151 1.490 . S
C2156 C2158 1.395 . S
C2156 C2159 1.403 . S
H2157 C2163 0.930 . S
C2158 H2144 0.930 . S
C2158 C2156 1.395 . S
C2158 C2161 1.403 . S
C2159 C2156 1.403 . S
C2159 C2160 1.524 . S
C2159 C2163 1.400 . S
C2160 H2145 0.960 . S
C2160 H2146 0.960 . S
C2160 H2147 0.960 . S
C2160 C2159 1.524 . S
C2161 C2158 1.403 . S
C2161 C2162 1.392 . S
C2161 C2165 1.495 . S
C2162 C2161 1.392 . S
C2162 C2163 1.385 . S
C2162 C2164 1.478 . S
C2163 H2157 0.930 . S
C2163 C2159 1.400 . S
C2163 C2162 1.385 . S
C2164 C2162 1.478 . S
C2164 C2166 1.381 . S
C2164 C2170 1.383 . S
C2165 C2161 1.495 . S
C2165 H2171 0.959 . S
C2165 H2172 0.961 . S
C2165 H2173 0.960 . S
C2166 C2164 1.381 . S
C2166 C2167 1.394 . S
C2166 H2174 0.930 . S
C2167 C2166 1.394 . S
C2167 C2168 1.383 . S
C2167 H2175 0.929 . S
C2168 C2167 1.383 . S
C2168 C2169 1.377 . S
C2169 H2153 0.930 . S
C2169 C2168 1.377 . S
C2169 C2170 1.379 . S
C2170 H2154 0.931 . S
C2170 C2164 1.383 . S
C2170 C2169 1.379 . S
H2171 C2165 0.959 . S
H2172 C2165 0.961 . S
H2173 C2165 0.960 . S
H2174 C2166 0.930 . S
H2175 C2167 0.929 . S
H2176 C2184 0.929 . S
H2177 C2186 0.930 . S
H2178 C2188 0.930 . S
H2179 C2191 0.929 1_565 S
H2180 C2194 0.930 . S
H2181 C2196 0.960 . S
H2182 C2196 0.960 . S
H2183 C2196 0.960 . S
C2184 H2176 0.929 . S
C2184 C2185 1.377 . S
C2184 C2186 1.384 1_565 S
C2185 C2184 1.377 . S
C2185 C2191 1.390 1_565 S
C2186 H2177 0.930 . S
C2186 C2184 1.384 1_545 S
C2186 C2187 1.372 . S
C2187 C2186 1.372 . S
C2187 C2188 1.400 . S
C2187 C2192 1.490 . S
C2188 H2178 0.930 . S
C2188 C2187 1.400 . S
C2188 C2191 1.386 . S
H2189 C2205 0.930 . S
H2190 C2206 0.931 . S
C2191 H2179 0.929 1_545 S
C2191 C2185 1.390 1_545 S
C2191 C2188 1.386 . S
C2192 C2187 1.490 . S
C2192 C2194 1.395 . S
C2192 C2195 1.403 . S
H2193 C2199 0.930 . S
C2194 H2180 0.930 . S
C2194 C2192 1.395 . S
C2194 C2197 1.403 . S
C2195 C2192 1.403 . S
C2195 C2196 1.524 . S
C2195 C2199 1.400 . S
C2196 H2181 0.960 . S
C2196 H2182 0.960 . S
C2196 H2183 0.960 . S
C2196 C2195 1.524 . S
C2197 C2194 1.403 . S
C2197 C2198 1.392 . S
C2197 C2201 1.495 . S
C2198 C2197 1.392 . S
C2198 C2199 1.385 . S
C2198 C2200 1.478 . S
C2199 H2193 0.930 . S
C2199 C2195 1.400 . S
C2199 C2198 1.385 . S
C2200 C2198 1.478 . S
C2200 C2202 1.381 . S
C2200 C2206 1.383 . S
C2201 C2197 1.495 . S
C2201 H2207 0.959 . S
C2201 H2208 0.961 . S
C2201 H2209 0.960 . S
C2202 C2200 1.381 . S
C2202 C2203 1.394 . S
C2202 H2210 0.930 . S
C2203 C2202 1.394 . S
C2203 C2204 1.383 . S
C2203 H2211 0.929 . S
C2204 C2203 1.383 . S
C2204 C2205 1.377 . S
C2205 H2189 0.930 . S
C2205 C2204 1.377 . S
C2205 C2206 1.379 . S
C2206 H2190 0.931 . S
C2206 C2200 1.383 . S
C2206 C2205 1.379 . S
H2207 C2201 0.959 . S
H2208 C2201 0.961 . S
H2209 C2201 0.960 . S
H2210 C2202 0.930 . S
H2211 C2203 0.929 . S
H2212 C2220 0.929 . S
H2213 C2222 0.930 . S
H2214 C2224 0.930 . S
H2215 C2227 0.929 . S
H2216 C2230 0.930 . S
H2217 C2232 0.960 . S
H2218 C2232 0.960 . S
H2219 C2232 0.960 . S
C2220 H2212 0.929 . S
C2220 C2221 1.377 . S
C2220 C2222 1.384 1_565 S
C2221 C2220 1.377 . S
C2221 C2227 1.390 . S
C2222 H2213 0.930 . S
C2222 C2220 1.384 1_545 S
C2222 C2223 1.372 . S
C2223 C2222 1.372 . S
C2223 C2224 1.400 . S
C2223 C2228 1.490 . S
C2224 H2214 0.930 . S
C2224 C2223 1.400 . S
C2224 C2227 1.386 1_545 S
H2225 C2241 0.930 . S
H2226 C2242 0.931 . S
C2227 H2215 0.929 . S
C2227 C2221 1.390 . S
C2227 C2224 1.386 1_565 S
C2228 C2223 1.490 . S
C2228 C2230 1.395 . S
C2228 C2231 1.403 . S
H2229 C2235 0.930 . S
C2230 H2216 0.930 . S
C2230 C2228 1.395 . S
C2230 C2233 1.403 . S
C2231 C2228 1.403 . S
C2231 C2232 1.524 . S
C2231 C2235 1.400 . S
C2232 H2217 0.960 . S
C2232 H2218 0.960 . S
C2232 H2219 0.960 . S
C2232 C2231 1.524 . S
C2233 C2230 1.403 . S
C2233 C2234 1.392 . S
C2233 C2237 1.495 . S
C2234 C2233 1.392 . S
C2234 C2235 1.385 . S
C2234 C2236 1.478 . S
C2235 H2229 0.930 . S
C2235 C2231 1.400 . S
C2235 C2234 1.385 . S
C2236 C2234 1.478 . S
C2236 C2238 1.381 . S
C2236 C2242 1.383 . S
C2237 C2233 1.495 . S
C2237 H2243 0.959 . S
C2237 H2244 0.961 . S
C2237 H2245 0.960 . S
C2238 C2236 1.381 . S
C2238 C2239 1.394 . S
C2238 H2246 0.930 . S
C2239 C2238 1.394 . S
C2239 C2240 1.383 . S
C2239 H2247 0.929 . S
C2240 C2239 1.383 . S
C2240 C2241 1.377 . S
C2241 H2225 0.930 . S
C2241 C2240 1.377 . S
C2241 C2242 1.379 . S
C2242 H2226 0.931 . S
C2242 C2236 1.383 . S
C2242 C2241 1.379 . S
H2243 C2237 0.959 . S
H2244 C2237 0.961 . S
H2245 C2237 0.960 . S
H2246 C2238 0.930 . S
H2247 C2239 0.929 . S
H2248 C2256 0.929 . S
H2249 C2258 0.930 . S
H2250 C2260 0.930 . S
H2251 C2263 0.929 . S
H2252 C2266 0.930 . S
H2253 C2268 0.960 . S
H2254 C2268 0.960 . S
H2255 C2268 0.960 . S
C2256 H2248 0.929 . S
C2256 C2257 1.377 . S
C2256 C2258 1.384 . S
C2257 C2256 1.377 . S
C2257 C2263 1.390 . S
C2258 H2249 0.930 . S
C2258 C2256 1.384 . S
C2258 C2259 1.372 . S
C2259 C2258 1.372 . S
C2259 C2260 1.400 . S
C2259 C2264 1.490 . S
C2260 H2250 0.930 . S
C2260 C2259 1.400 . S
C2260 C2263 1.386 . S
H2261 C2277 0.930 . S
H2262 C2278 0.931 . S
C2263 H2251 0.929 . S
C2263 C2257 1.390 . S
C2263 C2260 1.386 . S
C2264 C2259 1.490 . S
C2264 C2266 1.395 . S
C2264 C2267 1.403 . S
H2265 C2271 0.930 . S
C2266 H2252 0.930 . S
C2266 C2264 1.395 . S
C2266 C2269 1.403 . S
C2267 C2264 1.403 . S
C2267 C2268 1.524 . S
C2267 C2271 1.400 . S
C2268 H2253 0.960 . S
C2268 H2254 0.960 . S
C2268 H2255 0.960 . S
C2268 C2267 1.524 . S
C2269 C2266 1.403 . S
C2269 C2270 1.392 . S
C2269 C2273 1.495 . S
C2270 C2269 1.392 . S
C2270 C2271 1.385 . S
C2270 C2272 1.478 . S
C2271 H2265 0.930 . S
C2271 C2267 1.400 . S
C2271 C2270 1.385 . S
C2272 C2270 1.478 . S
C2272 C2274 1.381 . S
C2272 C2278 1.383 . S
C2273 C2269 1.495 . S
C2273 H2279 0.959 . S
C2273 H2280 0.961 . S
C2273 H2281 0.960 . S
C2274 C2272 1.381 . S
C2274 C2275 1.385 1_565 S
C2274 H2282 0.930 . S
C2275 C2274 1.385 1_545 S
C2275 C2276 1.389 . S
C2275 H2283 0.932 . S
C2276 C2275 1.389 . S
C2276 C2277 1.377 . S
C2277 H2261 0.930 . S
C2277 C2276 1.377 . S
C2277 C2278 1.379 1_545 S
C2278 H2262 0.931 . S
C2278 C2272 1.383 . S
C2278 C2277 1.379 1_565 S
H2279 C2273 0.959 . S
H2280 C2273 0.961 . S
H2281 C2273 0.960 . S
H2282 C2274 0.930 . S
H2283 C2275 0.932 . S
H2284 C2292 0.929 . S
H2285 C2294 0.930 . S
H2286 C2296 0.930 . S
H2287 C2299 0.929 1_545 S
H2288 C2302 0.930 . S
H2289 C2304 0.960 . S
H2290 C2304 0.960 . S
H2291 C2304 0.960 . S
C2292 H2284 0.929 . S
C2292 C2293 1.377 . S
C2292 C2294 1.384 1_545 S
C2293 C2292 1.377 . S
C2293 C2299 1.390 1_545 S
C2294 H2285 0.930 . S
C2294 C2292 1.384 1_565 S
C2294 C2295 1.372 . S
C2295 C2294 1.372 . S
C2295 C2296 1.400 . S
C2295 C2300 1.490 . S
C2296 H2286 0.930 . S
C2296 C2295 1.400 . S
C2296 C2299 1.386 . S
H2297 C2313 0.930 . S
H2298 C2314 0.931 . S
C2299 H2287 0.929 1_565 S
C2299 C2293 1.390 1_565 S
C2299 C2296 1.386 . S
C2300 C2295 1.490 . S
C2300 C2302 1.395 . S
C2300 C2303 1.403 . S
H2301 C2307 0.930 . S
C2302 H2288 0.930 . S
C2302 C2300 1.395 . S
C2302 C2305 1.403 . S
C2303 C2300 1.403 . S
C2303 C2304 1.524 . S
C2303 C2307 1.400 . S
C2304 H2289 0.960 . S
C2304 H2290 0.960 . S
C2304 H2291 0.960 . S
C2304 C2303 1.524 . S
C2305 C2302 1.403 . S
C2305 C2306 1.392 . S
C2305 C2309 1.495 . S
C2306 C2305 1.392 . S
C2306 C2307 1.385 . S
C2306 C2308 1.478 . S
C2307 H2301 0.930 . S
C2307 C2303 1.400 . S
C2307 C2306 1.385 . S
C2308 C2306 1.478 . S
C2308 C2310 1.381 . S
C2308 C2314 1.383 . S
C2309 C2305 1.495 . S
C2309 H2315 0.959 . S
C2309 H2316 0.961 . S
C2309 H2317 0.960 . S
C2310 C2308 1.381 . S
C2310 C2311 1.394 . S
C2310 H2318 0.930 . S
C2311 C2310 1.394 . S
C2311 C2312 1.383 . S
C2311 H2319 0.929 . S
C2312 C2311 1.383 . S
C2312 C2313 1.377 . S
C2313 H2297 0.930 . S
C2313 C2312 1.377 . S
C2313 C2314 1.379 . S
C2314 H2298 0.931 . S
C2314 C2308 1.383 . S
C2314 C2313 1.379 . S
H2315 C2309 0.959 . S
H2316 C2309 0.961 . S
H2317 C2309 0.960 . S
H2318 C2310 0.930 . S
H2319 C2311 0.929 . S
H2320 C2328 0.929 . S
H2321 C2330 0.930 . S
H2322 C2332 0.930 . S
H2323 C2335 0.929 . S
H2324 C2338 0.930 . S
H2325 C2340 0.960 . S
H2326 C2340 0.960 . S
H2327 C2340 0.960 . S
C2328 H2320 0.929 . S
C2328 C2329 1.377 . S
C2328 C2330 1.384 . S
C2329 C2328 1.377 . S
C2329 C2335 1.390 . S
C2330 H2321 0.930 . S
C2330 C2328 1.384 . S
C2330 C2331 1.372 . S
C2331 C2330 1.372 . S
C2331 C2332 1.400 . S
C2331 C2336 1.490 . S
C2332 H2322 0.930 . S
C2332 C2331 1.400 . S
C2332 C2335 1.386 . S
H2333 C2349 0.930 . S
H2334 C2350 0.931 . S
C2335 H2323 0.929 . S
C2335 C2329 1.390 . S
C2335 C2332 1.386 . S
C2336 C2331 1.490 . S
C2336 C2338 1.395 . S
C2336 C2339 1.403 . S
H2337 C2343 0.930 . S
C2338 H2324 0.930 . S
C2338 C2336 1.395 . S
C2338 C2341 1.403 . S
C2339 C2336 1.403 . S
C2339 C2340 1.524 . S
C2339 C2343 1.400 . S
C2340 H2325 0.960 . S
C2340 H2326 0.960 . S
C2340 H2327 0.960 . S
C2340 C2339 1.524 . S
C2341 C2338 1.403 . S
C2341 C2342 1.392 . S
C2341 C2345 1.495 . S
C2342 C2341 1.392 . S
C2342 C2343 1.385 . S
C2342 C2344 1.478 . S
C2343 H2337 0.930 . S
C2343 C2339 1.400 . S
C2343 C2342 1.385 . S
C2344 C2342 1.478 . S
C2344 C2346 1.381 . S
C2344 C2350 1.383 . S
C2345 C2341 1.495 . S
C2345 H2351 0.959 . S
C2345 H2352 0.961 . S
C2345 H2353 0.960 . S
C2346 C2344 1.381 . S
C2346 C2347 1.394 . S
C2346 H2354 0.930 . S
C2347 C2346 1.394 . S
C2347 C2348 1.383 . S
C2347 H2355 0.929 . S
C2348 C2347 1.383 . S
C2348 C2349 1.377 . S
C2349 H2333 0.930 . S
C2349 C2348 1.377 . S
C2349 C2350 1.379 . S
C2350 H2334 0.931 . S
C2350 C2344 1.383 . S
C2350 C2349 1.379 . S
H2351 C2345 0.959 . S
H2352 C2345 0.961 . S
H2353 C2345 0.960 . S
H2354 C2346 0.930 . S
H2355 C2347 0.929 . S
H2356 C2364 0.929 . S
H2357 C2366 0.930 . S
H2358 C2368 0.930 . S
H2359 C2371 0.929 . S
H2360 C2374 0.930 . S
H2361 C2376 0.960 . S
H2362 C2376 0.960 . S
H2363 C2376 0.960 . S
C2364 H2356 0.929 . S
C2364 C2365 1.377 . S
C2364 C2366 1.384 . S
C2365 C2364 1.377 . S
C2365 C2371 1.390 . S
C2366 H2357 0.930 . S
C2366 C2364 1.384 . S
C2366 C2367 1.372 . S
C2367 C2366 1.372 . S
C2367 C2368 1.400 . S
C2367 C2372 1.490 . S
C2368 H2358 0.930 . S
C2368 C2367 1.400 . S
C2368 C2371 1.386 . S
H2369 C2385 0.930 . S
H2370 C2386 0.931 . S
C2371 H2359 0.929 . S
C2371 C2365 1.390 . S
C2371 C2368 1.386 . S
C2372 C2367 1.490 . S
C2372 C2374 1.395 . S
C2372 C2375 1.403 . S
H2373 C2379 0.930 . S
C2374 H2360 0.930 . S
C2374 C2372 1.395 . S
C2374 C2377 1.403 . S
C2375 C2372 1.403 . S
C2375 C2376 1.524 . S
C2375 C2379 1.400 . S
C2376 H2361 0.960 . S
C2376 H2362 0.960 . S
C2376 H2363 0.960 . S
C2376 C2375 1.524 . S
C2377 C2374 1.403 . S
C2377 C2378 1.392 . S
C2377 C2381 1.495 . S
C2378 C2377 1.392 . S
C2378 C2379 1.385 . S
C2378 C2380 1.478 . S
C2379 H2373 0.930 . S
C2379 C2375 1.400 . S
C2379 C2378 1.385 . S
C2380 C2378 1.478 . S
C2380 C2382 1.381 . S
C2380 C2386 1.383 . S
C2381 C2377 1.495 . S
C2381 H2387 0.959 . S
C2381 H2388 0.961 . S
C2381 H2389 0.960 . S
C2382 C2380 1.381 . S
C2382 C2383 1.394 . S
C2382 H2390 0.930 . S
C2383 C2382 1.394 . S
C2383 C2384 1.383 . S
C2383 H2391 0.929 . S
C2384 C2383 1.383 . S
C2384 C2385 1.377 . S
C2385 H2369 0.930 . S
C2385 C2384 1.377 . S
C2385 C2386 1.379 . S
C2386 H2370 0.931 . S
C2386 C2380 1.383 . S
C2386 C2385 1.379 . S
H2387 C2381 0.959 . S
H2388 C2381 0.961 . S
H2389 C2381 0.960 . S
H2390 C2382 0.930 . S
H2391 C2383 0.929 . S
H2392 C2400 0.929 . S
H2393 C2402 0.930 . S
H2394 C2404 0.930 . S
H2395 C2407 0.929 . S
H2396 C2410 0.930 . S
H2397 C2412 0.960 . S
H2398 C2412 0.960 . S
H2399 C2412 0.960 . S
C2400 H2392 0.929 . S
C2400 C2401 1.377 . S
C2400 C2402 1.384 . S
C2401 C2400 1.377 . S
C2401 C2407 1.390 . S
C2402 H2393 0.930 . S
C2402 C2400 1.384 . S
C2402 C2403 1.372 . S
C2403 C2402 1.372 . S
C2403 C2404 1.400 . S
C2403 C2408 1.490 . S
C2404 H2394 0.930 . S
C2404 C2403 1.400 . S
C2404 C2407 1.386 . S
H2405 C2421 0.930 . S
H2406 C2422 0.931 . S
C2407 H2395 0.929 . S
C2407 C2401 1.390 . S
C2407 C2404 1.386 . S
C2408 C2403 1.490 . S
C2408 C2410 1.395 . S
C2408 C2411 1.403 . S
H2409 C2415 0.930 . S
C2410 H2396 0.930 . S
C2410 C2408 1.395 . S
C2410 C2413 1.403 . S
C2411 C2408 1.403 . S
C2411 C2412 1.524 . S
C2411 C2415 1.400 . S
C2412 H2397 0.960 . S
C2412 H2398 0.960 . S
C2412 H2399 0.960 . S
C2412 C2411 1.524 . S
C2413 C2410 1.403 . S
C2413 C2414 1.392 . S
C2413 C2417 1.495 . S
C2414 C2413 1.392 . S
C2414 C2415 1.385 . S
C2414 C2416 1.478 . S
C2415 H2409 0.930 . S
C2415 C2411 1.400 . S
C2415 C2414 1.385 . S
C2416 C2414 1.478 . S
C2416 C2418 1.381 . S
C2416 C2422 1.383 . S
C2417 C2413 1.495 . S
C2417 H2423 0.959 . S
C2417 H2424 0.961 . S
C2417 H2425 0.960 . S
C2418 C2416 1.381 . S
C2418 C2419 1.394 . S
C2418 H2426 0.930 . S
C2419 C2418 1.394 . S
C2419 C2420 1.383 . S
C2419 H2427 0.929 . S
C2420 C2419 1.383 . S
C2420 C2421 1.377 . S
C2421 H2405 0.930 . S
C2421 C2420 1.377 . S
C2421 C2422 1.379 . S
C2422 H2406 0.931 . S
C2422 C2416 1.383 . S
C2422 C2421 1.379 . S
H2423 C2417 0.959 . S
H2424 C2417 0.961 . S
H2425 C2417 0.960 . S
H2426 C2418 0.930 . S
H2427 C2419 0.929 . S
H2428 C2436 0.929 . S
H2429 C2438 0.930 . S
H2430 C2440 0.930 . S
H2431 C2443 0.929 . S
H2432 C2446 0.930 . S
H2433 C2448 0.960 . S
H2434 C2448 0.960 . S
H2435 C2448 0.960 . S
C2436 H2428 0.929 . S
C2436 C2437 1.377 . S
C2436 C2438 1.384 . S
C2437 C2436 1.377 . S
C2437 C2443 1.390 . S
C2438 H2429 0.930 . S
C2438 C2436 1.384 . S
C2438 C2439 1.372 . S
C2439 C2438 1.372 . S
C2439 C2440 1.400 . S
C2439 C2444 1.490 . S
C2440 H2430 0.930 . S
C2440 C2439 1.400 . S
C2440 C2443 1.386 . S
H2441 C2457 0.930 . S
H2442 C2458 0.931 . S
C2443 H2431 0.929 . S
C2443 C2437 1.390 . S
C2443 C2440 1.386 . S
C2444 C2439 1.490 . S
C2444 C2446 1.395 . S
C2444 C2447 1.403 . S
H2445 C2451 0.930 . S
C2446 H2432 0.930 . S
C2446 C2444 1.395 . S
C2446 C2449 1.403 . S
C2447 C2444 1.403 . S
C2447 C2448 1.524 . S
C2447 C2451 1.400 . S
C2448 H2433 0.960 . S
C2448 H2434 0.960 . S
C2448 H2435 0.960 . S
C2448 C2447 1.524 . S
C2449 C2446 1.403 . S
C2449 C2450 1.392 . S
C2449 C2453 1.495 . S
C2450 C2449 1.392 . S
C2450 C2451 1.385 . S
C2450 C2452 1.478 . S
C2451 H2445 0.930 . S
C2451 C2447 1.400 . S
C2451 C2450 1.385 . S
C2452 C2450 1.478 . S
C2452 C2454 1.381 . S
C2452 C2458 1.383 . S
C2453 C2449 1.495 . S
C2453 H2459 0.959 . S
C2453 H2460 0.961 . S
C2453 H2461 0.960 . S
C2454 C2452 1.381 . S
C2454 C2455 1.394 . S
C2454 H2462 0.930 . S
C2455 C2454 1.394 . S
C2455 C2456 1.383 . S
C2455 H2463 0.929 . S
C2456 C2455 1.383 . S
C2456 C2457 1.377 . S
C2457 H2441 0.930 . S
C2457 C2456 1.377 . S
C2457 C2458 1.379 . S
C2458 H2442 0.931 . S
C2458 C2452 1.383 . S
C2458 C2457 1.379 . S
H2459 C2453 0.959 . S
H2460 C2453 0.961 . S
H2461 C2453 0.960 . S
H2462 C2454 0.930 . S
H2463 C2455 0.929 . S
H2464 C2472 0.929 . S
H2465 C2474 0.930 . S
H2466 C2476 0.930 . S
H2467 C2479 0.929 . S
H2468 C2482 0.930 . S
H2469 C2484 0.960 . S
H2470 C2484 0.960 . S
H2471 C2484 0.960 . S
C2472 H2464 0.929 . S
C2472 C2473 1.377 . S
C2472 C2474 1.384 1_565 S
C2473 C2472 1.377 . S
C2473 C2479 1.390 . S
C2474 H2465 0.930 . S
C2474 C2472 1.384 1_545 S
C2474 C2475 1.372 . S
C2475 C2474 1.372 . S
C2475 C2476 1.400 . S
C2475 C2480 1.490 . S
C2476 H2466 0.930 . S
C2476 C2475 1.400 . S
C2476 C2479 1.386 1_545 S
H2477 C2493 0.930 . S
H2478 C2494 0.931 . S
C2479 H2467 0.929 . S
C2479 C2473 1.390 . S
C2479 C2476 1.386 1_565 S
C2480 C2475 1.490 . S
C2480 C2482 1.395 . S
C2480 C2483 1.403 . S
H2481 C2487 0.930 . S
C2482 H2468 0.930 . S
C2482 C2480 1.395 . S
C2482 C2485 1.403 . S
C2483 C2480 1.403 . S
C2483 C2484 1.524 . S
C2483 C2487 1.400 . S
C2484 H2469 0.960 . S
C2484 H2470 0.960 . S
C2484 H2471 0.960 . S
C2484 C2483 1.524 . S
C2485 C2482 1.403 . S
C2485 C2486 1.392 . S
C2485 C2489 1.495 . S
C2486 C2485 1.392 . S
C2486 C2487 1.385 . S
C2486 C2488 1.478 . S
C2487 H2481 0.930 . S
C2487 C2483 1.400 . S
C2487 C2486 1.385 . S
C2488 C2486 1.478 . S
C2488 C2490 1.381 . S
C2488 C2494 1.383 . S
C2489 C2485 1.495 . S
C2489 H2495 0.959 . S
C2489 H2496 0.961 . S
C2489 H2497 0.960 . S
C2490 C2488 1.381 . S
C2490 C2491 1.394 . S
C2490 H2498 0.930 . S
C2491 C2490 1.394 . S
C2491 C2492 1.383 . S
C2491 H2499 0.929 . S
C2492 C2491 1.383 . S
C2492 C2493 1.377 . S
C2493 H2477 0.930 . S
C2493 C2492 1.377 . S
C2493 C2494 1.379 . S
C2494 H2478 0.931 . S
C2494 C2488 1.383 . S
C2494 C2493 1.379 . S
H2495 C2489 0.959 . S
H2496 C2489 0.961 . S
H2497 C2489 0.960 . S
H2498 C2490 0.930 . S
H2499 C2491 0.929 . S
H2500 C2508 0.929 . S
H2501 C2510 0.930 . S
H2502 C2512 0.930 . S
H2503 C2515 0.929 . S
H2504 C2518 0.930 . S
H2505 C2520 0.960 . S
H2506 C2520 0.960 . S
H2507 C2520 0.960 . S
C2508 H2500 0.929 . S
C2508 C2509 1.377 . S
C2508 C2510 1.384 . S
C2509 C2508 1.377 . S
C2509 C2515 1.390 . S
C2510 H2501 0.930 . S
C2510 C2508 1.384 . S
C2510 C2511 1.372 . S
C2511 C2510 1.372 . S
C2511 C2512 1.400 . S
C2511 C2516 1.490 . S
C2512 H2502 0.930 . S
C2512 C2511 1.400 . S
C2512 C2515 1.386 . S
H2513 C2529 0.930 1_565 S
H2514 C2530 0.931 . S
C2515 H2503 0.929 . S
C2515 C2509 1.390 . S
C2515 C2512 1.386 . S
C2516 C2511 1.490 . S
C2516 C2518 1.395 . S
C2516 C2519 1.403 . S
H2517 C2523 0.930 . S
C2518 H2504 0.930 . S
C2518 C2516 1.395 . S
C2518 C2521 1.403 . S
C2519 C2516 1.403 . S
C2519 C2520 1.524 . S
C2519 C2523 1.400 . S
C2520 H2505 0.960 . S
C2520 H2506 0.960 . S
C2520 H2507 0.960 . S
C2520 C2519 1.524 . S
C2521 C2518 1.403 . S
C2521 C2522 1.392 . S
C2521 C2525 1.495 . S
C2522 C2521 1.392 . S
C2522 C2523 1.385 . S
C2522 C2524 1.478 . S
C2523 H2517 0.930 . S
C2523 C2519 1.400 . S
C2523 C2522 1.385 . S
C2524 C2522 1.478 . S
C2524 C2526 1.381 . S
C2524 C2530 1.383 . S
C2525 C2521 1.495 . S
C2525 H2531 0.959 . S
C2525 H2532 0.961 . S
C2525 H2533 0.960 . S
C2526 C2524 1.381 . S
C2526 C2527 1.394 1_545 S
C2526 H2534 0.930 . S
C2527 C2526 1.394 1_565 S
C2527 C2528 1.383 . S
C2527 H2535 0.929 . S
C2528 C2527 1.383 . S
C2528 C2529 1.377 1_565 S
C2529 H2513 0.930 1_545 S
C2529 C2528 1.377 1_545 S
C2529 C2530 1.379 . S
C2530 H2514 0.931 . S
C2530 C2524 1.383 . S
C2530 C2529 1.379 . S
H2531 C2525 0.959 . S
H2532 C2525 0.961 . S
H2533 C2525 0.960 . S
H2534 C2526 0.930 . S
H2535 C2527 0.929 . S
H2536 C2544 0.929 . S
H2537 C2546 0.930 . S
H2538 C2548 0.930 . S
H2539 C2551 0.929 . S
H2540 C2554 0.930 . S
H2541 C2556 0.960 . S
H2542 C2556 0.960 . S
H2543 C2556 0.960 . S
C2544 H2536 0.929 . S
C2544 C2545 1.377 . S
C2544 C2546 1.384 . S
C2545 C2544 1.377 . S
C2545 C2551 1.390 . S
C2546 H2537 0.930 . S
C2546 C2544 1.384 . S
C2546 C2547 1.372 . S
C2547 C2546 1.372 . S
C2547 C2548 1.400 . S
C2547 C2552 1.490 . S
C2548 H2538 0.930 . S
C2548 C2547 1.400 . S
C2548 C2551 1.386 . S
H2549 C2565 0.929 1_545 S
H2550 C2566 0.931 . S
C2551 H2539 0.929 . S
C2551 C2545 1.390 . S
C2551 C2548 1.386 . S
C2552 C2547 1.490 . S
C2552 C2554 1.395 . S
C2552 C2555 1.403 . S
H2553 C2559 0.930 . S
C2554 H2540 0.930 . S
C2554 C2552 1.395 . S
C2554 C2557 1.403 . S
C2555 C2552 1.403 . S
C2555 C2556 1.524 . S
C2555 C2559 1.400 . S
C2556 H2541 0.960 . S
C2556 H2542 0.960 . S
C2556 H2543 0.960 . S
C2556 C2555 1.524 . S
C2557 C2554 1.403 . S
C2557 C2558 1.392 . S
C2557 C2561 1.495 . S
C2558 C2557 1.392 . S
C2558 C2559 1.385 . S
C2558 C2560 1.478 . S
C2559 H2553 0.930 . S
C2559 C2555 1.400 . S
C2559 C2558 1.385 . S
C2560 C2558 1.478 . S
C2560 C2562 1.381 . S
C2560 C2566 1.383 . S
C2561 C2557 1.495 . S
C2561 H2567 0.959 . S
C2561 H2568 0.961 . S
C2561 H2569 0.960 . S
C2562 C2560 1.381 . S
C2562 C2563 1.394 1_565 S
C2562 H2570 0.930 . S
C2563 C2562 1.394 1_545 S
C2563 C2564 1.383 . S
C2563 H2571 0.929 . S
C2564 C2563 1.383 . S
C2564 C2565 1.376 1_545 S
C2565 H2549 0.929 1_565 S
C2565 C2564 1.376 1_565 S
C2565 C2566 1.381 . S
C2566 H2550 0.931 . S
C2566 C2560 1.383 . S
C2566 C2565 1.381 . S
H2567 C2561 0.959 . S
H2568 C2561 0.961 . S
H2569 C2561 0.960 . S
H2570 C2562 0.930 . S
H2571 C2563 0.929 . S
H2572 C2580 0.929 . S
H2573 C2582 0.930 . S
H2574 C2584 0.930 . S
H2575 C2587 0.929 . S
H2576 C2590 0.930 . S
H2577 C2592 0.960 . S
H2578 C2592 0.960 . S
H2579 C2592 0.960 . S
C2580 H2572 0.929 . S
C2580 C2581 1.377 . S
C2580 C2582 1.384 . S
C2581 C2580 1.377 . S
C2581 C2587 1.390 . S
C2582 H2573 0.930 . S
C2582 C2580 1.384 . S
C2582 C2583 1.372 . S
C2583 C2582 1.372 . S
C2583 C2584 1.400 . S
C2583 C2588 1.490 . S
C2584 H2574 0.930 . S
C2584 C2583 1.400 . S
C2584 C2587 1.386 . S
H2585 C2601 0.924 1_545 S
H2586 C2602 0.931 . S
C2587 H2575 0.929 . S
C2587 C2581 1.390 . S
C2587 C2584 1.386 . S
C2588 C2583 1.490 . S
C2588 C2590 1.395 . S
C2588 C2591 1.403 . S
H2589 C2595 0.930 . S
C2590 H2576 0.930 . S
C2590 C2588 1.395 . S
C2590 C2593 1.403 . S
C2591 C2588 1.403 . S
C2591 C2592 1.524 . S
C2591 C2595 1.400 . S
C2592 H2577 0.960 . S
C2592 H2578 0.960 . S
C2592 H2579 0.960 . S
C2592 C2591 1.524 . S
C2593 C2590 1.403 . S
C2593 C2594 1.392 . S
C2593 C2597 1.495 . S
C2594 C2593 1.392 . S
C2594 C2595 1.385 . S
C2594 C2596 1.478 . S
C2595 H2589 0.930 . S
C2595 C2591 1.400 . S
C2595 C2594 1.385 . S
C2596 C2594 1.478 . S
C2596 C2598 1.381 . S
C2596 C2602 1.383 . S
C2597 C2593 1.495 . S
C2597 H2603 0.959 . S
C2597 H2604 0.961 . S
C2597 H2605 0.960 . S
C2598 C2596 1.381 . S
C2598 C2599 1.394 1_565 S
C2598 H2606 0.930 . S
C2599 C2598 1.394 1_545 S
C2599 C2600 1.383 . S
C2599 H2607 0.929 . S
C2600 C2599 1.383 . S
C2600 C2601 1.366 1_545 S
C2601 H2585 0.924 1_565 S
C2601 C2600 1.366 1_565 S
C2601 C2602 1.396 . S
C2602 H2586 0.931 . S
C2602 C2596 1.383 . S
C2602 C2601 1.396 . S
H2603 C2597 0.959 . S
H2604 C2597 0.961 . S
H2605 C2597 0.960 . S
H2606 C2598 0.930 . S
H2607 C2599 0.929 . S
H2608 C2616 0.929 . S
H2609 C2618 0.930 . S
H2610 C2620 0.930 . S
H2611 C2623 0.929 . S
H2612 C2626 0.930 . S
H2613 C2628 0.960 . S
H2614 C2628 0.960 . S
H2615 C2628 0.960 . S
C2616 H2608 0.929 . S
C2616 C2617 1.377 . S
C2616 C2618 1.384 . S
C2617 C2616 1.377 . S
C2617 C2623 1.390 . S
C2618 H2609 0.930 . S
C2618 C2616 1.384 . S
C2618 C2619 1.372 . S
C2619 C2618 1.372 . S
C2619 C2620 1.400 . S
C2619 C2624 1.490 . S
C2620 H2610 0.930 . S
C2620 C2619 1.400 . S
C2620 C2623 1.386 . S
H2621 C2637 0.930 . S
H2622 C2638 0.931 . S
C2623 H2611 0.929 . S
C2623 C2617 1.390 . S
C2623 C2620 1.386 . S
C2624 C2619 1.490 . S
C2624 C2626 1.395 . S
C2624 C2627 1.403 . S
H2625 C2631 0.930 . S
C2626 H2612 0.930 . S
C2626 C2624 1.395 . S
C2626 C2629 1.403 . S
C2627 C2624 1.403 . S
C2627 C2628 1.524 . S
C2627 C2631 1.400 . S
C2628 H2613 0.960 . S
C2628 H2614 0.960 . S
C2628 H2615 0.960 . S
C2628 C2627 1.524 . S
C2629 C2626 1.403 . S
C2629 C2630 1.392 . S
C2629 C2633 1.495 . S
C2630 C2629 1.392 . S
C2630 C2631 1.385 . S
C2630 C2632 1.478 . S
C2631 H2625 0.930 . S
C2631 C2627 1.400 . S
C2631 C2630 1.385 . S
C2632 C2630 1.478 . S
C2632 C2634 1.381 . S
C2632 C2638 1.383 . S
C2633 C2629 1.495 . S
C2633 H2639 0.959 . S
C2633 H2640 0.961 . S
C2633 H2641 0.960 . S
C2634 C2632 1.381 . S
C2634 C2635 1.394 . S
C2634 H2642 0.930 . S
C2635 C2634 1.394 . S
C2635 C2636 1.383 . S
C2635 H2643 0.929 . S
C2636 C2635 1.383 . S
C2636 C2637 1.377 . S
C2637 H2621 0.930 . S
C2637 C2636 1.377 . S
C2637 C2638 1.379 . S
C2638 H2622 0.931 . S
C2638 C2632 1.383 . S
C2638 C2637 1.379 . S
H2639 C2633 0.959 . S
H2640 C2633 0.961 . S
H2641 C2633 0.960 . S
H2642 C2634 0.930 . S
H2643 C2635 0.929 . S
H2644 C2652 0.929 . S
H2645 C2654 0.930 . S
H2646 C2656 0.930 . S
H2647 C2659 0.929 . S
H2648 C2662 0.930 . S
H2649 C2664 0.960 . S
H2650 C2664 0.960 . S
H2651 C2664 0.960 . S
C2652 H2644 0.929 . S
C2652 C2653 1.377 . S
C2652 C2654 1.384 . S
C2653 C2652 1.377 . S
C2653 C2659 1.390 . S
C2654 H2645 0.930 . S
C2654 C2652 1.384 . S
C2654 C2655 1.372 . S
C2655 C2654 1.372 . S
C2655 C2656 1.400 . S
C2655 C2660 1.490 . S
C2656 H2646 0.930 . S
C2656 C2655 1.400 . S
C2656 C2659 1.386 . S
H2657 C2673 0.930 . S
H2658 C2674 0.931 . S
C2659 H2647 0.929 . S
C2659 C2653 1.390 . S
C2659 C2656 1.386 . S
C2660 C2655 1.490 . S
C2660 C2662 1.395 . S
C2660 C2663 1.403 . S
H2661 C2667 0.930 . S
C2662 H2648 0.930 . S
C2662 C2660 1.395 . S
C2662 C2665 1.403 . S
C2663 C2660 1.403 . S
C2663 C2664 1.524 . S
C2663 C2667 1.400 . S
C2664 H2649 0.960 . S
C2664 H2650 0.960 . S
C2664 H2651 0.960 . S
C2664 C2663 1.524 . S
C2665 C2662 1.403 . S
C2665 C2666 1.392 . S
C2665 C2669 1.495 . S
C2666 C2665 1.392 . S
C2666 C2667 1.385 . S
C2666 C2668 1.478 . S
C2667 H2661 0.930 . S
C2667 C2663 1.400 . S
C2667 C2666 1.385 . S
C2668 C2666 1.478 . S
C2668 C2670 1.381 . S
C2668 C2674 1.383 . S
C2669 C2665 1.495 . S
C2669 H2675 0.959 . S
C2669 H2676 0.961 . S
C2669 H2677 0.960 . S
C2670 C2668 1.381 . S
C2670 C2671 1.394 . S
C2670 H2678 0.930 . S
C2671 C2670 1.394 . S
C2671 C2672 1.383 . S
C2671 H2679 0.929 . S
C2672 C2671 1.383 . S
C2672 C2673 1.377 . S
C2673 H2657 0.930 . S
C2673 C2672 1.377 . S
C2673 C2674 1.379 . S
C2674 H2658 0.931 . S
C2674 C2668 1.383 . S
C2674 C2673 1.379 . S
H2675 C2669 0.959 . S
H2676 C2669 0.961 . S
H2677 C2669 0.960 . S
H2678 C2670 0.930 . S
H2679 C2671 0.929 . S
H2680 C2688 0.929 . S
H2681 C2690 0.930 . S
H2682 C2692 0.930 . S
H2683 C2695 0.929 . S
H2684 C2698 0.930 . S
H2685 C2700 0.960 . S
H2686 C2700 0.960 . S
H2687 C2700 0.960 . S
C2688 H2680 0.929 . S
C2688 C2689 1.377 . S
C2688 C2690 1.384 . S
C2689 C2688 1.377 . S
C2689 C2695 1.390 . S
C2690 H2681 0.930 . S
C2690 C2688 1.384 . S
C2690 C2691 1.372 . S
C2691 C2690 1.372 . S
C2691 C2692 1.400 . S
C2691 C2696 1.490 . S
C2692 H2682 0.930 . S
C2692 C2691 1.400 . S
C2692 C2695 1.386 . S
H2693 C2709 0.930 . S
H2694 C2710 0.931 . S
C2695 H2683 0.929 . S
C2695 C2689 1.390 . S
C2695 C2692 1.386 . S
C2696 C2691 1.490 . S
C2696 C2698 1.395 . S
C2696 C2699 1.403 . S
H2697 C2703 0.930 . S
C2698 H2684 0.930 . S
C2698 C2696 1.395 . S
C2698 C2701 1.403 . S
C2699 C2696 1.403 . S
C2699 C2700 1.524 . S
C2699 C2703 1.400 . S
C2700 H2685 0.960 . S
C2700 H2686 0.960 . S
C2700 H2687 0.960 . S
C2700 C2699 1.524 . S
C2701 C2698 1.403 . S
C2701 C2702 1.392 . S
C2701 C2705 1.495 . S
C2702 C2701 1.392 . S
C2702 C2703 1.385 . S
C2702 C2704 1.478 . S
C2703 H2697 0.930 . S
C2703 C2699 1.400 . S
C2703 C2702 1.385 . S
C2704 C2702 1.478 . S
C2704 C2706 1.381 . S
C2704 C2710 1.383 . S
C2705 C2701 1.495 . S
C2705 H2711 0.959 . S
C2705 H2712 0.961 . S
C2705 H2713 0.960 . S
C2706 C2704 1.381 . S
C2706 C2707 1.394 . S
C2706 H2714 0.930 . S
C2707 C2706 1.394 . S
C2707 C2708 1.383 . S
C2707 H2715 0.929 . S
C2708 C2707 1.383 . S
C2708 C2709 1.377 . S
C2709 H2693 0.930 . S
C2709 C2708 1.377 . S
C2709 C2710 1.379 . S
C2710 H2694 0.931 . S
C2710 C2704 1.383 . S
C2710 C2709 1.379 . S
H2711 C2705 0.959 . S
H2712 C2705 0.961 . S
H2713 C2705 0.960 . S
H2714 C2706 0.930 . S
H2715 C2707 0.929 . S
H2716 C2724 0.929 . S
H2717 C2726 0.930 . S
H2718 C2728 0.930 . S
H2719 C2731 0.929 . S
H2720 C2734 0.930 . S
H2721 C2736 0.960 . S
H2722 C2736 0.960 . S
H2723 C2736 0.960 . S
C2724 H2716 0.929 . S
C2724 C2725 1.377 . S
C2724 C2726 1.384 . S
C2725 C2724 1.377 . S
C2725 C2731 1.390 . S
C2726 H2717 0.930 . S
C2726 C2724 1.384 . S
C2726 C2727 1.372 . S
C2727 C2726 1.372 . S
C2727 C2728 1.400 . S
C2727 C2732 1.490 . S
C2728 H2718 0.930 . S
C2728 C2727 1.400 . S
C2728 C2731 1.386 . S
H2729 C2745 0.930 . S
H2730 C2746 0.931 . S
C2731 H2719 0.929 . S
C2731 C2725 1.390 . S
C2731 C2728 1.386 . S
C2732 C2727 1.490 . S
C2732 C2734 1.395 . S
C2732 C2735 1.403 . S
H2733 C2739 0.930 . S
C2734 H2720 0.930 . S
C2734 C2732 1.395 . S
C2734 C2737 1.403 . S
C2735 C2732 1.403 . S
C2735 C2736 1.524 . S
C2735 C2739 1.400 . S
C2736 H2721 0.960 . S
C2736 H2722 0.960 . S
C2736 H2723 0.960 . S
C2736 C2735 1.524 . S
C2737 C2734 1.403 . S
C2737 C2738 1.392 . S
C2737 C2741 1.495 . S
C2738 C2737 1.392 . S
C2738 C2739 1.385 . S
C2738 C2740 1.478 . S
C2739 H2733 0.930 . S
C2739 C2735 1.400 . S
C2739 C2738 1.385 . S
C2740 C2738 1.478 . S
C2740 C2742 1.381 . S
C2740 C2746 1.383 . S
C2741 C2737 1.495 . S
C2741 H2747 0.959 . S
C2741 H2748 0.961 . S
C2741 H2749 0.960 . S
C2742 C2740 1.381 . S
C2742 C2743 1.394 . S
C2742 H2750 0.930 . S
C2743 C2742 1.394 . S
C2743 C2744 1.383 . S
C2743 H2751 0.929 . S
C2744 C2743 1.383 . S
C2744 C2745 1.377 . S
C2745 H2729 0.930 . S
C2745 C2744 1.377 . S
C2745 C2746 1.379 . S
C2746 H2730 0.931 . S
C2746 C2740 1.383 . S
C2746 C2745 1.379 . S
H2747 C2741 0.959 . S
H2748 C2741 0.961 . S
H2749 C2741 0.960 . S
H2750 C2742 0.930 . S
H2751 C2743 0.929 . S
C457 C36 0.622 . S
C476 C8 0.623 . S
C493 C22 0.614 . S
C512 C50 0.547 . S
C529 C92 0.603 . S
C548 C64 0.554 . S
C565 C106 0.621 . S
C584 C78 0.674 . S
C601 C120 0.605 . S
C620 C148 0.545 . S
C637 C162 0.600 . S
C656 C134 0.662 . S
C673 C176 0.602 . S
C692 C204 0.616 . S
C709 C190 0.606 . S
C728 C218 0.565 . S
C745 C260 0.613 . S
C764 C232 0.545 . S
C781 C246 0.614 . S
C800 C274 0.548 . S
C817 C288 0.601 . S
C836 C316 0.609 . S
C853 C330 0.603 . S
C872 C302 0.622 . S
C889 C372 0.622 . S
C908 C344 0.615 . S
C925 C386 0.599 . S
C944 C358 0.564 . S
C961 C428 0.602 . S
C980 C400 0.617 . S
C997 C414 0.614 . S
C1016 C442 0.603 . S
C1033 C62 1.479 . S
C1052 C6 1.497 . S
C1069 C412 1.473 . S
C1088 C20 1.485 . S
C1105 C34 1.475 . S
C1124 C202 1.449 . S
C1141 C48 1.478 . S
C1160 C328 1.497 . S
C1177 C76 1.481 . S
C1196 C356 1.478 . S
C1213 C90 1.473 . S
C1232 C146 1.449 . S
C1249 C272 1.478 . S
C1268 C104 1.460 . S
C1285 C174 1.481 . S
C1304 C118 1.486 . S
C1321 C300 1.479 . S
C1340 C132 1.496 . S
C1357 C160 1.481 . S
C1376 C440 1.483 . S
C1393 C188 1.480 . S
C1412 C244 1.493 . S
C1429 C384 1.473 . S
C1448 C216 1.449 . S
C1465 C286 1.477 . S
C1484 C230 1.497 . S
C1501 C258 1.481 . S
C1520 C426 1.477 . S
C1537 C314 1.471 . S
C1556 C370 1.473 . S
C1573 C398 1.476 . S
C1592 C342 1.494 . S
C1609 C51 1.461 . S
C1628 C9 1.443 . S
C1645 C37 1.469 . S
C1664 C23 1.481 . S
C1681 C107 1.466 . S
C1700 C65 1.480 . S
C1717 C93 1.469 . S
C1736 C79 1.458 . S
C1753 C163 1.465 . S
C1772 C121 1.456 . S
C1789 C149 1.469 . S
C1808 C135 1.483 . S
C1825 C219 1.464 . S
C1844 C177 1.446 . S
C1861 C205 1.466 . S
C1880 C191 1.442 . S
C1897 C233 1.469 . S
C1916 C275 1.482 . S
C1933 C261 1.468 . S
C1952 C247 1.472 . S
C1969 C289 1.467 . S
C1988 C331 1.441 . S
C2005 C317 1.466 . S
C2024 C303 1.442 . S
C2041 C387 1.461 . S
C2060 C345 1.443 . S
C2077 C359 1.466 . S
C2096 C373 1.467 . S
C2113 C401 1.466 . S
C2132 C443 1.443 . S
C2149 C429 1.465 . S
C2168 C415 1.481 . S
C2185 C35 1.503 . S
C2204 C7 1.507 . S
C2221 C21 1.508 . S
C2240 C49 1.518 . S
C2257 C63 1.504 . S
C2276 C91 1.492 . S
C2293 C77 1.507 . S
C2312 C105 1.508 . S
C2329 C119 1.510 . S
C2348 C147 1.491 . S
C2365 C133 1.505 . S
C2384 C161 1.522 . S
C2401 C203 1.510 . S
C2420 C175 1.517 . S
C2437 C217 1.508 . S
C2456 C189 1.507 . S
C2473 C259 1.504 . S
C2492 C231 1.495 . S
C2509 C273 1.509 . S
C2528 C245 1.486 . S
C2545 C287 1.510 . S
C2564 C315 1.520 . S
C2581 C329 1.510 . S
C2600 C301 1.519 . S
C2617 C371 1.504 . S
C2636 C343 1.521 . S
C2653 C357 1.504 . S
C2672 C385 1.521 . S
C2689 C399 1.507 . S
C2708 C427 1.503 . S
C2725 C441 1.503 . S
C2744 C413 1.485 . S
