# Generated by pormake.
# Topology pcb, (4)-cn, num edge types: 1
# Building blocks:
#     Node 0, Type 0, BuildingBlock: GALJAG_clean_sbu_0, # of connection points: 4
#     Node 1, Type 0, BuildingBlock: GALJAG_clean_sbu_0, # of connection points: 4
#     Node 2, Type 0, BuildingBlock: GALJAG_clean_sbu_0, # of connection points: 4
#     Node 3, Type 0, BuildingBlock: GALJAG_clean_sbu_0, # of connection points: 4
#     Node 4, Type 0, BuildingBlock: GALJAG_clean_sbu_0, # of connection points: 4
#     Node 5, Type 0, BuildingBlock: GALJAG_clean_sbu_0, # of connection points: 4
#     Node 6, Type 0, BuildingBlock: GALJAG_clean_sbu_0, # of connection points: 4
#     Node 7, Type 0, BuildingBlock: GALJAG_clean_sbu_0, # of connection points: 4
#     Node 8, Type 0, BuildingBlock: GALJAG_clean_sbu_0, # of connection points: 4
#     Node 9, Type 0, BuildingBlock: GALJAG_clean_sbu_0, # of connection points: 4
#     Node 10, Type 0, BuildingBlock: GALJAG_clean_sbu_0, # of connection points: 4
#     Node 11, Type 0, BuildingBlock: GALJAG_clean_sbu_0, # of connection points: 4
#     Node 12, Type 0, BuildingBlock: GALJAG_clean_sbu_0, # of connection points: 4
#     Node 13, Type 0, BuildingBlock: GALJAG_clean_sbu_0, # of connection points: 4
#     Node 14, Type 0, BuildingBlock: GALJAG_clean_sbu_0, # of connection points: 4
#     Node 15, Type 0, BuildingBlock: GALJAG_clean_sbu_0, # of connection points: 4
#     Edge 16, Type (0, 0), BuildingBlock: OJICUG_clean_linker_0, # of connection points: 2
#     Edge 17, Type (0, 0), BuildingBlock: OJICUG_clean_linker_0, # of connection points: 2
#     Edge 18, Type (0, 0), BuildingBlock: OJICUG_clean_linker_0, # of connection points: 2
#     Edge 19, Type (0, 0), BuildingBlock: OJICUG_clean_linker_0, # of connection points: 2
#     Edge 20, Type (0, 0), BuildingBlock: OJICUG_clean_linker_0, # of connection points: 2
#     Edge 21, Type (0, 0), BuildingBlock: OJICUG_clean_linker_0, # of connection points: 2
#     Edge 22, Type (0, 0), BuildingBlock: OJICUG_clean_linker_0, # of connection points: 2
#     Edge 23, Type (0, 0), BuildingBlock: OJICUG_clean_linker_0, # of connection points: 2
#     Edge 24, Type (0, 0), BuildingBlock: OJICUG_clean_linker_0, # of connection points: 2
#     Edge 25, Type (0, 0), BuildingBlock: OJICUG_clean_linker_0, # of connection points: 2
#     Edge 26, Type (0, 0), BuildingBlock: OJICUG_clean_linker_0, # of connection points: 2
#     Edge 27, Type (0, 0), BuildingBlock: OJICUG_clean_linker_0, # of connection points: 2
#     Edge 28, Type (0, 0), BuildingBlock: OJICUG_clean_linker_0, # of connection points: 2
#     Edge 29, Type (0, 0), BuildingBlock: OJICUG_clean_linker_0, # of connection points: 2
#     Edge 30, Type (0, 0), BuildingBlock: OJICUG_clean_linker_0, # of connection points: 2
#     Edge 31, Type (0, 0), BuildingBlock: OJICUG_clean_linker_0, # of connection points: 2
#     Edge 32, Type (0, 0), BuildingBlock: OJICUG_clean_linker_0, # of connection points: 2
#     Edge 33, Type (0, 0), BuildingBlock: OJICUG_clean_linker_0, # of connection points: 2
#     Edge 34, Type (0, 0), BuildingBlock: OJICUG_clean_linker_0, # of connection points: 2
#     Edge 35, Type (0, 0), BuildingBlock: OJICUG_clean_linker_0, # of connection points: 2
#     Edge 36, Type (0, 0), BuildingBlock: OJICUG_clean_linker_0, # of connection points: 2
#     Edge 37, Type (0, 0), BuildingBlock: OJICUG_clean_linker_0, # of connection points: 2
#     Edge 38, Type (0, 0), BuildingBlock: OJICUG_clean_linker_0, # of connection points: 2
#     Edge 39, Type (0, 0), BuildingBlock: OJICUG_clean_linker_0, # of connection points: 2
#     Edge 40, Type (0, 0), BuildingBlock: OJICUG_clean_linker_0, # of connection points: 2
#     Edge 41, Type (0, 0), BuildingBlock: OJICUG_clean_linker_0, # of connection points: 2
#     Edge 42, Type (0, 0), BuildingBlock: OJICUG_clean_linker_0, # of connection points: 2
#     Edge 43, Type (0, 0), BuildingBlock: OJICUG_clean_linker_0, # of connection points: 2
#     Edge 44, Type (0, 0), BuildingBlock: OJICUG_clean_linker_0, # of connection points: 2
#     Edge 45, Type (0, 0), BuildingBlock: OJICUG_clean_linker_0, # of connection points: 2
#     Edge 46, Type (0, 0), BuildingBlock: OJICUG_clean_linker_0, # of connection points: 2
#     Edge 47, Type (0, 0), BuildingBlock: OJICUG_clean_linker_0, # of connection points: 2
# Relax obj value: 0.356
# Max RMSD: 0.193
# Mean RMSD: 0.171
data_MOF--net-pcb--node1-GALJAG_clean_sbu_0--edge1-OJICUG_clean_linker_0
_symmetry_space_group_name_H-M    P1
_symmetry_Int_Tables_number       1
_symmetry_cell_setting            triclinic
loop_
_symmetry_equiv_pos_as_xyz
'x, y, z'
_cell_length_a     27.945972
_cell_length_b     35.670355
_cell_length_c     35.853645
_cell_angle_alpha  98.316306
_cell_angle_beta   96.00966
_cell_angle_gamma 95.525549
loop_
_atom_site_label
_atom_site_type_symbol
_atom_site_fract_x
_atom_site_fract_y
_atom_site_fract_z
_atom_type_partial_charge
In0 In 0.20199 0.1413 0.10691 0.0
O1 O 0.18156 0.19398 0.14091 0.0
O2 O 0.25602 0.19321 0.13395 0.0
C3 C 0.24574 0.09398 0.14828 0.0
C4 C 0.10501 0.12807 0.09979 0.0
C5 C 0.21614 0.13121 0.03332 0.0
O6 O 0.20942 0.1098 0.15755 0.0
O7 O 0.2615 0.10334 0.11883 0.0
O8 O 0.19697 0.10528 0.04915 0.0
O9 O 0.22974 0.16239 0.05497 0.0
C10 C 0.22357 0.21131 0.14773 0.0
O11 O 0.12714 0.15762 0.09138 0.0
O12 O 0.13185 0.10419 0.11058 0.0
In13 In 0.81072 0.11741 0.13413 0.0
O14 O 0.82249 0.16352 0.18567 0.0
O15 O 0.7502 0.14616 0.15964 0.0
C16 C 0.90364 0.11852 0.1209 0.0
C17 C 0.79217 0.05375 0.16448 0.0
C18 C 0.7754 0.13067 0.06514 0.0
O19 O 0.88596 0.14774 0.13518 0.0
O20 O 0.87465 0.08832 0.11376 0.0
O21 O 0.76681 0.0987 0.07579 0.0
O22 O 0.8004 0.1558 0.08961 0.0
C23 C 0.77817 0.16752 0.18569 0.0
O24 O 0.76683 0.06044 0.13535 0.0
O25 O 0.82641 0.0793 0.1782 0.0
In26 In 0.83452 0.83669 0.15233 0.0
O27 O 0.77633 0.79613 0.17065 0.0
O28 O 0.84939 0.78536 0.18081 0.0
C29 C 0.80284 0.90125 0.18465 0.0
C30 C 0.93145 0.84779 0.15624 0.0
C31 C 0.80547 0.83161 0.07781 0.0
O32 O 0.77507 0.87474 0.16383 0.0
O33 O 0.84565 0.89367 0.19176 0.0
O34 O 0.81393 0.86269 0.10026 0.0
O35 O 0.81233 0.8023 0.0928 0.0
C36 C 0.80577 0.77523 0.18356 0.0
O37 O 0.9044 0.83802 0.12518 0.0
O38 O 0.90958 0.85182 0.18541 0.0
In39 In 0.23616 0.87044 0.164 0.0
O40 O 0.16047 0.87139 0.13415 0.0
O41 O 0.16701 0.86504 0.19243 0.0
C42 C 0.26274 0.94608 0.18154 0.0
C43 C 0.27308 0.82411 0.21025 0.0
C44 C 0.25451 0.84961 0.09197 0.0
O45 O 0.2244 0.93002 0.1906 0.0
O46 O 0.28908 0.92367 0.16517 0.0
O47 O 0.27986 0.87652 0.11428 0.0
O48 O 0.22156 0.83227 0.10657 0.0
C49 C 0.13927 0.86702 0.16284 0.0
O50 O 0.24751 0.812 0.17911 0.0
O51 O 0.28246 0.85983 0.21742 0.0
In52 In 0.2029 0.84371 0.85768 0.0
O53 O 0.19245 0.78319 0.82723 0.0
O54 O 0.26127 0.81459 0.82812 0.0
C55 C 0.10766 0.84826 0.85864 0.0
C56 C 0.23522 0.83879 0.93022 0.0
C57 C 0.21902 0.90298 0.81983 0.0
O58 O 0.12464 0.82435 0.83571 0.0
O59 O 0.13887 0.8699 0.88213 0.0
O60 O 0.24173 0.90202 0.85201 0.0
O61 O 0.19003 0.87373 0.80666 0.0
C62 C 0.23402 0.78382 0.81673 0.0
O63 O 0.25158 0.8654 0.9137 0.0
O64 O 0.20364 0.81468 0.90991 0.0
In65 In 0.15217 0.11295 0.79822 0.0
O66 O 0.09403 0.14315 0.82603 0.0
O67 O 0.07088 0.09829 0.77999 0.0
C68 C 0.18759 0.04638 0.77829 0.0
C69 C 0.17419 0.16245 0.75119 0.0
C70 C 0.18467 0.11786 0.8717 0.0
O71 O 0.14299 0.05005 0.7732 0.0
O72 O 0.21463 0.07703 0.79053 0.0
O73 O 0.19845 0.14305 0.8524 0.0
O74 O 0.15441 0.091 0.85392 0.0
C75 C 0.05908 0.12348 0.80478 0.0
O76 O 0.19233 0.16727 0.78549 0.0
O77 O 0.14692 0.13175 0.7402 0.0
In78 In 0.76549 0.13538 0.83344 0.0
O79 O 0.84582 0.14414 0.85663 0.0
O80 O 0.82693 0.13524 0.79672 0.0
C81 C 0.75271 0.14403 0.90743 0.0
C82 C 0.71712 0.18263 0.79518 0.0
C83 C 0.74626 0.05965 0.81082 0.0
O84 O 0.78322 0.16572 0.89462 0.0
O85 O 0.72766 0.11912 0.88274 0.0
O86 O 0.7801 0.07965 0.7999 0.0
O87 O 0.72046 0.07814 0.83198 0.0
C88 C 0.86019 0.14053 0.8242 0.0
O89 O 0.70581 0.14714 0.7899 0.0
O90 O 0.75157 0.19453 0.82088 0.0
In91 In 0.80476 0.84508 0.84836 0.0
O92 O 0.80277 0.78375 0.82067 0.0
O93 O 0.74685 0.81541 0.80157 0.0
C94 C 0.78467 0.83652 0.91852 0.0
C95 C 0.90187 0.85324 0.85097 0.0
C96 C 0.77236 0.90618 0.82283 0.0
O97 O 0.78771 0.80839 0.89354 0.0
O98 O 0.79048 0.86852 0.90769 0.0
O99 O 0.81276 0.89523 0.81653 0.0
O100 O 0.74795 0.88609 0.84193 0.0
C101 C 0.76578 0.7846 0.79763 0.0
O102 O 0.87391 0.83716 0.82208 0.0
O103 O 0.88088 0.86636 0.87867 0.0
In104 In 0.68215 0.61599 0.6069 0.0
O105 O 0.73242 0.63962 0.66094 0.0
O106 O 0.68161 0.67462 0.63983 0.0
C107 C 0.69128 0.5421 0.60669 0.0
C108 C 0.58625 0.60832 0.61021 0.0
C109 C 0.7258 0.6383 0.54906 0.0
O110 O 0.71088 0.5674 0.63377 0.0
O111 O 0.66886 0.55442 0.57939 0.0
O112 O 0.68667 0.64972 0.55807 0.0
O113 O 0.74352 0.61609 0.5697 0.0
C114 C 0.71416 0.67075 0.66561 0.0
O115 O 0.60386 0.6126 0.57984 0.0
O116 O 0.61697 0.60794 0.63844 0.0
In117 In 0.29349 0.62755 0.63371 0.0
O118 O 0.31806 0.66989 0.68714 0.0
O119 O 0.24239 0.65258 0.67344 0.0
C120 C 0.38402 0.61089 0.62533 0.0
C121 C 0.24936 0.55618 0.62943 0.0
C122 C 0.27457 0.67206 0.58056 0.0
O123 O 0.36928 0.61761 0.65742 0.0
O124 O 0.35277 0.61161 0.59756 0.0
O125 O 0.24561 0.64362 0.584 0.0
O126 O 0.31125 0.67887 0.60515 0.0
C127 C 0.276 0.67264 0.69609 0.0
O128 O 0.2491 0.5737 0.6013 0.0
O129 O 0.27062 0.5751 0.66009 0.0
In130 In 0.2374 0.31994 0.60582 0.0
O131 O 0.31511 0.34435 0.62895 0.0
O132 O 0.30405 0.29109 0.59245 0.0
C133 C 0.20075 0.29698 0.53304 0.0
C134 C 0.20472 0.27614 0.65501 0.0
C135 C 0.22321 0.394 0.61346 0.0
O136 O 0.23744 0.28451 0.54839 0.0
O137 O 0.1799 0.31888 0.55544 0.0
O138 O 0.24395 0.37766 0.58715 0.0
O139 O 0.20911 0.37296 0.6366 0.0
C140 C 0.33386 0.31686 0.61232 0.0
O141 O 0.2386 0.30279 0.66422 0.0
O142 O 0.18501 0.27279 0.62124 0.0
In143 In 0.63605 0.31033 0.62461 0.0
O144 O 0.63427 0.25663 0.65115 0.0
O145 O 0.67261 0.30713 0.68379 0.0
C146 C 0.68189 0.28252 0.56618 0.0
C147 C 0.53975 0.31059 0.62293 0.0
C148 C 0.65984 0.3836 0.61947 0.0
O149 O 0.70363 0.30486 0.59469 0.0
O150 O 0.63804 0.27213 0.56864 0.0
O151 O 0.63213 0.36099 0.59421 0.0
O152 O 0.67513 0.36941 0.64821 0.0
C153 C 0.65843 0.27221 0.68205 0.0
O154 O 0.56934 0.33156 0.64817 0.0
O155 O 0.55875 0.28926 0.59884 0.0
In156 In 0.67614 0.32302 0.35018 0.0
O157 O 0.71855 0.33136 0.40939 0.0
O158 O 0.67581 0.27836 0.38901 0.0
C159 C 0.70099 0.38938 0.32616 0.0
C160 C 0.70889 0.2744 0.2974 0.0
C161 C 0.58291 0.32932 0.35949 0.0
O162 O 0.72409 0.37953 0.35473 0.0
O163 O 0.66622 0.36557 0.30976 0.0
O164 O 0.59596 0.30214 0.33767 0.0
O165 O 0.61701 0.35328 0.37693 0.0
C166 C 0.70355 0.29864 0.41588 0.0
O167 O 0.66442 0.2774 0.29826 0.0
O168 O 0.73692 0.29607 0.3232 0.0
In169 In 0.71165 0.6204 0.32186 0.0
O170 O 0.70194 0.64605 0.26763 0.0
O171 O 0.77286 0.6516 0.29647 0.0
C172 C 0.7492 0.63809 0.39527 0.0
C173 C 0.62101 0.63569 0.33238 0.0
C174 C 0.71777 0.54523 0.3047 0.0
O175 O 0.73699 0.66311 0.37573 0.0
O176 O 0.74414 0.60458 0.37734 0.0
O177 O 0.67834 0.55953 0.30067 0.0
O178 O 0.75467 0.56909 0.31579 0.0
C179 C 0.74552 0.65911 0.26899 0.0
O180 O 0.62944 0.60837 0.30831 0.0
O181 O 0.65813 0.6551 0.35105 0.0
In182 In 0.33606 0.67743 0.36909 0.0
O183 O 0.41791 0.68825 0.38632 0.0
O184 O 0.39161 0.65429 0.33303 0.0
C185 C 0.30188 0.70194 0.43459 0.0
C186 C 0.31219 0.72545 0.32076 0.0
C187 C 0.30766 0.60297 0.36614 0.0
O188 O 0.34599 0.70801 0.42994 0.0
O189 O 0.27456 0.68545 0.40538 0.0
O190 O 0.2911 0.6216 0.34116 0.0
O191 O 0.33761 0.6221 0.39238 0.0
C192 C 0.42778 0.66856 0.35647 0.0
O193 O 0.29308 0.69133 0.31637 0.0
O194 O 0.34191 0.73568 0.35027 0.0
In195 In 0.28848 0.36399 0.34323 0.0
O196 O 0.36749 0.38338 0.36773 0.0
O197 O 0.34872 0.32573 0.34173 0.0
C198 C 0.28406 0.43962 0.3524 0.0
C199 C 0.26295 0.33398 0.27013 0.0
C200 C 0.23571 0.32899 0.39014 0.0
O201 O 0.30031 0.42276 0.37883 0.0
O202 O 0.26961 0.41822 0.32123 0.0
O203 O 0.22455 0.35895 0.37832 0.0
O204 O 0.27287 0.31682 0.37808 0.0
C205 C 0.38162 0.35123 0.35798 0.0
O206 O 0.23304 0.33507 0.29424 0.0
O207 O 0.30494 0.34986 0.28258 0.0
C208 C 0.29047 0.29596 0.21417 0.0
C209 C 0.25237 0.30952 0.233 0.0
H210 H 0.31123 0.25354 0.17208 0.0
C211 C 0.20455 0.29447 0.21945 0.0
H212 H 0.32776 0.30717 0.22413 0.0
C213 C 0.19518 0.2641 0.18965 0.0
C214 C 0.23354 0.24802 0.17325 0.0
H215 H 0.17458 0.30465 0.23331 0.0
H216 H 0.158 0.25177 0.18107 0.0
C217 C 0.28112 0.26519 0.18455 0.0
C218 C 0.69392 0.22402 0.24041 0.0
C219 C 0.72667 0.24735 0.26864 0.0
H220 H 0.68471 0.18031 0.19186 0.0
C221 C 0.77645 0.24443 0.26932 0.0
H222 H 0.65532 0.22575 0.23929 0.0
C223 C 0.79324 0.21844 0.24224 0.0
C224 C 0.76048 0.19503 0.21407 0.0
H225 H 0.80244 0.26211 0.29082 0.0
H226 H 0.83183 0.21665 0.24341 0.0
C227 C 0.71071 0.19805 0.21331 0.0
C228 C 0.82547 0.72577 0.22337 0.0
C229 C 0.79078 0.74266 0.20212 0.0
H230 H 0.83819 0.68574 0.26143 0.0
C231 C 0.7416 0.72934 0.20023 0.0
H232 H 0.8637 0.73547 0.22512 0.0
C233 C 0.72714 0.70057 0.2205 0.0
C234 C 0.76161 0.68508 0.24337 0.0
H235 H 0.71421 0.74172 0.18379 0.0
H236 H 0.6888 0.69162 0.21948 0.0
C237 C 0.81095 0.69734 0.24408 0.0
C238 C 0.2753 0.73631 0.25743 0.0
C239 C 0.30264 0.7508 0.29252 0.0
H240 H 0.2454 0.74808 0.20359 0.0
C241 C 0.32209 0.78933 0.29982 0.0
H242 H 0.26023 0.70664 0.25092 0.0
C243 C 0.31361 0.81312 0.27268 0.0
C244 C 0.28589 0.79866 0.23772 0.0
H245 H 0.34354 0.80117 0.32661 0.0
H246 H 0.32822 0.84288 0.27925 0.0
C247 C 0.26717 0.75997 0.23023 0.0
C248 C 0.30353 0.72674 0.74855 0.0
C249 C 0.26684 0.69868 0.72957 0.0
H250 H 0.32188 0.77602 0.79137 0.0
C251 C 0.22081 0.69678 0.74185 0.0
H252 H 0.33945 0.72868 0.73967 0.0
C253 C 0.21104 0.72342 0.77169 0.0
C254 C 0.24697 0.75272 0.7894 0.0
H255 H 0.19206 0.67519 0.72789 0.0
H256 H 0.17474 0.72193 0.77984 0.0
C257 C 0.29357 0.75375 0.77812 0.0
C258 C 0.15648 0.18665 0.68983 0.0
C259 C 0.18153 0.19163 0.7266 0.0
H260 H 0.1435 0.21001 0.6384 0.0
C261 C 0.21207 0.22545 0.74028 0.0
H262 H 0.13232 0.16096 0.67871 0.0
C263 C 0.21817 0.25354 0.71736 0.0
C264 C 0.19374 0.24836 0.68038 0.0
H265 H 0.23149 0.23017 0.76864 0.0
H266 H 0.2427 0.27905 0.72842 0.0
C267 C 0.16248 0.21484 0.66691 0.0
C268 C 0.71519 0.24583 0.77343 0.0
C269 C 0.69677 0.20723 0.76957 0.0
H270 H 0.71743 0.29689 0.74842 0.0
C271 C 0.66275 0.19119 0.73841 0.0
H272 H 0.7415 0.25887 0.79724 0.0
C273 C 0.6494 0.21277 0.71044 0.0
C274 C 0.66966 0.25078 0.71326 0.0
H275 H 0.64791 0.16152 0.73479 0.0
H276 H 0.62414 0.19933 0.68611 0.0
C277 C 0.70165 0.2675 0.74546 0.0
C278 C 0.77444 0.72131 0.76097 0.0
C279 C 0.74995 0.75396 0.76554 0.0
H280 H 0.78255 0.66932 0.7253 0.0
C281 C 0.71334 0.75876 0.73734 0.0
H282 H 0.80303 0.71707 0.78226 0.0
C283 C 0.70208 0.73176 0.70467 0.0
C284 C 0.72712 0.69944 0.69976 0.0
H285 H 0.69413 0.78381 0.74007 0.0
H286 H 0.67385 0.73629 0.68321 0.0
C287 C 0.76304 0.69419 0.7283 0.0
C288 C 0.22227 0.15451 0.93442 0.0
C289 C 0.20004 0.12023 0.91251 0.0
H290 H 0.24517 0.18493 -0.00949 0.0
C291 C 0.18909 0.0885 0.93037 0.0
H292 H 0.23127 0.17931 0.92121 0.0
C293 C 0.19732 0.09159 0.96968 0.0
C294 C 0.21638 0.12654 -0.00809 0.0
H295 H 0.17256 0.06156 0.91406 0.0
H296 H 0.18664 0.06701 0.98272 0.0
C297 C 0.23027 0.15769 0.97397 0.0
C298 C 0.77828 0.1731 0.97498 0.0
C299 C 0.75128 0.14404 0.94837 0.0
H300 H 0.80633 0.19188 0.03318 0.0
C301 C 0.72736 0.11265 0.9611 0.0
H302 H 0.79693 0.19765 0.96592 0.0
C303 C 0.73322 0.10907 -0.00047 0.0
C304 C 0.76255 0.13706 0.02585 0.0
H305 H 0.70626 0.08981 0.94115 0.0
H306 H 0.71639 0.08369 0.00838 0.0
C307 C 0.78361 0.16976 0.01346 0.0
C308 C 0.7775 0.86576 -0.01551 0.0
C309 C 0.7812 0.83307 0.95853 0.0
H310 H 0.78189 0.89067 0.04268 0.0
C311 C 0.78718 0.79846 0.97189 0.0
H312 H 0.77247 0.89274 0.97494 0.0
C313 C 0.79276 0.79728 0.01091 0.0
C314 C 0.79237 0.83069 0.03687 0.0
H315 H 0.79005 0.77282 0.95237 0.0
H316 H 0.79962 0.77075 0.02072 0.0
C317 C 0.78302 0.86458 0.02329 0.0
C318 C 0.22879 0.81204 0.02765 0.0
C319 C 0.2576 0.84286 0.05076 0.0
H320 H 0.1997 0.78637 0.97125 0.0
C321 C 0.28411 0.86979 0.03364 0.0
H322 H 0.20814 0.79077 0.04006 0.0
C323 C 0.27898 0.86744 -0.0059 0.0
C324 C 0.24752 0.83801 0.97114 0.0
H325 H 0.30658 0.89387 0.0508 0.0
H326 H 0.29782 0.88963 0.98168 0.0
C327 C 0.22392 0.80957 -0.01178 0.0
C328 C 0.02788 0.15691 0.10286 0.0
C329 C 0.05246 0.1243 0.1015 0.0
H330 H 0.96156 0.18058 0.11074 0.0
C331 C 0.02718 0.08921 0.10485 0.0
H332 H 0.04658 0.18438 0.10058 0.0
C333 C 0.97816 0.08695 0.11011 0.0
C334 C 0.95425 0.11994 0.11298 0.0
H335 H 0.04543 0.0637 0.10395 0.0
H336 H 0.9594 0.05972 0.1131 0.0
C337 C 0.97936 0.15481 0.10895 0.0
C338 C 0.82509 0.97 0.21038 0.0
C339 C 0.79095 0.94088 0.18991 0.0
H340 H 0.85184 0.02915 0.21861 0.0
C341 C 0.7514 0.95066 0.16716 0.0
H342 H 0.85576 0.96328 0.22831 0.0
C343 C 0.74956 -0.01168 0.16108 0.0
C344 C 0.78687 0.0167 0.17811 0.0
H345 H 0.72439 0.92881 0.15113 0.0
H346 H 0.72089 -0.00537 0.14097 0.0
C347 C 0.82296 0.0077 0.20463 0.0
C348 C 0.01372 0.85822 0.19327 0.0
C349 C 0.98458 0.85373 0.1582 0.0
H350 H 0.08584 0.86576 0.22222 0.0
C351 C 0.00662 0.85458 0.12486 0.0
H352 H -0.00239 0.85765 0.21941 0.0
C353 C 0.05697 0.85959 0.1265 0.0
C354 C 0.08616 0.86343 0.16148 0.0
H355 H 0.98499 0.85134 0.09745 0.0
H356 H 0.07301 0.8599 0.1003 0.0
C357 C 0.06414 0.86282 0.19488 0.0
C358 C 0.2356 0.04763 0.19327 0.0
C359 C 0.26146 0.06142 0.16557 0.0
H360 H 0.21634 -0.00019 0.22055 0.0
C361 C 0.29603 0.03986 0.14985 0.0
H362 H 0.20911 0.06381 0.20621 0.0
C363 C 0.30047 0.00323 0.15836 0.0
C364 C 0.2701 -0.01232 0.18243 0.0
H365 H 0.31679 0.04996 0.12868 0.0
H366 H 0.32441 -0.01405 0.14341 0.0
C367 C 0.23974 0.01096 0.20151 0.0
C368 C 0.97465 0.8329 0.82321 0.0
C369 C 0.95478 0.85406 0.85269 0.0
H370 H 0.03848 0.8143 0.80231 0.0
C371 C 0.98568 0.87422 0.88412 0.0
H372 H 0.95171 0.817 0.79868 0.0
C373 C 0.03575 0.87287 0.8861 0.0
C374 C 0.05532 0.85095 0.85689 0.0
H375 H 0.97116 0.89073 0.90723 0.0
H376 H 0.05897 0.88843 0.91064 0.0
C377 C 0.02435 0.8312 0.82539 0.0
C378 C 0.25186 0.97022 0.81712 0.0
C379 C 0.21947 0.93776 0.80195 0.0
H380 H 0.268 0.03055 0.82019 0.0
C381 C 0.1826 0.94037 0.77289 0.0
H382 H 0.28078 0.96893 0.83934 0.0
C383 C 0.17486 0.97564 0.76229 0.0
C384 C 0.20447 0.00872 0.78001 0.0
H385 H 0.15723 0.91574 0.76044 0.0
H386 H 0.14368 0.97741 0.7422 0.0
C387 C 0.24469 0.00544 0.80593 0.0
C388 C 0.97152 0.11541 0.77938 0.0
C389 C 0.00842 0.12922 0.80918 0.0
H390 H 0.89552 0.10905 0.7606 0.0
C391 C -0.00349 0.14826 0.84351 0.0
H392 H 0.97984 0.1008 0.75258 0.0
C393 C 0.94826 0.15247 0.84833 0.0
C394 C 0.91134 0.13847 0.81859 0.0
H395 H 0.02438 0.15914 0.86695 0.0
H396 H 0.93983 0.16648 0.87534 0.0
C397 C 0.92341 0.12036 0.78391 0.0
C398 C 0.7853 0.9621 0.78956 0.0
C399 C 0.75774 0.94216 0.81245 0.0
H400 H 0.8022 0.01513 0.77024 0.0
C401 C 0.71997 0.95903 0.82886 0.0
H402 H 0.81419 0.94951 0.77614 0.0
C403 C 0.71313 -0.00326 0.82555 0.0
C404 C 0.74386 0.01784 0.80566 0.0
H405 H 0.69793 0.94409 0.84639 0.0
H406 H 0.68614 0.01009 0.84078 0.0
C407 C 0.77829 -0.00038 0.78607 0.0
C408 C 0.73501 0.67464 0.45666 0.0
C409 C 0.75703 0.64536 0.43694 0.0
H410 H 0.70745 0.69516 0.50838 0.0
C411 C 0.77738 0.61847 0.45683 0.0
H412 H 0.71892 0.69566 0.44191 0.0
C413 C 0.77151 0.61857 0.49501 0.0
C414 C 0.74428 0.64506 0.51343 0.0
H415 H 0.79467 0.5957 0.44217 0.0
H416 H 0.78446 0.59587 0.50898 0.0
C417 C 0.72818 0.67423 0.49461 0.0
C418 C 0.31138 0.71589 0.54071 0.0
C419 C 0.27233 0.69002 0.54593 0.0
H420 H 0.35118 0.74047 0.50068 0.0
C421 C 0.23688 0.67587 0.51509 0.0
H422 H 0.33899 0.72767 0.56407 0.0
C423 C 0.24368 0.68356 0.47874 0.0
C424 C 0.28621 0.70521 0.47284 0.0
H425 H 0.20617 0.65615 0.51836 0.0
H426 H 0.21802 0.66949 0.45493 0.0
C427 C 0.31841 0.72326 0.50438 0.0
C428 C 0.22913 0.28061 0.43332 0.0
C429 C 0.21281 0.31307 0.42049 0.0
H430 H 0.23638 0.24903 0.4795 0.0
C431 C 0.18088 0.33347 0.44096 0.0
H432 H 0.25302 0.26388 0.4177 0.0
C433 C 0.17097 0.32472 0.47634 0.0
C434 C 0.19317 0.29564 0.49157 0.0
H435 H 0.16723 0.35832 0.43142 0.0
H436 H 0.15042 0.34336 0.49335 0.0
C437 C 0.21934 0.27193 0.46863 0.0
C438 C 0.68157 0.25571 0.46173 0.0
C439 C 0.71033 0.28751 0.45392 0.0
H440 H 0.65046 0.22873 0.5045 0.0
C441 C 0.73913 0.31175 0.48394 0.0
H442 H 0.65945 0.23622 0.43908 0.0
C443 C 0.73471 0.30692 0.52144 0.0
C444 C 0.70079 0.27821 0.52923 0.0
H445 H 0.76209 0.33619 0.47863 0.0
H446 H 0.75394 0.32809 0.54414 0.0
C447 C 0.67655 0.25126 0.49918 0.0
C448 C 0.50043 0.60536 0.58119 0.0
C449 C 0.53397 0.60562 0.61324 0.0
H450 H 0.42619 0.60632 0.55988 0.0
C451 C 0.51736 0.60477 0.64879 0.0
H452 H 0.51229 0.60582 0.55343 0.0
C453 C 0.46825 0.60516 0.65252 0.0
C454 C 0.43489 0.60618 0.62072 0.0
H455 H 0.54244 0.6048 0.67398 0.0
H456 H 0.45661 0.60558 0.68045 0.0
C457 C 0.45121 0.60552 0.58489 0.0
C458 C 0.23064 0.49709 0.65777 0.0
C459 C 0.23277 0.51517 0.62554 0.0
H460 H 0.22462 0.44381 0.6791 0.0
C461 C 0.22475 0.49299 0.58933 0.0
H462 H 0.23655 0.5136 0.68601 0.0
C463 C 0.21885 0.45333 0.5855 0.0
C464 C 0.21978 0.4352 0.61774 0.0
H465 H 0.22609 0.50614 0.56399 0.0
H466 H 0.21557 0.4368 0.55732 0.0
C467 C 0.22367 0.45726 0.65386 0.0
C468 C 0.46789 0.34006 0.64446 0.0
C469 C 0.48706 0.31168 0.621 0.0
H470 H 0.40408 0.36412 0.65987 0.0
C471 C 0.45552 0.28482 0.59501 0.0
H472 H 0.49146 0.36119 0.66467 0.0
C473 C 0.40563 0.28635 0.59244 0.0
C474 C 0.38646 0.31498 0.61558 0.0
H475 H 0.46938 0.26263 0.57659 0.0
H476 H 0.38211 0.26533 0.57208 0.0
C477 C 0.41797 0.3418 0.64165 0.0
C478 C 0.70712 0.4882 0.64199 0.0
C479 C 0.68936 0.50111 0.60856 0.0
H480 H 0.71153 0.44046 0.67179 0.0
C481 C 0.66515 0.47472 0.57801 0.0
H482 H 0.72588 0.50804 0.66598 0.0
C483 C 0.65674 0.43636 0.58141 0.0
C484 C 0.67245 0.42364 0.61541 0.0
H485 H 0.65122 0.48386 0.55185 0.0
H486 H 0.63688 0.41683 0.55766 0.0
C487 C 0.69874 0.44965 0.64538 0.0
C488 C 0.46899 0.37346 0.38033 0.0
C489 C 0.43299 0.34453 0.36208 0.0
H490 H 0.54504 0.39116 0.39414 0.0
C491 C 0.44667 0.30969 0.34538 0.0
H492 H 0.45941 0.40057 0.39349 0.0
C493 C 0.49548 0.30444 0.34547 0.0
C494 C 0.53154 0.33379 0.36255 0.0
H495 H 0.4197 0.28684 0.33115 0.0
H496 H 0.50495 0.27764 0.33146 0.0
C497 C 0.51792 0.36807 0.38071 0.0
C498 C 0.67493 0.4405 0.29082 0.0
C499 C 0.7101 0.42742 0.31519 0.0
H500 H 0.64999 0.48847 0.26825 0.0
C501 C 0.75144 0.45221 0.33151 0.0
H502 H 0.64276 0.42196 0.27771 0.0
C503 C 0.756 0.49016 0.32542 0.0
C504 C 0.71886 0.50393 0.30352 0.0
H505 H 0.77922 0.44273 0.3502 0.0
H506 H 0.78698 0.50926 0.33994 0.0
C507 C 0.67906 0.47853 0.28532 0.0
C508 C 0.5317 0.62586 0.31333 0.0
C509 C 0.57168 0.64447 0.33832 0.0
H510 H 0.45478 0.6193 0.29933 0.0
C511 C 0.56419 0.67163 0.36906 0.0
H512 H 0.53648 0.60489 0.28936 0.0
C513 C 0.51739 0.67975 0.37493 0.0
C514 C 0.4774 0.6611 0.34993 0.0
H515 H 0.59444 0.68637 0.3888 0.0
H516 H 0.51252 0.70052 0.39904 0.0
C517 C 0.485 0.63423 0.31898 0.0
C518 C 0.26718 0.49933 0.32686 0.0
C519 C 0.28509 0.48142 0.357 0.0
H520 H 0.2598 0.55226 0.30624 0.0
C521 C 0.30668 0.5039 0.39108 0.0
H522 H 0.25018 0.48264 0.30031 0.0
C523 C 0.31232 0.54353 0.39439 0.0
C524 C 0.29621 0.56146 0.36377 0.0
H525 H 0.32062 0.49089 0.41486 0.0
H526 H 0.33044 0.56009 0.42066 0.0
C527 C 0.27255 0.53911 0.33027 0.0
loop_
_geom_bond_atom_site_label_1
_geom_bond_atom_site_label_2
_geom_bond_distance
_geom_bond_site_symmetry_2
_ccdc_geom_bond_type
In0 O1 2.294 . S
In0 O2 2.326 . S
In0 O6 2.266 . S
In0 O7 2.326 . S
In0 O8 2.266 . S
In0 O9 2.326 . S
In0 O11 2.294 . S
In0 O12 2.326 . S
O1 In0 2.294 . S
O1 C10 1.240 . S
O2 In0 2.326 . S
O2 C10 1.252 . S
C3 O6 1.252 . S
C3 O7 1.260 . S
C4 O11 1.240 . S
C4 O12 1.252 . S
C5 O8 1.252 . S
C5 O9 1.260 . S
O6 In0 2.266 . S
O6 C3 1.252 . S
O7 In0 2.326 . S
O7 C3 1.260 . S
O8 In0 2.266 . S
O8 C5 1.252 . S
O9 In0 2.326 . S
O9 C5 1.260 . S
C10 O1 1.240 . S
C10 O2 1.252 . S
O11 In0 2.294 . S
O11 C4 1.240 . S
O12 In0 2.326 . S
O12 C4 1.252 . S
In13 O14 2.294 . S
In13 O15 2.326 . S
In13 O19 2.266 . S
In13 O20 2.326 . S
In13 O21 2.266 . S
In13 O22 2.326 . S
In13 O24 2.294 . S
In13 O25 2.326 . S
O14 In13 2.294 . S
O14 C23 1.240 . S
O15 In13 2.326 . S
O15 C23 1.252 . S
C16 O19 1.252 . S
C16 O20 1.260 . S
C17 O24 1.240 . S
C17 O25 1.252 . S
C18 O21 1.252 . S
C18 O22 1.260 . S
O19 In13 2.266 . S
O19 C16 1.252 . S
O20 In13 2.326 . S
O20 C16 1.260 . S
O21 In13 2.266 . S
O21 C18 1.252 . S
O22 In13 2.326 . S
O22 C18 1.260 . S
C23 O14 1.240 . S
C23 O15 1.252 . S
O24 In13 2.294 . S
O24 C17 1.240 . S
O25 In13 2.326 . S
O25 C17 1.252 . S
In26 O27 2.294 . S
In26 O28 2.326 . S
In26 O32 2.266 . S
In26 O33 2.326 . S
In26 O34 2.266 . S
In26 O35 2.326 . S
In26 O37 2.294 . S
In26 O38 2.326 . S
O27 In26 2.294 . S
O27 C36 1.240 . S
O28 In26 2.326 . S
O28 C36 1.252 . S
C29 O32 1.252 . S
C29 O33 1.260 . S
C30 O37 1.240 . S
C30 O38 1.252 . S
C31 O34 1.252 . S
C31 O35 1.260 . S
O32 In26 2.266 . S
O32 C29 1.252 . S
O33 In26 2.326 . S
O33 C29 1.260 . S
O34 In26 2.266 . S
O34 C31 1.252 . S
O35 In26 2.326 . S
O35 C31 1.260 . S
C36 O27 1.240 . S
C36 O28 1.252 . S
O37 In26 2.294 . S
O37 C30 1.240 . S
O38 In26 2.326 . S
O38 C30 1.252 . S
In39 O40 2.294 . S
In39 O41 2.326 . S
In39 O45 2.266 . S
In39 O46 2.326 . S
In39 O47 2.266 . S
In39 O48 2.326 . S
In39 O50 2.294 . S
In39 O51 2.326 . S
O40 In39 2.294 . S
O40 C49 1.240 . S
O41 In39 2.326 . S
O41 C49 1.252 . S
C42 O45 1.252 . S
C42 O46 1.260 . S
C43 O50 1.240 . S
C43 O51 1.252 . S
C44 O47 1.252 . S
C44 O48 1.260 . S
O45 In39 2.266 . S
O45 C42 1.252 . S
O46 In39 2.326 . S
O46 C42 1.260 . S
O47 In39 2.266 . S
O47 C44 1.252 . S
O48 In39 2.326 . S
O48 C44 1.260 . S
C49 O40 1.240 . S
C49 O41 1.252 . S
O50 In39 2.294 . S
O50 C43 1.240 . S
O51 In39 2.326 . S
O51 C43 1.252 . S
In52 O53 2.294 . S
In52 O54 2.326 . S
In52 O58 2.266 . S
In52 O59 2.326 . S
In52 O60 2.266 . S
In52 O61 2.326 . S
In52 O63 2.294 . S
In52 O64 2.326 . S
O53 In52 2.294 . S
O53 C62 1.240 . S
O54 In52 2.326 . S
O54 C62 1.252 . S
C55 O58 1.252 . S
C55 O59 1.260 . S
C56 O63 1.240 . S
C56 O64 1.252 . S
C57 O60 1.252 . S
C57 O61 1.260 . S
O58 In52 2.266 . S
O58 C55 1.252 . S
O59 In52 2.326 . S
O59 C55 1.260 . S
O60 In52 2.266 . S
O60 C57 1.252 . S
O61 In52 2.326 . S
O61 C57 1.260 . S
C62 O53 1.240 . S
C62 O54 1.252 . S
O63 In52 2.294 . S
O63 C56 1.240 . S
O64 In52 2.326 . S
O64 C56 1.252 . S
In65 O66 2.294 . S
In65 O67 2.326 . S
In65 O71 2.266 . S
In65 O72 2.326 . S
In65 O73 2.266 . S
In65 O74 2.326 . S
In65 O76 2.294 . S
In65 O77 2.326 . S
O66 In65 2.294 . S
O66 C75 1.240 . S
O67 In65 2.326 . S
O67 C75 1.252 . S
C68 O71 1.252 . S
C68 O72 1.260 . S
C69 O76 1.240 . S
C69 O77 1.252 . S
C70 O73 1.252 . S
C70 O74 1.260 . S
O71 In65 2.266 . S
O71 C68 1.252 . S
O72 In65 2.326 . S
O72 C68 1.260 . S
O73 In65 2.266 . S
O73 C70 1.252 . S
O74 In65 2.326 . S
O74 C70 1.260 . S
C75 O66 1.240 . S
C75 O67 1.252 . S
O76 In65 2.294 . S
O76 C69 1.240 . S
O77 In65 2.326 . S
O77 C69 1.252 . S
In78 O79 2.294 . S
In78 O80 2.326 . S
In78 O84 2.266 . S
In78 O85 2.326 . S
In78 O86 2.266 . S
In78 O87 2.326 . S
In78 O89 2.294 . S
In78 O90 2.326 . S
O79 In78 2.294 . S
O79 C88 1.240 . S
O80 In78 2.326 . S
O80 C88 1.252 . S
C81 O84 1.252 . S
C81 O85 1.260 . S
C82 O89 1.240 . S
C82 O90 1.252 . S
C83 O86 1.252 . S
C83 O87 1.260 . S
O84 In78 2.266 . S
O84 C81 1.252 . S
O85 In78 2.326 . S
O85 C81 1.260 . S
O86 In78 2.266 . S
O86 C83 1.252 . S
O87 In78 2.326 . S
O87 C83 1.260 . S
C88 O79 1.240 . S
C88 O80 1.252 . S
O89 In78 2.294 . S
O89 C82 1.240 . S
O90 In78 2.326 . S
O90 C82 1.252 . S
In91 O92 2.294 . S
In91 O93 2.326 . S
In91 O97 2.266 . S
In91 O98 2.326 . S
In91 O99 2.266 . S
In91 O100 2.326 . S
In91 O102 2.294 . S
In91 O103 2.326 . S
O92 In91 2.294 . S
O92 C101 1.240 . S
O93 In91 2.326 . S
O93 C101 1.252 . S
C94 O97 1.252 . S
C94 O98 1.260 . S
C95 O102 1.240 . S
C95 O103 1.252 . S
C96 O99 1.252 . S
C96 O100 1.260 . S
O97 In91 2.266 . S
O97 C94 1.252 . S
O98 In91 2.326 . S
O98 C94 1.260 . S
O99 In91 2.266 . S
O99 C96 1.252 . S
O100 In91 2.326 . S
O100 C96 1.260 . S
C101 O92 1.240 . S
C101 O93 1.252 . S
O102 In91 2.294 . S
O102 C95 1.240 . S
O103 In91 2.326 . S
O103 C95 1.252 . S
In104 O105 2.294 . S
In104 O106 2.326 . S
In104 O110 2.266 . S
In104 O111 2.326 . S
In104 O112 2.266 . S
In104 O113 2.326 . S
In104 O115 2.294 . S
In104 O116 2.326 . S
O105 In104 2.294 . S
O105 C114 1.240 . S
O106 In104 2.326 . S
O106 C114 1.252 . S
C107 O110 1.252 . S
C107 O111 1.260 . S
C108 O115 1.240 . S
C108 O116 1.252 . S
C109 O112 1.252 . S
C109 O113 1.260 . S
O110 In104 2.266 . S
O110 C107 1.252 . S
O111 In104 2.326 . S
O111 C107 1.260 . S
O112 In104 2.266 . S
O112 C109 1.252 . S
O113 In104 2.326 . S
O113 C109 1.260 . S
C114 O105 1.240 . S
C114 O106 1.252 . S
O115 In104 2.294 . S
O115 C108 1.240 . S
O116 In104 2.326 . S
O116 C108 1.252 . S
In117 O118 2.294 . S
In117 O119 2.326 . S
In117 O123 2.266 . S
In117 O124 2.326 . S
In117 O125 2.266 . S
In117 O126 2.326 . S
In117 O128 2.294 . S
In117 O129 2.326 . S
O118 In117 2.294 . S
O118 C127 1.240 . S
O119 In117 2.326 . S
O119 C127 1.252 . S
C120 O123 1.252 . S
C120 O124 1.260 . S
C121 O128 1.240 . S
C121 O129 1.252 . S
C122 O125 1.252 . S
C122 O126 1.260 . S
O123 In117 2.266 . S
O123 C120 1.252 . S
O124 In117 2.326 . S
O124 C120 1.260 . S
O125 In117 2.266 . S
O125 C122 1.252 . S
O126 In117 2.326 . S
O126 C122 1.260 . S
C127 O118 1.240 . S
C127 O119 1.252 . S
O128 In117 2.294 . S
O128 C121 1.240 . S
O129 In117 2.326 . S
O129 C121 1.252 . S
In130 O131 2.294 . S
In130 O132 2.326 . S
In130 O136 2.266 . S
In130 O137 2.326 . S
In130 O138 2.266 . S
In130 O139 2.326 . S
In130 O141 2.294 . S
In130 O142 2.326 . S
O131 In130 2.294 . S
O131 C140 1.240 . S
O132 In130 2.326 . S
O132 C140 1.252 . S
C133 O136 1.252 . S
C133 O137 1.260 . S
C134 O141 1.240 . S
C134 O142 1.252 . S
C135 O138 1.252 . S
C135 O139 1.260 . S
O136 In130 2.266 . S
O136 C133 1.252 . S
O137 In130 2.326 . S
O137 C133 1.260 . S
O138 In130 2.266 . S
O138 C135 1.252 . S
O139 In130 2.326 . S
O139 C135 1.260 . S
C140 O131 1.240 . S
C140 O132 1.252 . S
O141 In130 2.294 . S
O141 C134 1.240 . S
O142 In130 2.326 . S
O142 C134 1.252 . S
In143 O144 2.294 . S
In143 O145 2.326 . S
In143 O149 2.266 . S
In143 O150 2.326 . S
In143 O151 2.266 . S
In143 O152 2.326 . S
In143 O154 2.294 . S
In143 O155 2.326 . S
O144 In143 2.294 . S
O144 C153 1.240 . S
O145 In143 2.326 . S
O145 C153 1.252 . S
C146 O149 1.252 . S
C146 O150 1.260 . S
C147 O154 1.240 . S
C147 O155 1.252 . S
C148 O151 1.252 . S
C148 O152 1.260 . S
O149 In143 2.266 . S
O149 C146 1.252 . S
O150 In143 2.326 . S
O150 C146 1.260 . S
O151 In143 2.266 . S
O151 C148 1.252 . S
O152 In143 2.326 . S
O152 C148 1.260 . S
C153 O144 1.240 . S
C153 O145 1.252 . S
O154 In143 2.294 . S
O154 C147 1.240 . S
O155 In143 2.326 . S
O155 C147 1.252 . S
In156 O157 2.294 . S
In156 O158 2.326 . S
In156 O162 2.266 . S
In156 O163 2.326 . S
In156 O164 2.266 . S
In156 O165 2.326 . S
In156 O167 2.294 . S
In156 O168 2.326 . S
O157 In156 2.294 . S
O157 C166 1.240 . S
O158 In156 2.326 . S
O158 C166 1.252 . S
C159 O162 1.252 . S
C159 O163 1.260 . S
C160 O167 1.240 . S
C160 O168 1.252 . S
C161 O164 1.252 . S
C161 O165 1.260 . S
O162 In156 2.266 . S
O162 C159 1.252 . S
O163 In156 2.326 . S
O163 C159 1.260 . S
O164 In156 2.266 . S
O164 C161 1.252 . S
O165 In156 2.326 . S
O165 C161 1.260 . S
C166 O157 1.240 . S
C166 O158 1.252 . S
O167 In156 2.294 . S
O167 C160 1.240 . S
O168 In156 2.326 . S
O168 C160 1.252 . S
In169 O170 2.294 . S
In169 O171 2.326 . S
In169 O175 2.266 . S
In169 O176 2.326 . S
In169 O177 2.266 . S
In169 O178 2.326 . S
In169 O180 2.294 . S
In169 O181 2.326 . S
O170 In169 2.294 . S
O170 C179 1.240 . S
O171 In169 2.326 . S
O171 C179 1.252 . S
C172 O175 1.252 . S
C172 O176 1.260 . S
C173 O180 1.240 . S
C173 O181 1.252 . S
C174 O177 1.252 . S
C174 O178 1.260 . S
O175 In169 2.266 . S
O175 C172 1.252 . S
O176 In169 2.326 . S
O176 C172 1.260 . S
O177 In169 2.266 . S
O177 C174 1.252 . S
O178 In169 2.326 . S
O178 C174 1.260 . S
C179 O170 1.240 . S
C179 O171 1.252 . S
O180 In169 2.294 . S
O180 C173 1.240 . S
O181 In169 2.326 . S
O181 C173 1.252 . S
In182 O183 2.294 . S
In182 O184 2.326 . S
In182 O188 2.266 . S
In182 O189 2.326 . S
In182 O190 2.266 . S
In182 O191 2.326 . S
In182 O193 2.294 . S
In182 O194 2.326 . S
O183 In182 2.294 . S
O183 C192 1.240 . S
O184 In182 2.326 . S
O184 C192 1.252 . S
C185 O188 1.252 . S
C185 O189 1.260 . S
C186 O193 1.240 . S
C186 O194 1.252 . S
C187 O190 1.252 . S
C187 O191 1.260 . S
O188 In182 2.266 . S
O188 C185 1.252 . S
O189 In182 2.326 . S
O189 C185 1.260 . S
O190 In182 2.266 . S
O190 C187 1.252 . S
O191 In182 2.326 . S
O191 C187 1.260 . S
C192 O183 1.240 . S
C192 O184 1.252 . S
O193 In182 2.294 . S
O193 C186 1.240 . S
O194 In182 2.326 . S
O194 C186 1.252 . S
In195 O196 2.294 . S
In195 O197 2.326 . S
In195 O201 2.266 . S
In195 O202 2.326 . S
In195 O203 2.266 . S
In195 O204 2.326 . S
In195 O206 2.294 . S
In195 O207 2.326 . S
O196 In195 2.294 . S
O196 C205 1.240 . S
O197 In195 2.326 . S
O197 C205 1.252 . S
C198 O201 1.252 . S
C198 O202 1.260 . S
C199 O206 1.240 . S
C199 O207 1.252 . S
C200 O203 1.252 . S
C200 O204 1.260 . S
O201 In195 2.266 . S
O201 C198 1.252 . S
O202 In195 2.326 . S
O202 C198 1.260 . S
O203 In195 2.266 . S
O203 C200 1.252 . S
O204 In195 2.326 . S
O204 C200 1.260 . S
C205 O196 1.240 . S
C205 O197 1.252 . S
O206 In195 2.294 . S
O206 C199 1.240 . S
O207 In195 2.326 . S
O207 C199 1.252 . S
C208 C209 1.387 . S
C208 H212 0.950 . S
C208 C217 1.390 . S
C209 C208 1.387 . S
C209 C211 1.387 . S
H210 C217 0.950 . S
C211 C209 1.387 . S
C211 C213 1.390 . S
C211 H215 0.950 . S
H212 C208 0.950 . S
C213 C211 1.390 . S
C213 C214 1.387 . S
C213 H216 0.950 . S
C214 C213 1.387 . S
C214 C217 1.387 . S
H215 C211 0.950 . S
H216 C213 0.950 . S
C217 C208 1.390 . S
C217 H210 0.950 . S
C217 C214 1.387 . S
C218 C219 1.387 . S
C218 H222 0.950 . S
C218 C227 1.390 . S
C219 C218 1.387 . S
C219 C221 1.387 . S
H220 C227 0.950 . S
C221 C219 1.387 . S
C221 C223 1.390 . S
C221 H225 0.950 . S
H222 C218 0.950 . S
C223 C221 1.390 . S
C223 C224 1.387 . S
C223 H226 0.950 . S
C224 C223 1.387 . S
C224 C227 1.387 . S
H225 C221 0.950 . S
H226 C223 0.950 . S
C227 C218 1.390 . S
C227 H220 0.950 . S
C227 C224 1.387 . S
C228 C229 1.387 . S
C228 H232 0.950 . S
C228 C237 1.390 . S
C229 C228 1.387 . S
C229 C231 1.387 . S
H230 C237 0.950 . S
C231 C229 1.387 . S
C231 C233 1.390 . S
C231 H235 0.950 . S
H232 C228 0.950 . S
C233 C231 1.390 . S
C233 C234 1.387 . S
C233 H236 0.950 . S
C234 C233 1.387 . S
C234 C237 1.387 . S
H235 C231 0.950 . S
H236 C233 0.950 . S
C237 C228 1.390 . S
C237 H230 0.950 . S
C237 C234 1.387 . S
C238 C239 1.387 . S
C238 H242 0.950 . S
C238 C247 1.390 . S
C239 C238 1.387 . S
C239 C241 1.387 . S
H240 C247 0.950 . S
C241 C239 1.387 . S
C241 C243 1.390 . S
C241 H245 0.950 . S
H242 C238 0.950 . S
C243 C241 1.390 . S
C243 C244 1.387 . S
C243 H246 0.950 . S
C244 C243 1.387 . S
C244 C247 1.387 . S
H245 C241 0.950 . S
H246 C243 0.950 . S
C247 C238 1.390 . S
C247 H240 0.950 . S
C247 C244 1.387 . S
C248 C249 1.387 . S
C248 H252 0.950 . S
C248 C257 1.390 . S
C249 C248 1.387 . S
C249 C251 1.387 . S
H250 C257 0.950 . S
C251 C249 1.387 . S
C251 C253 1.390 . S
C251 H255 0.950 . S
H252 C248 0.950 . S
C253 C251 1.390 . S
C253 C254 1.387 . S
C253 H256 0.950 . S
C254 C253 1.387 . S
C254 C257 1.387 . S
H255 C251 0.950 . S
H256 C253 0.950 . S
C257 C248 1.390 . S
C257 H250 0.950 . S
C257 C254 1.387 . S
C258 C259 1.387 . S
C258 H262 0.950 . S
C258 C267 1.390 . S
C259 C258 1.387 . S
C259 C261 1.387 . S
H260 C267 0.950 . S
C261 C259 1.387 . S
C261 C263 1.390 . S
C261 H265 0.950 . S
H262 C258 0.950 . S
C263 C261 1.390 . S
C263 C264 1.387 . S
C263 H266 0.950 . S
C264 C263 1.387 . S
C264 C267 1.387 . S
H265 C261 0.950 . S
H266 C263 0.950 . S
C267 C258 1.390 . S
C267 H260 0.950 . S
C267 C264 1.387 . S
C268 C269 1.387 . S
C268 H272 0.950 . S
C268 C277 1.390 . S
C269 C268 1.387 . S
C269 C271 1.387 . S
H270 C277 0.950 . S
C271 C269 1.387 . S
C271 C273 1.390 . S
C271 H275 0.950 . S
H272 C268 0.950 . S
C273 C271 1.390 . S
C273 C274 1.387 . S
C273 H276 0.950 . S
C274 C273 1.387 . S
C274 C277 1.387 . S
H275 C271 0.950 . S
H276 C273 0.950 . S
C277 C268 1.390 . S
C277 H270 0.950 . S
C277 C274 1.387 . S
C278 C279 1.387 . S
C278 H282 0.950 . S
C278 C287 1.390 . S
C279 C278 1.387 . S
C279 C281 1.387 . S
H280 C287 0.950 . S
C281 C279 1.387 . S
C281 C283 1.390 . S
C281 H285 0.950 . S
H282 C278 0.950 . S
C283 C281 1.390 . S
C283 C284 1.387 . S
C283 H286 0.950 . S
C284 C283 1.387 . S
C284 C287 1.387 . S
H285 C281 0.950 . S
H286 C283 0.950 . S
C287 C278 1.390 . S
C287 H280 0.950 . S
C287 C284 1.387 . S
C288 C289 1.387 . S
C288 H292 0.950 . S
C288 C297 1.390 . S
C289 C288 1.387 . S
C289 C291 1.387 . S
H290 C297 0.950 1_554 S
C291 C289 1.387 . S
C291 C293 1.390 . S
C291 H295 0.950 . S
H292 C288 0.950 . S
C293 C291 1.390 . S
C293 C294 1.387 1_556 S
C293 H296 0.937 1_556 S
C294 C293 1.387 1_554 S
C294 C297 1.387 1_554 S
H295 C291 0.950 . S
H296 C293 0.937 1_554 S
C297 C288 1.390 . S
C297 H290 0.950 1_556 S
C297 C294 1.387 1_556 S
C298 C299 1.387 1_554 S
C298 H302 0.950 1_554 S
C298 C307 1.390 . S
C299 C298 1.387 1_556 S
C299 C301 1.387 1_556 S
H300 C307 0.950 . S
C301 C299 1.387 1_554 S
C301 C303 1.390 . S
C301 H305 0.950 . S
H302 C298 0.950 1_556 S
C303 C301 1.390 . S
C303 C304 1.387 . S
C303 H306 0.950 . S
C304 C303 1.387 . S
C304 C307 1.387 . S
H305 C301 0.950 . S
H306 C303 0.950 . S
C307 C298 1.390 . S
C307 H300 0.950 . S
C307 C304 1.387 . S
C308 C309 1.387 1_554 S
C308 H312 0.950 . S
C308 C317 1.390 . S
C309 C308 1.387 1_556 S
C309 C311 1.387 . S
H310 C317 0.950 . S
C311 C309 1.387 . S
C311 C313 1.390 1_556 S
C311 H315 0.950 . S
H312 C308 0.950 . S
C313 C311 1.390 1_554 S
C313 C314 1.387 . S
C313 H316 0.950 . S
C314 C313 1.387 . S
C314 C317 1.387 . S
H315 C311 0.950 . S
H316 C313 0.950 . S
C317 C308 1.390 . S
C317 H310 0.950 . S
C317 C314 1.387 . S
C318 C319 1.384 1_556 S
C318 H322 0.944 1_556 S
C318 C327 1.399 . S
C319 C318 1.384 1_554 S
C319 C321 1.390 . S
H320 C327 0.950 . S
C321 C319 1.390 . S
C321 C323 1.386 1_554 S
C321 H325 0.951 . S
H322 C318 0.944 1_554 S
C323 C321 1.386 1_556 S
C323 C324 1.387 . S
C323 H326 0.950 . S
C324 C323 1.387 . S
C324 C327 1.387 . S
H325 C321 0.951 . S
H326 C323 0.950 . S
C327 C318 1.399 . S
C327 H320 0.950 . S
C327 C324 1.387 . S
C328 C329 1.387 . S
C328 H332 0.950 . S
C328 C337 1.390 . S
C329 C328 1.387 . S
C329 C331 1.387 . S
H330 C337 0.950 . S
C331 C329 1.387 . S
C331 C333 1.390 . S
C331 H335 0.950 . S
H332 C328 0.950 . S
C333 C331 1.390 . S
C333 C334 1.387 . S
C333 H336 0.950 1_455 S
C334 C333 1.387 . S
C334 C337 1.387 . S
H335 C331 0.950 . S
H336 C333 0.950 1_655 S
C337 C328 1.390 . S
C337 H330 0.950 . S
C337 C334 1.387 . S
C338 C339 1.387 . S
C338 H342 0.950 . S
C338 C347 1.390 1_565 S
C339 C338 1.387 . S
C339 C341 1.387 1_565 S
H340 C347 0.950 . S
C341 C339 1.387 1_545 S
C341 C343 1.390 . S
C341 H345 0.950 1_545 S
H342 C338 0.950 . S
C343 C341 1.390 . S
C343 C344 1.387 . S
C343 H346 0.950 . S
C344 C343 1.387 . S
C344 C347 1.387 . S
H345 C341 0.950 1_565 S
H346 C343 0.950 . S
C347 C338 1.390 1_545 S
C347 H340 0.950 . S
C347 C344 1.387 . S
C348 C349 1.387 . S
C348 H352 0.950 . S
C348 C357 1.390 1_655 S
C349 C348 1.387 . S
C349 C351 1.387 . S
H350 C357 0.950 . S
C351 C349 1.387 . S
C351 C353 1.390 1_655 S
C351 H355 0.950 . S
H352 C348 0.950 . S
C353 C351 1.390 1_455 S
C353 C354 1.387 . S
C353 H356 0.950 . S
C354 C353 1.387 . S
C354 C357 1.387 . S
H355 C351 0.950 . S
H356 C353 0.950 . S
C357 C348 1.390 1_455 S
C357 H350 0.950 . S
C357 C354 1.387 . S
C358 C359 1.379 1_565 S
C358 H362 0.938 1_565 S
C358 C367 1.411 . S
C359 C358 1.379 1_545 S
C359 C361 1.387 1_545 S
H360 C367 0.950 . S
C361 C359 1.387 1_565 S
C361 C363 1.390 . S
C361 H365 0.950 1_565 S
H362 C358 0.938 1_545 S
C363 C361 1.390 . S
C363 C364 1.387 . S
C363 H366 0.950 . S
C364 C363 1.387 . S
C364 C367 1.387 . S
H365 C361 0.950 1_545 S
H366 C363 0.950 . S
C367 C358 1.411 . S
C367 H360 0.950 . S
C367 C364 1.387 . S
C368 C369 1.387 . S
C368 H372 0.950 . S
C368 C377 1.390 . S
C369 C368 1.387 . S
C369 C371 1.387 . S
H370 C377 0.950 . S
C371 C369 1.387 . S
C371 C373 1.390 . S
C371 H375 0.950 . S
H372 C368 0.950 . S
C373 C371 1.390 . S
C373 C374 1.387 . S
C373 H376 0.950 . S
C374 C373 1.387 . S
C374 C377 1.387 . S
H375 C371 0.950 . S
H376 C373 0.950 . S
C377 C368 1.390 . S
C377 H370 0.950 . S
C377 C374 1.387 . S
C378 C379 1.387 . S
C378 H382 0.950 . S
C378 C387 1.396 . S
C379 C378 1.387 . S
C379 C381 1.387 . S
H380 C387 0.946 1_545 S
C381 C379 1.387 . S
C381 C383 1.390 . S
C381 H385 0.950 . S
H382 C378 0.950 . S
C383 C381 1.390 . S
C383 C384 1.387 1_565 S
C383 H386 0.950 . S
C384 C383 1.387 1_545 S
C384 C387 1.385 1_545 S
H385 C381 0.950 . S
H386 C383 0.950 . S
C387 C378 1.396 . S
C387 H380 0.946 1_565 S
C387 C384 1.385 1_565 S
C388 C389 1.387 . S
C388 H392 0.950 . S
C388 C397 1.390 1_455 S
C389 C388 1.387 . S
C389 C391 1.387 . S
H390 C397 0.950 . S
C391 C389 1.387 . S
C391 C393 1.390 1_455 S
C391 H395 0.950 . S
H392 C388 0.950 . S
C393 C391 1.390 1_655 S
C393 C394 1.387 . S
C393 H396 0.950 . S
C394 C393 1.387 . S
C394 C397 1.387 . S
H395 C391 0.950 . S
H396 C393 0.950 . S
C397 C388 1.390 1_655 S
C397 H390 0.950 . S
C397 C394 1.387 . S
C398 C399 1.387 1_545 S
C398 H402 0.950 1_545 S
C398 C407 1.390 . S
C399 C398 1.387 1_565 S
C399 C401 1.387 1_565 S
H400 C407 0.950 . S
C401 C399 1.387 1_545 S
C401 C403 1.390 . S
C401 H405 0.947 1_545 S
H402 C398 0.950 1_565 S
C403 C401 1.390 . S
C403 C404 1.387 . S
C403 H406 0.950 . S
C404 C403 1.387 . S
C404 C407 1.387 . S
H405 C401 0.947 1_565 S
H406 C403 0.950 . S
C407 C398 1.390 . S
C407 H400 0.950 . S
C407 C404 1.387 . S
C408 C409 1.387 . S
C408 H412 0.950 . S
C408 C417 1.390 . S
C409 C408 1.387 . S
C409 C411 1.387 . S
H410 C417 0.950 . S
C411 C409 1.387 . S
C411 C413 1.390 . S
C411 H415 0.950 . S
H412 C408 0.950 . S
C413 C411 1.390 . S
C413 C414 1.387 . S
C413 H416 0.950 . S
C414 C413 1.387 . S
C414 C417 1.387 . S
H415 C411 0.950 . S
H416 C413 0.950 . S
C417 C408 1.390 . S
C417 H410 0.950 . S
C417 C414 1.387 . S
C418 C419 1.387 . S
C418 H422 0.950 . S
C418 C427 1.390 . S
C419 C418 1.387 . S
C419 C421 1.387 . S
H420 C427 0.950 . S
C421 C419 1.387 . S
C421 C423 1.390 . S
C421 H425 0.950 . S
H422 C418 0.950 . S
C423 C421 1.390 . S
C423 C424 1.387 . S
C423 H426 0.950 . S
C424 C423 1.387 . S
C424 C427 1.387 . S
H425 C421 0.950 . S
H426 C423 0.950 . S
C427 C418 1.390 . S
C427 H420 0.950 . S
C427 C424 1.387 . S
C428 C429 1.387 . S
C428 H432 0.950 . S
C428 C437 1.390 . S
C429 C428 1.387 . S
C429 C431 1.387 . S
H430 C437 0.950 . S
C431 C429 1.387 . S
C431 C433 1.390 . S
C431 H435 0.950 . S
H432 C428 0.950 . S
C433 C431 1.390 . S
C433 C434 1.387 . S
C433 H436 0.950 . S
C434 C433 1.387 . S
C434 C437 1.387 . S
H435 C431 0.950 . S
H436 C433 0.950 . S
C437 C428 1.390 . S
C437 H430 0.950 . S
C437 C434 1.387 . S
C438 C439 1.387 . S
C438 H442 0.950 . S
C438 C447 1.390 . S
C439 C438 1.387 . S
C439 C441 1.387 . S
H440 C447 0.950 . S
C441 C439 1.387 . S
C441 C443 1.390 . S
C441 H445 0.950 . S
H442 C438 0.950 . S
C443 C441 1.390 . S
C443 C444 1.387 . S
C443 H446 0.950 . S
C444 C443 1.387 . S
C444 C447 1.387 . S
H445 C441 0.950 . S
H446 C443 0.950 . S
C447 C438 1.390 . S
C447 H440 0.950 . S
C447 C444 1.387 . S
C448 C449 1.387 . S
C448 H452 0.950 . S
C448 C457 1.390 . S
C449 C448 1.387 . S
C449 C451 1.387 . S
H450 C457 0.950 . S
C451 C449 1.387 . S
C451 C453 1.390 . S
C451 H455 0.950 . S
H452 C448 0.950 . S
C453 C451 1.390 . S
C453 C454 1.387 . S
C453 H456 0.950 . S
C454 C453 1.387 . S
C454 C457 1.387 . S
H455 C451 0.950 . S
H456 C453 0.950 . S
C457 C448 1.390 . S
C457 H450 0.950 . S
C457 C454 1.387 . S
C458 C459 1.387 . S
C458 H462 0.950 . S
C458 C467 1.390 . S
C459 C458 1.387 . S
C459 C461 1.387 . S
H460 C467 0.950 . S
C461 C459 1.387 . S
C461 C463 1.390 . S
C461 H465 0.950 . S
H462 C458 0.950 . S
C463 C461 1.390 . S
C463 C464 1.387 . S
C463 H466 0.950 . S
C464 C463 1.387 . S
C464 C467 1.387 . S
H465 C461 0.950 . S
H466 C463 0.950 . S
C467 C458 1.390 . S
C467 H460 0.950 . S
C467 C464 1.387 . S
C468 C469 1.387 . S
C468 H472 0.950 . S
C468 C477 1.390 . S
C469 C468 1.387 . S
C469 C471 1.387 . S
H470 C477 0.950 . S
C471 C469 1.387 . S
C471 C473 1.390 . S
C471 H475 0.950 . S
H472 C468 0.950 . S
C473 C471 1.390 . S
C473 C474 1.387 . S
C473 H476 0.950 . S
C474 C473 1.387 . S
C474 C477 1.387 . S
H475 C471 0.950 . S
H476 C473 0.950 . S
C477 C468 1.390 . S
C477 H470 0.950 . S
C477 C474 1.387 . S
C478 C479 1.387 . S
C478 H482 0.950 . S
C478 C487 1.390 . S
C479 C478 1.387 . S
C479 C481 1.387 . S
H480 C487 0.950 . S
C481 C479 1.387 . S
C481 C483 1.390 . S
C481 H485 0.950 . S
H482 C478 0.950 . S
C483 C481 1.390 . S
C483 C484 1.387 . S
C483 H486 0.950 . S
C484 C483 1.387 . S
C484 C487 1.387 . S
H485 C481 0.950 . S
H486 C483 0.950 . S
C487 C478 1.390 . S
C487 H480 0.950 . S
C487 C484 1.387 . S
C488 C489 1.387 . S
C488 H492 0.950 . S
C488 C497 1.390 . S
C489 C488 1.387 . S
C489 C491 1.387 . S
H490 C497 0.950 . S
C491 C489 1.387 . S
C491 C493 1.390 . S
C491 H495 0.950 . S
H492 C488 0.950 . S
C493 C491 1.390 . S
C493 C494 1.387 . S
C493 H496 0.950 . S
C494 C493 1.387 . S
C494 C497 1.387 . S
H495 C491 0.950 . S
H496 C493 0.950 . S
C497 C488 1.390 . S
C497 H490 0.950 . S
C497 C494 1.387 . S
C498 C499 1.387 . S
C498 H502 0.950 . S
C498 C507 1.390 . S
C499 C498 1.387 . S
C499 C501 1.387 . S
H500 C507 0.950 . S
C501 C499 1.387 . S
C501 C503 1.390 . S
C501 H505 0.950 . S
H502 C498 0.950 . S
C503 C501 1.390 . S
C503 C504 1.387 . S
C503 H506 0.950 . S
C504 C503 1.387 . S
C504 C507 1.387 . S
H505 C501 0.950 . S
H506 C503 0.950 . S
C507 C498 1.390 . S
C507 H500 0.950 . S
C507 C504 1.387 . S
C508 C509 1.387 . S
C508 H512 0.950 . S
C508 C517 1.390 . S
C509 C508 1.387 . S
C509 C511 1.387 . S
H510 C517 0.950 . S
C511 C509 1.387 . S
C511 C513 1.390 . S
C511 H515 0.950 . S
H512 C508 0.950 . S
C513 C511 1.390 . S
C513 C514 1.387 . S
C513 H516 0.950 . S
C514 C513 1.387 . S
C514 C517 1.387 . S
H515 C511 0.950 . S
H516 C513 0.950 . S
C517 C508 1.390 . S
C517 H510 0.950 . S
C517 C514 1.387 . S
C518 C519 1.387 . S
C518 H522 0.950 . S
C518 C527 1.390 . S
C519 C518 1.387 . S
C519 C521 1.387 . S
H520 C527 0.950 . S
C521 C519 1.387 . S
C521 C523 1.390 . S
C521 H525 0.950 . S
H522 C518 0.950 . S
C523 C521 1.390 . S
C523 C524 1.387 . S
C523 H526 0.950 . S
C524 C523 1.387 . S
C524 C527 1.387 . S
H525 C521 0.950 . S
H526 C523 0.950 . S
C527 C518 1.390 . S
C527 H520 0.950 . S
C527 C524 1.387 . S
C209 C199 1.618 . S
C214 C10 1.617 . S
C219 C160 1.082 . S
C224 C23 1.082 . S
C229 C36 1.312 . S
C234 C179 1.259 . S
C239 C186 1.258 . S
C244 C43 1.311 . S
C249 C127 1.083 . S
C254 C62 1.083 . S
C259 C69 1.259 . S
C264 C134 1.312 . S
C269 C82 1.260 . S
C274 C153 1.313 . S
C279 C101 1.615 . S
C284 C114 1.615 . S
C289 C70 1.801 . S
C294 C5 1.686 . S
C299 C81 1.552 . S
C304 C18 1.646 . S
C309 C94 1.754 . S
C314 C31 1.699 . S
C319 C44 1.460 . S
C324 C56 1.423 . S
C329 C4 1.483 . S
C334 C16 1.484 1_455 S
C339 C29 1.460 . S
C344 C17 1.423 . S
C349 C30 1.843 . S
C354 C49 1.843 . S
C359 C3 1.755 . S
C364 C42 1.698 . S
C369 C95 1.482 . S
C374 C55 1.483 1_655 S
C379 C57 1.647 . S
C384 C68 1.555 . S
C389 C75 1.598 . S
C394 C88 1.598 . S
C399 C96 1.686 . S
C404 C83 1.801 . S
C409 C172 1.801 . S
C414 C109 1.686 . S
C419 C122 1.645 . S
C424 C185 1.553 . S
C429 C200 1.755 . S
C434 C133 1.698 . S
C439 C166 1.424 . S
C444 C146 1.460 . S
C449 C108 1.482 . S
C454 C120 1.483 . S
C459 C121 1.423 . S
C464 C135 1.460 . S
C469 C147 1.841 . S
C474 C140 1.841 . S
C479 C107 1.755 . S
C484 C148 1.698 . S
C489 C205 1.481 . S
C494 C161 1.483 . S
C499 C159 1.646 . S
C504 C174 1.552 . S
C509 C173 1.598 . S
C514 C192 1.598 . S
C519 C198 1.686 . S
C524 C187 1.801 . S
