# Generated by pormake.
# Topology una, (4)-cn, num edge types: 1
# Building blocks:
#     Node 0, Type 0, BuildingBlock: AZAVOO_clean_sbu_0, # of connection points: 4
#     Node 1, Type 0, BuildingBlock: AZAVOO_clean_sbu_0, # of connection points: 4
#     Node 2, Type 0, BuildingBlock: AZAVOO_clean_sbu_0, # of connection points: 4
#     Node 3, Type 0, BuildingBlock: AZAVOO_clean_sbu_0, # of connection points: 4
#     Node 4, Type 0, BuildingBlock: AZAVOO_clean_sbu_0, # of connection points: 4
#     Node 5, Type 0, BuildingBlock: AZAVOO_clean_sbu_0, # of connection points: 4
#     Node 6, Type 0, BuildingBlock: AZAVOO_clean_sbu_0, # of connection points: 4
#     Node 7, Type 0, BuildingBlock: AZAVOO_clean_sbu_0, # of connection points: 4
#     Node 8, Type 0, BuildingBlock: AZAVOO_clean_sbu_0, # of connection points: 4
#     Node 9, Type 0, BuildingBlock: AZAVOO_clean_sbu_0, # of connection points: 4
#     Node 10, Type 0, BuildingBlock: AZAVOO_clean_sbu_0, # of connection points: 4
#     Node 11, Type 0, BuildingBlock: AZAVOO_clean_sbu_0, # of connection points: 4
#     Edge 12, Type (0, 0), BuildingBlock: EYOCIG_clean_linker_4, # of connection points: 2
#     Edge 13, Type (0, 0), BuildingBlock: EYOCIG_clean_linker_4, # of connection points: 2
#     Edge 14, Type (0, 0), BuildingBlock: EYOCIG_clean_linker_4, # of connection points: 2
#     Edge 15, Type (0, 0), BuildingBlock: EYOCIG_clean_linker_4, # of connection points: 2
#     Edge 16, Type (0, 0), BuildingBlock: EYOCIG_clean_linker_4, # of connection points: 2
#     Edge 17, Type (0, 0), BuildingBlock: EYOCIG_clean_linker_4, # of connection points: 2
#     Edge 18, Type (0, 0), BuildingBlock: EYOCIG_clean_linker_4, # of connection points: 2
#     Edge 19, Type (0, 0), BuildingBlock: EYOCIG_clean_linker_4, # of connection points: 2
#     Edge 20, Type (0, 0), BuildingBlock: EYOCIG_clean_linker_4, # of connection points: 2
#     Edge 21, Type (0, 0), BuildingBlock: EYOCIG_clean_linker_4, # of connection points: 2
#     Edge 22, Type (0, 0), BuildingBlock: EYOCIG_clean_linker_4, # of connection points: 2
#     Edge 23, Type (0, 0), BuildingBlock: EYOCIG_clean_linker_4, # of connection points: 2
#     Edge 24, Type (0, 0), BuildingBlock: EYOCIG_clean_linker_4, # of connection points: 2
#     Edge 25, Type (0, 0), BuildingBlock: EYOCIG_clean_linker_4, # of connection points: 2
#     Edge 26, Type (0, 0), BuildingBlock: EYOCIG_clean_linker_4, # of connection points: 2
#     Edge 27, Type (0, 0), BuildingBlock: EYOCIG_clean_linker_4, # of connection points: 2
#     Edge 28, Type (0, 0), BuildingBlock: EYOCIG_clean_linker_4, # of connection points: 2
#     Edge 29, Type (0, 0), BuildingBlock: EYOCIG_clean_linker_4, # of connection points: 2
#     Edge 30, Type (0, 0), BuildingBlock: EYOCIG_clean_linker_4, # of connection points: 2
#     Edge 31, Type (0, 0), BuildingBlock: EYOCIG_clean_linker_4, # of connection points: 2
#     Edge 32, Type (0, 0), BuildingBlock: EYOCIG_clean_linker_4, # of connection points: 2
#     Edge 33, Type (0, 0), BuildingBlock: EYOCIG_clean_linker_4, # of connection points: 2
#     Edge 34, Type (0, 0), BuildingBlock: EYOCIG_clean_linker_4, # of connection points: 2
#     Edge 35, Type (0, 0), BuildingBlock: EYOCIG_clean_linker_4, # of connection points: 2
# Relax obj value: 0.179
# Max RMSD: 0.209
# Mean RMSD: 0.204
data_MOF--net-una--node1-AZAVOO_clean_sbu_0--edge1-EYOCIG_clean_linker_4
_symmetry_space_group_name_H-M    P1
_symmetry_Int_Tables_number       1
_symmetry_cell_setting            triclinic
loop_
_symmetry_equiv_pos_as_xyz
'x, y, z'
_cell_length_a     47.272595
_cell_length_b     44.380195
_cell_length_c     18.567844
_cell_angle_alpha  90.057468
_cell_angle_beta   89.939978
_cell_angle_gamma 122.16745
loop_
_atom_site_label
_atom_site_type_symbol
_atom_site_fract_x
_atom_site_fract_y
_atom_site_fract_z
_atom_type_partial_charge
Mg0 Mg 0.1404 0.44953 0.00315 0.0
O1 O 0.14155 0.49856 0.04697 0.0
O2 O 0.19349 0.53634 0.08699 0.0
Mg3 Mg 0.22393 0.50994 0.0795 0.0
C4 C 0.16375 0.52827 0.07434 0.0
C5 C 0.06972 0.39894 0.94205 0.0
O6 O 0.07514 0.37649 -0.02434 0.0
O7 O 0.17283 0.48085 0.90622 0.0
O8 O 0.22389 0.51149 0.95633 0.0
O9 O 0.12653 0.42176 0.11179 0.0
O10 O 0.17796 0.45748 0.07204 0.0
C11 C 0.20463 0.50108 0.90162 0.0
C12 C 0.15841 0.43696 0.12144 0.0
O13 O 0.09177 0.43199 0.94348 0.0
Mg14 Mg 0.67369 0.10788 0.21342 0.0
O15 O 0.70299 0.14959 0.12713 0.0
O16 O 0.67181 0.13516 0.02751 0.0
Mg17 Mg 0.62218 0.08302 0.04997 0.0
C18 C 0.69852 0.15572 0.06261 0.0
C19 C 0.72673 0.13853 0.34012 0.0
O20 O 0.71863 0.10539 0.3457 0.0
O21 O 0.64105 0.13082 0.23117 0.0
O22 O 0.60858 0.11181 0.13271 0.0
O23 O 0.69289 0.07444 0.171 0.0
O24 O 0.64599 0.06938 0.13491 0.0
C25 C 0.61729 0.12798 0.19315 0.0
C26 C 0.66725 0.05994 0.12856 0.0
O27 O 0.71228 0.14695 0.29414 0.0
Mg28 Mg 0.57213 0.71659 0.29888 0.0
O29 O 0.51886 0.67196 0.32961 0.0
O30 O 0.49067 0.69798 0.35783 0.0
Mg31 Mg 0.5258 0.75849 0.35038 0.0
C32 C 0.49225 0.6704 0.34925 0.0
C33 C 0.6123 0.6867 0.23516 0.0
O34 O 0.63613 0.71893 0.25396 0.0
O35 O 0.55367 0.72516 0.19145 0.0
O36 O 0.53029 0.75523 0.22816 0.0
O37 O 0.58904 0.72359 0.41518 0.0
O38 O 0.56865 0.75274 0.3631 0.0
C39 C 0.53959 0.74243 0.1786 0.0
C40 C 0.58013 0.74651 0.41967 0.0
O41 O 0.58203 0.67628 0.24777 0.0
Mg42 Mg 0.83727 0.55112 0.50349 0.0
O43 O 0.83595 0.50182 0.54596 0.0
O44 O 0.78418 0.46434 0.58732 0.0
Mg45 Mg 0.75402 0.4911 0.58174 0.0
C46 C 0.81377 0.47218 0.57355 0.0
C47 C 0.90776 0.60158 0.44173 0.0
O48 O 0.9026 0.62389 0.47688 0.0
O49 O 0.80423 0.52005 0.40711 0.0
O50 O 0.75342 0.4896 0.45857 0.0
O51 O 0.85185 0.57872 0.61236 0.0
O52 O 0.80018 0.54335 0.57373 0.0
C53 C 0.77239 0.49996 0.40334 0.0
C54 C 0.82004 0.56369 0.62291 0.0
O55 O 0.88557 0.56856 0.44233 0.0
Mg56 Mg 0.30385 0.8938 0.71229 0.0
O57 O 0.27482 0.85207 0.62597 0.0
O58 O 0.30602 0.86653 0.52629 0.0
Mg59 Mg 0.35551 0.91883 0.54888 0.0
C60 C 0.27934 0.84591 0.56146 0.0
C61 C 0.25207 0.8629 0.84199 0.0
O62 O 0.26162 0.89631 0.85162 0.0
O63 O 0.33672 0.87117 0.73007 0.0
O64 O 0.36923 0.8902 0.63158 0.0
O65 O 0.28444 0.92698 0.66977 0.0
O66 O 0.33152 0.93235 0.63385 0.0
C67 C 0.36055 0.87408 0.69205 0.0
C68 C 0.31012 0.94159 0.62739 0.0
O69 O 0.26519 0.85448 0.79263 0.0
Mg70 Mg 0.40577 0.28534 0.79966 0.0
O71 O 0.45903 0.32988 0.83042 0.0
O72 O 0.48714 0.30383 0.85873 0.0
Mg73 Mg 0.45194 0.24331 0.85123 0.0
C74 C 0.4856 0.33141 0.85013 0.0
C75 C 0.36597 0.31579 0.73625 0.0
O76 O 0.34192 0.2837 0.75524 0.0
O77 O 0.4242 0.27657 0.69223 0.0
O78 O 0.44747 0.24645 0.72901 0.0
O79 O 0.38886 0.27847 0.91603 0.0
O80 O 0.40911 0.24914 0.86387 0.0
C81 C 0.4382 0.25922 0.67941 0.0
C82 C 0.3977 0.25549 0.92048 0.0
O83 O 0.39616 0.32585 0.74859 0.0
Mg84 Mg 0.56625 0.89398 0.78173 0.0
O85 O 0.55431 0.85261 0.86845 0.0
O86 O 0.53805 0.8674 -0.03152 0.0
Mg87 Mg 0.54041 0.91945 0.94581 0.0
C88 C 0.54405 0.84672 0.93327 0.0
C89 C 0.58845 0.86255 0.65604 0.0
O90 O 0.61403 0.89545 0.6513 0.0
O91 O 0.5106 0.87105 0.76546 0.0
O92 O 0.49762 0.89044 0.86419 0.0
O93 O 0.61908 0.92757 0.82277 0.0
O94 O 0.57742 0.93277 0.85985 0.0
C95 C 0.48987 0.87407 0.80395 0.0
C96 C 0.60814 0.94222 0.86545 0.0
O97 O 0.56531 0.85455 0.70113 0.0
Mg98 Mg 0.6913 0.55149 -0.00817 0.0
O99 O 0.64332 0.50242 0.9485 0.0
O100 O 0.65741 0.46454 0.90854 0.0
Mg101 Mg 0.71424 0.49085 0.91552 0.0
C102 C 0.63577 0.47265 0.9213 0.0
C103 C 0.67115 0.6024 0.05108 0.0
O104 O 0.69851 0.6245 0.01544 0.0
O105 O 0.69243 0.52028 0.08885 0.0
O106 O 0.71275 0.48951 0.03867 0.0
O107 O 0.70516 0.57911 0.88303 0.0
O108 O 0.72077 0.54333 0.9228 0.0
C109 C 0.70398 0.50002 0.09341 0.0
C110 C 0.72177 0.56382 0.87335 0.0
O111 O 0.66046 0.5694 0.05161 0.0
Mg112 Mg 0.12147 0.71597 0.19684 0.0
O113 O 0.12976 0.67117 0.16546 0.0
O114 O 0.18398 0.69688 0.13784 0.0
Mg115 Mg 0.20971 0.75742 0.14599 0.0
C116 C 0.15473 0.66943 0.14596 0.0
C117 C 0.05067 0.68563 0.25713 0.0
O118 O 0.05856 0.71739 0.23593 0.0
O119 O 0.14825 0.72393 0.30438 0.0
O120 O 0.20174 0.75384 0.26811 0.0
O121 O 0.11188 0.72354 0.08067 0.0
O122 O 0.16132 0.75215 0.13325 0.0
C123 C 0.17956 0.74098 0.31748 0.0
C124 C 0.14375 0.7463 0.07659 0.0
O125 O 0.0711 0.67572 0.24725 0.0
Mg126 Mg 0.41131 0.10766 0.28141 0.0
O127 O 0.42311 0.14877 0.36878 0.0
O128 O 0.43912 0.13365 0.46857 0.0
Mg129 Mg 0.43673 0.08163 0.44507 0.0
C130 C 0.43324 0.15446 0.43367 0.0
C131 C 0.38954 0.13942 0.15581 0.0
O132 O 0.36416 0.10646 0.15008 0.0
O133 O 0.46699 0.13064 0.26549 0.0
O134 O 0.47974 0.11096 0.36395 0.0
O135 O 0.35838 0.07398 0.32198 0.0
O136 O 0.39994 0.06863 0.35893 0.0
C137 C 0.48763 0.12753 0.30398 0.0
C138 C 0.36922 0.0592 0.36444 0.0
O139 O 0.41243 0.14736 0.20145 0.0
Mg140 Mg 0.28681 0.45011 0.49069 0.0
O141 O 0.33463 0.49945 0.44762 0.0
O142 O 0.32012 0.53674 0.40635 0.0
Mg143 Mg 0.26319 0.5098 0.41263 0.0
C144 C 0.34197 0.52902 0.41988 0.0
C145 C 0.30756 0.40005 0.55152 0.0
O146 O 0.28036 0.37764 0.5158 0.0
O147 O 0.28483 0.48124 0.58709 0.0
O148 O 0.26423 0.51147 0.53581 0.0
O149 O 0.27369 0.42234 0.38197 0.0
O150 O 0.25728 0.45763 0.42074 0.0
C151 C 0.27296 0.50123 0.59098 0.0
C152 C 0.2568 0.43725 0.37158 0.0
O153 O 0.31795 0.43297 0.55161 0.0
Mg154 Mg 0.85633 0.28496 0.69669 0.0
O155 O 0.84768 0.32942 0.66472 0.0
O156 O 0.79348 0.30328 0.63669 0.0
Mg157 Mg 0.7681 0.24281 0.64544 0.0
C158 C 0.82263 0.33088 0.64481 0.0
C159 C 0.92685 0.31556 0.75782 0.0
O160 O 0.91892 0.28371 0.73712 0.0
O161 O 0.82934 0.27699 0.80404 0.0
O162 O 0.77589 0.2467 0.76766 0.0
O163 O 0.86624 0.27741 0.58072 0.0
O164 O 0.8167 0.2485 0.633 0.0
C165 C 0.79802 0.25979 0.81708 0.0
C166 C 0.83442 0.25448 0.57646 0.0
O167 O 0.90651 0.32552 0.74728 0.0
C168 C 0.19082 0.42723 0.22376 0.0
C169 C 0.17264 0.42924 0.18125 0.0
C170 C 0.21503 0.42727 0.26829 0.0
C171 C 0.23513 0.42936 0.31115 0.0
C172 C 0.79997 0.21512 0.46574 0.0
C173 C 0.81852 0.23477 0.51206 0.0
C174 C 0.77522 0.18899 0.41976 0.0
C175 C 0.75311 0.16582 0.3836 0.0
C176 C 0.58472 0.78558 0.53074 0.0
C177 C 0.58375 0.76603 0.4843 0.0
C178 C 0.5861 0.81174 0.57673 0.0
C179 C 0.58729 0.83503 0.6128 0.0
C180 C 0.78815 0.57347 0.72644 0.0
C181 C 0.80621 0.57147 0.68349 0.0
C182 C 0.76394 0.57347 0.771 0.0
C183 C 0.74374 0.57149 0.81353 0.0
C184 C 0.20345 0.81206 0.92078 0.0
C185 C 0.22563 0.8354 0.88502 0.0
C186 C 0.17855 0.78579 -0.03368 0.0
C187 C 0.15983 0.76608 0.01238 0.0
C188 C 0.39192 0.19038 0.07723 0.0
C189 C 0.39075 0.16705 0.113 0.0
C190 C 0.39323 0.21655 0.0315 0.0
C191 C 0.39413 0.23607 -0.01484 0.0
C192 C 0.15086 0.57796 0.10407 0.0
C193 C 0.15545 0.5544 0.08958 0.0
C194 C 0.14885 0.6079 0.11993 0.0
C195 C 0.15003 0.6352 0.13254 0.0
C196 C 0.57662 0.14713 0.23978 0.0
C197 C 0.59658 0.13946 0.22265 0.0
C198 C 0.54774 0.14702 0.25887 0.0
C199 C 0.52002 0.13918 0.27546 0.0
C200 C 0.4045 0.57903 0.39072 0.0
C201 C 0.37636 0.55536 0.40496 0.0
C202 C 0.43643 0.60899 0.37499 0.0
C203 C 0.4626 0.63625 0.36252 0.0
C204 C 0.82638 0.42221 0.60214 0.0
C205 C 0.82193 0.4459 0.58813 0.0
C206 C 0.82829 0.39224 0.618 0.0
C207 C 0.82714 0.36499 0.63093 0.0
C208 C 0.40121 0.85499 0.73878 0.0
C209 C 0.3813 0.86267 0.7215 0.0
C210 C 0.42998 0.85497 0.75818 0.0
C211 C 0.45761 0.86265 0.77509 0.0
C212 C 0.54134 0.39287 0.87607 0.0
C213 C 0.51522 0.36557 0.86352 0.0
C214 C 0.57322 0.42287 0.89191 0.0
C215 C 0.60135 0.44651 0.90628 0.0
C216 C 0.25252 0.51226 0.71463 0.0
C217 C 0.26243 0.50657 0.65962 0.0
C218 C 0.23564 0.51221 0.77737 0.0
C219 C 0.22017 0.50643 0.83258 0.0
C220 C 0.74666 0.21117 -0.00706 0.0
C221 C 0.72534 0.18619 0.0268 0.0
C222 C 0.77001 0.23544 0.94265 0.0
C223 C 0.78642 0.24913 0.88935 0.0
C224 C 0.53633 0.76727 0.05334 0.0
C225 C 0.5389 0.75339 0.10649 0.0
C226 C 0.53718 0.79154 0.00318 0.0
C227 C 0.54062 0.81639 -0.03075 0.0
C228 C 0.74086 0.48894 0.27995 0.0
C229 C 0.7565 0.49464 0.33481 0.0
C230 C 0.72396 0.48898 0.21743 0.0
C231 C 0.71421 0.49473 0.16236 0.0
C232 C 0.20766 0.76568 0.44273 0.0
C233 C 0.19114 0.75179 0.38968 0.0
C234 C 0.23118 0.7902 0.49244 0.0
C235 C 0.25257 0.81533 0.52582 0.0
C236 C 0.44126 0.23404 0.55426 0.0
C237 C 0.4388 0.24806 0.60736 0.0
C238 C 0.44028 0.20966 0.50409 0.0
C239 C 0.43677 0.18479 0.46999 0.0
C240 C 0.01383 0.37261 0.86754 0.0
C241 C 0.03963 0.3857 0.90089 0.0
C242 C 0.98351 0.35497 0.82859 0.0
C243 C 0.95743 0.33786 0.79651 0.0
C244 C 0.64278 0.9886 -0.03172 0.0
C245 C 0.62887 0.96734 0.92015 0.0
C246 C 0.65539 0.01376 0.02512 0.0
C247 C 0.66275 0.03492 0.07346 0.0
C248 C 0.64205 0.62933 0.12557 0.0
C249 C 0.65459 0.616 0.09228 0.0
C250 C 0.62952 0.64717 0.16446 0.0
C251 C 0.62058 0.66433 0.19659 0.0
C252 C -0.00612 0.64613 0.32755 0.0
C253 C 0.02001 0.66335 0.29563 0.0
C254 C 0.96354 0.62826 0.3665 0.0
C255 C 0.93777 0.61497 0.40011 0.0
C256 C 0.33444 0.01272 0.46698 0.0
C257 C 0.3484 0.03402 0.41898 0.0
C258 C 0.32183 0.98758 0.52381 0.0
C259 C 0.31452 0.96649 0.57221 0.0
C260 C 0.33686 0.37362 0.6267 0.0
C261 C 0.3243 0.38684 0.59318 0.0
C262 C 0.34927 0.35572 0.66568 0.0
C263 C 0.35799 0.33839 0.69773 0.0
loop_
_geom_bond_atom_site_label_1
_geom_bond_atom_site_label_2
_geom_bond_distance
_geom_bond_site_symmetry_2
_ccdc_geom_bond_type
Mg0 O1 2.028 . S
Mg0 O7 1.986 1_554 S
Mg0 O9 2.114 . S
Mg0 O10 2.251 . S
Mg0 O13 2.010 1_554 S
O1 Mg0 2.028 . S
O1 C4 1.250 . S
O2 Mg3 2.028 . S
O2 C4 1.248 . S
Mg3 O2 2.028 . S
Mg3 O8 2.032 1_554 S
Mg3 O10 2.079 . S
C4 O1 1.250 . S
C4 O2 1.248 . S
C5 O6 1.264 . S
C5 O13 1.249 . S
O6 C5 1.264 . S
O7 Mg0 1.986 1_556 S
O7 C11 1.246 . S
O8 Mg3 2.032 1_556 S
O8 C11 1.259 . S
O9 Mg0 2.114 . S
O9 C12 1.252 . S
O10 Mg0 2.251 . S
O10 Mg3 2.079 . S
O10 C12 1.273 . S
C11 O7 1.246 . S
C11 O8 1.259 . S
C12 O9 1.252 . S
C12 O10 1.273 . S
O13 Mg0 2.010 1_556 S
O13 C5 1.249 . S
Mg14 O15 2.028 . S
Mg14 O21 1.986 . S
Mg14 O23 2.114 . S
Mg14 O24 2.251 . S
Mg14 O27 2.010 . S
O15 Mg14 2.028 . S
O15 C18 1.250 . S
O16 Mg17 2.028 . S
O16 C18 1.248 . S
Mg17 O16 2.028 . S
Mg17 O22 2.032 . S
Mg17 O24 2.079 . S
C18 O15 1.250 . S
C18 O16 1.248 . S
C19 O20 1.264 . S
C19 O27 1.249 . S
O20 C19 1.264 . S
O21 Mg14 1.986 . S
O21 C25 1.246 . S
O22 Mg17 2.032 . S
O22 C25 1.259 . S
O23 Mg14 2.114 . S
O23 C26 1.252 . S
O24 Mg14 2.251 . S
O24 Mg17 2.079 . S
O24 C26 1.273 . S
C25 O21 1.246 . S
C25 O22 1.259 . S
C26 O23 1.252 . S
C26 O24 1.273 . S
O27 Mg14 2.010 . S
O27 C19 1.249 . S
Mg28 O29 2.028 . S
Mg28 O35 1.986 . S
Mg28 O37 2.114 . S
Mg28 O38 2.251 . S
Mg28 O41 2.010 . S
O29 Mg28 2.028 . S
O29 C32 1.250 . S
O30 Mg31 2.028 . S
O30 C32 1.248 . S
Mg31 O30 2.028 . S
Mg31 O36 2.032 . S
Mg31 O38 2.079 . S
C32 O29 1.250 . S
C32 O30 1.248 . S
C33 O34 1.264 . S
C33 O41 1.249 . S
O34 C33 1.264 . S
O35 Mg28 1.986 . S
O35 C39 1.246 . S
O36 Mg31 2.032 . S
O36 C39 1.259 . S
O37 Mg28 2.114 . S
O37 C40 1.252 . S
O38 Mg28 2.251 . S
O38 Mg31 2.079 . S
O38 C40 1.273 . S
C39 O35 1.246 . S
C39 O36 1.259 . S
C40 O37 1.252 . S
C40 O38 1.273 . S
O41 Mg28 2.010 . S
O41 C33 1.249 . S
Mg42 O43 2.028 . S
Mg42 O49 1.986 . S
Mg42 O51 2.114 . S
Mg42 O52 2.251 . S
Mg42 O55 2.010 . S
O43 Mg42 2.028 . S
O43 C46 1.250 . S
O44 Mg45 2.028 . S
O44 C46 1.248 . S
Mg45 O44 2.028 . S
Mg45 O50 2.032 . S
Mg45 O52 2.079 . S
C46 O43 1.250 . S
C46 O44 1.248 . S
C47 O48 1.264 . S
C47 O55 1.249 . S
O48 C47 1.264 . S
O49 Mg42 1.986 . S
O49 C53 1.246 . S
O50 Mg45 2.032 . S
O50 C53 1.259 . S
O51 Mg42 2.114 . S
O51 C54 1.252 . S
O52 Mg42 2.251 . S
O52 Mg45 2.079 . S
O52 C54 1.273 . S
C53 O49 1.246 . S
C53 O50 1.259 . S
C54 O51 1.252 . S
C54 O52 1.273 . S
O55 Mg42 2.010 . S
O55 C47 1.249 . S
Mg56 O57 2.028 . S
Mg56 O63 1.986 . S
Mg56 O65 2.114 . S
Mg56 O66 2.251 . S
Mg56 O69 2.010 . S
O57 Mg56 2.028 . S
O57 C60 1.250 . S
O58 Mg59 2.028 . S
O58 C60 1.248 . S
Mg59 O58 2.028 . S
Mg59 O64 2.032 . S
Mg59 O66 2.079 . S
C60 O57 1.250 . S
C60 O58 1.248 . S
C61 O62 1.264 . S
C61 O69 1.249 . S
O62 C61 1.264 . S
O63 Mg56 1.986 . S
O63 C67 1.246 . S
O64 Mg59 2.032 . S
O64 C67 1.259 . S
O65 Mg56 2.114 . S
O65 C68 1.252 . S
O66 Mg56 2.251 . S
O66 Mg59 2.079 . S
O66 C68 1.273 . S
C67 O63 1.246 . S
C67 O64 1.259 . S
C68 O65 1.252 . S
C68 O66 1.273 . S
O69 Mg56 2.010 . S
O69 C61 1.249 . S
Mg70 O71 2.028 . S
Mg70 O77 1.986 . S
Mg70 O79 2.114 . S
Mg70 O80 2.251 . S
Mg70 O83 2.010 . S
O71 Mg70 2.028 . S
O71 C74 1.250 . S
O72 Mg73 2.028 . S
O72 C74 1.248 . S
Mg73 O72 2.028 . S
Mg73 O78 2.032 . S
Mg73 O80 2.079 . S
C74 O71 1.250 . S
C74 O72 1.248 . S
C75 O76 1.264 . S
C75 O83 1.249 . S
O76 C75 1.264 . S
O77 Mg70 1.986 . S
O77 C81 1.246 . S
O78 Mg73 2.032 . S
O78 C81 1.259 . S
O79 Mg70 2.114 . S
O79 C82 1.252 . S
O80 Mg70 2.251 . S
O80 Mg73 2.079 . S
O80 C82 1.273 . S
C81 O77 1.246 . S
C81 O78 1.259 . S
C82 O79 1.252 . S
C82 O80 1.273 . S
O83 Mg70 2.010 . S
O83 C75 1.249 . S
Mg84 O85 2.028 . S
Mg84 O91 1.986 . S
Mg84 O93 2.114 . S
Mg84 O94 2.251 . S
Mg84 O97 2.010 . S
O85 Mg84 2.028 . S
O85 C88 1.250 . S
O86 Mg87 2.028 . S
O86 C88 1.248 1_554 S
Mg87 O86 2.028 . S
Mg87 O92 2.032 1_554 S
Mg87 O94 2.079 1_554 S
C88 O85 1.250 . S
C88 O86 1.248 1_556 S
C89 O90 1.264 . S
C89 O97 1.249 . S
O90 C89 1.264 . S
O91 Mg84 1.986 . S
O91 C95 1.246 . S
O92 Mg87 2.032 1_556 S
O92 C95 1.259 . S
O93 Mg84 2.114 . S
O93 C96 1.252 . S
O94 Mg84 2.251 . S
O94 Mg87 2.079 1_556 S
O94 C96 1.273 . S
C95 O91 1.246 . S
C95 O92 1.259 . S
C96 O93 1.252 . S
C96 O94 1.273 . S
O97 Mg84 2.010 . S
O97 C89 1.249 . S
Mg98 O99 2.028 . S
Mg98 O105 1.986 . S
Mg98 O107 2.114 1_554 S
Mg98 O108 2.251 1_554 S
Mg98 O111 2.010 . S
O99 Mg98 2.028 . S
O99 C102 1.250 . S
O100 Mg101 2.028 1_556 S
O100 C102 1.248 1_556 S
Mg101 O100 2.028 1_554 S
Mg101 O106 2.035 . S
Mg101 O108 2.078 1_554 S
C102 O99 1.250 . S
C102 O100 1.248 1_554 S
C103 O104 1.264 . S
C103 O111 1.249 . S
O104 C103 1.264 . S
O105 Mg98 1.986 . S
O105 C109 1.246 . S
O106 Mg101 2.035 . S
O106 C109 1.259 . S
O107 Mg98 2.114 1_556 S
O107 C110 1.252 . S
O108 Mg98 2.251 1_556 S
O108 Mg101 2.078 1_556 S
O108 C110 1.273 . S
C109 O105 1.246 . S
C109 O106 1.259 . S
C110 O107 1.252 . S
C110 O108 1.273 . S
O111 Mg98 2.010 . S
O111 C103 1.249 . S
Mg112 O113 2.028 . S
Mg112 O119 1.986 . S
Mg112 O121 2.114 . S
Mg112 O122 2.251 . S
Mg112 O125 2.010 . S
O113 Mg112 2.028 . S
O113 C116 1.250 . S
O114 Mg115 2.028 . S
O114 C116 1.248 . S
Mg115 O114 2.028 . S
Mg115 O120 2.032 . S
Mg115 O122 2.079 . S
C116 O113 1.250 . S
C116 O114 1.248 . S
C117 O118 1.264 . S
C117 O125 1.249 . S
O118 C117 1.264 . S
O119 Mg112 1.986 . S
O119 C123 1.246 . S
O120 Mg115 2.032 . S
O120 C123 1.259 . S
O121 Mg112 2.114 . S
O121 C124 1.252 . S
O122 Mg112 2.251 . S
O122 Mg115 2.079 . S
O122 C124 1.273 . S
C123 O119 1.246 . S
C123 O120 1.259 . S
C124 O121 1.252 . S
C124 O122 1.273 . S
O125 Mg112 2.010 . S
O125 C117 1.249 . S
Mg126 O127 2.028 . S
Mg126 O133 1.986 . S
Mg126 O135 2.114 . S
Mg126 O136 2.251 . S
Mg126 O139 2.010 . S
O127 Mg126 2.028 . S
O127 C130 1.250 . S
O128 Mg129 2.028 . S
O128 C130 1.248 . S
Mg129 O128 2.028 . S
Mg129 O134 2.032 . S
Mg129 O136 2.079 . S
C130 O127 1.250 . S
C130 O128 1.248 . S
C131 O132 1.264 . S
C131 O139 1.249 . S
O132 C131 1.264 . S
O133 Mg126 1.986 . S
O133 C137 1.246 . S
O134 Mg129 2.032 . S
O134 C137 1.259 . S
O135 Mg126 2.114 . S
O135 C138 1.252 . S
O136 Mg126 2.251 . S
O136 Mg129 2.079 . S
O136 C138 1.273 . S
C137 O133 1.246 . S
C137 O134 1.259 . S
C138 O135 1.252 . S
C138 O136 1.273 . S
O139 Mg126 2.010 . S
O139 C131 1.249 . S
Mg140 O141 2.028 . S
Mg140 O147 1.986 . S
Mg140 O149 2.114 . S
Mg140 O150 2.251 . S
Mg140 O153 2.010 . S
O141 Mg140 2.028 . S
O141 C144 1.250 . S
O142 Mg143 2.028 . S
O142 C144 1.248 . S
Mg143 O142 2.028 . S
Mg143 O148 2.032 . S
Mg143 O150 2.079 . S
C144 O141 1.250 . S
C144 O142 1.248 . S
C145 O146 1.264 . S
C145 O153 1.249 . S
O146 C145 1.264 . S
O147 Mg140 1.986 . S
O147 C151 1.246 . S
O148 Mg143 2.032 . S
O148 C151 1.259 . S
O149 Mg140 2.114 . S
O149 C152 1.252 . S
O150 Mg140 2.251 . S
O150 Mg143 2.079 . S
O150 C152 1.273 . S
C151 O147 1.246 . S
C151 O148 1.259 . S
C152 O149 1.252 . S
C152 O150 1.273 . S
O153 Mg140 2.010 . S
O153 C145 1.249 . S
Mg154 O155 2.028 . S
Mg154 O161 1.986 . S
Mg154 O163 2.114 . S
Mg154 O164 2.251 . S
Mg154 O167 2.010 . S
O155 Mg154 2.028 . S
O155 C158 1.250 . S
O156 Mg157 2.028 . S
O156 C158 1.248 . S
Mg157 O156 2.028 . S
Mg157 O162 2.032 . S
Mg157 O164 2.079 . S
C158 O155 1.250 . S
C158 O156 1.248 . S
C159 O160 1.264 . S
C159 O167 1.249 . S
O160 C159 1.264 . S
O161 Mg154 1.986 . S
O161 C165 1.246 . S
O162 Mg157 2.032 . S
O162 C165 1.259 . S
O163 Mg154 2.114 . S
O163 C166 1.252 . S
O164 Mg154 2.251 . S
O164 Mg157 2.079 . S
O164 C166 1.273 . S
C165 O161 1.246 . S
C165 O162 1.259 . S
C166 O163 1.252 . S
C166 O164 1.273 . S
O167 Mg154 2.010 . S
O167 C159 1.249 . S
C168 C169 1.170 . S
C168 C170 1.380 . S
C169 C168 1.170 . S
C170 C168 1.380 . S
C170 C171 1.170 . S
C171 C170 1.170 . S
C172 C173 1.170 . S
C172 C174 1.380 . S
C173 C172 1.170 . S
C174 C172 1.380 . S
C174 C175 1.170 . S
C175 C174 1.170 . S
C176 C177 1.170 . S
C176 C178 1.380 . S
C177 C176 1.170 . S
C178 C176 1.380 . S
C178 C179 1.170 . S
C179 C178 1.170 . S
C180 C181 1.170 . S
C180 C182 1.380 . S
C181 C180 1.170 . S
C182 C180 1.380 . S
C182 C183 1.170 . S
C183 C182 1.170 . S
C184 C185 1.170 . S
C184 C186 1.380 1_556 S
C185 C184 1.170 . S
C186 C184 1.380 1_554 S
C186 C187 1.170 . S
C187 C186 1.170 . S
C188 C189 1.170 . S
C188 C190 1.380 . S
C189 C188 1.170 . S
C190 C188 1.380 . S
C190 C191 1.170 . S
C191 C190 1.170 . S
C192 C193 1.170 . S
C192 C194 1.380 . S
C193 C192 1.170 . S
C194 C192 1.380 . S
C194 C195 1.170 . S
C195 C194 1.170 . S
C196 C197 1.170 . S
C196 C198 1.380 . S
C197 C196 1.170 . S
C198 C196 1.380 . S
C198 C199 1.170 . S
C199 C198 1.170 . S
C200 C201 1.170 . S
C200 C202 1.380 . S
C201 C200 1.170 . S
C202 C200 1.380 . S
C202 C203 1.170 . S
C203 C202 1.170 . S
C204 C205 1.170 . S
C204 C206 1.380 . S
C205 C204 1.170 . S
C206 C204 1.380 . S
C206 C207 1.170 . S
C207 C206 1.170 . S
C208 C209 1.170 . S
C208 C210 1.380 . S
C209 C208 1.170 . S
C210 C208 1.380 . S
C210 C211 1.170 . S
C211 C210 1.170 . S
C212 C213 1.170 . S
C212 C214 1.380 . S
C213 C212 1.170 . S
C214 C212 1.380 . S
C214 C215 1.170 . S
C215 C214 1.170 . S
C216 C217 1.170 . S
C216 C218 1.380 . S
C217 C216 1.170 . S
C218 C216 1.380 . S
C218 C219 1.170 . S
C219 C218 1.170 . S
C220 C221 1.170 . S
C220 C222 1.380 1_554 S
C221 C220 1.170 . S
C222 C220 1.380 1_556 S
C222 C223 1.170 . S
C223 C222 1.170 . S
C224 C225 1.170 . S
C224 C226 1.380 . S
C225 C224 1.170 . S
C226 C224 1.380 . S
C226 C227 1.170 1_554 S
C227 C226 1.170 1_556 S
C228 C229 1.170 . S
C228 C230 1.380 . S
C229 C228 1.170 . S
C230 C228 1.380 . S
C230 C231 1.170 . S
C231 C230 1.170 . S
C232 C233 1.170 . S
C232 C234 1.380 . S
C233 C232 1.170 . S
C234 C232 1.380 . S
C234 C235 1.170 . S
C235 C234 1.170 . S
C236 C237 1.170 . S
C236 C238 1.380 . S
C237 C236 1.170 . S
C238 C236 1.380 . S
C238 C239 1.170 . S
C239 C238 1.170 . S
C240 C241 1.170 . S
C240 C242 1.380 1_455 S
C241 C240 1.170 . S
C242 C240 1.380 1_655 S
C242 C243 1.170 . S
C243 C242 1.170 . S
C244 C245 1.170 1_554 S
C244 C246 1.380 1_565 S
C245 C244 1.170 1_556 S
C246 C244 1.380 1_545 S
C246 C247 1.170 . S
C247 C246 1.170 . S
C248 C249 1.170 . S
C248 C250 1.380 . S
C249 C248 1.170 . S
C250 C248 1.380 . S
C250 C251 1.170 . S
C251 C250 1.170 . S
C252 C253 1.170 . S
C252 C254 1.380 1_455 S
C253 C252 1.170 . S
C254 C252 1.380 1_655 S
C254 C255 1.170 . S
C255 C254 1.170 . S
C256 C257 1.170 . S
C256 C258 1.380 1_545 S
C257 C256 1.170 . S
C258 C256 1.380 1_565 S
C258 C259 1.170 . S
C259 C258 1.170 . S
C260 C261 1.170 . S
C260 C262 1.380 . S
C261 C260 1.170 . S
C262 C260 1.380 . S
C262 C263 1.170 . S
C263 C262 1.170 . S
C169 C12 1.318 . S
C171 C152 1.328 . S
C173 C166 1.292 . S
C175 C19 1.207 . S
C177 C40 1.294 . S
C179 C89 1.211 . S
C181 C54 1.333 . S
C183 C110 1.303 . S
C185 C61 1.161 . S
C187 C124 1.278 . S
C189 C131 1.192 . S
C191 C82 1.291 1_554 S
C193 C4 1.554 . S
C195 C116 1.561 . S
C197 C25 1.521 . S
C199 C137 1.514 . S
C201 C144 1.543 . S
C203 C32 1.545 . S
C205 C46 1.562 . S
C207 C158 1.525 . S
C209 C67 1.519 . S
C211 C95 1.506 . S
C213 C74 1.526 . S
C215 C102 1.571 1_556 S
C217 C151 1.000 . S
C219 C11 1.034 . S
C221 C18 1.084 . S
C223 C165 1.081 . S
C225 C39 1.079 . S
C227 C88 1.058 . S
C229 C53 1.007 . S
C231 C109 1.007 . S
C233 C123 1.074 . S
C235 C60 1.078 . S
C237 C81 1.062 . S
C239 C130 1.042 . S
C241 C5 1.319 . S
C243 C159 1.394 . S
C245 C96 1.489 . S
C247 C26 1.502 . S
C249 C103 1.321 . S
C251 C33 1.337 . S
C253 C117 1.398 . S
C255 C47 1.324 . S
C257 C138 1.523 . S
C259 C68 1.497 . S
C261 C145 1.369 . S
C263 C75 1.400 . S
