# Generated by pormake.
# Topology can, (4)-cn, num edge types: 1
# Building blocks:
#     Node 0, Type 0, BuildingBlock: ICAMEG_clean_sbu_1, # of connection points: 4
#     Node 1, Type 0, BuildingBlock: ICAMEG_clean_sbu_1, # of connection points: 4
#     Node 2, Type 0, BuildingBlock: ICAMEG_clean_sbu_1, # of connection points: 4
#     Node 3, Type 0, BuildingBlock: ICAMEG_clean_sbu_1, # of connection points: 4
#     Node 4, Type 0, BuildingBlock: ICAMEG_clean_sbu_1, # of connection points: 4
#     Node 5, Type 0, BuildingBlock: ICAMEG_clean_sbu_1, # of connection points: 4
#     Node 6, Type 0, BuildingBlock: ICAMEG_clean_sbu_1, # of connection points: 4
#     Node 7, Type 0, BuildingBlock: ICAMEG_clean_sbu_1, # of connection points: 4
#     Node 8, Type 0, BuildingBlock: ICAMEG_clean_sbu_1, # of connection points: 4
#     Node 9, Type 0, BuildingBlock: ICAMEG_clean_sbu_1, # of connection points: 4
#     Node 10, Type 0, BuildingBlock: ICAMEG_clean_sbu_1, # of connection points: 4
#     Node 11, Type 0, BuildingBlock: ICAMEG_clean_sbu_1, # of connection points: 4
#     Edge 12, Type (0, 0), BuildingBlock: TEMPAE_clean_linker_10, # of connection points: 2
#     Edge 13, Type (0, 0), BuildingBlock: TEMPAE_clean_linker_10, # of connection points: 2
#     Edge 14, Type (0, 0), BuildingBlock: TEMPAE_clean_linker_10, # of connection points: 2
#     Edge 15, Type (0, 0), BuildingBlock: TEMPAE_clean_linker_10, # of connection points: 2
#     Edge 16, Type (0, 0), BuildingBlock: TEMPAE_clean_linker_10, # of connection points: 2
#     Edge 17, Type (0, 0), BuildingBlock: TEMPAE_clean_linker_10, # of connection points: 2
#     Edge 18, Type (0, 0), BuildingBlock: TEMPAE_clean_linker_10, # of connection points: 2
#     Edge 19, Type (0, 0), BuildingBlock: TEMPAE_clean_linker_10, # of connection points: 2
#     Edge 20, Type (0, 0), BuildingBlock: TEMPAE_clean_linker_10, # of connection points: 2
#     Edge 21, Type (0, 0), BuildingBlock: TEMPAE_clean_linker_10, # of connection points: 2
#     Edge 22, Type (0, 0), BuildingBlock: TEMPAE_clean_linker_10, # of connection points: 2
#     Edge 23, Type (0, 0), BuildingBlock: TEMPAE_clean_linker_10, # of connection points: 2
#     Edge 24, Type (0, 0), BuildingBlock: TEMPAE_clean_linker_10, # of connection points: 2
#     Edge 25, Type (0, 0), BuildingBlock: TEMPAE_clean_linker_10, # of connection points: 2
#     Edge 26, Type (0, 0), BuildingBlock: TEMPAE_clean_linker_10, # of connection points: 2
#     Edge 27, Type (0, 0), BuildingBlock: TEMPAE_clean_linker_10, # of connection points: 2
#     Edge 28, Type (0, 0), BuildingBlock: TEMPAE_clean_linker_10, # of connection points: 2
#     Edge 29, Type (0, 0), BuildingBlock: TEMPAE_clean_linker_10, # of connection points: 2
#     Edge 30, Type (0, 0), BuildingBlock: TEMPAE_clean_linker_10, # of connection points: 2
#     Edge 31, Type (0, 0), BuildingBlock: TEMPAE_clean_linker_10, # of connection points: 2
#     Edge 32, Type (0, 0), BuildingBlock: TEMPAE_clean_linker_10, # of connection points: 2
#     Edge 33, Type (0, 0), BuildingBlock: TEMPAE_clean_linker_10, # of connection points: 2
#     Edge 34, Type (0, 0), BuildingBlock: TEMPAE_clean_linker_10, # of connection points: 2
#     Edge 35, Type (0, 0), BuildingBlock: TEMPAE_clean_linker_10, # of connection points: 2
# Relax obj value: 0.056
# Max RMSD: 0.076
# Mean RMSD: 0.076
data_MOF--net-can--node1-ICAMEG_clean_sbu_1--edge1-TEMPAE_clean_linker_10
_symmetry_space_group_name_H-M    P1
_symmetry_Int_Tables_number       1
_symmetry_cell_setting            triclinic
loop_
_symmetry_equiv_pos_as_xyz
'x, y, z'
_cell_length_a     57.493998
_cell_length_b     57.521479
_cell_length_c     30.572599
_cell_angle_alpha  89.995347
_cell_angle_beta   90.006999
_cell_angle_gamma 119.9651
loop_
_atom_site_label
_atom_site_type_symbol
_atom_site_fract_x
_atom_site_fract_y
_atom_site_fract_z
_atom_type_partial_charge
Co0 Co 0.01996 0.37451 0.2455 0.0
Co1 Co 0.08357 0.41571 0.20632 0.0
O2 O 0.05881 0.38849 0.24779 0.0
C3 C 0.03191 0.39008 0.33844 0.0
O4 O 0.05145 0.41342 0.32509 0.0
C5 C 0.10363 0.37645 0.21737 0.0
O6 O 0.07945 0.35738 0.22797 0.0
O7 O 0.0627 0.39234 0.15605 0.0
O8 O 0.02062 0.37692 0.18016 0.0
H9 H 0.10677 0.47402 0.07273 0.0
H10 H 0.03889 0.34335 0.29667 0.0
O11 O 0.01796 0.37183 0.31075 0.0
H12 H 0.98126 0.28196 0.18077 0.0
H13 H 0.92399 0.31379 0.29137 0.0
H14 H 0.98472 0.38931 0.19654 0.0
H15 H 0.98844 0.32784 0.18613 0.0
H16 H 0.97279 0.3309 0.29237 0.0
O17 O 0.10776 0.39961 0.2065 0.0
H18 H 0.07639 0.44035 0.12608 0.0
H19 H 0.14327 0.44808 0.19757 0.0
H20 H 0.93603 0.37267 0.19417 0.0
H21 H 0.03185 0.29744 0.29298 0.0
H22 H 0.9053 0.33464 0.24185 0.0
H23 H 1.00297 0.26644 0.23455 0.0
O24 O 0.02582 0.41143 0.24953 0.0
H25 H 0.12835 0.4344 0.35357 0.0
H26 H 0.10565 0.47357 0.22862 0.0
H27 H 0.12971 0.5021 0.2918 0.0
H28 H 0.14132 0.48256 0.35484 0.0
H29 H 0.10393 0.40649 0.29002 0.0
H30 H 0.17434 0.48163 0.14476 0.0
H31 H 0.15613 0.49491 0.08191 0.0
O32 O 0.06127 0.43385 0.20537 0.0
C33 C 0.03742 0.38132 0.14959 0.0
C34 C 0.11495 0.46845 0.10004 0.0
C35 C 0.15287 0.47269 0.14044 0.0
N36 N 0.10802 0.44235 0.16503 0.0
C37 C 0.09785 0.44944 0.13041 0.0
C38 C 0.13517 0.45362 0.17016 0.0
C39 C 0.14264 0.48014 0.10519 0.0
C40 C 0.02607 0.32989 0.27143 0.0
N41 N 0.01419 0.33833 0.24158 0.0
C42 C 0.02226 0.30396 0.26938 0.0
C43 C 0.00609 0.28659 0.23654 0.0
C44 C 0.99395 0.2953 0.20631 0.0
C45 C 0.99823 0.32138 0.20935 0.0
C46 C 0.93716 0.33031 0.27032 0.0
C47 C 0.97145 0.3726 0.21708 0.0
C48 C 0.96481 0.34011 0.27078 0.0
N49 N 0.98155 0.36088 0.24414 0.0
C50 C 0.94391 0.36333 0.21574 0.0
C51 C 0.92669 0.34202 0.24253 0.0
C52 C 0.04186 0.4323 0.22798 0.0
C53 C 0.12351 0.44318 0.32622 0.0
C54 C 0.11052 0.46486 0.25594 0.0
C55 C 0.12422 0.48115 0.29161 0.0
C56 C 0.13074 0.47018 0.32695 0.0
N57 N 0.10353 0.43838 0.25541 0.0
C58 C 0.10981 0.42749 0.29 0.0
Co59 Co 0.64197 0.01496 0.75688 0.0
Co60 Co 0.66838 0.07982 0.72227 0.0
O61 O 0.66902 0.05299 0.76094 0.0
C62 C 0.65444 0.02679 0.85307 0.0
O63 O 0.67308 0.05161 0.84518 0.0
C64 C 0.72607 0.11186 0.69586 0.0
O65 O 0.71827 0.10792 0.6548 0.0
O66 O 0.67008 0.05957 0.67043 0.0
O67 O 0.6405 0.01764 0.69175 0.0
H68 H 0.63929 0.11085 0.59033 0.0
H69 H 0.69502 0.03215 0.79993 0.0
O70 O 0.64157 0.01053 0.82218 0.0
H71 H 0.686 0.96796 0.68545 0.0
H72 H 0.59846 0.91692 0.79573 0.0
H73 H 0.59124 0.98466 0.70705 0.0
H74 H 0.65042 0.97933 0.69647 0.0
H75 H 0.63353 0.96465 0.79962 0.0
O76 O 0.70876 0.10081 0.72627 0.0
H77 H 0.6397 0.07748 0.6405 0.0
H78 H 0.69747 0.13989 0.72085 0.0
H79 H 0.55586 0.93713 0.7018 0.0
H80 H 0.73081 0.02109 0.79044 0.0
H81 H 0.55935 0.90288 0.74637 0.0
H82 H 0.72651 0.98876 0.73281 0.0
O83 O 0.61339 0.02423 0.764 0.0
H84 H 0.69669 0.12294 0.87056 0.0
H85 H 0.63347 0.10239 0.74825 0.0
H86 H 0.63013 0.12596 0.81306 0.0
H87 H 0.66196 0.1365 0.8748 0.0
H88 H 0.69904 0.09897 0.80545 0.0
H89 H 0.69774 0.17393 0.6715 0.0
H90 H 0.66847 0.15947 0.6057 0.0
O91 O 0.62785 0.05955 0.71914 0.0
C92 C 0.65441 0.0347 0.66232 0.0
C93 C 0.65212 0.1174 0.6189 0.0
C94 C 0.68492 0.15281 0.66445 0.0
N95 N 0.66857 0.1067 0.68357 0.0
C96 C 0.65244 0.0986 0.64743 0.0
C97 C 0.68469 0.13344 0.69227 0.0
C98 C 0.6685 0.14468 0.62754 0.0
C99 C 0.69261 0.01773 0.77538 0.0
N100 N 0.67019 0.00594 0.74966 0.0
C101 C 0.71313 0.01169 0.76987 0.0
C102 C 0.71074 0.9936 0.73748 0.0
C103 C 0.68803 0.98192 0.71092 0.0
C104 C 0.66792 0.98845 0.71738 0.0
C105 C 0.59675 0.93164 0.77605 0.0
C106 C 0.59301 0.96984 0.72626 0.0
C107 C 0.61651 0.9587 0.77818 0.0
N108 N 0.61457 0.97737 0.75319 0.0
C109 C 0.57286 0.94297 0.72328 0.0
C110 C 0.57482 0.92378 0.74834 0.0
C111 C 0.6095 0.04089 0.74235 0.0
C112 C 0.68268 0.11842 0.84391 0.0
C113 C 0.64717 0.10651 0.77517 0.0
C114 C 0.64529 0.12006 0.8117 0.0
C115 C 0.66317 0.126 0.84629 0.0
N116 N 0.66627 0.099 0.77313 0.0
C117 C 0.68394 0.10488 0.80687 0.0
Co118 Co 0.62616 0.64302 0.25393 0.0
Co119 Co 0.58539 0.66537 0.21234 0.0
O120 O 0.61242 0.66818 0.25489 0.0
C121 C 0.62197 0.65412 0.34949 0.0
O122 O 0.6137 0.67104 0.34016 0.0
C123 C 0.62464 0.72456 0.22197 0.0
O124 O 0.64399 0.71942 0.23033 0.0
O125 O 0.60962 0.66839 0.16334 0.0
O126 O 0.62409 0.64118 0.1884 0.0
H127 H 0.52915 0.63031 0.07656 0.0
H128 H 0.65846 0.69524 0.30118 0.0
O129 O 0.62819 0.64279 0.31957 0.0
H130 H 0.71903 0.69315 0.18938 0.0
H131 H 0.68522 0.60597 0.30115 0.0
H132 H 0.61053 0.59271 0.20539 0.0
H133 H 0.67272 0.65553 0.19637 0.0
H134 H 0.66905 0.63844 0.30154 0.0
O135 O 0.60114 0.70555 0.21272 0.0
H136 H 0.56222 0.63381 0.13137 0.0
H137 H 0.55254 0.69209 0.2018 0.0
H138 H 0.62622 0.55989 0.20364 0.0
H139 H 0.70467 0.73293 0.29593 0.0
H140 H 0.66383 0.56642 0.25178 0.0
H141 H 0.73538 0.73218 0.23955 0.0
O142 O 0.58906 0.61264 0.25862 0.0
H143 H 0.5631 0.69233 0.3559 0.0
H144 H 0.52755 0.62824 0.23327 0.0
H145 H 0.49773 0.6236 0.29455 0.0
H146 H 0.51543 0.65585 0.35643 0.0
H147 H 0.59234 0.69597 0.29427 0.0
H148 H 0.51954 0.68938 0.14754 0.0
H149 H 0.50755 0.65823 0.08447 0.0
O150 O 0.56769 0.62494 0.21098 0.0
C151 C 0.62051 0.65399 0.1575 0.0
C152 C 0.53415 0.64391 0.10396 0.0
C153 C 0.52878 0.67708 0.14377 0.0
N154 N 0.55919 0.663 0.1699 0.0
C155 C 0.55282 0.64593 0.13516 0.0
C156 C 0.54754 0.67858 0.17433 0.0
C157 C 0.52206 0.65959 0.1084 0.0
C158 C 0.67165 0.69437 0.27713 0.0
N159 N 0.66277 0.67292 0.24952 0.0
C160 C 0.69784 0.71597 0.27404 0.0
C161 C 0.71504 0.71557 0.24234 0.0
C162 C 0.70587 0.6937 0.21416 0.0
C163 C 0.67954 0.67248 0.21821 0.0
C164 C 0.66887 0.60295 0.27992 0.0
C165 C 0.62705 0.59581 0.22616 0.0
C166 C 0.6596 0.62124 0.28004 0.0
N167 N 0.63907 0.61764 0.25312 0.0
C168 C 0.63578 0.5771 0.22515 0.0
C169 C 0.65687 0.58077 0.2522 0.0
C170 C 0.5687 0.6074 0.23532 0.0
C171 C 0.55515 0.67814 0.32915 0.0
C172 C 0.53554 0.64218 0.26025 0.0
C173 C 0.51848 0.63954 0.29478 0.0
C174 C 0.52842 0.65765 0.32945 0.0
N175 N 0.56179 0.66226 0.26026 0.0
C176 C 0.57162 0.68014 0.29407 0.0
Co177 Co 0.98781 0.63096 0.74634 0.0
Co178 Co 0.92381 0.59005 0.70839 0.0
O179 O 0.94903 0.61732 0.74936 0.0
C180 C 0.97636 0.6158 0.83945 0.0
O181 O 0.95658 0.59252 0.82639 0.0
C182 C 0.90336 0.62896 0.72221 0.0
O183 O 0.92698 0.64744 0.7363 0.0
O184 O 0.94446 0.61318 0.65775 0.0
O185 O 0.98664 0.62821 0.68105 0.0
H186 H 0.89932 0.53125 0.57523 0.0
H187 H 0.96985 0.66282 0.79785 0.0
O188 O 0.99029 0.63391 0.81155 0.0
H189 H 0.0268 0.72324 0.68044 0.0
H190 H 0.08424 0.69112 0.7904 0.0
H191 H 0.02236 0.61555 0.69668 0.0
H192 H 0.01916 0.6772 0.68614 0.0
H193 H 0.03553 0.67445 0.79231 0.0
O194 O 0.8998 0.60642 0.70874 0.0
H195 H 0.9302 0.56496 0.62807 0.0
H196 H 0.86402 0.55805 0.70062 0.0
H197 H 0.07094 0.63174 0.69342 0.0
H198 H 0.97736 0.7089 0.79382 0.0
H199 H 0.10225 0.6698 0.74054 0.0
H200 H 0.00591 0.73941 0.73464 0.0
O201 O 0.98163 0.59395 0.75058 0.0
H202 H 0.88032 0.57205 0.85674 0.0
H203 H 0.90129 0.53218 0.73079 0.0
H204 H 0.87748 0.50384 0.79427 0.0
H205 H 0.86673 0.52372 0.85781 0.0
H206 H 0.90447 0.59975 0.79292 0.0
H207 H 0.83245 0.52448 0.64833 0.0
H208 H 0.85006 0.51077 0.5852 0.0
O209 O 0.94582 0.57163 0.70708 0.0
C210 C 0.96965 0.6239 0.65083 0.0
C211 C 0.8914 0.53701 0.60267 0.0
C212 C 0.85387 0.53324 0.64366 0.0
N213 N 0.89895 0.56337 0.66752 0.0
C214 C 0.90879 0.55605 0.63275 0.0
C215 C 0.87186 0.55233 0.67309 0.0
C216 C 0.86377 0.52554 0.60826 0.0
C217 C 0.9825 0.67605 0.77224 0.0
N218 N 0.99392 0.66726 0.74216 0.0
C219 C 0.98658 0.70209 0.77001 0.0
C220 C 1.00256 0.71918 0.73676 0.0
C221 C 0.01425 0.71011 0.7063 0.0
C222 C 0.00971 0.68394 0.70954 0.0
C223 C 0.07081 0.67459 0.76961 0.0
C224 C 0.03587 0.63226 0.717 0.0
C225 C 0.0432 0.66504 0.77058 0.0
N226 N 0.02614 0.64424 0.74425 0.0
C227 C 0.06335 0.64128 0.71514 0.0
C228 C 0.0809 0.66261 0.74162 0.0
C229 C 0.96533 0.57307 0.72929 0.0
C230 C 0.88475 0.56311 0.82915 0.0
C231 C 0.89676 0.54104 0.7583 0.0
C232 C 0.88322 0.52485 0.79415 0.0
C233 C 0.87718 0.53602 0.82977 0.0
N234 N 0.90405 0.5676 0.75783 0.0
C235 C 0.89829 0.57869 0.79274 0.0
Co236 Co 0.364 0.99144 0.25588 0.0
Co237 Co 0.33827 0.92513 0.22629 0.0
O238 O 0.33862 0.9532 0.26288 0.0
C239 C 0.37251 0.98212 0.34843 0.0
O240 O 0.37497 0.96177 0.33499 0.0
C241 C 0.28071 0.89373 0.19952 0.0
O242 O 0.28881 0.89687 0.15865 0.0
O243 O 0.33762 0.94423 0.17175 0.0
O244 O 0.36051 0.98796 0.19069 0.0
H245 H 0.36681 0.88882 0.10057 0.0
H246 H 0.31597 0.97252 0.31221 0.0
O247 O 0.36764 0.99583 0.32102 0.0
H248 H 0.30942 0.03253 0.20388 0.0
H249 H 0.40555 0.08929 0.29483 0.0
H250 H 0.40968 0.02352 0.19641 0.0
H251 H 0.34793 0.0248 0.20315 0.0
H252 H 0.373 0.04096 0.30223 0.0
O253 O 0.29787 0.90515 0.23005 0.0
H254 H 0.36745 0.92415 0.14712 0.0
H255 H 0.30736 0.86509 0.22906 0.0
H256 H 0.44246 0.0717 0.18753 0.0
H257 H 0.27725 0.97993 0.31457 0.0
H258 H 0.44052 0.10494 0.237 0.0
H259 H 0.27377 0.01006 0.26002 0.0
O260 O 0.39487 0.98476 0.2548 0.0
H261 H 0.31053 0.88926 0.37891 0.0
H262 H 0.37132 0.9013 0.25636 0.0
H263 H 0.37418 0.87989 0.32439 0.0
H264 H 0.34358 0.87367 0.38625 0.0
H265 H 0.30858 0.91092 0.31053 0.0
H266 H 0.30602 0.8291 0.18341 0.0
H267 H 0.33589 0.84088 0.11861 0.0
O268 O 0.37835 0.94423 0.22356 0.0
C269 C 0.34893 0.96925 0.16242 0.0
C270 C 0.35363 0.88342 0.12863 0.0
C271 C 0.31952 0.84991 0.17513 0.0
N272 N 0.33729 0.89673 0.19049 0.0
C273 C 0.35386 0.90335 0.15503 0.0
C274 C 0.32034 0.87038 0.2008 0.0
C275 C 0.33629 0.85653 0.13879 0.0
C276 C 0.3146 0.98569 0.28842 0.0
N277 N 0.33406 0.99805 0.25733 0.0
C278 C 0.29263 0.9898 0.2899 0.0
C279 C 0.29068 0.00669 0.25927 0.0
C280 C 0.31065 0.01928 0.22772 0.0
C281 C 0.33232 0.01469 0.22727 0.0
C282 C 0.40658 0.075 0.27303 0.0
C283 C 0.4086 0.0379 0.21784 0.0
C284 C 0.38825 0.04761 0.27714 0.0
N285 N 0.38933 0.02948 0.24954 0.0
C286 C 0.42727 0.06514 0.21276 0.0
C287 C 0.42618 0.08377 0.24056 0.0
C288 C 0.39777 0.96586 0.23887 0.0
C289 C 0.32389 0.89176 0.35212 0.0
C290 C 0.35797 0.89876 0.28314 0.0
C291 C 0.35965 0.88656 0.32157 0.0
C292 C 0.34247 0.88306 0.35625 0.0
N293 N 0.33964 0.9072 0.27927 0.0
C294 C 0.32278 0.90388 0.3132 0.0
Co295 Co 0.37618 0.35782 0.74934 0.0
Co296 Co 0.42025 0.33698 0.71463 0.0
O297 O 0.39192 0.33447 0.75378 0.0
C298 C 0.39497 0.36681 0.84171 0.0
O299 O 0.41834 0.37094 0.82774 0.0
C300 C 0.37997 0.27776 0.72206 0.0
O301 O 0.36071 0.28305 0.73029 0.0
O302 O 0.39922 0.33581 0.66163 0.0
O303 O 0.37566 0.35535 0.68386 0.0
H304 H 0.48453 0.37403 0.58826 0.0
H305 H 0.35005 0.30996 0.80669 0.0
O306 O 0.3759 0.36069 0.8147 0.0
H307 H 0.28102 0.29772 0.69887 0.0
H308 H 0.31422 0.39193 0.79385 0.0
H309 H 0.38583 0.40339 0.69228 0.0
H310 H 0.32596 0.33816 0.69714 0.0
H311 H 0.33357 0.36221 0.79832 0.0
O312 O 0.40364 0.29669 0.71361 0.0
H313 H 0.44915 0.37059 0.63789 0.0
H314 H 0.45171 0.30852 0.70916 0.0
H315 H 0.36683 0.4334 0.68635 0.0
H316 H 0.30519 0.26947 0.81031 0.0
H317 H 0.33077 0.42776 0.73742 0.0
H318 H 0.27038 0.26306 0.75591 0.0
O319 O 0.41253 0.39054 0.74807 0.0
H320 H 0.43312 0.30821 0.86374 0.0
H321 H 0.47715 0.37207 0.74266 0.0
H322 H 0.50323 0.37525 0.80861 0.0
H323 H 0.48124 0.34312 0.86972 0.0
H324 H 0.40769 0.30594 0.79746 0.0
H325 H 0.48697 0.31115 0.66012 0.0
H326 H 0.50369 0.34415 0.59922 0.0
O327 O 0.43851 0.37698 0.71502 0.0
C328 C 0.38391 0.34558 0.65414 0.0
C329 C 0.4774 0.35955 0.61465 0.0
C330 C 0.47875 0.32425 0.65495 0.0
N331 N 0.44827 0.33933 0.67628 0.0
C332 C 0.45736 0.35751 0.64285 0.0
C333 C 0.45868 0.32278 0.68251 0.0
C334 C 0.48814 0.34278 0.62081 0.0
C335 C 0.33493 0.3074 0.78312 0.0
N336 N 0.34072 0.32621 0.75132 0.0
C337 C 0.3096 0.28439 0.78524 0.0
C338 C 0.29009 0.28079 0.75466 0.0
C339 C 0.29607 0.30019 0.72258 0.0
C340 C 0.32162 0.32293 0.72147 0.0
C341 C 0.32989 0.39456 0.77137 0.0
C342 C 0.37001 0.40071 0.71441 0.0
C343 C 0.34098 0.37784 0.77381 0.0
N344 N 0.36068 0.38095 0.74536 0.0
C345 C 0.35939 0.41781 0.71099 0.0
C346 C 0.33918 0.41465 0.73968 0.0
C347 C 0.43478 0.39522 0.73141 0.0
C348 C 0.44297 0.32224 0.83725 0.0
C349 C 0.4674 0.358 0.76908 0.0
C350 C 0.4823 0.35989 0.80635 0.0
C351 C 0.46995 0.34186 0.84061 0.0
N352 N 0.44095 0.33864 0.76594 0.0
C353 C 0.42869 0.32096 0.79949 0.0
Co354 Co 0.62592 0.97911 0.25886 0.0
Co355 Co 0.5843 0.91545 0.29734 0.0
O356 O 0.61215 0.94024 0.25659 0.0
C357 C 0.61362 0.96556 0.16538 0.0
O358 O 0.59201 0.94335 0.17712 0.0
C359 C 0.62403 0.8959 0.28964 0.0
O360 O 0.64336 0.9204 0.2815 0.0
O361 O 0.60719 0.93615 0.348 0.0
O362 O 0.62242 0.97819 0.32407 0.0
H363 H 0.52452 0.89229 0.42906 0.0
H364 H 0.65812 0.96048 0.21016 0.0
O365 O 0.62968 0.98168 0.19386 0.0
H366 H 0.71746 0.0183 0.32787 0.0
H367 H 0.68665 0.07543 0.21493 0.0
H368 H 0.6098 0.01369 0.3066 0.0
H369 H 0.67157 0.01087 0.32 0.0
H370 H 0.67007 0.02676 0.21369 0.0
O371 O 0.60039 0.89129 0.29815 0.0
H372 H 0.55883 0.92264 0.3765 0.0
H373 H 0.55173 0.85579 0.30588 0.0
H374 H 0.62588 0.06224 0.30916 0.0
H375 H 0.70406 0.96774 0.21637 0.0
H376 H 0.66458 0.09348 0.26306 0.0
H377 H 0.73403 0.99673 0.27571 0.0
O378 O 0.58903 0.97287 0.25244 0.0
H379 H 0.56652 0.86864 0.15201 0.0
H380 H 0.52691 0.89434 0.27253 0.0
H381 H 0.49886 0.86968 0.20926 0.0
H382 H 0.5186 0.85654 0.14847 0.0
H383 H 0.594 0.89379 0.21547 0.0
H384 H 0.51752 0.82473 0.3579 0.0
H385 H 0.50362 0.84294 0.41993 0.0
O386 O 0.56622 0.93789 0.29726 0.0
C387 C 0.61805 0.96136 0.35456 0.0
C388 C 0.53036 0.88411 0.40211 0.0
C389 C 0.52646 0.84619 0.3622 0.0
N390 N 0.55716 0.89102 0.338 0.0
C391 C 0.54974 0.90119 0.37218 0.0
C392 C 0.5459 0.86389 0.33291 0.0
C393 C 0.51866 0.85642 0.39698 0.0
C394 C 0.67114 0.97334 0.23578 0.0
N395 N 0.66213 0.98516 0.26472 0.0
C396 C 0.69709 0.97728 0.23926 0.0
C397 C 0.71387 0.9935 0.27261 0.0
C398 C 0.70457 0.00557 0.30193 0.0
C399 C 0.6785 1.00117 0.29745 0.0
C400 C 0.66983 0.06204 0.23527 0.0
C401 C 0.6268 0.02718 0.28674 0.0
C402 C 0.66034 0.03445 0.23469 0.0
N403 N 0.63919 0.01743 0.26045 0.0
C404 C 0.63575 0.05464 0.2882 0.0
C405 C 0.65744 0.07215 0.26229 0.0
C406 C 0.56798 0.95711 0.27379 0.0
C407 C 0.55765 0.87416 0.17836 0.0
C408 C 0.53575 0.8889 0.24611 0.0
C409 C 0.51971 0.87482 0.21042 0.0
C410 C 0.53079 0.86743 0.17636 0.0
N411 N 0.5621 0.89545 0.24785 0.0
C412 C 0.57308 0.88826 0.21456 0.0
Co413 Co 0.64646 0.62569 0.75508 0.0
Co414 Co 0.66858 0.58352 0.79061 0.0
O415 O 0.67145 0.61179 0.75097 0.0
C416 C 0.64705 0.61459 0.6607 0.0
O417 O 0.64799 0.59295 0.67105 0.0
C418 C 0.72788 0.62312 0.78324 0.0
O419 O 0.7228 0.64271 0.7771 0.0
O420 O 0.67138 0.60603 0.8422 0.0
O421 O 0.64436 0.62149 0.82025 0.0
H422 H 0.63279 0.52266 0.92121 0.0
H423 H 0.697 0.65807 0.70589 0.0
O424 O 0.64713 0.63021 0.69019 0.0
H425 H 0.69971 0.71638 0.82635 0.0
H426 H 0.61091 0.68723 0.71599 0.0
H427 H 0.59622 0.60934 0.80441 0.0
H428 H 0.66098 0.67075 0.8178 0.0
H429 H 0.64283 0.67046 0.71241 0.0
O430 O 0.70878 0.59933 0.79036 0.0
H431 H 0.63656 0.55755 0.87009 0.0
H432 H 0.69539 0.55051 0.7964 0.0
H433 H 0.56393 0.62561 0.8093 0.0
H434 H 0.73594 0.70376 0.71279 0.0
H435 H 0.57117 0.66483 0.76485 0.0
H436 H 0.73752 0.7332 0.77351 0.0
O437 O 0.61566 0.58894 0.74821 0.0
H438 H 0.69622 0.56671 0.6433 0.0
H439 H 0.63181 0.52646 0.7648 0.0
H440 H 0.62769 0.49891 0.7004 0.0
H441 H 0.66012 0.51898 0.63911 0.0
H442 H 0.69928 0.5937 0.70794 0.0
H443 H 0.69243 0.51574 0.84696 0.0
H444 H 0.66087 0.5015 0.9098 0.0
O445 O 0.62812 0.56572 0.79161 0.0
C446 C 0.65708 0.61683 0.84994 0.0
C447 C 0.64657 0.52864 0.89389 0.0
C448 C 0.68007 0.52478 0.85225 0.0
N449 N 0.66605 0.55596 0.83015 0.0
C450 C 0.64875 0.54835 0.86478 0.0
C451 C 0.68171 0.54454 0.82379 0.0
C452 C 0.66235 0.5168 0.88749 0.0
C453 C 0.69742 0.67088 0.73211 0.0
N454 N 0.67677 0.66173 0.76142 0.0
C455 C 0.71958 0.69668 0.73598 0.0
C456 C 0.72047 0.71317 0.7701 0.0
C457 C 0.69928 0.70373 0.7998 0.0
C458 C 0.67746 0.67781 0.79492 0.0
C459 C 0.60758 0.67018 0.73562 0.0
C460 C 0.59964 0.62655 0.78525 0.0
C461 C 0.62557 0.66057 0.7337 0.0
N462 N 0.62155 0.63911 0.75855 0.0
C463 C 0.58122 0.63562 0.78803 0.0
C464 C 0.58529 0.6576 0.76304 0.0
C465 C 0.61048 0.56773 0.76901 0.0
C466 C 0.68202 0.55771 0.66986 0.0
C467 C 0.64588 0.53544 0.73815 0.0
C468 C 0.64351 0.51968 0.70183 0.0
C469 C 0.66173 0.53095 0.66749 0.0
N470 N 0.66582 0.5617 0.74024 0.0
C471 C 0.68376 0.57286 0.70669 0.0
Co472 Co 0.02568 0.64628 0.24799 0.0
Co473 Co 0.08818 0.66452 0.28654 0.0
O474 O 0.06474 0.66891 0.245 0.0
C475 C 0.03623 0.64168 0.15468 0.0
O476 O 0.0545 0.63579 0.16742 0.0
C477 C 0.11095 0.72416 0.28116 0.0
O478 O 0.08662 0.72068 0.28408 0.0
O479 O 0.06897 0.67 0.33648 0.0
O480 O 0.02653 0.64446 0.31335 0.0
H481 H 0.10841 0.62847 0.42212 0.0
H482 H 0.04889 0.69736 0.19871 0.0
O483 O 0.02347 0.6473 0.18282 0.0
H484 H 0.99301 0.70513 0.3137 0.0
H485 H 0.93065 0.61727 0.20374 0.0
H486 H 0.98832 0.59725 0.29733 0.0
H487 H 0.99614 0.66406 0.30707 0.0
H488 H 0.9799 0.64626 0.202 0.0
O489 O 0.11455 0.70407 0.28343 0.0
H490 H 0.07927 0.63367 0.36851 0.0
H491 H 0.1475 0.68754 0.29396 0.0
H492 H 0.93916 0.56788 0.30045 0.0
H493 H 0.04608 0.7387 0.20384 0.0
H494 H 0.90997 0.57783 0.25339 0.0
H495 H 0.01805 0.74279 0.26177 0.0
O496 O 0.02907 0.61368 0.24352 0.0
H497 H 0.13218 0.68508 0.13863 0.0
H498 H 0.10541 0.62454 0.26602 0.0
H499 H 0.12717 0.6164 0.2031 0.0
H500 H 0.14081 0.64685 0.13883 0.0
H501 H 0.10996 0.69223 0.202 0.0
H502 H 0.17739 0.68312 0.34698 0.0
H503 H 0.15785 0.65331 0.41152 0.0
O504 O 0.06325 0.62454 0.28965 0.0
C505 C 0.0437 0.65685 0.34348 0.0
C506 C 0.11716 0.64148 0.39409 0.0
C507 C 0.15587 0.67218 0.35195 0.0
N508 N 0.11165 0.6608 0.32804 0.0
C509 C 0.10076 0.64447 0.36357 0.0
C510 C 0.13885 0.67467 0.32211 0.0
C511 C 0.1449 0.65544 0.38814 0.0
C512 C 0.03644 0.6989 0.22372 0.0
N513 N 0.02265 0.67831 0.25246 0.0
C514 C 0.03502 0.72239 0.22659 0.0
C515 C 0.01932 0.7247 0.25914 0.0
C516 C 0.00529 0.70359 0.28832 0.0
C517 C 0.00722 0.68041 0.28449 0.0
C518 C 0.94315 0.61277 0.22449 0.0
C519 C 0.97574 0.60183 0.27703 0.0
C520 C 0.97105 0.62909 0.2236 0.0
N521 N 0.98695 0.62361 0.2499 0.0
C522 C 0.94792 0.58508 0.27881 0.0
C523 C 0.93156 0.59065 0.25237 0.0
C524 C 0.04391 0.60753 0.26592 0.0
C525 C 0.1264 0.67171 0.16649 0.0
C526 C 0.11113 0.6378 0.23811 0.0
C527 C 0.12354 0.63314 0.20262 0.0
C528 C 0.1312 0.65024 0.16659 0.0
N529 N 0.10643 0.65888 0.23776 0.0
C530 C 0.11391 0.67573 0.20255 0.0
Co531 Co 0.37864 0.02484 0.75919 0.0
Co532 Co 0.42295 0.08916 0.79575 0.0
O533 O 0.3947 0.06395 0.756 0.0
C534 C 0.39829 0.0359 0.66754 0.0
O535 O 0.42155 0.05473 0.68255 0.0
C536 C 0.38234 0.10766 0.79104 0.0
O537 O 0.36306 0.08289 0.78465 0.0
O538 O 0.40179 0.06872 0.84824 0.0
O539 O 0.37771 0.02598 0.82469 0.0
H540 H 0.48697 0.11466 0.92223 0.0
H541 H 0.35338 0.04788 0.7026 0.0
O542 O 0.37888 0.0226 0.69377 0.0
H543 H 0.28327 0.99022 0.80819 0.0
H544 H 0.31637 0.92964 0.71119 0.0
H545 H 0.38738 0.98785 0.81513 0.0
H546 H 0.32795 0.99407 0.81016 0.0
H547 H 0.33619 0.9788 0.70844 0.0
O548 O 0.40633 0.11281 0.79774 0.0
H549 H 0.45164 0.08341 0.87189 0.0
H550 H 0.45445 0.14892 0.80312 0.0
H551 H 0.36792 0.93875 0.81932 0.0
H552 H 0.30881 0.04423 0.69879 0.0
H553 H 0.33216 0.9093 0.76706 0.0
H554 H 0.27344 0.01537 0.75206 0.0
O555 O 0.4148 0.02802 0.76076 0.0
H556 H 0.43615 0.13268 0.64824 0.0
H557 H 0.47986 0.11102 0.76764 0.0
H558 H 0.50605 0.13462 0.70217 0.0
H559 H 0.48421 0.14567 0.64192 0.0
H560 H 0.41061 0.10883 0.71404 0.0
H561 H 0.48967 0.18088 0.8529 0.0
H562 H 0.50623 0.16381 0.9129 0.0
O563 O 0.44112 0.06731 0.79423 0.0
C564 C 0.38618 0.04363 0.855 0.0
C565 C 0.47991 0.12236 0.89624 0.0
C566 C 0.4814 0.15951 0.85735 0.0
N567 N 0.4509 0.11428 0.83469 0.0
C568 C 0.4599 0.10475 0.86763 0.0
C569 C 0.46136 0.1413 0.82937 0.0
C570 C 0.4907 0.14992 0.89099 0.0
C571 C 0.33802 0.03512 0.72567 0.0
N572 N 0.34335 0.02146 0.75696 0.0
C573 C 0.31285 0.03321 0.72345 0.0
C574 C 0.29304 0.01705 0.75339 0.0
C575 C 0.29856 0.00299 0.78496 0.0
C576 C 0.32396 0.00542 0.78621 0.0
C577 C 0.33191 0.94226 0.73419 0.0
C578 C 0.37169 0.97514 0.79249 0.0
C579 C 0.34325 0.97011 0.73272 0.0
N580 N 0.36278 0.98616 0.76183 0.0
C581 C 0.36081 0.94737 0.79492 0.0
C582 C 0.34077 0.93086 0.76556 0.0
C583 C 0.43715 0.04534 0.77747 0.0
C584 C 0.44592 0.12809 0.67437 0.0
C585 C 0.47018 0.11573 0.74158 0.0
C586 C 0.48514 0.12914 0.70459 0.0
C587 C 0.47288 0.13534 0.67081 0.0
N588 N 0.44376 0.10876 0.74491 0.0
C589 C 0.43159 0.1147 0.71184 0.0
Co590 Co 0.35635 0.37485 0.25176 0.0
Co591 Co 0.33647 0.4194 0.28778 0.0
O592 O 0.33346 0.39113 0.24803 0.0
C593 C 0.36554 0.39418 0.15972 0.0
O594 O 0.37003 0.41756 0.17417 0.0
C595 C 0.27721 0.37939 0.28204 0.0
O596 O 0.2824 0.35991 0.27548 0.0
O597 O 0.33512 0.39798 0.34033 0.0
O598 O 0.3541 0.37409 0.31729 0.0
H599 H 0.37448 0.48283 0.41502 0.0
H600 H 0.30825 0.34982 0.19485 0.0
O601 O 0.35907 0.37486 0.18635 0.0
H602 H 0.29504 0.27968 0.30096 0.0
H603 H 0.38893 0.31197 0.20534 0.0
H604 H 0.40185 0.38349 0.30823 0.0
H605 H 0.33603 0.32418 0.30296 0.0
H606 H 0.3598 0.33204 0.20182 0.0
O607 O 0.29624 0.40323 0.28902 0.0
H608 H 0.3704 0.4475 0.36467 0.0
H609 H 0.30875 0.4515 0.29441 0.0
H610 H 0.43127 0.36377 0.31322 0.0
H611 H 0.26717 0.30543 0.19097 0.0
H612 H 0.42489 0.32775 0.26149 0.0
H613 H 0.26028 0.27005 0.24451 0.0
O614 O 0.38942 0.41091 0.25331 0.0
H615 H 0.30762 0.4335 0.13958 0.0
H616 H 0.37216 0.47628 0.26027 0.0
H617 H 0.37554 0.50278 0.19478 0.0
H618 H 0.34307 0.48141 0.13387 0.0
H619 H 0.30515 0.40764 0.20543 0.0
H620 H 0.31203 0.48673 0.34419 0.0
H621 H 0.34514 0.50269 0.40495 0.0
O622 O 0.37646 0.43717 0.28707 0.0
C623 C 0.3447 0.38247 0.34741 0.0
C624 C 0.35997 0.47604 0.38869 0.0
C625 C 0.3249 0.4782 0.34896 0.0
N626 N 0.33932 0.44737 0.32671 0.0
C627 C 0.35756 0.45604 0.36006 0.0
C628 C 0.32306 0.45816 0.32098 0.0
C629 C 0.34349 0.48716 0.38303 0.0
C630 C 0.30547 0.33445 0.21804 0.0
N631 N 0.32433 0.33969 0.24952 0.0
C632 C 0.28213 0.30939 0.21578 0.0
C633 C 0.27826 0.28957 0.24587 0.0
C634 C 0.29772 0.29498 0.27762 0.0
C635 C 0.32078 0.32029 0.2789 0.0
C636 C 0.39188 0.32762 0.22811 0.0
C637 C 0.39884 0.36769 0.28582 0.0
C638 C 0.37549 0.33912 0.2262 0.0
N639 N 0.379 0.35879 0.25501 0.0
C640 C 0.41561 0.35666 0.2887 0.0
C641 C 0.41204 0.33647 0.25964 0.0
C642 C 0.39446 0.43319 0.27032 0.0
C643 C 0.32181 0.44307 0.16599 0.0
C644 C 0.35795 0.4668 0.23392 0.0
C645 C 0.35995 0.48194 0.19693 0.0
C646 C 0.34173 0.46994 0.16277 0.0
N647 N 0.3383 0.44046 0.23691 0.0
C648 C 0.32042 0.42855 0.20348 0.0
Co649 Co 0.98188 0.35923 0.74708 0.0
Co650 Co 0.91918 0.34078 0.78474 0.0
O651 O 0.94284 0.33656 0.74342 0.0
C652 C 0.97188 0.36413 0.65361 0.0
O653 O 0.95349 0.36989 0.66608 0.0
C654 C 0.89618 0.28111 0.77831 0.0
O655 O 0.92041 0.2844 0.78149 0.0
O656 O 0.93805 0.33491 0.8348 0.0
O657 O 0.98061 0.36085 0.81243 0.0
H658 H 0.89828 0.3761 0.9205 0.0
H659 H 0.95906 0.30832 0.69741 0.0
O660 O 0.9845 0.35844 0.68193 0.0
H661 H 0.0143 0.30031 0.81333 0.0
H662 H 0.07722 0.3886 0.70439 0.0
H663 H 0.01886 0.40808 0.79717 0.0
H664 H 0.01112 0.34136 0.80664 0.0
H665 H 0.02799 0.35954 0.70181 0.0
O666 O 0.89273 0.30128 0.78086 0.0
H667 H 0.92768 0.37112 0.86717 0.0
H668 H 0.85985 0.3179 0.79124 0.0
H669 H 0.06799 0.43751 0.80112 0.0
H670 H 0.96193 0.26702 0.70259 0.0
H671 H 0.09753 0.42785 0.75448 0.0
H672 H 0.98964 0.2628 0.76098 0.0
O673 O 0.97843 0.3918 0.74256 0.0
H674 H 0.87611 0.32132 0.63612 0.0
H675 H 0.90225 0.38103 0.76452 0.0
H676 H 0.88096 0.38968 0.70146 0.0
H677 H 0.86764 0.35965 0.63668 0.0
H678 H 0.89787 0.31366 0.69963 0.0
H679 H 0.8297 0.32211 0.84395 0.0
H680 H 0.84891 0.35148 0.90905 0.0
O681 O 0.94419 0.38072 0.78861 0.0
C682 C 0.96328 0.34819 0.84222 0.0
C683 C 0.88967 0.36328 0.89222 0.0
C684 C 0.85118 0.33295 0.84929 0.0
N685 N 0.89551 0.34433 0.82603 0.0
C686 C 0.90622 0.36042 0.86187 0.0
C687 C 0.86835 0.33057 0.81963 0.0
C688 C 0.86197 0.34945 0.88579 0.0
C689 C 0.97136 0.30672 0.72263 0.0
N690 N 0.98495 0.32724 0.7516 0.0
C691 C 0.97282 0.28325 0.72552 0.0
C692 C 0.98834 0.28088 0.75833 0.0
C693 C 1.00216 0.30191 0.78774 0.0
C694 C 1.00021 0.32507 0.78388 0.0
C695 C 0.06456 0.39298 0.72497 0.0
C696 C 0.03158 0.40362 0.77704 0.0
C697 C 0.03668 0.37662 0.7236 0.0
N698 N 0.02059 0.38195 0.74966 0.0
C699 C 0.05939 0.42041 0.7793 0.0
C700 C 0.07595 0.41499 0.75308 0.0
C701 C 0.96352 0.39783 0.76498 0.0
C702 C 0.88176 0.33451 0.66419 0.0
C703 C 0.89667 0.36795 0.73639 0.0
C704 C 0.88452 0.3729 0.70082 0.0
C705 C 0.87705 0.35604 0.6645 0.0
N706 N 0.90128 0.34682 0.73583 0.0
C707 C 0.89399 0.3302 0.70034 0.0
C708 C 0.0382 0.36624 0.07258 0.0
C709 C 0.02666 0.37485 0.10445 0.0
C710 C 0.02732 0.35967 0.03008 0.0
C711 C 0.00497 0.36263 0.01895 0.0
C712 C 0.99346 0.37154 0.05106 0.0
C713 C 0.00421 0.37716 0.09344 0.0
C714 C 0.03974 0.34962 0.99704 0.0
C715 C 0.97025 0.37588 0.04037 0.0
C716 C 0.99572 0.37569 0.90026 0.0
C717 C 0.97342 0.35126 0.88759 0.0
C718 C 0.0062 0.37954 0.94272 0.0
C719 C 0.9946 0.35818 0.97316 0.0
C720 C 0.97232 0.33325 0.96039 0.0
C721 C 0.96169 0.33021 0.91787 0.0
C722 C 0.02934 0.40672 0.95525 0.0
C723 C 0.95981 0.30981 0.99159 0.0
H724 H 0.05541 0.36422 0.08108 0.0
H725 H 0.99537 0.38409 0.11782 0.0
H726 H 0.02406 0.33043 0.9826 0.0
H727 H 0.04872 0.36427 0.9699 0.0
H728 H 0.05562 0.34644 0.0117 0.0
H729 H 0.96342 0.38261 0.06924 0.0
H730 H 0.97626 0.39124 0.01426 0.0
H731 H 0.95304 0.35708 0.02773 0.0
H732 H 0.00469 0.39213 0.87706 0.0
H733 H 0.94461 0.31124 0.90801 0.0
H734 H 0.04663 0.40478 0.96649 0.0
H735 H 0.02334 0.41511 0.98287 0.0
H736 H 0.03606 0.42123 0.92766 0.0
H737 H 0.97542 0.30568 0.00454 0.0
H738 H 0.94379 0.29131 0.97581 0.0
H739 H 0.95103 0.31474 0.01994 0.0
C740 C 0.62219 0.9943 0.41114 0.0
C741 C 0.62466 0.97202 0.39966 0.0
C742 C 0.62821 0.00504 0.4535 0.0
C743 C 0.63766 0.99369 0.48499 0.0
C744 C 0.64076 0.97151 0.47335 0.0
C745 C 0.6338 0.96064 0.43094 0.0
C746 C 0.62375 0.02809 0.46482 0.0
C747 C 0.65137 0.95927 0.50574 0.0
C748 C 0.67129 0.03667 0.58573 0.0
C749 C 0.65063 0.0248 0.6167 0.0
C750 C 0.66769 0.02629 0.54298 0.0
C751 C 0.64261 0.00405 0.53074 0.0
C752 C 0.62163 0.99229 0.56183 0.0
C753 C 0.62601 0.00259 0.60444 0.0
C754 C 0.6907 0.039 0.51096 0.0
C755 C 0.59433 0.9691 0.54993 0.0
H756 H 0.6149 0.00303 0.38715 0.0
H757 H 0.63597 0.94359 0.42199 0.0
H758 H 0.60867 0.02196 0.49142 0.0
H759 H 0.64263 0.04538 0.47708 0.0
H760 H 0.61661 0.03482 0.43636 0.0
H761 H 0.65446 0.94344 0.4907 0.0
H762 H 0.67073 0.97505 0.51955 0.0
H763 H 0.63712 0.95031 0.53339 0.0
H764 H 0.69042 0.05368 0.59518 0.0
H765 H 0.60985 0.99346 0.6281 0.0
H766 H 0.68522 0.04758 0.48297 0.0
H767 H 0.69492 0.02355 0.49757 0.0
H768 H 0.70931 0.0552 0.52619 0.0
H769 H 0.58557 0.97505 0.52279 0.0
H770 H 0.58015 0.9623 0.57796 0.0
H771 H 0.59623 0.95188 0.53822 0.0
C772 C 0.62729 0.62614 0.10205 0.0
C773 C 0.62777 0.65013 0.11265 0.0
C774 C 0.63326 0.62137 0.05968 0.0
C775 C 0.64062 0.64135 0.02717 0.0
C776 C 0.64185 0.66593 0.0379 0.0
C777 C 0.635 0.66988 0.08039 0.0
C778 C 0.63087 0.59456 0.04941 0.0
C779 C 0.65022 0.68797 0.00441 0.0
C780 C 0.67457 0.63344 0.92552 0.0
C781 C 0.65333 0.62291 0.8955 0.0
C782 C 0.671 0.64034 0.96821 0.0
C783 C 0.64537 0.63573 0.9814 0.0
C784 C 0.6238 0.62465 0.95126 0.0
C785 C 0.62816 0.61878 0.90857 0.0
C786 C 0.69464 0.65275 0.99906 0.0
C787 C 0.59596 0.61855 0.96427 0.0
H788 H 0.62148 0.61067 0.12669 0.0
H789 H 0.63561 0.68851 0.08851 0.0
H790 H 0.61538 0.58416 0.02379 0.0
H791 H 0.65011 0.59747 0.03626 0.0
H792 H 0.62531 0.58133 0.07859 0.0
H793 H 0.65226 0.70663 0.01881 0.0
H794 H 0.66967 0.69264 0.98944 0.0
H795 H 0.63517 0.68121 0.97771 0.0
H796 H 0.6941 0.63689 0.91529 0.0
H797 H 0.61163 0.61042 0.88548 0.0
H798 H 0.69069 0.63946 0.0277 0.0
H799 H 0.69756 0.67214 0.0116 0.0
H800 H 0.71351 0.65633 0.98311 0.0
H801 H 0.58872 0.60438 0.99227 0.0
H802 H 0.58131 0.60963 0.93704 0.0
H803 H 0.59641 0.63716 0.97516 0.0
C804 C 0.04602 0.67417 0.4199 0.0
C805 C 0.03328 0.65379 0.38869 0.0
C806 C 0.03539 0.67112 0.46242 0.0
C807 C 0.01202 0.64682 0.47423 0.0
C808 C 0.9993 0.62616 0.44282 0.0
C809 C 0.00987 0.63004 0.40041 0.0
C810 C 0.04916 0.69385 0.49471 0.0
C811 C 0.97489 0.5996 0.45426 0.0
C812 C 1.00132 0.6259 0.59363 0.0
C813 C 0.98009 0.63002 0.60555 0.0
C814 C 0.01196 0.63146 0.55119 0.0
C815 C 1.00165 0.64216 0.52002 0.0
C816 C 0.98051 0.64687 0.53206 0.0
C817 C 0.96965 0.6403 0.57457 0.0
C818 C 0.03379 0.62523 0.53946 0.0
C819 C 0.96943 0.65885 0.50006 0.0
H820 H 0.06398 0.69263 0.41085 0.0
H821 H 1.00007 0.61408 0.37656 0.0
H822 H 0.03448 0.69903 0.50855 0.0
H823 H 0.05726 0.68756 0.52236 0.0
H824 H 0.06593 0.7121 0.47958 0.0
H825 H 0.96726 0.58568 0.42591 0.0
H826 H 0.97991 0.58982 0.48102 0.0
H827 H 0.95853 0.60282 0.46632 0.0
H828 H 0.00927 0.61769 0.61739 0.0
H829 H 0.9534 0.64372 0.58385 0.0
H830 H 0.05186 0.6436 0.52766 0.0
H831 H 0.02686 0.61037 0.51244 0.0
H832 H 0.03966 0.61704 0.56761 0.0
H833 H 0.98598 0.67785 0.48654 0.0
H834 H 0.95436 0.66301 0.51535 0.0
H835 H 0.95985 0.64495 0.47217 0.0
C836 C 0.39757 0.04444 0.93436 0.0
C837 C 0.37857 0.03385 0.9006 0.0
C838 C 0.39158 0.0331 0.97654 0.0
C839 C 0.36564 0.01119 0.98563 0.0
C840 C 0.34604 1.00115 0.95205 0.0
C841 C 0.35288 0.0123 0.90986 0.0
C842 C 0.41327 0.04407 0.01102 0.0
C843 C 0.31789 0.97851 0.9606 0.0
C844 C 0.35737 0.9659 0.08278 0.0
C845 C 0.35001 0.97762 0.11622 0.0
C846 C 0.36233 0.97646 0.04003 0.0
C847 C 0.35909 0.99879 0.03022 0.0
C848 C 0.35032 0.00978 0.06346 0.0
C849 C 0.34628 0.99932 0.10609 0.0
C850 C 0.37214 0.96444 0.00585 0.0
C851 C 0.34571 0.03296 0.05426 0.0
H852 H 0.41751 0.0609 0.92738 0.0
H853 H 0.33803 0.00417 0.88408 0.0
H854 H 0.4068 0.05134 0.03955 0.0
H855 H 0.41683 0.02787 0.02291 0.0
H856 H 0.43252 0.06084 0.99855 0.0
H857 H 0.30459 0.97406 0.93172 0.0
H858 H 0.31835 0.96006 0.96954 0.0
H859 H 0.30901 0.98361 0.98865 0.0
H860 H 0.3605 0.94929 0.09047 0.0
H861 H 0.34027 0.00823 0.13164 0.0
H862 H 0.39245 0.9798 0.99459 0.0
H863 H 0.35874 0.95809 0.9769 0.0
H864 H 0.37314 0.94684 0.01842 0.0
H865 H 0.36503 0.05109 0.04587 0.0
H866 H 0.33681 0.03774 0.0827 0.0
H867 H 0.33217 0.0283 0.02571 0.0
C868 C 0.35313 0.39334 0.42744 0.0
C869 C 0.34675 0.3749 0.39319 0.0
C870 C 0.35856 0.38766 0.46982 0.0
C871 C 0.35666 0.36255 0.4786 0.0
C872 C 0.349 0.3434 0.44457 0.0
C873 C 0.3446 0.34998 0.40224 0.0
C874 C 0.36727 0.40892 0.50481 0.0
C875 C 0.34578 0.31605 0.45269 0.0
C876 C 0.39565 0.35667 0.57503 0.0
C877 C 0.37633 0.3473 0.60834 0.0
C878 C 0.38957 0.36177 0.53273 0.0
C879 C 0.36325 0.35655 0.52308 0.0
C880 C 0.34336 0.34594 0.55618 0.0
C881 C 0.35026 0.34187 0.5985 0.0
C882 C 0.41157 0.37366 0.49881 0.0
C883 C 0.31484 0.33914 0.54704 0.0
H884 H 0.35503 0.4127 0.42074 0.0
H885 H 0.33947 0.33553 0.37615 0.0
H886 H 0.35343 0.4011 0.53316 0.0
H887 H 0.38757 0.41428 0.51682 0.0
H888 H 0.36784 0.42742 0.49275 0.0
H889 H 0.33769 0.30273 0.42367 0.0
H890 H 0.36547 0.31813 0.4613 0.0
H891 H 0.3321 0.30624 0.48078 0.0
H892 H 0.41588 0.36115 0.5825 0.0
H893 H 0.33516 0.33435 0.62394 0.0
H894 H 0.41446 0.39331 0.4877 0.0
H895 H 0.40581 0.3604 0.46973 0.0
H896 H 0.43099 0.37668 0.51152 0.0
H897 H 0.31431 0.35765 0.53888 0.0
H898 H 0.30136 0.32931 0.5754 0.0
H899 H 0.30685 0.32558 0.51833 0.0
C900 C 0.00571 0.64529 0.89964 0.0
C901 C 0.9842 0.62049 0.88617 0.0
C902 C 0.01464 0.64961 0.94313 0.0
C903 C 1.00177 0.62864 0.97399 0.0
C904 C 0.97977 0.6037 0.96084 0.0
C905 C 0.97122 0.59992 0.91707 0.0
C906 C 0.03808 0.67652 0.95594 0.0
C907 C 0.9655 0.58089 0.99291 0.0
C908 C 0.03986 0.63033 0.07673 0.0
C909 C 0.02866 0.63974 0.10795 0.0
C910 C 0.0314 0.62676 0.03291 0.0
C911 C 0.01134 0.63281 0.02005 0.0
C912 C 1.00033 0.64278 0.05123 0.0
C913 C 0.00912 0.64612 0.09476 0.0
C914 C 0.04364 0.61615 1.00049 0.0
C915 C 0.97902 0.6496 0.03874 0.0
H916 H 0.01586 0.66134 0.87605 0.0
H917 H 0.95461 0.5807 0.90697 0.0
H918 H 0.0321 0.68546 0.98276 0.0
H919 H 0.05476 0.67393 0.96844 0.0
H920 H 0.04565 0.69086 0.92812 0.0
H921 H 0.94852 0.56288 0.97763 0.0
H922 H 0.97984 0.5752 0.00657 0.0
H923 H 0.95766 0.58735 0.02072 0.0
H924 H 0.05494 0.62533 0.08662 0.0
H925 H 1.00037 0.65348 0.1186 0.0
H926 H 0.05274 0.63043 0.9729 0.0
H927 H 0.02778 0.59688 0.98659 0.0
H928 H 0.05933 0.61282 0.01556 0.0
H929 H 0.98651 0.66476 0.01217 0.0
H930 H 0.97284 0.65757 0.06678 0.0
H931 H 0.96104 0.63146 0.02603 0.0
C932 C 0.37286 0.01125 0.40961 0.0
C933 C 0.37617 0.98988 0.39531 0.0
C934 C 0.37672 0.01927 0.45361 0.0
C935 C 0.38414 0.00567 0.48421 0.0
C936 C 0.38751 0.98407 0.47007 0.0
C937 C 0.38344 0.9764 0.42581 0.0
C938 C 0.37277 0.04228 0.46739 0.0
C939 C 0.39542 0.96907 0.50172 0.0
C940 C 0.41643 0.04102 0.59123 0.0
C941 C 0.3947 0.02892 0.62033 0.0
C942 C 0.41332 0.03361 0.54685 0.0
C943 C 0.38786 0.01373 0.53117 0.0
C944 C 0.36582 1.00165 0.5603 0.0
C945 C 0.3695 0.00936 0.60444 0.0
C946 C 0.43731 0.04693 0.51678 0.0
C947 C 0.33831 0.98049 0.54486 0.0
H948 H 0.36721 0.0218 0.38636 0.0
H949 H 0.38608 0.9599 0.41511 0.0
H950 H 0.35675 0.03536 0.49252 0.0
H951 H 0.39146 0.05841 0.48244 0.0
H952 H 0.3672 0.05091 0.43951 0.0
H953 H 0.39756 0.95297 0.48546 0.0
H954 H 0.41475 0.98319 0.51769 0.0
H955 H 0.38012 0.95992 0.52793 0.0
H956 H 0.43597 0.05609 0.60317 0.0
H957 H 0.35254 0.99991 0.62658 0.0
H958 H 0.43311 0.05702 0.48949 0.0
H959 H 0.44124 0.03159 0.50212 0.0
H960 H 0.45572 0.06202 0.53403 0.0
H961 H 0.33129 0.98872 0.51843 0.0
H962 H 0.32324 0.97311 0.57164 0.0
H963 H 0.33929 0.96318 0.53097 0.0
C964 C 0.41185 0.37895 0.91891 0.0
C965 C 0.39081 0.37044 0.88862 0.0
C966 C 0.40816 0.38325 0.96305 0.0
C967 C 0.38283 0.3789 0.97728 0.0
C968 C 0.36151 0.37019 0.94691 0.0
C969 C 0.36574 0.36607 0.90306 0.0
C970 C 0.43138 0.39248 0.99448 0.0
C971 C 0.33417 0.36523 0.96072 0.0
C972 C 0.36484 0.36529 0.09785 0.0
C973 C 0.36936 0.39031 0.11276 0.0
C974 C 0.36926 0.36137 0.05399 0.0
C975 C 0.37841 0.38297 0.02409 0.0
C976 C 0.38288 0.40825 0.03878 0.0
C977 C 0.37829 0.41162 0.08293 0.0
C978 C 0.36416 0.33409 0.03967 0.0
C979 C 0.39258 0.43175 0.00787 0.0
H980 H 0.43128 0.38242 0.90811 0.0
H981 H 0.34931 0.35948 0.88001 0.0
H982 H 0.4359 0.41183 0.00958 0.0
H983 H 0.42594 0.37769 0.02135 0.0
H984 H 0.44983 0.39511 0.97824 0.0
H985 H 0.31976 0.35871 0.93301 0.0
H986 H 0.32579 0.34955 0.98646 0.0
H987 H 0.33594 0.38377 0.975 0.0
H988 H 0.35794 0.34866 0.12054 0.0
H989 H 0.38189 0.43102 0.09409 0.0
H990 H 0.38276 0.33579 0.02574 0.0
H991 H 0.34871 0.32606 0.01353 0.0
H992 H 0.35726 0.31943 0.06704 0.0
H993 H 0.41203 0.43624 0.99316 0.0
H994 H 0.39522 0.45011 0.02442 0.0
H995 H 0.37805 0.42667 0.98066 0.0
C996 C 0.99959 0.36027 0.5941 0.0
C997 C 0.97971 0.36624 0.60698 0.0
C998 C 0.00852 0.3637 0.55064 0.0
C999 C 0.99731 0.37332 0.51922 0.0
C1000 C 0.97695 0.379 0.53179 0.0
C1001 C 0.96836 0.37536 0.57554 0.0
C1002 C 0.03017 0.35729 0.53847 0.0
C1003 C 0.96447 0.38922 0.49911 0.0
C1004 C 0.03708 0.40619 0.41594 0.0
C1005 C 0.02428 0.38547 0.38525 0.0
C1006 C 0.02862 0.40247 0.45976 0.0
C1007 C 0.00689 0.37742 0.47317 0.0
C1008 C 0.99423 0.35628 0.44254 0.0
C1009 C 1.00307 0.36055 0.399 0.0
C1010 C 0.04266 0.42545 0.49158 0.0
C1011 C 0.97109 0.32924 0.45563 0.0
H1012 H 0.00847 0.35316 0.6181 0.0
H1013 H 0.95302 0.38004 0.58518 0.0
H1014 H 0.02289 0.342 0.51212 0.0
H1015 H 0.04797 0.37554 0.52557 0.0
H1016 H 0.03658 0.34967 0.56671 0.0
H1017 H 0.94864 0.39239 0.514 0.0
H1018 H 0.98017 0.40851 0.48501 0.0
H1019 H 0.9555 0.37479 0.47169 0.0
H1020 H 0.05345 0.4255 0.40561 0.0
H1021 H 0.99306 0.34437 0.37559 0.0
H1022 H 0.05063 0.41928 0.51957 0.0
H1023 H 0.02813 0.43097 0.50499 0.0
H1024 H 0.05951 0.4435 0.47615 0.0
H1025 H 0.97728 0.32064 0.48266 0.0
H1026 H 0.96371 0.31476 0.428 0.0
H1027 H 0.9542 0.33156 0.46792 0.0
C1028 C 0.66897 0.02222 0.92763 0.0
C1029 C 0.64828 0.01719 0.89837 0.0
C1030 C 0.66316 0.01245 0.97065 0.0
C1031 C 0.63611 0.99838 0.98496 0.0
C1032 C 0.61519 0.99365 0.95548 0.0
C1033 C 0.62153 0.00263 0.91216 0.0
C1034 C 0.68593 0.01706 1.00069 0.0
C1035 C 0.58621 0.97972 0.96996 0.0
C1036 C 0.61683 0.9551 0.08728 0.0
C1037 C 0.61853 0.97333 0.11913 0.0
C1038 C 0.62296 0.96309 0.04339 0.0
C1039 C 0.62977 0.98953 0.0312 0.0
C1040 C 0.63067 0.00769 0.06331 0.0
C1041 C 0.62559 0.99951 0.10709 0.0
C1042 C 0.62276 0.94351 0.01032 0.0
C1043 C 0.63681 0.03569 0.05142 0.0
H1044 H 0.68963 0.03326 0.91654 0.0
H1045 H 0.60561 0.99893 0.88931 0.0
H1046 H 0.68729 0.03022 0.02823 0.0
H1047 H 0.6821 0.99772 0.01495 0.0
H1048 H 0.70558 0.02653 0.9835 0.0
H1049 H 0.57242 0.97806 0.94313 0.0
H1050 H 0.58003 0.95927 0.98209 0.0
H1051 H 0.58382 0.99094 0.99749 0.0
H1052 H 0.61156 0.93491 0.09695 0.0
H1053 H 0.62667 0.01348 0.13195 0.0
H1054 H 0.64274 0.95217 0.99443 0.0
H1055 H 0.60792 0.9398 0.9842 0.0
H1056 H 0.61779 0.92398 0.02537 0.0
H1057 H 0.65747 0.04733 0.03813 0.0
H1058 H 0.63509 0.04671 0.07993 0.0
H1059 H 0.62287 0.03476 0.02548 0.0
C1060 C 0.61368 0.62196 0.40956 0.0
C1061 C 0.62515 0.64855 0.39527 0.0
C1062 C 0.6169 0.61607 0.45289 0.0
C1063 C 0.63298 0.63732 0.48189 0.0
C1064 C 0.64504 0.66425 0.4672 0.0
C1065 C 0.64049 0.66957 0.42416 0.0
C1066 C 0.60283 0.58717 0.46775 0.0
C1067 C 0.66307 0.68739 0.49667 0.0
C1068 C 0.62369 0.62641 0.60446 0.0
C1069 C 0.64348 0.61993 0.61493 0.0
C1070 C 0.6197 0.63156 0.56113 0.0
C1071 C 0.63671 0.63136 0.52785 0.0
C1072 C 0.65709 0.62526 0.53849 0.0
C1073 C 0.65984 0.61902 0.58194 0.0
C1074 C 0.59706 0.63688 0.55091 0.0
C1075 C 0.67623 0.62581 0.50418 0.0
H1076 H 0.60178 0.60578 0.38693 0.0
H1077 H 0.64962 0.69011 0.41263 0.0
H1078 H 0.61779 0.58149 0.47819 0.0
H1079 H 0.58995 0.58459 0.49648 0.0
H1080 H 0.59013 0.57314 0.4416 0.0
H1081 H 0.67204 0.70701 0.47949 0.0
H1082 H 0.65156 0.68809 0.52523 0.0
H1083 H 0.67952 0.6845 0.50948 0.0
H1084 H 0.61094 0.62689 0.63018 0.0
H1085 H 0.67527 0.61419 0.59037 0.0
H1086 H 0.58369 0.62254 0.5257 0.0
H1087 H 0.60521 0.65735 0.53728 0.0
H1088 H 0.58487 0.63502 0.58028 0.0
H1089 H 0.66502 0.61058 0.47863 0.0
H1090 H 0.69173 0.62182 0.5182 0.0
H1091 H 0.68644 0.64569 0.48781 0.0
C1092 C 0.05447 0.57201 0.28923 0.0
C1093 C 0.0396 0.57985 0.26279 0.0
C1094 C 0.05287 0.54704 0.28353 0.0
C1095 C 0.03594 0.52934 0.25065 0.0
C1096 C 0.02015 0.53667 0.22486 0.0
C1097 C 0.02214 0.56181 0.23125 0.0
C1098 C 0.06997 0.53996 0.31186 0.0
C1099 C 1.00183 0.51834 0.18953 0.0
C1100 C 0.05574 0.47972 0.20719 0.0
C1101 C 0.03863 0.45636 0.23078 0.0
C1102 C 0.05457 0.50337 0.21253 0.0
C1103 C 0.0358 0.50375 0.24208 0.0
C1104 C 0.01788 0.48005 0.26491 0.0
C1105 C 0.01949 0.45666 0.25899 0.0
C1106 C 0.07401 0.5282 0.18746 0.0
C1107 C 0.99754 0.47961 0.29664 0.0
H1108 H 0.06789 0.58565 0.31389 0.0
H1109 H 0.01058 0.56762 0.21058 0.0
H1110 H 0.05725 0.52037 0.3282 0.0
H1111 H 0.08469 0.53788 0.29122 0.0
H1112 H 0.08111 0.55537 0.33732 0.0
H1113 H 0.98957 0.52618 0.1743 0.0
H1114 H 0.01396 0.5159 0.16362 0.0
H1115 H 0.98814 0.49812 0.20313 0.0
H1116 H 0.07049 0.47975 0.18507 0.0
H1117 H 0.00612 0.43877 0.27737 0.0
H1118 H 0.08752 0.54408 0.21064 0.0
H1119 H 0.06293 0.53617 0.16887 0.0
H1120 H 0.08651 0.52426 0.16423 0.0
H1121 H 0.00808 0.49317 0.32455 0.0
H1122 H 0.98389 0.45918 0.30963 0.0
H1123 H 0.98529 0.48715 0.28055 0.0
C1124 C 0.46066 0.02253 0.74476 0.0
C1125 C 0.46057 0.04112 0.77442 0.0
C1126 C 0.4839 0.02065 0.73824 0.0
C1127 C 0.50751 0.03757 0.76222 0.0
C1128 C 0.50725 0.05573 0.79319 0.0
C1129 C 0.48388 0.05735 0.79879 0.0
C1130 C 0.48342 1.00113 0.70477 0.0
C1131 C 0.53188 0.07393 0.81981 0.0
C1132 C 0.56325 0.02068 0.7744 0.0
C1133 C 0.58266 0.03873 0.74499 0.0
C1134 C 0.53845 0.01961 0.77954 0.0
C1135 C 0.53276 0.03685 0.75448 0.0
C1136 C 0.55188 0.05453 0.72377 0.0
C1137 C 0.57661 0.05532 0.71948 0.0
C1138 C 0.5187 1.0006 0.81283 0.0
C1139 C 0.54649 0.0731 0.69618 0.0
H1140 H 0.44286 0.01004 0.72553 0.0
H1141 H 0.48405 0.07171 0.82192 0.0
H1142 H 0.49787 0.01229 0.67817 0.0
H1143 H 0.48984 0.98771 0.71994 0.0
H1144 H 0.4632 0.9886 0.69015 0.0
H1145 H 0.52807 0.08618 0.84374 0.0
H1146 H 0.53895 0.06187 0.83783 0.0
H1147 H 0.54839 0.08768 0.79776 0.0
H1148 H 0.56761 0.00773 0.7943 0.0
H1149 H 0.59134 0.06923 0.69648 0.0
H1150 H 0.49885 0.98776 0.79735 0.0
H1151 H 0.51581 0.01224 0.8391 0.0
H1152 H 0.52552 0.98748 0.82799 0.0
H1153 H 0.52718 0.06151 0.67848 0.0
H1154 H 0.56268 0.08442 0.67193 0.0
H1155 H 0.54466 0.0877 0.71754 0.0
C1156 C 0.52224 0.57286 0.21136 0.0
C1157 C 0.5449 0.57993 0.23748 0.0
C1158 C 0.49885 0.54772 0.21574 0.0
C1159 C 0.49802 0.52914 0.24702 0.0
C1160 C 0.5211 0.53576 0.2724 0.0
C1161 C 0.54425 0.56101 0.26728 0.0
C1162 C 0.47471 0.54139 0.18787 0.0
C1163 C 0.52103 0.51656 0.30616 0.0
C1164 C 0.42897 0.47993 0.29169 0.0
C1165 C 0.42212 0.45659 0.26759 0.0
C1166 C 0.45382 0.50339 0.28602 0.0
C1167 C 0.4724 0.50368 0.25534 0.0
C1168 C 0.46604 0.47999 0.23186 0.0
C1169 C 0.44101 0.45669 0.23836 0.0
C1170 C 0.45987 0.52811 0.31204 0.0
C1171 C 0.48531 0.47954 0.19881 0.0
H1172 H 0.52253 0.58717 0.18799 0.0
H1173 H 0.56162 0.56613 0.28757 0.0
H1174 H 0.46743 0.52192 0.17087 0.0
H1175 H 0.45812 0.53942 0.20897 0.0
H1176 H 0.47918 0.55717 0.16301 0.0
H1177 H 0.54118 0.52386 0.32089 0.0
H1178 H 0.50669 0.51379 0.33268 0.0
H1179 H 0.51419 0.49659 0.29129 0.0
H1180 H 0.41464 0.4801 0.31454 0.0
H1181 H 0.43589 0.43884 0.21938 0.0
H1182 H 0.46225 0.5443 0.28957 0.0
H1183 H 0.47908 0.53564 0.33 0.0
H1184 H 0.44378 0.52423 0.33597 0.0
H1185 H 0.48807 0.49337 0.17146 0.0
H1186 H 0.47809 0.45915 0.18519 0.0
H1187 H 0.50529 0.48673 0.21395 0.0
C1188 C 0.95106 0.52556 0.70849 0.0
C1189 C 0.96843 0.54893 0.73182 0.0
C1190 C 0.95222 0.5019 0.71347 0.0
C1191 C 0.97127 0.50152 0.74239 0.0
C1192 C 0.98944 0.52522 0.76498 0.0
C1193 C 0.98782 0.54862 0.75942 0.0
C1194 C 0.93253 0.47706 0.68866 0.0
C1195 C 0.01005 0.52563 0.79606 0.0
C1196 C 0.95308 0.43328 0.78908 0.0
C1197 C 0.96775 0.42548 0.7621 0.0
C1198 C 0.95459 0.45823 0.78369 0.0
C1199 C 0.97121 0.47593 0.75054 0.0
C1200 C 0.98678 0.46861 0.72417 0.0
C1201 C 0.9849 0.4435 0.73029 0.0
C1202 C 0.93775 0.4653 0.81267 0.0
C1203 C 0.00475 0.48694 0.6885 0.0
H1204 H 0.93612 0.52554 0.68684 0.0
H1205 H 1.0014 0.56652 0.77758 0.0
H1206 H 0.94342 0.46908 0.66957 0.0
H1207 H 0.91925 0.46119 0.71204 0.0
H1208 H 0.91981 0.481 0.66593 0.0
H1209 H 0.02381 0.54606 0.80899 0.0
H1210 H 0.99977 0.51204 0.82404 0.0
H1211 H 0.02218 0.51814 0.77943 0.0
H1212 H 0.93988 0.41963 0.81394 0.0
H1213 H 0.99629 0.4377 0.70918 0.0
H1214 H 0.92283 0.46737 0.79253 0.0
H1215 H 0.9506 0.4849 0.8289 0.0
H1216 H 0.92685 0.4499 0.83824 0.0
H1217 H 0.99236 0.48938 0.66307 0.0
H1218 H 0.01684 0.47908 0.67271 0.0
H1219 H 0.01858 0.50716 0.70197 0.0
C1220 C 0.42954 0.94993 0.21749 0.0
C1221 C 0.42453 0.96787 0.24125 0.0
C1222 C 0.45363 0.94959 0.22263 0.0
C1223 C 0.4732 0.96746 0.25256 0.0
C1224 C 0.46859 0.98606 0.27591 0.0
C1225 C 0.44438 0.98614 0.2698 0.0
C1226 C 0.45788 0.92968 0.19667 0.0
C1227 C 0.48887 0.00531 0.30834 0.0
C1228 C 0.52145 0.94582 0.2964 0.0
C1229 C 0.54431 0.96096 0.27046 0.0
C1230 C 0.49845 0.94827 0.29169 0.0
C1231 C 0.49815 0.96613 0.26008 0.0
C1232 C 0.52129 0.98183 0.23438 0.0
C1233 C 0.54409 0.97914 0.23999 0.0
C1234 C 0.47425 0.93133 0.32001 0.0
C1235 C 0.52173 1.00094 0.20008 0.0
H1236 H 0.41441 0.93578 0.19521 0.0
H1237 H 0.44065 0.99994 0.28857 0.0
H1238 H 0.47695 0.94026 0.17805 0.0
H1239 H 0.45955 0.91547 0.21922 0.0
H1240 H 0.44122 0.91796 0.17335 0.0
H1241 H 0.48276 0.0192 0.32261 0.0
H1242 H 0.49146 0.99387 0.33529 0.0
H1243 H 0.50871 0.01734 0.29235 0.0
H1244 H 0.52139 0.93181 0.32017 0.0
H1245 H 0.56157 0.99094 0.21968 0.0
H1246 H 0.45713 0.91727 0.29923 0.0
H1247 H 0.46802 0.94428 0.33738 0.0
H1248 H 0.47817 0.91947 0.34459 0.0
H1249 H 0.50648 0.98955 0.17459 0.0
H1250 H 0.54166 0.01253 0.18407 0.0
H1251 H 0.51639 0.01524 0.21495 0.0
C1252 C 0.56414 0.54414 0.73663 0.0
C1253 C 0.58294 0.54411 0.76598 0.0
C1254 C 0.53875 0.52126 0.73091 0.0
C1255 C 0.53184 0.49776 0.75528 0.0
C1256 C 0.55034 0.49786 0.78602 0.0
C1257 C 0.57565 0.52097 0.79091 0.0
C1258 C 0.51969 0.52193 0.69764 0.0
C1259 C 0.54369 0.47328 0.81289 0.0
C1260 C 0.459 0.44154 0.76399 0.0
C1261 C 0.45844 0.4227 0.73419 0.0
C1262 C 0.48258 0.46633 0.77063 0.0
C1263 C 0.50607 0.47251 0.74665 0.0
C1264 C 0.50528 0.45401 0.71532 0.0
C1265 C 0.48157 0.42937 0.70959 0.0
C1266 C 0.48265 0.48548 0.80445 0.0
C1267 C 0.52976 0.45988 0.6887 0.0
H1268 H 0.56948 0.56187 0.71716 0.0
H1269 H 0.58988 0.52071 0.81388 0.0
H1270 H 0.51654 0.50774 0.67067 0.0
H1271 H 0.49982 0.51533 0.71278 0.0
H1272 H 0.52732 0.54226 0.68348 0.0
H1273 H 0.5595 0.47716 0.83738 0.0
H1274 H 0.52434 0.46613 0.83024 0.0
H1275 H 0.5413 0.45682 0.79104 0.0
H1276 H 0.44132 0.43654 0.78337 0.0
H1277 H 0.48137 0.41507 0.68629 0.0
H1278 H 0.49013 0.50565 0.78989 0.0
H1279 H 0.49649 0.48771 0.83149 0.0
H1280 H 0.46237 0.47848 0.81838 0.0
H1281 H 0.53759 0.47936 0.67147 0.0
H1282 H 0.52545 0.44401 0.6641 0.0
H1283 H 0.54591 0.46161 0.71068 0.0
C1284 C 0.12641 0.3545 0.2553 0.0
C1285 C 0.12712 0.37262 0.22385 0.0
C1286 C 0.14961 0.35322 0.26568 0.0
C1287 C 0.17398 0.36996 0.24331 0.0
C1288 C 0.17443 0.38739 0.2101 0.0
C1289 C 0.15115 0.38877 0.20123 0.0
C1290 C 0.14835 0.33484 0.30199 0.0
C1291 C 0.19973 0.40513 0.18466 0.0
C1292 C 0.242 0.392 0.29569 0.0
C1293 C 0.24962 0.37485 0.27577 0.0
C1294 C 0.21701 0.38984 0.28678 0.0
C1295 C 0.19939 0.37054 0.2562 0.0
C1296 C 0.20677 0.35283 0.23656 0.0
C1297 C 0.23164 0.35497 0.24699 0.0
C1298 C 0.20975 0.40871 0.30935 0.0
C1299 C 0.18893 0.33239 0.20307 0.0
H1300 H 0.108 0.34218 0.27329 0.0
H1301 H 0.15183 0.40276 0.17679 0.0
H1302 H 0.15605 0.32166 0.29043 0.0
H1303 H 0.16141 0.34699 0.32942 0.0
H1304 H 0.12763 0.32206 0.31461 0.0
H1305 H 0.19617 0.41572 0.15735 0.0
H1306 H 0.21508 0.42036 0.20677 0.0
H1307 H 0.2082 0.39304 0.17108 0.0
H1308 H 0.25577 0.40736 0.31806 0.0
H1309 H 0.23753 0.34186 0.23107 0.0
H1310 H 0.18964 0.39721 0.32473 0.0
H1311 H 0.20871 0.42245 0.28498 0.0
H1312 H 0.22457 0.42099 0.33491 0.0
H1313 H 0.16845 0.31966 0.21648 0.0
H1314 H 0.19688 0.31923 0.19239 0.0
H1315 H 0.18704 0.34287 0.17395 0.0
C1316 C 0.84703 0.25156 0.76365 0.0
C1317 C 0.87259 0.25428 0.76833 0.0
C1318 C 0.82459 0.22697 0.75194 0.0
C1319 C 0.82755 0.20427 0.74472 0.0
C1320 C 0.85318 0.20669 0.74989 0.0
C1321 C 0.87541 0.23166 0.76158 0.0
C1322 C 0.7977 0.22539 0.74685 0.0
C1323 C 0.85716 0.18295 0.74266 0.0
C1324 C 0.76183 0.13792 0.75168 0.0
C1325 C 0.75388 0.13298 0.70761 0.0
C1326 C 0.78643 0.16024 0.76405 0.0
C1327 C 0.80363 0.17819 0.73165 0.0
C1328 C 0.79642 0.17253 0.68696 0.0
C1329 C 0.77169 0.15001 0.67548 0.0
C1330 C 0.7933 0.16537 0.81205 0.0
C1331 C 0.81415 0.19109 0.65133 0.0
H1332 H 0.84449 0.26881 0.76866 0.0
H1333 H 0.89503 0.23351 0.76495 0.0
H1334 H 0.79016 0.21924 0.713 0.0
H1335 H 0.78281 0.20995 0.76924 0.0
H1336 H 0.79872 0.24483 0.7539 0.0
H1337 H 0.87819 0.18792 0.74886 0.0
H1338 H 0.84363 0.16617 0.76447 0.0
H1339 H 0.85178 0.17569 0.70852 0.0
H1340 H 0.74839 0.12485 0.77685 0.0
H1341 H 0.76585 0.14644 0.64135 0.0
H1342 H 0.79227 0.1833 0.82257 0.0
H1343 H 0.81411 0.16965 0.81797 0.0
H1344 H 0.77936 0.14811 0.83276 0.0
H1345 H 0.81427 0.21041 0.65329 0.0
H1346 H 0.8072 0.18248 0.61818 0.0
H1347 H 0.83515 0.19559 0.65573 0.0
C1348 C 0.61205 0.75973 0.20784 0.0
C1349 C 0.62874 0.75192 0.22889 0.0
C1350 C 0.61375 0.78447 0.2172 0.0
C1351 C 0.63209 0.80159 0.24934 0.0
C1352 C 0.64936 0.79403 0.27012 0.0
C1353 C 0.64771 0.76945 0.25925 0.0
C1354 C 0.59541 0.79196 0.19343 0.0
C1355 C 0.66875 0.81133 0.30525 0.0
C1356 C 0.64745 0.87429 0.25279 0.0
C1357 C 0.62835 0.87275 0.28297 0.0
C1358 C 0.64926 0.85143 0.242 0.0
C1359 C 0.63202 0.82659 0.26271 0.0
C1360 C 0.61356 0.82529 0.2947 0.0
C1361 C 0.61169 0.84824 0.30396 0.0
C1362 C 0.66875 0.8536 0.20699 0.0
C1363 C 0.59525 0.79944 0.31839 0.0
H1364 H 0.59739 0.74632 0.18424 0.0
H1365 H 0.66046 0.7634 0.27602 0.0
H1366 H 0.58086 0.79238 0.21679 0.0
H1367 H 0.60721 0.81237 0.17922 0.0
H1368 H 0.58399 0.77762 0.16677 0.0
H1369 H 0.68175 0.80335 0.31669 0.0
H1370 H 0.68171 0.83207 0.29304 0.0
H1371 H 0.65738 0.81255 0.33364 0.0
H1372 H 0.66016 0.89308 0.23605 0.0
H1373 H 0.59693 0.84694 0.3274 0.0
H1374 H 0.65747 0.84107 0.1785 0.0
H1375 H 0.68172 0.84582 0.21925 0.0
H1376 H 0.68175 0.87458 0.19568 0.0
H1377 H 0.58077 0.78449 0.29496 0.0
H1378 H 0.58377 0.80232 0.345 0.0
H1379 H 0.60709 0.79086 0.33263 0.0
C1380 C 0.8562 0.6169 0.70345 0.0
C1381 C 0.87954 0.63233 0.72813 0.0
C1382 C 0.83255 0.61773 0.71169 0.0
C1383 C 0.83193 0.63384 0.74626 0.0
C1384 C 0.85561 0.64988 0.77072 0.0
C1385 C 0.8792 0.64918 0.76103 0.0
C1386 C 0.808 0.60078 0.6841 0.0
C1387 C 0.85571 0.66685 0.80846 0.0
C1388 C 0.77395 0.64837 0.74998 0.0
C1389 C 0.75547 0.62762 0.77701 0.0
C1390 C 0.79904 0.65087 0.74002 0.0
C1391 C 0.80608 0.63258 0.75833 0.0
C1392 C 0.78788 0.61226 0.78702 0.0
C1393 C 0.76273 0.60983 0.79554 0.0
C1394 C 0.81756 0.67245 0.70859 0.0
C1395 C 0.79474 0.5927 0.8081 0.0
H1396 H 0.85632 0.60389 0.67791 0.0
H1397 H 0.89705 0.66093 0.78059 0.0
H1398 H 0.79217 0.58473 0.70449 0.0
H1399 H 0.79973 0.61321 0.67122 0.0
H1400 H 0.81241 0.59127 0.65612 0.0
H1401 H 0.87605 0.67925 0.82277 0.0
H1402 H 0.84819 0.68032 0.79769 0.0
H1403 H 0.84197 0.65368 0.83444 0.0
H1404 H 0.76838 0.66202 0.73516 0.0
H1405 H 0.7486 0.5938 0.81659 0.0
H1406 H 0.8204 0.66304 0.67891 0.0
H1407 H 0.83762 0.68493 0.72363 0.0
H1408 H 0.80964 0.68574 0.69849 0.0
H1409 H 0.79667 0.58004 0.78261 0.0
H1410 H 0.77927 0.57934 0.83203 0.0
H1411 H 0.81437 0.60371 0.82513 0.0
C1412 C 0.24471 0.8681 0.25524 0.0
C1413 C 0.25284 0.87273 0.21123 0.0
C1414 C 0.22013 0.84577 0.26766 0.0
C1415 C 0.20316 0.82749 0.23539 0.0
C1416 C 0.21053 0.83287 0.19072 0.0
C1417 C 0.23522 0.85541 0.17918 0.0
C1418 C 0.21307 0.84095 0.31562 0.0
C1419 C 0.19305 0.81396 0.15521 0.0
C1420 C 0.16019 0.75416 0.26794 0.0
C1421 C 0.13446 0.75113 0.2717 0.0
C1422 C 0.18256 0.77887 0.25651 0.0
C1423 C 0.17935 0.80137 0.24861 0.0
C1424 C 0.15355 0.79865 0.25297 0.0
C1425 C 0.1314 0.77357 0.26441 0.0
C1426 C 0.20965 0.78078 0.25232 0.0
C1427 C 0.1493 0.82215 0.245 0.0
H1428 H 0.25803 0.88139 0.28034 0.0
H1429 H 0.2412 0.85875 0.1451 0.0
H1430 H 0.19213 0.83638 0.32107 0.0
H1431 H 0.21437 0.82329 0.32684 0.0
H1432 H 0.22673 0.85847 0.3361 0.0
H1433 H 0.20008 0.82237 0.12198 0.0
H1434 H 0.19314 0.79477 0.1578 0.0
H1435 H 0.17197 0.80928 0.15918 0.0
H1436 H 0.16291 0.73706 0.27343 0.0
H1437 H 0.11165 0.77147 0.26707 0.0
H1438 H 0.22429 0.79648 0.27464 0.0
H1439 H 0.21736 0.78674 0.2185 0.0
H1440 H 0.20883 0.76151 0.26004 0.0
H1441 H 0.1627 0.83916 0.26652 0.0
H1442 H 0.12821 0.81702 0.25099 0.0
H1443 H 0.15465 0.82916 0.21073 0.0
C1444 C 0.35691 0.23298 0.75963 0.0
C1445 C 0.37563 0.2503 0.7288 0.0
C1446 C 0.35534 0.20846 0.77072 0.0
C1447 C 0.37241 0.20075 0.74965 0.0
C1448 C 0.3904 0.2176 0.71692 0.0
C1449 C 0.39206 0.2423 0.70738 0.0
C1450 C 0.33635 0.19146 0.80649 0.0
C1451 C 0.4085 0.20994 0.69281 0.0
C1452 C 0.39412 0.15521 0.80458 0.0
C1453 C 0.37742 0.13043 0.78441 0.0
C1454 C 0.3918 0.17788 0.79505 0.0
C1455 C 0.37284 0.176 0.76356 0.0
C1456 C 0.35552 0.15087 0.74375 0.0
C1457 C 0.35779 0.1283 0.75483 0.0
C1458 C 0.41022 0.20405 0.81783 0.0
C1459 C 0.3355 0.14809 0.70928 0.0
H1460 H 0.34439 0.23919 0.77671 0.0
H1461 H 0.40652 0.25557 0.68343 0.0
H1462 H 0.32349 0.17052 0.79504 0.0
H1463 H 0.34807 0.1908 0.83484 0.0
H1464 H 0.32326 0.19935 0.81777 0.0
H1465 H 0.41944 0.22393 0.66552 0.0
H1466 H 0.42346 0.20997 0.71577 0.0
H1467 H 0.39661 0.18932 0.67942 0.0
H1468 H 0.4093 0.15696 0.82753 0.0
H1469 H 0.34505 0.10928 0.73871 0.0
H1470 H 0.39842 0.21267 0.83206 0.0
H1471 H 0.42439 0.21876 0.79382 0.0
H1472 H 0.42205 0.20159 0.84432 0.0
H1473 H 0.32266 0.156 0.72158 0.0
H1474 H 0.32241 0.12692 0.69891 0.0
H1475 H 0.34635 0.16017 0.68016 0.0
loop_
_geom_bond_atom_site_label_1
_geom_bond_atom_site_label_2
_geom_bond_distance
_geom_bond_site_symmetry_2
_ccdc_geom_bond_type
Co0 O2 2.143 . S
Co0 O8 2.074 . S
Co0 O11 2.093 1_455 S
Co0 O24 2.097 . S
Co0 N41 2.151 1_455 S
Co0 N49 2.214 1_455 S
Co1 O2 2.160 . S
Co1 O7 2.058 . S
Co1 O17 2.057 . S
Co1 O32 2.037 . S
Co1 N36 2.145 . S
Co1 N57 2.257 . S
O2 Co0 2.143 . S
O2 Co1 2.160 . S
C3 O4 1.278 . S
C3 O11 1.224 1_455 S
O4 C3 1.278 . S
C5 O6 1.245 . S
C5 O17 1.232 . S
O6 C5 1.245 . S
O7 Co1 2.058 . S
O7 C33 1.269 . S
O8 Co0 2.074 . S
O8 C33 1.257 . S
H9 C34 0.930 . S
H10 C40 0.930 1_455 S
O11 Co0 2.093 1_655 S
O11 C3 1.224 1_655 S
H12 C44 0.929 . S
H13 C46 0.930 . S
H14 C47 0.930 . S
H15 C45 0.929 . S
H16 C48 0.928 . S
O17 Co1 2.057 . S
O17 C5 1.232 . S
H18 C37 0.929 . S
H19 C38 0.929 . S
H20 C50 0.931 . S
H21 C42 0.929 . S
H22 C51 0.930 . S
H23 C43 0.931 . S
O24 Co0 2.097 . S
O24 C52 1.214 . S
H25 C53 0.929 . S
H26 C54 0.929 . S
H27 C55 0.930 . S
H28 C56 0.929 . S
H29 C58 0.930 . S
H30 C35 0.930 . S
H31 C39 0.930 . S
O32 Co1 2.037 . S
O32 C52 1.234 . S
C33 O7 1.269 . S
C33 O8 1.257 . S
C34 H9 0.930 . S
C34 C37 1.388 . S
C34 C39 1.418 . S
C35 H30 0.930 . S
C35 C38 1.404 . S
C35 C39 1.353 . S
N36 Co1 2.145 . S
N36 C37 1.397 . S
N36 C38 1.334 . S
C37 H18 0.929 . S
C37 C34 1.388 . S
C37 N36 1.397 . S
C38 H19 0.929 . S
C38 C35 1.404 . S
C38 N36 1.334 . S
C39 H31 0.930 . S
C39 C34 1.418 . S
C39 C35 1.353 . S
C40 H10 0.930 1_655 S
C40 N41 1.330 . S
C40 C42 1.446 . S
N41 Co0 2.151 1_655 S
N41 C40 1.330 . S
N41 C45 1.418 . S
C42 H21 0.929 . S
C42 C40 1.446 . S
C42 C43 1.332 . S
C43 H23 0.931 . S
C43 C42 1.332 . S
C43 C44 1.267 . S
C44 H12 0.929 . S
C44 C43 1.267 . S
C44 C45 1.251 . S
C45 H15 0.929 . S
C45 N41 1.418 . S
C45 C44 1.251 . S
C46 H13 0.930 . S
C46 C48 1.406 . S
C46 C51 1.261 . S
C47 H14 0.930 . S
C47 N49 1.325 . S
C47 C50 1.357 . S
C48 H16 0.928 . S
C48 C46 1.406 . S
C48 N49 1.261 . S
N49 Co0 2.214 1_655 S
N49 C47 1.325 . S
N49 C48 1.261 . S
C50 H20 0.931 . S
C50 C47 1.357 . S
C50 C51 1.312 . S
C51 H22 0.930 . S
C51 C46 1.261 . S
C51 C50 1.312 . S
C52 O24 1.214 . S
C52 O32 1.234 . S
C53 H25 0.929 . S
C53 C56 1.391 . S
C53 C58 1.391 . S
C54 H26 0.929 . S
C54 C55 1.390 . S
C54 N57 1.391 . S
C55 H27 0.930 . S
C55 C54 1.390 . S
C55 C56 1.392 . S
C56 H28 0.929 . S
C56 C53 1.391 . S
C56 C55 1.392 . S
N57 Co1 2.257 . S
N57 C54 1.391 . S
N57 C58 1.388 . S
C58 H29 0.930 . S
C58 C53 1.391 . S
C58 N57 1.388 . S
Co59 O61 2.143 . S
Co59 O67 2.074 . S
Co59 O70 2.093 1_545 S
Co59 O83 2.097 . S
Co59 N100 2.151 1_545 S
Co59 N108 2.214 1_545 S
Co60 O61 2.160 . S
Co60 O66 2.058 . S
Co60 O76 2.057 . S
Co60 O91 2.037 . S
Co60 N95 2.145 . S
Co60 N116 2.257 . S
O61 Co59 2.143 . S
O61 Co60 2.160 . S
C62 O63 1.278 . S
C62 O70 1.224 1_545 S
O63 C62 1.278 . S
C64 O65 1.245 . S
C64 O76 1.232 . S
O65 C64 1.245 . S
O66 Co60 2.058 . S
O66 C92 1.269 . S
O67 Co59 2.074 . S
O67 C92 1.257 . S
H68 C93 0.930 . S
H69 C99 0.930 1_545 S
O70 Co59 2.093 1_565 S
O70 C62 1.224 1_565 S
H71 C103 0.929 . S
H72 C105 0.930 . S
H73 C106 0.930 . S
H74 C104 0.929 . S
H75 C107 0.928 . S
O76 Co60 2.057 . S
O76 C64 1.232 . S
H77 C96 0.929 . S
H78 C97 0.929 . S
H79 C109 0.931 . S
H80 C101 0.929 . S
H81 C110 0.930 . S
H82 C102 0.931 . S
O83 Co59 2.097 . S
O83 C111 1.214 . S
H84 C112 0.929 . S
H85 C113 0.929 . S
H86 C114 0.930 . S
H87 C115 0.929 . S
H88 C117 0.930 . S
H89 C94 0.930 . S
H90 C98 0.930 . S
O91 Co60 2.037 . S
O91 C111 1.234 . S
C92 O66 1.269 . S
C92 O67 1.257 . S
C93 H68 0.930 . S
C93 C96 1.388 . S
C93 C98 1.418 . S
C94 H89 0.930 . S
C94 C97 1.404 . S
C94 C98 1.353 . S
N95 Co60 2.145 . S
N95 C96 1.397 . S
N95 C97 1.334 . S
C96 H77 0.929 . S
C96 C93 1.388 . S
C96 N95 1.397 . S
C97 H78 0.929 . S
C97 C94 1.404 . S
C97 N95 1.334 . S
C98 H90 0.930 . S
C98 C93 1.418 . S
C98 C94 1.353 . S
C99 H69 0.930 1_565 S
C99 N100 1.330 . S
C99 C101 1.446 . S
N100 Co59 2.151 1_565 S
N100 C99 1.330 . S
N100 C104 1.418 . S
C101 H80 0.929 . S
C101 C99 1.446 . S
C101 C102 1.332 . S
C102 H82 0.931 . S
C102 C101 1.332 . S
C102 C103 1.267 . S
C103 H71 0.929 . S
C103 C102 1.267 . S
C103 C104 1.251 . S
C104 H74 0.929 . S
C104 N100 1.418 . S
C104 C103 1.251 . S
C105 H72 0.930 . S
C105 C107 1.406 . S
C105 C110 1.261 . S
C106 H73 0.930 . S
C106 N108 1.325 . S
C106 C109 1.357 . S
C107 H75 0.928 . S
C107 C105 1.406 . S
C107 N108 1.261 . S
N108 Co59 2.214 1_565 S
N108 C106 1.325 . S
N108 C107 1.261 . S
C109 H79 0.931 . S
C109 C106 1.357 . S
C109 C110 1.312 . S
C110 H81 0.930 . S
C110 C105 1.261 . S
C110 C109 1.312 . S
C111 O83 1.214 . S
C111 O91 1.234 . S
C112 H84 0.929 . S
C112 C115 1.391 . S
C112 C117 1.391 . S
C113 H85 0.929 . S
C113 C114 1.390 . S
C113 N116 1.391 . S
C114 H86 0.930 . S
C114 C113 1.390 . S
C114 C115 1.392 . S
C115 H87 0.929 . S
C115 C112 1.391 . S
C115 C114 1.392 . S
N116 Co60 2.257 . S
N116 C113 1.391 . S
N116 C117 1.388 . S
C117 H88 0.930 . S
C117 C112 1.391 . S
C117 N116 1.388 . S
Co118 O120 2.143 . S
Co118 O126 2.074 . S
Co118 O129 2.093 . S
Co118 O142 2.097 . S
Co118 N159 2.151 . S
Co118 N167 2.214 . S
Co119 O120 2.160 . S
Co119 O125 2.058 . S
Co119 O135 2.057 . S
Co119 O150 2.037 . S
Co119 N154 2.145 . S
Co119 N175 2.257 . S
O120 Co118 2.143 . S
O120 Co119 2.160 . S
C121 O122 1.278 . S
C121 O129 1.224 . S
O122 C121 1.278 . S
C123 O124 1.245 . S
C123 O135 1.232 . S
O124 C123 1.245 . S
O125 Co119 2.058 . S
O125 C151 1.269 . S
O126 Co118 2.074 . S
O126 C151 1.257 . S
H127 C152 0.930 . S
H128 C158 0.930 . S
O129 Co118 2.093 . S
O129 C121 1.224 . S
H130 C162 0.929 . S
H131 C164 0.930 . S
H132 C165 0.930 . S
H133 C163 0.929 . S
H134 C166 0.928 . S
O135 Co119 2.057 . S
O135 C123 1.232 . S
H136 C155 0.929 . S
H137 C156 0.929 . S
H138 C168 0.931 . S
H139 C160 0.929 . S
H140 C169 0.930 . S
H141 C161 0.931 . S
O142 Co118 2.097 . S
O142 C170 1.214 . S
H143 C171 0.929 . S
H144 C172 0.929 . S
H145 C173 0.930 . S
H146 C174 0.929 . S
H147 C176 0.930 . S
H148 C153 0.930 . S
H149 C157 0.930 . S
O150 Co119 2.037 . S
O150 C170 1.234 . S
C151 O125 1.269 . S
C151 O126 1.257 . S
C152 H127 0.930 . S
C152 C155 1.388 . S
C152 C157 1.418 . S
C153 H148 0.930 . S
C153 C156 1.404 . S
C153 C157 1.353 . S
N154 Co119 2.145 . S
N154 C155 1.397 . S
N154 C156 1.334 . S
C155 H136 0.929 . S
C155 C152 1.388 . S
C155 N154 1.397 . S
C156 H137 0.929 . S
C156 C153 1.404 . S
C156 N154 1.334 . S
C157 H149 0.930 . S
C157 C152 1.418 . S
C157 C153 1.353 . S
C158 H128 0.930 . S
C158 N159 1.330 . S
C158 C160 1.446 . S
N159 Co118 2.151 . S
N159 C158 1.330 . S
N159 C163 1.418 . S
C160 H139 0.929 . S
C160 C158 1.446 . S
C160 C161 1.332 . S
C161 H141 0.931 . S
C161 C160 1.332 . S
C161 C162 1.267 . S
C162 H130 0.929 . S
C162 C161 1.267 . S
C162 C163 1.251 . S
C163 H133 0.929 . S
C163 N159 1.418 . S
C163 C162 1.251 . S
C164 H131 0.930 . S
C164 C166 1.406 . S
C164 C169 1.261 . S
C165 H132 0.930 . S
C165 N167 1.325 . S
C165 C168 1.357 . S
C166 H134 0.928 . S
C166 C164 1.406 . S
C166 N167 1.261 . S
N167 Co118 2.214 . S
N167 C165 1.325 . S
N167 C166 1.261 . S
C168 H138 0.931 . S
C168 C165 1.357 . S
C168 C169 1.312 . S
C169 H140 0.930 . S
C169 C164 1.261 . S
C169 C168 1.312 . S
C170 O142 1.214 . S
C170 O150 1.234 . S
C171 H143 0.929 . S
C171 C174 1.391 . S
C171 C176 1.391 . S
C172 H144 0.929 . S
C172 C173 1.390 . S
C172 N175 1.391 . S
C173 H145 0.930 . S
C173 C172 1.390 . S
C173 C174 1.392 . S
C174 H146 0.929 . S
C174 C171 1.391 . S
C174 C173 1.392 . S
N175 Co119 2.257 . S
N175 C172 1.391 . S
N175 C176 1.388 . S
C176 H147 0.930 . S
C176 C171 1.391 . S
C176 N175 1.388 . S
Co177 O179 2.143 . S
Co177 O185 2.074 . S
Co177 O188 2.093 1_655 S
Co177 O201 2.097 . S
Co177 N218 2.151 1_655 S
Co177 N226 2.214 1_655 S
Co178 O179 2.160 . S
Co178 O184 2.058 . S
Co178 O194 2.057 . S
Co178 O209 2.037 . S
Co178 N213 2.145 . S
Co178 N234 2.257 . S
O179 Co177 2.143 . S
O179 Co178 2.160 . S
C180 O181 1.278 . S
C180 O188 1.224 1_655 S
O181 C180 1.278 . S
C182 O183 1.245 . S
C182 O194 1.232 . S
O183 C182 1.245 . S
O184 Co178 2.058 . S
O184 C210 1.269 . S
O185 Co177 2.074 . S
O185 C210 1.257 . S
H186 C211 0.930 . S
H187 C217 0.930 1_655 S
O188 Co177 2.093 1_455 S
O188 C180 1.224 1_455 S
H189 C221 0.929 . S
H190 C223 0.930 . S
H191 C224 0.930 . S
H192 C222 0.929 . S
H193 C225 0.928 . S
O194 Co178 2.057 . S
O194 C182 1.232 . S
H195 C214 0.929 . S
H196 C215 0.929 . S
H197 C227 0.931 . S
H198 C219 0.929 . S
H199 C228 0.930 . S
H200 C220 0.931 . S
O201 Co177 2.097 . S
O201 C229 1.214 . S
H202 C230 0.929 . S
H203 C231 0.929 . S
H204 C232 0.930 . S
H205 C233 0.929 . S
H206 C235 0.930 . S
H207 C212 0.930 . S
H208 C216 0.930 . S
O209 Co178 2.037 . S
O209 C229 1.234 . S
C210 O184 1.269 . S
C210 O185 1.257 . S
C211 H186 0.930 . S
C211 C214 1.388 . S
C211 C216 1.418 . S
C212 H207 0.930 . S
C212 C215 1.404 . S
C212 C216 1.353 . S
N213 Co178 2.145 . S
N213 C214 1.397 . S
N213 C215 1.334 . S
C214 H195 0.929 . S
C214 C211 1.388 . S
C214 N213 1.397 . S
C215 H196 0.929 . S
C215 C212 1.404 . S
C215 N213 1.334 . S
C216 H208 0.930 . S
C216 C211 1.418 . S
C216 C212 1.353 . S
C217 H187 0.930 1_455 S
C217 N218 1.330 . S
C217 C219 1.446 . S
N218 Co177 2.151 1_455 S
N218 C217 1.330 . S
N218 C222 1.418 . S
C219 H198 0.929 . S
C219 C217 1.446 . S
C219 C220 1.332 . S
C220 H200 0.931 . S
C220 C219 1.332 . S
C220 C221 1.267 . S
C221 H189 0.929 . S
C221 C220 1.267 . S
C221 C222 1.251 . S
C222 H192 0.929 . S
C222 N218 1.418 . S
C222 C221 1.251 . S
C223 H190 0.930 . S
C223 C225 1.406 . S
C223 C228 1.261 . S
C224 H191 0.930 . S
C224 N226 1.325 . S
C224 C227 1.357 . S
C225 H193 0.928 . S
C225 C223 1.406 . S
C225 N226 1.261 . S
N226 Co177 2.214 1_455 S
N226 C224 1.325 . S
N226 C225 1.261 . S
C227 H197 0.931 . S
C227 C224 1.357 . S
C227 C228 1.312 . S
C228 H199 0.930 . S
C228 C223 1.261 . S
C228 C227 1.312 . S
C229 O201 1.214 . S
C229 O209 1.234 . S
C230 H202 0.929 . S
C230 C233 1.391 . S
C230 C235 1.391 . S
C231 H203 0.929 . S
C231 C232 1.390 . S
C231 N234 1.391 . S
C232 H204 0.930 . S
C232 C231 1.390 . S
C232 C233 1.392 . S
C233 H205 0.929 . S
C233 C230 1.391 . S
C233 C232 1.392 . S
N234 Co178 2.257 . S
N234 C231 1.391 . S
N234 C235 1.388 . S
C235 H206 0.930 . S
C235 C230 1.391 . S
C235 N234 1.388 . S
Co236 O238 2.143 . S
Co236 O244 2.074 . S
Co236 O247 2.093 1_565 S
Co236 O260 2.097 . S
Co236 N277 2.151 1_565 S
Co236 N285 2.214 1_565 S
Co237 O238 2.160 . S
Co237 O243 2.058 . S
Co237 O253 2.057 . S
Co237 O268 2.037 . S
Co237 N272 2.145 . S
Co237 N293 2.257 . S
O238 Co236 2.143 . S
O238 Co237 2.160 . S
C239 O240 1.278 . S
C239 O247 1.224 1_565 S
O240 C239 1.278 . S
C241 O242 1.245 . S
C241 O253 1.232 . S
O242 C241 1.245 . S
O243 Co237 2.058 . S
O243 C269 1.269 . S
O244 Co236 2.074 . S
O244 C269 1.257 . S
H245 C270 0.930 . S
H246 C276 0.930 1_565 S
O247 Co236 2.093 1_545 S
O247 C239 1.224 1_545 S
H248 C280 0.929 . S
H249 C282 0.930 . S
H250 C283 0.930 . S
H251 C281 0.929 . S
H252 C284 0.928 . S
O253 Co237 2.057 . S
O253 C241 1.232 . S
H254 C273 0.929 . S
H255 C274 0.929 . S
H256 C286 0.931 . S
H257 C278 0.929 . S
H258 C287 0.930 . S
H259 C279 0.931 . S
O260 Co236 2.097 . S
O260 C288 1.214 . S
H261 C289 0.929 . S
H262 C290 0.929 . S
H263 C291 0.930 . S
H264 C292 0.929 . S
H265 C294 0.930 . S
H266 C271 0.930 . S
H267 C275 0.930 . S
O268 Co237 2.037 . S
O268 C288 1.234 . S
C269 O243 1.269 . S
C269 O244 1.257 . S
C270 H245 0.930 . S
C270 C273 1.388 . S
C270 C275 1.418 . S
C271 H266 0.930 . S
C271 C274 1.404 . S
C271 C275 1.353 . S
N272 Co237 2.145 . S
N272 C273 1.397 . S
N272 C274 1.334 . S
C273 H254 0.929 . S
C273 C270 1.388 . S
C273 N272 1.397 . S
C274 H255 0.929 . S
C274 C271 1.404 . S
C274 N272 1.334 . S
C275 H267 0.930 . S
C275 C270 1.418 . S
C275 C271 1.353 . S
C276 H246 0.930 1_545 S
C276 N277 1.330 . S
C276 C278 1.446 . S
N277 Co236 2.151 1_545 S
N277 C276 1.330 . S
N277 C281 1.418 . S
C278 H257 0.929 . S
C278 C276 1.446 . S
C278 C279 1.332 . S
C279 H259 0.931 . S
C279 C278 1.332 . S
C279 C280 1.267 . S
C280 H248 0.929 . S
C280 C279 1.267 . S
C280 C281 1.251 . S
C281 H251 0.929 . S
C281 N277 1.418 . S
C281 C280 1.251 . S
C282 H249 0.930 . S
C282 C284 1.406 . S
C282 C287 1.261 . S
C283 H250 0.930 . S
C283 N285 1.325 . S
C283 C286 1.357 . S
C284 H252 0.928 . S
C284 C282 1.406 . S
C284 N285 1.261 . S
N285 Co236 2.214 1_545 S
N285 C283 1.325 . S
N285 C284 1.261 . S
C286 H256 0.931 . S
C286 C283 1.357 . S
C286 C287 1.312 . S
C287 H258 0.930 . S
C287 C282 1.261 . S
C287 C286 1.312 . S
C288 O260 1.214 . S
C288 O268 1.234 . S
C289 H261 0.929 . S
C289 C292 1.391 . S
C289 C294 1.391 . S
C290 H262 0.929 . S
C290 C291 1.390 . S
C290 N293 1.391 . S
C291 H263 0.930 . S
C291 C290 1.390 . S
C291 C292 1.392 . S
C292 H264 0.929 . S
C292 C289 1.391 . S
C292 C291 1.392 . S
N293 Co237 2.257 . S
N293 C290 1.391 . S
N293 C294 1.388 . S
C294 H265 0.930 . S
C294 C289 1.391 . S
C294 N293 1.388 . S
Co295 O297 2.143 . S
Co295 O303 2.074 . S
Co295 O306 2.093 . S
Co295 O319 2.097 . S
Co295 N336 2.151 . S
Co295 N344 2.214 . S
Co296 O297 2.160 . S
Co296 O302 2.058 . S
Co296 O312 2.057 . S
Co296 O327 2.037 . S
Co296 N331 2.145 . S
Co296 N352 2.257 . S
O297 Co295 2.143 . S
O297 Co296 2.160 . S
C298 O299 1.278 . S
C298 O306 1.224 . S
O299 C298 1.278 . S
C300 O301 1.245 . S
C300 O312 1.232 . S
O301 C300 1.245 . S
O302 Co296 2.058 . S
O302 C328 1.269 . S
O303 Co295 2.074 . S
O303 C328 1.257 . S
H304 C329 0.930 . S
H305 C335 0.930 . S
O306 Co295 2.093 . S
O306 C298 1.224 . S
H307 C339 0.929 . S
H308 C341 0.930 . S
H309 C342 0.930 . S
H310 C340 0.929 . S
H311 C343 0.928 . S
O312 Co296 2.057 . S
O312 C300 1.232 . S
H313 C332 0.929 . S
H314 C333 0.929 . S
H315 C345 0.931 . S
H316 C337 0.929 . S
H317 C346 0.930 . S
H318 C338 0.931 . S
O319 Co295 2.097 . S
O319 C347 1.214 . S
H320 C348 0.929 . S
H321 C349 0.929 . S
H322 C350 0.930 . S
H323 C351 0.929 . S
H324 C353 0.930 . S
H325 C330 0.930 . S
H326 C334 0.930 . S
O327 Co296 2.037 . S
O327 C347 1.234 . S
C328 O302 1.269 . S
C328 O303 1.257 . S
C329 H304 0.930 . S
C329 C332 1.388 . S
C329 C334 1.418 . S
C330 H325 0.930 . S
C330 C333 1.404 . S
C330 C334 1.353 . S
N331 Co296 2.145 . S
N331 C332 1.397 . S
N331 C333 1.334 . S
C332 H313 0.929 . S
C332 C329 1.388 . S
C332 N331 1.397 . S
C333 H314 0.929 . S
C333 C330 1.404 . S
C333 N331 1.334 . S
C334 H326 0.930 . S
C334 C329 1.418 . S
C334 C330 1.353 . S
C335 H305 0.930 . S
C335 N336 1.330 . S
C335 C337 1.446 . S
N336 Co295 2.151 . S
N336 C335 1.330 . S
N336 C340 1.418 . S
C337 H316 0.929 . S
C337 C335 1.446 . S
C337 C338 1.332 . S
C338 H318 0.931 . S
C338 C337 1.332 . S
C338 C339 1.267 . S
C339 H307 0.929 . S
C339 C338 1.267 . S
C339 C340 1.251 . S
C340 H310 0.929 . S
C340 N336 1.418 . S
C340 C339 1.251 . S
C341 H308 0.930 . S
C341 C343 1.406 . S
C341 C346 1.261 . S
C342 H309 0.930 . S
C342 N344 1.325 . S
C342 C345 1.357 . S
C343 H311 0.928 . S
C343 C341 1.406 . S
C343 N344 1.261 . S
N344 Co295 2.214 . S
N344 C342 1.325 . S
N344 C343 1.261 . S
C345 H315 0.931 . S
C345 C342 1.357 . S
C345 C346 1.312 . S
C346 H317 0.930 . S
C346 C341 1.261 . S
C346 C345 1.312 . S
C347 O319 1.214 . S
C347 O327 1.234 . S
C348 H320 0.929 . S
C348 C351 1.391 . S
C348 C353 1.391 . S
C349 H321 0.929 . S
C349 C350 1.390 . S
C349 N352 1.391 . S
C350 H322 0.930 . S
C350 C349 1.390 . S
C350 C351 1.392 . S
C351 H323 0.929 . S
C351 C348 1.391 . S
C351 C350 1.392 . S
N352 Co296 2.257 . S
N352 C349 1.391 . S
N352 C353 1.388 . S
C353 H324 0.930 . S
C353 C348 1.391 . S
C353 N352 1.388 . S
Co354 O356 2.143 . S
Co354 O362 2.074 . S
Co354 O365 2.093 1_565 S
Co354 O378 2.097 . S
Co354 N395 2.151 1_565 S
Co354 N403 2.214 1_565 S
Co355 O356 2.160 . S
Co355 O361 2.058 . S
Co355 O371 2.057 . S
Co355 O386 2.037 . S
Co355 N390 2.145 . S
Co355 N411 2.257 . S
O356 Co354 2.143 . S
O356 Co355 2.160 . S
C357 O358 1.278 . S
C357 O365 1.224 1_565 S
O358 C357 1.278 . S
C359 O360 1.245 . S
C359 O371 1.232 . S
O360 C359 1.245 . S
O361 Co355 2.058 . S
O361 C387 1.269 . S
O362 Co354 2.074 . S
O362 C387 1.257 . S
H363 C388 0.930 . S
H364 C394 0.930 1_565 S
O365 Co354 2.093 1_545 S
O365 C357 1.224 1_545 S
H366 C398 0.929 . S
H367 C400 0.930 . S
H368 C401 0.930 . S
H369 C399 0.929 . S
H370 C402 0.928 . S
O371 Co355 2.057 . S
O371 C359 1.232 . S
H372 C391 0.929 . S
H373 C392 0.929 . S
H374 C404 0.931 . S
H375 C396 0.929 . S
H376 C405 0.930 . S
H377 C397 0.931 . S
O378 Co354 2.097 . S
O378 C406 1.214 . S
H379 C407 0.929 . S
H380 C408 0.929 . S
H381 C409 0.930 . S
H382 C410 0.929 . S
H383 C412 0.930 . S
H384 C389 0.930 . S
H385 C393 0.930 . S
O386 Co355 2.037 . S
O386 C406 1.234 . S
C387 O361 1.269 . S
C387 O362 1.257 . S
C388 H363 0.930 . S
C388 C391 1.388 . S
C388 C393 1.418 . S
C389 H384 0.930 . S
C389 C392 1.404 . S
C389 C393 1.353 . S
N390 Co355 2.145 . S
N390 C391 1.397 . S
N390 C392 1.334 . S
C391 H372 0.929 . S
C391 C388 1.388 . S
C391 N390 1.397 . S
C392 H373 0.929 . S
C392 C389 1.404 . S
C392 N390 1.334 . S
C393 H385 0.930 . S
C393 C388 1.418 . S
C393 C389 1.353 . S
C394 H364 0.930 1_545 S
C394 N395 1.330 . S
C394 C396 1.446 . S
N395 Co354 2.151 1_545 S
N395 C394 1.330 . S
N395 C399 1.418 . S
C396 H375 0.929 . S
C396 C394 1.446 . S
C396 C397 1.332 . S
C397 H377 0.931 . S
C397 C396 1.332 . S
C397 C398 1.267 . S
C398 H366 0.929 . S
C398 C397 1.267 . S
C398 C399 1.251 . S
C399 H369 0.929 . S
C399 N395 1.418 . S
C399 C398 1.251 . S
C400 H367 0.930 . S
C400 C402 1.406 . S
C400 C405 1.261 . S
C401 H368 0.930 . S
C401 N403 1.325 . S
C401 C404 1.357 . S
C402 H370 0.928 . S
C402 C400 1.406 . S
C402 N403 1.261 . S
N403 Co354 2.214 1_545 S
N403 C401 1.325 . S
N403 C402 1.261 . S
C404 H374 0.931 . S
C404 C401 1.357 . S
C404 C405 1.312 . S
C405 H376 0.930 . S
C405 C400 1.261 . S
C405 C404 1.312 . S
C406 O378 1.214 . S
C406 O386 1.234 . S
C407 H379 0.929 . S
C407 C410 1.391 . S
C407 C412 1.391 . S
C408 H380 0.929 . S
C408 C409 1.390 . S
C408 N411 1.391 . S
C409 H381 0.930 . S
C409 C408 1.390 . S
C409 C410 1.392 . S
C410 H382 0.929 . S
C410 C407 1.391 . S
C410 C409 1.392 . S
N411 Co355 2.257 . S
N411 C408 1.391 . S
N411 C412 1.388 . S
C412 H383 0.930 . S
C412 C407 1.391 . S
C412 N411 1.388 . S
Co413 O415 2.143 . S
Co413 O421 2.074 . S
Co413 O424 2.093 . S
Co413 O437 2.097 . S
Co413 N454 2.151 . S
Co413 N462 2.214 . S
Co414 O415 2.160 . S
Co414 O420 2.058 . S
Co414 O430 2.057 . S
Co414 O445 2.037 . S
Co414 N449 2.145 . S
Co414 N470 2.257 . S
O415 Co413 2.143 . S
O415 Co414 2.160 . S
C416 O417 1.278 . S
C416 O424 1.224 . S
O417 C416 1.278 . S
C418 O419 1.245 . S
C418 O430 1.232 . S
O419 C418 1.245 . S
O420 Co414 2.058 . S
O420 C446 1.269 . S
O421 Co413 2.074 . S
O421 C446 1.257 . S
H422 C447 0.930 . S
H423 C453 0.930 . S
O424 Co413 2.093 . S
O424 C416 1.224 . S
H425 C457 0.929 . S
H426 C459 0.930 . S
H427 C460 0.930 . S
H428 C458 0.929 . S
H429 C461 0.928 . S
O430 Co414 2.057 . S
O430 C418 1.232 . S
H431 C450 0.929 . S
H432 C451 0.929 . S
H433 C463 0.931 . S
H434 C455 0.929 . S
H435 C464 0.930 . S
H436 C456 0.931 . S
O437 Co413 2.097 . S
O437 C465 1.214 . S
H438 C466 0.929 . S
H439 C467 0.929 . S
H440 C468 0.930 . S
H441 C469 0.929 . S
H442 C471 0.930 . S
H443 C448 0.930 . S
H444 C452 0.930 . S
O445 Co414 2.037 . S
O445 C465 1.234 . S
C446 O420 1.269 . S
C446 O421 1.257 . S
C447 H422 0.930 . S
C447 C450 1.388 . S
C447 C452 1.418 . S
C448 H443 0.930 . S
C448 C451 1.404 . S
C448 C452 1.353 . S
N449 Co414 2.145 . S
N449 C450 1.397 . S
N449 C451 1.334 . S
C450 H431 0.929 . S
C450 C447 1.388 . S
C450 N449 1.397 . S
C451 H432 0.929 . S
C451 C448 1.404 . S
C451 N449 1.334 . S
C452 H444 0.930 . S
C452 C447 1.418 . S
C452 C448 1.353 . S
C453 H423 0.930 . S
C453 N454 1.330 . S
C453 C455 1.446 . S
N454 Co413 2.151 . S
N454 C453 1.330 . S
N454 C458 1.418 . S
C455 H434 0.929 . S
C455 C453 1.446 . S
C455 C456 1.332 . S
C456 H436 0.931 . S
C456 C455 1.332 . S
C456 C457 1.267 . S
C457 H425 0.929 . S
C457 C456 1.267 . S
C457 C458 1.251 . S
C458 H428 0.929 . S
C458 N454 1.418 . S
C458 C457 1.251 . S
C459 H426 0.930 . S
C459 C461 1.406 . S
C459 C464 1.261 . S
C460 H427 0.930 . S
C460 N462 1.325 . S
C460 C463 1.357 . S
C461 H429 0.928 . S
C461 C459 1.406 . S
C461 N462 1.261 . S
N462 Co413 2.214 . S
N462 C460 1.325 . S
N462 C461 1.261 . S
C463 H433 0.931 . S
C463 C460 1.357 . S
C463 C464 1.312 . S
C464 H435 0.930 . S
C464 C459 1.261 . S
C464 C463 1.312 . S
C465 O437 1.214 . S
C465 O445 1.234 . S
C466 H438 0.929 . S
C466 C469 1.391 . S
C466 C471 1.391 . S
C467 H439 0.929 . S
C467 C468 1.390 . S
C467 N470 1.391 . S
C468 H440 0.930 . S
C468 C467 1.390 . S
C468 C469 1.392 . S
C469 H441 0.929 . S
C469 C466 1.391 . S
C469 C468 1.392 . S
N470 Co414 2.257 . S
N470 C467 1.391 . S
N470 C471 1.388 . S
C471 H442 0.930 . S
C471 C466 1.391 . S
C471 N470 1.388 . S
Co472 O474 2.143 . S
Co472 O480 2.074 . S
Co472 O483 2.093 1_455 S
Co472 O496 2.097 . S
Co472 N513 2.151 1_455 S
Co472 N521 2.214 1_455 S
Co473 O474 2.160 . S
Co473 O479 2.058 . S
Co473 O489 2.057 . S
Co473 O504 2.037 . S
Co473 N508 2.145 . S
Co473 N529 2.257 . S
O474 Co472 2.143 . S
O474 Co473 2.160 . S
C475 O476 1.278 . S
C475 O483 1.224 1_455 S
O476 C475 1.278 . S
C477 O478 1.245 . S
C477 O489 1.232 . S
O478 C477 1.245 . S
O479 Co473 2.058 . S
O479 C505 1.269 . S
O480 Co472 2.074 . S
O480 C505 1.257 . S
H481 C506 0.930 . S
H482 C512 0.930 1_455 S
O483 Co472 2.093 1_655 S
O483 C475 1.224 1_655 S
H484 C516 0.929 . S
H485 C518 0.930 . S
H486 C519 0.930 . S
H487 C517 0.929 . S
H488 C520 0.928 . S
O489 Co473 2.057 . S
O489 C477 1.232 . S
H490 C509 0.929 . S
H491 C510 0.929 . S
H492 C522 0.931 . S
H493 C514 0.929 . S
H494 C523 0.930 . S
H495 C515 0.931 . S
O496 Co472 2.097 . S
O496 C524 1.214 . S
H497 C525 0.929 . S
H498 C526 0.929 . S
H499 C527 0.930 . S
H500 C528 0.929 . S
H501 C530 0.930 . S
H502 C507 0.930 . S
H503 C511 0.930 . S
O504 Co473 2.037 . S
O504 C524 1.234 . S
C505 O479 1.269 . S
C505 O480 1.257 . S
C506 H481 0.930 . S
C506 C509 1.388 . S
C506 C511 1.418 . S
C507 H502 0.930 . S
C507 C510 1.404 . S
C507 C511 1.353 . S
N508 Co473 2.145 . S
N508 C509 1.397 . S
N508 C510 1.334 . S
C509 H490 0.929 . S
C509 C506 1.388 . S
C509 N508 1.397 . S
C510 H491 0.929 . S
C510 C507 1.404 . S
C510 N508 1.334 . S
C511 H503 0.930 . S
C511 C506 1.418 . S
C511 C507 1.353 . S
C512 H482 0.930 1_655 S
C512 N513 1.330 . S
C512 C514 1.446 . S
N513 Co472 2.151 1_655 S
N513 C512 1.330 . S
N513 C517 1.418 . S
C514 H493 0.929 . S
C514 C512 1.446 . S
C514 C515 1.332 . S
C515 H495 0.931 . S
C515 C514 1.332 . S
C515 C516 1.267 . S
C516 H484 0.929 . S
C516 C515 1.267 . S
C516 C517 1.251 . S
C517 H487 0.929 . S
C517 N513 1.418 . S
C517 C516 1.251 . S
C518 H485 0.930 . S
C518 C520 1.406 . S
C518 C523 1.261 . S
C519 H486 0.930 . S
C519 N521 1.325 . S
C519 C522 1.357 . S
C520 H488 0.928 . S
C520 C518 1.406 . S
C520 N521 1.261 . S
N521 Co472 2.214 1_655 S
N521 C519 1.325 . S
N521 C520 1.261 . S
C522 H492 0.931 . S
C522 C519 1.357 . S
C522 C523 1.312 . S
C523 H494 0.930 . S
C523 C518 1.261 . S
C523 C522 1.312 . S
C524 O496 1.214 . S
C524 O504 1.234 . S
C525 H497 0.929 . S
C525 C528 1.391 . S
C525 C530 1.391 . S
C526 H498 0.929 . S
C526 C527 1.390 . S
C526 N529 1.391 . S
C527 H499 0.930 . S
C527 C526 1.390 . S
C527 C528 1.392 . S
C528 H500 0.929 . S
C528 C525 1.391 . S
C528 C527 1.392 . S
N529 Co473 2.257 . S
N529 C526 1.391 . S
N529 C530 1.388 . S
C530 H501 0.930 . S
C530 C525 1.391 . S
C530 N529 1.388 . S
Co531 O533 2.143 . S
Co531 O539 2.074 . S
Co531 O542 2.093 1_545 S
Co531 O555 2.097 . S
Co531 N572 2.151 1_545 S
Co531 N580 2.214 1_545 S
Co532 O533 2.160 . S
Co532 O538 2.058 . S
Co532 O548 2.057 . S
Co532 O563 2.037 . S
Co532 N567 2.145 . S
Co532 N588 2.257 . S
O533 Co531 2.143 . S
O533 Co532 2.160 . S
C534 O535 1.278 . S
C534 O542 1.224 1_545 S
O535 C534 1.278 . S
C536 O537 1.245 . S
C536 O548 1.232 . S
O537 C536 1.245 . S
O538 Co532 2.058 . S
O538 C564 1.269 . S
O539 Co531 2.074 . S
O539 C564 1.257 . S
H540 C565 0.930 . S
H541 C571 0.930 1_545 S
O542 Co531 2.093 1_565 S
O542 C534 1.224 1_565 S
H543 C575 0.929 . S
H544 C577 0.930 . S
H545 C578 0.930 . S
H546 C576 0.929 . S
H547 C579 0.928 . S
O548 Co532 2.057 . S
O548 C536 1.232 . S
H549 C568 0.929 . S
H550 C569 0.929 . S
H551 C581 0.931 . S
H552 C573 0.929 . S
H553 C582 0.930 . S
H554 C574 0.931 . S
O555 Co531 2.097 . S
O555 C583 1.214 . S
H556 C584 0.929 . S
H557 C585 0.929 . S
H558 C586 0.930 . S
H559 C587 0.929 . S
H560 C589 0.930 . S
H561 C566 0.930 . S
H562 C570 0.930 . S
O563 Co532 2.037 . S
O563 C583 1.234 . S
C564 O538 1.269 . S
C564 O539 1.257 . S
C565 H540 0.930 . S
C565 C568 1.388 . S
C565 C570 1.418 . S
C566 H561 0.930 . S
C566 C569 1.404 . S
C566 C570 1.353 . S
N567 Co532 2.145 . S
N567 C568 1.397 . S
N567 C569 1.334 . S
C568 H549 0.929 . S
C568 C565 1.388 . S
C568 N567 1.397 . S
C569 H550 0.929 . S
C569 C566 1.404 . S
C569 N567 1.334 . S
C570 H562 0.930 . S
C570 C565 1.418 . S
C570 C566 1.353 . S
C571 H541 0.930 1_565 S
C571 N572 1.330 . S
C571 C573 1.446 . S
N572 Co531 2.151 1_565 S
N572 C571 1.330 . S
N572 C576 1.418 . S
C573 H552 0.929 . S
C573 C571 1.446 . S
C573 C574 1.332 . S
C574 H554 0.931 . S
C574 C573 1.332 . S
C574 C575 1.267 . S
C575 H543 0.929 . S
C575 C574 1.267 . S
C575 C576 1.251 . S
C576 H546 0.929 . S
C576 N572 1.418 . S
C576 C575 1.251 . S
C577 H544 0.930 . S
C577 C579 1.406 . S
C577 C582 1.261 . S
C578 H545 0.930 . S
C578 N580 1.325 . S
C578 C581 1.357 . S
C579 H547 0.928 . S
C579 C577 1.406 . S
C579 N580 1.261 . S
N580 Co531 2.214 1_565 S
N580 C578 1.325 . S
N580 C579 1.261 . S
C581 H551 0.931 . S
C581 C578 1.357 . S
C581 C582 1.312 . S
C582 H553 0.930 . S
C582 C577 1.261 . S
C582 C581 1.312 . S
C583 O555 1.214 . S
C583 O563 1.234 . S
C584 H556 0.929 . S
C584 C587 1.391 . S
C584 C589 1.391 . S
C585 H557 0.929 . S
C585 C586 1.390 . S
C585 N588 1.391 . S
C586 H558 0.930 . S
C586 C585 1.390 . S
C586 C587 1.392 . S
C587 H559 0.929 . S
C587 C584 1.391 . S
C587 C586 1.392 . S
N588 Co532 2.257 . S
N588 C585 1.391 . S
N588 C589 1.388 . S
C589 H560 0.930 . S
C589 C584 1.391 . S
C589 N588 1.388 . S
Co590 O592 2.143 . S
Co590 O598 2.074 . S
Co590 O601 2.093 . S
Co590 O614 2.097 . S
Co590 N631 2.151 . S
Co590 N639 2.214 . S
Co591 O592 2.160 . S
Co591 O597 2.058 . S
Co591 O607 2.057 . S
Co591 O622 2.037 . S
Co591 N626 2.145 . S
Co591 N647 2.257 . S
O592 Co590 2.143 . S
O592 Co591 2.160 . S
C593 O594 1.278 . S
C593 O601 1.224 . S
O594 C593 1.278 . S
C595 O596 1.245 . S
C595 O607 1.232 . S
O596 C595 1.245 . S
O597 Co591 2.058 . S
O597 C623 1.269 . S
O598 Co590 2.074 . S
O598 C623 1.257 . S
H599 C624 0.930 . S
H600 C630 0.930 . S
O601 Co590 2.093 . S
O601 C593 1.224 . S
H602 C634 0.929 . S
H603 C636 0.930 . S
H604 C637 0.930 . S
H605 C635 0.929 . S
H606 C638 0.928 . S
O607 Co591 2.057 . S
O607 C595 1.232 . S
H608 C627 0.929 . S
H609 C628 0.929 . S
H610 C640 0.931 . S
H611 C632 0.929 . S
H612 C641 0.930 . S
H613 C633 0.931 . S
O614 Co590 2.097 . S
O614 C642 1.214 . S
H615 C643 0.929 . S
H616 C644 0.929 . S
H617 C645 0.930 . S
H618 C646 0.929 . S
H619 C648 0.930 . S
H620 C625 0.930 . S
H621 C629 0.930 . S
O622 Co591 2.037 . S
O622 C642 1.234 . S
C623 O597 1.269 . S
C623 O598 1.257 . S
C624 H599 0.930 . S
C624 C627 1.388 . S
C624 C629 1.418 . S
C625 H620 0.930 . S
C625 C628 1.404 . S
C625 C629 1.353 . S
N626 Co591 2.145 . S
N626 C627 1.397 . S
N626 C628 1.334 . S
C627 H608 0.929 . S
C627 C624 1.388 . S
C627 N626 1.397 . S
C628 H609 0.929 . S
C628 C625 1.404 . S
C628 N626 1.334 . S
C629 H621 0.930 . S
C629 C624 1.418 . S
C629 C625 1.353 . S
C630 H600 0.930 . S
C630 N631 1.330 . S
C630 C632 1.446 . S
N631 Co590 2.151 . S
N631 C630 1.330 . S
N631 C635 1.418 . S
C632 H611 0.929 . S
C632 C630 1.446 . S
C632 C633 1.332 . S
C633 H613 0.931 . S
C633 C632 1.332 . S
C633 C634 1.267 . S
C634 H602 0.929 . S
C634 C633 1.267 . S
C634 C635 1.251 . S
C635 H605 0.929 . S
C635 N631 1.418 . S
C635 C634 1.251 . S
C636 H603 0.930 . S
C636 C638 1.406 . S
C636 C641 1.261 . S
C637 H604 0.930 . S
C637 N639 1.325 . S
C637 C640 1.357 . S
C638 H606 0.928 . S
C638 C636 1.406 . S
C638 N639 1.261 . S
N639 Co590 2.214 . S
N639 C637 1.325 . S
N639 C638 1.261 . S
C640 H610 0.931 . S
C640 C637 1.357 . S
C640 C641 1.312 . S
C641 H612 0.930 . S
C641 C636 1.261 . S
C641 C640 1.312 . S
C642 O614 1.214 . S
C642 O622 1.234 . S
C643 H615 0.929 . S
C643 C646 1.391 . S
C643 C648 1.391 . S
C644 H616 0.929 . S
C644 C645 1.390 . S
C644 N647 1.391 . S
C645 H617 0.930 . S
C645 C644 1.390 . S
C645 C646 1.392 . S
C646 H618 0.929 . S
C646 C643 1.391 . S
C646 C645 1.392 . S
N647 Co591 2.257 . S
N647 C644 1.391 . S
N647 C648 1.388 . S
C648 H619 0.930 . S
C648 C643 1.391 . S
C648 N647 1.388 . S
Co649 O651 2.143 . S
Co649 O657 2.074 . S
Co649 O660 2.093 1_655 S
Co649 O673 2.097 . S
Co649 N690 2.151 1_655 S
Co649 N698 2.214 1_655 S
Co650 O651 2.160 . S
Co650 O656 2.058 . S
Co650 O666 2.057 . S
Co650 O681 2.037 . S
Co650 N685 2.145 . S
Co650 N706 2.257 . S
O651 Co649 2.143 . S
O651 Co650 2.160 . S
C652 O653 1.278 . S
C652 O660 1.224 1_655 S
O653 C652 1.278 . S
C654 O655 1.245 . S
C654 O666 1.232 . S
O655 C654 1.245 . S
O656 Co650 2.058 . S
O656 C682 1.269 . S
O657 Co649 2.074 . S
O657 C682 1.257 . S
H658 C683 0.930 . S
H659 C689 0.930 1_655 S
O660 Co649 2.093 1_455 S
O660 C652 1.224 1_455 S
H661 C693 0.929 . S
H662 C695 0.930 . S
H663 C696 0.930 . S
H664 C694 0.929 . S
H665 C697 0.928 . S
O666 Co650 2.057 . S
O666 C654 1.232 . S
H667 C686 0.929 . S
H668 C687 0.929 . S
H669 C699 0.931 . S
H670 C691 0.929 . S
H671 C700 0.930 . S
H672 C692 0.931 . S
O673 Co649 2.097 . S
O673 C701 1.214 . S
H674 C702 0.929 . S
H675 C703 0.929 . S
H676 C704 0.930 . S
H677 C705 0.929 . S
H678 C707 0.930 . S
H679 C684 0.930 . S
H680 C688 0.930 . S
O681 Co650 2.037 . S
O681 C701 1.234 . S
C682 O656 1.269 . S
C682 O657 1.257 . S
C683 H658 0.930 . S
C683 C686 1.388 . S
C683 C688 1.418 . S
C684 H679 0.930 . S
C684 C687 1.404 . S
C684 C688 1.353 . S
N685 Co650 2.145 . S
N685 C686 1.397 . S
N685 C687 1.334 . S
C686 H667 0.929 . S
C686 C683 1.388 . S
C686 N685 1.397 . S
C687 H668 0.929 . S
C687 C684 1.404 . S
C687 N685 1.334 . S
C688 H680 0.930 . S
C688 C683 1.418 . S
C688 C684 1.353 . S
C689 H659 0.930 1_455 S
C689 N690 1.330 . S
C689 C691 1.446 . S
N690 Co649 2.151 1_455 S
N690 C689 1.330 . S
N690 C694 1.418 . S
C691 H670 0.929 . S
C691 C689 1.446 . S
C691 C692 1.332 . S
C692 H672 0.931 . S
C692 C691 1.332 . S
C692 C693 1.267 . S
C693 H661 0.929 . S
C693 C692 1.267 . S
C693 C694 1.251 . S
C694 H664 0.929 . S
C694 N690 1.418 . S
C694 C693 1.251 . S
C695 H662 0.930 . S
C695 C697 1.406 . S
C695 C700 1.261 . S
C696 H663 0.930 . S
C696 N698 1.325 . S
C696 C699 1.357 . S
C697 H665 0.928 . S
C697 C695 1.406 . S
C697 N698 1.261 . S
N698 Co649 2.214 1_455 S
N698 C696 1.325 . S
N698 C697 1.261 . S
C699 H669 0.931 . S
C699 C696 1.357 . S
C699 C700 1.312 . S
C700 H671 0.930 . S
C700 C695 1.261 . S
C700 C699 1.312 . S
C701 O673 1.214 . S
C701 O681 1.234 . S
C702 H674 0.929 . S
C702 C705 1.391 . S
C702 C707 1.391 . S
C703 H675 0.929 . S
C703 C704 1.390 . S
C703 N706 1.391 . S
C704 H676 0.930 . S
C704 C703 1.390 . S
C704 C705 1.392 . S
C705 H677 0.929 . S
C705 C702 1.391 . S
C705 C704 1.392 . S
N706 Co650 2.257 . S
N706 C703 1.391 . S
N706 C707 1.388 . S
C707 H678 0.930 . S
C707 C702 1.391 . S
C707 N706 1.388 . S
C708 C709 1.391 . S
C708 C710 1.394 . S
C708 H724 0.931 . S
C709 C708 1.391 . S
C709 C713 1.376 1_455 S
C710 C708 1.394 . S
C710 C711 1.369 1_455 S
C710 C714 1.531 . S
C711 C710 1.369 1_655 S
C711 C712 1.410 . S
C711 C719 1.503 1_554 S
C712 C711 1.410 . S
C712 C713 1.392 . S
C712 C715 1.511 . S
C713 C709 1.376 1_655 S
C713 C712 1.392 . S
C713 H725 0.929 . S
C714 C710 1.531 . S
C714 H726 0.960 1_554 S
C714 H727 0.959 1_554 S
C714 H728 0.960 . S
C715 C712 1.511 . S
C715 H729 0.961 . S
C715 H730 0.961 . S
C715 H731 0.961 . S
C716 C717 1.370 1_455 S
C716 C718 1.363 . S
C716 H732 0.931 . S
C717 C716 1.370 1_655 S
C717 C721 1.408 . S
C718 C716 1.363 . S
C718 C719 1.370 1_455 S
C718 C722 1.524 . S
C719 C711 1.503 1_556 S
C719 C718 1.370 1_655 S
C719 C720 1.403 . S
C720 C719 1.403 . S
C720 C721 1.404 . S
C720 C723 1.539 . S
C721 C717 1.408 . S
C721 C720 1.404 . S
C721 H733 0.930 . S
C722 C718 1.524 . S
C722 H734 0.956 . S
C722 H735 0.961 . S
C722 H736 0.961 . S
C723 C720 1.539 . S
C723 H737 0.958 . S
C723 H738 0.961 . S
C723 H739 0.960 1_556 S
H724 C708 0.931 . S
H725 C713 0.929 . S
H726 C714 0.960 1_556 S
H727 C714 0.959 1_556 S
H728 C714 0.960 . S
H729 C715 0.961 . S
H730 C715 0.961 . S
H731 C715 0.961 . S
H732 C716 0.931 . S
H733 C721 0.930 . S
H734 C722 0.956 . S
H735 C722 0.961 . S
H736 C722 0.961 . S
H737 C723 0.958 . S
H738 C723 0.961 . S
H739 C723 0.960 1_554 S
C740 C741 1.391 . S
C740 C742 1.394 . S
C740 H756 0.931 . S
C741 C740 1.391 . S
C741 C745 1.376 . S
C742 C740 1.394 . S
C742 C743 1.369 . S
C742 C746 1.531 . S
C743 C742 1.369 . S
C743 C744 1.410 . S
C743 C751 1.503 . S
C744 C743 1.410 . S
C744 C745 1.392 . S
C744 C747 1.511 . S
C745 C741 1.376 . S
C745 C744 1.392 . S
C745 H757 0.929 . S
C746 C742 1.531 . S
C746 H758 0.960 . S
C746 H759 0.962 1_565 S
C746 H760 0.960 . S
C747 C744 1.511 . S
C747 H761 0.961 . S
C747 H762 0.961 1_565 S
C747 H763 0.961 . S
C748 C749 1.370 . S
C748 C750 1.363 . S
C748 H764 0.931 . S
C749 C748 1.370 . S
C749 C753 1.408 1_545 S
C750 C748 1.363 . S
C750 C751 1.370 1_545 S
C750 C754 1.524 . S
C751 C743 1.503 . S
C751 C750 1.370 1_565 S
C751 C752 1.403 . S
C752 C751 1.403 . S
C752 C753 1.404 . S
C752 C755 1.539 . S
C753 C749 1.408 1_565 S
C753 C752 1.404 . S
C753 H765 0.930 . S
C754 C750 1.524 . S
C754 H766 0.956 . S
C754 H767 0.961 . S
C754 H768 0.961 . S
C755 C752 1.539 . S
C755 H769 0.958 . S
C755 H770 0.961 . S
C755 H771 0.960 . S
H756 C740 0.931 . S
H757 C745 0.929 . S
H758 C746 0.960 . S
H759 C746 0.962 1_545 S
H760 C746 0.960 . S
H761 C747 0.961 . S
H762 C747 0.961 1_545 S
H763 C747 0.961 . S
H764 C748 0.931 . S
H765 C753 0.930 . S
H766 C754 0.956 . S
H767 C754 0.961 . S
H768 C754 0.961 . S
H769 C755 0.958 . S
H770 C755 0.961 . S
H771 C755 0.960 . S
C772 C773 1.391 . S
C772 C774 1.394 . S
C772 H788 0.931 . S
C773 C772 1.391 . S
C773 C777 1.376 . S
C774 C772 1.394 . S
C774 C775 1.369 . S
C774 C778 1.531 . S
C775 C774 1.369 . S
C775 C776 1.410 . S
C775 C783 1.503 1_554 S
C776 C775 1.410 . S
C776 C777 1.392 . S
C776 C779 1.511 . S
C777 C773 1.376 . S
C777 C776 1.392 . S
C777 H789 0.929 . S
C778 C774 1.531 . S
C778 H790 0.960 . S
C778 H791 0.962 . S
C778 H792 0.960 . S
C779 C776 1.511 . S
C779 H793 0.961 . S
C779 H794 0.961 1_554 S
C779 H795 0.957 1_554 S
C780 C781 1.370 . S
C780 C782 1.363 . S
C780 H796 0.931 . S
C781 C780 1.370 . S
C781 C785 1.408 . S
C782 C780 1.363 . S
C782 C783 1.370 . S
C782 C786 1.524 . S
C783 C775 1.503 1_556 S
C783 C782 1.370 . S
C783 C784 1.403 . S
C784 C783 1.403 . S
C784 C785 1.404 . S
C784 C787 1.539 . S
C785 C781 1.408 . S
C785 C784 1.404 . S
C785 H797 0.930 . S
C786 C782 1.524 . S
C786 H798 0.956 1_556 S
C786 H799 0.961 . S
C786 H800 0.961 . S
C787 C784 1.539 . S
C787 H801 0.958 . S
C787 H802 0.961 . S
C787 H803 0.960 . S
H788 C772 0.931 . S
H789 C777 0.929 . S
H790 C778 0.960 . S
H791 C778 0.962 . S
H792 C778 0.960 . S
H793 C779 0.961 . S
H794 C779 0.961 1_556 S
H795 C779 0.957 1_556 S
H796 C780 0.931 . S
H797 C785 0.930 . S
H798 C786 0.956 1_554 S
H799 C786 0.961 . S
H800 C786 0.961 . S
H801 C787 0.958 . S
H802 C787 0.961 . S
H803 C787 0.960 . S
C804 C805 1.391 . S
C804 C806 1.394 . S
C804 H820 0.931 . S
C805 C804 1.391 . S
C805 C809 1.376 1_455 S
C806 C804 1.394 . S
C806 C807 1.369 . S
C806 C810 1.531 . S
C807 C806 1.369 . S
C807 C808 1.410 1_455 S
C807 C815 1.503 1_455 S
C808 C807 1.410 1_655 S
C808 C809 1.392 . S
C808 C811 1.511 . S
C809 C805 1.376 1_655 S
C809 C808 1.392 . S
C809 H821 0.929 . S
C810 C806 1.531 . S
C810 H822 0.960 . S
C810 H823 0.962 . S
C810 H824 0.960 . S
C811 C808 1.511 . S
C811 H825 0.961 . S
C811 H826 0.961 . S
C811 H827 0.961 . S
C812 C813 1.370 . S
C812 C814 1.363 . S
C812 H828 0.931 . S
C813 C812 1.370 . S
C813 C817 1.408 . S
C814 C812 1.363 . S
C814 C815 1.370 . S
C814 C818 1.497 1_655 S
C815 C807 1.503 1_655 S
C815 C814 1.370 . S
C815 C816 1.403 . S
C816 C815 1.403 . S
C816 C817 1.404 . S
C816 C819 1.539 . S
C817 C813 1.408 . S
C817 C816 1.404 . S
C817 H829 0.930 . S
C818 C814 1.497 1_455 S
C818 H830 0.997 . S
C818 H831 0.937 1_455 S
C818 H832 0.974 1_455 S
C819 C816 1.539 . S
C819 H833 0.958 1_655 S
C819 H834 0.961 . S
C819 H835 0.960 . S
H820 C804 0.931 . S
H821 C809 0.929 . S
H822 C810 0.960 . S
H823 C810 0.962 . S
H824 C810 0.960 . S
H825 C811 0.961 . S
H826 C811 0.961 . S
H827 C811 0.961 . S
H828 C812 0.931 . S
H829 C817 0.930 . S
H830 C818 0.997 . S
H831 C818 0.937 1_655 S
H832 C818 0.974 1_655 S
H833 C819 0.958 1_455 S
H834 C819 0.961 . S
H835 C819 0.960 . S
C836 C837 1.391 . S
C836 C838 1.394 . S
C836 H852 0.931 . S
C837 C836 1.391 . S
C837 C841 1.376 . S
C838 C836 1.394 . S
C838 C839 1.369 . S
C838 C842 1.531 . S
C839 C838 1.369 . S
C839 C840 1.413 1_545 S
C839 C847 1.511 1_556 S
C840 C839 1.413 1_565 S
C840 C841 1.389 1_565 S
C840 C843 1.513 . S
C841 C837 1.376 . S
C841 C840 1.389 1_545 S
C841 H853 0.929 1_545 S
C842 C838 1.531 . S
C842 H854 0.960 1_556 S
C842 H855 0.962 . S
C842 H856 0.960 . S
C843 C840 1.513 . S
C843 H857 0.961 . S
C843 H858 0.961 . S
C843 H859 0.961 . S
C844 C845 1.370 . S
C844 C846 1.363 . S
C844 H860 0.931 . S
C845 C844 1.370 . S
C845 C849 1.408 1_565 S
C846 C844 1.363 . S
C846 C847 1.342 1_565 S
C846 C850 1.524 . S
C847 C839 1.511 1_554 S
C847 C846 1.342 1_545 S
C847 C848 1.424 . S
C848 C847 1.424 . S
C848 C849 1.404 . S
C848 C851 1.539 . S
C849 C845 1.408 1_545 S
C849 C848 1.404 . S
C849 H861 0.930 . S
C850 C846 1.524 . S
C850 H862 0.956 1_554 S
C850 H863 0.961 1_554 S
C850 H864 0.961 . S
C851 C848 1.539 . S
C851 H865 0.958 . S
C851 H866 0.961 . S
C851 H867 0.960 . S
H852 C836 0.931 . S
H853 C841 0.929 1_565 S
H854 C842 0.960 1_554 S
H855 C842 0.962 . S
H856 C842 0.960 . S
H857 C843 0.961 . S
H858 C843 0.961 . S
H859 C843 0.961 . S
H860 C844 0.931 . S
H861 C849 0.930 . S
H862 C850 0.956 1_556 S
H863 C850 0.961 1_556 S
H864 C850 0.961 . S
H865 C851 0.958 . S
H866 C851 0.961 . S
H867 C851 0.960 . S
C868 C869 1.391 . S
C868 C870 1.394 . S
C868 H884 0.931 . S
C869 C868 1.391 . S
C869 C873 1.376 . S
C870 C868 1.394 . S
C870 C871 1.369 . S
C870 C874 1.531 . S
C871 C870 1.369 . S
C871 C872 1.410 . S
C871 C879 1.503 . S
C872 C871 1.410 . S
C872 C873 1.392 . S
C872 C875 1.511 . S
C873 C869 1.376 . S
C873 C872 1.392 . S
C873 H885 0.929 . S
C874 C870 1.531 . S
C874 H886 0.960 . S
C874 H887 0.962 . S
C874 H888 0.960 . S
C875 C872 1.511 . S
C875 H889 0.961 . S
C875 H890 0.961 . S
C875 H891 0.961 . S
C876 C877 1.370 . S
C876 C878 1.363 . S
C876 H892 0.931 . S
C877 C876 1.370 . S
C877 C881 1.408 . S
C878 C876 1.363 . S
C878 C879 1.370 . S
C878 C882 1.524 . S
C879 C871 1.503 . S
C879 C878 1.370 . S
C879 C880 1.403 . S
C880 C879 1.403 . S
C880 C881 1.404 . S
C880 C883 1.539 . S
C881 C877 1.408 . S
C881 C880 1.404 . S
C881 H893 0.930 . S
C882 C878 1.524 . S
C882 H894 0.956 . S
C882 H895 0.961 . S
C882 H896 0.961 . S
C883 C880 1.539 . S
C883 H897 0.958 . S
C883 H898 0.961 . S
C883 H899 0.960 . S
H884 C868 0.931 . S
H885 C873 0.929 . S
H886 C874 0.960 . S
H887 C874 0.962 . S
H888 C874 0.960 . S
H889 C875 0.961 . S
H890 C875 0.961 . S
H891 C875 0.961 . S
H892 C876 0.931 . S
H893 C881 0.930 . S
H894 C882 0.956 . S
H895 C882 0.961 . S
H896 C882 0.961 . S
H897 C883 0.958 . S
H898 C883 0.961 . S
H899 C883 0.960 . S
C900 C901 1.391 1_455 S
C900 C902 1.394 . S
C900 H916 0.931 . S
C901 C900 1.391 1_655 S
C901 C905 1.376 . S
C902 C900 1.394 . S
C902 C903 1.369 1_455 S
C902 C906 1.531 . S
C903 C902 1.369 1_655 S
C903 C904 1.410 . S
C903 C911 1.503 1_656 S
C904 C903 1.410 . S
C904 C905 1.392 . S
C904 C907 1.511 . S
C905 C901 1.376 . S
C905 C904 1.392 . S
C905 H917 0.929 . S
C906 C902 1.531 . S
C906 H918 0.960 . S
C906 H919 0.962 . S
C906 H920 0.960 . S
C907 C904 1.511 . S
C907 H921 0.961 . S
C907 H922 0.961 1_556 S
C907 H923 0.961 . S
C908 C909 1.370 . S
C908 C910 1.363 . S
C908 H924 0.931 . S
C909 C908 1.370 . S
C909 C913 1.408 1_455 S
C910 C908 1.363 . S
C910 C911 1.370 . S
C910 C914 1.524 . S
C911 C903 1.503 1_454 S
C911 C910 1.370 . S
C911 C912 1.403 1_455 S
C912 C911 1.403 1_655 S
C912 C913 1.404 . S
C912 C915 1.539 . S
C913 C909 1.408 1_655 S
C913 C912 1.404 . S
C913 H925 0.930 . S
C914 C910 1.524 . S
C914 H926 0.956 1_554 S
C914 H927 0.961 1_554 S
C914 H928 0.961 . S
C915 C912 1.539 . S
C915 H929 0.958 . S
C915 H930 0.961 . S
C915 H931 0.960 . S
H916 C900 0.931 . S
H917 C905 0.929 . S
H918 C906 0.960 . S
H919 C906 0.962 . S
H920 C906 0.960 . S
H921 C907 0.961 . S
H922 C907 0.961 1_554 S
H923 C907 0.961 . S
H924 C908 0.931 . S
H925 C913 0.930 . S
H926 C914 0.956 1_556 S
H927 C914 0.961 1_556 S
H928 C914 0.961 . S
H929 C915 0.958 . S
H930 C915 0.961 . S
H931 C915 0.960 . S
C932 C933 1.391 1_545 S
C932 C934 1.394 . S
C932 H948 0.931 . S
C933 C932 1.391 1_565 S
C933 C937 1.376 . S
C934 C932 1.394 . S
C934 C935 1.369 1_545 S
C934 C938 1.531 . S
C935 C934 1.369 1_565 S
C935 C936 1.410 . S
C935 C943 1.503 1_565 S
C936 C935 1.410 . S
C936 C937 1.392 . S
C936 C939 1.511 . S
C937 C933 1.376 . S
C937 C936 1.392 . S
C937 H949 0.929 . S
C938 C934 1.531 . S
C938 H950 0.960 . S
C938 H951 0.962 . S
C938 H952 0.960 . S
C939 C936 1.511 . S
C939 H953 0.961 . S
C939 H954 0.961 . S
C939 H955 0.961 . S
C940 C941 1.370 . S
C940 C942 1.363 . S
C940 H956 0.931 . S
C941 C940 1.370 . S
C941 C945 1.408 . S
C942 C940 1.363 . S
C942 C943 1.370 . S
C942 C946 1.524 . S
C943 C935 1.503 1_545 S
C943 C942 1.370 . S
C943 C944 1.403 . S
C944 C943 1.403 . S
C944 C945 1.404 . S
C944 C947 1.539 . S
C945 C941 1.408 . S
C945 C944 1.404 . S
C945 H957 0.930 . S
C946 C942 1.524 . S
C946 H958 0.956 . S
C946 H959 0.961 1_545 S
C946 H960 0.961 . S
C947 C944 1.539 . S
C947 H961 0.958 . S
C947 H962 0.961 1_545 S
C947 H963 0.960 1_545 S
H948 C932 0.931 . S
H949 C937 0.929 . S
H950 C938 0.960 . S
H951 C938 0.962 . S
H952 C938 0.960 . S
H953 C939 0.961 . S
H954 C939 0.961 . S
H955 C939 0.961 . S
H956 C940 0.931 . S
H957 C945 0.930 . S
H958 C946 0.956 . S
H959 C946 0.961 1_565 S
H960 C946 0.961 . S
H961 C947 0.958 . S
H962 C947 0.961 1_565 S
H963 C947 0.960 1_565 S
C964 C965 1.391 . S
C964 C966 1.394 . S
C964 H980 0.931 . S
C965 C964 1.391 . S
C965 C969 1.376 . S
C966 C964 1.394 . S
C966 C967 1.369 . S
C966 C970 1.531 . S
C967 C966 1.369 . S
C967 C968 1.410 . S
C967 C975 1.503 1_556 S
C968 C967 1.410 . S
C968 C969 1.392 . S
C968 C971 1.511 . S
C969 C965 1.376 . S
C969 C968 1.392 . S
C969 H981 0.929 . S
C970 C966 1.531 . S
C970 H982 0.960 1_556 S
C970 H983 0.962 . S
C970 H984 0.960 . S
C971 C968 1.511 . S
C971 H985 0.961 . S
C971 H986 0.944 1_556 S
C971 H987 0.961 . S
C972 C973 1.370 . S
C972 C974 1.363 . S
C972 H988 0.931 . S
C973 C972 1.370 . S
C973 C977 1.408 . S
C974 C972 1.363 . S
C974 C975 1.370 . S
C974 C978 1.524 . S
C975 C967 1.503 1_554 S
C975 C974 1.370 . S
C975 C976 1.403 . S
C976 C975 1.403 . S
C976 C977 1.404 . S
C976 C979 1.539 . S
C977 C973 1.408 . S
C977 C976 1.404 . S
C977 H989 0.930 . S
C978 C974 1.524 . S
C978 H990 0.956 . S
C978 H991 0.961 . S
C978 H992 0.961 . S
C979 C976 1.539 . S
C979 H993 0.958 . S
C979 H994 0.961 . S
C979 H995 0.960 1_554 S
H980 C964 0.931 . S
H981 C969 0.929 . S
H982 C970 0.960 1_554 S
H983 C970 0.962 . S
H984 C970 0.960 . S
H985 C971 0.961 . S
H986 C971 0.944 1_554 S
H987 C971 0.961 . S
H988 C972 0.931 . S
H989 C977 0.930 . S
H990 C978 0.956 . S
H991 C978 0.961 . S
H992 C978 0.961 . S
H993 C979 0.958 . S
H994 C979 0.961 . S
H995 C979 0.960 1_556 S
C996 C997 1.391 . S
C996 C998 1.397 . S
C996 H1012 0.931 1_655 S
C997 C996 1.391 . S
C997 C1001 1.376 . S
C998 C996 1.397 . S
C998 C999 1.389 . S
C998 C1002 1.507 1_655 S
C999 C998 1.389 . S
C999 C1000 1.410 . S
C999 C1007 1.503 . S
C1000 C999 1.410 . S
C1000 C1001 1.392 . S
C1000 C1003 1.511 . S
C1001 C997 1.376 . S
C1001 C1000 1.392 . S
C1001 H1013 0.929 . S
C1002 C998 1.507 1_455 S
C1002 H1014 0.960 . S
C1002 H1015 0.962 . S
C1002 H1016 0.960 . S
C1003 C1000 1.511 . S
C1003 H1017 0.961 . S
C1003 H1018 0.961 . S
C1003 H1019 0.961 . S
C1004 C1005 1.370 . S
C1004 C1006 1.363 . S
C1004 H1020 0.931 . S
C1005 C1004 1.370 . S
C1005 C1009 1.408 1_455 S
C1006 C1004 1.363 . S
C1006 C1007 1.370 1_455 S
C1006 C1010 1.524 . S
C1007 C999 1.503 . S
C1007 C1006 1.370 1_655 S
C1007 C1008 1.403 . S
C1008 C1007 1.403 . S
C1008 C1009 1.404 . S
C1008 C1011 1.539 . S
C1009 C1005 1.408 1_655 S
C1009 C1008 1.404 . S
C1009 H1021 0.930 . S
C1010 C1006 1.524 . S
C1010 H1022 0.956 . S
C1010 H1023 0.961 . S
C1010 H1024 0.961 . S
C1011 C1008 1.539 . S
C1011 H1025 0.958 . S
C1011 H1026 0.961 . S
C1011 H1027 0.960 . S
H1012 C996 0.931 1_455 S
H1013 C1001 0.929 . S
H1014 C1002 0.960 . S
H1015 C1002 0.962 . S
H1016 C1002 0.960 . S
H1017 C1003 0.961 . S
H1018 C1003 0.961 . S
H1019 C1003 0.961 . S
H1020 C1004 0.931 . S
H1021 C1009 0.930 . S
H1022 C1010 0.956 . S
H1023 C1010 0.961 . S
H1024 C1010 0.961 . S
H1025 C1011 0.958 . S
H1026 C1011 0.961 . S
H1027 C1011 0.960 . S
C1028 C1029 1.391 . S
C1028 C1030 1.394 . S
C1028 H1044 0.931 . S
C1029 C1028 1.391 . S
C1029 C1033 1.376 . S
C1030 C1028 1.394 . S
C1030 C1031 1.369 . S
C1030 C1034 1.531 . S
C1031 C1030 1.369 . S
C1031 C1032 1.408 . S
C1031 C1039 1.503 1_556 S
C1032 C1031 1.408 . S
C1032 C1033 1.393 . S
C1032 C1035 1.512 1_545 S
C1033 C1029 1.376 . S
C1033 C1032 1.393 . S
C1033 H1045 0.929 1_545 S
C1034 C1030 1.531 . S
C1034 H1046 0.960 1_556 S
C1034 H1047 0.962 . S
C1034 H1048 0.960 . S
C1035 C1032 1.512 1_565 S
C1035 H1049 0.961 . S
C1035 H1050 0.961 . S
C1035 H1051 0.961 1_565 S
C1036 C1037 1.370 . S
C1036 C1038 1.363 . S
C1036 H1052 0.931 . S
C1037 C1036 1.370 . S
C1037 C1041 1.408 1_565 S
C1038 C1036 1.363 . S
C1038 C1039 1.370 1_565 S
C1038 C1042 1.524 . S
C1039 C1031 1.503 1_554 S
C1039 C1038 1.370 1_545 S
C1039 C1040 1.403 . S
C1040 C1039 1.403 . S
C1040 C1041 1.404 . S
C1040 C1043 1.539 . S
C1041 C1037 1.408 1_545 S
C1041 C1040 1.404 . S
C1041 H1053 0.930 . S
C1042 C1038 1.524 . S
C1042 H1054 0.956 1_554 S
C1042 H1055 0.961 1_554 S
C1042 H1056 0.961 . S
C1043 C1040 1.539 . S
C1043 H1057 0.958 . S
C1043 H1058 0.961 . S
C1043 H1059 0.960 . S
H1044 C1028 0.931 . S
H1045 C1033 0.929 1_565 S
H1046 C1034 0.960 1_554 S
H1047 C1034 0.962 . S
H1048 C1034 0.960 . S
H1049 C1035 0.961 . S
H1050 C1035 0.961 . S
H1051 C1035 0.961 1_545 S
H1052 C1036 0.931 . S
H1053 C1041 0.930 . S
H1054 C1042 0.956 1_556 S
H1055 C1042 0.961 1_556 S
H1056 C1042 0.961 . S
H1057 C1043 0.958 . S
H1058 C1043 0.961 . S
H1059 C1043 0.960 . S
C1060 C1061 1.391 . S
C1060 C1062 1.394 . S
C1060 H1076 0.931 . S
C1061 C1060 1.391 . S
C1061 C1065 1.376 . S
C1062 C1060 1.394 . S
C1062 C1063 1.369 . S
C1062 C1066 1.531 . S
C1063 C1062 1.369 . S
C1063 C1064 1.410 . S
C1063 C1071 1.503 . S
C1064 C1063 1.410 . S
C1064 C1065 1.392 . S
C1064 C1067 1.511 . S
C1065 C1061 1.376 . S
C1065 C1064 1.392 . S
C1065 H1077 0.929 . S
C1066 C1062 1.531 . S
C1066 H1078 0.960 . S
C1066 H1079 0.962 . S
C1066 H1080 0.960 . S
C1067 C1064 1.511 . S
C1067 H1081 0.961 . S
C1067 H1082 0.961 . S
C1067 H1083 0.961 . S
C1068 C1069 1.370 . S
C1068 C1070 1.363 . S
C1068 H1084 0.931 . S
C1069 C1068 1.370 . S
C1069 C1073 1.408 . S
C1070 C1068 1.363 . S
C1070 C1071 1.370 . S
C1070 C1074 1.524 . S
C1071 C1063 1.503 . S
C1071 C1070 1.370 . S
C1071 C1072 1.403 . S
C1072 C1071 1.403 . S
C1072 C1073 1.404 . S
C1072 C1075 1.539 . S
C1073 C1069 1.408 . S
C1073 C1072 1.404 . S
C1073 H1085 0.930 . S
C1074 C1070 1.524 . S
C1074 H1086 0.956 . S
C1074 H1087 0.961 . S
C1074 H1088 0.961 . S
C1075 C1072 1.539 . S
C1075 H1089 0.958 . S
C1075 H1090 0.961 . S
C1075 H1091 0.960 . S
H1076 C1060 0.931 . S
H1077 C1065 0.929 . S
H1078 C1066 0.960 . S
H1079 C1066 0.962 . S
H1080 C1066 0.960 . S
H1081 C1067 0.961 . S
H1082 C1067 0.961 . S
H1083 C1067 0.961 . S
H1084 C1068 0.931 . S
H1085 C1073 0.930 . S
H1086 C1074 0.956 . S
H1087 C1074 0.961 . S
H1088 C1074 0.961 . S
H1089 C1075 0.958 . S
H1090 C1075 0.961 . S
H1091 C1075 0.960 . S
C1092 C1093 1.391 . S
C1092 C1094 1.394 . S
C1092 H1108 0.931 . S
C1093 C1092 1.391 . S
C1093 C1097 1.376 . S
C1094 C1092 1.394 . S
C1094 C1095 1.369 . S
C1094 C1098 1.531 . S
C1095 C1094 1.369 . S
C1095 C1096 1.410 . S
C1095 C1103 1.503 . S
C1096 C1095 1.410 . S
C1096 C1097 1.392 . S
C1096 C1099 1.511 1_455 S
C1097 C1093 1.376 . S
C1097 C1096 1.392 . S
C1097 H1109 0.890 1_455 S
C1098 C1094 1.531 . S
C1098 H1110 0.960 . S
C1098 H1111 0.962 . S
C1098 H1112 0.960 . S
C1099 C1096 1.511 1_655 S
C1099 H1113 0.961 . S
C1099 H1114 0.961 . S
C1099 H1115 0.961 . S
C1100 C1101 1.370 . S
C1100 C1102 1.363 . S
C1100 H1116 0.931 . S
C1101 C1100 1.370 . S
C1101 C1105 1.408 . S
C1102 C1100 1.363 . S
C1102 C1103 1.370 . S
C1102 C1106 1.524 . S
C1103 C1095 1.503 . S
C1103 C1102 1.370 . S
C1103 C1104 1.403 . S
C1104 C1103 1.403 . S
C1104 C1105 1.404 . S
C1104 C1107 1.539 1_455 S
C1105 C1101 1.408 . S
C1105 C1104 1.404 . S
C1105 H1117 0.928 1_455 S
C1106 C1102 1.524 . S
C1106 H1118 0.956 . S
C1106 H1119 0.961 . S
C1106 H1120 0.961 . S
C1107 C1104 1.539 1_655 S
C1107 H1121 0.958 . S
C1107 H1122 0.961 . S
C1107 H1123 0.960 . S
H1108 C1092 0.931 . S
H1109 C1097 0.890 1_655 S
H1110 C1098 0.960 . S
H1111 C1098 0.962 . S
H1112 C1098 0.960 . S
H1113 C1099 0.961 . S
H1114 C1099 0.961 . S
H1115 C1099 0.961 . S
H1116 C1100 0.931 . S
H1117 C1105 0.928 1_655 S
H1118 C1106 0.956 . S
H1119 C1106 0.961 . S
H1120 C1106 0.961 . S
H1121 C1107 0.958 . S
H1122 C1107 0.961 . S
H1123 C1107 0.960 . S
C1124 C1125 1.391 . S
C1124 C1126 1.394 . S
C1124 H1140 0.931 1_545 S
C1125 C1124 1.391 . S
C1125 C1129 1.376 . S
C1126 C1124 1.394 . S
C1126 C1127 1.369 . S
C1126 C1130 1.531 1_545 S
C1127 C1126 1.369 . S
C1127 C1128 1.410 . S
C1127 C1135 1.503 . S
C1128 C1127 1.410 . S
C1128 C1129 1.392 . S
C1128 C1131 1.511 . S
C1129 C1125 1.376 . S
C1129 C1128 1.392 . S
C1129 H1141 0.929 . S
C1130 C1126 1.531 1_565 S
C1130 H1142 0.960 . S
C1130 H1143 0.962 . S
C1130 H1144 0.960 . S
C1131 C1128 1.511 . S
C1131 H1145 0.961 . S
C1131 H1146 0.961 . S
C1131 H1147 0.961 . S
C1132 C1133 1.370 . S
C1132 C1134 1.363 . S
C1132 H1148 0.931 . S
C1133 C1132 1.370 . S
C1133 C1137 1.408 . S
C1134 C1132 1.363 . S
C1134 C1135 1.370 . S
C1134 C1138 1.524 . S
C1135 C1127 1.503 . S
C1135 C1134 1.370 . S
C1135 C1136 1.403 . S
C1136 C1135 1.403 . S
C1136 C1137 1.404 . S
C1136 C1139 1.539 . S
C1137 C1133 1.408 . S
C1137 C1136 1.404 . S
C1137 H1149 0.930 . S
C1138 C1134 1.524 . S
C1138 H1150 0.956 . S
C1138 H1151 0.961 . S
C1138 H1152 0.961 . S
C1139 C1136 1.539 . S
C1139 H1153 0.958 . S
C1139 H1154 0.961 . S
C1139 H1155 0.960 . S
H1140 C1124 0.931 1_565 S
H1141 C1129 0.929 . S
H1142 C1130 0.960 . S
H1143 C1130 0.962 . S
H1144 C1130 0.960 . S
H1145 C1131 0.961 . S
H1146 C1131 0.961 . S
H1147 C1131 0.961 . S
H1148 C1132 0.931 . S
H1149 C1137 0.930 . S
H1150 C1138 0.956 . S
H1151 C1138 0.961 . S
H1152 C1138 0.961 . S
H1153 C1139 0.958 . S
H1154 C1139 0.961 . S
H1155 C1139 0.960 . S
C1156 C1157 1.391 . S
C1156 C1158 1.394 . S
C1156 H1172 0.931 . S
C1157 C1156 1.391 . S
C1157 C1161 1.376 . S
C1158 C1156 1.394 . S
C1158 C1159 1.369 . S
C1158 C1162 1.531 . S
C1159 C1158 1.369 . S
C1159 C1160 1.410 . S
C1159 C1167 1.503 . S
C1160 C1159 1.410 . S
C1160 C1161 1.392 . S
C1160 C1163 1.511 . S
C1161 C1157 1.376 . S
C1161 C1160 1.392 . S
C1161 H1173 0.929 . S
C1162 C1158 1.531 . S
C1162 H1174 0.960 . S
C1162 H1175 0.962 . S
C1162 H1176 0.960 . S
C1163 C1160 1.511 . S
C1163 H1177 0.961 . S
C1163 H1178 0.961 . S
C1163 H1179 0.961 . S
C1164 C1165 1.370 . S
C1164 C1166 1.363 . S
C1164 H1180 0.931 . S
C1165 C1164 1.370 . S
C1165 C1169 1.408 . S
C1166 C1164 1.363 . S
C1166 C1167 1.370 . S
C1166 C1170 1.524 . S
C1167 C1159 1.503 . S
C1167 C1166 1.370 . S
C1167 C1168 1.403 . S
C1168 C1167 1.403 . S
C1168 C1169 1.404 . S
C1168 C1171 1.539 . S
C1169 C1165 1.408 . S
C1169 C1168 1.404 . S
C1169 H1181 0.930 . S
C1170 C1166 1.524 . S
C1170 H1182 0.956 . S
C1170 H1183 0.961 . S
C1170 H1184 0.961 . S
C1171 C1168 1.539 . S
C1171 H1185 0.958 . S
C1171 H1186 0.961 . S
C1171 H1187 0.960 . S
H1172 C1156 0.931 . S
H1173 C1161 0.929 . S
H1174 C1162 0.960 . S
H1175 C1162 0.962 . S
H1176 C1162 0.960 . S
H1177 C1163 0.961 . S
H1178 C1163 0.961 . S
H1179 C1163 0.961 . S
H1180 C1164 0.931 . S
H1181 C1169 0.930 . S
H1182 C1170 0.956 . S
H1183 C1170 0.961 . S
H1184 C1170 0.961 . S
H1185 C1171 0.958 . S
H1186 C1171 0.961 . S
H1187 C1171 0.960 . S
C1188 C1189 1.391 . S
C1188 C1190 1.394 . S
C1188 H1204 0.931 . S
C1189 C1188 1.391 . S
C1189 C1193 1.376 . S
C1190 C1188 1.394 . S
C1190 C1191 1.369 . S
C1190 C1194 1.531 . S
C1191 C1190 1.369 . S
C1191 C1192 1.410 . S
C1191 C1199 1.503 . S
C1192 C1191 1.410 . S
C1192 C1193 1.392 . S
C1192 C1195 1.511 1_655 S
C1193 C1189 1.376 . S
C1193 C1192 1.392 . S
C1193 H1205 0.929 1_655 S
C1194 C1190 1.531 . S
C1194 H1206 0.960 . S
C1194 H1207 0.962 . S
C1194 H1208 0.960 . S
C1195 C1192 1.511 1_455 S
C1195 H1209 0.961 . S
C1195 H1210 0.961 . S
C1195 H1211 0.961 . S
C1196 C1197 1.370 . S
C1196 C1198 1.363 . S
C1196 H1212 0.931 . S
C1197 C1196 1.370 . S
C1197 C1201 1.408 . S
C1198 C1196 1.363 . S
C1198 C1199 1.370 . S
C1198 C1202 1.524 . S
C1199 C1191 1.503 . S
C1199 C1198 1.370 . S
C1199 C1200 1.403 . S
C1200 C1199 1.403 . S
C1200 C1201 1.404 . S
C1200 C1203 1.539 . S
C1201 C1197 1.408 . S
C1201 C1200 1.404 . S
C1201 H1213 0.930 . S
C1202 C1198 1.524 . S
C1202 H1214 0.956 . S
C1202 H1215 0.961 . S
C1202 H1216 0.961 . S
C1203 C1200 1.539 . S
C1203 H1217 0.958 . S
C1203 H1218 0.961 . S
C1203 H1219 0.960 . S
H1204 C1188 0.931 . S
H1205 C1193 0.929 1_455 S
H1206 C1194 0.960 . S
H1207 C1194 0.962 . S
H1208 C1194 0.960 . S
H1209 C1195 0.961 . S
H1210 C1195 0.961 . S
H1211 C1195 0.961 . S
H1212 C1196 0.931 . S
H1213 C1201 0.930 . S
H1214 C1202 0.956 . S
H1215 C1202 0.961 . S
H1216 C1202 0.961 . S
H1217 C1203 0.958 . S
H1218 C1203 0.961 . S
H1219 C1203 0.960 . S
C1220 C1221 1.391 . S
C1220 C1222 1.394 . S
C1220 H1236 0.931 . S
C1221 C1220 1.391 . S
C1221 C1225 1.376 . S
C1222 C1220 1.394 . S
C1222 C1223 1.369 . S
C1222 C1226 1.531 . S
C1223 C1222 1.369 . S
C1223 C1224 1.410 . S
C1223 C1231 1.503 . S
C1224 C1223 1.410 . S
C1224 C1225 1.392 . S
C1224 C1227 1.511 1_565 S
C1225 C1221 1.376 . S
C1225 C1224 1.392 . S
C1225 H1237 0.929 1_565 S
C1226 C1222 1.531 . S
C1226 H1238 0.960 . S
C1226 H1239 0.962 . S
C1226 H1240 0.960 . S
C1227 C1224 1.511 1_545 S
C1227 H1241 0.961 . S
C1227 H1242 0.961 . S
C1227 H1243 0.961 . S
C1228 C1229 1.370 . S
C1228 C1230 1.363 . S
C1228 H1244 0.931 . S
C1229 C1228 1.370 . S
C1229 C1233 1.408 . S
C1230 C1228 1.363 . S
C1230 C1231 1.370 . S
C1230 C1234 1.524 . S
C1231 C1223 1.503 . S
C1231 C1230 1.370 . S
C1231 C1232 1.403 . S
C1232 C1231 1.403 . S
C1232 C1233 1.404 . S
C1232 C1235 1.539 . S
C1233 C1229 1.408 . S
C1233 C1232 1.404 . S
C1233 H1245 0.930 . S
C1234 C1230 1.524 . S
C1234 H1246 0.956 . S
C1234 H1247 0.961 . S
C1234 H1248 0.961 . S
C1235 C1232 1.539 . S
C1235 H1249 0.958 . S
C1235 H1250 0.961 1_565 S
C1235 H1251 0.960 1_565 S
H1236 C1220 0.931 . S
H1237 C1225 0.929 1_545 S
H1238 C1226 0.960 . S
H1239 C1226 0.962 . S
H1240 C1226 0.960 . S
H1241 C1227 0.961 . S
H1242 C1227 0.961 . S
H1243 C1227 0.961 . S
H1244 C1228 0.931 . S
H1245 C1233 0.930 . S
H1246 C1234 0.956 . S
H1247 C1234 0.961 . S
H1248 C1234 0.961 . S
H1249 C1235 0.958 . S
H1250 C1235 0.961 1_545 S
H1251 C1235 0.960 1_545 S
C1252 C1253 1.391 . S
C1252 C1254 1.394 . S
C1252 H1268 0.931 . S
C1253 C1252 1.391 . S
C1253 C1257 1.376 . S
C1254 C1252 1.394 . S
C1254 C1255 1.369 . S
C1254 C1258 1.531 . S
C1255 C1254 1.369 . S
C1255 C1256 1.410 . S
C1255 C1263 1.503 . S
C1256 C1255 1.410 . S
C1256 C1257 1.392 . S
C1256 C1259 1.511 . S
C1257 C1253 1.376 . S
C1257 C1256 1.392 . S
C1257 H1269 0.929 . S
C1258 C1254 1.531 . S
C1258 H1270 0.960 . S
C1258 H1271 0.962 . S
C1258 H1272 0.960 . S
C1259 C1256 1.511 . S
C1259 H1273 0.961 . S
C1259 H1274 0.961 . S
C1259 H1275 0.961 . S
C1260 C1261 1.370 . S
C1260 C1262 1.363 . S
C1260 H1276 0.931 . S
C1261 C1260 1.370 . S
C1261 C1265 1.408 . S
C1262 C1260 1.363 . S
C1262 C1263 1.370 . S
C1262 C1266 1.524 . S
C1263 C1255 1.503 . S
C1263 C1262 1.370 . S
C1263 C1264 1.403 . S
C1264 C1263 1.403 . S
C1264 C1265 1.404 . S
C1264 C1267 1.539 . S
C1265 C1261 1.408 . S
C1265 C1264 1.404 . S
C1265 H1277 0.930 . S
C1266 C1262 1.524 . S
C1266 H1278 0.956 . S
C1266 H1279 0.961 . S
C1266 H1280 0.961 . S
C1267 C1264 1.539 . S
C1267 H1281 0.958 . S
C1267 H1282 0.961 . S
C1267 H1283 0.960 . S
H1268 C1252 0.931 . S
H1269 C1257 0.929 . S
H1270 C1258 0.960 . S
H1271 C1258 0.962 . S
H1272 C1258 0.960 . S
H1273 C1259 0.961 . S
H1274 C1259 0.961 . S
H1275 C1259 0.961 . S
H1276 C1260 0.931 . S
H1277 C1265 0.930 . S
H1278 C1266 0.956 . S
H1279 C1266 0.961 . S
H1280 C1266 0.961 . S
H1281 C1267 0.958 . S
H1282 C1267 0.961 . S
H1283 C1267 0.960 . S
C1284 C1285 1.391 . S
C1284 C1286 1.394 . S
C1284 H1300 0.931 . S
C1285 C1284 1.391 . S
C1285 C1289 1.376 . S
C1286 C1284 1.394 . S
C1286 C1287 1.369 . S
C1286 C1290 1.531 . S
C1287 C1286 1.369 . S
C1287 C1288 1.410 . S
C1287 C1295 1.503 . S
C1288 C1287 1.410 . S
C1288 C1289 1.392 . S
C1288 C1291 1.511 . S
C1289 C1285 1.376 . S
C1289 C1288 1.392 . S
C1289 H1301 0.929 . S
C1290 C1286 1.531 . S
C1290 H1302 0.960 . S
C1290 H1303 0.962 . S
C1290 H1304 0.960 . S
C1291 C1288 1.511 . S
C1291 H1305 0.961 . S
C1291 H1306 0.961 . S
C1291 H1307 0.961 . S
C1292 C1293 1.370 . S
C1292 C1294 1.363 . S
C1292 H1308 0.931 . S
C1293 C1292 1.370 . S
C1293 C1297 1.408 . S
C1294 C1292 1.363 . S
C1294 C1295 1.370 . S
C1294 C1298 1.524 . S
C1295 C1287 1.503 . S
C1295 C1294 1.370 . S
C1295 C1296 1.403 . S
C1296 C1295 1.403 . S
C1296 C1297 1.404 . S
C1296 C1299 1.539 . S
C1297 C1293 1.408 . S
C1297 C1296 1.404 . S
C1297 H1309 0.930 . S
C1298 C1294 1.524 . S
C1298 H1310 0.956 . S
C1298 H1311 0.961 . S
C1298 H1312 0.961 . S
C1299 C1296 1.539 . S
C1299 H1313 0.958 . S
C1299 H1314 0.961 . S
C1299 H1315 0.960 . S
H1300 C1284 0.931 . S
H1301 C1289 0.929 . S
H1302 C1290 0.960 . S
H1303 C1290 0.962 . S
H1304 C1290 0.960 . S
H1305 C1291 0.961 . S
H1306 C1291 0.961 . S
H1307 C1291 0.961 . S
H1308 C1292 0.931 . S
H1309 C1297 0.930 . S
H1310 C1298 0.956 . S
H1311 C1298 0.961 . S
H1312 C1298 0.961 . S
H1313 C1299 0.958 . S
H1314 C1299 0.961 . S
H1315 C1299 0.960 . S
C1316 C1317 1.391 . S
C1316 C1318 1.394 . S
C1316 H1332 0.931 . S
C1317 C1316 1.391 . S
C1317 C1321 1.376 . S
C1318 C1316 1.394 . S
C1318 C1319 1.369 . S
C1318 C1322 1.531 . S
C1319 C1318 1.369 . S
C1319 C1320 1.410 . S
C1319 C1327 1.503 . S
C1320 C1319 1.410 . S
C1320 C1321 1.392 . S
C1320 C1323 1.511 . S
C1321 C1317 1.376 . S
C1321 C1320 1.392 . S
C1321 H1333 0.929 . S
C1322 C1318 1.531 . S
C1322 H1334 0.960 . S
C1322 H1335 0.962 . S
C1322 H1336 0.960 . S
C1323 C1320 1.511 . S
C1323 H1337 0.961 . S
C1323 H1338 0.961 . S
C1323 H1339 0.961 . S
C1324 C1325 1.370 . S
C1324 C1326 1.363 . S
C1324 H1340 0.931 . S
C1325 C1324 1.370 . S
C1325 C1329 1.408 . S
C1326 C1324 1.363 . S
C1326 C1327 1.370 . S
C1326 C1330 1.524 . S
C1327 C1319 1.503 . S
C1327 C1326 1.370 . S
C1327 C1328 1.403 . S
C1328 C1327 1.403 . S
C1328 C1329 1.404 . S
C1328 C1331 1.539 . S
C1329 C1325 1.408 . S
C1329 C1328 1.404 . S
C1329 H1341 0.930 . S
C1330 C1326 1.524 . S
C1330 H1342 0.956 . S
C1330 H1343 0.961 . S
C1330 H1344 0.961 . S
C1331 C1328 1.539 . S
C1331 H1345 0.958 . S
C1331 H1346 0.961 . S
C1331 H1347 0.960 . S
H1332 C1316 0.931 . S
H1333 C1321 0.929 . S
H1334 C1322 0.960 . S
H1335 C1322 0.962 . S
H1336 C1322 0.960 . S
H1337 C1323 0.961 . S
H1338 C1323 0.961 . S
H1339 C1323 0.961 . S
H1340 C1324 0.931 . S
H1341 C1329 0.930 . S
H1342 C1330 0.956 . S
H1343 C1330 0.961 . S
H1344 C1330 0.961 . S
H1345 C1331 0.958 . S
H1346 C1331 0.961 . S
H1347 C1331 0.960 . S
C1348 C1349 1.391 . S
C1348 C1350 1.394 . S
C1348 H1364 0.931 . S
C1349 C1348 1.391 . S
C1349 C1353 1.376 . S
C1350 C1348 1.394 . S
C1350 C1351 1.369 . S
C1350 C1354 1.531 . S
C1351 C1350 1.369 . S
C1351 C1352 1.410 . S
C1351 C1359 1.503 . S
C1352 C1351 1.410 . S
C1352 C1353 1.392 . S
C1352 C1355 1.511 . S
C1353 C1349 1.376 . S
C1353 C1352 1.392 . S
C1353 H1365 0.929 . S
C1354 C1350 1.531 . S
C1354 H1366 0.960 . S
C1354 H1367 0.962 . S
C1354 H1368 0.960 . S
C1355 C1352 1.511 . S
C1355 H1369 0.961 . S
C1355 H1370 0.961 . S
C1355 H1371 0.961 . S
C1356 C1357 1.370 . S
C1356 C1358 1.363 . S
C1356 H1372 0.931 . S
C1357 C1356 1.370 . S
C1357 C1361 1.408 . S
C1358 C1356 1.363 . S
C1358 C1359 1.370 . S
C1358 C1362 1.524 . S
C1359 C1351 1.503 . S
C1359 C1358 1.370 . S
C1359 C1360 1.403 . S
C1360 C1359 1.403 . S
C1360 C1361 1.404 . S
C1360 C1363 1.539 . S
C1361 C1357 1.408 . S
C1361 C1360 1.404 . S
C1361 H1373 0.930 . S
C1362 C1358 1.524 . S
C1362 H1374 0.956 . S
C1362 H1375 0.961 . S
C1362 H1376 0.961 . S
C1363 C1360 1.539 . S
C1363 H1377 0.958 . S
C1363 H1378 0.961 . S
C1363 H1379 0.960 . S
H1364 C1348 0.931 . S
H1365 C1353 0.929 . S
H1366 C1354 0.960 . S
H1367 C1354 0.962 . S
H1368 C1354 0.960 . S
H1369 C1355 0.961 . S
H1370 C1355 0.961 . S
H1371 C1355 0.961 . S
H1372 C1356 0.931 . S
H1373 C1361 0.930 . S
H1374 C1362 0.956 . S
H1375 C1362 0.961 . S
H1376 C1362 0.961 . S
H1377 C1363 0.958 . S
H1378 C1363 0.961 . S
H1379 C1363 0.960 . S
C1380 C1381 1.391 . S
C1380 C1382 1.394 . S
C1380 H1396 0.931 . S
C1381 C1380 1.391 . S
C1381 C1385 1.376 . S
C1382 C1380 1.394 . S
C1382 C1383 1.369 . S
C1382 C1386 1.531 . S
C1383 C1382 1.369 . S
C1383 C1384 1.410 . S
C1383 C1391 1.503 . S
C1384 C1383 1.410 . S
C1384 C1385 1.392 . S
C1384 C1387 1.511 . S
C1385 C1381 1.376 . S
C1385 C1384 1.392 . S
C1385 H1397 0.929 . S
C1386 C1382 1.531 . S
C1386 H1398 0.960 . S
C1386 H1399 0.962 . S
C1386 H1400 0.960 . S
C1387 C1384 1.511 . S
C1387 H1401 0.961 . S
C1387 H1402 0.961 . S
C1387 H1403 0.961 . S
C1388 C1389 1.370 . S
C1388 C1390 1.363 . S
C1388 H1404 0.931 . S
C1389 C1388 1.370 . S
C1389 C1393 1.408 . S
C1390 C1388 1.363 . S
C1390 C1391 1.370 . S
C1390 C1394 1.524 . S
C1391 C1383 1.503 . S
C1391 C1390 1.370 . S
C1391 C1392 1.403 . S
C1392 C1391 1.403 . S
C1392 C1393 1.404 . S
C1392 C1395 1.539 . S
C1393 C1389 1.408 . S
C1393 C1392 1.404 . S
C1393 H1405 0.930 . S
C1394 C1390 1.524 . S
C1394 H1406 0.956 . S
C1394 H1407 0.961 . S
C1394 H1408 0.961 . S
C1395 C1392 1.539 . S
C1395 H1409 0.958 . S
C1395 H1410 0.961 . S
C1395 H1411 0.960 . S
H1396 C1380 0.931 . S
H1397 C1385 0.929 . S
H1398 C1386 0.960 . S
H1399 C1386 0.962 . S
H1400 C1386 0.960 . S
H1401 C1387 0.961 . S
H1402 C1387 0.961 . S
H1403 C1387 0.961 . S
H1404 C1388 0.931 . S
H1405 C1393 0.930 . S
H1406 C1394 0.956 . S
H1407 C1394 0.961 . S
H1408 C1394 0.961 . S
H1409 C1395 0.958 . S
H1410 C1395 0.961 . S
H1411 C1395 0.960 . S
C1412 C1413 1.391 . S
C1412 C1414 1.394 . S
C1412 H1428 0.931 . S
C1413 C1412 1.391 . S
C1413 C1417 1.376 . S
C1414 C1412 1.394 . S
C1414 C1415 1.369 . S
C1414 C1418 1.531 . S
C1415 C1414 1.369 . S
C1415 C1416 1.410 . S
C1415 C1423 1.503 . S
C1416 C1415 1.410 . S
C1416 C1417 1.392 . S
C1416 C1419 1.511 . S
C1417 C1413 1.376 . S
C1417 C1416 1.392 . S
C1417 H1429 0.929 . S
C1418 C1414 1.531 . S
C1418 H1430 0.960 . S
C1418 H1431 0.962 . S
C1418 H1432 0.960 . S
C1419 C1416 1.511 . S
C1419 H1433 0.961 . S
C1419 H1434 0.961 . S
C1419 H1435 0.961 . S
C1420 C1421 1.370 . S
C1420 C1422 1.363 . S
C1420 H1436 0.931 . S
C1421 C1420 1.370 . S
C1421 C1425 1.408 . S
C1422 C1420 1.363 . S
C1422 C1423 1.370 . S
C1422 C1426 1.524 . S
C1423 C1415 1.503 . S
C1423 C1422 1.370 . S
C1423 C1424 1.403 . S
C1424 C1423 1.403 . S
C1424 C1425 1.404 . S
C1424 C1427 1.539 . S
C1425 C1421 1.408 . S
C1425 C1424 1.404 . S
C1425 H1437 0.930 . S
C1426 C1422 1.524 . S
C1426 H1438 0.956 . S
C1426 H1439 0.961 . S
C1426 H1440 0.961 . S
C1427 C1424 1.539 . S
C1427 H1441 0.958 . S
C1427 H1442 0.961 . S
C1427 H1443 0.960 . S
H1428 C1412 0.931 . S
H1429 C1417 0.929 . S
H1430 C1418 0.960 . S
H1431 C1418 0.962 . S
H1432 C1418 0.960 . S
H1433 C1419 0.961 . S
H1434 C1419 0.961 . S
H1435 C1419 0.961 . S
H1436 C1420 0.931 . S
H1437 C1425 0.930 . S
H1438 C1426 0.956 . S
H1439 C1426 0.961 . S
H1440 C1426 0.961 . S
H1441 C1427 0.958 . S
H1442 C1427 0.961 . S
H1443 C1427 0.960 . S
C1444 C1445 1.391 . S
C1444 C1446 1.394 . S
C1444 H1460 0.931 . S
C1445 C1444 1.391 . S
C1445 C1449 1.376 . S
C1446 C1444 1.394 . S
C1446 C1447 1.369 . S
C1446 C1450 1.531 . S
C1447 C1446 1.369 . S
C1447 C1448 1.410 . S
C1447 C1455 1.503 . S
C1448 C1447 1.410 . S
C1448 C1449 1.392 . S
C1448 C1451 1.511 . S
C1449 C1445 1.376 . S
C1449 C1448 1.392 . S
C1449 H1461 0.929 . S
C1450 C1446 1.531 . S
C1450 H1462 0.960 . S
C1450 H1463 0.962 . S
C1450 H1464 0.960 . S
C1451 C1448 1.511 . S
C1451 H1465 0.961 . S
C1451 H1466 0.961 . S
C1451 H1467 0.961 . S
C1452 C1453 1.370 . S
C1452 C1454 1.363 . S
C1452 H1468 0.931 . S
C1453 C1452 1.370 . S
C1453 C1457 1.408 . S
C1454 C1452 1.363 . S
C1454 C1455 1.370 . S
C1454 C1458 1.524 . S
C1455 C1447 1.503 . S
C1455 C1454 1.370 . S
C1455 C1456 1.403 . S
C1456 C1455 1.403 . S
C1456 C1457 1.404 . S
C1456 C1459 1.539 . S
C1457 C1453 1.408 . S
C1457 C1456 1.404 . S
C1457 H1469 0.930 . S
C1458 C1454 1.524 . S
C1458 H1470 0.956 . S
C1458 H1471 0.961 . S
C1458 H1472 0.961 . S
C1459 C1456 1.539 . S
C1459 H1473 0.958 . S
C1459 H1474 0.961 . S
C1459 H1475 0.960 . S
H1460 C1444 0.931 . S
H1461 C1449 0.929 . S
H1462 C1450 0.960 . S
H1463 C1450 0.962 . S
H1464 C1450 0.960 . S
H1465 C1451 0.961 . S
H1466 C1451 0.961 . S
H1467 C1451 0.961 . S
H1468 C1452 0.931 . S
H1469 C1457 0.930 . S
H1470 C1458 0.956 . S
H1471 C1458 0.961 . S
H1472 C1458 0.961 . S
H1473 C1459 0.958 . S
H1474 C1459 0.961 . S
H1475 C1459 0.960 . S
C709 C33 1.716 . S
C717 C682 1.710 . S
C741 C387 1.700 . S
C749 C92 1.714 . S
C773 C151 1.700 . S
C781 C446 1.708 . S
C805 C505 1.713 . S
C813 C210 1.713 . S
C837 C564 1.704 . S
C845 C269 1.715 . S
C869 C623 1.706 . S
C877 C328 1.715 . S
C901 C180 1.096 . S
C909 C475 1.090 . S
C933 C239 1.105 . S
C941 C534 1.092 . S
C965 C298 1.076 . S
C973 C593 1.075 . S
C997 C652 1.082 . S
C1005 C3 1.085 . S
C1029 C62 1.059 . S
C1037 C357 1.076 . S
C1061 C121 1.098 . S
C1069 C416 1.085 . S
C1093 C524 1.841 . S
C1101 C52 1.833 . S
C1125 C583 1.819 . S
C1133 C111 1.837 . S
C1157 C170 1.838 . S
C1165 C642 1.829 . S
C1189 C229 1.836 . S
C1197 C701 1.828 . S
C1221 C288 1.841 . S
C1229 C406 1.831 . S
C1253 C465 1.817 . S
C1261 C347 1.830 . S
C1285 C5 1.771 . S
C1293 C595 1.770 . S
C1317 C654 1.769 . S
C1325 C64 1.772 . S
C1349 C123 1.760 . S
C1357 C359 1.769 . S
C1381 C182 1.758 . S
C1389 C418 1.766 . S
C1413 C241 1.771 . S
C1421 C477 1.773 . S
C1445 C300 1.772 . S
C1453 C536 1.771 . S
