# Generated by pormake.
# Topology unh, (4)-cn, num edge types: 1
# Building blocks:
#     Node 0, Type 0, BuildingBlock: ICAMEG_clean_sbu_1, # of connection points: 4
#     Node 1, Type 0, BuildingBlock: ICAMEG_clean_sbu_1, # of connection points: 4
#     Node 2, Type 0, BuildingBlock: ICAMEG_clean_sbu_1, # of connection points: 4
#     Node 3, Type 0, BuildingBlock: ICAMEG_clean_sbu_1, # of connection points: 4
#     Node 4, Type 0, BuildingBlock: ICAMEG_clean_sbu_1, # of connection points: 4
#     Node 5, Type 0, BuildingBlock: ICAMEG_clean_sbu_1, # of connection points: 4
#     Edge 6, Type (0, 0), BuildingBlock: MIFKUJ_clean_linker_0, # of connection points: 2
#     Edge 7, Type (0, 0), BuildingBlock: MIFKUJ_clean_linker_0, # of connection points: 2
#     Edge 8, Type (0, 0), BuildingBlock: MIFKUJ_clean_linker_0, # of connection points: 2
#     Edge 9, Type (0, 0), BuildingBlock: MIFKUJ_clean_linker_0, # of connection points: 2
#     Edge 10, Type (0, 0), BuildingBlock: MIFKUJ_clean_linker_0, # of connection points: 2
#     Edge 11, Type (0, 0), BuildingBlock: MIFKUJ_clean_linker_0, # of connection points: 2
#     Edge 12, Type (0, 0), BuildingBlock: MIFKUJ_clean_linker_0, # of connection points: 2
#     Edge 13, Type (0, 0), BuildingBlock: MIFKUJ_clean_linker_0, # of connection points: 2
#     Edge 14, Type (0, 0), BuildingBlock: MIFKUJ_clean_linker_0, # of connection points: 2
#     Edge 15, Type (0, 0), BuildingBlock: MIFKUJ_clean_linker_0, # of connection points: 2
#     Edge 16, Type (0, 0), BuildingBlock: MIFKUJ_clean_linker_0, # of connection points: 2
#     Edge 17, Type (0, 0), BuildingBlock: MIFKUJ_clean_linker_0, # of connection points: 2
# Relax obj value: 0.018
# Max RMSD: 0.106
# Mean RMSD: 0.106
data_MOF--net-unh--node1-ICAMEG_clean_sbu_1--edge1-MIFKUJ_clean_linker_0
_symmetry_space_group_name_H-M    P1
_symmetry_Int_Tables_number       1
_symmetry_cell_setting            triclinic
loop_
_symmetry_equiv_pos_as_xyz
'x, y, z'
_cell_length_a     56.926976
_cell_length_b     56.909567
_cell_length_c     31.409441
_cell_angle_alpha  89.997971
_cell_angle_beta   89.997492
_cell_angle_gamma 120.00117
loop_
_atom_site_label
_atom_site_type_symbol
_atom_site_fract_x
_atom_site_fract_y
_atom_site_fract_z
_atom_type_partial_charge
Co0 Co 0.14317 0.54869 0.04231 0.0
Co1 Co 0.14365 0.59293 0.11779 0.0
O2 O 0.12485 0.56198 0.07947 0.0
C3 C 0.10807 0.5585 0.98494 0.0
O4 O 0.11812 0.5824 0.00307 0.0
C5 C 0.10452 0.54796 0.1716 0.0
O6 O 0.11187 0.53244 0.1516 0.0
O7 O 0.16539 0.57767 0.14186 0.0
O8 O 0.17071 0.55508 0.08738 0.0
H9 H 0.22487 0.66845 0.19083 0.0
H10 H 0.08382 0.51451 0.05567 0.0
O11 O 0.11606 0.54219 0.99656 0.0
H12 H 0.12295 0.45951 0.10693 0.0
H13 H 0.14609 0.48559 0.93286 0.0
H14 H 0.2005 0.56654 0.02163 0.0
H15 H 0.15238 0.50516 0.07708 0.0
H16 H 0.12378 0.50256 0.98132 0.0
O17 O 0.11529 0.57304 0.16233 0.0
H18 H 0.20108 0.62975 0.14165 0.0
H19 H 0.12523 0.62108 0.17764 0.0
H20 H 0.22367 0.55013 0.97391 0.0
H21 H 0.05361 0.46883 0.08482 0.0
H22 H 0.19639 0.50937 0.9291 0.0
H23 H 0.07317 0.44105 0.11087 0.0
O24 O 0.16713 0.58568 0.01959 0.0
H25 H 0.05756 0.58843 0.06834 0.0
H26 H 0.15655 0.64711 0.08395 0.0
H27 H 0.12981 0.66566 0.05143 0.0
H28 H 0.07994 0.63625 0.0435 0.0
H29 H 0.08512 0.57063 0.10031 0.0
H30 H 0.14816 0.65954 0.22749 0.0
H31 H 0.19836 0.68357 0.23417 0.0
O32 O 0.17258 0.61351 0.07424 0.0
C33 C 0.17609 0.56489 0.12501 0.0
C34 C 0.203 0.65821 0.18807 0.0
C35 C 0.15995 0.65319 0.20869 0.0
N36 N 0.16184 0.62338 0.15647 0.0
C37 C 0.18943 0.63636 0.16018 0.0
C38 C 0.14707 0.63141 0.18046 0.0
C39 C 0.18811 0.66667 0.21242 0.0
C40 C 0.09245 0.50241 0.06646 0.0
N41 N 0.11982 0.51246 0.06452 0.0
C42 C 0.07526 0.47662 0.08314 0.0
C43 C 0.08625 0.46106 0.09782 0.0
C44 C 0.11418 0.47142 0.09566 0.0
C45 C 0.13076 0.49732 0.07885 0.0
C46 C 0.15819 0.50333 0.95232 0.0
C47 C 0.18852 0.54867 0.00246 0.0
C48 C 0.14567 0.51305 0.97975 0.0
N49 N 0.16085 0.53534 0.00459 0.0
C50 C 0.20174 0.53953 0.9754 0.0
C51 C 0.18642 0.51668 0.95023 0.0
C52 C 0.17844 0.60904 0.03697 0.0
C53 C 0.07926 0.60148 0.07178 0.0
C54 C 0.13486 0.63417 0.08057 0.0
C55 C 0.11982 0.64481 0.0622 0.0
C56 C 0.09184 0.62829 0.05778 0.0
N57 N 0.12238 0.60784 0.0942 0.0
C58 C 0.09495 0.59155 0.09004 0.0
Co59 Co 0.59786 0.14174 0.20965 0.0
Co60 Co 0.55491 0.14541 0.2835 0.0
O61 O 0.56575 0.12509 0.24611 0.0
C62 C 0.55258 0.10814 0.15164 0.0
O63 O 0.53966 0.11954 0.16864 0.0
C64 C 0.55856 0.10573 0.33885 0.0
O65 O 0.58136 0.11226 0.31922 0.0
O66 O 0.59195 0.16588 0.30776 0.0
O67 O 0.61984 0.1688 0.25473 0.0
H68 H 0.56549 0.22936 0.35416 0.0
H69 H 0.56913 0.08222 0.22373 0.0
O70 O 0.5765 0.11502 0.16391 0.0
H71 H 0.66202 0.11593 0.27714 0.0
H72 H 0.66244 0.13969 0.10226 0.0
H73 H 0.64008 0.19814 0.18885 0.0
H74 H 0.64895 0.14748 0.24579 0.0
H75 H 0.62273 0.11957 0.1501 0.0
O76 O 0.545 0.11717 0.32882 0.0
H77 H 0.57824 0.2035 0.30559 0.0
H78 H 0.50866 0.12987 0.34311 0.0
H79 H 0.68008 0.21912 0.1417 0.0
H80 H 0.58143 0.04994 0.2544 0.0
H81 H 0.69148 0.1898 0.09799 0.0
H82 H 0.62814 0.06677 0.28157 0.0
O83 O 0.58731 0.16751 0.18605 0.0
H84 H 0.47102 0.06125 0.23455 0.0
H85 H 0.51563 0.16072 0.24868 0.0
H86 H 0.47029 0.13562 0.21583 0.0
H87 H 0.44767 0.0855 0.20863 0.0
H88 H 0.5165 0.0872 0.26681 0.0
H89 H 0.49524 0.15492 0.3923 0.0
H90 H 0.52375 0.20504 0.39797 0.0
O91 O 0.56469 0.17408 0.23907 0.0
C92 C 0.61551 0.175 0.29182 0.0
C93 C 0.55287 0.20754 0.35187 0.0
C94 C 0.51345 0.16575 0.3733 0.0
N95 N 0.54407 0.16525 0.32125 0.0
C96 C 0.55993 0.1928 0.32432 0.0
C97 C 0.52116 0.15168 0.34544 0.0
C98 C 0.52945 0.19387 0.37647 0.0
C99 C 0.58959 0.08966 0.23498 0.0
N100 N 0.60832 0.11669 0.2328 0.0
C101 C 0.5964 0.0713 0.25252 0.0
C102 C 0.6226 0.08076 0.26783 0.0
C103 C 0.64161 0.10835 0.2654 0.0
C104 C 0.63406 0.12613 0.24771 0.0
C105 C 0.65773 0.15267 0.12124 0.0
C106 C 0.64504 0.18526 0.17017 0.0
C107 C 0.63526 0.1414 0.14833 0.0
N108 N 0.62929 0.15768 0.17257 0.0
C109 C 0.66765 0.19725 0.14342 0.0
C110 C 0.67402 0.18079 0.11887 0.0
C111 C 0.57579 0.17968 0.20233 0.0
C112 C 0.48063 0.08307 0.23764 0.0
C113 C 0.50594 0.13892 0.24561 0.0
C114 C 0.48024 0.12481 0.22706 0.0
C115 C 0.46755 0.09669 0.22305 0.0
N116 N 0.51864 0.12541 0.25981 0.0
C117 C 0.50632 0.09785 0.25606 0.0
Co118 Co 0.40206 0.54493 0.45539 0.0
Co119 Co 0.44744 0.59151 0.38415 0.0
O120 O 0.43462 0.55964 0.42038 0.0
C121 C 0.44568 0.5542 0.51519 0.0
O122 O 0.45937 0.57873 0.49911 0.0
C123 C 0.44262 0.5486 0.32644 0.0
O124 O 0.41796 0.53363 0.34147 0.0
O125 O 0.41104 0.5767 0.35779 0.0
O126 O 0.3818 0.5519 0.40959 0.0
H127 H 0.44282 0.66833 0.31361 0.0
H128 H 0.42895 0.51245 0.44073 0.0
O129 O 0.42187 0.53775 0.5017 0.0
H130 H 0.33626 0.457 0.38405 0.0
H131 H 0.3341 0.47842 0.55944 0.0
H132 H 0.36107 0.56103 0.4747 0.0
H133 H 0.3506 0.50147 0.4171 0.0
H134 H 0.37461 0.49726 0.51337 0.0
O135 O 0.45752 0.57281 0.33979 0.0
H136 H 0.42697 0.62852 0.36064 0.0
H137 H 0.49553 0.62145 0.32771 0.0
H138 H 0.32028 0.54275 0.52004 0.0
H139 H 0.41538 0.468 0.40824 0.0
H140 H 0.30656 0.50115 0.56282 0.0
H141 H 0.36876 0.43999 0.37949 0.0
O142 O 0.41371 0.58124 0.48017 0.0
H143 H 0.52823 0.58691 0.43769 0.0
H144 H 0.48716 0.64492 0.42208 0.0
H145 H 0.5315 0.66313 0.45771 0.0
H146 H 0.55234 0.63405 0.46566 0.0
H147 H 0.48378 0.56941 0.40269 0.0
H148 H 0.51204 0.66106 0.28003 0.0
H149 H 0.48566 0.68485 0.2729 0.0
O150 O 0.4375 0.61065 0.42793 0.0
C151 C 0.38709 0.56293 0.37279 0.0
C152 C 0.45456 0.65821 0.31658 0.0
C153 C 0.49339 0.65411 0.29769 0.0
N154 N 0.46047 0.62288 0.34724 0.0
C155 C 0.44573 0.63572 0.34327 0.0
C156 C 0.48393 0.63167 0.32468 0.0
C157 C 0.47858 0.66745 0.29371 0.0
C158 C 0.40854 0.50026 0.42869 0.0
N159 N 0.39055 0.50948 0.43102 0.0
C160 C 0.40101 0.47516 0.41016 0.0
C161 C 0.37486 0.45947 0.39398 0.0
C162 C 0.35662 0.469 0.3965 0.0
C163 C 0.36488 0.49422 0.41519 0.0
C164 C 0.33983 0.49651 0.54087 0.0
C165 C 0.35511 0.5428 0.49299 0.0
C166 C 0.36276 0.5073 0.51479 0.0
N167 N 0.37002 0.53006 0.49108 0.0
C168 C 0.33205 0.5326 0.51871 0.0
C169 C 0.32438 0.50928 0.54274 0.0
C170 C 0.42598 0.60506 0.46434 0.0
C171 C 0.5194 0.59981 0.43429 0.0
C172 C 0.49607 0.63212 0.42547 0.0
C173 C 0.52121 0.64257 0.4456 0.0
C174 C 0.5329 0.62624 0.45003 0.0
N175 N 0.48295 0.60616 0.41015 0.0
C176 C 0.4943 0.59005 0.41431 0.0
Co177 Co 0.85546 0.451 0.54499 0.0
Co178 Co 0.85834 0.40775 0.61893 0.0
O179 O 0.87542 0.43965 0.58222 0.0
C180 C 0.89435 0.44635 0.4892 0.0
O181 O 0.88729 0.42338 0.5087 0.0
C182 C 0.893 0.45256 0.67712 0.0
O183 O 0.88167 0.46585 0.66128 0.0
O184 O 0.83366 0.41951 0.64318 0.0
O185 O 0.8268 0.44151 0.58939 0.0
H186 H 0.78014 0.32687 0.68817 0.0
H187 H 0.91386 0.48862 0.56144 0.0
O188 O 0.88356 0.46048 0.49958 0.0
H189 H 0.86695 0.53605 0.6137 0.0
H190 H 0.84751 0.51227 0.43753 0.0
H191 H 0.79754 0.42875 0.52274 0.0
H192 H 0.84113 0.49083 0.58061 0.0
H193 H 0.87191 0.49764 0.48592 0.0
O194 O 0.88576 0.42868 0.66408 0.0
H195 H 0.80169 0.36679 0.64086 0.0
H196 H 0.87978 0.38187 0.67784 0.0
H197 H 0.77229 0.44273 0.47503 0.0
H198 H 0.94051 0.53395 0.59397 0.0
H199 H 0.79732 0.48478 0.43202 0.0
H200 H 0.91702 0.55792 0.62051 0.0
O201 O 0.83436 0.414 0.52066 0.0
H202 H 0.94863 0.42101 0.57223 0.0
H203 H 0.85054 0.3559 0.58245 0.0
H204 H 0.88073 0.34141 0.55012 0.0
H205 H 0.93017 0.37407 0.54491 0.0
H206 H 0.91768 0.43477 0.60377 0.0
H207 H 0.85909 0.34224 0.72583 0.0
H208 H 0.80892 0.31438 0.73107 0.0
O209 O 0.8306 0.38622 0.5744 0.0
C210 C 0.82149 0.43091 0.62649 0.0
C211 C 0.80202 0.33879 0.68604 0.0
C212 C 0.84634 0.34744 0.70722 0.0
N213 N 0.84194 0.37644 0.65627 0.0
C214 C 0.81433 0.36135 0.6592 0.0
C215 C 0.85793 0.36987 0.68005 0.0
C216 C 0.81818 0.33181 0.71013 0.0
C217 C 0.90354 0.49907 0.57247 0.0
N218 N 0.87601 0.48717 0.5689 0.0
C219 C 0.91872 0.52467 0.59103 0.0
C220 C 0.90552 0.5381 0.60598 0.0
C221 C 0.87743 0.52583 0.60218 0.0
C222 C 0.86291 0.5002 0.58348 0.0
C223 C 0.83637 0.49395 0.4562 0.0
C224 C 0.80853 0.44718 0.50435 0.0
C225 C 0.85008 0.48555 0.4836 0.0
N226 N 0.83611 0.46253 0.50743 0.0
C227 C 0.79414 0.45494 0.47729 0.0
C228 C 0.80821 0.47852 0.45313 0.0
C229 C 0.8245 0.39049 0.53718 0.0
C230 C 0.92714 0.40657 0.57445 0.0
C231 C 0.87201 0.37026 0.58016 0.0
C232 C 0.88902 0.36191 0.56193 0.0
C233 C 0.91676 0.38024 0.55905 0.0
N234 N 0.88234 0.39614 0.59511 0.0
C235 C 0.90953 0.4142 0.59249 0.0
Co236 Co 0.40552 0.85635 0.70872 0.0
Co237 Co 0.44983 0.85804 0.78515 0.0
O238 O 0.43672 0.87584 0.74645 0.0
C239 C 0.45054 0.89354 0.65335 0.0
O240 O 0.46567 0.88601 0.67411 0.0
C241 C 0.44127 0.89508 0.84023 0.0
O242 O 0.41713 0.88495 0.82293 0.0
O243 O 0.4129 0.83521 0.80864 0.0
O244 O 0.3848 0.82873 0.75396 0.0
H245 H 0.44602 0.77846 0.86091 0.0
H246 H 0.42862 0.91538 0.7224 0.0
O247 O 0.42555 0.88348 0.66266 0.0
H248 H 0.33353 0.87317 0.77015 0.0
H249 H 0.33924 0.84953 0.59648 0.0
H250 H 0.36829 0.79844 0.68831 0.0
H251 H 0.35161 0.84507 0.7413 0.0
H252 H 0.37752 0.87355 0.64634 0.0
O253 O 0.45709 0.88642 0.82898 0.0
H254 H 0.43077 0.80105 0.80996 0.0
H255 H 0.49624 0.87809 0.8458 0.0
H256 H 0.32986 0.7736 0.63906 0.0
H257 H 0.41131 0.94428 0.75067 0.0
H258 H 0.31511 0.79919 0.59269 0.0
H259 H 0.36346 0.92316 0.77491 0.0
O260 O 0.42022 0.83367 0.68689 0.0
H261 H 0.53028 0.94582 0.73795 0.0
H262 H 0.4927 0.84711 0.75259 0.0
H263 H 0.53835 0.87525 0.72192 0.0
H264 H 0.55744 0.92499 0.7145 0.0
H265 H 0.4846 0.91688 0.76801 0.0
H266 H 0.51219 0.85635 0.89725 0.0
H267 H 0.48704 0.80618 0.90496 0.0
O268 O 0.44285 0.82923 0.74206 0.0
C269 C 0.3894 0.82382 0.79179 0.0
C270 C 0.45725 0.80033 0.85767 0.0
C271 C 0.49436 0.84405 0.87811 0.0
N272 N 0.46279 0.84082 0.82457 0.0
C273 C 0.44876 0.81322 0.82877 0.0
C274 C 0.48523 0.85625 0.84895 0.0
C275 C 0.48024 0.8159 0.88242 0.0
C276 C 0.40771 0.90608 0.73249 0.0
N277 N 0.39111 0.8786 0.72999 0.0
C278 C 0.39805 0.92253 0.74864 0.0
C279 C 0.37121 0.91066 0.76229 0.0
C280 C 0.35441 0.88261 0.75965 0.0
C281 C 0.36478 0.8668 0.74338 0.0
C282 C 0.34543 0.83815 0.61662 0.0
C283 C 0.36184 0.8097 0.66848 0.0
C284 C 0.36709 0.85164 0.64488 0.0
N285 N 0.37492 0.83738 0.67051 0.0
C286 C 0.34014 0.79553 0.64055 0.0
C287 C 0.33189 0.80991 0.61451 0.0
C288 C 0.43289 0.82313 0.70459 0.0
C289 C 0.52222 0.92418 0.74115 0.0
C290 C 0.50082 0.86872 0.74931 0.0
C291 C 0.52671 0.88457 0.73203 0.0
C292 C 0.53742 0.91247 0.72792 0.0
N293 N 0.48603 0.88036 0.7622 0.0
C294 C 0.49642 0.90771 0.75834 0.0
Co295 Co 0.59635 0.45317 0.95495 0.0
Co296 Co 0.54997 0.40747 0.88362 0.0
O297 O 0.5639 0.43954 0.91974 0.0
C298 C 0.55307 0.44555 0.01418 0.0
O299 O 0.53854 0.42129 0.9975 0.0
C300 C 0.55675 0.45115 0.82573 0.0
O301 O 0.5813 0.46563 0.84141 0.0
O302 O 0.58632 0.4208 0.85781 0.0
O303 O 0.61599 0.44533 0.90928 0.0
H304 H 0.55176 0.32894 0.81389 0.0
H305 H 0.57135 0.48738 0.94034 0.0
O306 O 0.57722 0.46122 0.00127 0.0
H307 H 0.66441 0.54027 0.88393 0.0
H308 H 0.66555 0.518 0.05929 0.0
H309 H 0.63559 0.43483 0.97458 0.0
H310 H 0.64855 0.49548 0.9169 0.0
H311 H 0.62526 0.50067 0.01294 0.0
O312 O 0.54131 0.42696 0.8387 0.0
H313 H 0.56837 0.36865 0.86133 0.0
H314 H 0.502 0.37895 0.82637 0.0
H315 H 0.67606 0.45152 0.02029 0.0
H316 H 0.58645 0.53217 0.90791 0.0
H317 H 0.69129 0.49341 0.06304 0.0
H318 H 0.63326 0.5589 0.87929 0.0
O319 O 0.58353 0.41659 0.97952 0.0
H320 H 0.47131 0.41653 0.93515 0.0
H321 H 0.50806 0.35471 0.92077 0.0
H322 H 0.46358 0.33833 0.95509 0.0
H323 H 0.44493 0.36934 0.96245 0.0
H324 H 0.51581 0.43213 0.90133 0.0
H325 H 0.48466 0.33934 0.77848 0.0
H326 H 0.50957 0.31403 0.7721 0.0
O327 O 0.55831 0.38743 0.92799 0.0
C328 C 0.61033 0.434 0.87274 0.0
C329 C 0.54064 0.33972 0.81656 0.0
C330 C 0.50301 0.3456 0.79663 0.0
N331 N 0.53603 0.37592 0.84689 0.0
C332 C 0.54991 0.36218 0.84344 0.0
C333 C 0.51293 0.36801 0.82375 0.0
C334 C 0.517 0.33139 0.79307 0.0
C335 C 0.59184 0.49902 0.92838 0.0
N336 N 0.60909 0.48889 0.93073 0.0
C337 C 0.60024 0.52431 0.90987 0.0
C338 C 0.62649 0.53928 0.89376 0.0
C339 C 0.64398 0.52883 0.89633 0.0
C340 C 0.63487 0.50344 0.91497 0.0
C341 C 0.65916 0.49978 0.04072 0.0
C342 C 0.64222 0.45319 0.99285 0.0
C343 C 0.63636 0.48985 0.01446 0.0
N344 N 0.62828 0.46693 0.99076 0.0
C345 C 0.66509 0.46249 0.01878 0.0
C346 C 0.6736 0.48597 0.0428 0.0
C347 C 0.57015 0.39271 0.96413 0.0
C348 C 0.47919 0.4028 0.93201 0.0
C349 C 0.50011 0.36834 0.92391 0.0
C350 C 0.47488 0.35893 0.9433 0.0
C351 C 0.46442 0.37633 0.94739 0.0
N352 N 0.51447 0.39432 0.90891 0.0
C353 C 0.50432 0.41149 0.91272 0.0
H354 H 0.0826 0.58578 0.95752 0.0
H355 H 0.04684 0.57107 0.90377 0.0
H356 H 0.04971 0.49752 0.88418 0.0
H357 H 0.08557 0.51212 0.93743 0.0
H358 H 0.0474 0.52003 0.80927 0.0
H359 H 0.00035 0.49716 0.94383 0.0
H360 H 0.99051 0.50681 0.01613 0.0
H361 H 0.96985 0.56417 0.96515 0.0
H362 H 0.97997 0.55514 0.89255 0.0
H363 H 0.92296 0.43199 0.71152 0.0
H364 H 0.96008 0.45365 0.76249 0.0
H365 H 0.95026 0.52402 0.76603 0.0
H366 H 0.91284 0.50242 0.71485 0.0
H367 H 0.9572 0.50774 0.84658 0.0
H368 H 0.00102 0.52779 0.71106 0.0
H369 H 0.01039 0.5174 0.63896 0.0
H370 H 0.03697 0.46502 0.69177 0.0
H371 H 0.02734 0.47475 0.7642 0.0
C372 C 0.07571 0.56653 0.94163 0.0
C373 C 0.0869 0.55009 0.95181 0.0
C374 C 0.0552 0.55812 0.91106 0.0
C375 C 0.04549 0.53311 0.89024 0.0
C376 C 0.05694 0.5169 0.89985 0.0
C377 C 0.07737 0.52525 0.93042 0.0
C378 C 0.02314 0.52352 0.85878 0.0
C379 C 0.02762 0.51714 0.81752 0.0
C380 C 0.99756 0.52045 0.86925 0.0
C381 C 0.99122 0.52571 0.91282 0.0
C382 C 0.99392 0.51199 0.94807 0.0
C383 C 0.98826 0.51732 0.9891 0.0
C384 C 0.97964 0.53616 0.99524 0.0
C385 C 0.97658 0.54963 0.96035 0.0
C386 C 0.98226 0.5444 0.91925 0.0
C387 C 0.92858 0.45205 0.72315 0.0
C388 C 0.91498 0.46552 0.709 0.0
C389 C 0.94988 0.46443 0.7522 0.0
C390 C 0.9581 0.49055 0.76764 0.0
C391 C 0.94424 0.50387 0.75436 0.0
C392 C 0.92293 0.49152 0.72507 0.0
C393 C 0.98136 0.50383 0.79735 0.0
C394 C 0.97707 0.51091 0.83822 0.0
C395 C 0.00713 0.50753 0.78656 0.0
C396 C 0.01325 0.50185 0.74307 0.0
C397 C 0.00868 0.5139 0.7073 0.0
C398 C 0.01406 0.50815 0.66637 0.0
C399 C 0.02422 0.49052 0.66079 0.0
C400 C 0.02908 0.47866 0.69615 0.0
C401 C 0.02369 0.48431 0.73716 0.0
H402 H 0.02836 0.48608 0.62907 0.0
H403 H 0.97527 0.54026 0.02703 0.0
H404 H 0.49079 0.92205 0.87874 0.0
H405 H 0.50599 0.95748 0.93262 0.0
H406 H 0.42791 0.95262 0.92974 0.0
H407 H 0.41259 0.91733 0.87492 0.0
H408 H 0.46853 0.00466 0.93157 0.0
H409 H 0.44422 0.92435 0.0114 0.0
H410 H 0.44371 0.88194 0.02947 0.0
H411 H 0.52977 0.9265 0.05026 0.0
H412 H 0.53088 0.96916 0.03171 0.0
H413 H 0.50054 0.08553 0.12139 0.0
H414 H 0.47826 0.04865 0.06958 0.0
H415 H 0.55183 0.04495 0.05744 0.0
H416 H 0.5741 0.08143 0.10934 0.0
H417 H 0.5083 0.99518 0.06659 0.0
H418 H 0.53267 0.07489 0.98125 0.0
H419 H 0.53301 0.11718 0.96281 0.0
H420 H 0.44613 0.07336 0.95314 0.0
H421 H 0.44526 0.03084 0.9721 0.0
C422 C 0.47677 0.92844 0.88952 0.0
C423 C 0.45038 0.9167 0.87275 0.0
C424 C 0.48548 0.94865 0.92048 0.0
C425 C 0.46793 0.95737 0.93574 0.0
C426 C 0.44173 0.94608 0.91856 0.0
C427 C 0.43299 0.92587 0.88735 0.0
C428 C 0.47719 0.97836 0.96951 0.0
C429 C 0.47679 0.00241 0.96144 0.0
C430 C 0.48826 0.97554 0.00825 0.0
C431 C 0.48765 0.94994 0.01986 0.0
C432 C 0.46307 0.92509 0.01956 0.0
C433 C 0.46267 0.90101 0.02992 0.0
C434 C 0.4867 0.90152 0.04093 0.0
C435 C 0.51118 0.92613 0.04171 0.0
C436 C 0.51169 0.95028 0.03132 0.0
C437 C 0.51201 0.07694 0.10752 0.0
C438 C 0.53912 0.08647 0.1194 0.0
C439 C 0.49925 0.05591 0.07787 0.0
C440 C 0.51345 0.04418 0.05947 0.0
C441 C 0.54048 0.05368 0.07131 0.0
C442 C 0.55321 0.07462 0.10089 0.0
C443 C 0.50023 0.02173 0.02823 0.0
C444 C 0.49981 0.99734 0.0369 0.0
C445 C 0.48836 0.02423 0.99016 0.0
C446 C 0.48888 0.04975 0.97855 0.0
C447 C 0.51363 0.07431 0.97552 0.0
C448 C 0.51392 0.09831 0.96492 0.0
C449 C 0.4896 0.09797 0.95694 0.0
C450 C 0.46495 0.0736 0.95941 0.0
C451 C 0.46454 0.04954 0.97005 0.0
H452 H 0.48987 0.11657 0.94873 0.0
H453 H 0.48635 0.88285 0.04892 0.0
H454 H 0.49432 0.57168 0.29558 0.0
H455 H 0.51195 0.55308 0.24264 0.0
H456 H 0.4328 0.48174 0.23115 0.0
H457 H 0.41514 0.4999 0.28504 0.0
H458 H 0.47081 0.4679 0.23356 0.0
H459 H 0.45743 0.53257 0.15523 0.0
H460 H 0.4621 0.57728 0.14055 0.0
H461 H 0.54864 0.61305 0.13324 0.0
H462 H 0.54451 0.56861 0.14848 0.0
H463 H 0.50055 0.42033 0.04237 0.0
H464 H 0.48085 0.43698 0.09525 0.0
H465 H 0.55885 0.50895 0.113 0.0
H466 H 0.57861 0.49272 0.05969 0.0
H467 H 0.51982 0.52161 0.10613 0.0
H468 H 0.53299 0.45686 0.18607 0.0
H469 H 0.52808 0.41204 0.20072 0.0
H470 H 0.44144 0.37622 0.20434 0.0
H471 H 0.44583 0.42079 0.18914 0.0
C472 C 0.48062 0.55204 0.28176 0.0
C473 C 0.45327 0.53734 0.2943 0.0
C474 C 0.49072 0.54148 0.25136 0.0
C475 C 0.47359 0.51621 0.23238 0.0
C476 C 0.44636 0.50132 0.24526 0.0
C477 C 0.43629 0.51177 0.27596 0.0
C478 C 0.48418 0.50528 0.19931 0.0
C479 C 0.48117 0.47948 0.20537 0.0
C480 C 0.49815 0.52059 0.16292 0.0
C481 C 0.50067 0.5473 0.15335 0.0
C482 C 0.47747 0.55001 0.15077 0.0
C483 C 0.48001 0.5753 0.14231 0.0
C484 C 0.50565 0.598 0.13606 0.0
C485 C 0.52879 0.59545 0.13813 0.0
C486 C 0.52636 0.57021 0.14663 0.0
C487 C 0.51355 0.43964 0.05769 0.0
C488 C 0.54118 0.45515 0.04696 0.0
C489 C 0.50226 0.4491 0.08799 0.0
C490 C 0.51844 0.47409 0.10841 0.0
C491 C 0.54599 0.48962 0.09765 0.0
C492 C 0.55727 0.48025 0.06725 0.0
C493 C 0.50665 0.48434 0.14056 0.0
C494 C 0.50939 0.51001 0.13427 0.0
C495 C 0.49239 0.46888 0.17665 0.0
C496 C 0.48973 0.44211 0.18605 0.0
C497 C 0.51289 0.43939 0.18968 0.0
C498 C 0.5102 0.41404 0.19813 0.0
C499 C 0.48446 0.39129 0.20335 0.0
C500 C 0.46136 0.39386 0.20024 0.0
C501 C 0.46394 0.41916 0.19174 0.0
H502 H 0.48242 0.37168 0.20988 0.0
H503 H 0.50758 0.61757 0.12954 0.0
H504 H 0.89742 0.47568 0.41887 0.0
H505 H 0.93101 0.49058 0.36166 0.0
H506 H 0.97254 0.45546 0.42816 0.0
H507 H 0.93778 0.43881 0.48359 0.0
H508 H 0.97952 0.52334 0.35472 0.0
H509 H 0.00716 0.43744 0.36463 0.0
H510 H 0.98447 0.38848 0.38068 0.0
H511 H 0.90752 0.37992 0.34667 0.0
H512 H 0.92977 0.42874 0.32985 0.0
H513 H 0.10205 0.57081 0.24605 0.0
H514 H 0.06569 0.5518 0.29892 0.0
H515 H 0.02091 0.48059 0.2204 0.0
H516 H 0.05845 0.49871 0.16937 0.0
H517 H 0.01213 0.46429 0.2942 0.0
H518 H 0.00689 0.53621 0.22758 0.0
H519 H 0.02312 0.58253 0.20068 0.0
H520 H 0.04289 0.61388 0.32801 0.0
H521 H 0.02714 0.56778 0.35563 0.0
C522 C 0.91365 0.471 0.42095 0.0
C523 C 0.91495 0.45592 0.4553 0.0
C524 C 0.9329 0.47958 0.38835 0.0
C525 C 0.9542 0.47382 0.39 0.0
C526 C 0.95589 0.45944 0.42519 0.0
C527 C 0.93615 0.4501 0.45708 0.0
C528 C 0.97492 0.48337 0.35547 0.0
C529 C 0.98651 0.51033 0.34139 0.0
C530 C 0.98363 0.4663 0.33689 0.0
C531 C 0.97013 0.43682 0.34637 0.0
C532 C 0.98542 0.42509 0.36038 0.0
C533 C 0.97263 0.39737 0.36965 0.0
C534 C 0.94456 0.38112 0.36483 0.0
C535 C 0.92924 0.39255 0.35054 0.0
C536 C 0.94193 0.42025 0.34117 0.0
C537 C 0.08447 0.55102 0.24039 0.0
C538 C 0.08287 0.53621 0.20376 0.0
C539 C 0.06357 0.54024 0.27038 0.0
C540 C 0.04005 0.51502 0.26328 0.0
C541 C 0.03872 0.50007 0.22678 0.0
C542 C 0.0601 0.51044 0.19754 0.0
C543 C 0.01691 0.50434 0.2938 0.0
C544 C 0.00495 0.47721 0.30725 0.0
C545 C 0.00675 0.52079 0.31001 0.0
C546 C 0.01603 0.54855 0.29363 0.0
C547 C 0.01484 0.553 0.24982 0.0
C548 C 0.02395 0.57921 0.23444 0.0
C549 C 0.03408 0.60114 0.26261 0.0
C550 C 0.03506 0.59688 0.30623 0.0
C551 C 0.02602 0.5707 0.32177 0.0
H552 H 0.04114 0.62142 0.25064 0.0
H553 H 0.9347 0.35968 0.37208 0.0
H554 H 0.52982 0.10305 0.40968 0.0
H555 H 0.5136 0.06858 0.46568 0.0
H556 H 0.54599 0.02539 0.39666 0.0
H557 H 0.56399 0.06097 0.3425 0.0
H558 H 0.47933 0.02035 0.47108 0.0
H559 H 0.56159 0.98807 0.45827 0.0
H560 H 0.61039 0.00895 0.44203 0.0
H561 H 0.62277 0.08697 0.4791 0.0
H562 H 0.57414 0.06651 0.49608 0.0
H563 H 0.42791 0.89673 0.57902 0.0
H564 H 0.44774 0.93297 0.52596 0.0
H565 H 0.51963 0.97587 0.60368 0.0
H566 H 0.50062 0.93846 0.65487 0.0
H567 H 0.53552 0.9838 0.5296 0.0
H568 H 0.46558 0.99215 0.59754 0.0
H569 H 0.4196 0.97736 0.62466 0.0
H570 H 0.38803 0.95906 0.49733 0.0
H571 H 0.43377 0.97336 0.4695 0.0
C572 C 0.53364 0.08627 0.40682 0.0
C573 C 0.54835 0.08472 0.37215 0.0
C574 C 0.52429 0.06651 0.43871 0.0
C575 C 0.52889 0.04447 0.43599 0.0
C576 C 0.54291 0.04257 0.40047 0.0
C577 C 0.55303 0.0628 0.36931 0.0
C578 C 0.51857 0.02326 0.4698 0.0
C579 C 0.49171 0.0125 0.48397 0.0
C580 C 0.5348 0.01335 0.48772 0.0
C581 C 0.56416 0.02577 0.47804 0.0
C582 C 0.57475 0.00965 0.46312 0.0
C583 C 0.60237 0.02143 0.45375 0.0
C584 C 0.61965 0.04928 0.4594 0.0
C585 C 0.60935 0.06541 0.47459 0.0
C586 C 0.58175 0.05374 0.48405 0.0
C587 C 0.44804 0.91385 0.58443 0.0
C588 C 0.46277 0.91496 0.62089 0.0
C589 C 0.45929 0.93469 0.55435 0.0
C590 C 0.48496 0.95766 0.56119 0.0
C591 C 0.49981 0.95848 0.5975 0.0
C592 C 0.48895 0.93715 0.62682 0.0
C593 C 0.49624 0.98082 0.53068 0.0
C594 C 0.52322 0.99183 0.51697 0.0
C595 C 0.4806 0.99202 0.51496 0.0
C596 C 0.45307 0.98362 0.53148 0.0
C597 C 0.44881 0.98483 0.57535 0.0
C598 C 0.42279 0.97654 0.59085 0.0
C599 C 0.4009 0.96722 0.56275 0.0
C600 C 0.405 0.96625 0.51907 0.0
C601 C 0.43097 0.97447 0.5034 0.0
H602 H 0.38077 0.9608 0.57481 0.0
H603 H 0.64102 0.05836 0.45208 0.0
H604 H 0.5071 0.42679 0.7872 0.0
H605 H 0.49002 0.4465 0.73524 0.0
H606 H 0.56581 0.52218 0.7407 0.0
H607 H 0.58322 0.50254 0.7925 0.0
H608 H 0.48189 0.48917 0.74214 0.0
H609 H 0.57823 0.55187 0.64129 0.0
H610 H 0.61973 0.55131 0.62039 0.0
H611 H 0.5783 0.46475 0.6356 0.0
H612 H 0.53648 0.46476 0.65601 0.0
H613 H 0.49644 0.58322 0.55 0.0
H614 H 0.51675 0.56817 0.60454 0.0
H615 H 0.44366 0.48999 0.60865 0.0
H616 H 0.42308 0.50493 0.55482 0.0
H617 H 0.52814 0.5275 0.60455 0.0
H618 H 0.43243 0.46526 0.7088 0.0
H619 H 0.3909 0.46588 0.72927 0.0
H620 H 0.43108 0.55179 0.70714 0.0
H621 H 0.47295 0.55177 0.68713 0.0
C622 C 0.52021 0.44761 0.77728 0.0
C623 C 0.54659 0.46306 0.79385 0.0
C624 C 0.51036 0.45887 0.74768 0.0
C625 C 0.52669 0.48573 0.73388 0.0
C626 C 0.55299 0.50129 0.7505 0.0
C627 C 0.56289 0.49004 0.78016 0.0
C628 C 0.51598 0.49739 0.70233 0.0
C629 C 0.49185 0.4973 0.71186 0.0
C630 C 0.5294 0.5087 0.66338 0.0
C631 C 0.55434 0.50838 0.65067 0.0
C632 C 0.57797 0.53272 0.64006 0.0
C633 C 0.60155 0.53249 0.6283 0.0
C634 C 0.60168 0.50802 0.62683 0.0
C635 C 0.57821 0.4837 0.63694 0.0
C636 C 0.55457 0.48381 0.64866 0.0
C637 C 0.48463 0.56287 0.56269 0.0
C638 C 0.45806 0.54533 0.54829 0.0
C639 C 0.49632 0.55428 0.59373 0.0
C640 C 0.4816 0.52809 0.61103 0.0
C641 C 0.45521 0.51046 0.59631 0.0
C642 C 0.44351 0.51901 0.5654 0.0
C643 C 0.49385 0.51894 0.64412 0.0
C644 C 0.51827 0.51954 0.63494 0.0
C645 C 0.48072 0.50812 0.68345 0.0
C646 C 0.45575 0.50844 0.69609 0.0
C647 C 0.43244 0.4843 0.7085 0.0
C648 C 0.40883 0.48455 0.71998 0.0
C649 C 0.40833 0.50884 0.71938 0.0
C650 C 0.43147 0.53297 0.70744 0.0
C651 C 0.45513 0.53284 0.69597 0.0
H652 H 0.39002 0.50898 0.72823 0.0
H653 H 0.61996 0.50789 0.61776 0.0
H654 H 0.21846 0.55991 0.09544 0.0
H655 H 0.25338 0.55754 0.13719 0.0
H656 H 0.21368 0.55951 0.25321 0.0
H657 H 0.17959 0.56345 0.21145 0.0
H658 H 0.26402 0.59067 0.26301 0.0
H659 H 0.21167 0.49975 0.21132 0.0
H660 H 0.18875 0.46382 0.15742 0.0
H661 H 0.26508 0.4888 0.09607 0.0
H662 H 0.28842 0.52515 0.14925 0.0
H663 H 0.33552 0.54762 0.39872 0.0
H664 H 0.29863 0.5454 0.35577 0.0
H665 H 0.34969 0.56896 0.24439 0.0
H666 H 0.38693 0.57168 0.28713 0.0
H667 H 0.29356 0.52371 0.23334 0.0
H668 H 0.34469 0.61556 0.28749 0.0
H669 H 0.3661 0.64938 0.34476 0.0
H670 H 0.28878 0.61903 0.40588 0.0
H671 H 0.26698 0.58469 0.34931 0.0
C672 C 0.2171 0.55966 0.12984 0.0
C673 C 0.19629 0.56182 0.15021 0.0
C674 C 0.23701 0.55815 0.15374 0.0
C675 C 0.23599 0.55786 0.19848 0.0
C676 C 0.21498 0.55972 0.21878 0.0
C677 C 0.19545 0.56189 0.19491 0.0
C678 C 0.25729 0.55657 0.22415 0.0
C679 C 0.27008 0.5757 0.25682 0.0
C680 C 0.26569 0.53737 0.21584 0.0
C681 C 0.25176 0.51533 0.18408 0.0
C682 C 0.22355 0.49769 0.18619 0.0
C683 C 0.21048 0.47724 0.15578 0.0
C684 C 0.22544 0.47407 0.12329 0.0
C685 C 0.25352 0.4913 0.12123 0.0
C686 C 0.26668 0.51181 0.15152 0.0
C687 C 0.33889 0.55216 0.36504 0.0
C688 C 0.36424 0.56001 0.3464 0.0
C689 C 0.31779 0.55088 0.3406 0.0
C690 C 0.32155 0.55711 0.29705 0.0
C691 C 0.34646 0.56406 0.27799 0.0
C692 C 0.36773 0.56573 0.30252 0.0
C693 C 0.29989 0.55763 0.27185 0.0
C694 C 0.2872 0.53847 0.23938 0.0
C695 C 0.29123 0.57645 0.28076 0.0
C696 C 0.30425 0.59738 0.3144 0.0
C697 C 0.33229 0.61595 0.31332 0.0
C698 C 0.34449 0.63524 0.34563 0.0
C699 C 0.32882 0.63631 0.379 0.0
C700 C 0.3009 0.61815 0.38005 0.0
C701 C 0.28861 0.59879 0.34786 0.0
H702 H 0.3383 0.65125 0.40399 0.0
H703 H 0.21529 0.45824 0.09977 0.0
H704 H 0.61896 0.17965 0.37821 0.0
H705 H 0.65639 0.2141 0.42032 0.0
H706 H 0.70197 0.2497 0.30527 0.0
H707 H 0.66506 0.2144 0.26311 0.0
H708 H 0.73526 0.25306 0.36421 0.0
H709 H 0.66493 0.27522 0.35649 0.0
H710 H 0.61808 0.26659 0.36242 0.0
H711 H 0.61867 0.25302 0.4968 0.0
H712 H 0.66542 0.26115 0.49155 0.0
H713 H 0.8171 0.38723 0.45097 0.0
H714 H 0.783 0.3486 0.40991 0.0
H715 H 0.75215 0.3023 0.52553 0.0
H716 H 0.78651 0.34058 0.56686 0.0
H717 H 0.71218 0.3048 0.46676 0.0
H718 H 0.78578 0.28521 0.47014 0.0
H719 H 0.83335 0.29702 0.45945 0.0
H720 H 0.82728 0.31062 0.32645 0.0
H721 H 0.77977 0.29932 0.3365 0.0
C722 C 0.63706 0.19468 0.36193 0.0
C723 C 0.63897 0.19455 0.31735 0.0
C724 C 0.65841 0.21443 0.386 0.0
C725 C 0.68173 0.23495 0.36591 0.0
C726 C 0.68413 0.23418 0.3215 0.0
C727 C 0.663 0.21404 0.29742 0.0
C728 C 0.703 0.2578 0.39106 0.0
C729 C 0.73019 0.2645 0.3863 0.0
C730 C 0.69647 0.27279 0.42003 0.0
C731 C 0.66859 0.26854 0.42355 0.0
C732 C 0.65502 0.27026 0.38728 0.0
C733 C 0.62848 0.26545 0.39051 0.0
C734 C 0.61537 0.25917 0.42994 0.0
C735 C 0.62884 0.25784 0.46626 0.0
C736 C 0.65537 0.26257 0.46319 0.0
C737 C 0.80313 0.36879 0.46766 0.0
C738 C 0.80449 0.36695 0.51216 0.0
C739 C 0.78374 0.34677 0.44416 0.0
C740 C 0.76517 0.32271 0.46481 0.0
C741 C 0.76637 0.32077 0.50915 0.0
C742 C 0.78607 0.3426 0.53263 0.0
C743 C 0.74416 0.29971 0.44008 0.0
C744 C 0.71708 0.29316 0.4448 0.0
C745 C 0.75089 0.28536 0.41038 0.0
C746 C 0.77929 0.29167 0.40416 0.0
C747 C 0.79465 0.29093 0.43868 0.0
C748 C 0.8216 0.29749 0.43273 0.0
C749 C 0.83336 0.30463 0.39231 0.0
C750 C 0.81816 0.30511 0.35774 0.0
C751 C 0.79121 0.29861 0.36354 0.0
H752 H 0.85423 0.30974 0.38777 0.0
H753 H 0.5948 0.2554 0.43236 0.0
H754 H 0.43062 0.8161 0.61862 0.0
H755 H 0.43147 0.77969 0.57899 0.0
H756 H 0.44056 0.74568 0.69646 0.0
H757 H 0.44089 0.78284 0.73626 0.0
H758 H 0.47006 0.74058 0.63734 0.0
H759 H 0.37828 0.72069 0.64615 0.0
H760 H 0.34082 0.73043 0.63959 0.0
H761 H 0.35355 0.74048 0.50452 0.0
H762 H 0.39145 0.7313 0.51036 0.0
H763 H 0.42024 0.60703 0.55046 0.0
H764 H 0.42267 0.64459 0.59212 0.0
H765 H 0.43599 0.69098 0.47713 0.0
H766 H 0.43415 0.65382 0.43525 0.0
H767 H 0.39425 0.68824 0.53662 0.0
H768 H 0.48744 0.70819 0.53126 0.0
H769 H 0.5236 0.69683 0.54086 0.0
H770 H 0.50522 0.68341 0.67428 0.0
H771 H 0.46858 0.69421 0.66529 0.0
C772 C 0.43299 0.80097 0.63602 0.0
C773 C 0.43537 0.80215 0.6806 0.0
C774 C 0.43336 0.7801 0.61334 0.0
C775 C 0.43537 0.75953 0.63482 0.0
C776 C 0.43882 0.76122 0.67922 0.0
C777 C 0.43896 0.78244 0.70192 0.0
C778 C 0.43297 0.73589 0.61099 0.0
C779 C 0.45328 0.72895 0.61577 0.0
C780 C 0.41115 0.72073 0.58258 0.0
C781 C 0.38788 0.72553 0.57875 0.0
C782 C 0.37319 0.72511 0.61507 0.0
C783 C 0.35188 0.73054 0.61149 0.0
C784 C 0.34485 0.73614 0.57168 0.0
C785 C 0.35905 0.73618 0.53535 0.0
C786 C 0.38044 0.73085 0.53877 0.0
C787 C 0.42364 0.62521 0.53402 0.0
C788 C 0.42706 0.6275 0.48957 0.0
C789 C 0.42507 0.64662 0.55787 0.0
C790 C 0.42954 0.67047 0.5376 0.0
C791 C 0.4325 0.67267 0.49324 0.0
C792 C 0.43157 0.65149 0.46944 0.0
C793 C 0.43143 0.69329 0.56277 0.0
C794 C 0.41095 0.69994 0.5583 0.0
C795 C 0.45279 0.70784 0.59196 0.0
C796 C 0.47507 0.70172 0.59751 0.0
C797 C 0.49094 0.70258 0.56257 0.0
C798 C 0.51155 0.69628 0.56791 0.0
C799 C 0.51666 0.68933 0.60814 0.0
C800 C 0.50121 0.68875 0.64313 0.0
C801 C 0.48052 0.69497 0.63793 0.0
H802 H 0.53262 0.68446 0.61222 0.0
H803 H 0.32839 0.74039 0.56899 0.0
H804 H 0.61075 0.42641 0.7869 0.0
H805 H 0.64723 0.42759 0.74438 0.0
H806 H 0.69672 0.44579 0.85712 0.0
H807 H 0.66076 0.44579 0.89952 0.0
H808 H 0.72719 0.47408 0.79433 0.0
H809 H 0.66088 0.38068 0.81363 0.0
H810 H 0.61495 0.34057 0.81211 0.0
H811 H 0.61212 0.34755 0.67633 0.0
H812 H 0.65787 0.38803 0.67712 0.0
H813 H 0.81475 0.42753 0.71285 0.0
H814 H 0.77896 0.42917 0.75381 0.0
H815 H 0.74333 0.43712 0.63749 0.0
H816 H 0.77935 0.43615 0.59626 0.0
H817 H 0.70629 0.39541 0.70146 0.0
H818 H 0.77468 0.49011 0.68569 0.0
H819 H 0.82133 0.52877 0.69092 0.0
H820 H 0.82097 0.51644 0.82585 0.0
H821 H 0.77445 0.47734 0.82128 0.0
C822 C 0.62945 0.43078 0.80261 0.0
C823 C 0.63278 0.43579 0.84664 0.0
C824 C 0.65025 0.43134 0.7783 0.0
C825 C 0.67453 0.43621 0.79768 0.0
C826 C 0.67816 0.44191 0.84145 0.0
C827 C 0.65754 0.44183 0.86568 0.0
C828 C 0.6959 0.43483 0.77251 0.0
C829 C 0.72261 0.45672 0.77444 0.0
C830 C 0.68998 0.41227 0.74622 0.0
C831 C 0.66271 0.38755 0.74548 0.0
C832 C 0.65041 0.37375 0.78347 0.0
C833 C 0.6244 0.35096 0.78274 0.0
C834 C 0.6106 0.34156 0.74416 0.0
C835 C 0.62282 0.35488 0.7062 0.0
C836 C 0.6488 0.37775 0.70676 0.0
C837 C 0.79929 0.42961 0.69598 0.0
C838 C 0.79989 0.43178 0.65135 0.0
C839 C 0.77892 0.43056 0.71941 0.0
C840 C 0.75861 0.43325 0.69854 0.0
C841 C 0.75887 0.43499 0.65402 0.0
C842 C 0.77952 0.43458 0.63061 0.0
C843 C 0.73728 0.43463 0.72333 0.0
C844 C 0.71068 0.41271 0.72138 0.0
C845 C 0.74338 0.45688 0.75019 0.0
C846 C 0.77119 0.48062 0.75307 0.0
C847 C 0.78463 0.49548 0.71642 0.0
C848 C 0.81104 0.5175 0.71927 0.0
C849 C 0.82413 0.52502 0.75868 0.0
C850 C 0.81081 0.51057 0.79534 0.0
C851 C 0.78443 0.48848 0.79263 0.0
H852 H 0.84458 0.54207 0.76083 0.0
H853 H 0.59045 0.32394 0.74368 0.0
H854 H 0.38736 0.81713 0.87798 0.0
H855 H 0.35044 0.78224 0.92015 0.0
H856 H 0.30274 0.74915 0.80617 0.0
H857 H 0.33931 0.78471 0.7638 0.0
H858 H 0.27127 0.74753 0.86886 0.0
H859 H 0.3383 0.72114 0.85182 0.0
H860 H 0.3845 0.7277 0.85422 0.0
H861 H 0.38678 0.73861 0.98972 0.0
H862 H 0.34076 0.73263 0.98804 0.0
H863 H 0.18503 0.61341 0.95073 0.0
H864 H 0.22024 0.65157 0.91029 0.0
H865 H 0.25511 0.69473 0.02721 0.0
H866 H 0.21959 0.65691 0.068 0.0
H867 H 0.29261 0.69098 0.96385 0.0
H868 H 0.22382 0.71636 0.97827 0.0
H869 H 0.17719 0.70839 0.97293 0.0
H870 H 0.17767 0.69649 0.83801 0.0
H871 H 0.22417 0.70389 0.84268 0.0
C872 C 0.36898 0.80252 0.86184 0.0
C873 C 0.36639 0.8035 0.81745 0.0
C874 C 0.3479 0.78252 0.88601 0.0
C875 C 0.32404 0.7627 0.86623 0.0
C876 C 0.32101 0.76416 0.8221 0.0
C877 C 0.34197 0.78445 0.79791 0.0
C878 C 0.30268 0.74002 0.89147 0.0
C879 C 0.27592 0.735 0.88923 0.0
C880 C 0.30875 0.72379 0.91844 0.0
C881 C 0.33616 0.72668 0.91974 0.0
C882 C 0.3487 0.72508 0.88211 0.0
C883 C 0.37486 0.72871 0.88333 0.0
C884 C 0.38859 0.73364 0.92208 0.0
C885 C 0.37614 0.73484 0.95972 0.0
C886 C 0.35001 0.73132 0.95865 0.0
C887 C 0.20017 0.63103 0.96786 0.0
C888 C 0.19955 0.63218 0.01255 0.0
C889 C 0.2202 0.65278 0.94471 0.0
C890 C 0.24016 0.67585 0.96587 0.0
C891 C 0.23982 0.67702 0.01044 0.0
C892 C 0.21947 0.65548 0.03361 0.0
C893 C 0.26145 0.69874 0.94127 0.0
C894 C 0.28811 0.70364 0.94353 0.0
C895 C 0.25522 0.71456 0.91386 0.0
C896 C 0.22737 0.71038 0.91091 0.0
C897 C 0.2139 0.71178 0.94752 0.0
C898 C 0.1875 0.70741 0.94461 0.0
C899 C 0.17445 0.70187 0.90517 0.0
C900 C 0.18779 0.70074 0.86855 0.0
C901 C 0.21417 0.70503 0.87131 0.0
H902 H 0.15402 0.6985 0.90297 0.0
H903 H 0.40886 0.73649 0.92295 0.0
H904 H 0.59495 0.39532 0.04014 0.0
H905 H 0.5945 0.35807 0.07932 0.0
H906 H 0.5423 0.30139 0.9841 0.0
H907 H 0.54239 0.33845 0.94468 0.0
H908 H 0.52656 0.28142 0.06469 0.0
H909 H 0.60801 0.32229 0.98165 0.0
H910 H 0.65088 0.36041 0.95477 0.0
H911 H 0.68329 0.37738 0.08165 0.0
H912 H 0.64042 0.3396 0.1094 0.0
H913 H 0.59631 0.19764 0.12241 0.0
H914 H 0.59424 0.23276 0.08064 0.0
H915 H 0.55219 0.24634 0.18343 0.0
H916 H 0.55377 0.21105 0.22528 0.0
H917 H 0.61444 0.28598 0.09401 0.0
H918 H 0.50628 0.26167 0.14175 0.0
H919 H 0.46309 0.22223 0.16481 0.0
H920 H 0.48352 0.1686 0.09939 0.0
H921 H 0.52659 0.20773 0.07536 0.0
C922 C 0.5832 0.37494 0.02756 0.0
C923 C 0.56881 0.36995 0.98907 0.0
C924 C 0.58304 0.35368 0.04999 0.0
C925 C 0.5686 0.32704 0.03436 0.0
C926 C 0.55358 0.32183 0.99667 0.0
C927 C 0.55375 0.34308 0.97412 0.0
C928 C 0.5699 0.30478 0.05668 0.0
C929 C 0.54575 0.2824 0.07115 0.0
C930 C 0.59492 0.30585 0.06431 0.0
C931 C 0.62092 0.32825 0.04764 0.0
C932 C 0.62422 0.33425 0.00386 0.0
C933 C 0.64852 0.35579 0.98846 0.0
C934 C 0.66977 0.37134 0.0165 0.0
C935 C 0.66679 0.36533 0.05998 0.0
C936 C 0.64251 0.34384 0.07555 0.0
C937 C 0.58656 0.20803 0.1362 0.0
C938 C 0.57502 0.20132 0.17716 0.0
C939 C 0.58551 0.22819 0.11229 0.0
C940 C 0.57282 0.24195 0.12873 0.0
C941 C 0.5617 0.23566 0.16985 0.0
C942 C 0.5627 0.2155 0.19378 0.0
C943 C 0.57113 0.26284 0.10283 0.0
C944 C 0.59523 0.28498 0.08762 0.0
C945 C 0.54601 0.26128 0.09384 0.0
C946 C 0.51978 0.23764 0.10711 0.0
C947 C 0.50148 0.24148 0.13208 0.0
C948 C 0.47703 0.21917 0.14535 0.0
C949 C 0.47061 0.19293 0.13369 0.0
C950 C 0.48855 0.18894 0.10852 0.0
C951 C 0.51299 0.21117 0.09509 0.0
H952 H 0.45171 0.17569 0.1441 0.0
H953 H 0.68856 0.38803 0.00453 0.0
loop_
_geom_bond_atom_site_label_1
_geom_bond_atom_site_label_2
_geom_bond_distance
_geom_bond_site_symmetry_2
_ccdc_geom_bond_type
Co0 O2 2.143 . S
Co0 O8 2.074 . S
Co0 O11 2.093 1_554 S
Co0 O24 2.097 . S
Co0 N41 2.151 . S
Co0 N49 2.214 1_554 S
Co1 O2 2.160 . S
Co1 O7 2.058 . S
Co1 O17 2.057 . S
Co1 O32 2.037 . S
Co1 N36 2.145 . S
Co1 N57 2.257 . S
O2 Co0 2.143 . S
O2 Co1 2.160 . S
C3 O4 1.278 1_556 S
C3 O11 1.224 . S
O4 C3 1.278 1_554 S
C5 O6 1.245 . S
C5 O17 1.232 . S
O6 C5 1.245 . S
O7 Co1 2.058 . S
O7 C33 1.269 . S
O8 Co0 2.074 . S
O8 C33 1.257 . S
H9 C34 0.930 . S
H10 C40 0.930 . S
O11 Co0 2.093 1_556 S
O11 C3 1.224 . S
H12 C44 0.929 . S
H13 C46 0.930 . S
H14 C47 0.930 1_554 S
H15 C45 0.929 . S
H16 C48 0.928 . S
O17 Co1 2.057 . S
O17 C5 1.232 . S
H18 C37 0.929 . S
H19 C38 0.929 . S
H20 C50 0.931 . S
H21 C42 0.929 . S
H22 C51 0.930 . S
H23 C43 0.931 . S
O24 Co0 2.097 . S
O24 C52 1.214 . S
H25 C53 0.929 . S
H26 C54 0.929 . S
H27 C55 0.930 . S
H28 C56 0.929 . S
H29 C58 0.930 . S
H30 C35 0.930 . S
H31 C39 0.930 . S
O32 Co1 2.037 . S
O32 C52 1.234 . S
C33 O7 1.269 . S
C33 O8 1.257 . S
C34 H9 0.930 . S
C34 C37 1.388 . S
C34 C39 1.418 . S
C35 H30 0.930 . S
C35 C38 1.404 . S
C35 C39 1.353 . S
N36 Co1 2.145 . S
N36 C37 1.397 . S
N36 C38 1.334 . S
C37 H18 0.929 . S
C37 C34 1.388 . S
C37 N36 1.397 . S
C38 H19 0.929 . S
C38 C35 1.404 . S
C38 N36 1.334 . S
C39 H31 0.930 . S
C39 C34 1.418 . S
C39 C35 1.353 . S
C40 H10 0.930 . S
C40 N41 1.330 . S
C40 C42 1.446 . S
N41 Co0 2.151 . S
N41 C40 1.330 . S
N41 C45 1.418 . S
C42 H21 0.929 . S
C42 C40 1.446 . S
C42 C43 1.332 . S
C43 H23 0.931 . S
C43 C42 1.332 . S
C43 C44 1.267 . S
C44 H12 0.929 . S
C44 C43 1.267 . S
C44 C45 1.251 . S
C45 H15 0.929 . S
C45 N41 1.418 . S
C45 C44 1.251 . S
C46 H13 0.930 . S
C46 C48 1.406 . S
C46 C51 1.261 . S
C47 H14 0.930 1_556 S
C47 N49 1.325 . S
C47 C50 1.357 . S
C48 H16 0.928 . S
C48 C46 1.406 . S
C48 N49 1.261 . S
N49 Co0 2.214 1_556 S
N49 C47 1.325 . S
N49 C48 1.261 . S
C50 H20 0.931 . S
C50 C47 1.357 . S
C50 C51 1.312 . S
C51 H22 0.930 . S
C51 C46 1.261 . S
C51 C50 1.312 . S
C52 O24 1.214 . S
C52 O32 1.234 . S
C53 H25 0.929 . S
C53 C56 1.391 . S
C53 C58 1.391 . S
C54 H26 0.929 . S
C54 C55 1.390 . S
C54 N57 1.391 . S
C55 H27 0.930 . S
C55 C54 1.390 . S
C55 C56 1.392 . S
C56 H28 0.929 . S
C56 C53 1.391 . S
C56 C55 1.392 . S
N57 Co1 2.257 . S
N57 C54 1.391 . S
N57 C58 1.388 . S
C58 H29 0.930 . S
C58 C53 1.391 . S
C58 N57 1.388 . S
Co59 O61 2.143 . S
Co59 O67 2.074 . S
Co59 O70 2.093 . S
Co59 O83 2.097 . S
Co59 N100 2.151 . S
Co59 N108 2.214 . S
Co60 O61 2.160 . S
Co60 O66 2.058 . S
Co60 O76 2.057 . S
Co60 O91 2.037 . S
Co60 N95 2.145 . S
Co60 N116 2.257 . S
O61 Co59 2.143 . S
O61 Co60 2.160 . S
C62 O63 1.278 . S
C62 O70 1.224 . S
O63 C62 1.278 . S
C64 O65 1.245 . S
C64 O76 1.232 . S
O65 C64 1.245 . S
O66 Co60 2.058 . S
O66 C92 1.269 . S
O67 Co59 2.074 . S
O67 C92 1.257 . S
H68 C93 0.930 . S
H69 C99 0.930 . S
O70 Co59 2.093 . S
O70 C62 1.224 . S
H71 C103 0.929 . S
H72 C105 0.930 . S
H73 C106 0.930 . S
H74 C104 0.929 . S
H75 C107 0.928 . S
O76 Co60 2.057 . S
O76 C64 1.232 . S
H77 C96 0.929 . S
H78 C97 0.929 . S
H79 C109 0.931 . S
H80 C101 0.929 . S
H81 C110 0.930 . S
H82 C102 0.931 . S
O83 Co59 2.097 . S
O83 C111 1.214 . S
H84 C112 0.929 . S
H85 C113 0.929 . S
H86 C114 0.930 . S
H87 C115 0.929 . S
H88 C117 0.930 . S
H89 C94 0.930 . S
H90 C98 0.930 . S
O91 Co60 2.037 . S
O91 C111 1.234 . S
C92 O66 1.269 . S
C92 O67 1.257 . S
C93 H68 0.930 . S
C93 C96 1.388 . S
C93 C98 1.418 . S
C94 H89 0.930 . S
C94 C97 1.404 . S
C94 C98 1.353 . S
N95 Co60 2.145 . S
N95 C96 1.397 . S
N95 C97 1.334 . S
C96 H77 0.929 . S
C96 C93 1.388 . S
C96 N95 1.397 . S
C97 H78 0.929 . S
C97 C94 1.404 . S
C97 N95 1.334 . S
C98 H90 0.930 . S
C98 C93 1.418 . S
C98 C94 1.353 . S
C99 H69 0.930 . S
C99 N100 1.330 . S
C99 C101 1.446 . S
N100 Co59 2.151 . S
N100 C99 1.330 . S
N100 C104 1.418 . S
C101 H80 0.929 . S
C101 C99 1.446 . S
C101 C102 1.332 . S
C102 H82 0.931 . S
C102 C101 1.332 . S
C102 C103 1.267 . S
C103 H71 0.929 . S
C103 C102 1.267 . S
C103 C104 1.251 . S
C104 H74 0.929 . S
C104 N100 1.418 . S
C104 C103 1.251 . S
C105 H72 0.930 . S
C105 C107 1.406 . S
C105 C110 1.261 . S
C106 H73 0.930 . S
C106 N108 1.325 . S
C106 C109 1.357 . S
C107 H75 0.928 . S
C107 C105 1.406 . S
C107 N108 1.261 . S
N108 Co59 2.214 . S
N108 C106 1.325 . S
N108 C107 1.261 . S
C109 H79 0.931 . S
C109 C106 1.357 . S
C109 C110 1.312 . S
C110 H81 0.930 . S
C110 C105 1.261 . S
C110 C109 1.312 . S
C111 O83 1.214 . S
C111 O91 1.234 . S
C112 H84 0.929 . S
C112 C115 1.391 . S
C112 C117 1.391 . S
C113 H85 0.929 . S
C113 C114 1.390 . S
C113 N116 1.391 . S
C114 H86 0.930 . S
C114 C113 1.390 . S
C114 C115 1.392 . S
C115 H87 0.929 . S
C115 C112 1.391 . S
C115 C114 1.392 . S
N116 Co60 2.257 . S
N116 C113 1.391 . S
N116 C117 1.388 . S
C117 H88 0.930 . S
C117 C112 1.391 . S
C117 N116 1.388 . S
Co118 O120 2.143 . S
Co118 O126 2.074 . S
Co118 O129 2.093 . S
Co118 O142 2.097 . S
Co118 N159 2.151 . S
Co118 N167 2.214 . S
Co119 O120 2.160 . S
Co119 O125 2.058 . S
Co119 O135 2.057 . S
Co119 O150 2.037 . S
Co119 N154 2.145 . S
Co119 N175 2.257 . S
O120 Co118 2.143 . S
O120 Co119 2.160 . S
C121 O122 1.278 . S
C121 O129 1.224 . S
O122 C121 1.278 . S
C123 O124 1.245 . S
C123 O135 1.232 . S
O124 C123 1.245 . S
O125 Co119 2.058 . S
O125 C151 1.269 . S
O126 Co118 2.074 . S
O126 C151 1.257 . S
H127 C152 0.930 . S
H128 C158 0.930 . S
O129 Co118 2.093 . S
O129 C121 1.224 . S
H130 C162 0.929 . S
H131 C164 0.930 . S
H132 C165 0.930 . S
H133 C163 0.929 . S
H134 C166 0.928 . S
O135 Co119 2.057 . S
O135 C123 1.232 . S
H136 C155 0.929 . S
H137 C156 0.929 . S
H138 C168 0.931 . S
H139 C160 0.929 . S
H140 C169 0.930 . S
H141 C161 0.931 . S
O142 Co118 2.097 . S
O142 C170 1.214 . S
H143 C171 0.929 . S
H144 C172 0.929 . S
H145 C173 0.930 . S
H146 C174 0.929 . S
H147 C176 0.930 . S
H148 C153 0.930 . S
H149 C157 0.930 . S
O150 Co119 2.037 . S
O150 C170 1.234 . S
C151 O125 1.269 . S
C151 O126 1.257 . S
C152 H127 0.930 . S
C152 C155 1.388 . S
C152 C157 1.418 . S
C153 H148 0.930 . S
C153 C156 1.404 . S
C153 C157 1.353 . S
N154 Co119 2.145 . S
N154 C155 1.397 . S
N154 C156 1.334 . S
C155 H136 0.929 . S
C155 C152 1.388 . S
C155 N154 1.397 . S
C156 H137 0.929 . S
C156 C153 1.404 . S
C156 N154 1.334 . S
C157 H149 0.930 . S
C157 C152 1.418 . S
C157 C153 1.353 . S
C158 H128 0.930 . S
C158 N159 1.330 . S
C158 C160 1.446 . S
N159 Co118 2.151 . S
N159 C158 1.330 . S
N159 C163 1.418 . S
C160 H139 0.929 . S
C160 C158 1.446 . S
C160 C161 1.332 . S
C161 H141 0.931 . S
C161 C160 1.332 . S
C161 C162 1.267 . S
C162 H130 0.929 . S
C162 C161 1.267 . S
C162 C163 1.251 . S
C163 H133 0.929 . S
C163 N159 1.418 . S
C163 C162 1.251 . S
C164 H131 0.930 . S
C164 C166 1.406 . S
C164 C169 1.261 . S
C165 H132 0.930 . S
C165 N167 1.325 . S
C165 C168 1.357 . S
C166 H134 0.928 . S
C166 C164 1.406 . S
C166 N167 1.261 . S
N167 Co118 2.214 . S
N167 C165 1.325 . S
N167 C166 1.261 . S
C168 H138 0.931 . S
C168 C165 1.357 . S
C168 C169 1.312 . S
C169 H140 0.930 . S
C169 C164 1.261 . S
C169 C168 1.312 . S
C170 O142 1.214 . S
C170 O150 1.234 . S
C171 H143 0.929 . S
C171 C174 1.391 . S
C171 C176 1.391 . S
C172 H144 0.929 . S
C172 C173 1.390 . S
C172 N175 1.391 . S
C173 H145 0.930 . S
C173 C172 1.390 . S
C173 C174 1.392 . S
C174 H146 0.929 . S
C174 C171 1.391 . S
C174 C173 1.392 . S
N175 Co119 2.257 . S
N175 C172 1.391 . S
N175 C176 1.388 . S
C176 H147 0.930 . S
C176 C171 1.391 . S
C176 N175 1.388 . S
Co177 O179 2.143 . S
Co177 O185 2.074 . S
Co177 O188 2.093 . S
Co177 O201 2.097 . S
Co177 N218 2.151 . S
Co177 N226 2.214 . S
Co178 O179 2.160 . S
Co178 O184 2.058 . S
Co178 O194 2.057 . S
Co178 O209 2.037 . S
Co178 N213 2.145 . S
Co178 N234 2.257 . S
O179 Co177 2.143 . S
O179 Co178 2.160 . S
C180 O181 1.278 . S
C180 O188 1.224 . S
O181 C180 1.278 . S
C182 O183 1.245 . S
C182 O194 1.232 . S
O183 C182 1.245 . S
O184 Co178 2.058 . S
O184 C210 1.269 . S
O185 Co177 2.074 . S
O185 C210 1.257 . S
H186 C211 0.930 . S
H187 C217 0.930 . S
O188 Co177 2.093 . S
O188 C180 1.224 . S
H189 C221 0.929 . S
H190 C223 0.930 . S
H191 C224 0.930 . S
H192 C222 0.929 . S
H193 C225 0.928 . S
O194 Co178 2.057 . S
O194 C182 1.232 . S
H195 C214 0.929 . S
H196 C215 0.929 . S
H197 C227 0.931 . S
H198 C219 0.929 . S
H199 C228 0.930 . S
H200 C220 0.931 . S
O201 Co177 2.097 . S
O201 C229 1.214 . S
H202 C230 0.929 . S
H203 C231 0.929 . S
H204 C232 0.930 . S
H205 C233 0.929 . S
H206 C235 0.930 . S
H207 C212 0.930 . S
H208 C216 0.930 . S
O209 Co178 2.037 . S
O209 C229 1.234 . S
C210 O184 1.269 . S
C210 O185 1.257 . S
C211 H186 0.930 . S
C211 C214 1.388 . S
C211 C216 1.418 . S
C212 H207 0.930 . S
C212 C215 1.404 . S
C212 C216 1.353 . S
N213 Co178 2.145 . S
N213 C214 1.397 . S
N213 C215 1.334 . S
C214 H195 0.929 . S
C214 C211 1.388 . S
C214 N213 1.397 . S
C215 H196 0.929 . S
C215 C212 1.404 . S
C215 N213 1.334 . S
C216 H208 0.930 . S
C216 C211 1.418 . S
C216 C212 1.353 . S
C217 H187 0.930 . S
C217 N218 1.330 . S
C217 C219 1.446 . S
N218 Co177 2.151 . S
N218 C217 1.330 . S
N218 C222 1.418 . S
C219 H198 0.929 . S
C219 C217 1.446 . S
C219 C220 1.332 . S
C220 H200 0.931 . S
C220 C219 1.332 . S
C220 C221 1.267 . S
C221 H189 0.929 . S
C221 C220 1.267 . S
C221 C222 1.251 . S
C222 H192 0.929 . S
C222 N218 1.418 . S
C222 C221 1.251 . S
C223 H190 0.930 . S
C223 C225 1.406 . S
C223 C228 1.261 . S
C224 H191 0.930 . S
C224 N226 1.325 . S
C224 C227 1.357 . S
C225 H193 0.928 . S
C225 C223 1.406 . S
C225 N226 1.261 . S
N226 Co177 2.214 . S
N226 C224 1.325 . S
N226 C225 1.261 . S
C227 H197 0.931 . S
C227 C224 1.357 . S
C227 C228 1.312 . S
C228 H199 0.930 . S
C228 C223 1.261 . S
C228 C227 1.312 . S
C229 O201 1.214 . S
C229 O209 1.234 . S
C230 H202 0.929 . S
C230 C233 1.391 . S
C230 C235 1.391 . S
C231 H203 0.929 . S
C231 C232 1.390 . S
C231 N234 1.391 . S
C232 H204 0.930 . S
C232 C231 1.390 . S
C232 C233 1.392 . S
C233 H205 0.929 . S
C233 C230 1.391 . S
C233 C232 1.392 . S
N234 Co178 2.257 . S
N234 C231 1.391 . S
N234 C235 1.388 . S
C235 H206 0.930 . S
C235 C230 1.391 . S
C235 N234 1.388 . S
Co236 O238 2.143 . S
Co236 O244 2.074 . S
Co236 O247 2.093 . S
Co236 O260 2.097 . S
Co236 N277 2.151 . S
Co236 N285 2.214 . S
Co237 O238 2.160 . S
Co237 O243 2.058 . S
Co237 O253 2.057 . S
Co237 O268 2.037 . S
Co237 N272 2.145 . S
Co237 N293 2.257 . S
O238 Co236 2.143 . S
O238 Co237 2.160 . S
C239 O240 1.278 . S
C239 O247 1.224 . S
O240 C239 1.278 . S
C241 O242 1.245 . S
C241 O253 1.232 . S
O242 C241 1.245 . S
O243 Co237 2.058 . S
O243 C269 1.269 . S
O244 Co236 2.074 . S
O244 C269 1.257 . S
H245 C270 0.930 . S
H246 C276 0.930 . S
O247 Co236 2.093 . S
O247 C239 1.224 . S
H248 C280 0.929 . S
H249 C282 0.930 . S
H250 C283 0.930 . S
H251 C281 0.929 . S
H252 C284 0.928 . S
O253 Co237 2.057 . S
O253 C241 1.232 . S
H254 C273 0.929 . S
H255 C274 0.929 . S
H256 C286 0.931 . S
H257 C278 0.929 . S
H258 C287 0.930 . S
H259 C279 0.931 . S
O260 Co236 2.097 . S
O260 C288 1.214 . S
H261 C289 0.929 . S
H262 C290 0.929 . S
H263 C291 0.930 . S
H264 C292 0.929 . S
H265 C294 0.930 . S
H266 C271 0.930 . S
H267 C275 0.930 . S
O268 Co237 2.037 . S
O268 C288 1.234 . S
C269 O243 1.269 . S
C269 O244 1.257 . S
C270 H245 0.930 . S
C270 C273 1.388 . S
C270 C275 1.418 . S
C271 H266 0.930 . S
C271 C274 1.404 . S
C271 C275 1.353 . S
N272 Co237 2.145 . S
N272 C273 1.397 . S
N272 C274 1.334 . S
C273 H254 0.929 . S
C273 C270 1.388 . S
C273 N272 1.397 . S
C274 H255 0.929 . S
C274 C271 1.404 . S
C274 N272 1.334 . S
C275 H267 0.930 . S
C275 C270 1.418 . S
C275 C271 1.353 . S
C276 H246 0.930 . S
C276 N277 1.330 . S
C276 C278 1.446 . S
N277 Co236 2.151 . S
N277 C276 1.330 . S
N277 C281 1.418 . S
C278 H257 0.929 . S
C278 C276 1.446 . S
C278 C279 1.332 . S
C279 H259 0.931 . S
C279 C278 1.332 . S
C279 C280 1.267 . S
C280 H248 0.929 . S
C280 C279 1.267 . S
C280 C281 1.251 . S
C281 H251 0.929 . S
C281 N277 1.418 . S
C281 C280 1.251 . S
C282 H249 0.930 . S
C282 C284 1.406 . S
C282 C287 1.261 . S
C283 H250 0.930 . S
C283 N285 1.325 . S
C283 C286 1.357 . S
C284 H252 0.928 . S
C284 C282 1.406 . S
C284 N285 1.261 . S
N285 Co236 2.214 . S
N285 C283 1.325 . S
N285 C284 1.261 . S
C286 H256 0.931 . S
C286 C283 1.357 . S
C286 C287 1.312 . S
C287 H258 0.930 . S
C287 C282 1.261 . S
C287 C286 1.312 . S
C288 O260 1.214 . S
C288 O268 1.234 . S
C289 H261 0.929 . S
C289 C292 1.391 . S
C289 C294 1.391 . S
C290 H262 0.929 . S
C290 C291 1.390 . S
C290 N293 1.391 . S
C291 H263 0.930 . S
C291 C290 1.390 . S
C291 C292 1.392 . S
C292 H264 0.929 . S
C292 C289 1.391 . S
C292 C291 1.392 . S
N293 Co237 2.257 . S
N293 C290 1.391 . S
N293 C294 1.388 . S
C294 H265 0.930 . S
C294 C289 1.391 . S
C294 N293 1.388 . S
Co295 O297 2.143 . S
Co295 O303 2.074 . S
Co295 O306 2.093 1_556 S
Co295 O319 2.097 . S
Co295 N336 2.151 . S
Co295 N344 2.214 1_556 S
Co296 O297 2.160 . S
Co296 O302 2.058 . S
Co296 O312 2.057 . S
Co296 O327 2.037 . S
Co296 N331 2.145 . S
Co296 N352 2.257 . S
O297 Co295 2.143 . S
O297 Co296 2.160 . S
C298 O299 1.278 1_554 S
C298 O306 1.224 . S
O299 C298 1.278 1_556 S
C300 O301 1.245 . S
C300 O312 1.232 . S
O301 C300 1.245 . S
O302 Co296 2.058 . S
O302 C328 1.269 . S
O303 Co295 2.074 . S
O303 C328 1.257 . S
H304 C329 0.930 . S
H305 C335 0.930 . S
O306 Co295 2.093 1_554 S
O306 C298 1.224 . S
H307 C339 0.929 . S
H308 C341 0.930 . S
H309 C342 0.930 1_556 S
H310 C340 0.929 . S
H311 C343 0.928 . S
O312 Co296 2.057 . S
O312 C300 1.232 . S
H313 C332 0.929 . S
H314 C333 0.929 . S
H315 C345 0.931 . S
H316 C337 0.929 . S
H317 C346 0.930 . S
H318 C338 0.931 . S
O319 Co295 2.097 . S
O319 C347 1.214 . S
H320 C348 0.929 . S
H321 C349 0.929 . S
H322 C350 0.930 . S
H323 C351 0.929 . S
H324 C353 0.930 . S
H325 C330 0.930 . S
H326 C334 0.930 . S
O327 Co296 2.037 . S
O327 C347 1.234 . S
C328 O302 1.269 . S
C328 O303 1.257 . S
C329 H304 0.930 . S
C329 C332 1.388 . S
C329 C334 1.418 . S
C330 H325 0.930 . S
C330 C333 1.404 . S
C330 C334 1.353 . S
N331 Co296 2.145 . S
N331 C332 1.397 . S
N331 C333 1.334 . S
C332 H313 0.929 . S
C332 C329 1.388 . S
C332 N331 1.397 . S
C333 H314 0.929 . S
C333 C330 1.404 . S
C333 N331 1.334 . S
C334 H326 0.930 . S
C334 C329 1.418 . S
C334 C330 1.353 . S
C335 H305 0.930 . S
C335 N336 1.330 . S
C335 C337 1.446 . S
N336 Co295 2.151 . S
N336 C335 1.330 . S
N336 C340 1.418 . S
C337 H316 0.929 . S
C337 C335 1.446 . S
C337 C338 1.332 . S
C338 H318 0.931 . S
C338 C337 1.332 . S
C338 C339 1.267 . S
C339 H307 0.929 . S
C339 C338 1.267 . S
C339 C340 1.251 . S
C340 H310 0.929 . S
C340 N336 1.418 . S
C340 C339 1.251 . S
C341 H308 0.930 . S
C341 C343 1.406 . S
C341 C346 1.261 . S
C342 H309 0.930 1_554 S
C342 N344 1.325 . S
C342 C345 1.357 . S
C343 H311 0.928 . S
C343 C341 1.406 . S
C343 N344 1.261 . S
N344 Co295 2.214 1_554 S
N344 C342 1.325 . S
N344 C343 1.261 . S
C345 H315 0.931 . S
C345 C342 1.357 . S
C345 C346 1.312 . S
C346 H317 0.930 . S
C346 C341 1.261 . S
C346 C345 1.312 . S
C347 O319 1.214 . S
C347 O327 1.234 . S
C348 H320 0.929 . S
C348 C351 1.391 . S
C348 C353 1.391 . S
C349 H321 0.929 . S
C349 C350 1.390 . S
C349 N352 1.391 . S
C350 H322 0.930 . S
C350 C349 1.390 . S
C350 C351 1.392 . S
C351 H323 0.929 . S
C351 C348 1.391 . S
C351 C350 1.392 . S
N352 Co296 2.257 . S
N352 C349 1.391 . S
N352 C353 1.388 . S
C353 H324 0.930 . S
C353 C348 1.391 . S
C353 N352 1.388 . S
H354 C372 0.951 . S
H355 C374 0.951 . S
H356 C376 0.950 . S
H357 C377 0.950 . S
H358 C379 0.950 . S
H359 C382 0.950 1_455 S
H360 C383 0.950 . S
H361 C385 0.950 . S
H362 C386 0.950 . S
H363 C387 0.951 . S
H364 C389 0.951 . S
H365 C391 0.950 . S
H366 C392 0.950 . S
H367 C394 0.950 . S
H368 C397 0.950 1_655 S
H369 C398 0.950 . S
H370 C400 0.950 . S
H371 C401 0.950 . S
C372 H354 0.951 . S
C372 C373 1.366 . S
C372 C374 1.388 . S
C373 C372 1.366 . S
C373 C377 1.385 . S
C374 H355 0.951 . S
C374 C372 1.388 . S
C374 C375 1.366 . S
C375 C374 1.366 . S
C375 C376 1.414 . S
C375 C378 1.499 . S
C376 H356 0.950 . S
C376 C375 1.414 . S
C376 C377 1.374 . S
C377 H357 0.950 . S
C377 C373 1.385 . S
C377 C376 1.374 . S
C378 C375 1.499 . S
C378 C379 1.373 . S
C378 C380 1.389 1_455 S
C379 H358 0.950 . S
C379 C378 1.373 . S
C379 C395 1.377 . S
C380 C378 1.389 1_655 S
C380 C381 1.524 . S
C380 C394 1.377 . S
C381 C380 1.524 . S
C381 C382 1.397 . S
C381 C386 1.363 . S
C382 H359 0.950 1_655 S
C382 C381 1.397 . S
C382 C383 1.334 . S
C383 H360 0.950 . S
C383 C382 1.334 . S
C383 C384 1.287 . S
C384 C383 1.287 . S
C384 C385 1.524 . S
C384 H403 0.913 1_556 S
C385 H361 0.950 . S
C385 C384 1.524 . S
C385 C386 1.415 . S
C386 H362 0.950 . S
C386 C381 1.363 . S
C386 C385 1.415 . S
C387 H363 0.951 . S
C387 C388 1.366 . S
C387 C389 1.388 . S
C388 C387 1.366 . S
C388 C392 1.385 . S
C389 H364 0.951 . S
C389 C387 1.388 . S
C389 C390 1.366 . S
C390 C389 1.366 . S
C390 C391 1.414 . S
C390 C393 1.499 . S
C391 H365 0.950 . S
C391 C390 1.414 . S
C391 C392 1.374 . S
C392 H366 0.950 . S
C392 C388 1.385 . S
C392 C391 1.374 . S
C393 C390 1.499 . S
C393 C394 1.373 . S
C393 C395 1.389 1_655 S
C394 H367 0.950 . S
C394 C380 1.377 . S
C394 C393 1.373 . S
C395 C379 1.377 . S
C395 C393 1.389 1_455 S
C395 C396 1.524 . S
C396 C395 1.524 . S
C396 C397 1.397 . S
C396 C401 1.363 . S
C397 H368 0.950 1_455 S
C397 C396 1.397 . S
C397 C398 1.334 . S
C398 H369 0.950 . S
C398 C397 1.334 . S
C398 C399 1.287 . S
C399 C398 1.287 . S
C399 C400 1.524 . S
C399 H402 0.999 . S
C400 H370 0.950 . S
C400 C399 1.524 . S
C400 C401 1.415 . S
C401 H371 0.950 . S
C401 C396 1.363 . S
C401 C400 1.415 . S
H402 C399 0.999 . S
H403 C384 0.913 1_554 S
H404 C422 0.951 . S
H405 C424 0.951 . S
H406 C426 0.950 . S
H407 C427 0.950 . S
H408 C429 0.943 . S
H409 C432 0.950 . S
H410 C433 0.950 . S
H411 C435 0.950 . S
H412 C436 0.950 . S
H413 C437 0.951 . S
H414 C439 0.951 . S
H415 C441 0.950 . S
H416 C442 0.950 . S
H417 C444 0.943 . S
H418 C447 0.950 . S
H419 C448 0.950 . S
H420 C450 0.950 . S
H421 C451 0.950 . S
C422 H404 0.951 . S
C422 C423 1.366 . S
C422 C424 1.388 . S
C423 C422 1.366 . S
C423 C427 1.385 . S
C424 H405 0.951 . S
C424 C422 1.388 . S
C424 C425 1.366 . S
C425 C424 1.366 . S
C425 C426 1.414 . S
C425 C428 1.499 . S
C426 H406 0.950 . S
C426 C425 1.414 . S
C426 C427 1.374 . S
C427 H407 0.950 . S
C427 C423 1.385 . S
C427 C426 1.374 . S
C428 C425 1.499 . S
C428 C429 1.359 1_565 S
C428 C430 1.389 1_556 S
C429 H408 0.943 . S
C429 C428 1.359 1_545 S
C429 C445 1.391 . S
C430 C428 1.389 1_554 S
C430 C431 1.524 . S
C430 C444 1.375 . S
C431 C430 1.524 . S
C431 C432 1.397 . S
C431 C436 1.363 . S
C432 H409 0.950 . S
C432 C431 1.397 . S
C432 C433 1.334 . S
C433 H410 0.950 . S
C433 C432 1.334 . S
C433 C434 1.287 . S
C434 C433 1.287 . S
C434 C435 1.524 . S
C434 H453 0.913 . S
C435 H411 0.950 . S
C435 C434 1.524 . S
C435 C436 1.415 . S
C436 H412 0.950 . S
C436 C431 1.363 . S
C436 C435 1.415 . S
C437 H413 0.951 . S
C437 C438 1.366 . S
C437 C439 1.388 . S
C438 C437 1.366 . S
C438 C442 1.385 . S
C439 H414 0.951 . S
C439 C437 1.388 . S
C439 C440 1.366 . S
C440 C439 1.366 . S
C440 C441 1.414 . S
C440 C443 1.499 . S
C441 H415 0.950 . S
C441 C440 1.414 . S
C441 C442 1.374 . S
C442 H416 0.950 . S
C442 C438 1.385 . S
C442 C441 1.374 . S
C443 C440 1.499 . S
C443 C444 1.376 1_545 S
C443 C445 1.383 1_554 S
C444 H417 0.943 . S
C444 C430 1.375 . S
C444 C443 1.376 1_565 S
C445 C429 1.391 . S
C445 C443 1.383 1_556 S
C445 C446 1.525 . S
C446 C445 1.525 . S
C446 C447 1.397 . S
C446 C451 1.363 . S
C447 H418 0.950 . S
C447 C446 1.397 . S
C447 C448 1.334 . S
C448 H419 0.950 . S
C448 C447 1.334 . S
C448 C449 1.287 . S
C449 C448 1.287 . S
C449 C450 1.524 . S
C449 H452 0.999 . S
C450 H420 0.950 . S
C450 C449 1.524 . S
C450 C451 1.415 . S
C451 H421 0.950 . S
C451 C446 1.363 . S
C451 C450 1.415 . S
H452 C449 0.999 . S
H453 C434 0.913 . S
H454 C472 0.951 . S
H455 C474 0.951 . S
H456 C476 0.950 . S
H457 C477 0.950 . S
H458 C479 0.950 . S
H459 C482 0.950 . S
H460 C483 0.950 . S
H461 C485 0.950 . S
H462 C486 0.950 . S
H463 C487 0.951 . S
H464 C489 0.951 . S
H465 C491 0.950 . S
H466 C492 0.950 . S
H467 C494 0.950 . S
H468 C497 0.950 . S
H469 C498 0.950 . S
H470 C500 0.950 . S
H471 C501 0.950 . S
C472 H454 0.951 . S
C472 C473 1.366 . S
C472 C474 1.388 . S
C473 C472 1.366 . S
C473 C477 1.385 . S
C474 H455 0.951 . S
C474 C472 1.388 . S
C474 C475 1.366 . S
C475 C474 1.366 . S
C475 C476 1.414 . S
C475 C478 1.499 . S
C476 H456 0.950 . S
C476 C475 1.414 . S
C476 C477 1.374 . S
C477 H457 0.950 . S
C477 C473 1.385 . S
C477 C476 1.374 . S
C478 C475 1.499 . S
C478 C479 1.373 . S
C478 C480 1.389 . S
C479 H458 0.950 . S
C479 C478 1.373 . S
C479 C495 1.377 . S
C480 C478 1.389 . S
C480 C481 1.524 . S
C480 C494 1.377 . S
C481 C480 1.524 . S
C481 C482 1.397 . S
C481 C486 1.363 . S
C482 H459 0.950 . S
C482 C481 1.397 . S
C482 C483 1.334 . S
C483 H460 0.950 . S
C483 C482 1.334 . S
C483 C484 1.287 . S
C484 C483 1.287 . S
C484 C485 1.524 . S
C484 H503 0.913 . S
C485 H461 0.950 . S
C485 C484 1.524 . S
C485 C486 1.415 . S
C486 H462 0.950 . S
C486 C481 1.363 . S
C486 C485 1.415 . S
C487 H463 0.951 . S
C487 C488 1.366 . S
C487 C489 1.388 . S
C488 C487 1.366 . S
C488 C492 1.385 . S
C489 H464 0.951 . S
C489 C487 1.388 . S
C489 C490 1.366 . S
C490 C489 1.366 . S
C490 C491 1.414 . S
C490 C493 1.499 . S
C491 H465 0.950 . S
C491 C490 1.414 . S
C491 C492 1.374 . S
C492 H466 0.950 . S
C492 C488 1.385 . S
C492 C491 1.374 . S
C493 C490 1.499 . S
C493 C494 1.373 . S
C493 C495 1.389 . S
C494 H467 0.950 . S
C494 C480 1.377 . S
C494 C493 1.373 . S
C495 C479 1.377 . S
C495 C493 1.389 . S
C495 C496 1.524 . S
C496 C495 1.524 . S
C496 C497 1.397 . S
C496 C501 1.363 . S
C497 H468 0.950 . S
C497 C496 1.397 . S
C497 C498 1.334 . S
C498 H469 0.950 . S
C498 C497 1.334 . S
C498 C499 1.287 . S
C499 C498 1.287 . S
C499 C500 1.524 . S
C499 H502 0.999 . S
C500 H470 0.950 . S
C500 C499 1.524 . S
C500 C501 1.415 . S
C501 H471 0.950 . S
C501 C496 1.363 . S
C501 C500 1.415 . S
H502 C499 0.999 . S
H503 C484 0.913 . S
H504 C522 0.951 . S
H505 C524 0.951 . S
H506 C526 0.950 . S
H507 C527 0.950 . S
H508 C529 0.962 . S
H509 C532 0.950 . S
H510 C533 0.950 . S
H511 C535 0.950 . S
H512 C536 0.950 . S
H513 C537 0.951 . S
H514 C539 0.951 . S
H515 C541 0.950 . S
H516 C542 0.950 . S
H517 C544 0.941 . S
H518 C547 0.950 . S
H519 C548 0.950 . S
H520 C550 0.950 . S
H521 C551 0.950 . S
C522 H504 0.951 . S
C522 C523 1.366 . S
C522 C524 1.388 . S
C523 C522 1.366 . S
C523 C527 1.385 . S
C524 H505 0.951 . S
C524 C522 1.388 . S
C524 C525 1.366 . S
C525 C524 1.366 . S
C525 C526 1.414 . S
C525 C528 1.499 . S
C526 H506 0.950 . S
C526 C525 1.414 . S
C526 C527 1.374 . S
C527 H507 0.950 . S
C527 C523 1.385 . S
C527 C526 1.374 . S
C528 C525 1.499 . S
C528 C529 1.371 1_655 S
C528 C530 1.389 . S
C529 H508 0.962 . S
C529 C528 1.371 1_455 S
C529 C545 1.383 . S
C530 C528 1.389 . S
C530 C531 1.524 . S
C530 C544 1.392 . S
C531 C530 1.524 . S
C531 C532 1.397 . S
C531 C536 1.363 . S
C532 H509 0.950 . S
C532 C531 1.397 . S
C532 C533 1.334 . S
C533 H510 0.950 . S
C533 C532 1.334 . S
C533 C534 1.287 . S
C534 C533 1.287 . S
C534 C535 1.524 . S
C534 H553 0.913 . S
C535 H511 0.950 . S
C535 C534 1.524 . S
C535 C536 1.415 . S
C536 H512 0.950 . S
C536 C531 1.363 . S
C536 C535 1.415 . S
C537 H513 0.951 . S
C537 C538 1.366 . S
C537 C539 1.388 . S
C538 C537 1.366 . S
C538 C542 1.385 . S
C539 H514 0.951 . S
C539 C537 1.388 . S
C539 C540 1.366 . S
C540 C539 1.366 . S
C540 C541 1.414 . S
C540 C543 1.499 . S
C541 H515 0.950 . S
C541 C540 1.414 . S
C541 C542 1.374 . S
C542 H516 0.950 . S
C542 C538 1.385 . S
C542 C541 1.374 . S
C543 C540 1.499 . S
C543 C544 1.368 1_455 S
C543 C545 1.389 . S
C544 H517 0.941 . S
C544 C530 1.392 . S
C544 C543 1.368 1_655 S
C545 C529 1.383 . S
C545 C543 1.389 . S
C545 C546 1.524 . S
C546 C545 1.524 . S
C546 C547 1.397 . S
C546 C551 1.363 . S
C547 H518 0.950 . S
C547 C546 1.397 . S
C547 C548 1.334 . S
C548 H519 0.950 . S
C548 C547 1.334 . S
C548 C549 1.287 . S
C549 C548 1.287 . S
C549 C550 1.524 . S
C549 H552 0.999 . S
C550 H520 0.950 . S
C550 C549 1.524 . S
C550 C551 1.415 . S
C551 H521 0.950 . S
C551 C546 1.363 . S
C551 C550 1.415 . S
H552 C549 0.999 . S
H553 C534 0.913 . S
H554 C572 0.951 . S
H555 C574 0.951 . S
H556 C576 0.950 . S
H557 C577 0.950 . S
H558 C579 0.950 . S
H559 C582 0.950 . S
H560 C583 0.950 . S
H561 C585 0.950 . S
H562 C586 0.950 . S
H563 C587 0.951 . S
H564 C589 0.951 . S
H565 C591 0.950 . S
H566 C592 0.950 . S
H567 C594 0.940 . S
H568 C597 0.950 . S
H569 C598 0.950 . S
H570 C600 0.950 . S
H571 C601 0.950 . S
C572 H554 0.951 . S
C572 C573 1.366 . S
C572 C574 1.388 . S
C573 C572 1.366 . S
C573 C577 1.385 . S
C574 H555 0.951 . S
C574 C572 1.388 . S
C574 C575 1.366 . S
C575 C574 1.366 . S
C575 C576 1.414 . S
C575 C578 1.499 . S
C576 H556 0.950 . S
C576 C575 1.414 . S
C576 C577 1.374 . S
C577 H557 0.950 . S
C577 C573 1.385 . S
C577 C576 1.374 . S
C578 C575 1.499 . S
C578 C579 1.373 1_545 S
C578 C580 1.389 . S
C579 H558 0.950 . S
C579 C578 1.373 1_565 S
C579 C595 1.377 . S
C580 C578 1.389 . S
C580 C581 1.524 . S
C580 C594 1.395 . S
C581 C580 1.524 . S
C581 C582 1.397 . S
C581 C586 1.363 . S
C582 H559 0.950 . S
C582 C581 1.397 . S
C582 C583 1.334 . S
C583 H560 0.950 . S
C583 C582 1.334 . S
C583 C584 1.287 . S
C584 C583 1.287 . S
C584 C585 1.524 . S
C584 H603 0.913 . S
C585 H561 0.950 . S
C585 C584 1.524 . S
C585 C586 1.415 . S
C586 H562 0.950 . S
C586 C581 1.363 . S
C586 C585 1.415 . S
C587 H563 0.951 . S
C587 C588 1.366 . S
C587 C589 1.388 . S
C588 C587 1.366 . S
C588 C592 1.385 . S
C589 H564 0.951 . S
C589 C587 1.388 . S
C589 C590 1.366 . S
C590 C589 1.366 . S
C590 C591 1.414 . S
C590 C593 1.499 . S
C591 H565 0.950 . S
C591 C590 1.414 . S
C591 C592 1.374 . S
C592 H566 0.950 . S
C592 C588 1.385 . S
C592 C591 1.374 . S
C593 C590 1.499 . S
C593 C594 1.366 1_565 S
C593 C595 1.389 . S
C594 H567 0.940 . S
C594 C580 1.395 . S
C594 C593 1.366 1_545 S
C595 C579 1.377 . S
C595 C593 1.389 . S
C595 C596 1.524 . S
C596 C595 1.524 . S
C596 C597 1.397 . S
C596 C601 1.363 . S
C597 H568 0.950 . S
C597 C596 1.397 . S
C597 C598 1.334 . S
C598 H569 0.950 . S
C598 C597 1.334 . S
C598 C599 1.287 . S
C599 C598 1.287 . S
C599 C600 1.524 . S
C599 H602 0.999 . S
C600 H570 0.950 . S
C600 C599 1.524 . S
C600 C601 1.415 . S
C601 H571 0.950 . S
C601 C596 1.363 . S
C601 C600 1.415 . S
H602 C599 0.999 . S
H603 C584 0.913 . S
H604 C622 0.951 . S
H605 C624 0.951 . S
H606 C626 0.950 . S
H607 C627 0.950 . S
H608 C629 0.950 . S
H609 C632 0.950 . S
H610 C633 0.950 . S
H611 C635 0.950 . S
H612 C636 0.950 . S
H613 C637 0.951 . S
H614 C639 0.951 . S
H615 C641 0.950 . S
H616 C642 0.950 . S
H617 C644 0.950 . S
H618 C647 0.950 . S
H619 C648 0.950 . S
H620 C650 0.950 . S
H621 C651 0.950 . S
C622 H604 0.951 . S
C622 C623 1.366 . S
C622 C624 1.388 . S
C623 C622 1.366 . S
C623 C627 1.385 . S
C624 H605 0.951 . S
C624 C622 1.388 . S
C624 C625 1.366 . S
C625 C624 1.366 . S
C625 C626 1.414 . S
C625 C628 1.499 . S
C626 H606 0.950 . S
C626 C625 1.414 . S
C626 C627 1.374 . S
C627 H607 0.950 . S
C627 C623 1.385 . S
C627 C626 1.374 . S
C628 C625 1.499 . S
C628 C629 1.373 . S
C628 C630 1.389 . S
C629 H608 0.950 . S
C629 C628 1.373 . S
C629 C645 1.377 . S
C630 C628 1.389 . S
C630 C631 1.524 . S
C630 C644 1.377 . S
C631 C630 1.524 . S
C631 C632 1.397 . S
C631 C636 1.363 . S
C632 H609 0.950 . S
C632 C631 1.397 . S
C632 C633 1.334 . S
C633 H610 0.950 . S
C633 C632 1.334 . S
C633 C634 1.287 . S
C634 C633 1.287 . S
C634 C635 1.524 . S
C634 H653 0.913 . S
C635 H611 0.950 . S
C635 C634 1.524 . S
C635 C636 1.415 . S
C636 H612 0.950 . S
C636 C631 1.363 . S
C636 C635 1.415 . S
C637 H613 0.951 . S
C637 C638 1.366 . S
C637 C639 1.388 . S
C638 C637 1.366 . S
C638 C642 1.385 . S
C639 H614 0.951 . S
C639 C637 1.388 . S
C639 C640 1.366 . S
C640 C639 1.366 . S
C640 C641 1.414 . S
C640 C643 1.499 . S
C641 H615 0.950 . S
C641 C640 1.414 . S
C641 C642 1.374 . S
C642 H616 0.950 . S
C642 C638 1.385 . S
C642 C641 1.374 . S
C643 C640 1.499 . S
C643 C644 1.373 . S
C643 C645 1.389 . S
C644 H617 0.950 . S
C644 C630 1.377 . S
C644 C643 1.373 . S
C645 C629 1.377 . S
C645 C643 1.389 . S
C645 C646 1.524 . S
C646 C645 1.524 . S
C646 C647 1.397 . S
C646 C651 1.363 . S
C647 H618 0.950 . S
C647 C646 1.397 . S
C647 C648 1.334 . S
C648 H619 0.950 . S
C648 C647 1.334 . S
C648 C649 1.287 . S
C649 C648 1.287 . S
C649 C650 1.524 . S
C649 H652 0.999 . S
C650 H620 0.950 . S
C650 C649 1.524 . S
C650 C651 1.415 . S
C651 H621 0.950 . S
C651 C646 1.363 . S
C651 C650 1.415 . S
H652 C649 0.999 . S
H653 C634 0.913 . S
H654 C672 0.951 . S
H655 C674 0.951 . S
H656 C676 0.950 . S
H657 C677 0.950 . S
H658 C679 0.950 . S
H659 C682 0.950 . S
H660 C683 0.950 . S
H661 C685 0.950 . S
H662 C686 0.950 . S
H663 C687 0.951 . S
H664 C689 0.951 . S
H665 C691 0.950 . S
H666 C692 0.950 . S
H667 C694 0.950 . S
H668 C697 0.950 . S
H669 C698 0.950 . S
H670 C700 0.950 . S
H671 C701 0.950 . S
C672 H654 0.951 . S
C672 C673 1.366 . S
C672 C674 1.388 . S
C673 C672 1.366 . S
C673 C677 1.385 . S
C674 H655 0.951 . S
C674 C672 1.388 . S
C674 C675 1.366 . S
C675 C674 1.366 . S
C675 C676 1.414 . S
C675 C678 1.499 . S
C676 H656 0.950 . S
C676 C675 1.414 . S
C676 C677 1.374 . S
C677 H657 0.950 . S
C677 C673 1.385 . S
C677 C676 1.374 . S
C678 C675 1.499 . S
C678 C679 1.373 . S
C678 C680 1.389 . S
C679 H658 0.950 . S
C679 C678 1.373 . S
C679 C695 1.377 . S
C680 C678 1.389 . S
C680 C681 1.524 . S
C680 C694 1.377 . S
C681 C680 1.524 . S
C681 C682 1.397 . S
C681 C686 1.363 . S
C682 H659 0.950 . S
C682 C681 1.397 . S
C682 C683 1.334 . S
C683 H660 0.950 . S
C683 C682 1.334 . S
C683 C684 1.287 . S
C684 C683 1.287 . S
C684 C685 1.524 . S
C684 H703 0.913 . S
C685 H661 0.950 . S
C685 C684 1.524 . S
C685 C686 1.415 . S
C686 H662 0.950 . S
C686 C681 1.363 . S
C686 C685 1.415 . S
C687 H663 0.951 . S
C687 C688 1.366 . S
C687 C689 1.388 . S
C688 C687 1.366 . S
C688 C692 1.385 . S
C689 H664 0.951 . S
C689 C687 1.388 . S
C689 C690 1.366 . S
C690 C689 1.366 . S
C690 C691 1.414 . S
C690 C693 1.499 . S
C691 H665 0.950 . S
C691 C690 1.414 . S
C691 C692 1.374 . S
C692 H666 0.950 . S
C692 C688 1.385 . S
C692 C691 1.374 . S
C693 C690 1.499 . S
C693 C694 1.373 . S
C693 C695 1.389 . S
C694 H667 0.950 . S
C694 C680 1.377 . S
C694 C693 1.373 . S
C695 C679 1.377 . S
C695 C693 1.389 . S
C695 C696 1.524 . S
C696 C695 1.524 . S
C696 C697 1.397 . S
C696 C701 1.363 . S
C697 H668 0.950 . S
C697 C696 1.397 . S
C697 C698 1.334 . S
C698 H669 0.950 . S
C698 C697 1.334 . S
C698 C699 1.287 . S
C699 C698 1.287 . S
C699 C700 1.524 . S
C699 H702 0.999 . S
C700 H670 0.950 . S
C700 C699 1.524 . S
C700 C701 1.415 . S
C701 H671 0.950 . S
C701 C696 1.363 . S
C701 C700 1.415 . S
H702 C699 0.999 . S
H703 C684 0.913 . S
H704 C722 0.951 . S
H705 C724 0.951 . S
H706 C726 0.950 . S
H707 C727 0.950 . S
H708 C729 0.950 . S
H709 C732 0.950 . S
H710 C733 0.950 . S
H711 C735 0.950 . S
H712 C736 0.950 . S
H713 C737 0.951 . S
H714 C739 0.951 . S
H715 C741 0.950 . S
H716 C742 0.950 . S
H717 C744 0.950 . S
H718 C747 0.950 . S
H719 C748 0.950 . S
H720 C750 0.950 . S
H721 C751 0.950 . S
C722 H704 0.951 . S
C722 C723 1.366 . S
C722 C724 1.388 . S
C723 C722 1.366 . S
C723 C727 1.385 . S
C724 H705 0.951 . S
C724 C722 1.388 . S
C724 C725 1.366 . S
C725 C724 1.366 . S
C725 C726 1.414 . S
C725 C728 1.499 . S
C726 H706 0.950 . S
C726 C725 1.414 . S
C726 C727 1.374 . S
C727 H707 0.950 . S
C727 C723 1.385 . S
C727 C726 1.374 . S
C728 C725 1.499 . S
C728 C729 1.373 . S
C728 C730 1.389 . S
C729 H708 0.950 . S
C729 C728 1.373 . S
C729 C745 1.377 . S
C730 C728 1.389 . S
C730 C731 1.524 . S
C730 C744 1.377 . S
C731 C730 1.524 . S
C731 C732 1.397 . S
C731 C736 1.363 . S
C732 H709 0.950 . S
C732 C731 1.397 . S
C732 C733 1.334 . S
C733 H710 0.950 . S
C733 C732 1.334 . S
C733 C734 1.287 . S
C734 C733 1.287 . S
C734 C735 1.524 . S
C734 H753 0.913 . S
C735 H711 0.950 . S
C735 C734 1.524 . S
C735 C736 1.415 . S
C736 H712 0.950 . S
C736 C731 1.363 . S
C736 C735 1.415 . S
C737 H713 0.951 . S
C737 C738 1.366 . S
C737 C739 1.388 . S
C738 C737 1.366 . S
C738 C742 1.385 . S
C739 H714 0.951 . S
C739 C737 1.388 . S
C739 C740 1.366 . S
C740 C739 1.366 . S
C740 C741 1.414 . S
C740 C743 1.499 . S
C741 H715 0.950 . S
C741 C740 1.414 . S
C741 C742 1.374 . S
C742 H716 0.950 . S
C742 C738 1.385 . S
C742 C741 1.374 . S
C743 C740 1.499 . S
C743 C744 1.373 . S
C743 C745 1.389 . S
C744 H717 0.950 . S
C744 C730 1.377 . S
C744 C743 1.373 . S
C745 C729 1.377 . S
C745 C743 1.389 . S
C745 C746 1.524 . S
C746 C745 1.524 . S
C746 C747 1.397 . S
C746 C751 1.363 . S
C747 H718 0.950 . S
C747 C746 1.397 . S
C747 C748 1.334 . S
C748 H719 0.950 . S
C748 C747 1.334 . S
C748 C749 1.287 . S
C749 C748 1.287 . S
C749 C750 1.524 . S
C749 H752 0.999 . S
C750 H720 0.950 . S
C750 C749 1.524 . S
C750 C751 1.415 . S
C751 H721 0.950 . S
C751 C746 1.363 . S
C751 C750 1.415 . S
H752 C749 0.999 . S
H753 C734 0.913 . S
H754 C772 0.951 . S
H755 C774 0.951 . S
H756 C776 0.950 . S
H757 C777 0.950 . S
H758 C779 0.950 . S
H759 C782 0.950 . S
H760 C783 0.950 . S
H761 C785 0.950 . S
H762 C786 0.950 . S
H763 C787 0.951 . S
H764 C789 0.951 . S
H765 C791 0.950 . S
H766 C792 0.950 . S
H767 C794 0.950 . S
H768 C797 0.950 . S
H769 C798 0.950 . S
H770 C800 0.950 . S
H771 C801 0.950 . S
C772 H754 0.951 . S
C772 C773 1.366 . S
C772 C774 1.388 . S
C773 C772 1.366 . S
C773 C777 1.385 . S
C774 H755 0.951 . S
C774 C772 1.388 . S
C774 C775 1.366 . S
C775 C774 1.366 . S
C775 C776 1.414 . S
C775 C778 1.499 . S
C776 H756 0.950 . S
C776 C775 1.414 . S
C776 C777 1.374 . S
C777 H757 0.950 . S
C777 C773 1.385 . S
C777 C776 1.374 . S
C778 C775 1.499 . S
C778 C779 1.373 . S
C778 C780 1.389 . S
C779 H758 0.950 . S
C779 C778 1.373 . S
C779 C795 1.377 . S
C780 C778 1.389 . S
C780 C781 1.524 . S
C780 C794 1.377 . S
C781 C780 1.524 . S
C781 C782 1.397 . S
C781 C786 1.363 . S
C782 H759 0.950 . S
C782 C781 1.397 . S
C782 C783 1.334 . S
C783 H760 0.950 . S
C783 C782 1.334 . S
C783 C784 1.287 . S
C784 C783 1.287 . S
C784 C785 1.524 . S
C784 H803 0.913 . S
C785 H761 0.950 . S
C785 C784 1.524 . S
C785 C786 1.415 . S
C786 H762 0.950 . S
C786 C781 1.363 . S
C786 C785 1.415 . S
C787 H763 0.951 . S
C787 C788 1.366 . S
C787 C789 1.388 . S
C788 C787 1.366 . S
C788 C792 1.385 . S
C789 H764 0.951 . S
C789 C787 1.388 . S
C789 C790 1.366 . S
C790 C789 1.366 . S
C790 C791 1.414 . S
C790 C793 1.499 . S
C791 H765 0.950 . S
C791 C790 1.414 . S
C791 C792 1.374 . S
C792 H766 0.950 . S
C792 C788 1.385 . S
C792 C791 1.374 . S
C793 C790 1.499 . S
C793 C794 1.373 . S
C793 C795 1.389 . S
C794 H767 0.950 . S
C794 C780 1.377 . S
C794 C793 1.373 . S
C795 C779 1.377 . S
C795 C793 1.389 . S
C795 C796 1.524 . S
C796 C795 1.524 . S
C796 C797 1.397 . S
C796 C801 1.363 . S
C797 H768 0.950 . S
C797 C796 1.397 . S
C797 C798 1.334 . S
C798 H769 0.950 . S
C798 C797 1.334 . S
C798 C799 1.287 . S
C799 C798 1.287 . S
C799 C800 1.524 . S
C799 H802 0.999 . S
C800 H770 0.950 . S
C800 C799 1.524 . S
C800 C801 1.415 . S
C801 H771 0.950 . S
C801 C796 1.363 . S
C801 C800 1.415 . S
H802 C799 0.999 . S
H803 C784 0.913 . S
H804 C822 0.951 . S
H805 C824 0.951 . S
H806 C826 0.950 . S
H807 C827 0.950 . S
H808 C829 0.950 . S
H809 C832 0.950 . S
H810 C833 0.950 . S
H811 C835 0.950 . S
H812 C836 0.950 . S
H813 C837 0.951 . S
H814 C839 0.951 . S
H815 C841 0.950 . S
H816 C842 0.950 . S
H817 C844 0.950 . S
H818 C847 0.950 . S
H819 C848 0.950 . S
H820 C850 0.950 . S
H821 C851 0.950 . S
C822 H804 0.951 . S
C822 C823 1.366 . S
C822 C824 1.388 . S
C823 C822 1.366 . S
C823 C827 1.385 . S
C824 H805 0.951 . S
C824 C822 1.388 . S
C824 C825 1.366 . S
C825 C824 1.366 . S
C825 C826 1.414 . S
C825 C828 1.499 . S
C826 H806 0.950 . S
C826 C825 1.414 . S
C826 C827 1.374 . S
C827 H807 0.950 . S
C827 C823 1.385 . S
C827 C826 1.374 . S
C828 C825 1.499 . S
C828 C829 1.373 . S
C828 C830 1.389 . S
C829 H808 0.950 . S
C829 C828 1.373 . S
C829 C845 1.377 . S
C830 C828 1.389 . S
C830 C831 1.524 . S
C830 C844 1.377 . S
C831 C830 1.524 . S
C831 C832 1.397 . S
C831 C836 1.363 . S
C832 H809 0.950 . S
C832 C831 1.397 . S
C832 C833 1.334 . S
C833 H810 0.950 . S
C833 C832 1.334 . S
C833 C834 1.287 . S
C834 C833 1.287 . S
C834 C835 1.524 . S
C834 H853 0.913 . S
C835 H811 0.950 . S
C835 C834 1.524 . S
C835 C836 1.415 . S
C836 H812 0.950 . S
C836 C831 1.363 . S
C836 C835 1.415 . S
C837 H813 0.951 . S
C837 C838 1.366 . S
C837 C839 1.388 . S
C838 C837 1.366 . S
C838 C842 1.385 . S
C839 H814 0.951 . S
C839 C837 1.388 . S
C839 C840 1.366 . S
C840 C839 1.366 . S
C840 C841 1.414 . S
C840 C843 1.499 . S
C841 H815 0.950 . S
C841 C840 1.414 . S
C841 C842 1.374 . S
C842 H816 0.950 . S
C842 C838 1.385 . S
C842 C841 1.374 . S
C843 C840 1.499 . S
C843 C844 1.373 . S
C843 C845 1.389 . S
C844 H817 0.950 . S
C844 C830 1.377 . S
C844 C843 1.373 . S
C845 C829 1.377 . S
C845 C843 1.389 . S
C845 C846 1.524 . S
C846 C845 1.524 . S
C846 C847 1.397 . S
C846 C851 1.363 . S
C847 H818 0.950 . S
C847 C846 1.397 . S
C847 C848 1.334 . S
C848 H819 0.950 . S
C848 C847 1.334 . S
C848 C849 1.287 . S
C849 C848 1.287 . S
C849 C850 1.524 . S
C849 H852 0.999 . S
C850 H820 0.950 . S
C850 C849 1.524 . S
C850 C851 1.415 . S
C851 H821 0.950 . S
C851 C846 1.363 . S
C851 C850 1.415 . S
H852 C849 0.999 . S
H853 C834 0.913 . S
H854 C872 0.951 . S
H855 C874 0.951 . S
H856 C876 0.950 . S
H857 C877 0.950 . S
H858 C879 0.950 . S
H859 C882 0.950 . S
H860 C883 0.950 . S
H861 C885 0.950 . S
H862 C886 0.950 . S
H863 C887 0.951 . S
H864 C889 0.951 . S
H865 C891 0.950 . S
H866 C892 0.950 . S
H867 C894 0.950 . S
H868 C897 0.950 1_554 S
H869 C898 0.950 . S
H870 C900 0.950 . S
H871 C901 0.950 . S
C872 H854 0.951 . S
C872 C873 1.366 . S
C872 C874 1.388 . S
C873 C872 1.366 . S
C873 C877 1.385 . S
C874 H855 0.951 . S
C874 C872 1.388 . S
C874 C875 1.366 . S
C875 C874 1.366 . S
C875 C876 1.414 . S
C875 C878 1.499 . S
C876 H856 0.950 . S
C876 C875 1.414 . S
C876 C877 1.374 . S
C877 H857 0.950 . S
C877 C873 1.385 . S
C877 C876 1.374 . S
C878 C875 1.499 . S
C878 C879 1.373 . S
C878 C880 1.389 . S
C879 H858 0.950 . S
C879 C878 1.373 . S
C879 C895 1.377 . S
C880 C878 1.389 . S
C880 C881 1.524 . S
C880 C894 1.377 . S
C881 C880 1.524 . S
C881 C882 1.397 . S
C881 C886 1.363 . S
C882 H859 0.950 . S
C882 C881 1.397 . S
C882 C883 1.334 . S
C883 H860 0.950 . S
C883 C882 1.334 . S
C883 C884 1.287 . S
C884 C883 1.287 . S
C884 C885 1.524 . S
C884 H903 0.913 . S
C885 H861 0.950 . S
C885 C884 1.524 . S
C885 C886 1.415 . S
C886 H862 0.950 . S
C886 C881 1.363 . S
C886 C885 1.415 . S
C887 H863 0.951 . S
C887 C888 1.366 1_556 S
C887 C889 1.388 . S
C888 C887 1.366 1_554 S
C888 C892 1.385 . S
C889 H864 0.951 . S
C889 C887 1.388 . S
C889 C890 1.366 . S
C890 C889 1.366 . S
C890 C891 1.414 1_556 S
C890 C893 1.499 . S
C891 H865 0.950 . S
C891 C890 1.414 1_554 S
C891 C892 1.374 . S
C892 H866 0.950 . S
C892 C888 1.385 . S
C892 C891 1.374 . S
C893 C890 1.499 . S
C893 C894 1.373 . S
C893 C895 1.389 . S
C894 H867 0.950 . S
C894 C880 1.377 . S
C894 C893 1.373 . S
C895 C879 1.377 . S
C895 C893 1.389 . S
C895 C896 1.524 . S
C896 C895 1.524 . S
C896 C897 1.397 . S
C896 C901 1.363 . S
C897 H868 0.950 1_556 S
C897 C896 1.397 . S
C897 C898 1.334 1_556 S
C898 H869 0.950 . S
C898 C897 1.334 1_554 S
C898 C899 1.287 1_554 S
C899 C898 1.287 1_556 S
C899 C900 1.524 . S
C899 H902 0.999 . S
C900 H870 0.950 . S
C900 C899 1.524 . S
C900 C901 1.415 . S
C901 H871 0.950 . S
C901 C896 1.363 . S
C901 C900 1.415 . S
H902 C899 0.999 . S
H903 C884 0.913 . S
H904 C922 0.951 . S
H905 C924 0.951 . S
H906 C926 0.950 . S
H907 C927 0.950 . S
H908 C929 0.950 . S
H909 C932 0.950 . S
H910 C933 0.950 . S
H911 C935 0.950 . S
H912 C936 0.950 . S
H913 C937 0.951 . S
H914 C939 0.951 . S
H915 C941 0.950 . S
H916 C942 0.950 . S
H917 C944 0.950 . S
H918 C947 0.950 . S
H919 C948 0.950 . S
H920 C950 0.950 . S
H921 C951 0.950 . S
C922 H904 0.951 . S
C922 C923 1.366 1_554 S
C922 C924 1.388 . S
C923 C922 1.366 1_556 S
C923 C927 1.385 . S
C924 H905 0.951 . S
C924 C922 1.388 . S
C924 C925 1.366 . S
C925 C924 1.366 . S
C925 C926 1.414 1_554 S
C925 C928 1.499 . S
C926 H906 0.950 . S
C926 C925 1.414 1_556 S
C926 C927 1.374 . S
C927 H907 0.950 . S
C927 C923 1.385 . S
C927 C926 1.374 . S
C928 C925 1.499 . S
C928 C929 1.373 . S
C928 C930 1.389 . S
C929 H908 0.950 . S
C929 C928 1.373 . S
C929 C945 1.377 . S
C930 C928 1.389 . S
C930 C931 1.524 . S
C930 C944 1.377 . S
C931 C930 1.524 . S
C931 C932 1.397 1_554 S
C931 C936 1.363 . S
C932 H909 0.950 . S
C932 C931 1.397 1_556 S
C932 C933 1.334 . S
C933 H910 0.950 . S
C933 C932 1.334 . S
C933 C934 1.287 . S
C934 C933 1.287 . S
C934 C935 1.524 1_556 S
C934 H953 0.913 . S
C935 H911 0.950 . S
C935 C934 1.524 1_554 S
C935 C936 1.415 . S
C936 H912 0.950 . S
C936 C931 1.363 . S
C936 C935 1.415 . S
C937 H913 0.951 . S
C937 C938 1.366 . S
C937 C939 1.388 . S
C938 C937 1.366 . S
C938 C942 1.385 . S
C939 H914 0.951 . S
C939 C937 1.388 . S
C939 C940 1.366 . S
C940 C939 1.366 . S
C940 C941 1.414 . S
C940 C943 1.499 . S
C941 H915 0.950 . S
C941 C940 1.414 . S
C941 C942 1.374 . S
C942 H916 0.950 . S
C942 C938 1.385 . S
C942 C941 1.374 . S
C943 C940 1.499 . S
C943 C944 1.373 . S
C943 C945 1.389 . S
C944 H917 0.950 . S
C944 C930 1.377 . S
C944 C943 1.373 . S
C945 C929 1.377 . S
C945 C943 1.389 . S
C945 C946 1.524 . S
C946 C945 1.524 . S
C946 C947 1.397 . S
C946 C951 1.363 . S
C947 H918 0.950 . S
C947 C946 1.397 . S
C947 C948 1.334 . S
C948 H919 0.950 . S
C948 C947 1.334 . S
C948 C949 1.287 . S
C949 C948 1.287 . S
C949 C950 1.524 . S
C949 H952 0.999 . S
C950 H920 0.950 . S
C950 C949 1.524 . S
C950 C951 1.415 . S
C951 H921 0.950 . S
C951 C946 1.363 . S
C951 C950 1.415 . S
H952 C949 0.999 . S
H953 C934 0.913 . S
C373 C3 1.233 . S
C388 C182 1.238 . S
C423 C241 1.240 . S
C438 C62 1.235 . S
C473 C123 1.239 . S
C488 C298 1.234 . S
C523 C180 1.233 . S
C538 C5 1.238 . S
C573 C64 1.240 . S
C588 C239 1.234 . S
C623 C300 1.239 . S
C638 C121 1.234 . S
C673 C33 1.492 . S
C688 C151 1.492 . S
C723 C92 1.495 . S
C738 C229 1.496 . S
C773 C288 1.498 . S
C788 C170 1.498 . S
C823 C328 1.492 . S
C838 C210 1.492 . S
C873 C269 1.495 . S
C888 C52 1.496 . S
C923 C347 1.498 . S
C938 C111 1.498 . S
