# Generated by pormake.
# Topology sxi, (6)-cn, num edge types: 1
# Building blocks:
#     Node 0, Type 0, BuildingBlock: OJICUG_clean_sbu_0, # of connection points: 6
#     Node 1, Type 0, BuildingBlock: OJICUG_clean_sbu_0, # of connection points: 6
#     Node 2, Type 0, BuildingBlock: OJICUG_clean_sbu_0, # of connection points: 6
#     Node 3, Type 0, BuildingBlock: OJICUG_clean_sbu_0, # of connection points: 6
#     Node 4, Type 0, BuildingBlock: OJICUG_clean_sbu_0, # of connection points: 6
#     Node 5, Type 0, BuildingBlock: OJICUG_clean_sbu_0, # of connection points: 6
#     Node 6, Type 0, BuildingBlock: OJICUG_clean_sbu_0, # of connection points: 6
#     Node 7, Type 0, BuildingBlock: OJICUG_clean_sbu_0, # of connection points: 6
#     Node 8, Type 0, BuildingBlock: OJICUG_clean_sbu_0, # of connection points: 6
#     Node 9, Type 0, BuildingBlock: OJICUG_clean_sbu_0, # of connection points: 6
#     Node 10, Type 0, BuildingBlock: OJICUG_clean_sbu_0, # of connection points: 6
#     Node 11, Type 0, BuildingBlock: OJICUG_clean_sbu_0, # of connection points: 6
#     Node 12, Type 0, BuildingBlock: OJICUG_clean_sbu_0, # of connection points: 6
#     Node 13, Type 0, BuildingBlock: OJICUG_clean_sbu_0, # of connection points: 6
#     Node 14, Type 0, BuildingBlock: OJICUG_clean_sbu_0, # of connection points: 6
#     Node 15, Type 0, BuildingBlock: OJICUG_clean_sbu_0, # of connection points: 6
#     Node 16, Type 0, BuildingBlock: OJICUG_clean_sbu_0, # of connection points: 6
#     Node 17, Type 0, BuildingBlock: OJICUG_clean_sbu_0, # of connection points: 6
#     Node 18, Type 0, BuildingBlock: OJICUG_clean_sbu_0, # of connection points: 6
#     Node 19, Type 0, BuildingBlock: OJICUG_clean_sbu_0, # of connection points: 6
#     Node 20, Type 0, BuildingBlock: OJICUG_clean_sbu_0, # of connection points: 6
#     Node 21, Type 0, BuildingBlock: OJICUG_clean_sbu_0, # of connection points: 6
#     Node 22, Type 0, BuildingBlock: OJICUG_clean_sbu_0, # of connection points: 6
#     Node 23, Type 0, BuildingBlock: OJICUG_clean_sbu_0, # of connection points: 6
#     Edge 24, Type (0, 0), BuildingBlock: CIFDUS_clean_linker_0, # of connection points: 2
#     Edge 25, Type (0, 0), BuildingBlock: CIFDUS_clean_linker_0, # of connection points: 2
#     Edge 26, Type (0, 0), BuildingBlock: CIFDUS_clean_linker_0, # of connection points: 2
#     Edge 27, Type (0, 0), BuildingBlock: CIFDUS_clean_linker_0, # of connection points: 2
#     Edge 28, Type (0, 0), BuildingBlock: CIFDUS_clean_linker_0, # of connection points: 2
#     Edge 29, Type (0, 0), BuildingBlock: CIFDUS_clean_linker_0, # of connection points: 2
#     Edge 30, Type (0, 0), BuildingBlock: CIFDUS_clean_linker_0, # of connection points: 2
#     Edge 31, Type (0, 0), BuildingBlock: CIFDUS_clean_linker_0, # of connection points: 2
#     Edge 32, Type (0, 0), BuildingBlock: CIFDUS_clean_linker_0, # of connection points: 2
#     Edge 33, Type (0, 0), BuildingBlock: CIFDUS_clean_linker_0, # of connection points: 2
#     Edge 34, Type (0, 0), BuildingBlock: CIFDUS_clean_linker_0, # of connection points: 2
#     Edge 35, Type (0, 0), BuildingBlock: CIFDUS_clean_linker_0, # of connection points: 2
#     Edge 36, Type (0, 0), BuildingBlock: CIFDUS_clean_linker_0, # of connection points: 2
#     Edge 37, Type (0, 0), BuildingBlock: CIFDUS_clean_linker_0, # of connection points: 2
#     Edge 38, Type (0, 0), BuildingBlock: CIFDUS_clean_linker_0, # of connection points: 2
#     Edge 39, Type (0, 0), BuildingBlock: CIFDUS_clean_linker_0, # of connection points: 2
#     Edge 40, Type (0, 0), BuildingBlock: CIFDUS_clean_linker_0, # of connection points: 2
#     Edge 41, Type (0, 0), BuildingBlock: CIFDUS_clean_linker_0, # of connection points: 2
#     Edge 42, Type (0, 0), BuildingBlock: CIFDUS_clean_linker_0, # of connection points: 2
#     Edge 43, Type (0, 0), BuildingBlock: CIFDUS_clean_linker_0, # of connection points: 2
#     Edge 44, Type (0, 0), BuildingBlock: CIFDUS_clean_linker_0, # of connection points: 2
#     Edge 45, Type (0, 0), BuildingBlock: CIFDUS_clean_linker_0, # of connection points: 2
#     Edge 46, Type (0, 0), BuildingBlock: CIFDUS_clean_linker_0, # of connection points: 2
#     Edge 47, Type (0, 0), BuildingBlock: CIFDUS_clean_linker_0, # of connection points: 2
#     Edge 48, Type (0, 0), BuildingBlock: CIFDUS_clean_linker_0, # of connection points: 2
#     Edge 49, Type (0, 0), BuildingBlock: CIFDUS_clean_linker_0, # of connection points: 2
#     Edge 50, Type (0, 0), BuildingBlock: CIFDUS_clean_linker_0, # of connection points: 2
#     Edge 51, Type (0, 0), BuildingBlock: CIFDUS_clean_linker_0, # of connection points: 2
#     Edge 52, Type (0, 0), BuildingBlock: CIFDUS_clean_linker_0, # of connection points: 2
#     Edge 53, Type (0, 0), BuildingBlock: CIFDUS_clean_linker_0, # of connection points: 2
#     Edge 54, Type (0, 0), BuildingBlock: CIFDUS_clean_linker_0, # of connection points: 2
#     Edge 55, Type (0, 0), BuildingBlock: CIFDUS_clean_linker_0, # of connection points: 2
#     Edge 56, Type (0, 0), BuildingBlock: CIFDUS_clean_linker_0, # of connection points: 2
#     Edge 57, Type (0, 0), BuildingBlock: CIFDUS_clean_linker_0, # of connection points: 2
#     Edge 58, Type (0, 0), BuildingBlock: CIFDUS_clean_linker_0, # of connection points: 2
#     Edge 59, Type (0, 0), BuildingBlock: CIFDUS_clean_linker_0, # of connection points: 2
#     Edge 60, Type (0, 0), BuildingBlock: CIFDUS_clean_linker_0, # of connection points: 2
#     Edge 61, Type (0, 0), BuildingBlock: CIFDUS_clean_linker_0, # of connection points: 2
#     Edge 62, Type (0, 0), BuildingBlock: CIFDUS_clean_linker_0, # of connection points: 2
#     Edge 63, Type (0, 0), BuildingBlock: CIFDUS_clean_linker_0, # of connection points: 2
#     Edge 64, Type (0, 0), BuildingBlock: CIFDUS_clean_linker_0, # of connection points: 2
#     Edge 65, Type (0, 0), BuildingBlock: CIFDUS_clean_linker_0, # of connection points: 2
#     Edge 66, Type (0, 0), BuildingBlock: CIFDUS_clean_linker_0, # of connection points: 2
#     Edge 67, Type (0, 0), BuildingBlock: CIFDUS_clean_linker_0, # of connection points: 2
#     Edge 68, Type (0, 0), BuildingBlock: CIFDUS_clean_linker_0, # of connection points: 2
#     Edge 69, Type (0, 0), BuildingBlock: CIFDUS_clean_linker_0, # of connection points: 2
#     Edge 70, Type (0, 0), BuildingBlock: CIFDUS_clean_linker_0, # of connection points: 2
#     Edge 71, Type (0, 0), BuildingBlock: CIFDUS_clean_linker_0, # of connection points: 2
#     Edge 72, Type (0, 0), BuildingBlock: CIFDUS_clean_linker_0, # of connection points: 2
#     Edge 73, Type (0, 0), BuildingBlock: CIFDUS_clean_linker_0, # of connection points: 2
#     Edge 74, Type (0, 0), BuildingBlock: CIFDUS_clean_linker_0, # of connection points: 2
#     Edge 75, Type (0, 0), BuildingBlock: CIFDUS_clean_linker_0, # of connection points: 2
#     Edge 76, Type (0, 0), BuildingBlock: CIFDUS_clean_linker_0, # of connection points: 2
#     Edge 77, Type (0, 0), BuildingBlock: CIFDUS_clean_linker_0, # of connection points: 2
#     Edge 78, Type (0, 0), BuildingBlock: CIFDUS_clean_linker_0, # of connection points: 2
#     Edge 79, Type (0, 0), BuildingBlock: CIFDUS_clean_linker_0, # of connection points: 2
#     Edge 80, Type (0, 0), BuildingBlock: CIFDUS_clean_linker_0, # of connection points: 2
#     Edge 81, Type (0, 0), BuildingBlock: CIFDUS_clean_linker_0, # of connection points: 2
#     Edge 82, Type (0, 0), BuildingBlock: CIFDUS_clean_linker_0, # of connection points: 2
#     Edge 83, Type (0, 0), BuildingBlock: CIFDUS_clean_linker_0, # of connection points: 2
#     Edge 84, Type (0, 0), BuildingBlock: CIFDUS_clean_linker_0, # of connection points: 2
#     Edge 85, Type (0, 0), BuildingBlock: CIFDUS_clean_linker_0, # of connection points: 2
#     Edge 86, Type (0, 0), BuildingBlock: CIFDUS_clean_linker_0, # of connection points: 2
#     Edge 87, Type (0, 0), BuildingBlock: CIFDUS_clean_linker_0, # of connection points: 2
#     Edge 88, Type (0, 0), BuildingBlock: CIFDUS_clean_linker_0, # of connection points: 2
#     Edge 89, Type (0, 0), BuildingBlock: CIFDUS_clean_linker_0, # of connection points: 2
#     Edge 90, Type (0, 0), BuildingBlock: CIFDUS_clean_linker_0, # of connection points: 2
#     Edge 91, Type (0, 0), BuildingBlock: CIFDUS_clean_linker_0, # of connection points: 2
#     Edge 92, Type (0, 0), BuildingBlock: CIFDUS_clean_linker_0, # of connection points: 2
#     Edge 93, Type (0, 0), BuildingBlock: CIFDUS_clean_linker_0, # of connection points: 2
#     Edge 94, Type (0, 0), BuildingBlock: CIFDUS_clean_linker_0, # of connection points: 2
#     Edge 95, Type (0, 0), BuildingBlock: CIFDUS_clean_linker_0, # of connection points: 2
# Relax obj value: 0.447
# Max RMSD: 0.271
# Mean RMSD: 0.271
data_MOF--net-sxi--node1-OJICUG_clean_sbu_0--edge1-CIFDUS_clean_linker_0
_symmetry_space_group_name_H-M    P1
_symmetry_Int_Tables_number       1
_symmetry_cell_setting            triclinic
loop_
_symmetry_equiv_pos_as_xyz
'x, y, z'
_cell_length_a     42.439833
_cell_length_b     42.514802
_cell_length_c     42.481103
_cell_angle_alpha  89.979502
_cell_angle_beta   89.891511
_cell_angle_gamma 89.999652
loop_
_atom_site_label
_atom_site_type_symbol
_atom_site_fract_x
_atom_site_fract_y
_atom_site_fract_z
_atom_type_partial_charge
Sc0 Sc 0.01774 0.30562 0.40782 0.0
Sc1 Sc 0.08222 0.33496 0.36443 0.0
Sc2 Sc 0.01685 0.38279 0.38313 0.0
O3 O 0.03918 0.34096 0.38469 0.0
C4 C 0.96107 0.33977 0.37111 0.0
C5 C 0.04322 0.27362 0.34476 0.0
C6 C 0.05433 0.38715 0.31791 0.0
C7 C 0.08877 0.29092 0.42513 0.0
C8 C 0.99484 0.35838 0.45135 0.0
C9 C 0.08601 0.39748 0.40687 0.0
O10 O 0.9725 0.31928 0.38973 0.0
O11 O 0.0652 0.29342 0.3386 0.0
O12 O 0.03459 0.39683 0.33804 0.0
O13 O 0.05941 0.28924 0.42977 0.0
O14 O 0.99347 0.3772 0.42816 0.0
O15 O 0.09975 0.37575 0.39095 0.0
O16 O 0.00916 0.33234 0.44968 0.0
O17 O 0.10078 0.3057 0.40206 0.0
O18 O 0.05643 0.40258 0.40648 0.0
O19 O 0.02504 0.27564 0.36846 0.0
O20 O 0.97688 0.36271 0.36035 0.0
O21 O 0.07211 0.36367 0.32321 0.0
Sc22 Sc 0.94171 0.74647 0.63915 0.0
Sc23 Sc 0.90896 0.81535 0.60786 0.0
Sc24 Sc 0.86214 0.76169 0.64678 0.0
O25 O 0.90458 0.77429 0.63139 0.0
C26 C 0.88733 0.70039 0.61569 0.0
C27 C 0.96453 0.7744 0.57667 0.0
C28 C 0.84752 0.7903 0.57817 0.0
C29 C 0.96407 0.81691 0.6565 0.0
C30 C 0.90503 0.73341 0.70221 0.0
C31 C 0.8586 0.83152 0.66121 0.0
O32 O 0.91586 0.7057 0.62352 0.0
O33 O 0.95117 0.80093 0.58088 0.0
O34 O 0.83924 0.7817 0.60578 0.0
O35 O 0.96925 0.78722 0.65472 0.0
O36 O 0.87863 0.73975 0.68968 0.0
O37 O 0.87009 0.83796 0.63411 0.0
O38 O 0.931 0.73689 0.68783 0.0
O39 O 0.94095 0.83057 0.64309 0.0
O40 O 0.85943 0.80401 0.67241 0.0
O41 O 0.9558 0.7502 0.59133 0.0
O42 O 0.86463 0.71883 0.6217 0.0
O43 O 0.87554 0.79975 0.57214 0.0
Sc44 Sc 0.49707 0.68673 0.91024 0.0
Sc45 Sc 0.42586 0.66134 0.87788 0.0
Sc46 Sc 0.46721 0.61345 0.92702 0.0
O47 O 0.46458 0.65374 0.90445 0.0
C48 C 0.53646 0.62285 0.90386 0.0
C49 C 0.47527 0.70849 0.84636 0.0
C50 C 0.44795 0.59673 0.85477 0.0
C51 C 0.42911 0.71885 0.92296 0.0
C52 C 0.49632 0.65864 0.97933 0.0
C53 C 0.39839 0.61555 0.92904 0.0
O54 O 0.53438 0.65283 0.9025 0.0
O55 O 0.4468 0.70086 0.85178 0.0
O56 O 0.4513 0.58957 0.88401 0.0
O57 O 0.4592 0.72078 0.91947 0.0
O58 O 0.48416 0.63287 0.97045 0.0
O59 O 0.39706 0.62408 0.90038 0.0
O60 O 0.502 0.68121 0.96059 0.0
O61 O 0.41252 0.69615 0.912 0.0
O62 O 0.42182 0.62363 0.94497 0.0
O63 O 0.49749 0.69489 0.86054 0.0
O64 O 0.51405 0.60476 0.91187 0.0
O65 O 0.44211 0.62496 0.84573 0.0
Sc66 Sc 0.56496 0.24973 0.14664 0.0
Sc67 Sc 0.59078 0.17608 0.1223 0.0
Sc68 Sc 0.63972 0.22388 0.16455 0.0
O69 O 0.5985 0.21731 0.14419 0.0
C70 C 0.62801 0.28891 0.13313 0.0
C71 C 0.54518 0.22215 0.08453 0.0
C72 C 0.65568 0.19536 0.09605 0.0
C73 C 0.5328 0.18442 0.16624 0.0
C74 C 0.59371 0.25619 0.2146 0.0
C75 C 0.63698 0.15521 0.17666 0.0
O76 O 0.59812 0.2865 0.1355 0.0
O77 O 0.55185 0.19433 0.09332 0.0
O78 O 0.66334 0.20197 0.12447 0.0
O79 O 0.53028 0.21343 0.15832 0.0
O80 O 0.62047 0.24626 0.20561 0.0
O81 O 0.62731 0.15013 0.14875 0.0
O82 O 0.56996 0.25786 0.19656 0.0
O83 O 0.5559 0.16684 0.15794 0.0
O84 O 0.63206 0.18144 0.18933 0.0
O85 O 0.55819 0.24559 0.09713 0.0
O86 O 0.64716 0.26774 0.1418 0.0
O87 O 0.62728 0.18841 0.0883 0.0
Sc88 Sc 0.51957 0.10712 0.60723 0.0
Sc89 Sc 0.57605 0.16113 0.62864 0.0
Sc90 Sc 0.49994 0.1859 0.61263 0.0
O91 O 0.5315 0.15138 0.61586 0.0
C92 C 0.48005 0.14449 0.5546 0.0
C93 C 0.58615 0.10445 0.58077 0.0
C94 C 0.56204 0.20961 0.57635 0.0
C95 C 0.56003 0.10411 0.67113 0.0
C96 C 0.46174 0.13042 0.64603 0.0
C97 C 0.53792 0.21587 0.66389 0.0
O98 O 0.49064 0.11929 0.56691 0.0
O99 O 0.5966 0.11991 0.60431 0.0
O100 O 0.53462 0.21544 0.58775 0.0
O101 O 0.54715 0.09086 0.64733 0.0
O102 O 0.4642 0.15869 0.63636 0.0
O103 O 0.56387 0.20608 0.65233 0.0
O104 O 0.48077 0.10877 0.63851 0.0
O105 O 0.56969 0.13268 0.67052 0.0
O106 O 0.5127 0.20142 0.65842 0.0
O107 O 0.55709 0.10326 0.57479 0.0
O108 O 0.48286 0.17135 0.56734 0.0
O109 O 0.57995 0.18774 0.58646 0.0
Sc110 Sc 0.14001 0.27598 0.86829 0.0
Sc111 Sc 0.08403 0.33365 0.88956 0.0
Sc112 Sc 0.06189 0.26801 0.84442 0.0
O113 O 0.09527 0.29239 0.86789 0.0
C114 C 0.12016 0.25692 0.79875 0.0
C115 C 0.14855 0.34877 0.85389 0.0
C116 C 0.04444 0.33709 0.82543 0.0
C117 C 0.13631 0.30451 0.93705 0.0
C118 C 0.09935 0.2142 0.87842 0.0
C119 C 0.02356 0.29287 0.90456 0.0
O120 O 0.14057 0.26636 0.81841 0.0
O121 O 0.1217 0.35788 0.86398 0.0
O122 O 0.04889 0.3085 0.81824 0.0
O123 O 0.14591 0.2839 0.9177 0.0
O124 O 0.0735 0.22554 0.86854 0.0
O125 O 0.04416 0.31224 0.91491 0.0
O126 O 0.12521 0.22914 0.87858 0.0
O127 O 0.11497 0.32452 0.92993 0.0
O128 O 0.0269 0.27769 0.87912 0.0
O129 O 0.15866 0.32088 0.85683 0.0
O130 O 0.09121 0.25459 0.80552 0.0
O131 O 0.05256 0.34874 0.85185 0.0
Sc132 Sc 0.95951 0.89023 0.0817 0.0
Sc133 Sc 0.91845 0.83773 0.12724 0.0
Sc134 Sc 0.99078 0.81644 0.09383 0.0
O135 O 0.95704 0.848 0.10121 0.0
C136 C 0.99181 0.84996 0.02703 0.0
C137 C 0.88986 0.88474 0.07737 0.0
C138 C 0.92443 0.78225 0.07932 0.0
C139 C 0.93907 0.90188 0.15356 0.0
C140 C 0.02773 0.88034 0.10759 0.0
C141 C 0.96887 0.792 0.15843 0.0
O142 O 0.97886 0.87472 0.03756 0.0
O143 O 0.8885 0.87379 0.10519 0.0
O144 O 0.95461 0.78221 0.08163 0.0
O145 O 0.94102 0.91096 0.12486 0.0
O146 O 0.02651 0.85041 0.10559 0.0
O147 O 0.94034 0.79948 0.15362 0.0
O148 O 0.00546 0.89869 0.09984 0.0
O149 O 0.93317 0.87326 0.16098 0.0
O150 O 0.99113 0.80335 0.14232 0.0
O151 O 0.9147 0.88161 0.06146 0.0
O152 O 0.99691 0.82601 0.04412 0.0
O153 O 0.90666 0.80304 0.09219 0.0
Sc154 Sc 0.36123 0.72801 0.35211 0.0
Sc155 Sc 0.41506 0.66963 0.37413 0.0
Sc156 Sc 0.43954 0.73415 0.3299 0.0
O157 O 0.40534 0.71082 0.35266 0.0
C158 C 0.38196 0.74536 0.28332 0.0
C159 C 0.35088 0.65563 0.33957 0.0
C160 C 0.45708 0.66606 0.31136 0.0
C161 C 0.36254 0.70117 0.42044 0.0
C162 C 0.40354 0.78988 0.3586 0.0
C163 C 0.47579 0.7075 0.39047 0.0
O164 O 0.36158 0.73285 0.30143 0.0
O165 O 0.37874 0.64657 0.34617 0.0
O166 O 0.45036 0.69377 0.30261 0.0
O167 O 0.35622 0.72417 0.40236 0.0
O168 O 0.42994 0.77611 0.35569 0.0
O169 O 0.45329 0.69077 0.40149 0.0
O170 O 0.37737 0.77551 0.35643 0.0
O171 O 0.38159 0.67917 0.41245 0.0
O172 O 0.47431 0.72136 0.36404 0.0
O173 O 0.34045 0.68275 0.3464 0.0
O174 O 0.41011 0.75035 0.29198 0.0
O175 O 0.44925 0.65523 0.33831 0.0
Sc176 Sc 0.39068 0.01856 0.37613 0.0
Sc177 Sc 0.36613 0.08298 0.33185 0.0
Sc178 Sc 0.40929 0.02327 0.2972 0.0
O179 O 0.3888 0.04165 0.33566 0.0
C180 C 0.45452 0.99458 0.34918 0.0
C181 C 0.40584 0.08979 0.39477 0.0
C182 C 0.43026 0.09101 0.29164 0.0
C183 C 0.32304 0.04845 0.38424 0.0
C184 C 0.37281 0.9668 0.32433 0.0
C185 C 0.34842 0.05054 0.26904 0.0
O186 O 0.43987 0.00735 0.37186 0.0
O187 O 0.39482 0.10264 0.36981 0.0
O188 O 0.43932 0.0629 0.29617 0.0
O189 O 0.34208 0.02564 0.38639 0.0
O190 O 0.37915 0.98285 0.29975 0.0
O191 O 0.33701 0.0618 0.2945 0.0
O192 O 0.3782 0.97605 0.35235 0.0
O193 O 0.32872 0.0721 0.36651 0.0
O194 O 0.37787 0.04747 0.2658 0.0
O195 O 0.40389 0.06049 0.40075 0.0
O196 O 0.44482 0.99617 0.32111 0.0
O197 O 0.40206 0.10017 0.29781 0.0
Sc198 Sc 0.25633 0.14461 0.55754 0.0
Sc199 Sc 0.17985 0.12898 0.58262 0.0
Sc200 Sc 0.23269 0.1618 0.63324 0.0
O201 O 0.22367 0.14508 0.59099 0.0
C202 C 0.2921 0.12048 0.61888 0.0
C203 C 0.21918 0.09155 0.53062 0.0
C204 C 0.19631 0.09588 0.64465 0.0
C205 C 0.19346 0.17678 0.52915 0.0
C206 C 0.27432 0.20866 0.59126 0.0
C207 C 0.16621 0.18126 0.63401 0.0
O208 O 0.29035 0.12376 0.58904 0.0
O209 O 0.1929 0.10282 0.53952 0.0
O210 O 0.20597 0.12294 0.65397 0.0
O211 O 0.2218 0.16646 0.52568 0.0
O212 O 0.26083 0.20101 0.61689 0.0
O213 O 0.15805 0.15491 0.62225 0.0
O214 O 0.27435 0.19116 0.56704 0.0
O215 O 0.17501 0.16808 0.55144 0.0
O216 O 0.19328 0.19191 0.62843 0.0
O217 O 0.24357 0.09739 0.54627 0.0
O218 O 0.27298 0.13292 0.63818 0.0
O219 O 0.18842 0.09075 0.61589 0.0
Sc220 Sc 0.0806 0.97799 0.80009 0.0
Sc221 Sc 0.13334 0.9179 0.82324 0.0
Sc222 Sc 0.10352 0.97174 0.87901 0.0
O223 O 0.10589 0.95583 0.83409 0.0
C224 C 0.10928 0.03442 0.84034 0.0
C225 C 0.14589 0.96419 0.765 0.0
C226 C 0.17538 0.94855 0.87791 0.0
C227 C 0.07341 0.90713 0.77875 0.0
C228 C 0.03257 0.98604 0.85627 0.0
C229 C 0.09571 0.8978 0.88605 0.0
O230 O 0.09641 0.02305 0.81585 0.0
O231 O 0.15628 0.94316 0.78394 0.0
O232 O 0.15263 0.96412 0.88944 0.0
O233 O 0.06282 0.93495 0.78129 0.0
O234 O 0.05383 0.98259 0.87699 0.0
O235 O 0.1113 0.89029 0.8613 0.0
O236 O 0.03803 0.98323 0.82708 0.0
O237 O 0.09883 0.89807 0.79164 0.0
O238 O 0.09132 0.92597 0.89497 0.0
O239 O 0.1192 0.97713 0.76806 0.0
O240 O 0.1149 0.01849 0.865 0.0
O241 O 0.17215 0.93147 0.85354 0.0
Sc242 Sc 0.25179 0.85505 0.0493 0.0
Sc243 Sc 0.32336 0.88904 0.07482 0.0
Sc244 Sc 0.26327 0.87069 0.12933 0.0
O245 O 0.27955 0.87179 0.08447 0.0
C246 C 0.204 0.89463 0.09106 0.0
C247 C 0.28337 0.91521 0.01708 0.0
C248 C 0.30162 0.93515 0.13139 0.0
C249 C 0.31837 0.82957 0.02797 0.0
C250 C 0.23552 0.8058 0.10291 0.0
C251 C 0.33367 0.8463 0.13621 0.0
O252 O 0.21262 0.88306 0.06482 0.0
O253 O 0.30526 0.91985 0.03722 0.0
O254 O 0.27972 0.91716 0.14091 0.0
O255 O 0.28876 0.82635 0.03087 0.0
O256 O 0.24546 0.82338 0.12491 0.0
O257 O 0.34472 0.859 0.1112 0.0
O258 O 0.23516 0.81439 0.07439 0.0
O259 O 0.33361 0.85201 0.04081 0.0
O260 O 0.30551 0.84996 0.14545 0.0
O261 O 0.26436 0.89235 0.01862 0.0
O262 O 0.21936 0.89113 0.11641 0.0
O263 O 0.31919 0.92809 0.108 0.0
Sc264 Sc 0.89454 0.49634 0.68782 0.0
Sc265 Sc 0.87569 0.41914 0.67066 0.0
Sc266 Sc 0.90498 0.46726 0.61252 0.0
O267 O 0.89186 0.46146 0.65699 0.0
C268 C 0.86703 0.52869 0.62586 0.0
C269 C 0.8395 0.46377 0.71871 0.0
C270 C 0.83792 0.43141 0.61004 0.0
C271 C 0.92586 0.43558 0.72058 0.0
C272 C 0.95625 0.50982 0.64825 0.0
C273 C 0.92416 0.39992 0.61728 0.0
O274 O 0.87346 0.52872 0.65516 0.0
O275 O 0.85051 0.43664 0.71264 0.0
O276 O 0.86361 0.44048 0.59685 0.0
O277 O 0.91616 0.46418 0.72206 0.0
O278 O 0.94605 0.4957 0.62385 0.0
O279 O 0.89881 0.39359 0.63196 0.0
O280 O 0.94106 0.51091 0.674 0.0
O281 O 0.91623 0.41576 0.70008 0.0
O282 O 0.93496 0.42748 0.6172 0.0
O283 O 0.84763 0.48732 0.70278 0.0
O284 O 0.87662 0.50793 0.60672 0.0
O285 O 0.83602 0.4255 0.63959 0.0
Sc286 Sc 0.77572 0.63679 0.86186 0.0
Sc287 Sc 0.83172 0.6172 0.91861 0.0
Sc288 Sc 0.75738 0.64471 0.94006 0.0
O289 O 0.78844 0.63281 0.90693 0.0
C290 C 0.74074 0.69631 0.89308 0.0
C291 C 0.84349 0.66321 0.85943 0.0
C292 C 0.82238 0.67051 0.96817 0.0
C293 C 0.81595 0.57307 0.86183 0.0
C294 C 0.7149 0.60989 0.88831 0.0
C295 C 0.78645 0.58687 0.972 0.0
O296 O 0.74566 0.67738 0.87033 0.0
O297 O 0.85398 0.64219 0.8784 0.0
O298 O 0.79299 0.66477 0.97038 0.0
O299 O 0.80235 0.59578 0.84776 0.0
O300 O 0.71836 0.62602 0.91335 0.0
O301 O 0.81419 0.59264 0.96146 0.0
O302 O 0.73627 0.6068 0.86776 0.0
O303 O 0.8257 0.57511 0.89017 0.0
O304 O 0.76207 0.59963 0.96066 0.0
O305 O 0.81438 0.66729 0.85423 0.0
O306 O 0.75014 0.69072 0.9208 0.0
O307 O 0.83993 0.65799 0.94729 0.0
Sc308 Sc 0.59586 0.533 0.11285 0.0
Sc309 Sc 0.63842 0.57294 0.16882 0.0
Sc310 Sc 0.60356 0.50098 0.18731 0.0
O311 O 0.61268 0.53504 0.15637 0.0
C312 C 0.53835 0.50212 0.1509 0.0
C313 C 0.59054 0.60354 0.12077 0.0
C314 C 0.58756 0.56633 0.22141 0.0
C315 C 0.66863 0.55359 0.10557 0.0
C316 C 0.61978 0.46438 0.12363 0.0
C317 C 0.66618 0.52091 0.2158 0.0
O318 O 0.55053 0.51428 0.12638 0.0
O319 O 0.61796 0.60434 0.13289 0.0
O320 O 0.59075 0.53634 0.22237 0.0
O321 O 0.64055 0.55085 0.09481 0.0
O322 O 0.61576 0.4655 0.15337 0.0
O323 O 0.6619 0.54968 0.20871 0.0
O324 O 0.61398 0.487 0.10509 0.0
O325 O 0.67429 0.55927 0.13467 0.0
O326 O 0.65184 0.49932 0.2014 0.0
O327 O 0.5754 0.5781 0.11897 0.0
O328 O 0.5541 0.49685 0.17575 0.0
O329 O 0.60113 0.58402 0.20109 0.0
Sc330 Sc 0.71806 0.33527 0.37034 0.0
Sc331 Sc 0.67112 0.38345 0.41801 0.0
Sc332 Sc 0.72255 0.32965 0.45078 0.0
O333 O 0.70362 0.34948 0.4124 0.0
C334 C 0.73162 0.27215 0.4043 0.0
C335 C 0.64354 0.34109 0.36257 0.0
C336 C 0.6522 0.32682 0.46499 0.0
C337 C 0.70702 0.40852 0.35637 0.0
C338 C 0.78046 0.34803 0.411 0.0
C339 C 0.71385 0.39697 0.47542 0.0
O340 O 0.71717 0.2858 0.38208 0.0
O341 O 0.63891 0.36051 0.38512 0.0
O342 O 0.67736 0.31096 0.46068 0.0
O343 O 0.72036 0.38216 0.35177 0.0
O344 O 0.76715 0.34944 0.43801 0.0
O345 O 0.70335 0.40855 0.44986 0.0
O346 O 0.76618 0.34001 0.38573 0.0
O347 O 0.68834 0.41317 0.3795 0.0
O348 O 0.7107 0.36807 0.48117 0.0
O349 O 0.67055 0.33067 0.35468 0.0
O350 O 0.73828 0.28643 0.42949 0.0
O351 O 0.64915 0.35562 0.45624 0.0
Sc352 Sc 0.31016 0.39903 0.01959 0.0
Sc353 Sc 0.33423 0.35911 0.08836 0.0
Sc354 Sc 0.38997 0.38937 0.03464 0.0
O355 O 0.3448 0.38226 0.04769 0.0
C356 C 0.3565 0.36888 0.97108 0.0
C357 C 0.27726 0.33675 0.04555 0.0
C358 C 0.39325 0.31942 0.06214 0.0
C359 C 0.28628 0.418 0.0868 0.0
C360 C 0.36087 0.45315 0.01046 0.0
C361 C 0.3933 0.402 0.10816 0.0
O362 O 0.32832 0.37322 0.98029 0.0
O363 O 0.29791 0.32941 0.06612 0.0
O364 O 0.40255 0.34141 0.04408 0.0
O365 O 0.2904 0.42477 0.0579 0.0
O366 O 0.38283 0.4385 0.02439 0.0
O367 O 0.36844 0.38678 0.11571 0.0
O368 O 0.33446 0.44074 0.00458 0.0
O369 O 0.29888 0.39418 0.10017 0.0
O370 O 0.40358 0.40375 0.08026 0.0
O371 O 0.27899 0.36145 0.02918 0.0
O372 O 0.38056 0.37617 0.9872 0.0
O373 O 0.36919 0.32222 0.08007 0.0
Sc374 Sc 0.88017 0.10915 0.98558 0.0
Sc375 Sc 0.83509 0.1403 0.92503 0.0
Sc376 Sc 0.79975 0.09976 0.98633 0.0
O377 O 0.83883 0.11649 0.96542 0.0
C378 C 0.84708 0.04661 0.00445 0.0
C379 C 0.89366 0.09492 0.9132 0.0
C380 C 0.78739 0.08109 0.9191 0.0
C381 C 0.89225 0.1774 0.95903 0.0
C382 C 0.83406 0.13231 0.04066 0.0
C383 C 0.77521 0.16271 0.96041 0.0
O384 O 0.87007 0.06006 0.99107 0.0
O385 O 0.86937 0.10897 0.90211 0.0
O386 O 0.79225 0.07095 0.94679 0.0
O387 O 0.89507 0.15692 0.98058 0.0
O388 O 0.80821 0.12953 0.02576 0.0
O389 O 0.80121 0.17198 0.94843 0.0
O390 O 0.86035 0.12179 0.03042 0.0
O391 O 0.8727 0.17418 0.93635 0.0
O392 O 0.76975 0.13388 0.96456 0.0
O393 O 0.90153 0.09619 0.94204 0.0
O394 O 0.82174 0.06096 0.01074 0.0
O395 O 0.79769 0.10778 0.90925 0.0
Sc396 Sc 0.15161 0.56217 0.23185 0.0
Sc397 Sc 0.10844 0.58802 0.16582 0.0
Sc398 Sc 0.13462 0.64079 0.22345 0.0
O399 O 0.13136 0.59689 0.2067 0.0
C400 C 0.12575 0.60767 0.28571 0.0
C401 C 0.0874 0.53159 0.21299 0.0
C402 C 0.06558 0.64258 0.19308 0.0
C403 C 0.16399 0.53895 0.16168 0.0
C404 C 0.20306 0.61239 0.23951 0.0
C405 C 0.1497 0.6502 0.15175 0.0
O406 O 0.14189 0.58438 0.27621 0.0
O407 O 0.08519 0.5461 0.18654 0.0
O408 O 0.08847 0.6542 0.2083 0.0
O409 O 0.16545 0.53596 0.19132 0.0
O410 O 0.18221 0.63393 0.24078 0.0
O411 O 0.13102 0.62859 0.14198 0.0
O412 O 0.19682 0.58428 0.23179 0.0
O413 O 0.14647 0.55916 0.14832 0.0
O414 O 0.15457 0.65569 0.18064 0.0
O415 O 0.10814 0.53773 0.23357 0.0
O416 O 0.1143 0.62792 0.26726 0.0
O417 O 0.06777 0.61663 0.17824 0.0
Sc418 Sc 0.69025 0.90416 0.47437 0.0
Sc419 Sc 0.66181 0.85599 0.41455 0.0
Sc420 Sc 0.61104 0.88798 0.47078 0.0
O421 O 0.65427 0.88243 0.45313 0.0
C422 C 0.65376 0.87999 0.53153 0.0
C423 C 0.72199 0.83979 0.45365 0.0
C424 C 0.60698 0.81739 0.4512 0.0
C425 C 0.70747 0.91564 0.40529 0.0
C426 C 0.63622 0.9553 0.48347 0.0
C427 C 0.59891 0.89093 0.39685 0.0
O428 O 0.68015 0.88055 0.51746 0.0
O429 O 0.69796 0.82863 0.43939 0.0
O430 O 0.6032 0.8383 0.47223 0.0
O431 O 0.70079 0.92769 0.43182 0.0
O432 O 0.61505 0.93854 0.4706 0.0
O433 O 0.62646 0.88253 0.38806 0.0
O434 O 0.66333 0.94448 0.48986 0.0
O435 O 0.69795 0.88837 0.39685 0.0
O436 O 0.59012 0.89055 0.42542 0.0
O437 O 0.72351 0.8681 0.46279 0.0
O438 O 0.62772 0.88601 0.51813 0.0
O439 O 0.6258 0.82118 0.4279 0.0
Sc440 Sc 0.35514 0.36053 0.72502 0.0
Sc441 Sc 0.39396 0.41686 0.67748 0.0
Sc442 Sc 0.34711 0.44023 0.74255 0.0
O443 O 0.36551 0.4059 0.71486 0.0
C444 C 0.29012 0.39156 0.7452 0.0
C445 C 0.35073 0.36052 0.65073 0.0
C446 C 0.33696 0.46728 0.67414 0.0
C447 C 0.42815 0.35532 0.70455 0.0
C448 C 0.37079 0.38991 0.7915 0.0
C449 C 0.41403 0.47024 0.72675 0.0
O450 O 0.30567 0.36873 0.73378 0.0
O451 O 0.36922 0.38382 0.64616 0.0
O452 O 0.32798 0.46402 0.70255 0.0
O453 O 0.40303 0.34603 0.71796 0.0
O454 O 0.36617 0.41841 0.78373 0.0
O455 O 0.42164 0.45205 0.70401 0.0
O456 O 0.36589 0.36665 0.77351 0.0
O457 O 0.42948 0.38094 0.68884 0.0
O458 O 0.38795 0.46844 0.74085 0.0
O459 O 0.34343 0.35031 0.67774 0.0
O460 O 0.30238 0.41817 0.75032 0.0
O461 O 0.36078 0.45292 0.6625 0.0
Sc462 Sc 0.12457 0.60013 0.51692 0.0
Sc463 Sc 0.16757 0.63871 0.57506 0.0
Sc464 Sc 0.20532 0.59582 0.51699 0.0
O465 O 0.16522 0.61144 0.53669 0.0
C466 C 0.16045 0.54031 0.49669 0.0
C467 C 0.11041 0.59186 0.59003 0.0
C468 C 0.21674 0.58083 0.5856 0.0
C469 C 0.10905 0.67028 0.53843 0.0
C470 C 0.16968 0.62384 0.46106 0.0
C471 C 0.2278 0.66052 0.53955 0.0
O472 O 0.13726 0.55143 0.51181 0.0
O473 O 0.13321 0.60896 0.59993 0.0
O474 O 0.21327 0.56922 0.55819 0.0
O475 O 0.10644 0.64687 0.52011 0.0
O476 O 0.19567 0.62349 0.47611 0.0
O477 O 0.20127 0.66981 0.55023 0.0
O478 O 0.14395 0.61246 0.47186 0.0
O479 O 0.12951 0.67099 0.56051 0.0
O480 O 0.23385 0.63158 0.53791 0.0
O481 O 0.10408 0.58781 0.56109 0.0
O482 O 0.18551 0.55591 0.49277 0.0
O483 O 0.20522 0.60767 0.59376 0.0
Sc484 Sc 0.66266 0.93903 0.77042 0.0
Sc485 Sc 0.61462 0.90959 0.82966 0.0
Sc486 Sc 0.65169 0.85971 0.77631 0.0
O487 O 0.64289 0.90251 0.79251 0.0
C488 C 0.64092 0.90034 0.7146 0.0
C489 C 0.59701 0.96753 0.78851 0.0
C490 C 0.58087 0.85113 0.79425 0.0
C491 C 0.67299 0.95774 0.83845 0.0
C492 C 0.71669 0.88837 0.76291 0.0
C493 C 0.65174 0.84938 0.85068 0.0
O494 O 0.63859 0.92685 0.72818 0.0
O495 O 0.58631 0.94274 0.80176 0.0
O496 O 0.60262 0.8488 0.77377 0.0
O497 O 0.68605 0.9508 0.81245 0.0
O498 O 0.70179 0.86733 0.77803 0.0
O499 O 0.64137 0.87645 0.85861 0.0
O500 O 0.70362 0.9137 0.75419 0.0
O501 O 0.64556 0.94775 0.84646 0.0
O502 O 0.65397 0.84034 0.82231 0.0
O503 O 0.62608 0.97117 0.78306 0.0
O504 O 0.6499 0.87541 0.7285 0.0
O505 O 0.58228 0.87093 0.81695 0.0
Sc506 Sc 0.84747 0.06137 0.26333 0.0
Sc507 Sc 0.88854 0.08062 0.33192 0.0
Sc508 Sc 0.86179 0.13917 0.28073 0.0
O509 O 0.86605 0.0937 0.29229 0.0
C510 C 0.87168 0.11386 0.21536 0.0
C511 C 0.91143 0.03046 0.27908 0.0
C512 C 0.9314 0.13746 0.30998 0.0
C513 C 0.83463 0.03068 0.33037 0.0
C514 C 0.79428 0.10985 0.26178 0.0
C515 C 0.84536 0.1395 0.35256 0.0
O516 O 0.85573 0.08946 0.222 0.0
O517 O 0.91143 0.04031 0.30767 0.0
O518 O 0.90823 0.15157 0.29731 0.0
O519 O 0.83489 0.02906 0.30052 0.0
O520 O 0.81415 0.13242 0.26251 0.0
O521 O 0.86524 0.11802 0.35998 0.0
O522 O 0.8017 0.08138 0.26658 0.0
O523 O 0.85035 0.05102 0.34551 0.0
O524 O 0.84077 0.14846 0.32455 0.0
O525 O 0.89246 0.04052 0.25836 0.0
O526 O 0.88275 0.13198 0.23604 0.0
O527 O 0.92902 0.10999 0.32175 0.0
H528 H 0.92666 0.34232 0.42264 0.0
H529 H 0.92041 0.34709 0.32149 0.0
H530 H 0.86288 0.35367 0.32537 0.0
H531 H 0.81509 0.35485 0.35787 0.0
H532 H 0.82265 0.35103 0.45934 0.0
H533 H 0.87986 0.34852 0.45504 0.0
C534 C 0.91257 0.34455 0.40144 0.0
C535 C 0.92701 0.34318 0.37179 0.0
C536 C 0.88025 0.34899 0.40401 0.0
C537 C 0.90922 0.34736 0.34443 0.0
C538 C 0.87661 0.35128 0.34673 0.0
C539 C 0.82923 0.35371 0.37909 0.0
C540 C 0.81469 0.35242 0.40888 0.0
C541 C 0.86193 0.3517 0.37644 0.0
C542 C 0.83329 0.35176 0.43615 0.0
C543 C 0.86593 0.35007 0.43372 0.0
H544 H 0.89254 0.5612 0.57934 0.0
H545 H 0.81484 0.56068 0.64472 0.0
H546 H 0.80842 0.61749 0.63826 0.0
H547 H 0.83563 0.66668 0.62767 0.0
H548 H 0.9218 0.66655 0.57367 0.0
H549 H 0.91453 0.61081 0.56151 0.0
C550 C 0.87332 0.57348 0.59095 0.0
C551 C 0.85442 0.55753 0.61272 0.0
C552 C 0.87223 0.60617 0.58986 0.0
C553 C 0.82967 0.57307 0.62803 0.0
C554 C 0.82633 0.60544 0.6246 0.0
C555 C 0.85223 0.65458 0.61242 0.0
C556 C 0.87956 0.66995 0.60216 0.0
C557 C 0.84917 0.62233 0.60775 0.0
C558 C 0.90101 0.65453 0.58236 0.0
C559 C 0.8968 0.62285 0.5754 0.0
H560 H 0.6734 0.57839 0.92401 0.0
H561 H 0.68515 0.62415 0.83425 0.0
H562 H 0.62809 0.62889 0.82862 0.0
H563 H 0.5765 0.63043 0.85518 0.0
H564 H 0.56476 0.58355 0.94441 0.0
H565 H 0.62027 0.56838 0.94437 0.0
C566 C 0.66324 0.58812 0.90269 0.0
C567 C 0.68288 0.60128 0.8798 0.0
C568 C 0.63064 0.59119 0.89993 0.0
C569 C 0.67006 0.61379 0.85207 0.0
C570 C 0.63755 0.61692 0.84906 0.0
C571 C 0.58612 0.61623 0.8741 0.0
C572 C 0.56736 0.60861 0.90006 0.0
C573 C 0.61783 0.60741 0.87375 0.0
C574 C 0.57931 0.58976 0.92436 0.0
C575 C 0.61092 0.58117 0.92438 0.0
H576 H 0.60552 0.32674 0.0878 0.0
H577 H 0.6791 0.31844 0.15718 0.0
H578 H 0.6891 0.37487 0.15409 0.0
H579 H 0.66638 0.42661 0.14272 0.0
H580 H 0.59161 0.43509 0.07477 0.0
H581 H 0.59304 0.3784 0.06536 0.0
C582 C 0.62442 0.33729 0.10137 0.0
C583 C 0.64082 0.31919 0.12345 0.0
C584 C 0.62947 0.36966 0.09998 0.0
C585 C 0.6659 0.33237 0.1404 0.0
C586 C 0.67146 0.36458 0.13881 0.0
C587 C 0.65133 0.41601 0.12502 0.0
C588 C 0.62834 0.43419 0.1101 0.0
C589 C 0.65182 0.38357 0.1204 0.0
C590 C 0.60922 0.42101 0.08669 0.0
C591 C 0.60986 0.38868 0.08154 0.0
H592 H 0.42907 0.07988 0.62963 0.0
H593 H 0.42743 0.16027 0.69142 0.0
H594 H 0.37026 0.15542 0.69687 0.0
H595 H 0.32222 0.14 0.67022 0.0
H596 H 0.32529 0.0702 0.59661 0.0
H597 H 0.38016 0.05839 0.60963 0.0
C598 C 0.41624 0.09544 0.64535 0.0
C599 C 0.4318 0.12075 0.65965 0.0
C600 C 0.38346 0.09473 0.64531 0.0
C601 C 0.41544 0.14092 0.67996 0.0
C602 C 0.38286 0.13829 0.68277 0.0
C603 C 0.33463 0.1214 0.65783 0.0
C604 C 0.32046 0.10642 0.63209 0.0
C605 C 0.36663 0.11709 0.66338 0.0
C606 C 0.33634 0.08235 0.61611 0.0
C607 C 0.36758 0.07572 0.62352 0.0
H608 H 0.09558 0.17942 0.82807 0.0
H609 H 0.11177 0.17489 0.92802 0.0
H610 H 0.12036 0.11768 0.92428 0.0
H611 H 0.12069 0.06961 0.8923 0.0
H612 H 0.10634 0.07591 0.79167 0.0
H613 H 0.10077 0.13269 0.79574 0.0
C614 C 0.10058 0.16566 0.84904 0.0
C615 C 0.10196 0.18034 0.8784 0.0
C616 C 0.10646 0.13367 0.8464 0.0
C617 C 0.10975 0.16327 0.90542 0.0
C618 C 0.11495 0.13091 0.90316 0.0
C619 C 0.11694 0.08342 0.87116 0.0
C620 C 0.11332 0.0686 0.84181 0.0
C621 C 0.11318 0.11592 0.87372 0.0
C622 C 0.10877 0.0868 0.8146 0.0
C623 C 0.10536 0.11917 0.81689 0.0
H624 H 0.06232 0.91482 0.06864 0.0
H625 H 0.06044 0.87516 0.16193 0.0
H626 H 0.11673 0.88608 0.16816 0.0
H627 H 0.16693 0.8944 0.14218 0.0
H628 H 0.16987 0.9236 0.0449 0.0
H629 H 0.11264 0.93035 0.04504 0.0
C630 C 0.07424 0.90971 0.09066 0.0
C631 C 0.05801 0.89427 0.11482 0.0
C632 C 0.10676 0.9138 0.09297 0.0
C633 C 0.07306 0.88706 0.14318 0.0
C634 C 0.10508 0.89315 0.1466 0.0
C635 C 0.15518 0.90324 0.12131 0.0
C636 C 0.17222 0.90783 0.09336 0.0
C637 C 0.1224 0.90467 0.12092 0.0
C638 C 0.1569 0.91939 0.06649 0.0
C639 C 0.12428 0.92309 0.06655 0.0
H640 H 0.3518 0.82719 0.3569 0.0
H641 H 0.45368 0.82986 0.35312 0.0
H642 H 0.45177 0.88401 0.33469 0.0
H643 H 0.42147 0.92989 0.31908 0.0
H644 H 0.32041 0.92986 0.32794 0.0
H645 H 0.32141 0.87397 0.34278 0.0
C646 C 0.37366 0.83967 0.35249 0.0
C647 C 0.40283 0.82434 0.35607 0.0
C648 C 0.37242 0.87051 0.34134 0.0
C649 C 0.43089 0.84105 0.35058 0.0
C650 C 0.42985 0.87183 0.33955 0.0
C651 C 0.39964 0.91715 0.32314 0.0
C652 C 0.37082 0.93302 0.32139 0.0
C653 C 0.40077 0.8864 0.3342 0.0
C654 C 0.34263 0.91731 0.32805 0.0
C655 C 0.34336 0.88581 0.33728 0.0
H656 H 0.40084 0.39306 0.93402 0.0
H657 H 0.3228 0.32803 0.93486 0.0
H658 H 0.32523 0.32415 0.87734 0.0
H659 H 0.34345 0.3466 0.82757 0.0
H660 H 0.41466 0.41896 0.82757 0.0
H661 H 0.42151 0.41264 0.88445 0.0
C662 C 0.38498 0.37734 0.92162 0.0
C663 C 0.36165 0.36085 0.93818 0.0
C664 C 0.38513 0.37705 0.8889 0.0
C665 C 0.34081 0.34095 0.92218 0.0
C666 C 0.34214 0.33888 0.88949 0.0
C667 C 0.36096 0.36037 0.84007 0.0
C668 C 0.37854 0.38319 0.82405 0.0
C669 C 0.36326 0.35794 0.87267 0.0
C670 C 0.40087 0.40142 0.83997 0.0
C671 C 0.40472 0.3978 0.87227 0.0
H672 H 0.8832 0.15251 0.07503 0.0
H673 H 0.78302 0.13508 0.07993 0.0
H674 H 0.78604 0.13166 0.13713 0.0
H675 H 0.81893 0.12129 0.18313 0.0
H676 H 0.91943 0.13522 0.1782 0.0
H677 H 0.91482 0.15167 0.12296 0.0
C678 C 0.86191 0.14871 0.08872 0.0
C679 C 0.83323 0.14258 0.0735 0.0
C680 C 0.86415 0.14497 0.12117 0.0
C681 C 0.80552 0.1391 0.09124 0.0
C682 C 0.80729 0.13672 0.12386 0.0
C683 C 0.83974 0.12805 0.16981 0.0
C684 C 0.86961 0.12588 0.18355 0.0
C685 C 0.83679 0.13736 0.1386 0.0
C686 C 0.89642 0.13596 0.16722 0.0
C687 C 0.8937 0.1455 0.13596 0.0
H688 H 0.17919 0.60904 0.31773 0.0
H689 H 0.07977 0.62855 0.32542 0.0
H690 H 0.08666 0.64339 0.38087 0.0
H691 H 0.11999 0.64393 0.42769 0.0
H692 H 0.21906 0.62201 0.41988 0.0
H693 H 0.21378 0.61694 0.36288 0.0
C694 C 0.15904 0.61635 0.33174 0.0
C695 C 0.12882 0.6165 0.31854 0.0
C696 C 0.16334 0.62513 0.36295 0.0
C697 C 0.103 0.62744 0.33589 0.0
C698 C 0.10703 0.63615 0.36725 0.0
C699 C 0.14056 0.63876 0.41336 0.0
C700 C 0.16962 0.63235 0.42775 0.0
C701 C 0.13697 0.63423 0.38113 0.0
C702 C 0.19639 0.6267 0.40918 0.0
C703 C 0.19327 0.62329 0.37675 0.0
H704 H 0.61559 0.91103 0.57039 0.0
H705 H 0.6919 0.8439 0.56824 0.0
H706 H 0.6929 0.84301 0.62592 0.0
H707 H 0.67378 0.86349 0.67591 0.0
H708 H 0.60068 0.9341 0.67788 0.0
H709 H 0.59656 0.93161 0.6204 0.0
C710 C 0.63208 0.89582 0.58261 0.0
C711 C 0.65342 0.87725 0.56559 0.0
C712 C 0.63316 0.89632 0.61528 0.0
C713 C 0.67528 0.85824 0.58128 0.0
C714 C 0.67584 0.85778 0.61402 0.0
C715 C 0.65666 0.87803 0.66373 0.0
C716 C 0.63729 0.89873 0.68065 0.0
C717 C 0.65513 0.87703 0.6311 0.0
C718 C 0.61572 0.91805 0.66494 0.0
C719 C 0.61337 0.91656 0.63231 0.0
H720 H 0.12164 0.49233 0.51221 0.0
H721 H 0.19034 0.52101 0.44303 0.0
H722 H 0.17681 0.4758 0.41014 0.0
H723 H 0.13967 0.43234 0.39773 0.0
H724 H 0.07086 0.40514 0.46741 0.0
H725 H 0.09054 0.44494 0.50354 0.0
C726 C 0.134 0.48838 0.49017 0.0
C727 C 0.15652 0.51018 0.47983 0.0
C728 C 0.12597 0.46257 0.47134 0.0
C729 C 0.17277 0.50455 0.45148 0.0
C730 C 0.16494 0.47879 0.43255 0.0
C731 C 0.12975 0.43465 0.42116 0.0
C732 C 0.10372 0.41625 0.42988 0.0
C733 C 0.14079 0.4582 0.44173 0.0
C734 C 0.09079 0.4194 0.46021 0.0
C735 C 0.10191 0.4422 0.48083 0.0
H736 H 0.84575 0.83007 0.72305 0.0
H737 H 0.82616 0.88295 0.63862 0.0
H738 H 0.78226 0.90936 0.66541 0.0
H739 H 0.74424 0.90987 0.70945 0.0
H740 H 0.76082 0.85123 0.79073 0.0
H741 H 0.81109 0.83419 0.7684 0.0
C742 C 0.83224 0.84781 0.71061 0.0
C743 C 0.83875 0.85412 0.67871 0.0
C744 C 0.80612 0.86127 0.72544 0.0
C745 C 0.82155 0.87762 0.66313 0.0
C746 C 0.79622 0.89239 0.67834 0.0
C747 C 0.7592 0.89387 0.72254 0.0
C748 C 0.74883 0.88157 0.75159 0.0
C749 C 0.78744 0.88324 0.70897 0.0
C750 C 0.76823 0.86069 0.76822 0.0
C751 C 0.79693 0.85102 0.75549 0.0
H752 H 0.39929 0.59362 0.98836 0.0
H753 H 0.35776 0.57557 0.89745 0.0
H754 H 0.3396 0.52398 0.91616 0.0
H755 H 0.3419 0.48153 0.95635 0.0
H756 H 0.39111 0.49832 0.04354 0.0
H757 H 0.40078 0.55279 0.02796 0.0
C758 C 0.38593 0.57866 0.97257 0.0
C759 C 0.38023 0.58837 0.94136 0.0
C760 C 0.3777 0.54848 0.98267 0.0
C761 C 0.36246 0.56876 0.92155 0.0
C762 C 0.35246 0.53911 0.93215 0.0
C763 C 0.35452 0.4973 0.97194 0.0
C764 C 0.36596 0.48608 0.00098 0.0
C765 C 0.36101 0.52829 0.96228 0.0
C766 C 0.38246 0.50646 0.02097 0.0
C767 C 0.38779 0.53757 0.01215 0.0
H768 H 0.65906 0.16133 0.23566 0.0
H769 H 0.67044 0.1053 0.15163 0.0
H770 H 0.71939 0.08328 0.17299 0.0
H771 H 0.76257 0.08617 0.21222 0.0
H772 H 0.75382 0.14909 0.2913 0.0
H773 H 0.70031 0.16296 0.27491 0.0
C774 C 0.67192 0.14396 0.22203 0.0
C775 C 0.66129 0.13533 0.19182 0.0
C776 C 0.70087 0.13329 0.23337 0.0
C777 C 0.67805 0.11238 0.1749 0.0
C778 C 0.70624 0.10012 0.18695 0.0
C779 C 0.74862 0.10261 0.22593 0.0
C780 C 0.7617 0.11671 0.25285 0.0
C781 C 0.71847 0.1114 0.21556 0.0
C782 C 0.74398 0.13822 0.27044 0.0
C783 C 0.71349 0.146 0.26112 0.0
H784 H 0.66317 0.9889 0.53098 0.0
H785 H 0.59109 0.994 0.45955 0.0
H786 H 0.57357 0.04454 0.48044 0.0
H787 H 0.57441 0.08343 0.52233 0.0
H788 H 0.64243 0.07641 0.59733 0.0
H789 H 0.66677 0.03105 0.57102 0.0
C790 C 0.64398 0.00136 0.51966 0.0
C791 C 0.62825 0.98758 0.49386 0.0
C792 C 0.6334 0.03002 0.53243 0.0
C793 C 0.60333 0.00391 0.47958 0.0
C794 C 0.59336 0.03283 0.49149 0.0
C795 C 0.59491 0.07233 0.53277 0.0
C796 C 0.60632 0.08299 0.56201 0.0
C797 C 0.60759 0.04554 0.51841 0.0
C798 C 0.63321 0.0687 0.57487 0.0
C799 C 0.64685 0.04254 0.55999 0.0
H800 H 0.25923 0.42263 0.79198 0.0
H801 H 0.24849 0.34716 0.72482 0.0
H802 H 0.19899 0.33178 0.74981 0.0
H803 H 0.16381 0.33453 0.7952 0.0
H804 H 0.17692 0.40587 0.8659 0.0
H805 H 0.22007 0.4289 0.83467 0.0
C806 C 0.24568 0.40327 0.78236 0.0
C807 C 0.25766 0.38585 0.75669 0.0
C808 C 0.21781 0.39383 0.79763 0.0
C809 C 0.23995 0.36071 0.74468 0.0
C810 C 0.21167 0.35191 0.75898 0.0
C811 C 0.17562 0.35568 0.8033 0.0
C812 C 0.16745 0.3686 0.83267 0.0
C813 C 0.20111 0.36754 0.78611 0.0
C814 C 0.18271 0.39584 0.84318 0.0
C815 C 0.20759 0.40865 0.82551 0.0
H816 H 0.88302 0.90504 0.01802 0.0
H817 H 0.84849 0.92072 0.11228 0.0
H818 H 0.82759 0.97203 0.09621 0.0
H819 H 0.82851 0.01622 0.05786 0.0
H820 H 0.87141 0.00187 0.96685 0.0
H821 H 0.88032 0.94657 0.9792 0.0
C822 C 0.8703 0.91936 0.03496 0.0
C823 C 0.86786 0.90938 0.06642 0.0
C824 C 0.86074 0.94956 0.02626 0.0
C825 C 0.85078 0.92788 0.08791 0.0
C826 C 0.83929 0.95745 0.07884 0.0
C827 C 0.83939 0.00073 0.04072 0.0
C828 C 0.84969 0.01293 0.01168 0.0
C829 C 0.84567 0.96919 0.04853 0.0
C830 C 0.8638 0.99292 0.98952 0.0
C831 C 0.86872 0.96134 0.9965 0.0
H832 H 0.32622 0.67662 0.2866 0.0
H833 H 0.32922 0.59458 0.346 0.0
H834 H 0.28519 0.57134 0.31621 0.0
H835 H 0.24104 0.57874 0.27841 0.0
H836 H 0.23621 0.66425 0.22391 0.0
H837 H 0.28596 0.68201 0.24653 0.0
C838 C 0.31761 0.65333 0.2926 0.0
C839 C 0.33055 0.6373 0.31843 0.0
C840 C 0.29176 0.64111 0.27647 0.0
C841 C 0.31958 0.60715 0.32604 0.0
C842 C 0.29426 0.59413 0.30923 0.0
C843 C 0.2514 0.60088 0.27106 0.0
C844 C 0.23519 0.6203 0.24962 0.0
C845 C 0.27942 0.61148 0.28517 0.0
C846 C 0.24834 0.64914 0.24049 0.0
C847 C 0.27669 0.65925 0.25341 0.0
H848 H 0.38688 0.13114 0.44003 0.0
H849 H 0.46834 0.08551 0.40026 0.0
H850 H 0.49961 0.09962 0.44631 0.0
H851 H 0.50168 0.11851 0.5009 0.0
H852 H 0.42136 0.16598 0.54075 0.0
H853 H 0.39163 0.1577 0.49194 0.0
C854 C 0.41179 0.12554 0.44102 0.0
C855 C 0.42553 0.10774 0.41677 0.0
C856 C 0.42953 0.1333 0.46795 0.0
C857 C 0.45758 0.09973 0.41853 0.0
C858 C 0.47532 0.1074 0.44502 0.0
C859 C 0.47778 0.12731 0.49863 0.0
C860 C 0.46341 0.1423 0.52429 0.0
C861 C 0.46121 0.12306 0.47037 0.0
C862 C 0.43269 0.15416 0.52117 0.0
C863 C 0.41574 0.14944 0.49332 0.0
H864 H 0.18383 0.23218 0.66766 0.0
H865 H 0.11045 0.16204 0.66173 0.0
H866 H 0.08834 0.18096 0.71168 0.0
H867 H 0.09305 0.21435 0.75925 0.0
H868 H 0.17026 0.28007 0.76631 0.0
H869 H 0.18807 0.26548 0.71367 0.0
C870 C 0.16276 0.22106 0.67694 0.0
C871 C 0.14894 0.19551 0.66091 0.0
C872 C 0.15124 0.23097 0.70615 0.0
C873 C 0.12157 0.18173 0.67346 0.0
C874 C 0.1091 0.19238 0.70216 0.0
C875 C 0.11363 0.22561 0.7491 0.0
C876 C 0.13038 0.24827 0.76663 0.0
C877 C 0.12425 0.21646 0.71908 0.0
C878 C 0.15715 0.26246 0.75339 0.0
C879 C 0.16725 0.25421 0.72326 0.0
H880 H 0.03377 0.89372 0.89353 0.0
H881 H 0.12088 0.85141 0.92324 0.0
H882 H 0.09388 0.82724 0.96844 0.0
H883 H 0.04778 0.82751 0.00464 0.0
H884 H 0.96286 0.87552 0.97644 0.0
H885 H 0.98635 0.88786 0.92545 0.0
C886 C 0.04649 0.87808 0.90923 0.0
C887 C 0.07908 0.87398 0.90503 0.0
C888 C 0.03121 0.86593 0.93586 0.0
C889 C 0.09564 0.85432 0.92573 0.0
C890 C 0.08026 0.84099 0.95183 0.0
C891 C 0.03416 0.83978 0.98688 0.0
C892 C 0.00366 0.85072 0.99426 0.0
C893 C 0.04839 0.84795 0.95796 0.0
C894 C 0.98639 0.86703 0.97131 0.0
C895 C 0.99984 0.87414 0.94219 0.0
H896 H 0.31406 0.79219 0.16093 0.0
H897 H 0.39494 0.85331 0.15686 0.0
H898 H 0.419 0.82434 0.20087 0.0
H899 H 0.41283 0.78685 0.24503 0.0
H900 H 0.32913 0.72919 0.25055 0.0
H901 H 0.31012 0.75184 0.20138 0.0
C902 C 0.33729 0.79878 0.16927 0.0
C903 C 0.35267 0.82496 0.15597 0.0
C904 C 0.35004 0.78305 0.19519 0.0
C905 C 0.38281 0.83313 0.16664 0.0
C906 C 0.39628 0.81682 0.19204 0.0
C907 C 0.39065 0.77886 0.23525 0.0
C908 C 0.37222 0.75656 0.25173 0.0
C909 C 0.37949 0.79256 0.20726 0.0
C910 C 0.34356 0.74654 0.23865 0.0
C911 C 0.33272 0.75943 0.21049 0.0
H912 H 0.00364 0.33613 0.51121 0.0
H913 H 0.94401 0.3967 0.45545 0.0
H914 H 0.91278 0.40943 0.50178 0.0
H915 H 0.90533 0.40752 0.55855 0.0
H916 H 0.9674 0.35208 0.61619 0.0
H917 H 0.99422 0.33224 0.56877 0.0
C918 C 0.98376 0.35203 0.50927 0.0
C919 C 0.9765 0.36585 0.48001 0.0
C920 C 0.96611 0.35978 0.53627 0.0
C921 C 0.95057 0.38629 0.47779 0.0
C922 C 0.93248 0.39338 0.50421 0.0
C923 C 0.92407 0.39025 0.56057 0.0
C924 C 0.93405 0.38059 0.59048 0.0
C925 C 0.94036 0.3807 0.53358 0.0
C926 C 0.95893 0.35908 0.59319 0.0
C927 C 0.97451 0.34823 0.56615 0.0
H928 H 0.88954 0.64404 0.8187 0.0
H929 H 0.84226 0.72614 0.85487 0.0
H930 H 0.86012 0.75696 0.80984 0.0
H931 H 0.88043 0.75773 0.75561 0.0
H932 H 0.9288 0.67657 0.71903 0.0
H933 H 0.91945 0.6482 0.76849 0.0
C934 C 0.8845 0.66901 0.81738 0.0
C935 C 0.86466 0.68285 0.84004 0.0
C936 C 0.89423 0.6865 0.79082 0.0
C937 C 0.85769 0.7151 0.83776 0.0
C938 C 0.86752 0.73263 0.81179 0.0
C939 C 0.88956 0.73411 0.75888 0.0
C940 C 0.90494 0.71905 0.73383 0.0
C941 C 0.88437 0.71816 0.78742 0.0
C942 C 0.91689 0.68854 0.73817 0.0
C943 C 0.91144 0.67231 0.76637 0.0
H944 H 0.52988 0.61979 0.11526 0.0
H945 H 0.62272 0.64434 0.08232 0.0
H946 H 0.59973 0.6711 0.03667 0.0
H947 H 0.5542 0.67547 0.00039 0.0
H948 H 0.46272 0.64398 0.03138 0.0
H949 H 0.48383 0.63228 0.08352 0.0
C950 C 0.54499 0.63206 0.09866 0.0
C951 C 0.57788 0.62977 0.10182 0.0
C952 C 0.53171 0.64552 0.07168 0.0
C953 C 0.59731 0.64587 0.08042 0.0
C954 C 0.58414 0.66071 0.05404 0.0
C955 C 0.53878 0.66718 0.01902 0.0
C956 C 0.50702 0.66046 0.01224 0.0
C957 C 0.55152 0.65893 0.04848 0.0
C958 C 0.48723 0.64922 0.03621 0.0
C959 C 0.49934 0.6424 0.06593 0.0
H960 H 0.62664 0.28154 0.35364 0.0
H961 H 0.6047 0.37624 0.32549 0.0
H962 H 0.58001 0.35658 0.27717 0.0
H963 H 0.57712 0.31343 0.23787 0.0
H964 H 0.60551 0.21995 0.26495 0.0
H965 H 0.61481 0.2377 0.31877 0.0
C966 C 0.61506 0.29767 0.33756 0.0
C967 C 0.61737 0.33014 0.34286 0.0
C968 C 0.60282 0.2863 0.3092 0.0
C969 C 0.60276 0.35108 0.32194 0.0
C970 C 0.5892 0.33983 0.29406 0.0
C971 C 0.58423 0.29689 0.25596 0.0
C972 C 0.59084 0.26555 0.24775 0.0
C973 C 0.59092 0.30765 0.28658 0.0
C974 C 0.60046 0.24421 0.27099 0.0
C975 C 0.60586 0.25437 0.30166 0.0
H976 H 0.51128 0.45043 0.17816 0.0
H977 H 0.49091 0.53034 0.11895 0.0
H978 H 0.43893 0.50892 0.10724 0.0
H979 H 0.40394 0.4635 0.10586 0.0
H980 H 0.42598 0.38058 0.15958 0.0
H981 H 0.47191 0.40732 0.18242 0.0
C982 C 0.49508 0.46349 0.1634 0.0
C983 C 0.50503 0.4918 0.14917 0.0
C984 C 0.4655 0.45037 0.15579 0.0
C985 C 0.48393 0.50837 0.12987 0.0
C986 C 0.45419 0.49613 0.12319 0.0
C987 C 0.41809 0.45181 0.12364 0.0
C988 C 0.41155 0.42029 0.1313 0.0
C989 C 0.44532 0.46661 0.13494 0.0
C990 C 0.43024 0.40504 0.15384 0.0
C991 C 0.45683 0.42018 0.16638 0.0
H992 H 0.99468 0.02861 0.82677 0.0
H993 H 0.00131 0.97043 0.90977 0.0
H994 H 0.95537 0.99668 0.93233 0.0
H995 H 0.91825 0.04016 0.93157 0.0
H996 H 0.91294 0.10179 0.85116 0.0
H997 H 0.95309 0.06985 0.82402 0.0
C998 C 0.98551 0.02119 0.84943 0.0
C999 C 0.00137 0.99762 0.86668 0.0
C1000 C 0.95968 0.03728 0.86279 0.0
C1001 C 0.98958 0.98854 0.89618 0.0
C1002 C 0.9634 0.00361 0.9091 0.0
C1003 C 0.92564 0.04651 0.90792 0.0
C1004 C 0.91314 0.07363 0.89356 0.0
C1005 C 0.94907 0.02869 0.89312 0.0
C1006 C 0.92232 0.08111 0.86271 0.0
C1007 C 0.94541 0.06295 0.84736 0.0
H1008 H 0.2076 0.6727 0.15957 0.0
H1009 H 0.12802 0.67805 0.09696 0.0
H1010 H 0.1499 0.72628 0.07337 0.0
H1011 H 0.18764 0.77123 0.07699 0.0
H1012 H 0.26188 0.76767 0.14621 0.0
H1013 H 0.24577 0.71484 0.16145 0.0
C1014 C 0.19531 0.68405 0.14025 0.0
C1015 C 0.16614 0.67204 0.13015 0.0
C1016 C 0.20668 0.71266 0.12876 0.0
C1017 C 0.15063 0.6867 0.10495 0.0
C1018 C 0.16289 0.71457 0.09192 0.0
C1019 C 0.20034 0.75866 0.0952 0.0
C1020 C 0.22572 0.7734 0.11075 0.0
C1021 C 0.19017 0.72852 0.10467 0.0
C1022 C 0.24202 0.75701 0.13431 0.0
C1023 C 0.23296 0.72673 0.14286 0.0
H1024 H 0.5152 0.98967 0.32699 0.0
H1025 H 0.44618 0.94516 0.38689 0.0
H1026 H 0.4835 0.90368 0.39997 0.0
H1027 H 0.53672 0.88357 0.39943 0.0
H1028 H 0.60931 0.93107 0.34671 0.0
H1029 H 0.56966 0.96695 0.32445 0.0
C1030 C 0.50862 0.97085 0.34294 0.0
C1031 C 0.47841 0.97074 0.35672 0.0
C1032 C 0.5307 0.94745 0.3512 0.0
C1033 C 0.46968 0.94612 0.3769 0.0
C1034 C 0.49085 0.92225 0.38408 0.0
C1035 C 0.5438 0.90136 0.38248 0.0
C1036 C 0.57585 0.90489 0.3749 0.0
C1037 C 0.52155 0.92313 0.372 0.0
C1038 C 0.58472 0.92773 0.3527 0.0
C1039 C 0.56212 0.94861 0.3405 0.0
H1040 H 0.37525 0.31217 0.61768 0.0
H1041 H 0.29172 0.36838 0.62928 0.0
H1042 H 0.25937 0.32579 0.60821 0.0
H1043 H 0.2541 0.26889 0.59743 0.0
H1044 H 0.33758 0.21259 0.58534 0.0
H1045 H 0.3708 0.25858 0.59558 0.0
C1046 C 0.35022 0.31566 0.61382 0.0
C1047 C 0.33589 0.34346 0.62457 0.0
C1048 C 0.33167 0.29055 0.6027 0.0
C1049 C 0.3033 0.34742 0.62047 0.0
C1050 C 0.28472 0.32279 0.60905 0.0
C1051 C 0.27957 0.26704 0.59623 0.0
C1052 C 0.29352 0.23755 0.591 0.0
C1053 C 0.29847 0.29367 0.60183 0.0
C1054 C 0.32647 0.23519 0.58934 0.0
C1055 C 0.34543 0.26145 0.59527 0.0
H1056 H 0.01524 0.49015 0.63265 0.0
H1057 H 0.96152 0.57236 0.65776 0.0
H1058 H 0.00726 0.60596 0.64741 0.0
H1059 H 0.0605 0.61225 0.62436 0.0
H1060 H 0.11448 0.52984 0.60072 0.0
H1061 H 0.07142 0.49594 0.61838 0.0
C1062 C 0.01386 0.51537 0.63629 0.0
C1063 C 0.98515 0.52892 0.64553 0.0
C1064 C 0.04045 0.53445 0.6309 0.0
C1065 C 0.9835 0.56153 0.65056 0.0
C1066 C 0.00962 0.58073 0.64464 0.0
C1067 C 0.06329 0.58689 0.62456 0.0
C1068 C 0.09073 0.57347 0.61184 0.0
C1069 C 0.03803 0.56754 0.63407 0.0
C1070 C 0.09378 0.54058 0.61114 0.0
C1071 C 0.06895 0.52121 0.62072 0.0
H1072 H 0.74442 0.75702 0.91464 0.0
H1073 H 0.68608 0.6929 0.86179 0.0
H1074 H 0.64773 0.73446 0.85255 0.0
H1075 H 0.63441 0.78975 0.85307 0.0
H1076 H 0.69595 0.85677 0.89748 0.0
H1077 H 0.72853 0.81354 0.91806 0.0
C1078 C 0.72322 0.75234 0.90123 0.0
C1079 C 0.71829 0.72225 0.88828 0.0
C1080 C 0.70164 0.77679 0.89503 0.0
C1081 C 0.69069 0.71615 0.87121 0.0
C1082 C 0.66861 0.73977 0.86623 0.0
C1083 C 0.65437 0.79479 0.86824 0.0
C1084 C 0.66285 0.82619 0.87386 0.0
C1085 C 0.67427 0.77026 0.87727 0.0
C1086 C 0.68875 0.83269 0.89329 0.0
C1087 C 0.70773 0.80799 0.90438 0.0
H1088 H 0.78466 0.24712 0.43017 0.0
H1089 H 0.70885 0.2261 0.36591 0.0
H1090 H 0.73526 0.17744 0.35042 0.0
H1091 H 0.7833 0.14612 0.34861 0.0
H1092 H 0.86249 0.17036 0.407 0.0
H1093 H 0.83099 0.21176 0.43248 0.0
C1094 C 0.77355 0.23148 0.41336 0.0
C1095 C 0.74485 0.2403 0.39904 0.0
C1096 C 0.78956 0.20412 0.40363 0.0
C1097 C 0.73096 0.21998 0.37705 0.0
C1098 C 0.74606 0.19216 0.36823 0.0
C1099 C 0.7933 0.15981 0.36772 0.0
C1100 C 0.8251 0.1553 0.37601 0.0
C1101 C 0.77584 0.18468 0.38048 0.0
C1102 C 0.83796 0.17314 0.40058 0.0
C1103 C 0.82008 0.19715 0.41467 0.0
H1104 H 0.10676 0.47206 0.2089 0.0
H1105 H 0.02779 0.52911 0.23685 0.0
H1106 H 0.00757 0.48589 0.26937 0.0
H1107 H 0.01842 0.4365 0.29754 0.0
H1108 H 0.10023 0.38138 0.27257 0.0
H1109 H 0.11313 0.41895 0.23101 0.0
C1110 C 0.08429 0.47437 0.22092 0.0
C1111 C 0.06841 0.50345 0.22007 0.0
C1112 C 0.07392 0.45008 0.24089 0.0
C1113 C 0.03991 0.50668 0.2365 0.0
C1114 C 0.02875 0.48215 0.25558 0.0
C1115 C 0.03879 0.4323 0.28268 0.0
C1116 C 0.05868 0.40631 0.28876 0.0
C1117 C 0.04649 0.45443 0.25922 0.0
C1118 C 0.08466 0.4012 0.26881 0.0
C1119 C 0.09211 0.42277 0.24502 0.0
H1120 H 0.85016 0.81212 0.51669 0.0
H1121 H 0.78756 0.76827 0.58398 0.0
H1122 H 0.74397 0.77308 0.5476 0.0
H1123 H 0.72141 0.79672 0.50007 0.0
H1124 H 0.78237 0.84263 0.43341 0.0
H1125 H 0.82848 0.82903 0.46517 0.0
C1126 C 0.82712 0.80321 0.52321 0.0
C1127 C 0.82236 0.7905 0.55352 0.0
C1128 C 0.80161 0.8061 0.50199 0.0
C1129 C 0.79218 0.77878 0.56121 0.0
C1130 C 0.76702 0.78134 0.54029 0.0
C1131 C 0.74496 0.80225 0.49172 0.0
C1132 C 0.74855 0.81997 0.46408 0.0
C1133 C 0.77117 0.79577 0.51099 0.0
C1134 C 0.77912 0.82819 0.45419 0.0
C1135 C 0.80544 0.82098 0.47272 0.0
H1136 H 0.4459 0.46803 0.78079 0.0
H1137 H 0.42406 0.52895 0.70307 0.0
H1138 H 0.43456 0.57523 0.73591 0.0
H1139 H 0.4409 0.59804 0.78966 0.0
H1140 H 0.45978 0.53507 0.8673 0.0
H1141 H 0.45922 0.49047 0.83193 0.0
C1142 C 0.44514 0.49144 0.77059 0.0
C1143 C 0.43501 0.49497 0.73929 0.0
C1144 C 0.44938 0.51781 0.79015 0.0
C1145 C 0.43285 0.52551 0.72675 0.0
C1146 C 0.43807 0.55202 0.74584 0.0
C1147 C 0.44521 0.57463 0.79879 0.0
C1148 C 0.44974 0.57027 0.83148 0.0
C1149 C 0.44481 0.54847 0.77807 0.0
C1150 C 0.45568 0.53954 0.84255 0.0
C1151 C 0.45556 0.51378 0.82224 0.0
H1152 H 0.65187 0.19221 0.03104 0.0
H1153 H 0.71869 0.19901 0.10738 0.0
H1154 H 0.7621 0.19835 0.07026 0.0
H1155 H 0.78186 0.18945 0.01692 0.0
H1156 H 0.71645 0.17815 0.94061 0.0
H1157 H 0.67221 0.18859 0.97624 0.0
C1158 C 0.6759 0.19366 0.03953 0.0
C1159 C 0.68166 0.19524 0.0722 0.0
C1160 C 0.70127 0.19321 0.01784 0.0
C1161 C 0.71316 0.19752 0.08254 0.0
C1162 C 0.73824 0.19732 0.06126 0.0
C1163 C 0.75802 0.1909 0.00783 0.0
C1164 C 0.75252 0.18387 0.97601 0.0
C1165 C 0.73266 0.19465 0.02893 0.0
C1166 C 0.72137 0.18453 0.9648 0.0
C1167 C 0.696 0.18969 0.98539 0.0
H1168 H 0.6067 0.02987 0.79061 0.0
H1169 H 0.54359 0.95994 0.75321 0.0
H1170 H 0.5243 0.99799 0.71432 0.0
H1171 H 0.53234 0.0479 0.68564 0.0
H1172 H 0.59793 0.11658 0.72185 0.0
H1173 H 0.60949 0.08216 0.76641 0.0
C1174 C 0.58784 0.02334 0.77467 0.0
C1175 C 0.57654 0.99214 0.77478 0.0
C1176 C 0.57813 0.04481 0.75152 0.0
C1177 C 0.55229 0.98388 0.75396 0.0
C1178 C 0.54177 0.00549 0.7313 0.0
C1179 C 0.54902 0.05551 0.70337 0.0
C1180 C 0.56479 0.08463 0.69991 0.0
C1181 C 0.55569 0.03547 0.72892 0.0
C1182 C 0.58574 0.09426 0.72359 0.0
C1183 C 0.59233 0.07457 0.74914 0.0
H1184 H 0.21695 0.35412 0.04994 0.0
H1185 H 0.27622 0.27708 0.02132 0.0
H1186 H 0.23385 0.25686 0.98773 0.0
H1187 H 0.18501 0.26794 0.95842 0.0
H1188 H 0.12818 0.34836 0.9839 0.0
H1189 H 0.16431 0.36026 0.02691 0.0
C1190 C 0.21999 0.33204 0.03748 0.0
C1191 C 0.24957 0.31693 0.03831 0.0
C1192 C 0.19626 0.3218 0.01683 0.0
C1193 C 0.25353 0.28874 0.02162 0.0
C1194 C 0.22947 0.27761 0.00188 0.0
C1195 C 0.18003 0.28773 0.97373 0.0
C1196 C 0.15403 0.30761 0.9673 0.0
C1197 C 0.20148 0.29499 0.99797 0.0
C1198 C 0.14802 0.33284 0.98784 0.0
C1199 C 0.16878 0.33971 0.01248 0.0
H1200 H 0.95195 0.02687 0.23099 0.0
H1201 H 0.90713 0.97101 0.3026 0.0
H1202 H 0.91412 0.92359 0.27045 0.0
H1203 H 0.92354 0.90046 0.21718 0.0
H1204 H 0.9659 0.95904 0.14549 0.0
H1205 H 0.96912 0.00249 0.18208 0.0
C1206 C 0.94521 0.00401 0.24021 0.0
C1207 C 0.92935 0.0024 0.26918 0.0
C1208 C 0.94766 0.97737 0.22086 0.0
C1209 C 0.92006 0.97277 0.28066 0.0
C1210 C 0.92336 0.94576 0.26187 0.0
C1211 C 0.93383 0.92259 0.20975 0.0
C1212 C 0.94351 0.92653 0.17817 0.0
C1213 C 0.93552 0.94811 0.23112 0.0
C1214 C 0.95729 0.95536 0.16923 0.0
C1215 C 0.95945 0.98034 0.19027 0.0
H1216 H 0.29066 0.65311 0.54055 0.0
H1217 H 0.21819 0.71354 0.50343 0.0
H1218 H 0.25588 0.7351 0.46512 0.0
H1219 H 0.30657 0.72944 0.43642 0.0
H1220 H 0.37674 0.66485 0.47157 0.0
H1221 H 0.34285 0.6522 0.51625 0.0
C1222 C 0.28332 0.67174 0.5247 0.0
C1223 C 0.25158 0.68165 0.52484 0.0
C1224 C 0.3046 0.68267 0.50181 0.0
C1225 C 0.24248 0.70577 0.50417 0.0
C1226 C 0.26396 0.71768 0.48188 0.0
C1227 C 0.31479 0.71312 0.45421 0.0
C1228 C 0.34422 0.69788 0.45032 0.0
C1229 C 0.29467 0.70521 0.47955 0.0
C1230 C 0.35424 0.6767 0.47365 0.0
C1231 C 0.33482 0.66945 0.49927 0.0
H1232 H 0.24399 0.0372 0.50849 0.0
H1233 H 0.20884 0.12721 0.47843 0.0
H1234 H 0.2362 0.12161 0.42794 0.0
H1235 H 0.27761 0.09443 0.39606 0.0
H1236 H 0.30766 0.00175 0.42533 0.0
H1237 H 0.27444 0.00486 0.47145 0.0
C1238 C 0.2412 0.05494 0.49034 0.0
C1239 C 0.22454 0.0826 0.49729 0.0
C1240 C 0.2567 0.05138 0.46119 0.0
C1241 C 0.22142 0.10559 0.47366 0.0
C1242 C 0.23739 0.10254 0.44483 0.0
C1243 C 0.27629 0.07459 0.41204 0.0
C1244 C 0.2962 0.04837 0.40732 0.0
C1245 C 0.25632 0.07607 0.43883 0.0
C1246 C 0.29346 0.02271 0.42831 0.0
C1247 C 0.27435 0.02434 0.45498 0.0
H1248 H 0.18505 0.01342 0.76813 0.0
H1249 H 0.14523 0.94674 0.70343 0.0
H1250 H 0.1586 0.98114 0.65897 0.0
H1251 H 0.17501 0.03406 0.63941 0.0
H1252 H 0.21238 0.10086 0.70637 0.0
H1253 H 0.20648 0.06301 0.7484 0.0
C1254 C 0.18075 0.00577 0.74415 0.0
C1255 C 0.16516 0.97711 0.73902 0.0
C1256 C 0.18707 0.0264 0.71895 0.0
C1257 C 0.1583 0.96817 0.7079 0.0
C1258 C 0.16534 0.9882 0.68251 0.0
C1259 C 0.18207 0.04024 0.66312 0.0
C1260 C 0.19362 0.07078 0.66936 0.0
C1261 C 0.1786 0.01804 0.68785 0.0
C1262 C 0.20294 0.07796 0.70044 0.0
C1263 C 0.19976 0.05617 0.72477 0.0
H1264 H 0.19231 0.98286 0.92996 0.0
H1265 H 0.2267 0.91099 0.86677 0.0
H1266 H 0.2705 0.90041 0.9022 0.0
H1267 H 0.29205 0.90372 0.95573 0.0
H1268 H 0.25606 0.9729 0.02032 0.0
H1269 H 0.22082 0.99319 0.9795 0.0
C1270 C 0.20974 0.96534 0.92352 0.0
C1271 C 0.20558 0.94725 0.89592 0.0
C1272 C 0.23478 0.95894 0.94437 0.0
C1273 C 0.22884 0.92503 0.88792 0.0
C1274 C 0.25399 0.91889 0.90826 0.0
C1275 C 0.27777 0.92442 0.96024 0.0
C1276 C 0.27692 0.93704 0.99088 0.0
C1277 C 0.25635 0.93468 0.93717 0.0
C1278 C 0.2577 0.96327 0.99676 0.0
C1279 C 0.23699 0.97436 0.97358 0.0
H1280 H 0.27263 0.95561 0.18562 0.0
H1281 H 0.34714 0.9796 0.12043 0.0
H1282 H 0.36439 0.02161 0.15542 0.0
H1283 H 0.36298 0.04664 0.20728 0.0
H1284 H 0.29061 0.02154 0.27404 0.0
H1285 H 0.26731 0.9856 0.23532 0.0
C1286 C 0.29234 0.97031 0.17873 0.0
C1287 C 0.3088 0.96391 0.15039 0.0
C1288 C 0.30254 0.9943 0.19931 0.0
C1289 C 0.33414 0.98355 0.14203 0.0
C1290 C 0.34407 0.00766 0.16211 0.0
C1291 C 0.34159 0.03392 0.21314 0.0
C1292 C 0.32865 0.03671 0.24365 0.0
C1293 C 0.3291 0.01255 0.1912 0.0
C1294 C 0.30089 0.02015 0.25072 0.0
C1295 C 0.28786 -0.00078 0.22868 0.0
H1296 H 0.71466 0.38979 0.53831 0.0
H1297 H 0.75795 0.44275 0.46332 0.0
H1298 H 0.80005 0.45944 0.49922 0.0
H1299 H 0.82777 0.45327 0.55019 0.0
H1300 H 0.78407 0.39906 0.62439 0.0
H1301 H 0.73908 0.38835 0.59043 0.0
C1302 C 0.73287 0.40571 0.53003 0.0
C1303 C 0.73316 0.41506 0.49818 0.0
C1304 C 0.75735 0.4143 0.55049 0.0
C1305 C 0.75689 0.43562 0.48778 0.0
C1306 C 0.78124 0.4447 0.50822 0.0
C1307 C 0.80835 0.43921 0.55901 0.0
C1308 C 0.80969 0.42654 0.58978 0.0
C1309 C 0.78231 0.43322 0.53931 0.0
C1310 C 0.78395 0.4089 0.60087 0.0
C1311 C 0.75812 0.40279 0.58145 0.0
H1312 H 0.86662 0.46371 0.77602 0.0
H1313 H 0.77993 0.48422 0.72767 0.0
H1314 H 0.76299 0.5178 0.77121 0.0
H1315 H 0.77755 0.5491 0.81734 0.0
H1316 H 0.86544 0.5314 0.86485 0.0
H1317 H 0.8773 0.4889 0.82756 0.0
C1318 C 0.84334 0.47426 0.77588 0.0
C1319 C 0.82421 0.47108 0.74898 0.0
C1320 C 0.83455 0.49491 0.80035 0.0
C1321 C 0.79463 0.48576 0.74845 0.0
C1322 C 0.78524 0.50543 0.7731 0.0
C1323 C 0.79908 0.53558 0.81987 0.0
C1324 C 0.8209 0.54379 0.84342 0.0
C1325 C 0.80576 0.51147 0.79825 0.0
C1326 C 0.84838 0.52568 0.84681 0.0
C1327 C 0.85518 0.50145 0.82541 0.0
H1328 H 0.72855 0.58022 0.10427 0.0
H1329 H 0.66723 0.5165 0.05428 0.0
H1330 H 0.70413 0.51422 0.01069 0.0
H1331 H 0.74825 0.53779 0.98251 0.0
H1332 H 0.80895 0.60358 0.02958 0.0
H1333 H 0.77908 0.59663 0.07856 0.0
C1334 C 0.72367 0.56537 0.08412 0.0
C1335 C 0.69463 0.54927 0.0823 0.0
C1336 C 0.74508 0.5644 0.05846 0.0
C1337 C 0.68889 0.52989 0.05605 0.0
C1338 C 0.71011 0.52836 0.03106 0.0
C1339 C 0.75595 0.54928 0.00398 0.0
C1340 C 0.78092 0.57092 0.00245 0.0
C1341 C 0.7376 0.54648 0.03141 0.0
C1342 C 0.79026 0.58623 0.03026 0.0
C1343 C 0.77262 0.58284 0.05812 0.0
H1344 H 0.67989 0.4677 0.35185 0.0
H1345 H 0.7416 0.40354 0.30244 0.0
H1346 H 0.73828 0.4356 0.25544 0.0
H1347 H 0.71109 0.47684 0.22547 0.0
H1348 H 0.65144 0.54284 0.27403 0.0
H1349 H 0.66121 0.51567 0.32397 0.0
C1350 C 0.69322 0.46111 0.33108 0.0
C1351 C 0.7103 0.4326 0.33082 0.0
C1352 C 0.69148 0.47998 0.30366 0.0
C1353 C 0.72773 0.4249 0.30356 0.0
C1354 C 0.72587 0.44326 0.27641 0.0
C1355 C 0.7013 0.48599 0.24723 0.0
C1356 C 0.68079 0.51189 0.24611 0.0
C1357 C 0.70686 0.47013 0.27578 0.0
C1358 C 0.66782 0.52329 0.27438 0.0
C1359 C 0.67303 0.50743 0.3029 0.0
H1360 H 0.48639 0.21366 0.10654 0.0
H1361 H 0.53864 0.2495 0.02731 0.0
H1362 H 0.49254 0.27941 0.01006 0.0
H1363 H 0.44182 0.30312 0.02352 0.0
H1364 H 0.39144 0.2719 0.10622 0.0
H1365 H 0.43203 0.23224 0.11596 0.0
C1366 C 0.48709 0.22689 0.0847 0.0
C1367 C 0.5156 0.22897 0.0678 0.0
C1368 C 0.46109 0.2456 0.07615 0.0
C1369 C 0.51672 0.24703 0.04019 0.0
C1370 C 0.49051 0.26452 0.03067 0.0
C1371 C 0.4393 0.28732 0.04341 0.0
C1372 C 0.41379 0.29105 0.06446 0.0
C1373 C 0.46321 0.26526 0.04941 0.0
C1374 C 0.41085 0.26988 0.08975 0.0
C1375 C 0.43417 0.24722 0.09541 0.0
H1376 H 0.0157 0.25946 0.95849 0.0
H1377 H 0.96516 0.30798 0.88544 0.0
H1378 H 0.91753 0.27804 0.89757 0.0
H1379 H 0.8935 0.23106 0.92228 0.0
H1380 H 0.94456 0.18297 0.99583 0.0
H1381 H 0.98808 0.21955 0.99035 0.0
C1382 C 0.99379 0.26461 0.94643 0.0
C1383 C 0.99384 0.2862 0.92142 0.0
C1384 C 0.96666 0.24649 0.95289 0.0
C1385 C 0.9655 0.29191 0.90525 0.0
C1386 C 0.93838 0.27434 0.91179 0.0
C1387 C 0.91385 0.22895 0.93753 0.0
C1388 C 0.91571 0.20368 0.95893 0.0
C1389 C 0.93915 0.25038 0.93447 0.0
C1390 C 0.94228 0.20179 0.9788 0.0
C1391 C 0.96742 0.22278 0.97573 0.0
H1392 H 0.96004 0.73181 0.1422 0.0
H1393 H 0.99842 0.79089 0.21494 0.0
H1394 H 0.02785 0.7462 0.23629 0.0
H1395 H 0.05024 0.69403 0.22765 0.0
H1396 H 0.01668 0.63647 0.151 0.0
H1397 H 0.97728 0.67645 0.13813 0.0
C1398 C 0.97379 0.73439 0.16357 0.0
C1399 C 0.97675 0.76428 0.17746 0.0
C1400 C 0.99205 0.70903 0.17445 0.0
C1401 C 0.99539 0.76788 0.2044 0.0
C1402 C 0.01251 0.74244 0.21627 0.0
C1403 C 0.03395 0.68985 0.20846 0.0
C1404 C 0.03695 0.6625 0.18988 0.0
C1405 C 0.01225 0.71342 0.20048 0.0
C1406 C 0.01516 0.65735 0.16554 0.0
C1407 C 0.99272 0.68033 0.15804 0.0
H1408 H 0.48371 0.73666 0.44699 0.0
H1409 H 0.53407 0.69281 0.37067 0.0
H1410 H 0.58225 0.72031 0.38556 0.0
H1411 H 0.60652 0.76506 0.41318 0.0
H1412 H 0.55599 0.80899 0.48977 0.0
H1413 H 0.51208 0.77318 0.48222 0.0
C1414 C 0.50564 0.73195 0.43471 0.0
C1415 C 0.5054 0.71271 0.40786 0.0
C1416 C 0.53317 0.7487 0.44284 0.0
C1417 C 0.53383 0.70734 0.39163 0.0
C1418 C 0.56129 0.72345 0.39985 0.0
C1419 C 0.58629 0.76631 0.42876 0.0
C1420 C 0.58449 0.79038 0.45143 0.0
C1421 C 0.56076 0.74555 0.42429 0.0
C1422 C 0.55812 0.79113 0.47171 0.0
C1423 C 0.53275 0.77063 0.4674 0.0
H1424 H 0.5112 0.23478 0.71818 0.0
H1425 H 0.55182 0.26975 0.63219 0.0
H1426 H 0.52372 0.31969 0.63884 0.0
H1427 H 0.47909 0.34879 0.66391 0.0
H1428 H 0.43931 0.31226 0.75013 0.0
H1429 H 0.47566 0.26824 0.74884 0.0
C1430 C 0.51514 0.25396 0.70177 0.0
C1431 C 0.53377 0.24865 0.67493 0.0
C1432 C 0.49819 0.2822 0.70532 0.0
C1433 C 0.53814 0.27345 0.65343 0.0
C1434 C 0.52152 0.30185 0.65693 0.0
C1435 C 0.47902 0.3317 0.68286 0.0
C1436 C 0.45577 0.33358 0.70662 0.0
C1437 C 0.50016 0.30587 0.68197 0.0
C1438 C 0.4563 0.31117 0.73108 0.0
C1439 C 0.47718 0.28587 0.73046 0.0
H1440 H 0.98072 0.74196 0.52441 0.0
H1441 H 0.01908 0.79709 0.60003 0.0
H1442 H 0.0702 0.77117 0.59368 0.0
H1443 H 0.10044 0.72513 0.57327 0.0
H1444 H 0.06128 0.67216 0.49579 0.0
H1445 H 0.01479 0.70496 0.49604 0.0
C1446 C 0.00078 0.74955 0.53826 0.0
C1447 C 0.99617 0.77168 0.56235 0.0
C1448 C 0.02993 0.73404 0.53489 0.0
C1449 C 0.02219 0.78067 0.58076 0.0
C1450 C 0.05131 0.7653 0.57759 0.0
C1451 C 0.08211 0.72121 0.55598 0.0
C1452 C 0.08437 0.69534 0.53525 0.0
C1453 C 0.05498 0.74069 0.55581 0.0
C1454 C 0.06032 0.69123 0.51267 0.0
C1455 C 0.03346 0.7101 0.51264 0.0
H1456 H 0.51193 0.72057 0.7955 0.0
H1457 H 0.45754 0.76561 0.86823 0.0
H1458 H 0.48344 0.81588 0.85702 0.0
H1459 H 0.52769 0.84482 0.83173 0.0
H1460 H 0.57895 0.79951 0.7563 0.0
H1461 H 0.54784 0.75227 0.76292 0.0
C1462 C 0.5049 0.7417 0.80798 0.0
C1463 C 0.4828 0.73947 0.83247 0.0
C1464 C 0.51978 0.77055 0.8013 0.0
C1465 C 0.47418 0.76688 0.84889 0.0
C1466 C 0.48929 0.79558 0.84274 0.0
C1467 C 0.53155 0.82493 0.81623 0.0
C1468 C 0.55633 0.82586 0.79407 0.0
C1469 C 0.51308 0.79744 0.81979 0.0
C1470 C 0.5605 0.79975 0.77395 0.0
C1471 C 0.54271 0.77242 0.77771 0.0
H1472 H 0.95086 0.18854 0.27622 0.0
H1473 H 0.98003 0.12572 0.35055 0.0
H1474 H 0.02471 0.1599 0.36218 0.0
H1475 H 0.04849 0.21243 0.35831 0.0
H1476 H 0.01776 0.27656 0.28624 0.0
H1477 H 0.98159 0.23666 0.26572 0.0
C1478 C 0.96729 0.18202 0.29462 0.0
C1479 C 0.96157 0.15496 0.31303 0.0
C1480 C 0.99283 0.202 0.30142 0.0
C1481 C 0.98355 0.14654 0.33627 0.0
C1482 C 0.00914 0.16613 0.34297 0.0
C1483 C 0.03508 0.21697 0.33705 0.0
C1484 C 0.03585 0.24723 0.32363 0.0
C1485 C 0.01318 0.19454 0.3266 0.0
C1486 C 0.01799 0.25324 0.29654 0.0
C1487 C 0.99678 0.23063 0.2853 0.0
H1488 H 0.1449 0.26019 0.41571 0.0
H1489 H 0.07743 0.28649 0.4872 0.0
H1490 H 0.10528 0.25506 0.52596 0.0
H1491 H 0.14561 0.21702 0.5387 0.0
H1492 H 0.21334 0.1885 0.46844 0.0
H1493 H 0.1888 0.22405 0.43012 0.0
C1494 C 0.13675 0.25937 0.4399 0.0
C1495 C 0.109 0.2753 0.44854 0.0
C1496 C 0.15263 0.24062 0.46217 0.0
C1497 C 0.09851 0.27405 0.47992 0.0
C1498 C 0.11439 0.2561 0.50212 0.0
C1499 C 0.15511 0.21852 0.51501 0.0
C1500 C 0.18086 0.19974 0.50626 0.0
C1501 C 0.1409 0.23867 0.4933 0.0
C1502 C 0.19333 0.20258 0.47569 0.0
C1503 C 0.17928 0.22285 0.45378 0.0
H1504 H 0.0342 0.92254 0.73169 0.0
H1505 H 0.07469 0.84247 0.77914 0.0
H1506 H 0.04554 0.80687 0.7443 0.0
H1507 H 0.00704 0.79896 0.7012 0.0
H1508 H 0.96834 0.88048 0.65423 0.0
H1509 H 0.9986 0.91496 0.68799 0.0
C1510 C 0.03656 0.89729 0.73462 0.0
C1511 C 0.05618 0.88514 0.75819 0.0
C1512 C 0.02018 0.8772 0.71448 0.0
C1513 C 0.05954 0.85237 0.76119 0.0
C1514 C 0.04292 0.83205 0.74129 0.0
C1515 C 0.00551 0.82424 0.6982 0.0
C1516 C 0.98515 0.83702 0.67543 0.0
C1517 C 0.02301 0.84424 0.7179 0.0
C1518 C 0.98347 0.86989 0.6718 0.0
C1519 C 0.00077 0.88974 0.6911 0.0
H1520 H 0.36806 0.71918 0.94222 0.0
H1521 H 0.45363 0.77401 0.94615 0.0
H1522 H 0.42723 0.81296 0.97927 0.0
H1523 H 0.37983 0.83112 0.00778 0.0
H1524 H 0.29484 0.77526 0.0034 0.0
H1525 H 0.32123 0.73717 0.96994 0.0
C1526 C 0.38101 0.73972 0.95007 0.0
C1527 C 0.41283 0.74355 0.94159 0.0
C1528 C 0.36583 0.76186 0.96927 0.0
C1529 C 0.42912 0.77034 0.95227 0.0
C1530 C 0.41405 0.79264 0.97129 0.0
C1531 C 0.36711 0.81057 -0.0004 0.0
C1532 C 0.33533 0.80622 0.00822 0.0
C1533 C 0.38243 0.78855 0.98012 0.0
C1534 C 0.31925 0.77944 0.9972 0.0
C1535 C 0.33431 0.75754 0.97798 0.0
H1536 H 0.54361 0.14537 0.21461 0.0
H1537 H 0.46921 0.19554 0.1674 0.0
H1538 H 0.43043 0.17372 0.20443 0.0
H1539 H 0.41766 0.13754 0.24866 0.0
H1540 H 0.49358 0.08956 0.29615 0.0
H1541 H 0.53183 0.11398 0.26116 0.0
C1542 C 0.51885 0.15137 0.21234 0.0
C1543 C 0.50907 0.17134 0.18799 0.0
C1544 C 0.49704 0.13946 0.23406 0.0
C1545 C 0.47713 0.1798 0.18582 0.0
C1546 C 0.45503 0.16745 0.20703 0.0
C1547 C 0.44262 0.13311 0.25177 0.0
C1548 C 0.45274 0.11157 0.27478 0.0
C1549 C 0.46468 0.147 0.23115 0.0
C1550 C 0.48518 0.10585 0.27842 0.0
C1551 C 0.50709 0.11964 0.25832 0.0
H1552 H 0.55852 0.27332 0.56686 0.0
H1553 H 0.59244 0.18673 0.52603 0.0
H1554 H 0.6196 0.2159 0.48487 0.0
H1555 H 0.63907 0.26539 0.46454 0.0
H1556 H 0.60898 0.35301 0.5058 0.0
H1557 H 0.5744 0.32426 0.54232 0.0
C1558 C 0.5714 0.26102 0.54854 0.0
C1559 C 0.57393 0.22804 0.54957 0.0
C1560 C 0.58779 0.27808 0.52525 0.0
C1561 C 0.59065 0.21217 0.52586 0.0
C1562 C 0.60613 0.22879 0.50233 0.0
C1563 C 0.62466 0.27826 0.48129 0.0
C1564 C 0.62691 0.31112 0.48294 0.0
C1565 C 0.60574 0.26167 0.50246 0.0
C1566 C 0.60766 0.32761 0.50422 0.0
C1567 C 0.58811 0.31117 0.52522 0.0
H1568 H 0.96999 0.39162 0.71076 0.0
H1569 H 0.93437 0.45482 0.78173 0.0
H1570 H 0.97046 0.43185 0.82059 0.0
H1571 H 0.00898 0.39024 0.83504 0.0
H1572 H 0.04334 0.32768 0.76257 0.0
H1573 H 0.01111 0.3542 0.7236 0.0
C1574 C 0.97019 0.40047 0.73472 0.0
C1575 C 0.94929 0.42442 0.74358 0.0
C1576 C 0.99075 0.38721 0.75667 0.0
C1577 C 0.95025 0.43622 0.77446 0.0
C1578 C 0.97077 0.42303 0.79666 0.0
C1579 C 0.00973 0.38283 0.81063 0.0
C1580 C 0.02812 0.3567 0.80184 0.0
C1581 C 0.99072 0.39803 0.78815 0.0
C1582 C 0.02895 0.34736 0.77009 0.0
C1583 C 0.01055 0.3625 0.74773 0.0
H1584 H 0.86181 0.77251 0.06843 0.0
H1585 H 0.95424 0.73693 0.04466 0.0
H1586 H 0.93084 0.6994 0.00839 0.0
H1587 H 0.88447 0.67771 0.98199 0.0
H1588 H 0.79196 0.71257 0.00614 0.0
H1589 H 0.8152 0.74929 0.04359 0.0
C1590 C 0.87687 0.75645 0.0555 0.0
C1591 C 0.90977 0.75779 0.05926 0.0
C1592 C 0.86331 0.73486 0.03453 0.0
C1593 C 0.92884 0.73659 0.04231 0.0
C1594 C 0.91551 0.71511 0.02142 0.0
C1595 C 0.86937 0.69338 0.99538 0.0
C1596 C 0.83657 0.69251 0.99107 0.0
C1597 C 0.88282 0.71428 0.01707 0.0
C1598 C 0.81733 0.71271 0.00896 0.0
C1599 C 0.83057 0.73377 0.03039 0.0
H1600 H 0.49228 0.61388 0.32537 0.0
H1601 H 0.46792 0.67691 0.24934 0.0
H1602 H 0.50691 0.6522 0.21561 0.0
H1603 H 0.54942 0.61466 0.20807 0.0
H1604 H 0.57324 0.54951 0.28206 0.0
H1605 H 0.53312 0.57325 0.31634 0.0
C1606 C 0.49519 0.62185 0.30128 0.0
C1607 C 0.4774 0.64744 0.29009 0.0
C1608 C 0.51789 0.60757 0.28182 0.0
C1609 C 0.48149 0.65749 0.25877 0.0
C1610 C 0.50387 0.64347 0.2394 0.0
C1611 C 0.54603 0.60586 0.23183 0.0
C1612 C 0.56454 0.5809 0.24286 0.0
C1613 C 0.52259 0.61898 0.25088 0.0
C1614 C 0.55936 0.569 0.27328 0.0
C1615 C 0.5364 0.58247 0.29278 0.0
H1616 H 0.24827 0.4645 0.06483 0.0
H1617 H 0.27615 0.41702 0.15037 0.0
H1618 H 0.24013 0.44995 0.18063 0.0
H1619 H 0.20126 0.49185 0.18281 0.0
H1620 H 0.17302 0.53968 0.09761 0.0
H1621 H 0.2088 0.50647 0.06703 0.0
C1622 C 0.24663 0.46137 0.09012 0.0
C1623 C 0.265 0.43834 0.10531 0.0
C1624 C 0.22579 0.48025 0.10735 0.0
C1625 C 0.26231 0.43452 0.13806 0.0
C1626 C 0.24172 0.45333 0.15538 0.0
C1627 C 0.20279 0.49514 0.15753 0.0
C1628 C 0.18449 0.51834 0.14255 0.0
C1629 C 0.22339 0.47619 0.14024 0.0
C1630 C 0.18679 0.522 0.10975 0.0
C1631 C 0.20729 0.5031 0.09228 0.0
H1632 H 0.74283 0.0405 0.9389 0.0
H1633 H 0.78493 0.07918 0.85473 0.0
H1634 H 0.75188 0.04474 0.8224 0.0
H1635 H 0.71313 0.00243 0.81858 0.0
H1636 H 0.67026 0.96435 0.90259 0.0
H1637 H 0.70172 0.00035 0.93491 0.0
C1638 C 0.74487 0.04138 0.91345 0.0
C1639 C 0.76663 0.06194 0.8991 0.0
C1640 C 0.7258 0.02177 0.89523 0.0
C1641 C 0.76845 0.06342 0.86619 0.0
C1642 C 0.74966 0.04372 0.84781 0.0
C1643 C 0.71068 0.00192 0.844 0.0
C1644 C 0.68986 0.98045 0.85836 0.0
C1645 C 0.72861 0.02259 0.86216 0.0
C1646 C 0.68627 0.98059 0.89116 0.0
C1647 C 0.70429 0.00105 0.90953 0.0
H1648 H 0.79511 0.98531 0.30739 0.0
H1649 H 0.82825 0.02738 0.39396 0.0
H1650 H 0.79212 0.99494 0.42402 0.0
H1651 H 0.75031 0.95668 0.42601 0.0
H1652 H 0.71617 0.91306 0.34095 0.0
H1653 H 0.75391 0.94416 0.30985 0.0
C1654 C 0.79456 0.98724 0.33284 0.0
C1655 C 0.81424 0.009 0.34832 0.0
C1656 C 0.77355 0.96849 0.35018 0.0
C1657 C 0.81333 0.01103 0.38134 0.0
C1658 C 0.79263 0.99252 0.39862 0.0
C1659 C 0.75084 0.95403 0.4006 0.0
C1660 C 0.73011 0.93311 0.38566 0.0
C1661 C 0.77243 0.97159 0.38325 0.0
C1662 C 0.73179 0.92927 0.35288 0.0
C1663 C 0.7533 0.94703 0.33519 0.0
H1664 H 0.29362 0.51118 0.69196 0.0
H1665 H 0.33797 0.47025 0.60997 0.0
H1666 H 0.30486 0.5023 0.57585 0.0
H1667 H 0.2626 0.5403 0.5692 0.0
H1668 H 0.21835 0.58262 0.65035 0.0
H1669 H 0.25247 0.55155 0.68512 0.0
C1670 C 0.2961 0.50928 0.66662 0.0
C1671 C 0.31814 0.48812 0.65355 0.0
C1672 C 0.27703 0.52788 0.64709 0.0
C1673 C 0.32128 0.4863 0.62068 0.0
C1674 C 0.30228 0.50455 0.60114 0.0
C1675 C 0.26023 0.54271 0.59452 0.0
C1676 C 0.23764 0.56338 0.60724 0.0
C1677 C 0.27993 0.52511 0.6141 0.0
C1678 C 0.23546 0.56676 0.64004 0.0
C1679 C 0.2549 0.54897 0.65985 0.0
loop_
_geom_bond_atom_site_label_1
_geom_bond_atom_site_label_2
_geom_bond_distance
_geom_bond_site_symmetry_2
_ccdc_geom_bond_type
Sc0 O3 2.025 . S
Sc0 O10 2.105 1_455 S
Sc0 O13 2.105 . S
Sc0 O16 2.105 1_455 S
Sc0 O19 2.105 . S
Sc1 O3 2.025 . S
Sc1 O11 2.105 . S
Sc1 O15 2.105 . S
Sc1 O17 2.105 . S
Sc1 O21 2.105 . S
Sc2 O3 2.025 . S
Sc2 O12 2.105 . S
Sc2 O14 2.105 . S
Sc2 O18 2.105 . S
Sc2 O20 2.105 1_455 S
O3 Sc0 2.025 . S
O3 Sc1 2.025 . S
O3 Sc2 2.025 . S
C4 O10 1.268 . S
C4 O20 1.268 . S
C5 O11 1.268 . S
C5 O19 1.268 . S
C6 O12 1.268 . S
C6 O21 1.268 . S
C7 O13 1.268 . S
C7 O17 1.268 . S
C8 O14 1.268 . S
C8 O16 1.268 1_455 S
C9 O15 1.268 . S
C9 O18 1.268 . S
O10 Sc0 2.105 1_655 S
O10 C4 1.268 . S
O11 Sc1 2.105 . S
O11 C5 1.268 . S
O12 Sc2 2.105 . S
O12 C6 1.268 . S
O13 Sc0 2.105 . S
O13 C7 1.268 . S
O14 Sc2 2.105 . S
O14 C8 1.268 . S
O15 Sc1 2.105 . S
O15 C9 1.268 . S
O16 Sc0 2.105 1_655 S
O16 C8 1.268 1_655 S
O17 Sc1 2.105 . S
O17 C7 1.268 . S
O18 Sc2 2.105 . S
O18 C9 1.268 . S
O19 Sc0 2.105 . S
O19 C5 1.268 . S
O20 Sc2 2.105 1_655 S
O20 C4 1.268 . S
O21 Sc1 2.105 . S
O21 C6 1.268 . S
Sc22 O25 2.025 . S
Sc22 O32 2.105 . S
Sc22 O35 2.105 . S
Sc22 O38 2.105 . S
Sc22 O41 2.105 . S
Sc23 O25 2.025 . S
Sc23 O33 2.105 . S
Sc23 O37 2.105 . S
Sc23 O39 2.105 . S
Sc23 O43 2.105 . S
Sc24 O25 2.025 . S
Sc24 O34 2.105 . S
Sc24 O36 2.105 . S
Sc24 O40 2.105 . S
Sc24 O42 2.105 . S
O25 Sc22 2.025 . S
O25 Sc23 2.025 . S
O25 Sc24 2.025 . S
C26 O32 1.268 . S
C26 O42 1.268 . S
C27 O33 1.268 . S
C27 O41 1.268 . S
C28 O34 1.268 . S
C28 O43 1.268 . S
C29 O35 1.268 . S
C29 O39 1.268 . S
C30 O36 1.268 . S
C30 O38 1.268 . S
C31 O37 1.268 . S
C31 O40 1.268 . S
O32 Sc22 2.105 . S
O32 C26 1.268 . S
O33 Sc23 2.105 . S
O33 C27 1.268 . S
O34 Sc24 2.105 . S
O34 C28 1.268 . S
O35 Sc22 2.105 . S
O35 C29 1.268 . S
O36 Sc24 2.105 . S
O36 C30 1.268 . S
O37 Sc23 2.105 . S
O37 C31 1.268 . S
O38 Sc22 2.105 . S
O38 C30 1.268 . S
O39 Sc23 2.105 . S
O39 C29 1.268 . S
O40 Sc24 2.105 . S
O40 C31 1.268 . S
O41 Sc22 2.105 . S
O41 C27 1.268 . S
O42 Sc24 2.105 . S
O42 C26 1.268 . S
O43 Sc23 2.105 . S
O43 C28 1.268 . S
Sc44 O47 2.025 . S
Sc44 O54 2.105 . S
Sc44 O57 2.105 . S
Sc44 O60 2.105 . S
Sc44 O63 2.105 . S
Sc45 O47 2.025 . S
Sc45 O55 2.105 . S
Sc45 O59 2.105 . S
Sc45 O61 2.105 . S
Sc45 O65 2.105 . S
Sc46 O47 2.025 . S
Sc46 O56 2.105 . S
Sc46 O58 2.105 . S
Sc46 O62 2.105 . S
Sc46 O64 2.105 . S
O47 Sc44 2.025 . S
O47 Sc45 2.025 . S
O47 Sc46 2.025 . S
C48 O54 1.268 . S
C48 O64 1.268 . S
C49 O55 1.268 . S
C49 O63 1.268 . S
C50 O56 1.268 . S
C50 O65 1.268 . S
C51 O57 1.268 . S
C51 O61 1.268 . S
C52 O58 1.268 . S
C52 O60 1.268 . S
C53 O59 1.268 . S
C53 O62 1.268 . S
O54 Sc44 2.105 . S
O54 C48 1.268 . S
O55 Sc45 2.105 . S
O55 C49 1.268 . S
O56 Sc46 2.105 . S
O56 C50 1.268 . S
O57 Sc44 2.105 . S
O57 C51 1.268 . S
O58 Sc46 2.105 . S
O58 C52 1.268 . S
O59 Sc45 2.105 . S
O59 C53 1.268 . S
O60 Sc44 2.105 . S
O60 C52 1.268 . S
O61 Sc45 2.105 . S
O61 C51 1.268 . S
O62 Sc46 2.105 . S
O62 C53 1.268 . S
O63 Sc44 2.105 . S
O63 C49 1.268 . S
O64 Sc46 2.105 . S
O64 C48 1.268 . S
O65 Sc45 2.105 . S
O65 C50 1.268 . S
Sc66 O69 2.025 . S
Sc66 O76 2.105 . S
Sc66 O79 2.105 . S
Sc66 O82 2.105 . S
Sc66 O85 2.105 . S
Sc67 O69 2.025 . S
Sc67 O77 2.105 . S
Sc67 O81 2.105 . S
Sc67 O83 2.105 . S
Sc67 O87 2.105 . S
Sc68 O69 2.025 . S
Sc68 O78 2.105 . S
Sc68 O80 2.105 . S
Sc68 O84 2.105 . S
Sc68 O86 2.105 . S
O69 Sc66 2.025 . S
O69 Sc67 2.025 . S
O69 Sc68 2.025 . S
C70 O76 1.268 . S
C70 O86 1.268 . S
C71 O77 1.268 . S
C71 O85 1.268 . S
C72 O78 1.268 . S
C72 O87 1.268 . S
C73 O79 1.268 . S
C73 O83 1.268 . S
C74 O80 1.268 . S
C74 O82 1.268 . S
C75 O81 1.268 . S
C75 O84 1.268 . S
O76 Sc66 2.105 . S
O76 C70 1.268 . S
O77 Sc67 2.105 . S
O77 C71 1.268 . S
O78 Sc68 2.105 . S
O78 C72 1.268 . S
O79 Sc66 2.105 . S
O79 C73 1.268 . S
O80 Sc68 2.105 . S
O80 C74 1.268 . S
O81 Sc67 2.105 . S
O81 C75 1.268 . S
O82 Sc66 2.105 . S
O82 C74 1.268 . S
O83 Sc67 2.105 . S
O83 C73 1.268 . S
O84 Sc68 2.105 . S
O84 C75 1.268 . S
O85 Sc66 2.105 . S
O85 C71 1.268 . S
O86 Sc68 2.105 . S
O86 C70 1.268 . S
O87 Sc67 2.105 . S
O87 C72 1.268 . S
Sc88 O91 2.025 . S
Sc88 O98 2.105 . S
Sc88 O101 2.105 . S
Sc88 O104 2.105 . S
Sc88 O107 2.105 . S
Sc89 O91 2.025 . S
Sc89 O99 2.105 . S
Sc89 O103 2.105 . S
Sc89 O105 2.105 . S
Sc89 O109 2.105 . S
Sc90 O91 2.025 . S
Sc90 O100 2.105 . S
Sc90 O102 2.105 . S
Sc90 O106 2.105 . S
Sc90 O108 2.105 . S
O91 Sc88 2.025 . S
O91 Sc89 2.025 . S
O91 Sc90 2.025 . S
C92 O98 1.268 . S
C92 O108 1.268 . S
C93 O99 1.268 . S
C93 O107 1.268 . S
C94 O100 1.268 . S
C94 O109 1.268 . S
C95 O101 1.268 . S
C95 O105 1.268 . S
C96 O102 1.268 . S
C96 O104 1.268 . S
C97 O103 1.268 . S
C97 O106 1.268 . S
O98 Sc88 2.105 . S
O98 C92 1.268 . S
O99 Sc89 2.105 . S
O99 C93 1.268 . S
O100 Sc90 2.105 . S
O100 C94 1.268 . S
O101 Sc88 2.105 . S
O101 C95 1.268 . S
O102 Sc90 2.105 . S
O102 C96 1.268 . S
O103 Sc89 2.105 . S
O103 C97 1.268 . S
O104 Sc88 2.105 . S
O104 C96 1.268 . S
O105 Sc89 2.105 . S
O105 C95 1.268 . S
O106 Sc90 2.105 . S
O106 C97 1.268 . S
O107 Sc88 2.105 . S
O107 C93 1.268 . S
O108 Sc90 2.105 . S
O108 C92 1.268 . S
O109 Sc89 2.105 . S
O109 C94 1.268 . S
Sc110 O113 2.025 . S
Sc110 O120 2.105 . S
Sc110 O123 2.105 . S
Sc110 O126 2.105 . S
Sc110 O129 2.105 . S
Sc111 O113 2.025 . S
Sc111 O121 2.105 . S
Sc111 O125 2.105 . S
Sc111 O127 2.105 . S
Sc111 O131 2.105 . S
Sc112 O113 2.025 . S
Sc112 O122 2.105 . S
Sc112 O124 2.105 . S
Sc112 O128 2.105 . S
Sc112 O130 2.105 . S
O113 Sc110 2.025 . S
O113 Sc111 2.025 . S
O113 Sc112 2.025 . S
C114 O120 1.268 . S
C114 O130 1.268 . S
C115 O121 1.268 . S
C115 O129 1.268 . S
C116 O122 1.268 . S
C116 O131 1.268 . S
C117 O123 1.268 . S
C117 O127 1.268 . S
C118 O124 1.268 . S
C118 O126 1.268 . S
C119 O125 1.268 . S
C119 O128 1.268 . S
O120 Sc110 2.105 . S
O120 C114 1.268 . S
O121 Sc111 2.105 . S
O121 C115 1.268 . S
O122 Sc112 2.105 . S
O122 C116 1.268 . S
O123 Sc110 2.105 . S
O123 C117 1.268 . S
O124 Sc112 2.105 . S
O124 C118 1.268 . S
O125 Sc111 2.105 . S
O125 C119 1.268 . S
O126 Sc110 2.105 . S
O126 C118 1.268 . S
O127 Sc111 2.105 . S
O127 C117 1.268 . S
O128 Sc112 2.105 . S
O128 C119 1.268 . S
O129 Sc110 2.105 . S
O129 C115 1.268 . S
O130 Sc112 2.105 . S
O130 C114 1.268 . S
O131 Sc111 2.105 . S
O131 C116 1.268 . S
Sc132 O135 2.025 . S
Sc132 O142 2.105 . S
Sc132 O145 2.105 . S
Sc132 O148 2.105 1_655 S
Sc132 O151 2.105 . S
Sc133 O135 2.025 . S
Sc133 O143 2.105 . S
Sc133 O147 2.105 . S
Sc133 O149 2.105 . S
Sc133 O153 2.105 . S
Sc134 O135 2.025 . S
Sc134 O144 2.105 . S
Sc134 O146 2.105 1_655 S
Sc134 O150 2.105 . S
Sc134 O152 2.105 1_655 S
O135 Sc132 2.025 . S
O135 Sc133 2.025 . S
O135 Sc134 2.025 . S
C136 O142 1.268 . S
C136 O152 1.268 1_655 S
C137 O143 1.268 . S
C137 O151 1.268 . S
C138 O144 1.268 . S
C138 O153 1.268 . S
C139 O145 1.268 . S
C139 O149 1.268 . S
C140 O146 1.268 . S
C140 O148 1.268 . S
C141 O147 1.268 . S
C141 O150 1.268 . S
O142 Sc132 2.105 . S
O142 C136 1.268 . S
O143 Sc133 2.105 . S
O143 C137 1.268 . S
O144 Sc134 2.105 . S
O144 C138 1.268 . S
O145 Sc132 2.105 . S
O145 C139 1.268 . S
O146 Sc134 2.105 1_455 S
O146 C140 1.268 . S
O147 Sc133 2.105 . S
O147 C141 1.268 . S
O148 Sc132 2.105 1_455 S
O148 C140 1.268 . S
O149 Sc133 2.105 . S
O149 C139 1.268 . S
O150 Sc134 2.105 . S
O150 C141 1.268 . S
O151 Sc132 2.105 . S
O151 C137 1.268 . S
O152 Sc134 2.105 1_455 S
O152 C136 1.268 1_455 S
O153 Sc133 2.105 . S
O153 C138 1.268 . S
Sc154 O157 2.025 . S
Sc154 O164 2.105 . S
Sc154 O167 2.105 . S
Sc154 O170 2.105 . S
Sc154 O173 2.105 . S
Sc155 O157 2.025 . S
Sc155 O165 2.105 . S
Sc155 O169 2.105 . S
Sc155 O171 2.105 . S
Sc155 O175 2.105 . S
Sc156 O157 2.025 . S
Sc156 O166 2.105 . S
Sc156 O168 2.105 . S
Sc156 O172 2.105 . S
Sc156 O174 2.105 . S
O157 Sc154 2.025 . S
O157 Sc155 2.025 . S
O157 Sc156 2.025 . S
C158 O164 1.268 . S
C158 O174 1.268 . S
C159 O165 1.268 . S
C159 O173 1.268 . S
C160 O166 1.268 . S
C160 O175 1.268 . S
C161 O167 1.268 . S
C161 O171 1.268 . S
C162 O168 1.268 . S
C162 O170 1.268 . S
C163 O169 1.268 . S
C163 O172 1.268 . S
O164 Sc154 2.105 . S
O164 C158 1.268 . S
O165 Sc155 2.105 . S
O165 C159 1.268 . S
O166 Sc156 2.105 . S
O166 C160 1.268 . S
O167 Sc154 2.105 . S
O167 C161 1.268 . S
O168 Sc156 2.105 . S
O168 C162 1.268 . S
O169 Sc155 2.105 . S
O169 C163 1.268 . S
O170 Sc154 2.105 . S
O170 C162 1.268 . S
O171 Sc155 2.105 . S
O171 C161 1.268 . S
O172 Sc156 2.105 . S
O172 C163 1.268 . S
O173 Sc154 2.105 . S
O173 C159 1.268 . S
O174 Sc156 2.105 . S
O174 C158 1.268 . S
O175 Sc155 2.105 . S
O175 C160 1.268 . S
Sc176 O179 2.025 . S
Sc176 O186 2.105 . S
Sc176 O189 2.105 . S
Sc176 O192 2.105 1_545 S
Sc176 O195 2.105 . S
Sc177 O179 2.025 . S
Sc177 O187 2.105 . S
Sc177 O191 2.105 . S
Sc177 O193 2.105 . S
Sc177 O197 2.105 . S
Sc178 O179 2.025 . S
Sc178 O188 2.105 . S
Sc178 O190 2.105 1_545 S
Sc178 O194 2.105 . S
Sc178 O196 2.105 1_545 S
O179 Sc176 2.025 . S
O179 Sc177 2.025 . S
O179 Sc178 2.025 . S
C180 O186 1.268 . S
C180 O196 1.268 1_545 S
C181 O187 1.268 . S
C181 O195 1.268 . S
C182 O188 1.268 . S
C182 O197 1.268 . S
C183 O189 1.268 . S
C183 O193 1.268 . S
C184 O190 1.268 . S
C184 O192 1.268 . S
C185 O191 1.268 . S
C185 O194 1.268 . S
O186 Sc176 2.105 . S
O186 C180 1.268 . S
O187 Sc177 2.105 . S
O187 C181 1.268 . S
O188 Sc178 2.105 . S
O188 C182 1.268 . S
O189 Sc176 2.105 . S
O189 C183 1.268 . S
O190 Sc178 2.105 1_565 S
O190 C184 1.268 . S
O191 Sc177 2.105 . S
O191 C185 1.268 . S
O192 Sc176 2.105 1_565 S
O192 C184 1.268 . S
O193 Sc177 2.105 . S
O193 C183 1.268 . S
O194 Sc178 2.105 . S
O194 C185 1.268 . S
O195 Sc176 2.105 . S
O195 C181 1.268 . S
O196 Sc178 2.105 1_565 S
O196 C180 1.268 1_565 S
O197 Sc177 2.105 . S
O197 C182 1.268 . S
Sc198 O201 2.025 . S
Sc198 O208 2.105 . S
Sc198 O211 2.105 . S
Sc198 O214 2.105 . S
Sc198 O217 2.105 . S
Sc199 O201 2.025 . S
Sc199 O209 2.105 . S
Sc199 O213 2.105 . S
Sc199 O215 2.105 . S
Sc199 O219 2.105 . S
Sc200 O201 2.025 . S
Sc200 O210 2.105 . S
Sc200 O212 2.105 . S
Sc200 O216 2.105 . S
Sc200 O218 2.105 . S
O201 Sc198 2.025 . S
O201 Sc199 2.025 . S
O201 Sc200 2.025 . S
C202 O208 1.268 . S
C202 O218 1.268 . S
C203 O209 1.268 . S
C203 O217 1.268 . S
C204 O210 1.268 . S
C204 O219 1.268 . S
C205 O211 1.268 . S
C205 O215 1.268 . S
C206 O212 1.268 . S
C206 O214 1.268 . S
C207 O213 1.268 . S
C207 O216 1.268 . S
O208 Sc198 2.105 . S
O208 C202 1.268 . S
O209 Sc199 2.105 . S
O209 C203 1.268 . S
O210 Sc200 2.105 . S
O210 C204 1.268 . S
O211 Sc198 2.105 . S
O211 C205 1.268 . S
O212 Sc200 2.105 . S
O212 C206 1.268 . S
O213 Sc199 2.105 . S
O213 C207 1.268 . S
O214 Sc198 2.105 . S
O214 C206 1.268 . S
O215 Sc199 2.105 . S
O215 C205 1.268 . S
O216 Sc200 2.105 . S
O216 C207 1.268 . S
O217 Sc198 2.105 . S
O217 C203 1.268 . S
O218 Sc200 2.105 . S
O218 C202 1.268 . S
O219 Sc199 2.105 . S
O219 C204 1.268 . S
Sc220 O223 2.025 . S
Sc220 O230 2.105 1_565 S
Sc220 O233 2.105 . S
Sc220 O236 2.105 1_565 S
Sc220 O239 2.105 . S
Sc221 O223 2.025 . S
Sc221 O231 2.105 . S
Sc221 O235 2.105 . S
Sc221 O237 2.105 . S
Sc221 O241 2.105 . S
Sc222 O223 2.025 . S
Sc222 O232 2.105 . S
Sc222 O234 2.105 . S
Sc222 O238 2.105 . S
Sc222 O240 2.105 1_565 S
O223 Sc220 2.025 . S
O223 Sc221 2.025 . S
O223 Sc222 2.025 . S
C224 O230 1.268 . S
C224 O240 1.268 . S
C225 O231 1.268 . S
C225 O239 1.268 . S
C226 O232 1.268 . S
C226 O241 1.268 . S
C227 O233 1.268 . S
C227 O237 1.268 . S
C228 O234 1.268 . S
C228 O236 1.268 1_565 S
C229 O235 1.268 . S
C229 O238 1.268 . S
O230 Sc220 2.105 1_545 S
O230 C224 1.268 . S
O231 Sc221 2.105 . S
O231 C225 1.268 . S
O232 Sc222 2.105 . S
O232 C226 1.268 . S
O233 Sc220 2.105 . S
O233 C227 1.268 . S
O234 Sc222 2.105 . S
O234 C228 1.268 . S
O235 Sc221 2.105 . S
O235 C229 1.268 . S
O236 Sc220 2.105 1_545 S
O236 C228 1.268 1_545 S
O237 Sc221 2.105 . S
O237 C227 1.268 . S
O238 Sc222 2.105 . S
O238 C229 1.268 . S
O239 Sc220 2.105 . S
O239 C225 1.268 . S
O240 Sc222 2.105 1_545 S
O240 C224 1.268 . S
O241 Sc221 2.105 . S
O241 C226 1.268 . S
Sc242 O245 2.025 . S
Sc242 O252 2.105 . S
Sc242 O255 2.105 . S
Sc242 O258 2.105 . S
Sc242 O261 2.105 . S
Sc243 O245 2.025 . S
Sc243 O253 2.105 . S
Sc243 O257 2.105 . S
Sc243 O259 2.105 . S
Sc243 O263 2.105 . S
Sc244 O245 2.025 . S
Sc244 O254 2.105 . S
Sc244 O256 2.105 . S
Sc244 O260 2.105 . S
Sc244 O262 2.105 . S
O245 Sc242 2.025 . S
O245 Sc243 2.025 . S
O245 Sc244 2.025 . S
C246 O252 1.268 . S
C246 O262 1.268 . S
C247 O253 1.268 . S
C247 O261 1.268 . S
C248 O254 1.268 . S
C248 O263 1.268 . S
C249 O255 1.268 . S
C249 O259 1.268 . S
C250 O256 1.268 . S
C250 O258 1.268 . S
C251 O257 1.268 . S
C251 O260 1.268 . S
O252 Sc242 2.105 . S
O252 C246 1.268 . S
O253 Sc243 2.105 . S
O253 C247 1.268 . S
O254 Sc244 2.105 . S
O254 C248 1.268 . S
O255 Sc242 2.105 . S
O255 C249 1.268 . S
O256 Sc244 2.105 . S
O256 C250 1.268 . S
O257 Sc243 2.105 . S
O257 C251 1.268 . S
O258 Sc242 2.105 . S
O258 C250 1.268 . S
O259 Sc243 2.105 . S
O259 C249 1.268 . S
O260 Sc244 2.105 . S
O260 C251 1.268 . S
O261 Sc242 2.105 . S
O261 C247 1.268 . S
O262 Sc244 2.105 . S
O262 C246 1.268 . S
O263 Sc243 2.105 . S
O263 C248 1.268 . S
Sc264 O267 2.025 . S
Sc264 O274 2.105 . S
Sc264 O277 2.105 . S
Sc264 O280 2.105 . S
Sc264 O283 2.105 . S
Sc265 O267 2.025 . S
Sc265 O275 2.105 . S
Sc265 O279 2.105 . S
Sc265 O281 2.105 . S
Sc265 O285 2.105 . S
Sc266 O267 2.025 . S
Sc266 O276 2.105 . S
Sc266 O278 2.105 . S
Sc266 O282 2.105 . S
Sc266 O284 2.105 . S
O267 Sc264 2.025 . S
O267 Sc265 2.025 . S
O267 Sc266 2.025 . S
C268 O274 1.268 . S
C268 O284 1.268 . S
C269 O275 1.268 . S
C269 O283 1.268 . S
C270 O276 1.268 . S
C270 O285 1.268 . S
C271 O277 1.268 . S
C271 O281 1.268 . S
C272 O278 1.268 . S
C272 O280 1.268 . S
C273 O279 1.268 . S
C273 O282 1.268 . S
O274 Sc264 2.105 . S
O274 C268 1.268 . S
O275 Sc265 2.105 . S
O275 C269 1.268 . S
O276 Sc266 2.105 . S
O276 C270 1.268 . S
O277 Sc264 2.105 . S
O277 C271 1.268 . S
O278 Sc266 2.105 . S
O278 C272 1.268 . S
O279 Sc265 2.105 . S
O279 C273 1.268 . S
O280 Sc264 2.105 . S
O280 C272 1.268 . S
O281 Sc265 2.105 . S
O281 C271 1.268 . S
O282 Sc266 2.105 . S
O282 C273 1.268 . S
O283 Sc264 2.105 . S
O283 C269 1.268 . S
O284 Sc266 2.105 . S
O284 C268 1.268 . S
O285 Sc265 2.105 . S
O285 C270 1.268 . S
Sc286 O289 2.025 . S
Sc286 O296 2.105 . S
Sc286 O299 2.105 . S
Sc286 O302 2.105 . S
Sc286 O305 2.105 . S
Sc287 O289 2.025 . S
Sc287 O297 2.105 . S
Sc287 O301 2.105 . S
Sc287 O303 2.105 . S
Sc287 O307 2.105 . S
Sc288 O289 2.025 . S
Sc288 O298 2.105 . S
Sc288 O300 2.105 . S
Sc288 O304 2.105 . S
Sc288 O306 2.105 . S
O289 Sc286 2.025 . S
O289 Sc287 2.025 . S
O289 Sc288 2.025 . S
C290 O296 1.268 . S
C290 O306 1.268 . S
C291 O297 1.268 . S
C291 O305 1.268 . S
C292 O298 1.268 . S
C292 O307 1.268 . S
C293 O299 1.268 . S
C293 O303 1.268 . S
C294 O300 1.268 . S
C294 O302 1.268 . S
C295 O301 1.268 . S
C295 O304 1.268 . S
O296 Sc286 2.105 . S
O296 C290 1.268 . S
O297 Sc287 2.105 . S
O297 C291 1.268 . S
O298 Sc288 2.105 . S
O298 C292 1.268 . S
O299 Sc286 2.105 . S
O299 C293 1.268 . S
O300 Sc288 2.105 . S
O300 C294 1.268 . S
O301 Sc287 2.105 . S
O301 C295 1.268 . S
O302 Sc286 2.105 . S
O302 C294 1.268 . S
O303 Sc287 2.105 . S
O303 C293 1.268 . S
O304 Sc288 2.105 . S
O304 C295 1.268 . S
O305 Sc286 2.105 . S
O305 C291 1.268 . S
O306 Sc288 2.105 . S
O306 C290 1.268 . S
O307 Sc287 2.105 . S
O307 C292 1.268 . S
Sc308 O311 2.025 . S
Sc308 O318 2.105 . S
Sc308 O321 2.105 . S
Sc308 O324 2.105 . S
Sc308 O327 2.105 . S
Sc309 O311 2.025 . S
Sc309 O319 2.105 . S
Sc309 O323 2.105 . S
Sc309 O325 2.105 . S
Sc309 O329 2.105 . S
Sc310 O311 2.025 . S
Sc310 O320 2.105 . S
Sc310 O322 2.105 . S
Sc310 O326 2.105 . S
Sc310 O328 2.105 . S
O311 Sc308 2.025 . S
O311 Sc309 2.025 . S
O311 Sc310 2.025 . S
C312 O318 1.268 . S
C312 O328 1.268 . S
C313 O319 1.268 . S
C313 O327 1.268 . S
C314 O320 1.268 . S
C314 O329 1.268 . S
C315 O321 1.268 . S
C315 O325 1.268 . S
C316 O322 1.268 . S
C316 O324 1.268 . S
C317 O323 1.268 . S
C317 O326 1.268 . S
O318 Sc308 2.105 . S
O318 C312 1.268 . S
O319 Sc309 2.105 . S
O319 C313 1.268 . S
O320 Sc310 2.105 . S
O320 C314 1.268 . S
O321 Sc308 2.105 . S
O321 C315 1.268 . S
O322 Sc310 2.105 . S
O322 C316 1.268 . S
O323 Sc309 2.105 . S
O323 C317 1.268 . S
O324 Sc308 2.105 . S
O324 C316 1.268 . S
O325 Sc309 2.105 . S
O325 C315 1.268 . S
O326 Sc310 2.105 . S
O326 C317 1.268 . S
O327 Sc308 2.105 . S
O327 C313 1.268 . S
O328 Sc310 2.105 . S
O328 C312 1.268 . S
O329 Sc309 2.105 . S
O329 C314 1.268 . S
Sc330 O333 2.025 . S
Sc330 O340 2.105 . S
Sc330 O343 2.105 . S
Sc330 O346 2.105 . S
Sc330 O349 2.105 . S
Sc331 O333 2.025 . S
Sc331 O341 2.105 . S
Sc331 O345 2.105 . S
Sc331 O347 2.105 . S
Sc331 O351 2.105 . S
Sc332 O333 2.025 . S
Sc332 O342 2.105 . S
Sc332 O344 2.105 . S
Sc332 O348 2.105 . S
Sc332 O350 2.105 . S
O333 Sc330 2.025 . S
O333 Sc331 2.025 . S
O333 Sc332 2.025 . S
C334 O340 1.268 . S
C334 O350 1.268 . S
C335 O341 1.268 . S
C335 O349 1.268 . S
C336 O342 1.268 . S
C336 O351 1.268 . S
C337 O343 1.268 . S
C337 O347 1.268 . S
C338 O344 1.268 . S
C338 O346 1.268 . S
C339 O345 1.268 . S
C339 O348 1.268 . S
O340 Sc330 2.105 . S
O340 C334 1.268 . S
O341 Sc331 2.105 . S
O341 C335 1.268 . S
O342 Sc332 2.105 . S
O342 C336 1.268 . S
O343 Sc330 2.105 . S
O343 C337 1.268 . S
O344 Sc332 2.105 . S
O344 C338 1.268 . S
O345 Sc331 2.105 . S
O345 C339 1.268 . S
O346 Sc330 2.105 . S
O346 C338 1.268 . S
O347 Sc331 2.105 . S
O347 C337 1.268 . S
O348 Sc332 2.105 . S
O348 C339 1.268 . S
O349 Sc330 2.105 . S
O349 C335 1.268 . S
O350 Sc332 2.105 . S
O350 C334 1.268 . S
O351 Sc331 2.105 . S
O351 C336 1.268 . S
Sc352 O355 2.025 . S
Sc352 O362 2.105 1_554 S
Sc352 O365 2.105 . S
Sc352 O368 2.105 1_554 S
Sc352 O371 2.105 . S
Sc353 O355 2.025 . S
Sc353 O363 2.105 . S
Sc353 O367 2.105 . S
Sc353 O369 2.105 . S
Sc353 O373 2.105 . S
Sc354 O355 2.025 . S
Sc354 O364 2.105 . S
Sc354 O366 2.105 . S
Sc354 O370 2.105 . S
Sc354 O372 2.105 1_554 S
O355 Sc352 2.025 . S
O355 Sc353 2.025 . S
O355 Sc354 2.025 . S
C356 O362 1.268 . S
C356 O372 1.268 . S
C357 O363 1.268 . S
C357 O371 1.268 . S
C358 O364 1.268 . S
C358 O373 1.268 . S
C359 O365 1.268 . S
C359 O369 1.268 . S
C360 O366 1.268 . S
C360 O368 1.268 1_554 S
C361 O367 1.268 . S
C361 O370 1.268 . S
O362 Sc352 2.105 1_556 S
O362 C356 1.268 . S
O363 Sc353 2.105 . S
O363 C357 1.268 . S
O364 Sc354 2.105 . S
O364 C358 1.268 . S
O365 Sc352 2.105 . S
O365 C359 1.268 . S
O366 Sc354 2.105 . S
O366 C360 1.268 . S
O367 Sc353 2.105 . S
O367 C361 1.268 . S
O368 Sc352 2.105 1_556 S
O368 C360 1.268 1_556 S
O369 Sc353 2.105 . S
O369 C359 1.268 . S
O370 Sc354 2.105 . S
O370 C361 1.268 . S
O371 Sc352 2.105 . S
O371 C357 1.268 . S
O372 Sc354 2.105 1_556 S
O372 C356 1.268 . S
O373 Sc353 2.105 . S
O373 C358 1.268 . S
Sc374 O377 2.025 . S
Sc374 O384 2.105 . S
Sc374 O387 2.105 . S
Sc374 O390 2.105 1_556 S
Sc374 O393 2.105 . S
Sc375 O377 2.025 . S
Sc375 O385 2.105 . S
Sc375 O389 2.105 . S
Sc375 O391 2.105 . S
Sc375 O395 2.105 . S
Sc376 O377 2.025 . S
Sc376 O386 2.105 . S
Sc376 O388 2.105 1_556 S
Sc376 O392 2.105 . S
Sc376 O394 2.105 1_556 S
O377 Sc374 2.025 . S
O377 Sc375 2.025 . S
O377 Sc376 2.025 . S
C378 O384 1.268 . S
C378 O394 1.268 1_556 S
C379 O385 1.268 . S
C379 O393 1.268 . S
C380 O386 1.268 . S
C380 O395 1.268 . S
C381 O387 1.268 . S
C381 O391 1.268 . S
C382 O388 1.268 . S
C382 O390 1.268 . S
C383 O389 1.268 . S
C383 O392 1.268 . S
O384 Sc374 2.105 . S
O384 C378 1.268 . S
O385 Sc375 2.105 . S
O385 C379 1.268 . S
O386 Sc376 2.105 . S
O386 C380 1.268 . S
O387 Sc374 2.105 . S
O387 C381 1.268 . S
O388 Sc376 2.105 1_554 S
O388 C382 1.268 . S
O389 Sc375 2.105 . S
O389 C383 1.268 . S
O390 Sc374 2.105 1_554 S
O390 C382 1.268 . S
O391 Sc375 2.105 . S
O391 C381 1.268 . S
O392 Sc376 2.105 . S
O392 C383 1.268 . S
O393 Sc374 2.105 . S
O393 C379 1.268 . S
O394 Sc376 2.105 1_554 S
O394 C378 1.268 1_554 S
O395 Sc375 2.105 . S
O395 C380 1.268 . S
Sc396 O399 2.025 . S
Sc396 O406 2.105 . S
Sc396 O409 2.105 . S
Sc396 O412 2.105 . S
Sc396 O415 2.105 . S
Sc397 O399 2.025 . S
Sc397 O407 2.105 . S
Sc397 O411 2.105 . S
Sc397 O413 2.105 . S
Sc397 O417 2.105 . S
Sc398 O399 2.025 . S
Sc398 O408 2.105 . S
Sc398 O410 2.105 . S
Sc398 O414 2.105 . S
Sc398 O416 2.105 . S
O399 Sc396 2.025 . S
O399 Sc397 2.025 . S
O399 Sc398 2.025 . S
C400 O406 1.268 . S
C400 O416 1.268 . S
C401 O407 1.268 . S
C401 O415 1.268 . S
C402 O408 1.268 . S
C402 O417 1.268 . S
C403 O409 1.268 . S
C403 O413 1.268 . S
C404 O410 1.268 . S
C404 O412 1.268 . S
C405 O411 1.268 . S
C405 O414 1.268 . S
O406 Sc396 2.105 . S
O406 C400 1.268 . S
O407 Sc397 2.105 . S
O407 C401 1.268 . S
O408 Sc398 2.105 . S
O408 C402 1.268 . S
O409 Sc396 2.105 . S
O409 C403 1.268 . S
O410 Sc398 2.105 . S
O410 C404 1.268 . S
O411 Sc397 2.105 . S
O411 C405 1.268 . S
O412 Sc396 2.105 . S
O412 C404 1.268 . S
O413 Sc397 2.105 . S
O413 C403 1.268 . S
O414 Sc398 2.105 . S
O414 C405 1.268 . S
O415 Sc396 2.105 . S
O415 C401 1.268 . S
O416 Sc398 2.105 . S
O416 C400 1.268 . S
O417 Sc397 2.105 . S
O417 C402 1.268 . S
Sc418 O421 2.025 . S
Sc418 O428 2.105 . S
Sc418 O431 2.105 . S
Sc418 O434 2.105 . S
Sc418 O437 2.105 . S
Sc419 O421 2.025 . S
Sc419 O429 2.105 . S
Sc419 O433 2.105 . S
Sc419 O435 2.105 . S
Sc419 O439 2.105 . S
Sc420 O421 2.025 . S
Sc420 O430 2.105 . S
Sc420 O432 2.105 . S
Sc420 O436 2.105 . S
Sc420 O438 2.105 . S
O421 Sc418 2.025 . S
O421 Sc419 2.025 . S
O421 Sc420 2.025 . S
C422 O428 1.268 . S
C422 O438 1.268 . S
C423 O429 1.268 . S
C423 O437 1.268 . S
C424 O430 1.268 . S
C424 O439 1.268 . S
C425 O431 1.268 . S
C425 O435 1.268 . S
C426 O432 1.268 . S
C426 O434 1.268 . S
C427 O433 1.268 . S
C427 O436 1.268 . S
O428 Sc418 2.105 . S
O428 C422 1.268 . S
O429 Sc419 2.105 . S
O429 C423 1.268 . S
O430 Sc420 2.105 . S
O430 C424 1.268 . S
O431 Sc418 2.105 . S
O431 C425 1.268 . S
O432 Sc420 2.105 . S
O432 C426 1.268 . S
O433 Sc419 2.105 . S
O433 C427 1.268 . S
O434 Sc418 2.105 . S
O434 C426 1.268 . S
O435 Sc419 2.105 . S
O435 C425 1.268 . S
O436 Sc420 2.105 . S
O436 C427 1.268 . S
O437 Sc418 2.105 . S
O437 C423 1.268 . S
O438 Sc420 2.105 . S
O438 C422 1.268 . S
O439 Sc419 2.105 . S
O439 C424 1.268 . S
Sc440 O443 2.025 . S
Sc440 O450 2.105 . S
Sc440 O453 2.105 . S
Sc440 O456 2.105 . S
Sc440 O459 2.105 . S
Sc441 O443 2.025 . S
Sc441 O451 2.105 . S
Sc441 O455 2.105 . S
Sc441 O457 2.105 . S
Sc441 O461 2.105 . S
Sc442 O443 2.025 . S
Sc442 O452 2.105 . S
Sc442 O454 2.105 . S
Sc442 O458 2.105 . S
Sc442 O460 2.105 . S
O443 Sc440 2.025 . S
O443 Sc441 2.025 . S
O443 Sc442 2.025 . S
C444 O450 1.268 . S
C444 O460 1.268 . S
C445 O451 1.268 . S
C445 O459 1.268 . S
C446 O452 1.268 . S
C446 O461 1.268 . S
C447 O453 1.268 . S
C447 O457 1.268 . S
C448 O454 1.268 . S
C448 O456 1.268 . S
C449 O455 1.268 . S
C449 O458 1.268 . S
O450 Sc440 2.105 . S
O450 C444 1.268 . S
O451 Sc441 2.105 . S
O451 C445 1.268 . S
O452 Sc442 2.105 . S
O452 C446 1.268 . S
O453 Sc440 2.105 . S
O453 C447 1.268 . S
O454 Sc442 2.105 . S
O454 C448 1.268 . S
O455 Sc441 2.105 . S
O455 C449 1.268 . S
O456 Sc440 2.105 . S
O456 C448 1.268 . S
O457 Sc441 2.105 . S
O457 C447 1.268 . S
O458 Sc442 2.105 . S
O458 C449 1.268 . S
O459 Sc440 2.105 . S
O459 C445 1.268 . S
O460 Sc442 2.105 . S
O460 C444 1.268 . S
O461 Sc441 2.105 . S
O461 C446 1.268 . S
Sc462 O465 2.025 . S
Sc462 O472 2.105 . S
Sc462 O475 2.105 . S
Sc462 O478 2.105 . S
Sc462 O481 2.105 . S
Sc463 O465 2.025 . S
Sc463 O473 2.105 . S
Sc463 O477 2.105 . S
Sc463 O479 2.105 . S
Sc463 O483 2.105 . S
Sc464 O465 2.025 . S
Sc464 O474 2.105 . S
Sc464 O476 2.105 . S
Sc464 O480 2.105 . S
Sc464 O482 2.105 . S
O465 Sc462 2.025 . S
O465 Sc463 2.025 . S
O465 Sc464 2.025 . S
C466 O472 1.268 . S
C466 O482 1.268 . S
C467 O473 1.268 . S
C467 O481 1.268 . S
C468 O474 1.268 . S
C468 O483 1.268 . S
C469 O475 1.268 . S
C469 O479 1.268 . S
C470 O476 1.268 . S
C470 O478 1.268 . S
C471 O477 1.268 . S
C471 O480 1.268 . S
O472 Sc462 2.105 . S
O472 C466 1.268 . S
O473 Sc463 2.105 . S
O473 C467 1.268 . S
O474 Sc464 2.105 . S
O474 C468 1.268 . S
O475 Sc462 2.105 . S
O475 C469 1.268 . S
O476 Sc464 2.105 . S
O476 C470 1.268 . S
O477 Sc463 2.105 . S
O477 C471 1.268 . S
O478 Sc462 2.105 . S
O478 C470 1.268 . S
O479 Sc463 2.105 . S
O479 C469 1.268 . S
O480 Sc464 2.105 . S
O480 C471 1.268 . S
O481 Sc462 2.105 . S
O481 C467 1.268 . S
O482 Sc464 2.105 . S
O482 C466 1.268 . S
O483 Sc463 2.105 . S
O483 C468 1.268 . S
Sc484 O487 2.025 . S
Sc484 O494 2.105 . S
Sc484 O497 2.105 . S
Sc484 O500 2.105 . S
Sc484 O503 2.105 . S
Sc485 O487 2.025 . S
Sc485 O495 2.105 . S
Sc485 O499 2.105 . S
Sc485 O501 2.105 . S
Sc485 O505 2.105 . S
Sc486 O487 2.025 . S
Sc486 O496 2.105 . S
Sc486 O498 2.105 . S
Sc486 O502 2.105 . S
Sc486 O504 2.105 . S
O487 Sc484 2.025 . S
O487 Sc485 2.025 . S
O487 Sc486 2.025 . S
C488 O494 1.268 . S
C488 O504 1.268 . S
C489 O495 1.268 . S
C489 O503 1.268 . S
C490 O496 1.268 . S
C490 O505 1.268 . S
C491 O497 1.268 . S
C491 O501 1.268 . S
C492 O498 1.268 . S
C492 O500 1.268 . S
C493 O499 1.268 . S
C493 O502 1.268 . S
O494 Sc484 2.105 . S
O494 C488 1.268 . S
O495 Sc485 2.105 . S
O495 C489 1.268 . S
O496 Sc486 2.105 . S
O496 C490 1.268 . S
O497 Sc484 2.105 . S
O497 C491 1.268 . S
O498 Sc486 2.105 . S
O498 C492 1.268 . S
O499 Sc485 2.105 . S
O499 C493 1.268 . S
O500 Sc484 2.105 . S
O500 C492 1.268 . S
O501 Sc485 2.105 . S
O501 C491 1.268 . S
O502 Sc486 2.105 . S
O502 C493 1.268 . S
O503 Sc484 2.105 . S
O503 C489 1.268 . S
O504 Sc486 2.105 . S
O504 C488 1.268 . S
O505 Sc485 2.105 . S
O505 C490 1.268 . S
Sc506 O509 2.025 . S
Sc506 O516 2.105 . S
Sc506 O519 2.105 . S
Sc506 O522 2.105 . S
Sc506 O525 2.105 . S
Sc507 O509 2.025 . S
Sc507 O517 2.105 . S
Sc507 O521 2.105 . S
Sc507 O523 2.105 . S
Sc507 O527 2.105 . S
Sc508 O509 2.025 . S
Sc508 O518 2.105 . S
Sc508 O520 2.105 . S
Sc508 O524 2.105 . S
Sc508 O526 2.105 . S
O509 Sc506 2.025 . S
O509 Sc507 2.025 . S
O509 Sc508 2.025 . S
C510 O516 1.268 . S
C510 O526 1.268 . S
C511 O517 1.268 . S
C511 O525 1.268 . S
C512 O518 1.268 . S
C512 O527 1.268 . S
C513 O519 1.268 . S
C513 O523 1.268 . S
C514 O520 1.268 . S
C514 O522 1.268 . S
C515 O521 1.268 . S
C515 O524 1.268 . S
O516 Sc506 2.105 . S
O516 C510 1.268 . S
O517 Sc507 2.105 . S
O517 C511 1.268 . S
O518 Sc508 2.105 . S
O518 C512 1.268 . S
O519 Sc506 2.105 . S
O519 C513 1.268 . S
O520 Sc508 2.105 . S
O520 C514 1.268 . S
O521 Sc507 2.105 . S
O521 C515 1.268 . S
O522 Sc506 2.105 . S
O522 C514 1.268 . S
O523 Sc507 2.105 . S
O523 C513 1.268 . S
O524 Sc508 2.105 . S
O524 C515 1.268 . S
O525 Sc506 2.105 . S
O525 C511 1.268 . S
O526 Sc508 2.105 . S
O526 C510 1.268 . S
O527 Sc507 2.105 . S
O527 C512 1.268 . S
H528 C534 0.930 . S
H529 C537 0.930 . S
H530 C538 0.930 . S
H531 C539 0.930 . S
H532 C542 0.930 . S
H533 C543 0.930 . S
C534 H528 0.930 . S
C534 C535 1.355 . S
C534 C536 1.415 . S
C535 C534 1.355 . S
C535 C537 1.419 . S
C536 C534 1.415 . S
C536 C541 1.425 . S
C536 C543 1.409 . S
C537 H529 0.930 . S
C537 C535 1.419 . S
C537 C538 1.362 . S
C538 H530 0.930 . S
C538 C537 1.362 . S
C538 C541 1.409 . S
C539 H531 0.930 . S
C539 C540 1.355 . S
C539 C541 1.415 . S
C540 C539 1.355 . S
C540 C542 1.419 . S
C541 C536 1.425 . S
C541 C538 1.409 . S
C541 C539 1.415 . S
C542 H532 0.930 . S
C542 C540 1.419 . S
C542 C543 1.362 . S
C543 H533 0.930 . S
C543 C536 1.409 . S
C543 C542 1.362 . S
H544 C550 0.930 . S
H545 C553 0.930 . S
H546 C554 0.930 . S
H547 C555 0.930 . S
H548 C558 0.930 . S
H549 C559 0.930 . S
C550 H544 0.930 . S
C550 C551 1.355 . S
C550 C552 1.415 . S
C551 C550 1.355 . S
C551 C553 1.419 . S
C552 C550 1.415 . S
C552 C557 1.425 . S
C552 C559 1.409 . S
C553 H545 0.930 . S
C553 C551 1.419 . S
C553 C554 1.362 . S
C554 H546 0.930 . S
C554 C553 1.362 . S
C554 C557 1.409 . S
C555 H547 0.930 . S
C555 C556 1.355 . S
C555 C557 1.415 . S
C556 C555 1.355 . S
C556 C558 1.419 . S
C557 C552 1.425 . S
C557 C554 1.409 . S
C557 C555 1.415 . S
C558 H548 0.930 . S
C558 C556 1.419 . S
C558 C559 1.362 . S
C559 H549 0.930 . S
C559 C552 1.409 . S
C559 C558 1.362 . S
H560 C566 0.930 . S
H561 C569 0.930 . S
H562 C570 0.930 . S
H563 C571 0.930 . S
H564 C574 0.930 . S
H565 C575 0.930 . S
C566 H560 0.930 . S
C566 C567 1.355 . S
C566 C568 1.415 . S
C567 C566 1.355 . S
C567 C569 1.419 . S
C568 C566 1.415 . S
C568 C573 1.425 . S
C568 C575 1.409 . S
C569 H561 0.930 . S
C569 C567 1.419 . S
C569 C570 1.362 . S
C570 H562 0.930 . S
C570 C569 1.362 . S
C570 C573 1.409 . S
C571 H563 0.930 . S
C571 C572 1.355 . S
C571 C573 1.415 . S
C572 C571 1.355 . S
C572 C574 1.419 . S
C573 C568 1.425 . S
C573 C570 1.409 . S
C573 C571 1.415 . S
C574 H564 0.930 . S
C574 C572 1.419 . S
C574 C575 1.362 . S
C575 H565 0.930 . S
C575 C568 1.409 . S
C575 C574 1.362 . S
H576 C582 0.930 . S
H577 C585 0.930 . S
H578 C586 0.930 . S
H579 C587 0.930 . S
H580 C590 0.930 . S
H581 C591 0.930 . S
C582 H576 0.930 . S
C582 C583 1.355 . S
C582 C584 1.415 . S
C583 C582 1.355 . S
C583 C585 1.419 . S
C584 C582 1.415 . S
C584 C589 1.425 . S
C584 C591 1.409 . S
C585 H577 0.930 . S
C585 C583 1.419 . S
C585 C586 1.362 . S
C586 H578 0.930 . S
C586 C585 1.362 . S
C586 C589 1.409 . S
C587 H579 0.930 . S
C587 C588 1.355 . S
C587 C589 1.415 . S
C588 C587 1.355 . S
C588 C590 1.419 . S
C589 C584 1.425 . S
C589 C586 1.409 . S
C589 C587 1.415 . S
C590 H580 0.930 . S
C590 C588 1.419 . S
C590 C591 1.362 . S
C591 H581 0.930 . S
C591 C584 1.409 . S
C591 C590 1.362 . S
H592 C598 0.930 . S
H593 C601 0.930 . S
H594 C602 0.930 . S
H595 C603 0.930 . S
H596 C606 0.930 . S
H597 C607 0.930 . S
C598 H592 0.930 . S
C598 C599 1.355 . S
C598 C600 1.415 . S
C599 C598 1.355 . S
C599 C601 1.419 . S
C600 C598 1.415 . S
C600 C605 1.425 . S
C600 C607 1.409 . S
C601 H593 0.930 . S
C601 C599 1.419 . S
C601 C602 1.362 . S
C602 H594 0.930 . S
C602 C601 1.362 . S
C602 C605 1.409 . S
C603 H595 0.930 . S
C603 C604 1.355 . S
C603 C605 1.415 . S
C604 C603 1.355 . S
C604 C606 1.419 . S
C605 C600 1.425 . S
C605 C602 1.409 . S
C605 C603 1.415 . S
C606 H596 0.930 . S
C606 C604 1.419 . S
C606 C607 1.362 . S
C607 H597 0.930 . S
C607 C600 1.409 . S
C607 C606 1.362 . S
H608 C614 0.930 . S
H609 C617 0.930 . S
H610 C618 0.930 . S
H611 C619 0.930 . S
H612 C622 0.930 . S
H613 C623 0.930 . S
C614 H608 0.930 . S
C614 C615 1.355 . S
C614 C616 1.415 . S
C615 C614 1.355 . S
C615 C617 1.419 . S
C616 C614 1.415 . S
C616 C621 1.425 . S
C616 C623 1.409 . S
C617 H609 0.930 . S
C617 C615 1.419 . S
C617 C618 1.362 . S
C618 H610 0.930 . S
C618 C617 1.362 . S
C618 C621 1.409 . S
C619 H611 0.930 . S
C619 C620 1.355 . S
C619 C621 1.415 . S
C620 C619 1.355 . S
C620 C622 1.419 . S
C621 C616 1.425 . S
C621 C618 1.409 . S
C621 C619 1.415 . S
C622 H612 0.930 . S
C622 C620 1.419 . S
C622 C623 1.362 . S
C623 H613 0.930 . S
C623 C616 1.409 . S
C623 C622 1.362 . S
H624 C630 0.930 . S
H625 C633 0.930 . S
H626 C634 0.930 . S
H627 C635 0.930 . S
H628 C638 0.930 . S
H629 C639 0.930 . S
C630 H624 0.930 . S
C630 C631 1.355 . S
C630 C632 1.415 . S
C631 C630 1.355 . S
C631 C633 1.419 . S
C632 C630 1.415 . S
C632 C637 1.425 . S
C632 C639 1.409 . S
C633 H625 0.930 . S
C633 C631 1.419 . S
C633 C634 1.362 . S
C634 H626 0.930 . S
C634 C633 1.362 . S
C634 C637 1.409 . S
C635 H627 0.930 . S
C635 C636 1.355 . S
C635 C637 1.415 . S
C636 C635 1.355 . S
C636 C638 1.419 . S
C637 C632 1.425 . S
C637 C634 1.409 . S
C637 C635 1.415 . S
C638 H628 0.930 . S
C638 C636 1.419 . S
C638 C639 1.362 . S
C639 H629 0.930 . S
C639 C632 1.409 . S
C639 C638 1.362 . S
H640 C646 0.930 . S
H641 C649 0.930 . S
H642 C650 0.930 . S
H643 C651 0.930 . S
H644 C654 0.930 . S
H645 C655 0.930 . S
C646 H640 0.930 . S
C646 C647 1.355 . S
C646 C648 1.415 . S
C647 C646 1.355 . S
C647 C649 1.419 . S
C648 C646 1.415 . S
C648 C653 1.425 . S
C648 C655 1.409 . S
C649 H641 0.930 . S
C649 C647 1.419 . S
C649 C650 1.362 . S
C650 H642 0.930 . S
C650 C649 1.362 . S
C650 C653 1.409 . S
C651 H643 0.930 . S
C651 C652 1.355 . S
C651 C653 1.415 . S
C652 C651 1.355 . S
C652 C654 1.419 . S
C653 C648 1.425 . S
C653 C650 1.409 . S
C653 C651 1.415 . S
C654 H644 0.930 . S
C654 C652 1.419 . S
C654 C655 1.362 . S
C655 H645 0.930 . S
C655 C648 1.409 . S
C655 C654 1.362 . S
H656 C662 0.930 . S
H657 C665 0.930 . S
H658 C666 0.930 . S
H659 C667 0.930 . S
H660 C670 0.930 . S
H661 C671 0.930 . S
C662 H656 0.930 . S
C662 C663 1.355 . S
C662 C664 1.415 . S
C663 C662 1.355 . S
C663 C665 1.419 . S
C664 C662 1.415 . S
C664 C669 1.425 . S
C664 C671 1.409 . S
C665 H657 0.930 . S
C665 C663 1.419 . S
C665 C666 1.362 . S
C666 H658 0.930 . S
C666 C665 1.362 . S
C666 C669 1.409 . S
C667 H659 0.930 . S
C667 C668 1.355 . S
C667 C669 1.415 . S
C668 C667 1.355 . S
C668 C670 1.419 . S
C669 C664 1.425 . S
C669 C666 1.409 . S
C669 C667 1.415 . S
C670 H660 0.930 . S
C670 C668 1.419 . S
C670 C671 1.362 . S
C671 H661 0.930 . S
C671 C664 1.409 . S
C671 C670 1.362 . S
H672 C678 0.930 . S
H673 C681 0.930 . S
H674 C682 0.930 . S
H675 C683 0.930 . S
H676 C686 0.930 . S
H677 C687 0.930 . S
C678 H672 0.930 . S
C678 C679 1.355 . S
C678 C680 1.415 . S
C679 C678 1.355 . S
C679 C681 1.419 . S
C680 C678 1.415 . S
C680 C685 1.425 . S
C680 C687 1.409 . S
C681 H673 0.930 . S
C681 C679 1.419 . S
C681 C682 1.362 . S
C682 H674 0.930 . S
C682 C681 1.362 . S
C682 C685 1.409 . S
C683 H675 0.930 . S
C683 C684 1.355 . S
C683 C685 1.415 . S
C684 C683 1.355 . S
C684 C686 1.419 . S
C685 C680 1.425 . S
C685 C682 1.409 . S
C685 C683 1.415 . S
C686 H676 0.930 . S
C686 C684 1.419 . S
C686 C687 1.362 . S
C687 H677 0.930 . S
C687 C680 1.409 . S
C687 C686 1.362 . S
H688 C694 0.930 . S
H689 C697 0.930 . S
H690 C698 0.930 . S
H691 C699 0.930 . S
H692 C702 0.930 . S
H693 C703 0.930 . S
C694 H688 0.930 . S
C694 C695 1.355 . S
C694 C696 1.415 . S
C695 C694 1.355 . S
C695 C697 1.419 . S
C696 C694 1.415 . S
C696 C701 1.425 . S
C696 C703 1.409 . S
C697 H689 0.930 . S
C697 C695 1.419 . S
C697 C698 1.362 . S
C698 H690 0.930 . S
C698 C697 1.362 . S
C698 C701 1.409 . S
C699 H691 0.930 . S
C699 C700 1.355 . S
C699 C701 1.415 . S
C700 C699 1.355 . S
C700 C702 1.419 . S
C701 C696 1.425 . S
C701 C698 1.409 . S
C701 C699 1.415 . S
C702 H692 0.930 . S
C702 C700 1.419 . S
C702 C703 1.362 . S
C703 H693 0.930 . S
C703 C696 1.409 . S
C703 C702 1.362 . S
H704 C710 0.930 . S
H705 C713 0.930 . S
H706 C714 0.930 . S
H707 C715 0.930 . S
H708 C718 0.930 . S
H709 C719 0.930 . S
C710 H704 0.930 . S
C710 C711 1.355 . S
C710 C712 1.415 . S
C711 C710 1.355 . S
C711 C713 1.419 . S
C712 C710 1.415 . S
C712 C717 1.425 . S
C712 C719 1.409 . S
C713 H705 0.930 . S
C713 C711 1.419 . S
C713 C714 1.362 . S
C714 H706 0.930 . S
C714 C713 1.362 . S
C714 C717 1.409 . S
C715 H707 0.930 . S
C715 C716 1.355 . S
C715 C717 1.415 . S
C716 C715 1.355 . S
C716 C718 1.419 . S
C717 C712 1.425 . S
C717 C714 1.409 . S
C717 C715 1.415 . S
C718 H708 0.930 . S
C718 C716 1.419 . S
C718 C719 1.362 . S
C719 H709 0.930 . S
C719 C712 1.409 . S
C719 C718 1.362 . S
H720 C726 0.930 . S
H721 C729 0.930 . S
H722 C730 0.930 . S
H723 C731 0.930 . S
H724 C734 0.930 . S
H725 C735 0.930 . S
C726 H720 0.930 . S
C726 C727 1.355 . S
C726 C728 1.415 . S
C727 C726 1.355 . S
C727 C729 1.419 . S
C728 C726 1.415 . S
C728 C733 1.425 . S
C728 C735 1.409 . S
C729 H721 0.930 . S
C729 C727 1.419 . S
C729 C730 1.362 . S
C730 H722 0.930 . S
C730 C729 1.362 . S
C730 C733 1.409 . S
C731 H723 0.930 . S
C731 C732 1.355 . S
C731 C733 1.415 . S
C732 C731 1.355 . S
C732 C734 1.419 . S
C733 C728 1.425 . S
C733 C730 1.409 . S
C733 C731 1.415 . S
C734 H724 0.930 . S
C734 C732 1.419 . S
C734 C735 1.362 . S
C735 H725 0.930 . S
C735 C728 1.409 . S
C735 C734 1.362 . S
H736 C742 0.930 . S
H737 C745 0.930 . S
H738 C746 0.930 . S
H739 C747 0.930 . S
H740 C750 0.930 . S
H741 C751 0.930 . S
C742 H736 0.930 . S
C742 C743 1.355 . S
C742 C744 1.415 . S
C743 C742 1.355 . S
C743 C745 1.419 . S
C744 C742 1.415 . S
C744 C749 1.425 . S
C744 C751 1.409 . S
C745 H737 0.930 . S
C745 C743 1.419 . S
C745 C746 1.362 . S
C746 H738 0.930 . S
C746 C745 1.362 . S
C746 C749 1.409 . S
C747 H739 0.930 . S
C747 C748 1.355 . S
C747 C749 1.415 . S
C748 C747 1.355 . S
C748 C750 1.419 . S
C749 C744 1.425 . S
C749 C746 1.409 . S
C749 C747 1.415 . S
C750 H740 0.930 . S
C750 C748 1.419 . S
C750 C751 1.362 . S
C751 H741 0.930 . S
C751 C744 1.409 . S
C751 C750 1.362 . S
H752 C758 0.930 . S
H753 C761 0.930 . S
H754 C762 0.930 . S
H755 C763 0.930 1_554 S
H756 C766 0.930 . S
H757 C767 0.930 . S
C758 H752 0.930 . S
C758 C759 1.355 . S
C758 C760 1.415 . S
C759 C758 1.355 . S
C759 C761 1.419 . S
C760 C758 1.415 . S
C760 C765 1.425 . S
C760 C767 1.409 . S
C761 H753 0.930 . S
C761 C759 1.419 . S
C761 C762 1.362 . S
C762 H754 0.930 . S
C762 C761 1.362 . S
C762 C765 1.409 . S
C763 H755 0.930 1_556 S
C763 C764 1.355 . S
C763 C765 1.415 . S
C764 C763 1.355 . S
C764 C766 1.419 . S
C765 C760 1.425 . S
C765 C762 1.409 . S
C765 C763 1.415 . S
C766 H756 0.930 . S
C766 C764 1.419 . S
C766 C767 1.362 . S
C767 H757 0.930 . S
C767 C760 1.409 . S
C767 C766 1.362 . S
H768 C774 0.930 . S
H769 C777 0.930 . S
H770 C778 0.930 . S
H771 C779 0.930 . S
H772 C782 0.930 . S
H773 C783 0.930 . S
C774 H768 0.930 . S
C774 C775 1.355 . S
C774 C776 1.415 . S
C775 C774 1.355 . S
C775 C777 1.419 . S
C776 C774 1.415 . S
C776 C781 1.425 . S
C776 C783 1.409 . S
C777 H769 0.930 . S
C777 C775 1.419 . S
C777 C778 1.362 . S
C778 H770 0.930 . S
C778 C777 1.362 . S
C778 C781 1.409 . S
C779 H771 0.930 . S
C779 C780 1.355 . S
C779 C781 1.415 . S
C780 C779 1.355 . S
C780 C782 1.419 . S
C781 C776 1.425 . S
C781 C778 1.409 . S
C781 C779 1.415 . S
C782 H772 0.930 . S
C782 C780 1.419 . S
C782 C783 1.362 . S
C783 H773 0.930 . S
C783 C776 1.409 . S
C783 C782 1.362 . S
H784 C790 0.930 . S
H785 C793 0.930 . S
H786 C794 0.930 . S
H787 C795 0.930 . S
H788 C798 0.930 . S
H789 C799 0.930 . S
C790 H784 0.930 . S
C790 C791 1.355 . S
C790 C792 1.415 1_565 S
C791 C790 1.355 . S
C791 C793 1.419 1_565 S
C792 C790 1.415 1_545 S
C792 C797 1.425 . S
C792 C799 1.409 . S
C793 H785 0.930 . S
C793 C791 1.419 1_545 S
C793 C794 1.362 . S
C794 H786 0.930 . S
C794 C793 1.362 . S
C794 C797 1.409 . S
C795 H787 0.930 . S
C795 C796 1.355 . S
C795 C797 1.415 . S
C796 C795 1.355 . S
C796 C798 1.419 . S
C797 C792 1.425 . S
C797 C794 1.409 . S
C797 C795 1.415 . S
C798 H788 0.930 . S
C798 C796 1.419 . S
C798 C799 1.362 . S
C799 H789 0.930 . S
C799 C792 1.409 . S
C799 C798 1.362 . S
H800 C806 0.930 . S
H801 C809 0.930 . S
H802 C810 0.930 . S
H803 C811 0.930 . S
H804 C814 0.930 . S
H805 C815 0.930 . S
C806 H800 0.930 . S
C806 C807 1.355 . S
C806 C808 1.415 . S
C807 C806 1.355 . S
C807 C809 1.419 . S
C808 C806 1.415 . S
C808 C813 1.425 . S
C808 C815 1.409 . S
C809 H801 0.930 . S
C809 C807 1.419 . S
C809 C810 1.362 . S
C810 H802 0.930 . S
C810 C809 1.362 . S
C810 C813 1.409 . S
C811 H803 0.930 . S
C811 C812 1.355 . S
C811 C813 1.415 . S
C812 C811 1.355 . S
C812 C814 1.419 . S
C813 C808 1.425 . S
C813 C810 1.409 . S
C813 C811 1.415 . S
C814 H804 0.930 . S
C814 C812 1.419 . S
C814 C815 1.362 . S
C815 H805 0.930 . S
C815 C808 1.409 . S
C815 C814 1.362 . S
H816 C822 0.930 . S
H817 C825 0.930 . S
H818 C826 0.930 . S
H819 C827 0.930 . S
H820 C830 0.930 . S
H821 C831 0.930 1_556 S
C822 H816 0.930 . S
C822 C823 1.355 . S
C822 C824 1.415 . S
C823 C822 1.355 . S
C823 C825 1.419 . S
C824 C822 1.415 . S
C824 C829 1.425 . S
C824 C831 1.409 . S
C825 H817 0.930 . S
C825 C823 1.419 . S
C825 C826 1.362 . S
C826 H818 0.930 . S
C826 C825 1.362 . S
C826 C829 1.409 . S
C827 H819 0.930 . S
C827 C828 1.355 . S
C827 C829 1.415 1_545 S
C828 C827 1.355 . S
C828 C830 1.419 1_544 S
C829 C824 1.425 . S
C829 C826 1.409 . S
C829 C827 1.415 1_565 S
C830 H820 0.930 . S
C830 C828 1.419 1_566 S
C830 C831 1.362 1_556 S
C831 H821 0.930 1_554 S
C831 C824 1.409 . S
C831 C830 1.362 1_554 S
H832 C838 0.930 . S
H833 C841 0.930 . S
H834 C842 0.930 . S
H835 C843 0.930 . S
H836 C846 0.930 . S
H837 C847 0.930 . S
C838 H832 0.930 . S
C838 C839 1.355 . S
C838 C840 1.415 . S
C839 C838 1.355 . S
C839 C841 1.419 . S
C840 C838 1.415 . S
C840 C845 1.425 . S
C840 C847 1.409 . S
C841 H833 0.930 . S
C841 C839 1.419 . S
C841 C842 1.362 . S
C842 H834 0.930 . S
C842 C841 1.362 . S
C842 C845 1.409 . S
C843 H835 0.930 . S
C843 C844 1.355 . S
C843 C845 1.415 . S
C844 C843 1.355 . S
C844 C846 1.419 . S
C845 C840 1.425 . S
C845 C842 1.409 . S
C845 C843 1.415 . S
C846 H836 0.930 . S
C846 C844 1.419 . S
C846 C847 1.362 . S
C847 H837 0.930 . S
C847 C840 1.409 . S
C847 C846 1.362 . S
H848 C854 0.930 . S
H849 C857 0.930 . S
H850 C858 0.930 . S
H851 C859 0.930 . S
H852 C862 0.930 . S
H853 C863 0.930 . S
C854 H848 0.930 . S
C854 C855 1.355 . S
C854 C856 1.415 . S
C855 C854 1.355 . S
C855 C857 1.419 . S
C856 C854 1.415 . S
C856 C861 1.425 . S
C856 C863 1.409 . S
C857 H849 0.930 . S
C857 C855 1.419 . S
C857 C858 1.362 . S
C858 H850 0.930 . S
C858 C857 1.362 . S
C858 C861 1.409 . S
C859 H851 0.930 . S
C859 C860 1.355 . S
C859 C861 1.415 . S
C860 C859 1.355 . S
C860 C862 1.419 . S
C861 C856 1.425 . S
C861 C858 1.409 . S
C861 C859 1.415 . S
C862 H852 0.930 . S
C862 C860 1.419 . S
C862 C863 1.362 . S
C863 H853 0.930 . S
C863 C856 1.409 . S
C863 C862 1.362 . S
H864 C870 0.930 . S
H865 C873 0.930 . S
H866 C874 0.930 . S
H867 C875 0.930 . S
H868 C878 0.930 . S
H869 C879 0.930 . S
C870 H864 0.930 . S
C870 C871 1.355 . S
C870 C872 1.415 . S
C871 C870 1.355 . S
C871 C873 1.419 . S
C872 C870 1.415 . S
C872 C877 1.425 . S
C872 C879 1.409 . S
C873 H865 0.930 . S
C873 C871 1.419 . S
C873 C874 1.362 . S
C874 H866 0.930 . S
C874 C873 1.362 . S
C874 C877 1.409 . S
C875 H867 0.930 . S
C875 C876 1.355 . S
C875 C877 1.415 . S
C876 C875 1.355 . S
C876 C878 1.419 . S
C877 C872 1.425 . S
C877 C874 1.409 . S
C877 C875 1.415 . S
C878 H868 0.930 . S
C878 C876 1.419 . S
C878 C879 1.362 . S
C879 H869 0.930 . S
C879 C872 1.409 . S
C879 C878 1.362 . S
H880 C886 0.930 . S
H881 C889 0.930 . S
H882 C890 0.930 . S
H883 C891 0.930 . S
H884 C894 0.930 . S
H885 C895 0.930 . S
C886 H880 0.930 . S
C886 C887 1.355 . S
C886 C888 1.415 . S
C887 C886 1.355 . S
C887 C889 1.419 . S
C888 C886 1.415 . S
C888 C893 1.425 . S
C888 C895 1.409 1_455 S
C889 H881 0.930 . S
C889 C887 1.419 . S
C889 C890 1.362 . S
C890 H882 0.930 . S
C890 C889 1.362 . S
C890 C893 1.409 . S
C891 H883 0.930 . S
C891 C892 1.355 . S
C891 C893 1.415 1_554 S
C892 C891 1.355 . S
C892 C894 1.419 1_454 S
C893 C888 1.425 . S
C893 C890 1.409 . S
C893 C891 1.415 1_556 S
C894 H884 0.930 . S
C894 C892 1.419 1_656 S
C894 C895 1.362 . S
C895 H885 0.930 . S
C895 C888 1.409 1_655 S
C895 C894 1.362 . S
H896 C902 0.930 . S
H897 C905 0.930 . S
H898 C906 0.930 . S
H899 C907 0.930 . S
H900 C910 0.930 . S
H901 C911 0.930 . S
C902 H896 0.930 . S
C902 C903 1.355 . S
C902 C904 1.415 . S
C903 C902 1.355 . S
C903 C905 1.419 . S
C904 C902 1.415 . S
C904 C909 1.425 . S
C904 C911 1.409 . S
C905 H897 0.930 . S
C905 C903 1.419 . S
C905 C906 1.362 . S
C906 H898 0.930 . S
C906 C905 1.362 . S
C906 C909 1.409 . S
C907 H899 0.930 . S
C907 C908 1.355 . S
C907 C909 1.415 . S
C908 C907 1.355 . S
C908 C910 1.419 . S
C909 C904 1.425 . S
C909 C906 1.409 . S
C909 C907 1.415 . S
C910 H900 0.930 . S
C910 C908 1.419 . S
C910 C911 1.362 . S
C911 H901 0.930 . S
C911 C904 1.409 . S
C911 C910 1.362 . S
H912 C918 0.930 1_455 S
H913 C921 0.930 . S
H914 C922 0.930 . S
H915 C923 0.930 . S
H916 C926 0.930 . S
H917 C927 0.930 1_455 S
C918 H912 0.930 1_655 S
C918 C919 1.355 . S
C918 C920 1.415 . S
C919 C918 1.355 . S
C919 C921 1.419 . S
C920 C918 1.415 . S
C920 C925 1.425 . S
C920 C927 1.409 . S
C921 H913 0.930 . S
C921 C919 1.419 . S
C921 C922 1.362 . S
C922 H914 0.930 . S
C922 C921 1.362 . S
C922 C925 1.409 . S
C923 H915 0.930 . S
C923 C924 1.355 . S
C923 C925 1.415 . S
C924 C923 1.355 . S
C924 C926 1.419 . S
C925 C920 1.425 . S
C925 C922 1.409 . S
C925 C923 1.415 . S
C926 H916 0.930 . S
C926 C924 1.419 . S
C926 C927 1.362 . S
C927 H917 0.930 1_655 S
C927 C920 1.409 . S
C927 C926 1.362 . S
H928 C934 0.930 . S
H929 C937 0.930 . S
H930 C938 0.930 . S
H931 C939 0.930 . S
H932 C942 0.930 . S
H933 C943 0.930 . S
C934 H928 0.930 . S
C934 C935 1.355 . S
C934 C936 1.415 . S
C935 C934 1.355 . S
C935 C937 1.419 . S
C936 C934 1.415 . S
C936 C941 1.425 . S
C936 C943 1.409 . S
C937 H929 0.930 . S
C937 C935 1.419 . S
C937 C938 1.362 . S
C938 H930 0.930 . S
C938 C937 1.362 . S
C938 C941 1.409 . S
C939 H931 0.930 . S
C939 C940 1.355 . S
C939 C941 1.415 . S
C940 C939 1.355 . S
C940 C942 1.419 . S
C941 C936 1.425 . S
C941 C938 1.409 . S
C941 C939 1.415 . S
C942 H932 0.930 . S
C942 C940 1.419 . S
C942 C943 1.362 . S
C943 H933 0.930 . S
C943 C936 1.409 . S
C943 C942 1.362 . S
H944 C950 0.930 . S
H945 C953 0.930 . S
H946 C954 0.930 . S
H947 C955 0.930 . S
H948 C958 0.930 . S
H949 C959 0.930 . S
C950 H944 0.930 . S
C950 C951 1.355 . S
C950 C952 1.415 . S
C951 C950 1.355 . S
C951 C953 1.419 . S
C952 C950 1.415 . S
C952 C957 1.425 . S
C952 C959 1.409 . S
C953 H945 0.930 . S
C953 C951 1.419 . S
C953 C954 1.362 . S
C954 H946 0.930 . S
C954 C953 1.362 . S
C954 C957 1.409 . S
C955 H947 0.930 . S
C955 C956 1.355 . S
C955 C957 1.415 1_556 S
C956 C955 1.355 . S
C956 C958 1.419 1_556 S
C957 C952 1.425 . S
C957 C954 1.409 . S
C957 C955 1.415 1_554 S
C958 H948 0.930 . S
C958 C956 1.419 1_554 S
C958 C959 1.362 . S
C959 H949 0.930 . S
C959 C952 1.409 . S
C959 C958 1.362 . S
H960 C966 0.930 . S
H961 C969 0.930 . S
H962 C970 0.930 . S
H963 C971 0.930 . S
H964 C974 0.930 . S
H965 C975 0.930 . S
C966 H960 0.930 . S
C966 C967 1.355 . S
C966 C968 1.415 . S
C967 C966 1.355 . S
C967 C969 1.419 . S
C968 C966 1.415 . S
C968 C973 1.425 . S
C968 C975 1.409 . S
C969 H961 0.930 . S
C969 C967 1.419 . S
C969 C970 1.362 . S
C970 H962 0.930 . S
C970 C969 1.362 . S
C970 C973 1.409 . S
C971 H963 0.930 . S
C971 C972 1.355 . S
C971 C973 1.415 . S
C972 C971 1.355 . S
C972 C974 1.419 . S
C973 C968 1.425 . S
C973 C970 1.409 . S
C973 C971 1.415 . S
C974 H964 0.930 . S
C974 C972 1.419 . S
C974 C975 1.362 . S
C975 H965 0.930 . S
C975 C968 1.409 . S
C975 C974 1.362 . S
H976 C982 0.930 . S
H977 C985 0.930 . S
H978 C986 0.930 . S
H979 C987 0.930 . S
H980 C990 0.930 . S
H981 C991 0.930 . S
C982 H976 0.930 . S
C982 C983 1.355 . S
C982 C984 1.415 . S
C983 C982 1.355 . S
C983 C985 1.419 . S
C984 C982 1.415 . S
C984 C989 1.425 . S
C984 C991 1.409 . S
C985 H977 0.930 . S
C985 C983 1.419 . S
C985 C986 1.362 . S
C986 H978 0.930 . S
C986 C985 1.362 . S
C986 C989 1.409 . S
C987 H979 0.930 . S
C987 C988 1.355 . S
C987 C989 1.415 . S
C988 C987 1.355 . S
C988 C990 1.419 . S
C989 C984 1.425 . S
C989 C986 1.409 . S
C989 C987 1.415 . S
C990 H980 0.930 . S
C990 C988 1.419 . S
C990 C991 1.362 . S
C991 H981 0.930 . S
C991 C984 1.409 . S
C991 C990 1.362 . S
H992 C998 0.917 1_455 S
H993 C1001 0.930 1_455 S
H994 C1002 0.930 . S
H995 C1003 0.930 . S
H996 C1006 0.930 . S
H997 C1007 0.930 . S
C998 H992 0.917 1_655 S
C998 C999 1.344 1_655 S
C998 C1000 1.439 . S
C999 C998 1.344 1_455 S
C999 C1001 1.419 1_455 S
C1000 C998 1.439 . S
C1000 C1005 1.425 . S
C1000 C1007 1.409 . S
C1001 H993 0.930 1_655 S
C1001 C999 1.419 1_655 S
C1001 C1002 1.362 . S
C1002 H994 0.930 . S
C1002 C1001 1.362 . S
C1002 C1005 1.409 . S
C1003 H995 0.930 . S
C1003 C1004 1.355 . S
C1003 C1005 1.415 . S
C1004 C1003 1.355 . S
C1004 C1006 1.419 . S
C1005 C1000 1.425 . S
C1005 C1002 1.409 . S
C1005 C1003 1.415 . S
C1006 H996 0.930 . S
C1006 C1004 1.419 . S
C1006 C1007 1.362 . S
C1007 H997 0.930 . S
C1007 C1000 1.409 . S
C1007 C1006 1.362 . S
H1008 C1014 0.930 . S
H1009 C1017 0.930 . S
H1010 C1018 0.930 . S
H1011 C1019 0.930 . S
H1012 C1022 0.930 . S
H1013 C1023 0.930 . S
C1014 H1008 0.930 . S
C1014 C1015 1.355 . S
C1014 C1016 1.415 . S
C1015 C1014 1.355 . S
C1015 C1017 1.419 . S
C1016 C1014 1.415 . S
C1016 C1021 1.425 . S
C1016 C1023 1.409 . S
C1017 H1009 0.930 . S
C1017 C1015 1.419 . S
C1017 C1018 1.362 . S
C1018 H1010 0.930 . S
C1018 C1017 1.362 . S
C1018 C1021 1.409 . S
C1019 H1011 0.930 . S
C1019 C1020 1.355 . S
C1019 C1021 1.415 . S
C1020 C1019 1.355 . S
C1020 C1022 1.419 . S
C1021 C1016 1.425 . S
C1021 C1018 1.409 . S
C1021 C1019 1.415 . S
C1022 H1012 0.930 . S
C1022 C1020 1.419 . S
C1022 C1023 1.362 . S
C1023 H1013 0.930 . S
C1023 C1016 1.409 . S
C1023 C1022 1.362 . S
H1024 C1030 0.930 1_545 S
H1025 C1033 0.930 . S
H1026 C1034 0.930 . S
H1027 C1035 0.930 . S
H1028 C1038 0.930 . S
H1029 C1039 0.924 1_545 S
C1030 H1024 0.930 1_565 S
C1030 C1031 1.355 . S
C1030 C1032 1.415 . S
C1031 C1030 1.355 . S
C1031 C1033 1.419 . S
C1032 C1030 1.415 . S
C1032 C1037 1.425 . S
C1032 C1039 1.409 . S
C1033 H1025 0.930 . S
C1033 C1031 1.419 . S
C1033 C1034 1.362 . S
C1034 H1026 0.930 . S
C1034 C1033 1.362 . S
C1034 C1037 1.409 . S
C1035 H1027 0.930 . S
C1035 C1036 1.355 . S
C1035 C1037 1.415 . S
C1036 C1035 1.355 . S
C1036 C1038 1.419 . S
C1037 C1032 1.425 . S
C1037 C1034 1.409 . S
C1037 C1035 1.415 . S
C1038 H1028 0.930 . S
C1038 C1036 1.419 . S
C1038 C1039 1.362 . S
C1039 H1029 0.924 1_565 S
C1039 C1032 1.409 . S
C1039 C1038 1.362 . S
H1040 C1046 0.930 . S
H1041 C1049 0.930 . S
H1042 C1050 0.930 . S
H1043 C1051 0.930 . S
H1044 C1054 0.930 . S
H1045 C1055 0.930 . S
C1046 H1040 0.930 . S
C1046 C1047 1.355 . S
C1046 C1048 1.415 . S
C1047 C1046 1.355 . S
C1047 C1049 1.419 . S
C1048 C1046 1.415 . S
C1048 C1053 1.425 . S
C1048 C1055 1.409 . S
C1049 H1041 0.930 . S
C1049 C1047 1.419 . S
C1049 C1050 1.362 . S
C1050 H1042 0.930 . S
C1050 C1049 1.362 . S
C1050 C1053 1.409 . S
C1051 H1043 0.930 . S
C1051 C1052 1.355 . S
C1051 C1053 1.415 . S
C1052 C1051 1.355 . S
C1052 C1054 1.419 . S
C1053 C1048 1.425 . S
C1053 C1050 1.409 . S
C1053 C1051 1.415 . S
C1054 H1044 0.930 . S
C1054 C1052 1.419 . S
C1054 C1055 1.362 . S
C1055 H1045 0.930 . S
C1055 C1048 1.409 . S
C1055 C1054 1.362 . S
H1056 C1062 0.930 . S
H1057 C1065 0.930 . S
H1058 C1066 0.930 . S
H1059 C1067 0.930 . S
H1060 C1070 0.930 . S
H1061 C1071 0.930 . S
C1062 H1056 0.930 . S
C1062 C1063 1.355 1_455 S
C1062 C1064 1.415 . S
C1063 C1062 1.355 1_655 S
C1063 C1065 1.419 . S
C1064 C1062 1.415 . S
C1064 C1069 1.425 . S
C1064 C1071 1.409 . S
C1065 H1057 0.930 . S
C1065 C1063 1.419 . S
C1065 C1066 1.362 1_655 S
C1066 H1058 0.930 . S
C1066 C1065 1.362 1_455 S
C1066 C1069 1.409 . S
C1067 H1059 0.930 . S
C1067 C1068 1.355 . S
C1067 C1069 1.415 . S
C1068 C1067 1.355 . S
C1068 C1070 1.419 . S
C1069 C1064 1.425 . S
C1069 C1066 1.409 . S
C1069 C1067 1.415 . S
C1070 H1060 0.930 . S
C1070 C1068 1.419 . S
C1070 C1071 1.362 . S
C1071 H1061 0.930 . S
C1071 C1064 1.409 . S
C1071 C1070 1.362 . S
H1072 C1078 0.930 . S
H1073 C1081 0.930 . S
H1074 C1082 0.930 . S
H1075 C1083 0.930 . S
H1076 C1086 0.930 . S
H1077 C1087 0.930 . S
C1078 H1072 0.930 . S
C1078 C1079 1.355 . S
C1078 C1080 1.415 . S
C1079 C1078 1.355 . S
C1079 C1081 1.419 . S
C1080 C1078 1.415 . S
C1080 C1085 1.425 . S
C1080 C1087 1.409 . S
C1081 H1073 0.930 . S
C1081 C1079 1.419 . S
C1081 C1082 1.362 . S
C1082 H1074 0.930 . S
C1082 C1081 1.362 . S
C1082 C1085 1.409 . S
C1083 H1075 0.930 . S
C1083 C1084 1.355 . S
C1083 C1085 1.415 . S
C1084 C1083 1.355 . S
C1084 C1086 1.419 . S
C1085 C1080 1.425 . S
C1085 C1082 1.409 . S
C1085 C1083 1.415 . S
C1086 H1076 0.930 . S
C1086 C1084 1.419 . S
C1086 C1087 1.362 . S
C1087 H1077 0.930 . S
C1087 C1080 1.409 . S
C1087 C1086 1.362 . S
H1088 C1094 0.930 . S
H1089 C1097 0.930 . S
H1090 C1098 0.930 . S
H1091 C1099 0.930 . S
H1092 C1102 0.930 . S
H1093 C1103 0.930 . S
C1094 H1088 0.930 . S
C1094 C1095 1.355 . S
C1094 C1096 1.415 . S
C1095 C1094 1.355 . S
C1095 C1097 1.419 . S
C1096 C1094 1.415 . S
C1096 C1101 1.425 . S
C1096 C1103 1.409 . S
C1097 H1089 0.930 . S
C1097 C1095 1.419 . S
C1097 C1098 1.362 . S
C1098 H1090 0.930 . S
C1098 C1097 1.362 . S
C1098 C1101 1.409 . S
C1099 H1091 0.930 . S
C1099 C1100 1.355 . S
C1099 C1101 1.415 . S
C1100 C1099 1.355 . S
C1100 C1102 1.419 . S
C1101 C1096 1.425 . S
C1101 C1098 1.409 . S
C1101 C1099 1.415 . S
C1102 H1092 0.930 . S
C1102 C1100 1.419 . S
C1102 C1103 1.362 . S
C1103 H1093 0.930 . S
C1103 C1096 1.409 . S
C1103 C1102 1.362 . S
H1104 C1110 0.930 . S
H1105 C1113 0.930 . S
H1106 C1114 0.930 . S
H1107 C1115 0.930 . S
H1108 C1118 0.930 . S
H1109 C1119 0.930 . S
C1110 H1104 0.930 . S
C1110 C1111 1.355 . S
C1110 C1112 1.415 . S
C1111 C1110 1.355 . S
C1111 C1113 1.419 . S
C1112 C1110 1.415 . S
C1112 C1117 1.425 . S
C1112 C1119 1.409 . S
C1113 H1105 0.930 . S
C1113 C1111 1.419 . S
C1113 C1114 1.362 . S
C1114 H1106 0.930 . S
C1114 C1113 1.362 . S
C1114 C1117 1.409 . S
C1115 H1107 0.930 . S
C1115 C1116 1.355 . S
C1115 C1117 1.415 . S
C1116 C1115 1.355 . S
C1116 C1118 1.419 . S
C1117 C1112 1.425 . S
C1117 C1114 1.409 . S
C1117 C1115 1.415 . S
C1118 H1108 0.930 . S
C1118 C1116 1.419 . S
C1118 C1119 1.362 . S
C1119 H1109 0.930 . S
C1119 C1112 1.409 . S
C1119 C1118 1.362 . S
H1120 C1126 0.930 . S
H1121 C1129 0.930 . S
H1122 C1130 0.930 . S
H1123 C1131 0.930 . S
H1124 C1134 0.930 . S
H1125 C1135 0.930 . S
C1126 H1120 0.930 . S
C1126 C1127 1.355 . S
C1126 C1128 1.415 . S
C1127 C1126 1.355 . S
C1127 C1129 1.419 . S
C1128 C1126 1.415 . S
C1128 C1133 1.425 . S
C1128 C1135 1.409 . S
C1129 H1121 0.930 . S
C1129 C1127 1.419 . S
C1129 C1130 1.362 . S
C1130 H1122 0.930 . S
C1130 C1129 1.362 . S
C1130 C1133 1.409 . S
C1131 H1123 0.930 . S
C1131 C1132 1.355 . S
C1131 C1133 1.415 . S
C1132 C1131 1.355 . S
C1132 C1134 1.419 . S
C1133 C1128 1.425 . S
C1133 C1130 1.409 . S
C1133 C1131 1.415 . S
C1134 H1124 0.930 . S
C1134 C1132 1.419 . S
C1134 C1135 1.362 . S
C1135 H1125 0.930 . S
C1135 C1128 1.409 . S
C1135 C1134 1.362 . S
H1136 C1142 0.930 . S
H1137 C1145 0.930 . S
H1138 C1146 0.930 . S
H1139 C1147 0.930 . S
H1140 C1150 0.930 . S
H1141 C1151 0.930 . S
C1142 H1136 0.930 . S
C1142 C1143 1.355 . S
C1142 C1144 1.415 . S
C1143 C1142 1.355 . S
C1143 C1145 1.419 . S
C1144 C1142 1.415 . S
C1144 C1149 1.425 . S
C1144 C1151 1.409 . S
C1145 H1137 0.930 . S
C1145 C1143 1.419 . S
C1145 C1146 1.362 . S
C1146 H1138 0.930 . S
C1146 C1145 1.362 . S
C1146 C1149 1.409 . S
C1147 H1139 0.930 . S
C1147 C1148 1.355 . S
C1147 C1149 1.415 . S
C1148 C1147 1.355 . S
C1148 C1150 1.419 . S
C1149 C1144 1.425 . S
C1149 C1146 1.409 . S
C1149 C1147 1.415 . S
C1150 H1140 0.930 . S
C1150 C1148 1.419 . S
C1150 C1151 1.362 . S
C1151 H1141 0.930 . S
C1151 C1144 1.409 . S
C1151 C1150 1.362 . S
H1152 C1158 0.930 . S
H1153 C1161 0.930 . S
H1154 C1162 0.930 1_556 S
H1155 C1163 0.930 . S
H1156 C1166 0.930 . S
H1157 C1167 0.930 . S
C1158 H1152 0.930 . S
C1158 C1159 1.355 . S
C1158 C1160 1.415 . S
C1159 C1158 1.355 . S
C1159 C1161 1.419 . S
C1160 C1158 1.415 . S
C1160 C1165 1.425 . S
C1160 C1167 1.409 . S
C1161 H1153 0.930 . S
C1161 C1159 1.419 . S
C1161 C1162 1.362 . S
C1162 H1154 0.930 1_554 S
C1162 C1161 1.362 . S
C1162 C1165 1.409 . S
C1163 H1155 0.930 . S
C1163 C1164 1.355 . S
C1163 C1165 1.415 1_556 S
C1164 C1163 1.355 . S
C1164 C1166 1.419 1_556 S
C1165 C1160 1.425 . S
C1165 C1162 1.409 . S
C1165 C1163 1.415 1_554 S
C1166 H1156 0.930 . S
C1166 C1164 1.419 1_554 S
C1166 C1167 1.362 . S
C1167 H1157 0.930 . S
C1167 C1160 1.409 . S
C1167 C1166 1.362 . S
H1168 C1174 0.930 . S
H1169 C1177 0.930 . S
H1170 C1178 0.930 1_565 S
H1171 C1179 0.930 . S
H1172 C1182 0.930 . S
H1173 C1183 0.930 . S
C1174 H1168 0.930 . S
C1174 C1175 1.355 1_545 S
C1174 C1176 1.415 . S
C1175 C1174 1.355 1_565 S
C1175 C1177 1.419 . S
C1176 C1174 1.415 . S
C1176 C1181 1.425 . S
C1176 C1183 1.409 . S
C1177 H1169 0.930 . S
C1177 C1175 1.419 . S
C1177 C1178 1.362 1_565 S
C1178 H1170 0.930 1_545 S
C1178 C1177 1.362 1_545 S
C1178 C1181 1.409 . S
C1179 H1171 0.930 . S
C1179 C1180 1.355 . S
C1179 C1181 1.415 . S
C1180 C1179 1.355 . S
C1180 C1182 1.419 . S
C1181 C1176 1.425 . S
C1181 C1178 1.409 . S
C1181 C1179 1.415 . S
C1182 H1172 0.930 . S
C1182 C1180 1.419 . S
C1182 C1183 1.362 . S
C1183 H1173 0.930 . S
C1183 C1176 1.409 . S
C1183 C1182 1.362 . S
H1184 C1190 0.930 . S
H1185 C1193 0.930 . S
H1186 C1194 0.930 . S
H1187 C1195 0.930 . S
H1188 C1198 0.930 . S
H1189 C1199 0.930 . S
C1190 H1184 0.930 . S
C1190 C1191 1.355 . S
C1190 C1192 1.415 1_554 S
C1191 C1190 1.355 . S
C1191 C1193 1.419 1_554 S
C1192 C1190 1.415 1_556 S
C1192 C1197 1.425 . S
C1192 C1199 1.409 1_556 S
C1193 H1185 0.930 . S
C1193 C1191 1.419 1_556 S
C1193 C1194 1.362 . S
C1194 H1186 0.930 . S
C1194 C1193 1.362 . S
C1194 C1197 1.409 . S
C1195 H1187 0.930 . S
C1195 C1196 1.355 . S
C1195 C1197 1.415 . S
C1196 C1195 1.355 . S
C1196 C1198 1.419 . S
C1197 C1192 1.425 . S
C1197 C1194 1.409 . S
C1197 C1195 1.415 . S
C1198 H1188 0.930 . S
C1198 C1196 1.419 . S
C1198 C1199 1.362 1_556 S
C1199 H1189 0.930 . S
C1199 C1192 1.409 1_554 S
C1199 C1198 1.362 1_554 S
H1200 C1206 0.930 1_545 S
H1201 C1209 0.930 . S
H1202 C1210 0.930 . S
H1203 C1211 0.930 . S
H1204 C1214 0.930 . S
H1205 C1215 0.930 . S
C1206 H1200 0.930 1_565 S
C1206 C1207 1.355 1_565 S
C1206 C1208 1.415 . S
C1207 C1206 1.355 1_545 S
C1207 C1209 1.419 1_545 S
C1208 C1206 1.415 . S
C1208 C1213 1.425 . S
C1208 C1215 1.409 . S
C1209 H1201 0.930 . S
C1209 C1207 1.419 1_565 S
C1209 C1210 1.362 . S
C1210 H1202 0.930 . S
C1210 C1209 1.362 . S
C1210 C1213 1.409 . S
C1211 H1203 0.930 . S
C1211 C1212 1.355 . S
C1211 C1213 1.415 . S
C1212 C1211 1.355 . S
C1212 C1214 1.419 . S
C1213 C1208 1.425 . S
C1213 C1210 1.409 . S
C1213 C1211 1.415 . S
C1214 H1204 0.930 . S
C1214 C1212 1.419 . S
C1214 C1215 1.362 . S
C1215 H1205 0.930 . S
C1215 C1208 1.409 . S
C1215 C1214 1.362 . S
H1216 C1222 0.930 . S
H1217 C1225 0.930 . S
H1218 C1226 0.930 . S
H1219 C1227 0.930 . S
H1220 C1230 0.930 . S
H1221 C1231 0.930 . S
C1222 H1216 0.930 . S
C1222 C1223 1.355 . S
C1222 C1224 1.415 . S
C1223 C1222 1.355 . S
C1223 C1225 1.419 . S
C1224 C1222 1.415 . S
C1224 C1229 1.425 . S
C1224 C1231 1.409 . S
C1225 H1217 0.930 . S
C1225 C1223 1.419 . S
C1225 C1226 1.362 . S
C1226 H1218 0.930 . S
C1226 C1225 1.362 . S
C1226 C1229 1.409 . S
C1227 H1219 0.930 . S
C1227 C1228 1.355 . S
C1227 C1229 1.415 . S
C1228 C1227 1.355 . S
C1228 C1230 1.419 . S
C1229 C1224 1.425 . S
C1229 C1226 1.409 . S
C1229 C1227 1.415 . S
C1230 H1220 0.930 . S
C1230 C1228 1.419 . S
C1230 C1231 1.362 . S
C1231 H1221 0.930 . S
C1231 C1224 1.409 . S
C1231 C1230 1.362 . S
H1232 C1238 0.930 . S
H1233 C1241 0.930 . S
H1234 C1242 0.930 . S
H1235 C1243 0.930 . S
H1236 C1246 0.930 . S
H1237 C1247 0.930 . S
C1238 H1232 0.930 . S
C1238 C1239 1.355 . S
C1238 C1240 1.415 . S
C1239 C1238 1.355 . S
C1239 C1241 1.419 . S
C1240 C1238 1.415 . S
C1240 C1245 1.425 . S
C1240 C1247 1.409 . S
C1241 H1233 0.930 . S
C1241 C1239 1.419 . S
C1241 C1242 1.362 . S
C1242 H1234 0.930 . S
C1242 C1241 1.362 . S
C1242 C1245 1.409 . S
C1243 H1235 0.930 . S
C1243 C1244 1.355 . S
C1243 C1245 1.415 . S
C1244 C1243 1.355 . S
C1244 C1246 1.419 . S
C1245 C1240 1.425 . S
C1245 C1242 1.409 . S
C1245 C1243 1.415 . S
C1246 H1236 0.930 . S
C1246 C1244 1.419 . S
C1246 C1247 1.362 . S
C1247 H1237 0.930 . S
C1247 C1240 1.409 . S
C1247 C1246 1.362 . S
H1248 C1254 0.930 . S
H1249 C1257 0.930 . S
H1250 C1258 0.930 . S
H1251 C1259 0.930 . S
H1252 C1262 0.930 . S
H1253 C1263 0.930 1_565 S
C1254 H1248 0.930 . S
C1254 C1255 1.355 . S
C1254 C1256 1.415 1_565 S
C1255 C1254 1.355 . S
C1255 C1257 1.419 1_565 S
C1256 C1254 1.415 1_545 S
C1256 C1261 1.425 . S
C1256 C1263 1.409 . S
C1257 H1249 0.930 . S
C1257 C1255 1.419 1_545 S
C1257 C1258 1.362 . S
C1258 H1250 0.930 . S
C1258 C1257 1.362 . S
C1258 C1261 1.409 . S
C1259 H1251 0.930 . S
C1259 C1260 1.355 . S
C1259 C1261 1.415 . S
C1260 C1259 1.355 . S
C1260 C1262 1.419 . S
C1261 C1256 1.425 . S
C1261 C1258 1.409 . S
C1261 C1259 1.415 . S
C1262 H1252 0.930 . S
C1262 C1260 1.419 . S
C1262 C1263 1.362 . S
C1263 H1253 0.930 1_545 S
C1263 C1256 1.409 . S
C1263 C1262 1.362 . S
H1264 C1270 0.930 . S
H1265 C1273 0.930 . S
H1266 C1274 0.930 . S
H1267 C1275 0.930 . S
H1268 C1278 0.930 . S
H1269 C1279 0.930 1_554 S
C1270 H1264 0.930 . S
C1270 C1271 1.355 . S
C1270 C1272 1.415 . S
C1271 C1270 1.355 . S
C1271 C1273 1.419 . S
C1272 C1270 1.415 . S
C1272 C1277 1.425 . S
C1272 C1279 1.409 . S
C1273 H1265 0.930 . S
C1273 C1271 1.419 . S
C1273 C1274 1.362 . S
C1274 H1266 0.930 . S
C1274 C1273 1.362 . S
C1274 C1277 1.409 . S
C1275 H1267 0.930 . S
C1275 C1276 1.355 1_556 S
C1275 C1277 1.415 . S
C1276 C1275 1.355 1_554 S
C1276 C1278 1.419 . S
C1277 C1272 1.425 . S
C1277 C1274 1.409 . S
C1277 C1275 1.415 . S
C1278 H1268 0.930 . S
C1278 C1276 1.419 . S
C1278 C1279 1.362 1_554 S
C1279 H1269 0.930 1_556 S
C1279 C1272 1.409 . S
C1279 C1278 1.362 1_556 S
H1280 C1286 0.930 . S
H1281 C1289 0.930 . S
H1282 C1290 0.930 . S
H1283 C1291 0.930 . S
H1284 C1294 0.930 . S
H1285 C1295 0.930 . S
C1286 H1280 0.930 . S
C1286 C1287 1.355 . S
C1286 C1288 1.415 . S
C1287 C1286 1.355 . S
C1287 C1289 1.419 . S
C1288 C1286 1.415 . S
C1288 C1293 1.425 . S
C1288 C1295 1.409 . S
C1289 H1281 0.930 . S
C1289 C1287 1.419 . S
C1289 C1290 1.362 . S
C1290 H1282 0.930 . S
C1290 C1289 1.362 . S
C1290 C1293 1.409 . S
C1291 H1283 0.930 . S
C1291 C1292 1.355 . S
C1291 C1293 1.415 1_545 S
C1292 C1291 1.355 . S
C1292 C1294 1.419 . S
C1293 C1288 1.425 . S
C1293 C1290 1.409 . S
C1293 C1291 1.415 1_565 S
C1294 H1284 0.930 . S
C1294 C1292 1.419 . S
C1294 C1295 1.362 1_545 S
C1295 H1285 0.930 . S
C1295 C1288 1.409 . S
C1295 C1294 1.362 1_565 S
H1296 C1302 0.930 . S
H1297 C1305 0.930 . S
H1298 C1306 0.930 . S
H1299 C1307 0.930 . S
H1300 C1310 0.930 . S
H1301 C1311 0.930 . S
C1302 H1296 0.930 . S
C1302 C1303 1.355 . S
C1302 C1304 1.415 . S
C1303 C1302 1.355 . S
C1303 C1305 1.419 . S
C1304 C1302 1.415 . S
C1304 C1309 1.425 . S
C1304 C1311 1.409 . S
C1305 H1297 0.930 . S
C1305 C1303 1.419 . S
C1305 C1306 1.362 . S
C1306 H1298 0.930 . S
C1306 C1305 1.362 . S
C1306 C1309 1.409 . S
C1307 H1299 0.930 . S
C1307 C1308 1.355 . S
C1307 C1309 1.415 . S
C1308 C1307 1.355 . S
C1308 C1310 1.419 . S
C1309 C1304 1.425 . S
C1309 C1306 1.409 . S
C1309 C1307 1.415 . S
C1310 H1300 0.930 . S
C1310 C1308 1.419 . S
C1310 C1311 1.362 . S
C1311 H1301 0.930 . S
C1311 C1304 1.409 . S
C1311 C1310 1.362 . S
H1312 C1318 0.930 . S
H1313 C1321 0.930 . S
H1314 C1322 0.930 . S
H1315 C1323 0.930 . S
H1316 C1326 0.930 . S
H1317 C1327 0.930 . S
C1318 H1312 0.930 . S
C1318 C1319 1.355 . S
C1318 C1320 1.415 . S
C1319 C1318 1.355 . S
C1319 C1321 1.419 . S
C1320 C1318 1.415 . S
C1320 C1325 1.425 . S
C1320 C1327 1.409 . S
C1321 H1313 0.930 . S
C1321 C1319 1.419 . S
C1321 C1322 1.362 . S
C1322 H1314 0.930 . S
C1322 C1321 1.362 . S
C1322 C1325 1.409 . S
C1323 H1315 0.930 . S
C1323 C1324 1.355 . S
C1323 C1325 1.415 . S
C1324 C1323 1.355 . S
C1324 C1326 1.419 . S
C1325 C1320 1.425 . S
C1325 C1322 1.409 . S
C1325 C1323 1.415 . S
C1326 H1316 0.930 . S
C1326 C1324 1.419 . S
C1326 C1327 1.362 . S
C1327 H1317 0.930 . S
C1327 C1320 1.409 . S
C1327 C1326 1.362 . S
H1328 C1334 0.930 . S
H1329 C1337 0.930 . S
H1330 C1338 0.930 . S
H1331 C1339 0.930 . S
H1332 C1342 0.930 . S
H1333 C1343 0.930 . S
C1334 H1328 0.930 . S
C1334 C1335 1.355 . S
C1334 C1336 1.415 . S
C1335 C1334 1.355 . S
C1335 C1337 1.419 . S
C1336 C1334 1.415 . S
C1336 C1341 1.425 . S
C1336 C1343 1.409 . S
C1337 H1329 0.930 . S
C1337 C1335 1.419 . S
C1337 C1338 1.362 . S
C1338 H1330 0.930 . S
C1338 C1337 1.362 . S
C1338 C1341 1.409 . S
C1339 H1331 0.930 . S
C1339 C1340 1.355 . S
C1339 C1341 1.415 1_556 S
C1340 C1339 1.355 . S
C1340 C1342 1.419 1_556 S
C1341 C1336 1.425 . S
C1341 C1338 1.409 . S
C1341 C1339 1.415 1_554 S
C1342 H1332 0.930 . S
C1342 C1340 1.419 1_554 S
C1342 C1343 1.362 . S
C1343 H1333 0.930 . S
C1343 C1336 1.409 . S
C1343 C1342 1.362 . S
H1344 C1350 0.930 . S
H1345 C1353 0.930 . S
H1346 C1354 0.930 . S
H1347 C1355 0.930 . S
H1348 C1358 0.930 . S
H1349 C1359 0.930 . S
C1350 H1344 0.930 . S
C1350 C1351 1.355 . S
C1350 C1352 1.415 . S
C1351 C1350 1.355 . S
C1351 C1353 1.419 . S
C1352 C1350 1.415 . S
C1352 C1357 1.425 . S
C1352 C1359 1.409 . S
C1353 H1345 0.930 . S
C1353 C1351 1.419 . S
C1353 C1354 1.362 . S
C1354 H1346 0.930 . S
C1354 C1353 1.362 . S
C1354 C1357 1.409 . S
C1355 H1347 0.930 . S
C1355 C1356 1.355 . S
C1355 C1357 1.415 . S
C1356 C1355 1.355 . S
C1356 C1358 1.419 . S
C1357 C1352 1.425 . S
C1357 C1354 1.409 . S
C1357 C1355 1.415 . S
C1358 H1348 0.930 . S
C1358 C1356 1.419 . S
C1358 C1359 1.362 . S
C1359 H1349 0.930 . S
C1359 C1352 1.409 . S
C1359 C1358 1.362 . S
H1360 C1366 0.930 . S
H1361 C1369 0.930 . S
H1362 C1370 0.930 . S
H1363 C1371 0.930 . S
H1364 C1374 0.930 . S
H1365 C1375 0.930 . S
C1366 H1360 0.930 . S
C1366 C1367 1.355 . S
C1366 C1368 1.415 . S
C1367 C1366 1.355 . S
C1367 C1369 1.419 . S
C1368 C1366 1.415 . S
C1368 C1373 1.425 . S
C1368 C1375 1.409 . S
C1369 H1361 0.930 . S
C1369 C1367 1.419 . S
C1369 C1370 1.362 . S
C1370 H1362 0.930 . S
C1370 C1369 1.362 . S
C1370 C1373 1.409 . S
C1371 H1363 0.930 . S
C1371 C1372 1.355 . S
C1371 C1373 1.415 . S
C1372 C1371 1.355 . S
C1372 C1374 1.419 . S
C1373 C1368 1.425 . S
C1373 C1370 1.409 . S
C1373 C1371 1.415 . S
C1374 H1364 0.930 . S
C1374 C1372 1.419 . S
C1374 C1375 1.362 . S
C1375 H1365 0.930 . S
C1375 C1368 1.409 . S
C1375 C1374 1.362 . S
H1376 C1382 0.932 1_455 S
H1377 C1385 0.930 . S
H1378 C1386 0.930 . S
H1379 C1387 0.930 . S
H1380 C1390 0.930 . S
H1381 C1391 0.930 . S
C1382 H1376 0.932 1_655 S
C1382 C1383 1.355 1_655 S
C1382 C1384 1.411 . S
C1383 C1382 1.355 1_455 S
C1383 C1385 1.419 1_455 S
C1384 C1382 1.411 . S
C1384 C1389 1.425 . S
C1384 C1391 1.409 . S
C1385 H1377 0.930 . S
C1385 C1383 1.419 1_655 S
C1385 C1386 1.362 . S
C1386 H1378 0.930 . S
C1386 C1385 1.362 . S
C1386 C1389 1.409 . S
C1387 H1379 0.930 . S
C1387 C1388 1.355 . S
C1387 C1389 1.415 . S
C1388 C1387 1.355 . S
C1388 C1390 1.419 . S
C1389 C1384 1.425 . S
C1389 C1386 1.409 . S
C1389 C1387 1.415 . S
C1390 H1380 0.930 . S
C1390 C1388 1.419 . S
C1390 C1391 1.362 . S
C1391 H1381 0.930 . S
C1391 C1384 1.409 . S
C1391 C1390 1.362 . S
H1392 C1398 0.930 . S
H1393 C1401 0.927 1_655 S
H1394 C1402 0.930 . S
H1395 C1403 0.930 . S
H1396 C1406 0.930 . S
H1397 C1407 0.930 . S
C1398 H1392 0.930 . S
C1398 C1399 1.355 . S
C1398 C1400 1.415 1_655 S
C1399 C1398 1.355 . S
C1399 C1401 1.403 1_655 S
C1400 C1398 1.415 1_455 S
C1400 C1405 1.425 . S
C1400 C1407 1.409 . S
C1401 H1393 0.927 1_455 S
C1401 C1399 1.403 1_455 S
C1401 C1402 1.383 . S
C1402 H1394 0.930 . S
C1402 C1401 1.383 . S
C1402 C1405 1.409 . S
C1403 H1395 0.930 . S
C1403 C1404 1.355 . S
C1403 C1405 1.415 . S
C1404 C1403 1.355 . S
C1404 C1406 1.419 . S
C1405 C1400 1.425 . S
C1405 C1402 1.409 . S
C1405 C1403 1.415 . S
C1406 H1396 0.930 . S
C1406 C1404 1.419 . S
C1406 C1407 1.362 . S
C1407 H1397 0.930 . S
C1407 C1400 1.409 . S
C1407 C1406 1.362 . S
H1408 C1414 0.930 . S
H1409 C1417 0.930 . S
H1410 C1418 0.930 . S
H1411 C1419 0.930 . S
H1412 C1422 0.930 . S
H1413 C1423 0.930 . S
C1414 H1408 0.930 . S
C1414 C1415 1.355 . S
C1414 C1416 1.415 . S
C1415 C1414 1.355 . S
C1415 C1417 1.419 . S
C1416 C1414 1.415 . S
C1416 C1421 1.425 . S
C1416 C1423 1.409 . S
C1417 H1409 0.930 . S
C1417 C1415 1.419 . S
C1417 C1418 1.362 . S
C1418 H1410 0.930 . S
C1418 C1417 1.362 . S
C1418 C1421 1.409 . S
C1419 H1411 0.930 . S
C1419 C1420 1.355 . S
C1419 C1421 1.415 . S
C1420 C1419 1.355 . S
C1420 C1422 1.419 . S
C1421 C1416 1.425 . S
C1421 C1418 1.409 . S
C1421 C1419 1.415 . S
C1422 H1412 0.930 . S
C1422 C1420 1.419 . S
C1422 C1423 1.362 . S
C1423 H1413 0.930 . S
C1423 C1416 1.409 . S
C1423 C1422 1.362 . S
H1424 C1430 0.930 . S
H1425 C1433 0.930 . S
H1426 C1434 0.930 . S
H1427 C1435 0.930 . S
H1428 C1438 0.930 . S
H1429 C1439 0.930 . S
C1430 H1424 0.930 . S
C1430 C1431 1.355 . S
C1430 C1432 1.415 . S
C1431 C1430 1.355 . S
C1431 C1433 1.419 . S
C1432 C1430 1.415 . S
C1432 C1437 1.425 . S
C1432 C1439 1.409 . S
C1433 H1425 0.930 . S
C1433 C1431 1.419 . S
C1433 C1434 1.362 . S
C1434 H1426 0.930 . S
C1434 C1433 1.362 . S
C1434 C1437 1.409 . S
C1435 H1427 0.930 . S
C1435 C1436 1.355 . S
C1435 C1437 1.415 . S
C1436 C1435 1.355 . S
C1436 C1438 1.419 . S
C1437 C1432 1.425 . S
C1437 C1434 1.409 . S
C1437 C1435 1.415 . S
C1438 H1428 0.930 . S
C1438 C1436 1.419 . S
C1438 C1439 1.362 . S
C1439 H1429 0.930 . S
C1439 C1432 1.409 . S
C1439 C1438 1.362 . S
H1440 C1446 0.930 1_655 S
H1441 C1449 0.930 . S
H1442 C1450 0.930 . S
H1443 C1451 0.930 . S
H1444 C1454 0.930 . S
H1445 C1455 0.930 . S
C1446 H1440 0.930 1_455 S
C1446 C1447 1.355 1_455 S
C1446 C1448 1.415 . S
C1447 C1446 1.355 1_655 S
C1447 C1449 1.419 1_655 S
C1448 C1446 1.415 . S
C1448 C1453 1.425 . S
C1448 C1455 1.409 . S
C1449 H1441 0.930 . S
C1449 C1447 1.419 1_455 S
C1449 C1450 1.362 . S
C1450 H1442 0.930 . S
C1450 C1449 1.362 . S
C1450 C1453 1.409 . S
C1451 H1443 0.930 . S
C1451 C1452 1.355 . S
C1451 C1453 1.415 . S
C1452 C1451 1.355 . S
C1452 C1454 1.419 . S
C1453 C1448 1.425 . S
C1453 C1450 1.409 . S
C1453 C1451 1.415 . S
C1454 H1444 0.930 . S
C1454 C1452 1.419 . S
C1454 C1455 1.362 . S
C1455 H1445 0.930 . S
C1455 C1448 1.409 . S
C1455 C1454 1.362 . S
H1456 C1462 0.930 . S
H1457 C1465 0.930 . S
H1458 C1466 0.930 . S
H1459 C1467 0.930 . S
H1460 C1470 0.930 . S
H1461 C1471 0.930 . S
C1462 H1456 0.930 . S
C1462 C1463 1.355 . S
C1462 C1464 1.415 . S
C1463 C1462 1.355 . S
C1463 C1465 1.419 . S
C1464 C1462 1.415 . S
C1464 C1469 1.425 . S
C1464 C1471 1.409 . S
C1465 H1457 0.930 . S
C1465 C1463 1.419 . S
C1465 C1466 1.362 . S
C1466 H1458 0.930 . S
C1466 C1465 1.362 . S
C1466 C1469 1.409 . S
C1467 H1459 0.930 . S
C1467 C1468 1.355 . S
C1467 C1469 1.415 . S
C1468 C1467 1.355 . S
C1468 C1470 1.419 . S
C1469 C1464 1.425 . S
C1469 C1466 1.409 . S
C1469 C1467 1.415 . S
C1470 H1460 0.930 . S
C1470 C1468 1.419 . S
C1470 C1471 1.362 . S
C1471 H1461 0.930 . S
C1471 C1464 1.409 . S
C1471 C1470 1.362 . S
H1472 C1478 0.930 . S
H1473 C1481 0.930 . S
H1474 C1482 0.930 . S
H1475 C1483 0.930 . S
H1476 C1486 0.930 . S
H1477 C1487 0.930 . S
C1478 H1472 0.930 . S
C1478 C1479 1.355 . S
C1478 C1480 1.415 . S
C1479 C1478 1.355 . S
C1479 C1481 1.419 . S
C1480 C1478 1.415 . S
C1480 C1485 1.425 . S
C1480 C1487 1.409 . S
C1481 H1473 0.930 . S
C1481 C1479 1.419 . S
C1481 C1482 1.362 1_655 S
C1482 H1474 0.930 . S
C1482 C1481 1.362 1_455 S
C1482 C1485 1.409 1_455 S
C1483 H1475 0.930 . S
C1483 C1484 1.355 . S
C1483 C1485 1.415 1_455 S
C1484 C1483 1.355 . S
C1484 C1486 1.419 1_455 S
C1485 C1480 1.425 . S
C1485 C1482 1.409 1_655 S
C1485 C1483 1.415 1_655 S
C1486 H1476 0.930 . S
C1486 C1484 1.419 1_655 S
C1486 C1487 1.362 . S
C1487 H1477 0.930 . S
C1487 C1480 1.409 . S
C1487 C1486 1.362 . S
H1488 C1494 0.930 . S
H1489 C1497 0.930 . S
H1490 C1498 0.930 . S
H1491 C1499 0.930 . S
H1492 C1502 0.930 . S
H1493 C1503 0.930 . S
C1494 H1488 0.930 . S
C1494 C1495 1.355 . S
C1494 C1496 1.415 . S
C1495 C1494 1.355 . S
C1495 C1497 1.419 . S
C1496 C1494 1.415 . S
C1496 C1501 1.425 . S
C1496 C1503 1.409 . S
C1497 H1489 0.930 . S
C1497 C1495 1.419 . S
C1497 C1498 1.362 . S
C1498 H1490 0.930 . S
C1498 C1497 1.362 . S
C1498 C1501 1.409 . S
C1499 H1491 0.930 . S
C1499 C1500 1.355 . S
C1499 C1501 1.415 . S
C1500 C1499 1.355 . S
C1500 C1502 1.419 . S
C1501 C1496 1.425 . S
C1501 C1498 1.409 . S
C1501 C1499 1.415 . S
C1502 H1492 0.930 . S
C1502 C1500 1.419 . S
C1502 C1503 1.362 . S
C1503 H1493 0.930 . S
C1503 C1496 1.409 . S
C1503 C1502 1.362 . S
H1504 C1510 0.930 . S
H1505 C1513 0.930 . S
H1506 C1514 0.930 . S
H1507 C1515 0.930 . S
H1508 C1518 0.930 . S
H1509 C1519 0.930 . S
C1510 H1504 0.930 . S
C1510 C1511 1.355 . S
C1510 C1512 1.415 . S
C1511 C1510 1.355 . S
C1511 C1513 1.419 . S
C1512 C1510 1.415 . S
C1512 C1517 1.425 1_455 S
C1512 C1519 1.409 . S
C1513 H1505 0.930 . S
C1513 C1511 1.419 . S
C1513 C1514 1.362 1_455 S
C1514 H1506 0.930 . S
C1514 C1513 1.362 1_655 S
C1514 C1517 1.409 . S
C1515 H1507 0.930 . S
C1515 C1516 1.355 . S
C1515 C1517 1.415 . S
C1516 C1515 1.355 . S
C1516 C1518 1.419 . S
C1517 C1512 1.425 1_655 S
C1517 C1514 1.409 . S
C1517 C1515 1.415 . S
C1518 H1508 0.930 . S
C1518 C1516 1.419 . S
C1518 C1519 1.362 1_655 S
C1519 H1509 0.930 . S
C1519 C1512 1.409 . S
C1519 C1518 1.362 1_455 S
H1520 C1526 0.930 . S
H1521 C1529 0.930 . S
H1522 C1530 0.930 . S
H1523 C1531 0.930 . S
H1524 C1534 0.930 . S
H1525 C1535 0.930 . S
C1526 H1520 0.930 . S
C1526 C1527 1.355 . S
C1526 C1528 1.415 . S
C1527 C1526 1.355 . S
C1527 C1529 1.419 . S
C1528 C1526 1.415 . S
C1528 C1533 1.425 . S
C1528 C1535 1.409 . S
C1529 H1521 0.930 . S
C1529 C1527 1.419 . S
C1529 C1530 1.362 . S
C1530 H1522 0.930 . S
C1530 C1529 1.362 . S
C1530 C1533 1.409 . S
C1531 H1523 0.930 . S
C1531 C1532 1.355 . S
C1531 C1533 1.415 1_554 S
C1532 C1531 1.355 . S
C1532 C1534 1.419 . S
C1533 C1528 1.425 . S
C1533 C1530 1.409 . S
C1533 C1531 1.415 1_556 S
C1534 H1524 0.930 . S
C1534 C1532 1.419 . S
C1534 C1535 1.362 1_554 S
C1535 H1525 0.930 . S
C1535 C1528 1.409 . S
C1535 C1534 1.362 1_556 S
H1536 C1542 0.930 . S
H1537 C1545 0.930 . S
H1538 C1546 0.930 . S
H1539 C1547 0.930 . S
H1540 C1550 0.930 . S
H1541 C1551 0.930 . S
C1542 H1536 0.930 . S
C1542 C1543 1.355 . S
C1542 C1544 1.415 . S
C1543 C1542 1.355 . S
C1543 C1545 1.419 . S
C1544 C1542 1.415 . S
C1544 C1549 1.425 . S
C1544 C1551 1.409 . S
C1545 H1537 0.930 . S
C1545 C1543 1.419 . S
C1545 C1546 1.362 . S
C1546 H1538 0.930 . S
C1546 C1545 1.362 . S
C1546 C1549 1.409 . S
C1547 H1539 0.930 . S
C1547 C1548 1.355 . S
C1547 C1549 1.415 . S
C1548 C1547 1.355 . S
C1548 C1550 1.419 . S
C1549 C1544 1.425 . S
C1549 C1546 1.409 . S
C1549 C1547 1.415 . S
C1550 H1540 0.930 . S
C1550 C1548 1.419 . S
C1550 C1551 1.362 . S
C1551 H1541 0.930 . S
C1551 C1544 1.409 . S
C1551 C1550 1.362 . S
H1552 C1558 0.930 . S
H1553 C1561 0.930 . S
H1554 C1562 0.930 . S
H1555 C1563 0.930 . S
H1556 C1566 0.930 . S
H1557 C1567 0.930 . S
C1558 H1552 0.930 . S
C1558 C1559 1.355 . S
C1558 C1560 1.415 . S
C1559 C1558 1.355 . S
C1559 C1561 1.419 . S
C1560 C1558 1.415 . S
C1560 C1565 1.425 . S
C1560 C1567 1.409 . S
C1561 H1553 0.930 . S
C1561 C1559 1.419 . S
C1561 C1562 1.362 . S
C1562 H1554 0.930 . S
C1562 C1561 1.362 . S
C1562 C1565 1.409 . S
C1563 H1555 0.930 . S
C1563 C1564 1.355 . S
C1563 C1565 1.415 . S
C1564 C1563 1.355 . S
C1564 C1566 1.419 . S
C1565 C1560 1.425 . S
C1565 C1562 1.409 . S
C1565 C1563 1.415 . S
C1566 H1556 0.930 . S
C1566 C1564 1.419 . S
C1566 C1567 1.362 . S
C1567 H1557 0.930 . S
C1567 C1560 1.409 . S
C1567 C1566 1.362 . S
H1568 C1574 0.930 . S
H1569 C1577 0.930 . S
H1570 C1578 0.930 . S
H1571 C1579 0.930 . S
H1572 C1582 0.930 . S
H1573 C1583 0.930 . S
C1574 H1568 0.930 . S
C1574 C1575 1.355 . S
C1574 C1576 1.415 . S
C1575 C1574 1.355 . S
C1575 C1577 1.419 . S
C1576 C1574 1.415 . S
C1576 C1581 1.425 . S
C1576 C1583 1.409 1_655 S
C1577 H1569 0.930 . S
C1577 C1575 1.419 . S
C1577 C1578 1.362 . S
C1578 H1570 0.930 . S
C1578 C1577 1.362 . S
C1578 C1581 1.409 . S
C1579 H1571 0.930 . S
C1579 C1580 1.355 . S
C1579 C1581 1.415 1_455 S
C1580 C1579 1.355 . S
C1580 C1582 1.419 . S
C1581 C1576 1.425 . S
C1581 C1578 1.409 . S
C1581 C1579 1.415 1_655 S
C1582 H1572 0.930 . S
C1582 C1580 1.419 . S
C1582 C1583 1.362 . S
C1583 H1573 0.930 . S
C1583 C1576 1.409 1_455 S
C1583 C1582 1.362 . S
H1584 C1590 0.930 . S
H1585 C1593 0.930 . S
H1586 C1594 0.930 . S
H1587 C1595 0.930 . S
H1588 C1598 0.930 . S
H1589 C1599 0.930 . S
C1590 H1584 0.930 . S
C1590 C1591 1.355 . S
C1590 C1592 1.415 . S
C1591 C1590 1.355 . S
C1591 C1593 1.419 . S
C1592 C1590 1.415 . S
C1592 C1597 1.425 . S
C1592 C1599 1.409 . S
C1593 H1585 0.930 . S
C1593 C1591 1.419 . S
C1593 C1594 1.362 . S
C1594 H1586 0.930 . S
C1594 C1593 1.362 . S
C1594 C1597 1.409 . S
C1595 H1587 0.930 . S
C1595 C1596 1.355 . S
C1595 C1597 1.415 1_556 S
C1596 C1595 1.355 . S
C1596 C1598 1.419 . S
C1597 C1592 1.425 . S
C1597 C1594 1.409 . S
C1597 C1595 1.415 1_554 S
C1598 H1588 0.930 . S
C1598 C1596 1.419 . S
C1598 C1599 1.362 1_556 S
C1599 H1589 0.930 . S
C1599 C1592 1.409 . S
C1599 C1598 1.362 1_554 S
H1600 C1606 0.930 . S
H1601 C1609 0.930 . S
H1602 C1610 0.930 . S
H1603 C1611 0.930 . S
H1604 C1614 0.930 . S
H1605 C1615 0.930 . S
C1606 H1600 0.930 . S
C1606 C1607 1.355 . S
C1606 C1608 1.415 . S
C1607 C1606 1.355 . S
C1607 C1609 1.419 . S
C1608 C1606 1.415 . S
C1608 C1613 1.425 . S
C1608 C1615 1.409 . S
C1609 H1601 0.930 . S
C1609 C1607 1.419 . S
C1609 C1610 1.362 . S
C1610 H1602 0.930 . S
C1610 C1609 1.362 . S
C1610 C1613 1.409 . S
C1611 H1603 0.930 . S
C1611 C1612 1.355 . S
C1611 C1613 1.415 . S
C1612 C1611 1.355 . S
C1612 C1614 1.419 . S
C1613 C1608 1.425 . S
C1613 C1610 1.409 . S
C1613 C1611 1.415 . S
C1614 H1604 0.930 . S
C1614 C1612 1.419 . S
C1614 C1615 1.362 . S
C1615 H1605 0.930 . S
C1615 C1608 1.409 . S
C1615 C1614 1.362 . S
H1616 C1622 0.930 . S
H1617 C1625 0.930 . S
H1618 C1626 0.930 . S
H1619 C1627 0.930 . S
H1620 C1630 0.930 . S
H1621 C1631 0.930 . S
C1622 H1616 0.930 . S
C1622 C1623 1.355 . S
C1622 C1624 1.415 . S
C1623 C1622 1.355 . S
C1623 C1625 1.419 . S
C1624 C1622 1.415 . S
C1624 C1629 1.425 . S
C1624 C1631 1.409 . S
C1625 H1617 0.930 . S
C1625 C1623 1.419 . S
C1625 C1626 1.362 . S
C1626 H1618 0.930 . S
C1626 C1625 1.362 . S
C1626 C1629 1.409 . S
C1627 H1619 0.930 . S
C1627 C1628 1.355 . S
C1627 C1629 1.415 . S
C1628 C1627 1.355 . S
C1628 C1630 1.419 . S
C1629 C1624 1.425 . S
C1629 C1626 1.409 . S
C1629 C1627 1.415 . S
C1630 H1620 0.930 . S
C1630 C1628 1.419 . S
C1630 C1631 1.362 . S
C1631 H1621 0.930 . S
C1631 C1624 1.409 . S
C1631 C1630 1.362 . S
H1632 C1638 0.930 . S
H1633 C1641 0.930 . S
H1634 C1642 0.930 . S
H1635 C1643 0.930 . S
H1636 C1646 0.930 . S
H1637 C1647 0.930 . S
C1638 H1632 0.930 . S
C1638 C1639 1.355 . S
C1638 C1640 1.415 . S
C1639 C1638 1.355 . S
C1639 C1641 1.419 . S
C1640 C1638 1.415 . S
C1640 C1645 1.425 . S
C1640 C1647 1.409 . S
C1641 H1633 0.930 . S
C1641 C1639 1.419 . S
C1641 C1642 1.362 . S
C1642 H1634 0.930 . S
C1642 C1641 1.362 . S
C1642 C1645 1.409 . S
C1643 H1635 0.930 . S
C1643 C1644 1.355 . S
C1643 C1645 1.415 1_565 S
C1644 C1643 1.355 . S
C1644 C1646 1.419 . S
C1645 C1640 1.425 . S
C1645 C1642 1.409 . S
C1645 C1643 1.415 1_545 S
C1646 H1636 0.930 . S
C1646 C1644 1.419 . S
C1646 C1647 1.362 1_565 S
C1647 H1637 0.930 . S
C1647 C1640 1.409 . S
C1647 C1646 1.362 1_545 S
H1648 C1654 0.930 . S
H1649 C1657 0.927 1_565 S
H1650 C1658 0.930 . S
H1651 C1659 0.930 . S
H1652 C1662 0.930 . S
H1653 C1663 0.930 . S
C1654 H1648 0.930 . S
C1654 C1655 1.355 . S
C1654 C1656 1.415 . S
C1655 C1654 1.355 . S
C1655 C1657 1.442 . S
C1656 C1654 1.415 . S
C1656 C1661 1.425 1_545 S
C1656 C1663 1.409 . S
C1657 H1649 0.927 1_545 S
C1657 C1655 1.442 . S
C1657 C1658 1.342 1_545 S
C1658 H1650 0.930 . S
C1658 C1657 1.342 1_565 S
C1658 C1661 1.409 . S
C1659 H1651 0.930 . S
C1659 C1660 1.355 . S
C1659 C1661 1.415 . S
C1660 C1659 1.355 . S
C1660 C1662 1.419 . S
C1661 C1656 1.425 1_565 S
C1661 C1658 1.409 . S
C1661 C1659 1.415 . S
C1662 H1652 0.930 . S
C1662 C1660 1.419 . S
C1662 C1663 1.362 1_565 S
C1663 H1653 0.930 . S
C1663 C1656 1.409 . S
C1663 C1662 1.362 1_545 S
H1664 C1670 0.930 . S
H1665 C1673 0.930 . S
H1666 C1674 0.930 . S
H1667 C1675 0.930 . S
H1668 C1678 0.930 . S
H1669 C1679 0.930 . S
C1670 H1664 0.930 . S
C1670 C1671 1.355 . S
C1670 C1672 1.415 . S
C1671 C1670 1.355 . S
C1671 C1673 1.419 . S
C1672 C1670 1.415 . S
C1672 C1677 1.425 . S
C1672 C1679 1.409 . S
C1673 H1665 0.930 . S
C1673 C1671 1.419 . S
C1673 C1674 1.362 . S
C1674 H1666 0.930 . S
C1674 C1673 1.362 . S
C1674 C1677 1.409 . S
C1675 H1667 0.930 . S
C1675 C1676 1.355 . S
C1675 C1677 1.415 . S
C1676 C1675 1.355 . S
C1676 C1678 1.419 . S
C1677 C1672 1.425 . S
C1677 C1674 1.409 . S
C1677 C1675 1.415 . S
C1678 H1668 0.930 . S
C1678 C1676 1.419 . S
C1678 C1679 1.362 . S
C1679 H1669 0.930 . S
C1679 C1672 1.409 . S
C1679 C1678 1.362 . S
C535 C4 1.164 . S
C540 C338 1.122 . S
C551 C268 1.135 . S
C556 C26 1.163 . S
C567 C294 1.076 . S
C572 C48 1.033 . S
C583 C70 1.055 . S
C588 C316 1.038 . S
C599 C96 1.147 . S
C604 C202 1.159 . S
C615 C118 1.164 . S
C620 C224 1.123 . S
C631 C140 1.157 . S
C636 C246 1.149 . S
C647 C162 1.036 . S
C652 C184 1.092 . S
C663 C356 1.054 . S
C668 C448 1.126 . S
C679 C382 1.095 . S
C684 C510 1.157 . S
C695 C400 1.134 . S
C700 C470 1.061 . S
C711 C422 1.138 . S
C716 C488 1.162 . S
C727 C466 1.157 . S
C732 C9 1.093 . S
C743 C31 1.106 . S
C748 C492 1.189 . S
C759 C53 1.192 . S
C764 C360 1.143 1_556 S
C775 C75 1.150 . S
C780 C514 1.191 . S
C791 C426 1.191 . S
C796 C93 1.152 . S
C807 C444 1.107 . S
C812 C115 1.176 . S
C823 C137 1.096 . S
C828 C378 1.179 1_554 S
C839 C159 1.188 . S
C844 C404 1.118 . S
C855 C181 1.111 . S
C860 C92 1.124 . S
C871 C207 1.159 . S
C876 C114 1.187 . S
C887 C229 1.126 . S
C892 C136 1.196 1_455 S
C903 C251 1.192 . S
C908 C158 1.128 . S
C919 C8 1.104 1_655 S
C924 C273 1.153 . S
C935 C291 1.140 . S
C940 C30 1.106 . S
C951 C313 1.095 . S
C956 C52 1.150 . S
C967 C335 1.189 . S
C972 C74 1.120 . S
C983 C312 1.195 . S
C988 C361 1.133 . S
C999 C228 1.165 1_545 S
C1004 C379 1.093 . S
C1015 C405 1.191 . S
C1020 C250 1.147 . S
C1031 C180 1.120 1_565 S
C1036 C427 1.117 . S
C1047 C445 1.183 . S
C1052 C206 1.112 . S
C1063 C272 1.127 . S
C1068 C467 1.109 . S
C1079 C290 1.125 . S
C1084 C493 1.110 . S
C1095 C334 1.157 . S
C1100 C515 1.187 . S
C1111 C401 1.643 . S
C1116 C6 1.531 . S
C1127 C28 1.523 . S
C1132 C423 1.617 . S
C1143 C449 1.569 . S
C1148 C50 1.608 . S
C1159 C72 1.592 . S
C1164 C383 1.566 . S
C1175 C489 1.616 . S
C1180 C95 1.595 . S
C1191 C357 1.622 . S
C1196 C117 1.590 . S
C1207 C511 1.566 . S
C1212 C139 1.590 . S
C1223 C471 1.613 . S
C1228 C161 1.598 . S
C1239 C203 1.576 . S
C1244 C183 1.563 . S
C1255 C225 1.571 . S
C1260 C204 1.610 . S
C1271 C226 1.599 . S
C1276 C247 1.612 . S
C1287 C248 1.568 . S
C1292 C185 1.636 . S
C1303 C339 1.616 . S
C1308 C270 1.595 . S
C1319 C269 1.621 . S
C1324 C293 1.522 . S
C1335 C315 1.528 . S
C1340 C295 1.609 . S
C1351 C337 1.536 . S
C1356 C317 1.598 . S
C1367 C71 1.586 . S
C1372 C358 1.613 . S
C1383 C119 1.568 . S
C1388 C381 1.582 . S
C1399 C141 1.641 . S
C1404 C402 1.557 . S
C1415 C163 1.587 . S
C1420 C424 1.548 . S
C1431 C97 1.569 . S
C1436 C447 1.608 . S
C1447 C27 1.566 . S
C1452 C469 1.592 . S
C1463 C49 1.612 . S
C1468 C490 1.526 . S
C1479 C512 1.607 . S
C1484 C5 1.601 . S
C1495 C7 1.514 . S
C1500 C205 1.496 . S
C1511 C227 1.527 . S
C1516 C29 1.492 . S
C1527 C51 1.495 . S
C1532 C249 1.516 . S
C1543 C73 1.495 . S
C1548 C182 1.516 . S
C1559 C94 1.526 . S
C1564 C336 1.496 . S
C1575 C271 1.492 . S
C1580 C116 1.521 . S
C1591 C138 1.495 . S
C1596 C292 1.515 . S
C1607 C160 1.495 . S
C1612 C314 1.516 . S
C1623 C359 1.491 . S
C1628 C403 1.522 . S
C1639 C380 1.526 . S
C1644 C491 1.497 . S
C1655 C513 1.496 . S
C1660 C425 1.526 . S
C1671 C446 1.493 . S
C1676 C468 1.527 . S
