# Generated by pormake.
# Topology unv, (4)-cn, num edge types: 1
# Building blocks:
#     Node 0, Type 0, BuildingBlock: KUFVIS_clean_sbu_0, # of connection points: 4
#     Node 1, Type 0, BuildingBlock: KUFVIS_clean_sbu_0, # of connection points: 4
#     Node 2, Type 0, BuildingBlock: KUFVIS_clean_sbu_0, # of connection points: 4
#     Node 3, Type 0, BuildingBlock: KUFVIS_clean_sbu_0, # of connection points: 4
#     Node 4, Type 0, BuildingBlock: KUFVIS_clean_sbu_0, # of connection points: 4
#     Node 5, Type 0, BuildingBlock: KUFVIS_clean_sbu_0, # of connection points: 4
#     Node 6, Type 0, BuildingBlock: KUFVIS_clean_sbu_0, # of connection points: 4
#     Node 7, Type 0, BuildingBlock: KUFVIS_clean_sbu_0, # of connection points: 4
#     Node 8, Type 0, BuildingBlock: KUFVIS_clean_sbu_0, # of connection points: 4
#     Node 9, Type 0, BuildingBlock: KUFVIS_clean_sbu_0, # of connection points: 4
#     Node 10, Type 0, BuildingBlock: KUFVIS_clean_sbu_0, # of connection points: 4
#     Node 11, Type 0, BuildingBlock: KUFVIS_clean_sbu_0, # of connection points: 4
#     Node 12, Type 0, BuildingBlock: KUFVIS_clean_sbu_0, # of connection points: 4
#     Node 13, Type 0, BuildingBlock: KUFVIS_clean_sbu_0, # of connection points: 4
#     Node 14, Type 0, BuildingBlock: KUFVIS_clean_sbu_0, # of connection points: 4
#     Node 15, Type 0, BuildingBlock: KUFVIS_clean_sbu_0, # of connection points: 4
#     Node 16, Type 0, BuildingBlock: KUFVIS_clean_sbu_0, # of connection points: 4
#     Node 17, Type 0, BuildingBlock: KUFVIS_clean_sbu_0, # of connection points: 4
#     Node 18, Type 0, BuildingBlock: KUFVIS_clean_sbu_0, # of connection points: 4
#     Node 19, Type 0, BuildingBlock: KUFVIS_clean_sbu_0, # of connection points: 4
#     Node 20, Type 0, BuildingBlock: KUFVIS_clean_sbu_0, # of connection points: 4
#     Node 21, Type 0, BuildingBlock: KUFVIS_clean_sbu_0, # of connection points: 4
#     Node 22, Type 0, BuildingBlock: KUFVIS_clean_sbu_0, # of connection points: 4
#     Node 23, Type 0, BuildingBlock: KUFVIS_clean_sbu_0, # of connection points: 4
#     Edge 24, Type (0, 0), BuildingBlock: KIFKEQ_clean_linker_1, # of connection points: 2
#     Edge 25, Type (0, 0), BuildingBlock: KIFKEQ_clean_linker_1, # of connection points: 2
#     Edge 26, Type (0, 0), BuildingBlock: KIFKEQ_clean_linker_1, # of connection points: 2
#     Edge 27, Type (0, 0), BuildingBlock: KIFKEQ_clean_linker_1, # of connection points: 2
#     Edge 28, Type (0, 0), BuildingBlock: KIFKEQ_clean_linker_1, # of connection points: 2
#     Edge 29, Type (0, 0), BuildingBlock: KIFKEQ_clean_linker_1, # of connection points: 2
#     Edge 30, Type (0, 0), BuildingBlock: KIFKEQ_clean_linker_1, # of connection points: 2
#     Edge 31, Type (0, 0), BuildingBlock: KIFKEQ_clean_linker_1, # of connection points: 2
#     Edge 32, Type (0, 0), BuildingBlock: KIFKEQ_clean_linker_1, # of connection points: 2
#     Edge 33, Type (0, 0), BuildingBlock: KIFKEQ_clean_linker_1, # of connection points: 2
#     Edge 34, Type (0, 0), BuildingBlock: KIFKEQ_clean_linker_1, # of connection points: 2
#     Edge 35, Type (0, 0), BuildingBlock: KIFKEQ_clean_linker_1, # of connection points: 2
#     Edge 36, Type (0, 0), BuildingBlock: KIFKEQ_clean_linker_1, # of connection points: 2
#     Edge 37, Type (0, 0), BuildingBlock: KIFKEQ_clean_linker_1, # of connection points: 2
#     Edge 38, Type (0, 0), BuildingBlock: KIFKEQ_clean_linker_1, # of connection points: 2
#     Edge 39, Type (0, 0), BuildingBlock: KIFKEQ_clean_linker_1, # of connection points: 2
#     Edge 40, Type (0, 0), BuildingBlock: KIFKEQ_clean_linker_1, # of connection points: 2
#     Edge 41, Type (0, 0), BuildingBlock: KIFKEQ_clean_linker_1, # of connection points: 2
#     Edge 42, Type (0, 0), BuildingBlock: KIFKEQ_clean_linker_1, # of connection points: 2
#     Edge 43, Type (0, 0), BuildingBlock: KIFKEQ_clean_linker_1, # of connection points: 2
#     Edge 44, Type (0, 0), BuildingBlock: KIFKEQ_clean_linker_1, # of connection points: 2
#     Edge 45, Type (0, 0), BuildingBlock: KIFKEQ_clean_linker_1, # of connection points: 2
#     Edge 46, Type (0, 0), BuildingBlock: KIFKEQ_clean_linker_1, # of connection points: 2
#     Edge 47, Type (0, 0), BuildingBlock: KIFKEQ_clean_linker_1, # of connection points: 2
#     Edge 48, Type (0, 0), BuildingBlock: KIFKEQ_clean_linker_1, # of connection points: 2
#     Edge 49, Type (0, 0), BuildingBlock: KIFKEQ_clean_linker_1, # of connection points: 2
#     Edge 50, Type (0, 0), BuildingBlock: KIFKEQ_clean_linker_1, # of connection points: 2
#     Edge 51, Type (0, 0), BuildingBlock: KIFKEQ_clean_linker_1, # of connection points: 2
#     Edge 52, Type (0, 0), BuildingBlock: KIFKEQ_clean_linker_1, # of connection points: 2
#     Edge 53, Type (0, 0), BuildingBlock: KIFKEQ_clean_linker_1, # of connection points: 2
#     Edge 54, Type (0, 0), BuildingBlock: KIFKEQ_clean_linker_1, # of connection points: 2
#     Edge 55, Type (0, 0), BuildingBlock: KIFKEQ_clean_linker_1, # of connection points: 2
#     Edge 56, Type (0, 0), BuildingBlock: KIFKEQ_clean_linker_1, # of connection points: 2
#     Edge 57, Type (0, 0), BuildingBlock: KIFKEQ_clean_linker_1, # of connection points: 2
#     Edge 58, Type (0, 0), BuildingBlock: KIFKEQ_clean_linker_1, # of connection points: 2
#     Edge 59, Type (0, 0), BuildingBlock: KIFKEQ_clean_linker_1, # of connection points: 2
#     Edge 60, Type (0, 0), BuildingBlock: KIFKEQ_clean_linker_1, # of connection points: 2
#     Edge 61, Type (0, 0), BuildingBlock: KIFKEQ_clean_linker_1, # of connection points: 2
#     Edge 62, Type (0, 0), BuildingBlock: KIFKEQ_clean_linker_1, # of connection points: 2
#     Edge 63, Type (0, 0), BuildingBlock: KIFKEQ_clean_linker_1, # of connection points: 2
#     Edge 64, Type (0, 0), BuildingBlock: KIFKEQ_clean_linker_1, # of connection points: 2
#     Edge 65, Type (0, 0), BuildingBlock: KIFKEQ_clean_linker_1, # of connection points: 2
#     Edge 66, Type (0, 0), BuildingBlock: KIFKEQ_clean_linker_1, # of connection points: 2
#     Edge 67, Type (0, 0), BuildingBlock: KIFKEQ_clean_linker_1, # of connection points: 2
#     Edge 68, Type (0, 0), BuildingBlock: KIFKEQ_clean_linker_1, # of connection points: 2
#     Edge 69, Type (0, 0), BuildingBlock: KIFKEQ_clean_linker_1, # of connection points: 2
#     Edge 70, Type (0, 0), BuildingBlock: KIFKEQ_clean_linker_1, # of connection points: 2
#     Edge 71, Type (0, 0), BuildingBlock: KIFKEQ_clean_linker_1, # of connection points: 2
# Relax obj value: 0.329
# Max RMSD: 0.271
# Mean RMSD: 0.240
data_MOF--net-unv--node1-KUFVIS_clean_sbu_0--edge1-KIFKEQ_clean_linker_1
_symmetry_space_group_name_H-M    P1
_symmetry_Int_Tables_number       1
_symmetry_cell_setting            triclinic
loop_
_symmetry_equiv_pos_as_xyz
'x, y, z'
_cell_length_a     49.009835
_cell_length_b     49.016474
_cell_length_c     49.023691
_cell_angle_alpha  89.983164
_cell_angle_beta   89.984752
_cell_angle_gamma 89.972859
loop_
_atom_site_label
_atom_site_type_symbol
_atom_site_fract_x
_atom_site_fract_y
_atom_site_fract_z
_atom_type_partial_charge
Mn0 Mn 0.01566 0.09569 0.37658 0.0
Mn1 Mn 0.07724 0.11252 0.35168 0.0
C2 C 0.05011 0.10911 0.40594 0.0
C3 C 0.98706 0.06147 0.39269 0.0
C4 C 0.02706 0.14884 0.34675 0.0
O5 O 0.01559 0.07913 0.33867 0.0
O6 O 0.05903 0.08703 0.32568 0.0
C7 C 0.10499 0.05886 0.35386 0.0
N8 N 0.1036 0.08551 0.36166 0.0
C9 C 0.14336 0.08059 0.39004 0.0
C10 C 0.14529 0.05316 0.38219 0.0
C11 C 0.12602 0.04226 0.364 0.0
C12 C 0.12218 0.09627 0.37897 0.0
H13 H 0.09006 0.05027 0.34014 0.0
C14 C 0.03558 0.07583 0.3223 0.0
O15 O 0.97693 0.08395 0.38286 0.0
O16 O 0.01335 0.05905 0.39276 0.0
N17 N 0.09661 0.1362 0.37599 0.0
C18 C 0.09073 0.16242 0.38314 0.0
C19 C 0.10748 0.17598 0.40199 0.0
C20 C 0.13003 0.16245 0.41337 0.0
C21 C 0.13566 0.13546 0.40575 0.0
C22 C 0.11844 0.12308 0.38662 0.0
H23 H 0.07328 0.17287 0.37471 0.0
O24 O 0.02476 0.11101 0.41342 0.0
O25 O 0.05398 0.10018 0.38136 0.0
O26 O 0.011 0.13393 0.3608 0.0
O27 O 0.05163 0.14203 0.34111 0.0
C28 C 0.15732 0.12017 0.41688 0.0
C29 C 0.16118 0.09277 0.40901 0.0
H30 H 0.16128 0.04019 0.39023 0.0
H31 H 0.12726 0.02106 0.35798 0.0
H32 H 0.10292 0.19677 0.40787 0.0
H33 H 0.14272 0.17289 0.42813 0.0
H34 H 0.17091 0.12919 0.43178 0.0
H35 H 0.17767 0.08111 0.41801 0.0
Mn36 Mn 0.99276 0.39999 0.36637 0.0
Mn37 Mn 0.92756 0.38259 0.35429 0.0
C38 C 0.96435 0.38868 0.40239 0.0
C39 C 0.02428 0.43453 0.37341 0.0
C40 C 0.97607 0.34555 0.34248 0.0
O41 O 0.98592 0.41333 0.32764 0.0
O42 O 0.94032 0.40769 0.32494 0.0
C43 C 0.9006 0.43627 0.36125 0.0
N44 N 0.90298 0.4095 0.36831 0.0
C45 C 0.86718 0.41384 0.40167 0.0
C46 C 0.86394 0.44128 0.39427 0.0
C47 C 0.88083 0.45257 0.37406 0.0
C48 C 0.88701 0.39849 0.38793 0.0
H49 H 0.91395 0.44524 0.34626 0.0
C50 C 0.96294 0.41749 0.31606 0.0
O51 O 0.03207 0.41077 0.36461 0.0
O52 O 0.99852 0.43808 0.37812 0.0
N53 N 0.91312 0.35923 0.38215 0.0
C54 C 0.9207 0.33333 0.38892 0.0
C55 C 0.90701 0.31968 0.41006 0.0
C56 C 0.8857 0.33275 0.42405 0.0
C57 C 0.87826 0.35939 0.41677 0.0
C58 C 0.89245 0.3719 0.39535 0.0
H59 H 0.93715 0.32318 0.37843 0.0
O60 O 0.99064 0.38784 0.40547 0.0
O61 O 0.95589 0.39625 0.37853 0.0
O62 O 0.99421 0.36056 0.35349 0.0
O63 O 0.95113 0.35287 0.33988 0.0
C64 C 0.85775 0.37424 0.43039 0.0
C65 C 0.85218 0.40143 0.42281 0.0
H66 H 0.84895 0.45401 0.40436 0.0
H67 H 0.87878 0.47386 0.36857 0.0
H68 H 0.91297 0.29917 0.41565 0.0
H69 H 0.87538 0.32224 0.44052 0.0
H70 H 0.84648 0.36511 0.44706 0.0
H71 H 0.83673 0.4128 0.43378 0.0
Mn72 Mn 0.01033 0.90248 0.13396 0.0
Mn73 Mn 0.07053 0.88106 0.15893 0.0
C74 C 0.04404 0.8877 0.10428 0.0
C75 C 0.9839 0.93889 0.11849 0.0
C76 C 0.01811 0.84791 0.16232 0.0
O77 O 0.01096 0.91802 0.17228 0.0
O78 O 0.0537 0.90707 0.18536 0.0
C79 C 0.10248 0.93234 0.1594 0.0
N80 N 0.09915 0.9062 0.15054 0.0
C81 C 0.14064 0.90839 0.12435 0.0
C82 C 0.14453 0.93528 0.13327 0.0
C83 C 0.12537 0.94729 0.15087 0.0
C84 C 0.11763 0.89433 0.13383 0.0
H85 H 0.08772 0.94177 0.17276 0.0
C86 C 0.03096 0.91965 0.18886 0.0
O87 O 0.97243 0.91679 0.12767 0.0
O88 O 0.01028 0.9397 0.11872 0.0
N89 N 0.08863 0.85673 0.13427 0.0
C90 C 0.08082 0.83141 0.12589 0.0
C91 C 0.09718 0.81705 0.10727 0.0
C92 C 0.12135 0.82887 0.09742 0.0
C93 C 0.12894 0.85497 0.10628 0.0
C94 C 0.11194 0.86823 0.12504 0.0
H95 H 0.06217 0.82228 0.13319 0.0
O96 O 0.01857 0.88751 0.09696 0.0
O97 O 0.0486 0.89583 0.1291 0.0
O98 O 0.00305 0.86408 0.14856 0.0
O99 O 0.04292 0.85319 0.16829 0.0
C100 C 0.15243 0.86857 0.09681 0.0
C101 C 0.15829 0.89524 0.10587 0.0
H102 H 0.162 0.947 0.12649 0.0
H103 H 0.12817 0.96809 0.15774 0.0
H104 H 0.09111 0.79696 0.10042 0.0
H105 H 0.1338 0.81781 0.08289 0.0
H106 H 0.16595 0.85882 0.0823 0.0
H107 H 0.17622 0.90561 0.09816 0.0
Mn108 Mn 0.9916 0.59675 0.1372 0.0
Mn109 Mn 0.92503 0.61038 0.14684 0.0
C110 C 0.96389 0.60624 0.10008 0.0
C111 C 0.02557 0.56419 0.13208 0.0
C112 C 0.97074 0.65031 0.15999 0.0
O113 O 0.98414 0.58329 0.17579 0.0
O114 O 0.93824 0.5863 0.17679 0.0
C115 C 0.90168 0.55512 0.13943 0.0
N116 N 0.90257 0.58197 0.13232 0.0
C117 C 0.86734 0.57559 0.09874 0.0
C118 C 0.86561 0.54802 0.10617 0.0
C119 C 0.88298 0.53772 0.12649 0.0
C120 C 0.88623 0.59201 0.11251 0.0
H121 H 0.91534 0.54697 0.15461 0.0
C122 C 0.96103 0.57785 0.18655 0.0
O123 O 0.03139 0.58852 0.1408 0.0
O124 O 0.00036 0.55896 0.12611 0.0
N125 N 0.91001 0.63268 0.11842 0.0
C126 C 0.91618 0.65894 0.11166 0.0
C127 C 0.90193 0.67177 0.09038 0.0
C128 C 0.88146 0.65754 0.0763 0.0
C129 C 0.87546 0.63054 0.08358 0.0
C130 C 0.89023 0.61885 0.10507 0.0
H131 H 0.93193 0.67001 0.12227 0.0
O132 O 0.99019 0.60847 0.0979 0.0
O133 O 0.95499 0.59826 0.12365 0.0
O134 O 0.99012 0.63629 0.14978 0.0
O135 O 0.94619 0.64158 0.16174 0.0
C136 C 0.8558 0.61461 0.06997 0.0
C137 C 0.85168 0.58718 0.07762 0.0
H138 H 0.85139 0.53448 0.09605 0.0
H139 H 0.88209 0.51636 0.13203 0.0
H140 H 0.90677 0.69257 0.08479 0.0
H141 H 0.87066 0.66744 0.05975 0.0
H142 H 0.84407 0.62311 0.05329 0.0
H143 H 0.83684 0.57499 0.06668 0.0
Mn144 Mn 0.36685 0.00294 0.09492 0.0
Mn145 Mn 0.35592 0.0691 0.1089 0.0
C146 C 0.40354 0.03193 0.10252 0.0
C147 C 0.37198 0.96928 0.06211 0.0
C148 C 0.34481 0.02294 0.14898 0.0
O149 O 0.32752 0.0094 0.08292 0.0
O150 O 0.32571 0.05534 0.08556 0.0
C151 C 0.36169 0.09275 0.05355 0.0
N152 N 0.36953 0.0918 0.08019 0.0
C153 C 0.4034 0.12657 0.07275 0.0
C154 C 0.39527 0.1283 0.04539 0.0
C155 C 0.37442 0.11121 0.03573 0.0
C156 C 0.38984 0.1079 0.08962 0.0
H157 H 0.34611 0.07927 0.04587 0.0
C158 C 0.31614 0.03228 0.07764 0.0
O159 O 0.36432 0.96307 0.0867 0.0
O160 O 0.37677 0.99472 0.05676 0.0
N161 N 0.38467 0.08438 0.13055 0.0
C162 C 0.39184 0.07846 0.15675 0.0
C163 C 0.41341 0.09273 0.16906 0.0
C164 C 0.42738 0.11295 0.15434 0.0
C165 C 0.41966 0.11871 0.12742 0.0
C166 C 0.39785 0.10398 0.11628 0.0
H167 H 0.38128 0.06294 0.16821 0.0
O168 O 0.40668 0.00573 0.10489 0.0
O169 O 0.37924 0.03979 0.09595 0.0
O170 O 0.35567 0.00399 0.13486 0.0
O171 O 0.34202 0.04742 0.14028 0.0
C172 C 0.43315 0.13808 0.11101 0.0
C173 C 0.425 0.14203 0.08371 0.0
H174 H 0.40524 0.14232 0.03151 0.0
H175 H 0.36832 0.11211 0.01453 0.0
H176 H 0.41931 0.08809 0.18982 0.0
H177 H 0.44416 0.12374 0.16383 0.0
H178 H 0.45011 0.14973 0.11905 0.0
H179 H 0.43582 0.15665 0.07117 0.0
Mn180 Mn 0.62219 0.50556 0.09247 0.0
Mn181 Mn 0.64203 0.44074 0.10299 0.0
C182 C 0.58991 0.47198 0.10007 0.0
C183 C 0.61157 0.53933 0.06123 0.0
C184 C 0.64803 0.48593 0.14511 0.0
O185 O 0.66128 0.50484 0.07866 0.0
O186 O 0.67014 0.45972 0.0807 0.0
C187 C 0.64021 0.41938 0.04651 0.0
N188 N 0.63158 0.41821 0.0729 0.0
C189 C 0.60187 0.38043 0.06291 0.0
C190 C 0.61057 0.38115 0.03567 0.0
C191 C 0.62981 0.40072 0.02744 0.0
C192 C 0.61315 0.39938 0.08107 0.0
H193 H 0.65483 0.43452 0.04 0.0
C194 C 0.676 0.48408 0.07306 0.0
O195 O 0.61934 0.54575 0.08574 0.0
O196 O 0.60967 0.5137 0.05518 0.0
N197 N 0.61562 0.42051 0.12353 0.0
C198 C 0.60785 0.4238 0.15001 0.0
C199 C 0.58797 0.40645 0.16116 0.0
C200 C 0.57626 0.38592 0.14498 0.0
C201 C 0.58458 0.38289 0.11779 0.0
C202 C 0.60469 0.4006 0.10787 0.0
H203 H 0.61663 0.43963 0.16253 0.0
O204 O 0.58369 0.49743 0.10394 0.0
O205 O 0.61467 0.46738 0.09206 0.0
O206 O 0.63521 0.50432 0.1319 0.0
O207 O 0.65297 0.46218 0.13547 0.0
C208 C 0.57325 0.36339 0.09998 0.0
C209 C 0.58192 0.36214 0.07257 0.0
H210 H 0.60238 0.36696 0.02084 0.0
H211 H 0.63649 0.40151 0.00642 0.0
H212 H 0.58158 0.409 0.18214 0.0
H213 H 0.56072 0.37277 0.15358 0.0
H214 H 0.55759 0.3495 0.10706 0.0
H215 H 0.57277 0.34732 0.05898 0.0
Mn216 Mn 0.3704 0.98798 0.4 0.0
Mn217 Mn 0.35257 0.92516 0.37953 0.0
C218 C 0.40352 0.95804 0.38445 0.0
C219 C 0.38267 0.01576 0.43644 0.0
C220 C 0.34171 0.97676 0.34651 0.0
O221 O 0.33234 0.98286 0.4157 0.0
O222 O 0.32568 0.93809 0.4073 0.0
C223 C 0.36108 0.8943 0.43082 0.0
N224 N 0.36671 0.89809 0.40387 0.0
C225 C 0.39886 0.86093 0.40412 0.0
C226 C 0.39291 0.85628 0.4317 0.0
C227 C 0.374 0.87311 0.44512 0.0
C228 C 0.385 0.8821 0.39078 0.0
H229 H 0.34722 0.90764 0.44145 0.0
C230 C 0.31915 0.96064 0.41897 0.0
O231 O 0.37222 0.02627 0.41442 0.0
O232 O 0.38562 0.98954 0.43706 0.0
N233 N 0.37795 0.91068 0.35351 0.0
C234 C 0.38344 0.91949 0.32771 0.0
C235 C 0.40315 0.90587 0.31202 0.0
C236 C 0.4171 0.88338 0.323 0.0
C237 C 0.41116 0.87468 0.34958 0.0
C238 C 0.39106 0.88885 0.36416 0.0
H239 H 0.373 0.93687 0.31915 0.0
O240 O 0.40829 0.98408 0.38479 0.0
O241 O 0.37955 0.95087 0.39294 0.0
O242 O 0.35479 0.99321 0.36184 0.0
O243 O 0.33794 0.95159 0.35246 0.0
C244 C 0.42492 0.85294 0.36241 0.0
C245 C 0.41876 0.84606 0.38966 0.0
H246 H 0.40315 0.84022 0.44291 0.0
H247 H 0.36965 0.86997 0.46654 0.0
H248 H 0.40771 0.91279 0.29155 0.0
H249 H 0.43251 0.87311 0.31093 0.0
H250 H 0.4406 0.84168 0.35166 0.0
H251 H 0.42987 0.82966 0.39947 0.0
Mn252 Mn 0.62944 0.49549 0.39888 0.0
Mn253 Mn 0.64754 0.56089 0.38855 0.0
C254 C 0.59629 0.52814 0.39118 0.0
C255 C 0.61968 0.4612 0.42979 0.0
C256 C 0.65418 0.51618 0.34603 0.0
O257 O 0.66845 0.4971 0.4127 0.0
O258 O 0.67638 0.54234 0.41038 0.0
C259 C 0.64584 0.58154 0.44531 0.0
N260 N 0.63696 0.58287 0.41901 0.0
C261 C 0.60668 0.62003 0.42972 0.0
C262 C 0.61565 0.61916 0.45686 0.0
C263 C 0.63529 0.59982 0.46468 0.0
C264 C 0.61812 0.60148 0.41124 0.0
H265 H 0.66077 0.56657 0.45151 0.0
C266 C 0.68277 0.51815 0.41812 0.0
O267 O 0.62769 0.45521 0.40525 0.0
O268 O 0.61709 0.48672 0.43608 0.0
N269 N 0.62051 0.58084 0.36853 0.0
C270 C 0.61253 0.5777 0.34209 0.0
C271 C 0.59224 0.59484 0.33134 0.0
C272 C 0.58034 0.61499 0.34786 0.0
C273 C 0.58888 0.61787 0.375 0.0
C274 C 0.60941 0.60041 0.38451 0.0
H275 H 0.62143 0.56214 0.32931 0.0
O276 O 0.59083 0.50252 0.38731 0.0
O277 O 0.62082 0.53353 0.39948 0.0
O278 O 0.64236 0.4973 0.35947 0.0
O279 O 0.6585 0.54005 0.35565 0.0
C280 C 0.5774 0.63699 0.39313 0.0
C281 C 0.58631 0.63809 0.42046 0.0
H282 H 0.60736 0.63304 0.47193 0.0
H283 H 0.64219 0.5989 0.48563 0.0
H284 H 0.58567 0.59241 0.31041 0.0
H285 H 0.56448 0.62797 0.33958 0.0
H286 H 0.56141 0.65068 0.38638 0.0
H287 H 0.57703 0.65259 0.43432 0.0
Mn288 Mn 0.09653 0.37886 0.01055 0.0
Mn289 Mn 0.11243 0.35247 0.07175 0.0
C290 C 0.10989 0.40735 0.04576 0.0
C291 C 0.06286 0.39603 0.98195 0.0
C292 C 0.14925 0.34816 0.02189 0.0
O293 O 0.0794 0.34121 0.00954 0.0
O294 O 0.08687 0.32713 0.05271 0.0
C295 C 0.05849 0.35455 0.09895 0.0
N296 N 0.08521 0.36216 0.098 0.0
C297 C 0.08009 0.38978 0.13827 0.0
C298 C 0.05257 0.38213 0.13973 0.0
C299 C 0.04174 0.36442 0.12 0.0
C300 C 0.09591 0.37899 0.11704 0.0
H301 H 0.04994 0.34119 0.08368 0.0
C302 C 0.07576 0.32443 0.02912 0.0
O303 O 0.08529 0.38606 0.97185 0.0
O304 O 0.06016 0.39563 0.0082 0.0
N305 N 0.13612 0.37615 0.09189 0.0
C306 C 0.16247 0.38317 0.08646 0.0
C307 C 0.176 0.40156 0.10373 0.0
C308 C 0.16231 0.41262 0.12634 0.0
C309 C 0.13519 0.40514 0.1315 0.0
C310 C 0.12284 0.38647 0.11376 0.0
H311 H 0.17304 0.37499 0.06897 0.0
O312 O 0.11225 0.41529 0.02059 0.0
O313 O 0.10065 0.38278 0.049 0.0
O314 O 0.13461 0.36263 0.00595 0.0
O315 O 0.14214 0.34215 0.04628 0.0
C316 C 0.11975 0.41598 0.1532 0.0
C317 C 0.09223 0.40828 0.15659 0.0
H318 H 0.0395 0.38996 0.15574 0.0
H319 H 0.02048 0.35855 0.12089 0.0
H320 H 0.19689 0.40734 0.09953 0.0
H321 H 0.17273 0.42703 0.13944 0.0
H322 H 0.12875 0.43052 0.16719 0.0
H323 H 0.08047 0.41705 0.17312 0.0
Mn324 Mn 0.09605 0.62486 0.50172 0.0
Mn325 Mn 0.10558 0.64395 0.43658 0.0
C326 C 0.10331 0.59215 0.46845 0.0
C327 C 0.06491 0.6148 0.5358 0.0
C328 C 0.14838 0.65064 0.48113 0.0
O329 O 0.08226 0.66391 0.50074 0.0
O330 O 0.08323 0.67213 0.4555 0.0
C331 C 0.04882 0.6414 0.41602 0.0
N332 N 0.07528 0.63298 0.41459 0.0
C333 C 0.06499 0.60258 0.37744 0.0
C334 C 0.03768 0.61106 0.37842 0.0
C335 C 0.02957 0.63054 0.39781 0.0
C336 C 0.08333 0.61432 0.39594 0.0
H337 H 0.04239 0.65618 0.43103 0.0
C338 C 0.07599 0.67823 0.47991 0.0
O339 O 0.08951 0.62251 0.54201 0.0
O340 O 0.05879 0.61252 0.51023 0.0
N341 N 0.12607 0.61744 0.41642 0.0
C342 C 0.15267 0.6099 0.41948 0.0
C343 C 0.16373 0.58984 0.40228 0.0
C344 C 0.14736 0.57769 0.38217 0.0
C345 C 0.12005 0.58576 0.37939 0.0
C346 C 0.11022 0.60608 0.39691 0.0
H347 H 0.16534 0.619 0.43499 0.0
O348 O 0.10743 0.58625 0.49394 0.0
O349 O 0.09523 0.61685 0.46366 0.0
O350 O 0.13552 0.6379 0.49985 0.0
O351 O 0.13829 0.65537 0.45751 0.0
C352 C 0.10205 0.57398 0.36034 0.0
C353 C 0.07455 0.5824 0.35935 0.0
H354 H 0.02271 0.60252 0.3646 0.0
H355 H 0.00849 0.63705 0.39881 0.0
H356 H 0.18479 0.58363 0.40463 0.0
H357 H 0.15589 0.562 0.36915 0.0
H358 H 0.10905 0.55813 0.34662 0.0
H359 H 0.06081 0.57289 0.34489 0.0
Mn360 Mn 0.90443 0.86623 0.509 0.0
Mn361 Mn 0.89128 0.84847 0.4441 0.0
C362 C 0.89761 0.89973 0.47643 0.0
C363 C 0.93708 0.87514 0.54203 0.0
C364 C 0.85006 0.84348 0.4903 0.0
O365 O 0.91656 0.82665 0.50706 0.0
O366 O 0.91268 0.81884 0.46187 0.0
C367 C 0.94689 0.84715 0.42047 0.0
N368 N 0.9211 0.85756 0.42065 0.0
C369 C 0.93149 0.88742 0.38308 0.0
C370 C 0.95811 0.87694 0.38245 0.0
C371 C 0.96582 0.85671 0.40123 0.0
C372 C 0.91337 0.87682 0.40247 0.0
H373 H 0.95303 0.83176 0.435 0.0
C374 C 0.92091 0.81218 0.48584 0.0
O375 O 0.91248 0.86815 0.54905 0.0
O376 O 0.94246 0.87703 0.51626 0.0
N377 N 0.87163 0.87647 0.42517 0.0
C378 C 0.84594 0.88601 0.4299 0.0
C379 C 0.83555 0.9072 0.41366 0.0
C380 C 0.85166 0.91841 0.39279 0.0
C381 C 0.87805 0.9083 0.38833 0.0
C382 C 0.88724 0.88697 0.40498 0.0
H383 H 0.83352 0.87768 0.44605 0.0
O384 O 0.89434 0.90522 0.50213 0.0
O385 O 0.90439 0.87474 0.47091 0.0
O386 O 0.86433 0.85504 0.50872 0.0
O387 O 0.85892 0.83878 0.46623 0.0
C388 C 0.89581 0.91899 0.36841 0.0
C389 C 0.92249 0.90852 0.36575 0.0
H390 H 0.97288 0.8845 0.36785 0.0
H391 H 0.98638 0.84863 0.40097 0.0
H392 H 0.81521 0.91498 0.41732 0.0
H393 H 0.84366 0.93493 0.38048 0.0
H394 H 0.88928 0.93551 0.35527 0.0
H395 H 0.93608 0.91717 0.35062 0.0
Mn396 Mn 0.40165 0.62967 0.49552 0.0
Mn397 Mn 0.38638 0.64425 0.5605 0.0
C398 C 0.39128 0.59457 0.52553 0.0
C399 C 0.43573 0.62207 0.46367 0.0
C400 C 0.34891 0.65587 0.51228 0.0
O401 O 0.41469 0.66881 0.5008 0.0
O402 O 0.41383 0.67123 0.54685 0.0
C403 C 0.43843 0.63555 0.59012 0.0
N404 N 0.41183 0.62882 0.58589 0.0
C405 C 0.4136 0.59505 0.62157 0.0
C406 C 0.44111 0.60145 0.62598 0.0
C407 C 0.45355 0.62185 0.61022 0.0
C408 C 0.39952 0.60952 0.60131 0.0
H409 H 0.44796 0.65132 0.57837 0.0
C410 C 0.42171 0.67982 0.52333 0.0
O411 O 0.41171 0.63027 0.45598 0.0
O412 O 0.43973 0.61813 0.48948 0.0
N413 N 0.36095 0.61813 0.57499 0.0
C414 C 0.33467 0.61318 0.56735 0.0
C415 C 0.31958 0.59286 0.58075 0.0
C416 C 0.3316 0.57778 0.6019 0.0
C417 C 0.35862 0.58317 0.60947 0.0
C418 C 0.37263 0.6038 0.59548 0.0
H419 H 0.32517 0.6245 0.55111 0.0
O420 O 0.38998 0.59046 0.4994 0.0
O421 O 0.39874 0.61881 0.53275 0.0
O422 O 0.36217 0.64218 0.49462 0.0
O423 O 0.35789 0.66041 0.5364 0.0
C424 C 0.37234 0.56851 0.63003 0.0
C425 C 0.39979 0.57449 0.63613 0.0
H426 H 0.45288 0.59078 0.64134 0.0
H427 H 0.47475 0.62704 0.61357 0.0
H428 H 0.29874 0.58878 0.57471 0.0
H429 H 0.31995 0.56198 0.61205 0.0
H430 H 0.36204 0.5524 0.64111 0.0
H431 H 0.41019 0.56292 0.65182 0.0
Mn432 Mn 0.492 0.59735 0.86142 0.0
Mn433 Mn 0.55835 0.61077 0.85023 0.0
C434 C 0.5206 0.60721 0.89775 0.0
C435 C 0.45842 0.56487 0.8685 0.0
C436 C 0.51243 0.65063 0.83757 0.0
O437 O 0.49853 0.58311 0.8229 0.0
O438 O 0.54434 0.58694 0.82058 0.0
C439 C 0.58155 0.55535 0.857 0.0
N440 N 0.58089 0.58216 0.86426 0.0
C441 C 0.61643 0.57534 0.89744 0.0
C442 C 0.61789 0.54779 0.88987 0.0
C443 C 0.60025 0.53773 0.86967 0.0
C444 C 0.59752 0.59198 0.88393 0.0
H445 H 0.56771 0.54739 0.84188 0.0
C446 C 0.52143 0.57817 0.81145 0.0
O447 O 0.45211 0.58889 0.85923 0.0
O448 O 0.48384 0.55988 0.87361 0.0
N449 N 0.57408 0.63292 0.87833 0.0
C450 C 0.5683 0.65925 0.88512 0.0
C451 C 0.58291 0.6719 0.90624 0.0
C452 C 0.60336 0.6574 0.92013 0.0
C453 C 0.60898 0.63034 0.91279 0.0
C454 C 0.59385 0.61884 0.89146 0.0
H455 H 0.55258 0.67052 0.87461 0.0
O456 O 0.49438 0.60977 0.90046 0.0
O457 O 0.52887 0.59896 0.87406 0.0
O458 O 0.49313 0.63668 0.84804 0.0
O459 O 0.537 0.64197 0.83578 0.0
C460 C 0.62862 0.61416 0.92616 0.0
C461 C 0.63242 0.58671 0.91842 0.0
H462 H 0.63211 0.53408 0.89979 0.0
H463 H 0.60095 0.5164 0.86401 0.0
H464 H 0.57838 0.69277 0.91186 0.0
H465 H 0.61444 0.66716 0.93655 0.0
H466 H 0.64063 0.6225 0.94273 0.0
H467 H 0.64728 0.57436 0.92914 0.0
Mn468 Mn 0.49581 0.90112 0.87373 0.0
Mn469 Mn 0.4318 0.89003 0.85164 0.0
C470 C 0.46188 0.88899 0.90427 0.0
C471 C 0.52791 0.93188 0.88995 0.0
C472 C 0.47849 0.85015 0.84278 0.0
O473 O 0.49521 0.91964 0.83669 0.0
O474 O 0.45089 0.9145 0.8254 0.0
C475 C 0.40922 0.94587 0.85666 0.0
N476 N 0.40849 0.91896 0.86361 0.0
C477 C 0.37046 0.92645 0.89377 0.0
C478 C 0.37073 0.9542 0.88682 0.0
C479 C 0.39019 0.96393 0.86818 0.0
C480 C 0.3897 0.90933 0.88137 0.0
H481 H 0.4243 0.95355 0.84257 0.0
C482 C 0.47477 0.92444 0.82127 0.0
O483 O 0.53566 0.90935 0.87827 0.0
O484 O 0.50197 0.93646 0.89163 0.0
N485 N 0.41151 0.86744 0.87625 0.0
C486 C 0.41531 0.84059 0.88241 0.0
C487 C 0.39816 0.82795 0.90155 0.0
C488 C 0.37734 0.84303 0.91423 0.0
C489 C 0.37383 0.87063 0.90759 0.0
C490 C 0.39134 0.88206 0.88812 0.0
H491 H 0.43144 0.82894 0.87296 0.0
O492 O 0.48732 0.88471 0.91034 0.0
O493 O 0.45755 0.89933 0.88034 0.0
O494 O 0.49654 0.8635 0.85594 0.0
O495 O 0.45413 0.85878 0.8391 0.0
C496 C 0.35406 0.8874 0.92003 0.0
C497 C 0.35236 0.91528 0.91311 0.0
H498 H 0.3563 0.96826 0.89591 0.0
H499 H 0.39065 0.98535 0.86285 0.0
H500 H 0.40109 0.80667 0.90667 0.0
H501 H 0.36436 0.83328 0.92922 0.0
H502 H 0.34032 0.87915 0.93525 0.0
H503 H 0.33734 0.92805 0.92312 0.0
Mn504 Mn 0.497 0.40193 0.62624 0.0
Mn505 Mn 0.56305 0.389 0.63917 0.0
C506 C 0.52646 0.39167 0.59069 0.0
C507 C 0.46346 0.43423 0.61834 0.0
C508 C 0.51689 0.34953 0.65195 0.0
O509 O 0.50271 0.41658 0.66472 0.0
O510 O 0.5486 0.41413 0.6676 0.0
C511 C 0.58689 0.44389 0.63057 0.0
N512 N 0.58609 0.41682 0.62438 0.0
C513 C 0.62229 0.42195 0.59158 0.0
C514 C 0.62389 0.44975 0.59807 0.0
C515 C 0.60599 0.46079 0.61753 0.0
C516 C 0.60297 0.40605 0.60539 0.0
H517 H 0.57283 0.45258 0.64508 0.0
C518 C 0.52533 0.42254 0.67622 0.0
O519 O 0.45708 0.41024 0.62763 0.0
O520 O 0.48895 0.43925 0.61354 0.0
N521 N 0.57902 0.36562 0.61219 0.0
C522 C 0.57304 0.33912 0.60627 0.0
C523 C 0.58787 0.32551 0.58589 0.0
C524 C 0.60871 0.33923 0.57182 0.0
C525 C 0.6145 0.36649 0.57822 0.0
C526 C 0.59914 0.37897 0.59885 0.0
H527 H 0.55703 0.32842 0.61691 0.0
O528 O 0.50031 0.38909 0.58738 0.0
O529 O 0.53409 0.40019 0.61448 0.0
O530 O 0.49796 0.36287 0.64012 0.0
O531 O 0.54126 0.35853 0.65452 0.0
C532 C 0.63455 0.38191 0.56458 0.0
C533 C 0.63852 0.40959 0.57134 0.0
H534 H 0.63841 0.46291 0.58786 0.0
H535 H 0.60679 0.48233 0.62234 0.0
H536 H 0.58319 0.3045 0.58098 0.0
H537 H 0.61996 0.32872 0.55597 0.0
H538 H 0.64675 0.3728 0.54856 0.0
H539 H 0.65373 0.42134 0.56043 0.0
Mn540 Mn 0.49655 0.09543 0.63214 0.0
Mn541 Mn 0.43276 0.11009 0.65265 0.0
C542 C 0.46285 0.10333 0.60003 0.0
C543 C 0.52853 0.06222 0.62158 0.0
C544 C 0.48018 0.15 0.6561 0.0
O545 O 0.49595 0.08311 0.67166 0.0
O546 O 0.45124 0.08811 0.68144 0.0
C547 C 0.40782 0.05511 0.6547 0.0
N548 N 0.40819 0.08094 0.64443 0.0
C549 C 0.3691 0.07172 0.6162 0.0
C550 C 0.36825 0.04507 0.62655 0.0
C551 C 0.38769 0.03674 0.64589 0.0
C552 C 0.38939 0.08927 0.62604 0.0
H553 H 0.42284 0.0485 0.66939 0.0
C554 C 0.47529 0.07935 0.68708 0.0
O555 O 0.53629 0.0866 0.6285 0.0
O556 O 0.50259 0.05736 0.62075 0.0
N557 N 0.41318 0.13037 0.62557 0.0
C558 C 0.41819 0.15596 0.61593 0.0
C559 C 0.40134 0.1669 0.59551 0.0
C560 C 0.37957 0.15142 0.58517 0.0
C561 C 0.37484 0.12511 0.59536 0.0
C562 C 0.39215 0.11537 0.6159 0.0
H563 H 0.43502 0.16789 0.62359 0.0
O564 O 0.48841 0.10605 0.59359 0.0
O565 O 0.45811 0.09643 0.62516 0.0
O566 O 0.4977 0.13535 0.64367 0.0
O567 O 0.45604 0.14182 0.6616 0.0
C568 C 0.35402 0.10795 0.58548 0.0
C569 C 0.35112 0.0813 0.59592 0.0
H570 H 0.35297 0.03073 0.61956 0.0
H571 H 0.38726 0.01615 0.65386 0.0
H572 H 0.40522 0.18716 0.58765 0.0
H573 H 0.36679 0.15983 0.56923 0.0
H574 H 0.34035 0.11492 0.56957 0.0
H575 H 0.33528 0.06816 0.58788 0.0
Mn576 Mn 0.86797 0.49222 0.59554 0.0
Mn577 Mn 0.85252 0.55863 0.60388 0.0
C578 C 0.9023 0.52338 0.60409 0.0
C579 C 0.87728 0.45675 0.56585 0.0
C580 C 0.84215 0.5152 0.64695 0.0
O581 O 0.82972 0.49542 0.57998 0.0
O582 O 0.82371 0.54099 0.58133 0.0
C583 C 0.85714 0.57822 0.54691 0.0
N584 N 0.86508 0.57963 0.5735 0.0
C585 C 0.89654 0.61598 0.56353 0.0
C586 C 0.88857 0.61502 0.53608 0.0
C587 C 0.86881 0.59602 0.52774 0.0
C588 C 0.88403 0.59788 0.58176 0.0
H589 H 0.84207 0.56357 0.54033 0.0
C590 C 0.81653 0.51699 0.57374 0.0
O591 O 0.86784 0.45178 0.59011 0.0
O592 O 0.88155 0.48193 0.55911 0.0
N593 N 0.87957 0.57779 0.62457 0.0
C594 C 0.8866 0.57464 0.65129 0.0
C595 C 0.90701 0.59128 0.66255 0.0
C596 C 0.91996 0.61098 0.64628 0.0
C597 C 0.91237 0.61389 0.61886 0.0
C598 C 0.89175 0.59687 0.6088 0.0
H599 H 0.87686 0.55945 0.66389 0.0
O600 O 0.90632 0.4976 0.60868 0.0
O601 O 0.87845 0.52983 0.59456 0.0
O602 O 0.85348 0.49547 0.63434 0.0
O603 O 0.83941 0.53904 0.63671 0.0
C604 C 0.92487 0.63261 0.60099 0.0
C605 C 0.91692 0.63369 0.57336 0.0
H606 H 0.8977 0.62855 0.52119 0.0
H607 H 0.86267 0.59505 0.50656 0.0
H608 H 0.91283 0.58883 0.6837 0.0
H609 H 0.93587 0.6236 0.65498 0.0
H610 H 0.94091 0.64599 0.60818 0.0
H611 H 0.92697 0.64789 0.55972 0.0
Mn612 Mn 0.14016 0.99326 0.59739 0.0
Mn613 Mn 0.14939 0.92691 0.61205 0.0
C614 C 0.10279 0.96573 0.6066 0.0
C615 C 0.13555 0.0268 0.56434 0.0
C616 C 0.16234 0.97315 0.65142 0.0
O617 O 0.17896 0.98542 0.58458 0.0
O618 O 0.17955 0.93953 0.58795 0.0
C619 C 0.14215 0.90262 0.55718 0.0
N620 N 0.13486 0.90408 0.58395 0.0
C621 C 0.10087 0.86916 0.57792 0.0
C622 C 0.10848 0.86686 0.55045 0.0
C623 C 0.1291 0.88379 0.54 0.0
C624 C 0.11474 0.88817 0.59411 0.0
H625 H 0.15756 0.91595 0.54891 0.0
C626 C 0.18958 0.96217 0.57942 0.0
O627 O 0.14396 0.03291 0.5887 0.0
O628 O 0.12966 0.00153 0.55933 0.0
N629 N 0.12071 0.91253 0.63443 0.0
C630 C 0.11392 0.91912 0.66057 0.0
C631 C 0.09241 0.90532 0.67351 0.0
C632 C 0.07813 0.88483 0.6595 0.0
C633 C 0.08547 0.87836 0.63263 0.0
C634 C 0.10719 0.8927 0.62082 0.0
H635 H 0.12472 0.93486 0.6715 0.0
O636 O 0.10062 0.99206 0.60848 0.0
O637 O 0.12651 0.95675 0.59919 0.0
O638 O 0.1521 0.99231 0.63712 0.0
O639 O 0.16429 0.94853 0.64295 0.0
C640 C 0.07172 0.85862 0.61693 0.0
C641 C 0.07949 0.85395 0.58962 0.0
H642 H 0.09828 0.85254 0.53708 0.0
H643 H 0.13478 0.88246 0.51871 0.0
H644 H 0.08681 0.91051 0.69422 0.0
H645 H 0.06142 0.87437 0.66948 0.0
H646 H 0.05486 0.8472 0.62552 0.0
H647 H 0.06848 0.83901 0.57763 0.0
Mn648 Mn 0.86543 0.5108 0.9019 0.0
Mn649 Mn 0.8486 0.44536 0.89031 0.0
C650 C 0.89937 0.47876 0.8948 0.0
C651 C 0.87437 0.54452 0.93377 0.0
C652 C 0.84166 0.49075 0.8485 0.0
O653 O 0.8262 0.50834 0.91493 0.0
O654 O 0.81911 0.46295 0.91206 0.0
C655 C 0.84914 0.42277 0.94634 0.0
N656 N 0.85891 0.42265 0.92032 0.0
C657 C 0.88984 0.38594 0.93068 0.0
C658 C 0.88004 0.38561 0.95754 0.0
C659 C 0.85959 0.4041 0.96539 0.0
C660 C 0.87838 0.40474 0.91246 0.0
H661 H 0.8336 0.43708 0.95258 0.0
C662 C 0.81217 0.48697 0.91991 0.0
O663 O 0.86667 0.55101 0.90925 0.0
O664 O 0.87699 0.51889 0.93951 0.0
N665 N 0.8765 0.42662 0.87034 0.0
C666 C 0.88529 0.43103 0.84433 0.0
C667 C 0.90656 0.41504 0.83372 0.0
C668 C 0.91862 0.39473 0.84995 0.0
C669 C 0.90927 0.39058 0.87665 0.0
C670 C 0.88782 0.40696 0.88605 0.0
H671 H 0.8763 0.44676 0.83182 0.0
O672 O 0.90431 0.5045 0.89099 0.0
O673 O 0.87466 0.4729 0.90227 0.0
O674 O 0.85326 0.5096 0.86215 0.0
O675 O 0.83768 0.46672 0.85783 0.0
C676 C 0.92084 0.37124 0.89452 0.0
C677 C 0.9111 0.36889 0.92149 0.0
H678 H 0.88828 0.37147 0.9724 0.0
H679 H 0.85203 0.40407 0.98614 0.0
H680 H 0.91375 0.41846 0.81313 0.0
H681 H 0.93521 0.38262 0.84177 0.0
H682 H 0.93748 0.35833 0.88783 0.0
H683 H 0.92041 0.35422 0.93514 0.0
Mn684 Mn 0.13014 0.00181 0.90361 0.0
Mn685 Mn 0.14543 0.06562 0.88437 0.0
C686 C 0.0956 0.0314 0.89023 0.0
C687 C 0.12025 0.97298 0.94006 0.0
C688 C 0.15731 0.01523 0.8499 0.0
O689 O 0.16866 0.00772 0.91802 0.0
O690 O 0.17308 0.05308 0.91142 0.0
C691 C 0.13634 0.0949 0.93647 0.0
N692 N 0.13054 0.09154 0.90951 0.0
C693 C 0.09697 0.1274 0.91099 0.0
C694 C 0.10304 0.1316 0.93861 0.0
C695 C 0.12274 0.1152 0.95142 0.0
C696 C 0.11142 0.10705 0.89704 0.0
H697 H 0.15089 0.0819 0.9466 0.0
C698 C 0.18087 0.0304 0.922 0.0
O699 O 0.1299 0.96317 0.91735 0.0
O700 O 0.11652 0.99907 0.94122 0.0
N701 N 0.11916 0.07968 0.85901 0.0
C702 C 0.11386 0.07143 0.83299 0.0
C703 C 0.09359 0.08479 0.81778 0.0
C704 C 0.07895 0.10648 0.82944 0.0
C705 C 0.08473 0.11464 0.85622 0.0
C706 C 0.10536 0.10075 0.87031 0.0
H707 H 0.12491 0.05472 0.82388 0.0
O708 O 0.09138 0.00526 0.89011 0.0
O709 O 0.11981 0.03869 0.89769 0.0
O710 O 0.14454 0.99805 0.86475 0.0
O711 O 0.16067 0.04027 0.85662 0.0
C712 C 0.07037 0.13558 0.86968 0.0
C713 C 0.07649 0.14196 0.89705 0.0
H714 H 0.09233 0.14699 0.95031 0.0
H715 H 0.12721 0.11799 0.97286 0.0
H716 H 0.08918 0.0783 0.79715 0.0
H717 H 0.06314 0.11655 0.81772 0.0
H718 H 0.05426 0.14661 0.85932 0.0
H719 H 0.06495 0.15776 0.90734 0.0
Mn720 Mn 0.59505 0.86729 0.49255 0.0
Mn721 Mn 0.60397 0.85421 0.5594 0.0
C722 C 0.60129 0.90287 0.52301 0.0
C723 C 0.56528 0.87397 0.45651 0.0
C724 C 0.64777 0.84502 0.51644 0.0
O725 O 0.58155 0.82825 0.4967 0.0
O726 O 0.58312 0.8239 0.54244 0.0
C727 C 0.54671 0.85628 0.57866 0.0
N728 N 0.57285 0.86565 0.57996 0.0
C729 C 0.56121 0.89693 0.61596 0.0
C730 C 0.53423 0.88749 0.61512 0.0
C731 C 0.52694 0.86713 0.59633 0.0
C732 C 0.58006 0.8853 0.59791 0.0
H733 H 0.54097 0.84067 0.56423 0.0
C734 C 0.57589 0.81554 0.51873 0.0
O735 O 0.59011 0.86583 0.4521 0.0
O736 O 0.55797 0.87847 0.4815 0.0
N737 N 0.6231 0.88279 0.57795 0.0
C738 C 0.64947 0.89103 0.57487 0.0
C739 C 0.65967 0.91212 0.59135 0.0
C740 C 0.64271 0.92443 0.61089 0.0
C741 C 0.61567 0.91557 0.61375 0.0
C742 C 0.60666 0.8944 0.59683 0.0
H743 H 0.66262 0.8817 0.55988 0.0
O744 O 0.60583 0.90658 0.49718 0.0
O745 O 0.59325 0.87864 0.52988 0.0
O746 O 0.63464 0.85514 0.4964 0.0
O747 O 0.63757 0.84235 0.5403 0.0
C748 C 0.59719 0.9272 0.63245 0.0
C749 C 0.57001 0.91781 0.63362 0.0
H750 H 0.51888 0.89591 0.62861 0.0
H751 H 0.50612 0.85984 0.59545 0.0
H752 H 0.68054 0.9189 0.58895 0.0
H753 H 0.6506 0.94081 0.62344 0.0
H754 H 0.60357 0.94362 0.64579 0.0
H755 H 0.55591 0.92713 0.64787 0.0
Mn756 Mn 0.59673 0.13515 0.9926 0.0
Mn757 Mn 0.61331 0.14687 0.92717 0.0
C758 C 0.6082 0.09901 0.96435 0.0
C759 C 0.56266 0.12732 0.02449 0.0
C760 C 0.6507 0.15957 0.97514 0.0
O761 O 0.58256 0.17359 0.98558 0.0
O762 O 0.58807 0.17617 0.93993 0.0
C763 C 0.55951 0.13941 0.90061 0.0
N764 N 0.58629 0.13238 0.903 0.0
C765 C 0.58163 0.09793 0.86831 0.0
C766 C 0.55417 0.10527 0.86508 0.0
C767 C 0.54305 0.12604 0.88138 0.0
C768 C 0.59718 0.11231 0.8875 0.0
H769 H 0.55064 0.15477 0.91359 0.0
C770 C 0.57825 0.18505 0.96256 0.0
O771 O 0.58624 0.13677 0.03204 0.0
O772 O 0.55896 0.12262 0.99878 0.0
N773 N 0.63674 0.11896 0.91291 0.0
C774 C 0.66274 0.11248 0.92037 0.0
C775 C 0.67629 0.09095 0.90719 0.0
C776 C 0.66298 0.07625 0.88654 0.0
C777 C 0.63623 0.08323 0.87923 0.0
C778 C 0.62385 0.1051 0.89286 0.0
H779 H 0.67308 0.1235 0.93635 0.0
O780 O 0.60963 0.09635 0.99065 0.0
O781 O 0.60019 0.12271 0.95579 0.0
O782 O 0.63594 0.1487 0.99357 0.0
O783 O 0.64312 0.16177 0.95025 0.0
C784 C 0.62115 0.0689 0.85942 0.0
C785 C 0.59388 0.07626 0.85394 0.0
H786 H 0.5413 0.09472 0.85055 0.0
H787 H 0.52175 0.1315 0.87934 0.0
H788 H 0.6969 0.08561 0.91305 0.0
H789 H 0.67341 0.05948 0.87662 0.0
H790 H 0.63018 0.05189 0.84858 0.0
H791 H 0.58233 0.06476 0.83903 0.0
Mn792 Mn 0.4006 0.36652 0.9891 0.0
Mn793 Mn 0.38424 0.35344 0.92388 0.0
C794 C 0.39014 0.40214 0.95978 0.0
C795 C 0.43457 0.37388 0.02113 0.0
C796 C 0.34631 0.34265 0.97193 0.0
O797 O 0.41381 0.32754 0.98317 0.0
O798 O 0.40902 0.32419 0.93752 0.0
C799 C 0.43844 0.35995 0.89787 0.0
N800 N 0.41162 0.36704 0.89959 0.0
C801 C 0.41674 0.39999 0.86352 0.0
C802 C 0.44423 0.39251 0.86093 0.0
C803 C 0.45515 0.3725 0.87828 0.0
C804 C 0.40098 0.38653 0.88321 0.0
H805 H 0.44712 0.34513 0.9116 0.0
C806 C 0.41837 0.31561 0.96044 0.0
O807 O 0.4106 0.36539 0.02861 0.0
O808 O 0.43866 0.37809 0.99537 0.0
N809 N 0.36121 0.38117 0.90863 0.0
C810 C 0.33518 0.38807 0.91559 0.0
C811 C 0.32181 0.40902 0.90134 0.0
C812 C 0.33531 0.4227 0.88011 0.0
C813 C 0.36209 0.4153 0.87331 0.0
C814 C 0.3743 0.39406 0.88805 0.0
H815 H 0.32468 0.37781 0.93197 0.0
O816 O 0.38884 0.40573 0.98598 0.0
O817 O 0.39759 0.37803 0.95199 0.0
O818 O 0.36108 0.35397 0.99007 0.0
O819 O 0.35404 0.33949 0.94717 0.0
C820 C 0.37736 0.42863 0.85293 0.0
C821 C 0.40464 0.42094 0.848 0.0
H822 H 0.45727 0.4024 0.84608 0.0
H823 H 0.47647 0.36697 0.87675 0.0
H824 H 0.30118 0.4147 0.90681 0.0
H825 H 0.32502 0.43904 0.86935 0.0
H826 H 0.36846 0.44516 0.84125 0.0
H827 H 0.41633 0.4317 0.83264 0.0
Mn828 Mn 0.90534 0.13615 0.99867 0.0
Mn829 Mn 0.89077 0.15323 0.06348 0.0
C830 C 0.89891 0.10226 0.03099 0.0
C831 C 0.93802 0.12808 0.96542 0.0
C832 C 0.8503 0.15799 0.01662 0.0
O833 O 0.91672 0.17595 0.00111 0.0
O834 O 0.91208 0.18329 0.04633 0.0
C835 C 0.94582 0.15524 0.08831 0.0
N836 N 0.92023 0.14442 0.0875 0.0
C837 C 0.93022 0.1146 0.12521 0.0
C838 C 0.95664 0.1255 0.12649 0.0
C839 C 0.96445 0.14591 0.10796 0.0
C840 C 0.91239 0.12498 0.10543 0.0
H841 H 0.95204 0.17078 0.07399 0.0
C842 C 0.92057 0.19029 0.02254 0.0
O843 O 0.91328 0.13477 0.95868 0.0
O844 O 0.94363 0.12607 0.99117 0.0
N845 N 0.8712 0.12478 0.08179 0.0
C846 C 0.84579 0.11485 0.07643 0.0
C847 C 0.83537 0.09343 0.09235 0.0
C848 C 0.85117 0.0824 0.11354 0.0
C849 C 0.87728 0.0929 0.11865 0.0
C850 C 0.8865 0.11444 0.10228 0.0
H851 H 0.8336 0.12305 0.06004 0.0
O852 O 0.89599 0.0969 0.00522 0.0
O853 O 0.90508 0.12736 0.03676 0.0
O854 O 0.86511 0.1466 0.99856 0.0
O855 O 0.85859 0.16273 0.04087 0.0
C856 C 0.89473 0.08243 0.13894 0.0
C857 C 0.92116 0.0933 0.14226 0.0
H858 H 0.97118 0.11812 0.14141 0.0
H859 H 0.98485 0.15432 0.10873 0.0
H860 H 0.81525 0.08535 0.08819 0.0
H861 H 0.84316 0.06571 0.1256 0.0
H862 H 0.88816 0.06576 0.15188 0.0
H863 H 0.93453 0.08482 0.15768 0.0
H864 H 0.1027 0.07144 0.56509 0.0
H865 H 0.16039 0.02758 0.51529 0.0
H866 H 0.08852 0.09811 0.5254 0.0
H867 H 0.14791 0.05542 0.47595 0.0
H868 H 0.08051 0.06423 0.41152 0.0
H869 H 0.10856 0.05112 0.44969 0.0
H870 H 0.09301 0.12911 0.48802 0.0
H871 H 0.0641 0.14202 0.44908 0.0
C872 C 0.1131 0.0684 0.54582 0.0
C873 C 0.13228 0.04739 0.54291 0.0
C874 C 0.10514 0.08374 0.52308 0.0
C875 C 0.11662 0.07851 0.49724 0.0
C876 C 0.13802 0.05942 0.4953 0.0
C877 C 0.14535 0.04361 0.5178 0.0
C878 C 0.08391 0.07901 0.42759 0.0
C879 C 0.07081 0.10439 0.42708 0.0
C880 C 0.10009 0.07152 0.44962 0.0
C881 C 0.10335 0.08911 0.47204 0.0
C882 C 0.09087 0.11502 0.47116 0.0
C883 C 0.07448 0.12251 0.4489 0.0
H884 H 0.93257 0.43126 0.41433 0.0
H885 H 0.95869 0.35321 0.44538 0.0
H886 H 0.9057 0.43893 0.45509 0.0
H887 H 0.93163 0.36096 0.48713 0.0
H888 H 0.84904 0.44741 0.5199 0.0
H889 H 0.86537 0.4223 0.48013 0.0
H890 H 0.93543 0.39503 0.52618 0.0
H891 H 0.91834 0.41952 0.5663 0.0
C892 C 0.93186 0.41538 0.4297 0.0
C893 C 0.94677 0.39126 0.42645 0.0
C894 C 0.91646 0.41973 0.45307 0.0
C895 C 0.91604 0.40026 0.4741 0.0
C896 C 0.93133 0.37613 0.47107 0.0
C897 C 0.94673 0.3717 0.44735 0.0
C898 C 0.86726 0.435 0.52177 0.0
C899 C 0.88253 0.43523 0.54589 0.0
C900 C 0.8767 0.42078 0.49904 0.0
C901 C 0.90195 0.40719 0.49992 0.0
C902 C 0.91585 0.4052 0.52495 0.0
C903 C 0.90614 0.41921 0.54788 0.0
H904 H 0.04858 0.86021 0.05589 0.0
H905 H 0.08314 0.92616 0.10262 0.0
H906 H 0.07265 0.87687 0.01523 0.0
H907 H 0.10948 0.94055 0.06366 0.0
H908 H 0.09859 0.99043 0.98746 0.0
H909 H 0.0869 0.96434 0.0273 0.0
H910 H 0.11501 0.89055 0.98808 0.0
H911 H 0.12652 0.91721 0.94699 0.0
C912 C 0.06258 0.87719 0.05787 0.0
C913 C 0.0647 0.89132 0.08273 0.0
C914 C 0.07644 0.88665 0.03467 0.0
C915 C 0.0926 0.91031 0.03616 0.0
C916 C 0.09686 0.92252 0.06172 0.0
C917 C 0.08235 0.91374 0.08442 0.0
C918 C 0.10254 0.96869 0.98714 0.0
C919 C 0.11364 0.95594 0.96404 0.0
C920 C 0.09605 0.95369 0.01023 0.0
C921 C 0.10064 0.92542 0.01117 0.0
C922 C 0.11146 0.91236 0.988 0.0
C923 C 0.11804 0.92757 0.96457 0.0
H924 H 0.93449 0.56259 0.08601 0.0
H925 H 0.95732 0.64281 0.05813 0.0
H926 H 0.90785 0.55553 0.04496 0.0
H927 H 0.93026 0.63586 0.01628 0.0
H928 H 0.84861 0.54936 0.98177 0.0
H929 H 0.86648 0.57161 0.0224 0.0
H930 H 0.93282 0.60503 0.97496 0.0
H931 H 0.91413 0.58332 0.93393 0.0
C932 C 0.93322 0.57897 0.07121 0.0
C933 C 0.94706 0.60355 0.07548 0.0
C934 C 0.91792 0.575 0.0477 0.0
C935 C 0.9164 0.59541 0.02762 0.0
C936 C 0.93083 0.61991 0.03156 0.0
C937 C 0.94623 0.6239 0.05536 0.0
C938 C 0.86632 0.56247 0.97988 0.0
C939 C 0.88009 0.56474 0.95497 0.0
C940 C 0.87668 0.57505 0.00313 0.0
C941 C 0.9014 0.58954 0.002 0.0
C942 C 0.91371 0.59406 0.97645 0.0
C943 C 0.90304 0.5817 0.95298 0.0
H944 H 0.44728 0.04561 0.13501 0.0
H945 H 0.41322 0.05546 0.05456 0.0
H946 H 0.48631 0.07447 0.12189 0.0
H947 H 0.45192 0.0829 0.04103 0.0
H948 H 0.51067 0.14469 0.02209 0.0
H949 H 0.47184 0.12585 0.04663 0.0
H950 H 0.52637 0.07427 0.09306 0.0
H951 H 0.56539 0.09466 0.06938 0.0
C952 C 0.44823 0.05403 0.11461 0.0
C953 C 0.42713 0.04911 0.09594 0.0
C954 C 0.47048 0.07042 0.10704 0.0
C955 C 0.47204 0.08155 0.08056 0.0
C956 C 0.45108 0.07565 0.06188 0.0
C957 C 0.42894 0.05973 0.06952 0.0
C958 C 0.5143 0.13002 0.03824 0.0
C959 C 0.54078 0.12095 0.04388 0.0
C960 C 0.49211 0.11899 0.05214 0.0
C961 C 0.49588 0.09791 0.07128 0.0
C962 C 0.52268 0.09045 0.07849 0.0
C963 C 0.54504 0.10207 0.06496 0.0
H964 H 0.58193 0.44717 0.05237 0.0
H965 H 0.54815 0.45463 0.13321 0.0
H966 H 0.54472 0.41767 0.03909 0.0
H967 H 0.51055 0.42394 0.12025 0.0
H968 H 0.43167 0.4053 0.06681 0.0
H969 H 0.47055 0.42477 0.09136 0.0
H970 H 0.52529 0.37414 0.04415 0.0
H971 H 0.48657 0.35632 0.0186 0.0
C972 C 0.56674 0.44179 0.06752 0.0
C973 C 0.56814 0.45243 0.09396 0.0
C974 C 0.54543 0.42473 0.06001 0.0
C975 C 0.52481 0.41789 0.07875 0.0
C976 C 0.52614 0.42872 0.10535 0.0
C977 C 0.54758 0.44614 0.11283 0.0
C978 C 0.45202 0.3979 0.06234 0.0
C979 C 0.4564 0.37972 0.0407 0.0
C980 C 0.4743 0.40895 0.07641 0.0
C981 C 0.50112 0.40154 0.06923 0.0
C982 C 0.50499 0.38096 0.04959 0.0
C983 C 0.48287 0.37057 0.0351 0.0
H984 H 0.56539 0.91355 0.4178 0.0
H985 H 0.52022 0.84409 0.44722 0.0
H986 H 0.52557 0.92841 0.39152 0.0
H987 H 0.4808 0.85801 0.42006 0.0
H988 H 0.41356 0.92439 0.42599 0.0
H989 H 0.45372 0.89704 0.43414 0.0
H990 H 0.48786 0.92386 0.35736 0.0
H991 H 0.44653 0.95137 0.34906 0.0
C992 C 0.54733 0.90081 0.4175 0.0
C993 C 0.54552 0.87789 0.43449 0.0
C994 C 0.52457 0.90921 0.40241 0.0
C995 C 0.49989 0.89464 0.40417 0.0
C996 C 0.49938 0.86992 0.41874 0.0
C997 C 0.5219 0.86186 0.43415 0.0
C998 C 0.42911 0.92358 0.41031 0.0
C999 C 0.42661 0.9391 0.38647 0.0
C1000 C 0.45222 0.9079 0.41495 0.0
C1001 C 0.47386 0.90785 0.39616 0.0
C1002 C 0.47138 0.92331 0.37206 0.0
C1003 C 0.44787 0.93896 0.36729 0.0
H1004 H 0.48649 0.64277 0.46564 0.0
H1005 H 0.43497 0.5886 0.41937 0.0
H1006 H 0.52647 0.62586 0.44137 0.0
H1007 H 0.47518 0.57019 0.39609 0.0
H1008 H 0.5548 0.54269 0.35657 0.0
H1009 H 0.51567 0.57224 0.36753 0.0
H1010 H 0.54777 0.58324 0.44899 0.0
H1011 H 0.58644 0.55466 0.43771 0.0
C1012 C 0.48378 0.62761 0.44977 0.0
C1013 C 0.45793 0.61675 0.44438 0.0
C1014 C 0.50663 0.61775 0.43603 0.0
C1015 C 0.50413 0.59609 0.41738 0.0
C1016 C 0.47785 0.5869 0.41029 0.0
C1017 C 0.45482 0.59734 0.42362 0.0
C1018 C 0.55346 0.55198 0.37657 0.0
C1019 C 0.57383 0.54727 0.39608 0.0
C1020 C 0.53115 0.56876 0.38289 0.0
C1021 C 0.52877 0.58054 0.40899 0.0
C1022 C 0.54926 0.57537 0.4284 0.0
C1023 C 0.57141 0.55887 0.42204 0.0
H1024 H 0.14246 0.45042 0.06074 0.0
H1025 H 0.06464 0.41235 0.07574 0.0
H1026 H 0.129 0.489 0.0899 0.0
H1027 H 0.05103 0.4501 0.10409 0.0
H1028 H 0.02659 0.51493 0.15644 0.0
H1029 H 0.05487 0.47593 0.14385 0.0
H1030 H 0.09765 0.52626 0.0853 0.0
H1031 H 0.07049 0.56562 0.09958 0.0
C1032 C 0.12284 0.45003 0.07089 0.0
C1033 C 0.10487 0.42816 0.06674 0.0
C1034 C 0.11503 0.47207 0.08742 0.0
C1035 C 0.08896 0.47269 0.09958 0.0
C1036 C 0.07153 0.45022 0.09587 0.0
C1037 C 0.07932 0.42842 0.07953 0.0
C1038 C 0.04272 0.51771 0.14156 0.0
C1039 C 0.04638 0.54297 0.12874 0.0
C1040 C 0.05879 0.49541 0.13417 0.0
C1041 C 0.07805 0.4977 0.11297 0.0
C1042 C 0.08315 0.52368 0.10176 0.0
C1043 C 0.06753 0.54623 0.10978 0.0
H1044 H 0.02043 0.4864 0.35575 0.0
H1045 H 0.07051 0.43267 0.40414 0.0
H1046 H 0.04568 0.52567 0.37279 0.0
H1047 H 0.09478 0.47208 0.42287 0.0
H1048 H 0.13639 0.55038 0.45101 0.0
H1049 H 0.12309 0.51226 0.42113 0.0
H1050 H 0.04158 0.54583 0.41593 0.0
H1051 H 0.0552 0.58359 0.44457 0.0
C1052 C 0.03725 0.48308 0.36972 0.0
C1053 C 0.04351 0.45676 0.3789 0.0
C1054 C 0.05157 0.50551 0.37968 0.0
C1055 C 0.07171 0.50213 0.39986 0.0
C1056 C 0.07945 0.47548 0.40734 0.0
C1057 C 0.06554 0.45289 0.39672 0.0
C1058 C 0.11585 0.54957 0.44292 0.0
C1059 C 0.09697 0.57012 0.44926 0.0
C1060 C 0.10818 0.52782 0.42597 0.0
C1061 C 0.08137 0.52615 0.41569 0.0
C1062 C 0.06263 0.54677 0.42256 0.0
C1063 C 0.07034 0.5684 0.43914 0.0
H1064 H 0.94283 0.90286 0.44592 0.0
H1065 H 0.87058 0.94799 0.46791 0.0
H1066 H 0.96023 0.94194 0.42133 0.0
H1067 H 0.8892 0.98857 0.44487 0.0
H1068 H 0.93216 0.05143 0.3846 0.0
H1069 H 0.90632 0.01148 0.40094 0.0
H1070 H 0.97843 0.98254 0.4426 0.0
H1071 H 0.00391 0.02128 0.42604 0.0
C1072 C 0.93019 0.92092 0.44461 0.0
C1073 C 0.90493 0.92213 0.4579 0.0
C1074 C 0.94042 0.94356 0.43101 0.0
C1075 C 0.92632 0.96849 0.4316 0.0
C1076 C 0.90042 0.96956 0.44395 0.0
C1077 C 0.88985 0.94648 0.45719 0.0
C1078 C 0.94228 0.03646 0.39734 0.0
C1079 C 0.97012 0.03919 0.40371 0.0
C1080 C 0.92754 0.0137 0.40666 0.0
C1081 C 0.94055 0.99356 0.42246 0.0
C1082 C 0.96803 0.99717 0.42969 0.0
C1083 C 0.98262 0.01953 0.42032 0.0
H1084 H 0.4366 0.58417 0.55359 0.0
H1085 H 0.35644 0.5521 0.53689 0.0
H1086 H 0.44689 0.54497 0.58175 0.0
H1087 H 0.36651 0.51222 0.56591 0.0
H1088 H 0.42136 0.43238 0.58228 0.0
H1089 H 0.39724 0.47211 0.56381 0.0
H1090 H 0.43609 0.5233 0.62419 0.0
H1091 H 0.46108 0.48387 0.64141 0.0
C1092 C 0.42092 0.56887 0.5566 0.0
C1093 C 0.39551 0.57135 0.54385 0.0
C1094 C 0.42673 0.54642 0.57285 0.0
C1095 C 0.40729 0.52569 0.57662 0.0
C1096 C 0.3818 0.52799 0.56355 0.0
C1097 C 0.37601 0.55067 0.54705 0.0
C1098 C 0.42387 0.45203 0.59208 0.0
C1099 C 0.44308 0.45539 0.61299 0.0
C1100 C 0.41007 0.47475 0.58159 0.0
C1101 C 0.41525 0.50094 0.59216 0.0
C1102 C 0.43218 0.5035 0.61518 0.0
C1103 C 0.44634 0.48098 0.62519 0.0
H1104 H 0.57248 0.57894 0.06252 0.0
H1105 H 0.63596 0.54411 0.01255 0.0
H1106 H 0.5536 0.60215 0.02234 0.0
H1107 H 0.61799 0.56789 0.97283 0.0
H1108 H 0.5488 0.56244 0.91041 0.0
H1109 H 0.57576 0.55358 0.95084 0.0
H1110 H 0.55641 0.63394 0.98161 0.0
H1111 H 0.52895 0.64273 0.94033 0.0
C1112 C 0.58306 0.57735 0.04317 0.0
C1113 C 0.60542 0.55972 0.0403 0.0
C1114 C 0.57232 0.5906 0.02022 0.0
C1115 C 0.58402 0.58637 0.99434 0.0
C1116 C 0.60824 0.57112 0.99237 0.0
C1117 C 0.61862 0.55762 0.01508 0.0
C1118 C 0.55081 0.57845 0.92552 0.0
C1119 C 0.53771 0.60356 0.922 0.0
C1120 C 0.5663 0.57344 0.94868 0.0
C1121 C 0.56878 0.59333 0.96917 0.0
C1122 C 0.55509 0.61838 0.96599 0.0
C1123 C 0.53948 0.62342 0.94252 0.0
H1124 H 0.34986 0.96937 0.01187 0.0
H1125 H 0.4038 0.92379 0.06431 0.0
H1126 H 0.3648 0.94245 0.9728 0.0
H1127 H 0.42026 0.89782 0.02491 0.0
H1128 H 0.4365 0.93618 0.9134 0.0
H1129 H 0.40796 0.94877 0.95147 0.0
H1130 H 0.41638 0.86755 0.98496 0.0
H1131 H 0.44573 0.85501 0.94604 0.0
C1132 C 0.3645 0.95309 0.01503 0.0
C1133 C 0.37596 0.94869 0.04081 0.0
C1134 C 0.37319 0.93779 0.99271 0.0
C1135 C 0.39431 0.91855 0.99561 0.0
C1136 C 0.40395 0.91243 0.02197 0.0
C1137 C 0.39465 0.92734 0.04451 0.0
C1138 C 0.43163 0.92074 0.92847 0.0
C1139 C 0.44251 0.89441 0.92645 0.0
C1140 C 0.41517 0.92791 0.95033 0.0
C1141 C 0.40935 0.90901 0.97109 0.0
C1142 C 0.42033 0.88249 0.96918 0.0
C1143 C 0.43701 0.87528 0.94701 0.0
H1144 H 0.55397 0.43686 0.57837 0.0
H1145 H 0.53682 0.35587 0.5487 0.0
H1146 H 0.58192 0.44592 0.53869 0.0
H1147 H 0.56531 0.36489 0.50813 0.0
H1148 H 0.58189 0.42047 0.42742 0.0
H1149 H 0.56278 0.39657 0.46707 0.0
H1150 H 0.62514 0.43225 0.51809 0.0
H1151 H 0.64331 0.45668 0.47887 0.0
C1152 C 0.55679 0.42076 0.56349 0.0
C1153 C 0.54413 0.39541 0.56687 0.0
C1154 C 0.57285 0.42588 0.54076 0.0
C1155 C 0.5764 0.40586 0.52057 0.0
C1156 C 0.56317 0.38054 0.52356 0.0
C1157 C 0.54697 0.37538 0.54662 0.0
C1158 C 0.59202 0.42221 0.44698 0.0
C1159 C 0.61379 0.44044 0.45042 0.0
C1160 C 0.58115 0.40856 0.46964 0.0
C1161 C 0.59216 0.413 0.49577 0.0
C1162 C 0.61594 0.42881 0.49832 0.0
C1163 C 0.62643 0.44271 0.47591 0.0
H1164 H 0.43013 0.05954 0.59778 0.0
H1165 H 0.45449 0.13053 0.55194 0.0
H1166 H 0.40459 0.04283 0.55905 0.0
H1167 H 0.43082 0.11236 0.51164 0.0
H1168 H 0.3739 0.07059 0.44658 0.0
H1169 H 0.38789 0.09617 0.48752 0.0
H1170 H 0.42564 0.02317 0.51951 0.0
H1171 H 0.41141 0.99801 0.4798 0.0
C1172 C 0.42904 0.07217 0.5797 0.0
C1173 C 0.44336 0.09684 0.57819 0.0
C1174 C 0.41493 0.06227 0.55722 0.0
C1175 C 0.41615 0.07598 0.53209 0.0
C1176 C 0.42937 0.10143 0.53078 0.0
C1177 C 0.44299 0.11175 0.55373 0.0
C1178 C 0.38511 0.06017 0.46251 0.0
C1179 C 0.39129 0.03224 0.46013 0.0
C1180 C 0.39311 0.07476 0.48585 0.0
C1181 C 0.40731 0.06153 0.50701 0.0
C1182 C 0.41393 0.03382 0.50407 0.0
C1183 C 0.40593 0.01938 0.48109 0.0
H1184 H 0.01614 0.63923 0.53962 0.0
H1185 H 0.06605 0.57692 0.57658 0.0
H1186 H 0.97621 0.62175 0.5635 0.0
H1187 H 0.02571 0.55855 0.59994 0.0
H1188 H 0.91499 0.55072 0.55866 0.0
H1189 H 0.95498 0.57842 0.54977 0.0
H1190 H 0.98441 0.56253 0.63135 0.0
H1191 H 0.94355 0.53452 0.64024 0.0
C1192 C 0.01861 0.62229 0.55362 0.0
C1193 C 0.04389 0.60924 0.55629 0.0
C1194 C 0.99579 0.61219 0.56717 0.0
C1195 C 0.99774 0.58841 0.58306 0.0
C1196 C 0.02363 0.57694 0.58787 0.0
C1197 C 0.04668 0.5874 0.57455 0.0
C1198 C 0.92963 0.55376 0.57494 0.0
C1199 C 0.92584 0.54147 0.60042 0.0
C1200 C 0.95255 0.56962 0.5699 0.0
C1201 C 0.97258 0.57318 0.5901 0.0
C1202 C 0.96912 0.56038 0.61556 0.0
C1203 C 0.94587 0.54447 0.62065 0.0
H1204 H 0.98614 0.85106 0.54497 0.0
H1205 H 0.93684 0.91374 0.58207 0.0
H1206 H 0.02652 0.86918 0.56744 0.0
H1207 H 0.97762 0.93285 0.60391 0.0
H1208 H 0.06011 0.95831 0.64223 0.0
H1209 H 0.01864 0.93103 0.63402 0.0
H1210 H 0.04889 0.91061 0.55371 0.0
H1211 H 0.08968 0.93719 0.56216 0.0
C1212 C 0.98393 0.86826 0.5587 0.0
C1213 C 0.95863 0.88115 0.56183 0.0
C1214 C 0.00703 0.87878 0.57142 0.0
C1215 C 0.0054 0.90287 0.58691 0.0
C1216 C 0.97955 0.91426 0.59215 0.0
C1217 C 0.95622 0.90336 0.5797 0.0
C1218 C 0.05776 0.94761 0.62305 0.0
C1219 C 0.07825 0.94897 0.60311 0.0
C1220 C 0.03415 0.9321 0.61832 0.0
C1221 C 0.03074 0.91813 0.59345 0.0
C1222 C 0.05118 0.92026 0.57345 0.0
C1223 C 0.07454 0.93557 0.5782 0.0
H1224 H 0.02464 0.43169 0.99846 0.0
H1225 H 0.05154 0.38685 0.92752 0.0
H1226 H 0.9856 0.44845 0.97344 0.0
H1227 H 0.01133 0.40343 0.90218 0.0
H1228 H 0.94691 0.47009 0.86652 0.0
H1229 H 0.98828 0.44779 0.88441 0.0
H1230 H 0.94417 0.42587 0.95751 0.0
H1231 H 0.90426 0.44956 0.94067 0.0
C1232 C 0.02214 0.42535 0.97743 0.0
C1233 C 0.04089 0.40764 0.96504 0.0
C1234 C 0.99965 0.43485 0.96312 0.0
C1235 C 0.99501 0.42663 0.93609 0.0
C1236 C 0.01438 0.40989 0.92308 0.0
C1237 C 0.03728 0.40045 0.93751 0.0
C1238 C 0.94613 0.45988 0.88611 0.0
C1239 C 0.92225 0.46076 0.90193 0.0
C1240 C 0.96965 0.44708 0.89627 0.0
C1241 C 0.96949 0.4354 0.92248 0.0
C1242 C 0.94505 0.43504 0.93741 0.0
C1243 C 0.92197 0.44813 0.92754 0.0
H1244 H 0.05258 0.04395 0.85615 0.0
H1245 H 0.08615 0.05868 0.93608 0.0
H1246 H 0.01351 0.07376 0.86727 0.0
H1247 H 0.04778 0.08746 0.94741 0.0
H1248 H 0.98888 0.14869 0.96356 0.0
H1249 H 0.02741 0.13047 0.93793 0.0
H1250 H 0.9736 0.07312 0.89804 0.0
H1251 H 0.93475 0.09275 0.92267 0.0
C1252 C 0.05164 0.05379 0.8759 0.0
C1253 C 0.07254 0.04984 0.89504 0.0
C1254 C 0.02941 0.07075 0.8823 0.0
C1255 C 0.0278 0.08351 0.90802 0.0
C1256 C 0.0487 0.07887 0.92708 0.0
C1257 C 0.07069 0.06224 0.92068 0.0
C1258 C 0.98525 0.13285 0.94856 0.0
C1259 C 0.95913 0.12183 0.94516 0.0
C1260 C 0.00725 0.12228 0.93401 0.0
C1261 C 0.00369 0.09977 0.91656 0.0
C1262 C 0.97705 0.09044 0.9113 0.0
C1263 C 0.95482 0.10158 0.92542 0.0
H1264 H 0.5716 0.065 0.58628 0.0
H1265 H 0.52763 0.01049 0.63951 0.0
H1266 H 0.59438 0.02582 0.56499 0.0
H1267 H 0.551 0.97166 0.61942 0.0
H1268 H 0.55398 0.91371 0.54767 0.0
H1269 H 0.54223 0.95262 0.57574 0.0
H1270 H 0.6237 0.9849 0.56538 0.0
H1271 H 0.63518 0.94551 0.53628 0.0
C1272 C 0.56772 0.04471 0.59413 0.0
C1273 C 0.54774 0.04051 0.61418 0.0
C1274 C 0.58073 0.02229 0.582 0.0
C1275 C 0.57401 0.99555 0.59009 0.0
C1276 C 0.55613 0.99188 0.61222 0.0
C1277 C 0.54285 0.01409 0.62387 0.0
C1278 C 0.56949 0.92893 0.55172 0.0
C1279 C 0.59566 0.92638 0.54063 0.0
C1280 C 0.56285 0.9512 0.56793 0.0
C1281 C 0.58223 0.97162 0.57341 0.0
C1282 C 0.60839 0.96942 0.56169 0.0
C1283 C 0.61499 0.94697 0.54517 0.0
H1284 H 0.56517 0.08853 0.93256 0.0
H1285 H 0.64064 0.05344 0.96119 0.0
H1286 H 0.55277 0.04546 0.91162 0.0
H1287 H 0.6274 0.00921 0.94102 0.0
H1288 H 0.5789 0.94647 0.87117 0.0
H1289 H 0.60546 0.98662 0.88619 0.0
H1290 H 0.5459 0.00195 0.94918 0.0
H1291 H 0.51953 0.96276 0.93422 0.0
C1292 C 0.57967 0.07188 0.93331 0.0
C1293 C 0.60425 0.07449 0.94765 0.0
C1294 C 0.57244 0.04716 0.92158 0.0
C1295 C 0.5892 0.02421 0.92474 0.0
C1296 C 0.61443 0.02685 0.93804 0.0
C1297 C 0.62187 0.05195 0.94964 0.0
C1298 C 0.57203 0.95811 0.88864 0.0
C1299 C 0.54706 0.95192 0.90135 0.0
C1300 C 0.58715 0.98092 0.89718 0.0
C1301 C 0.57741 0.99729 0.91858 0.0
C1302 C 0.55361 0.98968 0.93247 0.0
C1303 C 0.53853 0.96734 0.92387 0.0
H1304 H 0.45498 0.51604 0.84382 0.0
H1305 H 0.4176 0.56571 0.906 0.0
H1306 H 0.43086 0.47606 0.86099 0.0
H1307 H 0.39434 0.52543 0.92429 0.0
H1308 H 0.35486 0.44479 0.95077 0.0
H1309 H 0.36364 0.48535 0.92233 0.0
H1310 H 0.44339 0.4532 0.90242 0.0
H1311 H 0.43439 0.41336 0.93017 0.0
C1312 C 0.44086 0.51844 0.86067 0.0
C1313 C 0.43803 0.54368 0.8737 0.0
C1314 C 0.42722 0.49559 0.87066 0.0
C1315 C 0.41124 0.49744 0.89444 0.0
C1316 C 0.40642 0.52332 0.90591 0.0
C1317 C 0.41972 0.54638 0.89551 0.0
C1318 C 0.37399 0.44648 0.93985 0.0
C1319 C 0.39366 0.42578 0.9418 0.0
C1320 C 0.37905 0.46957 0.92367 0.0
C1321 C 0.40399 0.47226 0.90963 0.0
C1322 C 0.4236 0.45148 0.91211 0.0
C1323 C 0.41854 0.42865 0.9281 0.0
H1324 H 0.87229 0.05368 0.03872 0.0
H1325 H 0.94346 0.09938 0.06267 0.0
H1326 H 0.89028 0.01344 0.06274 0.0
H1327 H 0.96019 0.06066 0.08833 0.0
H1328 H 0.00398 0.98082 0.0891 0.0
H1329 H 0.98017 0.0201 0.07143 0.0
H1330 H 0.90458 0.99037 0.10575 0.0
H1331 H 0.92874 0.94984 0.123 0.0
C1332 C 0.89121 0.05537 0.05 0.0
C1333 C 0.90611 0.07982 0.04961 0.0
C1334 C 0.90145 0.03246 0.06383 0.0
C1335 C 0.92685 0.03373 0.07718 0.0
C1336 C 0.94083 0.05875 0.07785 0.0
C1337 C 0.93095 0.08122 0.06366 0.0
C1338 C 0.98229 0.98255 0.09304 0.0
C1339 C 0.96829 0.96233 0.10768 0.0
C1340 C 0.96862 0.00528 0.08305 0.0
C1341 C 0.94054 0.00877 0.0877 0.0
C1342 C 0.92624 0.9883 0.10191 0.0
C1343 C 0.94004 0.96518 0.11181 0.0
H1344 H 0.97784 0.1731 0.35769 0.0
H1345 H 0.05515 0.18753 0.31768 0.0
H1346 H 0.96526 0.22051 0.35041 0.0
H1347 H 0.04221 0.23486 0.3099 0.0
H1348 H 0.02662 0.32186 0.34467 0.0
H1349 H 0.03768 0.27384 0.33982 0.0
H1350 H 0.95398 0.25656 0.31832 0.0
H1351 H 0.94266 0.30469 0.32372 0.0
C1352 C 0.99195 0.18619 0.34685 0.0
C1353 C 0.01768 0.17648 0.33861 0.0
C1354 C 0.98464 0.21341 0.34251 0.0
C1355 C 0.00283 0.23157 0.32977 0.0
C1356 C 0.02791 0.22151 0.32018 0.0
C1357 C 0.03526 0.1943 0.32453 0.0
C1358 C 0.0106 0.30797 0.33847 0.0
C1359 C 0.98365 0.3172 0.33493 0.0
C1360 C 0.01701 0.28037 0.33551 0.0
C1361 C 0.99666 0.26128 0.3289 0.0
C1362 C 0.97003 0.27069 0.32385 0.0
C1363 C 0.9636 0.29834 0.32677 0.0
H1364 H 0.02035 0.67568 0.16281 0.0
H1365 H 0.93409 0.69023 0.1744 0.0
H1366 H 0.0293 0.72399 0.16892 0.0
H1367 H 0.94323 0.73872 0.18095 0.0
H1368 H 0.04208 0.80954 0.195 0.0
H1369 H 0.02888 0.76205 0.20059 0.0
H1370 H 0.95761 0.77596 0.15067 0.0
H1371 H 0.9705 0.82369 0.14542 0.0
C1372 C 0.00331 0.68907 0.16715 0.0
C1373 C 0.97646 0.679 0.16783 0.0
C1374 C 0.00848 0.71683 0.17084 0.0
C1375 C 0.98695 0.73527 0.1753 0.0
C1376 C 0.96022 0.72508 0.17722 0.0
C1377 C 0.95503 0.69723 0.17365 0.0
C1378 C 0.02332 0.80266 0.18557 0.0
C1379 C 0.00755 0.82043 0.16944 0.0
C1380 C 0.01584 0.77536 0.1887 0.0
C1381 C 0.99242 0.76511 0.17575 0.0
C1382 C 0.9757 0.78323 0.16106 0.0
C1383 C 0.98316 0.81061 0.15796 0.0
H1384 H 0.32568 0.05822 0.18812 0.0
H1385 H 0.34629 0.97347 0.17479 0.0
H1386 H 0.31778 0.0486 0.23631 0.0
H1387 H 0.33905 0.96412 0.22283 0.0
H1388 H 0.31286 0.94868 0.30768 0.0
H1389 H 0.30695 0.96095 0.25992 0.0
H1390 H 0.34696 0.03805 0.27473 0.0
H1391 H 0.35229 0.02617 0.32254 0.0
C1392 C 0.32822 0.03749 0.19533 0.0
C1393 C 0.33687 0.01668 0.17753 0.0
C1394 C 0.32383 0.03202 0.22301 0.0
C1395 C 0.32791 0.00563 0.2335 0.0
C1396 C 0.33535 0.98462 0.21545 0.0
C1397 C 0.33974 0.99006 0.18784 0.0
C1398 C 0.31988 0.96852 0.30092 0.0
C1399 C 0.33341 0.98626 0.31897 0.0
C1400 C 0.31664 0.97546 0.27346 0.0
C1401 C 0.32688 0.00028 0.26337 0.0
C1402 C 0.33867 0.01883 0.28179 0.0
C1403 C 0.34184 0.01193 0.30928 0.0
H1404 H 0.6393 0.5327 0.17442 0.0
H1405 H 0.67431 0.45193 0.18092 0.0
H1406 H 0.64677 0.53977 0.2229 0.0
H1407 H 0.6823 0.45936 0.22938 0.0
H1408 H 0.67513 0.55208 0.30854 0.0
H1409 H 0.67981 0.5452 0.25954 0.0
H1410 H 0.65223 0.462 0.26862 0.0
H1411 H 0.64808 0.46856 0.31753 0.0
C1412 C 0.64904 0.51662 0.18604 0.0
C1413 C 0.65588 0.49161 0.17375 0.0
C1414 C 0.65351 0.52077 0.21385 0.0
C1415 C 0.66497 0.50005 0.23004 0.0
C1416 C 0.67305 0.47556 0.21752 0.0
C1417 C 0.66857 0.47138 0.1897 0.0
C1418 C 0.67054 0.53215 0.30019 0.0
C1419 C 0.66092 0.51097 0.31701 0.0
C1420 C 0.67308 0.52829 0.27206 0.0
C1421 C 0.66613 0.50316 0.26015 0.0
C1422 C 0.65799 0.48155 0.27714 0.0
C1423 C 0.65543 0.48539 0.30523 0.0
H1424 H 0.30546 0.32441 0.93817 0.0
H1425 H 0.32231 0.34489 0.02229 0.0
H1426 H 0.2572 0.3194 0.94919 0.0
H1427 H 0.27419 0.34041 0.03305 0.0
H1428 H 0.18765 0.31868 0.04999 0.0
H1429 H 0.235 0.31068 0.03723 0.0
H1430 H 0.22127 0.35175 0.96048 0.0
H1431 H 0.17383 0.35927 0.97287 0.0
C1432 C 0.29901 0.32744 0.95909 0.0
C1433 C 0.31783 0.33536 0.97927 0.0
C1434 C 0.27129 0.32474 0.96534 0.0
C1435 C 0.26176 0.32976 0.99193 0.0
C1436 C 0.2808 0.33614 0.0124 0.0
C1437 C 0.30846 0.33889 0.00617 0.0
C1438 C 0.19455 0.32562 0.03018 0.0
C1439 C 0.1769 0.33991 0.0126 0.0
C1440 C 0.22178 0.32113 0.02294 0.0
C1441 C 0.23203 0.33081 0.99796 0.0
C1442 C 0.21402 0.34378 0.97977 0.0
C1443 C 0.18679 0.34826 0.98699 0.0
H1444 H 0.17781 0.64479 0.52831 0.0
H1445 H 0.18434 0.67443 0.44546 0.0
H1446 H 0.22634 0.65263 0.53487 0.0
H1447 H 0.23287 0.6827 0.4523 0.0
H1448 H 0.31183 0.68131 0.54567 0.0
H1449 H 0.26297 0.68634 0.538 0.0
H1450 H 0.27224 0.65264 0.45713 0.0
H1451 H 0.32103 0.64798 0.46451 0.0
C1452 C 0.18945 0.65341 0.51162 0.0
C1453 C 0.17713 0.65867 0.48626 0.0
C1454 C 0.2173 0.65811 0.51547 0.0
C1455 C 0.23352 0.66818 0.49405 0.0
C1456 C 0.22099 0.67461 0.46908 0.0
C1457 C 0.19312 0.66996 0.46524 0.0
C1458 C 0.30359 0.67552 0.52601 0.0
C1459 C 0.3204 0.66387 0.50585 0.0
C1460 C 0.27552 0.67823 0.52172 0.0
C1461 C 0.26366 0.66954 0.49712 0.0
C1462 C 0.28072 0.65969 0.47627 0.0
C1463 C 0.30876 0.6569 0.48057 0.0
H1464 H 0.67781 0.84853 0.46947 0.0
H1465 H 0.68418 0.82639 0.55465 0.0
H1466 H 0.72682 0.84323 0.46447 0.0
H1467 H 0.73327 0.82053 0.54938 0.0
H1468 H 0.82056 0.85616 0.53614 0.0
H1469 H 0.77157 0.85143 0.54275 0.0
H1470 H 0.76475 0.81155 0.46447 0.0
H1471 H 0.81361 0.81676 0.45751 0.0
C1472 C 0.68955 0.84206 0.48704 0.0
C1473 C 0.67699 0.83815 0.51253 0.0
C1474 C 0.7177 0.83884 0.48411 0.0
C1475 C 0.734 0.8316 0.50658 0.0
C1476 C 0.72133 0.82651 0.53178 0.0
C1477 C 0.69314 0.82971 0.53473 0.0
C1478 C 0.80872 0.84602 0.52049 0.0
C1479 C 0.82105 0.83716 0.49615 0.0
C1480 C 0.78061 0.84317 0.52435 0.0
C1481 C 0.76421 0.83134 0.50401 0.0
C1482 C 0.77674 0.8212 0.48032 0.0
C1483 C 0.80481 0.82409 0.47641 0.0
H1484 H 0.4458 0.81442 0.81478 0.0
H1485 H 0.5262 0.822 0.85035 0.0
H1486 H 0.45425 0.76623 0.80618 0.0
H1487 H 0.53428 0.77379 0.84233 0.0
H1488 H 0.54812 0.6881 0.81624 0.0
H1489 H 0.54061 0.73685 0.81024 0.0
H1490 H 0.45688 0.72711 0.83606 0.0
H1491 H 0.46409 0.67842 0.84144 0.0
C1492 C 0.46542 0.80596 0.82044 0.0
C1493 C 0.48518 0.82209 0.83361 0.0
C1494 C 0.47019 0.77827 0.81562 0.0
C1495 C 0.4948 0.76606 0.82385 0.0
C1496 C 0.51518 0.78255 0.83549 0.0
C1497 C 0.51045 0.81024 0.84026 0.0
C1498 C 0.52794 0.69624 0.82013 0.0
C1499 C 0.5068 0.6793 0.82967 0.0
C1500 C 0.5237 0.72424 0.81683 0.0
C1501 C 0.49825 0.73595 0.82297 0.0
C1502 C 0.47668 0.71878 0.8309 0.0
C1503 C 0.48089 0.69079 0.83416 0.0
H1504 H 0.46817 0.32238 0.64977 0.0
H1505 H 0.55259 0.31211 0.67338 0.0
H1506 H 0.46041 0.27396 0.65665 0.0
H1507 H 0.54456 0.26362 0.68079 0.0
H1508 H 0.44882 0.1878 0.68277 0.0
H1509 H 0.45817 0.2362 0.6886 0.0
H1510 H 0.53652 0.22575 0.64956 0.0
H1511 H 0.52752 0.17727 0.64422 0.0
C1512 C 0.48496 0.30994 0.65698 0.0
C1513 C 0.51111 0.32115 0.66065 0.0
C1514 C 0.48045 0.28214 0.66109 0.0
C1515 C 0.50195 0.26489 0.66903 0.0
C1516 C 0.5277 0.27633 0.67425 0.0
C1517 C 0.53223 0.30418 0.67016 0.0
C1518 C 0.46824 0.19569 0.67579 0.0
C1519 C 0.48729 0.17863 0.66272 0.0
C1520 C 0.47353 0.22349 0.67905 0.0
C1521 C 0.49796 0.23487 0.66932 0.0
C1522 C 0.5176 0.21759 0.65754 0.0
C1523 C 0.51234 0.18978 0.6543 0.0
H1524 H 0.85201 0.53669 0.81833 0.0
H1525 H 0.81508 0.45673 0.81307 0.0
H1526 H 0.84598 0.54262 0.76946 0.0
H1527 H 0.80854 0.46301 0.76427 0.0
H1528 H 0.82091 0.55285 0.6825 0.0
H1529 H 0.81442 0.54774 0.7315 0.0
H1530 H 0.83987 0.46351 0.72605 0.0
H1531 H 0.8458 0.46834 0.67712 0.0
C1532 C 0.84211 0.52059 0.8069 0.0
C1533 C 0.83439 0.49608 0.81964 0.0
C1534 C 0.83849 0.52408 0.77885 0.0
C1535 C 0.82699 0.50318 0.76293 0.0
C1536 C 0.81789 0.4793 0.77591 0.0
C1537 C 0.82155 0.47578 0.80393 0.0
C1538 C 0.82464 0.53308 0.69163 0.0
C1539 C 0.83419 0.51108 0.67583 0.0
C1540 C 0.82107 0.53023 0.71977 0.0
C1541 C 0.82689 0.50532 0.73272 0.0
C1542 C 0.83495 0.48293 0.71671 0.0
C1543 C 0.83852 0.48576 0.68861 0.0
H1544 H 0.16063 0.02244 0.6776 0.0
H1545 H 0.18044 0.93745 0.69066 0.0
H1546 H 0.16559 0.03104 0.72607 0.0
H1547 H 0.18604 0.94631 0.73927 0.0
H1548 H 0.1472 0.96672 0.82396 0.0
H1549 H 0.15473 0.95606 0.77613 0.0
H1550 H 0.19526 0.03353 0.76506 0.0
H1551 H 0.18715 0.04457 0.81279 0.0
C1552 C 0.1666 0.00566 0.69069 0.0
C1553 C 0.1698 0.97916 0.68016 0.0
C1554 C 0.16964 0.01066 0.71856 0.0
C1555 C 0.17603 0.98932 0.73665 0.0
C1556 C 0.1807 0.96311 0.72596 0.0
C1557 C 0.17765 0.95809 0.69803 0.0
C1558 C 0.15817 0.98132 0.81151 0.0
C1559 C 0.1662 0.00669 0.82223 0.0
C1560 C 0.16262 0.97512 0.78403 0.0
C1561 C 0.17532 0.99408 0.76663 0.0
C1562 C 0.18493 0.0187 0.77777 0.0
C1563 C 0.1804 0.02494 0.80521 0.0
H1564 H 0.82349 0.14842 0.96853 0.0
H1565 H 0.81172 0.18223 0.04915 0.0
H1566 H 0.77525 0.15456 0.95896 0.0
H1567 H 0.76349 0.18899 0.03923 0.0
H1568 H 0.69003 0.18109 0.94156 0.0
H1569 H 0.73845 0.18643 0.95139 0.0
H1570 H 0.72456 0.15945 0.03414 0.0
H1571 H 0.6762 0.15475 0.02462 0.0
C1572 C 0.81075 0.15758 0.98408 0.0
C1573 C 0.82154 0.16456 0.00973 0.0
C1574 C 0.78304 0.16131 0.9785 0.0
C1575 C 0.76543 0.17218 0.99837 0.0
C1576 C 0.77641 0.1802 0.02361 0.0
C1577 C 0.80412 0.17642 0.02924 0.0
C1578 C 0.69718 0.17681 0.96202 0.0
C1579 C 0.67916 0.16719 0.9822 0.0
C1580 C 0.72501 0.17968 0.96759 0.0
C1581 C 0.73548 0.17302 0.99345 0.0
C1582 C 0.71722 0.16497 0.01405 0.0
C1583 C 0.68941 0.16213 0.00852 0.0
H1584 H 0.98804 0.95342 0.20111 0.0
H1585 H 0.07 0.93288 0.22668 0.0
H1586 H 0.98806 0.99212 0.23215 0.0
H1587 H 0.06968 0.97133 0.25808 0.0
H1588 H 0.07387 0.05959 0.28487 0.0
H1589 H 0.07125 0.02094 0.25386 0.0
H1590 H 0.98848 0.00548 0.27989 0.0
H1591 H 0.99079 0.04443 0.31055 0.0
C1592 C 0.00588 0.95677 0.21371 0.0
C1593 C 0.0291 0.94003 0.21119 0.0
C1594 C 0.00586 0.97903 0.23152 0.0
C1595 C 0.02903 0.98509 0.24725 0.0
C1596 C 0.05173 0.96759 0.24575 0.0
C1597 C 0.05177 0.94533 0.22796 0.0
C1598 C 0.05493 0.04827 0.28372 0.0
C1599 C 0.03259 0.05517 0.30036 0.0
C1600 C 0.05356 0.02587 0.26616 0.0
C1601 C 0.02982 0.00983 0.26476 0.0
C1602 C 0.00705 0.01743 0.28044 0.0
C1603 C 0.00841 0.03983 0.29802 0.0
H1604 H 0.00488 0.43673 0.28424 0.0
H1605 H 0.91843 0.44599 0.29857 0.0
H1606 H 0.0039 0.47571 0.25358 0.0
H1607 H 0.91785 0.48641 0.27077 0.0
H1608 H 0.91747 0.54723 0.2027 0.0
H1609 H 0.918 0.50688 0.23057 0.0
H1610 H 0.00281 0.52175 0.25044 0.0
H1611 H 0.00286 0.56072 0.21973 0.0
C1612 C 0.98565 0.44709 0.28086 0.0
C1613 C 0.9618 0.43827 0.29408 0.0
C1614 C 0.98513 0.46988 0.26363 0.0
C1615 C 0.96091 0.48497 0.25983 0.0
C1616 C 0.93693 0.47546 0.27253 0.0
C1617 C 0.93728 0.45217 0.28888 0.0
C1618 C 0.93628 0.542 0.21301 0.0
C1619 C 0.96024 0.55708 0.20855 0.0
C1620 C 0.93656 0.51874 0.2294 0.0
C1621 C 0.96055 0.51042 0.24287 0.0
C1622 C 0.98411 0.52666 0.2398 0.0
C1623 C 0.98406 0.54944 0.22254 0.0
H1624 H 0.21299 0.98827 0.94026 0.0
H1625 H 0.19758 0.07423 0.95175 0.0
H1626 H 0.2448 0.98892 0.97837 0.0
H1627 H 0.22655 0.07443 0.99132 0.0
H1628 H 0.29793 0.07553 0.04785 0.0
H1629 H 0.26803 0.07477 0.00908 0.0
H1630 H 0.25048 0.9895 0.0243 0.0
H1631 H 0.2832 0.98975 0.06165 0.0
C1632 C 0.21634 0.0073 0.95099 0.0
C1633 C 0.20267 0.03118 0.94293 0.0
C1634 C 0.23426 0.00762 0.97324 0.0
C1635 C 0.2383 0.03166 0.98854 0.0
C1636 C 0.22475 0.05555 0.98005 0.0
C1637 C 0.20772 0.05543 0.95728 0.0
C1638 C 0.28771 0.05656 0.04306 0.0
C1639 C 0.29334 0.0326 0.05775 0.0
C1640 C 0.27012 0.05615 0.02073 0.0
C1641 C 0.2566 0.03201 0.01302 0.0
C1642 C 0.26101 0.00836 0.02882 0.0
C1643 C 0.27946 0.00856 0.05066 0.0
H1644 H 0.68734 0.52872 0.04134 0.0
H1645 H 0.71521 0.44689 0.05911 0.0
H1646 H 0.71859 0.53095 0.0028 0.0
H1647 H 0.74684 0.44944 0.02097 0.0
H1648 H 0.79777 0.53133 0.95076 0.0
H1649 H 0.7661 0.53225 0.98898 0.0
H1650 H 0.74282 0.44903 0.97173 0.0
H1651 H 0.77492 0.44779 0.9339 0.0
C1652 C 0.70059 0.51145 0.03749 0.0
C1653 C 0.69862 0.48754 0.0533 0.0
C1654 C 0.71846 0.51272 0.01529 0.0
C1655 C 0.73481 0.49017 0.00848 0.0
C1656 C 0.73395 0.46689 0.02521 0.0
C1657 C 0.71605 0.46556 0.04731 0.0
C1658 C 0.78552 0.51336 0.95472 0.0
C1659 C 0.78907 0.48939 0.93929 0.0
C1660 C 0.76739 0.5139 0.97674 0.0
C1661 C 0.75234 0.49054 0.98374 0.0
C1662 C 0.75469 0.46714 0.96732 0.0
C1663 C 0.77286 0.46654 0.9454 0.0
H1664 H 0.30133 0.91674 0.44815 0.0
H1665 H 0.28898 0.00342 0.4387 0.0
H1666 H 0.27386 0.91696 0.48883 0.0
H1667 H 0.25855 0.00334 0.47787 0.0
H1668 H 0.22346 0.00345 0.56224 0.0
H1669 H 0.25467 0.00261 0.52368 0.0
H1670 H 0.23383 0.91793 0.50937 0.0
H1671 H 0.20555 0.91816 0.54939 0.0
C1672 C 0.29216 0.93581 0.45439 0.0
C1673 C 0.29774 0.96012 0.44033 0.0
C1674 C 0.27598 0.93595 0.47782 0.0
C1675 C 0.26381 0.96024 0.48727 0.0
C1676 C 0.26815 0.98433 0.4721 0.0
C1677 C 0.28525 0.98434 0.44922 0.0
C1678 C 0.22617 0.98451 0.55118 0.0
C1679 C 0.21179 0.96095 0.55887 0.0
C1680 C 0.24373 0.9841 0.52862 0.0
C1681 C 0.24668 0.96034 0.51263 0.0
C1682 C 0.2328 0.93662 0.52103 0.0
C1683 C 0.21614 0.93679 0.54409 0.0
H1684 H 0.80303 0.47257 0.54262 0.0
H1685 H 0.78031 0.55646 0.55787 0.0
H1686 H 0.77251 0.47145 0.50352 0.0
H1687 H 0.74923 0.55502 0.51923 0.0
H1688 H 0.69486 0.47386 0.45 0.0
H1689 H 0.72583 0.47231 0.4887 0.0
H1690 H 0.75285 0.55419 0.47033 0.0
H1691 H 0.72132 0.55609 0.43206 0.0
C1692 C 0.79106 0.49059 0.53807 0.0
C1693 C 0.79426 0.51467 0.55339 0.0
C1694 C 0.77357 0.48994 0.51555 0.0
C1695 C 0.75877 0.51329 0.50791 0.0
C1696 C 0.7609 0.53689 0.52409 0.0
C1697 C 0.77848 0.53761 0.54649 0.0
C1698 C 0.70778 0.49137 0.45383 0.0
C1699 C 0.70545 0.51518 0.43792 0.0
C1700 C 0.72553 0.49048 0.47614 0.0
C1701 C 0.74147 0.51331 0.48297 0.0
C1702 C 0.7403 0.53651 0.46611 0.0
C1703 C 0.72245 0.53747 0.44392 0.0
H1704 H 0.0599 0.2854 0.06591 0.0
H1705 H 0.04326 0.31516 0.98452 0.0
H1706 H 0.02093 0.25487 0.06262 0.0
H1707 H 0.00394 0.28501 0.98157 0.0
H1708 H 0.93367 0.22708 0.0625 0.0
H1709 H 0.97153 0.25916 0.06245 0.0
H1710 H 0.98993 0.23763 0.97902 0.0
H1711 H 0.95176 0.20592 0.97877 0.0
C1712 C 0.04817 0.28526 0.04719 0.0
C1713 C 0.05479 0.30287 0.02553 0.0
C1714 C 0.02557 0.26798 0.04545 0.0
C1715 C 0.009 0.26787 0.02203 0.0
C1716 C 0.01629 0.28456 -0.00011 0.0
C1717 C 0.03891 0.30184 0.00161 0.0
C1718 C 0.94541 0.22954 0.04393 0.0
C1719 C 0.93967 0.21372 0.0207 0.0
C1720 C 0.96735 0.24771 0.04403 0.0
C1721 C 0.98413 0.25052 0.02093 0.0
C1722 C 0.97742 0.23598 0.99716 0.0
C1723 C 0.95542 0.21781 0.99702 0.0
H1724 H 0.04595 0.69019 0.52555 0.0
H1725 H 0.05934 0.71594 0.44222 0.0
H1726 H 0.00679 0.72056 0.52862 0.0
H1727 H 0.02058 0.74675 0.4456 0.0
H1728 H 0.95343 0.79888 0.52933 0.0
H1729 H 0.992 0.76764 0.52938 0.0
H1730 H 0.97148 0.74212 0.44758 0.0
H1731 H 0.93326 0.77381 0.44719 0.0
C1732 C 0.041 0.7028 0.50808 0.0
C1733 C 0.05581 0.70049 0.48356 0.0
C1734 C 0.01844 0.72017 0.50985 0.0
C1735 C 0.01022 0.7357 0.48719 0.0
C1736 C 0.02591 0.7345 0.4632 0.0
C1737 C 0.04838 0.71707 0.46137 0.0
C1738 C 0.95672 0.7862 0.51154 0.0
C1739 C 0.94028 0.78905 0.48816 0.0
C1740 C 0.97896 0.76832 0.51156 0.0
C1741 C 0.98518 0.75281 0.48827 0.0
C1742 C 0.9677 0.75436 0.46558 0.0
C1743 C 0.94556 0.77229 0.46549 0.0
H1744 H 0.54794 0.79595 0.47416 0.0
H1745 H 0.55895 0.78325 0.56078 0.0
H1746 H 0.51076 0.7628 0.47419 0.0
H1747 H 0.52145 0.75123 0.56093 0.0
H1748 H 0.46991 0.67686 0.54953 0.0
H1749 H 0.50848 0.7073 0.5466 0.0
H1750 H 0.46398 0.75807 0.48984 0.0
H1751 H 0.42506 0.72655 0.49259 0.0
C1752 C 0.54277 0.78583 0.49311 0.0
C1753 C 0.55659 0.79227 0.51746 0.0
C1754 C 0.52116 0.76714 0.49318 0.0
C1755 C 0.51292 0.75448 0.51758 0.0
C1756 C 0.52738 0.76028 0.54167 0.0
C1757 C 0.54897 0.77876 0.54158 0.0
C1758 C 0.4679 0.69492 0.53718 0.0
C1759 C 0.444 0.69999 0.52232 0.0
C1760 C 0.49023 0.71231 0.5352 0.0
C1761 C 0.48928 0.73545 0.51834 0.0
C1762 C 0.46546 0.74036 0.50296 0.0
C1763 C 0.44308 0.72258 0.50474 0.0
H1764 H 0.56546 0.5496 0.79332 0.0
H1765 H 0.47907 0.56013 0.77927 0.0
H1766 H 0.56591 0.51075 0.76358 0.0
H1767 H 0.47998 0.52262 0.74667 0.0
H1768 H 0.48244 0.43853 0.70871 0.0
H1769 H 0.48143 0.47654 0.7407 0.0
H1770 H 0.566 0.49388 0.72174 0.0
H1771 H 0.5676 0.45452 0.69266 0.0
C1772 C 0.54659 0.54407 0.78329 0.0
C1773 C 0.52216 0.55793 0.789 0.0
C1774 C 0.54688 0.5217 0.76579 0.0
C1775 C 0.52297 0.51311 0.75241 0.0
C1776 C 0.49872 0.52793 0.75704 0.0
C1777 C 0.49824 0.54982 0.77541 0.0
C1778 C 0.50093 0.45019 0.71196 0.0
C1779 C 0.52509 0.44341 0.69808 0.0
C1780 C 0.50027 0.47236 0.72998 0.0
C1781 C 0.52356 0.4888 0.73392 0.0
C1782 C 0.54771 0.48165 0.72009 0.0
C1783 C 0.54861 0.459 0.70297 0.0
H1784 H 0.43708 0.93979 0.78308 0.0
H1785 H 0.51898 0.95724 0.81092 0.0
H1786 H 0.4392 0.97879 0.75255 0.0
H1787 H 0.5208 0.99662 0.7806 0.0
H1788 H 0.43711 0.066 0.72561 0.0
H1789 H 0.43896 0.02828 0.75779 0.0
H1790 H 0.52156 0.01056 0.73267 0.0
H1791 H 0.52003 0.04861 0.70079 0.0
C1792 C 0.45566 0.95173 0.78252 0.0
C1793 C 0.4778 0.94536 0.79961 0.0
C1794 C 0.45674 0.97431 0.76522 0.0
C1795 C 0.47995 0.99113 0.76458 0.0
C1796 C 0.50261 0.98407 0.78065 0.0
C1797 C 0.50156 0.96142 0.79798 0.0
C1798 C 0.45589 0.05445 0.72727 0.0
C1799 C 0.47832 0.06029 0.71039 0.0
C1800 C 0.45682 0.0326 0.74552 0.0
C1801 C 0.48019 0.01605 0.74733 0.0
C1802 C 0.50325 0.02291 0.73175 0.0
C1803 C 0.50234 0.0448 0.71349 0.0
H1804 H 0.43643 0.2839 0.00304 0.0
H1805 H 0.44792 0.29773 0.91682 0.0
H1806 H 0.47512 0.25284 0.00314 0.0
H1807 H 0.48813 0.26971 0.91736 0.0
H1808 H 0.54911 0.202 0.91826 0.0
H1809 H 0.50881 0.22991 0.91785 0.0
H1810 H 0.52082 0.2484 0.00343 0.0
H1811 H 0.55958 0.21746 0.00432 0.0
C1812 C 0.44724 0.28034 0.9841 0.0
C1813 C 0.43909 0.29352 0.95998 0.0
C1814 C 0.46988 0.26288 0.9842 0.0
C1815 C 0.48555 0.25883 0.96038 0.0
C1816 C 0.47674 0.27157 0.93615 0.0
C1817 C 0.45357 0.2881 0.93585 0.0
C1818 C 0.5432 0.21195 0.93706 0.0
C1819 C 0.55742 0.20702 0.96143 0.0
C1820 C 0.51998 0.22842 0.9368 0.0
C1821 C 0.51088 0.2416 0.96068 0.0
C1822 C 0.52629 0.23802 0.98474 0.0
C1823 C 0.54896 0.22062 0.98521 0.0
loop_
_geom_bond_atom_site_label_1
_geom_bond_atom_site_label_2
_geom_bond_distance
_geom_bond_site_symmetry_2
_ccdc_geom_bond_type
Mn0 O5 2.095 . S
Mn0 O15 2.162 . S
Mn0 O16 2.297 . S
Mn0 O24 2.385 1_655 S
Mn0 O25 2.209 1_655 S
Mn0 O26 2.094 . S
Mn1 O6 2.121 . S
Mn1 N8 2.257 . S
Mn1 N17 2.282 . S
Mn1 O25 2.215 . S
Mn1 O27 2.117 . S
C2 O24 1.234 . S
C2 O25 1.283 . S
C3 O15 1.281 . S
C3 O16 1.236 . S
C4 O26 1.240 . S
C4 O27 1.264 1_655 S
O5 Mn0 2.095 . S
O5 C14 1.250 1_655 S
O6 Mn1 2.121 . S
O6 C14 1.258 . S
C7 N8 1.326 . S
C7 C11 1.460 . S
C7 H13 0.929 . S
N8 Mn1 2.257 . S
N8 C7 1.326 . S
N8 C12 1.362 . S
C9 C10 1.258 . S
C9 C12 1.431 . S
C9 C29 1.449 . S
C10 C9 1.258 . S
C10 C11 1.477 . S
C10 H30 0.931 . S
C11 C7 1.460 . S
C11 C10 1.477 . S
C11 H31 0.930 . S
C12 N8 1.362 . S
C12 C9 1.431 . S
C12 C22 1.476 . S
H13 C7 0.929 . S
C14 O5 1.250 1_455 S
C14 O6 1.258 . S
O15 Mn0 2.162 . S
O15 C3 1.281 . S
O16 Mn0 2.297 . S
O16 C3 1.236 . S
N17 Mn1 2.282 . S
N17 C18 1.328 . S
N17 C22 1.318 . S
C18 N17 1.328 . S
C18 C19 1.457 . S
C18 H23 0.929 . S
C19 C18 1.457 . S
C19 C20 1.291 . S
C19 H32 0.931 . S
C20 C19 1.291 . S
C20 C21 1.373 . S
C20 H33 0.929 . S
C21 C20 1.373 . S
C21 C22 1.396 . S
C21 C28 1.403 . S
C22 C12 1.476 . S
C22 N17 1.318 . S
C22 C21 1.396 . S
H23 C18 0.929 . S
O24 Mn0 2.385 1_455 S
O24 C2 1.234 . S
O25 Mn0 2.209 1_455 S
O25 Mn1 2.215 . S
O25 C2 1.283 . S
O26 Mn0 2.094 . S
O26 C4 1.240 . S
O27 Mn1 2.117 . S
O27 C4 1.264 1_455 S
C28 C21 1.403 . S
C28 C29 1.399 . S
C28 H34 0.929 . S
C29 C9 1.449 . S
C29 C28 1.399 . S
C29 H35 0.930 . S
H30 C10 0.931 . S
H31 C11 0.930 . S
H32 C19 0.931 . S
H33 C20 0.929 . S
H34 C28 0.929 . S
H35 C29 0.930 . S
Mn36 O41 2.095 . S
Mn36 O51 2.162 . S
Mn36 O52 2.297 . S
Mn36 O60 2.385 1_455 S
Mn36 O61 2.209 1_455 S
Mn36 O62 2.094 . S
Mn37 O42 2.121 . S
Mn37 N44 2.257 . S
Mn37 N53 2.282 . S
Mn37 O61 2.215 . S
Mn37 O63 2.117 . S
C38 O60 1.234 . S
C38 O61 1.283 . S
C39 O51 1.281 . S
C39 O52 1.236 . S
C40 O62 1.240 . S
C40 O63 1.264 1_455 S
O41 Mn36 2.095 . S
O41 C50 1.250 1_455 S
O42 Mn37 2.121 . S
O42 C50 1.258 . S
C43 N44 1.326 . S
C43 C47 1.460 . S
C43 H49 0.929 . S
N44 Mn37 2.257 . S
N44 C43 1.326 . S
N44 C48 1.362 . S
C45 C46 1.258 . S
C45 C48 1.431 . S
C45 C65 1.449 . S
C46 C45 1.258 . S
C46 C47 1.477 . S
C46 H66 0.931 . S
C47 C43 1.460 . S
C47 C46 1.477 . S
C47 H67 0.930 . S
C48 N44 1.362 . S
C48 C45 1.431 . S
C48 C58 1.476 . S
H49 C43 0.929 . S
C50 O41 1.250 1_655 S
C50 O42 1.258 . S
O51 Mn36 2.162 . S
O51 C39 1.281 . S
O52 Mn36 2.297 . S
O52 C39 1.236 . S
N53 Mn37 2.282 . S
N53 C54 1.328 . S
N53 C58 1.318 . S
C54 N53 1.328 . S
C54 C55 1.457 . S
C54 H59 0.929 . S
C55 C54 1.457 . S
C55 C56 1.291 . S
C55 H68 0.931 . S
C56 C55 1.291 . S
C56 C57 1.373 . S
C56 H69 0.929 . S
C57 C56 1.373 . S
C57 C58 1.396 . S
C57 C64 1.403 . S
C58 C48 1.476 . S
C58 N53 1.318 . S
C58 C57 1.396 . S
H59 C54 0.929 . S
O60 Mn36 2.385 1_655 S
O60 C38 1.234 . S
O61 Mn36 2.209 1_655 S
O61 Mn37 2.215 . S
O61 C38 1.283 . S
O62 Mn36 2.094 . S
O62 C40 1.240 . S
O63 Mn37 2.117 . S
O63 C40 1.264 1_655 S
C64 C57 1.403 . S
C64 C65 1.399 . S
C64 H70 0.929 . S
C65 C45 1.449 . S
C65 C64 1.399 . S
C65 H71 0.930 . S
H66 C46 0.931 . S
H67 C47 0.930 . S
H68 C55 0.931 . S
H69 C56 0.929 . S
H70 C64 0.929 . S
H71 C65 0.930 . S
Mn72 O77 2.095 . S
Mn72 O87 2.162 . S
Mn72 O88 2.297 . S
Mn72 O96 2.385 1_655 S
Mn72 O97 2.209 1_655 S
Mn72 O98 2.094 . S
Mn73 O78 2.121 . S
Mn73 N80 2.257 . S
Mn73 N89 2.282 . S
Mn73 O97 2.215 . S
Mn73 O99 2.117 . S
C74 O96 1.234 . S
C74 O97 1.283 . S
C75 O87 1.281 . S
C75 O88 1.236 . S
C76 O98 1.240 . S
C76 O99 1.264 1_655 S
O77 Mn72 2.095 . S
O77 C86 1.250 1_655 S
O78 Mn73 2.121 . S
O78 C86 1.258 . S
C79 N80 1.326 . S
C79 C83 1.460 . S
C79 H85 0.929 . S
N80 Mn73 2.257 . S
N80 C79 1.326 . S
N80 C84 1.362 . S
C81 C82 1.258 . S
C81 C84 1.431 . S
C81 C101 1.449 . S
C82 C81 1.258 . S
C82 C83 1.477 . S
C82 H102 0.931 . S
C83 C79 1.460 . S
C83 C82 1.477 . S
C83 H103 0.930 . S
C84 N80 1.362 . S
C84 C81 1.431 . S
C84 C94 1.476 . S
H85 C79 0.929 . S
C86 O77 1.250 1_455 S
C86 O78 1.258 . S
O87 Mn72 2.162 . S
O87 C75 1.281 . S
O88 Mn72 2.297 . S
O88 C75 1.236 . S
N89 Mn73 2.282 . S
N89 C90 1.328 . S
N89 C94 1.318 . S
C90 N89 1.328 . S
C90 C91 1.457 . S
C90 H95 0.929 . S
C91 C90 1.457 . S
C91 C92 1.291 . S
C91 H104 0.931 . S
C92 C91 1.291 . S
C92 C93 1.373 . S
C92 H105 0.929 . S
C93 C92 1.373 . S
C93 C94 1.396 . S
C93 C100 1.403 . S
C94 C84 1.476 . S
C94 N89 1.318 . S
C94 C93 1.396 . S
H95 C90 0.929 . S
O96 Mn72 2.385 1_455 S
O96 C74 1.234 . S
O97 Mn72 2.209 1_455 S
O97 Mn73 2.215 . S
O97 C74 1.283 . S
O98 Mn72 2.094 . S
O98 C76 1.240 . S
O99 Mn73 2.117 . S
O99 C76 1.264 1_455 S
C100 C93 1.403 . S
C100 C101 1.399 . S
C100 H106 0.929 . S
C101 C81 1.449 . S
C101 C100 1.399 . S
C101 H107 0.930 . S
H102 C82 0.931 . S
H103 C83 0.930 . S
H104 C91 0.931 . S
H105 C92 0.929 . S
H106 C100 0.929 . S
H107 C101 0.930 . S
Mn108 O113 2.095 . S
Mn108 O123 2.162 . S
Mn108 O124 2.297 . S
Mn108 O132 2.385 1_455 S
Mn108 O133 2.209 1_455 S
Mn108 O134 2.094 . S
Mn109 O114 2.121 . S
Mn109 N116 2.257 . S
Mn109 N125 2.282 . S
Mn109 O133 2.215 . S
Mn109 O135 2.117 . S
C110 O132 1.234 . S
C110 O133 1.283 . S
C111 O123 1.281 . S
C111 O124 1.236 . S
C112 O134 1.240 . S
C112 O135 1.264 1_455 S
O113 Mn108 2.095 . S
O113 C122 1.250 1_455 S
O114 Mn109 2.121 . S
O114 C122 1.258 . S
C115 N116 1.326 . S
C115 C119 1.460 . S
C115 H121 0.929 . S
N116 Mn109 2.257 . S
N116 C115 1.326 . S
N116 C120 1.362 . S
C117 C118 1.258 . S
C117 C120 1.431 . S
C117 C137 1.449 . S
C118 C117 1.258 . S
C118 C119 1.477 . S
C118 H138 0.931 . S
C119 C115 1.460 . S
C119 C118 1.477 . S
C119 H139 0.930 . S
C120 N116 1.362 . S
C120 C117 1.431 . S
C120 C130 1.476 . S
H121 C115 0.929 . S
C122 O113 1.250 1_655 S
C122 O114 1.258 . S
O123 Mn108 2.162 . S
O123 C111 1.281 . S
O124 Mn108 2.297 . S
O124 C111 1.236 . S
N125 Mn109 2.282 . S
N125 C126 1.328 . S
N125 C130 1.318 . S
C126 N125 1.328 . S
C126 C127 1.457 . S
C126 H131 0.929 . S
C127 C126 1.457 . S
C127 C128 1.291 . S
C127 H140 0.931 . S
C128 C127 1.291 . S
C128 C129 1.373 . S
C128 H141 0.929 . S
C129 C128 1.373 . S
C129 C130 1.396 . S
C129 C136 1.403 . S
C130 C120 1.476 . S
C130 N125 1.318 . S
C130 C129 1.396 . S
H131 C126 0.929 . S
O132 Mn108 2.385 1_655 S
O132 C110 1.234 . S
O133 Mn108 2.209 1_655 S
O133 Mn109 2.215 . S
O133 C110 1.283 . S
O134 Mn108 2.094 . S
O134 C112 1.240 . S
O135 Mn109 2.117 . S
O135 C112 1.264 1_655 S
C136 C129 1.403 . S
C136 C137 1.399 . S
C136 H142 0.929 . S
C137 C117 1.449 . S
C137 C136 1.399 . S
C137 H143 0.930 . S
H138 C118 0.931 . S
H139 C119 0.930 . S
H140 C127 0.931 . S
H141 C128 0.929 . S
H142 C136 0.929 . S
H143 C137 0.930 . S
Mn144 O149 2.095 . S
Mn144 O159 2.162 . S
Mn144 O160 2.297 . S
Mn144 O168 2.385 1_565 S
Mn144 O169 2.209 1_565 S
Mn144 O170 2.094 . S
Mn145 O150 2.121 . S
Mn145 N152 2.257 . S
Mn145 N161 2.282 . S
Mn145 O169 2.215 . S
Mn145 O171 2.117 . S
C146 O168 1.234 . S
C146 O169 1.283 . S
C147 O159 1.281 . S
C147 O160 1.236 . S
C148 O170 1.240 . S
C148 O171 1.264 1_565 S
O149 Mn144 2.095 . S
O149 C158 1.250 1_565 S
O150 Mn145 2.121 . S
O150 C158 1.258 . S
C151 N152 1.326 . S
C151 C155 1.460 . S
C151 H157 0.929 . S
N152 Mn145 2.257 . S
N152 C151 1.326 . S
N152 C156 1.362 . S
C153 C154 1.258 . S
C153 C156 1.431 . S
C153 C173 1.449 . S
C154 C153 1.258 . S
C154 C155 1.477 . S
C154 H174 0.931 . S
C155 C151 1.460 . S
C155 C154 1.477 . S
C155 H175 0.930 . S
C156 N152 1.362 . S
C156 C153 1.431 . S
C156 C166 1.476 . S
H157 C151 0.929 . S
C158 O149 1.250 1_545 S
C158 O150 1.258 . S
O159 Mn144 2.162 . S
O159 C147 1.281 . S
O160 Mn144 2.297 . S
O160 C147 1.236 . S
N161 Mn145 2.282 . S
N161 C162 1.328 . S
N161 C166 1.318 . S
C162 N161 1.328 . S
C162 C163 1.457 . S
C162 H167 0.929 . S
C163 C162 1.457 . S
C163 C164 1.291 . S
C163 H176 0.931 . S
C164 C163 1.291 . S
C164 C165 1.373 . S
C164 H177 0.929 . S
C165 C164 1.373 . S
C165 C166 1.396 . S
C165 C172 1.403 . S
C166 C156 1.476 . S
C166 N161 1.318 . S
C166 C165 1.396 . S
H167 C162 0.929 . S
O168 Mn144 2.385 1_545 S
O168 C146 1.234 . S
O169 Mn144 2.209 1_545 S
O169 Mn145 2.215 . S
O169 C146 1.283 . S
O170 Mn144 2.094 . S
O170 C148 1.240 . S
O171 Mn145 2.117 . S
O171 C148 1.264 1_545 S
C172 C165 1.403 . S
C172 C173 1.399 . S
C172 H178 0.929 . S
C173 C153 1.449 . S
C173 C172 1.399 . S
C173 H179 0.930 . S
H174 C154 0.931 . S
H175 C155 0.930 . S
H176 C163 0.931 . S
H177 C164 0.929 . S
H178 C172 0.929 . S
H179 C173 0.930 . S
Mn180 O185 2.095 . S
Mn180 O195 2.162 . S
Mn180 O196 2.297 . S
Mn180 O204 2.385 . S
Mn180 O205 2.209 . S
Mn180 O206 2.094 . S
Mn181 O186 2.121 . S
Mn181 N188 2.257 . S
Mn181 N197 2.282 . S
Mn181 O205 2.215 . S
Mn181 O207 2.117 . S
C182 O204 1.234 . S
C182 O205 1.283 . S
C183 O195 1.281 . S
C183 O196 1.236 . S
C184 O206 1.240 . S
C184 O207 1.264 . S
O185 Mn180 2.095 . S
O185 C194 1.250 . S
O186 Mn181 2.121 . S
O186 C194 1.258 . S
C187 N188 1.326 . S
C187 C191 1.460 . S
C187 H193 0.929 . S
N188 Mn181 2.257 . S
N188 C187 1.326 . S
N188 C192 1.362 . S
C189 C190 1.258 . S
C189 C192 1.431 . S
C189 C209 1.449 . S
C190 C189 1.258 . S
C190 C191 1.477 . S
C190 H210 0.931 . S
C191 C187 1.460 . S
C191 C190 1.477 . S
C191 H211 0.930 . S
C192 N188 1.362 . S
C192 C189 1.431 . S
C192 C202 1.476 . S
H193 C187 0.929 . S
C194 O185 1.250 . S
C194 O186 1.258 . S
O195 Mn180 2.162 . S
O195 C183 1.281 . S
O196 Mn180 2.297 . S
O196 C183 1.236 . S
N197 Mn181 2.282 . S
N197 C198 1.328 . S
N197 C202 1.318 . S
C198 N197 1.328 . S
C198 C199 1.457 . S
C198 H203 0.929 . S
C199 C198 1.457 . S
C199 C200 1.291 . S
C199 H212 0.931 . S
C200 C199 1.291 . S
C200 C201 1.373 . S
C200 H213 0.929 . S
C201 C200 1.373 . S
C201 C202 1.396 . S
C201 C208 1.403 . S
C202 C192 1.476 . S
C202 N197 1.318 . S
C202 C201 1.396 . S
H203 C198 0.929 . S
O204 Mn180 2.385 . S
O204 C182 1.234 . S
O205 Mn180 2.209 . S
O205 Mn181 2.215 . S
O205 C182 1.283 . S
O206 Mn180 2.094 . S
O206 C184 1.240 . S
O207 Mn181 2.117 . S
O207 C184 1.264 . S
C208 C201 1.403 . S
C208 C209 1.399 . S
C208 H214 0.929 . S
C209 C189 1.449 . S
C209 C208 1.399 . S
C209 H215 0.930 . S
H210 C190 0.931 . S
H211 C191 0.930 . S
H212 C199 0.931 . S
H213 C200 0.929 . S
H214 C208 0.929 . S
H215 C209 0.930 . S
Mn216 O221 2.095 . S
Mn216 O231 2.162 . S
Mn216 O232 2.297 . S
Mn216 O240 2.385 1_545 S
Mn216 O241 2.209 1_545 S
Mn216 O242 2.094 . S
Mn217 O222 2.121 . S
Mn217 N224 2.257 . S
Mn217 N233 2.282 . S
Mn217 O241 2.215 . S
Mn217 O243 2.117 . S
C218 O240 1.234 . S
C218 O241 1.283 . S
C219 O231 1.281 . S
C219 O232 1.236 . S
C220 O242 1.240 . S
C220 O243 1.264 1_545 S
O221 Mn216 2.095 . S
O221 C230 1.250 1_545 S
O222 Mn217 2.121 . S
O222 C230 1.258 . S
C223 N224 1.326 . S
C223 C227 1.460 . S
C223 H229 0.929 . S
N224 Mn217 2.257 . S
N224 C223 1.326 . S
N224 C228 1.362 . S
C225 C226 1.258 . S
C225 C228 1.431 . S
C225 C245 1.449 . S
C226 C225 1.258 . S
C226 C227 1.477 . S
C226 H246 0.931 . S
C227 C223 1.460 . S
C227 C226 1.477 . S
C227 H247 0.930 . S
C228 N224 1.362 . S
C228 C225 1.431 . S
C228 C238 1.476 . S
H229 C223 0.929 . S
C230 O221 1.250 1_565 S
C230 O222 1.258 . S
O231 Mn216 2.162 . S
O231 C219 1.281 . S
O232 Mn216 2.297 . S
O232 C219 1.236 . S
N233 Mn217 2.282 . S
N233 C234 1.328 . S
N233 C238 1.318 . S
C234 N233 1.328 . S
C234 C235 1.457 . S
C234 H239 0.929 . S
C235 C234 1.457 . S
C235 C236 1.291 . S
C235 H248 0.931 . S
C236 C235 1.291 . S
C236 C237 1.373 . S
C236 H249 0.929 . S
C237 C236 1.373 . S
C237 C238 1.396 . S
C237 C244 1.403 . S
C238 C228 1.476 . S
C238 N233 1.318 . S
C238 C237 1.396 . S
H239 C234 0.929 . S
O240 Mn216 2.385 1_565 S
O240 C218 1.234 . S
O241 Mn216 2.209 1_565 S
O241 Mn217 2.215 . S
O241 C218 1.283 . S
O242 Mn216 2.094 . S
O242 C220 1.240 . S
O243 Mn217 2.117 . S
O243 C220 1.264 1_565 S
C244 C237 1.403 . S
C244 C245 1.399 . S
C244 H250 0.929 . S
C245 C225 1.449 . S
C245 C244 1.399 . S
C245 H251 0.930 . S
H246 C226 0.931 . S
H247 C227 0.930 . S
H248 C235 0.931 . S
H249 C236 0.929 . S
H250 C244 0.929 . S
H251 C245 0.930 . S
Mn252 O257 2.095 . S
Mn252 O267 2.162 . S
Mn252 O268 2.297 . S
Mn252 O276 2.385 . S
Mn252 O277 2.209 . S
Mn252 O278 2.094 . S
Mn253 O258 2.121 . S
Mn253 N260 2.257 . S
Mn253 N269 2.282 . S
Mn253 O277 2.215 . S
Mn253 O279 2.117 . S
C254 O276 1.234 . S
C254 O277 1.283 . S
C255 O267 1.281 . S
C255 O268 1.236 . S
C256 O278 1.240 . S
C256 O279 1.264 . S
O257 Mn252 2.095 . S
O257 C266 1.250 . S
O258 Mn253 2.121 . S
O258 C266 1.258 . S
C259 N260 1.326 . S
C259 C263 1.460 . S
C259 H265 0.929 . S
N260 Mn253 2.257 . S
N260 C259 1.326 . S
N260 C264 1.362 . S
C261 C262 1.258 . S
C261 C264 1.431 . S
C261 C281 1.449 . S
C262 C261 1.258 . S
C262 C263 1.477 . S
C262 H282 0.931 . S
C263 C259 1.460 . S
C263 C262 1.477 . S
C263 H283 0.930 . S
C264 N260 1.362 . S
C264 C261 1.431 . S
C264 C274 1.476 . S
H265 C259 0.929 . S
C266 O257 1.250 . S
C266 O258 1.258 . S
O267 Mn252 2.162 . S
O267 C255 1.281 . S
O268 Mn252 2.297 . S
O268 C255 1.236 . S
N269 Mn253 2.282 . S
N269 C270 1.328 . S
N269 C274 1.318 . S
C270 N269 1.328 . S
C270 C271 1.457 . S
C270 H275 0.929 . S
C271 C270 1.457 . S
C271 C272 1.291 . S
C271 H284 0.931 . S
C272 C271 1.291 . S
C272 C273 1.373 . S
C272 H285 0.929 . S
C273 C272 1.373 . S
C273 C274 1.396 . S
C273 C280 1.403 . S
C274 C264 1.476 . S
C274 N269 1.318 . S
C274 C273 1.396 . S
H275 C270 0.929 . S
O276 Mn252 2.385 . S
O276 C254 1.234 . S
O277 Mn252 2.209 . S
O277 Mn253 2.215 . S
O277 C254 1.283 . S
O278 Mn252 2.094 . S
O278 C256 1.240 . S
O279 Mn253 2.117 . S
O279 C256 1.264 . S
C280 C273 1.403 . S
C280 C281 1.399 . S
C280 H286 0.929 . S
C281 C261 1.449 . S
C281 C280 1.399 . S
C281 H287 0.930 . S
H282 C262 0.931 . S
H283 C263 0.930 . S
H284 C271 0.931 . S
H285 C272 0.929 . S
H286 C280 0.929 . S
H287 C281 0.930 . S
Mn288 O293 2.095 . S
Mn288 O303 2.162 . S
Mn288 O304 2.297 . S
Mn288 O312 2.385 1_556 S
Mn288 O313 2.209 1_556 S
Mn288 O314 2.094 . S
Mn289 O294 2.121 . S
Mn289 N296 2.257 . S
Mn289 N305 2.282 . S
Mn289 O313 2.215 . S
Mn289 O315 2.117 . S
C290 O312 1.234 . S
C290 O313 1.283 . S
C291 O303 1.281 . S
C291 O304 1.236 . S
C292 O314 1.240 . S
C292 O315 1.264 1_556 S
O293 Mn288 2.095 . S
O293 C302 1.250 1_556 S
O294 Mn289 2.121 . S
O294 C302 1.258 . S
C295 N296 1.326 . S
C295 C299 1.460 . S
C295 H301 0.929 . S
N296 Mn289 2.257 . S
N296 C295 1.326 . S
N296 C300 1.362 . S
C297 C298 1.258 . S
C297 C300 1.431 . S
C297 C317 1.449 . S
C298 C297 1.258 . S
C298 C299 1.477 . S
C298 H318 0.931 . S
C299 C295 1.460 . S
C299 C298 1.477 . S
C299 H319 0.930 . S
C300 N296 1.362 . S
C300 C297 1.431 . S
C300 C310 1.476 . S
H301 C295 0.929 . S
C302 O293 1.250 1_554 S
C302 O294 1.258 . S
O303 Mn288 2.162 . S
O303 C291 1.281 . S
O304 Mn288 2.297 . S
O304 C291 1.236 . S
N305 Mn289 2.282 . S
N305 C306 1.328 . S
N305 C310 1.318 . S
C306 N305 1.328 . S
C306 C307 1.457 . S
C306 H311 0.929 . S
C307 C306 1.457 . S
C307 C308 1.291 . S
C307 H320 0.931 . S
C308 C307 1.291 . S
C308 C309 1.373 . S
C308 H321 0.929 . S
C309 C308 1.373 . S
C309 C310 1.396 . S
C309 C316 1.403 . S
C310 C300 1.476 . S
C310 N305 1.318 . S
C310 C309 1.396 . S
H311 C306 0.929 . S
O312 Mn288 2.385 1_554 S
O312 C290 1.234 . S
O313 Mn288 2.209 1_554 S
O313 Mn289 2.215 . S
O313 C290 1.283 . S
O314 Mn288 2.094 . S
O314 C292 1.240 . S
O315 Mn289 2.117 . S
O315 C292 1.264 1_554 S
C316 C309 1.403 . S
C316 C317 1.399 . S
C316 H322 0.929 . S
C317 C297 1.449 . S
C317 C316 1.399 . S
C317 H323 0.930 . S
H318 C298 0.931 . S
H319 C299 0.930 . S
H320 C307 0.931 . S
H321 C308 0.929 . S
H322 C316 0.929 . S
H323 C317 0.930 . S
Mn324 O329 2.095 . S
Mn324 O339 2.162 . S
Mn324 O340 2.297 . S
Mn324 O348 2.385 . S
Mn324 O349 2.209 . S
Mn324 O350 2.094 . S
Mn325 O330 2.121 . S
Mn325 N332 2.257 . S
Mn325 N341 2.282 . S
Mn325 O349 2.215 . S
Mn325 O351 2.117 . S
C326 O348 1.234 . S
C326 O349 1.283 . S
C327 O339 1.281 . S
C327 O340 1.236 . S
C328 O350 1.240 . S
C328 O351 1.264 . S
O329 Mn324 2.095 . S
O329 C338 1.250 . S
O330 Mn325 2.121 . S
O330 C338 1.258 . S
C331 N332 1.326 . S
C331 C335 1.460 . S
C331 H337 0.929 . S
N332 Mn325 2.257 . S
N332 C331 1.326 . S
N332 C336 1.362 . S
C333 C334 1.258 . S
C333 C336 1.431 . S
C333 C353 1.449 . S
C334 C333 1.258 . S
C334 C335 1.477 . S
C334 H354 0.931 . S
C335 C331 1.460 . S
C335 C334 1.477 . S
C335 H355 0.930 . S
C336 N332 1.362 . S
C336 C333 1.431 . S
C336 C346 1.476 . S
H337 C331 0.929 . S
C338 O329 1.250 . S
C338 O330 1.258 . S
O339 Mn324 2.162 . S
O339 C327 1.281 . S
O340 Mn324 2.297 . S
O340 C327 1.236 . S
N341 Mn325 2.282 . S
N341 C342 1.328 . S
N341 C346 1.318 . S
C342 N341 1.328 . S
C342 C343 1.457 . S
C342 H347 0.929 . S
C343 C342 1.457 . S
C343 C344 1.291 . S
C343 H356 0.931 . S
C344 C343 1.291 . S
C344 C345 1.373 . S
C344 H357 0.929 . S
C345 C344 1.373 . S
C345 C346 1.396 . S
C345 C352 1.403 . S
C346 C336 1.476 . S
C346 N341 1.318 . S
C346 C345 1.396 . S
H347 C342 0.929 . S
O348 Mn324 2.385 . S
O348 C326 1.234 . S
O349 Mn324 2.209 . S
O349 Mn325 2.215 . S
O349 C326 1.283 . S
O350 Mn324 2.094 . S
O350 C328 1.240 . S
O351 Mn325 2.117 . S
O351 C328 1.264 . S
C352 C345 1.403 . S
C352 C353 1.399 . S
C352 H358 0.929 . S
C353 C333 1.449 . S
C353 C352 1.399 . S
C353 H359 0.930 . S
H354 C334 0.931 . S
H355 C335 0.930 . S
H356 C343 0.931 . S
H357 C344 0.929 . S
H358 C352 0.929 . S
H359 C353 0.930 . S
Mn360 O365 2.095 . S
Mn360 O375 2.162 . S
Mn360 O376 2.297 . S
Mn360 O384 2.385 . S
Mn360 O385 2.209 . S
Mn360 O386 2.094 . S
Mn361 O366 2.121 . S
Mn361 N368 2.257 . S
Mn361 N377 2.282 . S
Mn361 O385 2.215 . S
Mn361 O387 2.117 . S
C362 O384 1.234 . S
C362 O385 1.283 . S
C363 O375 1.281 . S
C363 O376 1.236 . S
C364 O386 1.240 . S
C364 O387 1.264 . S
O365 Mn360 2.095 . S
O365 C374 1.250 . S
O366 Mn361 2.121 . S
O366 C374 1.258 . S
C367 N368 1.326 . S
C367 C371 1.460 . S
C367 H373 0.929 . S
N368 Mn361 2.257 . S
N368 C367 1.326 . S
N368 C372 1.362 . S
C369 C370 1.258 . S
C369 C372 1.431 . S
C369 C389 1.449 . S
C370 C369 1.258 . S
C370 C371 1.477 . S
C370 H390 0.931 . S
C371 C367 1.460 . S
C371 C370 1.477 . S
C371 H391 0.930 . S
C372 N368 1.362 . S
C372 C369 1.431 . S
C372 C382 1.476 . S
H373 C367 0.929 . S
C374 O365 1.250 . S
C374 O366 1.258 . S
O375 Mn360 2.162 . S
O375 C363 1.281 . S
O376 Mn360 2.297 . S
O376 C363 1.236 . S
N377 Mn361 2.282 . S
N377 C378 1.328 . S
N377 C382 1.318 . S
C378 N377 1.328 . S
C378 C379 1.457 . S
C378 H383 0.929 . S
C379 C378 1.457 . S
C379 C380 1.291 . S
C379 H392 0.931 . S
C380 C379 1.291 . S
C380 C381 1.373 . S
C380 H393 0.929 . S
C381 C380 1.373 . S
C381 C382 1.396 . S
C381 C388 1.403 . S
C382 C372 1.476 . S
C382 N377 1.318 . S
C382 C381 1.396 . S
H383 C378 0.929 . S
O384 Mn360 2.385 . S
O384 C362 1.234 . S
O385 Mn360 2.209 . S
O385 Mn361 2.215 . S
O385 C362 1.283 . S
O386 Mn360 2.094 . S
O386 C364 1.240 . S
O387 Mn361 2.117 . S
O387 C364 1.264 . S
C388 C381 1.403 . S
C388 C389 1.399 . S
C388 H394 0.929 . S
C389 C369 1.449 . S
C389 C388 1.399 . S
C389 H395 0.930 . S
H390 C370 0.931 . S
H391 C371 0.930 . S
H392 C379 0.931 . S
H393 C380 0.929 . S
H394 C388 0.929 . S
H395 C389 0.930 . S
Mn396 O401 2.095 . S
Mn396 O411 2.162 . S
Mn396 O412 2.297 . S
Mn396 O420 2.385 . S
Mn396 O421 2.209 . S
Mn396 O422 2.094 . S
Mn397 O402 2.121 . S
Mn397 N404 2.257 . S
Mn397 N413 2.282 . S
Mn397 O421 2.215 . S
Mn397 O423 2.117 . S
C398 O420 1.234 . S
C398 O421 1.283 . S
C399 O411 1.281 . S
C399 O412 1.236 . S
C400 O422 1.240 . S
C400 O423 1.264 . S
O401 Mn396 2.095 . S
O401 C410 1.250 . S
O402 Mn397 2.121 . S
O402 C410 1.258 . S
C403 N404 1.326 . S
C403 C407 1.460 . S
C403 H409 0.929 . S
N404 Mn397 2.257 . S
N404 C403 1.326 . S
N404 C408 1.362 . S
C405 C406 1.258 . S
C405 C408 1.431 . S
C405 C425 1.449 . S
C406 C405 1.258 . S
C406 C407 1.477 . S
C406 H426 0.931 . S
C407 C403 1.460 . S
C407 C406 1.477 . S
C407 H427 0.930 . S
C408 N404 1.362 . S
C408 C405 1.431 . S
C408 C418 1.476 . S
H409 C403 0.929 . S
C410 O401 1.250 . S
C410 O402 1.258 . S
O411 Mn396 2.162 . S
O411 C399 1.281 . S
O412 Mn396 2.297 . S
O412 C399 1.236 . S
N413 Mn397 2.282 . S
N413 C414 1.328 . S
N413 C418 1.318 . S
C414 N413 1.328 . S
C414 C415 1.457 . S
C414 H419 0.929 . S
C415 C414 1.457 . S
C415 C416 1.291 . S
C415 H428 0.931 . S
C416 C415 1.291 . S
C416 C417 1.373 . S
C416 H429 0.929 . S
C417 C416 1.373 . S
C417 C418 1.396 . S
C417 C424 1.403 . S
C418 C408 1.476 . S
C418 N413 1.318 . S
C418 C417 1.396 . S
H419 C414 0.929 . S
O420 Mn396 2.385 . S
O420 C398 1.234 . S
O421 Mn396 2.209 . S
O421 Mn397 2.215 . S
O421 C398 1.283 . S
O422 Mn396 2.094 . S
O422 C400 1.240 . S
O423 Mn397 2.117 . S
O423 C400 1.264 . S
C424 C417 1.403 . S
C424 C425 1.399 . S
C424 H430 0.929 . S
C425 C405 1.449 . S
C425 C424 1.399 . S
C425 H431 0.930 . S
H426 C406 0.931 . S
H427 C407 0.930 . S
H428 C415 0.931 . S
H429 C416 0.929 . S
H430 C424 0.929 . S
H431 C425 0.930 . S
Mn432 O437 2.095 . S
Mn432 O447 2.162 . S
Mn432 O448 2.297 . S
Mn432 O456 2.385 . S
Mn432 O457 2.209 . S
Mn432 O458 2.094 . S
Mn433 O438 2.121 . S
Mn433 N440 2.257 . S
Mn433 N449 2.282 . S
Mn433 O457 2.215 . S
Mn433 O459 2.117 . S
C434 O456 1.234 . S
C434 O457 1.283 . S
C435 O447 1.281 . S
C435 O448 1.236 . S
C436 O458 1.240 . S
C436 O459 1.264 . S
O437 Mn432 2.095 . S
O437 C446 1.250 . S
O438 Mn433 2.121 . S
O438 C446 1.258 . S
C439 N440 1.326 . S
C439 C443 1.460 . S
C439 H445 0.929 . S
N440 Mn433 2.257 . S
N440 C439 1.326 . S
N440 C444 1.362 . S
C441 C442 1.258 . S
C441 C444 1.431 . S
C441 C461 1.449 . S
C442 C441 1.258 . S
C442 C443 1.477 . S
C442 H462 0.931 . S
C443 C439 1.460 . S
C443 C442 1.477 . S
C443 H463 0.930 . S
C444 N440 1.362 . S
C444 C441 1.431 . S
C444 C454 1.476 . S
H445 C439 0.929 . S
C446 O437 1.250 . S
C446 O438 1.258 . S
O447 Mn432 2.162 . S
O447 C435 1.281 . S
O448 Mn432 2.297 . S
O448 C435 1.236 . S
N449 Mn433 2.282 . S
N449 C450 1.328 . S
N449 C454 1.318 . S
C450 N449 1.328 . S
C450 C451 1.457 . S
C450 H455 0.929 . S
C451 C450 1.457 . S
C451 C452 1.291 . S
C451 H464 0.931 . S
C452 C451 1.291 . S
C452 C453 1.373 . S
C452 H465 0.929 . S
C453 C452 1.373 . S
C453 C454 1.396 . S
C453 C460 1.403 . S
C454 C444 1.476 . S
C454 N449 1.318 . S
C454 C453 1.396 . S
H455 C450 0.929 . S
O456 Mn432 2.385 . S
O456 C434 1.234 . S
O457 Mn432 2.209 . S
O457 Mn433 2.215 . S
O457 C434 1.283 . S
O458 Mn432 2.094 . S
O458 C436 1.240 . S
O459 Mn433 2.117 . S
O459 C436 1.264 . S
C460 C453 1.403 . S
C460 C461 1.399 . S
C460 H466 0.929 . S
C461 C441 1.449 . S
C461 C460 1.399 . S
C461 H467 0.930 . S
H462 C442 0.931 . S
H463 C443 0.930 . S
H464 C451 0.931 . S
H465 C452 0.929 . S
H466 C460 0.929 . S
H467 C461 0.930 . S
Mn468 O473 2.095 . S
Mn468 O483 2.162 . S
Mn468 O484 2.297 . S
Mn468 O492 2.385 . S
Mn468 O493 2.209 . S
Mn468 O494 2.094 . S
Mn469 O474 2.121 . S
Mn469 N476 2.257 . S
Mn469 N485 2.282 . S
Mn469 O493 2.215 . S
Mn469 O495 2.117 . S
C470 O492 1.234 . S
C470 O493 1.283 . S
C471 O483 1.281 . S
C471 O484 1.236 . S
C472 O494 1.240 . S
C472 O495 1.264 . S
O473 Mn468 2.095 . S
O473 C482 1.250 . S
O474 Mn469 2.121 . S
O474 C482 1.258 . S
C475 N476 1.326 . S
C475 C479 1.460 . S
C475 H481 0.929 . S
N476 Mn469 2.257 . S
N476 C475 1.326 . S
N476 C480 1.362 . S
C477 C478 1.258 . S
C477 C480 1.431 . S
C477 C497 1.449 . S
C478 C477 1.258 . S
C478 C479 1.477 . S
C478 H498 0.931 . S
C479 C475 1.460 . S
C479 C478 1.477 . S
C479 H499 0.930 . S
C480 N476 1.362 . S
C480 C477 1.431 . S
C480 C490 1.476 . S
H481 C475 0.929 . S
C482 O473 1.250 . S
C482 O474 1.258 . S
O483 Mn468 2.162 . S
O483 C471 1.281 . S
O484 Mn468 2.297 . S
O484 C471 1.236 . S
N485 Mn469 2.282 . S
N485 C486 1.328 . S
N485 C490 1.318 . S
C486 N485 1.328 . S
C486 C487 1.457 . S
C486 H491 0.929 . S
C487 C486 1.457 . S
C487 C488 1.291 . S
C487 H500 0.931 . S
C488 C487 1.291 . S
C488 C489 1.373 . S
C488 H501 0.929 . S
C489 C488 1.373 . S
C489 C490 1.396 . S
C489 C496 1.403 . S
C490 C480 1.476 . S
C490 N485 1.318 . S
C490 C489 1.396 . S
H491 C486 0.929 . S
O492 Mn468 2.385 . S
O492 C470 1.234 . S
O493 Mn468 2.209 . S
O493 Mn469 2.215 . S
O493 C470 1.283 . S
O494 Mn468 2.094 . S
O494 C472 1.240 . S
O495 Mn469 2.117 . S
O495 C472 1.264 . S
C496 C489 1.403 . S
C496 C497 1.399 . S
C496 H502 0.929 . S
C497 C477 1.449 . S
C497 C496 1.399 . S
C497 H503 0.930 . S
H498 C478 0.931 . S
H499 C479 0.930 . S
H500 C487 0.931 . S
H501 C488 0.929 . S
H502 C496 0.929 . S
H503 C497 0.930 . S
Mn504 O509 2.095 . S
Mn504 O519 2.162 . S
Mn504 O520 2.297 . S
Mn504 O528 2.385 . S
Mn504 O529 2.209 . S
Mn504 O530 2.094 . S
Mn505 O510 2.121 . S
Mn505 N512 2.257 . S
Mn505 N521 2.282 . S
Mn505 O529 2.215 . S
Mn505 O531 2.117 . S
C506 O528 1.234 . S
C506 O529 1.283 . S
C507 O519 1.281 . S
C507 O520 1.236 . S
C508 O530 1.240 . S
C508 O531 1.264 . S
O509 Mn504 2.095 . S
O509 C518 1.250 . S
O510 Mn505 2.121 . S
O510 C518 1.258 . S
C511 N512 1.326 . S
C511 C515 1.460 . S
C511 H517 0.929 . S
N512 Mn505 2.257 . S
N512 C511 1.326 . S
N512 C516 1.362 . S
C513 C514 1.258 . S
C513 C516 1.431 . S
C513 C533 1.449 . S
C514 C513 1.258 . S
C514 C515 1.477 . S
C514 H534 0.931 . S
C515 C511 1.460 . S
C515 C514 1.477 . S
C515 H535 0.930 . S
C516 N512 1.362 . S
C516 C513 1.431 . S
C516 C526 1.476 . S
H517 C511 0.929 . S
C518 O509 1.250 . S
C518 O510 1.258 . S
O519 Mn504 2.162 . S
O519 C507 1.281 . S
O520 Mn504 2.297 . S
O520 C507 1.236 . S
N521 Mn505 2.282 . S
N521 C522 1.328 . S
N521 C526 1.318 . S
C522 N521 1.328 . S
C522 C523 1.457 . S
C522 H527 0.929 . S
C523 C522 1.457 . S
C523 C524 1.291 . S
C523 H536 0.931 . S
C524 C523 1.291 . S
C524 C525 1.373 . S
C524 H537 0.929 . S
C525 C524 1.373 . S
C525 C526 1.396 . S
C525 C532 1.403 . S
C526 C516 1.476 . S
C526 N521 1.318 . S
C526 C525 1.396 . S
H527 C522 0.929 . S
O528 Mn504 2.385 . S
O528 C506 1.234 . S
O529 Mn504 2.209 . S
O529 Mn505 2.215 . S
O529 C506 1.283 . S
O530 Mn504 2.094 . S
O530 C508 1.240 . S
O531 Mn505 2.117 . S
O531 C508 1.264 . S
C532 C525 1.403 . S
C532 C533 1.399 . S
C532 H538 0.929 . S
C533 C513 1.449 . S
C533 C532 1.399 . S
C533 H539 0.930 . S
H534 C514 0.931 . S
H535 C515 0.930 . S
H536 C523 0.931 . S
H537 C524 0.929 . S
H538 C532 0.929 . S
H539 C533 0.930 . S
Mn540 O545 2.095 . S
Mn540 O555 2.162 . S
Mn540 O556 2.297 . S
Mn540 O564 2.385 . S
Mn540 O565 2.209 . S
Mn540 O566 2.094 . S
Mn541 O546 2.121 . S
Mn541 N548 2.257 . S
Mn541 N557 2.282 . S
Mn541 O565 2.215 . S
Mn541 O567 2.117 . S
C542 O564 1.234 . S
C542 O565 1.283 . S
C543 O555 1.281 . S
C543 O556 1.236 . S
C544 O566 1.240 . S
C544 O567 1.264 . S
O545 Mn540 2.095 . S
O545 C554 1.250 . S
O546 Mn541 2.121 . S
O546 C554 1.258 . S
C547 N548 1.326 . S
C547 C551 1.460 . S
C547 H553 0.929 . S
N548 Mn541 2.257 . S
N548 C547 1.326 . S
N548 C552 1.362 . S
C549 C550 1.258 . S
C549 C552 1.431 . S
C549 C569 1.449 . S
C550 C549 1.258 . S
C550 C551 1.477 . S
C550 H570 0.931 . S
C551 C547 1.460 . S
C551 C550 1.477 . S
C551 H571 0.930 . S
C552 N548 1.362 . S
C552 C549 1.431 . S
C552 C562 1.476 . S
H553 C547 0.929 . S
C554 O545 1.250 . S
C554 O546 1.258 . S
O555 Mn540 2.162 . S
O555 C543 1.281 . S
O556 Mn540 2.297 . S
O556 C543 1.236 . S
N557 Mn541 2.282 . S
N557 C558 1.328 . S
N557 C562 1.318 . S
C558 N557 1.328 . S
C558 C559 1.457 . S
C558 H563 0.929 . S
C559 C558 1.457 . S
C559 C560 1.291 . S
C559 H572 0.931 . S
C560 C559 1.291 . S
C560 C561 1.373 . S
C560 H573 0.929 . S
C561 C560 1.373 . S
C561 C562 1.396 . S
C561 C568 1.403 . S
C562 C552 1.476 . S
C562 N557 1.318 . S
C562 C561 1.396 . S
H563 C558 0.929 . S
O564 Mn540 2.385 . S
O564 C542 1.234 . S
O565 Mn540 2.209 . S
O565 Mn541 2.215 . S
O565 C542 1.283 . S
O566 Mn540 2.094 . S
O566 C544 1.240 . S
O567 Mn541 2.117 . S
O567 C544 1.264 . S
C568 C561 1.403 . S
C568 C569 1.399 . S
C568 H574 0.929 . S
C569 C549 1.449 . S
C569 C568 1.399 . S
C569 H575 0.930 . S
H570 C550 0.931 . S
H571 C551 0.930 . S
H572 C559 0.931 . S
H573 C560 0.929 . S
H574 C568 0.929 . S
H575 C569 0.930 . S
Mn576 O581 2.095 . S
Mn576 O591 2.162 . S
Mn576 O592 2.297 . S
Mn576 O600 2.385 . S
Mn576 O601 2.209 . S
Mn576 O602 2.094 . S
Mn577 O582 2.121 . S
Mn577 N584 2.257 . S
Mn577 N593 2.282 . S
Mn577 O601 2.215 . S
Mn577 O603 2.117 . S
C578 O600 1.234 . S
C578 O601 1.283 . S
C579 O591 1.281 . S
C579 O592 1.236 . S
C580 O602 1.240 . S
C580 O603 1.264 . S
O581 Mn576 2.095 . S
O581 C590 1.250 . S
O582 Mn577 2.121 . S
O582 C590 1.258 . S
C583 N584 1.326 . S
C583 C587 1.460 . S
C583 H589 0.929 . S
N584 Mn577 2.257 . S
N584 C583 1.326 . S
N584 C588 1.362 . S
C585 C586 1.258 . S
C585 C588 1.431 . S
C585 C605 1.449 . S
C586 C585 1.258 . S
C586 C587 1.477 . S
C586 H606 0.931 . S
C587 C583 1.460 . S
C587 C586 1.477 . S
C587 H607 0.930 . S
C588 N584 1.362 . S
C588 C585 1.431 . S
C588 C598 1.476 . S
H589 C583 0.929 . S
C590 O581 1.250 . S
C590 O582 1.258 . S
O591 Mn576 2.162 . S
O591 C579 1.281 . S
O592 Mn576 2.297 . S
O592 C579 1.236 . S
N593 Mn577 2.282 . S
N593 C594 1.328 . S
N593 C598 1.318 . S
C594 N593 1.328 . S
C594 C595 1.457 . S
C594 H599 0.929 . S
C595 C594 1.457 . S
C595 C596 1.291 . S
C595 H608 0.931 . S
C596 C595 1.291 . S
C596 C597 1.373 . S
C596 H609 0.929 . S
C597 C596 1.373 . S
C597 C598 1.396 . S
C597 C604 1.403 . S
C598 C588 1.476 . S
C598 N593 1.318 . S
C598 C597 1.396 . S
H599 C594 0.929 . S
O600 Mn576 2.385 . S
O600 C578 1.234 . S
O601 Mn576 2.209 . S
O601 Mn577 2.215 . S
O601 C578 1.283 . S
O602 Mn576 2.094 . S
O602 C580 1.240 . S
O603 Mn577 2.117 . S
O603 C580 1.264 . S
C604 C597 1.403 . S
C604 C605 1.399 . S
C604 H610 0.929 . S
C605 C585 1.449 . S
C605 C604 1.399 . S
C605 H611 0.930 . S
H606 C586 0.931 . S
H607 C587 0.930 . S
H608 C595 0.931 . S
H609 C596 0.929 . S
H610 C604 0.929 . S
H611 C605 0.930 . S
Mn612 O617 2.095 . S
Mn612 O627 2.162 . S
Mn612 O628 2.297 . S
Mn612 O636 2.385 1_545 S
Mn612 O637 2.209 1_545 S
Mn612 O638 2.094 . S
Mn613 O618 2.121 . S
Mn613 N620 2.257 . S
Mn613 N629 2.282 . S
Mn613 O637 2.215 . S
Mn613 O639 2.117 . S
C614 O636 1.234 . S
C614 O637 1.283 . S
C615 O627 1.281 . S
C615 O628 1.236 . S
C616 O638 1.240 . S
C616 O639 1.264 1_545 S
O617 Mn612 2.095 . S
O617 C626 1.250 1_545 S
O618 Mn613 2.121 . S
O618 C626 1.258 . S
C619 N620 1.326 . S
C619 C623 1.460 . S
C619 H625 0.929 . S
N620 Mn613 2.257 . S
N620 C619 1.326 . S
N620 C624 1.362 . S
C621 C622 1.258 . S
C621 C624 1.431 . S
C621 C641 1.449 . S
C622 C621 1.258 . S
C622 C623 1.477 . S
C622 H642 0.931 . S
C623 C619 1.460 . S
C623 C622 1.477 . S
C623 H643 0.930 . S
C624 N620 1.362 . S
C624 C621 1.431 . S
C624 C634 1.476 . S
H625 C619 0.929 . S
C626 O617 1.250 1_565 S
C626 O618 1.258 . S
O627 Mn612 2.162 . S
O627 C615 1.281 . S
O628 Mn612 2.297 . S
O628 C615 1.236 . S
N629 Mn613 2.282 . S
N629 C630 1.328 . S
N629 C634 1.318 . S
C630 N629 1.328 . S
C630 C631 1.457 . S
C630 H635 0.929 . S
C631 C630 1.457 . S
C631 C632 1.291 . S
C631 H644 0.931 . S
C632 C631 1.291 . S
C632 C633 1.373 . S
C632 H645 0.929 . S
C633 C632 1.373 . S
C633 C634 1.396 . S
C633 C640 1.403 . S
C634 C624 1.476 . S
C634 N629 1.318 . S
C634 C633 1.396 . S
H635 C630 0.929 . S
O636 Mn612 2.385 1_565 S
O636 C614 1.234 . S
O637 Mn612 2.209 1_565 S
O637 Mn613 2.215 . S
O637 C614 1.283 . S
O638 Mn612 2.094 . S
O638 C616 1.240 . S
O639 Mn613 2.117 . S
O639 C616 1.264 1_565 S
C640 C633 1.403 . S
C640 C641 1.399 . S
C640 H646 0.929 . S
C641 C621 1.449 . S
C641 C640 1.399 . S
C641 H647 0.930 . S
H642 C622 0.931 . S
H643 C623 0.930 . S
H644 C631 0.931 . S
H645 C632 0.929 . S
H646 C640 0.929 . S
H647 C641 0.930 . S
Mn648 O653 2.095 . S
Mn648 O663 2.162 . S
Mn648 O664 2.297 . S
Mn648 O672 2.385 . S
Mn648 O673 2.209 . S
Mn648 O674 2.094 . S
Mn649 O654 2.121 . S
Mn649 N656 2.257 . S
Mn649 N665 2.282 . S
Mn649 O673 2.215 . S
Mn649 O675 2.117 . S
C650 O672 1.234 . S
C650 O673 1.283 . S
C651 O663 1.281 . S
C651 O664 1.236 . S
C652 O674 1.240 . S
C652 O675 1.264 . S
O653 Mn648 2.095 . S
O653 C662 1.250 . S
O654 Mn649 2.121 . S
O654 C662 1.258 . S
C655 N656 1.326 . S
C655 C659 1.460 . S
C655 H661 0.929 . S
N656 Mn649 2.257 . S
N656 C655 1.326 . S
N656 C660 1.362 . S
C657 C658 1.258 . S
C657 C660 1.431 . S
C657 C677 1.449 . S
C658 C657 1.258 . S
C658 C659 1.477 . S
C658 H678 0.931 . S
C659 C655 1.460 . S
C659 C658 1.477 . S
C659 H679 0.930 . S
C660 N656 1.362 . S
C660 C657 1.431 . S
C660 C670 1.476 . S
H661 C655 0.929 . S
C662 O653 1.250 . S
C662 O654 1.258 . S
O663 Mn648 2.162 . S
O663 C651 1.281 . S
O664 Mn648 2.297 . S
O664 C651 1.236 . S
N665 Mn649 2.282 . S
N665 C666 1.328 . S
N665 C670 1.318 . S
C666 N665 1.328 . S
C666 C667 1.457 . S
C666 H671 0.929 . S
C667 C666 1.457 . S
C667 C668 1.291 . S
C667 H680 0.931 . S
C668 C667 1.291 . S
C668 C669 1.373 . S
C668 H681 0.929 . S
C669 C668 1.373 . S
C669 C670 1.396 . S
C669 C676 1.403 . S
C670 C660 1.476 . S
C670 N665 1.318 . S
C670 C669 1.396 . S
H671 C666 0.929 . S
O672 Mn648 2.385 . S
O672 C650 1.234 . S
O673 Mn648 2.209 . S
O673 Mn649 2.215 . S
O673 C650 1.283 . S
O674 Mn648 2.094 . S
O674 C652 1.240 . S
O675 Mn649 2.117 . S
O675 C652 1.264 . S
C676 C669 1.403 . S
C676 C677 1.399 . S
C676 H682 0.929 . S
C677 C657 1.449 . S
C677 C676 1.399 . S
C677 H683 0.930 . S
H678 C658 0.931 . S
H679 C659 0.930 . S
H680 C667 0.931 . S
H681 C668 0.929 . S
H682 C676 0.929 . S
H683 C677 0.930 . S
Mn684 O689 2.095 . S
Mn684 O699 2.162 . S
Mn684 O700 2.297 . S
Mn684 O708 2.385 1_565 S
Mn684 O709 2.209 1_565 S
Mn684 O710 2.094 . S
Mn685 O690 2.121 . S
Mn685 N692 2.257 . S
Mn685 N701 2.282 . S
Mn685 O709 2.215 . S
Mn685 O711 2.117 . S
C686 O708 1.234 . S
C686 O709 1.283 . S
C687 O699 1.281 . S
C687 O700 1.236 . S
C688 O710 1.240 . S
C688 O711 1.264 1_565 S
O689 Mn684 2.095 . S
O689 C698 1.250 1_565 S
O690 Mn685 2.121 . S
O690 C698 1.258 . S
C691 N692 1.326 . S
C691 C695 1.460 . S
C691 H697 0.929 . S
N692 Mn685 2.257 . S
N692 C691 1.326 . S
N692 C696 1.362 . S
C693 C694 1.258 . S
C693 C696 1.431 . S
C693 C713 1.449 . S
C694 C693 1.258 . S
C694 C695 1.477 . S
C694 H714 0.931 . S
C695 C691 1.460 . S
C695 C694 1.477 . S
C695 H715 0.930 . S
C696 N692 1.362 . S
C696 C693 1.431 . S
C696 C706 1.476 . S
H697 C691 0.929 . S
C698 O689 1.250 1_545 S
C698 O690 1.258 . S
O699 Mn684 2.162 . S
O699 C687 1.281 . S
O700 Mn684 2.297 . S
O700 C687 1.236 . S
N701 Mn685 2.282 . S
N701 C702 1.328 . S
N701 C706 1.318 . S
C702 N701 1.328 . S
C702 C703 1.457 . S
C702 H707 0.929 . S
C703 C702 1.457 . S
C703 C704 1.291 . S
C703 H716 0.931 . S
C704 C703 1.291 . S
C704 C705 1.373 . S
C704 H717 0.929 . S
C705 C704 1.373 . S
C705 C706 1.396 . S
C705 C712 1.403 . S
C706 C696 1.476 . S
C706 N701 1.318 . S
C706 C705 1.396 . S
H707 C702 0.929 . S
O708 Mn684 2.385 1_545 S
O708 C686 1.234 . S
O709 Mn684 2.209 1_545 S
O709 Mn685 2.215 . S
O709 C686 1.283 . S
O710 Mn684 2.094 . S
O710 C688 1.240 . S
O711 Mn685 2.117 . S
O711 C688 1.264 1_545 S
C712 C705 1.403 . S
C712 C713 1.399 . S
C712 H718 0.929 . S
C713 C693 1.449 . S
C713 C712 1.399 . S
C713 H719 0.930 . S
H714 C694 0.931 . S
H715 C695 0.930 . S
H716 C703 0.931 . S
H717 C704 0.929 . S
H718 C712 0.929 . S
H719 C713 0.930 . S
Mn720 O725 2.095 . S
Mn720 O735 2.162 . S
Mn720 O736 2.297 . S
Mn720 O744 2.385 . S
Mn720 O745 2.209 . S
Mn720 O746 2.094 . S
Mn721 O726 2.121 . S
Mn721 N728 2.257 . S
Mn721 N737 2.282 . S
Mn721 O745 2.215 . S
Mn721 O747 2.117 . S
C722 O744 1.234 . S
C722 O745 1.283 . S
C723 O735 1.281 . S
C723 O736 1.236 . S
C724 O746 1.240 . S
C724 O747 1.264 . S
O725 Mn720 2.095 . S
O725 C734 1.250 . S
O726 Mn721 2.121 . S
O726 C734 1.258 . S
C727 N728 1.326 . S
C727 C731 1.460 . S
C727 H733 0.929 . S
N728 Mn721 2.257 . S
N728 C727 1.326 . S
N728 C732 1.362 . S
C729 C730 1.258 . S
C729 C732 1.431 . S
C729 C749 1.449 . S
C730 C729 1.258 . S
C730 C731 1.477 . S
C730 H750 0.931 . S
C731 C727 1.460 . S
C731 C730 1.477 . S
C731 H751 0.930 . S
C732 N728 1.362 . S
C732 C729 1.431 . S
C732 C742 1.476 . S
H733 C727 0.929 . S
C734 O725 1.250 . S
C734 O726 1.258 . S
O735 Mn720 2.162 . S
O735 C723 1.281 . S
O736 Mn720 2.297 . S
O736 C723 1.236 . S
N737 Mn721 2.282 . S
N737 C738 1.328 . S
N737 C742 1.318 . S
C738 N737 1.328 . S
C738 C739 1.457 . S
C738 H743 0.929 . S
C739 C738 1.457 . S
C739 C740 1.291 . S
C739 H752 0.931 . S
C740 C739 1.291 . S
C740 C741 1.373 . S
C740 H753 0.929 . S
C741 C740 1.373 . S
C741 C742 1.396 . S
C741 C748 1.403 . S
C742 C732 1.476 . S
C742 N737 1.318 . S
C742 C741 1.396 . S
H743 C738 0.929 . S
O744 Mn720 2.385 . S
O744 C722 1.234 . S
O745 Mn720 2.209 . S
O745 Mn721 2.215 . S
O745 C722 1.283 . S
O746 Mn720 2.094 . S
O746 C724 1.240 . S
O747 Mn721 2.117 . S
O747 C724 1.264 . S
C748 C741 1.403 . S
C748 C749 1.399 . S
C748 H754 0.929 . S
C749 C729 1.449 . S
C749 C748 1.399 . S
C749 H755 0.930 . S
H750 C730 0.931 . S
H751 C731 0.930 . S
H752 C739 0.931 . S
H753 C740 0.929 . S
H754 C748 0.929 . S
H755 C749 0.930 . S
Mn756 O761 2.095 . S
Mn756 O771 2.162 . S
Mn756 O772 2.297 . S
Mn756 O780 2.385 1_554 S
Mn756 O781 2.209 1_554 S
Mn756 O782 2.094 . S
Mn757 O762 2.121 . S
Mn757 N764 2.257 . S
Mn757 N773 2.282 . S
Mn757 O781 2.215 . S
Mn757 O783 2.117 . S
C758 O780 1.234 . S
C758 O781 1.283 . S
C759 O771 1.281 . S
C759 O772 1.236 . S
C760 O782 1.240 . S
C760 O783 1.264 1_554 S
O761 Mn756 2.095 . S
O761 C770 1.250 1_554 S
O762 Mn757 2.121 . S
O762 C770 1.258 . S
C763 N764 1.326 . S
C763 C767 1.460 . S
C763 H769 0.929 . S
N764 Mn757 2.257 . S
N764 C763 1.326 . S
N764 C768 1.362 . S
C765 C766 1.258 . S
C765 C768 1.431 . S
C765 C785 1.449 . S
C766 C765 1.258 . S
C766 C767 1.477 . S
C766 H786 0.931 . S
C767 C763 1.460 . S
C767 C766 1.477 . S
C767 H787 0.930 . S
C768 N764 1.362 . S
C768 C765 1.431 . S
C768 C778 1.476 . S
H769 C763 0.929 . S
C770 O761 1.250 1_556 S
C770 O762 1.258 . S
O771 Mn756 2.162 . S
O771 C759 1.281 . S
O772 Mn756 2.297 . S
O772 C759 1.236 . S
N773 Mn757 2.282 . S
N773 C774 1.328 . S
N773 C778 1.318 . S
C774 N773 1.328 . S
C774 C775 1.457 . S
C774 H779 0.929 . S
C775 C774 1.457 . S
C775 C776 1.291 . S
C775 H788 0.931 . S
C776 C775 1.291 . S
C776 C777 1.373 . S
C776 H789 0.929 . S
C777 C776 1.373 . S
C777 C778 1.396 . S
C777 C784 1.403 . S
C778 C768 1.476 . S
C778 N773 1.318 . S
C778 C777 1.396 . S
H779 C774 0.929 . S
O780 Mn756 2.385 1_556 S
O780 C758 1.234 . S
O781 Mn756 2.209 1_556 S
O781 Mn757 2.215 . S
O781 C758 1.283 . S
O782 Mn756 2.094 . S
O782 C760 1.240 . S
O783 Mn757 2.117 . S
O783 C760 1.264 1_556 S
C784 C777 1.403 . S
C784 C785 1.399 . S
C784 H790 0.929 . S
C785 C765 1.449 . S
C785 C784 1.399 . S
C785 H791 0.930 . S
H786 C766 0.931 . S
H787 C767 0.930 . S
H788 C775 0.931 . S
H789 C776 0.929 . S
H790 C784 0.929 . S
H791 C785 0.930 . S
Mn792 O797 2.095 . S
Mn792 O807 2.162 . S
Mn792 O808 2.297 . S
Mn792 O816 2.385 1_554 S
Mn792 O817 2.209 1_554 S
Mn792 O818 2.094 . S
Mn793 O798 2.121 . S
Mn793 N800 2.257 . S
Mn793 N809 2.282 . S
Mn793 O817 2.215 . S
Mn793 O819 2.117 . S
C794 O816 1.234 . S
C794 O817 1.283 . S
C795 O807 1.281 . S
C795 O808 1.236 . S
C796 O818 1.240 . S
C796 O819 1.264 1_554 S
O797 Mn792 2.095 . S
O797 C806 1.250 1_554 S
O798 Mn793 2.121 . S
O798 C806 1.258 . S
C799 N800 1.326 . S
C799 C803 1.460 . S
C799 H805 0.929 . S
N800 Mn793 2.257 . S
N800 C799 1.326 . S
N800 C804 1.362 . S
C801 C802 1.258 . S
C801 C804 1.431 . S
C801 C821 1.449 . S
C802 C801 1.258 . S
C802 C803 1.477 . S
C802 H822 0.931 . S
C803 C799 1.460 . S
C803 C802 1.477 . S
C803 H823 0.930 . S
C804 N800 1.362 . S
C804 C801 1.431 . S
C804 C814 1.476 . S
H805 C799 0.929 . S
C806 O797 1.250 1_556 S
C806 O798 1.258 . S
O807 Mn792 2.162 . S
O807 C795 1.281 . S
O808 Mn792 2.297 . S
O808 C795 1.236 . S
N809 Mn793 2.282 . S
N809 C810 1.328 . S
N809 C814 1.318 . S
C810 N809 1.328 . S
C810 C811 1.457 . S
C810 H815 0.929 . S
C811 C810 1.457 . S
C811 C812 1.291 . S
C811 H824 0.931 . S
C812 C811 1.291 . S
C812 C813 1.373 . S
C812 H825 0.929 . S
C813 C812 1.373 . S
C813 C814 1.396 . S
C813 C820 1.403 . S
C814 C804 1.476 . S
C814 N809 1.318 . S
C814 C813 1.396 . S
H815 C810 0.929 . S
O816 Mn792 2.385 1_556 S
O816 C794 1.234 . S
O817 Mn792 2.209 1_556 S
O817 Mn793 2.215 . S
O817 C794 1.283 . S
O818 Mn792 2.094 . S
O818 C796 1.240 . S
O819 Mn793 2.117 . S
O819 C796 1.264 1_556 S
C820 C813 1.403 . S
C820 C821 1.399 . S
C820 H826 0.929 . S
C821 C801 1.449 . S
C821 C820 1.399 . S
C821 H827 0.930 . S
H822 C802 0.931 . S
H823 C803 0.930 . S
H824 C811 0.931 . S
H825 C812 0.929 . S
H826 C820 0.929 . S
H827 C821 0.930 . S
Mn828 O833 2.095 . S
Mn828 O843 2.162 . S
Mn828 O844 2.297 . S
Mn828 O852 2.385 1_556 S
Mn828 O853 2.209 1_556 S
Mn828 O854 2.094 . S
Mn829 O834 2.121 . S
Mn829 N836 2.257 . S
Mn829 N845 2.282 . S
Mn829 O853 2.215 . S
Mn829 O855 2.117 . S
C830 O852 1.234 . S
C830 O853 1.283 . S
C831 O843 1.281 . S
C831 O844 1.236 . S
C832 O854 1.240 . S
C832 O855 1.264 1_556 S
O833 Mn828 2.095 . S
O833 C842 1.250 1_556 S
O834 Mn829 2.121 . S
O834 C842 1.258 . S
C835 N836 1.326 . S
C835 C839 1.460 . S
C835 H841 0.929 . S
N836 Mn829 2.257 . S
N836 C835 1.326 . S
N836 C840 1.362 . S
C837 C838 1.258 . S
C837 C840 1.431 . S
C837 C857 1.449 . S
C838 C837 1.258 . S
C838 C839 1.477 . S
C838 H858 0.931 . S
C839 C835 1.460 . S
C839 C838 1.477 . S
C839 H859 0.930 . S
C840 N836 1.362 . S
C840 C837 1.431 . S
C840 C850 1.476 . S
H841 C835 0.929 . S
C842 O833 1.250 1_554 S
C842 O834 1.258 . S
O843 Mn828 2.162 . S
O843 C831 1.281 . S
O844 Mn828 2.297 . S
O844 C831 1.236 . S
N845 Mn829 2.282 . S
N845 C846 1.328 . S
N845 C850 1.318 . S
C846 N845 1.328 . S
C846 C847 1.457 . S
C846 H851 0.929 . S
C847 C846 1.457 . S
C847 C848 1.291 . S
C847 H860 0.931 . S
C848 C847 1.291 . S
C848 C849 1.373 . S
C848 H861 0.929 . S
C849 C848 1.373 . S
C849 C850 1.396 . S
C849 C856 1.403 . S
C850 C840 1.476 . S
C850 N845 1.318 . S
C850 C849 1.396 . S
H851 C846 0.929 . S
O852 Mn828 2.385 1_554 S
O852 C830 1.234 . S
O853 Mn828 2.209 1_554 S
O853 Mn829 2.215 . S
O853 C830 1.283 . S
O854 Mn828 2.094 . S
O854 C832 1.240 . S
O855 Mn829 2.117 . S
O855 C832 1.264 1_554 S
C856 C849 1.403 . S
C856 C857 1.399 . S
C856 H862 0.929 . S
C857 C837 1.449 . S
C857 C856 1.399 . S
C857 H863 0.930 . S
H858 C838 0.931 . S
H859 C839 0.930 . S
H860 C847 0.931 . S
H861 C848 0.929 . S
H862 C856 0.929 . S
H863 C857 0.930 . S
H864 C872 0.950 . S
H865 C877 0.950 . S
H866 C874 0.950 . S
H867 C876 0.950 . S
H868 C878 0.950 . S
H869 C880 0.950 . S
H870 C882 0.950 . S
H871 C883 0.950 . S
C872 H864 0.950 . S
C872 C873 1.386 . S
C872 C874 1.391 . S
C873 C872 1.386 . S
C873 C877 1.393 . S
C874 H866 0.950 . S
C874 C872 1.391 . S
C874 C875 1.400 . S
C875 C874 1.400 . S
C875 C876 1.398 . S
C875 C881 1.491 . S
C876 H867 0.950 . S
C876 C875 1.398 . S
C876 C877 1.391 . S
C877 H865 0.950 . S
C877 C873 1.393 . S
C877 C876 1.391 . S
C878 H868 0.950 . S
C878 C879 1.386 . S
C878 C880 1.391 . S
C879 C878 1.386 . S
C879 C883 1.393 . S
C880 H869 0.950 . S
C880 C878 1.391 . S
C880 C881 1.400 . S
C881 C875 1.491 . S
C881 C880 1.400 . S
C881 C882 1.398 . S
C882 H870 0.950 . S
C882 C881 1.398 . S
C882 C883 1.391 . S
C883 H871 0.950 . S
C883 C879 1.393 . S
C883 C882 1.391 . S
H884 C892 0.950 . S
H885 C897 0.950 . S
H886 C894 0.950 . S
H887 C896 0.950 . S
H888 C898 0.950 . S
H889 C900 0.950 . S
H890 C902 0.950 . S
H891 C903 0.950 . S
C892 H884 0.950 . S
C892 C893 1.386 . S
C892 C894 1.391 . S
C893 C892 1.386 . S
C893 C897 1.393 . S
C894 H886 0.950 . S
C894 C892 1.391 . S
C894 C895 1.400 . S
C895 C894 1.400 . S
C895 C896 1.398 . S
C895 C901 1.491 . S
C896 H887 0.950 . S
C896 C895 1.398 . S
C896 C897 1.391 . S
C897 H885 0.950 . S
C897 C893 1.393 . S
C897 C896 1.391 . S
C898 H888 0.950 . S
C898 C899 1.386 . S
C898 C900 1.391 . S
C899 C898 1.386 . S
C899 C903 1.393 . S
C900 H889 0.950 . S
C900 C898 1.391 . S
C900 C901 1.400 . S
C901 C895 1.491 . S
C901 C900 1.400 . S
C901 C902 1.398 . S
C902 H890 0.950 . S
C902 C901 1.398 . S
C902 C903 1.391 . S
C903 H891 0.950 . S
C903 C899 1.393 . S
C903 C902 1.391 . S
H904 C912 0.950 . S
H905 C917 0.950 . S
H906 C914 0.950 . S
H907 C916 0.950 . S
H908 C918 0.950 . S
H909 C920 0.950 . S
H910 C922 0.950 . S
H911 C923 0.950 . S
C912 H904 0.950 . S
C912 C913 1.386 . S
C912 C914 1.391 . S
C913 C912 1.386 . S
C913 C917 1.393 . S
C914 H906 0.950 . S
C914 C912 1.391 . S
C914 C915 1.400 . S
C915 C914 1.400 . S
C915 C916 1.398 . S
C915 C921 1.491 . S
C916 H907 0.950 . S
C916 C915 1.398 . S
C916 C917 1.391 . S
C917 H905 0.950 . S
C917 C913 1.393 . S
C917 C916 1.391 . S
C918 H908 0.950 . S
C918 C919 1.386 . S
C918 C920 1.391 1_556 S
C919 C918 1.386 . S
C919 C923 1.393 . S
C920 H909 0.950 . S
C920 C918 1.391 1_554 S
C920 C921 1.400 . S
C921 C915 1.491 . S
C921 C920 1.400 . S
C921 C922 1.398 1_554 S
C922 H910 0.950 . S
C922 C921 1.398 1_556 S
C922 C923 1.391 . S
C923 H911 0.950 . S
C923 C919 1.393 . S
C923 C922 1.391 . S
H924 C932 0.950 . S
H925 C937 0.950 . S
H926 C934 0.950 . S
H927 C936 0.950 . S
H928 C938 0.950 . S
H929 C940 0.950 . S
H930 C942 0.950 . S
H931 C943 0.950 . S
C932 H924 0.950 . S
C932 C933 1.386 . S
C932 C934 1.391 . S
C933 C932 1.386 . S
C933 C937 1.393 . S
C934 H926 0.950 . S
C934 C932 1.391 . S
C934 C935 1.400 . S
C935 C934 1.400 . S
C935 C936 1.398 . S
C935 C941 1.491 . S
C936 H927 0.950 . S
C936 C935 1.398 . S
C936 C937 1.391 . S
C937 H925 0.950 . S
C937 C933 1.393 . S
C937 C936 1.391 . S
C938 H928 0.950 . S
C938 C939 1.386 . S
C938 C940 1.391 1_556 S
C939 C938 1.386 . S
C939 C943 1.393 . S
C940 H929 0.950 . S
C940 C938 1.391 1_554 S
C940 C941 1.400 . S
C941 C935 1.491 . S
C941 C940 1.400 . S
C941 C942 1.398 1_554 S
C942 H930 0.950 . S
C942 C941 1.398 1_556 S
C942 C943 1.391 . S
C943 H931 0.950 . S
C943 C939 1.393 . S
C943 C942 1.391 . S
H944 C952 0.950 . S
H945 C957 0.950 . S
H946 C954 0.950 . S
H947 C956 0.950 . S
H948 C958 0.950 . S
H949 C960 0.950 . S
H950 C962 0.950 . S
H951 C963 0.950 . S
C952 H944 0.950 . S
C952 C953 1.386 . S
C952 C954 1.391 . S
C953 C952 1.386 . S
C953 C957 1.393 . S
C954 H946 0.950 . S
C954 C952 1.391 . S
C954 C955 1.400 . S
C955 C954 1.400 . S
C955 C956 1.398 . S
C955 C961 1.491 . S
C956 H947 0.950 . S
C956 C955 1.398 . S
C956 C957 1.391 . S
C957 H945 0.950 . S
C957 C953 1.393 . S
C957 C956 1.391 . S
C958 H948 0.950 . S
C958 C959 1.386 . S
C958 C960 1.391 . S
C959 C958 1.386 . S
C959 C963 1.393 . S
C960 H949 0.950 . S
C960 C958 1.391 . S
C960 C961 1.400 . S
C961 C955 1.491 . S
C961 C960 1.400 . S
C961 C962 1.398 . S
C962 H950 0.950 . S
C962 C961 1.398 . S
C962 C963 1.391 . S
C963 H951 0.950 . S
C963 C959 1.393 . S
C963 C962 1.391 . S
H964 C972 0.950 . S
H965 C977 0.950 . S
H966 C974 0.950 . S
H967 C976 0.950 . S
H968 C978 0.950 . S
H969 C980 0.950 . S
H970 C982 0.950 . S
H971 C983 0.950 . S
C972 H964 0.950 . S
C972 C973 1.386 . S
C972 C974 1.391 . S
C973 C972 1.386 . S
C973 C977 1.393 . S
C974 H966 0.950 . S
C974 C972 1.391 . S
C974 C975 1.400 . S
C975 C974 1.400 . S
C975 C976 1.398 . S
C975 C981 1.491 . S
C976 H967 0.950 . S
C976 C975 1.398 . S
C976 C977 1.391 . S
C977 H965 0.950 . S
C977 C973 1.393 . S
C977 C976 1.391 . S
C978 H968 0.950 . S
C978 C979 1.386 . S
C978 C980 1.391 . S
C979 C978 1.386 . S
C979 C983 1.393 . S
C980 H969 0.950 . S
C980 C978 1.391 . S
C980 C981 1.400 . S
C981 C975 1.491 . S
C981 C980 1.400 . S
C981 C982 1.398 . S
C982 H970 0.950 . S
C982 C981 1.398 . S
C982 C983 1.391 . S
C983 H971 0.950 . S
C983 C979 1.393 . S
C983 C982 1.391 . S
H984 C992 0.950 . S
H985 C997 0.950 . S
H986 C994 0.950 . S
H987 C996 0.950 . S
H988 C998 0.950 . S
H989 C1000 0.950 . S
H990 C1002 0.950 . S
H991 C1003 0.950 . S
C992 H984 0.950 . S
C992 C993 1.386 . S
C992 C994 1.391 . S
C993 C992 1.386 . S
C993 C997 1.393 . S
C994 H986 0.950 . S
C994 C992 1.391 . S
C994 C995 1.400 . S
C995 C994 1.400 . S
C995 C996 1.398 . S
C995 C1001 1.491 . S
C996 H987 0.950 . S
C996 C995 1.398 . S
C996 C997 1.391 . S
C997 H985 0.950 . S
C997 C993 1.393 . S
C997 C996 1.391 . S
C998 H988 0.950 . S
C998 C999 1.386 . S
C998 C1000 1.391 . S
C999 C998 1.386 . S
C999 C1003 1.393 . S
C1000 H989 0.950 . S
C1000 C998 1.391 . S
C1000 C1001 1.400 . S
C1001 C995 1.491 . S
C1001 C1000 1.400 . S
C1001 C1002 1.398 . S
C1002 H990 0.950 . S
C1002 C1001 1.398 . S
C1002 C1003 1.391 . S
C1003 H991 0.950 . S
C1003 C999 1.393 . S
C1003 C1002 1.391 . S
H1004 C1012 0.950 . S
H1005 C1017 0.950 . S
H1006 C1014 0.950 . S
H1007 C1016 0.950 . S
H1008 C1018 0.950 . S
H1009 C1020 0.950 . S
H1010 C1022 0.950 . S
H1011 C1023 0.950 . S
C1012 H1004 0.950 . S
C1012 C1013 1.386 . S
C1012 C1014 1.391 . S
C1013 C1012 1.386 . S
C1013 C1017 1.393 . S
C1014 H1006 0.950 . S
C1014 C1012 1.391 . S
C1014 C1015 1.400 . S
C1015 C1014 1.400 . S
C1015 C1016 1.398 . S
C1015 C1021 1.491 . S
C1016 H1007 0.950 . S
C1016 C1015 1.398 . S
C1016 C1017 1.391 . S
C1017 H1005 0.950 . S
C1017 C1013 1.393 . S
C1017 C1016 1.391 . S
C1018 H1008 0.950 . S
C1018 C1019 1.386 . S
C1018 C1020 1.391 . S
C1019 C1018 1.386 . S
C1019 C1023 1.393 . S
C1020 H1009 0.950 . S
C1020 C1018 1.391 . S
C1020 C1021 1.400 . S
C1021 C1015 1.491 . S
C1021 C1020 1.400 . S
C1021 C1022 1.398 . S
C1022 H1010 0.950 . S
C1022 C1021 1.398 . S
C1022 C1023 1.391 . S
C1023 H1011 0.950 . S
C1023 C1019 1.393 . S
C1023 C1022 1.391 . S
H1024 C1032 0.950 . S
H1025 C1037 0.950 . S
H1026 C1034 0.950 . S
H1027 C1036 0.950 . S
H1028 C1038 0.950 . S
H1029 C1040 0.950 . S
H1030 C1042 0.950 . S
H1031 C1043 0.950 . S
C1032 H1024 0.950 . S
C1032 C1033 1.386 . S
C1032 C1034 1.391 . S
C1033 C1032 1.386 . S
C1033 C1037 1.393 . S
C1034 H1026 0.950 . S
C1034 C1032 1.391 . S
C1034 C1035 1.400 . S
C1035 C1034 1.400 . S
C1035 C1036 1.398 . S
C1035 C1041 1.491 . S
C1036 H1027 0.950 . S
C1036 C1035 1.398 . S
C1036 C1037 1.391 . S
C1037 H1025 0.950 . S
C1037 C1033 1.393 . S
C1037 C1036 1.391 . S
C1038 H1028 0.950 . S
C1038 C1039 1.386 . S
C1038 C1040 1.391 . S
C1039 C1038 1.386 . S
C1039 C1043 1.393 . S
C1040 H1029 0.950 . S
C1040 C1038 1.391 . S
C1040 C1041 1.400 . S
C1041 C1035 1.491 . S
C1041 C1040 1.400 . S
C1041 C1042 1.398 . S
C1042 H1030 0.950 . S
C1042 C1041 1.398 . S
C1042 C1043 1.391 . S
C1043 H1031 0.950 . S
C1043 C1039 1.393 . S
C1043 C1042 1.391 . S
H1044 C1052 0.950 . S
H1045 C1057 0.950 . S
H1046 C1054 0.950 . S
H1047 C1056 0.950 . S
H1048 C1058 0.950 . S
H1049 C1060 0.950 . S
H1050 C1062 0.950 . S
H1051 C1063 0.950 . S
C1052 H1044 0.950 . S
C1052 C1053 1.386 . S
C1052 C1054 1.391 . S
C1053 C1052 1.386 . S
C1053 C1057 1.393 . S
C1054 H1046 0.950 . S
C1054 C1052 1.391 . S
C1054 C1055 1.400 . S
C1055 C1054 1.400 . S
C1055 C1056 1.398 . S
C1055 C1061 1.491 . S
C1056 H1047 0.950 . S
C1056 C1055 1.398 . S
C1056 C1057 1.391 . S
C1057 H1045 0.950 . S
C1057 C1053 1.393 . S
C1057 C1056 1.391 . S
C1058 H1048 0.950 . S
C1058 C1059 1.386 . S
C1058 C1060 1.391 . S
C1059 C1058 1.386 . S
C1059 C1063 1.393 . S
C1060 H1049 0.950 . S
C1060 C1058 1.391 . S
C1060 C1061 1.400 . S
C1061 C1055 1.491 . S
C1061 C1060 1.400 . S
C1061 C1062 1.398 . S
C1062 H1050 0.950 . S
C1062 C1061 1.398 . S
C1062 C1063 1.391 . S
C1063 H1051 0.950 . S
C1063 C1059 1.393 . S
C1063 C1062 1.391 . S
H1064 C1072 0.950 . S
H1065 C1077 0.950 . S
H1066 C1074 0.950 . S
H1067 C1076 0.950 . S
H1068 C1078 0.950 . S
H1069 C1080 0.950 . S
H1070 C1082 0.950 . S
H1071 C1083 0.950 . S
C1072 H1064 0.950 . S
C1072 C1073 1.386 . S
C1072 C1074 1.391 . S
C1073 C1072 1.386 . S
C1073 C1077 1.393 . S
C1074 H1066 0.950 . S
C1074 C1072 1.391 . S
C1074 C1075 1.400 . S
C1075 C1074 1.400 . S
C1075 C1076 1.398 . S
C1075 C1081 1.491 . S
C1076 H1067 0.950 . S
C1076 C1075 1.398 . S
C1076 C1077 1.391 . S
C1077 H1065 0.950 . S
C1077 C1073 1.393 . S
C1077 C1076 1.391 . S
C1078 H1068 0.950 . S
C1078 C1079 1.386 . S
C1078 C1080 1.391 1_545 S
C1079 C1078 1.386 . S
C1079 C1083 1.393 . S
C1080 H1069 0.950 . S
C1080 C1078 1.391 1_565 S
C1080 C1081 1.400 . S
C1081 C1075 1.491 . S
C1081 C1080 1.400 . S
C1081 C1082 1.398 . S
C1082 H1070 0.950 . S
C1082 C1081 1.398 . S
C1082 C1083 1.391 1_565 S
C1083 H1071 0.950 . S
C1083 C1079 1.393 . S
C1083 C1082 1.391 1_545 S
H1084 C1092 0.950 . S
H1085 C1097 0.950 . S
H1086 C1094 0.950 . S
H1087 C1096 0.950 . S
H1088 C1098 0.950 . S
H1089 C1100 0.950 . S
H1090 C1102 0.950 . S
H1091 C1103 0.950 . S
C1092 H1084 0.950 . S
C1092 C1093 1.386 . S
C1092 C1094 1.391 . S
C1093 C1092 1.386 . S
C1093 C1097 1.393 . S
C1094 H1086 0.950 . S
C1094 C1092 1.391 . S
C1094 C1095 1.400 . S
C1095 C1094 1.400 . S
C1095 C1096 1.398 . S
C1095 C1101 1.491 . S
C1096 H1087 0.950 . S
C1096 C1095 1.398 . S
C1096 C1097 1.391 . S
C1097 H1085 0.950 . S
C1097 C1093 1.393 . S
C1097 C1096 1.391 . S
C1098 H1088 0.950 . S
C1098 C1099 1.386 . S
C1098 C1100 1.391 . S
C1099 C1098 1.386 . S
C1099 C1103 1.393 . S
C1100 H1089 0.950 . S
C1100 C1098 1.391 . S
C1100 C1101 1.400 . S
C1101 C1095 1.491 . S
C1101 C1100 1.400 . S
C1101 C1102 1.398 . S
C1102 H1090 0.950 . S
C1102 C1101 1.398 . S
C1102 C1103 1.391 . S
C1103 H1091 0.950 . S
C1103 C1099 1.393 . S
C1103 C1102 1.391 . S
H1104 C1112 0.950 . S
H1105 C1117 0.950 . S
H1106 C1114 0.950 . S
H1107 C1116 0.950 . S
H1108 C1118 0.950 . S
H1109 C1120 0.950 . S
H1110 C1122 0.950 . S
H1111 C1123 0.950 . S
C1112 H1104 0.950 . S
C1112 C1113 1.386 . S
C1112 C1114 1.391 . S
C1113 C1112 1.386 . S
C1113 C1117 1.393 . S
C1114 H1106 0.950 . S
C1114 C1112 1.391 . S
C1114 C1115 1.400 1_554 S
C1115 C1114 1.400 1_556 S
C1115 C1116 1.398 . S
C1115 C1121 1.491 . S
C1116 H1107 0.950 . S
C1116 C1115 1.398 . S
C1116 C1117 1.391 1_556 S
C1117 H1105 0.950 . S
C1117 C1113 1.393 . S
C1117 C1116 1.391 1_554 S
C1118 H1108 0.950 . S
C1118 C1119 1.386 . S
C1118 C1120 1.391 . S
C1119 C1118 1.386 . S
C1119 C1123 1.393 . S
C1120 H1109 0.950 . S
C1120 C1118 1.391 . S
C1120 C1121 1.400 . S
C1121 C1115 1.491 . S
C1121 C1120 1.400 . S
C1121 C1122 1.398 . S
C1122 H1110 0.950 . S
C1122 C1121 1.398 . S
C1122 C1123 1.391 . S
C1123 H1111 0.950 . S
C1123 C1119 1.393 . S
C1123 C1122 1.391 . S
H1124 C1132 0.950 . S
H1125 C1137 0.950 . S
H1126 C1134 0.950 . S
H1127 C1136 0.954 . S
H1128 C1138 0.950 . S
H1129 C1140 0.950 . S
H1130 C1142 0.950 . S
H1131 C1143 0.950 . S
C1132 H1124 0.950 . S
C1132 C1133 1.386 . S
C1132 C1134 1.391 1_554 S
C1133 C1132 1.386 . S
C1133 C1137 1.393 . S
C1134 H1126 0.950 . S
C1134 C1132 1.391 1_556 S
C1134 C1135 1.400 . S
C1135 C1134 1.400 . S
C1135 C1136 1.415 . S
C1135 C1141 1.491 . S
C1136 H1127 0.954 . S
C1136 C1135 1.415 . S
C1136 C1137 1.371 1_556 S
C1137 H1125 0.950 . S
C1137 C1133 1.393 . S
C1137 C1136 1.371 1_554 S
C1138 H1128 0.950 . S
C1138 C1139 1.386 . S
C1138 C1140 1.391 . S
C1139 C1138 1.386 . S
C1139 C1143 1.393 . S
C1140 H1129 0.950 . S
C1140 C1138 1.391 . S
C1140 C1141 1.400 . S
C1141 C1135 1.491 . S
C1141 C1140 1.400 . S
C1141 C1142 1.398 . S
C1142 H1130 0.950 . S
C1142 C1141 1.398 . S
C1142 C1143 1.391 . S
C1143 H1131 0.950 . S
C1143 C1139 1.393 . S
C1143 C1142 1.391 . S
H1144 C1152 0.950 . S
H1145 C1157 0.950 . S
H1146 C1154 0.950 . S
H1147 C1156 0.950 . S
H1148 C1158 0.950 . S
H1149 C1160 0.950 . S
H1150 C1162 0.950 . S
H1151 C1163 0.950 . S
C1152 H1144 0.950 . S
C1152 C1153 1.386 . S
C1152 C1154 1.391 . S
C1153 C1152 1.386 . S
C1153 C1157 1.393 . S
C1154 H1146 0.950 . S
C1154 C1152 1.391 . S
C1154 C1155 1.400 . S
C1155 C1154 1.400 . S
C1155 C1156 1.398 . S
C1155 C1161 1.491 . S
C1156 H1147 0.950 . S
C1156 C1155 1.398 . S
C1156 C1157 1.391 . S
C1157 H1145 0.950 . S
C1157 C1153 1.393 . S
C1157 C1156 1.391 . S
C1158 H1148 0.950 . S
C1158 C1159 1.386 . S
C1158 C1160 1.391 . S
C1159 C1158 1.386 . S
C1159 C1163 1.393 . S
C1160 H1149 0.950 . S
C1160 C1158 1.391 . S
C1160 C1161 1.400 . S
C1161 C1155 1.491 . S
C1161 C1160 1.400 . S
C1161 C1162 1.398 . S
C1162 H1150 0.950 . S
C1162 C1161 1.398 . S
C1162 C1163 1.391 . S
C1163 H1151 0.950 . S
C1163 C1159 1.393 . S
C1163 C1162 1.391 . S
H1164 C1172 0.950 . S
H1165 C1177 0.950 . S
H1166 C1174 0.950 . S
H1167 C1176 0.950 . S
H1168 C1178 0.950 . S
H1169 C1180 0.950 . S
H1170 C1182 0.950 . S
H1171 C1183 0.950 . S
C1172 H1164 0.950 . S
C1172 C1173 1.386 . S
C1172 C1174 1.391 . S
C1173 C1172 1.386 . S
C1173 C1177 1.393 . S
C1174 H1166 0.950 . S
C1174 C1172 1.391 . S
C1174 C1175 1.400 . S
C1175 C1174 1.400 . S
C1175 C1176 1.398 . S
C1175 C1181 1.491 . S
C1176 H1167 0.950 . S
C1176 C1175 1.398 . S
C1176 C1177 1.391 . S
C1177 H1165 0.950 . S
C1177 C1173 1.393 . S
C1177 C1176 1.391 . S
C1178 H1168 0.950 . S
C1178 C1179 1.386 . S
C1178 C1180 1.391 . S
C1179 C1178 1.386 . S
C1179 C1183 1.393 . S
C1180 H1169 0.950 . S
C1180 C1178 1.391 . S
C1180 C1181 1.400 . S
C1181 C1175 1.491 . S
C1181 C1180 1.400 . S
C1181 C1182 1.398 . S
C1182 H1170 0.950 . S
C1182 C1181 1.398 . S
C1182 C1183 1.391 . S
C1183 H1171 0.950 . S
C1183 C1179 1.393 . S
C1183 C1182 1.391 . S
H1184 C1192 0.950 . S
H1185 C1197 0.950 . S
H1186 C1194 0.950 . S
H1187 C1196 0.942 1_655 S
H1188 C1198 0.950 . S
H1189 C1200 0.950 . S
H1190 C1202 0.950 . S
H1191 C1203 0.950 . S
C1192 H1184 0.950 . S
C1192 C1193 1.386 . S
C1192 C1194 1.391 1_455 S
C1193 C1192 1.386 . S
C1193 C1197 1.393 . S
C1194 H1186 0.950 . S
C1194 C1192 1.391 1_655 S
C1194 C1195 1.400 . S
C1195 C1194 1.400 . S
C1195 C1196 1.381 1_655 S
C1195 C1201 1.491 . S
C1196 H1187 0.942 1_455 S
C1196 C1195 1.381 1_455 S
C1196 C1197 1.416 . S
C1197 H1185 0.950 . S
C1197 C1193 1.393 . S
C1197 C1196 1.416 . S
C1198 H1188 0.950 . S
C1198 C1199 1.386 . S
C1198 C1200 1.391 . S
C1199 C1198 1.386 . S
C1199 C1203 1.393 . S
C1200 H1189 0.950 . S
C1200 C1198 1.391 . S
C1200 C1201 1.400 . S
C1201 C1195 1.491 . S
C1201 C1200 1.400 . S
C1201 C1202 1.398 . S
C1202 H1190 0.950 . S
C1202 C1201 1.398 . S
C1202 C1203 1.391 . S
C1203 H1191 0.950 . S
C1203 C1199 1.393 . S
C1203 C1202 1.391 . S
H1204 C1212 0.950 . S
H1205 C1217 0.950 . S
H1206 C1214 0.950 . S
H1207 C1216 0.950 . S
H1208 C1218 0.950 . S
H1209 C1220 0.950 . S
H1210 C1222 0.950 . S
H1211 C1223 0.950 . S
C1212 H1204 0.950 . S
C1212 C1213 1.386 . S
C1212 C1214 1.391 1_655 S
C1213 C1212 1.386 . S
C1213 C1217 1.393 . S
C1214 H1206 0.950 . S
C1214 C1212 1.391 1_455 S
C1214 C1215 1.400 . S
C1215 C1214 1.400 . S
C1215 C1216 1.398 1_455 S
C1215 C1221 1.491 . S
C1216 H1207 0.950 . S
C1216 C1215 1.398 1_655 S
C1216 C1217 1.391 . S
C1217 H1205 0.950 . S
C1217 C1213 1.393 . S
C1217 C1216 1.391 . S
C1218 H1208 0.950 . S
C1218 C1219 1.386 . S
C1218 C1220 1.391 . S
C1219 C1218 1.386 . S
C1219 C1223 1.393 . S
C1220 H1209 0.950 . S
C1220 C1218 1.391 . S
C1220 C1221 1.400 . S
C1221 C1215 1.491 . S
C1221 C1220 1.400 . S
C1221 C1222 1.398 . S
C1222 H1210 0.950 . S
C1222 C1221 1.398 . S
C1222 C1223 1.391 . S
C1223 H1211 0.950 . S
C1223 C1219 1.393 . S
C1223 C1222 1.391 . S
H1224 C1232 0.950 . S
H1225 C1237 0.950 . S
H1226 C1234 0.950 . S
H1227 C1236 0.950 . S
H1228 C1238 0.950 . S
H1229 C1240 0.950 . S
H1230 C1242 0.950 . S
H1231 C1243 0.950 . S
C1232 H1224 0.950 . S
C1232 C1233 1.386 . S
C1232 C1234 1.391 1_455 S
C1233 C1232 1.386 . S
C1233 C1237 1.393 . S
C1234 H1226 0.950 . S
C1234 C1232 1.391 1_655 S
C1234 C1235 1.400 . S
C1235 C1234 1.400 . S
C1235 C1236 1.398 . S
C1235 C1241 1.491 . S
C1236 H1227 0.950 . S
C1236 C1235 1.398 . S
C1236 C1237 1.391 1_655 S
C1237 H1225 0.950 . S
C1237 C1233 1.393 . S
C1237 C1236 1.391 1_455 S
C1238 H1228 0.950 . S
C1238 C1239 1.386 . S
C1238 C1240 1.391 . S
C1239 C1238 1.386 . S
C1239 C1243 1.393 . S
C1240 H1229 0.950 . S
C1240 C1238 1.391 . S
C1240 C1241 1.400 . S
C1241 C1235 1.491 . S
C1241 C1240 1.400 . S
C1241 C1242 1.398 . S
C1242 H1230 0.950 . S
C1242 C1241 1.398 . S
C1242 C1243 1.391 . S
C1243 H1231 0.950 . S
C1243 C1239 1.393 . S
C1243 C1242 1.391 . S
H1244 C1252 0.950 . S
H1245 C1257 0.950 . S
H1246 C1254 0.950 . S
H1247 C1256 0.950 . S
H1248 C1258 0.950 . S
H1249 C1260 0.950 . S
H1250 C1262 0.950 . S
H1251 C1263 0.950 . S
C1252 H1244 0.950 . S
C1252 C1253 1.386 . S
C1252 C1254 1.391 . S
C1253 C1252 1.386 . S
C1253 C1257 1.393 . S
C1254 H1246 0.950 . S
C1254 C1252 1.391 . S
C1254 C1255 1.400 . S
C1255 C1254 1.400 . S
C1255 C1256 1.398 . S
C1255 C1261 1.491 . S
C1256 H1247 0.950 . S
C1256 C1255 1.398 . S
C1256 C1257 1.391 . S
C1257 H1245 0.950 . S
C1257 C1253 1.393 . S
C1257 C1256 1.391 . S
C1258 H1248 0.950 . S
C1258 C1259 1.386 . S
C1258 C1260 1.391 1_655 S
C1259 C1258 1.386 . S
C1259 C1263 1.393 . S
C1260 H1249 0.950 . S
C1260 C1258 1.391 1_455 S
C1260 C1261 1.400 . S
C1261 C1255 1.491 . S
C1261 C1260 1.400 . S
C1261 C1262 1.398 1_455 S
C1262 H1250 0.950 . S
C1262 C1261 1.398 1_655 S
C1262 C1263 1.391 . S
C1263 H1251 0.950 . S
C1263 C1259 1.393 . S
C1263 C1262 1.391 . S
H1264 C1272 0.950 . S
H1265 C1277 0.950 . S
H1266 C1274 0.950 1_565 S
H1267 C1276 0.950 . S
H1268 C1278 0.950 . S
H1269 C1280 0.950 . S
H1270 C1282 0.950 . S
H1271 C1283 0.950 . S
C1272 H1264 0.950 . S
C1272 C1273 1.386 . S
C1272 C1274 1.391 . S
C1273 C1272 1.386 . S
C1273 C1277 1.393 . S
C1274 H1266 0.950 1_545 S
C1274 C1272 1.391 . S
C1274 C1275 1.400 1_545 S
C1275 C1274 1.400 1_565 S
C1275 C1276 1.398 . S
C1275 C1281 1.491 . S
C1276 H1267 0.950 . S
C1276 C1275 1.398 . S
C1276 C1277 1.391 1_565 S
C1277 H1265 0.950 . S
C1277 C1273 1.393 . S
C1277 C1276 1.391 1_545 S
C1278 H1268 0.950 . S
C1278 C1279 1.386 . S
C1278 C1280 1.391 . S
C1279 C1278 1.386 . S
C1279 C1283 1.393 . S
C1280 H1269 0.950 . S
C1280 C1278 1.391 . S
C1280 C1281 1.400 . S
C1281 C1275 1.491 . S
C1281 C1280 1.400 . S
C1281 C1282 1.398 . S
C1282 H1270 0.950 . S
C1282 C1281 1.398 . S
C1282 C1283 1.391 . S
C1283 H1271 0.950 . S
C1283 C1279 1.393 . S
C1283 C1282 1.391 . S
H1284 C1292 0.950 . S
H1285 C1297 0.950 . S
H1286 C1294 0.950 . S
H1287 C1296 0.950 . S
H1288 C1298 0.950 . S
H1289 C1300 0.950 1_545 S
H1290 C1302 0.950 . S
H1291 C1303 0.950 . S
C1292 H1284 0.950 . S
C1292 C1293 1.386 . S
C1292 C1294 1.391 . S
C1293 C1292 1.386 . S
C1293 C1297 1.393 . S
C1294 H1286 0.950 . S
C1294 C1292 1.391 . S
C1294 C1295 1.400 . S
C1295 C1294 1.400 . S
C1295 C1296 1.398 . S
C1295 C1301 1.491 . S
C1296 H1287 0.950 . S
C1296 C1295 1.398 . S
C1296 C1297 1.391 . S
C1297 H1285 0.950 . S
C1297 C1293 1.393 . S
C1297 C1296 1.391 . S
C1298 H1288 0.950 . S
C1298 C1299 1.386 . S
C1298 C1300 1.391 . S
C1299 C1298 1.386 . S
C1299 C1303 1.393 . S
C1300 H1289 0.950 1_565 S
C1300 C1298 1.391 . S
C1300 C1301 1.400 1_565 S
C1301 C1295 1.491 . S
C1301 C1300 1.400 1_545 S
C1301 C1302 1.398 . S
C1302 H1290 0.950 . S
C1302 C1301 1.398 . S
C1302 C1303 1.391 1_545 S
C1303 H1291 0.950 . S
C1303 C1299 1.393 . S
C1303 C1302 1.391 1_565 S
H1304 C1312 0.950 . S
H1305 C1317 0.950 . S
H1306 C1314 0.950 . S
H1307 C1316 0.950 . S
H1308 C1318 0.950 . S
H1309 C1320 0.950 . S
H1310 C1322 0.950 . S
H1311 C1323 0.950 . S
C1312 H1304 0.950 . S
C1312 C1313 1.386 . S
C1312 C1314 1.391 . S
C1313 C1312 1.386 . S
C1313 C1317 1.393 . S
C1314 H1306 0.950 . S
C1314 C1312 1.391 . S
C1314 C1315 1.400 . S
C1315 C1314 1.400 . S
C1315 C1316 1.398 . S
C1315 C1321 1.491 . S
C1316 H1307 0.950 . S
C1316 C1315 1.398 . S
C1316 C1317 1.391 . S
C1317 H1305 0.950 . S
C1317 C1313 1.393 . S
C1317 C1316 1.391 . S
C1318 H1308 0.950 . S
C1318 C1319 1.386 . S
C1318 C1320 1.391 . S
C1319 C1318 1.386 . S
C1319 C1323 1.393 . S
C1320 H1309 0.950 . S
C1320 C1318 1.391 . S
C1320 C1321 1.400 . S
C1321 C1315 1.491 . S
C1321 C1320 1.400 . S
C1321 C1322 1.398 . S
C1322 H1310 0.950 . S
C1322 C1321 1.398 . S
C1322 C1323 1.391 . S
C1323 H1311 0.950 . S
C1323 C1319 1.393 . S
C1323 C1322 1.391 . S
H1324 C1332 0.950 . S
H1325 C1337 0.950 . S
H1326 C1334 0.950 . S
H1327 C1336 0.950 . S
H1328 C1338 0.950 . S
H1329 C1340 0.950 . S
H1330 C1342 0.956 . S
H1331 C1343 0.950 . S
C1332 H1324 0.950 . S
C1332 C1333 1.386 . S
C1332 C1334 1.391 . S
C1333 C1332 1.386 . S
C1333 C1337 1.393 . S
C1334 H1326 0.950 . S
C1334 C1332 1.391 . S
C1334 C1335 1.400 . S
C1335 C1334 1.400 . S
C1335 C1336 1.398 . S
C1335 C1341 1.491 . S
C1336 H1327 0.950 . S
C1336 C1335 1.398 . S
C1336 C1337 1.391 . S
C1337 H1325 0.950 . S
C1337 C1333 1.393 . S
C1337 C1336 1.391 . S
C1338 H1328 0.950 . S
C1338 C1339 1.386 . S
C1338 C1340 1.391 1_565 S
C1339 C1338 1.386 . S
C1339 C1343 1.393 . S
C1340 H1329 0.950 . S
C1340 C1338 1.391 1_545 S
C1340 C1341 1.400 . S
C1341 C1335 1.491 . S
C1341 C1340 1.400 . S
C1341 C1342 1.412 . S
C1342 H1330 0.956 . S
C1342 C1341 1.412 . S
C1342 C1343 1.372 1_545 S
C1343 H1331 0.950 . S
C1343 C1339 1.393 . S
C1343 C1342 1.372 1_565 S
H1344 C1352 0.950 . S
H1345 C1357 0.950 . S
H1346 C1354 0.950 . S
H1347 C1356 0.950 . S
H1348 C1358 0.950 . S
H1349 C1360 0.950 . S
H1350 C1362 0.950 . S
H1351 C1363 0.950 . S
C1352 H1344 0.950 . S
C1352 C1353 1.386 . S
C1352 C1354 1.391 . S
C1353 C1352 1.386 . S
C1353 C1357 1.393 1_655 S
C1354 H1346 0.950 . S
C1354 C1352 1.391 . S
C1354 C1355 1.398 . S
C1355 C1354 1.398 . S
C1355 C1356 1.400 1_655 S
C1355 C1361 1.491 1_655 S
C1356 H1347 0.950 . S
C1356 C1355 1.400 1_455 S
C1356 C1357 1.391 . S
C1357 H1345 0.950 . S
C1357 C1353 1.393 1_455 S
C1357 C1356 1.391 . S
C1358 H1348 0.950 . S
C1358 C1359 1.386 . S
C1358 C1360 1.391 . S
C1359 C1358 1.386 . S
C1359 C1363 1.393 1_455 S
C1360 H1349 0.950 . S
C1360 C1358 1.391 . S
C1360 C1361 1.400 . S
C1361 C1355 1.491 1_455 S
C1361 C1360 1.400 . S
C1361 C1362 1.398 1_455 S
C1362 H1350 0.950 . S
C1362 C1361 1.398 1_655 S
C1362 C1363 1.391 . S
C1363 H1351 0.950 . S
C1363 C1359 1.393 1_655 S
C1363 C1362 1.391 . S
H1364 C1372 0.950 . S
H1365 C1377 0.950 . S
H1366 C1374 0.950 . S
H1367 C1376 0.950 . S
H1368 C1378 0.950 . S
H1369 C1380 0.950 . S
H1370 C1382 0.950 . S
H1371 C1383 0.950 . S
C1372 H1364 0.950 . S
C1372 C1373 1.386 . S
C1372 C1374 1.391 . S
C1373 C1372 1.386 . S
C1373 C1377 1.393 1_455 S
C1374 H1366 0.950 . S
C1374 C1372 1.391 . S
C1374 C1375 1.400 . S
C1375 C1374 1.400 . S
C1375 C1376 1.398 1_455 S
C1375 C1381 1.490 . S
C1376 H1367 0.950 . S
C1376 C1375 1.398 1_655 S
C1376 C1377 1.391 . S
C1377 H1365 0.950 . S
C1377 C1373 1.393 1_655 S
C1377 C1376 1.391 . S
C1378 H1368 0.950 . S
C1378 C1379 1.386 . S
C1378 C1380 1.391 . S
C1379 C1378 1.386 . S
C1379 C1383 1.393 1_655 S
C1380 H1369 0.950 . S
C1380 C1378 1.391 . S
C1380 C1381 1.401 1_655 S
C1381 C1375 1.490 . S
C1381 C1380 1.401 1_455 S
C1381 C1382 1.397 . S
C1382 H1370 0.950 . S
C1382 C1381 1.397 . S
C1382 C1383 1.391 . S
C1383 H1371 0.950 . S
C1383 C1379 1.393 1_455 S
C1383 C1382 1.391 . S
H1384 C1392 0.950 . S
H1385 C1397 0.950 . S
H1386 C1394 0.950 . S
H1387 C1396 0.950 . S
H1388 C1398 0.950 . S
H1389 C1400 0.950 . S
H1390 C1402 0.950 . S
H1391 C1403 0.950 . S
C1392 H1384 0.950 . S
C1392 C1393 1.386 1_545 S
C1392 C1394 1.391 . S
C1393 C1392 1.386 1_565 S
C1393 C1397 1.393 . S
C1394 H1386 0.950 . S
C1394 C1392 1.391 . S
C1394 C1395 1.403 1_545 S
C1395 C1394 1.403 1_565 S
C1395 C1396 1.395 . S
C1395 C1401 1.491 1_565 S
C1396 H1387 0.950 . S
C1396 C1395 1.395 . S
C1396 C1397 1.391 . S
C1397 H1385 0.950 . S
C1397 C1393 1.393 . S
C1397 C1396 1.391 . S
C1398 H1388 0.950 . S
C1398 C1399 1.386 1_565 S
C1398 C1400 1.391 . S
C1399 C1398 1.386 1_545 S
C1399 C1403 1.393 . S
C1400 H1389 0.950 . S
C1400 C1398 1.391 . S
C1400 C1401 1.400 1_565 S
C1401 C1395 1.491 1_545 S
C1401 C1400 1.400 1_545 S
C1401 C1402 1.398 . S
C1402 H1390 0.950 . S
C1402 C1401 1.398 . S
C1402 C1403 1.391 . S
C1403 H1391 0.950 . S
C1403 C1399 1.393 . S
C1403 C1402 1.391 . S
H1404 C1412 0.950 . S
H1405 C1417 0.950 . S
H1406 C1414 0.950 . S
H1407 C1416 0.950 . S
H1408 C1418 0.950 . S
H1409 C1420 0.950 . S
H1410 C1422 0.950 . S
H1411 C1423 0.950 . S
C1412 H1404 0.950 . S
C1412 C1413 1.386 . S
C1412 C1414 1.391 . S
C1413 C1412 1.386 . S
C1413 C1417 1.393 . S
C1414 H1406 0.950 . S
C1414 C1412 1.391 . S
C1414 C1415 1.400 . S
C1415 C1414 1.400 . S
C1415 C1416 1.398 . S
C1415 C1421 1.491 . S
C1416 H1407 0.950 . S
C1416 C1415 1.398 . S
C1416 C1417 1.391 . S
C1417 H1405 0.950 . S
C1417 C1413 1.393 . S
C1417 C1416 1.391 . S
C1418 H1408 0.950 . S
C1418 C1419 1.386 . S
C1418 C1420 1.391 . S
C1419 C1418 1.386 . S
C1419 C1423 1.393 . S
C1420 H1409 0.950 . S
C1420 C1418 1.391 . S
C1420 C1421 1.400 . S
C1421 C1415 1.491 . S
C1421 C1420 1.400 . S
C1421 C1422 1.398 . S
C1422 H1410 0.950 . S
C1422 C1421 1.398 . S
C1422 C1423 1.391 . S
C1423 H1411 0.950 . S
C1423 C1419 1.393 . S
C1423 C1422 1.391 . S
H1424 C1432 0.950 . S
H1425 C1437 0.950 . S
H1426 C1434 0.950 . S
H1427 C1436 0.950 . S
H1428 C1438 0.950 . S
H1429 C1440 0.950 . S
H1430 C1442 0.950 . S
H1431 C1443 0.950 . S
C1432 H1424 0.950 . S
C1432 C1433 1.386 1_556 S
C1432 C1434 1.391 . S
C1433 C1432 1.386 1_554 S
C1433 C1437 1.393 . S
C1434 H1426 0.950 . S
C1434 C1432 1.391 . S
C1434 C1435 1.400 1_556 S
C1435 C1434 1.400 1_554 S
C1435 C1436 1.398 . S
C1435 C1441 1.490 1_554 S
C1436 H1427 0.950 . S
C1436 C1435 1.398 . S
C1436 C1437 1.391 . S
C1437 H1425 0.950 . S
C1437 C1433 1.393 . S
C1437 C1436 1.391 . S
C1438 H1428 0.950 . S
C1438 C1439 1.386 1_554 S
C1438 C1440 1.391 . S
C1439 C1438 1.386 1_556 S
C1439 C1443 1.393 . S
C1440 H1429 0.950 . S
C1440 C1438 1.391 . S
C1440 C1441 1.393 1_554 S
C1441 C1435 1.490 1_556 S
C1441 C1440 1.393 1_556 S
C1441 C1442 1.406 . S
C1442 H1430 0.950 . S
C1442 C1441 1.406 . S
C1442 C1443 1.391 . S
C1443 H1431 0.950 . S
C1443 C1439 1.393 . S
C1443 C1442 1.391 . S
H1444 C1452 0.950 . S
H1445 C1457 0.950 . S
H1446 C1454 0.950 . S
H1447 C1456 0.950 . S
H1448 C1458 0.950 . S
H1449 C1460 0.950 . S
H1450 C1462 0.950 . S
H1451 C1463 0.950 . S
C1452 H1444 0.950 . S
C1452 C1453 1.386 . S
C1452 C1454 1.391 . S
C1453 C1452 1.386 . S
C1453 C1457 1.393 . S
C1454 H1446 0.950 . S
C1454 C1452 1.391 . S
C1454 C1455 1.400 . S
C1455 C1454 1.400 . S
C1455 C1456 1.398 . S
C1455 C1461 1.491 . S
C1456 H1447 0.950 . S
C1456 C1455 1.398 . S
C1456 C1457 1.391 . S
C1457 H1445 0.950 . S
C1457 C1453 1.393 . S
C1457 C1456 1.391 . S
C1458 H1448 0.950 . S
C1458 C1459 1.386 . S
C1458 C1460 1.391 . S
C1459 C1458 1.386 . S
C1459 C1463 1.393 . S
C1460 H1449 0.950 . S
C1460 C1458 1.391 . S
C1460 C1461 1.400 . S
C1461 C1455 1.491 . S
C1461 C1460 1.400 . S
C1461 C1462 1.398 . S
C1462 H1450 0.950 . S
C1462 C1461 1.398 . S
C1462 C1463 1.391 . S
C1463 H1451 0.950 . S
C1463 C1459 1.393 . S
C1463 C1462 1.391 . S
H1464 C1472 0.950 . S
H1465 C1477 0.950 . S
H1466 C1474 0.950 . S
H1467 C1476 0.950 . S
H1468 C1478 0.950 . S
H1469 C1480 0.950 . S
H1470 C1482 0.950 . S
H1471 C1483 0.950 . S
C1472 H1464 0.950 . S
C1472 C1473 1.386 . S
C1472 C1474 1.391 . S
C1473 C1472 1.386 . S
C1473 C1477 1.393 . S
C1474 H1466 0.950 . S
C1474 C1472 1.391 . S
C1474 C1475 1.400 . S
C1475 C1474 1.400 . S
C1475 C1476 1.398 . S
C1475 C1481 1.491 . S
C1476 H1467 0.950 . S
C1476 C1475 1.398 . S
C1476 C1477 1.391 . S
C1477 H1465 0.950 . S
C1477 C1473 1.393 . S
C1477 C1476 1.391 . S
C1478 H1468 0.950 . S
C1478 C1479 1.386 . S
C1478 C1480 1.391 . S
C1479 C1478 1.386 . S
C1479 C1483 1.393 . S
C1480 H1469 0.950 . S
C1480 C1478 1.391 . S
C1480 C1481 1.400 . S
C1481 C1475 1.491 . S
C1481 C1480 1.400 . S
C1481 C1482 1.398 . S
C1482 H1470 0.950 . S
C1482 C1481 1.398 . S
C1482 C1483 1.391 . S
C1483 H1471 0.950 . S
C1483 C1479 1.393 . S
C1483 C1482 1.391 . S
H1484 C1492 0.950 . S
H1485 C1497 0.950 . S
H1486 C1494 0.950 . S
H1487 C1496 0.950 . S
H1488 C1498 0.950 . S
H1489 C1500 0.950 . S
H1490 C1502 0.950 . S
H1491 C1503 0.950 . S
C1492 H1484 0.950 . S
C1492 C1493 1.386 . S
C1492 C1494 1.391 . S
C1493 C1492 1.386 . S
C1493 C1497 1.393 . S
C1494 H1486 0.950 . S
C1494 C1492 1.391 . S
C1494 C1495 1.400 . S
C1495 C1494 1.400 . S
C1495 C1496 1.398 . S
C1495 C1501 1.491 . S
C1496 H1487 0.950 . S
C1496 C1495 1.398 . S
C1496 C1497 1.391 . S
C1497 H1485 0.950 . S
C1497 C1493 1.393 . S
C1497 C1496 1.391 . S
C1498 H1488 0.950 . S
C1498 C1499 1.386 . S
C1498 C1500 1.391 . S
C1499 C1498 1.386 . S
C1499 C1503 1.393 . S
C1500 H1489 0.950 . S
C1500 C1498 1.391 . S
C1500 C1501 1.400 . S
C1501 C1495 1.491 . S
C1501 C1500 1.400 . S
C1501 C1502 1.398 . S
C1502 H1490 0.950 . S
C1502 C1501 1.398 . S
C1502 C1503 1.391 . S
C1503 H1491 0.950 . S
C1503 C1499 1.393 . S
C1503 C1502 1.391 . S
H1504 C1512 0.950 . S
H1505 C1517 0.950 . S
H1506 C1514 0.950 . S
H1507 C1516 0.950 . S
H1508 C1518 0.950 . S
H1509 C1520 0.950 . S
H1510 C1522 0.950 . S
H1511 C1523 0.950 . S
C1512 H1504 0.950 . S
C1512 C1513 1.386 . S
C1512 C1514 1.391 . S
C1513 C1512 1.386 . S
C1513 C1517 1.393 . S
C1514 H1506 0.950 . S
C1514 C1512 1.391 . S
C1514 C1515 1.400 . S
C1515 C1514 1.400 . S
C1515 C1516 1.398 . S
C1515 C1521 1.491 . S
C1516 H1507 0.950 . S
C1516 C1515 1.398 . S
C1516 C1517 1.391 . S
C1517 H1505 0.950 . S
C1517 C1513 1.393 . S
C1517 C1516 1.391 . S
C1518 H1508 0.950 . S
C1518 C1519 1.386 . S
C1518 C1520 1.391 . S
C1519 C1518 1.386 . S
C1519 C1523 1.393 . S
C1520 H1509 0.950 . S
C1520 C1518 1.391 . S
C1520 C1521 1.400 . S
C1521 C1515 1.491 . S
C1521 C1520 1.400 . S
C1521 C1522 1.398 . S
C1522 H1510 0.950 . S
C1522 C1521 1.398 . S
C1522 C1523 1.391 . S
C1523 H1511 0.950 . S
C1523 C1519 1.393 . S
C1523 C1522 1.391 . S
H1524 C1532 0.950 . S
H1525 C1537 0.950 . S
H1526 C1534 0.950 . S
H1527 C1536 0.950 . S
H1528 C1538 0.950 . S
H1529 C1540 0.950 . S
H1530 C1542 0.950 . S
H1531 C1543 0.950 . S
C1532 H1524 0.950 . S
C1532 C1533 1.386 . S
C1532 C1534 1.391 . S
C1533 C1532 1.386 . S
C1533 C1537 1.393 . S
C1534 H1526 0.950 . S
C1534 C1532 1.391 . S
C1534 C1535 1.400 . S
C1535 C1534 1.400 . S
C1535 C1536 1.398 . S
C1535 C1541 1.491 . S
C1536 H1527 0.950 . S
C1536 C1535 1.398 . S
C1536 C1537 1.391 . S
C1537 H1525 0.950 . S
C1537 C1533 1.393 . S
C1537 C1536 1.391 . S
C1538 H1528 0.950 . S
C1538 C1539 1.386 . S
C1538 C1540 1.391 . S
C1539 C1538 1.386 . S
C1539 C1543 1.393 . S
C1540 H1529 0.950 . S
C1540 C1538 1.391 . S
C1540 C1541 1.400 . S
C1541 C1535 1.491 . S
C1541 C1540 1.400 . S
C1541 C1542 1.398 . S
C1542 H1530 0.950 . S
C1542 C1541 1.398 . S
C1542 C1543 1.391 . S
C1543 H1531 0.950 . S
C1543 C1539 1.393 . S
C1543 C1542 1.391 . S
H1544 C1552 0.950 . S
H1545 C1557 0.950 . S
H1546 C1554 0.950 . S
H1547 C1556 0.950 . S
H1548 C1558 0.950 . S
H1549 C1560 0.950 . S
H1550 C1562 0.950 . S
H1551 C1563 0.950 . S
C1552 H1544 0.950 . S
C1552 C1553 1.386 . S
C1552 C1554 1.391 . S
C1553 C1552 1.386 . S
C1553 C1557 1.393 1_545 S
C1554 H1546 0.950 . S
C1554 C1552 1.391 . S
C1554 C1555 1.400 . S
C1555 C1554 1.400 . S
C1555 C1556 1.398 1_545 S
C1555 C1561 1.488 1_545 S
C1556 H1547 0.950 . S
C1556 C1555 1.398 1_565 S
C1556 C1557 1.391 . S
C1557 H1545 0.950 . S
C1557 C1553 1.393 1_565 S
C1557 C1556 1.391 . S
C1558 H1548 0.950 . S
C1558 C1559 1.386 . S
C1558 C1560 1.391 . S
C1559 C1558 1.386 . S
C1559 C1563 1.393 1_565 S
C1560 H1549 0.950 . S
C1560 C1558 1.391 . S
C1560 C1561 1.422 . S
C1561 C1555 1.488 1_565 S
C1561 C1560 1.422 . S
C1561 C1562 1.379 1_565 S
C1562 H1550 0.950 . S
C1562 C1561 1.379 1_545 S
C1562 C1563 1.391 . S
C1563 H1551 0.950 . S
C1563 C1559 1.393 1_545 S
C1563 C1562 1.391 . S
H1564 C1572 0.950 . S
H1565 C1577 0.950 . S
H1566 C1574 0.950 . S
H1567 C1576 0.950 . S
H1568 C1578 0.950 . S
H1569 C1580 0.950 . S
H1570 C1582 0.950 . S
H1571 C1583 0.950 . S
C1572 H1564 0.950 . S
C1572 C1573 1.386 . S
C1572 C1574 1.391 . S
C1573 C1572 1.386 . S
C1573 C1577 1.393 1_556 S
C1574 H1566 0.950 . S
C1574 C1572 1.391 . S
C1574 C1575 1.399 1_556 S
C1575 C1574 1.399 1_554 S
C1575 C1576 1.400 . S
C1575 C1581 1.491 . S
C1576 H1567 0.950 . S
C1576 C1575 1.400 . S
C1576 C1577 1.391 . S
C1577 H1565 0.950 . S
C1577 C1573 1.393 1_554 S
C1577 C1576 1.391 . S
C1578 H1568 0.950 . S
C1578 C1579 1.386 . S
C1578 C1580 1.391 . S
C1579 C1578 1.386 . S
C1579 C1583 1.393 1_554 S
C1580 H1569 0.950 . S
C1580 C1578 1.391 . S
C1580 C1581 1.400 . S
C1581 C1575 1.491 . S
C1581 C1580 1.400 . S
C1581 C1582 1.398 1_554 S
C1582 H1570 0.950 . S
C1582 C1581 1.398 1_556 S
C1582 C1583 1.391 . S
C1583 H1571 0.950 . S
C1583 C1579 1.393 1_556 S
C1583 C1582 1.391 . S
H1584 C1592 0.950 . S
H1585 C1597 0.950 . S
H1586 C1594 0.950 . S
H1587 C1596 0.950 . S
H1588 C1598 0.950 . S
H1589 C1600 0.950 . S
H1590 C1602 0.950 . S
H1591 C1603 0.950 . S
C1592 H1584 0.950 . S
C1592 C1593 1.386 1_655 S
C1592 C1594 1.391 . S
C1593 C1592 1.386 1_455 S
C1593 C1597 1.393 . S
C1594 H1586 0.950 . S
C1594 C1592 1.391 . S
C1594 C1595 1.400 1_655 S
C1595 C1594 1.400 1_455 S
C1595 C1596 1.398 . S
C1595 C1601 1.491 1_565 S
C1596 H1587 0.950 . S
C1596 C1595 1.398 . S
C1596 C1597 1.391 . S
C1597 H1585 0.950 . S
C1597 C1593 1.393 . S
C1597 C1596 1.391 . S
C1598 H1588 0.950 . S
C1598 C1599 1.386 . S
C1598 C1600 1.391 . S
C1599 C1598 1.386 . S
C1599 C1603 1.393 1_455 S
C1600 H1589 0.950 . S
C1600 C1598 1.391 . S
C1600 C1601 1.400 . S
C1601 C1595 1.491 1_545 S
C1601 C1600 1.400 . S
C1601 C1602 1.398 1_455 S
C1602 H1590 0.950 . S
C1602 C1601 1.398 1_655 S
C1602 C1603 1.391 . S
C1603 H1591 0.950 . S
C1603 C1599 1.393 1_655 S
C1603 C1602 1.391 . S
H1604 C1612 0.950 . S
H1605 C1617 0.950 . S
H1606 C1614 0.950 . S
H1607 C1616 0.950 . S
H1608 C1618 0.950 . S
H1609 C1620 0.950 . S
H1610 C1622 0.950 . S
H1611 C1623 0.950 . S
C1612 H1604 0.950 . S
C1612 C1613 1.386 1_455 S
C1612 C1614 1.391 . S
C1613 C1612 1.386 1_655 S
C1613 C1617 1.393 . S
C1614 H1606 0.950 . S
C1614 C1612 1.391 . S
C1614 C1615 1.400 1_455 S
C1615 C1614 1.400 1_655 S
C1615 C1616 1.398 . S
C1615 C1621 1.491 . S
C1616 H1607 0.950 . S
C1616 C1615 1.398 . S
C1616 C1617 1.391 . S
C1617 H1605 0.950 . S
C1617 C1613 1.393 . S
C1617 C1616 1.391 . S
C1618 H1608 0.950 . S
C1618 C1619 1.386 . S
C1618 C1620 1.391 . S
C1619 C1618 1.386 . S
C1619 C1623 1.393 1_655 S
C1620 H1609 0.950 . S
C1620 C1618 1.391 . S
C1620 C1621 1.400 . S
C1621 C1615 1.491 . S
C1621 C1620 1.400 . S
C1621 C1622 1.398 1_655 S
C1622 H1610 0.950 . S
C1622 C1621 1.398 1_455 S
C1622 C1623 1.391 . S
C1623 H1611 0.950 . S
C1623 C1619 1.393 1_455 S
C1623 C1622 1.391 . S
H1624 C1632 0.950 . S
H1625 C1637 0.950 . S
H1626 C1634 0.950 . S
H1627 C1636 0.950 . S
H1628 C1638 0.950 . S
H1629 C1640 0.950 . S
H1630 C1642 0.950 1_556 S
H1631 C1643 0.950 . S
C1632 H1624 0.950 . S
C1632 C1633 1.386 1_565 S
C1632 C1634 1.391 . S
C1633 C1632 1.386 1_545 S
C1633 C1637 1.393 . S
C1634 H1626 0.950 . S
C1634 C1632 1.391 . S
C1634 C1635 1.400 1_565 S
C1635 C1634 1.400 1_545 S
C1635 C1636 1.398 . S
C1635 C1641 1.491 1_556 S
C1636 H1627 0.950 . S
C1636 C1635 1.398 . S
C1636 C1637 1.391 . S
C1637 H1625 0.950 . S
C1637 C1633 1.393 . S
C1637 C1636 1.391 . S
C1638 H1628 0.950 . S
C1638 C1639 1.386 . S
C1638 C1640 1.391 . S
C1639 C1638 1.386 . S
C1639 C1643 1.393 1_545 S
C1640 H1629 0.950 . S
C1640 C1638 1.391 . S
C1640 C1641 1.400 . S
C1641 C1635 1.491 1_554 S
C1641 C1640 1.400 . S
C1641 C1642 1.398 1_545 S
C1642 H1630 0.950 1_554 S
C1642 C1641 1.398 1_565 S
C1642 C1643 1.391 . S
C1643 H1631 0.950 . S
C1643 C1639 1.393 1_565 S
C1643 C1642 1.391 . S
H1644 C1652 0.950 . S
H1645 C1657 0.950 . S
H1646 C1654 0.950 1_556 S
H1647 C1656 0.950 . S
H1648 C1658 0.950 . S
H1649 C1660 0.924 1_554 S
H1650 C1662 0.950 . S
H1651 C1663 0.950 . S
C1652 H1644 0.950 . S
C1652 C1653 1.386 . S
C1652 C1654 1.391 . S
C1653 C1652 1.386 . S
C1653 C1657 1.393 . S
C1654 H1646 0.950 1_554 S
C1654 C1652 1.391 . S
C1654 C1655 1.400 . S
C1655 C1654 1.400 . S
C1655 C1656 1.398 . S
C1655 C1661 1.491 1_554 S
C1656 H1647 0.950 . S
C1656 C1655 1.398 . S
C1656 C1657 1.391 . S
C1657 H1645 0.950 . S
C1657 C1653 1.393 . S
C1657 C1656 1.391 . S
C1658 H1648 0.950 . S
C1658 C1659 1.386 . S
C1658 C1660 1.391 . S
C1659 C1658 1.386 . S
C1659 C1663 1.393 . S
C1660 H1649 0.924 1_556 S
C1660 C1658 1.391 . S
C1660 C1661 1.400 . S
C1661 C1655 1.491 1_556 S
C1661 C1660 1.400 . S
C1661 C1662 1.398 . S
C1662 H1650 0.950 . S
C1662 C1661 1.398 . S
C1662 C1663 1.391 . S
C1663 H1651 0.950 . S
C1663 C1659 1.393 . S
C1663 C1662 1.391 . S
H1664 C1672 0.950 . S
H1665 C1677 0.950 . S
H1666 C1674 0.950 . S
H1667 C1676 0.950 . S
H1668 C1678 0.950 . S
H1669 C1680 0.950 . S
H1670 C1682 0.950 . S
H1671 C1683 0.950 . S
C1672 H1664 0.950 . S
C1672 C1673 1.386 . S
C1672 C1674 1.391 . S
C1673 C1672 1.386 . S
C1673 C1677 1.393 1_565 S
C1674 H1666 0.950 . S
C1674 C1672 1.391 . S
C1674 C1675 1.400 . S
C1675 C1674 1.400 . S
C1675 C1676 1.398 1_565 S
C1675 C1681 1.491 . S
C1676 H1667 0.950 . S
C1676 C1675 1.398 1_545 S
C1676 C1677 1.391 . S
C1677 H1665 0.950 . S
C1677 C1673 1.393 1_545 S
C1677 C1676 1.391 . S
C1678 H1668 0.950 . S
C1678 C1679 1.386 1_545 S
C1678 C1680 1.391 . S
C1679 C1678 1.386 1_565 S
C1679 C1683 1.393 . S
C1680 H1669 0.950 . S
C1680 C1678 1.391 . S
C1680 C1681 1.400 1_545 S
C1681 C1675 1.491 . S
C1681 C1680 1.400 1_565 S
C1681 C1682 1.398 . S
C1682 H1670 0.950 . S
C1682 C1681 1.398 . S
C1682 C1683 1.391 . S
C1683 H1671 0.950 . S
C1683 C1679 1.393 . S
C1683 C1682 1.391 . S
H1684 C1692 0.950 . S
H1685 C1697 0.950 . S
H1686 C1694 0.950 . S
H1687 C1696 0.950 . S
H1688 C1698 0.950 . S
H1689 C1700 0.950 . S
H1690 C1702 0.950 . S
H1691 C1703 0.950 . S
C1692 H1684 0.950 . S
C1692 C1693 1.386 . S
C1692 C1694 1.391 . S
C1693 C1692 1.386 . S
C1693 C1697 1.393 . S
C1694 H1686 0.950 . S
C1694 C1692 1.391 . S
C1694 C1695 1.400 . S
C1695 C1694 1.400 . S
C1695 C1696 1.398 . S
C1695 C1701 1.491 . S
C1696 H1687 0.950 . S
C1696 C1695 1.398 . S
C1696 C1697 1.391 . S
C1697 H1685 0.950 . S
C1697 C1693 1.393 . S
C1697 C1696 1.391 . S
C1698 H1688 0.950 . S
C1698 C1699 1.386 . S
C1698 C1700 1.391 . S
C1699 C1698 1.386 . S
C1699 C1703 1.393 . S
C1700 H1689 0.950 . S
C1700 C1698 1.391 . S
C1700 C1701 1.400 . S
C1701 C1695 1.491 . S
C1701 C1700 1.400 . S
C1701 C1702 1.398 . S
C1702 H1690 0.950 . S
C1702 C1701 1.398 . S
C1702 C1703 1.391 . S
C1703 H1691 0.950 . S
C1703 C1699 1.393 . S
C1703 C1702 1.391 . S
H1704 C1712 0.950 . S
H1705 C1717 0.950 . S
H1706 C1714 0.950 . S
H1707 C1716 0.951 . S
H1708 C1718 0.950 . S
H1709 C1720 0.950 . S
H1710 C1722 0.950 . S
H1711 C1723 0.950 . S
C1712 H1704 0.950 . S
C1712 C1713 1.386 . S
C1712 C1714 1.391 . S
C1713 C1712 1.386 . S
C1713 C1717 1.393 1_554 S
C1714 H1706 0.950 . S
C1714 C1712 1.391 . S
C1714 C1715 1.400 . S
C1715 C1714 1.400 . S
C1715 C1716 1.398 1_554 S
C1715 C1721 1.491 1_455 S
C1716 H1707 0.951 . S
C1716 C1715 1.398 1_556 S
C1716 C1717 1.391 . S
C1717 H1705 0.950 . S
C1717 C1713 1.393 1_556 S
C1717 C1716 1.391 . S
C1718 H1708 0.950 . S
C1718 C1719 1.386 1_556 S
C1718 C1720 1.391 . S
C1719 C1718 1.386 1_554 S
C1719 C1723 1.393 . S
C1720 H1709 0.950 . S
C1720 C1718 1.391 . S
C1720 C1721 1.400 1_556 S
C1721 C1715 1.491 1_655 S
C1721 C1720 1.400 1_554 S
C1721 C1722 1.398 . S
C1722 H1710 0.950 . S
C1722 C1721 1.398 . S
C1722 C1723 1.391 . S
C1723 H1711 0.950 . S
C1723 C1719 1.393 . S
C1723 C1722 1.391 . S
H1724 C1732 0.950 . S
H1725 C1737 0.950 . S
H1726 C1734 0.950 1_655 S
H1727 C1736 0.950 . S
H1728 C1738 0.950 . S
H1729 C1740 0.950 1_455 S
H1730 C1742 0.950 . S
H1731 C1743 0.950 . S
C1732 H1724 0.950 . S
C1732 C1733 1.386 . S
C1732 C1734 1.391 . S
C1733 C1732 1.386 . S
C1733 C1737 1.393 . S
C1734 H1726 0.950 1_455 S
C1734 C1732 1.391 . S
C1734 C1735 1.400 . S
C1735 C1734 1.400 . S
C1735 C1736 1.398 . S
C1735 C1741 1.491 1_455 S
C1736 H1727 0.950 . S
C1736 C1735 1.398 . S
C1736 C1737 1.391 . S
C1737 H1725 0.950 . S
C1737 C1733 1.393 . S
C1737 C1736 1.391 . S
C1738 H1728 0.950 . S
C1738 C1739 1.386 . S
C1738 C1740 1.391 . S
C1739 C1738 1.386 . S
C1739 C1743 1.393 . S
C1740 H1729 0.950 1_655 S
C1740 C1738 1.391 . S
C1740 C1741 1.400 . S
C1741 C1735 1.491 1_655 S
C1741 C1740 1.400 . S
C1741 C1742 1.398 . S
C1742 H1730 0.950 . S
C1742 C1741 1.398 . S
C1742 C1743 1.391 . S
C1743 H1731 0.950 . S
C1743 C1739 1.393 . S
C1743 C1742 1.391 . S
H1744 C1752 0.950 . S
H1745 C1757 0.950 . S
H1746 C1754 0.950 . S
H1747 C1756 0.950 . S
H1748 C1758 0.950 . S
H1749 C1760 0.950 . S
H1750 C1762 0.950 . S
H1751 C1763 0.950 . S
C1752 H1744 0.950 . S
C1752 C1753 1.386 . S
C1752 C1754 1.391 . S
C1753 C1752 1.386 . S
C1753 C1757 1.393 . S
C1754 H1746 0.950 . S
C1754 C1752 1.391 . S
C1754 C1755 1.400 . S
C1755 C1754 1.400 . S
C1755 C1756 1.398 . S
C1755 C1761 1.491 . S
C1756 H1747 0.950 . S
C1756 C1755 1.398 . S
C1756 C1757 1.391 . S
C1757 H1745 0.950 . S
C1757 C1753 1.393 . S
C1757 C1756 1.391 . S
C1758 H1748 0.950 . S
C1758 C1759 1.386 . S
C1758 C1760 1.391 . S
C1759 C1758 1.386 . S
C1759 C1763 1.393 . S
C1760 H1749 0.950 . S
C1760 C1758 1.391 . S
C1760 C1761 1.400 . S
C1761 C1755 1.491 . S
C1761 C1760 1.400 . S
C1761 C1762 1.398 . S
C1762 H1750 0.950 . S
C1762 C1761 1.398 . S
C1762 C1763 1.391 . S
C1763 H1751 0.950 . S
C1763 C1759 1.393 . S
C1763 C1762 1.391 . S
H1764 C1772 0.950 . S
H1765 C1777 0.950 . S
H1766 C1774 0.950 . S
H1767 C1776 0.950 . S
H1768 C1778 0.950 . S
H1769 C1780 0.950 . S
H1770 C1782 0.950 . S
H1771 C1783 0.950 . S
C1772 H1764 0.950 . S
C1772 C1773 1.386 . S
C1772 C1774 1.391 . S
C1773 C1772 1.386 . S
C1773 C1777 1.393 . S
C1774 H1766 0.950 . S
C1774 C1772 1.391 . S
C1774 C1775 1.400 . S
C1775 C1774 1.400 . S
C1775 C1776 1.398 . S
C1775 C1781 1.491 . S
C1776 H1767 0.950 . S
C1776 C1775 1.398 . S
C1776 C1777 1.391 . S
C1777 H1765 0.950 . S
C1777 C1773 1.393 . S
C1777 C1776 1.391 . S
C1778 H1768 0.950 . S
C1778 C1779 1.386 . S
C1778 C1780 1.391 . S
C1779 C1778 1.386 . S
C1779 C1783 1.393 . S
C1780 H1769 0.950 . S
C1780 C1778 1.391 . S
C1780 C1781 1.400 . S
C1781 C1775 1.491 . S
C1781 C1780 1.400 . S
C1781 C1782 1.398 . S
C1782 H1770 0.950 . S
C1782 C1781 1.398 . S
C1782 C1783 1.391 . S
C1783 H1771 0.950 . S
C1783 C1779 1.393 . S
C1783 C1782 1.391 . S
H1784 C1792 0.950 . S
H1785 C1797 0.950 . S
H1786 C1794 0.950 . S
H1787 C1796 0.950 1_545 S
H1788 C1798 0.950 . S
H1789 C1800 0.950 . S
H1790 C1802 0.950 1_565 S
H1791 C1803 0.950 . S
C1792 H1784 0.950 . S
C1792 C1793 1.386 . S
C1792 C1794 1.391 . S
C1793 C1792 1.386 . S
C1793 C1797 1.393 . S
C1794 H1786 0.950 . S
C1794 C1792 1.391 . S
C1794 C1795 1.400 . S
C1795 C1794 1.400 . S
C1795 C1796 1.398 . S
C1795 C1801 1.491 1_565 S
C1796 H1787 0.950 1_565 S
C1796 C1795 1.398 . S
C1796 C1797 1.391 . S
C1797 H1785 0.950 . S
C1797 C1793 1.393 . S
C1797 C1796 1.391 . S
C1798 H1788 0.950 . S
C1798 C1799 1.386 . S
C1798 C1800 1.391 . S
C1799 C1798 1.386 . S
C1799 C1803 1.393 . S
C1800 H1789 0.950 . S
C1800 C1798 1.391 . S
C1800 C1801 1.400 . S
C1801 C1795 1.491 1_545 S
C1801 C1800 1.400 . S
C1801 C1802 1.398 . S
C1802 H1790 0.950 1_545 S
C1802 C1801 1.398 . S
C1802 C1803 1.391 . S
C1803 H1791 0.950 . S
C1803 C1799 1.393 . S
C1803 C1802 1.391 . S
H1804 C1812 0.950 . S
H1805 C1817 0.950 . S
H1806 C1814 0.950 . S
H1807 C1816 0.950 . S
H1808 C1818 0.950 . S
H1809 C1820 0.950 . S
H1810 C1822 0.950 . S
H1811 C1823 0.950 . S
C1812 H1804 0.950 . S
C1812 C1813 1.386 1_554 S
C1812 C1814 1.391 . S
C1813 C1812 1.386 1_556 S
C1813 C1817 1.393 . S
C1814 H1806 0.950 . S
C1814 C1812 1.391 . S
C1814 C1815 1.400 1_554 S
C1815 C1814 1.400 1_556 S
C1815 C1816 1.398 . S
C1815 C1821 1.491 . S
C1816 H1807 0.950 . S
C1816 C1815 1.398 . S
C1816 C1817 1.391 . S
C1817 H1805 0.950 . S
C1817 C1813 1.393 . S
C1817 C1816 1.391 . S
C1818 H1808 0.950 . S
C1818 C1819 1.386 . S
C1818 C1820 1.391 . S
C1819 C1818 1.386 . S
C1819 C1823 1.393 1_556 S
C1820 H1809 0.950 . S
C1820 C1818 1.391 . S
C1820 C1821 1.400 . S
C1821 C1815 1.491 . S
C1821 C1820 1.400 . S
C1821 C1822 1.398 1_556 S
C1822 H1810 0.950 . S
C1822 C1821 1.398 1_554 S
C1822 C1823 1.391 . S
C1823 H1811 0.950 . S
C1823 C1819 1.393 1_554 S
C1823 C1822 1.391 . S
C873 C615 0.564 . S
C879 C2 0.560 . S
C893 C38 0.686 . S
C899 C579 0.661 . S
C913 C74 0.726 . S
C919 C687 0.736 . S
C933 C110 0.833 . S
C939 C651 0.826 . S
C953 C146 0.573 . S
C959 C759 0.567 . S
C973 C182 0.671 . S
C979 C795 0.661 . S
C993 C723 0.697 . S
C999 C218 0.667 . S
C1013 C399 0.733 . S
C1019 C254 0.750 . S
C1033 C290 0.543 . S
C1039 C111 0.555 . S
C1053 C39 0.664 . S
C1059 C326 0.696 . S
C1073 C362 0.877 . S
C1079 C3 0.869 . S
C1093 C398 0.757 . S
C1099 C507 0.734 . S
C1113 C183 0.946 . S
C1119 C434 0.952 . S
C1133 C147 0.845 . S
C1139 C470 0.846 . S
C1153 C506 0.754 . S
C1159 C255 0.733 . S
C1173 C542 0.705 . S
C1179 C219 0.696 . S
C1193 C327 0.906 . S
C1199 C578 0.915 . S
C1213 C363 0.793 . S
C1219 C614 0.821 . S
C1233 C291 0.868 . S
C1239 C650 0.878 . S
C1253 C686 0.700 . S
C1259 C831 0.729 . S
C1273 C543 0.927 . S
C1279 C722 0.919 . S
C1293 C758 0.828 . S
C1299 C471 0.795 . S
C1313 C435 0.625 . S
C1319 C794 0.631 . S
C1333 C830 0.689 . S
C1339 C75 0.714 . S
C1353 C4 1.719 . S
C1359 C40 1.715 . S
C1373 C112 1.604 . S
C1379 C76 1.615 . S
C1393 C148 1.723 . S
C1399 C220 1.707 . S
C1413 C184 1.899 . S
C1419 C256 1.881 . S
C1433 C796 1.715 . S
C1439 C292 1.721 . S
C1453 C328 1.899 . S
C1459 C400 1.881 . S
C1473 C724 1.810 . S
C1479 C364 1.830 . S
C1493 C472 1.836 . S
C1499 C436 1.816 . S
C1513 C508 1.882 . S
C1519 C544 1.898 . S
C1533 C652 1.823 . S
C1539 C580 1.810 . S
C1553 C616 1.611 . S
C1559 C688 1.627 . S
C1573 C832 1.614 . S
C1579 C760 1.606 . S
C1593 C86 1.189 . S
C1599 C14 1.188 . S
C1613 C50 1.428 . S
C1619 C122 1.440 . S
C1633 C698 1.185 . S
C1639 C158 1.191 . S
C1653 C194 1.357 . S
C1659 C662 1.350 . S
C1673 C230 1.422 . S
C1679 C626 1.437 . S
C1693 C590 1.611 . S
C1699 C266 1.591 . S
C1713 C302 1.178 . S
C1719 C842 1.186 . S
C1733 C338 1.362 . S
C1739 C374 1.351 . S
C1753 C734 1.610 . S
C1759 C410 1.597 . S
C1773 C446 1.598 . S
C1779 C518 1.601 . S
C1793 C482 1.350 . S
C1799 C554 1.362 . S
C1813 C806 1.437 . S
C1819 C770 1.431 . S
