# Generated by pormake.
# Topology upa, (4)-cn, num edge types: 1
# Building blocks:
#     Node 0, Type 0, BuildingBlock: ICAMEG_clean_sbu_1, # of connection points: 4
#     Node 1, Type 0, BuildingBlock: ICAMEG_clean_sbu_1, # of connection points: 4
#     Node 2, Type 0, BuildingBlock: ICAMEG_clean_sbu_1, # of connection points: 4
#     Node 3, Type 0, BuildingBlock: ICAMEG_clean_sbu_1, # of connection points: 4
#     Node 4, Type 0, BuildingBlock: ICAMEG_clean_sbu_1, # of connection points: 4
#     Node 5, Type 0, BuildingBlock: ICAMEG_clean_sbu_1, # of connection points: 4
#     Node 6, Type 0, BuildingBlock: ICAMEG_clean_sbu_1, # of connection points: 4
#     Node 7, Type 0, BuildingBlock: ICAMEG_clean_sbu_1, # of connection points: 4
#     Edge 8, Type (0, 0), BuildingBlock: KIFKEQ_clean_linker_1, # of connection points: 2
#     Edge 9, Type (0, 0), BuildingBlock: KIFKEQ_clean_linker_1, # of connection points: 2
#     Edge 10, Type (0, 0), BuildingBlock: KIFKEQ_clean_linker_1, # of connection points: 2
#     Edge 11, Type (0, 0), BuildingBlock: KIFKEQ_clean_linker_1, # of connection points: 2
#     Edge 12, Type (0, 0), BuildingBlock: KIFKEQ_clean_linker_1, # of connection points: 2
#     Edge 13, Type (0, 0), BuildingBlock: KIFKEQ_clean_linker_1, # of connection points: 2
#     Edge 14, Type (0, 0), BuildingBlock: KIFKEQ_clean_linker_1, # of connection points: 2
#     Edge 15, Type (0, 0), BuildingBlock: KIFKEQ_clean_linker_1, # of connection points: 2
#     Edge 16, Type (0, 0), BuildingBlock: KIFKEQ_clean_linker_1, # of connection points: 2
#     Edge 17, Type (0, 0), BuildingBlock: KIFKEQ_clean_linker_1, # of connection points: 2
#     Edge 18, Type (0, 0), BuildingBlock: KIFKEQ_clean_linker_1, # of connection points: 2
#     Edge 19, Type (0, 0), BuildingBlock: KIFKEQ_clean_linker_1, # of connection points: 2
#     Edge 20, Type (0, 0), BuildingBlock: KIFKEQ_clean_linker_1, # of connection points: 2
#     Edge 21, Type (0, 0), BuildingBlock: KIFKEQ_clean_linker_1, # of connection points: 2
#     Edge 22, Type (0, 0), BuildingBlock: KIFKEQ_clean_linker_1, # of connection points: 2
#     Edge 23, Type (0, 0), BuildingBlock: KIFKEQ_clean_linker_1, # of connection points: 2
# Relax obj value: 0.137
# Max RMSD: 0.082
# Mean RMSD: 0.082
data_MOF--net-upa--node1-ICAMEG_clean_sbu_1--edge1-KIFKEQ_clean_linker_1
_symmetry_space_group_name_H-M    P1
_symmetry_Int_Tables_number       1
_symmetry_cell_setting            triclinic
loop_
_symmetry_equiv_pos_as_xyz
'x, y, z'
_cell_length_a     26.557048
_cell_length_b     26.542437
_cell_length_c     51.130334
_cell_angle_alpha  89.982698
_cell_angle_beta   90.03877
_cell_angle_gamma 90.094651
loop_
_atom_site_label
_atom_site_type_symbol
_atom_site_fract_x
_atom_site_fract_y
_atom_site_fract_z
_atom_type_partial_charge
Co0 Co 0.15486 0.26457 0.36125 0.0
Co1 Co 0.22054 0.17793 0.32316 0.0
O2 O 0.21749 0.23516 0.34761 0.0
C3 C 0.20952 0.23398 0.40925 0.0
O4 O 0.22481 0.19374 0.39667 0.0
C5 C 0.29745 0.25379 0.30319 0.0
O6 O 0.28125 0.28826 0.31948 0.0
O7 O 0.16702 0.20815 0.30012 0.0
O8 O 0.12425 0.26219 0.32575 0.0
H9 H 0.14619 0.03934 0.26828 0.0
H10 H 0.25084 0.31631 0.37383 0.0
O11 O 0.18297 0.26703 0.39763 0.0
H12 H 0.15197 0.43953 0.32317 0.0
H13 H 0.05293 0.38406 0.41635 0.0
H14 H 0.04613 0.24501 0.3525 0.0
H15 H 0.11719 0.35546 0.33306 0.0
H16 H 0.13114 0.34701 0.39895 0.0
O17 O 0.27545 0.21108 0.30172 0.0
H18 H 0.14405 0.11109 0.29885 0.0
H19 H 0.30354 0.12236 0.29619 0.0
H20 H 0.96702 0.28124 0.36923 0.0
H21 H 0.28678 0.40032 0.3648 0.0
H22 H 0.97011 0.35127 0.40142 0.0
H23 H 0.23733 0.46248 0.33915 0.0
O24 O 0.12607 0.19679 0.3691 0.0
H25 H 0.37626 0.17704 0.37966 0.0
H26 H 0.23649 0.07494 0.34465 0.0
H27 H 0.299 0.03537 0.37369 0.0
H28 H 0.36971 0.08645 0.39133 0.0
H29 H 0.31264 0.21522 0.35096 0.0
H30 H 0.30734 0.05104 0.2654 0.0
H31 H 0.2283 0.00889 0.2513 0.0
O32 O 0.16743 0.14219 0.34342 0.0
C33 C 0.131 0.23919 0.30417 0.0
C34 C 0.1809 0.05743 0.27425 0.0
C35 C 0.27133 0.06404 0.27261 0.0
N36 N 0.22354 0.12113 0.29923 0.0
C37 C 0.17992 0.0981 0.29157 0.0
C38 C 0.26889 0.10461 0.28995 0.0
C39 C 0.22697 0.04037 0.26472 0.0
C40 C 0.22892 0.34336 0.36289 0.0
N41 N 0.1821 0.33092 0.35387 0.0
C42 C 0.24954 0.39078 0.35773 0.0
C43 C 0.22181 0.42561 0.3433 0.0
C44 C 0.17396 0.41272 0.33429 0.0
C45 C 0.15458 0.36493 0.3398 0.0
C46 C 0.05109 0.35362 0.40231 0.0
C47 C 0.0478 0.27569 0.36637 0.0
C48 C 0.09525 0.33242 0.39242 0.0
N49 N 0.09322 0.29409 0.37459 0.0
C50 C 1.00287 0.29596 0.37584 0.0
C51 C 1.00464 0.33521 0.39391 0.0
C52 C 0.13391 0.1525 0.36038 0.0
C53 C 0.34588 0.15427 0.37191 0.0
C54 C 0.26711 0.0975 0.35219 0.0
C55 C 0.30245 0.07483 0.36863 0.0
C56 C 0.34211 0.10348 0.37851 0.0
N57 N 0.27125 0.14726 0.34556 0.0
C58 C 0.30987 0.17564 0.35538 0.0
Co59 Co 0.25868 0.65982 0.86114 0.0
Co60 Co 0.35046 0.71981 0.82413 0.0
O61 O 0.29231 0.72023 0.84771 0.0
C62 C 0.29123 0.71112 0.90954 0.0
O63 O 0.33453 0.71907 0.89786 0.0
C64 C 0.27578 0.78894 0.79836 0.0
O65 O 0.23909 0.75773 0.80424 0.0
O66 O 0.31796 0.6683 0.8005 0.0
O67 O 0.26182 0.62777 0.82599 0.0
H68 H 0.48651 0.63885 0.77039 0.0
H69 H 0.21328 0.76003 0.87053 0.0
O70 O 0.25541 0.68986 0.89713 0.0
H71 H 0.08672 0.66539 0.81971 0.0
H72 H 0.12967 0.56683 0.91486 0.0
H73 H 0.27212 0.54978 0.85369 0.0
H74 H 0.16709 0.62569 0.83232 0.0
H75 H 0.17264 0.64219 0.89749 0.0
O76 O 0.32121 0.77735 0.80357 0.0
H77 H 0.41345 0.64014 0.80009 0.0
H78 H 0.412 0.80011 0.79833 0.0
H79 H 0.22994 0.47346 0.8704 0.0
H80 H 0.13318 0.80111 0.85858 0.0
H81 H 0.15818 0.48171 0.90123 0.0
H82 H 0.06935 0.75374 0.83289 0.0
O83 O 0.32423 0.62752 0.8704 0.0
H84 H 0.3565 0.87566 0.87994 0.0
H85 H 0.45293 0.73 0.84753 0.0
H86 H 0.49353 0.79021 0.87762 0.0
H87 H 0.44524 0.86378 0.89399 0.0
H88 H 0.31722 0.81416 0.8501 0.0
H89 H 0.48478 0.80054 0.76844 0.0
H90 H 0.52265 0.71949 0.75431 0.0
O91 O 0.38194 0.66436 0.84451 0.0
C92 C 0.28564 0.63321 0.80453 0.0
C93 C 0.47031 0.67442 0.77637 0.0
C94 C 0.46929 0.76515 0.77525 0.0
N95 N 0.40825 0.7201 0.80086 0.0
C96 C 0.42892 0.67538 0.7932 0.0
C97 C 0.42788 0.76465 0.79208 0.0
C98 C 0.49056 0.71967 0.76735 0.0
C99 C 0.18546 0.73907 0.85955 0.0
N100 N 0.19478 0.69054 0.85214 0.0
C101 C 0.14028 0.76257 0.85276 0.0
C102 C 0.10451 0.73599 0.83831 0.0
C103 C 0.11426 0.68644 0.83088 0.0
C104 C 0.15989 0.66421 0.83799 0.0
C105 C 0.16086 0.56274 0.90142 0.0
C106 C 0.24074 0.55371 0.86699 0.0
C107 C 0.18543 0.60527 0.89157 0.0
N108 N 0.22469 0.6004 0.87449 0.0
C109 C 0.21709 0.51034 0.87644 0.0
C110 C 0.17686 0.515 0.89375 0.0
C111 C 0.36911 0.63233 0.86184 0.0
C112 C 0.37796 0.84379 0.87292 0.0
C113 C 0.43157 0.76165 0.85472 0.0
C114 C 0.45482 0.79577 0.87167 0.0
C115 C 0.42772 0.83707 0.88082 0.0
N116 N 0.38275 0.76845 0.84705 0.0
C117 C 0.35597 0.8089 0.85593 0.0
Co118 Co 0.85508 0.76613 0.36067 0.0
Co119 Co 0.79781 0.8517 0.31901 0.0
O120 O 0.79548 0.79776 0.34524 0.0
C121 C 0.80241 0.8028 0.40798 0.0
O122 O 0.79592 0.84587 0.3958 0.0
C123 C 0.72579 0.77532 0.29649 0.0
O124 O 0.75587 0.73865 0.30371 0.0
O125 O 0.84794 0.81368 0.29692 0.0
O126 O 0.88939 0.76589 0.32615 0.0
H127 H 0.88305 0.97475 0.25875 0.0
H128 H 0.7546 0.72088 0.3696 0.0
O129 O 0.82294 0.76599 0.39613 0.0
H130 H 0.85302 0.58958 0.32457 0.0
H131 H 0.94547 0.64372 0.41947 0.0
H132 H 0.96537 0.78046 0.35496 0.0
H133 H 0.89148 0.67164 0.33535 0.0
H134 H 0.87101 0.68378 0.39954 0.0
O135 O 0.73894 0.82102 0.29991 0.0
H136 H 0.87944 0.90708 0.29173 0.0
H137 H 0.71957 0.91163 0.29074 0.0
H138 H 0.04084 0.74112 0.37421 0.0
H139 H 0.7147 0.63912 0.35948 0.0
H140 H 0.03115 0.67225 0.40674 0.0
H141 H 0.76398 0.57289 0.33671 0.0
O142 O 0.88623 0.83298 0.36845 0.0
H143 H 0.64291 0.87205 0.37448 0.0
H144 H 0.79132 0.95812 0.33758 0.0
H145 H 0.73286 1.00552 0.36573 0.0
H146 H 0.65789 0.96247 0.38434 0.0
H147 H 0.70273 0.82597 0.34652 0.0
H148 H 0.72147 0.97903 0.25757 0.0
H149 H 0.80364 0.01118 0.24141 0.0
O150 O 0.85465 0.88485 0.33781 0.0
C151 C 0.88414 0.78421 0.30328 0.0
C152 C 0.847 0.96107 0.26563 0.0
C153 C 0.75632 0.96341 0.26494 0.0
N154 N 0.79937 0.90529 0.29315 0.0
C155 C 0.84472 0.92278 0.28434 0.0
C156 C 0.75549 0.92505 0.28365 0.0
C157 C 0.80244 0.98147 0.2559 0.0
C158 C 0.77637 0.69205 0.35988 0.0
N159 N 0.82529 0.701 0.35304 0.0
C160 C 0.75354 0.64592 0.35412 0.0
C161 C 0.78119 0.6088 0.34131 0.0
C162 C 0.83112 0.61817 0.33446 0.0
C163 C 0.85266 0.66478 0.3405 0.0
C164 C 0.95018 0.67366 0.4053 0.0
C165 C 0.96082 0.75032 0.36899 0.0
C166 C 0.90815 0.69658 0.394 0.0
N167 N 0.91382 0.73427 0.37601 0.0
C168 C 1.00371 0.72828 0.37987 0.0
C169 C 0.99824 0.68967 0.39814 0.0
C170 C 0.88424 0.87553 0.35686 0.0
C171 C 0.67542 0.89125 0.36647 0.0
C172 C 0.7591 0.93903 0.34578 0.0
C173 C 0.72595 0.96612 0.36161 0.0
C174 C 0.68387 0.94196 0.37202 0.0
N175 N 0.7506 0.8893 0.34041 0.0
C176 C 0.70937 0.86539 0.35054 0.0
Co177 Co 0.75161 0.35389 0.86218 0.0
Co178 Co 0.66738 0.29924 0.81892 0.0
O179 O 0.72066 0.29502 0.84547 0.0
C180 C 0.71464 0.29759 0.90825 0.0
O181 O 0.67175 0.29205 0.89577 0.0
C182 C 0.74128 0.22277 0.79742 0.0
O183 O 0.77996 0.24828 0.80642 0.0
O184 O 0.70712 0.34954 0.7977 0.0
O185 O 0.75176 0.39091 0.82832 0.0
H186 H 0.54837 0.38954 0.75858 0.0
H187 H 0.79823 0.25366 0.86966 0.0
O188 O 0.75166 0.319 0.89696 0.0
H189 H 0.92832 0.35707 0.82648 0.0
H190 H 0.87245 0.44131 0.92314 0.0
H191 H 0.73619 0.46439 0.85868 0.0
H192 H 0.84557 0.39334 0.83748 0.0
H193 H 0.83338 0.36788 0.90158 0.0
O194 O 0.69687 0.24048 0.79938 0.0
H195 H 0.61508 0.38311 0.79196 0.0
H196 H 0.60589 0.22339 0.78959 0.0
H197 H 0.77452 0.53886 0.8796 0.0
H198 H 0.88075 0.21595 0.85935 0.0
H199 H 0.84315 0.52757 0.9121 0.0
H200 H 0.94638 0.26774 0.83749 0.0
O201 O 0.6845 0.38352 0.87047 0.0
H202 H 0.64255 0.14277 0.87293 0.0
H203 H 0.56018 0.2934 0.83638 0.0
H204 H 0.51088 0.23461 0.86353 0.0
H205 H 0.55205 0.15849 0.88195 0.0
H206 H 0.69057 0.20297 0.84601 0.0
H207 H 0.53943 0.2281 0.75601 0.0
H208 H 0.51008 0.31164 0.74035 0.0
O209 O 0.63469 0.35576 0.83803 0.0
C210 C 0.73516 0.3863 0.80504 0.0
C211 C 0.56083 0.35291 0.76525 0.0
C212 C 0.55588 0.26231 0.76377 0.0
N213 N 0.61453 0.30293 0.79271 0.0
C214 C 0.59858 0.34902 0.78417 0.0
C215 C 0.59375 0.25988 0.7827 0.0
C216 C 0.53939 0.3092 0.75501 0.0
C217 C 0.82679 0.27652 0.86036 0.0
N218 N 0.8171 0.32562 0.85414 0.0
C219 C 0.87336 0.25493 0.85448 0.0
C220 C 0.91014 0.28399 0.84218 0.0
C221 C 0.9 0.33408 0.83596 0.0
C222 C 0.85299 0.35437 0.84211 0.0
C223 C 0.84262 0.44673 0.90898 0.0
C224 C 0.76625 0.45916 0.87269 0.0
C225 C 0.82027 0.40528 0.89676 0.0
N226 N 0.78273 0.41184 0.87878 0.0
C227 C 0.78771 0.50148 0.88452 0.0
C228 C 0.82618 0.49511 0.90277 0.0
C229 C 0.6428 0.38307 0.85809 0.0
C230 C 0.62416 0.17577 0.86499 0.0
C231 C 0.57848 0.26071 0.84451 0.0
C232 C 0.55031 0.22736 0.85977 0.0
C233 C 0.57341 0.18464 0.87007 0.0
N234 N 0.62825 0.2518 0.83958 0.0
C235 C 0.65113 0.20995 0.84963 0.0
Co236 Co 0.65581 0.2474 0.1532 0.0
Co237 Co 0.71938 0.33742 0.19021 0.0
O238 O 0.71755 0.27964 0.16618 0.0
C239 C 0.70488 0.28213 0.10455 0.0
O240 O 0.71511 0.32431 0.11687 0.0
C241 C 0.79635 0.26299 0.21111 0.0
O242 O 0.77847 0.22721 0.19606 0.0
O243 O 0.66679 0.30641 0.21355 0.0
O244 O 0.62628 0.24875 0.18894 0.0
H245 H 0.64239 0.47549 0.24423 0.0
H246 H 0.7533 0.19985 0.1396 0.0
O247 O 0.68314 0.24619 0.11662 0.0
H248 H 0.66202 0.07296 0.19179 0.0
H249 H 0.55756 0.12293 0.09905 0.0
H250 H 0.54659 0.26159 0.16295 0.0
H251 H 0.62336 0.1553 0.18212 0.0
H252 H 0.63457 0.16386 0.11574 0.0
O253 O 0.77534 0.3062 0.21168 0.0
H254 H 0.64159 0.40291 0.21417 0.0
H255 H 0.80132 0.39582 0.21662 0.0
H256 H 0.46868 0.22143 0.14694 0.0
H257 H 0.79305 0.11761 0.14839 0.0
H258 H 0.47386 0.15158 0.11473 0.0
H259 H 0.74744 0.05363 0.17481 0.0
O260 O 0.62365 0.31373 0.14566 0.0
H261 H 0.87439 0.34033 0.13347 0.0
H262 H 0.73273 0.44012 0.16779 0.0
H263 H 0.79397 0.48017 0.13815 0.0
H264 H 0.86559 0.43024 0.12084 0.0
H265 H 0.81203 0.30165 0.16284 0.0
H266 H 0.80378 0.46803 0.24689 0.0
H267 H 0.72394 0.5085 0.26084 0.0
O268 O 0.66515 0.37107 0.1698 0.0
C269 C 0.6321 0.27349 0.2101 0.0
C270 C 0.67744 0.45815 0.23832 0.0
C271 C 0.76801 0.45391 0.23984 0.0
N272 N 0.72129 0.3949 0.21371 0.0
C273 C 0.67723 0.41702 0.22129 0.0
C274 C 0.76634 0.41284 0.22279 0.0
C275 C 0.7232 0.47664 0.24764 0.0
C276 C 0.733 0.17197 0.15085 0.0
N277 N 0.68615 0.18243 0.16041 0.0
C278 C 0.7558 0.12557 0.15588 0.0
C279 C 0.73023 0.08972 0.17074 0.0
C280 C 0.68234 0.10058 0.18032 0.0
C281 C 0.66075 0.1474 0.17492 0.0
C282 C 0.55481 0.15328 0.1131 0.0
C283 C 0.5492 0.23103 0.14905 0.0
C284 C 0.59828 0.17669 0.12258 0.0
N285 N 0.59511 0.21492 0.1404 0.0
C286 C 0.50493 0.20852 0.14 0.0
C287 C 0.50786 0.16936 0.12191 0.0
C288 C 0.63077 0.35871 0.15364 0.0
C289 C 0.84355 0.3626 0.14103 0.0
C290 C 0.76375 0.41809 0.16038 0.0
C291 C 0.79836 0.44102 0.1436 0.0
C292 C 0.83853 0.413 0.1339 0.0
N293 N 0.7691 0.36872 0.16749 0.0
C294 C 0.80824 0.34095 0.15788 0.0
Co295 Co 0.24789 0.15356 0.65113 0.0
Co296 Co 0.177 0.21907 0.6961 0.0
O297 O 0.22839 0.21677 0.6684 0.0
C298 C 0.22651 0.21905 0.60564 0.0
O299 O 0.1865 0.23532 0.61808 0.0
C300 C 0.25509 0.29857 0.71105 0.0
O301 O 0.28526 0.28423 0.69218 0.0
O302 O 0.21373 0.16607 0.71671 0.0
O303 O 0.23824 0.1149 0.68421 0.0
H304 H 0.05551 0.14188 0.75999 0.0
H305 H 0.31608 0.24108 0.64464 0.0
O306 O 0.25694 0.189 0.61687 0.0
H307 H 0.41723 0.11201 0.68987 0.0
H308 H 0.35213 0.04656 0.59055 0.0
H309 H 0.2088 0.04866 0.65175 0.0
H310 H 0.32913 0.09472 0.67749 0.0
H311 H 0.3279 0.12508 0.61298 0.0
O312 O 0.21413 0.27466 0.71543 0.0
H313 H 0.11943 0.14112 0.72505 0.0
H314 H 0.12617 0.30106 0.72626 0.0
H315 H 0.23195 0.96925 0.62991 0.0
H316 H 0.40431 0.25978 0.65637 0.0
H317 H 0.30411 0.96786 0.59903 0.0
H318 H 0.45543 0.19502 0.67925 0.0
O319 O 0.17675 0.13947 0.64182 0.0
H320 H 0.15993 0.37483 0.64025 0.0
H321 H 0.06935 0.23367 0.68166 0.0
H322 H 0.02206 0.29571 0.65566 0.0
H323 H 0.06731 0.36718 0.63484 0.0
H324 H 0.20579 0.31159 0.66595 0.0
H325 H 0.06275 0.30345 0.76142 0.0
H326 H 0.02677 0.22347 0.77844 0.0
O327 O 0.13671 0.16516 0.67805 0.0
C328 C 0.22861 0.12331 0.7082 0.0
C329 C 0.07084 0.17699 0.75271 0.0
C330 C 0.07497 0.26766 0.75354 0.0
N331 N 0.12646 0.22097 0.72354 0.0
C332 C 0.10699 0.17681 0.73288 0.0
C333 C 0.11104 0.26604 0.73369 0.0
C334 C 0.05477 0.22277 0.76307 0.0
C335 C 0.33823 0.21263 0.65444 0.0
N336 N 0.31743 0.16699 0.66046 0.0
C337 C 0.3881 0.22347 0.6611 0.0
C338 C 0.41674 0.18714 0.67397 0.0
C339 C 0.39531 0.14059 0.67997 0.0
C340 C 0.3453 0.13111 0.67303 0.0
C341 C 0.3207 0.04665 0.60402 0.0
C342 C 0.24047 0.04831 0.63852 0.0
C343 C 0.30677 0.09102 0.61676 0.0
N344 N 0.26722 0.0914 0.63387 0.0
C345 C 0.2533 1.00325 0.62613 0.0
C346 C 0.29375 1.0025 0.60879 0.0
C347 C 0.13787 0.14126 0.65637 0.0
C348 C 0.1397 0.34415 0.64944 0.0
C349 C 0.08944 0.26458 0.67271 0.0
C350 C 0.06238 0.29967 0.658 0.0
C351 C 0.08777 0.33976 0.64635 0.0
N352 N 0.14036 0.26937 0.67594 0.0
C353 C 0.1655 0.30835 0.66431 0.0
Co354 Co 0.35953 0.74475 0.15207 0.0
Co355 Co 0.29841 0.66562 0.19497 0.0
O356 O 0.29778 0.71875 0.16828 0.0
C357 C 0.29982 0.71673 0.1056 0.0
O358 O 0.29076 0.67368 0.11736 0.0
C359 C 0.22175 0.74137 0.21491 0.0
O360 O 0.24834 0.77952 0.20614 0.0
O361 O 0.3474 0.7051 0.21696 0.0
O362 O 0.39714 0.73784 0.18568 0.0
H363 H 0.38102 0.54695 0.2584 0.0
H364 H 0.2654 0.80315 0.14553 0.0
O365 O 0.32442 0.75105 0.11747 0.0
H366 H 0.38222 0.91657 0.1921 0.0
H367 H 0.45809 0.86047 0.09311 0.0
H368 H 0.4679 0.71746 0.15446 0.0
H369 H 0.40887 0.83107 0.17932 0.0
H370 H 0.38143 0.82768 0.11439 0.0
O371 O 0.23866 0.69657 0.21312 0.0
H372 H 0.37877 0.61317 0.22461 0.0
H373 H 0.21906 0.60533 0.22235 0.0
H374 H 0.5455 0.74929 0.13378 0.0
H375 H 0.23736 0.88862 0.15765 0.0
H376 H 0.5409 0.82131 0.10284 0.0
H377 H 0.29594 0.94589 0.18119 0.0
O378 O 0.38163 0.67559 0.14251 0.0
H379 H 0.14577 0.64269 0.13795 0.0
H380 H 0.29248 0.55835 0.17744 0.0
H381 H 0.23498 0.50971 0.14923 0.0
H382 H 0.16084 0.55188 0.12931 0.0
H383 H 0.2047 0.69003 0.16596 0.0
H384 H 0.21958 0.53943 0.25633 0.0
H385 H 0.301 0.50963 0.27452 0.0
O386 O 0.35614 0.63108 0.17738 0.0
C387 C 0.38872 0.7252 0.20932 0.0
C388 C 0.34529 0.55959 0.25062 0.0
C389 C 0.25469 0.55543 0.24949 0.0
N390 N 0.29883 0.61318 0.22148 0.0
C391 C 0.34377 0.59705 0.23145 0.0
C392 C 0.25462 0.59296 0.23033 0.0
C393 C 0.30039 0.5387 0.25967 0.0
C394 C 0.29122 0.82807 0.15555 0.0
N395 N 0.33871 0.81223 0.16165 0.0
C396 C 0.27509 0.87632 0.16245 0.0
C397 C 0.30795 0.90841 0.1757 0.0
C398 C 0.35634 0.89196 0.18186 0.0
C399 C 0.37115 0.84344 0.17466 0.0
C400 C 0.4606 0.82913 0.10659 0.0
C401 C 0.46558 0.749 0.14116 0.0
C402 C 0.4173 0.81033 0.11867 0.0
N403 N 0.42019 0.77088 0.13579 0.0
C404 C 0.50966 0.76678 0.12945 0.0
C405 C 0.50705 0.80715 0.11207 0.0
C406 C 0.38172 0.63571 0.1564 0.0
C407 C 0.17789 0.62386 0.14654 0.0
C408 C 0.26064 0.57707 0.16869 0.0
C409 C 0.22802 0.54928 0.15281 0.0
C410 C 0.1864 0.57294 0.14168 0.0
N411 N 0.25206 0.627 0.1734 0.0
C412 C 0.21131 0.65044 0.16253 0.0
Co413 Co 0.75318 0.85628 0.65299 0.0
Co414 Co 0.84597 0.80133 0.69144 0.0
O415 O 0.78953 0.79767 0.6667 0.0
C416 C 0.79089 0.80879 0.60457 0.0
O417 O 0.83417 0.80304 0.61663 0.0
C418 C 0.77509 0.72385 0.71467 0.0
O419 O 0.73589 0.74947 0.70648 0.0
O420 O 0.80881 0.84989 0.71478 0.0
O421 O 0.75297 0.88779 0.68819 0.0
H422 H 0.97195 0.89034 0.74853 0.0
H423 H 0.71362 0.75408 0.64193 0.0
O424 O 0.75338 0.82704 0.61682 0.0
H425 H 0.58002 0.83926 0.6921 0.0
H426 H 0.62175 0.94233 0.59785 0.0
H427 H 0.75958 0.96683 0.66127 0.0
H428 H 0.65879 0.88385 0.68113 0.0
H429 H 0.66809 0.86939 0.61551 0.0
O430 O 0.81943 0.74128 0.71137 0.0
H431 H 0.9011 0.88463 0.7175 0.0
H432 H 0.91186 0.72499 0.71746 0.0
H433 H 0.71395 0.04075 0.64429 0.0
H434 H 0.63517 0.7082 0.65219 0.0
H435 H 0.6445 0.02875 0.61231 0.0
H436 H 0.56781 0.75079 0.67755 0.0
O437 O 0.81711 0.89283 0.64494 0.0
H438 H 0.86579 0.64793 0.6347 0.0
H439 H 0.95033 0.7988 0.66997 0.0
H440 H 0.99675 0.74237 0.64026 0.0
H441 H 0.95446 0.66619 0.62246 0.0
H442 H 0.82063 0.70574 0.66418 0.0
H443 H 0.9825 0.72896 0.7487 0.0
H444 H 0.01314 0.8121 0.76438 0.0
O445 O 0.8751 0.85945 0.67193 0.0
C446 C 0.77551 0.88361 0.71009 0.0
C447 C 0.95893 0.85388 0.74186 0.0
C448 C 0.96479 0.76331 0.74199 0.0
N449 N 0.90214 0.80453 0.71573 0.0
C450 C 0.91883 0.8504 0.72426 0.0
C451 C 0.92456 0.76129 0.7244 0.0
C452 C 0.982 0.80997 0.75076 0.0
C453 C 0.68424 0.77299 0.65275 0.0
N454 N 0.69071 0.82158 0.6609 0.0
C455 C 0.64001 0.74677 0.6586 0.0
C456 C 0.60226 0.77066 0.67286 0.0
C457 C 0.60911 0.82028 0.68106 0.0
C458 C 0.65387 0.84528 0.67488 0.0
C459 C 0.65193 0.94804 0.61177 0.0
C460 C 0.72928 0.96125 0.64745 0.0
C461 C 0.67841 0.9069 0.62178 0.0
N462 N 0.71645 0.91381 0.63946 0.0
C463 C 0.70363 1.00328 0.63787 0.0
C464 C 0.6647 0.99652 0.61991 0.0
C465 C 0.86145 0.89096 0.65451 0.0
C466 C 0.88466 0.68096 0.64235 0.0
C467 C 0.93157 0.76598 0.66214 0.0
C468 C 0.95811 0.73402 0.64542 0.0
C469 C 0.93438 0.69127 0.63547 0.0
N470 N 0.88282 0.75565 0.66882 0.0
C471 C 0.85933 0.71376 0.65914 0.0
H472 H 0.04161 0.15962 0.38411 0.0
H473 H 0.14924 0.05128 0.35498 0.0
H474 H 0.98047 0.09182 0.39051 0.0
H475 H 0.08828 0.98401 0.36142 0.0
H476 H 0.87567 0.9759 0.34663 0.0
H477 H 0.93644 0.04196 0.35522 0.0
H478 H 0.03382 0.93457 0.39341 0.0
H479 H 0.97213 0.86766 0.38504 0.0
C480 C 0.0527 0.12133 0.37965 0.0
C481 C 0.10012 0.11102 0.36869 0.0
C482 C 0.01763 0.08256 0.38325 0.0
C483 C 0.02954 0.03272 0.3763 0.0
C484 C 0.07815 0.02195 0.36716 0.0
C485 C 0.11297 0.06067 0.36327 0.0
C486 C 0.90944 0.96625 0.35733 0.0
C487 C 0.91902 0.9163 0.36503 0.0
C488 C 0.9442 1.00436 0.36242 0.0
C489 C 0.98982 0.99347 0.37504 0.0
C490 C 0.99889 0.94394 0.38361 0.0
C491 C 0.96356 0.90574 0.37887 0.0
H492 H 0.35703 0.53763 0.88235 0.0
H493 H 0.47057 0.64756 0.86194 0.0
H494 H 0.42311 0.47494 0.88954 0.0
H495 H 0.53603 0.58535 0.86916 0.0
H496 H 0.64784 0.4651 0.89093 0.0
H497 H 0.58029 0.52525 0.90044 0.0
H498 H 0.47725 0.43657 0.85402 0.0
H499 H 0.54388 0.37762 0.8442 0.0
C500 C 0.39602 0.54882 0.88006 0.0
C501 C 0.40852 0.59732 0.87114 0.0
C502 C 0.43379 0.51294 0.88413 0.0
C503 C 0.48465 0.52525 0.87974 0.0
C504 C 0.49726 0.57486 0.87291 0.0
C505 C 0.4596 0.61041 0.86852 0.0
C506 C 0.61053 0.45804 0.88316 0.0
C507 C 0.60144 0.41659 0.86668 0.0
C508 C 0.57195 0.49243 0.88862 0.0
C509 C 0.52348 0.48537 0.87808 0.0
C510 C 0.51392 0.44258 0.8628 0.0
C511 C 0.55243 0.40888 0.85701 0.0
H512 H 0.53437 0.34747 0.13555 0.0
H513 H 0.64677 0.46031 0.15339 0.0
H514 H 0.47174 0.41393 0.12952 0.0
H515 H 0.58435 0.52636 0.14712 0.0
H516 H 0.37816 0.53907 0.17443 0.0
H517 H 0.43711 0.47138 0.16609 0.0
H518 H 0.52179 0.56812 0.11439 0.0
H519 H 0.46156 0.63637 0.12217 0.0
C520 C 0.54606 0.3864 0.13753 0.0
C521 C 0.59538 0.39859 0.14528 0.0
C522 C 0.51018 0.42437 0.13414 0.0
C523 C 0.52324 0.47518 0.13798 0.0
C524 C 0.57337 0.48754 0.14384 0.0
C525 C 0.60901 0.44962 0.14763 0.0
C526 C 0.40849 0.54587 0.16077 0.0
C527 C 0.41496 0.5933 0.14895 0.0
C528 C 0.44221 0.50683 0.15591 0.0
C529 C 0.48383 0.51445 0.13951 0.0
C530 C 0.48986 0.56133 0.12709 0.0
C531 C 0.45538 0.60029 0.13154 0.0
H532 H 0.04346 0.14525 0.67761 0.0
H533 H 0.1312 0.06725 0.61906 0.0
H534 H 0.97359 0.08767 0.67 0.0
H535 H 0.06115 0.00909 0.61186 0.0
H536 H 0.96251 0.87809 0.64982 0.0
H537 H 0.0263 0.94301 0.64387 0.0
H538 H 0.90974 0.05509 0.6356 0.0
H539 H 0.84544 0.98955 0.6413 0.0
C540 C 0.04761 0.11647 0.66277 0.0
C541 C 0.09322 0.1107 0.64912 0.0
C542 C 0.00737 0.08365 0.65832 0.0
C543 C 0.01204 0.04391 0.64039 0.0
C544 C 0.0567 0.03937 0.62587 0.0
C545 C 0.09675 0.07272 0.63001 0.0
C546 C 0.95041 0.91636 0.64623 0.0
C547 C 0.89904 0.92882 0.64628 0.0
C548 C 0.98696 0.9535 0.64262 0.0
C549 C 0.97293 1.00408 0.63938 0.0
C550 C 0.92148 0.01633 0.63816 0.0
C551 C 0.88477 0.97886 0.64128 0.0
H552 H 0.14993 0.28097 0.44481 0.0
H553 H 0.28824 0.19705 0.43783 0.0
H554 H 0.15869 0.28174 0.49199 0.0
H555 H 0.2997 0.20111 0.48508 0.0
H556 H 0.27247 0.15871 0.57008 0.0
H557 H 0.27229 0.16657 0.52299 0.0
H558 H 0.19484 0.30945 0.52961 0.0
H559 H 0.19175 0.29902 0.57699 0.0
C560 C 0.18296 0.26369 0.45343 0.0
C561 C 0.21823 0.23862 0.43769 0.0
C562 C 0.18833 0.26446 0.48061 0.0
C563 C 0.22989 0.2413 0.4928 0.0
C564 C 0.26639 0.21818 0.47674 0.0
C565 C 0.26019 0.21618 0.44956 0.0
C566 C 0.25588 0.19211 0.56149 0.0
C567 C 0.23193 0.22818 0.57724 0.0
C568 C 0.25604 0.1969 0.5343 0.0
C569 C 0.23336 0.23863 0.52204 0.0
C570 C 0.21154 0.27602 0.53805 0.0
C571 C 0.21017 0.27045 0.56529 0.0
H572 H 0.21068 0.68932 0.94103 0.0
H573 H 0.35992 0.75445 0.94254 0.0
H574 H 0.20576 0.69667 0.9885 0.0
H575 H 0.35522 0.76106 0.99 0.0
H576 H 0.32168 0.79729 0.0741 0.0
H577 H 0.3136 0.80243 0.0267 0.0
H578 H 0.2459 0.65437 0.02548 0.0
H579 H 0.25325 0.64944 0.07293 0.0
C580 C 0.24226 0.70571 0.95143 0.0
C581 C 0.28588 0.72098 0.93796 0.0
C582 C 0.23951 0.70961 0.97868 0.0
C583 C 0.2802 0.7291 0.9931 0.0
C584 C 0.32297 0.74631 0.97951 0.0
C585 C 0.32579 0.74226 0.95227 0.0
C586 C 0.30434 0.7661 0.0638 0.0
C587 C 0.28849 0.72273 0.07735 0.0
C588 C 0.30003 0.76896 0.03658 0.0
C589 C 0.27959 0.72863 0.02223 0.0
C590 C 0.26148 0.68631 0.03591 0.0
C591 C 0.26591 0.68338 0.06314 0.0
H592 H 0.86145 0.76737 0.57203 0.0
H593 H 0.71207 0.83176 0.57219 0.0
H594 H 0.85868 0.76206 0.52441 0.0
H595 H 0.70932 0.82611 0.52461 0.0
H596 H 0.75994 0.87315 0.44042 0.0
H597 H 0.75286 0.86952 0.488 0.0
H598 H 0.81545 0.71948 0.4876 0.0
H599 H 0.82285 0.72306 0.44016 0.0
C600 C 0.82778 0.77978 0.56196 0.0
C601 C 0.78713 0.80021 0.57596 0.0
C602 C 0.8261 0.77654 0.53466 0.0
C603 C 0.78386 0.79394 0.52071 0.0
C604 C 0.74263 0.81298 0.53476 0.0
C605 C 0.74413 0.81587 0.56206 0.0
C606 C 0.7716 0.83914 0.45044 0.0
C607 C 0.79228 0.79859 0.43644 0.0
C608 C 0.76736 0.83698 0.47771 0.0
C609 C 0.78398 0.79434 0.4916 0.0
C610 C 0.80299 0.75313 0.47751 0.0
C611 C 0.80691 0.75513 0.45027 0.0
H612 H 0.64213 0.25667 0.93997 0.0
H613 H 0.79506 0.31263 0.94079 0.0
H614 H 0.64461 0.24799 0.98747 0.0
H615 H 0.7976 0.30341 0.98817 0.0
H616 H 0.75155 0.35017 0.07242 0.0
H617 H 0.75768 0.34756 0.02487 0.0
H618 H 0.68356 0.2026 0.02429 0.0
H619 H 0.67686 0.20536 0.07184 0.0
C620 C 0.67654 0.26635 0.9502 0.0
C621 C 0.7182 0.28575 0.93655 0.0
C622 C 0.67804 0.26119 0.97744 0.0
C623 C 0.72118 0.27545 0.99164 0.0
C624 C 0.76353 0.29286 0.97786 0.0
C625 C 0.76213 0.29782 0.95065 0.0
C626 C 0.73703 0.31748 0.0622 0.0
C627 C 0.71346 0.27815 0.07596 0.0
C628 C 0.74078 0.31585 0.03492 0.0
C629 C 0.7209 0.27495 0.02076 0.0
C630 C 0.69868 0.23492 0.03459 0.0
C631 C 0.69515 0.23641 0.06187 0.0
H632 H 0.59254 0.34664 0.24175 0.0
H633 H 0.57676 0.18969 0.22152 0.0
H634 H 0.51202 0.34394 0.26439 0.0
H635 H 0.4979 0.18571 0.24549 0.0
H636 H 0.33203 0.20427 0.26001 0.0
H637 H 0.41522 0.20898 0.24039 0.0
H638 H 0.45958 0.31951 0.29819 0.0
H639 H 0.3751 0.31672 0.31673 0.0
C640 C 0.57276 0.31105 0.24293 0.0
C641 C 0.59107 0.26847 0.22968 0.0
C642 C 0.52623 0.30943 0.25593 0.0
C643 C 0.49723 0.26485 0.25641 0.0
C644 C 0.51778 0.22131 0.24483 0.0
C645 C 0.56365 0.22326 0.23141 0.0
C646 C 0.3594 0.23004 0.26831 0.0
C647 C 0.34676 0.26029 0.28985 0.0
C648 C 0.4076 0.23228 0.25729 0.0
C649 C 0.44511 0.26402 0.26785 0.0
C650 C 0.432 0.29494 0.2892 0.0
C651 C 0.38337 0.29337 0.29991 0.0
H652 H 0.18575 0.82632 0.78005 0.0
H653 H 0.34139 0.8676 0.7924 0.0
H654 H 0.16935 0.91021 0.76207 0.0
H655 H 0.32501 0.95088 0.77441 0.0
H656 H 0.27149 0.11144 0.75716 0.0
H657 H 0.27922 0.03196 0.78179 0.0
H658 H 0.19372 0.95517 0.72193 0.0
H659 H 0.18605 0.03368 0.69781 0.0
C660 C 0.21644 0.85316 0.77895 0.0
C661 C 0.26501 0.8398 0.78738 0.0
C662 C 0.20705 0.90129 0.76867 0.0
C663 C 0.24587 0.93742 0.76683 0.0
C664 C 0.2941 0.92435 0.77583 0.0
C665 C 0.30358 0.87622 0.78586 0.0
C666 C 0.25373 0.07765 0.74965 0.0
C667 C 0.22862 0.07854 0.7255 0.0
C668 C 0.25841 0.03211 0.76357 0.0
C669 C 0.23723 0.98704 0.75377 0.0
C670 C 0.21013 0.98897 0.73022 0.0
C671 C 0.20612 0.03397 0.71626 0.0
H672 H 0.64935 0.84222 0.28771 0.0
H673 H 0.68516 0.68391 0.28201 0.0
H674 H 0.56542 0.82566 0.27057 0.0
H675 H 0.60062 0.66731 0.26491 0.0
H676 H 0.47559 0.67682 0.20092 0.0
H677 H 0.55497 0.68556 0.22433 0.0
H678 H 0.4832 0.78467 0.27993 0.0
H679 H 0.40302 0.77574 0.25604 0.0
C680 C 0.6394 0.80378 0.28282 0.0
C681 C 0.67449 0.76446 0.28598 0.0
C682 C 0.59087 0.79424 0.27326 0.0
C683 C 0.57601 0.74515 0.26639 0.0
C684 C 0.61087 0.70567 0.26982 0.0
C685 C 0.65939 0.71516 0.27962 0.0
C686 C 0.47659 0.69979 0.21844 0.0
C687 C 0.43325 0.72555 0.22673 0.0
C688 C 0.52207 0.70462 0.23195 0.0
C689 C 0.52573 0.73593 0.25401 0.0
C690 C 0.48179 0.76055 0.26287 0.0
C691 C 0.4358 0.75514 0.24942 0.0
H692 H 0.82827 0.17353 0.78226 0.0
H693 H 0.66784 0.15233 0.79067 0.0
H694 H 0.83569 0.08743 0.76522 0.0
H695 H 0.67534 0.06686 0.77475 0.0
H696 H 0.6952 0.94701 0.71195 0.0
H697 H 0.68887 0.02645 0.73467 0.0
H698 H 0.83 0.99707 0.77384 0.0
H699 H 0.83708 0.91705 0.75018 0.0
C700 C 0.79468 0.15056 0.78058 0.0
C701 C 0.74734 0.17043 0.78731 0.0
C702 C 0.79895 0.10098 0.77107 0.0
C703 C 0.75603 0.07002 0.7683 0.0
C704 C 0.70912 0.08966 0.77591 0.0
C705 C 0.70482 0.13901 0.78509 0.0
C706 C 0.72454 0.95668 0.72579 0.0
C707 C 0.76675 0.9253 0.72909 0.0
C708 C 0.72085 1.00257 0.73896 0.0
C709 C 0.75906 0.01875 0.75609 0.0
C710 C 0.80019 0.9863 0.7605 0.0
C711 C 0.80389 0.93997 0.74723 0.0
H712 H 0.0888 0.16556 0.27378 0.0
H713 H 0.0785 0.3239 0.29165 0.0
H714 H 0.0083 0.16948 0.25108 0.0
H715 H 0.99975 0.3291 0.26757 0.0
H716 H 0.8333 0.31522 0.25294 0.0
H717 H 0.91641 0.30935 0.2726 0.0
H718 H 0.95642 0.19314 0.21709 0.0
H719 H 0.87191 0.19712 0.19862 0.0
C720 C 0.07024 0.20166 0.27201 0.0
C721 C 0.09005 0.24437 0.28458 0.0
C722 C 0.02373 0.20401 0.259 0.0
C723 C 0.99627 0.24944 0.25781 0.0
C724 C 0.01836 0.29293 0.26877 0.0
C725 C 0.06416 0.29026 0.28224 0.0
C726 C 0.85971 0.28802 0.24515 0.0
C727 C 0.84581 0.25648 0.22432 0.0
C728 C 0.90789 0.28506 0.25618 0.0
C729 C 0.94418 0.25129 0.2463 0.0
C730 C 0.92982 0.21926 0.22558 0.0
C731 C 0.88118 0.22154 0.2149 0.0
H732 H 0.31672 0.37645 0.69585 0.0
H733 H 0.21163 0.33288 0.75613 0.0
H734 H 0.32269 0.46053 0.71485 0.0
H735 H 0.2193 0.41577 0.77591 0.0
H736 H 0.20123 0.57783 0.79478 0.0
H737 H 0.19513 0.49888 0.771 0.0
H738 H 0.35158 0.51234 0.7487 0.0
H739 H 0.35654 0.59298 0.77146 0.0
C740 C 0.2956 0.38448 0.71347 0.0
C741 C 0.2636 0.34778 0.72441 0.0
C742 C 0.29904 0.4329 0.72444 0.0
C743 C 0.27097 0.44583 0.74683 0.0
C744 C 0.2404 0.40826 0.75824 0.0
C745 C 0.23643 0.36022 0.74707 0.0
C746 C 0.23401 0.56456 0.78426 0.0
C747 C 0.27939 0.59187 0.78511 0.0
C748 C 0.23081 0.51865 0.77092 0.0
C749 C 0.27323 0.4979 0.7584 0.0
C750 C 0.31793 0.52673 0.75797 0.0
C751 C 0.32084 0.57329 0.77101 0.0
H752 H 0.17304 0.83011 0.22783 0.0
H753 H 0.15114 0.66899 0.22425 0.0
H754 H 0.08746 0.83969 0.24525 0.0
H755 H 0.06631 0.67856 0.24075 0.0
H756 H 0.95015 0.7061 0.30458 0.0
H757 H 0.0289 0.69774 0.2815 0.0
H758 H 0.99579 0.83211 0.23708 0.0
H759 H 0.91607 0.84113 0.26096 0.0
C760 C 0.15006 0.7968 0.23064 0.0
C761 C 0.16961 0.7487 0.22511 0.0
C762 C 0.10078 0.80231 0.24039 0.0
C763 C 0.06987 0.75985 0.2447 0.0
C764 C 0.08913 0.71209 0.23831 0.0
C765 C 0.13811 0.7066 0.2288 0.0
C766 C 0.95881 0.73349 0.28956 0.0
C767 C 0.92633 0.7743 0.28472 0.0
C768 C 1.00432 0.72861 0.27619 0.0
C769 C 0.01917 0.7643 0.25738 0.0
C770 C 0.98591 0.80421 0.25166 0.0
C771 C 0.93983 0.809 0.26509 0.0
H772 H 0.80851 0.45744 0.80995 0.0
H773 H 0.68366 0.41537 0.76033 0.0
H774 H 0.81681 0.53633 0.78684 0.0
H775 H 0.69267 0.49528 0.73655 0.0
H776 H 0.6874 0.67145 0.72532 0.0
H777 H 0.67923 0.58653 0.74375 0.0
H778 H 0.84124 0.57397 0.74668 0.0
H779 H 0.84934 0.65838 0.7291 0.0
C780 C 0.78339 0.46441 0.79368 0.0
C781 C 0.7454 0.42955 0.7871 0.0
C782 C 0.78827 0.51001 0.7803 0.0
C783 C 0.75537 0.52262 0.75978 0.0
C784 C 0.71833 0.48715 0.75246 0.0
C785 C 0.71358 0.44099 0.76587 0.0
C786 C 0.72123 0.65059 0.73001 0.0
C787 C 0.76902 0.67234 0.72603 0.0
C788 C 0.71656 0.60162 0.74033 0.0
C789 C 0.75956 0.57322 0.74689 0.0
C790 C 0.8072 0.5948 0.74237 0.0
C791 C 0.81184 0.64349 0.7322 0.0
loop_
_geom_bond_atom_site_label_1
_geom_bond_atom_site_label_2
_geom_bond_distance
_geom_bond_site_symmetry_2
_ccdc_geom_bond_type
Co0 O2 2.143 . S
Co0 O8 2.074 . S
Co0 O11 2.093 . S
Co0 O24 2.097 . S
Co0 N41 2.151 . S
Co0 N49 2.214 . S
Co1 O2 2.160 . S
Co1 O7 2.058 . S
Co1 O17 2.057 . S
Co1 O32 2.037 . S
Co1 N36 2.145 . S
Co1 N57 2.257 . S
O2 Co0 2.143 . S
O2 Co1 2.160 . S
C3 O4 1.278 . S
C3 O11 1.224 . S
O4 C3 1.278 . S
C5 O6 1.245 . S
C5 O17 1.232 . S
O6 C5 1.245 . S
O7 Co1 2.058 . S
O7 C33 1.269 . S
O8 Co0 2.074 . S
O8 C33 1.257 . S
H9 C34 0.930 . S
H10 C40 0.930 . S
O11 Co0 2.093 . S
O11 C3 1.224 . S
H12 C44 0.929 . S
H13 C46 0.930 . S
H14 C47 0.926 1_455 S
H15 C45 0.929 . S
H16 C48 0.928 . S
O17 Co1 2.057 . S
O17 C5 1.232 . S
H18 C37 0.929 . S
H19 C38 0.929 . S
H20 C50 0.931 . S
H21 C42 0.929 . S
H22 C51 0.930 . S
H23 C43 0.931 . S
O24 Co0 2.097 . S
O24 C52 1.214 . S
H25 C53 0.929 . S
H26 C54 0.929 . S
H27 C55 0.930 . S
H28 C56 0.929 . S
H29 C58 0.930 . S
H30 C35 0.930 . S
H31 C39 0.930 . S
O32 Co1 2.037 . S
O32 C52 1.234 . S
C33 O7 1.269 . S
C33 O8 1.257 . S
C34 H9 0.930 . S
C34 C37 1.388 . S
C34 C39 1.418 . S
C35 H30 0.930 . S
C35 C38 1.404 . S
C35 C39 1.353 . S
N36 Co1 2.145 . S
N36 C37 1.397 . S
N36 C38 1.334 . S
C37 H18 0.929 . S
C37 C34 1.388 . S
C37 N36 1.397 . S
C38 H19 0.929 . S
C38 C35 1.404 . S
C38 N36 1.334 . S
C39 H31 0.930 . S
C39 C34 1.418 . S
C39 C35 1.353 . S
C40 H10 0.930 . S
C40 N41 1.330 . S
C40 C42 1.446 . S
N41 Co0 2.151 . S
N41 C40 1.330 . S
N41 C45 1.418 . S
C42 H21 0.929 . S
C42 C40 1.446 . S
C42 C43 1.332 . S
C43 H23 0.931 . S
C43 C42 1.332 . S
C43 C44 1.267 . S
C44 H12 0.929 . S
C44 C43 1.267 . S
C44 C45 1.251 . S
C45 H15 0.929 . S
C45 N41 1.418 . S
C45 C44 1.251 . S
C46 H13 0.930 . S
C46 C48 1.406 1_655 S
C46 C51 1.261 . S
C47 H14 0.926 1_655 S
C47 N49 1.325 1_655 S
C47 C50 1.357 . S
C48 H16 0.928 . S
C48 C46 1.406 1_455 S
C48 N49 1.261 . S
N49 Co0 2.214 . S
N49 C47 1.325 1_455 S
N49 C48 1.261 . S
C50 H20 0.931 . S
C50 C47 1.357 . S
C50 C51 1.312 . S
C51 H22 0.930 . S
C51 C46 1.261 . S
C51 C50 1.312 . S
C52 O24 1.214 . S
C52 O32 1.234 . S
C53 H25 0.929 . S
C53 C56 1.391 . S
C53 C58 1.391 . S
C54 H26 0.929 . S
C54 C55 1.390 . S
C54 N57 1.391 . S
C55 H27 0.930 . S
C55 C54 1.390 . S
C55 C56 1.392 . S
C56 H28 0.929 . S
C56 C53 1.391 . S
C56 C55 1.392 . S
N57 Co1 2.257 . S
N57 C54 1.391 . S
N57 C58 1.388 . S
C58 H29 0.930 . S
C58 C53 1.391 . S
C58 N57 1.388 . S
Co59 O61 2.143 . S
Co59 O67 2.074 . S
Co59 O70 2.093 . S
Co59 O83 2.097 . S
Co59 N100 2.151 . S
Co59 N108 2.214 . S
Co60 O61 2.160 . S
Co60 O66 2.058 . S
Co60 O76 2.057 . S
Co60 O91 2.037 . S
Co60 N95 2.145 . S
Co60 N116 2.257 . S
O61 Co59 2.143 . S
O61 Co60 2.160 . S
C62 O63 1.278 . S
C62 O70 1.224 . S
O63 C62 1.278 . S
C64 O65 1.245 . S
C64 O76 1.232 . S
O65 C64 1.245 . S
O66 Co60 2.058 . S
O66 C92 1.269 . S
O67 Co59 2.074 . S
O67 C92 1.257 . S
H68 C93 0.930 . S
H69 C99 0.930 . S
O70 Co59 2.093 . S
O70 C62 1.224 . S
H71 C103 0.929 . S
H72 C105 0.930 . S
H73 C106 0.930 . S
H74 C104 0.929 . S
H75 C107 0.928 . S
O76 Co60 2.057 . S
O76 C64 1.232 . S
H77 C96 0.929 . S
H78 C97 0.929 . S
H79 C109 0.931 . S
H80 C101 0.929 . S
H81 C110 0.930 . S
H82 C102 0.931 . S
O83 Co59 2.097 . S
O83 C111 1.214 . S
H84 C112 0.929 . S
H85 C113 0.929 . S
H86 C114 0.930 . S
H87 C115 0.929 . S
H88 C117 0.930 . S
H89 C94 0.930 . S
H90 C98 0.930 . S
O91 Co60 2.037 . S
O91 C111 1.234 . S
C92 O66 1.269 . S
C92 O67 1.257 . S
C93 H68 0.930 . S
C93 C96 1.388 . S
C93 C98 1.418 . S
C94 H89 0.930 . S
C94 C97 1.404 . S
C94 C98 1.353 . S
N95 Co60 2.145 . S
N95 C96 1.397 . S
N95 C97 1.334 . S
C96 H77 0.929 . S
C96 C93 1.388 . S
C96 N95 1.397 . S
C97 H78 0.929 . S
C97 C94 1.404 . S
C97 N95 1.334 . S
C98 H90 0.930 . S
C98 C93 1.418 . S
C98 C94 1.353 . S
C99 H69 0.930 . S
C99 N100 1.330 . S
C99 C101 1.446 . S
N100 Co59 2.151 . S
N100 C99 1.330 . S
N100 C104 1.418 . S
C101 H80 0.929 . S
C101 C99 1.446 . S
C101 C102 1.332 . S
C102 H82 0.931 . S
C102 C101 1.332 . S
C102 C103 1.267 . S
C103 H71 0.929 . S
C103 C102 1.267 . S
C103 C104 1.251 . S
C104 H74 0.929 . S
C104 N100 1.418 . S
C104 C103 1.251 . S
C105 H72 0.930 . S
C105 C107 1.406 . S
C105 C110 1.261 . S
C106 H73 0.930 . S
C106 N108 1.325 . S
C106 C109 1.357 . S
C107 H75 0.928 . S
C107 C105 1.406 . S
C107 N108 1.261 . S
N108 Co59 2.214 . S
N108 C106 1.325 . S
N108 C107 1.261 . S
C109 H79 0.931 . S
C109 C106 1.357 . S
C109 C110 1.312 . S
C110 H81 0.930 . S
C110 C105 1.261 . S
C110 C109 1.312 . S
C111 O83 1.214 . S
C111 O91 1.234 . S
C112 H84 0.929 . S
C112 C115 1.391 . S
C112 C117 1.391 . S
C113 H85 0.929 . S
C113 C114 1.390 . S
C113 N116 1.391 . S
C114 H86 0.930 . S
C114 C113 1.390 . S
C114 C115 1.392 . S
C115 H87 0.929 . S
C115 C112 1.391 . S
C115 C114 1.392 . S
N116 Co60 2.257 . S
N116 C113 1.391 . S
N116 C117 1.388 . S
C117 H88 0.930 . S
C117 C112 1.391 . S
C117 N116 1.388 . S
Co118 O120 2.143 . S
Co118 O126 2.074 . S
Co118 O129 2.093 . S
Co118 O142 2.097 . S
Co118 N159 2.151 . S
Co118 N167 2.214 . S
Co119 O120 2.160 . S
Co119 O125 2.058 . S
Co119 O135 2.057 . S
Co119 O150 2.037 . S
Co119 N154 2.145 . S
Co119 N175 2.257 . S
O120 Co118 2.143 . S
O120 Co119 2.160 . S
C121 O122 1.278 . S
C121 O129 1.224 . S
O122 C121 1.278 . S
C123 O124 1.245 . S
C123 O135 1.232 . S
O124 C123 1.245 . S
O125 Co119 2.058 . S
O125 C151 1.269 . S
O126 Co118 2.074 . S
O126 C151 1.257 . S
H127 C152 0.930 . S
H128 C158 0.930 . S
O129 Co118 2.093 . S
O129 C121 1.224 . S
H130 C162 0.929 . S
H131 C164 0.930 . S
H132 C165 0.926 1_655 S
H133 C163 0.929 . S
H134 C166 0.928 . S
O135 Co119 2.057 . S
O135 C123 1.232 . S
H136 C155 0.929 . S
H137 C156 0.929 . S
H138 C168 0.931 . S
H139 C160 0.929 . S
H140 C169 0.930 . S
H141 C161 0.931 . S
O142 Co118 2.097 . S
O142 C170 1.214 . S
H143 C171 0.929 . S
H144 C172 0.929 . S
H145 C173 0.930 . S
H146 C174 0.929 . S
H147 C176 0.930 . S
H148 C153 0.930 . S
H149 C157 0.930 . S
O150 Co119 2.037 . S
O150 C170 1.234 . S
C151 O125 1.269 . S
C151 O126 1.257 . S
C152 H127 0.930 . S
C152 C155 1.388 . S
C152 C157 1.418 . S
C153 H148 0.930 . S
C153 C156 1.404 . S
C153 C157 1.353 . S
N154 Co119 2.145 . S
N154 C155 1.397 . S
N154 C156 1.334 . S
C155 H136 0.929 . S
C155 C152 1.388 . S
C155 N154 1.397 . S
C156 H137 0.929 . S
C156 C153 1.404 . S
C156 N154 1.334 . S
C157 H149 0.930 . S
C157 C152 1.418 . S
C157 C153 1.353 . S
C158 H128 0.930 . S
C158 N159 1.330 . S
C158 C160 1.446 . S
N159 Co118 2.151 . S
N159 C158 1.330 . S
N159 C163 1.418 . S
C160 H139 0.929 . S
C160 C158 1.446 . S
C160 C161 1.332 . S
C161 H141 0.931 . S
C161 C160 1.332 . S
C161 C162 1.267 . S
C162 H130 0.929 . S
C162 C161 1.267 . S
C162 C163 1.251 . S
C163 H133 0.929 . S
C163 N159 1.418 . S
C163 C162 1.251 . S
C164 H131 0.930 . S
C164 C166 1.406 1_455 S
C164 C169 1.261 . S
C165 H132 0.926 1_455 S
C165 N167 1.325 1_455 S
C165 C168 1.357 . S
C166 H134 0.928 . S
C166 C164 1.406 1_655 S
C166 N167 1.261 . S
N167 Co118 2.214 . S
N167 C165 1.325 1_655 S
N167 C166 1.261 . S
C168 H138 0.931 . S
C168 C165 1.357 . S
C168 C169 1.312 . S
C169 H140 0.930 . S
C169 C164 1.261 . S
C169 C168 1.312 . S
C170 O142 1.214 . S
C170 O150 1.234 . S
C171 H143 0.929 . S
C171 C174 1.391 . S
C171 C176 1.391 . S
C172 H144 0.929 . S
C172 C173 1.390 . S
C172 N175 1.391 . S
C173 H145 0.930 . S
C173 C172 1.390 . S
C173 C174 1.392 . S
C174 H146 0.929 . S
C174 C171 1.391 . S
C174 C173 1.392 . S
N175 Co119 2.257 . S
N175 C172 1.391 . S
N175 C176 1.388 . S
C176 H147 0.930 . S
C176 C171 1.391 . S
C176 N175 1.388 . S
Co177 O179 2.143 . S
Co177 O185 2.074 . S
Co177 O188 2.093 . S
Co177 O201 2.097 . S
Co177 N218 2.151 . S
Co177 N226 2.214 . S
Co178 O179 2.160 . S
Co178 O184 2.058 . S
Co178 O194 2.057 . S
Co178 O209 2.037 . S
Co178 N213 2.145 . S
Co178 N234 2.257 . S
O179 Co177 2.143 . S
O179 Co178 2.160 . S
C180 O181 1.278 . S
C180 O188 1.224 . S
O181 C180 1.278 . S
C182 O183 1.245 . S
C182 O194 1.232 . S
O183 C182 1.245 . S
O184 Co178 2.058 . S
O184 C210 1.269 . S
O185 Co177 2.074 . S
O185 C210 1.257 . S
H186 C211 0.930 . S
H187 C217 0.930 . S
O188 Co177 2.093 . S
O188 C180 1.224 . S
H189 C221 0.929 . S
H190 C223 0.930 . S
H191 C224 0.930 . S
H192 C222 0.929 . S
H193 C225 0.928 . S
O194 Co178 2.057 . S
O194 C182 1.232 . S
H195 C214 0.929 . S
H196 C215 0.929 . S
H197 C227 0.931 . S
H198 C219 0.929 . S
H199 C228 0.930 . S
H200 C220 0.931 . S
O201 Co177 2.097 . S
O201 C229 1.214 . S
H202 C230 0.929 . S
H203 C231 0.929 . S
H204 C232 0.930 . S
H205 C233 0.929 . S
H206 C235 0.930 . S
H207 C212 0.930 . S
H208 C216 0.930 . S
O209 Co178 2.037 . S
O209 C229 1.234 . S
C210 O184 1.269 . S
C210 O185 1.257 . S
C211 H186 0.930 . S
C211 C214 1.388 . S
C211 C216 1.418 . S
C212 H207 0.930 . S
C212 C215 1.404 . S
C212 C216 1.353 . S
N213 Co178 2.145 . S
N213 C214 1.397 . S
N213 C215 1.334 . S
C214 H195 0.929 . S
C214 C211 1.388 . S
C214 N213 1.397 . S
C215 H196 0.929 . S
C215 C212 1.404 . S
C215 N213 1.334 . S
C216 H208 0.930 . S
C216 C211 1.418 . S
C216 C212 1.353 . S
C217 H187 0.930 . S
C217 N218 1.330 . S
C217 C219 1.446 . S
N218 Co177 2.151 . S
N218 C217 1.330 . S
N218 C222 1.418 . S
C219 H198 0.929 . S
C219 C217 1.446 . S
C219 C220 1.332 . S
C220 H200 0.931 . S
C220 C219 1.332 . S
C220 C221 1.267 . S
C221 H189 0.929 . S
C221 C220 1.267 . S
C221 C222 1.251 . S
C222 H192 0.929 . S
C222 N218 1.418 . S
C222 C221 1.251 . S
C223 H190 0.930 . S
C223 C225 1.406 . S
C223 C228 1.261 . S
C224 H191 0.930 . S
C224 N226 1.325 . S
C224 C227 1.357 . S
C225 H193 0.928 . S
C225 C223 1.406 . S
C225 N226 1.261 . S
N226 Co177 2.214 . S
N226 C224 1.325 . S
N226 C225 1.261 . S
C227 H197 0.931 . S
C227 C224 1.357 . S
C227 C228 1.312 . S
C228 H199 0.930 . S
C228 C223 1.261 . S
C228 C227 1.312 . S
C229 O201 1.214 . S
C229 O209 1.234 . S
C230 H202 0.929 . S
C230 C233 1.391 . S
C230 C235 1.391 . S
C231 H203 0.929 . S
C231 C232 1.390 . S
C231 N234 1.391 . S
C232 H204 0.930 . S
C232 C231 1.390 . S
C232 C233 1.392 . S
C233 H205 0.929 . S
C233 C230 1.391 . S
C233 C232 1.392 . S
N234 Co178 2.257 . S
N234 C231 1.391 . S
N234 C235 1.388 . S
C235 H206 0.930 . S
C235 C230 1.391 . S
C235 N234 1.388 . S
Co236 O238 2.143 . S
Co236 O244 2.074 . S
Co236 O247 2.093 . S
Co236 O260 2.097 . S
Co236 N277 2.151 . S
Co236 N285 2.214 . S
Co237 O238 2.160 . S
Co237 O243 2.058 . S
Co237 O253 2.057 . S
Co237 O268 2.037 . S
Co237 N272 2.145 . S
Co237 N293 2.257 . S
O238 Co236 2.143 . S
O238 Co237 2.160 . S
C239 O240 1.278 . S
C239 O247 1.224 . S
O240 C239 1.278 . S
C241 O242 1.245 . S
C241 O253 1.232 . S
O242 C241 1.245 . S
O243 Co237 2.058 . S
O243 C269 1.269 . S
O244 Co236 2.074 . S
O244 C269 1.257 . S
H245 C270 0.930 . S
H246 C276 0.930 . S
O247 Co236 2.093 . S
O247 C239 1.224 . S
H248 C280 0.929 . S
H249 C282 0.930 . S
H250 C283 0.930 . S
H251 C281 0.929 . S
H252 C284 0.928 . S
O253 Co237 2.057 . S
O253 C241 1.232 . S
H254 C273 0.929 . S
H255 C274 0.929 . S
H256 C286 0.931 . S
H257 C278 0.929 . S
H258 C287 0.930 . S
H259 C279 0.931 . S
O260 Co236 2.097 . S
O260 C288 1.214 . S
H261 C289 0.929 . S
H262 C290 0.929 . S
H263 C291 0.930 . S
H264 C292 0.929 . S
H265 C294 0.930 . S
H266 C271 0.930 . S
H267 C275 0.930 . S
O268 Co237 2.037 . S
O268 C288 1.234 . S
C269 O243 1.269 . S
C269 O244 1.257 . S
C270 H245 0.930 . S
C270 C273 1.388 . S
C270 C275 1.418 . S
C271 H266 0.930 . S
C271 C274 1.404 . S
C271 C275 1.353 . S
N272 Co237 2.145 . S
N272 C273 1.397 . S
N272 C274 1.334 . S
C273 H254 0.929 . S
C273 C270 1.388 . S
C273 N272 1.397 . S
C274 H255 0.929 . S
C274 C271 1.404 . S
C274 N272 1.334 . S
C275 H267 0.930 . S
C275 C270 1.418 . S
C275 C271 1.353 . S
C276 H246 0.930 . S
C276 N277 1.330 . S
C276 C278 1.446 . S
N277 Co236 2.151 . S
N277 C276 1.330 . S
N277 C281 1.418 . S
C278 H257 0.929 . S
C278 C276 1.446 . S
C278 C279 1.332 . S
C279 H259 0.931 . S
C279 C278 1.332 . S
C279 C280 1.267 . S
C280 H248 0.929 . S
C280 C279 1.267 . S
C280 C281 1.251 . S
C281 H251 0.929 . S
C281 N277 1.418 . S
C281 C280 1.251 . S
C282 H249 0.930 . S
C282 C284 1.406 . S
C282 C287 1.261 . S
C283 H250 0.930 . S
C283 N285 1.325 . S
C283 C286 1.357 . S
C284 H252 0.928 . S
C284 C282 1.406 . S
C284 N285 1.261 . S
N285 Co236 2.214 . S
N285 C283 1.325 . S
N285 C284 1.261 . S
C286 H256 0.931 . S
C286 C283 1.357 . S
C286 C287 1.312 . S
C287 H258 0.930 . S
C287 C282 1.261 . S
C287 C286 1.312 . S
C288 O260 1.214 . S
C288 O268 1.234 . S
C289 H261 0.929 . S
C289 C292 1.391 . S
C289 C294 1.391 . S
C290 H262 0.929 . S
C290 C291 1.390 . S
C290 N293 1.391 . S
C291 H263 0.930 . S
C291 C290 1.390 . S
C291 C292 1.392 . S
C292 H264 0.929 . S
C292 C289 1.391 . S
C292 C291 1.392 . S
N293 Co237 2.257 . S
N293 C290 1.391 . S
N293 C294 1.388 . S
C294 H265 0.930 . S
C294 C289 1.391 . S
C294 N293 1.388 . S
Co295 O297 2.143 . S
Co295 O303 2.074 . S
Co295 O306 2.093 . S
Co295 O319 2.097 . S
Co295 N336 2.151 . S
Co295 N344 2.214 . S
Co296 O297 2.160 . S
Co296 O302 2.058 . S
Co296 O312 2.057 . S
Co296 O327 2.037 . S
Co296 N331 2.145 . S
Co296 N352 2.257 . S
O297 Co295 2.143 . S
O297 Co296 2.160 . S
C298 O299 1.278 . S
C298 O306 1.224 . S
O299 C298 1.278 . S
C300 O301 1.245 . S
C300 O312 1.232 . S
O301 C300 1.245 . S
O302 Co296 2.058 . S
O302 C328 1.269 . S
O303 Co295 2.074 . S
O303 C328 1.257 . S
H304 C329 0.930 . S
H305 C335 0.930 . S
O306 Co295 2.093 . S
O306 C298 1.224 . S
H307 C339 0.929 . S
H308 C341 0.930 . S
H309 C342 0.926 1_545 S
H310 C340 0.929 . S
H311 C343 0.928 . S
O312 Co296 2.057 . S
O312 C300 1.232 . S
H313 C332 0.929 . S
H314 C333 0.929 . S
H315 C345 0.931 . S
H316 C337 0.929 . S
H317 C346 0.930 . S
H318 C338 0.931 . S
O319 Co295 2.097 . S
O319 C347 1.214 . S
H320 C348 0.929 . S
H321 C349 0.929 . S
H322 C350 0.930 . S
H323 C351 0.929 . S
H324 C353 0.930 . S
H325 C330 0.930 . S
H326 C334 0.930 . S
O327 Co296 2.037 . S
O327 C347 1.234 . S
C328 O302 1.269 . S
C328 O303 1.257 . S
C329 H304 0.930 . S
C329 C332 1.388 . S
C329 C334 1.418 . S
C330 H325 0.930 . S
C330 C333 1.404 . S
C330 C334 1.353 . S
N331 Co296 2.145 . S
N331 C332 1.397 . S
N331 C333 1.334 . S
C332 H313 0.929 . S
C332 C329 1.388 . S
C332 N331 1.397 . S
C333 H314 0.929 . S
C333 C330 1.404 . S
C333 N331 1.334 . S
C334 H326 0.930 . S
C334 C329 1.418 . S
C334 C330 1.353 . S
C335 H305 0.930 . S
C335 N336 1.330 . S
C335 C337 1.446 . S
N336 Co295 2.151 . S
N336 C335 1.330 . S
N336 C340 1.418 . S
C337 H316 0.929 . S
C337 C335 1.446 . S
C337 C338 1.332 . S
C338 H318 0.931 . S
C338 C337 1.332 . S
C338 C339 1.267 . S
C339 H307 0.929 . S
C339 C338 1.267 . S
C339 C340 1.251 . S
C340 H310 0.929 . S
C340 N336 1.418 . S
C340 C339 1.251 . S
C341 H308 0.930 . S
C341 C343 1.406 1_565 S
C341 C346 1.261 . S
C342 H309 0.926 1_565 S
C342 N344 1.325 1_565 S
C342 C345 1.357 . S
C343 H311 0.928 . S
C343 C341 1.406 1_545 S
C343 N344 1.261 . S
N344 Co295 2.214 . S
N344 C342 1.325 1_545 S
N344 C343 1.261 . S
C345 H315 0.931 . S
C345 C342 1.357 . S
C345 C346 1.312 . S
C346 H317 0.930 . S
C346 C341 1.261 . S
C346 C345 1.312 . S
C347 O319 1.214 . S
C347 O327 1.234 . S
C348 H320 0.929 . S
C348 C351 1.391 . S
C348 C353 1.391 . S
C349 H321 0.929 . S
C349 C350 1.390 . S
C349 N352 1.391 . S
C350 H322 0.930 . S
C350 C349 1.390 . S
C350 C351 1.392 . S
C351 H323 0.929 . S
C351 C348 1.391 . S
C351 C350 1.392 . S
N352 Co296 2.257 . S
N352 C349 1.391 . S
N352 C353 1.388 . S
C353 H324 0.930 . S
C353 C348 1.391 . S
C353 N352 1.388 . S
Co354 O356 2.143 . S
Co354 O362 2.074 . S
Co354 O365 2.093 . S
Co354 O378 2.097 . S
Co354 N395 2.151 . S
Co354 N403 2.214 . S
Co355 O356 2.160 . S
Co355 O361 2.058 . S
Co355 O371 2.057 . S
Co355 O386 2.037 . S
Co355 N390 2.145 . S
Co355 N411 2.257 . S
O356 Co354 2.143 . S
O356 Co355 2.160 . S
C357 O358 1.278 . S
C357 O365 1.224 . S
O358 C357 1.278 . S
C359 O360 1.245 . S
C359 O371 1.232 . S
O360 C359 1.245 . S
O361 Co355 2.058 . S
O361 C387 1.269 . S
O362 Co354 2.074 . S
O362 C387 1.257 . S
H363 C388 0.930 . S
H364 C394 0.930 . S
O365 Co354 2.093 . S
O365 C357 1.224 . S
H366 C398 0.929 . S
H367 C400 0.930 . S
H368 C401 0.930 . S
H369 C399 0.929 . S
H370 C402 0.928 . S
O371 Co355 2.057 . S
O371 C359 1.232 . S
H372 C391 0.929 . S
H373 C392 0.929 . S
H374 C404 0.931 . S
H375 C396 0.929 . S
H376 C405 0.930 . S
H377 C397 0.931 . S
O378 Co354 2.097 . S
O378 C406 1.214 . S
H379 C407 0.929 . S
H380 C408 0.929 . S
H381 C409 0.930 . S
H382 C410 0.929 . S
H383 C412 0.930 . S
H384 C389 0.930 . S
H385 C393 0.930 . S
O386 Co355 2.037 . S
O386 C406 1.234 . S
C387 O361 1.269 . S
C387 O362 1.257 . S
C388 H363 0.930 . S
C388 C391 1.388 . S
C388 C393 1.418 . S
C389 H384 0.930 . S
C389 C392 1.404 . S
C389 C393 1.353 . S
N390 Co355 2.145 . S
N390 C391 1.397 . S
N390 C392 1.334 . S
C391 H372 0.929 . S
C391 C388 1.388 . S
C391 N390 1.397 . S
C392 H373 0.929 . S
C392 C389 1.404 . S
C392 N390 1.334 . S
C393 H385 0.930 . S
C393 C388 1.418 . S
C393 C389 1.353 . S
C394 H364 0.930 . S
C394 N395 1.330 . S
C394 C396 1.446 . S
N395 Co354 2.151 . S
N395 C394 1.330 . S
N395 C399 1.418 . S
C396 H375 0.929 . S
C396 C394 1.446 . S
C396 C397 1.332 . S
C397 H377 0.931 . S
C397 C396 1.332 . S
C397 C398 1.267 . S
C398 H366 0.929 . S
C398 C397 1.267 . S
C398 C399 1.251 . S
C399 H369 0.929 . S
C399 N395 1.418 . S
C399 C398 1.251 . S
C400 H367 0.930 . S
C400 C402 1.406 . S
C400 C405 1.261 . S
C401 H368 0.930 . S
C401 N403 1.325 . S
C401 C404 1.357 . S
C402 H370 0.928 . S
C402 C400 1.406 . S
C402 N403 1.261 . S
N403 Co354 2.214 . S
N403 C401 1.325 . S
N403 C402 1.261 . S
C404 H374 0.931 . S
C404 C401 1.357 . S
C404 C405 1.312 . S
C405 H376 0.930 . S
C405 C400 1.261 . S
C405 C404 1.312 . S
C406 O378 1.214 . S
C406 O386 1.234 . S
C407 H379 0.929 . S
C407 C410 1.391 . S
C407 C412 1.391 . S
C408 H380 0.929 . S
C408 C409 1.390 . S
C408 N411 1.391 . S
C409 H381 0.930 . S
C409 C408 1.390 . S
C409 C410 1.392 . S
C410 H382 0.929 . S
C410 C407 1.391 . S
C410 C409 1.392 . S
N411 Co355 2.257 . S
N411 C408 1.391 . S
N411 C412 1.388 . S
C412 H383 0.930 . S
C412 C407 1.391 . S
C412 N411 1.388 . S
Co413 O415 2.143 . S
Co413 O421 2.074 . S
Co413 O424 2.093 . S
Co413 O437 2.097 . S
Co413 N454 2.151 . S
Co413 N462 2.214 . S
Co414 O415 2.160 . S
Co414 O420 2.058 . S
Co414 O430 2.057 . S
Co414 O445 2.037 . S
Co414 N449 2.145 . S
Co414 N470 2.257 . S
O415 Co413 2.143 . S
O415 Co414 2.160 . S
C416 O417 1.278 . S
C416 O424 1.224 . S
O417 C416 1.278 . S
C418 O419 1.245 . S
C418 O430 1.232 . S
O419 C418 1.245 . S
O420 Co414 2.058 . S
O420 C446 1.269 . S
O421 Co413 2.074 . S
O421 C446 1.257 . S
H422 C447 0.930 . S
H423 C453 0.930 . S
O424 Co413 2.093 . S
O424 C416 1.224 . S
H425 C457 0.929 . S
H426 C459 0.930 . S
H427 C460 0.926 1_565 S
H428 C458 0.929 . S
H429 C461 0.928 . S
O430 Co414 2.057 . S
O430 C418 1.232 . S
H431 C450 0.929 . S
H432 C451 0.929 . S
H433 C463 0.931 . S
H434 C455 0.929 . S
H435 C464 0.930 . S
H436 C456 0.931 . S
O437 Co413 2.097 . S
O437 C465 1.214 . S
H438 C466 0.929 . S
H439 C467 0.929 . S
H440 C468 0.930 . S
H441 C469 0.929 . S
H442 C471 0.930 . S
H443 C448 0.930 . S
H444 C452 0.930 . S
O445 Co414 2.037 . S
O445 C465 1.234 . S
C446 O420 1.269 . S
C446 O421 1.257 . S
C447 H422 0.930 . S
C447 C450 1.388 . S
C447 C452 1.418 . S
C448 H443 0.930 . S
C448 C451 1.404 . S
C448 C452 1.353 . S
N449 Co414 2.145 . S
N449 C450 1.397 . S
N449 C451 1.334 . S
C450 H431 0.929 . S
C450 C447 1.388 . S
C450 N449 1.397 . S
C451 H432 0.929 . S
C451 C448 1.404 . S
C451 N449 1.334 . S
C452 H444 0.930 . S
C452 C447 1.418 . S
C452 C448 1.353 . S
C453 H423 0.930 . S
C453 N454 1.330 . S
C453 C455 1.446 . S
N454 Co413 2.151 . S
N454 C453 1.330 . S
N454 C458 1.418 . S
C455 H434 0.929 . S
C455 C453 1.446 . S
C455 C456 1.332 . S
C456 H436 0.931 . S
C456 C455 1.332 . S
C456 C457 1.267 . S
C457 H425 0.929 . S
C457 C456 1.267 . S
C457 C458 1.251 . S
C458 H428 0.929 . S
C458 N454 1.418 . S
C458 C457 1.251 . S
C459 H426 0.930 . S
C459 C461 1.406 1_545 S
C459 C464 1.261 . S
C460 H427 0.926 1_545 S
C460 N462 1.325 1_545 S
C460 C463 1.357 . S
C461 H429 0.928 . S
C461 C459 1.406 1_565 S
C461 N462 1.261 . S
N462 Co413 2.214 . S
N462 C460 1.325 1_565 S
N462 C461 1.261 . S
C463 H433 0.931 . S
C463 C460 1.357 . S
C463 C464 1.312 . S
C464 H435 0.930 . S
C464 C459 1.261 . S
C464 C463 1.312 . S
C465 O437 1.214 . S
C465 O445 1.234 . S
C466 H438 0.929 . S
C466 C469 1.391 . S
C466 C471 1.391 . S
C467 H439 0.929 . S
C467 C468 1.390 . S
C467 N470 1.391 . S
C468 H440 0.930 . S
C468 C467 1.390 . S
C468 C469 1.392 . S
C469 H441 0.929 . S
C469 C466 1.391 . S
C469 C468 1.392 . S
N470 Co414 2.257 . S
N470 C467 1.391 . S
N470 C471 1.388 . S
C471 H442 0.930 . S
C471 C466 1.391 . S
C471 N470 1.388 . S
H472 C480 0.950 . S
H473 C485 0.950 . S
H474 C482 0.950 1_565 S
H475 C484 0.950 . S
H476 C486 0.950 . S
H477 C488 0.950 1_545 S
H478 C490 0.950 . S
H479 C491 0.950 . S
C480 H472 0.950 . S
C480 C481 1.386 . S
C480 C482 1.391 . S
C481 C480 1.386 . S
C481 C485 1.393 . S
C482 H474 0.950 1_545 S
C482 C480 1.391 . S
C482 C483 1.400 . S
C483 C482 1.400 . S
C483 C484 1.398 1_455 S
C483 C489 1.491 1_445 S
C484 H475 0.950 . S
C484 C483 1.398 1_655 S
C484 C485 1.391 1_655 S
C485 H473 0.950 . S
C485 C481 1.393 . S
C485 C484 1.391 1_455 S
C486 H476 0.950 . S
C486 C487 1.386 . S
C486 C488 1.391 . S
C487 C486 1.386 . S
C487 C491 1.393 . S
C488 H477 0.950 1_565 S
C488 C486 1.391 . S
C488 C489 1.400 . S
C489 C483 1.491 1_665 S
C489 C488 1.400 . S
C489 C490 1.398 1_655 S
C490 H478 0.950 . S
C490 C489 1.398 1_455 S
C490 C491 1.391 1_455 S
C491 H479 0.950 . S
C491 C487 1.393 . S
C491 C490 1.391 1_655 S
H492 C500 0.950 . S
H493 C505 0.950 . S
H494 C502 0.950 . S
H495 C504 0.950 . S
H496 C506 0.950 . S
H497 C508 0.950 . S
H498 C510 0.950 . S
H499 C511 0.950 . S
C500 H492 0.950 . S
C500 C501 1.386 . S
C500 C502 1.391 . S
C501 C500 1.386 . S
C501 C505 1.393 . S
C502 H494 0.950 . S
C502 C500 1.391 . S
C502 C503 1.400 . S
C503 C502 1.400 . S
C503 C504 1.398 . S
C503 C509 1.491 . S
C504 H495 0.950 . S
C504 C503 1.398 . S
C504 C505 1.391 . S
C505 H493 0.950 . S
C505 C501 1.393 . S
C505 C504 1.391 . S
C506 H496 0.950 . S
C506 C507 1.386 . S
C506 C508 1.391 . S
C507 C506 1.386 . S
C507 C511 1.393 . S
C508 H497 0.950 . S
C508 C506 1.391 . S
C508 C509 1.400 . S
C509 C503 1.491 . S
C509 C508 1.400 . S
C509 C510 1.398 . S
C510 H498 0.950 . S
C510 C509 1.398 . S
C510 C511 1.391 . S
C511 H499 0.950 . S
C511 C507 1.393 . S
C511 C510 1.391 . S
H512 C520 0.950 . S
H513 C525 0.950 . S
H514 C522 0.950 . S
H515 C524 0.950 . S
H516 C526 0.950 . S
H517 C528 0.950 . S
H518 C530 0.950 . S
H519 C531 0.950 . S
C520 H512 0.950 . S
C520 C521 1.386 . S
C520 C522 1.391 . S
C521 C520 1.386 . S
C521 C525 1.393 . S
C522 H514 0.950 . S
C522 C520 1.391 . S
C522 C523 1.400 . S
C523 C522 1.400 . S
C523 C524 1.398 . S
C523 C529 1.491 . S
C524 H515 0.950 . S
C524 C523 1.398 . S
C524 C525 1.391 . S
C525 H513 0.950 . S
C525 C521 1.393 . S
C525 C524 1.391 . S
C526 H516 0.950 . S
C526 C527 1.386 . S
C526 C528 1.391 . S
C527 C526 1.386 . S
C527 C531 1.393 . S
C528 H517 0.950 . S
C528 C526 1.391 . S
C528 C529 1.400 . S
C529 C523 1.491 . S
C529 C528 1.400 . S
C529 C530 1.398 . S
C530 H518 0.950 . S
C530 C529 1.398 . S
C530 C531 1.391 . S
C531 H519 0.950 . S
C531 C527 1.393 . S
C531 C530 1.391 . S
H532 C540 0.950 . S
H533 C545 0.950 . S
H534 C542 0.950 . S
H535 C544 0.950 . S
H536 C546 0.950 . S
H537 C548 0.950 . S
H538 C550 0.950 . S
H539 C551 0.950 . S
C540 H532 0.950 . S
C540 C541 1.386 . S
C540 C542 1.391 . S
C541 C540 1.386 . S
C541 C545 1.393 . S
C542 H534 0.950 . S
C542 C540 1.391 . S
C542 C543 1.400 . S
C543 C542 1.400 . S
C543 C544 1.398 . S
C543 C549 1.491 1_445 S
C544 H535 0.950 . S
C544 C543 1.398 . S
C544 C545 1.391 . S
C545 H533 0.950 . S
C545 C541 1.393 . S
C545 C544 1.391 . S
C546 H536 0.950 . S
C546 C547 1.386 . S
C546 C548 1.391 . S
C547 C546 1.386 . S
C547 C551 1.393 . S
C548 H537 0.950 . S
C548 C546 1.391 . S
C548 C549 1.400 . S
C549 C543 1.491 1_665 S
C549 C548 1.400 . S
C549 C550 1.398 . S
C550 H538 0.950 . S
C550 C549 1.398 . S
C550 C551 1.391 . S
C551 H539 0.950 . S
C551 C547 1.393 . S
C551 C550 1.391 . S
H552 C560 0.950 . S
H553 C565 0.950 . S
H554 C562 0.950 . S
H555 C564 0.950 . S
H556 C566 0.950 . S
H557 C568 0.950 . S
H558 C570 0.950 . S
H559 C571 0.950 . S
C560 H552 0.950 . S
C560 C561 1.386 . S
C560 C562 1.391 . S
C561 C560 1.386 . S
C561 C565 1.393 . S
C562 H554 0.950 . S
C562 C560 1.391 . S
C562 C563 1.400 . S
C563 C562 1.400 . S
C563 C564 1.398 . S
C563 C569 1.491 . S
C564 H555 0.950 . S
C564 C563 1.398 . S
C564 C565 1.391 . S
C565 H553 0.950 . S
C565 C561 1.393 . S
C565 C564 1.391 . S
C566 H556 0.950 . S
C566 C567 1.386 . S
C566 C568 1.391 . S
C567 C566 1.386 . S
C567 C571 1.393 . S
C568 H557 0.950 . S
C568 C566 1.391 . S
C568 C569 1.400 . S
C569 C563 1.491 . S
C569 C568 1.400 . S
C569 C570 1.398 . S
C570 H558 0.950 . S
C570 C569 1.398 . S
C570 C571 1.391 . S
C571 H559 0.950 . S
C571 C567 1.393 . S
C571 C570 1.391 . S
H572 C580 0.950 . S
H573 C585 0.950 . S
H574 C582 0.950 . S
H575 C584 0.950 . S
H576 C586 0.950 . S
H577 C588 0.950 . S
H578 C590 0.950 . S
H579 C591 0.950 . S
C580 H572 0.950 . S
C580 C581 1.386 . S
C580 C582 1.391 . S
C581 C580 1.386 . S
C581 C585 1.393 . S
C582 H574 0.950 . S
C582 C580 1.391 . S
C582 C583 1.400 . S
C583 C582 1.400 . S
C583 C584 1.398 . S
C583 C589 1.491 1_556 S
C584 H575 0.950 . S
C584 C583 1.398 . S
C584 C585 1.391 . S
C585 H573 0.950 . S
C585 C581 1.393 . S
C585 C584 1.391 . S
C586 H576 0.950 . S
C586 C587 1.386 . S
C586 C588 1.391 . S
C587 C586 1.386 . S
C587 C591 1.393 . S
C588 H577 0.950 . S
C588 C586 1.391 . S
C588 C589 1.400 . S
C589 C583 1.491 1_554 S
C589 C588 1.400 . S
C589 C590 1.398 . S
C590 H578 0.950 . S
C590 C589 1.398 . S
C590 C591 1.391 . S
C591 H579 0.950 . S
C591 C587 1.393 . S
C591 C590 1.391 . S
H592 C600 0.950 . S
H593 C605 0.950 . S
H594 C602 0.950 . S
H595 C604 0.950 . S
H596 C606 0.950 . S
H597 C608 0.950 . S
H598 C610 0.950 . S
H599 C611 0.950 . S
C600 H592 0.950 . S
C600 C601 1.386 . S
C600 C602 1.391 . S
C601 C600 1.386 . S
C601 C605 1.393 . S
C602 H594 0.950 . S
C602 C600 1.391 . S
C602 C603 1.400 . S
C603 C602 1.400 . S
C603 C604 1.398 . S
C603 C609 1.491 . S
C604 H595 0.950 . S
C604 C603 1.398 . S
C604 C605 1.391 . S
C605 H593 0.950 . S
C605 C601 1.393 . S
C605 C604 1.391 . S
C606 H596 0.950 . S
C606 C607 1.386 . S
C606 C608 1.391 . S
C607 C606 1.386 . S
C607 C611 1.393 . S
C608 H597 0.950 . S
C608 C606 1.391 . S
C608 C609 1.400 . S
C609 C603 1.491 . S
C609 C608 1.400 . S
C609 C610 1.398 . S
C610 H598 0.950 . S
C610 C609 1.398 . S
C610 C611 1.391 . S
C611 H599 0.950 . S
C611 C607 1.393 . S
C611 C610 1.391 . S
H612 C620 0.950 . S
H613 C625 0.950 . S
H614 C622 0.950 . S
H615 C624 0.950 . S
H616 C626 0.950 . S
H617 C628 0.950 . S
H618 C630 0.950 . S
H619 C631 0.950 . S
C620 H612 0.950 . S
C620 C621 1.386 . S
C620 C622 1.391 . S
C621 C620 1.386 . S
C621 C625 1.393 . S
C622 H614 0.950 . S
C622 C620 1.391 . S
C622 C623 1.400 . S
C623 C622 1.400 . S
C623 C624 1.398 . S
C623 C629 1.491 1_556 S
C624 H615 0.950 . S
C624 C623 1.398 . S
C624 C625 1.391 . S
C625 H613 0.950 . S
C625 C621 1.393 . S
C625 C624 1.391 . S
C626 H616 0.950 . S
C626 C627 1.386 . S
C626 C628 1.391 . S
C627 C626 1.386 . S
C627 C631 1.393 . S
C628 H617 0.950 . S
C628 C626 1.391 . S
C628 C629 1.400 . S
C629 C623 1.491 1_554 S
C629 C628 1.400 . S
C629 C630 1.398 . S
C630 H618 0.950 . S
C630 C629 1.398 . S
C630 C631 1.391 . S
C631 H619 0.950 . S
C631 C627 1.393 . S
C631 C630 1.391 . S
H632 C640 0.950 . S
H633 C645 0.950 . S
H634 C642 0.950 . S
H635 C644 0.950 . S
H636 C646 0.950 . S
H637 C648 0.950 . S
H638 C650 0.950 . S
H639 C651 0.950 . S
C640 H632 0.950 . S
C640 C641 1.386 . S
C640 C642 1.391 . S
C641 C640 1.386 . S
C641 C645 1.393 . S
C642 H634 0.950 . S
C642 C640 1.391 . S
C642 C643 1.400 . S
C643 C642 1.400 . S
C643 C644 1.398 . S
C643 C649 1.491 . S
C644 H635 0.950 . S
C644 C643 1.398 . S
C644 C645 1.391 . S
C645 H633 0.950 . S
C645 C641 1.393 . S
C645 C644 1.391 . S
C646 H636 0.950 . S
C646 C647 1.386 . S
C646 C648 1.391 . S
C647 C646 1.386 . S
C647 C651 1.393 . S
C648 H637 0.950 . S
C648 C646 1.391 . S
C648 C649 1.400 . S
C649 C643 1.491 . S
C649 C648 1.400 . S
C649 C650 1.398 . S
C650 H638 0.950 . S
C650 C649 1.398 . S
C650 C651 1.391 . S
C651 H639 0.950 . S
C651 C647 1.393 . S
C651 C650 1.391 . S
H652 C660 0.950 . S
H653 C665 0.950 . S
H654 C662 0.950 . S
H655 C664 0.950 . S
H656 C666 0.950 . S
H657 C668 0.950 . S
H658 C670 0.950 . S
H659 C671 0.950 . S
C660 H652 0.950 . S
C660 C661 1.386 . S
C660 C662 1.391 . S
C661 C660 1.386 . S
C661 C665 1.393 . S
C662 H654 0.950 . S
C662 C660 1.391 . S
C662 C663 1.400 . S
C663 C662 1.400 . S
C663 C664 1.398 . S
C663 C669 1.491 . S
C664 H655 0.950 . S
C664 C663 1.398 . S
C664 C665 1.391 . S
C665 H653 0.950 . S
C665 C661 1.393 . S
C665 C664 1.391 . S
C666 H656 0.950 . S
C666 C667 1.386 . S
C666 C668 1.391 1_545 S
C667 C666 1.386 . S
C667 C671 1.393 . S
C668 H657 0.950 . S
C668 C666 1.391 1_565 S
C668 C669 1.400 . S
C669 C663 1.491 . S
C669 C668 1.400 . S
C669 C670 1.398 . S
C670 H658 0.950 . S
C670 C669 1.398 . S
C670 C671 1.391 1_565 S
C671 H659 0.950 . S
C671 C667 1.393 . S
C671 C670 1.391 1_545 S
H672 C680 0.950 . S
H673 C685 0.950 . S
H674 C682 0.950 . S
H675 C684 0.950 . S
H676 C686 0.950 . S
H677 C688 0.950 . S
H678 C690 0.950 . S
H679 C691 0.950 . S
C680 H672 0.950 . S
C680 C681 1.386 . S
C680 C682 1.391 . S
C681 C680 1.386 . S
C681 C685 1.393 . S
C682 H674 0.950 . S
C682 C680 1.391 . S
C682 C683 1.400 . S
C683 C682 1.400 . S
C683 C684 1.398 . S
C683 C689 1.491 . S
C684 H675 0.950 . S
C684 C683 1.398 . S
C684 C685 1.391 . S
C685 H673 0.950 . S
C685 C681 1.393 . S
C685 C684 1.391 . S
C686 H676 0.950 . S
C686 C687 1.386 . S
C686 C688 1.391 . S
C687 C686 1.386 . S
C687 C691 1.393 . S
C688 H677 0.950 . S
C688 C686 1.391 . S
C688 C689 1.400 . S
C689 C683 1.491 . S
C689 C688 1.400 . S
C689 C690 1.398 . S
C690 H678 0.950 . S
C690 C689 1.398 . S
C690 C691 1.391 . S
C691 H679 0.950 . S
C691 C687 1.393 . S
C691 C690 1.391 . S
H692 C700 0.950 . S
H693 C705 0.950 . S
H694 C702 0.950 . S
H695 C704 0.950 . S
H696 C706 0.950 . S
H697 C708 0.950 . S
H698 C710 0.950 . S
H699 C711 0.950 . S
C700 H692 0.950 . S
C700 C701 1.386 . S
C700 C702 1.391 . S
C701 C700 1.386 . S
C701 C705 1.393 . S
C702 H694 0.950 . S
C702 C700 1.391 . S
C702 C703 1.400 . S
C703 C702 1.400 . S
C703 C704 1.398 . S
C703 C709 1.491 . S
C704 H695 0.950 . S
C704 C703 1.398 . S
C704 C705 1.391 . S
C705 H693 0.950 . S
C705 C701 1.393 . S
C705 C704 1.391 . S
C706 H696 0.950 . S
C706 C707 1.386 1_545 S
C706 C708 1.391 . S
C707 C706 1.386 1_565 S
C707 C711 1.393 . S
C708 H697 0.950 . S
C708 C706 1.391 . S
C708 C709 1.400 . S
C709 C703 1.491 . S
C709 C708 1.400 . S
C709 C710 1.398 . S
C710 H698 0.950 . S
C710 C709 1.398 . S
C710 C711 1.391 1_545 S
C711 H699 0.950 . S
C711 C707 1.393 . S
C711 C710 1.391 1_565 S
H712 C720 0.950 . S
H713 C725 0.950 . S
H714 C722 0.950 . S
H715 C724 0.950 . S
H716 C726 0.950 . S
H717 C728 0.950 . S
H718 C730 0.950 . S
H719 C731 0.950 . S
C720 H712 0.950 . S
C720 C721 1.386 . S
C720 C722 1.391 1_455 S
C721 C720 1.386 . S
C721 C725 1.393 1_455 S
C722 H714 0.950 . S
C722 C720 1.391 1_655 S
C722 C723 1.400 . S
C723 C722 1.400 . S
C723 C724 1.398 . S
C723 C729 1.491 . S
C724 H715 0.950 . S
C724 C723 1.398 . S
C724 C725 1.391 . S
C725 H713 0.950 . S
C725 C721 1.393 1_655 S
C725 C724 1.391 . S
C726 H716 0.950 . S
C726 C727 1.386 . S
C726 C728 1.391 . S
C727 C726 1.386 . S
C727 C731 1.393 . S
C728 H717 0.950 . S
C728 C726 1.391 . S
C728 C729 1.400 . S
C729 C723 1.491 . S
C729 C728 1.400 . S
C729 C730 1.398 . S
C730 H718 0.950 . S
C730 C729 1.398 . S
C730 C731 1.391 . S
C731 H719 0.950 . S
C731 C727 1.393 . S
C731 C730 1.391 . S
H732 C740 0.950 . S
H733 C745 0.950 . S
H734 C742 0.950 . S
H735 C744 0.950 . S
H736 C746 0.950 . S
H737 C748 0.950 . S
H738 C750 0.950 . S
H739 C751 0.950 . S
C740 H732 0.950 . S
C740 C741 1.386 . S
C740 C742 1.391 . S
C741 C740 1.386 . S
C741 C745 1.393 . S
C742 H734 0.950 . S
C742 C740 1.391 . S
C742 C743 1.400 . S
C743 C742 1.400 . S
C743 C744 1.398 . S
C743 C749 1.491 . S
C744 H735 0.950 . S
C744 C743 1.398 . S
C744 C745 1.391 . S
C745 H733 0.950 . S
C745 C741 1.393 . S
C745 C744 1.391 . S
C746 H736 0.950 . S
C746 C747 1.386 . S
C746 C748 1.391 . S
C747 C746 1.386 . S
C747 C751 1.393 . S
C748 H737 0.950 . S
C748 C746 1.391 . S
C748 C749 1.400 . S
C749 C743 1.491 . S
C749 C748 1.400 . S
C749 C750 1.398 . S
C750 H738 0.950 . S
C750 C749 1.398 . S
C750 C751 1.391 . S
C751 H739 0.950 . S
C751 C747 1.393 . S
C751 C750 1.391 . S
H752 C760 0.950 . S
H753 C765 0.950 . S
H754 C762 0.950 . S
H755 C764 0.950 . S
H756 C766 0.950 1_655 S
H757 C768 0.950 . S
H758 C770 0.950 . S
H759 C771 0.950 . S
C760 H752 0.950 . S
C760 C761 1.386 . S
C760 C762 1.391 . S
C761 C760 1.386 . S
C761 C765 1.393 . S
C762 H754 0.950 . S
C762 C760 1.391 . S
C762 C763 1.400 . S
C763 C762 1.400 . S
C763 C764 1.398 . S
C763 C769 1.491 . S
C764 H755 0.950 . S
C764 C763 1.398 . S
C764 C765 1.391 . S
C765 H753 0.950 . S
C765 C761 1.393 . S
C765 C764 1.391 . S
C766 H756 0.950 1_455 S
C766 C767 1.386 1_455 S
C766 C768 1.391 . S
C767 C766 1.386 1_655 S
C767 C771 1.393 . S
C768 H757 0.950 . S
C768 C766 1.391 . S
C768 C769 1.400 . S
C769 C763 1.491 . S
C769 C768 1.400 . S
C769 C770 1.398 . S
C770 H758 0.950 . S
C770 C769 1.398 . S
C770 C771 1.391 1_455 S
C771 H759 0.950 . S
C771 C767 1.393 . S
C771 C770 1.391 1_655 S
H772 C780 0.950 . S
H773 C785 0.950 . S
H774 C782 0.950 . S
H775 C784 0.950 . S
H776 C786 0.950 . S
H777 C788 0.950 . S
H778 C790 0.950 . S
H779 C791 0.950 . S
C780 H772 0.950 . S
C780 C781 1.386 . S
C780 C782 1.391 . S
C781 C780 1.386 . S
C781 C785 1.393 . S
C782 H774 0.950 . S
C782 C780 1.391 . S
C782 C783 1.400 . S
C783 C782 1.400 . S
C783 C784 1.398 . S
C783 C789 1.491 . S
C784 H775 0.950 . S
C784 C783 1.398 . S
C784 C785 1.391 . S
C785 H773 0.950 . S
C785 C781 1.393 . S
C785 C784 1.391 . S
C786 H776 0.950 . S
C786 C787 1.386 . S
C786 C788 1.391 . S
C787 C786 1.386 . S
C787 C791 1.393 . S
C788 H777 0.950 . S
C788 C786 1.391 . S
C788 C789 1.400 . S
C789 C783 1.491 . S
C789 C788 1.400 . S
C789 C790 1.398 . S
C790 H778 0.950 . S
C790 C789 1.398 . S
C790 C791 1.391 . S
C791 H779 0.950 . S
C791 C787 1.393 . S
C791 C790 1.391 . S
C481 C52 0.903 . S
C487 C170 0.901 . S
C501 C111 0.898 . S
C507 C229 0.900 . S
C521 C288 0.900 . S
C527 C406 0.903 . S
C541 C347 0.899 . S
C547 C465 0.899 . S
C561 C3 1.403 . S
C567 C298 1.415 . S
C581 C62 1.402 . S
C587 C357 1.419 . S
C601 C416 1.414 . S
C607 C121 1.406 . S
C621 C180 1.417 . S
C627 C239 1.403 . S
C641 C269 1.746 . S
C647 C5 1.779 . S
C661 C64 1.787 . S
C667 C328 1.753 . S
C681 C123 1.778 . S
C687 C387 1.754 . S
C701 C182 1.777 . S
C707 C446 1.750 . S
C721 C33 1.746 . S
C727 C241 1.780 . S
C741 C300 1.780 . S
C747 C92 1.746 . S
C761 C359 1.778 . S
C767 C151 1.753 . S
C781 C210 1.762 . S
C787 C418 1.784 . S
