# Generated by pormake.
# Topology mon, (4)-cn, num edge types: 1
# Building blocks:
#     Node 0, Type 0, BuildingBlock: UXUYUI_clean_sbu_0, # of connection points: 4
#     Node 1, Type 0, BuildingBlock: UXUYUI_clean_sbu_0, # of connection points: 4
#     Node 2, Type 0, BuildingBlock: UXUYUI_clean_sbu_0, # of connection points: 4
#     Node 3, Type 0, BuildingBlock: UXUYUI_clean_sbu_0, # of connection points: 4
#     Node 4, Type 0, BuildingBlock: UXUYUI_clean_sbu_0, # of connection points: 4
#     Node 5, Type 0, BuildingBlock: UXUYUI_clean_sbu_0, # of connection points: 4
#     Node 6, Type 0, BuildingBlock: UXUYUI_clean_sbu_0, # of connection points: 4
#     Node 7, Type 0, BuildingBlock: UXUYUI_clean_sbu_0, # of connection points: 4
#     Node 8, Type 0, BuildingBlock: UXUYUI_clean_sbu_0, # of connection points: 4
#     Node 9, Type 0, BuildingBlock: UXUYUI_clean_sbu_0, # of connection points: 4
#     Node 10, Type 0, BuildingBlock: UXUYUI_clean_sbu_0, # of connection points: 4
#     Node 11, Type 0, BuildingBlock: UXUYUI_clean_sbu_0, # of connection points: 4
#     Node 12, Type 0, BuildingBlock: UXUYUI_clean_sbu_0, # of connection points: 4
#     Node 13, Type 0, BuildingBlock: UXUYUI_clean_sbu_0, # of connection points: 4
#     Node 14, Type 0, BuildingBlock: UXUYUI_clean_sbu_0, # of connection points: 4
#     Node 15, Type 0, BuildingBlock: UXUYUI_clean_sbu_0, # of connection points: 4
#     Edge 16, Type (0, 0), BuildingBlock: MIFKUJ_clean_linker_0, # of connection points: 2
#     Edge 17, Type (0, 0), BuildingBlock: MIFKUJ_clean_linker_0, # of connection points: 2
#     Edge 18, Type (0, 0), BuildingBlock: MIFKUJ_clean_linker_0, # of connection points: 2
#     Edge 19, Type (0, 0), BuildingBlock: MIFKUJ_clean_linker_0, # of connection points: 2
#     Edge 20, Type (0, 0), BuildingBlock: MIFKUJ_clean_linker_0, # of connection points: 2
#     Edge 21, Type (0, 0), BuildingBlock: MIFKUJ_clean_linker_0, # of connection points: 2
#     Edge 22, Type (0, 0), BuildingBlock: MIFKUJ_clean_linker_0, # of connection points: 2
#     Edge 23, Type (0, 0), BuildingBlock: MIFKUJ_clean_linker_0, # of connection points: 2
#     Edge 24, Type (0, 0), BuildingBlock: MIFKUJ_clean_linker_0, # of connection points: 2
#     Edge 25, Type (0, 0), BuildingBlock: MIFKUJ_clean_linker_0, # of connection points: 2
#     Edge 26, Type (0, 0), BuildingBlock: MIFKUJ_clean_linker_0, # of connection points: 2
#     Edge 27, Type (0, 0), BuildingBlock: MIFKUJ_clean_linker_0, # of connection points: 2
#     Edge 28, Type (0, 0), BuildingBlock: MIFKUJ_clean_linker_0, # of connection points: 2
#     Edge 29, Type (0, 0), BuildingBlock: MIFKUJ_clean_linker_0, # of connection points: 2
#     Edge 30, Type (0, 0), BuildingBlock: MIFKUJ_clean_linker_0, # of connection points: 2
#     Edge 31, Type (0, 0), BuildingBlock: MIFKUJ_clean_linker_0, # of connection points: 2
#     Edge 32, Type (0, 0), BuildingBlock: MIFKUJ_clean_linker_0, # of connection points: 2
#     Edge 33, Type (0, 0), BuildingBlock: MIFKUJ_clean_linker_0, # of connection points: 2
#     Edge 34, Type (0, 0), BuildingBlock: MIFKUJ_clean_linker_0, # of connection points: 2
#     Edge 35, Type (0, 0), BuildingBlock: MIFKUJ_clean_linker_0, # of connection points: 2
#     Edge 36, Type (0, 0), BuildingBlock: MIFKUJ_clean_linker_0, # of connection points: 2
#     Edge 37, Type (0, 0), BuildingBlock: MIFKUJ_clean_linker_0, # of connection points: 2
#     Edge 38, Type (0, 0), BuildingBlock: MIFKUJ_clean_linker_0, # of connection points: 2
#     Edge 39, Type (0, 0), BuildingBlock: MIFKUJ_clean_linker_0, # of connection points: 2
#     Edge 40, Type (0, 0), BuildingBlock: MIFKUJ_clean_linker_0, # of connection points: 2
#     Edge 41, Type (0, 0), BuildingBlock: MIFKUJ_clean_linker_0, # of connection points: 2
#     Edge 42, Type (0, 0), BuildingBlock: MIFKUJ_clean_linker_0, # of connection points: 2
#     Edge 43, Type (0, 0), BuildingBlock: MIFKUJ_clean_linker_0, # of connection points: 2
#     Edge 44, Type (0, 0), BuildingBlock: MIFKUJ_clean_linker_0, # of connection points: 2
#     Edge 45, Type (0, 0), BuildingBlock: MIFKUJ_clean_linker_0, # of connection points: 2
#     Edge 46, Type (0, 0), BuildingBlock: MIFKUJ_clean_linker_0, # of connection points: 2
#     Edge 47, Type (0, 0), BuildingBlock: MIFKUJ_clean_linker_0, # of connection points: 2
# Relax obj value: 0.204
# Max RMSD: 0.157
# Mean RMSD: 0.156
data_MOF--net-mon--node1-UXUYUI_clean_sbu_0--edge1-MIFKUJ_clean_linker_0
_symmetry_space_group_name_H-M    P1
_symmetry_Int_Tables_number       1
_symmetry_cell_setting            triclinic
loop_
_symmetry_equiv_pos_as_xyz
'x, y, z'
_cell_length_a     59.55439
_cell_length_b     59.454025
_cell_length_c     147.22938
_cell_angle_alpha  90.012002
_cell_angle_beta   90.018052
_cell_angle_gamma 90.013397
loop_
_atom_site_label
_atom_site_type_symbol
_atom_site_fract_x
_atom_site_fract_y
_atom_site_fract_z
_atom_type_partial_charge
Li0 Li -0.00051 0.02522 0.58075 0.0
Li1 Li -8e-05 0.05315 0.59284 0.0
Li2 Li 0.02133 0.01854 0.59418 0.0
Li3 Li 0.98044 0.0187 0.59518 0.0
C4 C 0.03534 0.04965 0.57749 0.0
N5 N 0.05376 0.0629 0.56112 0.0
C6 C 0.03178 0.07146 0.57424 0.0
C7 C 0.04836 0.03463 0.57243 0.0
C8 C 0.04124 0.07783 0.56595 0.0
C9 C 0.05748 0.04163 0.56416 0.0
C10 C 0.95128 0.03983 0.58502 0.0
C11 C 0.91375 0.04459 0.59088 0.0
N12 N 0.90548 0.03318 0.58361 0.0
C13 C 0.9424 0.02819 0.57759 0.0
C14 C 0.93684 0.04818 0.59171 0.0
C15 C 0.91919 0.02501 0.577 0.0
C16 C 0.00099 0.0001 0.56447 0.0
N17 N -0.00204 0.02099 0.568 0.0
C18 C 0.99336 0.03657 0.55317 0.0
C19 C 0.99384 0.03904 0.56259 0.0
C20 C 0.99682 0.01524 0.5493 0.0
C21 C 0.00048 0.99682 0.55509 0.0
H22 H 0.00374 0.98597 0.56894 0.0
H23 H 0.99113 0.0554 0.56561 0.0
C24 C 0.02063 0.09403 0.59735 0.0
N25 N 0.0006 0.08427 0.59535 0.0
C26 C 0.0218 0.11705 0.59909 0.0
C27 C 0.98164 0.11939 0.5968 0.0
C28 C 0.98129 0.09637 0.59505 0.0
C29 C 0.00213 0.13007 0.59875 0.0
H30 H 0.03573 0.08391 0.59748 0.0
H31 H 0.96565 0.08818 0.59339 0.0
C32 C 0.00904 0.97729 0.58972 0.0
N33 N 0.02917 0.93641 0.59338 0.0
C34 C 0.00019 0.96316 0.59641 0.0
C35 C 0.02804 0.97055 0.58485 0.0
C36 C 0.01061 0.94256 0.59816 0.0
C37 C 0.03801 0.94986 0.58682 0.0
C38 C 0.00654 0.04799 0.61018 0.0
C39 C 0.02855 0.05094 0.61326 0.0
C40 C 0.98936 0.06144 0.61369 0.0
C41 C 0.03301 0.06741 0.61979 0.0
C42 C 0.99452 0.07776 0.62019 0.0
N43 N 0.01606 0.08038 0.62308 0.0
C44 C 0.06819 0.01121 0.59529 0.0
C45 C 0.0461 0.99033 0.60571 0.0
C46 C 0.08774 0.00086 0.59844 0.0
N47 N 0.04792 0.00548 0.59884 0.0
C48 C 0.06513 0.97931 0.60896 0.0
C49 C 0.08621 0.98443 0.60524 0.0
H50 H 0.06917 0.02365 0.58996 0.0
H51 H 0.0298 0.98657 0.60856 0.0
C52 C 0.94315 0.9899 0.59553 0.0
N53 N 0.95512 0.00484 0.60056 0.0
C54 C 0.92392 0.9799 0.59912 0.0
C55 C 0.92989 0.00068 0.61304 0.0
C56 C 0.94903 0.01025 0.60918 0.0
C57 C 0.91704 0.98531 0.60798 0.0
H58 H 0.94856 0.98583 0.58871 0.0
H59 H 0.95896 0.02205 0.61304 0.0
O60 O 0.02589 0.04295 0.58551 0.0
O61 O 0.974 0.04272 0.58582 0.0
O62 O -0.00072 0.99768 0.588 0.0
O63 O 0.00191 0.03229 0.60364 0.0
H64 H 0.0216 0.08326 0.57802 0.0
H65 H 0.05116 0.01764 0.57481 0.0
H66 H 0.03854 0.09461 0.56334 0.0
H67 H 0.06745 0.03012 0.56015 0.0
H68 H 0.90242 0.05077 0.59606 0.0
H69 H 0.95327 0.02147 0.57238 0.0
H70 H 0.94342 0.05687 0.59759 0.0
H71 H 0.9121 0.01596 0.57131 0.0
H72 H 0.99066 0.05128 0.54897 0.0
H73 H 0.00274 0.97999 0.55243 0.0
H74 H 0.038 0.12464 0.60043 0.0
H75 H 0.96604 0.12872 0.59658 0.0
H76 H 0.98559 0.96813 0.60028 0.0
H77 H 0.03521 0.98134 0.5797 0.0
H78 H 0.00401 0.9315 0.60335 0.0
H79 H 0.05283 0.94453 0.58316 0.0
H80 H 0.04209 0.04079 0.61059 0.0
H81 H 0.97229 0.05966 0.61128 0.0
H82 H 0.04998 0.06993 0.62221 0.0
H83 H 0.98142 0.08842 0.62291 0.0
H84 H 0.10376 0.0052 0.59543 0.0
H85 H 0.0634 0.96692 0.61431 0.0
H86 H 0.91477 0.96782 0.59504 0.0
H87 H 0.92511 0.00543 0.61987 0.0
Li88 Li 0.24067 0.7352 0.84404 0.0
Li89 Li 0.20573 0.75614 0.84259 0.0
Li90 Li 0.23455 0.7578 0.83021 0.0
Li91 Li 0.23942 0.7774 0.84466 0.0
C92 C 0.21571 0.71042 0.831 0.0
N93 N 0.21319 0.66785 0.82349 0.0
C94 C 0.1976 0.69633 0.83304 0.0
C95 C 0.23229 0.70297 0.82499 0.0
C96 C 0.19669 0.67483 0.82922 0.0
C97 C 0.23079 0.68138 0.8213 0.0
C98 C 0.21222 0.75228 0.86038 0.0
C99 C 0.18403 0.76668 0.87061 0.0
N100 N 0.18288 0.74623 0.87472 0.0
C101 C 0.2109 0.73147 0.86476 0.0
C102 C 0.19883 0.77011 0.86338 0.0
C103 C 0.19592 0.72872 0.87198 0.0
C104 C 0.27581 0.71179 0.85219 0.0
N105 N 0.25454 0.70931 0.84902 0.0
C106 C 0.25381 0.6709 0.85377 0.0
C107 C 0.24338 0.68945 0.84977 0.0
C108 C 0.27584 0.67293 0.85707 0.0
C109 C 0.28689 0.6937 0.8562 0.0
H110 H 0.28413 0.7279 0.85164 0.0
H111 H 0.22621 0.68812 0.8475 0.0
C112 C 0.16147 0.77271 0.84307 0.0
N113 N 0.17471 0.75492 0.84525 0.0
C114 C 0.13876 0.7726 0.84536 0.0
C115 C 0.14374 0.73571 0.852 0.0
C116 C 0.16633 0.73655 0.84957 0.0
C117 C 0.12966 0.75394 0.84991 0.0
H118 H 0.16854 0.787 0.83955 0.0
H119 H 0.17731 0.72268 0.85124 0.0
C120 C 0.28134 0.75386 0.83413 0.0
N121 N 0.32216 0.74637 0.82571 0.0
C122 C 0.29654 0.77154 0.83294 0.0
C123 C 0.28715 0.73227 0.83119 0.0
C124 C 0.31702 0.76745 0.82862 0.0
C125 C 0.30779 0.72884 0.82691 0.0
C126 C 0.2154 0.80535 0.8346 0.0
C127 C 0.22474 0.81588 0.827 0.0
C128 C 0.20589 0.81841 0.8415 0.0
C129 C 0.22472 0.83935 0.8265 0.0
C130 C 0.20624 0.84183 0.84075 0.0
N131 N 0.21558 0.85173 0.83333 0.0
C132 C 0.224 0.74867 0.81199 0.0
C133 C 0.25715 0.77018 0.81396 0.0
C134 C 0.22693 0.74867 0.80259 0.0
N135 N 0.23921 0.75902 0.81746 0.0
C136 C 0.26071 0.77066 0.8046 0.0
C137 C 0.24557 0.75967 0.79878 0.0
H138 H 0.20965 0.74026 0.81494 0.0
H139 H 0.26853 0.77898 0.81842 0.0
C140 C 0.25013 0.80518 0.85946 0.0
N141 N 0.25216 0.80309 0.85031 0.0
C142 C 0.25932 0.82371 0.86392 0.0
C143 C 0.27262 0.83757 0.84945 0.0
C144 C 0.26312 0.81878 0.84527 0.0
C145 C 0.27087 0.84014 0.85891 0.0
H146 H 0.24154 0.79237 0.86332 0.0
H147 H 0.26458 0.81664 0.838 0.0
O148 O 0.21682 0.73153 0.8347 0.0
O149 O 0.22658 0.75519 0.85322 0.0
O150 O 0.26122 0.75762 0.83837 0.0
O151 O 0.21551 0.78239 0.83526 0.0
H152 H 0.18441 0.70188 0.83755 0.0
H153 H 0.246 0.71385 0.82307 0.0
H154 H 0.18285 0.66372 0.8308 0.0
H155 H 0.24355 0.67542 0.81666 0.0
H156 H 0.17343 0.78028 0.87294 0.0
H157 H 0.22124 0.71753 0.86259 0.0
H158 H 0.19969 0.78635 0.86011 0.0
H159 H 0.19464 0.71266 0.87539 0.0
H160 H 0.24454 0.65532 0.85446 0.0
H161 H 0.30397 0.69596 0.85857 0.0
H162 H 0.12839 0.78681 0.84348 0.0
H163 H 0.13744 0.7211 0.85558 0.0
H164 H 0.29254 0.78829 0.83528 0.0
H165 H 0.27604 0.71821 0.83233 0.0
H166 H 0.32884 0.78103 0.8276 0.0
H167 H 0.31244 0.71222 0.82459 0.0
H168 H 0.232 0.80607 0.82157 0.0
H169 H 0.19851 0.81056 0.8474 0.0
H170 H 0.232 0.84772 0.82068 0.0
H171 H 0.1991 0.85213 0.84607 0.0
H172 H 0.2149 0.73986 0.79837 0.0
H173 H 0.275 0.77981 0.80194 0.0
H174 H 0.2574 0.82511 0.87121 0.0
H175 H 0.28169 0.84965 0.84534 0.0
Li176 Li 0.53116 0.97193 0.09089 0.0
Li177 Li 0.48992 0.9695 0.09104 0.0
Li178 Li 0.51334 0.9352 0.09087 0.0
Li179 Li 0.5105 0.95839 0.07743 0.0
C180 C 0.52288 0.95504 0.10824 0.0
N181 N 0.54628 0.94726 0.12413 0.0
C182 C 0.51488 0.96355 0.11647 0.0
C183 C 0.54275 0.94257 0.10808 0.0
C184 C 0.52696 0.95944 0.12443 0.0
C185 C 0.55435 0.93881 0.11619 0.0
C186 C 0.49685 0.00283 0.07791 0.0
C187 C 0.46369 0.01044 0.06902 0.0
N188 N 0.47204 0.03108 0.0669 0.0
C189 C 0.50512 0.02408 0.07564 0.0
C190 C 0.47598 0.99591 0.07457 0.0
C191 C 0.49231 0.03813 0.07007 0.0
C192 C 0.57552 0.98898 0.09071 0.0
N193 N 0.55547 0.98923 0.09511 0.0
C194 C 0.56921 0.01576 0.10591 0.0
C195 C 0.55199 0.00227 0.10255 0.0
C196 C 0.59012 0.01607 0.10149 0.0
C197 C 0.59322 0.00234 0.09382 0.0
H198 H 0.57764 0.97863 0.08473 0.0
H199 H 0.53576 0.00226 0.10584 0.0
C200 C 0.4454 0.97069 0.09768 0.0
N201 N 0.46391 0.98319 0.09577 0.0
C202 C 0.42619 0.98099 0.10119 0.0
C203 C 0.44566 0.0167 0.10073 0.0
C204 C 0.46449 0.00571 0.09729 0.0
C205 C 0.42618 0.00432 0.1027 0.0
H206 H 0.44559 0.95274 0.09647 0.0
H207 H 0.47961 0.01511 0.09585 0.0
C208 C 0.55329 0.93092 0.07978 0.0
N209 N 0.58413 0.90017 0.07325 0.0
C210 C 0.54908 0.91932 0.0717 0.0
C211 C 0.5734 0.92718 0.08445 0.0
C212 C 0.56482 0.90376 0.06853 0.0
C213 C 0.58871 0.91148 0.08106 0.0
C214 C 0.47488 0.92612 0.07871 0.0
C215 C 0.48652 0.90759 0.07528 0.0
C216 C 0.45194 0.92842 0.07693 0.0
C217 C 0.47504 0.89163 0.07009 0.0
C218 C 0.44104 0.91211 0.0717 0.0
N219 N 0.45272 0.89421 0.06842 0.0
C220 C 0.50231 0.90266 0.10362 0.0
C221 C 0.52665 0.88874 0.09221 0.0
C222 C 0.50212 0.88181 0.10796 0.0
N223 N 0.51453 0.90576 0.09593 0.0
C224 C 0.52669 0.86752 0.09624 0.0
C225 C 0.51434 0.86381 0.10425 0.0
H226 H 0.49271 0.91647 0.10641 0.0
H227 H 0.53601 0.89138 0.08605 0.0
C228 C 0.52921 0.97071 0.06107 0.0
N229 N 0.51075 0.96049 0.06457 0.0
C230 C 0.5307 0.97496 0.05178 0.0
C231 C 0.49423 0.95777 0.04983 0.0
C232 C 0.49338 0.954 0.05918 0.0
C233 C 0.51299 0.96859 0.04602 0.0
H234 H 0.54258 0.97602 0.06556 0.0
H235 H 0.47865 0.94636 0.06212 0.0
O236 O 0.51132 0.95909 0.10038 0.0
O237 O 0.50937 0.98879 0.08325 0.0
O238 O 0.53819 0.9464 0.08296 0.0
O239 O 0.48576 0.94204 0.08377 0.0
H240 H 0.49951 0.97327 0.11668 0.0
H241 H 0.54906 0.9358 0.10178 0.0
H242 H 0.52099 0.96595 0.13085 0.0
H243 H 0.56974 0.92917 0.11616 0.0
H244 H 0.44753 0.0053 0.06638 0.0
H245 H 0.52129 0.02963 0.07814 0.0
H246 H 0.46934 0.97948 0.07621 0.0
H247 H 0.4985 0.05464 0.06825 0.0
H248 H 0.56616 0.02581 0.11192 0.0
H249 H 0.60896 0.0023 0.09013 0.0
H250 H 0.41146 0.9709 0.10261 0.0
H251 H 0.44645 0.03465 0.10195 0.0
H252 H 0.53382 0.9222 0.0679 0.0
H253 H 0.57723 0.93634 0.09061 0.0
H254 H 0.5617 0.89457 0.06232 0.0
H255 H 0.60427 0.90834 0.08463 0.0
H256 H 0.50422 0.90557 0.07659 0.0
H257 H 0.44269 0.94274 0.0795 0.0
H258 H 0.48387 0.87721 0.06739 0.0
H259 H 0.42331 0.9137 0.07025 0.0
H260 H 0.49255 0.87987 0.11416 0.0
H261 H 0.53592 0.85408 0.09298 0.0
H262 H 0.54529 0.98374 0.0492 0.0
H263 H 0.48026 0.9524 0.04565 0.0
Li264 Li 0.28238 0.26144 0.34032 0.0
Li265 Li 0.31658 0.23902 0.3398 0.0
Li266 Li 0.29067 0.24158 0.3265 0.0
Li267 Li 0.28029 0.21911 0.33971 0.0
C268 C 0.3126 0.28834 0.33231 0.0
N269 N 0.31972 0.33426 0.3327 0.0
C270 C 0.33165 0.29713 0.33658 0.0
C271 C 0.29732 0.30289 0.32814 0.0
C272 C 0.33492 0.3204 0.33672 0.0
C273 C 0.30117 0.32606 0.32844 0.0
C274 C 0.29939 0.23498 0.35801 0.0
C275 C 0.3088 0.20927 0.37011 0.0
N276 N 0.31186 0.227 0.37582 0.0
C277 C 0.30226 0.25291 0.36404 0.0
C278 C 0.30238 0.21295 0.36111 0.0
C279 C 0.30872 0.24855 0.37299 0.0
C280 C 0.24595 0.28831 0.34526 0.0
N281 N 0.2687 0.287 0.34566 0.0
C282 C 0.27052 0.32075 0.35445 0.0
C283 C 0.28108 0.30271 0.35014 0.0
C284 C 0.24702 0.32231 0.35425 0.0
C285 C 0.2347 0.30591 0.34954 0.0
H286 H 0.23652 0.27543 0.34175 0.0
H287 H 0.29911 0.301 0.35054 0.0
C288 C 0.36166 0.22534 0.33872 0.0
N289 N 0.34682 0.2375 0.34372 0.0
C290 C 0.38394 0.22345 0.3415 0.0
C291 C 0.37552 0.24743 0.35433 0.0
C292 C 0.35335 0.24872 0.35132 0.0
C293 C 0.39107 0.23452 0.34942 0.0
H294 H 0.3562 0.21716 0.33255 0.0
H295 H 0.34144 0.25896 0.35498 0.0
C296 C 0.24604 0.24131 0.32656 0.0
N297 N 0.21493 0.23997 0.31265 0.0
C298 C 0.23561 0.22104 0.32426 0.0
C299 C 0.24042 0.26096 0.32188 0.0
C300 C 0.21998 0.2207 0.31719 0.0
C301 C 0.22472 0.25992 0.31484 0.0
C302 C 0.31444 0.19311 0.33151 0.0
C303 C 0.31352 0.17989 0.32367 0.0
C304 C 0.32401 0.18431 0.33941 0.0
C305 C 0.32183 0.15792 0.32392 0.0
C306 C 0.33216 0.16229 0.33939 0.0
N307 N 0.33088 0.14964 0.33171 0.0
C308 C 0.29483 0.26052 0.30886 0.0
C309 C 0.27916 0.2239 0.30952 0.0
C310 C 0.29188 0.26115 0.29946 0.0
N311 N 0.28827 0.24216 0.31367 0.0
C312 C 0.27586 0.22381 0.30015 0.0
C313 C 0.28216 0.24266 0.29499 0.0
H314 H 0.30225 0.27471 0.31233 0.0
H315 H 0.27406 0.20956 0.31353 0.0
C316 C 0.25153 0.19737 0.35158 0.0
N317 N 0.26396 0.19397 0.34397 0.0
C318 C 0.23811 0.18018 0.35502 0.0
C319 C 0.25055 0.15623 0.34273 0.0
C320 C 0.26367 0.17396 0.3395 0.0
C321 C 0.23741 0.15934 0.35054 0.0
H322 H 0.2519 0.21358 0.35492 0.0
H323 H 0.27313 0.1719 0.3333 0.0
O324 O 0.30908 0.2656 0.33215 0.0
O325 O 0.29285 0.23898 0.34923 0.0
O326 O 0.26169 0.2419 0.33336 0.0
O327 O 0.30619 0.2146 0.33139 0.0
H328 H 0.34377 0.28612 0.33976 0.0
H329 H 0.28256 0.29638 0.32478 0.0
H330 H 0.34953 0.32744 0.34003 0.0
H331 H 0.28939 0.33752 0.3253 0.0
H332 H 0.31124 0.19231 0.37258 0.0
H333 H 0.29975 0.27004 0.36183 0.0
H334 H 0.29948 0.19878 0.35667 0.0
H335 H 0.31121 0.2623 0.3777 0.0
H336 H 0.28056 0.33294 0.35811 0.0
H337 H 0.21654 0.30666 0.34919 0.0
H338 H 0.39556 0.2138 0.3374 0.0
H339 H 0.38041 0.25633 0.36043 0.0
H340 H 0.23972 0.20568 0.32783 0.0
H341 H 0.24815 0.27683 0.32364 0.0
H342 H 0.21189 0.20509 0.31529 0.0
H343 H 0.22033 0.27497 0.31112 0.0
H344 H 0.30641 0.18647 0.31746 0.0
H345 H 0.32546 0.19448 0.34545 0.0
H346 H 0.32111 0.14747 0.31791 0.0
H347 H 0.3396 0.15529 0.34547 0.0
H348 H 0.29727 0.27588 0.29572 0.0
H349 H 0.26803 0.20932 0.29701 0.0
H350 H 0.22833 0.18318 0.3611 0.0
H351 H 0.25014 0.14053 0.339 0.0
Li352 Li 0.97777 0.97518 0.40767 0.0
Li353 Li 0.01872 0.97868 0.40725 0.0
Li354 Li 0.00205 0.94229 0.40938 0.0
Li355 Li 0.00077 0.9715 0.42107 0.0
C356 C 0.98744 0.9514 0.39199 0.0
N357 N 0.96401 0.92973 0.37835 0.0
C358 C 0.99456 0.95313 0.38298 0.0
C359 C 0.96841 0.93861 0.39408 0.0
C360 C 0.98248 0.94206 0.37618 0.0
C361 C 0.9568 0.9278 0.38708 0.0
C362 C 0.9926 0.01442 0.4198 0.0
C363 C 0.00519 0.039 0.43181 0.0
N364 N 0.98357 0.04525 0.43338 0.0
C365 C 0.97053 0.02123 0.42149 0.0
C366 C 0.01011 0.02352 0.42496 0.0
C367 C 0.9663 0.03679 0.42839 0.0
C368 C 0.93102 0.98456 0.40722 0.0
N369 N 0.9507 0.98574 0.40256 0.0
C370 C 0.9327 0.0038 0.39007 0.0
C371 C 0.95189 0.99506 0.39415 0.0
C372 C 0.91227 0.00337 0.3948 0.0
C373 C 0.91145 0.9936 0.40347 0.0
H374 H 0.93069 0.97713 0.41392 0.0
H375 H 0.96786 0.99597 0.39068 0.0
C376 C 0.05399 0.9816 0.3947 0.0
N377 N 0.04232 0.99333 0.40106 0.0
C378 C 0.07134 0.99194 0.38989 0.0
C379 C 0.06423 0.02618 0.3983 0.0
C380 C 0.04701 0.01519 0.40292 0.0
C381 C 0.07654 0.01458 0.39164 0.0
H382 H 0.0497 0.96423 0.39335 0.0
H383 H 0.03733 0.02411 0.40797 0.0
C384 C 0.9702 0.93592 0.42343 0.0
N385 N 0.95912 0.90495 0.43669 0.0
C386 C 0.98685 0.92707 0.42911 0.0
C387 C 0.94792 0.92907 0.42453 0.0
C388 C 0.9809 0.91144 0.43577 0.0
C389 C 0.94266 0.91336 0.43126 0.0
C390 C 0.05019 0.95627 0.41558 0.0
C391 C 0.06194 0.93846 0.41161 0.0
C392 C 0.06199 0.97507 0.41871 0.0
C393 C 0.08522 0.93999 0.41063 0.0
C394 C 0.08526 0.976 0.41759 0.0
N395 N 0.0963 0.95859 0.4136 0.0
C396 C 0.01897 0.90829 0.39852 0.0
C397 C 0.99508 0.89409 0.41005 0.0
C398 C 0.02294 0.88663 0.39527 0.0
N399 N 0.00547 0.91161 0.40585 0.0
C400 C -0.00111 0.87213 0.40712 0.0
C401 C 0.01307 0.86827 0.39968 0.0
H402 H 0.02689 0.92253 0.39526 0.0
H403 H 0.98384 0.89694 0.41565 0.0
C404 C 0.98062 0.98088 0.43793 0.0
N405 N 0.00063 0.9768 0.43381 0.0
C406 C 0.97969 0.98464 0.44727 0.0
C407 C 0.01998 0.97984 0.44795 0.0
C408 C 0.02011 0.97611 0.4386 0.0
C409 C -0.00044 0.98414 0.45241 0.0
H410 H 0.96536 0.98107 0.43394 0.0
H411 H 0.03573 0.97257 0.43517 0.0
O412 O -0.00077 0.96209 0.3987 0.0
O413 O 0.997 -0.0012 0.4132 0.0
O414 O 0.9754 0.95176 0.41703 0.0
O415 O 0.02731 0.95524 0.41644 0.0
H416 H 0.00929 0.96292 0.38126 0.0
H417 H 0.96267 0.937 0.40101 0.0
H418 H 0.9878 0.94326 0.36917 0.0
H419 H 0.94205 0.91785 0.3886 0.0
H420 H 0.01857 0.046 0.43591 0.0
H421 H 0.95677 0.01448 0.41756 0.0
H422 H 0.02728 0.01847 0.42378 0.0
H423 H 0.94928 0.0421 0.42979 0.0
H424 H 0.93397 0.01157 0.38343 0.0
H425 H 0.89593 0.99315 0.4073 0.0
H426 H 0.08022 0.98247 0.38474 0.0
H427 H 0.06788 0.04355 0.39994 0.0
H428 H 0.0042 0.93208 0.42836 0.0
H429 H 0.93483 0.93586 0.42023 0.0
H430 H 0.99361 0.90444 0.44019 0.0
H431 H 0.92549 0.90788 0.43217 0.0
H432 H 0.05323 0.92355 0.40934 0.0
H433 H 0.05323 0.989 0.42181 0.0
H434 H 0.09449 0.92636 0.40753 0.0
H435 H 0.09454 0.99059 0.41988 0.0
H436 H 0.03403 0.88421 0.38952 0.0
H437 H 0.99073 0.85829 0.41059 0.0
H438 H 0.96354 0.98752 0.45044 0.0
H439 H 0.03572 0.97952 0.45164 0.0
Li440 Li 0.28155 0.77376 0.65599 0.0
Li441 Li 0.28781 0.7547 0.67049 0.0
Li442 Li 0.31426 0.75008 0.65733 0.0
Li443 Li 0.27781 0.73151 0.65724 0.0
C444 C 0.31119 0.80022 0.66501 0.0
N445 N 0.31855 0.84607 0.66595 0.0
C446 C 0.30525 0.8122 0.67282 0.0
C447 C 0.32122 0.81151 0.65774 0.0
C448 C 0.30903 0.83538 0.67315 0.0
C449 C 0.32469 0.83471 0.65833 0.0
C450 C 0.24065 0.75637 0.66821 0.0
C451 C 0.21225 0.73789 0.6772 0.0
N452 N 0.2018 0.75799 0.67846 0.0
C453 C 0.22942 0.77677 0.66948 0.0
C454 C 0.23182 0.73671 0.672 0.0
C455 C 0.2099 0.77728 0.67473 0.0
C456 C 0.26487 0.79784 0.6412 0.0
N457 N 0.26918 0.79951 0.65024 0.0
C458 C 0.25372 0.83658 0.65064 0.0
C459 C 0.26384 0.81837 0.655 0.0
C460 C 0.24878 0.83516 0.64133 0.0
C461 C 0.25468 0.81556 0.63658 0.0
H462 H 0.26892 0.78253 0.6376 0.0
H463 H 0.26686 0.81907 0.66222 0.0
C464 C 0.29812 0.74364 0.68865 0.0
N465 N 0.28509 0.757 0.68333 0.0
C466 C 0.29583 0.74414 0.69808 0.0
C467 C 0.26741 0.77287 0.69641 0.0
C468 C 0.27023 0.77174 0.68702 0.0
C469 C 0.28013 0.75876 0.70207 0.0
H470 H 0.31019 0.73241 0.68557 0.0
H471 H 0.2607 0.78281 0.68268 0.0
C472 C 0.30328 0.74749 0.63958 0.0
N473 N 0.32761 0.74241 0.62372 0.0
C474 C 0.30329 0.72689 0.635 0.0
C475 C 0.31533 0.76561 0.636 0.0
C476 C 0.31577 0.72463 0.62702 0.0
C477 C 0.32761 0.76268 0.62801 0.0
C478 C 0.30301 0.70562 0.66934 0.0
C479 C 0.32026 0.69071 0.66706 0.0
C480 C 0.28601 0.69862 0.67524 0.0
C481 C 0.31993 0.66887 0.67056 0.0
C482 C 0.28628 0.67667 0.67861 0.0
N483 N 0.30307 0.66236 0.67621 0.0
C484 C 0.36001 0.76177 0.65566 0.0
C485 C 0.3496 0.72708 0.64892 0.0
C486 C 0.38216 0.7589 0.65282 0.0
N487 N 0.34431 0.74598 0.65364 0.0
C488 C 0.37148 0.72359 0.64589 0.0
C489 C 0.38813 0.73959 0.64786 0.0
H490 H 0.35538 0.77648 0.65954 0.0
H491 H 0.33678 0.7147 0.64751 0.0
C492 C 0.23984 0.70799 0.65113 0.0
N493 N 0.2621 0.70596 0.65297 0.0
C494 C 0.2281 0.69011 0.64726 0.0
C495 C 0.2624 0.66834 0.64728 0.0
C496 C 0.27347 0.68666 0.65114 0.0
C497 C 0.23947 0.67005 0.64518 0.0
H498 H 0.23133 0.7237 0.65249 0.0
H499 H 0.29133 0.68578 0.65234 0.0
O500 O 0.30752 0.77752 0.66456 0.0
O501 O 0.25979 0.75559 0.66307 0.0
O502 O 0.29138 0.74994 0.64747 0.0
O503 O 0.30299 0.72702 0.66591 0.0
H504 H 0.29777 0.80373 0.67856 0.0
H505 H 0.32628 0.80249 0.65172 0.0
H506 H 0.30439 0.84487 0.67913 0.0
H507 H 0.33231 0.84367 0.65272 0.0
H508 H 0.20529 0.72281 0.6802 0.0
H509 H 0.23583 0.79211 0.66651 0.0
H510 H 0.2398 0.72065 0.67085 0.0
H511 H 0.20118 0.793 0.67583 0.0
H512 H 0.24905 0.85126 0.65457 0.0
H513 H 0.2512 0.81385 0.62939 0.0
H514 H 0.30592 0.7329 0.70218 0.0
H515 H 0.25553 0.78479 0.6992 0.0
H516 H 0.29388 0.71276 0.6376 0.0
H517 H 0.31517 0.78176 0.63935 0.0
H518 H 0.31605 0.70873 0.62344 0.0
H519 H 0.33712 0.77654 0.6252 0.0
H520 H 0.33372 0.69589 0.6626 0.0
H521 H 0.27291 0.7101 0.67728 0.0
H522 H 0.33309 0.65712 0.6688 0.0
H523 H 0.27319 0.67104 0.68317 0.0
H524 H 0.39455 0.77142 0.65467 0.0
H525 H 0.37528 0.70856 0.64203 0.0
H526 H 0.21038 0.69205 0.6458 0.0
H527 H 0.27188 0.65335 0.64562 0.0
Li528 Li 0.51552 0.05761 0.90595 0.0
Li529 Li 0.51662 0.03742 0.92021 0.0
Li530 Li 0.53306 0.0212 0.90644 0.0
Li531 Li 0.49214 0.02392 0.90806 0.0
C532 C 0.55422 0.06661 0.91654 0.0
N533 N 0.57716 0.10323 0.92346 0.0
C534 C 0.54381 0.08098 0.92275 0.0
C535 C 0.57637 0.07078 0.91389 0.0
C536 C 0.55565 0.09942 0.92616 0.0
C537 C 0.58767 0.0894 0.91745 0.0
C538 C 0.47671 0.06748 0.91878 0.0
C539 C 0.44208 0.07566 0.92663 0.0
N540 N 0.4483 0.0976 0.92731 0.0
C541 C 0.48264 0.09018 0.9195 0.0
C542 C 0.45615 0.0602 0.92231 0.0
C543 C 0.4681 0.10512 0.92386 0.0
C544 C 0.49403 0.09079 0.89635 0.0
N545 N 0.51434 0.08575 0.90002 0.0
C546 C 0.52894 0.1215 0.89565 0.0
C547 C 0.53189 0.1003 0.89952 0.0
C548 C 0.50779 0.12762 0.8922 0.0
C549 C 0.49035 0.11173 0.89237 0.0
H550 H 0.4805 0.07868 0.89675 0.0
H551 H 0.54801 0.09575 0.9023 0.0
C552 C 0.53432 0.02276 0.93659 0.0
N553 N 0.5194 0.03771 0.93309 0.0
C554 C 0.53565 0.01942 0.94594 0.0
C555 C 0.5069 0.04767 0.94797 0.0
C556 C 0.50602 0.05035 0.93856 0.0
C557 C 0.52154 0.03169 0.95177 0.0
H558 H 0.54457 0.01279 0.93205 0.0
H559 H 0.49431 0.06216 0.93566 0.0
C560 C 0.52131 0.03667 0.88933 0.0
N561 N 0.54234 0.0457 0.87301 0.0
C562 C 0.51068 0.03143 0.88114 0.0
C563 C 0.54263 0.0465 0.88923 0.0
C564 C 0.52159 0.03612 0.87296 0.0
C565 C 0.55298 0.05094 0.88091 0.0
C566 C 0.50352 0.99195 0.92151 0.0
C567 C 0.51202 0.97032 0.92289 0.0
C568 C 0.48485 -0.00084 0.92645 0.0
C569 C 0.50163 0.95622 0.92921 0.0
C570 C 0.47495 0.98459 0.93272 0.0
N571 N 0.48347 0.96359 0.93396 0.0
C572 C 0.57758 0.00561 0.90383 0.0
C573 C 0.54906 0.98699 0.89544 0.0
C574 C 0.59404 0.99207 0.89986 0.0
N575 N 0.55567 0.00283 0.90153 0.0
C576 C 0.5649 0.9731 0.89133 0.0
C577 C 0.58773 0.97555 0.89353 0.0
H578 H 0.58224 0.01831 0.90873 0.0
H579 H 0.53146 0.98533 0.89375 0.0
C580 C 0.44668 0.02361 0.90305 0.0
N581 N 0.4646 0.01035 0.90503 0.0
C582 C 0.42639 0.01395 0.90035 0.0
C583 C 0.44351 0.97722 0.90177 0.0
C584 C 0.46344 0.98759 0.90444 0.0
C585 C 0.42467 0.99045 0.89964 0.0
H586 H 0.44828 0.04171 0.90345 0.0
H587 H 0.47814 0.97751 0.90586 0.0
O588 O 0.54293 0.04854 0.91304 0.0
O589 O 0.49062 0.05256 0.91447 0.0
O590 O 0.5108 0.0321 0.89738 0.0
O591 O 0.51372 0.00603 0.91542 0.0
H592 H 0.5268 0.07795 0.92493 0.0
H593 H 0.58467 0.05988 0.90906 0.0
H594 H 0.54775 0.11071 0.93095 0.0
H595 H 0.60478 0.09288 0.91543 0.0
H596 H 0.42617 0.07022 0.92942 0.0
H597 H 0.49826 0.09631 0.91671 0.0
H598 H 0.45103 0.04281 0.92172 0.0
H599 H 0.47253 0.1227 0.92447 0.0
H600 H 0.54279 0.1333 0.89574 0.0
H601 H 0.47388 0.11564 0.88968 0.0
H602 H 0.54696 0.00669 0.94854 0.0
H603 H 0.49597 0.05775 0.95221 0.0
H604 H 0.49417 0.0238 0.88111 0.0
H605 H 0.55115 0.05067 0.89549 0.0
H606 H 0.51357 0.03215 0.86656 0.0
H607 H 0.56948 0.05854 0.88073 0.0
H608 H 0.52653 0.96453 0.91912 0.0
H609 H 0.47823 0.01589 0.92551 0.0
H610 H 0.50803 0.93943 0.93035 0.0
H611 H 0.46053 0.99 0.93661 0.0
H612 H 0.61144 0.99432 0.9018 0.0
H613 H 0.55936 0.96078 0.88639 0.0
H614 H 0.41225 0.02474 0.8988 0.0
H615 H 0.44307 0.95908 0.90113 0.0
Li616 Li 0.22862 0.23402 0.1676 0.0
Li617 Li 0.23021 0.21156 0.15402 0.0
Li618 Li 0.23862 0.25177 0.1533 0.0
Li619 Li 0.20094 0.23786 0.1554 0.0
C620 C 0.27532 0.22287 0.15588 0.0
N621 N 0.31517 0.21171 0.14736 0.0
C622 C 0.27649 0.22204 0.1464 0.0
C623 C 0.29447 0.21802 0.16102 0.0
C624 C 0.29677 0.21636 0.14222 0.0
C625 C 0.31445 0.21243 0.15658 0.0
C626 C 0.20457 0.18915 0.16511 0.0
C627 C 0.19006 0.15239 0.16139 0.0
N628 N 0.20243 0.14336 0.16825 0.0
C629 C 0.217 0.17952 0.17216 0.0
C630 C 0.19085 0.1755 0.15972 0.0
C631 C 0.21573 0.15634 0.17363 0.0
C632 C 0.21748 0.24541 0.18558 0.0
N633 N 0.23318 0.23527 0.18029 0.0
C634 C 0.25605 0.2274 0.19321 0.0
C635 C 0.25221 0.22637 0.18388 0.0
C636 C 0.24017 0.23782 0.19888 0.0
C637 C 0.22068 0.24695 0.19495 0.0
H638 H 0.20251 0.25235 0.1825 0.0
H639 H 0.26435 0.21839 0.17948 0.0
C640 C 0.23353 0.17675 0.14091 0.0
N641 N 0.23933 0.18307 0.14946 0.0
C642 C 0.24272 0.1574 0.13708 0.0
C643 C 0.26317 0.15102 0.15104 0.0
C644 C 0.25353 0.17049 0.1546 0.0
C645 C 0.25821 0.14458 0.14208 0.0
H646 H 0.22252 0.18718 0.13691 0.0
H647 H 0.25817 0.17615 0.16133 0.0
C648 C 0.22428 0.28058 0.16673 0.0
N649 N 0.24052 0.31788 0.1758 0.0
C650 C 0.21047 0.29925 0.16811 0.0
C651 C 0.24638 0.28088 0.16994 0.0
C652 C 0.21898 0.31795 0.17272 0.0
C653 C 0.25427 0.29989 0.17451 0.0
C654 C 0.20669 0.23398 0.13739 0.0
C655 C 0.20987 0.24982 0.13049 0.0
C656 C 0.18899 0.21862 0.13672 0.0
C657 C 0.19494 0.25041 0.12317 0.0
C658 C 0.17438 0.21978 0.12931 0.0
N659 N 0.17762 0.23554 0.12275 0.0
C660 C 0.27758 0.27854 0.14973 0.0
C661 C 0.24339 0.29118 0.14328 0.0
C662 C 0.28909 0.29666 0.14592 0.0
N663 N 0.25524 0.27589 0.14818 0.0
C664 C 0.25422 0.3095 0.1393 0.0
C665 C 0.27744 0.3123 0.14054 0.0
H666 H 0.28649 0.26683 0.15401 0.0
H667 H 0.22545 0.28912 0.14247 0.0
C668 C 0.15438 0.23065 0.15595 0.0
N669 N 0.1707 0.24457 0.15282 0.0
C670 C 0.13202 0.23456 0.15367 0.0
C671 C 0.14372 0.26725 0.14509 0.0
C672 C 0.16586 0.26279 0.1476 0.0
C673 C 0.12647 0.25292 0.14808 0.0
H674 H 0.15878 0.21643 0.16016 0.0
H675 H 0.1793 0.27354 0.14524 0.0
O676 O 0.25551 0.22776 0.16018 0.0
O677 O 0.20595 0.21177 0.16346 0.0
O678 O 0.21613 0.26224 0.16218 0.0
O679 O 0.221 0.23335 0.14467 0.0
H680 H 0.26196 0.22567 0.14227 0.0
H681 H 0.29393 0.21852 0.16836 0.0
H682 H 0.29787 0.21562 0.13489 0.0
H683 H 0.32937 0.20863 0.16048 0.0
H684 H 0.1796 0.14162 0.15724 0.0
H685 H 0.22771 0.18976 0.1764 0.0
H686 H 0.18094 0.18262 0.15429 0.0
H687 H 0.22539 0.14866 0.17902 0.0
H688 H 0.27139 0.22037 0.19596 0.0
H689 H 0.20793 0.25491 0.1991 0.0
H690 H 0.23836 0.15293 0.13017 0.0
H691 H 0.27532 0.14185 0.15507 0.0
H692 H 0.19334 0.29929 0.16564 0.0
H693 H 0.25736 0.26662 0.16891 0.0
H694 H 0.20848 0.33253 0.17384 0.0
H695 H 0.27132 0.30035 0.17703 0.0
H696 H 0.22385 0.26138 0.13072 0.0
H697 H 0.18639 0.20612 0.14193 0.0
H698 H 0.19718 0.26266 0.11781 0.0
H699 H 0.16047 0.20815 0.12878 0.0
H700 H 0.30686 0.29853 0.14728 0.0
H701 H 0.24456 0.32114 0.13522 0.0
H702 H 0.11922 0.22339 0.15629 0.0
H703 H 0.14023 0.28147 0.14072 0.0
Li704 Li 0.78611 0.25639 0.16873 0.0
Li705 Li 0.7797 0.27541 0.15426 0.0
Li706 Li 0.78026 0.23342 0.15499 0.0
Li707 Li 0.81457 0.25577 0.15609 0.0
C708 C 0.73983 0.24885 0.16512 0.0
N709 N 0.70054 0.23644 0.17375 0.0
C710 C 0.72252 0.26446 0.16626 0.0
C711 C 0.73702 0.22684 0.16824 0.0
C712 C 0.70283 0.2579 0.17068 0.0
C713 C 0.71707 0.22091 0.17261 0.0
C714 C 0.80342 0.30465 0.16366 0.0
C715 C 0.81149 0.3405 0.15672 0.0
N716 N 0.8022 0.3511 0.16399 0.0
C717 C 0.79413 0.31589 0.17109 0.0
C718 C 0.81235 0.31703 0.15644 0.0
C719 C 0.79362 0.33939 0.17112 0.0
C720 C 0.79635 0.24789 0.18712 0.0
N721 N 0.78143 0.25799 0.18145 0.0
C722 C 0.75929 0.27025 0.19404 0.0
C723 C 0.76333 0.26933 0.18471 0.0
C724 C 0.7741 0.2595 0.20006 0.0
C725 C 0.79293 0.24833 0.1965 0.0
H726 H 0.81082 0.23933 0.18434 0.0
H727 H 0.75215 0.27784 0.18008 0.0
C728 C 0.7664 0.30234 0.13955 0.0
N729 N 0.76523 0.30023 0.14873 0.0
C730 C 0.75565 0.32015 0.1352 0.0
C731 C 0.74271 0.33334 0.14983 0.0
C732 C 0.75361 0.31516 0.1539 0.0
C733 C 0.74356 0.33588 0.14036 0.0
H734 H 0.77548 0.29005 0.1356 0.0
H735 H 0.75266 0.31284 0.16117 0.0
C736 C 0.8084 0.20953 0.16732 0.0
N737 N 0.81608 0.1665 0.17373 0.0
C738 C 0.8265 0.19697 0.16403 0.0
C739 C 0.79439 0.20028 0.17396 0.0
C740 C 0.83005 0.17523 0.16733 0.0
C741 C 0.79849 0.17849 0.17709 0.0
C742 C 0.80633 0.25041 0.13821 0.0
C743 C 0.8075 0.22914 0.13419 0.0
C744 C 0.81857 0.26825 0.1345 0.0
C745 C 0.82115 0.22601 0.12657 0.0
C746 C 0.83205 0.26442 0.12689 0.0
N747 N 0.83306 0.24356 0.12312 0.0
C748 C 0.74789 0.21294 0.14479 0.0
C749 C 0.77268 0.18606 0.15117 0.0
C750 C 0.73556 0.19602 0.14055 0.0
N751 N 0.76597 0.20773 0.14999 0.0
C752 C 0.76073 0.16853 0.14709 0.0
C753 C 0.74184 0.17342 0.14172 0.0
H754 H 0.74313 0.23036 0.1439 0.0
H755 H 0.78724 0.18225 0.15522 0.0
C756 C 0.8578 0.27439 0.1563 0.0
N757 N 0.84557 0.25668 0.15322 0.0
C758 C 0.88036 0.27654 0.15392 0.0
C759 C 0.87738 0.24201 0.14533 0.0
C760 C 0.85494 0.24043 0.14795 0.0
C761 C 0.89038 0.26032 0.14829 0.0
H762 H 0.85003 0.2869 0.1606 0.0
H763 H 0.84491 0.22641 0.14565 0.0
O764 O 0.75922 0.25506 0.16081 0.0
O765 O 0.80378 0.28165 0.16344 0.0
O766 O 0.80477 0.23089 0.16418 0.0
O767 O 0.79313 0.25378 0.14569 0.0
H768 H 0.72433 0.28152 0.16381 0.0
H769 H 0.74997 0.2144 0.16723 0.0
H770 H 0.68936 0.26986 0.17166 0.0
H771 H 0.7147 0.20394 0.17508 0.0
H772 H 0.81819 0.35028 0.15115 0.0
H773 H 0.78728 0.30659 0.17676 0.0
H774 H 0.8197 0.30859 0.15065 0.0
H775 H 0.78637 0.34831 0.17682 0.0
H776 H 0.74486 0.2795 0.1965 0.0
H777 H 0.80471 0.2397 0.20088 0.0
H778 H 0.75676 0.32159 0.12788 0.0
H779 H 0.73326 0.34492 0.15403 0.0
H780 H 0.83766 0.20388 0.15897 0.0
H781 H 0.78057 0.20985 0.17673 0.0
H782 H 0.84393 0.16529 0.16481 0.0
H783 H 0.78774 0.17113 0.18221 0.0
H784 H 0.79813 0.21515 0.13695 0.0
H785 H 0.81782 0.28483 0.1375 0.0
H786 H 0.8223 0.20962 0.12342 0.0
H787 H 0.84173 0.27804 0.12399 0.0
H788 H 0.72142 0.20064 0.13632 0.0
H789 H 0.76608 0.15135 0.14822 0.0
H790 H 0.88987 0.29064 0.15655 0.0
H791 H 0.88433 0.22919 0.14093 0.0
Li792 Li 0.72278 0.74486 0.67129 0.0
Li793 Li 0.73568 0.72521 0.65776 0.0
Li794 Li 0.73042 0.76731 0.65814 0.0
Li795 Li 0.69801 0.7423 0.6577 0.0
C796 C 0.76689 0.74786 0.67197 0.0
N797 N 0.79585 0.74656 0.68662 0.0
C798 C 0.77861 0.72812 0.674 0.0
C799 C 0.77012 0.76702 0.67731 0.0
C800 C 0.79314 0.72779 0.68145 0.0
C801 C 0.78475 0.76599 0.68472 0.0
C802 C 0.70202 0.69596 0.6647 0.0
C803 C 0.68603 0.66631 0.65557 0.0
N804 N 0.68657 0.65233 0.66287 0.0
C805 C 0.70218 0.68136 0.67215 0.0
C806 C 0.6937 0.68842 0.65637 0.0
C807 C 0.6944 0.65935 0.67108 0.0
C808 C 0.71845 0.76149 0.68931 0.0
N809 N 0.7246 0.74362 0.68412 0.0
C810 C 0.73761 0.72375 0.69719 0.0
C811 C 0.73375 0.72485 0.68786 0.0
C812 C 0.73199 0.74217 0.7027 0.0
C813 C 0.72206 0.76115 0.69868 0.0
H814 H 0.71112 0.77615 0.68616 0.0
H815 H 0.73875 0.71103 0.68354 0.0
C816 C 0.76649 0.70621 0.64579 0.0
N817 N 0.75384 0.70169 0.65324 0.0
C818 C 0.78043 0.6897 0.64214 0.0
C819 C 0.76832 0.66429 0.65399 0.0
C820 C 0.75466 0.68133 0.65743 0.0
C821 C 0.78144 0.66842 0.64625 0.0
H822 H 0.76567 0.72267 0.64268 0.0
H823 H 0.74502 0.6784 0.66352 0.0
C824 C 0.69728 0.79051 0.66602 0.0
N825 N 0.68583 0.83555 0.66591 0.0
C826 C 0.678 0.7977 0.66146 0.0
C827 C 0.71061 0.80619 0.67061 0.0
C828 C 0.67252 0.82056 0.66146 0.0
C829 C 0.70458 0.82889 0.67045 0.0
C830 C 0.7173 0.74228 0.63955 0.0
C831 C 0.71395 0.76079 0.63385 0.0
C832 C 0.71644 0.72058 0.6359 0.0
C833 C 0.70916 0.75727 0.62467 0.0
C834 C 0.71164 0.71775 0.62668 0.0
N835 N 0.70809 0.736 0.62131 0.0
C836 C 0.76459 0.7987 0.65516 0.0
C837 C 0.72932 0.80987 0.64922 0.0
C838 C 0.77456 0.81832 0.65192 0.0
N839 N 0.74238 0.79486 0.65377 0.0
C840 C 0.73858 0.82977 0.64588 0.0
C841 C 0.76153 0.83415 0.64718 0.0
H842 H 0.77467 0.78632 0.65866 0.0
H843 H 0.71173 0.80632 0.64813 0.0
C844 C 0.65385 0.7265 0.65872 0.0
N845 N 0.66815 0.73878 0.65352 0.0
C846 C 0.63179 0.723 0.65591 0.0
C847 C 0.63931 0.74552 0.64257 0.0
C848 C 0.66129 0.74847 0.64563 0.0
C849 C 0.62431 0.73255 0.64773 0.0
H850 H 0.6596 0.71945 0.66508 0.0
H851 H 0.67273 0.75876 0.64177 0.0
O852 O 0.75216 0.74834 0.66484 0.0
O853 O 0.70972 0.71754 0.66565 0.0
O854 O 0.70294 0.76821 0.66606 0.0
O855 O 0.72225 0.74549 0.64855 0.0
H856 H 0.77633 0.71316 0.66992 0.0
H857 H 0.76124 0.78244 0.67582 0.0
H858 H 0.8022 0.71259 0.68314 0.0
H859 H 0.78726 0.78063 0.68896 0.0
H860 H 0.67955 0.6603 0.64914 0.0
H861 H 0.70828 0.68694 0.67869 0.0
H862 H 0.69279 0.69963 0.65062 0.0
H863 H 0.69454 0.64786 0.67677 0.0
H864 H 0.74557 0.70893 0.7 0.0
H865 H 0.71724 0.77558 0.70271 0.0
H866 H 0.79018 0.6935 0.63612 0.0
H867 H 0.76896 0.64823 0.65745 0.0
H868 H 0.66738 0.7858 0.65794 0.0
H869 H 0.7256 0.80093 0.67417 0.0
H870 H 0.65769 0.82637 0.65793 0.0
H871 H 0.71485 0.84122 0.67391 0.0
H872 H 0.71481 0.7777 0.63649 0.0
H873 H 0.71973 0.70603 0.64008 0.0
H874 H 0.70633 0.77147 0.62022 0.0
H875 H 0.71087 0.70104 0.62379 0.0
H876 H 0.79241 0.82077 0.65291 0.0
H877 H 0.7279 0.84158 0.64231 0.0
H878 H 0.62058 0.71335 0.66019 0.0
H879 H 0.63413 0.75327 0.63625 0.0
Li880 Li 0.70221 0.25092 0.34161 0.0
Li881 Li 0.73759 0.23006 0.3413 0.0
Li882 Li 0.73652 0.27256 0.3424 0.0
Li883 Li 0.72778 0.25371 0.32808 0.0
C884 C 0.71523 0.24701 0.35928 0.0
N885 N 0.69348 0.24168 0.37572 0.0
C886 C 0.71422 0.22585 0.36339 0.0
C887 C 0.70553 0.26553 0.36361 0.0
C888 C 0.70306 0.22348 0.37168 0.0
C889 C 0.6945 0.26248 0.37189 0.0
C890 C 0.70903 0.20625 0.32915 0.0
C891 C 0.72277 0.17639 0.31955 0.0
N892 N 0.70419 0.16403 0.32155 0.0
C893 C 0.69 0.19332 0.33105 0.0
C894 C 0.72549 0.19778 0.32332 0.0
C895 C 0.68789 0.17199 0.32716 0.0
C896 C 0.65711 0.26486 0.34349 0.0
N897 N 0.67222 0.24859 0.34562 0.0
C898 C 0.64423 0.22762 0.35355 0.0
C899 C 0.66622 0.23013 0.35048 0.0
C900 C 0.62814 0.24406 0.35141 0.0
C901 C 0.63485 0.26292 0.34632 0.0
H902 H 0.66224 0.27912 0.33945 0.0
H903 H 0.67848 0.2172 0.35188 0.0
C904 C 0.7737 0.20612 0.34856 0.0
N905 N 0.75233 0.20381 0.34546 0.0
C906 C 0.78499 0.1877 0.35225 0.0
C907 C 0.75217 0.16481 0.34935 0.0
C908 C 0.7414 0.18375 0.34586 0.0
C909 C 0.77415 0.16676 0.35267 0.0
H910 H 0.78182 0.22238 0.34828 0.0
H911 H 0.72414 0.1825 0.34371 0.0
C912 C 0.7063 0.30036 0.33409 0.0
N913 N 0.69879 0.34622 0.33385 0.0
C914 C 0.71042 0.31275 0.32619 0.0
C915 C 0.69805 0.31123 0.34181 0.0
C916 C 0.70659 0.33594 0.32622 0.0
C917 C 0.69446 0.33444 0.34157 0.0
C918 C 0.7753 0.25192 0.32987 0.0
C919 C 0.78748 0.2715 0.32803 0.0
C920 C 0.783 0.23128 0.32657 0.0
C921 C 0.80682 0.27018 0.32269 0.0
C922 C 0.80243 0.23065 0.32126 0.0
N923 N 0.81382 0.24995 0.31943 0.0
C924 C 0.75755 0.29611 0.35649 0.0
C925 C 0.75569 0.31632 0.34262 0.0
C926 C 0.76923 0.31372 0.3606 0.0
N927 N 0.75107 0.29772 0.34766 0.0
C928 C 0.76695 0.3345 0.3465 0.0
C929 C 0.77401 0.33318 0.35557 0.0
H930 H 0.75398 0.28097 0.36029 0.0
H931 H 0.75106 0.31687 0.33553 0.0
C932 C 0.71708 0.24313 0.30976 0.0
N933 N 0.72997 0.25627 0.31523 0.0
C934 C 0.71958 0.24412 0.30034 0.0
C935 C 0.74772 0.27299 0.30235 0.0
C936 C 0.7447 0.27139 0.31171 0.0
C937 C 0.7353 0.259 0.29652 0.0
H938 H 0.70499 0.23171 0.31269 0.0
H939 H 0.75404 0.28232 0.31619 0.0
O940 O 0.72599 0.24962 0.35114 0.0
O941 O 0.71144 0.22706 0.33299 0.0
O942 O 0.71011 0.27767 0.3342 0.0
O943 O 0.75637 0.25291 0.33512 0.0
H944 H 0.72179 0.21136 0.36018 0.0
H945 H 0.70655 0.2821 0.36062 0.0
H946 H 0.70199 0.20716 0.3749 0.0
H947 H 0.68681 0.27665 0.37529 0.0
H948 H 0.73539 0.16964 0.31503 0.0
H949 H 0.67702 0.19966 0.33551 0.0
H950 H 0.74008 0.20773 0.32163 0.0
H951 H 0.67329 0.16176 0.3286 0.0
H952 H 0.6399 0.21288 0.3575 0.0
H953 H 0.62294 0.27574 0.34432 0.0
H954 H 0.80198 0.18976 0.35475 0.0
H955 H 0.7432 0.14899 0.34972 0.0
H956 H 0.71656 0.30458 0.32012 0.0
H957 H 0.69449 0.30185 0.34792 0.0
H958 H 0.70983 0.34576 0.32018 0.0
H959 H 0.6882 0.34309 0.34752 0.0
H960 H 0.78193 0.28758 0.33063 0.0
H961 H 0.77424 0.21586 0.32817 0.0
H962 H 0.81627 0.28524 0.32114 0.0
H963 H 0.80852 0.21479 0.31864 0.0
H964 H 0.77455 0.31215 0.3676 0.0
H965 H 0.77077 0.34911 0.34239 0.0
H966 H 0.70965 0.23301 0.29611 0.0
H967 H 0.75958 0.28514 0.29969 0.0
Li968 Li 0.78144 0.75646 0.84285 0.0
Li969 Li 0.81626 0.7378 0.84231 0.0
Li970 Li 0.79086 0.73604 0.82944 0.0
Li971 Li 0.78233 0.71643 0.84379 0.0
C972 C 0.81779 0.78199 0.83658 0.0
N973 N 0.84139 0.82041 0.84111 0.0
C974 C 0.81903 0.789 0.84564 0.0
C975 C 0.82853 0.79453 0.82984 0.0
C976 C 0.83105 0.80847 0.84779 0.0
C977 C 0.84039 0.81391 0.83226 0.0
C978 C 0.80341 0.72644 0.85977 0.0
C979 C 0.82428 0.69503 0.8658 0.0
N980 N 0.82056 0.70276 0.87436 0.0
C981 C 0.79978 0.73406 0.86863 0.0
C982 C 0.81575 0.70675 0.85833 0.0
C983 C 0.80859 0.72186 0.87591 0.0
C984 C 0.75424 0.77888 0.85522 0.0
N985 N 0.76541 0.78168 0.84726 0.0
C986 C 0.75125 0.81904 0.84573 0.0
C987 C 0.76429 0.80125 0.84251 0.0
C988 C 0.73922 0.8165 0.85387 0.0
C989 C 0.74096 0.79617 0.85867 0.0
H990 H 0.7554 0.76304 0.8588 0.0
H991 H 0.77315 0.80285 0.83613 0.0
C992 C 0.8622 0.73066 0.83977 0.0
N993 N 0.84686 0.73929 0.84563 0.0
C994 C 0.88502 0.73153 0.84187 0.0
C995 C 0.87573 0.75019 0.85598 0.0
C996 C 0.85311 0.74894 0.85361 0.0
C997 C 0.89201 0.74144 0.85006 0.0
H998 H 0.85667 0.72327 0.83344 0.0
H999 H 0.84056 0.75574 0.85814 0.0
C1000 C 0.74342 0.74735 0.83467 0.0
N1001 N 0.70596 0.77406 0.83216 0.0
C1002 C 0.72434 0.74415 0.84004 0.0
C1003 C 0.7434 0.76405 0.82799 0.0
C1004 C 0.70558 0.75786 0.83868 0.0
C1005 C 0.7243 0.77738 0.82682 0.0
C1006 C 0.80504 0.69165 0.83014 0.0
C1007 C 0.78358 0.68515 0.82732 0.0
C1008 C 0.82363 0.67874 0.82763 0.0
C1009 C 0.78109 0.6658 0.82203 0.0
C1010 C 0.82044 0.65949 0.82234 0.0
N1011 N 0.79942 0.65348 0.81967 0.0
C1012 C 0.80535 0.74262 0.8114 0.0
C1013 C 0.76911 0.72655 0.81296 0.0
C1014 C 0.80334 0.74243 0.80194 0.0
N1015 N 0.78831 0.73483 0.81666 0.0
C1016 C 0.76643 0.72591 0.80357 0.0
C1017 C 0.78364 0.73401 0.79793 0.0
H1018 H 0.82042 0.74912 0.81456 0.0
H1019 H 0.75573 0.72067 0.81732 0.0
C1020 C 0.75202 0.6979 0.85559 0.0
N1021 N 0.76837 0.69173 0.84968 0.0
C1022 C 0.74018 0.68168 0.86045 0.0
C1023 C 0.76265 0.65293 0.85323 0.0
C1024 C 0.7743 0.66979 0.8486 0.0
C1025 C 0.74514 0.65878 0.85918 0.0
H1026 H 0.74834 0.71553 0.85659 0.0
H1027 H 0.78802 0.66529 0.84417 0.0
O1028 O 0.80627 0.7629 0.83427 0.0
O1029 O 0.7947 0.73826 0.85261 0.0
O1030 O 0.7622 0.73458 0.83608 0.0
O1031 O 0.80806 0.71075 0.83518 0.0
H1032 H 0.81084 0.77956 0.85096 0.0
H1033 H 0.82773 0.78932 0.8228 0.0
H1034 H 0.83216 0.81407 0.85476 0.0
H1035 H 0.84879 0.82377 0.82711 0.0
H1036 H 0.83385 0.67977 0.86478 0.0
H1037 H 0.79023 0.74925 0.86985 0.0
H1038 H 0.81876 0.70052 0.85155 0.0
H1039 H 0.80592 0.72757 0.8828 0.0
H1040 H 0.75012 0.83437 0.84178 0.0
H1041 H 0.73214 0.79364 0.86502 0.0
H1042 H 0.89706 0.72491 0.83705 0.0
H1043 H 0.88041 0.75779 0.86239 0.0
H1044 H 0.72401 0.7313 0.84523 0.0
H1045 H 0.75814 0.76699 0.82386 0.0
H1046 H 0.69073 0.75564 0.84281 0.0
H1047 H 0.72413 0.79047 0.82172 0.0
H1048 H 0.76896 0.69476 0.82926 0.0
H1049 H 0.84037 0.68357 0.82974 0.0
H1050 H 0.76457 0.66056 0.81981 0.0
H1051 H 0.83469 0.64935 0.82034 0.0
H1052 H 0.81705 0.74869 0.79782 0.0
H1053 H 0.75084 0.71962 0.80076 0.0
H1054 H 0.72736 0.68709 0.86518 0.0
H1055 H 0.76712 0.63552 0.85205 0.0
Li1056 Li 0.49873 0.54009 0.07969 0.0
Li1057 Li 0.50083 0.56041 0.09359 0.0
Li1058 Li 0.52176 0.52581 0.09216 0.0
Li1059 Li 0.47954 0.52607 0.09356 0.0
C1060 C 0.54279 0.55744 0.07922 0.0
N1061 N 0.57678 0.56454 0.06679 0.0
C1062 C 0.5494 0.57933 0.07703 0.0
C1063 C 0.55365 0.53918 0.07519 0.0
C1064 C 0.56657 0.58257 0.07069 0.0
C1065 C 0.57075 0.54311 0.06889 0.0
C1066 C 0.46574 0.57237 0.08181 0.0
C1067 C 0.43563 0.59462 0.07555 0.0
N1068 N 0.45093 0.60952 0.07225 0.0
C1069 C 0.48116 0.5879 0.07836 0.0
C1070 C 0.44279 0.57574 0.08039 0.0
C1071 C 0.47335 0.60657 0.07355 0.0
C1072 C 0.48312 0.52323 0.06339 0.0
N1073 N 0.49573 0.54022 0.06686 0.0
C1074 C 0.50448 0.55336 0.05194 0.0
C1075 C 0.50592 0.55551 0.06137 0.0
C1076 C 0.49236 0.53535 0.04816 0.0
C1077 C 0.48131 0.52037 0.05403 0.0
H1078 H 0.47497 0.51149 0.06792 0.0
H1079 H 0.51539 0.56922 0.06428 0.0
C1080 C 0.5232 0.59716 0.10117 0.0
N1081 N 0.50251 0.58911 0.09907 0.0
C1082 C 0.52548 0.61811 0.10531 0.0
C1083 C 0.48507 0.6221 0.10498 0.0
C1084 C 0.48357 0.60089 0.10099 0.0
C1085 C 0.50626 0.63106 0.10717 0.0
H1086 H 0.53793 0.58719 0.09965 0.0
H1087 H 0.46731 0.59389 0.09934 0.0
C1088 C 0.5035 0.48835 0.08191 0.0
N1089 N 0.51284 0.44522 0.07601 0.0
C1090 C 0.49482 0.4698 0.08657 0.0
C1091 C 0.51662 0.48495 0.07416 0.0
C1092 C 0.49983 0.44813 0.08351 0.0
C1093 C 0.52123 0.46302 0.07131 0.0
C1094 C 0.50342 0.54623 0.11047 0.0
C1095 C 0.52414 0.55119 0.11445 0.0
C1096 C 0.48361 0.55351 0.11461 0.0
C1097 C 0.5247 0.56365 0.12249 0.0
C1098 C 0.48488 0.56593 0.12265 0.0
N1099 N 0.50523 0.57072 0.12639 0.0
C1100 C 0.56783 0.52136 0.0962 0.0
C1101 C 0.54639 0.48804 0.09795 0.0
C1102 C 0.58727 0.5102 0.09898 0.0
N1103 N 0.54801 0.51009 0.09564 0.0
C1104 C 0.56539 0.4762 0.10071 0.0
C1105 C 0.58616 0.48729 0.10125 0.0
H1106 H 0.56851 0.53907 0.09455 0.0
H1107 H 0.53029 0.47974 0.0978 0.0
C1108 C 0.4348 0.51039 0.09396 0.0
N1109 N 0.4551 0.50977 0.09816 0.0
C1110 C 0.41722 0.49694 0.09711 0.0
C1111 C 0.44187 0.48279 0.10887 0.0
C1112 C 0.45885 0.49665 0.10555 0.0
C1113 C 0.42083 0.48265 0.10456 0.0
H1114 H 0.43245 0.52097 0.08805 0.0
H1115 H 0.47525 0.49657 0.10872 0.0
O1116 O 0.52586 0.55405 0.08535 0.0
O1117 O 0.47292 0.55391 0.08654 0.0
O1118 O 0.49859 0.50969 0.08479 0.0
O1119 O 0.50254 0.53463 0.10247 0.0
H1120 H 0.54126 0.59366 0.08014 0.0
H1121 H 0.5491 0.52217 0.07697 0.0
H1122 H 0.57177 0.59942 0.06889 0.0
H1123 H 0.57927 0.52911 0.06571 0.0
H1124 H 0.41791 0.59744 0.0744 0.0
H1125 H 0.49896 0.58566 0.07941 0.0
H1126 H 0.43062 0.56387 0.08302 0.0
H1127 H 0.48511 0.61872 0.07085 0.0
H1128 H 0.5129 0.56554 0.04767 0.0
H1129 H 0.47199 0.50609 0.05144 0.0
H1130 H 0.54213 0.62409 0.10701 0.0
H1131 H 0.46979 0.63155 0.10613 0.0
H1132 H 0.48448 0.47209 0.09253 0.0
H1133 H 0.52296 0.49904 0.0703 0.0
H1134 H 0.49336 0.43363 0.08709 0.0
H1135 H 0.53139 0.46016 0.06533 0.0
H1136 H 0.53961 0.5457 0.11129 0.0
H1137 H 0.46745 0.54983 0.11158 0.0
H1138 H 0.54062 0.56776 0.12562 0.0
H1139 H 0.4697 0.57183 0.12591 0.0
H1140 H 0.60297 0.51935 0.09933 0.0
H1141 H 0.56372 0.45869 0.10263 0.0
H1142 H 0.40126 0.49713 0.09358 0.0
H1143 H 0.44519 0.47214 0.11468 0.0
Li1144 Li 0.9943 0.48087 0.58864 0.0
Li1145 Li 0.03505 0.47853 0.58789 0.0
Li1146 Li 0.01185 0.46964 0.57475 0.0
Li1147 Li 0.01336 0.44487 0.58783 0.0
C1148 C 0.01766 0.51297 0.57397 0.0
N1149 N 0.02397 0.53953 0.55878 0.0
C1150 C 0.03932 0.51925 0.57134 0.0
C1151 C -0.0008 0.52025 0.56889 0.0
C1152 C 0.04216 0.5327 0.56364 0.0
C1153 C 0.00275 0.53363 0.56122 0.0
C1154 C 0.02557 0.47511 0.60511 0.0
C1155 C 0.05599 0.47322 0.61591 0.0
N1156 N 0.04862 0.49262 0.61979 0.0
C1157 C 0.01827 0.495 0.60922 0.0
C1158 C 0.04453 0.46407 0.60849 0.0
C1159 C 0.03015 0.50358 0.61664 0.0
C1160 C 0.95882 0.48621 0.601 0.0
N1161 N 0.97026 0.49646 0.59417 0.0
C1162 C 0.94845 0.52982 0.59588 0.0
C1163 C 0.96548 0.51782 0.59156 0.0
C1164 C 0.9364 0.51973 0.603 0.0
C1165 C 0.94161 0.49755 0.6055 0.0
H1166 H 0.96334 0.46933 0.60304 0.0
H1167 H 0.97512 0.52568 0.58622 0.0
C1168 C 0.08178 0.48266 0.59212 0.0
N1169 N 0.06147 0.49307 0.59194 0.0
C1170 C 0.10052 0.49389 0.5956 0.0
C1171 C 0.07705 0.52637 0.59839 0.0
C1172 C 0.05882 0.51452 0.59491 0.0
C1173 C 0.09822 0.51603 0.5988 0.0
H1174 H 0.0834 0.46564 0.58965 0.0
H1175 H 0.04241 0.52229 0.59468 0.0
C1176 C 0.96411 0.45316 0.5824 0.0
N1177 N 0.91867 0.4513 0.58614 0.0
C1178 C 0.95564 0.43653 0.58817 0.0
C1179 C 0.94944 0.46881 0.57851 0.0
C1180 C 0.93261 0.43586 0.58997 0.0
C1181 C 0.92654 0.46761 0.58051 0.0
C1182 C 0.04758 0.43262 0.57786 0.0
C1183 C 0.04317 0.42142 0.5697 0.0
C1184 C 0.06074 0.42219 0.5845 0.0
C1185 C 0.05193 0.39988 0.56835 0.0
C1186 C 0.06914 0.40062 0.58289 0.0
N1187 N 0.0646 0.39 0.57492 0.0
C1188 C 0.03013 0.47462 0.55732 0.0
C1189 C 0.99046 0.47116 0.55754 0.0
C1190 C 0.0299 0.47816 0.54796 0.0
N1191 N 0.01057 0.47152 0.5619 0.0
C1192 C 0.98942 0.47483 0.5482 0.0
C1193 C 0.00932 0.4786 0.54332 0.0
H1194 H 0.04586 0.47488 0.561 0.0
H1195 H 0.9752 0.4685 0.56135 0.0
C1196 C 0.01637 0.40837 0.60021 0.0
N1197 N 0.01191 0.41451 0.59151 0.0
C1198 C 0.01527 0.38577 0.60274 0.0
C1199 C 0.00476 0.37647 0.58731 0.0
C1200 C 0.00596 0.39919 0.58511 0.0
C1201 C 0.00941 0.3695 0.59624 0.0
H1202 H 0.02065 0.421 0.60519 0.0
H1203 H 0.00223 0.40468 0.57827 0.0
O1204 O 0.01457 0.49926 0.58133 0.0
O1205 O 0.01453 0.46676 0.59768 0.0
O1206 O 0.98666 0.45432 0.58066 0.0
O1207 O 0.03879 0.45354 0.57939 0.0
H1208 H 0.05383 0.51354 0.57511 0.0
H1209 H 0.98234 0.51524 0.57073 0.0
H1210 H 0.05883 0.5376 0.5615 0.0
H1211 H 0.98864 0.53921 0.55718 0.0
H1212 H 0.07079 0.46496 0.61855 0.0
H1213 H 0.00377 0.50391 0.60665 0.0
H1214 H 0.0506 0.44882 0.60533 0.0
H1215 H 0.02475 0.51901 0.61986 0.0
H1216 H 0.94484 0.54684 0.59371 0.0
H1217 H 0.93295 0.48931 0.61105 0.0
H1218 H 0.11662 0.48543 0.59573 0.0
H1219 H 0.07448 0.54329 0.60091 0.0
H1220 H 0.9667 0.42438 0.5913 0.0
H1221 H 0.95572 0.48206 0.57417 0.0
H1222 H 0.92585 0.42313 0.59445 0.0
H1223 H 0.91504 0.47973 0.57761 0.0
H1224 H 0.03287 0.42913 0.56452 0.0
H1225 H 0.06406 0.43047 0.5909 0.0
H1226 H 0.04857 0.39097 0.56209 0.0
H1227 H 0.07918 0.39227 0.58801 0.0
H1228 H 0.04558 0.4812 0.54444 0.0
H1229 H 0.97326 0.47479 0.54482 0.0
H1230 H 0.0187 0.38112 0.60972 0.0
H1231 H 0.00053 0.36448 0.58205 0.0
Li1232 Li 0.48316 0.47231 0.90913 0.0
Li1233 Li 0.52402 0.47209 0.91036 0.0
Li1234 Li 0.50266 0.43731 0.90936 0.0
Li1235 Li 0.50181 0.46026 0.92306 0.0
C1236 C 0.49738 0.47059 0.89244 0.0
N1237 N 0.47968 0.49143 0.87727 0.0
C1238 C 0.50696 0.49046 0.88917 0.0
C1239 C 0.47887 0.46126 0.88798 0.0
C1240 C 0.49777 0.50074 0.88149 0.0
C1241 C 0.47013 0.47208 0.88033 0.0
C1242 C 0.49903 0.50424 0.92445 0.0
C1243 C 0.51215 0.52191 0.93822 0.0
N1244 N 0.49128 0.53053 0.93962 0.0
C1245 C 0.47772 0.5133 0.92601 0.0
C1246 C 0.51642 0.50864 0.93058 0.0
C1247 C 0.47415 0.52656 0.93372 0.0
C1248 C 0.43794 0.47879 0.90361 0.0
N1249 N 0.4585 0.48853 0.90436 0.0
C1250 C 0.44468 0.52287 0.89813 0.0
C1251 C 0.46217 0.51012 0.90174 0.0
C1252 C 0.42326 0.51324 0.89721 0.0
C1253 C 0.41998 0.49089 0.89998 0.0
H1254 H 0.43547 0.46168 0.90585 0.0
H1255 H 0.47873 0.51739 0.90245 0.0
C1256 C 0.56432 0.47726 0.9004 0.0
N1257 N 0.55046 0.4871 0.90657 0.0
C1258 C 0.5834 0.4886 0.89733 0.0
C1259 C 0.57331 0.52003 0.90693 0.0
C1260 C 0.55454 0.50806 0.90984 0.0
C1261 C 0.58791 0.51037 0.90054 0.0
H1262 H 0.56036 0.46073 0.89778 0.0
H1263 H 0.54302 0.51566 0.91459 0.0
C1264 C 0.46478 0.42645 0.91769 0.0
N1265 N 0.44344 0.38539 0.91941 0.0
C1266 C 0.46533 0.41491 0.92596 0.0
C1267 C 0.45325 0.41717 0.91031 0.0
C1268 C 0.45444 0.39417 0.92669 0.0
C1269 C 0.44263 0.39636 0.91131 0.0
C1270 C 0.55029 0.44126 0.91731 0.0
C1271 C 0.55921 0.4249 0.91153 0.0
C1272 C 0.56474 0.45496 0.92235 0.0
C1273 C 0.5825 0.42261 0.91085 0.0
C1274 C 0.58793 0.45218 0.92147 0.0
N1275 N 0.59625 0.43619 0.91578 0.0
C1276 C 0.50149 0.40335 0.89588 0.0
C1277 C 0.50375 0.39056 0.91113 0.0
C1278 C 0.50021 0.38125 0.89272 0.0
N1279 N 0.50282 0.4075 0.90495 0.0
C1280 C 0.50212 0.36829 0.90828 0.0
C1281 C 0.5001 0.3635 0.89899 0.0
H1282 H 0.50117 0.41718 0.89113 0.0
H1283 H 0.50529 0.39443 0.91827 0.0
C1284 C 0.48012 0.46756 0.93971 0.0
N1285 N 0.49971 0.46064 0.93589 0.0
C1286 C 0.47889 0.47143 0.94903 0.0
C1287 C 0.51758 0.45952 0.95039 0.0
C1288 C 0.51809 0.45603 0.94102 0.0
C1289 C 0.49795 0.46789 0.95448 0.0
H1290 H 0.46577 0.47103 0.93543 0.0
H1291 H 0.53335 0.45029 0.93781 0.0
O1292 O 0.50577 0.46058 0.90009 0.0
O1293 O 0.50274 0.49077 0.91706 0.0
O1294 O 0.47562 0.44662 0.91681 0.0
O1295 O 0.52754 0.444 0.91797 0.0
H1296 H 0.52119 0.49801 0.89257 0.0
H1297 H 0.4711 0.44601 0.89048 0.0
H1298 H 0.50495 0.51618 0.8789 0.0
H1299 H 0.45571 0.46514 0.87685 0.0
H1300 H 0.5254 0.52526 0.94307 0.0
H1301 H 0.46399 0.5099 0.92141 0.0
H1302 H 0.53294 0.50152 0.92955 0.0
H1303 H 0.45772 0.53359 0.93503 0.0
H1304 H 0.44794 0.53999 0.89599 0.0
H1305 H 0.40364 0.48298 0.89947 0.0
H1306 H 0.59408 0.48072 0.8923 0.0
H1307 H 0.57628 0.53674 0.90961 0.0
H1308 H 0.47423 0.42178 0.93174 0.0
H1309 H 0.4529 0.42571 0.90383 0.0
H1310 H 0.45481 0.38501 0.93304 0.0
H1311 H 0.43385 0.38888 0.90563 0.0
H1312 H 0.54831 0.4142 0.90755 0.0
H1313 H 0.55814 0.46788 0.92679 0.0
H1314 H 0.58964 0.41007 0.90637 0.0
H1315 H 0.5993 0.46278 0.92527 0.0
H1316 H 0.49877 0.37808 0.8855 0.0
H1317 H 0.50246 0.35494 0.91329 0.0
H1318 H 0.46348 0.47808 0.95186 0.0
H1319 H 0.53251 0.45612 0.95435 0.0
Li1320 Li 0.01965 0.55917 0.40356 0.0
Li1321 Li 0.01309 0.53317 0.41611 0.0
Li1322 Li 0.03605 0.52268 0.40304 0.0
Li1323 Li 0.99539 0.52663 0.40171 0.0
C1324 C 0.06365 0.54271 0.41419 0.0
N1325 N 0.10791 0.53252 0.41804 0.0
C1326 C 0.06917 0.53146 0.42223 0.0
C1327 C 0.08067 0.54889 0.40814 0.0
C1328 C 0.09165 0.52646 0.42405 0.0
C1329 C 0.10293 0.54353 0.4102 0.0
C1330 C 0.97941 0.56193 0.41679 0.0
C1331 C 0.95265 0.5589 0.42902 0.0
N1332 N 0.95731 0.58044 0.4315 0.0
C1333 C 0.98388 0.58407 0.41943 0.0
C1334 C 0.96359 0.54926 0.42159 0.0
C1335 C 0.97254 0.59312 0.42689 0.0
C1336 C 0.00644 0.60053 0.39605 0.0
N1337 N 0.02346 0.58968 0.40036 0.0
C1338 C 0.04632 0.62258 0.39989 0.0
C1339 C 0.04311 0.60018 0.40234 0.0
C1340 C 0.0291 0.63422 0.39538 0.0
C1341 C 0.00896 0.62292 0.39342 0.0
H1342 H 0.99089 0.59175 0.39467 0.0
H1343 H 0.05624 0.59119 0.40586 0.0
C1344 C 0.00732 0.50897 0.43229 0.0
N1345 N 0.01047 0.52997 0.42889 0.0
C1346 C 0.00651 0.50555 0.44165 0.0
C1347 C 0.01203 0.54549 0.44384 0.0
C1348 C 0.01302 0.5481 0.43443 0.0
C1349 C 0.00895 0.52394 0.44754 0.0
H1350 H 0.00586 0.4948 0.42774 0.0
H1351 H 0.01616 0.56451 0.43153 0.0
C1352 C 0.01866 0.55143 0.386 0.0
N1353 N 0.01757 0.58135 0.37165 0.0
C1354 C -0.0014 0.55527 0.38132 0.0
C1355 C 0.03819 0.5627 0.38335 0.0
C1356 C -0.0016 0.57047 0.37409 0.0
C1357 C 0.03728 0.57781 0.37609 0.0
C1358 C 0.00159 0.48522 0.40775 0.0
C1359 C 0.01066 0.46916 0.40187 0.0
C1360 C 0.98076 0.48128 0.41183 0.0
C1361 C -0.0014 0.44947 0.4001 0.0
C1362 C 0.9692 0.46142 0.40986 0.0
N1363 N 0.97829 0.44606 0.40409 0.0
C1364 C 0.0699 0.49031 0.40532 0.0
C1365 C 0.07027 0.50874 0.39103 0.0
C1366 C 0.08865 0.47759 0.4029 0.0
N1367 N 0.06123 0.50554 0.3994 0.0
C1368 C 0.08905 0.49644 0.38834 0.0
C1369 C 0.09843 0.48058 0.39431 0.0
H1370 H 0.06223 0.4881 0.41192 0.0
H1371 H 0.06283 0.52075 0.38643 0.0
C1372 C 0.94873 0.52233 0.39834 0.0
N1373 N 0.96951 0.51514 0.39588 0.0
C1374 C 0.92967 0.51257 0.39448 0.0
C1375 C 0.95388 0.48862 0.38551 0.0
C1376 C 0.97242 0.49911 0.38943 0.0
C1377 C 0.93208 0.49513 0.38809 0.0
H1378 H 0.94696 0.53543 0.40337 0.0
H1379 H 0.9892 0.49401 0.38753 0.0
O1380 O 0.0417 0.54735 0.4122 0.0
O1381 O 0.99049 0.55269 0.40957 0.0
O1382 O 0.01912 0.53689 0.39321 0.0
O1383 O 0.01294 0.5048 0.40943 0.0
H1384 H 0.05625 0.52646 0.42697 0.0
H1385 H 0.07668 0.55734 0.40184 0.0
H1386 H 0.09615 0.51768 0.43022 0.0
H1387 H 0.11623 0.54803 0.40554 0.0
H1388 H 0.94048 0.54924 0.43283 0.0
H1389 H 0.99611 0.5941 0.41582 0.0
H1390 H 0.95999 0.53208 0.41965 0.0
H1391 H 0.9759 0.61019 0.42904 0.0
H1392 H 0.0621 0.63072 0.4015 0.0
H1393 H 0.99514 0.63144 0.3901 0.0
H1394 H 0.00405 0.48869 0.44425 0.0
H1395 H 0.01429 0.56002 0.44819 0.0
H1396 H 0.9833 0.54679 0.3833 0.0
H1397 H 0.0538 0.56016 0.38697 0.0
H1398 H 0.98297 0.57368 0.37043 0.0
H1399 H 0.05222 0.5868 0.37402 0.0
H1400 H 0.0267 0.47196 0.39862 0.0
H1401 H 0.97347 0.49358 0.41637 0.0
H1402 H 0.00536 0.43694 0.39552 0.0
H1403 H 0.95298 0.45824 0.41291 0.0
H1404 H 0.09546 0.46562 0.40772 0.0
H1405 H 0.09584 0.49895 0.3816 0.0
H1406 H 0.91326 0.5185 0.39654 0.0
H1407 H 0.9567 0.47507 0.38074 0.0
H1408 H 0.02754 0.15418 0.61091 0.0
H1409 H 0.03051 0.19515 0.61214 0.0
H1410 H 0.98146 0.20263 0.59078 0.0
H1411 H 0.97919 0.16195 0.58921 0.0
H1412 H 0.01649 0.22867 0.58778 0.0
H1413 H 0.96862 0.21182 0.61337 0.0
H1414 H 0.95857 0.19325 0.62778 0.0
H1415 H 0.01585 0.22313 0.64077 0.0
H1416 H 0.02641 0.24164 0.62639 0.0
H1417 H 0.97817 0.33878 0.59079 0.0
H1418 H 0.97891 0.29817 0.59315 0.0
H1419 H 0.03836 0.30479 0.60965 0.0
H1420 H 0.03819 0.34556 0.60711 0.0
H1421 H 0.00301 0.27217 0.61604 0.0
H1422 H 0.04919 0.2908 0.59033 0.0
H1423 H 0.05751 0.31023 0.57592 0.0
H1424 H 0.00182 0.27694 0.56316 0.0
H1425 H 0.99292 0.25761 0.57755 0.0
C1426 C 0.01747 0.16458 0.60645 0.0
C1427 C 0.00311 0.15481 0.59996 0.0
C1428 C 0.01901 0.18796 0.60723 0.0
C1429 C 0.00608 0.2019 0.60159 0.0
C1430 C 0.99157 0.19217 0.5952 0.0
C1431 C 0.99012 0.16888 0.59438 0.0
C1432 C 0.00816 0.22667 0.60201 0.0
C1433 C 0.01339 0.23814 0.59396 0.0
C1434 C 0.0048 0.23899 0.61013 0.0
C1435 C -0.00155 0.22789 0.61878 0.0
C1436 C 0.97918 0.21427 0.61928 0.0
C1437 C 0.97337 0.20379 0.62744 0.0
C1438 C 0.98661 0.20695 0.63518 0.0
C1439 C 0.00564 0.22066 0.63477 0.0
C1440 C 0.01154 0.23116 0.62661 0.0
C1441 C 0.99141 0.33165 0.59493 0.0
C1442 C 0.00835 0.34532 0.59863 0.0
C1443 C 0.99167 0.3085 0.59634 0.0
C1444 C 0.00879 0.29862 0.6015 0.0
C1445 C 0.025 0.31224 0.60567 0.0
C1446 C 0.02485 0.33548 0.60421 0.0
C1447 C 0.01068 0.27392 0.60178 0.0
C1448 C 0.00634 0.26256 0.60993 0.0
C1449 C 0.01475 0.2616 0.59374 0.0
C1450 C 0.02028 0.2729 0.58504 0.0
C1451 C 0.03861 0.28775 0.58447 0.0
C1452 C 0.04345 0.29874 0.57631 0.0
C1453 C 0.03017 0.29486 0.56864 0.0
C1454 C 0.01207 0.27994 0.56911 0.0
C1455 C 0.00714 0.26895 0.57727 0.0
H1456 H 0.03394 0.30338 0.56232 0.0
H1457 H 0.98208 0.19882 0.6415 0.0
H1458 H 0.91433 0.77733 0.85736 0.0
H1459 H 0.95465 0.78074 0.8602 0.0
H1460 H 0.96464 0.71306 0.85043 0.0
H1461 H 0.92426 0.70926 0.84783 0.0
H1462 H 0.9906 0.72227 0.86537 0.0
H1463 H 0.97243 0.75707 0.83648 0.0
H1464 H 0.95229 0.78378 0.82659 0.0
H1465 H 0.97826 0.83919 0.84208 0.0
H1466 H -0.00169 0.81276 0.85215 0.0
H1467 H 0.10084 0.71852 0.84818 0.0
H1468 H 0.06056 0.71801 0.85117 0.0
H1469 H 0.06342 0.78733 0.85979 0.0
H1470 H 0.10387 0.78793 0.85684 0.0
H1471 H 0.03079 0.78077 0.84767 0.0
H1472 H 0.05364 0.74604 0.8752 0.0
H1473 H 0.07404 0.71932 0.88498 0.0
H1474 H 0.03987 0.66403 0.87228 0.0
H1475 H 0.01949 0.6904 0.86232 0.0
C1476 C 0.92506 0.76303 0.85598 0.0
C1477 C 0.91619 0.74308 0.8523 0.0
C1478 C 0.94808 0.76506 0.85755 0.0
C1479 C 0.96259 0.74723 0.85542 0.0
C1480 C 0.95369 0.72701 0.85209 0.0
C1481 C 0.93068 0.72496 0.85052 0.0
C1482 C 0.98718 0.75004 0.85609 0.0
C1483 C -0.00054 0.73497 0.86148 0.0
C1484 C -0.00142 0.76706 0.85121 0.0
C1485 C 0.98664 0.78294 0.84513 0.0
C1486 C 0.9737 0.77494 0.83782 0.0
C1487 C 0.96232 0.79003 0.83217 0.0
C1488 C 0.96393 0.81316 0.83372 0.0
C1489 C 0.97698 0.82126 0.84091 0.0
C1490 C 0.98836 0.80624 0.84658 0.0
C1491 C 0.09299 0.73353 0.85088 0.0
C1492 C 0.1055 0.75328 0.85226 0.0
C1493 C 0.06997 0.73321 0.8526 0.0
C1494 C 0.05907 0.75257 0.85579 0.0
C1495 C 0.07156 0.77221 0.85733 0.0
C1496 C 0.0946 0.77255 0.8556 0.0
C1497 C 0.03436 0.75269 0.85681 0.0
C1498 C 0.02201 0.7683 0.85171 0.0
C1499 C 0.02295 0.73618 0.86197 0.0
C1500 C 0.03514 0.72022 0.86796 0.0
C1501 C 0.05059 0.72818 0.87444 0.0
C1502 C 0.06214 0.71309 0.88003 0.0
C1503 C 0.05828 0.68999 0.87924 0.0
C1504 C 0.04284 0.68193 0.87288 0.0
C1505 C 0.03126 0.69695 0.86727 0.0
H1506 H 0.06724 0.67834 0.88358 0.0
H1507 H 0.95512 0.82482 0.82934 0.0
H1508 H 0.47825 0.65279 0.11916 0.0
H1509 H 0.47883 0.69269 0.12322 0.0
H1510 H 0.53976 0.70157 0.10784 0.0
H1511 H 0.53885 0.66218 0.10338 0.0
H1512 H 0.53736 0.72669 0.12504 0.0
H1513 H 0.49465 0.71067 0.09718 0.0
H1514 H 0.46439 0.69118 0.08887 0.0
H1515 H 0.41556 0.71833 0.10732 0.0
H1516 H 0.44564 0.7377 0.11582 0.0
H1517 H 0.54833 0.83287 0.10545 0.0
H1518 H 0.54563 0.79399 0.11042 0.0
H1519 H 0.47651 0.80459 0.11813 0.0
H1520 H 0.47857 0.84309 0.11251 0.0
H1521 H 0.47849 0.76944 0.10859 0.0
H1522 H 0.51966 0.7932 0.1342 0.0
H1523 H 0.54923 0.81249 0.14296 0.0
H1524 H 0.59953 0.7716 0.13018 0.0
H1525 H 0.57032 0.75227 0.12123 0.0
C1526 C 0.49183 0.66319 0.11666 0.0
C1527 C 0.50832 0.65428 0.11082 0.0
C1528 C 0.49227 0.68589 0.11909 0.0
C1529 C 0.50932 0.69996 0.11581 0.0
C1530 C 0.5266 0.69086 0.11051 0.0
C1531 C 0.52603 0.66828 0.10797 0.0
C1532 C 0.50769 0.7246 0.11676 0.0
C1533 C 0.52452 0.73618 0.12149 0.0
C1534 C 0.49044 0.73675 0.11238 0.0
C1535 C 0.47238 0.72537 0.10719 0.0
C1536 C 0.47748 0.71232 0.0995 0.0
C1537 C 0.46037 0.70132 0.09475 0.0
C1538 C 0.43807 0.70345 0.09758 0.0
C1539 C 0.43284 0.71665 0.10515 0.0
C1540 C 0.44991 0.72764 0.10993 0.0
C1541 C 0.53252 0.82698 0.10819 0.0
C1542 C 0.51358 0.84109 0.10845 0.0
C1543 C 0.53112 0.8048 0.11121 0.0
C1544 C 0.51093 0.79636 0.11477 0.0
C1545 C 0.4923 0.81072 0.11545 0.0
C1546 C 0.49357 0.83283 0.11229 0.0
C1547 C 0.50862 0.77197 0.11669 0.0
C1548 C 0.49104 0.76026 0.11244 0.0
C1549 C 0.52505 0.7598 0.12164 0.0
C1550 C 0.54276 0.77134 0.12701 0.0
C1551 C 0.53704 0.78841 0.13321 0.0
C1552 C 0.55374 0.79934 0.13822 0.0
C1553 C 0.57624 0.79329 0.13712 0.0
C1554 C 0.58209 0.77626 0.13102 0.0
C1555 C 0.56545 0.76528 0.12599 0.0
H1556 H 0.58915 0.80178 0.141 0.0
H1557 H 0.42484 0.69492 0.0939 0.0
H1558 H 0.60398 0.20487 0.35164 0.0
H1559 H 0.56391 0.20034 0.35436 0.0
H1560 H 0.55765 0.27164 0.35916 0.0
H1561 H 0.59806 0.27618 0.35698 0.0
H1562 H 0.52981 0.24812 0.37012 0.0
H1563 H 0.54809 0.24987 0.3382 0.0
H1564 H 0.56796 0.23755 0.32437 0.0
H1565 H 0.5406 0.17114 0.32741 0.0
H1566 H 0.52081 0.18302 0.34133 0.0
H1567 H 0.418 0.26885 0.35517 0.0
H1568 H 0.4582 0.26726 0.35843 0.0
H1569 H 0.45797 0.19575 0.35338 0.0
H1570 H 0.41774 0.19727 0.35008 0.0
H1571 H 0.48916 0.21639 0.34363 0.0
H1572 H 0.4668 0.21684 0.37481 0.0
H1573 H 0.44659 0.23042 0.38835 0.0
H1574 H 0.48072 0.29388 0.38651 0.0
H1575 H 0.50091 0.2808 0.37287 0.0
C1576 C 0.59428 0.21953 0.35353 0.0
C1577 C 0.60423 0.24097 0.35398 0.0
C1578 C 0.5713 0.21692 0.355 0.0
C1579 C 0.55777 0.23572 0.35678 0.0
C1580 C 0.56779 0.25693 0.35775 0.0
C1581 C 0.59084 0.25953 0.35638 0.0
C1582 C 0.53303 0.23362 0.35678 0.0
C1583 C 0.52085 0.2413 0.36433 0.0
C1584 C 0.52144 0.22437 0.34927 0.0
C1585 C 0.53318 0.21727 0.34085 0.0
C1586 C 0.54644 0.23261 0.33595 0.0
C1587 C 0.55767 0.22571 0.32809 0.0
C1588 C 0.55559 0.20356 0.32503 0.0
C1589 C 0.54222 0.18828 0.3298 0.0
C1590 C 0.53099 0.19509 0.33767 0.0
C1591 C 0.42643 0.25271 0.35495 0.0
C1592 C 0.41482 0.2332 0.35231 0.0
C1593 C 0.44938 0.25182 0.35684 0.0
C1594 C 0.46103 0.23135 0.3562 0.0
C1595 C 0.44928 0.21171 0.3539 0.0
C1596 C 0.42636 0.21261 0.35198 0.0
C1597 C 0.48579 0.23089 0.35698 0.0
C1598 C 0.49803 0.22286 0.34952 0.0
C1599 C 0.49731 0.23998 0.36454 0.0
C1600 C 0.48525 0.24788 0.37277 0.0
C1601 C 0.46987 0.23375 0.37725 0.0
C1602 C 0.45844 0.24135 0.38495 0.0
C1603 C 0.46234 0.26302 0.38828 0.0
C1604 C 0.47771 0.27711 0.38392 0.0
C1605 C 0.48918 0.2696 0.37621 0.0
H1606 H 0.45347 0.26887 0.39425 0.0
H1607 H 0.5643 0.19825 0.31894 0.0
H1608 H 0.02772 0.8339 0.41018 0.0
H1609 H 0.03504 0.79509 0.40556 0.0
H1610 H 0.01663 0.81147 0.378 0.0
H1611 H 0.00954 0.85064 0.3826 0.0
H1612 H 0.99462 0.77248 0.38587 0.0
H1613 H 0.06786 0.80108 0.38062 0.0
H1614 H 0.10216 0.82275 0.38399 0.0
H1615 H 0.11461 0.78142 0.40737 0.0
H1616 H 0.0802 0.75971 0.40422 0.0
H1617 H 0.01785 0.65577 0.37959 0.0
H1618 H 0.01955 0.69629 0.37654 0.0
H1619 H 0.04728 0.70737 0.40327 0.0
H1620 H 0.04586 0.66709 0.40628 0.0
H1621 H 0.06731 0.7339 0.39121 0.0
H1622 H 0.99046 0.71264 0.39873 0.0
H1623 H 0.95518 0.69166 0.39639 0.0
H1624 H 0.94888 0.71983 0.36966 0.0
H1625 H 0.9843 0.74075 0.3718 0.0
C1626 C 0.02533 0.82922 0.40314 0.0
C1627 C 0.01801 0.84509 0.39674 0.0
C1628 C 0.02966 0.80716 0.40049 0.0
C1629 C 0.02654 0.80057 0.39143 0.0
C1630 C 0.01925 0.81637 0.385 0.0
C1631 C 0.01526 0.83862 0.38763 0.0
C1632 C 0.02969 0.77675 0.38896 0.0
C1633 C 0.01063 0.76405 0.38676 0.0
C1634 C 0.05054 0.7659 0.39028 0.0
C1635 C 0.07136 0.77882 0.3922 0.0
C1636 C 0.07782 0.79671 0.38652 0.0
C1637 C 0.0973 0.80898 0.38838 0.0
C1638 C 0.11054 0.80348 0.39589 0.0
C1639 C 0.10434 0.78566 0.40155 0.0
C1640 C 0.08486 0.77334 0.39972 0.0
C1641 C 0.02443 0.66691 0.38477 0.0
C1642 C 0.03162 0.65835 0.39319 0.0
C1643 C 0.02544 0.68998 0.38302 0.0
C1644 C 0.03334 0.70484 0.38971 0.0
C1645 C 0.04125 0.69619 0.39799 0.0
C1646 C 0.04041 0.67318 0.39971 0.0
C1647 C 0.03204 0.7295 0.38849 0.0
C1648 C 0.05145 0.74235 0.39001 0.0
C1649 C 0.01144 0.7405 0.38665 0.0
C1650 C 0.99015 0.728 0.38538 0.0
C1651 C 0.98163 0.71421 0.39233 0.0
C1652 C 0.9616 0.70236 0.39104 0.0
C1653 C 0.94984 0.70435 0.38287 0.0
C1654 C 0.95804 0.71825 0.37597 0.0
C1655 C 0.97809 0.73011 0.37722 0.0
H1656 H 0.93433 0.69516 0.38189 0.0
H1657 H 0.12562 0.81301 0.39733 0.0
H1658 H 0.41148 0.69996 0.64807 0.0
H1659 H 0.45129 0.69436 0.64492 0.0
H1660 H 0.45843 0.76493 0.63876 0.0
H1661 H 0.41833 0.77051 0.64146 0.0
H1662 H 0.48458 0.73921 0.6277 0.0
H1663 H 0.46929 0.74572 0.65986 0.0
H1664 H 0.45063 0.73538 0.67422 0.0
H1665 H 0.47716 0.66842 0.67217 0.0
H1666 H 0.49575 0.6783 0.65773 0.0
H1667 H 0.59607 0.76476 0.64111 0.0
H1668 H 0.55594 0.76116 0.63806 0.0
H1669 H 0.5589 0.69065 0.64492 0.0
H1670 H 0.59912 0.69418 0.648 0.0
H1671 H 0.52746 0.71164 0.65437 0.0
H1672 H 0.54781 0.70768 0.62311 0.0
H1673 H 0.56688 0.71918 0.609 0.0
H1674 H 0.53175 0.78223 0.60942 0.0
H1675 H 0.51269 0.77125 0.62362 0.0
C1676 C 0.42135 0.7142 0.64582 0.0
C1677 C 0.41178 0.73576 0.64513 0.0
C1678 C 0.44414 0.71098 0.64408 0.0
C1679 C 0.45783 0.7293 0.64176 0.0
C1680 C 0.44814 0.75059 0.64058 0.0
C1681 C 0.4253 0.7538 0.64225 0.0
C1682 C 0.48251 0.72677 0.64141 0.0
C1683 C 0.49403 0.73326 0.63352 0.0
C1684 C 0.49471 0.71857 0.64896 0.0
C1685 C 0.48368 0.71267 0.65767 0.0
C1686 C 0.47101 0.72875 0.66244 0.0
C1687 C 0.46046 0.72298 0.6706 0.0
C1688 C 0.46265 0.70124 0.67409 0.0
C1689 C 0.47545 0.68524 0.66945 0.0
C1690 C 0.48599 0.69091 0.66128 0.0
C1691 C 0.58829 0.74838 0.64175 0.0
C1692 C 0.60066 0.72978 0.64485 0.0
C1693 C 0.56536 0.74632 0.63998 0.0
C1694 C 0.55448 0.7256 0.64121 0.0
C1695 C 0.567 0.70679 0.64394 0.0
C1696 C 0.58991 0.70885 0.64574 0.0
C1697 C 0.52971 0.72424 0.64067 0.0
C1698 C 0.51811 0.71714 0.64844 0.0
C1699 C 0.51755 0.73202 0.63303 0.0
C1700 C 0.52893 0.73868 0.62447 0.0
C1701 C 0.54427 0.72407 0.62024 0.0
C1702 C 0.55506 0.73048 0.61221 0.0
C1703 C 0.55056 0.75144 0.60833 0.0
C1704 C 0.53522 0.766 0.61244 0.0
C1705 C 0.5244 0.75967 0.62047 0.0
H1706 H 0.55893 0.75637 0.60211 0.0
H1707 H 0.45448 0.6968 0.68041 0.0
H1708 H 0.52467 0.3415 0.88612 0.0
H1709 H 0.52292 0.30139 0.8823 0.0
H1710 H 0.46784 0.29293 0.90107 0.0
H1711 H 0.47008 0.33276 0.90508 0.0
H1712 H 0.49841 0.26332 0.90432 0.0
H1713 H 0.46149 0.2896 0.87738 0.0
H1714 H 0.45696 0.31228 0.86348 0.0
H1715 H 0.51639 0.28247 0.85219 0.0
H1716 H 0.52146 0.25982 0.86608 0.0
H1717 H 0.47081 0.15286 0.89598 0.0
H1718 H 0.46638 0.19324 0.89393 0.0
H1719 H 0.53058 0.19648 0.88047 0.0
H1720 H 0.53496 0.15572 0.88227 0.0
H1721 H 0.49571 0.22826 0.87373 0.0
H1722 H 0.53308 0.20381 0.90128 0.0
H1723 H 0.5362 0.18019 0.91499 0.0
H1724 H 0.47401 0.20701 0.92501 0.0
H1725 H 0.47033 0.2305 0.91127 0.0
C1726 C 0.51201 0.33106 0.8893 0.0
C1727 C 0.49765 0.34001 0.89594 0.0
C1728 C 0.51093 0.30822 0.88709 0.0
C1729 C 0.49518 0.29417 0.89137 0.0
C1730 C 0.4802 0.30343 0.89772 0.0
C1731 C 0.4815 0.32611 0.90002 0.0
C1732 C 0.49556 0.26952 0.88992 0.0
C1733 C 0.49745 0.25575 0.89762 0.0
C1734 C 0.49499 0.25958 0.88118 0.0
C1735 C 0.49197 0.27318 0.87281 0.0
C1736 C 0.4737 0.28802 0.87197 0.0
C1737 C 0.47101 0.30084 0.86408 0.0
C1738 C 0.48641 0.29886 0.85697 0.0
C1739 C 0.50449 0.284 0.85772 0.0
C1740 C 0.50727 0.27115 0.86559 0.0
C1741 C 0.48364 0.16193 0.89228 0.0
C1742 C 0.50338 0.15113 0.88939 0.0
C1743 C 0.48109 0.18504 0.89114 0.0
C1744 C 0.49827 0.19775 0.88715 0.0
C1745 C 0.51716 0.18686 0.88357 0.0
C1746 C 0.51974 0.16366 0.8847 0.0
C1747 C 0.49809 0.22243 0.88812 0.0
C1748 C 0.4965 0.23607 0.88039 0.0
C1749 C 0.49883 0.23239 0.89683 0.0
C1750 C 0.50133 0.21875 0.90522 0.0
C1751 C 0.52001 0.20456 0.90639 0.0
C1752 C 0.52188 0.1912 0.91416 0.0
C1753 C 0.50529 0.19206 0.92086 0.0
C1754 C 0.48683 0.20635 0.91981 0.0
C1755 C 0.48485 0.21969 0.91203 0.0
H1756 H 0.50675 0.18169 0.92687 0.0
H1757 H 0.48429 0.3088 0.85087 0.0
H1758 H 0.09473 0.22177 0.14347 0.0
H1759 H 0.05501 0.2281 0.14057 0.0
H1760 H 0.06492 0.29969 0.14333 0.0
H1761 H 0.10459 0.29337 0.14676 0.0
H1762 H 0.03091 0.28747 0.15299 0.0
H1763 H 0.05179 0.27512 0.12244 0.0
H1764 H 0.07015 0.25663 0.10943 0.0
H1765 H 0.03085 0.19712 0.11393 0.0
H1766 H 0.01247 0.21511 0.12706 0.0
H1767 H 0.91382 0.29851 0.1439 0.0
H1768 H 0.9541 0.30186 0.14096 0.0
H1769 H 0.96137 0.23 0.14363 0.0
H1770 H 0.92135 0.2265 0.14686 0.0
H1771 H 0.98652 0.24919 0.129 0.0
H1772 H 0.97172 0.26087 0.1613 0.0
H1773 H 0.95339 0.28022 0.17413 0.0
H1774 H 0.98187 0.34306 0.16553 0.0
H1775 H 0.00011 0.3241 0.15256 0.0
C1776 C 0.08848 0.23888 0.14348 0.0
C1777 C 0.10279 0.25704 0.14545 0.0
C1778 C 0.06581 0.24251 0.14166 0.0
C1779 C 0.05702 0.26441 0.14161 0.0
C1780 C 0.07138 0.28266 0.14329 0.0
C1781 C 0.09407 0.27902 0.14519 0.0
C1782 C 0.03249 0.26786 0.14067 0.0
C1783 C 0.0213 0.2796 0.14759 0.0
C1784 C 0.01986 0.2574 0.13369 0.0
C1785 C 0.03082 0.24646 0.12578 0.0
C1786 C 0.04716 0.25804 0.1207 0.0
C1787 C 0.05756 0.24765 0.1133 0.0
C1788 C 0.05169 0.2257 0.11086 0.0
C1789 C 0.03538 0.21412 0.11582 0.0
C1790 C 0.02493 0.22442 0.12324 0.0
C1791 C 0.92398 0.28341 0.14388 0.0
C1792 C 0.91439 0.26225 0.14572 0.0
C1793 C 0.94693 0.28536 0.14211 0.0
C1794 C 0.96061 0.26618 0.14211 0.0
C1795 C 0.95099 0.24497 0.14354 0.0
C1796 C 0.9281 0.24301 0.14537 0.0
C1797 C 0.98525 0.26823 0.14142 0.0
C1798 C 0.99634 0.25751 0.13423 0.0
C1799 C -0.00217 0.27981 0.14808 0.0
C1800 C 0.98703 0.29114 0.15591 0.0
C1801 C 0.97391 0.27884 0.16211 0.0
C1802 C 0.96357 0.28973 0.16941 0.0
C1803 C 0.9664 0.31287 0.17063 0.0
C1804 C 0.97965 0.32515 0.16457 0.0
C1805 C 0.98999 0.31435 0.15724 0.0
H1806 H 0.95838 0.32127 0.17629 0.0
H1807 H 0.05976 0.21769 0.10513 0.0
H1808 H 0.02354 0.9619 0.46548 0.0
H1809 H 0.02251 0.9678 0.48187 0.0
H1810 H 0.97258 0.01965 0.47839 0.0
H1811 H 0.97424 0.01455 0.46192 0.0
H1812 H 0.0034 0.03242 0.49039 0.0
H1813 H 0.95807 0.96702 0.48576 0.0
H1814 H 0.949 0.92911 0.48004 0.0
H1815 H 0.00332 0.9013 0.49559 0.0
H1816 H 0.01292 0.93911 0.50131 0.0
H1817 H 0.96919 0.03538 0.53681 0.0
H1818 H 0.96944 0.03061 0.52032 0.0
H1819 H 0.02388 0.98313 0.52263 0.0
H1820 H 0.02417 0.9882 0.53909 0.0
H1821 H 0.98961 0.9684 0.51128 0.0
H1822 H 0.0349 0.03461 0.51568 0.0
H1823 H 0.04306 0.07268 0.52144 0.0
H1824 H 0.98728 0.09909 0.50635 0.0
H1825 H 0.97858 0.06109 0.50059 0.0
C1826 C 0.01253 0.97475 0.46818 0.0
C1827 C -0.00106 0.98773 0.46239 0.0
C1828 C 0.01177 0.97792 0.47756 0.0
C1829 C 0.99722 0.99393 0.48136 0.0
C1830 C 0.98384 0.00712 0.4756 0.0
C1831 C 0.98466 0.00404 0.4662 0.0
C1832 C 0.9961 0.99699 0.49134 0.0
C1833 C 5e-05 0.01848 0.49495 0.0
C1834 C 0.99211 0.97872 0.49729 0.0
C1835 C 0.98634 0.95594 0.49389 0.0
C1836 C 0.96819 0.95285 0.4879 0.0
C1837 C 0.96294 0.93137 0.48467 0.0
C1838 C 0.97561 0.91281 0.48743 0.0
C1839 C 0.99353 0.91569 0.49345 0.0
C1840 C -0.00113 0.93714 0.49669 0.0
C1841 C 0.9814 0.02412 0.53381 0.0
C1842 C 0.9967 0.0122 0.53928 0.0
C1843 C 0.98145 0.02134 0.52439 0.0
C1844 C 0.99676 0.00661 0.52027 0.0
C1845 C 0.01188 0.99452 0.5257 0.0
C1846 C 0.01194 0.99737 0.53511 0.0
C1847 C 0.99702 0.00376 0.5103 0.0
C1848 C 0.99289 0.98232 0.5067 0.0
C1849 C 0.00068 0.02209 0.50436 0.0
C1850 C 0.00595 0.04496 0.50778 0.0
C1851 C 0.02425 0.0485 0.51365 0.0
C1852 C 0.029 0.07007 0.5169 0.0
C1853 C 0.01566 0.08828 0.51428 0.0
C1854 C -0.00242 0.08496 0.50838 0.0
C1855 C 0.99274 0.06341 0.50512 0.0
H1856 H 0.01937 0.10497 0.51681 0.0
H1857 H 0.97151 0.8962 0.48492 0.0
H1858 H 0.28524 0.75469 0.78963 0.0
H1859 H 0.29121 0.75493 0.77321 0.0
H1860 H 0.2202 0.7645 0.76893 0.0
H1861 H 0.21409 0.76458 0.78536 0.0
H1862 H 0.23761 0.73208 0.75782 0.0
H1863 H 0.25551 0.80794 0.76648 0.0
H1864 H 0.27492 0.83736 0.7753 0.0
H1865 H 0.3386 0.81379 0.76548 0.0
H1866 H 0.31958 0.78401 0.7567 0.0
H1867 H 0.24056 0.76202 0.7114 0.0
H1868 H 0.23511 0.76245 0.72783 0.0
H1869 H 0.30658 0.75588 0.73181 0.0
H1870 H 0.31227 0.75634 0.71536 0.0
H1871 H 0.28925 0.78654 0.74313 0.0
H1872 H 0.27176 0.71086 0.73446 0.0
H1873 H 0.25271 0.68108 0.7257 0.0
H1874 H 0.18879 0.70371 0.73561 0.0
H1875 H 0.20744 0.73385 0.74433 0.0
C1876 C 0.27092 0.75709 0.78521 0.0
C1877 C 0.2492 0.7597 0.78881 0.0
C1878 C 0.27435 0.75716 0.77583 0.0
C1879 C 0.25616 0.75993 0.76987 0.0
C1880 C 0.23444 0.7623 0.77343 0.0
C1881 C 0.23099 0.76226 0.78281 0.0
C1882 C 0.25978 0.76022 0.75993 0.0
C1883 C 0.24866 0.74417 0.75458 0.0
C1884 C 0.27466 0.77564 0.75576 0.0
C1885 C 0.28613 0.79361 0.761 0.0
C1886 C 0.27366 0.80891 0.76625 0.0
C1887 C 0.28459 0.82568 0.77124 0.0
C1888 C 0.30798 0.82741 0.77097 0.0
C1889 C 0.32049 0.81241 0.76569 0.0
C1890 C 0.30964 0.7956 0.76071 0.0
C1891 C 0.25516 0.76093 0.71576 0.0
C1892 C 0.27686 0.75911 0.71207 0.0
C1893 C 0.25199 0.76093 0.72515 0.0
C1894 C 0.27042 0.75888 0.73104 0.0
C1895 C 0.29212 0.75737 0.72739 0.0
C1896 C 0.29532 0.75743 0.71799 0.0
C1897 C 0.26703 0.75842 0.741 0.0
C1898 C 0.2782 0.77443 0.74636 0.0
C1899 C 0.25225 0.74291 0.74519 0.0
C1900 C 0.24099 0.72475 0.73998 0.0
C1901 C 0.25363 0.7096 0.73471 0.0
C1902 C 0.24291 0.69264 0.72977 0.0
C1903 C 0.21955 0.69054 0.73008 0.0
C1904 C 0.20688 0.70537 0.73537 0.0
C1905 C 0.21752 0.72239 0.74032 0.0
H1906 H 0.21128 0.6774 0.72625 0.0
H1907 H 0.31642 0.8404 0.77483 0.0
H1908 H 0.54934 0.96688 0.0346 0.0
H1909 H 0.551 0.97803 0.01864 0.0
H1910 H 0.48021 0.99319 0.01907 0.0
H1911 H 0.47847 0.98274 0.03511 0.0
H1912 H 0.49365 0.96865 0.00375 0.0
H1913 H 0.51567 0.03495 0.02028 0.0
H1914 H 0.5381 0.05642 0.03138 0.0
H1915 H 0.59825 0.04111 0.01654 0.0
H1916 H 0.5762 0.01924 0.00543 0.0
H1917 H 0.48496 0.02957 0.96297 0.0
H1918 H 0.48406 0.0195 0.97902 0.0
H1919 H 0.55606 0.01156 0.97896 0.0
H1920 H 0.55725 0.02266 0.96297 0.0
H1921 H 0.54252 0.03197 0.99414 0.0
H1922 H 0.52135 0.96602 0.97758 0.0
H1923 H 0.49963 0.94391 0.96646 0.0
H1924 H 0.43897 0.95735 0.98125 0.0
H1925 H 0.46029 0.97984 0.99239 0.0
C1926 C 0.53414 0.97274 0.03134 0.0
C1927 C 0.51379 0.97401 0.03617 0.0
C1928 C 0.53511 0.979 0.0222 0.0
C1929 C 0.51576 0.98659 0.01772 0.0
C1930 C 0.49531 0.98733 0.02243 0.0
C1931 C 0.49434 0.98122 0.03158 0.0
C1932 C 0.51692 0.99411 0.00816 0.0
C1933 C 0.50411 0.98267 0.00165 0.0
C1934 C 0.53103 0.01202 0.00543 0.0
C1935 C 0.54431 0.02526 0.01208 0.0
C1936 C 0.5337 0.036 0.01943 0.0
C1937 C 0.54634 0.04827 0.02571 0.0
C1938 C 0.56959 0.05008 0.02468 0.0
C1939 C 0.58024 0.03966 0.01734 0.0
C1940 C 0.56768 0.02734 0.01104 0.0
C1941 C 0.50068 0.02612 0.9664 0.0
C1942 C 0.52119 0.02686 0.96167 0.0
C1943 C 0.50009 0.02008 0.97555 0.0
C1944 C 0.51995 0.01437 0.98014 0.0
C1945 C 0.54052 0.01576 0.97553 0.0
C1946 C 0.54115 0.02192 0.96638 0.0
C1947 C 0.51916 0.00656 0.98969 0.0
C1948 C 0.53207 0.01793 0.99622 0.0
C1949 C 0.50525 0.98846 0.99242 0.0
C1950 C 0.49239 0.9748 0.98577 0.0
C1951 C 0.50336 0.9644 0.97843 0.0
C1952 C 0.49112 0.95178 0.97212 0.0
C1953 C 0.46793 0.94927 0.97314 0.0
C1954 C 0.45693 0.95933 0.98047 0.0
C1955 C 0.46909 0.972 0.98679 0.0
H1956 H 0.45848 0.93949 0.96825 0.0
H1957 H 0.57935 0.05959 0.02955 0.0
H1958 H 0.25569 0.20467 0.21006 0.0
H1959 H 0.26222 0.20677 0.22643 0.0
H1960 H 0.23925 0.27558 0.22657 0.0
H1961 H 0.23314 0.27376 0.21013 0.0
H1962 H 0.27774 0.27011 0.23644 0.0
H1963 H 0.20558 0.23519 0.2344 0.0
H1964 H 0.17772 0.20748 0.22907 0.0
H1965 H 0.2167 0.15395 0.24067 0.0
H1966 H 0.24498 0.18132 0.24595 0.0
H1967 H 0.2668 0.27767 0.28464 0.0
H1968 H 0.25959 0.27788 0.26828 0.0
H1969 H 0.28119 0.20877 0.26652 0.0
H1970 H 0.28866 0.20847 0.28284 0.0
H1971 H 0.2421 0.21567 0.25752 0.0
H1972 H 0.31479 0.25066 0.25918 0.0
H1973 H 0.34257 0.27848 0.26449 0.0
H1974 H 0.30232 0.33205 0.25365 0.0
H1975 H 0.27413 0.30455 0.24839 0.0
C1976 C 0.25218 0.22029 0.21357 0.0
C1977 C 0.24389 0.23905 0.20882 0.0
C1978 C 0.25573 0.22141 0.22292 0.0
C1979 C 0.251 0.24126 0.22771 0.0
C1980 C 0.24292 0.26008 0.22299 0.0
C1981 C 0.23929 0.25896 0.21363 0.0
C1982 C 0.2547 0.24234 0.23765 0.0
C1983 C 0.26969 0.25845 0.24108 0.0
C1984 C 0.2445 0.22682 0.24365 0.0
C1985 C 0.22751 0.2103 0.24049 0.0
C1986 C 0.20831 0.2175 0.23575 0.0
C1987 C 0.19243 0.20185 0.23275 0.0
C1988 C 0.19547 0.17896 0.23451 0.0
C1989 C 0.21438 0.17168 0.2393 0.0
C1990 C 0.23033 0.18726 0.2423 0.0
C1991 C 0.2703 0.26261 0.28075 0.0
C1992 C 0.27833 0.24305 0.28503 0.0
C1993 C 0.26611 0.26274 0.27141 0.0
C1994 C 0.26999 0.24338 0.26619 0.0
C1995 C 0.27802 0.22386 0.27044 0.0
C1996 C 0.28221 0.22371 0.27977 0.0
C1997 C 0.26532 0.24329 0.25631 0.0
C1998 C 0.2501 0.22738 0.25289 0.0
C1999 C 0.27529 0.25901 0.25033 0.0
C2000 C 0.29224 0.27557 0.25347 0.0
C2001 C 0.31177 0.26839 0.258 0.0
C2002 C 0.32761 0.28409 0.26099 0.0
C2003 C 0.32418 0.30702 0.25943 0.0
C2004 C 0.30494 0.31428 0.25487 0.0
C2005 C 0.28903 0.29865 0.25187 0.0
H2006 H 0.33647 0.31915 0.26175 0.0
H2007 H 0.18315 0.16688 0.23219 0.0
H2008 H 0.80475 0.26488 0.21377 0.0
H2009 H 0.79773 0.26482 0.23013 0.0
H2010 H 0.72696 0.2553 0.22521 0.0
H2011 H 0.73385 0.25502 0.20885 0.0
H2012 H 0.73486 0.28749 0.23807 0.0
H2013 H 0.75842 0.21179 0.23192 0.0
H2014 H 0.78348 0.18234 0.2259 0.0
H2015 H 0.83668 0.20553 0.24323 0.0
H2016 H 0.81202 0.23534 0.24926 0.0
H2017 H 0.70375 0.25682 0.28299 0.0
H2018 H 0.71016 0.25712 0.26659 0.0
H2019 H 0.78144 0.26369 0.27112 0.0
H2020 H 0.77526 0.26256 0.28751 0.0
H2021 H 0.77296 0.23291 0.25838 0.0
H2022 H 0.74972 0.30868 0.26451 0.0
H2023 H 0.72492 0.33838 0.2705 0.0
H2024 H 0.67146 0.31543 0.25325 0.0
H2025 H 0.69587 0.28538 0.24724 0.0
C2026 C 0.78772 0.26256 0.21617 0.0
C2027 C 0.76987 0.25987 0.21 0.0
C2028 C 0.78373 0.2626 0.22551 0.0
C2029 C 0.76185 0.25985 0.22887 0.0
C2030 C 0.74396 0.25748 0.22275 0.0
C2031 C 0.74793 0.25741 0.2134 0.0
C2032 C 0.75763 0.25941 0.23878 0.0
C2033 C 0.74294 0.27538 0.24251 0.0
C2034 C 0.7686 0.24391 0.24457 0.0
C2035 C 0.78343 0.22594 0.24098 0.0
C2036 C 0.77551 0.21073 0.23439 0.0
C2037 C 0.78964 0.19395 0.23099 0.0
C2038 C 0.81167 0.1921 0.23416 0.0
C2039 C 0.81961 0.207 0.24077 0.0
C2040 C 0.80556 0.22383 0.24419 0.0
C2041 C 0.7208 0.25817 0.28049 0.0
C2042 C 0.73899 0.25973 0.28656 0.0
C2043 C 0.72442 0.25856 0.27112 0.0
C2044 C 0.74626 0.26069 0.26764 0.0
C2045 C 0.76444 0.26212 0.27367 0.0
C2046 C 0.76085 0.26169 0.28303 0.0
C2047 C 0.75023 0.26105 0.2577 0.0
C2048 C 0.76487 0.24504 0.25396 0.0
C2049 C 0.73925 0.27655 0.25191 0.0
C2050 C 0.72456 0.29463 0.25549 0.0
C2051 C 0.73262 0.30985 0.26205 0.0
C2052 C 0.71865 0.32677 0.26543 0.0
C2053 C 0.69661 0.32875 0.26227 0.0
C2054 C 0.68852 0.31385 0.2557 0.0
C2055 C 0.70243 0.29688 0.2523 0.0
H2056 H 0.68581 0.34187 0.26491 0.0
H2057 H 0.82258 0.1791 0.23152 0.0
H2058 H 0.72562 0.70752 0.71462 0.0
H2059 H 0.73537 0.70644 0.73075 0.0
H2060 H 0.75937 0.77481 0.72919 0.0
H2061 H 0.75016 0.77582 0.71299 0.0
H2062 H 0.78846 0.74754 0.73836 0.0
H2063 H 0.70962 0.764 0.73886 0.0
H2064 H 0.66973 0.75832 0.735 0.0
H2065 H 0.67109 0.69325 0.74764 0.0
H2066 H 0.7111 0.69842 0.75147 0.0
H2067 H 0.79377 0.76789 0.78607 0.0
H2068 H 0.78628 0.76909 0.76975 0.0
H2069 H 0.75907 0.70187 0.77094 0.0
H2070 H 0.76644 0.70062 0.78727 0.0
H2071 H 0.73172 0.72916 0.76189 0.0
H2072 H 0.81053 0.71249 0.76139 0.0
H2073 H 0.85049 0.71795 0.76519 0.0
H2074 H 0.84937 0.78304 0.75256 0.0
H2075 H 0.8093 0.77809 0.74879 0.0
C2076 C 0.73305 0.72229 0.71771 0.0
C2077 C 0.73707 0.74178 0.71255 0.0
C2078 C 0.73846 0.72171 0.72693 0.0
C2079 C 0.7479 0.74062 0.73117 0.0
C2080 C 0.75203 0.76007 0.72604 0.0
C2081 C 0.74657 0.76068 0.71682 0.0
C2082 C 0.75367 0.73999 0.74094 0.0
C2083 C 0.77602 0.74383 0.74353 0.0
C2084 C 0.7375 0.73464 0.74764 0.0
C2085 C 0.71342 0.73152 0.74537 0.0
C2086 C 0.70146 0.74841 0.74075 0.0
C2087 C 0.67882 0.74529 0.73858 0.0
C2088 C 0.6679 0.72541 0.74105 0.0
C2089 C 0.67958 0.70863 0.74572 0.0
C2090 C 0.70224 0.71166 0.7479 0.0
C2091 C 0.78652 0.75324 0.78282 0.0
C2092 C 0.78064 0.73418 0.78794 0.0
C2093 C 0.78224 0.75395 0.7735 0.0
C2094 C 0.77223 0.73551 0.76912 0.0
C2095 C 0.76672 0.71631 0.77419 0.0
C2096 C 0.77091 0.71564 0.78351 0.0
C2097 C 0.76658 0.73657 0.75933 0.0
C2098 C 0.74421 0.73285 0.75673 0.0
C2099 C 0.78275 0.742 0.75264 0.0
C2100 C 0.80685 0.74501 0.75489 0.0
C2101 C 0.81875 0.72804 0.75949 0.0
C2102 C 0.84143 0.73103 0.76162 0.0
C2103 C 0.85245 0.75085 0.75914 0.0
C2104 C 0.84081 0.7677 0.75449 0.0
C2105 C 0.81812 0.76481 0.75235 0.0
H2106 H 0.87001 0.75313 0.7608 0.0
H2107 H 0.65036 0.72303 0.73937 0.0
H2108 H 0.46396 0.46191 0.96682 0.0
H2109 H 0.46293 0.47456 0.98262 0.0
H2110 H 0.53032 0.50032 0.98007 0.0
H2111 H 0.53135 0.48825 0.96422 0.0
H2112 H 0.52358 0.47646 0.99601 0.0
H2113 H 0.48799 0.53578 0.97911 0.0
H2114 H 0.46052 0.55164 0.96834 0.0
H2115 H 0.40633 0.52856 0.98517 0.0
H2116 H 0.4335 0.51224 0.99598 0.0
H2117 H 0.52711 0.54046 0.03617 0.0
H2118 H 0.52769 0.53068 0.02007 0.0
H2119 H 0.45827 0.51026 0.02159 0.0
H2120 H 0.45722 0.52104 0.0376 0.0
H2121 H 0.46615 0.53161 0.00605 0.0
H2122 H 0.50092 0.47167 0.02276 0.0
H2123 H 0.52784 0.45484 0.03352 0.0
H2124 H 0.58283 0.4778 0.01711 0.0
H2125 H 0.55623 0.49506 0.00631 0.0
C2126 C 0.47853 0.47036 0.9696 0.0
C2127 C 0.49772 0.4741 0.96424 0.0
C2128 C 0.47792 0.47751 0.97863 0.0
C2129 C 0.49648 0.48854 0.98246 0.0
C2130 C 0.51586 0.49179 0.97723 0.0
C2131 C 0.51644 0.48475 0.96819 0.0
C2132 C 0.4956 0.49699 0.99191 0.0
C2133 C 0.51122 0.48873 0.9982 0.0
C2134 C 0.47913 0.51262 0.99476 0.0
C2135 C 0.46277 0.5226 0.98831 0.0
C2136 C 0.47021 0.53393 0.98048 0.0
C2137 C 0.4547 0.54303 0.97438 0.0
C2138 C 0.4317 0.54106 0.97606 0.0
C2139 C 0.42416 0.53004 0.98387 0.0
C2140 C 0.43961 0.52088 0.98999 0.0
C2141 C 0.51181 0.53436 0.03304 0.0
C2142 C 0.49215 0.53135 0.0382 0.0
C2143 C 0.51225 0.52853 0.02386 0.0
C2144 C 0.49316 0.5193 0.01969 0.0
C2145 C 0.47325 0.51718 0.0247 0.0
C2146 C 0.47274 0.52316 0.03387 0.0
C2147 C 0.49416 0.51108 0.01019 0.0
C2148 C 0.47854 0.51936 0.00388 0.0
C2149 C 0.51055 0.49535 0.00733 0.0
C2150 C 0.52659 0.48485 0.01378 0.0
C2151 C 0.51875 0.47327 0.02148 0.0
C2152 C 0.53395 0.46363 0.02758 0.0
C2153 C 0.55703 0.4653 0.02601 0.0
C2154 C 0.56495 0.47655 0.01832 0.0
C2155 C 0.54982 0.48625 0.01221 0.0
H2156 H 0.56877 0.45782 0.03074 0.0
H2157 H 0.41971 0.54811 0.97132 0.0
H2158 H 0.03563 0.46083 0.52995 0.0
H2159 H 0.03507 0.46991 0.51376 0.0
H2160 H 0.98113 0.51705 0.51833 0.0
H2161 H 0.98139 0.5077 0.53452 0.0
H2162 H 0.97314 0.49348 0.50356 0.0
H2163 H 0.03558 0.53487 0.51511 0.0
H2164 H 0.07104 0.54072 0.52343 0.0
H2165 H 0.10469 0.49476 0.50552 0.0
H2166 H 0.06934 0.48838 0.49717 0.0
H2167 H 0.98577 0.54765 0.46038 0.0
H2168 H 0.98543 0.54121 0.47684 0.0
H2169 H 0.03182 0.48612 0.47351 0.0
H2170 H 0.03224 0.49246 0.45709 0.0
H2171 H 0.04318 0.51596 0.48772 0.0
H2172 H 0.97919 0.4742 0.47659 0.0
H2173 H 0.94343 0.46973 0.46833 0.0
H2174 H 0.91249 0.51892 0.48564 0.0
H2175 H 0.94819 0.52392 0.49391 0.0
C2176 C 0.02371 0.47316 0.52749 0.0
C2177 C 0.0086 0.48361 0.53348 0.0
C2178 C 0.02342 0.47838 0.51825 0.0
C2179 C 0.00829 0.49443 0.51486 0.0
C2180 C 0.99295 0.50463 0.5208 0.0
C2181 C 0.99308 0.49925 0.53004 0.0
C2182 C 0.00846 0.50051 0.50509 0.0
C2183 C 0.98839 0.49874 0.50014 0.0
C2184 C 0.02841 0.50712 0.50059 0.0
C2185 C 0.04975 0.511 0.50557 0.0
C2186 C 0.0505 0.52589 0.51299 0.0
C2187 C 0.07059 0.52931 0.5177 0.0
C2188 C 0.09009 0.51808 0.51502 0.0
C2189 C 0.08956 0.50343 0.5076 0.0
C2190 C 0.06951 0.49992 0.50287 0.0
C2191 C 0.99597 0.53426 0.46318 0.0
C2192 C 0.00893 0.52046 0.45748 0.0
C2193 C 0.99568 0.53055 0.47256 0.0
C2194 C 0.00851 0.51312 0.47635 0.0
C2195 C 0.0218 0.49962 0.47069 0.0
C2196 C 0.02189 0.50316 0.46133 0.0
C2197 C 0.00796 0.50871 0.48623 0.0
C2198 C 0.02794 0.51083 0.49119 0.0
C2199 C 0.9879 0.50268 0.49075 0.0
C2200 C 0.96642 0.49962 0.4858 0.0
C2201 C 0.96481 0.48422 0.47858 0.0
C2202 C 0.94455 0.48156 0.47391 0.0
C2203 C 0.92572 0.49409 0.47644 0.0
C2204 C 0.9271 0.50926 0.48367 0.0
C2205 C 0.94734 0.512 0.48836 0.0
H2206 H 0.91004 0.492 0.47282 0.0
H2207 H 0.10563 0.52076 0.51868 0.0
H2208 H 0.25582 0.88063 0.6424 0.0
H2209 H 0.23349 0.91047 0.63528 0.0
H2210 H 0.19073 0.86029 0.62302 0.0
H2211 H 0.2131 0.8306 0.62996 0.0
H2212 H 0.19895 0.89251 0.61126 0.0
H2213 H 0.17643 0.88868 0.64289 0.0
H2214 H 0.18276 0.89025 0.65943 0.0
H2215 H 0.20707 0.95799 0.65702 0.0
H2216 H 0.20115 0.9567 0.64043 0.0
H2217 H 0.09129 0.93922 0.60648 0.0
H2218 H 0.12443 0.91845 0.61159 0.0
H2219 H 0.15962 0.98093 0.61599 0.0
H2220 H 0.12642 0.00189 0.61077 0.0
H2221 H 0.16103 0.9487 0.6309 0.0
H2222 H 0.1764 0.95343 0.59917 0.0
H2223 H 0.16772 0.95082 0.58283 0.0
H2224 H 0.15466 0.88013 0.58563 0.0
H2225 H 0.16292 0.88238 0.60202 0.0
C2226 C 0.24169 0.87605 0.63816 0.0
C2227 C 0.23617 0.85333 0.63673 0.0
C2228 C 0.22896 0.89306 0.6341 0.0
C2229 C 0.21031 0.8876 0.62868 0.0
C2230 C 0.20512 0.86491 0.62712 0.0
C2231 C 0.21792 0.84795 0.63109 0.0
C2232 C 0.19549 0.90528 0.62489 0.0
C2233 C 0.19065 0.90477 0.61556 0.0
C2234 C 0.18512 0.9217 0.63046 0.0
C2235 C 0.18862 0.9225 0.64042 0.0
C2236 C 0.18329 0.90384 0.64588 0.0
C2237 C 0.18678 0.90469 0.65526 0.0
C2238 C 0.19538 0.92418 0.65927 0.0
C2239 C 0.20046 0.94289 0.65391 0.0
C2240 C 0.19704 0.94211 0.64451 0.0
C2241 C 0.1061 0.9485 0.60855 0.0
C2242 C 0.10637 0.97209 0.60827 0.0
C2243 C 0.12501 0.93666 0.6114 0.0
C2244 C 0.14443 0.94821 0.6141 0.0
C2245 C 0.14476 0.97179 0.61389 0.0
C2246 C 0.1259 0.98368 0.61089 0.0
C2247 C 0.16403 0.93535 0.61736 0.0
C2248 C 0.16976 0.93678 0.62658 0.0
C2249 C 0.17501 0.91959 0.61172 0.0
C2250 C 0.17015 0.91811 0.60185 0.0
C2251 C 0.17151 0.93736 0.59632 0.0
C2252 C 0.16669 0.93594 0.58704 0.0
C2253 C 0.16061 0.91533 0.5832 0.0
C2254 C 0.15937 0.89609 0.58862 0.0
C2255 C 0.16415 0.89742 0.5979 0.0
H2256 H 0.15689 0.91427 0.57601 0.0
H2257 H 0.19806 0.92481 0.66654 0.0
H2258 H 0.27275 0.8842 0.85345 0.0
H2259 H 0.29333 0.91504 0.8607 0.0
H2260 H 0.31427 0.87023 0.88213 0.0
H2261 H 0.29409 0.83935 0.8749 0.0
H2262 H 0.30215 0.91191 0.88864 0.0
H2263 H 0.3485 0.88054 0.86463 0.0
H2264 H 0.35659 0.86961 0.84881 0.0
H2265 H 0.34727 0.93797 0.84018 0.0
H2266 H 0.3388 0.94924 0.85595 0.0
H2267 H 0.40465 0.95213 0.90593 0.0
H2268 H 0.37278 0.93222 0.89932 0.0
H2269 H 0.36523 0.98467 0.87929 0.0
H2270 H 0.3977 0.0043 0.88567 0.0
H2271 H 0.36588 0.94477 0.87147 0.0
H2272 H 0.32574 0.97723 0.89604 0.0
H2273 H 0.31812 0.98803 0.91191 0.0
H2274 H 0.3157 0.91842 0.91961 0.0
H2275 H 0.32364 0.90718 0.90381 0.0
C2276 C 0.28174 0.88094 0.85971 0.0
C2277 C 0.2819 0.8593 0.86358 0.0
C2278 C 0.29336 0.89858 0.86386 0.0
C2279 C 0.30541 0.89483 0.87192 0.0
C2280 C 0.30495 0.87348 0.87595 0.0
C2281 C 0.29338 0.85586 0.87181 0.0
C2282 C 0.31975 0.91262 0.87588 0.0
C2283 C 0.31613 0.9191 0.88492 0.0
C2284 C 0.33755 0.92242 0.8709 0.0
C2285 C 0.34275 0.91567 0.86144 0.0
C2286 C 0.34799 0.8932 0.85935 0.0
C2287 C 0.35268 0.88695 0.85039 0.0
C2288 C 0.35237 0.90307 0.84349 0.0
C2289 C 0.34745 0.92549 0.84553 0.0
C2290 C 0.34271 0.93182 0.85447 0.0
C2291 C 0.39614 0.95949 0.90014 0.0
C2292 C 0.40378 0.97971 0.89629 0.0
C2293 C 0.37774 0.94823 0.89644 0.0
C2294 C 0.36648 0.95708 0.88886 0.0
C2295 C 0.37362 0.97762 0.88517 0.0
C2296 C 0.39208 0.98888 0.88886 0.0
C2297 C 0.34865 0.94378 0.88434 0.0
C2298 C 0.35163 0.93805 0.87518 0.0
C2299 C 0.33027 0.93471 0.88921 0.0
C2300 C 0.32543 0.94137 0.89874 0.0
C2301 C 0.32375 0.96422 0.90113 0.0
C2302 C 0.31935 0.97042 0.91011 0.0
C2303 C 0.31647 0.95392 0.91677 0.0
C2304 C 0.31794 0.93118 0.91445 0.0
C2305 C 0.32236 0.92489 0.90548 0.0
H2306 H 0.31306 0.95876 0.92372 0.0
H2307 H 0.35601 0.89821 0.83656 0.0
H2308 H 0.39956 0.99111 0.11688 0.0
H2309 H 0.36804 0.01174 0.12357 0.0
H2310 H 0.3761 0.06402 0.1035 0.0
H2311 H 0.40765 0.0436 0.09685 0.0
H2312 H 0.37342 0.08143 0.11997 0.0
H2313 H 0.33205 0.02636 0.10281 0.0
H2314 H 0.32132 0.98812 0.09798 0.0
H2315 H 0.30152 0.97218 0.12527 0.0
H2316 H 0.31243 0.01026 0.13029 0.0
H2317 H 0.27644 0.14477 0.12514 0.0
H2318 H 0.30172 0.11704 0.11852 0.0
H2319 H 0.29531 0.07567 0.14243 0.0
H2320 H 0.2695 0.10332 0.1491 0.0
H2321 H 0.29679 0.05121 0.12518 0.0
H2322 H 0.33753 0.10702 0.14211 0.0
H2323 H 0.34697 0.14585 0.14659 0.0
H2324 H 0.36763 0.16049 0.11928 0.0
H2325 H 0.3579 0.12184 0.1146 0.0
C2326 C 0.39437 0.00685 0.11382 0.0
C2327 C 0.40611 0.01584 0.10638 0.0
C2328 C 0.37637 0.0186 0.11765 0.0
C2329 C 0.36968 0.03938 0.11401 0.0
C2330 C 0.38107 0.04808 0.10644 0.0
C2331 C 0.3991 0.03643 0.10267 0.0
C2332 C 0.35162 0.05275 0.11833 0.0
C2333 C 0.35662 0.07485 0.121 0.0
C2334 C 0.32987 0.04396 0.11994 0.0
C2335 C 0.32329 0.02108 0.11694 0.0
C2336 C 0.32559 0.01464 0.10779 0.0
C2337 C 0.31944 0.99301 0.10502 0.0
C2338 C 0.3108 0.97771 0.11132 0.0
C2339 C 0.30825 0.98404 0.1204 0.0
C2340 C 0.3144 0.00565 0.12321 0.0
C2341 C 0.27986 0.1295 0.1289 0.0
C2342 C 0.27103 0.12625 0.13766 0.0
C2343 C 0.29442 0.11374 0.12513 0.0
C2344 C 0.30049 0.09449 0.13004 0.0
C2345 C 0.29078 0.09048 0.13856 0.0
C2346 C 0.27623 0.10634 0.14238 0.0
C2347 C 0.31861 0.07986 0.12658 0.0
C2348 C 0.31366 0.05761 0.12415 0.0
C2349 C 0.34045 0.08847 0.12515 0.0
C2350 C 0.3468 0.11158 0.12799 0.0
C2351 C 0.34394 0.11856 0.13705 0.0
C2352 C 0.34935 0.14053 0.13962 0.0
C2353 C 0.35785 0.15564 0.13322 0.0
C2354 C 0.36102 0.14877 0.12424 0.0
C2355 C 0.35557 0.12683 0.12162 0.0
H2356 H 0.36201 0.17265 0.13523 0.0
H2357 H 0.30604 0.96097 0.10916 0.0
H2358 H 0.11775 -0.00168 0.38651 0.0
H2359 H 0.14704 0.01812 0.378 0.0
H2360 H 0.10499 0.07714 0.37672 0.0
H2361 H 0.07541 0.05724 0.38485 0.0
H2362 H 0.12468 0.06957 0.36077 0.0
H2363 H 0.14776 0.07175 0.39241 0.0
H2364 H 0.15821 0.05483 0.40711 0.0
H2365 H 0.21257 0.0195 0.39432 0.0
H2366 H 0.20224 0.03601 0.37951 0.0
H2367 H 0.19396 0.16355 0.35596 0.0
H2368 H 0.16895 0.13409 0.36151 0.0
H2369 H 0.22142 0.08486 0.35793 0.0
H2370 H 0.2468 0.11449 0.35248 0.0
H2371 H 0.19974 0.08146 0.37462 0.0
H2372 H 0.17972 0.08458 0.34335 0.0
H2373 H 0.1694 0.1027 0.32888 0.0
H2374 H 0.10929 0.12881 0.34105 0.0
H2375 H 0.11941 0.11113 0.35563 0.0
C2376 C 0.11467 0.01542 0.38431 0.0
C2377 C 0.09433 0.02628 0.38641 0.0
C2378 C 0.13147 0.02676 0.37952 0.0
C2379 C 0.12826 0.04917 0.37681 0.0
C2380 C 0.10783 0.05986 0.37875 0.0
C2381 C 0.09103 0.04854 0.3835 0.0
C2382 C 0.1462 0.06189 0.37212 0.0
C2383 C 0.14107 0.07224 0.36381 0.0
C2384 C 0.16782 0.06474 0.37594 0.0
C2385 C 0.17406 0.05488 0.38484 0.0
C2386 C 0.16183 0.06023 0.39272 0.0
C2387 C 0.16775 0.05074 0.40107 0.0
C2388 C 0.186 0.03604 0.40164 0.0
C2389 C 0.19841 0.03085 0.39386 0.0
C2390 C 0.19254 0.04027 0.38549 0.0
C2391 C 0.20023 0.14648 0.3564 0.0
C2392 C 0.22233 0.1413 0.35382 0.0
C2393 C 0.18587 0.12964 0.35949 0.0
C2394 C 0.19329 0.10729 0.36002 0.0
C2395 C 0.21539 0.10202 0.35751 0.0
C2396 C 0.22978 0.11889 0.35436 0.0
C2397 C 0.1779 0.08973 0.36344 0.0
C2398 C 0.18351 0.07844 0.37149 0.0
C2399 C 0.15667 0.08607 0.3594 0.0
C2400 C 0.1504 0.09661 0.35061 0.0
C2401 C 0.16437 0.09431 0.34296 0.0
C2402 C 0.15855 0.10449 0.33473 0.0
C2403 C 0.13872 0.11693 0.33405 0.0
C2404 C 0.12465 0.11917 0.34159 0.0
C2405 C 0.1304 0.10904 0.34983 0.0
H2406 H 0.13424 0.1248 0.32767 0.0
H2407 H 0.19056 0.02871 0.40811 0.0
H2408 H 0.89337 0.99626 0.37821 0.0
H2409 H 0.86445 0.01919 0.37083 0.0
H2410 H 0.85903 0.05986 0.39504 0.0
H2411 H 0.88718 0.03631 0.40253 0.0
H2412 H 0.81961 0.05672 0.3875 0.0
H2413 H 0.89406 0.07414 0.37688 0.0
H2414 H 0.93101 0.06577 0.37012 0.0
H2415 H 0.89897 0.04398 0.34551 0.0
H2416 H 0.86178 0.05192 0.35219 0.0
H2417 H 0.79459 0.16476 0.36916 0.0
H2418 H 0.81324 0.13226 0.37609 0.0
H2419 H 0.79795 0.09233 0.35241 0.0
H2420 H 0.77894 0.12476 0.3455 0.0
H2421 H 0.84467 0.09198 0.35868 0.0
H2422 H 0.76958 0.08044 0.36956 0.0
H2423 H 0.73407 0.09172 0.37685 0.0
H2424 H 0.7693 0.10615 0.40163 0.0
H2425 H 0.8051 0.09529 0.39443 0.0
C2426 C 0.88559 0.00981 0.38198 0.0
C2427 C 0.89249 0.0147 0.39088 0.0
C2428 C 0.86919 0.02295 0.37777 0.0
C2429 C 0.86 0.04159 0.3823 0.0
C2430 C 0.86593 0.04561 0.3914 0.0
C2431 C 0.882 0.03219 0.39567 0.0
C2432 C 0.84574 0.05802 0.37739 0.0
C2433 C 0.82514 0.06448 0.38122 0.0
C2434 C 0.85281 0.06799 0.36912 0.0
C2435 C 0.87515 0.06337 0.36507 0.0
C2436 C 0.89489 0.06742 0.37005 0.0
C2437 C 0.91588 0.06277 0.36624 0.0
C2438 C 0.91733 0.05429 0.3574 0.0
C2439 C 0.89781 0.05051 0.35236 0.0
C2440 C 0.87678 0.05508 0.35616 0.0
C2441 C 0.79524 0.14904 0.36545 0.0
C2442 C 0.78545 0.14718 0.3568 0.0
C2443 C 0.80572 0.13051 0.36942 0.0
C2444 C 0.80677 0.10995 0.36477 0.0
C2445 C 0.79716 0.10808 0.3561 0.0
C2446 C 0.78632 0.12652 0.35219 0.0
C2447 C 0.81878 0.09075 0.36885 0.0
C2448 C 0.839 0.08389 0.36487 0.0
C2449 C 0.81158 0.0808 0.37706 0.0
C2450 C 0.79006 0.08722 0.38143 0.0
C2451 C 0.76979 0.08621 0.37654 0.0
C2452 C 0.7496 0.09249 0.38066 0.0
C2453 C 0.74943 0.09969 0.38969 0.0
C2454 C 0.76946 0.10058 0.39463 0.0
C2455 C 0.7897 0.09434 0.39053 0.0
H2456 H 0.73378 0.10454 0.39287 0.0
H2457 H 0.93359 0.0507 0.35446 0.0
H2458 H 0.63528 0.00711 0.10263 0.0
H2459 H 0.66489 0.03202 0.1083 0.0
H2460 H 0.6155 0.0834 0.11371 0.0
H2461 H 0.58611 0.05912 0.10769 0.0
H2462 H 0.65144 0.10126 0.10617 0.0
H2463 H 0.63685 0.0487 0.13061 0.0
H2464 H 0.63403 0.01102 0.13752 0.0
H2465 H 0.70354 -0.00128 0.13158 0.0
H2466 H 0.70668 0.03624 0.12452 0.0
H2467 H 0.69628 0.17071 0.13992 0.0
H2468 H 0.67463 0.14202 0.13195 0.0
H2469 H 0.7355 0.10576 0.12589 0.0
H2470 H 0.75753 0.13482 0.13365 0.0
H2471 H 0.69916 0.07833 0.13221 0.0
H2472 H 0.7142 0.13365 0.10947 0.0
H2473 H 0.71632 0.172 0.10316 0.0
H2474 H 0.64506 0.17959 0.10636 0.0
H2475 H 0.64256 0.14139 0.11282 0.0
C2476 C 0.63079 0.02382 0.10493 0.0
C2477 C 0.6083 0.03107 0.10478 0.0
C2478 C 0.6477 0.03794 0.10824 0.0
C2479 C 0.64235 0.05945 0.11153 0.0
C2480 C 0.62 0.06684 0.11123 0.0
C2481 C 0.60317 0.05283 0.10788 0.0
C2482 C 0.65981 0.07441 0.1154 0.0
C2483 C 0.66179 0.09626 0.11189 0.0
C2484 C 0.6738 0.06767 0.12269 0.0
C2485 C 0.67193 0.04515 0.12694 0.0
C2486 C 0.65148 0.03789 0.13071 0.0
C2487 C 0.64983 0.01657 0.13467 0.0
C2488 C 0.66857 0.00245 0.13496 0.0
C2489 C 0.68902 0.00965 0.13133 0.0
C2490 C 0.69075 0.03094 0.12735 0.0
C2491 C 0.70515 0.15677 0.13682 0.0
C2492 C 0.72867 0.15522 0.13733 0.0
C2493 C 0.69273 0.14034 0.13232 0.0
C2494 C 0.70354 0.12198 0.12826 0.0
C2495 C 0.72691 0.11987 0.12898 0.0
C2496 C 0.73942 0.13644 0.13345 0.0
C2497 C 0.69019 0.10528 0.12315 0.0
C2498 C 0.68905 0.08315 0.1264 0.0
C2499 C 0.67683 0.11178 0.11566 0.0
C2500 C 0.67822 0.1347 0.11169 0.0
C2501 C 0.699 0.14355 0.10889 0.0
C2502 C 0.70027 0.16526 0.10528 0.0
C2503 C 0.68085 0.17824 0.10437 0.0
C2504 C 0.6601 0.16951 0.10706 0.0
C2505 C 0.65874 0.14783 0.11069 0.0
H2506 H 0.68186 0.19504 0.10158 0.0
H2507 H 0.66726 0.98596 0.13803 0.0
H2508 H 0.74814 0.86165 0.8546 0.0
H2509 H 0.72369 0.89148 0.86045 0.0
H2510 H 0.67285 0.84216 0.86671 0.0
H2511 H 0.69691 0.81243 0.86069 0.0
H2512 H 0.65526 0.87924 0.85857 0.0
H2513 H 0.7067 0.86261 0.88315 0.0
H2514 H 0.74413 0.85852 0.89012 0.0
H2515 H 0.75858 0.92787 0.88444 0.0
H2516 H 0.72131 0.93228 0.87732 0.0
H2517 H 0.58502 0.93036 0.89059 0.0
H2518 H 0.61228 0.90626 0.88295 0.0
H2519 H 0.65623 0.96317 0.87914 0.0
H2520 H 0.6289 0.9875 0.88678 0.0
H2521 H 0.67908 0.92613 0.88475 0.0
H2522 H 0.62632 0.94388 0.8615 0.0
H2523 H 0.58885 0.94819 0.85459 0.0
H2524 H 0.57696 0.87733 0.85755 0.0
H2525 H 0.61424 0.87264 0.8646 0.0
C2526 C 0.73167 0.85724 0.85715 0.0
C2527 C 0.72448 0.83471 0.85726 0.0
C2528 C 0.71781 0.87424 0.86054 0.0
C2529 C 0.69657 0.86896 0.86408 0.0
C2530 C 0.68921 0.84656 0.86402 0.0
C2531 C 0.70304 0.82958 0.86067 0.0
C2532 C 0.68197 0.88662 0.86797 0.0
C2533 C 0.66038 0.8894 0.86433 0.0
C2534 C 0.68899 0.90033 0.8753 0.0
C2535 C 0.71134 0.8977 0.87961 0.0
C2536 C 0.71793 0.87694 0.88332 0.0
C2537 C 0.7391 0.87457 0.88731 0.0
C2538 C 0.75375 0.89291 0.8877 0.0
C2539 C 0.74723 0.91367 0.88412 0.0
C2540 C 0.72608 0.91612 0.88011 0.0
C2541 C 0.60041 0.93779 0.88807 0.0
C2542 C 0.60474 0.96085 0.88921 0.0
C2543 C 0.61597 0.924 0.88372 0.0
C2544 C 0.63609 0.93303 0.88035 0.0
C2545 C 0.64076 0.95592 0.88167 0.0
C2546 C 0.62518 0.96976 0.88605 0.0
C2547 C 0.65216 0.91836 0.87549 0.0
C2548 C 0.67402 0.91618 0.87892 0.0
C2549 C 0.64543 0.90524 0.86794 0.0
C2550 C 0.62304 0.90794 0.86364 0.0
C2551 C 0.61566 0.92924 0.86074 0.0
C2552 C 0.59446 0.93175 0.85679 0.0
C2553 C 0.58052 0.91305 0.85565 0.0
C2554 C 0.58778 0.8918 0.85844 0.0
C2555 C 0.60895 0.8892 0.8624 0.0
H2556 H 0.56411 0.91503 0.85259 0.0
H2557 H 0.77013 0.89104 0.89079 0.0
H2558 H 0.79339 0.86105 0.65499 0.0
H2559 H 0.814 0.89185 0.64792 0.0
H2560 H 0.77402 0.88473 0.62363 0.0
H2561 H 0.75397 0.85319 0.63053 0.0
H2562 H 0.8168 0.88552 0.61954 0.0
H2563 H 0.76903 0.93145 0.63746 0.0
H2564 H 0.74937 0.94436 0.65124 0.0
H2565 H 0.81261 0.95777 0.66416 0.0
H2566 H 0.83269 0.94463 0.65051 0.0
H2567 H 0.87668 0.97654 0.59979 0.0
H2568 H 0.84478 0.9559 0.60614 0.0
H2569 H 0.87999 0.94914 0.6316 0.0
H2570 H 0.91204 0.96941 0.62528 0.0
H2571 H 0.83469 0.95888 0.63389 0.0
H2572 H 0.88151 0.90734 0.6167 0.0
H2573 H 0.90107 0.89429 0.60291 0.0
H2574 H 0.83834 0.89173 0.58856 0.0
H2575 H 0.81844 0.90508 0.60224 0.0
C2576 C 0.78892 0.86609 0.64816 0.0
C2577 C 0.77217 0.85456 0.6433 0.0
C2578 C 0.80051 0.88391 0.64416 0.0
C2579 C 0.7954 0.89075 0.63527 0.0
C2580 C 0.77816 0.87978 0.63052 0.0
C2581 C 0.76662 0.86187 0.6345 0.0
C2582 C 0.80953 0.90785 0.6307 0.0
C2583 C 0.82025 0.90179 0.62257 0.0
C2584 C 0.81436 0.92892 0.63473 0.0
C2585 C 0.80237 0.9369 0.64297 0.0
C2586 C 0.77876 0.93699 0.64326 0.0
C2587 C 0.76754 0.94438 0.65105 0.0
C2588 C 0.77973 0.95185 0.65858 0.0
C2589 C 0.80318 0.95198 0.65833 0.0
C2590 C 0.8145 0.94459 0.65056 0.0
C2591 C 0.87762 0.97066 0.60674 0.0
C2592 C 0.89698 0.97442 0.61201 0.0
C2593 C 0.85934 0.95901 0.61037 0.0
C2594 C 0.86015 0.95088 0.61931 0.0
C2595 C 0.87903 0.95539 0.62469 0.0
C2596 C 0.89732 0.96699 0.62108 0.0
C2597 C 0.8421 0.93628 0.62287 0.0
C2598 C 0.83076 0.94279 0.6308 0.0
C2599 C 0.83661 0.91563 0.61865 0.0
C2600 C 0.84854 0.90746 0.61045 0.0
C2601 C 0.87192 0.90417 0.61058 0.0
C2602 C 0.88306 0.89669 0.60279 0.0
C2603 C 0.87096 0.89225 0.59485 0.0
C2604 C 0.84769 0.89522 0.5947 0.0
C2605 C 0.83647 0.90273 0.60247 0.0
H2606 H 0.87962 0.88646 0.58883 0.0
H2607 H 0.77101 0.95756 0.6646 0.0
H2608 H 0.74172 0.38023 0.14526 0.0
H2609 H 0.71958 0.41011 0.13811 0.0
H2610 H 0.69499 0.36272 0.11825 0.0
H2611 H 0.71723 0.33295 0.12528 0.0
H2612 H 0.70455 0.40186 0.11038 0.0
H2613 H 0.66397 0.37736 0.13707 0.0
H2614 H 0.65927 0.36974 0.15343 0.0
H2615 H 0.67239 0.43918 0.15947 0.0
H2616 H 0.67746 0.44714 0.14315 0.0
H2617 H 0.59989 0.44524 0.09636 0.0
H2618 H 0.63142 0.42384 0.10251 0.0
H2619 H 0.64966 0.48025 0.11942 0.0
H2620 H 0.61778 0.50163 0.11342 0.0
H2621 H 0.64729 0.44132 0.12896 0.0
H2622 H 0.68242 0.4663 0.10167 0.0
H2623 H 0.68581 0.4731 0.08521 0.0
H2624 H 0.68171 0.40211 0.08011 0.0
H2625 H 0.67797 0.39488 0.09654 0.0
C2626 C 0.7316 0.37625 0.13936 0.0
C2627 C 0.7311 0.35428 0.13584 0.0
C2628 C 0.719 0.39331 0.13528 0.0
C2629 C 0.70545 0.38857 0.12771 0.0
C2630 C 0.7054 0.36677 0.12406 0.0
C2631 C 0.71811 0.34978 0.12808 0.0
C2632 C 0.69054 0.40595 0.12377 0.0
C2633 C 0.69195 0.41042 0.11443 0.0
C2634 C 0.6745 0.41754 0.1291 0.0
C2635 C 0.67136 0.41278 0.13891 0.0
C2636 C 0.66602 0.39096 0.1419 0.0
C2637 C 0.66327 0.38659 0.15116 0.0
C2638 C 0.6656 0.40395 0.15749 0.0
C2639 C 0.67064 0.42574 0.15457 0.0
C2640 C 0.67344 0.43019 0.14531 0.0
C2641 C 0.61067 0.45311 0.10136 0.0
C2642 C 0.60634 0.47506 0.10443 0.0
C2643 C 0.6288 0.44096 0.10481 0.0
C2644 C 0.64298 0.45056 0.11136 0.0
C2645 C 0.63896 0.47261 0.11433 0.0
C2646 C 0.62085 0.48483 0.11086 0.0
C2647 C 0.66099 0.43689 0.11554 0.0
C2648 C 0.66014 0.43308 0.12493 0.0
C2649 C 0.67741 0.42581 0.11023 0.0
C2650 C 0.67977 0.43007 0.10034 0.0
C2651 C 0.68208 0.45214 0.09704 0.0
C2652 C 0.68409 0.45608 0.08771 0.0
C2653 C 0.68394 0.43806 0.08162 0.0
C2654 C 0.68182 0.41606 0.08484 0.0
C2655 C 0.67979 0.41203 0.09416 0.0
H2656 H 0.6855 0.44114 0.0744 0.0
H2657 H 0.66346 0.40053 0.16466 0.0
H2658 H 0.76379 0.37786 0.35625 0.0
H2659 H 0.78707 0.4083 0.36239 0.0
H2660 H 0.83824 0.35998 0.36956 0.0
H2661 H 0.81454 0.32957 0.36384 0.0
H2662 H 0.83588 0.38858 0.38226 0.0
H2663 H 0.84034 0.39413 0.34976 0.0
H2664 H 0.82558 0.39787 0.33418 0.0
H2665 H 0.79627 0.46161 0.34106 0.0
H2666 H 0.81063 0.4581 0.35673 0.0
H2667 H 0.92602 0.47758 0.37101 0.0
H2668 H 0.89598 0.45283 0.36592 0.0
H2669 H 0.86194 0.4617 0.39154 0.0
H2670 H 0.89282 0.48493 0.39698 0.0
H2671 H 0.85372 0.45438 0.36283 0.0
H2672 H 0.83644 0.41369 0.39783 0.0
H2673 H 0.85605 0.40684 0.41234 0.0
H2674 H 0.91955 0.40761 0.39853 0.0
H2675 H 0.90029 0.41413 0.38393 0.0
C2676 C 0.77996 0.37384 0.35921 0.0
C2677 C 0.78747 0.35148 0.35959 0.0
C2678 C 0.79328 0.3912 0.36267 0.0
C2679 C 0.81459 0.3865 0.36631 0.0
C2680 C 0.82186 0.36405 0.36682 0.0
C2681 C 0.80835 0.34669 0.36354 0.0
C2682 C 0.82966 0.40485 0.36942 0.0
C2683 C 0.83967 0.40301 0.37802 0.0
C2684 C 0.83492 0.42355 0.36385 0.0
C2685 C 0.82634 0.42574 0.35443 0.0
C2686 C 0.83061 0.40887 0.34796 0.0
C2687 C 0.82234 0.41095 0.33912 0.0
C2688 C 0.80994 0.42994 0.33664 0.0
C2689 C 0.80584 0.4469 0.343 0.0
C2690 C 0.81405 0.44488 0.35186 0.0
C2691 C 0.91227 0.47414 0.37561 0.0
C2692 C 0.91217 0.48291 0.38449 0.0
C2693 C 0.8949 0.46022 0.37263 0.0
C2694 C 0.87691 0.45502 0.37841 0.0
C2695 C 0.87591 0.46507 0.38703 0.0
C2696 C 0.8935 0.47863 0.39009 0.0
C2697 C 0.86012 0.43793 0.37561 0.0
C2698 C 0.84972 0.44006 0.3671 0.0
C2699 C 0.8552 0.41898 0.3811 0.0
C2700 C 0.86693 0.41467 0.38982 0.0
C2701 C 0.85457 0.41231 0.39789 0.0
C2702 C 0.86563 0.40849 0.40613 0.0
C2703 C 0.88903 0.40687 0.40636 0.0
C2704 C 0.90143 0.40895 0.39835 0.0
C2705 C 0.89046 0.41271 0.39009 0.0
H2706 H 0.89756 0.40396 0.41275 0.0
H2707 H 0.80355 0.43152 0.32979 0.0
H2708 H 0.939 0.56321 0.60874 0.0
H2709 H 0.91084 0.58465 0.61708 0.0
H2710 H 0.86698 0.52688 0.61727 0.0
H2711 H 0.89498 0.5054 0.60866 0.0
H2712 H 0.84469 0.56543 0.61286 0.0
H2713 H 0.89375 0.54093 0.63632 0.0
H2714 H 0.93001 0.53424 0.64394 0.0
H2715 H 0.94271 0.60531 0.6446 0.0
H2716 H 0.90666 0.61243 0.63687 0.0
H2717 H 0.77205 0.6238 0.64373 0.0
H2718 H 0.7969 0.59488 0.63743 0.0
H2719 H 0.84919 0.64442 0.63407 0.0
H2720 H 0.82467 0.67324 0.64052 0.0
H2721 H 0.8649 0.60508 0.64139 0.0
H2722 H 0.81767 0.62858 0.61629 0.0
H2723 H 0.78145 0.63503 0.6086 0.0
H2724 H 0.76517 0.56497 0.61123 0.0
H2725 H 0.8012 0.55817 0.61905 0.0
C2726 C 0.92329 0.55511 0.61047 0.0
C2727 C 0.91916 0.53264 0.60803 0.0
C2728 C 0.90732 0.5673 0.61533 0.0
C2729 C 0.88699 0.55723 0.61789 0.0
C2730 C 0.88265 0.53488 0.61539 0.0
C2731 C 0.89868 0.52262 0.61053 0.0
C2732 C 0.87021 0.57039 0.62304 0.0
C2733 C 0.84892 0.57373 0.6192 0.0
C2734 C 0.87588 0.58138 0.63125 0.0
C2735 C 0.89755 0.5772 0.63595 0.0
C2736 C 0.90434 0.55513 0.63803 0.0
C2737 C 0.92485 0.55126 0.64238 0.0
C2738 C 0.93867 0.56933 0.64474 0.0
C2739 C 0.93199 0.59133 0.64277 0.0
C2740 C 0.9115 0.59529 0.63841 0.0
C2741 C 0.78892 0.62845 0.64172 0.0
C2742 C 0.79641 0.65078 0.64256 0.0
C2743 C 0.80301 0.61197 0.63808 0.0
C2744 C 0.82478 0.6176 0.63523 0.0
C2745 C 0.83242 0.63978 0.63622 0.0
C2746 C 0.81834 0.65624 0.63982 0.0
C2747 C 0.83965 0.60058 0.63107 0.0
C2748 C 0.86057 0.59648 0.63512 0.0
C2749 C 0.8336 0.58885 0.62307 0.0
C2750 C 0.81199 0.59292 0.61835 0.0
C2751 C 0.80628 0.61459 0.61529 0.0
C2752 C 0.7858 0.6183 0.6109 0.0
C2753 C 0.77098 0.60043 0.60945 0.0
C2754 C 0.77664 0.5788 0.61237 0.0
C2755 C 0.79709 0.57501 0.61678 0.0
H2756 H 0.75514 0.60333 0.60604 0.0
H2757 H 0.95454 0.5663 0.64811 0.0
H2758 H 0.75985 0.61863 0.86637 0.0
H2759 H 0.73742 0.59014 0.87427 0.0
H2760 H 0.67826 0.63111 0.87096 0.0
H2761 H 0.70013 0.65911 0.86275 0.0
H2762 H 0.68594 0.61482 0.88906 0.0
H2763 H 0.68419 0.58886 0.85763 0.0
H2764 H 0.7019 0.57599 0.84341 0.0
H2765 H 0.73287 0.52113 0.85765 0.0
H2766 H 0.71558 0.53389 0.87199 0.0
H2767 H 0.58779 0.55405 0.89512 0.0
H2768 H 0.61915 0.57606 0.88931 0.0
H2769 H 0.66276 0.51846 0.89191 0.0
H2770 H 0.63116 0.49615 0.89771 0.0
H2771 H 0.66954 0.53957 0.87604 0.0
H2772 H 0.66717 0.56143 0.90694 0.0
H2773 H 0.6502 0.57373 0.92138 0.0
H2774 H 0.629 0.63546 0.90891 0.0
H2775 H 0.64554 0.6234 0.89435 0.0
C2776 C 0.74202 0.62146 0.86722 0.0
C2777 C 0.73184 0.64127 0.86396 0.0
C2778 C 0.72929 0.60523 0.87178 0.0
C2779 C 0.70627 0.60866 0.87321 0.0
C2780 C 0.69608 0.62832 0.86998 0.0
C2781 C 0.70867 0.64437 0.86534 0.0
C2782 C 0.69248 0.5919 0.87806 0.0
C2783 C 0.68228 0.59837 0.88623 0.0
C2784 C 0.68852 0.57017 0.87451 0.0
C2785 C 0.69884 0.5625 0.8659 0.0
C2786 C 0.69496 0.57419 0.85774 0.0
C2787 C 0.70488 0.56689 0.84966 0.0
C2788 C 0.71857 0.5478 0.84963 0.0
C2789 C 0.72231 0.53594 0.85769 0.0
C2790 C 0.71245 0.5432 0.86579 0.0
C2791 C 0.60411 0.54612 0.89455 0.0
C2792 C 0.60711 0.52347 0.89697 0.0
C2793 C 0.62202 0.55871 0.89123 0.0
C2794 C 0.64339 0.54902 0.89035 0.0
C2795 C 0.64642 0.52628 0.89259 0.0
C2796 C 0.62839 0.51357 0.89588 0.0
C2797 C 0.66226 0.56281 0.8869 0.0
C2798 C 0.67351 0.5558 0.87901 0.0
C2799 C 0.6674 0.58399 0.89076 0.0
C2800 C 0.65751 0.59144 0.89953 0.0
C2801 C 0.65877 0.57757 0.90725 0.0
C2802 C 0.64924 0.58451 0.91546 0.0
C2803 C 0.63851 0.60535 0.91606 0.0
C2804 C 0.63732 0.61932 0.90844 0.0
C2805 C 0.64681 0.61245 0.90021 0.0
H2806 H 0.63114 0.61069 0.92242 0.0
H2807 H 0.72623 0.54217 0.84337 0.0
H2808 H 0.41197 0.55643 0.90137 0.0
H2809 H 0.38199 0.57911 0.89473 0.0
H2810 H 0.36194 0.52295 0.87802 0.0
H2811 H 0.39226 0.5002 0.88456 0.0
H2812 H 0.366 0.56196 0.86833 0.0
H2813 H 0.32915 0.538 0.8953 0.0
H2814 H 0.32488 0.53087 0.91171 0.0
H2815 H 0.33156 0.6015 0.91716 0.0
H2816 H 0.33621 0.60904 0.9008 0.0
H2817 H 0.2751 0.62857 0.85199 0.0
H2818 H 0.29509 0.5972 0.85909 0.0
H2819 H 0.32268 0.64252 0.87909 0.0
H2820 H 0.30211 0.67371 0.87227 0.0
H2821 H 0.31009 0.60368 0.88677 0.0
H2822 H 0.3527 0.62658 0.86028 0.0
H2823 H 0.35807 0.63413 0.84395 0.0
H2824 H 0.34123 0.5656 0.83773 0.0
H2825 H 0.33548 0.55774 0.85402 0.0
C2826 C 0.40118 0.54892 0.89628 0.0
C2827 C 0.40446 0.52659 0.89346 0.0
C2828 C 0.38393 0.56181 0.89256 0.0
C2829 C 0.36961 0.5526 0.88596 0.0
C2830 C 0.37275 0.53028 0.88315 0.0
C2831 C 0.38996 0.51731 0.88692 0.0
C2832 C 0.35219 0.56685 0.8817 0.0
C2833 C 0.35342 0.57071 0.87232 0.0
C2834 C 0.33606 0.57849 0.88696 0.0
C2835 C 0.33317 0.57406 0.89682 0.0
C2836 C 0.32988 0.552 0.9 0.0
C2837 C 0.32736 0.54789 0.9093 0.0
C2838 C 0.32799 0.56572 0.91548 0.0
C2839 C 0.33108 0.58771 0.91237 0.0
C2840 C 0.33363 0.59191 0.90308 0.0
C2841 C 0.28517 0.63178 0.85798 0.0
C2842 C 0.28722 0.65367 0.86151 0.0
C2843 C 0.2967 0.61387 0.86198 0.0
C2844 C 0.31058 0.6176 0.86954 0.0
C2845 C 0.3121 0.63929 0.87324 0.0
C2846 C 0.30054 0.65714 0.86927 0.0
C2847 C 0.32431 0.59923 0.87345 0.0
C2848 C 0.32238 0.59461 0.88276 0.0
C2849 C 0.33986 0.58695 0.86813 0.0
C2850 C 0.34339 0.59165 0.85835 0.0
C2851 C 0.34997 0.61318 0.85542 0.0
C2852 C 0.35311 0.6175 0.84617 0.0
C2853 C 0.34992 0.60037 0.8398 0.0
C2854 C 0.34365 0.57886 0.84267 0.0
C2855 C 0.34045 0.57446 0.85191 0.0
H2856 H 0.35236 0.60375 0.83265 0.0
H2857 H 0.32603 0.5625 0.92267 0.0
H2858 H 0.11013 0.55963 0.59576 0.0
H2859 H 0.13957 0.5811 0.60332 0.0
H2860 H 0.15975 0.52181 0.61813 0.0
H2861 H 0.12972 0.5003 0.61074 0.0
H2862 H 0.15473 0.55706 0.62923 0.0
H2863 H 0.19373 0.54331 0.60171 0.0
H2864 H 0.19935 0.54105 0.58514 0.0
H2865 H 0.18908 0.6123 0.58283 0.0
H2866 H 0.18307 0.61496 0.59937 0.0
H2867 H 0.24248 0.6248 0.64851 0.0
H2868 H 0.22359 0.59431 0.6403 0.0
H2869 H 0.19125 0.64299 0.62295 0.0
H2870 H 0.21041 0.67341 0.63095 0.0
H2871 H 0.2082 0.60754 0.61335 0.0
H2872 H 0.16333 0.61944 0.64048 0.0
H2873 H 0.15722 0.62159 0.65702 0.0
H2874 H 0.17891 0.55309 0.65993 0.0
H2875 H 0.18542 0.55064 0.6434 0.0
C2876 C 0.12089 0.55113 0.6006 0.0
C2877 C 0.11756 0.52833 0.6027 0.0
C2878 C 0.13788 0.56335 0.60484 0.0
C2879 C 0.15201 0.55299 0.61122 0.0
C2880 C 0.14909 0.53008 0.61319 0.0
C2881 C 0.13205 0.5178 0.60893 0.0
C2882 C 0.16859 0.56669 0.61627 0.0
C2883 C 0.16682 0.56769 0.62577 0.0
C2884 C 0.18413 0.58077 0.61175 0.0
C2885 C 0.18783 0.5793 0.60179 0.0
C2886 C 0.19251 0.55848 0.59766 0.0
C2887 C 0.19579 0.55713 0.58828 0.0
C2888 C 0.19454 0.57651 0.58294 0.0
C2889 C 0.19005 0.5973 0.58698 0.0
C2890 C 0.18674 0.59874 0.59636 0.0
C2891 C 0.23143 0.62896 0.64291 0.0
C2892 C 0.22778 0.65149 0.64041 0.0
C2893 C 0.2206 0.61155 0.63826 0.0
C2894 C 0.20596 0.61644 0.63106 0.0
C2895 C 0.2025 0.63889 0.6285 0.0
C2896 C 0.21325 0.65626 0.63314 0.0
C2897 C 0.19379 0.59834 0.62623 0.0
C2898 C 0.19643 0.59652 0.61679 0.0
C2899 C 0.17909 0.58349 0.63081 0.0
C2900 C 0.17513 0.58495 0.64073 0.0
C2901 C 0.16698 0.6049 0.64466 0.0
C2902 C 0.1634 0.60616 0.65403 0.0
C2903 C 0.16774 0.58751 0.65953 0.0
C2904 C 0.1756 0.56754 0.65566 0.0
C2905 C 0.17923 0.5662 0.6463 0.0
H2906 H 0.16496 0.58852 0.66678 0.0
H2907 H 0.19708 0.57543 0.57567 0.0
H2908 H 0.10421 0.43551 0.39677 0.0
H2909 H 0.13475 0.41204 0.39113 0.0
H2910 H 0.16678 0.47052 0.37957 0.0
H2911 H 0.1361 0.49416 0.38519 0.0
H2912 H 0.16478 0.43765 0.36754 0.0
H2913 H 0.18957 0.44393 0.39805 0.0
H2914 H 0.18672 0.44332 0.41475 0.0
H2915 H 0.17014 0.37306 0.41402 0.0
H2916 H 0.17256 0.3733 0.3973 0.0
H2917 H 0.25671 0.36727 0.35417 0.0
H2918 H 0.23632 0.39738 0.36205 0.0
H2919 H 0.19073 0.34835 0.3733 0.0
H2920 H 0.21105 0.31828 0.36551 0.0
H2921 H 0.20507 0.38059 0.38596 0.0
H2922 H 0.17523 0.37678 0.35528 0.0
H2923 H 0.1782 0.3778 0.33858 0.0
H2924 H 0.20536 0.44464 0.3399 0.0
H2925 H 0.20283 0.44388 0.35663 0.0
C2926 C 0.11796 0.44344 0.39318 0.0
C2927 C 0.11778 0.46667 0.39142 0.0
C2928 C 0.13543 0.43002 0.38997 0.0
C2929 C 0.15319 0.43958 0.38502 0.0
C2930 C 0.15325 0.46282 0.38338 0.0
C2931 C 0.1357 0.47627 0.38657 0.0
C2932 C 0.17075 0.42495 0.38105 0.0
C2933 C 0.17398 0.42554 0.37161 0.0
C2934 C 0.18254 0.40895 0.38633 0.0
C2935 C 0.18111 0.40868 0.3964 0.0
C2936 C 0.18515 0.42838 0.40144 0.0
C2937 C 0.18364 0.4281 0.41092 0.0
C2938 C 0.17822 0.40818 0.41544 0.0
C2939 C 0.17434 0.38848 0.41051 0.0
C2940 C 0.17581 0.38867 0.40103 0.0
C2941 C 0.24245 0.36296 0.35839 0.0
C2942 C 0.2353 0.34052 0.35918 0.0
C2943 C 0.23082 0.38012 0.36286 0.0
C2944 C 0.212 0.37503 0.36821 0.0
C2945 C 0.20523 0.35258 0.3692 0.0
C2946 C 0.2167 0.33547 0.36469 0.0
C2947 C 0.1986 0.39306 0.37249 0.0
C2948 C 0.19617 0.39305 0.38196 0.0
C2949 C 0.18765 0.40969 0.36725 0.0
C2950 C 0.18911 0.41016 0.3572 0.0
C2951 C 0.18202 0.39161 0.35201 0.0
C2952 C 0.18359 0.39216 0.34254 0.0
C2953 C 0.19204 0.41124 0.33818 0.0
C2954 C 0.19887 0.42985 0.34328 0.0
C2955 C 0.19737 0.42937 0.35276 0.0
H2956 H 0.19323 0.41164 0.33085 0.0
H2957 H 0.17705 0.40799 0.42278 0.0
H2958 H 0.42558 0.43809 0.10809 0.0
H2959 H 0.39679 0.41168 0.11317 0.0
H2960 H 0.34751 0.46484 0.11288 0.0
H2961 H 0.37643 0.49152 0.10777 0.0
H2962 H 0.34756 0.43816 0.12896 0.0
H2963 H 0.34405 0.42844 0.09683 0.0
H2964 H 0.35922 0.4226 0.08143 0.0
H2965 H 0.38622 0.35875 0.08957 0.0
H2966 H 0.37152 0.36435 0.10506 0.0
H2967 H 0.26329 0.35598 0.13858 0.0
H2968 H 0.28347 0.38709 0.13141 0.0
H2969 H 0.33932 0.34296 0.12586 0.0
H2970 H 0.31889 0.31161 0.13261 0.0
H2971 H 0.33083 0.36859 0.1116 0.0
H2972 H 0.33931 0.38026 0.14393 0.0
H2973 H 0.32586 0.38595 0.15961 0.0
H2974 H 0.29101 0.44575 0.15133 0.0
H2975 H 0.30402 0.44024 0.13557 0.0
C2976 C 0.40863 0.44417 0.10914 0.0
C2977 C 0.4032 0.46683 0.10758 0.0
C2978 C 0.39219 0.42906 0.11198 0.0
C2979 C 0.37004 0.43632 0.11332 0.0
C2980 C 0.36453 0.45896 0.11183 0.0
C2981 C 0.38098 0.4741 0.10889 0.0
C2982 C 0.35294 0.42011 0.11647 0.0
C2983 C 0.34346 0.42316 0.1251 0.0
C2984 C 0.34802 0.40043 0.11147 0.0
C2985 C 0.3568 0.3969 0.10213 0.0
C2986 C 0.35337 0.41323 0.09536 0.0
C2987 C 0.36186 0.40995 0.08661 0.0
C2988 C 0.37371 0.39033 0.08453 0.0
C2989 C 0.37705 0.37394 0.09119 0.0
C2990 C 0.36861 0.37715 0.09996 0.0
C2991 C 0.27975 0.35284 0.13573 0.0
C2992 C 0.28953 0.33133 0.13621 0.0
C2993 C 0.29134 0.37069 0.13172 0.0
C2994 C 0.31299 0.3674 0.12819 0.0
C2995 C 0.32264 0.34589 0.12855 0.0
C2996 C 0.31104 0.32804 0.13251 0.0
C2997 C 0.32589 0.38628 0.12421 0.0
C2998 C 0.33457 0.38374 0.11541 0.0
C2999 C 0.33021 0.40635 0.12909 0.0
C3000 C 0.3224 0.40968 0.13856 0.0
C3001 C 0.32862 0.39451 0.14544 0.0
C3002 C 0.32111 0.39773 0.15434 0.0
C3003 C 0.30753 0.41616 0.15646 0.0
C3004 C 0.30149 0.43146 0.14968 0.0
C3005 C 0.30893 0.4283 0.14077 0.0
H3006 H 0.30173 0.41862 0.16336 0.0
H3007 H 0.38027 0.38782 0.07775 0.0
loop_
_geom_bond_atom_site_label_1
_geom_bond_atom_site_label_2
_geom_bond_distance
_geom_bond_site_symmetry_2
_ccdc_geom_bond_type
Li0 N17 1.990 . S
Li0 O60 1.956 . S
Li0 O61 1.970 1_455 S
Li0 O62 1.961 . S
Li1 N25 1.990 . S
Li1 O60 1.970 . S
Li1 O61 1.956 1_455 S
Li1 O63 1.961 . S
Li2 N47 1.990 . S
Li2 O60 1.961 . S
Li2 O62 1.956 . S
Li2 O63 1.970 . S
Li3 N53 1.990 . S
Li3 O61 1.961 . S
Li3 O62 1.970 1_655 S
Li3 O63 1.956 1_655 S
C4 C6 1.348 . S
C4 C7 1.356 . S
C4 O60 1.325 . S
N5 C8 1.314 . S
N5 C9 1.279 . S
C6 C4 1.348 . S
C6 C8 1.353 . S
C6 H64 0.929 . S
C7 C4 1.356 . S
C7 C9 1.358 . S
C7 H65 0.930 . S
C8 N5 1.314 . S
C8 C6 1.353 . S
C8 H66 0.930 . S
C9 N5 1.279 . S
C9 C7 1.358 . S
C9 H67 0.930 . S
C10 C13 1.348 . S
C10 C14 1.356 . S
C10 O61 1.325 . S
C11 N12 1.279 . S
C11 C14 1.358 . S
C11 H68 0.930 . S
N12 C11 1.279 . S
N12 C15 1.314 . S
C13 C10 1.348 . S
C13 C15 1.353 . S
C13 H69 0.929 . S
C14 C10 1.356 . S
C14 C11 1.358 . S
C14 H70 0.930 . S
C15 N12 1.314 . S
C15 C13 1.353 . S
C15 H71 0.930 . S
C16 N17 1.314 1_655 S
C16 C21 1.353 . S
C16 H22 0.930 . S
N17 Li0 1.990 . S
N17 C16 1.314 1_455 S
N17 C19 1.279 . S
C18 C19 1.358 . S
C18 C20 1.356 . S
C18 H72 0.930 . S
C19 N17 1.279 . S
C19 C18 1.358 . S
C19 H23 0.930 . S
C20 C18 1.356 . S
C20 C21 1.348 1_455 S
C21 C16 1.353 . S
C21 C20 1.348 1_655 S
C21 H73 0.937 . S
H22 C16 0.930 . S
H23 C19 0.930 . S
C24 N25 1.314 . S
C24 C26 1.353 . S
C24 H30 0.930 . S
N25 Li1 1.990 . S
N25 C24 1.314 . S
N25 C28 1.279 1_455 S
C26 C24 1.353 . S
C26 C29 1.348 . S
C26 H74 0.929 . S
C27 C28 1.358 . S
C27 C29 1.356 1_655 S
C27 H75 0.930 . S
C28 N25 1.279 1_655 S
C28 C27 1.358 . S
C28 H31 0.930 . S
C29 C26 1.348 . S
C29 C27 1.356 1_455 S
H30 C24 0.930 . S
H31 C28 0.930 . S
C32 C34 1.348 1_455 S
C32 C35 1.356 . S
C32 O62 1.325 1_565 S
N33 C36 1.314 1_455 S
N33 C37 1.279 . S
C34 C32 1.348 1_655 S
C34 C36 1.353 . S
C34 H76 0.929 . S
C35 C32 1.356 . S
C35 C37 1.358 . S
C35 H77 0.930 . S
C36 N33 1.314 1_655 S
C36 C34 1.353 . S
C36 H78 0.930 . S
C37 N33 1.279 . S
C37 C35 1.358 . S
C37 H79 0.930 . S
C38 C39 1.348 . S
C38 C40 1.356 1_455 S
C38 O63 1.325 . S
C39 C38 1.348 . S
C39 C41 1.353 . S
C39 H80 0.929 . S
C40 C38 1.356 1_655 S
C40 C42 1.358 . S
C40 H81 0.930 . S
C41 C39 1.353 . S
C41 N43 1.314 . S
C41 H82 0.930 . S
C42 C40 1.358 . S
C42 N43 1.279 1_655 S
C42 H83 0.930 . S
N43 C41 1.314 . S
N43 C42 1.279 1_455 S
C44 C46 1.353 . S
C44 N47 1.314 . S
C44 H50 0.930 . S
C45 N47 1.279 1_565 S
C45 C48 1.358 . S
C45 H51 0.930 . S
C46 C44 1.353 . S
C46 C49 1.348 1_545 S
C46 H84 0.929 . S
N47 Li2 1.990 . S
N47 C44 1.314 . S
N47 C45 1.279 1_545 S
C48 C45 1.358 . S
C48 C49 1.356 . S
C48 H85 0.930 . S
C49 C46 1.348 1_565 S
C49 C48 1.356 . S
H50 C44 0.930 . S
H51 C45 0.930 . S
C52 N53 1.314 . S
C52 C54 1.353 1_545 S
C52 H58 0.930 . S
N53 Li3 1.990 . S
N53 C52 1.314 . S
N53 C56 1.279 . S
C54 C52 1.353 1_565 S
C54 C57 1.348 . S
C54 H86 0.929 . S
C55 C56 1.362 . S
C55 C57 1.353 1_545 S
C55 H87 0.928 1_545 S
C56 N53 1.279 . S
C56 C55 1.362 . S
C56 H59 0.930 . S
C57 C54 1.348 . S
C57 C55 1.353 1_565 S
H58 C52 0.930 . S
H59 C56 0.930 . S
O60 Li0 1.956 . S
O60 Li1 1.970 . S
O60 Li2 1.961 . S
O60 C4 1.325 . S
O61 Li0 1.970 1_655 S
O61 Li1 1.956 1_655 S
O61 Li3 1.961 . S
O61 C10 1.325 . S
O62 Li0 1.961 . S
O62 Li2 1.956 . S
O62 Li3 1.970 1_455 S
O62 C32 1.325 1_545 S
O63 Li1 1.961 . S
O63 Li2 1.970 . S
O63 Li3 1.956 1_455 S
O63 C38 1.325 . S
H64 C6 0.929 . S
H65 C7 0.930 . S
H66 C8 0.930 . S
H67 C9 0.930 . S
H68 C11 0.930 . S
H69 C13 0.929 . S
H70 C14 0.930 . S
H71 C15 0.930 . S
H72 C18 0.930 . S
H73 C21 0.937 . S
H74 C26 0.929 . S
H75 C27 0.930 . S
H76 C34 0.929 . S
H77 C35 0.930 . S
H78 C36 0.930 . S
H79 C37 0.930 . S
H80 C39 0.929 . S
H81 C40 0.930 . S
H82 C41 0.930 . S
H83 C42 0.930 . S
H84 C46 0.929 . S
H85 C48 0.930 . S
H86 C54 0.929 . S
H87 C55 0.928 1_565 S
Li88 N105 1.990 . S
Li88 O148 1.956 . S
Li88 O149 1.970 . S
Li88 O150 1.961 . S
Li89 N113 1.990 . S
Li89 O148 1.970 . S
Li89 O149 1.956 . S
Li89 O151 1.961 . S
Li90 N135 1.990 . S
Li90 O148 1.961 . S
Li90 O150 1.956 . S
Li90 O151 1.970 . S
Li91 N141 1.990 . S
Li91 O149 1.961 . S
Li91 O150 1.970 . S
Li91 O151 1.956 . S
C92 C94 1.348 . S
C92 C95 1.356 . S
C92 O148 1.325 . S
N93 C96 1.314 . S
N93 C97 1.279 . S
C94 C92 1.348 . S
C94 C96 1.353 . S
C94 H152 0.929 . S
C95 C92 1.356 . S
C95 C97 1.358 . S
C95 H153 0.930 . S
C96 N93 1.314 . S
C96 C94 1.353 . S
C96 H154 0.930 . S
C97 N93 1.279 . S
C97 C95 1.358 . S
C97 H155 0.930 . S
C98 C101 1.348 . S
C98 C102 1.356 . S
C98 O149 1.325 . S
C99 N100 1.279 . S
C99 C102 1.358 . S
C99 H156 0.930 . S
N100 C99 1.279 . S
N100 C103 1.314 . S
C101 C98 1.348 . S
C101 C103 1.353 . S
C101 H157 0.929 . S
C102 C98 1.356 . S
C102 C99 1.358 . S
C102 H158 0.930 . S
C103 N100 1.314 . S
C103 C101 1.353 . S
C103 H159 0.930 . S
C104 N105 1.314 . S
C104 C109 1.353 . S
C104 H110 0.930 . S
N105 Li88 1.990 . S
N105 C104 1.314 . S
N105 C107 1.279 . S
C106 C107 1.358 . S
C106 C108 1.356 . S
C106 H160 0.930 . S
C107 N105 1.279 . S
C107 C106 1.358 . S
C107 H111 0.930 . S
C108 C106 1.356 . S
C108 C109 1.348 . S
C109 C104 1.353 . S
C109 C108 1.348 . S
C109 H161 0.929 . S
H110 C104 0.930 . S
H111 C107 0.930 . S
C112 N113 1.314 . S
C112 C114 1.353 . S
C112 H118 0.930 . S
N113 Li89 1.990 . S
N113 C112 1.314 . S
N113 C116 1.279 . S
C114 C112 1.353 . S
C114 C117 1.348 . S
C114 H162 0.929 . S
C115 C116 1.358 . S
C115 C117 1.356 . S
C115 H163 0.930 . S
C116 N113 1.279 . S
C116 C115 1.358 . S
C116 H119 0.930 . S
C117 C114 1.348 . S
C117 C115 1.356 . S
H118 C112 0.930 . S
H119 C116 0.930 . S
C120 C122 1.348 . S
C120 C123 1.356 . S
C120 O150 1.325 . S
N121 C124 1.314 . S
N121 C125 1.279 . S
C122 C120 1.348 . S
C122 C124 1.353 . S
C122 H164 0.929 . S
C123 C120 1.356 . S
C123 C125 1.358 . S
C123 H165 0.930 . S
C124 N121 1.314 . S
C124 C122 1.353 . S
C124 H166 0.930 . S
C125 N121 1.279 . S
C125 C123 1.358 . S
C125 H167 0.930 . S
C126 C127 1.348 . S
C126 C128 1.356 . S
C126 O151 1.325 . S
C127 C126 1.348 . S
C127 C129 1.353 . S
C127 H168 0.929 . S
C128 C126 1.356 . S
C128 C130 1.358 . S
C128 H169 0.930 . S
C129 C127 1.353 . S
C129 N131 1.314 . S
C129 H170 0.930 . S
C130 C128 1.358 . S
C130 N131 1.279 . S
C130 H171 0.930 . S
N131 C129 1.314 . S
N131 C130 1.279 . S
C132 C134 1.353 . S
C132 N135 1.314 . S
C132 H138 0.930 . S
C133 N135 1.279 . S
C133 C136 1.358 . S
C133 H139 0.930 . S
C134 C132 1.353 . S
C134 C137 1.348 . S
C134 H172 0.929 . S
N135 Li90 1.990 . S
N135 C132 1.314 . S
N135 C133 1.279 . S
C136 C133 1.358 . S
C136 C137 1.356 . S
C136 H173 0.930 . S
C137 C134 1.348 . S
C137 C136 1.356 . S
H138 C132 0.930 . S
H139 C133 0.930 . S
C140 N141 1.314 . S
C140 C142 1.353 . S
C140 H146 0.930 . S
N141 Li91 1.990 . S
N141 C140 1.314 . S
N141 C144 1.279 . S
C142 C140 1.353 . S
C142 C145 1.348 . S
C142 H174 0.929 . S
C143 C144 1.358 . S
C143 C145 1.356 . S
C143 H175 0.930 . S
C144 N141 1.279 . S
C144 C143 1.358 . S
C144 H147 0.930 . S
C145 C142 1.348 . S
C145 C143 1.356 . S
H146 C140 0.930 . S
H147 C144 0.930 . S
O148 Li88 1.956 . S
O148 Li89 1.970 . S
O148 Li90 1.961 . S
O148 C92 1.325 . S
O149 Li88 1.970 . S
O149 Li89 1.956 . S
O149 Li91 1.961 . S
O149 C98 1.325 . S
O150 Li88 1.961 . S
O150 Li90 1.956 . S
O150 Li91 1.970 . S
O150 C120 1.325 . S
O151 Li89 1.961 . S
O151 Li90 1.970 . S
O151 Li91 1.956 . S
O151 C126 1.325 . S
H152 C94 0.929 . S
H153 C95 0.930 . S
H154 C96 0.930 . S
H155 C97 0.930 . S
H156 C99 0.930 . S
H157 C101 0.929 . S
H158 C102 0.930 . S
H159 C103 0.930 . S
H160 C106 0.930 . S
H161 C109 0.929 . S
H162 C114 0.929 . S
H163 C115 0.930 . S
H164 C122 0.929 . S
H165 C123 0.930 . S
H166 C124 0.930 . S
H167 C125 0.930 . S
H168 C127 0.929 . S
H169 C128 0.930 . S
H170 C129 0.930 . S
H171 C130 0.930 . S
H172 C134 0.929 . S
H173 C136 0.930 . S
H174 C142 0.929 . S
H175 C143 0.930 . S
Li176 N193 1.990 . S
Li176 O236 1.956 . S
Li176 O237 1.970 . S
Li176 O238 1.961 . S
Li177 N201 1.990 . S
Li177 O236 1.970 . S
Li177 O237 1.956 . S
Li177 O239 1.961 . S
Li178 N223 1.990 . S
Li178 O236 1.961 . S
Li178 O238 1.956 . S
Li178 O239 1.970 . S
Li179 N229 1.990 . S
Li179 O237 1.961 . S
Li179 O238 1.970 . S
Li179 O239 1.956 . S
C180 C182 1.348 . S
C180 C183 1.356 . S
C180 O236 1.325 . S
N181 C184 1.314 . S
N181 C185 1.279 . S
C182 C180 1.348 . S
C182 C184 1.353 . S
C182 H240 0.929 . S
C183 C180 1.356 . S
C183 C185 1.358 . S
C183 H241 0.930 . S
C184 N181 1.314 . S
C184 C182 1.353 . S
C184 H242 0.930 . S
C185 N181 1.279 . S
C185 C183 1.358 . S
C185 H243 0.930 . S
C186 C189 1.348 . S
C186 C190 1.356 . S
C186 O237 1.325 1_545 S
C187 N188 1.279 . S
C187 C190 1.358 . S
C187 H244 0.930 . S
N188 C187 1.279 . S
N188 C191 1.314 . S
C189 C186 1.348 . S
C189 C191 1.353 . S
C189 H245 0.929 . S
C190 C186 1.356 . S
C190 C187 1.358 . S
C190 H246 0.930 . S
C191 N188 1.314 . S
C191 C189 1.353 . S
C191 H247 0.930 . S
C192 N193 1.314 . S
C192 C197 1.353 1_565 S
C192 H198 0.930 . S
N193 Li176 1.990 . S
N193 C192 1.314 . S
N193 C195 1.279 . S
C194 C195 1.363 . S
C194 C196 1.353 1_565 S
C194 H248 0.928 1_565 S
C195 N193 1.279 . S
C195 C194 1.363 . S
C195 H199 0.930 . S
C196 C194 1.353 1_545 S
C196 C197 1.348 . S
C197 C192 1.353 1_545 S
C197 C196 1.348 . S
C197 H249 0.929 . S
H198 C192 0.930 . S
H199 C195 0.930 . S
C200 N201 1.314 . S
C200 C202 1.353 . S
C200 H206 0.930 . S
N201 Li177 1.990 . S
N201 C200 1.314 . S
N201 C204 1.279 1_565 S
C202 C200 1.353 . S
C202 C205 1.348 1_565 S
C202 H250 0.929 . S
C203 C204 1.358 . S
C203 C205 1.356 . S
C203 H251 0.930 . S
C204 N201 1.279 1_545 S
C204 C203 1.358 . S
C204 H207 0.930 . S
C205 C202 1.348 1_545 S
C205 C203 1.356 . S
H206 C200 0.930 . S
H207 C204 0.930 . S
C208 C210 1.348 . S
C208 C211 1.356 . S
C208 O238 1.325 . S
N209 C212 1.314 . S
N209 C213 1.279 . S
C210 C208 1.348 . S
C210 C212 1.353 . S
C210 H252 0.929 . S
C211 C208 1.356 . S
C211 C213 1.358 . S
C211 H253 0.930 . S
C212 N209 1.314 . S
C212 C210 1.353 . S
C212 H254 0.930 . S
C213 N209 1.279 . S
C213 C211 1.358 . S
C213 H255 0.930 . S
C214 C215 1.348 . S
C214 C216 1.356 . S
C214 O239 1.325 . S
C215 C214 1.348 . S
C215 C217 1.353 . S
C215 H256 0.929 . S
C216 C214 1.356 . S
C216 C218 1.358 . S
C216 H257 0.930 . S
C217 C215 1.353 . S
C217 N219 1.314 . S
C217 H258 0.930 . S
C218 C216 1.358 . S
C218 N219 1.279 . S
C218 H259 0.930 . S
N219 C217 1.314 . S
N219 C218 1.279 . S
C220 C222 1.353 . S
C220 N223 1.314 . S
C220 H226 0.930 . S
C221 N223 1.279 . S
C221 C224 1.358 . S
C221 H227 0.930 . S
C222 C220 1.353 . S
C222 C225 1.348 . S
C222 H260 0.929 . S
N223 Li178 1.990 . S
N223 C220 1.314 . S
N223 C221 1.279 . S
C224 C221 1.358 . S
C224 C225 1.356 . S
C224 H261 0.930 . S
C225 C222 1.348 . S
C225 C224 1.356 . S
H226 C220 0.930 . S
H227 C221 0.930 . S
C228 N229 1.314 . S
C228 C230 1.353 . S
C228 H234 0.930 . S
N229 Li179 1.990 . S
N229 C228 1.314 . S
N229 C232 1.279 . S
C230 C228 1.353 . S
C230 C233 1.348 . S
C230 H262 0.937 . S
C231 C232 1.358 . S
C231 C233 1.356 . S
C231 H263 0.930 . S
C232 N229 1.279 . S
C232 C231 1.358 . S
C232 H235 0.930 . S
C233 C230 1.348 . S
C233 C231 1.356 . S
H234 C228 0.930 . S
H235 C232 0.930 . S
O236 Li176 1.956 . S
O236 Li177 1.970 . S
O236 Li178 1.961 . S
O236 C180 1.325 . S
O237 Li176 1.970 . S
O237 Li177 1.956 . S
O237 Li179 1.961 . S
O237 C186 1.325 1_565 S
O238 Li176 1.961 . S
O238 Li178 1.956 . S
O238 Li179 1.970 . S
O238 C208 1.325 . S
O239 Li177 1.961 . S
O239 Li178 1.970 . S
O239 Li179 1.956 . S
O239 C214 1.325 . S
H240 C182 0.929 . S
H241 C183 0.930 . S
H242 C184 0.930 . S
H243 C185 0.930 . S
H244 C187 0.930 . S
H245 C189 0.929 . S
H246 C190 0.930 . S
H247 C191 0.930 . S
H248 C194 0.928 1_545 S
H249 C197 0.929 . S
H250 C202 0.929 . S
H251 C203 0.930 . S
H252 C210 0.929 . S
H253 C211 0.930 . S
H254 C212 0.930 . S
H255 C213 0.930 . S
H256 C215 0.929 . S
H257 C216 0.930 . S
H258 C217 0.930 . S
H259 C218 0.930 . S
H260 C222 0.929 . S
H261 C224 0.930 . S
H262 C230 0.937 . S
H263 C231 0.930 . S
Li264 N281 1.990 . S
Li264 O324 1.956 . S
Li264 O325 1.970 . S
Li264 O326 1.961 . S
Li265 N289 1.990 . S
Li265 O324 1.970 . S
Li265 O325 1.956 . S
Li265 O327 1.961 . S
Li266 N311 1.990 . S
Li266 O324 1.961 . S
Li266 O326 1.956 . S
Li266 O327 1.970 . S
Li267 N317 1.990 . S
Li267 O325 1.961 . S
Li267 O326 1.970 . S
Li267 O327 1.956 . S
C268 C270 1.348 . S
C268 C271 1.356 . S
C268 O324 1.325 . S
N269 C272 1.314 . S
N269 C273 1.279 . S
C270 C268 1.348 . S
C270 C272 1.353 . S
C270 H328 0.929 . S
C271 C268 1.356 . S
C271 C273 1.358 . S
C271 H329 0.930 . S
C272 N269 1.314 . S
C272 C270 1.353 . S
C272 H330 0.930 . S
C273 N269 1.279 . S
C273 C271 1.358 . S
C273 H331 0.930 . S
C274 C277 1.348 . S
C274 C278 1.356 . S
C274 O325 1.325 . S
C275 N276 1.279 . S
C275 C278 1.358 . S
C275 H332 0.930 . S
N276 C275 1.279 . S
N276 C279 1.314 . S
C277 C274 1.348 . S
C277 C279 1.353 . S
C277 H333 0.929 . S
C278 C274 1.356 . S
C278 C275 1.358 . S
C278 H334 0.930 . S
C279 N276 1.314 . S
C279 C277 1.353 . S
C279 H335 0.930 . S
C280 N281 1.314 . S
C280 C285 1.353 . S
C280 H286 0.930 . S
N281 Li264 1.990 . S
N281 C280 1.314 . S
N281 C283 1.279 . S
C282 C283 1.358 . S
C282 C284 1.356 . S
C282 H336 0.930 . S
C283 N281 1.279 . S
C283 C282 1.358 . S
C283 H287 0.930 . S
C284 C282 1.356 . S
C284 C285 1.348 . S
C285 C280 1.353 . S
C285 C284 1.348 . S
C285 H337 0.929 . S
H286 C280 0.930 . S
H287 C283 0.930 . S
C288 N289 1.314 . S
C288 C290 1.353 . S
C288 H294 0.930 . S
N289 Li265 1.990 . S
N289 C288 1.314 . S
N289 C292 1.279 . S
C290 C288 1.353 . S
C290 C293 1.348 . S
C290 H338 0.929 . S
C291 C292 1.358 . S
C291 C293 1.356 . S
C291 H339 0.930 . S
C292 N289 1.279 . S
C292 C291 1.358 . S
C292 H295 0.930 . S
C293 C290 1.348 . S
C293 C291 1.356 . S
H294 C288 0.930 . S
H295 C292 0.930 . S
C296 C298 1.348 . S
C296 C299 1.356 . S
C296 O326 1.325 . S
N297 C300 1.314 . S
N297 C301 1.279 . S
C298 C296 1.348 . S
C298 C300 1.353 . S
C298 H340 0.929 . S
C299 C296 1.356 . S
C299 C301 1.358 . S
C299 H341 0.930 . S
C300 N297 1.314 . S
C300 C298 1.353 . S
C300 H342 0.930 . S
C301 N297 1.279 . S
C301 C299 1.358 . S
C301 H343 0.930 . S
C302 C303 1.348 . S
C302 C304 1.356 . S
C302 O327 1.325 . S
C303 C302 1.348 . S
C303 C305 1.353 . S
C303 H344 0.929 . S
C304 C302 1.356 . S
C304 C306 1.358 . S
C304 H345 0.930 . S
C305 C303 1.353 . S
C305 N307 1.314 . S
C305 H346 0.930 . S
C306 C304 1.358 . S
C306 N307 1.279 . S
C306 H347 0.930 . S
N307 C305 1.314 . S
N307 C306 1.279 . S
C308 C310 1.353 . S
C308 N311 1.314 . S
C308 H314 0.930 . S
C309 N311 1.279 . S
C309 C312 1.358 . S
C309 H315 0.930 . S
C310 C308 1.353 . S
C310 C313 1.348 . S
C310 H348 0.929 . S
N311 Li266 1.990 . S
N311 C308 1.314 . S
N311 C309 1.279 . S
C312 C309 1.358 . S
C312 C313 1.356 . S
C312 H349 0.930 . S
C313 C310 1.348 . S
C313 C312 1.356 . S
H314 C308 0.930 . S
H315 C309 0.930 . S
C316 N317 1.314 . S
C316 C318 1.353 . S
C316 H322 0.930 . S
N317 Li267 1.990 . S
N317 C316 1.314 . S
N317 C320 1.279 . S
C318 C316 1.353 . S
C318 C321 1.348 . S
C318 H350 0.929 . S
C319 C320 1.358 . S
C319 C321 1.356 . S
C319 H351 0.930 . S
C320 N317 1.279 . S
C320 C319 1.358 . S
C320 H323 0.930 . S
C321 C318 1.348 . S
C321 C319 1.356 . S
H322 C316 0.930 . S
H323 C320 0.930 . S
O324 Li264 1.956 . S
O324 Li265 1.970 . S
O324 Li266 1.961 . S
O324 C268 1.325 . S
O325 Li264 1.970 . S
O325 Li265 1.956 . S
O325 Li267 1.961 . S
O325 C274 1.325 . S
O326 Li264 1.961 . S
O326 Li266 1.956 . S
O326 Li267 1.970 . S
O326 C296 1.325 . S
O327 Li265 1.961 . S
O327 Li266 1.970 . S
O327 Li267 1.956 . S
O327 C302 1.325 . S
H328 C270 0.929 . S
H329 C271 0.930 . S
H330 C272 0.930 . S
H331 C273 0.930 . S
H332 C275 0.930 . S
H333 C277 0.929 . S
H334 C278 0.930 . S
H335 C279 0.930 . S
H336 C282 0.930 . S
H337 C285 0.929 . S
H338 C290 0.929 . S
H339 C291 0.930 . S
H340 C298 0.929 . S
H341 C299 0.930 . S
H342 C300 0.930 . S
H343 C301 0.930 . S
H344 C303 0.929 . S
H345 C304 0.930 . S
H346 C305 0.930 . S
H347 C306 0.930 . S
H348 C310 0.929 . S
H349 C312 0.930 . S
H350 C318 0.929 . S
H351 C319 0.930 . S
Li352 N369 1.990 . S
Li352 O412 1.956 1_655 S
Li352 O413 1.970 1_655 S
Li352 O414 1.961 . S
Li353 N377 1.990 . S
Li353 O412 1.970 . S
Li353 O413 1.956 . S
Li353 O415 1.961 . S
Li354 N399 1.990 . S
Li354 O412 1.961 . S
Li354 O414 1.956 1_455 S
Li354 O415 1.970 . S
Li355 N405 1.990 . S
Li355 O413 1.961 . S
Li355 O414 1.970 1_455 S
Li355 O415 1.956 . S
C356 C358 1.348 . S
C356 C359 1.356 1_455 S
C356 O412 1.325 . S
N357 C360 1.314 . S
N357 C361 1.279 1_455 S
C358 C356 1.348 . S
C358 C360 1.353 . S
C358 H416 0.929 . S
C359 C356 1.356 1_655 S
C359 C361 1.358 . S
C359 H417 0.930 . S
C360 N357 1.314 . S
C360 C358 1.353 . S
C360 H418 0.930 . S
C361 N357 1.279 1_655 S
C361 C359 1.358 . S
C361 H419 0.930 . S
C362 C365 1.348 1_455 S
C362 C366 1.356 . S
C362 O413 1.325 1_545 S
C363 N364 1.279 . S
C363 C366 1.358 . S
C363 H420 0.930 . S
N364 C363 1.279 . S
N364 C367 1.314 1_455 S
C365 C362 1.348 1_655 S
C365 C367 1.353 . S
C365 H421 0.929 . S
C366 C362 1.356 . S
C366 C363 1.358 . S
C366 H422 0.930 . S
C367 N364 1.314 1_655 S
C367 C365 1.353 . S
C367 H423 0.930 . S
C368 N369 1.314 . S
C368 C373 1.353 1_565 S
C368 H374 0.930 . S
N369 Li352 1.990 . S
N369 C368 1.314 . S
N369 C371 1.279 . S
C370 C371 1.362 . S
C370 C372 1.353 1_565 S
C370 H424 0.928 1_565 S
C371 N369 1.279 . S
C371 C370 1.362 . S
C371 H375 0.930 . S
C372 C370 1.353 1_545 S
C372 C373 1.348 . S
C373 C368 1.353 1_545 S
C373 C372 1.348 . S
C373 H425 0.929 . S
H374 C368 0.930 . S
H375 C371 0.930 . S
C376 N377 1.314 . S
C376 C378 1.353 . S
C376 H382 0.930 . S
N377 Li353 1.990 . S
N377 C376 1.314 . S
N377 C380 1.279 1_565 S
C378 C376 1.353 . S
C378 C381 1.348 1_565 S
C378 H426 0.929 . S
C379 C380 1.358 . S
C379 C381 1.356 . S
C379 H427 0.930 . S
C380 N377 1.279 1_545 S
C380 C379 1.358 . S
C380 H383 0.930 . S
C381 C378 1.348 1_545 S
C381 C379 1.356 . S
H382 C376 0.930 . S
H383 C380 0.930 . S
C384 C386 1.348 . S
C384 C387 1.356 . S
C384 O414 1.325 . S
N385 C388 1.314 . S
N385 C389 1.279 . S
C386 C384 1.348 . S
C386 C388 1.353 . S
C386 H428 0.929 . S
C387 C384 1.356 . S
C387 C389 1.358 . S
C387 H429 0.930 . S
C388 N385 1.314 . S
C388 C386 1.353 . S
C388 H430 0.930 . S
C389 N385 1.279 . S
C389 C387 1.358 . S
C389 H431 0.930 . S
C390 C391 1.348 . S
C390 C392 1.356 . S
C390 O415 1.325 . S
C391 C390 1.348 . S
C391 C393 1.353 . S
C391 H432 0.929 . S
C392 C390 1.356 . S
C392 C394 1.358 . S
C392 H433 0.930 . S
C393 C391 1.353 . S
C393 N395 1.314 . S
C393 H434 0.930 . S
C394 C392 1.358 . S
C394 N395 1.279 . S
C394 H435 0.930 . S
N395 C393 1.314 . S
N395 C394 1.279 . S
C396 C398 1.353 . S
C396 N399 1.314 . S
C396 H402 0.930 . S
C397 N399 1.279 1_655 S
C397 C400 1.358 . S
C397 H403 0.930 . S
C398 C396 1.353 . S
C398 C401 1.348 . S
C398 H436 0.929 . S
N399 Li354 1.990 . S
N399 C396 1.314 . S
N399 C397 1.279 1_455 S
C400 C397 1.358 . S
C400 C401 1.356 1_655 S
C400 H437 0.930 . S
C401 C398 1.348 . S
C401 C400 1.356 1_455 S
H402 C396 0.930 . S
H403 C397 0.930 . S
C404 N405 1.314 1_655 S
C404 C406 1.353 . S
C404 H410 0.930 . S
N405 Li355 1.990 . S
N405 C404 1.314 1_455 S
N405 C408 1.279 . S
C406 C404 1.353 . S
C406 C409 1.348 1_655 S
C406 H438 0.937 . S
C407 C408 1.358 . S
C407 C409 1.356 . S
C407 H439 0.930 . S
C408 N405 1.279 . S
C408 C407 1.358 . S
C408 H411 0.930 . S
C409 C406 1.348 1_455 S
C409 C407 1.356 . S
H410 C404 0.930 . S
H411 C408 0.930 . S
O412 Li352 1.956 1_455 S
O412 Li353 1.970 . S
O412 Li354 1.961 . S
O412 C356 1.325 . S
O413 Li352 1.970 1_455 S
O413 Li353 1.956 . S
O413 Li355 1.961 . S
O413 C362 1.325 1_565 S
O414 Li352 1.961 . S
O414 Li354 1.956 1_655 S
O414 Li355 1.970 1_655 S
O414 C384 1.325 . S
O415 Li353 1.961 . S
O415 Li354 1.970 . S
O415 Li355 1.956 . S
O415 C390 1.325 . S
H416 C358 0.929 . S
H417 C359 0.930 . S
H418 C360 0.930 . S
H419 C361 0.930 . S
H420 C363 0.930 . S
H421 C365 0.929 . S
H422 C366 0.930 . S
H423 C367 0.930 . S
H424 C370 0.928 1_545 S
H425 C373 0.929 . S
H426 C378 0.929 . S
H427 C379 0.930 . S
H428 C386 0.929 . S
H429 C387 0.930 . S
H430 C388 0.930 . S
H431 C389 0.930 . S
H432 C391 0.929 . S
H433 C392 0.930 . S
H434 C393 0.930 . S
H435 C394 0.930 . S
H436 C398 0.929 . S
H437 C400 0.930 . S
H438 C406 0.937 . S
H439 C407 0.930 . S
Li440 N457 1.990 . S
Li440 O500 1.956 . S
Li440 O501 1.970 . S
Li440 O502 1.961 . S
Li441 N465 1.990 . S
Li441 O500 1.970 . S
Li441 O501 1.956 . S
Li441 O503 1.961 . S
Li442 N487 1.990 . S
Li442 O500 1.961 . S
Li442 O502 1.956 . S
Li442 O503 1.970 . S
Li443 N493 1.990 . S
Li443 O501 1.961 . S
Li443 O502 1.970 . S
Li443 O503 1.956 . S
C444 C446 1.348 . S
C444 C447 1.356 . S
C444 O500 1.325 . S
N445 C448 1.314 . S
N445 C449 1.279 . S
C446 C444 1.348 . S
C446 C448 1.353 . S
C446 H504 0.929 . S
C447 C444 1.356 . S
C447 C449 1.358 . S
C447 H505 0.930 . S
C448 N445 1.314 . S
C448 C446 1.353 . S
C448 H506 0.930 . S
C449 N445 1.279 . S
C449 C447 1.358 . S
C449 H507 0.930 . S
C450 C453 1.348 . S
C450 C454 1.356 . S
C450 O501 1.325 . S
C451 N452 1.279 . S
C451 C454 1.358 . S
C451 H508 0.930 . S
N452 C451 1.279 . S
N452 C455 1.314 . S
C453 C450 1.348 . S
C453 C455 1.353 . S
C453 H509 0.929 . S
C454 C450 1.356 . S
C454 C451 1.358 . S
C454 H510 0.930 . S
C455 N452 1.314 . S
C455 C453 1.353 . S
C455 H511 0.930 . S
C456 N457 1.314 . S
C456 C461 1.353 . S
C456 H462 0.930 . S
N457 Li440 1.990 . S
N457 C456 1.314 . S
N457 C459 1.279 . S
C458 C459 1.358 . S
C458 C460 1.356 . S
C458 H512 0.930 . S
C459 N457 1.279 . S
C459 C458 1.358 . S
C459 H463 0.930 . S
C460 C458 1.356 . S
C460 C461 1.348 . S
C461 C456 1.353 . S
C461 C460 1.348 . S
C461 H513 0.929 . S
H462 C456 0.930 . S
H463 C459 0.930 . S
C464 N465 1.314 . S
C464 C466 1.353 . S
C464 H470 0.930 . S
N465 Li441 1.990 . S
N465 C464 1.314 . S
N465 C468 1.279 . S
C466 C464 1.353 . S
C466 C469 1.348 . S
C466 H514 0.929 . S
C467 C468 1.358 . S
C467 C469 1.356 . S
C467 H515 0.930 . S
C468 N465 1.279 . S
C468 C467 1.358 . S
C468 H471 0.930 . S
C469 C466 1.348 . S
C469 C467 1.356 . S
H470 C464 0.930 . S
H471 C468 0.930 . S
C472 C474 1.348 . S
C472 C475 1.356 . S
C472 O502 1.325 . S
N473 C476 1.314 . S
N473 C477 1.279 . S
C474 C472 1.348 . S
C474 C476 1.353 . S
C474 H516 0.929 . S
C475 C472 1.356 . S
C475 C477 1.358 . S
C475 H517 0.930 . S
C476 N473 1.314 . S
C476 C474 1.353 . S
C476 H518 0.930 . S
C477 N473 1.279 . S
C477 C475 1.358 . S
C477 H519 0.930 . S
C478 C479 1.348 . S
C478 C480 1.356 . S
C478 O503 1.325 . S
C479 C478 1.348 . S
C479 C481 1.353 . S
C479 H520 0.929 . S
C480 C478 1.356 . S
C480 C482 1.358 . S
C480 H521 0.930 . S
C481 C479 1.353 . S
C481 N483 1.314 . S
C481 H522 0.930 . S
C482 C480 1.358 . S
C482 N483 1.279 . S
C482 H523 0.930 . S
N483 C481 1.314 . S
N483 C482 1.279 . S
C484 C486 1.353 . S
C484 N487 1.314 . S
C484 H490 0.930 . S
C485 N487 1.279 . S
C485 C488 1.358 . S
C485 H491 0.930 . S
C486 C484 1.353 . S
C486 C489 1.348 . S
C486 H524 0.929 . S
N487 Li442 1.990 . S
N487 C484 1.314 . S
N487 C485 1.279 . S
C488 C485 1.358 . S
C488 C489 1.356 . S
C488 H525 0.930 . S
C489 C486 1.348 . S
C489 C488 1.356 . S
H490 C484 0.930 . S
H491 C485 0.930 . S
C492 N493 1.314 . S
C492 C494 1.353 . S
C492 H498 0.930 . S
N493 Li443 1.990 . S
N493 C492 1.314 . S
N493 C496 1.279 . S
C494 C492 1.353 . S
C494 C497 1.348 . S
C494 H526 0.929 . S
C495 C496 1.358 . S
C495 C497 1.356 . S
C495 H527 0.930 . S
C496 N493 1.279 . S
C496 C495 1.358 . S
C496 H499 0.930 . S
C497 C494 1.348 . S
C497 C495 1.356 . S
H498 C492 0.930 . S
H499 C496 0.930 . S
O500 Li440 1.956 . S
O500 Li441 1.970 . S
O500 Li442 1.961 . S
O500 C444 1.325 . S
O501 Li440 1.970 . S
O501 Li441 1.956 . S
O501 Li443 1.961 . S
O501 C450 1.325 . S
O502 Li440 1.961 . S
O502 Li442 1.956 . S
O502 Li443 1.970 . S
O502 C472 1.325 . S
O503 Li441 1.961 . S
O503 Li442 1.970 . S
O503 Li443 1.956 . S
O503 C478 1.325 . S
H504 C446 0.929 . S
H505 C447 0.930 . S
H506 C448 0.930 . S
H507 C449 0.930 . S
H508 C451 0.930 . S
H509 C453 0.929 . S
H510 C454 0.930 . S
H511 C455 0.930 . S
H512 C458 0.930 . S
H513 C461 0.929 . S
H514 C466 0.929 . S
H515 C467 0.930 . S
H516 C474 0.929 . S
H517 C475 0.930 . S
H518 C476 0.930 . S
H519 C477 0.930 . S
H520 C479 0.929 . S
H521 C480 0.930 . S
H522 C481 0.930 . S
H523 C482 0.930 . S
H524 C486 0.929 . S
H525 C488 0.930 . S
H526 C494 0.929 . S
H527 C495 0.930 . S
Li528 N545 1.990 . S
Li528 O588 1.956 . S
Li528 O589 1.970 . S
Li528 O590 1.961 . S
Li529 N553 1.990 . S
Li529 O588 1.970 . S
Li529 O589 1.956 . S
Li529 O591 1.961 . S
Li530 N575 1.990 . S
Li530 O588 1.961 . S
Li530 O590 1.956 . S
Li530 O591 1.970 . S
Li531 N581 1.990 . S
Li531 O589 1.961 . S
Li531 O590 1.970 . S
Li531 O591 1.956 . S
C532 C534 1.348 . S
C532 C535 1.356 . S
C532 O588 1.325 . S
N533 C536 1.314 . S
N533 C537 1.279 . S
C534 C532 1.348 . S
C534 C536 1.353 . S
C534 H592 0.929 . S
C535 C532 1.356 . S
C535 C537 1.358 . S
C535 H593 0.930 . S
C536 N533 1.314 . S
C536 C534 1.353 . S
C536 H594 0.930 . S
C537 N533 1.279 . S
C537 C535 1.358 . S
C537 H595 0.930 . S
C538 C541 1.348 . S
C538 C542 1.356 . S
C538 O589 1.325 . S
C539 N540 1.279 . S
C539 C542 1.358 . S
C539 H596 0.930 . S
N540 C539 1.279 . S
N540 C543 1.314 . S
C541 C538 1.348 . S
C541 C543 1.353 . S
C541 H597 0.929 . S
C542 C538 1.356 . S
C542 C539 1.358 . S
C542 H598 0.930 . S
C543 N540 1.314 . S
C543 C541 1.353 . S
C543 H599 0.930 . S
C544 N545 1.314 . S
C544 C549 1.353 . S
C544 H550 0.930 . S
N545 Li528 1.990 . S
N545 C544 1.314 . S
N545 C547 1.279 . S
C546 C547 1.358 . S
C546 C548 1.356 . S
C546 H600 0.930 . S
C547 N545 1.279 . S
C547 C546 1.358 . S
C547 H551 0.930 . S
C548 C546 1.356 . S
C548 C549 1.348 . S
C549 C544 1.353 . S
C549 C548 1.348 . S
C549 H601 0.929 . S
H550 C544 0.930 . S
H551 C547 0.930 . S
C552 N553 1.314 . S
C552 C554 1.353 . S
C552 H558 0.930 . S
N553 Li529 1.990 . S
N553 C552 1.314 . S
N553 C556 1.279 . S
C554 C552 1.353 . S
C554 C557 1.348 . S
C554 H602 0.937 . S
C555 C556 1.358 . S
C555 C557 1.356 . S
C555 H603 0.930 . S
C556 N553 1.279 . S
C556 C555 1.358 . S
C556 H559 0.930 . S
C557 C554 1.348 . S
C557 C555 1.356 . S
H558 C552 0.930 . S
H559 C556 0.930 . S
C560 C562 1.348 . S
C560 C563 1.356 . S
C560 O590 1.325 . S
N561 C564 1.314 . S
N561 C565 1.279 . S
C562 C560 1.348 . S
C562 C564 1.353 . S
C562 H604 0.929 . S
C563 C560 1.356 . S
C563 C565 1.358 . S
C563 H605 0.930 . S
C564 N561 1.314 . S
C564 C562 1.353 . S
C564 H606 0.930 . S
C565 N561 1.279 . S
C565 C563 1.358 . S
C565 H607 0.930 . S
C566 C567 1.348 . S
C566 C568 1.356 . S
C566 O591 1.325 1_565 S
C567 C566 1.348 . S
C567 C569 1.353 . S
C567 H608 0.929 . S
C568 C566 1.356 . S
C568 C570 1.358 . S
C568 H609 0.930 . S
C569 C567 1.353 . S
C569 N571 1.314 . S
C569 H610 0.930 . S
C570 C568 1.358 . S
C570 N571 1.279 . S
C570 H611 0.930 . S
N571 C569 1.314 . S
N571 C570 1.279 . S
C572 C574 1.353 1_545 S
C572 N575 1.314 . S
C572 H578 0.930 . S
C573 N575 1.279 . S
C573 C576 1.363 . S
C573 H579 0.930 . S
C574 C572 1.353 1_565 S
C574 C577 1.348 . S
C574 H612 0.929 . S
N575 Li530 1.990 . S
N575 C572 1.314 . S
N575 C573 1.279 . S
C576 C573 1.363 . S
C576 C577 1.353 1_545 S
C576 H613 0.928 1_545 S
C577 C574 1.348 . S
C577 C576 1.353 1_565 S
H578 C572 0.930 . S
H579 C573 0.930 . S
C580 N581 1.314 . S
C580 C582 1.353 . S
C580 H586 0.930 . S
N581 Li531 1.990 . S
N581 C580 1.314 . S
N581 C584 1.279 1_545 S
C582 C580 1.353 . S
C582 C585 1.348 1_545 S
C582 H614 0.929 . S
C583 C584 1.358 . S
C583 C585 1.356 . S
C583 H615 0.930 . S
C584 N581 1.279 1_565 S
C584 C583 1.358 . S
C584 H587 0.930 . S
C585 C582 1.348 1_565 S
C585 C583 1.356 . S
H586 C580 0.930 . S
H587 C584 0.930 . S
O588 Li528 1.956 . S
O588 Li529 1.970 . S
O588 Li530 1.961 . S
O588 C532 1.325 . S
O589 Li528 1.970 . S
O589 Li529 1.956 . S
O589 Li531 1.961 . S
O589 C538 1.325 . S
O590 Li528 1.961 . S
O590 Li530 1.956 . S
O590 Li531 1.970 . S
O590 C560 1.325 . S
O591 Li529 1.961 . S
O591 Li530 1.970 . S
O591 Li531 1.956 . S
O591 C566 1.325 1_545 S
H592 C534 0.929 . S
H593 C535 0.930 . S
H594 C536 0.930 . S
H595 C537 0.930 . S
H596 C539 0.930 . S
H597 C541 0.929 . S
H598 C542 0.930 . S
H599 C543 0.930 . S
H600 C546 0.930 . S
H601 C549 0.929 . S
H602 C554 0.937 . S
H603 C555 0.930 . S
H604 C562 0.929 . S
H605 C563 0.930 . S
H606 C564 0.930 . S
H607 C565 0.930 . S
H608 C567 0.929 . S
H609 C568 0.930 . S
H610 C569 0.930 . S
H611 C570 0.930 . S
H612 C574 0.929 . S
H613 C576 0.928 1_565 S
H614 C582 0.929 . S
H615 C583 0.930 . S
Li616 N633 1.990 . S
Li616 O676 1.956 . S
Li616 O677 1.970 . S
Li616 O678 1.961 . S
Li617 N641 1.990 . S
Li617 O676 1.970 . S
Li617 O677 1.956 . S
Li617 O679 1.961 . S
Li618 N663 1.990 . S
Li618 O676 1.961 . S
Li618 O678 1.956 . S
Li618 O679 1.970 . S
Li619 N669 1.990 . S
Li619 O677 1.961 . S
Li619 O678 1.970 . S
Li619 O679 1.956 . S
C620 C622 1.348 . S
C620 C623 1.356 . S
C620 O676 1.325 . S
N621 C624 1.314 . S
N621 C625 1.279 . S
C622 C620 1.348 . S
C622 C624 1.353 . S
C622 H680 0.929 . S
C623 C620 1.356 . S
C623 C625 1.358 . S
C623 H681 0.930 . S
C624 N621 1.314 . S
C624 C622 1.353 . S
C624 H682 0.930 . S
C625 N621 1.279 . S
C625 C623 1.358 . S
C625 H683 0.930 . S
C626 C629 1.348 . S
C626 C630 1.356 . S
C626 O677 1.325 . S
C627 N628 1.279 . S
C627 C630 1.358 . S
C627 H684 0.930 . S
N628 C627 1.279 . S
N628 C631 1.314 . S
C629 C626 1.348 . S
C629 C631 1.353 . S
C629 H685 0.929 . S
C630 C626 1.356 . S
C630 C627 1.358 . S
C630 H686 0.930 . S
C631 N628 1.314 . S
C631 C629 1.353 . S
C631 H687 0.930 . S
C632 N633 1.314 . S
C632 C637 1.353 . S
C632 H638 0.930 . S
N633 Li616 1.990 . S
N633 C632 1.314 . S
N633 C635 1.279 . S
C634 C635 1.358 . S
C634 C636 1.356 . S
C634 H688 0.930 . S
C635 N633 1.279 . S
C635 C634 1.358 . S
C635 H639 0.930 . S
C636 C634 1.356 . S
C636 C637 1.348 . S
C637 C632 1.353 . S
C637 C636 1.348 . S
C637 H689 0.929 . S
H638 C632 0.930 . S
H639 C635 0.930 . S
C640 N641 1.314 . S
C640 C642 1.353 . S
C640 H646 0.930 . S
N641 Li617 1.990 . S
N641 C640 1.314 . S
N641 C644 1.279 . S
C642 C640 1.353 . S
C642 C645 1.348 . S
C642 H690 0.929 . S
C643 C644 1.358 . S
C643 C645 1.356 . S
C643 H691 0.930 . S
C644 N641 1.279 . S
C644 C643 1.358 . S
C644 H647 0.930 . S
C645 C642 1.348 . S
C645 C643 1.356 . S
H646 C640 0.930 . S
H647 C644 0.930 . S
C648 C650 1.348 . S
C648 C651 1.356 . S
C648 O678 1.325 . S
N649 C652 1.314 . S
N649 C653 1.279 . S
C650 C648 1.348 . S
C650 C652 1.353 . S
C650 H692 0.929 . S
C651 C648 1.356 . S
C651 C653 1.358 . S
C651 H693 0.930 . S
C652 N649 1.314 . S
C652 C650 1.353 . S
C652 H694 0.930 . S
C653 N649 1.279 . S
C653 C651 1.358 . S
C653 H695 0.930 . S
C654 C655 1.348 . S
C654 C656 1.356 . S
C654 O679 1.325 . S
C655 C654 1.348 . S
C655 C657 1.353 . S
C655 H696 0.929 . S
C656 C654 1.356 . S
C656 C658 1.358 . S
C656 H697 0.930 . S
C657 C655 1.353 . S
C657 N659 1.314 . S
C657 H698 0.930 . S
C658 C656 1.358 . S
C658 N659 1.279 . S
C658 H699 0.930 . S
N659 C657 1.314 . S
N659 C658 1.279 . S
C660 C662 1.353 . S
C660 N663 1.314 . S
C660 H666 0.930 . S
C661 N663 1.279 . S
C661 C664 1.358 . S
C661 H667 0.930 . S
C662 C660 1.353 . S
C662 C665 1.348 . S
C662 H700 0.929 . S
N663 Li618 1.990 . S
N663 C660 1.314 . S
N663 C661 1.279 . S
C664 C661 1.358 . S
C664 C665 1.356 . S
C664 H701 0.930 . S
C665 C662 1.348 . S
C665 C664 1.356 . S
H666 C660 0.930 . S
H667 C661 0.930 . S
C668 N669 1.314 . S
C668 C670 1.353 . S
C668 H674 0.930 . S
N669 Li619 1.990 . S
N669 C668 1.314 . S
N669 C672 1.279 . S
C670 C668 1.353 . S
C670 C673 1.348 . S
C670 H702 0.929 . S
C671 C672 1.358 . S
C671 C673 1.356 . S
C671 H703 0.930 . S
C672 N669 1.279 . S
C672 C671 1.358 . S
C672 H675 0.930 . S
C673 C670 1.348 . S
C673 C671 1.356 . S
H674 C668 0.930 . S
H675 C672 0.930 . S
O676 Li616 1.956 . S
O676 Li617 1.970 . S
O676 Li618 1.961 . S
O676 C620 1.325 . S
O677 Li616 1.970 . S
O677 Li617 1.956 . S
O677 Li619 1.961 . S
O677 C626 1.325 . S
O678 Li616 1.961 . S
O678 Li618 1.956 . S
O678 Li619 1.970 . S
O678 C648 1.325 . S
O679 Li617 1.961 . S
O679 Li618 1.970 . S
O679 Li619 1.956 . S
O679 C654 1.325 . S
H680 C622 0.929 . S
H681 C623 0.930 . S
H682 C624 0.930 . S
H683 C625 0.930 . S
H684 C627 0.930 . S
H685 C629 0.929 . S
H686 C630 0.930 . S
H687 C631 0.930 . S
H688 C634 0.930 . S
H689 C637 0.929 . S
H690 C642 0.929 . S
H691 C643 0.930 . S
H692 C650 0.929 . S
H693 C651 0.930 . S
H694 C652 0.930 . S
H695 C653 0.930 . S
H696 C655 0.929 . S
H697 C656 0.930 . S
H698 C657 0.930 . S
H699 C658 0.930 . S
H700 C662 0.929 . S
H701 C664 0.930 . S
H702 C670 0.929 . S
H703 C671 0.930 . S
Li704 N721 1.990 . S
Li704 O764 1.956 . S
Li704 O765 1.970 . S
Li704 O766 1.961 . S
Li705 N729 1.990 . S
Li705 O764 1.970 . S
Li705 O765 1.956 . S
Li705 O767 1.961 . S
Li706 N751 1.990 . S
Li706 O764 1.961 . S
Li706 O766 1.956 . S
Li706 O767 1.970 . S
Li707 N757 1.990 . S
Li707 O765 1.961 . S
Li707 O766 1.970 . S
Li707 O767 1.956 . S
C708 C710 1.348 . S
C708 C711 1.356 . S
C708 O764 1.325 . S
N709 C712 1.314 . S
N709 C713 1.279 . S
C710 C708 1.348 . S
C710 C712 1.353 . S
C710 H768 0.929 . S
C711 C708 1.356 . S
C711 C713 1.358 . S
C711 H769 0.930 . S
C712 N709 1.314 . S
C712 C710 1.353 . S
C712 H770 0.930 . S
C713 N709 1.279 . S
C713 C711 1.358 . S
C713 H771 0.930 . S
C714 C717 1.348 . S
C714 C718 1.356 . S
C714 O765 1.325 . S
C715 N716 1.279 . S
C715 C718 1.358 . S
C715 H772 0.930 . S
N716 C715 1.279 . S
N716 C719 1.314 . S
C717 C714 1.348 . S
C717 C719 1.353 . S
C717 H773 0.929 . S
C718 C714 1.356 . S
C718 C715 1.358 . S
C718 H774 0.930 . S
C719 N716 1.314 . S
C719 C717 1.353 . S
C719 H775 0.930 . S
C720 N721 1.314 . S
C720 C725 1.353 . S
C720 H726 0.930 . S
N721 Li704 1.990 . S
N721 C720 1.314 . S
N721 C723 1.279 . S
C722 C723 1.358 . S
C722 C724 1.356 . S
C722 H776 0.930 . S
C723 N721 1.279 . S
C723 C722 1.358 . S
C723 H727 0.930 . S
C724 C722 1.356 . S
C724 C725 1.348 . S
C725 C720 1.353 . S
C725 C724 1.348 . S
C725 H777 0.929 . S
H726 C720 0.930 . S
H727 C723 0.930 . S
C728 N729 1.314 . S
C728 C730 1.353 . S
C728 H734 0.930 . S
N729 Li705 1.990 . S
N729 C728 1.314 . S
N729 C732 1.279 . S
C730 C728 1.353 . S
C730 C733 1.348 . S
C730 H778 0.929 . S
C731 C732 1.358 . S
C731 C733 1.356 . S
C731 H779 0.930 . S
C732 N729 1.279 . S
C732 C731 1.358 . S
C732 H735 0.930 . S
C733 C730 1.348 . S
C733 C731 1.356 . S
H734 C728 0.930 . S
H735 C732 0.930 . S
C736 C738 1.348 . S
C736 C739 1.356 . S
C736 O766 1.325 . S
N737 C740 1.314 . S
N737 C741 1.279 . S
C738 C736 1.348 . S
C738 C740 1.353 . S
C738 H780 0.929 . S
C739 C736 1.356 . S
C739 C741 1.358 . S
C739 H781 0.930 . S
C740 N737 1.314 . S
C740 C738 1.353 . S
C740 H782 0.930 . S
C741 N737 1.279 . S
C741 C739 1.358 . S
C741 H783 0.930 . S
C742 C743 1.348 . S
C742 C744 1.356 . S
C742 O767 1.325 . S
C743 C742 1.348 . S
C743 C745 1.353 . S
C743 H784 0.929 . S
C744 C742 1.356 . S
C744 C746 1.358 . S
C744 H785 0.930 . S
C745 C743 1.353 . S
C745 N747 1.314 . S
C745 H786 0.930 . S
C746 C744 1.358 . S
C746 N747 1.279 . S
C746 H787 0.930 . S
N747 C745 1.314 . S
N747 C746 1.279 . S
C748 C750 1.353 . S
C748 N751 1.314 . S
C748 H754 0.930 . S
C749 N751 1.279 . S
C749 C752 1.358 . S
C749 H755 0.930 . S
C750 C748 1.353 . S
C750 C753 1.348 . S
C750 H788 0.929 . S
N751 Li706 1.990 . S
N751 C748 1.314 . S
N751 C749 1.279 . S
C752 C749 1.358 . S
C752 C753 1.356 . S
C752 H789 0.930 . S
C753 C750 1.348 . S
C753 C752 1.356 . S
H754 C748 0.930 . S
H755 C749 0.930 . S
C756 N757 1.314 . S
C756 C758 1.353 . S
C756 H762 0.930 . S
N757 Li707 1.990 . S
N757 C756 1.314 . S
N757 C760 1.279 . S
C758 C756 1.353 . S
C758 C761 1.348 . S
C758 H790 0.929 . S
C759 C760 1.358 . S
C759 C761 1.356 . S
C759 H791 0.930 . S
C760 N757 1.279 . S
C760 C759 1.358 . S
C760 H763 0.930 . S
C761 C758 1.348 . S
C761 C759 1.356 . S
H762 C756 0.930 . S
H763 C760 0.930 . S
O764 Li704 1.956 . S
O764 Li705 1.970 . S
O764 Li706 1.961 . S
O764 C708 1.325 . S
O765 Li704 1.970 . S
O765 Li705 1.956 . S
O765 Li707 1.961 . S
O765 C714 1.325 . S
O766 Li704 1.961 . S
O766 Li706 1.956 . S
O766 Li707 1.970 . S
O766 C736 1.325 . S
O767 Li705 1.961 . S
O767 Li706 1.970 . S
O767 Li707 1.956 . S
O767 C742 1.325 . S
H768 C710 0.929 . S
H769 C711 0.930 . S
H770 C712 0.930 . S
H771 C713 0.930 . S
H772 C715 0.930 . S
H773 C717 0.929 . S
H774 C718 0.930 . S
H775 C719 0.930 . S
H776 C722 0.930 . S
H777 C725 0.929 . S
H778 C730 0.929 . S
H779 C731 0.930 . S
H780 C738 0.929 . S
H781 C739 0.930 . S
H782 C740 0.930 . S
H783 C741 0.930 . S
H784 C743 0.929 . S
H785 C744 0.930 . S
H786 C745 0.930 . S
H787 C746 0.930 . S
H788 C750 0.929 . S
H789 C752 0.930 . S
H790 C758 0.929 . S
H791 C759 0.930 . S
Li792 N809 1.990 . S
Li792 O852 1.956 . S
Li792 O853 1.970 . S
Li792 O854 1.961 . S
Li793 N817 1.990 . S
Li793 O852 1.970 . S
Li793 O853 1.956 . S
Li793 O855 1.961 . S
Li794 N839 1.990 . S
Li794 O852 1.961 . S
Li794 O854 1.956 . S
Li794 O855 1.970 . S
Li795 N845 1.990 . S
Li795 O853 1.961 . S
Li795 O854 1.970 . S
Li795 O855 1.956 . S
C796 C798 1.348 . S
C796 C799 1.356 . S
C796 O852 1.325 . S
N797 C800 1.314 . S
N797 C801 1.279 . S
C798 C796 1.348 . S
C798 C800 1.353 . S
C798 H856 0.929 . S
C799 C796 1.356 . S
C799 C801 1.358 . S
C799 H857 0.930 . S
C800 N797 1.314 . S
C800 C798 1.353 . S
C800 H858 0.930 . S
C801 N797 1.279 . S
C801 C799 1.358 . S
C801 H859 0.930 . S
C802 C805 1.348 . S
C802 C806 1.356 . S
C802 O853 1.325 . S
C803 N804 1.279 . S
C803 C806 1.358 . S
C803 H860 0.930 . S
N804 C803 1.279 . S
N804 C807 1.314 . S
C805 C802 1.348 . S
C805 C807 1.353 . S
C805 H861 0.929 . S
C806 C802 1.356 . S
C806 C803 1.358 . S
C806 H862 0.930 . S
C807 N804 1.314 . S
C807 C805 1.353 . S
C807 H863 0.930 . S
C808 N809 1.314 . S
C808 C813 1.353 . S
C808 H814 0.930 . S
N809 Li792 1.990 . S
N809 C808 1.314 . S
N809 C811 1.279 . S
C810 C811 1.358 . S
C810 C812 1.356 . S
C810 H864 0.930 . S
C811 N809 1.279 . S
C811 C810 1.358 . S
C811 H815 0.930 . S
C812 C810 1.356 . S
C812 C813 1.348 . S
C813 C808 1.353 . S
C813 C812 1.348 . S
C813 H865 0.929 . S
H814 C808 0.930 . S
H815 C811 0.930 . S
C816 N817 1.314 . S
C816 C818 1.353 . S
C816 H822 0.930 . S
N817 Li793 1.990 . S
N817 C816 1.314 . S
N817 C820 1.279 . S
C818 C816 1.353 . S
C818 C821 1.348 . S
C818 H866 0.929 . S
C819 C820 1.358 . S
C819 C821 1.356 . S
C819 H867 0.930 . S
C820 N817 1.279 . S
C820 C819 1.358 . S
C820 H823 0.930 . S
C821 C818 1.348 . S
C821 C819 1.356 . S
H822 C816 0.930 . S
H823 C820 0.930 . S
C824 C826 1.348 . S
C824 C827 1.356 . S
C824 O854 1.325 . S
N825 C828 1.314 . S
N825 C829 1.279 . S
C826 C824 1.348 . S
C826 C828 1.353 . S
C826 H868 0.929 . S
C827 C824 1.356 . S
C827 C829 1.358 . S
C827 H869 0.930 . S
C828 N825 1.314 . S
C828 C826 1.353 . S
C828 H870 0.930 . S
C829 N825 1.279 . S
C829 C827 1.358 . S
C829 H871 0.930 . S
C830 C831 1.348 . S
C830 C832 1.356 . S
C830 O855 1.325 . S
C831 C830 1.348 . S
C831 C833 1.353 . S
C831 H872 0.929 . S
C832 C830 1.356 . S
C832 C834 1.358 . S
C832 H873 0.930 . S
C833 C831 1.353 . S
C833 N835 1.314 . S
C833 H874 0.930 . S
C834 C832 1.358 . S
C834 N835 1.279 . S
C834 H875 0.930 . S
N835 C833 1.314 . S
N835 C834 1.279 . S
C836 C838 1.353 . S
C836 N839 1.314 . S
C836 H842 0.930 . S
C837 N839 1.279 . S
C837 C840 1.358 . S
C837 H843 0.930 . S
C838 C836 1.353 . S
C838 C841 1.348 . S
C838 H876 0.929 . S
N839 Li794 1.990 . S
N839 C836 1.314 . S
N839 C837 1.279 . S
C840 C837 1.358 . S
C840 C841 1.356 . S
C840 H877 0.930 . S
C841 C838 1.348 . S
C841 C840 1.356 . S
H842 C836 0.930 . S
H843 C837 0.930 . S
C844 N845 1.314 . S
C844 C846 1.353 . S
C844 H850 0.930 . S
N845 Li795 1.990 . S
N845 C844 1.314 . S
N845 C848 1.279 . S
C846 C844 1.353 . S
C846 C849 1.348 . S
C846 H878 0.929 . S
C847 C848 1.358 . S
C847 C849 1.356 . S
C847 H879 0.930 . S
C848 N845 1.279 . S
C848 C847 1.358 . S
C848 H851 0.930 . S
C849 C846 1.348 . S
C849 C847 1.356 . S
H850 C844 0.930 . S
H851 C848 0.930 . S
O852 Li792 1.956 . S
O852 Li793 1.970 . S
O852 Li794 1.961 . S
O852 C796 1.325 . S
O853 Li792 1.970 . S
O853 Li793 1.956 . S
O853 Li795 1.961 . S
O853 C802 1.325 . S
O854 Li792 1.961 . S
O854 Li794 1.956 . S
O854 Li795 1.970 . S
O854 C824 1.325 . S
O855 Li793 1.961 . S
O855 Li794 1.970 . S
O855 Li795 1.956 . S
O855 C830 1.325 . S
H856 C798 0.929 . S
H857 C799 0.930 . S
H858 C800 0.930 . S
H859 C801 0.930 . S
H860 C803 0.930 . S
H861 C805 0.929 . S
H862 C806 0.930 . S
H863 C807 0.930 . S
H864 C810 0.930 . S
H865 C813 0.929 . S
H866 C818 0.929 . S
H867 C819 0.930 . S
H868 C826 0.929 . S
H869 C827 0.930 . S
H870 C828 0.930 . S
H871 C829 0.930 . S
H872 C831 0.929 . S
H873 C832 0.930 . S
H874 C833 0.930 . S
H875 C834 0.930 . S
H876 C838 0.929 . S
H877 C840 0.930 . S
H878 C846 0.929 . S
H879 C847 0.930 . S
Li880 N897 1.990 . S
Li880 O940 1.956 . S
Li880 O941 1.970 . S
Li880 O942 1.961 . S
Li881 N905 1.990 . S
Li881 O940 1.970 . S
Li881 O941 1.956 . S
Li881 O943 1.961 . S
Li882 N927 1.990 . S
Li882 O940 1.961 . S
Li882 O942 1.956 . S
Li882 O943 1.970 . S
Li883 N933 1.990 . S
Li883 O941 1.961 . S
Li883 O942 1.970 . S
Li883 O943 1.956 . S
C884 C886 1.348 . S
C884 C887 1.356 . S
C884 O940 1.325 . S
N885 C888 1.314 . S
N885 C889 1.279 . S
C886 C884 1.348 . S
C886 C888 1.353 . S
C886 H944 0.929 . S
C887 C884 1.356 . S
C887 C889 1.358 . S
C887 H945 0.930 . S
C888 N885 1.314 . S
C888 C886 1.353 . S
C888 H946 0.930 . S
C889 N885 1.279 . S
C889 C887 1.358 . S
C889 H947 0.930 . S
C890 C893 1.348 . S
C890 C894 1.356 . S
C890 O941 1.325 . S
C891 N892 1.279 . S
C891 C894 1.358 . S
C891 H948 0.930 . S
N892 C891 1.279 . S
N892 C895 1.314 . S
C893 C890 1.348 . S
C893 C895 1.353 . S
C893 H949 0.929 . S
C894 C890 1.356 . S
C894 C891 1.358 . S
C894 H950 0.930 . S
C895 N892 1.314 . S
C895 C893 1.353 . S
C895 H951 0.930 . S
C896 N897 1.314 . S
C896 C901 1.353 . S
C896 H902 0.930 . S
N897 Li880 1.990 . S
N897 C896 1.314 . S
N897 C899 1.279 . S
C898 C899 1.358 . S
C898 C900 1.356 . S
C898 H952 0.930 . S
C899 N897 1.279 . S
C899 C898 1.358 . S
C899 H903 0.930 . S
C900 C898 1.356 . S
C900 C901 1.348 . S
C901 C896 1.353 . S
C901 C900 1.348 . S
C901 H953 0.929 . S
H902 C896 0.930 . S
H903 C899 0.930 . S
C904 N905 1.314 . S
C904 C906 1.353 . S
C904 H910 0.930 . S
N905 Li881 1.990 . S
N905 C904 1.314 . S
N905 C908 1.279 . S
C906 C904 1.353 . S
C906 C909 1.348 . S
C906 H954 0.929 . S
C907 C908 1.358 . S
C907 C909 1.356 . S
C907 H955 0.930 . S
C908 N905 1.279 . S
C908 C907 1.358 . S
C908 H911 0.930 . S
C909 C906 1.348 . S
C909 C907 1.356 . S
H910 C904 0.930 . S
H911 C908 0.930 . S
C912 C914 1.348 . S
C912 C915 1.356 . S
C912 O942 1.325 . S
N913 C916 1.314 . S
N913 C917 1.279 . S
C914 C912 1.348 . S
C914 C916 1.353 . S
C914 H956 0.929 . S
C915 C912 1.356 . S
C915 C917 1.358 . S
C915 H957 0.930 . S
C916 N913 1.314 . S
C916 C914 1.353 . S
C916 H958 0.930 . S
C917 N913 1.279 . S
C917 C915 1.358 . S
C917 H959 0.930 . S
C918 C919 1.348 . S
C918 C920 1.356 . S
C918 O943 1.325 . S
C919 C918 1.348 . S
C919 C921 1.353 . S
C919 H960 0.929 . S
C920 C918 1.356 . S
C920 C922 1.358 . S
C920 H961 0.930 . S
C921 C919 1.353 . S
C921 N923 1.314 . S
C921 H962 0.930 . S
C922 C920 1.358 . S
C922 N923 1.279 . S
C922 H963 0.930 . S
N923 C921 1.314 . S
N923 C922 1.279 . S
C924 C926 1.353 . S
C924 N927 1.314 . S
C924 H930 0.930 . S
C925 N927 1.279 . S
C925 C928 1.358 . S
C925 H931 0.930 . S
C926 C924 1.353 . S
C926 C929 1.348 . S
C926 H964 0.929 . S
N927 Li882 1.990 . S
N927 C924 1.314 . S
N927 C925 1.279 . S
C928 C925 1.358 . S
C928 C929 1.356 . S
C928 H965 0.930 . S
C929 C926 1.348 . S
C929 C928 1.356 . S
H930 C924 0.930 . S
H931 C925 0.930 . S
C932 N933 1.314 . S
C932 C934 1.353 . S
C932 H938 0.930 . S
N933 Li883 1.990 . S
N933 C932 1.314 . S
N933 C936 1.279 . S
C934 C932 1.353 . S
C934 C937 1.348 . S
C934 H966 0.929 . S
C935 C936 1.358 . S
C935 C937 1.356 . S
C935 H967 0.930 . S
C936 N933 1.279 . S
C936 C935 1.358 . S
C936 H939 0.930 . S
C937 C934 1.348 . S
C937 C935 1.356 . S
H938 C932 0.930 . S
H939 C936 0.930 . S
O940 Li880 1.956 . S
O940 Li881 1.970 . S
O940 Li882 1.961 . S
O940 C884 1.325 . S
O941 Li880 1.970 . S
O941 Li881 1.956 . S
O941 Li883 1.961 . S
O941 C890 1.325 . S
O942 Li880 1.961 . S
O942 Li882 1.956 . S
O942 Li883 1.970 . S
O942 C912 1.325 . S
O943 Li881 1.961 . S
O943 Li882 1.970 . S
O943 Li883 1.956 . S
O943 C918 1.325 . S
H944 C886 0.929 . S
H945 C887 0.930 . S
H946 C888 0.930 . S
H947 C889 0.930 . S
H948 C891 0.930 . S
H949 C893 0.929 . S
H950 C894 0.930 . S
H951 C895 0.930 . S
H952 C898 0.930 . S
H953 C901 0.929 . S
H954 C906 0.929 . S
H955 C907 0.930 . S
H956 C914 0.929 . S
H957 C915 0.930 . S
H958 C916 0.930 . S
H959 C917 0.930 . S
H960 C919 0.929 . S
H961 C920 0.930 . S
H962 C921 0.930 . S
H963 C922 0.930 . S
H964 C926 0.929 . S
H965 C928 0.930 . S
H966 C934 0.929 . S
H967 C935 0.930 . S
Li968 N985 1.990 . S
Li968 O1028 1.956 . S
Li968 O1029 1.970 . S
Li968 O1030 1.961 . S
Li969 N993 1.990 . S
Li969 O1028 1.970 . S
Li969 O1029 1.956 . S
Li969 O1031 1.961 . S
Li970 N1015 1.990 . S
Li970 O1028 1.961 . S
Li970 O1030 1.956 . S
Li970 O1031 1.970 . S
Li971 N1021 1.990 . S
Li971 O1029 1.961 . S
Li971 O1030 1.970 . S
Li971 O1031 1.956 . S
C972 C974 1.348 . S
C972 C975 1.356 . S
C972 O1028 1.325 . S
N973 C976 1.314 . S
N973 C977 1.279 . S
C974 C972 1.348 . S
C974 C976 1.353 . S
C974 H1032 0.929 . S
C975 C972 1.356 . S
C975 C977 1.358 . S
C975 H1033 0.930 . S
C976 N973 1.314 . S
C976 C974 1.353 . S
C976 H1034 0.930 . S
C977 N973 1.279 . S
C977 C975 1.358 . S
C977 H1035 0.930 . S
C978 C981 1.348 . S
C978 C982 1.356 . S
C978 O1029 1.325 . S
C979 N980 1.279 . S
C979 C982 1.358 . S
C979 H1036 0.930 . S
N980 C979 1.279 . S
N980 C983 1.314 . S
C981 C978 1.348 . S
C981 C983 1.353 . S
C981 H1037 0.929 . S
C982 C978 1.356 . S
C982 C979 1.358 . S
C982 H1038 0.930 . S
C983 N980 1.314 . S
C983 C981 1.353 . S
C983 H1039 0.930 . S
C984 N985 1.314 . S
C984 C989 1.353 . S
C984 H990 0.930 . S
N985 Li968 1.990 . S
N985 C984 1.314 . S
N985 C987 1.279 . S
C986 C987 1.358 . S
C986 C988 1.356 . S
C986 H1040 0.930 . S
C987 N985 1.279 . S
C987 C986 1.358 . S
C987 H991 0.930 . S
C988 C986 1.356 . S
C988 C989 1.348 . S
C989 C984 1.353 . S
C989 C988 1.348 . S
C989 H1041 0.929 . S
H990 C984 0.930 . S
H991 C987 0.930 . S
C992 N993 1.314 . S
C992 C994 1.353 . S
C992 H998 0.930 . S
N993 Li969 1.990 . S
N993 C992 1.314 . S
N993 C996 1.279 . S
C994 C992 1.353 . S
C994 C997 1.348 . S
C994 H1042 0.929 . S
C995 C996 1.358 . S
C995 C997 1.356 . S
C995 H1043 0.930 . S
C996 N993 1.279 . S
C996 C995 1.358 . S
C996 H999 0.930 . S
C997 C994 1.348 . S
C997 C995 1.356 . S
H998 C992 0.930 . S
H999 C996 0.930 . S
C1000 C1002 1.348 . S
C1000 C1003 1.356 . S
C1000 O1030 1.325 . S
N1001 C1004 1.314 . S
N1001 C1005 1.279 . S
C1002 C1000 1.348 . S
C1002 C1004 1.353 . S
C1002 H1044 0.929 . S
C1003 C1000 1.356 . S
C1003 C1005 1.358 . S
C1003 H1045 0.930 . S
C1004 N1001 1.314 . S
C1004 C1002 1.353 . S
C1004 H1046 0.930 . S
C1005 N1001 1.279 . S
C1005 C1003 1.358 . S
C1005 H1047 0.930 . S
C1006 C1007 1.348 . S
C1006 C1008 1.356 . S
C1006 O1031 1.325 . S
C1007 C1006 1.348 . S
C1007 C1009 1.353 . S
C1007 H1048 0.929 . S
C1008 C1006 1.356 . S
C1008 C1010 1.358 . S
C1008 H1049 0.930 . S
C1009 C1007 1.353 . S
C1009 N1011 1.314 . S
C1009 H1050 0.930 . S
C1010 C1008 1.358 . S
C1010 N1011 1.279 . S
C1010 H1051 0.930 . S
N1011 C1009 1.314 . S
N1011 C1010 1.279 . S
C1012 C1014 1.353 . S
C1012 N1015 1.314 . S
C1012 H1018 0.930 . S
C1013 N1015 1.279 . S
C1013 C1016 1.358 . S
C1013 H1019 0.930 . S
C1014 C1012 1.353 . S
C1014 C1017 1.348 . S
C1014 H1052 0.929 . S
N1015 Li970 1.990 . S
N1015 C1012 1.314 . S
N1015 C1013 1.279 . S
C1016 C1013 1.358 . S
C1016 C1017 1.356 . S
C1016 H1053 0.930 . S
C1017 C1014 1.348 . S
C1017 C1016 1.356 . S
H1018 C1012 0.930 . S
H1019 C1013 0.930 . S
C1020 N1021 1.314 . S
C1020 C1022 1.353 . S
C1020 H1026 0.930 . S
N1021 Li971 1.990 . S
N1021 C1020 1.314 . S
N1021 C1024 1.279 . S
C1022 C1020 1.353 . S
C1022 C1025 1.348 . S
C1022 H1054 0.929 . S
C1023 C1024 1.358 . S
C1023 C1025 1.356 . S
C1023 H1055 0.930 . S
C1024 N1021 1.279 . S
C1024 C1023 1.358 . S
C1024 H1027 0.930 . S
C1025 C1022 1.348 . S
C1025 C1023 1.356 . S
H1026 C1020 0.930 . S
H1027 C1024 0.930 . S
O1028 Li968 1.956 . S
O1028 Li969 1.970 . S
O1028 Li970 1.961 . S
O1028 C972 1.325 . S
O1029 Li968 1.970 . S
O1029 Li969 1.956 . S
O1029 Li971 1.961 . S
O1029 C978 1.325 . S
O1030 Li968 1.961 . S
O1030 Li970 1.956 . S
O1030 Li971 1.970 . S
O1030 C1000 1.325 . S
O1031 Li969 1.961 . S
O1031 Li970 1.970 . S
O1031 Li971 1.956 . S
O1031 C1006 1.325 . S
H1032 C974 0.929 . S
H1033 C975 0.930 . S
H1034 C976 0.930 . S
H1035 C977 0.930 . S
H1036 C979 0.930 . S
H1037 C981 0.929 . S
H1038 C982 0.930 . S
H1039 C983 0.930 . S
H1040 C986 0.930 . S
H1041 C989 0.929 . S
H1042 C994 0.929 . S
H1043 C995 0.930 . S
H1044 C1002 0.929 . S
H1045 C1003 0.930 . S
H1046 C1004 0.930 . S
H1047 C1005 0.930 . S
H1048 C1007 0.929 . S
H1049 C1008 0.930 . S
H1050 C1009 0.930 . S
H1051 C1010 0.930 . S
H1052 C1014 0.929 . S
H1053 C1016 0.930 . S
H1054 C1022 0.929 . S
H1055 C1023 0.930 . S
Li1056 N1073 1.990 . S
Li1056 O1116 1.956 . S
Li1056 O1117 1.970 . S
Li1056 O1118 1.961 . S
Li1057 N1081 1.990 . S
Li1057 O1116 1.970 . S
Li1057 O1117 1.956 . S
Li1057 O1119 1.961 . S
Li1058 N1103 1.990 . S
Li1058 O1116 1.961 . S
Li1058 O1118 1.956 . S
Li1058 O1119 1.970 . S
Li1059 N1109 1.990 . S
Li1059 O1117 1.961 . S
Li1059 O1118 1.970 . S
Li1059 O1119 1.956 . S
C1060 C1062 1.348 . S
C1060 C1063 1.356 . S
C1060 O1116 1.325 . S
N1061 C1064 1.314 . S
N1061 C1065 1.279 . S
C1062 C1060 1.348 . S
C1062 C1064 1.353 . S
C1062 H1120 0.929 . S
C1063 C1060 1.356 . S
C1063 C1065 1.358 . S
C1063 H1121 0.930 . S
C1064 N1061 1.314 . S
C1064 C1062 1.353 . S
C1064 H1122 0.930 . S
C1065 N1061 1.279 . S
C1065 C1063 1.358 . S
C1065 H1123 0.930 . S
C1066 C1069 1.348 . S
C1066 C1070 1.356 . S
C1066 O1117 1.325 . S
C1067 N1068 1.279 . S
C1067 C1070 1.358 . S
C1067 H1124 0.930 . S
N1068 C1067 1.279 . S
N1068 C1071 1.314 . S
C1069 C1066 1.348 . S
C1069 C1071 1.353 . S
C1069 H1125 0.929 . S
C1070 C1066 1.356 . S
C1070 C1067 1.358 . S
C1070 H1126 0.930 . S
C1071 N1068 1.314 . S
C1071 C1069 1.353 . S
C1071 H1127 0.930 . S
C1072 N1073 1.314 . S
C1072 C1077 1.353 . S
C1072 H1078 0.930 . S
N1073 Li1056 1.990 . S
N1073 C1072 1.314 . S
N1073 C1075 1.279 . S
C1074 C1075 1.358 . S
C1074 C1076 1.356 . S
C1074 H1128 0.930 . S
C1075 N1073 1.279 . S
C1075 C1074 1.358 . S
C1075 H1079 0.930 . S
C1076 C1074 1.356 . S
C1076 C1077 1.348 . S
C1077 C1072 1.353 . S
C1077 C1076 1.348 . S
C1077 H1129 0.929 . S
H1078 C1072 0.930 . S
H1079 C1075 0.930 . S
C1080 N1081 1.314 . S
C1080 C1082 1.353 . S
C1080 H1086 0.930 . S
N1081 Li1057 1.990 . S
N1081 C1080 1.314 . S
N1081 C1084 1.279 . S
C1082 C1080 1.353 . S
C1082 C1085 1.348 . S
C1082 H1130 0.929 . S
C1083 C1084 1.358 . S
C1083 C1085 1.356 . S
C1083 H1131 0.930 . S
C1084 N1081 1.279 . S
C1084 C1083 1.358 . S
C1084 H1087 0.930 . S
C1085 C1082 1.348 . S
C1085 C1083 1.356 . S
H1086 C1080 0.930 . S
H1087 C1084 0.930 . S
C1088 C1090 1.348 . S
C1088 C1091 1.356 . S
C1088 O1118 1.325 . S
N1089 C1092 1.314 . S
N1089 C1093 1.279 . S
C1090 C1088 1.348 . S
C1090 C1092 1.353 . S
C1090 H1132 0.929 . S
C1091 C1088 1.356 . S
C1091 C1093 1.358 . S
C1091 H1133 0.930 . S
C1092 N1089 1.314 . S
C1092 C1090 1.353 . S
C1092 H1134 0.930 . S
C1093 N1089 1.279 . S
C1093 C1091 1.358 . S
C1093 H1135 0.930 . S
C1094 C1095 1.348 . S
C1094 C1096 1.356 . S
C1094 O1119 1.325 . S
C1095 C1094 1.348 . S
C1095 C1097 1.353 . S
C1095 H1136 0.929 . S
C1096 C1094 1.356 . S
C1096 C1098 1.358 . S
C1096 H1137 0.930 . S
C1097 C1095 1.353 . S
C1097 N1099 1.314 . S
C1097 H1138 0.930 . S
C1098 C1096 1.358 . S
C1098 N1099 1.279 . S
C1098 H1139 0.930 . S
N1099 C1097 1.314 . S
N1099 C1098 1.279 . S
C1100 C1102 1.353 . S
C1100 N1103 1.314 . S
C1100 H1106 0.930 . S
C1101 N1103 1.279 . S
C1101 C1104 1.358 . S
C1101 H1107 0.930 . S
C1102 C1100 1.353 . S
C1102 C1105 1.348 . S
C1102 H1140 0.929 . S
N1103 Li1058 1.990 . S
N1103 C1100 1.314 . S
N1103 C1101 1.279 . S
C1104 C1101 1.358 . S
C1104 C1105 1.356 . S
C1104 H1141 0.930 . S
C1105 C1102 1.348 . S
C1105 C1104 1.356 . S
H1106 C1100 0.930 . S
H1107 C1101 0.930 . S
C1108 N1109 1.314 . S
C1108 C1110 1.353 . S
C1108 H1114 0.930 . S
N1109 Li1059 1.990 . S
N1109 C1108 1.314 . S
N1109 C1112 1.279 . S
C1110 C1108 1.353 . S
C1110 C1113 1.348 . S
C1110 H1142 0.929 . S
C1111 C1112 1.358 . S
C1111 C1113 1.356 . S
C1111 H1143 0.930 . S
C1112 N1109 1.279 . S
C1112 C1111 1.358 . S
C1112 H1115 0.930 . S
C1113 C1110 1.348 . S
C1113 C1111 1.356 . S
H1114 C1108 0.930 . S
H1115 C1112 0.930 . S
O1116 Li1056 1.956 . S
O1116 Li1057 1.970 . S
O1116 Li1058 1.961 . S
O1116 C1060 1.325 . S
O1117 Li1056 1.970 . S
O1117 Li1057 1.956 . S
O1117 Li1059 1.961 . S
O1117 C1066 1.325 . S
O1118 Li1056 1.961 . S
O1118 Li1058 1.956 . S
O1118 Li1059 1.970 . S
O1118 C1088 1.325 . S
O1119 Li1057 1.961 . S
O1119 Li1058 1.970 . S
O1119 Li1059 1.956 . S
O1119 C1094 1.325 . S
H1120 C1062 0.929 . S
H1121 C1063 0.930 . S
H1122 C1064 0.930 . S
H1123 C1065 0.930 . S
H1124 C1067 0.930 . S
H1125 C1069 0.929 . S
H1126 C1070 0.930 . S
H1127 C1071 0.930 . S
H1128 C1074 0.930 . S
H1129 C1077 0.929 . S
H1130 C1082 0.929 . S
H1131 C1083 0.930 . S
H1132 C1090 0.929 . S
H1133 C1091 0.930 . S
H1134 C1092 0.930 . S
H1135 C1093 0.930 . S
H1136 C1095 0.929 . S
H1137 C1096 0.930 . S
H1138 C1097 0.930 . S
H1139 C1098 0.930 . S
H1140 C1102 0.929 . S
H1141 C1104 0.930 . S
H1142 C1110 0.929 . S
H1143 C1111 0.930 . S
Li1144 N1161 1.990 . S
Li1144 O1204 1.956 1_655 S
Li1144 O1205 1.970 1_655 S
Li1144 O1206 1.961 . S
Li1145 N1169 1.990 . S
Li1145 O1204 1.970 . S
Li1145 O1205 1.956 . S
Li1145 O1207 1.961 . S
Li1146 N1191 1.990 . S
Li1146 O1204 1.961 . S
Li1146 O1206 1.956 1_455 S
Li1146 O1207 1.970 . S
Li1147 N1197 1.990 . S
Li1147 O1205 1.961 . S
Li1147 O1206 1.970 1_455 S
Li1147 O1207 1.956 . S
C1148 C1150 1.348 . S
C1148 C1151 1.356 1_455 S
C1148 O1204 1.325 . S
N1149 C1152 1.314 . S
N1149 C1153 1.279 1_455 S
C1150 C1148 1.348 . S
C1150 C1152 1.353 . S
C1150 H1208 0.929 . S
C1151 C1148 1.356 1_655 S
C1151 C1153 1.358 . S
C1151 H1209 0.930 . S
C1152 N1149 1.314 . S
C1152 C1150 1.353 . S
C1152 H1210 0.930 . S
C1153 N1149 1.279 1_655 S
C1153 C1151 1.358 . S
C1153 H1211 0.930 . S
C1154 C1157 1.359 . S
C1154 C1158 1.356 . S
C1154 O1205 1.325 . S
C1155 N1156 1.279 . S
C1155 C1158 1.358 . S
C1155 H1212 0.930 . S
N1156 C1155 1.279 . S
N1156 C1159 1.314 . S
C1157 C1154 1.359 . S
C1157 C1159 1.355 . S
C1157 H1213 0.916 1_455 S
C1158 C1154 1.356 . S
C1158 C1155 1.358 . S
C1158 H1214 0.930 . S
C1159 N1156 1.314 . S
C1159 C1157 1.355 . S
C1159 H1215 0.930 1_455 S
C1160 N1161 1.314 . S
C1160 C1165 1.353 . S
C1160 H1166 0.930 . S
N1161 Li1144 1.990 . S
N1161 C1160 1.314 . S
N1161 C1163 1.279 . S
C1162 C1163 1.358 . S
C1162 C1164 1.356 . S
C1162 H1216 0.930 . S
C1163 N1161 1.279 . S
C1163 C1162 1.358 . S
C1163 H1167 0.930 . S
C1164 C1162 1.356 . S
C1164 C1165 1.348 . S
C1165 C1160 1.353 . S
C1165 C1164 1.348 . S
C1165 H1217 0.929 . S
H1166 C1160 0.930 . S
H1167 C1163 0.930 . S
C1168 N1169 1.314 . S
C1168 C1170 1.353 . S
C1168 H1174 0.930 . S
N1169 Li1145 1.990 . S
N1169 C1168 1.314 . S
N1169 C1172 1.279 . S
C1170 C1168 1.353 . S
C1170 C1173 1.348 . S
C1170 H1218 0.929 . S
C1171 C1172 1.358 . S
C1171 C1173 1.356 . S
C1171 H1219 0.930 . S
C1172 N1169 1.279 . S
C1172 C1171 1.358 . S
C1172 H1175 0.930 . S
C1173 C1170 1.348 . S
C1173 C1171 1.356 . S
H1174 C1168 0.930 . S
H1175 C1172 0.930 . S
C1176 C1178 1.348 . S
C1176 C1179 1.356 . S
C1176 O1206 1.325 . S
N1177 C1180 1.314 . S
N1177 C1181 1.279 . S
C1178 C1176 1.348 . S
C1178 C1180 1.353 . S
C1178 H1220 0.929 . S
C1179 C1176 1.356 . S
C1179 C1181 1.358 . S
C1179 H1221 0.930 . S
C1180 N1177 1.314 . S
C1180 C1178 1.353 . S
C1180 H1222 0.930 . S
C1181 N1177 1.279 . S
C1181 C1179 1.358 . S
C1181 H1223 0.930 . S
C1182 C1183 1.348 . S
C1182 C1184 1.356 . S
C1182 O1207 1.325 . S
C1183 C1182 1.348 . S
C1183 C1185 1.353 . S
C1183 H1224 0.929 . S
C1184 C1182 1.356 . S
C1184 C1186 1.358 . S
C1184 H1225 0.930 . S
C1185 C1183 1.353 . S
C1185 N1187 1.314 . S
C1185 H1226 0.930 . S
C1186 C1184 1.358 . S
C1186 N1187 1.279 . S
C1186 H1227 0.930 . S
N1187 C1185 1.314 . S
N1187 C1186 1.279 . S
C1188 C1190 1.353 . S
C1188 N1191 1.314 . S
C1188 H1194 0.930 . S
C1189 N1191 1.279 1_655 S
C1189 C1192 1.358 . S
C1189 H1195 0.930 . S
C1190 C1188 1.353 . S
C1190 C1193 1.348 . S
C1190 H1228 0.929 . S
N1191 Li1146 1.990 . S
N1191 C1188 1.314 . S
N1191 C1189 1.279 1_455 S
C1192 C1189 1.358 . S
C1192 C1193 1.356 1_655 S
C1192 H1229 0.930 . S
C1193 C1190 1.348 . S
C1193 C1192 1.356 1_455 S
H1194 C1188 0.930 . S
H1195 C1189 0.930 . S
C1196 N1197 1.314 . S
C1196 C1198 1.356 . S
C1196 H1202 0.930 1_455 S
N1197 Li1147 1.990 . S
N1197 C1196 1.314 . S
N1197 C1200 1.279 . S
C1198 C1196 1.356 . S
C1198 C1201 1.365 . S
C1198 H1230 0.911 1_455 S
C1199 C1200 1.358 . S
C1199 C1201 1.356 . S
C1199 H1231 0.930 . S
C1200 N1197 1.279 . S
C1200 C1199 1.358 . S
C1200 H1203 0.930 . S
C1201 C1198 1.365 . S
C1201 C1199 1.356 . S
H1202 C1196 0.930 1_655 S
H1203 C1200 0.930 . S
O1204 Li1144 1.956 1_455 S
O1204 Li1145 1.970 . S
O1204 Li1146 1.961 . S
O1204 C1148 1.325 . S
O1205 Li1144 1.970 1_455 S
O1205 Li1145 1.956 . S
O1205 Li1147 1.961 . S
O1205 C1154 1.325 . S
O1206 Li1144 1.961 . S
O1206 Li1146 1.956 1_655 S
O1206 Li1147 1.970 1_655 S
O1206 C1176 1.325 . S
O1207 Li1145 1.961 . S
O1207 Li1146 1.970 . S
O1207 Li1147 1.956 . S
O1207 C1182 1.325 . S
H1208 C1150 0.929 . S
H1209 C1151 0.930 . S
H1210 C1152 0.930 . S
H1211 C1153 0.930 . S
H1212 C1155 0.930 . S
H1213 C1157 0.916 1_655 S
H1214 C1158 0.930 . S
H1215 C1159 0.930 1_655 S
H1216 C1162 0.930 . S
H1217 C1165 0.929 . S
H1218 C1170 0.929 . S
H1219 C1171 0.930 . S
H1220 C1178 0.929 . S
H1221 C1179 0.930 . S
H1222 C1180 0.930 . S
H1223 C1181 0.930 . S
H1224 C1183 0.929 . S
H1225 C1184 0.930 . S
H1226 C1185 0.930 . S
H1227 C1186 0.930 . S
H1228 C1190 0.929 . S
H1229 C1192 0.930 . S
H1230 C1198 0.911 1_655 S
H1231 C1199 0.930 . S
Li1232 N1249 1.990 . S
Li1232 O1292 1.956 . S
Li1232 O1293 1.970 . S
Li1232 O1294 1.961 . S
Li1233 N1257 1.990 . S
Li1233 O1292 1.970 . S
Li1233 O1293 1.956 . S
Li1233 O1295 1.961 . S
Li1234 N1279 1.990 . S
Li1234 O1292 1.961 . S
Li1234 O1294 1.956 . S
Li1234 O1295 1.970 . S
Li1235 N1285 1.990 . S
Li1235 O1293 1.961 . S
Li1235 O1294 1.970 . S
Li1235 O1295 1.956 . S
C1236 C1238 1.348 . S
C1236 C1239 1.356 . S
C1236 O1292 1.325 . S
N1237 C1240 1.314 . S
N1237 C1241 1.279 . S
C1238 C1236 1.348 . S
C1238 C1240 1.353 . S
C1238 H1296 0.929 . S
C1239 C1236 1.356 . S
C1239 C1241 1.358 . S
C1239 H1297 0.930 . S
C1240 N1237 1.314 . S
C1240 C1238 1.353 . S
C1240 H1298 0.930 . S
C1241 N1237 1.279 . S
C1241 C1239 1.358 . S
C1241 H1299 0.930 . S
C1242 C1245 1.348 . S
C1242 C1246 1.356 . S
C1242 O1293 1.325 . S
C1243 N1244 1.279 . S
C1243 C1246 1.358 . S
C1243 H1300 0.930 . S
N1244 C1243 1.279 . S
N1244 C1247 1.314 . S
C1245 C1242 1.348 . S
C1245 C1247 1.353 . S
C1245 H1301 0.929 . S
C1246 C1242 1.356 . S
C1246 C1243 1.358 . S
C1246 H1302 0.930 . S
C1247 N1244 1.314 . S
C1247 C1245 1.353 . S
C1247 H1303 0.930 . S
C1248 N1249 1.314 . S
C1248 C1253 1.353 . S
C1248 H1254 0.930 . S
N1249 Li1232 1.990 . S
N1249 C1248 1.314 . S
N1249 C1251 1.279 . S
C1250 C1251 1.358 . S
C1250 C1252 1.356 . S
C1250 H1304 0.930 . S
C1251 N1249 1.279 . S
C1251 C1250 1.358 . S
C1251 H1255 0.930 . S
C1252 C1250 1.356 . S
C1252 C1253 1.348 . S
C1253 C1248 1.353 . S
C1253 C1252 1.348 . S
C1253 H1305 0.929 . S
H1254 C1248 0.930 . S
H1255 C1251 0.930 . S
C1256 N1257 1.314 . S
C1256 C1258 1.353 . S
C1256 H1262 0.930 . S
N1257 Li1233 1.990 . S
N1257 C1256 1.314 . S
N1257 C1260 1.279 . S
C1258 C1256 1.353 . S
C1258 C1261 1.348 . S
C1258 H1306 0.929 . S
C1259 C1260 1.358 . S
C1259 C1261 1.356 . S
C1259 H1307 0.930 . S
C1260 N1257 1.279 . S
C1260 C1259 1.358 . S
C1260 H1263 0.930 . S
C1261 C1258 1.348 . S
C1261 C1259 1.356 . S
H1262 C1256 0.930 . S
H1263 C1260 0.930 . S
C1264 C1266 1.348 . S
C1264 C1267 1.356 . S
C1264 O1294 1.325 . S
N1265 C1268 1.314 . S
N1265 C1269 1.279 . S
C1266 C1264 1.348 . S
C1266 C1268 1.353 . S
C1266 H1308 0.929 . S
C1267 C1264 1.356 . S
C1267 C1269 1.358 . S
C1267 H1309 0.930 . S
C1268 N1265 1.314 . S
C1268 C1266 1.353 . S
C1268 H1310 0.930 . S
C1269 N1265 1.279 . S
C1269 C1267 1.358 . S
C1269 H1311 0.930 . S
C1270 C1271 1.348 . S
C1270 C1272 1.356 . S
C1270 O1295 1.325 . S
C1271 C1270 1.348 . S
C1271 C1273 1.353 . S
C1271 H1312 0.929 . S
C1272 C1270 1.356 . S
C1272 C1274 1.358 . S
C1272 H1313 0.930 . S
C1273 C1271 1.353 . S
C1273 N1275 1.314 . S
C1273 H1314 0.930 . S
C1274 C1272 1.358 . S
C1274 N1275 1.279 . S
C1274 H1315 0.930 . S
N1275 C1273 1.314 . S
N1275 C1274 1.279 . S
C1276 C1278 1.353 . S
C1276 N1279 1.314 . S
C1276 H1282 0.930 . S
C1277 N1279 1.279 . S
C1277 C1280 1.358 . S
C1277 H1283 0.930 . S
C1278 C1276 1.353 . S
C1278 C1281 1.348 . S
C1278 H1316 0.929 . S
N1279 Li1234 1.990 . S
N1279 C1276 1.314 . S
N1279 C1277 1.279 . S
C1280 C1277 1.358 . S
C1280 C1281 1.356 . S
C1280 H1317 0.930 . S
C1281 C1278 1.348 . S
C1281 C1280 1.356 . S
H1282 C1276 0.930 . S
H1283 C1277 0.930 . S
C1284 N1285 1.314 . S
C1284 C1286 1.353 . S
C1284 H1290 0.930 . S
N1285 Li1235 1.990 . S
N1285 C1284 1.314 . S
N1285 C1288 1.279 . S
C1286 C1284 1.353 . S
C1286 C1289 1.348 . S
C1286 H1318 0.929 . S
C1287 C1288 1.358 . S
C1287 C1289 1.356 . S
C1287 H1319 0.930 . S
C1288 N1285 1.279 . S
C1288 C1287 1.358 . S
C1288 H1291 0.930 . S
C1289 C1286 1.348 . S
C1289 C1287 1.356 . S
H1290 C1284 0.930 . S
H1291 C1288 0.930 . S
O1292 Li1232 1.956 . S
O1292 Li1233 1.970 . S
O1292 Li1234 1.961 . S
O1292 C1236 1.325 . S
O1293 Li1232 1.970 . S
O1293 Li1233 1.956 . S
O1293 Li1235 1.961 . S
O1293 C1242 1.325 . S
O1294 Li1232 1.961 . S
O1294 Li1234 1.956 . S
O1294 Li1235 1.970 . S
O1294 C1264 1.325 . S
O1295 Li1233 1.961 . S
O1295 Li1234 1.970 . S
O1295 Li1235 1.956 . S
O1295 C1270 1.325 . S
H1296 C1238 0.929 . S
H1297 C1239 0.930 . S
H1298 C1240 0.930 . S
H1299 C1241 0.930 . S
H1300 C1243 0.930 . S
H1301 C1245 0.929 . S
H1302 C1246 0.930 . S
H1303 C1247 0.930 . S
H1304 C1250 0.930 . S
H1305 C1253 0.929 . S
H1306 C1258 0.929 . S
H1307 C1259 0.930 . S
H1308 C1266 0.929 . S
H1309 C1267 0.930 . S
H1310 C1268 0.930 . S
H1311 C1269 0.930 . S
H1312 C1271 0.929 . S
H1313 C1272 0.930 . S
H1314 C1273 0.930 . S
H1315 C1274 0.930 . S
H1316 C1278 0.929 . S
H1317 C1280 0.930 . S
H1318 C1286 0.929 . S
H1319 C1287 0.930 . S
Li1320 N1337 1.990 . S
Li1320 O1380 1.956 . S
Li1320 O1381 1.970 1_455 S
Li1320 O1382 1.961 . S
Li1321 N1345 1.990 . S
Li1321 O1380 1.970 . S
Li1321 O1381 1.956 1_455 S
Li1321 O1383 1.961 . S
Li1322 N1367 1.990 . S
Li1322 O1380 1.961 . S
Li1322 O1382 1.956 . S
Li1322 O1383 1.970 . S
Li1323 N1373 1.990 . S
Li1323 O1381 1.961 . S
Li1323 O1382 1.970 1_655 S
Li1323 O1383 1.956 1_655 S
C1324 C1326 1.348 . S
C1324 C1327 1.356 . S
C1324 O1380 1.325 . S
N1325 C1328 1.314 . S
N1325 C1329 1.279 . S
C1326 C1324 1.348 . S
C1326 C1328 1.353 . S
C1326 H1384 0.929 . S
C1327 C1324 1.356 . S
C1327 C1329 1.358 . S
C1327 H1385 0.930 . S
C1328 N1325 1.314 . S
C1328 C1326 1.353 . S
C1328 H1386 0.930 . S
C1329 N1325 1.279 . S
C1329 C1327 1.358 . S
C1329 H1387 0.930 . S
C1330 C1333 1.348 . S
C1330 C1334 1.356 . S
C1330 O1381 1.325 . S
C1331 N1332 1.279 . S
C1331 C1334 1.358 . S
C1331 H1388 0.930 . S
N1332 C1331 1.279 . S
N1332 C1335 1.314 . S
C1333 C1330 1.348 . S
C1333 C1335 1.353 . S
C1333 H1389 0.929 . S
C1334 C1330 1.356 . S
C1334 C1331 1.358 . S
C1334 H1390 0.930 . S
C1335 N1332 1.314 . S
C1335 C1333 1.353 . S
C1335 H1391 0.930 . S
C1336 N1337 1.314 . S
C1336 C1341 1.356 . S
C1336 H1342 0.930 1_455 S
N1337 Li1320 1.990 . S
N1337 C1336 1.314 . S
N1337 C1339 1.279 . S
C1338 C1339 1.358 . S
C1338 C1340 1.356 . S
C1338 H1392 0.930 . S
C1339 N1337 1.279 . S
C1339 C1338 1.358 . S
C1339 H1343 0.930 . S
C1340 C1338 1.356 . S
C1340 C1341 1.365 . S
C1341 C1336 1.356 . S
C1341 C1340 1.365 . S
C1341 H1393 0.911 1_455 S
H1342 C1336 0.930 1_655 S
H1343 C1339 0.930 . S
C1344 N1345 1.314 . S
C1344 C1346 1.353 . S
C1344 H1350 0.930 . S
N1345 Li1321 1.990 . S
N1345 C1344 1.314 . S
N1345 C1348 1.279 1_455 S
C1346 C1344 1.353 . S
C1346 C1349 1.348 . S
C1346 H1394 0.929 . S
C1347 C1348 1.358 . S
C1347 C1349 1.356 1_655 S
C1347 H1395 0.930 . S
C1348 N1345 1.279 1_655 S
C1348 C1347 1.358 . S
C1348 H1351 0.930 . S
C1349 C1346 1.348 . S
C1349 C1347 1.356 1_455 S
H1350 C1344 0.930 . S
H1351 C1348 0.930 . S
C1352 C1354 1.359 . S
C1352 C1355 1.356 . S
C1352 O1382 1.325 . S
N1353 C1356 1.314 . S
N1353 C1357 1.279 . S
C1354 C1352 1.359 . S
C1354 C1356 1.355 . S
C1354 H1396 0.916 1_455 S
C1355 C1352 1.356 . S
C1355 C1357 1.358 . S
C1355 H1397 0.930 . S
C1356 N1353 1.314 . S
C1356 C1354 1.355 . S
C1356 H1398 0.930 1_455 S
C1357 N1353 1.279 . S
C1357 C1355 1.358 . S
C1357 H1399 0.930 . S
C1358 C1359 1.348 . S
C1358 C1360 1.356 1_455 S
C1358 O1383 1.325 . S
C1359 C1358 1.348 . S
C1359 C1361 1.353 . S
C1359 H1400 0.929 . S
C1360 C1358 1.356 1_655 S
C1360 C1362 1.358 . S
C1360 H1401 0.930 . S
C1361 C1359 1.353 . S
C1361 N1363 1.314 . S
C1361 H1402 0.930 . S
C1362 C1360 1.358 . S
C1362 N1363 1.279 1_655 S
C1362 H1403 0.930 . S
N1363 C1361 1.314 . S
N1363 C1362 1.279 1_455 S
C1364 C1366 1.353 . S
C1364 N1367 1.314 . S
C1364 H1370 0.930 . S
C1365 N1367 1.279 . S
C1365 C1368 1.358 . S
C1365 H1371 0.930 . S
C1366 C1364 1.353 . S
C1366 C1369 1.348 . S
C1366 H1404 0.929 . S
N1367 Li1322 1.990 . S
N1367 C1364 1.314 . S
N1367 C1365 1.279 . S
C1368 C1365 1.358 . S
C1368 C1369 1.356 . S
C1368 H1405 0.930 . S
C1369 C1366 1.348 . S
C1369 C1368 1.356 . S
H1370 C1364 0.930 . S
H1371 C1365 0.930 . S
C1372 N1373 1.314 . S
C1372 C1374 1.353 . S
C1372 H1378 0.930 . S
N1373 Li1323 1.990 . S
N1373 C1372 1.314 . S
N1373 C1376 1.279 . S
C1374 C1372 1.353 . S
C1374 C1377 1.348 . S
C1374 H1406 0.929 . S
C1375 C1376 1.358 . S
C1375 C1377 1.356 . S
C1375 H1407 0.930 . S
C1376 N1373 1.279 . S
C1376 C1375 1.358 . S
C1376 H1379 0.930 . S
C1377 C1374 1.348 . S
C1377 C1375 1.356 . S
H1378 C1372 0.930 . S
H1379 C1376 0.930 . S
O1380 Li1320 1.956 . S
O1380 Li1321 1.970 . S
O1380 Li1322 1.961 . S
O1380 C1324 1.325 . S
O1381 Li1320 1.970 1_655 S
O1381 Li1321 1.956 1_655 S
O1381 Li1323 1.961 . S
O1381 C1330 1.325 . S
O1382 Li1320 1.961 . S
O1382 Li1322 1.956 . S
O1382 Li1323 1.970 1_455 S
O1382 C1352 1.325 . S
O1383 Li1321 1.961 . S
O1383 Li1322 1.970 . S
O1383 Li1323 1.956 1_455 S
O1383 C1358 1.325 . S
H1384 C1326 0.929 . S
H1385 C1327 0.930 . S
H1386 C1328 0.930 . S
H1387 C1329 0.930 . S
H1388 C1331 0.930 . S
H1389 C1333 0.929 . S
H1390 C1334 0.930 . S
H1391 C1335 0.930 . S
H1392 C1338 0.930 . S
H1393 C1341 0.911 1_655 S
H1394 C1346 0.929 . S
H1395 C1347 0.930 . S
H1396 C1354 0.916 1_655 S
H1397 C1355 0.930 . S
H1398 C1356 0.930 1_655 S
H1399 C1357 0.930 . S
H1400 C1359 0.929 . S
H1401 C1360 0.930 . S
H1402 C1361 0.930 . S
H1403 C1362 0.930 . S
H1404 C1366 0.929 . S
H1405 C1368 0.930 . S
H1406 C1374 0.929 . S
H1407 C1375 0.930 . S
H1408 C1426 0.951 . S
H1409 C1428 0.951 . S
H1410 C1430 0.961 . S
H1411 C1431 0.963 . S
H1412 C1433 0.950 . S
H1413 C1436 0.950 . S
H1414 C1437 0.950 . S
H1415 C1439 0.950 . S
H1416 C1440 0.950 1_455 S
H1417 C1441 0.951 1_655 S
H1418 C1443 0.951 1_655 S
H1419 C1445 0.950 . S
H1420 C1446 0.950 . S
H1421 C1448 0.938 1_655 S
H1422 C1451 0.950 . S
H1423 C1452 0.950 . S
H1424 C1454 0.950 . S
H1425 C1455 0.950 . S
C1426 H1408 0.951 . S
C1426 C1427 1.366 . S
C1426 C1428 1.388 . S
C1427 C1426 1.366 . S
C1427 C1431 1.373 1_455 S
C1428 H1409 0.951 . S
C1428 C1426 1.388 . S
C1428 C1429 1.366 . S
C1429 C1428 1.366 . S
C1429 C1430 1.404 1_455 S
C1429 C1432 1.499 . S
C1430 H1410 0.961 . S
C1430 C1429 1.404 1_655 S
C1430 C1431 1.374 . S
C1431 H1411 0.963 . S
C1431 C1427 1.373 1_655 S
C1431 C1430 1.374 . S
C1432 C1429 1.499 . S
C1432 C1433 1.373 . S
C1432 C1434 1.389 . S
C1433 H1412 0.950 . S
C1433 C1432 1.373 . S
C1433 C1449 1.377 . S
C1434 C1432 1.389 . S
C1434 C1435 1.524 1_455 S
C1434 C1448 1.377 . S
C1435 C1434 1.524 1_655 S
C1435 C1436 1.397 . S
C1435 C1440 1.363 . S
C1436 H1413 0.950 . S
C1436 C1435 1.397 . S
C1436 C1437 1.334 . S
C1437 H1414 0.950 . S
C1437 C1436 1.334 . S
C1437 C1438 1.287 . S
C1438 C1437 1.287 . S
C1438 C1439 1.524 . S
C1438 H1457 0.913 . S
C1439 H1415 0.950 . S
C1439 C1438 1.524 . S
C1439 C1440 1.415 . S
C1440 H1416 0.950 1_655 S
C1440 C1435 1.363 . S
C1440 C1439 1.415 . S
C1441 H1417 0.951 1_455 S
C1441 C1442 1.366 . S
C1441 C1443 1.388 . S
C1442 C1441 1.366 . S
C1442 C1446 1.385 . S
C1443 H1418 0.951 1_455 S
C1443 C1441 1.388 . S
C1443 C1444 1.366 . S
C1444 C1443 1.366 . S
C1444 C1445 1.414 . S
C1444 C1447 1.499 . S
C1445 H1419 0.950 . S
C1445 C1444 1.414 . S
C1445 C1446 1.374 . S
C1446 H1420 0.950 . S
C1446 C1442 1.385 . S
C1446 C1445 1.374 . S
C1447 C1444 1.499 . S
C1447 C1448 1.373 . S
C1447 C1449 1.389 . S
C1448 H1421 0.938 1_455 S
C1448 C1434 1.377 . S
C1448 C1447 1.373 . S
C1449 C1433 1.377 . S
C1449 C1447 1.389 . S
C1449 C1450 1.524 . S
C1450 C1449 1.524 . S
C1450 C1451 1.397 . S
C1450 C1455 1.363 . S
C1451 H1422 0.950 . S
C1451 C1450 1.397 . S
C1451 C1452 1.334 . S
C1452 H1423 0.950 . S
C1452 C1451 1.334 . S
C1452 C1453 1.287 . S
C1453 C1452 1.287 . S
C1453 C1454 1.524 . S
C1453 H1456 0.999 . S
C1454 H1424 0.950 . S
C1454 C1453 1.524 . S
C1454 C1455 1.415 . S
C1455 H1425 0.950 . S
C1455 C1450 1.363 . S
C1455 C1454 1.415 . S
H1456 C1453 0.999 . S
H1457 C1438 0.913 . S
H1458 C1476 0.951 . S
H1459 C1478 0.951 . S
H1460 C1480 0.950 . S
H1461 C1481 0.950 . S
H1462 C1483 0.950 . S
H1463 C1486 0.950 . S
H1464 C1487 0.950 . S
H1465 C1489 0.950 . S
H1466 C1490 0.950 1_455 S
H1467 C1491 0.951 . S
H1468 C1493 0.951 . S
H1469 C1495 0.950 . S
H1470 C1496 0.950 . S
H1471 C1498 0.950 . S
H1472 C1501 0.950 . S
H1473 C1502 0.950 . S
H1474 C1504 0.950 . S
H1475 C1505 0.950 . S
C1476 H1458 0.951 . S
C1476 C1477 1.366 . S
C1476 C1478 1.388 . S
C1477 C1476 1.366 . S
C1477 C1481 1.385 . S
C1478 H1459 0.951 . S
C1478 C1476 1.388 . S
C1478 C1479 1.366 . S
C1479 C1478 1.366 . S
C1479 C1480 1.414 . S
C1479 C1482 1.499 . S
C1480 H1460 0.950 . S
C1480 C1479 1.414 . S
C1480 C1481 1.374 . S
C1481 H1461 0.950 . S
C1481 C1477 1.385 . S
C1481 C1480 1.374 . S
C1482 C1479 1.499 . S
C1482 C1483 1.373 . S
C1482 C1484 1.410 . S
C1483 H1462 0.950 . S
C1483 C1482 1.373 . S
C1483 C1499 1.377 1_655 S
C1484 C1482 1.410 . S
C1484 C1485 1.541 . S
C1484 C1498 1.338 1_655 S
C1485 C1484 1.541 . S
C1485 C1486 1.397 . S
C1485 C1490 1.363 . S
C1486 H1463 0.950 . S
C1486 C1485 1.397 . S
C1486 C1487 1.334 . S
C1487 H1464 0.950 . S
C1487 C1486 1.334 . S
C1487 C1488 1.287 . S
C1488 C1487 1.287 . S
C1488 C1489 1.524 . S
C1488 H1507 0.913 . S
C1489 H1465 0.950 . S
C1489 C1488 1.524 . S
C1489 C1490 1.415 . S
C1490 H1466 0.950 1_655 S
C1490 C1485 1.363 . S
C1490 C1489 1.415 . S
C1491 H1467 0.951 . S
C1491 C1492 1.366 . S
C1491 C1493 1.388 . S
C1492 C1491 1.366 . S
C1492 C1496 1.385 . S
C1493 H1468 0.951 . S
C1493 C1491 1.388 . S
C1493 C1494 1.366 . S
C1494 C1493 1.366 . S
C1494 C1495 1.414 . S
C1494 C1497 1.499 . S
C1495 H1469 0.950 . S
C1495 C1494 1.414 . S
C1495 C1496 1.374 . S
C1496 H1470 0.950 . S
C1496 C1492 1.385 . S
C1496 C1495 1.374 . S
C1497 C1494 1.499 . S
C1497 C1498 1.373 . S
C1497 C1499 1.389 . S
C1498 H1471 0.950 . S
C1498 C1484 1.338 1_455 S
C1498 C1497 1.373 . S
C1499 C1483 1.377 1_455 S
C1499 C1497 1.389 . S
C1499 C1500 1.524 . S
C1500 C1499 1.524 . S
C1500 C1501 1.397 . S
C1500 C1505 1.363 . S
C1501 H1472 0.950 . S
C1501 C1500 1.397 . S
C1501 C1502 1.334 . S
C1502 H1473 0.950 . S
C1502 C1501 1.334 . S
C1502 C1503 1.287 . S
C1503 C1502 1.287 . S
C1503 C1504 1.524 . S
C1503 H1506 0.999 . S
C1504 H1474 0.950 . S
C1504 C1503 1.524 . S
C1504 C1505 1.415 . S
C1505 H1475 0.950 . S
C1505 C1500 1.363 . S
C1505 C1504 1.415 . S
H1506 C1503 0.999 . S
H1507 C1488 0.913 . S
H1508 C1526 0.951 . S
H1509 C1528 0.951 . S
H1510 C1530 0.950 . S
H1511 C1531 0.950 . S
H1512 C1533 0.950 . S
H1513 C1536 0.950 . S
H1514 C1537 0.950 . S
H1515 C1539 0.950 . S
H1516 C1540 0.950 . S
H1517 C1541 0.951 . S
H1518 C1543 0.951 . S
H1519 C1545 0.950 . S
H1520 C1546 0.950 . S
H1521 C1548 0.950 . S
H1522 C1551 0.950 . S
H1523 C1552 0.950 . S
H1524 C1554 0.950 . S
H1525 C1555 0.950 . S
C1526 H1508 0.951 . S
C1526 C1527 1.366 . S
C1526 C1528 1.388 . S
C1527 C1526 1.366 . S
C1527 C1531 1.385 . S
C1528 H1509 0.951 . S
C1528 C1526 1.388 . S
C1528 C1529 1.366 . S
C1529 C1528 1.366 . S
C1529 C1530 1.414 . S
C1529 C1532 1.499 . S
C1530 H1510 0.950 . S
C1530 C1529 1.414 . S
C1530 C1531 1.374 . S
C1531 H1511 0.950 . S
C1531 C1527 1.385 . S
C1531 C1530 1.374 . S
C1532 C1529 1.499 . S
C1532 C1533 1.373 . S
C1532 C1534 1.389 . S
C1533 H1512 0.950 . S
C1533 C1532 1.373 . S
C1533 C1549 1.377 . S
C1534 C1532 1.389 . S
C1534 C1535 1.524 . S
C1534 C1548 1.377 . S
C1535 C1534 1.524 . S
C1535 C1536 1.397 . S
C1535 C1540 1.363 . S
C1536 H1513 0.950 . S
C1536 C1535 1.397 . S
C1536 C1537 1.334 . S
C1537 H1514 0.950 . S
C1537 C1536 1.334 . S
C1537 C1538 1.287 . S
C1538 C1537 1.287 . S
C1538 C1539 1.524 . S
C1538 H1557 0.913 . S
C1539 H1515 0.950 . S
C1539 C1538 1.524 . S
C1539 C1540 1.415 . S
C1540 H1516 0.950 . S
C1540 C1535 1.363 . S
C1540 C1539 1.415 . S
C1541 H1517 0.951 . S
C1541 C1542 1.366 . S
C1541 C1543 1.388 . S
C1542 C1541 1.366 . S
C1542 C1546 1.385 . S
C1543 H1518 0.951 . S
C1543 C1541 1.388 . S
C1543 C1544 1.366 . S
C1544 C1543 1.366 . S
C1544 C1545 1.414 . S
C1544 C1547 1.499 . S
C1545 H1519 0.950 . S
C1545 C1544 1.414 . S
C1545 C1546 1.374 . S
C1546 H1520 0.950 . S
C1546 C1542 1.385 . S
C1546 C1545 1.374 . S
C1547 C1544 1.499 . S
C1547 C1548 1.373 . S
C1547 C1549 1.389 . S
C1548 H1521 0.950 . S
C1548 C1534 1.377 . S
C1548 C1547 1.373 . S
C1549 C1533 1.377 . S
C1549 C1547 1.389 . S
C1549 C1550 1.524 . S
C1550 C1549 1.524 . S
C1550 C1551 1.397 . S
C1550 C1555 1.363 . S
C1551 H1522 0.950 . S
C1551 C1550 1.397 . S
C1551 C1552 1.334 . S
C1552 H1523 0.950 . S
C1552 C1551 1.334 . S
C1552 C1553 1.287 . S
C1553 C1552 1.287 . S
C1553 C1554 1.524 . S
C1553 H1556 0.999 . S
C1554 H1524 0.950 . S
C1554 C1553 1.524 . S
C1554 C1555 1.415 . S
C1555 H1525 0.950 . S
C1555 C1550 1.363 . S
C1555 C1554 1.415 . S
H1556 C1553 0.999 . S
H1557 C1538 0.913 . S
H1558 C1576 0.951 . S
H1559 C1578 0.951 . S
H1560 C1580 0.950 . S
H1561 C1581 0.950 . S
H1562 C1583 0.950 . S
H1563 C1586 0.950 . S
H1564 C1587 0.950 . S
H1565 C1589 0.950 . S
H1566 C1590 0.950 . S
H1567 C1591 0.951 . S
H1568 C1593 0.951 . S
H1569 C1595 0.950 . S
H1570 C1596 0.950 . S
H1571 C1598 0.950 . S
H1572 C1601 0.950 . S
H1573 C1602 0.950 . S
H1574 C1604 0.950 . S
H1575 C1605 0.950 . S
C1576 H1558 0.951 . S
C1576 C1577 1.366 . S
C1576 C1578 1.388 . S
C1577 C1576 1.366 . S
C1577 C1581 1.385 . S
C1578 H1559 0.951 . S
C1578 C1576 1.388 . S
C1578 C1579 1.366 . S
C1579 C1578 1.366 . S
C1579 C1580 1.414 . S
C1579 C1582 1.499 . S
C1580 H1560 0.950 . S
C1580 C1579 1.414 . S
C1580 C1581 1.374 . S
C1581 H1561 0.950 . S
C1581 C1577 1.385 . S
C1581 C1580 1.374 . S
C1582 C1579 1.499 . S
C1582 C1583 1.373 . S
C1582 C1584 1.389 . S
C1583 H1562 0.950 . S
C1583 C1582 1.373 . S
C1583 C1599 1.377 . S
C1584 C1582 1.389 . S
C1584 C1585 1.524 . S
C1584 C1598 1.377 . S
C1585 C1584 1.524 . S
C1585 C1586 1.397 . S
C1585 C1590 1.363 . S
C1586 H1563 0.950 . S
C1586 C1585 1.397 . S
C1586 C1587 1.334 . S
C1587 H1564 0.950 . S
C1587 C1586 1.334 . S
C1587 C1588 1.287 . S
C1588 C1587 1.287 . S
C1588 C1589 1.524 . S
C1588 H1607 0.913 . S
C1589 H1565 0.950 . S
C1589 C1588 1.524 . S
C1589 C1590 1.415 . S
C1590 H1566 0.950 . S
C1590 C1585 1.363 . S
C1590 C1589 1.415 . S
C1591 H1567 0.951 . S
C1591 C1592 1.366 . S
C1591 C1593 1.388 . S
C1592 C1591 1.366 . S
C1592 C1596 1.385 . S
C1593 H1568 0.951 . S
C1593 C1591 1.388 . S
C1593 C1594 1.366 . S
C1594 C1593 1.366 . S
C1594 C1595 1.414 . S
C1594 C1597 1.499 . S
C1595 H1569 0.950 . S
C1595 C1594 1.414 . S
C1595 C1596 1.374 . S
C1596 H1570 0.950 . S
C1596 C1592 1.385 . S
C1596 C1595 1.374 . S
C1597 C1594 1.499 . S
C1597 C1598 1.373 . S
C1597 C1599 1.389 . S
C1598 H1571 0.950 . S
C1598 C1584 1.377 . S
C1598 C1597 1.373 . S
C1599 C1583 1.377 . S
C1599 C1597 1.389 . S
C1599 C1600 1.524 . S
C1600 C1599 1.524 . S
C1600 C1601 1.397 . S
C1600 C1605 1.363 . S
C1601 H1572 0.950 . S
C1601 C1600 1.397 . S
C1601 C1602 1.334 . S
C1602 H1573 0.950 . S
C1602 C1601 1.334 . S
C1602 C1603 1.287 . S
C1603 C1602 1.287 . S
C1603 C1604 1.524 . S
C1603 H1606 0.999 . S
C1604 H1574 0.950 . S
C1604 C1603 1.524 . S
C1604 C1605 1.415 . S
C1605 H1575 0.950 . S
C1605 C1600 1.363 . S
C1605 C1604 1.415 . S
H1606 C1603 0.999 . S
H1607 C1588 0.913 . S
H1608 C1626 0.951 . S
H1609 C1628 0.951 . S
H1610 C1630 0.950 . S
H1611 C1631 0.950 . S
H1612 C1633 0.950 . S
H1613 C1636 0.950 . S
H1614 C1637 0.950 . S
H1615 C1639 0.950 . S
H1616 C1640 0.950 . S
H1617 C1641 0.951 . S
H1618 C1643 0.951 . S
H1619 C1645 0.950 . S
H1620 C1646 0.950 . S
H1621 C1648 0.950 . S
H1622 C1651 0.950 . S
H1623 C1652 0.950 . S
H1624 C1654 0.950 . S
H1625 C1655 0.950 . S
C1626 H1608 0.951 . S
C1626 C1627 1.366 . S
C1626 C1628 1.388 . S
C1627 C1626 1.366 . S
C1627 C1631 1.385 . S
C1628 H1609 0.951 . S
C1628 C1626 1.388 . S
C1628 C1629 1.366 . S
C1629 C1628 1.366 . S
C1629 C1630 1.414 . S
C1629 C1632 1.499 . S
C1630 H1610 0.950 . S
C1630 C1629 1.414 . S
C1630 C1631 1.374 . S
C1631 H1611 0.950 . S
C1631 C1627 1.385 . S
C1631 C1630 1.374 . S
C1632 C1629 1.499 . S
C1632 C1633 1.373 1_455 S
C1632 C1634 1.389 . S
C1633 H1612 0.950 . S
C1633 C1632 1.373 1_655 S
C1633 C1649 1.377 . S
C1634 C1632 1.389 . S
C1634 C1635 1.524 . S
C1634 C1648 1.377 . S
C1635 C1634 1.524 . S
C1635 C1636 1.397 . S
C1635 C1640 1.363 . S
C1636 H1613 0.950 . S
C1636 C1635 1.397 . S
C1636 C1637 1.334 . S
C1637 H1614 0.950 . S
C1637 C1636 1.334 . S
C1637 C1638 1.287 . S
C1638 C1637 1.287 . S
C1638 C1639 1.524 . S
C1638 H1657 0.913 . S
C1639 H1615 0.950 . S
C1639 C1638 1.524 . S
C1639 C1640 1.415 . S
C1640 H1616 0.950 . S
C1640 C1635 1.363 . S
C1640 C1639 1.415 . S
C1641 H1617 0.951 . S
C1641 C1642 1.366 . S
C1641 C1643 1.388 . S
C1642 C1641 1.366 . S
C1642 C1646 1.385 . S
C1643 H1618 0.951 . S
C1643 C1641 1.388 . S
C1643 C1644 1.366 . S
C1644 C1643 1.366 . S
C1644 C1645 1.414 . S
C1644 C1647 1.499 . S
C1645 H1619 0.950 . S
C1645 C1644 1.414 . S
C1645 C1646 1.374 . S
C1646 H1620 0.950 . S
C1646 C1642 1.385 . S
C1646 C1645 1.374 . S
C1647 C1644 1.499 . S
C1647 C1648 1.373 . S
C1647 C1649 1.389 1_455 S
C1648 H1621 0.950 . S
C1648 C1634 1.377 . S
C1648 C1647 1.373 . S
C1649 C1633 1.377 . S
C1649 C1647 1.389 1_655 S
C1649 C1650 1.524 . S
C1650 C1649 1.524 . S
C1650 C1651 1.397 . S
C1650 C1655 1.363 . S
C1651 H1622 0.950 . S
C1651 C1650 1.397 . S
C1651 C1652 1.334 . S
C1652 H1623 0.950 . S
C1652 C1651 1.334 . S
C1652 C1653 1.287 . S
C1653 C1652 1.287 . S
C1653 C1654 1.524 . S
C1653 H1656 0.999 . S
C1654 H1624 0.950 . S
C1654 C1653 1.524 . S
C1654 C1655 1.415 . S
C1655 H1625 0.950 . S
C1655 C1650 1.363 . S
C1655 C1654 1.415 . S
H1656 C1653 0.999 . S
H1657 C1638 0.913 . S
H1658 C1676 0.951 . S
H1659 C1678 0.951 . S
H1660 C1680 0.950 . S
H1661 C1681 0.950 . S
H1662 C1683 0.950 . S
H1663 C1686 0.950 . S
H1664 C1687 0.950 . S
H1665 C1689 0.950 . S
H1666 C1690 0.950 . S
H1667 C1691 0.951 . S
H1668 C1693 0.951 . S
H1669 C1695 0.950 . S
H1670 C1696 0.950 . S
H1671 C1698 0.950 . S
H1672 C1701 0.950 . S
H1673 C1702 0.950 . S
H1674 C1704 0.950 . S
H1675 C1705 0.950 . S
C1676 H1658 0.951 . S
C1676 C1677 1.366 . S
C1676 C1678 1.388 . S
C1677 C1676 1.366 . S
C1677 C1681 1.385 . S
C1678 H1659 0.951 . S
C1678 C1676 1.388 . S
C1678 C1679 1.366 . S
C1679 C1678 1.366 . S
C1679 C1680 1.414 . S
C1679 C1682 1.499 . S
C1680 H1660 0.950 . S
C1680 C1679 1.414 . S
C1680 C1681 1.374 . S
C1681 H1661 0.950 . S
C1681 C1677 1.385 . S
C1681 C1680 1.374 . S
C1682 C1679 1.499 . S
C1682 C1683 1.373 . S
C1682 C1684 1.389 . S
C1683 H1662 0.950 . S
C1683 C1682 1.373 . S
C1683 C1699 1.377 . S
C1684 C1682 1.389 . S
C1684 C1685 1.524 . S
C1684 C1698 1.377 . S
C1685 C1684 1.524 . S
C1685 C1686 1.397 . S
C1685 C1690 1.363 . S
C1686 H1663 0.950 . S
C1686 C1685 1.397 . S
C1686 C1687 1.334 . S
C1687 H1664 0.950 . S
C1687 C1686 1.334 . S
C1687 C1688 1.287 . S
C1688 C1687 1.287 . S
C1688 C1689 1.524 . S
C1688 H1707 0.913 . S
C1689 H1665 0.950 . S
C1689 C1688 1.524 . S
C1689 C1690 1.415 . S
C1690 H1666 0.950 . S
C1690 C1685 1.363 . S
C1690 C1689 1.415 . S
C1691 H1667 0.951 . S
C1691 C1692 1.366 . S
C1691 C1693 1.388 . S
C1692 C1691 1.366 . S
C1692 C1696 1.385 . S
C1693 H1668 0.951 . S
C1693 C1691 1.388 . S
C1693 C1694 1.366 . S
C1694 C1693 1.366 . S
C1694 C1695 1.414 . S
C1694 C1697 1.499 . S
C1695 H1669 0.950 . S
C1695 C1694 1.414 . S
C1695 C1696 1.374 . S
C1696 H1670 0.950 . S
C1696 C1692 1.385 . S
C1696 C1695 1.374 . S
C1697 C1694 1.499 . S
C1697 C1698 1.373 . S
C1697 C1699 1.389 . S
C1698 H1671 0.950 . S
C1698 C1684 1.377 . S
C1698 C1697 1.373 . S
C1699 C1683 1.377 . S
C1699 C1697 1.389 . S
C1699 C1700 1.524 . S
C1700 C1699 1.524 . S
C1700 C1701 1.397 . S
C1700 C1705 1.363 . S
C1701 H1672 0.950 . S
C1701 C1700 1.397 . S
C1701 C1702 1.334 . S
C1702 H1673 0.950 . S
C1702 C1701 1.334 . S
C1702 C1703 1.287 . S
C1703 C1702 1.287 . S
C1703 C1704 1.524 . S
C1703 H1706 0.999 . S
C1704 H1674 0.950 . S
C1704 C1703 1.524 . S
C1704 C1705 1.415 . S
C1705 H1675 0.950 . S
C1705 C1700 1.363 . S
C1705 C1704 1.415 . S
H1706 C1703 0.999 . S
H1707 C1688 0.913 . S
H1708 C1726 0.951 . S
H1709 C1728 0.951 . S
H1710 C1730 0.950 . S
H1711 C1731 0.950 . S
H1712 C1733 0.950 . S
H1713 C1736 0.950 . S
H1714 C1737 0.950 . S
H1715 C1739 0.950 . S
H1716 C1740 0.950 . S
H1717 C1741 0.951 . S
H1718 C1743 0.951 . S
H1719 C1745 0.950 . S
H1720 C1746 0.950 . S
H1721 C1748 0.950 . S
H1722 C1751 0.950 . S
H1723 C1752 0.950 . S
H1724 C1754 0.950 . S
H1725 C1755 0.950 . S
C1726 H1708 0.951 . S
C1726 C1727 1.366 . S
C1726 C1728 1.388 . S
C1727 C1726 1.366 . S
C1727 C1731 1.385 . S
C1728 H1709 0.951 . S
C1728 C1726 1.388 . S
C1728 C1729 1.366 . S
C1729 C1728 1.366 . S
C1729 C1730 1.414 . S
C1729 C1732 1.499 . S
C1730 H1710 0.950 . S
C1730 C1729 1.414 . S
C1730 C1731 1.374 . S
C1731 H1711 0.950 . S
C1731 C1727 1.385 . S
C1731 C1730 1.374 . S
C1732 C1729 1.499 . S
C1732 C1733 1.373 . S
C1732 C1734 1.389 . S
C1733 H1712 0.950 . S
C1733 C1732 1.373 . S
C1733 C1749 1.377 . S
C1734 C1732 1.389 . S
C1734 C1735 1.524 . S
C1734 C1748 1.377 . S
C1735 C1734 1.524 . S
C1735 C1736 1.397 . S
C1735 C1740 1.363 . S
C1736 H1713 0.950 . S
C1736 C1735 1.397 . S
C1736 C1737 1.334 . S
C1737 H1714 0.950 . S
C1737 C1736 1.334 . S
C1737 C1738 1.287 . S
C1738 C1737 1.287 . S
C1738 C1739 1.524 . S
C1738 H1757 0.913 . S
C1739 H1715 0.950 . S
C1739 C1738 1.524 . S
C1739 C1740 1.415 . S
C1740 H1716 0.950 . S
C1740 C1735 1.363 . S
C1740 C1739 1.415 . S
C1741 H1717 0.951 . S
C1741 C1742 1.366 . S
C1741 C1743 1.388 . S
C1742 C1741 1.366 . S
C1742 C1746 1.385 . S
C1743 H1718 0.951 . S
C1743 C1741 1.388 . S
C1743 C1744 1.366 . S
C1744 C1743 1.366 . S
C1744 C1745 1.414 . S
C1744 C1747 1.499 . S
C1745 H1719 0.950 . S
C1745 C1744 1.414 . S
C1745 C1746 1.374 . S
C1746 H1720 0.950 . S
C1746 C1742 1.385 . S
C1746 C1745 1.374 . S
C1747 C1744 1.499 . S
C1747 C1748 1.373 . S
C1747 C1749 1.389 . S
C1748 H1721 0.950 . S
C1748 C1734 1.377 . S
C1748 C1747 1.373 . S
C1749 C1733 1.377 . S
C1749 C1747 1.389 . S
C1749 C1750 1.524 . S
C1750 C1749 1.524 . S
C1750 C1751 1.397 . S
C1750 C1755 1.363 . S
C1751 H1722 0.950 . S
C1751 C1750 1.397 . S
C1751 C1752 1.334 . S
C1752 H1723 0.950 . S
C1752 C1751 1.334 . S
C1752 C1753 1.287 . S
C1753 C1752 1.287 . S
C1753 C1754 1.524 . S
C1753 H1756 0.999 . S
C1754 H1724 0.950 . S
C1754 C1753 1.524 . S
C1754 C1755 1.415 . S
C1755 H1725 0.950 . S
C1755 C1750 1.363 . S
C1755 C1754 1.415 . S
H1756 C1753 0.999 . S
H1757 C1738 0.913 . S
H1758 C1776 0.951 . S
H1759 C1778 0.951 . S
H1760 C1780 0.950 . S
H1761 C1781 0.950 . S
H1762 C1783 0.950 . S
H1763 C1786 0.950 . S
H1764 C1787 0.950 . S
H1765 C1789 0.950 . S
H1766 C1790 0.950 . S
H1767 C1791 0.951 . S
H1768 C1793 0.951 . S
H1769 C1795 0.950 . S
H1770 C1796 0.950 . S
H1771 C1798 0.950 . S
H1772 C1801 0.950 . S
H1773 C1802 0.950 . S
H1774 C1804 0.950 . S
H1775 C1805 0.950 1_455 S
C1776 H1758 0.951 . S
C1776 C1777 1.366 . S
C1776 C1778 1.388 . S
C1777 C1776 1.366 . S
C1777 C1781 1.385 . S
C1778 H1759 0.951 . S
C1778 C1776 1.388 . S
C1778 C1779 1.366 . S
C1779 C1778 1.366 . S
C1779 C1780 1.414 . S
C1779 C1782 1.499 . S
C1780 H1760 0.950 . S
C1780 C1779 1.414 . S
C1780 C1781 1.374 . S
C1781 H1761 0.950 . S
C1781 C1777 1.385 . S
C1781 C1780 1.374 . S
C1782 C1779 1.499 . S
C1782 C1783 1.373 . S
C1782 C1784 1.389 . S
C1783 H1762 0.950 . S
C1783 C1782 1.373 . S
C1783 C1799 1.358 1_455 S
C1784 C1782 1.389 . S
C1784 C1785 1.524 . S
C1784 C1798 1.377 1_455 S
C1785 C1784 1.524 . S
C1785 C1786 1.397 . S
C1785 C1790 1.363 . S
C1786 H1763 0.950 . S
C1786 C1785 1.397 . S
C1786 C1787 1.334 . S
C1787 H1764 0.950 . S
C1787 C1786 1.334 . S
C1787 C1788 1.287 . S
C1788 C1787 1.287 . S
C1788 C1789 1.524 . S
C1788 H1807 0.913 . S
C1789 H1765 0.950 . S
C1789 C1788 1.524 . S
C1789 C1790 1.415 . S
C1790 H1766 0.950 . S
C1790 C1785 1.363 . S
C1790 C1789 1.415 . S
C1791 H1767 0.951 . S
C1791 C1792 1.366 . S
C1791 C1793 1.388 . S
C1792 C1791 1.366 . S
C1792 C1796 1.385 . S
C1793 H1768 0.951 . S
C1793 C1791 1.388 . S
C1793 C1794 1.366 . S
C1794 C1793 1.366 . S
C1794 C1795 1.414 . S
C1794 C1797 1.499 . S
C1795 H1769 0.950 . S
C1795 C1794 1.414 . S
C1795 C1796 1.374 . S
C1796 H1770 0.950 . S
C1796 C1792 1.385 . S
C1796 C1795 1.374 . S
C1797 C1794 1.499 . S
C1797 C1798 1.373 . S
C1797 C1799 1.400 . S
C1798 H1771 0.950 . S
C1798 C1784 1.377 1_655 S
C1798 C1797 1.373 . S
C1799 C1783 1.358 1_655 S
C1799 C1797 1.400 . S
C1799 C1800 1.532 . S
C1800 C1799 1.532 . S
C1800 C1801 1.397 . S
C1800 C1805 1.363 . S
C1801 H1772 0.950 . S
C1801 C1800 1.397 . S
C1801 C1802 1.334 . S
C1802 H1773 0.950 . S
C1802 C1801 1.334 . S
C1802 C1803 1.287 . S
C1803 C1802 1.287 . S
C1803 C1804 1.524 . S
C1803 H1806 0.999 . S
C1804 H1774 0.950 . S
C1804 C1803 1.524 . S
C1804 C1805 1.415 . S
C1805 H1775 0.950 1_655 S
C1805 C1800 1.363 . S
C1805 C1804 1.415 . S
H1806 C1803 0.999 . S
H1807 C1788 0.913 . S
H1808 C1826 0.951 . S
H1809 C1828 0.951 . S
H1810 C1830 0.950 1_655 S
H1811 C1831 0.943 1_655 S
H1812 C1833 0.950 . S
H1813 C1836 0.950 . S
H1814 C1837 0.950 . S
H1815 C1839 0.950 . S
H1816 C1840 0.950 . S
H1817 C1841 0.951 1_655 S
H1818 C1843 0.951 1_655 S
H1819 C1845 0.950 . S
H1820 C1846 0.950 . S
H1821 C1848 0.950 . S
H1822 C1851 0.950 . S
H1823 C1852 0.950 . S
H1824 C1854 0.950 . S
H1825 C1855 0.950 . S
C1826 H1808 0.951 . S
C1826 C1827 1.366 . S
C1826 C1828 1.388 . S
C1827 C1826 1.366 . S
C1827 C1831 1.392 1_565 S
C1828 H1809 0.951 . S
C1828 C1826 1.388 . S
C1828 C1829 1.366 . S
C1829 C1828 1.366 . S
C1829 C1830 1.415 1_565 S
C1829 C1832 1.499 . S
C1830 H1810 0.950 1_455 S
C1830 C1829 1.415 1_545 S
C1830 C1831 1.374 . S
C1831 H1811 0.943 1_455 S
C1831 C1827 1.392 1_545 S
C1831 C1830 1.374 . S
C1832 C1829 1.499 . S
C1832 C1833 1.373 1_565 S
C1832 C1834 1.389 1_455 S
C1833 H1812 0.950 . S
C1833 C1832 1.373 1_545 S
C1833 C1849 1.377 . S
C1834 C1832 1.389 1_655 S
C1834 C1835 1.524 . S
C1834 C1848 1.377 . S
C1835 C1834 1.524 . S
C1835 C1836 1.397 . S
C1835 C1840 1.363 . S
C1836 H1813 0.950 . S
C1836 C1835 1.397 . S
C1836 C1837 1.334 . S
C1837 H1814 0.950 . S
C1837 C1836 1.334 . S
C1837 C1838 1.287 . S
C1838 C1837 1.287 . S
C1838 C1839 1.524 . S
C1838 H1857 0.913 . S
C1839 H1815 0.950 . S
C1839 C1838 1.524 . S
C1839 C1840 1.415 . S
C1840 H1816 0.950 . S
C1840 C1835 1.363 . S
C1840 C1839 1.415 . S
C1841 H1817 0.951 1_455 S
C1841 C1842 1.366 . S
C1841 C1843 1.388 . S
C1842 C1841 1.366 . S
C1842 C1846 1.385 1_545 S
C1843 H1818 0.951 1_455 S
C1843 C1841 1.388 . S
C1843 C1844 1.366 . S
C1844 C1843 1.366 . S
C1844 C1845 1.414 1_545 S
C1844 C1847 1.499 . S
C1845 H1819 0.950 . S
C1845 C1844 1.414 1_565 S
C1845 C1846 1.374 . S
C1846 H1820 0.950 . S
C1846 C1842 1.385 1_565 S
C1846 C1845 1.374 . S
C1847 C1844 1.499 . S
C1847 C1848 1.373 1_445 S
C1847 C1849 1.389 . S
C1848 H1821 0.950 . S
C1848 C1834 1.377 . S
C1848 C1847 1.373 1_665 S
C1849 C1833 1.377 . S
C1849 C1847 1.389 . S
C1849 C1850 1.524 . S
C1850 C1849 1.524 . S
C1850 C1851 1.397 . S
C1850 C1855 1.363 . S
C1851 H1822 0.950 . S
C1851 C1850 1.397 . S
C1851 C1852 1.334 . S
C1852 H1823 0.950 . S
C1852 C1851 1.334 . S
C1852 C1853 1.287 . S
C1853 C1852 1.287 . S
C1853 C1854 1.524 . S
C1853 H1856 0.999 . S
C1854 H1824 0.950 . S
C1854 C1853 1.524 . S
C1854 C1855 1.415 . S
C1855 H1825 0.950 . S
C1855 C1850 1.363 . S
C1855 C1854 1.415 . S
H1856 C1853 0.999 . S
H1857 C1838 0.913 . S
H1858 C1876 0.951 . S
H1859 C1878 0.951 . S
H1860 C1880 0.950 . S
H1861 C1881 0.950 . S
H1862 C1883 0.950 . S
H1863 C1886 0.950 . S
H1864 C1887 0.950 . S
H1865 C1889 0.950 . S
H1866 C1890 0.950 . S
H1867 C1891 0.951 . S
H1868 C1893 0.951 . S
H1869 C1895 0.950 . S
H1870 C1896 0.950 . S
H1871 C1898 0.950 . S
H1872 C1901 0.950 . S
H1873 C1902 0.950 . S
H1874 C1904 0.950 . S
H1875 C1905 0.950 . S
C1876 H1858 0.951 . S
C1876 C1877 1.366 . S
C1876 C1878 1.388 . S
C1877 C1876 1.366 . S
C1877 C1881 1.385 . S
C1878 H1859 0.951 . S
C1878 C1876 1.388 . S
C1878 C1879 1.366 . S
C1879 C1878 1.366 . S
C1879 C1880 1.414 . S
C1879 C1882 1.499 . S
C1880 H1860 0.950 . S
C1880 C1879 1.414 . S
C1880 C1881 1.374 . S
C1881 H1861 0.950 . S
C1881 C1877 1.385 . S
C1881 C1880 1.374 . S
C1882 C1879 1.499 . S
C1882 C1883 1.373 . S
C1882 C1884 1.389 . S
C1883 H1862 0.950 . S
C1883 C1882 1.373 . S
C1883 C1899 1.377 . S
C1884 C1882 1.389 . S
C1884 C1885 1.524 . S
C1884 C1898 1.377 . S
C1885 C1884 1.524 . S
C1885 C1886 1.397 . S
C1885 C1890 1.363 . S
C1886 H1863 0.950 . S
C1886 C1885 1.397 . S
C1886 C1887 1.334 . S
C1887 H1864 0.950 . S
C1887 C1886 1.334 . S
C1887 C1888 1.287 . S
C1888 C1887 1.287 . S
C1888 C1889 1.524 . S
C1888 H1907 0.913 . S
C1889 H1865 0.950 . S
C1889 C1888 1.524 . S
C1889 C1890 1.415 . S
C1890 H1866 0.950 . S
C1890 C1885 1.363 . S
C1890 C1889 1.415 . S
C1891 H1867 0.951 . S
C1891 C1892 1.366 . S
C1891 C1893 1.388 . S
C1892 C1891 1.366 . S
C1892 C1896 1.385 . S
C1893 H1868 0.951 . S
C1893 C1891 1.388 . S
C1893 C1894 1.366 . S
C1894 C1893 1.366 . S
C1894 C1895 1.414 . S
C1894 C1897 1.499 . S
C1895 H1869 0.950 . S
C1895 C1894 1.414 . S
C1895 C1896 1.374 . S
C1896 H1870 0.950 . S
C1896 C1892 1.385 . S
C1896 C1895 1.374 . S
C1897 C1894 1.499 . S
C1897 C1898 1.373 . S
C1897 C1899 1.389 . S
C1898 H1871 0.950 . S
C1898 C1884 1.377 . S
C1898 C1897 1.373 . S
C1899 C1883 1.377 . S
C1899 C1897 1.389 . S
C1899 C1900 1.524 . S
C1900 C1899 1.524 . S
C1900 C1901 1.397 . S
C1900 C1905 1.363 . S
C1901 H1872 0.950 . S
C1901 C1900 1.397 . S
C1901 C1902 1.334 . S
C1902 H1873 0.950 . S
C1902 C1901 1.334 . S
C1902 C1903 1.287 . S
C1903 C1902 1.287 . S
C1903 C1904 1.524 . S
C1903 H1906 0.999 . S
C1904 H1874 0.950 . S
C1904 C1903 1.524 . S
C1904 C1905 1.415 . S
C1905 H1875 0.950 . S
C1905 C1900 1.363 . S
C1905 C1904 1.415 . S
H1906 C1903 0.999 . S
H1907 C1888 0.913 . S
H1908 C1926 0.951 . S
H1909 C1928 0.951 . S
H1910 C1930 0.950 . S
H1911 C1931 0.950 . S
H1912 C1933 0.950 . S
H1913 C1936 0.950 . S
H1914 C1937 0.950 . S
H1915 C1939 0.950 . S
H1916 C1940 0.950 . S
H1917 C1941 0.951 . S
H1918 C1943 0.951 . S
H1919 C1945 0.950 . S
H1920 C1946 0.950 . S
H1921 C1948 0.950 . S
H1922 C1951 0.950 . S
H1923 C1952 0.950 . S
H1924 C1954 0.950 . S
H1925 C1955 0.950 . S
C1926 H1908 0.951 . S
C1926 C1927 1.366 . S
C1926 C1928 1.388 . S
C1927 C1926 1.366 . S
C1927 C1931 1.385 . S
C1928 H1909 0.951 . S
C1928 C1926 1.388 . S
C1928 C1929 1.366 . S
C1929 C1928 1.366 . S
C1929 C1930 1.414 . S
C1929 C1932 1.499 . S
C1930 H1910 0.950 . S
C1930 C1929 1.414 . S
C1930 C1931 1.374 . S
C1931 H1911 0.950 . S
C1931 C1927 1.385 . S
C1931 C1930 1.374 . S
C1932 C1929 1.499 . S
C1932 C1933 1.373 . S
C1932 C1934 1.389 1_565 S
C1933 H1912 0.950 . S
C1933 C1932 1.373 . S
C1933 C1949 1.377 1_554 S
C1934 C1932 1.389 1_545 S
C1934 C1935 1.524 . S
C1934 C1948 1.377 1_554 S
C1935 C1934 1.524 . S
C1935 C1936 1.397 . S
C1935 C1940 1.363 . S
C1936 H1913 0.950 . S
C1936 C1935 1.397 . S
C1936 C1937 1.334 . S
C1937 H1914 0.950 . S
C1937 C1936 1.334 . S
C1937 C1938 1.287 . S
C1938 C1937 1.287 . S
C1938 C1939 1.524 . S
C1938 H1957 0.913 . S
C1939 H1915 0.950 . S
C1939 C1938 1.524 . S
C1939 C1940 1.415 . S
C1940 H1916 0.950 . S
C1940 C1935 1.363 . S
C1940 C1939 1.415 . S
C1941 H1917 0.951 . S
C1941 C1942 1.366 . S
C1941 C1943 1.388 . S
C1942 C1941 1.366 . S
C1942 C1946 1.385 . S
C1943 H1918 0.951 . S
C1943 C1941 1.388 . S
C1943 C1944 1.366 . S
C1944 C1943 1.366 . S
C1944 C1945 1.414 . S
C1944 C1947 1.499 . S
C1945 H1919 0.950 . S
C1945 C1944 1.414 . S
C1945 C1946 1.374 . S
C1946 H1920 0.950 . S
C1946 C1942 1.385 . S
C1946 C1945 1.374 . S
C1947 C1944 1.499 . S
C1947 C1948 1.373 . S
C1947 C1949 1.389 1_545 S
C1948 H1921 0.950 . S
C1948 C1934 1.377 1_556 S
C1948 C1947 1.373 . S
C1949 C1933 1.377 1_556 S
C1949 C1947 1.389 1_565 S
C1949 C1950 1.524 . S
C1950 C1949 1.524 . S
C1950 C1951 1.397 . S
C1950 C1955 1.363 . S
C1951 H1922 0.950 . S
C1951 C1950 1.397 . S
C1951 C1952 1.334 . S
C1952 H1923 0.950 . S
C1952 C1951 1.334 . S
C1952 C1953 1.287 . S
C1953 C1952 1.287 . S
C1953 C1954 1.524 . S
C1953 H1956 0.999 . S
C1954 H1924 0.950 . S
C1954 C1953 1.524 . S
C1954 C1955 1.415 . S
C1955 H1925 0.950 . S
C1955 C1950 1.363 . S
C1955 C1954 1.415 . S
H1956 C1953 0.999 . S
H1957 C1938 0.913 . S
H1958 C1976 0.951 . S
H1959 C1978 0.951 . S
H1960 C1980 0.950 . S
H1961 C1981 0.950 . S
H1962 C1983 0.950 . S
H1963 C1986 0.950 . S
H1964 C1987 0.950 . S
H1965 C1989 0.950 . S
H1966 C1990 0.950 . S
H1967 C1991 0.951 . S
H1968 C1993 0.951 . S
H1969 C1995 0.950 . S
H1970 C1996 0.950 . S
H1971 C1998 0.950 . S
H1972 C2001 0.950 . S
H1973 C2002 0.950 . S
H1974 C2004 0.950 . S
H1975 C2005 0.950 . S
C1976 H1958 0.951 . S
C1976 C1977 1.366 . S
C1976 C1978 1.388 . S
C1977 C1976 1.366 . S
C1977 C1981 1.385 . S
C1978 H1959 0.951 . S
C1978 C1976 1.388 . S
C1978 C1979 1.366 . S
C1979 C1978 1.366 . S
C1979 C1980 1.414 . S
C1979 C1982 1.499 . S
C1980 H1960 0.950 . S
C1980 C1979 1.414 . S
C1980 C1981 1.374 . S
C1981 H1961 0.950 . S
C1981 C1977 1.385 . S
C1981 C1980 1.374 . S
C1982 C1979 1.499 . S
C1982 C1983 1.373 . S
C1982 C1984 1.389 . S
C1983 H1962 0.950 . S
C1983 C1982 1.373 . S
C1983 C1999 1.377 . S
C1984 C1982 1.389 . S
C1984 C1985 1.524 . S
C1984 C1998 1.377 . S
C1985 C1984 1.524 . S
C1985 C1986 1.397 . S
C1985 C1990 1.363 . S
C1986 H1963 0.950 . S
C1986 C1985 1.397 . S
C1986 C1987 1.334 . S
C1987 H1964 0.950 . S
C1987 C1986 1.334 . S
C1987 C1988 1.287 . S
C1988 C1987 1.287 . S
C1988 C1989 1.524 . S
C1988 H2007 0.913 . S
C1989 H1965 0.950 . S
C1989 C1988 1.524 . S
C1989 C1990 1.415 . S
C1990 H1966 0.950 . S
C1990 C1985 1.363 . S
C1990 C1989 1.415 . S
C1991 H1967 0.951 . S
C1991 C1992 1.366 . S
C1991 C1993 1.388 . S
C1992 C1991 1.366 . S
C1992 C1996 1.385 . S
C1993 H1968 0.951 . S
C1993 C1991 1.388 . S
C1993 C1994 1.366 . S
C1994 C1993 1.366 . S
C1994 C1995 1.414 . S
C1994 C1997 1.499 . S
C1995 H1969 0.950 . S
C1995 C1994 1.414 . S
C1995 C1996 1.374 . S
C1996 H1970 0.950 . S
C1996 C1992 1.385 . S
C1996 C1995 1.374 . S
C1997 C1994 1.499 . S
C1997 C1998 1.373 . S
C1997 C1999 1.389 . S
C1998 H1971 0.950 . S
C1998 C1984 1.377 . S
C1998 C1997 1.373 . S
C1999 C1983 1.377 . S
C1999 C1997 1.389 . S
C1999 C2000 1.524 . S
C2000 C1999 1.524 . S
C2000 C2001 1.397 . S
C2000 C2005 1.363 . S
C2001 H1972 0.950 . S
C2001 C2000 1.397 . S
C2001 C2002 1.334 . S
C2002 H1973 0.950 . S
C2002 C2001 1.334 . S
C2002 C2003 1.287 . S
C2003 C2002 1.287 . S
C2003 C2004 1.524 . S
C2003 H2006 0.999 . S
C2004 H1974 0.950 . S
C2004 C2003 1.524 . S
C2004 C2005 1.415 . S
C2005 H1975 0.950 . S
C2005 C2000 1.363 . S
C2005 C2004 1.415 . S
H2006 C2003 0.999 . S
H2007 C1988 0.913 . S
H2008 C2026 0.951 . S
H2009 C2028 0.951 . S
H2010 C2030 0.950 . S
H2011 C2031 0.950 . S
H2012 C2033 0.950 . S
H2013 C2036 0.950 . S
H2014 C2037 0.950 . S
H2015 C2039 0.950 . S
H2016 C2040 0.950 . S
H2017 C2041 0.951 . S
H2018 C2043 0.951 . S
H2019 C2045 0.950 . S
H2020 C2046 0.950 . S
H2021 C2048 0.950 . S
H2022 C2051 0.950 . S
H2023 C2052 0.950 . S
H2024 C2054 0.950 . S
H2025 C2055 0.950 . S
C2026 H2008 0.951 . S
C2026 C2027 1.366 . S
C2026 C2028 1.388 . S
C2027 C2026 1.366 . S
C2027 C2031 1.385 . S
C2028 H2009 0.951 . S
C2028 C2026 1.388 . S
C2028 C2029 1.366 . S
C2029 C2028 1.366 . S
C2029 C2030 1.414 . S
C2029 C2032 1.499 . S
C2030 H2010 0.950 . S
C2030 C2029 1.414 . S
C2030 C2031 1.374 . S
C2031 H2011 0.950 . S
C2031 C2027 1.385 . S
C2031 C2030 1.374 . S
C2032 C2029 1.499 . S
C2032 C2033 1.373 . S
C2032 C2034 1.389 . S
C2033 H2012 0.950 . S
C2033 C2032 1.373 . S
C2033 C2049 1.377 . S
C2034 C2032 1.389 . S
C2034 C2035 1.524 . S
C2034 C2048 1.377 . S
C2035 C2034 1.524 . S
C2035 C2036 1.397 . S
C2035 C2040 1.363 . S
C2036 H2013 0.950 . S
C2036 C2035 1.397 . S
C2036 C2037 1.334 . S
C2037 H2014 0.950 . S
C2037 C2036 1.334 . S
C2037 C2038 1.287 . S
C2038 C2037 1.287 . S
C2038 C2039 1.524 . S
C2038 H2057 0.913 . S
C2039 H2015 0.950 . S
C2039 C2038 1.524 . S
C2039 C2040 1.415 . S
C2040 H2016 0.950 . S
C2040 C2035 1.363 . S
C2040 C2039 1.415 . S
C2041 H2017 0.951 . S
C2041 C2042 1.366 . S
C2041 C2043 1.388 . S
C2042 C2041 1.366 . S
C2042 C2046 1.385 . S
C2043 H2018 0.951 . S
C2043 C2041 1.388 . S
C2043 C2044 1.366 . S
C2044 C2043 1.366 . S
C2044 C2045 1.414 . S
C2044 C2047 1.499 . S
C2045 H2019 0.950 . S
C2045 C2044 1.414 . S
C2045 C2046 1.374 . S
C2046 H2020 0.950 . S
C2046 C2042 1.385 . S
C2046 C2045 1.374 . S
C2047 C2044 1.499 . S
C2047 C2048 1.373 . S
C2047 C2049 1.389 . S
C2048 H2021 0.950 . S
C2048 C2034 1.377 . S
C2048 C2047 1.373 . S
C2049 C2033 1.377 . S
C2049 C2047 1.389 . S
C2049 C2050 1.524 . S
C2050 C2049 1.524 . S
C2050 C2051 1.397 . S
C2050 C2055 1.363 . S
C2051 H2022 0.950 . S
C2051 C2050 1.397 . S
C2051 C2052 1.334 . S
C2052 H2023 0.950 . S
C2052 C2051 1.334 . S
C2052 C2053 1.287 . S
C2053 C2052 1.287 . S
C2053 C2054 1.524 . S
C2053 H2056 0.999 . S
C2054 H2024 0.950 . S
C2054 C2053 1.524 . S
C2054 C2055 1.415 . S
C2055 H2025 0.950 . S
C2055 C2050 1.363 . S
C2055 C2054 1.415 . S
H2056 C2053 0.999 . S
H2057 C2038 0.913 . S
H2058 C2076 0.951 . S
H2059 C2078 0.951 . S
H2060 C2080 0.950 . S
H2061 C2081 0.950 . S
H2062 C2083 0.950 . S
H2063 C2086 0.950 . S
H2064 C2087 0.950 . S
H2065 C2089 0.950 . S
H2066 C2090 0.950 . S
H2067 C2091 0.951 . S
H2068 C2093 0.951 . S
H2069 C2095 0.950 . S
H2070 C2096 0.950 . S
H2071 C2098 0.950 . S
H2072 C2101 0.950 . S
H2073 C2102 0.950 . S
H2074 C2104 0.950 . S
H2075 C2105 0.950 . S
C2076 H2058 0.951 . S
C2076 C2077 1.366 . S
C2076 C2078 1.388 . S
C2077 C2076 1.366 . S
C2077 C2081 1.385 . S
C2078 H2059 0.951 . S
C2078 C2076 1.388 . S
C2078 C2079 1.366 . S
C2079 C2078 1.366 . S
C2079 C2080 1.414 . S
C2079 C2082 1.499 . S
C2080 H2060 0.950 . S
C2080 C2079 1.414 . S
C2080 C2081 1.374 . S
C2081 H2061 0.950 . S
C2081 C2077 1.385 . S
C2081 C2080 1.374 . S
C2082 C2079 1.499 . S
C2082 C2083 1.373 . S
C2082 C2084 1.389 . S
C2083 H2062 0.950 . S
C2083 C2082 1.373 . S
C2083 C2099 1.377 . S
C2084 C2082 1.389 . S
C2084 C2085 1.524 . S
C2084 C2098 1.377 . S
C2085 C2084 1.524 . S
C2085 C2086 1.397 . S
C2085 C2090 1.363 . S
C2086 H2063 0.950 . S
C2086 C2085 1.397 . S
C2086 C2087 1.334 . S
C2087 H2064 0.950 . S
C2087 C2086 1.334 . S
C2087 C2088 1.287 . S
C2088 C2087 1.287 . S
C2088 C2089 1.524 . S
C2088 H2107 0.913 . S
C2089 H2065 0.950 . S
C2089 C2088 1.524 . S
C2089 C2090 1.415 . S
C2090 H2066 0.950 . S
C2090 C2085 1.363 . S
C2090 C2089 1.415 . S
C2091 H2067 0.951 . S
C2091 C2092 1.366 . S
C2091 C2093 1.388 . S
C2092 C2091 1.366 . S
C2092 C2096 1.385 . S
C2093 H2068 0.951 . S
C2093 C2091 1.388 . S
C2093 C2094 1.366 . S
C2094 C2093 1.366 . S
C2094 C2095 1.414 . S
C2094 C2097 1.499 . S
C2095 H2069 0.950 . S
C2095 C2094 1.414 . S
C2095 C2096 1.374 . S
C2096 H2070 0.950 . S
C2096 C2092 1.385 . S
C2096 C2095 1.374 . S
C2097 C2094 1.499 . S
C2097 C2098 1.373 . S
C2097 C2099 1.389 . S
C2098 H2071 0.950 . S
C2098 C2084 1.377 . S
C2098 C2097 1.373 . S
C2099 C2083 1.377 . S
C2099 C2097 1.389 . S
C2099 C2100 1.524 . S
C2100 C2099 1.524 . S
C2100 C2101 1.397 . S
C2100 C2105 1.363 . S
C2101 H2072 0.950 . S
C2101 C2100 1.397 . S
C2101 C2102 1.334 . S
C2102 H2073 0.950 . S
C2102 C2101 1.334 . S
C2102 C2103 1.287 . S
C2103 C2102 1.287 . S
C2103 C2104 1.524 . S
C2103 H2106 0.999 . S
C2104 H2074 0.950 . S
C2104 C2103 1.524 . S
C2104 C2105 1.415 . S
C2105 H2075 0.950 . S
C2105 C2100 1.363 . S
C2105 C2104 1.415 . S
H2106 C2103 0.999 . S
H2107 C2088 0.913 . S
H2108 C2126 0.951 . S
H2109 C2128 0.951 . S
H2110 C2130 0.950 . S
H2111 C2131 0.950 . S
H2112 C2133 0.950 . S
H2113 C2136 0.950 . S
H2114 C2137 0.950 . S
H2115 C2139 0.950 . S
H2116 C2140 0.950 . S
H2117 C2141 0.951 . S
H2118 C2143 0.951 . S
H2119 C2145 0.950 . S
H2120 C2146 0.950 . S
H2121 C2148 0.950 . S
H2122 C2151 0.950 . S
H2123 C2152 0.950 . S
H2124 C2154 0.950 . S
H2125 C2155 0.950 . S
C2126 H2108 0.951 . S
C2126 C2127 1.366 . S
C2126 C2128 1.388 . S
C2127 C2126 1.366 . S
C2127 C2131 1.385 . S
C2128 H2109 0.951 . S
C2128 C2126 1.388 . S
C2128 C2129 1.366 . S
C2129 C2128 1.366 . S
C2129 C2130 1.414 . S
C2129 C2132 1.499 . S
C2130 H2110 0.950 . S
C2130 C2129 1.414 . S
C2130 C2131 1.374 . S
C2131 H2111 0.950 . S
C2131 C2127 1.385 . S
C2131 C2130 1.374 . S
C2132 C2129 1.499 . S
C2132 C2133 1.373 . S
C2132 C2134 1.389 . S
C2133 H2112 0.950 . S
C2133 C2132 1.373 . S
C2133 C2149 1.377 1_556 S
C2134 C2132 1.389 . S
C2134 C2135 1.524 . S
C2134 C2148 1.377 1_556 S
C2135 C2134 1.524 . S
C2135 C2136 1.397 . S
C2135 C2140 1.363 . S
C2136 H2113 0.950 . S
C2136 C2135 1.397 . S
C2136 C2137 1.334 . S
C2137 H2114 0.950 . S
C2137 C2136 1.334 . S
C2137 C2138 1.287 . S
C2138 C2137 1.287 . S
C2138 C2139 1.524 . S
C2138 H2157 0.913 . S
C2139 H2115 0.950 . S
C2139 C2138 1.524 . S
C2139 C2140 1.415 . S
C2140 H2116 0.950 . S
C2140 C2135 1.363 . S
C2140 C2139 1.415 . S
C2141 H2117 0.951 . S
C2141 C2142 1.366 . S
C2141 C2143 1.388 . S
C2142 C2141 1.366 . S
C2142 C2146 1.385 . S
C2143 H2118 0.951 . S
C2143 C2141 1.388 . S
C2143 C2144 1.366 . S
C2144 C2143 1.366 . S
C2144 C2145 1.414 . S
C2144 C2147 1.499 . S
C2145 H2119 0.950 . S
C2145 C2144 1.414 . S
C2145 C2146 1.374 . S
C2146 H2120 0.950 . S
C2146 C2142 1.385 . S
C2146 C2145 1.374 . S
C2147 C2144 1.499 . S
C2147 C2148 1.373 . S
C2147 C2149 1.389 . S
C2148 H2121 0.950 . S
C2148 C2134 1.377 1_554 S
C2148 C2147 1.373 . S
C2149 C2133 1.377 1_554 S
C2149 C2147 1.389 . S
C2149 C2150 1.524 . S
C2150 C2149 1.524 . S
C2150 C2151 1.397 . S
C2150 C2155 1.363 . S
C2151 H2122 0.950 . S
C2151 C2150 1.397 . S
C2151 C2152 1.334 . S
C2152 H2123 0.950 . S
C2152 C2151 1.334 . S
C2152 C2153 1.287 . S
C2153 C2152 1.287 . S
C2153 C2154 1.524 . S
C2153 H2156 0.999 . S
C2154 H2124 0.950 . S
C2154 C2153 1.524 . S
C2154 C2155 1.415 . S
C2155 H2125 0.950 . S
C2155 C2150 1.363 . S
C2155 C2154 1.415 . S
H2156 C2153 0.999 . S
H2157 C2138 0.913 . S
H2158 C2176 0.951 . S
H2159 C2178 0.951 . S
H2160 C2180 0.950 . S
H2161 C2181 0.950 . S
H2162 C2183 0.950 . S
H2163 C2186 0.950 . S
H2164 C2187 0.950 . S
H2165 C2189 0.950 . S
H2166 C2190 0.950 . S
H2167 C2191 0.951 . S
H2168 C2193 0.951 . S
H2169 C2195 0.950 . S
H2170 C2196 0.950 . S
H2171 C2198 0.950 . S
H2172 C2201 0.901 1_455 S
H2173 C2202 0.950 . S
H2174 C2204 0.950 . S
H2175 C2205 0.950 . S
C2176 H2158 0.951 . S
C2176 C2177 1.366 . S
C2176 C2178 1.388 . S
C2177 C2176 1.366 . S
C2177 C2181 1.385 1_455 S
C2178 H2159 0.951 . S
C2178 C2176 1.388 . S
C2178 C2179 1.366 . S
C2179 C2178 1.366 . S
C2179 C2180 1.414 1_455 S
C2179 C2182 1.499 . S
C2180 H2160 0.950 . S
C2180 C2179 1.414 1_655 S
C2180 C2181 1.374 . S
C2181 H2161 0.950 . S
C2181 C2177 1.385 1_655 S
C2181 C2180 1.374 . S
C2182 C2179 1.499 . S
C2182 C2183 1.373 1_455 S
C2182 C2184 1.389 . S
C2183 H2162 0.950 . S
C2183 C2182 1.373 1_655 S
C2183 C2199 1.377 . S
C2184 C2182 1.389 . S
C2184 C2185 1.524 . S
C2184 C2198 1.377 . S
C2185 C2184 1.524 . S
C2185 C2186 1.397 . S
C2185 C2190 1.363 . S
C2186 H2163 0.950 . S
C2186 C2185 1.397 . S
C2186 C2187 1.334 . S
C2187 H2164 0.950 . S
C2187 C2186 1.334 . S
C2187 C2188 1.287 . S
C2188 C2187 1.287 . S
C2188 C2189 1.524 . S
C2188 H2207 0.913 . S
C2189 H2165 0.950 . S
C2189 C2188 1.524 . S
C2189 C2190 1.415 . S
C2190 H2166 0.950 . S
C2190 C2185 1.363 . S
C2190 C2189 1.415 . S
C2191 H2167 0.951 . S
C2191 C2192 1.366 1_655 S
C2191 C2193 1.388 . S
C2192 C2191 1.366 1_455 S
C2192 C2196 1.385 . S
C2193 H2168 0.951 . S
C2193 C2191 1.388 . S
C2193 C2194 1.366 1_655 S
C2194 C2193 1.366 1_455 S
C2194 C2195 1.414 . S
C2194 C2197 1.499 . S
C2195 H2169 0.950 . S
C2195 C2194 1.414 . S
C2195 C2196 1.374 . S
C2196 H2170 0.950 . S
C2196 C2192 1.385 . S
C2196 C2195 1.374 . S
C2197 C2194 1.499 . S
C2197 C2198 1.373 . S
C2197 C2199 1.389 1_455 S
C2198 H2171 0.950 . S
C2198 C2184 1.377 . S
C2198 C2197 1.373 . S
C2199 C2183 1.377 . S
C2199 C2197 1.389 1_655 S
C2199 C2200 1.524 . S
C2200 C2199 1.524 . S
C2200 C2201 1.397 . S
C2200 C2205 1.363 . S
C2201 H2172 0.901 1_655 S
C2201 C2200 1.397 . S
C2201 C2202 1.334 . S
C2202 H2173 0.950 . S
C2202 C2201 1.334 . S
C2202 C2203 1.287 . S
C2203 C2202 1.287 . S
C2203 C2204 1.524 . S
C2203 H2206 0.999 . S
C2204 H2174 0.950 . S
C2204 C2203 1.524 . S
C2204 C2205 1.415 . S
C2205 H2175 0.950 . S
C2205 C2200 1.363 . S
C2205 C2204 1.415 . S
H2206 C2203 0.999 . S
H2207 C2188 0.913 . S
H2208 C2226 0.951 . S
H2209 C2228 0.951 . S
H2210 C2230 0.950 . S
H2211 C2231 0.950 . S
H2212 C2233 0.950 . S
H2213 C2236 0.950 . S
H2214 C2237 0.950 . S
H2215 C2239 0.950 . S
H2216 C2240 0.950 . S
H2217 C2241 0.951 . S
H2218 C2243 0.951 . S
H2219 C2245 0.950 . S
H2220 C2246 0.950 1_545 S
H2221 C2248 0.950 . S
H2222 C2251 0.950 . S
H2223 C2252 0.950 . S
H2224 C2254 0.950 . S
H2225 C2255 0.950 . S
C2226 H2208 0.951 . S
C2226 C2227 1.366 . S
C2226 C2228 1.388 . S
C2227 C2226 1.366 . S
C2227 C2231 1.385 . S
C2228 H2209 0.951 . S
C2228 C2226 1.388 . S
C2228 C2229 1.366 . S
C2229 C2228 1.366 . S
C2229 C2230 1.414 . S
C2229 C2232 1.499 . S
C2230 H2210 0.950 . S
C2230 C2229 1.414 . S
C2230 C2231 1.374 . S
C2231 H2211 0.950 . S
C2231 C2227 1.385 . S
C2231 C2230 1.374 . S
C2232 C2229 1.499 . S
C2232 C2233 1.373 . S
C2232 C2234 1.389 . S
C2233 H2212 0.950 . S
C2233 C2232 1.373 . S
C2233 C2249 1.377 . S
C2234 C2232 1.389 . S
C2234 C2235 1.524 . S
C2234 C2248 1.377 . S
C2235 C2234 1.524 . S
C2235 C2236 1.397 . S
C2235 C2240 1.363 . S
C2236 H2213 0.950 . S
C2236 C2235 1.397 . S
C2236 C2237 1.334 . S
C2237 H2214 0.950 . S
C2237 C2236 1.334 . S
C2237 C2238 1.287 . S
C2238 C2237 1.287 . S
C2238 C2239 1.524 . S
C2238 H2257 0.913 . S
C2239 H2215 0.950 . S
C2239 C2238 1.524 . S
C2239 C2240 1.415 . S
C2240 H2216 0.950 . S
C2240 C2235 1.363 . S
C2240 C2239 1.415 . S
C2241 H2217 0.951 . S
C2241 C2242 1.366 . S
C2241 C2243 1.388 . S
C2242 C2241 1.366 . S
C2242 C2246 1.385 . S
C2243 H2218 0.951 . S
C2243 C2241 1.388 . S
C2243 C2244 1.366 . S
C2244 C2243 1.366 . S
C2244 C2245 1.414 . S
C2244 C2247 1.499 . S
C2245 H2219 0.950 . S
C2245 C2244 1.414 . S
C2245 C2246 1.374 . S
C2246 H2220 0.950 1_565 S
C2246 C2242 1.385 . S
C2246 C2245 1.374 . S
C2247 C2244 1.499 . S
C2247 C2248 1.373 . S
C2247 C2249 1.389 . S
C2248 H2221 0.950 . S
C2248 C2234 1.377 . S
C2248 C2247 1.373 . S
C2249 C2233 1.377 . S
C2249 C2247 1.389 . S
C2249 C2250 1.524 . S
C2250 C2249 1.524 . S
C2250 C2251 1.397 . S
C2250 C2255 1.363 . S
C2251 H2222 0.950 . S
C2251 C2250 1.397 . S
C2251 C2252 1.334 . S
C2252 H2223 0.950 . S
C2252 C2251 1.334 . S
C2252 C2253 1.287 . S
C2253 C2252 1.287 . S
C2253 C2254 1.524 . S
C2253 H2256 0.999 . S
C2254 H2224 0.950 . S
C2254 C2253 1.524 . S
C2254 C2255 1.415 . S
C2255 H2225 0.950 . S
C2255 C2250 1.363 . S
C2255 C2254 1.415 . S
H2256 C2253 0.999 . S
H2257 C2238 0.913 . S
H2258 C2276 0.951 . S
H2259 C2278 0.951 . S
H2260 C2280 0.950 . S
H2261 C2281 0.950 . S
H2262 C2283 0.950 . S
H2263 C2286 0.950 . S
H2264 C2287 0.950 . S
H2265 C2289 0.950 . S
H2266 C2290 0.950 . S
H2267 C2291 0.951 . S
H2268 C2293 0.951 . S
H2269 C2295 0.950 . S
H2270 C2296 0.950 1_545 S
H2271 C2298 0.950 . S
H2272 C2301 0.950 . S
H2273 C2302 0.950 . S
H2274 C2304 0.950 . S
H2275 C2305 0.950 . S
C2276 H2258 0.951 . S
C2276 C2277 1.366 . S
C2276 C2278 1.388 . S
C2277 C2276 1.366 . S
C2277 C2281 1.385 . S
C2278 H2259 0.951 . S
C2278 C2276 1.388 . S
C2278 C2279 1.366 . S
C2279 C2278 1.366 . S
C2279 C2280 1.414 . S
C2279 C2282 1.499 . S
C2280 H2260 0.950 . S
C2280 C2279 1.414 . S
C2280 C2281 1.374 . S
C2281 H2261 0.950 . S
C2281 C2277 1.385 . S
C2281 C2280 1.374 . S
C2282 C2279 1.499 . S
C2282 C2283 1.373 . S
C2282 C2284 1.389 . S
C2283 H2262 0.950 . S
C2283 C2282 1.373 . S
C2283 C2299 1.377 . S
C2284 C2282 1.389 . S
C2284 C2285 1.524 . S
C2284 C2298 1.377 . S
C2285 C2284 1.524 . S
C2285 C2286 1.397 . S
C2285 C2290 1.363 . S
C2286 H2263 0.950 . S
C2286 C2285 1.397 . S
C2286 C2287 1.334 . S
C2287 H2264 0.950 . S
C2287 C2286 1.334 . S
C2287 C2288 1.287 . S
C2288 C2287 1.287 . S
C2288 C2289 1.524 . S
C2288 H2307 0.913 . S
C2289 H2265 0.950 . S
C2289 C2288 1.524 . S
C2289 C2290 1.415 . S
C2290 H2266 0.950 . S
C2290 C2285 1.363 . S
C2290 C2289 1.415 . S
C2291 H2267 0.951 . S
C2291 C2292 1.366 . S
C2291 C2293 1.388 . S
C2292 C2291 1.366 . S
C2292 C2296 1.385 . S
C2293 H2268 0.951 . S
C2293 C2291 1.388 . S
C2293 C2294 1.366 . S
C2294 C2293 1.366 . S
C2294 C2295 1.414 . S
C2294 C2297 1.499 . S
C2295 H2269 0.950 . S
C2295 C2294 1.414 . S
C2295 C2296 1.374 . S
C2296 H2270 0.950 1_565 S
C2296 C2292 1.385 . S
C2296 C2295 1.374 . S
C2297 C2294 1.499 . S
C2297 C2298 1.373 . S
C2297 C2299 1.389 . S
C2298 H2271 0.950 . S
C2298 C2284 1.377 . S
C2298 C2297 1.373 . S
C2299 C2283 1.377 . S
C2299 C2297 1.389 . S
C2299 C2300 1.524 . S
C2300 C2299 1.524 . S
C2300 C2301 1.397 . S
C2300 C2305 1.363 . S
C2301 H2272 0.950 . S
C2301 C2300 1.397 . S
C2301 C2302 1.334 . S
C2302 H2273 0.950 . S
C2302 C2301 1.334 . S
C2302 C2303 1.287 . S
C2303 C2302 1.287 . S
C2303 C2304 1.524 . S
C2303 H2306 0.999 . S
C2304 H2274 0.950 . S
C2304 C2303 1.524 . S
C2304 C2305 1.415 . S
C2305 H2275 0.950 . S
C2305 C2300 1.363 . S
C2305 C2304 1.415 . S
H2306 C2303 0.999 . S
H2307 C2288 0.913 . S
H2308 C2326 0.951 1_565 S
H2309 C2328 0.951 . S
H2310 C2330 0.950 . S
H2311 C2331 0.950 . S
H2312 C2333 0.950 . S
H2313 C2336 0.950 . S
H2314 C2337 0.950 . S
H2315 C2339 0.950 1_565 S
H2316 C2340 0.950 . S
H2317 C2341 0.951 . S
H2318 C2343 0.951 . S
H2319 C2345 0.950 . S
H2320 C2346 0.950 . S
H2321 C2348 0.950 . S
H2322 C2351 0.950 . S
H2323 C2352 0.950 . S
H2324 C2354 0.950 . S
H2325 C2355 0.950 . S
C2326 H2308 0.951 1_545 S
C2326 C2327 1.366 . S
C2326 C2328 1.388 . S
C2327 C2326 1.366 . S
C2327 C2331 1.385 . S
C2328 H2309 0.951 . S
C2328 C2326 1.388 . S
C2328 C2329 1.366 . S
C2329 C2328 1.366 . S
C2329 C2330 1.414 . S
C2329 C2332 1.499 . S
C2330 H2310 0.950 . S
C2330 C2329 1.414 . S
C2330 C2331 1.374 . S
C2331 H2311 0.950 . S
C2331 C2327 1.385 . S
C2331 C2330 1.374 . S
C2332 C2329 1.499 . S
C2332 C2333 1.373 . S
C2332 C2334 1.389 . S
C2333 H2312 0.950 . S
C2333 C2332 1.373 . S
C2333 C2349 1.377 . S
C2334 C2332 1.389 . S
C2334 C2335 1.524 . S
C2334 C2348 1.377 . S
C2335 C2334 1.524 . S
C2335 C2336 1.397 . S
C2335 C2340 1.363 . S
C2336 H2313 0.950 . S
C2336 C2335 1.397 . S
C2336 C2337 1.334 . S
C2337 H2314 0.950 . S
C2337 C2336 1.334 . S
C2337 C2338 1.287 . S
C2338 C2337 1.287 . S
C2338 C2339 1.524 . S
C2338 H2357 0.913 1_545 S
C2339 H2315 0.950 1_545 S
C2339 C2338 1.524 . S
C2339 C2340 1.415 . S
C2340 H2316 0.950 . S
C2340 C2335 1.363 . S
C2340 C2339 1.415 . S
C2341 H2317 0.951 . S
C2341 C2342 1.366 . S
C2341 C2343 1.388 . S
C2342 C2341 1.366 . S
C2342 C2346 1.385 . S
C2343 H2318 0.951 . S
C2343 C2341 1.388 . S
C2343 C2344 1.366 . S
C2344 C2343 1.366 . S
C2344 C2345 1.414 . S
C2344 C2347 1.499 . S
C2345 H2319 0.950 . S
C2345 C2344 1.414 . S
C2345 C2346 1.374 . S
C2346 H2320 0.950 . S
C2346 C2342 1.385 . S
C2346 C2345 1.374 . S
C2347 C2344 1.499 . S
C2347 C2348 1.373 . S
C2347 C2349 1.389 . S
C2348 H2321 0.950 . S
C2348 C2334 1.377 . S
C2348 C2347 1.373 . S
C2349 C2333 1.377 . S
C2349 C2347 1.389 . S
C2349 C2350 1.524 . S
C2350 C2349 1.524 . S
C2350 C2351 1.397 . S
C2350 C2355 1.363 . S
C2351 H2322 0.950 . S
C2351 C2350 1.397 . S
C2351 C2352 1.334 . S
C2352 H2323 0.950 . S
C2352 C2351 1.334 . S
C2352 C2353 1.287 . S
C2353 C2352 1.287 . S
C2353 C2354 1.524 . S
C2353 H2356 0.999 . S
C2354 H2324 0.950 . S
C2354 C2353 1.524 . S
C2354 C2355 1.415 . S
C2355 H2325 0.950 . S
C2355 C2350 1.363 . S
C2355 C2354 1.415 . S
H2356 C2353 0.999 . S
H2357 C2338 0.913 1_565 S
H2358 C2376 0.951 1_565 S
H2359 C2378 0.951 . S
H2360 C2380 0.950 . S
H2361 C2381 0.950 . S
H2362 C2383 0.950 . S
H2363 C2386 0.950 . S
H2364 C2387 0.950 . S
H2365 C2389 0.950 . S
H2366 C2390 0.950 . S
H2367 C2391 0.951 . S
H2368 C2393 0.951 . S
H2369 C2395 0.950 . S
H2370 C2396 0.950 . S
H2371 C2398 0.950 . S
H2372 C2401 0.950 . S
H2373 C2402 0.950 . S
H2374 C2404 0.950 . S
H2375 C2405 0.950 . S
C2376 H2358 0.951 1_545 S
C2376 C2377 1.366 . S
C2376 C2378 1.388 . S
C2377 C2376 1.366 . S
C2377 C2381 1.385 . S
C2378 H2359 0.951 . S
C2378 C2376 1.388 . S
C2378 C2379 1.366 . S
C2379 C2378 1.366 . S
C2379 C2380 1.414 . S
C2379 C2382 1.499 . S
C2380 H2360 0.950 . S
C2380 C2379 1.414 . S
C2380 C2381 1.374 . S
C2381 H2361 0.950 . S
C2381 C2377 1.385 . S
C2381 C2380 1.374 . S
C2382 C2379 1.499 . S
C2382 C2383 1.373 . S
C2382 C2384 1.389 . S
C2383 H2362 0.950 . S
C2383 C2382 1.373 . S
C2383 C2399 1.377 . S
C2384 C2382 1.389 . S
C2384 C2385 1.524 . S
C2384 C2398 1.377 . S
C2385 C2384 1.524 . S
C2385 C2386 1.397 . S
C2385 C2390 1.363 . S
C2386 H2363 0.950 . S
C2386 C2385 1.397 . S
C2386 C2387 1.334 . S
C2387 H2364 0.950 . S
C2387 C2386 1.334 . S
C2387 C2388 1.287 . S
C2388 C2387 1.287 . S
C2388 C2389 1.524 . S
C2388 H2407 0.913 . S
C2389 H2365 0.950 . S
C2389 C2388 1.524 . S
C2389 C2390 1.415 . S
C2390 H2366 0.950 . S
C2390 C2385 1.363 . S
C2390 C2389 1.415 . S
C2391 H2367 0.951 . S
C2391 C2392 1.366 . S
C2391 C2393 1.388 . S
C2392 C2391 1.366 . S
C2392 C2396 1.385 . S
C2393 H2368 0.951 . S
C2393 C2391 1.388 . S
C2393 C2394 1.366 . S
C2394 C2393 1.366 . S
C2394 C2395 1.414 . S
C2394 C2397 1.499 . S
C2395 H2369 0.950 . S
C2395 C2394 1.414 . S
C2395 C2396 1.374 . S
C2396 H2370 0.950 . S
C2396 C2392 1.385 . S
C2396 C2395 1.374 . S
C2397 C2394 1.499 . S
C2397 C2398 1.373 . S
C2397 C2399 1.389 . S
C2398 H2371 0.950 . S
C2398 C2384 1.377 . S
C2398 C2397 1.373 . S
C2399 C2383 1.377 . S
C2399 C2397 1.389 . S
C2399 C2400 1.524 . S
C2400 C2399 1.524 . S
C2400 C2401 1.397 . S
C2400 C2405 1.363 . S
C2401 H2372 0.950 . S
C2401 C2400 1.397 . S
C2401 C2402 1.334 . S
C2402 H2373 0.950 . S
C2402 C2401 1.334 . S
C2402 C2403 1.287 . S
C2403 C2402 1.287 . S
C2403 C2404 1.524 . S
C2403 H2406 0.999 . S
C2404 H2374 0.950 . S
C2404 C2403 1.524 . S
C2404 C2405 1.415 . S
C2405 H2375 0.950 . S
C2405 C2400 1.363 . S
C2405 C2404 1.415 . S
H2406 C2403 0.999 . S
H2407 C2388 0.913 . S
H2408 C2426 0.951 . S
H2409 C2428 0.951 . S
H2410 C2430 0.950 . S
H2411 C2431 0.950 . S
H2412 C2433 0.950 . S
H2413 C2436 0.950 . S
H2414 C2437 0.950 . S
H2415 C2439 0.950 . S
H2416 C2440 0.950 . S
H2417 C2441 0.951 . S
H2418 C2443 0.951 . S
H2419 C2445 0.950 . S
H2420 C2446 0.950 . S
H2421 C2448 0.950 . S
H2422 C2451 0.950 . S
H2423 C2452 0.950 . S
H2424 C2454 0.950 . S
H2425 C2455 0.950 . S
C2426 H2408 0.951 . S
C2426 C2427 1.366 . S
C2426 C2428 1.388 . S
C2427 C2426 1.366 . S
C2427 C2431 1.385 . S
C2428 H2409 0.951 . S
C2428 C2426 1.388 . S
C2428 C2429 1.366 . S
C2429 C2428 1.366 . S
C2429 C2430 1.414 . S
C2429 C2432 1.499 . S
C2430 H2410 0.950 . S
C2430 C2429 1.414 . S
C2430 C2431 1.374 . S
C2431 H2411 0.950 . S
C2431 C2427 1.385 . S
C2431 C2430 1.374 . S
C2432 C2429 1.499 . S
C2432 C2433 1.373 . S
C2432 C2434 1.389 . S
C2433 H2412 0.950 . S
C2433 C2432 1.373 . S
C2433 C2449 1.377 . S
C2434 C2432 1.389 . S
C2434 C2435 1.524 . S
C2434 C2448 1.377 . S
C2435 C2434 1.524 . S
C2435 C2436 1.397 . S
C2435 C2440 1.363 . S
C2436 H2413 0.950 . S
C2436 C2435 1.397 . S
C2436 C2437 1.334 . S
C2437 H2414 0.950 . S
C2437 C2436 1.334 . S
C2437 C2438 1.287 . S
C2438 C2437 1.287 . S
C2438 C2439 1.524 . S
C2438 H2457 0.913 . S
C2439 H2415 0.950 . S
C2439 C2438 1.524 . S
C2439 C2440 1.415 . S
C2440 H2416 0.950 . S
C2440 C2435 1.363 . S
C2440 C2439 1.415 . S
C2441 H2417 0.951 . S
C2441 C2442 1.366 . S
C2441 C2443 1.388 . S
C2442 C2441 1.366 . S
C2442 C2446 1.385 . S
C2443 H2418 0.951 . S
C2443 C2441 1.388 . S
C2443 C2444 1.366 . S
C2444 C2443 1.366 . S
C2444 C2445 1.414 . S
C2444 C2447 1.499 . S
C2445 H2419 0.950 . S
C2445 C2444 1.414 . S
C2445 C2446 1.374 . S
C2446 H2420 0.950 . S
C2446 C2442 1.385 . S
C2446 C2445 1.374 . S
C2447 C2444 1.499 . S
C2447 C2448 1.373 . S
C2447 C2449 1.389 . S
C2448 H2421 0.950 . S
C2448 C2434 1.377 . S
C2448 C2447 1.373 . S
C2449 C2433 1.377 . S
C2449 C2447 1.389 . S
C2449 C2450 1.524 . S
C2450 C2449 1.524 . S
C2450 C2451 1.397 . S
C2450 C2455 1.363 . S
C2451 H2422 0.950 . S
C2451 C2450 1.397 . S
C2451 C2452 1.334 . S
C2452 H2423 0.950 . S
C2452 C2451 1.334 . S
C2452 C2453 1.287 . S
C2453 C2452 1.287 . S
C2453 C2454 1.524 . S
C2453 H2456 0.999 . S
C2454 H2424 0.950 . S
C2454 C2453 1.524 . S
C2454 C2455 1.415 . S
C2455 H2425 0.950 . S
C2455 C2450 1.363 . S
C2455 C2454 1.415 . S
H2456 C2453 0.999 . S
H2457 C2438 0.913 . S
H2458 C2476 0.995 . S
H2459 C2478 0.951 . S
H2460 C2480 0.950 . S
H2461 C2481 0.950 . S
H2462 C2483 0.950 . S
H2463 C2486 0.950 . S
H2464 C2487 0.950 . S
H2465 C2489 0.950 1_565 S
H2466 C2490 0.950 . S
H2467 C2491 0.951 . S
H2468 C2493 0.951 . S
H2469 C2495 0.950 . S
H2470 C2496 0.950 . S
H2471 C2498 0.950 . S
H2472 C2501 0.950 . S
H2473 C2502 0.950 . S
H2474 C2504 0.950 . S
H2475 C2505 0.950 . S
C2476 H2458 0.995 . S
C2476 C2477 1.366 . S
C2476 C2478 1.388 . S
C2477 C2476 1.366 . S
C2477 C2481 1.385 . S
C2478 H2459 0.951 . S
C2478 C2476 1.388 . S
C2478 C2479 1.366 . S
C2479 C2478 1.366 . S
C2479 C2480 1.414 . S
C2479 C2482 1.499 . S
C2480 H2460 0.950 . S
C2480 C2479 1.414 . S
C2480 C2481 1.374 . S
C2481 H2461 0.950 . S
C2481 C2477 1.385 . S
C2481 C2480 1.374 . S
C2482 C2479 1.499 . S
C2482 C2483 1.373 . S
C2482 C2484 1.389 . S
C2483 H2462 0.950 . S
C2483 C2482 1.373 . S
C2483 C2499 1.377 . S
C2484 C2482 1.389 . S
C2484 C2485 1.524 . S
C2484 C2498 1.377 . S
C2485 C2484 1.524 . S
C2485 C2486 1.397 . S
C2485 C2490 1.363 . S
C2486 H2463 0.950 . S
C2486 C2485 1.397 . S
C2486 C2487 1.334 . S
C2487 H2464 0.950 . S
C2487 C2486 1.334 . S
C2487 C2488 1.287 1_545 S
C2488 C2487 1.287 1_565 S
C2488 C2489 1.524 1_565 S
C2488 H2507 0.913 . S
C2489 H2465 0.950 1_545 S
C2489 C2488 1.524 1_545 S
C2489 C2490 1.415 . S
C2490 H2466 0.950 . S
C2490 C2485 1.363 . S
C2490 C2489 1.415 . S
C2491 H2467 0.951 . S
C2491 C2492 1.366 . S
C2491 C2493 1.388 . S
C2492 C2491 1.366 . S
C2492 C2496 1.385 . S
C2493 H2468 0.951 . S
C2493 C2491 1.388 . S
C2493 C2494 1.366 . S
C2494 C2493 1.366 . S
C2494 C2495 1.414 . S
C2494 C2497 1.499 . S
C2495 H2469 0.950 . S
C2495 C2494 1.414 . S
C2495 C2496 1.374 . S
C2496 H2470 0.950 . S
C2496 C2492 1.385 . S
C2496 C2495 1.374 . S
C2497 C2494 1.499 . S
C2497 C2498 1.373 . S
C2497 C2499 1.389 . S
C2498 H2471 0.950 . S
C2498 C2484 1.377 . S
C2498 C2497 1.373 . S
C2499 C2483 1.377 . S
C2499 C2497 1.389 . S
C2499 C2500 1.524 . S
C2500 C2499 1.524 . S
C2500 C2501 1.397 . S
C2500 C2505 1.363 . S
C2501 H2472 0.950 . S
C2501 C2500 1.397 . S
C2501 C2502 1.334 . S
C2502 H2473 0.950 . S
C2502 C2501 1.334 . S
C2502 C2503 1.287 . S
C2503 C2502 1.287 . S
C2503 C2504 1.524 . S
C2503 H2506 0.999 . S
C2504 H2474 0.950 . S
C2504 C2503 1.524 . S
C2504 C2505 1.415 . S
C2505 H2475 0.950 . S
C2505 C2500 1.363 . S
C2505 C2504 1.415 . S
H2506 C2503 0.999 . S
H2507 C2488 0.913 . S
H2508 C2526 0.951 . S
H2509 C2528 0.951 . S
H2510 C2530 0.950 . S
H2511 C2531 0.950 . S
H2512 C2533 0.950 . S
H2513 C2536 0.950 . S
H2514 C2537 0.950 . S
H2515 C2539 0.950 . S
H2516 C2540 0.950 . S
H2517 C2541 0.951 . S
H2518 C2543 0.951 . S
H2519 C2545 0.950 . S
H2520 C2546 0.950 1_545 S
H2521 C2548 0.950 . S
H2522 C2551 0.950 . S
H2523 C2552 0.950 . S
H2524 C2554 0.950 . S
H2525 C2555 0.950 . S
C2526 H2508 0.951 . S
C2526 C2527 1.366 . S
C2526 C2528 1.388 . S
C2527 C2526 1.366 . S
C2527 C2531 1.385 . S
C2528 H2509 0.951 . S
C2528 C2526 1.388 . S
C2528 C2529 1.366 . S
C2529 C2528 1.366 . S
C2529 C2530 1.414 . S
C2529 C2532 1.499 . S
C2530 H2510 0.950 . S
C2530 C2529 1.414 . S
C2530 C2531 1.374 . S
C2531 H2511 0.950 . S
C2531 C2527 1.385 . S
C2531 C2530 1.374 . S
C2532 C2529 1.499 . S
C2532 C2533 1.373 . S
C2532 C2534 1.389 . S
C2533 H2512 0.950 . S
C2533 C2532 1.373 . S
C2533 C2549 1.377 . S
C2534 C2532 1.389 . S
C2534 C2535 1.524 . S
C2534 C2548 1.377 . S
C2535 C2534 1.524 . S
C2535 C2536 1.397 . S
C2535 C2540 1.363 . S
C2536 H2513 0.950 . S
C2536 C2535 1.397 . S
C2536 C2537 1.334 . S
C2537 H2514 0.950 . S
C2537 C2536 1.334 . S
C2537 C2538 1.287 . S
C2538 C2537 1.287 . S
C2538 C2539 1.524 . S
C2538 H2557 0.913 . S
C2539 H2515 0.950 . S
C2539 C2538 1.524 . S
C2539 C2540 1.415 . S
C2540 H2516 0.950 . S
C2540 C2535 1.363 . S
C2540 C2539 1.415 . S
C2541 H2517 0.951 . S
C2541 C2542 1.366 . S
C2541 C2543 1.388 . S
C2542 C2541 1.366 . S
C2542 C2546 1.385 . S
C2543 H2518 0.951 . S
C2543 C2541 1.388 . S
C2543 C2544 1.366 . S
C2544 C2543 1.366 . S
C2544 C2545 1.414 . S
C2544 C2547 1.499 . S
C2545 H2519 0.950 . S
C2545 C2544 1.414 . S
C2545 C2546 1.374 . S
C2546 H2520 0.950 1_565 S
C2546 C2542 1.385 . S
C2546 C2545 1.374 . S
C2547 C2544 1.499 . S
C2547 C2548 1.373 . S
C2547 C2549 1.389 . S
C2548 H2521 0.950 . S
C2548 C2534 1.377 . S
C2548 C2547 1.373 . S
C2549 C2533 1.377 . S
C2549 C2547 1.389 . S
C2549 C2550 1.524 . S
C2550 C2549 1.524 . S
C2550 C2551 1.397 . S
C2550 C2555 1.363 . S
C2551 H2522 0.950 . S
C2551 C2550 1.397 . S
C2551 C2552 1.334 . S
C2552 H2523 0.950 . S
C2552 C2551 1.334 . S
C2552 C2553 1.287 . S
C2553 C2552 1.287 . S
C2553 C2554 1.524 . S
C2553 H2556 0.999 . S
C2554 H2524 0.950 . S
C2554 C2553 1.524 . S
C2554 C2555 1.415 . S
C2555 H2525 0.950 . S
C2555 C2550 1.363 . S
C2555 C2554 1.415 . S
H2556 C2553 0.999 . S
H2557 C2538 0.913 . S
H2558 C2576 0.951 . S
H2559 C2578 0.951 . S
H2560 C2580 0.950 . S
H2561 C2581 0.950 . S
H2562 C2583 0.950 . S
H2563 C2586 0.950 . S
H2564 C2587 0.950 . S
H2565 C2589 0.950 . S
H2566 C2590 0.950 . S
H2567 C2591 0.951 . S
H2568 C2593 0.951 . S
H2569 C2595 0.950 . S
H2570 C2596 0.950 . S
H2571 C2598 0.950 . S
H2572 C2601 0.950 . S
H2573 C2602 0.950 . S
H2574 C2604 0.950 . S
H2575 C2605 0.950 . S
C2576 H2558 0.951 . S
C2576 C2577 1.366 . S
C2576 C2578 1.388 . S
C2577 C2576 1.366 . S
C2577 C2581 1.385 . S
C2578 H2559 0.951 . S
C2578 C2576 1.388 . S
C2578 C2579 1.366 . S
C2579 C2578 1.366 . S
C2579 C2580 1.414 . S
C2579 C2582 1.499 . S
C2580 H2560 0.950 . S
C2580 C2579 1.414 . S
C2580 C2581 1.374 . S
C2581 H2561 0.950 . S
C2581 C2577 1.385 . S
C2581 C2580 1.374 . S
C2582 C2579 1.499 . S
C2582 C2583 1.373 . S
C2582 C2584 1.389 . S
C2583 H2562 0.950 . S
C2583 C2582 1.373 . S
C2583 C2599 1.377 . S
C2584 C2582 1.389 . S
C2584 C2585 1.524 . S
C2584 C2598 1.377 . S
C2585 C2584 1.524 . S
C2585 C2586 1.397 . S
C2585 C2590 1.363 . S
C2586 H2563 0.950 . S
C2586 C2585 1.397 . S
C2586 C2587 1.334 . S
C2587 H2564 0.950 . S
C2587 C2586 1.334 . S
C2587 C2588 1.287 . S
C2588 C2587 1.287 . S
C2588 C2589 1.524 . S
C2588 H2607 0.913 . S
C2589 H2565 0.950 . S
C2589 C2588 1.524 . S
C2589 C2590 1.415 . S
C2590 H2566 0.950 . S
C2590 C2585 1.363 . S
C2590 C2589 1.415 . S
C2591 H2567 0.951 . S
C2591 C2592 1.366 . S
C2591 C2593 1.388 . S
C2592 C2591 1.366 . S
C2592 C2596 1.385 . S
C2593 H2568 0.951 . S
C2593 C2591 1.388 . S
C2593 C2594 1.366 . S
C2594 C2593 1.366 . S
C2594 C2595 1.414 . S
C2594 C2597 1.499 . S
C2595 H2569 0.950 . S
C2595 C2594 1.414 . S
C2595 C2596 1.374 . S
C2596 H2570 0.950 . S
C2596 C2592 1.385 . S
C2596 C2595 1.374 . S
C2597 C2594 1.499 . S
C2597 C2598 1.373 . S
C2597 C2599 1.389 . S
C2598 H2571 0.950 . S
C2598 C2584 1.377 . S
C2598 C2597 1.373 . S
C2599 C2583 1.377 . S
C2599 C2597 1.389 . S
C2599 C2600 1.524 . S
C2600 C2599 1.524 . S
C2600 C2601 1.397 . S
C2600 C2605 1.363 . S
C2601 H2572 0.950 . S
C2601 C2600 1.397 . S
C2601 C2602 1.334 . S
C2602 H2573 0.950 . S
C2602 C2601 1.334 . S
C2602 C2603 1.287 . S
C2603 C2602 1.287 . S
C2603 C2604 1.524 . S
C2603 H2606 0.999 . S
C2604 H2574 0.950 . S
C2604 C2603 1.524 . S
C2604 C2605 1.415 . S
C2605 H2575 0.950 . S
C2605 C2600 1.363 . S
C2605 C2604 1.415 . S
H2606 C2603 0.999 . S
H2607 C2588 0.913 . S
H2608 C2626 0.951 . S
H2609 C2628 0.951 . S
H2610 C2630 0.950 . S
H2611 C2631 0.950 . S
H2612 C2633 0.950 . S
H2613 C2636 0.950 . S
H2614 C2637 0.950 . S
H2615 C2639 0.950 . S
H2616 C2640 0.950 . S
H2617 C2641 0.951 . S
H2618 C2643 0.951 . S
H2619 C2645 0.950 . S
H2620 C2646 0.950 . S
H2621 C2648 0.950 . S
H2622 C2651 0.950 . S
H2623 C2652 0.950 . S
H2624 C2654 0.950 . S
H2625 C2655 0.950 . S
C2626 H2608 0.951 . S
C2626 C2627 1.366 . S
C2626 C2628 1.388 . S
C2627 C2626 1.366 . S
C2627 C2631 1.385 . S
C2628 H2609 0.951 . S
C2628 C2626 1.388 . S
C2628 C2629 1.366 . S
C2629 C2628 1.366 . S
C2629 C2630 1.414 . S
C2629 C2632 1.499 . S
C2630 H2610 0.950 . S
C2630 C2629 1.414 . S
C2630 C2631 1.374 . S
C2631 H2611 0.950 . S
C2631 C2627 1.385 . S
C2631 C2630 1.374 . S
C2632 C2629 1.499 . S
C2632 C2633 1.373 . S
C2632 C2634 1.389 . S
C2633 H2612 0.950 . S
C2633 C2632 1.373 . S
C2633 C2649 1.377 . S
C2634 C2632 1.389 . S
C2634 C2635 1.524 . S
C2634 C2648 1.377 . S
C2635 C2634 1.524 . S
C2635 C2636 1.397 . S
C2635 C2640 1.363 . S
C2636 H2613 0.950 . S
C2636 C2635 1.397 . S
C2636 C2637 1.334 . S
C2637 H2614 0.950 . S
C2637 C2636 1.334 . S
C2637 C2638 1.287 . S
C2638 C2637 1.287 . S
C2638 C2639 1.524 . S
C2638 H2657 0.913 . S
C2639 H2615 0.950 . S
C2639 C2638 1.524 . S
C2639 C2640 1.415 . S
C2640 H2616 0.950 . S
C2640 C2635 1.363 . S
C2640 C2639 1.415 . S
C2641 H2617 0.951 . S
C2641 C2642 1.366 . S
C2641 C2643 1.388 . S
C2642 C2641 1.366 . S
C2642 C2646 1.385 . S
C2643 H2618 0.951 . S
C2643 C2641 1.388 . S
C2643 C2644 1.366 . S
C2644 C2643 1.366 . S
C2644 C2645 1.414 . S
C2644 C2647 1.499 . S
C2645 H2619 0.950 . S
C2645 C2644 1.414 . S
C2645 C2646 1.374 . S
C2646 H2620 0.950 . S
C2646 C2642 1.385 . S
C2646 C2645 1.374 . S
C2647 C2644 1.499 . S
C2647 C2648 1.373 . S
C2647 C2649 1.389 . S
C2648 H2621 0.950 . S
C2648 C2634 1.377 . S
C2648 C2647 1.373 . S
C2649 C2633 1.377 . S
C2649 C2647 1.389 . S
C2649 C2650 1.524 . S
C2650 C2649 1.524 . S
C2650 C2651 1.397 . S
C2650 C2655 1.363 . S
C2651 H2622 0.950 . S
C2651 C2650 1.397 . S
C2651 C2652 1.334 . S
C2652 H2623 0.950 . S
C2652 C2651 1.334 . S
C2652 C2653 1.287 . S
C2653 C2652 1.287 . S
C2653 C2654 1.524 . S
C2653 H2656 0.999 . S
C2654 H2624 0.950 . S
C2654 C2653 1.524 . S
C2654 C2655 1.415 . S
C2655 H2625 0.950 . S
C2655 C2650 1.363 . S
C2655 C2654 1.415 . S
H2656 C2653 0.999 . S
H2657 C2638 0.913 . S
H2658 C2676 0.951 . S
H2659 C2678 0.951 . S
H2660 C2680 0.950 . S
H2661 C2681 0.950 . S
H2662 C2683 0.950 . S
H2663 C2686 0.950 . S
H2664 C2687 0.950 . S
H2665 C2689 0.950 . S
H2666 C2690 0.950 . S
H2667 C2691 0.951 . S
H2668 C2693 0.951 . S
H2669 C2695 0.950 . S
H2670 C2696 0.950 . S
H2671 C2698 0.950 . S
H2672 C2701 0.950 . S
H2673 C2702 0.950 . S
H2674 C2704 0.950 . S
H2675 C2705 0.950 . S
C2676 H2658 0.951 . S
C2676 C2677 1.366 . S
C2676 C2678 1.388 . S
C2677 C2676 1.366 . S
C2677 C2681 1.385 . S
C2678 H2659 0.951 . S
C2678 C2676 1.388 . S
C2678 C2679 1.366 . S
C2679 C2678 1.366 . S
C2679 C2680 1.414 . S
C2679 C2682 1.499 . S
C2680 H2660 0.950 . S
C2680 C2679 1.414 . S
C2680 C2681 1.374 . S
C2681 H2661 0.950 . S
C2681 C2677 1.385 . S
C2681 C2680 1.374 . S
C2682 C2679 1.499 . S
C2682 C2683 1.373 . S
C2682 C2684 1.389 . S
C2683 H2662 0.950 . S
C2683 C2682 1.373 . S
C2683 C2699 1.377 . S
C2684 C2682 1.389 . S
C2684 C2685 1.524 . S
C2684 C2698 1.377 . S
C2685 C2684 1.524 . S
C2685 C2686 1.397 . S
C2685 C2690 1.363 . S
C2686 H2663 0.950 . S
C2686 C2685 1.397 . S
C2686 C2687 1.334 . S
C2687 H2664 0.950 . S
C2687 C2686 1.334 . S
C2687 C2688 1.287 . S
C2688 C2687 1.287 . S
C2688 C2689 1.524 . S
C2688 H2707 0.913 . S
C2689 H2665 0.950 . S
C2689 C2688 1.524 . S
C2689 C2690 1.415 . S
C2690 H2666 0.950 . S
C2690 C2685 1.363 . S
C2690 C2689 1.415 . S
C2691 H2667 0.951 . S
C2691 C2692 1.366 . S
C2691 C2693 1.388 . S
C2692 C2691 1.366 . S
C2692 C2696 1.385 . S
C2693 H2668 0.951 . S
C2693 C2691 1.388 . S
C2693 C2694 1.366 . S
C2694 C2693 1.366 . S
C2694 C2695 1.414 . S
C2694 C2697 1.499 . S
C2695 H2669 0.950 . S
C2695 C2694 1.414 . S
C2695 C2696 1.374 . S
C2696 H2670 0.950 . S
C2696 C2692 1.385 . S
C2696 C2695 1.374 . S
C2697 C2694 1.499 . S
C2697 C2698 1.373 . S
C2697 C2699 1.389 . S
C2698 H2671 0.950 . S
C2698 C2684 1.377 . S
C2698 C2697 1.373 . S
C2699 C2683 1.377 . S
C2699 C2697 1.389 . S
C2699 C2700 1.524 . S
C2700 C2699 1.524 . S
C2700 C2701 1.397 . S
C2700 C2705 1.363 . S
C2701 H2672 0.950 . S
C2701 C2700 1.397 . S
C2701 C2702 1.334 . S
C2702 H2673 0.950 . S
C2702 C2701 1.334 . S
C2702 C2703 1.287 . S
C2703 C2702 1.287 . S
C2703 C2704 1.524 . S
C2703 H2706 0.999 . S
C2704 H2674 0.950 . S
C2704 C2703 1.524 . S
C2704 C2705 1.415 . S
C2705 H2675 0.950 . S
C2705 C2700 1.363 . S
C2705 C2704 1.415 . S
H2706 C2703 0.999 . S
H2707 C2688 0.913 . S
H2708 C2726 0.951 . S
H2709 C2728 0.951 . S
H2710 C2730 0.950 . S
H2711 C2731 0.950 . S
H2712 C2733 0.950 . S
H2713 C2736 0.950 . S
H2714 C2737 0.950 . S
H2715 C2739 0.950 . S
H2716 C2740 0.950 . S
H2717 C2741 0.951 . S
H2718 C2743 0.951 . S
H2719 C2745 0.950 . S
H2720 C2746 0.950 . S
H2721 C2748 0.950 . S
H2722 C2751 0.950 . S
H2723 C2752 0.950 . S
H2724 C2754 0.950 . S
H2725 C2755 0.950 . S
C2726 H2708 0.951 . S
C2726 C2727 1.366 . S
C2726 C2728 1.388 . S
C2727 C2726 1.366 . S
C2727 C2731 1.385 . S
C2728 H2709 0.951 . S
C2728 C2726 1.388 . S
C2728 C2729 1.366 . S
C2729 C2728 1.366 . S
C2729 C2730 1.414 . S
C2729 C2732 1.499 . S
C2730 H2710 0.950 . S
C2730 C2729 1.414 . S
C2730 C2731 1.374 . S
C2731 H2711 0.950 . S
C2731 C2727 1.385 . S
C2731 C2730 1.374 . S
C2732 C2729 1.499 . S
C2732 C2733 1.373 . S
C2732 C2734 1.389 . S
C2733 H2712 0.950 . S
C2733 C2732 1.373 . S
C2733 C2749 1.377 . S
C2734 C2732 1.389 . S
C2734 C2735 1.524 . S
C2734 C2748 1.377 . S
C2735 C2734 1.524 . S
C2735 C2736 1.397 . S
C2735 C2740 1.363 . S
C2736 H2713 0.950 . S
C2736 C2735 1.397 . S
C2736 C2737 1.334 . S
C2737 H2714 0.950 . S
C2737 C2736 1.334 . S
C2737 C2738 1.287 . S
C2738 C2737 1.287 . S
C2738 C2739 1.524 . S
C2738 H2757 0.913 . S
C2739 H2715 0.950 . S
C2739 C2738 1.524 . S
C2739 C2740 1.415 . S
C2740 H2716 0.950 . S
C2740 C2735 1.363 . S
C2740 C2739 1.415 . S
C2741 H2717 0.951 . S
C2741 C2742 1.366 . S
C2741 C2743 1.388 . S
C2742 C2741 1.366 . S
C2742 C2746 1.385 . S
C2743 H2718 0.951 . S
C2743 C2741 1.388 . S
C2743 C2744 1.366 . S
C2744 C2743 1.366 . S
C2744 C2745 1.414 . S
C2744 C2747 1.499 . S
C2745 H2719 0.950 . S
C2745 C2744 1.414 . S
C2745 C2746 1.374 . S
C2746 H2720 0.950 . S
C2746 C2742 1.385 . S
C2746 C2745 1.374 . S
C2747 C2744 1.499 . S
C2747 C2748 1.373 . S
C2747 C2749 1.389 . S
C2748 H2721 0.950 . S
C2748 C2734 1.377 . S
C2748 C2747 1.373 . S
C2749 C2733 1.377 . S
C2749 C2747 1.389 . S
C2749 C2750 1.524 . S
C2750 C2749 1.524 . S
C2750 C2751 1.397 . S
C2750 C2755 1.363 . S
C2751 H2722 0.950 . S
C2751 C2750 1.397 . S
C2751 C2752 1.334 . S
C2752 H2723 0.950 . S
C2752 C2751 1.334 . S
C2752 C2753 1.287 . S
C2753 C2752 1.287 . S
C2753 C2754 1.524 . S
C2753 H2756 0.999 . S
C2754 H2724 0.950 . S
C2754 C2753 1.524 . S
C2754 C2755 1.415 . S
C2755 H2725 0.950 . S
C2755 C2750 1.363 . S
C2755 C2754 1.415 . S
H2756 C2753 0.999 . S
H2757 C2738 0.913 . S
H2758 C2776 0.951 . S
H2759 C2778 0.951 . S
H2760 C2780 0.950 . S
H2761 C2781 0.950 . S
H2762 C2783 0.950 . S
H2763 C2786 0.950 . S
H2764 C2787 0.950 . S
H2765 C2789 0.950 . S
H2766 C2790 0.950 . S
H2767 C2791 0.951 . S
H2768 C2793 0.951 . S
H2769 C2795 0.950 . S
H2770 C2796 0.950 . S
H2771 C2798 0.950 . S
H2772 C2801 0.950 . S
H2773 C2802 0.950 . S
H2774 C2804 0.950 . S
H2775 C2805 0.950 . S
C2776 H2758 0.951 . S
C2776 C2777 1.366 . S
C2776 C2778 1.388 . S
C2777 C2776 1.366 . S
C2777 C2781 1.385 . S
C2778 H2759 0.951 . S
C2778 C2776 1.388 . S
C2778 C2779 1.366 . S
C2779 C2778 1.366 . S
C2779 C2780 1.414 . S
C2779 C2782 1.499 . S
C2780 H2760 0.950 . S
C2780 C2779 1.414 . S
C2780 C2781 1.374 . S
C2781 H2761 0.950 . S
C2781 C2777 1.385 . S
C2781 C2780 1.374 . S
C2782 C2779 1.499 . S
C2782 C2783 1.373 . S
C2782 C2784 1.389 . S
C2783 H2762 0.950 . S
C2783 C2782 1.373 . S
C2783 C2799 1.377 . S
C2784 C2782 1.389 . S
C2784 C2785 1.524 . S
C2784 C2798 1.377 . S
C2785 C2784 1.524 . S
C2785 C2786 1.397 . S
C2785 C2790 1.363 . S
C2786 H2763 0.950 . S
C2786 C2785 1.397 . S
C2786 C2787 1.334 . S
C2787 H2764 0.950 . S
C2787 C2786 1.334 . S
C2787 C2788 1.287 . S
C2788 C2787 1.287 . S
C2788 C2789 1.524 . S
C2788 H2807 0.913 . S
C2789 H2765 0.950 . S
C2789 C2788 1.524 . S
C2789 C2790 1.415 . S
C2790 H2766 0.950 . S
C2790 C2785 1.363 . S
C2790 C2789 1.415 . S
C2791 H2767 0.951 . S
C2791 C2792 1.366 . S
C2791 C2793 1.388 . S
C2792 C2791 1.366 . S
C2792 C2796 1.385 . S
C2793 H2768 0.951 . S
C2793 C2791 1.388 . S
C2793 C2794 1.366 . S
C2794 C2793 1.366 . S
C2794 C2795 1.414 . S
C2794 C2797 1.499 . S
C2795 H2769 0.950 . S
C2795 C2794 1.414 . S
C2795 C2796 1.374 . S
C2796 H2770 0.950 . S
C2796 C2792 1.385 . S
C2796 C2795 1.374 . S
C2797 C2794 1.499 . S
C2797 C2798 1.373 . S
C2797 C2799 1.389 . S
C2798 H2771 0.950 . S
C2798 C2784 1.377 . S
C2798 C2797 1.373 . S
C2799 C2783 1.377 . S
C2799 C2797 1.389 . S
C2799 C2800 1.524 . S
C2800 C2799 1.524 . S
C2800 C2801 1.397 . S
C2800 C2805 1.363 . S
C2801 H2772 0.950 . S
C2801 C2800 1.397 . S
C2801 C2802 1.334 . S
C2802 H2773 0.950 . S
C2802 C2801 1.334 . S
C2802 C2803 1.287 . S
C2803 C2802 1.287 . S
C2803 C2804 1.524 . S
C2803 H2806 0.999 . S
C2804 H2774 0.950 . S
C2804 C2803 1.524 . S
C2804 C2805 1.415 . S
C2805 H2775 0.950 . S
C2805 C2800 1.363 . S
C2805 C2804 1.415 . S
H2806 C2803 0.999 . S
H2807 C2788 0.913 . S
H2808 C2826 0.951 . S
H2809 C2828 0.951 . S
H2810 C2830 0.950 . S
H2811 C2831 0.950 . S
H2812 C2833 0.950 . S
H2813 C2836 0.950 . S
H2814 C2837 0.950 . S
H2815 C2839 0.950 . S
H2816 C2840 0.950 . S
H2817 C2841 0.951 . S
H2818 C2843 0.951 . S
H2819 C2845 0.950 . S
H2820 C2846 0.950 . S
H2821 C2848 0.950 . S
H2822 C2851 0.950 . S
H2823 C2852 0.950 . S
H2824 C2854 0.950 . S
H2825 C2855 0.950 . S
C2826 H2808 0.951 . S
C2826 C2827 1.366 . S
C2826 C2828 1.388 . S
C2827 C2826 1.366 . S
C2827 C2831 1.385 . S
C2828 H2809 0.951 . S
C2828 C2826 1.388 . S
C2828 C2829 1.366 . S
C2829 C2828 1.366 . S
C2829 C2830 1.414 . S
C2829 C2832 1.499 . S
C2830 H2810 0.950 . S
C2830 C2829 1.414 . S
C2830 C2831 1.374 . S
C2831 H2811 0.950 . S
C2831 C2827 1.385 . S
C2831 C2830 1.374 . S
C2832 C2829 1.499 . S
C2832 C2833 1.373 . S
C2832 C2834 1.389 . S
C2833 H2812 0.950 . S
C2833 C2832 1.373 . S
C2833 C2849 1.377 . S
C2834 C2832 1.389 . S
C2834 C2835 1.524 . S
C2834 C2848 1.377 . S
C2835 C2834 1.524 . S
C2835 C2836 1.397 . S
C2835 C2840 1.363 . S
C2836 H2813 0.950 . S
C2836 C2835 1.397 . S
C2836 C2837 1.334 . S
C2837 H2814 0.950 . S
C2837 C2836 1.334 . S
C2837 C2838 1.287 . S
C2838 C2837 1.287 . S
C2838 C2839 1.524 . S
C2838 H2857 0.913 . S
C2839 H2815 0.950 . S
C2839 C2838 1.524 . S
C2839 C2840 1.415 . S
C2840 H2816 0.950 . S
C2840 C2835 1.363 . S
C2840 C2839 1.415 . S
C2841 H2817 0.951 . S
C2841 C2842 1.366 . S
C2841 C2843 1.388 . S
C2842 C2841 1.366 . S
C2842 C2846 1.385 . S
C2843 H2818 0.951 . S
C2843 C2841 1.388 . S
C2843 C2844 1.366 . S
C2844 C2843 1.366 . S
C2844 C2845 1.414 . S
C2844 C2847 1.499 . S
C2845 H2819 0.950 . S
C2845 C2844 1.414 . S
C2845 C2846 1.374 . S
C2846 H2820 0.950 . S
C2846 C2842 1.385 . S
C2846 C2845 1.374 . S
C2847 C2844 1.499 . S
C2847 C2848 1.373 . S
C2847 C2849 1.389 . S
C2848 H2821 0.950 . S
C2848 C2834 1.377 . S
C2848 C2847 1.373 . S
C2849 C2833 1.377 . S
C2849 C2847 1.389 . S
C2849 C2850 1.524 . S
C2850 C2849 1.524 . S
C2850 C2851 1.397 . S
C2850 C2855 1.363 . S
C2851 H2822 0.950 . S
C2851 C2850 1.397 . S
C2851 C2852 1.334 . S
C2852 H2823 0.950 . S
C2852 C2851 1.334 . S
C2852 C2853 1.287 . S
C2853 C2852 1.287 . S
C2853 C2854 1.524 . S
C2853 H2856 0.999 . S
C2854 H2824 0.950 . S
C2854 C2853 1.524 . S
C2854 C2855 1.415 . S
C2855 H2825 0.950 . S
C2855 C2850 1.363 . S
C2855 C2854 1.415 . S
H2856 C2853 0.999 . S
H2857 C2838 0.913 . S
H2858 C2876 0.951 . S
H2859 C2878 0.951 . S
H2860 C2880 0.950 . S
H2861 C2881 0.950 . S
H2862 C2883 0.950 . S
H2863 C2886 0.950 . S
H2864 C2887 0.950 . S
H2865 C2889 0.950 . S
H2866 C2890 0.950 . S
H2867 C2891 0.951 . S
H2868 C2893 0.951 . S
H2869 C2895 0.950 . S
H2870 C2896 0.950 . S
H2871 C2898 0.950 . S
H2872 C2901 0.950 . S
H2873 C2902 0.950 . S
H2874 C2904 0.950 . S
H2875 C2905 0.950 . S
C2876 H2858 0.951 . S
C2876 C2877 1.366 . S
C2876 C2878 1.388 . S
C2877 C2876 1.366 . S
C2877 C2881 1.385 . S
C2878 H2859 0.951 . S
C2878 C2876 1.388 . S
C2878 C2879 1.366 . S
C2879 C2878 1.366 . S
C2879 C2880 1.414 . S
C2879 C2882 1.499 . S
C2880 H2860 0.950 . S
C2880 C2879 1.414 . S
C2880 C2881 1.374 . S
C2881 H2861 0.950 . S
C2881 C2877 1.385 . S
C2881 C2880 1.374 . S
C2882 C2879 1.499 . S
C2882 C2883 1.373 . S
C2882 C2884 1.389 . S
C2883 H2862 0.950 . S
C2883 C2882 1.373 . S
C2883 C2899 1.377 . S
C2884 C2882 1.389 . S
C2884 C2885 1.524 . S
C2884 C2898 1.377 . S
C2885 C2884 1.524 . S
C2885 C2886 1.397 . S
C2885 C2890 1.363 . S
C2886 H2863 0.950 . S
C2886 C2885 1.397 . S
C2886 C2887 1.334 . S
C2887 H2864 0.950 . S
C2887 C2886 1.334 . S
C2887 C2888 1.287 . S
C2888 C2887 1.287 . S
C2888 C2889 1.524 . S
C2888 H2907 0.913 . S
C2889 H2865 0.950 . S
C2889 C2888 1.524 . S
C2889 C2890 1.415 . S
C2890 H2866 0.950 . S
C2890 C2885 1.363 . S
C2890 C2889 1.415 . S
C2891 H2867 0.951 . S
C2891 C2892 1.366 . S
C2891 C2893 1.388 . S
C2892 C2891 1.366 . S
C2892 C2896 1.385 . S
C2893 H2868 0.951 . S
C2893 C2891 1.388 . S
C2893 C2894 1.366 . S
C2894 C2893 1.366 . S
C2894 C2895 1.414 . S
C2894 C2897 1.499 . S
C2895 H2869 0.950 . S
C2895 C2894 1.414 . S
C2895 C2896 1.374 . S
C2896 H2870 0.950 . S
C2896 C2892 1.385 . S
C2896 C2895 1.374 . S
C2897 C2894 1.499 . S
C2897 C2898 1.373 . S
C2897 C2899 1.389 . S
C2898 H2871 0.950 . S
C2898 C2884 1.377 . S
C2898 C2897 1.373 . S
C2899 C2883 1.377 . S
C2899 C2897 1.389 . S
C2899 C2900 1.524 . S
C2900 C2899 1.524 . S
C2900 C2901 1.397 . S
C2900 C2905 1.363 . S
C2901 H2872 0.950 . S
C2901 C2900 1.397 . S
C2901 C2902 1.334 . S
C2902 H2873 0.950 . S
C2902 C2901 1.334 . S
C2902 C2903 1.287 . S
C2903 C2902 1.287 . S
C2903 C2904 1.524 . S
C2903 H2906 0.999 . S
C2904 H2874 0.950 . S
C2904 C2903 1.524 . S
C2904 C2905 1.415 . S
C2905 H2875 0.950 . S
C2905 C2900 1.363 . S
C2905 C2904 1.415 . S
H2906 C2903 0.999 . S
H2907 C2888 0.913 . S
H2908 C2926 0.951 . S
H2909 C2928 0.951 . S
H2910 C2930 0.950 . S
H2911 C2931 0.950 . S
H2912 C2933 0.950 . S
H2913 C2936 0.950 . S
H2914 C2937 0.950 . S
H2915 C2939 0.950 . S
H2916 C2940 0.950 . S
H2917 C2941 0.951 . S
H2918 C2943 0.951 . S
H2919 C2945 0.950 . S
H2920 C2946 0.950 . S
H2921 C2948 0.950 . S
H2922 C2951 0.950 . S
H2923 C2952 0.950 . S
H2924 C2954 0.950 . S
H2925 C2955 0.950 . S
C2926 H2908 0.951 . S
C2926 C2927 1.366 . S
C2926 C2928 1.388 . S
C2927 C2926 1.366 . S
C2927 C2931 1.385 . S
C2928 H2909 0.951 . S
C2928 C2926 1.388 . S
C2928 C2929 1.366 . S
C2929 C2928 1.366 . S
C2929 C2930 1.414 . S
C2929 C2932 1.499 . S
C2930 H2910 0.950 . S
C2930 C2929 1.414 . S
C2930 C2931 1.374 . S
C2931 H2911 0.950 . S
C2931 C2927 1.385 . S
C2931 C2930 1.374 . S
C2932 C2929 1.499 . S
C2932 C2933 1.373 . S
C2932 C2934 1.389 . S
C2933 H2912 0.950 . S
C2933 C2932 1.373 . S
C2933 C2949 1.377 . S
C2934 C2932 1.389 . S
C2934 C2935 1.524 . S
C2934 C2948 1.377 . S
C2935 C2934 1.524 . S
C2935 C2936 1.397 . S
C2935 C2940 1.363 . S
C2936 H2913 0.950 . S
C2936 C2935 1.397 . S
C2936 C2937 1.334 . S
C2937 H2914 0.950 . S
C2937 C2936 1.334 . S
C2937 C2938 1.287 . S
C2938 C2937 1.287 . S
C2938 C2939 1.524 . S
C2938 H2957 0.913 . S
C2939 H2915 0.950 . S
C2939 C2938 1.524 . S
C2939 C2940 1.415 . S
C2940 H2916 0.950 . S
C2940 C2935 1.363 . S
C2940 C2939 1.415 . S
C2941 H2917 0.951 . S
C2941 C2942 1.366 . S
C2941 C2943 1.388 . S
C2942 C2941 1.366 . S
C2942 C2946 1.385 . S
C2943 H2918 0.951 . S
C2943 C2941 1.388 . S
C2943 C2944 1.366 . S
C2944 C2943 1.366 . S
C2944 C2945 1.414 . S
C2944 C2947 1.499 . S
C2945 H2919 0.950 . S
C2945 C2944 1.414 . S
C2945 C2946 1.374 . S
C2946 H2920 0.950 . S
C2946 C2942 1.385 . S
C2946 C2945 1.374 . S
C2947 C2944 1.499 . S
C2947 C2948 1.373 . S
C2947 C2949 1.389 . S
C2948 H2921 0.950 . S
C2948 C2934 1.377 . S
C2948 C2947 1.373 . S
C2949 C2933 1.377 . S
C2949 C2947 1.389 . S
C2949 C2950 1.524 . S
C2950 C2949 1.524 . S
C2950 C2951 1.397 . S
C2950 C2955 1.363 . S
C2951 H2922 0.950 . S
C2951 C2950 1.397 . S
C2951 C2952 1.334 . S
C2952 H2923 0.950 . S
C2952 C2951 1.334 . S
C2952 C2953 1.287 . S
C2953 C2952 1.287 . S
C2953 C2954 1.524 . S
C2953 H2956 0.999 . S
C2954 H2924 0.950 . S
C2954 C2953 1.524 . S
C2954 C2955 1.415 . S
C2955 H2925 0.950 . S
C2955 C2950 1.363 . S
C2955 C2954 1.415 . S
H2956 C2953 0.999 . S
H2957 C2938 0.913 . S
H2958 C2976 0.951 . S
H2959 C2978 0.951 . S
H2960 C2980 0.950 . S
H2961 C2981 0.950 . S
H2962 C2983 0.950 . S
H2963 C2986 0.950 . S
H2964 C2987 0.950 . S
H2965 C2989 0.950 . S
H2966 C2990 0.950 . S
H2967 C2991 0.951 . S
H2968 C2993 0.951 . S
H2969 C2995 0.950 . S
H2970 C2996 0.950 . S
H2971 C2998 0.950 . S
H2972 C3001 0.950 . S
H2973 C3002 0.950 . S
H2974 C3004 0.950 . S
H2975 C3005 0.950 . S
C2976 H2958 0.951 . S
C2976 C2977 1.366 . S
C2976 C2978 1.388 . S
C2977 C2976 1.366 . S
C2977 C2981 1.385 . S
C2978 H2959 0.951 . S
C2978 C2976 1.388 . S
C2978 C2979 1.366 . S
C2979 C2978 1.366 . S
C2979 C2980 1.414 . S
C2979 C2982 1.499 . S
C2980 H2960 0.950 . S
C2980 C2979 1.414 . S
C2980 C2981 1.374 . S
C2981 H2961 0.950 . S
C2981 C2977 1.385 . S
C2981 C2980 1.374 . S
C2982 C2979 1.499 . S
C2982 C2983 1.373 . S
C2982 C2984 1.389 . S
C2983 H2962 0.950 . S
C2983 C2982 1.373 . S
C2983 C2999 1.377 . S
C2984 C2982 1.389 . S
C2984 C2985 1.524 . S
C2984 C2998 1.377 . S
C2985 C2984 1.524 . S
C2985 C2986 1.397 . S
C2985 C2990 1.363 . S
C2986 H2963 0.950 . S
C2986 C2985 1.397 . S
C2986 C2987 1.334 . S
C2987 H2964 0.950 . S
C2987 C2986 1.334 . S
C2987 C2988 1.287 . S
C2988 C2987 1.287 . S
C2988 C2989 1.524 . S
C2988 H3007 0.913 . S
C2989 H2965 0.950 . S
C2989 C2988 1.524 . S
C2989 C2990 1.415 . S
C2990 H2966 0.950 . S
C2990 C2985 1.363 . S
C2990 C2989 1.415 . S
C2991 H2967 0.951 . S
C2991 C2992 1.366 . S
C2991 C2993 1.388 . S
C2992 C2991 1.366 . S
C2992 C2996 1.385 . S
C2993 H2968 0.951 . S
C2993 C2991 1.388 . S
C2993 C2994 1.366 . S
C2994 C2993 1.366 . S
C2994 C2995 1.414 . S
C2994 C2997 1.499 . S
C2995 H2969 0.950 . S
C2995 C2994 1.414 . S
C2995 C2996 1.374 . S
C2996 H2970 0.950 . S
C2996 C2992 1.385 . S
C2996 C2995 1.374 . S
C2997 C2994 1.499 . S
C2997 C2998 1.373 . S
C2997 C2999 1.389 . S
C2998 H2971 0.950 . S
C2998 C2984 1.377 . S
C2998 C2997 1.373 . S
C2999 C2983 1.377 . S
C2999 C2997 1.389 . S
C2999 C3000 1.524 . S
C3000 C2999 1.524 . S
C3000 C3001 1.397 . S
C3000 C3005 1.363 . S
C3001 H2972 0.950 . S
C3001 C3000 1.397 . S
C3001 C3002 1.334 . S
C3002 H2973 0.950 . S
C3002 C3001 1.334 . S
C3002 C3003 1.287 . S
C3003 C3002 1.287 . S
C3003 C3004 1.524 . S
C3003 H3006 0.999 . S
C3004 H2974 0.950 . S
C3004 C3003 1.524 . S
C3004 C3005 1.415 . S
C3005 H2975 0.950 . S
C3005 C3000 1.363 . S
C3005 C3004 1.415 . S
H3006 C3003 0.999 . S
H3007 C2988 0.913 . S
C1427 C29 0.530 . S
C1442 C1201 0.531 . S
C1477 C997 0.539 . S
C1492 C117 0.538 . S
C1527 C1085 0.531 . S
C1542 C225 0.529 . S
C1577 C900 0.538 . S
C1592 C293 0.537 . S
C1627 C401 0.530 . S
C1642 C1340 0.530 . S
C1677 C489 0.538 . S
C1692 C849 0.537 . S
C1727 C1281 0.529 . S
C1742 C548 0.531 . S
C1777 C673 0.538 . S
C1792 C761 0.539 . S
C1827 C409 1.725 . S
C1842 C20 1.725 . S
C1877 C137 1.730 . S
C1892 C469 1.730 . S
C1927 C233 1.726 . S
C1942 C557 1.726 . S
C1977 C636 1.730 . S
C1992 C313 1.730 . S
C2027 C724 1.730 . S
C2042 C937 1.730 . S
C2077 C812 1.730 . S
C2092 C1017 1.730 . S
C2127 C1289 1.726 . S
C2142 C1076 1.726 . S
C2177 C1193 1.726 . S
C2192 C1349 1.726 . S
C2227 C460 1.175 . S
C2242 C49 1.171 . S
C2277 C145 1.175 . S
C2292 C585 1.170 . S
C2327 C205 1.170 . S
C2342 C645 1.175 . S
C2377 C381 1.171 . S
C2392 C321 1.175 . S
C2427 C372 1.172 . S
C2442 C909 1.170 . S
C2477 C196 1.171 . S
C2492 C753 1.170 . S
C2527 C988 1.170 . S
C2542 C577 1.171 . S
C2577 C841 1.170 . S
C2592 C57 1.172 . S
C2627 C733 1.175 . S
C2642 C1105 1.171 . S
C2677 C929 1.174 . S
C2692 C1377 1.171 . S
C2727 C1164 1.170 . S
C2742 C821 1.174 . S
C2777 C1025 1.174 . S
C2792 C1261 1.171 . S
C2827 C1252 1.171 . S
C2842 C108 1.170 . S
C2877 C1173 1.171 . S
C2892 C497 1.170 . S
C2927 C1369 1.171 . S
C2942 C284 1.170 . S
C2977 C1113 1.171 . S
C2992 C665 1.170 . S
