# Generated by pormake.
# Topology wjg, (4)-cn, num edge types: 1
# Building blocks:
#     Node 0, Type 0, BuildingBlock: NAHDIM_clean_sbu_0, # of connection points: 4
#     Node 1, Type 0, BuildingBlock: NAHDIM_clean_sbu_0, # of connection points: 4
#     Node 2, Type 0, BuildingBlock: NAHDIM_clean_sbu_0, # of connection points: 4
#     Node 3, Type 0, BuildingBlock: NAHDIM_clean_sbu_0, # of connection points: 4
#     Node 4, Type 0, BuildingBlock: NAHDIM_clean_sbu_0, # of connection points: 4
#     Node 5, Type 0, BuildingBlock: NAHDIM_clean_sbu_0, # of connection points: 4
#     Node 6, Type 0, BuildingBlock: NAHDIM_clean_sbu_0, # of connection points: 4
#     Node 7, Type 0, BuildingBlock: NAHDIM_clean_sbu_0, # of connection points: 4
#     Node 8, Type 0, BuildingBlock: NAHDIM_clean_sbu_0, # of connection points: 4
#     Node 9, Type 0, BuildingBlock: NAHDIM_clean_sbu_0, # of connection points: 4
#     Node 10, Type 0, BuildingBlock: NAHDIM_clean_sbu_0, # of connection points: 4
#     Node 11, Type 0, BuildingBlock: NAHDIM_clean_sbu_0, # of connection points: 4
#     Edge 12, Type (0, 0), BuildingBlock: AJUNOK_clean_linker_0, # of connection points: 2
#     Edge 13, Type (0, 0), BuildingBlock: AJUNOK_clean_linker_0, # of connection points: 2
#     Edge 14, Type (0, 0), BuildingBlock: AJUNOK_clean_linker_0, # of connection points: 2
#     Edge 15, Type (0, 0), BuildingBlock: AJUNOK_clean_linker_0, # of connection points: 2
#     Edge 16, Type (0, 0), BuildingBlock: AJUNOK_clean_linker_0, # of connection points: 2
#     Edge 17, Type (0, 0), BuildingBlock: AJUNOK_clean_linker_0, # of connection points: 2
#     Edge 18, Type (0, 0), BuildingBlock: AJUNOK_clean_linker_0, # of connection points: 2
#     Edge 19, Type (0, 0), BuildingBlock: AJUNOK_clean_linker_0, # of connection points: 2
#     Edge 20, Type (0, 0), BuildingBlock: AJUNOK_clean_linker_0, # of connection points: 2
#     Edge 21, Type (0, 0), BuildingBlock: AJUNOK_clean_linker_0, # of connection points: 2
#     Edge 22, Type (0, 0), BuildingBlock: AJUNOK_clean_linker_0, # of connection points: 2
#     Edge 23, Type (0, 0), BuildingBlock: AJUNOK_clean_linker_0, # of connection points: 2
#     Edge 24, Type (0, 0), BuildingBlock: AJUNOK_clean_linker_0, # of connection points: 2
#     Edge 25, Type (0, 0), BuildingBlock: AJUNOK_clean_linker_0, # of connection points: 2
#     Edge 26, Type (0, 0), BuildingBlock: AJUNOK_clean_linker_0, # of connection points: 2
#     Edge 27, Type (0, 0), BuildingBlock: AJUNOK_clean_linker_0, # of connection points: 2
#     Edge 28, Type (0, 0), BuildingBlock: AJUNOK_clean_linker_0, # of connection points: 2
#     Edge 29, Type (0, 0), BuildingBlock: AJUNOK_clean_linker_0, # of connection points: 2
#     Edge 30, Type (0, 0), BuildingBlock: AJUNOK_clean_linker_0, # of connection points: 2
#     Edge 31, Type (0, 0), BuildingBlock: AJUNOK_clean_linker_0, # of connection points: 2
#     Edge 32, Type (0, 0), BuildingBlock: AJUNOK_clean_linker_0, # of connection points: 2
#     Edge 33, Type (0, 0), BuildingBlock: AJUNOK_clean_linker_0, # of connection points: 2
#     Edge 34, Type (0, 0), BuildingBlock: AJUNOK_clean_linker_0, # of connection points: 2
#     Edge 35, Type (0, 0), BuildingBlock: AJUNOK_clean_linker_0, # of connection points: 2
# Relax obj value: 0.284
# Max RMSD: 0.131
# Mean RMSD: 0.129
data_MOF--net-wjg--node1-NAHDIM_clean_sbu_0--edge1-AJUNOK_clean_linker_0
_symmetry_space_group_name_H-M    P1
_symmetry_Int_Tables_number       1
_symmetry_cell_setting            triclinic
loop_
_symmetry_equiv_pos_as_xyz
'x, y, z'
_cell_length_a     25.311593
_cell_length_b     25.246516
_cell_length_c     28.636412
_cell_angle_alpha  90.081284
_cell_angle_beta   89.950278
_cell_angle_gamma 120.2459
loop_
_atom_site_label
_atom_site_type_symbol
_atom_site_fract_x
_atom_site_fract_y
_atom_site_fract_z
_atom_type_partial_charge
C0 C 0.08407 0.38926 0.2334 0.0
O1 O 0.13755 0.39739 0.22065 0.0
O2 O 0.2181 0.49096 0.30983 0.0
Zn3 Zn 0.14227 0.40882 0.3212 0.0
O4 O 0.16243 0.34115 0.3169 0.0
C5 C 0.15514 0.45891 0.41152 0.0
O6 O 0.17527 0.51096 0.38912 0.0
O7 O 0.07438 0.39286 0.27656 0.0
C8 C 0.19462 0.3385 0.34996 0.0
O9 O 0.21432 0.38042 0.38283 0.0
C10 C 0.27027 0.49604 0.30482 0.0
O11 O 0.27416 0.44717 0.29575 0.0
O12 O 0.12238 0.40915 0.38937 0.0
C13 C 0.72237 0.08831 0.56317 0.0
O14 O 0.76708 0.14219 0.54984 0.0
O15 O 0.76097 0.2161 0.65574 0.0
Zn16 Zn 0.76801 0.14019 0.65391 0.0
O17 O 0.85732 0.17076 0.64355 0.0
C18 C 0.71733 0.12215 0.74328 0.0
O19 O 0.67334 0.12436 0.72076 0.0
O20 O 0.7134 0.07695 0.60662 0.0
C21 C 0.88959 0.20936 0.67493 0.0
O22 O 0.86163 0.22249 0.70766 0.0
C23 C 0.71672 0.22523 0.64865 0.0
O24 O 0.66501 0.18092 0.63165 0.0
O25 O 0.75282 0.11018 0.72014 0.0
C26 C 0.60158 0.69751 0.89559 0.0
O27 O 0.58529 0.73635 0.88054 0.0
O28 O 0.50427 0.73134 0.97429 0.0
Zn29 Zn 0.58868 0.74374 0.98393 0.0
O30 O 0.64965 0.83487 0.98087 0.0
C31 C 0.5425 0.70321 0.0746 0.0
O32 O 0.49069 0.66884 0.0526 0.0
O33 O 0.60697 0.69287 0.93932 0.0
C34 C 0.64079 0.86572 0.01205 0.0
O35 O 0.59415 0.83667 0.04048 0.0
C36 C 0.49612 0.7741 0.95968 0.0
O37 O 0.5418 0.82248 0.94002 0.0
O38 O 0.59215 0.72481 0.05172 0.0
C39 C 0.90625 0.60181 0.23413 0.0
O40 O 0.85085 0.57753 0.21667 0.0
O41 O 0.77918 0.47791 0.30899 0.0
Zn42 Zn 0.83516 0.56899 0.31691 0.0
O43 O 0.78914 0.61204 0.29996 0.0
C44 C 0.83215 0.53773 0.41264 0.0
O45 O 0.82666 0.48742 0.39452 0.0
O46 O 0.91228 0.60262 0.27826 0.0
C47 C 0.74945 0.60746 0.32946 0.0
O48 O 0.73838 0.57272 0.36645 0.0
C49 C 0.73224 0.45365 0.28294 0.0
O50 O 0.72233 0.4887 0.25472 0.0
O51 O 0.84927 0.58403 0.38628 0.0
C52 C 0.29005 0.92196 0.57056 0.0
O53 O 0.26538 0.86383 0.55925 0.0
O54 O 0.27731 0.80955 0.65871 0.0
Zn55 Zn 0.24381 0.8667 0.65908 0.0
O56 O 0.15374 0.81615 0.64574 0.0
C57 C 0.27841 0.8805 0.75363 0.0
O58 O 0.32525 0.87776 0.73674 0.0
O59 O 0.28705 0.93579 0.61283 0.0
C60 C 0.12334 0.7776 0.67763 0.0
O61 O 0.15252 0.77221 0.71352 0.0
C62 C 0.25292 0.76002 0.63548 0.0
O63 O 0.20756 0.7478 0.60694 0.0
O64 O 0.24714 0.89297 0.72583 0.0
C65 C 0.41566 0.35298 0.90607 0.0
O66 O 0.47411 0.37112 0.90883 0.0
O67 O 0.48849 0.30852 0.00123 0.0
Zn68 Zn 0.3997 0.26859 0.98331 0.0
O69 O 0.37438 0.18346 0.96147 0.0
C70 C 0.37665 0.27423 0.08054 0.0
O71 O 0.42951 0.32558 0.07909 0.0
O72 O 0.37853 0.31302 0.93475 0.0
C73 C 0.38488 0.15302 0.99171 0.0
O74 O 0.41656 0.18146 0.02911 0.0
C75 C 0.5271 0.30628 0.97428 0.0
O76 O 0.51048 0.28462 0.93177 0.0
O77 O 0.35033 0.2496 0.04232 0.0
C78 C 0.59763 0.89466 0.42476 0.0
O79 O 0.55749 0.83854 0.43755 0.0
O80 O 0.49984 0.76641 0.34772 0.0
Zn81 Zn 0.58808 0.83166 0.339 0.0
O82 O 0.63791 0.79058 0.348 0.0
C83 C 0.55107 0.83256 0.24523 0.0
O84 O 0.49903 0.81848 0.26544 0.0
O85 O 0.61679 0.90395 0.38281 0.0
C86 C 0.6293 0.75063 0.31717 0.0
O87 O 0.58855 0.73807 0.28429 0.0
C88 C 0.48557 0.717 0.36919 0.0
O89 O 0.52772 0.71389 0.39373 0.0
O90 O 0.59871 0.85285 0.27047 0.0
C91 C 0.67779 0.57471 0.76184 0.0
O92 O 0.69792 0.53871 0.77633 0.0
O93 O 0.70831 0.47597 0.68591 0.0
Zn94 Zn 0.73357 0.56521 0.6781 0.0
O95 O 0.82341 0.6176 0.69256 0.0
C96 C 0.70312 0.53084 0.58334 0.0
O97 O 0.66231 0.47868 0.60219 0.0
O98 O 0.6858 0.5913 0.71925 0.0
C99 C 0.86068 0.61958 0.66181 0.0
O100 O 0.83927 0.5861 0.62389 0.0
C101 C 0.74316 0.45918 0.70424 0.0
O102 O 0.79356 0.50043 0.72492 0.0
O103 O 0.7288 0.5783 0.60907 0.0
C104 C 0.11241 0.7214 0.10504 0.0
O105 O 0.16951 0.75208 0.11918 0.0
O106 O 0.23389 0.74207 0.01638 0.0
Zn107 Zn 0.16913 0.76622 0.01489 0.0
O108 O 0.21276 0.85797 0.02368 0.0
C109 C 0.15965 0.73454 0.91875 0.0
O110 O 0.17793 0.6971 0.9334 0.0
O111 O 0.10119 0.72069 0.06167 0.0
C112 C 0.2497 0.88748 0.99062 0.0
O113 O 0.25798 0.8571 0.95694 0.0
C114 C 0.28528 0.77775 0.03515 0.0
O115 O 0.29106 0.82276 0.06177 0.0
O116 O 0.13898 0.75679 0.94859 0.0
C117 C 0.38059 0.10315 0.42113 0.0
O118 O 0.40003 0.16129 0.4295 0.0
O119 O 0.47167 0.2086 0.31455 0.0
Zn120 Zn 0.38402 0.14706 0.32994 0.0
O121 O 0.34552 0.19486 0.35208 0.0
C122 C 0.37209 0.125 0.23252 0.0
O123 O 0.4279 0.13445 0.23588 0.0
O124 O 0.37206 0.08483 0.37893 0.0
C125 C 0.28844 0.17134 0.34523 0.0
O126 O 0.25682 0.1148 0.32968 0.0
C127 C 0.52152 0.22177 0.33456 0.0
O128 O 0.52045 0.19257 0.37281 0.0
O129 O 0.34017 0.11216 0.26931 0.0
C130 C 0.30824 0.4198 0.75378 0.0
O131 O 0.25706 0.41956 0.76203 0.0
O132 O 0.29148 0.52405 0.65911 0.0
Zn133 Zn 0.27503 0.43811 0.66422 0.0
O134 O 0.1867 0.38675 0.6816 0.0
C135 C 0.30077 0.45615 0.56792 0.0
O136 O 0.34526 0.51014 0.58134 0.0
O137 O 0.32822 0.42786 0.71205 0.0
C138 C 0.15488 0.33188 0.66717 0.0
O139 O 0.18163 0.30733 0.64343 0.0
C140 C 0.28558 0.55746 0.68926 0.0
O141 O 0.27298 0.53883 0.73276 0.0
O142 O 0.27759 0.41327 0.59788 0.0
C143 C 0.88998 0.3053 0.09439 0.0
O144 O 0.83319 0.28504 0.10729 0.0
O145 O 0.7735 0.29294 0.01176 0.0
Zn146 Zn 0.82557 0.25297 0.01112 0.0
O147 O 0.77627 0.16534 0.03219 0.0
C148 C 0.82421 0.26599 0.91188 0.0
O149 O 0.8165 0.31205 0.92296 0.0
O150 O 0.90036 0.29798 0.05206 0.0
C151 C 0.79713 0.13108 0.01943 0.0
O152 O 0.85092 0.15633 -0.00096 0.0
C153 C 0.72557 0.27498 0.03617 0.0
O154 O 0.7105 0.23058 0.06648 0.0
O155 O 0.841 0.24232 0.94342 0.0
C156 C 0.33499 0.60998 0.30901 0.0
C157 C 0.32435 0.55191 0.32208 0.0
C158 C 0.38598 0.66338 0.32599 0.0
C159 C 0.42738 0.66048 0.35742 0.0
H160 H 0.30445 0.61412 0.28473 0.0
H161 H 0.3936 0.70717 0.31352 0.0
S162 S 0.41302 0.51833 0.40806 0.0
N163 N 0.35481 0.49392 0.37168 0.0
N164 N 0.44983 0.59387 0.40453 0.0
C165 C 0.41486 0.60229 0.37275 0.0
C166 C 0.36361 0.54809 0.35478 0.0
C167 C 0.68293 0.30306 0.64718 0.0
C168 C 0.72192 0.28345 0.66498 0.0
C169 C 0.68842 0.35879 0.66151 0.0
C170 C 0.73286 0.39688 0.69448 0.0
H171 H 0.64887 0.27595 0.62113 0.0
H172 H 0.65861 0.37278 0.64555 0.0
S173 S 0.84108 0.36246 0.7562 0.0
N174 N 0.80317 0.30405 0.72036 0.0
N175 N 0.81288 0.40802 0.74754 0.0
C176 C 0.77023 0.37633 0.71414 0.0
C177 C 0.76501 0.31992 0.69929 0.0
C178 C 0.38588 0.72166 0.98244 0.0
C179 C 0.44213 0.77624 0.97661 0.0
C180 C 0.33543 0.72226 0.00215 0.0
C181 C 0.34009 0.7772 0.01806 0.0
H182 H 0.38079 0.67822 0.97154 0.0
H183 H 0.29255 0.67938 0.00516 0.0
S184 S 0.47814 0.93235 0.01231 0.0
N185 N 0.49992 0.88658 0.989 0.0
N186 N 0.40574 0.8876 0.02687 0.0
C187 C 0.39644 0.83197 0.0131 0.0
C188 C 0.44729 0.83153 0.9921 0.0
C189 C 0.62887 0.30662 0.34843 0.0
C190 C 0.57916 0.27531 0.31779 0.0
C191 C 0.67998 0.36268 0.33574 0.0
C192 C 0.68325 0.38967 0.29196 0.0
H193 H 0.62713 0.28939 0.38336 0.0
H194 H 0.71562 0.38646 0.3615 0.0
S195 S 0.57057 0.32044 0.19576 0.0
N196 N 0.54045 0.27109 0.23919 0.0
N197 N 0.63609 0.37687 0.21576 0.0
C198 C 0.63588 0.35675 0.25981 0.0
C199 C 0.58398 0.29948 0.2726 0.0
C200 C 0.287 0.7083 0.69213 0.0
C201 C 0.26817 0.71227 0.64664 0.0
C202 C 0.29398 0.65878 0.70546 0.0
C203 C 0.28362 0.61222 0.67352 0.0
H204 H 0.29383 0.74226 0.71826 0.0
H205 H 0.30659 0.65645 0.74123 0.0
S206 S 0.23756 0.60386 0.5492 0.0
N207 N 0.24194 0.66731 0.56915 0.0
N208 N 0.2561 0.57479 0.59357 0.0
C209 C 0.26729 0.61716 0.6273 0.0
C210 C 0.25923 0.66702 0.61404 0.0
C211 C 0.62842 0.2751 0.05195 0.0
C212 C 0.6815 0.29559 0.02464 0.0
C213 C 0.58032 0.28338 0.03715 0.0
C214 C 0.58314 0.31143 0.99411 0.0
H215 H 0.62261 0.24993 0.08397 0.0
H216 H 0.53906 0.26395 0.05808 0.0
S217 S 0.71581 0.38436 0.91414 0.0
N218 N 0.73757 0.3548 0.95619 0.0
N219 N 0.64552 0.3672 0.92759 0.0
C220 C 0.63737 0.3363 0.96826 0.0
C221 C 0.68707 0.32933 0.9838 0.0
C222 C 0.26546 0.30362 0.37721 0.0
C223 C 0.21496 0.29303 0.34971 0.0
C224 C 0.28796 0.26318 0.37638 0.0
C225 C 0.26025 0.21006 0.34862 0.0
H226 H 0.2889 0.34429 0.39881 0.0
H227 H 0.32779 0.27398 0.39733 0.0
S228 S 0.1253 0.15994 0.27152 0.0
N229 N 0.13686 0.22478 0.29482 0.0
N230 N 0.17873 0.14815 0.29362 0.0
C231 C 0.2087 0.19795 0.32187 0.0
C232 C 0.18622 0.23965 0.32226 0.0
C233 C 0.987 0.2196 0.64423 0.0
C234 C 0.9572 0.23972 0.67482 0.0
C235 C 0.05096 0.24842 0.6431 0.0
C236 C 0.08755 0.29885 0.67216 0.0
H237 H 0.96085 0.18148 0.62076 0.0
H238 H 0.07177 0.23187 0.61839 0.0
S239 S 0.03218 0.36821 0.7598 0.0
N240 N 0.96941 0.31236 0.73596 0.0
N241 N 0.0893 0.36641 0.73356 0.0
C242 C 0.05836 0.31881 0.70347 0.0
C243 C 0.9933 0.28929 0.70486 0.0
C244 C 0.77353 0.02716 0.99275 0.0
C245 C 0.75832 0.06338 0.02088 0.0
C246 C 0.73539 0.96341 0.99012 0.0
C247 C 0.68078 0.93317 0.01587 0.0
H248 H 0.81461 0.04822 0.97161 0.0
H249 H 0.74885 0.93777 0.96754 0.0
S250 S 0.62145 0.00661 0.09673 0.0
N251 N 0.68575 0.06411 0.07616 0.0
N252 N 0.61432 0.94435 0.07182 0.0
C253 C 0.66565 0.9687 0.04504 0.0
C254 C 0.70431 0.03373 0.04738 0.0
C255 C 0.67677 0.7014 0.36271 0.0
C256 C 0.66193 0.71617 0.31928 0.0
C257 C 0.70454 0.66558 0.36551 0.0
C258 C 0.71978 0.64462 0.32494 0.0
H259 H 0.66556 0.71639 0.39479 0.0
H260 H 0.71471 0.65475 0.39974 0.0
S261 S 0.69225 0.67262 0.20274 0.0
N262 N 0.66493 0.70786 0.23478 0.0
N263 N 0.71893 0.64198 0.2401 0.0
C264 C 0.70631 0.6601 0.28127 0.0
C265 C 0.67681 0.69547 0.27844 0.0
C266 C 0.02768 0.72161 0.63073 0.0
C267 C 0.0563 0.73869 0.67456 0.0
C268 C 0.96434 0.68267 0.62711 0.0
C269 C 0.92724 0.66056 0.66718 0.0
H270 H 0.05452 0.73745 0.59898 0.0
H271 H 0.94425 0.67025 0.59257 0.0
S272 S 0.97985 0.69361 0.79017 0.0
N273 N 0.04294 0.73144 0.75894 0.0
N274 N 0.92359 0.65928 0.75204 0.0
C275 C 0.95516 0.67818 0.71124 0.0
C276 C 0.01981 0.71694 0.71494 0.0
C277 C 0.34076 0.05189 0.03154 0.0
C278 C 0.35307 0.08539 0.98967 0.0
C279 C 0.3062 0.98779 0.03175 0.0
C280 C 0.28424 0.95489 0.98995 0.0
H281 H 0.35678 0.07528 0.06469 0.0
H282 H 0.29737 0.96384 0.06476 0.0
S283 S 0.30574 0.02006 0.87075 0.0
N284 N 0.3412 0.08054 0.90525 0.0
N285 N 0.27799 0.95972 0.90546 0.0
C286 C 0.29737 0.98749 0.9477 0.0
C287 C 0.33136 0.05287 0.94759 0.0
C288 C -0.00203 0.34026 0.11814 0.0
C289 C 0.94002 0.33148 0.12951 0.0
C290 C 0.04446 0.3602 0.15171 0.0
C291 C 0.03505 0.37228 0.19809 0.0
H292 H 0.00724 0.33026 0.08329 0.0
H293 H 0.08775 0.3649 0.14125 0.0
S294 S 0.89337 0.36227 0.24487 0.0
N295 N 0.87715 0.34061 0.18984 0.0
N296 N 0.9644 0.37793 0.25278 0.0
C297 C 0.978 0.36583 0.20956 0.0
C298 C 0.9306 0.3455 0.17534 0.0
C299 C 0.70581 0.04852 0.48111 0.0
C300 C 0.68631 0.04006 0.52796 0.0
C301 C 0.67574 0.00206 0.44776 0.0
C302 C 0.62476 0.9451 0.45977 0.0
H303 H 0.74573 0.09084 0.47018 0.0
H304 H 0.69376 0.01047 0.41253 0.0
S305 S 0.55094 0.90203 0.57658 0.0
N306 N 0.60962 0.97197 0.58382 0.0
N307 N 0.55305 0.88479 0.52125 0.0
C308 C 0.60309 0.93695 0.50607 0.0
C309 C 0.63384 0.98431 0.54009 0.0
C310 C 0.62771 0.68066 0.81467 0.0
C311 C 0.61641 0.66221 0.86173 0.0
C312 C 0.64554 0.65085 0.78235 0.0
C313 C 0.6527 0.60118 0.79567 0.0
H314 H 0.62439 0.71959 0.80278 0.0
H315 H 0.65538 0.66812 0.74692 0.0
S316 S 0.62049 0.52939 0.91325 0.0
N317 N 0.60807 0.58731 0.91904 0.0
N318 N 0.64132 0.53113 0.85837 0.0
C319 C 0.63875 0.58036 0.84214 0.0
C320 C 0.62074 0.61089 0.87512 0.0
C321 C 0.0006 0.65717 0.12287 0.0
C322 C 0.06137 0.68943 0.13903 0.0
C323 C 0.95124 0.62835 0.15386 0.0
C324 C 0.96025 0.63038 0.2025 0.0
H325 H 0.99075 0.6545 0.08586 0.0
H326 H 0.9055 0.60477 0.13934 0.0
S327 S 0.11041 0.70697 0.26314 0.0
N328 N 0.12786 0.72027 0.2072 0.0
N329 N 0.03505 0.66611 0.26538 0.0
C330 C 0.02081 0.66151 0.21924 0.0
C331 C 0.07127 0.69098 0.18759 0.0
C332 C 0.33493 0.99556 0.45061 0.0
C333 C 0.36293 0.05869 0.46022 0.0
C334 C 0.31285 0.95209 0.48658 0.0
C335 C 0.31768 0.96976 0.53377 0.0
H336 H 0.32866 0.97923 0.41491 0.0
H337 H 0.29063 0.90407 0.47703 0.0
S338 S 0.39198 0.12965 0.57818 0.0
N339 N 0.39787 0.13697 0.52086 0.0
N340 N 0.35618 0.0552 0.58834 0.0
C341 C 0.34749 0.03284 0.54406 0.0
C342 C 0.37016 0.07725 0.50737 0.0
C343 C 0.33037 0.36057 0.86924 0.0
C344 C 0.39171 0.37481 0.86786 0.0
C345 C 0.30459 0.37636 0.83251 0.0
C346 C 0.3387 0.40647 0.79245 0.0
H347 H 0.30152 0.33636 0.89878 0.0
H348 H 0.2569 0.36348 0.83526 0.0
S349 S 0.50241 0.45786 0.77232 0.0
N350 N 0.48708 0.4239 0.82381 0.0
N351 N 0.43801 0.4528 0.75439 0.0
C352 C 0.40049 0.4223 0.79082 0.0
C353 C 0.42715 0.4068 0.82863 0.0
C354 C 0.24913 0.50661 0.46113 0.0
C355 C 0.18961 0.4574 0.45292 0.0
C356 C 0.28582 0.50415 0.49664 0.0
C357 C 0.26458 0.45255 0.52585 0.0
H358 H 0.26829 0.54729 0.43948 0.0
H359 H 0.33087 0.54379 0.50173 0.0
S360 S 0.11277 0.31008 0.51751 0.0
N361 N 0.11168 0.3546 0.47582 0.0
N362 N 0.18037 0.34971 0.5427 0.0
C363 C 0.20552 0.40231 0.51733 0.0
C364 C 0.1681 0.40491 0.48105 0.0
C365 C 0.81422 0.18872 0.85229 0.0
C366 C 0.79801 0.2315 0.8679 0.0
C367 C 0.78617 0.15179 0.81304 0.0
C368 C 0.73997 0.15532 0.78829 0.0
H369 H 0.84905 0.18382 0.87045 0.0
H370 H 0.80134 0.12065 0.80172 0.0
S371 S 0.67892 0.25835 0.81603 0.0
N372 N 0.73177 0.27436 0.85601 0.0
N373 N 0.67838 0.20443 0.7831 0.0
C374 C 0.72242 0.19707 0.80415 0.0
C375 C 0.75174 0.23542 0.84358 0.0
C376 C 0.59983 0.7984 0.18522 0.0
C377 C 0.55026 0.80558 0.1989 0.0
C378 C 0.59615 0.76361 0.14588 0.0
C379 C 0.54289 0.7347 0.11845 0.0
H380 H 0.64134 0.81815 0.20582 0.0
H381 H 0.63536 0.75916 0.13699 0.0
S382 S 0.40358 0.74674 0.13495 0.0
N383 N 0.44844 0.78574 0.17902 0.0
N384 N 0.44165 0.72089 0.10496 0.0
C385 C 0.49387 0.74358 0.13053 0.0
C386 C 0.49767 0.77909 0.17059 0.0
C387 C 0.80577 0.58886 0.47634 0.0
C388 C 0.80199 0.5353 0.45784 0.0
C389 C 0.77219 0.58678 0.51601 0.0
C390 C 0.73279 0.53099 0.53853 0.0
H391 H 0.83454 0.63286 0.45985 0.0
H392 H 0.77735 0.62937 0.52922 0.0
S393 S 0.70703 0.37745 0.50485 0.0
N394 N 0.75623 0.42469 0.46593 0.0
N395 N 0.69286 0.42077 0.53983 0.0
C396 C 0.72855 0.47702 0.52045 0.0
C397 C 0.76333 0.47922 0.48045 0.0
C398 C 0.23484 0.76771 0.8534 0.0
C399 C 0.185 0.76853 0.87447 0.0
C400 C 0.26643 0.8063 0.81595 0.0
C401 C 0.24911 0.84688 0.79732 0.0
H402 H 0.25097 0.73819 0.86663 0.0
H403 H 0.30409 0.80318 0.801 0.0
S404 S 0.12096 0.86627 0.8391 0.0
N405 N 0.11943 0.81325 0.87371 0.0
N406 N 0.17826 0.88518 0.80258 0.0
C407 C 0.19896 0.84788 0.81768 0.0
C408 C 0.167 0.80882 0.85626 0.0
C409 C 0.33538 0.13415 0.15371 0.0
C410 C 0.36155 0.16033 0.19683 0.0
C411 C 0.33428 0.17075 0.11729 0.0
C412 C 0.3614 0.23493 0.12251 0.0
H413 H 0.31791 0.08578 0.14753 0.0
H414 H 0.31597 0.1491 0.0839 0.0
S415 S 0.42579 0.3227 0.23196 0.0
N416 N 0.40632 0.25158 0.2455 0.0
N417 N 0.40731 0.321 0.17643 0.0
C418 C 0.38339 0.26044 0.16679 0.0
C419 C 0.38296 0.22295 0.20408 0.0
loop_
_geom_bond_atom_site_label_1
_geom_bond_atom_site_label_2
_geom_bond_distance
_geom_bond_site_symmetry_2
_ccdc_geom_bond_type
C0 O1 1.160 . S
C0 O7 1.185 . S
O1 C0 1.160 . S
O2 Zn3 1.899 . S
O2 C10 1.284 . S
Zn3 O2 1.899 . S
Zn3 O4 2.032 . S
Zn3 O7 2.086 . S
Zn3 O12 1.977 . S
O4 Zn3 2.032 . S
O4 C8 1.278 . S
C5 O6 1.203 . S
C5 O12 1.267 . S
O6 C5 1.203 . S
O7 C0 1.185 . S
O7 Zn3 2.086 . S
C8 O4 1.278 . S
C8 O9 1.211 . S
O9 C8 1.211 . S
C10 O2 1.284 . S
C10 O11 1.273 . S
O11 C10 1.273 . S
O12 Zn3 1.977 . S
O12 C5 1.267 . S
C13 O14 1.160 . S
C13 O20 1.185 . S
O14 C13 1.160 . S
O15 Zn16 1.899 . S
O15 C23 1.284 . S
Zn16 O15 1.899 . S
Zn16 O17 2.032 . S
Zn16 O20 2.086 . S
Zn16 O25 1.977 . S
O17 Zn16 2.032 . S
O17 C21 1.278 . S
C18 O19 1.203 . S
C18 O25 1.267 . S
O19 C18 1.203 . S
O20 C13 1.185 . S
O20 Zn16 2.086 . S
C21 O17 1.278 . S
C21 O22 1.211 . S
O22 C21 1.211 . S
C23 O15 1.284 . S
C23 O24 1.273 . S
O24 C23 1.273 . S
O25 Zn16 1.977 . S
O25 C18 1.267 . S
C26 O27 1.160 . S
C26 O33 1.185 . S
O27 C26 1.160 . S
O28 Zn29 1.899 . S
O28 C36 1.284 . S
Zn29 O28 1.899 . S
Zn29 O30 2.032 . S
Zn29 O33 2.086 . S
Zn29 O38 1.977 1_556 S
O30 Zn29 2.032 . S
O30 C34 1.278 . S
C31 O32 1.203 . S
C31 O38 1.267 . S
O32 C31 1.203 . S
O33 C26 1.185 . S
O33 Zn29 2.086 . S
C34 O30 1.278 . S
C34 O35 1.211 1_556 S
O35 C34 1.211 1_554 S
C36 O28 1.284 . S
C36 O37 1.273 . S
O37 C36 1.273 . S
O38 Zn29 1.977 1_554 S
O38 C31 1.267 . S
C39 O40 1.160 . S
C39 O46 1.185 . S
O40 C39 1.160 . S
O41 Zn42 1.899 . S
O41 C49 1.284 . S
Zn42 O41 1.899 . S
Zn42 O43 2.032 . S
Zn42 O46 2.086 . S
Zn42 O51 1.977 . S
O43 Zn42 2.032 . S
O43 C47 1.278 . S
C44 O45 1.203 . S
C44 O51 1.267 . S
O45 C44 1.203 . S
O46 C39 1.185 . S
O46 Zn42 2.086 . S
C47 O43 1.278 . S
C47 O48 1.211 . S
O48 C47 1.211 . S
C49 O41 1.284 . S
C49 O50 1.273 . S
O50 C49 1.273 . S
O51 Zn42 1.977 . S
O51 C44 1.267 . S
C52 O53 1.160 . S
C52 O59 1.185 . S
O53 C52 1.160 . S
O54 Zn55 1.899 . S
O54 C62 1.284 . S
Zn55 O54 1.899 . S
Zn55 O56 2.032 . S
Zn55 O59 2.086 . S
Zn55 O64 1.977 . S
O56 Zn55 2.032 . S
O56 C60 1.278 . S
C57 O58 1.203 . S
C57 O64 1.267 . S
O58 C57 1.203 . S
O59 C52 1.185 . S
O59 Zn55 2.086 . S
C60 O56 1.278 . S
C60 O61 1.211 . S
O61 C60 1.211 . S
C62 O54 1.284 . S
C62 O63 1.273 . S
O63 C62 1.273 . S
O64 Zn55 1.977 . S
O64 C57 1.267 . S
C65 O66 1.160 . S
C65 O72 1.185 . S
O66 C65 1.160 . S
O67 Zn68 1.899 . S
O67 C75 1.284 . S
Zn68 O67 1.899 . S
Zn68 O69 2.032 . S
Zn68 O72 2.086 . S
Zn68 O77 1.977 1_556 S
O69 Zn68 2.032 . S
O69 C73 1.278 . S
C70 O71 1.203 . S
C70 O77 1.267 . S
O71 C70 1.203 . S
O72 C65 1.185 . S
O72 Zn68 2.086 . S
C73 O69 1.278 . S
C73 O74 1.211 1_556 S
O74 C73 1.211 1_554 S
C75 O67 1.284 . S
C75 O76 1.273 . S
O76 C75 1.273 . S
O77 Zn68 1.977 1_554 S
O77 C70 1.267 . S
C78 O79 1.160 . S
C78 O85 1.185 . S
O79 C78 1.160 . S
O80 Zn81 1.899 . S
O80 C88 1.284 . S
Zn81 O80 1.899 . S
Zn81 O82 2.032 . S
Zn81 O85 2.086 . S
Zn81 O90 1.977 . S
O82 Zn81 2.032 . S
O82 C86 1.278 . S
C83 O84 1.203 . S
C83 O90 1.267 . S
O84 C83 1.203 . S
O85 C78 1.185 . S
O85 Zn81 2.086 . S
C86 O82 1.278 . S
C86 O87 1.211 . S
O87 C86 1.211 . S
C88 O80 1.284 . S
C88 O89 1.273 . S
O89 C88 1.273 . S
O90 Zn81 1.977 . S
O90 C83 1.267 . S
C91 O92 1.160 . S
C91 O98 1.185 . S
O92 C91 1.160 . S
O93 Zn94 1.899 . S
O93 C101 1.284 . S
Zn94 O93 1.899 . S
Zn94 O95 2.032 . S
Zn94 O98 2.086 . S
Zn94 O103 1.977 . S
O95 Zn94 2.032 . S
O95 C99 1.278 . S
C96 O97 1.203 . S
C96 O103 1.267 . S
O97 C96 1.203 . S
O98 C91 1.185 . S
O98 Zn94 2.086 . S
C99 O95 1.278 . S
C99 O100 1.211 . S
O100 C99 1.211 . S
C101 O93 1.284 . S
C101 O102 1.273 . S
O102 C101 1.273 . S
O103 Zn94 1.977 . S
O103 C96 1.267 . S
C104 O105 1.160 . S
C104 O111 1.185 . S
O105 C104 1.160 . S
O106 Zn107 1.899 . S
O106 C114 1.284 . S
Zn107 O106 1.899 . S
Zn107 O108 2.032 . S
Zn107 O111 2.086 . S
Zn107 O116 1.977 1_554 S
O108 Zn107 2.032 . S
O108 C112 1.278 . S
C109 O110 1.203 . S
C109 O116 1.267 . S
O110 C109 1.203 . S
O111 C104 1.185 . S
O111 Zn107 2.086 . S
C112 O108 1.278 . S
C112 O113 1.211 1_554 S
O113 C112 1.211 1_556 S
C114 O106 1.284 . S
C114 O115 1.273 . S
O115 C114 1.273 . S
O116 Zn107 1.977 1_556 S
O116 C109 1.267 . S
C117 O118 1.160 . S
C117 O124 1.185 . S
O118 C117 1.160 . S
O119 Zn120 1.899 . S
O119 C127 1.284 . S
Zn120 O119 1.899 . S
Zn120 O121 2.032 . S
Zn120 O124 2.086 . S
Zn120 O129 1.977 . S
O121 Zn120 2.032 . S
O121 C125 1.278 . S
C122 O123 1.203 . S
C122 O129 1.267 . S
O123 C122 1.203 . S
O124 C117 1.185 . S
O124 Zn120 2.086 . S
C125 O121 1.278 . S
C125 O126 1.211 . S
O126 C125 1.211 . S
C127 O119 1.284 . S
C127 O128 1.273 . S
O128 C127 1.273 . S
O129 Zn120 1.977 . S
O129 C122 1.267 . S
C130 O131 1.160 . S
C130 O137 1.185 . S
O131 C130 1.160 . S
O132 Zn133 1.899 . S
O132 C140 1.284 . S
Zn133 O132 1.899 . S
Zn133 O134 2.032 . S
Zn133 O137 2.086 . S
Zn133 O142 1.977 . S
O134 Zn133 2.032 . S
O134 C138 1.278 . S
C135 O136 1.203 . S
C135 O142 1.267 . S
O136 C135 1.203 . S
O137 C130 1.185 . S
O137 Zn133 2.086 . S
C138 O134 1.278 . S
C138 O139 1.211 . S
O139 C138 1.211 . S
C140 O132 1.284 . S
C140 O141 1.273 . S
O141 C140 1.273 . S
O142 Zn133 1.977 . S
O142 C135 1.267 . S
C143 O144 1.160 . S
C143 O150 1.185 . S
O144 C143 1.160 . S
O145 Zn146 1.899 . S
O145 C153 1.284 . S
Zn146 O145 1.899 . S
Zn146 O147 2.032 . S
Zn146 O150 2.086 . S
Zn146 O155 1.977 1_554 S
O147 Zn146 2.032 . S
O147 C151 1.278 . S
C148 O149 1.203 . S
C148 O155 1.267 . S
O149 C148 1.203 . S
O150 C143 1.185 . S
O150 Zn146 2.086 . S
C151 O147 1.278 . S
C151 O152 1.211 1_554 S
O152 C151 1.211 1_556 S
C153 O145 1.284 . S
C153 O154 1.273 . S
O154 C153 1.273 . S
O155 Zn146 1.977 1_556 S
O155 C148 1.267 . S
C156 C157 1.369 . S
C156 C158 1.419 . S
C156 H160 0.930 . S
C157 C156 1.369 . S
C157 C166 1.429 . S
C158 C156 1.419 . S
C158 C159 1.363 . S
C158 H161 0.929 . S
C159 C158 1.363 . S
C159 C165 1.428 . S
H160 C156 0.930 . S
H161 C158 0.929 . S
S162 N163 1.613 . S
S162 N164 1.610 . S
N163 S162 1.613 . S
N163 C166 1.350 . S
N164 S162 1.610 . S
N164 C165 1.351 . S
C165 C159 1.428 . S
C165 N164 1.351 . S
C165 C166 1.434 . S
C166 C157 1.429 . S
C166 N163 1.350 . S
C166 C165 1.434 . S
C167 C168 1.369 . S
C167 C169 1.419 . S
C167 H171 0.930 . S
C168 C167 1.369 . S
C168 C177 1.429 . S
C169 C167 1.419 . S
C169 C170 1.363 . S
C169 H172 0.929 . S
C170 C169 1.363 . S
C170 C176 1.428 . S
H171 C167 0.930 . S
H172 C169 0.929 . S
S173 N174 1.613 . S
S173 N175 1.610 . S
N174 S173 1.613 . S
N174 C177 1.350 . S
N175 S173 1.610 . S
N175 C176 1.351 . S
C176 C170 1.428 . S
C176 N175 1.351 . S
C176 C177 1.434 . S
C177 C168 1.429 . S
C177 N174 1.350 . S
C177 C176 1.434 . S
C178 C179 1.369 . S
C178 C180 1.419 . S
C178 H182 0.930 . S
C179 C178 1.369 . S
C179 C188 1.429 1_556 S
C180 C178 1.419 . S
C180 C181 1.363 1_556 S
C180 H183 0.929 . S
C181 C180 1.363 1_554 S
C181 C187 1.428 . S
H182 C178 0.930 . S
H183 C180 0.929 . S
S184 N185 1.613 . S
S184 N186 1.610 . S
N185 S184 1.613 . S
N185 C188 1.350 . S
N186 S184 1.610 . S
N186 C187 1.351 . S
C187 C181 1.428 . S
C187 N186 1.351 . S
C187 C188 1.434 . S
C188 C179 1.429 1_554 S
C188 N185 1.350 . S
C188 C187 1.434 . S
C189 C190 1.369 . S
C189 C191 1.419 . S
C189 H193 0.930 . S
C190 C189 1.369 . S
C190 C199 1.429 . S
C191 C189 1.419 . S
C191 C192 1.363 . S
C191 H194 0.929 . S
C192 C191 1.363 . S
C192 C198 1.428 . S
H193 C189 0.930 . S
H194 C191 0.929 . S
S195 N196 1.613 . S
S195 N197 1.610 . S
N196 S195 1.613 . S
N196 C199 1.350 . S
N197 S195 1.610 . S
N197 C198 1.351 . S
C198 C192 1.428 . S
C198 N197 1.351 . S
C198 C199 1.434 . S
C199 C190 1.429 . S
C199 N196 1.350 . S
C199 C198 1.434 . S
C200 C201 1.369 . S
C200 C202 1.419 . S
C200 H204 0.930 . S
C201 C200 1.369 . S
C201 C210 1.429 . S
C202 C200 1.419 . S
C202 C203 1.363 . S
C202 H205 0.929 . S
C203 C202 1.363 . S
C203 C209 1.428 . S
H204 C200 0.930 . S
H205 C202 0.929 . S
S206 N207 1.613 . S
S206 N208 1.610 . S
N207 S206 1.613 . S
N207 C210 1.350 . S
N208 S206 1.610 . S
N208 C209 1.351 . S
C209 C203 1.428 . S
C209 N208 1.351 . S
C209 C210 1.434 . S
C210 C201 1.429 . S
C210 N207 1.350 . S
C210 C209 1.434 . S
C211 C212 1.369 . S
C211 C213 1.419 . S
C211 H215 0.930 . S
C212 C211 1.369 . S
C212 C221 1.429 1_554 S
C213 C211 1.419 . S
C213 C214 1.363 1_554 S
C213 H216 0.929 . S
C214 C213 1.363 1_556 S
C214 C220 1.428 . S
H215 C211 0.930 . S
H216 C213 0.929 . S
S217 N218 1.613 . S
S217 N219 1.610 . S
N218 S217 1.613 . S
N218 C221 1.350 . S
N219 S217 1.610 . S
N219 C220 1.351 . S
C220 C214 1.428 . S
C220 N219 1.351 . S
C220 C221 1.434 . S
C221 C212 1.429 1_556 S
C221 N218 1.350 . S
C221 C220 1.434 . S
C222 C223 1.369 . S
C222 C224 1.419 . S
C222 H226 0.930 . S
C223 C222 1.369 . S
C223 C232 1.429 . S
C224 C222 1.419 . S
C224 C225 1.363 . S
C224 H227 0.929 . S
C225 C224 1.363 . S
C225 C231 1.428 . S
H226 C222 0.930 . S
H227 C224 0.929 . S
S228 N229 1.613 . S
S228 N230 1.610 . S
N229 S228 1.613 . S
N229 C232 1.350 . S
N230 S228 1.610 . S
N230 C231 1.351 . S
C231 C225 1.428 . S
C231 N230 1.351 . S
C231 C232 1.434 . S
C232 C223 1.429 . S
C232 N229 1.350 . S
C232 C231 1.434 . S
C233 C234 1.369 . S
C233 C235 1.419 1_655 S
C233 H237 0.930 . S
C234 C233 1.369 . S
C234 C243 1.429 . S
C235 C233 1.419 1_455 S
C235 C236 1.363 . S
C235 H238 0.929 . S
C236 C235 1.363 . S
C236 C242 1.428 . S
H237 C233 0.930 . S
H238 C235 0.929 . S
S239 N240 1.613 1_455 S
S239 N241 1.610 . S
N240 S239 1.613 1_655 S
N240 C243 1.350 . S
N241 S239 1.610 . S
N241 C242 1.351 . S
C242 C236 1.428 . S
C242 N241 1.351 . S
C242 C243 1.434 1_455 S
C243 C234 1.429 . S
C243 N240 1.350 . S
C243 C242 1.434 1_655 S
C244 C245 1.369 1_556 S
C244 C246 1.419 1_545 S
C244 H248 0.930 . S
C245 C244 1.369 1_554 S
C245 C254 1.429 . S
C246 C244 1.419 1_565 S
C246 C247 1.363 . S
C246 H249 0.929 . S
C247 C246 1.363 . S
C247 C253 1.428 1_556 S
H248 C244 0.930 . S
H249 C246 0.929 . S
S250 N251 1.613 1_565 S
S250 N252 1.610 . S
N251 S250 1.613 1_545 S
N251 C254 1.350 . S
N252 S250 1.610 . S
N252 C253 1.351 . S
C253 C247 1.428 1_554 S
C253 N252 1.351 . S
C253 C254 1.434 1_565 S
C254 C245 1.429 . S
C254 N251 1.350 . S
C254 C253 1.434 1_545 S
C255 C256 1.369 . S
C255 C257 1.419 . S
C255 H259 0.930 . S
C256 C255 1.369 . S
C256 C265 1.429 . S
C257 C255 1.419 . S
C257 C258 1.363 . S
C257 H260 0.929 . S
C258 C257 1.363 . S
C258 C264 1.428 . S
H259 C255 0.930 . S
H260 C257 0.929 . S
S261 N262 1.613 . S
S261 N263 1.610 . S
N262 S261 1.613 . S
N262 C265 1.350 . S
N263 S261 1.610 . S
N263 C264 1.351 . S
C264 C258 1.428 . S
C264 N263 1.351 . S
C264 C265 1.434 . S
C265 C256 1.429 . S
C265 N262 1.350 . S
C265 C264 1.434 . S
C266 C267 1.369 . S
C266 C268 1.419 1_455 S
C266 H270 0.930 . S
C267 C266 1.369 . S
C267 C276 1.429 . S
C268 C266 1.419 1_655 S
C268 C269 1.363 . S
C268 H271 0.929 . S
C269 C268 1.363 . S
C269 C275 1.428 . S
H270 C266 0.930 . S
H271 C268 0.929 . S
S272 N273 1.613 . S
S272 N274 1.610 1_455 S
N273 S272 1.613 . S
N273 C276 1.350 . S
N274 S272 1.610 1_655 S
N274 C275 1.351 . S
C275 C269 1.428 . S
C275 N274 1.351 . S
C275 C276 1.434 1_655 S
C276 C267 1.429 . S
C276 N273 1.350 . S
C276 C275 1.434 1_455 S
C277 C278 1.369 1_554 S
C277 C279 1.419 1_545 S
C277 H281 0.930 . S
C278 C277 1.369 1_556 S
C278 C287 1.429 . S
C279 C277 1.419 1_565 S
C279 C280 1.363 . S
C279 H282 0.929 . S
C280 C279 1.363 . S
C280 C286 1.428 1_554 S
H281 C277 0.930 . S
H282 C279 0.929 . S
S283 N284 1.613 1_565 S
S283 N285 1.610 . S
N284 S283 1.613 1_545 S
N284 C287 1.350 . S
N285 S283 1.610 . S
N285 C286 1.351 . S
C286 C280 1.428 1_556 S
C286 N285 1.351 . S
C286 C287 1.434 1_565 S
C287 C278 1.429 . S
C287 N284 1.350 . S
C287 C286 1.434 1_545 S
C288 C289 1.368 1_455 S
C288 C290 1.425 . S
C288 H292 0.925 . S
C289 C288 1.368 1_655 S
C289 C298 1.429 . S
C290 C288 1.425 . S
C290 C291 1.363 . S
C290 H293 0.929 . S
C291 C290 1.363 . S
C291 C297 1.428 1_455 S
H292 C288 0.925 . S
H293 C290 0.929 . S
S294 N295 1.613 . S
S294 N296 1.610 . S
N295 S294 1.613 . S
N295 C298 1.350 . S
N296 S294 1.610 . S
N296 C297 1.351 . S
C297 C291 1.428 1_655 S
C297 N296 1.351 . S
C297 C298 1.434 . S
C298 C289 1.429 . S
C298 N295 1.350 . S
C298 C297 1.434 . S
C299 C300 1.369 . S
C299 C301 1.419 1_545 S
C299 H303 0.930 . S
C300 C299 1.369 . S
C300 C309 1.429 . S
C301 C299 1.419 1_565 S
C301 C302 1.363 . S
C301 H304 0.929 . S
C302 C301 1.363 . S
C302 C308 1.428 . S
H303 C299 0.930 . S
H304 C301 0.929 . S
S305 N306 1.613 . S
S305 N307 1.610 . S
N306 S305 1.613 . S
N306 C309 1.350 1_565 S
N307 S305 1.610 . S
N307 C308 1.351 . S
C308 C302 1.428 . S
C308 N307 1.351 . S
C308 C309 1.434 1_565 S
C309 C300 1.429 . S
C309 N306 1.350 1_545 S
C309 C308 1.434 1_545 S
C310 C311 1.369 . S
C310 C312 1.419 . S
C310 H314 0.930 . S
C311 C310 1.369 . S
C311 C320 1.429 . S
C312 C310 1.419 . S
C312 C313 1.363 . S
C312 H315 0.929 . S
C313 C312 1.363 . S
C313 C319 1.428 . S
H314 C310 0.930 . S
H315 C312 0.929 . S
S316 N317 1.613 . S
S316 N318 1.610 . S
N317 S316 1.613 . S
N317 C320 1.350 . S
N318 S316 1.610 . S
N318 C319 1.351 . S
C319 C313 1.428 . S
C319 N318 1.351 . S
C319 C320 1.434 . S
C320 C311 1.429 . S
C320 N317 1.350 . S
C320 C319 1.434 . S
C321 C322 1.369 . S
C321 C323 1.419 1_455 S
C321 H325 0.930 . S
C322 C321 1.369 . S
C322 C331 1.429 . S
C323 C321 1.419 1_655 S
C323 C324 1.363 . S
C323 H326 0.929 . S
C324 C323 1.363 . S
C324 C330 1.428 . S
H325 C321 0.930 . S
H326 C323 0.929 . S
S327 N328 1.613 . S
S327 N329 1.610 1_455 S
N328 S327 1.613 . S
N328 C331 1.350 . S
N329 S327 1.610 1_655 S
N329 C330 1.351 . S
C330 C324 1.428 . S
C330 N329 1.351 . S
C330 C331 1.434 1_655 S
C331 C322 1.429 . S
C331 N328 1.350 . S
C331 C330 1.434 1_455 S
C332 C333 1.369 1_565 S
C332 C334 1.419 . S
C332 H336 0.930 . S
C333 C332 1.369 1_545 S
C333 C342 1.429 . S
C334 C332 1.419 . S
C334 C335 1.363 . S
C334 H337 0.929 . S
C335 C334 1.363 . S
C335 C341 1.428 1_565 S
H336 C332 0.930 . S
H337 C334 0.929 . S
S338 N339 1.613 . S
S338 N340 1.610 . S
N339 S338 1.613 . S
N339 C342 1.350 . S
N340 S338 1.610 . S
N340 C341 1.351 . S
C341 C335 1.428 1_545 S
C341 N340 1.351 . S
C341 C342 1.434 . S
C342 C333 1.429 . S
C342 N339 1.350 . S
C342 C341 1.434 . S
C343 C344 1.369 . S
C343 C345 1.419 . S
C343 H347 0.930 . S
C344 C343 1.369 . S
C344 C353 1.429 . S
C345 C343 1.419 . S
C345 C346 1.363 . S
C345 H348 0.929 . S
C346 C345 1.363 . S
C346 C352 1.428 . S
H347 C343 0.930 . S
H348 C345 0.929 . S
S349 N350 1.613 . S
S349 N351 1.610 . S
N350 S349 1.613 . S
N350 C353 1.350 . S
N351 S349 1.610 . S
N351 C352 1.351 . S
C352 C346 1.428 . S
C352 N351 1.351 . S
C352 C353 1.434 . S
C353 C344 1.429 . S
C353 N350 1.350 . S
C353 C352 1.434 . S
C354 C355 1.369 . S
C354 C356 1.419 . S
C354 H358 0.930 . S
C355 C354 1.369 . S
C355 C364 1.429 . S
C356 C354 1.419 . S
C356 C357 1.363 . S
C356 H359 0.929 . S
C357 C356 1.363 . S
C357 C363 1.428 . S
H358 C354 0.930 . S
H359 C356 0.929 . S
S360 N361 1.613 . S
S360 N362 1.610 . S
N361 S360 1.613 . S
N361 C364 1.350 . S
N362 S360 1.610 . S
N362 C363 1.351 . S
C363 C357 1.428 . S
C363 N362 1.351 . S
C363 C364 1.434 . S
C364 C355 1.429 . S
C364 N361 1.350 . S
C364 C363 1.434 . S
C365 C366 1.369 . S
C365 C367 1.419 . S
C365 H369 0.930 . S
C366 C365 1.369 . S
C366 C375 1.429 . S
C367 C365 1.419 . S
C367 C368 1.363 . S
C367 H370 0.929 . S
C368 C367 1.363 . S
C368 C374 1.428 . S
H369 C365 0.930 . S
H370 C367 0.929 . S
S371 N372 1.613 . S
S371 N373 1.610 . S
N372 S371 1.613 . S
N372 C375 1.350 . S
N373 S371 1.610 . S
N373 C374 1.351 . S
C374 C368 1.428 . S
C374 N373 1.351 . S
C374 C375 1.434 . S
C375 C366 1.429 . S
C375 N372 1.350 . S
C375 C374 1.434 . S
C376 C377 1.369 . S
C376 C378 1.419 . S
C376 H380 0.930 . S
C377 C376 1.369 . S
C377 C386 1.429 . S
C378 C376 1.419 . S
C378 C379 1.363 . S
C378 H381 0.929 . S
C379 C378 1.363 . S
C379 C385 1.428 . S
H380 C376 0.930 . S
H381 C378 0.929 . S
S382 N383 1.613 . S
S382 N384 1.610 . S
N383 S382 1.613 . S
N383 C386 1.350 . S
N384 S382 1.610 . S
N384 C385 1.351 . S
C385 C379 1.428 . S
C385 N384 1.351 . S
C385 C386 1.434 . S
C386 C377 1.429 . S
C386 N383 1.350 . S
C386 C385 1.434 . S
C387 C388 1.369 . S
C387 C389 1.419 . S
C387 H391 0.930 . S
C388 C387 1.369 . S
C388 C397 1.429 . S
C389 C387 1.419 . S
C389 C390 1.363 . S
C389 H392 0.929 . S
C390 C389 1.363 . S
C390 C396 1.428 . S
H391 C387 0.930 . S
H392 C389 0.929 . S
S393 N394 1.613 . S
S393 N395 1.610 . S
N394 S393 1.613 . S
N394 C397 1.350 . S
N395 S393 1.610 . S
N395 C396 1.351 . S
C396 C390 1.428 . S
C396 N395 1.351 . S
C396 C397 1.434 . S
C397 C388 1.429 . S
C397 N394 1.350 . S
C397 C396 1.434 . S
C398 C399 1.369 . S
C398 C400 1.419 . S
C398 H402 0.930 . S
C399 C398 1.369 . S
C399 C408 1.429 . S
C400 C398 1.419 . S
C400 C401 1.363 . S
C400 H403 0.929 . S
C401 C400 1.363 . S
C401 C407 1.428 . S
H402 C398 0.930 . S
H403 C400 0.929 . S
S404 N405 1.613 . S
S404 N406 1.610 . S
N405 S404 1.613 . S
N405 C408 1.350 . S
N406 S404 1.610 . S
N406 C407 1.351 . S
C407 C401 1.428 . S
C407 N406 1.351 . S
C407 C408 1.434 . S
C408 C399 1.429 . S
C408 N405 1.350 . S
C408 C407 1.434 . S
C409 C410 1.369 . S
C409 C411 1.419 . S
C409 H413 0.930 . S
C410 C409 1.369 . S
C410 C419 1.429 . S
C411 C409 1.419 . S
C411 C412 1.363 . S
C411 H414 0.929 . S
C412 C411 1.363 . S
C412 C418 1.428 . S
H413 C409 0.930 . S
H414 C411 0.929 . S
S415 N416 1.613 . S
S415 N417 1.610 . S
N416 S415 1.613 . S
N416 C419 1.350 . S
N417 S415 1.610 . S
N417 C418 1.351 . S
C418 C412 1.428 . S
C418 N417 1.351 . S
C418 C419 1.434 . S
C419 C410 1.429 . S
C419 N416 1.350 . S
C419 C418 1.434 . S
C157 C10 1.401 . S
C159 C88 1.406 . S
C168 C23 1.402 . S
C170 C101 1.404 . S
C179 C36 1.391 . S
C181 C114 1.395 . S
C190 C127 1.404 . S
C192 C49 1.405 . S
C201 C62 1.401 . S
C203 C140 1.400 . S
C212 C153 1.393 . S
C214 C75 1.397 . S
C223 C8 0.975 . S
C225 C125 0.988 . S
C234 C21 0.984 . S
C236 C138 0.978 . S
C245 C151 0.986 . S
C247 C34 0.968 . S
C256 C86 0.973 . S
C258 C47 0.988 . S
C267 C60 0.975 . S
C269 C99 0.988 . S
C278 C73 0.986 . S
C280 C112 0.969 . S
C289 C143 1.713 . S
C291 C0 1.715 . S
C300 C13 1.740 . S
C302 C78 1.736 . S
C311 C26 1.718 . S
C313 C91 1.711 . S
C322 C104 1.715 . S
C324 C39 1.714 . S
C333 C117 1.735 . S
C335 C52 1.742 . S
C344 C65 1.712 . S
C346 C130 1.712 . S
C355 C5 0.982 . S
C357 C135 0.988 . S
C366 C148 0.987 . S
C368 C18 1.011 . S
C377 C83 0.987 . S
C379 C31 1.012 . S
C388 C44 0.986 . S
C390 C96 0.973 . S
C399 C109 1.013 . S
C401 C57 0.994 . S
C410 C122 0.987 . S
C412 C70 1.011 . S
