# Generated by pormake.
# Topology qtz-e, (6)-cn, num edge types: 1
# Building blocks:
#     Node 0, Type 0, BuildingBlock: JUFBIX_clean_sbu_0, # of connection points: 6
#     Node 1, Type 0, BuildingBlock: JUFBIX_clean_sbu_0, # of connection points: 6
#     Node 2, Type 0, BuildingBlock: JUFBIX_clean_sbu_0, # of connection points: 6
#     Node 3, Type 0, BuildingBlock: JUFBIX_clean_sbu_0, # of connection points: 6
#     Node 4, Type 0, BuildingBlock: JUFBIX_clean_sbu_0, # of connection points: 6
#     Node 5, Type 0, BuildingBlock: JUFBIX_clean_sbu_0, # of connection points: 6
#     Edge 6, Type (0, 0), BuildingBlock: XUDNAN_clean_linker_2, # of connection points: 2
#     Edge 7, Type (0, 0), BuildingBlock: XUDNAN_clean_linker_2, # of connection points: 2
#     Edge 8, Type (0, 0), BuildingBlock: XUDNAN_clean_linker_2, # of connection points: 2
#     Edge 9, Type (0, 0), BuildingBlock: XUDNAN_clean_linker_2, # of connection points: 2
#     Edge 10, Type (0, 0), BuildingBlock: XUDNAN_clean_linker_2, # of connection points: 2
#     Edge 11, Type (0, 0), BuildingBlock: XUDNAN_clean_linker_2, # of connection points: 2
#     Edge 12, Type (0, 0), BuildingBlock: XUDNAN_clean_linker_2, # of connection points: 2
#     Edge 13, Type (0, 0), BuildingBlock: XUDNAN_clean_linker_2, # of connection points: 2
#     Edge 14, Type (0, 0), BuildingBlock: XUDNAN_clean_linker_2, # of connection points: 2
#     Edge 15, Type (0, 0), BuildingBlock: XUDNAN_clean_linker_2, # of connection points: 2
#     Edge 16, Type (0, 0), BuildingBlock: XUDNAN_clean_linker_2, # of connection points: 2
#     Edge 17, Type (0, 0), BuildingBlock: XUDNAN_clean_linker_2, # of connection points: 2
#     Edge 18, Type (0, 0), BuildingBlock: XUDNAN_clean_linker_2, # of connection points: 2
#     Edge 19, Type (0, 0), BuildingBlock: XUDNAN_clean_linker_2, # of connection points: 2
#     Edge 20, Type (0, 0), BuildingBlock: XUDNAN_clean_linker_2, # of connection points: 2
#     Edge 21, Type (0, 0), BuildingBlock: XUDNAN_clean_linker_2, # of connection points: 2
#     Edge 22, Type (0, 0), BuildingBlock: XUDNAN_clean_linker_2, # of connection points: 2
#     Edge 23, Type (0, 0), BuildingBlock: XUDNAN_clean_linker_2, # of connection points: 2
# Relax obj value: 0.653
# Max RMSD: 0.298
# Mean RMSD: 0.298
data_MOF--net-qtz-e--node1-JUFBIX_clean_sbu_0--edge1-XUDNAN_clean_linker_2
_symmetry_space_group_name_H-M    P1
_symmetry_Int_Tables_number       1
_symmetry_cell_setting            triclinic
loop_
_symmetry_equiv_pos_as_xyz
'x, y, z'
_cell_length_a     26.204284
_cell_length_b     26.198737
_cell_length_c     38.6963
_cell_angle_alpha  89.974874
_cell_angle_beta   89.954765
_cell_angle_gamma 120.19428
loop_
_atom_site_label
_atom_site_type_symbol
_atom_site_fract_x
_atom_site_fract_y
_atom_site_fract_z
_atom_type_partial_charge
Co0 Co 0.23487 0.45136 0.13632 0.0
C1 C 0.29457 0.39169 0.14516 0.0
Co2 Co 0.19962 0.37256 0.1035 0.0
C3 C 0.23499 0.53951 0.17838 0.0
C4 C 0.32326 0.55828 0.16887 0.0
N5 N 0.26622 0.5195 0.1615 0.0
N6 N 0.26992 0.58879 0.19636 0.0
C7 C 0.32562 0.60083 0.19078 0.0
H8 H 0.18719 0.5164 0.17908 0.0
H9 H 0.36039 0.55461 0.15988 0.0
C10 C 0.1454 0.43909 0.09347 0.0
N11 N 0.16746 0.30318 0.07855 0.0
C12 C 0.16004 0.29538 0.0441 0.0
C13 C 0.14705 0.24855 0.0916 0.0
N14 N 0.13612 0.23803 0.03509 0.0
C15 C 0.1277 0.20847 0.06502 0.0
C16 C 0.14174 0.3551 0.16654 0.0
O17 O 0.1815 0.46962 0.11687 0.0
O18 O 0.14415 0.39237 0.08288 0.0
O19 O 0.14529 0.33193 0.13868 0.0
O20 O 0.17925 0.40887 0.17262 0.0
O21 O 0.25755 0.3559 0.12325 0.0
H22 H 0.14724 0.23855 0.1187 0.0
H23 H 0.17421 0.33146 0.02594 0.0
O24 O 0.28912 0.43428 0.15585 0.0
O25 O 0.28935 0.49354 0.09947 0.0
O26 O 0.25263 0.41256 0.06849 0.0
C27 C 0.28927 0.46702 0.07191 0.0
H28 H 0.36477 0.63653 0.20258 0.0
H29 H 0.10993 0.16137 0.06756 0.0
Co30 Co 0.73432 0.19203 0.37153 0.0
C31 C 0.67395 0.07096 0.36879 0.0
Co32 Co 0.77896 0.15338 0.4004 0.0
C33 C 0.72244 0.27718 0.33349 0.0
C34 C 0.63732 0.2026 0.34403 0.0
N35 N 0.69564 0.22443 0.34929 0.0
N36 N 0.68366 0.28942 0.31857 0.0
C37 C 0.62986 0.24245 0.32451 0.0
H38 H 0.76991 0.30508 0.33145 0.0
H39 H 0.60272 0.16002 0.35305 0.0
C40 C 0.83423 0.27546 0.40605 0.0
N41 N 0.81836 0.12137 0.42315 0.0
C42 C 0.79851 0.08247 0.44953 0.0
C43 C 0.87507 0.13554 0.41864 0.0
N44 N 0.84065 0.0722 0.46187 0.0
C45 C 0.88883 0.10518 0.44234 0.0
C46 C 0.81623 0.18376 0.33225 0.0
O47 O 0.79253 0.26776 0.38628 0.0
O48 O 0.83862 0.23106 0.41499 0.0
O49 O 0.82273 0.16097 0.35961 0.0
O50 O 0.77817 0.20004 0.33129 0.0
O51 O 0.71631 0.07542 0.38727 0.0
H52 H 0.90517 0.16751 0.40014 0.0
H53 H 0.75427 0.06295 0.45997 0.0
O54 O 0.6762 0.11735 0.35746 0.0
O55 O 0.6907 0.18438 0.41171 0.0
O56 O 0.73653 0.14719 0.44037 0.0
C57 C 0.69886 0.16387 0.43953 0.0
H58 H 0.58864 0.23697 0.31483 0.0
H59 H 0.9317 0.1093 0.44601 0.0
Co60 Co 0.55854 0.77119 0.78914 0.0
C61 C 0.61849 0.89222 0.7835 0.0
Co62 Co 0.6392 0.80551 0.75762 0.0
C63 C 0.47829 0.698 0.83944 0.0
C64 C 0.4548 0.76152 0.82327 0.0
N65 N 0.49319 0.74249 0.81707 0.0
N66 N 0.43257 0.68827 0.85956 0.0
C67 C 0.41749 0.7283 0.84983 0.0
H68 H 0.50293 0.67523 0.84234 0.0
H69 H 0.45536 0.79839 0.8103 0.0
C70 C 0.57364 0.68292 0.76178 0.0
N71 N 0.70547 0.83355 0.72993 0.0
C72 C 0.71694 0.86612 0.70098 0.0
C73 C 0.75019 0.82234 0.73249 0.0
N74 N 0.76664 0.87523 0.68493 0.0
C75 C 0.78791 0.84796 0.70494 0.0
C76 C 0.65897 0.79337 0.82543 0.0
O77 O 0.54139 0.69434 0.78066 0.0
O78 O 0.62063 0.72519 0.74877 0.0
O79 O 0.68456 0.81045 0.79649 0.0
O80 O 0.60418 0.77495 0.82791 0.0
O81 O 0.65491 0.88461 0.76551 0.0
H82 H 0.75425 0.79584 0.75255 0.0
H83 H 0.68775 0.88069 0.69124 0.0
O84 O 0.57489 0.84789 0.79733 0.0
O85 O 0.51286 0.76652 0.74984 0.0
O86 O 0.59417 0.80051 0.71932 0.0
C87 C 0.53944 0.78223 0.72092 0.0
H88 H 0.38305 0.73387 0.8615 0.0
H89 H 0.82726 0.84559 0.69991 0.0
Co90 Co 0.78415 0.55545 0.05113 0.0
C91 C 0.90573 0.61268 0.04678 0.0
Co92 Co 0.82861 0.63837 0.08072 0.0
C93 C 0.74844 0.48167 -0.00851 0.0
C94 C 0.70825 0.43211 0.0375 0.0
N95 N 0.74843 0.48643 0.02614 0.0
N96 N 0.70841 0.42726 0.98061 0.0
C97 C 0.68327 0.39565 0.00947 0.0
H98 H 0.77306 0.5188 0.97431 0.0
H99 H 0.69455 0.42102 0.06414 0.0
C100 C 0.70494 0.57479 0.08604 0.0
N101 N 0.8627 0.70777 0.10593 0.0
C102 C 0.89902 0.72267 0.13343 0.0
C103 C 0.84831 0.75034 0.10386 0.0
N104 N 0.90694 0.77227 0.14915 0.0
C105 C 0.87535 0.78993 0.13026 0.0
C106 C 0.80117 0.65285 0.01417 0.0
O107 O 0.71058 0.53995 0.06596 0.0
O108 O 0.7508 0.62268 0.09517 0.0
O109 O 0.82688 0.68027 0.04148 0.0
O110 O 0.77857 0.59729 0.01292 0.0
O111 O 0.90486 0.65055 0.06717 0.0
H112 H 0.81721 0.75064 0.08561 0.0
H113 H 0.91706 0.69598 0.14251 0.0
O114 O 0.85752 0.5698 0.03606 0.0
O115 O 0.78914 0.51431 0.09032 0.0
O116 O 0.83047 0.59737 0.11934 0.0
C117 C 0.81059 0.54232 0.11831 0.0
H118 H 0.64647 0.35078 0.01013 0.0
H119 H 0.86879 0.82656 0.13625 0.0
Co120 Co 0.18389 0.74134 0.474 0.0
C121 C 0.06183 0.68137 0.47591 0.0
Co122 Co 0.14486 0.78725 0.44684 0.0
C123 C 0.26598 0.72429 0.51247 0.0
C124 C 0.19055 0.64121 0.4994 0.0
N125 N 0.21408 0.70017 0.49583 0.0
N126 N 0.27592 0.6831 0.52625 0.0
C127 C 0.22846 0.63057 0.51866 0.0
H128 H 0.29524 0.77139 0.5155 0.0
H129 H 0.14831 0.6082 0.48909 0.0
C130 C 0.26822 0.84275 0.44216 0.0
N131 N 0.11484 0.82837 0.42408 0.0
C132 C 0.07655 0.8088 0.39747 0.0
C133 C 0.13441 0.88667 0.42598 0.0
N134 N 0.07273 0.85282 0.38172 0.0
C135 C 0.1087 0.90185 0.4 0.0
C136 C 0.17194 0.81974 0.51571 0.0
O137 O 0.26064 0.80069 0.46163 0.0
O138 O 0.22362 0.84678 0.43321 0.0
O139 O 0.15139 0.8292 0.48828 0.0
O140 O 0.18841 0.78169 0.51562 0.0
O141 O 0.06624 0.72513 0.45894 0.0
H142 H 0.1683 0.91688 0.44353 0.0
H143 H 0.05447 0.76345 0.38881 0.0
O144 O 0.1082 0.68214 0.48578 0.0
O145 O 0.17955 0.70126 0.43228 0.0
O146 O 0.1392 0.74644 0.40625 0.0
C147 C 0.15777 0.71034 0.40528 0.0
H148 H 0.22171 0.588 0.52667 0.0
H149 H 0.1193 0.94635 0.39372 0.0
Co150 Co 0.42661 0.22287 0.71189 0.0
C151 C 0.356 0.26751 0.72621 0.0
Co152 Co 0.37034 0.1778 0.75626 0.0
C153 C 0.49462 0.23139 0.65415 0.0
C154 C 0.50219 0.31523 0.66415 0.0
N155 N 0.47474 0.25847 0.67493 0.0
N156 N 0.53433 0.2688 0.63142 0.0
C157 C 0.53906 0.32168 0.63693 0.0
H158 H 0.48135 0.18511 0.65613 0.0
H159 H 0.49728 0.34987 0.67607 0.0
C160 C 0.44939 0.14032 0.74259 0.0
N161 N 0.32285 0.14264 0.79433 0.0
C162 C 0.27246 0.14169 0.80281 0.0
C163 C 0.33629 0.12094 0.82223 0.0
N164 N 0.25464 0.12186 0.83532 0.0
C165 C 0.2946 0.10814 0.84739 0.0
C166 C 0.32243 0.12053 0.69497 0.0
O167 O 0.46504 0.18029 0.72003 0.0
O168 O 0.40464 0.12774 0.7613 0.0
O169 O 0.3114 0.1207 0.72693 0.0
O170 O 0.37091 0.16157 0.68282 0.0
O171 O 0.3397 0.2314 0.75145 0.0
H172 H 0.37613 0.11865 0.82517 0.0
H173 H 0.25117 0.1584 0.78609 0.0
O174 O 0.39011 0.26605 0.70372 0.0
O175 O 0.48272 0.28391 0.74119 0.0
O176 O 0.4283 0.23331 0.78527 0.0
C177 C 0.47433 0.27788 0.77361 0.0
H178 H 0.56868 0.36208 0.62334 0.0
H179 H 0.29684 0.09481 0.87355 0.0
H180 H 0.23819 0.67994 0.38549 0.0
H181 H 0.08567 0.68853 0.34988 0.0
H182 H 0.10023 0.66156 0.29095 0.0
H183 H 0.32577 0.74703 0.31183 0.0
H184 H 0.36019 0.70231 0.31164 0.0
H185 H 0.33493 0.71695 0.3517 0.0
H186 H 0.26989 0.60461 0.36363 0.0
H187 H 0.29614 0.58962 0.32408 0.0
H188 H 0.21797 0.55765 0.3313 0.0
H189 H 0.13284 0.63593 0.23614 0.0
H190 H 0.17876 0.60807 0.1894 0.0
H191 H 0.313 0.62281 0.2606 0.0
C192 C 0.20703 0.67464 0.36546 0.0
C193 C 0.16051 0.68549 0.37201 0.0
C194 C 0.1214 0.6799 0.34513 0.0
C195 C 0.12946 0.66493 0.31169 0.0
C196 C 0.17716 0.65658 0.30576 0.0
C197 C 0.21507 0.66089 0.3319 0.0
C198 C 0.26422 0.65209 0.31851 0.0
C199 C 0.32485 0.70792 0.32373 0.0
C200 C 0.26187 0.59775 0.33537 0.0
C201 C 0.24781 0.64172 0.28075 0.0
C202 C 0.19745 0.64444 0.27391 0.0
C203 C 0.17247 0.63397 0.24109 0.0
C204 C 0.19878 0.61848 0.21479 0.0
C205 C 0.24957 0.61425 0.22158 0.0
C206 C 0.27507 0.62732 0.25471 0.0
H207 H 0.55214 0.29414 0.56356 0.0
H208 H 0.58785 0.2079 0.64787 0.0
H209 H 0.63034 0.16696 0.60697 0.0
H210 H 0.50713 0.17761 0.5036 0.0
H211 H 0.54063 0.2244 0.4665 0.0
H212 H 0.51672 0.25074 0.50249 0.0
H213 H 0.62193 0.34187 0.50873 0.0
H214 H 0.64566 0.31656 0.47217 0.0
H215 H 0.68431 0.33091 0.51272 0.0
H216 H 0.66446 0.13247 0.55737 0.0
H217 H 0.69822 0.11417 0.50165 0.0
H218 H 0.63745 0.22082 0.44949 0.0
C219 C 0.57038 0.26788 0.57322 0.0
C220 C 0.56724 0.25393 0.60846 0.0
C221 C 0.59012 0.21854 0.62068 0.0
C222 C 0.614 0.19508 0.59776 0.0
C223 C 0.61433 0.20758 0.56286 0.0
C224 C 0.59389 0.24367 0.5506 0.0
C225 C 0.59835 0.24901 0.51176 0.0
C226 C 0.53705 0.22393 0.49513 0.0
C227 C 0.64006 0.3134 0.5007 0.0
C228 C 0.62464 0.21046 0.50426 0.0
C229 C 0.63323 0.18677 0.53406 0.0
C230 C 0.65815 0.15077 0.53376 0.0
C231 C 0.67692 0.14048 0.50208 0.0
C232 C 0.67042 0.16624 0.47146 0.0
C233 C 0.6425 0.20021 0.4725 0.0
H234 H 0.32439 0.57964 0.05119 0.0
H235 H 0.33279 0.42316 0.02475 0.0
H236 H 0.3747 0.46593 0.96791 0.0
H237 H 0.27331 0.59432 0.97261 0.0
H238 H 0.31425 0.67382 0.97029 0.0
H239 H 0.29595 0.63758 0.0117 0.0
H240 H 0.4063 0.6921 0.02925 0.0
H241 H 0.42494 0.73005 0.98829 0.0
H242 H 0.45958 0.6886 0.00134 0.0
H243 H 0.40074 0.517 0.91211 0.0
H244 H 0.42242 0.58108 0.86114 0.0
H245 H 0.39601 0.70469 0.92221 0.0
C246 C 0.33754 0.55577 0.03392 0.0
C247 C 0.3265 0.49873 0.04229 0.0
C248 C 0.3419 0.46737 0.01876 0.0
C249 C 0.3654 0.49113 0.98644 0.0
C250 C 0.37281 0.54607 0.97812 0.0
C251 C 0.36035 0.5786 0.00123 0.0
C252 C 0.36764 0.63417 0.98446 0.0
C253 C 0.30931 0.63497 0.98479 0.0
C254 C 0.41761 0.68951 0.00187 0.0
C255 C 0.38439 0.62667 0.94815 0.0
C256 C 0.38732 0.57564 0.94526 0.0
C257 C 0.39976 0.55769 0.91414 0.0
C258 C 0.41169 0.5941 0.88538 0.0
C259 C 0.41122 0.64776 0.88797 0.0
C260 C 0.39621 0.66366 0.91958 0.0
H261 H 0.6427 0.28414 0.2542 0.0
H262 H 0.76442 0.40229 0.33123 0.0
H263 H 0.8114 0.48141 0.28742 0.0
H264 H 0.74378 0.32352 0.18876 0.0
H265 H 0.69638 0.31966 0.15389 0.0
H266 H 0.66499 0.27515 0.19197 0.0
H267 H 0.59765 0.32007 0.20166 0.0
H268 H 0.62723 0.36313 0.16285 0.0
H269 H 0.63006 0.39919 0.20304 0.0
H270 H 0.85142 0.5426 0.23474 0.0
H271 H 0.87513 0.588 0.17677 0.0
H272 H 0.72945 0.42812 0.13345 0.0
C273 C 0.67745 0.32756 0.26196 0.0
C274 C 0.69982 0.33804 0.29585 0.0
C275 C 0.74677 0.39438 0.30524 0.0
C276 C 0.77372 0.43915 0.2806 0.0
C277 C 0.75289 0.42644 0.24684 0.0
C278 C 0.70516 0.3725 0.23754 0.0
C279 C 0.69425 0.36899 0.19903 0.0
C280 C 0.70023 0.31886 0.18246 0.0
C281 C 0.63372 0.36249 0.19119 0.0
C282 C 0.74413 0.42881 0.18812 0.0
C283 C 0.77722 0.46128 0.21612 0.0
C284 C 0.82563 0.51789 0.21259 0.0
C285 C 0.83903 0.54302 0.17962 0.0
C286 C 0.80426 0.51121 0.15082 0.0
C287 C 0.75728 0.45291 0.15499 0.0
H288 H 0.42315 0.70463 0.70691 0.0
H289 H 0.58561 0.8445 0.66201 0.0
H290 H 0.53716 0.82679 0.60529 0.0
H291 H 0.38032 0.60711 0.63344 0.0
H292 H 0.30264 0.58155 0.63788 0.0
H293 H 0.34957 0.605 0.67546 0.0
H294 H 0.31698 0.68093 0.69041 0.0
H295 H 0.26903 0.65678 0.65336 0.0
H296 H 0.32382 0.73373 0.65816 0.0
H297 H 0.47191 0.79675 0.55452 0.0
H298 H 0.38963 0.75991 0.51271 0.0
H299 H 0.27057 0.63678 0.58915 0.0
C300 C 0.44807 0.73195 0.6852 0.0
C301 C 0.50781 0.77597 0.68865 0.0
C302 C 0.53964 0.81045 0.65971 0.0
C303 C 0.51271 0.80055 0.62741 0.0
C304 C 0.45424 0.75569 0.62456 0.0
C305 C 0.42205 0.72219 0.65259 0.0
C306 C 0.35952 0.67737 0.64238 0.0
C307 C 0.34732 0.61401 0.6476 0.0
C308 C 0.31471 0.68787 0.66225 0.0
C309 C 0.36137 0.69199 0.60441 0.0
C310 C 0.41669 0.73696 0.59468 0.0
C311 C 0.42856 0.76102 0.56159 0.0
C312 C 0.38194 0.7399 0.5381 0.0
C313 C 0.3247 0.69524 0.5479 0.0
C314 C 0.31457 0.66978 0.58104 0.0
H315 H 0.59365 0.36586 0.9627 0.0
H316 H 0.77118 0.45967 0.92106 0.0
H317 H 0.73035 0.44211 0.86156 0.0
H318 H 0.53075 0.2538 0.90023 0.0
H319 H 0.46097 0.25177 0.89959 0.0
H320 H 0.50543 0.27488 0.93802 0.0
H321 H 0.5036 0.37315 0.93735 0.0
H322 H 0.46 0.35057 0.89842 0.0
H323 H 0.52892 0.41956 0.89948 0.0
H324 H 0.66856 0.40855 0.80665 0.0
H325 H 0.59211 0.35634 0.76177 0.0
H326 H 0.45693 0.28876 0.8413 0.0
C327 C 0.62394 0.382 0.94105 0.0
C328 C 0.68543 0.41316 0.94618 0.0
C329 C 0.72381 0.43524 0.91734 0.0
C330 C 0.70106 0.42589 0.88365 0.0
C331 C 0.63992 0.39536 0.87953 0.0
C332 C 0.60204 0.37384 0.90754 0.0
C333 C 0.53827 0.34097 0.89651 0.0
C334 C 0.50706 0.27655 0.90933 0.0
C335 C 0.50581 0.373 0.90867 0.0
C336 C 0.54607 0.34484 0.85783 0.0
C337 C 0.6048 0.37728 0.84832 0.0
C338 C 0.62239 0.38361 0.81378 0.0
C339 C 0.57879 0.35408 0.78849 0.0
C340 C 0.5189 0.31845 0.79823 0.0
C341 C 0.50248 0.31565 0.83314 0.0
H342 H 0.35712 0.37006 0.09715 0.0
H343 H 0.36654 0.43561 0.20109 0.0
H344 H 0.4753 0.48883 0.19815 0.0
H345 H 0.49938 0.36173 0.10217 0.0
H346 H 0.51566 0.38482 0.05769 0.0
H347 H 0.44007 0.3407 0.07171 0.0
H348 H 0.41983 0.41987 0.04679 0.0
H349 H 0.49571 0.46707 0.03477 0.0
H350 H 0.46009 0.4945 0.06297 0.0
H351 H 0.58155 0.55194 0.17911 0.0
H352 H 0.67884 0.60308 0.14956 0.0
H353 H 0.59887 0.4966 0.0582 0.0
C354 C 0.38201 0.39222 0.12013 0.0
C355 C 0.3534 0.39799 0.14954 0.0
C356 C 0.38766 0.42979 0.17855 0.0
C357 C 0.44951 0.46083 0.17694 0.0
C358 C 0.47642 0.4588 0.14633 0.0
C359 C 0.44386 0.42362 0.11886 0.0
C360 C 0.48297 0.43327 0.08782 0.0
C361 C 0.48463 0.37678 0.07936 0.0
C362 C 0.46348 0.45503 0.05626 0.0
C363 C 0.54178 0.48111 0.1016 0.0
C364 C 0.53739 0.49524 0.1354 0.0
C365 C 0.58573 0.54039 0.15283 0.0
C366 C 0.64055 0.56992 0.13571 0.0
C367 C 0.64626 0.55396 0.10162 0.0
C368 C 0.59584 0.50976 0.08431 0.0
H369 H 0.98756 0.62536 0.42224 0.0
H370 H 0.02053 0.605 0.52958 0.0
H371 H 0.96203 0.49675 0.52353 0.0
H372 H 0.83325 0.48707 0.41707 0.0
H373 H 0.848 0.47286 0.37369 0.0
H374 H 0.88015 0.54775 0.38896 0.0
H375 H 0.98331 0.56497 0.37218 0.0
H376 H 0.95197 0.4895 0.35843 0.0
H377 H 0.00895 0.5189 0.39091 0.0
H378 H 0.92095 0.39326 0.5027 0.0
H379 H 0.8779 0.29797 0.47164 0.0
H380 H 0.86822 0.38391 0.37806 0.0
C381 C 0.97885 0.59811 0.44502 0.0
C382 C 0.0073 0.62342 0.47663 0.0
C383 C -0.00221 0.58635 0.50545 0.0
C384 C 0.96533 0.5248 0.50209 0.0
C385 C 0.94206 0.50103 0.46983 0.0
C386 C 0.94648 0.53634 0.44204 0.0
C387 C 0.92185 0.4997 0.40947 0.0
C388 C 0.86756 0.50197 0.39655 0.0
C389 C 0.96936 0.51947 0.3811 0.0
C390 C 0.90479 0.43888 0.42312 0.0
C391 C 0.91728 0.44072 0.45791 0.0
C392 C 0.90962 0.39094 0.47564 0.0
C393 C 0.8861 0.33724 0.45769 0.0
C394 C 0.86996 0.33373 0.42253 0.0
C395 C 0.88013 0.38542 0.405 0.0
H396 H 0.43525 0.05461 0.78985 0.0
H397 H 0.5488 0.16564 0.70695 0.0
H398 H 0.61456 0.1255 0.71555 0.0
H399 H 0.55397 0.06172 0.84465 0.0
H400 H 0.5108 0.98538 0.85749 0.0
H401 H 0.47469 0.02669 0.84735 0.0
H402 H 0.40984 0.94843 0.80156 0.0
H403 H 0.44494 0.90656 0.81214 0.0
H404 H 0.445 0.92906 0.76811 0.0
H405 H 0.66412 0.06835 0.72934 0.0
H406 H 0.68701 0.99014 0.74361 0.0
H407 H 0.54439 0.91824 0.81871 0.0
C408 C 0.47413 0.07067 0.77371 0.0
C409 C 0.4867 0.11334 0.74779 0.0
C410 C 0.53795 0.13293 0.72702 0.0
C411 C 0.5761 0.11083 0.73187 0.0
C412 C 0.56286 0.06925 0.75775 0.0
C413 C 0.51295 0.04896 0.77818 0.0
C414 C 0.50663 0.00052 0.80222 0.0
C415 C 0.51185 0.01975 0.84018 0.0
C416 C 0.44817 0.94274 0.79559 0.0
C417 C 0.55954 0.9956 0.7912 0.0
C418 C 0.59204 0.03636 0.76595 0.0
C419 C 0.63971 0.03677 0.74954 0.0
C420 C 0.65271 0.99243 0.75797 0.0
C421 C 0.61777 0.94824 0.78236 0.0
C422 C 0.57251 0.95182 0.80026 0.0
H423 H 0.53197 0.58448 0.80177 0.0
H424 H 0.55171 0.64459 0.69567 0.0
H425 H 0.47925 0.54302 0.67702 0.0
H426 H 0.51949 0.44062 0.7807 0.0
H427 H 0.46868 0.40472 0.81592 0.0
H428 H 0.5233 0.48175 0.81892 0.0
H429 H 0.43819 0.50234 0.83184 0.0
H430 H 0.38326 0.42575 0.82604 0.0
H431 H 0.38005 0.48171 0.80058 0.0
H432 H 0.40016 0.43728 0.67068 0.0
H433 H 0.34416 0.32859 0.6734 0.0
H434 H 0.37849 0.3357 0.7833 0.0
C435 C 0.52252 0.57557 0.77447 0.0
C436 C 0.54803 0.62173 0.74994 0.0
C437 C 0.53382 0.60925 0.71458 0.0
C438 C 0.49177 0.55207 0.70394 0.0
C439 C 0.46515 0.50802 0.729 0.0
C440 C 0.48171 0.5185 0.76332 0.0
C441 C 0.44908 0.46257 0.78467 0.0
C442 C 0.49275 0.44646 0.80097 0.0
C443 C 0.41034 0.46849 0.81241 0.0
C444 C 0.41162 0.41882 0.75692 0.0
C445 C 0.4204 0.44647 0.72521 0.0
C446 C 0.39297 0.41511 0.69532 0.0
C447 C 0.36018 0.35337 0.69722 0.0
C448 C 0.35651 0.32379 0.72858 0.0
C449 C 0.37892 0.35706 0.75923 0.0
H450 H 0.11431 0.51194 0.12455 0.0
H451 H 0.09599 0.41927 0.02834 0.0
H452 H 0.04668 0.46986 0.00214 0.0
H453 H 0.97495 0.50296 0.12205 0.0
H454 H 0.00191 0.57454 0.14144 0.0
H455 H 0.03749 0.53271 0.15083 0.0
H456 H 0.13725 0.62145 0.13066 0.0
H457 H 0.10138 0.66288 0.12032 0.0
H458 H 0.14348 0.65089 0.08776 0.0
H459 H -0.00299 0.52861 0.98766 0.0
H460 H 0.93589 0.57583 0.98884 0.0
H461 H 0.98917 0.63107 0.09454 0.0
C462 C 0.09993 0.50213 0.09791 0.0
C463 C 0.10901 0.46181 0.07834 0.0
C464 C 0.08897 0.44967 0.04379 0.0
C465 C 0.06179 0.47884 0.02864 0.0
C466 C 0.05525 0.51982 0.04848 0.0
C467 C 0.07291 0.53057 0.08257 0.0
C468 C 0.05734 0.57322 0.09928 0.0
C469 C 0.01542 0.5441 0.1302 0.0
C470 C 0.11321 0.63051 0.11014 0.0
C471 C 0.02669 0.58403 0.06947 0.0
C472 C 0.027 0.55377 0.04018 0.0
C473 C -0.0028 0.55304 0.01025 0.0
C474 C 0.96314 0.58056 0.01103 0.0
C475 C 0.95887 0.60803 0.04157 0.0
C476 C 0.99348 0.61239 0.07049 0.0
H477 H 0.37745 0.87674 0.46921 0.0
H478 H 0.28963 0.88722 0.37677 0.0
H479 H 0.38429 0.93111 0.34498 0.0
H480 H 0.51103 0.01821 0.45577 0.0
H481 H 0.5582 0.99341 0.47383 0.0
H482 H 0.48289 0.96097 0.48819 0.0
H483 H 0.46659 0.85755 0.47251 0.0
H484 H 0.54135 0.89014 0.45687 0.0
H485 H 0.48053 0.84324 0.42897 0.0
H486 H 0.48743 0.97271 0.32314 0.0
H487 H 0.59554 0.03067 0.31602 0.0
H488 H 0.61818 0.99679 0.42288 0.0
C489 C 0.37844 0.88902 0.44237 0.0
C490 C 0.32634 0.87885 0.42541 0.0
C491 C 0.32919 0.89543 0.39034 0.0
C492 C 0.38255 0.91947 0.37196 0.0
C493 C 0.43277 0.92728 0.38914 0.0
C494 C 0.43162 0.91425 0.42382 0.0
C495 C 0.49289 0.93166 0.43683 0.0
C496 C 0.5124 0.97887 0.46532 0.0
C497 C 0.49546 0.8774 0.44954 0.0
C498 C 0.52879 0.95677 0.40402 0.0
C499 C 0.49288 0.95253 0.37667 0.0
C500 C 0.51594 0.9759 0.34426 0.0
C501 C 0.57743 0.00805 0.34029 0.0
C502 C 0.61521 0.01713 0.36865 0.0
C503 C 0.59048 0.9886 0.40041 0.0
H504 H 0.20578 0.06744 0.8961 0.0
H505 H 0.20981 0.19428 0.82232 0.0
H506 H 0.15734 0.22232 0.8636 0.0
H507 H 0.06276 0.03312 0.94218 0.0
H508 H 0.09388 0.03065 0.98325 0.0
H509 H 0.11457 0.00705 0.94457 0.0
H510 H 0.22482 0.08104 0.95743 0.0
H511 H 0.20459 0.10504 -0.00422 0.0
H512 H 0.24861 0.15816 0.96308 0.0
H513 H 0.12713 0.2538 0.91639 0.0
H514 H 0.12027 0.28402 0.97579 0.0
H515 H 0.14083 0.14094 0.01613 0.0
C516 C 0.19412 0.09984 0.88818 0.0
C517 C 0.21246 0.12862 0.85589 0.0
C518 C 0.19595 0.17073 0.84658 0.0
C519 C 0.16598 0.18714 0.86999 0.0
C520 C 0.15221 0.16073 0.90249 0.0
C521 C 0.16506 0.11731 0.91144 0.0
C522 C 0.15488 0.10288 0.94957 0.0
C523 C 0.10344 0.03967 0.95521 0.0
C524 C 0.21159 0.11241 0.96749 0.0
C525 C 0.1385 0.14794 0.96108 0.0
C526 C 0.13547 0.17972 0.93344 0.0
C527 C 0.12792 0.22827 0.93816 0.0
C528 C 0.12474 0.24554 0.972 0.0
C529 C 0.12997 0.21485 0.00066 0.0
C530 C 0.1351 0.1644 -0.00511 0.0
H531 H 0.93575 0.24484 0.33487 0.0
H532 H 0.78757 0.1569 0.2647 0.0
H533 H 0.85668 0.18729 0.21512 0.0
H534 H 0.01671 0.37056 0.28147 0.0
H535 H 0.08831 0.38159 0.29271 0.0
H536 H 0.02818 0.34693 0.32305 0.0
H537 H 0.04249 0.25615 0.32681 0.0
H538 H 0.10296 0.29068 0.29662 0.0
H539 H 0.04146 0.2181 0.28777 0.0
H540 H 0.94019 0.22683 0.17407 0.0
H541 H 0.03326 0.28158 0.14186 0.0
H542 H 0.12846 0.35439 0.23771 0.0
C543 C 0.91827 0.23097 0.30904 0.0
C544 C 0.85685 0.19739 0.30324 0.0
C545 C 0.83472 0.18179 0.26932 0.0
C546 C 0.87354 0.19881 0.24119 0.0
C547 C 0.93399 0.23249 0.24764 0.0
C548 C 0.95637 0.24917 0.28062 0.0
C549 C 0.02281 0.29007 0.28 0.0
C550 C 0.03999 0.35089 0.2952 0.0
C551 C 0.05428 0.26206 0.29892 0.0
C552 C 0.03427 0.29382 0.24145 0.0
C553 C 0.98237 0.25925 0.22349 0.0
C554 C 0.98109 0.25411 0.18777 0.0
C555 C 0.03424 0.28524 0.16978 0.0
C556 C 0.08788 0.32201 0.18741 0.0
C557 C 0.08795 0.3267 0.22372 0.0
H558 H 0.73664 0.9474 0.65054 0.0
H559 H 0.84581 0.86624 0.64293 0.0
H560 H 0.87778 0.90907 0.58491 0.0
H561 H 0.68545 0.91829 0.5636 0.0
H562 H 0.68501 0.98652 0.55888 0.0
H563 H 0.6736 0.95249 0.60078 0.0
H564 H 0.76093 0.04906 0.62541 0.0
H565 H 0.77233 0.0834 0.58361 0.0
H566 H 0.8323 0.08106 0.60489 0.0
H567 H 0.89631 0.95941 0.52682 0.0
H568 H 0.8996 0.01346 0.47359 0.0
H569 H 0.7747 0.05666 0.51908 0.0
C570 C 0.767 0.93805 0.6369 0.0
C571 C 0.78835 0.903 0.65171 0.0
C572 C 0.82905 0.89332 0.63267 0.0
C573 C 0.84729 0.9172 0.59947 0.0
C574 C 0.82427 0.95039 0.58556 0.0
C575 C 0.78501 0.96077 0.6037 0.0
C576 C 0.76538 0.99651 0.5827 0.0
C577 C 0.6984 0.96133 0.5761 0.0
C578 C 0.78387 0.05604 0.60019 0.0
C579 C 0.79985 0.00469 0.54983 0.0
C580 C 0.83377 0.97802 0.55198 0.0
C581 C 0.86992 0.98044 0.52484 0.0
C582 C 0.87165 0.01128 0.49481 0.0
C583 C 0.83714 0.03884 0.49217 0.0
C584 C 0.80071 0.03513 0.52007 0.0
H585 H 0.62236 0.69464 0.86285 0.0
H586 H 0.7665 0.87459 0.85142 0.0
H587 H 0.82054 0.85842 0.89897 0.0
H588 H 0.62725 0.68011 0.9545 0.0
H589 H 0.61274 0.60523 0.95239 0.0
H590 H 0.58496 0.63291 0.91917 0.0
H591 H 0.63755 0.60446 0.87267 0.0
H592 H 0.66595 0.57715 0.90578 0.0
H593 H 0.7159 0.63279 0.87594 0.0
H594 H 0.85555 0.82271 0.94941 0.0
H595 H 0.87307 0.76829 -0.00409 0.0
H596 H 0.7103 0.60903 0.9687 0.0
C597 C 0.66494 0.73079 0.87083 0.0
C598 C 0.69018 0.78619 0.85448 0.0
C599 C 0.74663 0.83216 0.86435 0.0
C600 C 0.77742 0.82329 0.89111 0.0
C601 C 0.75146 0.76775 0.90668 0.0
C602 C 0.69686 0.72207 0.89654 0.0
C603 C 0.68004 0.66565 0.91583 0.0
C604 C 0.62288 0.64479 0.93672 0.0
C605 C 0.67456 0.61717 0.89108 0.0
C606 C 0.73312 0.68703 0.93909 0.0
C607 C 0.77364 0.7461 0.93368 0.0
C608 C 0.82463 0.77625 0.95355 0.0
C609 C 0.83419 0.74515 0.97982 0.0
C610 C 0.79342 0.68453 0.98532 0.0
C611 C 0.74274 0.65511 0.96445 0.0
H612 H 0.03196 0.76355 0.334 0.0
H613 H 0.05101 0.93573 0.35376 0.0
H614 H 0.01357 0.93512 0.29534 0.0
H615 H 0.07517 0.78599 0.24675 0.0
H616 H 0.02167 0.71216 0.23335 0.0
H617 H 0.04922 0.72558 0.27698 0.0
H618 H 0.94239 0.67776 0.30066 0.0
H619 H 0.91447 0.66354 0.25711 0.0
H620 H 0.89486 0.70473 0.28616 0.0
H621 H 0.97892 0.91791 0.23357 0.0
H622 H 0.94012 0.88123 0.17538 0.0
H623 H 0.93778 0.71759 0.19841 0.0
C624 C 0.02756 0.80094 0.32669 0.0
C625 C 0.04529 0.85004 0.34884 0.0
C626 C 0.03894 0.89799 0.33732 0.0
C627 C 0.01747 0.89801 0.30414 0.0
C628 C 0.00184 0.8495 0.28288 0.0
C629 C 0.00572 0.80146 0.2939 0.0
C630 C 0.98548 0.75447 0.2662 0.0
C631 C 0.0359 0.74397 0.25517 0.0
C632 C 0.93106 0.69673 0.27826 0.0
C633 C 0.96992 0.78385 0.23775 0.0
C634 C 0.98008 0.83877 0.24777 0.0
C635 C 0.97001 0.8746 0.22559 0.0
C636 C 0.94769 0.85315 0.19255 0.0
C637 C 0.93494 0.79602 0.18203 0.0
C638 C 0.94711 0.7615 0.20507 0.0
H639 H 0.31477 0.11636 0.6243 0.0
H640 H 0.24372 0.00876 0.71643 0.0
H641 H 0.19083 0.91966 0.68014 0.0
H642 H 0.17998 0.02947 0.57022 0.0
H643 H 0.22316 0.03999 0.53181 0.0
H644 H 0.25063 0.09579 0.565 0.0
H645 H 0.34639 0.09011 0.56882 0.0
H646 H 0.31907 0.03397 0.53597 0.0
H647 H 0.34122 0.01999 0.57734 0.0
H648 H 0.16007 0.84129 0.63451 0.0
H649 H 0.14151 0.78042 0.58188 0.0
H650 H 0.22375 0.93904 0.51923 0.0
C651 C 0.28687 0.07421 0.63676 0.0
C652 C 0.28322 0.06941 0.67314 0.0
C653 C 0.24666 0.01351 0.68858 0.0
C654 C 0.21665 0.96261 0.66819 0.0
C655 C 0.22257 0.96859 0.6324 0.0
C656 C 0.25558 0.02315 0.61676 0.0
C657 C 0.25612 0.01728 0.57785 0.0
C658 C 0.22564 0.04741 0.56018 0.0
C659 C 0.31945 0.04178 0.56422 0.0
C660 C 0.22003 0.9508 0.57414 0.0
C661 C 0.20142 0.92344 0.60594 0.0
C662 C 0.17282 0.86215 0.60938 0.0
C663 C 0.16271 0.82799 0.57951 0.0
C664 C 0.18009 0.85528 0.54675 0.0
C665 C 0.20853 0.91729 0.54402 0.0
loop_
_geom_bond_atom_site_label_1
_geom_bond_atom_site_label_2
_geom_bond_distance
_geom_bond_site_symmetry_2
_ccdc_geom_bond_type
Co0 N5 2.057 . S
Co0 O17 2.021 . S
Co0 O20 2.062 . S
Co0 O24 2.117 . S
Co0 O25 2.020 . S
C1 O21 1.259 . S
C1 O24 1.258 . S
Co2 N11 2.057 . S
Co2 O18 2.117 . S
Co2 O19 2.020 . S
Co2 O21 2.021 . S
Co2 O26 2.062 . S
C3 N5 1.316 . S
C3 N6 1.347 . S
C3 H8 0.931 . S
C4 N5 1.375 . S
C4 C7 1.350 . S
C4 H9 0.930 . S
N5 Co0 2.057 . S
N5 C3 1.316 . S
N5 C4 1.375 . S
N6 C3 1.347 . S
N6 C7 1.373 . S
C7 C4 1.350 . S
C7 N6 1.373 . S
C7 H28 0.931 . S
H8 C3 0.931 . S
H9 C4 0.930 . S
C10 O17 1.259 . S
C10 O18 1.258 . S
N11 Co2 2.057 . S
N11 C12 1.316 . S
N11 C13 1.375 . S
C12 N11 1.316 . S
C12 N14 1.347 . S
C12 H23 0.931 . S
C13 N11 1.375 . S
C13 C15 1.350 . S
C13 H22 0.930 . S
N14 C12 1.347 . S
N14 C15 1.373 . S
C15 C13 1.350 . S
C15 N14 1.373 . S
C15 H29 0.931 . S
C16 O19 1.256 . S
C16 O20 1.255 . S
O17 Co0 2.021 . S
O17 C10 1.259 . S
O18 Co2 2.117 . S
O18 C10 1.258 . S
O19 Co2 2.020 . S
O19 C16 1.256 . S
O20 Co0 2.062 . S
O20 C16 1.255 . S
O21 C1 1.259 . S
O21 Co2 2.021 . S
H22 C13 0.930 . S
H23 C12 0.931 . S
O24 Co0 2.117 . S
O24 C1 1.258 . S
O25 Co0 2.020 . S
O25 C27 1.256 . S
O26 Co2 2.062 . S
O26 C27 1.255 . S
C27 O25 1.256 . S
C27 O26 1.255 . S
H28 C7 0.931 . S
H29 C15 0.931 . S
Co30 N35 2.057 . S
Co30 O47 2.021 . S
Co30 O50 2.062 . S
Co30 O54 2.117 . S
Co30 O55 2.020 . S
C31 O51 1.259 . S
C31 O54 1.258 . S
Co32 N41 2.057 . S
Co32 O48 2.117 . S
Co32 O49 2.020 . S
Co32 O51 2.021 . S
Co32 O56 2.062 . S
C33 N35 1.316 . S
C33 N36 1.347 . S
C33 H38 0.931 . S
C34 N35 1.375 . S
C34 C37 1.350 . S
C34 H39 0.930 . S
N35 Co30 2.057 . S
N35 C33 1.316 . S
N35 C34 1.375 . S
N36 C33 1.347 . S
N36 C37 1.373 . S
C37 C34 1.350 . S
C37 N36 1.373 . S
C37 H58 0.931 . S
H38 C33 0.931 . S
H39 C34 0.930 . S
C40 O47 1.259 . S
C40 O48 1.258 . S
N41 Co32 2.057 . S
N41 C42 1.316 . S
N41 C43 1.375 . S
C42 N41 1.316 . S
C42 N44 1.347 . S
C42 H53 0.931 . S
C43 N41 1.375 . S
C43 C45 1.350 . S
C43 H52 0.930 . S
N44 C42 1.347 . S
N44 C45 1.373 . S
C45 C43 1.350 . S
C45 N44 1.373 . S
C45 H59 0.931 . S
C46 O49 1.256 . S
C46 O50 1.255 . S
O47 Co30 2.021 . S
O47 C40 1.259 . S
O48 Co32 2.117 . S
O48 C40 1.258 . S
O49 Co32 2.020 . S
O49 C46 1.256 . S
O50 Co30 2.062 . S
O50 C46 1.255 . S
O51 C31 1.259 . S
O51 Co32 2.021 . S
H52 C43 0.930 . S
H53 C42 0.931 . S
O54 Co30 2.117 . S
O54 C31 1.258 . S
O55 Co30 2.020 . S
O55 C57 1.256 . S
O56 Co32 2.062 . S
O56 C57 1.255 . S
C57 O55 1.256 . S
C57 O56 1.255 . S
H58 C37 0.931 . S
H59 C45 0.931 . S
Co60 N65 2.057 . S
Co60 O77 2.021 . S
Co60 O80 2.062 . S
Co60 O84 2.117 . S
Co60 O85 2.020 . S
C61 O81 1.259 . S
C61 O84 1.258 . S
Co62 N71 2.057 . S
Co62 O78 2.117 . S
Co62 O79 2.020 . S
Co62 O81 2.021 . S
Co62 O86 2.062 . S
C63 N65 1.316 . S
C63 N66 1.347 . S
C63 H68 0.931 . S
C64 N65 1.375 . S
C64 C67 1.350 . S
C64 H69 0.930 . S
N65 Co60 2.057 . S
N65 C63 1.316 . S
N65 C64 1.375 . S
N66 C63 1.347 . S
N66 C67 1.373 . S
C67 C64 1.350 . S
C67 N66 1.373 . S
C67 H88 0.931 . S
H68 C63 0.931 . S
H69 C64 0.930 . S
C70 O77 1.259 . S
C70 O78 1.258 . S
N71 Co62 2.057 . S
N71 C72 1.316 . S
N71 C73 1.375 . S
C72 N71 1.316 . S
C72 N74 1.347 . S
C72 H83 0.931 . S
C73 N71 1.375 . S
C73 C75 1.350 . S
C73 H82 0.930 . S
N74 C72 1.347 . S
N74 C75 1.373 . S
C75 C73 1.350 . S
C75 N74 1.373 . S
C75 H89 0.931 . S
C76 O79 1.256 . S
C76 O80 1.255 . S
O77 Co60 2.021 . S
O77 C70 1.259 . S
O78 Co62 2.117 . S
O78 C70 1.258 . S
O79 Co62 2.020 . S
O79 C76 1.256 . S
O80 Co60 2.062 . S
O80 C76 1.255 . S
O81 C61 1.259 . S
O81 Co62 2.021 . S
H82 C73 0.930 . S
H83 C72 0.931 . S
O84 Co60 2.117 . S
O84 C61 1.258 . S
O85 Co60 2.020 . S
O85 C87 1.256 . S
O86 Co62 2.062 . S
O86 C87 1.255 . S
C87 O85 1.256 . S
C87 O86 1.255 . S
H88 C67 0.931 . S
H89 C75 0.931 . S
Co90 N95 2.057 . S
Co90 O107 2.021 . S
Co90 O110 2.062 . S
Co90 O114 2.117 . S
Co90 O115 2.020 . S
C91 O111 1.259 . S
C91 O114 1.258 . S
Co92 N101 2.057 . S
Co92 O108 2.117 . S
Co92 O109 2.020 . S
Co92 O111 2.021 . S
Co92 O116 2.062 . S
C93 N95 1.316 1_556 S
C93 N96 1.347 . S
C93 H98 0.931 . S
C94 N95 1.375 1_556 S
C94 C97 1.350 . S
C94 H99 0.930 . S
N95 Co90 2.057 . S
N95 C93 1.316 1_554 S
N95 C94 1.375 1_554 S
N96 C93 1.347 . S
N96 C97 1.373 . S
C97 C94 1.350 . S
C97 N96 1.373 . S
C97 H118 0.931 . S
H98 C93 0.931 . S
H99 C94 0.930 . S
C100 O107 1.259 . S
C100 O108 1.258 . S
N101 Co92 2.057 . S
N101 C102 1.316 . S
N101 C103 1.375 . S
C102 N101 1.316 . S
C102 N104 1.347 . S
C102 H113 0.931 . S
C103 N101 1.375 . S
C103 C105 1.350 . S
C103 H112 0.930 . S
N104 C102 1.347 . S
N104 C105 1.373 . S
C105 C103 1.350 . S
C105 N104 1.373 . S
C105 H119 0.931 . S
C106 O109 1.256 . S
C106 O110 1.255 . S
O107 Co90 2.021 . S
O107 C100 1.259 . S
O108 Co92 2.117 . S
O108 C100 1.258 . S
O109 Co92 2.020 . S
O109 C106 1.256 . S
O110 Co90 2.062 . S
O110 C106 1.255 . S
O111 C91 1.259 . S
O111 Co92 2.021 . S
H112 C103 0.930 . S
H113 C102 0.931 . S
O114 Co90 2.117 . S
O114 C91 1.258 . S
O115 Co90 2.020 . S
O115 C117 1.256 . S
O116 Co92 2.062 . S
O116 C117 1.255 . S
C117 O115 1.256 . S
C117 O116 1.255 . S
H118 C97 0.931 . S
H119 C105 0.931 . S
Co120 N125 2.057 . S
Co120 O137 2.021 . S
Co120 O140 2.062 . S
Co120 O144 2.117 . S
Co120 O145 2.020 . S
C121 O141 1.259 . S
C121 O144 1.258 . S
Co122 N131 2.057 . S
Co122 O138 2.117 . S
Co122 O139 2.020 . S
Co122 O141 2.021 . S
Co122 O146 2.062 . S
C123 N125 1.316 . S
C123 N126 1.347 . S
C123 H128 0.931 . S
C124 N125 1.375 . S
C124 C127 1.350 . S
C124 H129 0.930 . S
N125 Co120 2.057 . S
N125 C123 1.316 . S
N125 C124 1.375 . S
N126 C123 1.347 . S
N126 C127 1.373 . S
C127 C124 1.350 . S
C127 N126 1.373 . S
C127 H148 0.931 . S
H128 C123 0.931 . S
H129 C124 0.930 . S
C130 O137 1.259 . S
C130 O138 1.258 . S
N131 Co122 2.057 . S
N131 C132 1.316 . S
N131 C133 1.375 . S
C132 N131 1.316 . S
C132 N134 1.347 . S
C132 H143 0.931 . S
C133 N131 1.375 . S
C133 C135 1.350 . S
C133 H142 0.930 . S
N134 C132 1.347 . S
N134 C135 1.373 . S
C135 C133 1.350 . S
C135 N134 1.373 . S
C135 H149 0.931 . S
C136 O139 1.256 . S
C136 O140 1.255 . S
O137 Co120 2.021 . S
O137 C130 1.259 . S
O138 Co122 2.117 . S
O138 C130 1.258 . S
O139 Co122 2.020 . S
O139 C136 1.256 . S
O140 Co120 2.062 . S
O140 C136 1.255 . S
O141 C121 1.259 . S
O141 Co122 2.021 . S
H142 C133 0.930 . S
H143 C132 0.931 . S
O144 Co120 2.117 . S
O144 C121 1.258 . S
O145 Co120 2.020 . S
O145 C147 1.256 . S
O146 Co122 2.062 . S
O146 C147 1.255 . S
C147 O145 1.256 . S
C147 O146 1.255 . S
H148 C127 0.931 . S
H149 C135 0.931 . S
Co150 N155 2.057 . S
Co150 O167 2.021 . S
Co150 O170 2.062 . S
Co150 O174 2.117 . S
Co150 O175 2.020 . S
C151 O171 1.259 . S
C151 O174 1.258 . S
Co152 N161 2.057 . S
Co152 O168 2.117 . S
Co152 O169 2.020 . S
Co152 O171 2.021 . S
Co152 O176 2.062 . S
C153 N155 1.316 . S
C153 N156 1.347 . S
C153 H158 0.931 . S
C154 N155 1.375 . S
C154 C157 1.350 . S
C154 H159 0.930 . S
N155 Co150 2.057 . S
N155 C153 1.316 . S
N155 C154 1.375 . S
N156 C153 1.347 . S
N156 C157 1.373 . S
C157 C154 1.350 . S
C157 N156 1.373 . S
C157 H178 0.931 . S
H158 C153 0.931 . S
H159 C154 0.930 . S
C160 O167 1.259 . S
C160 O168 1.258 . S
N161 Co152 2.057 . S
N161 C162 1.316 . S
N161 C163 1.375 . S
C162 N161 1.316 . S
C162 N164 1.347 . S
C162 H173 0.931 . S
C163 N161 1.375 . S
C163 C165 1.350 . S
C163 H172 0.930 . S
N164 C162 1.347 . S
N164 C165 1.373 . S
C165 C163 1.350 . S
C165 N164 1.373 . S
C165 H179 0.931 . S
C166 O169 1.256 . S
C166 O170 1.255 . S
O167 Co150 2.021 . S
O167 C160 1.259 . S
O168 Co152 2.117 . S
O168 C160 1.258 . S
O169 Co152 2.020 . S
O169 C166 1.256 . S
O170 Co150 2.062 . S
O170 C166 1.255 . S
O171 C151 1.259 . S
O171 Co152 2.021 . S
H172 C163 0.930 . S
H173 C162 0.931 . S
O174 Co150 2.117 . S
O174 C151 1.258 . S
O175 Co150 2.020 . S
O175 C177 1.256 . S
O176 Co152 2.062 . S
O176 C177 1.255 . S
C177 O175 1.256 . S
C177 O176 1.255 . S
H178 C157 0.931 . S
H179 C165 0.931 . S
H180 C192 0.930 . S
H181 C194 0.930 . S
H182 C195 0.930 . S
H183 C199 0.959 . S
H184 C199 0.959 . S
H185 C199 0.961 . S
H186 C200 0.960 . S
H187 C200 0.961 . S
H188 C200 0.959 . S
H189 C203 0.929 . S
H190 C204 0.931 . S
H191 C206 0.930 . S
C192 H180 0.930 . S
C192 C193 1.399 . S
C192 C197 1.399 . S
C193 C192 1.399 . S
C193 C194 1.376 . S
C194 H181 0.930 . S
C194 C193 1.376 . S
C194 C195 1.388 . S
C195 H182 0.930 . S
C195 C194 1.388 . S
C195 C196 1.390 . S
C196 C195 1.390 . S
C196 C197 1.394 . S
C196 C202 1.465 . S
C197 C192 1.399 . S
C197 C196 1.394 . S
C197 C198 1.516 . S
C198 C197 1.516 . S
C198 C199 1.502 . S
C198 C200 1.561 . S
C198 C201 1.526 . S
C199 H183 0.959 . S
C199 H184 0.959 . S
C199 H185 0.961 . S
C199 C198 1.502 . S
C200 H186 0.960 . S
C200 H187 0.961 . S
C200 H188 0.959 . S
C200 C198 1.561 . S
C201 C198 1.526 . S
C201 C202 1.396 . S
C201 C206 1.390 . S
C202 C196 1.465 . S
C202 C201 1.396 . S
C202 C203 1.399 . S
C203 H189 0.929 . S
C203 C202 1.399 . S
C203 C204 1.385 . S
C204 H190 0.931 . S
C204 C203 1.385 . S
C204 C205 1.389 . S
C205 C204 1.389 . S
C205 C206 1.387 . S
C206 H191 0.930 . S
C206 C201 1.390 . S
C206 C205 1.387 . S
H207 C219 0.930 . S
H208 C221 0.930 . S
H209 C222 0.930 . S
H210 C226 0.959 . S
H211 C226 0.959 . S
H212 C226 0.961 . S
H213 C227 0.960 . S
H214 C227 0.961 . S
H215 C227 0.959 . S
H216 C230 0.929 . S
H217 C231 0.931 . S
H218 C233 0.930 . S
C219 H207 0.930 . S
C219 C220 1.399 . S
C219 C224 1.399 . S
C220 C219 1.399 . S
C220 C221 1.376 . S
C221 H208 0.930 . S
C221 C220 1.376 . S
C221 C222 1.388 . S
C222 H209 0.930 . S
C222 C221 1.388 . S
C222 C223 1.390 . S
C223 C222 1.390 . S
C223 C224 1.394 . S
C223 C229 1.465 . S
C224 C219 1.399 . S
C224 C223 1.394 . S
C224 C225 1.516 . S
C225 C224 1.516 . S
C225 C226 1.502 . S
C225 C227 1.561 . S
C225 C228 1.526 . S
C226 H210 0.959 . S
C226 H211 0.959 . S
C226 H212 0.961 . S
C226 C225 1.502 . S
C227 H213 0.960 . S
C227 H214 0.961 . S
C227 H215 0.959 . S
C227 C225 1.561 . S
C228 C225 1.526 . S
C228 C229 1.396 . S
C228 C233 1.390 . S
C229 C223 1.465 . S
C229 C228 1.396 . S
C229 C230 1.399 . S
C230 H216 0.929 . S
C230 C229 1.399 . S
C230 C231 1.385 . S
C231 H217 0.931 . S
C231 C230 1.385 . S
C231 C232 1.389 . S
C232 C231 1.389 . S
C232 C233 1.387 . S
C233 H218 0.930 . S
C233 C228 1.390 . S
C233 C232 1.387 . S
H234 C246 0.930 . S
H235 C248 0.930 . S
H236 C249 0.930 . S
H237 C253 0.959 . S
H238 C253 0.959 . S
H239 C253 0.961 1_554 S
H240 C254 0.960 . S
H241 C254 0.961 . S
H242 C254 0.959 . S
H243 C257 0.929 . S
H244 C258 0.931 . S
H245 C260 0.930 . S
C246 H234 0.930 . S
C246 C247 1.399 . S
C246 C251 1.399 . S
C247 C246 1.399 . S
C247 C248 1.376 . S
C248 H235 0.930 . S
C248 C247 1.376 . S
C248 C249 1.388 . S
C249 H236 0.930 . S
C249 C248 1.388 . S
C249 C250 1.390 . S
C250 C249 1.390 . S
C250 C251 1.394 . S
C250 C256 1.465 1_554 S
C251 C246 1.399 . S
C251 C250 1.394 . S
C251 C252 1.516 . S
C252 C251 1.516 . S
C252 C253 1.502 1_554 S
C252 C254 1.561 . S
C252 C255 1.526 1_554 S
C253 H237 0.959 . S
C253 H238 0.959 . S
C253 H239 0.961 1_556 S
C253 C252 1.502 1_556 S
C254 H240 0.960 . S
C254 H241 0.961 . S
C254 H242 0.959 . S
C254 C252 1.561 . S
C255 C252 1.526 1_556 S
C255 C256 1.396 . S
C255 C260 1.390 . S
C256 C250 1.465 1_556 S
C256 C255 1.396 . S
C256 C257 1.399 . S
C257 H243 0.929 . S
C257 C256 1.399 . S
C257 C258 1.385 . S
C258 H244 0.931 . S
C258 C257 1.385 . S
C258 C259 1.389 . S
C259 C258 1.389 . S
C259 C260 1.387 . S
C260 H245 0.930 . S
C260 C255 1.390 . S
C260 C259 1.387 . S
H261 C273 0.930 . S
H262 C275 0.930 . S
H263 C276 0.930 . S
H264 C280 0.959 . S
H265 C280 0.959 . S
H266 C280 0.961 . S
H267 C281 0.960 . S
H268 C281 0.961 . S
H269 C281 0.959 . S
H270 C284 0.929 . S
H271 C285 0.931 . S
H272 C287 0.930 . S
C273 H261 0.930 . S
C273 C274 1.399 . S
C273 C278 1.399 . S
C274 C273 1.399 . S
C274 C275 1.376 . S
C275 H262 0.930 . S
C275 C274 1.376 . S
C275 C276 1.388 . S
C276 H263 0.930 . S
C276 C275 1.388 . S
C276 C277 1.390 . S
C277 C276 1.390 . S
C277 C278 1.394 . S
C277 C283 1.465 . S
C278 C273 1.399 . S
C278 C277 1.394 . S
C278 C279 1.516 . S
C279 C278 1.516 . S
C279 C280 1.502 . S
C279 C281 1.561 . S
C279 C282 1.526 . S
C280 H264 0.959 . S
C280 H265 0.959 . S
C280 H266 0.961 . S
C280 C279 1.502 . S
C281 H267 0.960 . S
C281 H268 0.961 . S
C281 H269 0.959 . S
C281 C279 1.561 . S
C282 C279 1.526 . S
C282 C283 1.396 . S
C282 C287 1.390 . S
C283 C277 1.465 . S
C283 C282 1.396 . S
C283 C284 1.399 . S
C284 H270 0.929 . S
C284 C283 1.399 . S
C284 C285 1.385 . S
C285 H271 0.931 . S
C285 C284 1.385 . S
C285 C286 1.389 . S
C286 C285 1.389 . S
C286 C287 1.387 . S
C287 H272 0.930 . S
C287 C282 1.390 . S
C287 C286 1.387 . S
H288 C300 0.930 . S
H289 C302 0.930 . S
H290 C303 0.930 . S
H291 C307 0.959 . S
H292 C307 0.959 . S
H293 C307 0.961 . S
H294 C308 0.960 . S
H295 C308 0.961 . S
H296 C308 0.959 . S
H297 C311 0.929 . S
H298 C312 0.931 . S
H299 C314 0.930 . S
C300 H288 0.930 . S
C300 C301 1.399 . S
C300 C305 1.399 . S
C301 C300 1.399 . S
C301 C302 1.376 . S
C302 H289 0.930 . S
C302 C301 1.376 . S
C302 C303 1.388 . S
C303 H290 0.930 . S
C303 C302 1.388 . S
C303 C304 1.390 . S
C304 C303 1.390 . S
C304 C305 1.394 . S
C304 C310 1.465 . S
C305 C300 1.399 . S
C305 C304 1.394 . S
C305 C306 1.516 . S
C306 C305 1.516 . S
C306 C307 1.502 . S
C306 C308 1.561 . S
C306 C309 1.526 . S
C307 H291 0.959 . S
C307 H292 0.959 . S
C307 H293 0.961 . S
C307 C306 1.502 . S
C308 H294 0.960 . S
C308 H295 0.961 . S
C308 H296 0.959 . S
C308 C306 1.561 . S
C309 C306 1.526 . S
C309 C310 1.396 . S
C309 C314 1.390 . S
C310 C304 1.465 . S
C310 C309 1.396 . S
C310 C311 1.399 . S
C311 H297 0.929 . S
C311 C310 1.399 . S
C311 C312 1.385 . S
C312 H298 0.931 . S
C312 C311 1.385 . S
C312 C313 1.389 . S
C313 C312 1.389 . S
C313 C314 1.387 . S
C314 H299 0.930 . S
C314 C309 1.390 . S
C314 C313 1.387 . S
H315 C327 0.930 . S
H316 C329 0.930 . S
H317 C330 0.930 . S
H318 C334 0.959 . S
H319 C334 0.959 . S
H320 C334 0.961 . S
H321 C335 0.960 . S
H322 C335 0.961 . S
H323 C335 0.959 . S
H324 C338 0.929 . S
H325 C339 0.931 . S
H326 C341 0.930 . S
C327 H315 0.930 . S
C327 C328 1.399 . S
C327 C332 1.399 . S
C328 C327 1.399 . S
C328 C329 1.376 . S
C329 H316 0.930 . S
C329 C328 1.376 . S
C329 C330 1.388 . S
C330 H317 0.930 . S
C330 C329 1.388 . S
C330 C331 1.390 . S
C331 C330 1.390 . S
C331 C332 1.394 . S
C331 C337 1.465 . S
C332 C327 1.399 . S
C332 C331 1.394 . S
C332 C333 1.516 . S
C333 C332 1.516 . S
C333 C334 1.502 . S
C333 C335 1.561 . S
C333 C336 1.526 . S
C334 H318 0.959 . S
C334 H319 0.959 . S
C334 H320 0.961 . S
C334 C333 1.502 . S
C335 H321 0.960 . S
C335 H322 0.961 . S
C335 H323 0.959 . S
C335 C333 1.561 . S
C336 C333 1.526 . S
C336 C337 1.396 . S
C336 C341 1.390 . S
C337 C331 1.465 . S
C337 C336 1.396 . S
C337 C338 1.399 . S
C338 H324 0.929 . S
C338 C337 1.399 . S
C338 C339 1.385 . S
C339 H325 0.931 . S
C339 C338 1.385 . S
C339 C340 1.389 . S
C340 C339 1.389 . S
C340 C341 1.387 . S
C341 H326 0.930 . S
C341 C336 1.390 . S
C341 C340 1.387 . S
H342 C354 0.930 . S
H343 C356 0.930 . S
H344 C357 0.930 . S
H345 C361 0.959 . S
H346 C361 0.959 . S
H347 C361 0.961 . S
H348 C362 0.960 . S
H349 C362 0.961 . S
H350 C362 0.959 . S
H351 C365 0.929 . S
H352 C366 0.931 . S
H353 C368 0.930 . S
C354 H342 0.930 . S
C354 C355 1.399 . S
C354 C359 1.399 . S
C355 C354 1.399 . S
C355 C356 1.376 . S
C356 H343 0.930 . S
C356 C355 1.376 . S
C356 C357 1.388 . S
C357 H344 0.930 . S
C357 C356 1.388 . S
C357 C358 1.390 . S
C358 C357 1.390 . S
C358 C359 1.394 . S
C358 C364 1.465 . S
C359 C354 1.399 . S
C359 C358 1.394 . S
C359 C360 1.516 . S
C360 C359 1.516 . S
C360 C361 1.502 . S
C360 C362 1.561 . S
C360 C363 1.526 . S
C361 H345 0.959 . S
C361 H346 0.959 . S
C361 H347 0.961 . S
C361 C360 1.502 . S
C362 H348 0.960 . S
C362 H349 0.961 . S
C362 H350 0.959 . S
C362 C360 1.561 . S
C363 C360 1.526 . S
C363 C364 1.396 . S
C363 C368 1.390 . S
C364 C358 1.465 . S
C364 C363 1.396 . S
C364 C365 1.399 . S
C365 H351 0.929 . S
C365 C364 1.399 . S
C365 C366 1.385 . S
C366 H352 0.931 . S
C366 C365 1.385 . S
C366 C367 1.389 . S
C367 C366 1.389 . S
C367 C368 1.387 . S
C368 H353 0.930 . S
C368 C363 1.390 . S
C368 C367 1.387 . S
H369 C381 0.930 . S
H370 C383 0.930 . S
H371 C384 0.930 . S
H372 C388 0.959 . S
H373 C388 0.959 . S
H374 C388 0.961 . S
H375 C389 0.960 . S
H376 C389 0.961 . S
H377 C389 0.959 . S
H378 C392 0.929 . S
H379 C393 0.931 . S
H380 C395 0.930 . S
C381 H369 0.930 . S
C381 C382 1.399 . S
C381 C386 1.399 . S
C382 C381 1.399 . S
C382 C383 1.376 . S
C383 H370 0.930 . S
C383 C382 1.376 . S
C383 C384 1.388 . S
C384 H371 0.930 . S
C384 C383 1.388 . S
C384 C385 1.390 . S
C385 C384 1.390 . S
C385 C386 1.394 . S
C385 C391 1.465 . S
C386 C381 1.399 . S
C386 C385 1.394 . S
C386 C387 1.516 1_455 S
C387 C386 1.516 1_655 S
C387 C388 1.502 . S
C387 C389 1.561 1_655 S
C387 C390 1.526 . S
C388 H372 0.959 . S
C388 H373 0.959 . S
C388 H374 0.961 . S
C388 C387 1.502 . S
C389 H375 0.960 . S
C389 H376 0.961 . S
C389 H377 0.959 . S
C389 C387 1.561 1_455 S
C390 C387 1.526 . S
C390 C391 1.396 1_655 S
C390 C395 1.390 . S
C391 C385 1.465 . S
C391 C390 1.396 1_455 S
C391 C392 1.399 . S
C392 H378 0.929 . S
C392 C391 1.399 . S
C392 C393 1.385 1_455 S
C393 H379 0.931 . S
C393 C392 1.385 1_655 S
C393 C394 1.389 . S
C394 C393 1.389 . S
C394 C395 1.387 . S
C395 H380 0.930 . S
C395 C390 1.390 . S
C395 C394 1.387 . S
H396 C408 0.930 . S
H397 C410 0.930 . S
H398 C411 0.930 . S
H399 C415 0.959 . S
H400 C415 0.959 . S
H401 C415 0.961 . S
H402 C416 0.960 . S
H403 C416 0.961 . S
H404 C416 0.959 . S
H405 C419 0.929 . S
H406 C420 0.931 . S
H407 C422 0.930 . S
C408 H396 0.930 . S
C408 C409 1.399 1_565 S
C408 C413 1.399 . S
C409 C408 1.399 1_545 S
C409 C410 1.376 . S
C410 H397 0.930 . S
C410 C409 1.376 . S
C410 C411 1.388 . S
C411 H398 0.930 . S
C411 C410 1.388 . S
C411 C412 1.390 . S
C412 C411 1.390 . S
C412 C413 1.394 1_545 S
C412 C418 1.465 1_545 S
C413 C408 1.399 . S
C413 C412 1.394 1_565 S
C413 C414 1.516 . S
C414 C413 1.516 . S
C414 C415 1.502 . S
C414 C416 1.561 . S
C414 C417 1.526 . S
C415 H399 0.959 . S
C415 H400 0.959 . S
C415 H401 0.961 . S
C415 C414 1.502 . S
C416 H402 0.960 . S
C416 H403 0.961 . S
C416 H404 0.959 . S
C416 C414 1.561 . S
C417 C414 1.526 . S
C417 C418 1.396 . S
C417 C422 1.390 . S
C418 C412 1.465 1_565 S
C418 C417 1.396 . S
C418 C419 1.399 1_565 S
C419 H405 0.929 . S
C419 C418 1.399 1_545 S
C419 C420 1.385 1_545 S
C420 H406 0.931 . S
C420 C419 1.385 1_565 S
C420 C421 1.389 . S
C421 C420 1.389 . S
C421 C422 1.387 . S
C422 H407 0.930 . S
C422 C417 1.390 . S
C422 C421 1.387 . S
H423 C435 0.930 . S
H424 C437 0.930 . S
H425 C438 0.930 . S
H426 C442 0.959 . S
H427 C442 0.959 . S
H428 C442 0.961 . S
H429 C443 0.960 . S
H430 C443 0.961 . S
H431 C443 0.959 . S
H432 C446 0.929 . S
H433 C447 0.931 . S
H434 C449 0.930 . S
C435 H423 0.930 . S
C435 C436 1.399 . S
C435 C440 1.399 . S
C436 C435 1.399 . S
C436 C437 1.376 . S
C437 H424 0.930 . S
C437 C436 1.376 . S
C437 C438 1.388 . S
C438 H425 0.930 . S
C438 C437 1.388 . S
C438 C439 1.390 . S
C439 C438 1.390 . S
C439 C440 1.394 . S
C439 C445 1.465 . S
C440 C435 1.399 . S
C440 C439 1.394 . S
C440 C441 1.516 . S
C441 C440 1.516 . S
C441 C442 1.502 . S
C441 C443 1.561 . S
C441 C444 1.526 . S
C442 H426 0.959 . S
C442 H427 0.959 . S
C442 H428 0.961 . S
C442 C441 1.502 . S
C443 H429 0.960 . S
C443 H430 0.961 . S
C443 H431 0.959 . S
C443 C441 1.561 . S
C444 C441 1.526 . S
C444 C445 1.396 . S
C444 C449 1.390 . S
C445 C439 1.465 . S
C445 C444 1.396 . S
C445 C446 1.399 . S
C446 H432 0.929 . S
C446 C445 1.399 . S
C446 C447 1.385 . S
C447 H433 0.931 . S
C447 C446 1.385 . S
C447 C448 1.389 . S
C448 C447 1.389 . S
C448 C449 1.387 . S
C449 H434 0.930 . S
C449 C444 1.390 . S
C449 C448 1.387 . S
H450 C462 0.930 . S
H451 C464 0.930 . S
H452 C465 0.930 . S
H453 C469 0.959 . S
H454 C469 0.959 . S
H455 C469 0.961 1_455 S
H456 C470 0.960 . S
H457 C470 0.961 . S
H458 C470 0.959 . S
H459 C473 0.929 . S
H460 C474 0.931 . S
H461 C476 0.930 . S
C462 H450 0.930 . S
C462 C463 1.399 . S
C462 C467 1.399 . S
C463 C462 1.399 . S
C463 C464 1.376 1_455 S
C464 H451 0.930 . S
C464 C463 1.376 1_655 S
C464 C465 1.388 . S
C465 H452 0.930 . S
C465 C464 1.388 . S
C465 C466 1.390 . S
C466 C465 1.390 . S
C466 C467 1.394 1_655 S
C466 C472 1.465 . S
C467 C462 1.399 . S
C467 C466 1.394 1_455 S
C467 C468 1.516 . S
C468 C467 1.516 . S
C468 C469 1.502 1_455 S
C468 C470 1.561 . S
C468 C471 1.526 1_455 S
C469 H453 0.959 . S
C469 H454 0.959 . S
C469 H455 0.961 1_655 S
C469 C468 1.502 1_655 S
C470 H456 0.960 . S
C470 H457 0.961 . S
C470 H458 0.959 . S
C470 C468 1.561 . S
C471 C468 1.526 1_655 S
C471 C472 1.396 . S
C471 C476 1.390 . S
C472 C466 1.465 . S
C472 C471 1.396 . S
C472 C473 1.399 . S
C473 H459 0.929 . S
C473 C472 1.399 . S
C473 C474 1.385 . S
C474 H460 0.931 . S
C474 C473 1.385 . S
C474 C475 1.389 . S
C475 C474 1.389 . S
C475 C476 1.387 . S
C476 H461 0.930 . S
C476 C471 1.390 . S
C476 C475 1.387 . S
H477 C489 0.930 1_545 S
H478 C491 0.930 . S
H479 C492 0.930 . S
H480 C496 0.959 . S
H481 C496 0.959 . S
H482 C496 0.961 . S
H483 C497 0.960 . S
H484 C497 0.961 . S
H485 C497 0.947 1_565 S
H486 C500 0.929 . S
H487 C501 0.931 . S
H488 C503 0.930 . S
C489 H477 0.930 1_565 S
C489 C490 1.399 . S
C489 C494 1.399 1_565 S
C490 C489 1.399 . S
C490 C491 1.376 . S
C491 H478 0.930 . S
C491 C490 1.376 . S
C491 C492 1.388 . S
C492 H479 0.930 . S
C492 C491 1.388 . S
C492 C493 1.390 . S
C493 C492 1.390 . S
C493 C494 1.394 1_565 S
C493 C499 1.465 1_565 S
C494 C489 1.399 1_545 S
C494 C493 1.394 1_545 S
C494 C495 1.516 . S
C495 C494 1.516 . S
C495 C496 1.502 . S
C495 C497 1.561 . S
C495 C498 1.526 . S
C496 H480 0.959 . S
C496 H481 0.959 . S
C496 H482 0.961 . S
C496 C495 1.502 . S
C497 H483 0.960 . S
C497 H484 0.961 . S
C497 H485 0.947 1_545 S
C497 C495 1.561 . S
C498 C495 1.526 . S
C498 C499 1.396 . S
C498 C503 1.390 . S
C499 C493 1.465 1_545 S
C499 C498 1.396 . S
C499 C500 1.399 1_545 S
C500 H486 0.929 . S
C500 C499 1.399 1_565 S
C500 C501 1.385 1_565 S
C501 H487 0.931 . S
C501 C500 1.385 1_545 S
C501 C502 1.389 . S
C502 C501 1.389 . S
C502 C503 1.387 . S
C503 H488 0.930 . S
C503 C498 1.390 . S
C503 C502 1.387 . S
H504 C516 0.930 . S
H505 C518 0.930 . S
H506 C519 0.930 . S
H507 C523 0.959 . S
H508 C523 0.959 . S
H509 C523 0.961 . S
H510 C524 0.960 . S
H511 C524 0.961 . S
H512 C524 0.959 . S
H513 C527 0.929 . S
H514 C528 0.945 . S
H515 C530 0.930 . S
C516 H504 0.930 . S
C516 C517 1.399 . S
C516 C521 1.399 . S
C517 C516 1.399 . S
C517 C518 1.376 . S
C518 H505 0.930 . S
C518 C517 1.376 . S
C518 C519 1.388 . S
C519 H506 0.930 . S
C519 C518 1.388 . S
C519 C520 1.390 . S
C520 C519 1.390 . S
C520 C521 1.394 . S
C520 C526 1.465 . S
C521 C516 1.399 . S
C521 C520 1.394 . S
C521 C522 1.516 . S
C522 C521 1.516 . S
C522 C523 1.502 . S
C522 C524 1.561 . S
C522 C525 1.526 . S
C523 H507 0.959 . S
C523 H508 0.959 . S
C523 H509 0.961 . S
C523 C522 1.502 . S
C524 H510 0.960 . S
C524 H511 0.961 . S
C524 H512 0.959 . S
C524 C522 1.561 . S
C525 C522 1.526 . S
C525 C526 1.396 . S
C525 C530 1.390 . S
C526 C520 1.465 . S
C526 C525 1.396 . S
C526 C527 1.399 . S
C527 H513 0.929 . S
C527 C526 1.399 . S
C527 C528 1.365 1_556 S
C528 H514 0.945 . S
C528 C527 1.365 1_554 S
C528 C529 1.396 . S
C529 C528 1.396 . S
C529 C530 1.387 1_554 S
C530 H515 0.930 . S
C530 C525 1.390 . S
C530 C529 1.387 1_556 S
H531 C543 0.930 . S
H532 C545 0.930 . S
H533 C546 0.930 . S
H534 C550 0.959 . S
H535 C550 0.959 . S
H536 C550 0.961 1_655 S
H537 C551 0.960 . S
H538 C551 0.961 . S
H539 C551 0.959 . S
H540 C554 0.929 . S
H541 C555 0.931 . S
H542 C557 0.930 . S
C543 H531 0.930 . S
C543 C544 1.399 . S
C543 C548 1.399 . S
C544 C543 1.399 . S
C544 C545 1.376 . S
C545 H532 0.930 . S
C545 C544 1.376 . S
C545 C546 1.388 . S
C546 H533 0.930 . S
C546 C545 1.388 . S
C546 C547 1.390 . S
C547 C546 1.390 . S
C547 C548 1.394 . S
C547 C553 1.465 1_655 S
C548 C543 1.399 . S
C548 C547 1.394 . S
C548 C549 1.516 . S
C549 C548 1.516 . S
C549 C550 1.502 1_655 S
C549 C551 1.561 . S
C549 C552 1.526 1_655 S
C550 H534 0.959 . S
C550 H535 0.959 . S
C550 H536 0.961 1_455 S
C550 C549 1.502 1_455 S
C551 H537 0.960 . S
C551 H538 0.961 . S
C551 H539 0.959 . S
C551 C549 1.561 . S
C552 C549 1.526 1_455 S
C552 C553 1.396 . S
C552 C557 1.390 . S
C553 C547 1.465 1_455 S
C553 C552 1.396 . S
C553 C554 1.399 . S
C554 H540 0.929 . S
C554 C553 1.399 . S
C554 C555 1.385 . S
C555 H541 0.931 . S
C555 C554 1.385 . S
C555 C556 1.389 . S
C556 C555 1.389 . S
C556 C557 1.387 . S
C557 H542 0.930 . S
C557 C552 1.390 . S
C557 C556 1.387 . S
H558 C570 0.930 . S
H559 C572 0.930 . S
H560 C573 0.930 . S
H561 C577 0.959 . S
H562 C577 0.959 . S
H563 C577 0.961 . S
H564 C578 0.960 . S
H565 C578 0.961 . S
H566 C578 0.959 . S
H567 C581 0.929 . S
H568 C582 0.931 . S
H569 C584 0.930 . S
C570 H558 0.930 . S
C570 C571 1.399 . S
C570 C575 1.399 . S
C571 C570 1.399 . S
C571 C572 1.376 . S
C572 H559 0.930 . S
C572 C571 1.376 . S
C572 C573 1.388 . S
C573 H560 0.930 . S
C573 C572 1.388 . S
C573 C574 1.390 . S
C574 C573 1.390 . S
C574 C575 1.394 . S
C574 C580 1.465 . S
C575 C570 1.399 . S
C575 C574 1.394 . S
C575 C576 1.516 1_565 S
C576 C575 1.516 1_545 S
C576 C577 1.502 . S
C576 C578 1.561 . S
C576 C579 1.526 . S
C577 H561 0.959 . S
C577 H562 0.959 . S
C577 H563 0.961 . S
C577 C576 1.502 . S
C578 H564 0.960 . S
C578 H565 0.961 . S
C578 H566 0.959 . S
C578 C576 1.561 . S
C579 C576 1.526 . S
C579 C580 1.396 1_545 S
C579 C584 1.390 . S
C580 C574 1.465 . S
C580 C579 1.396 1_565 S
C580 C581 1.399 . S
C581 H567 0.929 . S
C581 C580 1.399 . S
C581 C582 1.385 1_565 S
C582 H568 0.931 . S
C582 C581 1.385 1_545 S
C582 C583 1.389 . S
C583 C582 1.389 . S
C583 C584 1.387 . S
C584 H569 0.930 . S
C584 C579 1.390 . S
C584 C583 1.387 . S
H585 C597 0.930 . S
H586 C599 0.930 . S
H587 C600 0.930 . S
H588 C604 0.959 . S
H589 C604 0.959 . S
H590 C604 0.961 . S
H591 C605 0.960 . S
H592 C605 0.961 . S
H593 C605 0.959 . S
H594 C608 0.929 . S
H595 C609 0.931 . S
H596 C611 0.930 . S
C597 H585 0.930 . S
C597 C598 1.399 . S
C597 C602 1.399 . S
C598 C597 1.399 . S
C598 C599 1.376 . S
C599 H586 0.930 . S
C599 C598 1.376 . S
C599 C600 1.388 . S
C600 H587 0.930 . S
C600 C599 1.388 . S
C600 C601 1.390 . S
C601 C600 1.390 . S
C601 C602 1.394 . S
C601 C607 1.465 . S
C602 C597 1.399 . S
C602 C601 1.394 . S
C602 C603 1.516 . S
C603 C602 1.516 . S
C603 C604 1.502 . S
C603 C605 1.561 . S
C603 C606 1.526 . S
C604 H588 0.959 . S
C604 H589 0.959 . S
C604 H590 0.961 . S
C604 C603 1.502 . S
C605 H591 0.960 . S
C605 H592 0.961 . S
C605 H593 0.959 . S
C605 C603 1.561 . S
C606 C603 1.526 . S
C606 C607 1.396 . S
C606 C611 1.390 . S
C607 C601 1.465 . S
C607 C606 1.396 . S
C607 C608 1.399 . S
C608 H594 0.929 . S
C608 C607 1.399 . S
C608 C609 1.385 1_556 S
C609 H595 0.931 . S
C609 C608 1.385 1_554 S
C609 C610 1.389 . S
C610 C609 1.389 . S
C610 C611 1.387 1_554 S
C611 H596 0.930 . S
C611 C606 1.390 . S
C611 C610 1.387 1_556 S
H612 C624 0.930 . S
H613 C626 0.930 . S
H614 C627 0.930 1_655 S
H615 C631 0.959 . S
H616 C631 0.959 . S
H617 C631 0.961 . S
H618 C632 0.960 . S
H619 C632 0.961 . S
H620 C632 0.959 . S
H621 C635 0.929 . S
H622 C636 0.931 . S
H623 C638 0.930 . S
C624 H612 0.930 . S
C624 C625 1.399 . S
C624 C629 1.399 . S
C625 C624 1.399 . S
C625 C626 1.376 . S
C626 H613 0.930 . S
C626 C625 1.376 . S
C626 C627 1.388 . S
C627 H614 0.930 1_455 S
C627 C626 1.388 . S
C627 C628 1.390 1_455 S
C628 C627 1.390 1_655 S
C628 C629 1.394 1_655 S
C628 C634 1.465 . S
C629 C624 1.399 . S
C629 C628 1.394 1_455 S
C629 C630 1.516 1_455 S
C630 C629 1.516 1_655 S
C630 C631 1.502 1_655 S
C630 C632 1.561 . S
C630 C633 1.526 . S
C631 H615 0.959 . S
C631 H616 0.959 . S
C631 H617 0.961 . S
C631 C630 1.502 1_455 S
C632 H618 0.960 . S
C632 H619 0.961 . S
C632 H620 0.959 . S
C632 C630 1.561 . S
C633 C630 1.526 . S
C633 C634 1.396 . S
C633 C638 1.390 . S
C634 C628 1.465 . S
C634 C633 1.396 . S
C634 C635 1.399 . S
C635 H621 0.929 . S
C635 C634 1.399 . S
C635 C636 1.385 . S
C636 H622 0.931 . S
C636 C635 1.385 . S
C636 C637 1.389 . S
C637 C636 1.389 . S
C637 C638 1.387 . S
C638 H623 0.930 . S
C638 C633 1.390 . S
C638 C637 1.387 . S
H639 C651 0.930 . S
H640 C653 0.930 . S
H641 C654 0.930 . S
H642 C658 0.959 . S
H643 C658 0.959 . S
H644 C658 0.961 . S
H645 C659 0.960 . S
H646 C659 0.961 . S
H647 C659 0.959 . S
H648 C662 0.929 . S
H649 C663 0.931 . S
H650 C665 0.930 . S
C651 H639 0.930 . S
C651 C652 1.399 . S
C651 C656 1.399 . S
C652 C651 1.399 . S
C652 C653 1.376 . S
C653 H640 0.930 . S
C653 C652 1.376 . S
C653 C654 1.388 1_545 S
C654 H641 0.930 . S
C654 C653 1.388 1_565 S
C654 C655 1.390 . S
C655 C654 1.390 . S
C655 C656 1.394 1_565 S
C655 C661 1.465 . S
C656 C651 1.399 . S
C656 C655 1.394 1_545 S
C656 C657 1.516 . S
C657 C656 1.516 . S
C657 C658 1.502 . S
C657 C659 1.561 . S
C657 C660 1.526 1_545 S
C658 H642 0.959 . S
C658 H643 0.959 . S
C658 H644 0.961 . S
C658 C657 1.502 . S
C659 H645 0.960 . S
C659 H646 0.961 . S
C659 H647 0.959 . S
C659 C657 1.561 . S
C660 C657 1.526 1_565 S
C660 C661 1.396 . S
C660 C665 1.390 . S
C661 C655 1.465 . S
C661 C660 1.396 . S
C661 C662 1.399 . S
C662 H648 0.929 . S
C662 C661 1.399 . S
C662 C663 1.385 . S
C663 H649 0.931 . S
C663 C662 1.385 . S
C663 C664 1.389 . S
C664 C663 1.389 . S
C664 C665 1.387 . S
C665 H650 0.930 . S
C665 C660 1.390 . S
C665 C664 1.387 . S
C193 C147 0.807 . S
C205 N6 0.848 . S
C220 N156 0.878 . S
C232 C57 0.798 . S
C247 C27 0.799 . S
C259 N66 0.879 . S
C274 N36 0.848 . S
C286 C117 0.807 . S
C301 C87 0.814 . S
C313 N126 0.870 . S
C328 N96 0.865 . S
C340 C177 0.819 . S
C355 C1 1.367 . S
C367 C100 1.440 . S
C382 C121 1.378 . S
C394 C40 1.433 . S
C409 C160 1.345 . S
C421 C61 1.435 . S
C436 C70 1.348 . S
C448 C151 1.438 . S
C463 C10 1.412 . S
C475 C91 1.405 . S
C490 C130 1.354 . S
C502 C31 1.440 . S
C517 N164 0.742 . S
C529 N14 0.760 . S
C544 C46 0.710 . S
C556 C16 0.708 . S
C571 N74 0.756 . S
C583 N44 0.798 . S
C598 C76 0.745 . S
C610 C106 0.724 . S
C625 N134 0.795 . S
C637 N104 0.768 . S
C652 C166 0.767 . S
C664 C136 0.793 . S
