# Generated by pormake.
# Topology osc, (6)-cn, num edge types: 1
# Building blocks:
#     Node 0, Type 0, BuildingBlock: IZENUY_clean_sbu_0, # of connection points: 6
#     Node 1, Type 0, BuildingBlock: IZENUY_clean_sbu_0, # of connection points: 6
#     Node 2, Type 0, BuildingBlock: IZENUY_clean_sbu_0, # of connection points: 6
#     Node 3, Type 0, BuildingBlock: IZENUY_clean_sbu_0, # of connection points: 6
#     Node 4, Type 0, BuildingBlock: IZENUY_clean_sbu_0, # of connection points: 6
#     Node 5, Type 0, BuildingBlock: IZENUY_clean_sbu_0, # of connection points: 6
#     Node 6, Type 0, BuildingBlock: IZENUY_clean_sbu_0, # of connection points: 6
#     Node 7, Type 0, BuildingBlock: IZENUY_clean_sbu_0, # of connection points: 6
#     Edge 8, Type (0, 0), BuildingBlock: AJUNOK_clean_linker_0, # of connection points: 2
#     Edge 9, Type (0, 0), BuildingBlock: AJUNOK_clean_linker_0, # of connection points: 2
#     Edge 10, Type (0, 0), BuildingBlock: AJUNOK_clean_linker_0, # of connection points: 2
#     Edge 11, Type (0, 0), BuildingBlock: AJUNOK_clean_linker_0, # of connection points: 2
#     Edge 12, Type (0, 0), BuildingBlock: AJUNOK_clean_linker_0, # of connection points: 2
#     Edge 13, Type (0, 0), BuildingBlock: AJUNOK_clean_linker_0, # of connection points: 2
#     Edge 14, Type (0, 0), BuildingBlock: AJUNOK_clean_linker_0, # of connection points: 2
#     Edge 15, Type (0, 0), BuildingBlock: AJUNOK_clean_linker_0, # of connection points: 2
#     Edge 16, Type (0, 0), BuildingBlock: AJUNOK_clean_linker_0, # of connection points: 2
#     Edge 17, Type (0, 0), BuildingBlock: AJUNOK_clean_linker_0, # of connection points: 2
#     Edge 18, Type (0, 0), BuildingBlock: AJUNOK_clean_linker_0, # of connection points: 2
#     Edge 19, Type (0, 0), BuildingBlock: AJUNOK_clean_linker_0, # of connection points: 2
#     Edge 20, Type (0, 0), BuildingBlock: AJUNOK_clean_linker_0, # of connection points: 2
#     Edge 21, Type (0, 0), BuildingBlock: AJUNOK_clean_linker_0, # of connection points: 2
#     Edge 22, Type (0, 0), BuildingBlock: AJUNOK_clean_linker_0, # of connection points: 2
#     Edge 23, Type (0, 0), BuildingBlock: AJUNOK_clean_linker_0, # of connection points: 2
#     Edge 24, Type (0, 0), BuildingBlock: AJUNOK_clean_linker_0, # of connection points: 2
#     Edge 25, Type (0, 0), BuildingBlock: AJUNOK_clean_linker_0, # of connection points: 2
#     Edge 26, Type (0, 0), BuildingBlock: AJUNOK_clean_linker_0, # of connection points: 2
#     Edge 27, Type (0, 0), BuildingBlock: AJUNOK_clean_linker_0, # of connection points: 2
#     Edge 28, Type (0, 0), BuildingBlock: AJUNOK_clean_linker_0, # of connection points: 2
#     Edge 29, Type (0, 0), BuildingBlock: AJUNOK_clean_linker_0, # of connection points: 2
#     Edge 30, Type (0, 0), BuildingBlock: AJUNOK_clean_linker_0, # of connection points: 2
#     Edge 31, Type (0, 0), BuildingBlock: AJUNOK_clean_linker_0, # of connection points: 2
# Relax obj value: 0.251
# Max RMSD: 0.250
# Mean RMSD: 0.249
data_MOF--net-osc--node1-IZENUY_clean_sbu_0--edge1-AJUNOK_clean_linker_0
_symmetry_space_group_name_H-M    P1
_symmetry_Int_Tables_number       1
_symmetry_cell_setting            triclinic
loop_
_symmetry_equiv_pos_as_xyz
'x, y, z'
_cell_length_a     21.466952
_cell_length_b     34.665284
_cell_length_c     19.233144
_cell_angle_alpha  90.015812
_cell_angle_beta   90.207577
_cell_angle_gamma 89.846129
loop_
_atom_site_label
_atom_site_type_symbol
_atom_site_fract_x
_atom_site_fract_y
_atom_site_fract_z
_atom_type_partial_charge
Fe0 Fe 0.27407 0.06139 0.40276 0.0
Fe1 Fe 0.29513 0.12413 0.29338 0.0
O2 O 0.30901 0.10511 0.37728 0.0
Fe3 Fe 0.35821 0.1308 0.43482 0.0
O4 O 0.412 0.09163 0.43892 0.0
O5 O 0.34395 0.04485 0.45436 0.0
O6 O 0.30538 0.03455 0.32934 0.0
C7 C 0.29423 0.04327 0.26699 0.0
C8 C 0.26742 0.09814 0.52705 0.0
O9 O 0.27952 0.07746 0.25083 0.0
C10 C 0.29729 0.19135 0.37729 0.0
O11 O 0.1998 0.07246 0.35625 0.0
O12 O 0.21475 0.13077 0.31284 0.0
O13 O 0.31947 0.11448 0.5164 0.0
O14 O 0.23813 0.08377 0.47699 0.0
C15 C 0.4194 0.13202 0.30693 0.0
O16 O 0.30638 0.17498 0.31911 0.0
O17 O 0.30716 0.17283 0.43288 0.0
C18 C 0.17867 0.10449 0.3328 0.0
O19 O 0.37584 0.11751 0.27176 0.0
O20 O 0.40778 0.14925 0.36391 0.0
C21 C 0.3999 0.05767 0.4563 0.0
Fe22 Fe 0.22598 0.98913 0.90133 0.0
Fe23 Fe 0.20439 0.92698 0.79013 0.0
O24 O 0.19333 0.94474 0.87547 0.0
Fe25 Fe 0.14895 0.9168 0.93406 0.0
O26 O 0.09247 0.95395 0.94231 0.0
O27 O 0.15642 1.00318 0.95547 0.0
O28 O 0.19103 1.01598 0.82957 0.0
C29 C 0.20119 1.0082 0.76664 0.0
C30 C 0.23909 0.95176 1.02447 0.0
O31 O 0.21544 0.97428 0.74873 0.0
C32 C 0.21164 0.85906 0.8716 0.0
O33 O 0.2995 0.98034 0.8525 0.0
O34 O 0.286 0.92252 0.80498 0.0
O35 O 0.18887 0.93332 1.01472 0.0
O36 O 0.26573 0.96716 0.97383 0.0
C37 C 0.08152 0.91563 0.81018 0.0
O38 O 0.19812 0.87556 0.81451 0.0
O39 O 0.20359 0.8769 0.9281 0.0
C40 C 0.32089 0.94972 0.82404 0.0
O41 O 0.12204 0.93176 0.77301 0.0
O42 O 0.09824 0.89758 0.8647 0.0
C43 C 0.10275 0.9875 0.96314 0.0
Fe44 Fe 0.77303 0.48837 0.16638 0.0
Fe45 Fe 0.80202 0.4266 0.27604 0.0
O46 O 0.81043 0.44512 0.19104 0.0
Fe47 Fe 0.85651 0.41895 0.13137 0.0
O48 O 0.9092 0.45794 0.12342 0.0
O49 O 0.84046 0.50496 0.11087 0.0
O50 O 0.80665 0.51609 0.2376 0.0
C51 C 0.79957 0.50758 0.30069 0.0
C52 C 0.76151 0.45085 0.04323 0.0
O53 O 0.78756 0.47333 0.31845 0.0
C54 C 0.799 0.35926 0.19354 0.0
O55 O 0.70094 0.47682 0.21664 0.0
O56 O 0.72129 0.41939 0.26155 0.0
O57 O 0.81402 0.4346 0.05165 0.0
O58 O 0.73432 0.46523 0.09452 0.0
C59 C 0.92519 0.41911 0.25459 0.0
O60 O 0.81255 0.37565 0.25065 0.0
O61 O 0.80569 0.37735 0.13715 0.0
C62 C 0.68291 0.44483 0.24317 0.0
O63 O 0.88371 0.4338 0.29244 0.0
O64 O 0.90979 0.40101 0.19965 0.0
C65 C 0.89552 0.49106 0.10262 0.0
Fe66 Fe 0.70478 0.62336 0.77694 0.0
Fe67 Fe 0.64853 0.63014 0.63202 0.0
O68 O 0.69544 0.60445 0.69212 0.0
Fe69 Fe 0.73195 0.56086 0.66805 0.0
O70 O 0.69824 0.53379 0.73944 0.0
O71 O 0.71828 0.57667 0.82002 0.0
O72 O 0.62278 0.6168 0.79344 0.0
C73 C 0.58099 0.63113 0.75523 0.0
C74 C 0.82342 0.60325 0.74564 0.0
O75 O 0.5962 0.6489 0.70006 0.0
C76 C 0.74272 0.59739 0.54406 0.0
O77 O 0.69492 0.67429 0.75034 0.0
O78 O 0.6996 0.67181 0.63666 0.0
O79 O 0.80434 0.57184 0.71801 0.0
O80 O 0.78631 0.62967 0.76331 0.0
C81 C 0.60814 0.55712 0.60955 0.0
O82 O 0.69012 0.61361 0.5523 0.0
O83 O 0.77034 0.58342 0.59568 0.0
C84 C 0.70619 0.69061 0.69251 0.0
O85 O 0.59511 0.59116 0.62559 0.0
O86 O 0.66413 0.54434 0.61363 0.0
C87 C 0.70543 0.54248 0.80241 0.0
Fe88 Fe 0.72886 0.98889 0.67566 0.0
Fe89 Fe 0.64648 0.92012 0.63646 0.0
O90 O 0.6925 0.94523 0.69795 0.0
Fe91 Fe 0.70192 0.92551 0.78204 0.0
O92 O 0.71514 0.97198 0.82642 0.0
O93 O 0.69398 1.01542 0.74709 0.0
O94 O 0.66159 1.00583 0.62019 0.0
C95 C 0.60568 0.99318 0.61488 0.0
C96 C 0.82035 0.94581 0.75211 0.0
O97 O 0.59265 0.95914 0.63061 0.0
C98 C 0.70434 0.85911 0.69556 0.0
O99 O 0.76821 0.9663 0.6043 0.0
O100 O 0.68873 0.93744 0.55761 0.0
O101 O 0.78335 0.91918 0.76808 0.0
O102 O 0.80087 0.97768 0.7264 0.0
C103 C 0.57853 0.91807 0.75934 0.0
O104 O 0.69796 0.87847 0.64032 0.0
O105 O 0.69242 0.87481 0.75383 0.0
C106 C 0.74152 0.95354 0.5513 0.0
O107 O 0.59395 0.90082 0.70361 0.0
O108 O 0.62002 0.93193 0.79837 0.0
C109 C 0.70184 1.00635 0.80982 0.0
Fe110 Fe 0.79641 0.12528 0.2811 0.0
Fe111 Fe 0.77354 0.06187 0.17342 0.0
O112 O 0.80844 0.10589 0.1972 0.0
Fe113 Fe 0.85549 0.13175 0.13806 0.0
O114 O 0.90723 0.15035 0.20761 0.0
O115 O 0.87747 0.11862 0.3007 0.0
O116 O 0.78184 0.07898 0.32465 0.0
C117 C 0.79659 0.04479 0.30894 0.0
C118 C 0.79563 0.19192 0.19669 0.0
O119 O 0.80669 0.03565 0.24668 0.0
C120 C 0.76264 0.0983 0.0489 0.0
O121 O 0.71567 0.13175 0.26314 0.0
O122 O 0.70026 0.0731 0.22096 0.0
O123 O 0.8038 0.17321 0.14121 0.0
O124 O 0.80708 0.17596 0.25469 0.0
C125 C 0.89737 0.05931 0.11401 0.0
O126 O 0.73553 0.08349 0.09971 0.0
O127 O 0.81457 0.11514 0.05776 0.0
C128 C 0.67943 0.10535 0.24369 0.0
O129 O 0.84245 0.04532 0.12081 0.0
O130 O 0.90945 0.0931 0.13215 0.0
C131 C 0.92004 0.13294 0.2642 0.0
Fe132 Fe 0.20593 0.62413 0.78765 0.0
Fe133 Fe 0.22727 0.56072 0.89629 0.0
O134 O 0.19484 0.60562 0.87254 0.0
Fe135 Fe 0.15086 0.63329 0.93236 0.0
O136 O 0.09915 0.65256 0.86357 0.0
O137 O 0.12373 0.61952 0.77043 0.0
O138 O 0.21735 0.57728 0.74472 0.0
C139 C 0.20164 0.54348 0.76127 0.0
C140 C 0.21257 0.69146 0.87024 0.0
O141 O 0.19159 0.53514 0.82381 0.0
C142 C 0.24191 0.59722 1.02067 0.0
O143 O 0.28758 0.62839 0.80289 0.0
O144 O 0.30094 0.56981 0.84755 0.0
O145 O 0.2052 0.67321 0.92634 0.0
O146 O 0.19889 0.67531 0.81301 0.0
C147 C 0.10413 0.56202 0.95805 0.0
O148 O 0.26741 0.58121 0.96978 0.0
O149 O 0.19204 0.61637 1.01193 0.0
C150 C 0.32254 0.60082 0.82072 0.0
O151 O 0.15771 0.54624 0.94947 0.0
O152 O 0.09433 0.59643 0.94174 0.0
C153 C 0.08285 0.63478 0.80851 0.0
Fe154 Fe 0.27724 0.48988 0.39774 0.0
Fe155 Fe 0.35849 0.41949 0.43356 0.0
O156 O 0.31164 0.44554 0.37397 0.0
Fe157 Fe 0.29987 0.42629 0.28992 0.0
O158 O 0.28733 0.47297 0.24629 0.0
O159 O 0.31144 0.51593 0.3253 0.0
O160 O 0.34609 0.50561 0.45137 0.0
C161 C 0.40167 0.49214 0.45452 0.0
C162 C 0.18316 0.44862 0.32268 0.0
O163 O 0.41325 0.45787 0.43856 0.0
C164 C 0.29759 0.35948 0.37531 0.0
O165 O 0.23855 0.46825 0.47072 0.0
O166 O 0.31808 0.43683 0.5134 0.0
O167 O 0.2187 0.42124 0.30609 0.0
O168 O 0.204 0.47996 0.34875 0.0
C169 C 0.4233 0.41621 0.30786 0.0
O170 O 0.30632 0.37829 0.43076 0.0
O171 O 0.30837 0.37534 0.31702 0.0
C172 C 0.26571 0.45333 0.52177 0.0
O173 O 0.4093 0.39978 0.36484 0.0
O174 O 0.38141 0.43148 0.27114 0.0
C175 C 0.3022 0.50705 0.26268 0.0
C176 C 0.49285 1.0079 0.59823 0.0
C177 C 0.55523 1.0138 0.57726 0.0
C178 C 0.44215 1.01948 0.55665 0.0
C179 C 0.45182 0.03741 0.49224 0.0
H180 H 0.48316 0.99371 0.64717 0.0
H181 H 0.39531 1.01552 0.57614 0.0
S182 S 0.60546 0.05712 0.41093 0.0
N183 N 0.62328 0.037 0.48623 0.0
N184 N 0.5286 0.05925 0.4081 0.0
C185 C 0.51396 0.04306 0.47028 0.0
C186 C 0.56545 0.03134 0.51278 0.0
C187 C 0.99493 0.06218 0.04342 0.0
C188 C 0.94821 0.03953 0.07561 0.0
C189 C 0.04553 0.04553 1.00851 0.0
C190 C 0.0515 1.00548 1.00386 0.0
H191 H 0.99233 0.09339 0.04458 0.0
H192 H 0.0794 0.06416 0.98395 0.0
S193 S 0.94522 0.93309 0.08414 0.0
N194 N 0.91329 0.97509 0.10339 0.0
N195 N 0.00819 0.94316 0.03869 0.0
C196 C 0.0057 0.98236 0.03701 0.0
C197 C 0.95407 0.99949 0.07234 0.0
C198 C 0.00846 0.56563 0.03212 0.0
C199 C 0.0517 0.5428 0.99435 0.0
C200 C 0.95607 0.54949 0.06456 0.0
C201 C 0.94477 0.50985 0.0604 0.0
H202 H 0.01554 0.59642 0.03752 0.0
H203 H 0.92557 0.56789 0.09475 0.0
S204 S 0.03911 0.43812 0.96123 0.0
N205 N 0.07681 0.47915 0.951 0.0
N206 N 0.97829 0.44844 1.01019 0.0
C207 C 0.98649 0.4869 1.02067 0.0
C208 C 0.04004 0.50338 0.98841 0.0
C209 C 0.49515 0.54303 0.59411 0.0
C210 C 0.55737 0.53654 0.57297 0.0
C211 C 0.44427 0.53112 0.55336 0.0
C212 C 0.4537 0.51239 0.48963 0.0
H213 H 0.48574 0.55791 0.6425 0.0
H214 H 0.3975 0.53547 0.57295 0.0
S215 S 0.60687 0.49073 0.40859 0.0
N216 N 0.62505 0.51167 0.48295 0.0
N217 N 0.53 0.48905 0.40603 0.0
C218 C 0.51568 0.50611 0.46758 0.0
C219 C 0.56733 0.51805 0.50935 0.0
C220 C 0.32878 1.00803 0.16059 0.0
C221 C 0.28547 1.01251 0.21433 0.0
C222 C 0.31589 0.98464 0.10273 0.0
C223 C 0.25815 0.96556 0.09507 0.0
H224 H 0.37166 1.02422 0.16151 0.0
H225 H 0.34994 0.98371 0.06131 0.0
S226 S 0.12998 0.96664 0.22415 0.0
N227 N 0.18432 0.99422 0.25923 0.0
N228 N 0.15875 0.95121 0.1496 0.0
C229 C 0.21576 0.96813 0.15069 0.0
C230 C 0.22955 0.99158 0.21024 0.0
C231 C 0.1697 0.04896 0.66497 0.0
C232 C 0.21369 0.03966 0.71639 0.0
C233 C 0.18608 0.07172 0.60731 0.0
C234 C 0.2475 0.0855 0.59797 0.0
H235 H 0.12332 0.03679 0.66728 0.0
H236 H 0.15127 0.07627 0.5672 0.0
S237 S 0.37891 0.07062 0.72115 0.0
N238 N 0.31992 0.04774 0.75727 0.0
N239 N 0.35118 0.08985 0.64877 0.0
C240 C 0.29079 0.07833 0.65166 0.0
C241 C 0.27385 0.05536 0.71061 0.0
C242 C 0.72148 0.58084 0.41832 0.0
C243 C 0.76418 0.58412 0.47393 0.0
C244 C 0.73534 0.55834 0.35922 0.0
C245 C 0.79231 0.53839 0.35347 0.0
H246 H 0.67526 0.59318 0.42265 0.0
H247 H 0.69956 0.55439 0.32 0.0
S248 S 0.92378 0.54187 0.4782 0.0
N249 N 0.86949 0.56919 0.514 0.0
N250 N 0.89383 0.52632 0.40415 0.0
C251 C 0.83699 0.54364 0.40575 0.0
C252 C 0.82347 0.56682 0.46543 0.0
C253 C 0.7842 0.46915 0.91933 0.0
C254 C 0.7405 0.46433 0.97318 0.0
C255 C 0.77068 0.49243 0.86118 0.0
C256 C 0.71308 0.5116 0.85472 0.0
H257 H 0.83081 0.45743 0.92455 0.0
H258 H 0.80699 0.49748 0.82329 0.0
S259 S 0.5794 0.50419 0.9747 0.0
N260 N 0.63404 0.47709 1.01082 0.0
N261 N 0.61008 0.52137 0.90246 0.0
C262 C 0.66751 0.50484 0.90504 0.0
C263 C 0.68077 0.4809 0.96382 0.0
C264 C 0.78558 0.07774 0.92625 0.0
C265 C 0.74156 0.085 0.97884 0.0
C266 C 0.77089 0.05411 0.86892 0.0
C267 C 0.71172 0.03707 0.86202 0.0
H268 H 0.83309 0.08773 0.93203 0.0
H269 H 0.80722 0.04724 0.83193 0.0
S270 S 0.57725 0.0511 0.97907 0.0
N271 N 0.63369 0.07664 1.01506 0.0
N272 N 0.60733 0.03184 0.90812 0.0
C273 C 0.66608 0.04624 0.91108 0.0
C274 C 0.68062 0.07047 0.96907 0.0
C275 C 0.72627 0.96697 0.42292 0.0
C276 C 0.76439 0.96829 0.48277 0.0
C277 C 0.73975 0.98962 0.36391 0.0
C278 C 0.7912 1.01474 0.36313 0.0
H279 H 0.68362 0.95035 0.42319 0.0
H280 H 0.70731 0.9895 0.32062 0.0
S281 S 0.90963 0.02612 0.50176 0.0
N282 N 0.86094 0.99363 0.53253 0.0
N283 N 0.88218 0.03794 0.42441 0.0
C284 C 0.83133 1.01479 0.4205 0.0
C285 C 0.81916 0.99096 0.47939 0.0
C286 C 0.27202 0.49633 0.70285 0.0
C287 C 0.21206 0.51239 0.70993 0.0
C288 C 0.28772 0.47341 0.64501 0.0
C289 C 0.24403 0.46603 0.59184 0.0
H290 H 0.30819 0.50358 0.74003 0.0
H291 H 0.33568 0.46418 0.63928 0.0
S292 S 0.07836 0.49779 0.59104 0.0
N293 N 0.1075 0.51668 0.66297 0.0
N294 N 0.13591 0.47334 0.55482 0.0
C295 C 0.18248 0.47961 0.60153 0.0
C296 C 0.16682 0.50302 0.66022 0.0
C297 C 0.32104 0.56532 0.09789 0.0
C298 C 0.26265 0.58401 0.09106 0.0
C299 C 0.33548 0.5423 0.15593 0.0
C300 C 0.29283 0.5378 0.2103 0.0
H301 H 0.35438 0.56628 0.05578 0.0
H302 H 0.37903 0.52642 0.15664 0.0
S303 S 0.13621 0.58253 0.22226 0.0
N304 N 0.16365 0.59795 0.14713 0.0
N305 N 0.19179 0.5555 0.25668 0.0
C306 C 0.23636 0.55837 0.20698 0.0
C307 C 0.22117 0.58148 0.14748 0.0
C308 C 0.53093 0.15061 0.31101 0.0
C309 C 0.48436 0.12651 0.2844 0.0
C310 C 0.59353 0.14364 0.2965 0.0
C311 C 0.61231 0.1119 0.25551 0.0
H312 H 0.5191 0.17482 0.34413 0.0
H313 H 0.62747 0.16307 0.31912 0.0
S314 S 0.50823 0.04024 0.1726 0.0
N315 N 0.46078 0.06984 0.21408 0.0
N316 N 0.5791 0.05672 0.18714 0.0
C317 C 0.56619 0.08786 0.2276 0.0
C318 C 0.50209 0.0952 0.24186 0.0
C319 C 0.93364 0.95527 0.72722 0.0
C320 C 0.88671 0.93957 0.76902 0.0
C321 C 0.99649 0.94628 0.73946 0.0
C322 C 0.01459 0.92147 0.79422 0.0
H323 H 0.9217 0.97394 0.68399 0.0
H324 H 0.03112 0.95928 0.70608 0.0
S325 S 0.9089 0.87459 0.92093 0.0
N326 N 0.86231 0.89932 0.86906 0.0
N327 N 0.97988 0.88229 0.89162 0.0
C328 C 0.96785 0.90598 0.83681 0.0
C329 C 0.90411 0.91512 0.8244 0.0
C330 C 0.06983 0.4548 0.34865 0.0
C331 C 0.11751 0.44445 0.30273 0.0
C332 C 0.00771 0.4456 0.33341 0.0
C333 C 0.99144 0.42592 0.27164 0.0
H334 H 0.08074 0.46892 0.39746 0.0
H335 H 0.97229 0.45394 0.37049 0.0
S336 S 0.10001 0.39606 0.13158 0.0
N337 N 0.14487 0.41606 0.19124 0.0
N338 N 0.02857 0.3987 0.16254 0.0
C339 C 0.039 0.41647 0.22454 0.0
C340 C 0.10191 0.42585 0.24005 0.0
C341 C 0.43606 0.59602 0.84925 0.0
C342 C 0.38851 0.60445 0.80144 0.0
C343 C 0.49817 0.60554 0.83452 0.0
C344 C 0.51463 0.62382 0.77155 0.0
H345 H 0.42496 0.58326 0.8991 0.0
H346 H 0.53344 0.59869 0.87304 0.0
S347 S 0.4068 0.6478 0.62629 0.0
N348 N 0.36183 0.62902 0.68676 0.0
N349 N 0.47786 0.64724 0.65922 0.0
C350 C 0.46726 0.63124 0.72263 0.0
C351 C 0.40443 0.62137 0.73749 0.0
C352 C 0.4958 0.9431 0.83911 0.0
C353 C 0.51231 0.92573 0.77529 0.0
C354 C 0.43388 0.95311 0.85371 0.0
C355 C 0.3867 0.9461 0.8049 0.0
H356 H 0.53086 0.94883 0.87841 0.0
H357 H 0.4226 0.96505 0.90421 0.0
S358 S 0.40537 0.90578 0.62744 0.0
N359 N 0.47613 0.9048 0.66116 0.0
N360 N 0.36032 0.92405 0.68852 0.0
C361 C 0.40268 0.93021 0.7401 0.0
C362 C 0.46532 0.91979 0.72537 0.0
C363 C 0.0909 0.14805 0.29961 0.0
C364 C 0.11143 0.11088 0.31996 0.0
C365 C 0.02887 0.15517 0.28148 0.0
C366 C 0.98489 0.12561 0.28426 0.0
H367 H 0.12312 0.172 0.29672 0.0
H368 H 0.0152 0.18397 0.26557 0.0
S369 S 0.01358 1.02317 0.33053 0.0
N370 N 0.08203 0.04414 0.3402 0.0
N371 N 0.9652 0.05761 0.30549 0.0
C372 C 0.00415 0.08844 0.30458 0.0
C373 C 0.06746 0.08107 0.32284 0.0
C374 C 0.99905 0.60815 0.7312 0.0
C375 C 0.01614 0.62829 0.79224 0.0
C376 C 0.93677 0.59855 0.71732 0.0
C377 C 0.88948 0.60893 0.76382 0.0
H378 H 0.03403 0.59952 0.6938 0.0
H379 H 0.92544 0.58384 0.6692 0.0
S380 S 0.90917 0.65862 0.93352 0.0
N381 N 0.98015 0.65615 0.90123 0.0
N382 N 0.86359 0.63814 0.87507 0.0
C383 C 0.90586 0.62826 0.82557 0.0
C384 C 0.96901 0.63801 0.83975 0.0
C385 C 0.50611 0.4499 0.24012 0.0
C386 C 0.48907 0.42062 0.28734 0.0
C387 C 0.56881 0.45797 0.22614 0.0
C388 C 0.61662 0.43684 0.25849 0.0
H389 H 0.47082 0.46757 0.2152 0.0
H390 H 0.57982 0.48088 0.18994 0.0
S391 S 0.59622 0.35634 0.38506 0.0
N392 N 0.52477 0.36988 0.36487 0.0
N393 N 0.64218 0.38473 0.33966 0.0
C394 C 0.5999 0.4069 0.30492 0.0
C395 C 0.53628 0.39888 0.31908 0.0
C396 C 0.30488 0.25535 0.439 0.0
C397 C 0.28825 0.23402 0.37939 0.0
C398 C 0.30491 0.29594 0.43851 0.0
C399 C 0.28835 0.31689 0.37837 0.0
H400 H 0.32064 0.24068 0.48559 0.0
H401 H 0.32072 0.3109 0.48474 0.0
S402 S 0.23087 0.275 0.21251 0.0
N403 N 0.2474 0.23716 0.26137 0.0
N404 N 0.24762 0.31311 0.26045 0.0
C405 C 0.2678 0.29593 0.31997 0.0
C406 C 0.2677 0.25467 0.32048 0.0
C407 C 0.21106 0.79535 0.9339 0.0
C408 C 0.22208 0.8166 0.87273 0.0
C409 C 0.21131 0.75485 0.93359 0.0
C410 C 0.22256 0.73391 0.8721 0.0
H411 H 0.19928 0.80999 0.98186 0.0
H412 H 0.19969 0.73997 0.98131 0.0
S413 S 0.26517 0.77566 0.70101 0.0
N414 N 0.2526 0.81352 0.75116 0.0
N415 N 0.25305 0.73756 0.75058 0.0
C416 C 0.23801 0.75478 0.8118 0.0
C417 C 0.23777 0.79602 0.81211 0.0
C418 C 0.80143 0.25495 0.13284 0.0
C419 C 0.78682 0.23441 0.1938 0.0
C420 C 0.80235 0.29542 0.13211 0.0
C421 C 0.78875 0.31693 0.19232 0.0
H422 H 0.81505 0.23974 0.08607 0.0
H423 H 0.81661 0.30981 0.08481 0.0
S424 S 0.7366 0.27722 0.36154 0.0
N425 N 0.75047 0.2388 0.31322 0.0
N426 N 0.75238 0.31474 0.31185 0.0
C427 C 0.76991 0.29681 0.25215 0.0
C428 C 0.76888 0.25562 0.25288 0.0
C429 C 0.71476 0.79478 0.75416 0.0
C430 C 0.71306 0.81638 0.69214 0.0
C431 C 0.71525 0.75434 0.75341 0.0
C432 C 0.71404 0.73341 0.69062 0.0
H433 H 0.71386 0.80914 0.80417 0.0
H434 H 0.71468 0.73944 0.8029 0.0
S435 S 0.71709 0.77587 0.51323 0.0
N436 N 0.71589 0.81356 0.56568 0.0
N437 N 0.71678 0.73761 0.5643 0.0
C438 C 0.7159 0.75456 0.62802 0.0
C439 C 0.71541 0.79592 0.62878 0.0
loop_
_geom_bond_atom_site_label_1
_geom_bond_atom_site_label_2
_geom_bond_distance
_geom_bond_site_symmetry_2
_ccdc_geom_bond_type
Fe0 O2 1.918 . S
Fe0 O5 1.997 . S
Fe0 O6 2.002 . S
Fe0 O11 1.976 . S
Fe0 O14 1.996 . S
Fe1 O2 1.918 . S
Fe1 O9 1.997 . S
Fe1 O12 1.996 . S
Fe1 O16 1.976 . S
Fe1 O19 2.002 . S
O2 Fe0 1.918 . S
O2 Fe1 1.918 . S
O2 Fe3 1.918 . S
Fe3 O2 1.918 . S
Fe3 O4 2.002 . S
Fe3 O13 1.976 . S
Fe3 O17 1.996 . S
Fe3 O20 1.997 . S
O4 Fe3 2.002 . S
O4 C21 1.295 . S
O5 Fe0 1.997 . S
O5 C21 1.235 . S
O6 Fe0 2.002 . S
O6 C7 1.295 . S
C7 O6 1.295 . S
C7 O9 1.235 . S
C8 O13 1.287 . S
C8 O14 1.255 . S
O9 Fe1 1.997 . S
O9 C7 1.235 . S
C10 O16 1.287 . S
C10 O17 1.255 . S
O11 Fe0 1.976 . S
O11 C18 1.287 . S
O12 Fe1 1.996 . S
O12 C18 1.255 . S
O13 Fe3 1.976 . S
O13 C8 1.287 . S
O14 Fe0 1.996 . S
O14 C8 1.255 . S
C15 O19 1.295 . S
C15 O20 1.235 . S
O16 Fe1 1.976 . S
O16 C10 1.287 . S
O17 Fe3 1.996 . S
O17 C10 1.255 . S
C18 O11 1.287 . S
C18 O12 1.255 . S
O19 Fe1 2.002 . S
O19 C15 1.295 . S
O20 Fe3 1.997 . S
O20 C15 1.235 . S
C21 O4 1.295 . S
C21 O5 1.235 . S
Fe22 O24 1.918 . S
Fe22 O27 1.997 . S
Fe22 O28 2.002 . S
Fe22 O33 1.976 . S
Fe22 O36 1.996 . S
Fe23 O24 1.918 . S
Fe23 O31 1.997 . S
Fe23 O34 1.996 . S
Fe23 O38 1.976 . S
Fe23 O41 2.002 . S
O24 Fe22 1.918 . S
O24 Fe23 1.918 . S
O24 Fe25 1.918 . S
Fe25 O24 1.918 . S
Fe25 O26 2.002 . S
Fe25 O35 1.976 1_556 S
Fe25 O39 1.996 . S
Fe25 O42 1.997 . S
O26 Fe25 2.002 . S
O26 C43 1.295 . S
O27 Fe22 1.997 . S
O27 C43 1.235 . S
O28 Fe22 2.002 . S
O28 C29 1.295 . S
C29 O28 1.295 . S
C29 O31 1.235 . S
C30 O35 1.287 . S
C30 O36 1.255 1_554 S
O31 Fe23 1.997 . S
O31 C29 1.235 . S
C32 O38 1.287 . S
C32 O39 1.255 . S
O33 Fe22 1.976 . S
O33 C40 1.287 . S
O34 Fe23 1.996 . S
O34 C40 1.255 . S
O35 Fe25 1.976 1_554 S
O35 C30 1.287 . S
O36 Fe22 1.996 . S
O36 C30 1.255 1_556 S
C37 O41 1.295 . S
C37 O42 1.235 . S
O38 Fe23 1.976 . S
O38 C32 1.287 . S
O39 Fe25 1.996 . S
O39 C32 1.255 . S
C40 O33 1.287 . S
C40 O34 1.255 . S
O41 Fe23 2.002 . S
O41 C37 1.295 . S
O42 Fe25 1.997 . S
O42 C37 1.235 . S
C43 O26 1.295 . S
C43 O27 1.235 . S
Fe44 O46 1.918 . S
Fe44 O49 1.997 . S
Fe44 O50 2.002 . S
Fe44 O55 1.976 . S
Fe44 O58 1.996 . S
Fe45 O46 1.918 . S
Fe45 O53 1.997 . S
Fe45 O56 1.996 . S
Fe45 O60 1.976 . S
Fe45 O63 2.002 . S
O46 Fe44 1.918 . S
O46 Fe45 1.918 . S
O46 Fe47 1.918 . S
Fe47 O46 1.918 . S
Fe47 O48 2.002 . S
Fe47 O57 1.976 1_554 S
Fe47 O61 1.996 . S
Fe47 O64 1.997 . S
O48 Fe47 2.002 . S
O48 C65 1.295 . S
O49 Fe44 1.997 . S
O49 C65 1.235 . S
O50 Fe44 2.002 . S
O50 C51 1.295 . S
C51 O50 1.295 . S
C51 O53 1.235 . S
C52 O57 1.287 . S
C52 O58 1.255 1_556 S
O53 Fe45 1.997 . S
O53 C51 1.235 . S
C54 O60 1.287 . S
C54 O61 1.255 . S
O55 Fe44 1.976 . S
O55 C62 1.287 . S
O56 Fe45 1.996 . S
O56 C62 1.255 . S
O57 Fe47 1.976 1_556 S
O57 C52 1.287 . S
O58 Fe44 1.996 . S
O58 C52 1.255 1_554 S
C59 O63 1.295 . S
C59 O64 1.235 . S
O60 Fe45 1.976 . S
O60 C54 1.287 . S
O61 Fe47 1.996 . S
O61 C54 1.255 . S
C62 O55 1.287 . S
C62 O56 1.255 . S
O63 Fe45 2.002 . S
O63 C59 1.295 . S
O64 Fe47 1.997 . S
O64 C59 1.235 . S
C65 O48 1.295 . S
C65 O49 1.235 . S
Fe66 O68 1.918 . S
Fe66 O71 1.997 . S
Fe66 O72 2.002 . S
Fe66 O77 1.976 . S
Fe66 O80 1.996 . S
Fe67 O68 1.918 . S
Fe67 O75 1.997 . S
Fe67 O78 1.996 . S
Fe67 O82 1.976 . S
Fe67 O85 2.002 . S
O68 Fe66 1.918 . S
O68 Fe67 1.918 . S
O68 Fe69 1.918 . S
Fe69 O68 1.918 . S
Fe69 O70 2.002 . S
Fe69 O79 1.976 . S
Fe69 O83 1.996 . S
Fe69 O86 1.997 . S
O70 Fe69 2.002 . S
O70 C87 1.295 . S
O71 Fe66 1.997 . S
O71 C87 1.235 . S
O72 Fe66 2.002 . S
O72 C73 1.295 . S
C73 O72 1.295 . S
C73 O75 1.235 . S
C74 O79 1.287 . S
C74 O80 1.255 . S
O75 Fe67 1.997 . S
O75 C73 1.235 . S
C76 O82 1.287 . S
C76 O83 1.255 . S
O77 Fe66 1.976 . S
O77 C84 1.287 . S
O78 Fe67 1.996 . S
O78 C84 1.255 . S
O79 Fe69 1.976 . S
O79 C74 1.287 . S
O80 Fe66 1.996 . S
O80 C74 1.255 . S
C81 O85 1.295 . S
C81 O86 1.235 . S
O82 Fe67 1.976 . S
O82 C76 1.287 . S
O83 Fe69 1.996 . S
O83 C76 1.255 . S
C84 O77 1.287 . S
C84 O78 1.255 . S
O85 Fe67 2.002 . S
O85 C81 1.295 . S
O86 Fe69 1.997 . S
O86 C81 1.235 . S
C87 O70 1.295 . S
C87 O71 1.235 . S
Fe88 O90 1.918 . S
Fe88 O93 1.997 . S
Fe88 O94 2.002 . S
Fe88 O99 1.976 . S
Fe88 O102 1.996 . S
Fe89 O90 1.918 . S
Fe89 O97 1.997 . S
Fe89 O100 1.996 . S
Fe89 O104 1.976 . S
Fe89 O107 2.002 . S
O90 Fe88 1.918 . S
O90 Fe89 1.918 . S
O90 Fe91 1.918 . S
Fe91 O90 1.918 . S
Fe91 O92 2.002 . S
Fe91 O101 1.976 . S
Fe91 O105 1.996 . S
Fe91 O108 1.997 . S
O92 Fe91 2.002 . S
O92 C109 1.295 . S
O93 Fe88 1.997 . S
O93 C109 1.235 . S
O94 Fe88 2.002 . S
O94 C95 1.295 . S
C95 O94 1.295 . S
C95 O97 1.235 . S
C96 O101 1.287 . S
C96 O102 1.255 . S
O97 Fe89 1.997 . S
O97 C95 1.235 . S
C98 O104 1.287 . S
C98 O105 1.255 . S
O99 Fe88 1.976 . S
O99 C106 1.287 . S
O100 Fe89 1.996 . S
O100 C106 1.255 . S
O101 Fe91 1.976 . S
O101 C96 1.287 . S
O102 Fe88 1.996 . S
O102 C96 1.255 . S
C103 O107 1.295 . S
C103 O108 1.235 . S
O104 Fe89 1.976 . S
O104 C98 1.287 . S
O105 Fe91 1.996 . S
O105 C98 1.255 . S
C106 O99 1.287 . S
C106 O100 1.255 . S
O107 Fe89 2.002 . S
O107 C103 1.295 . S
O108 Fe91 1.997 . S
O108 C103 1.235 . S
C109 O92 1.295 . S
C109 O93 1.235 . S
Fe110 O112 1.918 . S
Fe110 O115 1.997 . S
Fe110 O116 2.002 . S
Fe110 O121 1.976 . S
Fe110 O124 1.996 . S
Fe111 O112 1.918 . S
Fe111 O119 1.997 . S
Fe111 O122 1.996 . S
Fe111 O126 1.976 . S
Fe111 O129 2.002 . S
O112 Fe110 1.918 . S
O112 Fe111 1.918 . S
O112 Fe113 1.918 . S
Fe113 O112 1.918 . S
Fe113 O114 2.002 . S
Fe113 O123 1.976 . S
Fe113 O127 1.996 1_554 S
Fe113 O130 1.997 . S
O114 Fe113 2.002 . S
O114 C131 1.295 . S
O115 Fe110 1.997 . S
O115 C131 1.235 . S
O116 Fe110 2.002 . S
O116 C117 1.295 . S
C117 O116 1.295 . S
C117 O119 1.235 . S
C118 O123 1.287 . S
C118 O124 1.255 . S
O119 Fe111 1.997 . S
O119 C117 1.235 . S
C120 O126 1.287 1_556 S
C120 O127 1.255 . S
O121 Fe110 1.976 . S
O121 C128 1.287 . S
O122 Fe111 1.996 . S
O122 C128 1.255 . S
O123 Fe113 1.976 . S
O123 C118 1.287 . S
O124 Fe110 1.996 . S
O124 C118 1.255 . S
C125 O129 1.295 . S
C125 O130 1.235 . S
O126 Fe111 1.976 . S
O126 C120 1.287 1_554 S
O127 Fe113 1.996 1_556 S
O127 C120 1.255 . S
C128 O121 1.287 . S
C128 O122 1.255 . S
O129 Fe111 2.002 . S
O129 C125 1.295 . S
O130 Fe113 1.997 . S
O130 C125 1.235 . S
C131 O114 1.295 . S
C131 O115 1.235 . S
Fe132 O134 1.918 . S
Fe132 O137 1.997 . S
Fe132 O138 2.002 . S
Fe132 O143 1.976 . S
Fe132 O146 1.996 . S
Fe133 O134 1.918 . S
Fe133 O141 1.997 . S
Fe133 O144 1.996 . S
Fe133 O148 1.976 . S
Fe133 O151 2.002 . S
O134 Fe132 1.918 . S
O134 Fe133 1.918 . S
O134 Fe135 1.918 . S
Fe135 O134 1.918 . S
Fe135 O136 2.002 . S
Fe135 O145 1.976 . S
Fe135 O149 1.996 1_556 S
Fe135 O152 1.997 . S
O136 Fe135 2.002 . S
O136 C153 1.295 . S
O137 Fe132 1.997 . S
O137 C153 1.235 . S
O138 Fe132 2.002 . S
O138 C139 1.295 . S
C139 O138 1.295 . S
C139 O141 1.235 . S
C140 O145 1.287 . S
C140 O146 1.255 . S
O141 Fe133 1.997 . S
O141 C139 1.235 . S
C142 O148 1.287 1_554 S
C142 O149 1.255 . S
O143 Fe132 1.976 . S
O143 C150 1.287 . S
O144 Fe133 1.996 . S
O144 C150 1.255 . S
O145 Fe135 1.976 . S
O145 C140 1.287 . S
O146 Fe132 1.996 . S
O146 C140 1.255 . S
C147 O151 1.295 . S
C147 O152 1.235 . S
O148 Fe133 1.976 . S
O148 C142 1.287 1_556 S
O149 Fe135 1.996 1_554 S
O149 C142 1.255 . S
C150 O143 1.287 . S
C150 O144 1.255 . S
O151 Fe133 2.002 . S
O151 C147 1.295 . S
O152 Fe135 1.997 . S
O152 C147 1.235 . S
C153 O136 1.295 . S
C153 O137 1.235 . S
Fe154 O156 1.918 . S
Fe154 O159 1.997 . S
Fe154 O160 2.002 . S
Fe154 O165 1.976 . S
Fe154 O168 1.996 . S
Fe155 O156 1.918 . S
Fe155 O163 1.997 . S
Fe155 O166 1.996 . S
Fe155 O170 1.976 . S
Fe155 O173 2.002 . S
O156 Fe154 1.918 . S
O156 Fe155 1.918 . S
O156 Fe157 1.918 . S
Fe157 O156 1.918 . S
Fe157 O158 2.002 . S
Fe157 O167 1.976 . S
Fe157 O171 1.996 . S
Fe157 O174 1.997 . S
O158 Fe157 2.002 . S
O158 C175 1.295 . S
O159 Fe154 1.997 . S
O159 C175 1.235 . S
O160 Fe154 2.002 . S
O160 C161 1.295 . S
C161 O160 1.295 . S
C161 O163 1.235 . S
C162 O167 1.287 . S
C162 O168 1.255 . S
O163 Fe155 1.997 . S
O163 C161 1.235 . S
C164 O170 1.287 . S
C164 O171 1.255 . S
O165 Fe154 1.976 . S
O165 C172 1.287 . S
O166 Fe155 1.996 . S
O166 C172 1.255 . S
O167 Fe157 1.976 . S
O167 C162 1.287 . S
O168 Fe154 1.996 . S
O168 C162 1.255 . S
C169 O173 1.295 . S
C169 O174 1.235 . S
O170 Fe155 1.976 . S
O170 C164 1.287 . S
O171 Fe157 1.996 . S
O171 C164 1.255 . S
C172 O165 1.287 . S
C172 O166 1.255 . S
O173 Fe155 2.002 . S
O173 C169 1.295 . S
O174 Fe157 1.997 . S
O174 C169 1.235 . S
C175 O158 1.295 . S
C175 O159 1.235 . S
C176 C177 1.368 1_545 S
C176 C178 1.419 . S
C176 H180 0.930 . S
C177 C176 1.368 1_565 S
C177 C186 1.429 . S
C178 C176 1.419 . S
C178 C179 1.363 . S
C178 H181 0.929 . S
C179 C178 1.363 . S
C179 C185 1.429 . S
H180 C176 0.930 . S
H181 C178 0.929 . S
S182 N183 1.614 . S
S182 N184 1.610 . S
N183 S182 1.614 . S
N183 C186 1.349 1_545 S
N184 S182 1.610 . S
N184 C185 1.352 . S
C185 C179 1.429 . S
C185 N184 1.352 . S
C185 C186 1.434 1_545 S
C186 C177 1.429 . S
C186 N183 1.349 1_565 S
C186 C185 1.434 1_565 S
C187 C188 1.383 1_556 S
C187 C189 1.419 1_655 S
C187 H191 0.930 . S
C188 C187 1.383 1_554 S
C188 C197 1.415 1_545 S
C189 C187 1.419 1_455 S
C189 C190 1.363 1_545 S
C189 H192 0.929 . S
C190 C189 1.363 1_565 S
C190 C196 1.428 1_556 S
H191 C187 0.930 . S
H192 C189 0.929 . S
S193 N194 1.613 1_455 S
S193 N195 1.610 . S
N194 S193 1.613 1_655 S
N194 C197 1.350 . S
N195 S193 1.610 . S
N195 C196 1.351 . S
C196 C190 1.428 1_554 S
C196 N195 1.351 . S
C196 C197 1.434 1_455 S
C197 C188 1.415 1_565 S
C197 N194 1.350 . S
C197 C196 1.434 1_655 S
C198 C199 1.369 1_554 S
C198 C200 1.419 1_455 S
C198 H202 0.930 . S
C199 C198 1.369 1_556 S
C199 C208 1.429 . S
C200 C198 1.419 1_655 S
C200 C201 1.363 . S
C200 H203 0.929 . S
C201 C200 1.363 . S
C201 C207 1.428 1_554 S
H202 C198 0.930 . S
H203 C200 0.929 . S
S204 N205 1.613 . S
S204 N206 1.610 . S
N205 S204 1.613 . S
N205 C208 1.350 1_655 S
N206 S204 1.610 . S
N206 C207 1.351 . S
C207 C201 1.428 1_556 S
C207 N206 1.351 . S
C207 C208 1.434 1_655 S
C208 C199 1.429 . S
C208 N205 1.350 1_455 S
C208 C207 1.434 1_455 S
C209 C210 1.369 . S
C209 C211 1.419 . S
C209 H213 0.930 . S
C210 C209 1.369 . S
C210 C219 1.429 . S
C211 C209 1.419 . S
C211 C212 1.363 . S
C211 H214 0.929 . S
C212 C211 1.363 . S
C212 C218 1.428 . S
H213 C209 0.930 . S
H214 C211 0.929 . S
S215 N216 1.613 . S
S215 N217 1.610 . S
N216 S215 1.613 . S
N216 C219 1.350 . S
N217 S215 1.610 . S
N217 C218 1.351 . S
C218 C212 1.428 . S
C218 N217 1.351 . S
C218 C219 1.434 . S
C219 C210 1.429 . S
C219 N216 1.350 . S
C219 C218 1.434 . S
C220 C221 1.369 1_565 S
C220 C222 1.419 . S
C220 H224 0.930 . S
C221 C220 1.369 1_545 S
C221 C230 1.429 1_545 S
C222 C220 1.419 . S
C222 C223 1.363 . S
C222 H225 0.929 . S
C223 C222 1.363 . S
C223 C229 1.428 . S
H224 C220 0.930 . S
H225 C222 0.929 . S
S226 N227 1.613 . S
S226 N228 1.610 . S
N227 S226 1.613 . S
N227 C230 1.350 . S
N228 S226 1.610 . S
N228 C229 1.351 . S
C229 C223 1.428 . S
C229 N228 1.351 . S
C229 C230 1.434 . S
C230 C221 1.429 1_565 S
C230 N227 1.350 . S
C230 C229 1.434 . S
C231 C232 1.369 1_545 S
C231 C233 1.419 . S
C231 H235 0.930 . S
C232 C231 1.369 1_565 S
C232 C241 1.429 1_565 S
C233 C231 1.419 . S
C233 C234 1.363 . S
C233 H236 0.929 . S
C234 C233 1.363 . S
C234 C240 1.428 . S
H235 C231 0.930 . S
H236 C233 0.929 . S
S237 N238 1.613 . S
S237 N239 1.610 1_565 S
N238 S237 1.613 . S
N238 C241 1.350 1_565 S
N239 S237 1.610 1_545 S
N239 C240 1.351 . S
C240 C234 1.428 . S
C240 N239 1.351 . S
C240 C241 1.434 . S
C241 C232 1.429 1_545 S
C241 N238 1.350 1_545 S
C241 C240 1.434 . S
C242 C243 1.369 . S
C242 C244 1.419 . S
C242 H246 0.930 . S
C243 C242 1.369 . S
C243 C252 1.429 . S
C244 C242 1.419 . S
C244 C245 1.363 . S
C244 H247 0.929 . S
C245 C244 1.363 . S
C245 C251 1.428 . S
H246 C242 0.930 . S
H247 C244 0.929 . S
S248 N249 1.613 . S
S248 N250 1.610 . S
N249 S248 1.613 . S
N249 C252 1.350 . S
N250 S248 1.610 . S
N250 C251 1.351 . S
C251 C245 1.428 . S
C251 N250 1.351 . S
C251 C252 1.434 . S
C252 C243 1.429 . S
C252 N249 1.350 . S
C252 C251 1.434 . S
C253 C254 1.369 . S
C253 C255 1.419 . S
C253 H257 0.930 . S
C254 C253 1.369 . S
C254 C263 1.429 . S
C255 C253 1.419 . S
C255 C256 1.363 . S
C255 H258 0.929 . S
C256 C255 1.363 . S
C256 C262 1.428 . S
H257 C253 0.930 . S
H258 C255 0.929 . S
S259 N260 1.613 . S
S259 N261 1.610 . S
N260 S259 1.613 . S
N260 C263 1.350 . S
N261 S259 1.610 . S
N261 C262 1.351 . S
C262 C256 1.428 . S
C262 N261 1.351 . S
C262 C263 1.434 . S
C263 C254 1.429 . S
C263 N260 1.350 . S
C263 C262 1.434 . S
C264 C265 1.369 . S
C264 C266 1.419 . S
C264 H268 0.930 . S
C265 C264 1.369 . S
C265 C274 1.429 . S
C266 C264 1.419 . S
C266 C267 1.363 1_545 S
C266 H269 0.929 . S
C267 C266 1.363 1_565 S
C267 C273 1.428 . S
H268 C264 0.930 . S
H269 C266 0.929 . S
S270 N271 1.637 . S
S270 N272 1.610 . S
N271 S270 1.637 . S
N271 C274 1.340 1_565 S
N272 S270 1.610 . S
N272 C273 1.351 . S
C273 C267 1.428 . S
C273 N272 1.351 . S
C273 C274 1.434 1_565 S
C274 C265 1.429 . S
C274 N271 1.340 1_545 S
C274 C273 1.434 1_545 S
C275 C276 1.369 . S
C275 C277 1.419 . S
C275 H279 0.930 . S
C276 C275 1.369 . S
C276 C285 1.429 . S
C277 C275 1.419 . S
C277 C278 1.363 1_565 S
C277 H280 0.929 . S
C278 C277 1.363 1_545 S
C278 C284 1.428 . S
H279 C275 0.930 . S
H280 C277 0.929 . S
S281 N282 1.613 1_545 S
S281 N283 1.610 . S
N282 S281 1.613 1_565 S
N282 C285 1.350 . S
N283 S281 1.610 . S
N283 C284 1.351 . S
C284 C278 1.428 . S
C284 N283 1.351 . S
C284 C285 1.434 1_545 S
C285 C276 1.429 . S
C285 N282 1.350 . S
C285 C284 1.434 1_565 S
C286 C287 1.369 . S
C286 C288 1.419 . S
C286 H290 0.930 . S
C287 C286 1.369 . S
C287 C296 1.429 . S
C288 C286 1.419 . S
C288 C289 1.363 . S
C288 H291 0.929 . S
C289 C288 1.363 . S
C289 C295 1.428 . S
H290 C286 0.930 . S
H291 C288 0.929 . S
S292 N293 1.613 . S
S292 N294 1.610 . S
N293 S292 1.613 . S
N293 C296 1.350 . S
N294 S292 1.610 . S
N294 C295 1.351 . S
C295 C289 1.428 . S
C295 N294 1.351 . S
C295 C296 1.434 . S
C296 C287 1.429 . S
C296 N293 1.350 . S
C296 C295 1.434 . S
C297 C298 1.369 . S
C297 C299 1.419 . S
C297 H301 0.930 . S
C298 C297 1.369 . S
C298 C307 1.429 . S
C299 C297 1.419 . S
C299 C300 1.363 . S
C299 H302 0.929 . S
C300 C299 1.363 . S
C300 C306 1.428 . S
H301 C297 0.930 . S
H302 C299 0.929 . S
S303 N304 1.613 . S
S303 N305 1.610 . S
N304 S303 1.613 . S
N304 C307 1.350 . S
N305 S303 1.610 . S
N305 C306 1.351 . S
C306 C300 1.428 . S
C306 N305 1.351 . S
C306 C307 1.434 . S
C307 C298 1.429 . S
C307 N304 1.350 . S
C307 C306 1.434 . S
C308 C309 1.369 . S
C308 C310 1.419 . S
C308 H312 0.930 . S
C309 C308 1.369 . S
C309 C318 1.429 . S
C310 C308 1.419 . S
C310 C311 1.363 . S
C310 H313 0.929 . S
C311 C310 1.363 . S
C311 C317 1.428 . S
H312 C308 0.930 . S
H313 C310 0.929 . S
S314 N315 1.613 . S
S314 N316 1.610 . S
N315 S314 1.613 . S
N315 C318 1.350 . S
N316 S314 1.610 . S
N316 C317 1.351 . S
C317 C311 1.428 . S
C317 N316 1.351 . S
C317 C318 1.434 . S
C318 C309 1.429 . S
C318 N315 1.350 . S
C318 C317 1.434 . S
C319 C320 1.369 . S
C319 C321 1.419 . S
C319 H323 0.930 . S
C320 C319 1.369 . S
C320 C329 1.429 . S
C321 C319 1.419 . S
C321 C322 1.363 . S
C321 H324 0.929 1_655 S
C322 C321 1.363 . S
C322 C328 1.432 . S
H323 C319 0.930 . S
H324 C321 0.929 1_455 S
S325 N326 1.613 . S
S325 N327 1.610 . S
N326 S325 1.613 . S
N326 C329 1.350 . S
N327 S325 1.610 . S
N327 C328 1.351 . S
C328 C322 1.432 . S
C328 N327 1.351 . S
C328 C329 1.434 . S
C329 C320 1.429 . S
C329 N326 1.350 . S
C329 C328 1.434 . S
C330 C331 1.369 . S
C330 C332 1.419 1_455 S
C330 H334 0.930 . S
C331 C330 1.369 . S
C331 C340 1.429 . S
C332 C330 1.419 1_655 S
C332 C333 1.363 1_655 S
C332 H335 0.929 . S
C333 C332 1.363 1_455 S
C333 C339 1.433 . S
H334 C330 0.930 . S
H335 C332 0.929 . S
S336 N337 1.613 . S
S336 N338 1.610 . S
N337 S336 1.613 . S
N337 C340 1.350 . S
N338 S336 1.610 . S
N338 C339 1.351 . S
C339 C333 1.433 . S
C339 N338 1.351 . S
C339 C340 1.434 . S
C340 C331 1.429 . S
C340 N337 1.350 . S
C340 C339 1.434 . S
C341 C342 1.369 . S
C341 C343 1.419 . S
C341 H345 0.930 . S
C342 C341 1.369 . S
C342 C351 1.429 . S
C343 C341 1.419 . S
C343 C344 1.363 . S
C343 H346 0.929 . S
C344 C343 1.363 . S
C344 C350 1.428 . S
H345 C341 0.930 . S
H346 C343 0.929 . S
S347 N348 1.613 . S
S347 N349 1.610 . S
N348 S347 1.613 . S
N348 C351 1.350 . S
N349 S347 1.610 . S
N349 C350 1.351 . S
C350 C344 1.428 . S
C350 N349 1.351 . S
C350 C351 1.434 . S
C351 C342 1.429 . S
C351 N348 1.350 . S
C351 C350 1.434 . S
C352 C353 1.369 . S
C352 C354 1.419 . S
C352 H356 0.930 . S
C353 C352 1.369 . S
C353 C362 1.429 . S
C354 C352 1.419 . S
C354 C355 1.363 . S
C354 H357 0.929 . S
C355 C354 1.363 . S
C355 C361 1.428 . S
H356 C352 0.930 . S
H357 C354 0.929 . S
S358 N359 1.613 . S
S358 N360 1.610 . S
N359 S358 1.613 . S
N359 C362 1.350 . S
N360 S358 1.610 . S
N360 C361 1.351 . S
C361 C355 1.428 . S
C361 N360 1.351 . S
C361 C362 1.434 . S
C362 C353 1.429 . S
C362 N359 1.350 . S
C362 C361 1.434 . S
C363 C364 1.369 . S
C363 C365 1.419 . S
C363 H367 0.930 . S
C364 C363 1.369 . S
C364 C373 1.429 . S
C365 C363 1.419 . S
C365 C366 1.364 . S
C365 H368 0.929 . S
C366 C365 1.364 . S
C366 C372 1.428 . S
H367 C363 0.930 . S
H368 C365 0.929 . S
S369 N370 1.613 . S
S369 N371 1.610 1_455 S
N370 S369 1.613 . S
N370 C373 1.350 . S
N371 S369 1.610 1_655 S
N371 C372 1.351 1_655 S
C372 C366 1.428 . S
C372 N371 1.351 1_455 S
C372 C373 1.434 . S
C373 C364 1.429 . S
C373 N370 1.350 . S
C373 C372 1.434 . S
C374 C375 1.369 1_455 S
C374 C376 1.419 1_455 S
C374 H378 0.930 . S
C375 C374 1.369 1_655 S
C375 C384 1.444 . S
C376 C374 1.419 1_655 S
C376 C377 1.363 . S
C376 H379 0.929 . S
C377 C376 1.363 . S
C377 C383 1.428 . S
H378 C374 0.930 . S
H379 C376 0.929 . S
S380 N381 1.613 . S
S380 N382 1.610 . S
N381 S380 1.613 . S
N381 C384 1.350 . S
N382 S380 1.610 . S
N382 C383 1.351 . S
C383 C377 1.428 . S
C383 N382 1.351 . S
C383 C384 1.434 . S
C384 C375 1.444 . S
C384 N381 1.350 . S
C384 C383 1.434 . S
C385 C386 1.369 . S
C385 C387 1.419 . S
C385 H389 0.930 . S
C386 C385 1.369 . S
C386 C395 1.429 . S
C387 C385 1.419 . S
C387 C388 1.363 . S
C387 H390 0.929 . S
C388 C387 1.363 . S
C388 C394 1.428 . S
H389 C385 0.930 . S
H390 C387 0.929 . S
S391 N392 1.613 . S
S391 N393 1.610 . S
N392 S391 1.613 . S
N392 C395 1.350 . S
N393 S391 1.610 . S
N393 C394 1.351 . S
C394 C388 1.428 . S
C394 N393 1.351 . S
C394 C395 1.434 . S
C395 C386 1.429 . S
C395 N392 1.350 . S
C395 C394 1.434 . S
C396 C397 1.369 . S
C396 C398 1.419 . S
C396 H400 0.930 . S
C397 C396 1.369 . S
C397 C406 1.429 . S
C398 C396 1.419 . S
C398 C399 1.363 . S
C398 H401 0.929 . S
C399 C398 1.363 . S
C399 C405 1.428 . S
H400 C396 0.930 . S
H401 C398 0.929 . S
S402 N403 1.613 . S
S402 N404 1.610 . S
N403 S402 1.613 . S
N403 C406 1.350 . S
N404 S402 1.610 . S
N404 C405 1.351 . S
C405 C399 1.428 . S
C405 N404 1.351 . S
C405 C406 1.434 . S
C406 C397 1.429 . S
C406 N403 1.350 . S
C406 C405 1.434 . S
C407 C408 1.369 . S
C407 C409 1.419 . S
C407 H411 0.930 . S
C408 C407 1.369 . S
C408 C417 1.429 . S
C409 C407 1.419 . S
C409 C410 1.363 . S
C409 H412 0.929 . S
C410 C409 1.363 . S
C410 C416 1.428 . S
H411 C407 0.930 . S
H412 C409 0.929 . S
S413 N414 1.613 . S
S413 N415 1.610 . S
N414 S413 1.613 . S
N414 C417 1.350 . S
N415 S413 1.610 . S
N415 C416 1.351 . S
C416 C410 1.428 . S
C416 N415 1.351 . S
C416 C417 1.434 . S
C417 C408 1.429 . S
C417 N414 1.350 . S
C417 C416 1.434 . S
C418 C419 1.369 . S
C418 C420 1.419 . S
C418 H422 0.930 . S
C419 C418 1.369 . S
C419 C428 1.429 . S
C420 C418 1.419 . S
C420 C421 1.363 . S
C420 H423 0.929 . S
C421 C420 1.363 . S
C421 C427 1.428 . S
H422 C418 0.930 . S
H423 C420 0.929 . S
S424 N425 1.613 . S
S424 N426 1.610 . S
N425 S424 1.613 . S
N425 C428 1.350 . S
N426 S424 1.610 . S
N426 C427 1.351 . S
C427 C421 1.428 . S
C427 N426 1.351 . S
C427 C428 1.434 . S
C428 C419 1.429 . S
C428 N425 1.350 . S
C428 C427 1.434 . S
C429 C430 1.369 . S
C429 C431 1.419 . S
C429 H433 0.930 . S
C430 C429 1.369 . S
C430 C439 1.429 . S
C431 C429 1.419 . S
C431 C432 1.363 . S
C431 H434 0.929 . S
C432 C431 1.363 . S
C432 C438 1.428 . S
H433 C429 0.930 . S
H434 C431 0.929 . S
S435 N436 1.613 . S
S435 N437 1.610 . S
N436 S435 1.613 . S
N436 C439 1.350 . S
N437 S435 1.610 . S
N437 C438 1.351 . S
C438 C432 1.428 . S
C438 N437 1.351 . S
C438 C439 1.434 . S
C439 C430 1.429 . S
C439 N436 1.350 . S
C439 C438 1.434 . S
C177 C95 1.290 . S
C179 C21 1.262 . S
C188 C125 1.294 . S
C190 C43 1.258 . S
C199 C147 1.282 . S
C201 C65 1.260 . S
C210 C81 1.261 . S
C212 C161 1.279 . S
C221 C7 1.647 . S
C223 C30 1.581 . S
C232 C29 1.647 . S
C234 C8 1.579 . S
C243 C76 1.574 . S
C245 C51 1.651 . S
C254 C52 1.583 . S
C256 C87 1.653 . S
C265 C120 1.591 . S
C267 C109 1.661 . S
C276 C106 1.592 . S
C278 C117 1.660 . S
C287 C139 1.663 . S
C289 C172 1.600 . S
C298 C142 1.599 . S
C300 C175 1.659 . S
C309 C15 1.500 . S
C311 C128 1.501 . S
C320 C96 1.497 . S
C322 C37 1.499 1_655 S
C331 C162 1.496 . S
C333 C59 1.499 1_455 S
C342 C150 1.496 . S
C344 C73 1.503 . S
C353 C103 1.507 . S
C355 C40 1.489 . S
C364 C18 1.493 . S
C366 C131 1.503 1_455 S
C375 C153 1.490 1_655 S
C377 C74 1.487 . S
C386 C169 1.503 . S
C388 C62 1.488 . S
C397 C10 1.460 . S
C399 C164 1.456 . S
C408 C32 1.459 . S
C410 C140 1.456 . S
C419 C118 1.455 . S
C421 C54 1.460 . S
C430 C98 1.456 . S
C432 C84 1.460 . S
