# Generated by pormake.
# Topology qtz-e, (6)-cn, num edge types: 1
# Building blocks:
#     Node 0, Type 0, BuildingBlock: HISSIN_clean_sbu_0, # of connection points: 6
#     Node 1, Type 0, BuildingBlock: HISSIN_clean_sbu_0, # of connection points: 6
#     Node 2, Type 0, BuildingBlock: HISSIN_clean_sbu_0, # of connection points: 6
#     Node 3, Type 0, BuildingBlock: HISSIN_clean_sbu_0, # of connection points: 6
#     Node 4, Type 0, BuildingBlock: HISSIN_clean_sbu_0, # of connection points: 6
#     Node 5, Type 0, BuildingBlock: HISSIN_clean_sbu_0, # of connection points: 6
#     Edge 6, Type (0, 0), BuildingBlock: CIFDUS_clean_linker_0, # of connection points: 2
#     Edge 7, Type (0, 0), BuildingBlock: CIFDUS_clean_linker_0, # of connection points: 2
#     Edge 8, Type (0, 0), BuildingBlock: CIFDUS_clean_linker_0, # of connection points: 2
#     Edge 9, Type (0, 0), BuildingBlock: CIFDUS_clean_linker_0, # of connection points: 2
#     Edge 10, Type (0, 0), BuildingBlock: CIFDUS_clean_linker_0, # of connection points: 2
#     Edge 11, Type (0, 0), BuildingBlock: CIFDUS_clean_linker_0, # of connection points: 2
#     Edge 12, Type (0, 0), BuildingBlock: CIFDUS_clean_linker_0, # of connection points: 2
#     Edge 13, Type (0, 0), BuildingBlock: CIFDUS_clean_linker_0, # of connection points: 2
#     Edge 14, Type (0, 0), BuildingBlock: CIFDUS_clean_linker_0, # of connection points: 2
#     Edge 15, Type (0, 0), BuildingBlock: CIFDUS_clean_linker_0, # of connection points: 2
#     Edge 16, Type (0, 0), BuildingBlock: CIFDUS_clean_linker_0, # of connection points: 2
#     Edge 17, Type (0, 0), BuildingBlock: CIFDUS_clean_linker_0, # of connection points: 2
#     Edge 18, Type (0, 0), BuildingBlock: CIFDUS_clean_linker_0, # of connection points: 2
#     Edge 19, Type (0, 0), BuildingBlock: CIFDUS_clean_linker_0, # of connection points: 2
#     Edge 20, Type (0, 0), BuildingBlock: CIFDUS_clean_linker_0, # of connection points: 2
#     Edge 21, Type (0, 0), BuildingBlock: CIFDUS_clean_linker_0, # of connection points: 2
#     Edge 22, Type (0, 0), BuildingBlock: CIFDUS_clean_linker_0, # of connection points: 2
#     Edge 23, Type (0, 0), BuildingBlock: CIFDUS_clean_linker_0, # of connection points: 2
# Relax obj value: 0.122
# Max RMSD: 0.201
# Mean RMSD: 0.201
data_MOF--net-qtz-e--node1-HISSIN_clean_sbu_0--edge1-CIFDUS_clean_linker_0
_symmetry_space_group_name_H-M    P1
_symmetry_Int_Tables_number       1
_symmetry_cell_setting            triclinic
loop_
_symmetry_equiv_pos_as_xyz
'x, y, z'
_cell_length_a     23.074821
_cell_length_b     22.924145
_cell_length_c     47.32538
_cell_angle_alpha  90.269855
_cell_angle_beta   89.711075
_cell_angle_gamma 120.74699
loop_
_atom_site_label
_atom_site_type_symbol
_atom_site_fract_x
_atom_site_fract_y
_atom_site_fract_z
_atom_type_partial_charge
Eu0 Eu 0.15309 0.45842 0.07303 0.0
Eu1 Eu 0.12417 0.3135 0.04438 0.0
C2 C 0.01112 0.34411 0.05812 0.0
C3 C 0.15089 0.57586 0.12961 0.0
C4 C 0.13073 0.62292 0.13537 0.0
C5 C 0.1594 0.56236 0.18015 0.0
C6 C 0.12544 0.64005 0.16331 0.0
C7 C 0.1641 0.54484 0.15222 0.0
C8 C 0.14069 0.61071 0.18601 0.0
C9 C 0.16124 0.56196 0.10011 0.0
O10 O 0.17402 0.39132 1.01038 0.0
O11 O 0.14996 0.47245 0.02544 0.0
C12 C 0.17055 0.44593 1.00573 0.0
O13 O 0.25456 0.4844 0.05786 0.0
O14 O 0.06661 0.23171 1.01424 0.0
O15 O 0.13963 0.22737 0.04129 0.0
O16 O 0.23679 0.37643 0.05105 0.0
C17 C 0.27665 0.44284 0.05303 0.0
O18 O 0.17216 0.401 0.10654 0.0
O19 O 0.09915 0.29288 0.09101 0.0
O20 O 0.03673 0.32905 0.03669 0.0
O21 O 0.21224 0.55329 0.09584 0.0
O22 O 0.10783 0.5185 0.08594 0.0
O23 O 0.0489 0.37077 0.08021 0.0
C24 C 0.13327 0.19267 0.99398 0.0
C25 C 0.10156 0.13107 0.97912 0.0
C26 C 0.22316 0.23983 0.95905 0.0
C27 C 0.13046 0.12389 0.95423 0.0
C28 C 0.1942 0.24698 0.98379 0.0
C29 C 0.19157 0.17829 0.94393 0.0
C30 C 0.10127 0.20234 1.01905 0.0
C31 C 0.13316 0.33578 0.11155 0.0
H32 H 0.1203 0.64738 0.11823 0.0
H33 H 0.17046 0.53811 0.19716 0.0
H34 H 0.11123 0.67773 0.16712 0.0
H35 H 0.1792 0.5079 0.14829 0.0
H36 H 0.05418 0.08887 0.98659 0.0
H37 H 0.26959 0.28305 0.95143 0.0
H38 H 0.1052 0.0758 0.9431 0.0
H39 H 0.21892 0.29533 0.99476 0.0
Eu40 Eu 0.7008 0.17655 0.41498 0.0
Eu41 Eu 0.82027 0.1679 0.37966 0.0
C42 C 0.66749 0.06254 0.37045 0.0
C43 C 0.5983 0.19112 0.47498 0.0
C44 C 0.63127 0.17819 0.49679 0.0
C45 C 0.54955 0.23213 0.50972 0.0
C46 C 0.62239 0.19097 0.52492 0.0
C47 C 0.55802 0.2188 0.4816 0.0
C48 C 0.581 0.2176 0.53171 0.0
C49 C 0.60547 0.17599 0.44532 0.0
O50 O 0.80167 0.241 0.35537 0.0
O51 O 0.69355 0.20622 0.37026 0.0
C52 C 0.74403 0.23909 0.35237 0.0
O53 O 0.79072 0.28074 0.41703 0.0
O54 O 0.85068 0.10653 0.35514 0.0
O55 O 0.92352 0.21169 0.36467 0.0
O56 O 0.87412 0.25547 0.41015 0.0
C57 C 0.85415 0.29775 0.4177 0.0
O58 O 0.76459 0.1633 0.44692 0.0
O59 O 0.7942 0.10179 0.41852 0.0
O60 O 0.72206 0.10459 0.35657 0.0
O61 O 0.64788 0.22737 0.42994 0.0
O62 O 0.61014 0.12236 0.44083 0.0
O63 O 0.66325 0.07213 0.39741 0.0
C64 C 0.93361 0.16934 0.32028 0.0
C65 C 0.94949 0.2297 0.30626 0.0
C66 C 0.96267 0.13006 0.27759 0.0
C67 C 0.97272 0.24053 0.27838 0.0
C68 C 0.94014 0.11953 0.30567 0.0
C69 C -0.02015 0.19101 0.26378 0.0
C70 C 0.91086 0.15806 0.35005 0.0
C71 C 0.78457 0.11941 0.44382 0.0
H72 H 0.66335 0.15759 0.49213 0.0
H73 H 0.51681 0.25196 0.51432 0.0
H74 H 0.64775 0.17987 0.54139 0.0
H75 H 0.53244 0.22937 0.46504 0.0
H76 H 0.94419 0.26875 0.31683 0.0
H77 H 0.96783 0.09113 0.26684 0.0
H78 H -0.01546 0.28751 0.2681 0.0
H79 H 0.92807 0.07258 0.31604 0.0
Eu80 Eu 0.5133 0.71915 0.73862 0.0
Eu81 Eu 0.65939 0.80167 0.70384 0.0
C82 C 0.55987 0.6448 0.69736 0.0
C83 C 0.37568 0.62577 0.79618 0.0
C84 C 0.33626 0.55576 0.80116 0.0
C85 C 0.36392 0.64614 0.846 0.0
C86 C 0.31179 0.53109 0.82819 0.0
C87 C 0.3889 0.67097 0.81881 0.0
C88 C 0.32579 0.57581 0.85102 0.0
C89 C 0.40096 0.64918 0.76714 0.0
O90 O 0.5811 0.78364 0.67174 0.0
O91 O 0.48947 0.76117 0.69962 0.0
C92 C 0.52151 0.77714 0.67507 0.0
O93 O 0.5733 0.82307 0.75668 0.0
O94 O 0.72802 0.80022 0.67246 0.0
O95 O 0.75537 0.89391 0.69442 0.0
O96 O 0.62505 0.87471 0.71553 0.0
C97 C 0.59914 0.8759 0.74013 0.0
O98 O 0.59047 0.71001 0.76504 0.0
O99 O 0.68875 0.80214 0.74875 0.0
O100 O 0.62202 0.68932 0.70461 0.0
O101 O 0.42774 0.71365 0.76127 0.0
O102 O 0.43316 0.62252 0.75509 0.0
O103 O 0.51215 0.65842 0.70151 0.0
C104 C 0.78031 0.90164 0.64562 0.0
C105 C 0.74143 0.86785 0.62167 0.0
C106 C 0.83487 0.00705 0.61897 0.0
C107 C 0.749 0.90336 0.59672 0.0
C108 C 0.82779 0.97135 0.64389 0.0
C109 C 0.79504 0.97347 0.59524 0.0
C110 C 0.76788 0.86604 0.67294 0.0
C111 C 0.65509 0.75573 0.76799 0.0
H112 H 0.3246 0.51985 0.78406 0.0
H113 H 0.37581 0.68182 0.86319 0.0
H114 H 0.28174 0.47668 0.83122 0.0
H115 H 0.41892 0.72531 0.8156 0.0
H116 H 0.70376 0.81429 0.62234 0.0
H117 H 0.87101 0.06105 0.61832 0.0
H118 H 0.71702 0.87638 0.57889 0.0
H119 H 0.85818 -0.00146 0.66206 0.0
Eu120 Eu 0.75054 0.54772 0.08621 0.0
Eu121 Eu 0.81935 0.68713 0.04563 0.0
C122 C 0.88536 0.59832 0.05707 0.0
C123 C 0.71624 0.42513 0.14735 0.0
C124 C 0.77665 0.46918 0.16138 0.0
C125 C 0.68107 0.34743 0.18693 0.0
C126 C 0.7892 0.45236 0.18815 0.0
C127 C 0.66865 0.3643 0.16024 0.0
C128 C 0.74138 0.3913 0.20126 0.0
C129 C 0.70098 0.44262 0.1197 0.0
O130 O 0.74057 0.60192 1.01927 0.0
O131 O 0.73295 0.50856 0.04099 0.0
C132 C 0.72266 0.53756 1.01912 0.0
O133 O 0.66698 0.55915 0.07031 0.0
O134 O 0.89788 0.75252 1.01549 0.0
O135 O 0.81811 0.77222 0.02562 0.0
O136 O 0.72234 0.67447 0.0633 0.0
C137 C 0.6667 0.61528 0.06596 0.0
O138 O 0.78757 0.63706 0.11557 0.0
O139 O 0.86847 0.7246 0.08835 0.0
O140 O 0.86717 0.62399 0.03673 0.0
O141 O 0.68172 0.48715 0.11998 0.0
O142 O 0.74331 0.45305 0.09922 0.0
O143 O 0.86177 0.59579 0.08238 0.0
C144 C 0.84651 0.77623 0.97784 0.0
C145 C 0.8519 0.83134 0.9628 0.0
C146 C 0.78708 0.70195 0.93811 0.0
C147 C 0.82476 0.82172 0.93556 0.0
C148 C 0.81513 0.71181 0.96502 0.0
C149 C 0.79078 0.75658 0.92324 0.0
C150 C 0.86594 0.78318 1.00785 0.0
C151 C 0.84152 0.69785 0.11306 0.0
H152 H 0.8138 0.51658 0.1517 0.0
H153 H 0.64374 0.29955 0.1962 0.0
H154 H 0.83587 0.48749 0.19871 0.0
H155 H 0.62174 0.32981 0.14965 0.0
H156 H 0.87531 0.88126 0.97241 0.0
H157 H 0.76191 0.65142 0.92901 0.0
H158 H 0.82802 0.86464 0.92456 0.0
H159 H 0.81076 0.66856 0.97609 0.0
Eu160 Eu 0.24733 0.79757 0.40842 0.0
Eu161 Eu 0.13977 0.83664 0.38029 0.0
C162 C 0.29595 0.92539 0.37275 0.0
C163 C 0.36382 0.78904 0.46296 0.0
C164 C 0.33382 0.80359 0.48572 0.0
C165 C 0.44842 0.79436 0.49484 0.0
C166 C 0.36069 0.81285 0.51297 0.0
C167 C 0.42141 0.78489 0.46769 0.0
C168 C 0.41829 0.80818 0.51786 0.0
C169 C 0.33426 0.77572 0.43448 0.0
O170 O 0.14177 0.76048 0.35074 0.0
O171 O 0.24345 0.77007 0.36199 0.0
C172 C 0.19198 0.75082 0.34469 0.0
O173 O 0.14931 0.70144 0.40407 0.0
O174 O 0.12395 0.91199 0.35911 0.0
O175 O 0.03939 0.81093 0.36653 0.0
O176 O 0.07795 0.74323 0.40725 0.0
C177 C 0.09012 0.69331 0.40988 0.0
O178 O 0.19744 0.81908 0.44447 0.0
O179 O 0.16974 0.89083 0.42266 0.0
O180 O 0.24052 0.89341 0.3581 0.0
O181 O 0.26989 0.7317 0.43305 0.0
O182 O 0.35178 0.82842 0.41851 0.0
O183 O 0.29398 0.9081 0.39909 0.0
C184 C 0.04425 0.85933 0.32262 0.0
C185 C 0.07604 0.83589 0.30429 0.0
C186 C 0.96936 0.84913 0.28449 0.0
C187 C 0.05308 0.81679 0.27665 0.0
C188 C -0.00827 0.86729 0.31242 0.0
C189 C -0.00129 0.82195 0.26672 0.0
C190 C 0.06137 0.86773 0.35286 0.0
C191 C 0.18086 0.86594 0.4457 0.0
H192 H 0.2893 0.80715 0.48246 0.0
H193 H 0.4922 0.78942 0.49789 0.0
H194 H 0.33667 0.82405 0.53015 0.0
H195 H 0.44503 0.77342 0.45042 0.0
H196 H 0.11685 0.82969 0.31173 0.0
H197 H 0.92687 0.85281 0.27727 0.0
H198 H 0.07628 0.79582 0.26329 0.0
H199 H 0.96639 0.88494 0.32631 0.0
Eu200 Eu 0.44206 0.23574 0.75189 0.0
Eu201 Eu 0.30511 0.10621 0.72279 0.0
C202 C 0.34933 0.25752 0.71314 0.0
C203 C 0.55384 0.36317 0.80767 0.0
C204 C 0.59034 0.4329 0.81348 0.0
C205 C 0.5438 0.34001 0.85817 0.0
C206 C 0.60361 0.45614 0.84141 0.0
C207 C 0.53004 0.31681 0.83022 0.0
C208 C 0.58086 0.40994 0.86405 0.0
C209 C 0.54073 0.3395 0.77811 0.0
O210 O 0.39163 0.12447 0.69469 0.0
O211 O 0.47055 0.23571 0.70584 0.0
C212 C 0.4477 0.1819 0.68932 0.0
O213 O 0.46037 0.14989 0.74974 0.0
O214 O 0.20683 0.0696 0.70323 0.0
O215 O 0.24536 0.00161 0.70796 0.0
O216 O 0.35101 0.06029 0.75053 0.0
C217 C 0.41634 0.08536 0.75324 0.0
O218 O 0.37353 0.17589 0.78764 0.0
O219 O 0.27243 0.12998 0.76438 0.0
O220 O 0.33492 0.20276 0.69905 0.0
O221 O 0.53976 0.28323 0.77271 0.0
O222 O 0.49212 0.3421 0.76542 0.0
O223 O 0.3626 0.25905 0.73991 0.0
C224 C 0.1863 -0.00843 0.66632 0.0
C225 C 0.13588 0.92566 0.65893 0.0
C226 C 0.21923 0.01524 0.61686 0.0
C227 C 0.12795 0.90417 0.63076 0.0
C228 C 0.22741 0.03657 0.64508 0.0
C229 C 0.17035 0.94832 0.60949 0.0
C230 C 0.19973 0.01107 0.69631 0.0
C231 C 0.30779 0.14872 0.7879 0.0
H232 H 0.60887 0.46942 0.7964 0.0
H233 H 0.5249 0.30331 0.87518 0.0
H234 H 0.63269 0.51033 0.84529 0.0
H235 H 0.501 0.26267 0.82623 0.0
H236 H 0.10393 0.89018 0.67504 0.0
H237 H 0.25316 0.05013 0.60103 0.0
H238 H 0.08951 0.85248 0.62568 0.0
H239 H 0.26722 0.08751 0.65044 0.0
H240 H 0.09438 0.70729 0.30463 0.0
H241 H 0.28656 0.72523 0.32172 0.0
H242 H 0.28613 0.68069 0.27456 0.0
H243 H 0.23338 0.6415 0.22766 0.0
H244 H 0.04296 0.62736 0.21078 0.0
H245 H 0.04094 0.66628 0.2587 0.0
C246 C 0.13632 0.70145 0.29822 0.0
C247 C 0.19061 0.71993 0.31682 0.0
C248 C 0.13623 0.6769 0.27099 0.0
C249 C 0.24409 0.71145 0.30795 0.0
C250 C 0.24395 0.68613 0.28092 0.0
C251 C 0.19111 0.64624 0.2346 0.0
C252 C 0.13844 0.63165 0.21562 0.0
C253 C 0.19059 0.66932 0.26216 0.0
C254 C 0.08446 0.63895 0.22482 0.0
C255 C 0.08317 0.66099 0.25226 0.0
H256 H 0.50496 0.28505 0.65124 0.0
H257 H 0.46753 0.08399 0.66818 0.0
H258 H 0.51098 0.07967 0.62155 0.0
H259 H 0.5496 0.1284 0.57454 0.0
H260 H 0.5808 0.32637 0.55585 0.0
H261 H 0.54954 0.3366 0.60438 0.0
C262 C 0.5078 0.24107 0.64483 0.0
C263 C 0.48347 0.18502 0.663 0.0
C264 C 0.53071 0.23798 0.61754 0.0
C265 C 0.48601 0.12765 0.65441 0.0
C266 C 0.51062 0.12507 0.62776 0.0
C267 C 0.55075 0.17431 0.58123 0.0
C268 C 0.56747 0.22652 0.56166 0.0
C269 C 0.5316 0.17923 0.60892 0.0
C270 C 0.56752 0.28521 0.5705 0.0
C271 C 0.54987 0.29116 0.59825 0.0
H272 H 0.235 0.41533 0.9658 0.0
H273 H 0.16378 0.55329 0.98294 0.0
H274 H 0.20753 0.60771 0.9369 0.0
H275 H 0.26485 0.61421 0.89118 0.0
H276 H 0.33538 0.47492 0.87601 0.0
H277 H 0.29294 0.423 0.92198 0.0
C278 C 0.22849 0.45713 0.95962 0.0
C279 C 0.19552 0.47975 0.97787 0.0
C280 C 0.25386 0.48806 0.93339 0.0
C281 C 0.18868 0.53461 0.96934 0.0
C282 C 0.21379 0.56576 0.94301 0.0
C283 C 0.27133 0.57289 0.89811 0.0
C284 C 0.30266 0.54803 0.87998 0.0
C285 C 0.24646 0.54283 0.9248 0.0
C286 C 0.31046 0.49426 0.88925 0.0
C287 C 0.28642 0.46465 0.9156 0.0
H288 H 0.83638 0.30997 0.31133 0.0
H289 H 0.62976 0.23749 0.33554 0.0
H290 H 0.61182 0.28098 0.29149 0.0
H291 H 0.65336 0.33524 0.24523 0.0
H292 H 0.859 0.40481 0.22071 0.0
H293 H 0.87893 0.36764 0.26602 0.0
C294 C 0.78744 0.30397 0.30714 0.0
C295 C 0.73441 0.2701 0.32674 0.0
C296 C 0.77728 0.3286 0.28169 0.0
C297 C 0.67151 0.26319 0.32088 0.0
C298 C 0.66113 0.28794 0.29564 0.0
C299 C 0.70249 0.34207 0.24977 0.0
C300 C 0.75447 0.3724 0.22951 0.0
C301 C 0.71338 0.31989 0.27574 0.0
C302 C 0.81825 0.38215 0.23598 0.0
C303 C 0.82957 0.36051 0.26182 0.0
H304 H 0.58583 0.84689 0.62815 0.0
H305 H 0.3868 0.72648 0.66413 0.0
H306 H 0.33679 0.72941 0.61887 0.0
H307 H 0.35035 0.75771 0.56783 0.0
H308 H 0.55081 0.87816 0.53295 0.0
H309 H 0.59952 0.88311 0.57908 0.0
C310 C 0.5314 0.82152 0.62624 0.0
C311 C 0.49002 0.78568 0.64939 0.0
C312 C 0.50332 0.82282 0.60024 0.0
C313 C 0.41974 0.75432 0.64664 0.0
C314 C 0.3912 0.75568 0.62071 0.0
C315 C 0.40465 0.78596 0.57044 0.0
C316 C 0.44684 0.81661 0.54678 0.0
C317 C 0.43254 0.78854 0.59717 0.0
C318 C 0.51715 0.8528 0.55058 0.0
C319 C 0.54509 0.85597 0.577 0.0
H320 H 0.65567 0.56583 0.98024 0.0
H321 H 0.71677 0.42144 0.99974 0.0
H322 H 0.67413 0.36597 0.95381 0.0
H323 H 0.62775 0.36499 0.90656 0.0
H324 H 0.56819 0.5111 0.88796 0.0
H325 H 0.60068 0.55842 0.93551 0.0
C326 C 0.65937 0.52193 0.97457 0.0
C327 C 0.69011 0.49826 0.99319 0.0
C328 C 0.63538 0.49093 0.94823 0.0
C329 C 0.69338 0.44064 0.98573 0.0
C330 C 0.66936 0.40922 0.95942 0.0
C331 C 0.62145 0.40686 0.91302 0.0
C332 C 0.59643 0.4351 0.89363 0.0
C333 C 0.64153 0.43486 0.94026 0.0
C334 C 0.58857 0.48938 0.90228 0.0
C335 C 0.60722 0.51655 0.9294 0.0
H336 H 0.37563 0.56486 0.07198 0.0
H337 H 0.3398 0.3882 0.02433 0.0
H338 H 0.46104 0.4356 1.01935 0.0
H339 H 0.5748 0.5196 0.03315 0.0
H340 H 0.61251 0.69095 0.08472 0.0
H341 H 0.49215 0.65487 0.08259 0.0
C342 C 0.39447 0.53711 0.06029 0.0
C343 C 0.3493 0.47268 0.04895 0.0
C344 C 0.464 0.56395 0.05807 0.0
C345 C 0.37391 0.43719 0.03374 0.0
C346 C 0.44298 0.46443 0.03072 0.0
C347 C 0.55666 0.54957 0.04359 0.0
C348 C 0.60114 0.60683 0.0595 0.0
C349 C 0.4881 0.52665 0.04347 0.0
C350 C 0.57841 0.64655 0.07243 0.0
C351 C 0.50982 0.62542 0.07147 0.0
H352 H 0.1059 0.58963 0.42548 0.0
H353 H 0.95346 0.64249 0.41163 0.0
H354 H 0.86533 0.5232 0.41726 0.0
H355 H 0.83374 0.40387 0.41966 0.0
H356 H -0.01214 0.35155 0.42935 0.0
H357 H 0.07394 0.47183 0.43195 0.0
C358 C 0.05337 0.57536 0.42386 0.0
C359 C 0.0361 0.62447 0.41753 0.0
C360 C 0.00365 0.50703 0.42619 0.0
C361 C 0.96792 0.60542 0.41623 0.0
C362 C 0.91768 0.5373 0.41933 0.0
C363 C 0.88601 0.41859 0.42285 0.0
C364 C 0.90464 0.36895 0.42397 0.0
C365 C 0.93523 0.48758 0.42334 0.0
C366 C 0.97246 0.38888 0.42813 0.0
C367 C 0.02159 0.45753 0.42957 0.0
H368 H 0.53895 0.11162 0.73741 0.0
H369 H 0.35375 0.95768 0.77621 0.0
H370 H 0.39959 0.88207 0.77915 0.0
H371 H 0.48864 0.85795 0.76731 0.0
H372 H 0.66808 0.00813 0.72383 0.0
H373 H 0.62846 0.08876 0.72666 0.0
C374 C 0.50879 0.0619 0.74694 0.0
C375 C 0.44322 0.04009 0.75676 0.0
C376 C 0.53456 0.01867 0.74775 0.0
C377 C 0.4043 0.9752 0.76849 0.0
C378 C 0.43054 0.93228 0.77021 0.0
C379 C 0.51977 0.90885 0.759 0.0
C380 C 0.58143 0.92776 0.74559 0.0
C381 C 0.49518 0.95327 0.7595 0.0
C382 C 0.62065 -0.00694 0.73434 0.0
C383 C 0.59786 0.03876 0.73584 0.0
H384 H 0.44113 0.55035 0.67475 0.0
H385 H 0.63098 0.58057 0.7049 0.0
H386 H 0.58265 0.45783 0.70707 0.0
H387 H 0.48141 0.3465 0.71053 0.0
H388 H 0.28906 0.31506 0.68429 0.0
H389 H 0.34335 0.43501 0.67046 0.0
C390 C 0.47241 0.53004 0.68118 0.0
C391 C 0.5389 0.57413 0.69047 0.0
C392 C 0.44345 0.45978 0.68355 0.0
C393 C 0.57949 0.54754 0.698 0.0
C394 C 0.55168 0.47746 0.69947 0.0
C395 C 0.45169 0.36515 0.70088 0.0
C396 C 0.38158 0.32275 0.69848 0.0
C397 C 0.4829 0.43364 0.69384 0.0
C398 C 0.34324 0.34738 0.68623 0.0
C399 C 0.37423 0.41574 0.67852 0.0
H400 H 0.0064 0.4207 1.01619 0.0
H401 H 0.90744 0.31423 0.09272 0.0
H402 H 0.85876 0.38606 0.09897 0.0
H403 H 0.86326 0.49079 0.08775 0.0
H404 H 0.9573 0.598 1.01069 0.0
H405 H -0.00713 0.51575 1.00012 0.0
C406 C 0.97142 0.41125 0.03339 0.0
C407 C 0.96002 0.36255 0.05402 0.0
C408 C 0.94629 0.45489 0.03751 0.0
C409 C 0.91591 0.35114 0.07655 0.0
C410 C 0.8894 0.39306 0.08042 0.0
C411 C 0.89033 0.49581 0.06832 0.0
C412 C 0.90845 0.55082 0.0502 0.0
C413 C 0.90753 0.44725 0.06191 0.0
C414 C 0.94381 0.55648 0.02516 0.0
C415 C 0.96341 0.50919 1.01901 0.0
H416 H 0.36682 0.86443 0.36539 0.0
H417 H 0.37071 0.05079 0.34876 0.0
H418 H 0.49122 0.10657 0.33679 0.0
H419 H 0.59751 0.10753 0.34254 0.0
H420 H 0.59329 0.92563 0.36849 0.0
H421 H 0.47048 0.86102 0.36409 0.0
C422 C 0.39374 0.9167 0.35842 0.0
C423 C 0.36106 0.95411 0.35828 0.0
C424 C 0.46293 0.94867 0.35323 0.0
C425 C 0.39558 0.02153 0.34903 0.0
C426 C 0.4643 0.05325 0.34239 0.0
C427 C 0.5697 0.05323 0.34605 0.0
C428 C 0.60363 0.02092 0.35579 0.0
C429 C 0.49907 0.01822 0.346 0.0
C430 C 0.56772 0.95087 0.36063 0.0
C431 C 0.49761 0.91439 0.35857 0.0
H432 H 0.36731 0.19149 0.83915 0.0
H433 H 0.17261 0.09371 0.79853 0.0
H434 H 0.11897 0.09113 0.8436 0.0
H435 H 0.12832 0.12192 0.89409 0.0
H436 H 0.32382 0.22107 0.93391 0.0
H437 H 0.37623 0.21822 0.88942 0.0
C438 C 0.31303 0.16911 0.84006 0.0
C439 C 0.27413 0.14296 0.81538 0.0
C440 C 0.28271 0.16847 0.86589 0.0
C441 C 0.20387 0.11431 0.81714 0.0
C442 C 0.17314 0.11289 0.84291 0.0
C443 C 0.18223 0.14197 0.8931 0.0
C444 C 0.22213 0.17192 0.91726 0.0
C445 C 0.21217 0.14048 0.86736 0.0
C446 C 0.29209 0.19853 0.91554 0.0
C447 C 0.32207 0.19669 0.89015 0.0
H448 H 0.08957 0.30345 0.24319 0.0
H449 H 0.92678 0.10623 0.21821 0.0
H450 H 0.96356 0.13081 0.16883 0.0
H451 H 0.03692 0.2123 0.1324 0.0
H452 H 0.19977 0.40945 0.15816 0.0
H453 H 0.16821 0.38081 0.20747 0.0
C454 C 0.0623 0.26583 0.22691 0.0
C455 C 0.00515 0.20349 0.23423 0.0
C456 C 0.08366 0.28035 0.19868 0.0
C457 C 0.97099 0.15461 0.21306 0.0
C458 C -0.00814 0.16876 0.18483 0.0
C459 C 0.06621 0.24857 0.14881 0.0
C460 C 0.12017 0.31327 0.14144 0.0
C461 C 0.04751 0.23196 0.17732 0.0
C462 C 0.15755 0.35954 0.16308 0.0
C463 C 0.13951 0.3433 0.19137 0.0
H464 H 0.80399 0.94137 0.54063 0.0
H465 H 0.79302 0.09093 0.5923 0.0
H466 H 0.79093 0.15047 0.54997 0.0
H467 H 0.78766 0.1574 0.49846 0.0
H468 H 0.79993 0.00881 0.44645 0.0
H469 H 0.80625 0.95158 0.48876 0.0
C470 C 0.80134 0.98711 0.54254 0.0
C471 C 0.79859 0.01174 0.56949 0.0
C472 C 0.80024 0.02111 0.51812 0.0
C473 C 0.79587 0.07142 0.57177 0.0
C474 C 0.79427 0.10523 0.5476 0.0
C475 C 0.79199 0.11264 0.49632 0.0
C476 C 0.79289 0.0872 0.4693 0.0
C477 C 0.79581 0.08017 0.52068 0.0
C478 C 0.79913 0.0295 0.46697 0.0
C479 C 0.80256 -0.00338 0.49116 0.0
H480 H 0.60447 0.67613 0.81526 0.0
H481 H 0.78723 0.84355 0.78042 0.0
H482 H 0.84509 0.85796 0.82492 0.0
H483 H 0.84341 0.82691 0.87459 0.0
H484 H 0.66212 0.66014 0.90981 0.0
H485 H 0.60461 0.6411 0.86448 0.0
C486 C 0.65709 0.71532 0.8173 0.0
C487 C 0.69097 0.75888 0.79445 0.0
C488 C 0.69053 0.72371 0.84315 0.0
C489 C 0.75939 0.80932 0.79757 0.0
C490 C 0.79277 0.81787 0.82311 0.0
C491 C 0.7913 0.78653 0.87228 0.0
C492 C 0.75698 0.74488 0.89545 0.0
C493 C 0.75864 0.77612 0.84616 0.0
C494 C 0.68973 0.69218 0.89213 0.0
C495 C 0.65675 0.68162 0.86626 0.0
H496 H -0.00771 0.88461 0.21882 0.0
H497 H 0.93602 0.68921 0.25372 0.0
H498 H 0.88131 0.63373 0.20939 0.0
H499 H 0.84868 0.64049 0.16116 0.0
H500 H 0.91136 0.83512 0.12382 0.0
H501 H 0.96467 0.8917 0.16856 0.0
C502 C 0.96792 0.82997 0.21653 0.0
C503 C 0.96746 0.79069 0.23937 0.0
C504 C 0.93782 0.79855 0.19068 0.0
C505 C 0.93666 0.72009 0.23631 0.0
C506 C 0.9054 0.68846 0.21104 0.0
C507 C 0.87374 0.69532 0.16283 0.0
C508 C 0.87529 0.73363 0.13944 0.0
C509 C 0.90544 0.72712 0.18818 0.0
C510 C 0.90932 0.80467 0.14165 0.0
C511 C 0.93964 0.83688 0.1672 0.0
H512 H 0.17215 0.00891 0.55939 0.0
H513 H 0.16332 0.83073 0.59408 0.0
H514 H 0.16398 0.78939 0.54664 0.0
H515 H 0.17022 0.80472 0.49568 0.0
H516 H 0.17785 0.98115 0.4597 0.0
H517 H 0.17419 0.02219 0.50727 0.0
C518 C 0.17024 0.96101 0.55648 0.0
C519 C 0.16742 0.92283 0.58027 0.0
C520 C 0.17048 0.93727 0.52898 0.0
C521 C 0.16451 0.86062 0.57618 0.0
C522 C 0.16531 0.83711 0.54905 0.0
C523 C 0.17105 0.85222 0.49811 0.0
C524 C 0.17482 0.89005 0.47411 0.0
C525 C 0.16869 0.87515 0.52535 0.0
C526 C 0.17493 0.95099 0.47779 0.0
C527 C 0.17305 0.97455 0.505 0.0
loop_
_geom_bond_atom_site_label_1
_geom_bond_atom_site_label_2
_geom_bond_distance
_geom_bond_site_symmetry_2
_ccdc_geom_bond_type
Eu0 C9 2.828 . S
Eu0 O11 2.392 . S
Eu0 O13 2.418 . S
Eu0 O18 2.373 . S
Eu0 O21 2.488 . S
Eu0 O22 2.471 . S
Eu0 O23 2.349 . S
Eu1 O10 2.373 1_554 S
Eu1 O14 2.488 1_554 S
Eu1 O15 2.471 1_554 S
Eu1 O16 2.349 . S
Eu1 O19 2.392 . S
Eu1 O20 2.418 . S
Eu1 C30 2.828 1_554 S
C2 O20 1.244 . S
C2 O23 1.265 . S
C3 C4 1.379 . S
C3 C7 1.373 . S
C3 C9 1.505 . S
C4 C3 1.379 . S
C4 C6 1.369 . S
C4 H32 0.930 . S
C5 C7 1.383 . S
C5 C8 1.382 . S
C5 H33 0.930 . S
C6 C4 1.369 . S
C6 C8 1.392 . S
C6 H34 0.930 . S
C7 C3 1.373 . S
C7 C5 1.383 . S
C7 H35 0.931 . S
C8 C5 1.382 . S
C8 C6 1.392 . S
C9 Eu0 2.828 . S
C9 C3 1.505 . S
C9 O21 1.249 . S
C9 O22 1.244 . S
O10 Eu1 2.373 1_556 S
O10 C12 1.258 . S
O11 Eu0 2.392 . S
O11 C12 1.242 1_554 S
C12 O10 1.258 . S
C12 O11 1.242 1_556 S
O13 Eu0 2.418 . S
O13 C17 1.244 . S
O14 Eu1 2.488 1_556 S
O14 C30 1.249 . S
O15 Eu1 2.471 1_556 S
O15 C30 1.244 . S
O16 Eu1 2.349 . S
O16 C17 1.265 . S
C17 O13 1.244 . S
C17 O16 1.265 . S
O18 Eu0 2.373 . S
O18 C31 1.258 . S
O19 Eu1 2.392 . S
O19 C31 1.242 . S
O20 Eu1 2.418 . S
O20 C2 1.244 . S
O21 Eu0 2.488 . S
O21 C9 1.249 . S
O22 Eu0 2.471 . S
O22 C9 1.244 . S
O23 Eu0 2.349 . S
O23 C2 1.265 . S
C24 C25 1.379 . S
C24 C28 1.373 . S
C24 C30 1.505 . S
C25 C24 1.379 . S
C25 C27 1.369 . S
C25 H36 0.930 . S
C26 C28 1.383 . S
C26 C29 1.382 . S
C26 H37 0.930 . S
C27 C25 1.369 . S
C27 C29 1.392 . S
C27 H38 0.930 . S
C28 C24 1.373 . S
C28 C26 1.383 . S
C28 H39 0.931 . S
C29 C26 1.382 . S
C29 C27 1.392 . S
C30 Eu1 2.828 1_556 S
C30 O14 1.249 . S
C30 O15 1.244 . S
C30 C24 1.505 . S
C31 O18 1.258 . S
C31 O19 1.242 . S
H32 C4 0.930 . S
H33 C5 0.930 . S
H34 C6 0.930 . S
H35 C7 0.931 . S
H36 C25 0.930 . S
H37 C26 0.930 . S
H38 C27 0.930 . S
H39 C28 0.931 . S
Eu40 C49 2.828 . S
Eu40 O51 2.392 . S
Eu40 O53 2.418 . S
Eu40 O58 2.373 . S
Eu40 O61 2.488 . S
Eu40 O62 2.471 . S
Eu40 O63 2.349 . S
Eu41 O50 2.373 . S
Eu41 O54 2.488 . S
Eu41 O55 2.471 . S
Eu41 O56 2.349 . S
Eu41 O59 2.392 . S
Eu41 O60 2.418 . S
Eu41 C70 2.828 . S
C42 O60 1.244 . S
C42 O63 1.265 . S
C43 C44 1.379 . S
C43 C47 1.373 . S
C43 C49 1.505 . S
C44 C43 1.379 . S
C44 C46 1.369 . S
C44 H72 0.930 . S
C45 C47 1.383 . S
C45 C48 1.382 . S
C45 H73 0.930 . S
C46 C44 1.369 . S
C46 C48 1.392 . S
C46 H74 0.930 . S
C47 C43 1.373 . S
C47 C45 1.383 . S
C47 H75 0.931 . S
C48 C45 1.382 . S
C48 C46 1.392 . S
C49 Eu40 2.828 . S
C49 C43 1.505 . S
C49 O61 1.249 . S
C49 O62 1.244 . S
O50 Eu41 2.373 . S
O50 C52 1.258 . S
O51 Eu40 2.392 . S
O51 C52 1.242 . S
C52 O50 1.258 . S
C52 O51 1.242 . S
O53 Eu40 2.418 . S
O53 C57 1.244 . S
O54 Eu41 2.488 . S
O54 C70 1.249 . S
O55 Eu41 2.471 . S
O55 C70 1.244 . S
O56 Eu41 2.349 . S
O56 C57 1.265 . S
C57 O53 1.244 . S
C57 O56 1.265 . S
O58 Eu40 2.373 . S
O58 C71 1.258 . S
O59 Eu41 2.392 . S
O59 C71 1.242 . S
O60 Eu41 2.418 . S
O60 C42 1.244 . S
O61 Eu40 2.488 . S
O61 C49 1.249 . S
O62 Eu40 2.471 . S
O62 C49 1.244 . S
O63 Eu40 2.349 . S
O63 C42 1.265 . S
C64 C65 1.379 . S
C64 C68 1.373 . S
C64 C70 1.505 . S
C65 C64 1.379 . S
C65 C67 1.369 1_655 S
C65 H76 0.930 1_655 S
C66 C68 1.383 . S
C66 C69 1.382 1_655 S
C66 H77 0.930 . S
C67 C65 1.369 1_455 S
C67 C69 1.392 . S
C67 H78 0.930 . S
C68 C64 1.373 . S
C68 C66 1.383 . S
C68 H79 0.931 . S
C69 C66 1.382 1_455 S
C69 C67 1.392 . S
C70 Eu41 2.828 . S
C70 O54 1.249 . S
C70 O55 1.244 . S
C70 C64 1.505 . S
C71 O58 1.258 . S
C71 O59 1.242 . S
H72 C44 0.930 . S
H73 C45 0.930 . S
H74 C46 0.930 . S
H75 C47 0.931 . S
H76 C65 0.930 1_455 S
H77 C66 0.930 . S
H78 C67 0.930 . S
H79 C68 0.931 . S
Eu80 C89 2.828 . S
Eu80 O91 2.392 . S
Eu80 O93 2.418 . S
Eu80 O98 2.373 . S
Eu80 O101 2.488 . S
Eu80 O102 2.471 . S
Eu80 O103 2.349 . S
Eu81 O90 2.373 . S
Eu81 O94 2.488 . S
Eu81 O95 2.471 . S
Eu81 O96 2.349 . S
Eu81 O99 2.392 . S
Eu81 O100 2.418 . S
Eu81 C110 2.828 . S
C82 O100 1.244 . S
C82 O103 1.265 . S
C83 C84 1.379 . S
C83 C87 1.373 . S
C83 C89 1.505 . S
C84 C83 1.379 . S
C84 C86 1.369 . S
C84 H112 0.930 . S
C85 C87 1.383 . S
C85 C88 1.382 . S
C85 H113 0.930 . S
C86 C84 1.369 . S
C86 C88 1.392 . S
C86 H114 0.930 . S
C87 C83 1.373 . S
C87 C85 1.383 . S
C87 H115 0.931 . S
C88 C85 1.382 . S
C88 C86 1.392 . S
C89 Eu80 2.828 . S
C89 C83 1.505 . S
C89 O101 1.249 . S
C89 O102 1.244 . S
O90 Eu81 2.373 . S
O90 C92 1.258 . S
O91 Eu80 2.392 . S
O91 C92 1.242 . S
C92 O90 1.258 . S
C92 O91 1.242 . S
O93 Eu80 2.418 . S
O93 C97 1.244 . S
O94 Eu81 2.488 . S
O94 C110 1.249 . S
O95 Eu81 2.471 . S
O95 C110 1.244 . S
O96 Eu81 2.349 . S
O96 C97 1.265 . S
C97 O93 1.244 . S
C97 O96 1.265 . S
O98 Eu80 2.373 . S
O98 C111 1.258 . S
O99 Eu81 2.392 . S
O99 C111 1.242 . S
O100 Eu81 2.418 . S
O100 C82 1.244 . S
O101 Eu80 2.488 . S
O101 C89 1.249 . S
O102 Eu80 2.471 . S
O102 C89 1.244 . S
O103 Eu80 2.349 . S
O103 C82 1.265 . S
C104 C105 1.379 . S
C104 C108 1.373 . S
C104 C110 1.505 . S
C105 C104 1.379 . S
C105 C107 1.369 1_565 S
C105 H116 0.930 1_565 S
C106 C108 1.383 . S
C106 C109 1.382 1_565 S
C106 H117 0.930 . S
C107 C105 1.369 1_545 S
C107 C109 1.392 . S
C107 H118 0.930 . S
C108 C104 1.373 . S
C108 C106 1.383 . S
C108 H119 0.931 . S
C109 C106 1.382 1_545 S
C109 C107 1.392 . S
C110 Eu81 2.828 . S
C110 O94 1.249 . S
C110 O95 1.244 . S
C110 C104 1.505 . S
C111 O98 1.258 . S
C111 O99 1.242 . S
H112 C84 0.930 . S
H113 C85 0.930 . S
H114 C86 0.930 . S
H115 C87 0.931 . S
H116 C105 0.930 1_545 S
H117 C106 0.930 . S
H118 C107 0.930 . S
H119 C108 0.931 . S
Eu120 C129 2.828 . S
Eu120 O131 2.392 . S
Eu120 O133 2.418 . S
Eu120 O138 2.373 . S
Eu120 O141 2.488 . S
Eu120 O142 2.471 . S
Eu120 O143 2.349 . S
Eu121 O130 2.373 1_554 S
Eu121 O134 2.488 1_554 S
Eu121 O135 2.471 1_554 S
Eu121 O136 2.349 . S
Eu121 O139 2.392 . S
Eu121 O140 2.418 . S
Eu121 C150 2.828 1_554 S
C122 O140 1.244 . S
C122 O143 1.265 . S
C123 C124 1.379 . S
C123 C127 1.373 . S
C123 C129 1.505 . S
C124 C123 1.379 . S
C124 C126 1.369 . S
C124 H152 0.930 . S
C125 C127 1.383 . S
C125 C128 1.382 . S
C125 H153 0.930 . S
C126 C124 1.369 . S
C126 C128 1.392 . S
C126 H154 0.930 . S
C127 C123 1.373 . S
C127 C125 1.383 . S
C127 H155 0.931 . S
C128 C125 1.382 . S
C128 C126 1.392 . S
C129 Eu120 2.828 . S
C129 C123 1.505 . S
C129 O141 1.249 . S
C129 O142 1.244 . S
O130 Eu121 2.373 1_556 S
O130 C132 1.258 . S
O131 Eu120 2.392 . S
O131 C132 1.242 1_554 S
C132 O130 1.258 . S
C132 O131 1.242 1_556 S
O133 Eu120 2.418 . S
O133 C137 1.244 . S
O134 Eu121 2.488 1_556 S
O134 C150 1.249 . S
O135 Eu121 2.471 1_556 S
O135 C150 1.244 . S
O136 Eu121 2.349 . S
O136 C137 1.265 . S
C137 O133 1.244 . S
C137 O136 1.265 . S
O138 Eu120 2.373 . S
O138 C151 1.258 . S
O139 Eu121 2.392 . S
O139 C151 1.242 . S
O140 Eu121 2.418 . S
O140 C122 1.244 . S
O141 Eu120 2.488 . S
O141 C129 1.249 . S
O142 Eu120 2.471 . S
O142 C129 1.244 . S
O143 Eu120 2.349 . S
O143 C122 1.265 . S
C144 C145 1.379 . S
C144 C148 1.373 . S
C144 C150 1.505 . S
C145 C144 1.379 . S
C145 C147 1.369 . S
C145 H156 0.930 . S
C146 C148 1.383 . S
C146 C149 1.382 . S
C146 H157 0.930 . S
C147 C145 1.369 . S
C147 C149 1.392 . S
C147 H158 0.930 . S
C148 C144 1.373 . S
C148 C146 1.383 . S
C148 H159 0.931 . S
C149 C146 1.382 . S
C149 C147 1.392 . S
C150 Eu121 2.828 1_556 S
C150 O134 1.249 . S
C150 O135 1.244 . S
C150 C144 1.505 . S
C151 O138 1.258 . S
C151 O139 1.242 . S
H152 C124 0.930 . S
H153 C125 0.930 . S
H154 C126 0.930 . S
H155 C127 0.931 . S
H156 C145 0.930 . S
H157 C146 0.930 . S
H158 C147 0.930 . S
H159 C148 0.931 . S
Eu160 C169 2.828 . S
Eu160 O171 2.392 . S
Eu160 O173 2.418 . S
Eu160 O178 2.373 . S
Eu160 O181 2.488 . S
Eu160 O182 2.471 . S
Eu160 O183 2.349 . S
Eu161 O170 2.373 . S
Eu161 O174 2.488 . S
Eu161 O175 2.471 . S
Eu161 O176 2.349 . S
Eu161 O179 2.392 . S
Eu161 O180 2.418 . S
Eu161 C190 2.828 . S
C162 O180 1.244 . S
C162 O183 1.265 . S
C163 C164 1.379 . S
C163 C167 1.373 . S
C163 C169 1.505 . S
C164 C163 1.379 . S
C164 C166 1.369 . S
C164 H192 0.930 . S
C165 C167 1.383 . S
C165 C168 1.382 . S
C165 H193 0.930 . S
C166 C164 1.369 . S
C166 C168 1.392 . S
C166 H194 0.930 . S
C167 C163 1.373 . S
C167 C165 1.383 . S
C167 H195 0.931 . S
C168 C165 1.382 . S
C168 C166 1.392 . S
C169 Eu160 2.828 . S
C169 C163 1.505 . S
C169 O181 1.249 . S
C169 O182 1.244 . S
O170 Eu161 2.373 . S
O170 C172 1.258 . S
O171 Eu160 2.392 . S
O171 C172 1.242 . S
C172 O170 1.258 . S
C172 O171 1.242 . S
O173 Eu160 2.418 . S
O173 C177 1.244 . S
O174 Eu161 2.488 . S
O174 C190 1.249 . S
O175 Eu161 2.471 . S
O175 C190 1.244 . S
O176 Eu161 2.349 . S
O176 C177 1.265 . S
C177 O173 1.244 . S
C177 O176 1.265 . S
O178 Eu160 2.373 . S
O178 C191 1.258 . S
O179 Eu161 2.392 . S
O179 C191 1.242 . S
O180 Eu161 2.418 . S
O180 C162 1.244 . S
O181 Eu160 2.488 . S
O181 C169 1.249 . S
O182 Eu160 2.471 . S
O182 C169 1.244 . S
O183 Eu160 2.349 . S
O183 C162 1.265 . S
C184 C185 1.379 . S
C184 C188 1.373 . S
C184 C190 1.505 . S
C185 C184 1.379 . S
C185 C187 1.369 1_455 S
C185 H196 0.930 1_455 S
C186 C188 1.383 . S
C186 C189 1.382 1_455 S
C186 H197 0.930 . S
C187 C185 1.369 1_655 S
C187 C189 1.392 . S
C187 H198 0.930 . S
C188 C184 1.373 . S
C188 C186 1.383 . S
C188 H199 0.931 . S
C189 C186 1.382 1_655 S
C189 C187 1.392 . S
C190 Eu161 2.828 . S
C190 O174 1.249 . S
C190 O175 1.244 . S
C190 C184 1.505 . S
C191 O178 1.258 . S
C191 O179 1.242 . S
H192 C164 0.930 . S
H193 C165 0.930 . S
H194 C166 0.930 . S
H195 C167 0.931 . S
H196 C185 0.930 1_655 S
H197 C186 0.930 . S
H198 C187 0.930 . S
H199 C188 0.931 . S
Eu200 C209 2.828 . S
Eu200 O211 2.392 . S
Eu200 O213 2.418 . S
Eu200 O218 2.373 . S
Eu200 O221 2.488 . S
Eu200 O222 2.471 . S
Eu200 O223 2.349 . S
Eu201 O210 2.373 . S
Eu201 O214 2.488 . S
Eu201 O215 2.471 . S
Eu201 O216 2.349 . S
Eu201 O219 2.392 . S
Eu201 O220 2.418 . S
Eu201 C230 2.828 . S
C202 O220 1.244 . S
C202 O223 1.265 . S
C203 C204 1.379 . S
C203 C207 1.373 . S
C203 C209 1.505 . S
C204 C203 1.379 . S
C204 C206 1.369 . S
C204 H232 0.930 . S
C205 C207 1.383 . S
C205 C208 1.382 . S
C205 H233 0.930 . S
C206 C204 1.369 . S
C206 C208 1.392 . S
C206 H234 0.930 . S
C207 C203 1.373 . S
C207 C205 1.383 . S
C207 H235 0.931 . S
C208 C205 1.382 . S
C208 C206 1.392 . S
C209 Eu200 2.828 . S
C209 C203 1.505 . S
C209 O221 1.249 . S
C209 O222 1.244 . S
O210 Eu201 2.373 . S
O210 C212 1.258 . S
O211 Eu200 2.392 . S
O211 C212 1.242 . S
C212 O210 1.258 . S
C212 O211 1.242 . S
O213 Eu200 2.418 . S
O213 C217 1.244 . S
O214 Eu201 2.488 . S
O214 C230 1.249 . S
O215 Eu201 2.471 . S
O215 C230 1.244 . S
O216 Eu201 2.349 . S
O216 C217 1.265 . S
C217 O213 1.244 . S
C217 O216 1.265 . S
O218 Eu200 2.373 . S
O218 C231 1.258 . S
O219 Eu201 2.392 . S
O219 C231 1.242 . S
O220 Eu201 2.418 . S
O220 C202 1.244 . S
O221 Eu200 2.488 . S
O221 C209 1.249 . S
O222 Eu200 2.471 . S
O222 C209 1.244 . S
O223 Eu200 2.349 . S
O223 C202 1.265 . S
C224 C225 1.379 . S
C224 C228 1.373 . S
C224 C230 1.505 . S
C225 C224 1.379 . S
C225 C227 1.369 1_545 S
C225 H236 0.930 1_545 S
C226 C228 1.383 . S
C226 C229 1.382 1_545 S
C226 H237 0.930 . S
C227 C225 1.369 1_565 S
C227 C229 1.392 . S
C227 H238 0.930 . S
C228 C224 1.373 . S
C228 C226 1.383 . S
C228 H239 0.931 . S
C229 C226 1.382 1_565 S
C229 C227 1.392 . S
C230 Eu201 2.828 . S
C230 O214 1.249 . S
C230 O215 1.244 . S
C230 C224 1.505 . S
C231 O218 1.258 . S
C231 O219 1.242 . S
H232 C204 0.930 . S
H233 C205 0.930 . S
H234 C206 0.930 . S
H235 C207 0.931 . S
H236 C225 0.930 1_565 S
H237 C226 0.930 . S
H238 C227 0.930 . S
H239 C228 0.931 . S
H240 C246 0.930 . S
H241 C249 0.930 . S
H242 C250 0.930 . S
H243 C251 0.930 . S
H244 C254 0.930 . S
H245 C255 0.930 . S
C246 H240 0.930 . S
C246 C247 1.355 . S
C246 C248 1.415 . S
C247 C246 1.355 . S
C247 C249 1.419 . S
C248 C246 1.415 . S
C248 C253 1.425 . S
C248 C255 1.409 . S
C249 H241 0.930 . S
C249 C247 1.419 . S
C249 C250 1.362 . S
C250 H242 0.930 . S
C250 C249 1.362 . S
C250 C253 1.409 . S
C251 H243 0.930 . S
C251 C252 1.355 . S
C251 C253 1.415 . S
C252 C251 1.355 . S
C252 C254 1.419 . S
C253 C248 1.425 . S
C253 C250 1.409 . S
C253 C251 1.415 . S
C254 H244 0.930 . S
C254 C252 1.419 . S
C254 C255 1.362 . S
C255 H245 0.930 . S
C255 C248 1.409 . S
C255 C254 1.362 . S
H256 C262 0.930 . S
H257 C265 0.930 . S
H258 C266 0.930 . S
H259 C267 0.930 . S
H260 C270 0.930 . S
H261 C271 0.930 . S
C262 H256 0.930 . S
C262 C263 1.355 . S
C262 C264 1.415 . S
C263 C262 1.355 . S
C263 C265 1.419 . S
C264 C262 1.415 . S
C264 C269 1.425 . S
C264 C271 1.409 . S
C265 H257 0.930 . S
C265 C263 1.419 . S
C265 C266 1.362 . S
C266 H258 0.930 . S
C266 C265 1.362 . S
C266 C269 1.409 . S
C267 H259 0.930 . S
C267 C268 1.355 . S
C267 C269 1.415 . S
C268 C267 1.355 . S
C268 C270 1.419 . S
C269 C264 1.425 . S
C269 C266 1.409 . S
C269 C267 1.415 . S
C270 H260 0.930 . S
C270 C268 1.419 . S
C270 C271 1.362 . S
C271 H261 0.930 . S
C271 C264 1.409 . S
C271 C270 1.362 . S
H272 C278 0.930 . S
H273 C281 0.930 . S
H274 C282 0.930 . S
H275 C283 0.930 . S
H276 C286 0.930 . S
H277 C287 0.930 . S
C278 H272 0.930 . S
C278 C279 1.355 . S
C278 C280 1.415 . S
C279 C278 1.355 . S
C279 C281 1.419 . S
C280 C278 1.415 . S
C280 C285 1.425 . S
C280 C287 1.409 . S
C281 H273 0.930 . S
C281 C279 1.419 . S
C281 C282 1.362 . S
C282 H274 0.930 . S
C282 C281 1.362 . S
C282 C285 1.409 . S
C283 H275 0.930 . S
C283 C284 1.355 . S
C283 C285 1.415 . S
C284 C283 1.355 . S
C284 C286 1.419 . S
C285 C280 1.425 . S
C285 C282 1.409 . S
C285 C283 1.415 . S
C286 H276 0.930 . S
C286 C284 1.419 . S
C286 C287 1.362 . S
C287 H277 0.930 . S
C287 C280 1.409 . S
C287 C286 1.362 . S
H288 C294 0.930 . S
H289 C297 0.930 . S
H290 C298 0.930 . S
H291 C299 0.930 . S
H292 C302 0.930 . S
H293 C303 0.930 . S
C294 H288 0.930 . S
C294 C295 1.355 . S
C294 C296 1.415 . S
C295 C294 1.355 . S
C295 C297 1.419 . S
C296 C294 1.415 . S
C296 C301 1.425 . S
C296 C303 1.409 . S
C297 H289 0.930 . S
C297 C295 1.419 . S
C297 C298 1.362 . S
C298 H290 0.930 . S
C298 C297 1.362 . S
C298 C301 1.409 . S
C299 H291 0.930 . S
C299 C300 1.355 . S
C299 C301 1.415 . S
C300 C299 1.355 . S
C300 C302 1.419 . S
C301 C296 1.425 . S
C301 C298 1.409 . S
C301 C299 1.415 . S
C302 H292 0.930 . S
C302 C300 1.419 . S
C302 C303 1.362 . S
C303 H293 0.930 . S
C303 C296 1.409 . S
C303 C302 1.362 . S
H304 C310 0.930 . S
H305 C313 0.930 . S
H306 C314 0.930 . S
H307 C315 0.930 . S
H308 C318 0.930 . S
H309 C319 0.930 . S
C310 H304 0.930 . S
C310 C311 1.355 . S
C310 C312 1.415 . S
C311 C310 1.355 . S
C311 C313 1.419 . S
C312 C310 1.415 . S
C312 C317 1.425 . S
C312 C319 1.409 . S
C313 H305 0.930 . S
C313 C311 1.419 . S
C313 C314 1.362 . S
C314 H306 0.930 . S
C314 C313 1.362 . S
C314 C317 1.409 . S
C315 H307 0.930 . S
C315 C316 1.355 . S
C315 C317 1.415 . S
C316 C315 1.355 . S
C316 C318 1.419 . S
C317 C312 1.425 . S
C317 C314 1.409 . S
C317 C315 1.415 . S
C318 H308 0.930 . S
C318 C316 1.419 . S
C318 C319 1.362 . S
C319 H309 0.930 . S
C319 C312 1.409 . S
C319 C318 1.362 . S
H320 C326 0.930 . S
H321 C329 0.930 . S
H322 C330 0.930 . S
H323 C331 0.930 . S
H324 C334 0.930 . S
H325 C335 0.930 . S
C326 H320 0.930 . S
C326 C327 1.355 . S
C326 C328 1.415 . S
C327 C326 1.355 . S
C327 C329 1.419 . S
C328 C326 1.415 . S
C328 C333 1.425 . S
C328 C335 1.409 . S
C329 H321 0.930 . S
C329 C327 1.419 . S
C329 C330 1.362 . S
C330 H322 0.930 . S
C330 C329 1.362 . S
C330 C333 1.409 . S
C331 H323 0.930 . S
C331 C332 1.355 . S
C331 C333 1.415 . S
C332 C331 1.355 . S
C332 C334 1.419 . S
C333 C328 1.425 . S
C333 C330 1.409 . S
C333 C331 1.415 . S
C334 H324 0.930 . S
C334 C332 1.419 . S
C334 C335 1.362 . S
C335 H325 0.930 . S
C335 C328 1.409 . S
C335 C334 1.362 . S
H336 C342 0.930 . S
H337 C345 0.930 . S
H338 C346 0.930 . S
H339 C347 0.930 . S
H340 C350 0.930 . S
H341 C351 0.930 . S
C342 H336 0.930 . S
C342 C343 1.355 . S
C342 C344 1.415 . S
C343 C342 1.355 . S
C343 C345 1.419 . S
C344 C342 1.415 . S
C344 C349 1.425 . S
C344 C351 1.409 . S
C345 H337 0.930 . S
C345 C343 1.419 . S
C345 C346 1.362 . S
C346 H338 0.930 . S
C346 C345 1.362 . S
C346 C349 1.409 . S
C347 H339 0.930 . S
C347 C348 1.355 . S
C347 C349 1.415 . S
C348 C347 1.355 . S
C348 C350 1.419 . S
C349 C344 1.425 . S
C349 C346 1.409 . S
C349 C347 1.415 . S
C350 H340 0.930 . S
C350 C348 1.419 . S
C350 C351 1.362 . S
C351 H341 0.930 . S
C351 C344 1.409 . S
C351 C350 1.362 . S
H352 C358 0.930 . S
H353 C361 0.930 . S
H354 C362 0.930 . S
H355 C363 0.930 . S
H356 C366 0.930 . S
H357 C367 0.930 . S
C358 H352 0.930 . S
C358 C359 1.355 . S
C358 C360 1.415 . S
C359 C358 1.355 . S
C359 C361 1.419 1_455 S
C360 C358 1.415 . S
C360 C365 1.425 1_455 S
C360 C367 1.409 . S
C361 H353 0.930 . S
C361 C359 1.419 1_655 S
C361 C362 1.362 . S
C362 H354 0.930 . S
C362 C361 1.362 . S
C362 C365 1.409 . S
C363 H355 0.930 . S
C363 C364 1.355 . S
C363 C365 1.415 . S
C364 C363 1.355 . S
C364 C366 1.419 1_655 S
C365 C360 1.425 1_655 S
C365 C362 1.409 . S
C365 C363 1.415 . S
C366 H356 0.930 . S
C366 C364 1.419 1_455 S
C366 C367 1.362 . S
C367 H357 0.930 . S
C367 C360 1.409 . S
C367 C366 1.362 . S
H368 C374 0.930 . S
H369 C377 0.930 . S
H370 C378 0.930 . S
H371 C379 0.930 . S
H372 C382 0.930 . S
H373 C383 0.930 . S
C374 H368 0.930 . S
C374 C375 1.355 . S
C374 C376 1.415 . S
C375 C374 1.355 . S
C375 C377 1.419 1_545 S
C376 C374 1.415 . S
C376 C381 1.425 1_545 S
C376 C383 1.409 . S
C377 H369 0.930 . S
C377 C375 1.419 1_565 S
C377 C378 1.362 . S
C378 H370 0.930 . S
C378 C377 1.362 . S
C378 C381 1.409 . S
C379 H371 0.930 . S
C379 C380 1.355 . S
C379 C381 1.415 . S
C380 C379 1.355 . S
C380 C382 1.419 1_565 S
C381 C376 1.425 1_565 S
C381 C378 1.409 . S
C381 C379 1.415 . S
C382 H372 0.930 . S
C382 C380 1.419 1_545 S
C382 C383 1.362 . S
C383 H373 0.930 . S
C383 C376 1.409 . S
C383 C382 1.362 . S
H384 C390 0.930 . S
H385 C393 0.930 . S
H386 C394 0.930 . S
H387 C395 0.930 . S
H388 C398 0.930 . S
H389 C399 0.930 . S
C390 H384 0.930 . S
C390 C391 1.355 . S
C390 C392 1.415 . S
C391 C390 1.355 . S
C391 C393 1.419 . S
C392 C390 1.415 . S
C392 C397 1.425 . S
C392 C399 1.409 . S
C393 H385 0.930 . S
C393 C391 1.419 . S
C393 C394 1.362 . S
C394 H386 0.930 . S
C394 C393 1.362 . S
C394 C397 1.409 . S
C395 H387 0.930 . S
C395 C396 1.355 . S
C395 C397 1.415 . S
C396 C395 1.355 . S
C396 C398 1.419 . S
C397 C392 1.425 . S
C397 C394 1.409 . S
C397 C395 1.415 . S
C398 H388 0.930 . S
C398 C396 1.419 . S
C398 C399 1.362 . S
C399 H389 0.930 . S
C399 C392 1.409 . S
C399 C398 1.362 . S
H400 C406 0.930 1_556 S
H401 C409 0.930 . S
H402 C410 0.930 . S
H403 C411 0.930 . S
H404 C414 0.930 1_556 S
H405 C415 0.930 . S
C406 H400 0.930 1_554 S
C406 C407 1.355 . S
C406 C408 1.415 1_455 S
C407 C406 1.355 . S
C407 C409 1.419 . S
C408 C406 1.415 1_655 S
C408 C413 1.425 1_655 S
C408 C415 1.409 1_554 S
C409 H401 0.930 . S
C409 C407 1.419 . S
C409 C410 1.362 . S
C410 H402 0.930 . S
C410 C409 1.362 . S
C410 C413 1.409 . S
C411 H403 0.930 . S
C411 C412 1.355 . S
C411 C413 1.415 1_655 S
C412 C411 1.355 . S
C412 C414 1.419 . S
C413 C408 1.425 1_455 S
C413 C410 1.409 . S
C413 C411 1.415 1_455 S
C414 H404 0.930 1_554 S
C414 C412 1.419 . S
C414 C415 1.362 1_554 S
C415 H405 0.930 . S
C415 C408 1.409 1_556 S
C415 C414 1.362 1_556 S
H416 C422 0.930 . S
H417 C425 0.930 . S
H418 C426 0.930 . S
H419 C427 0.930 . S
H420 C430 0.930 . S
H421 C431 0.930 . S
C422 H416 0.930 . S
C422 C423 1.355 . S
C422 C424 1.415 . S
C423 C422 1.355 . S
C423 C425 1.419 1_565 S
C424 C422 1.415 . S
C424 C429 1.425 1_565 S
C424 C431 1.409 . S
C425 H417 0.930 . S
C425 C423 1.419 1_545 S
C425 C426 1.362 . S
C426 H418 0.930 . S
C426 C425 1.362 . S
C426 C429 1.409 . S
C427 H419 0.930 . S
C427 C428 1.355 . S
C427 C429 1.415 . S
C428 C427 1.355 . S
C428 C430 1.419 1_545 S
C429 C424 1.425 1_545 S
C429 C426 1.409 . S
C429 C427 1.415 . S
C430 H420 0.930 . S
C430 C428 1.419 1_565 S
C430 C431 1.362 . S
C431 H421 0.930 . S
C431 C424 1.409 . S
C431 C430 1.362 . S
H432 C438 0.930 . S
H433 C441 0.930 . S
H434 C442 0.930 . S
H435 C443 0.930 . S
H436 C446 0.930 . S
H437 C447 0.930 . S
C438 H432 0.930 . S
C438 C439 1.355 . S
C438 C440 1.415 . S
C439 C438 1.355 . S
C439 C441 1.419 . S
C440 C438 1.415 . S
C440 C445 1.425 . S
C440 C447 1.409 . S
C441 H433 0.930 . S
C441 C439 1.419 . S
C441 C442 1.362 . S
C442 H434 0.930 . S
C442 C441 1.362 . S
C442 C445 1.409 . S
C443 H435 0.930 . S
C443 C444 1.355 . S
C443 C445 1.415 . S
C444 C443 1.355 . S
C444 C446 1.419 . S
C445 C440 1.425 . S
C445 C442 1.409 . S
C445 C443 1.415 . S
C446 H436 0.930 . S
C446 C444 1.419 . S
C446 C447 1.362 . S
C447 H437 0.930 . S
C447 C440 1.409 . S
C447 C446 1.362 . S
H448 C454 0.930 . S
H449 C457 0.930 . S
H450 C458 0.930 . S
H451 C459 0.930 . S
H452 C462 0.930 . S
H453 C463 0.930 . S
C454 H448 0.930 . S
C454 C455 1.355 . S
C454 C456 1.415 . S
C455 C454 1.355 . S
C455 C457 1.419 1_455 S
C456 C454 1.415 . S
C456 C461 1.425 . S
C456 C463 1.409 . S
C457 H449 0.930 . S
C457 C455 1.419 1_655 S
C457 C458 1.362 . S
C458 H450 0.930 . S
C458 C457 1.362 . S
C458 C461 1.409 1_655 S
C459 H451 0.930 . S
C459 C460 1.355 . S
C459 C461 1.415 . S
C460 C459 1.355 . S
C460 C462 1.419 . S
C461 C456 1.425 . S
C461 C458 1.409 1_455 S
C461 C459 1.415 . S
C462 H452 0.930 . S
C462 C460 1.419 . S
C462 C463 1.362 . S
C463 H453 0.930 . S
C463 C456 1.409 . S
C463 C462 1.362 . S
H464 C470 0.930 . S
H465 C473 0.930 . S
H466 C474 0.930 . S
H467 C475 0.930 . S
H468 C478 0.930 . S
H469 C479 0.930 . S
C470 H464 0.930 . S
C470 C471 1.355 . S
C470 C472 1.415 . S
C471 C470 1.355 . S
C471 C473 1.419 . S
C472 C470 1.415 . S
C472 C477 1.425 . S
C472 C479 1.409 . S
C473 H465 0.930 . S
C473 C471 1.419 . S
C473 C474 1.362 . S
C474 H466 0.930 . S
C474 C473 1.362 . S
C474 C477 1.409 . S
C475 H467 0.930 . S
C475 C476 1.355 . S
C475 C477 1.415 . S
C476 C475 1.355 . S
C476 C478 1.419 . S
C477 C472 1.425 . S
C477 C474 1.409 . S
C477 C475 1.415 . S
C478 H468 0.930 . S
C478 C476 1.419 . S
C478 C479 1.362 . S
C479 H469 0.930 . S
C479 C472 1.409 . S
C479 C478 1.362 . S
H480 C486 0.930 . S
H481 C489 0.930 . S
H482 C490 0.930 . S
H483 C491 0.930 . S
H484 C494 0.930 . S
H485 C495 0.930 . S
C486 H480 0.930 . S
C486 C487 1.355 . S
C486 C488 1.415 . S
C487 C486 1.355 . S
C487 C489 1.419 . S
C488 C486 1.415 . S
C488 C493 1.425 . S
C488 C495 1.409 . S
C489 H481 0.930 . S
C489 C487 1.419 . S
C489 C490 1.362 . S
C490 H482 0.930 . S
C490 C489 1.362 . S
C490 C493 1.409 . S
C491 H483 0.930 . S
C491 C492 1.355 . S
C491 C493 1.415 . S
C492 C491 1.355 . S
C492 C494 1.419 . S
C493 C488 1.425 . S
C493 C490 1.409 . S
C493 C491 1.415 . S
C494 H484 0.930 . S
C494 C492 1.419 . S
C494 C495 1.362 . S
C495 H485 0.930 . S
C495 C488 1.409 . S
C495 C494 1.362 . S
H496 C502 0.930 1_455 S
H497 C505 0.930 . S
H498 C506 0.930 . S
H499 C507 0.930 . S
H500 C510 0.930 . S
H501 C511 0.930 1_455 S
C502 H496 0.930 1_655 S
C502 C503 1.355 . S
C502 C504 1.415 . S
C503 C502 1.355 . S
C503 C505 1.419 . S
C504 C502 1.415 . S
C504 C509 1.425 . S
C504 C511 1.409 . S
C505 H497 0.930 . S
C505 C503 1.419 . S
C505 C506 1.362 . S
C506 H498 0.930 . S
C506 C505 1.362 . S
C506 C509 1.409 . S
C507 H499 0.930 . S
C507 C508 1.355 . S
C507 C509 1.415 . S
C508 C507 1.355 . S
C508 C510 1.419 . S
C509 C504 1.425 . S
C509 C506 1.409 . S
C509 C507 1.415 . S
C510 H500 0.930 . S
C510 C508 1.419 . S
C510 C511 1.362 . S
C511 H501 0.930 1_655 S
C511 C504 1.409 . S
C511 C510 1.362 . S
H512 C518 0.930 . S
H513 C521 0.930 . S
H514 C522 0.930 . S
H515 C523 0.930 . S
H516 C526 0.930 . S
H517 C527 0.930 . S
C518 H512 0.930 . S
C518 C519 1.355 . S
C518 C520 1.415 . S
C519 C518 1.355 . S
C519 C521 1.419 . S
C520 C518 1.415 . S
C520 C525 1.425 . S
C520 C527 1.409 . S
C521 H513 0.930 . S
C521 C519 1.419 . S
C521 C522 1.362 . S
C522 H514 0.930 . S
C522 C521 1.362 . S
C522 C525 1.409 . S
C523 H515 0.930 . S
C523 C524 1.355 . S
C523 C525 1.415 . S
C524 C523 1.355 . S
C524 C526 1.419 . S
C525 C520 1.425 . S
C525 C522 1.409 . S
C525 C523 1.415 . S
C526 H516 0.930 . S
C526 C524 1.419 . S
C526 C527 1.362 . S
C527 H517 0.930 . S
C527 C520 1.409 . S
C527 C526 1.362 . S
C247 C172 1.193 . S
C252 C8 1.198 . S
C263 C212 1.179 . S
C268 C48 1.175 . S
C279 C12 1.196 . S
C284 C88 1.200 . S
C295 C52 1.194 . S
C300 C128 1.187 . S
C311 C92 1.180 . S
C316 C168 1.174 . S
C327 C132 1.194 . S
C332 C208 1.198 . S
C343 C17 0.935 . S
C348 C137 0.936 . S
C359 C177 1.098 . S
C364 C57 1.105 . S
C375 C217 1.114 . S
C380 C97 1.111 . S
C391 C82 1.225 . S
C396 C202 1.231 . S
C407 C2 1.202 . S
C412 C122 1.193 . S
C423 C162 1.231 . S
C428 C42 1.227 . S
C439 C231 1.265 . S
C444 C29 1.253 . S
C455 C69 1.240 . S
C460 C31 1.270 . S
C471 C109 1.271 . S
C476 C71 1.258 . S
C487 C111 1.266 . S
C492 C149 1.251 . S
C503 C189 1.275 . S
C508 C151 1.256 . S
C519 C229 1.234 . S
C524 C191 1.271 . S
