# Generated by pormake.
# Topology sml, (6)-cn, num edge types: 1
# Building blocks:
#     Node 0, Type 0, BuildingBlock: BETGAK_clean_sbu_0, # of connection points: 6
#     Node 1, Type 0, BuildingBlock: BETGAK_clean_sbu_0, # of connection points: 6
#     Node 2, Type 0, BuildingBlock: BETGAK_clean_sbu_0, # of connection points: 6
#     Node 3, Type 0, BuildingBlock: BETGAK_clean_sbu_0, # of connection points: 6
#     Node 4, Type 0, BuildingBlock: BETGAK_clean_sbu_0, # of connection points: 6
#     Node 5, Type 0, BuildingBlock: BETGAK_clean_sbu_0, # of connection points: 6
#     Edge 6, Type (0, 0), BuildingBlock: EYOCIG_clean_linker_4, # of connection points: 2
#     Edge 7, Type (0, 0), BuildingBlock: EYOCIG_clean_linker_4, # of connection points: 2
#     Edge 8, Type (0, 0), BuildingBlock: EYOCIG_clean_linker_4, # of connection points: 2
#     Edge 9, Type (0, 0), BuildingBlock: EYOCIG_clean_linker_4, # of connection points: 2
#     Edge 10, Type (0, 0), BuildingBlock: EYOCIG_clean_linker_4, # of connection points: 2
#     Edge 11, Type (0, 0), BuildingBlock: EYOCIG_clean_linker_4, # of connection points: 2
#     Edge 12, Type (0, 0), BuildingBlock: EYOCIG_clean_linker_4, # of connection points: 2
#     Edge 13, Type (0, 0), BuildingBlock: EYOCIG_clean_linker_4, # of connection points: 2
#     Edge 14, Type (0, 0), BuildingBlock: EYOCIG_clean_linker_4, # of connection points: 2
#     Edge 15, Type (0, 0), BuildingBlock: EYOCIG_clean_linker_4, # of connection points: 2
#     Edge 16, Type (0, 0), BuildingBlock: EYOCIG_clean_linker_4, # of connection points: 2
#     Edge 17, Type (0, 0), BuildingBlock: EYOCIG_clean_linker_4, # of connection points: 2
#     Edge 18, Type (0, 0), BuildingBlock: EYOCIG_clean_linker_4, # of connection points: 2
#     Edge 19, Type (0, 0), BuildingBlock: EYOCIG_clean_linker_4, # of connection points: 2
#     Edge 20, Type (0, 0), BuildingBlock: EYOCIG_clean_linker_4, # of connection points: 2
#     Edge 21, Type (0, 0), BuildingBlock: EYOCIG_clean_linker_4, # of connection points: 2
#     Edge 22, Type (0, 0), BuildingBlock: EYOCIG_clean_linker_4, # of connection points: 2
#     Edge 23, Type (0, 0), BuildingBlock: EYOCIG_clean_linker_4, # of connection points: 2
# Relax obj value: 0.245
# Max RMSD: 0.257
# Mean RMSD: 0.257
data_MOF--net-sml--node1-BETGAK_clean_sbu_0--edge1-EYOCIG_clean_linker_4
_symmetry_space_group_name_H-M    P1
_symmetry_Int_Tables_number       1
_symmetry_cell_setting            triclinic
loop_
_symmetry_equiv_pos_as_xyz
'x, y, z'
_cell_length_a     23.574074
_cell_length_b     23.578201
_cell_length_c     21.122906
_cell_angle_alpha  90.006865
_cell_angle_beta   90.002433
_cell_angle_gamma 120.0185
loop_
_atom_site_label
_atom_site_type_symbol
_atom_site_fract_x
_atom_site_fract_y
_atom_site_fract_z
_atom_type_partial_charge
La0 La 0.20825 0.4302 0.21357 0.0
La1 La 0.28711 0.41058 0.31354 0.0
C2 C 0.17372 0.44563 0.10601 0.0
C3 C 0.19083 0.43156 0.04293 0.0
C4 C 0.14098 0.39591 0.99879 0.0
C5 C 0.15636 0.38369 0.93821 0.0
C6 C 0.2218 0.40691 0.92126 0.0
C7 C 0.27147 0.43919 0.9662 0.0
C8 C 0.25615 0.45128 1.02682 0.0
C9 C 0.13648 0.34033 0.29646 0.0
C10 C 0.28396 0.35288 0.18228 0.0
C11 C 0.32709 0.39156 0.41759 0.0
C12 C 0.314 0.39677 0.48518 0.0
C13 C 0.36571 0.43922 0.52508 0.0
C14 C 0.35503 0.44191 0.58991 0.0
C15 C 0.29237 0.40265 0.61537 0.0
C16 C 0.24015 0.36221 0.5755 0.0
C17 C 0.25079 0.35925 0.51081 0.0
C18 C 0.35581 0.50298 0.23131 0.0
C19 C 0.21884 0.49764 0.33946 0.0
O20 O 0.13783 0.39417 0.14114 0.0
O21 O 0.22109 0.49348 0.13825 0.0
O22 O 0.11969 0.37866 0.26877 0.0
O23 O 0.19073 0.34941 0.27475 0.0
O24 O 0.2567 0.38651 0.16321 0.0
O25 O 0.29603 0.34807 0.24259 0.0
O26 O 0.3572 0.44679 0.38639 0.0
O27 O 0.27971 0.34481 0.38438 0.0
O28 O 0.37676 0.46728 0.25749 0.0
O29 O 0.3015 0.48947 0.25451 0.0
O30 O 0.24096 0.45997 0.36241 0.0
O31 O 0.20855 0.50084 0.27851 0.0
H32 H 0.09024 0.37861 1.01082 0.0
H33 H 0.11739 0.35802 0.90406 0.0
H34 H 0.32223 0.45675 0.95385 0.0
H35 H 0.2955 0.47703 0.06054 0.0
H36 H 0.41473 0.46917 0.50635 0.0
H37 H 0.39582 0.47373 0.6202 0.0
H38 H 0.19125 0.33224 0.59451 0.0
H39 H 0.20964 0.32704 0.48116 0.0
La40 La 0.81002 0.23137 0.54218 0.0
La41 La 0.73133 0.13262 0.44227 0.0
C42 C 0.84423 0.28164 0.6497 0.0
C43 C 0.82709 0.25064 0.71285 0.0
C44 C 0.87679 0.26571 0.75742 0.0
C45 C 0.86126 0.23834 0.81809 0.0
C46 C 0.79586 0.19542 0.83467 0.0
C47 C 0.74641 0.17717 0.78932 0.0
C48 C 0.76187 0.20442 0.72864 0.0
C49 C 0.88196 0.2133 0.45948 0.0
C50 C 0.73473 0.07832 0.57354 0.0
C51 C 0.69141 0.07348 0.33826 0.0
C52 C 0.70422 0.09189 0.27067 0.0
C53 C 0.65242 0.08292 0.23106 0.0
C54 C 0.66289 0.09658 0.16626 0.0
C55 C 0.72544 0.11994 0.14053 0.0
C56 C 0.77773 0.13135 0.1801 0.0
C57 C 0.76731 0.11748 0.24475 0.0
C58 C 0.66253 0.15629 0.52439 0.0
C59 C 0.79936 0.28792 0.41612 0.0
O60 O 0.88029 0.26614 0.61476 0.0
O61 O 0.7968 0.28178 0.6173 0.0
O62 O 0.89867 0.26846 0.4871 0.0
O63 O 0.82772 0.16811 0.48118 0.0
O64 O 0.76183 0.13923 0.59258 0.0
O65 O 0.7227 0.06136 0.51325 0.0
O66 O 0.66101 0.09818 0.36963 0.0
O67 O 0.73908 0.07455 0.3713 0.0
O68 O 0.6417 0.09958 0.49835 0.0
O69 O 0.7168 0.19712 0.50113 0.0
O70 O 0.77729 0.22809 0.39325 0.0
O71 O 0.80967 0.30153 0.47704 0.0
H72 H 0.92748 0.29966 0.74565 0.0
H73 H 0.90007 0.2523 0.85257 0.0
H74 H 0.6957 0.14343 0.80137 0.0
H75 H 0.72266 0.19022 0.69463 0.0
H76 H 0.60349 0.06391 0.25001 0.0
H77 H 0.62203 0.08787 0.1362 0.0
H78 H 0.82653 0.15021 0.16087 0.0
H79 H 0.80852 0.12616 0.27414 0.0
La80 La 0.58573 0.78122 0.88022 0.0
La81 La 0.60517 0.87973 0.98015 0.0
C82 C 0.5702 0.73105 0.77272 0.0
C83 C 0.58401 0.76204 0.70956 0.0
C84 C 0.61903 0.74735 0.66513 0.0
C85 C 0.63088 0.77472 0.60447 0.0
C86 C 0.60799 0.81725 0.58774 0.0
C87 C 0.57637 0.83512 0.63295 0.0
C88 C 0.56458 0.80787 0.69364 0.0
C89 C 0.67575 0.79973 0.96309 0.0
C90 C 0.66282 0.93428 0.84891 0.0
C91 C 0.62411 0.93878 0.08418 0.0
C92 C 0.61877 0.92043 0.15177 0.0
C93 C 0.57644 0.92988 0.19164 0.0
C94 C 0.57353 0.91632 0.25645 0.0
C95 C 0.61245 0.89253 0.2819 0.0
C96 C 0.65278 0.8806 0.24206 0.0
C97 C 0.65596 0.89439 0.1774 0.0
C98 C 0.51263 0.85561 0.89793 0.0
C99 C 0.51839 0.72437 1.00619 0.0
O100 O 0.6218 0.74693 0.80776 0.0
O101 O 0.52236 0.7305 0.80501 0.0
O102 O 0.63752 0.74451 0.93543 0.0
O103 O 0.66648 0.84474 0.94135 0.0
O104 O 0.62925 0.87336 0.82984 0.0
O105 O 0.66762 0.95119 0.90921 0.0
O106 O 0.56892 0.91367 0.05289 0.0
O107 O 0.67088 0.93812 0.05107 0.0
O108 O 0.54823 0.91233 0.92406 0.0
O109 O 0.52631 0.81497 0.92117 0.0
O110 O 0.55595 0.78422 1.0291 0.0
O111 O 0.51524 0.71082 0.94526 0.0
H112 H 0.63609 0.71369 0.67701 0.0
H113 H 0.65604 0.76104 0.5701 0.0
H114 H 0.55908 0.86855 0.62079 0.0
H115 H 0.53926 0.82178 0.72754 0.0
H116 H 0.54672 0.9492 0.17289 0.0
H117 H 0.54179 0.92541 0.28671 0.0
H118 H 0.6825 0.8614 0.26107 0.0
H119 H 0.68806 0.88529 0.14778 0.0
La120 La 0.7841 0.58238 0.2089 0.0
La121 La 0.88273 0.60214 0.10899 0.0
C122 C 0.73395 0.56657 0.31643 0.0
C123 C 0.76502 0.58057 0.37957 0.0
C124 C 0.75039 0.61576 0.42384 0.0
C125 C 0.77783 0.62786 0.48448 0.0
C126 C 0.82032 0.60498 0.50139 0.0
C127 C 0.83811 0.57313 0.45635 0.0
C128 C 0.81086 0.56117 0.39565 0.0
C129 C 0.8025 0.67247 0.12618 0.0
C130 C 0.93719 0.65984 0.24025 0.0
C131 C 0.94184 0.62128 1.00499 0.0
C132 C 0.92349 0.61591 0.9374 0.0
C133 C 0.93298 0.57361 0.89753 0.0
C134 C 0.91942 0.57068 0.83273 0.0
C135 C 0.8956 0.60956 0.80725 0.0
C136 C 0.88362 0.64987 0.84708 0.0
C137 C 0.89741 0.65307 0.91175 0.0
C138 C 0.85878 0.50961 0.19113 0.0
C139 C 0.72736 0.51511 0.08287 0.0
O140 O 0.74946 0.61808 0.2814 0.0
O141 O 0.73369 0.5189 0.28411 0.0
O142 O 0.74728 0.63413 0.15378 0.0
O143 O 0.84756 0.66325 0.14791 0.0
O144 O 0.87626 0.62617 0.2593 0.0
O145 O 0.95412 0.66466 0.17996 0.0
O146 O 0.91687 0.5661 1.03625 0.0
O147 O 0.94103 0.66795 1.03813 0.0
O148 O 0.91551 0.54534 0.16507 0.0
O149 O 0.81806 0.52318 0.16788 0.0
O150 O 0.78721 0.55279 0.05999 0.0
O151 O 0.71379 0.51189 0.1438 0.0
H152 H 0.71674 0.63279 0.41185 0.0
H153 H 0.76421 0.65319 0.51871 0.0
H154 H 0.87152 0.55585 0.46866 0.0
H155 H 0.82478 0.53577 0.36184 0.0
H156 H 0.95232 0.54392 0.91628 0.0
H157 H 0.92854 0.53897 0.80247 0.0
H158 H 0.8644 0.67956 0.82806 0.0
H159 H 0.88829 0.68515 0.94137 0.0
La160 La 0.23423 0.80717 0.547 0.0
La161 La 0.13553 0.72829 0.64685 0.0
C162 C 0.28453 0.84167 0.43953 0.0
C163 C 0.25359 0.82454 0.37633 0.0
C164 C 0.26872 0.87423 0.33177 0.0
C165 C 0.24142 0.85871 0.27106 0.0
C166 C 0.19853 0.79331 0.25444 0.0
C167 C 0.18023 0.74388 0.29978 0.0
C168 C 0.20741 0.75933 0.3605 0.0
C169 C 0.21601 0.8789 0.62983 0.0
C170 C 0.08115 0.73171 0.51563 0.0
C171 C 0.07646 0.68833 0.75087 0.0
C172 C 0.09494 0.70124 0.81844 0.0
C173 C 0.08601 0.64951 0.85811 0.0
C174 C 0.09972 0.66008 0.9229 0.0
C175 C 0.12313 0.72266 0.94855 0.0
C176 C 0.13451 0.77489 0.90892 0.0
C177 C 0.12058 0.76436 0.84429 0.0
C178 C 0.1593 0.65967 0.56461 0.0
C179 C 0.29087 0.7964 0.67299 0.0
O180 O 0.26879 0.87751 0.47451 0.0
O181 O 0.28484 0.79429 0.47185 0.0
O182 O 0.27121 0.8957 0.60224 0.0
O183 O 0.17088 0.82467 0.60805 0.0
O184 O 0.14207 0.75884 0.49658 0.0
O185 O 0.06421 0.71964 0.57592 0.0
O186 O 0.10122 0.658 0.71948 0.0
O187 O 0.07739 0.73592 0.71782 0.0
O188 O 0.10258 0.63873 0.59068 0.0
O189 O 0.2001 0.71392 0.58791 0.0
O190 O 0.23104 0.77427 0.69586 0.0
O191 O 0.30446 0.8068 0.61207 0.0
H192 H 0.30265 0.92492 0.34357 0.0
H193 H 0.25542 0.89751 0.23658 0.0
H194 H 0.14651 0.69317 0.2877 0.0
H195 H 0.19318 0.72013 0.3945 0.0
H196 H 0.06697 0.60056 0.83922 0.0
H197 H 0.09104 0.61928 0.953 0.0
H198 H 0.1534 0.82371 0.92809 0.0
H199 H 0.12924 0.80553 0.81484 0.0
La200 La 0.43292 0.20503 0.87545 0.0
La201 La 0.41335 0.28396 0.77552 0.0
C202 C 0.44841 0.17056 0.98302 0.0
C203 C 0.43455 0.18793 0.04609 0.0
C204 C 0.39897 0.13829 0.09042 0.0
C205 C 0.38702 0.15399 0.15098 0.0
C206 C 0.41038 0.21951 0.16769 0.0
C207 C 0.44256 0.26895 0.12254 0.0
C208 C 0.45444 0.25332 0.06197 0.0
C209 C 0.34292 0.13335 0.7926 0.0
C210 C 0.35574 0.28088 0.90679 0.0
C211 C 0.39437 0.32403 0.6715 0.0
C212 C 0.39974 0.31115 0.60387 0.0
C213 C 0.44235 0.36296 0.56415 0.0
C214 C 0.44519 0.35247 0.49929 0.0
C215 C 0.40592 0.28991 0.47363 0.0
C216 C 0.36533 0.2376 0.51331 0.0
C217 C 0.36221 0.24804 0.57802 0.0
C218 C 0.50586 0.35254 0.85773 0.0
C219 C 0.50026 0.21552 0.74951 0.0
O220 O 0.39683 0.13474 0.94798 0.0
O221 O 0.49629 0.21776 0.95068 0.0
O222 O 0.38121 0.11647 0.82028 0.0
O223 O 0.35212 0.18762 0.81432 0.0
O224 O 0.38937 0.2536 0.92584 0.0
O225 O 0.35088 0.29292 0.84649 0.0
O226 O 0.44955 0.35417 0.7028 0.0
O227 O 0.34763 0.27653 0.70457 0.0
O228 O 0.47018 0.37356 0.8316 0.0
O229 O 0.49225 0.29823 0.8345 0.0
O230 O 0.46267 0.23776 0.72659 0.0
O231 O 0.50343 0.20517 0.81044 0.0
H232 H 0.38152 0.08749 0.07857 0.0
H233 H 0.36142 0.11519 0.1853 0.0
H234 H 0.46022 0.31976 0.13468 0.0
H235 H 0.48019 0.29252 1.02812 0.0
H236 H 0.4723 0.4119 0.58305 0.0
H237 H 0.47713 0.39333 0.46915 0.0
H238 H 0.33534 0.18878 0.49413 0.0
H239 H 0.32987 0.20683 0.60751 0.0
C240 C 0.31858 0.30921 1.01157 0.0
C241 C 0.32951 0.3012 0.95742 0.0
C242 C 0.31223 0.31561 0.07753 0.0
C243 C 0.30425 0.32659 0.13167 0.0
C244 C 0.04009 0.24841 0.36234 0.0
C245 C 0.08969 0.28563 0.33398 0.0
C246 C 0.97845 0.21766 0.39383 0.0
C247 C 0.92884 0.20539 0.42211 0.0
C248 C 0.70659 0.01276 0.67828 0.0
C249 C 0.71457 0.03177 0.62416 0.0
C250 C 0.70014 0.9999 0.7442 0.0
C251 C 0.6891 0.98086 0.79831 0.0
C252 C 0.7678 0.79562 1.02901 0.0
C253 C 0.73052 0.80788 1.00063 0.0
C254 C 0.7985 0.76473 0.06052 0.0
C255 C 0.81064 0.72732 0.08881 0.0
C256 C 0.01558 0.70365 0.41091 0.0
C257 C 0.03458 0.71157 0.46503 0.0
C258 C 1.00277 0.69725 0.34498 0.0
C259 C 0.98376 0.6862 0.29085 0.0
C260 C 0.25089 0.037 0.72678 0.0
C261 C 0.28815 0.08661 0.75511 0.0
C262 C 0.22016 0.97534 0.69534 0.0
C263 C 0.20797 0.92573 0.66711 0.0
C264 C 0.25326 0.40028 0.80245 0.0
C265 C 0.23859 0.40313 0.85651 0.0
C266 C 0.26962 0.40135 0.73805 0.0
C267 C 0.28137 0.4029 0.68236 0.0
C268 C 0.74811 0.14207 1.01791 0.0
C269 C 0.7363 0.13155 0.07357 0.0
C270 C 0.76435 0.15749 0.95352 0.0
C271 C 0.77883 0.17484 0.89939 0.0
C272 C 0.61437 0.85518 0.46889 0.0
C273 C 0.61156 0.83779 0.523 0.0
C274 C 0.61343 0.87059 0.40452 0.0
C275 C 0.61199 0.88103 0.34886 0.0
C276 C 0.87375 0.61044 0.68459 0.0
C277 C 0.88414 0.60907 0.74027 0.0
C278 C 0.85836 0.61147 0.62022 0.0
C279 C 0.84083 0.60869 0.56616 0.0
C280 C 0.14532 0.74552 0.07115 0.0
C281 C 0.13477 0.73363 1.01551 0.0
C282 C 0.16072 0.7618 0.13554 0.0
C283 C 0.17802 0.77629 0.18969 0.0
C284 C 0.40479 0.26729 0.35092 0.0
C285 C 0.40631 0.27904 0.40662 0.0
C286 C 0.40386 0.25109 0.2865 0.0
C287 C 0.40677 0.23656 0.23239 0.0
C288 C 0.19459 0.5659 0.42292 0.0
C289 C 0.20502 0.53556 0.38324 0.0
C290 C 0.18289 0.59967 0.47162 0.0
C291 C 0.1726 0.62744 0.51407 0.0
C292 C 0.60238 0.17974 0.61731 0.0
C293 C 0.63022 0.16952 0.57489 0.0
C294 C 0.56854 0.19135 0.66601 0.0
C295 C 0.53819 0.20175 0.7057 0.0
C296 C 0.41604 0.58654 0.13837 0.0
C297 C 0.38813 0.5485 0.18079 0.0
C298 C 0.44998 0.63195 0.08967 0.0
C299 C 0.48039 0.67267 0.04999 0.0
C300 C 0.82339 0.38031 0.33259 0.0
C301 C 0.81304 0.33957 0.37226 0.0
C302 C 0.83505 0.42583 0.28395 0.0
C303 C 0.84538 0.46397 0.24158 0.0
C304 C 0.38328 0.82025 0.75647 0.0
C305 C 0.34253 0.80999 0.71681 0.0
C306 C 0.4288 0.83184 0.8051 0.0
C307 C 0.46696 0.84215 0.84747 0.0
C308 C 0.63496 0.44663 0.99935 0.0
C309 C 0.67569 0.47707 1.03904 0.0
C310 C 0.58952 0.41269 0.95066 0.0
C311 C 0.55144 0.3848 0.90824 0.0
loop_
_geom_bond_atom_site_label_1
_geom_bond_atom_site_label_2
_geom_bond_distance
_geom_bond_site_symmetry_2
_ccdc_geom_bond_type
La0 C2 2.928 . S
La0 O20 2.521 . S
La0 O21 2.628 . S
La0 O22 2.554 . S
La0 O23 2.757 . S
La0 O24 2.470 . S
La0 O29 2.482 . S
La0 O31 2.503 . S
La1 C11 2.928 . S
La1 O23 2.482 . S
La1 O25 2.503 . S
La1 O26 2.521 . S
La1 O27 2.628 . S
La1 O28 2.554 . S
La1 O29 2.757 . S
La1 O30 2.470 . S
C2 La0 2.928 . S
C2 C3 1.503 1_554 S
C2 O20 1.261 . S
C2 O21 1.243 . S
C3 C2 1.503 1_556 S
C3 C4 1.394 . S
C3 C8 1.373 . S
C4 C3 1.394 . S
C4 C5 1.380 . S
C4 H32 0.930 . S
C5 C4 1.380 . S
C5 C6 1.376 . S
C5 H33 0.930 . S
C6 C5 1.376 . S
C6 C7 1.370 . S
C7 C6 1.370 . S
C7 C8 1.396 . S
C7 H34 0.929 . S
C8 C3 1.373 . S
C8 C7 1.396 . S
C8 H35 0.929 . S
C9 O22 1.240 . S
C9 O23 1.289 . S
C10 O24 1.258 . S
C10 O25 1.256 . S
C11 La1 2.928 . S
C11 C12 1.503 . S
C11 O26 1.261 . S
C11 O27 1.243 . S
C12 C11 1.503 . S
C12 C13 1.394 . S
C12 C17 1.373 . S
C13 C12 1.394 . S
C13 C14 1.380 . S
C13 H36 0.930 . S
C14 C13 1.380 . S
C14 C15 1.376 . S
C14 H37 0.930 . S
C15 C14 1.376 . S
C15 C16 1.370 . S
C16 C15 1.370 . S
C16 C17 1.396 . S
C16 H38 0.929 . S
C17 C12 1.373 . S
C17 C16 1.396 . S
C17 H39 0.929 . S
C18 O28 1.240 . S
C18 O29 1.289 . S
C19 O30 1.258 . S
C19 O31 1.256 . S
O20 La0 2.521 . S
O20 C2 1.261 . S
O21 La0 2.628 . S
O21 C2 1.243 . S
O22 La0 2.554 . S
O22 C9 1.240 . S
O23 La0 2.757 . S
O23 La1 2.482 . S
O23 C9 1.289 . S
O24 La0 2.470 . S
O24 C10 1.258 . S
O25 La1 2.503 . S
O25 C10 1.256 . S
O26 La1 2.521 . S
O26 C11 1.261 . S
O27 La1 2.628 . S
O27 C11 1.243 . S
O28 La1 2.554 . S
O28 C18 1.240 . S
O29 La0 2.482 . S
O29 La1 2.757 . S
O29 C18 1.289 . S
O30 La1 2.470 . S
O30 C19 1.258 . S
O31 La0 2.503 . S
O31 C19 1.256 . S
H32 C4 0.930 . S
H33 C5 0.930 . S
H34 C7 0.929 . S
H35 C8 0.929 . S
H36 C13 0.930 . S
H37 C14 0.930 . S
H38 C16 0.929 . S
H39 C17 0.929 . S
La40 C42 2.928 . S
La40 O60 2.521 . S
La40 O61 2.628 . S
La40 O62 2.554 . S
La40 O63 2.757 . S
La40 O64 2.470 . S
La40 O69 2.482 . S
La40 O71 2.503 . S
La41 C51 2.928 . S
La41 O63 2.482 . S
La41 O65 2.503 . S
La41 O66 2.521 . S
La41 O67 2.628 . S
La41 O68 2.554 . S
La41 O69 2.757 . S
La41 O70 2.470 . S
C42 La40 2.928 . S
C42 C43 1.503 . S
C42 O60 1.261 . S
C42 O61 1.243 . S
C43 C42 1.503 . S
C43 C44 1.394 . S
C43 C48 1.373 . S
C44 C43 1.394 . S
C44 C45 1.380 . S
C44 H72 0.930 . S
C45 C44 1.380 . S
C45 C46 1.376 . S
C45 H73 0.930 . S
C46 C45 1.376 . S
C46 C47 1.370 . S
C47 C46 1.370 . S
C47 C48 1.396 . S
C47 H74 0.929 . S
C48 C43 1.373 . S
C48 C47 1.396 . S
C48 H75 0.929 . S
C49 O62 1.240 . S
C49 O63 1.289 . S
C50 O64 1.258 . S
C50 O65 1.256 . S
C51 La41 2.928 . S
C51 C52 1.503 . S
C51 O66 1.261 . S
C51 O67 1.243 . S
C52 C51 1.503 . S
C52 C53 1.394 . S
C52 C57 1.373 . S
C53 C52 1.394 . S
C53 C54 1.380 . S
C53 H76 0.930 . S
C54 C53 1.380 . S
C54 C55 1.376 . S
C54 H77 0.930 . S
C55 C54 1.376 . S
C55 C56 1.370 . S
C56 C55 1.370 . S
C56 C57 1.396 . S
C56 H78 0.929 . S
C57 C52 1.373 . S
C57 C56 1.396 . S
C57 H79 0.929 . S
C58 O68 1.240 . S
C58 O69 1.289 . S
C59 O70 1.258 . S
C59 O71 1.256 . S
O60 La40 2.521 . S
O60 C42 1.261 . S
O61 La40 2.628 . S
O61 C42 1.243 . S
O62 La40 2.554 . S
O62 C49 1.240 . S
O63 La40 2.757 . S
O63 La41 2.482 . S
O63 C49 1.289 . S
O64 La40 2.470 . S
O64 C50 1.258 . S
O65 La41 2.503 . S
O65 C50 1.256 . S
O66 La41 2.521 . S
O66 C51 1.261 . S
O67 La41 2.628 . S
O67 C51 1.243 . S
O68 La41 2.554 . S
O68 C58 1.240 . S
O69 La40 2.482 . S
O69 La41 2.757 . S
O69 C58 1.289 . S
O70 La41 2.470 . S
O70 C59 1.258 . S
O71 La40 2.503 . S
O71 C59 1.256 . S
H72 C44 0.930 . S
H73 C45 0.930 . S
H74 C47 0.929 . S
H75 C48 0.929 . S
H76 C53 0.930 . S
H77 C54 0.930 . S
H78 C56 0.929 . S
H79 C57 0.929 . S
La80 C82 2.928 . S
La80 O100 2.521 . S
La80 O101 2.628 . S
La80 O102 2.554 . S
La80 O103 2.757 . S
La80 O104 2.470 . S
La80 O109 2.482 . S
La80 O111 2.503 . S
La81 C91 2.928 1_556 S
La81 O103 2.482 . S
La81 O105 2.503 . S
La81 O106 2.521 1_556 S
La81 O107 2.628 1_556 S
La81 O108 2.554 . S
La81 O109 2.757 . S
La81 O110 2.470 . S
C82 La80 2.928 . S
C82 C83 1.503 . S
C82 O100 1.261 . S
C82 O101 1.243 . S
C83 C82 1.503 . S
C83 C84 1.394 . S
C83 C88 1.373 . S
C84 C83 1.394 . S
C84 C85 1.380 . S
C84 H112 0.930 . S
C85 C84 1.380 . S
C85 C86 1.376 . S
C85 H113 0.930 . S
C86 C85 1.376 . S
C86 C87 1.370 . S
C87 C86 1.370 . S
C87 C88 1.396 . S
C87 H114 0.929 . S
C88 C83 1.373 . S
C88 C87 1.396 . S
C88 H115 0.929 . S
C89 O102 1.240 . S
C89 O103 1.289 . S
C90 O104 1.258 . S
C90 O105 1.256 . S
C91 La81 2.928 1_554 S
C91 C92 1.503 . S
C91 O106 1.261 . S
C91 O107 1.243 . S
C92 C91 1.503 . S
C92 C93 1.394 . S
C92 C97 1.373 . S
C93 C92 1.394 . S
C93 C94 1.380 . S
C93 H116 0.930 . S
C94 C93 1.380 . S
C94 C95 1.376 . S
C94 H117 0.930 . S
C95 C94 1.376 . S
C95 C96 1.370 . S
C96 C95 1.370 . S
C96 C97 1.396 . S
C96 H118 0.929 . S
C97 C92 1.373 . S
C97 C96 1.396 . S
C97 H119 0.929 . S
C98 O108 1.240 . S
C98 O109 1.289 . S
C99 O110 1.258 . S
C99 O111 1.256 . S
O100 La80 2.521 . S
O100 C82 1.261 . S
O101 La80 2.628 . S
O101 C82 1.243 . S
O102 La80 2.554 . S
O102 C89 1.240 . S
O103 La80 2.757 . S
O103 La81 2.482 . S
O103 C89 1.289 . S
O104 La80 2.470 . S
O104 C90 1.258 . S
O105 La81 2.503 . S
O105 C90 1.256 . S
O106 La81 2.521 1_554 S
O106 C91 1.261 . S
O107 La81 2.628 1_554 S
O107 C91 1.243 . S
O108 La81 2.554 . S
O108 C98 1.240 . S
O109 La80 2.482 . S
O109 La81 2.757 . S
O109 C98 1.289 . S
O110 La81 2.470 . S
O110 C99 1.258 . S
O111 La80 2.503 . S
O111 C99 1.256 . S
H112 C84 0.930 . S
H113 C85 0.930 . S
H114 C87 0.929 . S
H115 C88 0.929 . S
H116 C93 0.930 . S
H117 C94 0.930 . S
H118 C96 0.929 . S
H119 C97 0.929 . S
La120 C122 2.928 . S
La120 O140 2.521 . S
La120 O141 2.628 . S
La120 O142 2.554 . S
La120 O143 2.757 . S
La120 O144 2.470 . S
La120 O149 2.482 . S
La120 O151 2.503 . S
La121 C131 2.928 1_554 S
La121 O143 2.482 . S
La121 O145 2.503 . S
La121 O146 2.521 1_554 S
La121 O147 2.628 1_554 S
La121 O148 2.554 . S
La121 O149 2.757 . S
La121 O150 2.470 . S
C122 La120 2.928 . S
C122 C123 1.503 . S
C122 O140 1.261 . S
C122 O141 1.243 . S
C123 C122 1.503 . S
C123 C124 1.394 . S
C123 C128 1.373 . S
C124 C123 1.394 . S
C124 C125 1.380 . S
C124 H152 0.930 . S
C125 C124 1.380 . S
C125 C126 1.376 . S
C125 H153 0.930 . S
C126 C125 1.376 . S
C126 C127 1.370 . S
C127 C126 1.370 . S
C127 C128 1.396 . S
C127 H154 0.929 . S
C128 C123 1.373 . S
C128 C127 1.396 . S
C128 H155 0.929 . S
C129 O142 1.240 . S
C129 O143 1.289 . S
C130 O144 1.258 . S
C130 O145 1.256 . S
C131 La121 2.928 1_556 S
C131 C132 1.503 . S
C131 O146 1.261 . S
C131 O147 1.243 . S
C132 C131 1.503 . S
C132 C133 1.394 . S
C132 C137 1.373 . S
C133 C132 1.394 . S
C133 C134 1.380 . S
C133 H156 0.930 . S
C134 C133 1.380 . S
C134 C135 1.376 . S
C134 H157 0.930 . S
C135 C134 1.376 . S
C135 C136 1.370 . S
C136 C135 1.370 . S
C136 C137 1.396 . S
C136 H158 0.929 . S
C137 C132 1.373 . S
C137 C136 1.396 . S
C137 H159 0.929 . S
C138 O148 1.240 . S
C138 O149 1.289 . S
C139 O150 1.258 . S
C139 O151 1.256 . S
O140 La120 2.521 . S
O140 C122 1.261 . S
O141 La120 2.628 . S
O141 C122 1.243 . S
O142 La120 2.554 . S
O142 C129 1.240 . S
O143 La120 2.757 . S
O143 La121 2.482 . S
O143 C129 1.289 . S
O144 La120 2.470 . S
O144 C130 1.258 . S
O145 La121 2.503 . S
O145 C130 1.256 . S
O146 La121 2.521 1_556 S
O146 C131 1.261 . S
O147 La121 2.628 1_556 S
O147 C131 1.243 . S
O148 La121 2.554 . S
O148 C138 1.240 . S
O149 La120 2.482 . S
O149 La121 2.757 . S
O149 C138 1.289 . S
O150 La121 2.470 . S
O150 C139 1.258 . S
O151 La120 2.503 . S
O151 C139 1.256 . S
H152 C124 0.930 . S
H153 C125 0.930 . S
H154 C127 0.929 . S
H155 C128 0.929 . S
H156 C133 0.930 . S
H157 C134 0.930 . S
H158 C136 0.929 . S
H159 C137 0.929 . S
La160 C162 2.928 . S
La160 O180 2.521 . S
La160 O181 2.628 . S
La160 O182 2.554 . S
La160 O183 2.757 . S
La160 O184 2.470 . S
La160 O189 2.482 . S
La160 O191 2.503 . S
La161 C171 2.928 . S
La161 O183 2.482 . S
La161 O185 2.503 . S
La161 O186 2.521 . S
La161 O187 2.628 . S
La161 O188 2.554 . S
La161 O189 2.757 . S
La161 O190 2.470 . S
C162 La160 2.928 . S
C162 C163 1.503 . S
C162 O180 1.261 . S
C162 O181 1.243 . S
C163 C162 1.503 . S
C163 C164 1.394 . S
C163 C168 1.373 . S
C164 C163 1.394 . S
C164 C165 1.380 . S
C164 H192 0.930 . S
C165 C164 1.380 . S
C165 C166 1.376 . S
C165 H193 0.930 . S
C166 C165 1.376 . S
C166 C167 1.370 . S
C167 C166 1.370 . S
C167 C168 1.396 . S
C167 H194 0.929 . S
C168 C163 1.373 . S
C168 C167 1.396 . S
C168 H195 0.929 . S
C169 O182 1.240 . S
C169 O183 1.289 . S
C170 O184 1.258 . S
C170 O185 1.256 . S
C171 La161 2.928 . S
C171 C172 1.503 . S
C171 O186 1.261 . S
C171 O187 1.243 . S
C172 C171 1.503 . S
C172 C173 1.394 . S
C172 C177 1.373 . S
C173 C172 1.394 . S
C173 C174 1.380 . S
C173 H196 0.930 . S
C174 C173 1.380 . S
C174 C175 1.376 . S
C174 H197 0.930 . S
C175 C174 1.376 . S
C175 C176 1.370 . S
C176 C175 1.370 . S
C176 C177 1.396 . S
C176 H198 0.929 . S
C177 C172 1.373 . S
C177 C176 1.396 . S
C177 H199 0.929 . S
C178 O188 1.240 . S
C178 O189 1.289 . S
C179 O190 1.258 . S
C179 O191 1.256 . S
O180 La160 2.521 . S
O180 C162 1.261 . S
O181 La160 2.628 . S
O181 C162 1.243 . S
O182 La160 2.554 . S
O182 C169 1.240 . S
O183 La160 2.757 . S
O183 La161 2.482 . S
O183 C169 1.289 . S
O184 La160 2.470 . S
O184 C170 1.258 . S
O185 La161 2.503 . S
O185 C170 1.256 . S
O186 La161 2.521 . S
O186 C171 1.261 . S
O187 La161 2.628 . S
O187 C171 1.243 . S
O188 La161 2.554 . S
O188 C178 1.240 . S
O189 La160 2.482 . S
O189 La161 2.757 . S
O189 C178 1.289 . S
O190 La161 2.470 . S
O190 C179 1.258 . S
O191 La160 2.503 . S
O191 C179 1.256 . S
H192 C164 0.930 . S
H193 C165 0.930 . S
H194 C167 0.929 . S
H195 C168 0.929 . S
H196 C173 0.930 . S
H197 C174 0.930 . S
H198 C176 0.929 . S
H199 C177 0.929 . S
La200 C202 2.928 . S
La200 O220 2.521 . S
La200 O221 2.628 . S
La200 O222 2.554 . S
La200 O223 2.757 . S
La200 O224 2.470 . S
La200 O229 2.482 . S
La200 O231 2.503 . S
La201 C211 2.928 . S
La201 O223 2.482 . S
La201 O225 2.503 . S
La201 O226 2.521 . S
La201 O227 2.628 . S
La201 O228 2.554 . S
La201 O229 2.757 . S
La201 O230 2.470 . S
C202 La200 2.928 . S
C202 C203 1.503 1_556 S
C202 O220 1.261 . S
C202 O221 1.243 . S
C203 C202 1.503 1_554 S
C203 C204 1.394 . S
C203 C208 1.373 . S
C204 C203 1.394 . S
C204 C205 1.380 . S
C204 H232 0.930 . S
C205 C204 1.380 . S
C205 C206 1.376 . S
C205 H233 0.930 . S
C206 C205 1.376 . S
C206 C207 1.370 . S
C207 C206 1.370 . S
C207 C208 1.396 . S
C207 H234 0.929 . S
C208 C203 1.373 . S
C208 C207 1.396 . S
C208 H235 0.929 . S
C209 O222 1.240 . S
C209 O223 1.289 . S
C210 O224 1.258 . S
C210 O225 1.256 . S
C211 La201 2.928 . S
C211 C212 1.503 . S
C211 O226 1.261 . S
C211 O227 1.243 . S
C212 C211 1.503 . S
C212 C213 1.394 . S
C212 C217 1.373 . S
C213 C212 1.394 . S
C213 C214 1.380 . S
C213 H236 0.930 . S
C214 C213 1.380 . S
C214 C215 1.376 . S
C214 H237 0.930 . S
C215 C214 1.376 . S
C215 C216 1.370 . S
C216 C215 1.370 . S
C216 C217 1.396 . S
C216 H238 0.929 . S
C217 C212 1.373 . S
C217 C216 1.396 . S
C217 H239 0.929 . S
C218 O228 1.240 . S
C218 O229 1.289 . S
C219 O230 1.258 . S
C219 O231 1.256 . S
O220 La200 2.521 . S
O220 C202 1.261 . S
O221 La200 2.628 . S
O221 C202 1.243 . S
O222 La200 2.554 . S
O222 C209 1.240 . S
O223 La200 2.757 . S
O223 La201 2.482 . S
O223 C209 1.289 . S
O224 La200 2.470 . S
O224 C210 1.258 . S
O225 La201 2.503 . S
O225 C210 1.256 . S
O226 La201 2.521 . S
O226 C211 1.261 . S
O227 La201 2.628 . S
O227 C211 1.243 . S
O228 La201 2.554 . S
O228 C218 1.240 . S
O229 La200 2.482 . S
O229 La201 2.757 . S
O229 C218 1.289 . S
O230 La201 2.470 . S
O230 C219 1.258 . S
O231 La200 2.503 . S
O231 C219 1.256 . S
H232 C204 0.930 . S
H233 C205 0.930 . S
H234 C207 0.929 . S
H235 C208 0.929 . S
H236 C213 0.930 . S
H237 C214 0.930 . S
H238 C216 0.929 . S
H239 C217 0.929 . S
C240 C241 1.170 . S
C240 C242 1.380 1_556 S
C241 C240 1.170 . S
C242 C240 1.380 1_554 S
C242 C243 1.170 . S
C243 C242 1.170 . S
C244 C245 1.170 . S
C244 C246 1.380 1_455 S
C245 C244 1.170 . S
C246 C244 1.380 1_655 S
C246 C247 1.170 . S
C247 C246 1.170 . S
C248 C249 1.170 . S
C248 C250 1.380 1_545 S
C249 C248 1.170 . S
C250 C248 1.380 1_565 S
C250 C251 1.171 . S
C251 C250 1.171 . S
C252 C253 1.170 . S
C252 C254 1.380 1_556 S
C253 C252 1.170 . S
C254 C252 1.380 1_554 S
C254 C255 1.170 . S
C255 C254 1.170 . S
C256 C257 1.170 . S
C256 C258 1.380 1_455 S
C257 C256 1.170 . S
C258 C256 1.380 1_655 S
C258 C259 1.170 . S
C259 C258 1.170 . S
C260 C261 1.170 . S
C260 C262 1.380 1_545 S
C261 C260 1.170 . S
C262 C260 1.380 1_565 S
C262 C263 1.170 . S
C263 C262 1.170 . S
C264 C265 1.170 . S
C264 C266 1.380 . S
C265 C264 1.170 . S
C266 C264 1.380 . S
C266 C267 1.170 . S
C267 C266 1.170 . S
C268 C269 1.170 . S
C268 C270 1.380 . S
C269 C268 1.170 . S
C270 C268 1.380 . S
C270 C271 1.170 . S
C271 C270 1.170 . S
C272 C273 1.170 . S
C272 C274 1.380 . S
C273 C272 1.170 . S
C274 C272 1.380 . S
C274 C275 1.170 . S
C275 C274 1.170 . S
C276 C277 1.170 . S
C276 C278 1.380 . S
C277 C276 1.170 . S
C278 C276 1.380 . S
C278 C279 1.170 . S
C279 C278 1.170 . S
C280 C281 1.170 . S
C280 C282 1.380 . S
C281 C280 1.170 . S
C282 C280 1.380 . S
C282 C283 1.170 . S
C283 C282 1.170 . S
C284 C285 1.170 . S
C284 C286 1.380 . S
C285 C284 1.170 . S
C286 C284 1.380 . S
C286 C287 1.170 . S
C287 C286 1.170 . S
C288 C289 1.170 . S
C288 C290 1.380 . S
C289 C288 1.170 . S
C290 C288 1.380 . S
C290 C291 1.170 . S
C291 C290 1.170 . S
C292 C293 1.170 . S
C292 C294 1.380 . S
C293 C292 1.170 . S
C294 C292 1.380 . S
C294 C295 1.170 . S
C295 C294 1.170 . S
C296 C297 1.170 . S
C296 C298 1.380 . S
C297 C296 1.170 . S
C298 C296 1.380 . S
C298 C299 1.170 . S
C299 C298 1.170 . S
C300 C301 1.170 . S
C300 C302 1.380 . S
C301 C300 1.170 . S
C302 C300 1.380 . S
C302 C303 1.170 . S
C303 C302 1.170 . S
C304 C305 1.170 . S
C304 C306 1.380 . S
C305 C304 1.170 . S
C306 C304 1.380 . S
C306 C307 1.170 . S
C307 C306 1.170 . S
C308 C309 1.170 . S
C308 C310 1.380 . S
C309 C308 1.170 . S
C310 C308 1.380 . S
C310 C311 1.170 . S
C311 C310 1.170 . S
C241 C210 1.924 . S
C243 C10 1.952 . S
C245 C9 1.402 . S
C247 C49 1.398 . S
C249 C50 1.924 . S
C251 C90 1.947 . S
C253 C89 1.449 . S
C255 C129 1.449 . S
C257 C170 1.937 . S
C259 C130 1.929 . S
C261 C209 1.447 . S
C263 C169 1.442 . S
C265 C6 1.750 . S
C267 C15 1.722 . S
C269 C55 1.724 1_556 S
C271 C46 1.717 . S
C273 C86 1.755 . S
C275 C95 1.702 . S
C277 C135 1.704 . S
C279 C126 1.756 . S
C281 C175 1.709 1_554 S
C283 C166 1.733 . S
C285 C215 1.753 . S
C287 C206 1.715 . S
C289 C19 1.926 . S
C291 C178 1.921 . S
C293 C58 1.926 . S
C295 C219 1.929 . S
C297 C18 1.926 . S
C299 C99 1.929 1_554 S
C301 C59 1.930 . S
C303 C138 1.928 . S
C305 C179 1.923 . S
C307 C98 1.924 . S
C309 C139 1.929 1_556 S
C311 C218 1.925 . S
