# Generated by pormake.
# Topology qtz-h, (3)-cn, num edge types: 1
# Building blocks:
#     Node 0, Type 0, BuildingBlock: WUSLED_clean_sbu_0, # of connection points: 3
#     Node 1, Type 0, BuildingBlock: WUSLED_clean_sbu_0, # of connection points: 3
#     Node 2, Type 0, BuildingBlock: WUSLED_clean_sbu_0, # of connection points: 3
#     Node 3, Type 0, BuildingBlock: WUSLED_clean_sbu_0, # of connection points: 3
#     Node 4, Type 0, BuildingBlock: WUSLED_clean_sbu_0, # of connection points: 3
#     Node 5, Type 0, BuildingBlock: WUSLED_clean_sbu_0, # of connection points: 3
#     Node 6, Type 0, BuildingBlock: WUSLED_clean_sbu_0, # of connection points: 3
#     Node 7, Type 0, BuildingBlock: WUSLED_clean_sbu_0, # of connection points: 3
#     Node 8, Type 0, BuildingBlock: WUSLED_clean_sbu_0, # of connection points: 3
#     Node 9, Type 0, BuildingBlock: WUSLED_clean_sbu_0, # of connection points: 3
#     Node 10, Type 0, BuildingBlock: WUSLED_clean_sbu_0, # of connection points: 3
#     Node 11, Type 0, BuildingBlock: WUSLED_clean_sbu_0, # of connection points: 3
#     Edge 12, Type (0, 0), BuildingBlock: OJICUG_clean_linker_0, # of connection points: 2
#     Edge 13, Type (0, 0), BuildingBlock: OJICUG_clean_linker_0, # of connection points: 2
#     Edge 14, Type (0, 0), BuildingBlock: OJICUG_clean_linker_0, # of connection points: 2
#     Edge 15, Type (0, 0), BuildingBlock: OJICUG_clean_linker_0, # of connection points: 2
#     Edge 16, Type (0, 0), BuildingBlock: OJICUG_clean_linker_0, # of connection points: 2
#     Edge 17, Type (0, 0), BuildingBlock: OJICUG_clean_linker_0, # of connection points: 2
#     Edge 18, Type (0, 0), BuildingBlock: OJICUG_clean_linker_0, # of connection points: 2
#     Edge 19, Type (0, 0), BuildingBlock: OJICUG_clean_linker_0, # of connection points: 2
#     Edge 20, Type (0, 0), BuildingBlock: OJICUG_clean_linker_0, # of connection points: 2
#     Edge 21, Type (0, 0), BuildingBlock: OJICUG_clean_linker_0, # of connection points: 2
#     Edge 22, Type (0, 0), BuildingBlock: OJICUG_clean_linker_0, # of connection points: 2
#     Edge 23, Type (0, 0), BuildingBlock: OJICUG_clean_linker_0, # of connection points: 2
#     Edge 24, Type (0, 0), BuildingBlock: OJICUG_clean_linker_0, # of connection points: 2
#     Edge 25, Type (0, 0), BuildingBlock: OJICUG_clean_linker_0, # of connection points: 2
#     Edge 26, Type (0, 0), BuildingBlock: OJICUG_clean_linker_0, # of connection points: 2
#     Edge 27, Type (0, 0), BuildingBlock: OJICUG_clean_linker_0, # of connection points: 2
#     Edge 28, Type (0, 0), BuildingBlock: OJICUG_clean_linker_0, # of connection points: 2
#     Edge 29, Type (0, 0), BuildingBlock: OJICUG_clean_linker_0, # of connection points: 2
# Relax obj value: 0.119
# Max RMSD: 0.104
# Mean RMSD: 0.104
data_MOF--net-qtz-h--node1-WUSLED_clean_sbu_0--edge1-OJICUG_clean_linker_0
_symmetry_space_group_name_H-M    P1
_symmetry_Int_Tables_number       1
_symmetry_cell_setting            triclinic
loop_
_symmetry_equiv_pos_as_xyz
'x, y, z'
_cell_length_a     59.379425
_cell_length_b     59.468002
_cell_length_c     91.263624
_cell_angle_alpha  90.299877
_cell_angle_beta   89.835121
_cell_angle_gamma 120.06872
loop_
_atom_site_label
_atom_site_type_symbol
_atom_site_fract_x
_atom_site_fract_y
_atom_site_fract_z
_atom_type_partial_charge
C0 C 0.60173 0.14416 0.14135 0.0
C1 C 0.6089 0.13056 0.13156 0.0
C2 C 0.57801 0.08957 0.143 0.0
C3 C 0.5973 0.10358 0.13244 0.0
C4 C 0.57128 0.10337 0.15299 0.0
C5 C 0.58306 0.13044 0.15216 0.0
U6 U 0.62756 0.20186 0.11626 0.0
O7 O 0.61895 0.23373 0.11494 0.0
O8 O 0.65905 0.24239 0.11861 0.0
C9 C 0.64292 0.25148 0.11831 0.0
C10 C 0.61201 0.17222 0.13953 0.0
C11 C 0.64523 0.26855 0.1306 0.0
C12 C 0.64612 0.27661 0.15676 0.0
C13 C 0.64474 0.26063 0.14511 0.0
C14 C 0.64835 0.30853 0.13952 0.0
C15 C 0.64778 0.30067 0.1541 0.0
C16 C 0.64712 0.29259 0.12787 0.0
C17 C 0.63087 0.1862 0.07535 0.0
C18 C 0.62888 0.20884 0.05372 0.0
C19 C 0.63857 0.17396 0.05128 0.0
C20 C 0.63708 0.17084 0.06645 0.0
C21 C 0.63378 0.19249 0.0447 0.0
C22 C 0.62738 0.20568 0.06896 0.0
C23 C 0.62595 0.17984 0.091 0.0
O24 O 0.6366 0.18592 0.13562 0.0
O25 O 0.59678 0.17811 0.13209 0.0
O26 O 0.60594 0.18052 0.09668 0.0
O27 O 0.6464 0.18969 0.09964 0.0
H28 H 0.62312 0.14074 0.12302 0.0
H29 H 0.60329 0.09367 0.12473 0.0
H30 H 0.55629 0.09321 0.16114 0.0
H31 H 0.57708 0.1406 0.1597 0.0
H32 H 0.64528 0.26986 0.16786 0.0
H33 H 0.64303 0.24198 0.14741 0.0
H34 H 0.64985 0.32706 0.13713 0.0
H35 H 0.64745 0.29894 0.11673 0.0
H36 H 0.62502 0.22322 0.04896 0.0
H37 H 0.64286 0.1614 0.04464 0.0
H38 H 0.63993 0.15579 0.0712 0.0
H39 H 0.62261 0.21779 0.07568 0.0
C40 C 0.48712 0.5824 0.47251 0.0
C41 C 0.50743 0.58927 0.46245 0.0
C42 C 0.51808 0.55874 0.47378 0.0
C43 C 0.52287 0.57769 0.46314 0.0
C44 C 0.49786 0.55217 0.48395 0.0
C45 C 0.48253 0.56392 0.48331 0.0
U46 U 0.45518 0.61052 0.44892 0.0
O47 O 0.41495 0.60276 0.44824 0.0
O48 O 0.44686 0.64218 0.45303 0.0
C49 C 0.42155 0.62639 0.4526 0.0
C50 C 0.46968 0.59317 0.47123 0.0
C51 C 0.40708 0.62779 0.46533 0.0
C52 C 0.38846 0.61292 0.4895 0.0
C53 C 0.40286 0.61203 0.47761 0.0
C54 C 0.38306 0.64594 0.4772 0.0
C55 C 0.37826 0.62976 0.48939 0.0
C56 C 0.3973 0.64488 0.46524 0.0
C57 C 0.47105 0.6164 0.4077 0.0
C58 C 0.4439 0.61449 0.38729 0.0
C59 C 0.48937 0.62832 0.38326 0.0
C60 C 0.49232 0.62527 0.39816 0.0
C61 C 0.46499 0.62243 0.37759 0.0
C62 C 0.44693 0.61159 0.40224 0.0
C63 C 0.47406 0.61037 0.42293 0.0
O64 O 0.48093 0.61795 0.46782 0.0
O65 O 0.44826 0.57863 0.46377 0.0
O66 O 0.45382 0.58999 0.42864 0.0
O67 O 0.48543 0.63018 0.43203 0.0
H68 H 0.51118 0.60336 0.45394 0.0
H69 H 0.53851 0.58355 0.45528 0.0
H70 H 0.49337 0.53743 0.49215 0.0
H71 H 0.46675 0.5582 0.49107 0.0
H72 H 0.38539 0.60049 0.49882 0.0
H73 H 0.41054 0.59891 0.47794 0.0
H74 H 0.3753 0.65898 0.47678 0.0
H75 H 0.40048 0.65725 0.45587 0.0
H76 H 0.42497 0.61008 0.38327 0.0
H77 H 0.50592 0.63416 0.37607 0.0
H78 H 0.51105 0.629 0.40217 0.0
H79 H 0.43026 0.60487 0.40944 0.0
C80 C 0.93561 0.47216 0.80859 0.0
C81 C 0.94895 0.49294 0.79886 0.0
C82 C 0.99034 0.50322 0.80992 0.0
C83 C 0.976 0.50842 0.79959 0.0
C84 C 0.97681 0.48266 0.81984 0.0
C85 C 0.94967 0.46728 0.81917 0.0
U86 U 0.87731 0.43938 0.78379 0.0
O87 O 0.84531 0.39886 0.78267 0.0
O88 O 0.83679 0.43038 0.78625 0.0
C89 C 0.82762 0.40514 0.78602 0.0
C90 C 0.90746 0.45429 0.80693 0.0
C91 C 0.81063 0.39067 0.79834 0.0
C92 C 0.80297 0.38374 0.82452 0.0
C93 C 0.81888 0.39815 0.81285 0.0
C94 C 0.77044 0.35419 0.8073 0.0
C95 C 0.77865 0.36148 0.82187 0.0
C96 C 0.78632 0.3687 0.79564 0.0
C97 C 0.89239 0.45698 0.74278 0.0
C98 C 0.869 0.43169 0.72133 0.0
C99 C 0.90469 0.47582 0.71854 0.0
C100 C 0.90804 0.47805 0.73371 0.0
C101 C 0.88561 0.4524 0.71215 0.0
C102 C 0.87241 0.43394 0.73656 0.0
C103 C 0.89898 0.45897 0.75842 0.0
O104 O 0.89367 0.465 0.80301 0.0
O105 O 0.90134 0.43289 0.79962 0.0
O106 O 0.89832 0.43846 0.76421 0.0
O107 O 0.88926 0.46982 0.76699 0.0
H108 H 0.93852 0.49693 0.7905 0.0
H109 H 0.98569 0.52434 0.79194 0.0
H110 H 0.98721 0.47789 0.82781 0.0
H111 H 0.93973 0.45113 0.82666 0.0
H112 H 0.80998 0.38966 0.83561 0.0
H113 H 0.83774 0.41496 0.81513 0.0
H114 H 0.75171 0.3373 0.80492 0.0
H115 H 0.7797 0.36266 0.7845 0.0
H116 H 0.8542 0.41339 0.71671 0.0
H117 H 0.91746 0.49227 0.71178 0.0
H118 H 0.92349 0.496 0.73832 0.0
H119 H 0.86008 0.41745 0.74343 0.0
C120 C 0.49934 0.92206 0.14133 0.0
C121 C 0.49264 0.93567 0.13139 0.0
C122 C 0.52365 0.97672 0.1429 0.0
C123 C 0.50454 0.96269 0.13223 0.0
C124 C 0.52997 0.96292 0.153 0.0
C125 C 0.5179 0.93581 0.15221 0.0
U126 U 0.47069 0.86302 0.11683 0.0
O127 O 0.47823 0.83054 0.11509 0.0
O128 O 0.43887 0.82287 0.12025 0.0
C129 C 0.4546 0.81335 0.11936 0.0
C130 C 0.48845 0.89386 0.1397 0.0
C131 C 0.45333 0.79704 0.13174 0.0
C132 C 0.4682 0.79263 0.15574 0.0
C133 C 0.46901 0.80825 0.14415 0.0
C134 C 0.43543 0.75446 0.14288 0.0
C135 C 0.45151 0.76556 0.1552 0.0
C136 C 0.43641 0.77011 0.13121 0.0
C137 C 0.46507 0.87675 0.07595 0.0
C138 C 0.46805 0.85502 0.05399 0.0
C139 C 0.45509 0.8876 0.05217 0.0
C140 C 0.45697 0.89083 0.06735 0.0
C141 C 0.46141 0.87027 0.04527 0.0
C142 C 0.46991 0.85827 0.06924 0.0
C143 C 0.4709 0.88381 0.09151 0.0
O144 O 0.46358 0.88043 0.13635 0.0
O145 O 0.50282 0.88719 0.13189 0.0
O146 O 0.49115 0.88322 0.09682 0.0
O147 O 0.45101 0.87462 0.10056 0.0
H148 H 0.4785 0.92543 0.12282 0.0
H149 H 0.49886 0.9726 0.12443 0.0
H150 H 0.54481 0.97309 0.16124 0.0
H151 H 0.5235 0.92562 0.15987 0.0
H152 H 0.48053 0.80175 0.16518 0.0
H153 H 0.48199 0.82907 0.14482 0.0
H154 H 0.4225 0.73365 0.14213 0.0
H155 H 0.42411 0.76117 0.12173 0.0
H156 H 0.4731 0.84158 0.04899 0.0
H157 H 0.44944 0.89927 0.04577 0.0
H158 H 0.45307 0.90512 0.07234 0.0
H159 H 0.47615 0.84714 0.0757 0.0
C160 C 0.60885 0.48205 0.47302 0.0
C161 C 0.58864 0.47508 0.46289 0.0
C162 C 0.57816 0.50604 0.47403 0.0
C163 C 0.57335 0.48682 0.46345 0.0
C164 C 0.59827 0.51273 0.48426 0.0
C165 C 0.61346 0.5008 0.48375 0.0
U166 U 0.6404 0.45302 0.4496 0.0
O167 O 0.68051 0.46038 0.44893 0.0
O168 O 0.64834 0.42118 0.45375 0.0
C169 C 0.67368 0.43678 0.45332 0.0
C170 C 0.62614 0.47107 0.47185 0.0
C171 C 0.68805 0.43543 0.46605 0.0
C172 C 0.70654 0.45044 0.49026 0.0
C173 C 0.69227 0.45131 0.47836 0.0
C174 C 0.71185 0.41721 0.4779 0.0
C175 C 0.71663 0.4335 0.49012 0.0
C176 C 0.69773 0.41825 0.46593 0.0
C177 C 0.62422 0.44645 0.40836 0.0
C178 C 0.65097 0.44789 0.38777 0.0
C179 C 0.60554 0.43439 0.384 0.0
C180 C 0.60283 0.43762 0.39894 0.0
C181 C 0.62978 0.44004 0.37818 0.0
C182 C 0.64819 0.45099 0.40276 0.0
C183 C 0.6215 0.45282 0.42363 0.0
O184 O 0.61475 0.44621 0.46851 0.0
O185 O 0.64761 0.48531 0.46438 0.0
O186 O 0.64192 0.47318 0.42927 0.0
O187 O 0.61004 0.43321 0.43275 0.0
H188 H 0.58488 0.46077 0.45443 0.0
H189 H 0.55778 0.48087 0.45555 0.0
H190 H 0.60277 0.52767 0.49242 0.0
H191 H 0.62916 0.50661 0.49155 0.0
H192 H 0.7096 0.46294 0.49961 0.0
H193 H 0.68467 0.4645 0.47871 0.0
H194 H 0.71953 0.4041 0.47745 0.0
H195 H 0.69456 0.4058 0.45653 0.0
H196 H 0.6698 0.45212 0.38364 0.0
H197 H 0.58892 0.42863 0.37691 0.0
H198 H 0.58421 0.43411 0.40306 0.0
H199 H 0.66494 0.45768 0.40988 0.0
C200 C 0.15811 0.59295 0.8078 0.0
C201 C 0.14437 0.57295 0.79758 0.0
C202 C 0.10336 0.56247 0.80932 0.0
C203 C 0.1173 0.55776 0.7984 0.0
C204 C 0.1173 0.58234 0.81965 0.0
C205 C 0.14444 0.59743 0.81889 0.0
U206 U 0.21791 0.62467 0.78381 0.0
O207 O 0.25085 0.66465 0.78329 0.0
O208 O 0.25782 0.63227 0.78731 0.0
C209 C 0.26775 0.65761 0.78712 0.0
C210 C 0.1864 0.61016 0.80639 0.0
C211 C 0.28422 0.67169 0.79973 0.0
C212 C 0.28901 0.68854 0.82452 0.0
C213 C 0.27316 0.67455 0.8127 0.0
C214 C 0.32713 0.69642 0.81064 0.0
C215 C 0.31623 0.69978 0.82361 0.0
C216 C 0.31124 0.68252 0.7988 0.0
C217 C 0.20713 0.60935 0.74252 0.0
C218 C 0.23253 0.63637 0.72212 0.0
C219 C 0.20041 0.59112 0.718 0.0
C220 C 0.19444 0.58818 0.73293 0.0
C221 C 0.21914 0.61537 0.71237 0.0
C222 C 0.22664 0.63336 0.73709 0.0
C223 C 0.19828 0.60633 0.75784 0.0
O224 O 0.19967 0.59876 0.80261 0.0
O225 O 0.19343 0.63172 0.79915 0.0
O226 O 0.19865 0.62667 0.76381 0.0
O227 O 0.20653 0.59459 0.76667 0.0
H228 H 0.15454 0.56929 0.78885 0.0
H229 H 0.10729 0.54238 0.79041 0.0
H230 H 0.1072 0.58674 0.82809 0.0
H231 H 0.15472 0.61295 0.82677 0.0
H232 H 0.27995 0.69101 0.83423 0.0
H233 H 0.25227 0.6662 0.81362 0.0
H234 H 0.34794 0.70443 0.80965 0.0
H235 H 0.32006 0.68031 0.7889 0.0
H236 H 0.24725 0.65521 0.71812 0.0
H237 H 0.18951 0.57464 0.71078 0.0
H238 H 0.17928 0.56953 0.73692 0.0
H239 H 0.23682 0.64995 0.74434 0.0
C240 C 0.93625 0.48135 0.55329 0.0
C241 C 0.94968 0.47422 0.56313 0.0
C242 C 0.99101 0.50557 0.5521 0.0
C243 C 0.97675 0.48606 0.56247 0.0
C244 C 0.9774 0.51236 0.54211 0.0
C245 C 0.95024 0.50033 0.54271 0.0
U246 U 0.87676 0.45226 0.57736 0.0
O247 O 0.84416 0.45969 0.579 0.0
O248 O 0.83663 0.4205 0.5736 0.0
C249 C 0.82704 0.43616 0.57452 0.0
C250 C 0.90799 0.47044 0.55473 0.0
C251 C 0.81091 0.43506 0.56205 0.0
C252 C 0.80686 0.45029 0.5381 0.0
C253 C 0.82231 0.451 0.5498 0.0
C254 C 0.76849 0.41712 0.55054 0.0
C255 C 0.77977 0.43344 0.53837 0.0
C256 C 0.78396 0.41801 0.56231 0.0
C257 C 0.89009 0.44597 0.61826 0.0
C258 C 0.86873 0.44918 0.6403 0.0
C259 C 0.90065 0.43528 0.64192 0.0
C260 C 0.90383 0.43731 0.62674 0.0
C261 C 0.8837 0.442 0.64893 0.0
C262 C 0.87192 0.45119 0.62506 0.0
C263 C 0.89726 0.45206 0.60275 0.0
O264 O 0.89449 0.44554 0.55786 0.0
O265 O 0.90117 0.48463 0.56259 0.0
O266 O 0.89669 0.47235 0.59756 0.0
O267 O 0.88821 0.43235 0.59354 0.0
H268 H 0.93926 0.45975 0.57148 0.0
H269 H 0.98651 0.48002 0.57018 0.0
H270 H 0.98775 0.52751 0.5341 0.0
H271 H 0.94021 0.50628 0.53514 0.0
H272 H 0.81613 0.4628 0.52878 0.0
H273 H 0.84315 0.46409 0.54933 0.0
H274 H 0.74765 0.40406 0.55108 0.0
H275 H 0.77488 0.4055 0.57166 0.0
H276 H 0.85558 0.45455 0.64539 0.0
H277 H 0.91209 0.42922 0.64824 0.0
H278 H 0.91787 0.43312 0.62168 0.0
H279 H 0.86105 0.45786 0.61869 0.0
C280 C 0.48717 0.92102 0.88567 0.0
C281 C 0.50764 0.93494 0.89557 0.0
C282 C 0.51753 0.97567 0.88395 0.0
C283 C 0.52277 0.96195 0.89466 0.0
C284 C 0.49725 0.96156 0.87389 0.0
C285 C 0.48221 0.93445 0.87476 0.0
U286 U 0.45636 0.86272 0.91043 0.0
O287 O 0.41631 0.82999 0.91184 0.0
O288 O 0.44842 0.82262 0.90747 0.0
C289 C 0.42308 0.81285 0.90802 0.0
C290 C 0.46987 0.89284 0.88738 0.0
C291 C 0.40852 0.79604 0.89561 0.0
C292 C 0.392 0.79086 0.87078 0.0
C293 C 0.40624 0.80689 0.88248 0.0
C294 C 0.38262 0.75292 0.88509 0.0
C295 C 0.37994 0.76365 0.87194 0.0
C296 C 0.39678 0.76901 0.89683 0.0
C297 C 0.47487 0.87777 0.95139 0.0
C298 C 0.45004 0.85475 0.97297 0.0
C299 C 0.49453 0.88996 0.9755 0.0
C300 C 0.49633 0.89321 0.96033 0.0
C301 C 0.47114 0.87122 0.98203 0.0
C302 C 0.45187 0.85804 0.95773 0.0
C303 C 0.47636 0.88442 0.93579 0.0
O304 O 0.48132 0.87965 0.89107 0.0
O305 O 0.4486 0.88625 0.89493 0.0
O306 O 0.45545 0.88332 0.9302 0.0
O307 O 0.4874 0.87519 0.927 0.0
H308 H 0.51168 0.92497 0.90418 0.0
H309 H 0.53848 0.9721 0.90243 0.0
H310 H 0.49246 0.97148 0.86562 0.0
H311 H 0.46631 0.92404 0.86712 0.0
H312 H 0.39006 0.7998 0.86092 0.0
H313 H 0.41528 0.82778 0.88134 0.0
H314 H 0.37393 0.7321 0.88629 0.0
H315 H 0.39852 0.76035 0.90686 0.0
H316 H 0.43175 0.8402 0.97769 0.0
H317 H 0.51127 0.90262 0.98216 0.0
H318 H 0.51426 0.90847 0.95562 0.0
H319 H 0.43507 0.84586 0.95099 0.0
C320 C 0.60022 0.47191 0.21975 0.0
C321 C 0.60726 0.49223 0.22985 0.0
C322 C 0.5769 0.50318 0.21852 0.0
C323 C 0.59585 0.50781 0.22918 0.0
C324 C 0.57021 0.483 0.20828 0.0
C325 C 0.58179 0.46753 0.2089 0.0
U326 U 0.62622 0.43844 0.24364 0.0
O327 O 0.61773 0.39793 0.24376 0.0
O328 O 0.65777 0.42974 0.24041 0.0
C329 C 0.64172 0.40448 0.24023 0.0
C330 C 0.61058 0.45414 0.22109 0.0
C331 C 0.64415 0.39056 0.22754 0.0
C332 C 0.64572 0.38526 0.20122 0.0
C333 C 0.64415 0.39908 0.21323 0.0
C334 C 0.64721 0.3542 0.21768 0.0
C335 C 0.64712 0.36255 0.20328 0.0
C336 C 0.64575 0.36811 0.22969 0.0
C337 C 0.63029 0.45329 0.28499 0.0
C338 C 0.62798 0.42596 0.30533 0.0
C339 C 0.64204 0.47138 0.30952 0.0
C340 C 0.63914 0.47446 0.29462 0.0
C341 C 0.63603 0.44699 0.3151 0.0
C342 C 0.62522 0.4291 0.29037 0.0
C343 C 0.62488 0.45661 0.26968 0.0
O344 O 0.63516 0.46489 0.22499 0.0
O345 O 0.59536 0.43254 0.22816 0.0
O346 O 0.60471 0.43657 0.2636 0.0
O347 O 0.64513 0.46814 0.26093 0.0
H348 H 0.62129 0.49581 0.23841 0.0
H349 H 0.60181 0.52342 0.23709 0.0
H350 H 0.55545 0.47864 0.20005 0.0
H351 H 0.57592 0.45175 0.20111 0.0
H352 H 0.64595 0.39245 0.19031 0.0
H353 H 0.64282 0.41637 0.21137 0.0
H354 H 0.64785 0.33659 0.21969 0.0
H355 H 0.64558 0.36117 0.24067 0.0
H356 H 0.62346 0.40701 0.30928 0.0
H357 H 0.64795 0.48789 0.31677 0.0
H358 H 0.64308 0.49325 0.29067 0.0
H359 H 0.61852 0.41252 0.28309 0.0
C360 C 0.1587 0.58279 0.55399 0.0
C361 C 0.14518 0.58945 0.56413 0.0
C362 C 0.104 0.55905 0.55252 0.0
C363 C 0.11813 0.57784 0.56334 0.0
C364 C 0.11773 0.55273 0.54225 0.0
C365 C 0.14485 0.56452 0.54299 0.0
U366 U 0.21862 0.6108 0.57789 0.0
O367 O 0.251 0.60296 0.57869 0.0
O368 O 0.25878 0.64241 0.57404 0.0
C369 C 0.26818 0.62657 0.57445 0.0
C370 C 0.18693 0.59353 0.5554 0.0
C371 C 0.28412 0.62791 0.56177 0.0
C372 C 0.28792 0.61292 0.53758 0.0
C373 C 0.27259 0.61208 0.54944 0.0
C374 C 0.32641 0.64604 0.55005 0.0
C375 C 0.31501 0.62979 0.5378 0.0
C376 C 0.31105 0.64502 0.56197 0.0
C377 C 0.2082 0.61665 0.61911 0.0
C378 C 0.2331 0.61459 0.63964 0.0
C379 C 0.20152 0.62849 0.64356 0.0
C380 C 0.19573 0.62551 0.62861 0.0
C381 C 0.21986 0.62252 0.6493 0.0
C382 C 0.22738 0.61176 0.62465 0.0
C383 C 0.19934 0.61067 0.60381 0.0
O384 O 0.20053 0.6183 0.55896 0.0
O385 O 0.19366 0.57896 0.56284 0.0
O386 O 0.19915 0.59028 0.59803 0.0
O387 O 0.20799 0.6305 0.59482 0.0
H388 H 0.1555 0.60339 0.57279 0.0
H389 H 0.10829 0.5835 0.57128 0.0
H390 H 0.10748 0.53812 0.53389 0.0
H391 H 0.15496 0.55896 0.53516 0.0
H392 H 0.27857 0.60046 0.52821 0.0
H393 H 0.25175 0.59895 0.54902 0.0
H394 H 0.34724 0.65911 0.55055 0.0
H395 H 0.32023 0.65744 0.57139 0.0
H396 H 0.24752 0.61012 0.64372 0.0
H397 H 0.19075 0.63432 0.65071 0.0
H398 H 0.18082 0.62929 0.62454 0.0
H399 H 0.23738 0.60504 0.61747 0.0
C400 C 0.60708 0.14318 0.8849 0.0
C401 C 0.5865 0.12979 0.8948 0.0
C402 C 0.57616 0.08852 0.88348 0.0
C403 C 0.57109 0.10278 0.89403 0.0
C404 C 0.59651 0.10211 0.87339 0.0
C405 C 0.61182 0.12921 0.87411 0.0
U406 U 0.63967 0.20171 0.90967 0.0
O407 O 0.68018 0.23389 0.91058 0.0
O408 O 0.64836 0.24203 0.9072 0.0
C409 C 0.67366 0.25135 0.90722 0.0
C410 C 0.62486 0.17132 0.88656 0.0
C411 C 0.68784 0.26798 0.89473 0.0
C412 C 0.69337 0.27529 0.86848 0.0
C413 C 0.6793 0.25979 0.88034 0.0
C414 C 0.72474 0.30731 0.88526 0.0
C415 C 0.71638 0.29917 0.87078 0.0
C416 C 0.71056 0.29183 0.89712 0.0
C417 C 0.62184 0.18699 0.95077 0.0
C418 C 0.64698 0.20851 0.97261 0.0
C419 C 0.60141 0.17576 0.97472 0.0
C420 C 0.5998 0.1727 0.95952 0.0
C421 C 0.62519 0.19314 0.98147 0.0
C422 C 0.64534 0.20543 0.95735 0.0
C423 C 0.62015 0.18039 0.9351 0.0
O424 O 0.614 0.185 0.89054 0.0
O425 O 0.64629 0.17759 0.89383 0.0
O426 O 0.64081 0.18118 0.92929 0.0
O427 O 0.60912 0.18978 0.92652 0.0
H428 H 0.58262 0.14016 0.90332 0.0
H429 H 0.55533 0.09304 0.90181 0.0
H430 H 0.60118 0.09176 0.86525 0.0
H431 H 0.62781 0.1392 0.86649 0.0
H432 H 0.68616 0.26857 0.85751 0.0
H433 H 0.66181 0.24134 0.87829 0.0
H434 H 0.74255 0.32537 0.88744 0.0
H435 H 0.71752 0.29834 0.90817 0.0
H436 H 0.66557 0.222 0.97751 0.0
H437 H 0.58417 0.16399 0.98122 0.0
H438 H 0.58148 0.15846 0.95464 0.0
H439 H 0.66259 0.21672 0.95076 0.0
C440 C 0.50012 0.59386 0.21971 0.0
C441 C 0.49323 0.57368 0.22977 0.0
C442 C 0.52421 0.56328 0.21857 0.0
C443 C 0.50502 0.55843 0.22915 0.0
C444 C 0.53083 0.58337 0.2084 0.0
C445 C 0.51886 0.5985 0.20897 0.0
U446 U 0.47105 0.62534 0.24318 0.0
O447 O 0.47841 0.66537 0.24393 0.0
O448 O 0.43915 0.63325 0.23902 0.0
C449 C 0.45476 0.65855 0.23953 0.0
C450 C 0.48909 0.61109 0.22093 0.0
C451 C 0.45336 0.67295 0.22686 0.0
C452 C 0.46855 0.69187 0.2028 0.0
C453 C 0.46942 0.67749 0.21462 0.0
C454 C 0.43492 0.69661 0.21509 0.0
C455 C 0.45141 0.70173 0.20295 0.0
C456 C 0.43596 0.68239 0.22698 0.0
C457 C 0.46459 0.60947 0.28439 0.0
C458 C 0.46597 0.63644 0.30487 0.0
C459 C 0.45259 0.59116 0.30878 0.0
C460 C 0.45583 0.58826 0.29386 0.0
C461 C 0.45818 0.61542 0.31452 0.0
C462 C 0.46907 0.63347 0.28991 0.0
C463 C 0.47094 0.60658 0.26915 0.0
O464 O 0.4642 0.59968 0.22424 0.0
O465 O 0.50335 0.63254 0.22844 0.0
O466 O 0.49133 0.62691 0.26352 0.0
O467 O 0.45127 0.59509 0.26 0.0
H468 H 0.47894 0.56989 0.23824 0.0
H469 H 0.49912 0.54288 0.237 0.0
H470 H 0.54575 0.58789 0.20023 0.0
H471 H 0.52461 0.61418 0.20121 0.0
H472 H 0.48122 0.6952 0.19351 0.0
H473 H 0.48279 0.67008 0.21426 0.0
H474 H 0.42165 0.70411 0.21555 0.0
H475 H 0.42336 0.67897 0.23632 0.0
H476 H 0.47015 0.65528 0.30894 0.0
H477 H 0.44687 0.57468 0.31592 0.0
H478 H 0.45236 0.56963 0.2898 0.0
H479 H 0.4757 0.65008 0.28274 0.0
C480 C 0.66352 0.33568 0.19079 0.0
C481 C 0.64794 0.34733 0.1905 0.0
H482 H 0.67591 0.31208 0.17949 0.0
C483 C 0.63277 0.34395 0.17798 0.0
H484 H 0.67578 0.33824 0.20014 0.0
C485 C 0.633 0.32912 0.16611 0.0
C486 C 0.6483 0.3172 0.16651 0.0
H487 H 0.62021 0.35226 0.17746 0.0
H488 H 0.62068 0.32645 0.15677 0.0
C489 C 0.66364 0.32073 0.17895 0.0
C490 C 0.36615 0.65351 0.50778 0.0
C491 C 0.3622 0.62996 0.50181 0.0
H492 H 0.35436 0.67193 0.52389 0.0
C493 C 0.34265 0.60645 0.50776 0.0
H494 H 0.38119 0.67192 0.50347 0.0
C495 C 0.32732 0.60646 0.51938 0.0
C496 C 0.33132 0.62997 0.5254 0.0
H497 H 0.339 0.588 0.5033 0.0
H498 H 0.31249 0.58802 0.52377 0.0
C499 C 0.35096 0.65352 0.51952 0.0
C500 C 0.73495 0.30334 0.84549 0.0
C501 C 0.73189 0.31521 0.85813 0.0
H502 H 0.75222 0.30861 0.82425 0.0
C503 C 0.74405 0.34248 0.85863 0.0
H504 H 0.72628 0.28243 0.84482 0.0
C505 C 0.75908 0.35749 0.84685 0.0
C506 C 0.7622 0.34559 0.83427 0.0
H507 H 0.74178 0.35225 0.86808 0.0
H508 H 0.76808 0.37844 0.84754 0.0
C509 C 0.74986 0.31835 0.8337 0.0
C510 C 0.47481 0.73761 0.18483 0.0
C511 C 0.45125 0.71783 0.19063 0.0
H512 H 0.49332 0.7681 0.16909 0.0
C513 C 0.42769 0.71375 0.18466 0.0
H514 H 0.49327 0.74136 0.18929 0.0
C515 C 0.42771 0.72908 0.17308 0.0
C516 C 0.4513 0.74899 0.16736 0.0
H517 H 0.40924 0.69854 0.18886 0.0
H518 H 0.40928 0.72561 0.16873 0.0
C519 C 0.47483 0.75307 0.17336 0.0
C520 C 0.7674 0.45679 0.52019 0.0
C521 C 0.76337 0.43327 0.52608 0.0
H522 H 0.75581 0.47526 0.50423 0.0
C523 C 0.74371 0.40974 0.52012 0.0
H524 H 0.78224 0.47523 0.52465 0.0
C525 C 0.72855 0.40975 0.50842 0.0
C526 C 0.73257 0.4333 0.50256 0.0
H527 H 0.74029 0.39132 0.52438 0.0
H528 H 0.71352 0.39134 0.50404 0.0
C529 C 0.7521 0.45681 0.5086 0.0
C530 C 0.32542 0.70805 0.85061 0.0
C531 C 0.33314 0.71547 0.83602 0.0
H532 H 0.33385 0.71747 0.87332 0.0
C533 C 0.35684 0.73841 0.83336 0.0
H534 H 0.30748 0.69033 0.85307 0.0
C535 C 0.37221 0.75374 0.84499 0.0
C536 C 0.36422 0.74662 0.85958 0.0
H537 H 0.3633 0.74488 0.82227 0.0
H538 H 0.39036 0.77125 0.84252 0.0
C539 C 0.34074 0.72346 0.86224 0.0
C540 C 0.54456 1.01953 0.12985 0.0
C541 C 0.53756 1.00564 0.14308 0.0
H542 H 0.56223 0.05659 0.11945 0.0
C543 C 0.54414 1.01961 0.15636 0.0
H544 H 0.54019 1.00948 0.1194 0.0
C545 C 0.55734 0.04681 0.15639 0.0
C546 C 0.56425 0.06066 0.14313 0.0
H547 H 0.53887 1.00954 0.16675 0.0
H548 H 0.56232 0.05697 0.1668 0.0
C549 C 0.55761 0.04664 0.12987 0.0
C550 C 0.55548 0.52601 0.46079 0.0
C551 C 0.56275 0.51953 0.47407 0.0
H552 H 0.53542 0.54288 0.45028 0.0
C553 C 0.55531 0.52621 0.48731 0.0
H554 H 0.56117 0.52155 0.45039 0.0
C555 C 0.54094 0.53901 0.48725 0.0
C556 C 0.53361 0.54538 0.47395 0.0
H557 H 0.56036 0.52132 0.49774 0.0
H558 H 0.53579 0.54411 0.49763 0.0
C559 C 0.54102 0.53865 0.46073 0.0
C560 C 1.03304 0.52616 0.79659 0.0
C561 C 1.0193 0.51854 0.80991 0.0
H562 H 0.07002 0.54627 0.78597 0.0
C563 C 1.03347 0.52542 0.82309 0.0
H564 H 1.02285 0.52088 0.78621 0.0
C565 C 0.0607 0.53959 0.82294 0.0
C566 C 0.0744 0.54724 0.80961 0.0
H567 H 1.02353 0.52007 0.83355 0.0
H568 H 0.07101 0.54432 0.83328 0.0
C569 C 0.06019 0.5404 0.79644 0.0
C570 C 0.06091 0.53845 0.56548 0.0
C571 C 0.07506 0.54553 0.55229 0.0
H572 H 1.02361 0.52087 0.57577 0.0
C573 C 0.0613 0.53934 0.53897 0.0
H574 H 0.07078 0.54253 0.57594 0.0
C575 C 1.03408 0.52635 0.53886 0.0
C576 C 1.01997 0.51929 0.55208 0.0
H577 H 0.07156 0.54471 0.5286 0.0
H578 H 1.02409 0.52161 0.52842 0.0
C579 C 1.03377 0.52561 0.56537 0.0
C580 C 0.53974 1.01822 0.87035 0.0
C581 C 0.53256 1.00458 0.88368 0.0
H582 H 0.55879 0.05531 0.85979 0.0
C583 C 0.5397 1.01882 0.89687 0.0
H584 H 0.53476 1.00788 0.85999 0.0
C585 C 0.55379 0.04592 0.89675 0.0
C586 C 0.56097 0.0596 0.88345 0.0
H587 H 0.53418 1.00904 0.90734 0.0
H588 H 0.55932 0.05614 0.90715 0.0
C589 C 0.55378 0.04541 0.87024 0.0
C590 C 0.54428 0.54059 0.23169 0.0
C591 C 0.53773 0.54789 0.21845 0.0
H592 H 0.5612 0.52049 0.2421 0.0
C593 C 0.54436 0.54051 0.20518 0.0
H594 H 0.53986 0.54624 0.24213 0.0
C595 C 0.55717 0.52616 0.20516 0.0
C596 C 0.5636 0.51877 0.21842 0.0
H597 H 0.53941 0.54559 0.19477 0.0
H598 H 0.56221 0.52103 0.19475 0.0
C599 C 0.55693 0.52614 0.23167 0.0
C600 C 0.6412 0.21702 1.00554 0.0
C601 C 0.62751 0.19355 0.99768 0.0
H602 H 0.65391 0.23518 0.02664 0.0
C603 C 0.61618 0.17 1.0054 0.0
H604 H 0.65007 0.23546 0.99987 0.0
C605 C 0.61838 0.16984 0.02059 0.0
C606 C 0.63197 0.19322 0.0285 0.0
H607 H 0.60583 0.15157 0.99967 0.0
H608 H 0.60913 0.15131 0.02618 0.0
C609 C 0.64326 0.21686 0.02083 0.0
C610 C 0.43816 0.59991 0.33936 0.0
C611 C 0.45791 0.61908 0.33062 0.0
H612 H 0.42488 0.58599 0.36105 0.0
C613 C 0.4787 0.64072 0.33749 0.0
H614 H 0.42175 0.58315 0.33438 0.0
C615 C 0.48042 0.64242 0.35277 0.0
C616 C 0.46134 0.6226 0.3615 0.0
H617 H 0.49433 0.65573 0.33108 0.0
H618 H 0.49708 0.65893 0.35774 0.0
C619 C 0.43982 0.60168 0.35464 0.0
C620 C 0.90774 0.45813 0.68802 0.0
C621 C 0.88453 0.44921 0.69598 0.0
H622 H 0.92559 0.46299 0.66706 0.0
C623 C 0.86073 0.43725 0.68838 0.0
H624 H 0.92637 0.46708 0.69356 0.0
C625 C 0.86026 0.43472 0.67308 0.0
C626 C 0.88357 0.44377 0.66516 0.0
H627 H 0.84254 0.43024 0.69423 0.0
H628 H 0.8417 0.42558 0.66746 0.0
C629 C 0.90726 0.45545 0.67283 0.0
C630 C 0.45366 0.8465 0.02116 0.0
C631 C 0.46322 0.86992 0.02904 0.0
H632 H 0.44857 0.82845 1.00004 0.0
C633 C 0.47533 0.89349 0.02134 0.0
H634 H 0.44417 0.82803 0.0268 0.0
C635 C 0.47785 0.89373 1.00615 0.0
C636 C 0.46834 0.8704 0.99822 0.0
H637 H 0.48326 0.9119 0.02708 0.0
H638 H 0.48708 0.91228 1.00058 0.0
C639 C 0.45604 0.84673 1.00586 0.0
C640 C 0.6139 0.42011 0.3533 0.0
C641 C 0.63323 0.4398 0.36206 0.0
H642 H 0.59967 0.40692 0.3316 0.0
C643 C 0.65481 0.46056 0.3552 0.0
H644 H 0.59717 0.40373 0.35826 0.0
C645 C 0.65633 0.46232 0.33993 0.0
C646 C 0.63635 0.4433 0.33118 0.0
H647 H 0.66995 0.47615 0.36163 0.0
H648 H 0.67281 0.47895 0.33497 0.0
C649 C 0.61547 0.42182 0.33802 0.0
C650 C 0.22362 0.59984 0.68746 0.0
C651 C 0.22308 0.61901 0.69628 0.0
H652 H 0.22311 0.58597 0.66572 0.0
C653 C 0.22407 0.64066 0.6895 0.0
H654 H 0.22315 0.58306 0.69237 0.0
C655 C 0.22419 0.64241 0.67423 0.0
C656 C 0.22345 0.6226 0.66541 0.0
H657 H 0.22349 0.65568 0.69598 0.0
H658 H 0.22416 0.65894 0.66932 0.0
C659 C 0.22386 0.60164 0.67219 0.0
loop_
_geom_bond_atom_site_label_1
_geom_bond_atom_site_label_2
_geom_bond_distance
_geom_bond_site_symmetry_2
_ccdc_geom_bond_type
C0 C1 1.264 . S
C0 C5 1.479 . S
C0 C10 1.465 . S
C1 C0 1.264 . S
C1 C3 1.339 . S
C1 H28 0.931 . S
C2 C3 1.395 . S
C2 C4 1.320 . S
C3 C1 1.339 . S
C3 C2 1.395 . S
C3 H29 0.929 . S
C4 C2 1.320 . S
C4 C5 1.405 . S
C4 H30 0.930 . S
C5 C0 1.479 . S
C5 C4 1.405 . S
C5 H31 0.931 . S
U6 O7 2.454 . S
U6 O8 2.458 . S
U6 C9 2.984 . S
U6 C10 2.847 . S
U6 C23 2.882 . S
U6 O24 2.441 . S
U6 O25 2.420 . S
U6 O26 2.455 . S
U6 O27 2.449 . S
O7 U6 2.454 . S
O7 C9 1.353 . S
O8 U6 2.458 . S
O8 C9 1.286 . S
C9 U6 2.984 . S
C9 O7 1.353 . S
C9 O8 1.286 . S
C9 C11 1.363 . S
C10 C0 1.465 . S
C10 U6 2.847 . S
C10 O24 1.249 . S
C10 O25 1.202 . S
C11 C9 1.363 . S
C11 C13 1.408 . S
C11 C16 1.342 . S
C12 C13 1.310 . S
C12 C15 1.461 . S
C12 H32 0.932 . S
C13 C11 1.408 . S
C13 C12 1.310 . S
C13 H33 0.930 . S
C14 C15 1.474 . S
C14 C16 1.285 . S
C14 H34 0.929 . S
C15 C12 1.461 . S
C15 C14 1.474 . S
C16 C11 1.342 . S
C16 C14 1.285 . S
C16 H35 0.930 . S
C17 C20 1.424 . S
C17 C22 1.245 . S
C17 C23 1.428 . S
C18 C21 1.260 . S
C18 C22 1.477 . S
C18 H36 0.932 . S
C19 C20 1.384 . S
C19 C21 1.479 . S
C19 H37 0.929 . S
C20 C17 1.424 . S
C20 C19 1.384 . S
C20 H38 0.928 . S
C21 C18 1.260 . S
C21 C19 1.479 . S
C22 C17 1.245 . S
C22 C18 1.477 . S
C22 H39 0.932 . S
C23 U6 2.882 . S
C23 C17 1.428 . S
C23 O26 1.301 . S
C23 O27 1.282 . S
O24 U6 2.441 . S
O24 C10 1.249 . S
O25 U6 2.420 . S
O25 C10 1.202 . S
O26 U6 2.455 . S
O26 C23 1.301 . S
O27 U6 2.449 . S
O27 C23 1.282 . S
H28 C1 0.931 . S
H29 C3 0.929 . S
H30 C4 0.930 . S
H31 C5 0.931 . S
H32 C12 0.932 . S
H33 C13 0.930 . S
H34 C14 0.929 . S
H35 C16 0.930 . S
H36 C18 0.932 . S
H37 C19 0.929 . S
H38 C20 0.928 . S
H39 C22 0.932 . S
C40 C41 1.264 . S
C40 C45 1.479 . S
C40 C50 1.465 . S
C41 C40 1.264 . S
C41 C43 1.339 . S
C41 H68 0.931 . S
C42 C43 1.395 . S
C42 C44 1.320 . S
C43 C41 1.339 . S
C43 C42 1.395 . S
C43 H69 0.929 . S
C44 C42 1.320 . S
C44 C45 1.405 . S
C44 H70 0.930 . S
C45 C40 1.479 . S
C45 C44 1.405 . S
C45 H71 0.931 . S
U46 O47 2.454 . S
U46 O48 2.458 . S
U46 C49 2.984 . S
U46 C50 2.847 . S
U46 C63 2.882 . S
U46 O64 2.441 . S
U46 O65 2.420 . S
U46 O66 2.455 . S
U46 O67 2.449 . S
O47 U46 2.454 . S
O47 C49 1.353 . S
O48 U46 2.458 . S
O48 C49 1.286 . S
C49 U46 2.984 . S
C49 O47 1.353 . S
C49 O48 1.286 . S
C49 C51 1.363 . S
C50 C40 1.465 . S
C50 U46 2.847 . S
C50 O64 1.249 . S
C50 O65 1.202 . S
C51 C49 1.363 . S
C51 C53 1.408 . S
C51 C56 1.342 . S
C52 C53 1.310 . S
C52 C55 1.461 . S
C52 H72 0.932 . S
C53 C51 1.408 . S
C53 C52 1.310 . S
C53 H73 0.930 . S
C54 C55 1.474 . S
C54 C56 1.285 . S
C54 H74 0.929 . S
C55 C52 1.461 . S
C55 C54 1.474 . S
C56 C51 1.342 . S
C56 C54 1.285 . S
C56 H75 0.930 . S
C57 C60 1.424 . S
C57 C62 1.245 . S
C57 C63 1.428 . S
C58 C61 1.260 . S
C58 C62 1.477 . S
C58 H76 0.932 . S
C59 C60 1.384 . S
C59 C61 1.479 . S
C59 H77 0.929 . S
C60 C57 1.424 . S
C60 C59 1.384 . S
C60 H78 0.928 . S
C61 C58 1.260 . S
C61 C59 1.479 . S
C62 C57 1.245 . S
C62 C58 1.477 . S
C62 H79 0.932 . S
C63 U46 2.882 . S
C63 C57 1.428 . S
C63 O66 1.301 . S
C63 O67 1.282 . S
O64 U46 2.441 . S
O64 C50 1.249 . S
O65 U46 2.420 . S
O65 C50 1.202 . S
O66 U46 2.455 . S
O66 C63 1.301 . S
O67 U46 2.449 . S
O67 C63 1.282 . S
H68 C41 0.931 . S
H69 C43 0.929 . S
H70 C44 0.930 . S
H71 C45 0.931 . S
H72 C52 0.932 . S
H73 C53 0.930 . S
H74 C54 0.929 . S
H75 C56 0.930 . S
H76 C58 0.932 . S
H77 C59 0.929 . S
H78 C60 0.928 . S
H79 C62 0.932 . S
C80 C81 1.264 . S
C80 C85 1.479 . S
C80 C90 1.465 . S
C81 C80 1.264 . S
C81 C83 1.339 . S
C81 H108 0.931 . S
C82 C83 1.395 . S
C82 C84 1.320 . S
C83 C81 1.339 . S
C83 C82 1.395 . S
C83 H109 0.929 . S
C84 C82 1.320 . S
C84 C85 1.405 . S
C84 H110 0.930 . S
C85 C80 1.479 . S
C85 C84 1.405 . S
C85 H111 0.931 . S
U86 O87 2.454 . S
U86 O88 2.458 . S
U86 C89 2.984 . S
U86 C90 2.847 . S
U86 C103 2.882 . S
U86 O104 2.441 . S
U86 O105 2.420 . S
U86 O106 2.455 . S
U86 O107 2.449 . S
O87 U86 2.454 . S
O87 C89 1.353 . S
O88 U86 2.458 . S
O88 C89 1.286 . S
C89 U86 2.984 . S
C89 O87 1.353 . S
C89 O88 1.286 . S
C89 C91 1.363 . S
C90 C80 1.465 . S
C90 U86 2.847 . S
C90 O104 1.249 . S
C90 O105 1.202 . S
C91 C89 1.363 . S
C91 C93 1.408 . S
C91 C96 1.342 . S
C92 C93 1.310 . S
C92 C95 1.461 . S
C92 H112 0.932 . S
C93 C91 1.408 . S
C93 C92 1.310 . S
C93 H113 0.930 . S
C94 C95 1.474 . S
C94 C96 1.285 . S
C94 H114 0.929 . S
C95 C92 1.461 . S
C95 C94 1.474 . S
C96 C91 1.342 . S
C96 C94 1.285 . S
C96 H115 0.930 . S
C97 C100 1.424 . S
C97 C102 1.245 . S
C97 C103 1.428 . S
C98 C101 1.260 . S
C98 C102 1.477 . S
C98 H116 0.932 . S
C99 C100 1.384 . S
C99 C101 1.479 . S
C99 H117 0.929 . S
C100 C97 1.424 . S
C100 C99 1.384 . S
C100 H118 0.928 . S
C101 C98 1.260 . S
C101 C99 1.479 . S
C102 C97 1.245 . S
C102 C98 1.477 . S
C102 H119 0.932 . S
C103 U86 2.882 . S
C103 C97 1.428 . S
C103 O106 1.301 . S
C103 O107 1.282 . S
O104 U86 2.441 . S
O104 C90 1.249 . S
O105 U86 2.420 . S
O105 C90 1.202 . S
O106 U86 2.455 . S
O106 C103 1.301 . S
O107 U86 2.449 . S
O107 C103 1.282 . S
H108 C81 0.931 . S
H109 C83 0.929 . S
H110 C84 0.930 . S
H111 C85 0.931 . S
H112 C92 0.932 . S
H113 C93 0.930 . S
H114 C94 0.929 . S
H115 C96 0.930 . S
H116 C98 0.932 . S
H117 C99 0.929 . S
H118 C100 0.928 . S
H119 C102 0.932 . S
C120 C121 1.264 . S
C120 C125 1.479 . S
C120 C130 1.465 . S
C121 C120 1.264 . S
C121 C123 1.339 . S
C121 H148 0.931 . S
C122 C123 1.395 . S
C122 C124 1.320 . S
C123 C121 1.339 . S
C123 C122 1.395 . S
C123 H149 0.929 . S
C124 C122 1.320 . S
C124 C125 1.405 . S
C124 H150 0.930 . S
C125 C120 1.479 . S
C125 C124 1.405 . S
C125 H151 0.931 . S
U126 O127 2.454 . S
U126 O128 2.458 . S
U126 C129 2.984 . S
U126 C130 2.847 . S
U126 C143 2.882 . S
U126 O144 2.441 . S
U126 O145 2.420 . S
U126 O146 2.455 . S
U126 O147 2.449 . S
O127 U126 2.454 . S
O127 C129 1.353 . S
O128 U126 2.458 . S
O128 C129 1.286 . S
C129 U126 2.984 . S
C129 O127 1.353 . S
C129 O128 1.286 . S
C129 C131 1.363 . S
C130 C120 1.465 . S
C130 U126 2.847 . S
C130 O144 1.249 . S
C130 O145 1.202 . S
C131 C129 1.363 . S
C131 C133 1.408 . S
C131 C136 1.342 . S
C132 C133 1.310 . S
C132 C135 1.461 . S
C132 H152 0.932 . S
C133 C131 1.408 . S
C133 C132 1.310 . S
C133 H153 0.930 . S
C134 C135 1.474 . S
C134 C136 1.285 . S
C134 H154 0.929 . S
C135 C132 1.461 . S
C135 C134 1.474 . S
C136 C131 1.342 . S
C136 C134 1.285 . S
C136 H155 0.930 . S
C137 C140 1.424 . S
C137 C142 1.245 . S
C137 C143 1.428 . S
C138 C141 1.260 . S
C138 C142 1.477 . S
C138 H156 0.932 . S
C139 C140 1.384 . S
C139 C141 1.479 . S
C139 H157 0.929 . S
C140 C137 1.424 . S
C140 C139 1.384 . S
C140 H158 0.928 . S
C141 C138 1.260 . S
C141 C139 1.479 . S
C142 C137 1.245 . S
C142 C138 1.477 . S
C142 H159 0.932 . S
C143 U126 2.882 . S
C143 C137 1.428 . S
C143 O146 1.301 . S
C143 O147 1.282 . S
O144 U126 2.441 . S
O144 C130 1.249 . S
O145 U126 2.420 . S
O145 C130 1.202 . S
O146 U126 2.455 . S
O146 C143 1.301 . S
O147 U126 2.449 . S
O147 C143 1.282 . S
H148 C121 0.931 . S
H149 C123 0.929 . S
H150 C124 0.930 . S
H151 C125 0.931 . S
H152 C132 0.932 . S
H153 C133 0.930 . S
H154 C134 0.929 . S
H155 C136 0.930 . S
H156 C138 0.932 . S
H157 C139 0.929 . S
H158 C140 0.928 . S
H159 C142 0.932 . S
C160 C161 1.264 . S
C160 C165 1.479 . S
C160 C170 1.465 . S
C161 C160 1.264 . S
C161 C163 1.339 . S
C161 H188 0.931 . S
C162 C163 1.395 . S
C162 C164 1.320 . S
C163 C161 1.339 . S
C163 C162 1.395 . S
C163 H189 0.929 . S
C164 C162 1.320 . S
C164 C165 1.405 . S
C164 H190 0.930 . S
C165 C160 1.479 . S
C165 C164 1.405 . S
C165 H191 0.931 . S
U166 O167 2.454 . S
U166 O168 2.458 . S
U166 C169 2.984 . S
U166 C170 2.847 . S
U166 C183 2.882 . S
U166 O184 2.441 . S
U166 O185 2.420 . S
U166 O186 2.455 . S
U166 O187 2.449 . S
O167 U166 2.454 . S
O167 C169 1.353 . S
O168 U166 2.458 . S
O168 C169 1.286 . S
C169 U166 2.984 . S
C169 O167 1.353 . S
C169 O168 1.286 . S
C169 C171 1.363 . S
C170 C160 1.465 . S
C170 U166 2.847 . S
C170 O184 1.249 . S
C170 O185 1.202 . S
C171 C169 1.363 . S
C171 C173 1.408 . S
C171 C176 1.342 . S
C172 C173 1.310 . S
C172 C175 1.461 . S
C172 H192 0.932 . S
C173 C171 1.408 . S
C173 C172 1.310 . S
C173 H193 0.930 . S
C174 C175 1.474 . S
C174 C176 1.285 . S
C174 H194 0.929 . S
C175 C172 1.461 . S
C175 C174 1.474 . S
C176 C171 1.342 . S
C176 C174 1.285 . S
C176 H195 0.930 . S
C177 C180 1.424 . S
C177 C182 1.245 . S
C177 C183 1.428 . S
C178 C181 1.260 . S
C178 C182 1.477 . S
C178 H196 0.932 . S
C179 C180 1.384 . S
C179 C181 1.479 . S
C179 H197 0.929 . S
C180 C177 1.424 . S
C180 C179 1.384 . S
C180 H198 0.928 . S
C181 C178 1.260 . S
C181 C179 1.479 . S
C182 C177 1.245 . S
C182 C178 1.477 . S
C182 H199 0.932 . S
C183 U166 2.882 . S
C183 C177 1.428 . S
C183 O186 1.301 . S
C183 O187 1.282 . S
O184 U166 2.441 . S
O184 C170 1.249 . S
O185 U166 2.420 . S
O185 C170 1.202 . S
O186 U166 2.455 . S
O186 C183 1.301 . S
O187 U166 2.449 . S
O187 C183 1.282 . S
H188 C161 0.931 . S
H189 C163 0.929 . S
H190 C164 0.930 . S
H191 C165 0.931 . S
H192 C172 0.932 . S
H193 C173 0.930 . S
H194 C174 0.929 . S
H195 C176 0.930 . S
H196 C178 0.932 . S
H197 C179 0.929 . S
H198 C180 0.928 . S
H199 C182 0.932 . S
C200 C201 1.264 . S
C200 C205 1.479 . S
C200 C210 1.465 . S
C201 C200 1.264 . S
C201 C203 1.339 . S
C201 H228 0.931 . S
C202 C203 1.395 . S
C202 C204 1.320 . S
C203 C201 1.339 . S
C203 C202 1.395 . S
C203 H229 0.929 . S
C204 C202 1.320 . S
C204 C205 1.405 . S
C204 H230 0.930 . S
C205 C200 1.479 . S
C205 C204 1.405 . S
C205 H231 0.931 . S
U206 O207 2.454 . S
U206 O208 2.458 . S
U206 C209 2.984 . S
U206 C210 2.847 . S
U206 C223 2.882 . S
U206 O224 2.441 . S
U206 O225 2.420 . S
U206 O226 2.455 . S
U206 O227 2.449 . S
O207 U206 2.454 . S
O207 C209 1.353 . S
O208 U206 2.458 . S
O208 C209 1.286 . S
C209 U206 2.984 . S
C209 O207 1.353 . S
C209 O208 1.286 . S
C209 C211 1.363 . S
C210 C200 1.465 . S
C210 U206 2.847 . S
C210 O224 1.249 . S
C210 O225 1.202 . S
C211 C209 1.363 . S
C211 C213 1.408 . S
C211 C216 1.342 . S
C212 C213 1.310 . S
C212 C215 1.461 . S
C212 H232 0.932 . S
C213 C211 1.408 . S
C213 C212 1.310 . S
C213 H233 0.930 . S
C214 C215 1.474 . S
C214 C216 1.285 . S
C214 H234 0.929 . S
C215 C212 1.461 . S
C215 C214 1.474 . S
C216 C211 1.342 . S
C216 C214 1.285 . S
C216 H235 0.930 . S
C217 C220 1.424 . S
C217 C222 1.245 . S
C217 C223 1.428 . S
C218 C221 1.260 . S
C218 C222 1.477 . S
C218 H236 0.932 . S
C219 C220 1.384 . S
C219 C221 1.479 . S
C219 H237 0.929 . S
C220 C217 1.424 . S
C220 C219 1.384 . S
C220 H238 0.928 . S
C221 C218 1.260 . S
C221 C219 1.479 . S
C222 C217 1.245 . S
C222 C218 1.477 . S
C222 H239 0.932 . S
C223 U206 2.882 . S
C223 C217 1.428 . S
C223 O226 1.301 . S
C223 O227 1.282 . S
O224 U206 2.441 . S
O224 C210 1.249 . S
O225 U206 2.420 . S
O225 C210 1.202 . S
O226 U206 2.455 . S
O226 C223 1.301 . S
O227 U206 2.449 . S
O227 C223 1.282 . S
H228 C201 0.931 . S
H229 C203 0.929 . S
H230 C204 0.930 . S
H231 C205 0.931 . S
H232 C212 0.932 . S
H233 C213 0.930 . S
H234 C214 0.929 . S
H235 C216 0.930 . S
H236 C218 0.932 . S
H237 C219 0.929 . S
H238 C220 0.928 . S
H239 C222 0.932 . S
C240 C241 1.264 . S
C240 C245 1.479 . S
C240 C250 1.465 . S
C241 C240 1.264 . S
C241 C243 1.339 . S
C241 H268 0.931 . S
C242 C243 1.395 . S
C242 C244 1.320 . S
C243 C241 1.339 . S
C243 C242 1.395 . S
C243 H269 0.929 . S
C244 C242 1.320 . S
C244 C245 1.405 . S
C244 H270 0.930 . S
C245 C240 1.479 . S
C245 C244 1.405 . S
C245 H271 0.931 . S
U246 O247 2.454 . S
U246 O248 2.458 . S
U246 C249 2.984 . S
U246 C250 2.847 . S
U246 C263 2.882 . S
U246 O264 2.441 . S
U246 O265 2.420 . S
U246 O266 2.455 . S
U246 O267 2.449 . S
O247 U246 2.454 . S
O247 C249 1.353 . S
O248 U246 2.458 . S
O248 C249 1.286 . S
C249 U246 2.984 . S
C249 O247 1.353 . S
C249 O248 1.286 . S
C249 C251 1.363 . S
C250 C240 1.465 . S
C250 U246 2.847 . S
C250 O264 1.249 . S
C250 O265 1.202 . S
C251 C249 1.363 . S
C251 C253 1.408 . S
C251 C256 1.342 . S
C252 C253 1.310 . S
C252 C255 1.461 . S
C252 H272 0.932 . S
C253 C251 1.408 . S
C253 C252 1.310 . S
C253 H273 0.930 . S
C254 C255 1.474 . S
C254 C256 1.285 . S
C254 H274 0.929 . S
C255 C252 1.461 . S
C255 C254 1.474 . S
C256 C251 1.342 . S
C256 C254 1.285 . S
C256 H275 0.930 . S
C257 C260 1.424 . S
C257 C262 1.245 . S
C257 C263 1.428 . S
C258 C261 1.260 . S
C258 C262 1.477 . S
C258 H276 0.932 . S
C259 C260 1.384 . S
C259 C261 1.479 . S
C259 H277 0.929 . S
C260 C257 1.424 . S
C260 C259 1.384 . S
C260 H278 0.928 . S
C261 C258 1.260 . S
C261 C259 1.479 . S
C262 C257 1.245 . S
C262 C258 1.477 . S
C262 H279 0.932 . S
C263 U246 2.882 . S
C263 C257 1.428 . S
C263 O266 1.301 . S
C263 O267 1.282 . S
O264 U246 2.441 . S
O264 C250 1.249 . S
O265 U246 2.420 . S
O265 C250 1.202 . S
O266 U246 2.455 . S
O266 C263 1.301 . S
O267 U246 2.449 . S
O267 C263 1.282 . S
H268 C241 0.931 . S
H269 C243 0.929 . S
H270 C244 0.930 . S
H271 C245 0.931 . S
H272 C252 0.932 . S
H273 C253 0.930 . S
H274 C254 0.929 . S
H275 C256 0.930 . S
H276 C258 0.932 . S
H277 C259 0.929 . S
H278 C260 0.928 . S
H279 C262 0.932 . S
C280 C281 1.264 . S
C280 C285 1.479 . S
C280 C290 1.465 . S
C281 C280 1.264 . S
C281 C283 1.339 . S
C281 H308 0.931 . S
C282 C283 1.395 . S
C282 C284 1.320 . S
C283 C281 1.339 . S
C283 C282 1.395 . S
C283 H309 0.929 . S
C284 C282 1.320 . S
C284 C285 1.405 . S
C284 H310 0.930 . S
C285 C280 1.479 . S
C285 C284 1.405 . S
C285 H311 0.931 . S
U286 O287 2.454 . S
U286 O288 2.458 . S
U286 C289 2.984 . S
U286 C290 2.847 . S
U286 C303 2.882 . S
U286 O304 2.441 . S
U286 O305 2.420 . S
U286 O306 2.455 . S
U286 O307 2.449 . S
O287 U286 2.454 . S
O287 C289 1.353 . S
O288 U286 2.458 . S
O288 C289 1.286 . S
C289 U286 2.984 . S
C289 O287 1.353 . S
C289 O288 1.286 . S
C289 C291 1.363 . S
C290 C280 1.465 . S
C290 U286 2.847 . S
C290 O304 1.249 . S
C290 O305 1.202 . S
C291 C289 1.363 . S
C291 C293 1.408 . S
C291 C296 1.342 . S
C292 C293 1.310 . S
C292 C295 1.461 . S
C292 H312 0.932 . S
C293 C291 1.408 . S
C293 C292 1.310 . S
C293 H313 0.930 . S
C294 C295 1.474 . S
C294 C296 1.285 . S
C294 H314 0.929 . S
C295 C292 1.461 . S
C295 C294 1.474 . S
C296 C291 1.342 . S
C296 C294 1.285 . S
C296 H315 0.930 . S
C297 C300 1.424 . S
C297 C302 1.245 . S
C297 C303 1.428 . S
C298 C301 1.260 . S
C298 C302 1.477 . S
C298 H316 0.932 . S
C299 C300 1.384 . S
C299 C301 1.479 . S
C299 H317 0.929 . S
C300 C297 1.424 . S
C300 C299 1.384 . S
C300 H318 0.928 . S
C301 C298 1.260 . S
C301 C299 1.479 . S
C302 C297 1.245 . S
C302 C298 1.477 . S
C302 H319 0.932 . S
C303 U286 2.882 . S
C303 C297 1.428 . S
C303 O306 1.301 . S
C303 O307 1.282 . S
O304 U286 2.441 . S
O304 C290 1.249 . S
O305 U286 2.420 . S
O305 C290 1.202 . S
O306 U286 2.455 . S
O306 C303 1.301 . S
O307 U286 2.449 . S
O307 C303 1.282 . S
H308 C281 0.931 . S
H309 C283 0.929 . S
H310 C284 0.930 . S
H311 C285 0.931 . S
H312 C292 0.932 . S
H313 C293 0.930 . S
H314 C294 0.929 . S
H315 C296 0.930 . S
H316 C298 0.932 . S
H317 C299 0.929 . S
H318 C300 0.928 . S
H319 C302 0.932 . S
C320 C321 1.264 . S
C320 C325 1.479 . S
C320 C330 1.465 . S
C321 C320 1.264 . S
C321 C323 1.339 . S
C321 H348 0.931 . S
C322 C323 1.395 . S
C322 C324 1.320 . S
C323 C321 1.339 . S
C323 C322 1.395 . S
C323 H349 0.929 . S
C324 C322 1.320 . S
C324 C325 1.405 . S
C324 H350 0.930 . S
C325 C320 1.479 . S
C325 C324 1.405 . S
C325 H351 0.931 . S
U326 O327 2.454 . S
U326 O328 2.458 . S
U326 C329 2.984 . S
U326 C330 2.847 . S
U326 C343 2.882 . S
U326 O344 2.441 . S
U326 O345 2.420 . S
U326 O346 2.455 . S
U326 O347 2.449 . S
O327 U326 2.454 . S
O327 C329 1.353 . S
O328 U326 2.458 . S
O328 C329 1.286 . S
C329 U326 2.984 . S
C329 O327 1.353 . S
C329 O328 1.286 . S
C329 C331 1.363 . S
C330 C320 1.465 . S
C330 U326 2.847 . S
C330 O344 1.249 . S
C330 O345 1.202 . S
C331 C329 1.363 . S
C331 C333 1.408 . S
C331 C336 1.342 . S
C332 C333 1.310 . S
C332 C335 1.461 . S
C332 H352 0.932 . S
C333 C331 1.408 . S
C333 C332 1.310 . S
C333 H353 0.930 . S
C334 C335 1.474 . S
C334 C336 1.285 . S
C334 H354 0.929 . S
C335 C332 1.461 . S
C335 C334 1.474 . S
C336 C331 1.342 . S
C336 C334 1.285 . S
C336 H355 0.930 . S
C337 C340 1.424 . S
C337 C342 1.245 . S
C337 C343 1.428 . S
C338 C341 1.260 . S
C338 C342 1.477 . S
C338 H356 0.932 . S
C339 C340 1.384 . S
C339 C341 1.479 . S
C339 H357 0.929 . S
C340 C337 1.424 . S
C340 C339 1.384 . S
C340 H358 0.928 . S
C341 C338 1.260 . S
C341 C339 1.479 . S
C342 C337 1.245 . S
C342 C338 1.477 . S
C342 H359 0.932 . S
C343 U326 2.882 . S
C343 C337 1.428 . S
C343 O346 1.301 . S
C343 O347 1.282 . S
O344 U326 2.441 . S
O344 C330 1.249 . S
O345 U326 2.420 . S
O345 C330 1.202 . S
O346 U326 2.455 . S
O346 C343 1.301 . S
O347 U326 2.449 . S
O347 C343 1.282 . S
H348 C321 0.931 . S
H349 C323 0.929 . S
H350 C324 0.930 . S
H351 C325 0.931 . S
H352 C332 0.932 . S
H353 C333 0.930 . S
H354 C334 0.929 . S
H355 C336 0.930 . S
H356 C338 0.932 . S
H357 C339 0.929 . S
H358 C340 0.928 . S
H359 C342 0.932 . S
C360 C361 1.264 . S
C360 C365 1.479 . S
C360 C370 1.465 . S
C361 C360 1.264 . S
C361 C363 1.339 . S
C361 H388 0.931 . S
C362 C363 1.395 . S
C362 C364 1.320 . S
C363 C361 1.339 . S
C363 C362 1.395 . S
C363 H389 0.929 . S
C364 C362 1.320 . S
C364 C365 1.405 . S
C364 H390 0.930 . S
C365 C360 1.479 . S
C365 C364 1.405 . S
C365 H391 0.931 . S
U366 O367 2.454 . S
U366 O368 2.458 . S
U366 C369 2.984 . S
U366 C370 2.847 . S
U366 C383 2.882 . S
U366 O384 2.441 . S
U366 O385 2.420 . S
U366 O386 2.455 . S
U366 O387 2.449 . S
O367 U366 2.454 . S
O367 C369 1.353 . S
O368 U366 2.458 . S
O368 C369 1.286 . S
C369 U366 2.984 . S
C369 O367 1.353 . S
C369 O368 1.286 . S
C369 C371 1.363 . S
C370 C360 1.465 . S
C370 U366 2.847 . S
C370 O384 1.249 . S
C370 O385 1.202 . S
C371 C369 1.363 . S
C371 C373 1.408 . S
C371 C376 1.342 . S
C372 C373 1.310 . S
C372 C375 1.461 . S
C372 H392 0.932 . S
C373 C371 1.408 . S
C373 C372 1.310 . S
C373 H393 0.930 . S
C374 C375 1.474 . S
C374 C376 1.285 . S
C374 H394 0.929 . S
C375 C372 1.461 . S
C375 C374 1.474 . S
C376 C371 1.342 . S
C376 C374 1.285 . S
C376 H395 0.930 . S
C377 C380 1.424 . S
C377 C382 1.245 . S
C377 C383 1.428 . S
C378 C381 1.260 . S
C378 C382 1.477 . S
C378 H396 0.932 . S
C379 C380 1.384 . S
C379 C381 1.479 . S
C379 H397 0.929 . S
C380 C377 1.424 . S
C380 C379 1.384 . S
C380 H398 0.928 . S
C381 C378 1.260 . S
C381 C379 1.479 . S
C382 C377 1.245 . S
C382 C378 1.477 . S
C382 H399 0.932 . S
C383 U366 2.882 . S
C383 C377 1.428 . S
C383 O386 1.301 . S
C383 O387 1.282 . S
O384 U366 2.441 . S
O384 C370 1.249 . S
O385 U366 2.420 . S
O385 C370 1.202 . S
O386 U366 2.455 . S
O386 C383 1.301 . S
O387 U366 2.449 . S
O387 C383 1.282 . S
H388 C361 0.931 . S
H389 C363 0.929 . S
H390 C364 0.930 . S
H391 C365 0.931 . S
H392 C372 0.932 . S
H393 C373 0.930 . S
H394 C374 0.929 . S
H395 C376 0.930 . S
H396 C378 0.932 . S
H397 C379 0.929 . S
H398 C380 0.928 . S
H399 C382 0.932 . S
C400 C401 1.264 . S
C400 C405 1.479 . S
C400 C410 1.465 . S
C401 C400 1.264 . S
C401 C403 1.339 . S
C401 H428 0.931 . S
C402 C403 1.395 . S
C402 C404 1.320 . S
C403 C401 1.339 . S
C403 C402 1.395 . S
C403 H429 0.929 . S
C404 C402 1.320 . S
C404 C405 1.405 . S
C404 H430 0.930 . S
C405 C400 1.479 . S
C405 C404 1.405 . S
C405 H431 0.931 . S
U406 O407 2.454 . S
U406 O408 2.458 . S
U406 C409 2.984 . S
U406 C410 2.847 . S
U406 C423 2.882 . S
U406 O424 2.441 . S
U406 O425 2.420 . S
U406 O426 2.455 . S
U406 O427 2.449 . S
O407 U406 2.454 . S
O407 C409 1.353 . S
O408 U406 2.458 . S
O408 C409 1.286 . S
C409 U406 2.984 . S
C409 O407 1.353 . S
C409 O408 1.286 . S
C409 C411 1.363 . S
C410 C400 1.465 . S
C410 U406 2.847 . S
C410 O424 1.249 . S
C410 O425 1.202 . S
C411 C409 1.363 . S
C411 C413 1.408 . S
C411 C416 1.342 . S
C412 C413 1.310 . S
C412 C415 1.461 . S
C412 H432 0.932 . S
C413 C411 1.408 . S
C413 C412 1.310 . S
C413 H433 0.930 . S
C414 C415 1.474 . S
C414 C416 1.285 . S
C414 H434 0.929 . S
C415 C412 1.461 . S
C415 C414 1.474 . S
C416 C411 1.342 . S
C416 C414 1.285 . S
C416 H435 0.930 . S
C417 C420 1.424 . S
C417 C422 1.245 . S
C417 C423 1.428 . S
C418 C421 1.260 . S
C418 C422 1.477 . S
C418 H436 0.932 . S
C419 C420 1.384 . S
C419 C421 1.479 . S
C419 H437 0.929 . S
C420 C417 1.424 . S
C420 C419 1.384 . S
C420 H438 0.928 . S
C421 C418 1.260 . S
C421 C419 1.479 . S
C422 C417 1.245 . S
C422 C418 1.477 . S
C422 H439 0.932 . S
C423 U406 2.882 . S
C423 C417 1.428 . S
C423 O426 1.301 . S
C423 O427 1.282 . S
O424 U406 2.441 . S
O424 C410 1.249 . S
O425 U406 2.420 . S
O425 C410 1.202 . S
O426 U406 2.455 . S
O426 C423 1.301 . S
O427 U406 2.449 . S
O427 C423 1.282 . S
H428 C401 0.931 . S
H429 C403 0.929 . S
H430 C404 0.930 . S
H431 C405 0.931 . S
H432 C412 0.932 . S
H433 C413 0.930 . S
H434 C414 0.929 . S
H435 C416 0.930 . S
H436 C418 0.932 . S
H437 C419 0.929 . S
H438 C420 0.928 . S
H439 C422 0.932 . S
C440 C441 1.264 . S
C440 C445 1.479 . S
C440 C450 1.465 . S
C441 C440 1.264 . S
C441 C443 1.339 . S
C441 H468 0.931 . S
C442 C443 1.395 . S
C442 C444 1.320 . S
C443 C441 1.339 . S
C443 C442 1.395 . S
C443 H469 0.929 . S
C444 C442 1.320 . S
C444 C445 1.405 . S
C444 H470 0.930 . S
C445 C440 1.479 . S
C445 C444 1.405 . S
C445 H471 0.931 . S
U446 O447 2.454 . S
U446 O448 2.458 . S
U446 C449 2.984 . S
U446 C450 2.847 . S
U446 C463 2.882 . S
U446 O464 2.441 . S
U446 O465 2.420 . S
U446 O466 2.455 . S
U446 O467 2.449 . S
O447 U446 2.454 . S
O447 C449 1.353 . S
O448 U446 2.458 . S
O448 C449 1.286 . S
C449 U446 2.984 . S
C449 O447 1.353 . S
C449 O448 1.286 . S
C449 C451 1.363 . S
C450 C440 1.465 . S
C450 U446 2.847 . S
C450 O464 1.249 . S
C450 O465 1.202 . S
C451 C449 1.363 . S
C451 C453 1.408 . S
C451 C456 1.342 . S
C452 C453 1.310 . S
C452 C455 1.461 . S
C452 H472 0.932 . S
C453 C451 1.408 . S
C453 C452 1.310 . S
C453 H473 0.930 . S
C454 C455 1.474 . S
C454 C456 1.285 . S
C454 H474 0.929 . S
C455 C452 1.461 . S
C455 C454 1.474 . S
C456 C451 1.342 . S
C456 C454 1.285 . S
C456 H475 0.930 . S
C457 C460 1.424 . S
C457 C462 1.245 . S
C457 C463 1.428 . S
C458 C461 1.260 . S
C458 C462 1.477 . S
C458 H476 0.932 . S
C459 C460 1.384 . S
C459 C461 1.479 . S
C459 H477 0.929 . S
C460 C457 1.424 . S
C460 C459 1.384 . S
C460 H478 0.928 . S
C461 C458 1.260 . S
C461 C459 1.479 . S
C462 C457 1.245 . S
C462 C458 1.477 . S
C462 H479 0.932 . S
C463 U446 2.882 . S
C463 C457 1.428 . S
C463 O466 1.301 . S
C463 O467 1.282 . S
O464 U446 2.441 . S
O464 C450 1.249 . S
O465 U446 2.420 . S
O465 C450 1.202 . S
O466 U446 2.455 . S
O466 C463 1.301 . S
O467 U446 2.449 . S
O467 C463 1.282 . S
H468 C441 0.931 . S
H469 C443 0.929 . S
H470 C444 0.930 . S
H471 C445 0.931 . S
H472 C452 0.932 . S
H473 C453 0.930 . S
H474 C454 0.929 . S
H475 C456 0.930 . S
H476 C458 0.932 . S
H477 C459 0.929 . S
H478 C460 0.928 . S
H479 C462 0.932 . S
C480 C481 1.387 . S
C480 H484 0.950 . S
C480 C489 1.390 . S
C481 C480 1.387 . S
C481 C483 1.387 . S
H482 C489 0.950 . S
C483 C481 1.387 . S
C483 C485 1.390 . S
C483 H487 0.950 . S
H484 C480 0.950 . S
C485 C483 1.390 . S
C485 C486 1.387 . S
C485 H488 0.950 . S
C486 C485 1.387 . S
C486 C489 1.387 . S
H487 C483 0.950 . S
H488 C485 0.950 . S
C489 C480 1.390 . S
C489 H482 0.950 . S
C489 C486 1.387 . S
C490 C491 1.387 . S
C490 H494 0.950 . S
C490 C499 1.390 . S
C491 C490 1.387 . S
C491 C493 1.387 . S
H492 C499 0.950 . S
C493 C491 1.387 . S
C493 C495 1.390 . S
C493 H497 0.950 . S
H494 C490 0.950 . S
C495 C493 1.390 . S
C495 C496 1.387 . S
C495 H498 0.950 . S
C496 C495 1.387 . S
C496 C499 1.387 . S
H497 C493 0.950 . S
H498 C495 0.950 . S
C499 C490 1.390 . S
C499 H492 0.950 . S
C499 C496 1.387 . S
C500 C501 1.387 . S
C500 H504 0.950 . S
C500 C509 1.390 . S
C501 C500 1.387 . S
C501 C503 1.387 . S
H502 C509 0.950 . S
C503 C501 1.387 . S
C503 C505 1.390 . S
C503 H507 0.950 . S
H504 C500 0.950 . S
C505 C503 1.390 . S
C505 C506 1.387 . S
C505 H508 0.950 . S
C506 C505 1.387 . S
C506 C509 1.387 . S
H507 C503 0.950 . S
H508 C505 0.950 . S
C509 C500 1.390 . S
C509 H502 0.950 . S
C509 C506 1.387 . S
C510 C511 1.387 . S
C510 H514 0.950 . S
C510 C519 1.390 . S
C511 C510 1.387 . S
C511 C513 1.387 . S
H512 C519 0.950 . S
C513 C511 1.387 . S
C513 C515 1.390 . S
C513 H517 0.950 . S
H514 C510 0.950 . S
C515 C513 1.390 . S
C515 C516 1.387 . S
C515 H518 0.950 . S
C516 C515 1.387 . S
C516 C519 1.387 . S
H517 C513 0.950 . S
H518 C515 0.950 . S
C519 C510 1.390 . S
C519 H512 0.950 . S
C519 C516 1.387 . S
C520 C521 1.387 . S
C520 H524 0.950 . S
C520 C529 1.390 . S
C521 C520 1.387 . S
C521 C523 1.387 . S
H522 C529 0.950 . S
C523 C521 1.387 . S
C523 C525 1.390 . S
C523 H527 0.950 . S
H524 C520 0.950 . S
C525 C523 1.390 . S
C525 C526 1.387 . S
C525 H528 0.950 . S
C526 C525 1.387 . S
C526 C529 1.387 . S
H527 C523 0.950 . S
H528 C525 0.950 . S
C529 C520 1.390 . S
C529 H522 0.950 . S
C529 C526 1.387 . S
C530 C531 1.387 . S
C530 H534 0.950 . S
C530 C539 1.390 . S
C531 C530 1.387 . S
C531 C533 1.387 . S
H532 C539 0.950 . S
C533 C531 1.387 . S
C533 C535 1.390 . S
C533 H537 0.950 . S
H534 C530 0.950 . S
C535 C533 1.390 . S
C535 C536 1.387 . S
C535 H538 0.950 . S
C536 C535 1.387 . S
C536 C539 1.387 . S
H537 C533 0.950 . S
H538 C535 0.950 . S
C539 C530 1.390 . S
C539 H532 0.950 . S
C539 C536 1.387 . S
C540 C541 1.387 . S
C540 H544 0.950 . S
C540 C549 1.390 1_565 S
C541 C540 1.387 . S
C541 C543 1.387 . S
H542 C549 0.950 . S
C543 C541 1.387 . S
C543 C545 1.390 1_565 S
C543 H547 0.950 . S
H544 C540 0.950 . S
C545 C543 1.390 1_545 S
C545 C546 1.387 . S
C545 H548 0.950 . S
C546 C545 1.387 . S
C546 C549 1.387 . S
H547 C543 0.950 . S
H548 C545 0.950 . S
C549 C540 1.390 1_545 S
C549 H542 0.950 . S
C549 C546 1.387 . S
C550 C551 1.387 . S
C550 H554 0.950 . S
C550 C559 1.390 . S
C551 C550 1.387 . S
C551 C553 1.387 . S
H552 C559 0.950 . S
C553 C551 1.387 . S
C553 C555 1.390 . S
C553 H557 0.950 . S
H554 C550 0.950 . S
C555 C553 1.390 . S
C555 C556 1.387 . S
C555 H558 0.950 . S
C556 C555 1.387 . S
C556 C559 1.387 . S
H557 C553 0.950 . S
H558 C555 0.950 . S
C559 C550 1.390 . S
C559 H552 0.950 . S
C559 C556 1.387 . S
C560 C561 1.387 . S
C560 H564 0.950 . S
C560 C569 1.390 1_655 S
C561 C560 1.387 . S
C561 C563 1.387 . S
H562 C569 0.950 . S
C563 C561 1.387 . S
C563 C565 1.390 1_655 S
C563 H567 0.950 . S
H564 C560 0.950 . S
C565 C563 1.390 1_455 S
C565 C566 1.387 . S
C565 H568 0.950 . S
C566 C565 1.387 . S
C566 C569 1.387 . S
H567 C563 0.950 . S
H568 C565 0.950 . S
C569 C560 1.390 1_455 S
C569 H562 0.950 . S
C569 C566 1.387 . S
C570 C571 1.387 . S
C570 H574 0.950 . S
C570 C579 1.390 1_455 S
C571 C570 1.387 . S
C571 C573 1.387 . S
H572 C579 0.950 . S
C573 C571 1.387 . S
C573 C575 1.390 1_455 S
C573 H577 0.950 . S
H574 C570 0.950 . S
C575 C573 1.390 1_655 S
C575 C576 1.387 . S
C575 H578 0.950 . S
C576 C575 1.387 . S
C576 C579 1.387 . S
H577 C573 0.950 . S
H578 C575 0.950 . S
C579 C570 1.390 1_655 S
C579 H572 0.950 . S
C579 C576 1.387 . S
C580 C581 1.387 . S
C580 H584 0.950 . S
C580 C589 1.390 1_565 S
C581 C580 1.387 . S
C581 C583 1.387 . S
H582 C589 0.950 . S
C583 C581 1.387 . S
C583 C585 1.390 1_565 S
C583 H587 0.950 . S
H584 C580 0.950 . S
C585 C583 1.390 1_545 S
C585 C586 1.387 . S
C585 H588 0.950 . S
C586 C585 1.387 . S
C586 C589 1.387 . S
H587 C583 0.950 . S
H588 C585 0.950 . S
C589 C580 1.390 1_545 S
C589 H582 0.950 . S
C589 C586 1.387 . S
C590 C591 1.387 . S
C590 H594 0.950 . S
C590 C599 1.390 . S
C591 C590 1.387 . S
C591 C593 1.387 . S
H592 C599 0.950 . S
C593 C591 1.387 . S
C593 C595 1.390 . S
C593 H597 0.950 . S
H594 C590 0.950 . S
C595 C593 1.390 . S
C595 C596 1.387 . S
C595 H598 0.950 . S
C596 C595 1.387 . S
C596 C599 1.387 . S
H597 C593 0.950 . S
H598 C595 0.950 . S
C599 C590 1.390 . S
C599 H592 0.950 . S
C599 C596 1.387 . S
C600 C601 1.387 . S
C600 H604 0.950 . S
C600 C609 1.390 1_556 S
C601 C600 1.387 . S
C601 C603 1.387 . S
H602 C609 0.950 . S
C603 C601 1.387 . S
C603 C605 1.390 1_556 S
C603 H607 0.950 . S
H604 C600 0.950 . S
C605 C603 1.390 1_554 S
C605 C606 1.387 . S
C605 H608 0.950 . S
C606 C605 1.387 . S
C606 C609 1.387 . S
H607 C603 0.950 . S
H608 C605 0.950 . S
C609 C600 1.390 1_554 S
C609 H602 0.950 . S
C609 C606 1.387 . S
C610 C611 1.387 . S
C610 H614 0.950 . S
C610 C619 1.390 . S
C611 C610 1.387 . S
C611 C613 1.387 . S
H612 C619 0.950 . S
C613 C611 1.387 . S
C613 C615 1.390 . S
C613 H617 0.950 . S
H614 C610 0.950 . S
C615 C613 1.390 . S
C615 C616 1.387 . S
C615 H618 0.950 . S
C616 C615 1.387 . S
C616 C619 1.387 . S
H617 C613 0.950 . S
H618 C615 0.950 . S
C619 C610 1.390 . S
C619 H612 0.950 . S
C619 C616 1.387 . S
C620 C621 1.387 . S
C620 H624 0.950 . S
C620 C629 1.390 . S
C621 C620 1.387 . S
C621 C623 1.387 . S
H622 C629 0.950 . S
C623 C621 1.387 . S
C623 C625 1.390 . S
C623 H627 0.950 . S
H624 C620 0.950 . S
C625 C623 1.390 . S
C625 C626 1.387 . S
C625 H628 0.950 . S
C626 C625 1.387 . S
C626 C629 1.387 . S
H627 C623 0.950 . S
H628 C625 0.950 . S
C629 C620 1.390 . S
C629 H622 0.950 . S
C629 C626 1.387 . S
C630 C631 1.387 . S
C630 H634 0.950 . S
C630 C639 1.390 1_554 S
C631 C630 1.387 . S
C631 C633 1.387 . S
H632 C639 0.950 . S
C633 C631 1.387 . S
C633 C635 1.390 1_554 S
C633 H637 0.950 . S
H634 C630 0.950 . S
C635 C633 1.390 1_556 S
C635 C636 1.387 . S
C635 H638 0.950 . S
C636 C635 1.387 . S
C636 C639 1.387 . S
H637 C633 0.950 . S
H638 C635 0.950 . S
C639 C630 1.390 1_556 S
C639 H632 0.950 . S
C639 C636 1.387 . S
C640 C641 1.387 . S
C640 H644 0.950 . S
C640 C649 1.390 . S
C641 C640 1.387 . S
C641 C643 1.387 . S
H642 C649 0.950 . S
C643 C641 1.387 . S
C643 C645 1.390 . S
C643 H647 0.950 . S
H644 C640 0.950 . S
C645 C643 1.390 . S
C645 C646 1.387 . S
C645 H648 0.950 . S
C646 C645 1.387 . S
C646 C649 1.387 . S
H647 C643 0.950 . S
H648 C645 0.950 . S
C649 C640 1.390 . S
C649 H642 0.950 . S
C649 C646 1.387 . S
C650 C651 1.387 . S
C650 H654 0.950 . S
C650 C659 1.390 . S
C651 C650 1.387 . S
C651 C653 1.387 . S
H652 C659 0.950 . S
C653 C651 1.387 . S
C653 C655 1.390 . S
C653 H657 0.950 . S
H654 C650 0.950 . S
C655 C653 1.390 . S
C655 C656 1.387 . S
C655 H658 0.950 . S
C656 C655 1.387 . S
C656 C659 1.387 . S
H657 C653 0.950 . S
H658 C655 0.950 . S
C659 C650 1.390 . S
C659 H652 0.950 . S
C659 C656 1.387 . S
C481 C335 1.517 . S
C486 C15 1.516 . S
C491 C55 1.519 . S
C496 C375 1.519 . S
C501 C415 1.515 . S
C506 C95 1.516 . S
C511 C455 1.515 . S
C516 C135 1.515 . S
C521 C255 1.516 . S
C526 C175 1.516 . S
C531 C215 1.516 . S
C536 C295 1.517 . S
C541 C122 1.854 . S
C546 C2 1.854 . S
C551 C162 1.855 . S
C556 C42 1.855 . S
C561 C82 1.854 . S
C566 C202 1.854 . S
C571 C362 1.854 . S
C576 C242 1.854 . S
C581 C282 1.858 . S
C586 C402 1.858 . S
C591 C442 1.853 . S
C596 C322 1.853 . S
C601 C421 1.873 . S
C606 C21 1.873 . S
C611 C461 1.877 . S
C616 C61 1.876 . S
C621 C101 1.876 . S
C626 C261 1.876 . S
C631 C141 1.873 . S
C636 C301 1.873 . S
C641 C181 1.874 . S
C646 C341 1.874 . S
C651 C221 1.876 . S
C656 C381 1.875 . S
