# Generated by pormake.
# Topology umk, (4)-cn, num edge types: 1
# Building blocks:
#     Node 0, Type 0, BuildingBlock: CEKHIL_clean_sbu_0, # of connection points: 4
#     Node 1, Type 0, BuildingBlock: CEKHIL_clean_sbu_0, # of connection points: 4
#     Node 2, Type 0, BuildingBlock: CEKHIL_clean_sbu_0, # of connection points: 4
#     Node 3, Type 0, BuildingBlock: CEKHIL_clean_sbu_0, # of connection points: 4
#     Node 4, Type 0, BuildingBlock: CEKHIL_clean_sbu_0, # of connection points: 4
#     Node 5, Type 0, BuildingBlock: CEKHIL_clean_sbu_0, # of connection points: 4
#     Node 6, Type 0, BuildingBlock: CEKHIL_clean_sbu_0, # of connection points: 4
#     Node 7, Type 0, BuildingBlock: CEKHIL_clean_sbu_0, # of connection points: 4
#     Node 8, Type 0, BuildingBlock: CEKHIL_clean_sbu_0, # of connection points: 4
#     Node 9, Type 0, BuildingBlock: CEKHIL_clean_sbu_0, # of connection points: 4
#     Node 10, Type 0, BuildingBlock: CEKHIL_clean_sbu_0, # of connection points: 4
#     Node 11, Type 0, BuildingBlock: CEKHIL_clean_sbu_0, # of connection points: 4
#     Node 12, Type 0, BuildingBlock: CEKHIL_clean_sbu_0, # of connection points: 4
#     Node 13, Type 0, BuildingBlock: CEKHIL_clean_sbu_0, # of connection points: 4
#     Node 14, Type 0, BuildingBlock: CEKHIL_clean_sbu_0, # of connection points: 4
#     Node 15, Type 0, BuildingBlock: CEKHIL_clean_sbu_0, # of connection points: 4
#     Node 16, Type 0, BuildingBlock: CEKHIL_clean_sbu_0, # of connection points: 4
#     Node 17, Type 0, BuildingBlock: CEKHIL_clean_sbu_0, # of connection points: 4
#     Node 18, Type 0, BuildingBlock: CEKHIL_clean_sbu_0, # of connection points: 4
#     Node 19, Type 0, BuildingBlock: CEKHIL_clean_sbu_0, # of connection points: 4
#     Node 20, Type 0, BuildingBlock: CEKHIL_clean_sbu_0, # of connection points: 4
#     Node 21, Type 0, BuildingBlock: CEKHIL_clean_sbu_0, # of connection points: 4
#     Node 22, Type 0, BuildingBlock: CEKHIL_clean_sbu_0, # of connection points: 4
#     Node 23, Type 0, BuildingBlock: CEKHIL_clean_sbu_0, # of connection points: 4
#     Edge 24, Type (0, 0), BuildingBlock: EZIPEK_clean_linker_0, # of connection points: 2
#     Edge 25, Type (0, 0), BuildingBlock: EZIPEK_clean_linker_0, # of connection points: 2
#     Edge 26, Type (0, 0), BuildingBlock: EZIPEK_clean_linker_0, # of connection points: 2
#     Edge 27, Type (0, 0), BuildingBlock: EZIPEK_clean_linker_0, # of connection points: 2
#     Edge 28, Type (0, 0), BuildingBlock: EZIPEK_clean_linker_0, # of connection points: 2
#     Edge 29, Type (0, 0), BuildingBlock: EZIPEK_clean_linker_0, # of connection points: 2
#     Edge 30, Type (0, 0), BuildingBlock: EZIPEK_clean_linker_0, # of connection points: 2
#     Edge 31, Type (0, 0), BuildingBlock: EZIPEK_clean_linker_0, # of connection points: 2
#     Edge 32, Type (0, 0), BuildingBlock: EZIPEK_clean_linker_0, # of connection points: 2
#     Edge 33, Type (0, 0), BuildingBlock: EZIPEK_clean_linker_0, # of connection points: 2
#     Edge 34, Type (0, 0), BuildingBlock: EZIPEK_clean_linker_0, # of connection points: 2
#     Edge 35, Type (0, 0), BuildingBlock: EZIPEK_clean_linker_0, # of connection points: 2
#     Edge 36, Type (0, 0), BuildingBlock: EZIPEK_clean_linker_0, # of connection points: 2
#     Edge 37, Type (0, 0), BuildingBlock: EZIPEK_clean_linker_0, # of connection points: 2
#     Edge 38, Type (0, 0), BuildingBlock: EZIPEK_clean_linker_0, # of connection points: 2
#     Edge 39, Type (0, 0), BuildingBlock: EZIPEK_clean_linker_0, # of connection points: 2
#     Edge 40, Type (0, 0), BuildingBlock: EZIPEK_clean_linker_0, # of connection points: 2
#     Edge 41, Type (0, 0), BuildingBlock: EZIPEK_clean_linker_0, # of connection points: 2
#     Edge 42, Type (0, 0), BuildingBlock: EZIPEK_clean_linker_0, # of connection points: 2
#     Edge 43, Type (0, 0), BuildingBlock: EZIPEK_clean_linker_0, # of connection points: 2
#     Edge 44, Type (0, 0), BuildingBlock: EZIPEK_clean_linker_0, # of connection points: 2
#     Edge 45, Type (0, 0), BuildingBlock: EZIPEK_clean_linker_0, # of connection points: 2
#     Edge 46, Type (0, 0), BuildingBlock: EZIPEK_clean_linker_0, # of connection points: 2
#     Edge 47, Type (0, 0), BuildingBlock: EZIPEK_clean_linker_0, # of connection points: 2
#     Edge 48, Type (0, 0), BuildingBlock: EZIPEK_clean_linker_0, # of connection points: 2
#     Edge 49, Type (0, 0), BuildingBlock: EZIPEK_clean_linker_0, # of connection points: 2
#     Edge 50, Type (0, 0), BuildingBlock: EZIPEK_clean_linker_0, # of connection points: 2
#     Edge 51, Type (0, 0), BuildingBlock: EZIPEK_clean_linker_0, # of connection points: 2
#     Edge 52, Type (0, 0), BuildingBlock: EZIPEK_clean_linker_0, # of connection points: 2
#     Edge 53, Type (0, 0), BuildingBlock: EZIPEK_clean_linker_0, # of connection points: 2
#     Edge 54, Type (0, 0), BuildingBlock: EZIPEK_clean_linker_0, # of connection points: 2
#     Edge 55, Type (0, 0), BuildingBlock: EZIPEK_clean_linker_0, # of connection points: 2
#     Edge 56, Type (0, 0), BuildingBlock: EZIPEK_clean_linker_0, # of connection points: 2
#     Edge 57, Type (0, 0), BuildingBlock: EZIPEK_clean_linker_0, # of connection points: 2
#     Edge 58, Type (0, 0), BuildingBlock: EZIPEK_clean_linker_0, # of connection points: 2
#     Edge 59, Type (0, 0), BuildingBlock: EZIPEK_clean_linker_0, # of connection points: 2
#     Edge 60, Type (0, 0), BuildingBlock: EZIPEK_clean_linker_0, # of connection points: 2
#     Edge 61, Type (0, 0), BuildingBlock: EZIPEK_clean_linker_0, # of connection points: 2
#     Edge 62, Type (0, 0), BuildingBlock: EZIPEK_clean_linker_0, # of connection points: 2
#     Edge 63, Type (0, 0), BuildingBlock: EZIPEK_clean_linker_0, # of connection points: 2
#     Edge 64, Type (0, 0), BuildingBlock: EZIPEK_clean_linker_0, # of connection points: 2
#     Edge 65, Type (0, 0), BuildingBlock: EZIPEK_clean_linker_0, # of connection points: 2
#     Edge 66, Type (0, 0), BuildingBlock: EZIPEK_clean_linker_0, # of connection points: 2
#     Edge 67, Type (0, 0), BuildingBlock: EZIPEK_clean_linker_0, # of connection points: 2
#     Edge 68, Type (0, 0), BuildingBlock: EZIPEK_clean_linker_0, # of connection points: 2
#     Edge 69, Type (0, 0), BuildingBlock: EZIPEK_clean_linker_0, # of connection points: 2
#     Edge 70, Type (0, 0), BuildingBlock: EZIPEK_clean_linker_0, # of connection points: 2
#     Edge 71, Type (0, 0), BuildingBlock: EZIPEK_clean_linker_0, # of connection points: 2
# Relax obj value: 0.066
# Max RMSD: 0.048
# Mean RMSD: 0.048
data_MOF--net-umk--node1-CEKHIL_clean_sbu_0--edge1-EZIPEK_clean_linker_0
_symmetry_space_group_name_H-M    P1
_symmetry_Int_Tables_number       1
_symmetry_cell_setting            triclinic
loop_
_symmetry_equiv_pos_as_xyz
'x, y, z'
_cell_length_a     48.287898
_cell_length_b     48.363554
_cell_length_c     31.291723
_cell_angle_alpha  89.994202
_cell_angle_beta   89.987287
_cell_angle_gamma 119.98171
loop_
_atom_site_label
_atom_site_type_symbol
_atom_site_fract_x
_atom_site_fract_y
_atom_site_fract_z
_atom_type_partial_charge
Co0 Co 0.33438 0.47221 0.09185 0.0
O1 O 0.30706 0.49097 0.08778 0.0
O2 O 0.30675 0.4561 0.04202 0.0
C3 C 0.3259 0.46122 0.1627 0.0
O4 O 0.35719 0.44594 0.08516 0.0
Co5 Co 0.39419 0.49865 0.14905 0.0
O6 O 0.39291 0.45787 0.13797 0.0
C7 C 0.39883 0.52883 0.06474 0.0
C8 C 0.29476 0.47374 0.05377 0.0
C9 C 0.37724 0.44087 0.10622 0.0
O10 O 0.36898 0.50896 0.05762 0.0
O11 O 0.4129 0.52845 0.09923 0.0
O12 O 0.30551 0.44189 0.13473 0.0
O13 O 0.34959 0.48703 0.14754 0.0
Co14 Co 0.86788 0.32569 0.58924 0.0
O15 O 0.8225 0.29722 0.58052 0.0
O16 O 0.86021 0.29729 0.54076 0.0
C17 C 0.86633 0.31816 0.66093 0.0
O18 O 0.91745 0.35114 0.58926 0.0
Co19 Co 0.89215 0.38599 0.64648 0.0
O20 O 0.93426 0.38856 0.6409 0.0
C21 C 0.8702 0.38677 0.55851 0.0
C22 C 0.82981 0.28476 0.54891 0.0
C23 C 0.93992 0.37345 0.61203 0.0
O24 O 0.86676 0.35899 0.55094 0.0
O25 O 0.87786 0.40042 0.59507 0.0
O26 O 0.86792 0.29797 0.6351 0.0
O27 O 0.86345 0.34055 0.64291 0.0
Co28 Co 0.54205 0.86589 0.08518 0.0
O29 O 0.52356 0.82006 0.0794 0.0
O30 O 0.56095 0.85563 0.0371 0.0
C31 C 0.54917 0.86678 0.15704 0.0
O32 O 0.56844 0.9151 0.08145 0.0
Co33 Co 0.51005 0.89569 0.13934 0.0
O34 O 0.54945 0.93695 0.12822 0.0
C35 C 0.48378 0.86934 0.05438 0.0
C36 C 0.54249 0.82574 0.04707 0.0
C37 C 0.56991 0.9395 0.1005 0.0
O38 O 0.50745 0.8647 0.04698 0.0
O39 O 0.47927 0.87915 0.09025 0.0
O40 O 0.57005 0.86648 0.13111 0.0
O41 O 0.524 0.86447 0.13926 0.0
Co42 Co 0.68619 0.53976 0.59101 0.0
O43 O 0.71374 0.52134 0.58685 0.0
O44 O 0.7142 0.55637 0.54134 0.0
C45 C 0.6946 0.55006 0.66192 0.0
O46 O 0.66283 0.56569 0.585 0.0
Co47 Co 0.62633 0.51226 0.64841 0.0
O48 O 0.6273 0.55299 0.63834 0.0
C49 C 0.62223 0.48252 0.56391 0.0
C50 C 0.72626 0.53879 0.55311 0.0
C51 C 0.64268 0.57032 0.60665 0.0
O52 O 0.65188 0.50302 0.55649 0.0
O53 O 0.60814 0.48236 0.59866 0.0
O54 O 0.7148 0.56989 0.63416 0.0
O55 O 0.67102 0.52434 0.64641 0.0
Co56 Co 0.14907 0.68078 0.08967 0.0
O57 O 0.19467 0.70581 0.07924 0.0
O58 O 0.15806 0.70845 0.04013 0.0
C59 C 0.15261 0.69074 0.161 0.0
O60 O 0.09975 0.65964 0.09198 0.0
Co61 Co 0.12159 0.62148 0.14958 0.0
O62 O 0.08063 0.62103 0.14223 0.0
C63 C 0.14296 0.61725 0.06289 0.0
C64 C 0.18825 0.71919 0.04785 0.0
C65 C 0.07646 0.6377 0.11416 0.0
O66 O 0.14615 0.64465 0.05318 0.0
O67 O 0.13593 0.60512 0.10038 0.0
O68 O 0.15314 0.71129 0.13387 0.0
O69 O 0.15251 0.66637 0.14401 0.0
Co70 Co 0.47294 0.14441 0.58898 0.0
O71 O 0.49371 0.19027 0.58065 0.0
O72 O 0.45645 0.15475 0.53829 0.0
C73 C 0.46386 0.14623 0.66003 0.0
O74 O 0.44498 0.0953 0.58713 0.0
Co75 Co 0.50054 0.11402 0.65069 0.0
O76 O 0.46113 0.07315 0.63744 0.0
C77 C 0.53153 0.13906 0.56729 0.0
C78 C 0.47548 0.18467 0.54756 0.0
C79 C 0.44209 0.07081 0.60768 0.0
O80 O 0.50781 0.1424 0.55501 0.0
O81 O 0.53474 0.1319 0.60568 0.0
O82 O 0.44437 0.14679 0.63187 0.0
O83 O 0.48872 0.14648 0.64462 0.0
Co84 Co 0.54461 0.68282 0.91289 0.0
O85 O 0.52561 0.70956 0.92081 0.0
O86 O 0.56145 0.70905 0.964 0.0
C87 C 0.55459 0.69372 0.84198 0.0
O88 O 0.57127 0.65995 0.91454 0.0
Co89 Co 0.51552 0.62461 0.85235 0.0
O90 O 0.55573 0.62421 0.86096 0.0
C91 C 0.48737 0.61803 0.93841 0.0
C92 C 0.54343 0.72112 0.95447 0.0
C93 C 0.57428 0.63918 0.89191 0.0
O94 O 0.50846 0.64726 0.9468 0.0
O95 O 0.48617 0.60492 0.90239 0.0
O96 O 0.57404 0.71321 0.87059 0.0
O97 O 0.52902 0.66954 0.85704 0.0
Co98 Co 0.86886 0.53723 0.41746 0.0
O99 O 0.82356 0.51903 0.42866 0.0
O100 O 0.86167 0.55411 0.47049 0.0
C101 C 0.86571 0.54835 0.34759 0.0
O102 O 0.91837 0.56243 0.41521 0.0
Co103 Co 0.89247 0.50606 0.35033 0.0
O104 O 0.93505 0.54393 0.36057 0.0
C105 C 0.87156 0.47644 0.43528 0.0
C106 C 0.83122 0.53691 0.46238 0.0
C107 C 0.94074 0.56325 0.3914 0.0
O108 O 0.86924 0.50049 0.44864 0.0
O109 O 0.87768 0.47299 0.39649 0.0
O110 O 0.86709 0.56764 0.37744 0.0
O111 O 0.8638 0.52224 0.36106 0.0
Co112 Co 0.32986 0.86558 0.91371 0.0
O113 O 0.30457 0.81982 0.92194 0.0
O114 O 0.30378 0.85541 0.9652 0.0
C115 C 0.31758 0.86369 0.84327 0.0
O116 O 0.35182 0.91484 0.91492 0.0
Co117 Co 0.38678 0.8945 0.84976 0.0
O118 O 0.38852 0.93555 0.86221 0.0
C119 C 0.39371 0.87007 0.93317 0.0
C120 C 0.29241 0.82548 0.95542 0.0
C121 C 0.3731 0.93876 0.89302 0.0
O122 O 0.36704 0.86722 0.9463 0.0
O123 O 0.40352 0.8769 0.89451 0.0
O124 O 0.29818 0.86332 0.87229 0.0
O125 O 0.34231 0.86315 0.85765 0.0
Co126 Co 0.47532 0.32895 0.41319 0.0
O127 O 0.49347 0.3012 0.41856 0.0
O128 O 0.45862 0.3018 0.4635 0.0
C129 C 0.46429 0.31962 0.34251 0.0
O130 O 0.44998 0.35301 0.41846 0.0
Co131 Co 0.50352 0.38789 0.3541 0.0
O132 O 0.46361 0.38853 0.36498 0.0
C133 C 0.53311 0.39292 0.43901 0.0
C134 C 0.47605 0.28937 0.45253 0.0
C135 C 0.44611 0.37363 0.39681 0.0
O136 O 0.51246 0.36345 0.44692 0.0
O137 O 0.53341 0.40661 0.40385 0.0
O138 O 0.44463 0.2999 0.3708 0.0
O139 O 0.49044 0.34307 0.35729 0.0
Co140 Co 0.14937 0.47017 0.91875 0.0
O141 O 0.19521 0.49049 0.92749 0.0
O142 O 0.15904 0.45458 0.97079 0.0
C143 C 0.15107 0.45938 0.84831 0.0
O144 O 0.10019 0.4427 0.92012 0.0
Co145 Co 0.11958 0.49715 0.85471 0.0
O146 O 0.07865 0.45778 0.86755 0.0
C147 C 0.14259 0.52837 0.93851 0.0
C148 C 0.1891 0.47298 0.96145 0.0
C149 C 0.07594 0.43956 0.89859 0.0
O150 O 0.14764 0.50579 0.95093 0.0
O151 O 0.13406 0.53056 0.90051 0.0
O152 O 0.15173 0.44068 0.8776 0.0
O153 O 0.15153 0.48467 0.86242 0.0
Co154 Co 0.68322 0.14314 0.41453 0.0
O155 O 0.71237 0.1884 0.42294 0.0
O156 O 0.71095 0.15057 0.46375 0.0
C157 C 0.69177 0.14429 0.34306 0.0
O158 O 0.65717 0.09377 0.4154 0.0
Co159 Co 0.62376 0.11872 0.35584 0.0
O160 O 0.62057 0.07648 0.36267 0.0
C161 C 0.6218 0.14132 0.44304 0.0
C162 C 0.72424 0.18091 0.45509 0.0
C163 C 0.63512 0.07112 0.39265 0.0
O164 O 0.6497 0.14519 0.45142 0.0
O165 O 0.60845 0.13305 0.40631 0.0
O166 O 0.71123 0.14219 0.36977 0.0
O167 O 0.66924 0.14753 0.36011 0.0
Co168 Co 0.6859 0.54286 0.91723 0.0
O169 O 0.71209 0.52344 0.92606 0.0
O170 O 0.71282 0.56066 0.96762 0.0
C171 C 0.69602 0.55126 0.84613 0.0
O172 O 0.66342 0.56972 0.91668 0.0
Co173 Co 0.62668 0.5102 0.85755 0.0
O174 O 0.62362 0.549 0.86809 0.0
C175 C 0.62323 0.48346 0.94287 0.0
C176 C 0.72436 0.54205 0.95882 0.0
C177 C 0.64042 0.57005 0.89585 0.0
O178 O 0.65019 0.5082 0.95279 0.0
O179 O 0.61109 0.47838 0.90541 0.0
O180 O 0.71618 0.57109 0.87383 0.0
O181 O 0.67212 0.52605 0.86229 0.0
Co182 Co 0.1496 0.67677 0.41629 0.0
O183 O 0.19498 0.70343 0.42671 0.0
O184 O 0.15746 0.70353 0.46672 0.0
C185 C 0.15254 0.68792 0.34541 0.0
O186 O 0.10015 0.65313 0.41372 0.0
Co187 Co 0.12604 0.61891 0.3545 0.0
O188 O 0.08318 0.6135 0.36502 0.0
C189 C 0.14673 0.61432 0.44133 0.0
C190 C 0.18784 0.7157 0.45867 0.0
C191 C 0.07766 0.62962 0.39247 0.0
O192 O 0.14846 0.64098 0.45172 0.0
O193 O 0.14132 0.60322 0.40324 0.0
O194 O 0.15172 0.70731 0.37337 0.0
O195 O 0.15441 0.66425 0.36122 0.0
Co196 Co 0.47293 0.14653 0.91545 0.0
O197 O 0.49337 0.1923 0.924 0.0
O198 O 0.45635 0.15644 0.96642 0.0
C199 C 0.46374 0.14838 0.84439 0.0
O200 O 0.44508 0.09729 0.91628 0.0
Co201 Co 0.50195 0.11721 0.85409 0.0
O202 O 0.46217 0.07629 0.86542 0.0
C203 C 0.53136 0.14087 0.93851 0.0
C204 C 0.47523 0.18642 0.95725 0.0
C205 C 0.44277 0.07324 0.89508 0.0
O206 O 0.50778 0.14476 0.94964 0.0
O207 O 0.53474 0.1326 0.90089 0.0
O208 O 0.4445 0.14917 0.87275 0.0
O209 O 0.48868 0.14872 0.85985 0.0
Co210 Co 0.33318 0.46811 0.4182 0.0
O211 O 0.30433 0.4848 0.42474 0.0
O212 O 0.30567 0.44953 0.46806 0.0
C213 C 0.32485 0.4589 0.347 0.0
O214 O 0.35865 0.44424 0.42117 0.0
Co215 Co 0.39287 0.50139 0.35953 0.0
O216 O 0.3961 0.46262 0.36946 0.0
C217 C 0.39487 0.52812 0.44506 0.0
C218 C 0.29264 0.46661 0.45801 0.0
C219 C 0.38088 0.4431 0.39953 0.0
O220 O 0.36693 0.50437 0.45395 0.0
O221 O 0.40823 0.53232 0.40847 0.0
O222 O 0.30507 0.43818 0.37429 0.0
O223 O 0.34736 0.48502 0.36316 0.0
Co224 Co 0.86858 0.33232 0.91704 0.0
O225 O 0.82243 0.30729 0.92333 0.0
O226 O 0.85692 0.30425 0.96648 0.0
C227 C 0.86875 0.32339 0.84566 0.0
O228 O 0.91758 0.35273 0.92099 0.0
Co229 Co 0.901 0.39201 0.85868 0.0
O230 O 0.94145 0.39316 0.87389 0.0
C231 C 0.87492 0.39623 0.94194 0.0
C232 C 0.82722 0.2938 0.95614 0.0
C233 C 0.94274 0.37515 0.90257 0.0
O234 O 0.87014 0.36834 0.95253 0.0
O235 O 0.88371 0.40814 0.90453 0.0
O236 O 0.86716 0.30252 0.87315 0.0
O237 O 0.86809 0.34761 0.86164 0.0
Co238 Co 0.5403 0.86245 0.41367 0.0
O239 O 0.523 0.81687 0.42069 0.0
O240 O 0.5601 0.85354 0.46209 0.0
C241 C 0.54751 0.86262 0.34203 0.0
O242 O 0.56488 0.9119 0.41582 0.0
Co243 Co 0.50581 0.88887 0.35728 0.0
O244 O 0.54522 0.93066 0.36541 0.0
C245 C 0.4814 0.86498 0.44406 0.0
C246 C 0.54226 0.82341 0.4528 0.0
C247 C 0.56562 0.93515 0.39432 0.0
O248 O 0.50527 0.86066 0.45145 0.0
O249 O 0.47627 0.87393 0.40786 0.0
O250 O 0.56874 0.86332 0.36818 0.0
O251 O 0.52197 0.85957 0.3596 0.0
Co252 Co 0.47442 0.33145 0.08795 0.0
O253 O 0.49427 0.30522 0.08186 0.0
O254 O 0.45893 0.30492 0.03697 0.0
C255 C 0.46313 0.32088 0.15864 0.0
O256 O 0.44713 0.35323 0.08336 0.0
Co257 Co 0.50098 0.38951 0.14935 0.0
O258 O 0.46238 0.39172 0.13315 0.0
C259 C 0.53372 0.39548 0.06754 0.0
C260 C 0.47688 0.29309 0.04793 0.0
C261 C 0.44401 0.37505 0.10283 0.0
O262 O 0.51073 0.36801 0.05514 0.0
O263 O 0.53584 0.40634 0.10542 0.0
O264 O 0.4442 0.30096 0.12996 0.0
O265 O 0.48876 0.34506 0.14418 0.0
Co266 Co 0.14874 0.46672 0.59323 0.0
O267 O 0.19417 0.48369 0.58504 0.0
O268 O 0.15691 0.44806 0.54275 0.0
C269 C 0.1497 0.45807 0.66432 0.0
O270 O 0.09929 0.44292 0.59225 0.0
Co271 Co 0.12362 0.50023 0.65368 0.0
O272 O 0.08188 0.46046 0.64695 0.0
C273 C 0.14642 0.52641 0.56719 0.0
C274 C 0.1872 0.46544 0.5518 0.0
C275 C 0.07658 0.44136 0.61596 0.0
O276 O 0.15035 0.50261 0.55781 0.0
O277 O 0.13802 0.53082 0.60421 0.0
O278 O 0.14811 0.43718 0.63685 0.0
O279 O 0.15266 0.48394 0.64819 0.0
Co280 Co 0.68357 0.1468 0.08747 0.0
O281 O 0.70851 0.19279 0.08049 0.0
O282 O 0.71089 0.1581 0.03714 0.0
C283 C 0.69383 0.14734 0.15855 0.0
O284 O 0.66262 0.09769 0.0845 0.0
Co285 Co 0.62479 0.11523 0.1481 0.0
O286 O 0.62471 0.075 0.13534 0.0
C287 C 0.61912 0.1402 0.06444 0.0
C288 C 0.72154 0.18782 0.04731 0.0
C289 C 0.6413 0.073 0.10513 0.0
O290 O 0.64698 0.14514 0.05323 0.0
O291 O 0.6074 0.13115 0.10192 0.0
O292 O 0.71431 0.14888 0.13037 0.0
O293 O 0.66924 0.14767 0.14309 0.0
Co294 Co 0.54604 0.681 0.58691 0.0
O295 O 0.52578 0.70665 0.57895 0.0
O296 O 0.56253 0.70771 0.53607 0.0
C297 C 0.55555 0.69204 0.65784 0.0
O298 O 0.57348 0.6592 0.58475 0.0
Co299 Co 0.5182 0.62331 0.64916 0.0
O300 O 0.55717 0.62111 0.63538 0.0
C301 C 0.48669 0.6176 0.56626 0.0
C302 C 0.54391 0.71907 0.54573 0.0
C303 C 0.57613 0.63747 0.60535 0.0
O304 O 0.51062 0.64429 0.55342 0.0
O305 O 0.48361 0.60755 0.6048 0.0
O306 O 0.5751 0.71182 0.62951 0.0
O307 O 0.53048 0.66762 0.64266 0.0
Co308 Co 0.86826 0.54202 0.09296 0.0
O309 O 0.82272 0.52219 0.08298 0.0
O310 O 0.85959 0.56003 0.04244 0.0
C311 C 0.86546 0.54981 0.16396 0.0
O312 O 0.91755 0.56948 0.09479 0.0
Co313 Co 0.89493 0.50982 0.15335 0.0
O314 O 0.9367 0.54887 0.14337 0.0
C315 C 0.87291 0.48339 0.06752 0.0
C316 C 0.82936 0.5412 0.05059 0.0
C317 C 0.94093 0.57005 0.11581 0.0
O318 O 0.87033 0.5079 0.05744 0.0
O319 O 0.87966 0.4783 0.10516 0.0
O320 O 0.86506 0.56958 0.13621 0.0
O321 O 0.8648 0.52492 0.14781 0.0
Co322 Co 0.33057 0.86376 0.58943 0.0
O323 O 0.30466 0.81786 0.58278 0.0
O324 O 0.30371 0.85292 0.53866 0.0
C325 C 0.31962 0.86353 0.65996 0.0
O326 O 0.35282 0.91289 0.58623 0.0
Co327 Co 0.38845 0.89348 0.65143 0.0
O328 O 0.39074 0.93458 0.63719 0.0
C329 C 0.39378 0.86701 0.56905 0.0
C330 C 0.29216 0.82312 0.54931 0.0
C331 C 0.37456 0.93722 0.60691 0.0
O332 O 0.36711 0.86439 0.55626 0.0
O333 O 0.4038 0.87389 0.60761 0.0
O334 O 0.29989 0.86303 0.63136 0.0
O335 O 0.34382 0.86213 0.64537 0.0
C336 C 0.32407 0.43298 0.23136 0.0
C337 C 0.32041 0.45673 0.20961 0.0
C338 C 0.31175 0.476 0.2782 0.0
C339 C 0.31983 0.4553 0.30002 0.0
N340 N 0.33418 0.41429 0.29848 0.0
N341 N 0.3105 0.50091 0.21151 0.0
C342 C 0.32566 0.43347 0.27691 0.0
C343 C 0.31401 0.47816 0.23285 0.0
N344 N 0.32618 0.4101 0.20838 0.0
N345 N 0.30084 0.4928 0.30095 0.0
H346 H 0.30921 0.50158 0.17829 0.0
H347 H 0.31021 0.51998 0.22647 0.0
H348 H 0.29838 0.49133 0.33413 0.0
H349 H 0.29149 0.50592 0.28704 0.0
H350 H 0.32585 0.39028 0.22189 0.0
H351 H 0.32588 0.40973 0.17515 0.0
H352 H 0.34255 0.40057 0.28382 0.0
H353 H 0.33441 0.41333 0.33169 0.0
C354 C 0.83782 0.30864 0.73123 0.0
C355 C 0.8658 0.31501 0.70824 0.0
C356 C 0.89531 0.32485 0.77557 0.0
C357 C 0.86734 0.31815 0.79865 0.0
N358 N 0.81049 0.29758 0.79969 0.0
N359 N 0.91911 0.32274 0.7083 0.0
C360 C 0.83812 0.30823 0.77678 0.0
C361 C 0.89383 0.32087 0.7304 0.0
N362 N 0.81103 0.30328 0.70944 0.0
N363 N 0.92369 0.33657 0.79666 0.0
H364 H 0.91909 0.32072 0.67522 0.0
H365 H 0.93897 0.32368 0.72276 0.0
H366 H 0.92524 0.33931 0.8296 0.0
H367 H 0.94578 0.34566 0.78161 0.0
H368 H 0.79129 0.30264 0.72385 0.0
H369 H 0.80897 0.30077 0.6763 0.0
H370 H 0.78784 0.28693 0.786 0.0
H371 H 0.80989 0.29698 0.83302 0.0
C372 C 0.57369 0.89081 0.27339 0.0
C373 C 0.5508 0.86272 0.29476 0.0
C374 C 0.53126 0.83582 0.22552 0.0
C375 C 0.55146 0.86506 0.20429 0.0
N376 N 0.58992 0.92116 0.20748 0.0
N377 N 0.5072 0.80836 0.29197 0.0
C378 C 0.57241 0.8927 0.22808 0.0
C379 C 0.52943 0.83516 0.271 0.0
N380 N 0.59661 0.91575 0.29641 0.0
N381 N 0.51462 0.80844 0.20213 0.0
H382 H 0.50683 0.8059 0.32511 0.0
H383 H 0.48822 0.78902 0.27682 0.0
H384 H 0.51551 0.80802 0.16884 0.0
H385 H 0.50205 0.78573 0.2155 0.0
H386 H 0.61604 0.93558 0.28275 0.0
H387 H 0.5976 0.91548 0.32958 0.0
H388 H 0.6028 0.94305 0.22293 0.0
H389 H 0.58962 0.92309 0.17447 0.0
C390 C 0.70665 0.58171 0.77645 0.0
C391 C 0.70214 0.55431 0.79917 0.0
C392 C 0.70273 0.52921 0.73111 0.0
C393 C 0.70056 0.55358 0.70874 0.0
N394 N 0.69875 0.60245 0.70993 0.0
N395 N 0.69924 0.50298 0.79846 0.0
C396 C 0.7026 0.57997 0.73126 0.0
C397 C 0.70119 0.52835 0.77652 0.0
N398 N 0.71508 0.60948 0.79766 0.0
N399 N 0.7078 0.50776 0.7089 0.0
H400 H 0.70267 0.50327 0.8314 0.0
H401 H 0.69352 0.48132 0.7842 0.0
H402 H 0.71035 0.50849 0.67576 0.0
H403 H 0.7127 0.49127 0.72327 0.0
H404 H 0.72206 0.63103 0.78211 0.0
H405 H 0.71755 0.61178 0.8307 0.0
H406 H 0.69595 0.62003 0.72521 0.0
H407 H 0.6958 0.60196 0.67695 0.0
C408 C 0.18034 0.69328 0.27583 0.0
C409 C 0.15563 0.69458 0.29863 0.0
C410 C 0.13586 0.70459 0.2312 0.0
C411 C 0.15615 0.69638 0.20813 0.0
N412 N 0.20111 0.68741 0.20816 0.0
N413 N 0.11056 0.70334 0.29865 0.0
C414 C 0.17939 0.69205 0.23043 0.0
C415 C 0.13399 0.70143 0.27661 0.0
N416 N 0.2059 0.69539 0.29764 0.0
N417 N 0.11849 0.71559 0.21013 0.0
H418 H 0.10841 0.70176 0.33177 0.0
H419 H 0.09149 0.70393 0.28407 0.0
H420 H 0.11746 0.71679 0.17707 0.0
H421 H 0.10673 0.72589 0.22546 0.0
H422 H 0.22626 0.69761 0.28299 0.0
H423 H 0.20848 0.69854 0.33067 0.0
H424 H 0.21503 0.67892 0.22199 0.0
H425 H 0.20498 0.69164 0.17543 0.0
C426 C 0.48702 0.17557 0.77421 0.0
C427 C 0.46045 0.15167 0.7974 0.0
C428 C 0.43367 0.12669 0.72991 0.0
C429 C 0.46072 0.1497 0.70685 0.0
N430 N 0.50845 0.20135 0.70594 0.0
N431 N 0.40427 0.11198 0.79655 0.0
C432 C 0.48608 0.17573 0.72873 0.0
C433 C 0.43236 0.12967 0.77507 0.0
N434 N 0.51307 0.19845 0.79574 0.0
N435 N 0.40992 0.10098 0.70908 0.0
H436 H 0.402 0.11361 0.82936 0.0
H437 H 0.38244 0.09796 0.78131 0.0
H438 H 0.40984 0.09842 0.67611 0.0
H439 H 0.39168 0.08122 0.72466 0.0
H440 H 0.53497 0.21346 0.78126 0.0
H441 H 0.513 0.20208 0.82859 0.0
H442 H 0.52588 0.22249 0.71981 0.0
H443 H 0.50771 0.20281 0.67274 0.0
C444 C 0.58548 0.7024 0.72785 0.0
C445 C 0.5587 0.69886 0.70456 0.0
C446 C 0.53222 0.69873 0.77163 0.0
C447 C 0.55838 0.70066 0.79508 0.0
N448 N 0.61445 0.71649 0.79476 0.0
N449 N 0.51152 0.70382 0.70314 0.0
C450 C 0.58653 0.7065 0.77303 0.0
C451 C 0.53347 0.70001 0.72617 0.0
N452 N 0.60916 0.70013 0.70721 0.0
N453 N 0.50627 0.69613 0.7929 0.0
H454 H 0.51256 0.70618 0.66995 0.0
H455 H 0.4942 0.70783 0.71681 0.0
H456 H 0.50627 0.69988 0.82572 0.0
H457 H 0.48454 0.68972 0.77822 0.0
H458 H 0.62714 0.69824 0.72298 0.0
H459 H 0.60947 0.69784 0.67422 0.0
H460 H 0.63634 0.72417 0.77968 0.0
H461 H 0.61657 0.72012 0.82762 0.0
C462 C 0.83668 0.52698 0.27879 0.0
C463 C 0.86162 0.55288 0.30129 0.0
C464 C 0.88309 0.58133 0.23329 0.0
C465 C 0.86203 0.55277 0.21089 0.0
N466 N 0.81531 0.50009 0.21142 0.0
N467 N 0.9051 0.60731 0.30142 0.0
C468 C 0.83772 0.52614 0.23345 0.0
C469 C 0.8834 0.58114 0.27901 0.0
N470 N 0.81094 0.50415 0.30098 0.0
N471 N 0.90296 0.60848 0.21099 0.0
H472 H 0.90504 0.60878 0.33457 0.0
H473 H 0.92409 0.62748 0.28779 0.0
H474 H 0.90543 0.60924 0.17794 0.0
H475 H 0.91632 0.63095 0.22467 0.0
H476 H 0.79045 0.48593 0.28677 0.0
H477 H 0.8085 0.50532 0.33396 0.0
H478 H 0.80028 0.47805 0.22549 0.0
H479 H 0.81189 0.50027 0.17854 0.0
C480 C 0.3124 0.88635 0.72888 0.0
C481 C 0.31286 0.86108 0.70652 0.0
C482 C 0.30949 0.83414 0.77435 0.0
C483 C 0.31015 0.86001 0.79674 0.0
N484 N 0.30047 0.90426 0.79505 0.0
N485 N 0.30248 0.80691 0.70661 0.0
C486 C 0.30773 0.88403 0.77392 0.0
C487 C 0.30857 0.8337 0.7289 0.0
N488 N 0.31808 0.91327 0.70748 0.0
N489 N 0.30974 0.80994 0.79664 0.0
H490 H 0.30078 0.80556 0.67335 0.0
H491 H 0.29612 0.7851 0.72089 0.0
H492 H 0.3067 0.80752 0.8297 0.0
H493 H 0.31377 0.79275 0.78263 0.0
H494 H 0.32193 0.93408 0.72263 0.0
H495 H 0.32136 0.91554 0.67455 0.0
H496 H 0.29601 0.92075 0.77969 0.0
H497 H 0.29511 0.9019 0.82751 0.0
C498 C 0.47937 0.30573 0.27234 0.0
C499 C 0.45933 0.314 0.29572 0.0
C500 C 0.43802 0.32227 0.22873 0.0
C501 C 0.45846 0.3146 0.20535 0.0
N502 N 0.49302 0.29208 0.20376 0.0
N503 N 0.41484 0.32331 0.29718 0.0
C504 C 0.47741 0.30414 0.2269 0.0
C505 C 0.43696 0.31989 0.27416 0.0
N506 N 0.50069 0.29995 0.29366 0.0
N507 N 0.42077 0.3333 0.20755 0.0
H508 H 0.41392 0.32212 0.33038 0.0
H509 H 0.39591 0.32473 0.28361 0.0
H510 H 0.42044 0.33429 0.1744 0.0
H511 H 0.40832 0.34302 0.22247 0.0
H512 H 0.51882 0.29787 0.27873 0.0
H513 H 0.50112 0.29847 0.32689 0.0
H514 H 0.50485 0.28123 0.21732 0.0
H515 H 0.49184 0.29043 0.1705 0.0
C516 C 0.12801 0.42907 0.73442 0.0
C517 C 0.1525 0.45496 0.7112 0.0
C518 C 0.17931 0.48064 0.77834 0.0
C519 C 0.15429 0.45518 0.80165 0.0
N520 N 0.11167 0.40032 0.80154 0.0
N521 N 0.20608 0.5 0.71017 0.0
C522 C 0.13087 0.42775 0.77962 0.0
C523 C 0.17956 0.4792 0.73294 0.0
N524 N 0.10119 0.40668 0.71379 0.0
N525 N 0.20302 0.50619 0.79966 0.0
H526 H 0.20759 0.49882 0.67703 0.0
H527 H 0.22774 0.51632 0.72415 0.0
H528 H 0.20608 0.50641 0.83268 0.0
H529 H 0.21917 0.52753 0.78481 0.0
H530 H 0.08088 0.38948 0.72969 0.0
H531 H 0.09821 0.40681 0.68084 0.0
H532 H 0.09616 0.37876 0.78666 0.0
H533 H 0.11367 0.39817 0.83433 0.0
C534 C 0.70036 0.17431 0.2745 0.0
C535 C 0.69709 0.147 0.29604 0.0
C536 C 0.70281 0.12558 0.22753 0.0
C537 C 0.69975 0.1496 0.20558 0.0
N538 N 0.69763 0.1984 0.20789 0.0
N539 N 0.6928 0.09518 0.29295 0.0
C540 C 0.69912 0.17444 0.22906 0.0
C541 C 0.69807 0.12239 0.27261 0.0
N542 N 0.7062 0.20076 0.29747 0.0
N543 N 0.71069 0.10611 0.20559 0.0
H544 H 0.68912 0.0919 0.32579 0.0
H545 H 0.68944 0.07487 0.27688 0.0
H546 H 0.71554 0.1086 0.17299 0.0
H547 H 0.71596 0.09 0.22038 0.0
H548 H 0.71194 0.22256 0.28364 0.0
H549 H 0.70858 0.20203 0.33065 0.0
H550 H 0.69238 0.21448 0.22282 0.0
H551 H 0.7007 0.20167 0.17492 0.0
C552 C 0.24196 0.50229 1.00052 0.0
C553 C 0.21544 0.47297 0.98679 0.0
C554 C 0.2393 0.4441 0.02147 0.0
C555 C 0.26756 0.47349 0.0304 0.0
N556 N 0.29791 0.53062 0.02061 0.0
N557 N 0.19251 0.41613 0.97657 0.0
C558 C 0.26946 0.50264 0.01783 0.0
C559 C 0.21505 0.44388 0.99524 0.0
N560 N 0.24046 0.52974 0.99856 0.0
N561 N 0.23482 0.41642 0.03949 0.0
H562 H 0.17497 0.41486 0.95594 0.0
H563 H 0.19326 0.39499 0.97801 0.0
H564 H 0.25132 0.41552 0.06009 0.0
H565 H 0.21327 0.39493 0.03763 0.0
H566 H 0.25772 0.55123 0.01198 0.0
H567 H 0.22033 0.53024 0.98762 0.0
H568 H 0.30148 0.55206 0.00785 0.0
H569 H 0.31888 0.53185 0.03163 0.0
C570 C 0.77939 0.22997 0.45689 0.0
C571 C 0.75236 0.20609 0.47944 0.0
C572 C 0.77967 0.2305 0.54708 0.0
C573 C 0.80426 0.25696 0.52451 0.0
N574 N 0.82398 0.28418 0.45711 0.0
N575 N 0.72468 0.18736 0.54677 0.0
C576 C 0.80326 0.25729 0.47914 0.0
C577 C 0.75197 0.20727 0.52479 0.0
N578 N 0.78302 0.22608 0.41438 0.0
N579 N 0.7832 0.22679 0.58967 0.0
H580 H 0.70352 0.17077 0.53187 0.0
H581 H 0.72209 0.18958 0.57944 0.0
H582 H 0.80365 0.24236 0.60685 0.0
H583 H 0.76751 0.20639 0.60675 0.0
H584 H 0.80373 0.24118 0.39738 0.0
H585 H 0.767 0.20586 0.39723 0.0
H586 H 0.82198 0.28682 0.42439 0.0
H587 H 0.84113 0.30506 0.47194 0.0
C588 C 0.5724 0.79985 0.01541 0.0
C589 C 0.54303 0.79913 0.02318 0.0
C590 C 0.51415 0.74504 0.99251 0.0
C591 C 0.54355 0.74749 0.97981 0.0
N592 N 0.60076 0.78078 0.97165 0.0
N593 N 0.48614 0.77332 0.01051 0.0
C594 C 0.57275 0.77585 0.98925 0.0
C595 C 0.51393 0.77232 0.00938 0.0
N596 N 0.59989 0.82257 0.03446 0.0
N597 N 0.48644 0.71633 0.99006 0.0
H598 H 0.48505 0.79326 0.02079 0.0
H599 H 0.46489 0.75574 0.99689 0.0
H600 H 0.4857 0.6955 0.97955 0.0
H601 H 0.46485 0.71244 0.00281 0.0
H602 H 0.62124 0.82214 0.03342 0.0
H603 H 0.60066 0.83988 0.05505 0.0
H604 H 0.6221 0.80246 0.97386 0.0
H605 H 0.60215 0.76455 0.95113 0.0
C606 C 0.75145 0.5094 0.51861 0.0
C607 C 0.75346 0.5388 0.52994 0.0
C608 C 0.80664 0.56757 0.49605 0.0
C609 C 0.80589 0.53817 0.4887 0.0
N610 N 0.78042 0.48174 0.50274 0.0
N611 N 0.78651 0.59595 0.53785 0.0
C612 C 0.77908 0.50927 0.50284 0.0
C613 C 0.78206 0.56795 0.52102 0.0
N614 N 0.72281 0.4816 0.52102 0.0
N615 N 0.8299 0.59502 0.47759 0.0
H616 H 0.76972 0.5973 0.55734 0.0
H617 H 0.8082 0.6173 0.53609 0.0
H618 H 0.84797 0.5959 0.45844 0.0
H619 H 0.82948 0.61636 0.47798 0.0
H620 H 0.71932 0.45996 0.50915 0.0
H621 H 0.70169 0.48071 0.53057 0.0
H622 H 0.76284 0.46049 0.51634 0.0
H623 H 0.80088 0.4812 0.49353 0.0
C624 C 0.23831 0.77503 0.95675 0.0
C625 C 0.26537 0.7988 0.97938 0.0
C626 C 0.23933 0.7728 0.0469 0.0
C627 C 0.21442 0.74679 0.024 0.0
N628 N 0.19406 0.72061 0.95624 0.0
N629 N 0.29415 0.81634 0.046 0.0
C630 C 0.21494 0.74721 0.97864 0.0
C631 C 0.26658 0.79662 0.02449 0.0
N632 N 0.23402 0.77954 0.91469 0.0
N633 N 0.23643 0.77571 0.08988 0.0
H634 H 0.31492 0.83345 0.03078 0.0
H635 H 0.2974 0.8135 0.07829 0.0
H636 H 0.2163 0.75986 0.10735 0.0
H637 H 0.25237 0.79581 0.10727 0.0
H638 H 0.21318 0.7645 0.89791 0.0
H639 H 0.24959 0.8001 0.89779 0.0
H640 H 0.19564 0.7185 0.92331 0.0
H641 H 0.17724 0.69944 0.9709 0.0
C642 C 0.47409 0.23638 0.54515 0.0
C643 C 0.47541 0.21132 0.52304 0.0
C644 C 0.47271 0.23531 0.45491 0.0
C645 C 0.47567 0.26244 0.47692 0.0
N646 N 0.48665 0.2915 0.54336 0.0
N647 N 0.48311 0.19123 0.45613 0.0
C648 C 0.47845 0.26374 0.52217 0.0
C649 C 0.47671 0.21197 0.47767 0.0
N650 N 0.46717 0.23357 0.58782 0.0
N651 N 0.46458 0.23088 0.41261 0.0
H652 H 0.48745 0.17463 0.47148 0.0
H653 H 0.48753 0.19285 0.42336 0.0
H654 H 0.45978 0.24634 0.3951 0.0
H655 H 0.4591 0.21 0.39621 0.0
H656 H 0.46287 0.24973 0.60442 0.0
H657 H 0.46208 0.21335 0.60563 0.0
H658 H 0.49212 0.2946 0.57584 0.0
H659 H 0.49144 0.31251 0.52783 0.0
C660 C 0.80392 0.57127 0.01794 0.0
C661 C 0.80324 0.54194 0.02568 0.0
C662 C 0.7487 0.51303 0.99632 0.0
C663 C 0.75102 0.54235 0.98369 0.0
N664 N 0.78458 0.59935 0.97423 0.0
N665 N 0.77728 0.48513 0.01321 0.0
C666 C 0.77966 0.5715 0.99222 0.0
C667 C 0.77625 0.51286 0.0123 0.0
N668 N 0.82675 0.5988 0.03672 0.0
N669 N 0.71987 0.48538 0.99475 0.0
H670 H 0.79745 0.48415 0.02284 0.0
H671 H 0.75948 0.46385 0.99998 0.0
H672 H 0.69881 0.48461 0.98517 0.0
H673 H 0.71621 0.46388 0.00743 0.0
H674 H 0.82623 0.62007 0.03564 0.0
H675 H 0.84423 0.59973 0.05716 0.0
H676 H 0.80641 0.62057 0.97587 0.0
H677 H 0.76817 0.60064 0.9539 0.0
C678 C 0.21471 0.7443 0.52769 0.0
C679 C 0.21351 0.74384 0.48236 0.0
C680 C 0.26532 0.79401 0.48081 0.0
C681 C 0.26485 0.7962 0.526 0.0
N682 N 0.23442 0.77682 0.59143 0.0
N683 N 0.23401 0.77315 0.41635 0.0
C684 C 0.2382 0.77229 0.54919 0.0
C685 C 0.23778 0.77011 0.45906 0.0
N686 N 0.19441 0.71763 0.55042 0.0
N687 N 0.29251 0.81373 0.45853 0.0
H688 H 0.21354 0.7573 0.39947 0.0
H689 H 0.24951 0.79337 0.39882 0.0
H690 H 0.31359 0.83074 0.47319 0.0
H691 H 0.29514 0.81087 0.42605 0.0
H692 H 0.19655 0.71561 0.58325 0.0
H693 H 0.17751 0.69638 0.53604 0.0
H694 H 0.21389 0.76162 0.60868 0.0
H695 H 0.25002 0.79752 0.60803 0.0
C696 C 0.44635 0.21299 0.99012 0.0
C697 C 0.47535 0.21299 0.9821 0.0
C698 C 0.50537 0.26723 0.01213 0.0
C699 C 0.47632 0.26575 0.02445 0.0
N700 N 0.41912 0.23333 0.03383 0.0
N701 N 0.53217 0.23771 0.99417 0.0
C702 C 0.44677 0.23754 0.01586 0.0
C703 C 0.5048 0.23946 0.9956 0.0
N704 N 0.4185 0.19053 0.97152 0.0
N705 N 0.53348 0.29555 0.01437 0.0
H706 H 0.53259 0.21742 0.98386 0.0
H707 H 0.55372 0.25501 0.00747 0.0
H708 H 0.53469 0.31663 0.02455 0.0
H709 H 0.55492 0.29884 1.00185 0.0
H710 H 0.39746 0.19154 0.97268 0.0
H711 H 0.41709 0.1728 0.9512 0.0
H712 H 0.39756 0.21183 0.03219 0.0
H713 H 0.41832 0.24995 0.05422 0.0
C714 C 0.21265 0.43591 0.51717 0.0
C715 C 0.21312 0.46502 0.52587 0.0
C716 C 0.26747 0.49474 0.49583 0.0
C717 C 0.26562 0.46569 0.48287 0.0
N718 N 0.23313 0.40863 0.47362 0.0
N719 N 0.23838 0.52186 0.51424 0.0
C720 C 0.23729 0.43624 0.49147 0.0
C721 C 0.23982 0.49436 0.51254 0.0
N722 N 0.18957 0.40805 0.53496 0.0
N723 N 0.29602 0.52268 0.49397 0.0
H724 H 0.21816 0.52248 0.52458 0.0
H725 H 0.25584 0.54334 0.50101 0.0
H726 H 0.31716 0.52392 0.48369 0.0
H727 H 0.29947 0.544 0.507 0.0
H728 H 0.19013 0.3868 0.53351 0.0
H729 H 0.17155 0.40671 0.55467 0.0
H730 H 0.21159 0.3871 0.47506 0.0
H731 H 0.25003 0.40779 0.45378 0.0
C732 C 0.79837 0.26701 0.02476 0.0
C733 C 0.8 0.26677 0.97946 0.0
C734 C 0.74812 0.21666 0.97845 0.0
C735 C 0.74853 0.21494 0.02375 0.0
N736 N 0.77859 0.23545 0.08922 0.0
N737 N 0.77942 0.23706 0.91379 0.0
C738 C 0.77491 0.23931 0.04673 0.0
C739 C 0.77567 0.24041 0.95642 0.0
N740 N 0.81836 0.2941 0.04695 0.0
N741 N 0.72102 0.19649 0.95635 0.0
H742 H 0.79976 0.25289 0.89665 0.0
H743 H 0.76395 0.21669 0.8965 0.0
H744 H 0.70001 0.17952 0.97122 0.0
H745 H 0.71836 0.19889 0.92374 0.0
H746 H 0.81597 0.29659 0.07961 0.0
H747 H 0.83508 0.31525 0.03213 0.0
H748 H 0.79903 0.25101 0.10637 0.0
H749 H 0.76306 0.21497 0.10629 0.0
C750 C 0.54262 0.79627 0.52217 0.0
C751 C 0.54398 0.79742 0.47681 0.0
C752 C 0.54227 0.74557 0.47641 0.0
C753 C 0.54446 0.74622 0.5217 0.0
N754 N 0.55483 0.77689 0.58671 0.0
N755 N 0.55294 0.77645 0.4114 0.0
C756 C 0.54694 0.77292 0.54433 0.0
C757 C 0.54603 0.77298 0.45409 0.0
N758 N 0.53571 0.81644 0.54431 0.0
N759 N 0.53516 0.71834 0.45458 0.0
H760 H 0.55743 0.79672 0.39415 0.0
H761 H 0.55777 0.76087 0.39424 0.0
H762 H 0.5311 0.69741 0.46965 0.0
H763 H 0.53 0.71552 0.42201 0.0
H764 H 0.53114 0.81431 0.57705 0.0
H765 H 0.53118 0.83308 0.52952 0.0
H766 H 0.56002 0.7975 0.60359 0.0
H767 H 0.55976 0.76137 0.60386 0.0
C768 C 0.41631 0.43076 0.06659 0.0
C769 C 0.38723 0.41829 0.08971 0.0
C770 C 0.38914 0.36949 0.1052 0.0
C771 C 0.42033 0.38412 0.08762 0.0
N772 N 0.45716 0.42104 0.03657 0.0
N773 N 0.34082 0.3725 0.11784 0.0
C774 C 0.43175 0.41233 0.06321 0.0
C775 C 0.37185 0.38637 0.10466 0.0
N776 N 0.42981 0.46079 0.0497 0.0
N777 N 0.3765 0.33976 0.12259 0.0
H778 H 0.32767 0.38415 0.11464 0.0
H779 H 0.32739 0.34899 0.1282 0.0
H780 H 0.3875 0.32606 0.11861 0.0
H781 H 0.35536 0.3286 0.14006 0.0
H782 H 0.45277 0.4729 0.03692 0.0
H783 H 0.41814 0.47405 0.04977 0.0
H784 H 0.46576 0.44027 0.01555 0.0
H785 H 0.4674 0.40663 0.03251 0.0
C786 C 0.02553 0.38762 0.6094 0.0
C787 C 0.0423 0.4212 0.60293 0.0
C788 C 0.99152 0.4193 0.58652 0.0
C789 C 0.97444 0.38704 0.60037 0.0
N790 N 0.97418 0.33879 0.61921 0.0
N791 N 0.04196 0.46904 0.58209 0.0
C792 C 0.99119 0.37051 0.60939 0.0
C793 C 0.02545 0.43688 0.58975 0.0
N794 N 0.04254 0.37236 0.61589 0.0
N795 N 0.975 0.433 0.56998 0.0
H796 H 0.06686 0.4824 0.58153 0.0
H797 H 0.03128 0.48295 0.578 0.0
H798 H 0.95013 0.42094 0.56809 0.0
H799 H 0.98566 0.45516 0.55498 0.0
H800 H 0.03239 0.34776 0.61875 0.0
H801 H 0.06746 0.38443 0.61564 0.0
H802 H 0.9842 0.32555 0.6306 0.0
H803 H 0.94941 0.32552 0.61589 0.0
C804 C 0.58657 0.99139 0.06249 0.0
C805 C 0.59488 0.97262 0.08859 0.0
C806 C 0.64168 0.02128 0.11493 0.0
C807 C 0.63215 0.04 0.09097 0.0
N808 N 0.60411 0.04296 0.02943 0.0
N809 N 0.63651 0.96909 0.12568 0.0
C810 C 0.60749 0.025 0.06034 0.0
C811 C 0.62461 0.98741 0.11021 0.0
N812 N 0.55797 0.97734 0.04153 0.0
N813 N 0.66643 0.03585 0.14299 0.0
H814 H 0.62519 0.94459 0.11982 0.0
H815 H 0.659 0.9785 0.13968 0.0
H816 H 0.68039 0.0606 0.14447 0.0
H817 H 0.67228 0.02356 0.16521 0.0
H818 H 0.54898 0.9902 0.02584 0.0
H819 H 0.54239 0.95276 0.04212 0.0
H820 H 0.58807 0.03315 0.00411 0.0
H821 H 0.61992 0.06745 0.0268 0.0
C822 C 0.60251 0.58013 0.56943 0.0
C823 C 0.63221 0.59282 0.59112 0.0
C824 C 0.63057 0.64173 0.60729 0.0
C825 C 0.59907 0.62717 0.59069 0.0
N826 N 0.56011 0.58883 0.54272 0.0
N827 N 0.67892 0.63854 0.61874 0.0
C828 C 0.58678 0.59839 0.5672 0.0
C829 C 0.64778 0.62475 0.60604 0.0
N830 N 0.58878 0.55001 0.55278 0.0
N831 N 0.64353 0.67146 0.62473 0.0
H832 H 0.69194 0.62674 0.61557 0.0
H833 H 0.69255 0.66207 0.6289 0.0
H834 H 0.63249 0.68515 0.62143 0.0
H835 H 0.66494 0.68264 0.64161 0.0
H836 H 0.56552 0.53761 0.54104 0.0
H837 H 0.60063 0.53693 0.55188 0.0
H838 H 0.55066 0.56915 0.52245 0.0
H839 H 0.54918 0.60269 0.53975 0.0
C840 C 0.99115 0.60025 0.07074 0.0
C841 C 0.97476 0.59659 0.10998 0.0
C842 C 0.02622 0.63241 0.14493 0.0
C843 C 0.04271 0.63065 0.10845 0.0
N844 N 0.04151 0.61516 0.03507 0.0
N845 N 0.9762 0.61162 0.1837 0.0
C846 C 0.02538 0.6159 0.07051 0.0
C847 C 0.99222 0.61394 0.14664 0.0
N848 N 0.97406 0.58841 0.0339 0.0
N849 N 0.04341 0.65186 0.17802 0.0
H850 H 0.95133 0.60003 0.18526 0.0
H851 H 0.98721 0.62002 0.21317 0.0
H852 H 0.06827 0.66543 0.1772 0.0
H853 H 0.03335 0.65672 0.20431 0.0
H854 H 0.98434 0.59251 0.00367 0.0
H855 H 0.94921 0.57671 0.03295 0.0
H856 H 0.03055 0.60109 0.00835 0.0
H857 H 0.06635 0.62802 0.03289 0.0
C858 C 0.43062 0.02123 0.56833 0.0
C859 C 0.41886 0.03775 0.59295 0.0
C860 C 0.36993 0.98693 0.60824 0.0
C861 C 0.38504 0.9704 0.59218 0.0
N862 N 0.42616 0.97037 0.54916 0.0
N863 N 0.37482 0.03798 0.62784 0.0
C864 C 0.41414 0.98721 0.56917 0.0
C865 C 0.38746 0.02104 0.60993 0.0
N866 N 0.45744 0.03839 0.54409 0.0
N867 N 0.3388 0.96982 0.62101 0.0
H868 H 0.38595 0.06269 0.62445 0.0
H869 H 0.35351 0.02791 0.64496 0.0
H870 H 0.32538 0.94519 0.61645 0.0
H871 H 0.32554 0.97985 0.63229 0.0
H872 H 0.46703 0.02837 0.5237 0.0
H873 H 0.46874 0.06322 0.54189 0.0
H874 H 0.44882 0.98055 0.53558 0.0
H875 H 0.41295 0.94556 0.54633 0.0
C876 C 0.62126 0.63515 0.86729 0.0
C877 C 0.59994 0.63121 0.90091 0.0
C878 C 0.61755 0.59819 0.93933 0.0
C879 C 0.63311 0.59651 0.90167 0.0
N880 N 0.6504 0.61405 0.82949 0.0
N881 N 0.57761 0.60905 0.96981 0.0
C882 C 0.63562 0.61569 0.86584 0.0
C883 C 0.59859 0.61336 0.93773 0.0
N884 N 0.62743 0.65746 0.83648 0.0
N885 N 0.62046 0.58487 0.97628 0.0
H886 H 0.56397 0.62028 0.97011 0.0
H887 H 0.57245 0.59309 0.99494 0.0
H888 H 0.63445 0.57407 0.97836 0.0
H889 H 0.61179 0.58732 0.00566 0.0
H890 H 0.64481 0.66379 0.81293 0.0
H891 H 0.61712 0.67189 0.83738 0.0
H892 H 0.64965 0.6242 0.80047 0.0
H893 H 0.66196 0.60081 0.82778 0.0
C894 C 0.99239 0.60811 0.36395 0.0
C895 C 0.97521 0.58767 0.39843 0.0
C896 C 0.02633 0.60456 0.43561 0.0
C897 C 0.04329 0.62051 0.39791 0.0
N898 N 0.04216 0.63609 0.32494 0.0
N899 N 0.97555 0.5654 0.46715 0.0
C900 C 0.02621 0.6223 0.36199 0.0
C901 C 0.99208 0.58616 0.4348 0.0
N902 N 0.97609 0.61373 0.33271 0.0
N903 N 0.04295 0.60617 0.47175 0.0
H904 H 0.95066 0.55207 0.46798 0.0
H905 H 0.98637 0.55996 0.49196 0.0
H906 H 0.06785 0.61823 0.47292 0.0
H907 H 0.03224 0.59773 0.50139 0.0
H908 H 0.98702 0.63087 0.30889 0.0
H909 H 0.95132 0.60307 0.33319 0.0
H910 H 0.03087 0.63459 0.29598 0.0
H911 H 0.0669 0.64726 0.32233 0.0
C912 C 0.3918 0.02326 0.87521 0.0
C913 C 0.41698 0.0399 0.90491 0.0
C914 C 0.40611 0.98879 0.93626 0.0
C915 C 0.38234 0.97224 0.9047 0.0
N916 N 0.34533 0.97307 0.85455 0.0
N917 N 0.44079 0.03922 0.97202 0.0
C918 C 0.37277 0.9894 0.87765 0.0
C919 C 0.42157 0.02282 0.93842 0.0
N920 N 0.38695 0.03983 0.84365 0.0
N921 N 0.41509 0.97212 0.96257 0.0
H922 H 0.45137 0.06395 0.97466 0.0
H923 H 0.44359 0.02827 0.99903 0.0
H924 H 0.40333 0.94722 0.96288 0.0
H925 H 0.43496 0.98287 0.98257 0.0
H926 H 0.37155 0.02913 0.81793 0.0
H927 H 0.39965 0.06466 0.84258 0.0
H928 H 0.33542 0.98394 0.83627 0.0
H929 H 0.33072 0.94849 0.85792 0.0
C930 C 0.37579 0.38835 0.40285 0.0
C931 C 0.39312 0.42143 0.4128 0.0
C932 C 0.44001 0.41658 0.43142 0.0
C933 C 0.42503 0.38576 0.4129 0.0
N934 N 0.37755 0.33973 0.38761 0.0
N935 N 0.44074 0.46678 0.44051 0.0
C936 C 0.39231 0.37065 0.40124 0.0
C937 C 0.42479 0.43528 0.42908 0.0
N938 N 0.34378 0.37415 0.39476 0.0
N939 N 0.46897 0.42781 0.45106 0.0
H940 H 0.42981 0.48071 0.44115 0.0
H941 H 0.465 0.47957 0.44778 0.0
H942 H 0.48021 0.41419 0.4534 0.0
H943 H 0.48045 0.44902 0.46829 0.0
H944 H 0.32908 0.34985 0.38922 0.0
H945 H 0.33132 0.38655 0.39684 0.0
H946 H 0.35489 0.32784 0.37397 0.0
H947 H 0.3885 0.3259 0.39023 0.0
C948 C 0.02729 0.42273 0.94428 0.0
C949 C 0.04272 0.41529 0.91132 0.0
C950 C 0.99092 0.36961 0.89088 0.0
C951 C 0.9753 0.38212 0.91563 0.0
N952 N 0.97744 0.41715 0.97136 0.0
N953 N 0.03961 0.3802 0.8547 0.0
C954 C 0.9932 0.40735 0.94465 0.0
C955 C 0.02464 0.38793 0.88546 0.0
N956 N 0.04527 0.44464 0.9747 0.0
N957 N 0.97341 0.33994 0.87349 0.0
H958 H 0.06437 0.39245 0.85159 0.0
H959 H 0.02749 0.36282 0.83149 0.0
H960 H 0.94914 0.32557 0.88043 0.0
H961 H 0.98344 0.32836 0.85702 0.0
H962 H 0.03569 0.44989 1.00118 0.0
H963 H 0.07015 0.45564 0.97532 0.0
H964 H 0.98868 0.43779 0.98981 0.0
H965 H 0.95258 0.40444 0.97428 0.0
C966 C 0.62022 0.98567 0.39699 0.0
C967 C 0.58714 0.9692 0.40731 0.0
C968 C 0.58924 0.0203 0.42086 0.0
C969 C 0.62128 0.0369 0.40565 0.0
N970 N 0.66972 0.03672 0.38878 0.0
N971 N 0.54289 0.96986 0.4414 0.0
C972 C 0.63767 0.01994 0.3971 0.0
C973 C 0.57264 0.98636 0.4234 0.0
N974 N 0.6345 0.9684 0.38616 0.0
N975 N 0.5743 0.03712 0.43124 0.0
H976 H 0.53025 0.94502 0.44339 0.0
H977 H 0.53172 0.98047 0.45743 0.0
H978 H 0.58626 0.06199 0.43235 0.0
H979 H 0.54995 0.02677 0.43738 0.0
H980 H 0.65759 0.97814 0.3742 0.0
H981 H 0.62287 0.94368 0.38976 0.0
H982 H 0.68388 0.02645 0.38363 0.0
H983 H 0.68278 0.06159 0.38959 0.0
C984 C 0.43238 0.57287 0.95834 0.0
C985 C 0.46299 0.59788 0.9715 0.0
C986 C 0.44511 0.58317 0.04546 0.0
C987 C 0.41872 0.55357 0.03193 0.0
N988 N 0.39261 0.51815 0.97166 0.0
N989 N 0.50028 0.62099 0.0308 0.0
C990 C 0.41361 0.54774 0.98726 0.0
C991 C 0.46996 0.60164 0.01601 0.0
N992 N 0.42058 0.57335 0.91888 0.0
N993 N 0.44628 0.59429 0.0859 0.0
H994 H 0.52024 0.63237 0.01108 0.0
H995 H 0.50604 0.62219 0.06313 0.0
H996 H 0.42721 0.58314 0.10724 0.0
H997 H 0.46428 0.61676 0.09578 0.0
H998 H 0.39748 0.55644 0.90948 0.0
H999 H 0.43199 0.59281 0.89824 0.0
H1000 H 0.39037 0.5131 0.93902 0.0
H1001 H 0.38069 0.49788 0.99066 0.0
C1002 C 0.89457 0.42272 0.49562 0.0
C1003 C 0.86782 0.40568 0.52281 0.0
C1004 C 0.84141 0.43219 0.48879 0.0
C1005 C 0.87009 0.45256 0.46645 0.0
N1006 N 0.92605 0.47082 0.4544 0.0
N1007 N 0.81634 0.3954 0.54788 0.0
C1008 C 0.89723 0.44873 0.47132 0.0
C1009 C 0.84137 0.41081 0.5202 0.0
N1010 N 0.91735 0.41393 0.49268 0.0
N1011 N 0.81392 0.43219 0.47856 0.0
H1012 H 0.81473 0.37824 0.56952 0.0
H1013 H 0.79813 0.40088 0.55089 0.0
H1014 H 0.81301 0.44672 0.45461 0.0
H1015 H 0.79159 0.41585 0.4909 0.0
H1016 H 0.93585 0.42365 0.4704 0.0
H1017 H 0.9159 0.39462 0.50942 0.0
H1018 H 0.94734 0.47107 0.46085 0.0
H1019 H 0.92936 0.49083 0.43746 0.0
C1020 C 0.44851 0.89384 0.96501 0.0
C1021 C 0.41621 0.86853 0.96439 0.0
C1022 C 0.42874 0.84164 0.02157 0.0
C1023 C 0.46147 0.86573 0.01928 0.0
N1024 N 0.50353 0.90998 0.98068 0.0
N1025 N 0.37682 0.8154 0.98676 0.0
C1026 C 0.47168 0.89016 0.98819 0.0
C1027 C 0.40658 0.84155 0.99127 0.0
N1028 N 0.4568 0.92232 0.94568 0.0
N1029 N 0.41884 0.81896 0.05288 0.0
H1030 H 0.3602 0.81425 0.96452 0.0
H1031 H 0.36954 0.79386 0.00246 0.0
H1032 H 0.43475 0.81707 0.07359 0.0
H1033 H 0.39487 0.80311 0.0596 0.0
H1034 H 0.47929 0.94255 0.94896 0.0
H1035 H 0.44029 0.92697 0.9306 0.0
H1036 H 0.51213 0.92631 0.95555 0.0
H1037 H 0.52131 0.90782 0.99654 0.0
C1038 C 0.55186 0.40862 0.51636 0.0
C1039 C 0.55799 0.41281 0.47165 0.0
C1040 C 0.60694 0.46354 0.48656 0.0
C1041 C 0.60258 0.45756 0.53127 0.0
N1042 N 0.57693 0.41652 0.58535 0.0
N1043 N 0.59928 0.43831 0.41775 0.0
C1044 C 0.57702 0.42754 0.54516 0.0
C1045 C 0.58809 0.43833 0.45781 0.0
N1046 N 0.52199 0.38847 0.53202 0.0
N1047 N 0.62722 0.49331 0.47084 0.0
H1048 H 0.58775 0.41891 0.39706 0.0
H1049 H 0.62206 0.4556 0.40771 0.0
H1050 H 0.63919 0.51356 0.48985 0.0
H1051 H 0.62882 0.49845 0.43825 0.0
H1052 H 0.51678 0.38695 0.56458 0.0
H1053 H 0.50172 0.37659 0.51299 0.0
H1054 H 0.55962 0.39378 0.59544 0.0
H1055 H 0.59627 0.42817 0.60617 0.0
C1056 C 0.11423 0.55039 0.98144 0.0
C1057 C 0.14334 0.55152 0.97037 0.0
C1058 C 0.1728 0.59682 0.01921 0.0
C1059 C 0.14392 0.59661 0.02853 0.0
N1060 N 0.08792 0.5763 0.01513 0.0
N1061 N 0.20084 0.57846 0.97299 0.0
C1062 C 0.11488 0.57432 0.00851 0.0
C1063 C 0.17281 0.57544 0.98778 0.0
N1064 N 0.08576 0.52563 0.96735 0.0
N1065 N 0.20002 0.61702 0.0411 0.0
H1066 H 0.20161 0.56329 0.94993 0.0
H1067 H 0.22332 0.59728 0.98104 0.0
H1068 H 0.20108 0.63384 0.06293 0.0
H1069 H 0.22101 0.61597 0.03958 0.0
H1070 H 0.06354 0.52109 0.97835 0.0
H1071 H 0.08416 0.50795 0.94676 0.0
H1072 H 0.06689 0.56341 0.99775 0.0
H1073 H 0.0872 0.59264 0.03614 0.0
C1074 C 0.56145 0.11484 0.53282 0.0
C1075 C 0.55526 0.14066 0.53537 0.0
C1076 C 0.59442 0.16824 0.47801 0.0
C1077 C 0.60221 0.14352 0.47809 0.0
N1078 N 0.59775 0.09651 0.51161 0.0
N1079 N 0.56994 0.19452 0.51567 0.0
C1080 C 0.58734 0.11799 0.50763 0.0
C1081 C 0.57282 0.1681 0.50931 0.0
N1082 N 0.54138 0.08642 0.5524 0.0
N1083 N 0.60753 0.19175 0.44779 0.0
H1084 H 0.55486 0.19554 0.53868 0.0
H1085 H 0.58445 0.21635 0.50077 0.0
H1086 H 0.62497 0.19375 0.42629 0.0
H1087 H 0.59995 0.20819 0.44256 0.0
H1088 H 0.54245 0.06568 0.5474 0.0
H1089 H 0.52146 0.0824 0.57014 0.0
H1090 H 0.5902 0.07958 0.53596 0.0
H1091 H 0.61605 0.09728 0.49309 0.0
C1092 C 0.57931 0.41066 0.01569 0.0
C1093 C 0.55729 0.41783 0.03583 0.0
C1094 C 0.58277 0.47028 1.00044 0.0
C1095 C 0.60266 0.46182 0.97725 0.0
N1096 N 0.61857 0.42334 0.95935 0.0
N1097 N 0.53561 0.45305 0.04414 0.0
C1098 C 0.60054 0.43178 0.98387 0.0
C1099 C 0.55852 0.44738 0.02754 0.0
N1100 N 0.58096 0.38451 0.02853 0.0
N1101 N 0.58718 0.5004 0.99665 0.0
H1102 H 0.51775 0.43743 0.06488 0.0
H1103 H 0.53262 0.47208 0.03497 0.0
H1104 H 0.60352 0.5173 0.97547 0.0
H1105 H 0.57641 0.50955 0.01654 0.0
H1106 H 0.59843 0.37945 0.01817 0.0
H1107 H 0.56638 0.36922 0.05257 0.0
H1108 H 0.61561 0.4005 0.95902 0.0
H1109 H 0.63542 0.43887 0.93735 0.0
C1110 C 0.1201 0.56195 0.4794 0.0
C1111 C 0.14715 0.59299 0.47522 0.0
C1112 C 0.17447 0.58049 0.53183 0.0
C1113 C 0.14857 0.54855 0.5328 0.0
N1114 N 0.09943 0.50723 0.5018 0.0
N1115 N 0.20174 0.63093 0.49346 0.0
C1116 C 0.1223 0.53876 0.50466 0.0
C1117 C 0.17481 0.60214 0.5005 0.0
N1118 N 0.09169 0.5551 0.4609 0.0
N1119 N 0.19859 0.59012 0.56104 0.0
H1120 H 0.20272 0.64736 0.47105 0.0
H1121 H 0.22374 0.63765 0.50756 0.0
H1122 H 0.2 0.57444 0.58265 0.0
H1123 H 0.21622 0.61385 0.5654 0.0
H1124 H 0.0703 0.53403 0.46657 0.0
H1125 H 0.08866 0.57183 0.44356 0.0
H1126 H 0.08155 0.49833 0.47864 0.0
H1127 H 0.09995 0.48941 0.51991 0.0
C1128 C 0.6019 0.17058 0.01591 0.0
C1129 C 0.59735 0.141 0.03148 0.0
C1130 C 0.54831 0.11196 0.98869 0.0
C1131 C 0.55353 0.14144 0.97182 0.0
N1132 N 0.58599 0.19849 0.9655 0.0
N1133 N 0.56775 0.08343 0.03166 0.0
C1134 C 0.5805 0.17072 0.98448 0.0
C1135 C 0.57085 0.11167 0.0177 0.0
N1136 N 0.62605 0.19845 0.03235 0.0
N1137 N 0.52134 0.08423 0.9774 0.0
H1138 H 0.5827 0.08213 0.05456 0.0
H1139 H 0.5515 0.06115 0.01933 0.0
H1140 H 0.50526 0.08327 0.95443 0.0
H1141 H 0.51372 0.06226 0.99195 0.0
H1142 H 0.62899 0.22086 0.02595 0.0
H1143 H 0.64238 0.19907 0.05472 0.0
H1144 H 0.60671 0.22039 0.96977 0.0
H1145 H 0.57031 0.19937 0.94333 0.0
C1146 C 0.44496 0.60492 0.50867 0.0
C1147 C 0.46265 0.59525 0.53487 0.0
C1148 C 0.42967 0.54008 0.50935 0.0
C1149 C 0.41464 0.55039 0.47954 0.0
N1150 N 0.40939 0.59294 0.4479 0.0
N1151 N 0.4763 0.55483 0.55282 0.0
C1152 C 0.42277 0.58297 0.47831 0.0
C1153 C 0.4561 0.56311 0.53336 0.0
N1154 N 0.44833 0.63449 0.51399 0.0
N1155 N 0.41886 0.50823 0.51476 0.0
H1156 H 0.49667 0.57096 0.56959 0.0
H1157 H 0.47486 0.53279 0.54851 0.0
H1158 H 0.39999 0.49046 0.4973 0.0
H1159 H 0.42665 0.49926 0.53935 0.0
H1160 H 0.4338 0.64178 0.49898 0.0
H1161 H 0.46394 0.65097 0.53621 0.0
H1162 H 0.41707 0.61688 0.44183 0.0
H1163 H 0.39156 0.57718 0.42713 0.0
C1164 C 0.84489 0.40954 0.99699 0.0
C1165 C 0.87379 0.4177 0.97517 0.0
C1166 C 0.90001 0.47063 0.00919 0.0
C1167 C 0.87194 0.46164 0.03336 0.0
N1168 N 0.81869 0.42183 0.05426 0.0
N1169 N 0.9305 0.45367 0.96625 0.0
C1170 C 0.84466 0.43082 0.02845 0.0
C1171 C 0.90177 0.44769 0.98272 0.0
N1172 N 0.81743 0.38213 0.98638 0.0
N1173 N 0.9251 0.50124 0.01149 0.0
H1174 H 0.9331 0.43755 0.94697 0.0
H1175 H 0.95233 0.47331 0.97473 0.0
H1176 H 0.92541 0.51837 0.03199 0.0
H1177 H 0.94461 0.51045 0.99084 0.0
H1178 H 0.79491 0.37638 0.9977 0.0
H1179 H 0.81675 0.36604 0.96364 0.0
H1180 H 0.7995 0.3986 0.05597 0.0
H1181 H 0.81712 0.43739 0.07593 0.0
C1182 C 0.4709 0.88646 0.51103 0.0
C1183 C 0.45971 0.86214 0.47963 0.0
C1184 C 0.40545 0.83834 0.50992 0.0
C1185 C 0.41596 0.86509 0.53749 0.0
N1186 N 0.45778 0.91819 0.55721 0.0
N1187 N 0.41598 0.81583 0.44675 0.0
C1188 C 0.44849 0.89003 0.53634 0.0
C1189 C 0.42682 0.83835 0.47834 0.0
N1190 N 0.50298 0.90647 0.51668 0.0
N1191 N 0.37563 0.81238 0.51505 0.0
H1192 H 0.43126 0.81375 0.42505 0.0
H1193 H 0.39183 0.80032 0.44073 0.0
H1194 H 0.35965 0.81118 0.53838 0.0
H1195 H 0.36772 0.79094 0.49881 0.0
H1196 H 0.51244 0.92228 0.54227 0.0
H1197 H 0.52039 0.90534 0.49836 0.0
H1198 H 0.48018 0.93842 0.55319 0.0
H1199 H 0.44225 0.92275 0.57492 0.0
loop_
_geom_bond_atom_site_label_1
_geom_bond_atom_site_label_2
_geom_bond_distance
_geom_bond_site_symmetry_2
_ccdc_geom_bond_type
Co0 O1 2.216 . S
Co0 O2 2.091 . S
Co0 O4 2.004 . S
Co0 O10 2.021 . S
Co0 O12 2.137 . S
Co0 O13 2.244 . S
O1 Co0 2.216 . S
O1 C8 1.247 . S
O2 Co0 2.091 . S
O2 C8 1.261 . S
C3 O12 1.247 . S
C3 O13 1.272 . S
O4 Co0 2.004 . S
O4 C9 1.259 . S
Co5 O6 2.061 . S
Co5 O11 2.052 . S
Co5 O13 2.135 . S
O6 Co5 2.061 . S
O6 C9 1.235 . S
C7 O10 1.238 . S
C7 O11 1.241 . S
C8 O1 1.247 . S
C8 O2 1.261 . S
C9 O4 1.259 . S
C9 O6 1.235 . S
O10 Co0 2.021 . S
O10 C7 1.238 . S
O11 Co5 2.052 . S
O11 C7 1.241 . S
O12 Co0 2.137 . S
O12 C3 1.247 . S
O13 Co0 2.244 . S
O13 C3 1.272 . S
O13 Co5 2.135 . S
Co14 O15 2.216 . S
Co14 O16 2.091 . S
Co14 O18 2.004 . S
Co14 O24 2.021 . S
Co14 O26 2.137 . S
Co14 O27 2.244 . S
O15 Co14 2.216 . S
O15 C22 1.247 . S
O16 Co14 2.091 . S
O16 C22 1.261 . S
C17 O26 1.247 . S
C17 O27 1.272 . S
O18 Co14 2.004 . S
O18 C23 1.259 . S
Co19 O20 2.061 . S
Co19 O25 2.052 . S
Co19 O27 2.135 . S
O20 Co19 2.061 . S
O20 C23 1.235 . S
C21 O24 1.238 . S
C21 O25 1.241 . S
C22 O15 1.247 . S
C22 O16 1.261 . S
C23 O18 1.259 . S
C23 O20 1.235 . S
O24 Co14 2.021 . S
O24 C21 1.238 . S
O25 Co19 2.052 . S
O25 C21 1.241 . S
O26 Co14 2.137 . S
O26 C17 1.247 . S
O27 Co14 2.244 . S
O27 C17 1.272 . S
O27 Co19 2.135 . S
Co28 O29 2.216 . S
Co28 O30 2.091 . S
Co28 O32 2.004 . S
Co28 O38 2.021 . S
Co28 O40 2.137 . S
Co28 O41 2.244 . S
O29 Co28 2.216 . S
O29 C36 1.247 . S
O30 Co28 2.091 . S
O30 C36 1.261 . S
C31 O40 1.247 . S
C31 O41 1.272 . S
O32 Co28 2.004 . S
O32 C37 1.259 . S
Co33 O34 2.061 . S
Co33 O39 2.052 . S
Co33 O41 2.135 . S
O34 Co33 2.061 . S
O34 C37 1.235 . S
C35 O38 1.238 . S
C35 O39 1.241 . S
C36 O29 1.247 . S
C36 O30 1.261 . S
C37 O32 1.259 . S
C37 O34 1.235 . S
O38 Co28 2.021 . S
O38 C35 1.238 . S
O39 Co33 2.052 . S
O39 C35 1.241 . S
O40 Co28 2.137 . S
O40 C31 1.247 . S
O41 Co28 2.244 . S
O41 C31 1.272 . S
O41 Co33 2.135 . S
Co42 O43 2.216 . S
Co42 O44 2.091 . S
Co42 O46 2.004 . S
Co42 O52 2.021 . S
Co42 O54 2.137 . S
Co42 O55 2.244 . S
O43 Co42 2.216 . S
O43 C50 1.247 . S
O44 Co42 2.091 . S
O44 C50 1.261 . S
C45 O54 1.247 . S
C45 O55 1.272 . S
O46 Co42 2.004 . S
O46 C51 1.259 . S
Co47 O48 2.061 . S
Co47 O53 2.052 . S
Co47 O55 2.135 . S
O48 Co47 2.061 . S
O48 C51 1.235 . S
C49 O52 1.238 . S
C49 O53 1.241 . S
C50 O43 1.247 . S
C50 O44 1.261 . S
C51 O46 1.259 . S
C51 O48 1.235 . S
O52 Co42 2.021 . S
O52 C49 1.238 . S
O53 Co47 2.052 . S
O53 C49 1.241 . S
O54 Co42 2.137 . S
O54 C45 1.247 . S
O55 Co42 2.244 . S
O55 C45 1.272 . S
O55 Co47 2.135 . S
Co56 O57 2.216 . S
Co56 O58 2.091 . S
Co56 O60 2.004 . S
Co56 O66 2.021 . S
Co56 O68 2.137 . S
Co56 O69 2.244 . S
O57 Co56 2.216 . S
O57 C64 1.247 . S
O58 Co56 2.091 . S
O58 C64 1.261 . S
C59 O68 1.247 . S
C59 O69 1.272 . S
O60 Co56 2.004 . S
O60 C65 1.259 . S
Co61 O62 2.061 . S
Co61 O67 2.052 . S
Co61 O69 2.135 . S
O62 Co61 2.061 . S
O62 C65 1.235 . S
C63 O66 1.238 . S
C63 O67 1.241 . S
C64 O57 1.247 . S
C64 O58 1.261 . S
C65 O60 1.259 . S
C65 O62 1.235 . S
O66 Co56 2.021 . S
O66 C63 1.238 . S
O67 Co61 2.052 . S
O67 C63 1.241 . S
O68 Co56 2.137 . S
O68 C59 1.247 . S
O69 Co56 2.244 . S
O69 C59 1.272 . S
O69 Co61 2.135 . S
Co70 O71 2.216 . S
Co70 O72 2.091 . S
Co70 O74 2.004 . S
Co70 O80 2.021 . S
Co70 O82 2.137 . S
Co70 O83 2.244 . S
O71 Co70 2.216 . S
O71 C78 1.247 . S
O72 Co70 2.091 . S
O72 C78 1.261 . S
C73 O82 1.247 . S
C73 O83 1.272 . S
O74 Co70 2.004 . S
O74 C79 1.259 . S
Co75 O76 2.061 . S
Co75 O81 2.052 . S
Co75 O83 2.135 . S
O76 Co75 2.061 . S
O76 C79 1.235 . S
C77 O80 1.238 . S
C77 O81 1.241 . S
C78 O71 1.247 . S
C78 O72 1.261 . S
C79 O74 1.259 . S
C79 O76 1.235 . S
O80 Co70 2.021 . S
O80 C77 1.238 . S
O81 Co75 2.052 . S
O81 C77 1.241 . S
O82 Co70 2.137 . S
O82 C73 1.247 . S
O83 Co70 2.244 . S
O83 C73 1.272 . S
O83 Co75 2.135 . S
Co84 O85 2.216 . S
Co84 O86 2.091 . S
Co84 O88 2.004 . S
Co84 O94 2.021 . S
Co84 O96 2.137 . S
Co84 O97 2.244 . S
O85 Co84 2.216 . S
O85 C92 1.247 . S
O86 Co84 2.091 . S
O86 C92 1.261 . S
C87 O96 1.247 . S
C87 O97 1.272 . S
O88 Co84 2.004 . S
O88 C93 1.259 . S
Co89 O90 2.061 . S
Co89 O95 2.052 . S
Co89 O97 2.135 . S
O90 Co89 2.061 . S
O90 C93 1.235 . S
C91 O94 1.238 . S
C91 O95 1.241 . S
C92 O85 1.247 . S
C92 O86 1.261 . S
C93 O88 1.259 . S
C93 O90 1.235 . S
O94 Co84 2.021 . S
O94 C91 1.238 . S
O95 Co89 2.052 . S
O95 C91 1.241 . S
O96 Co84 2.137 . S
O96 C87 1.247 . S
O97 Co84 2.244 . S
O97 C87 1.272 . S
O97 Co89 2.135 . S
Co98 O99 2.216 . S
Co98 O100 2.091 . S
Co98 O102 2.004 . S
Co98 O108 2.021 . S
Co98 O110 2.137 . S
Co98 O111 2.244 . S
O99 Co98 2.216 . S
O99 C106 1.247 . S
O100 Co98 2.091 . S
O100 C106 1.261 . S
C101 O110 1.247 . S
C101 O111 1.272 . S
O102 Co98 2.004 . S
O102 C107 1.259 . S
Co103 O104 2.061 . S
Co103 O109 2.052 . S
Co103 O111 2.135 . S
O104 Co103 2.061 . S
O104 C107 1.235 . S
C105 O108 1.238 . S
C105 O109 1.241 . S
C106 O99 1.247 . S
C106 O100 1.261 . S
C107 O102 1.259 . S
C107 O104 1.235 . S
O108 Co98 2.021 . S
O108 C105 1.238 . S
O109 Co103 2.052 . S
O109 C105 1.241 . S
O110 Co98 2.137 . S
O110 C101 1.247 . S
O111 Co98 2.244 . S
O111 C101 1.272 . S
O111 Co103 2.135 . S
Co112 O113 2.216 . S
Co112 O114 2.091 . S
Co112 O116 2.004 . S
Co112 O122 2.021 . S
Co112 O124 2.137 . S
Co112 O125 2.244 . S
O113 Co112 2.216 . S
O113 C120 1.247 . S
O114 Co112 2.091 . S
O114 C120 1.261 . S
C115 O124 1.247 . S
C115 O125 1.272 . S
O116 Co112 2.004 . S
O116 C121 1.259 . S
Co117 O118 2.061 . S
Co117 O123 2.052 . S
Co117 O125 2.135 . S
O118 Co117 2.061 . S
O118 C121 1.235 . S
C119 O122 1.238 . S
C119 O123 1.241 . S
C120 O113 1.247 . S
C120 O114 1.261 . S
C121 O116 1.259 . S
C121 O118 1.235 . S
O122 Co112 2.021 . S
O122 C119 1.238 . S
O123 Co117 2.052 . S
O123 C119 1.241 . S
O124 Co112 2.137 . S
O124 C115 1.247 . S
O125 Co112 2.244 . S
O125 C115 1.272 . S
O125 Co117 2.135 . S
Co126 O127 2.216 . S
Co126 O128 2.091 . S
Co126 O130 2.004 . S
Co126 O136 2.021 . S
Co126 O138 2.137 . S
Co126 O139 2.244 . S
O127 Co126 2.216 . S
O127 C134 1.247 . S
O128 Co126 2.091 . S
O128 C134 1.261 . S
C129 O138 1.247 . S
C129 O139 1.272 . S
O130 Co126 2.004 . S
O130 C135 1.259 . S
Co131 O132 2.061 . S
Co131 O137 2.052 . S
Co131 O139 2.135 . S
O132 Co131 2.061 . S
O132 C135 1.235 . S
C133 O136 1.238 . S
C133 O137 1.241 . S
C134 O127 1.247 . S
C134 O128 1.261 . S
C135 O130 1.259 . S
C135 O132 1.235 . S
O136 Co126 2.021 . S
O136 C133 1.238 . S
O137 Co131 2.052 . S
O137 C133 1.241 . S
O138 Co126 2.137 . S
O138 C129 1.247 . S
O139 Co126 2.244 . S
O139 C129 1.272 . S
O139 Co131 2.135 . S
Co140 O141 2.216 . S
Co140 O142 2.091 . S
Co140 O144 2.004 . S
Co140 O150 2.021 . S
Co140 O152 2.137 . S
Co140 O153 2.244 . S
O141 Co140 2.216 . S
O141 C148 1.247 . S
O142 Co140 2.091 . S
O142 C148 1.261 . S
C143 O152 1.247 . S
C143 O153 1.272 . S
O144 Co140 2.004 . S
O144 C149 1.259 . S
Co145 O146 2.061 . S
Co145 O151 2.052 . S
Co145 O153 2.135 . S
O146 Co145 2.061 . S
O146 C149 1.235 . S
C147 O150 1.238 . S
C147 O151 1.241 . S
C148 O141 1.247 . S
C148 O142 1.261 . S
C149 O144 1.259 . S
C149 O146 1.235 . S
O150 Co140 2.021 . S
O150 C147 1.238 . S
O151 Co145 2.052 . S
O151 C147 1.241 . S
O152 Co140 2.137 . S
O152 C143 1.247 . S
O153 Co140 2.244 . S
O153 C143 1.272 . S
O153 Co145 2.135 . S
Co154 O155 2.216 . S
Co154 O156 2.091 . S
Co154 O158 2.004 . S
Co154 O164 2.021 . S
Co154 O166 2.137 . S
Co154 O167 2.244 . S
O155 Co154 2.216 . S
O155 C162 1.247 . S
O156 Co154 2.091 . S
O156 C162 1.261 . S
C157 O166 1.247 . S
C157 O167 1.272 . S
O158 Co154 2.004 . S
O158 C163 1.259 . S
Co159 O160 2.061 . S
Co159 O165 2.052 . S
Co159 O167 2.135 . S
O160 Co159 2.061 . S
O160 C163 1.235 . S
C161 O164 1.238 . S
C161 O165 1.241 . S
C162 O155 1.247 . S
C162 O156 1.261 . S
C163 O158 1.259 . S
C163 O160 1.235 . S
O164 Co154 2.021 . S
O164 C161 1.238 . S
O165 Co159 2.052 . S
O165 C161 1.241 . S
O166 Co154 2.137 . S
O166 C157 1.247 . S
O167 Co154 2.244 . S
O167 C157 1.272 . S
O167 Co159 2.135 . S
Co168 O169 2.216 . S
Co168 O170 2.091 . S
Co168 O172 2.004 . S
Co168 O178 2.021 . S
Co168 O180 2.137 . S
Co168 O181 2.244 . S
O169 Co168 2.216 . S
O169 C176 1.247 . S
O170 Co168 2.091 . S
O170 C176 1.261 . S
C171 O180 1.247 . S
C171 O181 1.272 . S
O172 Co168 2.004 . S
O172 C177 1.259 . S
Co173 O174 2.061 . S
Co173 O179 2.052 . S
Co173 O181 2.135 . S
O174 Co173 2.061 . S
O174 C177 1.235 . S
C175 O178 1.238 . S
C175 O179 1.241 . S
C176 O169 1.247 . S
C176 O170 1.261 . S
C177 O172 1.259 . S
C177 O174 1.235 . S
O178 Co168 2.021 . S
O178 C175 1.238 . S
O179 Co173 2.052 . S
O179 C175 1.241 . S
O180 Co168 2.137 . S
O180 C171 1.247 . S
O181 Co168 2.244 . S
O181 C171 1.272 . S
O181 Co173 2.135 . S
Co182 O183 2.216 . S
Co182 O184 2.091 . S
Co182 O186 2.004 . S
Co182 O192 2.021 . S
Co182 O194 2.137 . S
Co182 O195 2.244 . S
O183 Co182 2.216 . S
O183 C190 1.247 . S
O184 Co182 2.091 . S
O184 C190 1.261 . S
C185 O194 1.247 . S
C185 O195 1.272 . S
O186 Co182 2.004 . S
O186 C191 1.259 . S
Co187 O188 2.061 . S
Co187 O193 2.052 . S
Co187 O195 2.135 . S
O188 Co187 2.061 . S
O188 C191 1.235 . S
C189 O192 1.238 . S
C189 O193 1.241 . S
C190 O183 1.247 . S
C190 O184 1.261 . S
C191 O186 1.259 . S
C191 O188 1.235 . S
O192 Co182 2.021 . S
O192 C189 1.238 . S
O193 Co187 2.052 . S
O193 C189 1.241 . S
O194 Co182 2.137 . S
O194 C185 1.247 . S
O195 Co182 2.244 . S
O195 C185 1.272 . S
O195 Co187 2.135 . S
Co196 O197 2.216 . S
Co196 O198 2.091 . S
Co196 O200 2.004 . S
Co196 O206 2.021 . S
Co196 O208 2.137 . S
Co196 O209 2.244 . S
O197 Co196 2.216 . S
O197 C204 1.247 . S
O198 Co196 2.091 . S
O198 C204 1.261 . S
C199 O208 1.247 . S
C199 O209 1.272 . S
O200 Co196 2.004 . S
O200 C205 1.259 . S
Co201 O202 2.061 . S
Co201 O207 2.052 . S
Co201 O209 2.135 . S
O202 Co201 2.061 . S
O202 C205 1.235 . S
C203 O206 1.238 . S
C203 O207 1.241 . S
C204 O197 1.247 . S
C204 O198 1.261 . S
C205 O200 1.259 . S
C205 O202 1.235 . S
O206 Co196 2.021 . S
O206 C203 1.238 . S
O207 Co201 2.052 . S
O207 C203 1.241 . S
O208 Co196 2.137 . S
O208 C199 1.247 . S
O209 Co196 2.244 . S
O209 C199 1.272 . S
O209 Co201 2.135 . S
Co210 O211 2.216 . S
Co210 O212 2.091 . S
Co210 O214 2.004 . S
Co210 O220 2.021 . S
Co210 O222 2.137 . S
Co210 O223 2.244 . S
O211 Co210 2.216 . S
O211 C218 1.247 . S
O212 Co210 2.091 . S
O212 C218 1.261 . S
C213 O222 1.247 . S
C213 O223 1.272 . S
O214 Co210 2.004 . S
O214 C219 1.259 . S
Co215 O216 2.061 . S
Co215 O221 2.052 . S
Co215 O223 2.135 . S
O216 Co215 2.061 . S
O216 C219 1.235 . S
C217 O220 1.238 . S
C217 O221 1.241 . S
C218 O211 1.247 . S
C218 O212 1.261 . S
C219 O214 1.259 . S
C219 O216 1.235 . S
O220 Co210 2.021 . S
O220 C217 1.238 . S
O221 Co215 2.052 . S
O221 C217 1.241 . S
O222 Co210 2.137 . S
O222 C213 1.247 . S
O223 Co210 2.244 . S
O223 C213 1.272 . S
O223 Co215 2.135 . S
Co224 O225 2.216 . S
Co224 O226 2.091 . S
Co224 O228 2.004 . S
Co224 O234 2.021 . S
Co224 O236 2.137 . S
Co224 O237 2.244 . S
O225 Co224 2.216 . S
O225 C232 1.247 . S
O226 Co224 2.091 . S
O226 C232 1.261 . S
C227 O236 1.247 . S
C227 O237 1.272 . S
O228 Co224 2.004 . S
O228 C233 1.259 . S
Co229 O230 2.061 . S
Co229 O235 2.052 . S
Co229 O237 2.135 . S
O230 Co229 2.061 . S
O230 C233 1.235 . S
C231 O234 1.238 . S
C231 O235 1.241 . S
C232 O225 1.247 . S
C232 O226 1.261 . S
C233 O228 1.259 . S
C233 O230 1.235 . S
O234 Co224 2.021 . S
O234 C231 1.238 . S
O235 Co229 2.052 . S
O235 C231 1.241 . S
O236 Co224 2.137 . S
O236 C227 1.247 . S
O237 Co224 2.244 . S
O237 C227 1.272 . S
O237 Co229 2.135 . S
Co238 O239 2.216 . S
Co238 O240 2.091 . S
Co238 O242 2.004 . S
Co238 O248 2.021 . S
Co238 O250 2.137 . S
Co238 O251 2.244 . S
O239 Co238 2.216 . S
O239 C246 1.247 . S
O240 Co238 2.091 . S
O240 C246 1.261 . S
C241 O250 1.247 . S
C241 O251 1.272 . S
O242 Co238 2.004 . S
O242 C247 1.259 . S
Co243 O244 2.061 . S
Co243 O249 2.052 . S
Co243 O251 2.135 . S
O244 Co243 2.061 . S
O244 C247 1.235 . S
C245 O248 1.238 . S
C245 O249 1.241 . S
C246 O239 1.247 . S
C246 O240 1.261 . S
C247 O242 1.259 . S
C247 O244 1.235 . S
O248 Co238 2.021 . S
O248 C245 1.238 . S
O249 Co243 2.052 . S
O249 C245 1.241 . S
O250 Co238 2.137 . S
O250 C241 1.247 . S
O251 Co238 2.244 . S
O251 C241 1.272 . S
O251 Co243 2.135 . S
Co252 O253 2.216 . S
Co252 O254 2.091 . S
Co252 O256 2.004 . S
Co252 O262 2.021 . S
Co252 O264 2.137 . S
Co252 O265 2.244 . S
O253 Co252 2.216 . S
O253 C260 1.247 . S
O254 Co252 2.091 . S
O254 C260 1.261 . S
C255 O264 1.247 . S
C255 O265 1.272 . S
O256 Co252 2.004 . S
O256 C261 1.259 . S
Co257 O258 2.061 . S
Co257 O263 2.052 . S
Co257 O265 2.135 . S
O258 Co257 2.061 . S
O258 C261 1.235 . S
C259 O262 1.238 . S
C259 O263 1.241 . S
C260 O253 1.247 . S
C260 O254 1.261 . S
C261 O256 1.259 . S
C261 O258 1.235 . S
O262 Co252 2.021 . S
O262 C259 1.238 . S
O263 Co257 2.052 . S
O263 C259 1.241 . S
O264 Co252 2.137 . S
O264 C255 1.247 . S
O265 Co252 2.244 . S
O265 C255 1.272 . S
O265 Co257 2.135 . S
Co266 O267 2.216 . S
Co266 O268 2.091 . S
Co266 O270 2.004 . S
Co266 O276 2.021 . S
Co266 O278 2.137 . S
Co266 O279 2.244 . S
O267 Co266 2.216 . S
O267 C274 1.247 . S
O268 Co266 2.091 . S
O268 C274 1.261 . S
C269 O278 1.247 . S
C269 O279 1.272 . S
O270 Co266 2.004 . S
O270 C275 1.259 . S
Co271 O272 2.061 . S
Co271 O277 2.052 . S
Co271 O279 2.135 . S
O272 Co271 2.061 . S
O272 C275 1.235 . S
C273 O276 1.238 . S
C273 O277 1.241 . S
C274 O267 1.247 . S
C274 O268 1.261 . S
C275 O270 1.259 . S
C275 O272 1.235 . S
O276 Co266 2.021 . S
O276 C273 1.238 . S
O277 Co271 2.052 . S
O277 C273 1.241 . S
O278 Co266 2.137 . S
O278 C269 1.247 . S
O279 Co266 2.244 . S
O279 C269 1.272 . S
O279 Co271 2.135 . S
Co280 O281 2.216 . S
Co280 O282 2.091 . S
Co280 O284 2.004 . S
Co280 O290 2.021 . S
Co280 O292 2.137 . S
Co280 O293 2.244 . S
O281 Co280 2.216 . S
O281 C288 1.247 . S
O282 Co280 2.091 . S
O282 C288 1.261 . S
C283 O292 1.247 . S
C283 O293 1.272 . S
O284 Co280 2.004 . S
O284 C289 1.259 . S
Co285 O286 2.061 . S
Co285 O291 2.052 . S
Co285 O293 2.135 . S
O286 Co285 2.061 . S
O286 C289 1.235 . S
C287 O290 1.238 . S
C287 O291 1.241 . S
C288 O281 1.247 . S
C288 O282 1.261 . S
C289 O284 1.259 . S
C289 O286 1.235 . S
O290 Co280 2.021 . S
O290 C287 1.238 . S
O291 Co285 2.052 . S
O291 C287 1.241 . S
O292 Co280 2.137 . S
O292 C283 1.247 . S
O293 Co280 2.244 . S
O293 C283 1.272 . S
O293 Co285 2.135 . S
Co294 O295 2.216 . S
Co294 O296 2.091 . S
Co294 O298 2.004 . S
Co294 O304 2.021 . S
Co294 O306 2.137 . S
Co294 O307 2.244 . S
O295 Co294 2.216 . S
O295 C302 1.247 . S
O296 Co294 2.091 . S
O296 C302 1.261 . S
C297 O306 1.247 . S
C297 O307 1.272 . S
O298 Co294 2.004 . S
O298 C303 1.259 . S
Co299 O300 2.061 . S
Co299 O305 2.052 . S
Co299 O307 2.135 . S
O300 Co299 2.061 . S
O300 C303 1.235 . S
C301 O304 1.238 . S
C301 O305 1.241 . S
C302 O295 1.247 . S
C302 O296 1.261 . S
C303 O298 1.259 . S
C303 O300 1.235 . S
O304 Co294 2.021 . S
O304 C301 1.238 . S
O305 Co299 2.052 . S
O305 C301 1.241 . S
O306 Co294 2.137 . S
O306 C297 1.247 . S
O307 Co294 2.244 . S
O307 C297 1.272 . S
O307 Co299 2.135 . S
Co308 O309 2.216 . S
Co308 O310 2.091 . S
Co308 O312 2.004 . S
Co308 O318 2.021 . S
Co308 O320 2.137 . S
Co308 O321 2.244 . S
O309 Co308 2.216 . S
O309 C316 1.247 . S
O310 Co308 2.091 . S
O310 C316 1.261 . S
C311 O320 1.247 . S
C311 O321 1.272 . S
O312 Co308 2.004 . S
O312 C317 1.259 . S
Co313 O314 2.061 . S
Co313 O319 2.052 . S
Co313 O321 2.135 . S
O314 Co313 2.061 . S
O314 C317 1.235 . S
C315 O318 1.238 . S
C315 O319 1.241 . S
C316 O309 1.247 . S
C316 O310 1.261 . S
C317 O312 1.259 . S
C317 O314 1.235 . S
O318 Co308 2.021 . S
O318 C315 1.238 . S
O319 Co313 2.052 . S
O319 C315 1.241 . S
O320 Co308 2.137 . S
O320 C311 1.247 . S
O321 Co308 2.244 . S
O321 C311 1.272 . S
O321 Co313 2.135 . S
Co322 O323 2.216 . S
Co322 O324 2.091 . S
Co322 O326 2.004 . S
Co322 O332 2.021 . S
Co322 O334 2.137 . S
Co322 O335 2.244 . S
O323 Co322 2.216 . S
O323 C330 1.247 . S
O324 Co322 2.091 . S
O324 C330 1.261 . S
C325 O334 1.247 . S
C325 O335 1.272 . S
O326 Co322 2.004 . S
O326 C331 1.259 . S
Co327 O328 2.061 . S
Co327 O333 2.052 . S
Co327 O335 2.135 . S
O328 Co327 2.061 . S
O328 C331 1.235 . S
C329 O332 1.238 . S
C329 O333 1.241 . S
C330 O323 1.247 . S
C330 O324 1.261 . S
C331 O326 1.259 . S
C331 O328 1.235 . S
O332 Co322 2.021 . S
O332 C329 1.238 . S
O333 Co327 2.052 . S
O333 C329 1.241 . S
O334 Co322 2.137 . S
O334 C325 1.247 . S
O335 Co322 2.244 . S
O335 C325 1.272 . S
O335 Co327 2.135 . S
C336 C337 1.363 . S
C336 C342 1.379 . S
C336 N344 1.356 . S
C337 C336 1.363 . S
C337 C343 1.363 . S
C338 C339 1.363 . S
C338 C343 1.379 . S
C338 N345 1.356 . S
C339 C338 1.363 . S
C339 C342 1.363 . S
N340 C342 1.356 . S
N340 H352 0.984 . S
N340 H353 0.985 . S
N341 C343 1.356 . S
N341 H346 0.984 . S
N341 H347 0.985 . S
C342 C336 1.379 . S
C342 C339 1.363 . S
C342 N340 1.356 . S
C343 C337 1.363 . S
C343 C338 1.379 . S
C343 N341 1.356 . S
N344 C336 1.356 . S
N344 H350 0.984 . S
N344 H351 0.984 . S
N345 C338 1.356 . S
N345 H348 0.984 . S
N345 H349 0.985 . S
H346 N341 0.984 . S
H347 N341 0.985 . S
H348 N345 0.984 . S
H349 N345 0.985 . S
H350 N344 0.984 . S
H351 N344 0.984 . S
H352 N340 0.984 . S
H353 N340 0.985 . S
C354 C355 1.363 . S
C354 C360 1.379 . S
C354 N362 1.356 . S
C355 C354 1.363 . S
C355 C361 1.363 . S
C356 C357 1.363 . S
C356 C361 1.379 . S
C356 N363 1.356 . S
C357 C356 1.363 . S
C357 C360 1.363 . S
N358 C360 1.356 . S
N358 H370 0.984 . S
N358 H371 0.985 . S
N359 C361 1.356 . S
N359 H364 0.984 . S
N359 H365 0.985 . S
C360 C354 1.379 . S
C360 C357 1.363 . S
C360 N358 1.356 . S
C361 C355 1.363 . S
C361 C356 1.379 . S
C361 N359 1.356 . S
N362 C354 1.356 . S
N362 H368 0.984 . S
N362 H369 0.984 . S
N363 C356 1.356 . S
N363 H366 0.984 . S
N363 H367 0.985 . S
H364 N359 0.984 . S
H365 N359 0.985 . S
H366 N363 0.984 . S
H367 N363 0.985 . S
H368 N362 0.984 . S
H369 N362 0.984 . S
H370 N358 0.984 . S
H371 N358 0.985 . S
C372 C373 1.363 . S
C372 C378 1.379 . S
C372 N380 1.356 . S
C373 C372 1.363 . S
C373 C379 1.363 . S
C374 C375 1.363 . S
C374 C379 1.379 . S
C374 N381 1.356 . S
C375 C374 1.363 . S
C375 C378 1.363 . S
N376 C378 1.356 . S
N376 H388 0.984 . S
N376 H389 0.985 . S
N377 C379 1.356 . S
N377 H382 0.984 . S
N377 H383 0.985 . S
C378 C372 1.379 . S
C378 C375 1.363 . S
C378 N376 1.356 . S
C379 C373 1.363 . S
C379 C374 1.379 . S
C379 N377 1.356 . S
N380 C372 1.356 . S
N380 H386 0.984 . S
N380 H387 0.984 . S
N381 C374 1.356 . S
N381 H384 0.984 . S
N381 H385 0.985 . S
H382 N377 0.984 . S
H383 N377 0.985 . S
H384 N381 0.984 . S
H385 N381 0.985 . S
H386 N380 0.984 . S
H387 N380 0.984 . S
H388 N376 0.984 . S
H389 N376 0.985 . S
C390 C391 1.363 . S
C390 C396 1.379 . S
C390 N398 1.356 . S
C391 C390 1.363 . S
C391 C397 1.363 . S
C392 C393 1.363 . S
C392 C397 1.379 . S
C392 N399 1.356 . S
C393 C392 1.363 . S
C393 C396 1.363 . S
N394 C396 1.356 . S
N394 H406 0.984 . S
N394 H407 0.985 . S
N395 C397 1.356 . S
N395 H400 0.984 . S
N395 H401 0.985 . S
C396 C390 1.379 . S
C396 C393 1.363 . S
C396 N394 1.356 . S
C397 C391 1.363 . S
C397 C392 1.379 . S
C397 N395 1.356 . S
N398 C390 1.356 . S
N398 H404 0.984 . S
N398 H405 0.984 . S
N399 C392 1.356 . S
N399 H402 0.984 . S
N399 H403 0.985 . S
H400 N395 0.984 . S
H401 N395 0.985 . S
H402 N399 0.984 . S
H403 N399 0.985 . S
H404 N398 0.984 . S
H405 N398 0.984 . S
H406 N394 0.984 . S
H407 N394 0.985 . S
C408 C409 1.363 . S
C408 C414 1.379 . S
C408 N416 1.356 . S
C409 C408 1.363 . S
C409 C415 1.363 . S
C410 C411 1.363 . S
C410 C415 1.379 . S
C410 N417 1.356 . S
C411 C410 1.363 . S
C411 C414 1.363 . S
N412 C414 1.356 . S
N412 H424 0.984 . S
N412 H425 0.985 . S
N413 C415 1.356 . S
N413 H418 0.984 . S
N413 H419 0.985 . S
C414 C408 1.379 . S
C414 C411 1.363 . S
C414 N412 1.356 . S
C415 C409 1.363 . S
C415 C410 1.379 . S
C415 N413 1.356 . S
N416 C408 1.356 . S
N416 H422 0.984 . S
N416 H423 0.984 . S
N417 C410 1.356 . S
N417 H420 0.984 . S
N417 H421 0.985 . S
H418 N413 0.984 . S
H419 N413 0.985 . S
H420 N417 0.984 . S
H421 N417 0.985 . S
H422 N416 0.984 . S
H423 N416 0.984 . S
H424 N412 0.984 . S
H425 N412 0.985 . S
C426 C427 1.363 . S
C426 C432 1.379 . S
C426 N434 1.356 . S
C427 C426 1.363 . S
C427 C433 1.363 . S
C428 C429 1.363 . S
C428 C433 1.379 . S
C428 N435 1.356 . S
C429 C428 1.363 . S
C429 C432 1.363 . S
N430 C432 1.356 . S
N430 H442 0.984 . S
N430 H443 0.985 . S
N431 C433 1.356 . S
N431 H436 0.984 . S
N431 H437 0.985 . S
C432 C426 1.379 . S
C432 C429 1.363 . S
C432 N430 1.356 . S
C433 C427 1.363 . S
C433 C428 1.379 . S
C433 N431 1.356 . S
N434 C426 1.356 . S
N434 H440 0.984 . S
N434 H441 0.984 . S
N435 C428 1.356 . S
N435 H438 0.984 . S
N435 H439 0.985 . S
H436 N431 0.984 . S
H437 N431 0.985 . S
H438 N435 0.984 . S
H439 N435 0.985 . S
H440 N434 0.984 . S
H441 N434 0.984 . S
H442 N430 0.984 . S
H443 N430 0.985 . S
C444 C445 1.363 . S
C444 C450 1.379 . S
C444 N452 1.356 . S
C445 C444 1.363 . S
C445 C451 1.363 . S
C446 C447 1.363 . S
C446 C451 1.379 . S
C446 N453 1.356 . S
C447 C446 1.363 . S
C447 C450 1.363 . S
N448 C450 1.356 . S
N448 H460 0.984 . S
N448 H461 0.985 . S
N449 C451 1.356 . S
N449 H454 0.984 . S
N449 H455 0.985 . S
C450 C444 1.379 . S
C450 C447 1.363 . S
C450 N448 1.356 . S
C451 C445 1.363 . S
C451 C446 1.379 . S
C451 N449 1.356 . S
N452 C444 1.356 . S
N452 H458 0.984 . S
N452 H459 0.984 . S
N453 C446 1.356 . S
N453 H456 0.984 . S
N453 H457 0.985 . S
H454 N449 0.984 . S
H455 N449 0.985 . S
H456 N453 0.984 . S
H457 N453 0.985 . S
H458 N452 0.984 . S
H459 N452 0.984 . S
H460 N448 0.984 . S
H461 N448 0.985 . S
C462 C463 1.363 . S
C462 C468 1.379 . S
C462 N470 1.356 . S
C463 C462 1.363 . S
C463 C469 1.363 . S
C464 C465 1.363 . S
C464 C469 1.379 . S
C464 N471 1.356 . S
C465 C464 1.363 . S
C465 C468 1.363 . S
N466 C468 1.356 . S
N466 H478 0.984 . S
N466 H479 0.985 . S
N467 C469 1.356 . S
N467 H472 0.984 . S
N467 H473 0.985 . S
C468 C462 1.379 . S
C468 C465 1.363 . S
C468 N466 1.356 . S
C469 C463 1.363 . S
C469 C464 1.379 . S
C469 N467 1.356 . S
N470 C462 1.356 . S
N470 H476 0.984 . S
N470 H477 0.984 . S
N471 C464 1.356 . S
N471 H474 0.984 . S
N471 H475 0.985 . S
H472 N467 0.984 . S
H473 N467 0.985 . S
H474 N471 0.984 . S
H475 N471 0.985 . S
H476 N470 0.984 . S
H477 N470 0.984 . S
H478 N466 0.984 . S
H479 N466 0.985 . S
C480 C481 1.363 . S
C480 C486 1.379 . S
C480 N488 1.356 . S
C481 C480 1.363 . S
C481 C487 1.363 . S
C482 C483 1.363 . S
C482 C487 1.379 . S
C482 N489 1.356 . S
C483 C482 1.363 . S
C483 C486 1.363 . S
N484 C486 1.356 . S
N484 H496 0.984 . S
N484 H497 0.985 . S
N485 C487 1.356 . S
N485 H490 0.984 . S
N485 H491 0.985 . S
C486 C480 1.379 . S
C486 C483 1.363 . S
C486 N484 1.356 . S
C487 C481 1.363 . S
C487 C482 1.379 . S
C487 N485 1.356 . S
N488 C480 1.356 . S
N488 H494 0.984 . S
N488 H495 0.984 . S
N489 C482 1.356 . S
N489 H492 0.984 . S
N489 H493 0.985 . S
H490 N485 0.984 . S
H491 N485 0.985 . S
H492 N489 0.984 . S
H493 N489 0.985 . S
H494 N488 0.984 . S
H495 N488 0.984 . S
H496 N484 0.984 . S
H497 N484 0.985 . S
C498 C499 1.363 . S
C498 C504 1.379 . S
C498 N506 1.356 . S
C499 C498 1.363 . S
C499 C505 1.363 . S
C500 C501 1.363 . S
C500 C505 1.379 . S
C500 N507 1.356 . S
C501 C500 1.363 . S
C501 C504 1.363 . S
N502 C504 1.356 . S
N502 H514 0.984 . S
N502 H515 0.985 . S
N503 C505 1.356 . S
N503 H508 0.984 . S
N503 H509 0.985 . S
C504 C498 1.379 . S
C504 C501 1.363 . S
C504 N502 1.356 . S
C505 C499 1.363 . S
C505 C500 1.379 . S
C505 N503 1.356 . S
N506 C498 1.356 . S
N506 H512 0.984 . S
N506 H513 0.984 . S
N507 C500 1.356 . S
N507 H510 0.984 . S
N507 H511 0.985 . S
H508 N503 0.984 . S
H509 N503 0.985 . S
H510 N507 0.984 . S
H511 N507 0.985 . S
H512 N506 0.984 . S
H513 N506 0.984 . S
H514 N502 0.984 . S
H515 N502 0.985 . S
C516 C517 1.363 . S
C516 C522 1.379 . S
C516 N524 1.356 . S
C517 C516 1.363 . S
C517 C523 1.363 . S
C518 C519 1.363 . S
C518 C523 1.379 . S
C518 N525 1.356 . S
C519 C518 1.363 . S
C519 C522 1.363 . S
N520 C522 1.356 . S
N520 H532 0.984 . S
N520 H533 0.985 . S
N521 C523 1.356 . S
N521 H526 0.984 . S
N521 H527 0.985 . S
C522 C516 1.379 . S
C522 C519 1.363 . S
C522 N520 1.356 . S
C523 C517 1.363 . S
C523 C518 1.379 . S
C523 N521 1.356 . S
N524 C516 1.356 . S
N524 H530 0.984 . S
N524 H531 0.984 . S
N525 C518 1.356 . S
N525 H528 0.984 . S
N525 H529 0.985 . S
H526 N521 0.984 . S
H527 N521 0.985 . S
H528 N525 0.984 . S
H529 N525 0.985 . S
H530 N524 0.984 . S
H531 N524 0.984 . S
H532 N520 0.984 . S
H533 N520 0.985 . S
C534 C535 1.363 . S
C534 C540 1.379 . S
C534 N542 1.356 . S
C535 C534 1.363 . S
C535 C541 1.363 . S
C536 C537 1.363 . S
C536 C541 1.379 . S
C536 N543 1.356 . S
C537 C536 1.363 . S
C537 C540 1.363 . S
N538 C540 1.356 . S
N538 H550 0.984 . S
N538 H551 0.985 . S
N539 C541 1.356 . S
N539 H544 0.984 . S
N539 H545 0.985 . S
C540 C534 1.379 . S
C540 C537 1.363 . S
C540 N538 1.356 . S
C541 C535 1.363 . S
C541 C536 1.379 . S
C541 N539 1.356 . S
N542 C534 1.356 . S
N542 H548 0.984 . S
N542 H549 0.984 . S
N543 C536 1.356 . S
N543 H546 0.984 . S
N543 H547 0.985 . S
H544 N539 0.984 . S
H545 N539 0.985 . S
H546 N543 0.984 . S
H547 N543 0.985 . S
H548 N542 0.984 . S
H549 N542 0.984 . S
H550 N538 0.984 . S
H551 N538 0.985 . S
C552 C553 1.363 . S
C552 C558 1.379 . S
C552 N560 1.356 . S
C553 C552 1.363 . S
C553 C559 1.363 1_556 S
C554 C555 1.363 . S
C554 C559 1.379 . S
C554 N561 1.356 . S
C555 C554 1.363 . S
C555 C558 1.363 1_554 S
N556 C558 1.356 . S
N556 H568 0.984 . S
N556 H569 0.985 1_556 S
N557 C559 1.356 . S
N557 H562 0.984 1_554 S
N557 H563 0.985 . S
C558 C552 1.379 . S
C558 C555 1.363 1_556 S
C558 N556 1.356 . S
C559 C553 1.363 1_554 S
C559 C554 1.379 . S
C559 N557 1.356 . S
N560 C552 1.356 . S
N560 H566 0.984 . S
N560 H567 0.984 . S
N561 C554 1.356 . S
N561 H564 0.984 . S
N561 H565 0.985 . S
H562 N557 0.984 1_556 S
H563 N557 0.985 . S
H564 N561 0.984 . S
H565 N561 0.985 . S
H566 N560 0.984 . S
H567 N560 0.984 . S
H568 N556 0.984 . S
H569 N556 0.985 1_554 S
C570 C571 1.363 . S
C570 C576 1.379 . S
C570 N578 1.356 . S
C571 C570 1.363 . S
C571 C577 1.363 . S
C572 C573 1.363 . S
C572 C577 1.379 . S
C572 N579 1.356 . S
C573 C572 1.363 . S
C573 C576 1.363 . S
N574 C576 1.356 . S
N574 H586 0.984 . S
N574 H587 0.985 . S
N575 C577 1.356 . S
N575 H580 0.984 . S
N575 H581 0.985 . S
C576 C570 1.379 . S
C576 C573 1.363 . S
C576 N574 1.356 . S
C577 C571 1.363 . S
C577 C572 1.379 . S
C577 N575 1.356 . S
N578 C570 1.356 . S
N578 H584 0.984 . S
N578 H585 0.984 . S
N579 C572 1.356 . S
N579 H582 0.984 . S
N579 H583 0.985 . S
H580 N575 0.984 . S
H581 N575 0.985 . S
H582 N579 0.984 . S
H583 N579 0.985 . S
H584 N578 0.984 . S
H585 N578 0.984 . S
H586 N574 0.984 . S
H587 N574 0.985 . S
C588 C589 1.363 1_556 S
C588 C594 1.379 . S
C588 N596 1.356 . S
C589 C588 1.363 1_554 S
C589 C595 1.363 . S
C590 C591 1.363 1_554 S
C590 C595 1.379 . S
C590 N597 1.356 . S
C591 C590 1.363 1_556 S
C591 C594 1.363 . S
N592 C594 1.356 . S
N592 H604 0.984 . S
N592 H605 0.985 . S
N593 C595 1.356 . S
N593 H598 0.984 . S
N593 H599 0.985 . S
C594 C588 1.379 . S
C594 C591 1.363 . S
C594 N592 1.356 . S
C595 C589 1.363 . S
C595 C590 1.379 . S
C595 N593 1.356 . S
N596 C588 1.356 . S
N596 H602 0.984 . S
N596 H603 0.984 1_556 S
N597 C590 1.356 . S
N597 H600 0.984 1_554 S
N597 H601 0.985 . S
H598 N593 0.984 . S
H599 N593 0.985 . S
H600 N597 0.984 1_556 S
H601 N597 0.985 . S
H602 N596 0.984 . S
H603 N596 0.984 1_554 S
H604 N592 0.984 . S
H605 N592 0.985 . S
C606 C607 1.363 . S
C606 C612 1.379 . S
C606 N614 1.356 . S
C607 C606 1.363 . S
C607 C613 1.363 . S
C608 C609 1.363 . S
C608 C613 1.379 . S
C608 N615 1.356 . S
C609 C608 1.363 . S
C609 C612 1.363 . S
N610 C612 1.356 . S
N610 H622 0.984 . S
N610 H623 0.985 . S
N611 C613 1.356 . S
N611 H616 0.984 . S
N611 H617 0.985 . S
C612 C606 1.379 . S
C612 C609 1.363 . S
C612 N610 1.356 . S
C613 C607 1.363 . S
C613 C608 1.379 . S
C613 N611 1.356 . S
N614 C606 1.356 . S
N614 H620 0.984 . S
N614 H621 0.984 . S
N615 C608 1.356 . S
N615 H618 0.984 . S
N615 H619 0.985 . S
H616 N611 0.984 . S
H617 N611 0.985 . S
H618 N615 0.984 . S
H619 N615 0.985 . S
H620 N614 0.984 . S
H621 N614 0.984 . S
H622 N610 0.984 . S
H623 N610 0.985 . S
C624 C625 1.363 . S
C624 C630 1.379 . S
C624 N632 1.356 . S
C625 C624 1.363 . S
C625 C631 1.363 1_556 S
C626 C627 1.363 . S
C626 C631 1.379 . S
C626 N633 1.356 . S
C627 C626 1.363 . S
C627 C630 1.363 1_554 S
N628 C630 1.356 . S
N628 H640 0.984 . S
N628 H641 0.985 . S
N629 C631 1.356 . S
N629 H634 0.984 . S
N629 H635 0.985 . S
C630 C624 1.379 . S
C630 C627 1.363 1_556 S
C630 N628 1.356 . S
C631 C625 1.363 1_554 S
C631 C626 1.379 . S
C631 N629 1.356 . S
N632 C624 1.356 . S
N632 H638 0.984 . S
N632 H639 0.984 . S
N633 C626 1.356 . S
N633 H636 0.984 . S
N633 H637 0.985 . S
H634 N629 0.984 . S
H635 N629 0.985 . S
H636 N633 0.984 . S
H637 N633 0.985 . S
H638 N632 0.984 . S
H639 N632 0.984 . S
H640 N628 0.984 . S
H641 N628 0.985 . S
C642 C643 1.363 . S
C642 C648 1.379 . S
C642 N650 1.356 . S
C643 C642 1.363 . S
C643 C649 1.363 . S
C644 C645 1.363 . S
C644 C649 1.379 . S
C644 N651 1.356 . S
C645 C644 1.363 . S
C645 C648 1.363 . S
N646 C648 1.356 . S
N646 H658 0.984 . S
N646 H659 0.985 . S
N647 C649 1.356 . S
N647 H652 0.984 . S
N647 H653 0.985 . S
C648 C642 1.379 . S
C648 C645 1.363 . S
C648 N646 1.356 . S
C649 C643 1.363 . S
C649 C644 1.379 . S
C649 N647 1.356 . S
N650 C642 1.356 . S
N650 H656 0.984 . S
N650 H657 0.984 . S
N651 C644 1.356 . S
N651 H654 0.984 . S
N651 H655 0.985 . S
H652 N647 0.984 . S
H653 N647 0.985 . S
H654 N651 0.984 . S
H655 N651 0.985 . S
H656 N650 0.984 . S
H657 N650 0.984 . S
H658 N646 0.984 . S
H659 N646 0.985 . S
C660 C661 1.363 . S
C660 C666 1.379 . S
C660 N668 1.356 . S
C661 C660 1.363 . S
C661 C667 1.363 1_554 S
C662 C663 1.363 . S
C662 C667 1.379 . S
C662 N669 1.356 . S
C663 C662 1.363 . S
C663 C666 1.363 1_556 S
N664 C666 1.356 . S
N664 H676 0.984 . S
N664 H677 0.985 1_554 S
N665 C667 1.356 . S
N665 H670 0.984 1_556 S
N665 H671 0.985 . S
C666 C660 1.379 . S
C666 C663 1.363 1_554 S
C666 N664 1.356 . S
C667 C661 1.363 1_556 S
C667 C662 1.379 . S
C667 N665 1.356 . S
N668 C660 1.356 . S
N668 H674 0.984 . S
N668 H675 0.984 . S
N669 C662 1.356 . S
N669 H672 0.984 . S
N669 H673 0.985 . S
H670 N665 0.984 1_554 S
H671 N665 0.985 . S
H672 N669 0.984 . S
H673 N669 0.985 . S
H674 N668 0.984 . S
H675 N668 0.984 . S
H676 N664 0.984 . S
H677 N664 0.985 1_556 S
C678 C679 1.363 . S
C678 C684 1.379 . S
C678 N686 1.356 . S
C679 C678 1.363 . S
C679 C685 1.363 . S
C680 C681 1.363 . S
C680 C685 1.379 . S
C680 N687 1.356 . S
C681 C680 1.363 . S
C681 C684 1.363 . S
N682 C684 1.356 . S
N682 H694 0.984 . S
N682 H695 0.985 . S
N683 C685 1.356 . S
N683 H688 0.984 . S
N683 H689 0.985 . S
C684 C678 1.379 . S
C684 C681 1.363 . S
C684 N682 1.356 . S
C685 C679 1.363 . S
C685 C680 1.379 . S
C685 N683 1.356 . S
N686 C678 1.356 . S
N686 H692 0.984 . S
N686 H693 0.984 . S
N687 C680 1.356 . S
N687 H690 0.984 . S
N687 H691 0.985 . S
H688 N683 0.984 . S
H689 N683 0.985 . S
H690 N687 0.984 . S
H691 N687 0.985 . S
H692 N686 0.984 . S
H693 N686 0.984 . S
H694 N682 0.984 . S
H695 N682 0.985 . S
C696 C697 1.363 . S
C696 C702 1.379 1_556 S
C696 N704 1.356 . S
C697 C696 1.363 . S
C697 C703 1.363 . S
C698 C699 1.363 . S
C698 C703 1.379 1_554 S
C698 N705 1.356 . S
C699 C698 1.363 . S
C699 C702 1.363 . S
N700 C702 1.356 . S
N700 H712 0.984 . S
N700 H713 0.985 . S
N701 C703 1.356 . S
N701 H706 0.984 . S
N701 H707 0.985 . S
C702 C696 1.379 1_554 S
C702 C699 1.363 . S
C702 N700 1.356 . S
C703 C697 1.363 . S
C703 C698 1.379 1_556 S
C703 N701 1.356 . S
N704 C696 1.356 . S
N704 H710 0.984 . S
N704 H711 0.984 . S
N705 C698 1.356 . S
N705 H708 0.984 . S
N705 H709 0.985 . S
H706 N701 0.984 . S
H707 N701 0.985 . S
H708 N705 0.984 . S
H709 N705 0.985 . S
H710 N704 0.984 . S
H711 N704 0.984 . S
H712 N700 0.984 . S
H713 N700 0.985 . S
C714 C715 1.363 . S
C714 C720 1.379 . S
C714 N722 1.356 . S
C715 C714 1.363 . S
C715 C721 1.363 . S
C716 C717 1.363 . S
C716 C721 1.379 . S
C716 N723 1.356 . S
C717 C716 1.363 . S
C717 C720 1.363 . S
N718 C720 1.356 . S
N718 H730 0.984 . S
N718 H731 0.985 . S
N719 C721 1.356 . S
N719 H724 0.984 . S
N719 H725 0.985 . S
C720 C714 1.379 . S
C720 C717 1.363 . S
C720 N718 1.356 . S
C721 C715 1.363 . S
C721 C716 1.379 . S
C721 N719 1.356 . S
N722 C714 1.356 . S
N722 H728 0.984 . S
N722 H729 0.984 . S
N723 C716 1.356 . S
N723 H726 0.984 . S
N723 H727 0.985 . S
H724 N719 0.984 . S
H725 N719 0.985 . S
H726 N723 0.984 . S
H727 N723 0.985 . S
H728 N722 0.984 . S
H729 N722 0.984 . S
H730 N718 0.984 . S
H731 N718 0.985 . S
C732 C733 1.363 1_554 S
C732 C738 1.379 . S
C732 N740 1.356 . S
C733 C732 1.363 1_556 S
C733 C739 1.363 . S
C734 C735 1.363 1_556 S
C734 C739 1.379 . S
C734 N741 1.356 . S
C735 C734 1.363 1_554 S
C735 C738 1.363 . S
N736 C738 1.356 . S
N736 H748 0.984 . S
N736 H749 0.985 . S
N737 C739 1.356 . S
N737 H742 0.984 . S
N737 H743 0.985 . S
C738 C732 1.379 . S
C738 C735 1.363 . S
C738 N736 1.356 . S
C739 C733 1.363 . S
C739 C734 1.379 . S
C739 N737 1.356 . S
N740 C732 1.356 . S
N740 H746 0.984 . S
N740 H747 0.984 1_554 S
N741 C734 1.356 . S
N741 H744 0.984 1_556 S
N741 H745 0.985 . S
H742 N737 0.984 . S
H743 N737 0.985 . S
H744 N741 0.984 1_554 S
H745 N741 0.985 . S
H746 N740 0.984 . S
H747 N740 0.984 1_556 S
H748 N736 0.984 . S
H749 N736 0.985 . S
C750 C751 1.363 . S
C750 C756 1.379 . S
C750 N758 1.356 . S
C751 C750 1.363 . S
C751 C757 1.363 . S
C752 C753 1.363 . S
C752 C757 1.379 . S
C752 N759 1.356 . S
C753 C752 1.363 . S
C753 C756 1.363 . S
N754 C756 1.356 . S
N754 H766 0.984 . S
N754 H767 0.985 . S
N755 C757 1.356 . S
N755 H760 0.984 . S
N755 H761 0.985 . S
C756 C750 1.379 . S
C756 C753 1.363 . S
C756 N754 1.356 . S
C757 C751 1.363 . S
C757 C752 1.379 . S
C757 N755 1.356 . S
N758 C750 1.356 . S
N758 H764 0.984 . S
N758 H765 0.984 . S
N759 C752 1.356 . S
N759 H762 0.984 . S
N759 H763 0.985 . S
H760 N755 0.984 . S
H761 N755 0.985 . S
H762 N759 0.984 . S
H763 N759 0.985 . S
H764 N758 0.984 . S
H765 N758 0.984 . S
H766 N754 0.984 . S
H767 N754 0.985 . S
C768 C769 1.363 . S
C768 C774 1.379 . S
C768 N776 1.356 . S
C769 C768 1.363 . S
C769 C775 1.363 . S
C770 C771 1.363 . S
C770 C775 1.379 . S
C770 N777 1.356 . S
C771 C770 1.363 . S
C771 C774 1.363 . S
N772 C774 1.356 . S
N772 H784 0.984 1_554 S
N772 H785 0.985 . S
N773 C775 1.356 . S
N773 H778 0.984 . S
N773 H779 0.985 . S
C774 C768 1.379 . S
C774 C771 1.363 . S
C774 N772 1.356 . S
C775 C769 1.363 . S
C775 C770 1.379 . S
C775 N773 1.356 . S
N776 C768 1.356 . S
N776 H782 0.984 1_554 S
N776 H783 0.984 . S
N777 C770 1.356 . S
N777 H780 0.984 . S
N777 H781 0.985 . S
H778 N773 0.984 . S
H779 N773 0.985 . S
H780 N777 0.984 . S
H781 N777 0.985 . S
H782 N776 0.984 1_556 S
H783 N776 0.984 . S
H784 N772 0.984 1_556 S
H785 N772 0.985 . S
C786 C787 1.363 . S
C786 C792 1.379 1_455 S
C786 N794 1.356 . S
C787 C786 1.363 . S
C787 C793 1.363 . S
C788 C789 1.363 . S
C788 C793 1.379 1_655 S
C788 N795 1.356 . S
C789 C788 1.363 . S
C789 C792 1.363 . S
N790 C792 1.356 . S
N790 H802 0.984 . S
N790 H803 0.985 . S
N791 C793 1.356 . S
N791 H796 0.984 . S
N791 H797 0.985 . S
C792 C786 1.379 1_655 S
C792 C789 1.363 . S
C792 N790 1.356 . S
C793 C787 1.363 . S
C793 C788 1.379 1_455 S
C793 N791 1.356 . S
N794 C786 1.356 . S
N794 H800 0.984 . S
N794 H801 0.984 . S
N795 C788 1.356 . S
N795 H798 0.984 . S
N795 H799 0.985 . S
H796 N791 0.984 . S
H797 N791 0.985 . S
H798 N795 0.984 . S
H799 N795 0.985 . S
H800 N794 0.984 . S
H801 N794 0.984 . S
H802 N790 0.984 . S
H803 N790 0.985 . S
C804 C805 1.363 . S
C804 C810 1.379 1_565 S
C804 N812 1.356 . S
C805 C804 1.363 . S
C805 C811 1.363 . S
C806 C807 1.363 . S
C806 C811 1.379 1_545 S
C806 N813 1.356 . S
C807 C806 1.363 . S
C807 C810 1.363 . S
N808 C810 1.356 . S
N808 H820 0.984 1_554 S
N808 H821 0.985 . S
N809 C811 1.356 . S
N809 H814 0.984 . S
N809 H815 0.985 . S
C810 C804 1.379 1_545 S
C810 C807 1.363 . S
C810 N808 1.356 . S
C811 C805 1.363 . S
C811 C806 1.379 1_565 S
C811 N809 1.356 . S
N812 C804 1.356 . S
N812 H818 0.984 1_554 S
N812 H819 0.984 . S
N813 C806 1.356 . S
N813 H816 0.984 . S
N813 H817 0.985 . S
H814 N809 0.984 . S
H815 N809 0.985 . S
H816 N813 0.984 . S
H817 N813 0.985 . S
H818 N812 0.984 1_556 S
H819 N812 0.984 . S
H820 N808 0.984 1_556 S
H821 N808 0.985 . S
C822 C823 1.363 . S
C822 C828 1.379 . S
C822 N830 1.356 . S
C823 C822 1.363 . S
C823 C829 1.363 . S
C824 C825 1.363 . S
C824 C829 1.379 . S
C824 N831 1.356 . S
C825 C824 1.363 . S
C825 C828 1.363 . S
N826 C828 1.356 . S
N826 H838 0.984 . S
N826 H839 0.985 . S
N827 C829 1.356 . S
N827 H832 0.984 . S
N827 H833 0.985 . S
C828 C822 1.379 . S
C828 C825 1.363 . S
C828 N826 1.356 . S
C829 C823 1.363 . S
C829 C824 1.379 . S
C829 N827 1.356 . S
N830 C822 1.356 . S
N830 H836 0.984 . S
N830 H837 0.984 . S
N831 C824 1.356 . S
N831 H834 0.984 . S
N831 H835 0.985 . S
H832 N827 0.984 . S
H833 N827 0.985 . S
H834 N831 0.984 . S
H835 N831 0.985 . S
H836 N830 0.984 . S
H837 N830 0.984 . S
H838 N826 0.984 . S
H839 N826 0.985 . S
C840 C841 1.363 . S
C840 C846 1.379 1_655 S
C840 N848 1.356 . S
C841 C840 1.363 . S
C841 C847 1.363 . S
C842 C843 1.363 . S
C842 C847 1.379 1_455 S
C842 N849 1.356 . S
C843 C842 1.363 . S
C843 C846 1.363 . S
N844 C846 1.356 . S
N844 H856 0.984 1_554 S
N844 H857 0.985 . S
N845 C847 1.356 . S
N845 H850 0.984 . S
N845 H851 0.985 . S
C846 C840 1.379 1_455 S
C846 C843 1.363 . S
C846 N844 1.356 . S
C847 C841 1.363 . S
C847 C842 1.379 1_655 S
C847 N845 1.356 . S
N848 C840 1.356 . S
N848 H854 0.984 1_554 S
N848 H855 0.984 . S
N849 C842 1.356 . S
N849 H852 0.984 . S
N849 H853 0.985 . S
H850 N845 0.984 . S
H851 N845 0.985 . S
H852 N849 0.984 . S
H853 N849 0.985 . S
H854 N848 0.984 1_556 S
H855 N848 0.984 . S
H856 N844 0.984 1_556 S
H857 N844 0.985 . S
C858 C859 1.363 . S
C858 C864 1.379 1_545 S
C858 N866 1.356 . S
C859 C858 1.363 . S
C859 C865 1.363 . S
C860 C861 1.363 . S
C860 C865 1.379 1_565 S
C860 N867 1.356 . S
C861 C860 1.363 . S
C861 C864 1.363 . S
N862 C864 1.356 . S
N862 H874 0.984 . S
N862 H875 0.985 . S
N863 C865 1.356 . S
N863 H868 0.984 . S
N863 H869 0.985 . S
C864 C858 1.379 1_565 S
C864 C861 1.363 . S
C864 N862 1.356 . S
C865 C859 1.363 . S
C865 C860 1.379 1_545 S
C865 N863 1.356 . S
N866 C858 1.356 . S
N866 H872 0.984 . S
N866 H873 0.984 . S
N867 C860 1.356 . S
N867 H870 0.984 . S
N867 H871 0.985 . S
H868 N863 0.984 . S
H869 N863 0.985 . S
H870 N867 0.984 . S
H871 N867 0.985 . S
H872 N866 0.984 . S
H873 N866 0.984 . S
H874 N862 0.984 . S
H875 N862 0.985 . S
C876 C877 1.363 . S
C876 C882 1.379 . S
C876 N884 1.356 . S
C877 C876 1.363 . S
C877 C883 1.363 . S
C878 C879 1.363 . S
C878 C883 1.379 . S
C878 N885 1.356 . S
C879 C878 1.363 . S
C879 C882 1.363 . S
N880 C882 1.356 . S
N880 H892 0.984 . S
N880 H893 0.985 . S
N881 C883 1.356 . S
N881 H886 0.984 . S
N881 H887 0.985 1_556 S
C882 C876 1.379 . S
C882 C879 1.363 . S
C882 N880 1.356 . S
C883 C877 1.363 . S
C883 C878 1.379 . S
C883 N881 1.356 . S
N884 C876 1.356 . S
N884 H890 0.984 . S
N884 H891 0.984 . S
N885 C878 1.356 . S
N885 H888 0.984 . S
N885 H889 0.985 1_556 S
H886 N881 0.984 . S
H887 N881 0.985 1_554 S
H888 N885 0.984 . S
H889 N885 0.985 1_554 S
H890 N884 0.984 . S
H891 N884 0.984 . S
H892 N880 0.984 . S
H893 N880 0.985 . S
C894 C895 1.363 . S
C894 C900 1.379 1_655 S
C894 N902 1.356 . S
C895 C894 1.363 . S
C895 C901 1.363 . S
C896 C897 1.363 . S
C896 C901 1.379 1_455 S
C896 N903 1.356 . S
C897 C896 1.363 . S
C897 C900 1.363 . S
N898 C900 1.356 . S
N898 H910 0.984 . S
N898 H911 0.985 . S
N899 C901 1.356 . S
N899 H904 0.984 . S
N899 H905 0.985 . S
C900 C894 1.379 1_455 S
C900 C897 1.363 . S
C900 N898 1.356 . S
C901 C895 1.363 . S
C901 C896 1.379 1_655 S
C901 N899 1.356 . S
N902 C894 1.356 . S
N902 H908 0.984 . S
N902 H909 0.984 . S
N903 C896 1.356 . S
N903 H906 0.984 . S
N903 H907 0.985 . S
H904 N899 0.984 . S
H905 N899 0.985 . S
H906 N903 0.984 . S
H907 N903 0.985 . S
H908 N902 0.984 . S
H909 N902 0.984 . S
H910 N898 0.984 . S
H911 N898 0.985 . S
C912 C913 1.363 . S
C912 C918 1.379 1_545 S
C912 N920 1.356 . S
C913 C912 1.363 . S
C913 C919 1.363 . S
C914 C915 1.363 . S
C914 C919 1.379 1_565 S
C914 N921 1.356 . S
C915 C914 1.363 . S
C915 C918 1.363 . S
N916 C918 1.356 . S
N916 H928 0.984 . S
N916 H929 0.985 . S
N917 C919 1.356 . S
N917 H922 0.984 . S
N917 H923 0.985 1_556 S
C918 C912 1.379 1_565 S
C918 C915 1.363 . S
C918 N916 1.356 . S
C919 C913 1.363 . S
C919 C914 1.379 1_545 S
C919 N917 1.356 . S
N920 C912 1.356 . S
N920 H926 0.984 . S
N920 H927 0.984 . S
N921 C914 1.356 . S
N921 H924 0.984 . S
N921 H925 0.985 1_556 S
H922 N917 0.984 . S
H923 N917 0.985 1_554 S
H924 N921 0.984 . S
H925 N921 0.985 1_554 S
H926 N920 0.984 . S
H927 N920 0.984 . S
H928 N916 0.984 . S
H929 N916 0.985 . S
C930 C931 1.363 . S
C930 C936 1.379 . S
C930 N938 1.356 . S
C931 C930 1.363 . S
C931 C937 1.363 . S
C932 C933 1.363 . S
C932 C937 1.379 . S
C932 N939 1.356 . S
C933 C932 1.363 . S
C933 C936 1.363 . S
N934 C936 1.356 . S
N934 H946 0.984 . S
N934 H947 0.985 . S
N935 C937 1.356 . S
N935 H940 0.984 . S
N935 H941 0.985 . S
C936 C930 1.379 . S
C936 C933 1.363 . S
C936 N934 1.356 . S
C937 C931 1.363 . S
C937 C932 1.379 . S
C937 N935 1.356 . S
N938 C930 1.356 . S
N938 H944 0.984 . S
N938 H945 0.984 . S
N939 C932 1.356 . S
N939 H942 0.984 . S
N939 H943 0.985 . S
H940 N935 0.984 . S
H941 N935 0.985 . S
H942 N939 0.984 . S
H943 N939 0.985 . S
H944 N938 0.984 . S
H945 N938 0.984 . S
H946 N934 0.984 . S
H947 N934 0.985 . S
C948 C949 1.363 . S
C948 C954 1.379 1_455 S
C948 N956 1.356 . S
C949 C948 1.363 . S
C949 C955 1.363 . S
C950 C951 1.363 . S
C950 C955 1.379 1_655 S
C950 N957 1.356 . S
C951 C950 1.363 . S
C951 C954 1.363 . S
N952 C954 1.356 . S
N952 H964 0.984 1_556 S
N952 H965 0.985 . S
N953 C955 1.356 . S
N953 H958 0.984 . S
N953 H959 0.985 . S
C954 C948 1.379 1_655 S
C954 C951 1.363 . S
C954 N952 1.356 . S
C955 C949 1.363 . S
C955 C950 1.379 1_455 S
C955 N953 1.356 . S
N956 C948 1.356 . S
N956 H962 0.984 1_556 S
N956 H963 0.984 . S
N957 C950 1.356 . S
N957 H960 0.984 . S
N957 H961 0.985 . S
H958 N953 0.984 . S
H959 N953 0.985 . S
H960 N957 0.984 . S
H961 N957 0.985 . S
H962 N956 0.984 1_554 S
H963 N956 0.984 . S
H964 N952 0.984 1_554 S
H965 N952 0.985 . S
C966 C967 1.363 . S
C966 C972 1.379 1_565 S
C966 N974 1.356 . S
C967 C966 1.363 . S
C967 C973 1.363 . S
C968 C969 1.363 . S
C968 C973 1.379 1_545 S
C968 N975 1.356 . S
C969 C968 1.363 . S
C969 C972 1.363 . S
N970 C972 1.356 . S
N970 H982 0.984 . S
N970 H983 0.985 . S
N971 C973 1.356 . S
N971 H976 0.984 . S
N971 H977 0.985 . S
C972 C966 1.379 1_545 S
C972 C969 1.363 . S
C972 N970 1.356 . S
C973 C967 1.363 . S
C973 C968 1.379 1_565 S
C973 N971 1.356 . S
N974 C966 1.356 . S
N974 H980 0.984 . S
N974 H981 0.984 . S
N975 C968 1.356 . S
N975 H978 0.984 . S
N975 H979 0.985 . S
H976 N971 0.984 . S
H977 N971 0.985 . S
H978 N975 0.984 . S
H979 N975 0.985 . S
H980 N974 0.984 . S
H981 N974 0.984 . S
H982 N970 0.984 . S
H983 N970 0.985 . S
C984 C985 1.363 . S
C984 C990 1.379 . S
C984 N992 1.356 . S
C985 C984 1.363 . S
C985 C991 1.363 1_556 S
C986 C987 1.363 . S
C986 C991 1.379 . S
C986 N993 1.356 . S
C987 C986 1.363 . S
C987 C990 1.363 1_554 S
N988 C990 1.356 . S
N988 H1000 0.984 . S
N988 H1001 0.985 . S
N989 C991 1.356 . S
N989 H994 0.984 . S
N989 H995 0.985 . S
C990 C984 1.379 . S
C990 C987 1.363 1_556 S
C990 N988 1.356 . S
C991 C985 1.363 1_554 S
C991 C986 1.379 . S
C991 N989 1.356 . S
N992 C984 1.356 . S
N992 H998 0.984 . S
N992 H999 0.984 . S
N993 C986 1.356 . S
N993 H996 0.984 . S
N993 H997 0.985 . S
H994 N989 0.984 . S
H995 N989 0.985 . S
H996 N993 0.984 . S
H997 N993 0.985 . S
H998 N992 0.984 . S
H999 N992 0.984 . S
H1000 N988 0.984 . S
H1001 N988 0.985 . S
C1002 C1003 1.363 . S
C1002 C1008 1.379 . S
C1002 N1010 1.356 . S
C1003 C1002 1.363 . S
C1003 C1009 1.363 . S
C1004 C1005 1.363 . S
C1004 C1009 1.379 . S
C1004 N1011 1.356 . S
C1005 C1004 1.363 . S
C1005 C1008 1.363 . S
N1006 C1008 1.356 . S
N1006 H1018 0.984 . S
N1006 H1019 0.985 . S
N1007 C1009 1.356 . S
N1007 H1012 0.984 . S
N1007 H1013 0.985 . S
C1008 C1002 1.379 . S
C1008 C1005 1.363 . S
C1008 N1006 1.356 . S
C1009 C1003 1.363 . S
C1009 C1004 1.379 . S
C1009 N1007 1.356 . S
N1010 C1002 1.356 . S
N1010 H1016 0.984 . S
N1010 H1017 0.984 . S
N1011 C1004 1.356 . S
N1011 H1014 0.984 . S
N1011 H1015 0.985 . S
H1012 N1007 0.984 . S
H1013 N1007 0.985 . S
H1014 N1011 0.984 . S
H1015 N1011 0.985 . S
H1016 N1010 0.984 . S
H1017 N1010 0.984 . S
H1018 N1006 0.984 . S
H1019 N1006 0.985 . S
C1020 C1021 1.363 . S
C1020 C1026 1.379 . S
C1020 N1028 1.356 . S
C1021 C1020 1.363 . S
C1021 C1027 1.363 1_556 S
C1022 C1023 1.363 . S
C1022 C1027 1.379 . S
C1022 N1029 1.356 . S
C1023 C1022 1.363 . S
C1023 C1026 1.363 1_554 S
N1024 C1026 1.356 . S
N1024 H1036 0.984 . S
N1024 H1037 0.988 . S
N1025 C1027 1.356 . S
N1025 H1030 0.988 . S
N1025 H1031 0.985 . S
C1026 C1020 1.379 . S
C1026 C1023 1.363 1_556 S
C1026 N1024 1.356 . S
C1027 C1021 1.363 1_554 S
C1027 C1022 1.379 . S
C1027 N1025 1.356 . S
N1028 C1020 1.356 . S
N1028 H1034 0.984 . S
N1028 H1035 0.984 . S
N1029 C1022 1.356 . S
N1029 H1032 0.984 . S
N1029 H1033 0.985 . S
H1030 N1025 0.988 . S
H1031 N1025 0.985 . S
H1032 N1029 0.984 . S
H1033 N1029 0.985 . S
H1034 N1028 0.984 . S
H1035 N1028 0.984 . S
H1036 N1024 0.984 . S
H1037 N1024 0.988 . S
C1038 C1039 1.363 . S
C1038 C1044 1.379 . S
C1038 N1046 1.356 . S
C1039 C1038 1.363 . S
C1039 C1045 1.363 . S
C1040 C1041 1.363 . S
C1040 C1045 1.379 . S
C1040 N1047 1.356 . S
C1041 C1040 1.363 . S
C1041 C1044 1.363 . S
N1042 C1044 1.356 . S
N1042 H1054 0.984 . S
N1042 H1055 0.985 . S
N1043 C1045 1.356 . S
N1043 H1048 0.984 . S
N1043 H1049 0.985 . S
C1044 C1038 1.379 . S
C1044 C1041 1.363 . S
C1044 N1042 1.356 . S
C1045 C1039 1.363 . S
C1045 C1040 1.379 . S
C1045 N1043 1.356 . S
N1046 C1038 1.356 . S
N1046 H1052 0.984 . S
N1046 H1053 0.984 . S
N1047 C1040 1.356 . S
N1047 H1050 0.984 . S
N1047 H1051 0.985 . S
H1048 N1043 0.984 . S
H1049 N1043 0.985 . S
H1050 N1047 0.984 . S
H1051 N1047 0.985 . S
H1052 N1046 0.984 . S
H1053 N1046 0.984 . S
H1054 N1042 0.984 . S
H1055 N1042 0.985 . S
C1056 C1057 1.363 1_554 S
C1056 C1062 1.379 . S
C1056 N1064 1.356 . S
C1057 C1056 1.363 1_556 S
C1057 C1063 1.363 . S
C1058 C1059 1.363 1_556 S
C1058 C1063 1.379 . S
C1058 N1065 1.356 . S
C1059 C1058 1.363 1_554 S
C1059 C1062 1.363 . S
N1060 C1062 1.356 . S
N1060 H1072 0.984 . S
N1060 H1073 0.985 . S
N1061 C1063 1.356 . S
N1061 H1066 0.984 . S
N1061 H1067 0.985 . S
C1062 C1056 1.379 . S
C1062 C1059 1.363 . S
C1062 N1060 1.356 . S
C1063 C1057 1.363 . S
C1063 C1058 1.379 . S
C1063 N1061 1.356 . S
N1064 C1056 1.356 . S
N1064 H1070 0.984 . S
N1064 H1071 0.984 . S
N1065 C1058 1.356 . S
N1065 H1068 0.984 . S
N1065 H1069 0.985 . S
H1066 N1061 0.984 . S
H1067 N1061 0.985 . S
H1068 N1065 0.984 . S
H1069 N1065 0.985 . S
H1070 N1064 0.984 . S
H1071 N1064 0.984 . S
H1072 N1060 0.984 . S
H1073 N1060 0.985 . S
C1074 C1075 1.363 . S
C1074 C1080 1.379 . S
C1074 N1082 1.356 . S
C1075 C1074 1.363 . S
C1075 C1081 1.363 . S
C1076 C1077 1.363 . S
C1076 C1081 1.379 . S
C1076 N1083 1.356 . S
C1077 C1076 1.363 . S
C1077 C1080 1.363 . S
N1078 C1080 1.356 . S
N1078 H1090 0.984 . S
N1078 H1091 0.985 . S
N1079 C1081 1.356 . S
N1079 H1084 0.984 . S
N1079 H1085 0.985 . S
C1080 C1074 1.379 . S
C1080 C1077 1.363 . S
C1080 N1078 1.356 . S
C1081 C1075 1.363 . S
C1081 C1076 1.379 . S
C1081 N1079 1.356 . S
N1082 C1074 1.356 . S
N1082 H1088 0.984 . S
N1082 H1089 0.984 . S
N1083 C1076 1.356 . S
N1083 H1086 0.984 . S
N1083 H1087 0.985 . S
H1084 N1079 0.984 . S
H1085 N1079 0.985 . S
H1086 N1083 0.984 . S
H1087 N1083 0.985 . S
H1088 N1082 0.984 . S
H1089 N1082 0.984 . S
H1090 N1078 0.984 . S
H1091 N1078 0.985 . S
C1092 C1093 1.372 . S
C1092 C1098 1.370 1_554 S
C1092 N1100 1.360 . S
C1093 C1092 1.372 . S
C1093 C1099 1.363 . S
C1094 C1095 1.372 . S
C1094 C1099 1.370 1_556 S
C1094 N1101 1.360 . S
C1095 C1094 1.372 . S
C1095 C1098 1.363 . S
N1096 C1098 1.356 . S
N1096 H1108 0.984 . S
N1096 H1109 0.985 . S
N1097 C1099 1.356 . S
N1097 H1102 0.984 . S
N1097 H1103 0.985 . S
C1098 C1092 1.370 1_556 S
C1098 C1095 1.363 . S
C1098 N1096 1.356 . S
C1099 C1093 1.363 . S
C1099 C1094 1.370 1_554 S
C1099 N1097 1.356 . S
N1100 C1092 1.360 . S
N1100 H1106 0.984 1_554 S
N1100 H1107 0.984 . S
N1101 C1094 1.360 . S
N1101 H1104 0.984 . S
N1101 H1105 0.985 1_556 S
H1102 N1097 0.984 . S
H1103 N1097 0.985 . S
H1104 N1101 0.984 . S
H1105 N1101 0.985 1_554 S
H1106 N1100 0.984 1_556 S
H1107 N1100 0.984 . S
H1108 N1096 0.984 . S
H1109 N1096 0.985 . S
C1110 C1111 1.363 . S
C1110 C1116 1.379 . S
C1110 N1118 1.356 . S
C1111 C1110 1.363 . S
C1111 C1117 1.363 . S
C1112 C1113 1.363 . S
C1112 C1117 1.379 . S
C1112 N1119 1.356 . S
C1113 C1112 1.363 . S
C1113 C1116 1.363 . S
N1114 C1116 1.356 . S
N1114 H1126 0.984 . S
N1114 H1127 0.985 . S
N1115 C1117 1.356 . S
N1115 H1120 0.984 . S
N1115 H1121 0.985 . S
C1116 C1110 1.379 . S
C1116 C1113 1.363 . S
C1116 N1114 1.356 . S
C1117 C1111 1.363 . S
C1117 C1112 1.379 . S
C1117 N1115 1.356 . S
N1118 C1110 1.356 . S
N1118 H1124 0.984 . S
N1118 H1125 0.984 . S
N1119 C1112 1.356 . S
N1119 H1122 0.984 . S
N1119 H1123 0.985 . S
H1120 N1115 0.984 . S
H1121 N1115 0.985 . S
H1122 N1119 0.984 . S
H1123 N1119 0.985 . S
H1124 N1118 0.984 . S
H1125 N1118 0.984 . S
H1126 N1114 0.984 . S
H1127 N1114 0.985 . S
C1128 C1129 1.363 . S
C1128 C1134 1.379 . S
C1128 N1136 1.356 . S
C1129 C1128 1.363 . S
C1129 C1135 1.363 1_554 S
C1130 C1131 1.363 . S
C1130 C1135 1.379 . S
C1130 N1137 1.356 . S
C1131 C1130 1.363 . S
C1131 C1134 1.363 1_556 S
N1132 C1134 1.356 . S
N1132 H1144 0.984 . S
N1132 H1145 0.987 . S
N1133 C1135 1.356 . S
N1133 H1138 0.987 . S
N1133 H1139 0.985 . S
C1134 C1128 1.379 . S
C1134 C1131 1.363 1_554 S
C1134 N1132 1.356 . S
C1135 C1129 1.363 1_556 S
C1135 C1130 1.379 . S
C1135 N1133 1.356 . S
N1136 C1128 1.356 . S
N1136 H1142 0.984 . S
N1136 H1143 0.984 . S
N1137 C1130 1.356 . S
N1137 H1140 0.984 . S
N1137 H1141 0.985 . S
H1138 N1133 0.987 . S
H1139 N1133 0.985 . S
H1140 N1137 0.984 . S
H1141 N1137 0.985 . S
H1142 N1136 0.984 . S
H1143 N1136 0.984 . S
H1144 N1132 0.984 . S
H1145 N1132 0.987 . S
C1146 C1147 1.363 . S
C1146 C1152 1.379 . S
C1146 N1154 1.356 . S
C1147 C1146 1.363 . S
C1147 C1153 1.363 . S
C1148 C1149 1.363 . S
C1148 C1153 1.379 . S
C1148 N1155 1.356 . S
C1149 C1148 1.363 . S
C1149 C1152 1.363 . S
N1150 C1152 1.356 . S
N1150 H1162 0.984 . S
N1150 H1163 0.985 . S
N1151 C1153 1.356 . S
N1151 H1156 0.984 . S
N1151 H1157 0.985 . S
C1152 C1146 1.379 . S
C1152 C1149 1.363 . S
C1152 N1150 1.356 . S
C1153 C1147 1.363 . S
C1153 C1148 1.379 . S
C1153 N1151 1.356 . S
N1154 C1146 1.356 . S
N1154 H1160 0.984 . S
N1154 H1161 0.984 . S
N1155 C1148 1.356 . S
N1155 H1158 0.984 . S
N1155 H1159 0.985 . S
H1156 N1151 0.984 . S
H1157 N1151 0.985 . S
H1158 N1155 0.984 . S
H1159 N1155 0.985 . S
H1160 N1154 0.984 . S
H1161 N1154 0.984 . S
H1162 N1150 0.984 . S
H1163 N1150 0.985 . S
C1164 C1165 1.363 1_554 S
C1164 C1170 1.379 . S
C1164 N1172 1.356 . S
C1165 C1164 1.363 1_556 S
C1165 C1171 1.363 . S
C1166 C1167 1.363 1_556 S
C1166 C1171 1.379 . S
C1166 N1173 1.356 . S
C1167 C1166 1.363 1_554 S
C1167 C1170 1.363 . S
N1168 C1170 1.356 . S
N1168 H1180 0.984 . S
N1168 H1181 0.985 . S
N1169 C1171 1.356 . S
N1169 H1174 0.984 . S
N1169 H1175 0.985 . S
C1170 C1164 1.379 . S
C1170 C1167 1.363 . S
C1170 N1168 1.356 . S
C1171 C1165 1.363 . S
C1171 C1166 1.379 . S
C1171 N1169 1.356 . S
N1172 C1164 1.356 . S
N1172 H1178 0.984 . S
N1172 H1179 0.984 1_554 S
N1173 C1166 1.356 . S
N1173 H1176 0.984 1_556 S
N1173 H1177 0.985 . S
H1174 N1169 0.984 . S
H1175 N1169 0.985 . S
H1176 N1173 0.984 1_554 S
H1177 N1173 0.985 . S
H1178 N1172 0.984 . S
H1179 N1172 0.984 1_556 S
H1180 N1168 0.984 . S
H1181 N1168 0.985 . S
C1182 C1183 1.363 . S
C1182 C1188 1.379 . S
C1182 N1190 1.356 . S
C1183 C1182 1.363 . S
C1183 C1189 1.363 . S
C1184 C1185 1.363 . S
C1184 C1189 1.379 . S
C1184 N1191 1.356 . S
C1185 C1184 1.363 . S
C1185 C1188 1.363 . S
N1186 C1188 1.356 . S
N1186 H1198 0.984 . S
N1186 H1199 0.985 . S
N1187 C1189 1.356 . S
N1187 H1192 0.984 . S
N1187 H1193 0.985 . S
C1188 C1182 1.379 . S
C1188 C1185 1.363 . S
C1188 N1186 1.356 . S
C1189 C1183 1.363 . S
C1189 C1184 1.379 . S
C1189 N1187 1.356 . S
N1190 C1182 1.356 . S
N1190 H1196 0.984 . S
N1190 H1197 0.984 . S
N1191 C1184 1.356 . S
N1191 H1194 0.984 . S
N1191 H1195 0.985 . S
H1192 N1187 0.984 . S
H1193 N1187 0.985 . S
H1194 N1191 0.984 . S
H1195 N1191 0.985 . S
H1196 N1190 0.984 . S
H1197 N1190 0.984 . S
H1198 N1186 0.984 . S
H1199 N1186 0.985 . S
C337 C3 1.508 . S
C339 C213 1.508 . S
C355 C17 1.508 . S
C357 C227 1.508 . S
C373 C241 1.508 . S
C375 C31 1.508 . S
C391 C171 1.508 . S
C393 C45 1.508 . S
C409 C185 1.508 . S
C411 C59 1.508 . S
C427 C199 1.508 . S
C429 C73 1.508 . S
C445 C297 1.508 . S
C447 C87 1.508 . S
C463 C101 1.508 . S
C465 C311 1.508 . S
C481 C325 1.508 . S
C483 C115 1.508 . S
C499 C129 1.508 . S
C501 C255 1.508 . S
C517 C269 1.508 . S
C519 C143 1.508 . S
C535 C157 1.508 . S
C537 C283 1.508 . S
C553 C148 1.419 . S
C555 C8 1.419 . S
C571 C162 1.419 . S
C573 C22 1.419 . S
C589 C36 1.419 . S
C591 C92 1.419 . S
C607 C50 1.419 . S
C609 C106 1.419 . S
C625 C120 1.419 . S
C627 C64 1.419 . S
C643 C78 1.419 . S
C645 C134 1.419 . S
C661 C316 1.419 . S
C663 C176 1.419 . S
C679 C190 1.419 . S
C681 C330 1.419 . S
C697 C204 1.419 . S
C699 C260 1.419 . S
C715 C274 1.419 . S
C717 C218 1.419 . S
C733 C232 1.419 . S
C735 C288 1.419 . S
C751 C246 1.419 . S
C753 C302 1.419 . S
C769 C9 1.425 . S
C771 C261 1.425 . S
C787 C275 1.425 . S
C789 C23 1.425 . S
C805 C37 1.425 . S
C807 C289 1.425 . S
C823 C51 1.425 . S
C825 C303 1.425 . S
C841 C317 1.425 . S
C843 C65 1.425 . S
C859 C79 1.425 . S
C861 C331 1.425 . S
C877 C93 1.425 . S
C879 C177 1.425 . S
C895 C107 1.425 . S
C897 C191 1.425 . S
C913 C205 1.425 . S
C915 C121 1.425 . S
C931 C219 1.425 . S
C933 C135 1.425 . S
C949 C149 1.425 . S
C951 C233 1.425 . S
C967 C247 1.425 . S
C969 C163 1.425 . S
C985 C91 1.452 . S
C987 C7 1.452 . S
C1003 C21 1.452 . S
C1005 C105 1.452 . S
C1021 C119 1.452 . S
C1023 C35 1.452 . S
C1039 C133 1.452 . S
C1041 C49 1.452 . S
C1057 C147 1.452 . S
C1059 C63 1.452 . S
C1075 C77 1.452 . S
C1077 C161 1.452 . S
C1093 C259 1.452 . S
C1095 C175 1.452 . S
C1111 C189 1.452 . S
C1113 C273 1.452 . S
C1129 C287 1.452 . S
C1131 C203 1.452 . S
C1147 C301 1.452 . S
C1149 C217 1.452 . S
C1165 C231 1.452 . S
C1167 C315 1.452 . S
C1183 C245 1.452 . S
C1185 C329 1.452 . S
