# Generated by pormake.
# Topology dmp, (4)-cn, num edge types: 1
# Building blocks:
#     Node 0, Type 0, BuildingBlock: QUQFOY_clean_sbu_1, # of connection points: 4
#     Node 1, Type 0, BuildingBlock: QUQFOY_clean_sbu_1, # of connection points: 4
#     Node 2, Type 0, BuildingBlock: QUQFOY_clean_sbu_1, # of connection points: 4
#     Node 3, Type 0, BuildingBlock: QUQFOY_clean_sbu_1, # of connection points: 4
#     Edge 4, Type (0, 0), BuildingBlock: FUNLAD_clean_linker_1, # of connection points: 2
#     Edge 5, Type (0, 0), BuildingBlock: FUNLAD_clean_linker_1, # of connection points: 2
#     Edge 6, Type (0, 0), BuildingBlock: FUNLAD_clean_linker_1, # of connection points: 2
#     Edge 7, Type (0, 0), BuildingBlock: FUNLAD_clean_linker_1, # of connection points: 2
#     Edge 8, Type (0, 0), BuildingBlock: FUNLAD_clean_linker_1, # of connection points: 2
#     Edge 9, Type (0, 0), BuildingBlock: FUNLAD_clean_linker_1, # of connection points: 2
#     Edge 10, Type (0, 0), BuildingBlock: FUNLAD_clean_linker_1, # of connection points: 2
#     Edge 11, Type (0, 0), BuildingBlock: FUNLAD_clean_linker_1, # of connection points: 2
# Relax obj value: 0.006
# Max RMSD: 0.059
# Mean RMSD: 0.059
data_MOF--net-dmp--node1-QUQFOY_clean_sbu_1--edge1-FUNLAD_clean_linker_1
_symmetry_space_group_name_H-M    P1
_symmetry_Int_Tables_number       1
_symmetry_cell_setting            triclinic
loop_
_symmetry_equiv_pos_as_xyz
'x, y, z'
_cell_length_a     41.048072
_cell_length_b     19.417956
_cell_length_c     20.944066
_cell_angle_alpha  90.144958
_cell_angle_beta   89.851441
_cell_angle_gamma 90.175167
loop_
_atom_site_label
_atom_site_type_symbol
_atom_site_fract_x
_atom_site_fract_y
_atom_site_fract_z
_atom_type_partial_charge
O0 O 0.15814 0.35925 0.23006 0.0
Cd1 Cd 0.13192 0.29288 0.28701 0.0
Cd2 Cd 0.12674 0.22425 0.17254 0.0
O3 O 0.14921 0.31152 0.1358 0.0
O4 O 0.11875 0.34813 0.36348 0.0
O5 O 0.08334 0.30333 0.29528 0.0
C6 C 0.08892 0.34021 0.34552 0.0
C7 C 0.08259 0.17184 0.12093 0.0
C8 C 0.16189 0.35886 0.16976 0.0
C9 C 0.16582 0.1587 0.27971 0.0
O10 O 0.15654 0.15771 0.22191 0.0
O11 O 0.15719 0.20703 0.31715 0.0
O12 O 0.11173 0.16776 0.09816 0.0
O13 O 0.07815 0.20817 0.17192 0.0
O14 O 0.36816 0.85832 0.26412 0.0
Cd15 Cd 0.39456 0.79388 0.2059 0.0
Cd16 Cd 0.3962 0.71604 0.32149 0.0
O17 O 0.37209 0.80244 0.35568 0.0
O18 O 0.40763 0.852 0.13123 0.0
O19 O 0.4432 0.80514 0.19727 0.0
C20 C 0.43751 0.84364 0.14836 0.0
C21 C 0.43108 0.65675 0.39116 0.0
C22 C 0.36173 0.85314 0.32333 0.0
C23 C 0.36039 0.65833 0.20467 0.0
O24 O 0.36938 0.65238 0.26239 0.0
O25 O 0.36869 0.71031 0.17148 0.0
O26 O 0.40008 0.65763 0.39965 0.0
O27 O 0.44288 0.69121 0.34376 0.0
O28 O 0.87182 0.62593 0.75634 0.0
Cd29 Cd 0.89528 0.6917 0.69453 0.0
Cd30 Cd 0.89482 0.77426 0.80202 0.0
O31 O 0.87058 0.69138 0.84288 0.0
O32 O 0.90934 0.63166 0.62182 0.0
O33 O 0.94408 0.68784 0.68369 0.0
C34 C 0.93906 0.64579 0.63683 0.0
C35 C 0.93731 0.83103 0.85487 0.0
C36 C 0.86325 0.63576 0.81394 0.0
C37 C 0.85705 0.8221 0.68627 0.0
O38 O 0.86673 0.83401 0.74287 0.0
O39 O 0.86592 0.76799 0.65679 0.0
O40 O 0.90748 0.83787 0.87311 0.0
O41 O 0.94329 0.79003 0.80765 0.0
O42 O 0.6569 0.15569 0.75271 0.0
Cd43 Cd 0.62935 0.2171 0.81286 0.0
Cd44 Cd 0.63835 0.30866 0.70656 0.0
O45 O 0.66437 0.22619 0.67106 0.0
O46 O 0.61522 0.15191 0.88166 0.0
O47 O 0.58047 0.20489 0.81829 0.0
C48 C 0.58555 0.16219 0.86433 0.0
C49 C 0.6059 0.37329 0.63679 0.0
C50 C 0.66913 0.16866 0.69813 0.0
C51 C 0.66605 0.34989 0.83564 0.0
O52 O 0.66185 0.36343 0.77687 0.0
O53 O 0.65414 0.2955 0.86026 0.0
O54 O 0.63718 0.37484 0.63356 0.0
O55 O 0.59259 0.33384 0.67909 0.0
H56 H 0.33237 0.89535 0.40325 0.0
C57 C 0.33855 0.90175 0.35312 0.0
H58 H 0.32784 0.95395 0.2673 0.0
H59 H 0.18207 0.99023 0.37763 0.0
H60 H 0.1778 0.86569 0.36766 0.0
H61 H 0.22641 0.79539 0.34437 0.0
H62 H 0.27952 0.84863 0.33257 0.0
C63 C 0.32192 0.94709 0.31748 0.0
C64 C 0.29365 0.98668 0.34235 0.0
C65 C 0.26277 0.95433 0.34878 0.0
C66 C 0.23451 0.99497 0.35952 0.0
C67 C 0.20405 0.96163 0.36718 0.0
C68 C 0.20132 0.89032 0.36197 0.0
C69 C 0.2287 0.85074 0.34906 0.0
C70 C 0.25912 0.88205 0.34249 0.0
H71 H 0.19572 0.06676 0.26493 0.0
C72 C 0.18962 0.10642 0.29971 0.0
H73 H 0.20257 0.1524 0.3875 0.0
H74 H 0.34959 0.06284 0.34166 0.0
H75 H 0.35377 0.18728 0.35192 0.0
H76 H 0.30458 0.25831 0.36664 0.0
H77 H 0.25103 0.20567 0.37158 0.0
C78 C 0.20719 0.11108 0.35365 0.0
C79 C 0.23696 0.06782 0.36091 0.0
C80 C 0.26813 0.0996 0.35978 0.0
C81 C 0.2965 0.05883 0.35051 0.0
C82 C 0.32729 0.09172 0.34794 0.0
C83 C 0.33003 0.16296 0.35392 0.0
C84 C 0.30233 0.20294 0.36227 0.0
C85 C 0.27168 0.17198 0.36501 0.0
H86 H 0.18622 0.41076 0.08809 0.0
C87 C 0.18394 0.40984 0.13979 0.0
H88 H 0.2013 0.44892 0.22752 0.0
H89 H 0.33577 0.5129 0.07481 0.0
H90 H 0.33876 0.39007 0.05247 0.0
H91 H 0.29209 0.31375 0.07582 0.0
H92 H 0.24216 0.35943 0.12033 0.0
C93 C 0.20367 0.44937 0.17582 0.0
C94 C 0.2295 0.49511 0.14925 0.0
C95 C 0.2586 0.46688 0.12345 0.0
C96 C 0.286 0.51032 0.11215 0.0
C97 C 0.31467 0.4815 0.0858 0.0
C98 C 0.31663 0.41132 0.07255 0.0
C99 C 0.29032 0.36839 0.08554 0.0
C100 C 0.26165 0.39546 0.11092 0.0
H101 H 0.33295 0.56142 0.20874 0.0
C102 C 0.33664 0.60768 0.18039 0.0
H103 H 0.31716 0.67063 0.10799 0.0
H104 H 0.1761 0.56664 0.18971 0.0
H105 H 0.17347 0.68928 0.21242 0.0
H106 H 0.22163 0.76374 0.19686 0.0
H107 H 0.27252 0.7164 0.1579 0.0
C108 C 0.31525 0.62237 0.1339 0.0
C109 C 0.28469 0.58101 0.12881 0.0
C110 C 0.25487 0.61009 0.14983 0.0
C111 C 0.22724 0.56704 0.15986 0.0
C112 C 0.19793 0.59701 0.18225 0.0
C113 C 0.19606 0.66728 0.19523 0.0
C114 C 0.22316 0.70921 0.18636 0.0
C115 C 0.25227 0.68128 0.16398 0.0
H116 H 0.71369 0.14465 0.64427 0.0
C117 C 0.69388 0.12173 0.67152 0.0
H118 H 0.67527 0.03309 0.71563 0.0
H119 H 0.81758 0.95637 0.56528 0.0
H120 H 0.79195 0.99262 0.46668 0.0
H121 H 0.7355 0.03594 0.4665 0.0
H122 H 0.70466 0.04508 0.56526 0.0
C123 C 0.69542 0.05524 0.68885 0.0
C124 C 0.72668 0.01617 0.68548 0.0
C125 C 0.74364 1.00722 0.62683 0.0
C126 C 0.77553 0.97838 0.62638 0.0
C127 C 0.79283 0.97508 0.56794 0.0
C128 C 0.77846 0.99605 0.51105 0.0
C129 C 0.74672 0.02071 0.51098 0.0
C130 C 0.72939 0.02628 0.56804 0.0
H131 H 0.81432 0.84141 0.62523 0.0
C132 C 0.8307 0.86494 0.6597 0.0
H133 H 0.83963 0.94847 0.72116 0.0
H134 H 0.70104 0.02382 0.80723 0.0
H135 H 0.72422 0.97623 0.90304 0.0
H136 H 0.7768 0.9153 0.90009 0.0
H137 H 0.80679 0.90325 0.8013 0.0
C138 C 0.82318 0.92602 0.68616 0.0
C139 C 0.78949 0.95435 0.684 0.0
C140 C 0.77146 0.95837 0.74184 0.0
C141 C 0.74043 0.99065 0.74292 0.0
C142 C 0.72409 0.99766 0.80243 0.0
C143 C 0.73721 0.9708 0.85827 0.0
C144 C 0.76684 0.93674 0.85667 0.0
C145 C 0.78389 0.93056 0.79944 0.0
H146 H 0.83533 0.53966 0.81412 0.0
C147 C 0.84046 0.58555 0.84231 0.0
H148 H 0.82508 0.64742 0.91942 0.0
H149 H 0.67946 0.55821 0.86077 0.0
H150 H 0.67689 0.68332 0.8598 0.0
H151 H 0.72624 0.75334 0.87848 0.0
H152 H 0.77823 0.69911 0.89873 0.0
C153 C 0.82128 0.60008 0.89274 0.0
C154 C 0.79046 0.56008 0.90191 0.0
C155 C 0.76009 0.59305 0.89213 0.0
C156 C 0.7317 0.55281 0.88044 0.0
C157 C 0.7018 0.58666 0.86897 0.0
C158 C 0.69998 0.65828 0.86853 0.0
C159 C 0.72776 0.69768 0.87912 0.0
C160 C 0.75753 0.66578 0.89061 0.0
H161 H 0.69086 0.38372 0.9246 0.0
C162 C 0.68809 0.39404 0.87393 0.0
H163 H 0.70447 0.45157 0.79474 0.0
H164 H 0.84224 0.48304 0.93929 0.0
H165 H 0.8447 0.35783 0.94348 0.0
H166 H 0.79661 0.2873 0.91597 0.0
H167 H 0.74582 0.34089 0.88568 0.0
C168 C 0.70741 0.44086 0.8453 0.0
C169 C 0.73372 0.48003 0.87825 0.0
C170 C 0.76327 0.44714 0.89551 0.0
C171 C 0.79144 0.48753 0.90883 0.0
C172 C 0.82056 0.45414 0.92685 0.0
C173 C 0.82221 0.3826 0.92971 0.0
C174 C 0.7951 0.34292 0.91438 0.0
C175 C 0.76597 0.37448 0.89718 0.0
H176 H 0.03101 0.13981 0.11118 0.0
C177 C 0.05533 0.13334 0.09146 0.0
H178 H 0.08442 0.08179 0.02318 0.0
H179 H 0.96013 0.86472 0.04185 0.0
H180 H 0.97753 0.84516 0.15088 0.0
H181 H 0.02126 0.91548 0.19881 0.0
H182 H 0.04763 1.00613 0.13841 0.0
C183 C 0.06027 0.0878 0.04382 0.0
C184 C 0.03338 0.04558 0.01591 0.0
C185 C 0.01845 0.9921 0.05183 0.0
C186 C 0.99362 0.95058 0.02378 0.0
C187 C 0.97907 0.89777 0.06077 0.0
C188 C 0.98889 0.88583 0.12336 0.0
C189 C 0.01349 0.92548 0.15037 0.0
C190 C 0.02828 0.97778 0.1152 0.0
H191 H 0.98856 0.86382 0.868 0.0
C192 C 0.96381 0.87111 0.88521 0.0
H193 H 0.93329 0.92511 0.94942 0.0
H194 H 0.05704 0.14303 0.93373 0.0
H195 H 0.03971 0.16225 0.82462 0.0
H196 H 0.99636 0.09106 0.77642 0.0
H197 H 0.97023 0.99997 0.83678 0.0
C198 C 0.95784 0.9183 0.93095 0.0
C199 C 0.98424 0.96138 0.95948 0.0
C200 C 0.99912 0.01487 0.92359 0.0
C201 C 0.02386 0.05657 0.95169 0.0
C202 C 0.03825 0.10963 0.91474 0.0
C203 C 0.02846 0.1214 0.8521 0.0
C204 C 1.00407 0.08129 0.82495 0.0
C205 C 0.9894 0.02882 0.86009 0.0
H206 H 0.53355 0.13565 0.87923 0.0
C207 C 0.5582 0.12511 0.89523 0.0
H208 H 0.58769 0.06827 0.95852 0.0
H209 H 0.47606 1.00709 0.1588 0.0
H210 H 0.50655 0.09525 0.21492 0.0
H211 H 0.5509 0.1588 0.16124 0.0
H212 H 0.5648 0.13493 0.0508 0.0
C213 C 0.5632 0.07788 0.94114 0.0
C214 C 0.5359 0.03984 0.97261 0.0
C215 C 0.52849 0.05321 0.03764 0.0
C216 C 0.50325 0.01563 0.06897 0.0
C217 C 0.49556 0.0324 0.13312 0.0
C218 C 0.51274 0.08332 0.16585 0.0
C219 C 0.53768 0.11915 0.13561 0.0
C220 C 0.54548 0.10473 0.07223 0.0
H221 H 0.48923 0.87032 0.13082 0.0
C222 C 0.46445 0.87928 0.11477 0.0
H223 H 0.43434 0.93297 0.05023 0.0
H224 H 0.54524 0.99757 0.84896 0.0
H225 H 0.51472 0.90943 0.79274 0.0
H226 H 0.47063 0.84527 0.84661 0.0
H227 H 0.45695 0.86856 0.95729 0.0
C228 C 0.45896 0.92467 0.06749 0.0
C229 C 0.48588 0.96353 0.03557 0.0
C230 C 0.4932 0.95037 0.97044 0.0
C231 C 0.51838 0.98809 0.93907 0.0
C232 C 0.5259 0.97182 0.87475 0.0
C233 C 0.50867 0.92101 0.84195 0.0
C234 C 0.48387 0.88484 0.87229 0.0
C235 C 0.4762 0.89891 0.93581 0.0
H236 H 0.99128 0.62565 0.61797 0.0
C237 C 0.96665 0.61277 0.60315 0.0
H238 H 0.93746 0.55313 0.54091 0.0
H239 H 0.04981 0.50302 0.3383 0.0
H240 H 0.01865 0.59071 0.28386 0.0
H241 H 0.97372 0.65101 0.33862 0.0
H242 H 0.95989 0.62435 0.44852 0.0
C243 C 0.96195 0.56536 0.55704 0.0
C244 C 0.98956 0.52942 0.52482 0.0
C245 C 0.9969 0.54434 0.46012 0.0
C246 C 0.02245 0.50858 0.42815 0.0
C247 C 0.03008 0.5269 0.3644 0.0
C248 C 0.01251 0.57757 0.33264 0.0
C249 C 0.98724 0.61158 0.3635 0.0
C250 C 0.9795 0.5956 0.42653 0.0
H251 H 0.03714 0.36532 0.36346 0.0
C252 C 0.06189 0.37459 0.37974 0.0
H253 H 0.09185 0.42802 0.44526 0.0
H254 H 0.98062 0.48491 0.64774 0.0
H255 H 1.0118 0.39728 0.70232 0.0
H256 H 0.05633 0.336 0.64725 0.0
H257 H 0.06982 0.36172 0.53703 0.0
C258 C 0.06726 0.41932 0.42784 0.0
C259 C 0.04019 0.45667 0.46055 0.0
C260 C 0.03296 0.44204 0.52539 0.0
C261 C 1.00749 0.47802 0.55742 0.0
C262 C 1.00013 0.46042 0.62146 0.0
C263 C 0.01774 0.4099 0.65332 0.0
C264 C 0.04279 0.37536 0.6223 0.0
C265 C 0.05034 0.39081 0.55906 0.0
H266 H 0.43936 0.58813 0.4729 0.0
C267 C 0.45152 0.61484 0.43394 0.0
H268 H 0.49654 0.6324 0.38738 0.0
H269 H 0.57325 0.5437 0.64008 0.0
H270 H 0.5811 0.66739 0.64324 0.0
H271 H 0.55333 0.74286 0.56618 0.0
H272 H 0.51729 0.695 0.4857 0.0
C273 C 0.48362 0.60546 0.4252 0.0
C274 C 0.50234 0.55903 0.4683 0.0
C275 C 0.52405 0.58746 0.51386 0.0
C276 C 0.54062 0.54369 0.55745 0.0
C277 C 0.56089 0.57407 0.60442 0.0
C278 C 0.56542 0.64515 0.60712 0.0
C279 C 0.54974 0.68766 0.56381 0.0
C280 C 0.52916 0.6595 0.51781 0.0
H281 H 0.59987 0.44664 0.55773 0.0
C282 C 0.58667 0.41723 0.5936 0.0
H283 H 0.54044 0.39461 0.63291 0.0
H284 H 0.46456 0.487 0.38351 0.0
H285 H 0.45685 0.36323 0.37984 0.0
H286 H 0.48521 0.28745 0.45581 0.0
H287 H 0.52157 0.33499 0.5358 0.0
C288 C 0.55422 0.42455 0.59832 0.0
C289 C 0.53613 0.47116 0.55429 0.0
C290 C 0.51451 0.44274 0.5085 0.0
C291 C 0.49782 0.48658 0.46515 0.0
C292 C 0.47723 0.4564 0.41861 0.0
C293 C 0.47274 0.38533 0.41568 0.0
C294 C 0.48874 0.34266 0.4584 0.0
C295 C 0.50949 0.37068 0.50419 0.0
loop_
_geom_bond_atom_site_label_1
_geom_bond_atom_site_label_2
_geom_bond_distance
_geom_bond_site_symmetry_2
_ccdc_geom_bond_type
O0 Cd1 2.223 . S
O0 C8 1.315 . S
Cd1 O0 2.223 . S
Cd1 O4 2.297 . S
Cd1 O5 2.439 . S
Cd1 O11 2.240 . S
Cd2 O3 2.240 . S
Cd2 O10 2.223 . S
Cd2 O12 2.297 . S
Cd2 O13 2.439 . S
O3 Cd2 2.240 . S
O3 C8 1.279 . S
O4 Cd1 2.297 . S
O4 C6 1.247 . S
O5 Cd1 2.439 . S
O5 C6 1.208 . S
C6 O4 1.247 . S
C6 O5 1.208 . S
C7 O12 1.247 . S
C7 O13 1.208 . S
C8 O0 1.315 . S
C8 O3 1.279 . S
C9 O10 1.315 . S
C9 O11 1.279 . S
O10 Cd2 2.223 . S
O10 C9 1.315 . S
O11 Cd1 2.240 . S
O11 C9 1.279 . S
O12 Cd2 2.297 . S
O12 C7 1.247 . S
O13 Cd2 2.439 . S
O13 C7 1.208 . S
O14 Cd15 2.223 . S
O14 C22 1.315 . S
Cd15 O14 2.223 . S
Cd15 O18 2.297 . S
Cd15 O19 2.439 . S
Cd15 O25 2.240 . S
Cd16 O17 2.240 . S
Cd16 O24 2.223 . S
Cd16 O26 2.297 . S
Cd16 O27 2.439 . S
O17 Cd16 2.240 . S
O17 C22 1.279 . S
O18 Cd15 2.297 . S
O18 C20 1.247 . S
O19 Cd15 2.439 . S
O19 C20 1.208 . S
C20 O18 1.247 . S
C20 O19 1.208 . S
C21 O26 1.247 . S
C21 O27 1.208 . S
C22 O14 1.315 . S
C22 O17 1.279 . S
C23 O24 1.315 . S
C23 O25 1.279 . S
O24 Cd16 2.223 . S
O24 C23 1.315 . S
O25 Cd15 2.240 . S
O25 C23 1.279 . S
O26 Cd16 2.297 . S
O26 C21 1.247 . S
O27 Cd16 2.439 . S
O27 C21 1.208 . S
O28 Cd29 2.223 . S
O28 C36 1.315 . S
Cd29 O28 2.223 . S
Cd29 O32 2.297 . S
Cd29 O33 2.439 . S
Cd29 O39 2.240 . S
Cd30 O31 2.240 . S
Cd30 O38 2.223 . S
Cd30 O40 2.297 . S
Cd30 O41 2.439 . S
O31 Cd30 2.240 . S
O31 C36 1.279 . S
O32 Cd29 2.297 . S
O32 C34 1.247 . S
O33 Cd29 2.439 . S
O33 C34 1.208 . S
C34 O32 1.247 . S
C34 O33 1.208 . S
C35 O40 1.247 . S
C35 O41 1.208 . S
C36 O28 1.315 . S
C36 O31 1.279 . S
C37 O38 1.315 . S
C37 O39 1.279 . S
O38 Cd30 2.223 . S
O38 C37 1.315 . S
O39 Cd29 2.240 . S
O39 C37 1.279 . S
O40 Cd30 2.297 . S
O40 C35 1.247 . S
O41 Cd30 2.439 . S
O41 C35 1.208 . S
O42 Cd43 2.223 . S
O42 C50 1.315 . S
Cd43 O42 2.223 . S
Cd43 O46 2.297 . S
Cd43 O47 2.439 . S
Cd43 O53 2.240 . S
Cd44 O45 2.240 . S
Cd44 O52 2.223 . S
Cd44 O54 2.297 . S
Cd44 O55 2.439 . S
O45 Cd44 2.240 . S
O45 C50 1.279 . S
O46 Cd43 2.297 . S
O46 C48 1.247 . S
O47 Cd43 2.439 . S
O47 C48 1.208 . S
C48 O46 1.247 . S
C48 O47 1.208 . S
C49 O54 1.247 . S
C49 O55 1.208 . S
C50 O42 1.315 . S
C50 O45 1.279 . S
C51 O52 1.315 . S
C51 O53 1.279 . S
O52 Cd44 2.223 . S
O52 C51 1.315 . S
O53 Cd43 2.240 . S
O53 C51 1.279 . S
O54 Cd44 2.297 . S
O54 C49 1.247 . S
O55 Cd44 2.439 . S
O55 C49 1.208 . S
H56 C57 0.951 . S
C57 H56 0.951 . S
C57 C63 1.265 . S
H58 C63 0.950 . S
H59 C67 0.946 1_545 S
H60 C68 0.950 . S
H61 C69 0.951 . S
H62 C70 0.951 . S
C63 C57 1.265 . S
C63 H58 0.950 . S
C63 C64 1.478 . S
C64 C63 1.478 . S
C64 C65 1.397 . S
C64 C81 1.394 . S
C65 C64 1.397 . S
C65 C66 1.438 1_565 S
C65 C70 1.429 . S
C66 C65 1.438 1_545 S
C66 C67 1.428 1_545 S
C66 C79 1.394 . S
C67 H59 0.946 1_565 S
C67 C66 1.428 1_565 S
C67 C68 1.348 . S
C68 H60 0.950 . S
C68 C67 1.348 . S
C68 C69 1.424 . S
C69 H61 0.951 . S
C69 C68 1.424 . S
C69 C70 1.347 . S
C70 H62 0.951 . S
C70 C65 1.429 . S
C70 C69 1.347 . S
H71 C72 0.951 . S
C72 H71 0.951 . S
C72 C78 1.265 . S
H73 C78 0.950 . S
H74 C82 0.946 1_565 S
H75 C83 0.950 . S
H76 C84 0.951 . S
H77 C85 0.951 . S
C78 C72 1.265 . S
C78 H73 0.950 . S
C78 C79 1.478 . S
C79 C66 1.394 . S
C79 C78 1.478 . S
C79 C80 1.397 . S
C80 C79 1.397 . S
C80 C81 1.438 1_545 S
C80 C85 1.429 . S
C81 C64 1.394 . S
C81 C80 1.438 1_565 S
C81 C82 1.428 1_565 S
C82 H74 0.946 1_545 S
C82 C81 1.428 1_545 S
C82 C83 1.348 . S
C83 H75 0.950 . S
C83 C82 1.348 . S
C83 C84 1.424 . S
C84 H76 0.951 . S
C84 C83 1.424 . S
C84 C85 1.347 . S
C85 H77 0.951 . S
C85 C80 1.429 . S
C85 C84 1.347 . S
H86 C87 0.951 . S
C87 H86 0.951 . S
C87 C93 1.265 . S
H88 C93 0.950 . S
H89 C97 0.949 . S
H90 C98 0.950 . S
H91 C99 0.951 . S
H92 C100 0.951 . S
C93 C87 1.265 . S
C93 H88 0.950 . S
C93 C94 1.478 . S
C94 C93 1.478 . S
C94 C95 1.397 . S
C94 C111 1.394 . S
C95 C94 1.397 . S
C95 C96 1.438 . S
C95 C100 1.429 . S
C96 C95 1.438 . S
C96 C97 1.428 . S
C96 C109 1.394 . S
C97 H89 0.949 . S
C97 C96 1.428 . S
C97 C98 1.345 . S
C98 H90 0.950 . S
C98 C97 1.345 . S
C98 C99 1.424 . S
C99 H91 0.951 . S
C99 C98 1.424 . S
C99 C100 1.347 . S
C100 H92 0.951 . S
C100 C95 1.429 . S
C100 C99 1.347 . S
H101 C102 0.951 . S
C102 H101 0.951 . S
C102 C108 1.265 . S
H103 C108 0.950 . S
H104 C112 0.949 . S
H105 C113 0.950 . S
H106 C114 0.951 . S
H107 C115 0.951 . S
C108 C102 1.265 . S
C108 H103 0.950 . S
C108 C109 1.478 . S
C109 C96 1.394 . S
C109 C108 1.478 . S
C109 C110 1.397 . S
C110 C109 1.397 . S
C110 C111 1.438 . S
C110 C115 1.429 . S
C111 C94 1.394 . S
C111 C110 1.438 . S
C111 C112 1.428 . S
C112 H104 0.949 . S
C112 C111 1.428 . S
C112 C113 1.345 . S
C113 H105 0.950 . S
C113 C112 1.345 . S
C113 C114 1.424 . S
C114 H106 0.951 . S
C114 C113 1.424 . S
C114 C115 1.347 . S
C115 H107 0.951 . S
C115 C110 1.429 . S
C115 C114 1.347 . S
H116 C117 0.951 . S
C117 H116 0.951 . S
C117 C123 1.265 . S
H118 C123 0.950 . S
H119 C127 0.949 . S
H120 C128 0.950 . S
H121 C129 0.951 . S
H122 C130 0.951 . S
C123 C117 1.265 . S
C123 H118 0.950 . S
C123 C124 1.478 . S
C124 C123 1.478 . S
C124 C125 1.397 . S
C124 C141 1.394 . S
C125 C124 1.397 . S
C125 C126 1.438 1_545 S
C125 C130 1.429 . S
C126 C125 1.438 1_565 S
C126 C127 1.428 . S
C126 C139 1.394 . S
C127 H119 0.949 . S
C127 C126 1.428 . S
C127 C128 1.345 . S
C128 H120 0.950 . S
C128 C127 1.345 . S
C128 C129 1.424 . S
C129 H121 0.951 . S
C129 C128 1.424 . S
C129 C130 1.347 1_565 S
C130 H122 0.951 . S
C130 C125 1.429 . S
C130 C129 1.347 1_545 S
H131 C132 0.951 . S
C132 H131 0.951 . S
C132 C138 1.265 . S
H133 C138 0.950 . S
H134 C142 0.949 . S
H135 C143 0.950 . S
H136 C144 0.951 . S
H137 C145 0.951 . S
C138 C132 1.265 . S
C138 H133 0.950 . S
C138 C139 1.478 . S
C139 C126 1.394 . S
C139 C138 1.478 . S
C139 C140 1.397 . S
C140 C139 1.397 . S
C140 C141 1.438 1_565 S
C140 C145 1.429 . S
C141 C124 1.394 . S
C141 C140 1.438 1_545 S
C141 C142 1.428 . S
C142 H134 0.949 . S
C142 C141 1.428 . S
C142 C143 1.345 . S
C143 H135 0.950 . S
C143 C142 1.345 . S
C143 C144 1.424 . S
C144 H136 0.951 . S
C144 C143 1.424 . S
C144 C145 1.347 1_545 S
C145 H137 0.951 . S
C145 C140 1.429 . S
C145 C144 1.347 1_565 S
H146 C147 0.951 . S
C147 H146 0.951 . S
C147 C153 1.265 . S
H148 C153 0.950 . S
H149 C157 0.949 . S
H150 C158 0.950 . S
H151 C159 0.951 . S
H152 C160 0.951 . S
C153 C147 1.265 . S
C153 H148 0.950 . S
C153 C154 1.478 . S
C154 C153 1.478 . S
C154 C155 1.397 . S
C154 C171 1.394 . S
C155 C154 1.397 . S
C155 C156 1.438 . S
C155 C160 1.429 . S
C156 C155 1.438 . S
C156 C157 1.428 . S
C156 C169 1.394 . S
C157 H149 0.949 . S
C157 C156 1.428 . S
C157 C158 1.345 . S
C158 H150 0.950 . S
C158 C157 1.345 . S
C158 C159 1.424 . S
C159 H151 0.951 . S
C159 C158 1.424 . S
C159 C160 1.347 . S
C160 H152 0.951 . S
C160 C155 1.429 . S
C160 C159 1.347 . S
H161 C162 0.951 . S
C162 H161 0.951 . S
C162 C168 1.265 . S
H163 C168 0.950 . S
H164 C172 0.949 . S
H165 C173 0.950 . S
H166 C174 0.951 . S
H167 C175 0.951 . S
C168 C162 1.265 . S
C168 H163 0.950 . S
C168 C169 1.478 . S
C169 C156 1.394 . S
C169 C168 1.478 . S
C169 C170 1.397 . S
C170 C169 1.397 . S
C170 C171 1.438 . S
C170 C175 1.429 . S
C171 C154 1.394 . S
C171 C170 1.438 . S
C171 C172 1.428 . S
C172 H164 0.949 . S
C172 C171 1.428 . S
C172 C173 1.345 . S
C173 H165 0.950 . S
C173 C172 1.345 . S
C173 C174 1.424 . S
C174 H166 0.951 . S
C174 C173 1.424 . S
C174 C175 1.347 . S
C175 H167 0.951 . S
C175 C170 1.429 . S
C175 C174 1.347 . S
H176 C177 0.951 . S
C177 H176 0.951 . S
C177 C183 1.265 . S
H178 C183 0.950 . S
H179 C187 0.949 . S
H180 C188 0.950 . S
H181 C189 0.951 . S
H182 C190 0.965 1_545 S
C183 C177 1.265 . S
C183 H178 0.950 . S
C183 C184 1.478 . S
C184 C183 1.478 . S
C184 C185 1.397 1_445 S
C184 C201 1.394 1_554 S
C185 C184 1.397 1_665 S
C185 C186 1.438 . S
C185 C190 1.429 . S
C186 C185 1.438 . S
C186 C187 1.428 . S
C186 C199 1.394 1_554 S
C187 H179 0.949 . S
C187 C186 1.428 . S
C187 C188 1.345 . S
C188 H180 0.950 . S
C188 C187 1.345 . S
C188 C189 1.424 . S
C189 H181 0.951 . S
C189 C188 1.424 . S
C189 C190 1.347 . S
C190 H182 0.965 1_565 S
C190 C185 1.429 . S
C190 C189 1.347 . S
H191 C192 0.951 . S
C192 H191 0.951 . S
C192 C198 1.265 . S
H193 C198 0.950 . S
H194 C202 0.949 . S
H195 C203 0.950 . S
H196 C204 0.951 . S
H197 C205 0.965 1_565 S
C198 C192 1.265 . S
C198 H193 0.950 . S
C198 C199 1.478 . S
C199 C186 1.394 1_556 S
C199 C198 1.478 . S
C199 C200 1.397 1_665 S
C200 C199 1.397 1_445 S
C200 C201 1.438 . S
C200 C205 1.429 . S
C201 C184 1.394 1_556 S
C201 C200 1.438 . S
C201 C202 1.428 . S
C202 H194 0.949 . S
C202 C201 1.428 . S
C202 C203 1.345 . S
C203 H195 0.950 . S
C203 C202 1.345 . S
C203 C204 1.424 . S
C204 H196 0.951 . S
C204 C203 1.424 . S
C204 C205 1.347 . S
C205 H197 0.965 1_545 S
C205 C200 1.429 . S
C205 C204 1.347 . S
H206 C207 0.951 . S
C207 H206 0.951 . S
C207 C213 1.265 . S
H208 C213 0.950 . S
H209 C217 0.949 1_565 S
H210 C218 0.950 . S
H211 C219 0.951 . S
H212 C220 0.951 . S
C213 C207 1.265 . S
C213 H208 0.950 . S
C213 C214 1.478 . S
C214 C213 1.478 . S
C214 C215 1.397 1_556 S
C214 C231 1.394 . S
C215 C214 1.397 1_554 S
C215 C216 1.438 1_545 S
C215 C220 1.429 . S
C216 C215 1.438 1_565 S
C216 C217 1.428 1_565 S
C216 C229 1.394 . S
C217 H209 0.949 1_545 S
C217 C216 1.428 1_545 S
C217 C218 1.344 . S
C218 H210 0.950 . S
C218 C217 1.344 . S
C218 C219 1.424 . S
C219 H211 0.951 . S
C219 C218 1.424 . S
C219 C220 1.347 . S
C220 H212 0.951 . S
C220 C215 1.429 . S
C220 C219 1.347 . S
H221 C222 0.951 . S
C222 H221 0.951 . S
C222 C228 1.265 . S
H223 C228 0.950 . S
H224 C232 0.949 1_545 S
H225 C233 0.950 . S
H226 C234 0.951 . S
H227 C235 0.951 . S
C228 C222 1.265 . S
C228 H223 0.950 . S
C228 C229 1.478 . S
C229 C216 1.394 . S
C229 C228 1.478 . S
C229 C230 1.397 1_554 S
C230 C229 1.397 1_556 S
C230 C231 1.438 1_565 S
C230 C235 1.429 . S
C231 C214 1.394 . S
C231 C230 1.438 1_545 S
C231 C232 1.428 1_545 S
C232 H224 0.949 1_565 S
C232 C231 1.428 1_565 S
C232 C233 1.344 . S
C233 H225 0.950 . S
C233 C232 1.344 . S
C233 C234 1.424 . S
C234 H226 0.951 . S
C234 C233 1.424 . S
C234 C235 1.347 . S
C235 H227 0.951 . S
C235 C230 1.429 . S
C235 C234 1.347 . S
H236 C237 0.951 . S
C237 H236 0.951 . S
C237 C243 1.265 . S
H238 C243 0.950 . S
H239 C247 0.949 . S
H240 C248 0.950 . S
H241 C249 0.951 . S
H242 C250 0.951 . S
C243 C237 1.265 . S
C243 H238 0.950 . S
C243 C244 1.478 . S
C244 C243 1.478 . S
C244 C245 1.397 . S
C244 C261 1.394 . S
C245 C244 1.397 . S
C245 C246 1.438 1_655 S
C245 C250 1.429 . S
C246 C245 1.438 1_455 S
C246 C247 1.428 . S
C246 C259 1.394 . S
C247 H239 0.949 . S
C247 C246 1.428 . S
C247 C248 1.345 1_455 S
C248 H240 0.950 . S
C248 C247 1.345 1_655 S
C248 C249 1.424 . S
C249 H241 0.951 . S
C249 C248 1.424 . S
C249 C250 1.347 . S
C250 H242 0.951 . S
C250 C245 1.429 . S
C250 C249 1.347 . S
H251 C252 0.951 . S
C252 H251 0.951 . S
C252 C258 1.265 . S
H253 C258 0.950 . S
H254 C262 0.949 . S
H255 C263 0.950 . S
H256 C264 0.951 . S
H257 C265 0.951 . S
C258 C252 1.265 . S
C258 H253 0.950 . S
C258 C259 1.478 . S
C259 C246 1.394 . S
C259 C258 1.478 . S
C259 C260 1.397 . S
C260 C259 1.397 . S
C260 C261 1.438 1_455 S
C260 C265 1.429 . S
C261 C244 1.394 . S
C261 C260 1.438 1_655 S
C261 C262 1.428 . S
C262 H254 0.949 . S
C262 C261 1.428 . S
C262 C263 1.345 1_655 S
C263 H255 0.950 . S
C263 C262 1.345 1_455 S
C263 C264 1.424 . S
C264 H256 0.951 . S
C264 C263 1.424 . S
C264 C265 1.347 . S
C265 H257 0.951 . S
C265 C260 1.429 . S
C265 C264 1.347 . S
H266 C267 0.951 . S
C267 H266 0.951 . S
C267 C273 1.265 . S
H268 C273 0.950 . S
H269 C277 0.949 . S
H270 C278 0.950 . S
H271 C279 0.951 . S
H272 C280 0.951 . S
C273 C267 1.265 . S
C273 H268 0.950 . S
C273 C274 1.478 . S
C274 C273 1.478 . S
C274 C275 1.397 . S
C274 C291 1.394 . S
C275 C274 1.397 . S
C275 C276 1.438 . S
C275 C280 1.429 . S
C276 C275 1.438 . S
C276 C277 1.428 . S
C276 C289 1.394 . S
C277 H269 0.949 . S
C277 C276 1.428 . S
C277 C278 1.345 . S
C278 H270 0.950 . S
C278 C277 1.345 . S
C278 C279 1.424 . S
C279 H271 0.951 . S
C279 C278 1.424 . S
C279 C280 1.347 . S
C280 H272 0.951 . S
C280 C275 1.429 . S
C280 C279 1.347 . S
H281 C282 0.951 . S
C282 H281 0.951 . S
C282 C288 1.265 . S
H283 C288 0.950 . S
H284 C292 0.949 . S
H285 C293 0.950 . S
H286 C294 0.951 . S
H287 C295 0.951 . S
C288 C282 1.265 . S
C288 H283 0.950 . S
C288 C289 1.478 . S
C289 C276 1.394 . S
C289 C288 1.478 . S
C289 C290 1.397 . S
C290 C289 1.397 . S
C290 C291 1.438 . S
C290 C295 1.429 . S
C291 C274 1.394 . S
C291 C290 1.438 . S
C291 C292 1.428 . S
C292 H284 0.949 . S
C292 C291 1.428 . S
C292 C293 1.345 . S
C293 H285 0.950 . S
C293 C292 1.345 . S
C293 C294 1.424 . S
C294 H286 0.951 . S
C294 C293 1.424 . S
C294 C295 1.347 . S
C295 H287 0.951 . S
C295 C290 1.429 . S
C295 C294 1.347 . S
C57 C22 1.318 . S
C72 C9 1.295 . S
C87 C8 1.294 . S
C102 C23 1.319 . S
C117 C50 1.292 . S
C132 C37 1.309 . S
C147 C36 1.262 . S
C162 C51 1.343 . S
C177 C7 1.467 . S
C192 C35 1.467 . S
C207 C48 1.490 . S
C222 C20 1.490 . S
C237 C34 1.495 . S
C252 C6 1.495 . S
C267 C21 1.438 . S
C282 C49 1.438 . S
