# Generated by pormake.
# Topology hjm, (4)-cn, num edge types: 1
# Building blocks:
#     Node 0, Type 0, BuildingBlock: ICAMEG_clean_sbu_1, # of connection points: 4
#     Node 1, Type 0, BuildingBlock: ICAMEG_clean_sbu_1, # of connection points: 4
#     Node 2, Type 0, BuildingBlock: ICAMEG_clean_sbu_1, # of connection points: 4
#     Node 3, Type 0, BuildingBlock: ICAMEG_clean_sbu_1, # of connection points: 4
#     Node 4, Type 0, BuildingBlock: ICAMEG_clean_sbu_1, # of connection points: 4
#     Node 5, Type 0, BuildingBlock: ICAMEG_clean_sbu_1, # of connection points: 4
#     Node 6, Type 0, BuildingBlock: ICAMEG_clean_sbu_1, # of connection points: 4
#     Node 7, Type 0, BuildingBlock: ICAMEG_clean_sbu_1, # of connection points: 4
#     Edge 8, Type (0, 0), BuildingBlock: XIVTED_clean_linker_0, # of connection points: 2
#     Edge 9, Type (0, 0), BuildingBlock: XIVTED_clean_linker_0, # of connection points: 2
#     Edge 10, Type (0, 0), BuildingBlock: XIVTED_clean_linker_0, # of connection points: 2
#     Edge 11, Type (0, 0), BuildingBlock: XIVTED_clean_linker_0, # of connection points: 2
#     Edge 12, Type (0, 0), BuildingBlock: XIVTED_clean_linker_0, # of connection points: 2
#     Edge 13, Type (0, 0), BuildingBlock: XIVTED_clean_linker_0, # of connection points: 2
#     Edge 14, Type (0, 0), BuildingBlock: XIVTED_clean_linker_0, # of connection points: 2
#     Edge 15, Type (0, 0), BuildingBlock: XIVTED_clean_linker_0, # of connection points: 2
#     Edge 16, Type (0, 0), BuildingBlock: XIVTED_clean_linker_0, # of connection points: 2
#     Edge 17, Type (0, 0), BuildingBlock: XIVTED_clean_linker_0, # of connection points: 2
#     Edge 18, Type (0, 0), BuildingBlock: XIVTED_clean_linker_0, # of connection points: 2
#     Edge 19, Type (0, 0), BuildingBlock: XIVTED_clean_linker_0, # of connection points: 2
#     Edge 20, Type (0, 0), BuildingBlock: XIVTED_clean_linker_0, # of connection points: 2
#     Edge 21, Type (0, 0), BuildingBlock: XIVTED_clean_linker_0, # of connection points: 2
#     Edge 22, Type (0, 0), BuildingBlock: XIVTED_clean_linker_0, # of connection points: 2
#     Edge 23, Type (0, 0), BuildingBlock: XIVTED_clean_linker_0, # of connection points: 2
# Relax obj value: 0.162
# Max RMSD: 0.208
# Mean RMSD: 0.208
data_MOF--net-hjm--node1-ICAMEG_clean_sbu_1--edge1-XIVTED_clean_linker_0
_symmetry_space_group_name_H-M    P1
_symmetry_Int_Tables_number       1
_symmetry_cell_setting            triclinic
loop_
_symmetry_equiv_pos_as_xyz
'x, y, z'
_cell_length_a     25.114862
_cell_length_b     25.878148
_cell_length_c     24.939026
_cell_angle_alpha  90.083784
_cell_angle_beta   69.594685
_cell_angle_gamma 90.161452
loop_
_atom_site_label
_atom_site_type_symbol
_atom_site_fract_x
_atom_site_fract_y
_atom_site_fract_z
_atom_type_partial_charge
Co0 Co 0.18219 0.28483 0.2883 0.0
Co1 Co 0.23056 0.1724 0.32826 0.0
O2 O 0.17096 0.2259 0.34175 0.0
C3 C 0.11216 0.33082 0.40404 0.0
O4 O 0.10922 0.28765 0.43251 0.0
C5 C 0.11872 0.11456 0.38511 0.0
O6 O 0.08854 0.15506 0.38215 0.0
O7 O 0.22674 0.15881 0.2502 0.0
O8 O 0.22699 0.24118 0.22259 0.0
H9 H 0.41226 0.08442 0.21077 0.0
H10 H 0.06374 0.25523 0.36156 0.0
O11 O 0.13875 0.33307 0.35047 0.0
H12 H 0.06535 0.25101 0.16354 0.0
H13 H 0.12542 0.44634 0.20893 0.0
H14 H 0.28078 0.3241 0.19141 0.0
H15 H 0.15243 0.27226 0.18323 0.0
H16 H 0.10954 0.37112 0.27317 0.0
O17 O 0.17281 0.11591 0.36281 0.0
H18 H 0.33746 0.15075 0.2318 0.0
H19 H 0.25036 0.08119 0.393 0.0
H20 H 0.29825 0.39843 0.12579 0.0
H21 H 0.97559 0.2348 0.34387 0.0
H22 H 0.22023 0.46026 0.1344 0.0
H23 H 0.97585 0.2328 0.24421 0.0
O24 O 0.25264 0.30408 0.30246 0.0
H25 H 0.15043 0.20425 0.54121 0.0
H26 H 0.32547 0.18648 0.37293 0.0
H27 H 0.33241 0.2014 0.46767 0.0
H28 H 0.24441 0.20925 0.55308 0.0
H29 H 0.14541 0.18997 0.44553 0.0
H30 H 0.32344 0.01337 0.37294 0.0
H31 H 0.40529 0.01485 0.28139 0.0
O32 O 0.29188 0.22545 0.29549 0.0
C33 C 0.2339 0.19323 0.21158 0.0
C34 C 0.37686 0.08345 0.25089 0.0
C35 C 0.32691 0.04347 0.34181 0.0
N36 N 0.28934 0.1199 0.31351 0.0
C37 C 0.33444 0.12106 0.26316 0.0
C38 C 0.28538 0.0818 0.35271 0.0
C39 C 0.37289 0.04437 0.29049 0.0
C40 C 0.06438 0.25495 0.31819 0.0
N41 N 0.11328 0.26584 0.27375 0.0
C42 C 0.01425 0.24303 0.30836 0.0
C43 C 0.01442 0.24179 0.25244 0.0
C44 C 0.06462 0.252 0.20719 0.0
C45 C 0.11389 0.26386 0.21868 0.0
C46 C 0.15973 0.41962 0.20472 0.0
C47 C 0.24655 0.35062 0.19529 0.0
C48 C 0.15109 0.37702 0.24114 0.0
N49 N 0.19425 0.34308 0.23612 0.0
C50 C 0.2567 0.39272 0.15804 0.0
C51 C 0.21293 0.42741 0.1629 0.0
C52 C 0.29475 0.27461 0.29658 0.0
C53 C 0.18906 0.20011 0.50449 0.0
C54 C 0.28687 0.19021 0.40962 0.0
C55 C 0.29112 0.19852 0.46333 0.0
C56 C 0.24179 0.20304 0.51113 0.0
N57 N 0.23497 0.18616 0.40349 0.0
C58 C 0.18647 0.19178 0.45006 0.0
Co59 Co 0.8144 0.35838 0.19357 0.0
Co60 Co 0.7956 0.22893 0.20675 0.0
O61 O 0.83954 0.28857 0.16432 0.0
C62 C 0.87202 0.37358 0.06492 0.0
O63 O 0.88587 0.32474 0.05463 0.0
C64 C 0.91602 0.18911 0.14709 0.0
O65 O 0.93633 0.23615 0.13553 0.0
O66 O 0.81521 0.25123 0.27489 0.0
O67 O 0.78563 0.33253 0.27438 0.0
H68 H 0.65457 0.14372 0.37935 0.0
H69 H 0.93654 0.33751 0.1239 0.0
O70 O 0.84253 0.38877 0.11498 0.0
H71 H 0.93956 0.42211 0.29974 0.0
H72 H 0.81929 0.55301 0.19258 0.0
H73 H 0.70936 0.39814 0.28131 0.0
H74 H 0.84906 0.40787 0.28434 0.0
H75 H 0.85978 0.46612 0.16579 0.0
O76 O 0.86423 0.18198 0.17865 0.0
H77 H 0.71126 0.21621 0.32382 0.0
H78 H 0.78787 0.1163 0.1828 0.0
H79 H 0.66837 0.48428 0.31092 0.0
H80 H 0.02782 0.35118 0.13746 0.0
H81 H 0.72293 0.56246 0.26587 0.0
H82 H 0.02986 0.39342 0.22614 0.0
O83 O 0.74028 0.34378 0.18484 0.0
H84 H 0.8362 0.19544 0.99699 0.0
H85 H 0.68863 0.19588 0.18904 0.0
H86 H 0.66344 0.16983 0.10587 0.0
H87 H 0.73764 0.16886 0.00903 0.0
H88 H 0.85938 0.22202 0.081 0.0
H89 H 0.7326 0.04263 0.23707 0.0
H90 H 0.66477 0.05635 0.33571 0.0
O91 O 0.72358 0.27072 0.2351 0.0
C92 C 0.80075 0.29523 0.2992 0.0
C93 C 0.68397 0.13734 0.33632 0.0
C94 C 0.72784 0.08057 0.25652 0.0
N95 N 0.75298 0.17059 0.25008 0.0
C96 C 0.7162 0.17824 0.30464 0.0
C97 C 0.75937 0.12238 0.22614 0.0
C98 C 0.68979 0.08827 0.3119 0.0
C99 C 0.93674 0.35666 0.16208 0.0
N100 N 0.88712 0.37235 0.20272 0.0
C101 C 0.98877 0.36409 0.16973 0.0
C102 C 0.98992 0.38774 0.2195 0.0
C103 C 0.93928 0.4038 0.26079 0.0
C104 C 0.88809 0.39571 0.25167 0.0
C105 C 0.7952 0.51922 0.21282 0.0
C106 C 0.73413 0.43192 0.26248 0.0
C107 C 0.81779 0.46986 0.19762 0.0
N108 N 0.78691 0.4269 0.22173 0.0
C109 C 0.71053 0.48068 0.27929 0.0
C110 C 0.74115 0.52453 0.25388 0.0
C111 C 0.70641 0.30907 0.21351 0.0
C112 C 0.80366 0.19502 0.03909 0.0
C113 C 0.72127 0.19574 0.1471 0.0
C114 C 0.70671 0.18077 0.10014 0.0
C115 C 0.74835 0.18017 0.04585 0.0
N116 N 0.77594 0.20931 0.1404 0.0
C117 C 0.81663 0.20987 0.08702 0.0
Co118 Co 0.82256 0.6526 0.70142 0.0
Co119 Co 0.81091 0.7827 0.71135 0.0
O120 O 0.8508 0.72112 0.67016 0.0
C121 C 0.87363 0.63539 0.57276 0.0
O122 O 0.8888 0.68386 0.56129 0.0
C123 C 0.93259 0.81834 0.64655 0.0
O124 O 0.95037 0.77079 0.63342 0.0
O125 O 0.831 0.76074 0.77918 0.0
O126 O 0.79847 0.6798 0.78165 0.0
H127 H 0.68155 0.87605 0.88463 0.0
H128 H 0.94429 0.66808 0.62669 0.0
O129 O 0.84589 0.62103 0.6236 0.0
H130 H 0.95092 0.58365 0.80103 0.0
H131 H 0.81504 0.45857 0.70024 0.0
H132 H 0.71716 0.61749 0.79175 0.0
H133 H 0.85914 0.60236 0.79026 0.0
H134 H 0.86205 0.5433 0.67483 0.0
O135 O 0.88182 0.82689 0.68014 0.0
H136 H 0.73105 0.80043 0.82964 0.0
H137 H 0.80714 0.89478 0.68356 0.0
H138 H 0.66914 0.53373 0.81875 0.0
H139 H 0.03679 0.6497 0.63547 0.0
H140 H 0.71759 0.4537 0.77237 0.0
H141 H 0.04075 0.60749 0.72333 0.0
O142 O 0.7476 0.6697 0.69582 0.0
H143 H 0.84568 0.80655 0.50112 0.0
H144 H 0.70413 0.81873 0.6959 0.0
H145 H 0.6761 0.83985 0.61325 0.0
H146 H 0.74717 0.83407 0.51493 0.0
H147 H 0.87174 0.78518 0.58472 0.0
H148 H 0.75898 0.97157 0.73716 0.0
H149 H 0.69537 0.96243 0.83841 0.0
O150 O 0.73714 0.74402 0.74307 0.0
C151 C 0.81455 0.71768 0.80521 0.0
C152 C 0.70922 0.88055 0.84056 0.0
C153 C 0.75275 0.93417 0.75785 0.0
N154 N 0.77229 0.84312 0.75345 0.0
C155 C 0.73742 0.83784 0.80917 0.0
C156 C 0.78025 0.89059 0.72781 0.0
C157 C 0.71702 0.92901 0.81462 0.0
C158 C 0.94523 0.64898 0.66459 0.0
N159 N 0.89593 0.63578 0.70739 0.0
C160 C 0.99797 0.63886 0.6695 0.0
C161 C 1.00018 0.61523 0.71882 0.0
C162 C 0.94983 0.6019 0.76241 0.0
C163 C 0.8979 0.61258 0.75596 0.0
C164 C 0.79369 0.4932 0.72126 0.0
C165 C 0.73935 0.58273 0.77244 0.0
C166 C 0.82003 0.54132 0.70695 0.0
N167 N 0.79224 0.58544 0.73148 0.0
C168 C 0.71186 0.53532 0.78794 0.0
C169 C 0.73907 0.49041 0.76173 0.0
C170 C 0.7164 0.70583 0.72455 0.0
C171 C 0.81448 0.80976 0.54379 0.0
C172 C 0.73552 0.81625 0.65336 0.0
C173 C 0.71932 0.82832 0.60667 0.0
C174 C 0.75919 0.82512 0.55154 0.0
N175 N 0.79005 0.80162 0.64558 0.0
C176 C 0.82913 0.79794 0.59151 0.0
Co177 Co 0.19523 0.72487 0.79069 0.0
Co178 Co 0.22235 0.84356 0.83612 0.0
O179 O 0.17087 0.78385 0.84472 0.0
C180 C 0.11946 0.67593 0.90211 0.0
O181 O 0.11203 0.71961 0.93052 0.0
C182 C 0.10404 0.89189 0.88858 0.0
O183 O 0.07745 0.84804 0.88898 0.0
O184 O 0.22313 0.85356 0.75582 0.0
O185 O 0.24079 0.7713 0.72782 0.0
H186 H 0.39969 0.94483 0.73322 0.0
H187 H 0.07156 0.74523 0.85248 0.0
O188 O 0.15132 0.67373 0.84985 0.0
H189 H 0.09557 0.74442 0.64788 0.0
H190 H 0.16798 0.55822 0.69847 0.0
H191 H 0.30532 0.6929 0.70383 0.0
H192 H 0.17773 0.73048 0.67839 0.0
H193 H 0.13749 0.63198 0.76453 0.0
O194 O 0.15798 0.89454 0.86589 0.0
H195 H 0.33097 0.87364 0.74626 0.0
H196 H 0.22536 0.93885 0.90377 0.0
H197 H 0.33762 0.61951 0.63733 0.0
H198 H 0.98823 0.75807 0.8239 0.0
H199 H 0.26876 0.55144 0.63439 0.0
H200 H 0.99981 0.75775 0.72092 0.0
O201 O 0.26323 0.71432 0.81331 0.0
H202 H 0.13153 0.80494 0.04716 0.0
H203 H 0.3108 0.84494 0.89136 0.0
H204 H 0.31135 0.83171 0.98866 0.0
H205 H 0.2211 0.81219 0.06781 0.0
H206 H 0.13313 0.81767 0.94905 0.0
H207 H 0.29162 0.01204 0.89089 0.0
H208 H 0.38016 0.01465 0.80573 0.0
O209 O 0.2899 0.79719 0.80777 0.0
C210 C 0.23903 0.81902 0.71679 0.0
C211 C 0.3614 0.9439 0.77066 0.0
C212 C 0.30061 0.98175 0.859 0.0
N213 N 0.27405 0.9019 0.82572 0.0
C214 C 0.32232 0.9036 0.77837 0.0
C215 C 0.26289 0.94046 0.86571 0.0
C216 C 0.35029 0.98322 0.81125 0.0
C217 C 0.07714 0.74418 0.80771 0.0
N218 N 0.1296 0.73599 0.76745 0.0
C219 C 0.02969 0.7519 0.79169 0.0
C220 C 0.03621 0.75186 0.7339 0.0
C221 C 0.08991 0.74434 0.69294 0.0
C222 C 0.13633 0.73654 0.71057 0.0
C223 C 0.19845 0.58753 0.69946 0.0
C224 C 0.27503 0.66351 0.70284 0.0
C225 C 0.18147 0.6294 0.73689 0.0
N226 N 0.21954 0.66693 0.73807 0.0
C227 C 0.2936 0.622 0.66507 0.0
C228 C 0.25496 0.58381 0.66345 0.0
C229 C 0.30048 0.74916 0.80922 0.0
C230 C 0.17109 0.81391 0.01315 0.0
C231 C 0.27139 0.83599 0.92506 0.0
C232 C 0.27193 0.8288 0.98037 0.0
C233 C 0.22131 0.8179 0.02473 0.0
N234 N 0.22182 0.8329 0.91393 0.0
C235 C 0.17221 0.82145 0.95726 0.0
Co236 Co 0.66704 0.7903 0.30421 0.0
Co237 Co 0.71583 0.67708 0.34562 0.0
O238 O 0.65733 0.73076 0.35619 0.0
C239 C 0.63934 0.88043 0.38056 0.0
O240 O 0.69134 0.89635 0.35251 0.0
C241 C 0.603 0.61918 0.38963 0.0
O242 O 0.57478 0.66049 0.38498 0.0
O243 O 0.72206 0.66676 0.26341 0.0
O244 O 0.71032 0.74782 0.23731 0.0
H245 H 0.90444 0.59323 0.24237 0.0
H246 H 0.54969 0.76805 0.38321 0.0
O247 O 0.62376 0.83549 0.37067 0.0
H248 H 0.54176 0.75077 0.1892 0.0
H249 H 0.6011 0.94823 0.2267 0.0
H250 H 0.76288 0.83317 0.20711 0.0
H251 H 0.63196 0.77205 0.20276 0.0
H252 H 0.58981 0.87335 0.29067 0.0
O253 O 0.6572 0.61988 0.3718 0.0
H254 H 0.82944 0.65876 0.25772 0.0
H255 H 0.72751 0.5823 0.40965 0.0
H256 H 0.7762 0.90775 0.14231 0.0
H257 H 0.4583 0.74798 0.37149 0.0
H258 H 0.69495 0.96605 0.15202 0.0
H259 H 0.45392 0.7393 0.2739 0.0
O260 O 0.74058 0.80881 0.31359 0.0
H261 H 0.61525 0.70593 0.5573 0.0
H262 H 0.80111 0.68536 0.40376 0.0
H263 H 0.79698 0.69767 0.50304 0.0
H264 H 0.70352 0.70765 0.58082 0.0
H265 H 0.62124 0.69387 0.45754 0.0
H266 H 0.80036 0.51488 0.39454 0.0
H267 H 0.88985 0.52031 0.31068 0.0
O268 O 0.77661 0.73088 0.32162 0.0
C269 C 0.72607 0.7013 0.22548 0.0
C270 C 0.86568 0.59054 0.27917 0.0
C271 C 0.80719 0.54644 0.36442 0.0
N272 N 0.77401 0.62451 0.33452 0.0
C273 C 0.8231 0.62763 0.28819 0.0
C274 C 0.76581 0.58453 0.37244 0.0
C275 C 0.85744 0.54957 0.31744 0.0
C276 C 0.54815 0.76455 0.34059 0.0
N277 N 0.59623 0.77132 0.29379 0.0
C278 C 0.49628 0.75298 0.33423 0.0
C279 C 0.49386 0.748 0.27948 0.0
C280 C 0.54316 0.75439 0.23194 0.0
C281 C 0.59424 0.76607 0.23993 0.0
C282 C 0.63689 0.92323 0.22212 0.0
C283 C 0.72741 0.85835 0.21168 0.0
C284 C 0.63077 0.8807 0.25821 0.0
N285 N 0.67582 0.84898 0.25294 0.0
C286 C 0.73515 0.90052 0.1748 0.0
C287 C 0.68954 0.93318 0.18023 0.0
C288 C 0.78095 0.77973 0.31503 0.0
C289 C 0.65621 0.70112 0.52385 0.0
C290 C 0.76018 0.68963 0.43719 0.0
C291 C 0.75816 0.69659 0.49344 0.0
C292 C 0.70573 0.70218 0.53704 0.0
N293 N 0.71138 0.68759 0.42456 0.0
C294 C 0.65989 0.69393 0.4671 0.0
Co295 Co 0.2971 0.852 0.211 0.0
Co296 Co 0.29019 0.72203 0.20474 0.0
O297 O 0.33148 0.78666 0.1742 0.0
C298 C 0.36326 0.88026 0.08725 0.0
O299 O 0.36884 0.83236 0.06896 0.0
C300 C 0.41438 0.68953 0.14851 0.0
O301 O 0.43221 0.73755 0.13947 0.0
O302 O 0.30106 0.73815 0.27916 0.0
O303 O 0.26227 0.81658 0.28677 0.0
H304 H 0.14834 0.61599 0.35789 0.0
H305 H 0.42221 0.84073 0.15296 0.0
O306 O 0.33279 0.89144 0.13838 0.0
H307 H 0.39706 0.9115 0.34379 0.0
H308 H 0.27585 0.045 0.22772 0.0
H309 H 0.1836 0.87756 0.29507 0.0
H310 H 0.31415 0.89474 0.31516 0.0
H311 H 0.33046 0.96439 0.20183 0.0
O312 O 0.3624 0.67971 0.17746 0.0
H313 H 0.20018 0.69539 0.31492 0.0
H314 H 0.29322 0.61268 0.16434 0.0
H315 H 0.12883 0.95755 0.3252 0.0
H316 H 0.50632 0.857 0.17983 0.0
H317 H 0.17433 0.04199 0.28928 0.0
H318 H 0.49405 0.8925 0.27596 0.0
O319 O 0.22929 0.83612 0.19014 0.0
H320 H 0.35001 0.71486 0.98957 0.0
H321 H 0.1918 0.68845 0.17166 0.0
H322 H 0.17625 0.67373 0.08067 0.0
H323 H 0.25578 0.6866 0.98868 0.0
H324 H 0.36355 0.72977 0.08126 0.0
H325 H 0.24314 0.53225 0.20602 0.0
H326 H 0.16977 0.5336 0.30335 0.0
O327 O 0.21501 0.75878 0.23153 0.0
C328 C 0.28058 0.77888 0.30825 0.0
C329 C 0.18025 0.61488 0.31545 0.0
C330 C 0.23349 0.56786 0.23027 0.0
N331 N 0.24994 0.65874 0.23723 0.0
C332 C 0.20974 0.65975 0.29086 0.0
C333 C 0.26205 0.61349 0.20704 0.0
C334 C 0.1923 0.56866 0.28485 0.0
C335 C 0.41641 0.85641 0.1947 0.0
N336 N 0.36318 0.86711 0.2321 0.0
C337 C 0.46427 0.86554 0.20972 0.0
C338 C 0.45739 0.88546 0.26365 0.0
C339 C 0.403 0.89613 0.30171 0.0
C340 C 0.35617 0.88669 0.28512 0.0
C341 C 0.25581 0.00848 0.24387 0.0
C342 C 0.20468 0.91412 0.28136 0.0
C343 C 0.28635 0.9625 0.2288 0.0
N344 N 0.2602 0.91589 0.2458 0.0
C345 C 0.17316 0.95939 0.29824 0.0
C346 C 0.19875 1.00677 0.27836 0.0
C347 C 0.19663 0.7986 0.21341 0.0
C348 C 0.3152 0.7085 0.02938 0.0
C349 C 0.22683 0.69401 0.13194 0.0
C350 C 0.21769 0.68555 0.08048 0.0
C351 C 0.26232 0.69271 0.02889 0.0
N352 N 0.27909 0.7089 0.13224 0.0
C353 C 0.32274 0.71661 0.08168 0.0
Co354 Co 0.29382 0.16419 0.69727 0.0
Co355 Co 0.27256 0.29325 0.70874 0.0
O356 O 0.31888 0.2342 0.66896 0.0
C357 C 0.35719 0.15247 0.56988 0.0
O358 O 0.36667 0.20231 0.56278 0.0
C359 C 0.39365 0.33405 0.65605 0.0
O360 O 0.4146 0.28715 0.64878 0.0
O361 O 0.28861 0.27244 0.77905 0.0
O362 O 0.26051 0.19035 0.77816 0.0
H363 H 0.12575 0.37856 0.87688 0.0
H364 H 0.41738 0.1859 0.63308 0.0
O365 O 0.32707 0.13426 0.6184 0.0
H366 H 0.40979 0.10631 0.81479 0.0
H367 H 0.30043 0.96979 0.69365 0.0
H368 H 0.1872 0.1229 0.78137 0.0
H369 H 0.32246 0.1173 0.79252 0.0
H370 H 0.34102 0.05716 0.67025 0.0
O371 O 0.34073 0.34118 0.6831 0.0
H372 H 0.18356 0.30597 0.82319 0.0
H373 H 0.26464 0.40521 0.68273 0.0
H374 H 0.14613 0.03627 0.80784 0.0
H375 H 0.50573 0.17448 0.65311 0.0
H376 H 0.20265 0.95881 0.76376 0.0
H377 H 0.50216 0.1345 0.74476 0.0
O378 O 0.22156 0.177 0.68408 0.0
H379 H 0.32316 0.32273 0.49701 0.0
H380 H 0.16792 0.32175 0.68421 0.0
H381 H 0.14675 0.34201 0.59727 0.0
H382 H 0.22471 0.34287 0.50279 0.0
H383 H 0.34229 0.30173 0.58469 0.0
H384 H 0.20858 0.47899 0.73532 0.0
H385 H 0.13813 0.46589 0.83294 0.0
O386 O 0.20121 0.25007 0.73427 0.0
C387 C 0.27375 0.22855 0.80356 0.0
C388 C 0.15629 0.38478 0.83434 0.0
C389 C 0.20277 0.44117 0.75493 0.0
N390 N 0.2276 0.35127 0.74986 0.0
C391 C 0.18912 0.34379 0.80368 0.0
C392 C 0.23473 0.39927 0.72549 0.0
C393 C 0.16326 0.43378 0.8097 0.0
C394 C 0.41532 0.16765 0.67244 0.0
N395 N 0.36447 0.15184 0.71106 0.0
C396 C 0.46565 0.16156 0.68377 0.0
C397 C 0.46371 0.13928 0.73521 0.0
C398 C 0.41184 0.12329 0.77447 0.0
C399 C 0.36249 0.12967 0.76152 0.0
C400 C 0.2757 1.00317 0.71393 0.0
C401 C 0.21275 0.08949 0.76297 0.0
C402 C 0.29831 0.05282 0.70053 0.0
N403 N 0.26648 0.0953 0.72421 0.0
C404 C 0.18912 0.04042 0.77802 0.0
C405 C 0.22078 0.99702 0.75307 0.0
C406 C 0.18604 0.21068 0.71223 0.0
C407 C 0.28889 0.32292 0.53799 0.0
C408 C 0.20219 0.32192 0.64333 0.0
C409 C 0.18989 0.33357 0.59421 0.0
C410 C 0.23364 0.33414 0.54124 0.0
N411 N 0.25658 0.3111 0.63994 0.0
C412 C 0.29953 0.31121 0.58799 0.0
Co413 Co 0.66683 0.2346 0.78066 0.0
Co414 Co 0.71977 0.33875 0.83326 0.0
O415 O 0.65767 0.28997 0.8379 0.0
C416 C 0.61912 0.1711 0.88631 0.0
O417 O 0.65878 0.18851 0.90482 0.0
C418 C 0.61146 0.40273 0.87924 0.0
O419 O 0.58087 0.36514 0.86949 0.0
O420 O 0.72841 0.35659 0.75205 0.0
O421 O 0.71798 0.27809 0.7189 0.0
H422 H 0.91437 0.41534 0.73864 0.0
H423 H 0.54932 0.26322 0.85294 0.0
O424 O 0.61552 0.18794 0.83992 0.0
H425 H 0.56018 0.29483 0.65444 0.0
H426 H 0.59871 0.08896 0.68654 0.0
H427 H 0.76428 0.19282 0.68424 0.0
H428 H 0.64376 0.26319 0.67465 0.0
H429 H 0.58828 0.15894 0.75674 0.0
O430 O 0.66532 0.39833 0.86362 0.0
H431 H 0.83545 0.35492 0.74842 0.0
H432 H 0.73709 0.4255 0.90557 0.0
H433 H 0.77678 0.12353 0.61302 0.0
H434 H 0.46443 0.29412 0.83454 0.0
H435 H 0.69356 0.07098 0.61388 0.0
H436 H 0.46956 0.31009 0.73469 0.0
O437 O 0.73452 0.20745 0.79554 0.0
H438 H 0.61291 0.30298 0.04218 0.0
H439 H 0.80208 0.31652 0.8922 0.0
H440 H 0.79461 0.29929 0.9916 0.0
H441 H 0.69951 0.29298 0.06761 0.0
H442 H 0.62226 0.32061 0.94234 0.0
H443 H 0.81422 0.48768 0.89644 0.0
H444 H 0.90379 0.48271 0.81265 0.0
O445 O 0.77664 0.28192 0.80571 0.0
C446 C 0.73429 0.32476 0.71118 0.0
C447 C 0.87558 0.41783 0.77541 0.0
C448 C 0.81928 0.45858 0.86383 0.0
N449 N 0.78152 0.38659 0.82744 0.0
C450 C 0.83078 0.38357 0.78131 0.0
C451 C 0.77553 0.42346 0.86851 0.0
C452 C 0.86958 0.4557 0.81688 0.0
C453 C 0.55188 0.27004 0.80936 0.0
N454 N 0.60153 0.26149 0.76501 0.0
C455 C 0.50369 0.28761 0.79921 0.0
C456 C 0.5066 0.2966 0.74318 0.0
C457 C 0.55747 0.28812 0.69815 0.0
C458 C 0.60479 0.27052 0.70992 0.0
C459 C 0.63532 0.1115 0.68581 0.0
C460 C 0.72792 0.17013 0.685 0.0
C461 C 0.62968 0.151 0.72562 0.0
N462 N 0.67561 0.17982 0.72484 0.0
C463 C 0.73523 0.13093 0.64451 0.0
C464 C 0.68854 0.10146 0.64502 0.0
C465 C 0.77677 0.23307 0.79872 0.0
C466 C 0.6546 0.3062 0.00952 0.0
C467 C 0.76045 0.31381 0.92488 0.0
C468 C 0.75653 0.30395 0.98117 0.0
C469 C 0.70318 0.30044 0.02377 0.0
N470 N 0.71267 0.32112 0.9114 0.0
C471 C 0.6602 0.31644 0.9528 0.0
H472 H 0.00691 0.10298 0.45448 0.0
H473 H 0.03824 0.81708 0.56094 0.0
H474 H 0.16807 0.02392 0.4018 0.0
H475 H 0.90325 0.92095 0.65357 0.0
H476 H 0.0847 0.88853 0.49676 0.0
H477 H 0.96477 0.03183 0.52037 0.0
C478 C 0.03339 0.07052 0.45616 0.0
C479 C 0.0912 0.06959 0.42193 0.0
C480 C 0.045 0.89559 0.53138 0.0
C481 C 0.04301 0.98771 0.49777 0.0
C482 C 0.01853 0.85485 0.56826 0.0
C483 C 0.96614 0.86252 0.6126 0.0
C484 C 0.01855 0.94423 0.53827 0.0
C485 C 0.94295 0.9126 0.61971 0.0
C486 C 0.00934 0.03 0.49417 0.0
C487 C 0.12329 0.0264 0.42677 0.0
N488 N 0.96883 0.95115 0.58267 0.0
N489 N 0.09879 0.98721 0.46363 0.0
H490 H 0.99419 0.8966 0.96572 0.0
H491 H 0.02138 0.18918 0.06168 0.0
H492 H 0.14552 0.9892 0.89365 0.0
H493 H 0.88404 0.0869 0.15388 0.0
H494 H 0.06641 0.11766 0.99758 0.0
H495 H 0.95032 0.96801 0.03076 0.0
C496 C 0.01798 0.93208 0.9629 0.0
C497 C 0.07371 0.93669 0.92372 0.0
C498 C 0.0265 0.11083 0.03202 0.0
C499 C 0.02386 0.01865 0.99875 0.0
C500 C 0.00088 0.15166 0.06896 0.0
C501 C 0.94837 0.14449 0.11322 0.0
C502 C 0.99933 0.06238 0.03895 0.0
C503 C 0.92405 0.09474 0.12016 0.0
C504 C 0.99306 0.97276 1.00044 0.0
C505 C 0.10248 0.98367 0.92276 0.0
N506 N 0.94938 0.05591 0.08326 0.0
N507 N 0.07735 0.02261 0.95955 0.0
H508 H 0.36149 0.43526 0.65441 0.0
H509 H 0.64673 0.52559 0.4061 0.0
H510 H 0.50368 0.33314 0.57902 0.0
H511 H 0.49005 0.61172 0.4567 0.0
H512 H 0.59823 0.45697 0.47274 0.0
H513 H 0.41195 0.50315 0.58846 0.0
C514 C 0.40352 0.42705 0.62435 0.0
C515 C 0.4279 0.37787 0.62217 0.0
C516 C 0.57437 0.49072 0.46901 0.0
C517 C 0.48632 0.45617 0.54584 0.0
C518 C 0.60198 0.52994 0.43067 0.0
C519 C 0.57251 0.57466 0.42527 0.0
C520 C 0.51685 0.49632 0.50304 0.0
C521 C 0.51459 0.57799 0.4589 0.0
C522 C 0.43228 0.46597 0.58637 0.0
C523 C 0.48295 0.37023 0.58237 0.0
N524 N 0.48889 0.53963 0.49648 0.0
N525 N 0.51015 0.40882 0.54572 0.0
H526 H 0.52239 0.69433 0.06696 0.0
H527 H 0.49759 0.41698 0.9385 0.0
H528 H 0.3875 0.58654 0.15027 0.0
H529 H 0.66092 0.48865 0.90789 0.0
H530 H 0.45312 0.4859 1.00659 0.0
H531 H 0.57215 0.62528 1.0007 0.0
C532 C 0.50341 0.6562 0.07186 0.0
C533 C 0.45002 0.64674 0.11405 0.0
C534 C 0.4987 0.48663 0.98469 0.0
C535 C 0.50613 0.56802 0.03725 0.0
C536 C 0.52413 0.44746 0.9454 0.0
C537 C 0.58321 0.44697 0.91677 0.0
C538 C 0.53228 0.52627 0.99506 0.0
C539 C 0.61523 0.48751 0.92832 0.0
C540 C 0.53175 0.61689 0.03379 0.0
C541 C 0.42781 0.5963 0.118 0.0
N542 N 0.5894 0.52561 0.9662 0.0
N543 N 0.45544 0.55927 0.07974 0.0
H544 H 0.97648 0.368 0.97892 0.0
H545 H 0.01759 0.6724 0.9913 0.0
H546 H 0.83963 0.47336 0.06238 0.0
H547 H 0.13828 0.57595 0.86559 0.0
H548 H 0.95379 0.59791 0.02148 0.0
H549 H 0.03718 0.44217 0.93542 0.0
C550 C 0.95866 0.40653 0.98671 0.0
C551 C 0.90315 0.41455 0.02489 0.0
C552 C 0.9943 0.59308 0.98731 0.0
C553 C 0.9727 0.49934 0.97717 0.0
C554 C 0.03101 0.63543 0.97064 0.0
C555 C 0.0834 0.63035 0.9261 0.0
C556 C 0.0104 0.54516 0.95971 0.0
C557 C 0.09824 0.5816 0.90021 0.0
C558 C 0.99352 0.44889 0.96249 0.0
C559 C 0.88246 0.46544 0.03382 0.0
N560 N 0.06204 0.54088 0.9175 0.0
N561 N 0.91749 0.50587 0.01107 0.0
H562 H 0.01247 0.33399 0.49637 0.0
H563 H 0.97544 0.63913 0.4832 0.0
H564 H 0.13206 0.43069 0.36964 0.0
H565 H 0.83851 0.53581 0.57385 0.0
H566 H 0.03379 0.5641 0.43949 0.0
H567 H 0.94988 0.40901 0.52897 0.0
C568 C 0.02594 0.37113 0.47614 0.0
C569 C 0.07752 0.37623 0.43051 0.0
C570 C 0.9906 0.55795 0.46824 0.0
C571 C 0.0061 0.46175 0.46662 0.0
C572 C 0.95704 0.60083 0.49255 0.0
C573 C 0.90234 0.59367 0.53276 0.0
C574 C 0.96931 0.50785 0.48479 0.0
C575 C 0.88083 0.54303 0.54366 0.0
C576 C 0.98995 0.41375 0.49412 0.0
C577 C 0.09257 0.4251 0.40505 0.0
N578 N 0.91469 0.50205 0.5207 0.0
N579 N 0.05711 0.46595 0.4235 0.0
H580 H 0.54374 0.11811 0.84969 0.0
H581 H 0.41874 0.94885 0.1304 0.0
H582 H 0.60773 0.12561 0.9894 0.0
H583 H 0.3996 0.90325 0.97164 0.0
H584 H 0.48138 0.01851 0.08132 0.0
H585 H 0.48424 0.04488 0.89564 0.0
C586 C 0.54532 0.10453 0.89013 0.0
C587 C 0.58102 0.12822 0.91573 0.0
C588 C 0.46376 0.99334 0.05697 0.0
C589 C 0.51254 0.04418 0.96849 0.0
C590 C 0.42745 0.95373 0.08507 0.0
C591 C 0.40315 0.92068 0.05517 0.0
C592 C 0.47574 1.00065 0.99836 0.0
C593 C 0.41734 0.92805 0.99618 0.0
C594 C 0.51146 0.06243 0.91608 0.0
C595 C 0.58095 0.10869 0.96813 0.0
N596 N 0.4524 0.9678 0.96962 0.0
N597 N 0.54702 0.06794 0.99291 0.0
H598 H 0.52355 0.86746 0.42574 0.0
H599 H 0.4634 0.16892 0.49102 0.0
H600 H 0.65537 0.98173 0.4023 0.0
H601 H 0.33554 0.05089 0.55691 0.0
H602 H 0.53186 0.10187 0.44227 0.0
H603 H 0.4522 0.93499 0.46277 0.0
C604 C 0.53757 0.90657 0.42905 0.0
C605 C 0.59567 0.9189 0.4109 0.0
C606 C 0.48858 0.09077 0.46677 0.0
C607 C 0.51412 0.99656 0.45191 0.0
C608 C 0.44928 0.1291 0.49389 0.0
C609 C 0.39385 0.11537 0.52836 0.0
C610 C 0.47207 0.03854 0.47391 0.0
C611 C 0.37803 0.06306 0.53105 0.0
C612 C 0.49676 0.94519 0.44971 0.0
C613 C 0.61113 0.97043 0.41565 0.0
N614 N 0.41708 0.02649 0.50467 0.0
N615 N 0.57065 1.00739 0.43539 0.0
H616 H 0.34554 0.73392 0.36464 0.0
H617 H 0.18023 0.87558 0.66292 0.0
H618 H 0.20507 0.83815 0.38979 0.0
H619 H 0.33179 0.78506 0.63159 0.0
H620 H 0.19214 0.86778 0.56112 0.0
H621 H 0.34221 0.75342 0.46224 0.0
C622 C 0.31347 0.76015 0.39096 0.0
C623 C 0.27531 0.78404 0.36915 0.0
C624 C 0.22358 0.85063 0.57624 0.0
C625 C 0.27179 0.80744 0.48031 0.0
C626 C 0.21727 0.85599 0.63413 0.0
C627 C 0.25537 0.83136 0.65541 0.0
C628 C 0.26806 0.82016 0.53982 0.0
C629 C 0.3017 0.80491 0.61663 0.0
C630 C 0.31198 0.77187 0.44639 0.0
C631 C 0.23533 0.81869 0.4048 0.0
N632 N 0.30634 0.79942 0.56103 0.0
N633 N 0.23457 0.82924 0.45843 0.0
H634 H 0.76564 0.63648 0.87517 0.0
H635 H 0.81305 0.75387 0.1514 0.0
H636 H 0.8494 0.78245 0.87555 0.0
H637 H 0.69873 0.62737 0.15924 0.0
H638 H 0.84138 0.75457 0.04729 0.0
H639 H 0.75371 0.62457 0.97525 0.0
C640 C 0.78179 0.6662 0.89609 0.0
C641 C 0.80836 0.71098 0.86644 0.0
C642 C 0.81078 0.72607 0.07147 0.0
C643 C 0.79479 0.69684 0.9822 0.0
C644 C 0.79498 0.72528 0.13085 0.0
C645 C 0.75348 0.69048 0.16383 0.0
C646 C 0.78473 0.69192 0.04452 0.0
C647 C 0.73124 0.65444 0.13529 0.0
C648 C 0.77484 0.65913 0.95354 0.0
C649 C 0.82832 0.74761 0.89648 0.0
N650 N 0.74669 0.65647 0.07714 0.0
N651 N 0.82103 0.73976 0.95271 0.0
H652 H 0.74626 0.37418 0.36922 0.0
H653 H 0.82884 0.28323 0.63582 0.0
H654 H 0.84687 0.23851 0.36668 0.0
H655 H 0.69719 0.39387 0.64891 0.0
H656 H 0.85206 0.28006 0.53211 0.0
H657 H 0.74158 0.3923 0.46631 0.0
C658 C 0.76744 0.34795 0.389 0.0
C659 C 0.79668 0.30425 0.35948 0.0
C660 C 0.81905 0.30603 0.55732 0.0
C661 C 0.79168 0.32561 0.47161 0.0
C662 C 0.80648 0.30861 0.61635 0.0
C663 C 0.76156 0.33943 0.65073 0.0
C664 C 0.78616 0.33426 0.53239 0.0
C665 C 0.73283 0.37045 0.62377 0.0
C666 C 0.76474 0.35859 0.44466 0.0
C667 C 0.82328 0.27217 0.38783 0.0
N668 N 0.74512 0.36656 0.56617 0.0
N669 N 0.8201 0.28348 0.44235 0.0
H670 H 0.32627 0.23004 0.12851 0.0
H671 H 0.21044 0.15564 0.87769 0.0
H672 H 0.17956 0.13308 0.15572 0.0
H673 H 0.32693 0.2814 0.86704 0.0
H674 H 0.2077 0.13717 0.97452 0.0
H675 H 0.33894 0.23597 0.02701 0.0
C676 C 0.29802 0.20829 0.11246 0.0
C677 C 0.25234 0.18034 0.15025 0.0
C678 C 0.23379 0.16884 0.95113 0.0
C679 C 0.26508 0.18875 0.03447 0.0
C680 C 0.23534 0.17963 0.89578 0.0
C681 C 0.26878 0.2205 0.8641 0.0
C682 C 0.26647 0.19862 0.97515 0.0
C683 C 0.30007 0.25 0.89 0.0
C684 C 0.30467 0.21245 0.05475 0.0
C685 C 0.21604 0.15401 0.12772 0.0
N686 N 0.29834 0.23833 0.94389 0.0
N687 N 0.2228 0.15932 0.07128 0.0
H688 H 0.34324 0.28894 0.37678 0.0
H689 H 0.65046 0.35835 0.15124 0.0
H690 H 0.37358 0.30804 0.19698 0.0
H691 H 0.62203 0.27428 0.30815 0.0
H692 H 0.54698 0.36221 0.17385 0.0
H693 H 0.44373 0.30749 0.35891 0.0
C694 C 0.37097 0.29824 0.33376 0.0
C695 C 0.3506 0.29721 0.28825 0.0
C696 C 0.56364 0.34343 0.20343 0.0
C697 C 0.46503 0.31795 0.26733 0.0
C698 C 0.62246 0.34129 0.19065 0.0
C699 C 0.64467 0.31549 0.22761 0.0
C700 C 0.52715 0.32069 0.2541 0.0
C701 C 0.60667 0.29399 0.27813 0.0
C702 C 0.42818 0.30859 0.32351 0.0
C703 C 0.38788 0.30925 0.23318 0.0
N704 N 0.54983 0.29712 0.2899 0.0
N705 N 0.44365 0.31885 0.22406 0.0
H706 H 0.65109 0.63946 0.68519 0.0
H707 H 0.38274 0.81449 0.81504 0.0
H708 H 0.63862 0.76482 0.80353 0.0
H709 H 0.35586 0.65406 0.78309 0.0
H710 H 0.48051 0.79654 0.79952 0.0
H711 H 0.54683 0.64228 0.71059 0.0
C712 C 0.62659 0.66708 0.71678 0.0
C713 C 0.65381 0.70261 0.74148 0.0
C714 C 0.45337 0.76486 0.79657 0.0
C715 C 0.53573 0.70577 0.77039 0.0
C716 C 0.39689 0.77502 0.80578 0.0
C717 C 0.36001 0.73554 0.80177 0.0
C718 C 0.47462 0.71493 0.78177 0.0
C719 C 0.38253 0.68554 0.78747 0.0
C720 C 0.56729 0.66844 0.73134 0.0
C721 C 0.62001 0.7373 0.78241 0.0
N722 N 0.43887 0.67661 0.77736 0.0
N723 N 0.56313 0.73825 0.79504 0.0
H724 H 0.1162 0.75178 0.30226 0.0
H725 H 0.85057 0.83511 0.22359 0.0
H726 H 0.13523 0.85982 0.16503 0.0
H727 H 0.83999 0.77221 0.38681 0.0
H728 H 0.95297 0.84943 0.20081 0.0
H729 H 0.01404 0.76025 0.33201 0.0
C730 C 0.09883 0.77729 0.27813 0.0
C731 C 0.13439 0.80479 0.23068 0.0
C732 C 0.92789 0.83361 0.24211 0.0
C733 C 0.01635 0.81484 0.26495 0.0
C734 C 0.86944 0.82587 0.2553 0.0
C735 C 0.83716 0.80199 0.30693 0.0
C736 C 0.95369 0.8168 0.28076 0.0
C737 C 0.86368 0.78988 0.34618 0.0
C738 C 0.04025 0.78251 0.29558 0.0
C739 C 0.10921 0.83784 0.20177 0.0
N740 N 0.92045 0.79678 0.33201 0.0
N741 N 0.05147 0.84151 0.21895 0.0
H742 H 0.13201 0.15754 0.65023 0.0
H743 H 0.825 0.22063 0.87912 0.0
H744 H 0.10074 0.24133 0.80795 0.0
H745 H 0.85155 0.18993 0.70189 0.0
H746 H 0.92527 0.20251 0.86083 0.0
H747 H 0.02866 0.14673 0.67501 0.0
C748 C 0.10345 0.17312 0.69023 0.0
C749 C 0.12471 0.2009 0.72681 0.0
C750 C 0.90898 0.19862 0.82613 0.0
C751 C 0.0075 0.18784 0.75573 0.0
C752 C 0.85177 0.20862 0.83668 0.0
C753 C 0.83036 0.20675 0.79191 0.0
C754 C 0.9451 0.18725 0.77018 0.0
C755 C 0.86653 0.19112 0.7376 0.0
C756 C 0.04471 0.16697 0.70428 0.0
C757 C 0.0861 0.22034 0.77811 0.0
N758 N 0.92259 0.18265 0.72793 0.0
N759 N 0.02949 0.21345 0.79098 0.0
loop_
_geom_bond_atom_site_label_1
_geom_bond_atom_site_label_2
_geom_bond_distance
_geom_bond_site_symmetry_2
_ccdc_geom_bond_type
Co0 O2 2.143 . S
Co0 O8 2.074 . S
Co0 O11 2.093 . S
Co0 O24 2.097 . S
Co0 N41 2.151 . S
Co0 N49 2.214 . S
Co1 O2 2.160 . S
Co1 O7 2.058 . S
Co1 O17 2.057 . S
Co1 O32 2.037 . S
Co1 N36 2.145 . S
Co1 N57 2.257 . S
O2 Co0 2.143 . S
O2 Co1 2.160 . S
C3 O4 1.278 . S
C3 O11 1.224 . S
O4 C3 1.278 . S
C5 O6 1.245 . S
C5 O17 1.232 . S
O6 C5 1.245 . S
O7 Co1 2.058 . S
O7 C33 1.269 . S
O8 Co0 2.074 . S
O8 C33 1.257 . S
H9 C34 0.930 . S
H10 C40 0.930 . S
O11 Co0 2.093 . S
O11 C3 1.224 . S
H12 C44 0.929 . S
H13 C46 0.930 . S
H14 C47 0.930 . S
H15 C45 0.929 . S
H16 C48 0.928 . S
O17 Co1 2.057 . S
O17 C5 1.232 . S
H18 C37 0.929 . S
H19 C38 0.929 . S
H20 C50 0.931 . S
H21 C42 0.929 . S
H22 C51 0.930 . S
H23 C43 0.931 1_655 S
O24 Co0 2.097 . S
O24 C52 1.214 . S
H25 C53 0.929 . S
H26 C54 0.929 . S
H27 C55 0.930 . S
H28 C56 0.929 . S
H29 C58 0.930 . S
H30 C35 0.930 . S
H31 C39 0.930 . S
O32 Co1 2.037 . S
O32 C52 1.234 . S
C33 O7 1.269 . S
C33 O8 1.257 . S
C34 H9 0.930 . S
C34 C37 1.388 . S
C34 C39 1.418 . S
C35 H30 0.930 . S
C35 C38 1.404 . S
C35 C39 1.353 . S
N36 Co1 2.145 . S
N36 C37 1.397 . S
N36 C38 1.334 . S
C37 H18 0.929 . S
C37 C34 1.388 . S
C37 N36 1.397 . S
C38 H19 0.929 . S
C38 C35 1.404 . S
C38 N36 1.334 . S
C39 H31 0.930 . S
C39 C34 1.418 . S
C39 C35 1.353 . S
C40 H10 0.930 . S
C40 N41 1.330 . S
C40 C42 1.446 1_455 S
N41 Co0 2.151 . S
N41 C40 1.330 . S
N41 C45 1.418 . S
C42 H21 0.929 . S
C42 C40 1.446 1_655 S
C42 C43 1.332 1_655 S
C43 H23 0.931 1_455 S
C43 C42 1.332 1_455 S
C43 C44 1.267 . S
C44 H12 0.929 . S
C44 C43 1.267 . S
C44 C45 1.251 . S
C45 H15 0.929 . S
C45 N41 1.418 . S
C45 C44 1.251 . S
C46 H13 0.930 . S
C46 C48 1.406 . S
C46 C51 1.261 . S
C47 H14 0.930 . S
C47 N49 1.325 . S
C47 C50 1.357 . S
C48 H16 0.928 . S
C48 C46 1.406 . S
C48 N49 1.261 . S
N49 Co0 2.214 . S
N49 C47 1.325 . S
N49 C48 1.261 . S
C50 H20 0.931 . S
C50 C47 1.357 . S
C50 C51 1.312 . S
C51 H22 0.930 . S
C51 C46 1.261 . S
C51 C50 1.312 . S
C52 O24 1.214 . S
C52 O32 1.234 . S
C53 H25 0.929 . S
C53 C56 1.391 . S
C53 C58 1.391 . S
C54 H26 0.929 . S
C54 C55 1.390 . S
C54 N57 1.391 . S
C55 H27 0.930 . S
C55 C54 1.390 . S
C55 C56 1.392 . S
C56 H28 0.929 . S
C56 C53 1.391 . S
C56 C55 1.392 . S
N57 Co1 2.257 . S
N57 C54 1.391 . S
N57 C58 1.388 . S
C58 H29 0.930 . S
C58 C53 1.391 . S
C58 N57 1.388 . S
Co59 O61 2.143 . S
Co59 O67 2.074 . S
Co59 O70 2.093 . S
Co59 O83 2.097 . S
Co59 N100 2.151 . S
Co59 N108 2.214 . S
Co60 O61 2.160 . S
Co60 O66 2.058 . S
Co60 O76 2.057 . S
Co60 O91 2.037 . S
Co60 N95 2.145 . S
Co60 N116 2.257 . S
O61 Co59 2.143 . S
O61 Co60 2.160 . S
C62 O63 1.278 . S
C62 O70 1.224 . S
O63 C62 1.278 . S
C64 O65 1.245 . S
C64 O76 1.232 . S
O65 C64 1.245 . S
O66 Co60 2.058 . S
O66 C92 1.269 . S
O67 Co59 2.074 . S
O67 C92 1.257 . S
H68 C93 0.930 . S
H69 C99 0.930 . S
O70 Co59 2.093 . S
O70 C62 1.224 . S
H71 C103 0.929 . S
H72 C105 0.930 . S
H73 C106 0.930 . S
H74 C104 0.929 . S
H75 C107 0.928 . S
O76 Co60 2.057 . S
O76 C64 1.232 . S
H77 C96 0.929 . S
H78 C97 0.929 . S
H79 C109 0.931 . S
H80 C101 0.929 . S
H81 C110 0.930 . S
H82 C102 0.931 1_455 S
O83 Co59 2.097 . S
O83 C111 1.214 . S
H84 C112 0.929 . S
H85 C113 0.929 . S
H86 C114 0.930 . S
H87 C115 0.929 . S
H88 C117 0.930 . S
H89 C94 0.930 . S
H90 C98 0.930 . S
O91 Co60 2.037 . S
O91 C111 1.234 . S
C92 O66 1.269 . S
C92 O67 1.257 . S
C93 H68 0.930 . S
C93 C96 1.388 . S
C93 C98 1.418 . S
C94 H89 0.930 . S
C94 C97 1.404 . S
C94 C98 1.353 . S
N95 Co60 2.145 . S
N95 C96 1.397 . S
N95 C97 1.334 . S
C96 H77 0.929 . S
C96 C93 1.388 . S
C96 N95 1.397 . S
C97 H78 0.929 . S
C97 C94 1.404 . S
C97 N95 1.334 . S
C98 H90 0.930 . S
C98 C93 1.418 . S
C98 C94 1.353 . S
C99 H69 0.930 . S
C99 N100 1.330 . S
C99 C101 1.446 1_655 S
N100 Co59 2.151 . S
N100 C99 1.330 . S
N100 C104 1.418 . S
C101 H80 0.929 . S
C101 C99 1.446 1_455 S
C101 C102 1.332 1_455 S
C102 H82 0.931 1_655 S
C102 C101 1.332 1_655 S
C102 C103 1.267 . S
C103 H71 0.929 . S
C103 C102 1.267 . S
C103 C104 1.251 . S
C104 H74 0.929 . S
C104 N100 1.418 . S
C104 C103 1.251 . S
C105 H72 0.930 . S
C105 C107 1.406 . S
C105 C110 1.261 . S
C106 H73 0.930 . S
C106 N108 1.325 . S
C106 C109 1.357 . S
C107 H75 0.928 . S
C107 C105 1.406 . S
C107 N108 1.261 . S
N108 Co59 2.214 . S
N108 C106 1.325 . S
N108 C107 1.261 . S
C109 H79 0.931 . S
C109 C106 1.357 . S
C109 C110 1.312 . S
C110 H81 0.930 . S
C110 C105 1.261 . S
C110 C109 1.312 . S
C111 O83 1.214 . S
C111 O91 1.234 . S
C112 H84 0.929 . S
C112 C115 1.391 . S
C112 C117 1.391 1_556 S
C113 H85 0.929 . S
C113 C114 1.390 . S
C113 N116 1.391 . S
C114 H86 0.930 . S
C114 C113 1.390 . S
C114 C115 1.392 1_554 S
C115 H87 0.929 . S
C115 C112 1.391 . S
C115 C114 1.392 1_556 S
N116 Co60 2.257 . S
N116 C113 1.391 . S
N116 C117 1.388 . S
C117 H88 0.930 . S
C117 C112 1.391 1_554 S
C117 N116 1.388 . S
Co118 O120 2.143 . S
Co118 O126 2.074 . S
Co118 O129 2.093 . S
Co118 O142 2.097 . S
Co118 N159 2.151 . S
Co118 N167 2.214 . S
Co119 O120 2.160 . S
Co119 O125 2.058 . S
Co119 O135 2.057 . S
Co119 O150 2.037 . S
Co119 N154 2.145 . S
Co119 N175 2.257 . S
O120 Co118 2.143 . S
O120 Co119 2.160 . S
C121 O122 1.278 . S
C121 O129 1.224 . S
O122 C121 1.278 . S
C123 O124 1.245 . S
C123 O135 1.232 . S
O124 C123 1.245 . S
O125 Co119 2.058 . S
O125 C151 1.269 . S
O126 Co118 2.074 . S
O126 C151 1.257 . S
H127 C152 0.930 . S
H128 C158 0.930 . S
O129 Co118 2.093 . S
O129 C121 1.224 . S
H130 C162 0.929 . S
H131 C164 0.930 . S
H132 C165 0.930 . S
H133 C163 0.929 . S
H134 C166 0.928 . S
O135 Co119 2.057 . S
O135 C123 1.232 . S
H136 C155 0.929 . S
H137 C156 0.929 . S
H138 C168 0.931 . S
H139 C160 0.929 . S
H140 C169 0.930 . S
H141 C161 0.931 1_455 S
O142 Co118 2.097 . S
O142 C170 1.214 . S
H143 C171 0.929 . S
H144 C172 0.929 . S
H145 C173 0.930 . S
H146 C174 0.929 . S
H147 C176 0.930 . S
H148 C153 0.930 . S
H149 C157 0.930 . S
O150 Co119 2.037 . S
O150 C170 1.234 . S
C151 O125 1.269 . S
C151 O126 1.257 . S
C152 H127 0.930 . S
C152 C155 1.388 . S
C152 C157 1.418 . S
C153 H148 0.930 . S
C153 C156 1.404 . S
C153 C157 1.353 . S
N154 Co119 2.145 . S
N154 C155 1.397 . S
N154 C156 1.334 . S
C155 H136 0.929 . S
C155 C152 1.388 . S
C155 N154 1.397 . S
C156 H137 0.929 . S
C156 C153 1.404 . S
C156 N154 1.334 . S
C157 H149 0.930 . S
C157 C152 1.418 . S
C157 C153 1.353 . S
C158 H128 0.930 . S
C158 N159 1.330 . S
C158 C160 1.446 1_655 S
N159 Co118 2.151 . S
N159 C158 1.330 . S
N159 C163 1.418 . S
C160 H139 0.929 . S
C160 C158 1.446 1_455 S
C160 C161 1.332 1_455 S
C161 H141 0.931 1_655 S
C161 C160 1.332 1_655 S
C161 C162 1.267 . S
C162 H130 0.929 . S
C162 C161 1.267 . S
C162 C163 1.251 . S
C163 H133 0.929 . S
C163 N159 1.418 . S
C163 C162 1.251 . S
C164 H131 0.930 . S
C164 C166 1.406 . S
C164 C169 1.261 . S
C165 H132 0.930 . S
C165 N167 1.325 . S
C165 C168 1.357 . S
C166 H134 0.928 . S
C166 C164 1.406 . S
C166 N167 1.261 . S
N167 Co118 2.214 . S
N167 C165 1.325 . S
N167 C166 1.261 . S
C168 H138 0.931 . S
C168 C165 1.357 . S
C168 C169 1.312 . S
C169 H140 0.930 . S
C169 C164 1.261 . S
C169 C168 1.312 . S
C170 O142 1.214 . S
C170 O150 1.234 . S
C171 H143 0.929 . S
C171 C174 1.391 . S
C171 C176 1.391 . S
C172 H144 0.929 . S
C172 C173 1.390 . S
C172 N175 1.391 . S
C173 H145 0.930 . S
C173 C172 1.390 . S
C173 C174 1.392 . S
C174 H146 0.929 . S
C174 C171 1.391 . S
C174 C173 1.392 . S
N175 Co119 2.257 . S
N175 C172 1.391 . S
N175 C176 1.388 . S
C176 H147 0.930 . S
C176 C171 1.391 . S
C176 N175 1.388 . S
Co177 O179 2.143 . S
Co177 O185 2.074 . S
Co177 O188 2.093 . S
Co177 O201 2.097 . S
Co177 N218 2.151 . S
Co177 N226 2.214 . S
Co178 O179 2.160 . S
Co178 O184 2.058 . S
Co178 O194 2.057 . S
Co178 O209 2.037 . S
Co178 N213 2.145 . S
Co178 N234 2.257 . S
O179 Co177 2.143 . S
O179 Co178 2.160 . S
C180 O181 1.278 . S
C180 O188 1.224 . S
O181 C180 1.278 . S
C182 O183 1.245 . S
C182 O194 1.232 . S
O183 C182 1.245 . S
O184 Co178 2.058 . S
O184 C210 1.269 . S
O185 Co177 2.074 . S
O185 C210 1.257 . S
H186 C211 0.930 . S
H187 C217 0.930 . S
O188 Co177 2.093 . S
O188 C180 1.224 . S
H189 C221 0.929 . S
H190 C223 0.930 . S
H191 C224 0.930 . S
H192 C222 0.929 . S
H193 C225 0.928 . S
O194 Co178 2.057 . S
O194 C182 1.232 . S
H195 C214 0.929 . S
H196 C215 0.929 . S
H197 C227 0.931 . S
H198 C219 0.929 . S
H199 C228 0.930 . S
H200 C220 0.931 1_655 S
O201 Co177 2.097 . S
O201 C229 1.214 . S
H202 C230 0.929 . S
H203 C231 0.929 . S
H204 C232 0.930 . S
H205 C233 0.929 . S
H206 C235 0.930 . S
H207 C212 0.930 . S
H208 C216 0.930 . S
O209 Co178 2.037 . S
O209 C229 1.234 . S
C210 O184 1.269 . S
C210 O185 1.257 . S
C211 H186 0.930 . S
C211 C214 1.388 . S
C211 C216 1.418 . S
C212 H207 0.930 . S
C212 C215 1.404 . S
C212 C216 1.353 . S
N213 Co178 2.145 . S
N213 C214 1.397 . S
N213 C215 1.334 . S
C214 H195 0.929 . S
C214 C211 1.388 . S
C214 N213 1.397 . S
C215 H196 0.929 . S
C215 C212 1.404 . S
C215 N213 1.334 . S
C216 H208 0.930 . S
C216 C211 1.418 . S
C216 C212 1.353 . S
C217 H187 0.930 . S
C217 N218 1.330 . S
C217 C219 1.446 1_455 S
N218 Co177 2.151 . S
N218 C217 1.330 . S
N218 C222 1.418 . S
C219 H198 0.929 . S
C219 C217 1.446 1_655 S
C219 C220 1.332 1_655 S
C220 H200 0.931 1_455 S
C220 C219 1.332 1_455 S
C220 C221 1.267 . S
C221 H189 0.929 . S
C221 C220 1.267 . S
C221 C222 1.251 . S
C222 H192 0.929 . S
C222 N218 1.418 . S
C222 C221 1.251 . S
C223 H190 0.930 . S
C223 C225 1.406 . S
C223 C228 1.261 . S
C224 H191 0.930 . S
C224 N226 1.325 . S
C224 C227 1.357 . S
C225 H193 0.928 . S
C225 C223 1.406 . S
C225 N226 1.261 . S
N226 Co177 2.214 . S
N226 C224 1.325 . S
N226 C225 1.261 . S
C227 H197 0.931 . S
C227 C224 1.357 . S
C227 C228 1.312 . S
C228 H199 0.930 . S
C228 C223 1.261 . S
C228 C227 1.312 . S
C229 O201 1.214 . S
C229 O209 1.234 . S
C230 H202 0.929 . S
C230 C233 1.391 . S
C230 C235 1.391 1_554 S
C231 H203 0.929 . S
C231 C232 1.390 . S
C231 N234 1.391 . S
C232 H204 0.930 . S
C232 C231 1.390 . S
C232 C233 1.392 1_556 S
C233 H205 0.929 . S
C233 C230 1.391 . S
C233 C232 1.392 1_554 S
N234 Co178 2.257 . S
N234 C231 1.391 . S
N234 C235 1.388 . S
C235 H206 0.930 . S
C235 C230 1.391 1_556 S
C235 N234 1.388 . S
Co236 O238 2.143 . S
Co236 O244 2.074 . S
Co236 O247 2.093 . S
Co236 O260 2.097 . S
Co236 N277 2.151 . S
Co236 N285 2.214 . S
Co237 O238 2.160 . S
Co237 O243 2.058 . S
Co237 O253 2.057 . S
Co237 O268 2.037 . S
Co237 N272 2.145 . S
Co237 N293 2.257 . S
O238 Co236 2.143 . S
O238 Co237 2.160 . S
C239 O240 1.278 . S
C239 O247 1.224 . S
O240 C239 1.278 . S
C241 O242 1.245 . S
C241 O253 1.232 . S
O242 C241 1.245 . S
O243 Co237 2.058 . S
O243 C269 1.269 . S
O244 Co236 2.074 . S
O244 C269 1.257 . S
H245 C270 0.930 . S
H246 C276 0.930 . S
O247 Co236 2.093 . S
O247 C239 1.224 . S
H248 C280 0.929 . S
H249 C282 0.930 1_545 S
H250 C283 0.930 . S
H251 C281 0.929 . S
H252 C284 0.928 . S
O253 Co237 2.057 . S
O253 C241 1.232 . S
H254 C273 0.929 . S
H255 C274 0.929 . S
H256 C286 0.931 . S
H257 C278 0.929 . S
H258 C287 0.930 1_545 S
H259 C279 0.931 . S
O260 Co236 2.097 . S
O260 C288 1.214 . S
H261 C289 0.929 . S
H262 C290 0.929 . S
H263 C291 0.930 . S
H264 C292 0.929 . S
H265 C294 0.930 . S
H266 C271 0.930 . S
H267 C275 0.930 . S
O268 Co237 2.037 . S
O268 C288 1.234 . S
C269 O243 1.269 . S
C269 O244 1.257 . S
C270 H245 0.930 . S
C270 C273 1.388 . S
C270 C275 1.418 . S
C271 H266 0.930 . S
C271 C274 1.404 . S
C271 C275 1.353 . S
N272 Co237 2.145 . S
N272 C273 1.397 . S
N272 C274 1.334 . S
C273 H254 0.929 . S
C273 C270 1.388 . S
C273 N272 1.397 . S
C274 H255 0.929 . S
C274 C271 1.404 . S
C274 N272 1.334 . S
C275 H267 0.930 . S
C275 C270 1.418 . S
C275 C271 1.353 . S
C276 H246 0.930 . S
C276 N277 1.330 . S
C276 C278 1.446 . S
N277 Co236 2.151 . S
N277 C276 1.330 . S
N277 C281 1.418 . S
C278 H257 0.929 . S
C278 C276 1.446 . S
C278 C279 1.332 . S
C279 H259 0.931 . S
C279 C278 1.332 . S
C279 C280 1.267 . S
C280 H248 0.929 . S
C280 C279 1.267 . S
C280 C281 1.251 . S
C281 H251 0.929 . S
C281 N277 1.418 . S
C281 C280 1.251 . S
C282 H249 0.930 1_565 S
C282 C284 1.406 . S
C282 C287 1.261 . S
C283 H250 0.930 . S
C283 N285 1.325 . S
C283 C286 1.357 . S
C284 H252 0.928 . S
C284 C282 1.406 . S
C284 N285 1.261 . S
N285 Co236 2.214 . S
N285 C283 1.325 . S
N285 C284 1.261 . S
C286 H256 0.931 . S
C286 C283 1.357 . S
C286 C287 1.312 . S
C287 H258 0.930 1_565 S
C287 C282 1.261 . S
C287 C286 1.312 . S
C288 O260 1.214 . S
C288 O268 1.234 . S
C289 H261 0.929 . S
C289 C292 1.391 . S
C289 C294 1.391 . S
C290 H262 0.929 . S
C290 C291 1.390 . S
C290 N293 1.391 . S
C291 H263 0.930 . S
C291 C290 1.390 . S
C291 C292 1.392 . S
C292 H264 0.929 . S
C292 C289 1.391 . S
C292 C291 1.392 . S
N293 Co237 2.257 . S
N293 C290 1.391 . S
N293 C294 1.388 . S
C294 H265 0.930 . S
C294 C289 1.391 . S
C294 N293 1.388 . S
Co295 O297 2.143 . S
Co295 O303 2.074 . S
Co295 O306 2.093 . S
Co295 O319 2.097 . S
Co295 N336 2.151 . S
Co295 N344 2.214 . S
Co296 O297 2.160 . S
Co296 O302 2.058 . S
Co296 O312 2.057 . S
Co296 O327 2.037 . S
Co296 N331 2.145 . S
Co296 N352 2.257 . S
O297 Co295 2.143 . S
O297 Co296 2.160 . S
C298 O299 1.278 . S
C298 O306 1.224 . S
O299 C298 1.278 . S
C300 O301 1.245 . S
C300 O312 1.232 . S
O301 C300 1.245 . S
O302 Co296 2.058 . S
O302 C328 1.269 . S
O303 Co295 2.074 . S
O303 C328 1.257 . S
H304 C329 0.930 . S
H305 C335 0.930 . S
O306 Co295 2.093 . S
O306 C298 1.224 . S
H307 C339 0.929 . S
H308 C341 0.930 1_545 S
H309 C342 0.930 . S
H310 C340 0.929 . S
H311 C343 0.928 . S
O312 Co296 2.057 . S
O312 C300 1.232 . S
H313 C332 0.929 . S
H314 C333 0.929 . S
H315 C345 0.931 . S
H316 C337 0.929 . S
H317 C346 0.930 1_545 S
H318 C338 0.931 . S
O319 Co295 2.097 . S
O319 C347 1.214 . S
H320 C348 0.929 . S
H321 C349 0.929 . S
H322 C350 0.930 . S
H323 C351 0.929 . S
H324 C353 0.930 . S
H325 C330 0.930 . S
H326 C334 0.930 . S
O327 Co296 2.037 . S
O327 C347 1.234 . S
C328 O302 1.269 . S
C328 O303 1.257 . S
C329 H304 0.930 . S
C329 C332 1.388 . S
C329 C334 1.418 . S
C330 H325 0.930 . S
C330 C333 1.404 . S
C330 C334 1.353 . S
N331 Co296 2.145 . S
N331 C332 1.397 . S
N331 C333 1.334 . S
C332 H313 0.929 . S
C332 C329 1.388 . S
C332 N331 1.397 . S
C333 H314 0.929 . S
C333 C330 1.404 . S
C333 N331 1.334 . S
C334 H326 0.930 . S
C334 C329 1.418 . S
C334 C330 1.353 . S
C335 H305 0.930 . S
C335 N336 1.330 . S
C335 C337 1.446 . S
N336 Co295 2.151 . S
N336 C335 1.330 . S
N336 C340 1.418 . S
C337 H316 0.929 . S
C337 C335 1.446 . S
C337 C338 1.332 . S
C338 H318 0.931 . S
C338 C337 1.332 . S
C338 C339 1.267 . S
C339 H307 0.929 . S
C339 C338 1.267 . S
C339 C340 1.251 . S
C340 H310 0.929 . S
C340 N336 1.418 . S
C340 C339 1.251 . S
C341 H308 0.930 1_565 S
C341 C343 1.406 . S
C341 C346 1.261 . S
C342 H309 0.930 . S
C342 N344 1.325 . S
C342 C345 1.357 . S
C343 H311 0.928 . S
C343 C341 1.406 . S
C343 N344 1.261 . S
N344 Co295 2.214 . S
N344 C342 1.325 . S
N344 C343 1.261 . S
C345 H315 0.931 . S
C345 C342 1.357 . S
C345 C346 1.312 . S
C346 H317 0.930 1_565 S
C346 C341 1.261 . S
C346 C345 1.312 . S
C347 O319 1.214 . S
C347 O327 1.234 . S
C348 H320 0.929 . S
C348 C351 1.391 . S
C348 C353 1.391 1_556 S
C349 H321 0.929 . S
C349 C350 1.390 . S
C349 N352 1.391 . S
C350 H322 0.930 . S
C350 C349 1.390 . S
C350 C351 1.392 1_554 S
C351 H323 0.929 . S
C351 C348 1.391 . S
C351 C350 1.392 1_556 S
N352 Co296 2.257 . S
N352 C349 1.391 . S
N352 C353 1.388 . S
C353 H324 0.930 . S
C353 C348 1.391 1_554 S
C353 N352 1.388 . S
Co354 O356 2.143 . S
Co354 O362 2.074 . S
Co354 O365 2.093 . S
Co354 O378 2.097 . S
Co354 N395 2.151 . S
Co354 N403 2.214 . S
Co355 O356 2.160 . S
Co355 O361 2.058 . S
Co355 O371 2.057 . S
Co355 O386 2.037 . S
Co355 N390 2.145 . S
Co355 N411 2.257 . S
O356 Co354 2.143 . S
O356 Co355 2.160 . S
C357 O358 1.278 . S
C357 O365 1.224 . S
O358 C357 1.278 . S
C359 O360 1.245 . S
C359 O371 1.232 . S
O360 C359 1.245 . S
O361 Co355 2.058 . S
O361 C387 1.269 . S
O362 Co354 2.074 . S
O362 C387 1.257 . S
H363 C388 0.930 . S
H364 C394 0.930 . S
O365 Co354 2.093 . S
O365 C357 1.224 . S
H366 C398 0.929 . S
H367 C400 0.930 1_565 S
H368 C401 0.930 . S
H369 C399 0.929 . S
H370 C402 0.928 . S
O371 Co355 2.057 . S
O371 C359 1.232 . S
H372 C391 0.929 . S
H373 C392 0.929 . S
H374 C404 0.931 . S
H375 C396 0.929 . S
H376 C405 0.930 1_565 S
H377 C397 0.931 . S
O378 Co354 2.097 . S
O378 C406 1.214 . S
H379 C407 0.929 . S
H380 C408 0.929 . S
H381 C409 0.930 . S
H382 C410 0.929 . S
H383 C412 0.930 . S
H384 C389 0.930 . S
H385 C393 0.930 . S
O386 Co355 2.037 . S
O386 C406 1.234 . S
C387 O361 1.269 . S
C387 O362 1.257 . S
C388 H363 0.930 . S
C388 C391 1.388 . S
C388 C393 1.418 . S
C389 H384 0.930 . S
C389 C392 1.404 . S
C389 C393 1.353 . S
N390 Co355 2.145 . S
N390 C391 1.397 . S
N390 C392 1.334 . S
C391 H372 0.929 . S
C391 C388 1.388 . S
C391 N390 1.397 . S
C392 H373 0.929 . S
C392 C389 1.404 . S
C392 N390 1.334 . S
C393 H385 0.930 . S
C393 C388 1.418 . S
C393 C389 1.353 . S
C394 H364 0.930 . S
C394 N395 1.330 . S
C394 C396 1.446 . S
N395 Co354 2.151 . S
N395 C394 1.330 . S
N395 C399 1.418 . S
C396 H375 0.929 . S
C396 C394 1.446 . S
C396 C397 1.332 . S
C397 H377 0.931 . S
C397 C396 1.332 . S
C397 C398 1.267 . S
C398 H366 0.929 . S
C398 C397 1.267 . S
C398 C399 1.251 . S
C399 H369 0.929 . S
C399 N395 1.418 . S
C399 C398 1.251 . S
C400 H367 0.930 1_545 S
C400 C402 1.406 . S
C400 C405 1.261 . S
C401 H368 0.930 . S
C401 N403 1.325 . S
C401 C404 1.357 . S
C402 H370 0.928 . S
C402 C400 1.406 . S
C402 N403 1.261 . S
N403 Co354 2.214 . S
N403 C401 1.325 . S
N403 C402 1.261 . S
C404 H374 0.931 . S
C404 C401 1.357 . S
C404 C405 1.312 . S
C405 H376 0.930 1_545 S
C405 C400 1.261 . S
C405 C404 1.312 . S
C406 O378 1.214 . S
C406 O386 1.234 . S
C407 H379 0.929 . S
C407 C410 1.391 . S
C407 C412 1.391 . S
C408 H380 0.929 . S
C408 C409 1.390 . S
C408 N411 1.391 . S
C409 H381 0.930 . S
C409 C408 1.390 . S
C409 C410 1.392 . S
C410 H382 0.929 . S
C410 C407 1.391 . S
C410 C409 1.392 . S
N411 Co355 2.257 . S
N411 C408 1.391 . S
N411 C412 1.388 . S
C412 H383 0.930 . S
C412 C407 1.391 . S
C412 N411 1.388 . S
Co413 O415 2.143 . S
Co413 O421 2.074 . S
Co413 O424 2.093 . S
Co413 O437 2.097 . S
Co413 N454 2.151 . S
Co413 N462 2.214 . S
Co414 O415 2.160 . S
Co414 O420 2.058 . S
Co414 O430 2.057 . S
Co414 O445 2.037 . S
Co414 N449 2.145 . S
Co414 N470 2.257 . S
O415 Co413 2.143 . S
O415 Co414 2.160 . S
C416 O417 1.278 . S
C416 O424 1.224 . S
O417 C416 1.278 . S
C418 O419 1.245 . S
C418 O430 1.232 . S
O419 C418 1.245 . S
O420 Co414 2.058 . S
O420 C446 1.269 . S
O421 Co413 2.074 . S
O421 C446 1.257 . S
H422 C447 0.930 . S
H423 C453 0.930 . S
O424 Co413 2.093 . S
O424 C416 1.224 . S
H425 C457 0.929 . S
H426 C459 0.930 1_565 S
H427 C460 0.930 . S
H428 C458 0.929 . S
H429 C461 0.928 . S
O430 Co414 2.057 . S
O430 C418 1.232 . S
H431 C450 0.929 . S
H432 C451 0.929 . S
H433 C463 0.931 . S
H434 C455 0.929 . S
H435 C464 0.930 1_565 S
H436 C456 0.931 . S
O437 Co413 2.097 . S
O437 C465 1.214 . S
H438 C466 0.929 . S
H439 C467 0.929 . S
H440 C468 0.930 . S
H441 C469 0.929 . S
H442 C471 0.930 . S
H443 C448 0.930 . S
H444 C452 0.930 . S
O445 Co414 2.037 . S
O445 C465 1.234 . S
C446 O420 1.269 . S
C446 O421 1.257 . S
C447 H422 0.930 . S
C447 C450 1.388 . S
C447 C452 1.418 . S
C448 H443 0.930 . S
C448 C451 1.404 . S
C448 C452 1.353 . S
N449 Co414 2.145 . S
N449 C450 1.397 . S
N449 C451 1.334 . S
C450 H431 0.929 . S
C450 C447 1.388 . S
C450 N449 1.397 . S
C451 H432 0.929 . S
C451 C448 1.404 . S
C451 N449 1.334 . S
C452 H444 0.930 . S
C452 C447 1.418 . S
C452 C448 1.353 . S
C453 H423 0.930 . S
C453 N454 1.330 . S
C453 C455 1.446 . S
N454 Co413 2.151 . S
N454 C453 1.330 . S
N454 C458 1.418 . S
C455 H434 0.929 . S
C455 C453 1.446 . S
C455 C456 1.332 . S
C456 H436 0.931 . S
C456 C455 1.332 . S
C456 C457 1.267 . S
C457 H425 0.929 . S
C457 C456 1.267 . S
C457 C458 1.251 . S
C458 H428 0.929 . S
C458 N454 1.418 . S
C458 C457 1.251 . S
C459 H426 0.930 1_545 S
C459 C461 1.406 . S
C459 C464 1.261 . S
C460 H427 0.930 . S
C460 N462 1.325 . S
C460 C463 1.357 . S
C461 H429 0.928 . S
C461 C459 1.406 . S
C461 N462 1.261 . S
N462 Co413 2.214 . S
N462 C460 1.325 . S
N462 C461 1.261 . S
C463 H433 0.931 . S
C463 C460 1.357 . S
C463 C464 1.312 . S
C464 H435 0.930 1_545 S
C464 C459 1.261 . S
C464 C463 1.312 . S
C465 O437 1.214 . S
C465 O445 1.234 . S
C466 H438 0.929 . S
C466 C469 1.391 . S
C466 C471 1.391 1_554 S
C467 H439 0.929 . S
C467 C468 1.390 . S
C467 N470 1.391 . S
C468 H440 0.930 . S
C468 C467 1.390 . S
C468 C469 1.392 1_556 S
C469 H441 0.929 . S
C469 C466 1.391 . S
C469 C468 1.392 1_554 S
N470 Co414 2.257 . S
N470 C467 1.391 . S
N470 C471 1.388 . S
C471 H442 0.930 . S
C471 C466 1.391 1_556 S
C471 N470 1.388 . S
H472 C478 0.930 1_655 S
H473 C482 0.930 1_455 S
H474 C487 0.929 . S
H475 C485 0.929 . S
H476 C480 0.929 . S
H477 C486 0.929 . S
C478 H472 0.930 1_455 S
C478 C479 1.367 . S
C478 C486 1.378 1_455 S
C479 C478 1.367 . S
C479 C487 1.433 . S
C480 H476 0.929 . S
C480 C482 1.378 1_455 S
C480 C484 1.350 1_455 S
C481 C484 1.463 1_445 S
C481 C486 1.350 1_455 S
C481 N489 1.427 . S
C482 H473 0.930 1_655 S
C482 C480 1.378 1_655 S
C482 C483 1.367 . S
C483 C482 1.367 . S
C483 C485 1.433 . S
C484 C480 1.350 1_655 S
C484 C481 1.463 1_665 S
C484 N488 1.427 . S
C485 H475 0.929 . S
C485 C483 1.433 . S
C485 N488 1.384 . S
C486 H477 0.929 . S
C486 C478 1.378 1_655 S
C486 C481 1.350 1_655 S
C487 H474 0.929 . S
C487 C479 1.433 . S
C487 N489 1.384 . S
N488 C484 1.427 . S
N488 C485 1.384 . S
N489 C481 1.427 . S
N489 C487 1.384 . S
H490 C496 0.930 . S
H491 C500 0.930 . S
H492 C505 0.929 . S
H493 C503 0.929 . S
H494 C498 0.929 . S
H495 C504 0.929 . S
C496 H490 0.930 . S
C496 C497 1.367 . S
C496 C504 1.377 1_456 S
C497 C496 1.367 . S
C497 C505 1.433 . S
C498 H494 0.929 . S
C498 C500 1.377 1_456 S
C498 C502 1.350 1_456 S
C499 C502 1.463 1_466 S
C499 C504 1.350 1_456 S
C499 N507 1.427 . S
C500 H491 0.930 . S
C500 C498 1.377 1_654 S
C500 C501 1.367 . S
C501 C500 1.367 . S
C501 C503 1.433 . S
C502 C498 1.350 1_654 S
C502 C499 1.463 1_644 S
C502 N506 1.427 . S
C503 H493 0.929 . S
C503 C501 1.433 . S
C503 N506 1.384 . S
C504 H495 0.929 . S
C504 C496 1.377 1_654 S
C504 C499 1.350 1_654 S
C505 H492 0.929 . S
C505 C497 1.433 . S
C505 N507 1.384 . S
N506 C502 1.427 . S
N506 C503 1.384 . S
N507 C499 1.427 . S
N507 C505 1.384 . S
H508 C514 0.930 . S
H509 C518 0.930 . S
H510 C523 0.929 . S
H511 C521 0.929 . S
H512 C516 0.929 . S
H513 C522 0.929 . S
C514 H508 0.930 . S
C514 C515 1.367 . S
C514 C522 1.378 . S
C515 C514 1.367 . S
C515 C523 1.433 . S
C516 H512 0.929 . S
C516 C518 1.378 . S
C516 C520 1.350 . S
C517 C520 1.463 . S
C517 C522 1.350 . S
C517 N525 1.427 . S
C518 H509 0.930 . S
C518 C516 1.378 . S
C518 C519 1.367 . S
C519 C518 1.367 . S
C519 C521 1.433 . S
C520 C516 1.350 . S
C520 C517 1.463 . S
C520 N524 1.427 . S
C521 H511 0.929 . S
C521 C519 1.433 . S
C521 N524 1.384 . S
C522 H513 0.929 . S
C522 C514 1.378 . S
C522 C517 1.350 . S
C523 H510 0.929 . S
C523 C515 1.433 . S
C523 N525 1.384 . S
N524 C520 1.427 . S
N524 C521 1.384 . S
N525 C517 1.427 . S
N525 C523 1.384 . S
H526 C532 0.930 . S
H527 C536 0.930 . S
H528 C541 0.929 . S
H529 C539 0.929 . S
H530 C534 0.929 . S
H531 C540 0.929 . S
C532 H526 0.930 . S
C532 C533 1.367 . S
C532 C540 1.378 1_554 S
C533 C532 1.367 . S
C533 C541 1.433 . S
C534 H530 0.929 . S
C534 C536 1.378 1_554 S
C534 C538 1.350 1_554 S
C535 C538 1.463 1_554 S
C535 C540 1.350 1_554 S
C535 N543 1.427 . S
C536 H527 0.930 . S
C536 C534 1.378 1_556 S
C536 C537 1.367 . S
C537 C536 1.367 . S
C537 C539 1.433 . S
C538 C534 1.350 1_556 S
C538 C535 1.463 1_556 S
C538 N542 1.427 . S
C539 H529 0.929 . S
C539 C537 1.433 . S
C539 N542 1.384 . S
C540 H531 0.929 . S
C540 C532 1.378 1_556 S
C540 C535 1.350 1_556 S
C541 H528 0.929 . S
C541 C533 1.433 . S
C541 N543 1.384 . S
N542 C538 1.427 . S
N542 C539 1.384 . S
N543 C535 1.427 . S
N543 C541 1.384 . S
H544 C550 0.930 . S
H545 C554 0.930 . S
H546 C559 0.929 . S
H547 C557 0.929 . S
H548 C552 0.929 1_655 S
H549 C558 0.929 1_455 S
C550 H544 0.930 . S
C550 C551 1.367 . S
C550 C558 1.378 . S
C551 C550 1.367 . S
C551 C559 1.433 . S
C552 H548 0.929 1_455 S
C552 C554 1.378 . S
C552 C556 1.350 . S
C553 C556 1.463 1_654 S
C553 C558 1.350 . S
C553 N561 1.427 . S
C554 H545 0.930 . S
C554 C552 1.378 . S
C554 C555 1.367 . S
C555 C554 1.367 . S
C555 C557 1.433 . S
C556 C552 1.350 . S
C556 C553 1.463 1_456 S
C556 N560 1.427 . S
C557 H547 0.929 . S
C557 C555 1.433 . S
C557 N560 1.384 . S
C558 H549 0.929 1_655 S
C558 C550 1.378 . S
C558 C553 1.350 . S
C559 H546 0.929 . S
C559 C551 1.433 . S
C559 N561 1.384 . S
N560 C556 1.427 . S
N560 C557 1.384 . S
N561 C553 1.427 . S
N561 C559 1.384 . S
H562 C568 0.930 . S
H563 C572 0.930 . S
H564 C577 0.929 . S
H565 C575 0.929 . S
H566 C570 0.929 1_455 S
H567 C576 0.929 1_655 S
C568 H562 0.930 . S
C568 C569 1.367 . S
C568 C576 1.378 . S
C569 C568 1.367 . S
C569 C577 1.433 . S
C570 H566 0.929 1_655 S
C570 C572 1.378 . S
C570 C574 1.350 . S
C571 C574 1.463 1_455 S
C571 C576 1.350 . S
C571 N579 1.427 . S
C572 H563 0.930 . S
C572 C570 1.378 . S
C572 C573 1.367 . S
C573 C572 1.367 . S
C573 C575 1.433 . S
C574 C570 1.350 . S
C574 C571 1.463 1_655 S
C574 N578 1.427 . S
C575 H565 0.929 . S
C575 C573 1.433 . S
C575 N578 1.384 . S
C576 H567 0.929 1_455 S
C576 C568 1.378 . S
C576 C571 1.350 . S
C577 H564 0.929 . S
C577 C569 1.433 . S
C577 N579 1.384 . S
N578 C574 1.427 . S
N578 C575 1.384 . S
N579 C571 1.427 . S
N579 C577 1.384 . S
H580 C586 0.930 . S
H581 C590 0.930 . S
H582 C595 0.929 1_554 S
H583 C593 0.929 1_556 S
H584 C588 0.929 . S
H585 C594 0.929 . S
C586 H580 0.930 . S
C586 C587 1.367 . S
C586 C594 1.378 . S
C587 C586 1.367 . S
C587 C595 1.433 . S
C588 H584 0.929 . S
C588 C590 1.378 . S
C588 C592 1.350 . S
C589 C592 1.463 1_546 S
C589 C594 1.350 . S
C589 N597 1.427 1_556 S
C590 H581 0.930 . S
C590 C588 1.378 . S
C590 C591 1.367 . S
C591 C590 1.367 . S
C591 C593 1.433 . S
C592 C588 1.350 . S
C592 C589 1.463 1_564 S
C592 N596 1.427 1_554 S
C593 H583 0.929 1_554 S
C593 C591 1.433 . S
C593 N596 1.384 1_554 S
C594 H585 0.929 . S
C594 C586 1.378 . S
C594 C589 1.350 . S
C595 H582 0.929 1_556 S
C595 C587 1.433 . S
C595 N597 1.384 1_556 S
N596 C592 1.427 1_556 S
N596 C593 1.384 1_556 S
N597 C589 1.427 1_554 S
N597 C595 1.384 1_554 S
H598 C604 0.930 . S
H599 C608 0.930 . S
H600 C613 0.929 . S
H601 C611 0.929 . S
H602 C606 0.929 . S
H603 C612 0.929 . S
C604 H598 0.930 . S
C604 C605 1.367 . S
C604 C612 1.378 . S
C605 C604 1.367 . S
C605 C613 1.433 . S
C606 H602 0.929 . S
C606 C608 1.378 . S
C606 C610 1.350 . S
C607 C610 1.463 1_565 S
C607 C612 1.350 . S
C607 N615 1.427 . S
C608 H599 0.930 . S
C608 C606 1.378 . S
C608 C609 1.367 . S
C609 C608 1.367 . S
C609 C611 1.433 . S
C610 C606 1.350 . S
C610 C607 1.463 1_545 S
C610 N614 1.427 . S
C611 H601 0.929 . S
C611 C609 1.433 . S
C611 N614 1.384 . S
C612 H603 0.929 . S
C612 C604 1.378 . S
C612 C607 1.350 . S
C613 H600 0.929 . S
C613 C605 1.433 . S
C613 N615 1.384 . S
N614 C610 1.427 . S
N614 C611 1.384 . S
N615 C607 1.427 . S
N615 C613 1.384 . S
H616 C622 0.930 . S
H617 C626 0.930 . S
H618 C631 0.929 . S
H619 C629 0.929 . S
H620 C624 0.929 . S
H621 C630 0.929 . S
C622 H616 0.930 . S
C622 C623 1.367 . S
C622 C630 1.378 . S
C623 C622 1.367 . S
C623 C631 1.433 . S
C624 H620 0.929 . S
C624 C626 1.378 . S
C624 C628 1.350 . S
C625 C628 1.463 . S
C625 C630 1.350 . S
C625 N633 1.427 . S
C626 H617 0.930 . S
C626 C624 1.378 . S
C626 C627 1.367 . S
C627 C626 1.367 . S
C627 C629 1.433 . S
C628 C624 1.350 . S
C628 C625 1.463 . S
C628 N632 1.427 . S
C629 H619 0.929 . S
C629 C627 1.433 . S
C629 N632 1.384 . S
C630 H621 0.929 . S
C630 C622 1.378 . S
C630 C625 1.350 . S
C631 H618 0.929 . S
C631 C623 1.433 . S
C631 N633 1.384 . S
N632 C628 1.427 . S
N632 C629 1.384 . S
N633 C625 1.427 . S
N633 C631 1.384 . S
H634 C640 0.930 . S
H635 C644 0.930 . S
H636 C649 0.929 . S
H637 C647 0.929 . S
H638 C642 0.929 . S
H639 C648 0.929 . S
C640 H634 0.930 . S
C640 C641 1.367 . S
C640 C648 1.378 . S
C641 C640 1.367 . S
C641 C649 1.433 . S
C642 H638 0.929 . S
C642 C644 1.378 . S
C642 C646 1.350 . S
C643 C646 1.463 1_556 S
C643 C648 1.350 . S
C643 N651 1.427 . S
C644 H635 0.930 . S
C644 C642 1.378 . S
C644 C645 1.367 . S
C645 C644 1.367 . S
C645 C647 1.433 . S
C646 C642 1.350 . S
C646 C643 1.463 1_554 S
C646 N650 1.427 . S
C647 H637 0.929 . S
C647 C645 1.433 . S
C647 N650 1.384 . S
C648 H639 0.929 . S
C648 C640 1.378 . S
C648 C643 1.350 . S
C649 H636 0.929 . S
C649 C641 1.433 . S
C649 N651 1.384 . S
N650 C646 1.427 . S
N650 C647 1.384 . S
N651 C643 1.427 . S
N651 C649 1.384 . S
H652 C658 0.930 . S
H653 C662 0.930 . S
H654 C667 0.929 . S
H655 C665 0.929 . S
H656 C660 0.929 . S
H657 C666 0.929 . S
C658 H652 0.930 . S
C658 C659 1.367 . S
C658 C666 1.378 . S
C659 C658 1.367 . S
C659 C667 1.433 . S
C660 H656 0.929 . S
C660 C662 1.378 . S
C660 C664 1.350 . S
C661 C664 1.463 . S
C661 C666 1.350 . S
C661 N669 1.427 . S
C662 H653 0.930 . S
C662 C660 1.378 . S
C662 C663 1.367 . S
C663 C662 1.367 . S
C663 C665 1.433 . S
C664 C660 1.350 . S
C664 C661 1.463 . S
C664 N668 1.427 . S
C665 H655 0.929 . S
C665 C663 1.433 . S
C665 N668 1.384 . S
C666 H657 0.929 . S
C666 C658 1.378 . S
C666 C661 1.350 . S
C667 H654 0.929 . S
C667 C659 1.433 . S
C667 N669 1.384 . S
N668 C664 1.427 . S
N668 C665 1.384 . S
N669 C661 1.427 . S
N669 C667 1.384 . S
H670 C676 0.930 . S
H671 C680 0.930 . S
H672 C685 0.929 . S
H673 C683 0.929 . S
H674 C678 0.929 . S
H675 C684 0.929 . S
C676 H670 0.930 . S
C676 C677 1.367 . S
C676 C684 1.378 . S
C677 C676 1.367 . S
C677 C685 1.433 . S
C678 H674 0.929 . S
C678 C680 1.378 . S
C678 C682 1.350 . S
C679 C682 1.463 1_554 S
C679 C684 1.350 . S
C679 N687 1.427 . S
C680 H671 0.930 . S
C680 C678 1.378 . S
C680 C681 1.367 . S
C681 C680 1.367 . S
C681 C683 1.433 . S
C682 C678 1.350 . S
C682 C679 1.463 1_556 S
C682 N686 1.427 . S
C683 H673 0.929 . S
C683 C681 1.433 . S
C683 N686 1.384 . S
C684 H675 0.929 . S
C684 C676 1.378 . S
C684 C679 1.350 . S
C685 H672 0.929 . S
C685 C677 1.433 . S
C685 N687 1.384 . S
N686 C682 1.427 . S
N686 C683 1.384 . S
N687 C679 1.427 . S
N687 C685 1.384 . S
H688 C694 0.930 . S
H689 C698 0.930 . S
H690 C703 0.929 . S
H691 C701 0.929 . S
H692 C696 0.929 . S
H693 C702 0.929 . S
C694 H688 0.930 . S
C694 C695 1.367 . S
C694 C702 1.378 . S
C695 C694 1.367 . S
C695 C703 1.433 . S
C696 H692 0.929 . S
C696 C698 1.378 . S
C696 C700 1.350 . S
C697 C700 1.463 . S
C697 C702 1.350 . S
C697 N705 1.427 . S
C698 H689 0.930 . S
C698 C696 1.378 . S
C698 C699 1.367 . S
C699 C698 1.367 . S
C699 C701 1.433 . S
C700 C696 1.350 . S
C700 C697 1.463 . S
C700 N704 1.427 . S
C701 H691 0.929 . S
C701 C699 1.433 . S
C701 N704 1.384 . S
C702 H693 0.929 . S
C702 C694 1.378 . S
C702 C697 1.350 . S
C703 H690 0.929 . S
C703 C695 1.433 . S
C703 N705 1.384 . S
N704 C700 1.427 . S
N704 C701 1.384 . S
N705 C697 1.427 . S
N705 C703 1.384 . S
H706 C712 0.930 . S
H707 C716 0.930 . S
H708 C721 0.929 . S
H709 C719 0.929 . S
H710 C714 0.929 . S
H711 C720 0.929 . S
C712 H706 0.930 . S
C712 C713 1.367 . S
C712 C720 1.378 . S
C713 C712 1.367 . S
C713 C721 1.433 . S
C714 H710 0.929 . S
C714 C716 1.378 . S
C714 C718 1.350 . S
C715 C718 1.463 . S
C715 C720 1.350 . S
C715 N723 1.427 . S
C716 H707 0.930 . S
C716 C714 1.378 . S
C716 C717 1.367 . S
C717 C716 1.367 . S
C717 C719 1.433 . S
C718 C714 1.350 . S
C718 C715 1.463 . S
C718 N722 1.427 . S
C719 H709 0.929 . S
C719 C717 1.433 . S
C719 N722 1.384 . S
C720 H711 0.929 . S
C720 C712 1.378 . S
C720 C715 1.350 . S
C721 H708 0.929 . S
C721 C713 1.433 . S
C721 N723 1.384 . S
N722 C718 1.427 . S
N722 C719 1.384 . S
N723 C715 1.427 . S
N723 C721 1.384 . S
H724 C730 0.930 . S
H725 C734 0.930 . S
H726 C739 0.929 . S
H727 C737 0.929 . S
H728 C732 0.929 . S
H729 C738 0.929 . S
C730 H724 0.930 . S
C730 C731 1.367 . S
C730 C738 1.378 . S
C731 C730 1.367 . S
C731 C739 1.433 . S
C732 H728 0.929 . S
C732 C734 1.378 . S
C732 C736 1.350 . S
C733 C736 1.463 1_455 S
C733 C738 1.350 . S
C733 N741 1.427 . S
C734 H725 0.930 . S
C734 C732 1.378 . S
C734 C735 1.367 . S
C735 C734 1.367 . S
C735 C737 1.433 . S
C736 C732 1.350 . S
C736 C733 1.463 1_655 S
C736 N740 1.427 . S
C737 H727 0.929 . S
C737 C735 1.433 . S
C737 N740 1.384 . S
C738 H729 0.929 . S
C738 C730 1.378 . S
C738 C733 1.350 . S
C739 H726 0.929 . S
C739 C731 1.433 . S
C739 N741 1.384 . S
N740 C736 1.427 . S
N740 C737 1.384 . S
N741 C733 1.427 . S
N741 C739 1.384 . S
H742 C748 0.930 . S
H743 C752 0.930 . S
H744 C757 0.929 . S
H745 C755 0.929 . S
H746 C750 0.929 . S
H747 C756 0.929 . S
C748 H742 0.930 . S
C748 C749 1.367 . S
C748 C756 1.378 . S
C749 C748 1.367 . S
C749 C757 1.433 . S
C750 H746 0.929 . S
C750 C752 1.378 . S
C750 C754 1.350 . S
C751 C754 1.463 1_455 S
C751 C756 1.350 . S
C751 N759 1.427 . S
C752 H743 0.930 . S
C752 C750 1.378 . S
C752 C753 1.367 . S
C753 C752 1.367 . S
C753 C755 1.433 . S
C754 C750 1.350 . S
C754 C751 1.463 1_655 S
C754 N758 1.427 . S
C755 H745 0.929 . S
C755 C753 1.433 . S
C755 N758 1.384 . S
C756 H747 0.929 . S
C756 C748 1.378 . S
C756 C751 1.350 . S
C757 H744 0.929 . S
C757 C749 1.433 . S
C757 N759 1.384 . S
N758 C754 1.427 . S
N758 C755 1.384 . S
N759 C751 1.427 . S
N759 C757 1.384 . S
C479 C5 2.102 . S
C483 C123 2.102 . S
C497 C182 2.101 . S
C501 C64 2.101 . S
C515 C359 2.097 . S
C519 C241 2.097 . S
C533 C300 2.100 . S
C537 C418 2.100 . S
C551 C62 1.162 . S
C555 C180 1.162 . S
C569 C3 1.167 . S
C573 C121 1.167 . S
C587 C416 1.159 . S
C591 C298 1.159 . S
C605 C239 1.159 . S
C609 C357 1.159 . S
C623 C328 1.578 . S
C627 C210 1.578 . S
C641 C151 1.575 . S
C645 C269 1.575 . S
C659 C92 1.577 . S
C663 C446 1.577 . S
C677 C33 1.576 . S
C681 C387 1.576 . S
C695 C52 1.621 . S
C699 C111 1.626 . S
C713 C170 1.626 . S
C717 C229 1.621 . S
C731 C347 1.621 . S
C735 C288 1.627 . S
C749 C406 1.625 . S
C753 C465 1.622 . S
