# Generated by pormake.
# Topology vmq, (7)-cn, num edge types: 1
# Building blocks:
#     Node 0, Type 0, BuildingBlock: HICVOG_clean_sbu_0, # of connection points: 7
#     Node 1, Type 0, BuildingBlock: HICVOG_clean_sbu_0, # of connection points: 7
#     Node 2, Type 0, BuildingBlock: HICVOG_clean_sbu_0, # of connection points: 7
#     Node 3, Type 0, BuildingBlock: HICVOG_clean_sbu_0, # of connection points: 7
#     Node 4, Type 0, BuildingBlock: HICVOG_clean_sbu_0, # of connection points: 7
#     Node 5, Type 0, BuildingBlock: HICVOG_clean_sbu_0, # of connection points: 7
#     Node 6, Type 0, BuildingBlock: HICVOG_clean_sbu_0, # of connection points: 7
#     Node 7, Type 0, BuildingBlock: HICVOG_clean_sbu_0, # of connection points: 7
#     Edge 8, Type (0, 0), BuildingBlock: ZUJKAS_clean_linker_0, # of connection points: 2
#     Edge 9, Type (0, 0), BuildingBlock: ZUJKAS_clean_linker_0, # of connection points: 2
#     Edge 10, Type (0, 0), BuildingBlock: ZUJKAS_clean_linker_0, # of connection points: 2
#     Edge 11, Type (0, 0), BuildingBlock: ZUJKAS_clean_linker_0, # of connection points: 2
#     Edge 12, Type (0, 0), BuildingBlock: ZUJKAS_clean_linker_0, # of connection points: 2
#     Edge 13, Type (0, 0), BuildingBlock: ZUJKAS_clean_linker_0, # of connection points: 2
#     Edge 14, Type (0, 0), BuildingBlock: ZUJKAS_clean_linker_0, # of connection points: 2
#     Edge 15, Type (0, 0), BuildingBlock: ZUJKAS_clean_linker_0, # of connection points: 2
#     Edge 16, Type (0, 0), BuildingBlock: ZUJKAS_clean_linker_0, # of connection points: 2
#     Edge 17, Type (0, 0), BuildingBlock: ZUJKAS_clean_linker_0, # of connection points: 2
#     Edge 18, Type (0, 0), BuildingBlock: ZUJKAS_clean_linker_0, # of connection points: 2
#     Edge 19, Type (0, 0), BuildingBlock: ZUJKAS_clean_linker_0, # of connection points: 2
#     Edge 20, Type (0, 0), BuildingBlock: ZUJKAS_clean_linker_0, # of connection points: 2
#     Edge 21, Type (0, 0), BuildingBlock: ZUJKAS_clean_linker_0, # of connection points: 2
#     Edge 22, Type (0, 0), BuildingBlock: ZUJKAS_clean_linker_0, # of connection points: 2
#     Edge 23, Type (0, 0), BuildingBlock: ZUJKAS_clean_linker_0, # of connection points: 2
#     Edge 24, Type (0, 0), BuildingBlock: ZUJKAS_clean_linker_0, # of connection points: 2
#     Edge 25, Type (0, 0), BuildingBlock: ZUJKAS_clean_linker_0, # of connection points: 2
#     Edge 26, Type (0, 0), BuildingBlock: ZUJKAS_clean_linker_0, # of connection points: 2
#     Edge 27, Type (0, 0), BuildingBlock: ZUJKAS_clean_linker_0, # of connection points: 2
#     Edge 28, Type (0, 0), BuildingBlock: ZUJKAS_clean_linker_0, # of connection points: 2
#     Edge 29, Type (0, 0), BuildingBlock: ZUJKAS_clean_linker_0, # of connection points: 2
#     Edge 30, Type (0, 0), BuildingBlock: ZUJKAS_clean_linker_0, # of connection points: 2
#     Edge 31, Type (0, 0), BuildingBlock: ZUJKAS_clean_linker_0, # of connection points: 2
#     Edge 32, Type (0, 0), BuildingBlock: ZUJKAS_clean_linker_0, # of connection points: 2
#     Edge 33, Type (0, 0), BuildingBlock: ZUJKAS_clean_linker_0, # of connection points: 2
#     Edge 34, Type (0, 0), BuildingBlock: ZUJKAS_clean_linker_0, # of connection points: 2
#     Edge 35, Type (0, 0), BuildingBlock: ZUJKAS_clean_linker_0, # of connection points: 2
# Relax obj value: 0.281
# Max RMSD: 0.256
# Mean RMSD: 0.256
data_MOF--net-vmq--node1-HICVOG_clean_sbu_0--edge1-ZUJKAS_clean_linker_0
_symmetry_space_group_name_H-M    P1
_symmetry_Int_Tables_number       1
_symmetry_cell_setting            triclinic
loop_
_symmetry_equiv_pos_as_xyz
'x, y, z'
_cell_length_a     69.501685
_cell_length_b     23.891381
_cell_length_c     43.765246
_cell_angle_alpha  90.008154
_cell_angle_beta   107.14866
_cell_angle_gamma 90.014323
loop_
_atom_site_label
_atom_site_type_symbol
_atom_site_fract_x
_atom_site_fract_y
_atom_site_fract_z
_atom_type_partial_charge
Zn0 Zn 0.41031 0.15436 0.09899 0.0
C1 C 0.43656 0.02767 0.06615 0.0
N2 N 0.44812 0.02436 0.09668 0.0
C3 C 0.43962 0.0614 0.11181 0.0
N4 N 0.42356 0.08689 0.09138 0.0
N5 N 0.42135 0.06462 0.06288 0.0
C6 C 0.38712 0.0394 0.96154 0.0
O7 O 0.3688 0.0508 0.96248 0.0
O8 O 0.41008 0.15185 0.1454 0.0
Zn9 Zn 0.39611 0.06006 0.02912 0.0
N10 N 0.42532 0.21778 0.08927 0.0
C11 C 0.45251 0.24929 0.07097 0.0
C12 C 0.44148 0.20598 0.0788 0.0
C13 C 0.41936 0.2717 0.09118 0.0
N14 N 0.44668 0.30288 0.07304 0.0
C15 C 0.43029 0.31581 0.08267 0.0
O16 O 0.37652 0.12637 0.02342 0.0
C17 C 0.37068 0.15743 0.04275 0.0
O18 O 0.38147 0.16458 0.07156 0.0
H19 H 0.44597 0.16323 0.07679 0.0
H20 H 0.40634 0.27979 0.09926 0.0
C21 C 0.38819 0.94339 0.03991 0.0
C22 C 0.37706 0.89927 0.04794 0.0
C23 C 0.35327 0.96538 0.05526 0.0
C24 C 0.36433 0.00864 0.04745 0.0
N25 N 0.38151 0.99706 0.03979 0.0
N26 N 0.35985 0.91204 0.0553 0.0
H27 H 0.40179 0.93549 0.0334 0.0
C28 C 0.40166 0.10845 0.15252 0.0
O29 O 0.39347 0.07231 0.12975 0.0
O30 O 0.40158 0.04177 0.98728 0.0
H31 H 0.35912 0.05107 0.04749 0.0
H32 H 0.46553 0.24043 0.06302 0.0
H33 H 0.33956 0.97408 0.06131 0.0
Zn34 Zn 0.63754 0.05285 0.47663 0.0
C35 C 0.59158 0.07064 0.39737 0.0
N36 N 0.58247 0.03361 0.41145 0.0
C37 C 0.59545 0.02875 0.44096 0.0
N38 N 0.61178 0.06194 0.44471 0.0
N39 N 0.60909 0.08884 0.41741 0.0
C40 C 0.63277 0.11281 0.35714 0.0
O41 O 0.6438 0.08194 0.38069 0.0
O42 O 0.63333 0.02627 0.51825 0.0
Zn43 Zn 0.62265 0.15506 0.4101 0.0
N44 N 0.65113 0.99358 0.46075 0.0
C45 C 0.67731 0.9665 0.43898 0.0
C46 C 0.66736 0.00753 0.45102 0.0
C47 C 0.6443 0.93987 0.45866 0.0
N48 N 0.6706 0.91301 0.437 0.0
C49 C 0.65429 0.89808 0.44638 0.0
O50 O 0.65136 0.1648 0.43806 0.0
C51 C 0.66258 0.15404 0.4662 0.0
O52 O 0.6573 0.11901 0.4843 0.0
H53 H 0.67261 0.05014 0.45244 0.0
H54 H 0.63145 0.93016 0.46687 0.0
C55 C 0.61171 0.27161 0.41134 0.0
C56 C 0.60123 0.31677 0.41973 0.0
C57 C 0.58294 0.25262 0.44193 0.0
C58 C 0.59381 0.20843 0.43458 0.0
N59 N 0.60763 0.21846 0.41878 0.0
N60 N 0.58694 0.30554 0.4345 0.0
H61 H 0.62308 0.27831 0.39935 0.0
C62 C 0.63409 0.05882 0.54156 0.0
O63 O 0.63773 0.11227 0.53887 0.0
O64 O 0.62215 0.15181 0.36365 0.0
H65 H 0.59115 0.16638 0.44141 0.0
H66 H 0.69027 0.97703 0.43122 0.0
H67 H 0.57166 0.24508 0.454 0.0
Zn68 Zn 0.62398 0.84709 0.90968 0.0
C69 C 0.5975 0.97604 0.94028 0.0
N70 N 0.58525 0.97339 0.91016 0.0
C71 C 0.59446 0.93635 0.89622 0.0
N72 N 0.61141 0.91605 0.91692 0.0
N73 N 0.61371 0.94223 0.94443 0.0
C74 C 0.64323 0.94032 0.04918 0.0
O75 O 0.66179 0.92798 0.04995 0.0
O76 O 0.62277 0.84656 0.86276 0.0
Zn77 Zn 0.63771 0.94251 0.98113 0.0
N78 N 0.609 0.78499 0.92069 0.0
C79 C 0.58462 0.75659 0.946 0.0
C80 C 0.59507 0.79857 0.9357 0.0
C81 C 0.61324 0.73035 0.9162 0.0
N82 N 0.5889 0.70237 0.9418 0.0
C83 C 0.603 0.68749 0.92732 0.0
O84 O 0.65891 0.88149 0.98243 0.0
C85 C 0.66445 0.84869 0.96357 0.0
O86 O 0.65301 0.83773 0.93565 0.0
H87 H 0.59216 0.84175 0.94002 0.0
H88 H 0.62495 0.7207 0.90534 0.0
C89 C 0.64361 0.06202 0.96991 0.0
C90 C 0.65581 0.10996 0.97196 0.0
C91 C 0.68485 0.0543 0.9945 0.0
C92 C 0.67278 0.00733 0.9927 0.0
N93 N 0.65244 0.01176 0.98047 0.0
N94 N 0.67613 0.10426 0.98427 0.0
H95 H 0.62739 0.06481 0.96096 0.0
C96 C 0.63167 0.88792 0.85449 0.0
O97 O 0.64116 0.92375 0.8766 0.0
O98 O 0.62997 0.94556 0.02222 0.0
H99 H 0.67964 0.96766 1.00144 0.0
H100 H 0.57343 0.76697 0.95781 0.0
H101 H 0.70104 0.05126 0.00425 0.0
Zn102 Zn 0.41139 0.84236 0.59893 0.0
C103 C 0.437 0.96999 0.566 0.0
N104 N 0.45045 0.96612 0.59511 0.0
C105 C 0.4419 0.92934 0.61021 0.0
N106 N 0.42416 0.91033 0.5911 0.0
N107 N 0.42091 0.93642 0.56338 0.0
C108 C 0.39399 0.9373 0.46421 0.0
O109 O 0.38649 0.8873 0.46587 0.0
O110 O 0.41105 0.84454 0.64503 0.0
Zn111 Zn 0.39504 0.94388 0.53143 0.0
N112 N 0.42742 0.7801 0.59124 0.0
C113 C 0.45478 0.74907 0.5733 0.0
C114 C 0.44337 0.79217 0.58037 0.0
C115 C 0.42194 0.72607 0.5942 0.0
N116 N 0.44934 0.69536 0.57617 0.0
C117 C 0.43312 0.68208 0.58618 0.0
O118 O 0.37559 0.87762 0.52524 0.0
C119 C 0.37104 0.84111 0.54326 0.0
O120 O 0.38283 0.82981 0.5709 0.0
H121 H 0.44707 0.83488 0.57653 0.0
H122 H 0.4086 0.718 0.60141 0.0
C123 C 0.38918 0.05664 0.55069 0.0
C124 C 0.37911 0.09905 0.56237 0.0
C125 C 0.35387 0.03338 0.56451 0.0
C126 C 0.3638 0.99184 0.5528 0.0
N127 N 0.38126 0.00409 0.54615 0.0
N128 N 0.36172 0.08571 0.569 0.0
H129 H 0.40331 0.06459 0.54579 0.0
C130 C 0.39818 0.87705 0.65119 0.0
O131 O 0.38558 0.90409 0.62746 0.0
O132 O 0.39884 0.96797 0.48907 0.0
H133 H 0.35764 0.9501 0.5493 0.0
H134 H 0.4676 0.75818 0.56488 0.0
H135 H 0.34002 0.02415 0.57002 0.0
Zn136 Zn 0.91065 0.6543 0.10027 0.0
C137 C 0.93693 0.52549 0.06913 0.0
N138 N 0.94852 0.5241 0.09971 0.0
C139 C 0.93992 0.56221 0.11402 0.0
N140 N 0.92379 0.58643 0.09311 0.0
N141 N 0.92157 0.56224 0.06508 0.0
C142 C 0.88882 0.54723 0.96195 0.0
O143 O 0.87069 0.56164 0.96258 0.0
O144 O 0.9118 0.65342 0.14744 0.0
Zn145 Zn 0.89679 0.55974 0.02991 0.0
N146 N 0.92524 0.71743 0.0891 0.0
C147 C 0.95109 0.74787 0.06732 0.0
C148 C 0.94005 0.70502 0.07561 0.0
C149 C 0.92054 0.77167 0.09353 0.0
N150 N 0.94658 0.80173 0.07202 0.0
C151 C 0.93149 0.81533 0.08466 0.0
O152 O 0.87704 0.6258 0.02516 0.0
C153 C 0.87099 0.65597 0.04464 0.0
O154 O 0.88173 0.66322 0.07344 0.0
H155 H 0.94353 0.66209 0.0717 0.0
H156 H 0.90856 0.78042 0.10398 0.0
C157 C 0.88975 0.4428 0.0424 0.0
C158 C 0.87801 0.39772 0.04787 0.0
C159 C 0.85068 0.46045 0.04277 0.0
C160 C 0.86231 0.50454 0.03741 0.0
N161 N 0.88161 0.49519 0.03743 0.0
N162 N 0.85876 0.40848 0.04783 0.0
H163 H 0.90498 0.43666 0.04153 0.0
C164 C 0.89626 0.64347 0.15632 0.0
O165 O 0.87867 0.63904 0.13459 0.0
O166 O 0.90294 0.54506 0.98813 0.0
H167 H 0.85584 0.54585 0.03315 0.0
H168 H 0.96309 0.73845 0.05704 0.0
H169 H 0.83531 0.46738 0.04283 0.0
Zn170 Zn 0.12465 0.66016 0.41042 0.0
C171 C 0.0936 0.5487 0.44557 0.0
N172 N 0.07955 0.55818 0.41752 0.0
C173 C 0.08932 0.59059 0.40205 0.0
N174 N 0.10826 0.60185 0.41994 0.0
N175 N 0.11111 0.57523 0.44739 0.0
C176 C 0.13305 0.54909 0.53717 0.0
O177 O 0.13317 0.60362 0.53328 0.0
O178 O 0.12435 0.64967 0.36409 0.0
Zn179 Zn 0.13742 0.55323 0.47388 0.0
N180 N 0.112 0.73011 0.41595 0.0
C181 C 0.08723 0.77805 0.43367 0.0
C182 C 0.09645 0.72857 0.42889 0.0
C183 C 0.11952 0.77975 0.40937 0.0
N184 N 0.0946 0.82748 0.42692 0.0
C185 C 0.11072 0.83003 0.41532 0.0
O186 O 0.15944 0.61317 0.48394 0.0
C187 C 0.16485 0.65014 0.46705 0.0
O188 O 0.15326 0.66544 0.43995 0.0
H189 H 0.09128 0.68939 0.43583 0.0
H190 H 0.13231 0.77982 0.40003 0.0
C191 C 0.14812 0.44355 0.45415 0.0
C192 C 0.1547 0.40826 0.43342 0.0
C193 C 0.15812 0.48744 0.40263 0.0
C194 C 0.15125 0.52183 0.42279 0.0
N195 N 0.14663 0.49955 0.4483 0.0
N196 N 0.15963 0.43167 0.40836 0.0
H197 H 0.14425 0.42716 0.47462 0.0
C198 C 0.14017 0.64034 0.35592 0.0
O199 O 0.15775 0.64122 0.37791 0.0
O200 O 0.13499 0.5176 0.51482 0.0
H201 H 0.14949 0.56604 0.41806 0.0
H202 H 0.07461 0.77731 0.4434 0.0
H203 H 0.16196 0.50477 0.38235 0.0
Zn204 Zn 0.12337 0.34476 0.9074 0.0
C205 C 0.09723 0.47192 0.94054 0.0
N206 N 0.08563 0.47499 0.91003 0.0
C207 C 0.0941 0.43781 0.89498 0.0
N208 N 0.11021 0.41248 0.91538 0.0
N209 N 0.11249 0.4351 0.94385 0.0
C210 C 0.14664 0.4596 0.04569 0.0
O211 O 0.16499 0.45649 0.04319 0.0
O212 O 0.12272 0.34534 0.86044 0.0
Zn213 Zn 0.13749 0.43788 0.9785 0.0
N214 N 0.10854 0.28118 0.91761 0.0
C215 C 0.08154 0.25034 0.93661 0.0
C216 C 0.0929 0.29335 0.92928 0.0
C217 C 0.11366 0.22698 0.91396 0.0
N218 N 0.08648 0.19655 0.9327 0.0
C219 C 0.10233 0.18313 0.9218 0.0
O220 O 0.15725 0.37218 0.98251 0.0
C221 C 0.16326 0.34266 0.96273 0.0
O222 O 0.15241 0.33572 0.93394 0.0
H223 H 0.08902 0.33622 0.93251 0.0
H224 H 0.12623 0.2184 0.90485 0.0
C225 C 0.14425 0.55532 0.96588 0.0
C226 C 0.15594 0.60052 0.96039 0.0
C227 C 0.18324 0.5379 0.965 0.0
C228 C 0.17168 0.49372 0.97041 0.0
N229 N 0.15242 0.50292 0.97068 0.0
N230 N 0.17516 0.58987 0.96017 0.0
H231 H 0.12905 0.56144 0.96693 0.0
C232 C 0.1281 0.39081 0.85014 0.0
O233 O 0.13452 0.43216 0.8704 0.0
O234 O 0.13184 0.45143 0.02085 0.0
H235 H 0.17818 0.45245 0.97456 0.0
H236 H 0.06892 0.25959 0.9455 0.0
H237 H 0.19858 0.53107 0.96474 0.0
Zn238 Zn 0.89347 0.44827 0.53193 0.0
C239 C 0.94025 0.42923 0.61014 0.0
N240 N 0.94891 0.46742 0.59609 0.0
C241 C 0.93561 0.47281 0.5669 0.0
N242 N 0.91951 0.43882 0.56327 0.0
N243 N 0.92265 0.41094 0.59039 0.0
C244 C 0.89951 0.38437 0.65161 0.0
O245 O 0.88839 0.41619 0.62865 0.0
O246 O 0.89662 0.47514 0.4896 0.0
Zn247 Zn 0.90931 0.34424 0.59774 0.0
N248 N 0.8803 0.50763 0.54849 0.0
C249 C 0.854 0.53586 0.56972 0.0
C250 C 0.86357 0.49464 0.55712 0.0
C251 C 0.88795 0.56052 0.55213 0.0
N252 N 0.86157 0.58853 0.57332 0.0
C253 C 0.87836 0.6025 0.56502 0.0
O254 O 0.88039 0.33478 0.57049 0.0
C255 C 0.86875 0.34659 0.54281 0.0
O256 O 0.87368 0.38242 0.52476 0.0
H257 H 0.85764 0.45265 0.55435 0.0
H258 H 0.90114 0.56942 0.54467 0.0
C259 C 0.92086 0.22785 0.59622 0.0
C260 C 0.93151 0.18344 0.58746 0.0
C261 C 0.94845 0.24877 0.56359 0.0
C262 C 0.93747 0.2922 0.57144 0.0
N263 N 0.92424 0.28127 0.58822 0.0
N264 N 0.94518 0.19563 0.57165 0.0
H265 H 0.90996 0.22035 0.60903 0.0
C266 C 0.90011 0.44284 0.46874 0.0
O267 O 0.90201 0.38886 0.47457 0.0
O268 O 0.91018 0.3462 0.64439 0.0
H269 H 0.93961 0.33442 0.56428 0.0
H270 H 0.84067 0.52612 0.57663 0.0
H271 H 0.95926 0.25705 0.55074 0.0
H272 H 0.59196 0.04081 0.33783 0.0
H273 H 0.56578 0.06369 0.28812 0.0
H274 H 0.53907 0.17903 0.33977 0.0
H275 H 0.5645 0.15393 0.38932 0.0
H276 H 0.51361 0.09912 0.31178 0.0
H277 H 0.54758 0.18713 0.22268 0.0
H278 H 0.55987 0.12412 0.24066 0.0
H279 H 0.56082 0.18543 0.26495 0.0
C280 C 0.58102 0.07299 0.33812 0.0
C281 C 0.5806 0.09718 0.36709 0.0
C282 C 0.56608 0.08615 0.30975 0.0
C283 C 0.55056 0.12363 0.31013 0.0
C284 C 0.55103 0.1506 0.33882 0.0
H285 H 0.44748 0.16695 0.13817 0.0
H286 H 0.47276 0.19044 0.18845 0.0
C287 C 0.56577 0.13694 0.36711 0.0
C288 C 0.53203 0.12641 0.28263 0.0
H289 H 0.51464 0.14486 0.2018 0.0
C290 C 0.51381 0.11028 0.28785 0.0
C291 C 0.53224 0.14099 0.25143 0.0
C292 C 0.55115 0.16092 0.24461 0.0
C293 C 0.49601 0.10582 0.26254 0.0
C294 C 0.49645 0.11722 0.23117 0.0
C295 C 0.5144 0.13598 0.22599 0.0
C296 C 0.47904 0.10436 0.20321 0.0
C297 C 0.47695 0.08752 0.26939 0.0
C298 C 0.47375 0.0484 0.19547 0.0
C299 C 0.45939 0.03505 0.16666 0.0
C300 C 0.44995 0.07738 0.14521 0.0
C301 C 0.45429 0.13351 0.15407 0.0
C302 C 0.46887 0.14697 0.18278 0.0
H303 H 0.47796 0.09361 0.29497 0.0
H304 H 0.46374 0.11104 0.25438 0.0
H305 H 0.47439 0.04236 0.2637 0.0
H306 H 0.48154 0.01489 0.21087 0.0
H307 H 0.45648 0.99135 0.16031 0.0
H308 H 0.47565 0.86905 0.61873 0.0
H309 H 0.5006 0.84734 0.66933 0.0
H310 H 0.46135 0.91523 0.72024 0.0
H311 H 0.43639 0.93818 0.66906 0.0
H312 H 0.49706 0.96611 0.73564 0.0
H313 H 0.51051 0.73789 0.74232 0.0
H314 H 0.51132 0.76603 0.70474 0.0
H315 H 0.48819 0.7687 0.71533 0.0
C316 C 0.47191 0.87665 0.64071 0.0
C317 C 0.45379 0.90317 0.64014 0.0
C318 C 0.4862 0.86421 0.66967 0.0
C319 C 0.48273 0.87858 0.69865 0.0
C320 C 0.46419 0.90289 0.69814 0.0
H321 H 0.56671 0.85462 0.8875 0.0
H322 H 0.54092 0.83244 0.83764 0.0
C323 C 0.44984 0.9154 0.669 0.0
C324 C 0.49974 0.87758 0.72851 0.0
H325 H 0.53766 0.79553 0.7742 0.0
C326 C 0.50575 0.92861 0.7443 0.0
C327 C 0.51112 0.82868 0.73977 0.0
C328 C 0.50483 0.77215 0.72482 0.0
C329 C 0.52308 0.93248 0.7705 0.0
C330 C 0.53505 0.88423 0.78074 0.0
C331 C 0.52874 0.83272 0.76569 0.0
C332 C 0.55333 0.88648 0.80858 0.0
C333 C 0.5283 0.98822 0.78719 0.0
C334 C 0.56948 0.92179 0.80839 0.0
C335 C 0.58431 0.93431 0.83697 0.0
C336 C 0.58345 0.91036 0.86577 0.0
C337 C 0.5682 0.87167 0.86542 0.0
C338 C 0.55332 0.85944 0.83697 0.0
H339 H 0.51525 0.01731 0.78109 0.0
H340 H 0.53356 0.98278 0.81355 0.0
H341 H 0.54062 0.00807 0.77968 0.0
H342 H 0.56982 0.9427 0.7866 0.0
H343 H 0.5956 0.96554 0.83691 0.0
H344 H 0.95538 0.4964 0.16528 0.0
H345 H 0.98005 0.52314 0.2157 0.0
H346 H 0.97418 0.69608 0.18635 0.0
H347 H 0.94956 0.66932 0.13615 0.0
H348 H 1.01484 0.64961 0.20366 0.0
H349 H 0.97627 0.6103 0.29621 0.0
H350 H 0.97192 0.55885 0.26488 0.0
H351 H 0.96299 0.62917 0.25547 0.0
C352 C 0.95883 0.54035 0.17009 0.0
C353 C 0.95026 0.58095 0.14689 0.0
C354 C 0.97294 0.55555 0.19883 0.0
C355 C 0.97887 0.61161 0.20472 0.0
C356 C 0.96971 0.65262 0.18226 0.0
H357 H 0.06131 0.67181 0.39202 0.0
H358 H 0.03637 0.69389 0.3414 0.0
C359 C 0.95545 0.63735 0.15362 0.0
C360 C 0.99601 0.62596 0.23281 0.0
H361 H 1.01183 0.61628 0.31394 0.0
C362 C 1.01418 0.64333 0.22788 0.0
C363 C 0.99498 0.61843 0.26423 0.0
C364 C 0.97548 0.60357 0.27075 0.0
C365 C 0.03167 0.65072 0.25368 0.0
C366 C 0.03096 0.63944 0.28505 0.0
C367 C 1.01249 0.62467 0.28992 0.0
C368 C 0.04919 0.63895 0.31322 0.0
C369 C 0.0507 0.67005 0.247 0.0
C370 C 0.06542 0.6032 0.31402 0.0
C371 C 0.08021 0.59233 0.34294 0.0
C372 C 0.07877 0.61647 0.37135 0.0
C373 C 0.06324 0.65457 0.37023 0.0
C374 C 0.04878 0.66651 0.34134 0.0
H375 H 0.04723 0.69557 0.22481 0.0
H376 H 0.0603 0.69512 0.26712 0.0
H377 H 0.05941 0.63297 0.24342 0.0
H378 H 0.06583 0.5802 0.29291 0.0
H379 H 0.0917 0.56137 0.34353 0.0
H380 H 0.0783 0.50809 0.84617 0.0
H381 H 0.05344 0.48548 0.79529 0.0
H382 H 0.06088 0.30962 0.81784 0.0
H383 H 0.08552 0.33237 0.86891 0.0
H384 H 0.05205 0.41812 0.74241 0.0
H385 H 1.00132 0.34036 0.81063 0.0
H386 H 0.02409 0.37881 0.82934 0.0
H387 H 0.02542 0.30659 0.81879 0.0
C388 C 0.07504 0.46451 0.83987 0.0
C389 C 0.08386 0.42194 0.86157 0.0
C390 C 0.06081 0.45165 0.81085 0.0
C391 C 0.05499 0.39596 0.80318 0.0
C392 C 0.0649 0.35297 0.82364 0.0
H393 H 0.96732 0.3461 0.61646 0.0
H394 H 0.99429 0.32334 0.66479 0.0
C395 C 0.07918 0.36595 0.85274 0.0
C396 C 0.03737 0.38427 0.77522 0.0
H397 H 0.98795 0.34443 0.75472 0.0
C398 C 0.03811 0.40119 0.74494 0.0
C399 C 0.01913 0.36307 0.77885 0.0
C400 C 0.01726 0.34649 0.81113 0.0
C401 C 0.02096 0.39904 0.71826 0.0
C402 C 1.00266 0.37808 0.72188 0.0
C403 C 1.00204 0.35984 0.75202 0.0
C404 C 0.98373 0.37952 0.69512 0.0
C405 C 0.02237 0.42204 0.68684 0.0
C406 C 0.96792 0.41491 0.69681 0.0
C407 C 0.95206 0.42644 0.66929 0.0
C408 C 0.95178 0.40226 0.63999 0.0
C409 C 0.96671 0.3634 0.63898 0.0
C410 C 0.98239 0.35135 0.66647 0.0
H411 H 0.03614 0.44777 0.68993 0.0
H412 H 0.02292 0.38679 0.67061 0.0
H413 H 1.00902 0.44815 0.67508 0.0
H414 H 0.96863 0.43693 0.71876 0.0
H415 H 0.94095 0.45759 0.67038 0.0
H416 H 0.41544 0.85441 0.06069 0.0
H417 H 0.42469 0.75533 0.06633 0.0
H418 H 0.36206 0.70979 0.04431 0.0
H419 H 0.35261 0.80828 0.03846 0.0
H420 H 0.38637 0.65888 0.09949 0.0
H421 H 0.41814 0.6333 0.99776 0.0
H422 H 0.42865 0.69007 0.0244 0.0
H423 H 0.40263 0.69225 1.00107 0.0
C424 C 0.40357 0.82343 0.05628 0.0
C425 C 0.38322 0.83954 0.04885 0.0
C426 C 0.40891 0.7667 0.05963 0.0
C427 C 0.39404 0.72518 0.05548 0.0
C428 C 0.37377 0.74112 0.04762 0.0
H429 H 0.39227 0.36155 0.07184 0.0
H430 H 0.38333 0.46087 0.06696 0.0
C431 C 0.36842 0.79755 0.0443 0.0
C432 C 0.39949 0.66518 0.06076 0.0
H433 H 0.42181 0.55673 0.03339 0.0
C434 C 0.39408 0.63644 0.085 0.0
C435 C 0.40951 0.63608 0.04179 0.0
C436 C 0.41494 0.66423 0.0146 0.0
C437 C 0.39871 0.57954 0.09114 0.0
C438 C 0.40873 0.55043 0.07218 0.0
C439 C 0.41414 0.57918 0.04793 0.0
C440 C 0.41405 0.49029 0.07728 0.0
C441 C 0.39322 0.55142 0.11829 0.0
C442 C 0.43425 0.47382 0.0846 0.0
C443 C 0.4394 0.4172 0.08742 0.0
C444 C 0.42448 0.37563 0.08297 0.0
C445 C 0.40422 0.39226 0.07621 0.0
C446 C 0.39907 0.44913 0.07329 0.0
H447 H 0.39026 0.58238 0.13531 0.0
H448 H 0.37934 0.52628 0.10846 0.0
H449 H 0.40539 0.52279 0.13162 0.0
H450 H 0.44604 0.50485 0.08774 0.0
H451 H 0.45514 0.40596 0.09269 0.0
H452 H 0.61615 0.85356 0.43721 0.0
H453 H 0.60653 0.7547 0.43082 0.0
H454 H 0.66806 0.70925 0.44046 0.0
H455 H 0.67797 0.80728 0.44776 0.0
H456 H 0.61146 0.67901 0.38331 0.0
H457 H 0.65307 0.60809 0.50571 0.0
H458 H 0.6478 0.68094 0.49576 0.0
H459 H 0.66821 0.64642 0.48603 0.0
C460 C 0.62774 0.82257 0.43869 0.0
C461 C 0.64794 0.83848 0.44354 0.0
C462 C 0.62216 0.7661 0.43469 0.0
C463 C 0.63665 0.7247 0.43564 0.0
C464 C 0.65672 0.74046 0.44025 0.0
H465 H 0.63781 0.36325 0.42107 0.0
H466 H 0.64585 0.46279 0.42085 0.0
C467 C 0.66231 0.79665 0.4442 0.0
C468 C 0.63086 0.66497 0.43105 0.0
H469 H 0.64013 0.5371 0.46713 0.0
C470 C 0.6176 0.64794 0.40167 0.0
C471 C 0.63899 0.62465 0.45503 0.0
C472 C 0.65267 0.64087 0.48753 0.0
C473 C 0.61255 0.59129 0.39539 0.0
C474 C 0.6208 0.55096 0.4193 0.0
C475 C 0.63399 0.5681 0.44872 0.0
C476 C 0.6154 0.49092 0.41501 0.0
C477 C 0.59876 0.5749 0.36303 0.0
C478 C 0.59555 0.47382 0.41133 0.0
C479 C 0.59087 0.41699 0.41127 0.0
C480 C 0.60594 0.37608 0.41491 0.0
C481 C 0.62572 0.39336 0.4175 0.0
C482 C 0.6304 0.45032 0.41767 0.0
H483 H 0.5981 0.60785 0.34483 0.0
H484 H 0.60373 0.53507 0.35468 0.0
H485 H 0.58331 0.5687 0.36483 0.0
H486 H 0.58382 0.50445 0.40985 0.0
H487 H 0.57551 0.40511 0.40932 0.0
H488 H 0.61553 0.63074 0.88117 0.0
H489 H 0.62148 0.52971 0.87887 0.0
H490 H 0.60706 0.50707 0.96739 0.0
H491 H 0.60081 0.60684 0.96961 0.0
H492 H 0.6479 0.46141 0.91803 0.0
H493 H 0.57174 0.38976 0.91348 0.0
H494 H 0.57716 0.46203 0.90725 0.0
H495 H 0.58148 0.43495 0.94717 0.0
C496 C 0.61371 0.60425 0.90019 0.0
C497 C 0.60761 0.62699 0.92554 0.0
C498 C 0.61697 0.54643 0.89872 0.0
C499 C 0.61416 0.51044 0.92249 0.0
C500 C 0.60861 0.53346 0.94814 0.0
H501 H 0.67107 0.20839 0.99905 0.0
H502 H 0.65984 0.3028 0.98194 0.0
C503 C 0.60519 0.59078 0.94948 0.0
C504 C 0.61798 0.44921 0.92183 0.0
H505 H 0.59864 0.32232 0.9338 0.0
C506 C 0.63698 0.43094 0.92088 0.0
C507 C 0.60361 0.40899 0.92469 0.0
C508 C 0.58229 0.42496 0.92282 0.0
C509 C 0.64247 0.37423 0.92502 0.0
C510 C 0.6288 0.3349 0.9312 0.0
C511 C 0.6093 0.35251 0.92979 0.0
C512 C 0.63501 0.27667 0.94163 0.0
C513 C 0.663 0.35724 0.92312 0.0
C514 C 0.62416 0.23012 0.92574 0.0
C515 C 0.63038 0.17553 0.93589 0.0
C516 C 0.64757 0.16675 0.96215 0.0
C517 C 0.65796 0.21357 0.97845 0.0
C518 C 0.65165 0.26773 0.96853 0.0
H519 H 0.66825 0.38581 0.9072 0.0
H520 H 0.674 0.35988 0.9473 0.0
H521 H 0.66295 0.31375 0.91415 0.0
H522 H 0.6111 0.23601 0.90514 0.0
H523 H 0.62213 0.14046 0.92261 0.0
H524 H 0.3724 0.17428 0.60472 0.0
H525 H 0.3818 0.27299 0.61071 0.0
H526 H 0.41218 0.25579 0.53841 0.0
H527 H 0.40239 0.15737 0.53146 0.0
H528 H 0.41968 0.32588 0.62658 0.0
H529 H 0.37198 0.38384 0.50496 0.0
H530 H 0.36956 0.31763 0.52334 0.0
H531 H 0.38959 0.32846 0.50574 0.0
C532 C 0.38112 0.19133 0.59007 0.0
C533 C 0.38661 0.15759 0.5676 0.0
C534 C 0.38654 0.24775 0.59366 0.0
C535 C 0.39743 0.27182 0.57471 0.0
C536 C 0.40351 0.2381 0.55295 0.0
H537 H 0.44144 0.59853 0.55003 0.0
H538 H 0.43258 0.49994 0.54933 0.0
C539 C 0.3981 0.18153 0.54932 0.0
C540 C 0.40198 0.33252 0.57724 0.0
H541 H 0.39365 0.45422 0.53453 0.0
C542 C 0.41394 0.35408 0.60653 0.0
C543 C 0.39428 0.36916 0.55111 0.0
C544 C 0.38048 0.34885 0.51958 0.0
C545 C 0.41895 0.41118 0.61008 0.0
C546 C 0.41153 0.44759 0.58376 0.0
C547 C 0.39933 0.42612 0.55464 0.0
C548 C 0.41706 0.50762 0.58527 0.0
C549 C 0.43262 0.43182 0.64162 0.0
C550 C 0.41118 0.54484 0.6057 0.0
C551 C 0.41629 0.60167 0.60629 0.0
C552 C 0.42729 0.62218 0.58629 0.0
C553 C 0.43308 0.58442 0.56592 0.0
C554 C 0.42797 0.52794 0.56535 0.0
H555 H 0.44029 0.39682 0.65719 0.0
H556 H 0.44421 0.46069 0.63778 0.0
H557 H 0.42356 0.45525 0.65442 0.0
H558 H 0.40253 0.53003 0.62101 0.0
H559 H 0.41182 0.62907 0.62267 0.0
H560 H 0.85538 0.30297 0.03932 0.0
H561 H 0.86646 0.2066 0.05027 0.0
H562 H 0.92836 0.26064 0.0796 0.0
H563 H 0.91752 0.35806 0.06933 0.0
H564 H 0.91863 0.16584 0.03519 0.0
H565 H 0.89062 0.13658 0.14049 0.0
H566 H 0.87254 0.16566 0.10594 0.0
H567 H 0.89476 0.20488 0.12585 0.0
C568 C 0.8714 0.29486 0.04825 0.0
C569 C 0.88548 0.33892 0.05331 0.0
C570 C 0.87767 0.2395 0.05457 0.0
C571 C 0.89819 0.22659 0.06622 0.0
C572 C 0.91242 0.2699 0.07075 0.0
H573 H 0.95814 0.90147 0.09777 0.0
H574 H 0.95094 0.00165 0.09591 0.0
C575 C 0.90615 0.32567 0.06456 0.0
C576 C 0.90455 0.16747 0.07282 0.0
H577 H 0.90011 0.05419 0.11794 0.0
C578 C 0.91482 0.1415 0.05352 0.0
C579 C 0.89938 0.13583 0.09658 0.0
C580 C 0.88886 0.16215 0.11863 0.0
C581 C 0.91949 0.08417 0.05661 0.0
C582 C 0.91418 0.0523 0.08022 0.0
C583 C 0.90416 0.07857 0.09986 0.0
C584 C 0.91866 0.9915 0.08452 0.0
C585 C 0.9294 0.05788 0.03372 0.0
C586 C 0.903 0.95237 0.08046 0.0
C587 C 0.9071 0.89482 0.08196 0.0
C588 C 0.92697 0.87551 0.08758 0.0
C589 C 0.94265 0.91496 0.09306 0.0
C590 C 0.93857 0.97227 0.09182 0.0
H591 H 0.9275 0.08398 0.01201 0.0
H592 H 0.94578 0.05351 0.04576 0.0
H593 H 0.92313 0.01562 0.02617 0.0
H594 H 0.88753 0.96632 0.07498 0.0
H595 H 0.89463 0.8657 0.07722 0.0
H596 H 0.17975 0.33716 0.41511 0.0
H597 H 0.17803 0.23503 0.41259 0.0
H598 H 0.12969 0.2372 0.45567 0.0
H599 H 0.13108 0.33924 0.45806 0.0
H600 H 0.16038 0.14989 0.47853 0.0
H601 H 0.12879 0.16071 0.34596 0.0
H602 H 0.15218 0.19674 0.36346 0.0
H603 H 0.12965 0.22078 0.37135 0.0
C604 C 0.1689 0.31593 0.42444 0.0
C605 C 0.15555 0.34652 0.43675 0.0
C606 C 0.16797 0.25762 0.42295 0.0
C607 C 0.15358 0.2289 0.43357 0.0
C608 C 0.14092 0.25886 0.4474 0.0
H609 H 0.0898 0.92563 0.39604 0.0
H610 H 0.10316 0.02062 0.39854 0.0
C611 C 0.14184 0.31725 0.44894 0.0
C612 C 0.15066 0.1681 0.42817 0.0
H613 H 0.13208 0.07139 0.36943 0.0
C614 C 0.15445 0.13245 0.45471 0.0
C615 C 0.1428 0.14592 0.39699 0.0
C616 C 0.13795 0.18286 0.36772 0.0
C617 C 0.15012 0.07505 0.45092 0.0
C618 C 0.14191 0.05309 0.41977 0.0
C619 C 0.13859 0.08851 0.3932 0.0
C620 C 0.13439 0.99504 0.41462 0.0
C621 C 0.15345 0.03873 0.48022 0.0
C622 C 0.1476 0.94929 0.42181 0.0
C623 C 0.13999 0.89478 0.42022 0.0
C624 C 0.11907 0.88559 0.41152 0.0
C625 C 0.10597 0.9315 0.40289 0.0
C626 C 0.11357 0.98571 0.40426 0.0
H627 H 0.15758 0.06363 0.50267 0.0
H628 H 0.13966 0.01419 0.47895 0.0
H629 H 0.16579 0.00863 0.48129 0.0
H630 H 0.16374 0.95588 0.42965 0.0
H631 H 0.15048 0.86036 0.42749 0.0
H632 H 0.07589 0.09658 0.90713 0.0
H633 H 0.08327 0.99652 0.90965 0.0
H634 H 0.14682 0.03252 0.93484 0.0
H635 H 0.13955 0.13309 0.93201 0.0
H636 H 0.13521 0.94449 0.89131 0.0
H637 H 0.10485 0.91417 0.99413 0.0
H638 H 0.08725 0.94479 0.95966 0.0
H639 H 0.10965 0.9826 0.98054 0.0
C640 C 0.09146 0.0833 0.91295 0.0
C641 C 0.10712 0.12296 0.91944 0.0
C642 C 0.09564 0.02602 0.91456 0.0
C643 C 0.1156 0.007 0.92321 0.0
C644 C 0.13129 0.04632 0.92832 0.0
H645 H 0.17859 0.69522 0.97025 0.0
H646 H 0.16762 0.79168 0.95933 0.0
C647 C 0.1271 0.10384 0.92648 0.0
C648 C 0.12009 0.94621 0.92772 0.0
H649 H 0.11447 0.83244 0.97177 0.0
C650 C 0.13068 0.92002 0.9089 0.0
C651 C 0.11412 0.9142 0.95065 0.0
C652 C 0.1035 0.94037 0.97263 0.0
C653 C 0.13542 0.86274 0.91233 0.0
C654 C 0.12962 0.83096 0.93546 0.0
C655 C 0.11877 0.85685 0.95393 0.0
C656 C 0.13591 0.77178 0.94229 0.0
C657 C 0.14652 0.83655 0.89106 0.0
C658 C 0.12164 0.72846 0.93724 0.0
C659 C 0.12786 0.67264 0.94347 0.0
C660 C 0.14849 0.65934 0.95522 0.0
C661 C 0.1626 0.7034 0.96089 0.0
C662 C 0.15638 0.7588 0.95458 0.0
H663 H 0.14509 0.86202 0.86927 0.0
H664 H 0.16275 0.83345 0.90442 0.0
H665 H 0.14083 0.79368 0.88371 0.0
H666 H 0.10572 0.73775 0.92792 0.0
H667 H 0.11649 0.64019 0.93827 0.0
H668 H 0.91712 0.64349 0.57469 0.0
H669 H 0.92815 0.74092 0.58346 0.0
H670 H 0.86741 0.7921 0.57555 0.0
H671 H 0.85612 0.69538 0.56643 0.0
H672 H 0.91441 0.83415 0.54304 0.0
H673 H 0.9003 0.86288 0.66032 0.0
H674 H 0.90158 0.79468 0.64322 0.0
H675 H 0.87903 0.83597 0.62973 0.0
C676 C 0.906 0.67535 0.57437 0.0
C677 C 0.88563 0.66134 0.56958 0.0
C678 C 0.91241 0.73104 0.57972 0.0
C679 C 0.89866 0.7735 0.58073 0.0
C680 C 0.87836 0.75979 0.57563 0.0
H681 H 0.89585 0.13342 0.58822 0.0
H682 H 0.88921 0.03304 0.58955 0.0
C683 C 0.87193 0.70438 0.57027 0.0
C684 C 0.90523 0.83262 0.58587 0.0
H685 H 0.90613 0.94587 0.63396 0.0
C686 C 0.91285 0.85847 0.5631 0.0
C687 C 0.90305 0.86419 0.61202 0.0
C688 C 0.89572 0.83795 0.6379 0.0
C689 C 0.91772 0.91562 0.56517 0.0
C690 C 0.91528 0.94742 0.59108 0.0
C691 C 0.90795 0.92137 0.61413 0.0
C692 C 0.91985 0.00809 0.59409 0.0
C693 C 0.92477 0.94189 0.53898 0.0
C694 C 0.93943 0.02725 0.59746 0.0
C695 C 0.94329 0.0845 0.59679 0.0
C696 C 0.9277 0.1238 0.59314 0.0
C697 C 0.90829 0.10453 0.59155 0.0
C698 C 0.90443 0.0471 0.59208 0.0
H699 H 0.92124 0.91523 0.51722 0.0
H700 H 0.91774 0.98359 0.53229 0.0
H701 H 0.94134 0.94765 0.54762 0.0
H702 H 0.95163 0.99783 0.59972 0.0
H703 H 0.95843 0.09798 0.59834 0.0
H704 H 0.35301 0.22624 0.07691 0.0
H705 H 0.31794 0.25678 0.06291 0.0
H706 H 0.30581 0.1733 0.97187 0.0
H707 H 0.34083 0.14161 0.98588 0.0
H708 H 0.29454 0.32089 0.01358 0.0
H709 H 0.26301 0.1064 0.00744 0.0
H710 H 0.28952 0.12077 0.02432 0.0
H711 H 0.27852 0.11753 0.98167 0.0
C712 C 0.34296 0.2145 0.0538 0.0
C713 C 0.34985 0.18101 0.03265 0.0
C714 C 0.32285 0.23206 0.04583 0.0
C715 C 0.30904 0.21644 0.01661 0.0
C716 C 0.316 0.18482 0.9949 0.0
H717 H 0.18107 0.2754 0.92801 0.0
H718 H 0.21618 0.24535 0.94179 0.0
C719 C 0.33614 0.16716 1.00284 0.0
C720 C 0.28741 0.23305 0.00909 0.0
H721 H 0.23954 0.18052 0.99128 0.0
C722 C 0.28253 0.29017 0.00882 0.0
C723 C 0.27166 0.19304 1.00293 0.0
C724 C 0.27588 0.13099 0.00436 0.0
C725 C 0.26242 0.30836 1.00195 0.0
C726 C 0.24668 0.26835 0.99577 0.0
C727 C 0.25156 0.21124 0.99604 0.0
C728 C 0.22505 0.28493 0.9883 0.0
C729 C 0.25819 0.3704 1.0006 0.0
C730 C 0.21807 0.31603 0.01018 0.0
C731 C 0.1979 0.33335 1.00239 0.0
C732 C 0.18419 0.31974 0.97255 0.0
C733 C 0.19112 0.28694 0.95117 0.0
C734 C 0.21125 0.26965 0.959 0.0
H735 H 0.27108 0.39507 0.99767 0.0
H736 H 0.24458 0.38065 0.98059 0.0
H737 H 0.25546 0.38369 0.02326 0.0
H738 H 0.22827 0.32731 0.03325 0.0
H739 H 0.19318 0.35841 0.01952 0.0
H740 H 0.67898 0.23121 0.43472 0.0
H741 H 0.71392 0.26274 0.44835 0.0
H742 H 0.72835 0.16384 0.53449 0.0
H743 H 0.69343 0.13122 0.52084 0.0
H744 H 0.73836 0.31944 0.50064 0.0
H745 H 0.76938 0.10821 0.49129 0.0
H746 H 0.74279 0.12336 0.47684 0.0
H747 H 0.75473 0.11265 0.51883 0.0
C748 C 0.6895 0.2163 0.45672 0.0
C749 C 0.6833 0.17822 0.47654 0.0
C750 C 0.70953 0.23443 0.46445 0.0
C751 C 0.72392 0.21481 0.4921 0.0
C752 C 0.71766 0.17858 0.51263 0.0
H753 H 0.85266 0.26945 0.57479 0.0
H754 H 0.81774 0.23788 0.56181 0.0
C755 C 0.6976 0.16037 0.50492 0.0
C756 C 0.74544 0.23201 0.49912 0.0
H757 H 0.79302 0.18116 0.50991 0.0
C758 C 0.7503 0.28921 0.50258 0.0
C759 C 0.76107 0.19261 0.50159 0.0
C760 C 0.75679 0.13081 0.49667 0.0
C761 C 0.7703 0.30798 0.509 0.0
C762 C 0.78593 0.2686 0.51142 0.0
C763 C 0.78108 0.21139 0.50801 0.0
C764 C 0.80742 0.28586 0.51812 0.0
C765 C 0.77458 0.36979 0.51393 0.0
C766 C 0.8135 0.32213 0.4974 0.0
C767 C 0.83354 0.34037 0.50475 0.0
C768 C 0.84801 0.32247 0.53292 0.0
C769 C 0.842 0.28437 0.55294 0.0
C770 C 0.82198 0.26622 0.54557 0.0
H771 H 0.76205 0.39227 0.51957 0.0
H772 H 0.78866 0.37726 0.53358 0.0
H773 H 0.77645 0.38806 0.49167 0.0
H774 H 0.80268 0.33686 0.47567 0.0
H775 H 0.83755 0.36952 0.48868 0.0
H776 H 0.68184 0.77913 0.92938 0.0
H777 H 0.71667 0.7466 0.94351 0.0
H778 H 0.72975 0.83449 0.03333 0.0
H779 H 0.69481 0.86681 0.0196 0.0
H780 H 0.75138 0.81036 0.95585 0.0
H781 H 0.75293 0.6796 0.06129 0.0
H782 H 0.72974 0.70367 0.03339 0.0
H783 H 0.74454 0.75013 0.06358 0.0
C784 C 0.69201 0.79117 0.95234 0.0
C785 C 0.68536 0.82561 0.97336 0.0
C786 C 0.712 0.77258 0.96033 0.0
C787 C 0.72587 0.78753 0.98962 0.0
C788 C 0.71929 0.82145 0.01084 0.0
H789 H 0.85356 0.72562 0.07865 0.0
H790 H 0.81881 0.75876 0.06416 0.0
C791 C 0.69927 0.84012 1.00287 0.0
C792 C 0.74733 0.76928 0.9973 0.0
H793 H 0.78425 0.6958 0.05146 0.0
C794 C 0.75854 0.78509 0.97669 0.0
C795 C 0.75674 0.73636 0.02451 0.0
C796 C 0.74536 0.71594 0.04685 0.0
C797 C 0.7789 0.76983 0.98281 0.0
C798 C 0.78832 0.73691 0.01002 0.0
C799 C 0.7771 0.72108 0.03062 0.0
C800 C 0.80979 0.71871 0.01778 0.0
C801 C 0.79029 0.79035 0.9605 0.0
C802 C 0.81648 0.68517 0.99652 0.0
C803 C 0.83647 0.66619 0.00469 0.0
C804 C 0.85023 0.67997 0.03445 0.0
C805 C 0.8435 0.71413 0.05549 0.0
C806 C 0.82355 0.73307 0.04729 0.0
H807 H 0.78275 0.82685 0.94618 0.0
H808 H 0.80593 0.80242 0.97395 0.0
H809 H 0.79104 0.7563 0.94365 0.0
H810 H 0.8061 0.67249 0.97387 0.0
H811 H 0.84099 0.63954 0.98799 0.0
H812 H 0.18156 0.72901 0.43714 0.0
H813 H 0.21663 0.75903 0.45102 0.0
H814 H 0.23095 0.6535 0.53459 0.0
H815 H 0.19585 0.62224 0.52059 0.0
H816 H 0.24128 0.81182 0.50383 0.0
H817 H 0.27171 0.6015 0.49032 0.0
H818 H 0.24515 0.61712 0.47656 0.0
H819 H 0.25732 0.60423 0.51828 0.0
C820 C 0.19208 0.71223 0.45861 0.0
C821 C 0.18579 0.67275 0.4776 0.0
C822 C 0.2122 0.72952 0.46649 0.0
C823 C 0.22659 0.7077 0.49347 0.0
C824 C 0.22026 0.66992 0.5132 0.0
H825 H 0.3556 0.76233 0.57522 0.0
H826 H 0.32079 0.72975 0.56263 0.0
C827 C 0.2001 0.65248 0.50531 0.0
C828 C 0.24815 0.72456 0.50069 0.0
H829 H 0.29555 0.67367 0.50985 0.0
C830 C 0.25313 0.7816 0.50507 0.0
C831 C 0.26367 0.68519 0.50227 0.0
C832 C 0.25924 0.62364 0.49633 0.0
C833 C 0.27314 0.80022 0.51141 0.0
C834 C 0.28864 0.76089 0.51286 0.0
C835 C 0.28369 0.70383 0.50867 0.0
C836 C 0.31008 0.77818 0.51917 0.0
C837 C 0.27756 0.86181 0.51718 0.0
C838 C 0.31588 0.81492 0.4984 0.0
C839 C 0.33583 0.83366 0.50548 0.0
C840 C 0.35049 0.81586 0.53348 0.0
C841 C 0.34478 0.77716 0.5535 0.0
C842 C 0.32483 0.75845 0.54637 0.0
H843 H 0.26515 0.88398 0.52335 0.0
H844 H 0.29174 0.86844 0.53678 0.0
H845 H 0.27935 0.88109 0.49512 0.0
H846 H 0.30488 0.82976 0.47687 0.0
H847 H 0.33962 0.86327 0.48942 0.0
H848 H 0.36039 0.04234 0.90169 0.0
H849 H 0.36577 0.01223 0.85145 0.0
H850 H 0.42697 0.96715 0.90172 0.0
H851 H 0.42181 0.99761 0.95232 0.0
H852 H 0.39993 0.05355 0.82583 0.0
H853 H 0.39818 0.82387 0.84725 0.0
H854 H 0.38622 0.8733 0.86708 0.0
H855 H 0.41312 0.8681 0.87875 0.0
C856 C 0.37502 0.0261 0.90215 0.0
C857 C 0.39065 0.02232 0.93105 0.0
C858 C 0.37806 0.00894 0.87339 0.0
C859 C 0.39669 0.9871 0.87296 0.0
C860 C 0.41242 0.9835 0.90165 0.0
H861 H 0.42586 0.84259 0.70699 0.0
H862 H 0.42735 0.86936 0.76178 0.0
C863 C 0.40946 0.00112 0.93048 0.0
C864 C 0.39954 0.96882 0.84221 0.0
H865 H 0.40116 0.85275 0.79744 0.0
C866 C 0.40035 0.00969 0.81965 0.0
C867 C 0.40028 0.9116 0.83444 0.0
C868 C 0.39934 0.86635 0.85798 0.0
C869 C 0.40156 0.99484 0.78923 0.0
C870 C 0.40133 0.93752 0.7808 0.0
C871 C 0.4012 0.89662 0.80381 0.0
C872 C 0.40023 0.91951 0.74779 0.0
C873 C 0.40316 0.04082 0.76646 0.0
C874 C 0.38421 0.93746 0.72181 0.0
C875 C 0.3834 0.92261 0.69059 0.0
C876 C 0.39844 0.88876 0.68461 0.0
C877 C 0.41407 0.86889 0.71075 0.0
C878 C 0.41496 0.88419 0.74207 0.0
H879 H 0.40965 0.07959 0.77951 0.0
H880 H 0.41264 0.02778 0.75123 0.0
H881 H 0.38789 0.05109 0.75068 0.0
H882 H 0.37235 0.96337 0.72566 0.0
H883 H 0.37103 0.9382 0.67109 0.0
H884 H 0.63887 0.11451 0.59791 0.0
H885 H 0.63552 0.07713 0.64806 0.0
H886 H 0.61899 0.91615 0.60348 0.0
H887 H 0.62266 0.95296 0.55327 0.0
H888 H 0.60313 0.03061 0.66282 0.0
H889 H 0.66523 0.87565 0.68192 0.0
H890 H 0.66141 0.93055 0.65243 0.0
H891 H 0.64577 0.86916 0.64454 0.0
C892 C 0.63453 0.07112 0.59871 0.0
C893 C 0.63126 0.03658 0.57163 0.0
C894 C 0.63259 0.04982 0.62743 0.0
C895 C 0.62734 0.99355 0.62975 0.0
C896 C 0.62352 0.95932 0.60251 0.0
H897 H 0.61457 0.82176 0.80186 0.0
H898 H 0.61162 0.84301 0.74564 0.0
C899 C 0.62554 0.98053 0.57377 0.0
C900 C 0.62602 0.97118 0.66081 0.0
H901 H 0.64742 0.87746 0.72022 0.0
C902 C 0.61272 0.99688 0.67524 0.0
C903 C 0.63853 0.92704 0.67705 0.0
C904 C 0.65367 0.8992 0.66341 0.0
C905 C 0.61186 0.98034 0.70562 0.0
C906 C 0.62469 0.93726 0.72209 0.0
C907 C 0.63753 0.91028 0.70736 0.0
C908 C 0.62634 0.92355 0.75581 0.0
C909 C 0.59746 0.00958 0.72023 0.0
C910 C 0.63577 0.96148 0.78 0.0
C911 C 0.63767 0.94931 0.81195 0.0
C912 C 0.63009 0.89893 0.82045 0.0
C913 C 0.62063 0.86079 0.79613 0.0
C914 C 0.61891 0.87287 0.76404 0.0
H915 H 0.58575 0.03339 0.70212 0.0
H916 H 0.58997 0.9789 0.73204 0.0
H917 H 0.60599 0.03939 0.73876 0.0
H918 H 0.64174 0.00061 0.77413 0.0
H919 H 0.64496 0.9798 0.82996 0.0
H920 H 0.60557 0.15037 0.30159 0.0
H921 H 0.60265 0.12025 0.24674 0.0
H922 H 0.6546 0.01396 0.2824 0.0
H923 H 0.65733 0.04264 0.33695 0.0
H924 H 0.62919 0.12789 0.21083 0.0
H925 H 0.61371 0.90529 0.22887 0.0
H926 H 0.61236 0.95913 0.25711 0.0
H927 H 0.63626 0.92913 0.25783 0.0
C928 C 0.61641 0.12075 0.29768 0.0
C929 C 0.63162 0.09864 0.32367 0.0
C930 C 0.61468 0.10344 0.26635 0.0
C931 C 0.62812 0.06381 0.26051 0.0
C932 C 0.64369 0.04328 0.28636 0.0
H933 H 0.66691 0.92382 0.11043 0.0
H934 H 0.66042 0.95368 0.1599 0.0
C935 C 0.64533 0.06012 0.31756 0.0
C936 C 0.62637 0.04441 0.22751 0.0
H937 H 0.62498 0.92593 0.18309 0.0
C938 C 0.6279 0.08385 0.20455 0.0
C939 C 0.62454 0.9869 0.21924 0.0
C940 C 0.6214 0.94276 0.24197 0.0
C941 C 0.6288 0.06702 0.1742 0.0
C942 C 0.62804 0.00935 0.16663 0.0
C943 C 0.6257 0.9701 0.18908 0.0
C944 C 0.63111 0.98878 0.13643 0.0
C945 C 0.63147 0.1107 0.1509 0.0
C946 C 0.61655 0.99752 0.10686 0.0
C947 C 0.62015 0.98009 0.07846 0.0
C948 C 0.63844 0.95391 0.0792 0.0
C949 C 0.65272 0.94399 0.10898 0.0
C950 C 0.64904 0.96101 0.13729 0.0
H951 H 0.63425 0.15302 0.16185 0.0
H952 H 0.64425 0.09936 0.14173 0.0
H953 H 0.61768 0.1125 0.13015 0.0
H954 H 0.60252 0.01839 0.10574 0.0
H955 H 0.60883 0.98846 0.05594 0.0
H956 H 0.4113 0.03547 0.45295 0.0
H957 H 0.41311 0.07159 0.40141 0.0
H958 H 0.38324 0.9232 0.35442 0.0
H959 H 0.38124 0.88697 0.40559 0.0
H960 H 0.43103 0.02243 0.35669 0.0
H961 H 0.34875 0.05244 0.30391 0.0
H962 H 0.3604 0.04309 0.3463 0.0
H963 H 0.35577 0.98369 0.31991 0.0
C964 C 0.40508 0.01056 0.43163 0.0
C965 C 0.39594 0.95852 0.43337 0.0
C966 C 0.40616 0.03125 0.40222 0.0
C967 C 0.39797 0.00057 0.374 0.0
C968 C 0.38928 0.94811 0.37579 0.0
H969 H 0.38415 0.02028 0.17345 0.0
H970 H 0.38418 0.99893 0.22787 0.0
C971 C 0.38826 0.92731 0.40514 0.0
C972 C 0.39865 0.02283 0.34263 0.0
H973 H 0.36871 0.05869 0.26824 0.0
C974 C 0.41743 0.03094 0.33741 0.0
C975 C 0.38088 0.03404 0.31756 0.0
C976 C 0.3603 0.02841 0.32218 0.0
C977 C 0.41891 0.04763 0.30735 0.0
C978 C 0.40113 0.05766 0.28202 0.0
C979 C 0.38236 0.05094 0.28758 0.0
C980 C 0.40152 0.07174 0.24905 0.0
C981 C 0.43946 0.05223 0.30265 0.0
C982 C 0.4112 0.12014 0.24264 0.0
C983 C 0.41129 0.13248 0.21131 0.0
C984 C 0.40155 0.09687 0.18583 0.0
C985 C 0.39179 0.04876 0.19241 0.0
C986 C 0.39175 0.03645 0.22359 0.0
H987 H 0.45119 0.03083 0.32197 0.0
H988 H 0.43948 0.03402 0.27932 0.0
H989 H 0.4436 0.09709 0.30282 0.0
H990 H 0.41855 0.14859 0.26178 0.0
H991 H 0.41898 0.16982 0.20708 0.0
H992 H 0.87375 0.44872 0.67276 0.0
H993 H 0.87515 0.47008 0.72794 0.0
H994 H 0.92817 0.36744 0.76203 0.0
H995 H 0.92685 0.34541 0.70656 0.0
H996 H 0.87595 0.38497 0.77909 0.0
H997 H 0.9423 0.52771 0.80629 0.0
H998 H 0.92711 0.51399 0.76576 0.0
H999 H 0.94384 0.46119 0.78773 0.0
C1000 C 0.88571 0.4305 0.69193 0.0
C1001 C 0.90016 0.39522 0.68525 0.0
C1002 C 0.88647 0.44279 0.72346 0.0
C1003 C 0.90183 0.42069 0.74901 0.0
C1004 C 0.91628 0.38524 0.74258 0.0
H1005 H 0.9226 0.49897 0.9528 0.0
H1006 H 0.92694 0.46478 0.90237 0.0
C1007 C 0.91542 0.37243 0.71092 0.0
C1008 C 0.9023 0.43456 0.78225 0.0
H1009 H 0.92602 0.51695 0.84608 0.0
C1010 C 0.88699 0.41344 0.79388 0.0
C1011 C 0.91682 0.47131 0.80153 0.0
C1012 C 0.93346 0.49527 0.78986 0.0
C1013 C 0.88557 0.42886 0.82411 0.0
C1014 C 0.8995 0.46785 0.84283 0.0
C1015 C 0.91526 0.48745 0.83164 0.0
C1016 C 0.89734 0.49048 0.87333 0.0
C1017 C 0.86917 0.40298 0.83568 0.0
C1018 C 0.87951 0.51776 0.87368 0.0
C1019 C 0.87694 0.53698 0.90237 0.0
C1020 C 0.89227 0.53009 0.93139 0.0
C1021 C 0.91046 0.50476 0.93089 0.0
C1022 C 0.91297 0.48516 0.90209 0.0
H1023 H 0.86428 0.36199 0.82396 0.0
H1024 H 0.87422 0.39671 0.86199 0.0
H1025 H 0.85589 0.43113 0.82961 0.0
H1026 H 0.86747 0.5239 0.85169 0.0
H1027 H 0.86284 0.55686 0.9018 0.0
H1028 H 0.12951 0.60586 0.58939 0.0
H1029 H 0.12577 0.5674 0.63899 0.0
H1030 H 0.12608 0.40011 0.60218 0.0
H1031 H 0.13014 0.43834 0.55243 0.0
H1032 H 0.09592 0.49963 0.64999 0.0
H1033 H 0.17038 0.393 0.68769 0.0
H1034 H 0.16397 0.44404 0.6559 0.0
H1035 H 0.15419 0.37407 0.64888 0.0
C1036 C 0.12884 0.56084 0.59178 0.0
C1037 C 0.13037 0.52519 0.56701 0.0
C1038 C 0.12663 0.53891 0.62017 0.0
C1039 C 0.12594 0.48083 0.62456 0.0
C1040 C 0.127 0.44503 0.59963 0.0
H1041 H 0.12096 0.31181 0.80222 0.0
H1042 H 0.1184 0.3275 0.74556 0.0
C1043 C 0.12925 0.46697 0.57115 0.0
C1044 C 0.12431 0.45847 0.65547 0.0
H1045 H 0.15015 0.38543 0.72218 0.0
C1046 C 0.1077 0.47426 0.66563 0.0
C1047 C 0.13965 0.42514 0.67589 0.0
C1048 C 0.15815 0.4083 0.66678 0.0
C1049 C 0.10626 0.45879 0.69588 0.0
C1050 C 0.12193 0.42722 0.71666 0.0
C1051 C 0.13814 0.40953 0.70611 0.0
C1052 C 0.12272 0.41707 0.75048 0.0
C1053 C 0.08815 0.47697 0.70567 0.0
C1054 C 0.12615 0.4621 0.77195 0.0
C1055 C 0.12787 0.45326 0.80419 0.0
C1056 C 0.12611 0.39911 0.81573 0.0
C1057 C 0.12243 0.35398 0.7941 0.0
C1058 C 0.12095 0.36285 0.76176 0.0
H1059 H 0.07536 0.48901 0.68469 0.0
H1060 H 0.08314 0.44306 0.71894 0.0
H1061 H 0.09225 0.51378 0.72176 0.0
H1062 H 0.12778 0.50418 0.76381 0.0
H1063 H 0.13057 0.48906 0.82008 0.0
H1064 H 0.10637 0.63411 0.30391 0.0
H1065 H 0.10417 0.60048 0.25004 0.0
H1066 H 0.16852 0.57679 0.27848 0.0
H1067 H 0.17083 0.60922 0.33231 0.0
H1068 H 0.12238 0.63971 0.20478 0.0
H1069 H 0.1473 0.42368 0.24228 0.0
H1070 H 0.1394 0.472 0.26794 0.0
H1071 H 0.16446 0.47586 0.26418 0.0
C1072 C 0.12005 0.62164 0.29872 0.0
C1073 C 0.13876 0.62385 0.32259 0.0
C1074 C 0.11876 0.60252 0.26788 0.0
C1075 C 0.13613 0.58497 0.2604 0.0
C1076 C 0.15486 0.5888 0.2839 0.0
H1077 H 0.17522 0.47418 0.10313 0.0
H1078 H 0.17041 0.5033 0.15383 0.0
C1079 C 0.15616 0.60782 0.31465 0.0
C1080 C 0.13489 0.563 0.22806 0.0
H1081 H 0.14777 0.45068 0.18988 0.0
C1082 C 0.12767 0.59813 0.2014 0.0
C1083 C 0.14167 0.50857 0.22366 0.0
C1084 C 0.14846 0.46761 0.25098 0.0
C1085 C 0.12803 0.58129 0.17074 0.0
C1086 C 0.13555 0.52765 0.16661 0.0
C1087 C 0.14212 0.49189 0.1931 0.0
C1088 C 0.13798 0.50908 0.13552 0.0
C1089 C 0.12116 0.62188 0.14326 0.0
C1090 C 0.12128 0.5018 0.10838 0.0
C1091 C 0.12398 0.48496 0.0792 0.0
C1092 C 0.14343 0.47505 0.0767 0.0
C1093 C 0.16003 0.48157 0.10411 0.0
C1094 C 0.15732 0.49819 0.13317 0.0
H1095 H 0.11943 0.66503 0.15155 0.0
H1096 H 0.13201 0.62282 0.12903 0.0
H1097 H 0.10637 0.60812 0.12725 0.0
H1098 H 0.10618 0.50905 0.10976 0.0
H1099 H 0.11085 0.48024 0.05858 0.0
H1100 H 0.86635 0.6421 0.18503 0.0
H1101 H 0.86861 0.61269 0.23948 0.0
H1102 H 0.93209 0.58167 0.25813 0.0
H1103 H 0.93017 0.6133 0.20402 0.0
H1104 H 0.8789 0.51174 0.2659 0.0
H1105 H 0.93202 0.66977 0.33675 0.0
H1106 H 0.91997 0.67744 0.29438 0.0
H1107 H 0.94159 0.63277 0.30864 0.0
C1108 C 0.8809 0.63003 0.20089 0.0
C1109 C 0.89811 0.63054 0.19025 0.0
C1110 C 0.88215 0.61305 0.23202 0.0
C1111 C 0.90061 0.59584 0.25317 0.0
C1112 C 0.91786 0.59652 0.24264 0.0
H1113 H 0.90996 0.38682 0.42083 0.0
H1114 H 0.91106 0.42375 0.36925 0.0
C1115 C 0.91669 0.61431 0.21162 0.0
C1116 C 0.90149 0.57425 0.2855 0.0
H1117 H 0.92448 0.59236 0.3655 0.0
C1118 C 0.88883 0.52953 0.28767 0.0
C1119 C 0.91434 0.59765 0.31398 0.0
C1120 C 0.92762 0.6474 0.31345 0.0
C1121 C 0.8887 0.50743 0.31736 0.0
C1122 C 0.90193 0.52981 0.3458 0.0
C1123 C 0.9145 0.57482 0.34371 0.0
C1124 C 0.9025 0.508 0.37794 0.0
C1125 C 0.87404 0.46113 0.31796 0.0
C1126 C 0.8981 0.54348 0.40058 0.0
C1127 C 0.89764 0.5226 0.43025 0.0
C1128 C 0.90159 0.46571 0.43793 0.0
C1129 C 0.90659 0.43065 0.41558 0.0
C1130 C 0.90714 0.45165 0.38598 0.0
H1131 H 0.8615 0.45921 0.29531 0.0
H1132 H 0.88203 0.42037 0.32107 0.0
H1133 H 0.86756 0.46669 0.33812 0.0
H1134 H 0.8946 0.58718 0.39502 0.0
H1135 H 0.89386 0.55088 0.44695 0.0
H1136 H 0.44079 0.09435 0.01818 0.0
H1137 H 0.46833 0.08602 0.99412 0.0
H1138 H 0.48247 0.92224 0.03608 0.0
H1139 H 0.45495 0.93041 0.05993 0.0
H1140 H 0.50753 0.07666 0.03605 0.0
H1141 H 0.49181 0.90199 0.9488 0.0
H1142 H 0.47219 0.93704 0.96086 0.0
H1143 H 0.48751 0.88465 0.98617 0.0
C1144 C 0.44897 0.0552 0.02062 0.0
C1145 C 0.44558 0.0127 0.04064 0.0
C1146 C 0.46496 0.05087 0.00732 0.0
C1147 C 0.47759 0.00365 0.01344 0.0
C1148 C 0.47285 0.95879 0.03065 0.0
H1149 H 0.59234 0.9109 0.98793 0.0
H1150 H 0.56458 0.92163 0.01116 0.0
C1151 C 0.45698 0.96327 0.04409 0.0
C1152 C 0.49723 0.00447 0.00618 0.0
H1153 H 0.52595 0.93239 0.96821 0.0
C1154 C 0.51149 0.04545 0.02093 0.0
C1155 C 0.50251 0.96335 0.98685 0.0
C1156 C 0.48765 0.91954 0.96951 0.0
C1157 C 0.53096 0.0458 0.01734 0.0
C1158 C 0.53627 0.00451 0.99814 0.0
C1159 C 0.52198 0.9637 0.98326 0.0
C1160 C 0.55613 0.00425 0.99158 0.0
C1161 C 0.54584 0.08954 0.03471 0.0
C1162 C 0.56144 0.04848 0.97453 0.0
C1163 C 0.57756 0.04274 0.96171 0.0
C1164 C 0.58865 0.9927 0.96567 0.0
C1165 C 0.58458 0.95072 0.9854 0.0
C1166 C 0.5684 0.95637 0.99815 0.0
H1167 H 0.54149 0.10794 0.05504 0.0
H1168 H 0.56122 0.07162 0.04391 0.0
H1169 H 0.54634 0.12386 0.01788 0.0
H1170 H 0.55207 0.08548 0.9687 0.0
H1171 H 0.58 0.07504 0.94586 0.0
H1172 H 0.57754 0.92955 0.4442 0.0
H1173 H 0.54966 0.9193 0.46719 0.0
H1174 H 0.56559 0.07666 0.51634 0.0
H1175 H 0.59336 0.0873 0.49301 0.0
H1176 H 0.54108 0.92617 0.52779 0.0
H1177 H 0.51078 0.10573 0.44712 0.0
H1178 H 0.5327 0.06686 0.4454 0.0
H1179 H 0.53466 0.11745 0.47654 0.0
C1180 C 0.57583 0.96028 0.46144 0.0
C1181 C 0.58763 0.00911 0.46688 0.0
C1182 C 0.55971 0.95478 0.47422 0.0
C1183 C 0.55516 0.99811 0.49259 0.0
C1184 C 0.56862 0.04325 0.50167 0.0
H1185 H 0.45429 0.06935 0.56091 0.0
H1186 H 0.48183 0.07861 0.53712 0.0
C1187 C 0.5848 0.0487 0.48891 0.0
C1188 C 0.53507 -0.00038 0.49814 0.0
H1189 H 0.49026 0.07046 0.47714 0.0
C1190 C 0.52996 0.95766 0.51675 0.0
C1191 C 0.52049 0.04042 0.48332 0.0
C1192 C 0.52477 0.08497 0.46174 0.0
C1193 C 0.51085 0.95618 0.52162 0.0
C1194 C 0.49626 0.99701 0.50681 0.0
C1195 C 0.50136 0.03892 0.48815 0.0
C1196 C 0.47624 0.99894 0.51263 0.0
C1197 C 0.50661 0.91179 0.54333 0.0
C1198 C 0.46278 0.95368 0.50421 0.0
C1199 C 0.44678 0.9488 0.51743 0.0
C1200 C 0.44417 0.98905 0.53929 0.0
C1201 C 0.45586 0.03806 0.54387 0.0
C1202 C 0.4718 0.04298 0.53064 0.0
H1203 H 0.52062 0.89111 0.55795 0.0
H1204 H 0.49871 0.93 0.55968 0.0
H1205 H 0.49672 0.8792 0.52863 0.0
H1206 H 0.46569 0.91978 0.48974 0.0
H1207 H 0.43824 0.91016 0.51388 0.0
H1208 H 0.95562 0.42768 0.06495 0.0
H1209 H 0.98346 0.4183 0.04173 0.0
H1210 H 0.96857 0.57888 0.996 0.0
H1211 H 0.9409 0.58877 0.01963 0.0
H1212 H 0.99097 0.4265 0.98095 0.0
H1213 H 0.02448 0.60265 0.06223 0.0
H1214 H 1.0024 0.56546 0.06473 0.0
H1215 H 1.00038 0.61684 0.03398 0.0
C1216 C 0.95764 0.45963 0.04859 0.0
C1217 C 0.94601 0.50876 0.04397 0.0
C1218 C 0.97372 0.45455 0.03563 0.0
C1219 C 0.97848 0.49867 0.01797 0.0
C1220 C 0.9654 0.54482 0.01012 0.0
H1221 H 0.07865 0.56916 0.94621 0.0
H1222 H 0.05095 0.57703 0.96985 0.0
C1223 C 0.94928 0.54988 0.02307 0.0
C1224 C 0.99825 0.49909 0.0112 0.0
H1225 H 0.04356 0.5674 0.02986 0.0
C1226 C 1.00247 0.45723 0.99164 0.0
C1227 C 1.01336 0.53893 0.02548 0.0
C1228 C 1.01009 0.58329 0.04801 0.0
C1229 C 0.02117 0.45495 0.98531 0.0
C1230 C 0.03628 0.49483 0.99958 0.0
C1231 C 0.03206 0.53662 0.01919 0.0
C1232 C 0.05598 0.49573 0.99254 0.0
C1233 C 0.02439 0.41073 0.96267 0.0
C1234 C 0.06906 0.4495 0.9997 0.0
C1235 C 0.08509 0.44528 0.9865 0.0
C1236 C 0.08828 0.48734 0.96605 0.0
C1237 C 0.07668 0.53646 0.9622 0.0
C1238 C 0.06068 0.54068 0.97538 0.0
H1239 H 1.00998 0.39148 0.94844 0.0
H1240 H 0.03207 0.42865 0.94595 0.0
H1241 H 0.03408 0.37706 0.97661 0.0
H1242 H 0.06597 0.41484 0.01349 0.0
H1243 H 0.09348 0.40644 0.98938 0.0
H1244 H 0.09154 0.60767 0.49707 0.0
H1245 H 0.06451 0.59404 0.52166 0.0
H1246 H 0.05115 0.43336 0.47539 0.0
H1247 H 0.0782 0.44695 0.45105 0.0
H1248 H 0.02605 0.58629 0.4771 0.0
H1249 H 0.03951 0.40631 0.5607 0.0
H1250 H 0.05972 0.44316 0.5512 0.0
H1251 H 0.04511 0.39201 0.52394 0.0
C1252 C 0.08383 0.5677 0.49411 0.0
C1253 C 0.08713 0.52795 0.47255 0.0
C1254 C 0.06809 0.56041 0.50765 0.0
C1255 C 0.05566 0.51291 0.50014 0.0
C1256 C 0.06064 0.47005 0.48187 0.0
H1257 H 0.93992 0.41291 0.51705 0.0
H1258 H 0.96771 0.42753 0.49435 0.0
C1259 C 0.07629 0.47753 0.46822 0.0
C1260 C 0.03565 0.51261 0.506 0.0
H1261 H 1.00549 0.43692 0.5396 0.0
C1262 C 0.02161 0.55397 0.49107 0.0
C1263 C 0.02977 0.46999 0.52375 0.0
C1264 C 0.04436 0.42559 0.54106 0.0
C1265 C 1.00177 0.5533 0.493 0.0
C1266 C 0.99586 0.51053 0.51063 0.0
C1267 C 1.00994 0.46934 0.52569 0.0
C1268 C 0.97562 0.50925 0.51566 0.0
C1269 C 0.98719 0.59763 0.47557 0.0
C1270 C 0.96987 0.55206 0.53314 0.0
C1271 C 0.95368 0.54416 0.54554 0.0
C1272 C 0.94311 0.49325 0.54085 0.0
C1273 C 0.94732 0.45331 0.52016 0.0
C1274 C 0.96354 0.46113 0.50778 0.0
H1275 H 0.99213 0.61716 0.4561 0.0
H1276 H 0.97187 0.57991 0.46519 0.0
H1277 H 0.98627 0.63106 0.49269 0.0
H1278 H 0.97907 0.58924 0.53989 0.0
H1279 H 0.95105 0.57496 0.56206 0.0
loop_
_geom_bond_atom_site_label_1
_geom_bond_atom_site_label_2
_geom_bond_distance
_geom_bond_site_symmetry_2
_ccdc_geom_bond_type
Zn0 N4 2.020 . S
Zn0 O8 2.019 . S
Zn0 N10 2.119 . S
Zn0 O18 1.975 . S
C1 N2 1.334 . S
C1 N5 1.336 . S
N2 C1 1.334 . S
N2 C3 1.334 . S
C3 N2 1.334 . S
C3 N4 1.336 . S
N4 Zn0 2.020 . S
N4 C3 1.336 . S
N4 N5 1.354 . S
N5 C1 1.336 . S
N5 N4 1.354 . S
N5 Zn9 2.020 . S
C6 O7 1.244 . S
C6 O30 1.257 . S
O7 C6 1.244 . S
O8 Zn0 2.019 . S
O8 C28 1.257 . S
Zn9 N5 2.020 . S
Zn9 O16 1.975 . S
Zn9 N25 2.119 1_545 S
Zn9 O30 2.019 1_554 S
N10 Zn0 2.119 . S
N10 C12 1.334 . S
N10 C13 1.328 . S
C11 C12 1.391 . S
C11 N14 1.329 . S
C11 H32 0.930 . S
C12 N10 1.334 . S
C12 C11 1.391 . S
C12 H19 0.930 . S
C13 N10 1.328 . S
C13 C15 1.392 . S
C13 H20 0.930 . S
N14 C11 1.329 . S
N14 C15 1.331 . S
C15 C13 1.392 . S
C15 N14 1.331 . S
O16 Zn9 1.975 . S
O16 C17 1.252 . S
C17 O16 1.252 . S
C17 O18 1.252 . S
O18 Zn0 1.975 . S
O18 C17 1.252 . S
H19 C12 0.930 . S
H20 C13 0.930 . S
C21 C22 1.392 . S
C21 N25 1.328 . S
C21 H27 0.930 . S
C22 C21 1.392 . S
C22 N26 1.331 . S
C23 C24 1.391 . S
C23 N26 1.329 . S
C23 H33 0.930 . S
C24 C23 1.391 . S
C24 N25 1.334 . S
C24 H31 0.930 . S
N25 Zn9 2.119 1_565 S
N25 C21 1.328 . S
N25 C24 1.334 . S
N26 C22 1.331 . S
N26 C23 1.329 . S
H27 C21 0.930 . S
C28 O8 1.257 . S
C28 O29 1.244 . S
O29 C28 1.244 . S
O30 C6 1.257 . S
O30 Zn9 2.019 1_556 S
H31 C24 0.930 . S
H32 C11 0.930 . S
H33 C23 0.930 . S
Zn34 N38 2.020 . S
Zn34 O42 2.019 . S
Zn34 N44 2.119 1_545 S
Zn34 O52 1.975 . S
C35 N36 1.334 . S
C35 N39 1.336 . S
N36 C35 1.334 . S
N36 C37 1.334 . S
C37 N36 1.334 . S
C37 N38 1.336 . S
N38 Zn34 2.020 . S
N38 C37 1.336 . S
N38 N39 1.354 . S
N39 C35 1.336 . S
N39 N38 1.354 . S
N39 Zn43 2.020 . S
C40 O41 1.244 . S
C40 O64 1.257 . S
O41 C40 1.244 . S
O42 Zn34 2.019 . S
O42 C62 1.257 . S
Zn43 N39 2.020 . S
Zn43 O50 1.975 . S
Zn43 N59 2.119 . S
Zn43 O64 2.019 . S
N44 Zn34 2.119 1_565 S
N44 C46 1.334 . S
N44 C47 1.328 . S
C45 C46 1.391 . S
C45 N48 1.329 . S
C45 H66 0.930 . S
C46 N44 1.334 . S
C46 C45 1.391 . S
C46 H53 0.930 . S
C47 N44 1.328 . S
C47 C49 1.392 . S
C47 H54 0.930 . S
N48 C45 1.329 . S
N48 C49 1.331 . S
C49 C47 1.392 . S
C49 N48 1.331 . S
O50 Zn43 1.975 . S
O50 C51 1.252 . S
C51 O50 1.252 . S
C51 O52 1.252 . S
O52 Zn34 1.975 . S
O52 C51 1.252 . S
H53 C46 0.930 . S
H54 C47 0.930 . S
C55 C56 1.392 . S
C55 N59 1.328 . S
C55 H61 0.930 . S
C56 C55 1.392 . S
C56 N60 1.331 . S
C57 C58 1.391 . S
C57 N60 1.329 . S
C57 H67 0.930 . S
C58 C57 1.391 . S
C58 N59 1.334 . S
C58 H65 0.930 . S
N59 Zn43 2.119 . S
N59 C55 1.328 . S
N59 C58 1.334 . S
N60 C56 1.331 . S
N60 C57 1.329 . S
H61 C55 0.930 . S
C62 O42 1.257 . S
C62 O63 1.244 . S
O63 C62 1.244 . S
O64 C40 1.257 . S
O64 Zn43 2.019 . S
H65 C58 0.930 . S
H66 C45 0.930 . S
H67 C57 0.930 . S
Zn68 N72 2.020 . S
Zn68 O76 2.019 . S
Zn68 N78 2.119 . S
Zn68 O86 1.975 . S
C69 N70 1.334 . S
C69 N73 1.336 . S
N70 C69 1.334 . S
N70 C71 1.334 . S
C71 N70 1.334 . S
C71 N72 1.336 . S
N72 Zn68 2.020 . S
N72 C71 1.336 . S
N72 N73 1.354 . S
N73 C69 1.336 . S
N73 N72 1.354 . S
N73 Zn77 2.020 . S
C74 O75 1.244 . S
C74 O98 1.257 . S
O75 C74 1.244 . S
O76 Zn68 2.019 . S
O76 C96 1.257 . S
Zn77 N73 2.020 . S
Zn77 O84 1.975 . S
Zn77 N93 2.119 1_565 S
Zn77 O98 2.019 1_556 S
N78 Zn68 2.119 . S
N78 C80 1.334 . S
N78 C81 1.328 . S
C79 C80 1.391 . S
C79 N82 1.329 . S
C79 H100 0.930 . S
C80 N78 1.334 . S
C80 C79 1.391 . S
C80 H87 0.930 . S
C81 N78 1.328 . S
C81 C83 1.392 . S
C81 H88 0.930 . S
N82 C79 1.329 . S
N82 C83 1.331 . S
C83 C81 1.392 . S
C83 N82 1.331 . S
O84 Zn77 1.975 . S
O84 C85 1.252 . S
C85 O84 1.252 . S
C85 O86 1.252 . S
O86 Zn68 1.975 . S
O86 C85 1.252 . S
H87 C80 0.930 . S
H88 C81 0.930 . S
C89 C90 1.392 . S
C89 N93 1.328 . S
C89 H95 0.930 . S
C90 C89 1.392 . S
C90 N94 1.331 . S
C91 C92 1.391 . S
C91 N94 1.329 . S
C91 H101 0.930 . S
C92 C91 1.391 . S
C92 N93 1.334 . S
C92 H99 0.930 . S
N93 Zn77 2.119 1_545 S
N93 C89 1.328 . S
N93 C92 1.334 . S
N94 C90 1.331 . S
N94 C91 1.329 . S
H95 C89 0.930 . S
C96 O76 1.257 . S
C96 O97 1.244 . S
O97 C96 1.244 . S
O98 C74 1.257 . S
O98 Zn77 2.019 1_554 S
H99 C92 0.930 . S
H100 C79 0.930 . S
H101 C91 0.930 . S
Zn102 N106 2.020 . S
Zn102 O110 2.019 . S
Zn102 N112 2.119 . S
Zn102 O120 1.975 . S
C103 N104 1.334 . S
C103 N107 1.336 . S
N104 C103 1.334 . S
N104 C105 1.334 . S
C105 N104 1.334 . S
C105 N106 1.336 . S
N106 Zn102 2.020 . S
N106 C105 1.336 . S
N106 N107 1.354 . S
N107 C103 1.336 . S
N107 N106 1.354 . S
N107 Zn111 2.020 . S
C108 O109 1.244 . S
C108 O132 1.257 . S
O109 C108 1.244 . S
O110 Zn102 2.019 . S
O110 C130 1.257 . S
Zn111 N107 2.020 . S
Zn111 O118 1.975 . S
Zn111 N127 2.119 1_565 S
Zn111 O132 2.019 . S
N112 Zn102 2.119 . S
N112 C114 1.334 . S
N112 C115 1.328 . S
C113 C114 1.391 . S
C113 N116 1.329 . S
C113 H134 0.930 . S
C114 N112 1.334 . S
C114 C113 1.391 . S
C114 H121 0.930 . S
C115 N112 1.328 . S
C115 C117 1.392 . S
C115 H122 0.930 . S
N116 C113 1.329 . S
N116 C117 1.331 . S
C117 C115 1.392 . S
C117 N116 1.331 . S
O118 Zn111 1.975 . S
O118 C119 1.252 . S
C119 O118 1.252 . S
C119 O120 1.252 . S
O120 Zn102 1.975 . S
O120 C119 1.252 . S
H121 C114 0.930 . S
H122 C115 0.930 . S
C123 C124 1.392 . S
C123 N127 1.328 . S
C123 H129 0.930 . S
C124 C123 1.392 . S
C124 N128 1.331 . S
C125 C126 1.391 . S
C125 N128 1.329 . S
C125 H135 0.930 . S
C126 C125 1.391 . S
C126 N127 1.334 . S
C126 H133 0.930 . S
N127 Zn111 2.119 1_545 S
N127 C123 1.328 . S
N127 C126 1.334 . S
N128 C124 1.331 . S
N128 C125 1.329 . S
H129 C123 0.930 . S
C130 O110 1.257 . S
C130 O131 1.244 . S
O131 C130 1.244 . S
O132 C108 1.257 . S
O132 Zn111 2.019 . S
H133 C126 0.930 . S
H134 C113 0.930 . S
H135 C125 0.930 . S
Zn136 N140 2.020 . S
Zn136 O144 2.019 . S
Zn136 N146 2.119 . S
Zn136 O154 1.975 . S
C137 N138 1.334 . S
C137 N141 1.336 . S
N138 C137 1.334 . S
N138 C139 1.334 . S
C139 N138 1.334 . S
C139 N140 1.336 . S
N140 Zn136 2.020 . S
N140 C139 1.336 . S
N140 N141 1.354 . S
N141 C137 1.336 . S
N141 N140 1.354 . S
N141 Zn145 2.020 . S
C142 O143 1.244 . S
C142 O166 1.257 . S
O143 C142 1.244 . S
O144 Zn136 2.019 . S
O144 C164 1.257 . S
Zn145 N141 2.020 . S
Zn145 O152 1.975 . S
Zn145 N161 2.119 . S
Zn145 O166 2.019 1_554 S
N146 Zn136 2.119 . S
N146 C148 1.334 . S
N146 C149 1.328 . S
C147 C148 1.391 . S
C147 N150 1.329 . S
C147 H168 0.930 . S
C148 N146 1.334 . S
C148 C147 1.391 . S
C148 H155 0.930 . S
C149 N146 1.328 . S
C149 C151 1.392 . S
C149 H156 0.930 . S
N150 C147 1.329 . S
N150 C151 1.331 . S
C151 C149 1.392 . S
C151 N150 1.331 . S
O152 Zn145 1.975 . S
O152 C153 1.252 . S
C153 O152 1.252 . S
C153 O154 1.252 . S
O154 Zn136 1.975 . S
O154 C153 1.252 . S
H155 C148 0.930 . S
H156 C149 0.930 . S
C157 C158 1.392 . S
C157 N161 1.328 . S
C157 H163 0.930 . S
C158 C157 1.392 . S
C158 N162 1.331 . S
C159 C160 1.391 . S
C159 N162 1.329 . S
C159 H169 0.930 . S
C160 C159 1.391 . S
C160 N161 1.334 . S
C160 H167 0.930 . S
N161 Zn145 2.119 . S
N161 C157 1.328 . S
N161 C160 1.334 . S
N162 C158 1.331 . S
N162 C159 1.329 . S
H163 C157 0.930 . S
C164 O144 1.257 . S
C164 O165 1.244 . S
O165 C164 1.244 . S
O166 C142 1.257 . S
O166 Zn145 2.019 1_556 S
H167 C160 0.930 . S
H168 C147 0.930 . S
H169 C159 0.930 . S
Zn170 N174 2.020 . S
Zn170 O178 2.019 . S
Zn170 N180 2.119 . S
Zn170 O188 1.975 . S
C171 N172 1.334 . S
C171 N175 1.336 . S
N172 C171 1.334 . S
N172 C173 1.334 . S
C173 N172 1.334 . S
C173 N174 1.336 . S
N174 Zn170 2.020 . S
N174 C173 1.336 . S
N174 N175 1.354 . S
N175 C171 1.336 . S
N175 N174 1.354 . S
N175 Zn179 2.020 . S
C176 O177 1.244 . S
C176 O200 1.257 . S
O177 C176 1.244 . S
O178 Zn170 2.019 . S
O178 C198 1.257 . S
Zn179 N175 2.020 . S
Zn179 O186 1.975 . S
Zn179 N195 2.119 . S
Zn179 O200 2.019 . S
N180 Zn170 2.119 . S
N180 C182 1.334 . S
N180 C183 1.328 . S
C181 C182 1.391 . S
C181 N184 1.329 . S
C181 H202 0.930 . S
C182 N180 1.334 . S
C182 C181 1.391 . S
C182 H189 0.930 . S
C183 N180 1.328 . S
C183 C185 1.392 . S
C183 H190 0.930 . S
N184 C181 1.329 . S
N184 C185 1.331 . S
C185 C183 1.392 . S
C185 N184 1.331 . S
O186 Zn179 1.975 . S
O186 C187 1.252 . S
C187 O186 1.252 . S
C187 O188 1.252 . S
O188 Zn170 1.975 . S
O188 C187 1.252 . S
H189 C182 0.930 . S
H190 C183 0.930 . S
C191 C192 1.392 . S
C191 N195 1.328 . S
C191 H197 0.930 . S
C192 C191 1.392 . S
C192 N196 1.331 . S
C193 C194 1.391 . S
C193 N196 1.329 . S
C193 H203 0.930 . S
C194 C193 1.391 . S
C194 N195 1.334 . S
C194 H201 0.930 . S
N195 Zn179 2.119 . S
N195 C191 1.328 . S
N195 C194 1.334 . S
N196 C192 1.331 . S
N196 C193 1.329 . S
H197 C191 0.930 . S
C198 O178 1.257 . S
C198 O199 1.244 . S
O199 C198 1.244 . S
O200 C176 1.257 . S
O200 Zn179 2.019 . S
H201 C194 0.930 . S
H202 C181 0.930 . S
H203 C193 0.930 . S
Zn204 N208 2.020 . S
Zn204 O212 2.019 . S
Zn204 N214 2.119 . S
Zn204 O222 1.975 . S
C205 N206 1.334 . S
C205 N209 1.336 . S
N206 C205 1.334 . S
N206 C207 1.334 . S
C207 N206 1.334 . S
C207 N208 1.336 . S
N208 Zn204 2.020 . S
N208 C207 1.336 . S
N208 N209 1.354 . S
N209 C205 1.336 . S
N209 N208 1.354 . S
N209 Zn213 2.020 . S
C210 O211 1.244 . S
C210 O234 1.257 . S
O211 C210 1.244 . S
O212 Zn204 2.019 . S
O212 C232 1.257 . S
Zn213 N209 2.020 . S
Zn213 O220 1.975 . S
Zn213 N229 2.119 . S
Zn213 O234 2.019 1_556 S
N214 Zn204 2.119 . S
N214 C216 1.334 . S
N214 C217 1.328 . S
C215 C216 1.391 . S
C215 N218 1.329 . S
C215 H236 0.930 . S
C216 N214 1.334 . S
C216 C215 1.391 . S
C216 H223 0.930 . S
C217 N214 1.328 . S
C217 C219 1.392 . S
C217 H224 0.930 . S
N218 C215 1.329 . S
N218 C219 1.331 . S
C219 C217 1.392 . S
C219 N218 1.331 . S
O220 Zn213 1.975 . S
O220 C221 1.252 . S
C221 O220 1.252 . S
C221 O222 1.252 . S
O222 Zn204 1.975 . S
O222 C221 1.252 . S
H223 C216 0.930 . S
H224 C217 0.930 . S
C225 C226 1.392 . S
C225 N229 1.328 . S
C225 H231 0.930 . S
C226 C225 1.392 . S
C226 N230 1.331 . S
C227 C228 1.391 . S
C227 N230 1.329 . S
C227 H237 0.930 . S
C228 C227 1.391 . S
C228 N229 1.334 . S
C228 H235 0.930 . S
N229 Zn213 2.119 . S
N229 C225 1.328 . S
N229 C228 1.334 . S
N230 C226 1.331 . S
N230 C227 1.329 . S
H231 C225 0.930 . S
C232 O212 1.257 . S
C232 O233 1.244 . S
O233 C232 1.244 . S
O234 C210 1.257 . S
O234 Zn213 2.019 1_554 S
H235 C228 0.930 . S
H236 C215 0.930 . S
H237 C227 0.930 . S
Zn238 N242 2.020 . S
Zn238 O246 2.019 . S
Zn238 N248 2.119 . S
Zn238 O256 1.975 . S
C239 N240 1.334 . S
C239 N243 1.336 . S
N240 C239 1.334 . S
N240 C241 1.334 . S
C241 N240 1.334 . S
C241 N242 1.336 . S
N242 Zn238 2.020 . S
N242 C241 1.336 . S
N242 N243 1.354 . S
N243 C239 1.336 . S
N243 N242 1.354 . S
N243 Zn247 2.020 . S
C244 O245 1.244 . S
C244 O268 1.257 . S
O245 C244 1.244 . S
O246 Zn238 2.019 . S
O246 C266 1.257 . S
Zn247 N243 2.020 . S
Zn247 O254 1.975 . S
Zn247 N263 2.119 . S
Zn247 O268 2.019 . S
N248 Zn238 2.119 . S
N248 C250 1.334 . S
N248 C251 1.328 . S
C249 C250 1.391 . S
C249 N252 1.329 . S
C249 H270 0.930 . S
C250 N248 1.334 . S
C250 C249 1.391 . S
C250 H257 0.930 . S
C251 N248 1.328 . S
C251 C253 1.392 . S
C251 H258 0.930 . S
N252 C249 1.329 . S
N252 C253 1.331 . S
C253 C251 1.392 . S
C253 N252 1.331 . S
O254 Zn247 1.975 . S
O254 C255 1.252 . S
C255 O254 1.252 . S
C255 O256 1.252 . S
O256 Zn238 1.975 . S
O256 C255 1.252 . S
H257 C250 0.930 . S
H258 C251 0.930 . S
C259 C260 1.392 . S
C259 N263 1.328 . S
C259 H265 0.930 . S
C260 C259 1.392 . S
C260 N264 1.331 . S
C261 C262 1.391 . S
C261 N264 1.329 . S
C261 H271 0.930 . S
C262 C261 1.391 . S
C262 N263 1.334 . S
C262 H269 0.930 . S
N263 Zn247 2.119 . S
N263 C259 1.328 . S
N263 C262 1.334 . S
N264 C260 1.331 . S
N264 C261 1.329 . S
H265 C259 0.930 . S
C266 O246 1.257 . S
C266 O267 1.244 . S
O267 C266 1.244 . S
O268 C244 1.257 . S
O268 Zn247 2.019 . S
H269 C262 0.930 . S
H270 C249 0.930 . S
H271 C261 0.930 . S
H272 C280 0.929 . S
H273 C282 0.930 . S
H274 C284 0.930 . S
H275 C287 0.929 . S
H276 C290 0.930 . S
H277 C292 0.960 . S
H278 C292 0.960 . S
H279 C292 0.960 . S
C280 H272 0.929 . S
C280 C281 1.377 . S
C280 C282 1.384 . S
C281 C280 1.377 . S
C281 C287 1.390 . S
C282 H273 0.930 . S
C282 C280 1.384 . S
C282 C283 1.372 . S
C283 C282 1.372 . S
C283 C284 1.400 . S
C283 C288 1.490 . S
C284 H274 0.930 . S
C284 C283 1.400 . S
C284 C287 1.386 . S
H285 C301 0.930 . S
H286 C302 0.931 . S
C287 H275 0.929 . S
C287 C281 1.390 . S
C287 C284 1.386 . S
C288 C283 1.490 . S
C288 C290 1.395 . S
C288 C291 1.403 . S
H289 C295 0.930 . S
C290 H276 0.930 . S
C290 C288 1.395 . S
C290 C293 1.403 . S
C291 C288 1.403 . S
C291 C292 1.524 . S
C291 C295 1.400 . S
C292 H277 0.960 . S
C292 H278 0.960 . S
C292 H279 0.960 . S
C292 C291 1.524 . S
C293 C290 1.403 . S
C293 C294 1.392 . S
C293 C297 1.495 . S
C294 C293 1.392 . S
C294 C295 1.385 . S
C294 C296 1.478 . S
C295 H289 0.930 . S
C295 C291 1.400 . S
C295 C294 1.385 . S
C296 C294 1.478 . S
C296 C298 1.381 . S
C296 C302 1.383 . S
C297 C293 1.495 . S
C297 H303 0.959 1_545 S
C297 H304 0.961 . S
C297 H305 0.960 1_545 S
C298 C296 1.381 . S
C298 C299 1.394 . S
C298 H306 0.930 . S
C299 C298 1.394 . S
C299 C300 1.383 . S
C299 H307 0.929 . S
C300 C299 1.383 . S
C300 C301 1.377 . S
C301 H285 0.930 . S
C301 C300 1.377 . S
C301 C302 1.379 . S
C302 H286 0.931 . S
C302 C296 1.383 . S
C302 C301 1.379 . S
H303 C297 0.959 1_565 S
H304 C297 0.961 . S
H305 C297 0.960 1_565 S
H306 C298 0.930 . S
H307 C299 0.929 . S
H308 C316 0.929 . S
H309 C318 0.930 . S
H310 C320 0.930 . S
H311 C323 0.929 . S
H312 C326 0.930 . S
H313 C328 0.960 . S
H314 C328 0.960 . S
H315 C328 0.960 . S
C316 H308 0.929 . S
C316 C317 1.377 . S
C316 C318 1.384 . S
C317 C316 1.377 . S
C317 C323 1.390 . S
C318 H309 0.930 . S
C318 C316 1.384 . S
C318 C319 1.372 . S
C319 C318 1.372 . S
C319 C320 1.400 . S
C319 C324 1.490 . S
C320 H310 0.930 . S
C320 C319 1.400 . S
C320 C323 1.386 . S
H321 C337 0.930 . S
H322 C338 0.931 . S
C323 H311 0.929 . S
C323 C317 1.390 . S
C323 C320 1.386 . S
C324 C319 1.490 . S
C324 C326 1.395 . S
C324 C327 1.403 . S
H325 C331 0.930 . S
C326 H312 0.930 . S
C326 C324 1.395 . S
C326 C329 1.403 . S
C327 C324 1.403 . S
C327 C328 1.524 . S
C327 C331 1.400 . S
C328 H313 0.960 . S
C328 H314 0.960 . S
C328 H315 0.960 . S
C328 C327 1.524 . S
C329 C326 1.403 . S
C329 C330 1.392 . S
C329 C333 1.495 . S
C330 C329 1.392 . S
C330 C331 1.385 . S
C330 C332 1.478 . S
C331 H325 0.930 . S
C331 C327 1.400 . S
C331 C330 1.385 . S
C332 C330 1.478 . S
C332 C334 1.381 . S
C332 C338 1.383 . S
C333 C329 1.495 . S
C333 H339 0.959 1_565 S
C333 H340 0.961 1_565 S
C333 H341 0.960 . S
C334 C332 1.381 . S
C334 C335 1.394 . S
C334 H342 0.930 . S
C335 C334 1.394 . S
C335 C336 1.383 . S
C335 H343 0.929 . S
C336 C335 1.383 . S
C336 C337 1.377 . S
C337 H321 0.930 . S
C337 C336 1.377 . S
C337 C338 1.379 . S
C338 H322 0.931 . S
C338 C332 1.383 . S
C338 C337 1.379 . S
H339 C333 0.959 1_545 S
H340 C333 0.961 1_545 S
H341 C333 0.960 . S
H342 C334 0.930 . S
H343 C335 0.929 . S
H344 C352 0.929 . S
H345 C354 0.930 . S
H346 C356 0.930 . S
H347 C359 0.929 . S
H348 C362 0.930 . S
H349 C364 0.960 . S
H350 C364 0.960 . S
H351 C364 0.960 . S
C352 H344 0.929 . S
C352 C353 1.377 . S
C352 C354 1.384 . S
C353 C352 1.377 . S
C353 C359 1.390 . S
C354 H345 0.930 . S
C354 C352 1.384 . S
C354 C355 1.372 . S
C355 C354 1.372 . S
C355 C356 1.400 . S
C355 C360 1.490 . S
C356 H346 0.930 . S
C356 C355 1.400 . S
C356 C359 1.386 . S
H357 C373 0.930 . S
H358 C374 0.931 . S
C359 H347 0.929 . S
C359 C353 1.390 . S
C359 C356 1.386 . S
C360 C355 1.490 . S
C360 C362 1.395 1_655 S
C360 C363 1.403 . S
H361 C367 0.919 1_655 S
C362 H348 0.930 . S
C362 C360 1.395 1_455 S
C362 C365 1.403 . S
C363 C360 1.403 . S
C363 C364 1.524 . S
C363 C367 1.381 1_655 S
C364 H349 0.960 . S
C364 H350 0.960 . S
C364 H351 0.960 . S
C364 C363 1.524 . S
C365 C362 1.403 . S
C365 C366 1.392 . S
C365 C369 1.495 . S
C366 C365 1.392 . S
C366 C367 1.413 . S
C366 C368 1.478 . S
C367 H361 0.919 1_455 S
C367 C363 1.381 1_455 S
C367 C366 1.413 . S
C368 C366 1.478 . S
C368 C370 1.381 . S
C368 C374 1.383 . S
C369 C365 1.495 . S
C369 H375 0.959 . S
C369 H376 0.961 . S
C369 H377 0.960 . S
C370 C368 1.381 . S
C370 C371 1.394 . S
C370 H378 0.930 . S
C371 C370 1.394 . S
C371 C372 1.383 . S
C371 H379 0.929 . S
C372 C371 1.383 . S
C372 C373 1.377 . S
C373 H357 0.930 . S
C373 C372 1.377 . S
C373 C374 1.379 . S
C374 H358 0.931 . S
C374 C368 1.383 . S
C374 C373 1.379 . S
H375 C369 0.959 . S
H376 C369 0.961 . S
H377 C369 0.960 . S
H378 C370 0.930 . S
H379 C371 0.929 . S
H380 C388 0.929 . S
H381 C390 0.930 . S
H382 C392 0.930 . S
H383 C395 0.929 . S
H384 C398 0.930 . S
H385 C400 0.960 1_655 S
H386 C400 0.968 . S
H387 C400 0.960 . S
C388 H380 0.929 . S
C388 C389 1.377 . S
C388 C390 1.384 . S
C389 C388 1.377 . S
C389 C395 1.390 . S
C390 H381 0.930 . S
C390 C388 1.384 . S
C390 C391 1.372 . S
C391 C390 1.372 . S
C391 C392 1.400 . S
C391 C396 1.490 . S
C392 H382 0.930 . S
C392 C391 1.400 . S
C392 C395 1.386 . S
H393 C409 0.930 . S
H394 C410 0.931 . S
C395 H383 0.929 . S
C395 C389 1.390 . S
C395 C392 1.386 . S
C396 C391 1.490 . S
C396 C398 1.395 . S
C396 C399 1.403 . S
H397 C403 0.930 . S
C398 H384 0.930 . S
C398 C396 1.395 . S
C398 C401 1.403 1_455 S
C399 C396 1.403 . S
C399 C400 1.524 . S
C399 C403 1.400 1_455 S
C400 H385 0.960 1_455 S
C400 H386 0.968 . S
C400 H387 0.960 . S
C400 C399 1.524 . S
C401 C398 1.403 1_655 S
C401 C402 1.392 . S
C401 C405 1.495 . S
C402 C401 1.392 . S
C402 C403 1.385 . S
C402 C404 1.478 . S
C403 H397 0.930 . S
C403 C399 1.400 1_655 S
C403 C402 1.385 . S
C404 C402 1.478 . S
C404 C406 1.381 . S
C404 C410 1.383 . S
C405 C401 1.495 . S
C405 H411 0.959 1_655 S
C405 H412 0.961 . S
C405 H413 0.960 . S
C406 C404 1.381 . S
C406 C407 1.394 . S
C406 H414 0.930 . S
C407 C406 1.394 . S
C407 C408 1.383 . S
C407 H415 0.929 . S
C408 C407 1.383 . S
C408 C409 1.377 . S
C409 H393 0.930 . S
C409 C408 1.377 . S
C409 C410 1.379 . S
C410 H394 0.931 . S
C410 C404 1.383 . S
C410 C409 1.379 . S
H411 C405 0.959 1_455 S
H412 C405 0.961 . S
H413 C405 0.960 . S
H414 C406 0.930 . S
H415 C407 0.929 . S
H416 C424 0.929 . S
H417 C426 0.930 . S
H418 C428 0.930 . S
H419 C431 0.929 1_556 S
H420 C434 0.930 . S
H421 C436 0.959 . S
H422 C436 0.968 1_554 S
H423 C436 0.960 . S
C424 H416 0.929 . S
C424 C425 1.377 . S
C424 C426 1.384 . S
C425 C424 1.377 . S
C425 C431 1.390 . S
C426 H417 0.930 . S
C426 C424 1.384 . S
C426 C427 1.372 . S
C427 C426 1.372 . S
C427 C428 1.400 . S
C427 C432 1.490 . S
C428 H418 0.930 . S
C428 C427 1.400 . S
C428 C431 1.386 . S
H429 C445 0.930 . S
H430 C446 0.931 . S
C431 H419 0.929 1_554 S
C431 C425 1.390 . S
C431 C428 1.386 . S
C432 C427 1.490 . S
C432 C434 1.395 . S
C432 C435 1.403 . S
H433 C439 0.930 . S
C434 H420 0.930 . S
C434 C432 1.395 . S
C434 C437 1.403 . S
C435 C432 1.403 . S
C435 C436 1.526 1_554 S
C435 C439 1.400 . S
C436 H421 0.959 . S
C436 H422 0.968 1_556 S
C436 H423 0.960 . S
C436 C435 1.526 1_556 S
C437 C434 1.403 . S
C437 C438 1.392 . S
C437 C441 1.495 . S
C438 C437 1.392 . S
C438 C439 1.385 . S
C438 C440 1.478 . S
C439 H433 0.930 . S
C439 C435 1.400 . S
C439 C438 1.385 . S
C440 C438 1.478 . S
C440 C442 1.381 . S
C440 C446 1.383 . S
C441 C437 1.495 . S
C441 H447 0.959 . S
C441 H448 0.961 . S
C441 H449 0.960 . S
C442 C440 1.381 . S
C442 C443 1.394 . S
C442 H450 0.930 . S
C443 C442 1.394 . S
C443 C444 1.383 . S
C443 H451 0.929 . S
C444 C443 1.383 . S
C444 C445 1.377 . S
C445 H429 0.930 . S
C445 C444 1.377 . S
C445 C446 1.379 . S
C446 H430 0.931 . S
C446 C440 1.383 . S
C446 C445 1.379 . S
H447 C441 0.959 . S
H448 C441 0.961 . S
H449 C441 0.960 . S
H450 C442 0.930 . S
H451 C443 0.929 . S
H452 C460 0.929 . S
H453 C462 0.930 . S
H454 C464 0.930 . S
H455 C467 0.929 . S
H456 C470 0.930 . S
H457 C472 0.960 . S
H458 C472 0.960 . S
H459 C472 0.960 . S
C460 H452 0.929 . S
C460 C461 1.377 . S
C460 C462 1.384 . S
C461 C460 1.377 . S
C461 C467 1.390 . S
C462 H453 0.930 . S
C462 C460 1.384 . S
C462 C463 1.372 . S
C463 C462 1.372 . S
C463 C464 1.400 . S
C463 C468 1.490 . S
C464 H454 0.930 . S
C464 C463 1.400 . S
C464 C467 1.386 . S
H465 C481 0.930 . S
H466 C482 0.931 . S
C467 H455 0.929 . S
C467 C461 1.390 . S
C467 C464 1.386 . S
C468 C463 1.490 . S
C468 C470 1.395 . S
C468 C471 1.403 . S
H469 C475 0.930 . S
C470 H456 0.930 . S
C470 C468 1.395 . S
C470 C473 1.403 . S
C471 C468 1.403 . S
C471 C472 1.524 . S
C471 C475 1.400 . S
C472 H457 0.960 . S
C472 H458 0.960 . S
C472 H459 0.960 . S
C472 C471 1.524 . S
C473 C470 1.403 . S
C473 C474 1.392 . S
C473 C477 1.495 . S
C474 C473 1.392 . S
C474 C475 1.385 . S
C474 C476 1.478 . S
C475 H469 0.930 . S
C475 C471 1.400 . S
C475 C474 1.385 . S
C476 C474 1.478 . S
C476 C478 1.381 . S
C476 C482 1.383 . S
C477 C473 1.495 . S
C477 H483 0.959 . S
C477 H484 0.961 . S
C477 H485 0.960 . S
C478 C476 1.381 . S
C478 C479 1.394 . S
C478 H486 0.930 . S
C479 C478 1.394 . S
C479 C480 1.383 . S
C479 H487 0.929 . S
C480 C479 1.383 . S
C480 C481 1.377 . S
C481 H465 0.930 . S
C481 C480 1.377 . S
C481 C482 1.379 . S
C482 H466 0.931 . S
C482 C476 1.383 . S
C482 C481 1.379 . S
H483 C477 0.959 . S
H484 C477 0.961 . S
H485 C477 0.960 . S
H486 C478 0.930 . S
H487 C479 0.929 . S
H488 C496 0.929 . S
H489 C498 0.930 . S
H490 C500 0.930 . S
H491 C503 0.929 . S
H492 C506 0.930 . S
H493 C508 0.960 . S
H494 C508 0.960 . S
H495 C508 0.960 . S
C496 H488 0.929 . S
C496 C497 1.377 . S
C496 C498 1.384 . S
C497 C496 1.377 . S
C497 C503 1.390 . S
C498 H489 0.930 . S
C498 C496 1.384 . S
C498 C499 1.372 . S
C499 C498 1.372 . S
C499 C500 1.400 . S
C499 C504 1.490 . S
C500 H490 0.930 . S
C500 C499 1.400 . S
C500 C503 1.386 . S
H501 C517 0.930 1_554 S
H502 C518 0.931 1_554 S
C503 H491 0.929 . S
C503 C497 1.390 . S
C503 C500 1.386 . S
C504 C499 1.490 . S
C504 C506 1.395 . S
C504 C507 1.403 . S
H505 C511 0.930 . S
C506 H492 0.930 . S
C506 C504 1.395 . S
C506 C509 1.403 . S
C507 C504 1.403 . S
C507 C508 1.524 . S
C507 C511 1.400 . S
C508 H493 0.960 . S
C508 H494 0.960 . S
C508 H495 0.960 . S
C508 C507 1.524 . S
C509 C506 1.403 . S
C509 C510 1.392 . S
C509 C513 1.495 . S
C510 C509 1.392 . S
C510 C511 1.385 . S
C510 C512 1.478 . S
C511 H505 0.930 . S
C511 C507 1.400 . S
C511 C510 1.385 . S
C512 C510 1.478 . S
C512 C514 1.381 . S
C512 C518 1.383 . S
C513 C509 1.495 . S
C513 H519 0.959 . S
C513 H520 0.961 . S
C513 H521 0.960 . S
C514 C512 1.381 . S
C514 C515 1.394 . S
C514 H522 0.930 . S
C515 C514 1.394 . S
C515 C516 1.383 . S
C515 H523 0.929 . S
C516 C515 1.383 . S
C516 C517 1.377 . S
C517 H501 0.930 1_556 S
C517 C516 1.377 . S
C517 C518 1.379 . S
C518 H502 0.931 1_556 S
C518 C512 1.383 . S
C518 C517 1.379 . S
H519 C513 0.959 . S
H520 C513 0.961 . S
H521 C513 0.960 . S
H522 C514 0.930 . S
H523 C515 0.929 . S
H524 C532 0.929 . S
H525 C534 0.930 . S
H526 C536 0.930 . S
H527 C539 0.929 . S
H528 C542 0.930 . S
H529 C544 0.960 . S
H530 C544 0.960 . S
H531 C544 0.960 . S
C532 H524 0.929 . S
C532 C533 1.377 . S
C532 C534 1.384 . S
C533 C532 1.377 . S
C533 C539 1.390 . S
C534 H525 0.930 . S
C534 C532 1.384 . S
C534 C535 1.372 . S
C535 C534 1.372 . S
C535 C536 1.400 . S
C535 C540 1.490 . S
C536 H526 0.930 . S
C536 C535 1.400 . S
C536 C539 1.386 . S
H537 C553 0.930 . S
H538 C554 0.931 . S
C539 H527 0.929 . S
C539 C533 1.390 . S
C539 C536 1.386 . S
C540 C535 1.490 . S
C540 C542 1.395 . S
C540 C543 1.403 . S
H541 C547 0.930 . S
C542 H528 0.930 . S
C542 C540 1.395 . S
C542 C545 1.403 . S
C543 C540 1.403 . S
C543 C544 1.524 . S
C543 C547 1.400 . S
C544 H529 0.960 . S
C544 H530 0.960 . S
C544 H531 0.960 . S
C544 C543 1.524 . S
C545 C542 1.403 . S
C545 C546 1.392 . S
C545 C549 1.495 . S
C546 C545 1.392 . S
C546 C547 1.385 . S
C546 C548 1.478 . S
C547 H541 0.930 . S
C547 C543 1.400 . S
C547 C546 1.385 . S
C548 C546 1.478 . S
C548 C550 1.381 . S
C548 C554 1.383 . S
C549 C545 1.495 . S
C549 H555 0.959 . S
C549 H556 0.961 . S
C549 H557 0.960 . S
C550 C548 1.381 . S
C550 C551 1.394 . S
C550 H558 0.930 . S
C551 C550 1.394 . S
C551 C552 1.383 . S
C551 H559 0.929 . S
C552 C551 1.383 . S
C552 C553 1.377 . S
C553 H537 0.930 . S
C553 C552 1.377 . S
C553 C554 1.379 . S
C554 H538 0.931 . S
C554 C548 1.383 . S
C554 C553 1.379 . S
H555 C549 0.959 . S
H556 C549 0.961 . S
H557 C549 0.960 . S
H558 C550 0.930 . S
H559 C551 0.929 . S
H560 C568 0.930 1_556 S
H561 C570 0.930 1_556 S
H562 C572 0.930 . S
H563 C575 0.929 . S
H564 C578 0.930 . S
H565 C580 0.960 . S
H566 C580 0.960 . S
H567 C580 0.960 . S
C568 H560 0.930 1_554 S
C568 C569 1.377 . S
C568 C570 1.384 . S
C569 C568 1.377 . S
C569 C575 1.390 . S
C570 H561 0.930 1_554 S
C570 C568 1.384 . S
C570 C571 1.372 . S
C571 C570 1.372 . S
C571 C572 1.400 . S
C571 C576 1.490 . S
C572 H562 0.930 . S
C572 C571 1.400 . S
C572 C575 1.386 . S
H573 C589 0.930 . S
H574 C590 0.931 . S
C575 H563 0.929 . S
C575 C569 1.390 . S
C575 C572 1.386 . S
C576 C571 1.490 . S
C576 C578 1.395 . S
C576 C579 1.403 . S
H577 C583 0.930 . S
C578 H564 0.930 . S
C578 C576 1.395 . S
C578 C581 1.403 . S
C579 C576 1.403 . S
C579 C580 1.524 . S
C579 C583 1.400 . S
C580 H565 0.960 . S
C580 H566 0.960 . S
C580 H567 0.960 . S
C580 C579 1.524 . S
C581 C578 1.403 . S
C581 C582 1.392 . S
C581 C585 1.495 . S
C582 C581 1.392 . S
C582 C583 1.385 . S
C582 C584 1.478 1_545 S
C583 H577 0.930 . S
C583 C579 1.400 . S
C583 C582 1.385 . S
C584 C582 1.478 1_565 S
C584 C586 1.381 . S
C584 C590 1.383 . S
C585 C581 1.495 . S
C585 H591 0.959 . S
C585 H592 0.961 . S
C585 H593 0.960 . S
C586 C584 1.381 . S
C586 C587 1.394 . S
C586 H594 0.930 . S
C587 C586 1.394 . S
C587 C588 1.383 . S
C587 H595 0.929 . S
C588 C587 1.383 . S
C588 C589 1.377 . S
C589 H573 0.930 . S
C589 C588 1.377 . S
C589 C590 1.379 . S
C590 H574 0.931 . S
C590 C584 1.383 . S
C590 C589 1.379 . S
H591 C585 0.959 . S
H592 C585 0.961 . S
H593 C585 0.960 . S
H594 C586 0.930 . S
H595 C587 0.929 . S
H596 C604 0.929 . S
H597 C606 0.930 . S
H598 C608 0.930 . S
H599 C611 0.929 . S
H600 C614 0.930 . S
H601 C616 0.960 . S
H602 C616 0.960 . S
H603 C616 0.960 . S
C604 H596 0.929 . S
C604 C605 1.377 . S
C604 C606 1.384 . S
C605 C604 1.377 . S
C605 C611 1.390 . S
C606 H597 0.930 . S
C606 C604 1.384 . S
C606 C607 1.372 . S
C607 C606 1.372 . S
C607 C608 1.400 . S
C607 C612 1.490 . S
C608 H598 0.930 . S
C608 C607 1.400 . S
C608 C611 1.386 . S
H609 C625 0.930 . S
H610 C626 0.931 . S
C611 H599 0.929 . S
C611 C605 1.390 . S
C611 C608 1.386 . S
C612 C607 1.490 . S
C612 C614 1.395 . S
C612 C615 1.403 . S
H613 C619 0.930 . S
C614 H600 0.930 . S
C614 C612 1.395 . S
C614 C617 1.403 . S
C615 C612 1.403 . S
C615 C616 1.524 . S
C615 C619 1.400 . S
C616 H601 0.960 . S
C616 H602 0.960 . S
C616 H603 0.960 . S
C616 C615 1.524 . S
C617 C614 1.403 . S
C617 C618 1.392 . S
C617 C621 1.495 . S
C618 C617 1.392 . S
C618 C619 1.385 . S
C618 C620 1.478 1_545 S
C619 H613 0.930 . S
C619 C615 1.400 . S
C619 C618 1.385 . S
C620 C618 1.478 1_565 S
C620 C622 1.381 . S
C620 C626 1.383 . S
C621 C617 1.495 . S
C621 H627 0.959 . S
C621 H628 0.961 1_545 S
C621 H629 0.960 1_545 S
C622 C620 1.381 . S
C622 C623 1.394 . S
C622 H630 0.930 . S
C623 C622 1.394 . S
C623 C624 1.383 . S
C623 H631 0.929 . S
C624 C623 1.383 . S
C624 C625 1.377 . S
C625 H609 0.930 . S
C625 C624 1.377 . S
C625 C626 1.379 . S
C626 H610 0.931 . S
C626 C620 1.383 . S
C626 C625 1.379 . S
H627 C621 0.959 . S
H628 C621 0.961 1_565 S
H629 C621 0.960 1_565 S
H630 C622 0.930 . S
H631 C623 0.929 . S
H632 C640 0.929 . S
H633 C642 0.930 . S
H634 C644 0.930 . S
H635 C647 0.929 . S
H636 C650 0.930 . S
H637 C652 0.960 . S
H638 C652 0.960 . S
H639 C652 0.960 . S
C640 H632 0.929 . S
C640 C641 1.377 . S
C640 C642 1.384 . S
C641 C640 1.377 . S
C641 C647 1.390 . S
C642 H633 0.930 . S
C642 C640 1.384 . S
C642 C643 1.372 . S
C643 C642 1.372 . S
C643 C644 1.400 . S
C643 C648 1.490 1_545 S
C644 H634 0.930 . S
C644 C643 1.400 . S
C644 C647 1.386 . S
H645 C661 0.930 1_554 S
H646 C662 0.931 1_554 S
C647 H635 0.929 . S
C647 C641 1.390 . S
C647 C644 1.386 . S
C648 C643 1.490 1_565 S
C648 C650 1.395 . S
C648 C651 1.403 . S
H649 C655 0.930 . S
C650 H636 0.930 . S
C650 C648 1.395 . S
C650 C653 1.403 . S
C651 C648 1.403 . S
C651 C652 1.524 . S
C651 C655 1.400 . S
C652 H637 0.960 . S
C652 H638 0.960 . S
C652 H639 0.960 . S
C652 C651 1.524 . S
C653 C650 1.403 . S
C653 C654 1.392 . S
C653 C657 1.495 . S
C654 C653 1.392 . S
C654 C655 1.385 . S
C654 C656 1.478 . S
C655 H649 0.930 . S
C655 C651 1.400 . S
C655 C654 1.385 . S
C656 C654 1.478 . S
C656 C658 1.381 . S
C656 C662 1.383 . S
C657 C653 1.495 . S
C657 H663 0.959 . S
C657 H664 0.961 . S
C657 H665 0.960 . S
C658 C656 1.381 . S
C658 C659 1.394 . S
C658 H666 0.930 . S
C659 C658 1.394 . S
C659 C660 1.383 . S
C659 H667 0.929 . S
C660 C659 1.383 . S
C660 C661 1.377 . S
C661 H645 0.930 1_556 S
C661 C660 1.377 . S
C661 C662 1.379 . S
C662 H646 0.931 1_556 S
C662 C656 1.383 . S
C662 C661 1.379 . S
H663 C657 0.959 . S
H664 C657 0.961 . S
H665 C657 0.960 . S
H666 C658 0.930 . S
H667 C659 0.929 . S
H668 C676 0.929 . S
H669 C678 0.930 . S
H670 C680 0.930 . S
H671 C683 0.929 . S
H672 C686 0.930 . S
H673 C688 0.960 . S
H674 C688 0.960 . S
H675 C688 0.960 . S
C676 H668 0.929 . S
C676 C677 1.377 . S
C676 C678 1.384 . S
C677 C676 1.377 . S
C677 C683 1.390 . S
C678 H669 0.930 . S
C678 C676 1.384 . S
C678 C679 1.372 . S
C679 C678 1.372 . S
C679 C680 1.400 . S
C679 C684 1.490 . S
C680 H670 0.930 . S
C680 C679 1.400 . S
C680 C683 1.386 . S
H681 C697 0.930 . S
H682 C698 0.931 . S
C683 H671 0.929 . S
C683 C677 1.390 . S
C683 C680 1.386 . S
C684 C679 1.490 . S
C684 C686 1.395 . S
C684 C687 1.403 . S
H685 C691 0.930 . S
C686 H672 0.930 . S
C686 C684 1.395 . S
C686 C689 1.403 . S
C687 C684 1.403 . S
C687 C688 1.524 . S
C687 C691 1.400 . S
C688 H673 0.960 . S
C688 H674 0.960 . S
C688 H675 0.960 . S
C688 C687 1.524 . S
C689 C686 1.403 . S
C689 C690 1.392 . S
C689 C693 1.495 . S
C690 C689 1.392 . S
C690 C691 1.385 . S
C690 C692 1.478 1_565 S
C691 H685 0.930 . S
C691 C687 1.400 . S
C691 C690 1.385 . S
C692 C690 1.478 1_545 S
C692 C694 1.381 . S
C692 C698 1.383 . S
C693 C689 1.495 . S
C693 H699 0.959 . S
C693 H700 0.971 . S
C693 H701 0.960 . S
C694 C692 1.381 . S
C694 C695 1.394 . S
C694 H702 0.930 . S
C695 C694 1.394 . S
C695 C696 1.383 . S
C695 H703 0.929 . S
C696 C695 1.383 . S
C696 C697 1.377 . S
C697 H681 0.930 . S
C697 C696 1.377 . S
C697 C698 1.379 . S
C698 H682 0.931 . S
C698 C692 1.383 . S
C698 C697 1.379 . S
H699 C693 0.959 . S
H700 C693 0.971 . S
H701 C693 0.960 . S
H702 C694 0.930 . S
H703 C695 0.929 . S
H704 C712 0.929 . S
H705 C714 0.930 . S
H706 C716 0.930 . S
H707 C719 0.929 1_556 S
H708 C722 0.930 . S
H709 C724 0.960 . S
H710 C724 0.960 1_554 S
H711 C724 0.960 . S
C712 H704 0.929 . S
C712 C713 1.377 . S
C712 C714 1.384 . S
C713 C712 1.377 . S
C713 C719 1.390 . S
C714 H705 0.930 . S
C714 C712 1.384 . S
C714 C715 1.372 . S
C715 C714 1.372 . S
C715 C716 1.400 1_554 S
C715 C720 1.490 . S
C716 H706 0.930 . S
C716 C715 1.400 1_556 S
C716 C719 1.386 1_556 S
H717 C733 0.930 . S
H718 C734 0.931 . S
C719 H707 0.929 1_554 S
C719 C713 1.390 . S
C719 C716 1.386 1_554 S
C720 C715 1.490 . S
C720 C722 1.395 . S
C720 C723 1.403 1_554 S
H721 C727 0.930 . S
C722 H708 0.930 . S
C722 C720 1.395 . S
C722 C725 1.403 . S
C723 C720 1.403 1_556 S
C723 C724 1.524 . S
C723 C727 1.400 . S
C724 H709 0.960 . S
C724 H710 0.960 1_556 S
C724 H711 0.960 . S
C724 C723 1.524 . S
C725 C722 1.403 . S
C725 C726 1.392 1_554 S
C725 C729 1.495 . S
C726 C725 1.392 1_556 S
C726 C727 1.385 . S
C726 C728 1.478 . S
C727 H721 0.930 . S
C727 C723 1.400 . S
C727 C726 1.385 . S
C728 C726 1.478 . S
C728 C730 1.381 1_556 S
C728 C734 1.383 . S
C729 C725 1.495 . S
C729 H735 0.959 . S
C729 H736 0.961 1_554 S
C729 H737 0.960 . S
C730 C728 1.381 1_554 S
C730 C731 1.394 1_554 S
C730 H738 0.930 . S
C731 C730 1.394 1_556 S
C731 C732 1.383 . S
C731 H739 0.929 1_556 S
C732 C731 1.383 . S
C732 C733 1.377 . S
C733 H717 0.930 . S
C733 C732 1.377 . S
C733 C734 1.379 . S
C734 H718 0.931 . S
C734 C728 1.383 . S
C734 C733 1.379 . S
H735 C729 0.959 . S
H736 C729 0.961 1_556 S
H737 C729 0.960 . S
H738 C730 0.930 . S
H739 C731 0.929 1_554 S
H740 C748 0.929 . S
H741 C750 0.930 . S
H742 C752 0.930 . S
H743 C755 0.929 . S
H744 C758 0.930 . S
H745 C760 0.960 . S
H746 C760 0.960 . S
H747 C760 0.960 . S
C748 H740 0.929 . S
C748 C749 1.377 . S
C748 C750 1.384 . S
C749 C748 1.377 . S
C749 C755 1.390 . S
C750 H741 0.930 . S
C750 C748 1.384 . S
C750 C751 1.372 . S
C751 C750 1.372 . S
C751 C752 1.400 . S
C751 C756 1.490 . S
C752 H742 0.930 . S
C752 C751 1.400 . S
C752 C755 1.386 . S
H753 C769 0.930 . S
H754 C770 0.931 . S
C755 H743 0.929 . S
C755 C749 1.390 . S
C755 C752 1.386 . S
C756 C751 1.490 . S
C756 C758 1.395 . S
C756 C759 1.403 . S
H757 C763 0.930 . S
C758 H744 0.930 . S
C758 C756 1.395 . S
C758 C761 1.403 . S
C759 C756 1.403 . S
C759 C760 1.524 . S
C759 C763 1.400 . S
C760 H745 0.960 . S
C760 H746 0.960 . S
C760 H747 0.960 . S
C760 C759 1.524 . S
C761 C758 1.403 . S
C761 C762 1.392 . S
C761 C765 1.495 . S
C762 C761 1.392 . S
C762 C763 1.385 . S
C762 C764 1.478 . S
C763 H757 0.930 . S
C763 C759 1.400 . S
C763 C762 1.385 . S
C764 C762 1.478 . S
C764 C766 1.381 . S
C764 C770 1.383 . S
C765 C761 1.495 . S
C765 H771 0.959 . S
C765 H772 0.961 . S
C765 H773 0.960 . S
C766 C764 1.381 . S
C766 C767 1.394 . S
C766 H774 0.930 . S
C767 C766 1.394 . S
C767 C768 1.383 . S
C767 H775 0.929 . S
C768 C767 1.383 . S
C768 C769 1.377 . S
C769 H753 0.930 . S
C769 C768 1.377 . S
C769 C770 1.379 . S
C770 H754 0.931 . S
C770 C764 1.383 . S
C770 C769 1.379 . S
H771 C765 0.959 . S
H772 C765 0.961 . S
H773 C765 0.960 . S
H774 C766 0.930 . S
H775 C767 0.929 . S
H776 C784 0.929 . S
H777 C786 0.930 . S
H778 C788 0.930 1_554 S
H779 C791 0.929 1_554 S
H780 C794 0.930 . S
H781 C796 0.960 . S
H782 C796 0.960 . S
H783 C796 0.960 . S
C784 H776 0.929 . S
C784 C785 1.377 . S
C784 C786 1.384 . S
C785 C784 1.377 . S
C785 C791 1.390 . S
C786 H777 0.930 . S
C786 C784 1.384 . S
C786 C787 1.372 . S
C787 C786 1.372 . S
C787 C788 1.400 . S
C787 C792 1.490 . S
C788 H778 0.930 1_556 S
C788 C787 1.400 . S
C788 C791 1.386 . S
H789 C805 0.930 . S
H790 C806 0.931 . S
C791 H779 0.929 1_556 S
C791 C785 1.390 . S
C791 C788 1.386 . S
C792 C787 1.490 . S
C792 C794 1.395 . S
C792 C795 1.403 . S
H793 C799 0.930 . S
C794 H780 0.930 . S
C794 C792 1.395 . S
C794 C797 1.403 1_556 S
C795 C792 1.403 . S
C795 C796 1.524 . S
C795 C799 1.400 1_556 S
C796 H781 0.960 . S
C796 H782 0.960 . S
C796 H783 0.960 . S
C796 C795 1.524 . S
C797 C794 1.403 1_554 S
C797 C798 1.392 . S
C797 C801 1.495 . S
C798 C797 1.392 . S
C798 C799 1.385 . S
C798 C800 1.478 . S
C799 H793 0.930 . S
C799 C795 1.400 1_554 S
C799 C798 1.385 . S
C800 C798 1.478 . S
C800 C802 1.356 1_554 S
C800 C806 1.383 . S
C801 C797 1.495 . S
C801 H807 0.959 . S
C801 H808 0.961 . S
C801 H809 0.960 1_554 S
C802 C800 1.356 1_556 S
C802 C803 1.394 1_556 S
C802 H810 0.957 . S
C803 C802 1.394 1_554 S
C803 C804 1.383 . S
C803 H811 0.929 1_554 S
C804 C803 1.383 . S
C804 C805 1.377 . S
C805 H789 0.930 . S
C805 C804 1.377 . S
C805 C806 1.379 . S
C806 H790 0.931 . S
C806 C800 1.383 . S
C806 C805 1.379 . S
H807 C801 0.959 . S
H808 C801 0.961 . S
H809 C801 0.960 1_556 S
H810 C802 0.957 . S
H811 C803 0.929 1_556 S
H812 C820 0.929 . S
H813 C822 0.930 . S
H814 C824 0.930 . S
H815 C827 0.929 . S
H816 C830 0.930 . S
H817 C832 0.960 . S
H818 C832 0.960 . S
H819 C832 0.960 . S
C820 H812 0.929 . S
C820 C821 1.377 . S
C820 C822 1.384 . S
C821 C820 1.377 . S
C821 C827 1.390 . S
C822 H813 0.930 . S
C822 C820 1.384 . S
C822 C823 1.372 . S
C823 C822 1.372 . S
C823 C824 1.400 . S
C823 C828 1.490 . S
C824 H814 0.930 . S
C824 C823 1.400 . S
C824 C827 1.386 . S
H825 C841 0.930 . S
H826 C842 0.931 . S
C827 H815 0.929 . S
C827 C821 1.390 . S
C827 C824 1.386 . S
C828 C823 1.490 . S
C828 C830 1.395 . S
C828 C831 1.403 . S
H829 C835 0.930 . S
C830 H816 0.930 . S
C830 C828 1.395 . S
C830 C833 1.403 . S
C831 C828 1.403 . S
C831 C832 1.524 . S
C831 C835 1.400 . S
C832 H817 0.960 . S
C832 H818 0.960 . S
C832 H819 0.960 . S
C832 C831 1.524 . S
C833 C830 1.403 . S
C833 C834 1.392 . S
C833 C837 1.495 . S
C834 C833 1.392 . S
C834 C835 1.385 . S
C834 C836 1.478 . S
C835 H829 0.930 . S
C835 C831 1.400 . S
C835 C834 1.385 . S
C836 C834 1.478 . S
C836 C838 1.381 . S
C836 C842 1.383 . S
C837 C833 1.495 . S
C837 H843 0.959 . S
C837 H844 0.961 . S
C837 H845 0.960 . S
C838 C836 1.381 . S
C838 C839 1.394 . S
C838 H846 0.930 . S
C839 C838 1.394 . S
C839 C840 1.383 . S
C839 H847 0.929 . S
C840 C839 1.383 . S
C840 C841 1.377 . S
C841 H825 0.930 . S
C841 C840 1.377 . S
C841 C842 1.379 . S
C842 H826 0.931 . S
C842 C836 1.383 . S
C842 C841 1.379 . S
H843 C837 0.959 . S
H844 C837 0.961 . S
H845 C837 0.960 . S
H846 C838 0.930 . S
H847 C839 0.929 . S
H848 C856 0.929 . S
H849 C858 0.930 . S
H850 C860 0.930 . S
H851 C863 0.929 . S
H852 C866 0.930 . S
H853 C868 0.960 . S
H854 C868 0.960 . S
H855 C868 0.960 . S
C856 H848 0.929 . S
C856 C857 1.377 . S
C856 C858 1.384 . S
C857 C856 1.377 . S
C857 C863 1.390 . S
C858 H849 0.930 . S
C858 C856 1.384 . S
C858 C859 1.372 . S
C859 C858 1.372 . S
C859 C860 1.400 1_545 S
C859 C864 1.490 1_545 S
C860 H850 0.930 . S
C860 C859 1.400 1_565 S
C860 C863 1.386 1_565 S
H861 C877 0.930 . S
H862 C878 0.931 . S
C863 H851 0.929 . S
C863 C857 1.390 . S
C863 C860 1.386 1_545 S
C864 C859 1.490 1_565 S
C864 C866 1.395 1_565 S
C864 C867 1.403 . S
H865 C871 0.930 . S
C866 H852 0.930 . S
C866 C864 1.395 1_545 S
C866 C869 1.403 . S
C867 C864 1.403 . S
C867 C868 1.524 . S
C867 C871 1.400 . S
C868 H853 0.960 . S
C868 H854 0.960 . S
C868 H855 0.960 . S
C868 C867 1.524 . S
C869 C866 1.403 . S
C869 C870 1.392 1_545 S
C869 C873 1.495 . S
C870 C869 1.392 1_565 S
C870 C871 1.385 . S
C870 C872 1.478 . S
C871 H865 0.930 . S
C871 C867 1.400 . S
C871 C870 1.385 . S
C872 C870 1.478 . S
C872 C874 1.381 . S
C872 C878 1.383 . S
C873 C869 1.495 . S
C873 H879 0.959 . S
C873 H880 0.961 . S
C873 H881 0.960 . S
C874 C872 1.381 . S
C874 C875 1.394 . S
C874 H882 0.930 . S
C875 C874 1.394 . S
C875 C876 1.383 . S
C875 H883 0.929 . S
C876 C875 1.383 . S
C876 C877 1.377 . S
C877 H861 0.930 . S
C877 C876 1.377 . S
C877 C878 1.379 . S
C878 H862 0.931 . S
C878 C872 1.383 . S
C878 C877 1.379 . S
H879 C873 0.959 . S
H880 C873 0.961 . S
H881 C873 0.960 . S
H882 C874 0.930 . S
H883 C875 0.929 . S
H884 C892 0.929 . S
H885 C894 0.930 . S
H886 C896 0.930 . S
H887 C899 0.929 . S
H888 C902 0.930 . S
H889 C904 0.960 . S
H890 C904 0.960 . S
H891 C904 0.960 . S
C892 H884 0.929 . S
C892 C893 1.377 . S
C892 C894 1.384 . S
C893 C892 1.377 . S
C893 C899 1.390 1_545 S
C894 H885 0.930 . S
C894 C892 1.384 . S
C894 C895 1.372 . S
C895 C894 1.372 . S
C895 C896 1.400 1_545 S
C895 C900 1.490 1_545 S
C896 H886 0.930 . S
C896 C895 1.400 1_565 S
C896 C899 1.386 . S
H897 C913 0.930 . S
H898 C914 0.931 . S
C899 H887 0.929 . S
C899 C893 1.390 1_565 S
C899 C896 1.386 . S
C900 C895 1.490 1_565 S
C900 C902 1.395 1_565 S
C900 C903 1.403 . S
H901 C907 0.930 . S
C902 H888 0.930 . S
C902 C900 1.395 1_545 S
C902 C905 1.403 1_545 S
C903 C900 1.403 . S
C903 C904 1.524 . S
C903 C907 1.400 . S
C904 H889 0.960 . S
C904 H890 0.960 . S
C904 H891 0.960 . S
C904 C903 1.524 . S
C905 C902 1.403 1_565 S
C905 C906 1.392 . S
C905 C909 1.495 1_565 S
C906 C905 1.392 . S
C906 C907 1.385 . S
C906 C908 1.478 . S
C907 H901 0.930 . S
C907 C903 1.400 . S
C907 C906 1.385 . S
C908 C906 1.478 . S
C908 C910 1.381 . S
C908 C914 1.383 . S
C909 C905 1.495 1_545 S
C909 H915 0.959 . S
C909 H916 0.961 1_545 S
C909 H917 0.960 . S
C910 C908 1.381 . S
C910 C911 1.394 . S
C910 H918 0.930 1_565 S
C911 C910 1.394 . S
C911 C912 1.383 . S
C911 H919 0.929 . S
C912 C911 1.383 . S
C912 C913 1.377 . S
C913 H897 0.930 . S
C913 C912 1.377 . S
C913 C914 1.379 . S
C914 H898 0.931 . S
C914 C908 1.383 . S
C914 C913 1.379 . S
H915 C909 0.959 . S
H916 C909 0.961 1_565 S
H917 C909 0.960 . S
H918 C910 0.930 1_545 S
H919 C911 0.929 . S
H920 C928 0.929 . S
H921 C930 0.930 . S
H922 C932 0.930 . S
H923 C935 0.929 . S
H924 C938 0.930 . S
H925 C940 0.960 . S
H926 C940 0.960 . S
H927 C940 0.960 . S
C928 H920 0.929 . S
C928 C929 1.377 . S
C928 C930 1.384 . S
C929 C928 1.377 . S
C929 C935 1.390 . S
C930 H921 0.930 . S
C930 C928 1.384 . S
C930 C931 1.372 . S
C931 C930 1.372 . S
C931 C932 1.400 . S
C931 C936 1.490 . S
C932 H922 0.930 . S
C932 C931 1.400 . S
C932 C935 1.386 . S
H933 C949 0.930 . S
H934 C950 0.931 . S
C935 H923 0.929 . S
C935 C929 1.390 . S
C935 C932 1.386 . S
C936 C931 1.490 . S
C936 C938 1.395 . S
C936 C939 1.403 1_545 S
H937 C943 0.930 . S
C938 H924 0.930 . S
C938 C936 1.395 . S
C938 C941 1.403 . S
C939 C936 1.403 1_565 S
C939 C940 1.524 . S
C939 C943 1.400 . S
C940 H925 0.960 . S
C940 H926 0.960 . S
C940 H927 0.960 . S
C940 C939 1.524 . S
C941 C938 1.403 . S
C941 C942 1.392 . S
C941 C945 1.495 . S
C942 C941 1.392 . S
C942 C943 1.385 1_545 S
C942 C944 1.476 1_545 S
C943 H937 0.930 . S
C943 C939 1.400 . S
C943 C942 1.385 1_565 S
C944 C942 1.476 1_565 S
C944 C946 1.381 . S
C944 C950 1.385 . S
C945 C941 1.495 . S
C945 H951 0.959 . S
C945 H952 0.961 . S
C945 H953 0.960 . S
C946 C944 1.381 . S
C946 C947 1.394 . S
C946 H954 0.930 1_565 S
C947 C946 1.394 . S
C947 C948 1.383 . S
C947 H955 0.929 . S
C948 C947 1.383 . S
C948 C949 1.377 . S
C949 H933 0.930 . S
C949 C948 1.377 . S
C949 C950 1.379 . S
C950 H934 0.931 . S
C950 C944 1.385 . S
C950 C949 1.379 . S
H951 C945 0.959 . S
H952 C945 0.961 . S
H953 C945 0.960 . S
H954 C946 0.930 1_545 S
H955 C947 0.929 . S
H956 C964 0.929 . S
H957 C966 0.930 . S
H958 C968 0.930 . S
H959 C971 0.929 . S
H960 C974 0.930 . S
H961 C976 0.960 . S
H962 C976 0.960 . S
H963 C976 0.960 . S
C964 H956 0.929 . S
C964 C965 1.377 1_545 S
C964 C966 1.384 . S
C965 C964 1.377 1_565 S
C965 C971 1.390 . S
C966 H957 0.930 . S
C966 C964 1.384 . S
C966 C967 1.372 1_545 S
C967 C966 1.372 1_565 S
C967 C968 1.400 . S
C967 C972 1.490 1_565 S
C968 H958 0.930 . S
C968 C967 1.400 . S
C968 C971 1.386 . S
H969 C985 0.930 . S
H970 C986 0.931 . S
C971 H959 0.929 . S
C971 C965 1.390 . S
C971 C968 1.386 . S
C972 C967 1.490 1_545 S
C972 C974 1.395 . S
C972 C975 1.406 . S
H973 C979 0.930 . S
C974 H960 0.930 . S
C974 C972 1.395 . S
C974 C977 1.403 . S
C975 C972 1.406 . S
C975 C976 1.515 1_545 S
C975 C979 1.405 . S
C976 H961 0.960 . S
C976 H962 0.960 . S
C976 H963 0.960 . S
C976 C975 1.515 1_565 S
C977 C974 1.403 . S
C977 C978 1.392 . S
C977 C981 1.495 . S
C978 C977 1.392 . S
C978 C979 1.385 . S
C978 C980 1.478 . S
C979 H973 0.930 . S
C979 C975 1.405 . S
C979 C978 1.385 . S
C980 C978 1.478 . S
C980 C982 1.381 . S
C980 C986 1.383 . S
C981 C977 1.495 . S
C981 H987 0.959 . S
C981 H988 0.961 . S
C981 H989 0.960 . S
C982 C980 1.381 . S
C982 C983 1.394 . S
C982 H990 0.930 . S
C983 C982 1.394 . S
C983 C984 1.383 . S
C983 H991 0.929 . S
C984 C983 1.383 . S
C984 C985 1.377 . S
C985 H969 0.930 . S
C985 C984 1.377 . S
C985 C986 1.379 . S
C986 H970 0.931 . S
C986 C980 1.383 . S
C986 C985 1.379 . S
H987 C981 0.959 . S
H988 C981 0.961 . S
H989 C981 0.960 . S
H990 C982 0.930 . S
H991 C983 0.929 . S
H992 C1000 0.929 . S
H993 C1002 0.930 . S
H994 C1004 0.930 . S
H995 C1007 0.929 . S
H996 C1010 0.930 . S
H997 C1012 0.960 . S
H998 C1012 0.960 . S
H999 C1012 0.960 . S
C1000 H992 0.929 . S
C1000 C1001 1.377 . S
C1000 C1002 1.384 . S
C1001 C1000 1.377 . S
C1001 C1007 1.390 . S
C1002 H993 0.930 . S
C1002 C1000 1.384 . S
C1002 C1003 1.372 . S
C1003 C1002 1.372 . S
C1003 C1004 1.400 . S
C1003 C1008 1.490 . S
C1004 H994 0.930 . S
C1004 C1003 1.400 . S
C1004 C1007 1.386 . S
H1005 C1021 0.930 . S
H1006 C1022 0.931 . S
C1007 H995 0.929 . S
C1007 C1001 1.390 . S
C1007 C1004 1.386 . S
C1008 C1003 1.490 . S
C1008 C1010 1.395 . S
C1008 C1011 1.403 . S
H1009 C1015 0.930 . S
C1010 H996 0.930 . S
C1010 C1008 1.395 . S
C1010 C1013 1.403 . S
C1011 C1008 1.403 . S
C1011 C1012 1.524 . S
C1011 C1015 1.400 . S
C1012 H997 0.960 . S
C1012 H998 0.960 . S
C1012 H999 0.960 . S
C1012 C1011 1.524 . S
C1013 C1010 1.403 . S
C1013 C1014 1.392 . S
C1013 C1017 1.495 . S
C1014 C1013 1.392 . S
C1014 C1015 1.385 . S
C1014 C1016 1.478 . S
C1015 H1009 0.930 . S
C1015 C1011 1.400 . S
C1015 C1014 1.385 . S
C1016 C1014 1.478 . S
C1016 C1018 1.381 . S
C1016 C1022 1.383 . S
C1017 C1013 1.495 . S
C1017 H1023 0.959 . S
C1017 H1024 0.961 . S
C1017 H1025 0.960 . S
C1018 C1016 1.381 . S
C1018 C1019 1.394 . S
C1018 H1026 0.930 . S
C1019 C1018 1.394 . S
C1019 C1020 1.383 . S
C1019 H1027 0.929 . S
C1020 C1019 1.383 . S
C1020 C1021 1.377 . S
C1021 H1005 0.930 . S
C1021 C1020 1.377 . S
C1021 C1022 1.379 . S
C1022 H1006 0.931 . S
C1022 C1016 1.383 . S
C1022 C1021 1.379 . S
H1023 C1017 0.959 . S
H1024 C1017 0.961 . S
H1025 C1017 0.960 . S
H1026 C1018 0.930 . S
H1027 C1019 0.929 . S
H1028 C1036 0.929 . S
H1029 C1038 0.930 . S
H1030 C1040 0.930 . S
H1031 C1043 0.929 . S
H1032 C1046 0.930 . S
H1033 C1048 0.960 . S
H1034 C1048 0.960 . S
H1035 C1048 0.960 . S
C1036 H1028 0.929 . S
C1036 C1037 1.377 . S
C1036 C1038 1.384 . S
C1037 C1036 1.377 . S
C1037 C1043 1.390 . S
C1038 H1029 0.930 . S
C1038 C1036 1.384 . S
C1038 C1039 1.372 . S
C1039 C1038 1.372 . S
C1039 C1040 1.400 . S
C1039 C1044 1.490 . S
C1040 H1030 0.930 . S
C1040 C1039 1.400 . S
C1040 C1043 1.386 . S
H1041 C1057 0.930 . S
H1042 C1058 0.931 . S
C1043 H1031 0.929 . S
C1043 C1037 1.390 . S
C1043 C1040 1.386 . S
C1044 C1039 1.490 . S
C1044 C1046 1.395 . S
C1044 C1047 1.403 . S
H1045 C1051 0.930 . S
C1046 H1032 0.930 . S
C1046 C1044 1.395 . S
C1046 C1049 1.403 . S
C1047 C1044 1.403 . S
C1047 C1048 1.524 . S
C1047 C1051 1.400 . S
C1048 H1033 0.960 . S
C1048 H1034 0.960 . S
C1048 H1035 0.960 . S
C1048 C1047 1.524 . S
C1049 C1046 1.403 . S
C1049 C1050 1.392 . S
C1049 C1053 1.495 . S
C1050 C1049 1.392 . S
C1050 C1051 1.385 . S
C1050 C1052 1.478 . S
C1051 H1045 0.930 . S
C1051 C1047 1.400 . S
C1051 C1050 1.385 . S
C1052 C1050 1.478 . S
C1052 C1054 1.381 . S
C1052 C1058 1.383 . S
C1053 C1049 1.495 . S
C1053 H1059 0.959 . S
C1053 H1060 0.961 . S
C1053 H1061 0.960 . S
C1054 C1052 1.381 . S
C1054 C1055 1.394 . S
C1054 H1062 0.930 . S
C1055 C1054 1.394 . S
C1055 C1056 1.383 . S
C1055 H1063 0.929 . S
C1056 C1055 1.383 . S
C1056 C1057 1.377 . S
C1057 H1041 0.930 . S
C1057 C1056 1.377 . S
C1057 C1058 1.379 . S
C1058 H1042 0.931 . S
C1058 C1052 1.383 . S
C1058 C1057 1.379 . S
H1059 C1053 0.959 . S
H1060 C1053 0.961 . S
H1061 C1053 0.960 . S
H1062 C1054 0.930 . S
H1063 C1055 0.929 . S
H1064 C1072 0.929 . S
H1065 C1074 0.930 . S
H1066 C1076 0.930 . S
H1067 C1079 0.929 . S
H1068 C1082 0.930 . S
H1069 C1084 0.960 . S
H1070 C1084 0.960 . S
H1071 C1084 0.960 . S
C1072 H1064 0.929 . S
C1072 C1073 1.377 . S
C1072 C1074 1.384 . S
C1073 C1072 1.377 . S
C1073 C1079 1.390 . S
C1074 H1065 0.930 . S
C1074 C1072 1.384 . S
C1074 C1075 1.372 . S
C1075 C1074 1.372 . S
C1075 C1076 1.400 . S
C1075 C1080 1.490 . S
C1076 H1066 0.930 . S
C1076 C1075 1.400 . S
C1076 C1079 1.386 . S
H1077 C1093 0.930 . S
H1078 C1094 0.931 . S
C1079 H1067 0.929 . S
C1079 C1073 1.390 . S
C1079 C1076 1.386 . S
C1080 C1075 1.490 . S
C1080 C1082 1.395 . S
C1080 C1083 1.403 . S
H1081 C1087 0.930 . S
C1082 H1068 0.930 . S
C1082 C1080 1.395 . S
C1082 C1085 1.403 . S
C1083 C1080 1.403 . S
C1083 C1084 1.524 . S
C1083 C1087 1.400 . S
C1084 H1069 0.960 . S
C1084 H1070 0.960 . S
C1084 H1071 0.960 . S
C1084 C1083 1.524 . S
C1085 C1082 1.403 . S
C1085 C1086 1.392 . S
C1085 C1089 1.495 . S
C1086 C1085 1.392 . S
C1086 C1087 1.385 . S
C1086 C1088 1.478 . S
C1087 H1081 0.930 . S
C1087 C1083 1.400 . S
C1087 C1086 1.385 . S
C1088 C1086 1.478 . S
C1088 C1090 1.381 . S
C1088 C1094 1.383 . S
C1089 C1085 1.495 . S
C1089 H1095 0.959 . S
C1089 H1096 0.961 . S
C1089 H1097 0.960 . S
C1090 C1088 1.381 . S
C1090 C1091 1.394 . S
C1090 H1098 0.930 . S
C1091 C1090 1.394 . S
C1091 C1092 1.383 . S
C1091 H1099 0.929 . S
C1092 C1091 1.383 . S
C1092 C1093 1.377 . S
C1093 H1077 0.930 . S
C1093 C1092 1.377 . S
C1093 C1094 1.379 . S
C1094 H1078 0.931 . S
C1094 C1088 1.383 . S
C1094 C1093 1.379 . S
H1095 C1089 0.959 . S
H1096 C1089 0.961 . S
H1097 C1089 0.960 . S
H1098 C1090 0.930 . S
H1099 C1091 0.929 . S
H1100 C1108 0.929 . S
H1101 C1110 0.930 . S
H1102 C1112 0.930 . S
H1103 C1115 0.929 . S
H1104 C1118 0.930 . S
H1105 C1120 0.960 . S
H1106 C1120 0.960 . S
H1107 C1120 0.960 . S
C1108 H1100 0.929 . S
C1108 C1109 1.377 . S
C1108 C1110 1.384 . S
C1109 C1108 1.377 . S
C1109 C1115 1.390 . S
C1110 H1101 0.930 . S
C1110 C1108 1.384 . S
C1110 C1111 1.372 . S
C1111 C1110 1.372 . S
C1111 C1112 1.400 . S
C1111 C1116 1.490 . S
C1112 H1102 0.930 . S
C1112 C1111 1.400 . S
C1112 C1115 1.386 . S
H1113 C1129 0.930 . S
H1114 C1130 0.931 . S
C1115 H1103 0.929 . S
C1115 C1109 1.390 . S
C1115 C1112 1.386 . S
C1116 C1111 1.490 . S
C1116 C1118 1.395 . S
C1116 C1119 1.403 . S
H1117 C1123 0.930 . S
C1118 H1104 0.930 . S
C1118 C1116 1.395 . S
C1118 C1121 1.403 . S
C1119 C1116 1.403 . S
C1119 C1120 1.524 . S
C1119 C1123 1.400 . S
C1120 H1105 0.960 . S
C1120 H1106 0.960 . S
C1120 H1107 0.960 . S
C1120 C1119 1.524 . S
C1121 C1118 1.403 . S
C1121 C1122 1.392 . S
C1121 C1125 1.495 . S
C1122 C1121 1.392 . S
C1122 C1123 1.385 . S
C1122 C1124 1.478 . S
C1123 H1117 0.930 . S
C1123 C1119 1.400 . S
C1123 C1122 1.385 . S
C1124 C1122 1.478 . S
C1124 C1126 1.381 . S
C1124 C1130 1.383 . S
C1125 C1121 1.495 . S
C1125 H1131 0.959 . S
C1125 H1132 0.961 . S
C1125 H1133 0.960 . S
C1126 C1124 1.381 . S
C1126 C1127 1.394 . S
C1126 H1134 0.930 . S
C1127 C1126 1.394 . S
C1127 C1128 1.383 . S
C1127 H1135 0.929 . S
C1128 C1127 1.383 . S
C1128 C1129 1.377 . S
C1129 H1113 0.930 . S
C1129 C1128 1.377 . S
C1129 C1130 1.379 . S
C1130 H1114 0.931 . S
C1130 C1124 1.383 . S
C1130 C1129 1.379 . S
H1131 C1125 0.959 . S
H1132 C1125 0.961 . S
H1133 C1125 0.960 . S
H1134 C1126 0.930 . S
H1135 C1127 0.929 . S
H1136 C1144 0.929 1_556 S
H1137 C1146 0.930 1_556 S
H1138 C1148 0.930 1_565 S
H1139 C1151 0.929 . S
H1140 C1154 0.930 . S
H1141 C1156 0.960 . S
H1142 C1156 0.960 . S
H1143 C1156 0.960 . S
C1144 H1136 0.929 1_554 S
C1144 C1145 1.377 . S
C1144 C1146 1.384 . S
C1145 C1144 1.377 . S
C1145 C1151 1.390 . S
C1146 H1137 0.930 1_554 S
C1146 C1144 1.384 . S
C1146 C1147 1.372 . S
C1147 C1146 1.372 . S
C1147 C1148 1.400 . S
C1147 C1152 1.490 . S
C1148 H1138 0.930 1_545 S
C1148 C1147 1.400 . S
C1148 C1151 1.386 . S
H1149 C1165 0.930 1_554 S
H1150 C1166 0.931 1_554 S
C1151 H1139 0.929 . S
C1151 C1145 1.390 . S
C1151 C1148 1.386 . S
C1152 C1147 1.490 . S
C1152 C1154 1.395 1_554 S
C1152 C1155 1.403 1_545 S
H1153 C1159 0.930 . S
C1154 H1140 0.930 . S
C1154 C1152 1.395 1_556 S
C1154 C1157 1.403 . S
C1155 C1152 1.403 1_565 S
C1155 C1156 1.524 . S
C1155 C1159 1.400 1_554 S
C1156 H1141 0.960 . S
C1156 H1142 0.960 . S
C1156 H1143 0.960 . S
C1156 C1155 1.524 . S
C1157 C1154 1.403 . S
C1157 C1158 1.392 . S
C1157 C1161 1.495 . S
C1158 C1157 1.392 . S
C1158 C1159 1.385 1_545 S
C1158 C1160 1.478 1_545 S
C1159 H1153 0.930 . S
C1159 C1155 1.400 1_556 S
C1159 C1158 1.385 1_565 S
C1160 C1158 1.478 1_565 S
C1160 C1162 1.381 . S
C1160 C1166 1.383 . S
C1161 C1157 1.495 . S
C1161 H1167 0.959 . S
C1161 H1168 0.961 . S
C1161 H1169 0.960 . S
C1162 C1160 1.381 . S
C1162 C1163 1.394 . S
C1162 H1170 0.930 1_565 S
C1163 C1162 1.394 . S
C1163 C1164 1.383 . S
C1163 H1171 0.929 . S
C1164 C1163 1.383 . S
C1164 C1165 1.377 . S
C1165 H1149 0.930 1_556 S
C1165 C1164 1.377 . S
C1165 C1166 1.379 . S
C1166 H1150 0.931 1_556 S
C1166 C1160 1.383 . S
C1166 C1165 1.379 . S
H1167 C1161 0.959 . S
H1168 C1161 0.961 . S
H1169 C1161 0.960 . S
H1170 C1162 0.930 1_545 S
H1171 C1163 0.929 . S
H1172 C1180 0.929 . S
H1173 C1182 0.930 . S
H1174 C1184 0.930 . S
H1175 C1187 0.929 . S
H1176 C1190 0.930 . S
H1177 C1192 0.960 . S
H1178 C1192 0.960 . S
H1179 C1192 0.960 . S
C1180 H1172 0.929 . S
C1180 C1181 1.377 1_565 S
C1180 C1182 1.384 . S
C1181 C1180 1.377 1_545 S
C1181 C1187 1.390 . S
C1182 H1173 0.930 . S
C1182 C1180 1.384 . S
C1182 C1183 1.372 1_565 S
C1183 C1182 1.372 1_545 S
C1183 C1184 1.400 . S
C1183 C1188 1.490 . S
C1184 H1174 0.930 . S
C1184 C1183 1.400 . S
C1184 C1187 1.386 . S
H1185 C1201 0.930 . S
H1186 C1202 0.931 . S
C1187 H1175 0.929 . S
C1187 C1181 1.390 . S
C1187 C1184 1.386 . S
C1188 C1183 1.490 . S
C1188 C1190 1.395 1_545 S
C1188 C1191 1.403 . S
H1189 C1195 0.930 . S
C1190 H1176 0.930 . S
C1190 C1188 1.395 1_565 S
C1190 C1193 1.403 . S
C1191 C1188 1.403 . S
C1191 C1192 1.524 . S
C1191 C1195 1.400 . S
C1192 H1177 0.960 . S
C1192 H1178 0.960 . S
C1192 H1179 0.960 . S
C1192 C1191 1.524 . S
C1193 C1190 1.403 . S
C1193 C1194 1.392 . S
C1193 C1197 1.495 . S
C1194 C1193 1.392 . S
C1194 C1195 1.385 1_565 S
C1194 C1196 1.478 . S
C1195 H1189 0.930 . S
C1195 C1191 1.400 . S
C1195 C1194 1.385 1_545 S
C1196 C1194 1.478 . S
C1196 C1198 1.381 . S
C1196 C1202 1.383 1_565 S
C1197 C1193 1.495 . S
C1197 H1203 0.959 . S
C1197 H1204 0.961 . S
C1197 H1205 0.960 . S
C1198 C1196 1.381 . S
C1198 C1199 1.394 . S
C1198 H1206 0.930 . S
C1199 C1198 1.394 . S
C1199 C1200 1.383 . S
C1199 H1207 0.929 . S
C1200 C1199 1.383 . S
C1200 C1201 1.377 1_565 S
C1201 H1185 0.930 . S
C1201 C1200 1.377 1_545 S
C1201 C1202 1.379 . S
C1202 H1186 0.931 . S
C1202 C1196 1.383 1_545 S
C1202 C1201 1.379 . S
H1203 C1197 0.959 . S
H1204 C1197 0.961 . S
H1205 C1197 0.960 . S
H1206 C1198 0.930 . S
H1207 C1199 0.929 . S
H1208 C1216 0.929 . S
H1209 C1218 0.930 . S
H1210 C1220 0.930 . S
H1211 C1223 0.929 . S
H1212 C1226 0.930 . S
H1213 C1228 0.960 . S
H1214 C1228 0.960 . S
H1215 C1228 0.960 1_655 S
C1216 H1208 0.929 . S
C1216 C1217 1.377 . S
C1216 C1218 1.384 . S
C1217 C1216 1.377 . S
C1217 C1223 1.390 . S
C1218 H1209 0.930 . S
C1218 C1216 1.384 . S
C1218 C1219 1.372 . S
C1219 C1218 1.372 . S
C1219 C1220 1.400 . S
C1219 C1224 1.490 . S
C1220 H1210 0.930 . S
C1220 C1219 1.400 . S
C1220 C1223 1.386 . S
H1221 C1237 0.930 . S
H1222 C1238 0.931 . S
C1223 H1211 0.929 . S
C1223 C1217 1.390 . S
C1223 C1220 1.386 . S
C1224 C1219 1.490 . S
C1224 C1226 1.395 1_554 S
C1224 C1227 1.403 1_655 S
H1225 C1231 0.930 . S
C1226 H1212 0.930 . S
C1226 C1224 1.395 1_556 S
C1226 C1229 1.403 . S
C1227 C1224 1.403 1_455 S
C1227 C1228 1.524 . S
C1227 C1231 1.400 . S
C1228 H1213 0.960 . S
C1228 H1214 0.960 . S
C1228 H1215 0.960 1_455 S
C1228 C1227 1.524 . S
C1229 C1226 1.403 . S
C1229 C1230 1.392 1_655 S
C1229 C1233 1.495 . S
C1230 C1229 1.392 1_455 S
C1230 C1231 1.385 1_556 S
C1230 C1232 1.478 . S
C1231 H1225 0.930 . S
C1231 C1227 1.400 . S
C1231 C1230 1.385 1_554 S
C1232 C1230 1.478 . S
C1232 C1234 1.381 . S
C1232 C1238 1.383 . S
C1233 C1229 1.495 . S
C1233 H1239 0.959 . S
C1233 H1240 0.961 . S
C1233 H1241 0.960 1_655 S
C1234 C1232 1.381 . S
C1234 C1235 1.394 . S
C1234 H1242 0.930 . S
C1235 C1234 1.394 . S
C1235 C1236 1.383 . S
C1235 H1243 0.929 . S
C1236 C1235 1.383 . S
C1236 C1237 1.377 . S
C1237 H1221 0.930 . S
C1237 C1236 1.377 . S
C1237 C1238 1.379 . S
C1238 H1222 0.931 . S
C1238 C1232 1.383 . S
C1238 C1237 1.379 . S
H1239 C1233 0.959 . S
H1240 C1233 0.961 . S
H1241 C1233 0.960 1_455 S
H1242 C1234 0.930 . S
H1243 C1235 0.929 . S
H1244 C1252 0.929 . S
H1245 C1254 0.930 . S
H1246 C1256 0.930 . S
H1247 C1259 0.929 . S
H1248 C1262 0.930 . S
H1249 C1264 0.960 . S
H1250 C1264 0.960 . S
H1251 C1264 0.960 . S
C1252 H1244 0.929 . S
C1252 C1253 1.377 . S
C1252 C1254 1.384 . S
C1253 C1252 1.377 . S
C1253 C1259 1.390 . S
C1254 H1245 0.930 . S
C1254 C1252 1.384 . S
C1254 C1255 1.372 . S
C1255 C1254 1.372 . S
C1255 C1256 1.400 . S
C1255 C1260 1.490 . S
C1256 H1246 0.930 . S
C1256 C1255 1.400 . S
C1256 C1259 1.386 . S
H1257 C1273 0.930 . S
H1258 C1274 0.931 . S
C1259 H1247 0.929 . S
C1259 C1253 1.390 . S
C1259 C1256 1.386 . S
C1260 C1255 1.490 . S
C1260 C1262 1.395 1_455 S
C1260 C1263 1.403 . S
H1261 C1267 0.937 1_455 S
C1262 H1248 0.930 . S
C1262 C1260 1.395 1_655 S
C1262 C1265 1.403 . S
C1263 C1260 1.403 . S
C1263 C1264 1.524 . S
C1263 C1267 1.366 1_455 S
C1264 H1249 0.960 . S
C1264 H1250 0.960 . S
C1264 H1251 0.960 . S
C1264 C1263 1.524 . S
C1265 C1262 1.403 . S
C1265 C1266 1.392 . S
C1265 C1269 1.495 . S
C1266 C1265 1.392 . S
C1266 C1267 1.411 . S
C1266 C1268 1.478 . S
C1267 H1261 0.937 1_655 S
C1267 C1263 1.366 1_655 S
C1267 C1266 1.411 . S
C1268 C1266 1.478 . S
C1268 C1270 1.381 . S
C1268 C1274 1.383 . S
C1269 C1265 1.495 . S
C1269 H1275 0.959 . S
C1269 H1276 0.961 . S
C1269 H1277 0.960 . S
C1270 C1268 1.381 . S
C1270 C1271 1.394 . S
C1270 H1278 0.930 . S
C1271 C1270 1.394 . S
C1271 C1272 1.383 . S
C1271 H1279 0.929 . S
C1272 C1271 1.383 . S
C1272 C1273 1.377 . S
C1273 H1257 0.930 . S
C1273 C1272 1.377 . S
C1273 C1274 1.379 . S
C1274 H1258 0.931 . S
C1274 C1268 1.383 . S
C1274 C1273 1.379 . S
H1275 C1269 0.959 . S
H1276 C1269 0.961 . S
H1277 C1269 0.960 . S
H1278 C1270 0.930 . S
H1279 C1271 0.929 . S
C281 C35 1.624 . S
C300 C3 1.610 . S
C317 C105 1.621 . S
C336 C71 1.604 . S
C353 C139 1.619 . S
C372 C173 1.637 . S
C389 C207 1.615 . S
C408 C239 1.586 . S
C425 C22 1.225 . S
C444 C15 1.275 . S
C461 C49 1.233 . S
C480 C56 1.259 . S
C497 C83 1.235 . S
C516 C90 1.205 . S
C533 C124 1.217 . S
C552 C117 1.244 . S
C569 C158 1.229 . S
C588 C151 1.200 . S
C605 C192 1.217 . S
C624 C185 1.176 . S
C641 C219 1.234 . S
C660 C226 1.200 . S
C677 C253 1.213 . S
C696 C260 1.187 . S
C713 C17 1.750 . S
C732 C221 1.761 . S
C749 C51 1.750 . S
C768 C255 1.762 . S
C785 C85 1.746 . S
C804 C153 1.727 . S
C821 C187 1.750 . S
C840 C119 1.762 . S
C857 C6 1.597 . S
C876 C130 1.553 . S
C893 C62 1.600 . S
C912 C96 1.560 . S
C929 C40 1.574 . S
C948 C74 1.579 . S
C965 C108 1.597 . S
C984 C28 1.580 . S
C1001 C244 1.573 . S
C1020 C142 1.592 . S
C1037 C176 1.598 . S
C1056 C232 1.554 . S
C1073 C198 1.575 . S
C1092 C210 1.579 . S
C1109 C164 1.583 . S
C1128 C266 1.605 . S
C1145 C1 1.790 . S
C1164 C69 1.797 . S
C1181 C37 1.781 . S
C1200 C103 1.752 . S
C1217 C137 1.781 . S
C1236 C205 1.752 . S
C1253 C171 1.784 . S
C1272 C241 1.806 . S
