# Generated by pormake.
# Topology unb, (4)-cn, num edge types: 1
# Building blocks:
#     Node 0, Type 0, BuildingBlock: ICAMEG_clean_sbu_1, # of connection points: 4
#     Node 1, Type 0, BuildingBlock: ICAMEG_clean_sbu_1, # of connection points: 4
#     Node 2, Type 0, BuildingBlock: ICAMEG_clean_sbu_1, # of connection points: 4
#     Node 3, Type 0, BuildingBlock: ICAMEG_clean_sbu_1, # of connection points: 4
#     Node 4, Type 0, BuildingBlock: ICAMEG_clean_sbu_1, # of connection points: 4
#     Node 5, Type 0, BuildingBlock: ICAMEG_clean_sbu_1, # of connection points: 4
#     Node 6, Type 0, BuildingBlock: ICAMEG_clean_sbu_1, # of connection points: 4
#     Node 7, Type 0, BuildingBlock: ICAMEG_clean_sbu_1, # of connection points: 4
#     Node 8, Type 0, BuildingBlock: ICAMEG_clean_sbu_1, # of connection points: 4
#     Node 9, Type 0, BuildingBlock: ICAMEG_clean_sbu_1, # of connection points: 4
#     Node 10, Type 0, BuildingBlock: ICAMEG_clean_sbu_1, # of connection points: 4
#     Node 11, Type 0, BuildingBlock: ICAMEG_clean_sbu_1, # of connection points: 4
#     Node 12, Type 0, BuildingBlock: ICAMEG_clean_sbu_1, # of connection points: 4
#     Node 13, Type 0, BuildingBlock: ICAMEG_clean_sbu_1, # of connection points: 4
#     Node 14, Type 0, BuildingBlock: ICAMEG_clean_sbu_1, # of connection points: 4
#     Node 15, Type 0, BuildingBlock: ICAMEG_clean_sbu_1, # of connection points: 4
#     Node 16, Type 0, BuildingBlock: ICAMEG_clean_sbu_1, # of connection points: 4
#     Node 17, Type 0, BuildingBlock: ICAMEG_clean_sbu_1, # of connection points: 4
#     Edge 18, Type (0, 0), BuildingBlock: ZUJKAS_clean_linker_0, # of connection points: 2
#     Edge 19, Type (0, 0), BuildingBlock: ZUJKAS_clean_linker_0, # of connection points: 2
#     Edge 20, Type (0, 0), BuildingBlock: ZUJKAS_clean_linker_0, # of connection points: 2
#     Edge 21, Type (0, 0), BuildingBlock: ZUJKAS_clean_linker_0, # of connection points: 2
#     Edge 22, Type (0, 0), BuildingBlock: ZUJKAS_clean_linker_0, # of connection points: 2
#     Edge 23, Type (0, 0), BuildingBlock: ZUJKAS_clean_linker_0, # of connection points: 2
#     Edge 24, Type (0, 0), BuildingBlock: ZUJKAS_clean_linker_0, # of connection points: 2
#     Edge 25, Type (0, 0), BuildingBlock: ZUJKAS_clean_linker_0, # of connection points: 2
#     Edge 26, Type (0, 0), BuildingBlock: ZUJKAS_clean_linker_0, # of connection points: 2
#     Edge 27, Type (0, 0), BuildingBlock: ZUJKAS_clean_linker_0, # of connection points: 2
#     Edge 28, Type (0, 0), BuildingBlock: ZUJKAS_clean_linker_0, # of connection points: 2
#     Edge 29, Type (0, 0), BuildingBlock: ZUJKAS_clean_linker_0, # of connection points: 2
#     Edge 30, Type (0, 0), BuildingBlock: ZUJKAS_clean_linker_0, # of connection points: 2
#     Edge 31, Type (0, 0), BuildingBlock: ZUJKAS_clean_linker_0, # of connection points: 2
#     Edge 32, Type (0, 0), BuildingBlock: ZUJKAS_clean_linker_0, # of connection points: 2
#     Edge 33, Type (0, 0), BuildingBlock: ZUJKAS_clean_linker_0, # of connection points: 2
#     Edge 34, Type (0, 0), BuildingBlock: ZUJKAS_clean_linker_0, # of connection points: 2
#     Edge 35, Type (0, 0), BuildingBlock: ZUJKAS_clean_linker_0, # of connection points: 2
#     Edge 36, Type (0, 0), BuildingBlock: ZUJKAS_clean_linker_0, # of connection points: 2
#     Edge 37, Type (0, 0), BuildingBlock: ZUJKAS_clean_linker_0, # of connection points: 2
#     Edge 38, Type (0, 0), BuildingBlock: ZUJKAS_clean_linker_0, # of connection points: 2
#     Edge 39, Type (0, 0), BuildingBlock: ZUJKAS_clean_linker_0, # of connection points: 2
#     Edge 40, Type (0, 0), BuildingBlock: ZUJKAS_clean_linker_0, # of connection points: 2
#     Edge 41, Type (0, 0), BuildingBlock: ZUJKAS_clean_linker_0, # of connection points: 2
#     Edge 42, Type (0, 0), BuildingBlock: ZUJKAS_clean_linker_0, # of connection points: 2
#     Edge 43, Type (0, 0), BuildingBlock: ZUJKAS_clean_linker_0, # of connection points: 2
#     Edge 44, Type (0, 0), BuildingBlock: ZUJKAS_clean_linker_0, # of connection points: 2
#     Edge 45, Type (0, 0), BuildingBlock: ZUJKAS_clean_linker_0, # of connection points: 2
#     Edge 46, Type (0, 0), BuildingBlock: ZUJKAS_clean_linker_0, # of connection points: 2
#     Edge 47, Type (0, 0), BuildingBlock: ZUJKAS_clean_linker_0, # of connection points: 2
#     Edge 48, Type (0, 0), BuildingBlock: ZUJKAS_clean_linker_0, # of connection points: 2
#     Edge 49, Type (0, 0), BuildingBlock: ZUJKAS_clean_linker_0, # of connection points: 2
#     Edge 50, Type (0, 0), BuildingBlock: ZUJKAS_clean_linker_0, # of connection points: 2
#     Edge 51, Type (0, 0), BuildingBlock: ZUJKAS_clean_linker_0, # of connection points: 2
#     Edge 52, Type (0, 0), BuildingBlock: ZUJKAS_clean_linker_0, # of connection points: 2
#     Edge 53, Type (0, 0), BuildingBlock: ZUJKAS_clean_linker_0, # of connection points: 2
# Relax obj value: 0.100
# Max RMSD: 0.096
# Mean RMSD: 0.095
data_MOF--net-unb--node1-ICAMEG_clean_sbu_1--edge1-ZUJKAS_clean_linker_0
_symmetry_space_group_name_H-M    P1
_symmetry_Int_Tables_number       1
_symmetry_cell_setting            triclinic
loop_
_symmetry_equiv_pos_as_xyz
'x, y, z'
_cell_length_a     81.2947
_cell_length_b     81.233774
_cell_length_c     37.553389
_cell_angle_alpha  90.039074
_cell_angle_beta   90.004718
_cell_angle_gamma 120.0354
loop_
_atom_site_label
_atom_site_type_symbol
_atom_site_fract_x
_atom_site_fract_y
_atom_site_fract_z
_atom_type_partial_charge
Co0 Co 0.16488 0.29594 0.08004 0.0
Co1 Co 0.12607 0.25379 0.05358 0.0
O2 O 0.13831 0.27552 0.08635 0.0
C3 C 0.16024 0.28839 0.15939 0.0
O4 O 0.14548 0.27145 0.15415 0.0
C5 C 0.09682 0.26567 0.0499 0.0
O6 O 0.11023 0.28289 0.04125 0.0
O7 O 0.13269 0.27122 0.01233 0.0
O8 O 0.162 0.29432 0.02698 0.0
H9 H 0.12177 0.21742 0.94233 0.0
H10 H 0.13862 0.30201 0.12593 0.0
O11 O 0.16917 0.29903 0.13309 0.0
H12 H 0.16062 0.35193 0.03408 0.0
H13 H 0.22321 0.35872 0.10819 0.0
H14 H 0.19621 0.30165 0.03186 0.0
H15 H 0.17213 0.32904 0.03456 0.0
H16 H 0.18987 0.33333 0.11541 0.0
O17 O 0.1011 0.25307 0.05828 0.0
H18 H 0.13696 0.24422 0.98453 0.0
H19 H 0.08877 0.2176 0.05238 0.0
H20 H 0.22958 0.32678 0.02356 0.0
H21 H 0.12691 0.32473 0.12665 0.0
H22 H 0.24329 0.35557 0.06189 0.0
H23 H 0.13789 0.34991 0.08044 0.0
O24 O 0.17374 0.27702 0.07898 0.0
H25 H 0.09868 0.22864 0.17457 0.0
H26 H 0.13099 0.22058 0.07053 0.0
H27 H 0.12302 0.19895 0.12177 0.0
H28 H 0.10668 0.20286 0.17424 0.0
H29 H 0.10722 0.25018 0.12296 0.0
H30 H 0.073 0.19059 0.01076 0.0
H31 H 0.08955 0.19034 0.95534 0.0
O32 O 0.15042 0.25358 0.04726 0.0
C33 C 0.14848 0.28589 0.00464 0.0
C34 C 0.11444 0.21732 0.96645 0.0
C35 C 0.08706 0.20228 0.00484 0.0
N36 N 0.11385 0.2324 0.02106 0.0
C37 C 0.12299 0.23244 0.9905 0.0
C38 C 0.09606 0.21763 0.02828 0.0
C39 C 0.09635 0.20215 0.97375 0.0
C40 C 0.14365 0.31304 0.10599 0.0
N41 N 0.15623 0.31431 0.08053 0.0
C42 C 0.13689 0.32582 0.10642 0.0
C43 C 0.14303 0.33993 0.08045 0.0
C44 C 0.15578 0.34107 0.05443 0.0
C45 C 0.16223 0.32804 0.05483 0.0
C46 C 0.21739 0.34625 0.09129 0.0
C47 C 0.20204 0.31417 0.04854 0.0
C48 C 0.19853 0.3318 0.09531 0.0
N49 N 0.19105 0.31605 0.07394 0.0
C50 C 0.22096 0.32834 0.04376 0.0
C51 C 0.22865 0.34448 0.0653 0.0
C52 C 0.16719 0.26193 0.06017 0.0
C53 C 0.10579 0.22678 0.15186 0.0
C54 C 0.12409 0.22253 0.09341 0.0
C55 C 0.11951 0.21016 0.12228 0.0
C56 C 0.11031 0.21234 0.15168 0.0
N57 N 0.11965 0.23669 0.09383 0.0
C58 C 0.11058 0.23888 0.1225 0.0
Co59 Co 0.74527 0.87117 0.05588 0.0
Co60 Co 0.70225 0.86631 0.08102 0.0
O61 O 0.72312 0.86087 0.08765 0.0
C62 C 0.73392 0.83019 0.05005 0.0
O63 O 0.71674 0.8263 0.04099 0.0
C64 C 0.71022 0.8707 0.16002 0.0
O65 O 0.72781 0.87483 0.1545 0.0
O66 O 0.72047 0.89429 0.0801 0.0
O67 O 0.74517 0.89563 0.05093 0.0
H68 H 0.66992 0.89856 0.02398 0.0
H69 H 0.74795 0.8548 0.12459 0.0
O70 O 0.74631 0.84702 0.0593 0.0
H71 H 0.7987 0.92204 0.12841 0.0
H72 H 0.80933 0.88297 0.01525 0.0
H73 H 0.7557 0.89317 0.98853 0.0
H74 H 0.77796 0.90915 0.07578 0.0
H75 H 0.78167 0.87052 0.05541 0.0
O76 O 0.69896 0.86735 0.13395 0.0
H77 H 0.69571 0.89134 0.03269 0.0
H78 H 0.66458 0.85278 0.11585 0.0
H79 H 0.78316 0.90601 0.94782 0.0
H80 H 0.76861 0.86702 0.17755 0.0
H81 H 0.81023 0.90093 0.96108 0.0
H82 H 0.79414 0.9009 0.17975 0.0
O83 O 0.7285 0.86093 0.01345 0.0
H84 H 0.67503 0.79976 0.12793 0.0
H85 H 0.66981 0.83971 0.03488 0.0
H86 H 0.64779 0.80508 0.03423 0.0
H87 H 0.65028 0.78486 0.08106 0.0
H88 H 0.69688 0.83443 0.12738 0.0
H89 H 0.63852 0.8597 0.10821 0.0
H90 H 0.64106 0.88268 0.06191 0.0
O91 O 0.70415 0.8652 0.02812 0.0
C92 C 0.73603 0.90344 0.06289 0.0
C93 C 0.66862 0.88848 0.04418 0.0
C94 C 0.65101 0.86669 0.09148 0.0
N95 N 0.68163 0.87157 0.07459 0.0
C96 C 0.68317 0.8843 0.04919 0.0
C97 C 0.66584 0.86287 0.09574 0.0
C98 C 0.65244 0.87958 0.06549 0.0
C99 C 0.75916 0.8695 0.12522 0.0
N100 N 0.76171 0.88125 0.09717 0.0
C101 C 0.77075 0.87637 0.15534 0.0
C102 C 0.78505 0.89538 0.15658 0.0
C103 C 0.7876 0.90726 0.12781 0.0
C104 C 0.77573 0.89991 0.09815 0.0
C105 C 0.79764 0.88531 0.00922 0.0
C106 C 0.76747 0.89099 0.9946 0.0
C107 C 0.78191 0.87826 0.03183 0.0
N108 N 0.76713 0.88122 0.02446 0.0
C109 C 0.78296 0.89825 0.9714 0.0
C110 C 0.79813 0.89539 0.97883 0.0
C111 C 0.71342 0.86126 0.00564 0.0
C112 C 0.67375 0.80843 0.10747 0.0
C113 C 0.67101 0.83101 0.05533 0.0
C114 C 0.65848 0.81141 0.05485 0.0
C115 C 0.65988 0.80007 0.08114 0.0
N116 N 0.68452 0.83912 0.08136 0.0
C117 C 0.68603 0.82808 0.10712 0.0
Co118 Co 0.12929 0.87227 0.06009 0.0
Co119 Co 0.1346 0.83392 0.08015 0.0
O120 O 0.14006 0.86 0.08926 0.0
C121 C 0.17011 0.90178 0.05393 0.0
O122 O 0.17369 0.88835 0.0442 0.0
C123 C 0.12739 0.83312 0.15854 0.0
O124 O 0.11685 0.84092 0.1528 0.0
O125 O 0.10659 0.824 0.08164 0.0
O126 O 0.10484 0.84773 0.05481 0.0
H127 H 0.10144 0.76991 0.02058 0.0
H128 H 0.14624 0.88888 0.13 0.0
O129 O 0.15344 0.89746 0.06396 0.0
H130 H 0.0794 0.87326 0.13815 0.0
H131 H 0.1168 0.92511 0.02698 0.0
H132 H 0.10639 0.86184 0.99381 0.0
H133 H 0.09177 0.8671 0.08281 0.0
H134 H 0.12984 0.90925 0.06398 0.0
O135 O 0.13513 0.82951 0.13255 0.0
H136 H 0.10866 0.80278 0.03176 0.0
H137 H 0.14908 0.80964 0.11061 0.0
H138 H 0.09295 0.87711 0.95625 0.0
H139 H 0.13451 0.89545 0.18582 0.0
H140 H 0.09814 0.90899 0.97276 0.0
H141 H 0.10086 0.88757 0.19014 0.0
O142 O 0.13906 0.8666 0.01594 0.0
H143 H 0.20205 0.87291 0.12265 0.0
H144 H 0.16022 0.82897 0.02972 0.0
H145 H 0.19481 0.84191 0.02575 0.0
H146 H 0.21598 0.86402 0.0725 0.0
H147 H 0.16738 0.85979 0.12539 0.0
H148 H 0.1422 0.77679 0.10047 0.0
H149 H 0.11827 0.75671 0.05507 0.0
O150 O 0.13443 0.83751 0.02759 0.0
C151 C 0.0972 0.83062 0.06589 0.0
C152 C 0.11193 0.77853 0.04038 0.0
C153 C 0.13478 0.78239 0.08525 0.0
N154 N 0.12933 0.80815 0.07171 0.0
C155 C 0.1161 0.79717 0.04679 0.0
C156 C 0.13858 0.80096 0.09096 0.0
C157 C 0.12136 0.77113 0.05976 0.0
C158 C 0.13162 0.88556 0.13164 0.0
N159 N 0.11972 0.87769 0.10319 0.0
C160 C 0.12504 0.88925 0.16333 0.0
C161 C 0.10615 0.8848 0.16575 0.0
C162 C 0.0941 0.87676 0.1366 0.0
C163 C 0.10116 0.87325 0.10536 0.0
C164 C 0.11442 0.91121 0.01954 0.0
C165 C 0.10862 0.87567 0.00129 0.0
C166 C 0.1218 0.90217 0.04034 0.0
N167 N 0.11877 0.88457 0.0312 0.0
C168 C 0.10101 0.88426 0.97987 0.0
C169 C 0.10394 0.90215 0.98913 0.0
C170 C 0.13846 0.85125 0.00638 0.0
C171 C 0.19297 0.86325 0.10218 0.0
C172 C 0.16933 0.83863 0.05012 0.0
C173 C 0.18891 0.84588 0.04777 0.0
C174 C 0.20078 0.85827 0.07401 0.0
N175 N 0.16177 0.84355 0.07788 0.0
C176 C 0.17332 0.85572 0.10366 0.0
Co177 Co 0.25985 0.12787 0.95146 0.0
Co178 Co 0.30147 0.16519 0.91998 0.0
O179 O 0.28 0.1391 0.91536 0.0
C180 C 0.26963 0.09706 0.95029 0.0
O181 O 0.2874 0.10987 0.9569 0.0
C182 C 0.29015 0.16359 0.84301 0.0
O183 O 0.27203 0.15316 0.85077 0.0
O184 O 0.28364 0.17532 0.92482 0.0
O185 O 0.26145 0.15294 0.96012 0.0
H186 H 0.3371 0.23021 0.97517 0.0
H187 H 0.25289 0.10958 0.88063 0.0
O188 O 0.2574 0.1022 0.94453 0.0
H189 H 0.20384 0.12791 0.89419 0.0
H190 H 0.19753 0.077 0.00176 0.0
H191 H 0.25432 0.13958 0.02327 0.0
H192 H 0.22707 0.13441 0.9421 0.0
H193 H 0.22274 0.09165 0.9564 0.0
O194 O 0.30267 0.16901 0.86732 0.0
H195 H 0.31056 0.19732 0.96885 0.0
H196 H 0.33794 0.1885 0.88061 0.0
H197 H 0.22937 0.12554 0.06922 0.0
H198 H 0.22979 0.1026 0.83218 0.0
H199 H 0.20072 0.09401 0.0586 0.0
H200 H 0.20508 0.11184 0.83878 0.0
O201 O 0.27891 0.13377 0.98979 0.0
H202 H 0.32462 0.124 0.86536 0.0
H203 H 0.33612 0.17107 0.95908 0.0
H204 H 0.35727 0.1576 0.95447 0.0
H205 H 0.35162 0.13391 0.90725 0.0
H206 H 0.30366 0.13769 0.87126 0.0
H207 H 0.36467 0.22135 0.88575 0.0
H208 H 0.36441 0.24244 0.9334 0.0
O209 O 0.30189 0.1626 0.97266 0.0
C210 C 0.26969 0.16952 0.9464 0.0
C211 C 0.33739 0.22116 0.95431 0.0
C212 C 0.35285 0.2162 0.9041 0.0
N213 N 0.32268 0.19097 0.9244 0.0
C214 C 0.32241 0.20251 0.95062 0.0
C215 C 0.33762 0.19762 0.90122 0.0
C216 C 0.3527 0.22802 0.93085 0.0
C217 C 0.24206 0.11348 0.88379 0.0
N218 N 0.24129 0.12233 0.91416 0.0
C219 C 0.22907 0.10956 0.85623 0.0
C220 C 0.21523 0.11478 0.85993 0.0
C221 C 0.21454 0.12381 0.891 0.0
C222 C 0.22778 0.12752 0.91798 0.0
C223 C 0.20992 0.09077 0.00666 0.0
C224 C 0.24183 0.12594 0.01832 0.0
C225 C 0.22426 0.09913 0.98109 0.0
N226 N 0.23991 0.11656 0.98702 0.0
C227 C 0.22778 0.11802 0.0445 0.0
C228 C 0.21172 0.10032 0.03854 0.0
C229 C 0.29425 0.14934 0.99561 0.0
C230 C 0.32724 0.13432 0.88604 0.0
C231 C 0.33345 0.16067 0.9387 0.0
C232 C 0.34554 0.15314 0.93609 0.0
C233 C 0.34237 0.13987 0.90957 0.0
N234 N 0.31864 0.15517 0.91552 0.0
C235 C 0.31545 0.14216 0.88945 0.0
Co236 Co 0.87238 0.12696 0.94194 0.0
Co237 Co 0.83407 0.1323 0.92185 0.0
O238 O 0.86007 0.13763 0.9126 0.0
C239 C 0.90191 0.16785 0.94697 0.0
O240 O 0.88853 0.17154 0.95643 0.0
C241 C 0.8335 0.12499 0.84365 0.0
O242 O 0.84205 0.11517 0.84958 0.0
O243 O 0.82409 0.10427 0.92089 0.0
O244 O 0.84784 0.10257 0.9477 0.0
H245 H 0.77033 0.09959 0.98213 0.0
H246 H 0.88887 0.1435 0.87178 0.0
O247 O 0.89755 0.15106 0.9376 0.0
H248 H 0.87289 0.07647 0.8648 0.0
H249 H 0.92517 0.11448 0.97525 0.0
H250 H 0.86215 0.10448 0.00868 0.0
H251 H 0.86694 0.08921 0.91988 0.0
H252 H 0.90925 0.12735 0.938 0.0
O253 O 0.82939 0.13242 0.8695 0.0
H254 H 0.8031 0.10667 0.97074 0.0
H255 H 0.80977 0.14673 0.89126 0.0
H256 H 0.87749 0.09121 0.04651 0.0
H257 H 0.89524 0.1314 0.81622 0.0
H258 H 0.90924 0.09619 0.02987 0.0
H259 H 0.88718 0.09764 0.81248 0.0
O260 O 0.86693 0.13705 0.98591 0.0
H261 H 0.87293 0.19945 0.87767 0.0
H262 H 0.82944 0.15837 0.97173 0.0
H263 H 0.84243 0.19303 0.9748 0.0
H264 H 0.86431 0.21382 0.92749 0.0
H265 H 0.85976 0.16473 0.87581 0.0
H266 H 0.77701 0.13998 0.9016 0.0
H267 H 0.75707 0.11631 0.94742 0.0
O268 O 0.83786 0.13249 0.97438 0.0
C269 C 0.83071 0.09491 0.93675 0.0
C270 C 0.77889 0.10996 0.96214 0.0
C271 C 0.78263 0.13261 0.91691 0.0
N272 N 0.80838 0.12715 0.93046 0.0
C273 C 0.79747 0.11406 0.95562 0.0
C274 C 0.80115 0.13633 0.9111 0.0
C275 C 0.77145 0.11933 0.94264 0.0
C276 C 0.88548 0.12884 0.8704 0.0
N277 N 0.87761 0.1171 0.89903 0.0
C278 C 0.88905 0.12205 0.83886 0.0
C279 C 0.8845 0.1031 0.83676 0.0
C280 C 0.87647 0.09121 0.8661 0.0
C281 C 0.87308 0.09849 0.89718 0.0
C282 C 0.91133 0.11219 0.98275 0.0
C283 C 0.87592 0.10662 0.00114 0.0
C284 C 0.90226 0.11948 0.9618 0.0
N285 N 0.88473 0.11656 0.97102 0.0
C286 C 0.88456 0.09911 0.02272 0.0
C287 C 0.90237 0.10192 0.01338 0.0
C288 C 0.85165 0.13655 0.9955 0.0
C289 C 0.86337 0.19054 0.89839 0.0
C290 C 0.839 0.16732 0.95108 0.0
C291 C 0.84628 0.18693 0.95293 0.0
C292 C 0.85854 0.19859 0.92637 0.0
N293 N 0.84376 0.15951 0.9235 0.0
C294 C 0.85581 0.17086 0.89741 0.0
Co295 Co 0.86931 0.70264 0.91818 0.0
Co296 Co 0.87402 0.74564 0.94339 0.0
O297 O 0.86382 0.72349 0.91152 0.0
C298 C 0.87218 0.70981 0.83868 0.0
O299 O 0.87466 0.72688 0.84361 0.0
C300 C 0.83301 0.73405 0.94844 0.0
O301 O 0.82921 0.71681 0.95695 0.0
O302 O 0.86369 0.72882 0.98564 0.0
O303 O 0.86823 0.7046 0.97113 0.0
H304 H 0.9085 0.78343 0.0519 0.0
H305 H 0.83722 0.69722 0.8722 0.0
O306 O 0.87034 0.69923 0.86518 0.0
H307 H 0.80836 0.64793 0.96501 0.0
H308 H 0.86297 0.63894 0.89114 0.0
H309 H 0.89441 0.69626 0.96663 0.0
H310 H 0.84292 0.6701 0.96422 0.0
H311 H 0.85592 0.66492 0.88342 0.0
O312 O 0.84985 0.74662 0.93975 0.0
H313 H 0.89582 0.75602 0.01098 0.0
H314 H 0.8733 0.78203 0.94391 0.0
H315 H 0.90175 0.67055 0.97542 0.0
H316 H 0.80263 0.67522 0.87179 0.0
H317 H 0.88598 0.64163 0.93751 0.0
H318 H 0.78796 0.65036 0.91848 0.0
O319 O 0.89726 0.72096 0.91915 0.0
H320 H 0.87012 0.76936 0.82195 0.0
H321 H 0.91203 0.77833 0.92392 0.0
H322 H 0.92503 0.79924 0.87156 0.0
H323 H 0.904 0.79487 0.82013 0.0
H324 H 0.85779 0.74854 0.87463 0.0
H325 H 0.88558 0.80965 0.98428 0.0
H326 H 0.90339 0.8105 0.03865 0.0
O327 O 0.89846 0.74555 0.94862 0.0
C328 C 0.86414 0.71381 0.99352 0.0
C329 C 0.90081 0.78325 0.02824 0.0
C330 C 0.88793 0.79796 0.9903 0.0
N331 N 0.88396 0.76748 0.97494 0.0
C332 C 0.89364 0.76779 0.00492 0.0
C333 C 0.88097 0.78226 0.96758 0.0
C334 C 0.89793 0.79843 0.0208 0.0
C335 C 0.83101 0.68632 0.89235 0.0
N336 N 0.84215 0.68482 0.9179 0.0
C337 C 0.81138 0.67395 0.89209 0.0
C338 C 0.80315 0.66003 0.91833 0.0
C339 C 0.81459 0.65866 0.94445 0.0
C340 C 0.83416 0.67128 0.94387 0.0
C341 C 0.86991 0.65146 0.90786 0.0
C342 C 0.88741 0.68369 0.95014 0.0
C343 C 0.86602 0.66625 0.90356 0.0
N344 N 0.87467 0.68207 0.92469 0.0
C345 C 0.89166 0.66919 0.95519 0.0
C346 C 0.88282 0.65297 0.93389 0.0
C347 C 0.90633 0.73647 0.93664 0.0
C348 C 0.87943 0.77142 0.8442 0.0
C349 C 0.90284 0.77617 0.90149 0.0
C350 C 0.91026 0.78814 0.87199 0.0
C351 C 0.89844 0.78571 0.84317 0.0
N352 N 0.88418 0.76216 0.90225 0.0
C353 C 0.8725 0.75973 0.87416 0.0
Co354 Co 0.83311 0.63034 0.41319 0.0
Co355 Co 0.79804 0.58862 0.37751 0.0
O356 O 0.80736 0.60797 0.41532 0.0
C357 C 0.82563 0.6205 0.49202 0.0
O358 O 0.80927 0.60519 0.48541 0.0
C359 C 0.76517 0.59528 0.38112 0.0
O360 O 0.77705 0.61368 0.37962 0.0
O361 O 0.80299 0.60838 0.34152 0.0
O362 O 0.83158 0.63138 0.35989 0.0
H363 H 0.80049 0.56286 0.25711 0.0
H364 H 0.80271 0.63058 0.45764 0.0
O365 O 0.83612 0.63085 0.46663 0.0
H366 H 0.8251 0.68565 0.37747 0.0
H367 H 0.88703 0.69369 0.45357 0.0
H368 H 0.86647 0.6416 0.36638 0.0
H369 H 0.83922 0.66502 0.3747 0.0
H370 H 0.85458 0.66604 0.45575 0.0
O371 O 0.77143 0.58374 0.38335 0.0
H372 H 0.81194 0.58657 0.3055 0.0
H373 H 0.76409 0.54995 0.3687 0.0
H374 H 0.89897 0.66909 0.36303 0.0
H375 H 0.7884 0.65096 0.46159 0.0
H376 H 0.90945 0.69538 0.40685 0.0
H377 H 0.79956 0.67875 0.42128 0.0
O378 O 0.84435 0.61344 0.40908 0.0
H379 H 0.77194 0.5539 0.49276 0.0
H380 H 0.80802 0.55797 0.38435 0.0
H381 H 0.80253 0.53391 0.42988 0.0
H382 H 0.78432 0.53172 0.48453 0.0
H383 H 0.77796 0.57792 0.44668 0.0
H384 H 0.75203 0.52591 0.32085 0.0
H385 H 0.77031 0.53228 0.26461 0.0
O386 O 0.82409 0.59255 0.36936 0.0
C387 C 0.81843 0.62394 0.33652 0.0
C388 C 0.79241 0.55991 0.28152 0.0
C389 C 0.7652 0.53918 0.31727 0.0
N390 N 0.78874 0.56963 0.33997 0.0
C391 C 0.79884 0.57327 0.30905 0.0
C392 C 0.77208 0.55287 0.34424 0.0
C393 C 0.77547 0.54276 0.28573 0.0
C394 C 0.80795 0.64279 0.44046 0.0
N395 N 0.82215 0.64678 0.41659 0.0
C396 C 0.79965 0.65423 0.44261 0.0
C397 C 0.80588 0.66979 0.41994 0.0
C398 C 0.82021 0.67367 0.39537 0.0
C399 C 0.82816 0.66192 0.39397 0.0
C400 C 0.88263 0.68233 0.4343 0.0
C401 C 0.87088 0.65302 0.38544 0.0
C402 C 0.86428 0.6666 0.43547 0.0
N403 N 0.85858 0.65224 0.41109 0.0
C404 C 0.88932 0.66854 0.38346 0.0
C405 C 0.8952 0.68327 0.40807 0.0
C406 C 0.84001 0.60061 0.38549 0.0
C407 C 0.77989 0.55471 0.46907 0.0
C408 C 0.80024 0.55724 0.4082 0.0
C409 C 0.79709 0.54351 0.43381 0.0
C410 C 0.78686 0.54228 0.46445 0.0
N411 N 0.79338 0.5694 0.41296 0.0
C412 C 0.7833 0.56825 0.44287 0.0
Co413 Co 0.41116 0.20284 0.39422 0.0
Co414 Co 0.3668 0.19584 0.41456 0.0
O415 O 0.38807 0.19142 0.42337 0.0
C416 C 0.40014 0.16217 0.38744 0.0
O417 O 0.38305 0.15854 0.37829 0.0
C418 C 0.37309 0.20404 0.4928 0.0
O419 O 0.3913 0.21567 0.48738 0.0
O420 O 0.38414 0.22407 0.41524 0.0
O421 O 0.41051 0.22701 0.39006 0.0
H422 H 0.33371 0.22657 0.35466 0.0
H423 H 0.41094 0.18537 0.46344 0.0
O424 O 0.4126 0.17891 0.39705 0.0
H425 H 0.4613 0.25254 0.47385 0.0
H426 H 0.47694 0.21691 0.3609 0.0
H427 H 0.42351 0.22653 0.32892 0.0
H428 H 0.44298 0.24044 0.4182 0.0
H429 H 0.4479 0.20298 0.3976 0.0
O430 O 0.36207 0.19549 0.46678 0.0
H431 H 0.36019 0.22063 0.36571 0.0
H432 H 0.32801 0.1803 0.44574 0.0
H433 H 0.45236 0.24086 0.29167 0.0
H434 H 0.42902 0.19683 0.51955 0.0
H435 H 0.47934 0.23607 0.30759 0.0
H436 H 0.45438 0.23065 0.525 0.0
O437 O 0.39597 0.19338 0.3496 0.0
H438 H 0.34103 0.12904 0.459 0.0
H439 H 0.336 0.16893 0.36563 0.0
H440 H 0.31528 0.13412 0.36294 0.0
H441 H 0.31769 0.11392 0.40992 0.0
H442 H 0.36163 0.16392 0.46044 0.0
H443 H 0.30124 0.18592 0.43575 0.0
H444 H 0.30397 0.20915 0.38983 0.0
O445 O 0.37027 0.19571 0.36225 0.0
C446 C 0.40036 0.23402 0.40046 0.0
C447 C 0.33234 0.21639 0.37471 0.0
C448 C 0.31413 0.1936 0.42025 0.0
N449 N 0.34564 0.20008 0.40627 0.0
C450 C 0.34727 0.21294 0.38105 0.0
C451 C 0.32936 0.19052 0.42587 0.0
C452 C 0.31566 0.20662 0.39447 0.0
C453 C 0.42205 0.20007 0.46557 0.0
N454 N 0.42596 0.2122 0.43758 0.0
C455 C 0.4322 0.20649 0.49742 0.0
C456 C 0.44641 0.22548 0.50048 0.0
C457 C 0.45029 0.23777 0.4718 0.0
C458 C 0.43984 0.23085 0.44038 0.0
C459 C 0.4653 0.21912 0.35372 0.0
C460 C 0.43523 0.22448 0.33614 0.0
C461 C 0.4488 0.21124 0.37436 0.0
N462 N 0.43408 0.21406 0.36555 0.0
C463 C 0.45151 0.23258 0.31489 0.0
C464 C 0.46664 0.22988 0.32382 0.0
C465 C 0.38065 0.19295 0.34051 0.0
C466 C 0.33982 0.1377 0.43841 0.0
C467 C 0.33722 0.16025 0.38605 0.0
C468 C 0.3254 0.14054 0.38446 0.0
C469 C 0.32675 0.12922 0.41084 0.0
N470 N 0.35 0.16847 0.41319 0.0
C471 C 0.35141 0.15745 0.43914 0.0
Co472 Co 0.79895 0.20477 0.38693 0.0
Co473 Co 0.80328 0.16661 0.4115 0.0
O474 O 0.80878 0.19278 0.4192 0.0
C475 C 0.83968 0.23488 0.38613 0.0
O476 O 0.84396 0.22175 0.37795 0.0
C477 C 0.79523 0.16639 0.48953 0.0
O478 O 0.78479 0.17421 0.48294 0.0
O479 O 0.77533 0.15711 0.41173 0.0
O480 O 0.77505 0.17996 0.3787 0.0
H481 H 0.77021 0.10205 0.35398 0.0
H482 H 0.81247 0.22137 0.45843 0.0
O483 O 0.82256 0.23018 0.39345 0.0
H484 H 0.74507 0.20412 0.45438 0.0
H485 H 0.78665 0.25682 0.34702 0.0
H486 H 0.77948 0.19448 0.31684 0.0
H487 H 0.7602 0.19856 0.40238 0.0
H488 H 0.79842 0.24124 0.38783 0.0
O489 O 0.8032 0.16264 0.46413 0.0
H490 H 0.7776 0.1351 0.36349 0.0
H491 H 0.81711 0.14233 0.44459 0.0
H492 H 0.76733 0.20946 0.27544 0.0
H493 H 0.79796 0.22734 0.51099 0.0
H494 H 0.77088 0.24087 0.29044 0.0
H495 H 0.76401 0.21865 0.50915 0.0
O496 O 0.81084 0.19943 0.34564 0.0
H497 H 0.87027 0.20556 0.45629 0.0
H498 H 0.82927 0.16073 0.3636 0.0
H499 H 0.86384 0.1733 0.36148 0.0
H500 H 0.8846 0.19585 0.40811 0.0
H501 H 0.83563 0.19279 0.45721 0.0
H502 H 0.81001 0.10931 0.43617 0.0
H503 H 0.78647 0.08895 0.39048 0.0
O504 O 0.80376 0.16967 0.35857 0.0
C505 C 0.7668 0.16326 0.39195 0.0
C506 C 0.78052 0.11079 0.37393 0.0
C507 C 0.80284 0.11486 0.42009 0.0
N508 N 0.79782 0.14067 0.40449 0.0
C509 C 0.78479 0.12953 0.3794 0.0
C510 C 0.80675 0.13353 0.42483 0.0
C511 C 0.78963 0.10344 0.39444 0.0
C512 C 0.79774 0.2177 0.45738 0.0
N513 N 0.78722 0.20972 0.42737 0.0
C514 C 0.78958 0.22105 0.48724 0.0
C515 C 0.77052 0.21615 0.48621 0.0
C516 C 0.75988 0.20798 0.45549 0.0
C517 C 0.76851 0.20483 0.42617 0.0
C518 C 0.78496 0.24311 0.34024 0.0
C519 C 0.78094 0.20807 0.3237 0.0
C520 C 0.79163 0.23423 0.36321 0.0
N521 N 0.78946 0.21686 0.3549 0.0
C522 C 0.7741 0.21652 0.30008 0.0
C523 C 0.77612 0.23415 0.3085 0.0
C524 C 0.80951 0.18363 0.33709 0.0
C525 C 0.86137 0.1957 0.43587 0.0
C526 C 0.8382 0.17059 0.38393 0.0
C527 C 0.85777 0.17762 0.38263 0.0
C528 C 0.8694 0.19027 0.40881 0.0
N529 N 0.83042 0.17596 0.41061 0.0
C530 C 0.84174 0.18838 0.43633 0.0
Co531 Co 0.92407 0.45811 0.27453 0.0
Co532 Co 0.96719 0.49703 0.25409 0.0
O533 O 0.94702 0.47073 0.24516 0.0
C534 C 0.93606 0.42913 0.28058 0.0
O535 O 0.95294 0.44274 0.29055 0.0
C536 C 0.96073 0.49748 0.1757 0.0
O537 O 0.94236 0.48931 0.18138 0.0
O538 O 0.94855 0.50623 0.25211 0.0
O539 O 0.92367 0.4824 0.28005 0.0
H540 H 0.99646 0.56121 0.3127 0.0
H541 H 0.92448 0.44164 0.20451 0.0
O542 O 0.92354 0.43319 0.27046 0.0
H543 H 0.8725 0.45618 0.19723 0.0
H544 H 0.85925 0.40446 0.30806 0.0
H545 H 0.91151 0.46806 0.34126 0.0
H546 H 0.89128 0.46266 0.25233 0.0
H547 H 0.888 0.4208 0.27076 0.0
O548 O 0.97213 0.50136 0.20171 0.0
H549 H 0.97144 0.52804 0.30182 0.0
H550 H 0.00588 0.52198 0.22381 0.0
H551 H 0.88295 0.4523 0.37914 0.0
H552 H 0.90595 0.43478 0.14892 0.0
H553 H 0.85656 0.42026 0.36261 0.0
H554 H 0.87977 0.4421 0.14505 0.0
O555 O 0.93969 0.46409 0.31847 0.0
H556 H 0.99723 0.45934 0.21256 0.0
H557 H 0.99801 0.50297 0.30479 0.0
H558 H 0.02038 0.49091 0.30916 0.0
H559 H 0.02012 0.46897 0.26277 0.0
H560 H 0.97496 0.47159 0.2094 0.0
H561 H 0.03122 0.55514 0.23367 0.0
H562 H 0.02662 0.57498 0.27849 0.0
O563 O 0.96342 0.49357 0.30667 0.0
C564 C 0.93268 0.49943 0.26844 0.0
C565 C 0.99866 0.5527 0.29316 0.0
C566 C 0.01815 0.5493 0.24877 0.0
N567 N 0.98722 0.52304 0.26233 0.0
C568 C 0.98455 0.53389 0.28692 0.0
C569 C 0.00373 0.53054 0.24323 0.0
C570 C 0.01557 0.56042 0.27393 0.0
C571 C 0.91301 0.44472 0.20306 0.0
N572 N 0.90891 0.45246 0.23162 0.0
C573 C 0.90261 0.44087 0.17151 0.0
C574 C 0.88794 0.445 0.16934 0.0
C575 C 0.88386 0.45291 0.1986 0.0
C576 C 0.89458 0.4566 0.22969 0.0
C577 C 0.87063 0.41843 0.3155 0.0
C578 C 0.90004 0.45417 0.33377 0.0
C579 C 0.88696 0.42775 0.29452 0.0
N580 N 0.90136 0.44544 0.30366 0.0
C581 C 0.88392 0.4453 0.35537 0.0
C582 C 0.86913 0.42731 0.3461 0.0
C583 C 0.95409 0.47974 0.32795 0.0
C584 C 0.99752 0.46894 0.23289 0.0
C585 C 0.99776 0.49338 0.28455 0.0
C586 C 0.01049 0.48663 0.28713 0.0
C587 C 0.01034 0.47433 0.26109 0.0
N588 N 0.98525 0.48806 0.25675 0.0
C589 C 0.98499 0.47597 0.23117 0.0
Co590 Co 0.53779 0.45852 0.29105 0.0
Co591 Co 0.50056 0.46281 0.25691 0.0
O592 O 0.52722 0.46836 0.25507 0.0
C593 C 0.56994 0.49905 0.27756 0.0
O594 O 0.56032 0.50272 0.25399 0.0
C595 C 0.50883 0.46149 0.17823 0.0
O596 O 0.52534 0.46301 0.18521 0.0
O597 O 0.49087 0.43488 0.25991 0.0
O598 O 0.51313 0.43406 0.29371 0.0
H599 H 0.43401 0.43076 0.30537 0.0
H600 H 0.55913 0.47348 0.2231 0.0
O601 O 0.56306 0.48271 0.29186 0.0
H602 H 0.54388 0.40673 0.22949 0.0
H603 H 0.5876 0.447 0.34641 0.0
H604 H 0.52295 0.43733 0.35864 0.0
H605 H 0.53391 0.42058 0.27738 0.0
H606 H 0.57457 0.45912 0.30071 0.0
O607 O 0.49797 0.4608 0.20339 0.0
H608 H 0.46737 0.43828 0.30246 0.0
H609 H 0.47749 0.47534 0.21504 0.0
H610 H 0.53538 0.42484 0.40481 0.0
H611 H 0.56965 0.46033 0.17495 0.0
H612 H 0.56793 0.42965 0.39885 0.0
H613 H 0.56197 0.42668 0.17784 0.0
O614 O 0.52965 0.46945 0.32964 0.0
H615 H 0.54054 0.52924 0.20875 0.0
H616 H 0.49235 0.48937 0.29765 0.0
H617 H 0.50395 0.52377 0.29583 0.0
H618 H 0.52816 0.54396 0.25101 0.0
H619 H 0.52881 0.4949 0.21187 0.0
H620 H 0.4442 0.46808 0.21684 0.0
H621 H 0.42222 0.4457 0.26235 0.0
O622 O 0.50156 0.4647 0.31011 0.0
C623 C 0.4967 0.426 0.27949 0.0
C624 C 0.44346 0.44057 0.28548 0.0
C625 C 0.44917 0.4615 0.23577 0.0
N626 N 0.47441 0.45732 0.25876 0.0
C627 C 0.46238 0.44492 0.28375 0.0
C628 C 0.468 0.46551 0.23483 0.0
C629 C 0.43685 0.44895 0.26131 0.0
C630 C 0.55593 0.45894 0.22489 0.0
N631 N 0.546 0.44791 0.25323 0.0
C632 C 0.56183 0.45151 0.19738 0.0
C633 C 0.55749 0.43262 0.19898 0.0
C634 C 0.54732 0.42142 0.22792 0.0
C635 C 0.54164 0.42934 0.25491 0.0
C636 C 0.57338 0.44477 0.34927 0.0
C637 C 0.53709 0.43938 0.35574 0.0
C638 C 0.56593 0.45163 0.3235 0.0
N639 N 0.54794 0.44877 0.32683 0.0
C640 C 0.54406 0.43232 0.38202 0.0
C641 C 0.56233 0.43504 0.37868 0.0
C642 C 0.51406 0.46923 0.33439 0.0
C643 C 0.52991 0.52057 0.22827 0.0
C644 C 0.50294 0.49803 0.27813 0.0
C645 C 0.50942 0.51752 0.27718 0.0
C646 C 0.52299 0.52884 0.25203 0.0
N647 N 0.50971 0.48997 0.25458 0.0
C648 C 0.52309 0.50103 0.23 0.0
Co649 Co 0.53595 0.03561 0.25569 0.0
Co650 Co 0.5384 0.07729 0.28244 0.0
O651 O 0.52944 0.05576 0.24935 0.0
C652 C 0.5391 0.04343 0.17644 0.0
O653 O 0.5411 0.06028 0.18185 0.0
C654 C 0.49713 0.06489 0.28502 0.0
O655 O 0.4935 0.04773 0.29374 0.0
O656 O 0.52742 0.0596 0.3233 0.0
O657 O 0.53438 0.03701 0.30876 0.0
H658 H 0.56916 0.11327 0.39478 0.0
H659 H 0.50366 0.02921 0.2093 0.0
O660 O 0.53745 0.03275 0.20264 0.0
H661 H 0.47593 0.97889 0.30045 0.0
H662 H 0.53273 0.97343 0.22721 0.0
H663 H 0.56165 0.03024 0.30428 0.0
H664 H 0.51023 0.00218 0.30059 0.0
H665 H 0.52429 0.99847 0.21997 0.0
O666 O 0.51401 0.07767 0.27703 0.0
H667 H 0.55819 0.0867 0.3522 0.0
H668 H 0.53677 0.1132 0.2837 0.0
H669 H 0.57036 0.00546 0.3126 0.0
H670 H 0.46933 0.00609 0.20797 0.0
H671 H 0.55587 0.97681 0.27389 0.0
H672 H 0.45523 0.98071 0.25382 0.0
O673 O 0.56365 0.05486 0.25733 0.0
H674 H 0.53681 0.10291 0.16155 0.0
H675 H 0.57648 0.11088 0.26671 0.0
H676 H 0.59036 0.13284 0.21596 0.0
H677 H 0.57046 0.12897 0.16294 0.0
H678 H 0.52359 0.08105 0.21267 0.0
H679 H 0.54737 0.13998 0.3257 0.0
H680 H 0.56377 0.14017 0.38164 0.0
O681 O 0.56306 0.07781 0.2895 0.0
C682 C 0.52886 0.04512 0.331 0.0
C683 C 0.5621 0.11339 0.37043 0.0
C684 C 0.54985 0.12837 0.33168 0.0
N685 N 0.54703 0.09848 0.31531 0.0
C686 C 0.55591 0.09841 0.34616 0.0
C687 C 0.54386 0.11315 0.30802 0.0
C688 C 0.55906 0.12847 0.36306 0.0
C689 C 0.4977 0.01809 0.22909 0.0
N690 N 0.50902 0.01693 0.2547 0.0
C691 C 0.47822 0.00509 0.22831 0.0
C692 C 0.47031 0.99087 0.25408 0.0
C693 C 0.48191 0.98984 0.28025 0.0
C694 C 0.50133 0.00309 0.28021 0.0
C695 C 0.53912 0.98584 0.24427 0.0
C696 C 0.5552 0.01777 0.28744 0.0
C697 C 0.53444 1.0001 0.24024 0.0
N698 N 0.54239 0.01577 0.26182 0.0
C699 C 0.56023 0.00381 0.29223 0.0
C700 C 0.5521 0.98774 0.27048 0.0
C701 C 0.57182 0.06978 0.27669 0.0
C702 C 0.54562 0.10475 0.18451 0.0
C703 C 0.56778 0.10895 0.24357 0.0
C704 C 0.57569 0.1215 0.215 0.0
C705 C 0.56451 0.11935 0.18528 0.0
N706 N 0.54925 0.09463 0.24257 0.0
C707 C 0.53819 0.09247 0.21359 0.0
Co708 Co 0.49776 0.96257 0.75081 0.0
Co709 Co 0.45986 0.92145 0.71878 0.0
O710 O 0.47126 0.94174 0.75466 0.0
C711 C 0.49088 0.95399 0.83002 0.0
O712 O 0.47425 0.93892 0.82405 0.0
C713 C 0.42986 0.9323 0.71919 0.0
O714 O 0.44307 0.94997 0.71293 0.0
O715 O 0.46639 0.94058 0.68061 0.0
O716 O 0.49565 0.9628 0.69757 0.0
H717 H 0.45748 0.89051 0.60146 0.0
H718 H 0.46968 0.96645 0.79607 0.0
O719 O 0.50136 0.96383 0.80418 0.0
H720 H 0.4944 0.02014 0.71203 0.0
H721 H 0.55533 0.02443 0.78652 0.0
H722 H 0.52987 0.97036 0.7029 0.0
H723 H 0.50602 0.99738 0.71013 0.0
H724 H 0.522 0.99862 0.79085 0.0
O725 O 0.43445 0.91966 0.72491 0.0
H726 H 0.47165 0.91552 0.64736 0.0
H727 H 0.42325 0.88473 0.71336 0.0
H728 H 0.56323 0.99597 0.69742 0.0
H729 H 0.45787 0.98899 0.79916 0.0
H730 H 0.57617 0.02325 0.73944 0.0
H731 H 0.47021 0.01609 0.7569 0.0
O732 O 0.50687 0.94387 0.74735 0.0
H733 H 0.43237 0.8908 0.83665 0.0
H734 H 0.46595 0.88843 0.72915 0.0
H735 H 0.45846 0.86489 0.77686 0.0
H736 H 0.4415 0.86595 0.83107 0.0
H737 H 0.44037 0.91423 0.78845 0.0
H738 H 0.40848 0.85946 0.66804 0.0
H739 H 0.42566 0.86222 0.61167 0.0
O740 O 0.4847 0.92244 0.71072 0.0
C741 C 0.48233 0.95542 0.67455 0.0
C742 C 0.44989 0.8891 0.62598 0.0
C743 C 0.42238 0.87169 0.66333 0.0
N744 N 0.44841 0.90149 0.6832 0.0
C745 C 0.45788 0.90319 0.65213 0.0
C746 C 0.43081 0.88606 0.68888 0.0
C747 C 0.43202 0.87324 0.63171 0.0
C748 C 0.47541 0.97833 0.77799 0.0
N749 N 0.48887 0.98075 0.7535 0.0
C750 C 0.46853 0.991 0.77968 0.0
C751 C 0.47543 0.00618 0.75592 0.0
C752 C 0.489 0.00847 0.73075 0.0
C753 C 0.49553 0.99551 0.72984 0.0
C754 C 0.54985 0.01263 0.76803 0.0
C755 C 0.53536 0.98222 0.72119 0.0
C756 C 0.531 0.99793 0.77042 0.0
N757 N 0.52395 0.98302 0.74703 0.0
C758 C 0.55428 0.99666 0.718 0.0
C759 C 0.56154 0.01196 0.7416 0.0
C760 C 0.50107 0.93014 0.72524 0.0
C761 C 0.43976 0.89019 0.81317 0.0
C762 C 0.45875 0.88912 0.75281 0.0
C763 C 0.45445 0.87568 0.77966 0.0
C764 C 0.44491 0.87626 0.81004 0.0
N765 N 0.45369 0.90277 0.75612 0.0
C766 C 0.44428 0.90339 0.78576 0.0
Co767 Co 0.07515 0.53621 0.71973 0.0
Co768 Co 0.03276 0.53234 0.74381 0.0
O769 O 0.05326 0.52663 0.75179 0.0
C770 C 0.06418 0.49536 0.71846 0.0
O771 O 0.04689 0.4912 0.70954 0.0
C772 C 0.04077 0.54009 0.82185 0.0
O773 O 0.05909 0.54961 0.81526 0.0
O774 O 0.05142 0.56027 0.74362 0.0
O775 O 0.07461 0.56029 0.71124 0.0
H776 H 1.00188 0.56566 0.68534 0.0
H777 H 0.07791 0.52257 0.79126 0.0
O778 O 0.07656 0.51241 0.72648 0.0
H779 H 0.12861 0.58984 0.78746 0.0
H780 H 0.1393 0.54766 0.68067 0.0
H781 H 0.08462 0.55534 0.64935 0.0
H782 H 0.10792 0.57485 0.73537 0.0
H783 H 0.11191 0.53634 0.72128 0.0
O784 O 0.02892 0.53277 0.79642 0.0
H785 H 0.02727 0.55797 0.6952 0.0
H786 H 0.99472 0.519 0.7768 0.0
H787 H 0.11179 0.56704 0.60812 0.0
H788 H 0.09841 0.53694 0.84389 0.0
H789 H 0.13939 0.56322 0.6237 0.0
H790 H 0.12395 0.57083 0.84218 0.0
O791 O 0.05797 0.52441 0.67832 0.0
H792 H 0.0041 0.46549 0.78975 0.0
H793 H 1.00073 0.50627 0.69621 0.0
H794 H 0.97841 0.47172 0.69465 0.0
H795 H 0.97998 0.45107 0.74172 0.0
H796 H 0.02629 0.50011 0.79011 0.0
H797 H 0.96905 0.5264 0.76802 0.0
H798 H 0.97251 0.54983 0.72191 0.0
O799 O 0.03529 0.53152 0.69092 0.0
C800 C 0.06618 0.56867 0.72398 0.0
C801 C 1.00019 0.55541 0.70548 0.0
C802 C 0.98178 0.53339 0.75191 0.0
N803 N 0.01247 0.53801 0.73647 0.0
C804 C 0.01451 0.55097 0.71115 0.0
C805 C 0.9964 0.52931 0.75685 0.0
C806 C 0.98372 0.54653 0.72602 0.0
C807 C 0.08911 0.53728 0.79027 0.0
N808 N 0.09177 0.54784 0.76029 0.0
C809 C 0.10062 0.54536 0.82016 0.0
C810 C 0.11493 0.56438 0.81921 0.0
C811 C 0.11754 0.57506 0.78852 0.0
C812 C 0.10574 0.56651 0.75915 0.0
C813 C 0.12739 0.54948 0.67365 0.0
C814 C 0.09665 0.5538 0.65648 0.0
C815 C 0.11183 0.54308 0.69652 0.0
N816 N 0.09678 0.54541 0.68791 0.0
C817 C 0.11196 0.56037 0.63295 0.0
C818 C 0.12743 0.55821 0.64169 0.0
C819 C 0.04351 0.5257 0.66961 0.0
C820 C 0.00324 0.47434 0.76915 0.0
C821 C 1.00156 0.49739 0.71673 0.0
C822 C 0.98885 0.47783 0.71574 0.0
C823 C 0.98973 0.46626 0.74217 0.0
N824 N 0.01475 0.50522 0.74334 0.0
C825 C 0.01573 0.49396 0.76928 0.0
Co826 Co 0.46368 0.53997 0.72793 0.0
Co827 Co 0.46518 0.49999 0.75274 0.0
O828 O 0.47273 0.52692 0.75951 0.0
C829 C 0.50515 0.56785 0.7219 0.0
O830 O 0.50797 0.55394 0.71201 0.0
C831 C 0.46241 0.50433 0.83195 0.0
O832 O 0.4589 0.51824 0.82675 0.0
O833 O 0.43769 0.49232 0.75344 0.0
O834 O 0.43842 0.5163 0.72264 0.0
H835 H 0.42782 0.43526 0.69691 0.0
H836 H 0.48066 0.55834 0.7969 0.0
O837 O 0.48868 0.5643 0.73169 0.0
H838 H 0.41479 0.54599 0.80032 0.0
H839 H 0.45607 0.59496 0.68789 0.0
H840 H 0.44197 0.52982 0.66022 0.0
H841 H 0.42673 0.53709 0.74765 0.0
H842 H 0.46686 0.57822 0.72796 0.0
O843 O 0.46479 0.49585 0.80562 0.0
H844 H 0.43773 0.46906 0.70563 0.0
H845 H 0.47654 0.47381 0.78626 0.0
H846 H 0.43078 0.54598 0.61958 0.0
H847 H 0.46939 0.56777 0.8499 0.0
H848 H 0.43782 0.5788 0.63332 0.0
H849 H 0.4362 0.56152 0.85189 0.0
O850 O 0.47308 0.53252 0.68555 0.0
H851 H 0.53278 0.53535 0.79584 0.0
H852 H 0.48921 0.49135 0.70481 0.0
H853 H 0.52328 0.50145 0.70209 0.0
H854 H 0.54531 0.52357 0.74791 0.0
H855 H 0.49864 0.52503 0.79736 0.0
H856 H 0.46693 0.44002 0.77859 0.0
H857 H 0.44245 0.42052 0.73355 0.0
O858 O 0.46559 0.50277 0.69977 0.0
C859 C 0.4295 0.49949 0.73538 0.0
C860 C 0.43853 0.44362 0.71656 0.0
C861 C 0.46047 0.44629 0.76243 0.0
N862 N 0.45779 0.47345 0.74627 0.0
C863 C 0.44424 0.46279 0.72156 0.0
C864 C 0.46582 0.46541 0.76671 0.0
C865 C 0.44674 0.43536 0.73714 0.0
C866 C 0.46626 0.55575 0.79744 0.0
N867 N 0.45437 0.54715 0.76926 0.0
C868 C 0.45993 0.56104 0.82758 0.0
C869 C 0.4413 0.5575 0.8287 0.0
C870 C 0.42927 0.54876 0.7998 0.0
C871 C 0.43608 0.54365 0.77012 0.0
C872 C 0.45287 0.58065 0.68166 0.0
C873 C 0.445 0.54405 0.6665 0.0
C874 C 0.45897 0.5711 0.70422 0.0
N875 N 0.45491 0.55298 0.6966 0.0
C876 C 0.43866 0.55315 0.64334 0.0
C877 C 0.44263 0.57157 0.65105 0.0
C878 C 0.47083 0.5163 0.67744 0.0
C879 C 0.52331 0.52565 0.77581 0.0
C880 C 0.49871 0.501 0.72482 0.0
C881 C 0.51798 0.50665 0.72317 0.0
C882 C 0.53034 0.51905 0.74888 0.0
N883 N 0.4919 0.50746 0.75142 0.0
C884 C 0.50394 0.51969 0.77663 0.0
Co885 Co 0.58984 0.79048 0.61683 0.0
Co886 Co 0.63081 0.82941 0.58654 0.0
O887 O 0.61064 0.8026 0.58219 0.0
C888 C 0.6024 0.76167 0.61922 0.0
O889 O 0.61967 0.77529 0.627 0.0
C890 C 0.62263 0.82252 0.50728 0.0
O891 O 0.60774 0.80576 0.51317 0.0
O892 O 0.61151 0.83774 0.58941 0.0
O893 O 0.58928 0.81463 0.62333 0.0
H894 H 0.66188 0.89483 0.6404 0.0
H895 H 0.58472 0.77087 0.54771 0.0
O896 O 0.58948 0.76567 0.61192 0.0
H897 H 0.53287 0.78561 0.55381 0.0
H898 H 0.52829 0.73723 0.66505 0.0
H899 H 0.58175 0.80196 0.6867 0.0
H900 H 0.55579 0.79446 0.6031 0.0
H901 H 0.55417 0.75282 0.62117 0.0
O902 O 0.63232 0.83311 0.53318 0.0
H903 H 0.63715 0.86112 0.63439 0.0
H904 H 0.66691 0.85461 0.54755 0.0
H905 H 0.55609 0.78696 0.73114 0.0
H906 H 0.56191 0.7615 0.498 0.0
H907 H 0.52911 0.75435 0.72043 0.0
H908 H 0.5358 0.76895 0.5008 0.0
O909 O 0.6084 0.79793 0.65642 0.0
H910 H 0.6595 0.7914 0.53897 0.0
H911 H 0.66555 0.83859 0.62834 0.0
H912 H 0.68911 0.82799 0.62717 0.0
H913 H 0.68624 0.80428 0.58213 0.0
H914 H 0.63615 0.8022 0.54133 0.0
H915 H 0.69187 0.88829 0.55244 0.0
H916 H 0.6895 0.90863 0.59923 0.0
O917 O 0.63071 0.82721 0.63969 0.0
C918 C 0.59692 0.83118 0.60955 0.0
C919 C 0.66311 0.8861 0.61997 0.0
C920 C 0.67992 0.88243 0.57057 0.0
N921 N 0.65062 0.85586 0.59081 0.0
C922 C 0.64916 0.86699 0.61648 0.0
C923 C 0.66571 0.86338 0.56787 0.0
C924 C 0.67859 0.89384 0.59684 0.0
C925 C 0.57332 0.77404 0.54921 0.0
N926 N 0.57168 0.7833 0.57817 0.0
C927 C 0.56049 0.76876 0.52095 0.0
C928 C 0.54586 0.77296 0.52251 0.0
C929 C 0.54422 0.78234 0.55222 0.0
C930 C 0.55732 0.78742 0.57996 0.0
C931 C 0.53995 0.75145 0.66998 0.0
C932 C 0.57001 0.78781 0.68174 0.0
C933 C 0.55466 0.76035 0.64525 0.0
N934 N 0.56939 0.77836 0.65121 0.0
C935 C 0.55554 0.77937 0.70705 0.0
C936 C 0.54042 0.76107 0.70104 0.0
C937 C 0.6231 0.81395 0.66275 0.0
C938 C 0.661 0.80185 0.55853 0.0
C939 C 0.66419 0.82831 0.60857 0.0
C940 C 0.6776 0.82235 0.60806 0.0
C941 C 0.67598 0.80905 0.5828 0.0
N942 N 0.64963 0.82134 0.58443 0.0
C943 C 0.64787 0.80815 0.55983 0.0
Co944 Co 0.20526 0.79714 0.61518 0.0
Co945 Co 0.16626 0.80029 0.59147 0.0
O946 O 0.19263 0.80647 0.58333 0.0
C947 C 0.23494 0.83815 0.61745 0.0
O948 O 0.22183 0.84218 0.6272 0.0
C949 C 0.16674 0.79298 0.51316 0.0
O950 O 0.17614 0.78402 0.51937 0.0
O951 O 0.15742 0.77246 0.59149 0.0
O952 O 0.18091 0.77275 0.62322 0.0
H953 H 0.10211 0.76593 0.65004 0.0
H954 H 0.22158 0.81122 0.54376 0.0
O955 O 0.23029 0.82121 0.60866 0.0
H956 H 0.20636 0.74435 0.54676 0.0
H957 H 0.25865 0.78672 0.65409 0.0
H958 H 0.19571 0.77766 0.68519 0.0
H959 H 0.2002 0.75886 0.59905 0.0
H960 H 0.24228 0.79776 0.61363 0.0
O961 O 0.16186 0.79985 0.53885 0.0
H962 H 0.13536 0.7742 0.64001 0.0
H963 H 0.14106 0.81313 0.55886 0.0
H964 H 0.21149 0.76623 0.72627 0.0
H965 H 0.22816 0.79733 0.49094 0.0
H966 H 0.2432 0.77074 0.71081 0.0
H967 H 0.22048 0.76364 0.49224 0.0
O968 O 0.19957 0.80857 0.6568 0.0
H969 H 0.20356 0.8673 0.54587 0.0
H970 H 0.15979 0.82593 0.63932 0.0
H971 H 0.17153 0.86039 0.64115 0.0
H972 H 0.19354 0.88133 0.59412 0.0
H973 H 0.19163 0.83277 0.54528 0.0
H974 H 0.10783 0.80515 0.56781 0.0
H975 H 0.08813 0.78144 0.61378 0.0
O976 O 0.16966 0.8011 0.64433 0.0
C977 C 0.16408 0.76412 0.61054 0.0
C978 C 0.11056 0.7763 0.62996 0.0
C979 C 0.11376 0.79829 0.58379 0.0
N980 N 0.14017 0.79418 0.59895 0.0
C981 C 0.12941 0.78107 0.62419 0.0
C982 C 0.13255 0.8027 0.57875 0.0
C983 C 0.10272 0.785 0.6096 0.0
C984 C 0.21837 0.7966 0.54458 0.0
N985 N 0.21059 0.78589 0.57444 0.0
C986 C 0.22205 0.78879 0.51457 0.0
C987 C 0.21771 0.76988 0.5153 0.0
C988 C 0.20977 0.75904 0.54587 0.0
C989 C 0.20626 0.76732 0.57536 0.0
C990 C 0.24481 0.78461 0.66108 0.0
C991 C 0.20944 0.77953 0.67814 0.0
C992 C 0.23548 0.79086 0.63829 0.0
N993 N 0.21795 0.78816 0.64685 0.0
C994 C 0.21834 0.77309 0.70157 0.0
C995 C 0.23613 0.77565 0.69289 0.0
C996 C 0.18375 0.80709 0.66558 0.0
C997 C 0.19393 0.85832 0.56646 0.0
C998 C 0.16942 0.83494 0.61883 0.0
C999 C 0.17599 0.85445 0.61996 0.0
C1000 C 0.18833 0.86618 0.59356 0.0
N1001 N 0.17495 0.82733 0.59211 0.0
C1002 C 0.18708 0.83875 0.56619 0.0
Co1003 Co 0.20033 0.36871 0.58496 0.0
Co1004 Co 0.20399 0.40987 0.61771 0.0
O1005 O 0.19507 0.38982 0.58136 0.0
C1006 C 0.20245 0.37772 0.50589 0.0
O1007 O 0.20101 0.39284 0.51205 0.0
C1008 C 0.16333 0.39966 0.61629 0.0
O1009 O 0.15855 0.38188 0.62213 0.0
O1010 O 0.19087 0.39053 0.65532 0.0
O1011 O 0.19775 0.36823 0.63818 0.0
H1012 H 0.23224 0.43982 0.73584 0.0
H1013 H 0.16876 0.36556 0.53939 0.0
O1014 O 0.20291 0.36771 0.53161 0.0
H1015 H 0.13881 0.3114 0.62228 0.0
H1016 H 0.19529 0.30666 0.54829 0.0
H1017 H 0.22409 0.36021 0.63303 0.0
H1018 H 0.17327 0.33381 0.62484 0.0
H1019 H 0.18826 0.33281 0.54425 0.0
O1020 O 0.18068 0.41216 0.61117 0.0
H1021 H 0.22131 0.41509 0.68939 0.0
H1022 H 0.20467 0.44684 0.62384 0.0
H1023 H 0.23134 0.33425 0.63823 0.0
H1024 H 0.13435 0.34338 0.53564 0.0
H1025 H 0.2169 0.30722 0.59565 0.0
H1026 H 0.11909 0.31604 0.57732 0.0
O1027 O 0.2282 0.38712 0.58898 0.0
H1028 H 0.20862 0.44158 0.50037 0.0
H1029 H 0.24342 0.44254 0.60863 0.0
H1030 H 0.26014 0.46633 0.5616 0.0
H1031 H 0.24271 0.46598 0.50702 0.0
H1032 H 0.19251 0.41788 0.54791 0.0
H1033 H 0.21526 0.47184 0.66974 0.0
H1034 H 0.22925 0.46846 0.72616 0.0
O1035 O 0.22751 0.40836 0.62619 0.0
C1036 C 0.19176 0.37556 0.6612 0.0
C1037 C 0.22624 0.4415 0.71131 0.0
C1038 C 0.21669 0.45945 0.67423 0.0
N1039 N 0.21254 0.42959 0.65377 0.0
C1040 C 0.22008 0.42756 0.68485 0.0
C1041 C 0.21069 0.44523 0.64836 0.0
C1042 C 0.22454 0.45755 0.70588 0.0
C1043 C 0.16239 0.35357 0.55721 0.0
N1044 N 0.1732 0.35082 0.58174 0.0
C1045 C 0.14281 0.3411 0.55515 0.0
C1046 C 0.13425 0.32579 0.57858 0.0
C1047 C 0.1453 0.32318 0.6038 0.0
C1048 C 0.16483 0.33594 0.60509 0.0
C1049 C 0.20166 0.31835 0.56703 0.0
C1050 C 0.21768 0.34847 0.6145 0.0
C1051 C 0.19778 0.33324 0.56481 0.0
N1052 N 0.20569 0.348 0.5885 0.0
C1053 C 0.22187 0.33382 0.61753 0.0
C1054 C 0.21378 0.31867 0.59361 0.0
C1055 C 0.23611 0.40063 0.61153 0.0
C1056 C 0.21637 0.44188 0.52403 0.0
C1057 C 0.23578 0.44216 0.58481 0.0
C1058 C 0.2453 0.45574 0.55835 0.0
C1059 C 0.2355 0.45555 0.52776 0.0
N1060 N 0.21702 0.42876 0.58091 0.0
C1061 C 0.20731 0.42853 0.55106 0.0
H1062 H 0.18601 0.38452 0.44837 0.0
H1063 H 0.17928 0.36902 0.39005 0.0
H1064 H 0.2084 0.33917 0.42141 0.0
H1065 H 0.21422 0.35382 0.48037 0.0
H1066 H 0.19889 0.3685 0.33693 0.0
H1067 H 0.16002 0.29515 0.38944 0.0
H1068 H 0.16734 0.31562 0.41759 0.0
H1069 H 0.18385 0.30777 0.40612 0.0
C1070 C 0.19108 0.37473 0.44275 0.0
C1071 C 0.20052 0.37029 0.4691 0.0
C1072 C 0.18717 0.36582 0.40938 0.0
C1073 C 0.19283 0.35244 0.40146 0.0
C1074 C 0.2032 0.34882 0.42715 0.0
H1075 H 0.19479 0.3165 0.1826 0.0
H1076 H 0.20296 0.33145 0.24133 0.0
C1077 C 0.20674 0.35741 0.46076 0.0
C1078 C 0.18787 0.34236 0.3664 0.0
H1079 H 0.16821 0.29834 0.32789 0.0
C1080 C 0.19209 0.35315 0.33503 0.0
C1081 C 0.1786 0.32225 0.36365 0.0
C1082 C 0.172 0.30953 0.39601 0.0
C1083 C 0.18754 0.34451 0.30122 0.0
C1084 C 0.17926 0.32449 0.29842 0.0
C1085 C 0.17482 0.31368 0.32981 0.0
C1086 C 0.1747 0.31445 0.26333 0.0
C1087 C 0.19115 0.357 0.26904 0.0
C1088 C 0.15641 0.29901 0.25654 0.0
C1089 C 0.15188 0.28998 0.22324 0.0
C1090 C 0.16549 0.29636 0.19588 0.0
C1091 C 0.18393 0.3114 0.20302 0.0
C1092 C 0.18855 0.32012 0.23652 0.0
H1093 H 0.19136 0.37037 0.27624 0.0
H1094 H 0.20525 0.36098 0.25764 0.0
H1095 H 0.18016 0.34958 0.24822 0.0
H1096 H 0.14546 0.29421 0.27676 0.0
H1097 H 0.13753 0.27848 0.21853 0.0
H1098 H 0.6457 0.85849 0.4822 0.0
H1099 H 0.65976 0.86791 0.42288 0.0
H1100 H 0.63182 0.80894 0.3912 0.0
H1101 H 0.61687 0.79958 0.44977 0.0
H1102 H 0.68392 0.86214 0.39046 0.0
H1103 H 0.61927 0.82939 0.30711 0.0
H1104 H 0.6182 0.83081 0.35486 0.0
H1105 H 0.62032 0.81187 0.33437 0.0
C1106 C 0.64226 0.84757 0.46232 0.0
C1107 C 0.62997 0.8283 0.47054 0.0
C1108 C 0.65039 0.85296 0.42842 0.0
C1109 C 0.64667 0.83921 0.40207 0.0
C1110 C 0.63446 0.81993 0.41041 0.0
H1111 H 0.72188 0.86014 0.21987 0.0
H1112 H 0.70695 0.85301 0.27874 0.0
C1113 C 0.62598 0.81456 0.44407 0.0
C1114 C 0.6563 0.845 0.36666 0.0
H1115 H 0.64856 0.83869 0.27698 0.0
C1116 C 0.67612 0.85715 0.36565 0.0
C1117 C 0.64623 0.83882 0.33406 0.0
C1118 C 0.62482 0.82719 0.33262 0.0
C1119 C 0.68611 0.86304 0.33326 0.0
C1120 C 0.67617 0.85595 0.30073 0.0
C1121 C 0.65633 0.844 0.30175 0.0
C1122 C 0.68587 0.86089 0.2653 0.0
C1123 C 0.70713 0.87722 0.33445 0.0
C1124 C 0.67878 0.86719 0.23753 0.0
C1125 C 0.68694 0.87069 0.2036 0.0
C1126 C 0.70262 0.86832 0.19671 0.0
C1127 C 0.71002 0.86241 0.22455 0.0
C1128 C 0.70154 0.85844 0.25834 0.0
H1129 H 0.71104 0.88593 0.35913 0.0
H1130 H 0.71515 0.86948 0.33439 0.0
H1131 H 0.71168 0.88694 0.31118 0.0
H1132 H 0.66674 0.86921 0.24198 0.0
H1133 H 0.6809 0.8752 0.18266 0.0
H1134 H 0.17829 0.78487 0.44971 0.0
H1135 H 0.17149 0.79141 0.38923 0.0
H1136 H 0.13773 0.81394 0.43278 0.0
H1137 H 0.14459 0.80779 0.4928 0.0
H1138 H 0.13688 0.77864 0.35367 0.0
H1139 H 0.1745 0.85705 0.36862 0.0
H1140 H 0.17749 0.84181 0.3997 0.0
H1141 H 0.157 0.84472 0.40249 0.0
C1142 C 0.16941 0.79121 0.44637 0.0
C1143 C 0.16214 0.79594 0.47621 0.0
C1144 C 0.16554 0.79495 0.4118 0.0
C1145 C 0.15442 0.80355 0.40647 0.0
C1146 C 0.14675 0.80778 0.43618 0.0
H1147 H 0.11404 0.83889 0.22209 0.0
H1148 H 0.11995 0.83111 0.28222 0.0
C1149 C 0.15063 0.80412 0.47058 0.0
C1150 C 0.15057 0.80796 0.36997 0.0
H1151 H 0.15498 0.84429 0.3173 0.0
C1152 C 0.14095 0.79301 0.34563 0.0
C1153 C 0.15581 0.82671 0.35951 0.0
C1154 C 0.16693 0.84353 0.38381 0.0
C1155 C 0.13609 0.79623 0.31141 0.0
C1156 C 0.14125 0.81497 0.30102 0.0
C1157 C 0.15091 0.82992 0.32534 0.0
C1158 C 0.13737 0.81945 0.26462 0.0
C1159 C 0.1251 0.77947 0.28694 0.0
C1160 C 0.14541 0.81575 0.23483 0.0
C1161 C 0.14208 0.82015 0.20059 0.0
C1162 C 0.13068 0.8285 0.19524 0.0
C1163 C 0.12279 0.8324 0.22518 0.0
C1164 C 0.12617 0.82798 0.25956 0.0
H1165 H 0.11774 0.76587 0.30193 0.0
H1166 H 0.1144 0.78108 0.27131 0.0
H1167 H 0.13509 0.77855 0.26799 0.0
H1168 H 0.15447 0.80961 0.23806 0.0
H1169 H 0.14855 0.81707 0.1783 0.0
H1170 H 0.33641 0.17939 0.51141 0.0
H1171 H 0.32196 0.1736 0.57009 0.0
H1172 H 0.37595 0.21427 0.61573 0.0
H1173 H 0.39067 0.22045 0.55644 0.0
H1174 H 0.33084 0.16024 0.63071 0.0
H1175 H 0.33974 0.23185 0.65337 0.0
H1176 H 0.34262 0.22395 0.61007 0.0
H1177 H 0.36121 0.23171 0.64269 0.0
C1178 C 0.34531 0.18724 0.53377 0.0
C1179 C 0.36474 0.20053 0.52907 0.0
C1180 C 0.33697 0.18385 0.56739 0.0
C1181 C 0.34778 0.19367 0.59722 0.0
C1182 C 0.36725 0.20679 0.59291 0.0
H1183 H 0.32543 0.19024 0.82096 0.0
H1184 H 0.3379 0.19707 0.76068 0.0
C1185 C 0.37567 0.21023 0.55908 0.0
C1186 C 0.33855 0.18973 0.63274 0.0
H1187 H 0.32753 0.21009 0.70142 0.0
C1188 C 0.33004 0.17111 0.64614 0.0
C1189 C 0.33743 0.20391 0.65268 0.0
C1190 C 0.34557 0.22395 0.63894 0.0
C1191 C 0.32086 0.16639 0.67935 0.0
C1192 C 0.31983 0.1806 0.6994 0.0
C1193 C 0.32822 0.19919 0.68588 0.0
C1194 C 0.31143 0.17682 0.73566 0.0
C1195 C 0.31286 0.14638 0.69318 0.0
C1196 C 0.29218 0.1634 0.74172 0.0
C1197 C 0.28491 0.15936 0.77652 0.0
C1198 C 0.29681 0.16869 0.80572 0.0
C1199 C 0.31587 0.18257 0.79924 0.0
C1200 C 0.32306 0.18659 0.76469 0.0
H1201 H 0.31832 0.13833 0.6781 0.0
H1202 H 0.31639 0.14649 0.72178 0.0
H1203 H 0.29716 0.1387 0.69057 0.0
H1204 H 0.28286 0.15593 0.71958 0.0
H1205 H 0.27017 0.14865 0.7806 0.0
H1206 H 0.81551 0.14963 0.51051 0.0
H1207 H 0.82081 0.14212 0.5706 0.0
H1208 H 0.78766 0.16561 0.61306 0.0
H1209 H 0.78195 0.17298 0.55246 0.0
H1210 H 0.83852 0.16623 0.62652 0.0
H1211 H 0.76389 0.11373 0.66157 0.0
H1212 H 0.77126 0.12165 0.61646 0.0
H1213 H 0.76758 0.13643 0.64729 0.0
C1214 C 0.8092 0.15314 0.53248 0.0
C1215 C 0.79819 0.16185 0.52651 0.0
C1216 C 0.8123 0.14884 0.56693 0.0
C1217 C 0.80446 0.15305 0.59637 0.0
C1218 C 0.79355 0.16186 0.59069 0.0
H1219 H 0.81305 0.14177 0.82383 0.0
H1220 H 0.80624 0.14815 0.76383 0.0
C1221 C 0.79038 0.16617 0.55605 0.0
C1222 C 0.80825 0.14861 0.63286 0.0
H1223 H 0.78679 0.12258 0.7075 0.0
C1224 C 0.82721 0.15664 0.64418 0.0
C1225 C 0.79349 0.13605 0.65588 0.0
C1226 C 0.77291 0.12631 0.64468 0.0
C1227 C 0.8318 0.15269 0.678 0.0
C1228 C 0.81705 0.14013 0.70099 0.0
C1229 C 0.79808 0.13214 0.68977 0.0
C1230 C 0.82098 0.13566 0.73731 0.0
C1231 C 0.85238 0.16232 0.68918 0.0
C1232 C 0.83133 0.12623 0.74243 0.0
C1233 C 0.83527 0.1225 0.77691 0.0
C1234 C 0.8289 0.12813 0.80686 0.0
C1235 C 0.81827 0.13729 0.80147 0.0
C1236 C 0.81431 0.14093 0.76713 0.0
H1237 H 0.86154 0.17465 0.67186 0.0
H1238 H 0.85408 0.16731 0.71719 0.0
H1239 H 0.8575 0.15199 0.68735 0.0
H1240 H 0.83637 0.12177 0.71975 0.0
H1241 H 0.84344 0.11539 0.78008 0.0
H1242 H 0.85943 0.71967 0.77943 0.0
H1243 H 0.85143 0.70378 0.72137 0.0
H1244 H 0.87118 0.6662 0.75728 0.0
H1245 H 0.87813 0.68132 0.81588 0.0
H1246 H 0.86987 0.69946 0.67047 0.0
H1247 H 0.82075 0.62747 0.72196 0.0
H1248 H 0.8304 0.64824 0.75003 0.0
H1249 H 0.844 0.63674 0.74066 0.0
C1250 C 0.86211 0.70805 0.77487 0.0
C1251 C 0.86926 0.70165 0.80232 0.0
C1252 C 0.85749 0.69892 0.74166 0.0
C1253 C 0.86016 0.68336 0.73503 0.0
C1254 C 0.86824 0.67763 0.76195 0.0
H1255 H 0.86111 0.6443 0.51833 0.0
H1256 H 0.86959 0.65878 0.57745 0.0
C1257 C 0.87243 0.68645 0.79538 0.0
C1258 C 0.85469 0.67331 0.69993 0.0
H1259 H 0.83035 0.62931 0.66134 0.0
C1260 C 0.86112 0.68412 0.66855 0.0
C1261 C 0.84292 0.65329 0.69709 0.0
C1262 C 0.83395 0.6408 0.72923 0.0
C1263 C 0.85639 0.67556 0.63469 0.0
C1264 C 0.84557 0.65546 0.63192 0.0
C1265 C 0.8389 0.64466 0.66327 0.0
C1266 C 0.84063 0.64539 0.59683 0.0
C1267 C 0.86257 0.6883 0.60235 0.0
C1268 C 0.82165 0.63198 0.58855 0.0
C1269 C 0.81684 0.62315 0.55507 0.0
C1270 C 0.83088 0.62772 0.529 0.0
C1271 C 0.84993 0.64061 0.53773 0.0
C1272 C 0.85477 0.6491 0.57143 0.0
H1273 H 0.86488 0.70265 0.60889 0.0
H1274 H 0.87625 0.69014 0.59245 0.0
H1275 H 0.8519 0.68217 0.58064 0.0
H1276 H 0.81045 0.62869 0.60766 0.0
H1277 H 0.80203 0.61335 0.54913 0.0
H1278 H 0.99808 0.515 0.15626 0.0
H1279 H 0.01154 0.52307 0.09662 0.0
H1280 H 0.95526 0.49872 0.05197 0.0
H1281 H 0.94155 0.49078 0.11201 0.0
H1282 H 0.00626 0.49949 0.0401 0.0
H1283 H 0.9829 0.551 0.00495 0.0
H1284 H 0.98212 0.54285 0.04996 0.0
H1285 H 0.96401 0.52806 0.01852 0.0
C1286 C 0.98848 0.51141 0.13388 0.0
C1287 C 0.96867 0.50231 0.13906 0.0
C1288 C 0.99625 0.51603 0.0997 0.0
C1289 C 0.98447 0.51175 0.06979 0.0
C1290 C 0.96467 0.50252 0.0747 0.0
H1291 H 0.00372 0.5232 0.84291 0.0
H1292 H 0.99108 0.51697 0.90324 0.0
C1293 C 0.95684 0.4979 0.10903 0.0
C1294 C 0.99305 0.5166 0.03359 0.0
H1295 H 0.99718 0.54244 0.95892 0.0
C1296 C 0.00434 0.50895 0.02241 0.0
C1297 C 0.99061 0.529 0.01055 0.0
C1298 C 0.9794 0.53836 0.02162 0.0
C1299 C 0.01292 0.51304 0.9886 0.0
C1300 C 0.0104 0.52535 0.9655 0.0
C1301 C 0.99916 0.53305 0.9767 0.0
C1302 C 0.01854 0.52971 0.92896 0.0
C1303 C 0.02419 0.50373 0.9775 0.0
C1304 C 0.03828 0.53923 0.92323 0.0
C1305 C 0.04566 0.54287 0.8885 0.0
C1306 C 0.03339 0.53708 0.85892 0.0
C1307 C 0.01365 0.52783 0.86494 0.0
C1308 C 0.00634 0.52426 0.8995 0.0
H1309 H 0.02129 0.49153 0.99495 0.0
H1310 H 0.02091 0.49863 0.94955 0.0
H1311 H 0.03958 0.5143 0.97919 0.0
H1312 H 0.04799 0.54385 0.94561 0.0
H1313 H 0.06091 0.55005 0.88486 0.0
H1314 H 0.53289 0.47935 0.12235 0.0
H1315 H 0.52474 0.4867 0.06399 0.0
H1316 H 0.46528 0.4555 0.0918 0.0
H1317 H 0.47346 0.44906 0.15078 0.0
H1318 H 0.50584 0.46776 0.00922 0.0
H1319 H 0.46862 0.50375 0.06227 0.0
H1320 H 0.48179 0.49653 0.09054 0.0
H1321 H 0.45773 0.47968 0.07764 0.0
C1322 C 0.51807 0.47395 0.1159 0.0
C1323 C 0.50383 0.46374 0.14126 0.0
C1324 C 0.51341 0.47822 0.08254 0.0
C1325 C 0.4944 0.47216 0.07367 0.0
C1326 C 0.4801 0.46101 0.09832 0.0
H1327 H 0.45766 0.47039 0.85472 0.0
H1328 H 0.46488 0.46263 0.91336 0.0
C1329 C 0.48477 0.45712 0.13193 0.0
C1330 C 0.48957 0.47746 0.0387 0.0
H1331 H 0.46433 0.49611 1.00031 0.0
C1332 C 0.49685 0.47407 0.00736 0.0
C1333 C 0.47821 0.48614 0.03602 0.0
C1334 C 0.47133 0.49194 0.06845 0.0
C1335 C 0.49286 0.47875 0.97363 0.0
C1336 C 0.4805 0.4863 0.97084 0.0
C1337 C 0.47352 0.49004 0.00221 0.0
C1338 C 0.47484 0.49064 0.93576 0.0
C1339 C 0.50243 0.47603 0.94154 0.0
C1340 C 0.4768 0.5086 0.92922 0.0
C1341 C 0.47204 0.51287 0.89593 0.0
C1342 C 0.46545 0.49934 0.86838 0.0
C1343 C 0.46294 0.48121 0.87529 0.0
C1344 C 0.46728 0.47682 0.90874 0.0
H1345 H 0.5159 0.47653 0.949 0.0
H1346 H 0.49292 0.46184 0.92969 0.0
H1347 H 0.50565 0.48706 0.92101 0.0
H1348 H 0.48243 0.5195 0.94962 0.0
H1349 H 0.47418 0.52698 0.89139 0.0
H1350 H 0.52617 0.05337 0.11753 0.0
H1351 H 0.51823 0.03769 0.05928 0.0
H1352 H 0.53867 1.0005 0.09406 0.0
H1353 H 0.5456 0.01542 0.15284 0.0
H1354 H 0.5367 0.03357 0.00779 0.0
H1355 H 0.48799 0.96155 0.05971 0.0
H1356 H 0.49767 0.98235 0.08771 0.0
H1357 H 0.51135 0.97097 0.07799 0.0
C1358 C 0.52904 0.0419 0.11267 0.0
C1359 C 0.53636 0.03553 0.13988 0.0
C1360 C 0.52445 0.03289 0.07935 0.0
C1361 C 0.52731 0.01748 0.07238 0.0
C1362 C 0.53559 0.01181 0.09902 0.0
H1363 H 0.52664 0.97796 0.85514 0.0
H1364 H 0.53568 0.99269 0.914 0.0
C1365 C 0.53977 0.02052 0.13255 0.0
C1366 C 0.5217 0.00743 0.03731 0.0
H1367 H 0.49713 0.96341 0.99886 0.0
C1368 C 0.52795 0.01823 0.0059 0.0
C1369 C 0.50993 0.98741 0.03454 0.0
C1370 C 0.50118 0.97493 0.06679 0.0
C1371 C 0.52302 0.00965 0.97206 0.0
C1372 C 0.51216 0.98955 0.96934 0.0
C1373 C 0.5057 0.97877 1.00074 0.0
C1374 C 0.5069 0.97946 0.93429 0.0
C1375 C 0.52904 0.02237 0.9397 0.0
C1376 C 0.48783 0.9661 0.92656 0.0
C1377 C 0.4827 0.95714 0.89324 0.0
C1378 C 0.4965 0.96153 0.86674 0.0
C1379 C 0.51564 0.97441 0.87487 0.0
C1380 C 0.5208 0.98304 0.90843 0.0
H1381 H 0.53148 0.03676 0.94634 0.0
H1382 H 0.5426 0.02411 0.92937 0.0
H1383 H 0.5182 0.01628 0.91826 0.0
H1384 H 0.47681 0.96292 0.94603 0.0
H1385 H 0.46783 0.94735 0.88779 0.0
H1386 H 0.12155 0.27929 0.95402 0.0
H1387 H 0.12666 0.29415 0.89528 0.0
H1388 H 0.18712 0.32511 0.91435 0.0
H1389 H 0.18212 0.31088 0.97328 0.0
H1390 H 0.17522 0.34786 0.8883 0.0
H1391 H 0.14621 0.28242 0.80594 0.0
H1392 H 0.12967 0.28216 0.83792 0.0
H1393 H 0.15086 0.28251 0.85292 0.0
C1394 C 0.13594 0.28913 0.94553 0.0
C1395 C 0.15143 0.29386 0.96828 0.0
C1396 C 0.13884 0.29756 0.91191 0.0
C1397 C 0.1573 0.31055 0.90022 0.0
C1398 C 0.17275 0.31513 0.9228 0.0
H1399 H 0.19861 0.3485 0.68882 0.0
H1400 H 0.18931 0.33328 0.74694 0.0
C1401 C 0.16986 0.30693 0.95648 0.0
C1402 C 0.16068 0.31989 0.86494 0.0
H1403 H 0.15498 0.31117 0.77557 0.0
C1404 C 0.17078 0.33984 0.86363 0.0
C1405 C 0.155 0.30939 0.83279 0.0
C1406 C 0.145 0.28795 0.83231 0.0
C1407 C 0.17565 0.34962 0.83108 0.0
C1408 C 0.16972 0.33914 0.79894 0.0
C1409 C 0.15937 0.31918 0.80026 0.0
C1410 C 0.17511 0.3485 0.76362 0.0
C1411 C 0.18771 0.37103 0.83149 0.0
C1412 C 0.1701 0.36206 0.75351 0.0
C1413 C 0.17564 0.37104 0.72036 0.0
C1414 C 0.186 0.36634 0.6965 0.0
C1415 C 0.19066 0.35249 0.70651 0.0
C1416 C 0.18531 0.34372 0.73973 0.0
H1417 H 0.19513 0.37638 0.85738 0.0
H1418 H 0.19851 0.37615 0.80996 0.0
H1419 H 0.17848 0.37731 0.82726 0.0
H1420 H 0.16183 0.36564 0.77117 0.0
H1421 H 0.17163 0.38148 0.71329 0.0
H1422 H 0.61759 0.78792 0.7146 0.0
H1423 H 0.63361 0.79406 0.77234 0.0
H1424 H 0.66463 0.85413 0.74916 0.0
H1425 H 0.64922 0.8481 0.69118 0.0
H1426 H 0.68755 0.84246 0.77628 0.0
H1427 H 0.62285 0.81569 0.85995 0.0
H1428 H 0.62217 0.79845 0.82917 0.0
H1429 H 0.62262 0.81946 0.81268 0.0
C1430 C 0.62773 0.80244 0.72192 0.0
C1431 C 0.63205 0.81752 0.69835 0.0
C1432 C 0.63683 0.80594 0.75498 0.0
C1433 C 0.65012 0.82459 0.76529 0.0
C1434 C 0.65442 0.83962 0.74178 0.0
H1435 H 0.68818 0.86945 0.97423 0.0
H1436 H 0.67395 0.86002 0.91535 0.0
C1437 C 0.64554 0.83614 0.70865 0.0
C1438 C 0.65977 0.82862 0.80036 0.0
H1439 H 0.65174 0.82501 0.88995 0.0
C1440 C 0.67973 0.83862 0.80118 0.0
C1441 C 0.64954 0.82374 0.83277 0.0
C1442 C 0.62812 0.81391 0.83375 0.0
C1443 C 0.68976 0.84416 0.83349 0.0
C1444 C 0.67952 0.8391 0.86589 0.0
C1445 C 0.65957 0.82879 0.86507 0.0
C1446 C 0.68906 0.84536 0.90097 0.0
C1447 C 0.71116 0.85602 0.83252 0.0
C1448 C 0.70245 0.84037 0.91245 0.0
C1449 C 0.71087 0.84601 0.9461 0.0
C1450 C 0.70576 0.85641 0.96903 0.0
C1451 C 0.69241 0.8614 0.95732 0.0
C1452 C 0.68421 0.85598 0.92365 0.0
H1453 H 0.7164 0.86271 0.80604 0.0
H1454 H 0.7165 0.8674 0.85302 0.0
H1455 H 0.7173 0.84678 0.83804 0.0
H1456 H 0.7061 0.83182 0.89572 0.0
H1457 H 0.72095 0.84176 0.95453 0.0
H1458 H 0.13066 0.8186 0.97217 0.0
H1459 H 0.142 0.81535 0.91411 0.0
H1460 H 0.16989 0.87608 0.89908 0.0
H1461 H 0.15824 0.8795 0.95738 0.0
H1462 H 0.15155 0.85618 0.83881 0.0
H1463 H 0.19624 0.82863 0.89327 0.0
H1464 H 0.17216 0.81496 0.90849 0.0
H1465 H 0.18625 0.83962 0.92094 0.0
C1466 C 0.13913 0.83131 0.95655 0.0
C1467 C 0.14369 0.84934 0.96954 0.0
C1468 C 0.14573 0.82942 0.92345 0.0
C1469 C 0.15726 0.84552 0.90281 0.0
C1470 C 0.16121 0.8635 0.91489 0.0
H1471 H 0.21154 0.82849 0.71437 0.0
H1472 H 0.20744 0.84059 0.77159 0.0
C1473 C 0.15447 0.86542 0.94807 0.0
C1474 C 0.16483 0.84328 0.86843 0.0
H1475 H 0.188 0.82225 0.83108 0.0
C1476 C 0.15977 0.84904 0.8371 0.0
C1477 C 0.17597 0.83438 0.86628 0.0
C1478 C 0.18315 0.82924 0.8991 0.0
C1479 C 0.16452 0.84502 0.80355 0.0
C1480 C 0.17417 0.83459 0.8014 0.0
C1481 C 0.18031 0.82994 0.83275 0.0
C1482 C 0.17686 0.82726 0.76708 0.0
C1483 C 0.15893 0.85178 0.77075 0.0
C1484 C 0.161 0.81529 0.74624 0.0
C1485 C 0.16327 0.80842 0.71372 0.0
C1486 C 0.18148 0.81315 0.70151 0.0
C1487 C 0.19734 0.82457 0.72304 0.0
C1488 C 0.19503 0.83157 0.75562 0.0
H1489 H 0.15781 0.8646 0.77656 0.0
H1490 H 0.16932 0.85518 0.74884 0.0
H1491 H 0.14479 0.84043 0.76147 0.0
H1492 H 0.1468 0.81126 0.75511 0.0
H1493 H 0.15071 0.79948 0.69804 0.0
H1494 H 0.39741 0.18565 0.28338 0.0
H1495 H 0.38512 0.17789 0.22216 0.0
H1496 H 0.33605 0.18166 0.25324 0.0
H1497 H 0.34824 0.18995 0.31326 0.0
H1498 H 0.35059 0.14788 0.19607 0.0
H1499 H 0.35634 0.21749 0.16898 0.0
H1500 H 0.36797 0.21369 0.20638 0.0
H1501 H 0.34326 0.20694 0.209 0.0
C1502 C 0.38408 0.18495 0.27703 0.0
C1503 C 0.37389 0.18852 0.30327 0.0
C1504 C 0.37706 0.18045 0.24216 0.0
C1505 C 0.35984 0.17951 0.23319 0.0
C1506 C 0.34956 0.18272 0.25945 0.0
H1507 H 0.28228 0.1269 0.05577 0.0
H1508 H 0.299 0.13335 0.11295 0.0
C1509 C 0.35657 0.18736 0.29393 0.0
C1510 C 0.35229 0.1752 0.19651 0.0
H1511 H 0.33543 0.19176 0.13098 0.0
C1512 C 0.3475 0.15754 0.18147 0.0
C1513 C 0.34849 0.18794 0.1775 0.0
C1514 C 0.35447 0.20765 0.19115 0.0
C1515 C 0.3384 0.15202 0.14823 0.0
C1516 C 0.33358 0.16433 0.13024 0.0
C1517 C 0.33889 0.1822 0.14498 0.0
C1518 C 0.32363 0.1595 0.09549 0.0
C1519 C 0.33422 0.1332 0.13264 0.0
C1520 C 0.33165 0.17228 0.06714 0.0
C1521 C 0.32196 0.16896 0.03509 0.0
C1522 C 0.30409 0.15255 0.03023 0.0
C1523 C 0.29608 0.13959 0.05854 0.0
C1524 C 0.30571 0.14315 0.09108 0.0
H1525 H 0.34357 0.12825 0.14423 0.0
H1526 H 0.31929 0.12233 0.13869 0.0
H1527 H 0.33606 0.13412 0.10328 0.0
H1528 H 0.34539 0.18505 0.06996 0.0
H1529 H 0.32854 0.17944 0.01422 0.0
H1530 H 0.88003 0.15714 0.04377 0.0
H1531 H 0.87659 0.16847 0.10235 0.0
H1532 H 0.81574 0.13909 0.08866 0.0
H1533 H 0.81903 0.12813 0.0302 0.0
H1534 H 0.83 0.17593 0.10973 0.0
H1535 H 0.8576 0.13929 0.19543 0.0
H1536 H 0.87337 0.15406 0.16089 0.0
H1537 H 0.85147 0.13308 0.14926 0.0
C1538 C 0.86591 0.15288 0.05354 0.0
C1539 C 0.8498 0.14174 0.03238 0.0
C1540 C 0.86398 0.15936 0.08698 0.0
C1541 C 0.84589 0.15454 0.09988 0.0
C1542 C 0.82982 0.14305 0.07913 0.0
H1543 H 0.80088 0.1503 0.30466 0.0
H1544 H 0.81155 0.14583 0.24683 0.0
C1545 C 0.83174 0.13674 0.04574 0.0
C1546 C 0.84342 0.16177 0.13449 0.0
H1547 H 0.84789 0.15876 0.2242 0.0
C1548 C 0.83403 0.17232 0.13481 0.0
C1549 C 0.84867 0.15696 0.16706 0.0
C1550 C 0.8582 0.1451 0.16838 0.0
C1551 C 0.82909 0.17761 0.16687 0.0
C1552 C 0.83411 0.17258 0.19945 0.0
C1553 C 0.84413 0.16264 0.19912 0.0
C1554 C 0.82754 0.17581 0.23414 0.0
C1555 C 0.81773 0.18767 0.16555 0.0
C1556 C 0.83288 0.19421 0.24612 0.0
C1557 C 0.82658 0.19683 0.2792 0.0
C1558 C 0.81509 0.18111 0.30094 0.0
C1559 C 0.80975 0.16274 0.28866 0.0
C1560 C 0.81589 0.16014 0.25563 0.0
H1561 H 0.8116 0.18684 0.13872 0.0
H1562 H 0.80598 0.18151 0.18526 0.0
H1563 H 0.82714 0.2029 0.1722 0.0
H1564 H 0.84213 0.20652 0.23017 0.0
H1565 H 0.8311 0.21117 0.28811 0.0
H1566 H 0.84419 0.72099 0.04408 0.0
H1567 H 0.83451 0.70643 0.10311 0.0
H1568 H 0.86383 0.67524 0.08472 0.0
H1569 H 0.87294 0.68914 0.02554 0.0
H1570 H 0.82929 0.65262 0.11039 0.0
H1571 H 0.86529 0.71802 0.19294 0.0
H1572 H 0.84905 0.71821 0.1608 0.0
H1573 H 0.86998 0.71799 0.14601 0.0
C1574 C 0.84872 0.71118 0.05282 0.0
C1575 C 0.85935 0.70624 0.03017 0.0
C1576 C 0.84325 0.70293 0.08661 0.0
C1577 C 0.84864 0.68992 0.09853 0.0
C1578 C 0.85948 0.68522 0.07609 0.0
H1579 H 0.8521 0.6519 0.3097 0.0
H1580 H 0.85784 0.66749 0.25197 0.0
C1581 C 0.86472 0.69322 0.04226 0.0
C1582 C 0.84258 0.68058 0.13381 0.0
H1583 H 0.84539 0.68921 0.2232 0.0
C1584 C 0.83279 0.66062 0.13508 0.0
C1585 C 0.84728 0.69105 0.16598 0.0
C1586 C 0.85863 0.71249 0.16652 0.0
C1587 C 0.8279 0.65082 0.16759 0.0
C1588 C 0.83236 0.66127 0.19977 0.0
C1589 C 0.84185 0.68123 0.19849 0.0
C1590 C 0.82845 0.65186 0.23506 0.0
C1591 C 0.81873 0.62942 0.16708 0.0
C1592 C 0.80996 0.63799 0.24497 0.0
C1593 C 0.80666 0.62878 0.27785 0.0
C1594 C 0.82174 0.63358 0.30168 0.0
C1595 C 0.84015 0.64783 0.292 0.0
C1596 C 0.84346 0.65681 0.25901 0.0
H1597 H 0.82095 0.62417 0.14121 0.0
H1598 H 0.82444 0.62435 0.18865 0.0
H1599 H 0.80319 0.623 0.17113 0.0
H1600 H 0.79808 0.63429 0.22731 0.0
H1601 H 0.79227 0.61804 0.28471 0.0
H1602 H 0.94713 0.4519 0.3769 0.0
H1603 H 0.96196 0.4562 0.43566 0.0
H1604 H 0.99181 0.51702 0.42078 0.0
H1605 H 0.9775 0.51289 0.36216 0.0
H1606 H 0.01527 0.5039 0.44246 0.0
H1607 H 0.95093 0.47515 0.52813 0.0
H1608 H 0.9504 0.45941 0.49394 0.0
H1609 H 0.95065 0.48092 0.48182 0.0
C1610 C 0.95664 0.46619 0.38644 0.0
C1611 C 0.96115 0.48205 0.3649 0.0
C1612 C 0.96508 0.46862 0.41999 0.0
C1613 C 0.97791 0.48694 0.4326 0.0
C1614 C 0.98202 0.50276 0.41147 0.0
H1615 H 0.01831 0.53356 0.63707 0.0
H1616 H 0.00316 0.52245 0.57933 0.0
C1617 C 0.97376 0.50036 0.37799 0.0
C1618 C 0.98769 0.48994 0.46726 0.0
H1619 H 0.98027 0.48579 0.55699 0.0
C1620 C 0.00764 0.49983 0.46755 0.0
C1621 C 0.97765 0.48464 0.49984 0.0
C1622 C 0.95623 0.47457 0.50115 0.0
C1623 C 0.01788 0.50517 0.49959 0.0
C1624 C 0.00785 0.50008 0.53219 0.0
C1625 C 0.98789 0.48961 0.5319 0.0
C1626 C 0.01763 0.50692 0.56683 0.0
C1627 C 0.03928 0.51701 0.49824 0.0
C1628 C 0.03095 0.50199 0.57888 0.0
C1629 C 0.03988 0.50853 0.6119 0.0
C1630 C 0.03539 0.51988 0.63352 0.0
C1631 C 0.02209 0.52482 0.62117 0.0
C1632 C 0.01334 0.51842 0.58819 0.0
H1633 H 0.04447 0.52312 0.47135 0.0
H1634 H 0.04463 0.52883 0.51783 0.0
H1635 H 0.04546 0.50795 0.50503 0.0
H1636 H 0.03422 0.49285 0.56303 0.0
H1637 H 0.04989 0.50431 0.62086 0.0
H1638 H 0.49198 0.54252 0.62626 0.0
H1639 H 0.50025 0.53618 0.56706 0.0
H1640 H 0.46656 0.47584 0.58636 0.0
H1641 H 0.45875 0.48201 0.64562 0.0
H1642 H 0.50066 0.48507 0.56098 0.0
H1643 H 0.46893 0.5183 0.47726 0.0
H1644 H 0.48578 0.53418 0.50935 0.0
H1645 H 0.46399 0.51397 0.52422 0.0
C1646 C 0.48617 0.52791 0.61767 0.0
C1647 C 0.47472 0.51278 0.64062 0.0
C1648 C 0.49084 0.52431 0.5838 0.0
C1649 C 0.48385 0.50552 0.57213 0.0
C1650 C 0.47213 0.49044 0.5948 0.0
H1651 H 0.48018 0.4638 0.3597 0.0
H1652 H 0.47385 0.4731 0.41761 0.0
C1653 C 0.46767 0.49401 0.62869 0.0
C1654 C 0.48928 0.50136 0.53703 0.0
H1655 H 0.48753 0.50753 0.4475 0.0
C1656 C 0.49778 0.48998 0.53615 0.0
C1657 C 0.48536 0.50762 0.50468 0.0
C1658 C 0.47535 0.51904 0.50376 0.0
C1659 C 0.50228 0.4845 0.50384 0.0
C1660 C 0.49873 0.4911 0.4715 0.0
C1661 C 0.49037 0.50261 0.47236 0.0
C1662 C 0.50283 0.48557 0.43643 0.0
C1663 C 0.51017 0.47118 0.50472 0.0
C1664 C 0.52126 0.48959 0.42767 0.0
C1665 C 0.52489 0.48403 0.39474 0.0
C1666 C 0.5102 0.47467 0.36969 0.0
C1667 C 0.49182 0.47095 0.37836 0.0
C1668 C 0.48818 0.47631 0.41143 0.0
H1669 H 0.50705 0.46339 0.5304 0.0
H1670 H 0.50426 0.46062 0.48276 0.0
H1671 H 0.52584 0.47952 0.50161 0.0
H1672 H 0.53288 0.49714 0.4462 0.0
H1673 H 0.53925 0.48733 0.38872 0.0
H1674 H 0.45639 0.94921 0.62203 0.0
H1675 H 0.4625 0.96491 0.56401 0.0
H1676 H 0.52228 0.99757 0.58873 0.0
H1677 H 0.51628 0.98246 0.64698 0.0
H1678 H 0.50987 0.01951 0.55986 0.0
H1679 H 0.4855 0.95439 0.47811 0.0
H1680 H 0.46778 0.95329 0.50807 0.0
H1681 H 0.48904 0.95466 0.52556 0.0
C1682 C 0.47085 0.95968 0.61504 0.0
C1683 C 0.48586 0.9645 0.63909 0.0
C1684 C 0.47432 0.96858 0.58181 0.0
C1685 C 0.49289 0.98219 0.57181 0.0
C1686 C 0.50785 0.98708 0.59585 0.0
H1687 H 0.53777 0.0203 0.36231 0.0
H1688 H 0.52854 0.00595 0.42115 0.0
C1689 C 0.50438 0.97838 0.62915 0.0
C1690 C 0.49691 0.99156 0.53648 0.0
H1691 H 0.49391 0.98285 0.44712 0.0
C1692 C 0.50636 0.01151 0.53517 0.0
C1693 C 0.49249 0.98108 0.50434 0.0
C1694 C 0.48331 0.95969 0.50395 0.0
C1695 C 0.51175 0.0213 0.50264 0.0
C1696 C 0.50706 0.01082 0.47049 0.0
C1697 C 0.49738 0.99086 0.4718 0.0
C1698 C 0.51296 0.02018 0.43522 0.0
C1699 C 0.52301 0.04276 0.50314 0.0
C1700 C 0.5073 0.03302 0.42352 0.0
C1701 C 0.51281 0.0415 0.38994 0.0
C1702 C 0.52377 0.03701 0.36726 0.0
C1703 C 0.52931 0.02408 0.37906 0.0
C1704 C 0.52401 0.01581 0.41269 0.0
H1705 H 0.5297 0.04832 0.52952 0.0
H1706 H 0.53434 0.04829 0.48256 0.0
H1707 H 0.51336 0.0484 0.49747 0.0
H1708 H 0.4984 0.03626 0.4401 0.0
H1709 H 0.50812 0.05124 0.38146 0.0
H1710 H 0.15928 0.233 0.01388 0.0
H1711 H 0.17948 0.2204 0.99598 0.0
H1712 H 0.22364 0.25976 0.06633 0.0
H1713 H 0.20356 0.27315 0.08374 0.0
H1714 H 0.23797 0.25679 0.00175 0.0
H1715 H 0.18933 0.18486 0.05433 0.0
H1716 H 0.17752 0.1923 0.02347 0.0
H1717 H 0.18654 0.205 0.06476 0.0
C1718 C 0.17323 0.23904 0.02586 0.0
C1719 C 0.17965 0.25401 0.0507 0.0
C1720 C 0.18478 0.2317 0.01559 0.0
C1721 C 0.20293 0.2388 0.03035 0.0
C1722 C 0.2096 0.25394 0.05477 0.0
H1723 H 0.25853 0.17206 0.01283 0.0
H1724 H 0.24486 0.191 0.03353 0.0
C1725 C 0.19807 0.26151 0.06485 0.0
C1726 C 0.21468 0.23018 0.0201 0.0
H1727 H 0.21302 0.18748 0.01355 0.0
C1728 C 0.23264 0.24166 0.00466 0.0
C1729 C 0.20785 0.21048 0.02426 0.0
C1730 C 0.18935 0.19749 0.04295 0.0
C1731 C 0.24373 0.23389 0.99251 0.0
C1732 C 0.23644 0.21402 0.99508 0.0
C1733 C 0.21862 0.20267 0.01114 0.0
C1734 C 0.24707 0.20451 0.98268 0.0
C1735 C 0.26323 0.24709 0.97765 0.0
C1736 C 0.25339 0.20603 0.94724 0.0
C1737 C 0.26162 0.19535 0.93542 0.0
C1738 C 0.26317 0.18264 0.95864 0.0
C1739 C 0.25728 0.18154 0.99417 0.0
C1740 C 0.24947 0.19241 0.00607 0.0
H1741 H 0.26885 0.2619 0.98722 0.0
H1742 H 0.27343 0.24236 0.98508 0.0
H1743 H 0.26238 0.24722 0.94817 0.0
H1744 H 0.25134 0.21491 0.92838 0.0
H1745 H 0.26594 0.19637 0.90786 0.0
H1746 H 0.84043 0.07062 0.96789 0.0
H1747 H 0.81957 0.0384 0.98882 0.0
H1748 H 0.77091 0.04029 0.94855 0.0
H1749 H 0.79181 0.07297 0.92742 0.0
H1750 H 0.78676 0.02749 0.03899 0.0
H1751 H 0.76804 0.98944 0.90868 0.0
H1752 H 0.78935 0.01225 0.91416 0.0
H1753 H 0.76662 0.01078 0.91341 0.0
C1754 C 0.82533 0.06427 0.96306 0.0
C1755 C 0.81786 0.07453 0.94586 0.0
C1756 C 0.8134 0.0458 0.97525 0.0
C1757 C 0.79372 0.03698 0.97036 0.0
C1758 C 0.78611 0.04686 0.95248 0.0
H1759 H 0.71955 0.9256 0.07476 0.0
H1760 H 0.73094 0.95819 0.05358 0.0
C1761 C 0.79808 0.0655 0.94032 0.0
C1762 C 0.78145 0.01755 0.98478 0.0
H1763 H 0.7581 0.97074 0.96051 0.0
C1764 C 0.78014 0.01506 0.0219 0.0
C1765 C 0.77299 1.00142 0.96236 0.0
C1766 C 0.77427 0.00341 0.92239 0.0
C1767 C 0.77116 0.9968 0.03718 0.0
C1768 C 0.76333 0.98066 0.01474 0.0
C1769 C 0.76403 0.98316 0.97763 0.0
C1770 C 0.75639 0.96123 0.02901 0.0
C1771 C 0.77098 0.99484 0.07713 0.0
C1772 C 0.76698 0.95226 0.0225 0.0
C1773 C 0.76065 0.93383 0.03468 0.0
C1774 C 0.74341 0.92376 0.05353 0.0
C1775 C 0.73293 0.93292 0.0606 0.0
C1776 C 0.73938 0.95153 0.04843 0.0
H1777 H 0.77916 0.00881 0.09071 0.0
H1778 H 0.7561 0.98778 0.08685 0.0
H1779 H 0.77705 0.98576 0.08476 0.0
H1780 H 0.78018 0.95953 0.00772 0.0
H1781 H 0.76918 0.92736 0.02862 0.0
H1782 H 0.93006 0.76951 0.97158 0.0
H1783 H 0.96207 0.78041 0.99323 0.0
H1784 H 0.96099 0.73133 0.94693 0.0
H1785 H 0.92856 0.72003 0.92501 0.0
H1786 H 0.97304 0.75816 0.04049 0.0
H1787 H 0.01179 0.77968 0.91113 0.0
H1788 H 0.98872 0.77754 0.91664 0.0
H1789 H 0.99075 0.75659 0.91444 0.0
C1790 C 0.93655 0.76099 0.96558 0.0
C1791 C 0.9266 0.74383 0.94639 0.0
C1792 C 0.9549 0.76727 0.97819 0.0
C1793 C 0.9639 0.75669 0.97178 0.0
C1794 C 0.95431 0.73976 0.95202 0.0
H1795 H 0.07531 0.79162 0.07444 0.0
H1796 H 0.04266 0.77079 0.05302 0.0
C1797 C 0.9358 0.73336 0.93943 0.0
C1798 C 0.98324 0.76357 0.98647 0.0
H1799 H 0.03016 0.78702 0.96324 0.0
C1800 C 0.98554 0.76414 0.02363 0.0
C1801 C 0.99949 0.77146 0.96439 0.0
C1802 C 0.99775 0.77144 0.9244 0.0
C1803 C 0.0037 0.773 0.03929 0.0
C1804 C 0.01994 0.78152 0.01723 0.0
C1805 C 0.01765 0.78035 0.98006 0.0
C1806 C 0.03929 0.79373 0.03207 0.0
C1807 C 0.00549 0.77412 0.0793 0.0
C1808 C 0.04804 0.81347 0.02784 0.0
C1809 C 0.06649 0.82534 0.0402 0.0
C1810 C 0.07679 0.81779 0.05692 0.0
C1811 C 0.06781 0.79796 0.06191 0.0
C1812 C 0.04918 0.78603 0.04958 0.0
H1813 H 0.99145 0.76767 0.09274 0.0
H1814 H 0.013 0.76661 0.08831 0.0
H1815 H 0.01411 0.7892 0.08779 0.0
H1816 H 0.04063 0.8197 0.01458 0.0
H1817 H 0.07279 0.84049 0.03582 0.0
H1818 H 0.83609 0.76826 0.93205 0.0
H1819 H 0.81475 0.77985 0.94934 0.0
H1820 H 0.77607 0.72529 0.9954 0.0
H1821 H 0.79754 0.71357 0.97862 0.0
H1822 H 0.77669 0.76773 0.93454 0.0
H1823 H 0.78826 0.76231 0.07902 0.0
H1824 H 0.80293 0.76037 0.04511 0.0
H1825 H 0.7796 0.74071 0.05384 0.0
C1826 C 0.82296 0.7586 0.94553 0.0
C1827 C 0.81865 0.74001 0.95423 0.0
C1828 C 0.81075 0.76528 0.95538 0.0
C1829 C 0.79398 0.75357 0.97426 0.0
C1830 C 0.78912 0.7347 0.98146 0.0
H1831 H 0.71413 0.79503 0.01826 0.0
H1832 H 0.72637 0.774 0.00131 0.0
C1833 C 0.80135 0.72797 0.97157 0.0
C1834 C 0.78217 0.76157 0.98749 0.0
H1835 H 0.76821 0.77431 0.06358 0.0
C1836 C 0.77464 0.76898 0.96273 0.0
C1837 C 0.77972 0.76341 0.02433 0.0
C1838 C 0.78815 0.75644 0.05223 0.0
C1839 C 0.76504 0.77849 0.97378 0.0
C1840 C 0.76266 0.78039 0.01062 0.0
C1841 C 0.76988 0.77267 0.03537 0.0
C1842 C 0.75429 0.79186 0.02396 0.0
C1843 C 0.7583 0.78716 0.94593 0.0
C1844 C 0.7656 0.80843 0.04374 0.0
C1845 C 0.75863 0.82038 0.05369 0.0
C1846 C 0.74012 0.816 0.04418 0.0
C1847 C 0.72845 0.79888 0.02595 0.0
C1848 C 0.73548 0.78691 0.01596 0.0
H1849 H 0.76456 0.78771 0.91935 0.0
H1850 H 0.74262 0.77849 0.94352 0.0
H1851 H 0.76198 0.80181 0.95366 0.0
H1852 H 0.78012 0.8125 0.05041 0.0
H1853 H 0.768 0.83338 0.06788 0.0
H1854 H 0.16746 0.93301 0.0719 0.0
H1855 H 0.18842 0.96591 0.05366 0.0
H1856 H 0.22588 0.94979 0.00308 0.0
H1857 H 0.20483 0.91667 0.02088 0.0
H1858 H 0.22724 0.99193 0.06538 0.0
H1859 H 0.21127 0.97419 0.92182 0.0
H1860 H 0.19742 0.95788 0.95679 0.0
H1861 H 0.22032 0.96113 0.94538 0.0
C1862 C 0.18026 0.93643 0.05726 0.0
C1863 C 0.18434 0.92211 0.04761 0.0
C1864 C 0.19225 0.95529 0.04685 0.0
C1865 C 0.20853 0.96026 0.02643 0.0
C1866 C 0.21319 0.94621 0.01825 0.0
H1867 H 0.28939 0.08055 0.97717 0.0
H1868 H 0.27653 0.04716 0.99393 0.0
C1869 C 0.20121 0.9273 0.02872 0.0
C1870 C 0.22006 0.98001 0.01267 0.0
H1871 H 0.23218 0.00631 0.93614 0.0
C1872 C 0.22851 0.99509 0.03712 0.0
C1873 C 0.22147 0.9841 0.97578 0.0
C1874 C 0.21204 0.96853 0.94831 0.0
C1875 C 0.23811 0.01413 0.02572 0.0
C1876 C 0.23951 0.01822 0.98883 0.0
C1877 C 0.23127 0.00314 0.96437 0.0
C1878 C 0.24804 0.03805 0.97538 0.0
C1879 C 0.24601 0.02975 0.05331 0.0
C1880 C 0.23652 0.04385 0.95798 0.0
C1881 C 0.24382 0.06286 0.94821 0.0
C1882 C 0.26287 0.07651 0.95548 0.0
C1883 C 0.27466 0.07046 0.97121 0.0
C1884 C 0.2673 0.05139 0.98108 0.0
H1885 H 0.24059 0.02426 0.08044 0.0
H1886 H 0.26173 0.03656 0.05382 0.0
H1887 H 0.24235 0.04085 0.04663 0.0
H1888 H 0.22165 0.03379 0.95312 0.0
H1889 H 0.23433 0.06696 0.93601 0.0
H1890 H 0.93297 0.16473 0.93027 0.0
H1891 H 0.96589 0.18592 0.94789 0.0
H1892 H 0.95019 0.2246 0.9946 0.0
H1893 H 0.917 0.20326 0.97754 0.0
H1894 H 0.99208 0.22395 0.93389 0.0
H1895 H 0.97452 0.2119 0.0781 0.0
H1896 H 0.95796 0.19746 0.04389 0.0
H1897 H 0.96183 0.22084 0.05302 0.0
C1898 C 0.93648 0.17783 0.94394 0.0
C1899 C 0.92225 0.18217 0.95279 0.0
C1900 C 0.95536 0.18996 0.95399 0.0
C1901 C 0.96047 0.20667 0.97318 0.0
C1902 C 0.94651 0.21158 0.98045 0.0
H1903 H 0.08177 0.28588 0.01887 0.0
H1904 H 0.04856 0.27391 0.00181 0.0
C1905 C 0.92756 0.19943 0.97039 0.0
C1906 C 0.98024 0.21835 0.98669 0.0
H1907 H 0.00666 0.23194 0.06314 0.0
C1908 C 0.99528 0.2259 0.96213 0.0
C1909 C 0.9844 0.22066 0.02359 0.0
C1910 C 0.96888 0.21219 0.05129 0.0
C1911 C 0.01434 0.23538 0.97343 0.0
C1912 C 0.01849 0.23762 0.01033 0.0
C1913 C 0.00345 0.23038 0.03488 0.0
C1914 C 0.03826 0.24583 0.0239 0.0
C1915 C 0.02985 0.24213 0.94579 0.0
C1916 C 0.04335 0.23434 0.04344 0.0
C1917 C 0.06223 0.24115 0.05345 0.0
C1918 C 0.07649 0.25968 0.04424 0.0
C1919 C 0.07119 0.27153 0.02633 0.0
C1920 C 0.05223 0.26466 0.01628 0.0
H1921 H 0.02421 0.23601 0.91908 0.0
H1922 H 0.03701 0.25785 0.94365 0.0
H1923 H 0.0407 0.23831 0.95355 0.0
H1924 H 0.0328 0.2198 0.04982 0.0
H1925 H 0.06573 0.23164 0.06739 0.0
H1926 H 0.84849 0.59685 0.31775 0.0
H1927 H 0.86767 0.58339 0.29667 0.0
H1928 H 0.88163 0.57783 0.40517 0.0
H1929 H 0.86289 0.59215 0.4264 0.0
H1930 H 0.91179 0.58744 0.35922 0.0
H1931 H 0.84604 0.52679 0.30455 0.0
H1932 H 0.85075 0.54915 0.28641 0.0
H1933 H 0.84567 0.54443 0.33317 0.0
C1934 C 0.85591 0.59304 0.3371 0.0
C1935 C 0.85408 0.59532 0.37371 0.0
C1936 C 0.86678 0.58525 0.32503 0.0
C1937 C 0.87562 0.57904 0.34933 0.0
C1938 C 0.87478 0.58236 0.38593 0.0
H1939 H 0.9004 0.48995 0.30591 0.0
H1940 H 0.88832 0.51039 0.32499 0.0
C1941 C 0.86414 0.59056 0.39805 0.0
C1942 C 0.88453 0.56799 0.33644 0.0
H1943 H 0.87499 0.52837 0.28869 0.0
C1944 C 0.90376 0.57449 0.34389 0.0
C1945 C 0.87398 0.55092 0.31684 0.0
C1946 C 0.85293 0.54229 0.31007 0.0
C1947 C 0.91274 0.56447 0.33202 0.0
C1948 C 0.90231 0.54774 0.3114 0.0
C1949 C 0.88309 0.5413 0.30407 0.0
C1950 C 0.91039 0.53574 0.29946 0.0
C1951 C 0.93311 0.57159 0.34261 0.0
C1952 C 0.92682 0.54302 0.27819 0.0
C1953 C 0.93402 0.53128 0.26738 0.0
C1954 C 0.92474 0.51196 0.27721 0.0
C1955 C 0.90804 0.50471 0.29772 0.0
C1956 C 0.90104 0.51643 0.30876 0.0
H1957 H 0.93742 0.5815 0.36564 0.0
H1958 H 0.93538 0.5596 0.34963 0.0
H1959 H 0.94254 0.5794 0.31991 0.0
H1960 H 0.93405 0.55775 0.26984 0.0
H1961 H 0.94689 0.53736 0.25159 0.0
H1962 H 0.4589 0.40293 0.26108 0.0
H1963 H 0.43724 0.37028 0.2816 0.0
H1964 H 0.48309 0.37078 0.34008 0.0
H1965 H 0.50469 0.40293 0.31983 0.0
H1966 H 0.44172 0.3362 0.27452 0.0
H1967 H 0.43961 0.35622 0.4149 0.0
H1968 H 0.44658 0.373 0.37858 0.0
H1969 H 0.46316 0.36668 0.39663 0.0
C1970 C 0.46441 0.39602 0.27804 0.0
C1971 C 0.48359 0.40569 0.2888 0.0
C1972 C 0.45199 0.3774 0.28986 0.0
C1973 C 0.4585 0.36827 0.31294 0.0
C1974 C 0.47768 0.37769 0.32287 0.0
H1975 H 0.43484 0.25949 0.37237 0.0
H1976 H 0.44548 0.29152 0.35127 0.0
C1977 C 0.49006 0.39611 0.31099 0.0
C1978 C 0.44563 0.34877 0.32653 0.0
H1979 H 0.43015 0.32351 0.40407 0.0
C1980 C 0.43883 0.33342 0.30274 0.0
C1981 C 0.44173 0.34515 0.36334 0.0
C1982 C 0.44799 0.36113 0.38988 0.0
C1983 C 0.42933 0.31455 0.31509 0.0
C1984 C 0.42665 0.31097 0.35214 0.0
C1985 C 0.43233 0.32627 0.37572 0.0
C1986 C 0.41998 0.29168 0.36685 0.0
C1987 C 0.4228 0.29854 0.28854 0.0
C1988 C 0.40228 0.2813 0.38385 0.0
C1989 C 0.39601 0.26274 0.3961 0.0
C1990 C 0.40746 0.25438 0.39182 0.0
C1991 C 0.4255 0.26527 0.37606 0.0
C1992 C 0.43164 0.28363 0.36373 0.0
H1993 H 0.42143 0.30313 0.26137 0.0
H1994 H 0.43337 0.29371 0.28746 0.0
H1995 H 0.40892 0.28624 0.29657 0.0
H1996 H 0.39314 0.28737 0.38679 0.0
H1997 H 0.38204 0.2548 0.40801 0.0
H1998 H 0.598 0.06006 0.2524 0.0
H1999 H 0.63111 0.0734 0.27184 0.0
H2000 H 0.62398 0.10998 0.34589 0.0
H2001 H 0.59159 0.09753 0.32575 0.0
H2002 H 0.65545 0.12949 0.31199 0.0
H2003 H 0.65272 0.06367 0.36012 0.0
H2004 H 0.64602 0.06246 0.31424 0.0
H2005 H 0.63163 0.06451 0.34841 0.0
C2006 C 0.60353 0.07098 0.27274 0.0
C2007 C 0.59205 0.07772 0.28731 0.0
C2008 C 0.62242 0.07845 0.28417 0.0
C2009 C 0.63004 0.09251 0.31086 0.0
C2010 C 0.61853 0.09915 0.32534 0.0
H2011 H 0.73672 0.1359 0.43097 0.0
H2012 H 0.70324 0.11752 0.41171 0.0
C2013 C 0.59989 0.09196 0.31366 0.0
C2014 C 0.6502 0.10122 0.32282 0.0
H2015 H 0.6833 0.09158 0.35816 0.0
C2016 C 0.66146 0.12114 0.32217 0.0
C2017 C 0.65806 0.09043 0.33671 0.0
C2018 C 0.64645 0.0691 0.3403 0.0
C2019 C 0.68021 0.13054 0.33479 0.0
C2020 C 0.68837 0.11976 0.34722 0.0
C2021 C 0.67713 0.09984 0.3483 0.0
C2022 C 0.70868 0.12911 0.35829 0.0
C2023 C 0.69093 0.15202 0.33541 0.0
C2024 C 0.72289 0.14111 0.33437 0.0
C2025 C 0.74174 0.15177 0.34546 0.0
C2026 C 0.74697 0.15034 0.38051 0.0
C2027 C 0.73303 0.13734 0.40389 0.0
C2028 C 0.71395 0.12686 0.39289 0.0
H2029 H 0.6811 0.15779 0.33612 0.0
H2030 H 0.70055 0.15761 0.3588 0.0
H2031 H 0.69961 0.15742 0.31086 0.0
H2032 H 0.71933 0.14262 0.30724 0.0
H2033 H 0.75225 0.16131 0.32656 0.0
H2034 H 0.46214 0.04462 0.31685 0.0
H2035 H 0.44046 0.05619 0.33295 0.0
H2036 H 0.47784 0.10984 0.28238 0.0
H2037 H 0.49939 0.09841 0.26592 0.0
H2038 H 0.44989 0.08724 0.37663 0.0
H2039 H 0.42591 0.09795 0.24519 0.0
H2040 H 0.43689 0.08353 0.251 0.0
H2041 H 0.45129 0.109 0.24817 0.0
C2042 C 0.46553 0.05872 0.30843 0.0
C2043 C 0.48253 0.07057 0.29007 0.0
C2044 C 0.45316 0.06534 0.3178 0.0
C2045 C 0.45742 0.08383 0.3086 0.0
C2046 C 0.47404 0.09541 0.2892 0.0
H2047 H 0.43399 0.16477 0.40509 0.0
H2048 H 0.4454 0.14323 0.38815 0.0
C2049 C 0.48642 0.08886 0.27995 0.0
C2050 C 0.44549 0.0917 0.32173 0.0
H2051 H 0.42225 0.11476 0.29446 0.0
C2052 C 0.44359 0.093 0.35865 0.0
C2053 C 0.43708 0.09903 0.29833 0.0
C2054 C 0.43771 0.09715 0.25846 0.0
C2055 C 0.43434 0.10224 0.37276 0.0
C2056 C 0.42699 0.11063 0.34935 0.0
C2057 C 0.42804 0.1085 0.31244 0.0
C2058 C 0.41925 0.12269 0.36245 0.0
C2059 C 0.43269 0.10312 0.41264 0.0
C2060 C 0.40071 0.11837 0.35363 0.0
C2061 C 0.39411 0.13072 0.36327 0.0
C2062 C 0.40601 0.14776 0.38156 0.0
C2063 C 0.42439 0.15176 0.39116 0.0
C2064 C 0.43093 0.13939 0.38163 0.0
H2065 H 0.43353 0.09137 0.42606 0.0
H2066 H 0.44461 0.11676 0.42263 0.0
H2067 H 0.41914 0.10238 0.42026 0.0
H2068 H 0.39148 0.10561 0.33867 0.0
H2069 H 0.37992 0.12723 0.35527 0.0
H2070 H 0.87541 0.25052 0.35719 0.0
H2071 H 0.89658 0.28385 0.34088 0.0
H2072 H 0.85685 0.29869 0.38546 0.0
H2073 H 0.83575 0.26558 0.40213 0.0
H2074 H 0.88726 0.30447 0.29432 0.0
H2075 H 0.90742 0.34009 0.42575 0.0
H2076 H 0.89724 0.31471 0.42061 0.0
H2077 H 0.88221 0.3251 0.42065 0.0
C2078 C 0.87136 0.26093 0.36425 0.0
C2079 C 0.85385 0.25533 0.38101 0.0
C2080 C 0.88345 0.27998 0.35475 0.0
C2081 C 0.8784 0.29382 0.3622 0.0
C2082 C 0.86124 0.28836 0.38 0.0
H2083 H 0.90287 0.3976 0.26074 0.0
H2084 H 0.89127 0.36472 0.27859 0.0
C2085 C 0.84913 0.26936 0.38939 0.0
C2086 C 0.89019 0.31363 0.34896 0.0
H2087 H 0.91214 0.36012 0.37532 0.0
C2088 C 0.89293 0.31664 0.31207 0.0
C2089 C 0.89779 0.32952 0.37208 0.0
C2090 C 0.8962 0.32723 0.412 0.0
C2091 C 0.90229 0.33508 0.29764 0.0
C2092 C 0.90889 0.35095 0.32065 0.0
C2093 C 0.90694 0.34796 0.35762 0.0
C2094 C 0.91684 0.37067 0.30695 0.0
C2095 C 0.90487 0.3374 0.25783 0.0
C2096 C 0.93512 0.38504 0.31688 0.0
C2097 C 0.94184 0.40394 0.30668 0.0
C2098 C 0.93029 0.40888 0.28673 0.0
C2099 C 0.9122 0.39434 0.27597 0.0
C2100 C 0.90555 0.37547 0.28604 0.0
H2101 H 0.9044 0.32478 0.24528 0.0
H2102 H 0.89317 0.33899 0.24629 0.0
H2103 H 0.91857 0.35024 0.2509 0.0
H2104 H 0.94405 0.38167 0.33317 0.0
H2105 H 0.95579 0.41477 0.31565 0.0
H2106 H 0.5819 0.51069 0.34462 0.0
H2107 H 0.61442 0.53164 0.36508 0.0
H2108 H 0.63409 0.53954 0.25623 0.0
H2109 H 0.60121 0.51959 0.23574 0.0
H2110 H 0.64134 0.52531 0.36302 0.0
H2111 H 0.66633 0.59226 0.2888 0.0
H2112 H 0.64163 0.574 0.28966 0.0
H2113 H 0.65782 0.57258 0.25864 0.0
C2114 C 0.59316 0.51742 0.32507 0.0
C2115 C 0.58913 0.51378 0.28865 0.0
C2116 C 0.61177 0.52931 0.33674 0.0
C2117 C 0.62689 0.53744 0.31231 0.0
C2118 C 0.62276 0.53404 0.27569 0.0
H2119 H 0.73892 0.55907 0.36243 0.0
H2120 H 0.70569 0.54647 0.3477 0.0
C2121 C 0.60398 0.52254 0.26392 0.0
C2122 C 0.64692 0.54767 0.32561 0.0
H2123 H 0.69075 0.58685 0.31299 0.0
C2124 C 0.65201 0.53893 0.35234 0.0
C2125 C 0.66098 0.56561 0.31238 0.0
C2126 C 0.65635 0.57674 0.28609 0.0
C2127 C 0.67066 0.54723 0.36537 0.0
C2128 C 0.68502 0.56439 0.35014 0.0
C2129 C 0.67988 0.57354 0.32434 0.0
C2130 C 0.70548 0.57247 0.35937 0.0
C2131 C 0.67463 0.53751 0.39568 0.0
C2132 C 0.71687 0.59161 0.36959 0.0
C2133 C 0.73622 0.59908 0.37734 0.0
C2134 C 0.7445 0.58749 0.37525 0.0
C2135 C 0.73302 0.56836 0.36505 0.0
C2136 C 0.71388 0.56105 0.35675 0.0
H2137 H 0.66182 0.52935 0.41256 0.0
H2138 H 0.67854 0.52724 0.3847 0.0
H2139 H 0.68641 0.54787 0.41283 0.0
H2140 H 0.71079 0.60078 0.37155 0.0
H2141 H 0.7447 0.61391 0.38483 0.0
H2142 H 0.56796 0.82265 0.65606 0.0
H2143 H 0.55466 0.84223 0.67403 0.0
H2144 H 0.59331 0.88692 0.60388 0.0
H2145 H 0.60735 0.86744 0.58624 0.0
H2146 H 0.58982 0.90075 0.66941 0.0
H2147 H 0.51861 0.85128 0.6148 0.0
H2148 H 0.52638 0.83959 0.64528 0.0
H2149 H 0.53917 0.84925 0.60434 0.0
C2150 C 0.57371 0.8366 0.64415 0.0
C2151 C 0.58866 0.84332 0.61925 0.0
C2152 C 0.56597 0.84778 0.65447 0.0
C2153 C 0.57267 0.8659 0.6398 0.0
C2154 C 0.5878 0.8729 0.61537 0.0
H2155 H 0.50362 0.91901 0.65871 0.0
H2156 H 0.52301 0.90594 0.63764 0.0
C2157 C 0.59574 0.86171 0.60516 0.0
C2158 C 0.56362 0.87723 0.65013 0.0
H2159 H 0.5204 0.87441 0.65624 0.0
C2160 C 0.57468 0.89512 0.6662 0.0
C2161 C 0.54389 0.87002 0.64556 0.0
C2162 C 0.53137 0.85158 0.62622 0.0
C2163 C 0.56644 0.90574 0.67863 0.0
C2164 C 0.54653 0.89804 0.6757 0.0
C2165 C 0.53562 0.88031 0.65894 0.0
C2166 C 0.53654 0.90814 0.68847 0.0
C2167 C 0.57921 0.92521 0.69419 0.0
C2168 C 0.53786 0.91419 0.72407 0.0
C2169 C 0.52691 0.92208 0.73612 0.0
C2170 C 0.51411 0.92352 0.71299 0.0
C2171 C 0.51313 0.9178 0.67735 0.0
C2172 C 0.52427 0.91035 0.66522 0.0
H2173 H 0.59409 0.93127 0.68475 0.0
H2174 H 0.57415 0.93521 0.6872 0.0
H2175 H 0.57929 0.92408 0.72362 0.0
H2176 H 0.54685 0.91226 0.74285 0.0
H2177 H 0.52788 0.92631 0.76375 0.0
H2178 H 0.17057 0.7451 0.66322 0.0
H2179 H 0.15115 0.7122 0.68117 0.0
H2180 H 0.11016 0.70358 0.59983 0.0
H2181 H 0.12944 0.73719 0.58221 0.0
H2182 H 0.09297 0.68548 0.66287 0.0
H2183 H 0.1487 0.66844 0.62683 0.0
H2184 H 0.15741 0.68784 0.65772 0.0
H2185 H 0.14999 0.69042 0.61385 0.0
C2186 C 0.15748 0.73633 0.64886 0.0
C2187 C 0.15177 0.74383 0.62076 0.0
C2188 C 0.14638 0.7174 0.65921 0.0
C2189 C 0.12942 0.70523 0.64131 0.0
C2190 C 0.1233 0.71268 0.61384 0.0
H2191 H 0.08197 0.5838 0.66032 0.0
H2192 H 0.0949 0.61631 0.63984 0.0
C2193 C 0.13436 0.73185 0.60369 0.0
C2194 C 0.11853 0.68474 0.65129 0.0
H2195 H 0.12386 0.6461 0.66432 0.0
C2196 C 0.09962 0.67677 0.66284 0.0
C2197 C 0.1271 0.67327 0.65086 0.0
C2198 C 0.14684 0.68037 0.63628 0.0
C2199 C 0.08923 0.65778 0.67476 0.0
C2200 C 0.09817 0.64663 0.67601 0.0
C2201 C 0.11698 0.6546 0.66384 0.0
C2202 C 0.08832 0.62641 0.68813 0.0
C2203 C 0.06871 0.64979 0.68521 0.0
C2204 C 0.0799 0.62095 0.72207 0.0
C2205 C 0.07211 0.60204 0.73375 0.0
C2206 C 0.07311 0.58847 0.71204 0.0
C2207 C 0.08127 0.59396 0.67801 0.0
C2208 C 0.08863 0.6126 0.66616 0.0
H2209 H 0.06256 0.65796 0.67299 0.0
H2210 H 0.05998 0.63465 0.67716 0.0
H2211 H 0.06777 0.65068 0.71455 0.0
H2212 H 0.07982 0.63137 0.73994 0.0
H2213 H 0.06593 0.59821 0.76011 0.0
H2214 H 0.40397 0.46237 0.75468 0.0
H2215 H 0.37083 0.44291 0.73509 0.0
H2216 H 0.37618 0.49002 0.67305 0.0
H2217 H 0.40858 0.50959 0.69348 0.0
H2218 H 0.34435 0.47455 0.70722 0.0
H2219 H 0.35083 0.41699 0.64101 0.0
H2220 H 0.35721 0.41991 0.68728 0.0
H2221 H 0.37122 0.43866 0.65631 0.0
C2222 C 0.39801 0.4686 0.73709 0.0
C2223 C 0.40906 0.4876 0.72576 0.0
C2224 C 0.37912 0.45737 0.72551 0.0
C2225 C 0.37105 0.46484 0.70194 0.0
C2226 C 0.38202 0.48384 0.69108 0.0
H2227 H 0.26755 0.40695 0.57274 0.0
H2228 H 0.3005 0.42148 0.59477 0.0
C2229 C 0.40067 0.49507 0.7029 0.0
C2230 C 0.35103 0.45339 0.68918 0.0
H2231 H 0.31977 0.41285 0.64461 0.0
C2232 C 0.33904 0.46106 0.69352 0.0
C2233 C 0.34409 0.43592 0.67072 0.0
C2234 C 0.35654 0.42745 0.66319 0.0
C2235 C 0.32047 0.4519 0.67995 0.0
C2236 C 0.31326 0.43409 0.66269 0.0
C2237 C 0.32521 0.42639 0.65814 0.0
C2238 C 0.29329 0.42336 0.64959 0.0
C2239 C 0.30899 0.46179 0.68339 0.0
C2240 C 0.27826 0.4189 0.67319 0.0
C2241 C 0.25969 0.41105 0.6606 0.0
C2242 C 0.2556 0.40695 0.62423 0.0
C2243 C 0.27037 0.41007 0.60085 0.0
C2244 C 0.28914 0.41835 0.61344 0.0
H2245 H 0.31829 0.4774 0.68668 0.0
H2246 H 0.29979 0.45916 0.65973 0.0
H2247 H 0.2998 0.45636 0.70732 0.0
H2248 H 0.28095 0.422 0.70134 0.0
H2249 H 0.24851 0.40838 0.67936 0.0
H2250 H 0.12705 0.37922 0.64272 0.0
H2251 H 0.10579 0.3913 0.65876 0.0
H2252 H 0.14672 0.44667 0.6188 0.0
H2253 H 0.16795 0.43478 0.60253 0.0
H2254 H 0.11501 0.42121 0.70731 0.0
H2255 H 0.09658 0.43773 0.57512 0.0
H2256 H 0.10629 0.42217 0.58063 0.0
H2257 H 0.12165 0.44755 0.58164 0.0
C2258 C 0.13136 0.39386 0.63664 0.0
C2259 C 0.14923 0.40601 0.62129 0.0
C2260 C 0.11922 0.40077 0.64599 0.0
C2261 C 0.12459 0.41985 0.63973 0.0
C2262 C 0.14212 0.43182 0.62335 0.0
H2263 H 0.09789 0.49833 0.73859 0.0
H2264 H 0.1103 0.47759 0.72159 0.0
C2265 C 0.15429 0.42499 0.61418 0.0
C2266 C 0.11262 0.42772 0.65263 0.0
H2267 H 0.09063 0.45205 0.62557 0.0
C2268 C 0.10946 0.42773 0.6894 0.0
C2269 C 0.10524 0.43609 0.62926 0.0
C2270 C 0.10743 0.43576 0.58943 0.0
C2271 C 0.09983 0.4366 0.70352 0.0
C2272 C 0.0933 0.44581 0.68029 0.0
C2273 C 0.09574 0.44509 0.64341 0.0
C2274 C 0.08488 0.45719 0.69372 0.0
C2275 C 0.09685 0.43618 0.74323 0.0
C2276 C 0.06639 0.45258 0.68392 0.0
C2277 C 0.05918 0.4644 0.69374 0.0
C2278 C 0.07046 0.48123 0.71311 0.0
C2279 C 0.08877 0.48546 0.72379 0.0
C2280 C 0.09589 0.47358 0.71418 0.0
H2281 H 0.09783 0.42437 0.75604 0.0
H2282 H 0.10802 0.44975 0.75499 0.0
H2283 H 0.0828 0.43463 0.74957 0.0
H2284 H 0.05768 0.44005 0.66798 0.0
H2285 H 0.04509 0.46077 0.68482 0.0
H2286 H 0.53935 0.58159 0.68736 0.0
H2287 H 0.5615 0.61466 0.67067 0.0
H2288 H 0.52646 0.63257 0.72534 0.0
H2289 H 0.50449 0.59978 0.74246 0.0
H2290 H 0.55251 0.63688 0.6288 0.0
H2291 H 0.5793 0.67173 0.75929 0.0
H2292 H 0.56744 0.64624 0.7537 0.0
H2293 H 0.55383 0.65809 0.75798 0.0
C2294 C 0.5366 0.59262 0.69655 0.0
C2295 C 0.52012 0.58799 0.71629 0.0
C2296 C 0.54923 0.61151 0.68683 0.0
C2297 C 0.54577 0.62615 0.69703 0.0
C2298 C 0.52968 0.62162 0.71775 0.0
H2299 H 0.56861 0.73025 0.60198 0.0
H2300 H 0.55758 0.69732 0.61835 0.0
C2301 C 0.51704 0.60279 0.72737 0.0
C2302 C 0.55791 0.64588 0.68361 0.0
H2303 H 0.58227 0.69229 0.7105 0.0
C2304 C 0.55929 0.64898 0.64666 0.0
C2305 C 0.56698 0.66169 0.70683 0.0
C2306 C 0.567 0.65929 0.74665 0.0
C2307 C 0.56859 0.66746 0.63241 0.0
C2308 C 0.57651 0.68329 0.65572 0.0
C2309 C 0.57604 0.68018 0.69259 0.0
C2310 C 0.58408 0.70308 0.64267 0.0
C2311 C 0.56964 0.66986 0.5925 0.0
C2312 C 0.60269 0.7174 0.65089 0.0
C2313 C 0.60907 0.73637 0.6416 0.0
C2314 C 0.59687 0.74141 0.62429 0.0
C2315 C 0.57843 0.72692 0.61518 0.0
C2316 C 0.57211 0.70801 0.62437 0.0
H2317 H 0.56865 0.65724 0.57889 0.0
H2318 H 0.55753 0.67144 0.58331 0.0
H2319 H 0.58304 0.6827 0.58428 0.0
H2320 H 0.61214 0.71394 0.66519 0.0
H2321 H 0.6233 0.74716 0.64923 0.0
H2322 H 0.25063 0.87264 0.65161 0.0
H2323 H 0.28401 0.89325 0.66819 0.0
H2324 H 0.29879 0.85581 0.61334 0.0
H2325 H 0.2656 0.83525 0.59649 0.0
H2326 H 0.30494 0.88152 0.70991 0.0
H2327 H 0.33975 0.90859 0.57929 0.0
H2328 H 0.31444 0.89822 0.58563 0.0
H2329 H 0.32469 0.88321 0.58039 0.0
C2330 C 0.26104 0.86901 0.64236 0.0
C2331 C 0.25539 0.85227 0.62267 0.0
C2332 C 0.28011 0.88077 0.65203 0.0
C2333 C 0.29394 0.87617 0.6418 0.0
C2334 C 0.28845 0.85985 0.62105 0.0
H2335 H 0.399 0.8975 0.73348 0.0
H2336 H 0.36595 0.886 0.71713 0.0
C2337 C 0.26941 0.84805 0.61154 0.0
C2338 C 0.31379 0.88744 0.65512 0.0
H2339 H 0.3601 0.91138 0.62789 0.0
C2340 C 0.317 0.88828 0.692 0.0
C2341 C 0.32953 0.8964 0.63181 0.0
C2342 C 0.32698 0.89675 0.59209 0.0
C2343 C 0.33551 0.89712 0.70608 0.0
C2344 C 0.35125 0.90519 0.68264 0.0
C2345 C 0.34805 0.90508 0.64586 0.0
C2346 C 0.37107 0.91284 0.69549 0.0
C2347 C 0.33807 0.8976 0.74592 0.0
C2348 C 0.38502 0.9318 0.68884 0.0
C2349 C 0.40402 0.93847 0.69824 0.0
C2350 C 0.40947 0.92622 0.71403 0.0
C2351 C 0.39534 0.90737 0.72149 0.0
C2352 C 0.37638 0.90076 0.71227 0.0
H2353 H 0.32535 0.89596 0.76017 0.0
H2354 H 0.34022 0.88568 0.75398 0.0
H2355 H 0.35068 0.91112 0.75452 0.0
H2356 H 0.38125 0.94134 0.67576 0.0
H2357 H 0.41452 0.95302 0.69187 0.0
loop_
_geom_bond_atom_site_label_1
_geom_bond_atom_site_label_2
_geom_bond_distance
_geom_bond_site_symmetry_2
_ccdc_geom_bond_type
Co0 O2 2.143 . S
Co0 O8 2.074 . S
Co0 O11 2.093 . S
Co0 O24 2.097 . S
Co0 N41 2.151 . S
Co0 N49 2.214 . S
Co1 O2 2.160 . S
Co1 O7 2.058 1_554 S
Co1 O17 2.057 . S
Co1 O32 2.037 . S
Co1 N36 2.145 1_554 S
Co1 N57 2.257 . S
O2 Co0 2.143 . S
O2 Co1 2.160 . S
C3 O4 1.278 . S
C3 O11 1.224 . S
O4 C3 1.278 . S
C5 O6 1.245 . S
C5 O17 1.232 . S
O6 C5 1.245 . S
O7 Co1 2.058 1_556 S
O7 C33 1.269 . S
O8 Co0 2.074 . S
O8 C33 1.257 1_554 S
H9 C34 0.930 . S
H10 C40 0.930 . S
O11 Co0 2.093 . S
O11 C3 1.224 . S
H12 C44 0.929 . S
H13 C46 0.930 . S
H14 C47 0.930 . S
H15 C45 0.929 . S
H16 C48 0.928 . S
O17 Co1 2.057 . S
O17 C5 1.232 . S
H18 C37 0.929 . S
H19 C38 0.929 . S
H20 C50 0.931 . S
H21 C42 0.929 . S
H22 C51 0.930 . S
H23 C43 0.931 . S
O24 Co0 2.097 . S
O24 C52 1.214 . S
H25 C53 0.929 . S
H26 C54 0.929 . S
H27 C55 0.930 . S
H28 C56 0.929 . S
H29 C58 0.930 . S
H30 C35 0.930 . S
H31 C39 0.930 . S
O32 Co1 2.037 . S
O32 C52 1.234 . S
C33 O7 1.269 . S
C33 O8 1.257 1_556 S
C34 H9 0.930 . S
C34 C37 1.388 . S
C34 C39 1.418 . S
C35 H30 0.930 . S
C35 C38 1.404 . S
C35 C39 1.353 . S
N36 Co1 2.145 1_556 S
N36 C37 1.397 . S
N36 C38 1.334 . S
C37 H18 0.929 . S
C37 C34 1.388 . S
C37 N36 1.397 . S
C38 H19 0.929 . S
C38 C35 1.404 . S
C38 N36 1.334 . S
C39 H31 0.930 . S
C39 C34 1.418 . S
C39 C35 1.353 . S
C40 H10 0.930 . S
C40 N41 1.330 . S
C40 C42 1.446 . S
N41 Co0 2.151 . S
N41 C40 1.330 . S
N41 C45 1.418 . S
C42 H21 0.929 . S
C42 C40 1.446 . S
C42 C43 1.332 . S
C43 H23 0.931 . S
C43 C42 1.332 . S
C43 C44 1.267 . S
C44 H12 0.929 . S
C44 C43 1.267 . S
C44 C45 1.251 . S
C45 H15 0.929 . S
C45 N41 1.418 . S
C45 C44 1.251 . S
C46 H13 0.930 . S
C46 C48 1.406 . S
C46 C51 1.261 . S
C47 H14 0.930 . S
C47 N49 1.325 . S
C47 C50 1.357 . S
C48 H16 0.928 . S
C48 C46 1.406 . S
C48 N49 1.261 . S
N49 Co0 2.214 . S
N49 C47 1.325 . S
N49 C48 1.261 . S
C50 H20 0.931 . S
C50 C47 1.357 . S
C50 C51 1.312 . S
C51 H22 0.930 . S
C51 C46 1.261 . S
C51 C50 1.312 . S
C52 O24 1.214 . S
C52 O32 1.234 . S
C53 H25 0.929 . S
C53 C56 1.391 . S
C53 C58 1.391 . S
C54 H26 0.929 . S
C54 C55 1.390 . S
C54 N57 1.391 . S
C55 H27 0.930 . S
C55 C54 1.390 . S
C55 C56 1.392 . S
C56 H28 0.929 . S
C56 C53 1.391 . S
C56 C55 1.392 . S
N57 Co1 2.257 . S
N57 C54 1.391 . S
N57 C58 1.388 . S
C58 H29 0.930 . S
C58 C53 1.391 . S
C58 N57 1.388 . S
Co59 O61 2.143 . S
Co59 O67 2.074 . S
Co59 O70 2.093 . S
Co59 O83 2.097 1_554 S
Co59 N100 2.151 . S
Co59 N108 2.214 1_554 S
Co60 O61 2.160 . S
Co60 O66 2.058 . S
Co60 O76 2.057 . S
Co60 O91 2.037 . S
Co60 N95 2.145 . S
Co60 N116 2.257 . S
O61 Co59 2.143 . S
O61 Co60 2.160 . S
C62 O63 1.278 . S
C62 O70 1.224 . S
O63 C62 1.278 . S
C64 O65 1.245 . S
C64 O76 1.232 . S
O65 C64 1.245 . S
O66 Co60 2.058 . S
O66 C92 1.269 . S
O67 Co59 2.074 . S
O67 C92 1.257 . S
H68 C93 0.930 . S
H69 C99 0.930 . S
O70 Co59 2.093 . S
O70 C62 1.224 . S
H71 C103 0.929 . S
H72 C105 0.930 . S
H73 C106 0.930 . S
H74 C104 0.929 . S
H75 C107 0.928 . S
O76 Co60 2.057 . S
O76 C64 1.232 . S
H77 C96 0.929 . S
H78 C97 0.929 . S
H79 C109 0.931 . S
H80 C101 0.929 . S
H81 C110 0.930 . S
H82 C102 0.931 . S
O83 Co59 2.097 1_556 S
O83 C111 1.214 . S
H84 C112 0.929 . S
H85 C113 0.929 . S
H86 C114 0.930 . S
H87 C115 0.929 . S
H88 C117 0.930 . S
H89 C94 0.930 . S
H90 C98 0.930 . S
O91 Co60 2.037 . S
O91 C111 1.234 1_554 S
C92 O66 1.269 . S
C92 O67 1.257 . S
C93 H68 0.930 . S
C93 C96 1.388 . S
C93 C98 1.418 . S
C94 H89 0.930 . S
C94 C97 1.404 . S
C94 C98 1.353 . S
N95 Co60 2.145 . S
N95 C96 1.397 . S
N95 C97 1.334 . S
C96 H77 0.929 . S
C96 C93 1.388 . S
C96 N95 1.397 . S
C97 H78 0.929 . S
C97 C94 1.404 . S
C97 N95 1.334 . S
C98 H90 0.930 . S
C98 C93 1.418 . S
C98 C94 1.353 . S
C99 H69 0.930 . S
C99 N100 1.330 . S
C99 C101 1.446 . S
N100 Co59 2.151 . S
N100 C99 1.330 . S
N100 C104 1.418 . S
C101 H80 0.929 . S
C101 C99 1.446 . S
C101 C102 1.332 . S
C102 H82 0.931 . S
C102 C101 1.332 . S
C102 C103 1.267 . S
C103 H71 0.929 . S
C103 C102 1.267 . S
C103 C104 1.251 . S
C104 H74 0.929 . S
C104 N100 1.418 . S
C104 C103 1.251 . S
C105 H72 0.930 . S
C105 C107 1.406 . S
C105 C110 1.261 . S
C106 H73 0.930 . S
C106 N108 1.325 . S
C106 C109 1.357 . S
C107 H75 0.928 . S
C107 C105 1.406 . S
C107 N108 1.261 . S
N108 Co59 2.214 1_556 S
N108 C106 1.325 . S
N108 C107 1.261 . S
C109 H79 0.931 . S
C109 C106 1.357 . S
C109 C110 1.312 . S
C110 H81 0.930 . S
C110 C105 1.261 . S
C110 C109 1.312 . S
C111 O83 1.214 . S
C111 O91 1.234 1_556 S
C112 H84 0.929 . S
C112 C115 1.391 . S
C112 C117 1.391 . S
C113 H85 0.929 . S
C113 C114 1.390 . S
C113 N116 1.391 . S
C114 H86 0.930 . S
C114 C113 1.390 . S
C114 C115 1.392 . S
C115 H87 0.929 . S
C115 C112 1.391 . S
C115 C114 1.392 . S
N116 Co60 2.257 . S
N116 C113 1.391 . S
N116 C117 1.388 . S
C117 H88 0.930 . S
C117 C112 1.391 . S
C117 N116 1.388 . S
Co118 O120 2.143 . S
Co118 O126 2.074 . S
Co118 O129 2.093 . S
Co118 O142 2.097 1_554 S
Co118 N159 2.151 . S
Co118 N167 2.214 1_554 S
Co119 O120 2.160 . S
Co119 O125 2.058 . S
Co119 O135 2.057 . S
Co119 O150 2.037 . S
Co119 N154 2.145 . S
Co119 N175 2.257 . S
O120 Co118 2.143 . S
O120 Co119 2.160 . S
C121 O122 1.278 . S
C121 O129 1.224 . S
O122 C121 1.278 . S
C123 O124 1.245 . S
C123 O135 1.232 . S
O124 C123 1.245 . S
O125 Co119 2.058 . S
O125 C151 1.269 . S
O126 Co118 2.074 . S
O126 C151 1.257 . S
H127 C152 0.930 . S
H128 C158 0.930 . S
O129 Co118 2.093 . S
O129 C121 1.224 . S
H130 C162 0.929 . S
H131 C164 0.930 . S
H132 C165 0.930 . S
H133 C163 0.929 . S
H134 C166 0.928 . S
O135 Co119 2.057 . S
O135 C123 1.232 . S
H136 C155 0.929 . S
H137 C156 0.929 . S
H138 C168 0.931 . S
H139 C160 0.929 . S
H140 C169 0.930 . S
H141 C161 0.931 . S
O142 Co118 2.097 1_556 S
O142 C170 1.214 . S
H143 C171 0.929 . S
H144 C172 0.929 . S
H145 C173 0.930 . S
H146 C174 0.929 . S
H147 C176 0.930 . S
H148 C153 0.930 . S
H149 C157 0.930 . S
O150 Co119 2.037 . S
O150 C170 1.234 1_554 S
C151 O125 1.269 . S
C151 O126 1.257 . S
C152 H127 0.930 . S
C152 C155 1.388 . S
C152 C157 1.418 . S
C153 H148 0.930 . S
C153 C156 1.404 . S
C153 C157 1.353 . S
N154 Co119 2.145 . S
N154 C155 1.397 . S
N154 C156 1.334 . S
C155 H136 0.929 . S
C155 C152 1.388 . S
C155 N154 1.397 . S
C156 H137 0.929 . S
C156 C153 1.404 . S
C156 N154 1.334 . S
C157 H149 0.930 . S
C157 C152 1.418 . S
C157 C153 1.353 . S
C158 H128 0.930 . S
C158 N159 1.330 . S
C158 C160 1.446 . S
N159 Co118 2.151 . S
N159 C158 1.330 . S
N159 C163 1.418 . S
C160 H139 0.929 . S
C160 C158 1.446 . S
C160 C161 1.332 . S
C161 H141 0.931 . S
C161 C160 1.332 . S
C161 C162 1.267 . S
C162 H130 0.929 . S
C162 C161 1.267 . S
C162 C163 1.251 . S
C163 H133 0.929 . S
C163 N159 1.418 . S
C163 C162 1.251 . S
C164 H131 0.930 . S
C164 C166 1.406 . S
C164 C169 1.261 . S
C165 H132 0.930 . S
C165 N167 1.325 . S
C165 C168 1.357 . S
C166 H134 0.928 . S
C166 C164 1.406 . S
C166 N167 1.261 . S
N167 Co118 2.214 1_556 S
N167 C165 1.325 . S
N167 C166 1.261 . S
C168 H138 0.931 . S
C168 C165 1.357 . S
C168 C169 1.312 . S
C169 H140 0.930 . S
C169 C164 1.261 . S
C169 C168 1.312 . S
C170 O142 1.214 . S
C170 O150 1.234 1_556 S
C171 H143 0.929 . S
C171 C174 1.391 . S
C171 C176 1.391 . S
C172 H144 0.929 . S
C172 C173 1.390 . S
C172 N175 1.391 . S
C173 H145 0.930 . S
C173 C172 1.390 . S
C173 C174 1.392 . S
C174 H146 0.929 . S
C174 C171 1.391 . S
C174 C173 1.392 . S
N175 Co119 2.257 . S
N175 C172 1.391 . S
N175 C176 1.388 . S
C176 H147 0.930 . S
C176 C171 1.391 . S
C176 N175 1.388 . S
Co177 O179 2.143 . S
Co177 O185 2.074 . S
Co177 O188 2.093 . S
Co177 O201 2.097 1_556 S
Co177 N218 2.151 . S
Co177 N226 2.214 1_556 S
Co178 O179 2.160 . S
Co178 O184 2.058 . S
Co178 O194 2.057 . S
Co178 O209 2.037 . S
Co178 N213 2.145 . S
Co178 N234 2.257 . S
O179 Co177 2.143 . S
O179 Co178 2.160 . S
C180 O181 1.278 . S
C180 O188 1.224 . S
O181 C180 1.278 . S
C182 O183 1.245 . S
C182 O194 1.232 . S
O183 C182 1.245 . S
O184 Co178 2.058 . S
O184 C210 1.269 . S
O185 Co177 2.074 . S
O185 C210 1.257 . S
H186 C211 0.930 . S
H187 C217 0.930 . S
O188 Co177 2.093 . S
O188 C180 1.224 . S
H189 C221 0.929 . S
H190 C223 0.930 . S
H191 C224 0.930 . S
H192 C222 0.929 . S
H193 C225 0.928 . S
O194 Co178 2.057 . S
O194 C182 1.232 . S
H195 C214 0.929 . S
H196 C215 0.929 . S
H197 C227 0.931 . S
H198 C219 0.929 . S
H199 C228 0.930 . S
H200 C220 0.931 . S
O201 Co177 2.097 1_554 S
O201 C229 1.214 . S
H202 C230 0.929 . S
H203 C231 0.929 . S
H204 C232 0.930 . S
H205 C233 0.929 . S
H206 C235 0.930 . S
H207 C212 0.930 . S
H208 C216 0.930 . S
O209 Co178 2.037 . S
O209 C229 1.234 1_556 S
C210 O184 1.269 . S
C210 O185 1.257 . S
C211 H186 0.930 . S
C211 C214 1.388 . S
C211 C216 1.418 . S
C212 H207 0.930 . S
C212 C215 1.404 . S
C212 C216 1.353 . S
N213 Co178 2.145 . S
N213 C214 1.397 . S
N213 C215 1.334 . S
C214 H195 0.929 . S
C214 C211 1.388 . S
C214 N213 1.397 . S
C215 H196 0.929 . S
C215 C212 1.404 . S
C215 N213 1.334 . S
C216 H208 0.930 . S
C216 C211 1.418 . S
C216 C212 1.353 . S
C217 H187 0.930 . S
C217 N218 1.330 . S
C217 C219 1.446 . S
N218 Co177 2.151 . S
N218 C217 1.330 . S
N218 C222 1.418 . S
C219 H198 0.929 . S
C219 C217 1.446 . S
C219 C220 1.332 . S
C220 H200 0.931 . S
C220 C219 1.332 . S
C220 C221 1.267 . S
C221 H189 0.929 . S
C221 C220 1.267 . S
C221 C222 1.251 . S
C222 H192 0.929 . S
C222 N218 1.418 . S
C222 C221 1.251 . S
C223 H190 0.930 . S
C223 C225 1.406 . S
C223 C228 1.261 . S
C224 H191 0.930 . S
C224 N226 1.325 . S
C224 C227 1.357 . S
C225 H193 0.928 . S
C225 C223 1.406 . S
C225 N226 1.261 . S
N226 Co177 2.214 1_554 S
N226 C224 1.325 . S
N226 C225 1.261 . S
C227 H197 0.931 . S
C227 C224 1.357 . S
C227 C228 1.312 . S
C228 H199 0.930 . S
C228 C223 1.261 . S
C228 C227 1.312 . S
C229 O201 1.214 . S
C229 O209 1.234 1_554 S
C230 H202 0.929 . S
C230 C233 1.391 . S
C230 C235 1.391 . S
C231 H203 0.929 . S
C231 C232 1.390 . S
C231 N234 1.391 . S
C232 H204 0.930 . S
C232 C231 1.390 . S
C232 C233 1.392 . S
C233 H205 0.929 . S
C233 C230 1.391 . S
C233 C232 1.392 . S
N234 Co178 2.257 . S
N234 C231 1.391 . S
N234 C235 1.388 . S
C235 H206 0.930 . S
C235 C230 1.391 . S
C235 N234 1.388 . S
Co236 O238 2.143 . S
Co236 O244 2.074 . S
Co236 O247 2.093 . S
Co236 O260 2.097 1_556 S
Co236 N277 2.151 . S
Co236 N285 2.214 1_556 S
Co237 O238 2.160 . S
Co237 O243 2.058 . S
Co237 O253 2.057 . S
Co237 O268 2.037 . S
Co237 N272 2.145 . S
Co237 N293 2.257 . S
O238 Co236 2.143 . S
O238 Co237 2.160 . S
C239 O240 1.278 . S
C239 O247 1.224 . S
O240 C239 1.278 . S
C241 O242 1.245 . S
C241 O253 1.232 . S
O242 C241 1.245 . S
O243 Co237 2.058 . S
O243 C269 1.269 . S
O244 Co236 2.074 . S
O244 C269 1.257 . S
H245 C270 0.930 . S
H246 C276 0.930 . S
O247 Co236 2.093 . S
O247 C239 1.224 . S
H248 C280 0.929 . S
H249 C282 0.930 . S
H250 C283 0.930 . S
H251 C281 0.929 . S
H252 C284 0.928 . S
O253 Co237 2.057 . S
O253 C241 1.232 . S
H254 C273 0.929 . S
H255 C274 0.929 . S
H256 C286 0.931 . S
H257 C278 0.929 . S
H258 C287 0.930 . S
H259 C279 0.931 . S
O260 Co236 2.097 1_554 S
O260 C288 1.214 . S
H261 C289 0.929 . S
H262 C290 0.929 . S
H263 C291 0.930 . S
H264 C292 0.929 . S
H265 C294 0.930 . S
H266 C271 0.930 . S
H267 C275 0.930 . S
O268 Co237 2.037 . S
O268 C288 1.234 1_556 S
C269 O243 1.269 . S
C269 O244 1.257 . S
C270 H245 0.930 . S
C270 C273 1.388 . S
C270 C275 1.418 . S
C271 H266 0.930 . S
C271 C274 1.404 . S
C271 C275 1.353 . S
N272 Co237 2.145 . S
N272 C273 1.397 . S
N272 C274 1.334 . S
C273 H254 0.929 . S
C273 C270 1.388 . S
C273 N272 1.397 . S
C274 H255 0.929 . S
C274 C271 1.404 . S
C274 N272 1.334 . S
C275 H267 0.930 . S
C275 C270 1.418 . S
C275 C271 1.353 . S
C276 H246 0.930 . S
C276 N277 1.330 . S
C276 C278 1.446 . S
N277 Co236 2.151 . S
N277 C276 1.330 . S
N277 C281 1.418 . S
C278 H257 0.929 . S
C278 C276 1.446 . S
C278 C279 1.332 . S
C279 H259 0.931 . S
C279 C278 1.332 . S
C279 C280 1.267 . S
C280 H248 0.929 . S
C280 C279 1.267 . S
C280 C281 1.251 . S
C281 H251 0.929 . S
C281 N277 1.418 . S
C281 C280 1.251 . S
C282 H249 0.930 . S
C282 C284 1.406 . S
C282 C287 1.261 . S
C283 H250 0.930 . S
C283 N285 1.325 . S
C283 C286 1.357 . S
C284 H252 0.928 . S
C284 C282 1.406 . S
C284 N285 1.261 . S
N285 Co236 2.214 1_554 S
N285 C283 1.325 . S
N285 C284 1.261 . S
C286 H256 0.931 . S
C286 C283 1.357 . S
C286 C287 1.312 . S
C287 H258 0.930 . S
C287 C282 1.261 . S
C287 C286 1.312 . S
C288 O260 1.214 . S
C288 O268 1.234 1_554 S
C289 H261 0.929 . S
C289 C292 1.391 . S
C289 C294 1.391 . S
C290 H262 0.929 . S
C290 C291 1.390 . S
C290 N293 1.391 . S
C291 H263 0.930 . S
C291 C290 1.390 . S
C291 C292 1.392 . S
C292 H264 0.929 . S
C292 C289 1.391 . S
C292 C291 1.392 . S
N293 Co237 2.257 . S
N293 C290 1.391 . S
N293 C294 1.388 . S
C294 H265 0.930 . S
C294 C289 1.391 . S
C294 N293 1.388 . S
Co295 O297 2.143 . S
Co295 O303 2.074 . S
Co295 O306 2.093 . S
Co295 O319 2.097 . S
Co295 N336 2.151 . S
Co295 N344 2.214 . S
Co296 O297 2.160 . S
Co296 O302 2.058 1_556 S
Co296 O312 2.057 . S
Co296 O327 2.037 . S
Co296 N331 2.145 1_556 S
Co296 N352 2.257 . S
O297 Co295 2.143 . S
O297 Co296 2.160 . S
C298 O299 1.278 . S
C298 O306 1.224 . S
O299 C298 1.278 . S
C300 O301 1.245 . S
C300 O312 1.232 . S
O301 C300 1.245 . S
O302 Co296 2.058 1_554 S
O302 C328 1.269 . S
O303 Co295 2.074 . S
O303 C328 1.257 1_556 S
H304 C329 0.930 . S
H305 C335 0.930 . S
O306 Co295 2.093 . S
O306 C298 1.224 . S
H307 C339 0.929 . S
H308 C341 0.930 . S
H309 C342 0.930 . S
H310 C340 0.929 . S
H311 C343 0.928 . S
O312 Co296 2.057 . S
O312 C300 1.232 . S
H313 C332 0.929 . S
H314 C333 0.929 . S
H315 C345 0.931 . S
H316 C337 0.929 . S
H317 C346 0.930 . S
H318 C338 0.931 . S
O319 Co295 2.097 . S
O319 C347 1.214 . S
H320 C348 0.929 . S
H321 C349 0.929 . S
H322 C350 0.930 . S
H323 C351 0.929 . S
H324 C353 0.930 . S
H325 C330 0.930 . S
H326 C334 0.930 . S
O327 Co296 2.037 . S
O327 C347 1.234 . S
C328 O302 1.269 . S
C328 O303 1.257 1_554 S
C329 H304 0.930 . S
C329 C332 1.388 . S
C329 C334 1.418 . S
C330 H325 0.930 . S
C330 C333 1.404 . S
C330 C334 1.353 . S
N331 Co296 2.145 1_554 S
N331 C332 1.397 . S
N331 C333 1.334 . S
C332 H313 0.929 . S
C332 C329 1.388 . S
C332 N331 1.397 . S
C333 H314 0.929 . S
C333 C330 1.404 . S
C333 N331 1.334 . S
C334 H326 0.930 . S
C334 C329 1.418 . S
C334 C330 1.353 . S
C335 H305 0.930 . S
C335 N336 1.330 . S
C335 C337 1.446 . S
N336 Co295 2.151 . S
N336 C335 1.330 . S
N336 C340 1.418 . S
C337 H316 0.929 . S
C337 C335 1.446 . S
C337 C338 1.332 . S
C338 H318 0.931 . S
C338 C337 1.332 . S
C338 C339 1.267 . S
C339 H307 0.929 . S
C339 C338 1.267 . S
C339 C340 1.251 . S
C340 H310 0.929 . S
C340 N336 1.418 . S
C340 C339 1.251 . S
C341 H308 0.930 . S
C341 C343 1.406 . S
C341 C346 1.261 . S
C342 H309 0.930 . S
C342 N344 1.325 . S
C342 C345 1.357 . S
C343 H311 0.928 . S
C343 C341 1.406 . S
C343 N344 1.261 . S
N344 Co295 2.214 . S
N344 C342 1.325 . S
N344 C343 1.261 . S
C345 H315 0.931 . S
C345 C342 1.357 . S
C345 C346 1.312 . S
C346 H317 0.930 . S
C346 C341 1.261 . S
C346 C345 1.312 . S
C347 O319 1.214 . S
C347 O327 1.234 . S
C348 H320 0.929 . S
C348 C351 1.391 . S
C348 C353 1.391 . S
C349 H321 0.929 . S
C349 C350 1.390 . S
C349 N352 1.391 . S
C350 H322 0.930 . S
C350 C349 1.390 . S
C350 C351 1.392 . S
C351 H323 0.929 . S
C351 C348 1.391 . S
C351 C350 1.392 . S
N352 Co296 2.257 . S
N352 C349 1.391 . S
N352 C353 1.388 . S
C353 H324 0.930 . S
C353 C348 1.391 . S
C353 N352 1.388 . S
Co354 O356 2.143 . S
Co354 O362 2.074 . S
Co354 O365 2.093 . S
Co354 O378 2.097 . S
Co354 N395 2.151 . S
Co354 N403 2.214 . S
Co355 O356 2.160 . S
Co355 O361 2.058 . S
Co355 O371 2.057 . S
Co355 O386 2.037 . S
Co355 N390 2.145 . S
Co355 N411 2.257 . S
O356 Co354 2.143 . S
O356 Co355 2.160 . S
C357 O358 1.278 . S
C357 O365 1.224 . S
O358 C357 1.278 . S
C359 O360 1.245 . S
C359 O371 1.232 . S
O360 C359 1.245 . S
O361 Co355 2.058 . S
O361 C387 1.269 . S
O362 Co354 2.074 . S
O362 C387 1.257 . S
H363 C388 0.930 . S
H364 C394 0.930 . S
O365 Co354 2.093 . S
O365 C357 1.224 . S
H366 C398 0.929 . S
H367 C400 0.930 . S
H368 C401 0.930 . S
H369 C399 0.929 . S
H370 C402 0.928 . S
O371 Co355 2.057 . S
O371 C359 1.232 . S
H372 C391 0.929 . S
H373 C392 0.929 . S
H374 C404 0.931 . S
H375 C396 0.929 . S
H376 C405 0.930 . S
H377 C397 0.931 . S
O378 Co354 2.097 . S
O378 C406 1.214 . S
H379 C407 0.929 . S
H380 C408 0.929 . S
H381 C409 0.930 . S
H382 C410 0.929 . S
H383 C412 0.930 . S
H384 C389 0.930 . S
H385 C393 0.930 . S
O386 Co355 2.037 . S
O386 C406 1.234 . S
C387 O361 1.269 . S
C387 O362 1.257 . S
C388 H363 0.930 . S
C388 C391 1.388 . S
C388 C393 1.418 . S
C389 H384 0.930 . S
C389 C392 1.404 . S
C389 C393 1.353 . S
N390 Co355 2.145 . S
N390 C391 1.397 . S
N390 C392 1.334 . S
C391 H372 0.929 . S
C391 C388 1.388 . S
C391 N390 1.397 . S
C392 H373 0.929 . S
C392 C389 1.404 . S
C392 N390 1.334 . S
C393 H385 0.930 . S
C393 C388 1.418 . S
C393 C389 1.353 . S
C394 H364 0.930 . S
C394 N395 1.330 . S
C394 C396 1.446 . S
N395 Co354 2.151 . S
N395 C394 1.330 . S
N395 C399 1.418 . S
C396 H375 0.929 . S
C396 C394 1.446 . S
C396 C397 1.332 . S
C397 H377 0.931 . S
C397 C396 1.332 . S
C397 C398 1.267 . S
C398 H366 0.929 . S
C398 C397 1.267 . S
C398 C399 1.251 . S
C399 H369 0.929 . S
C399 N395 1.418 . S
C399 C398 1.251 . S
C400 H367 0.930 . S
C400 C402 1.406 . S
C400 C405 1.261 . S
C401 H368 0.930 . S
C401 N403 1.325 . S
C401 C404 1.357 . S
C402 H370 0.928 . S
C402 C400 1.406 . S
C402 N403 1.261 . S
N403 Co354 2.214 . S
N403 C401 1.325 . S
N403 C402 1.261 . S
C404 H374 0.931 . S
C404 C401 1.357 . S
C404 C405 1.312 . S
C405 H376 0.930 . S
C405 C400 1.261 . S
C405 C404 1.312 . S
C406 O378 1.214 . S
C406 O386 1.234 . S
C407 H379 0.929 . S
C407 C410 1.391 . S
C407 C412 1.391 . S
C408 H380 0.929 . S
C408 C409 1.390 . S
C408 N411 1.391 . S
C409 H381 0.930 . S
C409 C408 1.390 . S
C409 C410 1.392 . S
C410 H382 0.929 . S
C410 C407 1.391 . S
C410 C409 1.392 . S
N411 Co355 2.257 . S
N411 C408 1.391 . S
N411 C412 1.388 . S
C412 H383 0.930 . S
C412 C407 1.391 . S
C412 N411 1.388 . S
Co413 O415 2.143 . S
Co413 O421 2.074 . S
Co413 O424 2.093 . S
Co413 O437 2.097 . S
Co413 N454 2.151 . S
Co413 N462 2.214 . S
Co414 O415 2.160 . S
Co414 O420 2.058 . S
Co414 O430 2.057 . S
Co414 O445 2.037 . S
Co414 N449 2.145 . S
Co414 N470 2.257 . S
O415 Co413 2.143 . S
O415 Co414 2.160 . S
C416 O417 1.278 . S
C416 O424 1.224 . S
O417 C416 1.278 . S
C418 O419 1.245 . S
C418 O430 1.232 . S
O419 C418 1.245 . S
O420 Co414 2.058 . S
O420 C446 1.269 . S
O421 Co413 2.074 . S
O421 C446 1.257 . S
H422 C447 0.930 . S
H423 C453 0.930 . S
O424 Co413 2.093 . S
O424 C416 1.224 . S
H425 C457 0.929 . S
H426 C459 0.930 . S
H427 C460 0.930 . S
H428 C458 0.929 . S
H429 C461 0.928 . S
O430 Co414 2.057 . S
O430 C418 1.232 . S
H431 C450 0.929 . S
H432 C451 0.929 . S
H433 C463 0.931 . S
H434 C455 0.929 . S
H435 C464 0.930 . S
H436 C456 0.931 . S
O437 Co413 2.097 . S
O437 C465 1.214 . S
H438 C466 0.929 . S
H439 C467 0.929 . S
H440 C468 0.930 . S
H441 C469 0.929 . S
H442 C471 0.930 . S
H443 C448 0.930 . S
H444 C452 0.930 . S
O445 Co414 2.037 . S
O445 C465 1.234 . S
C446 O420 1.269 . S
C446 O421 1.257 . S
C447 H422 0.930 . S
C447 C450 1.388 . S
C447 C452 1.418 . S
C448 H443 0.930 . S
C448 C451 1.404 . S
C448 C452 1.353 . S
N449 Co414 2.145 . S
N449 C450 1.397 . S
N449 C451 1.334 . S
C450 H431 0.929 . S
C450 C447 1.388 . S
C450 N449 1.397 . S
C451 H432 0.929 . S
C451 C448 1.404 . S
C451 N449 1.334 . S
C452 H444 0.930 . S
C452 C447 1.418 . S
C452 C448 1.353 . S
C453 H423 0.930 . S
C453 N454 1.330 . S
C453 C455 1.446 . S
N454 Co413 2.151 . S
N454 C453 1.330 . S
N454 C458 1.418 . S
C455 H434 0.929 . S
C455 C453 1.446 . S
C455 C456 1.332 . S
C456 H436 0.931 . S
C456 C455 1.332 . S
C456 C457 1.267 . S
C457 H425 0.929 . S
C457 C456 1.267 . S
C457 C458 1.251 . S
C458 H428 0.929 . S
C458 N454 1.418 . S
C458 C457 1.251 . S
C459 H426 0.930 . S
C459 C461 1.406 . S
C459 C464 1.261 . S
C460 H427 0.930 . S
C460 N462 1.325 . S
C460 C463 1.357 . S
C461 H429 0.928 . S
C461 C459 1.406 . S
C461 N462 1.261 . S
N462 Co413 2.214 . S
N462 C460 1.325 . S
N462 C461 1.261 . S
C463 H433 0.931 . S
C463 C460 1.357 . S
C463 C464 1.312 . S
C464 H435 0.930 . S
C464 C459 1.261 . S
C464 C463 1.312 . S
C465 O437 1.214 . S
C465 O445 1.234 . S
C466 H438 0.929 . S
C466 C469 1.391 . S
C466 C471 1.391 . S
C467 H439 0.929 . S
C467 C468 1.390 . S
C467 N470 1.391 . S
C468 H440 0.930 . S
C468 C467 1.390 . S
C468 C469 1.392 . S
C469 H441 0.929 . S
C469 C466 1.391 . S
C469 C468 1.392 . S
N470 Co414 2.257 . S
N470 C467 1.391 . S
N470 C471 1.388 . S
C471 H442 0.930 . S
C471 C466 1.391 . S
C471 N470 1.388 . S
Co472 O474 2.143 . S
Co472 O480 2.074 . S
Co472 O483 2.093 . S
Co472 O496 2.097 . S
Co472 N513 2.151 . S
Co472 N521 2.214 . S
Co473 O474 2.160 . S
Co473 O479 2.058 . S
Co473 O489 2.057 . S
Co473 O504 2.037 . S
Co473 N508 2.145 . S
Co473 N529 2.257 . S
O474 Co472 2.143 . S
O474 Co473 2.160 . S
C475 O476 1.278 . S
C475 O483 1.224 . S
O476 C475 1.278 . S
C477 O478 1.245 . S
C477 O489 1.232 . S
O478 C477 1.245 . S
O479 Co473 2.058 . S
O479 C505 1.269 . S
O480 Co472 2.074 . S
O480 C505 1.257 . S
H481 C506 0.930 . S
H482 C512 0.930 . S
O483 Co472 2.093 . S
O483 C475 1.224 . S
H484 C516 0.929 . S
H485 C518 0.930 . S
H486 C519 0.930 . S
H487 C517 0.929 . S
H488 C520 0.928 . S
O489 Co473 2.057 . S
O489 C477 1.232 . S
H490 C509 0.929 . S
H491 C510 0.929 . S
H492 C522 0.931 . S
H493 C514 0.929 . S
H494 C523 0.930 . S
H495 C515 0.931 . S
O496 Co472 2.097 . S
O496 C524 1.214 . S
H497 C525 0.929 . S
H498 C526 0.929 . S
H499 C527 0.930 . S
H500 C528 0.929 . S
H501 C530 0.930 . S
H502 C507 0.930 . S
H503 C511 0.930 . S
O504 Co473 2.037 . S
O504 C524 1.234 . S
C505 O479 1.269 . S
C505 O480 1.257 . S
C506 H481 0.930 . S
C506 C509 1.388 . S
C506 C511 1.418 . S
C507 H502 0.930 . S
C507 C510 1.404 . S
C507 C511 1.353 . S
N508 Co473 2.145 . S
N508 C509 1.397 . S
N508 C510 1.334 . S
C509 H490 0.929 . S
C509 C506 1.388 . S
C509 N508 1.397 . S
C510 H491 0.929 . S
C510 C507 1.404 . S
C510 N508 1.334 . S
C511 H503 0.930 . S
C511 C506 1.418 . S
C511 C507 1.353 . S
C512 H482 0.930 . S
C512 N513 1.330 . S
C512 C514 1.446 . S
N513 Co472 2.151 . S
N513 C512 1.330 . S
N513 C517 1.418 . S
C514 H493 0.929 . S
C514 C512 1.446 . S
C514 C515 1.332 . S
C515 H495 0.931 . S
C515 C514 1.332 . S
C515 C516 1.267 . S
C516 H484 0.929 . S
C516 C515 1.267 . S
C516 C517 1.251 . S
C517 H487 0.929 . S
C517 N513 1.418 . S
C517 C516 1.251 . S
C518 H485 0.930 . S
C518 C520 1.406 . S
C518 C523 1.261 . S
C519 H486 0.930 . S
C519 N521 1.325 . S
C519 C522 1.357 . S
C520 H488 0.928 . S
C520 C518 1.406 . S
C520 N521 1.261 . S
N521 Co472 2.214 . S
N521 C519 1.325 . S
N521 C520 1.261 . S
C522 H492 0.931 . S
C522 C519 1.357 . S
C522 C523 1.312 . S
C523 H494 0.930 . S
C523 C518 1.261 . S
C523 C522 1.312 . S
C524 O496 1.214 . S
C524 O504 1.234 . S
C525 H497 0.929 . S
C525 C528 1.391 . S
C525 C530 1.391 . S
C526 H498 0.929 . S
C526 C527 1.390 . S
C526 N529 1.391 . S
C527 H499 0.930 . S
C527 C526 1.390 . S
C527 C528 1.392 . S
C528 H500 0.929 . S
C528 C525 1.391 . S
C528 C527 1.392 . S
N529 Co473 2.257 . S
N529 C526 1.391 . S
N529 C530 1.388 . S
C530 H501 0.930 . S
C530 C525 1.391 . S
C530 N529 1.388 . S
Co531 O533 2.143 . S
Co531 O539 2.074 . S
Co531 O542 2.093 . S
Co531 O555 2.097 . S
Co531 N572 2.151 . S
Co531 N580 2.214 . S
Co532 O533 2.160 . S
Co532 O538 2.058 . S
Co532 O548 2.057 . S
Co532 O563 2.037 . S
Co532 N567 2.145 1_655 S
Co532 N588 2.198 1_655 S
O533 Co531 2.143 . S
O533 Co532 2.160 . S
C534 O535 1.278 . S
C534 O542 1.224 . S
O535 C534 1.278 . S
C536 O537 1.245 . S
C536 O548 1.232 . S
O537 C536 1.245 . S
O538 Co532 2.058 . S
O538 C564 1.269 . S
O539 Co531 2.074 . S
O539 C564 1.257 . S
H540 C565 0.930 . S
H541 C571 0.930 . S
O542 Co531 2.093 . S
O542 C534 1.224 . S
H543 C575 0.929 . S
H544 C577 0.930 . S
H545 C578 0.930 . S
H546 C576 0.929 . S
H547 C579 0.928 . S
O548 Co532 2.057 . S
O548 C536 1.232 . S
H549 C568 0.929 . S
H550 C569 0.929 . S
H551 C581 0.931 . S
H552 C573 0.929 . S
H553 C582 0.930 . S
H554 C574 0.931 . S
O555 Co531 2.097 . S
O555 C583 1.214 . S
H556 C584 0.929 . S
H557 C585 0.929 . S
H558 C586 0.930 . S
H559 C587 0.929 . S
H560 C589 0.930 . S
H561 C566 0.930 . S
H562 C570 0.930 . S
O563 Co532 2.037 . S
O563 C583 1.234 . S
C564 O538 1.269 . S
C564 O539 1.257 . S
C565 H540 0.930 . S
C565 C568 1.388 . S
C565 C570 1.418 . S
C566 H561 0.930 . S
C566 C569 1.404 . S
C566 C570 1.353 . S
N567 Co532 2.145 1_455 S
N567 C568 1.397 . S
N567 C569 1.334 . S
C568 H549 0.929 . S
C568 C565 1.388 . S
C568 N567 1.397 . S
C569 H550 0.929 . S
C569 C566 1.404 . S
C569 N567 1.334 . S
C570 H562 0.930 . S
C570 C565 1.418 . S
C570 C566 1.353 . S
C571 H541 0.930 . S
C571 N572 1.330 . S
C571 C573 1.446 . S
N572 Co531 2.151 . S
N572 C571 1.330 . S
N572 C576 1.418 . S
C573 H552 0.929 . S
C573 C571 1.446 . S
C573 C574 1.332 . S
C574 H554 0.931 . S
C574 C573 1.332 . S
C574 C575 1.267 . S
C575 H543 0.929 . S
C575 C574 1.267 . S
C575 C576 1.251 . S
C576 H546 0.929 . S
C576 N572 1.418 . S
C576 C575 1.251 . S
C577 H544 0.930 . S
C577 C579 1.406 . S
C577 C582 1.261 . S
C578 H545 0.930 . S
C578 N580 1.325 . S
C578 C581 1.357 . S
C579 H547 0.928 . S
C579 C577 1.406 . S
C579 N580 1.261 . S
N580 Co531 2.214 . S
N580 C578 1.325 . S
N580 C579 1.261 . S
C581 H551 0.931 . S
C581 C578 1.357 . S
C581 C582 1.312 . S
C582 H553 0.930 . S
C582 C577 1.261 . S
C582 C581 1.312 . S
C583 O555 1.214 . S
C583 O563 1.234 . S
C584 H556 0.929 . S
C584 C587 1.391 . S
C584 C589 1.391 1_455 S
C585 H557 0.929 . S
C585 C586 1.390 . S
C585 N588 1.433 . S
C586 H558 0.930 . S
C586 C585 1.390 . S
C586 C587 1.392 . S
C587 H559 0.929 . S
C587 C584 1.391 . S
C587 C586 1.392 . S
N588 Co532 2.198 1_455 S
N588 C585 1.433 . S
N588 C589 1.407 1_455 S
C589 H560 0.930 . S
C589 C584 1.391 1_655 S
C589 N588 1.407 1_655 S
Co590 O592 2.143 . S
Co590 O598 2.074 . S
Co590 O601 2.093 . S
Co590 O614 2.097 . S
Co590 N631 2.151 . S
Co590 N639 2.214 . S
Co591 O592 2.160 . S
Co591 O597 2.058 . S
Co591 O607 2.057 . S
Co591 O622 2.037 . S
Co591 N626 2.145 . S
Co591 N647 2.257 . S
O592 Co590 2.143 . S
O592 Co591 2.160 . S
C593 O594 1.278 . S
C593 O601 1.224 . S
O594 C593 1.278 . S
C595 O596 1.245 . S
C595 O607 1.232 . S
O596 C595 1.245 . S
O597 Co591 2.058 . S
O597 C623 1.269 . S
O598 Co590 2.074 . S
O598 C623 1.257 . S
H599 C624 0.930 . S
H600 C630 0.930 . S
O601 Co590 2.093 . S
O601 C593 1.224 . S
H602 C634 0.929 . S
H603 C636 0.930 . S
H604 C637 0.930 . S
H605 C635 0.929 . S
H606 C638 0.928 . S
O607 Co591 2.057 . S
O607 C595 1.232 . S
H608 C627 0.929 . S
H609 C628 0.929 . S
H610 C640 0.931 . S
H611 C632 0.929 . S
H612 C641 0.930 . S
H613 C633 0.931 . S
O614 Co590 2.097 . S
O614 C642 1.214 . S
H615 C643 0.929 . S
H616 C644 0.929 . S
H617 C645 0.930 . S
H618 C646 0.929 . S
H619 C648 0.930 . S
H620 C625 0.930 . S
H621 C629 0.930 . S
O622 Co591 2.037 . S
O622 C642 1.234 . S
C623 O597 1.269 . S
C623 O598 1.257 . S
C624 H599 0.930 . S
C624 C627 1.388 . S
C624 C629 1.418 . S
C625 H620 0.930 . S
C625 C628 1.404 . S
C625 C629 1.353 . S
N626 Co591 2.145 . S
N626 C627 1.397 . S
N626 C628 1.334 . S
C627 H608 0.929 . S
C627 C624 1.388 . S
C627 N626 1.397 . S
C628 H609 0.929 . S
C628 C625 1.404 . S
C628 N626 1.334 . S
C629 H621 0.930 . S
C629 C624 1.418 . S
C629 C625 1.353 . S
C630 H600 0.930 . S
C630 N631 1.330 . S
C630 C632 1.446 . S
N631 Co590 2.151 . S
N631 C630 1.330 . S
N631 C635 1.418 . S
C632 H611 0.929 . S
C632 C630 1.446 . S
C632 C633 1.332 . S
C633 H613 0.931 . S
C633 C632 1.332 . S
C633 C634 1.267 . S
C634 H602 0.929 . S
C634 C633 1.267 . S
C634 C635 1.251 . S
C635 H605 0.929 . S
C635 N631 1.418 . S
C635 C634 1.251 . S
C636 H603 0.930 . S
C636 C638 1.406 . S
C636 C641 1.261 . S
C637 H604 0.930 . S
C637 N639 1.325 . S
C637 C640 1.357 . S
C638 H606 0.928 . S
C638 C636 1.406 . S
C638 N639 1.261 . S
N639 Co590 2.214 . S
N639 C637 1.325 . S
N639 C638 1.261 . S
C640 H610 0.931 . S
C640 C637 1.357 . S
C640 C641 1.312 . S
C641 H612 0.930 . S
C641 C636 1.261 . S
C641 C640 1.312 . S
C642 O614 1.214 . S
C642 O622 1.234 . S
C643 H615 0.929 . S
C643 C646 1.391 . S
C643 C648 1.391 . S
C644 H616 0.929 . S
C644 C645 1.390 . S
C644 N647 1.391 . S
C645 H617 0.930 . S
C645 C644 1.390 . S
C645 C646 1.392 . S
C646 H618 0.929 . S
C646 C643 1.391 . S
C646 C645 1.392 . S
N647 Co591 2.257 . S
N647 C644 1.391 . S
N647 C648 1.388 . S
C648 H619 0.930 . S
C648 C643 1.391 . S
C648 N647 1.388 . S
Co649 O651 2.143 . S
Co649 O657 2.074 . S
Co649 O660 2.093 . S
Co649 O673 2.097 . S
Co649 N690 2.151 1_545 S
Co649 N698 2.214 1_545 S
Co650 O651 2.160 . S
Co650 O656 2.058 . S
Co650 O666 2.057 . S
Co650 O681 2.037 . S
Co650 N685 2.145 . S
Co650 N706 2.257 . S
O651 Co649 2.143 . S
O651 Co650 2.160 . S
C652 O653 1.278 . S
C652 O660 1.224 . S
O653 C652 1.278 . S
C654 O655 1.245 . S
C654 O666 1.232 . S
O655 C654 1.245 . S
O656 Co650 2.058 . S
O656 C682 1.269 . S
O657 Co649 2.074 . S
O657 C682 1.257 . S
H658 C683 0.930 . S
H659 C689 0.930 . S
O660 Co649 2.093 . S
O660 C652 1.224 . S
H661 C693 0.929 . S
H662 C695 0.930 . S
H663 C696 0.930 1_545 S
H664 C694 0.929 . S
H665 C697 0.928 . S
O666 Co650 2.057 . S
O666 C654 1.232 . S
H667 C686 0.929 . S
H668 C687 0.929 . S
H669 C699 0.931 . S
H670 C691 0.929 . S
H671 C700 0.930 . S
H672 C692 0.931 . S
O673 Co649 2.097 . S
O673 C701 1.214 . S
H674 C702 0.929 . S
H675 C703 0.929 . S
H676 C704 0.930 . S
H677 C705 0.929 . S
H678 C707 0.930 . S
H679 C684 0.930 . S
H680 C688 0.930 . S
O681 Co650 2.037 . S
O681 C701 1.234 . S
C682 O656 1.269 . S
C682 O657 1.257 . S
C683 H658 0.930 . S
C683 C686 1.388 . S
C683 C688 1.418 . S
C684 H679 0.930 . S
C684 C687 1.404 . S
C684 C688 1.353 . S
N685 Co650 2.145 . S
N685 C686 1.397 . S
N685 C687 1.334 . S
C686 H667 0.929 . S
C686 C683 1.388 . S
C686 N685 1.397 . S
C687 H668 0.929 . S
C687 C684 1.404 . S
C687 N685 1.334 . S
C688 H680 0.930 . S
C688 C683 1.418 . S
C688 C684 1.353 . S
C689 H659 0.930 . S
C689 N690 1.330 . S
C689 C691 1.446 . S
N690 Co649 2.151 1_565 S
N690 C689 1.330 . S
N690 C694 1.418 . S
C691 H670 0.929 . S
C691 C689 1.446 . S
C691 C692 1.332 . S
C692 H672 0.931 . S
C692 C691 1.332 . S
C692 C693 1.267 . S
C693 H661 0.929 . S
C693 C692 1.267 . S
C693 C694 1.251 . S
C694 H664 0.929 . S
C694 N690 1.418 . S
C694 C693 1.251 . S
C695 H662 0.930 . S
C695 C697 1.406 . S
C695 C700 1.261 . S
C696 H663 0.930 1_565 S
C696 N698 1.325 . S
C696 C699 1.357 . S
C697 H665 0.928 . S
C697 C695 1.406 . S
C697 N698 1.261 . S
N698 Co649 2.214 1_565 S
N698 C696 1.325 . S
N698 C697 1.261 . S
C699 H669 0.931 . S
C699 C696 1.357 . S
C699 C700 1.312 . S
C700 H671 0.930 . S
C700 C695 1.261 . S
C700 C699 1.312 . S
C701 O673 1.214 . S
C701 O681 1.234 . S
C702 H674 0.929 . S
C702 C705 1.391 . S
C702 C707 1.391 . S
C703 H675 0.929 . S
C703 C704 1.390 . S
C703 N706 1.391 . S
C704 H676 0.930 . S
C704 C703 1.390 . S
C704 C705 1.392 . S
C705 H677 0.929 . S
C705 C702 1.391 . S
C705 C704 1.392 . S
N706 Co650 2.257 . S
N706 C703 1.391 . S
N706 C707 1.388 . S
C707 H678 0.930 . S
C707 C702 1.391 . S
C707 N706 1.388 . S
Co708 O710 2.143 . S
Co708 O716 2.074 . S
Co708 O719 2.093 . S
Co708 O732 2.097 . S
Co708 N749 2.151 1_565 S
Co708 N757 2.214 1_565 S
Co709 O710 2.160 . S
Co709 O715 2.058 . S
Co709 O725 2.057 . S
Co709 O740 2.037 . S
Co709 N744 2.145 . S
Co709 N765 2.257 . S
O710 Co708 2.143 . S
O710 Co709 2.160 . S
C711 O712 1.278 . S
C711 O719 1.224 . S
O712 C711 1.278 . S
C713 O714 1.245 . S
C713 O725 1.232 . S
O714 C713 1.245 . S
O715 Co709 2.058 . S
O715 C741 1.269 . S
O716 Co708 2.074 . S
O716 C741 1.257 . S
H717 C742 0.930 . S
H718 C748 0.930 1_565 S
O719 Co708 2.093 . S
O719 C711 1.224 . S
H720 C752 0.929 . S
H721 C754 0.930 . S
H722 C755 0.930 1_565 S
H723 C753 0.929 . S
H724 C756 0.928 . S
O725 Co709 2.057 . S
O725 C713 1.232 . S
H726 C745 0.929 . S
H727 C746 0.929 . S
H728 C758 0.931 . S
H729 C750 0.929 . S
H730 C759 0.930 . S
H731 C751 0.931 . S
O732 Co708 2.097 . S
O732 C760 1.214 . S
H733 C761 0.929 . S
H734 C762 0.929 . S
H735 C763 0.930 . S
H736 C764 0.929 . S
H737 C766 0.930 . S
H738 C743 0.930 . S
H739 C747 0.930 . S
O740 Co709 2.037 . S
O740 C760 1.234 . S
C741 O715 1.269 . S
C741 O716 1.257 . S
C742 H717 0.930 . S
C742 C745 1.388 . S
C742 C747 1.418 . S
C743 H738 0.930 . S
C743 C746 1.404 . S
C743 C747 1.353 . S
N744 Co709 2.145 . S
N744 C745 1.397 . S
N744 C746 1.334 . S
C745 H726 0.929 . S
C745 C742 1.388 . S
C745 N744 1.397 . S
C746 H727 0.929 . S
C746 C743 1.404 . S
C746 N744 1.334 . S
C747 H739 0.930 . S
C747 C742 1.418 . S
C747 C743 1.353 . S
C748 H718 0.930 1_545 S
C748 N749 1.330 . S
C748 C750 1.446 . S
N749 Co708 2.151 1_545 S
N749 C748 1.330 . S
N749 C753 1.418 . S
C750 H729 0.929 . S
C750 C748 1.446 . S
C750 C751 1.332 . S
C751 H731 0.931 . S
C751 C750 1.332 . S
C751 C752 1.267 . S
C752 H720 0.929 . S
C752 C751 1.267 . S
C752 C753 1.251 . S
C753 H723 0.929 . S
C753 N749 1.418 . S
C753 C752 1.251 . S
C754 H721 0.930 . S
C754 C756 1.406 . S
C754 C759 1.261 . S
C755 H722 0.930 1_545 S
C755 N757 1.325 . S
C755 C758 1.357 . S
C756 H724 0.928 . S
C756 C754 1.406 . S
C756 N757 1.261 . S
N757 Co708 2.214 1_545 S
N757 C755 1.325 . S
N757 C756 1.261 . S
C758 H728 0.931 . S
C758 C755 1.357 . S
C758 C759 1.312 . S
C759 H730 0.930 . S
C759 C754 1.261 . S
C759 C758 1.312 . S
C760 O732 1.214 . S
C760 O740 1.234 . S
C761 H733 0.929 . S
C761 C764 1.391 . S
C761 C766 1.391 . S
C762 H734 0.929 . S
C762 C763 1.390 . S
C762 N765 1.391 . S
C763 H735 0.930 . S
C763 C762 1.390 . S
C763 C764 1.392 . S
C764 H736 0.929 . S
C764 C761 1.391 . S
C764 C763 1.392 . S
N765 Co709 2.257 . S
N765 C762 1.391 . S
N765 C766 1.388 . S
C766 H737 0.930 . S
C766 C761 1.391 . S
C766 N765 1.388 . S
Co767 O769 2.143 . S
Co767 O775 2.074 . S
Co767 O778 2.093 . S
Co767 O791 2.097 . S
Co767 N808 2.151 . S
Co767 N816 2.214 . S
Co768 O769 2.160 . S
Co768 O774 2.058 . S
Co768 O784 2.057 . S
Co768 O799 2.037 . S
Co768 N803 2.145 1_455 S
Co768 N824 2.257 1_455 S
O769 Co767 2.143 . S
O769 Co768 2.160 . S
C770 O771 1.278 . S
C770 O778 1.224 . S
O771 C770 1.278 . S
C772 O773 1.245 . S
C772 O784 1.232 . S
O773 C772 1.245 . S
O774 Co768 2.058 . S
O774 C800 1.269 . S
O775 Co767 2.074 . S
O775 C800 1.257 . S
H776 C801 0.930 . S
H777 C807 0.930 . S
O778 Co767 2.093 . S
O778 C770 1.224 . S
H779 C811 0.929 . S
H780 C813 0.930 . S
H781 C814 0.930 . S
H782 C812 0.929 . S
H783 C815 0.928 . S
O784 Co768 2.057 . S
O784 C772 1.232 . S
H785 C804 0.929 . S
H786 C805 0.929 . S
H787 C817 0.931 . S
H788 C809 0.929 . S
H789 C818 0.930 . S
H790 C810 0.931 . S
O791 Co767 2.097 . S
O791 C819 1.214 . S
H792 C820 0.929 . S
H793 C821 0.929 . S
H794 C822 0.930 . S
H795 C823 0.929 . S
H796 C825 0.930 1_455 S
H797 C802 0.930 . S
H798 C806 0.930 . S
O799 Co768 2.037 . S
O799 C819 1.234 . S
C800 O774 1.269 . S
C800 O775 1.257 . S
C801 H776 0.930 . S
C801 C804 1.388 . S
C801 C806 1.418 . S
C802 H797 0.930 . S
C802 C805 1.404 . S
C802 C806 1.353 . S
N803 Co768 2.145 1_655 S
N803 C804 1.397 . S
N803 C805 1.334 . S
C804 H785 0.929 . S
C804 C801 1.388 . S
C804 N803 1.397 . S
C805 H786 0.929 . S
C805 C802 1.404 . S
C805 N803 1.334 . S
C806 H798 0.930 . S
C806 C801 1.418 . S
C806 C802 1.353 . S
C807 H777 0.930 . S
C807 N808 1.330 . S
C807 C809 1.446 . S
N808 Co767 2.151 . S
N808 C807 1.330 . S
N808 C812 1.418 . S
C809 H788 0.929 . S
C809 C807 1.446 . S
C809 C810 1.332 . S
C810 H790 0.931 . S
C810 C809 1.332 . S
C810 C811 1.267 . S
C811 H779 0.929 . S
C811 C810 1.267 . S
C811 C812 1.251 . S
C812 H782 0.929 . S
C812 N808 1.418 . S
C812 C811 1.251 . S
C813 H780 0.930 . S
C813 C815 1.406 . S
C813 C818 1.261 . S
C814 H781 0.930 . S
C814 N816 1.325 . S
C814 C817 1.357 . S
C815 H783 0.928 . S
C815 C813 1.406 . S
C815 N816 1.261 . S
N816 Co767 2.214 . S
N816 C814 1.325 . S
N816 C815 1.261 . S
C817 H787 0.931 . S
C817 C814 1.357 . S
C817 C818 1.312 . S
C818 H789 0.930 . S
C818 C813 1.261 . S
C818 C817 1.312 . S
C819 O791 1.214 . S
C819 O799 1.234 . S
C820 H792 0.929 . S
C820 C823 1.391 . S
C820 C825 1.391 . S
C821 H793 0.929 . S
C821 C822 1.390 . S
C821 N824 1.391 . S
C822 H794 0.930 . S
C822 C821 1.390 . S
C822 C823 1.392 . S
C823 H795 0.929 . S
C823 C820 1.391 . S
C823 C822 1.392 . S
N824 Co768 2.257 1_655 S
N824 C821 1.391 . S
N824 C825 1.388 . S
C825 H796 0.930 1_655 S
C825 C820 1.391 . S
C825 N824 1.388 . S
Co826 O828 2.143 . S
Co826 O834 2.074 . S
Co826 O837 2.093 . S
Co826 O850 2.097 . S
Co826 N867 2.151 . S
Co826 N875 2.214 . S
Co827 O828 2.160 . S
Co827 O833 2.058 . S
Co827 O843 2.057 . S
Co827 O858 2.037 . S
Co827 N862 2.145 . S
Co827 N883 2.257 . S
O828 Co826 2.143 . S
O828 Co827 2.160 . S
C829 O830 1.278 . S
C829 O837 1.224 . S
O830 C829 1.278 . S
C831 O832 1.245 . S
C831 O843 1.232 . S
O832 C831 1.245 . S
O833 Co827 2.058 . S
O833 C859 1.269 . S
O834 Co826 2.074 . S
O834 C859 1.257 . S
H835 C860 0.930 . S
H836 C866 0.930 . S
O837 Co826 2.093 . S
O837 C829 1.224 . S
H838 C870 0.929 . S
H839 C872 0.930 . S
H840 C873 0.930 . S
H841 C871 0.929 . S
H842 C874 0.928 . S
O843 Co827 2.057 . S
O843 C831 1.232 . S
H844 C863 0.929 . S
H845 C864 0.929 . S
H846 C876 0.931 . S
H847 C868 0.929 . S
H848 C877 0.930 . S
H849 C869 0.931 . S
O850 Co826 2.097 . S
O850 C878 1.214 . S
H851 C879 0.929 . S
H852 C880 0.929 . S
H853 C881 0.930 . S
H854 C882 0.929 . S
H855 C884 0.930 . S
H856 C861 0.930 . S
H857 C865 0.930 . S
O858 Co827 2.037 . S
O858 C878 1.234 . S
C859 O833 1.269 . S
C859 O834 1.257 . S
C860 H835 0.930 . S
C860 C863 1.388 . S
C860 C865 1.418 . S
C861 H856 0.930 . S
C861 C864 1.404 . S
C861 C865 1.353 . S
N862 Co827 2.145 . S
N862 C863 1.397 . S
N862 C864 1.334 . S
C863 H844 0.929 . S
C863 C860 1.388 . S
C863 N862 1.397 . S
C864 H845 0.929 . S
C864 C861 1.404 . S
C864 N862 1.334 . S
C865 H857 0.930 . S
C865 C860 1.418 . S
C865 C861 1.353 . S
C866 H836 0.930 . S
C866 N867 1.330 . S
C866 C868 1.446 . S
N867 Co826 2.151 . S
N867 C866 1.330 . S
N867 C871 1.418 . S
C868 H847 0.929 . S
C868 C866 1.446 . S
C868 C869 1.332 . S
C869 H849 0.931 . S
C869 C868 1.332 . S
C869 C870 1.267 . S
C870 H838 0.929 . S
C870 C869 1.267 . S
C870 C871 1.251 . S
C871 H841 0.929 . S
C871 N867 1.418 . S
C871 C870 1.251 . S
C872 H839 0.930 . S
C872 C874 1.406 . S
C872 C877 1.261 . S
C873 H840 0.930 . S
C873 N875 1.325 . S
C873 C876 1.357 . S
C874 H842 0.928 . S
C874 C872 1.406 . S
C874 N875 1.261 . S
N875 Co826 2.214 . S
N875 C873 1.325 . S
N875 C874 1.261 . S
C876 H846 0.931 . S
C876 C873 1.357 . S
C876 C877 1.312 . S
C877 H848 0.930 . S
C877 C872 1.261 . S
C877 C876 1.312 . S
C878 O850 1.214 . S
C878 O858 1.234 . S
C879 H851 0.929 . S
C879 C882 1.391 . S
C879 C884 1.391 . S
C880 H852 0.929 . S
C880 C881 1.390 . S
C880 N883 1.391 . S
C881 H853 0.930 . S
C881 C880 1.390 . S
C881 C882 1.392 . S
C882 H854 0.929 . S
C882 C879 1.391 . S
C882 C881 1.392 . S
N883 Co827 2.257 . S
N883 C880 1.391 . S
N883 C884 1.388 . S
C884 H855 0.930 . S
C884 C879 1.391 . S
C884 N883 1.388 . S
Co885 O887 2.143 . S
Co885 O893 2.074 . S
Co885 O896 2.093 . S
Co885 O909 2.097 . S
Co885 N926 2.151 . S
Co885 N934 2.214 . S
Co886 O887 2.160 . S
Co886 O892 2.058 . S
Co886 O902 2.057 . S
Co886 O917 2.037 . S
Co886 N921 2.145 . S
Co886 N942 2.257 . S
O887 Co885 2.143 . S
O887 Co886 2.160 . S
C888 O889 1.278 . S
C888 O896 1.224 . S
O889 C888 1.278 . S
C890 O891 1.245 . S
C890 O902 1.232 . S
O891 C890 1.245 . S
O892 Co886 2.058 . S
O892 C918 1.269 . S
O893 Co885 2.074 . S
O893 C918 1.257 . S
H894 C919 0.930 . S
H895 C925 0.930 . S
O896 Co885 2.093 . S
O896 C888 1.224 . S
H897 C929 0.929 . S
H898 C931 0.930 . S
H899 C932 0.930 . S
H900 C930 0.929 . S
H901 C933 0.928 . S
O902 Co886 2.057 . S
O902 C890 1.232 . S
H903 C922 0.929 . S
H904 C923 0.929 . S
H905 C935 0.931 . S
H906 C927 0.929 . S
H907 C936 0.930 . S
H908 C928 0.931 . S
O909 Co885 2.097 . S
O909 C937 1.214 . S
H910 C938 0.929 . S
H911 C939 0.929 . S
H912 C940 0.930 . S
H913 C941 0.929 . S
H914 C943 0.930 . S
H915 C920 0.930 . S
H916 C924 0.930 . S
O917 Co886 2.037 . S
O917 C937 1.234 . S
C918 O892 1.269 . S
C918 O893 1.257 . S
C919 H894 0.930 . S
C919 C922 1.388 . S
C919 C924 1.418 . S
C920 H915 0.930 . S
C920 C923 1.404 . S
C920 C924 1.353 . S
N921 Co886 2.145 . S
N921 C922 1.397 . S
N921 C923 1.334 . S
C922 H903 0.929 . S
C922 C919 1.388 . S
C922 N921 1.397 . S
C923 H904 0.929 . S
C923 C920 1.404 . S
C923 N921 1.334 . S
C924 H916 0.930 . S
C924 C919 1.418 . S
C924 C920 1.353 . S
C925 H895 0.930 . S
C925 N926 1.330 . S
C925 C927 1.446 . S
N926 Co885 2.151 . S
N926 C925 1.330 . S
N926 C930 1.418 . S
C927 H906 0.929 . S
C927 C925 1.446 . S
C927 C928 1.332 . S
C928 H908 0.931 . S
C928 C927 1.332 . S
C928 C929 1.267 . S
C929 H897 0.929 . S
C929 C928 1.267 . S
C929 C930 1.251 . S
C930 H900 0.929 . S
C930 N926 1.418 . S
C930 C929 1.251 . S
C931 H898 0.930 . S
C931 C933 1.406 . S
C931 C936 1.261 . S
C932 H899 0.930 . S
C932 N934 1.325 . S
C932 C935 1.357 . S
C933 H901 0.928 . S
C933 C931 1.406 . S
C933 N934 1.261 . S
N934 Co885 2.214 . S
N934 C932 1.325 . S
N934 C933 1.261 . S
C935 H905 0.931 . S
C935 C932 1.357 . S
C935 C936 1.312 . S
C936 H907 0.930 . S
C936 C931 1.261 . S
C936 C935 1.312 . S
C937 O909 1.214 . S
C937 O917 1.234 . S
C938 H910 0.929 . S
C938 C941 1.391 . S
C938 C943 1.391 . S
C939 H911 0.929 . S
C939 C940 1.390 . S
C939 N942 1.391 . S
C940 H912 0.930 . S
C940 C939 1.390 . S
C940 C941 1.392 . S
C941 H913 0.929 . S
C941 C938 1.391 . S
C941 C940 1.392 . S
N942 Co886 2.257 . S
N942 C939 1.391 . S
N942 C943 1.388 . S
C943 H914 0.930 . S
C943 C938 1.391 . S
C943 N942 1.388 . S
Co944 O946 2.143 . S
Co944 O952 2.074 . S
Co944 O955 2.093 . S
Co944 O968 2.097 . S
Co944 N985 2.151 . S
Co944 N993 2.214 . S
Co945 O946 2.160 . S
Co945 O951 2.058 . S
Co945 O961 2.057 . S
Co945 O976 2.037 . S
Co945 N980 2.145 . S
Co945 N1001 2.257 . S
O946 Co944 2.143 . S
O946 Co945 2.160 . S
C947 O948 1.278 . S
C947 O955 1.224 . S
O948 C947 1.278 . S
C949 O950 1.245 . S
C949 O961 1.232 . S
O950 C949 1.245 . S
O951 Co945 2.058 . S
O951 C977 1.269 . S
O952 Co944 2.074 . S
O952 C977 1.257 . S
H953 C978 0.930 . S
H954 C984 0.930 . S
O955 Co944 2.093 . S
O955 C947 1.224 . S
H956 C988 0.929 . S
H957 C990 0.930 . S
H958 C991 0.930 . S
H959 C989 0.929 . S
H960 C992 0.928 . S
O961 Co945 2.057 . S
O961 C949 1.232 . S
H962 C981 0.929 . S
H963 C982 0.929 . S
H964 C994 0.931 . S
H965 C986 0.929 . S
H966 C995 0.930 . S
H967 C987 0.931 . S
O968 Co944 2.097 . S
O968 C996 1.214 . S
H969 C997 0.929 . S
H970 C998 0.929 . S
H971 C999 0.930 . S
H972 C1000 0.929 . S
H973 C1002 0.930 . S
H974 C979 0.930 . S
H975 C983 0.930 . S
O976 Co945 2.037 . S
O976 C996 1.234 . S
C977 O951 1.269 . S
C977 O952 1.257 . S
C978 H953 0.930 . S
C978 C981 1.388 . S
C978 C983 1.418 . S
C979 H974 0.930 . S
C979 C982 1.404 . S
C979 C983 1.353 . S
N980 Co945 2.145 . S
N980 C981 1.397 . S
N980 C982 1.334 . S
C981 H962 0.929 . S
C981 C978 1.388 . S
C981 N980 1.397 . S
C982 H963 0.929 . S
C982 C979 1.404 . S
C982 N980 1.334 . S
C983 H975 0.930 . S
C983 C978 1.418 . S
C983 C979 1.353 . S
C984 H954 0.930 . S
C984 N985 1.330 . S
C984 C986 1.446 . S
N985 Co944 2.151 . S
N985 C984 1.330 . S
N985 C989 1.418 . S
C986 H965 0.929 . S
C986 C984 1.446 . S
C986 C987 1.332 . S
C987 H967 0.931 . S
C987 C986 1.332 . S
C987 C988 1.267 . S
C988 H956 0.929 . S
C988 C987 1.267 . S
C988 C989 1.251 . S
C989 H959 0.929 . S
C989 N985 1.418 . S
C989 C988 1.251 . S
C990 H957 0.930 . S
C990 C992 1.406 . S
C990 C995 1.261 . S
C991 H958 0.930 . S
C991 N993 1.325 . S
C991 C994 1.357 . S
C992 H960 0.928 . S
C992 C990 1.406 . S
C992 N993 1.261 . S
N993 Co944 2.214 . S
N993 C991 1.325 . S
N993 C992 1.261 . S
C994 H964 0.931 . S
C994 C991 1.357 . S
C994 C995 1.312 . S
C995 H966 0.930 . S
C995 C990 1.261 . S
C995 C994 1.312 . S
C996 O968 1.214 . S
C996 O976 1.234 . S
C997 H969 0.929 . S
C997 C1000 1.391 . S
C997 C1002 1.391 . S
C998 H970 0.929 . S
C998 C999 1.390 . S
C998 N1001 1.391 . S
C999 H971 0.930 . S
C999 C998 1.390 . S
C999 C1000 1.392 . S
C1000 H972 0.929 . S
C1000 C997 1.391 . S
C1000 C999 1.392 . S
N1001 Co945 2.257 . S
N1001 C998 1.391 . S
N1001 C1002 1.388 . S
C1002 H973 0.930 . S
C1002 C997 1.391 . S
C1002 N1001 1.388 . S
Co1003 O1005 2.143 . S
Co1003 O1011 2.074 . S
Co1003 O1014 2.093 . S
Co1003 O1027 2.097 . S
Co1003 N1044 2.151 . S
Co1003 N1052 2.214 . S
Co1004 O1005 2.160 . S
Co1004 O1010 2.058 . S
Co1004 O1020 2.057 . S
Co1004 O1035 2.037 . S
Co1004 N1039 2.145 . S
Co1004 N1060 2.257 . S
O1005 Co1003 2.143 . S
O1005 Co1004 2.160 . S
C1006 O1007 1.278 . S
C1006 O1014 1.224 . S
O1007 C1006 1.278 . S
C1008 O1009 1.245 . S
C1008 O1020 1.232 . S
O1009 C1008 1.245 . S
O1010 Co1004 2.058 . S
O1010 C1036 1.269 . S
O1011 Co1003 2.074 . S
O1011 C1036 1.257 . S
H1012 C1037 0.930 . S
H1013 C1043 0.930 . S
O1014 Co1003 2.093 . S
O1014 C1006 1.224 . S
H1015 C1047 0.929 . S
H1016 C1049 0.930 . S
H1017 C1050 0.930 . S
H1018 C1048 0.929 . S
H1019 C1051 0.928 . S
O1020 Co1004 2.057 . S
O1020 C1008 1.232 . S
H1021 C1040 0.929 . S
H1022 C1041 0.929 . S
H1023 C1053 0.931 . S
H1024 C1045 0.929 . S
H1025 C1054 0.930 . S
H1026 C1046 0.931 . S
O1027 Co1003 2.097 . S
O1027 C1055 1.214 . S
H1028 C1056 0.929 . S
H1029 C1057 0.929 . S
H1030 C1058 0.930 . S
H1031 C1059 0.929 . S
H1032 C1061 0.930 . S
H1033 C1038 0.930 . S
H1034 C1042 0.930 . S
O1035 Co1004 2.037 . S
O1035 C1055 1.234 . S
C1036 O1010 1.269 . S
C1036 O1011 1.257 . S
C1037 H1012 0.930 . S
C1037 C1040 1.388 . S
C1037 C1042 1.418 . S
C1038 H1033 0.930 . S
C1038 C1041 1.404 . S
C1038 C1042 1.353 . S
N1039 Co1004 2.145 . S
N1039 C1040 1.397 . S
N1039 C1041 1.334 . S
C1040 H1021 0.929 . S
C1040 C1037 1.388 . S
C1040 N1039 1.397 . S
C1041 H1022 0.929 . S
C1041 C1038 1.404 . S
C1041 N1039 1.334 . S
C1042 H1034 0.930 . S
C1042 C1037 1.418 . S
C1042 C1038 1.353 . S
C1043 H1013 0.930 . S
C1043 N1044 1.330 . S
C1043 C1045 1.446 . S
N1044 Co1003 2.151 . S
N1044 C1043 1.330 . S
N1044 C1048 1.418 . S
C1045 H1024 0.929 . S
C1045 C1043 1.446 . S
C1045 C1046 1.332 . S
C1046 H1026 0.931 . S
C1046 C1045 1.332 . S
C1046 C1047 1.267 . S
C1047 H1015 0.929 . S
C1047 C1046 1.267 . S
C1047 C1048 1.251 . S
C1048 H1018 0.929 . S
C1048 N1044 1.418 . S
C1048 C1047 1.251 . S
C1049 H1016 0.930 . S
C1049 C1051 1.406 . S
C1049 C1054 1.261 . S
C1050 H1017 0.930 . S
C1050 N1052 1.325 . S
C1050 C1053 1.357 . S
C1051 H1019 0.928 . S
C1051 C1049 1.406 . S
C1051 N1052 1.261 . S
N1052 Co1003 2.214 . S
N1052 C1050 1.325 . S
N1052 C1051 1.261 . S
C1053 H1023 0.931 . S
C1053 C1050 1.357 . S
C1053 C1054 1.312 . S
C1054 H1025 0.930 . S
C1054 C1049 1.261 . S
C1054 C1053 1.312 . S
C1055 O1027 1.214 . S
C1055 O1035 1.234 . S
C1056 H1028 0.929 . S
C1056 C1059 1.391 . S
C1056 C1061 1.391 . S
C1057 H1029 0.929 . S
C1057 C1058 1.390 . S
C1057 N1060 1.391 . S
C1058 H1030 0.930 . S
C1058 C1057 1.390 . S
C1058 C1059 1.392 . S
C1059 H1031 0.929 . S
C1059 C1056 1.391 . S
C1059 C1058 1.392 . S
N1060 Co1004 2.257 . S
N1060 C1057 1.391 . S
N1060 C1061 1.388 . S
C1061 H1032 0.930 . S
C1061 C1056 1.391 . S
C1061 N1060 1.388 . S
H1062 C1070 0.929 . S
H1063 C1072 0.930 . S
H1064 C1074 0.930 . S
H1065 C1077 0.929 . S
H1066 C1080 0.930 . S
H1067 C1082 0.960 . S
H1068 C1082 0.960 . S
H1069 C1082 0.960 . S
C1070 H1062 0.929 . S
C1070 C1071 1.377 . S
C1070 C1072 1.384 . S
C1071 C1070 1.377 . S
C1071 C1077 1.390 . S
C1072 H1063 0.930 . S
C1072 C1070 1.384 . S
C1072 C1073 1.372 . S
C1073 C1072 1.372 . S
C1073 C1074 1.400 . S
C1073 C1078 1.490 . S
C1074 H1064 0.930 . S
C1074 C1073 1.400 . S
C1074 C1077 1.386 . S
H1075 C1091 0.930 . S
H1076 C1092 0.931 . S
C1077 H1065 0.929 . S
C1077 C1071 1.390 . S
C1077 C1074 1.386 . S
C1078 C1073 1.490 . S
C1078 C1080 1.395 . S
C1078 C1081 1.403 . S
H1079 C1085 0.930 . S
C1080 H1066 0.930 . S
C1080 C1078 1.395 . S
C1080 C1083 1.403 . S
C1081 C1078 1.403 . S
C1081 C1082 1.524 . S
C1081 C1085 1.400 . S
C1082 H1067 0.960 . S
C1082 H1068 0.960 . S
C1082 H1069 0.960 . S
C1082 C1081 1.524 . S
C1083 C1080 1.403 . S
C1083 C1084 1.392 . S
C1083 C1087 1.495 . S
C1084 C1083 1.392 . S
C1084 C1085 1.385 . S
C1084 C1086 1.478 . S
C1085 H1079 0.930 . S
C1085 C1081 1.400 . S
C1085 C1084 1.385 . S
C1086 C1084 1.478 . S
C1086 C1088 1.381 . S
C1086 C1092 1.383 . S
C1087 C1083 1.495 . S
C1087 H1093 0.959 . S
C1087 H1094 0.961 . S
C1087 H1095 0.960 . S
C1088 C1086 1.381 . S
C1088 C1089 1.394 . S
C1088 H1096 0.930 . S
C1089 C1088 1.394 . S
C1089 C1090 1.383 . S
C1089 H1097 0.929 . S
C1090 C1089 1.383 . S
C1090 C1091 1.377 . S
C1091 H1075 0.930 . S
C1091 C1090 1.377 . S
C1091 C1092 1.379 . S
C1092 H1076 0.931 . S
C1092 C1086 1.383 . S
C1092 C1091 1.379 . S
H1093 C1087 0.959 . S
H1094 C1087 0.961 . S
H1095 C1087 0.960 . S
H1096 C1088 0.930 . S
H1097 C1089 0.929 . S
H1098 C1106 0.929 . S
H1099 C1108 0.930 . S
H1100 C1110 0.930 . S
H1101 C1113 0.929 . S
H1102 C1116 0.930 . S
H1103 C1118 0.960 . S
H1104 C1118 0.960 . S
H1105 C1118 0.960 . S
C1106 H1098 0.929 . S
C1106 C1107 1.377 . S
C1106 C1108 1.384 . S
C1107 C1106 1.377 . S
C1107 C1113 1.390 . S
C1108 H1099 0.930 . S
C1108 C1106 1.384 . S
C1108 C1109 1.372 . S
C1109 C1108 1.372 . S
C1109 C1110 1.400 . S
C1109 C1114 1.490 . S
C1110 H1100 0.930 . S
C1110 C1109 1.400 . S
C1110 C1113 1.386 . S
H1111 C1127 0.930 . S
H1112 C1128 0.931 . S
C1113 H1101 0.929 . S
C1113 C1107 1.390 . S
C1113 C1110 1.386 . S
C1114 C1109 1.490 . S
C1114 C1116 1.395 . S
C1114 C1117 1.403 . S
H1115 C1121 0.930 . S
C1116 H1102 0.930 . S
C1116 C1114 1.395 . S
C1116 C1119 1.403 . S
C1117 C1114 1.403 . S
C1117 C1118 1.524 . S
C1117 C1121 1.400 . S
C1118 H1103 0.960 . S
C1118 H1104 0.960 . S
C1118 H1105 0.960 . S
C1118 C1117 1.524 . S
C1119 C1116 1.403 . S
C1119 C1120 1.392 . S
C1119 C1123 1.495 . S
C1120 C1119 1.392 . S
C1120 C1121 1.385 . S
C1120 C1122 1.478 . S
C1121 H1115 0.930 . S
C1121 C1117 1.400 . S
C1121 C1120 1.385 . S
C1122 C1120 1.478 . S
C1122 C1124 1.381 . S
C1122 C1128 1.383 . S
C1123 C1119 1.495 . S
C1123 H1129 0.959 . S
C1123 H1130 0.961 . S
C1123 H1131 0.960 . S
C1124 C1122 1.381 . S
C1124 C1125 1.394 . S
C1124 H1132 0.930 . S
C1125 C1124 1.394 . S
C1125 C1126 1.383 . S
C1125 H1133 0.929 . S
C1126 C1125 1.383 . S
C1126 C1127 1.377 . S
C1127 H1111 0.930 . S
C1127 C1126 1.377 . S
C1127 C1128 1.379 . S
C1128 H1112 0.931 . S
C1128 C1122 1.383 . S
C1128 C1127 1.379 . S
H1129 C1123 0.959 . S
H1130 C1123 0.961 . S
H1131 C1123 0.960 . S
H1132 C1124 0.930 . S
H1133 C1125 0.929 . S
H1134 C1142 0.929 . S
H1135 C1144 0.930 . S
H1136 C1146 0.930 . S
H1137 C1149 0.929 . S
H1138 C1152 0.930 . S
H1139 C1154 0.960 . S
H1140 C1154 0.960 . S
H1141 C1154 0.960 . S
C1142 H1134 0.929 . S
C1142 C1143 1.377 . S
C1142 C1144 1.384 . S
C1143 C1142 1.377 . S
C1143 C1149 1.390 . S
C1144 H1135 0.930 . S
C1144 C1142 1.384 . S
C1144 C1145 1.372 . S
C1145 C1144 1.372 . S
C1145 C1146 1.400 . S
C1145 C1150 1.490 . S
C1146 H1136 0.930 . S
C1146 C1145 1.400 . S
C1146 C1149 1.386 . S
H1147 C1163 0.930 . S
H1148 C1164 0.931 . S
C1149 H1137 0.929 . S
C1149 C1143 1.390 . S
C1149 C1146 1.386 . S
C1150 C1145 1.490 . S
C1150 C1152 1.395 . S
C1150 C1153 1.403 . S
H1151 C1157 0.930 . S
C1152 H1138 0.930 . S
C1152 C1150 1.395 . S
C1152 C1155 1.403 . S
C1153 C1150 1.403 . S
C1153 C1154 1.524 . S
C1153 C1157 1.400 . S
C1154 H1139 0.960 . S
C1154 H1140 0.960 . S
C1154 H1141 0.960 . S
C1154 C1153 1.524 . S
C1155 C1152 1.403 . S
C1155 C1156 1.392 . S
C1155 C1159 1.495 . S
C1156 C1155 1.392 . S
C1156 C1157 1.385 . S
C1156 C1158 1.478 . S
C1157 H1151 0.930 . S
C1157 C1153 1.400 . S
C1157 C1156 1.385 . S
C1158 C1156 1.478 . S
C1158 C1160 1.381 . S
C1158 C1164 1.383 . S
C1159 C1155 1.495 . S
C1159 H1165 0.959 . S
C1159 H1166 0.961 . S
C1159 H1167 0.960 . S
C1160 C1158 1.381 . S
C1160 C1161 1.394 . S
C1160 H1168 0.930 . S
C1161 C1160 1.394 . S
C1161 C1162 1.383 . S
C1161 H1169 0.929 . S
C1162 C1161 1.383 . S
C1162 C1163 1.377 . S
C1163 H1147 0.930 . S
C1163 C1162 1.377 . S
C1163 C1164 1.379 . S
C1164 H1148 0.931 . S
C1164 C1158 1.383 . S
C1164 C1163 1.379 . S
H1165 C1159 0.959 . S
H1166 C1159 0.961 . S
H1167 C1159 0.960 . S
H1168 C1160 0.930 . S
H1169 C1161 0.929 . S
H1170 C1178 0.929 . S
H1171 C1180 0.930 . S
H1172 C1182 0.930 . S
H1173 C1185 0.929 . S
H1174 C1188 0.930 . S
H1175 C1190 0.960 . S
H1176 C1190 0.960 . S
H1177 C1190 0.960 . S
C1178 H1170 0.929 . S
C1178 C1179 1.377 . S
C1178 C1180 1.384 . S
C1179 C1178 1.377 . S
C1179 C1185 1.390 . S
C1180 H1171 0.930 . S
C1180 C1178 1.384 . S
C1180 C1181 1.372 . S
C1181 C1180 1.372 . S
C1181 C1182 1.400 . S
C1181 C1186 1.490 . S
C1182 H1172 0.930 . S
C1182 C1181 1.400 . S
C1182 C1185 1.386 . S
H1183 C1199 0.930 . S
H1184 C1200 0.931 . S
C1185 H1173 0.929 . S
C1185 C1179 1.390 . S
C1185 C1182 1.386 . S
C1186 C1181 1.490 . S
C1186 C1188 1.395 . S
C1186 C1189 1.403 . S
H1187 C1193 0.930 . S
C1188 H1174 0.930 . S
C1188 C1186 1.395 . S
C1188 C1191 1.403 . S
C1189 C1186 1.403 . S
C1189 C1190 1.524 . S
C1189 C1193 1.400 . S
C1190 H1175 0.960 . S
C1190 H1176 0.960 . S
C1190 H1177 0.960 . S
C1190 C1189 1.524 . S
C1191 C1188 1.403 . S
C1191 C1192 1.392 . S
C1191 C1195 1.495 . S
C1192 C1191 1.392 . S
C1192 C1193 1.385 . S
C1192 C1194 1.478 . S
C1193 H1187 0.930 . S
C1193 C1189 1.400 . S
C1193 C1192 1.385 . S
C1194 C1192 1.478 . S
C1194 C1196 1.381 . S
C1194 C1200 1.383 . S
C1195 C1191 1.495 . S
C1195 H1201 0.959 . S
C1195 H1202 0.961 . S
C1195 H1203 0.960 . S
C1196 C1194 1.381 . S
C1196 C1197 1.394 . S
C1196 H1204 0.930 . S
C1197 C1196 1.394 . S
C1197 C1198 1.383 . S
C1197 H1205 0.929 . S
C1198 C1197 1.383 . S
C1198 C1199 1.377 . S
C1199 H1183 0.930 . S
C1199 C1198 1.377 . S
C1199 C1200 1.379 . S
C1200 H1184 0.931 . S
C1200 C1194 1.383 . S
C1200 C1199 1.379 . S
H1201 C1195 0.959 . S
H1202 C1195 0.961 . S
H1203 C1195 0.960 . S
H1204 C1196 0.930 . S
H1205 C1197 0.929 . S
H1206 C1214 0.929 . S
H1207 C1216 0.930 . S
H1208 C1218 0.930 . S
H1209 C1221 0.929 . S
H1210 C1224 0.930 . S
H1211 C1226 0.960 . S
H1212 C1226 0.960 . S
H1213 C1226 0.960 . S
C1214 H1206 0.929 . S
C1214 C1215 1.377 . S
C1214 C1216 1.384 . S
C1215 C1214 1.377 . S
C1215 C1221 1.390 . S
C1216 H1207 0.930 . S
C1216 C1214 1.384 . S
C1216 C1217 1.372 . S
C1217 C1216 1.372 . S
C1217 C1218 1.400 . S
C1217 C1222 1.490 . S
C1218 H1208 0.930 . S
C1218 C1217 1.400 . S
C1218 C1221 1.386 . S
H1219 C1235 0.930 . S
H1220 C1236 0.931 . S
C1221 H1209 0.929 . S
C1221 C1215 1.390 . S
C1221 C1218 1.386 . S
C1222 C1217 1.490 . S
C1222 C1224 1.395 . S
C1222 C1225 1.403 . S
H1223 C1229 0.930 . S
C1224 H1210 0.930 . S
C1224 C1222 1.395 . S
C1224 C1227 1.403 . S
C1225 C1222 1.403 . S
C1225 C1226 1.524 . S
C1225 C1229 1.400 . S
C1226 H1211 0.960 . S
C1226 H1212 0.960 . S
C1226 H1213 0.960 . S
C1226 C1225 1.524 . S
C1227 C1224 1.403 . S
C1227 C1228 1.392 . S
C1227 C1231 1.495 . S
C1228 C1227 1.392 . S
C1228 C1229 1.385 . S
C1228 C1230 1.478 . S
C1229 H1223 0.930 . S
C1229 C1225 1.400 . S
C1229 C1228 1.385 . S
C1230 C1228 1.478 . S
C1230 C1232 1.381 . S
C1230 C1236 1.383 . S
C1231 C1227 1.495 . S
C1231 H1237 0.959 . S
C1231 H1238 0.961 . S
C1231 H1239 0.960 . S
C1232 C1230 1.381 . S
C1232 C1233 1.394 . S
C1232 H1240 0.930 . S
C1233 C1232 1.394 . S
C1233 C1234 1.383 . S
C1233 H1241 0.929 . S
C1234 C1233 1.383 . S
C1234 C1235 1.377 . S
C1235 H1219 0.930 . S
C1235 C1234 1.377 . S
C1235 C1236 1.379 . S
C1236 H1220 0.931 . S
C1236 C1230 1.383 . S
C1236 C1235 1.379 . S
H1237 C1231 0.959 . S
H1238 C1231 0.961 . S
H1239 C1231 0.960 . S
H1240 C1232 0.930 . S
H1241 C1233 0.929 . S
H1242 C1250 0.929 . S
H1243 C1252 0.930 . S
H1244 C1254 0.930 . S
H1245 C1257 0.929 . S
H1246 C1260 0.930 . S
H1247 C1262 0.960 . S
H1248 C1262 0.960 . S
H1249 C1262 0.960 . S
C1250 H1242 0.929 . S
C1250 C1251 1.377 . S
C1250 C1252 1.384 . S
C1251 C1250 1.377 . S
C1251 C1257 1.390 . S
C1252 H1243 0.930 . S
C1252 C1250 1.384 . S
C1252 C1253 1.372 . S
C1253 C1252 1.372 . S
C1253 C1254 1.400 . S
C1253 C1258 1.490 . S
C1254 H1244 0.930 . S
C1254 C1253 1.400 . S
C1254 C1257 1.386 . S
H1255 C1271 0.930 . S
H1256 C1272 0.931 . S
C1257 H1245 0.929 . S
C1257 C1251 1.390 . S
C1257 C1254 1.386 . S
C1258 C1253 1.490 . S
C1258 C1260 1.395 . S
C1258 C1261 1.403 . S
H1259 C1265 0.930 . S
C1260 H1246 0.930 . S
C1260 C1258 1.395 . S
C1260 C1263 1.403 . S
C1261 C1258 1.403 . S
C1261 C1262 1.524 . S
C1261 C1265 1.400 . S
C1262 H1247 0.960 . S
C1262 H1248 0.960 . S
C1262 H1249 0.960 . S
C1262 C1261 1.524 . S
C1263 C1260 1.403 . S
C1263 C1264 1.392 . S
C1263 C1267 1.495 . S
C1264 C1263 1.392 . S
C1264 C1265 1.385 . S
C1264 C1266 1.478 . S
C1265 H1259 0.930 . S
C1265 C1261 1.400 . S
C1265 C1264 1.385 . S
C1266 C1264 1.478 . S
C1266 C1268 1.381 . S
C1266 C1272 1.383 . S
C1267 C1263 1.495 . S
C1267 H1273 0.959 . S
C1267 H1274 0.961 . S
C1267 H1275 0.960 . S
C1268 C1266 1.381 . S
C1268 C1269 1.394 . S
C1268 H1276 0.930 . S
C1269 C1268 1.394 . S
C1269 C1270 1.383 . S
C1269 H1277 0.929 . S
C1270 C1269 1.383 . S
C1270 C1271 1.377 . S
C1271 H1255 0.930 . S
C1271 C1270 1.377 . S
C1271 C1272 1.379 . S
C1272 H1256 0.931 . S
C1272 C1266 1.383 . S
C1272 C1271 1.379 . S
H1273 C1267 0.959 . S
H1274 C1267 0.961 . S
H1275 C1267 0.960 . S
H1276 C1268 0.930 . S
H1277 C1269 0.929 . S
H1278 C1286 0.929 1_455 S
H1279 C1288 0.990 . S
H1280 C1290 0.930 . S
H1281 C1293 0.929 . S
H1282 C1296 0.930 . S
H1283 C1298 0.960 . S
H1284 C1298 0.960 1_455 S
H1285 C1298 0.960 . S
C1286 H1278 0.929 1_655 S
C1286 C1287 1.377 . S
C1286 C1288 1.371 1_655 S
C1287 C1286 1.377 . S
C1287 C1293 1.390 . S
C1288 H1279 0.990 . S
C1288 C1286 1.371 1_455 S
C1288 C1289 1.327 1_455 S
C1289 C1288 1.327 1_655 S
C1289 C1290 1.400 . S
C1289 C1294 1.490 . S
C1290 H1280 0.930 . S
C1290 C1289 1.400 . S
C1290 C1293 1.386 . S
H1291 C1307 0.930 . S
H1292 C1308 0.931 . S
C1293 H1281 0.929 . S
C1293 C1287 1.390 . S
C1293 C1290 1.386 . S
C1294 C1289 1.490 . S
C1294 C1296 1.395 . S
C1294 C1297 1.403 . S
H1295 C1301 0.961 . S
C1296 H1282 0.930 . S
C1296 C1294 1.395 . S
C1296 C1299 1.403 1_654 S
C1297 C1294 1.403 . S
C1297 C1298 1.524 . S
C1297 C1301 1.401 1_654 S
C1298 H1283 0.960 . S
C1298 H1284 0.960 1_655 S
C1298 H1285 0.960 . S
C1298 C1297 1.524 . S
C1299 C1296 1.403 1_456 S
C1299 C1300 1.392 . S
C1299 C1303 1.495 . S
C1300 C1299 1.392 . S
C1300 C1301 1.382 . S
C1300 C1302 1.478 . S
C1301 H1295 0.961 . S
C1301 C1297 1.401 1_456 S
C1301 C1300 1.382 . S
C1302 C1300 1.478 . S
C1302 C1304 1.381 . S
C1302 C1308 1.383 1_455 S
C1303 C1299 1.495 . S
C1303 H1309 0.959 . S
C1303 H1310 0.961 1_455 S
C1303 H1311 0.960 . S
C1304 C1302 1.381 . S
C1304 C1305 1.394 . S
C1304 H1312 0.930 . S
C1305 C1304 1.394 . S
C1305 C1306 1.383 . S
C1305 H1313 0.929 . S
C1306 C1305 1.383 . S
C1306 C1307 1.377 1_455 S
C1307 H1291 0.930 . S
C1307 C1306 1.377 1_655 S
C1307 C1308 1.379 . S
C1308 H1292 0.931 . S
C1308 C1302 1.383 1_655 S
C1308 C1307 1.379 . S
H1309 C1303 0.959 . S
H1310 C1303 0.961 1_655 S
H1311 C1303 0.960 . S
H1312 C1304 0.930 . S
H1313 C1305 0.929 . S
H1314 C1322 0.929 . S
H1315 C1324 0.930 . S
H1316 C1326 0.930 . S
H1317 C1329 0.929 . S
H1318 C1332 0.930 . S
H1319 C1334 0.960 . S
H1320 C1334 0.960 . S
H1321 C1334 0.960 . S
C1322 H1314 0.929 . S
C1322 C1323 1.377 . S
C1322 C1324 1.384 . S
C1323 C1322 1.377 . S
C1323 C1329 1.390 . S
C1324 H1315 0.930 . S
C1324 C1322 1.384 . S
C1324 C1325 1.372 . S
C1325 C1324 1.372 . S
C1325 C1326 1.400 . S
C1325 C1330 1.490 . S
C1326 H1316 0.930 . S
C1326 C1325 1.400 . S
C1326 C1329 1.386 . S
H1327 C1343 0.930 . S
H1328 C1344 0.931 . S
C1329 H1317 0.929 . S
C1329 C1323 1.390 . S
C1329 C1326 1.386 . S
C1330 C1325 1.490 . S
C1330 C1332 1.395 . S
C1330 C1333 1.403 . S
H1331 C1337 0.930 . S
C1332 H1318 0.930 . S
C1332 C1330 1.395 . S
C1332 C1335 1.403 1_554 S
C1333 C1330 1.403 . S
C1333 C1334 1.524 . S
C1333 C1337 1.400 1_554 S
C1334 H1319 0.960 . S
C1334 H1320 0.960 . S
C1334 H1321 0.960 . S
C1334 C1333 1.524 . S
C1335 C1332 1.403 1_556 S
C1335 C1336 1.392 . S
C1335 C1339 1.495 . S
C1336 C1335 1.392 . S
C1336 C1337 1.385 . S
C1336 C1338 1.478 . S
C1337 H1331 0.930 . S
C1337 C1333 1.400 1_556 S
C1337 C1336 1.385 . S
C1338 C1336 1.478 . S
C1338 C1340 1.381 . S
C1338 C1344 1.383 . S
C1339 C1335 1.495 . S
C1339 H1345 0.959 . S
C1339 H1346 0.961 . S
C1339 H1347 0.960 . S
C1340 C1338 1.381 . S
C1340 C1341 1.394 . S
C1340 H1348 0.930 . S
C1341 C1340 1.394 . S
C1341 C1342 1.383 . S
C1341 H1349 0.929 . S
C1342 C1341 1.383 . S
C1342 C1343 1.377 . S
C1343 H1327 0.930 . S
C1343 C1342 1.377 . S
C1343 C1344 1.379 . S
C1344 H1328 0.931 . S
C1344 C1338 1.383 . S
C1344 C1343 1.379 . S
H1345 C1339 0.959 . S
H1346 C1339 0.961 . S
H1347 C1339 0.960 . S
H1348 C1340 0.930 . S
H1349 C1341 0.929 . S
H1350 C1358 0.929 . S
H1351 C1360 0.930 . S
H1352 C1362 0.872 1_565 S
H1353 C1365 0.929 . S
H1354 C1368 0.930 . S
H1355 C1370 0.960 . S
H1356 C1370 0.960 . S
H1357 C1370 0.960 . S
C1358 H1350 0.929 . S
C1358 C1359 1.377 . S
C1358 C1360 1.384 . S
C1359 C1358 1.377 . S
C1359 C1365 1.390 . S
C1360 H1351 0.930 . S
C1360 C1358 1.384 . S
C1360 C1361 1.372 . S
C1361 C1360 1.372 . S
C1361 C1362 1.445 . S
C1361 C1366 1.490 . S
C1362 H1352 0.872 1_545 S
C1362 C1361 1.445 . S
C1362 C1365 1.400 . S
H1363 C1379 0.930 . S
H1364 C1380 0.931 . S
C1365 H1353 0.929 . S
C1365 C1359 1.390 . S
C1365 C1362 1.400 . S
C1366 C1361 1.490 . S
C1366 C1368 1.395 . S
C1366 C1369 1.403 1_545 S
H1367 C1373 0.930 . S
C1368 H1354 0.930 . S
C1368 C1366 1.395 . S
C1368 C1371 1.403 1_554 S
C1369 C1366 1.403 1_565 S
C1369 C1370 1.524 . S
C1369 C1373 1.400 1_554 S
C1370 H1355 0.960 . S
C1370 H1356 0.960 . S
C1370 H1357 0.960 . S
C1370 C1369 1.524 . S
C1371 C1368 1.403 1_556 S
C1371 C1372 1.392 1_545 S
C1371 C1375 1.495 . S
C1372 C1371 1.392 1_565 S
C1372 C1373 1.385 . S
C1372 C1374 1.478 . S
C1373 H1367 0.930 . S
C1373 C1369 1.400 1_556 S
C1373 C1372 1.385 . S
C1374 C1372 1.478 . S
C1374 C1376 1.381 . S
C1374 C1380 1.383 . S
C1375 C1371 1.495 . S
C1375 H1381 0.959 . S
C1375 H1382 0.961 . S
C1375 H1383 0.960 . S
C1376 C1374 1.381 . S
C1376 C1377 1.394 . S
C1376 H1384 0.930 1_565 S
C1377 C1376 1.394 . S
C1377 C1378 1.383 . S
C1377 H1385 0.929 . S
C1378 C1377 1.383 . S
C1378 C1379 1.377 . S
C1379 H1363 0.930 . S
C1379 C1378 1.377 . S
C1379 C1380 1.379 . S
C1380 H1364 0.931 . S
C1380 C1374 1.383 . S
C1380 C1379 1.379 . S
H1381 C1375 0.959 . S
H1382 C1375 0.961 . S
H1383 C1375 0.960 . S
H1384 C1376 0.930 1_545 S
H1385 C1377 0.929 . S
H1386 C1394 0.929 . S
H1387 C1396 0.930 . S
H1388 C1398 0.930 . S
H1389 C1401 0.929 . S
H1390 C1404 0.930 . S
H1391 C1406 0.960 . S
H1392 C1406 0.960 . S
H1393 C1406 0.960 . S
C1394 H1386 0.929 . S
C1394 C1395 1.377 . S
C1394 C1396 1.384 . S
C1395 C1394 1.377 . S
C1395 C1401 1.390 . S
C1396 H1387 0.930 . S
C1396 C1394 1.384 . S
C1396 C1397 1.372 . S
C1397 C1396 1.372 . S
C1397 C1398 1.400 . S
C1397 C1402 1.490 . S
C1398 H1388 0.930 . S
C1398 C1397 1.400 . S
C1398 C1401 1.386 . S
H1399 C1415 0.930 . S
H1400 C1416 0.931 . S
C1401 H1389 0.929 . S
C1401 C1395 1.390 . S
C1401 C1398 1.386 . S
C1402 C1397 1.490 . S
C1402 C1404 1.395 . S
C1402 C1405 1.403 . S
H1403 C1409 0.930 . S
C1404 H1390 0.930 . S
C1404 C1402 1.395 . S
C1404 C1407 1.403 . S
C1405 C1402 1.403 . S
C1405 C1406 1.524 . S
C1405 C1409 1.400 . S
C1406 H1391 0.960 . S
C1406 H1392 0.960 . S
C1406 H1393 0.960 . S
C1406 C1405 1.524 . S
C1407 C1404 1.403 . S
C1407 C1408 1.392 . S
C1407 C1411 1.495 . S
C1408 C1407 1.392 . S
C1408 C1409 1.385 . S
C1408 C1410 1.478 . S
C1409 H1403 0.930 . S
C1409 C1405 1.400 . S
C1409 C1408 1.385 . S
C1410 C1408 1.478 . S
C1410 C1412 1.381 . S
C1410 C1416 1.383 . S
C1411 C1407 1.495 . S
C1411 H1417 0.959 . S
C1411 H1418 0.961 . S
C1411 H1419 0.960 . S
C1412 C1410 1.381 . S
C1412 C1413 1.394 . S
C1412 H1420 0.930 . S
C1413 C1412 1.394 . S
C1413 C1414 1.383 . S
C1413 H1421 0.929 . S
C1414 C1413 1.383 . S
C1414 C1415 1.377 . S
C1415 H1399 0.930 . S
C1415 C1414 1.377 . S
C1415 C1416 1.379 . S
C1416 H1400 0.931 . S
C1416 C1410 1.383 . S
C1416 C1415 1.379 . S
H1417 C1411 0.959 . S
H1418 C1411 0.961 . S
H1419 C1411 0.960 . S
H1420 C1412 0.930 . S
H1421 C1413 0.929 . S
H1422 C1430 0.929 . S
H1423 C1432 0.930 . S
H1424 C1434 0.930 . S
H1425 C1437 0.929 . S
H1426 C1440 0.930 . S
H1427 C1442 0.960 . S
H1428 C1442 0.960 . S
H1429 C1442 0.960 . S
C1430 H1422 0.929 . S
C1430 C1431 1.377 . S
C1430 C1432 1.384 . S
C1431 C1430 1.377 . S
C1431 C1437 1.390 . S
C1432 H1423 0.930 . S
C1432 C1430 1.384 . S
C1432 C1433 1.372 . S
C1433 C1432 1.372 . S
C1433 C1434 1.400 . S
C1433 C1438 1.490 . S
C1434 H1424 0.930 . S
C1434 C1433 1.400 . S
C1434 C1437 1.386 . S
H1435 C1451 0.930 . S
H1436 C1452 0.931 . S
C1437 H1425 0.929 . S
C1437 C1431 1.390 . S
C1437 C1434 1.386 . S
C1438 C1433 1.490 . S
C1438 C1440 1.395 . S
C1438 C1441 1.403 . S
H1439 C1445 0.930 . S
C1440 H1426 0.930 . S
C1440 C1438 1.395 . S
C1440 C1443 1.403 . S
C1441 C1438 1.403 . S
C1441 C1442 1.524 . S
C1441 C1445 1.400 . S
C1442 H1427 0.960 . S
C1442 H1428 0.960 . S
C1442 H1429 0.960 . S
C1442 C1441 1.524 . S
C1443 C1440 1.403 . S
C1443 C1444 1.392 . S
C1443 C1447 1.495 . S
C1444 C1443 1.392 . S
C1444 C1445 1.385 . S
C1444 C1446 1.478 . S
C1445 H1439 0.930 . S
C1445 C1441 1.400 . S
C1445 C1444 1.385 . S
C1446 C1444 1.478 . S
C1446 C1448 1.381 . S
C1446 C1452 1.383 . S
C1447 C1443 1.495 . S
C1447 H1453 0.959 . S
C1447 H1454 0.961 . S
C1447 H1455 0.960 . S
C1448 C1446 1.381 . S
C1448 C1449 1.394 . S
C1448 H1456 0.930 . S
C1449 C1448 1.394 . S
C1449 C1450 1.383 . S
C1449 H1457 0.929 . S
C1450 C1449 1.383 . S
C1450 C1451 1.377 . S
C1451 H1435 0.930 . S
C1451 C1450 1.377 . S
C1451 C1452 1.379 . S
C1452 H1436 0.931 . S
C1452 C1446 1.383 . S
C1452 C1451 1.379 . S
H1453 C1447 0.959 . S
H1454 C1447 0.961 . S
H1455 C1447 0.960 . S
H1456 C1448 0.930 . S
H1457 C1449 0.929 . S
H1458 C1466 0.929 . S
H1459 C1468 0.930 . S
H1460 C1470 0.930 . S
H1461 C1473 0.929 . S
H1462 C1476 0.930 . S
H1463 C1478 0.960 . S
H1464 C1478 0.960 . S
H1465 C1478 0.960 . S
C1466 H1458 0.929 . S
C1466 C1467 1.377 . S
C1466 C1468 1.384 . S
C1467 C1466 1.377 . S
C1467 C1473 1.390 . S
C1468 H1459 0.930 . S
C1468 C1466 1.384 . S
C1468 C1469 1.372 . S
C1469 C1468 1.372 . S
C1469 C1470 1.400 . S
C1469 C1474 1.490 . S
C1470 H1460 0.930 . S
C1470 C1469 1.400 . S
C1470 C1473 1.386 . S
H1471 C1487 0.930 . S
H1472 C1488 0.931 . S
C1473 H1461 0.929 . S
C1473 C1467 1.390 . S
C1473 C1470 1.386 . S
C1474 C1469 1.490 . S
C1474 C1476 1.395 . S
C1474 C1477 1.403 . S
H1475 C1481 0.930 . S
C1476 H1462 0.930 . S
C1476 C1474 1.395 . S
C1476 C1479 1.403 . S
C1477 C1474 1.403 . S
C1477 C1478 1.524 . S
C1477 C1481 1.400 . S
C1478 H1463 0.960 . S
C1478 H1464 0.960 . S
C1478 H1465 0.960 . S
C1478 C1477 1.524 . S
C1479 C1476 1.403 . S
C1479 C1480 1.392 . S
C1479 C1483 1.495 . S
C1480 C1479 1.392 . S
C1480 C1481 1.385 . S
C1480 C1482 1.478 . S
C1481 H1475 0.930 . S
C1481 C1477 1.400 . S
C1481 C1480 1.385 . S
C1482 C1480 1.478 . S
C1482 C1484 1.381 . S
C1482 C1488 1.383 . S
C1483 C1479 1.495 . S
C1483 H1489 0.959 . S
C1483 H1490 0.961 . S
C1483 H1491 0.960 . S
C1484 C1482 1.381 . S
C1484 C1485 1.394 . S
C1484 H1492 0.930 . S
C1485 C1484 1.394 . S
C1485 C1486 1.383 . S
C1485 H1493 0.929 . S
C1486 C1485 1.383 . S
C1486 C1487 1.377 . S
C1487 H1471 0.930 . S
C1487 C1486 1.377 . S
C1487 C1488 1.379 . S
C1488 H1472 0.931 . S
C1488 C1482 1.383 . S
C1488 C1487 1.379 . S
H1489 C1483 0.959 . S
H1490 C1483 0.961 . S
H1491 C1483 0.960 . S
H1492 C1484 0.930 . S
H1493 C1485 0.929 . S
H1494 C1502 0.929 . S
H1495 C1504 0.930 . S
H1496 C1506 0.930 . S
H1497 C1509 0.929 . S
H1498 C1512 0.930 . S
H1499 C1514 0.960 . S
H1500 C1514 0.960 . S
H1501 C1514 0.960 . S
C1502 H1494 0.929 . S
C1502 C1503 1.377 . S
C1502 C1504 1.384 . S
C1503 C1502 1.377 . S
C1503 C1509 1.390 . S
C1504 H1495 0.930 . S
C1504 C1502 1.384 . S
C1504 C1505 1.372 . S
C1505 C1504 1.372 . S
C1505 C1506 1.400 . S
C1505 C1510 1.490 . S
C1506 H1496 0.930 . S
C1506 C1505 1.400 . S
C1506 C1509 1.386 . S
H1507 C1523 0.930 . S
H1508 C1524 0.931 . S
C1509 H1497 0.929 . S
C1509 C1503 1.390 . S
C1509 C1506 1.386 . S
C1510 C1505 1.490 . S
C1510 C1512 1.395 . S
C1510 C1513 1.403 . S
H1511 C1517 0.930 . S
C1512 H1498 0.930 . S
C1512 C1510 1.395 . S
C1512 C1515 1.403 . S
C1513 C1510 1.403 . S
C1513 C1514 1.524 . S
C1513 C1517 1.400 . S
C1514 H1499 0.960 . S
C1514 H1500 0.960 . S
C1514 H1501 0.960 . S
C1514 C1513 1.524 . S
C1515 C1512 1.403 . S
C1515 C1516 1.392 . S
C1515 C1519 1.495 . S
C1516 C1515 1.392 . S
C1516 C1517 1.385 . S
C1516 C1518 1.478 . S
C1517 H1511 0.930 . S
C1517 C1513 1.400 . S
C1517 C1516 1.385 . S
C1518 C1516 1.478 . S
C1518 C1520 1.381 . S
C1518 C1524 1.383 . S
C1519 C1515 1.495 . S
C1519 H1525 0.959 . S
C1519 H1526 0.961 . S
C1519 H1527 0.960 . S
C1520 C1518 1.381 . S
C1520 C1521 1.394 . S
C1520 H1528 0.930 . S
C1521 C1520 1.394 . S
C1521 C1522 1.383 . S
C1521 H1529 0.929 . S
C1522 C1521 1.383 . S
C1522 C1523 1.377 . S
C1523 H1507 0.930 . S
C1523 C1522 1.377 . S
C1523 C1524 1.379 . S
C1524 H1508 0.931 . S
C1524 C1518 1.383 . S
C1524 C1523 1.379 . S
H1525 C1519 0.959 . S
H1526 C1519 0.961 . S
H1527 C1519 0.960 . S
H1528 C1520 0.930 . S
H1529 C1521 0.929 . S
H1530 C1538 0.929 . S
H1531 C1540 0.930 . S
H1532 C1542 0.930 . S
H1533 C1545 0.929 . S
H1534 C1548 0.930 . S
H1535 C1550 0.960 . S
H1536 C1550 0.960 . S
H1537 C1550 0.960 . S
C1538 H1530 0.929 . S
C1538 C1539 1.377 . S
C1538 C1540 1.384 . S
C1539 C1538 1.377 . S
C1539 C1545 1.390 . S
C1540 H1531 0.930 . S
C1540 C1538 1.384 . S
C1540 C1541 1.372 . S
C1541 C1540 1.372 . S
C1541 C1542 1.400 . S
C1541 C1546 1.490 . S
C1542 H1532 0.930 . S
C1542 C1541 1.400 . S
C1542 C1545 1.386 . S
H1543 C1559 0.930 . S
H1544 C1560 0.931 . S
C1545 H1533 0.929 . S
C1545 C1539 1.390 . S
C1545 C1542 1.386 . S
C1546 C1541 1.490 . S
C1546 C1548 1.395 . S
C1546 C1549 1.403 . S
H1547 C1553 0.930 . S
C1548 H1534 0.930 . S
C1548 C1546 1.395 . S
C1548 C1551 1.403 . S
C1549 C1546 1.403 . S
C1549 C1550 1.524 . S
C1549 C1553 1.400 . S
C1550 H1535 0.960 . S
C1550 H1536 0.960 . S
C1550 H1537 0.960 . S
C1550 C1549 1.524 . S
C1551 C1548 1.403 . S
C1551 C1552 1.392 . S
C1551 C1555 1.495 . S
C1552 C1551 1.392 . S
C1552 C1553 1.385 . S
C1552 C1554 1.478 . S
C1553 H1547 0.930 . S
C1553 C1549 1.400 . S
C1553 C1552 1.385 . S
C1554 C1552 1.478 . S
C1554 C1556 1.381 . S
C1554 C1560 1.383 . S
C1555 C1551 1.495 . S
C1555 H1561 0.959 . S
C1555 H1562 0.961 . S
C1555 H1563 0.960 . S
C1556 C1554 1.381 . S
C1556 C1557 1.394 . S
C1556 H1564 0.930 . S
C1557 C1556 1.394 . S
C1557 C1558 1.383 . S
C1557 H1565 0.929 . S
C1558 C1557 1.383 . S
C1558 C1559 1.377 . S
C1559 H1543 0.930 . S
C1559 C1558 1.377 . S
C1559 C1560 1.379 . S
C1560 H1544 0.931 . S
C1560 C1554 1.383 . S
C1560 C1559 1.379 . S
H1561 C1555 0.959 . S
H1562 C1555 0.961 . S
H1563 C1555 0.960 . S
H1564 C1556 0.930 . S
H1565 C1557 0.929 . S
H1566 C1574 0.929 . S
H1567 C1576 0.930 . S
H1568 C1578 0.930 . S
H1569 C1581 0.929 . S
H1570 C1584 0.930 . S
H1571 C1586 0.960 . S
H1572 C1586 0.960 . S
H1573 C1586 0.960 . S
C1574 H1566 0.929 . S
C1574 C1575 1.377 . S
C1574 C1576 1.384 . S
C1575 C1574 1.377 . S
C1575 C1581 1.390 . S
C1576 H1567 0.930 . S
C1576 C1574 1.384 . S
C1576 C1577 1.372 . S
C1577 C1576 1.372 . S
C1577 C1578 1.400 . S
C1577 C1582 1.490 . S
C1578 H1568 0.930 . S
C1578 C1577 1.400 . S
C1578 C1581 1.386 . S
H1579 C1595 0.930 . S
H1580 C1596 0.931 . S
C1581 H1569 0.929 . S
C1581 C1575 1.390 . S
C1581 C1578 1.386 . S
C1582 C1577 1.490 . S
C1582 C1584 1.395 . S
C1582 C1585 1.403 . S
H1583 C1589 0.930 . S
C1584 H1570 0.930 . S
C1584 C1582 1.395 . S
C1584 C1587 1.403 . S
C1585 C1582 1.403 . S
C1585 C1586 1.524 . S
C1585 C1589 1.400 . S
C1586 H1571 0.960 . S
C1586 H1572 0.960 . S
C1586 H1573 0.960 . S
C1586 C1585 1.524 . S
C1587 C1584 1.403 . S
C1587 C1588 1.392 . S
C1587 C1591 1.495 . S
C1588 C1587 1.392 . S
C1588 C1589 1.385 . S
C1588 C1590 1.478 . S
C1589 H1583 0.930 . S
C1589 C1585 1.400 . S
C1589 C1588 1.385 . S
C1590 C1588 1.478 . S
C1590 C1592 1.381 . S
C1590 C1596 1.383 . S
C1591 C1587 1.495 . S
C1591 H1597 0.959 . S
C1591 H1598 0.961 . S
C1591 H1599 0.960 . S
C1592 C1590 1.381 . S
C1592 C1593 1.394 . S
C1592 H1600 0.930 . S
C1593 C1592 1.394 . S
C1593 C1594 1.383 . S
C1593 H1601 0.929 . S
C1594 C1593 1.383 . S
C1594 C1595 1.377 . S
C1595 H1579 0.930 . S
C1595 C1594 1.377 . S
C1595 C1596 1.379 . S
C1596 H1580 0.931 . S
C1596 C1590 1.383 . S
C1596 C1595 1.379 . S
H1597 C1591 0.959 . S
H1598 C1591 0.961 . S
H1599 C1591 0.960 . S
H1600 C1592 0.930 . S
H1601 C1593 0.929 . S
H1602 C1610 0.929 1_455 S
H1603 C1612 0.926 1_455 S
H1604 C1614 0.930 . S
H1605 C1617 0.929 . S
H1606 C1620 0.930 . S
H1607 C1622 0.960 . S
H1608 C1622 0.960 . S
H1609 C1622 0.960 . S
C1610 H1602 0.929 1_655 S
C1610 C1611 1.377 . S
C1610 C1612 1.385 . S
C1611 C1610 1.377 . S
C1611 C1617 1.390 . S
C1612 H1603 0.926 1_655 S
C1612 C1610 1.385 . S
C1612 C1613 1.375 . S
C1613 C1612 1.375 . S
C1613 C1614 1.400 . S
C1613 C1618 1.490 . S
C1614 H1604 0.930 . S
C1614 C1613 1.400 . S
C1614 C1617 1.386 . S
H1615 C1631 0.930 1_655 S
H1616 C1632 0.998 . S
C1617 H1605 0.929 . S
C1617 C1611 1.390 . S
C1617 C1614 1.386 . S
C1618 C1613 1.490 . S
C1618 C1620 1.395 1_655 S
C1618 C1621 1.403 . S
H1619 C1625 0.930 . S
C1620 H1606 0.930 . S
C1620 C1618 1.395 1_455 S
C1620 C1623 1.403 . S
C1621 C1618 1.403 . S
C1621 C1622 1.524 . S
C1621 C1625 1.400 . S
C1622 H1607 0.960 . S
C1622 H1608 0.960 . S
C1622 H1609 0.960 . S
C1622 C1621 1.524 . S
C1623 C1620 1.403 . S
C1623 C1624 1.392 . S
C1623 C1627 1.495 . S
C1624 C1623 1.392 . S
C1624 C1625 1.385 1_455 S
C1624 C1626 1.478 . S
C1625 H1619 0.930 . S
C1625 C1621 1.400 . S
C1625 C1624 1.385 1_655 S
C1626 C1624 1.478 . S
C1626 C1628 1.381 . S
C1626 C1632 1.331 1_455 S
C1627 C1623 1.495 . S
C1627 H1633 0.959 . S
C1627 H1634 0.961 . S
C1627 H1635 0.960 . S
C1628 C1626 1.381 . S
C1628 C1629 1.394 . S
C1628 H1636 0.930 . S
C1629 C1628 1.394 . S
C1629 C1630 1.383 . S
C1629 H1637 0.929 . S
C1630 C1629 1.383 . S
C1630 C1631 1.377 . S
C1631 H1615 0.930 1_455 S
C1631 C1630 1.377 . S
C1631 C1632 1.368 1_455 S
C1632 H1616 0.998 . S
C1632 C1626 1.331 1_655 S
C1632 C1631 1.368 1_655 S
H1633 C1627 0.959 . S
H1634 C1627 0.961 . S
H1635 C1627 0.960 . S
H1636 C1628 0.930 . S
H1637 C1629 0.929 . S
H1638 C1646 0.929 . S
H1639 C1648 0.930 . S
H1640 C1650 0.930 . S
H1641 C1653 0.929 . S
H1642 C1656 0.930 . S
H1643 C1658 0.960 . S
H1644 C1658 0.960 . S
H1645 C1658 0.960 . S
C1646 H1638 0.929 . S
C1646 C1647 1.377 . S
C1646 C1648 1.384 . S
C1647 C1646 1.377 . S
C1647 C1653 1.390 . S
C1648 H1639 0.930 . S
C1648 C1646 1.384 . S
C1648 C1649 1.372 . S
C1649 C1648 1.372 . S
C1649 C1650 1.400 . S
C1649 C1654 1.490 . S
C1650 H1640 0.930 . S
C1650 C1649 1.400 . S
C1650 C1653 1.386 . S
H1651 C1667 0.930 . S
H1652 C1668 0.931 . S
C1653 H1641 0.929 . S
C1653 C1647 1.390 . S
C1653 C1650 1.386 . S
C1654 C1649 1.490 . S
C1654 C1656 1.395 . S
C1654 C1657 1.403 . S
H1655 C1661 0.930 . S
C1656 H1642 0.930 . S
C1656 C1654 1.395 . S
C1656 C1659 1.403 . S
C1657 C1654 1.403 . S
C1657 C1658 1.524 . S
C1657 C1661 1.400 . S
C1658 H1643 0.960 . S
C1658 H1644 0.960 . S
C1658 H1645 0.960 . S
C1658 C1657 1.524 . S
C1659 C1656 1.403 . S
C1659 C1660 1.392 . S
C1659 C1663 1.495 . S
C1660 C1659 1.392 . S
C1660 C1661 1.385 . S
C1660 C1662 1.478 . S
C1661 H1655 0.930 . S
C1661 C1657 1.400 . S
C1661 C1660 1.385 . S
C1662 C1660 1.478 . S
C1662 C1664 1.381 . S
C1662 C1668 1.383 . S
C1663 C1659 1.495 . S
C1663 H1669 0.959 . S
C1663 H1670 0.961 . S
C1663 H1671 0.960 . S
C1664 C1662 1.381 . S
C1664 C1665 1.394 . S
C1664 H1672 0.930 . S
C1665 C1664 1.394 . S
C1665 C1666 1.383 . S
C1665 H1673 0.929 . S
C1666 C1665 1.383 . S
C1666 C1667 1.377 . S
C1667 H1651 0.930 . S
C1667 C1666 1.377 . S
C1667 C1668 1.379 . S
C1668 H1652 0.931 . S
C1668 C1662 1.383 . S
C1668 C1667 1.379 . S
H1669 C1663 0.959 . S
H1670 C1663 0.961 . S
H1671 C1663 0.960 . S
H1672 C1664 0.930 . S
H1673 C1665 0.929 . S
H1674 C1682 0.929 . S
H1675 C1684 0.930 . S
H1676 C1686 0.930 . S
H1677 C1689 0.929 . S
H1678 C1692 0.930 . S
H1679 C1694 0.960 . S
H1680 C1694 0.960 . S
H1681 C1694 0.960 . S
C1682 H1674 0.929 . S
C1682 C1683 1.377 . S
C1682 C1684 1.384 . S
C1683 C1682 1.377 . S
C1683 C1689 1.390 . S
C1684 H1675 0.930 . S
C1684 C1682 1.384 . S
C1684 C1685 1.372 . S
C1685 C1684 1.372 . S
C1685 C1686 1.400 . S
C1685 C1690 1.490 . S
C1686 H1676 0.930 . S
C1686 C1685 1.400 . S
C1686 C1689 1.386 . S
H1687 C1703 0.930 . S
H1688 C1704 0.931 . S
C1689 H1677 0.929 . S
C1689 C1683 1.390 . S
C1689 C1686 1.386 . S
C1690 C1685 1.490 . S
C1690 C1692 1.395 1_565 S
C1690 C1693 1.403 . S
H1691 C1697 0.930 . S
C1692 H1678 0.930 . S
C1692 C1690 1.395 1_545 S
C1692 C1695 1.403 . S
C1693 C1690 1.403 . S
C1693 C1694 1.524 . S
C1693 C1697 1.400 . S
C1694 H1679 0.960 . S
C1694 H1680 0.960 . S
C1694 H1681 0.960 . S
C1694 C1693 1.524 . S
C1695 C1692 1.403 . S
C1695 C1696 1.392 . S
C1695 C1699 1.495 . S
C1696 C1695 1.392 . S
C1696 C1697 1.385 1_545 S
C1696 C1698 1.478 . S
C1697 H1691 0.930 . S
C1697 C1693 1.400 . S
C1697 C1696 1.385 1_565 S
C1698 C1696 1.478 . S
C1698 C1700 1.381 . S
C1698 C1704 1.383 . S
C1699 C1695 1.495 . S
C1699 H1705 0.959 . S
C1699 H1706 0.961 . S
C1699 H1707 0.960 . S
C1700 C1698 1.381 . S
C1700 C1701 1.394 . S
C1700 H1708 0.930 1_545 S
C1701 C1700 1.394 . S
C1701 C1702 1.383 . S
C1701 H1709 0.929 . S
C1702 C1701 1.383 . S
C1702 C1703 1.377 . S
C1703 H1687 0.930 . S
C1703 C1702 1.377 . S
C1703 C1704 1.379 . S
C1704 H1688 0.931 . S
C1704 C1698 1.383 . S
C1704 C1703 1.379 . S
H1705 C1699 0.959 . S
H1706 C1699 0.961 . S
H1707 C1699 0.960 . S
H1708 C1700 0.930 1_565 S
H1709 C1701 0.929 . S
H1710 C1718 0.929 1_556 S
H1711 C1720 0.930 . S
H1712 C1722 0.930 . S
H1713 C1725 0.929 . S
H1714 C1728 0.930 . S
H1715 C1730 0.960 . S
H1716 C1730 0.960 1_556 S
H1717 C1730 0.960 . S
C1718 H1710 0.929 1_554 S
C1718 C1719 1.377 . S
C1718 C1720 1.384 1_554 S
C1719 C1718 1.377 . S
C1719 C1725 1.390 . S
C1720 H1711 0.930 . S
C1720 C1718 1.384 1_556 S
C1720 C1721 1.372 1_556 S
C1721 C1720 1.372 1_554 S
C1721 C1722 1.400 . S
C1721 C1726 1.490 . S
C1722 H1712 0.930 . S
C1722 C1721 1.400 . S
C1722 C1725 1.386 . S
H1723 C1739 0.925 1_554 S
H1724 C1740 0.931 . S
C1725 H1713 0.929 . S
C1725 C1719 1.390 . S
C1725 C1722 1.386 . S
C1726 C1721 1.490 . S
C1726 C1728 1.394 . S
C1726 C1729 1.403 . S
H1727 C1733 0.930 . S
C1728 H1714 0.930 . S
C1728 C1726 1.394 . S
C1728 C1731 1.404 1_554 S
C1729 C1726 1.403 . S
C1729 C1730 1.524 . S
C1729 C1733 1.400 1_554 S
C1730 H1715 0.960 . S
C1730 H1716 0.960 1_554 S
C1730 H1717 0.960 . S
C1730 C1729 1.524 . S
C1731 C1728 1.404 1_556 S
C1731 C1732 1.392 . S
C1731 C1735 1.495 . S
C1732 C1731 1.392 . S
C1732 C1733 1.385 . S
C1732 C1734 1.478 . S
C1733 H1727 0.930 . S
C1733 C1729 1.400 1_556 S
C1733 C1732 1.385 . S
C1734 C1732 1.478 . S
C1734 C1736 1.381 . S
C1734 C1740 1.383 1_556 S
C1735 C1731 1.495 . S
C1735 H1741 0.959 . S
C1735 H1742 0.961 1_556 S
C1735 H1743 0.960 . S
C1736 C1734 1.381 . S
C1736 C1737 1.394 . S
C1736 H1744 0.930 . S
C1737 C1736 1.394 . S
C1737 C1738 1.383 . S
C1737 H1745 0.929 . S
C1738 C1737 1.383 . S
C1738 C1739 1.382 . S
C1739 H1723 0.925 1_556 S
C1739 C1738 1.382 . S
C1739 C1740 1.378 1_556 S
C1740 H1724 0.931 . S
C1740 C1734 1.383 1_554 S
C1740 C1739 1.378 1_554 S
H1741 C1735 0.959 . S
H1742 C1735 0.961 1_554 S
H1743 C1735 0.960 . S
H1744 C1736 0.930 . S
H1745 C1737 0.929 . S
H1746 C1754 0.929 . S
H1747 C1756 0.930 1_554 S
H1748 C1758 0.930 . S
H1749 C1761 0.929 . S
H1750 C1764 0.930 . S
H1751 C1766 0.960 1_565 S
H1752 C1766 0.960 . S
H1753 C1766 0.960 . S
C1754 H1746 0.929 . S
C1754 C1755 1.377 . S
C1754 C1756 1.384 . S
C1755 C1754 1.377 . S
C1755 C1761 1.390 . S
C1756 H1747 0.930 1_556 S
C1756 C1754 1.384 . S
C1756 C1757 1.372 . S
C1757 C1756 1.372 . S
C1757 C1758 1.400 . S
C1757 C1762 1.490 . S
C1758 H1748 0.930 . S
C1758 C1757 1.400 . S
C1758 C1761 1.386 . S
H1759 C1775 0.930 . S
H1760 C1776 0.931 . S
C1761 H1749 0.929 . S
C1761 C1755 1.390 . S
C1761 C1758 1.386 . S
C1762 C1757 1.490 . S
C1762 C1764 1.395 1_556 S
C1762 C1765 1.403 . S
H1763 C1769 0.930 . S
C1764 H1750 0.930 . S
C1764 C1762 1.395 1_554 S
C1764 C1767 1.403 1_545 S
C1765 C1762 1.403 . S
C1765 C1766 1.524 . S
C1765 C1769 1.400 1_545 S
C1766 H1751 0.960 1_545 S
C1766 H1752 0.960 . S
C1766 H1753 0.960 . S
C1766 C1765 1.524 . S
C1767 C1764 1.403 1_565 S
C1767 C1768 1.392 . S
C1767 C1771 1.495 . S
C1768 C1767 1.392 . S
C1768 C1769 1.385 1_554 S
C1768 C1770 1.478 . S
C1769 H1763 0.930 . S
C1769 C1765 1.400 1_565 S
C1769 C1768 1.385 1_556 S
C1770 C1768 1.478 . S
C1770 C1772 1.381 . S
C1770 C1776 1.383 . S
C1771 C1767 1.495 . S
C1771 H1777 0.949 1_565 S
C1771 H1778 0.961 . S
C1771 H1779 0.960 . S
C1772 C1770 1.381 . S
C1772 C1773 1.394 . S
C1772 H1780 0.930 . S
C1773 C1772 1.394 . S
C1773 C1774 1.383 . S
C1773 H1781 0.929 . S
C1774 C1773 1.383 . S
C1774 C1775 1.377 . S
C1775 H1759 0.930 . S
C1775 C1774 1.377 . S
C1775 C1776 1.379 . S
C1776 H1760 0.931 . S
C1776 C1770 1.383 . S
C1776 C1775 1.379 . S
H1777 C1771 0.949 1_545 S
H1778 C1771 0.961 . S
H1779 C1771 0.960 . S
H1780 C1772 0.930 . S
H1781 C1773 0.929 . S
H1782 C1790 0.929 . S
H1783 C1792 0.930 . S
H1784 C1794 0.930 . S
H1785 C1797 0.929 . S
H1786 C1800 0.930 . S
H1787 C1802 0.960 . S
H1788 C1802 0.960 . S
H1789 C1802 0.960 . S
C1790 H1782 0.929 . S
C1790 C1791 1.377 . S
C1790 C1792 1.384 . S
C1791 C1790 1.377 . S
C1791 C1797 1.390 . S
C1792 H1783 0.930 . S
C1792 C1790 1.384 . S
C1792 C1793 1.372 . S
C1793 C1792 1.372 . S
C1793 C1794 1.400 . S
C1793 C1798 1.490 . S
C1794 H1784 0.930 . S
C1794 C1793 1.400 . S
C1794 C1797 1.386 . S
H1795 C1811 0.930 . S
H1796 C1812 0.931 . S
C1797 H1785 0.929 . S
C1797 C1791 1.390 . S
C1797 C1794 1.386 . S
C1798 C1793 1.490 . S
C1798 C1800 1.395 1_556 S
C1798 C1801 1.403 . S
H1799 C1805 0.930 . S
C1800 H1786 0.930 . S
C1800 C1798 1.395 1_554 S
C1800 C1803 1.403 1_655 S
C1801 C1798 1.403 . S
C1801 C1802 1.524 . S
C1801 C1805 1.400 1_655 S
C1802 H1787 0.960 . S
C1802 H1788 0.960 . S
C1802 H1789 0.960 . S
C1802 C1801 1.524 . S
C1803 C1800 1.403 1_455 S
C1803 C1804 1.392 . S
C1803 C1807 1.495 . S
C1804 C1803 1.392 . S
C1804 C1805 1.385 1_554 S
C1804 C1806 1.478 . S
C1805 H1799 0.930 . S
C1805 C1801 1.400 1_455 S
C1805 C1804 1.385 1_556 S
C1806 C1804 1.478 . S
C1806 C1808 1.381 . S
C1806 C1812 1.383 . S
C1807 C1803 1.495 . S
C1807 H1813 0.959 1_455 S
C1807 H1814 0.961 . S
C1807 H1815 0.960 . S
C1808 C1806 1.381 . S
C1808 C1809 1.394 . S
C1808 H1816 0.930 . S
C1809 C1808 1.394 . S
C1809 C1810 1.383 . S
C1809 H1817 0.929 . S
C1810 C1809 1.383 . S
C1810 C1811 1.377 . S
C1811 H1795 0.930 . S
C1811 C1810 1.377 . S
C1811 C1812 1.379 . S
C1812 H1796 0.931 . S
C1812 C1806 1.383 . S
C1812 C1811 1.379 . S
H1813 C1807 0.959 1_655 S
H1814 C1807 0.961 . S
H1815 C1807 0.960 . S
H1816 C1808 0.930 . S
H1817 C1809 0.929 . S
H1818 C1826 0.929 . S
H1819 C1828 0.930 . S
H1820 C1830 0.928 1_554 S
H1821 C1833 0.929 1_554 S
H1822 C1836 0.930 . S
H1823 C1838 0.960 . S
H1824 C1838 0.960 . S
H1825 C1838 0.960 . S
C1826 H1818 0.929 . S
C1826 C1827 1.377 . S
C1826 C1828 1.384 . S
C1827 C1826 1.377 . S
C1827 C1833 1.390 . S
C1828 H1819 0.930 . S
C1828 C1826 1.384 . S
C1828 C1829 1.372 . S
C1829 C1828 1.372 . S
C1829 C1830 1.401 . S
C1829 C1834 1.490 . S
C1830 H1820 0.928 1_556 S
C1830 C1829 1.401 . S
C1830 C1833 1.386 . S
H1831 C1847 0.930 . S
H1832 C1848 0.931 . S
C1833 H1821 0.929 1_556 S
C1833 C1827 1.390 . S
C1833 C1830 1.386 . S
C1834 C1829 1.490 . S
C1834 C1836 1.395 . S
C1834 C1837 1.403 1_556 S
H1835 C1841 0.930 . S
C1836 H1822 0.930 . S
C1836 C1834 1.395 . S
C1836 C1839 1.403 . S
C1837 C1834 1.403 1_554 S
C1837 C1838 1.524 . S
C1837 C1841 1.400 . S
C1838 H1823 0.960 . S
C1838 H1824 0.960 . S
C1838 H1825 0.960 . S
C1838 C1837 1.524 . S
C1839 C1836 1.403 . S
C1839 C1840 1.392 1_556 S
C1839 C1843 1.495 . S
C1840 C1839 1.392 1_554 S
C1840 C1841 1.385 . S
C1840 C1842 1.478 . S
C1841 H1835 0.930 . S
C1841 C1837 1.400 . S
C1841 C1840 1.385 . S
C1842 C1840 1.478 . S
C1842 C1844 1.381 1_554 S
C1842 C1848 1.383 . S
C1843 C1839 1.495 . S
C1843 H1849 0.959 . S
C1843 H1850 0.961 . S
C1843 H1851 0.960 . S
C1844 C1842 1.381 1_556 S
C1844 C1845 1.394 1_556 S
C1844 H1852 0.930 . S
C1845 C1844 1.394 1_554 S
C1845 C1846 1.383 . S
C1845 H1853 0.929 1_554 S
C1846 C1845 1.383 . S
C1846 C1847 1.377 . S
C1847 H1831 0.930 . S
C1847 C1846 1.377 . S
C1847 C1848 1.379 . S
C1848 H1832 0.931 . S
C1848 C1842 1.383 . S
C1848 C1847 1.379 . S
H1849 C1843 0.959 . S
H1850 C1843 0.961 . S
H1851 C1843 0.960 . S
H1852 C1844 0.930 . S
H1853 C1845 0.929 1_556 S
H1854 C1862 0.929 . S
H1855 C1864 0.930 1_556 S
H1856 C1866 0.930 . S
H1857 C1869 0.929 . S
H1858 C1872 0.930 . S
H1859 C1874 0.960 . S
H1860 C1874 0.960 . S
H1861 C1874 0.960 . S
C1862 H1854 0.929 . S
C1862 C1863 1.377 . S
C1862 C1864 1.384 . S
C1863 C1862 1.377 . S
C1863 C1869 1.390 . S
C1864 H1855 0.930 1_554 S
C1864 C1862 1.384 . S
C1864 C1865 1.372 . S
C1865 C1864 1.372 . S
C1865 C1866 1.400 . S
C1865 C1870 1.490 . S
C1866 H1856 0.930 . S
C1866 C1865 1.400 . S
C1866 C1869 1.386 . S
H1867 C1883 0.932 . S
H1868 C1884 0.926 1_554 S
C1869 H1857 0.929 . S
C1869 C1863 1.390 . S
C1869 C1866 1.386 . S
C1870 C1865 1.490 . S
C1870 C1872 1.395 . S
C1870 C1873 1.403 1_554 S
H1871 C1877 0.930 . S
C1872 H1858 0.930 . S
C1872 C1870 1.395 . S
C1872 C1875 1.403 1_565 S
C1873 C1870 1.403 1_556 S
C1873 C1874 1.524 . S
C1873 C1877 1.400 1_565 S
C1874 H1859 0.960 . S
C1874 H1860 0.960 . S
C1874 H1861 0.960 . S
C1874 C1873 1.524 . S
C1875 C1872 1.403 1_545 S
C1875 C1876 1.392 1_554 S
C1875 C1879 1.495 . S
C1876 C1875 1.392 1_556 S
C1876 C1877 1.385 . S
C1876 C1878 1.478 . S
C1877 H1871 0.930 . S
C1877 C1873 1.400 1_545 S
C1877 C1876 1.385 . S
C1878 C1876 1.478 . S
C1878 C1880 1.381 . S
C1878 C1884 1.386 . S
C1879 C1875 1.495 . S
C1879 H1885 0.959 . S
C1879 H1886 0.961 . S
C1879 H1887 0.960 . S
C1880 C1878 1.381 . S
C1880 C1881 1.394 . S
C1880 H1888 0.930 . S
C1881 C1880 1.394 . S
C1881 C1882 1.383 . S
C1881 H1889 0.929 . S
C1882 C1881 1.383 . S
C1882 C1883 1.377 . S
C1883 H1867 0.932 . S
C1883 C1882 1.377 . S
C1883 C1884 1.382 . S
C1884 H1868 0.926 1_556 S
C1884 C1878 1.386 . S
C1884 C1883 1.382 . S
H1885 C1879 0.959 . S
H1886 C1879 0.961 . S
H1887 C1879 0.960 . S
H1888 C1880 0.930 . S
H1889 C1881 0.929 . S
H1890 C1898 0.929 1_554 S
H1891 C1900 0.930 . S
H1892 C1902 0.930 . S
H1893 C1905 0.929 . S
H1894 C1908 0.929 1_556 S
H1895 C1910 0.960 . S
H1896 C1910 0.960 1_554 S
H1897 C1910 0.960 . S
C1898 H1890 0.929 1_556 S
C1898 C1899 1.377 . S
C1898 C1900 1.384 1_556 S
C1899 C1898 1.377 . S
C1899 C1905 1.390 . S
C1900 H1891 0.930 . S
C1900 C1898 1.384 1_554 S
C1900 C1901 1.372 1_554 S
C1901 C1900 1.372 1_556 S
C1901 C1902 1.400 . S
C1901 C1906 1.490 . S
C1902 H1892 0.930 . S
C1902 C1901 1.400 . S
C1902 C1905 1.386 . S
H1903 C1919 0.930 1_556 S
H1904 C1920 0.931 . S
C1905 H1893 0.929 . S
C1905 C1899 1.390 . S
C1905 C1902 1.386 . S
C1906 C1901 1.490 . S
C1906 C1908 1.391 1_556 S
C1906 C1909 1.403 . S
H1907 C1913 0.930 . S
C1908 H1894 0.929 1_554 S
C1908 C1906 1.391 1_554 S
C1908 C1911 1.408 1_655 S
C1909 C1906 1.403 . S
C1909 C1910 1.524 . S
C1909 C1913 1.400 1_656 S
C1910 H1895 0.960 . S
C1910 H1896 0.960 1_556 S
C1910 H1897 0.960 . S
C1910 C1909 1.524 . S
C1911 C1908 1.408 1_455 S
C1911 C1912 1.392 . S
C1911 C1915 1.495 . S
C1912 C1911 1.392 . S
C1912 C1913 1.385 . S
C1912 C1914 1.478 . S
C1913 H1907 0.930 . S
C1913 C1909 1.400 1_454 S
C1913 C1912 1.385 . S
C1914 C1912 1.478 . S
C1914 C1916 1.381 . S
C1914 C1920 1.383 1_554 S
C1915 C1911 1.495 . S
C1915 H1921 0.959 . S
C1915 H1922 0.961 1_554 S
C1915 H1923 0.960 . S
C1916 C1914 1.381 . S
C1916 C1917 1.394 . S
C1916 H1924 0.930 . S
C1917 C1916 1.394 . S
C1917 C1918 1.383 . S
C1917 H1925 0.929 . S
C1918 C1917 1.383 . S
C1918 C1919 1.377 . S
C1919 H1903 0.930 1_554 S
C1919 C1918 1.377 . S
C1919 C1920 1.379 1_554 S
C1920 H1904 0.931 . S
C1920 C1914 1.383 1_556 S
C1920 C1919 1.379 1_556 S
H1921 C1915 0.959 . S
H1922 C1915 0.961 1_556 S
H1923 C1915 0.960 . S
H1924 C1916 0.930 . S
H1925 C1917 0.929 . S
H1926 C1934 0.929 . S
H1927 C1936 0.930 . S
H1928 C1938 0.930 . S
H1929 C1941 0.929 . S
H1930 C1944 0.930 . S
H1931 C1946 0.960 . S
H1932 C1946 0.960 . S
H1933 C1946 0.960 . S
C1934 H1926 0.929 . S
C1934 C1935 1.377 . S
C1934 C1936 1.384 . S
C1935 C1934 1.377 . S
C1935 C1941 1.390 . S
C1936 H1927 0.930 . S
C1936 C1934 1.384 . S
C1936 C1937 1.372 . S
C1937 C1936 1.372 . S
C1937 C1938 1.400 . S
C1937 C1942 1.490 . S
C1938 H1928 0.930 . S
C1938 C1937 1.400 . S
C1938 C1941 1.386 . S
H1939 C1955 0.930 . S
H1940 C1956 0.931 . S
C1941 H1929 0.929 . S
C1941 C1935 1.390 . S
C1941 C1938 1.386 . S
C1942 C1937 1.490 . S
C1942 C1944 1.395 . S
C1942 C1945 1.403 . S
H1943 C1949 0.930 . S
C1944 H1930 0.930 . S
C1944 C1942 1.395 . S
C1944 C1947 1.403 . S
C1945 C1942 1.403 . S
C1945 C1946 1.524 . S
C1945 C1949 1.400 . S
C1946 H1931 0.960 . S
C1946 H1932 0.960 . S
C1946 H1933 0.960 . S
C1946 C1945 1.524 . S
C1947 C1944 1.403 . S
C1947 C1948 1.392 . S
C1947 C1951 1.495 . S
C1948 C1947 1.392 . S
C1948 C1949 1.385 . S
C1948 C1950 1.478 . S
C1949 H1943 0.930 . S
C1949 C1945 1.400 . S
C1949 C1948 1.385 . S
C1950 C1948 1.478 . S
C1950 C1952 1.381 . S
C1950 C1956 1.383 . S
C1951 C1947 1.495 . S
C1951 H1957 0.959 . S
C1951 H1958 0.961 . S
C1951 H1959 0.960 . S
C1952 C1950 1.381 . S
C1952 C1953 1.394 . S
C1952 H1960 0.930 . S
C1953 C1952 1.394 . S
C1953 C1954 1.383 . S
C1953 H1961 0.929 . S
C1954 C1953 1.383 . S
C1954 C1955 1.377 . S
C1955 H1939 0.930 . S
C1955 C1954 1.377 . S
C1955 C1956 1.379 . S
C1956 H1940 0.931 . S
C1956 C1950 1.383 . S
C1956 C1955 1.379 . S
H1957 C1951 0.959 . S
H1958 C1951 0.961 . S
H1959 C1951 0.960 . S
H1960 C1952 0.930 . S
H1961 C1953 0.929 . S
H1962 C1970 0.929 . S
H1963 C1972 0.930 . S
H1964 C1974 0.930 . S
H1965 C1977 0.929 . S
H1966 C1980 0.930 . S
H1967 C1982 0.960 . S
H1968 C1982 0.960 . S
H1969 C1982 0.960 . S
C1970 H1962 0.929 . S
C1970 C1971 1.377 . S
C1970 C1972 1.384 . S
C1971 C1970 1.377 . S
C1971 C1977 1.390 . S
C1972 H1963 0.930 . S
C1972 C1970 1.384 . S
C1972 C1973 1.372 . S
C1973 C1972 1.372 . S
C1973 C1974 1.400 . S
C1973 C1978 1.490 . S
C1974 H1964 0.930 . S
C1974 C1973 1.400 . S
C1974 C1977 1.386 . S
H1975 C1991 0.930 . S
H1976 C1992 0.931 . S
C1977 H1965 0.929 . S
C1977 C1971 1.390 . S
C1977 C1974 1.386 . S
C1978 C1973 1.490 . S
C1978 C1980 1.395 . S
C1978 C1981 1.403 . S
H1979 C1985 0.930 . S
C1980 H1966 0.930 . S
C1980 C1978 1.395 . S
C1980 C1983 1.403 . S
C1981 C1978 1.403 . S
C1981 C1982 1.524 . S
C1981 C1985 1.400 . S
C1982 H1967 0.960 . S
C1982 H1968 0.960 . S
C1982 H1969 0.960 . S
C1982 C1981 1.524 . S
C1983 C1980 1.403 . S
C1983 C1984 1.392 . S
C1983 C1987 1.495 . S
C1984 C1983 1.392 . S
C1984 C1985 1.385 . S
C1984 C1986 1.478 . S
C1985 H1979 0.930 . S
C1985 C1981 1.400 . S
C1985 C1984 1.385 . S
C1986 C1984 1.478 . S
C1986 C1988 1.381 . S
C1986 C1992 1.383 . S
C1987 C1983 1.495 . S
C1987 H1993 0.959 . S
C1987 H1994 0.961 . S
C1987 H1995 0.960 . S
C1988 C1986 1.381 . S
C1988 C1989 1.394 . S
C1988 H1996 0.930 . S
C1989 C1988 1.394 . S
C1989 C1990 1.383 . S
C1989 H1997 0.929 . S
C1990 C1989 1.383 . S
C1990 C1991 1.377 . S
C1991 H1975 0.930 . S
C1991 C1990 1.377 . S
C1991 C1992 1.379 . S
C1992 H1976 0.931 . S
C1992 C1986 1.383 . S
C1992 C1991 1.379 . S
H1993 C1987 0.959 . S
H1994 C1987 0.961 . S
H1995 C1987 0.960 . S
H1996 C1988 0.930 . S
H1997 C1989 0.929 . S
H1998 C2006 0.929 . S
H1999 C2008 0.930 . S
H2000 C2010 0.930 . S
H2001 C2013 0.929 . S
H2002 C2016 0.930 . S
H2003 C2018 0.960 . S
H2004 C2018 0.960 . S
H2005 C2018 0.960 . S
C2006 H1998 0.929 . S
C2006 C2007 1.377 . S
C2006 C2008 1.384 . S
C2007 C2006 1.377 . S
C2007 C2013 1.390 . S
C2008 H1999 0.930 . S
C2008 C2006 1.384 . S
C2008 C2009 1.372 . S
C2009 C2008 1.372 . S
C2009 C2010 1.400 . S
C2009 C2014 1.490 . S
C2010 H2000 0.930 . S
C2010 C2009 1.400 . S
C2010 C2013 1.386 . S
H2011 C2027 0.930 . S
H2012 C2028 0.931 . S
C2013 H2001 0.929 . S
C2013 C2007 1.390 . S
C2013 C2010 1.386 . S
C2014 C2009 1.490 . S
C2014 C2016 1.395 . S
C2014 C2017 1.403 . S
H2015 C2021 0.930 . S
C2016 H2002 0.930 . S
C2016 C2014 1.395 . S
C2016 C2019 1.403 . S
C2017 C2014 1.403 . S
C2017 C2018 1.524 . S
C2017 C2021 1.400 . S
C2018 H2003 0.960 . S
C2018 H2004 0.960 . S
C2018 H2005 0.960 . S
C2018 C2017 1.524 . S
C2019 C2016 1.403 . S
C2019 C2020 1.392 . S
C2019 C2023 1.495 . S
C2020 C2019 1.392 . S
C2020 C2021 1.385 . S
C2020 C2022 1.478 . S
C2021 H2015 0.930 . S
C2021 C2017 1.400 . S
C2021 C2020 1.385 . S
C2022 C2020 1.478 . S
C2022 C2024 1.381 . S
C2022 C2028 1.383 . S
C2023 C2019 1.495 . S
C2023 H2029 0.959 . S
C2023 H2030 0.961 . S
C2023 H2031 0.960 . S
C2024 C2022 1.381 . S
C2024 C2025 1.394 . S
C2024 H2032 0.930 . S
C2025 C2024 1.394 . S
C2025 C2026 1.383 . S
C2025 H2033 0.929 . S
C2026 C2025 1.383 . S
C2026 C2027 1.377 . S
C2027 H2011 0.930 . S
C2027 C2026 1.377 . S
C2027 C2028 1.379 . S
C2028 H2012 0.931 . S
C2028 C2022 1.383 . S
C2028 C2027 1.379 . S
H2029 C2023 0.959 . S
H2030 C2023 0.961 . S
H2031 C2023 0.960 . S
H2032 C2024 0.930 . S
H2033 C2025 0.929 . S
H2034 C2042 0.929 . S
H2035 C2044 0.930 . S
H2036 C2046 0.930 . S
H2037 C2049 0.929 . S
H2038 C2052 0.930 . S
H2039 C2054 0.960 . S
H2040 C2054 0.960 . S
H2041 C2054 0.960 . S
C2042 H2034 0.929 . S
C2042 C2043 1.377 . S
C2042 C2044 1.384 . S
C2043 C2042 1.377 . S
C2043 C2049 1.390 . S
C2044 H2035 0.930 . S
C2044 C2042 1.384 . S
C2044 C2045 1.372 . S
C2045 C2044 1.372 . S
C2045 C2046 1.400 . S
C2045 C2050 1.490 . S
C2046 H2036 0.930 . S
C2046 C2045 1.400 . S
C2046 C2049 1.386 . S
H2047 C2063 0.930 . S
H2048 C2064 0.931 . S
C2049 H2037 0.929 . S
C2049 C2043 1.390 . S
C2049 C2046 1.386 . S
C2050 C2045 1.490 . S
C2050 C2052 1.395 . S
C2050 C2053 1.403 . S
H2051 C2057 0.930 . S
C2052 H2038 0.930 . S
C2052 C2050 1.395 . S
C2052 C2055 1.403 . S
C2053 C2050 1.403 . S
C2053 C2054 1.524 . S
C2053 C2057 1.400 . S
C2054 H2039 0.960 . S
C2054 H2040 0.960 . S
C2054 H2041 0.960 . S
C2054 C2053 1.524 . S
C2055 C2052 1.403 . S
C2055 C2056 1.392 . S
C2055 C2059 1.495 . S
C2056 C2055 1.392 . S
C2056 C2057 1.385 . S
C2056 C2058 1.478 . S
C2057 H2051 0.930 . S
C2057 C2053 1.400 . S
C2057 C2056 1.385 . S
C2058 C2056 1.478 . S
C2058 C2060 1.381 . S
C2058 C2064 1.383 . S
C2059 C2055 1.495 . S
C2059 H2065 0.959 . S
C2059 H2066 0.961 . S
C2059 H2067 0.960 . S
C2060 C2058 1.381 . S
C2060 C2061 1.394 . S
C2060 H2068 0.930 . S
C2061 C2060 1.394 . S
C2061 C2062 1.383 . S
C2061 H2069 0.929 . S
C2062 C2061 1.383 . S
C2062 C2063 1.377 . S
C2063 H2047 0.930 . S
C2063 C2062 1.377 . S
C2063 C2064 1.379 . S
C2064 H2048 0.931 . S
C2064 C2058 1.383 . S
C2064 C2063 1.379 . S
H2065 C2059 0.959 . S
H2066 C2059 0.961 . S
H2067 C2059 0.960 . S
H2068 C2060 0.930 . S
H2069 C2061 0.929 . S
H2070 C2078 0.929 . S
H2071 C2080 0.930 . S
H2072 C2082 0.930 . S
H2073 C2085 0.929 . S
H2074 C2088 0.930 . S
H2075 C2090 0.960 . S
H2076 C2090 0.960 . S
H2077 C2090 0.960 . S
C2078 H2070 0.929 . S
C2078 C2079 1.377 . S
C2078 C2080 1.384 . S
C2079 C2078 1.377 . S
C2079 C2085 1.390 . S
C2080 H2071 0.930 . S
C2080 C2078 1.384 . S
C2080 C2081 1.372 . S
C2081 C2080 1.372 . S
C2081 C2082 1.400 . S
C2081 C2086 1.490 . S
C2082 H2072 0.930 . S
C2082 C2081 1.400 . S
C2082 C2085 1.386 . S
H2083 C2099 0.930 . S
H2084 C2100 0.931 . S
C2085 H2073 0.929 . S
C2085 C2079 1.390 . S
C2085 C2082 1.386 . S
C2086 C2081 1.490 . S
C2086 C2088 1.395 . S
C2086 C2089 1.403 . S
H2087 C2093 0.930 . S
C2088 H2074 0.930 . S
C2088 C2086 1.395 . S
C2088 C2091 1.403 . S
C2089 C2086 1.403 . S
C2089 C2090 1.524 . S
C2089 C2093 1.400 . S
C2090 H2075 0.960 . S
C2090 H2076 0.960 . S
C2090 H2077 0.960 . S
C2090 C2089 1.524 . S
C2091 C2088 1.403 . S
C2091 C2092 1.392 . S
C2091 C2095 1.495 . S
C2092 C2091 1.392 . S
C2092 C2093 1.385 . S
C2092 C2094 1.478 . S
C2093 H2087 0.930 . S
C2093 C2089 1.400 . S
C2093 C2092 1.385 . S
C2094 C2092 1.478 . S
C2094 C2096 1.381 . S
C2094 C2100 1.383 . S
C2095 C2091 1.495 . S
C2095 H2101 0.959 . S
C2095 H2102 0.961 . S
C2095 H2103 0.960 . S
C2096 C2094 1.381 . S
C2096 C2097 1.394 . S
C2096 H2104 0.930 . S
C2097 C2096 1.394 . S
C2097 C2098 1.383 . S
C2097 H2105 0.929 . S
C2098 C2097 1.383 . S
C2098 C2099 1.377 . S
C2099 H2083 0.930 . S
C2099 C2098 1.377 . S
C2099 C2100 1.379 . S
C2100 H2084 0.931 . S
C2100 C2094 1.383 . S
C2100 C2099 1.379 . S
H2101 C2095 0.959 . S
H2102 C2095 0.961 . S
H2103 C2095 0.960 . S
H2104 C2096 0.930 . S
H2105 C2097 0.929 . S
H2106 C2114 0.929 . S
H2107 C2116 0.930 . S
H2108 C2118 0.930 . S
H2109 C2121 0.929 . S
H2110 C2124 0.930 . S
H2111 C2126 0.960 . S
H2112 C2126 0.960 . S
H2113 C2126 0.960 . S
C2114 H2106 0.929 . S
C2114 C2115 1.377 . S
C2114 C2116 1.384 . S
C2115 C2114 1.377 . S
C2115 C2121 1.390 . S
C2116 H2107 0.930 . S
C2116 C2114 1.384 . S
C2116 C2117 1.372 . S
C2117 C2116 1.372 . S
C2117 C2118 1.400 . S
C2117 C2122 1.490 . S
C2118 H2108 0.930 . S
C2118 C2117 1.400 . S
C2118 C2121 1.386 . S
H2119 C2135 0.930 . S
H2120 C2136 0.931 . S
C2121 H2109 0.929 . S
C2121 C2115 1.390 . S
C2121 C2118 1.386 . S
C2122 C2117 1.490 . S
C2122 C2124 1.395 . S
C2122 C2125 1.403 . S
H2123 C2129 0.930 . S
C2124 H2110 0.930 . S
C2124 C2122 1.395 . S
C2124 C2127 1.403 . S
C2125 C2122 1.403 . S
C2125 C2126 1.524 . S
C2125 C2129 1.400 . S
C2126 H2111 0.960 . S
C2126 H2112 0.960 . S
C2126 H2113 0.960 . S
C2126 C2125 1.524 . S
C2127 C2124 1.403 . S
C2127 C2128 1.392 . S
C2127 C2131 1.495 . S
C2128 C2127 1.392 . S
C2128 C2129 1.385 . S
C2128 C2130 1.478 . S
C2129 H2123 0.930 . S
C2129 C2125 1.400 . S
C2129 C2128 1.385 . S
C2130 C2128 1.478 . S
C2130 C2132 1.381 . S
C2130 C2136 1.383 . S
C2131 C2127 1.495 . S
C2131 H2137 0.959 . S
C2131 H2138 0.961 . S
C2131 H2139 0.960 . S
C2132 C2130 1.381 . S
C2132 C2133 1.394 . S
C2132 H2140 0.930 . S
C2133 C2132 1.394 . S
C2133 C2134 1.383 . S
C2133 H2141 0.929 . S
C2134 C2133 1.383 . S
C2134 C2135 1.377 . S
C2135 H2119 0.930 . S
C2135 C2134 1.377 . S
C2135 C2136 1.379 . S
C2136 H2120 0.931 . S
C2136 C2130 1.383 . S
C2136 C2135 1.379 . S
H2137 C2131 0.959 . S
H2138 C2131 0.961 . S
H2139 C2131 0.960 . S
H2140 C2132 0.930 . S
H2141 C2133 0.929 . S
H2142 C2150 0.929 . S
H2143 C2152 0.930 . S
H2144 C2154 0.930 . S
H2145 C2157 0.929 . S
H2146 C2160 0.930 . S
H2147 C2162 0.960 . S
H2148 C2162 0.960 . S
H2149 C2162 0.960 . S
C2150 H2142 0.929 . S
C2150 C2151 1.377 . S
C2150 C2152 1.384 . S
C2151 C2150 1.377 . S
C2151 C2157 1.390 . S
C2152 H2143 0.930 . S
C2152 C2150 1.384 . S
C2152 C2153 1.372 . S
C2153 C2152 1.372 . S
C2153 C2154 1.400 . S
C2153 C2158 1.490 . S
C2154 H2144 0.930 . S
C2154 C2153 1.400 . S
C2154 C2157 1.386 . S
H2155 C2171 0.930 . S
H2156 C2172 0.931 . S
C2157 H2145 0.929 . S
C2157 C2151 1.390 . S
C2157 C2154 1.386 . S
C2158 C2153 1.490 . S
C2158 C2160 1.395 . S
C2158 C2161 1.403 . S
H2159 C2165 0.930 . S
C2160 H2146 0.930 . S
C2160 C2158 1.395 . S
C2160 C2163 1.403 . S
C2161 C2158 1.403 . S
C2161 C2162 1.524 . S
C2161 C2165 1.400 . S
C2162 H2147 0.960 . S
C2162 H2148 0.960 . S
C2162 H2149 0.960 . S
C2162 C2161 1.524 . S
C2163 C2160 1.403 . S
C2163 C2164 1.392 . S
C2163 C2167 1.495 . S
C2164 C2163 1.392 . S
C2164 C2165 1.385 . S
C2164 C2166 1.478 . S
C2165 H2159 0.930 . S
C2165 C2161 1.400 . S
C2165 C2164 1.385 . S
C2166 C2164 1.478 . S
C2166 C2168 1.381 . S
C2166 C2172 1.383 . S
C2167 C2163 1.495 . S
C2167 H2173 0.959 . S
C2167 H2174 0.961 . S
C2167 H2175 0.960 . S
C2168 C2166 1.381 . S
C2168 C2169 1.394 . S
C2168 H2176 0.930 . S
C2169 C2168 1.394 . S
C2169 C2170 1.383 . S
C2169 H2177 0.929 . S
C2170 C2169 1.383 . S
C2170 C2171 1.377 . S
C2171 H2155 0.930 . S
C2171 C2170 1.377 . S
C2171 C2172 1.379 . S
C2172 H2156 0.931 . S
C2172 C2166 1.383 . S
C2172 C2171 1.379 . S
H2173 C2167 0.959 . S
H2174 C2167 0.961 . S
H2175 C2167 0.960 . S
H2176 C2168 0.930 . S
H2177 C2169 0.929 . S
H2178 C2186 0.929 . S
H2179 C2188 0.930 . S
H2180 C2190 0.930 . S
H2181 C2193 0.929 . S
H2182 C2196 0.930 . S
H2183 C2198 0.960 . S
H2184 C2198 0.960 . S
H2185 C2198 0.960 . S
C2186 H2178 0.929 . S
C2186 C2187 1.377 . S
C2186 C2188 1.384 . S
C2187 C2186 1.377 . S
C2187 C2193 1.390 . S
C2188 H2179 0.930 . S
C2188 C2186 1.384 . S
C2188 C2189 1.372 . S
C2189 C2188 1.372 . S
C2189 C2190 1.400 . S
C2189 C2194 1.490 . S
C2190 H2180 0.930 . S
C2190 C2189 1.400 . S
C2190 C2193 1.386 . S
H2191 C2207 0.930 . S
H2192 C2208 0.931 . S
C2193 H2181 0.929 . S
C2193 C2187 1.390 . S
C2193 C2190 1.386 . S
C2194 C2189 1.490 . S
C2194 C2196 1.395 . S
C2194 C2197 1.403 . S
H2195 C2201 0.930 . S
C2196 H2182 0.930 . S
C2196 C2194 1.395 . S
C2196 C2199 1.403 . S
C2197 C2194 1.403 . S
C2197 C2198 1.524 . S
C2197 C2201 1.400 . S
C2198 H2183 0.960 . S
C2198 H2184 0.960 . S
C2198 H2185 0.960 . S
C2198 C2197 1.524 . S
C2199 C2196 1.403 . S
C2199 C2200 1.392 . S
C2199 C2203 1.495 . S
C2200 C2199 1.392 . S
C2200 C2201 1.385 . S
C2200 C2202 1.478 . S
C2201 H2195 0.930 . S
C2201 C2197 1.400 . S
C2201 C2200 1.385 . S
C2202 C2200 1.478 . S
C2202 C2204 1.381 . S
C2202 C2208 1.383 . S
C2203 C2199 1.495 . S
C2203 H2209 0.959 . S
C2203 H2210 0.961 . S
C2203 H2211 0.960 . S
C2204 C2202 1.381 . S
C2204 C2205 1.394 . S
C2204 H2212 0.930 . S
C2205 C2204 1.394 . S
C2205 C2206 1.383 . S
C2205 H2213 0.929 . S
C2206 C2205 1.383 . S
C2206 C2207 1.377 . S
C2207 H2191 0.930 . S
C2207 C2206 1.377 . S
C2207 C2208 1.379 . S
C2208 H2192 0.931 . S
C2208 C2202 1.383 . S
C2208 C2207 1.379 . S
H2209 C2203 0.959 . S
H2210 C2203 0.961 . S
H2211 C2203 0.960 . S
H2212 C2204 0.930 . S
H2213 C2205 0.929 . S
H2214 C2222 0.929 . S
H2215 C2224 0.930 . S
H2216 C2226 0.930 . S
H2217 C2229 0.929 . S
H2218 C2232 0.930 . S
H2219 C2234 0.960 . S
H2220 C2234 0.960 . S
H2221 C2234 0.960 . S
C2222 H2214 0.929 . S
C2222 C2223 1.377 . S
C2222 C2224 1.384 . S
C2223 C2222 1.377 . S
C2223 C2229 1.390 . S
C2224 H2215 0.930 . S
C2224 C2222 1.384 . S
C2224 C2225 1.372 . S
C2225 C2224 1.372 . S
C2225 C2226 1.400 . S
C2225 C2230 1.490 . S
C2226 H2216 0.930 . S
C2226 C2225 1.400 . S
C2226 C2229 1.386 . S
H2227 C2243 0.930 . S
H2228 C2244 0.931 . S
C2229 H2217 0.929 . S
C2229 C2223 1.390 . S
C2229 C2226 1.386 . S
C2230 C2225 1.490 . S
C2230 C2232 1.395 . S
C2230 C2233 1.403 . S
H2231 C2237 0.930 . S
C2232 H2218 0.930 . S
C2232 C2230 1.395 . S
C2232 C2235 1.403 . S
C2233 C2230 1.403 . S
C2233 C2234 1.524 . S
C2233 C2237 1.400 . S
C2234 H2219 0.960 . S
C2234 H2220 0.960 . S
C2234 H2221 0.960 . S
C2234 C2233 1.524 . S
C2235 C2232 1.403 . S
C2235 C2236 1.392 . S
C2235 C2239 1.495 . S
C2236 C2235 1.392 . S
C2236 C2237 1.385 . S
C2236 C2238 1.478 . S
C2237 H2231 0.930 . S
C2237 C2233 1.400 . S
C2237 C2236 1.385 . S
C2238 C2236 1.478 . S
C2238 C2240 1.381 . S
C2238 C2244 1.383 . S
C2239 C2235 1.495 . S
C2239 H2245 0.959 . S
C2239 H2246 0.961 . S
C2239 H2247 0.960 . S
C2240 C2238 1.381 . S
C2240 C2241 1.394 . S
C2240 H2248 0.930 . S
C2241 C2240 1.394 . S
C2241 C2242 1.383 . S
C2241 H2249 0.929 . S
C2242 C2241 1.383 . S
C2242 C2243 1.377 . S
C2243 H2227 0.930 . S
C2243 C2242 1.377 . S
C2243 C2244 1.379 . S
C2244 H2228 0.931 . S
C2244 C2238 1.383 . S
C2244 C2243 1.379 . S
H2245 C2239 0.959 . S
H2246 C2239 0.961 . S
H2247 C2239 0.960 . S
H2248 C2240 0.930 . S
H2249 C2241 0.929 . S
H2250 C2258 0.929 . S
H2251 C2260 0.930 . S
H2252 C2262 0.930 . S
H2253 C2265 0.929 . S
H2254 C2268 0.930 . S
H2255 C2270 0.960 . S
H2256 C2270 0.960 . S
H2257 C2270 0.960 . S
C2258 H2250 0.929 . S
C2258 C2259 1.377 . S
C2258 C2260 1.384 . S
C2259 C2258 1.377 . S
C2259 C2265 1.390 . S
C2260 H2251 0.930 . S
C2260 C2258 1.384 . S
C2260 C2261 1.372 . S
C2261 C2260 1.372 . S
C2261 C2262 1.400 . S
C2261 C2266 1.490 . S
C2262 H2252 0.930 . S
C2262 C2261 1.400 . S
C2262 C2265 1.386 . S
H2263 C2279 0.930 . S
H2264 C2280 0.931 . S
C2265 H2253 0.929 . S
C2265 C2259 1.390 . S
C2265 C2262 1.386 . S
C2266 C2261 1.490 . S
C2266 C2268 1.395 . S
C2266 C2269 1.403 . S
H2267 C2273 0.930 . S
C2268 H2254 0.930 . S
C2268 C2266 1.395 . S
C2268 C2271 1.403 . S
C2269 C2266 1.403 . S
C2269 C2270 1.524 . S
C2269 C2273 1.400 . S
C2270 H2255 0.960 . S
C2270 H2256 0.960 . S
C2270 H2257 0.960 . S
C2270 C2269 1.524 . S
C2271 C2268 1.403 . S
C2271 C2272 1.392 . S
C2271 C2275 1.495 . S
C2272 C2271 1.392 . S
C2272 C2273 1.385 . S
C2272 C2274 1.478 . S
C2273 H2267 0.930 . S
C2273 C2269 1.400 . S
C2273 C2272 1.385 . S
C2274 C2272 1.478 . S
C2274 C2276 1.381 . S
C2274 C2280 1.383 . S
C2275 C2271 1.495 . S
C2275 H2281 0.959 . S
C2275 H2282 0.961 . S
C2275 H2283 0.960 . S
C2276 C2274 1.381 . S
C2276 C2277 1.394 . S
C2276 H2284 0.930 . S
C2277 C2276 1.394 . S
C2277 C2278 1.383 . S
C2277 H2285 0.929 . S
C2278 C2277 1.383 . S
C2278 C2279 1.377 . S
C2279 H2263 0.930 . S
C2279 C2278 1.377 . S
C2279 C2280 1.379 . S
C2280 H2264 0.931 . S
C2280 C2274 1.383 . S
C2280 C2279 1.379 . S
H2281 C2275 0.959 . S
H2282 C2275 0.961 . S
H2283 C2275 0.960 . S
H2284 C2276 0.930 . S
H2285 C2277 0.929 . S
H2286 C2294 0.929 . S
H2287 C2296 0.930 . S
H2288 C2298 0.930 . S
H2289 C2301 0.929 . S
H2290 C2304 0.930 . S
H2291 C2306 0.960 . S
H2292 C2306 0.960 . S
H2293 C2306 0.960 . S
C2294 H2286 0.929 . S
C2294 C2295 1.377 . S
C2294 C2296 1.384 . S
C2295 C2294 1.377 . S
C2295 C2301 1.390 . S
C2296 H2287 0.930 . S
C2296 C2294 1.384 . S
C2296 C2297 1.372 . S
C2297 C2296 1.372 . S
C2297 C2298 1.400 . S
C2297 C2302 1.490 . S
C2298 H2288 0.930 . S
C2298 C2297 1.400 . S
C2298 C2301 1.386 . S
H2299 C2315 0.930 . S
H2300 C2316 0.931 . S
C2301 H2289 0.929 . S
C2301 C2295 1.390 . S
C2301 C2298 1.386 . S
C2302 C2297 1.490 . S
C2302 C2304 1.395 . S
C2302 C2305 1.403 . S
H2303 C2309 0.930 . S
C2304 H2290 0.930 . S
C2304 C2302 1.395 . S
C2304 C2307 1.403 . S
C2305 C2302 1.403 . S
C2305 C2306 1.524 . S
C2305 C2309 1.400 . S
C2306 H2291 0.960 . S
C2306 H2292 0.960 . S
C2306 H2293 0.960 . S
C2306 C2305 1.524 . S
C2307 C2304 1.403 . S
C2307 C2308 1.392 . S
C2307 C2311 1.495 . S
C2308 C2307 1.392 . S
C2308 C2309 1.385 . S
C2308 C2310 1.478 . S
C2309 H2303 0.930 . S
C2309 C2305 1.400 . S
C2309 C2308 1.385 . S
C2310 C2308 1.478 . S
C2310 C2312 1.381 . S
C2310 C2316 1.383 . S
C2311 C2307 1.495 . S
C2311 H2317 0.959 . S
C2311 H2318 0.961 . S
C2311 H2319 0.960 . S
C2312 C2310 1.381 . S
C2312 C2313 1.394 . S
C2312 H2320 0.930 . S
C2313 C2312 1.394 . S
C2313 C2314 1.383 . S
C2313 H2321 0.929 . S
C2314 C2313 1.383 . S
C2314 C2315 1.377 . S
C2315 H2299 0.930 . S
C2315 C2314 1.377 . S
C2315 C2316 1.379 . S
C2316 H2300 0.931 . S
C2316 C2310 1.383 . S
C2316 C2315 1.379 . S
H2317 C2311 0.959 . S
H2318 C2311 0.961 . S
H2319 C2311 0.960 . S
H2320 C2312 0.930 . S
H2321 C2313 0.929 . S
H2322 C2330 0.929 . S
H2323 C2332 0.930 . S
H2324 C2334 0.930 . S
H2325 C2337 0.929 . S
H2326 C2340 0.930 . S
H2327 C2342 0.960 . S
H2328 C2342 0.960 . S
H2329 C2342 0.960 . S
C2330 H2322 0.929 . S
C2330 C2331 1.377 . S
C2330 C2332 1.384 . S
C2331 C2330 1.377 . S
C2331 C2337 1.390 . S
C2332 H2323 0.930 . S
C2332 C2330 1.384 . S
C2332 C2333 1.372 . S
C2333 C2332 1.372 . S
C2333 C2334 1.400 . S
C2333 C2338 1.490 . S
C2334 H2324 0.930 . S
C2334 C2333 1.400 . S
C2334 C2337 1.386 . S
H2335 C2351 0.930 . S
H2336 C2352 0.931 . S
C2337 H2325 0.929 . S
C2337 C2331 1.390 . S
C2337 C2334 1.386 . S
C2338 C2333 1.490 . S
C2338 C2340 1.395 . S
C2338 C2341 1.403 . S
H2339 C2345 0.930 . S
C2340 H2326 0.930 . S
C2340 C2338 1.395 . S
C2340 C2343 1.403 . S
C2341 C2338 1.403 . S
C2341 C2342 1.524 . S
C2341 C2345 1.400 . S
C2342 H2327 0.960 . S
C2342 H2328 0.960 . S
C2342 H2329 0.960 . S
C2342 C2341 1.524 . S
C2343 C2340 1.403 . S
C2343 C2344 1.392 . S
C2343 C2347 1.495 . S
C2344 C2343 1.392 . S
C2344 C2345 1.385 . S
C2344 C2346 1.478 . S
C2345 H2339 0.930 . S
C2345 C2341 1.400 . S
C2345 C2344 1.385 . S
C2346 C2344 1.478 . S
C2346 C2348 1.381 . S
C2346 C2352 1.383 . S
C2347 C2343 1.495 . S
C2347 H2353 0.959 . S
C2347 H2354 0.961 . S
C2347 H2355 0.960 . S
C2348 C2346 1.381 . S
C2348 C2349 1.394 . S
C2348 H2356 0.930 . S
C2349 C2348 1.394 . S
C2349 C2350 1.383 . S
C2349 H2357 0.929 . S
C2350 C2349 1.383 . S
C2350 C2351 1.377 . S
C2351 H2335 0.930 . S
C2351 C2350 1.377 . S
C2351 C2352 1.379 . S
C2352 H2336 0.931 . S
C2352 C2346 1.383 . S
C2352 C2351 1.379 . S
H2353 C2347 0.959 . S
H2354 C2347 0.961 . S
H2355 C2347 0.960 . S
H2356 C2348 0.930 . S
H2357 C2349 0.929 . S
C1071 C1006 1.819 . S
C1090 C3 1.821 . S
C1107 C890 1.811 . S
C1126 C64 1.805 . S
C1143 C949 1.813 . S
C1162 C123 1.811 . S
C1179 C418 1.812 . S
C1198 C182 1.808 . S
C1215 C477 1.813 . S
C1234 C241 1.810 . S
C1251 C298 1.819 . S
C1270 C357 1.818 . S
C1287 C536 1.812 . S
C1306 C772 1.809 . S
C1323 C595 1.813 . S
C1342 C831 1.811 . S
C1359 C652 1.819 . S
C1378 C711 1.815 . S
C1395 C33 0.310 . S
C1414 C1036 0.276 . S
C1431 C937 0.295 . S
C1450 C111 0.263 . S
C1467 C170 0.312 . S
C1486 C996 0.327 . S
C1503 C465 0.307 . S
C1522 C229 0.303 . S
C1539 C288 0.296 . S
C1558 C524 0.279 . S
C1575 C328 0.311 . S
C1594 C387 0.275 . S
C1611 C583 0.301 . S
C1630 C819 0.308 . S
C1647 C878 0.295 . S
C1666 C642 0.263 . S
C1683 C741 0.310 . S
C1702 C682 0.288 . S
C1719 C52 1.911 . S
C1738 C210 1.916 . S
C1755 C269 1.910 . S
C1774 C92 1.912 . S
C1791 C347 1.911 . S
C1810 C151 1.910 . S
C1827 C300 1.916 . S
C1846 C62 1.879 . S
C1863 C121 1.892 . S
C1882 C180 1.879 . S
C1899 C239 1.892 . S
C1918 C5 1.908 . S
C1935 C406 1.911 . S
C1954 C564 1.914 . S
C1971 C623 1.912 . S
C1990 C446 1.899 . S
C2007 C701 1.913 . S
C2026 C505 1.902 . S
C2043 C654 1.918 . S
C2062 C416 1.904 . S
C2079 C475 1.898 . S
C2098 C534 1.906 . S
C2115 C593 1.894 . S
C2134 C359 1.912 . S
C2151 C918 1.912 . S
C2170 C760 1.914 . S
C2187 C977 1.909 . S
C2206 C800 1.914 . S
C2223 C859 1.915 . S
C2242 C1055 1.899 . S
C2259 C1008 1.918 . S
C2278 C770 1.894 . S
C2295 C829 1.897 . S
C2314 C888 1.904 . S
C2331 C947 1.895 . S
C2350 C713 1.916 . S
