# Generated by pormake.
# Topology gis, (4)-cn, num edge types: 1
# Building blocks:
#     Node 0, Type 0, BuildingBlock: CEKHIL_clean_sbu_0, # of connection points: 4
#     Node 1, Type 0, BuildingBlock: CEKHIL_clean_sbu_0, # of connection points: 4
#     Node 2, Type 0, BuildingBlock: CEKHIL_clean_sbu_0, # of connection points: 4
#     Node 3, Type 0, BuildingBlock: CEKHIL_clean_sbu_0, # of connection points: 4
#     Node 4, Type 0, BuildingBlock: CEKHIL_clean_sbu_0, # of connection points: 4
#     Node 5, Type 0, BuildingBlock: CEKHIL_clean_sbu_0, # of connection points: 4
#     Node 6, Type 0, BuildingBlock: CEKHIL_clean_sbu_0, # of connection points: 4
#     Node 7, Type 0, BuildingBlock: CEKHIL_clean_sbu_0, # of connection points: 4
#     Node 8, Type 0, BuildingBlock: CEKHIL_clean_sbu_0, # of connection points: 4
#     Node 9, Type 0, BuildingBlock: CEKHIL_clean_sbu_0, # of connection points: 4
#     Node 10, Type 0, BuildingBlock: CEKHIL_clean_sbu_0, # of connection points: 4
#     Node 11, Type 0, BuildingBlock: CEKHIL_clean_sbu_0, # of connection points: 4
#     Node 12, Type 0, BuildingBlock: CEKHIL_clean_sbu_0, # of connection points: 4
#     Node 13, Type 0, BuildingBlock: CEKHIL_clean_sbu_0, # of connection points: 4
#     Node 14, Type 0, BuildingBlock: CEKHIL_clean_sbu_0, # of connection points: 4
#     Node 15, Type 0, BuildingBlock: CEKHIL_clean_sbu_0, # of connection points: 4
#     Edge 16, Type (0, 0), BuildingBlock: UVAHIK_clean_linker_0, # of connection points: 2
#     Edge 17, Type (0, 0), BuildingBlock: UVAHIK_clean_linker_0, # of connection points: 2
#     Edge 18, Type (0, 0), BuildingBlock: UVAHIK_clean_linker_0, # of connection points: 2
#     Edge 19, Type (0, 0), BuildingBlock: UVAHIK_clean_linker_0, # of connection points: 2
#     Edge 20, Type (0, 0), BuildingBlock: UVAHIK_clean_linker_0, # of connection points: 2
#     Edge 21, Type (0, 0), BuildingBlock: UVAHIK_clean_linker_0, # of connection points: 2
#     Edge 22, Type (0, 0), BuildingBlock: UVAHIK_clean_linker_0, # of connection points: 2
#     Edge 23, Type (0, 0), BuildingBlock: UVAHIK_clean_linker_0, # of connection points: 2
#     Edge 24, Type (0, 0), BuildingBlock: UVAHIK_clean_linker_0, # of connection points: 2
#     Edge 25, Type (0, 0), BuildingBlock: UVAHIK_clean_linker_0, # of connection points: 2
#     Edge 26, Type (0, 0), BuildingBlock: UVAHIK_clean_linker_0, # of connection points: 2
#     Edge 27, Type (0, 0), BuildingBlock: UVAHIK_clean_linker_0, # of connection points: 2
#     Edge 28, Type (0, 0), BuildingBlock: UVAHIK_clean_linker_0, # of connection points: 2
#     Edge 29, Type (0, 0), BuildingBlock: UVAHIK_clean_linker_0, # of connection points: 2
#     Edge 30, Type (0, 0), BuildingBlock: UVAHIK_clean_linker_0, # of connection points: 2
#     Edge 31, Type (0, 0), BuildingBlock: UVAHIK_clean_linker_0, # of connection points: 2
#     Edge 32, Type (0, 0), BuildingBlock: UVAHIK_clean_linker_0, # of connection points: 2
#     Edge 33, Type (0, 0), BuildingBlock: UVAHIK_clean_linker_0, # of connection points: 2
#     Edge 34, Type (0, 0), BuildingBlock: UVAHIK_clean_linker_0, # of connection points: 2
#     Edge 35, Type (0, 0), BuildingBlock: UVAHIK_clean_linker_0, # of connection points: 2
#     Edge 36, Type (0, 0), BuildingBlock: UVAHIK_clean_linker_0, # of connection points: 2
#     Edge 37, Type (0, 0), BuildingBlock: UVAHIK_clean_linker_0, # of connection points: 2
#     Edge 38, Type (0, 0), BuildingBlock: UVAHIK_clean_linker_0, # of connection points: 2
#     Edge 39, Type (0, 0), BuildingBlock: UVAHIK_clean_linker_0, # of connection points: 2
#     Edge 40, Type (0, 0), BuildingBlock: UVAHIK_clean_linker_0, # of connection points: 2
#     Edge 41, Type (0, 0), BuildingBlock: UVAHIK_clean_linker_0, # of connection points: 2
#     Edge 42, Type (0, 0), BuildingBlock: UVAHIK_clean_linker_0, # of connection points: 2
#     Edge 43, Type (0, 0), BuildingBlock: UVAHIK_clean_linker_0, # of connection points: 2
#     Edge 44, Type (0, 0), BuildingBlock: UVAHIK_clean_linker_0, # of connection points: 2
#     Edge 45, Type (0, 0), BuildingBlock: UVAHIK_clean_linker_0, # of connection points: 2
#     Edge 46, Type (0, 0), BuildingBlock: UVAHIK_clean_linker_0, # of connection points: 2
#     Edge 47, Type (0, 0), BuildingBlock: UVAHIK_clean_linker_0, # of connection points: 2
# Relax obj value: 0.062
# Max RMSD: 0.132
# Mean RMSD: 0.126
data_MOF--net-gis--node1-CEKHIL_clean_sbu_0--edge1-UVAHIK_clean_linker_0
_symmetry_space_group_name_H-M    P1
_symmetry_Int_Tables_number       1
_symmetry_cell_setting            triclinic
loop_
_symmetry_equiv_pos_as_xyz
'x, y, z'
_cell_length_a     70.905368
_cell_length_b     66.27921
_cell_length_c     45.199334
_cell_angle_alpha  90.395832
_cell_angle_beta   90.365637
_cell_angle_gamma 89.9758
loop_
_atom_site_label
_atom_site_type_symbol
_atom_site_fract_x
_atom_site_fract_y
_atom_site_fract_z
_atom_type_partial_charge
Co0 Co 0.13813 0.60128 0.13409 0.0
O1 O 0.16505 0.60306 0.13651 0.0
O2 O 0.1461 0.60201 0.17523 0.0
C3 C 0.13728 0.57681 0.09948 0.0
O4 O 0.10966 0.59848 0.13952 0.0
Co5 Co 0.11782 0.61176 0.07492 0.0
O6 O 0.09707 0.59647 0.09371 0.0
C7 C 0.13284 0.64443 0.11286 0.0
C8 C 0.16322 0.60293 0.16501 0.0
C9 C 0.09592 0.59441 0.12166 0.0
O10 O 0.13631 0.63159 0.13342 0.0
O11 O 0.12676 0.63935 0.08712 0.0
O12 O 0.1397 0.57223 0.12716 0.0
O13 O 0.13732 0.59582 0.09357 0.0
Co14 Co 0.63798 0.88642 0.37237 0.0
O15 O 0.66496 0.886 0.37171 0.0
O16 O 0.64658 0.88283 0.3321 0.0
C17 C 0.63513 0.9135 0.4021 0.0
O18 O 0.6096 0.88713 0.36492 0.0
Co19 Co 0.61749 0.87904 0.43171 0.0
O20 O 0.59588 0.89057 0.40941 0.0
C21 C 0.63386 0.84457 0.3997 0.0
C22 C 0.66354 0.8837 0.34327 0.0
C23 C 0.59516 0.89088 0.38121 0.0
O24 O 0.63755 0.85632 0.37797 0.0
O25 O 0.62701 0.85091 0.42421 0.0
O26 O 0.63798 0.91575 0.37396 0.0
O27 O 0.63617 0.8952 0.41169 0.0
Co28 Co 0.35773 0.39259 0.63677 0.0
O29 O 0.33086 0.39026 0.63774 0.0
O30 O 0.34958 0.38807 0.67704 0.0
C31 C 0.3586 0.42 0.60784 0.0
O32 O 0.38609 0.39513 0.64379 0.0
Co33 Co 0.37836 0.38763 0.57663 0.0
O34 O 0.39927 0.40039 0.59933 0.0
C35 C 0.36356 0.35176 0.60682 0.0
C36 C 0.33255 0.38775 0.66605 0.0
C37 C 0.40015 0.4002 0.62752 0.0
O38 O 0.35987 0.36264 0.62975 0.0
O39 O 0.36968 0.35913 0.58258 0.0
O40 O 0.35589 0.42198 0.63612 0.0
O41 O 0.35874 0.40171 0.59788 0.0
Co42 Co 0.86093 0.10092 0.85839 0.0
O43 O 0.83394 0.09951 0.85856 0.0
O44 O 0.85138 0.10154 0.81818 0.0
C45 C 0.8658 0.07625 0.89135 0.0
O46 O 0.88917 0.10179 0.85004 0.0
Co47 Co 0.88199 0.11322 0.9165 0.0
O48 O 0.90482 0.10741 0.89292 0.0
C49 C 0.86063 0.1435 0.88305 0.0
C50 C 0.83469 0.10051 0.82996 0.0
C51 C 0.90452 0.10378 0.86518 0.0
O52 O 0.85943 0.1312 0.86099 0.0
O53 O 0.86738 0.13845 0.90827 0.0
O54 O 0.86275 0.07174 0.86368 0.0
O55 O 0.86399 0.09503 0.89831 0.0
Co56 Co 0.13466 0.38902 0.85876 0.0
O57 O 0.16148 0.3854 0.86123 0.0
O58 O 0.14466 0.38399 0.81976 0.0
C59 C 0.13348 0.41655 0.88795 0.0
O60 O 0.10701 0.39298 0.84755 0.0
Co61 Co 0.10987 0.38592 0.91495 0.0
O62 O 0.09133 0.40011 0.88943 0.0
C63 C 0.12536 0.34897 0.88755 0.0
C64 C 0.16108 0.38307 0.83271 0.0
C65 C 0.09233 0.39946 0.86129 0.0
O66 O 0.13087 0.35926 0.86518 0.0
O67 O 0.11793 0.35702 0.91054 0.0
O68 O 0.13775 0.41827 0.86017 0.0
O69 O 0.13178 0.39834 0.89751 0.0
Co70 Co 0.85577 0.89525 0.13722 0.0
O71 O 0.8291 0.89087 0.13875 0.0
O72 O 0.84817 0.89141 0.17782 0.0
C73 C 0.85475 0.92161 0.10643 0.0
O74 O 0.8839 0.90007 0.14378 0.0
Co75 Co 0.87675 0.89044 0.0772 0.0
O76 O 0.89692 0.90506 0.09913 0.0
C77 C 0.86471 0.85434 0.10991 0.0
C78 C 0.83115 0.88944 0.16719 0.0
C79 C 0.89774 0.90554 0.12732 0.0
O80 O 0.86001 0.86543 0.13213 0.0
O81 O 0.8703 0.86155 0.08525 0.0
O82 O 0.85196 0.92437 0.13457 0.0
O83 O 0.85609 0.90309 0.09779 0.0
Co84 Co 0.36088 0.60455 0.36559 0.0
O85 O 0.33389 0.60674 0.3668 0.0
O86 O 0.35074 0.60493 0.32576 0.0
C87 C 0.36341 0.58039 0.39997 0.0
O88 O 0.38879 0.60129 0.35591 0.0
Co89 Co 0.38491 0.61537 0.42102 0.0
O90 O 0.40493 0.60091 0.3989 0.0
C91 C 0.36822 0.6479 0.3853 0.0
C92 C 0.33425 0.60627 0.33812 0.0
C93 C 0.404 0.59823 0.37097 0.0
O94 O 0.3631 0.63479 0.36576 0.0
O95 O 0.37593 0.64311 0.40998 0.0
O96 O 0.35936 0.57567 0.37271 0.0
O97 O 0.36401 0.59946 0.406 0.0
Co98 Co 0.63534 0.10611 0.63455 0.0
O99 O 0.66229 0.10821 0.634 0.0
O100 O 0.64496 0.1084 0.67461 0.0
C101 C 0.63323 0.08024 0.60232 0.0
O102 O 0.60728 0.10324 0.64339 0.0
Co103 Co 0.61223 0.11419 0.57727 0.0
O104 O 0.59269 0.09914 0.59936 0.0
C105 C 0.62836 0.14843 0.61075 0.0
C106 C 0.66161 0.10901 0.66264 0.0
C107 C 0.59289 0.09817 0.62751 0.0
O108 O 0.63313 0.13632 0.63163 0.0
O109 O 0.62102 0.14241 0.58626 0.0
O110 O 0.63697 0.07691 0.63003 0.0
O111 O 0.63277 0.09898 0.59462 0.0
Co112 Co 0.8654 0.3962 0.85261 0.0
O113 O 0.83853 0.39421 0.85492 0.0
O114 O 0.85471 0.39497 0.81314 0.0
C115 C 0.86802 0.42094 0.88655 0.0
O116 O 0.89315 0.39905 0.84188 0.0
Co117 Co 0.89031 0.38697 0.90766 0.0
O118 O 0.90971 0.40129 0.8844 0.0
C119 C 0.87097 0.35399 0.87546 0.0
C120 C 0.83843 0.39402 0.82623 0.0
C121 C 0.9084 0.40301 0.85639 0.0
O122 O 0.8673 0.36601 0.85398 0.0
O123 O 0.87867 0.35982 0.89977 0.0
O124 O 0.86397 0.42528 0.85922 0.0
O125 O 0.86898 0.40199 0.89264 0.0
Co126 Co 0.35821 0.09528 0.63907 0.0
O127 O 0.33128 0.09756 0.63805 0.0
O128 O 0.34883 0.10005 0.67865 0.0
C129 C 0.36011 0.06771 0.60995 0.0
O130 O 0.38637 0.09288 0.64821 0.0
Co131 Co 0.38083 0.09973 0.58063 0.0
O132 O 0.40059 0.08629 0.60477 0.0
C133 C 0.36487 0.13583 0.60964 0.0
C134 C 0.33214 0.10029 0.66646 0.0
C135 C 0.40066 0.08701 0.63295 0.0
O136 O 0.36049 0.1252 0.6323 0.0
O137 O 0.37181 0.12822 0.58596 0.0
O138 O 0.35648 0.0658 0.63795 0.0
O139 O 0.36051 0.08598 0.60031 0.0
Co140 Co 0.62998 0.58954 0.34627 0.0
O141 O 0.62837 0.56136 0.35569 0.0
O142 O 0.62087 0.58648 0.38609 0.0
C143 C 0.65885 0.58889 0.32628 0.0
O144 O 0.63061 0.62022 0.345 0.0
Co145 Co 0.63183 0.60353 0.28131 0.0
O146 O 0.63883 0.6299 0.29934 0.0
C147 C 0.59562 0.58979 0.30488 0.0
C148 C 0.62241 0.56716 0.3815 0.0
C149 C 0.63569 0.63383 0.3265 0.0
O150 O 0.60339 0.58879 0.33059 0.0
O151 O 0.60477 0.59427 0.2815 0.0
O152 O 0.65683 0.58958 0.35481 0.0
O153 O 0.6435 0.58634 0.31098 0.0
Co154 Co 0.12869 0.89878 0.15654 0.0
O155 O 0.12783 0.92596 0.14205 0.0
O156 O 0.12105 0.89856 0.11558 0.0
C157 C 0.15672 0.90087 0.1794 0.0
O158 O 0.1288 0.8685 0.16287 0.0
Co159 Co 0.12809 0.88933 0.22322 0.0
O160 O 0.13525 0.86166 0.21042 0.0
C161 C 0.09311 0.90219 0.19397 0.0
C162 C 0.1227 0.91808 0.11685 0.0
C163 C 0.133 0.85606 0.18361 0.0
O164 O 0.1017 0.90114 0.16908 0.0
O165 O 0.10128 0.89904 0.21884 0.0
O166 O 0.1557 0.8978 0.15101 0.0
O167 O 0.14091 0.90463 0.19261 0.0
Co168 Co 0.85943 0.5979 0.1452 0.0
O169 O 0.833 0.60302 0.14806 0.0
O170 O 0.85254 0.60179 0.18642 0.0
C171 C 0.85647 0.57169 0.11372 0.0
O172 O 0.88766 0.59229 0.14988 0.0
Co173 Co 0.87895 0.60156 0.08375 0.0
O174 O 0.89879 0.58574 0.10423 0.0
C175 C 0.86811 0.63824 0.11726 0.0
C176 C 0.83541 0.60417 0.17644 0.0
C177 C 0.90058 0.58574 0.13231 0.0
O178 O 0.86417 0.62763 0.14015 0.0
O179 O 0.8728 0.63051 0.0923 0.0
O180 O 0.85473 0.56882 0.14198 0.0
O181 O 0.85842 0.59016 0.10568 0.0
Co182 Co 0.13641 0.09214 0.86415 0.0
O183 O 0.16337 0.09448 0.86376 0.0
O184 O 0.14487 0.09694 0.82424 0.0
C185 C 0.13507 0.06463 0.89285 0.0
O186 O 0.10815 0.08978 0.85614 0.0
Co187 Co 0.11464 0.09662 0.92336 0.0
O188 O 0.09378 0.08457 0.89966 0.0
C189 C 0.12991 0.13276 0.89436 0.0
C190 C 0.16182 0.09728 0.83547 0.0
C191 C 0.09357 0.08502 0.87145 0.0
O192 O 0.13417 0.12205 0.87151 0.0
O193 O 0.1233 0.1252 0.91814 0.0
O194 O 0.1382 0.06269 0.86466 0.0
O195 O 0.13481 0.0829 0.90287 0.0
Co196 Co 0.63101 0.40424 0.65499 0.0
O197 O 0.6298 0.43208 0.6434 0.0
O198 O 0.62257 0.406 0.61451 0.0
C199 C 0.65943 0.40532 0.6768 0.0
O200 O 0.63129 0.37365 0.65834 0.0
Co201 Co 0.63162 0.39201 0.72078 0.0
O202 O 0.63863 0.36504 0.70496 0.0
C203 C 0.59592 0.40512 0.69405 0.0
C204 C 0.62415 0.42544 0.61772 0.0
C205 C 0.63585 0.36044 0.67786 0.0
O206 O 0.60423 0.40573 0.66891 0.0
O207 O 0.60449 0.40091 0.71825 0.0
O208 O 0.65795 0.40366 0.64822 0.0
O209 O 0.64385 0.40846 0.69094 0.0
Co210 Co 0.36616 0.90185 0.34508 0.0
O211 O 0.36793 0.92904 0.35988 0.0
O212 O 0.37486 0.90156 0.38552 0.0
C213 C 0.33759 0.90444 0.32408 0.0
O214 O 0.36537 0.87156 0.33827 0.0
Co215 Co 0.36484 0.89236 0.27817 0.0
O216 O 0.35769 0.86483 0.29099 0.0
C217 C 0.401 0.90349 0.30558 0.0
C218 C 0.37354 0.9211 0.38464 0.0
C219 C 0.36061 0.85918 0.31752 0.0
O220 O 0.39282 0.9034 0.33085 0.0
O221 O 0.39223 0.90038 0.28113 0.0
O222 O 0.33931 0.90151 0.35236 0.0
O223 O 0.3531 0.90787 0.30991 0.0
C224 C 0.13869 0.82003 0.19803 0.0
C225 C 0.13497 0.8344 0.17599 0.0
C226 C 0.14011 0.79956 0.19075 0.0
C227 C 0.12508 0.7631 0.13374 0.0
H228 H 0.16276 0.72831 0.1694 0.0
C229 C 0.1333 0.68057 0.097 0.0
C230 C 0.13546 0.66617 0.11947 0.0
C231 C 0.13484 0.70112 0.10341 0.0
C232 C 0.15207 0.73781 0.15945 0.0
H233 H 0.13036 0.83849 0.12885 0.0
H234 H 0.13296 0.80289 0.11625 0.0
H235 H 0.16243 0.76428 0.18165 0.0
H236 H 0.14148 0.66216 0.16624 0.0
H237 H 0.14384 0.69808 0.17746 0.0
H238 H 0.11454 0.73673 0.11183 0.0
C239 C 0.13448 0.80742 0.13922 0.0
C240 C 0.15188 0.75839 0.16646 0.0
C241 C 0.13305 0.82786 0.14646 0.0
C242 C 0.1397 0.67282 0.14838 0.0
C243 C 0.14117 0.69341 0.15481 0.0
C244 C 0.12525 0.74257 0.12678 0.0
C245 C 0.13784 0.79303 0.1613 0.0
C246 C 0.13837 0.77124 0.15368 0.0
C247 C 0.13849 0.70779 0.13246 0.0
C248 C 0.13873 0.72968 0.13955 0.0
H249 H 0.14029 0.82453 0.22099 0.0
H250 H 0.14254 0.7888 0.2083 0.0
H251 H 0.11428 0.77253 0.12394 0.0
H252 H 0.13026 0.67601 0.07441 0.0
H253 H 0.13306 0.71181 0.08559 0.0
C254 C 0.43306 0.89847 0.28298 0.0
C255 C 0.42167 0.9064 0.30564 0.0
C256 C 0.45276 0.89844 0.2861 0.0
C257 C 0.48686 0.89587 0.3461 0.0
H258 H 0.52534 0.91112 0.2899 0.0
C259 C 0.56251 0.90448 0.38405 0.0
C260 C 0.57666 0.8951 0.36725 0.0
C261 C 0.54441 0.90682 0.37257 0.0
C262 C 0.51471 0.90661 0.30562 0.0
H263 H 0.42197 0.92224 0.34784 0.0
H264 H 0.45606 0.92229 0.35305 0.0
H265 H 0.49178 0.91394 0.27614 0.0
H266 H 0.58318 0.88187 0.32449 0.0
H267 H 0.55112 0.88576 0.30442 0.0
H268 H 0.50937 0.88849 0.37556 0.0
C269 C 0.44985 0.91565 0.33329 0.0
C270 C 0.49558 0.90824 0.29777 0.0
C271 C 0.43032 0.91563 0.33027 0.0
C272 C 0.57252 0.88906 0.33801 0.0
C273 C 0.55422 0.89133 0.3265 0.0
C274 C 0.50579 0.89419 0.35383 0.0
C275 C 0.46123 0.90636 0.31186 0.0
C276 C 0.48152 0.90335 0.31831 0.0
C277 C 0.53988 0.89971 0.34406 0.0
C278 C 0.51993 0.90001 0.33404 0.0
H279 H 0.42676 0.89132 0.2637 0.0
H280 H 0.46126 0.89123 0.26923 0.0
H281 H 0.47633 0.89146 0.36206 0.0
H282 H 0.5653 0.90971 0.40641 0.0
H283 H 0.53378 0.91384 0.38635 0.0
C284 C 0.35512 0.32057 0.63513 0.0
C285 C 0.36086 0.32963 0.6086 0.0
C286 C 0.35301 0.29963 0.63682 0.0
C287 C 0.34693 0.25399 0.59026 0.0
H288 H 0.36899 0.22594 0.65709 0.0
C289 C 0.36536 0.16984 0.5859 0.0
C290 C 0.36195 0.15795 0.61095 0.0
C291 C 0.36292 0.1907 0.58704 0.0
C292 C 0.36248 0.23357 0.63852 0.0
H293 H 0.36866 0.3237 0.56297 0.0
H294 H 0.36512 0.28734 0.56605 0.0
H295 H 0.36879 0.26277 0.65654 0.0
H296 H 0.35307 0.15879 0.65685 0.0
H297 H 0.34883 0.19535 0.65875 0.0
H298 H 0.34098 0.22482 0.57194 0.0
C299 C 0.36205 0.29642 0.58544 0.0
C300 C 0.36237 0.25465 0.6382 0.0
C301 C 0.36421 0.31729 0.58376 0.0
C302 C 0.35588 0.16747 0.63715 0.0
C303 C 0.35351 0.18841 0.6383 0.0
C304 C 0.34705 0.23294 0.59057 0.0
C305 C 0.35649 0.28734 0.612 0.0
C306 C 0.35494 0.26507 0.61377 0.0
C307 C 0.35703 0.20023 0.61325 0.0
C308 C 0.35518 0.22251 0.61441 0.0
H309 H 0.35236 0.3296 0.6547 0.0
H310 H 0.34856 0.29307 0.65752 0.0
H311 H 0.34075 0.2616 0.5714 0.0
H312 H 0.37004 0.16308 0.56534 0.0
H313 H 0.36602 0.19943 0.56749 0.0
C314 C 0.07143 0.08981 0.82844 0.0
C315 C 0.0753 0.08144 0.85632 0.0
C316 C 0.05312 0.08914 0.81663 0.0
C317 C 0.0054 0.06663 0.82684 0.0
H318 H 0.98754 0.12084 0.81118 0.0
C319 C 0.93793 0.11413 0.85965 0.0
C320 C 0.92288 0.10188 0.85028 0.0
C321 C 0.956 0.111 0.84867 0.0
C322 C 0.99233 0.10554 0.81494 0.0
H323 H 0.06347 0.06429 0.89244 0.0
H324 H 0.03175 0.06312 0.87199 0.0
H325 H 0.02133 0.11421 0.81321 0.0
H326 H 0.91467 0.0772 0.82129 0.0
H327 H 0.94673 0.07123 0.80258 0.0
H328 H 0.97632 0.05835 0.83072 0.0
C329 C 0.04272 0.07022 0.85916 0.0
C330 C 0.01169 0.10169 0.8159 0.0
C331 C 0.06089 0.07108 0.87106 0.0
C332 C 0.92607 0.0869 0.82874 0.0
C333 C 0.94436 0.08346 0.81814 0.0
C334 C 0.98601 0.07047 0.82571 0.0
C335 C 0.03846 0.07982 0.83231 0.0
C336 C 0.01843 0.08242 0.82334 0.0
C337 C 0.95953 0.09531 0.8284 0.0
C338 C 0.97934 0.09018 0.82123 0.0
H339 H 0.08226 0.09784 0.81651 0.0
H340 H 0.05026 0.09656 0.7958 0.0
H341 H 0.01019 0.05158 0.83225 0.0
H342 H 0.93581 0.12584 0.87615 0.0
H343 H 0.96743 0.1202 0.85732 0.0
C344 C 0.12293 0.31517 0.91166 0.0
C345 C 0.12778 0.32676 0.8869 0.0
C346 C 0.12535 0.29429 0.91136 0.0
C347 C 0.12909 0.25069 0.86147 0.0
H348 H 0.14814 0.22404 0.93172 0.0
C349 C 0.13897 0.16416 0.86704 0.0
C350 C 0.1323 0.15494 0.8929 0.0
C351 C 0.14053 0.18515 0.86544 0.0
C352 C 0.1427 0.23125 0.912 0.0
H353 H 0.139 0.32535 0.84233 0.0
H354 H 0.1432 0.28879 0.8419 0.0
H355 H 0.14684 0.26078 0.93031 0.0
H356 H 0.12237 0.16067 0.93755 0.0
H357 H 0.12492 0.19713 0.93459 0.0
H358 H 0.12459 0.22114 0.84338 0.0
C359 C 0.13743 0.29596 0.86146 0.0
C360 C 0.14197 0.25228 0.91119 0.0
C361 C 0.13508 0.31691 0.86178 0.0
C362 C 0.12756 0.1672 0.91727 0.0
C363 C 0.12915 0.18814 0.91566 0.0
C364 C 0.1298 0.22963 0.86229 0.0
C365 C 0.13264 0.28446 0.8863 0.0
C366 C 0.13485 0.26221 0.88612 0.0
C367 C 0.13553 0.19736 0.88969 0.0
C368 C 0.13631 0.21968 0.88777 0.0
H369 H 0.11725 0.32219 0.93139 0.0
H370 H 0.12124 0.2858 0.93067 0.0
H371 H 0.12339 0.25792 0.84194 0.0
H372 H 0.14283 0.1552 0.84788 0.0
H373 H 0.14568 0.19181 0.84523 0.0
C374 C 0.92898 0.92253 0.12488 0.0
C375 C 0.91601 0.91107 0.14104 0.0
C376 C 0.94742 0.92499 0.13506 0.0
C377 C 0.98049 0.91865 0.19785 0.0
H378 H 0.01549 0.90592 0.13482 0.0
C379 C 0.06045 0.90043 0.21533 0.0
C380 C 0.07276 0.90703 0.19314 0.0
C381 C 0.04094 0.90324 0.21226 0.0
C382 C 0.00599 0.90985 0.15264 0.0
H383 H 0.91175 0.89454 0.18168 0.0
H384 H 0.9443 0.8986 0.19933 0.0
H385 H 0.98203 0.90743 0.12413 0.0
H386 H 0.0745 0.92318 0.15166 0.0
H387 H 0.04078 0.92852 0.14674 0.0
H388 H 0.00476 0.92089 0.2264 0.0
C389 C 0.94008 0.90575 0.17885 0.0
C390 C 0.98677 0.9107 0.14649 0.0
C391 C 0.92148 0.90339 0.16872 0.0
C392 C 0.06535 0.91754 0.16883 0.0
C393 C 0.046 0.92054 0.16596 0.0
C394 C -0.00011 0.91788 0.20404 0.0
C395 C 0.95339 0.91591 0.16149 0.0
C396 C 0.97379 0.91527 0.16889 0.0
C397 C 0.0335 0.91285 0.18708 0.0
C398 C 0.01285 0.91364 0.18137 0.0
H399 H 0.92508 0.92899 0.10375 0.0
H400 H 0.95725 0.93334 0.12158 0.0
H401 H 0.97078 0.92217 0.21556 0.0
H402 H 0.06581 0.89233 0.23435 0.0
H403 H 0.03167 0.89712 0.22889 0.0
C404 C 0.35776 0.67549 0.35122 0.0
C405 C 0.36537 0.66955 0.37864 0.0
C406 C 0.35556 0.6959 0.34458 0.0
C407 C 0.35235 0.74645 0.3787 0.0
H408 H 0.36887 0.76492 0.30188 0.0
C409 C 0.36406 0.83047 0.35289 0.0
C410 C 0.35907 0.83747 0.3246 0.0
C411 C 0.36327 0.80993 0.35935 0.0
C412 C 0.36391 0.75998 0.32325 0.0
H413 H 0.37635 0.68052 0.42074 0.0
H414 H 0.37256 0.7161 0.40901 0.0
H415 H 0.37028 0.7291 0.31346 0.0
H416 H 0.34885 0.82834 0.28115 0.0
H417 H 0.34726 0.79252 0.29261 0.0
H418 H 0.34607 0.77734 0.38857 0.0
C419 C 0.36818 0.70493 0.39278 0.0
C420 C 0.36474 0.73946 0.32989 0.0
C421 C 0.37045 0.68452 0.39941 0.0
C422 C 0.35294 0.82347 0.3031 0.0
C423 C 0.3521 0.80291 0.30961 0.0
C424 C 0.35145 0.76697 0.37203 0.0
C425 C 0.36083 0.71083 0.36522 0.0
C426 C 0.35913 0.7325 0.35778 0.0
C427 C 0.35741 0.7959 0.33774 0.0
C428 C 0.35739 0.77399 0.34432 0.0
H429 H 0.35361 0.6644 0.33472 0.0
H430 H 0.34965 0.7 0.32329 0.0
H431 H 0.34766 0.74148 0.40022 0.0
H432 H 0.36889 0.8408 0.36999 0.0
H433 H 0.36771 0.805 0.38111 0.0
C434 C 0.56718 0.07326 0.63225 0.0
C435 C 0.57551 0.09133 0.64181 0.0
C436 C 0.54891 0.06837 0.64085 0.0
C437 C 0.50789 0.08427 0.68729 0.0
H438 H 0.48014 0.06609 0.61793 0.0
C439 C 0.42763 0.09597 0.66632 0.0
C440 C 0.41852 0.08192 0.6478 0.0
C441 C 0.44673 0.09342 0.67362 0.0
C442 C 0.48761 0.07071 0.63783 0.0
H443 H 0.57202 0.11797 0.66913 0.0
H444 H 0.53957 0.10994 0.68325 0.0
H445 H 0.514 0.06834 0.61603 0.0
H446 H 0.42122 0.05326 0.62506 0.0
H447 H 0.45416 0.04826 0.63886 0.0
H448 H 0.48097 0.08746 0.70845 0.0
C449 C 0.54727 0.09921 0.66978 0.0
C450 C 0.50716 0.072 0.63674 0.0
C451 C 0.56581 0.10388 0.66166 0.0
C452 C 0.42808 0.06436 0.63918 0.0
C453 C 0.44695 0.06161 0.64692 0.0
C454 C 0.48814 0.08303 0.68834 0.0
C455 C 0.53835 0.08179 0.65842 0.0
C456 C 0.51761 0.07891 0.66132 0.0
C457 C 0.45681 0.07667 0.6627 0.0
C458 C 0.47779 0.07634 0.66348 0.0
H459 H 0.57454 0.06329 0.6171 0.0
H460 H 0.54272 0.05452 0.63243 0.0
H461 H 0.51551 0.08958 0.70666 0.0
H462 H 0.4205 0.10971 0.67303 0.0
H463 H 0.4539 0.10532 0.68578 0.0
C464 C 0.84994 0.17204 0.85076 0.0
C465 C 0.8548 0.16472 0.87894 0.0
C466 C 0.84611 0.19254 0.84674 0.0
C467 C 0.83635 0.24025 0.88753 0.0
H468 H 0.8658 0.26499 0.82552 0.0
C469 C 0.86605 0.31986 0.89715 0.0
C470 C 0.86553 0.33256 0.87238 0.0
C471 C 0.86039 0.2998 0.8947 0.0
C472 C 0.85718 0.2583 0.84255 0.0
H473 H 0.85842 0.173 0.92522 0.0
H474 H 0.85204 0.20853 0.91813 0.0
H475 H 0.86268 0.22837 0.82691 0.0
H476 H 0.85859 0.33409 0.82557 0.0
H477 H 0.84899 0.29875 0.8213 0.0
H478 H 0.83175 0.27017 0.90406 0.0
C479 C 0.851 0.1985 0.89916 0.0
C480 C 0.85534 0.23734 0.84332 0.0
C481 C 0.85487 0.17811 0.90316 0.0
C482 C 0.85922 0.32469 0.84506 0.0
C483 C 0.85371 0.3045 0.84257 0.0
C484 C 0.83827 0.26117 0.88684 0.0
C485 C 0.84695 0.20602 0.87084 0.0
C486 C 0.84551 0.22809 0.86648 0.0
C487 C 0.85419 0.29192 0.86742 0.0
C488 C 0.84928 0.27031 0.86498 0.0
H489 H 0.84962 0.16209 0.83166 0.0
H490 H 0.84287 0.19791 0.82471 0.0
H491 H 0.82837 0.23354 0.90529 0.0
H492 H 0.87074 0.32541 0.91855 0.0
H493 H 0.86122 0.29033 0.91411 0.0
C494 C 0.64352 0.67013 0.31735 0.0
C495 C 0.63765 0.65499 0.33692 0.0
C496 C 0.64503 0.69015 0.32686 0.0
C497 C 0.62704 0.72533 0.38305 0.0
H498 H 0.66794 0.75933 0.35625 0.0
C499 C 0.63283 0.80894 0.4183 0.0
C500 C 0.63701 0.82261 0.3956 0.0
C501 C 0.63474 0.78816 0.41365 0.0
C502 C 0.65637 0.75006 0.36379 0.0
H503 H 0.62907 0.64909 0.38206 0.0
H504 H 0.63177 0.68409 0.39863 0.0
H505 H 0.66782 0.72351 0.34351 0.0
H506 H 0.64699 0.82506 0.35041 0.0
H507 H 0.65002 0.78895 0.34227 0.0
H508 H 0.61538 0.75192 0.4028 0.0
C509 C 0.63502 0.68042 0.37584 0.0
C510 C 0.65631 0.72955 0.35649 0.0
C511 C 0.63354 0.66036 0.36635 0.0
C512 C 0.64361 0.81502 0.36842 0.0
C513 C 0.64549 0.79427 0.36379 0.0
C514 C 0.62709 0.74585 0.39031 0.0
C515 C 0.64069 0.69555 0.35615 0.0
C516 C 0.64151 0.71701 0.3657 0.0
C517 C 0.64086 0.78059 0.38621 0.0
C518 C 0.64162 0.75851 0.38043 0.0
H519 H 0.64681 0.66659 0.29454 0.0
H520 H 0.64918 0.70148 0.31103 0.0
H521 H 0.61532 0.71613 0.39017 0.0
H522 H 0.62783 0.81423 0.43957 0.0
H523 H 0.63132 0.77802 0.43151 0.0
C524 C 0.87136 0.6723 0.09464 0.0
C525 C 0.86744 0.66051 0.11959 0.0
C526 C 0.87113 0.69326 0.09652 0.0
C527 C 0.85257 0.73594 0.13894 0.0
H528 H 0.89241 0.76491 0.09894 0.0
C529 C 0.85974 0.8233 0.14045 0.0
C530 C 0.8642 0.83215 0.11316 0.0
C531 C 0.86012 0.80234 0.14364 0.0
C532 C 0.88113 0.75704 0.11004 0.0
H533 H 0.85989 0.66159 0.16606 0.0
H534 H 0.85959 0.69846 0.1693 0.0
H535 H 0.8933 0.72824 0.10066 0.0
H536 H 0.872 0.82583 0.06761 0.0
H537 H 0.87245 0.78944 0.07317 0.0
H538 H 0.84028 0.76488 0.14793 0.0
C539 C 0.86277 0.69131 0.1483 0.0
C540 C 0.88165 0.73606 0.11106 0.0
C541 C 0.86302 0.67023 0.14644 0.0
C542 C 0.86865 0.81958 0.08903 0.0
C543 C 0.86902 0.79871 0.09223 0.0
C544 C 0.85204 0.75702 0.13791 0.0
C545 C 0.867 0.70298 0.12338 0.0
C546 C 0.86719 0.72528 0.12497 0.0
C547 C 0.86499 0.78988 0.11963 0.0
C548 C 0.86613 0.76771 0.12291 0.0
H549 H 0.87466 0.6654 0.07351 0.0
H550 H 0.87406 0.70187 0.0768 0.0
H551 H 0.8412 0.72799 0.14968 0.0
H552 H 0.85624 0.83254 0.1595 0.0
H553 H 0.85703 0.79593 0.16504 0.0
C554 C 0.63326 0.33299 0.63948 0.0
C555 C 0.63736 0.33897 0.66874 0.0
C556 C 0.634 0.31264 0.63123 0.0
C557 C 0.6529 0.26304 0.65397 0.0
H558 H 0.61115 0.24184 0.60749 0.0
C559 C 0.6378 0.17781 0.64289 0.0
C560 C 0.63121 0.17038 0.61549 0.0
C561 C 0.63995 0.19852 0.64766 0.0
C562 C 0.62307 0.24755 0.62007 0.0
H563 H 0.64589 0.3282 0.71208 0.0
H564 H 0.647 0.29278 0.69771 0.0
H565 H 0.61259 0.2778 0.61866 0.0
H566 H 0.62218 0.17903 0.57136 0.0
H567 H 0.62616 0.21511 0.57963 0.0
H568 H 0.66328 0.23274 0.65561 0.0
C569 C 0.64337 0.30384 0.68109 0.0
C570 C 0.62389 0.26817 0.62649 0.0
C571 C 0.6426 0.32416 0.68937 0.0
C572 C 0.62714 0.18419 0.59282 0.0
C573 C 0.62935 0.2049 0.59759 0.0
C574 C 0.65211 0.24241 0.64749 0.0
C575 C 0.63891 0.29783 0.65201 0.0
C576 C 0.63871 0.27612 0.64376 0.0
C577 C 0.63562 0.21233 0.62514 0.0
C578 C 0.63707 0.23439 0.63072 0.0
H579 H 0.62928 0.34398 0.62295 0.0
H580 H 0.63071 0.3085 0.60856 0.0
H581 H 0.66464 0.26876 0.66696 0.0
H582 H 0.64107 0.16765 0.66088 0.0
H583 H 0.64458 0.20374 0.66928 0.0
C584 C 0.06292 0.41965 0.85668 0.0
C585 C 0.07546 0.40561 0.84428 0.0
C586 C 0.04573 0.42376 0.84295 0.0
C587 C 0.01037 0.39749 0.80044 0.0
H588 H 0.98428 0.4485 0.81039 0.0
C589 C 0.92984 0.4004 0.81256 0.0
C590 C 0.92555 0.40887 0.8403 0.0
C591 C 0.94758 0.40361 0.79991 0.0
C592 C 0.99139 0.43421 0.80693 0.0
H593 H 0.08039 0.38575 0.80683 0.0
H594 H 0.04987 0.39263 0.78296 0.0
H595 H 0.01871 0.44767 0.81117 0.0
H596 H 0.93563 0.42861 0.87537 0.0
H597 H 0.96627 0.43444 0.85331 0.0
H598 H 0.98304 0.38384 0.79841 0.0
C599 C 0.0535 0.40051 0.80329 0.0
C600 C 0.01107 0.43373 0.80742 0.0
C601 C 0.07093 0.3966 0.8169 0.0
C602 C 0.93866 0.42176 0.85409 0.0
C603 C 0.95614 0.42526 0.84126 0.0
C604 C 0.99066 0.39798 0.79988 0.0
C605 C 0.04054 0.41379 0.8166 0.0
C606 C 0.02071 0.4152 0.80609 0.0
C607 C 0.96105 0.41572 0.81454 0.0
C608 C 0.98101 0.41619 0.805 0.0
H609 H 0.06613 0.427 0.87761 0.0
H610 H 0.036 0.43385 0.85405 0.0
H611 H 0.01736 0.38297 0.79939 0.0
H612 H 0.91994 0.39038 0.80151 0.0
H613 H 0.95103 0.39606 0.77932 0.0
C614 C 0.56446 0.592 0.27792 0.0
C615 C 0.57505 0.58598 0.30278 0.0
C616 C 0.54481 0.58966 0.27738 0.0
C617 C 0.50546 0.56338 0.31509 0.0
H618 H 0.47656 0.61145 0.29688 0.0
C619 C 0.43607 0.58276 0.37144 0.0
C620 C 0.42149 0.5922 0.35553 0.0
C621 C 0.4533 0.57857 0.35805 0.0
C622 C 0.48434 0.59773 0.3014 0.0
H623 H 0.57334 0.57196 0.34596 0.0
H624 H 0.53936 0.568 0.34504 0.0
H625 H 0.51017 0.61029 0.28554 0.0
H626 H 0.41333 0.60404 0.31271 0.0
H627 H 0.44378 0.59697 0.2893 0.0
H628 H 0.47984 0.55121 0.33232 0.0
C629 C 0.54614 0.57443 0.32587 0.0
C630 C 0.5036 0.59706 0.29491 0.0
C631 C 0.56565 0.5769 0.32652 0.0
C632 C 0.42431 0.59675 0.32553 0.0
C633 C 0.44173 0.59279 0.31218 0.0
C634 C 0.48625 0.56406 0.32163 0.0
C635 C 0.53543 0.58103 0.30152 0.0
C636 C 0.51451 0.58018 0.30277 0.0
C637 C 0.45647 0.58387 0.32846 0.0
C638 C 0.47565 0.58154 0.31591 0.0
H639 H 0.57127 0.59902 0.25924 0.0
H640 H 0.53694 0.5948 0.25825 0.0
H641 H 0.5134 0.54998 0.32082 0.0
H642 H 0.43431 0.57892 0.39452 0.0
H643 H 0.46443 0.57193 0.37131 0.0
C644 C 0.5637 0.40053 0.71606 0.0
C645 C 0.57536 0.40881 0.69422 0.0
C646 C 0.54402 0.40184 0.7134 0.0
C647 C 0.50868 0.40641 0.65438 0.0
H648 H 0.47254 0.41602 0.71697 0.0
C649 C 0.43156 0.41677 0.6257 0.0
C650 C 0.41855 0.40505 0.64135 0.0
C651 C 0.44992 0.41919 0.63614 0.0
C652 C 0.48252 0.41319 0.69938 0.0
H653 H 0.57566 0.42645 0.65396 0.0
H654 H 0.54162 0.42907 0.64969 0.0
H655 H 0.50651 0.41682 0.72826 0.0
H656 H 0.41418 0.38782 0.68133 0.0
H657 H 0.44669 0.3918 0.69948 0.0
H658 H 0.48504 0.40264 0.62552 0.0
C659 C 0.54754 0.42101 0.66834 0.0
C660 C 0.5019 0.41364 0.70582 0.0
C661 C 0.56706 0.41955 0.67084 0.0
C662 C 0.42396 0.39687 0.66876 0.0
C663 C 0.44252 0.39918 0.67917 0.0
C664 C 0.48948 0.40599 0.648 0.0
C665 C 0.53578 0.41155 0.68895 0.0
C666 C 0.51517 0.41055 0.6832 0.0
C667 C 0.45583 0.40978 0.66236 0.0
C668 C 0.47617 0.40968 0.67026 0.0
H669 H 0.56972 0.3922 0.73436 0.0
H670 H 0.5353 0.39442 0.72962 0.0
H671 H 0.51849 0.40335 0.63663 0.0
H672 H 0.42771 0.42363 0.60482 0.0
H673 H 0.45973 0.4279 0.62311 0.0
C674 C 0.06891 0.59775 0.15695 0.0
C675 C 0.07765 0.58764 0.13332 0.0
C676 C 0.05 0.59371 0.1637 0.0
C677 C 0.00775 0.57521 0.12436 0.0
H678 H 0.98339 0.57855 0.20081 0.0
C679 C 0.92906 0.56412 0.12993 0.0
C680 C 0.91917 0.57973 0.14409 0.0
C681 C 0.94828 0.56147 0.13516 0.0
C682 C 0.99006 0.57757 0.17935 0.0
H683 H 0.07438 0.56415 0.1002 0.0
H684 H 0.04189 0.55641 0.11276 0.0
H685 H 0.01795 0.58046 0.19781 0.0
H686 H 0.92115 0.60375 0.17666 0.0
H687 H 0.9551 0.59943 0.1854 0.0
H688 H 0.9802 0.57272 0.10569 0.0
C689 C 0.04916 0.56804 0.12533 0.0
C690 C 0.0098 0.57871 0.17761 0.0
C691 C 0.06781 0.57234 0.11824 0.0
C692 C 0.92848 0.59154 0.16558 0.0
C693 C 0.9479 0.58906 0.17055 0.0
C694 C 0.98821 0.57397 0.1261 0.0
C695 C 0.03971 0.57932 0.14714 0.0
C696 C 0.01887 0.57747 0.15002 0.0
C697 C 0.95813 0.57463 0.15424 0.0
C698 C 0.97908 0.57507 0.15355 0.0
H699 H 0.07626 0.60966 0.16882 0.0
H700 H 0.04316 0.6027 0.18062 0.0
H701 H 0.0141 0.5749 0.10263 0.0
H702 H 0.92213 0.55466 0.1135 0.0
H703 H 0.95568 0.54987 0.12283 0.0
C704 C 0.13156 0.54106 0.08397 0.0
C705 C 0.13372 0.56143 0.07644 0.0
C706 C 0.12863 0.5265 0.06195 0.0
C707 C 0.1381 0.51685 0.98392 0.0
H708 H 0.10247 0.473 0.99307 0.0
C709 C 0.1311 0.45383 0.89618 0.0
C710 C 0.13024 0.43414 0.90735 0.0
C711 C 0.12885 0.47042 0.91507 0.0
C712 C 0.11255 0.4851 0.99027 0.0
H713 H 0.1341 0.58267 0.04013 0.0
H714 H 0.12912 0.55719 0.00166 0.0
H715 H 0.10364 0.50008 0.02993 0.0
H716 H 0.12587 0.41631 0.94677 0.0
H717 H 0.12238 0.44515 0.97976 0.0
H718 H 0.14751 0.50163 0.9449 0.0
C719 C 0.12979 0.55248 0.02455 0.0
C720 C 0.11319 0.50058 0.01135 0.0
C721 C 0.13259 0.56705 0.04657 0.0
C722 C 0.12663 0.43132 0.93754 0.0
C723 C 0.12446 0.44787 0.95641 0.0
C724 C 0.13755 0.50131 0.96296 0.0
C725 C 0.12793 0.53205 0.032 0.0
C726 C 0.12616 0.51645 0.00858 0.0
C727 C 0.12576 0.46762 0.94548 0.0
C728 C 0.12498 0.48509 0.96614 0.0
H729 H 0.1323 0.53633 0.10684 0.0
H730 H 0.12743 0.51082 0.06829 0.0
H731 H 0.14838 0.52879 0.98142 0.0
H732 H 0.13372 0.45642 0.87293 0.0
H733 H 0.12967 0.48545 0.9059 0.0
C734 C 0.67953 0.87967 0.29413 0.0
C735 C 0.68065 0.88255 0.32491 0.0
C736 C 0.69598 0.87913 0.27715 0.0
C737 C 0.74553 0.89585 0.27895 0.0
H738 H 0.75242 0.85624 0.21644 0.0
C739 C 0.81604 0.88772 0.21713 0.0
C740 C 0.81461 0.88619 0.18621 0.0
C741 C 0.79995 0.88589 0.23466 0.0
C742 C 0.75063 0.86747 0.23371 0.0
H743 H 0.69984 0.88685 0.36206 0.0
H744 H 0.72832 0.88581 0.33258 0.0
H745 H 0.72335 0.85617 0.2452 0.0
H746 H 0.79535 0.88094 0.14942 0.0
H747 H 0.7674 0.87787 0.17988 0.0
H748 H 0.77268 0.90728 0.26739 0.0
C749 C 0.71481 0.88421 0.32146 0.0
C750 C 0.73398 0.86746 0.2501 0.0
C751 C 0.69847 0.88467 0.33837 0.0
C752 C 0.79692 0.88226 0.17321 0.0
C753 C 0.7809 0.88035 0.19068 0.0
C754 C 0.76214 0.89587 0.26259 0.0
C755 C 0.71377 0.88157 0.29067 0.0
C756 C 0.73127 0.88165 0.27289 0.0
C757 C 0.78218 0.88239 0.22155 0.0
C758 C 0.76487 0.88171 0.23976 0.0
H759 H 0.66599 0.87798 0.28317 0.0
H760 H 0.69474 0.87721 0.2534 0.0
H761 H 0.74371 0.90718 0.29608 0.0
H762 H 0.8295 0.8907 0.22774 0.0
H763 H 0.80139 0.88731 0.25845 0.0
C764 C 0.36359 0.45697 0.60026 0.0
C765 C 0.36227 0.43735 0.5885 0.0
C766 C 0.36671 0.47337 0.58166 0.0
C767 C 0.38257 0.48652 0.50606 0.0
H768 H 0.35203 0.53436 0.51829 0.0
C769 C 0.36722 0.54442 0.41481 0.0
C770 C 0.36692 0.56495 0.42265 0.0
C771 C 0.36948 0.52971 0.43649 0.0
C772 C 0.36089 0.52125 0.51486 0.0
H773 H 0.36341 0.41943 0.54823 0.0
H774 H 0.36845 0.448 0.51577 0.0
H775 H 0.3507 0.50699 0.5539 0.0
H776 H 0.36934 0.58627 0.45909 0.0
H777 H 0.3732 0.56049 0.49704 0.0
H778 H 0.39226 0.50058 0.46644 0.0
C779 C 0.36744 0.45076 0.53935 0.0
C780 C 0.36015 0.50556 0.53527 0.0
C781 C 0.36438 0.43439 0.55793 0.0
C782 C 0.36941 0.57054 0.45245 0.0
C783 C 0.37156 0.55581 0.47416 0.0
C784 C 0.38324 0.50216 0.48557 0.0
C785 C 0.36853 0.47045 0.55096 0.0
C786 C 0.37073 0.48787 0.53082 0.0
C787 C 0.3714 0.53525 0.46642 0.0
C788 C 0.37216 0.51953 0.48951 0.0
H789 H 0.36214 0.45967 0.6238 0.0
H790 H 0.36771 0.48834 0.59133 0.0
H791 H 0.39118 0.47325 0.5023 0.0
H792 H 0.36537 0.53968 0.39199 0.0
H793 H 0.3691 0.51397 0.4299 0.0
C794 C 0.69667 0.11061 0.66604 0.0
C795 C 0.67916 0.10975 0.68039 0.0
C796 C 0.71345 0.11014 0.68226 0.0
C797 C 0.73352 0.11831 0.75677 0.0
H798 H 0.77413 0.08467 0.72711 0.0
C799 C 0.79961 0.10056 0.82635 0.0
C800 C 0.81717 0.10112 0.81214 0.0
C801 C 0.78289 0.1018 0.81007 0.0
C802 C 0.76302 0.09432 0.73548 0.0
H803 H 0.6655 0.1081 0.72306 0.0
H804 H 0.69494 0.10714 0.75156 0.0
H805 H 0.74451 0.08667 0.69959 0.0
H806 H 0.83099 0.10324 0.76965 0.0
H807 H 0.80165 0.10545 0.74103 0.0
H808 H 0.75203 0.12589 0.79274 0.0
C809 C 0.69563 0.10834 0.7277 0.0
C810 C 0.74604 0.09546 0.71975 0.0
C811 C 0.67878 0.10882 0.71141 0.0
C812 C 0.81767 0.10273 0.78119 0.0
C813 C 0.80088 0.10392 0.76483 0.0
C814 C 0.7505 0.11715 0.77252 0.0
C815 C 0.71315 0.10877 0.71324 0.0
C816 C 0.73111 0.10748 0.7302 0.0
C817 C 0.78331 0.1036 0.77915 0.0
C818 C 0.76543 0.10512 0.76207 0.0
H819 H 0.69746 0.11145 0.64216 0.0
H820 H 0.72668 0.11086 0.67049 0.0
H821 H 0.72239 0.12792 0.76518 0.0
H822 H 0.79872 0.09927 0.85018 0.0
H823 H 0.7696 0.10117 0.82172 0.0
C824 C 0.86682 0.45685 0.90342 0.0
C825 C 0.86976 0.43642 0.90988 0.0
C826 C 0.86638 0.47117 0.9262 0.0
C827 C 0.87865 0.47992 0.00494 0.0
H828 H 0.83819 0.51918 0.00026 0.0
C829 C 0.85957 0.535 0.10073 0.0
C830 C 0.85746 0.55515 0.09194 0.0
C831 C 0.86107 0.51967 0.07942 0.0
C832 C 0.8496 0.50835 0.00179 0.0
H833 H 0.87543 0.41499 0.94493 0.0
H834 H 0.87444 0.43993 0.98466 0.0
H835 H 0.84204 0.49452 0.96059 0.0
H836 H 0.85503 0.57513 0.05425 0.0
H837 H 0.85752 0.5485 0.01734 0.0
H838 H 0.8861 0.49385 0.04634 0.0
C839 C 0.8726 0.44495 0.96207 0.0
C840 C 0.85188 0.49432 0.97901 0.0
C841 C 0.87307 0.43066 0.93931 0.0
C842 C 0.85665 0.55972 0.06168 0.0
C843 C 0.85796 0.54447 0.04052 0.0
C844 C 0.87632 0.49395 0.02783 0.0
C845 C 0.86884 0.46528 0.95582 0.0
C846 C 0.86655 0.4801 0.98017 0.0
C847 C 0.86022 0.52432 0.04914 0.0
C848 C 0.86189 0.50843 0.02625 0.0
H849 H 0.86435 0.46172 0.8809 0.0
H850 H 0.86382 0.48681 0.92067 0.0
H851 H 0.89015 0.4692 0.00636 0.0
H852 H 0.86028 0.53113 0.12395 0.0
H853 H 0.86272 0.5042 0.08658 0.0
C854 C 0.17733 0.1023 0.78632 0.0
C855 C 0.17873 0.10056 0.8172 0.0
C856 C 0.19357 0.10467 0.76927 0.0
C857 C 0.24411 0.11882 0.77402 0.0
H858 H 0.24859 0.08542 0.70368 0.0
C859 C 0.31511 0.10411 0.71474 0.0
C860 C 0.3147 0.10318 0.6837 0.0
C861 C 0.29829 0.10577 0.73066 0.0
C862 C 0.24748 0.09508 0.72303 0.0
H863 H 0.19816 0.10039 0.8545 0.0
H864 H 0.22637 0.10431 0.82483 0.0
H865 H 0.21936 0.08516 0.73159 0.0
H866 H 0.29647 0.10399 0.64495 0.0
H867 H 0.26734 0.10711 0.67259 0.0
H868 H 0.27239 0.12852 0.76559 0.0
C869 C 0.21278 0.10406 0.81375 0.0
C870 C 0.2307 0.09494 0.73899 0.0
C871 C 0.1966 0.10165 0.83073 0.0
C872 C 0.29726 0.10448 0.66889 0.0
C873 C 0.28053 0.10617 0.68472 0.0
C874 C 0.26092 0.11896 0.75802 0.0
C875 C 0.21149 0.10541 0.78281 0.0
C876 C 0.22888 0.10667 0.76481 0.0
C877 C 0.2808 0.10654 0.71578 0.0
C878 C 0.26283 0.10698 0.73245 0.0
H879 H 0.16373 0.10161 0.7753 0.0
H880 H 0.19211 0.10588 0.74548 0.0
H881 H 0.24304 0.12824 0.79362 0.0
H882 H 0.32834 0.10315 0.72674 0.0
H883 H 0.29896 0.10587 0.7546 0.0
C884 C 0.61614 0.55857 0.43434 0.0
C885 C 0.61826 0.55236 0.4048 0.0
C886 C 0.61382 0.54432 0.45667 0.0
C887 C 0.62349 0.4906 0.47177 0.0
H888 H 0.59359 0.50077 0.54186 0.0
C889 C 0.61672 0.43192 0.56446 0.0
C890 C 0.62013 0.43938 0.59316 0.0
C891 C 0.61402 0.4452 0.54093 0.0
C892 C 0.60202 0.49777 0.5224 0.0
H893 H 0.6186 0.5265 0.37517 0.0
H894 H 0.61402 0.50169 0.41392 0.0
H895 H 0.59294 0.52494 0.50128 0.0
H896 H 0.62275 0.46653 0.61996 0.0
H897 H 0.618 0.48969 0.57886 0.0
H898 H 0.63261 0.46351 0.49293 0.0
C899 C 0.61471 0.51749 0.42006 0.0
C900 C 0.6017 0.51162 0.49922 0.0
C901 C 0.61723 0.53172 0.39782 0.0
C902 C 0.62022 0.46034 0.59805 0.0
C903 C 0.61737 0.4736 0.57457 0.0
C904 C 0.62368 0.47671 0.49482 0.0
C905 C 0.61338 0.52357 0.44984 0.0
C906 C 0.61261 0.50831 0.47376 0.0
C907 C 0.61452 0.46617 0.54571 0.0
C908 C 0.61313 0.48026 0.5205 0.0
H909 H 0.61691 0.5744 0.44037 0.0
H910 H 0.61305 0.54955 0.47938 0.0
H911 H 0.63237 0.48773 0.4528 0.0
H912 H 0.61651 0.41584 0.56004 0.0
H913 H 0.61168 0.43907 0.51894 0.0
C914 C 0.3026 0.90185 0.32636 0.0
C915 C 0.31903 0.90337 0.30931 0.0
C916 C 0.28493 0.90087 0.31276 0.0
C917 C 0.26122 0.88748 0.24326 0.0
H918 H 0.22097 0.92163 0.27276 0.0
C919 C 0.19173 0.89826 0.1792 0.0
C920 C 0.17492 0.9 0.19526 0.0
C921 C 0.2091 0.89781 0.19378 0.0
C922 C 0.23195 0.91175 0.26455 0.0
H923 H 0.32992 0.90485 0.26467 0.0
H924 H 0.29887 0.90304 0.24077 0.0
H925 H 0.25187 0.9226 0.29668 0.0
H926 H 0.16301 0.90227 0.23919 0.0
H927 H 0.19343 0.90108 0.26487 0.0
H928 H 0.24133 0.87646 0.21131 0.0
C929 C 0.29975 0.90258 0.26469 0.0
C930 C 0.24966 0.91238 0.27817 0.0
C931 C 0.31747 0.90373 0.27834 0.0
C932 C 0.17577 0.90105 0.22626 0.0
C933 C 0.19319 0.90046 0.24092 0.0
C934 C 0.24347 0.88673 0.22976 0.0
C935 C 0.28332 0.90124 0.28181 0.0
C936 C 0.26449 0.90035 0.26753 0.0
C937 C 0.21006 0.89894 0.22481 0.0
C938 C 0.22866 0.89899 0.24009 0.0
H939 H 0.30337 0.9015 0.3503 0.0
H940 H 0.27251 0.89962 0.32647 0.0
H941 H 0.27234 0.87782 0.23491 0.0
H942 H 0.19153 0.89751 0.15525 0.0
H943 H 0.2218 0.89699 0.18065 0.0
C944 C 0.62577 0.06786 0.55125 0.0
C945 C 0.62926 0.06371 0.5812 0.0
C946 C 0.623 0.05213 0.53098 0.0
C947 C 0.61203 -0.00232 0.52464 0.0
H948 H 0.64139 0.00087 0.45275 0.0
C949 C 0.62961 0.9282 0.45237 0.0
C950 C 0.63071 0.93074 0.42163 0.0
C951 C 0.62652 0.9448 0.47092 0.0
C952 C 0.6328 -0.00014 0.47242 0.0
H953 H 0.63192 0.03994 0.61371 0.0
H954 H 0.62726 0.01246 0.57828 0.0
H955 H 0.64095 0.02938 0.48683 0.0
H956 H 0.62856 0.95239 0.386 0.0
H957 H 0.62287 0.9813 0.41831 0.0
H958 H 0.60414 0.96797 0.51037 0.0
C959 C 0.62652 0.02786 0.57046 0.0
C960 C 0.63257 0.01622 0.49198 0.0
C961 C 0.62934 0.04359 0.59071 0.0
C962 C 0.628 0.95002 0.40967 0.0
C963 C 0.62481 0.96659 0.42819 0.0
C964 C 0.61221 0.98131 0.505 0.0
C965 C 0.62361 0.03195 0.54031 0.0
C966 C 0.62241 0.0152 0.5185 0.0
C967 C 0.62437 0.96424 0.45906 0.0
C968 C 0.62283 0.98211 0.47886 0.0
H969 H 0.62548 0.08325 0.54334 0.0
H970 H 0.62055 0.05574 0.50794 0.0
H971 H 0.60387 0.99658 0.54475 0.0
H972 H 0.6316 0.91348 0.46217 0.0
H973 H 0.62646 0.94249 0.49462 0.0
C974 C 0.29784 0.38376 0.67065 0.0
C975 C 0.31562 0.38502 0.68443 0.0
C976 C 0.28152 0.38216 0.68744 0.0
C977 C 0.26329 0.36857 0.76059 0.0
H978 H 0.22093 0.40176 0.73623 0.0
C979 C 0.19611 0.37964 0.83093 0.0
C980 C 0.17871 0.38047 0.81591 0.0
C981 C 0.21298 0.37876 0.81523 0.0
C982 C 0.23252 0.39218 0.74308 0.0
H983 H 0.33031 0.3851 0.72663 0.0
H984 H 0.30155 0.38245 0.75623 0.0
H985 H 0.25034 0.40332 0.70895 0.0
H986 H 0.16527 0.38034 0.7727 0.0
H987 H 0.19477 0.37863 0.74519 0.0
H988 H 0.24537 0.35753 0.79487 0.0
C989 C 0.30035 0.38258 0.73233 0.0
C990 C 0.2494 0.39311 0.7275 0.0
C991 C 0.31678 0.38417 0.71543 0.0
C992 C 0.17847 0.3798 0.78487 0.0
C993 C 0.19536 0.37895 0.76914 0.0
C994 C 0.24635 0.36764 0.77623 0.0
C995 C 0.28254 0.38184 0.71845 0.0
C996 C 0.26492 0.38122 0.73592 0.0
C997 C 0.21281 0.37872 0.78416 0.0
C998 C 0.23076 0.37937 0.76751 0.0
H999 H 0.29644 0.38417 0.64679 0.0
H1000 H 0.26806 0.38121 0.67606 0.0
H1001 H 0.27496 0.35911 0.76743 0.0
H1002 H 0.19676 0.38011 0.85488 0.0
H1003 H 0.22617 0.37878 0.82744 0.0
C1004 C 0.8727 0.06691 0.94352 0.0
C1005 C 0.86993 0.06096 0.91392 0.0
C1006 C 0.87455 0.0525 0.96564 0.0
C1007 C 0.88345 -0.00134 0.97991 0.0
H1008 H 0.84992 0.00726 0.04634 0.0
C1009 C 0.86044 0.93438 0.0557 0.0
C1010 C 0.85835 0.93835 0.08604 0.0
C1011 C 0.86423 0.94999 0.03616 0.0
C1012 C 0.85963 0.00478 0.02827 0.0
H1013 H 0.8679 0.03537 0.88395 0.0
H1014 H 0.87101 0.01008 0.92276 0.0
H1015 H 0.85321 0.0334 0.00921 0.0
H1016 H 0.85879 0.96166 0.11991 0.0
H1017 H 0.86562 0.98906 0.08569 0.0
H1018 H 0.88967 0.9699 0.9988 0.0
C1019 C 0.87185 0.0259 0.92879 0.0
C1020 C 0.86151 0.01975 0.00699 0.0
C1021 C 0.86997 0.04035 0.90661 0.0
C1022 C 0.8602 0.95823 0.09657 0.0
C1023 C 0.86408 0.97388 0.07699 0.0
C1024 C 0.88166 0.98372 0.00131 0.0
C1025 C 0.87369 0.03187 0.95857 0.0
C1026 C 0.87319 0.0167 0.98236 0.0
C1027 C 0.86612 0.96991 0.04656 0.0
C1028 C 0.86945 0.98648 0.02542 0.0
H1029 H 0.87291 0.08272 0.94977 0.0
H1030 H 0.87623 0.05749 0.98837 0.0
H1031 H 0.89273 0.99605 0.96133 0.0
H1032 H 0.85903 0.91919 0.04695 0.0
H1033 H 0.86534 0.94647 0.0128 0.0
C1034 C 0.19809 0.60272 0.17161 0.0
C1035 C 0.18009 0.60346 0.18439 0.0
C1036 C 0.21425 0.60289 0.18928 0.0
C1037 C 0.23232 0.61744 0.26251 0.0
H1038 H 0.27338 0.58138 0.24191 0.0
C1039 C 0.29913 0.60853 0.33524 0.0
C1040 C 0.31654 0.60679 0.32072 0.0
C1041 C 0.28225 0.60831 0.31919 0.0
C1042 C 0.26215 0.59172 0.24774 0.0
H1043 H 0.1649 0.60512 0.2258 0.0
H1044 H 0.19337 0.60546 0.25694 0.0
H1045 H 0.24404 0.58014 0.21362 0.0
H1046 H 0.32993 0.60379 0.27794 0.0
H1047 H 0.30039 0.60358 0.24978 0.0
H1048 H 0.25051 0.62911 0.29652 0.0
C1049 C 0.19487 0.60481 0.23312 0.0
C1050 C 0.24531 0.59096 0.2316 0.0
C1051 C 0.17859 0.60453 0.21534 0.0
C1052 C 0.31673 0.60509 0.28975 0.0
C1053 C 0.29981 0.60485 0.27366 0.0
C1054 C 0.2492 0.61822 0.27866 0.0
C1055 C 0.21286 0.60385 0.22021 0.0
C1056 C 0.23027 0.60393 0.23862 0.0
C1057 C 0.28237 0.60633 0.28823 0.0
C1058 C 0.26436 0.60546 0.2713 0.0
H1059 H 0.19977 0.60193 0.14782 0.0
H1060 H 0.2279 0.60248 0.17863 0.0
H1061 H 0.22106 0.62778 0.26823 0.0
H1062 H 0.2985 0.60984 0.35911 0.0
H1063 H 0.26908 0.60925 0.33112 0.0
C1064 C 0.36601 0.03075 0.60191 0.0
C1065 C 0.36528 0.05049 0.59083 0.0
C1066 C 0.3709 0.01462 0.58332 0.0
C1067 C 0.39306 0.00316 0.51087 0.0
H1068 H 0.36056 0.95612 0.51064 0.0
C1069 C 0.37902 0.95478 0.40798 0.0
C1070 C 0.37756 0.93377 0.41086 0.0
C1071 C 0.38148 0.96701 0.43293 0.0
C1072 C 0.37001 0.96896 0.51081 0.0
H1073 H 0.36922 0.06888 0.55183 0.0
H1074 H 0.37743 0.04091 0.51954 0.0
H1075 H 0.35741 0.98145 0.54975 0.0
H1076 H 0.37805 0.90898 0.44194 0.0
H1077 H 0.38207 0.93051 0.48577 0.0
H1078 H 0.405 0.99114 0.4711 0.0
C1079 C 0.37459 0.03781 0.54258 0.0
C1080 C 0.36822 0.98346 0.53321 0.0
C1081 C 0.3697 0.05385 0.56105 0.0
C1082 C 0.37912 0.92515 0.43909 0.0
C1083 C 0.38135 0.93744 0.46415 0.0
C1084 C 0.39477 0.98874 0.48843 0.0
C1085 C 0.3752 0.01801 0.55343 0.0
C1086 C 0.37929 0.00104 0.53288 0.0
C1087 C 0.38235 0.9585 0.46129 0.0
C1088 C 0.38285 0.97184 0.48766 0.0
H1089 H 0.36276 0.02776 0.62484 0.0
H1090 H 0.37133 -0.00048 0.59233 0.0
H1091 H 0.40209 0.01633 0.51042 0.0
H1092 H 0.37794 0.96183 0.38649 0.0
H1093 H 0.38196 0.98321 0.43009 0.0
C1094 C 0.80152 0.61219 0.18294 0.0
C1095 C 0.81888 0.60681 0.19579 0.0
C1096 C 0.78504 0.61179 0.19943 0.0
C1097 C 0.76433 0.61162 0.27295 0.0
H1098 H 0.72494 0.58048 0.23395 0.0
C1099 C 0.69391 0.59152 0.33007 0.0
C1100 C 0.67748 0.59157 0.3125 0.0
C1101 C 0.71162 0.5939 0.31721 0.0
C1102 C 0.73564 0.58947 0.24501 0.0
H1103 H 0.83281 0.59809 0.23657 0.0
H1104 H 0.80364 0.59747 0.26576 0.0
H1105 H 0.75525 0.58463 0.20998 0.0
H1106 H 0.66663 0.59462 0.26785 0.0
H1107 H 0.69747 0.59929 0.24541 0.0
H1108 H 0.74452 0.61684 0.30777 0.0
C1109 C 0.80297 0.60191 0.24276 0.0
C1110 C 0.75305 0.59175 0.23133 0.0
C1111 C 0.8196 0.60227 0.22611 0.0
C1112 C 0.67906 0.59432 0.28189 0.0
C1113 C 0.69676 0.59689 0.26905 0.0
C1114 C 0.74676 0.60951 0.2866 0.0
C1115 C 0.78548 0.60603 0.22921 0.0
C1116 C 0.76748 0.60301 0.24497 0.0
C1117 C 0.71329 0.59654 0.28652 0.0
C1118 C 0.73214 0.59855 0.27261 0.0
H1119 H 0.80051 0.61608 0.15974 0.0
H1120 H 0.77179 0.61545 0.18862 0.0
H1121 H 0.77524 0.62043 0.28386 0.0
H1122 H 0.69311 0.58939 0.35377 0.0
H1123 H 0.72402 0.59328 0.33129 0.0
C1124 C 0.11815 0.92217 0.06225 0.0
C1125 C 0.11935 0.93078 0.09071 0.0
C1126 C 0.11626 0.93447 0.03739 0.0
C1127 C 0.10261 0.98564 0.01408 0.0
H1128 H 0.13998 0.97864 0.95255 0.0
C1129 C 0.12642 0.05081 0.94192 0.0
C1130 C 0.13049 0.0474 0.91196 0.0
C1131 C 0.12206 0.03477 0.96038 0.0
C1132 C 0.12918 0.98056 0.96917 0.0
H1133 H 0.11883 0.95885 0.11562 0.0
H1134 H 0.11539 0.98025 0.07236 0.0
H1135 H 0.13716 0.95336 0.99133 0.0
H1136 H 0.13305 0.02456 0.87766 0.0
H1137 H 0.1254 0.9963 0.91016 0.0
H1138 H 0.09495 0.01307 0.9925 0.0
C1139 C 0.11589 0.96404 0.06921 0.0
C1140 C 0.12758 0.9661 0.99138 0.0
C1141 C 0.11801 0.9518 0.09396 0.0
C1142 C 0.13002 0.02759 0.90072 0.0
C1143 C 0.12567 0.01145 0.9193 0.0
C1144 C 0.10414 1e-05 0.99185 0.0
C1145 C 0.11524 0.95553 0.04066 0.0
C1146 C 0.11471 0.96888 0.01457 0.0
C1147 C 0.12164 0.01491 0.94933 0.0
C1148 C 0.11789 -0.002 0.96977 0.0
H1149 H 0.11915 0.90599 0.05912 0.0
H1150 H 0.11572 0.92755 0.01561 0.0
H1151 H 0.09235 0.98794 0.03143 0.0
H1152 H 0.12673 0.0659 0.95128 0.0
H1153 H 0.11942 0.03792 0.98353 0.0
C1154 C 0.69433 0.4009 0.67537 0.0
C1155 C 0.67778 0.40314 0.69197 0.0
C1156 C 0.7118 0.39907 0.68947 0.0
C1157 C 0.73575 0.41004 0.76033 0.0
H1158 H 0.7737 0.37311 0.73041 0.0
C1159 C 0.80336 0.39301 0.82539 0.0
C1160 C 0.82042 0.39334 0.80974 0.0
C1161 C 0.78616 0.39342 0.81039 0.0
C1162 C 0.76329 0.38361 0.7388 0.0
H1163 H 0.66642 0.40487 0.73632 0.0
H1164 H 0.69693 0.40136 0.76106 0.0
H1165 H 0.74296 0.37504 0.70586 0.0
H1166 H 0.83285 0.39382 0.76606 0.0
H1167 H 0.80256 0.39455 0.73965 0.0
H1168 H 0.756 0.4185 0.79337 0.0
C1169 C 0.69646 0.40138 0.73711 0.0
C1170 C 0.7457 0.38474 0.72478 0.0
C1171 C 0.67897 0.4033 0.72297 0.0
C1172 C 0.81992 0.39359 0.77868 0.0
C1173 C 0.80261 0.39392 0.76359 0.0
C1174 C 0.75327 0.40885 0.77439 0.0
C1175 C 0.71308 0.39936 0.7205 0.0
C1176 C 0.73172 0.39795 0.73545 0.0
C1177 C 0.78558 0.39413 0.77938 0.0
C1178 C 0.76719 0.39558 0.76385 0.0
H1179 H 0.69385 0.40076 0.65141 0.0
H1180 H 0.72434 0.39781 0.67603 0.0
H1181 H 0.72545 0.42067 0.76874 0.0
H1182 H 0.80324 0.39268 0.84934 0.0
H1183 H 0.77326 0.39322 0.82311 0.0
loop_
_geom_bond_atom_site_label_1
_geom_bond_atom_site_label_2
_geom_bond_distance
_geom_bond_site_symmetry_2
_ccdc_geom_bond_type
Co0 O1 2.216 . S
Co0 O2 2.091 . S
Co0 O4 2.004 . S
Co0 O10 2.021 . S
Co0 O12 2.137 . S
Co0 O13 2.244 . S
O1 Co0 2.216 . S
O1 C8 1.247 . S
O2 Co0 2.091 . S
O2 C8 1.261 . S
C3 O12 1.247 . S
C3 O13 1.272 . S
O4 Co0 2.004 . S
O4 C9 1.259 . S
Co5 O6 2.061 . S
Co5 O11 2.052 . S
Co5 O13 2.135 . S
O6 Co5 2.061 . S
O6 C9 1.235 . S
C7 O10 1.238 . S
C7 O11 1.241 . S
C8 O1 1.247 . S
C8 O2 1.261 . S
C9 O4 1.259 . S
C9 O6 1.235 . S
O10 Co0 2.021 . S
O10 C7 1.238 . S
O11 Co5 2.052 . S
O11 C7 1.241 . S
O12 Co0 2.137 . S
O12 C3 1.247 . S
O13 Co0 2.244 . S
O13 C3 1.272 . S
O13 Co5 2.135 . S
Co14 O15 2.216 . S
Co14 O16 2.091 . S
Co14 O18 2.004 . S
Co14 O24 2.021 . S
Co14 O26 2.137 . S
Co14 O27 2.244 . S
O15 Co14 2.216 . S
O15 C22 1.247 . S
O16 Co14 2.091 . S
O16 C22 1.261 . S
C17 O26 1.247 . S
C17 O27 1.272 . S
O18 Co14 2.004 . S
O18 C23 1.259 . S
Co19 O20 2.061 . S
Co19 O25 2.052 . S
Co19 O27 2.135 . S
O20 Co19 2.061 . S
O20 C23 1.235 . S
C21 O24 1.238 . S
C21 O25 1.241 . S
C22 O15 1.247 . S
C22 O16 1.261 . S
C23 O18 1.259 . S
C23 O20 1.235 . S
O24 Co14 2.021 . S
O24 C21 1.238 . S
O25 Co19 2.052 . S
O25 C21 1.241 . S
O26 Co14 2.137 . S
O26 C17 1.247 . S
O27 Co14 2.244 . S
O27 C17 1.272 . S
O27 Co19 2.135 . S
Co28 O29 2.216 . S
Co28 O30 2.091 . S
Co28 O32 2.004 . S
Co28 O38 2.021 . S
Co28 O40 2.137 . S
Co28 O41 2.244 . S
O29 Co28 2.216 . S
O29 C36 1.247 . S
O30 Co28 2.091 . S
O30 C36 1.261 . S
C31 O40 1.247 . S
C31 O41 1.272 . S
O32 Co28 2.004 . S
O32 C37 1.259 . S
Co33 O34 2.061 . S
Co33 O39 2.052 . S
Co33 O41 2.135 . S
O34 Co33 2.061 . S
O34 C37 1.235 . S
C35 O38 1.238 . S
C35 O39 1.241 . S
C36 O29 1.247 . S
C36 O30 1.261 . S
C37 O32 1.259 . S
C37 O34 1.235 . S
O38 Co28 2.021 . S
O38 C35 1.238 . S
O39 Co33 2.052 . S
O39 C35 1.241 . S
O40 Co28 2.137 . S
O40 C31 1.247 . S
O41 Co28 2.244 . S
O41 C31 1.272 . S
O41 Co33 2.135 . S
Co42 O43 2.216 . S
Co42 O44 2.091 . S
Co42 O46 2.004 . S
Co42 O52 2.021 . S
Co42 O54 2.137 . S
Co42 O55 2.244 . S
O43 Co42 2.216 . S
O43 C50 1.247 . S
O44 Co42 2.091 . S
O44 C50 1.261 . S
C45 O54 1.247 . S
C45 O55 1.272 . S
O46 Co42 2.004 . S
O46 C51 1.259 . S
Co47 O48 2.061 . S
Co47 O53 2.052 . S
Co47 O55 2.135 . S
O48 Co47 2.061 . S
O48 C51 1.235 . S
C49 O52 1.238 . S
C49 O53 1.241 . S
C50 O43 1.247 . S
C50 O44 1.261 . S
C51 O46 1.259 . S
C51 O48 1.235 . S
O52 Co42 2.021 . S
O52 C49 1.238 . S
O53 Co47 2.052 . S
O53 C49 1.241 . S
O54 Co42 2.137 . S
O54 C45 1.247 . S
O55 Co42 2.244 . S
O55 C45 1.272 . S
O55 Co47 2.135 . S
Co56 O57 2.216 . S
Co56 O58 2.091 . S
Co56 O60 2.004 . S
Co56 O66 2.021 . S
Co56 O68 2.137 . S
Co56 O69 2.244 . S
O57 Co56 2.216 . S
O57 C64 1.247 . S
O58 Co56 2.091 . S
O58 C64 1.261 . S
C59 O68 1.247 . S
C59 O69 1.272 . S
O60 Co56 2.004 . S
O60 C65 1.259 . S
Co61 O62 2.061 . S
Co61 O67 2.052 . S
Co61 O69 2.135 . S
O62 Co61 2.061 . S
O62 C65 1.235 . S
C63 O66 1.238 . S
C63 O67 1.241 . S
C64 O57 1.247 . S
C64 O58 1.261 . S
C65 O60 1.259 . S
C65 O62 1.235 . S
O66 Co56 2.021 . S
O66 C63 1.238 . S
O67 Co61 2.052 . S
O67 C63 1.241 . S
O68 Co56 2.137 . S
O68 C59 1.247 . S
O69 Co56 2.244 . S
O69 C59 1.272 . S
O69 Co61 2.135 . S
Co70 O71 2.216 . S
Co70 O72 2.091 . S
Co70 O74 2.004 . S
Co70 O80 2.021 . S
Co70 O82 2.137 . S
Co70 O83 2.244 . S
O71 Co70 2.216 . S
O71 C78 1.247 . S
O72 Co70 2.091 . S
O72 C78 1.261 . S
C73 O82 1.247 . S
C73 O83 1.272 . S
O74 Co70 2.004 . S
O74 C79 1.259 . S
Co75 O76 2.061 . S
Co75 O81 2.052 . S
Co75 O83 2.135 . S
O76 Co75 2.061 . S
O76 C79 1.235 . S
C77 O80 1.238 . S
C77 O81 1.241 . S
C78 O71 1.247 . S
C78 O72 1.261 . S
C79 O74 1.259 . S
C79 O76 1.235 . S
O80 Co70 2.021 . S
O80 C77 1.238 . S
O81 Co75 2.052 . S
O81 C77 1.241 . S
O82 Co70 2.137 . S
O82 C73 1.247 . S
O83 Co70 2.244 . S
O83 C73 1.272 . S
O83 Co75 2.135 . S
Co84 O85 2.216 . S
Co84 O86 2.091 . S
Co84 O88 2.004 . S
Co84 O94 2.021 . S
Co84 O96 2.137 . S
Co84 O97 2.244 . S
O85 Co84 2.216 . S
O85 C92 1.247 . S
O86 Co84 2.091 . S
O86 C92 1.261 . S
C87 O96 1.247 . S
C87 O97 1.272 . S
O88 Co84 2.004 . S
O88 C93 1.259 . S
Co89 O90 2.061 . S
Co89 O95 2.052 . S
Co89 O97 2.135 . S
O90 Co89 2.061 . S
O90 C93 1.235 . S
C91 O94 1.238 . S
C91 O95 1.241 . S
C92 O85 1.247 . S
C92 O86 1.261 . S
C93 O88 1.259 . S
C93 O90 1.235 . S
O94 Co84 2.021 . S
O94 C91 1.238 . S
O95 Co89 2.052 . S
O95 C91 1.241 . S
O96 Co84 2.137 . S
O96 C87 1.247 . S
O97 Co84 2.244 . S
O97 C87 1.272 . S
O97 Co89 2.135 . S
Co98 O99 2.216 . S
Co98 O100 2.091 . S
Co98 O102 2.004 . S
Co98 O108 2.021 . S
Co98 O110 2.137 . S
Co98 O111 2.244 . S
O99 Co98 2.216 . S
O99 C106 1.247 . S
O100 Co98 2.091 . S
O100 C106 1.261 . S
C101 O110 1.247 . S
C101 O111 1.272 . S
O102 Co98 2.004 . S
O102 C107 1.259 . S
Co103 O104 2.061 . S
Co103 O109 2.052 . S
Co103 O111 2.135 . S
O104 Co103 2.061 . S
O104 C107 1.235 . S
C105 O108 1.238 . S
C105 O109 1.241 . S
C106 O99 1.247 . S
C106 O100 1.261 . S
C107 O102 1.259 . S
C107 O104 1.235 . S
O108 Co98 2.021 . S
O108 C105 1.238 . S
O109 Co103 2.052 . S
O109 C105 1.241 . S
O110 Co98 2.137 . S
O110 C101 1.247 . S
O111 Co98 2.244 . S
O111 C101 1.272 . S
O111 Co103 2.135 . S
Co112 O113 2.216 . S
Co112 O114 2.091 . S
Co112 O116 2.004 . S
Co112 O122 2.021 . S
Co112 O124 2.137 . S
Co112 O125 2.244 . S
O113 Co112 2.216 . S
O113 C120 1.247 . S
O114 Co112 2.091 . S
O114 C120 1.261 . S
C115 O124 1.247 . S
C115 O125 1.272 . S
O116 Co112 2.004 . S
O116 C121 1.259 . S
Co117 O118 2.061 . S
Co117 O123 2.052 . S
Co117 O125 2.135 . S
O118 Co117 2.061 . S
O118 C121 1.235 . S
C119 O122 1.238 . S
C119 O123 1.241 . S
C120 O113 1.247 . S
C120 O114 1.261 . S
C121 O116 1.259 . S
C121 O118 1.235 . S
O122 Co112 2.021 . S
O122 C119 1.238 . S
O123 Co117 2.052 . S
O123 C119 1.241 . S
O124 Co112 2.137 . S
O124 C115 1.247 . S
O125 Co112 2.244 . S
O125 C115 1.272 . S
O125 Co117 2.135 . S
Co126 O127 2.216 . S
Co126 O128 2.091 . S
Co126 O130 2.004 . S
Co126 O136 2.021 . S
Co126 O138 2.137 . S
Co126 O139 2.244 . S
O127 Co126 2.216 . S
O127 C134 1.247 . S
O128 Co126 2.091 . S
O128 C134 1.261 . S
C129 O138 1.247 . S
C129 O139 1.272 . S
O130 Co126 2.004 . S
O130 C135 1.259 . S
Co131 O132 2.061 . S
Co131 O137 2.052 . S
Co131 O139 2.135 . S
O132 Co131 2.061 . S
O132 C135 1.235 . S
C133 O136 1.238 . S
C133 O137 1.241 . S
C134 O127 1.247 . S
C134 O128 1.261 . S
C135 O130 1.259 . S
C135 O132 1.235 . S
O136 Co126 2.021 . S
O136 C133 1.238 . S
O137 Co131 2.052 . S
O137 C133 1.241 . S
O138 Co126 2.137 . S
O138 C129 1.247 . S
O139 Co126 2.244 . S
O139 C129 1.272 . S
O139 Co131 2.135 . S
Co140 O141 2.216 . S
Co140 O142 2.091 . S
Co140 O144 2.004 . S
Co140 O150 2.021 . S
Co140 O152 2.137 . S
Co140 O153 2.244 . S
O141 Co140 2.216 . S
O141 C148 1.247 . S
O142 Co140 2.091 . S
O142 C148 1.261 . S
C143 O152 1.247 . S
C143 O153 1.272 . S
O144 Co140 2.004 . S
O144 C149 1.259 . S
Co145 O146 2.061 . S
Co145 O151 2.052 . S
Co145 O153 2.135 . S
O146 Co145 2.061 . S
O146 C149 1.235 . S
C147 O150 1.238 . S
C147 O151 1.241 . S
C148 O141 1.247 . S
C148 O142 1.261 . S
C149 O144 1.259 . S
C149 O146 1.235 . S
O150 Co140 2.021 . S
O150 C147 1.238 . S
O151 Co145 2.052 . S
O151 C147 1.241 . S
O152 Co140 2.137 . S
O152 C143 1.247 . S
O153 Co140 2.244 . S
O153 C143 1.272 . S
O153 Co145 2.135 . S
Co154 O155 2.216 . S
Co154 O156 2.091 . S
Co154 O158 2.004 . S
Co154 O164 2.021 . S
Co154 O166 2.137 . S
Co154 O167 2.244 . S
O155 Co154 2.216 . S
O155 C162 1.247 . S
O156 Co154 2.091 . S
O156 C162 1.261 . S
C157 O166 1.247 . S
C157 O167 1.272 . S
O158 Co154 2.004 . S
O158 C163 1.259 . S
Co159 O160 2.061 . S
Co159 O165 2.052 . S
Co159 O167 2.135 . S
O160 Co159 2.061 . S
O160 C163 1.235 . S
C161 O164 1.238 . S
C161 O165 1.241 . S
C162 O155 1.247 . S
C162 O156 1.261 . S
C163 O158 1.259 . S
C163 O160 1.235 . S
O164 Co154 2.021 . S
O164 C161 1.238 . S
O165 Co159 2.052 . S
O165 C161 1.241 . S
O166 Co154 2.137 . S
O166 C157 1.247 . S
O167 Co154 2.244 . S
O167 C157 1.272 . S
O167 Co159 2.135 . S
Co168 O169 2.216 . S
Co168 O170 2.091 . S
Co168 O172 2.004 . S
Co168 O178 2.021 . S
Co168 O180 2.137 . S
Co168 O181 2.244 . S
O169 Co168 2.216 . S
O169 C176 1.247 . S
O170 Co168 2.091 . S
O170 C176 1.261 . S
C171 O180 1.247 . S
C171 O181 1.272 . S
O172 Co168 2.004 . S
O172 C177 1.259 . S
Co173 O174 2.061 . S
Co173 O179 2.052 . S
Co173 O181 2.135 . S
O174 Co173 2.061 . S
O174 C177 1.235 . S
C175 O178 1.238 . S
C175 O179 1.241 . S
C176 O169 1.247 . S
C176 O170 1.261 . S
C177 O172 1.259 . S
C177 O174 1.235 . S
O178 Co168 2.021 . S
O178 C175 1.238 . S
O179 Co173 2.052 . S
O179 C175 1.241 . S
O180 Co168 2.137 . S
O180 C171 1.247 . S
O181 Co168 2.244 . S
O181 C171 1.272 . S
O181 Co173 2.135 . S
Co182 O183 2.216 . S
Co182 O184 2.091 . S
Co182 O186 2.004 . S
Co182 O192 2.021 . S
Co182 O194 2.137 . S
Co182 O195 2.244 . S
O183 Co182 2.216 . S
O183 C190 1.247 . S
O184 Co182 2.091 . S
O184 C190 1.261 . S
C185 O194 1.247 . S
C185 O195 1.272 . S
O186 Co182 2.004 . S
O186 C191 1.259 . S
Co187 O188 2.061 . S
Co187 O193 2.052 . S
Co187 O195 2.135 . S
O188 Co187 2.061 . S
O188 C191 1.235 . S
C189 O192 1.238 . S
C189 O193 1.241 . S
C190 O183 1.247 . S
C190 O184 1.261 . S
C191 O186 1.259 . S
C191 O188 1.235 . S
O192 Co182 2.021 . S
O192 C189 1.238 . S
O193 Co187 2.052 . S
O193 C189 1.241 . S
O194 Co182 2.137 . S
O194 C185 1.247 . S
O195 Co182 2.244 . S
O195 C185 1.272 . S
O195 Co187 2.135 . S
Co196 O197 2.216 . S
Co196 O198 2.091 . S
Co196 O200 2.004 . S
Co196 O206 2.021 . S
Co196 O208 2.137 . S
Co196 O209 2.244 . S
O197 Co196 2.216 . S
O197 C204 1.247 . S
O198 Co196 2.091 . S
O198 C204 1.261 . S
C199 O208 1.247 . S
C199 O209 1.272 . S
O200 Co196 2.004 . S
O200 C205 1.259 . S
Co201 O202 2.061 . S
Co201 O207 2.052 . S
Co201 O209 2.135 . S
O202 Co201 2.061 . S
O202 C205 1.235 . S
C203 O206 1.238 . S
C203 O207 1.241 . S
C204 O197 1.247 . S
C204 O198 1.261 . S
C205 O200 1.259 . S
C205 O202 1.235 . S
O206 Co196 2.021 . S
O206 C203 1.238 . S
O207 Co201 2.052 . S
O207 C203 1.241 . S
O208 Co196 2.137 . S
O208 C199 1.247 . S
O209 Co196 2.244 . S
O209 C199 1.272 . S
O209 Co201 2.135 . S
Co210 O211 2.216 . S
Co210 O212 2.091 . S
Co210 O214 2.004 . S
Co210 O220 2.021 . S
Co210 O222 2.137 . S
Co210 O223 2.244 . S
O211 Co210 2.216 . S
O211 C218 1.247 . S
O212 Co210 2.091 . S
O212 C218 1.261 . S
C213 O222 1.247 . S
C213 O223 1.272 . S
O214 Co210 2.004 . S
O214 C219 1.259 . S
Co215 O216 2.061 . S
Co215 O221 2.052 . S
Co215 O223 2.135 . S
O216 Co215 2.061 . S
O216 C219 1.235 . S
C217 O220 1.238 . S
C217 O221 1.241 . S
C218 O211 1.247 . S
C218 O212 1.261 . S
C219 O214 1.259 . S
C219 O216 1.235 . S
O220 Co210 2.021 . S
O220 C217 1.238 . S
O221 Co215 2.052 . S
O221 C217 1.241 . S
O222 Co210 2.137 . S
O222 C213 1.247 . S
O223 Co210 2.244 . S
O223 C213 1.272 . S
O223 Co215 2.135 . S
C224 C225 1.349 . S
C224 C226 1.327 . S
C224 H249 0.950 . S
C225 C224 1.349 . S
C225 C241 1.349 . S
C226 C224 1.327 . S
C226 C245 1.429 . S
C226 H250 0.950 . S
C227 C244 1.574 . S
C227 C246 1.368 . S
C227 H251 0.949 . S
H228 C232 0.949 . S
C229 C230 1.349 . S
C229 C231 1.327 . S
C229 H252 0.950 . S
C230 C229 1.349 . S
C230 C242 1.349 . S
C231 C229 1.327 . S
C231 C247 1.429 . S
C231 H253 0.950 . S
C232 H228 0.949 . S
C232 C240 1.574 . S
C232 C248 1.368 . S
H233 C241 0.950 . S
H234 C239 0.950 . S
H235 C240 0.949 . S
H236 C242 0.950 . S
H237 C243 0.950 . S
H238 C244 0.949 . S
C239 H234 0.950 . S
C239 C241 1.327 . S
C239 C245 1.429 . S
C240 C232 1.574 . S
C240 H235 0.949 . S
C240 C246 1.368 . S
C241 C225 1.349 . S
C241 H233 0.950 . S
C241 C239 1.327 . S
C242 C230 1.349 . S
C242 H236 0.950 . S
C242 C243 1.327 . S
C243 H237 0.950 . S
C243 C242 1.327 . S
C243 C247 1.429 . S
C244 C227 1.574 . S
C244 H238 0.949 . S
C244 C248 1.368 . S
C245 C226 1.429 . S
C245 C239 1.429 . S
C245 C246 1.523 . S
C246 C227 1.368 . S
C246 C240 1.368 . S
C246 C245 1.523 . S
C247 C231 1.429 . S
C247 C243 1.429 . S
C247 C248 1.523 . S
C248 C232 1.368 . S
C248 C244 1.368 . S
C248 C247 1.523 . S
H249 C224 0.950 . S
H250 C226 0.950 . S
H251 C227 0.949 . S
H252 C229 0.950 . S
H253 C231 0.950 . S
C254 C255 1.349 . S
C254 C256 1.327 . S
C254 H279 0.950 . S
C255 C254 1.349 . S
C255 C271 1.349 . S
C256 C254 1.327 . S
C256 C275 1.429 . S
C256 H280 0.950 . S
C257 C274 1.574 . S
C257 C276 1.368 . S
C257 H281 0.949 . S
H258 C262 0.949 . S
C259 C260 1.349 . S
C259 C261 1.327 . S
C259 H282 0.950 . S
C260 C259 1.349 . S
C260 C272 1.349 . S
C261 C259 1.327 . S
C261 C277 1.429 . S
C261 H283 0.950 . S
C262 H258 0.949 . S
C262 C270 1.574 . S
C262 C278 1.368 . S
H263 C271 0.950 . S
H264 C269 0.950 . S
H265 C270 0.949 . S
H266 C272 0.950 . S
H267 C273 0.950 . S
H268 C274 0.949 . S
C269 H264 0.950 . S
C269 C271 1.327 . S
C269 C275 1.429 . S
C270 C262 1.574 . S
C270 H265 0.949 . S
C270 C276 1.368 . S
C271 C255 1.349 . S
C271 H263 0.950 . S
C271 C269 1.327 . S
C272 C260 1.349 . S
C272 H266 0.950 . S
C272 C273 1.327 . S
C273 H267 0.950 . S
C273 C272 1.327 . S
C273 C277 1.429 . S
C274 C257 1.574 . S
C274 H268 0.949 . S
C274 C278 1.368 . S
C275 C256 1.429 . S
C275 C269 1.429 . S
C275 C276 1.523 . S
C276 C257 1.368 . S
C276 C270 1.368 . S
C276 C275 1.523 . S
C277 C261 1.429 . S
C277 C273 1.429 . S
C277 C278 1.523 . S
C278 C262 1.368 . S
C278 C274 1.368 . S
C278 C277 1.523 . S
H279 C254 0.950 . S
H280 C256 0.950 . S
H281 C257 0.949 . S
H282 C259 0.950 . S
H283 C261 0.950 . S
C284 C285 1.349 . S
C284 C286 1.327 . S
C284 H309 0.950 . S
C285 C284 1.349 . S
C285 C301 1.349 . S
C286 C284 1.327 . S
C286 C305 1.429 . S
C286 H310 0.950 . S
C287 C304 1.574 . S
C287 C306 1.368 . S
C287 H311 0.949 . S
H288 C292 0.949 . S
C289 C290 1.349 . S
C289 C291 1.327 . S
C289 H312 0.950 . S
C290 C289 1.349 . S
C290 C302 1.349 . S
C291 C289 1.327 . S
C291 C307 1.429 . S
C291 H313 0.950 . S
C292 H288 0.949 . S
C292 C300 1.574 . S
C292 C308 1.368 . S
H293 C301 0.950 . S
H294 C299 0.950 . S
H295 C300 0.949 . S
H296 C302 0.950 . S
H297 C303 0.950 . S
H298 C304 0.949 . S
C299 H294 0.950 . S
C299 C301 1.327 . S
C299 C305 1.429 . S
C300 C292 1.574 . S
C300 H295 0.949 . S
C300 C306 1.368 . S
C301 C285 1.349 . S
C301 H293 0.950 . S
C301 C299 1.327 . S
C302 C290 1.349 . S
C302 H296 0.950 . S
C302 C303 1.327 . S
C303 H297 0.950 . S
C303 C302 1.327 . S
C303 C307 1.429 . S
C304 C287 1.574 . S
C304 H298 0.949 . S
C304 C308 1.368 . S
C305 C286 1.429 . S
C305 C299 1.429 . S
C305 C306 1.523 . S
C306 C287 1.368 . S
C306 C300 1.368 . S
C306 C305 1.523 . S
C307 C291 1.429 . S
C307 C303 1.429 . S
C307 C308 1.523 . S
C308 C292 1.368 . S
C308 C304 1.368 . S
C308 C307 1.523 . S
H309 C284 0.950 . S
H310 C286 0.950 . S
H311 C287 0.949 . S
H312 C289 0.950 . S
H313 C291 0.950 . S
C314 C315 1.349 . S
C314 C316 1.327 . S
C314 H339 0.950 . S
C315 C314 1.349 . S
C315 C331 1.349 . S
C316 C314 1.327 . S
C316 C335 1.429 . S
C316 H340 0.950 . S
C317 C334 1.574 1_455 S
C317 C336 1.368 . S
C317 H341 0.949 . S
H318 C322 0.949 . S
C319 C320 1.349 . S
C319 C321 1.327 . S
C319 H342 0.950 . S
C320 C319 1.349 . S
C320 C332 1.349 . S
C321 C319 1.327 . S
C321 C337 1.429 . S
C321 H343 0.950 . S
C322 H318 0.949 . S
C322 C330 1.574 1_655 S
C322 C338 1.368 . S
H323 C331 0.950 . S
H324 C329 0.950 . S
H325 C330 0.949 . S
H326 C332 0.950 . S
H327 C333 0.950 . S
H328 C334 0.949 . S
C329 H324 0.950 . S
C329 C331 1.327 . S
C329 C335 1.429 . S
C330 C322 1.574 1_455 S
C330 H325 0.949 . S
C330 C336 1.368 . S
C331 C315 1.349 . S
C331 H323 0.950 . S
C331 C329 1.327 . S
C332 C320 1.349 . S
C332 H326 0.950 . S
C332 C333 1.327 . S
C333 H327 0.950 . S
C333 C332 1.327 . S
C333 C337 1.429 . S
C334 C317 1.574 1_655 S
C334 H328 0.949 . S
C334 C338 1.368 . S
C335 C316 1.429 . S
C335 C329 1.429 . S
C335 C336 1.523 . S
C336 C317 1.368 . S
C336 C330 1.368 . S
C336 C335 1.523 . S
C337 C321 1.429 . S
C337 C333 1.429 . S
C337 C338 1.523 . S
C338 C322 1.368 . S
C338 C334 1.368 . S
C338 C337 1.523 . S
H339 C314 0.950 . S
H340 C316 0.950 . S
H341 C317 0.949 . S
H342 C319 0.950 . S
H343 C321 0.950 . S
C344 C345 1.349 . S
C344 C346 1.327 . S
C344 H369 0.950 . S
C345 C344 1.349 . S
C345 C361 1.349 . S
C346 C344 1.327 . S
C346 C365 1.429 . S
C346 H370 0.950 . S
C347 C364 1.574 . S
C347 C366 1.368 . S
C347 H371 0.949 . S
H348 C352 0.949 . S
C349 C350 1.349 . S
C349 C351 1.327 . S
C349 H372 0.950 . S
C350 C349 1.349 . S
C350 C362 1.349 . S
C351 C349 1.327 . S
C351 C367 1.429 . S
C351 H373 0.950 . S
C352 H348 0.949 . S
C352 C360 1.574 . S
C352 C368 1.368 . S
H353 C361 0.950 . S
H354 C359 0.950 . S
H355 C360 0.949 . S
H356 C362 0.950 . S
H357 C363 0.950 . S
H358 C364 0.949 . S
C359 H354 0.950 . S
C359 C361 1.327 . S
C359 C365 1.429 . S
C360 C352 1.574 . S
C360 H355 0.949 . S
C360 C366 1.368 . S
C361 C345 1.349 . S
C361 H353 0.950 . S
C361 C359 1.327 . S
C362 C350 1.349 . S
C362 H356 0.950 . S
C362 C363 1.327 . S
C363 H357 0.950 . S
C363 C362 1.327 . S
C363 C367 1.429 . S
C364 C347 1.574 . S
C364 H358 0.949 . S
C364 C368 1.368 . S
C365 C346 1.429 . S
C365 C359 1.429 . S
C365 C366 1.523 . S
C366 C347 1.368 . S
C366 C360 1.368 . S
C366 C365 1.523 . S
C367 C351 1.429 . S
C367 C363 1.429 . S
C367 C368 1.523 . S
C368 C352 1.368 . S
C368 C364 1.368 . S
C368 C367 1.523 . S
H369 C344 0.950 . S
H370 C346 0.950 . S
H371 C347 0.949 . S
H372 C349 0.950 . S
H373 C351 0.950 . S
C374 C375 1.349 . S
C374 C376 1.327 . S
C374 H399 0.950 . S
C375 C374 1.349 . S
C375 C391 1.349 . S
C376 C374 1.327 . S
C376 C395 1.429 . S
C376 H400 0.950 . S
C377 C394 1.574 1_655 S
C377 C396 1.368 . S
C377 H401 0.949 . S
H378 C382 0.949 . S
C379 C380 1.349 . S
C379 C381 1.327 . S
C379 H402 0.950 . S
C380 C379 1.349 . S
C380 C392 1.349 . S
C381 C379 1.327 . S
C381 C397 1.429 . S
C381 H403 0.950 . S
C382 H378 0.949 . S
C382 C390 1.574 1_455 S
C382 C398 1.368 . S
H383 C391 0.950 . S
H384 C389 0.950 . S
H385 C390 0.949 . S
H386 C392 0.950 . S
H387 C393 0.950 . S
H388 C394 0.949 . S
C389 H384 0.950 . S
C389 C391 1.327 . S
C389 C395 1.429 . S
C390 C382 1.574 1_655 S
C390 H385 0.949 . S
C390 C396 1.368 . S
C391 C375 1.349 . S
C391 H383 0.950 . S
C391 C389 1.327 . S
C392 C380 1.349 . S
C392 H386 0.950 . S
C392 C393 1.327 . S
C393 H387 0.950 . S
C393 C392 1.327 . S
C393 C397 1.429 . S
C394 C377 1.574 1_455 S
C394 H388 0.949 . S
C394 C398 1.368 . S
C395 C376 1.429 . S
C395 C389 1.429 . S
C395 C396 1.523 . S
C396 C377 1.368 . S
C396 C390 1.368 . S
C396 C395 1.523 . S
C397 C381 1.429 . S
C397 C393 1.429 . S
C397 C398 1.523 . S
C398 C382 1.368 . S
C398 C394 1.368 . S
C398 C397 1.523 . S
H399 C374 0.950 . S
H400 C376 0.950 . S
H401 C377 0.949 . S
H402 C379 0.950 . S
H403 C381 0.950 . S
C404 C405 1.349 . S
C404 C406 1.327 . S
C404 H429 0.950 . S
C405 C404 1.349 . S
C405 C421 1.349 . S
C406 C404 1.327 . S
C406 C425 1.429 . S
C406 H430 0.950 . S
C407 C424 1.574 . S
C407 C426 1.368 . S
C407 H431 0.949 . S
H408 C412 0.949 . S
C409 C410 1.349 . S
C409 C411 1.327 . S
C409 H432 0.950 . S
C410 C409 1.349 . S
C410 C422 1.349 . S
C411 C409 1.327 . S
C411 C427 1.429 . S
C411 H433 0.950 . S
C412 H408 0.949 . S
C412 C420 1.574 . S
C412 C428 1.368 . S
H413 C421 0.950 . S
H414 C419 0.950 . S
H415 C420 0.949 . S
H416 C422 0.950 . S
H417 C423 0.950 . S
H418 C424 0.949 . S
C419 H414 0.950 . S
C419 C421 1.327 . S
C419 C425 1.429 . S
C420 C412 1.574 . S
C420 H415 0.949 . S
C420 C426 1.368 . S
C421 C405 1.349 . S
C421 H413 0.950 . S
C421 C419 1.327 . S
C422 C410 1.349 . S
C422 H416 0.950 . S
C422 C423 1.327 . S
C423 H417 0.950 . S
C423 C422 1.327 . S
C423 C427 1.429 . S
C424 C407 1.574 . S
C424 H418 0.949 . S
C424 C428 1.368 . S
C425 C406 1.429 . S
C425 C419 1.429 . S
C425 C426 1.523 . S
C426 C407 1.368 . S
C426 C420 1.368 . S
C426 C425 1.523 . S
C427 C411 1.429 . S
C427 C423 1.429 . S
C427 C428 1.523 . S
C428 C412 1.368 . S
C428 C424 1.368 . S
C428 C427 1.523 . S
H429 C404 0.950 . S
H430 C406 0.950 . S
H431 C407 0.949 . S
H432 C409 0.950 . S
H433 C411 0.950 . S
C434 C435 1.349 . S
C434 C436 1.327 . S
C434 H459 0.950 . S
C435 C434 1.349 . S
C435 C451 1.349 . S
C436 C434 1.327 . S
C436 C455 1.429 . S
C436 H460 0.950 . S
C437 C454 1.574 . S
C437 C456 1.368 . S
C437 H461 0.949 . S
H438 C442 0.949 . S
C439 C440 1.349 . S
C439 C441 1.327 . S
C439 H462 0.950 . S
C440 C439 1.349 . S
C440 C452 1.349 . S
C441 C439 1.327 . S
C441 C457 1.429 . S
C441 H463 0.950 . S
C442 H438 0.949 . S
C442 C450 1.574 . S
C442 C458 1.368 . S
H443 C451 0.950 . S
H444 C449 0.950 . S
H445 C450 0.949 . S
H446 C452 0.950 . S
H447 C453 0.950 . S
H448 C454 0.949 . S
C449 H444 0.950 . S
C449 C451 1.327 . S
C449 C455 1.429 . S
C450 C442 1.574 . S
C450 H445 0.949 . S
C450 C456 1.368 . S
C451 C435 1.349 . S
C451 H443 0.950 . S
C451 C449 1.327 . S
C452 C440 1.349 . S
C452 H446 0.950 . S
C452 C453 1.327 . S
C453 H447 0.950 . S
C453 C452 1.327 . S
C453 C457 1.429 . S
C454 C437 1.574 . S
C454 H448 0.949 . S
C454 C458 1.368 . S
C455 C436 1.429 . S
C455 C449 1.429 . S
C455 C456 1.523 . S
C456 C437 1.368 . S
C456 C450 1.368 . S
C456 C455 1.523 . S
C457 C441 1.429 . S
C457 C453 1.429 . S
C457 C458 1.523 . S
C458 C442 1.368 . S
C458 C454 1.368 . S
C458 C457 1.523 . S
H459 C434 0.950 . S
H460 C436 0.950 . S
H461 C437 0.949 . S
H462 C439 0.950 . S
H463 C441 0.950 . S
C464 C465 1.349 . S
C464 C466 1.327 . S
C464 H489 0.950 . S
C465 C464 1.349 . S
C465 C481 1.349 . S
C466 C464 1.327 . S
C466 C485 1.429 . S
C466 H490 0.950 . S
C467 C484 1.574 . S
C467 C486 1.368 . S
C467 H491 0.949 . S
H468 C472 0.949 . S
C469 C470 1.349 . S
C469 C471 1.327 . S
C469 H492 0.950 . S
C470 C469 1.349 . S
C470 C482 1.349 . S
C471 C469 1.327 . S
C471 C487 1.429 . S
C471 H493 0.950 . S
C472 H468 0.949 . S
C472 C480 1.574 . S
C472 C488 1.368 . S
H473 C481 0.950 . S
H474 C479 0.950 . S
H475 C480 0.949 . S
H476 C482 0.950 . S
H477 C483 0.950 . S
H478 C484 0.949 . S
C479 H474 0.950 . S
C479 C481 1.327 . S
C479 C485 1.429 . S
C480 C472 1.574 . S
C480 H475 0.949 . S
C480 C486 1.368 . S
C481 C465 1.349 . S
C481 H473 0.950 . S
C481 C479 1.327 . S
C482 C470 1.349 . S
C482 H476 0.950 . S
C482 C483 1.327 . S
C483 H477 0.950 . S
C483 C482 1.327 . S
C483 C487 1.429 . S
C484 C467 1.574 . S
C484 H478 0.949 . S
C484 C488 1.368 . S
C485 C466 1.429 . S
C485 C479 1.429 . S
C485 C486 1.523 . S
C486 C467 1.368 . S
C486 C480 1.368 . S
C486 C485 1.523 . S
C487 C471 1.429 . S
C487 C483 1.429 . S
C487 C488 1.523 . S
C488 C472 1.368 . S
C488 C484 1.368 . S
C488 C487 1.523 . S
H489 C464 0.950 . S
H490 C466 0.950 . S
H491 C467 0.949 . S
H492 C469 0.950 . S
H493 C471 0.950 . S
C494 C495 1.349 . S
C494 C496 1.327 . S
C494 H519 0.950 . S
C495 C494 1.349 . S
C495 C511 1.349 . S
C496 C494 1.327 . S
C496 C515 1.429 . S
C496 H520 0.950 . S
C497 C514 1.574 . S
C497 C516 1.368 . S
C497 H521 0.949 . S
H498 C502 0.949 . S
C499 C500 1.349 . S
C499 C501 1.327 . S
C499 H522 0.950 . S
C500 C499 1.349 . S
C500 C512 1.349 . S
C501 C499 1.327 . S
C501 C517 1.429 . S
C501 H523 0.950 . S
C502 H498 0.949 . S
C502 C510 1.574 . S
C502 C518 1.368 . S
H503 C511 0.950 . S
H504 C509 0.950 . S
H505 C510 0.949 . S
H506 C512 0.950 . S
H507 C513 0.950 . S
H508 C514 0.949 . S
C509 H504 0.950 . S
C509 C511 1.327 . S
C509 C515 1.429 . S
C510 C502 1.574 . S
C510 H505 0.949 . S
C510 C516 1.368 . S
C511 C495 1.349 . S
C511 H503 0.950 . S
C511 C509 1.327 . S
C512 C500 1.349 . S
C512 H506 0.950 . S
C512 C513 1.327 . S
C513 H507 0.950 . S
C513 C512 1.327 . S
C513 C517 1.429 . S
C514 C497 1.574 . S
C514 H508 0.949 . S
C514 C518 1.368 . S
C515 C496 1.429 . S
C515 C509 1.429 . S
C515 C516 1.523 . S
C516 C497 1.368 . S
C516 C510 1.368 . S
C516 C515 1.523 . S
C517 C501 1.429 . S
C517 C513 1.429 . S
C517 C518 1.523 . S
C518 C502 1.368 . S
C518 C514 1.368 . S
C518 C517 1.523 . S
H519 C494 0.950 . S
H520 C496 0.950 . S
H521 C497 0.949 . S
H522 C499 0.950 . S
H523 C501 0.950 . S
C524 C525 1.349 . S
C524 C526 1.327 . S
C524 H549 0.950 . S
C525 C524 1.349 . S
C525 C541 1.349 . S
C526 C524 1.327 . S
C526 C545 1.429 . S
C526 H550 0.950 . S
C527 C544 1.574 . S
C527 C546 1.368 . S
C527 H551 0.949 . S
H528 C532 0.949 . S
C529 C530 1.349 . S
C529 C531 1.327 . S
C529 H552 0.950 . S
C530 C529 1.349 . S
C530 C542 1.349 . S
C531 C529 1.327 . S
C531 C547 1.429 . S
C531 H553 0.950 . S
C532 H528 0.949 . S
C532 C540 1.574 . S
C532 C548 1.368 . S
H533 C541 0.950 . S
H534 C539 0.950 . S
H535 C540 0.949 . S
H536 C542 0.950 . S
H537 C543 0.950 . S
H538 C544 0.949 . S
C539 H534 0.950 . S
C539 C541 1.327 . S
C539 C545 1.429 . S
C540 C532 1.574 . S
C540 H535 0.949 . S
C540 C546 1.368 . S
C541 C525 1.349 . S
C541 H533 0.950 . S
C541 C539 1.327 . S
C542 C530 1.349 . S
C542 H536 0.950 . S
C542 C543 1.327 . S
C543 H537 0.950 . S
C543 C542 1.327 . S
C543 C547 1.429 . S
C544 C527 1.574 . S
C544 H538 0.949 . S
C544 C548 1.368 . S
C545 C526 1.429 . S
C545 C539 1.429 . S
C545 C546 1.523 . S
C546 C527 1.368 . S
C546 C540 1.368 . S
C546 C545 1.523 . S
C547 C531 1.429 . S
C547 C543 1.429 . S
C547 C548 1.523 . S
C548 C532 1.368 . S
C548 C544 1.368 . S
C548 C547 1.523 . S
H549 C524 0.950 . S
H550 C526 0.950 . S
H551 C527 0.949 . S
H552 C529 0.950 . S
H553 C531 0.950 . S
C554 C555 1.349 . S
C554 C556 1.327 . S
C554 H579 0.950 . S
C555 C554 1.349 . S
C555 C571 1.349 . S
C556 C554 1.327 . S
C556 C575 1.429 . S
C556 H580 0.950 . S
C557 C574 1.574 . S
C557 C576 1.368 . S
C557 H581 0.949 . S
H558 C562 0.949 . S
C559 C560 1.349 . S
C559 C561 1.327 . S
C559 H582 0.950 . S
C560 C559 1.349 . S
C560 C572 1.349 . S
C561 C559 1.327 . S
C561 C577 1.429 . S
C561 H583 0.950 . S
C562 H558 0.949 . S
C562 C570 1.574 . S
C562 C578 1.368 . S
H563 C571 0.950 . S
H564 C569 0.950 . S
H565 C570 0.949 . S
H566 C572 0.950 . S
H567 C573 0.950 . S
H568 C574 0.949 . S
C569 H564 0.950 . S
C569 C571 1.327 . S
C569 C575 1.429 . S
C570 C562 1.574 . S
C570 H565 0.949 . S
C570 C576 1.368 . S
C571 C555 1.349 . S
C571 H563 0.950 . S
C571 C569 1.327 . S
C572 C560 1.349 . S
C572 H566 0.950 . S
C572 C573 1.327 . S
C573 H567 0.950 . S
C573 C572 1.327 . S
C573 C577 1.429 . S
C574 C557 1.574 . S
C574 H568 0.949 . S
C574 C578 1.368 . S
C575 C556 1.429 . S
C575 C569 1.429 . S
C575 C576 1.523 . S
C576 C557 1.368 . S
C576 C570 1.368 . S
C576 C575 1.523 . S
C577 C561 1.429 . S
C577 C573 1.429 . S
C577 C578 1.523 . S
C578 C562 1.368 . S
C578 C574 1.368 . S
C578 C577 1.523 . S
H579 C554 0.950 . S
H580 C556 0.950 . S
H581 C557 0.949 . S
H582 C559 0.950 . S
H583 C561 0.950 . S
C584 C585 1.349 . S
C584 C586 1.327 . S
C584 H609 0.950 . S
C585 C584 1.349 . S
C585 C601 1.349 . S
C586 C584 1.327 . S
C586 C605 1.429 . S
C586 H610 0.950 . S
C587 C604 1.574 1_455 S
C587 C606 1.368 . S
C587 H611 0.949 . S
H588 C592 0.949 . S
C589 C590 1.349 . S
C589 C591 1.327 . S
C589 H612 0.950 . S
C590 C589 1.349 . S
C590 C602 1.349 . S
C591 C589 1.327 . S
C591 C607 1.429 . S
C591 H613 0.950 . S
C592 H588 0.949 . S
C592 C600 1.574 1_655 S
C592 C608 1.368 . S
H593 C601 0.950 . S
H594 C599 0.950 . S
H595 C600 0.949 . S
H596 C602 0.950 . S
H597 C603 0.950 . S
H598 C604 0.949 . S
C599 H594 0.950 . S
C599 C601 1.327 . S
C599 C605 1.429 . S
C600 C592 1.574 1_455 S
C600 H595 0.949 . S
C600 C606 1.368 . S
C601 C585 1.349 . S
C601 H593 0.950 . S
C601 C599 1.327 . S
C602 C590 1.349 . S
C602 H596 0.950 . S
C602 C603 1.327 . S
C603 H597 0.950 . S
C603 C602 1.327 . S
C603 C607 1.429 . S
C604 C587 1.574 1_655 S
C604 H598 0.949 . S
C604 C608 1.368 . S
C605 C586 1.429 . S
C605 C599 1.429 . S
C605 C606 1.523 . S
C606 C587 1.368 . S
C606 C600 1.368 . S
C606 C605 1.523 . S
C607 C591 1.429 . S
C607 C603 1.429 . S
C607 C608 1.523 . S
C608 C592 1.368 . S
C608 C604 1.368 . S
C608 C607 1.523 . S
H609 C584 0.950 . S
H610 C586 0.950 . S
H611 C587 0.949 . S
H612 C589 0.950 . S
H613 C591 0.950 . S
C614 C615 1.349 . S
C614 C616 1.327 . S
C614 H639 0.950 . S
C615 C614 1.349 . S
C615 C631 1.349 . S
C616 C614 1.327 . S
C616 C635 1.429 . S
C616 H640 0.950 . S
C617 C634 1.574 . S
C617 C636 1.368 . S
C617 H641 0.949 . S
H618 C622 0.949 . S
C619 C620 1.349 . S
C619 C621 1.327 . S
C619 H642 0.950 . S
C620 C619 1.349 . S
C620 C632 1.349 . S
C621 C619 1.327 . S
C621 C637 1.429 . S
C621 H643 0.950 . S
C622 H618 0.949 . S
C622 C630 1.574 . S
C622 C638 1.368 . S
H623 C631 0.950 . S
H624 C629 0.950 . S
H625 C630 0.949 . S
H626 C632 0.950 . S
H627 C633 0.950 . S
H628 C634 0.949 . S
C629 H624 0.950 . S
C629 C631 1.327 . S
C629 C635 1.429 . S
C630 C622 1.574 . S
C630 H625 0.949 . S
C630 C636 1.368 . S
C631 C615 1.349 . S
C631 H623 0.950 . S
C631 C629 1.327 . S
C632 C620 1.349 . S
C632 H626 0.950 . S
C632 C633 1.327 . S
C633 H627 0.950 . S
C633 C632 1.327 . S
C633 C637 1.429 . S
C634 C617 1.574 . S
C634 H628 0.949 . S
C634 C638 1.368 . S
C635 C616 1.429 . S
C635 C629 1.429 . S
C635 C636 1.523 . S
C636 C617 1.368 . S
C636 C630 1.368 . S
C636 C635 1.523 . S
C637 C621 1.429 . S
C637 C633 1.429 . S
C637 C638 1.523 . S
C638 C622 1.368 . S
C638 C634 1.368 . S
C638 C637 1.523 . S
H639 C614 0.950 . S
H640 C616 0.950 . S
H641 C617 0.949 . S
H642 C619 0.950 . S
H643 C621 0.950 . S
C644 C645 1.349 . S
C644 C646 1.327 . S
C644 H669 0.950 . S
C645 C644 1.349 . S
C645 C661 1.349 . S
C646 C644 1.327 . S
C646 C665 1.429 . S
C646 H670 0.950 . S
C647 C664 1.574 . S
C647 C666 1.368 . S
C647 H671 0.949 . S
H648 C652 0.949 . S
C649 C650 1.349 . S
C649 C651 1.327 . S
C649 H672 0.950 . S
C650 C649 1.349 . S
C650 C662 1.349 . S
C651 C649 1.327 . S
C651 C667 1.429 . S
C651 H673 0.950 . S
C652 H648 0.949 . S
C652 C660 1.574 . S
C652 C668 1.368 . S
H653 C661 0.950 . S
H654 C659 0.950 . S
H655 C660 0.949 . S
H656 C662 0.950 . S
H657 C663 0.950 . S
H658 C664 0.949 . S
C659 H654 0.950 . S
C659 C661 1.327 . S
C659 C665 1.429 . S
C660 C652 1.574 . S
C660 H655 0.949 . S
C660 C666 1.368 . S
C661 C645 1.349 . S
C661 H653 0.950 . S
C661 C659 1.327 . S
C662 C650 1.349 . S
C662 H656 0.950 . S
C662 C663 1.327 . S
C663 H657 0.950 . S
C663 C662 1.327 . S
C663 C667 1.429 . S
C664 C647 1.574 . S
C664 H658 0.949 . S
C664 C668 1.368 . S
C665 C646 1.429 . S
C665 C659 1.429 . S
C665 C666 1.523 . S
C666 C647 1.368 . S
C666 C660 1.368 . S
C666 C665 1.523 . S
C667 C651 1.429 . S
C667 C663 1.429 . S
C667 C668 1.523 . S
C668 C652 1.368 . S
C668 C664 1.368 . S
C668 C667 1.523 . S
H669 C644 0.950 . S
H670 C646 0.950 . S
H671 C647 0.949 . S
H672 C649 0.950 . S
H673 C651 0.950 . S
C674 C675 1.349 . S
C674 C676 1.327 . S
C674 H699 0.950 . S
C675 C674 1.349 . S
C675 C691 1.349 . S
C676 C674 1.327 . S
C676 C695 1.429 . S
C676 H700 0.950 . S
C677 C694 1.574 1_455 S
C677 C696 1.368 . S
C677 H701 0.949 . S
H678 C682 0.949 . S
C679 C680 1.349 . S
C679 C681 1.327 . S
C679 H702 0.950 . S
C680 C679 1.349 . S
C680 C692 1.349 . S
C681 C679 1.327 . S
C681 C697 1.429 . S
C681 H703 0.950 . S
C682 H678 0.949 . S
C682 C690 1.574 1_655 S
C682 C698 1.368 . S
H683 C691 0.950 . S
H684 C689 0.950 . S
H685 C690 0.949 . S
H686 C692 0.950 . S
H687 C693 0.950 . S
H688 C694 0.949 . S
C689 H684 0.950 . S
C689 C691 1.327 . S
C689 C695 1.429 . S
C690 C682 1.574 1_455 S
C690 H685 0.949 . S
C690 C696 1.368 . S
C691 C675 1.349 . S
C691 H683 0.950 . S
C691 C689 1.327 . S
C692 C680 1.349 . S
C692 H686 0.950 . S
C692 C693 1.327 . S
C693 H687 0.950 . S
C693 C692 1.327 . S
C693 C697 1.429 . S
C694 C677 1.574 1_655 S
C694 H688 0.949 . S
C694 C698 1.368 . S
C695 C676 1.429 . S
C695 C689 1.429 . S
C695 C696 1.523 . S
C696 C677 1.368 . S
C696 C690 1.368 . S
C696 C695 1.523 . S
C697 C681 1.429 . S
C697 C693 1.429 . S
C697 C698 1.523 . S
C698 C682 1.368 . S
C698 C694 1.368 . S
C698 C697 1.523 . S
H699 C674 0.950 . S
H700 C676 0.950 . S
H701 C677 0.949 . S
H702 C679 0.950 . S
H703 C681 0.950 . S
C704 C705 1.349 . S
C704 C706 1.327 . S
C704 H729 0.950 . S
C705 C704 1.349 . S
C705 C721 1.349 . S
C706 C704 1.327 . S
C706 C725 1.429 . S
C706 H730 0.950 . S
C707 C724 1.561 1_554 S
C707 C726 1.381 . S
C707 H731 0.949 . S
H708 C712 0.949 . S
C709 C710 1.349 . S
C709 C711 1.327 . S
C709 H732 0.950 . S
C710 C709 1.349 . S
C710 C722 1.349 . S
C711 C709 1.327 . S
C711 C727 1.429 . S
C711 H733 0.950 . S
C712 H708 0.949 . S
C712 C720 1.574 . S
C712 C728 1.368 1_554 S
H713 C721 0.950 . S
H714 C719 0.950 . S
H715 C720 0.949 . S
H716 C722 0.950 . S
H717 C723 0.950 . S
H718 C724 0.949 . S
C719 H714 0.950 . S
C719 C721 1.327 . S
C719 C725 1.429 . S
C720 C712 1.574 . S
C720 H715 0.949 . S
C720 C726 1.368 . S
C721 C705 1.349 . S
C721 H713 0.950 . S
C721 C719 1.327 . S
C722 C710 1.349 . S
C722 H716 0.950 . S
C722 C723 1.327 . S
C723 H717 0.950 . S
C723 C722 1.327 . S
C723 C727 1.429 . S
C724 C707 1.561 1_556 S
C724 H718 0.949 . S
C724 C728 1.368 . S
C725 C706 1.429 . S
C725 C719 1.429 . S
C725 C726 1.523 . S
C726 C707 1.381 . S
C726 C720 1.368 . S
C726 C725 1.523 . S
C727 C711 1.429 . S
C727 C723 1.429 . S
C727 C728 1.523 . S
C728 C712 1.368 1_556 S
C728 C724 1.368 . S
C728 C727 1.523 . S
H729 C704 0.950 . S
H730 C706 0.950 . S
H731 C707 0.949 . S
H732 C709 0.950 . S
H733 C711 0.950 . S
C734 C735 1.349 . S
C734 C736 1.327 . S
C734 H759 0.950 . S
C735 C734 1.349 . S
C735 C751 1.349 . S
C736 C734 1.327 . S
C736 C755 1.429 . S
C736 H760 0.950 . S
C737 C754 1.574 . S
C737 C756 1.368 . S
C737 H761 0.949 . S
H738 C742 0.949 . S
C739 C740 1.349 . S
C739 C741 1.327 . S
C739 H762 0.950 . S
C740 C739 1.349 . S
C740 C752 1.349 . S
C741 C739 1.327 . S
C741 C757 1.429 . S
C741 H763 0.950 . S
C742 H738 0.949 . S
C742 C750 1.574 . S
C742 C758 1.368 . S
H743 C751 0.950 . S
H744 C749 0.950 . S
H745 C750 0.949 . S
H746 C752 0.950 . S
H747 C753 0.950 . S
H748 C754 0.949 . S
C749 H744 0.950 . S
C749 C751 1.327 . S
C749 C755 1.429 . S
C750 C742 1.574 . S
C750 H745 0.949 . S
C750 C756 1.368 . S
C751 C735 1.349 . S
C751 H743 0.950 . S
C751 C749 1.327 . S
C752 C740 1.349 . S
C752 H746 0.950 . S
C752 C753 1.327 . S
C753 H747 0.950 . S
C753 C752 1.327 . S
C753 C757 1.429 . S
C754 C737 1.574 . S
C754 H748 0.949 . S
C754 C758 1.368 . S
C755 C736 1.429 . S
C755 C749 1.429 . S
C755 C756 1.523 . S
C756 C737 1.368 . S
C756 C750 1.368 . S
C756 C755 1.523 . S
C757 C741 1.429 . S
C757 C753 1.429 . S
C757 C758 1.523 . S
C758 C742 1.368 . S
C758 C754 1.368 . S
C758 C757 1.523 . S
H759 C734 0.950 . S
H760 C736 0.950 . S
H761 C737 0.949 . S
H762 C739 0.950 . S
H763 C741 0.950 . S
C764 C765 1.349 . S
C764 C766 1.327 . S
C764 H789 0.950 . S
C765 C764 1.349 . S
C765 C781 1.349 . S
C766 C764 1.327 . S
C766 C785 1.429 . S
C766 H790 0.950 . S
C767 C784 1.574 . S
C767 C786 1.368 . S
C767 H791 0.949 . S
H768 C772 0.949 . S
C769 C770 1.349 . S
C769 C771 1.327 . S
C769 H792 0.950 . S
C770 C769 1.349 . S
C770 C782 1.349 . S
C771 C769 1.327 . S
C771 C787 1.429 . S
C771 H793 0.950 . S
C772 H768 0.949 . S
C772 C780 1.574 . S
C772 C788 1.368 . S
H773 C781 0.950 . S
H774 C779 0.950 . S
H775 C780 0.949 . S
H776 C782 0.950 . S
H777 C783 0.950 . S
H778 C784 0.949 . S
C779 H774 0.950 . S
C779 C781 1.327 . S
C779 C785 1.429 . S
C780 C772 1.574 . S
C780 H775 0.949 . S
C780 C786 1.368 . S
C781 C765 1.349 . S
C781 H773 0.950 . S
C781 C779 1.327 . S
C782 C770 1.349 . S
C782 H776 0.950 . S
C782 C783 1.327 . S
C783 H777 0.950 . S
C783 C782 1.327 . S
C783 C787 1.429 . S
C784 C767 1.574 . S
C784 H778 0.949 . S
C784 C788 1.368 . S
C785 C766 1.429 . S
C785 C779 1.429 . S
C785 C786 1.523 . S
C786 C767 1.368 . S
C786 C780 1.368 . S
C786 C785 1.523 . S
C787 C771 1.429 . S
C787 C783 1.429 . S
C787 C788 1.523 . S
C788 C772 1.368 . S
C788 C784 1.368 . S
C788 C787 1.523 . S
H789 C764 0.950 . S
H790 C766 0.950 . S
H791 C767 0.949 . S
H792 C769 0.950 . S
H793 C771 0.950 . S
C794 C795 1.349 . S
C794 C796 1.327 . S
C794 H819 0.950 . S
C795 C794 1.349 . S
C795 C811 1.349 . S
C796 C794 1.327 . S
C796 C815 1.429 . S
C796 H820 0.950 . S
C797 C814 1.574 . S
C797 C816 1.368 . S
C797 H821 0.949 . S
H798 C802 0.949 . S
C799 C800 1.349 . S
C799 C801 1.327 . S
C799 H822 0.950 . S
C800 C799 1.349 . S
C800 C812 1.349 . S
C801 C799 1.327 . S
C801 C817 1.429 . S
C801 H823 0.950 . S
C802 H798 0.949 . S
C802 C810 1.574 . S
C802 C818 1.368 . S
H803 C811 0.950 . S
H804 C809 0.950 . S
H805 C810 0.949 . S
H806 C812 0.950 . S
H807 C813 0.950 . S
H808 C814 0.949 . S
C809 H804 0.950 . S
C809 C811 1.327 . S
C809 C815 1.429 . S
C810 C802 1.574 . S
C810 H805 0.949 . S
C810 C816 1.368 . S
C811 C795 1.349 . S
C811 H803 0.950 . S
C811 C809 1.327 . S
C812 C800 1.349 . S
C812 H806 0.950 . S
C812 C813 1.327 . S
C813 H807 0.950 . S
C813 C812 1.327 . S
C813 C817 1.429 . S
C814 C797 1.574 . S
C814 H808 0.949 . S
C814 C818 1.368 . S
C815 C796 1.429 . S
C815 C809 1.429 . S
C815 C816 1.523 . S
C816 C797 1.368 . S
C816 C810 1.368 . S
C816 C815 1.523 . S
C817 C801 1.429 . S
C817 C813 1.429 . S
C817 C818 1.523 . S
C818 C802 1.368 . S
C818 C814 1.368 . S
C818 C817 1.523 . S
H819 C794 0.950 . S
H820 C796 0.950 . S
H821 C797 0.949 . S
H822 C799 0.950 . S
H823 C801 0.950 . S
C824 C825 1.349 . S
C824 C826 1.327 . S
C824 H849 0.950 . S
C825 C824 1.349 . S
C825 C841 1.349 . S
C826 C824 1.327 . S
C826 C845 1.429 . S
C826 H850 0.950 . S
C827 C844 1.574 . S
C827 C846 1.368 1_554 S
C827 H851 0.949 . S
H828 C832 0.949 . S
C829 C830 1.349 . S
C829 C831 1.327 . S
C829 H852 0.950 . S
C830 C829 1.349 . S
C830 C842 1.349 . S
C831 C829 1.327 . S
C831 C847 1.429 . S
C831 H853 0.950 . S
C832 H828 0.949 . S
C832 C840 1.574 . S
C832 C848 1.368 1_556 S
H833 C841 0.950 . S
H834 C839 0.950 . S
H835 C840 0.949 . S
H836 C842 0.950 . S
H837 C843 0.950 . S
H838 C844 0.949 . S
C839 H834 0.950 . S
C839 C841 1.327 . S
C839 C845 1.429 . S
C840 C832 1.574 . S
C840 H835 0.949 . S
C840 C846 1.368 . S
C841 C825 1.349 . S
C841 H833 0.950 . S
C841 C839 1.327 . S
C842 C830 1.349 . S
C842 H836 0.950 . S
C842 C843 1.327 . S
C843 H837 0.950 . S
C843 C842 1.327 . S
C843 C847 1.429 . S
C844 C827 1.574 . S
C844 H838 0.949 . S
C844 C848 1.368 . S
C845 C826 1.429 . S
C845 C839 1.429 . S
C845 C846 1.523 . S
C846 C827 1.368 1_556 S
C846 C840 1.368 . S
C846 C845 1.523 . S
C847 C831 1.429 . S
C847 C843 1.429 . S
C847 C848 1.523 . S
C848 C832 1.368 1_554 S
C848 C844 1.368 . S
C848 C847 1.523 . S
H849 C824 0.950 . S
H850 C826 0.950 . S
H851 C827 0.949 . S
H852 C829 0.950 . S
H853 C831 0.950 . S
C854 C855 1.349 . S
C854 C856 1.327 . S
C854 H879 0.950 . S
C855 C854 1.349 . S
C855 C871 1.349 . S
C856 C854 1.327 . S
C856 C875 1.429 . S
C856 H880 0.950 . S
C857 C874 1.574 . S
C857 C876 1.368 . S
C857 H881 0.949 . S
H858 C862 0.949 . S
C859 C860 1.349 . S
C859 C861 1.327 . S
C859 H882 0.950 . S
C860 C859 1.349 . S
C860 C872 1.349 . S
C861 C859 1.327 . S
C861 C877 1.429 . S
C861 H883 0.950 . S
C862 H858 0.949 . S
C862 C870 1.574 . S
C862 C878 1.368 . S
H863 C871 0.950 . S
H864 C869 0.950 . S
H865 C870 0.949 . S
H866 C872 0.950 . S
H867 C873 0.950 . S
H868 C874 0.949 . S
C869 H864 0.950 . S
C869 C871 1.327 . S
C869 C875 1.429 . S
C870 C862 1.574 . S
C870 H865 0.949 . S
C870 C876 1.368 . S
C871 C855 1.349 . S
C871 H863 0.950 . S
C871 C869 1.327 . S
C872 C860 1.349 . S
C872 H866 0.950 . S
C872 C873 1.327 . S
C873 H867 0.950 . S
C873 C872 1.327 . S
C873 C877 1.429 . S
C874 C857 1.574 . S
C874 H868 0.949 . S
C874 C878 1.368 . S
C875 C856 1.429 . S
C875 C869 1.429 . S
C875 C876 1.523 . S
C876 C857 1.368 . S
C876 C870 1.368 . S
C876 C875 1.523 . S
C877 C861 1.429 . S
C877 C873 1.429 . S
C877 C878 1.523 . S
C878 C862 1.368 . S
C878 C874 1.368 . S
C878 C877 1.523 . S
H879 C854 0.950 . S
H880 C856 0.950 . S
H881 C857 0.949 . S
H882 C859 0.950 . S
H883 C861 0.950 . S
C884 C885 1.349 . S
C884 C886 1.327 . S
C884 H909 0.950 . S
C885 C884 1.349 . S
C885 C901 1.349 . S
C886 C884 1.327 . S
C886 C905 1.429 . S
C886 H910 0.950 . S
C887 C904 1.574 . S
C887 C906 1.368 . S
C887 H911 0.949 . S
H888 C892 0.949 . S
C889 C890 1.349 . S
C889 C891 1.327 . S
C889 H912 0.950 . S
C890 C889 1.349 . S
C890 C902 1.349 . S
C891 C889 1.327 . S
C891 C907 1.429 . S
C891 H913 0.950 . S
C892 H888 0.949 . S
C892 C900 1.574 . S
C892 C908 1.368 . S
H893 C901 0.950 . S
H894 C899 0.950 . S
H895 C900 0.949 . S
H896 C902 0.950 . S
H897 C903 0.950 . S
H898 C904 0.949 . S
C899 H894 0.950 . S
C899 C901 1.327 . S
C899 C905 1.429 . S
C900 C892 1.574 . S
C900 H895 0.949 . S
C900 C906 1.368 . S
C901 C885 1.349 . S
C901 H893 0.950 . S
C901 C899 1.327 . S
C902 C890 1.349 . S
C902 H896 0.950 . S
C902 C903 1.327 . S
C903 H897 0.950 . S
C903 C902 1.327 . S
C903 C907 1.429 . S
C904 C887 1.574 . S
C904 H898 0.949 . S
C904 C908 1.368 . S
C905 C886 1.429 . S
C905 C899 1.429 . S
C905 C906 1.523 . S
C906 C887 1.368 . S
C906 C900 1.368 . S
C906 C905 1.523 . S
C907 C891 1.429 . S
C907 C903 1.429 . S
C907 C908 1.523 . S
C908 C892 1.368 . S
C908 C904 1.368 . S
C908 C907 1.523 . S
H909 C884 0.950 . S
H910 C886 0.950 . S
H911 C887 0.949 . S
H912 C889 0.950 . S
H913 C891 0.950 . S
C914 C915 1.349 . S
C914 C916 1.327 . S
C914 H939 0.950 . S
C915 C914 1.349 . S
C915 C931 1.349 . S
C916 C914 1.327 . S
C916 C935 1.429 . S
C916 H940 0.950 . S
C917 C934 1.574 . S
C917 C936 1.368 . S
C917 H941 0.949 . S
H918 C922 0.949 . S
C919 C920 1.349 . S
C919 C921 1.327 . S
C919 H942 0.950 . S
C920 C919 1.349 . S
C920 C932 1.349 . S
C921 C919 1.327 . S
C921 C937 1.429 . S
C921 H943 0.950 . S
C922 H918 0.949 . S
C922 C930 1.574 . S
C922 C938 1.368 . S
H923 C931 0.950 . S
H924 C929 0.950 . S
H925 C930 0.949 . S
H926 C932 0.950 . S
H927 C933 0.950 . S
H928 C934 0.949 . S
C929 H924 0.950 . S
C929 C931 1.327 . S
C929 C935 1.429 . S
C930 C922 1.574 . S
C930 H925 0.949 . S
C930 C936 1.368 . S
C931 C915 1.349 . S
C931 H923 0.950 . S
C931 C929 1.327 . S
C932 C920 1.349 . S
C932 H926 0.950 . S
C932 C933 1.327 . S
C933 H927 0.950 . S
C933 C932 1.327 . S
C933 C937 1.429 . S
C934 C917 1.574 . S
C934 H928 0.949 . S
C934 C938 1.368 . S
C935 C916 1.429 . S
C935 C929 1.429 . S
C935 C936 1.523 . S
C936 C917 1.368 . S
C936 C930 1.368 . S
C936 C935 1.523 . S
C937 C921 1.429 . S
C937 C933 1.429 . S
C937 C938 1.523 . S
C938 C922 1.368 . S
C938 C934 1.368 . S
C938 C937 1.523 . S
H939 C914 0.950 . S
H940 C916 0.950 . S
H941 C917 0.949 . S
H942 C919 0.950 . S
H943 C921 0.950 . S
C944 C945 1.349 . S
C944 C946 1.327 . S
C944 H969 0.950 . S
C945 C944 1.349 . S
C945 C961 1.349 . S
C946 C944 1.327 . S
C946 C965 1.429 . S
C946 H970 0.950 . S
C947 C964 1.574 . S
C947 C966 1.368 1_565 S
C947 H971 0.949 . S
H948 C952 0.949 . S
C949 C950 1.349 . S
C949 C951 1.327 . S
C949 H972 0.950 . S
C950 C949 1.349 . S
C950 C962 1.349 . S
C951 C949 1.327 . S
C951 C967 1.429 . S
C951 H973 0.950 . S
C952 H948 0.949 . S
C952 C960 1.574 . S
C952 C968 1.368 1_545 S
H953 C961 0.950 . S
H954 C959 0.950 . S
H955 C960 0.949 . S
H956 C962 0.950 . S
H957 C963 0.950 . S
H958 C964 0.949 . S
C959 H954 0.950 . S
C959 C961 1.327 . S
C959 C965 1.429 . S
C960 C952 1.574 . S
C960 H955 0.949 . S
C960 C966 1.368 . S
C961 C945 1.349 . S
C961 H953 0.950 . S
C961 C959 1.327 . S
C962 C950 1.349 . S
C962 H956 0.950 . S
C962 C963 1.327 . S
C963 H957 0.950 . S
C963 C962 1.327 . S
C963 C967 1.429 . S
C964 C947 1.574 . S
C964 H958 0.949 . S
C964 C968 1.368 . S
C965 C946 1.429 . S
C965 C959 1.429 . S
C965 C966 1.523 . S
C966 C947 1.368 1_545 S
C966 C960 1.368 . S
C966 C965 1.523 . S
C967 C951 1.429 . S
C967 C963 1.429 . S
C967 C968 1.523 . S
C968 C952 1.368 1_565 S
C968 C964 1.368 . S
C968 C967 1.523 . S
H969 C944 0.950 . S
H970 C946 0.950 . S
H971 C947 0.949 . S
H972 C949 0.950 . S
H973 C951 0.950 . S
C974 C975 1.349 . S
C974 C976 1.327 . S
C974 H999 0.950 . S
C975 C974 1.349 . S
C975 C991 1.349 . S
C976 C974 1.327 . S
C976 C995 1.429 . S
C976 H1000 0.950 . S
C977 C994 1.574 . S
C977 C996 1.368 . S
C977 H1001 0.949 . S
H978 C982 0.949 . S
C979 C980 1.349 . S
C979 C981 1.327 . S
C979 H1002 0.950 . S
C980 C979 1.349 . S
C980 C992 1.349 . S
C981 C979 1.327 . S
C981 C997 1.429 . S
C981 H1003 0.950 . S
C982 H978 0.949 . S
C982 C990 1.574 . S
C982 C998 1.368 . S
H983 C991 0.950 . S
H984 C989 0.950 . S
H985 C990 0.949 . S
H986 C992 0.950 . S
H987 C993 0.950 . S
H988 C994 0.949 . S
C989 H984 0.950 . S
C989 C991 1.327 . S
C989 C995 1.429 . S
C990 C982 1.574 . S
C990 H985 0.949 . S
C990 C996 1.368 . S
C991 C975 1.349 . S
C991 H983 0.950 . S
C991 C989 1.327 . S
C992 C980 1.349 . S
C992 H986 0.950 . S
C992 C993 1.327 . S
C993 H987 0.950 . S
C993 C992 1.327 . S
C993 C997 1.429 . S
C994 C977 1.574 . S
C994 H988 0.949 . S
C994 C998 1.368 . S
C995 C976 1.429 . S
C995 C989 1.429 . S
C995 C996 1.523 . S
C996 C977 1.368 . S
C996 C990 1.368 . S
C996 C995 1.523 . S
C997 C981 1.429 . S
C997 C993 1.429 . S
C997 C998 1.523 . S
C998 C982 1.368 . S
C998 C994 1.368 . S
C998 C997 1.523 . S
H999 C974 0.950 . S
H1000 C976 0.950 . S
H1001 C977 0.949 . S
H1002 C979 0.950 . S
H1003 C981 0.950 . S
C1004 C1005 1.349 . S
C1004 C1006 1.327 . S
C1004 H1029 0.950 . S
C1005 C1004 1.349 . S
C1005 C1021 1.349 . S
C1006 C1004 1.327 . S
C1006 C1025 1.429 . S
C1006 H1030 0.950 . S
C1007 C1024 1.574 . S
C1007 C1026 1.368 1_565 S
C1007 H1031 0.949 . S
H1008 C1012 0.949 . S
C1009 C1010 1.349 . S
C1009 C1011 1.327 . S
C1009 H1032 0.950 . S
C1010 C1009 1.349 . S
C1010 C1022 1.349 . S
C1011 C1009 1.327 . S
C1011 C1027 1.429 . S
C1011 H1033 0.950 . S
C1012 H1008 0.949 . S
C1012 C1020 1.574 . S
C1012 C1028 1.368 1_545 S
H1013 C1021 0.950 . S
H1014 C1019 0.950 . S
H1015 C1020 0.949 . S
H1016 C1022 0.950 . S
H1017 C1023 0.950 . S
H1018 C1024 0.949 . S
C1019 H1014 0.950 . S
C1019 C1021 1.327 . S
C1019 C1025 1.429 . S
C1020 C1012 1.574 . S
C1020 H1015 0.949 . S
C1020 C1026 1.368 1_554 S
C1021 C1005 1.349 . S
C1021 H1013 0.950 . S
C1021 C1019 1.327 . S
C1022 C1010 1.349 . S
C1022 H1016 0.950 . S
C1022 C1023 1.327 . S
C1023 H1017 0.950 . S
C1023 C1022 1.327 . S
C1023 C1027 1.429 . S
C1024 C1007 1.574 . S
C1024 H1018 0.949 . S
C1024 C1028 1.368 1_556 S
C1025 C1006 1.429 . S
C1025 C1019 1.429 . S
C1025 C1026 1.523 . S
C1026 C1007 1.368 1_545 S
C1026 C1020 1.368 1_556 S
C1026 C1025 1.523 . S
C1027 C1011 1.429 . S
C1027 C1023 1.429 . S
C1027 C1028 1.523 . S
C1028 C1012 1.368 1_565 S
C1028 C1024 1.368 1_554 S
C1028 C1027 1.523 . S
H1029 C1004 0.950 . S
H1030 C1006 0.950 . S
H1031 C1007 0.949 . S
H1032 C1009 0.950 . S
H1033 C1011 0.950 . S
C1034 C1035 1.349 . S
C1034 C1036 1.327 . S
C1034 H1059 0.950 . S
C1035 C1034 1.349 . S
C1035 C1051 1.349 . S
C1036 C1034 1.327 . S
C1036 C1055 1.429 . S
C1036 H1060 0.950 . S
C1037 C1054 1.574 . S
C1037 C1056 1.368 . S
C1037 H1061 0.949 . S
H1038 C1042 0.949 . S
C1039 C1040 1.349 . S
C1039 C1041 1.327 . S
C1039 H1062 0.950 . S
C1040 C1039 1.349 . S
C1040 C1052 1.349 . S
C1041 C1039 1.327 . S
C1041 C1057 1.429 . S
C1041 H1063 0.950 . S
C1042 H1038 0.949 . S
C1042 C1050 1.574 . S
C1042 C1058 1.368 . S
H1043 C1051 0.950 . S
H1044 C1049 0.950 . S
H1045 C1050 0.949 . S
H1046 C1052 0.950 . S
H1047 C1053 0.950 . S
H1048 C1054 0.949 . S
C1049 H1044 0.950 . S
C1049 C1051 1.327 . S
C1049 C1055 1.429 . S
C1050 C1042 1.574 . S
C1050 H1045 0.949 . S
C1050 C1056 1.368 . S
C1051 C1035 1.349 . S
C1051 H1043 0.950 . S
C1051 C1049 1.327 . S
C1052 C1040 1.349 . S
C1052 H1046 0.950 . S
C1052 C1053 1.327 . S
C1053 H1047 0.950 . S
C1053 C1052 1.327 . S
C1053 C1057 1.429 . S
C1054 C1037 1.574 . S
C1054 H1048 0.949 . S
C1054 C1058 1.368 . S
C1055 C1036 1.429 . S
C1055 C1049 1.429 . S
C1055 C1056 1.523 . S
C1056 C1037 1.368 . S
C1056 C1050 1.368 . S
C1056 C1055 1.523 . S
C1057 C1041 1.429 . S
C1057 C1053 1.429 . S
C1057 C1058 1.523 . S
C1058 C1042 1.368 . S
C1058 C1054 1.368 . S
C1058 C1057 1.523 . S
H1059 C1034 0.950 . S
H1060 C1036 0.950 . S
H1061 C1037 0.949 . S
H1062 C1039 0.950 . S
H1063 C1041 0.950 . S
C1064 C1065 1.349 . S
C1064 C1066 1.327 . S
C1064 H1089 0.950 . S
C1065 C1064 1.349 . S
C1065 C1081 1.349 . S
C1066 C1064 1.327 . S
C1066 C1085 1.429 . S
C1066 H1090 0.950 . S
C1067 C1084 1.574 . S
C1067 C1086 1.368 . S
C1067 H1091 0.949 . S
H1068 C1072 0.949 . S
C1069 C1070 1.349 . S
C1069 C1071 1.327 . S
C1069 H1092 0.950 . S
C1070 C1069 1.349 . S
C1070 C1082 1.349 . S
C1071 C1069 1.327 . S
C1071 C1087 1.429 . S
C1071 H1093 0.950 . S
C1072 H1068 0.949 . S
C1072 C1080 1.574 1_565 S
C1072 C1088 1.368 . S
H1073 C1081 0.950 . S
H1074 C1079 0.950 . S
H1075 C1080 0.949 . S
H1076 C1082 0.950 . S
H1077 C1083 0.950 . S
H1078 C1084 0.949 . S
C1079 H1074 0.950 . S
C1079 C1081 1.327 . S
C1079 C1085 1.429 . S
C1080 C1072 1.574 1_545 S
C1080 H1075 0.949 . S
C1080 C1086 1.368 . S
C1081 C1065 1.349 . S
C1081 H1073 0.950 . S
C1081 C1079 1.327 . S
C1082 C1070 1.349 . S
C1082 H1076 0.950 . S
C1082 C1083 1.327 . S
C1083 H1077 0.950 . S
C1083 C1082 1.327 . S
C1083 C1087 1.429 . S
C1084 C1067 1.574 . S
C1084 H1078 0.949 . S
C1084 C1088 1.368 1_545 S
C1085 C1066 1.429 . S
C1085 C1079 1.429 . S
C1085 C1086 1.523 . S
C1086 C1067 1.368 . S
C1086 C1080 1.368 . S
C1086 C1085 1.523 . S
C1087 C1071 1.429 . S
C1087 C1083 1.429 . S
C1087 C1088 1.523 . S
C1088 C1072 1.368 . S
C1088 C1084 1.368 1_565 S
C1088 C1087 1.523 . S
H1089 C1064 0.950 . S
H1090 C1066 0.950 . S
H1091 C1067 0.949 . S
H1092 C1069 0.950 . S
H1093 C1071 0.950 . S
C1094 C1095 1.349 . S
C1094 C1096 1.327 . S
C1094 H1119 0.950 . S
C1095 C1094 1.349 . S
C1095 C1111 1.349 . S
C1096 C1094 1.327 . S
C1096 C1115 1.429 . S
C1096 H1120 0.950 . S
C1097 C1114 1.574 . S
C1097 C1116 1.368 . S
C1097 H1121 0.949 . S
H1098 C1102 0.949 . S
C1099 C1100 1.349 . S
C1099 C1101 1.327 . S
C1099 H1122 0.950 . S
C1100 C1099 1.349 . S
C1100 C1112 1.349 . S
C1101 C1099 1.327 . S
C1101 C1117 1.429 . S
C1101 H1123 0.950 . S
C1102 H1098 0.949 . S
C1102 C1110 1.574 . S
C1102 C1118 1.368 . S
H1103 C1111 0.950 . S
H1104 C1109 0.950 . S
H1105 C1110 0.949 . S
H1106 C1112 0.950 . S
H1107 C1113 0.950 . S
H1108 C1114 0.949 . S
C1109 H1104 0.950 . S
C1109 C1111 1.327 . S
C1109 C1115 1.429 . S
C1110 C1102 1.574 . S
C1110 H1105 0.949 . S
C1110 C1116 1.368 . S
C1111 C1095 1.349 . S
C1111 H1103 0.950 . S
C1111 C1109 1.327 . S
C1112 C1100 1.349 . S
C1112 H1106 0.950 . S
C1112 C1113 1.327 . S
C1113 H1107 0.950 . S
C1113 C1112 1.327 . S
C1113 C1117 1.429 . S
C1114 C1097 1.574 . S
C1114 H1108 0.949 . S
C1114 C1118 1.368 . S
C1115 C1096 1.429 . S
C1115 C1109 1.429 . S
C1115 C1116 1.523 . S
C1116 C1097 1.368 . S
C1116 C1110 1.368 . S
C1116 C1115 1.523 . S
C1117 C1101 1.429 . S
C1117 C1113 1.429 . S
C1117 C1118 1.523 . S
C1118 C1102 1.368 . S
C1118 C1114 1.368 . S
C1118 C1117 1.523 . S
H1119 C1094 0.950 . S
H1120 C1096 0.950 . S
H1121 C1097 0.949 . S
H1122 C1099 0.950 . S
H1123 C1101 0.950 . S
C1124 C1125 1.349 . S
C1124 C1126 1.327 . S
C1124 H1149 0.950 . S
C1125 C1124 1.349 . S
C1125 C1141 1.349 . S
C1126 C1124 1.327 . S
C1126 C1145 1.429 . S
C1126 H1150 0.950 . S
C1127 C1144 1.574 . S
C1127 C1146 1.368 1_545 S
C1127 H1151 0.949 . S
H1128 C1132 0.946 1_565 S
C1129 C1130 1.349 . S
C1129 C1131 1.327 . S
C1129 H1152 0.950 . S
C1130 C1129 1.349 . S
C1130 C1142 1.349 . S
C1131 C1129 1.327 . S
C1131 C1147 1.429 . S
C1131 H1153 0.950 . S
C1132 H1128 0.946 1_545 S
C1132 C1140 1.531 1_545 S
C1132 C1148 1.417 . S
H1133 C1141 0.950 . S
H1134 C1139 0.950 . S
H1135 C1140 0.949 . S
H1136 C1142 0.950 . S
H1137 C1143 0.950 . S
H1138 C1144 0.949 . S
C1139 H1134 0.950 . S
C1139 C1141 1.327 . S
C1139 C1145 1.429 . S
C1140 C1132 1.531 1_565 S
C1140 H1135 0.949 . S
C1140 C1146 1.368 1_556 S
C1141 C1125 1.349 . S
C1141 H1133 0.950 . S
C1141 C1139 1.327 . S
C1142 C1130 1.349 . S
C1142 H1136 0.950 . S
C1142 C1143 1.327 . S
C1143 H1137 0.950 . S
C1143 C1142 1.327 . S
C1143 C1147 1.429 . S
C1144 C1127 1.574 . S
C1144 H1138 0.949 . S
C1144 C1148 1.368 1_554 S
C1145 C1126 1.429 . S
C1145 C1139 1.429 . S
C1145 C1146 1.523 . S
C1146 C1127 1.368 1_565 S
C1146 C1140 1.368 1_554 S
C1146 C1145 1.523 . S
C1147 C1131 1.429 . S
C1147 C1143 1.429 . S
C1147 C1148 1.523 . S
C1148 C1132 1.417 . S
C1148 C1144 1.368 1_556 S
C1148 C1147 1.523 . S
H1149 C1124 0.950 . S
H1150 C1126 0.950 . S
H1151 C1127 0.949 . S
H1152 C1129 0.950 . S
H1153 C1131 0.950 . S
C1154 C1155 1.349 . S
C1154 C1156 1.327 . S
C1154 H1179 0.950 . S
C1155 C1154 1.349 . S
C1155 C1171 1.349 . S
C1156 C1154 1.327 . S
C1156 C1175 1.429 . S
C1156 H1180 0.950 . S
C1157 C1174 1.574 . S
C1157 C1176 1.368 . S
C1157 H1181 0.949 . S
H1158 C1162 0.949 . S
C1159 C1160 1.349 . S
C1159 C1161 1.327 . S
C1159 H1182 0.950 . S
C1160 C1159 1.349 . S
C1160 C1172 1.349 . S
C1161 C1159 1.327 . S
C1161 C1177 1.429 . S
C1161 H1183 0.950 . S
C1162 H1158 0.949 . S
C1162 C1170 1.574 . S
C1162 C1178 1.368 . S
H1163 C1171 0.950 . S
H1164 C1169 0.950 . S
H1165 C1170 0.949 . S
H1166 C1172 0.950 . S
H1167 C1173 0.950 . S
H1168 C1174 0.949 . S
C1169 H1164 0.950 . S
C1169 C1171 1.327 . S
C1169 C1175 1.429 . S
C1170 C1162 1.574 . S
C1170 H1165 0.949 . S
C1170 C1176 1.368 . S
C1171 C1155 1.349 . S
C1171 H1163 0.950 . S
C1171 C1169 1.327 . S
C1172 C1160 1.349 . S
C1172 H1166 0.950 . S
C1172 C1173 1.327 . S
C1173 H1167 0.950 . S
C1173 C1172 1.327 . S
C1173 C1177 1.429 . S
C1174 C1157 1.574 . S
C1174 H1168 0.949 . S
C1174 C1178 1.368 . S
C1175 C1156 1.429 . S
C1175 C1169 1.429 . S
C1175 C1176 1.523 . S
C1176 C1157 1.368 . S
C1176 C1170 1.368 . S
C1176 C1175 1.523 . S
C1177 C1161 1.429 . S
C1177 C1173 1.429 . S
C1177 C1178 1.523 . S
C1178 C1162 1.368 . S
C1178 C1174 1.368 . S
C1178 C1177 1.523 . S
H1179 C1154 0.950 . S
H1180 C1156 0.950 . S
H1181 C1157 0.949 . S
H1182 C1159 0.950 . S
H1183 C1161 0.950 . S
C225 C163 1.384 . S
C230 C7 1.385 . S
C255 C217 1.309 . S
C260 C23 1.287 . S
C285 C35 1.378 . S
C290 C133 1.378 . S
C315 C191 1.208 . S
C320 C51 1.208 . S
C345 C63 1.364 . S
C350 C189 1.366 . S
C375 C79 1.307 . S
C380 C161 1.326 . S
C405 C91 1.399 . S
C410 C219 1.398 . S
C435 C107 1.187 . S
C440 C135 1.191 . S
C465 C49 1.411 . S
C470 C119 1.410 . S
C495 C149 1.352 . S
C500 C21 1.353 . S
C525 C175 1.433 . S
C530 C77 1.435 . S
C555 C205 1.330 . S
C560 C105 1.329 . S
C585 C65 1.262 . S
C590 C121 1.268 . S
C615 C147 1.249 . S
C620 C93 1.231 . S
C645 C203 1.258 . S
C650 C37 1.240 . S
C675 C9 1.252 . S
C680 C177 1.257 . S
C705 C3 1.277 . S
C710 C59 1.276 . S
C735 C22 1.203 . S
C740 C78 1.203 . S
C765 C31 1.399 . S
C770 C87 1.399 . S
C795 C106 1.137 . S
C800 C50 1.138 . S
C825 C115 1.324 . S
C830 C171 1.324 . S
C855 C190 1.121 . S
C860 C134 1.122 . S
C885 C148 1.212 . S
C890 C204 1.212 . S
C915 C213 1.259 . S
C920 C157 1.258 . S
C945 C101 1.332 . S
C950 C17 1.333 . S
C975 C36 1.229 . S
C980 C64 1.230 . S
C1005 C45 1.343 . S
C1010 C73 1.344 . S
C1035 C8 1.109 . S
C1040 C92 1.109 . S
C1065 C129 1.255 . S
C1070 C218 1.260 . S
C1095 C176 1.205 . S
C1100 C143 1.193 . S
C1125 C162 1.280 . S
C1130 C185 1.274 . S
C1155 C199 1.174 . S
C1160 C120 1.185 . S
