# Generated by pormake.
# Topology uns, (4)-cn, num edge types: 1
# Building blocks:
#     Node 0, Type 0, BuildingBlock: ESEHIV_clean_sbu_0, # of connection points: 4
#     Node 1, Type 0, BuildingBlock: ESEHIV_clean_sbu_0, # of connection points: 4
#     Node 2, Type 0, BuildingBlock: ESEHIV_clean_sbu_0, # of connection points: 4
#     Node 3, Type 0, BuildingBlock: ESEHIV_clean_sbu_0, # of connection points: 4
#     Node 4, Type 0, BuildingBlock: ESEHIV_clean_sbu_0, # of connection points: 4
#     Node 5, Type 0, BuildingBlock: ESEHIV_clean_sbu_0, # of connection points: 4
#     Node 6, Type 0, BuildingBlock: ESEHIV_clean_sbu_0, # of connection points: 4
#     Node 7, Type 0, BuildingBlock: ESEHIV_clean_sbu_0, # of connection points: 4
#     Node 8, Type 0, BuildingBlock: ESEHIV_clean_sbu_0, # of connection points: 4
#     Node 9, Type 0, BuildingBlock: ESEHIV_clean_sbu_0, # of connection points: 4
#     Node 10, Type 0, BuildingBlock: ESEHIV_clean_sbu_0, # of connection points: 4
#     Node 11, Type 0, BuildingBlock: ESEHIV_clean_sbu_0, # of connection points: 4
#     Node 12, Type 0, BuildingBlock: ESEHIV_clean_sbu_0, # of connection points: 4
#     Node 13, Type 0, BuildingBlock: ESEHIV_clean_sbu_0, # of connection points: 4
#     Node 14, Type 0, BuildingBlock: ESEHIV_clean_sbu_0, # of connection points: 4
#     Node 15, Type 0, BuildingBlock: ESEHIV_clean_sbu_0, # of connection points: 4
#     Node 16, Type 0, BuildingBlock: ESEHIV_clean_sbu_0, # of connection points: 4
#     Node 17, Type 0, BuildingBlock: ESEHIV_clean_sbu_0, # of connection points: 4
#     Node 18, Type 0, BuildingBlock: ESEHIV_clean_sbu_0, # of connection points: 4
#     Node 19, Type 0, BuildingBlock: ESEHIV_clean_sbu_0, # of connection points: 4
#     Node 20, Type 0, BuildingBlock: ESEHIV_clean_sbu_0, # of connection points: 4
#     Node 21, Type 0, BuildingBlock: ESEHIV_clean_sbu_0, # of connection points: 4
#     Node 22, Type 0, BuildingBlock: ESEHIV_clean_sbu_0, # of connection points: 4
#     Node 23, Type 0, BuildingBlock: ESEHIV_clean_sbu_0, # of connection points: 4
#     Node 24, Type 0, BuildingBlock: ESEHIV_clean_sbu_0, # of connection points: 4
#     Node 25, Type 0, BuildingBlock: ESEHIV_clean_sbu_0, # of connection points: 4
#     Node 26, Type 0, BuildingBlock: ESEHIV_clean_sbu_0, # of connection points: 4
#     Node 27, Type 0, BuildingBlock: ESEHIV_clean_sbu_0, # of connection points: 4
#     Node 28, Type 0, BuildingBlock: ESEHIV_clean_sbu_0, # of connection points: 4
#     Node 29, Type 0, BuildingBlock: ESEHIV_clean_sbu_0, # of connection points: 4
#     Node 30, Type 0, BuildingBlock: ESEHIV_clean_sbu_0, # of connection points: 4
#     Node 31, Type 0, BuildingBlock: ESEHIV_clean_sbu_0, # of connection points: 4
#     Node 32, Type 0, BuildingBlock: ESEHIV_clean_sbu_0, # of connection points: 4
#     Node 33, Type 0, BuildingBlock: ESEHIV_clean_sbu_0, # of connection points: 4
#     Node 34, Type 0, BuildingBlock: ESEHIV_clean_sbu_0, # of connection points: 4
#     Node 35, Type 0, BuildingBlock: ESEHIV_clean_sbu_0, # of connection points: 4
#     Edge 36, Type (0, 0), BuildingBlock: XIVTED_clean_linker_0, # of connection points: 2
#     Edge 37, Type (0, 0), BuildingBlock: XIVTED_clean_linker_0, # of connection points: 2
#     Edge 38, Type (0, 0), BuildingBlock: XIVTED_clean_linker_0, # of connection points: 2
#     Edge 39, Type (0, 0), BuildingBlock: XIVTED_clean_linker_0, # of connection points: 2
#     Edge 40, Type (0, 0), BuildingBlock: XIVTED_clean_linker_0, # of connection points: 2
#     Edge 41, Type (0, 0), BuildingBlock: XIVTED_clean_linker_0, # of connection points: 2
#     Edge 42, Type (0, 0), BuildingBlock: XIVTED_clean_linker_0, # of connection points: 2
#     Edge 43, Type (0, 0), BuildingBlock: XIVTED_clean_linker_0, # of connection points: 2
#     Edge 44, Type (0, 0), BuildingBlock: XIVTED_clean_linker_0, # of connection points: 2
#     Edge 45, Type (0, 0), BuildingBlock: XIVTED_clean_linker_0, # of connection points: 2
#     Edge 46, Type (0, 0), BuildingBlock: XIVTED_clean_linker_0, # of connection points: 2
#     Edge 47, Type (0, 0), BuildingBlock: XIVTED_clean_linker_0, # of connection points: 2
#     Edge 48, Type (0, 0), BuildingBlock: XIVTED_clean_linker_0, # of connection points: 2
#     Edge 49, Type (0, 0), BuildingBlock: XIVTED_clean_linker_0, # of connection points: 2
#     Edge 50, Type (0, 0), BuildingBlock: XIVTED_clean_linker_0, # of connection points: 2
#     Edge 51, Type (0, 0), BuildingBlock: XIVTED_clean_linker_0, # of connection points: 2
#     Edge 52, Type (0, 0), BuildingBlock: XIVTED_clean_linker_0, # of connection points: 2
#     Edge 53, Type (0, 0), BuildingBlock: XIVTED_clean_linker_0, # of connection points: 2
#     Edge 54, Type (0, 0), BuildingBlock: XIVTED_clean_linker_0, # of connection points: 2
#     Edge 55, Type (0, 0), BuildingBlock: XIVTED_clean_linker_0, # of connection points: 2
#     Edge 56, Type (0, 0), BuildingBlock: XIVTED_clean_linker_0, # of connection points: 2
#     Edge 57, Type (0, 0), BuildingBlock: XIVTED_clean_linker_0, # of connection points: 2
#     Edge 58, Type (0, 0), BuildingBlock: XIVTED_clean_linker_0, # of connection points: 2
#     Edge 59, Type (0, 0), BuildingBlock: XIVTED_clean_linker_0, # of connection points: 2
#     Edge 60, Type (0, 0), BuildingBlock: XIVTED_clean_linker_0, # of connection points: 2
#     Edge 61, Type (0, 0), BuildingBlock: XIVTED_clean_linker_0, # of connection points: 2
#     Edge 62, Type (0, 0), BuildingBlock: XIVTED_clean_linker_0, # of connection points: 2
#     Edge 63, Type (0, 0), BuildingBlock: XIVTED_clean_linker_0, # of connection points: 2
#     Edge 64, Type (0, 0), BuildingBlock: XIVTED_clean_linker_0, # of connection points: 2
#     Edge 65, Type (0, 0), BuildingBlock: XIVTED_clean_linker_0, # of connection points: 2
#     Edge 66, Type (0, 0), BuildingBlock: XIVTED_clean_linker_0, # of connection points: 2
#     Edge 67, Type (0, 0), BuildingBlock: XIVTED_clean_linker_0, # of connection points: 2
#     Edge 68, Type (0, 0), BuildingBlock: XIVTED_clean_linker_0, # of connection points: 2
#     Edge 69, Type (0, 0), BuildingBlock: XIVTED_clean_linker_0, # of connection points: 2
#     Edge 70, Type (0, 0), BuildingBlock: XIVTED_clean_linker_0, # of connection points: 2
#     Edge 71, Type (0, 0), BuildingBlock: XIVTED_clean_linker_0, # of connection points: 2
#     Edge 72, Type (0, 0), BuildingBlock: XIVTED_clean_linker_0, # of connection points: 2
#     Edge 73, Type (0, 0), BuildingBlock: XIVTED_clean_linker_0, # of connection points: 2
#     Edge 74, Type (0, 0), BuildingBlock: XIVTED_clean_linker_0, # of connection points: 2
#     Edge 75, Type (0, 0), BuildingBlock: XIVTED_clean_linker_0, # of connection points: 2
#     Edge 76, Type (0, 0), BuildingBlock: XIVTED_clean_linker_0, # of connection points: 2
#     Edge 77, Type (0, 0), BuildingBlock: XIVTED_clean_linker_0, # of connection points: 2
#     Edge 78, Type (0, 0), BuildingBlock: XIVTED_clean_linker_0, # of connection points: 2
#     Edge 79, Type (0, 0), BuildingBlock: XIVTED_clean_linker_0, # of connection points: 2
#     Edge 80, Type (0, 0), BuildingBlock: XIVTED_clean_linker_0, # of connection points: 2
#     Edge 81, Type (0, 0), BuildingBlock: XIVTED_clean_linker_0, # of connection points: 2
#     Edge 82, Type (0, 0), BuildingBlock: XIVTED_clean_linker_0, # of connection points: 2
#     Edge 83, Type (0, 0), BuildingBlock: XIVTED_clean_linker_0, # of connection points: 2
#     Edge 84, Type (0, 0), BuildingBlock: XIVTED_clean_linker_0, # of connection points: 2
#     Edge 85, Type (0, 0), BuildingBlock: XIVTED_clean_linker_0, # of connection points: 2
#     Edge 86, Type (0, 0), BuildingBlock: XIVTED_clean_linker_0, # of connection points: 2
#     Edge 87, Type (0, 0), BuildingBlock: XIVTED_clean_linker_0, # of connection points: 2
#     Edge 88, Type (0, 0), BuildingBlock: XIVTED_clean_linker_0, # of connection points: 2
#     Edge 89, Type (0, 0), BuildingBlock: XIVTED_clean_linker_0, # of connection points: 2
#     Edge 90, Type (0, 0), BuildingBlock: XIVTED_clean_linker_0, # of connection points: 2
#     Edge 91, Type (0, 0), BuildingBlock: XIVTED_clean_linker_0, # of connection points: 2
#     Edge 92, Type (0, 0), BuildingBlock: XIVTED_clean_linker_0, # of connection points: 2
#     Edge 93, Type (0, 0), BuildingBlock: XIVTED_clean_linker_0, # of connection points: 2
#     Edge 94, Type (0, 0), BuildingBlock: XIVTED_clean_linker_0, # of connection points: 2
#     Edge 95, Type (0, 0), BuildingBlock: XIVTED_clean_linker_0, # of connection points: 2
#     Edge 96, Type (0, 0), BuildingBlock: XIVTED_clean_linker_0, # of connection points: 2
#     Edge 97, Type (0, 0), BuildingBlock: XIVTED_clean_linker_0, # of connection points: 2
#     Edge 98, Type (0, 0), BuildingBlock: XIVTED_clean_linker_0, # of connection points: 2
#     Edge 99, Type (0, 0), BuildingBlock: XIVTED_clean_linker_0, # of connection points: 2
#     Edge 100, Type (0, 0), BuildingBlock: XIVTED_clean_linker_0, # of connection points: 2
#     Edge 101, Type (0, 0), BuildingBlock: XIVTED_clean_linker_0, # of connection points: 2
#     Edge 102, Type (0, 0), BuildingBlock: XIVTED_clean_linker_0, # of connection points: 2
#     Edge 103, Type (0, 0), BuildingBlock: XIVTED_clean_linker_0, # of connection points: 2
#     Edge 104, Type (0, 0), BuildingBlock: XIVTED_clean_linker_0, # of connection points: 2
#     Edge 105, Type (0, 0), BuildingBlock: XIVTED_clean_linker_0, # of connection points: 2
#     Edge 106, Type (0, 0), BuildingBlock: XIVTED_clean_linker_0, # of connection points: 2
#     Edge 107, Type (0, 0), BuildingBlock: XIVTED_clean_linker_0, # of connection points: 2
# Relax obj value: 0.008
# Max RMSD: 0.094
# Mean RMSD: 0.066
data_MOF--net-uns--node1-ESEHIV_clean_sbu_0--edge1-XIVTED_clean_linker_0
_symmetry_space_group_name_H-M    P1
_symmetry_Int_Tables_number       1
_symmetry_cell_setting            triclinic
loop_
_symmetry_equiv_pos_as_xyz
'x, y, z'
_cell_length_a     66.518076
_cell_length_b     65.242491
_cell_length_c     46.376604
_cell_angle_alpha  94.282207
_cell_angle_beta   89.953193
_cell_angle_gamma 120.64661
loop_
_atom_site_label
_atom_site_type_symbol
_atom_site_fract_x
_atom_site_fract_y
_atom_site_fract_z
_atom_type_partial_charge
Cu0 Cu 0.27801 0.22894 0.06584 0.0
N1 N 0.2836 0.21763 0.09865 0.0
N2 N 0.30261 0.20658 0.12751 0.0
C3 C 0.29954 0.21088 0.10035 0.0
C4 C 0.28788 0.21074 0.14354 0.0
C5 C 0.27618 0.2176 0.12564 0.0
O6 O 0.27925 0.20846 0.0336 0.0
C7 C 0.30769 0.27749 0.04937 0.0
O8 O 0.29775 0.27003 0.02326 0.0
H9 H 0.30972 0.21059 0.08226 0.0
H10 H 0.26393 0.22318 0.13207 0.0
N11 N 0.24892 0.22691 0.06715 0.0
N12 N 0.22046 0.23498 0.05985 0.0
C13 C 0.2428 0.24112 0.05482 0.0
C14 C 0.22985 0.21123 0.08049 0.0
C15 C 0.21229 0.21613 0.07603 0.0
C16 C 0.26144 0.19379 0.01734 0.0
O17 O 0.24243 0.19514 0.01859 0.0
H18 H 0.25443 0.25537 0.04196 0.0
H19 H 0.22879 0.19716 0.09253 0.0
O20 O 0.30226 0.26259 0.06832 0.0
H21 H 0.28614 0.20956 0.16665 0.0
H22 H 0.19493 0.2066 0.08429 0.0
Cu23 Cu 0.83084 0.06142 0.02704 0.0
N24 N 0.81171 0.04396 0.05638 0.0
N25 N 0.77852 0.02409 0.07989 0.0
C26 C 0.78861 0.03586 0.05637 0.0
C27 C 0.79618 0.02492 0.09537 0.0
C28 C 0.81661 0.03717 0.08081 0.0
O29 O 0.81998 0.03838 0.99272 0.0
C30 C 0.83013 0.10063 0.05043 0.0
O31 O 0.83391 0.09214 0.07329 0.0
H32 H 0.77955 0.03903 0.0395 0.0
H33 H 0.83378 0.04096 0.08771 0.0
N34 N 0.86277 0.07365 0.03453 0.0
N35 N 0.90113 0.09692 0.02819 0.0
C36 C 0.87959 0.09363 0.02369 0.0
C37 C 0.87398 0.06392 0.04661 0.0
C38 C 0.89767 0.07826 0.04277 0.0
C39 C 0.83325 0.03339 0.97766 0.0
O40 O 0.85602 0.04753 0.98091 0.0
H41 H 0.87582 0.1046 0.01095 0.0
H42 H 0.86549 0.04698 0.05608 0.0
O43 O 0.82767 0.08957 0.02559 0.0
H44 H 0.7945 1.01707 0.11563 0.0
H45 H 0.91115 0.07475 0.04937 0.0
Cu46 Cu 0.97794 0.79593 0.07515 0.0
N47 N 0.96224 0.79146 0.10972 0.0
N48 N 0.93456 0.77246 0.14139 0.0
C49 C 0.94276 0.77096 0.11513 0.0
C50 C 0.9497 0.79487 0.15306 0.0
C51 C 0.96674 0.80654 0.13348 0.0
O52 O 0.95728 0.79719 0.04623 0.0
C53 C 0.99591 0.76508 0.05314 0.0
O54 O 1.00348 0.77734 0.03036 0.0
H55 H 0.93498 0.75512 0.10013 0.0
H56 H 0.9813 0.82472 0.13641 0.0
N57 N 1.00633 0.82547 0.07743 0.0
N58 N 0.04296 0.85438 0.06932 0.0
C59 C 1.02738 0.83055 0.0675 0.0
C60 C 1.00878 0.84681 0.08596 0.0
C61 C 1.03124 0.86458 0.08116 0.0
C62 C 0.93705 0.78011 0.03738 0.0
O63 O 0.93025 0.75828 0.04374 0.0
H64 H 1.03093 0.81719 0.05795 0.0
H65 H 0.99488 0.84933 0.09407 0.0
O66 O 0.98401 0.76959 0.07127 0.0
H67 H 0.94843 0.80247 0.17404 0.0
H68 H 0.03818 0.88358 0.08553 0.0
Cu69 Cu 0.21622 0.25481 0.46138 0.0
N70 N 0.20728 0.26278 0.42723 0.0
N71 N 0.20097 0.28336 0.39518 0.0
C72 C 0.2104 0.28422 0.42147 0.0
C73 C 0.19174 0.26047 0.38401 0.0
C74 C 0.19567 0.24794 0.40367 0.0
O75 O 0.19455 0.2524 0.49126 0.0
C76 C 0.26332 0.28585 0.45253 0.0
O77 O 0.25566 0.27863 0.42546 0.0
H78 H 0.21958 0.30014 0.43623 0.0
H79 H 0.19019 0.2292 0.40098 0.0
N80 N 0.21379 0.22478 0.45582 0.0
N81 N 0.22113 0.19504 0.45943 0.0
C82 C 0.22964 0.21889 0.46374 0.0
C83 C 0.19465 0.204 0.44627 0.0
C84 C 0.19913 0.18573 0.44827 0.0
C85 C 0.18992 0.26872 0.49844 0.0
O86 O 0.2016 0.28932 0.48715 0.0
H87 H 0.24665 0.23173 0.47367 0.0
H88 H 0.17826 0.20215 0.43925 0.0
O89 O 0.24879 0.27815 0.47254 0.0
H90 H 0.18227 0.25301 0.36335 0.0
H91 H 0.1869 0.16697 0.44234 0.0
Cu92 Cu 0.79982 0.98994 0.45809 0.0
N93 N 0.80028 1.00948 0.43031 0.0
N94 N 0.79112 0.03454 0.41172 0.0
C95 C 0.78986 1.02244 0.43467 0.0
C96 C 0.80308 0.02902 0.39213 0.0
C97 C 0.80872 1.01355 0.40366 0.0
O98 O 0.81358 1.01263 0.49261 0.0
C99 C 0.75991 0.95256 0.43262 0.0
O100 O 0.77383 0.96089 0.41101 0.0
H101 H 0.78137 1.02272 0.45446 0.0
H102 H 0.81767 1.00538 0.39301 0.0
N103 N 0.81742 0.9752 0.45034 0.0
N104 N 0.82992 0.9497 0.45622 0.0
C105 C 0.8149 0.95687 0.46467 0.0
C106 C 0.83458 0.97974 0.4319 0.0
C107 C 0.84242 0.9641 0.43561 0.0
C108 C 0.83556 0.02714 0.4913 0.0
O109 O 0.84649 0.02387 0.46948 0.0
H110 H 0.80263 0.9494 0.48161 0.0
H111 H 0.84131 0.99373 0.4173 0.0
O112 O 0.76743 0.96313 0.45797 0.0
H113 H 0.80683 0.03502 0.3706 0.0
H114 H 0.85625 0.96343 0.42407 0.0
Cu115 Cu 0.07695 0.8139 0.4292 0.0
N116 N 0.09439 0.82343 0.39623 0.0
N117 N 0.12484 0.83411 0.36794 0.0
C118 C 0.11706 0.82988 0.395 0.0
C119 C 0.10622 0.83014 0.35151 0.0
C120 C 0.08745 0.82354 0.36905 0.0
O121 O 0.09854 0.8351 0.46098 0.0
C122 C 0.05509 0.76663 0.44935 0.0
O123 O 0.0489 0.77523 0.4719 0.0
H124 H 0.12736 0.83058 0.4135 0.0
H125 H 0.06988 0.81868 0.36236 0.0
N126 N 0.05051 0.81714 0.42594 0.0
N127 N 1.01437 0.81135 0.42999 0.0
C128 C 1.02871 0.80283 0.43496 0.0
C129 C 0.04987 0.83523 0.41471 0.0
C130 C 1.02771 0.83175 0.41716 0.0
C131 C 0.09519 0.84929 0.47791 0.0
O132 O 0.07467 0.84761 0.47728 0.0
H133 H 1.02343 0.78649 0.4449 0.0
H134 H 0.06469 0.85018 0.40586 0.0
O135 O 0.06749 0.78044 0.43049 0.0
H136 H 0.10609 0.83173 0.32847 0.0
H137 H 1.02213 0.84374 0.41073 0.0
Cu138 Cu 0.76436 0.81493 0.92702 0.0
N139 N 0.73443 0.80885 0.93622 0.0
N140 N 0.70183 0.81009 0.92854 0.0
C141 C 0.72521 0.82137 0.92638 0.0
C142 C 0.69591 0.78946 0.94011 0.0
C143 C 0.71609 0.78876 0.94487 0.0
O144 O 0.78087 0.84826 0.91697 0.0
C145 C 0.75302 0.76944 0.90449 0.0
O146 O 0.75446 0.76723 0.93218 0.0
H147 H 0.7351 0.83736 0.9152 0.0
H148 H 0.71706 0.77384 0.95192 0.0
N149 N 0.78159 0.81285 0.95782 0.0
N150 N 0.80898 0.80924 0.98119 0.0
C151 C 0.79977 0.80916 0.9552 0.0
C152 C 0.77924 0.81532 0.9865 0.0
C153 C 0.79621 0.81326 0.00096 0.0
C154 C 0.78125 0.86274 0.93741 0.0
O155 O 0.77257 0.85436 0.96219 0.0
H156 H 0.8062 0.80662 0.93459 0.0
H157 H 0.76616 0.81846 0.99622 0.0
O158 O 0.7579 0.7897 0.89631 0.0
H159 H 0.67821 0.77543 0.94351 0.0
H160 H 0.79873 0.81427 0.02419 0.0
Cu161 Cu 0.2343 0.97274 0.94734 0.0
N162 N 0.23274 0.95367 0.91385 0.0
N163 N 0.22775 0.92319 0.88275 0.0
C164 C 0.22278 0.92967 0.90905 0.0
C165 C 0.24112 0.94392 0.87063 0.0
C166 C 0.24419 0.96254 0.88978 0.0
O167 O 0.2076 0.95538 0.97158 0.0
C168 C 0.27551 0.9742 0.96735 0.0
O169 O 0.2638 0.9512 0.95921 0.0
H170 H 0.21281 0.91729 0.92482 0.0
H171 H 0.25452 0.98138 0.88665 0.0
N172 N 0.23276 0.999 0.93631 0.0
N173 N 0.23631 0.03514 0.93751 0.0
C174 C 0.24126 1.02055 0.9513 0.0
C175 C 0.22214 0.99998 0.91224 0.0
C176 C 0.2243 1.02218 0.91289 0.0
C177 C 0.20144 0.9362 0.98356 0.0
O178 O 0.21454 0.92648 0.98148 0.0
H179 H 0.25035 0.02515 0.97223 0.0
H180 H 0.21325 0.98545 0.8955 0.0
O181 O 0.26517 0.98605 0.96628 0.0
H182 H 0.2483 0.94561 0.8494 0.0
H183 H 0.21756 0.02825 0.89639 0.0
Cu184 Cu 0.09457 0.28265 0.92014 0.0
N185 N 0.11268 0.2916 0.88707 0.0
N186 N 0.14048 0.31347 0.85673 0.0
C187 C 0.13084 0.31343 0.88242 0.0
C188 C 0.12746 0.2909 0.84438 0.0
C189 C 0.11034 0.27756 0.86299 0.0
O190 O 0.11342 0.28613 0.95448 0.0
C191 C 0.08603 0.32179 0.92867 0.0
O192 O 0.10849 0.33547 0.9354 0.0
H193 H 0.13677 0.32908 0.89746 0.0
H194 H 0.09714 0.25888 0.8591 0.0
N195 N 0.07229 0.24991 0.91687 0.0
N196 N 0.04206 0.21542 0.92949 0.0
C197 C 0.05197 0.23947 0.93061 0.0
C198 C 0.07542 0.23189 0.90688 0.0
C199 C 0.05676 0.21064 0.91432 0.0
C200 C 0.13537 0.29991 0.95928 0.0
O201 O 0.14732 0.31693 0.94225 0.0
H202 H 0.04557 0.24951 0.94306 0.0
H203 H 0.09096 0.23411 0.89671 0.0
O204 O 0.07732 0.29939 0.9232 0.0
H205 H 0.1304 0.28426 0.82369 0.0
H206 H 0.05473 0.19316 0.90987 0.0
Cu207 Cu 0.83482 0.76033 0.56068 0.0
N208 N 0.84426 0.75358 0.59483 0.0
N209 N 0.85191 0.73346 0.62579 0.0
C210 C 0.8472 0.73489 0.59791 0.0
C211 C 0.85198 0.75208 0.64076 0.0
C212 C 0.84723 0.76442 0.6216 0.0
O213 O 0.85125 0.75347 0.52997 0.0
C214 C 0.78611 0.73695 0.53875 0.0
O215 O 0.79372 0.74475 0.51338 0.0
H216 H 0.84498 0.72205 0.58017 0.0
H217 H 0.84547 0.77985 0.62691 0.0
N218 N 0.84468 0.79292 0.56224 0.0
N219 N 0.84892 0.82757 0.55056 0.0
C220 C 0.83515 0.80346 0.54801 0.0
C221 C 0.86497 0.81094 0.57443 0.0
C222 C 0.86763 0.83229 0.56733 0.0
C223 C 0.85818 0.76516 0.50765 0.0
O224 O 0.85026 0.77924 0.50183 0.0
H225 H 0.81921 0.79361 0.5346 0.0
H226 H 0.87744 0.80865 0.58662 0.0
O227 O 0.80072 0.74123 0.55934 0.0
H228 H 0.85504 0.75639 0.66392 0.0
H229 H 0.88246 0.84991 0.5735 0.0
Cu230 Cu 0.2896 0.06567 0.55951 0.0
N231 N 0.306 0.08535 0.5929 0.0
N232 N 0.33088 0.1173 0.62238 0.0
C233 C 0.31875 0.10945 0.59661 0.0
C234 C 0.32526 0.09735 0.63544 0.0
C235 C 0.31 0.07775 0.61723 0.0
O236 O 0.28046 0.08275 0.53455 0.0
C237 C 0.33069 0.0646 0.54461 0.0
O238 O 0.34168 0.08739 0.55386 0.0
H239 H 0.32002 0.12096 0.58027 0.0
H240 H 0.30291 0.05918 0.62099 0.0
N241 N 0.2617 0.0394 0.57014 0.0
N242 N 0.2284 1.00385 0.56773 0.0
C243 C 0.24807 1.01848 0.55419 0.0
C244 C 0.25034 0.03798 0.59459 0.0
C245 C 0.22985 1.01612 0.59319 0.0
C246 C 0.29355 0.10218 0.52306 0.0
O247 O 0.31636 0.11181 0.52503 0.0
H248 H 0.2522 1.01442 0.53272 0.0
H249 H 0.25638 0.05202 0.61204 0.0
O250 O 0.3084 0.05293 0.54265 0.0
H251 H 0.33195 0.09688 0.65649 0.0
H252 H 0.21701 1.00981 0.60968 0.0
Cu253 Cu 0.98419 0.22889 0.61268 0.0
N254 N 0.97057 0.22613 0.64865 0.0
N255 N 0.94348 0.2188 0.68149 0.0
C256 C 0.94756 0.21589 0.65337 0.0
C257 C 0.96487 0.23122 0.69503 0.0
C258 C 0.98151 0.2357 0.67473 0.0
O259 O 0.96246 0.20121 0.58655 0.0
C260 C 0.98612 0.27358 0.60929 0.0
O261 O 0.96671 0.26382 0.62342 0.0
H262 H 0.93412 0.20737 0.63633 0.0
H263 H 1.00029 0.24577 0.67857 0.0
N264 N 1.0112 0.22702 0.61638 0.0
N265 N 0.04586 0.23081 0.60647 0.0
C266 C 1.02985 0.23679 0.59958 0.0
C267 C 1.01551 0.21446 0.63458 0.0
C268 C 0.03686 0.21676 0.62853 0.0
C269 C 0.94187 0.19513 0.57763 0.0
O270 O 0.93425 0.21004 0.58256 0.0
H271 H 1.03124 0.24743 0.58203 0.0
H272 H 1.00376 0.20404 0.65076 0.0
O273 O 0.99471 0.26079 0.60044 0.0
H274 H 0.96836 0.23695 0.71789 0.0
H275 H 0.04505 0.20865 0.63951 0.0
Cu276 Cu 0.93629 0.5452 0.39663 0.0
N277 N 0.94627 0.53858 0.43063 0.0
N278 N 0.96717 0.53125 0.46171 0.0
C279 C 0.96213 0.53175 0.4336 0.0
C280 C 0.95372 0.53781 0.47691 0.0
C281 C 0.94096 0.54237 0.45773 0.0
O282 O 0.93145 0.52145 0.36485 0.0
C283 C 0.97964 0.59019 0.39685 0.0
O284 O 0.99009 0.57885 0.40455 0.0
H285 H 0.97021 0.5278 0.41553 0.0
H286 H 0.92926 0.54888 0.46318 0.0
N287 N 0.90772 0.54365 0.4023 0.0
N288 N 0.88003 0.55349 0.40064 0.0
C289 C 0.90174 0.55898 0.393 0.0
C290 C 0.88922 0.52783 0.41632 0.0
C291 C 0.8721 0.53382 0.41533 0.0
C292 C 0.94714 0.51839 0.35305 0.0
O293 O 0.96923 0.53323 0.36083 0.0
H294 H 0.91308 0.5737 0.38051 0.0
H295 H 0.8883 0.51306 0.42666 0.0
O296 O 0.95786 0.57845 0.38999 0.0
H297 H 0.95381 0.54021 0.50026 0.0
H298 H 0.85527 0.52452 0.425 0.0
Cu299 Cu 0.49206 0.39784 0.41816 0.0
N300 N 0.47148 0.38439 0.448 0.0
N301 N 0.43673 0.36866 0.4683 0.0
C302 C 0.44879 0.37744 0.44448 0.0
C303 C 0.45255 0.36993 0.48771 0.0
C304 C 0.47411 0.37982 0.47513 0.0
O305 O 0.48403 0.37151 0.38839 0.0
C306 C 0.49096 0.43833 0.43088 0.0
O307 O 0.49519 0.43309 0.45612 0.0
H308 H 0.44128 0.37863 0.42443 0.0
H309 H 0.49045 0.38347 0.48505 0.0
N310 N 0.52396 0.41226 0.42779 0.0
N311 N 0.56202 0.43673 0.42089 0.0
C312 C 0.53998 0.43145 0.41489 0.0
C313 C 0.53622 0.40503 0.44273 0.0
C314 C 0.55978 0.42013 0.43847 0.0
C315 C 0.48227 0.35285 0.39811 0.0
O316 O 0.48616 0.35322 0.42595 0.0
H317 H 0.53536 0.44033 0.39967 0.0
H318 H 0.5286 0.38926 0.45457 0.0
O319 O 0.48847 0.42454 0.40838 0.0
H320 H 0.44892 0.36444 0.50948 0.0
H321 H 0.57404 0.4185 0.44688 0.0
Cu322 Cu 0.66172 0.11291 0.34864 0.0
N323 N 0.63558 0.08168 0.34602 0.0
N324 N 0.60226 0.05091 0.36034 0.0
C325 C 0.62005 0.07352 0.36708 0.0
C326 C 0.60686 0.04458 0.33383 0.0
C327 C 0.62746 0.06355 0.32509 0.0
O328 O 0.64912 0.13354 0.35904 0.0
C329 C 0.69302 0.1008 0.36332 0.0
O330 O 0.68513 0.08998 0.33731 0.0
H331 H 0.62158 0.08432 0.38676 0.0
H332 H 0.63579 0.06405 0.30493 0.0
N333 N 0.67824 0.12405 0.31482 0.0
N334 N 0.70925 0.14767 0.28943 0.0
C335 C 0.69982 0.14365 0.3157 0.0
C336 C 0.67365 0.11528 0.28688 0.0
C337 C 0.6928 0.12979 0.27118 0.0
C338 C 0.63324 0.13004 0.34056 0.0
O339 O 0.62816 0.11446 0.31811 0.0
H340 H 0.70871 0.15431 0.3356 0.0
H341 H 0.65774 0.09937 0.27854 0.0
O342 O 0.6844 0.11276 0.37513 0.0
H343 H 0.59624 0.02742 0.32166 0.0
H344 H 0.6944 0.12736 0.24813 0.0
Cu345 Cu 0.89174 0.58541 0.77529 0.0
N346 N 0.88387 0.59087 0.73898 0.0
N347 N 0.8752 0.60845 0.7053 0.0
C348 C 0.8765 0.60609 0.73385 0.0
C349 C 0.88172 0.59374 0.69194 0.0
C350 C 0.88707 0.58298 0.71274 0.0
O351 O 0.86784 0.58254 0.80206 0.0
C352 C 0.9333 0.63172 0.77941 0.0
O353 O 0.9197 0.6393 0.77044 0.0
H354 H 0.87346 0.6163 0.75085 0.0
H355 H 0.89366 0.57093 0.70905 0.0
N356 N 0.89104 0.55628 0.77318 0.0
N357 N 0.89911 0.52813 0.78341 0.0
C358 C 0.9052 0.55133 0.78818 0.0
C359 C 0.87549 0.53556 0.75832 0.0
C360 C 0.88041 0.51818 0.76457 0.0
C361 C 0.86393 0.59897 0.81155 0.0
O362 O 0.87864 0.62118 0.80628 0.0
H363 H 0.91918 0.56434 0.80309 0.0
H364 H 0.86132 0.53319 0.74435 0.0
O365 O 0.92418 0.6101 0.78542 0.0
H366 H 0.88308 0.59128 0.66885 0.0
H367 H 0.87086 0.49963 0.75599 0.0
Cu368 Cu 0.45097 0.30119 0.77607 0.0
N369 N 0.42496 0.30492 0.77996 0.0
N370 N 0.4001 0.31797 0.77335 0.0
C371 C 0.42179 0.3217 0.76895 0.0
C372 C 0.38946 0.29829 0.78818 0.0
C373 C 0.40479 0.2903 0.79216 0.0
O374 O 0.479 0.33289 0.78254 0.0
C375 C 0.43437 0.28076 0.71798 0.0
O376 O 0.42619 0.29528 0.71754 0.0
H377 H 0.43482 0.33563 0.75673 0.0
H378 H 0.40129 0.27459 0.80261 0.0
N379 N 0.45105 0.2819 0.80409 0.0
N380 N 0.45228 0.25215 0.82385 0.0
C381 C 0.45279 0.26222 0.79915 0.0
C382 C 0.44939 0.28446 0.83287 0.0
C383 C 0.45013 0.26617 0.8451 0.0
C384 C 0.49122 0.34665 0.76348 0.0
O385 O 0.4861 0.33912 0.73593 0.0
H386 H 0.45415 0.25532 0.77775 0.0
H387 H 0.44783 0.29867 0.84416 0.0
O388 O 0.44771 0.28306 0.73921 0.0
H389 H 0.37176 0.28999 0.79547 0.0
H390 H 0.4495 0.2637 0.86796 0.0
Cu391 Cu 0.74529 0.15529 0.82738 0.0
N392 N 0.75926 0.16216 0.79176 0.0
N393 N 0.7871 0.17202 0.75951 0.0
C394 C 0.78224 0.17125 0.78782 0.0
C395 C 0.76628 0.16312 0.74509 0.0
C396 C 0.74913 0.15705 0.76507 0.0
O397 O 0.77067 0.1756 0.85591 0.0
C398 C 0.74133 0.10961 0.8227 0.0
O399 O 0.76382 0.12175 0.81818 0.0
H400 H 0.79495 0.1761 0.80542 0.0
H401 H 0.73054 0.14888 0.76049 0.0
N402 N 0.72185 0.16317 0.82962 0.0
N403 N 0.6898 0.16397 0.84292 0.0
C404 C 0.70274 0.1535 0.84572 0.0
C405 C 0.72098 0.1802 0.81605 0.0
C406 C 0.7013 0.18073 0.82413 0.0
C407 C 0.76887 0.18745 0.87783 0.0
O408 O 0.74806 0.18313 0.88506 0.0
H409 H 0.69878 0.13945 0.85966 0.0
H410 H 0.73384 0.19151 0.80137 0.0
O411 O 0.73077 0.12089 0.82932 0.0
H412 H 0.76355 0.16086 0.7218 0.0
H413 H 0.69584 0.19248 0.81645 0.0
Cu414 Cu 0.45998 0.16731 0.25642 0.0
N415 N 0.452 0.1739 0.22121 0.0
N416 N 0.43082 0.18109 0.19063 0.0
C417 C 0.43562 0.17994 0.2185 0.0
C418 C 0.44475 0.17539 0.1751 0.0
C419 C 0.45779 0.17089 0.19408 0.0
O420 O 0.45773 0.18955 0.28527 0.0
C421 C 0.43453 0.11896 0.2769 0.0
O422 O 0.44516 0.12763 0.30252 0.0
H423 H 0.42655 0.18223 0.23669 0.0
H424 H 0.46994 0.165 0.18844 0.0
N425 N 0.49076 0.17353 0.25763 0.0
N426 N 0.5236 0.17551 0.27332 0.0
C427 C 0.50071 0.16721 0.27778 0.0
C428 C 0.50792 0.18631 0.23984 0.0
C429 C 0.52815 0.18752 0.2494 0.0
C430 C 0.46992 0.21138 0.27954 0.0
O431 O 0.48315 0.21635 0.25704 0.0
H432 H 0.49143 0.15716 0.29568 0.0
H433 H 0.50595 0.19444 0.22139 0.0
O434 O 0.43815 0.13303 0.25738 0.0
H435 H 0.44519 0.1741 0.15173 0.0
H436 H 0.54482 0.19635 0.23926 0.0
Cu437 Cu 0.89929 0.30745 0.19938 0.0
N438 N 0.88958 0.29334 0.16155 0.0
N439 N 0.87513 0.2645 0.12501 0.0
C440 C 0.87783 0.26963 0.15403 0.0
C441 C 0.88563 0.28594 0.11384 0.0
C442 C 0.89451 0.30371 0.13645 0.0
O443 O 0.87822 0.28227 0.22372 0.0
C444 C 0.94547 0.325 0.22615 0.0
O445 O 0.93608 0.32412 0.2513 0.0
H446 H 0.87233 0.25641 0.16962 0.0
H447 H 0.90441 0.3228 0.13473 0.0
N448 N 0.89583 0.33428 0.20508 0.0
N449 N 0.89949 0.36884 0.22361 0.0
C450 C 0.90765 0.35363 0.22429 0.0
C451 C 0.87984 0.33746 0.19166 0.0
C452 C 0.88202 0.35868 0.203 0.0
C453 C 0.86549 0.2848 0.24256 0.0
O454 O 0.86917 0.30629 0.25005 0.0
H455 H 0.92139 0.35607 0.23911 0.0
H456 H 0.86721 0.32498 0.17508 0.0
O457 O 0.93253 0.31791 0.20308 0.0
H458 H 0.88708 0.28863 0.09101 0.0
H459 H 0.8715 0.366 0.19653 0.0
Cu460 Cu 0.75023 0.61127 0.29076 0.0
N461 N 0.76732 0.61817 0.25683 0.0
N462 N 0.79381 0.63969 0.225 0.0
C463 C 0.78456 0.64007 0.25085 0.0
C464 C 0.78142 0.6167 0.21387 0.0
C465 C 0.76506 0.60354 0.23339 0.0
O466 O 0.77012 0.61403 0.32368 0.0
C467 C 0.72779 0.63754 0.31353 0.0
O468 O 0.72749 0.62987 0.33901 0.0
H469 H 0.79002 0.65606 0.26514 0.0
H470 H 0.75232 0.58468 0.23033 0.0
N471 N 0.72595 0.57921 0.28942 0.0
N472 N 0.69621 0.54621 0.30598 0.0
C473 C 0.707 0.57029 0.30588 0.0
C474 C 0.72719 0.5601 0.27896 0.0
C475 C 0.70881 0.53981 0.28875 0.0
C476 C 0.79239 0.62624 0.3258 0.0
O477 O 0.80384 0.64263 0.30783 0.0
H478 H 0.70247 0.5814 0.31951 0.0
H479 H 0.7416 0.56093 0.26729 0.0
O480 O 0.737 0.63199 0.29264 0.0
H481 H 0.78418 0.60973 0.19329 0.0
H482 H 0.70577 0.52187 0.28471 0.0
Cu483 Cu 0.48662 0.07709 0.90951 0.0
N484 N 0.48701 0.04862 0.90198 0.0
N485 N 0.49235 1.01868 0.91251 0.0
C486 C 0.49256 0.03872 0.92272 0.0
C487 C 0.48644 1.01589 0.884 0.0
C488 C 0.4831 0.03436 0.87757 0.0
O489 O 0.51908 0.09977 0.9226 0.0
C490 C 0.44273 0.05099 0.92959 0.0
O491 O 0.44143 0.03849 0.90539 0.0
H492 H 0.49713 0.0465 0.94487 0.0
H493 H 0.47815 0.03709 0.85665 0.0
N494 N 0.47912 0.08817 0.87729 0.0
N495 N 0.47103 0.11202 0.85338 0.0
C496 C 0.47134 0.10369 0.87915 0.0
C497 C 0.48369 0.08633 0.84928 0.0
C498 C 0.47863 0.10089 0.83449 0.0
C499 C 0.53186 0.11984 0.91224 0.0
O500 O 0.52188 0.12924 0.8981 0.0
H501 H 0.46765 0.11003 0.89955 0.0
H502 H 0.49138 0.0762 0.84048 0.0
O503 O 0.462 0.07019 0.93705 0.0
H504 H 0.48444 1.00144 0.86888 0.0
H505 H 0.48116 0.1036 0.81174 0.0
Cu506 Cu 0.96025 0.41383 0.93238 0.0
N507 N 0.97366 0.43577 0.96504 0.0
N508 N 0.99918 0.46796 0.99367 0.0
C509 C 0.99073 0.45902 0.96628 0.0
C510 C 0.98692 0.44974 0.01027 0.0
C511 C 0.97126 0.42996 0.99259 0.0
O512 O 0.95209 0.428 0.90218 0.0
C513 C 0.98129 0.38895 0.90264 0.0
O514 O 0.96332 0.37897 0.88398 0.0
H515 H 0.99787 0.46879 0.94746 0.0
H516 H 0.95975 0.41221 0.99918 0.0
N517 N 0.93214 0.38736 0.94264 0.0
N518 N 0.90056 0.3506 0.94346 0.0
C519 C 0.92203 0.36406 0.93282 0.0
C520 C 0.91658 0.38867 0.96002 0.0
C521 C 0.89722 0.36616 0.96065 0.0
C522 C 0.96599 0.44595 0.88872 0.0
O523 O 0.98867 0.45574 0.89316 0.0
H524 H 0.93007 0.35717 0.9179 0.0
H525 H 0.91889 0.40506 0.9708 0.0
O526 O 0.98297 0.40434 0.92251 0.0
H527 H 0.98958 0.45049 0.03344 0.0
H528 H 0.88151 0.36189 0.97199 0.0
Cu529 Cu 0.64347 0.55236 0.87282 0.0
N530 N 0.63096 0.55439 0.90843 0.0
N531 N 0.60557 0.55247 0.94163 0.0
C532 C 0.609 0.54959 0.91314 0.0
C533 C 0.62632 0.55929 0.95517 0.0
C534 C 0.64185 0.56046 0.93471 0.0
O535 O 0.61812 0.52572 0.84887 0.0
C536 C 0.65043 0.5978 0.85882 0.0
O537 O 0.62951 0.5905 0.86862 0.0
H538 H 0.59593 0.54425 0.89587 0.0
H539 H 0.65979 0.56521 0.93872 0.0
N540 N 0.66745 0.5458 0.87856 0.0
N541 N 0.70215 0.54797 0.87597 0.0
C542 C 0.68931 0.55774 0.86881 0.0
C543 C 0.66638 0.52792 0.89242 0.0
C544 C 0.6877 0.52919 0.89086 0.0
C545 C 0.6211 0.51374 0.8281 0.0
O546 O 0.64237 0.52097 0.81958 0.0
H547 H 0.69545 0.57296 0.85615 0.0
H548 H 0.6511 0.51481 0.90279 0.0
O549 O 0.65816 0.58348 0.85701 0.0
H550 H 0.63008 0.56286 0.97827 0.0
H551 H 0.6922 0.51724 0.90017 0.0
Cu552 Cu 0.60173 0.89141 0.74946 0.0
N553 N 0.60266 0.88199 0.78653 0.0
N554 N 0.61323 0.86938 0.82417 0.0
C555 C 0.61124 0.86844 0.795 0.0
C556 C 0.60537 0.88383 0.83437 0.0
C557 C 0.5989 0.89154 0.81119 0.0
O558 O 0.60108 0.86837 0.71943 0.0
C559 C 0.64677 0.9332 0.76272 0.0
O560 O 0.65162 0.91897 0.77583 0.0
H561 H 0.61739 0.85942 0.78023 0.0
H562 H 0.59308 0.90432 0.8122 0.0
N563 N 0.57441 0.89248 0.7434 0.0
N564 N 0.54876 0.90033 0.72298 0.0
C565 C 0.56982 0.90192 0.72119 0.0
C566 C 0.5556 0.88455 0.75982 0.0
C567 C 0.5398 0.88941 0.74734 0.0
C568 C 0.61653 0.86259 0.71506 0.0
O569 O 0.63623 0.8738 0.73073 0.0
H570 H 0.58188 0.91003 0.70422 0.0
H571 H 0.55346 0.87577 0.77941 0.0
O572 O 0.62742 0.92431 0.74828 0.0
H573 H 0.60512 0.88914 0.85698 0.0
H574 H 0.52284 0.8848 0.75535 0.0
Cu575 Cu 0.16747 0.74106 0.71679 0.0
N576 N 0.13726 0.73669 0.71449 0.0
N577 N 0.09963 0.72421 0.72275 0.0
C578 C 0.11716 0.71948 0.72483 0.0
C579 C 0.10909 0.74503 0.71024 0.0
C580 C 0.13218 0.75269 0.70538 0.0
O581 O 0.16584 0.71003 0.71373 0.0
C582 C 0.17316 0.7643 0.77355 0.0
O583 O 0.15115 0.74784 0.77596 0.0
H584 H 0.11574 0.7045 0.73506 0.0
H585 H 0.14468 0.76928 0.69676 0.0
N586 N 0.18393 0.7571 0.68495 0.0
N587 N 0.21307 0.78002 0.6568 0.0
C588 C 0.20734 0.77071 0.68274 0.0
C589 C 0.17463 0.75762 0.65946 0.0
C590 C 0.19249 0.77181 0.64216 0.0
C591 C 0.15564 0.69319 0.73034 0.0
O592 O 0.14665 0.69671 0.75409 0.0
H593 H 0.21988 0.77398 0.69995 0.0
H594 H 0.15611 0.74829 0.6538 0.0
O595 O 0.1838 0.76283 0.75129 0.0
H596 H 0.10018 0.75443 0.70535 0.0
H597 H 0.19049 0.77548 0.6203 0.0
Cu598 Cu 0.33551 0.46041 0.71637 0.0
N599 N 0.32065 0.45478 0.7518 0.0
N600 N 0.29218 0.43726 0.7831 0.0
C601 C 0.29739 0.44225 0.75535 0.0
C602 C 0.3131 0.44758 0.79768 0.0
C603 C 0.33057 0.45825 0.77834 0.0
O604 O 0.31534 0.46278 0.68779 0.0
C605 C 0.33077 0.41439 0.71528 0.0
O606 O 0.30989 0.40765 0.72483 0.0
H607 H 0.28454 0.43595 0.73767 0.0
H608 H 0.34918 0.4667 0.78297 0.0
N609 N 0.36386 0.48973 0.71939 0.0
N610 N 0.39936 0.51941 0.70895 0.0
C611 C 0.38193 0.49664 0.70167 0.0
C612 C 0.37005 0.50868 0.73858 0.0
C613 C 0.39188 0.52696 0.73223 0.0
C614 C 0.29516 0.44615 0.67815 0.0
O615 O 0.28745 0.42415 0.68458 0.0
H616 H 0.38195 0.48538 0.68332 0.0
H617 H 0.35931 0.50925 0.75577 0.0
O618 O 0.34337 0.43559 0.70782 0.0
H619 H 0.31569 0.44621 0.82033 0.0
H620 H 0.40147 0.54446 0.74394 0.0
Cu621 Cu 0.561 0.90915 0.09879 0.0
N622 N 0.54919 0.90971 0.06215 0.0
N623 N 0.53687 0.92152 0.02516 0.0
C624 C 0.54288 0.92512 0.05378 0.0
C625 C 0.53955 0.90309 0.01523 0.0
C626 C 0.5472 0.89597 0.03795 0.0
O627 O 0.54139 0.91173 0.12847 0.0
C628 C 0.60823 0.94081 0.12294 0.0
O629 O 0.60057 0.93214 0.14792 0.0
H630 H 0.5435 0.93925 0.06815 0.0
H631 H 0.55153 0.88206 0.03672 0.0
N632 N 0.55885 0.87949 0.10175 0.0
N633 N 0.56452 0.85073 0.11651 0.0
C634 C 0.57256 0.87451 0.11777 0.0
C635 C 0.54152 0.85816 0.09018 0.0
C636 C 0.54501 0.84048 0.09905 0.0
C637 C 0.53833 0.92924 0.13481 0.0
O638 O 0.55099 0.94932 0.12271 0.0
H639 H 0.58792 0.88797 0.13038 0.0
H640 H 0.52691 0.85557 0.07691 0.0
O641 O 0.59389 0.93416 0.1013 0.0
H642 H 0.53634 0.8953 0.99308 0.0
H643 H 0.53347 0.82145 0.09393 0.0
Cu644 Cu 0.12254 0.66161 0.12718 0.0
N645 N 0.09811 0.6675 0.13379 0.0
N646 N 0.07256 0.67963 0.12657 0.0
C647 C 0.09226 0.68024 0.11772 0.0
C648 C 0.06591 0.6659 0.14917 0.0
C649 C 0.08162 0.65844 0.15348 0.0
O650 O 0.15056 0.69288 0.12349 0.0
C651 C 0.12123 0.62759 0.08205 0.0
O652 O 0.14164 0.63229 0.09251 0.0
H653 H 0.10224 0.68955 0.09973 0.0
H654 H 0.08075 0.64673 0.16939 0.0
N655 N 0.1267 0.64739 0.15887 0.0
N656 N 0.13298 0.62398 0.18625 0.0
C657 C 0.12797 0.62736 0.1593 0.0
C658 C 0.13068 0.65676 0.18651 0.0
C659 C 0.13451 0.64247 0.20337 0.0
C660 C 0.17114 0.69828 0.13147 0.0
O661 O 0.17458 0.68142 0.13967 0.0
H662 H 0.12585 0.6158 0.14021 0.0
H663 H 0.13118 0.67317 0.1938 0.0
O664 O 0.11208 0.63933 0.09263 0.0
H665 H 0.05042 0.66093 0.16131 0.0
H666 H 0.13828 0.64565 0.22649 0.0
Cu667 Cu 0.41435 0.502 0.09987 0.0
N668 N 0.43025 0.51352 0.06602 0.0
N669 N 0.45781 0.52362 0.03316 0.0
C670 C 0.45203 0.51808 0.06066 0.0
C671 C 0.43886 0.52255 0.02084 0.0
C672 C 0.42192 0.51629 0.04111 0.0
O673 O 0.43684 0.52114 0.13202 0.0
C674 C 0.3946 0.45301 0.11495 0.0
O675 O 0.39279 0.46036 0.14145 0.0
H676 H 0.46301 0.51631 0.07631 0.0
H677 H 0.4045 0.51328 0.03767 0.0
N678 N 0.38809 0.50571 0.10194 0.0
N679 N 0.35247 0.4999 0.11123 0.0
C680 C 0.36686 0.49091 0.11221 0.0
C681 C 0.38712 0.52467 0.09433 0.0
C682 C 0.36528 0.52116 0.09994 0.0
C683 C 0.4314 0.5279 0.15573 0.0
O684 O 0.40921 0.51932 0.16086 0.0
H685 H 0.36211 0.47395 0.12027 0.0
H686 H 0.40147 0.54017 0.0857 0.0
O687 O 0.40382 0.46805 0.09611 0.0
H688 H 0.43721 0.52579 0.99866 0.0
H689 H 0.35956 0.53368 0.09663 0.0
Cu690 Cu 0.12407 0.49672 0.61196 0.0
N691 N 0.11145 0.499 0.57714 0.0
N692 N 0.08912 0.50403 0.5457 0.0
C693 C 0.09595 0.50623 0.57378 0.0
C694 C 0.10099 0.49527 0.53089 0.0
C695 C 0.11467 0.49213 0.55032 0.0
O696 O 0.13023 0.52436 0.63853 0.0
C697 C 0.08106 0.45358 0.62046 0.0
O698 O 0.0711 0.46516 0.6119 0.0
H699 H 0.08955 0.51261 0.59166 0.0
H700 H 0.12573 0.48476 0.54536 0.0
N701 N 0.15301 0.49928 0.60513 0.0
N702 N 0.18406 0.49459 0.60788 0.0
C703 C 0.16223 0.48737 0.61684 0.0
C704 C 0.16947 0.51444 0.58816 0.0
C705 C 0.18859 0.5116 0.58978 0.0
C706 C 0.11553 0.52747 0.65291 0.0
O707 O 0.09368 0.50993 0.65279 0.0
H708 H 0.15332 0.47416 0.63219 0.0
H709 H 0.16774 0.52685 0.57568 0.0
O710 O 0.10326 0.46467 0.62431 0.0
H711 H 0.0993 0.4906 0.50777 0.0
H712 H 0.20455 0.52131 0.57839 0.0
Cu713 Cu 0.56876 0.6518 0.56146 0.0
N714 N 0.55548 0.63494 0.52535 0.0
N715 N 0.53871 0.60449 0.49076 0.0
C716 C 0.5413 0.61112 0.5195 0.0
C717 C 0.55163 0.625 0.47805 0.0
C718 C 0.56195 0.64366 0.49938 0.0
O719 O 0.54892 0.63357 0.59215 0.0
C720 C 0.61626 0.66813 0.58262 0.0
O721 O 0.61057 0.67348 0.60802 0.0
H722 H 0.53423 0.5987 0.536 0.0
H723 H 0.57435 0.66218 0.49628 0.0
N724 N 0.56984 0.68121 0.56399 0.0
N725 N 0.57566 0.71693 0.58148 0.0
C726 C 0.57911 0.69865 0.58596 0.0
C727 C 0.5602 0.68871 0.54501 0.0
C728 C 0.56378 0.71066 0.55566 0.0
C729 C 0.54409 0.61288 0.59832 0.0
O730 O 0.55486 0.60284 0.58529 0.0
H731 H 0.58753 0.69758 0.60525 0.0
H732 H 0.55083 0.67872 0.52503 0.0
O733 O 0.60077 0.65808 0.56207 0.0
H734 H 0.55413 0.62636 0.45506 0.0
H735 H 0.55802 0.72116 0.54514 0.0
Cu736 Cu 0.4264 0.93937 0.5518 0.0
N737 N 0.43858 0.94218 0.51462 0.0
N738 N 0.46252 0.9551 0.47744 0.0
C739 C 0.45986 0.9587 0.50605 0.0
C740 C 0.44205 0.93545 0.46792 0.0
C741 C 0.42744 0.92763 0.49074 0.0
O742 O 0.45005 0.94447 0.58125 0.0
C743 C 0.42354 0.98189 0.55018 0.0
O744 O 0.44483 0.99182 0.54071 0.0
H745 H 0.47298 0.97313 0.52056 0.0
H746 H 0.40988 0.91229 0.49001 0.0
N747 N 0.40121 0.90825 0.55487 0.0
N748 N 0.36787 0.87805 0.56982 0.0
C749 C 0.38108 0.90198 0.5683 0.0
C750 C 0.40063 0.88761 0.54756 0.0
C751 C 0.38014 0.86899 0.55674 0.0
C752 C 0.46256 0.93507 0.57567 0.0
O753 O 0.46017 0.92402 0.54993 0.0
H754 H 0.37671 0.91478 0.57787 0.0
H755 H 0.41446 0.88626 0.537 0.0
O756 O 0.4137 0.96055 0.55747 0.0
H757 H 0.43787 0.92698 0.44607 0.0
H758 H 0.37479 0.85024 0.55421 0.0
Cu759 Cu 0.16713 0.43725 0.24241 0.0
N760 N 0.17473 0.42926 0.27721 0.0
N761 N 0.18257 0.40961 0.30899 0.0
C762 C 0.17924 0.4116 0.28071 0.0
C763 C 0.18 0.42678 0.32365 0.0
C764 C 0.17514 0.43876 0.30409 0.0
O765 O 0.18829 0.43596 0.21374 0.0
C766 C 0.12095 0.41239 0.2129 0.0
O767 O 0.13084 0.42463 0.19061 0.0
H768 H 0.17983 0.40034 0.26279 0.0
H769 H 0.17158 0.45303 0.30916 0.0
N770 N 0.17275 0.46869 0.24722 0.0
N771 N 0.1708 0.50177 0.24343 0.0
C772 C 0.1605 0.47792 0.23622 0.0
C773 C 0.19137 0.48731 0.26169 0.0
C774 C 0.19021 0.50761 0.25949 0.0
C775 C 0.19599 0.44976 0.19332 0.0
O776 O 0.18699 0.46311 0.18857 0.0
H777 H 0.14447 0.46739 0.22314 0.0
H778 H 0.2051 0.48623 0.27268 0.0
O779 O 0.13361 0.41484 0.23497 0.0
H780 H 0.18081 0.43009 0.34694 0.0
H781 H 0.2031 0.52544 0.26841 0.0
Cu782 Cu 0.61061 0.74011 0.28976 0.0
N783 N 0.61597 0.75882 0.32484 0.0
N784 N 0.63306 0.79023 0.35818 0.0
C785 C 0.63156 0.78243 0.32992 0.0
C786 C 0.61776 0.77068 0.37129 0.0
C787 C 0.60729 0.75138 0.35072 0.0
O788 O 0.61442 0.76053 0.25879 0.0
C789 C 0.63828 0.71907 0.27021 0.0
O790 O 0.62994 0.7172 0.24387 0.0
H791 H 0.64228 0.79342 0.31338 0.0
H792 H 0.5947 0.73308 0.3545 0.0
N793 N 0.57991 0.71367 0.28707 0.0
N794 N 0.54813 0.67821 0.27279 0.0
C795 C 0.57162 0.69242 0.27135 0.0
C796 C 0.56108 0.71286 0.29889 0.0
C797 C 0.54156 0.6911 0.29024 0.0
C798 C 0.60423 0.75247 0.23381 0.0
O799 O 0.59282 0.72929 0.22688 0.0
H800 H 0.58258 0.68771 0.25873 0.0
H801 H 0.56146 0.72738 0.31224 0.0
O802 O 0.63259 0.7287 0.29099 0.0
H803 H 0.61447 0.77025 0.39416 0.0
H804 H 0.52377 0.68565 0.29556 0.0
Cu805 Cu 0.33071 0.8936 0.24087 0.0
N806 N 0.31303 0.88379 0.27385 0.0
N807 N 0.28271 0.87292 0.30258 0.0
C808 C 0.28993 0.87556 0.27515 0.0
C809 C 0.30213 0.87975 0.31921 0.0
C810 C 0.32077 0.88653 0.30147 0.0
O811 O 0.31166 0.87059 0.20856 0.0
C812 C 0.35072 0.94155 0.22087 0.0
O813 O 0.35501 0.93354 0.1962 0.0
H814 H 0.27887 0.87277 0.25648 0.0
H815 H 0.33886 0.89385 0.30834 0.0
N816 N 0.35779 0.89171 0.24485 0.0
N817 N 0.3926 0.89529 0.2363 0.0
C818 C 0.3772 0.90207 0.22932 0.0
C819 C 0.36101 0.87789 0.26218 0.0
C820 C 0.38241 0.88013 0.25708 0.0
C821 C 0.29272 0.86739 0.19723 0.0
O822 O 0.28629 0.88308 0.20389 0.0
H823 H 0.37955 0.91359 0.21245 0.0
H824 H 0.34839 0.86646 0.27697 0.0
O825 O 0.33985 0.92712 0.23992 0.0
H826 H 0.30298 0.88031 0.34257 0.0
H827 H 0.38974 0.87105 0.26773 0.0
H828 H 0.32416 0.21822 0.18095 0.0
H829 H 0.40705 0.16578 0.13828 0.0
H830 H 0.32134 0.18384 0.09664 0.0
H831 H 0.41366 0.20629 0.21929 0.0
H832 H 0.37513 0.17135 0.12273 0.0
H833 H 0.35569 0.21206 0.19611 0.0
C834 C 0.32998 0.20915 0.16571 0.0
C835 C 0.32011 0.20162 0.13743 0.0
C836 C 0.38361 0.17904 0.1439 0.0
C837 C 0.35651 0.1948 0.15452 0.0
C838 C 0.40196 0.17601 0.15271 0.0
C839 C 0.413 0.18543 0.18024 0.0
C840 C 0.37623 0.19157 0.16275 0.0
C841 C 0.40542 0.19831 0.19811 0.0
C842 C 0.34816 0.20582 0.17429 0.0
C843 C 0.32865 0.19024 0.1185 0.0
N844 N 0.38751 0.20093 0.18911 0.0
N845 N 0.34636 0.1872 0.12736 0.0
H846 H 0.81001 0.11317 0.09312 0.0
H847 H 0.8856 0.25254 0.07177 0.0
H848 H 0.8517 0.14004 0.01884 0.0
H849 H 0.84101 0.22259 0.14311 0.0
H850 H 0.87021 0.21199 0.04855 0.0
H851 H 0.81728 0.15308 0.1077 0.0
C852 C 0.82033 0.12749 0.07953 0.0
C853 C 0.83025 0.12335 0.05475 0.0
C854 C 0.86364 0.21434 0.06915 0.0
C855 C 0.8394 0.16951 0.07184 0.0
C856 C 0.87236 0.2375 0.08239 0.0
C857 C 0.86482 0.24102 0.10968 0.0
C858 C 0.84722 0.19454 0.08325 0.0
C859 C 0.84773 0.22079 0.12243 0.0
C860 C 0.82461 0.15035 0.08795 0.0
C861 C 0.84355 0.14251 0.03795 0.0
N862 N 0.83967 0.19853 0.10924 0.0
N863 N 0.8481 0.16491 0.04708 0.0
H864 H 0.80343 0.64443 0.16802 0.0
H865 H 0.92483 0.76833 0.19855 0.0
H866 H 0.82935 0.68017 0.25339 0.0
H867 H 0.89665 0.73412 0.11307 0.0
H868 H 0.88995 0.73655 0.2191 0.0
H869 H 0.83751 0.6772 0.1476 0.0
C870 C 0.81628 0.65912 0.18251 0.0
C871 C 0.81343 0.65943 0.21253 0.0
C872 C 0.89141 0.73603 0.19583 0.0
C873 C 0.85262 0.69725 0.18919 0.0
C874 C 0.91132 0.75427 0.18404 0.0
C875 C 0.91389 0.75398 0.15395 0.0
C876 C 0.87385 0.71728 0.17747 0.0
C877 C 0.89578 0.73501 0.13637 0.0
C878 C 0.83572 0.67793 0.17081 0.0
C879 C 0.83059 0.67922 0.23013 0.0
N880 N 0.87662 0.71748 0.14837 0.0
N881 N 0.84945 0.69725 0.21823 0.0
H882 H 0.1929 0.28565 0.33811 0.0
H883 H 0.1996 0.41185 0.36347 0.0
H884 H 0.20669 0.32493 0.42193 0.0
H885 H 0.17542 0.36724 0.28285 0.0
H886 H 0.20505 0.38172 0.3843 0.0
H887 H 0.18929 0.31673 0.31684 0.0
C888 C 0.19511 0.3007 0.35218 0.0
C889 C 0.19995 0.30236 0.38208 0.0
C890 C 0.19857 0.37854 0.36204 0.0
C891 C 0.1961 0.33848 0.35747 0.0
C892 C 0.19532 0.39576 0.35006 0.0
C893 C 0.18681 0.39223 0.32124 0.0
C894 C 0.19342 0.35752 0.34516 0.0
C895 C 0.18214 0.37103 0.30501 0.0
C896 C 0.19314 0.31857 0.33989 0.0
C897 C 0.20312 0.32278 0.39883 0.0
N898 N 0.18546 0.35454 0.31719 0.0
N899 N 0.20108 0.33993 0.38633 0.0
H900 H 0.65033 0.80314 0.41417 0.0
H901 H 0.73224 0.94066 0.38452 0.0
H902 H 0.65168 0.83213 0.33311 0.0
H903 H 0.73581 0.9139 0.46539 0.0
H904 H 0.6989 0.90167 0.36833 0.0
H905 H 0.67807 0.84361 0.43565 0.0
C906 C 0.65624 0.81798 0.40092 0.0
C907 C 0.64869 0.81408 0.37162 0.0
C908 C 0.70668 0.90424 0.38978 0.0
C909 C 0.68058 0.86056 0.39618 0.0
C910 C 0.72568 0.9266 0.39912 0.0
C911 C 0.73684 0.93052 0.42633 0.0
C912 C 0.69879 0.88531 0.40754 0.0
C913 C 0.72758 0.91166 0.44434 0.0
C914 C 0.67217 0.84111 0.41322 0.0
C915 C 0.65722 0.8341 0.35556 0.0
N916 N 0.70925 0.88972 0.43447 0.0
N917 N 0.67267 0.85633 0.368 0.0
H918 H 0.16568 0.85713 0.40021 0.0
H919 H 0.24139 0.84737 0.27123 0.0
H920 H 0.13675 0.82509 0.31429 0.0
H921 H 0.2709 0.88351 0.3556 0.0
H922 H 0.20284 0.83819 0.28688 0.0
H923 H 0.20415 0.86604 0.38456 0.0
C924 C 0.16736 0.85188 0.37807 0.0
C925 C 0.14784 0.84024 0.35859 0.0
C926 C 0.21775 0.84811 0.30198 0.0
C927 C 0.19205 0.85056 0.34041 0.0
C928 C 0.23985 0.85346 0.29302 0.0
C929 C 0.25961 0.86638 0.31203 0.0
C930 C 0.21526 0.85566 0.33022 0.0
C931 C 0.25628 0.87334 0.34021 0.0
C932 C 0.18941 0.85708 0.3691 0.0
C933 C 0.15127 0.83427 0.33 0.0
N934 N 0.23459 0.86795 0.34839 0.0
N935 N 0.1729 0.83942 0.32182 0.0
H936 H 0.6403 0.89013 0.87336 0.0
H937 H 0.66048 0.78187 0.8982 0.0
H938 H 0.61231 0.82738 0.81304 0.0
H939 H 0.70906 0.85478 0.93019 0.0
H940 H 0.63726 0.79551 0.87331 0.0
H941 H 0.66034 0.87466 0.90082 0.0
C942 C 0.63816 0.87296 0.86606 0.0
C943 C 0.62457 0.85999 0.84088 0.0
C944 C 0.65292 0.80846 0.88596 0.0
C945 C 0.64746 0.84214 0.87232 0.0
C946 C 0.66601 0.80067 0.90035 0.0
C947 C 0.68666 0.81726 0.91628 0.0
C948 C 0.66032 0.83292 0.88801 0.0
C949 C 0.69328 0.84148 0.91804 0.0
C950 C 0.64973 0.86422 0.88165 0.0
C951 C 0.62274 0.83798 0.83222 0.0
N952 N 0.68014 0.84857 0.90418 0.0
N953 N 0.63396 0.82967 0.84799 0.0
H954 H 0.18986 0.88063 0.89456 0.0
H955 H 0.21619 0.80522 0.77126 0.0
H956 H 0.25044 0.91114 0.84225 0.0
H957 H 0.15425 0.77444 0.82124 0.0
H958 H 0.23075 0.84332 0.80035 0.0
H959 H 0.17814 0.84095 0.87113 0.0
C960 C 0.2008 0.87902 0.87835 0.0
C961 C 0.22105 0.89942 0.87022 0.0
C962 C 0.21406 0.82818 0.80515 0.0
C963 C 0.20768 0.85394 0.84314 0.0
C964 C 0.20578 0.80633 0.7886 0.0
C965 C 0.18387 0.78652 0.79363 0.0
C966 C 0.20036 0.83037 0.82693 0.0
C967 C 0.17119 0.78918 0.81643 0.0
C968 C 0.19405 0.85634 0.86487 0.0
C969 C 0.23444 0.89612 0.84888 0.0
N970 N 0.17951 0.81069 0.83203 0.0
N971 N 0.22749 0.87393 0.83608 0.0
H972 H 0.15203 0.31965 0.80047 0.0
H973 H 0.27864 0.43547 0.83879 0.0
H974 H 0.17674 0.35183 0.88747 0.0
H975 H 0.25346 0.40194 0.75233 0.0
H976 H 0.24085 0.40647 0.85693 0.0
H977 H 0.18838 0.35109 0.78236 0.0
C978 C 0.16507 0.33331 0.81581 0.0
C979 C 0.16126 0.33291 0.84561 0.0
C980 C 0.24358 0.40557 0.83396 0.0
C981 C 0.2031 0.36924 0.82491 0.0
C982 C 0.26522 0.4221 0.82358 0.0
C983 C 0.26943 0.42126 0.79393 0.0
C984 C 0.22595 0.38795 0.81461 0.0
C985 C 0.25113 0.40363 0.77527 0.0
C986 C 0.18583 0.35136 0.80542 0.0
C987 C 0.17874 0.35144 0.86433 0.0
N988 N 0.23033 0.38769 0.78593 0.0
N989 N 0.19891 0.36873 0.8537 0.0
H990 H 0.84259 0.71817 0.67981 0.0
H991 H 0.88733 0.62566 0.65219 0.0
H992 H 0.86787 0.70661 0.5981 0.0
H993 H 0.85227 0.62997 0.72882 0.0
H994 H 0.88104 0.65561 0.63225 0.0
H995 H 0.84743 0.68692 0.6987 0.0
C996 C 0.84929 0.70918 0.66586 0.0
C997 C 0.85486 0.71512 0.63729 0.0
C998 C 0.87467 0.64993 0.6534 0.0
C999 C 0.86028 0.67904 0.65878 0.0
C1000 C 0.87813 0.63266 0.66479 0.0
C1001 C 0.87046 0.62519 0.69243 0.0
C1002 C 0.86353 0.65998 0.66972 0.0
C1003 C 0.8589 0.63534 0.70771 0.0
C1004 C 0.85189 0.69118 0.67661 0.0
C1005 C 0.86313 0.70251 0.62013 0.0
N1006 N 0.8559 0.65222 0.69623 0.0
N1007 N 0.86566 0.68515 0.63116 0.0
H1008 H 0.44153 0.24287 0.71816 0.0
H1009 H 0.33218 0.15779 0.6086 0.0
H1010 H 0.40192 0.26742 0.67331 0.0
H1011 H 0.36813 0.13281 0.65998 0.0
H1012 H 0.36036 0.19887 0.62746 0.0
H1013 H 0.41813 0.20356 0.69179 0.0
C1014 C 0.42821 0.24017 0.7024 0.0
C1015 C 0.42358 0.2585 0.69819 0.0
C1016 C 0.36212 0.18439 0.63452 0.0
C1017 C 0.39642 0.21327 0.66816 0.0
C1018 C 0.34606 0.16091 0.62368 0.0
C1019 C 0.34759 0.14171 0.63289 0.0
C1020 C 0.37996 0.18876 0.65462 0.0
C1021 C 0.36592 0.14691 0.65267 0.0
C1022 C 0.41472 0.21761 0.68747 0.0
C1023 C 0.40605 0.25383 0.67743 0.0
N1024 N 0.3813 0.16988 0.66288 0.0
N1025 N 0.39297 0.23163 0.66342 0.0
H1026 H 0.93493 0.23731 0.73152 0.0
H1027 H 0.79566 0.15666 0.70731 0.0
H1028 H 0.90038 0.18407 0.65949 0.0
H1029 H 0.83005 0.20362 0.78434 0.0
H1030 H 0.83391 0.16796 0.68833 0.0
H1031 H 0.89678 0.22606 0.75059 0.0
C1032 C 0.91942 0.22314 0.71977 0.0
C1033 C 0.92106 0.21172 0.69371 0.0
C1034 C 0.83309 0.1758 0.70939 0.0
C1035 C 0.8771 0.19897 0.71534 0.0
C1036 C 0.81122 0.16949 0.72016 0.0
C1037 C 0.80956 0.17915 0.74753 0.0
C1038 C 0.85354 0.19203 0.726 0.0
C1039 C 0.83043 0.19546 0.76333 0.0
C1040 C 0.89757 0.21682 0.73062 0.0
C1041 C 0.90013 0.1937 0.67936 0.0
N1042 N 0.85151 0.20139 0.75235 0.0
N1043 N 0.87909 0.18795 0.69031 0.0
H1044 H 1.0051 0.53457 0.43481 0.0
H1045 H 0.05269 0.50323 0.57353 0.0
H1046 H 0.96955 0.51775 0.51519 0.0
H1047 H 0.08533 0.51476 0.49116 0.0
H1048 H 1.02282 0.50977 0.55303 0.0
H1049 H 0.03486 0.52793 0.45523 0.0
C1050 C 1.00336 0.52929 0.45665 0.0
C1051 C 0.98462 0.52672 0.47322 0.0
C1052 C 0.03652 0.51089 0.53943 0.0
C1053 C 1.01908 0.51944 0.49699 0.0
C1054 C 0.05373 0.50733 0.55121 0.0
C1055 C 0.07165 0.50845 0.53409 0.0
C1056 C 0.0372 0.51571 0.5103 0.0
C1057 C 0.07176 0.51344 0.50511 0.0
C1058 C 1.02052 0.52565 0.46839 0.0
C1059 C 0.98373 0.52025 0.50165 0.0
N1060 N 0.05484 0.5169 0.49417 0.0
N1061 N 1.00069 0.51687 0.5126 0.0
H1062 H 0.51527 0.47493 0.39596 0.0
H1063 H 0.50157 0.56499 0.50962 0.0
H1064 H 0.46803 0.45343 0.46596 0.0
H1065 H 0.54991 0.58863 0.44069 0.0
H1066 H 0.48499 0.52378 0.489 0.0
H1067 H 0.52356 0.51619 0.40618 0.0
C1068 C 0.50599 0.47874 0.41271 0.0
C1069 C 0.49089 0.46085 0.4301 0.0
C1070 C 0.49909 0.53796 0.47816 0.0
C1071 C 0.50069 0.50783 0.44248 0.0
C1072 C 0.50864 0.56153 0.49007 0.0
C1073 C 0.52734 0.58034 0.47712 0.0
C1074 C 0.50841 0.53299 0.45318 0.0
C1075 C 0.53548 0.57475 0.45142 0.0
C1076 C 0.51093 0.50231 0.41882 0.0
C1077 C 0.47976 0.46678 0.45205 0.0
N1078 N 0.52617 0.55158 0.4405 0.0
N1079 N 0.48506 0.48973 0.4578 0.0
H1080 H 0.60012 0.05505 0.41901 0.0
H1081 H 0.46417 0.95496 0.41852 0.0
H1082 H 0.55882 1.01461 0.34161 0.0
H1083 H 0.50751 0.9876 0.49688 0.0
H1084 H 0.49823 0.97778 0.39027 0.0
H1085 H 0.56617 0.03194 0.44781 0.0
C1086 C 0.58391 0.04139 0.408 0.0
C1087 C 0.58243 0.0369 0.3777 0.0
C1088 C 0.50032 0.97994 0.41365 0.0
C1089 C 0.54331 1.01015 0.41079 0.0
C1090 C 0.48079 0.96675 0.42996 0.0
C1091 C 0.48271 0.96905 0.46042 0.0
C1092 C 0.52214 0.9958 0.42768 0.0
C1093 C 0.50491 0.98521 0.4736 0.0
C1094 C 0.56453 0.02808 0.42453 0.0
C1095 C 0.56095 1.01863 0.36484 0.0
N1096 N 0.52367 0.99791 0.4572 0.0
N1097 N 0.54228 1.00605 0.38139 0.0
H1098 H 0.48875 1.01377 0.97037 0.0
H1099 H 0.53966 0.92565 0.96697 0.0
H1100 H 0.50838 0.98953 0.89213 0.0
H1101 H 0.51837 0.94862 0.04481 0.0
H1102 H 0.52799 0.94851 0.93924 0.0
H1103 H 0.49934 0.98992 0.99782 0.0
C1104 C 0.49538 1.00354 0.95891 0.0
C1105 C 0.49778 1.00387 0.92879 0.0
C1106 C 0.52584 0.94853 0.96238 0.0
C1107 C 0.50982 0.97617 0.96029 0.0
C1108 C 0.5324 0.93533 0.9783 0.0
C1109 C 0.53002 0.93506 0.00844 0.0
C1110 C 0.51677 0.96167 0.97656 0.0
C1111 C 0.52083 0.94843 0.02176 0.0
C1112 C 0.50133 0.98977 0.97464 0.0
C1113 C 0.50605 0.98975 0.9152 0.0
N1114 N 0.51456 0.96113 0.00577 0.0
N1115 N 0.51184 0.97658 0.93104 0.0
H1116 H 1.03266 0.47839 0.0347 0.0
H1117 H 0.08429 0.6178 0.04598 0.0
H1118 H 1.0104 0.51052 0.97401 0.0
H1119 H 0.12395 0.58703 0.075 0.0
H1120 H 0.05613 0.57905 0.02066 0.0
H1121 H 0.065 0.51813 0.05188 0.0
C1122 C 0.0346 0.49387 0.02503 0.0
C1123 C 1.01876 0.49124 0.00307 0.0
C1124 C 0.0712 0.5809 0.03218 0.0
C1125 C 0.05566 0.53678 0.02267 0.0
C1126 C 0.08728 0.60299 0.04662 0.0
C1127 C 0.1065 0.60565 0.06265 0.0
C1128 C 0.07403 0.56117 0.03437 0.0
C1129 C 0.10948 0.58585 0.06279 0.0
C1130 C 0.05316 0.51651 0.03466 0.0
C1131 C 1.02228 0.51184 0.99095 0.0
N1132 N 0.0932 0.56435 0.0493 0.0
N1133 N 0.04018 0.53382 0.00119 0.0
H1134 H 0.601 0.56745 0.99664 0.0
H1135 H 0.46336 0.51565 0.97602 0.0
H1136 H 0.56103 0.52927 0.91742 0.0
H1137 H 0.5011 0.54205 0.05874 0.0
H1138 H 0.49943 0.52312 0.95336 0.0
H1139 H 0.56515 0.56058 0.01881 0.0
C1140 C 0.58479 0.55752 0.9838 0.0
C1141 C 0.58434 0.54887 0.95493 0.0
C1142 C 0.49984 0.52728 0.97647 0.0
C1143 C 0.54288 0.54123 0.98045 0.0
C1144 C 0.47924 0.52317 0.98943 0.0
C1145 C 0.4791 0.52822 0.01941 0.0
C1146 C 0.52061 0.53672 0.9935 0.0
C1147 C 0.50025 0.53763 0.03566 0.0
C1148 C 0.56423 0.55369 0.99657 0.0
C1149 C 0.56255 0.53652 0.93955 0.0
N1150 N 0.52011 0.54163 0.02251 0.0
N1151 N 0.54279 0.5331 0.95247 0.0
H1152 H 0.27172 0.06771 0.9751 0.0
H1153 H 0.2286 0.16217 0.97629 0.0
H1154 H 0.21333 0.05764 0.92262 0.0
H1155 H 0.29149 0.17671 0.02229 0.0
H1156 H 0.22382 0.12448 0.9551 0.0
H1157 H 0.2799 0.10783 0.99204 0.0
C1158 C 0.26058 0.07385 0.96715 0.0
C1159 C 0.24175 0.0591 0.94737 0.0
C1160 C 0.23881 0.13598 0.9696 0.0
C1161 C 0.25115 0.10522 0.96658 0.0
C1162 C 0.24159 0.1576 0.98167 0.0
C1163 C 0.26046 0.17269 0.00117 0.0
C1164 C 0.25486 0.12912 0.97724 0.0
C1165 C 0.27672 0.16572 0.00728 0.0
C1166 C 0.26537 0.09686 0.97669 0.0
C1167 C 0.22817 0.0683 0.93757 0.0
N1168 N 0.27342 0.14436 0.9956 0.0
N1169 N 0.23306 0.09062 0.94736 0.0
H1170 H 1.00535 0.22022 0.94637 0.0
H1171 H 0.93964 0.09398 0.01533 0.0
H1172 H 1.03227 0.17246 0.94718 0.0
H1173 H 0.91178 0.14088 0.01362 0.0
H1174 H 0.97447 0.12337 0.99228 0.0
H1175 H 0.97157 0.1921 0.97234 0.0
C1176 C 1.00424 0.2039 0.95204 0.0
C1177 C 1.02176 0.19878 0.94438 0.0
C1178 C 0.96076 0.12728 0.99701 0.0
C1179 C 0.98296 0.16634 0.97411 0.0
C1180 C 0.94089 0.11053 0.01042 0.0
C1181 C 0.92257 0.11481 0.01637 0.0
C1182 C 0.96246 0.14856 0.98947 0.0
C1183 C 0.92522 0.13658 0.00907 0.0
C1184 C 0.98488 0.18778 0.96681 0.0
C1185 C 1.01914 0.17712 0.95212 0.0
N1186 N 0.9447 0.15256 0.99597 0.0
N1187 N 1.00018 0.16178 0.96652 0.0
H1188 H 0.93863 0.823 0.0408 0.0
H1189 H 0.81852 0.77775 0.95198 0.0
H1190 H 0.89587 0.74951 0.00613 0.0
H1191 H 0.84326 0.83222 0.02325 0.0
H1192 H 0.85078 0.77094 0.96304 0.0
H1193 H 0.90801 0.83062 0.02541 0.0
C1194 C 0.92299 0.80854 0.02951 0.0
C1195 C 0.91986 0.78553 0.02479 0.0
C1196 C 0.84914 0.78442 0.97616 0.0
C1197 C 0.88472 0.79427 0.00703 0.0
C1198 C 0.83087 0.78839 0.96978 0.0
C1199 C 0.82821 0.80553 0.9868 0.0
C1200 C 0.86522 0.79811 0.99925 0.0
C1201 C 0.84458 0.81871 0.00978 0.0
C1202 C 0.90544 0.81289 0.02096 0.0
C1203 C 0.89903 0.76749 0.01028 0.0
N1204 N 0.86246 0.81487 0.0152 0.0
N1205 N 0.88228 0.77224 0.00184 0.0
H1206 H 0.0726 0.27027 0.57777 0.0
H1207 H 0.16243 0.2286 0.52687 0.0
H1208 H 0.06863 0.20596 0.60274 0.0
H1209 H 0.17164 0.29739 0.51222 0.0
H1210 H 0.12801 0.21985 0.55456 0.0
H1211 H 0.10856 0.2802 0.55306 0.0
C1212 C 0.07923 0.25819 0.57802 0.0
C1213 C 0.06746 0.2372 0.59237 0.0
C1214 C 0.13764 0.23692 0.54543 0.0
C1215 C 0.10883 0.24854 0.56414 0.0
C1216 C 0.15734 0.24195 0.52961 0.0
C1217 C 0.17 0.26377 0.51711 0.0
C1218 C 0.13037 0.25374 0.54864 0.0
C1219 C 0.16248 0.28033 0.52144 0.0
C1220 C 0.09988 0.26395 0.56404 0.0
C1221 C 0.07716 0.22243 0.59226 0.0
N1222 N 0.14313 0.27492 0.53666 0.0
N1223 N 0.09716 0.22831 0.57827 0.0
H1224 H 0.80774 0.82382 0.53479 0.0
H1225 H 0.86958 0.94758 0.46028 0.0
H1226 H 0.88253 0.87011 0.53294 0.0
H1227 H 0.79645 0.90974 0.47917 0.0
H1228 H 0.87406 0.91711 0.48231 0.0
H1229 H 0.80267 0.85299 0.51019 0.0
C1230 C 0.82308 0.84006 0.52914 0.0
C1231 C 0.84559 0.84456 0.53613 0.0
C1232 C 0.85702 0.91546 0.4816 0.0
C1233 C 0.83995 0.87801 0.5079 0.0
C1234 C 0.85442 0.93277 0.46883 0.0
C1235 C 0.83263 0.9313 0.46797 0.0
C1236 C 0.83764 0.89636 0.4934 0.0
C1237 C 0.81364 0.91178 0.47971 0.0
C1238 C 0.82019 0.85676 0.51522 0.0
C1239 C 0.86486 0.86603 0.52843 0.0
N1240 N 0.81657 0.89509 0.49189 0.0
N1241 N 0.8616 0.88188 0.5147 0.0
H1242 H 0.1828 0.98274 0.58189 0.0
H1243 H 0.14201 0.86448 0.47528 0.0
H1244 H 0.23011 0.97155 0.52856 0.0
H1245 H 0.09419 0.88161 0.51834 0.0
H1246 H 0.17484 0.9013 0.4988 0.0
H1247 H 0.15067 0.94371 0.5628 0.0
C1248 C 0.18652 0.97203 0.56634 0.0
C1249 C 0.2093 0.98057 0.55684 0.0
C1250 C 0.15716 0.89691 0.50326 0.0
C1251 C 0.17233 0.93568 0.53463 0.0
C1252 C 0.13837 0.87578 0.48998 0.0
C1253 C 0.11523 0.86991 0.49473 0.0
C1254 C 0.15285 0.91227 0.52159 0.0
C1255 C 0.11169 0.88539 0.5139 0.0
C1256 C 0.16808 0.94974 0.5553 0.0
C1257 C 0.21285 0.96589 0.53627 0.0
N1258 N 0.13025 0.90584 0.52651 0.0
N1259 N 0.1946 0.9442 0.52588 0.0
H1260 H 0.82021 0.89872 0.9132 0.0
H1261 H 0.78752 0.99649 0.97243 0.0
H1262 H 0.75581 0.8829 0.95289 0.0
H1263 H 0.85693 1.01491 0.9476 0.0
H1264 H 0.77335 0.95497 0.95482 0.0
H1265 H 0.83169 0.9413 0.91557 0.0
C1266 C 0.8083 0.90414 0.92174 0.0
C1267 C 0.78715 0.88741 0.93307 0.0
C1268 C 0.79164 0.96814 0.95286 0.0
C1269 C 0.80003 0.93573 0.93596 0.0
C1270 C 0.79973 0.99194 0.96281 0.0
C1271 C 0.82355 1.00927 0.96191 0.0
C1272 C 0.80743 0.96146 0.94197 0.0
C1273 C 0.83847 1.00216 0.94904 0.0
C1274 C 0.81488 0.92839 0.92329 0.0
C1275 C 0.7724 0.89531 0.94418 0.0
N1276 N 0.83024 0.97878 0.93994 0.0
N1277 N 0.77915 0.91882 0.9455 0.0
H1278 H 0.17993 0.89256 0.00662 0.0
H1279 H 0.06726 0.89977 0.05283 0.0
H1280 H 0.17104 0.95237 0.99386 0.0
H1281 H 0.07238 0.83702 0.0603 0.0
H1282 H 0.1062 0.91984 0.03375 0.0
H1283 H 0.14173 0.8726 0.02862 0.0
C1284 C 0.17005 0.90158 0.00856 0.0
C1285 C 0.1788 0.92423 0.99828 0.0
C1286 C 0.09888 0.90169 0.0396 0.0
C1287 C 0.13493 0.90138 0.02345 0.0
C1288 C 0.07658 0.8902 0.05075 0.0
C1289 C 0.06633 0.86656 0.05838 0.0
C1290 C 0.11128 0.88962 0.03596 0.0
C1291 C 0.07937 0.85512 0.05452 0.0
C1292 C 0.14818 0.89012 0.02107 0.0
C1293 C 0.16509 0.93494 0.00137 0.0
N1294 N 0.10112 0.86674 0.04362 0.0
N1295 N 0.14393 0.92345 0.01361 0.0
H1296 H 0.18244 0.32351 0.97332 0.0
H1297 H 0.1732 0.21525 0.05411 0.0
H1298 H 0.11699 0.26156 0.99222 0.0
H1299 H 0.23862 0.27958 0.04139 0.0
H1300 H 0.15233 0.23316 0.0345 0.0
H1301 H 0.20323 0.30925 0.00142 0.0
C1302 C 0.17239 0.3071 0.98372 0.0
C1303 C 0.1479 0.29364 0.98014 0.0
C1304 C 0.17126 0.24342 0.03614 0.0
C1305 C 0.17168 0.27701 0.01208 0.0
C1306 C 0.18325 0.23321 0.04748 0.0
C1307 C 0.20783 0.24577 0.04931 0.0
C1308 C 0.18385 0.26639 0.02637 0.0
C1309 C 0.21974 0.26895 0.03996 0.0
C1310 C 0.1843 0.29891 0.9997 0.0
C1311 C 0.13587 0.27251 0.99422 0.0
N1312 N 0.20766 0.27843 0.02878 0.0
N1313 N 0.14788 0.26474 0.00928 0.0
H1314 H 0.8852 0.74588 0.52045 0.0
H1315 H 0.98159 0.81925 0.40667 0.0
H1316 H 0.87801 0.78902 0.45975 0.0
H1317 H 0.99172 0.78102 0.47176 0.0
H1318 H 0.94195 0.80481 0.42252 0.0
H1319 H 0.92209 0.75444 0.4991 0.0
C1320 C 0.89114 0.75683 0.50233 0.0
C1321 C 0.87846 0.76685 0.49204 0.0
C1322 C 0.95279 0.79946 0.43327 0.0
C1323 C 0.92094 0.77696 0.46767 0.0
C1324 C 0.97556 0.80785 0.42431 0.0
C1325 C 0.9903 0.80161 0.43801 0.0
C1326 C 0.9445 0.78468 0.45619 0.0
C1327 C 0.98111 0.78627 0.46037 0.0
C1328 C 0.91231 0.76183 0.49026 0.0
C1329 C 0.88717 0.78097 0.46855 0.0
N1330 N 0.95892 0.77849 0.46885 0.0
N1331 N 0.90789 0.78573 0.45735 0.0
H1332 H 0.26791 0.21157 0.46611 0.0
H1333 H 0.24708 0.08642 0.51311 0.0
H1334 H 0.19998 0.14825 0.47058 0.0
H1335 H 0.31583 0.14767 0.50486 0.0
H1336 H 0.22984 0.10888 0.49637 0.0
H1337 H 0.28606 0.18885 0.47969 0.0
C1338 C 0.25677 0.19296 0.46996 0.0
C1339 C 0.23229 0.18191 0.46707 0.0
C1340 C 0.24871 0.11743 0.49805 0.0
C1341 C 0.25303 0.15567 0.48251 0.0
C1342 C 0.2586 0.10455 0.50759 0.0
C1343 C 0.283 0.11511 0.51048 0.0
C1344 C 0.26323 0.1412 0.49142 0.0
C1345 C 0.29695 0.13873 0.50294 0.0
C1346 C 0.26717 0.17994 0.47757 0.0
C1347 C 0.21886 0.15758 0.47207 0.0
N1348 N 0.28688 0.151 0.49393 0.0
N1349 N 0.22937 0.1454 0.47958 0.0
H1350 H 0.82059 0.05651 0.51667 0.0
H1351 H 0.95236 0.16029 0.56308 0.0
H1352 H 0.88122 0.0492 0.50829 0.0
H1353 H 0.89438 0.17248 0.56485 0.0
H1354 H 0.92551 0.11857 0.54639 0.0
H1355 H 0.84598 0.09757 0.53913 0.0
C1356 C 0.8391 0.06329 0.5203 0.0
C1357 C 0.84882 0.04942 0.51071 0.0
C1358 C 0.91858 0.13031 0.55034 0.0
C1359 C 0.87796 0.09637 0.53566 0.0
C1360 C 0.93398 0.15427 0.55979 0.0
C1361 C 0.92573 0.1701 0.56528 0.0
C1362 C 0.89456 0.12184 0.54633 0.0
C1363 C 0.90161 0.16102 0.56071 0.0
C1364 C 0.85363 0.08682 0.53273 0.0
C1365 C 0.87299 0.05927 0.51534 0.0
N1366 N 0.88688 0.13752 0.55154 0.0
N1367 N 0.88666 0.08205 0.52729 0.0
H1368 H 0.90355 0.486 0.32887 0.0
H1369 H 0.94244 0.39873 0.25003 0.0
H1370 H 0.975 0.50192 0.33014 0.0
H1371 H 0.87372 0.38923 0.23903 0.0
H1372 H 0.95454 0.43574 0.28074 0.0
H1373 H 0.89224 0.44996 0.29692 0.0
C1374 C 0.91691 0.48201 0.32235 0.0
C1375 C 0.9403 0.49712 0.33228 0.0
C1376 C 0.93683 0.42557 0.27152 0.0
C1377 C 0.92735 0.45554 0.29571 0.0
C1378 C 0.92986 0.40434 0.25411 0.0
C1379 C 0.90701 0.39077 0.24178 0.0
C1380 C 0.9208 0.43326 0.27691 0.0
C1381 C 0.89158 0.39917 0.24766 0.0
C1382 C 0.91042 0.46137 0.30407 0.0
C1383 C 0.95678 0.4909 0.32301 0.0
N1384 N 0.89872 0.41974 0.26481 0.0
N1385 N 0.94998 0.47057 0.3054 0.0
H1386 H 0.5703 0.47875 0.4024 0.0
H1387 H 0.6883 0.50488 0.32671 0.0
H1388 H 0.60117 0.4349 0.40862 0.0
H1389 H 0.66144 0.55272 0.32702 0.0
H1390 H 0.65661 0.47927 0.35678 0.0
H1391 H 0.60368 0.50637 0.37555 0.0
C1392 C 0.58414 0.47496 0.39821 0.0
C1393 C 0.5828 0.45433 0.40765 0.0
C1394 C 0.65761 0.49537 0.35033 0.0
C1395 C 0.62119 0.48598 0.3768 0.0
C1396 C 0.67565 0.50996 0.33288 0.0
C1397 C 0.6775 0.53098 0.32398 0.0
C1398 C 0.64109 0.50165 0.35899 0.0
C1399 C 0.66079 0.53679 0.33339 0.0
C1400 C 0.60325 0.4908 0.38293 0.0
C1401 C 0.60148 0.45059 0.40197 0.0
N1402 N 0.64324 0.52216 0.35024 0.0
N1403 N 0.61977 0.46613 0.38673 0.0
H1404 H 0.64662 0.1762 0.33228 0.0
H1405 H 0.51295 0.13947 0.30757 0.0
H1406 H 0.5877 0.10913 0.35267 0.0
H1407 H 0.57117 0.20303 0.27747 0.0
H1408 H 0.54045 0.13201 0.33283 0.0
H1409 H 0.61981 0.19044 0.32162 0.0
C1410 C 0.62813 0.1649 0.33568 0.0
C1411 C 0.61928 0.14166 0.34377 0.0
C1412 C 0.54723 0.14771 0.32089 0.0
C1413 C 0.5885 0.15729 0.33061 0.0
C1414 C 0.53148 0.15205 0.30651 0.0
C1415 C 0.53967 0.17178 0.28999 0.0
C1416 C 0.57142 0.16318 0.31882 0.0
C1417 C 0.564 0.18731 0.28936 0.0
C1418 C 0.61279 0.17285 0.32919 0.0
C1419 C 0.59515 0.12732 0.34689 0.0
N1420 N 0.57898 0.1826 0.30335 0.0
N1421 N 0.58057 0.13526 0.34004 0.0
H1422 H 0.72256 0.52083 0.87125 0.0
H1423 H 0.84633 0.62813 0.82682 0.0
H1424 H 0.73653 0.59243 0.8638 0.0
H1425 H 0.82956 0.55489 0.82622 0.0
H1426 H 0.80741 0.61621 0.8442 0.0
H1427 H 0.76265 0.53376 0.85844 0.0
C1428 C 0.73405 0.53933 0.86714 0.0
C1429 C 0.72599 0.55552 0.86863 0.0
C1430 C 0.8123 0.60277 0.84043 0.0
C1431 C 0.77217 0.57048 0.85364 0.0
C1432 C 0.8346 0.60959 0.83063 0.0
C1433 C 0.84131 0.5925 0.82494 0.0
C1434 C 0.79652 0.57868 0.8447 0.0
C1435 C 0.82522 0.56871 0.83021 0.0
C1436 C 0.75698 0.54668 0.85965 0.0
C1437 C 0.74178 0.57921 0.8626 0.0
N1438 N 0.80362 0.56253 0.83967 0.0
N1439 N 0.76405 0.58595 0.8554 0.0
H1440 H 0.47084 0.23245 0.7865 0.0
H1441 H 0.44694 0.1278 0.88674 0.0
H1442 H 0.43765 0.22336 0.86837 0.0
H1443 H 0.48469 0.14014 0.80803 0.0
H1444 H 0.4416 0.16138 0.87912 0.0
H1445 H 0.47402 0.19733 0.79263 0.0
C1446 C 0.46407 0.22306 0.80569 0.0
C1447 C 0.45399 0.23111 0.82697 0.0
C1448 C 0.45101 0.15669 0.86347 0.0
C1449 C 0.45781 0.19072 0.83425 0.0
C1450 C 0.45416 0.1375 0.86787 0.0
C1451 C 0.46647 0.13099 0.84816 0.0
C1452 C 0.46014 0.16962 0.83911 0.0
C1453 C 0.47496 0.14417 0.8238 0.0
C1454 C 0.46602 0.20301 0.80925 0.0
C1455 C 0.44584 0.21817 0.85154 0.0
N1456 N 0.4717 0.16281 0.82006 0.0
N1457 N 0.44793 0.19871 0.85448 0.0
H1458 H 0.89945 0.32189 0.89657 0.0
H1459 H 0.77227 0.21477 0.92749 0.0
H1460 H 0.86287 0.32124 0.97379 0.0
H1461 H 0.81379 0.2095 0.859 0.0
H1462 H 0.80592 0.25316 0.94574 0.0
H1463 H 0.86917 0.28037 0.88333 0.0
C1464 C 0.88527 0.31307 0.91096 0.0
C1465 C 0.88375 0.32544 0.93626 0.0
C1466 C 0.80779 0.2435 0.92691 0.0
C1467 C 0.84867 0.2777 0.92088 0.0
C1468 C 0.78855 0.22151 0.91649 0.0
C1469 C 0.79011 0.20886 0.89158 0.0
C1470 C 0.82874 0.25317 0.91214 0.0
C1471 C 0.81173 0.21856 0.87829 0.0
C1472 C 0.86787 0.28929 0.90328 0.0
C1473 C 0.86467 0.31282 0.95378 0.0
N1474 N 0.83008 0.24024 0.88851 0.0
N1475 N 0.84786 0.28982 0.94565 0.0
H1476 H 0.48521 0.25601 0.26322 0.0
H1477 H 0.46619 0.30817 0.41473 0.0
H1478 H 0.45215 0.21209 0.33348 0.0
H1479 H 0.48576 0.34754 0.33884 0.0
H1480 H 0.46049 0.27287 0.38542 0.0
H1481 H 0.48528 0.28939 0.29046 0.0
C1482 C 0.47792 0.25333 0.28444 0.0
C1483 C 0.46883 0.23115 0.29617 0.0
C1484 C 0.46583 0.28912 0.37505 0.0
C1485 C 0.46893 0.26969 0.32766 0.0
C1486 C 0.46916 0.30938 0.39179 0.0
C1487 C 0.47665 0.33099 0.37927 0.0
C1488 C 0.47028 0.29039 0.3455 0.0
C1489 C 0.47999 0.33131 0.34941 0.0
C1490 C 0.47789 0.27247 0.29994 0.0
C1491 C 0.4594 0.22883 0.32363 0.0
N1492 N 0.47703 0.31139 0.3336 0.0
N1493 N 0.4599 0.24793 0.33856 0.0
H1494 H 0.73626 0.14774 0.24503 0.0
H1495 H 0.83776 0.28354 0.28684 0.0
H1496 H 0.7352 0.19148 0.31882 0.0
H1497 H 0.84422 0.23773 0.22013 0.0
H1498 H 0.80031 0.24975 0.29891 0.0
H1499 H 0.77541 0.18028 0.23496 0.0
C1500 C 0.74416 0.16418 0.25905 0.0
C1501 C 0.73229 0.16676 0.28286 0.0
C1502 C 0.80997 0.24697 0.28178 0.0
C1503 C 0.77731 0.20413 0.27154 0.0
C1504 C 0.83145 0.2663 0.27491 0.0
C1505 C 0.84426 0.26357 0.25242 0.0
C1506 C 0.80093 0.22464 0.26588 0.0
C1507 C 0.83506 0.24071 0.23774 0.0
C1508 C 0.76663 0.18271 0.25341 0.0
C1509 C 0.74366 0.18845 0.30045 0.0
N1510 N 0.8139 0.22222 0.24454 0.0
N1511 N 0.76539 0.20623 0.29439 0.0
H1512 H 0.89896 0.59938 0.3863 0.0
H1513 H 0.77437 0.5871 0.35753 0.0
H1514 H 0.83297 0.53596 0.39975 0.0
H1515 H 0.83986 0.64681 0.33425 0.0
H1516 H 0.7959 0.57066 0.37952 0.0
H1517 H 0.87791 0.61901 0.37272 0.0
C1518 C 0.88007 0.58949 0.38637 0.0
C1519 C 0.86781 0.56576 0.39394 0.0
C1520 C 0.80558 0.58749 0.36988 0.0
C1521 C 0.8435 0.58846 0.37873 0.0
C1522 C 0.79329 0.59701 0.35747 0.0
C1523 C 0.80527 0.61833 0.34376 0.0
C1524 C 0.83006 0.59936 0.36867 0.0
C1525 C 0.82983 0.63027 0.34438 0.0
C1526 C 0.86804 0.60082 0.37877 0.0
C1527 C 0.84328 0.55423 0.39424 0.0
N1528 N 0.84137 0.62053 0.35636 0.0
N1529 N 0.83197 0.56562 0.3866 0.0
H1530 H 0.5649 0.16302 0.89424 0.0
H1531 H 0.65935 0.1232 0.86785 0.0
H1532 H 0.55671 0.09769 0.92235 0.0
H1533 H 0.67084 0.19241 0.8505 0.0
H1534 H 0.62267 0.11421 0.88989 0.0
H1535 H 0.60467 0.175 0.88075 0.0
C1536 C 0.57158 0.15136 0.89806 0.0
C1537 C 0.55731 0.12926 0.90938 0.0
C1538 C 0.6333 0.13142 0.88139 0.0
C1539 C 0.60289 0.14269 0.89336 0.0
C1540 C 0.65437 0.13663 0.86881 0.0
C1541 C 0.66835 0.15859 0.85695 0.0
C1542 C 0.626 0.14822 0.88209 0.0
C1543 C 0.66061 0.17508 0.85874 0.0
C1544 C 0.59432 0.15817 0.89021 0.0
C1545 C 0.56703 0.11492 0.91378 0.0
N1546 N 0.63999 0.16951 0.87086 0.0
N1547 N 0.58906 0.12173 0.90543 0.0
H1548 H 0.92048 0.42773 0.86989 0.0
H1549 H 0.94408 0.54764 0.80385 0.0
H1550 H 0.98954 0.48954 0.86588 0.0
H1551 H 0.87796 0.48125 0.79385 0.0
H1552 H 0.96097 0.52721 0.82765 0.0
H1553 H 0.90457 0.44734 0.84273 0.0
C1554 C 0.93235 0.44538 0.86315 0.0
C1555 C 0.95643 0.45698 0.87027 0.0
C1556 C 0.94279 0.51709 0.82012 0.0
C1557 C 0.93819 0.47974 0.83929 0.0
C1558 C 0.93309 0.52879 0.80668 0.0
C1559 C 0.90952 0.5162 0.79682 0.0
C1560 C 0.92878 0.49263 0.82404 0.0
C1561 C 0.89623 0.49168 0.80078 0.0
C1562 C 0.92323 0.45658 0.84761 0.0
C1563 C 0.97089 0.47986 0.86086 0.0
N1564 N 0.90599 0.48077 0.8142 0.0
N1565 N 0.96154 0.49054 0.84608 0.0
H1566 H 0.61909 0.48626 0.77902 0.0
H1567 H 0.49924 0.3716 0.81651 0.0
H1568 H 0.57783 0.48721 0.85038 0.0
H1569 H 0.52658 0.37858 0.7311 0.0
H1570 H 0.53001 0.41274 0.83091 0.0
H1571 H 0.58728 0.44594 0.76234 0.0
C1572 C 0.6033 0.4781 0.79107 0.0
C1573 C 0.60119 0.49022 0.81617 0.0
C1574 C 0.52928 0.4053 0.809 0.0
C1575 C 0.56485 0.44385 0.79744 0.0
C1576 C 0.51177 0.38172 0.80078 0.0
C1577 C 0.51029 0.37151 0.77252 0.0
C1578 C 0.54575 0.41882 0.78901 0.0
C1579 C 0.527 0.38567 0.75309 0.0
C1580 C 0.58514 0.45507 0.78152 0.0
C1581 C 0.58026 0.47866 0.83088 0.0
N1582 N 0.54411 0.40853 0.76173 0.0
N1583 N 0.56306 0.4561 0.82148 0.0
H1584 H 0.61176 0.73909 0.62192 0.0
H1585 H 0.57931 0.83798 0.67598 0.0
H1586 H 0.55482 0.74362 0.58489 0.0
H1587 H 0.64175 0.84001 0.70598 0.0
H1588 H 0.56985 0.80292 0.64318 0.0
H1589 H 0.62256 0.77517 0.65389 0.0
C1590 C 0.60147 0.74757 0.62055 0.0
C1591 C 0.58234 0.73822 0.60055 0.0
C1592 C 0.58569 0.81106 0.65683 0.0
C1593 C 0.59471 0.77969 0.63706 0.0
C1594 C 0.59112 0.83114 0.67561 0.0
C1595 C 0.61139 0.84205 0.69385 0.0
C1596 C 0.60049 0.80155 0.65629 0.0
C1597 C 0.62598 0.83228 0.69229 0.0
C1598 C 0.60774 0.76829 0.63869 0.0
C1599 C 0.56986 0.75024 0.59959 0.0
N1600 N 0.62019 0.81254 0.67398 0.0
N1601 N 0.5762 0.77022 0.61758 0.0
H1602 H 0.25294 0.77986 0.66922 0.0
H1603 H 0.33334 0.8886 0.57422 0.0
H1604 H 0.22591 0.81499 0.62047 0.0
H1605 H 0.35218 0.83761 0.59741 0.0
H1606 H 0.29579 0.86556 0.5971 0.0
H1607 H 0.29145 0.80469 0.64922 0.0
C1608 C 0.25516 0.79293 0.65452 0.0
C1609 C 0.23614 0.79526 0.64639 0.0
C1610 C 0.30817 0.85944 0.59718 0.0
C1611 C 0.28014 0.82377 0.62349 0.0
C1612 C 0.32963 0.87265 0.58427 0.0
C1613 C 0.34588 0.86496 0.58373 0.0
C1614 C 0.30302 0.83856 0.61012 0.0
C1615 C 0.34006 0.84402 0.59695 0.0
C1616 C 0.27708 0.80698 0.64297 0.0
C1617 C 0.23999 0.81238 0.62704 0.0
N1618 N 0.31919 0.83163 0.60967 0.0
N1619 N 0.26151 0.826 0.61634 0.0
H1620 H 0.30594 0.48902 0.6583 0.0
H1621 H 0.17248 0.45145 0.62676 0.0
H1622 H 0.24784 0.4177 0.66592 0.0
H1623 H 0.23162 0.51947 0.60879 0.0
H1624 H 0.1995 0.43867 0.6415 0.0
H1625 H 0.27885 0.50022 0.63968 0.0
C1626 C 0.28751 0.47562 0.65581 0.0
C1627 C 0.27921 0.45236 0.66376 0.0
C1628 C 0.20655 0.45636 0.63421 0.0
C1629 C 0.2479 0.46522 0.64272 0.0
C1630 C 0.19111 0.46373 0.62597 0.0
C1631 C 0.19971 0.48661 0.61647 0.0
C1632 C 0.23082 0.47202 0.6332 0.0
C1633 C 0.22409 0.5016 0.61559 0.0
C1634 C 0.272 0.48206 0.6452 0.0
C1635 C 0.25508 0.43581 0.66002 0.0
N1636 N 0.23872 0.4941 0.62393 0.0
N1637 N 0.24028 0.4426 0.65 0.0
H1638 H 0.42085 0.93504 0.20849 0.0
H1639 H 0.5107 0.89127 0.16604 0.0
H1640 H 0.41479 0.86987 0.23381 0.0
H1641 H 0.52057 0.95902 0.14482 0.0
H1642 H 0.47612 0.88395 0.19216 0.0
H1643 H 0.45756 0.94468 0.18568 0.0
C1644 C 0.42715 0.92273 0.20925 0.0
C1645 C 0.41456 0.90157 0.22317 0.0
C1646 C 0.48589 0.90051 0.18196 0.0
C1647 C 0.45677 0.91261 0.19721 0.0
C1648 C 0.50573 0.90473 0.16704 0.0
C1649 C 0.51862 0.92579 0.15309 0.0
C1650 C 0.47865 0.91736 0.18288 0.0
C1651 C 0.51124 0.94255 0.15526 0.0
C1652 C 0.44822 0.92832 0.19636 0.0
C1653 C 0.42388 0.8865 0.22373 0.0
N1654 N 0.49168 0.9379 0.16967 0.0
N1655 N 0.44428 0.89226 0.21089 0.0
H1656 H 0.14359 0.49692 0.1962 0.0
H1657 H 0.15729 0.62559 0.23447 0.0
H1658 H 0.18111 0.54415 0.27191 0.0
H1659 H 0.11917 0.58018 0.15778 0.0
H1660 H 0.16494 0.59504 0.24861 0.0
H1661 H 0.13316 0.52599 0.18209 0.0
C1662 C 0.14951 0.51326 0.20999 0.0
C1663 C 0.16344 0.51807 0.23524 0.0
C1664 C 0.15484 0.59165 0.2287 0.0
C1665 C 0.15169 0.55156 0.21904 0.0
C1666 C 0.15029 0.60914 0.22063 0.0
C1667 C 0.1374 0.60563 0.19485 0.0
C1668 C 0.14654 0.57026 0.21097 0.0
C1669 C 0.12933 0.58391 0.17769 0.0
C1670 C 0.14365 0.52993 0.20181 0.0
C1671 C 0.17073 0.53973 0.25203 0.0
N1672 N 0.13402 0.56709 0.18605 0.0
N1673 N 0.16482 0.55557 0.24363 0.0
H1674 H 0.55643 0.65873 0.22322 0.0
H1675 H 0.42609 0.54523 0.20906 0.0
H1676 H 0.50456 0.64424 0.28701 0.0
H1677 H 0.47858 0.55616 0.14743 0.0
H1678 H 0.45539 0.58043 0.23895 0.0
H1679 H 0.52918 0.62048 0.19637 0.0
C1680 C 0.53945 0.64749 0.23181 0.0
C1681 C 0.53284 0.655 0.25744 0.0
C1682 C 0.4606 0.57507 0.21901 0.0
C1683 C 0.50133 0.61108 0.22647 0.0
C1684 C 0.44384 0.55488 0.2019 0.0
C1685 C 0.44978 0.54767 0.17556 0.0
C1686 C 0.48358 0.58841 0.20973 0.0
C1687 C 0.47315 0.56098 0.16754 0.0
C1688 C 0.52382 0.62563 0.21633 0.0
C1689 C 0.5104 0.63958 0.26716 0.0
N1690 N 0.48911 0.58078 0.18441 0.0
N1691 N 0.4955 0.61852 0.25166 0.0
H1692 H 0.1772 0.6807 0.6878 0.0
H1693 H 0.09114 0.53983 0.69138 0.0
H1694 H 0.12508 0.65032 0.75179 0.0
H1695 H 0.15591 0.57026 0.647 0.0
H1696 H 0.10209 0.58002 0.71217 0.0
H1697 H 0.16863 0.64044 0.67097 0.0
C1698 C 0.16406 0.6656 0.69846 0.0
C1699 C 0.15188 0.66901 0.72131 0.0
C1700 C 0.11398 0.57787 0.69805 0.0
C1701 C 0.14171 0.62266 0.70179 0.0
C1702 C 0.10773 0.55491 0.68612 0.0
C1703 C 0.1226 0.55154 0.66736 0.0
C1704 C 0.13513 0.59778 0.69087 0.0
C1705 C 0.14389 0.57187 0.66139 0.0
C1706 C 0.15918 0.64259 0.68884 0.0
C1707 C 0.13501 0.64865 0.73421 0.0
N1708 N 0.14939 0.59406 0.67287 0.0
N1709 N 0.13028 0.6264 0.72412 0.0
H1710 H 0.42552 0.56779 0.70821 0.0
H1711 H 0.52312 0.56541 0.6085 0.0
H1712 H 0.42286 0.50261 0.6762 0.0
H1713 H 0.51963 0.62885 0.63115 0.0
H1714 H 0.48848 0.54253 0.63651 0.0
H1715 H 0.46179 0.59066 0.68339 0.0
C1716 C 0.43261 0.55823 0.69616 0.0
C1717 C 0.42098 0.53313 0.69439 0.0
C1718 C 0.49537 0.56148 0.63546 0.0
C1719 C 0.46272 0.55941 0.66556 0.0
C1720 C 0.51525 0.57461 0.61958 0.0
C1721 C 0.52437 0.59915 0.61736 0.0
C1722 C 0.48451 0.57294 0.64943 0.0
C1723 C 0.51326 0.61 0.63213 0.0
C1724 C 0.45332 0.57136 0.6818 0.0
C1725 C 0.43099 0.52186 0.67796 0.0
N1726 N 0.49396 0.59685 0.64743 0.0
N1727 N 0.45125 0.53505 0.66425 0.0
H1728 H 0.51567 0.91247 0.73386 0.0
H1729 H 0.49759 0.92556 0.56718 0.0
H1730 H 0.55665 0.90577 0.66568 0.0
H1731 H 0.46244 0.94195 0.63524 0.0
H1732 H 0.51998 0.91938 0.60349 0.0
H1733 H 0.49633 0.92383 0.69883 0.0
C1734 C 0.52062 0.91335 0.71156 0.0
C1735 C 0.53781 0.908 0.70279 0.0
C1736 C 0.50753 0.92451 0.61061 0.0
C1737 C 0.51575 0.92119 0.66249 0.0
C1738 C 0.49471 0.92807 0.58984 0.0
C1739 C 0.478 0.93421 0.59812 0.0
C1740 C 0.50356 0.92681 0.6401 0.0
C1741 C 0.47517 0.9373 0.62786 0.0
C1742 C 0.50965 0.92001 0.69159 0.0
C1743 C 0.5437 0.90988 0.67361 0.0
N1744 N 0.48763 0.93333 0.64777 0.0
N1745 N 0.53261 0.91614 0.65457 0.0
H1746 H 0.21526 0.47598 0.14699 0.0
H1747 H 0.33137 0.46741 0.1514 0.0
H1748 H 0.22534 0.43267 0.20454 0.0
H1749 H 0.319 0.509 0.09351 0.0
H1750 H 0.29194 0.45237 0.1692 0.0
H1751 H 0.25222 0.48597 0.12524 0.0
C1752 C 0.22512 0.46835 0.15491 0.0
C1753 C 0.21709 0.45349 0.17777 0.0
C1754 C 0.29785 0.46472 0.15252 0.0
C1755 C 0.25992 0.46518 0.15299 0.0
C1756 C 0.32038 0.47326 0.14222 0.0
C1757 C 0.32878 0.48974 0.12102 0.0
C1758 C 0.28351 0.47264 0.14154 0.0
C1759 C 0.31363 0.49673 0.11021 0.0
C1760 C 0.24634 0.47413 0.14248 0.0
C1761 C 0.23075 0.44416 0.18697 0.0
N1762 N 0.2919 0.48825 0.12062 0.0
N1763 N 0.25154 0.4503 0.17473 0.0
H1764 H 0.59132 0.86639 0.16688 0.0
H1765 H 0.58505 0.74127 0.1786 0.0
H1766 H 0.55852 0.80678 0.10174 0.0
H1767 H 0.61866 0.80028 0.24444 0.0
H1768 H 0.57796 0.76636 0.14871 0.0
H1769 H 0.60413 0.84395 0.194 0.0
C1770 C 0.58699 0.84872 0.15807 0.0
C1771 C 0.57359 0.83845 0.13199 0.0
C1772 C 0.58705 0.77394 0.16959 0.0
C1773 C 0.5881 0.81251 0.16319 0.0
C1774 C 0.59117 0.75959 0.1867 0.0
C1775 C 0.60239 0.76857 0.21422 0.0
C1776 C 0.59405 0.79752 0.18 0.0
C1777 C 0.60993 0.79254 0.22341 0.0
C1778 C 0.59423 0.83585 0.17369 0.0
C1779 C 0.5684 0.81533 0.12193 0.0
N1780 N 0.60547 0.8061 0.20646 0.0
N1781 N 0.57555 0.80318 0.13755 0.0
H1782 H 0.24856 0.85174 0.17424 0.0
H1783 H 0.21754 0.71599 0.14521 0.0
H1784 H 0.29873 0.82915 0.18404 0.0
H1785 H 0.16871 0.73885 0.12698 0.0
H1786 H 0.24805 0.75774 0.15653 0.0
H1787 H 0.21985 0.81127 0.15386 0.0
C1788 C 0.25369 0.83841 0.17176 0.0
C1789 C 0.27616 0.84396 0.18107 0.0
C1790 C 0.23073 0.75369 0.14981 0.0
C1791 C 0.24314 0.79735 0.158 0.0
C1792 C 0.21325 0.72978 0.14329 0.0
C1793 C 0.19041 0.72377 0.13522 0.0
C1794 C 0.22542 0.77189 0.14854 0.0
C1795 C 0.18603 0.74256 0.13311 0.0
C1796 C 0.23722 0.81524 0.16017 0.0
C1797 C 0.28166 0.82581 0.1773 0.0
N1798 N 0.20327 0.7657 0.13998 0.0
N1799 N 0.26526 0.80336 0.16635 0.0
H1800 H 0.32495 0.31519 0.01518 0.0
H1801 H 0.37559 0.41522 0.14905 0.0
H1802 H 0.32535 0.29911 0.10372 0.0
H1803 H 0.38935 0.43159 0.06014 0.0
H1804 H 0.35632 0.37255 0.13294 0.0
H1805 H 0.34785 0.35792 0.03113 0.0
C1806 C 0.32998 0.3206 0.03791 0.0
C1807 C 0.32314 0.30345 0.05809 0.0
C1808 C 0.3637 0.3855 0.11699 0.0
C1809 C 0.34916 0.3524 0.07659 0.0
C1810 C 0.37469 0.40989 0.12619 0.0
C1811 C 0.38411 0.42709 0.10597 0.0
C1812 C 0.36185 0.3782 0.08731 0.0
C1813 C 0.38239 0.41903 0.07657 0.0
C1814 C 0.34306 0.34502 0.04702 0.0
C1815 C 0.33019 0.31161 0.08732 0.0
N1816 N 0.37135 0.39523 0.06814 0.0
N1817 N 0.34262 0.33543 0.09568 0.0
H1818 H 0.64503 0.95497 0.16215 0.0
H1819 H 0.74134 1.0105 0.04268 0.0
H1820 H 0.62973 0.9605 0.07359 0.0
H1821 H 0.75928 1.01206 0.1326 0.0
H1822 H 0.70047 0.99245 0.05429 0.0
H1823 H 0.68686 0.97634 0.15259 0.0
C1824 C 0.65043 0.96086 0.1408 0.0
C1825 C 0.63374 0.95581 0.11863 0.0
C1826 C 0.71332 0.99679 0.07156 0.0
C1827 C 0.68162 0.98008 0.10748 0.0
C1828 C 0.73683 1.00727 0.06495 0.0
C1829 C 0.75407 1.01304 0.08666 0.0
C1830 C 0.70672 0.99181 0.10012 0.0
C1831 C 0.74674 1.00779 0.11503 0.0
C1832 C 0.67433 0.973 0.13534 0.0
C1833 C 0.64186 0.96387 0.09137 0.0
N1834 N 0.72365 0.99747 0.12092 0.0
N1835 N 0.66512 0.97543 0.08657 0.0
H1836 H 0.98319 0.7369 0.0984 0.0
H1837 H 0.07821 0.69721 0.07342 0.0
H1838 H 1.02838 0.75676 0.02606 0.0
H1839 H 0.03946 0.68747 0.15104 0.0
H1840 H 0.0581 0.7159 0.05346 0.0
H1841 H 1.00081 0.71478 0.11489 0.0
C1842 C 0.99666 0.73642 0.08575 0.0
C1843 C 1.00436 0.7489 0.06083 0.0
C1844 C 0.05399 0.70959 0.07483 0.0
C1845 C 1.02491 0.7236 0.07992 0.0
C1846 C 0.0656 0.699 0.08641 0.0
C1847 C 0.06071 0.69064 0.11418 0.0
C1848 C 0.03724 0.71183 0.09098 0.0
C1849 C 0.04378 0.69326 0.12952 0.0
C1850 C 1.00682 0.72383 0.0953 0.0
C1851 C 1.02186 0.74746 0.04538 0.0
N1852 N 1.03275 0.70359 0.11776 0.0
N1853 N 1.03164 0.73519 0.05527 0.0
H1854 H 0.29525 0.31805 0.41859 0.0
H1855 H 0.40696 0.33517 0.50346 0.0
H1856 H 0.28924 0.2887 0.50061 0.0
H1857 H 0.4099 0.38172 0.44013 0.0
H1858 H 0.36426 0.31735 0.50363 0.0
H1859 H 0.33763 0.34073 0.4262 0.0
C1860 C 0.3029 0.31656 0.43838 0.0
C1861 C 0.28874 0.30149 0.45899 0.0
C1862 C 0.37437 0.33163 0.48994 0.0
C1863 C 0.33745 0.32715 0.4677 0.0
C1864 C 0.39873 0.34184 0.48988 0.0
C1865 C 0.41205 0.35964 0.4713 0.0
C1866 C 0.36334 0.33923 0.47117 0.0
C1867 C 0.40038 0.36756 0.45414 0.0
C1868 C 0.32712 0.32956 0.44276 0.0
C1869 C 0.29958 0.30027 0.48427 0.0
N1870 N 0.37678 0.35716 0.45427 0.0
N1871 N 0.32338 0.3127 0.48777 0.0
H1872 H 0.69643 0.08862 0.4179 0.0
H1873 H 0.80155 0.06773 0.37306 0.0
H1874 H 0.7323 0.10806 0.33821 0.0
H1875 H 0.75611 0.03439 0.4428 0.0
H1876 H 0.78151 0.08967 0.36578 0.0
H1877 H 0.72393 0.07647 0.43369 0.0
C1878 C 0.71055 0.09103 0.40421 0.0
C1879 C 0.71219 0.09926 0.37677 0.0
C1880 C 0.77608 0.07768 0.38285 0.0
C1881 C 0.74325 0.08517 0.39422 0.0
C1882 C 0.78744 0.06499 0.38689 0.0
C1883 C 0.78046 0.04886 0.40836 0.0
C1884 C 0.75756 0.0743 0.40038 0.0
C1885 C 0.76231 0.0466 0.42603 0.0
C1886 C 0.72605 0.08387 0.41301 0.0
C1887 C 0.73048 0.10168 0.35951 0.0
N1888 N 0.75141 0.05901 0.4215 0.0
N1889 N 0.74516 0.09451 0.3684 0.0
H1890 H 1.01435 0.7304 0.46826 0.0
H1891 H 1.02692 0.62257 0.39959 0.0
H1892 H 0.07311 0.74354 0.41665 0.0
H1893 H 0.96001 0.6179 0.40643 0.0
H1894 H 0.04633 0.66587 0.41297 0.0
H1895 H 0.99636 0.68746 0.45422 0.0
C1896 C 1.02362 0.72423 0.45434 0.0
C1897 C 0.04525 0.74054 0.44359 0.0
C1898 C 1.02741 0.6553 0.4113 0.0
C1899 C 1.02481 0.69154 0.42757 0.0
C1900 C 1.01634 0.63066 0.40364 0.0
C1901 C 0.99182 0.61662 0.40171 0.0
C1902 C 1.01384 0.66578 0.41787 0.0
C1903 C 0.97895 0.62803 0.40737 0.0
C1904 C 1.01325 0.69978 0.44614 0.0
C1905 C 0.05637 0.73154 0.42534 0.0
N1906 N 0.9901 0.65185 0.41554 0.0
N1907 N 0.04609 0.70761 0.418 0.0
H1908 H 0.69783 0.62122 0.85224 0.0
H1909 H 0.71379 0.75192 0.86929 0.0
H1910 H 0.63988 0.63337 0.85723 0.0
H1911 H 0.76538 0.7358 0.89794 0.0
H1912 H 0.68899 0.70994 0.84977 0.0
H1913 H 0.72475 0.66443 0.85409 0.0
C1914 C 0.69069 0.6329 0.85316 0.0
C1915 C 0.6665 0.62357 0.85496 0.0
C1916 C 0.70604 0.71579 0.8596 0.0
C1917 C 0.69737 0.67319 0.85701 0.0
C1918 C 0.7203 0.73977 0.87034 0.0
C1919 C 0.74172 0.74728 0.88492 0.0
C1920 C 0.71345 0.69941 0.86325 0.0
C1921 C 0.74906 0.7307 0.88658 0.0
C1922 C 0.70612 0.6576 0.85432 0.0
C1923 C 0.65838 0.63973 0.8561 0.0
N1924 N 0.73492 0.70754 0.87606 0.0
N1925 N 0.67378 0.66374 0.85734 0.0
H1926 H 0.30275 0.95437 0.97315 0.0
H1927 H 0.42328 0.07625 0.95464 0.0
H1928 H 0.30733 1.02271 0.97215 0.0
H1929 H 0.4132 1.00549 0.94126 0.0
H1930 H 0.38319 0.05866 0.972 0.0
H1931 H 0.34528 0.97452 0.97272 0.0
C1932 C 0.3127 0.97367 0.97326 0.0
C1933 C 0.30134 0.98678 0.97228 0.0
C1934 C 0.38998 0.04708 0.96583 0.0
C1935 C 0.35032 1.0101 0.9714 0.0
C1936 C 0.41289 0.05713 0.95622 0.0
C1937 C 0.42145 0.04224 0.9465 0.0
C1938 C 0.37578 1.02205 0.96588 0.0
C1939 C 0.40719 1.01756 0.94847 0.0
C1940 C 0.33705 0.98521 0.97293 0.0
C1941 C 0.31529 1.01183 0.97271 0.0
N1942 N 0.38509 1.00827 0.95772 0.0
N1943 N 0.33903 1.02265 0.97183 0.0
H1944 H 0.0968 0.36799 0.94354 0.0
H1945 H 0.97718 0.34838 0.87433 0.0
H1946 H 0.04144 0.29996 0.90489 0.0
H1947 H 1.02337 0.40949 0.93294 0.0
H1948 H 1.00311 0.33243 0.88001 0.0
H1949 H 0.07231 0.38528 0.93535 0.0
C1950 C 0.0795 0.35667 0.93341 0.0
C1951 C 0.07117 0.33244 0.92502 0.0
C1952 C 1.00762 0.3494 0.8915 0.0
C1953 C 0.04316 0.35222 0.91521 0.0
C1954 C 0.9929 0.3586 0.88811 0.0
C1955 C 0.99803 0.38029 0.90325 0.0
C1956 C 1.02775 0.36205 0.90996 0.0
C1957 C 1.01863 0.39265 0.92094 0.0
C1958 C 0.06553 0.36656 0.92872 0.0
C1959 C 0.04859 0.31868 0.91189 0.0
N1960 N 1.0327 0.38336 0.92382 0.0
N1961 N 0.03545 0.32876 0.9073 0.0
H1962 H 0.74883 0.72106 0.49978 0.0
H1963 H 0.65394 0.68705 0.62147 0.0
H1964 H 0.76532 0.72506 0.59078 0.0
H1965 H 0.63532 0.66736 0.53033 0.0
H1966 H 0.69498 0.70224 0.61068 0.0
H1967 H 0.70733 0.70262 0.51041 0.0
C1968 C 0.74376 0.71799 0.52196 0.0
C1969 C 0.76069 0.72467 0.54438 0.0
C1970 C 0.68189 0.69445 0.59306 0.0
C1971 C 0.71314 0.70373 0.55676 0.0
C1972 C 0.65842 0.68577 0.59922 0.0
C1973 C 0.64106 0.67589 0.57681 0.0
C1974 C 0.68818 0.69354 0.56423 0.0
C1975 C 0.64803 0.67476 0.54836 0.0
C1976 C 0.72003 0.70742 0.52802 0.0
C1977 C 0.75297 0.72021 0.57273 0.0
N1978 N 0.671 0.68362 0.54289 0.0
N1979 N 0.72986 0.7102 0.5781 0.0
H1980 H 0.31358 1.01614 0.5397 0.0
H1981 H 0.44006 0.02887 0.54107 0.0
H1982 H 0.37821 0.0841 0.54344 0.0
H1983 H 0.37661 0.96383 0.55755 0.0
H1984 H 0.41751 0.0488 0.53753 0.0
H1985 H 0.33613 0.996 0.54079 0.0
C1986 C 0.3325 0.02684 0.54034 0.0
C1987 C 0.34398 0.05191 0.5415 0.0
C1988 C 0.40853 0.03019 0.54201 0.0
C1989 C 0.36994 0.02889 0.54301 0.0
C1990 C 0.42141 1.01878 0.54408 0.0
C1991 C 0.41028 0.99461 0.54972 0.0
C1992 C 0.38423 1.01732 0.54527 0.0
C1993 C 0.38601 0.9825 0.55333 0.0
C1994 C 0.34537 1.01531 0.54121 0.0
C1995 C 0.36857 0.06476 0.54255 0.0
N1996 N 0.37381 0.99393 0.55092 0.0
N1997 N 0.38069 0.05314 0.54332 0.0
H1998 H 0.03338 0.42529 0.62087 0.0
H1999 H 1.03217 0.30185 0.59611 0.0
H2000 H 0.09625 0.42145 0.62067 0.0
H2001 H 0.97152 0.30571 0.62063 0.0
H2002 H 0.05538 0.34564 0.59985 0.0
H2003 H 1.01006 0.38157 0.6169 0.0
C2004 C 0.04231 0.41528 0.62025 0.0
C2005 C 0.06686 0.42715 0.62122 0.0
C2006 C 0.03697 0.33689 0.60429 0.0
C2007 C 0.04016 0.37691 0.61608 0.0
C2008 C 1.02363 0.31186 0.6019 0.0
C2009 C 0.99979 0.29999 0.60805 0.0
C2010 C 1.02639 0.35024 0.61259 0.0
C2011 C 0.98981 0.31402 0.61572 0.0
C2012 C 1.02896 0.39028 0.61791 0.0
C2013 C 0.0774 0.41313 0.62022 0.0
N2014 N 1.00312 0.33833 0.61774 0.0
N2015 N 0.06401 0.3888 0.61747 0.0
H2016 H 0.95885 0.67929 0.77077 0.0
H2017 H 0.07562 0.67745 0.73499 0.0
H2018 H 0.96634 0.61834 0.7815 0.0
H2019 H 0.07005 0.74061 0.73596 0.0
H2020 H 0.03615 0.65565 0.75305 0.0
H2021 H 1.00006 0.7023 0.75956 0.0
C2022 C 0.96922 0.67081 0.77115 0.0
C2023 C 0.95902 0.64678 0.777 0.0
C2024 C 0.04364 0.67432 0.74938 0.0
C2025 C 1.00633 0.67301 0.76365 0.0
C2026 C 0.06626 0.68683 0.73909 0.0
C2027 C 0.07634 0.71098 0.73363 0.0
C2028 C 1.03089 0.68594 0.75419 0.0
C2029 C 0.06306 0.72198 0.73919 0.0
C2030 C 0.99279 0.68396 0.76464 0.0
C2031 C 0.97342 0.63681 0.77716 0.0
N2032 N 0.04109 0.70939 0.74902 0.0
N2033 N 0.99626 0.64987 0.77027 0.0
H2034 H 0.37649 0.42588 0.70957 0.0
H2035 H 0.35378 0.30273 0.76544 0.0
H2036 H 0.30848 0.3679 0.72888 0.0
H2037 H 0.42281 0.36343 0.75647 0.0
H2038 H 0.3369 0.3252 0.74803 0.0
H2039 H 0.39356 0.40185 0.72155 0.0
C2040 C 0.36507 0.40798 0.7159 0.0
C2041 C 0.34098 0.39897 0.71833 0.0
C2042 C 0.35575 0.33362 0.74983 0.0
C2043 C 0.3605 0.37144 0.73238 0.0
C2044 C 0.36548 0.32081 0.76002 0.0
C2045 C 0.38988 0.33115 0.76276 0.0
C2046 C 0.37042 0.35703 0.74216 0.0
C2047 C 0.40396 0.35457 0.75462 0.0
C2048 C 0.37488 0.39433 0.72293 0.0
C2049 C 0.32713 0.37567 0.72679 0.0
N2050 N 0.39404 0.3667 0.74479 0.0
N2051 N 0.33709 0.36282 0.73363 0.0
H2052 H 0.63598 0.96756 0.75331 0.0
H2053 H 0.75797 0.07879 0.81604 0.0
H2054 H 0.69149 0.95891 0.7868 0.0
H2055 H 0.69397 0.08041 0.81277 0.0
H2056 H 0.73566 0.03594 0.80027 0.0
H2057 H 0.65911 1.01032 0.76864 0.0
C2058 C 0.65316 0.97467 0.76353 0.0
C2059 C 0.66177 0.95955 0.76878 0.0
C2060 C 0.72651 0.04568 0.80319 0.0
C2061 C 0.68832 1.00858 0.78654 0.0
C2062 C 0.73921 0.07012 0.81223 0.0
C2063 C 0.72783 0.08325 0.81586 0.0
C2064 C 0.70231 0.03434 0.79719 0.0
C2065 C 0.70349 0.07104 0.81048 0.0
C2066 C 0.66626 0.99907 0.77252 0.0
C2067 C 0.68412 0.96985 0.78235 0.0
N2068 N 0.6916 0.04737 0.80119 0.0
N2069 N 0.69663 0.99371 0.79072 0.0
H2070 H 0.37124 0.97801 0.18487 0.0
H2071 H 0.41856 0.08264 0.31321 0.0
H2072 H 0.35355 0.96482 0.27381 0.0
H2073 H 0.41758 0.09514 0.22327 0.0
H2074 H 0.39653 0.03944 0.29944 0.0
H2075 H 0.39007 1.02108 0.19855 0.0
C2076 C 0.37116 0.98412 0.20721 0.0
C2077 C 0.36074 0.96767 0.22816 0.0
C2078 C 0.40102 0.05167 0.28276 0.0
C2079 C 0.3826 1.01705 0.24409 0.0
C2080 C 0.41363 0.07635 0.29062 0.0
C2081 C 0.41998 0.09265 0.26943 0.0
C2082 C 0.39498 0.04315 0.25344 0.0
C2083 C 0.41307 0.08334 0.24044 0.0
C2084 C 0.38192 1.00873 0.21502 0.0
C2085 C 0.36126 0.97675 0.25684 0.0
N2086 N 0.40115 0.05931 0.23331 0.0
N2087 N 0.37215 1.00075 0.26397 0.0
H2088 H 0.97854 0.33904 0.27049 0.0
H2089 H 0.08802 0.40038 0.16897 0.0
H2090 H 0.97142 0.33603 0.17755 0.0
H2091 H 0.09449 0.39042 0.25872 0.0
H2092 H 0.04537 0.37771 0.1718 0.0
H2093 H 1.02104 0.35872 0.26686 0.0
C2094 C 0.98586 0.3424 0.2493 0.0
C2095 C 0.97126 0.33582 0.2243 0.0
C2096 C 0.05613 0.38037 0.19083 0.0
C2097 C 1.0201 0.35862 0.22 0.0
C2098 C 0.08052 0.39334 0.18923 0.0
C2099 C 0.09499 0.39739 0.21363 0.0
C2100 C 0.04601 0.37154 0.21711 0.0
C2101 C 0.08414 0.38777 0.2393 0.0
C2102 C 1.01017 0.35364 0.24724 0.0
C2103 C 0.98188 0.34069 0.19744 0.0
N2104 N 0.06039 0.37548 0.24041 0.0
N2105 N 1.00558 0.35189 0.19604 0.0
H2106 H 0.7075 0.65471 0.35267 0.0
H2107 H 0.65659 0.69965 0.23134 0.0
H2108 H 0.72113 0.65159 0.26191 0.0
H2109 H 0.65352 0.71445 0.323 0.0
H2110 H 0.67941 0.68107 0.24213 0.0
H2111 H 0.68686 0.67573 0.34237 0.0
C2112 C 0.70626 0.65851 0.33061 0.0
C2113 C 0.71609 0.6513 0.30816 0.0
C2114 C 0.67384 0.68848 0.25989 0.0
C2115 C 0.69229 0.67524 0.29615 0.0
C2116 C 0.66077 0.69909 0.25373 0.0
C2117 C 0.65307 0.70866 0.27626 0.0
C2118 C 0.67912 0.68718 0.28882 0.0
C2119 C 0.65908 0.70737 0.30488 0.0
C2120 C 0.69447 0.67053 0.32474 0.0
C2121 C 0.71388 0.65676 0.27998 0.0
N2122 N 0.6716 0.69674 0.31032 0.0
N2123 N 0.70215 0.66825 0.27479 0.0
loop_
_geom_bond_atom_site_label_1
_geom_bond_atom_site_label_2
_geom_bond_distance
_geom_bond_site_symmetry_2
_ccdc_geom_bond_type
Cu0 N1 1.999 . S
Cu0 O6 1.974 . S
Cu0 N11 1.985 . S
Cu0 O20 1.959 . S
N1 Cu0 1.999 . S
N1 C3 1.263 . S
N1 C5 1.389 . S
N2 C3 1.358 . S
N2 C4 1.400 . S
C3 N1 1.263 . S
C3 N2 1.358 . S
C3 H9 0.930 . S
C4 N2 1.400 . S
C4 C5 1.351 . S
C4 H21 0.930 . S
C5 N1 1.389 . S
C5 C4 1.351 . S
C5 H10 0.930 . S
O6 Cu0 1.974 . S
O6 C16 1.282 . S
C7 O8 1.261 . S
C7 O20 1.251 . S
O8 C7 1.261 . S
H9 C3 0.930 . S
H10 C5 0.930 . S
N11 Cu0 1.985 . S
N11 C13 1.335 . S
N11 C14 1.390 . S
N12 C13 1.345 . S
N12 C15 1.318 1_554 S
C13 N11 1.335 . S
C13 N12 1.345 . S
C13 H18 0.930 . S
C14 N11 1.390 . S
C14 C15 1.329 1_554 S
C14 H19 0.930 . S
C15 N12 1.318 1_556 S
C15 C14 1.329 1_556 S
C15 H22 0.961 . S
C16 O6 1.282 . S
C16 O17 1.216 . S
O17 C16 1.216 . S
H18 C13 0.930 . S
H19 C14 0.930 . S
O20 Cu0 1.959 . S
O20 C7 1.251 . S
H21 C4 0.930 . S
H22 C15 0.961 . S
Cu23 N24 1.999 . S
Cu23 O29 1.974 . S
Cu23 N34 1.985 . S
Cu23 O43 1.959 . S
N24 Cu23 1.999 . S
N24 C26 1.263 . S
N24 C28 1.389 . S
N25 C26 1.349 . S
N25 C27 1.432 . S
C26 N24 1.263 . S
C26 N25 1.349 . S
C26 H32 0.930 1_545 S
C27 N25 1.432 . S
C27 C28 1.351 . S
C27 H44 0.930 . S
C28 N24 1.389 . S
C28 C27 1.351 . S
C28 H33 0.930 . S
O29 Cu23 1.974 . S
O29 C39 1.282 1_545 S
C30 O31 1.261 . S
C30 O43 1.251 . S
O31 C30 1.261 . S
H32 C26 0.930 1_565 S
H33 C28 0.930 . S
N34 Cu23 1.985 . S
N34 C36 1.335 . S
N34 C37 1.390 . S
N35 C36 1.345 . S
N35 C38 1.336 . S
C36 N34 1.335 . S
C36 N35 1.345 . S
C36 H41 0.930 . S
C37 N34 1.390 . S
C37 C38 1.346 . S
C37 H42 0.930 . S
C38 N35 1.336 . S
C38 C37 1.346 . S
C38 H45 0.929 . S
C39 O29 1.282 1_565 S
C39 O40 1.216 . S
O40 C39 1.216 . S
H41 C36 0.930 . S
H42 C37 0.930 . S
O43 Cu23 1.959 . S
O43 C30 1.251 . S
H44 C27 0.930 . S
H45 C38 0.929 . S
Cu46 N47 1.999 . S
Cu46 O52 1.974 . S
Cu46 N57 1.985 . S
Cu46 O66 1.959 . S
N47 Cu46 1.999 . S
N47 C49 1.263 . S
N47 C51 1.389 . S
N48 C49 1.358 . S
N48 C50 1.400 . S
C49 N47 1.263 . S
C49 N48 1.358 . S
C49 H55 0.930 . S
C50 N48 1.400 . S
C50 C51 1.351 . S
C50 H67 0.930 . S
C51 N47 1.389 . S
C51 C50 1.351 . S
C51 H56 0.930 . S
O52 Cu46 1.974 . S
O52 C62 1.282 . S
C53 O54 1.261 . S
C53 O66 1.251 . S
O54 C53 1.261 . S
H55 C49 0.930 . S
H56 C51 0.930 . S
N57 Cu46 1.985 . S
N57 C59 1.335 1_655 S
N57 C60 1.390 . S
N58 C59 1.345 . S
N58 C61 1.336 1_455 S
C59 N57 1.335 1_455 S
C59 N58 1.345 . S
C59 H64 0.930 . S
C60 N57 1.390 . S
C60 C61 1.346 . S
C60 H65 0.930 . S
C61 N58 1.336 1_655 S
C61 C60 1.346 . S
C61 H68 0.929 1_554 S
C62 O52 1.282 . S
C62 O63 1.216 . S
O63 C62 1.216 . S
H64 C59 0.930 . S
H65 C60 0.930 . S
O66 Cu46 1.959 . S
O66 C53 1.251 . S
H67 C50 0.930 . S
H68 C61 0.929 1_556 S
Cu69 N70 1.999 . S
Cu69 O75 1.974 . S
Cu69 N80 1.985 . S
Cu69 O89 1.959 . S
N70 Cu69 1.999 . S
N70 C72 1.263 . S
N70 C74 1.389 . S
N71 C72 1.358 . S
N71 C73 1.400 . S
C72 N70 1.263 . S
C72 N71 1.358 . S
C72 H78 0.930 . S
C73 N71 1.400 . S
C73 C74 1.351 . S
C73 H90 0.930 . S
C74 N70 1.389 . S
C74 C73 1.351 . S
C74 H79 0.930 . S
O75 Cu69 1.974 . S
O75 C85 1.282 . S
C76 O77 1.261 . S
C76 O89 1.251 . S
O77 C76 1.261 . S
H78 C72 0.930 . S
H79 C74 0.930 . S
N80 Cu69 1.985 . S
N80 C82 1.335 . S
N80 C83 1.390 . S
N81 C82 1.345 . S
N81 C84 1.336 . S
C82 N80 1.335 . S
C82 N81 1.345 . S
C82 H87 0.930 . S
C83 N80 1.390 . S
C83 C84 1.346 . S
C83 H88 0.930 . S
C84 N81 1.336 . S
C84 C83 1.346 . S
C84 H91 0.929 . S
C85 O75 1.282 . S
C85 O86 1.216 . S
O86 C85 1.216 . S
H87 C82 0.930 . S
H88 C83 0.930 . S
O89 Cu69 1.959 . S
O89 C76 1.251 . S
H90 C73 0.930 . S
H91 C84 0.929 . S
Cu92 N93 1.999 . S
Cu92 O98 1.974 . S
Cu92 N103 1.985 . S
Cu92 O112 1.959 . S
N93 Cu92 1.999 . S
N93 C95 1.263 . S
N93 C97 1.389 . S
N94 C95 1.381 . S
N94 C96 1.416 . S
C95 N93 1.263 . S
C95 N94 1.381 . S
C95 H101 0.930 1_565 S
C96 N94 1.416 . S
C96 C97 1.351 . S
C96 H113 0.930 . S
C97 N93 1.389 . S
C97 C96 1.351 . S
C97 H102 0.930 . S
O98 Cu92 1.974 . S
O98 C108 1.282 1_565 S
C99 O100 1.261 . S
C99 O112 1.251 . S
O100 C99 1.261 . S
H101 C95 0.930 1_545 S
H102 C97 0.930 . S
N103 Cu92 1.985 . S
N103 C105 1.335 . S
N103 C106 1.390 . S
N104 C105 1.345 . S
N104 C107 1.336 . S
C105 N103 1.335 . S
C105 N104 1.345 . S
C105 H110 0.930 . S
C106 N103 1.390 . S
C106 C107 1.346 . S
C106 H111 0.930 . S
C107 N104 1.336 . S
C107 C106 1.346 . S
C107 H114 0.929 . S
C108 O98 1.282 1_545 S
C108 O109 1.216 . S
O109 C108 1.216 . S
H110 C105 0.930 . S
H111 C106 0.930 . S
O112 Cu92 1.959 . S
O112 C99 1.251 . S
H113 C96 0.930 . S
H114 C107 0.929 . S
Cu115 N116 1.999 . S
Cu115 O121 1.974 . S
Cu115 N126 1.985 . S
Cu115 O135 1.959 . S
N116 Cu115 1.999 . S
N116 C118 1.263 . S
N116 C120 1.389 . S
N117 C118 1.358 . S
N117 C119 1.400 . S
C118 N116 1.263 . S
C118 N117 1.358 . S
C118 H124 0.930 . S
C119 N117 1.400 . S
C119 C120 1.351 . S
C119 H136 0.930 . S
C120 N116 1.389 . S
C120 C119 1.351 . S
C120 H125 0.930 . S
O121 Cu115 1.974 . S
O121 C131 1.282 . S
C122 O123 1.261 . S
C122 O135 1.251 . S
O123 C122 1.261 . S
H124 C118 0.930 . S
H125 C120 0.930 . S
N126 Cu115 1.985 . S
N126 C128 1.335 1_455 S
N126 C129 1.390 . S
N127 C128 1.345 . S
N127 C130 1.336 1_655 S
C128 N126 1.335 1_655 S
C128 N127 1.345 . S
C128 H133 0.930 . S
C129 N126 1.390 . S
C129 C130 1.346 . S
C129 H134 0.930 . S
C130 N127 1.336 1_455 S
C130 C129 1.346 . S
C130 H137 0.929 . S
C131 O121 1.282 . S
C131 O132 1.216 . S
O132 C131 1.216 . S
H133 C128 0.930 . S
H134 C129 0.930 . S
O135 Cu115 1.959 . S
O135 C122 1.251 . S
H136 C119 0.930 . S
H137 C130 0.929 . S
Cu138 N139 1.999 . S
Cu138 O144 1.974 . S
Cu138 N149 1.985 . S
Cu138 O158 1.959 . S
N139 Cu138 1.999 . S
N139 C141 1.263 . S
N139 C143 1.389 . S
N140 C141 1.358 . S
N140 C142 1.400 . S
C141 N139 1.263 . S
C141 N140 1.358 . S
C141 H147 0.930 . S
C142 N140 1.400 . S
C142 C143 1.351 . S
C142 H159 0.930 . S
C143 N139 1.389 . S
C143 C142 1.351 . S
C143 H148 0.930 . S
O144 Cu138 1.974 . S
O144 C154 1.282 . S
C145 O146 1.261 . S
C145 O158 1.251 . S
O146 C145 1.261 . S
H147 C141 0.930 . S
H148 C143 0.930 . S
N149 Cu138 1.985 . S
N149 C151 1.335 . S
N149 C152 1.390 . S
N150 C151 1.345 . S
N150 C153 1.336 . S
C151 N149 1.335 . S
C151 N150 1.345 . S
C151 H156 0.930 . S
C152 N149 1.390 . S
C152 C153 1.346 . S
C152 H157 0.930 . S
C153 N150 1.336 . S
C153 C152 1.346 . S
C153 H160 0.929 1_556 S
C154 O144 1.282 . S
C154 O155 1.216 . S
O155 C154 1.216 . S
H156 C151 0.930 . S
H157 C152 0.930 . S
O158 Cu138 1.959 . S
O158 C145 1.251 . S
H159 C142 0.930 . S
H160 C153 0.929 1_554 S
Cu161 N162 1.999 . S
Cu161 O167 1.974 . S
Cu161 N172 1.985 . S
Cu161 O181 1.959 . S
N162 Cu161 1.999 . S
N162 C164 1.263 . S
N162 C166 1.389 . S
N163 C164 1.358 . S
N163 C165 1.400 . S
C164 N162 1.263 . S
C164 N163 1.358 . S
C164 H170 0.930 . S
C165 N163 1.400 . S
C165 C166 1.351 . S
C165 H182 0.930 . S
C166 N162 1.389 . S
C166 C165 1.351 . S
C166 H171 0.930 . S
O167 Cu161 1.974 . S
O167 C177 1.282 . S
C168 O169 1.261 . S
C168 O181 1.251 . S
O169 C168 1.261 . S
H170 C164 0.930 . S
H171 C166 0.930 . S
N172 Cu161 1.985 . S
N172 C174 1.335 1_565 S
N172 C175 1.390 . S
N173 C174 1.345 . S
N173 C176 1.325 1_545 S
C174 N172 1.335 1_545 S
C174 N173 1.345 . S
C174 H179 0.930 . S
C175 N172 1.390 . S
C175 C176 1.379 . S
C175 H180 0.930 . S
C176 N173 1.325 1_565 S
C176 C175 1.379 . S
C176 H183 0.913 1_565 S
C177 O167 1.282 . S
C177 O178 1.216 . S
O178 C177 1.216 . S
H179 C174 0.930 . S
H180 C175 0.930 . S
O181 Cu161 1.959 . S
O181 C168 1.251 . S
H182 C165 0.930 . S
H183 C176 0.913 1_545 S
Cu184 N185 1.999 . S
Cu184 O190 1.974 . S
Cu184 N195 1.985 . S
Cu184 O204 1.959 . S
N185 Cu184 1.999 . S
N185 C187 1.263 . S
N185 C189 1.389 . S
N186 C187 1.358 . S
N186 C188 1.400 . S
C187 N185 1.263 . S
C187 N186 1.358 . S
C187 H193 0.930 . S
C188 N186 1.400 . S
C188 C189 1.351 . S
C188 H205 0.930 . S
C189 N185 1.389 . S
C189 C188 1.351 . S
C189 H194 0.930 . S
O190 Cu184 1.974 . S
O190 C200 1.282 . S
C191 O192 1.261 . S
C191 O204 1.251 . S
O192 C191 1.261 . S
H193 C187 0.930 . S
H194 C189 0.930 . S
N195 Cu184 1.985 . S
N195 C197 1.335 . S
N195 C198 1.390 . S
N196 C197 1.345 1_655 S
N196 C199 1.336 1_655 S
C197 N195 1.335 . S
C197 N196 1.345 1_455 S
C197 H202 0.930 1_455 S
C198 N195 1.390 . S
C198 C199 1.346 . S
C198 H203 0.930 . S
C199 N196 1.336 1_455 S
C199 C198 1.346 . S
C199 H206 0.929 . S
C200 O190 1.282 . S
C200 O201 1.216 . S
O201 C200 1.216 . S
H202 C197 0.930 1_655 S
H203 C198 0.930 . S
O204 Cu184 1.959 . S
O204 C191 1.251 . S
H205 C188 0.930 . S
H206 C199 0.929 . S
Cu207 N208 1.999 . S
Cu207 O213 1.974 . S
Cu207 N218 1.985 . S
Cu207 O227 1.959 . S
N208 Cu207 1.999 . S
N208 C210 1.263 . S
N208 C212 1.389 . S
N209 C210 1.358 . S
N209 C211 1.400 . S
C210 N208 1.263 . S
C210 N209 1.358 . S
C210 H216 0.930 . S
C211 N209 1.400 . S
C211 C212 1.351 . S
C211 H228 0.930 . S
C212 N208 1.389 . S
C212 C211 1.351 . S
C212 H217 0.930 . S
O213 Cu207 1.974 . S
O213 C223 1.282 . S
C214 O215 1.261 . S
C214 O227 1.251 . S
O215 C214 1.261 . S
H216 C210 0.930 . S
H217 C212 0.930 . S
N218 Cu207 1.985 . S
N218 C220 1.335 . S
N218 C221 1.390 . S
N219 C220 1.345 . S
N219 C222 1.336 . S
C220 N218 1.335 . S
C220 N219 1.345 . S
C220 H225 0.930 . S
C221 N218 1.390 . S
C221 C222 1.346 . S
C221 H226 0.930 . S
C222 N219 1.336 . S
C222 C221 1.346 . S
C222 H229 0.929 . S
C223 O213 1.282 . S
C223 O224 1.216 . S
O224 C223 1.216 . S
H225 C220 0.930 . S
H226 C221 0.930 . S
O227 Cu207 1.959 . S
O227 C214 1.251 . S
H228 C211 0.930 . S
H229 C222 0.929 . S
Cu230 N231 1.999 . S
Cu230 O236 1.974 . S
Cu230 N241 1.985 . S
Cu230 O250 1.959 . S
N231 Cu230 1.999 . S
N231 C233 1.263 . S
N231 C235 1.389 . S
N232 C233 1.358 . S
N232 C234 1.400 . S
C233 N231 1.263 . S
C233 N232 1.358 . S
C233 H239 0.930 . S
C234 N232 1.400 . S
C234 C235 1.351 . S
C234 H251 0.930 . S
C235 N231 1.389 . S
C235 C234 1.351 . S
C235 H240 0.930 . S
O236 Cu230 1.974 . S
O236 C246 1.282 . S
C237 O238 1.261 . S
C237 O250 1.251 . S
O238 C237 1.261 . S
H239 C233 0.930 . S
H240 C235 0.930 . S
N241 Cu230 1.985 . S
N241 C243 1.335 1_545 S
N241 C244 1.390 . S
N242 C243 1.345 . S
N242 C245 1.305 1_565 S
C243 N241 1.335 1_565 S
C243 N242 1.345 . S
C243 H248 0.930 . S
C244 N241 1.390 . S
C244 C245 1.373 . S
C244 H249 0.930 . S
C245 N242 1.305 1_545 S
C245 C244 1.373 . S
C245 H252 0.935 1_545 S
C246 O236 1.282 . S
C246 O247 1.216 . S
O247 C246 1.216 . S
H248 C243 0.930 . S
H249 C244 0.930 . S
O250 Cu230 1.959 . S
O250 C237 1.251 . S
H251 C234 0.930 . S
H252 C245 0.935 1_565 S
Cu253 N254 1.999 . S
Cu253 O259 1.974 . S
Cu253 N264 1.985 . S
Cu253 O273 1.959 . S
N254 Cu253 1.999 . S
N254 C256 1.263 . S
N254 C258 1.389 . S
N255 C256 1.358 . S
N255 C257 1.400 . S
C256 N254 1.263 . S
C256 N255 1.358 . S
C256 H262 0.930 . S
C257 N255 1.400 . S
C257 C258 1.351 . S
C257 H274 0.930 . S
C258 N254 1.389 . S
C258 C257 1.351 . S
C258 H263 0.930 . S
O259 Cu253 1.974 . S
O259 C269 1.282 . S
C260 O261 1.261 . S
C260 O273 1.251 . S
O261 C260 1.261 . S
H262 C256 0.930 . S
H263 C258 0.930 . S
N264 Cu253 1.985 . S
N264 C266 1.335 . S
N264 C267 1.390 . S
N265 C266 1.345 1_455 S
N265 C268 1.336 1_455 S
C266 N264 1.335 . S
C266 N265 1.345 1_655 S
C266 H271 0.930 1_655 S
C267 N264 1.390 . S
C267 C268 1.346 . S
C267 H272 0.930 . S
C268 N265 1.336 1_655 S
C268 C267 1.346 . S
C268 H275 0.929 . S
C269 O259 1.282 . S
C269 O270 1.216 . S
O270 C269 1.216 . S
H271 C266 0.930 1_455 S
H272 C267 0.930 . S
O273 Cu253 1.959 . S
O273 C260 1.251 . S
H274 C257 0.930 . S
H275 C268 0.929 . S
Cu276 N277 1.999 . S
Cu276 O282 1.974 . S
Cu276 N287 1.985 . S
Cu276 O296 1.959 . S
N277 Cu276 1.999 . S
N277 C279 1.263 . S
N277 C281 1.389 . S
N278 C279 1.358 . S
N278 C280 1.400 . S
C279 N277 1.263 . S
C279 N278 1.358 . S
C279 H285 0.930 . S
C280 N278 1.400 . S
C280 C281 1.351 . S
C280 H297 0.930 . S
C281 N277 1.389 . S
C281 C280 1.351 . S
C281 H286 0.930 . S
O282 Cu276 1.974 . S
O282 C292 1.282 . S
C283 O284 1.261 . S
C283 O296 1.251 . S
O284 C283 1.261 . S
H285 C279 0.930 . S
H286 C281 0.930 . S
N287 Cu276 1.985 . S
N287 C289 1.335 . S
N287 C290 1.390 . S
N288 C289 1.345 . S
N288 C291 1.336 . S
C289 N287 1.335 . S
C289 N288 1.345 . S
C289 H294 0.930 . S
C290 N287 1.390 . S
C290 C291 1.346 . S
C290 H295 0.930 . S
C291 N288 1.336 . S
C291 C290 1.346 . S
C291 H298 0.929 . S
C292 O282 1.282 . S
C292 O293 1.216 . S
O293 C292 1.216 . S
H294 C289 0.930 . S
H295 C290 0.930 . S
O296 Cu276 1.959 . S
O296 C283 1.251 . S
H297 C280 0.930 . S
H298 C291 0.929 . S
Cu299 N300 1.999 . S
Cu299 O305 1.974 . S
Cu299 N310 1.985 . S
Cu299 O319 1.959 . S
N300 Cu299 1.999 . S
N300 C302 1.263 . S
N300 C304 1.389 . S
N301 C302 1.358 . S
N301 C303 1.400 . S
C302 N300 1.263 . S
C302 N301 1.358 . S
C302 H308 0.930 . S
C303 N301 1.400 . S
C303 C304 1.351 . S
C303 H320 0.930 . S
C304 N300 1.389 . S
C304 C303 1.351 . S
C304 H309 0.930 . S
O305 Cu299 1.974 . S
O305 C315 1.282 . S
C306 O307 1.261 . S
C306 O319 1.251 . S
O307 C306 1.261 . S
H308 C302 0.930 . S
H309 C304 0.930 . S
N310 Cu299 1.985 . S
N310 C312 1.335 . S
N310 C313 1.390 . S
N311 C312 1.345 . S
N311 C314 1.336 . S
C312 N310 1.335 . S
C312 N311 1.345 . S
C312 H317 0.930 . S
C313 N310 1.390 . S
C313 C314 1.346 . S
C313 H318 0.930 . S
C314 N311 1.336 . S
C314 C313 1.346 . S
C314 H321 0.929 . S
C315 O305 1.282 . S
C315 O316 1.216 . S
O316 C315 1.216 . S
H317 C312 0.930 . S
H318 C313 0.930 . S
O319 Cu299 1.959 . S
O319 C306 1.251 . S
H320 C303 0.930 . S
H321 C314 0.929 . S
Cu322 N323 1.999 . S
Cu322 O328 1.974 . S
Cu322 N333 1.985 . S
Cu322 O342 1.959 . S
N323 Cu322 1.999 . S
N323 C325 1.263 . S
N323 C327 1.389 . S
N324 C325 1.358 . S
N324 C326 1.400 . S
C325 N323 1.263 . S
C325 N324 1.358 . S
C325 H331 0.930 . S
C326 N324 1.400 . S
C326 C327 1.351 . S
C326 H343 0.930 . S
C327 N323 1.389 . S
C327 C326 1.351 . S
C327 H332 0.930 . S
O328 Cu322 1.974 . S
O328 C338 1.282 . S
C329 O330 1.261 . S
C329 O342 1.251 . S
O330 C329 1.261 . S
H331 C325 0.930 . S
H332 C327 0.930 . S
N333 Cu322 1.985 . S
N333 C335 1.335 . S
N333 C336 1.390 . S
N334 C335 1.345 . S
N334 C337 1.336 . S
C335 N333 1.335 . S
C335 N334 1.345 . S
C335 H340 0.930 . S
C336 N333 1.390 . S
C336 C337 1.346 . S
C336 H341 0.930 . S
C337 N334 1.336 . S
C337 C336 1.346 . S
C337 H344 0.929 . S
C338 O328 1.282 . S
C338 O339 1.216 . S
O339 C338 1.216 . S
H340 C335 0.930 . S
H341 C336 0.930 . S
O342 Cu322 1.959 . S
O342 C329 1.251 . S
H343 C326 0.930 . S
H344 C337 0.929 . S
Cu345 N346 1.999 . S
Cu345 O351 1.974 . S
Cu345 N356 1.985 . S
Cu345 O365 1.959 . S
N346 Cu345 1.999 . S
N346 C348 1.263 . S
N346 C350 1.389 . S
N347 C348 1.358 . S
N347 C349 1.400 . S
C348 N346 1.263 . S
C348 N347 1.358 . S
C348 H354 0.930 . S
C349 N347 1.400 . S
C349 C350 1.351 . S
C349 H366 0.930 . S
C350 N346 1.389 . S
C350 C349 1.351 . S
C350 H355 0.930 . S
O351 Cu345 1.974 . S
O351 C361 1.282 . S
C352 O353 1.261 . S
C352 O365 1.251 . S
O353 C352 1.261 . S
H354 C348 0.930 . S
H355 C350 0.930 . S
N356 Cu345 1.985 . S
N356 C358 1.335 . S
N356 C359 1.390 . S
N357 C358 1.345 . S
N357 C360 1.336 . S
C358 N356 1.335 . S
C358 N357 1.345 . S
C358 H363 0.930 . S
C359 N356 1.390 . S
C359 C360 1.346 . S
C359 H364 0.930 . S
C360 N357 1.336 . S
C360 C359 1.346 . S
C360 H367 0.929 . S
C361 O351 1.282 . S
C361 O362 1.216 . S
O362 C361 1.216 . S
H363 C358 0.930 . S
H364 C359 0.930 . S
O365 Cu345 1.959 . S
O365 C352 1.251 . S
H366 C349 0.930 . S
H367 C360 0.929 . S
Cu368 N369 1.999 . S
Cu368 O374 1.974 . S
Cu368 N379 1.985 . S
Cu368 O388 1.959 . S
N369 Cu368 1.999 . S
N369 C371 1.263 . S
N369 C373 1.389 . S
N370 C371 1.358 . S
N370 C372 1.400 . S
C371 N369 1.263 . S
C371 N370 1.358 . S
C371 H377 0.930 . S
C372 N370 1.400 . S
C372 C373 1.351 . S
C372 H389 0.930 . S
C373 N369 1.389 . S
C373 C372 1.351 . S
C373 H378 0.930 . S
O374 Cu368 1.974 . S
O374 C384 1.282 . S
C375 O376 1.261 . S
C375 O388 1.251 . S
O376 C375 1.261 . S
H377 C371 0.930 . S
H378 C373 0.930 . S
N379 Cu368 1.985 . S
N379 C381 1.335 . S
N379 C382 1.390 . S
N380 C381 1.345 . S
N380 C383 1.336 . S
C381 N379 1.335 . S
C381 N380 1.345 . S
C381 H386 0.930 . S
C382 N379 1.390 . S
C382 C383 1.346 . S
C382 H387 0.930 . S
C383 N380 1.336 . S
C383 C382 1.346 . S
C383 H390 0.929 . S
C384 O374 1.282 . S
C384 O385 1.216 . S
O385 C384 1.216 . S
H386 C381 0.930 . S
H387 C382 0.930 . S
O388 Cu368 1.959 . S
O388 C375 1.251 . S
H389 C372 0.930 . S
H390 C383 0.929 . S
Cu391 N392 1.999 . S
Cu391 O397 1.974 . S
Cu391 N402 1.985 . S
Cu391 O411 1.959 . S
N392 Cu391 1.999 . S
N392 C394 1.263 . S
N392 C396 1.389 . S
N393 C394 1.358 . S
N393 C395 1.400 . S
C394 N392 1.263 . S
C394 N393 1.358 . S
C394 H400 0.930 . S
C395 N393 1.400 . S
C395 C396 1.351 . S
C395 H412 0.930 . S
C396 N392 1.389 . S
C396 C395 1.351 . S
C396 H401 0.930 . S
O397 Cu391 1.974 . S
O397 C407 1.282 . S
C398 O399 1.261 . S
C398 O411 1.251 . S
O399 C398 1.261 . S
H400 C394 0.930 . S
H401 C396 0.930 . S
N402 Cu391 1.985 . S
N402 C404 1.335 . S
N402 C405 1.390 . S
N403 C404 1.345 . S
N403 C406 1.336 . S
C404 N402 1.335 . S
C404 N403 1.345 . S
C404 H409 0.930 . S
C405 N402 1.390 . S
C405 C406 1.346 . S
C405 H410 0.930 . S
C406 N403 1.336 . S
C406 C405 1.346 . S
C406 H413 0.929 . S
C407 O397 1.282 . S
C407 O408 1.216 . S
O408 C407 1.216 . S
H409 C404 0.930 . S
H410 C405 0.930 . S
O411 Cu391 1.959 . S
O411 C398 1.251 . S
H412 C395 0.930 . S
H413 C406 0.929 . S
Cu414 N415 1.999 . S
Cu414 O420 1.974 . S
Cu414 N425 1.985 . S
Cu414 O434 1.959 . S
N415 Cu414 1.999 . S
N415 C417 1.263 . S
N415 C419 1.389 . S
N416 C417 1.358 . S
N416 C418 1.400 . S
C417 N415 1.263 . S
C417 N416 1.358 . S
C417 H423 0.930 . S
C418 N416 1.400 . S
C418 C419 1.351 . S
C418 H435 0.930 . S
C419 N415 1.389 . S
C419 C418 1.351 . S
C419 H424 0.930 . S
O420 Cu414 1.974 . S
O420 C430 1.282 . S
C421 O422 1.261 . S
C421 O434 1.251 . S
O422 C421 1.261 . S
H423 C417 0.930 . S
H424 C419 0.930 . S
N425 Cu414 1.985 . S
N425 C427 1.335 . S
N425 C428 1.390 . S
N426 C427 1.345 . S
N426 C429 1.336 . S
C427 N425 1.335 . S
C427 N426 1.345 . S
C427 H432 0.930 . S
C428 N425 1.390 . S
C428 C429 1.346 . S
C428 H433 0.930 . S
C429 N426 1.336 . S
C429 C428 1.346 . S
C429 H436 0.929 . S
C430 O420 1.282 . S
C430 O431 1.216 . S
O431 C430 1.216 . S
H432 C427 0.930 . S
H433 C428 0.930 . S
O434 Cu414 1.959 . S
O434 C421 1.251 . S
H435 C418 0.930 . S
H436 C429 0.929 . S
Cu437 N438 1.999 . S
Cu437 O443 1.974 . S
Cu437 N448 1.985 . S
Cu437 O457 1.959 . S
N438 Cu437 1.999 . S
N438 C440 1.263 . S
N438 C442 1.389 . S
N439 C440 1.358 . S
N439 C441 1.400 . S
C440 N438 1.263 . S
C440 N439 1.358 . S
C440 H446 0.930 . S
C441 N439 1.400 . S
C441 C442 1.351 . S
C441 H458 0.930 . S
C442 N438 1.389 . S
C442 C441 1.351 . S
C442 H447 0.930 . S
O443 Cu437 1.974 . S
O443 C453 1.282 . S
C444 O445 1.261 . S
C444 O457 1.251 . S
O445 C444 1.261 . S
H446 C440 0.930 . S
H447 C442 0.930 . S
N448 Cu437 1.985 . S
N448 C450 1.335 . S
N448 C451 1.390 . S
N449 C450 1.345 . S
N449 C452 1.336 . S
C450 N448 1.335 . S
C450 N449 1.345 . S
C450 H455 0.930 . S
C451 N448 1.390 . S
C451 C452 1.346 . S
C451 H456 0.930 . S
C452 N449 1.336 . S
C452 C451 1.346 . S
C452 H459 0.929 . S
C453 O443 1.282 . S
C453 O454 1.216 . S
O454 C453 1.216 . S
H455 C450 0.930 . S
H456 C451 0.930 . S
O457 Cu437 1.959 . S
O457 C444 1.251 . S
H458 C441 0.930 . S
H459 C452 0.929 . S
Cu460 N461 1.999 . S
Cu460 O466 1.974 . S
Cu460 N471 1.985 . S
Cu460 O480 1.959 . S
N461 Cu460 1.999 . S
N461 C463 1.263 . S
N461 C465 1.389 . S
N462 C463 1.358 . S
N462 C464 1.400 . S
C463 N461 1.263 . S
C463 N462 1.358 . S
C463 H469 0.930 . S
C464 N462 1.400 . S
C464 C465 1.351 . S
C464 H481 0.930 . S
C465 N461 1.389 . S
C465 C464 1.351 . S
C465 H470 0.930 . S
O466 Cu460 1.974 . S
O466 C476 1.282 . S
C467 O468 1.261 . S
C467 O480 1.251 . S
O468 C467 1.261 . S
H469 C463 0.930 . S
H470 C465 0.930 . S
N471 Cu460 1.985 . S
N471 C473 1.335 . S
N471 C474 1.390 . S
N472 C473 1.345 . S
N472 C475 1.336 . S
C473 N471 1.335 . S
C473 N472 1.345 . S
C473 H478 0.930 . S
C474 N471 1.390 . S
C474 C475 1.346 . S
C474 H479 0.930 . S
C475 N472 1.336 . S
C475 C474 1.346 . S
C475 H482 0.929 . S
C476 O466 1.282 . S
C476 O477 1.216 . S
O477 C476 1.216 . S
H478 C473 0.930 . S
H479 C474 0.930 . S
O480 Cu460 1.959 . S
O480 C467 1.251 . S
H481 C464 0.930 . S
H482 C475 0.929 . S
Cu483 N484 1.999 . S
Cu483 O489 1.974 . S
Cu483 N494 1.985 . S
Cu483 O503 1.959 . S
N484 Cu483 1.999 . S
N484 C486 1.263 . S
N484 C488 1.389 . S
N485 C486 1.358 . S
N485 C487 1.400 . S
C486 N484 1.263 . S
C486 N485 1.358 . S
C486 H492 0.930 . S
C487 N485 1.400 . S
C487 C488 1.351 . S
C487 H504 0.930 . S
C488 N484 1.389 . S
C488 C487 1.351 . S
C488 H493 0.930 . S
O489 Cu483 1.974 . S
O489 C499 1.282 . S
C490 O491 1.261 . S
C490 O503 1.251 . S
O491 C490 1.261 . S
H492 C486 0.930 . S
H493 C488 0.930 . S
N494 Cu483 1.985 . S
N494 C496 1.335 . S
N494 C497 1.390 . S
N495 C496 1.345 . S
N495 C498 1.336 . S
C496 N494 1.335 . S
C496 N495 1.345 . S
C496 H501 0.930 . S
C497 N494 1.390 . S
C497 C498 1.346 . S
C497 H502 0.930 . S
C498 N495 1.336 . S
C498 C497 1.346 . S
C498 H505 0.929 . S
C499 O489 1.282 . S
C499 O500 1.216 . S
O500 C499 1.216 . S
H501 C496 0.930 . S
H502 C497 0.930 . S
O503 Cu483 1.959 . S
O503 C490 1.251 . S
H504 C487 0.930 . S
H505 C498 0.929 . S
Cu506 N507 1.999 . S
Cu506 O512 1.974 . S
Cu506 N517 1.985 . S
Cu506 O526 1.959 . S
N507 Cu506 1.999 . S
N507 C509 1.263 . S
N507 C511 1.389 . S
N508 C509 1.358 . S
N508 C510 1.400 . S
C509 N507 1.263 . S
C509 N508 1.358 . S
C509 H515 0.930 . S
C510 N508 1.400 . S
C510 C511 1.351 . S
C510 H527 0.930 1_556 S
C511 N507 1.389 . S
C511 C510 1.351 . S
C511 H516 0.930 . S
O512 Cu506 1.974 . S
O512 C522 1.282 . S
C513 O514 1.261 . S
C513 O526 1.251 . S
O514 C513 1.261 . S
H515 C509 0.930 . S
H516 C511 0.930 . S
N517 Cu506 1.985 . S
N517 C519 1.335 . S
N517 C520 1.390 . S
N518 C519 1.345 . S
N518 C521 1.336 . S
C519 N517 1.335 . S
C519 N518 1.345 . S
C519 H524 0.930 . S
C520 N517 1.390 . S
C520 C521 1.346 . S
C520 H525 0.930 . S
C521 N518 1.336 . S
C521 C520 1.346 . S
C521 H528 0.929 . S
C522 O512 1.282 . S
C522 O523 1.216 . S
O523 C522 1.216 . S
H524 C519 0.930 . S
H525 C520 0.930 . S
O526 Cu506 1.959 . S
O526 C513 1.251 . S
H527 C510 0.930 1_554 S
H528 C521 0.929 . S
Cu529 N530 1.999 . S
Cu529 O535 1.974 . S
Cu529 N540 1.985 . S
Cu529 O549 1.959 . S
N530 Cu529 1.999 . S
N530 C532 1.263 . S
N530 C534 1.389 . S
N531 C532 1.358 . S
N531 C533 1.400 . S
C532 N530 1.263 . S
C532 N531 1.358 . S
C532 H538 0.930 . S
C533 N531 1.400 . S
C533 C534 1.351 . S
C533 H550 0.930 . S
C534 N530 1.389 . S
C534 C533 1.351 . S
C534 H539 0.930 . S
O535 Cu529 1.974 . S
O535 C545 1.282 . S
C536 O537 1.261 . S
C536 O549 1.251 . S
O537 C536 1.261 . S
H538 C532 0.930 . S
H539 C534 0.930 . S
N540 Cu529 1.985 . S
N540 C542 1.335 . S
N540 C543 1.390 . S
N541 C542 1.345 . S
N541 C544 1.336 . S
C542 N540 1.335 . S
C542 N541 1.345 . S
C542 H547 0.930 . S
C543 N540 1.390 . S
C543 C544 1.346 . S
C543 H548 0.930 . S
C544 N541 1.336 . S
C544 C543 1.346 . S
C544 H551 0.929 . S
C545 O535 1.282 . S
C545 O546 1.216 . S
O546 C545 1.216 . S
H547 C542 0.930 . S
H548 C543 0.930 . S
O549 Cu529 1.959 . S
O549 C536 1.251 . S
H550 C533 0.930 . S
H551 C544 0.929 . S
Cu552 N553 1.999 . S
Cu552 O558 1.974 . S
Cu552 N563 1.985 . S
Cu552 O572 1.959 . S
N553 Cu552 1.999 . S
N553 C555 1.263 . S
N553 C557 1.389 . S
N554 C555 1.358 . S
N554 C556 1.400 . S
C555 N553 1.263 . S
C555 N554 1.358 . S
C555 H561 0.930 . S
C556 N554 1.400 . S
C556 C557 1.351 . S
C556 H573 0.930 . S
C557 N553 1.389 . S
C557 C556 1.351 . S
C557 H562 0.930 . S
O558 Cu552 1.974 . S
O558 C568 1.282 . S
C559 O560 1.261 . S
C559 O572 1.251 . S
O560 C559 1.261 . S
H561 C555 0.930 . S
H562 C557 0.930 . S
N563 Cu552 1.985 . S
N563 C565 1.335 . S
N563 C566 1.390 . S
N564 C565 1.345 . S
N564 C567 1.336 . S
C565 N563 1.335 . S
C565 N564 1.345 . S
C565 H570 0.930 . S
C566 N563 1.390 . S
C566 C567 1.346 . S
C566 H571 0.930 . S
C567 N564 1.336 . S
C567 C566 1.346 . S
C567 H574 0.929 . S
C568 O558 1.282 . S
C568 O569 1.216 . S
O569 C568 1.216 . S
H570 C565 0.930 . S
H571 C566 0.930 . S
O572 Cu552 1.959 . S
O572 C559 1.251 . S
H573 C556 0.930 . S
H574 C567 0.929 . S
Cu575 N576 1.999 . S
Cu575 O581 1.974 . S
Cu575 N586 1.985 . S
Cu575 O595 1.959 . S
N576 Cu575 1.999 . S
N576 C578 1.263 . S
N576 C580 1.389 . S
N577 C578 1.358 . S
N577 C579 1.400 . S
C578 N576 1.263 . S
C578 N577 1.358 . S
C578 H584 0.930 . S
C579 N577 1.400 . S
C579 C580 1.351 . S
C579 H596 0.930 . S
C580 N576 1.389 . S
C580 C579 1.351 . S
C580 H585 0.930 . S
O581 Cu575 1.974 . S
O581 C591 1.282 . S
C582 O583 1.261 . S
C582 O595 1.251 . S
O583 C582 1.261 . S
H584 C578 0.930 . S
H585 C580 0.930 . S
N586 Cu575 1.985 . S
N586 C588 1.335 . S
N586 C589 1.390 . S
N587 C588 1.345 . S
N587 C590 1.336 . S
C588 N586 1.335 . S
C588 N587 1.345 . S
C588 H593 0.930 . S
C589 N586 1.390 . S
C589 C590 1.346 . S
C589 H594 0.930 . S
C590 N587 1.336 . S
C590 C589 1.346 . S
C590 H597 0.929 . S
C591 O581 1.282 . S
C591 O592 1.216 . S
O592 C591 1.216 . S
H593 C588 0.930 . S
H594 C589 0.930 . S
O595 Cu575 1.959 . S
O595 C582 1.251 . S
H596 C579 0.930 . S
H597 C590 0.929 . S
Cu598 N599 1.999 . S
Cu598 O604 1.974 . S
Cu598 N609 1.985 . S
Cu598 O618 1.959 . S
N599 Cu598 1.999 . S
N599 C601 1.263 . S
N599 C603 1.389 . S
N600 C601 1.358 . S
N600 C602 1.400 . S
C601 N599 1.263 . S
C601 N600 1.358 . S
C601 H607 0.930 . S
C602 N600 1.400 . S
C602 C603 1.351 . S
C602 H619 0.930 . S
C603 N599 1.389 . S
C603 C602 1.351 . S
C603 H608 0.930 . S
O604 Cu598 1.974 . S
O604 C614 1.282 . S
C605 O606 1.261 . S
C605 O618 1.251 . S
O606 C605 1.261 . S
H607 C601 0.930 . S
H608 C603 0.930 . S
N609 Cu598 1.985 . S
N609 C611 1.335 . S
N609 C612 1.390 . S
N610 C611 1.345 . S
N610 C613 1.336 . S
C611 N609 1.335 . S
C611 N610 1.345 . S
C611 H616 0.930 . S
C612 N609 1.390 . S
C612 C613 1.346 . S
C612 H617 0.930 . S
C613 N610 1.336 . S
C613 C612 1.346 . S
C613 H620 0.929 . S
C614 O604 1.282 . S
C614 O615 1.216 . S
O615 C614 1.216 . S
H616 C611 0.930 . S
H617 C612 0.930 . S
O618 Cu598 1.959 . S
O618 C605 1.251 . S
H619 C602 0.930 . S
H620 C613 0.929 . S
Cu621 N622 1.999 . S
Cu621 O627 1.974 . S
Cu621 N632 1.985 . S
Cu621 O641 1.959 . S
N622 Cu621 1.999 . S
N622 C624 1.263 . S
N622 C626 1.389 . S
N623 C624 1.358 . S
N623 C625 1.400 . S
C624 N622 1.263 . S
C624 N623 1.358 . S
C624 H630 0.930 . S
C625 N623 1.400 . S
C625 C626 1.351 . S
C625 H642 0.930 . S
C626 N622 1.389 . S
C626 C625 1.351 . S
C626 H631 0.930 . S
O627 Cu621 1.974 . S
O627 C637 1.282 . S
C628 O629 1.261 . S
C628 O641 1.251 . S
O629 C628 1.261 . S
H630 C624 0.930 . S
H631 C626 0.930 . S
N632 Cu621 1.985 . S
N632 C634 1.335 . S
N632 C635 1.390 . S
N633 C634 1.345 . S
N633 C636 1.336 . S
C634 N632 1.335 . S
C634 N633 1.345 . S
C634 H639 0.930 . S
C635 N632 1.390 . S
C635 C636 1.346 . S
C635 H640 0.930 . S
C636 N633 1.336 . S
C636 C635 1.346 . S
C636 H643 0.929 . S
C637 O627 1.282 . S
C637 O638 1.216 . S
O638 C637 1.216 . S
H639 C634 0.930 . S
H640 C635 0.930 . S
O641 Cu621 1.959 . S
O641 C628 1.251 . S
H642 C625 0.930 . S
H643 C636 0.929 . S
Cu644 N645 1.999 . S
Cu644 O650 1.974 . S
Cu644 N655 1.985 . S
Cu644 O664 1.959 . S
N645 Cu644 1.999 . S
N645 C647 1.263 . S
N645 C649 1.389 . S
N646 C647 1.358 . S
N646 C648 1.400 . S
C647 N645 1.263 . S
C647 N646 1.358 . S
C647 H653 0.930 . S
C648 N646 1.400 . S
C648 C649 1.351 . S
C648 H665 0.930 . S
C649 N645 1.389 . S
C649 C648 1.351 . S
C649 H654 0.930 . S
O650 Cu644 1.974 . S
O650 C660 1.282 . S
C651 O652 1.261 . S
C651 O664 1.251 . S
O652 C651 1.261 . S
H653 C647 0.930 . S
H654 C649 0.930 . S
N655 Cu644 1.985 . S
N655 C657 1.335 . S
N655 C658 1.390 . S
N656 C657 1.345 . S
N656 C659 1.336 . S
C657 N655 1.335 . S
C657 N656 1.345 . S
C657 H662 0.930 . S
C658 N655 1.390 . S
C658 C659 1.346 . S
C658 H663 0.930 . S
C659 N656 1.336 . S
C659 C658 1.346 . S
C659 H666 0.929 . S
C660 O650 1.282 . S
C660 O661 1.216 . S
O661 C660 1.216 . S
H662 C657 0.930 . S
H663 C658 0.930 . S
O664 Cu644 1.959 . S
O664 C651 1.251 . S
H665 C648 0.930 . S
H666 C659 0.929 . S
Cu667 N668 1.999 . S
Cu667 O673 1.974 . S
Cu667 N678 1.985 . S
Cu667 O687 1.959 . S
N668 Cu667 1.999 . S
N668 C670 1.263 . S
N668 C672 1.389 . S
N669 C670 1.358 . S
N669 C671 1.400 . S
C670 N668 1.263 . S
C670 N669 1.358 . S
C670 H676 0.930 . S
C671 N669 1.400 . S
C671 C672 1.351 . S
C671 H688 0.930 . S
C672 N668 1.389 . S
C672 C671 1.351 . S
C672 H677 0.930 . S
O673 Cu667 1.974 . S
O673 C683 1.282 . S
C674 O675 1.261 . S
C674 O687 1.251 . S
O675 C674 1.261 . S
H676 C670 0.930 . S
H677 C672 0.930 . S
N678 Cu667 1.985 . S
N678 C680 1.335 . S
N678 C681 1.390 . S
N679 C680 1.345 . S
N679 C682 1.336 . S
C680 N678 1.335 . S
C680 N679 1.345 . S
C680 H685 0.930 . S
C681 N678 1.390 . S
C681 C682 1.346 . S
C681 H686 0.930 . S
C682 N679 1.336 . S
C682 C681 1.346 . S
C682 H689 0.929 . S
C683 O673 1.282 . S
C683 O684 1.216 . S
O684 C683 1.216 . S
H685 C680 0.930 . S
H686 C681 0.930 . S
O687 Cu667 1.959 . S
O687 C674 1.251 . S
H688 C671 0.930 . S
H689 C682 0.929 . S
Cu690 N691 1.999 . S
Cu690 O696 1.974 . S
Cu690 N701 1.985 . S
Cu690 O710 1.959 . S
N691 Cu690 1.999 . S
N691 C693 1.263 . S
N691 C695 1.389 . S
N692 C693 1.358 . S
N692 C694 1.400 . S
C693 N691 1.263 . S
C693 N692 1.358 . S
C693 H699 0.930 . S
C694 N692 1.400 . S
C694 C695 1.351 . S
C694 H711 0.930 . S
C695 N691 1.389 . S
C695 C694 1.351 . S
C695 H700 0.930 . S
O696 Cu690 1.974 . S
O696 C706 1.282 . S
C697 O698 1.261 . S
C697 O710 1.251 . S
O698 C697 1.261 . S
H699 C693 0.930 . S
H700 C695 0.930 . S
N701 Cu690 1.985 . S
N701 C703 1.335 . S
N701 C704 1.390 . S
N702 C703 1.345 . S
N702 C705 1.336 . S
C703 N701 1.335 . S
C703 N702 1.345 . S
C703 H708 0.930 . S
C704 N701 1.390 . S
C704 C705 1.346 . S
C704 H709 0.930 . S
C705 N702 1.336 . S
C705 C704 1.346 . S
C705 H712 0.929 . S
C706 O696 1.282 . S
C706 O707 1.216 . S
O707 C706 1.216 . S
H708 C703 0.930 . S
H709 C704 0.930 . S
O710 Cu690 1.959 . S
O710 C697 1.251 . S
H711 C694 0.930 . S
H712 C705 0.929 . S
Cu713 N714 1.999 . S
Cu713 O719 1.974 . S
Cu713 N724 1.985 . S
Cu713 O733 1.959 . S
N714 Cu713 1.999 . S
N714 C716 1.263 . S
N714 C718 1.389 . S
N715 C716 1.358 . S
N715 C717 1.400 . S
C716 N714 1.263 . S
C716 N715 1.358 . S
C716 H722 0.930 . S
C717 N715 1.400 . S
C717 C718 1.351 . S
C717 H734 0.930 . S
C718 N714 1.389 . S
C718 C717 1.351 . S
C718 H723 0.930 . S
O719 Cu713 1.974 . S
O719 C729 1.282 . S
C720 O721 1.261 . S
C720 O733 1.251 . S
O721 C720 1.261 . S
H722 C716 0.930 . S
H723 C718 0.930 . S
N724 Cu713 1.985 . S
N724 C726 1.335 . S
N724 C727 1.390 . S
N725 C726 1.345 . S
N725 C728 1.336 . S
C726 N724 1.335 . S
C726 N725 1.345 . S
C726 H731 0.930 . S
C727 N724 1.390 . S
C727 C728 1.346 . S
C727 H732 0.930 . S
C728 N725 1.336 . S
C728 C727 1.346 . S
C728 H735 0.929 . S
C729 O719 1.282 . S
C729 O730 1.216 . S
O730 C729 1.216 . S
H731 C726 0.930 . S
H732 C727 0.930 . S
O733 Cu713 1.959 . S
O733 C720 1.251 . S
H734 C717 0.930 . S
H735 C728 0.929 . S
Cu736 N737 1.999 . S
Cu736 O742 1.974 . S
Cu736 N747 1.985 . S
Cu736 O756 1.959 . S
N737 Cu736 1.999 . S
N737 C739 1.263 . S
N737 C741 1.389 . S
N738 C739 1.358 . S
N738 C740 1.400 . S
C739 N737 1.263 . S
C739 N738 1.358 . S
C739 H745 0.930 . S
C740 N738 1.400 . S
C740 C741 1.351 . S
C740 H757 0.930 . S
C741 N737 1.389 . S
C741 C740 1.351 . S
C741 H746 0.930 . S
O742 Cu736 1.974 . S
O742 C752 1.282 . S
C743 O744 1.261 . S
C743 O756 1.251 . S
O744 C743 1.261 . S
H745 C739 0.930 . S
H746 C741 0.930 . S
N747 Cu736 1.985 . S
N747 C749 1.335 . S
N747 C750 1.390 . S
N748 C749 1.345 . S
N748 C751 1.336 . S
C749 N747 1.335 . S
C749 N748 1.345 . S
C749 H754 0.930 . S
C750 N747 1.390 . S
C750 C751 1.346 . S
C750 H755 0.930 . S
C751 N748 1.336 . S
C751 C750 1.346 . S
C751 H758 0.929 . S
C752 O742 1.282 . S
C752 O753 1.216 . S
O753 C752 1.216 . S
H754 C749 0.930 . S
H755 C750 0.930 . S
O756 Cu736 1.959 . S
O756 C743 1.251 . S
H757 C740 0.930 . S
H758 C751 0.929 . S
Cu759 N760 1.999 . S
Cu759 O765 1.974 . S
Cu759 N770 1.985 . S
Cu759 O779 1.959 . S
N760 Cu759 1.999 . S
N760 C762 1.263 . S
N760 C764 1.389 . S
N761 C762 1.358 . S
N761 C763 1.400 . S
C762 N760 1.263 . S
C762 N761 1.358 . S
C762 H768 0.930 . S
C763 N761 1.400 . S
C763 C764 1.351 . S
C763 H780 0.930 . S
C764 N760 1.389 . S
C764 C763 1.351 . S
C764 H769 0.930 . S
O765 Cu759 1.974 . S
O765 C775 1.282 . S
C766 O767 1.261 . S
C766 O779 1.251 . S
O767 C766 1.261 . S
H768 C762 0.930 . S
H769 C764 0.930 . S
N770 Cu759 1.985 . S
N770 C772 1.335 . S
N770 C773 1.390 . S
N771 C772 1.345 . S
N771 C774 1.336 . S
C772 N770 1.335 . S
C772 N771 1.345 . S
C772 H777 0.930 . S
C773 N770 1.390 . S
C773 C774 1.346 . S
C773 H778 0.930 . S
C774 N771 1.336 . S
C774 C773 1.346 . S
C774 H781 0.929 . S
C775 O765 1.282 . S
C775 O776 1.216 . S
O776 C775 1.216 . S
H777 C772 0.930 . S
H778 C773 0.930 . S
O779 Cu759 1.959 . S
O779 C766 1.251 . S
H780 C763 0.930 . S
H781 C774 0.929 . S
Cu782 N783 1.999 . S
Cu782 O788 1.974 . S
Cu782 N793 1.985 . S
Cu782 O802 1.959 . S
N783 Cu782 1.999 . S
N783 C785 1.263 . S
N783 C787 1.389 . S
N784 C785 1.358 . S
N784 C786 1.400 . S
C785 N783 1.263 . S
C785 N784 1.358 . S
C785 H791 0.930 . S
C786 N784 1.400 . S
C786 C787 1.351 . S
C786 H803 0.930 . S
C787 N783 1.389 . S
C787 C786 1.351 . S
C787 H792 0.930 . S
O788 Cu782 1.974 . S
O788 C798 1.282 . S
C789 O790 1.261 . S
C789 O802 1.251 . S
O790 C789 1.261 . S
H791 C785 0.930 . S
H792 C787 0.930 . S
N793 Cu782 1.985 . S
N793 C795 1.335 . S
N793 C796 1.390 . S
N794 C795 1.345 . S
N794 C797 1.336 . S
C795 N793 1.335 . S
C795 N794 1.345 . S
C795 H800 0.930 . S
C796 N793 1.390 . S
C796 C797 1.346 . S
C796 H801 0.930 . S
C797 N794 1.336 . S
C797 C796 1.346 . S
C797 H804 0.929 . S
C798 O788 1.282 . S
C798 O799 1.216 . S
O799 C798 1.216 . S
H800 C795 0.930 . S
H801 C796 0.930 . S
O802 Cu782 1.959 . S
O802 C789 1.251 . S
H803 C786 0.930 . S
H804 C797 0.929 . S
Cu805 N806 1.999 . S
Cu805 O811 1.974 . S
Cu805 N816 1.985 . S
Cu805 O825 1.959 . S
N806 Cu805 1.999 . S
N806 C808 1.263 . S
N806 C810 1.389 . S
N807 C808 1.358 . S
N807 C809 1.400 . S
C808 N806 1.263 . S
C808 N807 1.358 . S
C808 H814 0.930 . S
C809 N807 1.400 . S
C809 C810 1.351 . S
C809 H826 0.930 . S
C810 N806 1.389 . S
C810 C809 1.351 . S
C810 H815 0.930 . S
O811 Cu805 1.974 . S
O811 C821 1.282 . S
C812 O813 1.261 . S
C812 O825 1.251 . S
O813 C812 1.261 . S
H814 C808 0.930 . S
H815 C810 0.930 . S
N816 Cu805 1.985 . S
N816 C818 1.335 . S
N816 C819 1.390 . S
N817 C818 1.345 . S
N817 C820 1.336 . S
C818 N816 1.335 . S
C818 N817 1.345 . S
C818 H823 0.930 . S
C819 N816 1.390 . S
C819 C820 1.346 . S
C819 H824 0.930 . S
C820 N817 1.336 . S
C820 C819 1.346 . S
C820 H827 0.929 . S
C821 O811 1.282 . S
C821 O822 1.216 . S
O822 C821 1.216 . S
H823 C818 0.930 . S
H824 C819 0.930 . S
O825 Cu805 1.959 . S
O825 C812 1.251 . S
H826 C809 0.930 . S
H827 C820 0.929 . S
H828 C834 0.930 . S
H829 C838 0.930 . S
H830 C843 0.929 . S
H831 C841 0.929 . S
H832 C836 0.929 . S
H833 C842 0.929 . S
C834 H828 0.930 . S
C834 C835 1.367 . S
C834 C842 1.378 . S
C835 C834 1.367 . S
C835 C843 1.433 . S
C836 H832 0.929 . S
C836 C838 1.378 . S
C836 C840 1.350 . S
C837 C840 1.463 . S
C837 C842 1.350 . S
C837 N845 1.427 . S
C838 H829 0.930 . S
C838 C836 1.378 . S
C838 C839 1.367 . S
C839 C838 1.367 . S
C839 C841 1.433 . S
C840 C836 1.350 . S
C840 C837 1.463 . S
C840 N844 1.427 . S
C841 H831 0.929 . S
C841 C839 1.433 . S
C841 N844 1.384 . S
C842 H833 0.929 . S
C842 C834 1.378 . S
C842 C837 1.350 . S
C843 H830 0.929 . S
C843 C835 1.433 . S
C843 N845 1.384 . S
N844 C840 1.427 . S
N844 C841 1.384 . S
N845 C837 1.427 . S
N845 C843 1.384 . S
H846 C852 0.930 . S
H847 C856 0.930 . S
H848 C861 0.929 . S
H849 C859 0.929 . S
H850 C854 0.929 . S
H851 C860 0.929 . S
C852 H846 0.930 . S
C852 C853 1.367 . S
C852 C860 1.378 . S
C853 C852 1.367 . S
C853 C861 1.433 . S
C854 H850 0.929 . S
C854 C856 1.378 . S
C854 C858 1.350 . S
C855 C858 1.463 . S
C855 C860 1.350 . S
C855 N863 1.427 . S
C856 H847 0.930 . S
C856 C854 1.378 . S
C856 C857 1.367 . S
C857 C856 1.367 . S
C857 C859 1.433 . S
C858 C854 1.350 . S
C858 C855 1.463 . S
C858 N862 1.427 . S
C859 H849 0.929 . S
C859 C857 1.433 . S
C859 N862 1.384 . S
C860 H851 0.929 . S
C860 C852 1.378 . S
C860 C855 1.350 . S
C861 H848 0.929 . S
C861 C853 1.433 . S
C861 N863 1.384 . S
N862 C858 1.427 . S
N862 C859 1.384 . S
N863 C855 1.427 . S
N863 C861 1.384 . S
H864 C870 0.930 . S
H865 C874 0.930 . S
H866 C879 0.929 . S
H867 C877 0.929 . S
H868 C872 0.929 . S
H869 C878 0.929 . S
C870 H864 0.930 . S
C870 C871 1.367 . S
C870 C878 1.378 . S
C871 C870 1.367 . S
C871 C879 1.433 . S
C872 H868 0.929 . S
C872 C874 1.378 . S
C872 C876 1.350 . S
C873 C876 1.463 . S
C873 C878 1.350 . S
C873 N881 1.427 . S
C874 H865 0.930 . S
C874 C872 1.378 . S
C874 C875 1.367 . S
C875 C874 1.367 . S
C875 C877 1.433 . S
C876 C872 1.350 . S
C876 C873 1.463 . S
C876 N880 1.427 . S
C877 H867 0.929 . S
C877 C875 1.433 . S
C877 N880 1.384 . S
C878 H869 0.929 . S
C878 C870 1.378 . S
C878 C873 1.350 . S
C879 H866 0.929 . S
C879 C871 1.433 . S
C879 N881 1.384 . S
N880 C876 1.427 . S
N880 C877 1.384 . S
N881 C873 1.427 . S
N881 C879 1.384 . S
H882 C888 0.930 . S
H883 C892 0.930 . S
H884 C897 0.929 . S
H885 C895 0.929 . S
H886 C890 0.929 . S
H887 C896 0.929 . S
C888 H882 0.930 . S
C888 C889 1.367 . S
C888 C896 1.378 . S
C889 C888 1.367 . S
C889 C897 1.433 . S
C890 H886 0.929 . S
C890 C892 1.378 . S
C890 C894 1.350 . S
C891 C894 1.463 . S
C891 C896 1.350 . S
C891 N899 1.427 . S
C892 H883 0.930 . S
C892 C890 1.378 . S
C892 C893 1.367 . S
C893 C892 1.367 . S
C893 C895 1.433 . S
C894 C890 1.350 . S
C894 C891 1.463 . S
C894 N898 1.427 . S
C895 H885 0.929 . S
C895 C893 1.433 . S
C895 N898 1.384 . S
C896 H887 0.929 . S
C896 C888 1.378 . S
C896 C891 1.350 . S
C897 H884 0.929 . S
C897 C889 1.433 . S
C897 N899 1.384 . S
N898 C894 1.427 . S
N898 C895 1.384 . S
N899 C891 1.427 . S
N899 C897 1.384 . S
H900 C906 0.930 . S
H901 C910 0.930 . S
H902 C915 0.929 . S
H903 C913 0.929 . S
H904 C908 0.929 . S
H905 C914 0.929 . S
C906 H900 0.930 . S
C906 C907 1.367 . S
C906 C914 1.378 . S
C907 C906 1.367 . S
C907 C915 1.433 . S
C908 H904 0.929 . S
C908 C910 1.378 . S
C908 C912 1.350 . S
C909 C912 1.463 . S
C909 C914 1.350 . S
C909 N917 1.427 . S
C910 H901 0.930 . S
C910 C908 1.378 . S
C910 C911 1.367 . S
C911 C910 1.367 . S
C911 C913 1.433 . S
C912 C908 1.350 . S
C912 C909 1.463 . S
C912 N916 1.427 . S
C913 H903 0.929 . S
C913 C911 1.433 . S
C913 N916 1.384 . S
C914 H905 0.929 . S
C914 C906 1.378 . S
C914 C909 1.350 . S
C915 H902 0.929 . S
C915 C907 1.433 . S
C915 N917 1.384 . S
N916 C912 1.427 . S
N916 C913 1.384 . S
N917 C909 1.427 . S
N917 C915 1.384 . S
H918 C924 0.930 . S
H919 C928 0.930 . S
H920 C933 0.929 . S
H921 C931 0.929 . S
H922 C926 0.929 . S
H923 C932 0.929 . S
C924 H918 0.930 . S
C924 C925 1.367 . S
C924 C932 1.378 . S
C925 C924 1.367 . S
C925 C933 1.433 . S
C926 H922 0.929 . S
C926 C928 1.378 . S
C926 C930 1.350 . S
C927 C930 1.463 . S
C927 C932 1.350 . S
C927 N935 1.427 . S
C928 H919 0.930 . S
C928 C926 1.378 . S
C928 C929 1.367 . S
C929 C928 1.367 . S
C929 C931 1.433 . S
C930 C926 1.350 . S
C930 C927 1.463 . S
C930 N934 1.427 . S
C931 H921 0.929 . S
C931 C929 1.433 . S
C931 N934 1.384 . S
C932 H923 0.929 . S
C932 C924 1.378 . S
C932 C927 1.350 . S
C933 H920 0.929 . S
C933 C925 1.433 . S
C933 N935 1.384 . S
N934 C930 1.427 . S
N934 C931 1.384 . S
N935 C927 1.427 . S
N935 C933 1.384 . S
H936 C942 0.930 . S
H937 C946 0.930 . S
H938 C951 0.929 . S
H939 C949 0.929 . S
H940 C944 0.929 . S
H941 C950 0.929 . S
C942 H936 0.930 . S
C942 C943 1.367 . S
C942 C950 1.378 . S
C943 C942 1.367 . S
C943 C951 1.433 . S
C944 H940 0.929 . S
C944 C946 1.378 . S
C944 C948 1.350 . S
C945 C948 1.463 . S
C945 C950 1.350 . S
C945 N953 1.427 . S
C946 H937 0.930 . S
C946 C944 1.378 . S
C946 C947 1.367 . S
C947 C946 1.367 . S
C947 C949 1.433 . S
C948 C944 1.350 . S
C948 C945 1.463 . S
C948 N952 1.427 . S
C949 H939 0.929 . S
C949 C947 1.433 . S
C949 N952 1.384 . S
C950 H941 0.929 . S
C950 C942 1.378 . S
C950 C945 1.350 . S
C951 H938 0.929 . S
C951 C943 1.433 . S
C951 N953 1.384 . S
N952 C948 1.427 . S
N952 C949 1.384 . S
N953 C945 1.427 . S
N953 C951 1.384 . S
H954 C960 0.930 . S
H955 C964 0.930 . S
H956 C969 0.929 . S
H957 C967 0.929 . S
H958 C962 0.929 . S
H959 C968 0.929 . S
C960 H954 0.930 . S
C960 C961 1.367 . S
C960 C968 1.378 . S
C961 C960 1.367 . S
C961 C969 1.433 . S
C962 H958 0.929 . S
C962 C964 1.378 . S
C962 C966 1.350 . S
C963 C966 1.463 . S
C963 C968 1.350 . S
C963 N971 1.427 . S
C964 H955 0.930 . S
C964 C962 1.378 . S
C964 C965 1.367 . S
C965 C964 1.367 . S
C965 C967 1.433 . S
C966 C962 1.350 . S
C966 C963 1.463 . S
C966 N970 1.427 . S
C967 H957 0.929 . S
C967 C965 1.433 . S
C967 N970 1.384 . S
C968 H959 0.929 . S
C968 C960 1.378 . S
C968 C963 1.350 . S
C969 H956 0.929 . S
C969 C961 1.433 . S
C969 N971 1.384 . S
N970 C966 1.427 . S
N970 C967 1.384 . S
N971 C963 1.427 . S
N971 C969 1.384 . S
H972 C978 0.930 . S
H973 C982 0.930 . S
H974 C987 0.929 . S
H975 C985 0.929 . S
H976 C980 0.929 . S
H977 C986 0.929 . S
C978 H972 0.930 . S
C978 C979 1.367 . S
C978 C986 1.378 . S
C979 C978 1.367 . S
C979 C987 1.433 . S
C980 H976 0.929 . S
C980 C982 1.378 . S
C980 C984 1.350 . S
C981 C984 1.463 . S
C981 C986 1.350 . S
C981 N989 1.427 . S
C982 H973 0.930 . S
C982 C980 1.378 . S
C982 C983 1.367 . S
C983 C982 1.367 . S
C983 C985 1.433 . S
C984 C980 1.350 . S
C984 C981 1.463 . S
C984 N988 1.427 . S
C985 H975 0.929 . S
C985 C983 1.433 . S
C985 N988 1.384 . S
C986 H977 0.929 . S
C986 C978 1.378 . S
C986 C981 1.350 . S
C987 H974 0.929 . S
C987 C979 1.433 . S
C987 N989 1.384 . S
N988 C984 1.427 . S
N988 C985 1.384 . S
N989 C981 1.427 . S
N989 C987 1.384 . S
H990 C996 0.930 . S
H991 C1000 0.930 . S
H992 C1005 0.929 . S
H993 C1003 0.929 . S
H994 C998 0.929 . S
H995 C1004 0.929 . S
C996 H990 0.930 . S
C996 C997 1.367 . S
C996 C1004 1.378 . S
C997 C996 1.367 . S
C997 C1005 1.433 . S
C998 H994 0.929 . S
C998 C1000 1.378 . S
C998 C1002 1.350 . S
C999 C1002 1.463 . S
C999 C1004 1.350 . S
C999 N1007 1.427 . S
C1000 H991 0.930 . S
C1000 C998 1.378 . S
C1000 C1001 1.367 . S
C1001 C1000 1.367 . S
C1001 C1003 1.433 . S
C1002 C998 1.350 . S
C1002 C999 1.463 . S
C1002 N1006 1.427 . S
C1003 H993 0.929 . S
C1003 C1001 1.433 . S
C1003 N1006 1.384 . S
C1004 H995 0.929 . S
C1004 C996 1.378 . S
C1004 C999 1.350 . S
C1005 H992 0.929 . S
C1005 C997 1.433 . S
C1005 N1007 1.384 . S
N1006 C1002 1.427 . S
N1006 C1003 1.384 . S
N1007 C999 1.427 . S
N1007 C1005 1.384 . S
H1008 C1014 0.930 . S
H1009 C1018 0.930 . S
H1010 C1023 0.929 . S
H1011 C1021 0.929 . S
H1012 C1016 0.929 . S
H1013 C1022 0.929 . S
C1014 H1008 0.930 . S
C1014 C1015 1.367 . S
C1014 C1022 1.378 . S
C1015 C1014 1.367 . S
C1015 C1023 1.433 . S
C1016 H1012 0.929 . S
C1016 C1018 1.378 . S
C1016 C1020 1.350 . S
C1017 C1020 1.463 . S
C1017 C1022 1.350 . S
C1017 N1025 1.427 . S
C1018 H1009 0.930 . S
C1018 C1016 1.378 . S
C1018 C1019 1.367 . S
C1019 C1018 1.367 . S
C1019 C1021 1.433 . S
C1020 C1016 1.350 . S
C1020 C1017 1.463 . S
C1020 N1024 1.427 . S
C1021 H1011 0.929 . S
C1021 C1019 1.433 . S
C1021 N1024 1.384 . S
C1022 H1013 0.929 . S
C1022 C1014 1.378 . S
C1022 C1017 1.350 . S
C1023 H1010 0.929 . S
C1023 C1015 1.433 . S
C1023 N1025 1.384 . S
N1024 C1020 1.427 . S
N1024 C1021 1.384 . S
N1025 C1017 1.427 . S
N1025 C1023 1.384 . S
H1026 C1032 0.930 . S
H1027 C1036 0.930 . S
H1028 C1041 0.929 . S
H1029 C1039 0.929 . S
H1030 C1034 0.929 . S
H1031 C1040 0.929 . S
C1032 H1026 0.930 . S
C1032 C1033 1.367 . S
C1032 C1040 1.378 . S
C1033 C1032 1.367 . S
C1033 C1041 1.433 . S
C1034 H1030 0.929 . S
C1034 C1036 1.378 . S
C1034 C1038 1.350 . S
C1035 C1038 1.463 . S
C1035 C1040 1.350 . S
C1035 N1043 1.427 . S
C1036 H1027 0.930 . S
C1036 C1034 1.378 . S
C1036 C1037 1.367 . S
C1037 C1036 1.367 . S
C1037 C1039 1.433 . S
C1038 C1034 1.350 . S
C1038 C1035 1.463 . S
C1038 N1042 1.427 . S
C1039 H1029 0.929 . S
C1039 C1037 1.433 . S
C1039 N1042 1.384 . S
C1040 H1031 0.929 . S
C1040 C1032 1.378 . S
C1040 C1035 1.350 . S
C1041 H1028 0.929 . S
C1041 C1033 1.433 . S
C1041 N1043 1.384 . S
N1042 C1038 1.427 . S
N1042 C1039 1.384 . S
N1043 C1035 1.427 . S
N1043 C1041 1.384 . S
H1044 C1050 0.925 1_455 S
H1045 C1054 0.930 1_655 S
H1046 C1059 0.929 . S
H1047 C1057 0.929 . S
H1048 C1052 0.929 . S
H1049 C1058 0.929 . S
C1050 H1044 0.925 1_655 S
C1050 C1051 1.367 . S
C1050 C1058 1.378 1_655 S
C1051 C1050 1.367 . S
C1051 C1059 1.433 . S
C1052 H1048 0.929 . S
C1052 C1054 1.378 1_655 S
C1052 C1056 1.350 1_655 S
C1053 C1056 1.463 1_655 S
C1053 C1058 1.350 1_655 S
C1053 N1061 1.427 . S
C1054 H1045 0.930 1_455 S
C1054 C1052 1.378 1_455 S
C1054 C1055 1.367 . S
C1055 C1054 1.367 . S
C1055 C1057 1.433 . S
C1056 C1052 1.350 1_455 S
C1056 C1053 1.463 1_455 S
C1056 N1060 1.427 . S
C1057 H1047 0.929 . S
C1057 C1055 1.433 . S
C1057 N1060 1.384 . S
C1058 H1049 0.929 . S
C1058 C1050 1.378 1_455 S
C1058 C1053 1.350 1_455 S
C1059 H1046 0.929 . S
C1059 C1051 1.433 . S
C1059 N1061 1.384 . S
N1060 C1056 1.427 . S
N1060 C1057 1.384 . S
N1061 C1053 1.427 . S
N1061 C1059 1.384 . S
H1062 C1068 0.930 . S
H1063 C1072 0.930 . S
H1064 C1077 0.929 . S
H1065 C1075 0.929 . S
H1066 C1070 0.929 . S
H1067 C1076 0.929 . S
C1068 H1062 0.930 . S
C1068 C1069 1.367 . S
C1068 C1076 1.378 . S
C1069 C1068 1.367 . S
C1069 C1077 1.433 . S
C1070 H1066 0.929 . S
C1070 C1072 1.378 . S
C1070 C1074 1.350 . S
C1071 C1074 1.463 . S
C1071 C1076 1.350 . S
C1071 N1079 1.427 . S
C1072 H1063 0.930 . S
C1072 C1070 1.378 . S
C1072 C1073 1.367 . S
C1073 C1072 1.367 . S
C1073 C1075 1.433 . S
C1074 C1070 1.350 . S
C1074 C1071 1.463 . S
C1074 N1078 1.427 . S
C1075 H1065 0.929 . S
C1075 C1073 1.433 . S
C1075 N1078 1.384 . S
C1076 H1067 0.929 . S
C1076 C1068 1.378 . S
C1076 C1071 1.350 . S
C1077 H1064 0.929 . S
C1077 C1069 1.433 . S
C1077 N1079 1.384 . S
N1078 C1074 1.427 . S
N1078 C1075 1.384 . S
N1079 C1071 1.427 . S
N1079 C1077 1.384 . S
H1080 C1086 0.930 . S
H1081 C1090 0.930 . S
H1082 C1095 0.929 . S
H1083 C1093 0.929 1_545 S
H1084 C1088 0.929 . S
H1085 C1094 0.929 . S
C1086 H1080 0.930 . S
C1086 C1087 1.367 . S
C1086 C1094 1.378 . S
C1087 C1086 1.367 . S
C1087 C1095 1.433 . S
C1088 H1084 0.929 . S
C1088 C1090 1.378 . S
C1088 C1092 1.350 1_565 S
C1089 C1092 1.463 . S
C1089 C1094 1.350 . S
C1089 N1097 1.427 . S
C1090 H1081 0.930 . S
C1090 C1088 1.378 . S
C1090 C1091 1.367 . S
C1091 C1090 1.367 . S
C1091 C1093 1.433 . S
C1092 C1088 1.350 1_545 S
C1092 C1089 1.463 . S
C1092 N1096 1.427 . S
C1093 H1083 0.929 1_565 S
C1093 C1091 1.433 . S
C1093 N1096 1.384 1_565 S
C1094 H1085 0.929 . S
C1094 C1086 1.378 . S
C1094 C1089 1.350 . S
C1095 H1082 0.929 . S
C1095 C1087 1.433 . S
C1095 N1097 1.384 . S
N1096 C1092 1.427 . S
N1096 C1093 1.384 1_545 S
N1097 C1089 1.427 . S
N1097 C1095 1.384 . S
H1098 C1104 0.944 . S
H1099 C1108 0.930 . S
H1100 C1113 0.929 . S
H1101 C1111 0.929 . S
H1102 C1106 0.901 1_556 S
H1103 C1112 0.929 . S
C1104 H1098 0.944 . S
C1104 C1105 1.337 1_554 S
C1104 C1112 1.395 . S
C1105 C1104 1.337 1_556 S
C1105 C1113 1.433 . S
C1106 H1102 0.901 1_554 S
C1106 C1108 1.393 . S
C1106 C1110 1.363 . S
C1107 C1110 1.463 . S
C1107 C1112 1.350 1_565 S
C1107 N1115 1.427 1_554 S
C1108 H1099 0.930 . S
C1108 C1106 1.393 . S
C1108 C1109 1.367 . S
C1109 C1108 1.367 . S
C1109 C1111 1.433 . S
C1110 C1106 1.363 . S
C1110 C1107 1.463 . S
C1110 N1114 1.427 . S
C1111 H1101 0.929 . S
C1111 C1109 1.433 . S
C1111 N1114 1.384 . S
C1112 H1103 0.929 . S
C1112 C1104 1.395 . S
C1112 C1107 1.350 1_545 S
C1113 H1100 0.929 . S
C1113 C1105 1.433 . S
C1113 N1115 1.384 1_545 S
N1114 C1110 1.427 . S
N1114 C1111 1.384 . S
N1115 C1107 1.427 1_556 S
N1115 C1113 1.384 1_565 S
H1116 C1122 0.914 1_455 S
H1117 C1126 0.930 . S
H1118 C1131 0.929 . S
H1119 C1129 0.929 . S
H1120 C1124 0.926 1_655 S
H1121 C1130 0.929 1_554 S
C1122 H1116 0.914 1_655 S
C1122 C1123 1.367 . S
C1122 C1130 1.378 1_655 S
C1123 C1122 1.367 . S
C1123 C1131 1.433 . S
C1124 H1120 0.926 1_455 S
C1124 C1126 1.378 . S
C1124 C1128 1.350 . S
C1125 C1128 1.463 . S
C1125 C1130 1.350 1_554 S
C1125 N1133 1.427 1_455 S
C1126 H1117 0.930 . S
C1126 C1124 1.378 . S
C1126 C1127 1.367 . S
C1127 C1126 1.367 . S
C1127 C1129 1.433 . S
C1128 C1124 1.350 . S
C1128 C1125 1.463 . S
C1128 N1132 1.427 . S
C1129 H1119 0.929 . S
C1129 C1127 1.433 . S
C1129 N1132 1.384 . S
C1130 H1121 0.929 1_556 S
C1130 C1122 1.378 1_455 S
C1130 C1125 1.350 1_556 S
C1131 H1118 0.929 . S
C1131 C1123 1.433 . S
C1131 N1133 1.384 1_556 S
N1132 C1128 1.427 . S
N1132 C1129 1.384 . S
N1133 C1125 1.427 1_655 S
N1133 C1131 1.384 1_554 S
H1134 C1140 0.930 . S
H1135 C1144 0.930 . S
H1136 C1149 0.929 . S
H1137 C1147 0.929 . S
H1138 C1142 0.929 . S
H1139 C1148 0.929 1_554 S
C1140 H1134 0.930 . S
C1140 C1141 1.367 . S
C1140 C1148 1.378 . S
C1141 C1140 1.367 . S
C1141 C1149 1.433 . S
C1142 H1138 0.929 . S
C1142 C1144 1.378 . S
C1142 C1146 1.350 . S
C1143 C1146 1.463 1_556 S
C1143 C1148 1.350 . S
C1143 N1151 1.427 . S
C1144 H1135 0.930 . S
C1144 C1142 1.378 . S
C1144 C1145 1.367 . S
C1145 C1144 1.367 . S
C1145 C1147 1.433 . S
C1146 C1142 1.350 . S
C1146 C1143 1.463 1_554 S
C1146 N1150 1.427 . S
C1147 H1137 0.929 . S
C1147 C1145 1.433 . S
C1147 N1150 1.384 . S
C1148 H1139 0.929 1_556 S
C1148 C1140 1.378 . S
C1148 C1143 1.350 . S
C1149 H1136 0.929 . S
C1149 C1141 1.433 . S
C1149 N1151 1.384 . S
N1150 C1146 1.427 . S
N1150 C1147 1.384 . S
N1151 C1143 1.427 . S
N1151 C1149 1.384 . S
H1152 C1158 0.937 . S
H1153 C1162 0.930 . S
H1154 C1167 0.929 . S
H1155 C1165 0.929 . S
H1156 C1160 0.929 . S
H1157 C1166 0.947 . S
C1158 H1152 0.937 . S
C1158 C1159 1.367 . S
C1158 C1166 1.372 1_556 S
C1159 C1158 1.367 . S
C1159 C1167 1.433 . S
C1160 H1156 0.929 . S
C1160 C1162 1.378 . S
C1160 C1164 1.350 . S
C1161 C1164 1.463 . S
C1161 C1166 1.338 1_556 S
C1161 N1169 1.427 . S
C1162 H1153 0.930 . S
C1162 C1160 1.378 . S
C1162 C1163 1.367 1_556 S
C1163 C1162 1.367 1_554 S
C1163 C1165 1.433 . S
C1164 C1160 1.350 . S
C1164 C1161 1.463 . S
C1164 N1168 1.427 1_556 S
C1165 H1155 0.929 . S
C1165 C1163 1.433 . S
C1165 N1168 1.384 . S
C1166 H1157 0.947 . S
C1166 C1158 1.372 1_554 S
C1166 C1161 1.338 1_554 S
C1167 H1154 0.929 . S
C1167 C1159 1.433 . S
C1167 N1169 1.384 . S
N1168 C1164 1.427 1_554 S
N1168 C1165 1.384 . S
N1169 C1161 1.427 . S
N1169 C1167 1.384 . S
H1170 C1176 0.930 . S
H1171 C1180 0.930 . S
H1172 C1185 0.929 . S
H1173 C1183 0.929 . S
H1174 C1178 0.929 1_556 S
H1175 C1184 0.929 . S
C1176 H1170 0.930 . S
C1176 C1177 1.367 . S
C1176 C1184 1.378 1_556 S
C1177 C1176 1.367 . S
C1177 C1185 1.433 . S
C1178 H1174 0.929 1_554 S
C1178 C1180 1.378 . S
C1178 C1182 1.350 . S
C1179 C1182 1.463 1_556 S
C1179 C1184 1.350 1_556 S
C1179 N1187 1.427 . S
C1180 H1171 0.930 . S
C1180 C1178 1.378 . S
C1180 C1181 1.367 . S
C1181 C1180 1.367 . S
C1181 C1183 1.433 . S
C1182 C1178 1.350 . S
C1182 C1179 1.463 1_554 S
C1182 N1186 1.427 . S
C1183 H1173 0.929 . S
C1183 C1181 1.433 . S
C1183 N1186 1.384 . S
C1184 H1175 0.929 . S
C1184 C1176 1.378 1_554 S
C1184 C1179 1.350 1_554 S
C1185 H1172 0.929 . S
C1185 C1177 1.433 . S
C1185 N1187 1.384 . S
N1186 C1182 1.427 . S
N1186 C1183 1.384 . S
N1187 C1179 1.427 . S
N1187 C1185 1.384 . S
H1188 C1194 0.930 . S
H1189 C1198 0.930 . S
H1190 C1203 0.929 . S
H1191 C1201 0.930 . S
H1192 C1196 0.929 . S
H1193 C1202 0.929 . S
C1194 H1188 0.930 . S
C1194 C1195 1.367 . S
C1194 C1202 1.378 . S
C1195 C1194 1.367 . S
C1195 C1203 1.433 . S
C1196 H1192 0.929 . S
C1196 C1198 1.378 . S
C1196 C1200 1.350 1_556 S
C1197 C1200 1.463 . S
C1197 C1202 1.350 . S
C1197 N1205 1.427 . S
C1198 H1189 0.930 . S
C1198 C1196 1.378 . S
C1198 C1199 1.367 . S
C1199 C1198 1.367 . S
C1199 C1201 1.433 . S
C1200 C1196 1.350 1_554 S
C1200 C1197 1.463 . S
C1200 N1204 1.427 . S
C1201 H1191 0.930 . S
C1201 C1199 1.433 . S
C1201 N1204 1.384 1_556 S
C1202 H1193 0.929 . S
C1202 C1194 1.378 . S
C1202 C1197 1.350 . S
C1203 H1190 0.929 . S
C1203 C1195 1.433 . S
C1203 N1205 1.384 . S
N1204 C1200 1.427 . S
N1204 C1201 1.384 1_554 S
N1205 C1197 1.427 . S
N1205 C1203 1.384 . S
H1206 C1212 0.930 . S
H1207 C1216 0.930 . S
H1208 C1221 0.929 . S
H1209 C1219 0.929 . S
H1210 C1214 0.929 . S
H1211 C1220 0.929 . S
C1212 H1206 0.930 . S
C1212 C1213 1.367 . S
C1212 C1220 1.378 . S
C1213 C1212 1.367 . S
C1213 C1221 1.433 . S
C1214 H1210 0.929 . S
C1214 C1216 1.378 . S
C1214 C1218 1.350 . S
C1215 C1218 1.463 . S
C1215 C1220 1.350 . S
C1215 N1223 1.427 . S
C1216 H1207 0.930 . S
C1216 C1214 1.378 . S
C1216 C1217 1.367 . S
C1217 C1216 1.367 . S
C1217 C1219 1.433 . S
C1218 C1214 1.350 . S
C1218 C1215 1.463 . S
C1218 N1222 1.427 . S
C1219 H1209 0.929 . S
C1219 C1217 1.433 . S
C1219 N1222 1.384 . S
C1220 H1211 0.929 . S
C1220 C1212 1.378 . S
C1220 C1215 1.350 . S
C1221 H1208 0.929 . S
C1221 C1213 1.433 . S
C1221 N1223 1.384 . S
N1222 C1218 1.427 . S
N1222 C1219 1.384 . S
N1223 C1215 1.427 . S
N1223 C1221 1.384 . S
H1224 C1230 0.930 . S
H1225 C1234 0.930 . S
H1226 C1239 0.929 . S
H1227 C1237 0.929 . S
H1228 C1232 0.929 . S
H1229 C1238 0.929 . S
C1230 H1224 0.930 . S
C1230 C1231 1.367 . S
C1230 C1238 1.378 . S
C1231 C1230 1.367 . S
C1231 C1239 1.433 . S
C1232 H1228 0.929 . S
C1232 C1234 1.378 . S
C1232 C1236 1.350 . S
C1233 C1236 1.463 . S
C1233 C1238 1.350 . S
C1233 N1241 1.427 . S
C1234 H1225 0.930 . S
C1234 C1232 1.378 . S
C1234 C1235 1.367 . S
C1235 C1234 1.367 . S
C1235 C1237 1.433 . S
C1236 C1232 1.350 . S
C1236 C1233 1.463 . S
C1236 N1240 1.427 . S
C1237 H1227 0.929 . S
C1237 C1235 1.433 . S
C1237 N1240 1.384 . S
C1238 H1229 0.929 . S
C1238 C1230 1.378 . S
C1238 C1233 1.350 . S
C1239 H1226 0.929 . S
C1239 C1231 1.433 . S
C1239 N1241 1.384 . S
N1240 C1236 1.427 . S
N1240 C1237 1.384 . S
N1241 C1233 1.427 . S
N1241 C1239 1.384 . S
H1242 C1248 0.930 . S
H1243 C1252 0.930 . S
H1244 C1257 0.929 . S
H1245 C1255 0.929 . S
H1246 C1250 0.929 . S
H1247 C1256 0.929 . S
C1248 H1242 0.930 . S
C1248 C1249 1.367 . S
C1248 C1256 1.378 . S
C1249 C1248 1.367 . S
C1249 C1257 1.433 . S
C1250 H1246 0.929 . S
C1250 C1252 1.378 . S
C1250 C1254 1.350 . S
C1251 C1254 1.463 . S
C1251 C1256 1.350 . S
C1251 N1259 1.427 . S
C1252 H1243 0.930 . S
C1252 C1250 1.378 . S
C1252 C1253 1.367 . S
C1253 C1252 1.367 . S
C1253 C1255 1.433 . S
C1254 C1250 1.350 . S
C1254 C1251 1.463 . S
C1254 N1258 1.427 . S
C1255 H1245 0.929 . S
C1255 C1253 1.433 . S
C1255 N1258 1.384 . S
C1256 H1247 0.929 . S
C1256 C1248 1.378 . S
C1256 C1251 1.350 . S
C1257 H1244 0.929 . S
C1257 C1249 1.433 . S
C1257 N1259 1.384 . S
N1258 C1254 1.427 . S
N1258 C1255 1.384 . S
N1259 C1251 1.427 . S
N1259 C1257 1.384 . S
H1260 C1266 0.921 1_554 S
H1261 C1270 0.930 . S
H1262 C1275 0.929 . S
H1263 C1273 0.929 . S
H1264 C1268 0.929 . S
H1265 C1274 0.929 . S
C1266 H1260 0.921 1_556 S
C1266 C1267 1.384 . S
C1266 C1274 1.371 1_556 S
C1267 C1266 1.384 . S
C1267 C1275 1.433 . S
C1268 H1264 0.929 . S
C1268 C1270 1.378 1_556 S
C1268 C1272 1.350 1_556 S
C1269 C1272 1.463 1_556 S
C1269 C1274 1.350 1_556 S
C1269 N1277 1.427 . S
C1270 H1261 0.930 . S
C1270 C1268 1.378 1_554 S
C1270 C1271 1.367 . S
C1271 C1270 1.367 . S
C1271 C1273 1.433 . S
C1272 C1268 1.350 1_554 S
C1272 C1269 1.463 1_554 S
C1272 N1276 1.427 . S
C1273 H1263 0.929 . S
C1273 C1271 1.433 . S
C1273 N1276 1.384 . S
C1274 H1265 0.929 . S
C1274 C1266 1.371 1_554 S
C1274 C1269 1.350 1_554 S
C1275 H1262 0.929 . S
C1275 C1267 1.433 . S
C1275 N1277 1.384 . S
N1276 C1272 1.427 . S
N1276 C1273 1.384 . S
N1277 C1269 1.427 . S
N1277 C1275 1.384 . S
H1278 C1284 0.930 . S
H1279 C1288 0.930 . S
H1280 C1293 0.929 . S
H1281 C1291 0.929 . S
H1282 C1286 0.929 . S
H1283 C1292 0.929 . S
C1284 H1278 0.930 . S
C1284 C1285 1.367 . S
C1284 C1292 1.378 . S
C1285 C1284 1.367 . S
C1285 C1293 1.433 . S
C1286 H1282 0.929 . S
C1286 C1288 1.378 . S
C1286 C1290 1.350 . S
C1287 C1290 1.463 . S
C1287 C1292 1.350 . S
C1287 N1295 1.427 . S
C1288 H1279 0.930 . S
C1288 C1286 1.378 . S
C1288 C1289 1.367 1_556 S
C1289 C1288 1.367 1_554 S
C1289 C1291 1.433 . S
C1290 C1286 1.350 . S
C1290 C1287 1.463 . S
C1290 N1294 1.432 . S
C1291 H1281 0.929 . S
C1291 C1289 1.433 . S
C1291 N1294 1.380 1_554 S
C1292 H1283 0.929 . S
C1292 C1284 1.378 . S
C1292 C1287 1.350 . S
C1293 H1280 0.929 . S
C1293 C1285 1.433 . S
C1293 N1295 1.384 . S
N1294 C1290 1.432 . S
N1294 C1291 1.380 1_556 S
N1295 C1287 1.427 . S
N1295 C1293 1.384 . S
H1296 C1302 0.930 . S
H1297 C1306 0.930 . S
H1298 C1311 0.929 . S
H1299 C1309 0.929 . S
H1300 C1304 0.929 . S
H1301 C1310 0.921 1_554 S
C1302 H1296 0.930 . S
C1302 C1303 1.367 . S
C1302 C1310 1.378 . S
C1303 C1302 1.367 . S
C1303 C1311 1.433 . S
C1304 H1300 0.929 . S
C1304 C1306 1.378 . S
C1304 C1308 1.350 . S
C1305 C1308 1.463 . S
C1305 C1310 1.350 . S
C1305 N1313 1.427 . S
C1306 H1297 0.930 . S
C1306 C1304 1.378 . S
C1306 C1307 1.367 1_556 S
C1307 C1306 1.367 1_554 S
C1307 C1309 1.433 . S
C1308 C1304 1.350 . S
C1308 C1305 1.463 . S
C1308 N1312 1.427 1_556 S
C1309 H1299 0.929 . S
C1309 C1307 1.433 . S
C1309 N1312 1.384 . S
C1310 H1301 0.921 1_556 S
C1310 C1302 1.378 . S
C1310 C1305 1.350 . S
C1311 H1298 0.929 . S
C1311 C1303 1.433 . S
C1311 N1313 1.384 . S
N1312 C1308 1.427 1_554 S
N1312 C1309 1.384 . S
N1313 C1305 1.427 . S
N1313 C1311 1.384 . S
H1314 C1320 0.930 . S
H1315 C1324 0.930 . S
H1316 C1329 0.929 . S
H1317 C1327 0.929 . S
H1318 C1322 0.929 . S
H1319 C1328 0.929 . S
C1320 H1314 0.930 . S
C1320 C1321 1.367 . S
C1320 C1328 1.378 . S
C1321 C1320 1.367 . S
C1321 C1329 1.433 . S
C1322 H1318 0.929 . S
C1322 C1324 1.378 . S
C1322 C1326 1.350 . S
C1323 C1326 1.463 . S
C1323 C1328 1.350 . S
C1323 N1331 1.427 . S
C1324 H1315 0.930 . S
C1324 C1322 1.378 . S
C1324 C1325 1.367 . S
C1325 C1324 1.367 . S
C1325 C1327 1.433 . S
C1326 C1322 1.350 . S
C1326 C1323 1.463 . S
C1326 N1330 1.427 . S
C1327 H1317 0.929 . S
C1327 C1325 1.433 . S
C1327 N1330 1.384 . S
C1328 H1319 0.929 . S
C1328 C1320 1.378 . S
C1328 C1323 1.350 . S
C1329 H1316 0.929 . S
C1329 C1321 1.433 . S
C1329 N1331 1.384 . S
N1330 C1326 1.427 . S
N1330 C1327 1.384 . S
N1331 C1323 1.427 . S
N1331 C1329 1.384 . S
H1332 C1338 0.930 . S
H1333 C1342 0.930 . S
H1334 C1347 0.929 . S
H1335 C1345 0.929 . S
H1336 C1340 0.929 . S
H1337 C1346 0.929 . S
C1338 H1332 0.930 . S
C1338 C1339 1.367 . S
C1338 C1346 1.378 . S
C1339 C1338 1.367 . S
C1339 C1347 1.433 . S
C1340 H1336 0.929 . S
C1340 C1342 1.378 . S
C1340 C1344 1.350 . S
C1341 C1344 1.463 . S
C1341 C1346 1.350 . S
C1341 N1349 1.427 . S
C1342 H1333 0.930 . S
C1342 C1340 1.378 . S
C1342 C1343 1.367 . S
C1343 C1342 1.367 . S
C1343 C1345 1.433 . S
C1344 C1340 1.350 . S
C1344 C1341 1.463 . S
C1344 N1348 1.427 . S
C1345 H1335 0.929 . S
C1345 C1343 1.433 . S
C1345 N1348 1.384 . S
C1346 H1337 0.929 . S
C1346 C1338 1.378 . S
C1346 C1341 1.350 . S
C1347 H1334 0.929 . S
C1347 C1339 1.433 . S
C1347 N1349 1.384 . S
N1348 C1344 1.427 . S
N1348 C1345 1.384 . S
N1349 C1341 1.427 . S
N1349 C1347 1.384 . S
H1350 C1356 0.930 . S
H1351 C1360 0.930 . S
H1352 C1365 0.929 . S
H1353 C1363 0.929 . S
H1354 C1358 0.929 . S
H1355 C1364 0.929 . S
C1356 H1350 0.930 . S
C1356 C1357 1.367 . S
C1356 C1364 1.378 . S
C1357 C1356 1.367 . S
C1357 C1365 1.433 . S
C1358 H1354 0.929 . S
C1358 C1360 1.378 . S
C1358 C1362 1.350 . S
C1359 C1362 1.463 . S
C1359 C1364 1.350 . S
C1359 N1367 1.427 . S
C1360 H1351 0.930 . S
C1360 C1358 1.378 . S
C1360 C1361 1.367 . S
C1361 C1360 1.367 . S
C1361 C1363 1.433 . S
C1362 C1358 1.350 . S
C1362 C1359 1.463 . S
C1362 N1366 1.427 . S
C1363 H1353 0.929 . S
C1363 C1361 1.433 . S
C1363 N1366 1.384 . S
C1364 H1355 0.929 . S
C1364 C1356 1.378 . S
C1364 C1359 1.350 . S
C1365 H1352 0.929 . S
C1365 C1357 1.433 . S
C1365 N1367 1.384 . S
N1366 C1362 1.427 . S
N1366 C1363 1.384 . S
N1367 C1359 1.427 . S
N1367 C1365 1.384 . S
H1368 C1374 0.930 . S
H1369 C1378 0.930 . S
H1370 C1383 0.929 . S
H1371 C1381 0.929 . S
H1372 C1376 0.929 . S
H1373 C1382 0.929 . S
C1374 H1368 0.930 . S
C1374 C1375 1.367 . S
C1374 C1382 1.378 . S
C1375 C1374 1.367 . S
C1375 C1383 1.433 . S
C1376 H1372 0.929 . S
C1376 C1378 1.378 . S
C1376 C1380 1.350 . S
C1377 C1380 1.463 . S
C1377 C1382 1.350 . S
C1377 N1385 1.427 . S
C1378 H1369 0.930 . S
C1378 C1376 1.378 . S
C1378 C1379 1.367 . S
C1379 C1378 1.367 . S
C1379 C1381 1.433 . S
C1380 C1376 1.350 . S
C1380 C1377 1.463 . S
C1380 N1384 1.427 . S
C1381 H1371 0.929 . S
C1381 C1379 1.433 . S
C1381 N1384 1.384 . S
C1382 H1373 0.929 . S
C1382 C1374 1.378 . S
C1382 C1377 1.350 . S
C1383 H1370 0.929 . S
C1383 C1375 1.433 . S
C1383 N1385 1.384 . S
N1384 C1380 1.427 . S
N1384 C1381 1.384 . S
N1385 C1377 1.427 . S
N1385 C1383 1.384 . S
H1386 C1392 0.930 . S
H1387 C1396 0.930 . S
H1388 C1401 0.929 . S
H1389 C1399 0.929 . S
H1390 C1394 0.929 . S
H1391 C1400 0.929 . S
C1392 H1386 0.930 . S
C1392 C1393 1.367 . S
C1392 C1400 1.378 . S
C1393 C1392 1.367 . S
C1393 C1401 1.433 . S
C1394 H1390 0.929 . S
C1394 C1396 1.378 . S
C1394 C1398 1.350 . S
C1395 C1398 1.463 . S
C1395 C1400 1.350 . S
C1395 N1403 1.427 . S
C1396 H1387 0.930 . S
C1396 C1394 1.378 . S
C1396 C1397 1.367 . S
C1397 C1396 1.367 . S
C1397 C1399 1.433 . S
C1398 C1394 1.350 . S
C1398 C1395 1.463 . S
C1398 N1402 1.427 . S
C1399 H1389 0.929 . S
C1399 C1397 1.433 . S
C1399 N1402 1.384 . S
C1400 H1391 0.929 . S
C1400 C1392 1.378 . S
C1400 C1395 1.350 . S
C1401 H1388 0.929 . S
C1401 C1393 1.433 . S
C1401 N1403 1.384 . S
N1402 C1398 1.427 . S
N1402 C1399 1.384 . S
N1403 C1395 1.427 . S
N1403 C1401 1.384 . S
H1404 C1410 0.930 . S
H1405 C1414 0.930 . S
H1406 C1419 0.929 . S
H1407 C1417 0.929 . S
H1408 C1412 0.929 . S
H1409 C1418 0.929 . S
C1410 H1404 0.930 . S
C1410 C1411 1.367 . S
C1410 C1418 1.378 . S
C1411 C1410 1.367 . S
C1411 C1419 1.433 . S
C1412 H1408 0.929 . S
C1412 C1414 1.378 . S
C1412 C1416 1.350 . S
C1413 C1416 1.463 . S
C1413 C1418 1.350 . S
C1413 N1421 1.427 . S
C1414 H1405 0.930 . S
C1414 C1412 1.378 . S
C1414 C1415 1.367 . S
C1415 C1414 1.367 . S
C1415 C1417 1.433 . S
C1416 C1412 1.350 . S
C1416 C1413 1.463 . S
C1416 N1420 1.427 . S
C1417 H1407 0.929 . S
C1417 C1415 1.433 . S
C1417 N1420 1.384 . S
C1418 H1409 0.929 . S
C1418 C1410 1.378 . S
C1418 C1413 1.350 . S
C1419 H1406 0.929 . S
C1419 C1411 1.433 . S
C1419 N1421 1.384 . S
N1420 C1416 1.427 . S
N1420 C1417 1.384 . S
N1421 C1413 1.427 . S
N1421 C1419 1.384 . S
H1422 C1428 0.930 . S
H1423 C1432 0.930 . S
H1424 C1437 0.929 . S
H1425 C1435 0.929 . S
H1426 C1430 0.929 . S
H1427 C1436 0.929 . S
C1428 H1422 0.930 . S
C1428 C1429 1.367 . S
C1428 C1436 1.378 . S
C1429 C1428 1.367 . S
C1429 C1437 1.433 . S
C1430 H1426 0.929 . S
C1430 C1432 1.378 . S
C1430 C1434 1.350 . S
C1431 C1434 1.463 . S
C1431 C1436 1.350 . S
C1431 N1439 1.427 . S
C1432 H1423 0.930 . S
C1432 C1430 1.378 . S
C1432 C1433 1.367 . S
C1433 C1432 1.367 . S
C1433 C1435 1.433 . S
C1434 C1430 1.350 . S
C1434 C1431 1.463 . S
C1434 N1438 1.427 . S
C1435 H1425 0.929 . S
C1435 C1433 1.433 . S
C1435 N1438 1.384 . S
C1436 H1427 0.929 . S
C1436 C1428 1.378 . S
C1436 C1431 1.350 . S
C1437 H1424 0.929 . S
C1437 C1429 1.433 . S
C1437 N1439 1.384 . S
N1438 C1434 1.427 . S
N1438 C1435 1.384 . S
N1439 C1431 1.427 . S
N1439 C1437 1.384 . S
H1440 C1446 0.930 . S
H1441 C1450 0.930 . S
H1442 C1455 0.929 . S
H1443 C1453 0.929 . S
H1444 C1448 0.929 . S
H1445 C1454 0.929 . S
C1446 H1440 0.930 . S
C1446 C1447 1.367 . S
C1446 C1454 1.378 . S
C1447 C1446 1.367 . S
C1447 C1455 1.433 . S
C1448 H1444 0.929 . S
C1448 C1450 1.378 . S
C1448 C1452 1.350 . S
C1449 C1452 1.463 . S
C1449 C1454 1.350 . S
C1449 N1457 1.427 . S
C1450 H1441 0.930 . S
C1450 C1448 1.378 . S
C1450 C1451 1.367 . S
C1451 C1450 1.367 . S
C1451 C1453 1.433 . S
C1452 C1448 1.350 . S
C1452 C1449 1.463 . S
C1452 N1456 1.427 . S
C1453 H1443 0.929 . S
C1453 C1451 1.433 . S
C1453 N1456 1.384 . S
C1454 H1445 0.929 . S
C1454 C1446 1.378 . S
C1454 C1449 1.350 . S
C1455 H1442 0.929 . S
C1455 C1447 1.433 . S
C1455 N1457 1.384 . S
N1456 C1452 1.427 . S
N1456 C1453 1.384 . S
N1457 C1449 1.427 . S
N1457 C1455 1.384 . S
H1458 C1464 0.930 . S
H1459 C1468 0.930 . S
H1460 C1473 0.929 . S
H1461 C1471 0.929 . S
H1462 C1466 0.929 . S
H1463 C1472 0.929 . S
C1464 H1458 0.930 . S
C1464 C1465 1.367 . S
C1464 C1472 1.378 . S
C1465 C1464 1.367 . S
C1465 C1473 1.433 . S
C1466 H1462 0.929 . S
C1466 C1468 1.378 . S
C1466 C1470 1.350 . S
C1467 C1470 1.463 . S
C1467 C1472 1.350 . S
C1467 N1475 1.427 . S
C1468 H1459 0.930 . S
C1468 C1466 1.378 . S
C1468 C1469 1.367 . S
C1469 C1468 1.367 . S
C1469 C1471 1.433 . S
C1470 C1466 1.350 . S
C1470 C1467 1.463 . S
C1470 N1474 1.427 . S
C1471 H1461 0.929 . S
C1471 C1469 1.433 . S
C1471 N1474 1.384 . S
C1472 H1463 0.929 . S
C1472 C1464 1.378 . S
C1472 C1467 1.350 . S
C1473 H1460 0.929 . S
C1473 C1465 1.433 . S
C1473 N1475 1.384 . S
N1474 C1470 1.427 . S
N1474 C1471 1.384 . S
N1475 C1467 1.427 . S
N1475 C1473 1.384 . S
H1476 C1482 0.930 . S
H1477 C1486 0.930 . S
H1478 C1491 0.929 . S
H1479 C1489 0.929 . S
H1480 C1484 0.929 . S
H1481 C1490 0.929 . S
C1482 H1476 0.930 . S
C1482 C1483 1.367 . S
C1482 C1490 1.378 . S
C1483 C1482 1.367 . S
C1483 C1491 1.433 . S
C1484 H1480 0.929 . S
C1484 C1486 1.378 . S
C1484 C1488 1.350 . S
C1485 C1488 1.463 . S
C1485 C1490 1.350 . S
C1485 N1493 1.427 . S
C1486 H1477 0.930 . S
C1486 C1484 1.378 . S
C1486 C1487 1.367 . S
C1487 C1486 1.367 . S
C1487 C1489 1.433 . S
C1488 C1484 1.350 . S
C1488 C1485 1.463 . S
C1488 N1492 1.427 . S
C1489 H1479 0.929 . S
C1489 C1487 1.433 . S
C1489 N1492 1.384 . S
C1490 H1481 0.929 . S
C1490 C1482 1.378 . S
C1490 C1485 1.350 . S
C1491 H1478 0.929 . S
C1491 C1483 1.433 . S
C1491 N1493 1.384 . S
N1492 C1488 1.427 . S
N1492 C1489 1.384 . S
N1493 C1485 1.427 . S
N1493 C1491 1.384 . S
H1494 C1500 0.930 . S
H1495 C1504 0.930 . S
H1496 C1509 0.929 . S
H1497 C1507 0.929 . S
H1498 C1502 0.929 . S
H1499 C1508 0.929 . S
C1500 H1494 0.930 . S
C1500 C1501 1.367 . S
C1500 C1508 1.378 . S
C1501 C1500 1.367 . S
C1501 C1509 1.433 . S
C1502 H1498 0.929 . S
C1502 C1504 1.378 . S
C1502 C1506 1.350 . S
C1503 C1506 1.463 . S
C1503 C1508 1.350 . S
C1503 N1511 1.427 . S
C1504 H1495 0.930 . S
C1504 C1502 1.378 . S
C1504 C1505 1.367 . S
C1505 C1504 1.367 . S
C1505 C1507 1.433 . S
C1506 C1502 1.350 . S
C1506 C1503 1.463 . S
C1506 N1510 1.427 . S
C1507 H1497 0.929 . S
C1507 C1505 1.433 . S
C1507 N1510 1.384 . S
C1508 H1499 0.929 . S
C1508 C1500 1.378 . S
C1508 C1503 1.350 . S
C1509 H1496 0.929 . S
C1509 C1501 1.433 . S
C1509 N1511 1.384 . S
N1510 C1506 1.427 . S
N1510 C1507 1.384 . S
N1511 C1503 1.427 . S
N1511 C1509 1.384 . S
H1512 C1518 0.930 . S
H1513 C1522 0.930 . S
H1514 C1527 0.929 . S
H1515 C1525 0.929 . S
H1516 C1520 0.929 . S
H1517 C1526 0.929 . S
C1518 H1512 0.930 . S
C1518 C1519 1.367 . S
C1518 C1526 1.378 . S
C1519 C1518 1.367 . S
C1519 C1527 1.433 . S
C1520 H1516 0.929 . S
C1520 C1522 1.378 . S
C1520 C1524 1.350 . S
C1521 C1524 1.463 . S
C1521 C1526 1.350 . S
C1521 N1529 1.427 . S
C1522 H1513 0.930 . S
C1522 C1520 1.378 . S
C1522 C1523 1.367 . S
C1523 C1522 1.367 . S
C1523 C1525 1.433 . S
C1524 C1520 1.350 . S
C1524 C1521 1.463 . S
C1524 N1528 1.427 . S
C1525 H1515 0.929 . S
C1525 C1523 1.433 . S
C1525 N1528 1.384 . S
C1526 H1517 0.929 . S
C1526 C1518 1.378 . S
C1526 C1521 1.350 . S
C1527 H1514 0.929 . S
C1527 C1519 1.433 . S
C1527 N1529 1.384 . S
N1528 C1524 1.427 . S
N1528 C1525 1.384 . S
N1529 C1521 1.427 . S
N1529 C1527 1.384 . S
H1530 C1536 0.930 . S
H1531 C1540 0.930 . S
H1532 C1545 0.929 . S
H1533 C1543 0.929 . S
H1534 C1538 0.929 . S
H1535 C1544 0.929 . S
C1536 H1530 0.930 . S
C1536 C1537 1.367 . S
C1536 C1544 1.378 . S
C1537 C1536 1.367 . S
C1537 C1545 1.433 . S
C1538 H1534 0.929 . S
C1538 C1540 1.378 . S
C1538 C1542 1.350 . S
C1539 C1542 1.463 . S
C1539 C1544 1.350 . S
C1539 N1547 1.427 . S
C1540 H1531 0.930 . S
C1540 C1538 1.378 . S
C1540 C1541 1.367 . S
C1541 C1540 1.367 . S
C1541 C1543 1.433 . S
C1542 C1538 1.350 . S
C1542 C1539 1.463 . S
C1542 N1546 1.427 . S
C1543 H1533 0.929 . S
C1543 C1541 1.433 . S
C1543 N1546 1.384 . S
C1544 H1535 0.929 . S
C1544 C1536 1.378 . S
C1544 C1539 1.350 . S
C1545 H1532 0.929 . S
C1545 C1537 1.433 . S
C1545 N1547 1.384 . S
N1546 C1542 1.427 . S
N1546 C1543 1.384 . S
N1547 C1539 1.427 . S
N1547 C1545 1.384 . S
H1548 C1554 0.930 . S
H1549 C1558 0.930 . S
H1550 C1563 0.929 . S
H1551 C1561 0.929 . S
H1552 C1556 0.929 . S
H1553 C1562 0.929 . S
C1554 H1548 0.930 . S
C1554 C1555 1.367 . S
C1554 C1562 1.378 . S
C1555 C1554 1.367 . S
C1555 C1563 1.433 . S
C1556 H1552 0.929 . S
C1556 C1558 1.378 . S
C1556 C1560 1.350 . S
C1557 C1560 1.463 . S
C1557 C1562 1.350 . S
C1557 N1565 1.427 . S
C1558 H1549 0.930 . S
C1558 C1556 1.378 . S
C1558 C1559 1.367 . S
C1559 C1558 1.367 . S
C1559 C1561 1.433 . S
C1560 C1556 1.350 . S
C1560 C1557 1.463 . S
C1560 N1564 1.427 . S
C1561 H1551 0.929 . S
C1561 C1559 1.433 . S
C1561 N1564 1.384 . S
C1562 H1553 0.929 . S
C1562 C1554 1.378 . S
C1562 C1557 1.350 . S
C1563 H1550 0.929 . S
C1563 C1555 1.433 . S
C1563 N1565 1.384 . S
N1564 C1560 1.427 . S
N1564 C1561 1.384 . S
N1565 C1557 1.427 . S
N1565 C1563 1.384 . S
H1566 C1572 0.930 . S
H1567 C1576 0.930 . S
H1568 C1581 0.929 . S
H1569 C1579 0.929 . S
H1570 C1574 0.929 . S
H1571 C1580 0.929 . S
C1572 H1566 0.930 . S
C1572 C1573 1.367 . S
C1572 C1580 1.378 . S
C1573 C1572 1.367 . S
C1573 C1581 1.433 . S
C1574 H1570 0.929 . S
C1574 C1576 1.378 . S
C1574 C1578 1.350 . S
C1575 C1578 1.463 . S
C1575 C1580 1.350 . S
C1575 N1583 1.427 . S
C1576 H1567 0.930 . S
C1576 C1574 1.378 . S
C1576 C1577 1.367 . S
C1577 C1576 1.367 . S
C1577 C1579 1.433 . S
C1578 C1574 1.350 . S
C1578 C1575 1.463 . S
C1578 N1582 1.427 . S
C1579 H1569 0.929 . S
C1579 C1577 1.433 . S
C1579 N1582 1.384 . S
C1580 H1571 0.929 . S
C1580 C1572 1.378 . S
C1580 C1575 1.350 . S
C1581 H1568 0.929 . S
C1581 C1573 1.433 . S
C1581 N1583 1.384 . S
N1582 C1578 1.427 . S
N1582 C1579 1.384 . S
N1583 C1575 1.427 . S
N1583 C1581 1.384 . S
H1584 C1590 0.930 . S
H1585 C1594 0.930 . S
H1586 C1599 0.929 . S
H1587 C1597 0.929 . S
H1588 C1592 0.929 . S
H1589 C1598 0.929 . S
C1590 H1584 0.930 . S
C1590 C1591 1.367 . S
C1590 C1598 1.378 . S
C1591 C1590 1.367 . S
C1591 C1599 1.433 . S
C1592 H1588 0.929 . S
C1592 C1594 1.378 . S
C1592 C1596 1.350 . S
C1593 C1596 1.463 . S
C1593 C1598 1.350 . S
C1593 N1601 1.427 . S
C1594 H1585 0.930 . S
C1594 C1592 1.378 . S
C1594 C1595 1.367 . S
C1595 C1594 1.367 . S
C1595 C1597 1.433 . S
C1596 C1592 1.350 . S
C1596 C1593 1.463 . S
C1596 N1600 1.427 . S
C1597 H1587 0.929 . S
C1597 C1595 1.433 . S
C1597 N1600 1.384 . S
C1598 H1589 0.929 . S
C1598 C1590 1.378 . S
C1598 C1593 1.350 . S
C1599 H1586 0.929 . S
C1599 C1591 1.433 . S
C1599 N1601 1.384 . S
N1600 C1596 1.427 . S
N1600 C1597 1.384 . S
N1601 C1593 1.427 . S
N1601 C1599 1.384 . S
H1602 C1608 0.930 . S
H1603 C1612 0.930 . S
H1604 C1617 0.929 . S
H1605 C1615 0.929 . S
H1606 C1610 0.929 . S
H1607 C1616 0.929 . S
C1608 H1602 0.930 . S
C1608 C1609 1.367 . S
C1608 C1616 1.378 . S
C1609 C1608 1.367 . S
C1609 C1617 1.433 . S
C1610 H1606 0.929 . S
C1610 C1612 1.378 . S
C1610 C1614 1.350 . S
C1611 C1614 1.463 . S
C1611 C1616 1.350 . S
C1611 N1619 1.427 . S
C1612 H1603 0.930 . S
C1612 C1610 1.378 . S
C1612 C1613 1.367 . S
C1613 C1612 1.367 . S
C1613 C1615 1.433 . S
C1614 C1610 1.350 . S
C1614 C1611 1.463 . S
C1614 N1618 1.427 . S
C1615 H1605 0.929 . S
C1615 C1613 1.433 . S
C1615 N1618 1.384 . S
C1616 H1607 0.929 . S
C1616 C1608 1.378 . S
C1616 C1611 1.350 . S
C1617 H1604 0.929 . S
C1617 C1609 1.433 . S
C1617 N1619 1.384 . S
N1618 C1614 1.427 . S
N1618 C1615 1.384 . S
N1619 C1611 1.427 . S
N1619 C1617 1.384 . S
H1620 C1626 0.930 . S
H1621 C1630 0.930 . S
H1622 C1635 0.929 . S
H1623 C1633 0.929 . S
H1624 C1628 0.929 . S
H1625 C1634 0.929 . S
C1626 H1620 0.930 . S
C1626 C1627 1.367 . S
C1626 C1634 1.378 . S
C1627 C1626 1.367 . S
C1627 C1635 1.433 . S
C1628 H1624 0.929 . S
C1628 C1630 1.378 . S
C1628 C1632 1.350 . S
C1629 C1632 1.463 . S
C1629 C1634 1.350 . S
C1629 N1637 1.427 . S
C1630 H1621 0.930 . S
C1630 C1628 1.378 . S
C1630 C1631 1.367 . S
C1631 C1630 1.367 . S
C1631 C1633 1.433 . S
C1632 C1628 1.350 . S
C1632 C1629 1.463 . S
C1632 N1636 1.427 . S
C1633 H1623 0.929 . S
C1633 C1631 1.433 . S
C1633 N1636 1.384 . S
C1634 H1625 0.929 . S
C1634 C1626 1.378 . S
C1634 C1629 1.350 . S
C1635 H1622 0.929 . S
C1635 C1627 1.433 . S
C1635 N1637 1.384 . S
N1636 C1632 1.427 . S
N1636 C1633 1.384 . S
N1637 C1629 1.427 . S
N1637 C1635 1.384 . S
H1638 C1644 0.930 . S
H1639 C1648 0.930 . S
H1640 C1653 0.929 . S
H1641 C1651 0.929 . S
H1642 C1646 0.929 . S
H1643 C1652 0.929 . S
C1644 H1638 0.930 . S
C1644 C1645 1.367 . S
C1644 C1652 1.378 . S
C1645 C1644 1.367 . S
C1645 C1653 1.433 . S
C1646 H1642 0.929 . S
C1646 C1648 1.378 . S
C1646 C1650 1.350 . S
C1647 C1650 1.463 . S
C1647 C1652 1.350 . S
C1647 N1655 1.427 . S
C1648 H1639 0.930 . S
C1648 C1646 1.378 . S
C1648 C1649 1.367 . S
C1649 C1648 1.367 . S
C1649 C1651 1.433 . S
C1650 C1646 1.350 . S
C1650 C1647 1.463 . S
C1650 N1654 1.427 . S
C1651 H1641 0.929 . S
C1651 C1649 1.433 . S
C1651 N1654 1.384 . S
C1652 H1643 0.929 . S
C1652 C1644 1.378 . S
C1652 C1647 1.350 . S
C1653 H1640 0.929 . S
C1653 C1645 1.433 . S
C1653 N1655 1.384 . S
N1654 C1650 1.427 . S
N1654 C1651 1.384 . S
N1655 C1647 1.427 . S
N1655 C1653 1.384 . S
H1656 C1662 0.930 . S
H1657 C1666 0.930 . S
H1658 C1671 0.929 . S
H1659 C1669 0.929 . S
H1660 C1664 0.929 . S
H1661 C1670 0.929 . S
C1662 H1656 0.930 . S
C1662 C1663 1.367 . S
C1662 C1670 1.378 . S
C1663 C1662 1.367 . S
C1663 C1671 1.433 . S
C1664 H1660 0.929 . S
C1664 C1666 1.378 . S
C1664 C1668 1.350 . S
C1665 C1668 1.463 . S
C1665 C1670 1.350 . S
C1665 N1673 1.427 . S
C1666 H1657 0.930 . S
C1666 C1664 1.378 . S
C1666 C1667 1.367 . S
C1667 C1666 1.367 . S
C1667 C1669 1.433 . S
C1668 C1664 1.350 . S
C1668 C1665 1.463 . S
C1668 N1672 1.427 . S
C1669 H1659 0.929 . S
C1669 C1667 1.433 . S
C1669 N1672 1.384 . S
C1670 H1661 0.929 . S
C1670 C1662 1.378 . S
C1670 C1665 1.350 . S
C1671 H1658 0.929 . S
C1671 C1663 1.433 . S
C1671 N1673 1.384 . S
N1672 C1668 1.427 . S
N1672 C1669 1.384 . S
N1673 C1665 1.427 . S
N1673 C1671 1.384 . S
H1674 C1680 0.930 . S
H1675 C1684 0.930 . S
H1676 C1689 0.929 . S
H1677 C1687 0.929 . S
H1678 C1682 0.929 . S
H1679 C1688 0.929 . S
C1680 H1674 0.930 . S
C1680 C1681 1.367 . S
C1680 C1688 1.378 . S
C1681 C1680 1.367 . S
C1681 C1689 1.433 . S
C1682 H1678 0.929 . S
C1682 C1684 1.378 . S
C1682 C1686 1.350 . S
C1683 C1686 1.463 . S
C1683 C1688 1.350 . S
C1683 N1691 1.427 . S
C1684 H1675 0.930 . S
C1684 C1682 1.378 . S
C1684 C1685 1.367 . S
C1685 C1684 1.367 . S
C1685 C1687 1.433 . S
C1686 C1682 1.350 . S
C1686 C1683 1.463 . S
C1686 N1690 1.427 . S
C1687 H1677 0.929 . S
C1687 C1685 1.433 . S
C1687 N1690 1.384 . S
C1688 H1679 0.929 . S
C1688 C1680 1.378 . S
C1688 C1683 1.350 . S
C1689 H1676 0.929 . S
C1689 C1681 1.433 . S
C1689 N1691 1.384 . S
N1690 C1686 1.427 . S
N1690 C1687 1.384 . S
N1691 C1683 1.427 . S
N1691 C1689 1.384 . S
H1692 C1698 0.930 . S
H1693 C1702 0.930 . S
H1694 C1707 0.929 . S
H1695 C1705 0.929 . S
H1696 C1700 0.929 . S
H1697 C1706 0.929 . S
C1698 H1692 0.930 . S
C1698 C1699 1.367 . S
C1698 C1706 1.378 . S
C1699 C1698 1.367 . S
C1699 C1707 1.433 . S
C1700 H1696 0.929 . S
C1700 C1702 1.378 . S
C1700 C1704 1.350 . S
C1701 C1704 1.463 . S
C1701 C1706 1.350 . S
C1701 N1709 1.427 . S
C1702 H1693 0.930 . S
C1702 C1700 1.378 . S
C1702 C1703 1.367 . S
C1703 C1702 1.367 . S
C1703 C1705 1.433 . S
C1704 C1700 1.350 . S
C1704 C1701 1.463 . S
C1704 N1708 1.427 . S
C1705 H1695 0.929 . S
C1705 C1703 1.433 . S
C1705 N1708 1.384 . S
C1706 H1697 0.929 . S
C1706 C1698 1.378 . S
C1706 C1701 1.350 . S
C1707 H1694 0.929 . S
C1707 C1699 1.433 . S
C1707 N1709 1.384 . S
N1708 C1704 1.427 . S
N1708 C1705 1.384 . S
N1709 C1701 1.427 . S
N1709 C1707 1.384 . S
H1710 C1716 0.930 . S
H1711 C1720 0.930 . S
H1712 C1725 0.929 . S
H1713 C1723 0.929 . S
H1714 C1718 0.929 . S
H1715 C1724 0.929 . S
C1716 H1710 0.930 . S
C1716 C1717 1.367 . S
C1716 C1724 1.378 . S
C1717 C1716 1.367 . S
C1717 C1725 1.433 . S
C1718 H1714 0.929 . S
C1718 C1720 1.378 . S
C1718 C1722 1.350 . S
C1719 C1722 1.463 . S
C1719 C1724 1.350 . S
C1719 N1727 1.427 . S
C1720 H1711 0.930 . S
C1720 C1718 1.378 . S
C1720 C1721 1.367 . S
C1721 C1720 1.367 . S
C1721 C1723 1.433 . S
C1722 C1718 1.350 . S
C1722 C1719 1.463 . S
C1722 N1726 1.427 . S
C1723 H1713 0.929 . S
C1723 C1721 1.433 . S
C1723 N1726 1.384 . S
C1724 H1715 0.929 . S
C1724 C1716 1.378 . S
C1724 C1719 1.350 . S
C1725 H1712 0.929 . S
C1725 C1717 1.433 . S
C1725 N1727 1.384 . S
N1726 C1722 1.427 . S
N1726 C1723 1.384 . S
N1727 C1719 1.427 . S
N1727 C1725 1.384 . S
H1728 C1734 0.930 . S
H1729 C1738 0.930 . S
H1730 C1743 0.929 . S
H1731 C1741 0.929 . S
H1732 C1736 0.929 . S
H1733 C1742 0.929 . S
C1734 H1728 0.930 . S
C1734 C1735 1.367 . S
C1734 C1742 1.378 . S
C1735 C1734 1.367 . S
C1735 C1743 1.433 . S
C1736 H1732 0.929 . S
C1736 C1738 1.378 . S
C1736 C1740 1.350 . S
C1737 C1740 1.463 . S
C1737 C1742 1.350 . S
C1737 N1745 1.427 . S
C1738 H1729 0.930 . S
C1738 C1736 1.378 . S
C1738 C1739 1.367 . S
C1739 C1738 1.367 . S
C1739 C1741 1.433 . S
C1740 C1736 1.350 . S
C1740 C1737 1.463 . S
C1740 N1744 1.427 . S
C1741 H1731 0.929 . S
C1741 C1739 1.433 . S
C1741 N1744 1.384 . S
C1742 H1733 0.929 . S
C1742 C1734 1.378 . S
C1742 C1737 1.350 . S
C1743 H1730 0.929 . S
C1743 C1735 1.433 . S
C1743 N1745 1.384 . S
N1744 C1740 1.427 . S
N1744 C1741 1.384 . S
N1745 C1737 1.427 . S
N1745 C1743 1.384 . S
H1746 C1752 0.930 . S
H1747 C1756 0.930 . S
H1748 C1761 0.929 . S
H1749 C1759 0.929 . S
H1750 C1754 0.929 . S
H1751 C1760 0.929 . S
C1752 H1746 0.930 . S
C1752 C1753 1.367 . S
C1752 C1760 1.378 . S
C1753 C1752 1.367 . S
C1753 C1761 1.433 . S
C1754 H1750 0.929 . S
C1754 C1756 1.378 . S
C1754 C1758 1.350 . S
C1755 C1758 1.463 . S
C1755 C1760 1.350 . S
C1755 N1763 1.427 . S
C1756 H1747 0.930 . S
C1756 C1754 1.378 . S
C1756 C1757 1.367 . S
C1757 C1756 1.367 . S
C1757 C1759 1.433 . S
C1758 C1754 1.350 . S
C1758 C1755 1.463 . S
C1758 N1762 1.427 . S
C1759 H1749 0.929 . S
C1759 C1757 1.433 . S
C1759 N1762 1.384 . S
C1760 H1751 0.929 . S
C1760 C1752 1.378 . S
C1760 C1755 1.350 . S
C1761 H1748 0.929 . S
C1761 C1753 1.433 . S
C1761 N1763 1.384 . S
N1762 C1758 1.427 . S
N1762 C1759 1.384 . S
N1763 C1755 1.427 . S
N1763 C1761 1.384 . S
H1764 C1770 0.930 . S
H1765 C1774 0.930 . S
H1766 C1779 0.929 . S
H1767 C1777 0.929 . S
H1768 C1772 0.929 . S
H1769 C1778 0.929 . S
C1770 H1764 0.930 . S
C1770 C1771 1.367 . S
C1770 C1778 1.378 . S
C1771 C1770 1.367 . S
C1771 C1779 1.433 . S
C1772 H1768 0.929 . S
C1772 C1774 1.378 . S
C1772 C1776 1.350 . S
C1773 C1776 1.463 . S
C1773 C1778 1.350 . S
C1773 N1781 1.427 . S
C1774 H1765 0.930 . S
C1774 C1772 1.378 . S
C1774 C1775 1.367 . S
C1775 C1774 1.367 . S
C1775 C1777 1.433 . S
C1776 C1772 1.350 . S
C1776 C1773 1.463 . S
C1776 N1780 1.427 . S
C1777 H1767 0.929 . S
C1777 C1775 1.433 . S
C1777 N1780 1.384 . S
C1778 H1769 0.929 . S
C1778 C1770 1.378 . S
C1778 C1773 1.350 . S
C1779 H1766 0.929 . S
C1779 C1771 1.433 . S
C1779 N1781 1.384 . S
N1780 C1776 1.427 . S
N1780 C1777 1.384 . S
N1781 C1773 1.427 . S
N1781 C1779 1.384 . S
H1782 C1788 0.930 . S
H1783 C1792 0.930 . S
H1784 C1797 0.929 . S
H1785 C1795 0.929 . S
H1786 C1790 0.929 . S
H1787 C1796 0.929 . S
C1788 H1782 0.930 . S
C1788 C1789 1.367 . S
C1788 C1796 1.378 . S
C1789 C1788 1.367 . S
C1789 C1797 1.433 . S
C1790 H1786 0.929 . S
C1790 C1792 1.378 . S
C1790 C1794 1.350 . S
C1791 C1794 1.463 . S
C1791 C1796 1.350 . S
C1791 N1799 1.427 . S
C1792 H1783 0.930 . S
C1792 C1790 1.378 . S
C1792 C1793 1.367 . S
C1793 C1792 1.367 . S
C1793 C1795 1.433 . S
C1794 C1790 1.350 . S
C1794 C1791 1.463 . S
C1794 N1798 1.427 . S
C1795 H1785 0.929 . S
C1795 C1793 1.433 . S
C1795 N1798 1.384 . S
C1796 H1787 0.929 . S
C1796 C1788 1.378 . S
C1796 C1791 1.350 . S
C1797 H1784 0.929 . S
C1797 C1789 1.433 . S
C1797 N1799 1.384 . S
N1798 C1794 1.427 . S
N1798 C1795 1.384 . S
N1799 C1791 1.427 . S
N1799 C1797 1.384 . S
H1800 C1806 0.930 . S
H1801 C1810 0.930 . S
H1802 C1815 0.929 . S
H1803 C1813 0.929 . S
H1804 C1808 0.929 . S
H1805 C1814 0.929 . S
C1806 H1800 0.930 . S
C1806 C1807 1.367 . S
C1806 C1814 1.378 . S
C1807 C1806 1.367 . S
C1807 C1815 1.433 . S
C1808 H1804 0.929 . S
C1808 C1810 1.378 . S
C1808 C1812 1.350 . S
C1809 C1812 1.463 . S
C1809 C1814 1.350 . S
C1809 N1817 1.427 . S
C1810 H1801 0.930 . S
C1810 C1808 1.378 . S
C1810 C1811 1.367 . S
C1811 C1810 1.367 . S
C1811 C1813 1.433 . S
C1812 C1808 1.350 . S
C1812 C1809 1.463 . S
C1812 N1816 1.427 . S
C1813 H1803 0.929 . S
C1813 C1811 1.433 . S
C1813 N1816 1.384 . S
C1814 H1805 0.929 . S
C1814 C1806 1.378 . S
C1814 C1809 1.350 . S
C1815 H1802 0.929 . S
C1815 C1807 1.433 . S
C1815 N1817 1.384 . S
N1816 C1812 1.427 . S
N1816 C1813 1.384 . S
N1817 C1809 1.427 . S
N1817 C1815 1.384 . S
H1818 C1824 0.930 . S
H1819 C1828 0.930 . S
H1820 C1833 0.929 . S
H1821 C1831 0.929 1_545 S
H1822 C1826 0.929 . S
H1823 C1832 0.929 . S
C1824 H1818 0.930 . S
C1824 C1825 1.367 . S
C1824 C1832 1.378 . S
C1825 C1824 1.367 . S
C1825 C1833 1.433 . S
C1826 H1822 0.929 . S
C1826 C1828 1.378 . S
C1826 C1830 1.350 . S
C1827 C1830 1.463 . S
C1827 C1832 1.350 . S
C1827 N1835 1.427 . S
C1828 H1819 0.930 . S
C1828 C1826 1.378 . S
C1828 C1829 1.367 . S
C1829 C1828 1.367 . S
C1829 C1831 1.433 . S
C1830 C1826 1.350 . S
C1830 C1827 1.463 . S
C1830 N1834 1.427 . S
C1831 H1821 0.929 1_565 S
C1831 C1829 1.433 . S
C1831 N1834 1.384 . S
C1832 H1823 0.929 . S
C1832 C1824 1.378 . S
C1832 C1827 1.350 . S
C1833 H1820 0.929 . S
C1833 C1825 1.433 . S
C1833 N1835 1.384 . S
N1834 C1830 1.427 . S
N1834 C1831 1.384 . S
N1835 C1827 1.427 . S
N1835 C1833 1.384 . S
H1836 C1842 0.930 . S
H1837 C1846 0.930 . S
H1838 C1851 0.929 . S
H1839 C1849 0.929 . S
H1840 C1844 0.929 . S
H1841 C1850 0.929 . S
C1842 H1836 0.930 . S
C1842 C1843 1.367 1_455 S
C1842 C1850 1.378 . S
C1843 C1842 1.367 1_655 S
C1843 C1851 1.433 . S
C1844 H1840 0.929 . S
C1844 C1846 1.378 . S
C1844 C1848 1.350 . S
C1845 C1848 1.463 . S
C1845 C1850 1.350 . S
C1845 N1853 1.467 . S
C1846 H1837 0.930 . S
C1846 C1844 1.378 . S
C1846 C1847 1.367 . S
C1847 C1846 1.367 . S
C1847 C1849 1.433 . S
C1848 C1844 1.350 . S
C1848 C1845 1.463 . S
C1848 N1852 1.427 . S
C1849 H1839 0.929 . S
C1849 C1847 1.433 . S
C1849 N1852 1.384 . S
C1850 H1841 0.929 . S
C1850 C1842 1.378 . S
C1850 C1845 1.350 . S
C1851 H1838 0.929 . S
C1851 C1843 1.433 . S
C1851 N1853 1.336 1_655 S
N1852 C1848 1.427 . S
N1852 C1849 1.384 . S
N1853 C1845 1.467 . S
N1853 C1851 1.336 1_455 S
H1854 C1860 0.930 . S
H1855 C1864 0.930 . S
H1856 C1869 0.929 . S
H1857 C1867 0.929 . S
H1858 C1862 0.929 . S
H1859 C1868 0.929 . S
C1860 H1854 0.930 . S
C1860 C1861 1.367 . S
C1860 C1868 1.378 . S
C1861 C1860 1.367 . S
C1861 C1869 1.433 . S
C1862 H1858 0.929 . S
C1862 C1864 1.378 . S
C1862 C1866 1.350 . S
C1863 C1866 1.463 . S
C1863 C1868 1.350 . S
C1863 N1871 1.427 . S
C1864 H1855 0.930 . S
C1864 C1862 1.378 . S
C1864 C1865 1.367 . S
C1865 C1864 1.367 . S
C1865 C1867 1.433 . S
C1866 C1862 1.350 . S
C1866 C1863 1.463 . S
C1866 N1870 1.427 . S
C1867 H1857 0.929 . S
C1867 C1865 1.433 . S
C1867 N1870 1.384 . S
C1868 H1859 0.929 . S
C1868 C1860 1.378 . S
C1868 C1863 1.350 . S
C1869 H1856 0.929 . S
C1869 C1861 1.433 . S
C1869 N1871 1.384 . S
N1870 C1866 1.427 . S
N1870 C1867 1.384 . S
N1871 C1863 1.427 . S
N1871 C1869 1.384 . S
H1872 C1878 0.930 . S
H1873 C1882 0.930 1_565 S
H1874 C1887 0.929 . S
H1875 C1885 0.929 . S
H1876 C1880 0.929 . S
H1877 C1886 0.929 . S
C1878 H1872 0.930 . S
C1878 C1879 1.367 . S
C1878 C1886 1.378 . S
C1879 C1878 1.367 . S
C1879 C1887 1.433 . S
C1880 H1876 0.929 . S
C1880 C1882 1.378 . S
C1880 C1884 1.350 . S
C1881 C1884 1.463 . S
C1881 C1886 1.350 . S
C1881 N1889 1.427 . S
C1882 H1873 0.930 1_545 S
C1882 C1880 1.378 . S
C1882 C1883 1.367 . S
C1883 C1882 1.367 . S
C1883 C1885 1.433 . S
C1884 C1880 1.350 . S
C1884 C1881 1.463 . S
C1884 N1888 1.427 . S
C1885 H1875 0.929 . S
C1885 C1883 1.433 . S
C1885 N1888 1.384 . S
C1886 H1877 0.929 . S
C1886 C1878 1.378 . S
C1886 C1881 1.350 . S
C1887 H1874 0.929 . S
C1887 C1879 1.433 . S
C1887 N1889 1.384 . S
N1888 C1884 1.427 . S
N1888 C1885 1.384 . S
N1889 C1881 1.427 . S
N1889 C1887 1.384 . S
H1890 C1896 0.930 . S
H1891 C1900 0.930 . S
H1892 C1905 0.929 . S
H1893 C1903 0.929 . S
H1894 C1898 0.929 . S
H1895 C1904 0.929 . S
C1896 H1890 0.930 . S
C1896 C1897 1.367 1_655 S
C1896 C1904 1.378 . S
C1897 C1896 1.367 1_455 S
C1897 C1905 1.433 . S
C1898 H1894 0.929 . S
C1898 C1900 1.378 . S
C1898 C1902 1.350 . S
C1899 C1902 1.463 . S
C1899 C1904 1.350 . S
C1899 N1907 1.427 1_655 S
C1900 H1891 0.930 . S
C1900 C1898 1.378 . S
C1900 C1901 1.367 . S
C1901 C1900 1.367 . S
C1901 C1903 1.433 . S
C1902 C1898 1.350 . S
C1902 C1899 1.463 . S
C1902 N1906 1.427 . S
C1903 H1893 0.929 . S
C1903 C1901 1.433 . S
C1903 N1906 1.384 . S
C1904 H1895 0.929 . S
C1904 C1896 1.378 . S
C1904 C1899 1.350 . S
C1905 H1892 0.929 . S
C1905 C1897 1.433 . S
C1905 N1907 1.384 . S
N1906 C1902 1.427 . S
N1906 C1903 1.384 . S
N1907 C1899 1.427 1_455 S
N1907 C1905 1.384 . S
H1908 C1914 0.930 . S
H1909 C1918 0.930 . S
H1910 C1923 0.929 . S
H1911 C1921 0.929 . S
H1912 C1916 0.929 . S
H1913 C1922 0.929 . S
C1914 H1908 0.930 . S
C1914 C1915 1.367 . S
C1914 C1922 1.378 . S
C1915 C1914 1.367 . S
C1915 C1923 1.433 . S
C1916 H1912 0.929 . S
C1916 C1918 1.378 . S
C1916 C1920 1.350 . S
C1917 C1920 1.463 . S
C1917 C1922 1.350 . S
C1917 N1925 1.427 . S
C1918 H1909 0.930 . S
C1918 C1916 1.378 . S
C1918 C1919 1.367 . S
C1919 C1918 1.367 . S
C1919 C1921 1.433 . S
C1920 C1916 1.350 . S
C1920 C1917 1.463 . S
C1920 N1924 1.427 . S
C1921 H1911 0.929 . S
C1921 C1919 1.433 . S
C1921 N1924 1.384 . S
C1922 H1913 0.929 . S
C1922 C1914 1.378 . S
C1922 C1917 1.350 . S
C1923 H1910 0.929 . S
C1923 C1915 1.433 . S
C1923 N1925 1.384 . S
N1924 C1920 1.427 . S
N1924 C1921 1.384 . S
N1925 C1917 1.427 . S
N1925 C1923 1.384 . S
H1926 C1932 0.930 . S
H1927 C1936 0.930 . S
H1928 C1941 0.929 . S
H1929 C1939 0.929 . S
H1930 C1934 0.929 . S
H1931 C1940 0.929 . S
C1932 H1926 0.930 . S
C1932 C1933 1.367 . S
C1932 C1940 1.378 . S
C1933 C1932 1.367 . S
C1933 C1941 1.433 1_565 S
C1934 H1930 0.929 . S
C1934 C1936 1.378 . S
C1934 C1938 1.350 . S
C1935 C1938 1.463 . S
C1935 C1940 1.350 1_545 S
C1935 N1943 1.427 . S
C1936 H1927 0.930 . S
C1936 C1934 1.378 . S
C1936 C1937 1.367 . S
C1937 C1936 1.367 . S
C1937 C1939 1.433 . S
C1938 C1934 1.350 . S
C1938 C1935 1.463 . S
C1938 N1942 1.427 . S
C1939 H1929 0.929 . S
C1939 C1937 1.433 . S
C1939 N1942 1.384 . S
C1940 H1931 0.929 . S
C1940 C1932 1.378 . S
C1940 C1935 1.350 1_565 S
C1941 H1928 0.929 . S
C1941 C1933 1.433 1_545 S
C1941 N1943 1.384 . S
N1942 C1938 1.427 . S
N1942 C1939 1.384 . S
N1943 C1935 1.427 . S
N1943 C1941 1.384 . S
H1944 C1950 0.930 . S
H1945 C1954 0.930 . S
H1946 C1959 0.929 . S
H1947 C1957 0.929 . S
H1948 C1952 0.929 . S
H1949 C1958 0.929 . S
C1950 H1944 0.930 . S
C1950 C1951 1.367 1_655 S
C1950 C1958 1.378 . S
C1951 C1950 1.367 1_455 S
C1951 C1959 1.433 . S
C1952 H1948 0.929 . S
C1952 C1954 1.378 . S
C1952 C1956 1.350 . S
C1953 C1956 1.463 . S
C1953 C1958 1.350 . S
C1953 N1961 1.427 . S
C1954 H1945 0.930 . S
C1954 C1952 1.378 . S
C1954 C1955 1.367 . S
C1955 C1954 1.367 . S
C1955 C1957 1.433 . S
C1956 C1952 1.350 . S
C1956 C1953 1.463 . S
C1956 N1960 1.427 . S
C1957 H1947 0.929 . S
C1957 C1955 1.433 . S
C1957 N1960 1.384 . S
C1958 H1949 0.929 . S
C1958 C1950 1.378 . S
C1958 C1953 1.350 . S
C1959 H1946 0.929 . S
C1959 C1951 1.433 . S
C1959 N1961 1.384 1_455 S
N1960 C1956 1.427 . S
N1960 C1957 1.384 . S
N1961 C1953 1.427 . S
N1961 C1959 1.384 1_655 S
H1962 C1968 0.930 . S
H1963 C1972 0.930 . S
H1964 C1977 0.929 . S
H1965 C1975 0.929 . S
H1966 C1970 0.929 . S
H1967 C1976 0.929 . S
C1968 H1962 0.930 . S
C1968 C1969 1.367 . S
C1968 C1976 1.378 . S
C1969 C1968 1.367 . S
C1969 C1977 1.433 . S
C1970 H1966 0.929 . S
C1970 C1972 1.378 . S
C1970 C1974 1.350 . S
C1971 C1974 1.463 . S
C1971 C1976 1.350 . S
C1971 N1979 1.427 . S
C1972 H1963 0.930 . S
C1972 C1970 1.378 . S
C1972 C1973 1.367 . S
C1973 C1972 1.367 . S
C1973 C1975 1.433 . S
C1974 C1970 1.350 . S
C1974 C1971 1.463 . S
C1974 N1978 1.427 . S
C1975 H1965 0.929 . S
C1975 C1973 1.433 . S
C1975 N1978 1.384 . S
C1976 H1967 0.929 . S
C1976 C1968 1.378 . S
C1976 C1971 1.350 . S
C1977 H1964 0.929 . S
C1977 C1969 1.433 . S
C1977 N1979 1.384 . S
N1978 C1974 1.427 . S
N1978 C1975 1.384 . S
N1979 C1971 1.427 . S
N1979 C1977 1.384 . S
H1980 C1986 0.930 . S
H1981 C1990 0.930 . S
H1982 C1995 0.929 . S
H1983 C1993 0.929 . S
H1984 C1988 0.929 1_545 S
H1985 C1994 0.929 . S
C1986 H1980 0.930 . S
C1986 C1987 1.367 1_565 S
C1986 C1994 1.378 . S
C1987 C1986 1.367 1_545 S
C1987 C1995 1.433 . S
C1988 H1984 0.929 1_565 S
C1988 C1990 1.378 . S
C1988 C1992 1.350 . S
C1989 C1992 1.463 . S
C1989 C1994 1.350 . S
C1989 N1997 1.427 1_565 S
C1990 H1981 0.930 . S
C1990 C1988 1.378 . S
C1990 C1991 1.367 . S
C1991 C1990 1.367 . S
C1991 C1993 1.433 . S
C1992 C1988 1.350 . S
C1992 C1989 1.463 . S
C1992 N1996 1.427 . S
C1993 H1983 0.929 . S
C1993 C1991 1.433 . S
C1993 N1996 1.384 . S
C1994 H1985 0.929 . S
C1994 C1986 1.378 . S
C1994 C1989 1.350 . S
C1995 H1982 0.929 . S
C1995 C1987 1.433 . S
C1995 N1997 1.384 . S
N1996 C1992 1.427 . S
N1996 C1993 1.384 . S
N1997 C1989 1.427 1_545 S
N1997 C1995 1.384 . S
H1998 C2004 0.930 . S
H1999 C2008 0.930 . S
H2000 C2013 0.929 . S
H2001 C2011 0.929 . S
H2002 C2006 0.929 . S
H2003 C2012 0.929 . S
C2004 H1998 0.930 . S
C2004 C2005 1.367 . S
C2004 C2012 1.378 . S
C2005 C2004 1.367 . S
C2005 C2013 1.433 . S
C2006 H2002 0.929 . S
C2006 C2008 1.378 . S
C2006 C2010 1.350 . S
C2007 C2010 1.463 . S
C2007 C2012 1.350 . S
C2007 N2015 1.427 . S
C2008 H1999 0.930 . S
C2008 C2006 1.378 . S
C2008 C2009 1.367 1_455 S
C2009 C2008 1.367 1_655 S
C2009 C2011 1.433 . S
C2010 C2006 1.350 . S
C2010 C2007 1.463 . S
C2010 N2014 1.427 1_455 S
C2011 H2001 0.929 . S
C2011 C2009 1.433 . S
C2011 N2014 1.384 . S
C2012 H2003 0.929 . S
C2012 C2004 1.378 . S
C2012 C2007 1.350 . S
C2013 H2000 0.929 . S
C2013 C2005 1.433 . S
C2013 N2015 1.384 . S
N2014 C2010 1.427 1_655 S
N2014 C2011 1.384 . S
N2015 C2007 1.427 . S
N2015 C2013 1.384 . S
H2016 C2022 0.930 . S
H2017 C2026 0.930 . S
H2018 C2031 0.929 . S
H2019 C2029 0.929 . S
H2020 C2024 0.929 1_655 S
H2021 C2030 0.929 . S
C2022 H2016 0.930 . S
C2022 C2023 1.367 . S
C2022 C2030 1.378 . S
C2023 C2022 1.367 . S
C2023 C2031 1.433 . S
C2024 H2020 0.929 1_455 S
C2024 C2026 1.378 . S
C2024 C2028 1.350 1_455 S
C2025 C2028 1.463 . S
C2025 C2030 1.350 . S
C2025 N2033 1.427 . S
C2026 H2017 0.930 . S
C2026 C2024 1.378 . S
C2026 C2027 1.367 . S
C2027 C2026 1.367 . S
C2027 C2029 1.433 . S
C2028 C2024 1.350 1_655 S
C2028 C2025 1.463 . S
C2028 N2032 1.427 1_655 S
C2029 H2019 0.929 . S
C2029 C2027 1.433 . S
C2029 N2032 1.384 . S
C2030 H2021 0.929 . S
C2030 C2022 1.378 . S
C2030 C2025 1.350 . S
C2031 H2018 0.929 . S
C2031 C2023 1.433 . S
C2031 N2033 1.384 . S
N2032 C2028 1.427 1_455 S
N2032 C2029 1.384 . S
N2033 C2025 1.427 . S
N2033 C2031 1.384 . S
H2034 C2040 0.930 . S
H2035 C2044 0.930 . S
H2036 C2049 0.929 . S
H2037 C2047 0.929 . S
H2038 C2042 0.929 . S
H2039 C2048 0.929 . S
C2040 H2034 0.930 . S
C2040 C2041 1.367 . S
C2040 C2048 1.378 . S
C2041 C2040 1.367 . S
C2041 C2049 1.433 . S
C2042 H2038 0.929 . S
C2042 C2044 1.378 . S
C2042 C2046 1.350 . S
C2043 C2046 1.463 . S
C2043 C2048 1.350 . S
C2043 N2051 1.427 . S
C2044 H2035 0.930 . S
C2044 C2042 1.378 . S
C2044 C2045 1.367 . S
C2045 C2044 1.367 . S
C2045 C2047 1.433 . S
C2046 C2042 1.350 . S
C2046 C2043 1.463 . S
C2046 N2050 1.427 . S
C2047 H2037 0.929 . S
C2047 C2045 1.433 . S
C2047 N2050 1.384 . S
C2048 H2039 0.929 . S
C2048 C2040 1.378 . S
C2048 C2043 1.350 . S
C2049 H2036 0.929 . S
C2049 C2041 1.433 . S
C2049 N2051 1.384 . S
N2050 C2046 1.427 . S
N2050 C2047 1.384 . S
N2051 C2043 1.427 . S
N2051 C2049 1.384 . S
H2052 C2058 0.930 . S
H2053 C2062 0.930 . S
H2054 C2067 0.929 . S
H2055 C2065 0.929 . S
H2056 C2060 0.929 . S
H2057 C2066 0.929 . S
C2058 H2052 0.930 . S
C2058 C2059 1.367 . S
C2058 C2066 1.378 . S
C2059 C2058 1.367 . S
C2059 C2067 1.433 . S
C2060 H2056 0.929 . S
C2060 C2062 1.378 . S
C2060 C2064 1.350 . S
C2061 C2064 1.463 1_565 S
C2061 C2066 1.350 . S
C2061 N2069 1.427 . S
C2062 H2053 0.930 . S
C2062 C2060 1.378 . S
C2062 C2063 1.367 . S
C2063 C2062 1.367 . S
C2063 C2065 1.433 . S
C2064 C2060 1.350 . S
C2064 C2061 1.463 1_545 S
C2064 N2068 1.427 . S
C2065 H2055 0.929 . S
C2065 C2063 1.433 . S
C2065 N2068 1.384 . S
C2066 H2057 0.929 . S
C2066 C2058 1.378 . S
C2066 C2061 1.350 . S
C2067 H2054 0.929 . S
C2067 C2059 1.433 . S
C2067 N2069 1.384 . S
N2068 C2064 1.427 . S
N2068 C2065 1.384 . S
N2069 C2061 1.427 . S
N2069 C2067 1.384 . S
H2070 C2076 0.930 . S
H2071 C2080 0.930 . S
H2072 C2085 0.929 . S
H2073 C2083 0.929 . S
H2074 C2078 0.929 . S
H2075 C2084 0.929 . S
C2076 H2070 0.930 . S
C2076 C2077 1.367 . S
C2076 C2084 1.378 . S
C2077 C2076 1.367 . S
C2077 C2085 1.433 . S
C2078 H2074 0.929 . S
C2078 C2080 1.378 . S
C2078 C2082 1.350 . S
C2079 C2082 1.463 1_565 S
C2079 C2084 1.350 . S
C2079 N2087 1.427 . S
C2080 H2071 0.930 . S
C2080 C2078 1.378 . S
C2080 C2081 1.367 . S
C2081 C2080 1.367 . S
C2081 C2083 1.433 . S
C2082 C2078 1.350 . S
C2082 C2079 1.463 1_545 S
C2082 N2086 1.427 . S
C2083 H2073 0.929 . S
C2083 C2081 1.433 . S
C2083 N2086 1.384 . S
C2084 H2075 0.929 . S
C2084 C2076 1.378 . S
C2084 C2079 1.350 . S
C2085 H2072 0.929 . S
C2085 C2077 1.433 . S
C2085 N2087 1.384 . S
N2086 C2082 1.427 . S
N2086 C2083 1.384 . S
N2087 C2079 1.427 . S
N2087 C2085 1.384 . S
H2088 C2094 0.930 . S
H2089 C2098 0.930 . S
H2090 C2103 0.929 . S
H2091 C2101 0.929 . S
H2092 C2096 0.929 . S
H2093 C2102 0.929 . S
C2094 H2088 0.930 . S
C2094 C2095 1.367 . S
C2094 C2102 1.378 . S
C2095 C2094 1.367 . S
C2095 C2103 1.433 . S
C2096 H2092 0.929 . S
C2096 C2098 1.378 . S
C2096 C2100 1.350 . S
C2097 C2100 1.463 1_655 S
C2097 C2102 1.350 . S
C2097 N2105 1.427 . S
C2098 H2089 0.930 . S
C2098 C2096 1.378 . S
C2098 C2099 1.367 . S
C2099 C2098 1.367 . S
C2099 C2101 1.433 . S
C2100 C2096 1.350 . S
C2100 C2097 1.463 1_455 S
C2100 N2104 1.427 . S
C2101 H2091 0.929 . S
C2101 C2099 1.433 . S
C2101 N2104 1.384 . S
C2102 H2093 0.929 . S
C2102 C2094 1.378 . S
C2102 C2097 1.350 . S
C2103 H2090 0.929 . S
C2103 C2095 1.433 . S
C2103 N2105 1.384 . S
N2104 C2100 1.427 . S
N2104 C2101 1.384 . S
N2105 C2097 1.427 . S
N2105 C2103 1.384 . S
H2106 C2112 0.930 . S
H2107 C2116 0.930 . S
H2108 C2121 0.929 . S
H2109 C2119 0.929 . S
H2110 C2114 0.929 . S
H2111 C2120 0.929 . S
C2112 H2106 0.930 . S
C2112 C2113 1.367 . S
C2112 C2120 1.378 . S
C2113 C2112 1.367 . S
C2113 C2121 1.433 . S
C2114 H2110 0.929 . S
C2114 C2116 1.378 . S
C2114 C2118 1.350 . S
C2115 C2118 1.463 . S
C2115 C2120 1.350 . S
C2115 N2123 1.427 . S
C2116 H2107 0.930 . S
C2116 C2114 1.378 . S
C2116 C2117 1.367 . S
C2117 C2116 1.367 . S
C2117 C2119 1.433 . S
C2118 C2114 1.350 . S
C2118 C2115 1.463 . S
C2118 N2122 1.427 . S
C2119 H2109 0.929 . S
C2119 C2117 1.433 . S
C2119 N2122 1.384 . S
C2120 H2111 0.929 . S
C2120 C2112 1.378 . S
C2120 C2115 1.350 . S
C2121 H2108 0.929 . S
C2121 C2113 1.433 . S
C2121 N2123 1.384 . S
N2122 C2118 1.427 . S
N2122 C2119 1.384 . S
N2123 C2115 1.427 . S
N2123 C2121 1.384 . S
C835 N2 1.378 . S
C839 N416 1.377 . S
C853 C30 1.407 . S
C857 N439 1.369 . S
C871 N462 1.365 . S
C875 N48 1.365 . S
C889 N71 1.365 . S
C893 N761 1.365 . S
C907 N784 1.365 . S
C911 C99 1.408 . S
C925 N117 1.394 . S
C929 N807 1.393 . S
C943 N554 1.377 . S
C947 N140 1.376 . S
C961 N163 1.378 . S
C965 C582 1.409 . S
C979 N186 1.365 . S
C983 N600 1.365 . S
C997 N209 1.368 . S
C1001 N347 1.368 . S
C1015 C375 1.409 . S
C1019 N232 1.376 . S
C1033 N255 1.381 . S
C1037 N393 1.382 . S
C1051 N278 1.390 . S
C1055 N692 1.389 . S
C1069 C306 1.409 . S
C1073 N715 1.376 . S
C1087 N324 1.367 . S
C1091 N738 1.367 . S
C1105 N485 1.365 . S
C1109 N623 1.365 . S
C1123 N508 1.370 . S
C1127 C651 1.407 . S
C1141 N531 1.380 . S
C1145 N669 1.381 . S
C1159 N173 1.467 . S
C1163 C16 1.484 . S
C1177 N196 1.517 . S
C1181 N35 1.550 . S
C1195 C62 1.587 . S
C1199 N150 1.572 . S
C1213 N265 1.571 . S
C1217 C85 1.587 . S
C1231 N219 1.517 . S
C1235 N104 1.550 . S
C1249 N242 1.471 . S
C1253 C131 1.492 . S
C1267 C154 1.655 . S
C1271 C39 1.694 . S
C1285 C177 1.616 . S
C1289 N58 1.622 . S
C1303 C200 1.634 . S
C1307 N12 1.629 . S
C1321 C223 1.644 . S
C1325 N127 1.637 . S
C1339 N81 1.634 . S
C1343 C246 1.626 . S
C1357 C108 1.695 . S
C1361 C269 1.659 . S
C1375 C292 1.494 . S
C1379 N449 1.477 . S
C1393 N311 1.558 . S
C1397 N472 1.513 . S
C1411 C338 1.580 . S
C1415 N426 1.567 . S
C1429 N541 1.561 . S
C1433 C361 1.577 . S
C1447 N380 1.555 . S
C1451 N495 1.521 . S
C1465 N518 1.469 . S
C1469 C407 1.485 . S
C1483 C430 1.665 . S
C1487 C315 1.692 . S
C1501 N334 1.624 . S
C1505 C453 1.614 . S
C1519 N288 1.639 . S
C1523 C476 1.640 . S
C1537 C499 1.644 . S
C1541 N403 1.637 . S
C1555 C522 1.623 . S
C1559 N357 1.633 . S
C1573 C545 1.654 . S
C1577 C384 1.693 . S
C1591 N725 1.477 . S
C1595 C568 1.494 . S
C1609 N587 1.558 . S
C1613 N748 1.516 . S
C1627 C614 1.585 . S
C1631 N702 1.571 . S
C1645 N817 1.571 . S
C1649 C637 1.586 . S
C1663 N771 1.519 . S
C1667 N656 1.551 . S
C1681 N794 1.466 . S
C1685 C683 1.483 . S
C1699 C591 1.691 . S
C1703 C706 1.653 . S
C1717 N610 1.624 . S
C1721 C729 1.618 . S
C1735 N564 1.630 . S
C1739 C752 1.634 . S
C1753 C775 1.635 . S
C1757 N679 1.633 . S
C1771 N633 1.629 . S
C1775 C798 1.618 . S
C1789 C821 1.655 . S
C1793 C660 1.689 . S
C1807 C7 1.476 . S
C1811 C674 1.477 . S
C1825 C628 1.581 . S
C1829 N25 1.477 1_565 S
C1843 C53 1.588 . S
C1847 N646 1.477 . S
C1861 C76 1.584 . S
C1865 N301 1.491 . S
C1879 C329 1.588 . S
C1883 N94 1.449 1_545 S
C1897 C122 1.479 . S
C1901 C283 1.474 . S
C1915 C536 1.868 . S
C1919 C145 1.862 . S
C1933 C168 1.888 . S
C1937 C490 1.900 . S
C1951 C191 1.897 . S
C1955 C513 1.888 . S
C1969 C214 1.898 . S
C1973 C720 1.887 . S
C1987 C237 1.894 . S
C1991 C743 1.896 . S
C2005 C697 1.862 . S
C2009 C260 1.866 . S
C2023 C352 1.582 . S
C2027 N577 1.490 . S
C2041 C605 1.588 . S
C2045 N370 1.475 . S
C2059 C559 1.480 . S
C2063 C398 1.474 . S
C2077 C812 1.863 . S
C2081 C421 1.862 . S
C2095 C444 1.890 . S
C2099 C766 1.895 . S
C2113 C467 1.896 . S
C2117 C789 1.889 . S
