# Generated by pormake.
# Topology zfi, (5)-cn, num edge types: 1
# Building blocks:
#     Node 0, Type 0, BuildingBlock: BEQFEK_clean_sbu_0, # of connection points: 5
#     Node 1, Type 0, BuildingBlock: BEQFEK_clean_sbu_0, # of connection points: 5
#     Node 2, Type 0, BuildingBlock: BEQFEK_clean_sbu_0, # of connection points: 5
#     Node 3, Type 0, BuildingBlock: BEQFEK_clean_sbu_0, # of connection points: 5
#     Node 4, Type 0, BuildingBlock: BEQFEK_clean_sbu_0, # of connection points: 5
#     Node 5, Type 0, BuildingBlock: BEQFEK_clean_sbu_0, # of connection points: 5
#     Node 6, Type 0, BuildingBlock: BEQFEK_clean_sbu_0, # of connection points: 5
#     Node 7, Type 0, BuildingBlock: BEQFEK_clean_sbu_0, # of connection points: 5
#     Node 8, Type 0, BuildingBlock: BEQFEK_clean_sbu_0, # of connection points: 5
#     Node 9, Type 0, BuildingBlock: BEQFEK_clean_sbu_0, # of connection points: 5
#     Node 10, Type 0, BuildingBlock: BEQFEK_clean_sbu_0, # of connection points: 5
#     Node 11, Type 0, BuildingBlock: BEQFEK_clean_sbu_0, # of connection points: 5
#     Node 12, Type 0, BuildingBlock: BEQFEK_clean_sbu_0, # of connection points: 5
#     Node 13, Type 0, BuildingBlock: BEQFEK_clean_sbu_0, # of connection points: 5
#     Node 14, Type 0, BuildingBlock: BEQFEK_clean_sbu_0, # of connection points: 5
#     Node 15, Type 0, BuildingBlock: BEQFEK_clean_sbu_0, # of connection points: 5
#     Edge 16, Type (0, 0), BuildingBlock: UVAHIK_clean_linker_0, # of connection points: 2
#     Edge 17, Type (0, 0), BuildingBlock: UVAHIK_clean_linker_0, # of connection points: 2
#     Edge 18, Type (0, 0), BuildingBlock: UVAHIK_clean_linker_0, # of connection points: 2
#     Edge 19, Type (0, 0), BuildingBlock: UVAHIK_clean_linker_0, # of connection points: 2
#     Edge 20, Type (0, 0), BuildingBlock: UVAHIK_clean_linker_0, # of connection points: 2
#     Edge 21, Type (0, 0), BuildingBlock: UVAHIK_clean_linker_0, # of connection points: 2
#     Edge 22, Type (0, 0), BuildingBlock: UVAHIK_clean_linker_0, # of connection points: 2
#     Edge 23, Type (0, 0), BuildingBlock: UVAHIK_clean_linker_0, # of connection points: 2
#     Edge 24, Type (0, 0), BuildingBlock: UVAHIK_clean_linker_0, # of connection points: 2
#     Edge 25, Type (0, 0), BuildingBlock: UVAHIK_clean_linker_0, # of connection points: 2
#     Edge 26, Type (0, 0), BuildingBlock: UVAHIK_clean_linker_0, # of connection points: 2
#     Edge 27, Type (0, 0), BuildingBlock: UVAHIK_clean_linker_0, # of connection points: 2
#     Edge 28, Type (0, 0), BuildingBlock: UVAHIK_clean_linker_0, # of connection points: 2
#     Edge 29, Type (0, 0), BuildingBlock: UVAHIK_clean_linker_0, # of connection points: 2
#     Edge 30, Type (0, 0), BuildingBlock: UVAHIK_clean_linker_0, # of connection points: 2
#     Edge 31, Type (0, 0), BuildingBlock: UVAHIK_clean_linker_0, # of connection points: 2
#     Edge 32, Type (0, 0), BuildingBlock: UVAHIK_clean_linker_0, # of connection points: 2
#     Edge 33, Type (0, 0), BuildingBlock: UVAHIK_clean_linker_0, # of connection points: 2
#     Edge 34, Type (0, 0), BuildingBlock: UVAHIK_clean_linker_0, # of connection points: 2
#     Edge 35, Type (0, 0), BuildingBlock: UVAHIK_clean_linker_0, # of connection points: 2
#     Edge 36, Type (0, 0), BuildingBlock: UVAHIK_clean_linker_0, # of connection points: 2
#     Edge 37, Type (0, 0), BuildingBlock: UVAHIK_clean_linker_0, # of connection points: 2
#     Edge 38, Type (0, 0), BuildingBlock: UVAHIK_clean_linker_0, # of connection points: 2
#     Edge 39, Type (0, 0), BuildingBlock: UVAHIK_clean_linker_0, # of connection points: 2
#     Edge 40, Type (0, 0), BuildingBlock: UVAHIK_clean_linker_0, # of connection points: 2
#     Edge 41, Type (0, 0), BuildingBlock: UVAHIK_clean_linker_0, # of connection points: 2
#     Edge 42, Type (0, 0), BuildingBlock: UVAHIK_clean_linker_0, # of connection points: 2
#     Edge 43, Type (0, 0), BuildingBlock: UVAHIK_clean_linker_0, # of connection points: 2
#     Edge 44, Type (0, 0), BuildingBlock: UVAHIK_clean_linker_0, # of connection points: 2
#     Edge 45, Type (0, 0), BuildingBlock: UVAHIK_clean_linker_0, # of connection points: 2
#     Edge 46, Type (0, 0), BuildingBlock: UVAHIK_clean_linker_0, # of connection points: 2
#     Edge 47, Type (0, 0), BuildingBlock: UVAHIK_clean_linker_0, # of connection points: 2
#     Edge 48, Type (0, 0), BuildingBlock: UVAHIK_clean_linker_0, # of connection points: 2
#     Edge 49, Type (0, 0), BuildingBlock: UVAHIK_clean_linker_0, # of connection points: 2
#     Edge 50, Type (0, 0), BuildingBlock: UVAHIK_clean_linker_0, # of connection points: 2
#     Edge 51, Type (0, 0), BuildingBlock: UVAHIK_clean_linker_0, # of connection points: 2
#     Edge 52, Type (0, 0), BuildingBlock: UVAHIK_clean_linker_0, # of connection points: 2
#     Edge 53, Type (0, 0), BuildingBlock: UVAHIK_clean_linker_0, # of connection points: 2
#     Edge 54, Type (0, 0), BuildingBlock: UVAHIK_clean_linker_0, # of connection points: 2
#     Edge 55, Type (0, 0), BuildingBlock: UVAHIK_clean_linker_0, # of connection points: 2
# Relax obj value: 0.224
# Max RMSD: 0.190
# Mean RMSD: 0.190
data_MOF--net-zfi--node1-BEQFEK_clean_sbu_0--edge1-UVAHIK_clean_linker_0
_symmetry_space_group_name_H-M    P1
_symmetry_Int_Tables_number       1
_symmetry_cell_setting            triclinic
loop_
_symmetry_equiv_pos_as_xyz
'x, y, z'
_cell_length_a     46.151375
_cell_length_b     46.146781
_cell_length_c     74.707474
_cell_angle_alpha  90.027095
_cell_angle_beta   89.968047
_cell_angle_gamma 89.93725
loop_
_atom_site_label
_atom_site_type_symbol
_atom_site_fract_x
_atom_site_fract_y
_atom_site_fract_z
_atom_type_partial_charge
Co0 Co 0.61603 0.08957 0.1231 0.0
Co1 Co 0.60078 0.02429 0.13034 0.0
C2 C 0.58949 0.06932 0.15793 0.0
O3 O 0.59978 0.08943 0.14805 0.0
O4 O 0.58769 0.0433 0.1524 0.0
C5 C 0.62489 0.1551 0.11063 0.0
O6 O 0.59948 0.1634 0.1046 0.0
C7 C 0.56601 0.97151 0.13604 0.0
C8 C 0.5955 0.93843 0.12473 0.0
C9 C 0.56816 0.94226 0.13199 0.0
N10 N 0.59085 0.98441 0.13108 0.0
N11 N 0.60858 0.96442 0.12469 0.0
C12 C 0.53998 0.98745 0.14282 0.0
H13 H 0.54134 0.01077 0.13928 0.0
H14 H 0.51984 0.97791 0.13723 0.0
H15 H 0.53912 0.98549 0.15761 0.0
C16 C 0.57992 0.07692 0.09013 0.0
N17 N 0.59167 0.06976 0.10612 0.0
N18 N 0.58543 0.04243 0.10954 0.0
C19 C 0.56942 0.03158 0.09604 0.0
C20 C 0.56511 0.05304 0.08339 0.0
C21 C 0.58317 0.10584 0.08141 0.0
H22 H 0.56922 0.12168 0.08852 0.0
H23 H 0.57659 0.10515 0.06713 0.0
H24 H 0.60597 0.11318 0.08251 0.0
O25 O 0.65415 0.07037 0.12444 0.0
O26 O 0.64337 0.0247 0.13026 0.0
H27 H 0.55192 0.99534 0.08088 0.0
H28 H 0.54397 0.99539 0.10445 0.0
C29 C 0.56075 0.00042 0.09432 0.0
H30 H 0.57983 0.98637 0.0966 0.0
H31 H 0.62919 0.96873 0.1196 0.0
O32 O 0.62839 0.12956 0.11664 0.0
C33 C 0.66195 0.04455 0.12773 0.0
Co34 Co 0.40984 0.61563 0.12341 0.0
Co35 Co 0.47606 0.60431 0.13024 0.0
C36 C 0.43088 0.59066 0.15793 0.0
O37 O 0.40966 0.59826 0.14803 0.0
O38 O 0.45682 0.5918 0.15224 0.0
C39 C 0.34453 0.6235 0.11018 0.0
O40 O 0.33712 0.59833 0.10338 0.0
C41 C 0.52756 0.56913 0.13779 0.0
C42 C 0.56275 0.59901 0.12989 0.0
C43 C 0.55744 0.57151 0.13653 0.0
N44 N 0.51579 0.594 0.13189 0.0
N45 N 0.53691 0.61182 0.1273 0.0
C46 C 0.51023 0.54465 0.14541 0.0
H47 H 0.4924 0.53894 0.1361 0.0
H48 H 0.52374 0.52534 0.14824 0.0
H49 H 0.5001 0.55191 0.15811 0.0
C50 C 0.42468 0.58163 0.08991 0.0
N51 N 0.43096 0.5928 0.10619 0.0
N52 N 0.45872 0.58844 0.10944 0.0
C53 C 0.47082 0.57455 0.09546 0.0
C54 C 0.44978 0.56977 0.08262 0.0
C55 C 0.39592 0.58433 0.08092 0.0
H56 H 0.38765 0.60676 0.08248 0.0
H57 H 0.38043 0.56937 0.08749 0.0
H58 H 0.39735 0.57876 0.06649 0.0
O59 O 0.4279 0.65436 0.12555 0.0
O60 O 0.47475 0.64677 0.12974 0.0
H61 H 0.51564 0.58654 0.09567 0.0
H62 H 0.50772 0.55607 0.0813 0.0
C63 C 0.50228 0.56674 0.09416 0.0
H64 H 0.50784 0.55153 0.10508 0.0
H65 H 0.53367 0.63271 0.12233 0.0
O66 O 0.36974 0.62719 0.11664 0.0
C67 C 0.45339 0.66392 0.12804 0.0
Co68 Co 0.88149 0.40795 0.12484 0.0
Co69 Co 0.89106 0.47372 0.13378 0.0
C70 C 0.90653 0.4267 0.1599 0.0
O71 O 0.89893 0.40603 0.14955 0.0
O72 O 0.90471 0.45298 0.15493 0.0
C73 C 0.86757 0.34793 0.12583 0.0
O74 O 0.87429 0.35104 0.1428 0.0
C75 C 0.92425 0.52712 0.14096 0.0
C76 C 0.8901 0.56008 0.13689 0.0
C77 C 0.91918 0.55679 0.14099 0.0
N78 N 0.8993 0.51367 0.13679 0.0
N79 N 0.87896 0.5335 0.13454 0.0
C80 C 0.95176 0.51168 0.14567 0.0
H81 H 0.9471 0.48945 0.15048 0.0
H82 H 0.96573 0.50989 0.13366 0.0
H83 H 0.96383 0.52391 0.15607 0.0
C84 C 0.91722 0.42565 0.09285 0.0
N85 N 0.90422 0.43112 0.10871 0.0
N86 N 0.90731 0.45885 0.11246 0.0
C87 C 0.9218 0.47191 0.09907 0.0
C88 C 0.92906 0.45132 0.08634 0.0
C89 C 0.91787 0.39655 0.08408 0.0
H90 H 0.92115 0.37944 0.09431 0.0
H91 H 0.93524 0.39536 0.07381 0.0
H92 H 0.89666 0.39261 0.07753 0.0
O93 O 0.84176 0.4243 0.12736 0.0
O94 O 0.84893 0.47068 0.13337 0.0
H95 H 0.92872 0.51048 0.08312 0.0
H96 H 0.94478 0.51098 0.10499 0.0
C97 C 0.92552 0.50404 0.09729 0.0
H98 H 0.90616 0.51544 0.1025 0.0
H99 H 0.85752 0.52889 0.13116 0.0
O100 O 0.8725 0.36877 0.11511 0.0
C101 C 0.83199 0.44943 0.13085 0.0
Co102 Co 0.08893 0.88081 0.12192 0.0
Co103 Co 0.02352 0.89621 0.12922 0.0
C104 C 0.06868 0.90377 0.15752 0.0
O105 O 0.08932 0.89539 0.14736 0.0
O106 O 0.04279 0.90543 0.1518 0.0
C107 C 0.14863 0.86475 0.12476 0.0
O108 O 0.14478 0.87197 0.1416 0.0
C109 C 0.97039 0.93012 0.13718 0.0
C110 C 0.93705 0.89917 0.12794 0.0
C111 C 0.94069 0.92622 0.1356 0.0
N112 N 0.98365 0.90641 0.13059 0.0
N113 N 0.96356 0.88804 0.12514 0.0
C114 C 0.98584 0.95527 0.14545 0.0
H115 H 0.00814 0.94912 0.14943 0.0
H116 H 0.98732 0.97313 0.13557 0.0
H117 H 0.97363 0.96338 0.15725 0.0
C118 C 0.07633 0.91781 0.08969 0.0
N119 N 0.06924 0.90665 0.10582 0.0
N120 N 0.04195 0.91306 0.10924 0.0
C121 C 0.0309 0.9283 0.09551 0.0
C122 C 0.05217 0.93181 0.08263 0.0
C123 C 0.10456 0.91237 0.08048 0.0
H124 H 0.10613 0.88905 0.07699 0.0
H125 H 0.12265 0.91743 0.08975 0.0
H126 H 0.10658 0.92556 0.06811 0.0
O127 O 0.06941 0.84253 0.12208 0.0
O128 O 0.02355 0.8541 0.12688 0.0
H129 H 0.98572 0.91809 0.09437 0.0
H130 H 0.99555 0.94999 0.08172 0.0
C131 C -0.00014 0.9375 0.09411 0.0
H132 H 0.99431 0.95132 0.10573 0.0
H133 H 0.96794 0.86779 0.11954 0.0
O134 O 0.12852 0.86992 0.11356 0.0
C135 C 0.04311 0.83523 0.12425 0.0
Co136 Co 0.11569 0.90362 0.3836 0.0
Co137 Co 0.10027 0.96914 0.37599 0.0
C138 C 0.08999 0.92363 0.34845 0.0
O139 O 0.09952 0.90331 0.35848 0.0
O140 O 0.08842 0.94965 0.35401 0.0
C141 C 0.13277 0.84422 0.38048 0.0
O142 O 0.12644 0.84868 0.36356 0.0
C143 C 0.06793 0.02409 0.3692 0.0
C144 C 0.10088 0.05546 0.37843 0.0
C145 C 0.07324 0.05353 0.37137 0.0
N146 N 0.09143 0.00942 0.37492 0.0
N147 N 0.11101 0.02838 0.38029 0.0
C148 C 0.04165 0.01022 0.36122 0.0
H149 H 0.04693 0.98838 0.35597 0.0
H150 H 0.02474 0.00781 0.37166 0.0
H151 H 0.03271 0.02399 0.35036 0.0
C152 C 0.08021 0.91744 0.41648 0.0
N153 N 0.0911 0.92414 0.40019 0.0
N154 N 0.08491 0.95146 0.39669 0.0
C155 C 0.0702 0.96293 0.41054 0.0
C156 C 0.06667 0.94189 0.42353 0.0
C157 C 0.08493 0.88907 0.42565 0.0
H158 H 0.07949 0.87112 0.41635 0.0
H159 H 0.07167 0.88737 0.438 0.0
H160 H 0.1082 0.88695 0.42915 0.0
O161 O 0.1542 0.92251 0.38237 0.0
O162 O 0.1425 0.96803 0.37668 0.0
H163 H 0.08054 0.00812 0.41093 0.0
H164 H 0.04948 -0.00123 0.42447 0.0
C165 C 0.06115 0.99403 0.41181 0.0
H166 H 0.04661 -0.00075 0.4005 0.0
H167 H 0.13131 0.02282 0.38538 0.0
O168 O 0.12675 0.86385 0.39188 0.0
C169 C 0.16145 0.94857 0.37925 0.0
Co170 Co 0.59091 0.11405 0.38379 0.0
Co171 Co 0.52686 0.09612 0.3748 0.0
C172 C 0.57373 0.08452 0.34888 0.0
O173 O 0.59251 0.09632 0.35909 0.0
O174 O 0.54743 0.08191 0.35367 0.0
C175 C 0.64486 0.13774 0.37927 0.0
O176 O 0.63386 0.13768 0.36306 0.0
C177 C 0.47271 0.06311 0.36755 0.0
C178 C 0.44055 0.09642 0.37527 0.0
C179 C 0.44318 0.0685 0.36872 0.0
N180 N 0.48684 0.0869 0.37327 0.0
N181 N 0.46742 0.10665 0.37781 0.0
C182 C 0.48715 0.03643 0.36044 0.0
H183 H 0.47509 0.02802 0.34869 0.0
H184 H 0.50994 0.04094 0.35673 0.0
H185 H 0.48708 0.01937 0.37089 0.0
C186 C 0.57625 0.08025 0.41716 0.0
N187 N 0.5703 0.09001 0.4005 0.0
N188 N 0.54349 0.08275 0.39642 0.0
C189 C 0.53159 0.0684 0.41025 0.0
C190 C 0.55179 0.06634 0.42387 0.0
C191 C 0.60384 0.08636 0.42689 0.0
H192 H 0.62252 0.08044 0.41827 0.0
H193 H 0.60495 0.07428 0.43972 0.0
H194 H 0.60528 0.10996 0.42962 0.0
O195 O 0.57148 0.15225 0.38165 0.0
O196 O 0.52732 0.1386 0.37401 0.0
H197 H 0.48595 0.07655 0.4095 0.0
H198 H 0.49596 0.04591 0.42325 0.0
C199 C 0.50093 0.05785 0.41074 0.0
H200 H 0.49723 0.04313 0.39928 0.0
H201 H 0.47252 0.12723 0.38265 0.0
O202 O 0.63064 0.12545 0.39174 0.0
C203 C 0.54569 0.15841 0.3771 0.0
Co204 Co 0.38498 0.5908 0.38414 0.0
Co205 Co 0.39212 0.52393 0.37664 0.0
C206 C 0.40655 0.56836 0.34882 0.0
O207 O 0.40002 0.58984 0.35884 0.0
O208 O 0.40489 0.54246 0.35451 0.0
C209 C 0.38073 0.65783 0.39816 0.0
O210 O 0.40401 0.66987 0.40501 0.0
C211 C 0.42248 0.46836 0.36992 0.0
C212 C 0.3873 0.4373 0.37574 0.0
C213 C 0.41608 0.43897 0.3706 0.0
N214 N 0.39854 0.48325 0.37464 0.0
N215 N 0.37762 0.46451 0.37802 0.0
C216 C 0.45018 0.48213 0.36392 0.0
H217 H 0.44665 0.50517 0.36034 0.0
H218 H 0.46632 0.48123 0.37488 0.0
H219 H 0.45924 0.47014 0.3523 0.0
C220 C 0.42201 0.57372 0.41562 0.0
N221 N 0.40816 0.56767 0.40013 0.0
N222 N 0.41054 0.53968 0.39694 0.0
C223 C 0.42555 0.52709 0.4103 0.0
C224 C 0.43373 0.54821 0.42244 0.0
C225 C 0.42364 0.60327 0.42374 0.0
H226 H 0.43268 0.61858 0.41376 0.0
H227 H 0.43733 0.60344 0.43595 0.0
H228 H 0.40145 0.61073 0.42716 0.0
O229 O 0.34432 0.57646 0.38356 0.0
O230 O 0.35012 0.52953 0.37819 0.0
H231 H 0.40881 0.48377 0.40868 0.0
H232 H 0.43401 0.48926 0.4267 0.0
C233 C 0.42899 0.49502 0.41262 0.0
H234 H 0.44699 0.48727 0.40406 0.0
H235 H 0.35671 0.47032 0.38196 0.0
O236 O 0.3822 0.63174 0.39267 0.0
C237 C 0.33381 0.55135 0.38078 0.0
Co238 Co 0.91171 0.38269 0.38549 0.0
Co239 Co 0.97783 0.39649 0.38031 0.0
C240 C 0.93543 0.40473 0.35051 0.0
O241 O 0.91396 0.39719 0.36021 0.0
O242 O 0.961 0.40567 0.35684 0.0
C243 C 0.85864 0.35815 0.37937 0.0
O244 O 0.87254 0.35437 0.36419 0.0
C245 C 0.02964 0.43256 0.3753 0.0
C246 C 0.06334 0.40456 0.38728 0.0
C247 C 0.0588 0.43163 0.37979 0.0
N248 N 0.01751 0.40732 0.38022 0.0
N249 N 0.03787 0.39049 0.38705 0.0
C250 C 0.0129 0.4578 0.36816 0.0
H251 H 0.98951 0.45543 0.37131 0.0
H252 H 0.02126 0.47839 0.37383 0.0
H253 H 0.01546 0.4586 0.3534 0.0
C254 C 0.92089 0.42227 0.41701 0.0
N255 N 0.92989 0.40884 0.40192 0.0
N256 N 0.95761 0.41446 0.3995 0.0
C257 C 0.9671 0.4314 0.41296 0.0
C258 C 0.94416 0.43728 0.42436 0.0
C259 C 0.89096 0.41982 0.42448 0.0
H260 H 0.87486 0.42178 0.41352 0.0
H261 H 0.88688 0.43667 0.43479 0.0
H262 H 0.88833 0.39809 0.43062 0.0
O263 O 0.93084 0.34418 0.38631 0.0
O264 O 0.97741 0.35433 0.3831 0.0
H265 H 0.00214 0.44644 0.43004 0.0
H266 H 0.00509 0.45594 0.40677 0.0
C267 C 0.9983 0.43871 0.4162 0.0
H268 H 0.01191 0.41928 0.41403 0.0
H269 H 0.03412 0.36982 0.39221 0.0
O270 O 0.87081 0.37289 0.39165 0.0
C271 C 0.95711 0.33608 0.38517 0.0
Co272 Co 0.38471 0.9086 0.88322 0.0
Co273 Co 0.40288 0.97271 0.87465 0.0
C274 C 0.41193 0.9267 0.84778 0.0
O275 O 0.40055 0.90768 0.85801 0.0
O276 O 0.41527 0.95276 0.85289 0.0
C277 C 0.35925 0.85564 0.87861 0.0
O278 O 0.35625 0.86842 0.86301 0.0
C279 C 0.43655 0.02632 0.86745 0.0
C280 C 0.40329 0.05907 0.87427 0.0
C281 C 0.43134 0.05592 0.86805 0.0
N282 N 0.41247 0.01264 0.8731 0.0
N283 N 0.39279 0.0324 0.87717 0.0
C284 C 0.46315 0.01135 0.86069 0.0
H285 H 0.45946 0.9877 0.85943 0.0
H286 H 0.48131 0.01503 0.87013 0.0
H287 H 0.46953 0.0206 0.84755 0.0
C288 C 0.4216 0.92151 0.91567 0.0
N289 N 0.4103 0.92833 0.89952 0.0
N290 N 0.41784 0.95512 0.89555 0.0
C291 C 0.43408 0.96607 0.90888 0.0
C292 C 0.4373 0.94515 0.92202 0.0
C293 C 0.41652 0.89337 0.92504 0.0
H294 H 0.41887 0.87522 0.9154 0.0
H295 H 0.43178 0.89047 0.93638 0.0
H296 H 0.39397 0.89299 0.9302 0.0
O297 O 0.34665 0.92844 0.88241 0.0
O298 O 0.36044 0.97272 0.87515 0.0
H299 H 0.45227 0.00278 0.92329 0.0
H300 H 0.46046 0.00108 0.89973 0.0
C301 C 0.44352 0.99709 0.90994 0.0
H302 H 0.42484 0.01148 0.90714 0.0
H303 H 0.37202 0.02768 0.88184 0.0
O304 O 0.3737 0.86854 0.89074 0.0
C305 C 0.34059 0.95451 0.87847 0.0
Co306 Co 0.59551 0.38259 0.8846 0.0
Co307 Co 0.53135 0.40014 0.87486 0.0
C308 C 0.57937 0.41113 0.84942 0.0
O309 O 0.59804 0.39951 0.85981 0.0
O310 O 0.55297 0.41392 0.85403 0.0
C311 C 0.65523 0.36626 0.88303 0.0
O312 O 0.65262 0.37477 0.86634 0.0
C313 C 0.47726 0.43357 0.86732 0.0
C314 C 0.44497 0.40014 0.87441 0.0
C315 C 0.44766 0.42831 0.86831 0.0
N316 N 0.49129 0.40951 0.87275 0.0
N317 N 0.47178 0.38966 0.87686 0.0
C318 C 0.4919 0.46039 0.86063 0.0
H319 H 0.47952 0.46982 0.8493 0.0
H320 H 0.51443 0.45558 0.85642 0.0
H321 H 0.49268 0.47676 0.87149 0.0
C322 C 0.57974 0.41675 0.9175 0.0
N323 N 0.57414 0.40678 0.90085 0.0
N324 N 0.54725 0.4136 0.89664 0.0
C325 C 0.53491 0.42776 0.91043 0.0
C326 C 0.55496 0.43025 0.9241 0.0
C327 C 0.60734 0.41114 0.92736 0.0
H328 H 0.60916 0.38759 0.93016 0.0
H329 H 0.626 0.41729 0.9188 0.0
H330 H 0.60812 0.42333 0.94016 0.0
O331 O 0.57618 0.3446 0.88221 0.0
O332 O 0.53198 0.3577 0.87417 0.0
H333 H 0.48948 0.41879 0.90903 0.0
H334 H 0.49845 0.4489 0.92348 0.0
C335 C 0.50402 0.43769 0.91081 0.0
H336 H 0.50031 0.45293 0.89963 0.0
H337 H 0.47677 0.36891 0.88147 0.0
O338 O 0.63437 0.37077 0.89384 0.0
C339 C 0.55059 0.33815 0.87745 0.0
Co340 Co 0.11711 0.58518 0.88591 0.0
Co341 Co 0.10368 0.51891 0.88071 0.0
C342 C 0.09351 0.56169 0.8513 0.0
O343 O 0.10128 0.58318 0.86091 0.0
O344 O 0.09325 0.53606 0.85755 0.0
C345 C 0.14151 0.63822 0.87947 0.0
O346 O 0.14324 0.62479 0.864 0.0
C347 C 0.06759 0.46718 0.87563 0.0
C348 C 0.09588 0.43318 0.88702 0.0
C349 C 0.06866 0.43788 0.87976 0.0
N350 N 0.09289 0.47922 0.88052 0.0
N351 N 0.10988 0.45869 0.887 0.0
C352 C 0.04222 0.4841 0.86884 0.0
H353 H 0.04447 0.50735 0.8724 0.0
H354 H 0.02169 0.47537 0.8744 0.0
H355 H 0.04137 0.48224 0.85404 0.0
C356 C 0.07836 0.57538 0.91785 0.0
N357 N 0.0918 0.56659 0.90271 0.0
N358 N 0.08647 0.5388 0.90029 0.0
C359 C 0.06978 0.52907 0.91379 0.0
C360 C 0.06369 0.5519 0.92523 0.0
C361 C 0.08016 0.60542 0.92522 0.0
H362 H 0.0787 0.6214 0.91417 0.0
H363 H 0.06275 0.60944 0.93518 0.0
H364 H 0.10151 0.60827 0.93182 0.0
O365 O 0.1557 0.56608 0.88584 0.0
O366 O 0.14593 0.51943 0.88268 0.0
H367 H 0.05514 0.49379 0.9308 0.0
H368 H 0.04511 0.49116 0.9076 0.0
C369 C 0.06256 0.49781 0.91691 0.0
H370 H 0.08194 0.48424 0.91449 0.0
H371 H 0.13065 0.46232 0.89202 0.0
O372 O 0.12768 0.62597 0.89213 0.0
C373 C 0.16405 0.53992 0.88444 0.0
Co374 Co 0.90742 0.11261 0.88214 0.0
Co375 Co 0.97415 0.10519 0.87481 0.0
C376 C 0.92998 0.08911 0.84725 0.0
O377 O 0.9085 0.0961 0.85716 0.0
O378 O 0.95589 0.09113 0.8529 0.0
C379 C 0.84067 0.11678 0.89605 0.0
O380 O 0.83034 0.09258 0.90275 0.0
C381 C 0.03077 0.07663 0.86791 0.0
C382 C 0.06048 0.11129 0.87681 0.0
C383 C 0.05988 0.08338 0.87003 0.0
N384 N 0.01496 0.09948 0.87348 0.0
N385 N 0.03291 0.12014 0.87863 0.0
C386 C 0.01822 0.04944 0.86019 0.0
H387 H 0.0161 0.0329 0.87087 0.0
H388 H 0.03267 0.0406 0.84963 0.0
H389 H 0.9964 0.05356 0.8546 0.0
C390 C 0.92465 0.07878 0.91499 0.0
N391 N 0.93038 0.09067 0.89883 0.0
N392 N 0.95833 0.08804 0.89558 0.0
C393 C 0.97119 0.07474 0.90951 0.0
C394 C 0.95039 0.06843 0.92228 0.0
C395 C 0.89559 0.07947 0.9238 0.0
H396 H 0.8875 0.10211 0.92418 0.0
H397 H 0.88016 0.06652 0.91571 0.0
H398 H 0.89648 0.07063 0.9376 0.0
O399 O 0.92176 0.15316 0.88074 0.0
O400 O 0.9686 0.14724 0.8754 0.0
H401 H 0.01512 0.0896 0.90983 0.0
H402 H 0.00901 0.05777 0.92341 0.0
C403 C 0.00305 0.0689 0.9108 0.0
H404 H 0.00969 0.05483 0.89954 0.0
H405 H 0.02631 0.14024 0.88357 0.0
O406 O 0.86659 0.11743 0.89025 0.0
C407 C 0.94678 0.16361 0.87773 0.0
Co408 Co 0.88053 0.08667 0.62223 0.0
Co409 Co 0.89082 0.02002 0.62799 0.0
C410 C 0.90552 0.06372 0.65639 0.0
O411 O 0.89809 0.08539 0.6468 0.0
O412 O 0.90401 0.03797 0.65037 0.0
C413 C 0.86441 0.14541 0.62666 0.0
O414 O 0.86953 0.13901 0.64349 0.0
C415 C 0.92525 0.96744 0.63348 0.0
C416 C 0.89612 0.93396 0.62238 0.0
C417 C 0.92348 0.93811 0.62956 0.0
N418 N 0.90024 0.98002 0.62855 0.0
N419 N 0.88271 0.95984 0.62225 0.0
C420 C 0.95118 0.98391 0.63987 0.0
H421 H 0.94954 0.00704 0.63591 0.0
H422 H 0.9714 0.97437 0.63436 0.0
H423 H 0.95215 0.98273 0.65469 0.0
C424 C 0.91497 0.07345 0.58904 0.0
N425 N 0.90315 0.06599 0.60494 0.0
N426 N 0.90699 0.03799 0.60745 0.0
C427 C 0.92106 0.02679 0.59324 0.0
C428 C 0.92658 0.04876 0.58111 0.0
C429 C 0.91311 0.10311 0.58111 0.0
H430 H 0.89027 0.10765 0.5774 0.0
H431 H 0.91966 0.11941 0.59125 0.0
H432 H 0.927 0.10505 0.56903 0.0
O433 O 0.84131 0.0695 0.62414 0.0
O434 O 0.8484 0.0224 0.62768 0.0
H435 H 0.90851 0.98215 0.59238 0.0
H436 H 0.9385 0.99074 0.57783 0.0
C437 C 0.9284 0.99537 0.59099 0.0
H438 H 0.94398 0.98889 0.6015 0.0
H439 H 0.86202 0.96393 0.61721 0.0
O440 O 0.871 0.12697 0.61465 0.0
C441 C 0.83148 0.04402 0.62633 0.0
Co442 Co 0.40623 0.8794 0.62196 0.0
Co443 Co 0.47081 0.89728 0.62975 0.0
C444 C 0.42499 0.90803 0.65672 0.0
O445 O 0.40562 0.89648 0.64679 0.0
O446 O 0.45105 0.91082 0.65142 0.0
C447 C 0.34661 0.86333 0.62528 0.0
O448 O 0.3504 0.87217 0.64183 0.0
C449 C 0.52376 0.93207 0.63567 0.0
C450 C 0.55629 0.90358 0.62286 0.0
C451 C 0.55281 0.93031 0.631 0.0
N452 N 0.51063 0.90761 0.63019 0.0
N453 N 0.53033 0.89048 0.6229 0.0
C454 C 0.50812 0.95757 0.64341 0.0
H455 H 0.4847 0.95657 0.64009 0.0
H456 H 0.51755 0.97811 0.63835 0.0
H457 H 0.51048 0.95722 0.65819 0.0
C458 C 0.41883 0.91369 0.58861 0.0
N459 N 0.42586 0.90372 0.60506 0.0
N460 N 0.45279 0.91121 0.60863 0.0
C461 C 0.46359 0.92622 0.59469 0.0
C462 C 0.44262 0.92819 0.58152 0.0
C463 C 0.39082 0.9073 0.57941 0.0
H464 H 0.38929 0.88364 0.57693 0.0
H465 H 0.37254 0.91342 0.5883 0.0
H466 H 0.38909 0.91911 0.56651 0.0
O467 O 0.42611 0.84162 0.62376 0.0
O468 O 0.47097 0.85471 0.63028 0.0
H469 H 0.50943 0.91942 0.59383 0.0
H470 H 0.4975 0.95057 0.58126 0.0
C471 C 0.49386 0.93772 0.5936 0.0
H472 H 0.49804 0.9519 0.60525 0.0
H473 H 0.52579 0.87029 0.61727 0.0
O474 O 0.36675 0.86745 0.61393 0.0
C475 C 0.45211 0.83516 0.62762 0.0
Co476 Co 0.61453 0.40553 0.62311 0.0
Co477 Co 0.59686 0.46934 0.63312 0.0
C478 C 0.58792 0.42142 0.65889 0.0
O479 O 0.59939 0.40282 0.64838 0.0
O480 O 0.58445 0.44768 0.6542 0.0
C481 C 0.62727 0.34447 0.62377 0.0
O482 O 0.6156 0.34566 0.63979 0.0
C483 C 0.56264 0.52245 0.64117 0.0
C484 C 0.59656 0.55552 0.63679 0.0
C485 C 0.56793 0.55204 0.64181 0.0
N486 N 0.58723 0.50912 0.63599 0.0
N487 N 0.60732 0.52908 0.63341 0.0
C488 C 0.53544 0.50703 0.6464 0.0
H489 H 0.5394 0.48343 0.64779 0.0
H490 H 0.51868 0.51043 0.63598 0.0
H491 H 0.52696 0.51607 0.65914 0.0
C492 C 0.57716 0.42043 0.59129 0.0
N493 N 0.58883 0.42649 0.60744 0.0
N494 N 0.58204 0.45336 0.61175 0.0
C495 C 0.56623 0.46525 0.59853 0.0
C496 C 0.56221 0.44475 0.58519 0.0
C497 C 0.58099 0.39221 0.58176 0.0
H498 H 0.57933 0.37406 0.59144 0.0
H499 H 0.56461 0.38953 0.57101 0.0
H500 H 0.60296 0.39153 0.57573 0.0
O501 O 0.65264 0.42522 0.62443 0.0
O502 O 0.63917 0.46916 0.63271 0.0
H503 H 0.57685 0.51013 0.6021 0.0
H504 H 0.55245 0.50354 0.58388 0.0
C505 C 0.55833 0.49673 0.59764 0.0
H506 H 0.53966 0.50089 0.6066 0.0
H507 H 0.62851 0.52466 0.62937 0.0
O508 O 0.62595 0.36669 0.61372 0.0
C509 C 0.65888 0.45096 0.62901 0.0
Co510 Co 0.08799 0.61396 0.62563 0.0
Co511 Co 0.02176 0.60568 0.63398 0.0
C512 C 0.06772 0.59009 0.66073 0.0
O513 O 0.08873 0.59707 0.65047 0.0
O514 O 0.04158 0.59221 0.65553 0.0
C515 C 0.14848 0.62592 0.62736 0.0
O516 O 0.14485 0.61846 0.64418 0.0
C517 C 0.96739 0.57386 0.64096 0.0
C518 C 0.93535 0.60881 0.63663 0.0
C519 C 0.93789 0.57976 0.641 0.0
N520 N 0.98152 0.59835 0.63658 0.0
N521 N 0.96223 0.61914 0.63411 0.0
C522 C 0.98202 0.54605 0.64596 0.0
H523 H 0.00491 0.54995 0.64972 0.0
H524 H 0.98176 0.53101 0.63439 0.0
H525 H 0.97031 0.53549 0.65718 0.0
C526 C 0.07048 0.57826 0.59362 0.0
N527 N 0.06486 0.59136 0.60943 0.0
N528 N 0.03702 0.58864 0.61298 0.0
C529 C 0.02407 0.5742 0.59953 0.0
C530 C 0.04481 0.56669 0.58696 0.0
C531 C 0.09968 0.57745 0.58499 0.0
H532 H 0.1166 0.57377 0.59529 0.0
H533 H 0.10082 0.56027 0.57461 0.0
H534 H 0.10397 0.59875 0.57863 0.0
O535 O 0.07227 0.65396 0.62756 0.0
O536 O 0.02562 0.64778 0.63316 0.0
H537 H 0.9857 0.56705 0.5834 0.0
H538 H 0.98461 0.552 0.60556 0.0
C539 C 0.99193 0.5708 0.59756 0.0
H540 H 0.98069 0.59054 0.60236 0.0
H541 H 0.96741 0.64039 0.6306 0.0
O542 O 0.12773 0.62208 0.61641 0.0
C543 C 0.04723 0.66427 0.63068 0.0
C544 C 0.54241 0.90092 0.11811 0.0
C545 C 0.54564 0.91974 0.13271 0.0
C546 C 0.52341 0.87758 0.11907 0.0
C547 C 0.47442 0.83438 0.12236 0.0
H548 H 0.49291 0.78388 0.16223 0.0
C549 C 0.43543 0.71518 0.12645 0.0
C550 C 0.45802 0.69546 0.12989 0.0
C551 C 0.43975 0.74494 0.12871 0.0
C552 C 0.48729 0.79787 0.15112 0.0
H553 H 0.5312 0.92956 0.15962 0.0
H554 H 0.49812 0.88798 0.1615 0.0
H555 H 0.51016 0.83387 0.16233 0.0
H556 H 0.50276 0.69152 0.13854 0.0
H557 H 0.51023 0.7433 0.14241 0.0
H558 H 0.45291 0.79788 0.1107 0.0
C559 C 0.51006 0.89167 0.14923 0.0
C560 C 0.49687 0.82655 0.15126 0.0
C561 C 0.52883 0.91544 0.14814 0.0
C562 C 0.48492 0.70609 0.13573 0.0
C563 C 0.48912 0.73574 0.13814 0.0
C564 C 0.46464 0.80576 0.12228 0.0
C565 C 0.50757 0.87228 0.13478 0.0
C566 C 0.49154 0.84469 0.13655 0.0
C567 C 0.46661 0.75546 0.13465 0.0
C568 C 0.47203 0.78694 0.13632 0.0
H569 H 0.5551 0.9039 0.10604 0.0
H570 H 0.52229 0.86278 0.10783 0.0
H571 H 0.46985 0.84804 0.11091 0.0
H572 H 0.41441 0.70767 0.12199 0.0
H573 H 0.42207 0.75972 0.12592 0.0
C574 C 0.78026 0.4331 0.1275 0.0
C575 C 0.80051 0.45402 0.13309 0.0
C576 C 0.75054 0.43779 0.13005 0.0
C577 C 0.69933 0.48011 0.15727 0.0
H578 H 0.64948 0.4806 0.11552 0.0
C579 C 0.60497 0.55816 0.14959 0.0
C580 C 0.57997 0.54977 0.14033 0.0
C581 C 0.6282 0.53907 0.15134 0.0
C582 C 0.66283 0.47987 0.12744 0.0
H583 H 0.80548 0.49597 0.14592 0.0
H584 H 0.75403 0.50388 0.15042 0.0
H585 H 0.69809 0.45987 0.11337 0.0
H586 H 0.55949 0.51508 0.12546 0.0
H587 H 0.60022 0.48135 0.12865 0.0
H588 H 0.66469 0.50119 0.17116 0.0
C589 C 0.76103 0.48388 0.14415 0.0
C590 C 0.69066 0.46803 0.12618 0.0
C591 C 0.79051 0.47946 0.14139 0.0
C592 C 0.57828 0.52173 0.1331 0.0
C593 C 0.60167 0.5026 0.13475 0.0
C594 C 0.67153 0.49178 0.15856 0.0
C595 C 0.74076 0.46315 0.13854 0.0
C596 C 0.70955 0.46926 0.14088 0.0
C597 C 0.62705 0.51127 0.14365 0.0
C598 C 0.65349 0.49299 0.14344 0.0
H599 H 0.78734 0.41327 0.12108 0.0
H600 H 0.73525 0.42156 0.12554 0.0
H601 H 0.71338 0.48085 0.16888 0.0
H602 H 0.60685 0.57982 0.15508 0.0
H603 H 0.64764 0.54666 0.15796 0.0
C604 C 0.05572 0.78224 0.1224 0.0
C605 C 0.03491 0.80429 0.12452 0.0
C606 C 0.04757 0.75306 0.12347 0.0
C607 C 0.98275 0.70628 0.12058 0.0
H608 H 0.02628 0.65211 0.14985 0.0
C609 C 0.92951 0.60741 0.14998 0.0
C610 C 0.93965 0.58114 0.14286 0.0
C611 C 0.94596 0.63253 0.14841 0.0
C612 C 0.0142 0.66703 0.14151 0.0
H613 H 0.98931 0.81296 0.12942 0.0
H614 H 0.97538 0.76263 0.13151 0.0
H615 H 0.04578 0.70085 0.14422 0.0
H616 H 0.97566 0.56035 0.12922 0.0
H617 H 0.00481 0.60448 0.12691 0.0
H618 H 0.95063 0.67312 0.11855 0.0
C619 C 0.99785 0.76766 0.12869 0.0
C620 C 0.02533 0.69476 0.1382 0.0
C621 C 0.0059 0.79661 0.12759 0.0
C622 C 0.96752 0.58005 0.13524 0.0
C623 C 0.98415 0.6053 0.13379 0.0
C624 C 0.97158 0.67889 0.12404 0.0
C625 C 0.0185 0.74554 0.12661 0.0
C626 C 0.00926 0.7149 0.12811 0.0
C627 C 0.97291 0.63183 0.13976 0.0
C628 C 0.98684 0.65937 0.13487 0.0
H629 H 0.07827 0.78748 0.12005 0.0
H630 H 0.06392 0.73644 0.12175 0.0
H631 H 0.97021 0.72103 0.11237 0.0
H632 H 0.90816 0.60885 0.15596 0.0
H633 H 0.93701 0.65285 0.15317 0.0
C634 C 0.91778 0.97554 0.13606 0.0
C635 C 0.91675 0.94593 0.14035 0.0
C636 C 0.89306 0.99285 0.13804 0.0
C637 C 0.81904 0.99403 0.15773 0.0
H638 H 0.79816 0.03523 0.11435 0.0
C639 C 0.70164 0.01062 0.13648 0.0
C640 C 0.69306 0.03783 0.12992 0.0
C641 C 0.73076 0.00474 0.13978 0.0
C642 C 0.80389 0.02431 0.12669 0.0
H643 H 0.88979 0.91144 0.15075 0.0
H644 H 0.84683 0.9414 0.15418 0.0
H645 H 0.84725 0.01629 0.11782 0.0
H646 H 0.70846 0.08006 0.12134 0.0
H647 H 0.75964 0.06942 0.12684 0.0
H648 H 0.77524 0.00077 0.16617 0.0
C649 C 0.86661 0.9515 0.1495 0.0
C650 C 0.83202 0.01356 0.12872 0.0
C651 C 0.89114 0.93424 0.1474 0.0
C652 C 0.71437 0.05886 0.12639 0.0
C653 C 0.74364 0.05283 0.12954 0.0
C654 C 0.79095 0.00464 0.15566 0.0
C655 C 0.86705 0.98081 0.14441 0.0
C656 C 0.83954 0.99739 0.14398 0.0
C657 C 0.75202 0.02582 0.13647 0.0
C658 C 0.78284 0.01895 0.13985 0.0
H659 H 0.93704 0.98497 0.13023 0.0
H660 H 0.89401 0.01539 0.13405 0.0
H661 H 0.82439 0.98213 0.16978 0.0
H662 H 0.68583 0.99392 0.13935 0.0
H663 H 0.7367 0.98352 0.14479 0.0
C664 C 0.99341 0.29609 0.38432 0.0
C665 C 0.96432 0.30486 0.38535 0.0
C666 C 0.00056 0.26684 0.3834 0.0
C667 C 0.97223 0.19562 0.37052 0.0
H668 H 0.04196 0.16973 0.39468 0.0
C669 C 0.02478 0.07823 0.37373 0.0
C670 C 0.05411 0.07877 0.3686 0.0
C671 C 0.00891 0.10408 0.37484 0.0
C672 C 0.02237 0.17667 0.38792 0.0
H673 H 0.91984 0.28966 0.38646 0.0
H674 H 0.93254 0.23817 0.38505 0.0
H675 H 0.02326 0.21815 0.40052 0.0
H676 H 0.08915 0.1062 0.35936 0.0
H677 H 0.06157 0.15111 0.36144 0.0
H678 H 0.97178 0.15368 0.3579 0.0
C679 C 0.94971 0.25414 0.38479 0.0
C680 C 0.01172 0.20437 0.3912 0.0
C681 C 0.94249 0.28359 0.38571 0.0
C682 C 0.06664 0.10518 0.36344 0.0
C683 C 0.05092 0.13084 0.36462 0.0
C684 C 0.98281 0.16759 0.36737 0.0
C685 C 0.97886 0.24551 0.38359 0.0
C686 C 0.98713 0.21455 0.38208 0.0
C687 C 0.02234 0.13062 0.37097 0.0
C688 C 0.00847 0.15837 0.37566 0.0
H689 H 0.01079 0.31184 0.38393 0.0
H690 H 0.0232 0.26098 0.38213 0.0
H691 H 0.95326 0.20291 0.36327 0.0
H692 H 0.01471 0.05833 0.37816 0.0
H693 H 0.98689 0.10357 0.37987 0.0
C694 C 0.21454 0.93658 0.38165 0.0
C695 C 0.19234 0.95665 0.37799 0.0
C696 C 0.24365 0.94482 0.38025 0.0
C697 C 0.28892 0.0105 0.38056 0.0
H698 H 0.34697 0.96361 0.35652 0.0
C699 C 0.39318 0.06143 0.35773 0.0
C700 C 0.41839 0.04933 0.36508 0.0
C701 C 0.36734 0.04596 0.35781 0.0
C702 C 0.33093 0.97672 0.36336 0.0
H703 H 0.18335 0.00082 0.36957 0.0
H704 H 0.2336 0.01485 0.36694 0.0
H705 H 0.29773 0.94441 0.36079 0.0
H706 H 0.43682 0.01099 0.3774 0.0
H707 H 0.39131 0.98365 0.37738 0.0
H708 H 0.32154 0.04303 0.38275 0.0
C709 C 0.2287 0.99299 0.37127 0.0
C710 C 0.30291 0.96576 0.36588 0.0
C711 C 0.19982 0.98487 0.37271 0.0
C712 C 0.41784 0.02062 0.37133 0.0
C713 C 0.39181 0.00504 0.37142 0.0
C714 C 0.31661 0.02145 0.37791 0.0
C715 C 0.25095 0.97323 0.3752 0.0
C716 C 0.28148 0.9829 0.37414 0.0
C717 C 0.36617 0.01816 0.36536 0.0
C718 C 0.33765 0.00498 0.36894 0.0
H719 H 0.20944 0.91463 0.38569 0.0
H720 H 0.2604 0.92918 0.38341 0.0
H721 H 0.27313 0.0239 0.38741 0.0
H722 H 0.39311 0.08348 0.35273 0.0
H723 H 0.34787 0.05634 0.35284 0.0
C724 C 0.50907 0.19528 0.36804 0.0
C725 C 0.53647 0.18898 0.37525 0.0
C726 C 0.49946 0.22377 0.3667 0.0
C727 C 0.52201 0.3003 0.36639 0.0
H728 H 0.44158 0.3121 0.37962 0.0
C729 C 0.46343 0.41251 0.37419 0.0
C730 C 0.43496 0.41357 0.36753 0.0
C731 C 0.47906 0.38646 0.37389 0.0
C732 C 0.464 0.30914 0.37571 0.0
H733 H 0.57568 0.20787 0.38621 0.0
H734 H 0.55848 0.25805 0.38411 0.0
H735 H 0.46285 0.2642 0.38228 0.0
H736 H 0.40118 0.38889 0.35442 0.0
H737 H 0.42842 0.3437 0.35374 0.0
H738 H 0.52288 0.34572 0.35998 0.0
C739 C 0.54463 0.24073 0.37939 0.0
C740 C 0.47621 0.28169 0.37724 0.0
C741 C 0.55439 0.21202 0.38068 0.0
C742 C 0.42301 0.38864 0.35974 0.0
C743 C 0.43856 0.36277 0.35941 0.0
C744 C 0.50973 0.32802 0.36493 0.0
C745 C 0.51684 0.2468 0.37265 0.0
C746 C 0.50514 0.27675 0.37225 0.0
C747 C 0.46633 0.36114 0.36704 0.0
C748 C 0.48041 0.33249 0.36924 0.0
H749 H 0.49484 0.17815 0.36347 0.0
H750 H 0.47822 0.22774 0.36103 0.0
H751 H 0.54437 0.29713 0.36244 0.0
H752 H 0.47297 0.43117 0.38067 0.0
H753 H 0.50037 0.38574 0.37995 0.0
C754 C 0.08374 0.47242 0.36378 0.0
C755 C 0.08059 0.45493 0.37902 0.0
C756 C 0.10662 0.49224 0.36266 0.0
C757 C 0.17058 0.50889 0.3596 0.0
H758 H 0.20046 0.55063 0.40074 0.0
C759 C 0.29096 0.52088 0.37325 0.0
C760 C 0.30209 0.54738 0.37945 0.0
C761 C 0.26125 0.51696 0.37128 0.0
C762 C 0.19218 0.5396 0.38901 0.0
H763 H 0.09775 0.44527 0.40534 0.0
H764 H 0.13746 0.47973 0.40345 0.0
H765 H 0.15086 0.53204 0.40122 0.0
H766 H 0.29062 0.59062 0.38848 0.0
H767 H 0.2382 0.58336 0.38541 0.0
H768 H 0.21235 0.51514 0.34776 0.0
C769 C 0.12233 0.47843 0.3924 0.0
C770 C 0.1639 0.52882 0.38933 0.0
C771 C 0.0998 0.45844 0.3934 0.0
C772 C 0.28271 0.56991 0.38373 0.0
C773 C 0.25277 0.56582 0.38194 0.0
C774 C 0.19888 0.5195 0.35934 0.0
C775 C 0.1264 0.49507 0.37687 0.0
C776 C 0.15326 0.51234 0.37492 0.0
C777 C 0.24184 0.53933 0.37559 0.0
C778 C 0.21031 0.53388 0.37434 0.0
H779 H 0.0694 0.46985 0.35242 0.0
H780 H 0.10933 0.50477 0.35051 0.0
H781 H 0.16306 0.49618 0.34834 0.0
H782 H 0.30521 0.50306 0.36978 0.0
H783 H 0.25341 0.49611 0.36671 0.0
C784 C 0.43891 0.10408 0.85445 0.0
C785 C 0.45052 0.08035 0.8637 0.0
C786 C 0.45395 0.13016 0.8537 0.0
C787 C 0.52242 0.16828 0.86172 0.0
H788 H 0.47092 0.22919 0.87827 0.0
C789 C 0.56054 0.28482 0.88067 0.0
C790 C 0.54218 0.3075 0.8752 0.0
C791 C 0.55194 0.25593 0.8786 0.0
C792 C 0.48555 0.21257 0.87342 0.0
H793 H 0.48755 0.06457 0.87863 0.0
H794 H 0.51408 0.11051 0.87729 0.0
H795 H 0.45235 0.1805 0.87423 0.0
H796 H 0.5009 0.3176 0.8627 0.0
H797 H 0.4863 0.26762 0.85885 0.0
H798 H 0.55563 0.2008 0.86079 0.0
C799 C 0.4935 0.1087 0.87043 0.0
C800 C 0.47489 0.18467 0.87111 0.0
C801 C 0.4784 0.08241 0.87111 0.0
C802 C 0.51543 0.30072 0.8673 0.0
C803 C 0.50698 0.27201 0.86514 0.0
C804 C 0.53313 0.19647 0.86392 0.0
C805 C 0.48074 0.1331 0.86239 0.0
C806 C 0.49305 0.16235 0.86499 0.0
C807 C 0.5249 0.24929 0.87099 0.0
C808 C 0.51461 0.21897 0.86954 0.0
H809 H 0.41749 0.10291 0.84856 0.0
H810 H 0.44389 0.14854 0.84715 0.0
H811 H 0.53685 0.15134 0.85709 0.0
H812 H 0.58134 0.28938 0.88676 0.0
H813 H 0.56613 0.23886 0.88332 0.0
C814 C 0.4228 0.47642 0.87199 0.0
C815 C 0.4228 0.44787 0.8654 0.0
C816 C 0.39681 0.49208 0.87307 0.0
C817 C 0.32427 0.47653 0.88407 0.0
H818 H 0.29731 0.54769 0.86206 0.0
C819 C 0.20444 0.50429 0.88173 0.0
C820 C 0.19536 0.53312 0.88395 0.0
C821 C 0.23375 0.4976 0.88031 0.0
C822 C 0.30477 0.52809 0.86857 0.0
H823 H 0.39641 0.4142 0.85347 0.0
H824 H 0.35123 0.4414 0.8555 0.0
H825 H 0.34695 0.53057 0.85633 0.0
H826 H 0.21008 0.57759 0.88658 0.0
H827 H 0.26167 0.56568 0.88435 0.0
H828 H 0.28264 0.47366 0.89633 0.0
C829 C 0.37117 0.45162 0.85982 0.0
C830 C 0.33304 0.51832 0.86522 0.0
C831 C 0.39697 0.43611 0.85868 0.0
C832 C 0.21639 0.55514 0.88491 0.0
C833 C 0.24589 0.54837 0.88352 0.0
C834 C 0.29634 0.48636 0.88756 0.0
C835 C 0.37071 0.4792 0.86768 0.0
C836 C 0.34256 0.49202 0.87256 0.0
C837 C 0.25484 0.51949 0.8812 0.0
C838 C 0.28591 0.51172 0.8794 0.0
H839 H 0.44223 0.48581 0.87761 0.0
H840 H 0.39677 0.51328 0.8793 0.0
H841 H 0.33144 0.4564 0.89009 0.0
H842 H 0.18889 0.48678 0.8808 0.0
H843 H 0.23984 0.47519 0.87816 0.0
C844 C 0.97694 0.20633 0.86946 0.0
C845 C 0.95074 0.1953 0.87618 0.0
C846 C 0.98108 0.23607 0.86775 0.0
C847 C 0.96028 0.30443 0.88734 0.0
H848 H 0.00266 0.33526 0.84673 0.0
C849 C 0.02759 0.41365 0.86358 0.0
C850 C 0.04547 0.41598 0.87872 0.0
C851 C 0.00771 0.39086 0.86219 0.0
C852 C 0.99026 0.32726 0.858 0.0
H853 H 0.90816 0.20693 0.88626 0.0
H854 H 0.91579 0.25935 0.88361 0.0
H855 H 0.98288 0.28633 0.84532 0.0
H856 H 0.05589 0.3973 0.90453 0.0
H857 H 0.02134 0.35772 0.90215 0.0
H858 H 0.96892 0.34489 0.90035 0.0
C859 C 0.93295 0.24471 0.87956 0.0
C860 C 0.97917 0.29917 0.85726 0.0
C861 C 0.92863 0.21477 0.88108 0.0
C862 C 0.04239 0.39593 0.89269 0.0
C863 C 0.02237 0.37346 0.89141 0.0
C864 C 0.97152 0.3325 0.88813 0.0
C865 C 0.95923 0.25558 0.87284 0.0
C866 C 0.96514 0.28708 0.87219 0.0
C867 C 0.00523 0.37031 0.87601 0.0
C868 C 0.98763 0.34373 0.87373 0.0
H869 H 0.99441 0.19199 0.86549 0.0
H870 H 0.00177 0.24382 0.86286 0.0
H871 H 0.94956 0.29564 0.89904 0.0
H872 H 0.02984 0.4286 0.85251 0.0
H873 H 0.99481 0.38887 0.85015 0.0
C874 C 0.30387 0.99263 0.87192 0.0
C875 C 0.31008 0.96416 0.87737 0.0
C876 C 0.2754 0.00231 0.87084 0.0
C877 C 0.19967 0.97922 0.86681 0.0
H878 H 0.18544 0.0571 0.8843 0.0
C879 C 0.08632 0.03591 0.87251 0.0
C880 C 0.08583 0.06519 0.8673 0.0
C881 C 0.11249 0.02052 0.87273 0.0
C882 C 0.18911 0.03541 0.87923 0.0
H883 H 0.29108 0.9233 0.88566 0.0
H884 H 0.24088 0.94056 0.88395 0.0
H885 H 0.23321 0.03572 0.88775 0.0
H886 H 0.11175 0.10082 0.85736 0.0
H887 H 0.15722 0.074 0.85762 0.0
H888 H 0.15517 0.97919 0.85834 0.0
C889 C 0.2583 0.9552 0.88042 0.0
C890 C 0.21645 0.02314 0.88122 0.0
C891 C 0.287 0.94541 0.8815 0.0
C892 C 0.11156 0.07833 0.86151 0.0
C893 C 0.13757 0.06302 0.86173 0.0
C894 C 0.17208 0.99153 0.86488 0.0
C895 C 0.2523 0.98388 0.87527 0.0
C896 C 0.22227 0.99522 0.87466 0.0
C897 C 0.13846 0.0343 0.8679 0.0
C898 C 0.16682 0.02002 0.87071 0.0
H899 H 0.32103 0.0076 0.86843 0.0
H900 H 0.27146 0.02433 0.86644 0.0
H901 H 0.20359 0.95765 0.86161 0.0
H902 H 0.06698 0.02541 0.87746 0.0
H903 H 0.11265 0.99844 0.87765 0.0
C904 C 0.06477 0.71544 0.62672 0.0
C905 C 0.04309 0.69593 0.63217 0.0
C906 C 0.06031 0.74537 0.62818 0.0
C907 C 0.01495 0.79982 0.65119 0.0
H908 H 0.02212 0.84489 0.60763 0.0
C909 C 0.94883 0.89559 0.61653 0.0
C910 C 0.94638 0.91585 0.63045 0.0
C911 C 0.96901 0.87318 0.61755 0.0
C912 C 0.02038 0.83269 0.61997 0.0
H913 H 8e-05 0.6925 0.64378 0.0
H914 H 0.99245 0.74434 0.64631 0.0
H915 H 0.04211 0.79585 0.60878 0.0
H916 H 0.96317 0.92884 0.65631 0.0
H917 H 0.99851 0.88928 0.6582 0.0
H918 H 0.99166 0.83585 0.66203 0.0
C919 C 0.01292 0.73662 0.64103 0.0
C920 C 0.03199 0.80474 0.62066 0.0
C921 C 0.01719 0.70689 0.63938 0.0
C922 C 0.96493 0.91372 0.64528 0.0
C923 C 0.98499 0.89104 0.6464 0.0
C924 C 0.00349 0.82779 0.65053 0.0
C925 C 0.03433 0.75617 0.63539 0.0
C926 C 0.02821 0.78762 0.63602 0.0
C927 C 0.98695 0.87035 0.63263 0.0
C928 C 0.00497 0.84399 0.63465 0.0
H929 H 0.085 0.70763 0.62114 0.0
H930 H 0.07711 0.76004 0.62369 0.0
H931 H 0.0121 0.78715 0.66326 0.0
H932 H 0.93482 0.89681 0.60492 0.0
H933 H 0.96961 0.85731 0.60687 0.0
C934 C 0.7803 0.06247 0.62532 0.0
C935 C 0.79992 0.03962 0.62831 0.0
C936 C 0.75055 0.05829 0.62777 0.0
C937 C 0.69785 0.01025 0.65007 0.0
H938 H 0.64672 0.0294 0.61064 0.0
C939 C 0.59367 0.95688 0.61714 0.0
C940 C 0.57538 0.95281 0.63192 0.0
C941 C 0.61708 0.9758 0.6182 0.0
C942 C 0.66065 0.02433 0.62187 0.0
H943 H 0.80367 0.99455 0.63634 0.0
H944 H 0.75196 0.98734 0.64054 0.0
H945 H 0.69693 0.04618 0.61017 0.0
H946 H 0.56657 0.9657 0.65926 0.0
H947 H 0.60821 -0.00133 0.66128 0.0
H948 H 0.6621 0.98702 0.66128 0.0
C949 C 0.75957 0.00854 0.63647 0.0
C950 C 0.68931 0.03403 0.62165 0.0
C951 C 0.78919 0.0126 0.63387 0.0
C952 C 0.58027 0.96873 0.64764 0.0
C953 C 0.60408 0.98743 0.64881 0.0
C954 C 0.66916 0.00072 0.65035 0.0
C955 C 0.73995 0.0313 0.63346 0.0
C956 C 0.70847 0.02603 0.63538 0.0
C957 C 0.62296 0.99074 0.63416 0.0
C958 C 0.65065 0.00666 0.6359 0.0
H959 H 0.78789 0.08358 0.62107 0.0
H960 H 0.73585 0.07617 0.62533 0.0
H961 H 0.7121 0.00416 0.66095 0.0
H962 H 0.59025 0.94491 0.60485 0.0
H963 H 0.63146 0.97754 0.60678 0.0
C964 C 0.55912 0.6 0.65547 0.0
C965 C 0.54827 0.57634 0.6458 0.0
C966 C 0.54422 0.62622 0.65566 0.0
C967 C 0.47743 0.66552 0.64559 0.0
H968 H 0.53079 0.72419 0.6284 0.0
C969 C 0.44168 0.78188 0.62491 0.0
C970 C 0.46052 0.80447 0.62983 0.0
C971 C 0.44991 0.75294 0.62732 0.0
C972 C 0.51564 0.70825 0.63344 0.0
H973 H 0.5125 0.56083 0.62965 0.0
H974 H 0.48614 0.60698 0.63011 0.0
H975 H 0.54811 0.67531 0.63368 0.0
H976 H 0.50237 0.81438 0.64158 0.0
H977 H 0.51631 0.76433 0.64611 0.0
H978 H 0.445 0.69887 0.64561 0.0
C979 C 0.50607 0.605 0.63767 0.0
C980 C 0.52557 0.68022 0.63643 0.0
C981 C 0.52105 0.57858 0.6375 0.0
C982 C 0.48749 0.79755 0.6374 0.0
C983 C 0.49555 0.76878 0.63994 0.0
C984 C 0.46746 0.69385 0.64277 0.0
C985 C 0.51829 0.62934 0.64606 0.0
C986 C 0.50672 0.6587 0.64275 0.0
C987 C 0.47704 0.74611 0.63476 0.0
C988 C 0.48663 0.7156 0.6369 0.0
H989 H 0.58002 0.59873 0.66204 0.0
H990 H 0.55386 0.64461 0.66244 0.0
H991 H 0.4625 0.64916 0.65036 0.0
H992 H 0.4207 0.78654 0.61908 0.0
H993 H 0.43526 0.73597 0.62306 0.0
C994 C 0.91256 0.5323 0.63602 0.0
C995 C 0.91306 0.56014 0.64366 0.0
C996 C 0.88677 0.51636 0.63563 0.0
C997 C 0.81016 0.53132 0.63251 0.0
H998 H 0.79658 0.4507 0.6445 0.0
C999 C 0.69579 0.48749 0.63788 0.0
C1000 C 0.68943 0.46018 0.63056 0.0
C1001 C 0.72429 0.49683 0.63941 0.0
C1002 C 0.80024 0.47312 0.64086 0.0
H1003 H 0.88778 0.59233 0.65789 0.0
H1004 H 0.84294 0.56456 0.65726 0.0
H1005 H 0.84514 0.47161 0.64851 0.0
H1006 H 0.70817 0.42095 0.61944 0.0
H1007 H 0.75844 0.4377 0.62189 0.0
H1008 H 0.76578 0.53314 0.62469 0.0
C1009 C 0.86229 0.55516 0.65143 0.0
C1010 C 0.82789 0.48505 0.64323 0.0
C1011 C 0.88793 0.571 0.65183 0.0
C1012 C 0.71239 0.44217 0.62506 0.0
C1013 C 0.74113 0.45166 0.62655 0.0
C1014 C 0.78279 0.51945 0.63002 0.0
C1015 C 0.86121 0.52821 0.64274 0.0
C1016 C 0.83281 0.51446 0.63946 0.0
C1017 C 0.74727 0.47926 0.63356 0.0
C1018 C 0.7773 0.49045 0.63458 0.0
H1019 H 0.9314 0.52365 0.62924 0.0
H1020 H 0.88638 0.49568 0.62876 0.0
H1021 H 0.8136 0.55385 0.62903 0.0
H1022 H 0.67873 0.50179 0.64251 0.0
H1023 H 0.72833 0.51792 0.64527 0.0
C1024 C 0.65007 0.20105 0.10088 0.0
C1025 C 0.65002 0.17515 0.1108 0.0
C1026 C 0.67445 0.21924 0.10099 0.0
C1027 C 0.73731 0.23824 0.12856 0.0
H1028 H 0.77233 0.26654 0.08476 0.0
C1029 C 0.8451 0.29945 0.13136 0.0
C1030 C 0.84788 0.32409 0.12048 0.0
C1031 C 0.82257 0.27973 0.12855 0.0
C1032 C 0.76268 0.25911 0.09714 0.0
H1033 H 0.67554 0.14825 0.12872 0.0
H1034 H 0.71745 0.18004 0.12912 0.0
H1035 H 0.72837 0.237 0.08332 0.0
H1036 H 0.83008 0.34653 0.09748 0.0
H1037 H 0.79039 0.31265 0.09285 0.0
H1038 H 0.77076 0.2607 0.14253 0.0
C1039 C 0.69878 0.18628 0.12121 0.0
C1040 C 0.73748 0.24219 0.09628 0.0
C1041 C 0.67474 0.16801 0.12091 0.0
C1042 C 0.82866 0.32766 0.10605 0.0
C1043 C 0.80583 0.30815 0.10339 0.0
C1044 C 0.7622 0.25536 0.12945 0.0
C1045 C 0.69897 0.21208 0.11128 0.0
C1046 C 0.72472 0.23137 0.112 0.0
C1047 C 0.80191 0.28442 0.11498 0.0
C1048 C 0.77547 0.26583 0.11376 0.0
H1049 H 0.63143 0.20712 0.09291 0.0
H1050 H 0.67397 0.2391 0.09327 0.0
H1051 H 0.72772 0.23055 0.14092 0.0
H1052 H 0.85972 0.29596 0.1425 0.0
H1053 H 0.82088 0.26124 0.1374 0.0
C1054 C 0.32996 0.6724 0.1214 0.0
C1055 C 0.32392 0.64822 0.11055 0.0
C1056 C 0.31124 0.69614 0.12181 0.0
C1057 C 0.25652 0.73544 0.09623 0.0
H1058 H 0.23456 0.76642 0.14254 0.0
C1059 C 0.16998 0.82597 0.10523 0.0
C1060 C 0.17258 0.84474 0.11998 0.0
C1061 C 0.18959 0.80312 0.10281 0.0
C1062 C 0.24086 0.7585 0.12946 0.0
H1063 H 0.29346 0.63022 0.09148 0.0
H1064 H 0.26071 0.67224 0.09204 0.0
H1065 H 0.26529 0.72369 0.14092 0.0
H1066 H 0.19912 0.85567 0.14291 0.0
H1067 H 0.23403 0.81678 0.13827 0.0
H1068 H 0.23259 0.77062 0.08473 0.0
C1069 C 0.28004 0.67253 0.10026 0.0
C1070 C 0.25831 0.73379 0.12857 0.0
C1071 C 0.29866 0.64845 0.10003 0.0
C1072 C 0.19636 0.84142 0.13151 0.0
C1073 C 0.21619 0.81886 0.12896 0.0
C1074 C 0.23928 0.76044 0.09711 0.0
C1075 C 0.28611 0.69655 0.11125 0.0
C1076 C 0.26644 0.72204 0.11196 0.0
C1077 C 0.21249 0.79873 0.11496 0.0
C1078 C 0.23131 0.77241 0.11376 0.0
H1079 H 0.3492 0.67303 0.12969 0.0
H1080 H 0.31664 0.71442 0.13028 0.0
H1081 H 0.26269 0.727 0.08324 0.0
H1082 H 0.15178 0.82781 0.09615 0.0
H1083 H 0.18585 0.78808 0.09194 0.0
C1084 C 0.32964 0.66446 0.38702 0.0
C1085 C 0.35306 0.6743 0.39741 0.0
C1086 C 0.30387 0.68052 0.3861 0.0
C1087 C 0.26032 0.73502 0.41005 0.0
H1088 H 0.22872 0.75322 0.36335 0.0
C1089 C 0.17132 0.82237 0.39997 0.0
C1090 C 0.15248 0.81999 0.38527 0.0
C1091 C 0.19371 0.80223 0.40248 0.0
C1092 C 0.23673 0.7479 0.37656 0.0
H1093 H 0.36746 0.70848 0.41525 0.0
H1094 H 0.32238 0.73611 0.41387 0.0
H1095 H 0.27146 0.72253 0.36564 0.0
H1096 H 0.14109 0.79346 0.36241 0.0
H1097 H 0.17901 0.75757 0.36727 0.0
H1098 H 0.22547 0.75993 0.42107 0.0
C1099 C 0.32401 0.71607 0.40638 0.0
C1100 C 0.26143 0.73038 0.37783 0.0
C1101 C 0.34991 0.70029 0.40708 0.0
C1102 C 0.15539 0.79602 0.3738 0.0
C1103 C 0.17743 0.77562 0.37648 0.0
C1104 C 0.23533 0.7522 0.40882 0.0
C1105 C 0.30076 0.70649 0.39579 0.0
C1106 C 0.27368 0.72396 0.39457 0.0
C1107 C 0.19756 0.77891 0.39051 0.0
C1108 C 0.22327 0.75915 0.39203 0.0
H1109 H 0.33132 0.64453 0.37941 0.0
H1110 H 0.28625 0.67252 0.3779 0.0
H1111 H 0.26911 0.7302 0.42316 0.0
H1112 H 0.16988 0.84073 0.40896 0.0
H1113 H 0.20879 0.80585 0.41334 0.0
C1114 C 0.82272 0.33426 0.40004 0.0
C1115 C 0.83173 0.34151 0.38262 0.0
C1116 C 0.80017 0.3143 0.40268 0.0
C1117 C 0.7398 0.27719 0.37889 0.0
H1118 H 0.75461 0.21334 0.41143 0.0
C1119 C 0.68574 0.16827 0.3686 0.0
C1120 C 0.66991 0.15686 0.38304 0.0
C1121 C 0.70519 0.19095 0.37121 0.0
C1122 C 0.75005 0.23122 0.40247 0.0
H1123 H 0.82318 0.33481 0.35439 0.0
H1124 H 0.78419 0.30047 0.35892 0.0
H1125 H 0.78706 0.25547 0.4113 0.0
H1126 H 0.66383 0.15882 0.4118 0.0
H1127 H 0.69855 0.19853 0.41639 0.0
H1128 H 0.70363 0.25254 0.36953 0.0
C1129 C 0.79427 0.31004 0.37059 0.0
C1130 C 0.76849 0.2554 0.40244 0.0
C1131 C 0.81679 0.32968 0.36798 0.0
C1132 C 0.6757 0.16716 0.40041 0.0
C1133 C 0.69546 0.18992 0.40304 0.0
C1134 C 0.72163 0.25306 0.37883 0.0
C1135 C 0.78603 0.30158 0.38794 0.0
C1136 C 0.76404 0.27826 0.39025 0.0
C1137 C 0.70948 0.20272 0.38832 0.0
C1138 C 0.72703 0.22947 0.39023 0.0
H1139 H 0.83394 0.34292 0.41159 0.0
H1140 H 0.79416 0.30842 0.41621 0.0
H1141 H 0.73533 0.29468 0.36963 0.0
H1142 H 0.68211 0.1606 0.35508 0.0
H1143 H 0.71622 0.19998 0.35968 0.0
C1144 C 0.17336 0.67741 0.86785 0.0
C1145 C 0.16022 0.66383 0.8826 0.0
C1146 C 0.19553 0.6975 0.87031 0.0
C1147 C 0.23141 0.74741 0.90102 0.0
H1148 H 0.29827 0.73077 0.8712 0.0
C1149 C 0.3337 0.82145 0.89967 0.0
C1150 C 0.34244 0.82896 0.88224 0.0
C1151 C 0.31371 0.79894 0.9024 0.0
C1152 C 0.2798 0.73578 0.87962 0.0
H1153 H 0.15867 0.66234 0.9116 0.0
H1154 H 0.1975 0.69811 0.9159 0.0
H1155 H 0.25687 0.69813 0.87085 0.0
H1156 H 0.33831 0.81784 0.85416 0.0
H1157 H 0.30399 0.77886 0.85886 0.0
H1158 H 0.25408 0.78576 0.90927 0.0
C1159 C 0.19062 0.69281 0.90243 0.0
C1160 C 0.25608 0.71709 0.8794 0.0
C1161 C 0.16835 0.67245 0.89996 0.0
C1162 C 0.33202 0.81262 0.86776 0.0
C1163 C 0.31239 0.79012 0.87047 0.0
C1164 C 0.25521 0.76634 0.90116 0.0
C1165 C 0.20512 0.70468 0.88758 0.0
C1166 C 0.23129 0.72311 0.88968 0.0
C1167 C 0.30249 0.78333 0.88777 0.0
C1168 C 0.27933 0.76115 0.89003 0.0
H1169 H 0.1674 0.6716 0.85429 0.0
H1170 H 0.20583 0.70682 0.85862 0.0
H1171 H 0.2126 0.7525 0.90912 0.0
H1172 H 0.34125 0.83379 0.91109 0.0
H1173 H 0.30667 0.79408 0.9159 0.0
C1174 C 0.70341 0.34333 0.87689 0.0
C1175 C 0.67876 0.34577 0.88782 0.0
C1176 C 0.72306 0.32055 0.87928 0.0
C1177 C 0.74332 0.25938 0.9099 0.0
H1178 H 0.77312 0.22599 0.86593 0.0
C1179 C 0.79671 0.14523 0.9055 0.0
C1180 C 0.82277 0.14353 0.89578 0.0
C1181 C 0.78014 0.1707 0.90538 0.0
C1182 C 0.76518 0.2352 0.87834 0.0
H1183 H 0.65612 0.32687 0.91041 0.0
H1184 H 0.68982 0.28677 0.91429 0.0
H1185 H 0.74338 0.26948 0.86467 0.0
H1186 H 0.85177 0.16731 0.87826 0.0
H1187 H 0.82259 0.21144 0.87781 0.0
H1188 H 0.76451 0.22421 0.92342 0.0
C1189 C 0.69444 0.3027 0.90405 0.0
C1190 C 0.74823 0.26031 0.87767 0.0
C1191 C 0.67501 0.32576 0.90182 0.0
C1192 C 0.8318 0.16783 0.88588 0.0
C1193 C 0.81504 0.19311 0.88557 0.0
C1194 C 0.76 0.234 0.91054 0.0
C1195 C 0.71831 0.29929 0.89248 0.0
C1196 C 0.73711 0.27289 0.89343 0.0
C1197 C 0.78906 0.19486 0.89533 0.0
C1198 C 0.77118 0.22169 0.89477 0.0
H1199 H 0.70705 0.35853 0.86607 0.0
H1200 H 0.74161 0.31925 0.87044 0.0
H1201 H 0.73552 0.26851 0.92236 0.0
H1202 H 0.78918 0.12696 0.9133 0.0
H1203 H 0.7601 0.17135 0.91293 0.0
C1204 C 0.82746 0.16943 0.60698 0.0
C1205 C 0.84481 0.16994 0.62244 0.0
C1206 C 0.80454 0.18909 0.60495 0.0
C1207 C 0.75634 0.23428 0.6332 0.0
H1208 H 0.72823 0.26334 0.58774 0.0
C1209 C 0.66941 0.32463 0.60641 0.0
C1210 C 0.64771 0.32065 0.6194 0.0
C1211 C 0.69235 0.3049 0.60487 0.0
C1212 C 0.73585 0.25555 0.60057 0.0
H1213 H 0.85332 0.19303 0.64714 0.0
H1214 H 0.81428 0.22801 0.64329 0.0
H1215 H 0.77282 0.23488 0.58872 0.0
H1216 H 0.63176 0.29151 0.63989 0.0
H1217 H 0.67103 0.25655 0.63674 0.0
H1218 H 0.72019 0.25565 0.64518 0.0
C1219 C 0.81753 0.21174 0.63303 0.0
C1220 C 0.76133 0.23898 0.60111 0.0
C1221 C 0.84016 0.19188 0.63516 0.0
C1222 C 0.64829 0.29539 0.62988 0.0
C1223 C 0.67102 0.27549 0.62819 0.0
C1224 C 0.73107 0.25093 0.63267 0.0
C1225 C 0.79868 0.20991 0.61826 0.0
C1226 C 0.77197 0.2282 0.61746 0.0
C1227 C 0.69396 0.28054 0.61615 0.0
C1228 C 0.72039 0.26179 0.61637 0.0
H1229 H 0.83036 0.15268 0.59697 0.0
H1230 H 0.7905 0.18689 0.59343 0.0
H1231 H 0.76341 0.22592 0.64601 0.0
H1232 H 0.6697 0.34391 0.59815 0.0
H1233 H 0.7096 0.30968 0.5955 0.0
C1234 C 0.29934 0.84005 0.63317 0.0
C1235 C 0.32269 0.8429 0.62124 0.0
C1236 C 0.27974 0.81713 0.63144 0.0
C1237 C 0.25612 0.75645 0.60157 0.0
H1238 H 0.23445 0.72169 0.64685 0.0
C1239 C 0.19697 0.64763 0.63396 0.0
C1240 C 0.17286 0.64537 0.62259 0.0
C1241 C 0.21698 0.6701 0.63179 0.0
C1242 C 0.24058 0.73077 0.63404 0.0
H1243 H 0.34277 0.8248 0.59747 0.0
H1244 H 0.30901 0.7845 0.59466 0.0
H1245 H 0.26391 0.76505 0.64664 0.0
H1246 H 0.15185 0.66393 0.59929 0.0
H1247 H 0.18629 0.70344 0.59575 0.0
H1248 H 0.2334 0.72141 0.589 0.0
C1249 C 0.30552 0.80015 0.60525 0.0
C1250 C 0.25708 0.75612 0.63392 0.0
C1251 C 0.32495 0.82331 0.60686 0.0
C1252 C 0.17026 0.66495 0.60826 0.0
C1253 C 0.19009 0.68768 0.60622 0.0
C1254 C 0.23968 0.73089 0.60168 0.0
C1255 C 0.28321 0.79621 0.61787 0.0
C1256 C 0.26499 0.76945 0.61772 0.0
C1257 C 0.21316 0.69115 0.61835 0.0
C1258 C 0.23168 0.71769 0.61794 0.0
H1259 H 0.2968 0.85493 0.64428 0.0
H1260 H 0.26233 0.81536 0.64109 0.0
H1261 H 0.26163 0.76613 0.58882 0.0
H1262 H 0.19975 0.63273 0.64503 0.0
H1263 H 0.23495 0.6715 0.64106 0.0
C1264 C 0.52098 0.04052 0.06595 0.0
C1265 C 0.55012 0.04913 0.06608 0.0
C1266 C 0.50822 0.03009 0.05026 0.0
C1267 C 0.51749 0.02435 1.00096 0.0
H1268 H 0.47018 0.9555 0.00664 0.0
C1269 C 0.48087 0.9583 0.93983 0.0
C1270 C 0.45179 0.9495 0.93947 0.0
C1271 C 0.49321 0.96889 0.9556 0.0
C1272 C 0.4831 0.97486 0.00481 0.0
H1273 H 0.58862 0.05458 0.04995 0.0
H1274 H 0.56638 0.03653 0.02236 0.0
H1275 H 0.49005 0.9795 0.03298 0.0
H1276 H 0.41306 0.94356 0.95532 0.0
H1277 H 0.43456 0.96199 0.98307 0.0
H1278 H 0.51057 0.01971 0.97279 0.0
C1279 C 0.55319 0.03809 0.03431 0.0
C1280 C 0.49445 0.98871 0.01993 0.0
C1281 C 0.56594 0.04858 0.05005 0.0
C1282 C 0.43567 0.94986 0.95538 0.0
C1283 C 0.44799 0.96055 0.97121 0.0
C1284 C 0.50615 0.01051 0.98584 0.0
C1285 C 0.5244 0.02791 0.03435 0.0
C1286 C 0.5118 0.01365 0.01821 0.0
C1287 C 0.47667 0.97103 0.97137 0.0
C1288 C 0.48888 0.98551 0.98755 0.0
H1289 H 0.5085 0.0405 0.07824 0.0
H1290 H 0.48587 0.023 0.05072 0.0
H1291 H 0.53043 0.04369 0.99912 0.0
H1292 H 0.49364 0.95831 0.92765 0.0
H1293 H 0.51551 0.97613 0.9553 0.0
C1294 C 0.47404 0.57214 0.05295 0.0
C1295 C 0.45486 0.55787 0.06453 0.0
C1296 C 0.48406 0.55845 0.03747 0.0
C1297 C 0.47154 0.49686 0.0066 0.0
H1298 H 0.55426 0.50353 0.99828 0.0
C1299 C 0.52863 0.42752 0.95308 0.0
C1300 C 0.54899 0.44161 0.9422 0.0
C1301 C 0.51812 0.44089 0.96856 0.0
C1302 C 0.5311 0.50165 1.00027 0.0
H1303 H 0.42985 0.51891 0.06877 0.0
H1304 H 0.44715 0.49477 0.0415 0.0
H1305 H 0.5321 0.52944 0.02319 0.0
H1306 H 0.57509 0.48009 0.93902 0.0
H1307 H 0.55682 0.50373 0.96615 0.0
H1308 H 0.47049 0.4692 0.98362 0.0
C1309 C 0.45444 0.51659 0.04433 0.0
C1310 C 0.51835 0.51657 0.01455 0.0
C1311 C 0.44444 0.53037 0.05989 0.0
C1312 C 0.55972 0.4687 0.94742 0.0
C1313 C 0.54915 0.48219 0.96291 0.0
C1314 C 0.48428 0.482 0.99227 0.0
C1315 C 0.47508 0.53015 0.03324 0.0
C1316 C 0.4884 0.51442 0.01787 0.0
C1317 C 0.52765 0.46875 0.97344 0.0
C1318 C 0.51425 0.48418 0.98892 0.0
H1319 H 0.48237 0.59339 0.05636 0.0
H1320 H 0.49944 0.56975 0.02904 0.0
H1321 H 0.44839 0.49496 0.00866 0.0
H1322 H 0.51992 0.40667 0.94915 0.0
H1323 H 0.50205 0.42963 0.9765 0.0
C1324 C 0.97152 0.4717 0.07018 0.0
C1325 C 0.94493 0.45703 0.0695 0.0
C1326 C 0.98443 0.4821 0.05456 0.0
C1327 C 0.98247 0.47746 0.00486 0.0
H1328 H 0.01756 0.5537 0.00791 0.0
C1329 C 0.01907 0.53777 0.94164 0.0
C1330 C 0.04704 0.54965 0.94208 0.0
C1331 C 0.0056 0.52862 0.95739 0.0
C1332 C 0.00804 0.53233 0.00687 0.0
H1333 H 0.91132 0.44082 0.05203 0.0
H1334 H 0.93372 0.45915 0.02454 0.0
H1335 H 0.99693 0.53154 0.03465 0.0
H1336 H 0.08231 0.56287 0.95927 0.0
H1337 H 0.05861 0.54721 0.98702 0.0
H1338 H 0.99342 0.47839 0.97704 0.0
C1339 C 0.94488 0.46235 0.03713 0.0
C1340 C 0.99629 0.51951 0.02221 0.0
C1341 C 0.93204 0.45174 0.05283 0.0
C1342 C 0.06056 0.55411 0.95866 0.0
C1343 C 0.04703 0.54498 0.97449 0.0
C1344 C 0.99409 0.49034 0.98951 0.0
C1345 C 0.97091 0.47829 0.03785 0.0
C1346 C 0.98343 0.49185 0.02144 0.0
C1347 C 0.01981 0.5312 0.97395 0.0
C1348 C 0.00701 0.51793 0.99031 0.0
H1349 H 0.98184 0.47598 0.08294 0.0
H1350 H 0.0048 0.4936 0.05563 0.0
H1351 H 0.97316 0.45601 1.00378 0.0
H1352 H 0.00831 0.53406 0.92896 0.0
H1353 H 0.98439 0.51868 0.95652 0.0
C1354 C 0.97472 0.07096 0.95196 0.0
C1355 C 0.95595 0.05635 0.94028 0.0
C1356 C 0.98469 0.05749 0.96752 0.0
C1357 C 0.9722 0.99576 0.99836 0.0
H1358 H 0.05422 0.00485 0.00826 0.0
C1359 C 0.02845 0.92809 0.05288 0.0
C1360 C 0.04735 0.94295 0.06435 0.0
C1361 C 0.01858 0.94111 0.03714 0.0
C1362 C 0.03124 0.00228 0.0058 0.0
H1363 H 0.93168 0.01695 0.93594 0.0
H1364 H 0.94898 0.99317 0.96329 0.0
H1365 H 0.03265 0.02997 0.98286 0.0
H1366 H 0.07159 0.98245 0.06833 0.0
H1367 H 0.0545 0.00543 0.0407 0.0
H1368 H 0.97078 0.96813 0.02133 0.0
C1369 C 0.95597 0.0151 0.96049 0.0
C1370 C 0.01882 0.01675 0.99125 0.0
C1371 C 0.94598 0.02865 0.94487 0.0
C1372 C 0.05737 0.97048 0.05948 0.0
C1373 C 0.04747 0.98359 0.0437 0.0
C1374 C 0.98463 0.9813 0.01292 0.0
C1375 C 0.9761 0.02907 0.97174 0.0
C1376 C 0.98912 0.01374 0.98736 0.0
C1377 C 0.02731 0.96936 0.03259 0.0
C1378 C 0.01432 0.98436 0.01684 0.0
H1379 H 0.98264 0.09239 0.94863 0.0
H1380 H -0.00036 0.06914 0.97606 0.0
H1381 H 0.94923 0.99321 0.99589 0.0
H1382 H 0.02029 0.90689 0.05653 0.0
H1383 H 0.00355 0.92928 0.02876 0.0
C1384 C 0.9678 0.05292 0.55959 0.0
C1385 C 0.93908 0.04484 0.56307 0.0
C1386 C 0.98182 0.04309 0.54408 0.0
C1387 C 0.9692 0.00749 0.49985 0.0
H1388 H 0.04765 0.97932 0.50648 0.0
C1389 C 0.02619 0.93903 0.44558 0.0
C1390 C 0.05479 0.94693 0.44161 0.0
C1391 C 0.01253 0.94989 0.46094 0.0
C1392 C 0.02583 0.98726 0.50435 0.0
H1393 H 0.90203 0.02127 0.55305 0.0
H1394 H 0.92624 0.0041 0.52602 0.0
H1395 H 0.02276 0.00336 0.53115 0.0
H1396 H 0.0919 0.97156 0.45052 0.0
H1397 H 0.06833 0.99035 0.47743 0.0
H1398 H 0.97223 0.99121 0.47307 0.0
C1399 C 0.93803 0.01826 0.53498 0.0
C1400 C 0.01158 0.00122 0.51848 0.0
C1401 C 0.92409 0.02812 0.55043 0.0
C1402 C 0.06999 0.96473 0.45358 0.0
C1403 C 0.05642 0.97555 0.46893 0.0
C1404 C 0.98342 0.99347 0.48573 0.0
C1405 C 0.96734 0.02493 0.53182 0.0
C1406 C 0.98304 0.01147 0.51644 0.0
C1407 C 0.02725 0.96891 0.47257 0.0
C1408 C 0.01189 0.98309 0.48781 0.0
H1409 H 0.97983 0.06552 0.5693 0.0
H1410 H 0.00424 0.04906 0.54194 0.0
H1411 H 0.94739 0.01542 0.49768 0.0
H1412 H 0.01396 0.92573 0.43633 0.0
H1413 H 0.99019 0.94401 0.46347 0.0
C1414 C 0.52547 0.06936 0.45284 0.0
C1415 C 0.54596 0.05521 0.44206 0.0
C1416 C 0.51461 0.05597 0.46822 0.0
C1417 C 0.52631 0.9949 0.49989 0.0
H1418 H 0.44332 0.0018 0.50709 0.0
C1419 C 0.46744 0.92496 0.55211 0.0
C1420 C 0.44752 0.93926 0.56322 0.0
C1421 C 0.47802 0.93843 0.53669 0.0
C1422 C 0.46654 -0.00016 0.50537 0.0
H1423 H 0.57194 0.01656 0.43897 0.0
H1424 H 0.55312 0.99294 0.46596 0.0
H1425 H 0.46639 0.0276 0.48245 0.0
H1426 H 0.42223 0.97824 0.56684 0.0
H1427 H 0.44046 0.00195 0.53971 0.0
H1428 H 0.52644 0.96707 0.52279 0.0
C1429 C 0.54561 0.01454 0.46271 0.0
C1430 C 0.47984 0.01472 0.49127 0.0
C1431 C 0.55651 0.02803 0.44731 0.0
C1432 C 0.43716 0.96664 0.55824 0.0
C1433 C 0.44775 0.9802 0.54276 0.0
C1434 C 0.51301 0.97998 0.51397 0.0
C1435 C 0.52389 0.02801 0.47309 0.0
C1436 C 0.50992 0.01249 0.48834 0.0
C1437 C 0.469 0.96659 0.5321 0.0
C1438 C 0.48294 0.98221 0.51689 0.0
H1439 H 0.51684 0.09024 0.44888 0.0
H1440 H 0.49838 0.06726 0.47604 0.0
H1441 H 0.54954 0.99295 0.49821 0.0
H1442 H 0.47597 0.90395 0.55587 0.0
H1443 H 0.49392 0.92708 0.52863 0.0
C1444 C 0.4765 0.52889 0.43879 0.0
C1445 C 0.44962 0.54307 0.43932 0.0
C1446 C 0.48946 0.51896 0.45453 0.0
C1447 C 0.48631 0.5238 0.50427 0.0
H1448 H 0.52253 0.44799 0.50163 0.0
C1449 C 0.51953 0.46196 0.5678 0.0
C1450 C 0.5474 0.44976 0.56789 0.0
C1451 C 0.50732 0.4721 0.55189 0.0
C1452 C 0.51272 0.46927 0.50256 0.0
H1453 H 0.4154 0.55874 0.45656 0.0
H1454 H 0.4378 0.54119 0.48422 0.0
H1455 H 0.50268 0.46998 0.47464 0.0
H1456 H 0.58388 0.43723 0.55142 0.0
H1457 H 0.56238 0.4546 0.52339 0.0
H1458 H 0.49607 0.52285 0.53226 0.0
C1459 C 0.44924 0.53811 0.4717 0.0
C1460 C 0.50142 0.48199 0.48707 0.0
C1461 C 0.43639 0.54826 0.45591 0.0
C1462 C 0.56221 0.44628 0.55163 0.0
C1463 C 0.54993 0.45636 0.53564 0.0
C1464 C 0.49747 0.511 0.51977 0.0
C1465 C 0.47563 0.5227 0.47117 0.0
C1466 C 0.48807 0.50945 0.48769 0.0
C1467 C 0.52267 0.47013 0.53568 0.0
C1468 C 0.51076 0.48355 0.51912 0.0
H1469 H 0.48702 0.52459 0.42609 0.0
H1470 H 0.51007 0.50782 0.4536 0.0
H1471 H 0.4766 0.54512 0.50525 0.0
H1472 H 0.50767 0.46476 0.58021 0.0
H1473 H 0.48605 0.48202 0.55235 0.0
C1474 C 0.04445 0.56464 0.55345 0.0
C1475 C 0.03918 0.55125 0.56997 0.0
C1476 C 0.0338 0.5523 0.53761 0.0
C1477 C 0.97657 0.50138 0.52215 0.0
H1478 H 0.01741 0.506 0.47693 0.0
C1479 C 0.94203 0.43925 0.45781 0.0
C1480 C 0.9463 0.4534 0.44142 0.0
C1481 C 0.95111 0.45228 0.47381 0.0
C1482 C 0.00554 0.50485 0.48942 0.0
H1483 H 0.02018 0.51399 0.583 0.0
H1484 H 0.00254 0.49184 0.55544 0.0
H1485 H 0.03994 0.52526 0.5039 0.0
H1486 H 0.96151 0.49271 0.42879 0.0
H1487 H 0.97683 0.51576 0.45666 0.0
H1488 H 0.94234 0.48059 0.50763 0.0
C1489 C 0.01406 0.51222 0.55459 0.0
C1490 C 0.0185 0.51589 0.50491 0.0
C1491 C 0.02449 0.52466 0.57036 0.0
C1492 C 0.95794 0.48148 0.44133 0.0
C1493 C 0.96705 0.49446 0.45724 0.0
C1494 C 0.96368 0.4902 0.50667 0.0
C1495 C 0.01784 0.52626 0.53805 0.0
C1496 C 0.00422 0.5143 0.5215 0.0
C1497 C 0.96467 0.47962 0.47361 0.0
C1498 C 0.97798 0.49187 0.49011 0.0
H1499 H 0.05536 0.58538 0.55288 0.0
H1500 H 0.03697 0.56386 0.52516 0.0
H1501 H 0.96461 0.50027 0.53461 0.0
H1502 H 0.93347 0.4174 0.45814 0.0
H1503 H 0.94904 0.44023 0.48618 0.0
C1504 C 0.60308 0.09321 0.32121 0.0
C1505 C 0.58106 0.0778 0.33005 0.0
C1506 C 0.60576 0.09165 0.30257 0.0
C1507 C 0.58541 0.04936 0.2627 0.0
H1508 H 0.58568 0.12357 0.23834 0.0
C1509 C 0.56663 0.05535 0.18697 0.0
C1510 C 0.58366 0.07486 0.17711 0.0
C1511 C 0.56571 0.05685 0.20563 0.0
C1512 C 0.58601 0.10264 0.24487 0.0
H1513 H 0.54589 0.04721 0.32648 0.0
H1514 H 0.55105 0.04396 0.29406 0.0
H1515 H 0.58868 0.12193 0.27092 0.0
H1516 H 0.61212 0.11207 0.17904 0.0
H1517 H 0.6111 0.11434 0.2116 0.0
H1518 H 0.58325 0.0299 0.23681 0.0
C1519 C 0.56604 0.05744 0.30148 0.0
C1520 C 0.58776 0.10173 0.26355 0.0
C1521 C 0.56309 0.05931 0.32004 0.0
C1522 C 0.59854 0.0969 0.18625 0.0
C1523 C 0.59798 0.09815 0.20497 0.0
C1524 C 0.58402 0.05023 0.24403 0.0
C1525 C 0.58679 0.07428 0.2925 0.0
C1526 C 0.58721 0.07509 0.27266 0.0
C1527 C 0.58219 0.07762 0.21492 0.0
C1528 C 0.58395 0.07689 0.23485 0.0
H1529 H 0.61711 0.10781 0.32852 0.0
H1530 H 0.62214 0.10462 0.29598 0.0
H1531 H 0.58521 0.02852 0.26937 0.0
H1532 H 0.55476 0.03822 0.18029 0.0
H1533 H 0.55259 0.04123 0.21277 0.0
C1534 C 0.41659 0.54823 0.31843 0.0
C1535 C 0.41262 0.57263 0.3295 0.0
C1536 C 0.41781 0.55114 0.29989 0.0
C1537 C 0.43377 0.60024 0.26336 0.0
H1538 H 0.38399 0.54925 0.23572 0.0
C1539 C 0.4506 0.58057 0.1884 0.0
C1540 C 0.42635 0.58436 0.17719 0.0
C1541 C 0.4474 0.57943 0.20692 0.0
C1542 C 0.39781 0.56373 0.24328 0.0
H1543 H 0.40841 0.61946 0.32967 0.0
H1544 H 0.41142 0.62456 0.29703 0.0
H1545 H 0.38224 0.54797 0.26847 0.0
H1546 H 0.37951 0.58835 0.17677 0.0
H1547 H 0.37392 0.5855 0.20939 0.0
H1548 H 0.44987 0.61548 0.23817 0.0
C1549 C 0.41311 0.60317 0.3029 0.0
C1550 C 0.39697 0.5629 0.26197 0.0
C1551 C 0.41148 0.60024 0.32156 0.0
C1552 C 0.39861 0.58539 0.18499 0.0
C1553 C 0.3954 0.58385 0.20363 0.0
C1554 C 0.43492 0.60077 0.24468 0.0
C1555 C 0.41551 0.57852 0.29192 0.0
C1556 C 0.41516 0.58093 0.27217 0.0
C1557 C 0.41989 0.58167 0.21474 0.0
C1558 C 0.41718 0.5823 0.23448 0.0
H1559 H 0.41776 0.52659 0.324 0.0
H1560 H 0.42025 0.53186 0.29174 0.0
H1561 H 0.44805 0.61427 0.27092 0.0
H1562 H 0.47233 0.57961 0.18295 0.0
H1563 H 0.46657 0.57719 0.21518 0.0
C1564 C 0.91127 0.39348 0.18659 0.0
C1565 C 0.91412 0.42115 0.17888 0.0
C1566 C 0.91392 0.38987 0.20516 0.0
C1567 C 0.90219 0.43014 0.24643 0.0
H1568 H 0.95287 0.37462 0.26959 0.0
C1569 C 0.90373 0.40899 0.32322 0.0
C1570 C 0.93149 0.40897 0.331 0.0
C1571 C 0.90056 0.40968 0.30458 0.0
C1572 C 0.93856 0.39016 0.26326 0.0
H1573 H 0.92373 0.46636 0.18464 0.0
H1574 H 0.92789 0.45995 0.21675 0.0
H1575 H 0.9502 0.37608 0.23681 0.0
H1576 H 0.97764 0.41034 0.3252 0.0
H1577 H 0.97195 0.41128 0.29285 0.0
H1578 H 0.89064 0.44437 0.2728 0.0
C1579 C 0.92333 0.44118 0.20849 0.0
C1580 C 0.93691 0.39083 0.24457 0.0
C1581 C 0.92109 0.44474 0.19004 0.0
C1582 C 0.9559 0.41036 0.31973 0.0
C1583 C 0.95272 0.41062 0.30116 0.0
C1584 C 0.90349 0.42916 0.26509 0.0
C1585 C 0.91908 0.41391 0.21627 0.0
C1586 C 0.91912 0.41121 0.23601 0.0
C1587 C 0.92507 0.40993 0.29341 0.0
C1588 C 0.92206 0.40951 0.27367 0.0
H1589 H 0.90587 0.37488 0.1784 0.0
H1590 H 0.9107 0.36856 0.21091 0.0
H1591 H 0.88813 0.44592 0.2401 0.0
H1592 H 0.88449 0.40785 0.3315 0.0
H1593 H 0.87898 0.40919 0.29889 0.0
C1594 C 0.07897 0.94202 0.31778 0.0
C1595 C 0.0846 0.91833 0.32914 0.0
C1596 C 0.07869 0.93855 0.29927 0.0
C1597 C 0.06704 0.8885 0.26297 0.0
H1598 H 0.11569 0.94107 0.23568 0.0
C1599 C 0.04956 0.91148 0.18841 0.0
C1600 C 0.07358 0.90802 0.17697 0.0
C1601 C 0.05302 0.91135 0.20693 0.0
C1602 C 0.10225 0.92611 0.24315 0.0
H1603 H 0.09273 0.87202 0.32983 0.0
H1604 H 0.09118 0.86585 0.29719 0.0
H1605 H 0.11671 0.94243 0.26848 0.0
H1606 H 0.12032 0.90305 0.17616 0.0
H1607 H 0.1264 0.90388 0.20882 0.0
H1608 H 0.05173 0.87297 0.23764 0.0
C1609 C 0.08755 0.88716 0.30285 0.0
C1610 C 0.10269 0.92698 0.26185 0.0
C1611 C 0.08831 0.8907 0.32149 0.0
C1612 C 0.10139 0.90579 0.18457 0.0
C1613 C 0.10488 0.90616 0.20322 0.0
C1614 C 0.06623 0.88798 0.24427 0.0
C1615 C 0.08354 0.91126 0.29161 0.0
C1616 C 0.08481 0.90844 0.2719 0.0
C1617 C 0.08059 0.90823 0.21452 0.0
C1618 C 0.08354 0.90704 0.23422 0.0
H1619 H 0.07588 0.96364 0.32311 0.0
H1620 H 0.07503 0.95736 0.29088 0.0
H1621 H 0.05302 0.87408 0.27045 0.0
H1622 H 0.02778 0.91332 0.18312 0.0
H1623 H 0.03402 0.91349 0.21536 0.0
C1624 C 0.40129 0.8986 0.81985 0.0
C1625 C 0.41745 0.92004 0.82871 0.0
C1626 C 0.40179 0.89667 0.80115 0.0
C1627 C 0.41803 0.94271 0.76165 0.0
H1628 H 0.40986 0.8708 0.73531 0.0
C1629 C 0.43738 0.9323 0.68561 0.0
C1630 C 0.41859 0.91447 0.67572 0.0
C1631 C 0.43494 0.93414 0.7042 0.0
C1632 C 0.41178 0.89108 0.74252 0.0
H1633 H 0.44854 0.95472 0.82506 0.0
H1634 H 0.45048 0.9505 0.79263 0.0
H1635 H 0.41284 0.86968 0.76792 0.0
H1636 H 0.38172 0.88551 0.67755 0.0
H1637 H 0.37752 0.88873 0.71013 0.0
H1638 H 0.41769 0.96398 0.73617 0.0
C1639 C 0.43647 0.93592 0.79998 0.0
C1640 C 0.41353 0.89046 0.76121 0.0
C1641 C 0.43566 0.93811 0.8186 0.0
C1642 C 0.39639 0.89961 0.68476 0.0
C1643 C 0.39419 0.90117 0.70342 0.0
C1644 C 0.41658 0.94329 0.74298 0.0
C1645 C 0.41874 0.91591 0.79095 0.0
C1646 C 0.41688 0.91627 0.77103 0.0
C1647 C 0.41385 0.91797 0.71335 0.0
C1648 C 0.41356 0.91749 0.73321 0.0
H1649 H 0.38683 0.88453 0.82726 0.0
H1650 H 0.38774 0.88107 0.7947 0.0
H1651 H 0.4198 0.96312 0.76871 0.0
H1652 H 0.45475 0.94398 0.67904 0.0
H1653 H 0.45049 0.94716 0.7115 0.0
C1654 C 0.56426 0.43183 0.68815 0.0
C1655 C 0.58283 0.41429 0.67791 0.0
C1656 C 0.56452 0.43026 0.70679 0.0
C1657 C 0.591 0.38792 0.74581 0.0
H1658 H 0.588 0.46317 0.76896 0.0
C1659 C 0.60886 0.40141 0.82191 0.0
C1660 C 0.58683 0.41719 0.83054 0.0
C1661 C 0.61135 0.40203 0.80324 0.0
C1662 C 0.58881 0.442 0.7627 0.0
H1663 H 0.6149 0.37999 0.67912 0.0
H1664 H 0.61563 0.37744 0.71176 0.0
H1665 H 0.58409 0.45998 0.73654 0.0
H1666 H 0.55149 0.44752 0.82652 0.0
H1667 H 0.55617 0.44898 0.79409 0.0
H1668 H 0.59583 0.37006 0.77212 0.0
C1669 C 0.60065 0.39226 0.70538 0.0
C1670 C 0.58635 0.44011 0.74412 0.0
C1671 C 0.60017 0.39363 0.68665 0.0
C1672 C 0.56871 0.43515 0.82026 0.0
C1673 C 0.57141 0.436 0.80167 0.0
C1674 C 0.59364 0.38984 0.76444 0.0
C1675 C 0.58361 0.41135 0.71566 0.0
C1676 C 0.58694 0.41302 0.73545 0.0
C1677 C 0.59213 0.41875 0.79291 0.0
C1678 C 0.59219 0.41689 0.77308 0.0
H1679 H 0.55048 0.44781 0.68178 0.0
H1680 H 0.55043 0.44463 0.71427 0.0
H1681 H 0.59141 0.36672 0.7396 0.0
H1682 H 0.62299 0.38719 0.82945 0.0
H1683 H 0.62775 0.38879 0.79684 0.0
C1684 C 0.10069 0.58426 0.68742 0.0
C1685 C 0.07285 0.58287 0.67981 0.0
C1686 C 0.10428 0.58169 0.706 0.0
C1687 C 0.06495 0.59543 0.7475 0.0
H1688 H 0.11917 0.54283 0.77021 0.0
C1689 C 0.0885 0.59342 0.82406 0.0
C1690 C 0.08818 0.5657 0.83189 0.0
C1691 C 0.08701 0.59653 0.80543 0.0
C1692 C 0.10398 0.55766 0.76401 0.0
H1693 H 0.02718 0.57612 0.68574 0.0
H1694 H 0.03359 0.57203 0.71785 0.0
H1695 H 0.11702 0.54547 0.73747 0.0
H1696 H 0.08517 0.51958 0.82621 0.0
H1697 H 0.08283 0.52516 0.7939 0.0
H1698 H 0.05178 0.60753 0.774 0.0
C1699 C 0.05252 0.57539 0.70952 0.0
C1700 C 0.10292 0.55929 0.74533 0.0
C1701 C 0.04896 0.57756 0.69107 0.0
C1702 C 0.08551 0.54129 0.8207 0.0
C1703 C 0.08443 0.5444 0.80215 0.0
C1704 C 0.06631 0.59411 0.76616 0.0
C1705 C 0.08008 0.57806 0.71721 0.0
C1706 C 0.08303 0.57782 0.73693 0.0
C1707 C 0.08559 0.57198 0.79432 0.0
C1708 C 0.08549 0.57487 0.77458 0.0
H1709 H 0.11952 0.58835 0.67915 0.0
H1710 H 0.12579 0.5837 0.71165 0.0
H1711 H 0.04958 0.61008 0.74131 0.0
H1712 H 0.09061 0.61266 0.83226 0.0
H1713 H 0.08789 0.61806 0.79969 0.0
C1714 C 0.89806 0.08283 0.8201 0.0
C1715 C 0.92569 0.08217 0.82804 0.0
C1716 C 0.8951 0.08054 0.80147 0.0
C1717 C 0.93512 0.09614 0.76042 0.0
H1718 H 0.88265 0.04277 0.73693 0.0
C1719 C 0.91147 0.09522 0.68371 0.0
C1720 C 0.91214 0.06765 0.67567 0.0
C1721 C 0.91339 0.09801 0.70236 0.0
C1722 C 0.89736 0.05781 0.74335 0.0
H1723 H 0.97174 0.07713 0.82255 0.0
H1724 H 0.96642 0.07351 0.79034 0.0
H1725 H 0.88421 0.04476 0.76969 0.0
H1726 H 0.91671 0.02153 0.68097 0.0
H1727 H 0.91977 0.02655 0.71327 0.0
H1728 H 0.94835 0.10914 0.7341 0.0
C1729 C 0.94714 0.07606 0.79848 0.0
C1730 C 0.89808 0.05907 0.76204 0.0
C1731 C 0.95009 0.07793 0.81699 0.0
C1732 C 0.91597 0.04313 0.68663 0.0
C1733 C 0.91749 0.04591 0.70519 0.0
C1734 C 0.93409 0.0952 0.74173 0.0
C1735 C 0.91974 0.07794 0.7905 0.0
C1736 C 0.91731 0.07791 0.77074 0.0
C1737 C 0.91565 0.07328 0.71326 0.0
C1738 C 0.91553 0.07569 0.73303 0.0
H1739 H 0.87885 0.08608 0.82819 0.0
H1740 H 0.87369 0.08193 0.79559 0.0
H1741 H 0.94997 0.11106 0.76683 0.0
H1742 H 0.90849 0.11454 0.67569 0.0
H1743 H 0.91201 0.11939 0.70829 0.0
loop_
_geom_bond_atom_site_label_1
_geom_bond_atom_site_label_2
_geom_bond_distance
_geom_bond_site_symmetry_2
_ccdc_geom_bond_type
Co0 O3 1.970 . S
Co0 N17 1.989 . S
Co0 O25 1.967 . S
Co0 O32 1.920 . S
Co1 O4 1.951 1_565 S
Co1 N10 2.054 . S
Co1 N18 1.975 1_565 S
Co1 O26 1.947 . S
C2 O3 1.258 . S
C2 O4 1.263 . S
O3 Co0 1.970 . S
O3 C2 1.258 . S
O4 Co1 1.951 1_545 S
O4 C2 1.263 . S
C5 O6 1.235 . S
C5 O32 1.289 . S
O6 C5 1.235 . S
C7 C9 1.400 . S
C7 N10 1.351 . S
C7 C12 1.501 . S
C8 C9 1.387 . S
C8 N11 1.341 . S
C9 C7 1.400 . S
C9 C8 1.387 . S
N10 Co1 2.054 . S
N10 C7 1.351 . S
N10 N11 1.365 . S
N11 C8 1.341 . S
N11 N10 1.365 . S
N11 H31 0.862 . S
C12 C7 1.501 . S
C12 H13 0.961 . S
C12 H14 0.961 . S
C12 H15 0.960 . S
H13 C12 0.961 . S
H14 C12 0.961 . S
H15 C12 0.960 . S
C16 N17 1.342 . S
C16 C20 1.401 . S
C16 C21 1.499 . S
N17 Co0 1.989 . S
N17 C16 1.342 . S
N17 N18 1.388 . S
N18 Co1 1.975 1_545 S
N18 N17 1.388 . S
N18 C19 1.346 . S
C19 N18 1.346 . S
C19 C20 1.396 . S
C19 C29 1.510 1_545 S
C20 C16 1.401 . S
C20 C19 1.396 . S
C21 C16 1.499 . S
C21 H22 0.959 . S
C21 H23 0.960 . S
C21 H24 0.961 . S
H22 C21 0.959 . S
H23 C21 0.960 . S
H24 C21 0.961 . S
O25 Co0 1.967 . S
O25 C33 1.258 . S
O26 Co1 1.947 . S
O26 C33 1.266 1_565 S
H27 C29 0.959 . S
H28 C29 0.961 . S
C29 C19 1.510 1_565 S
C29 H27 0.959 . S
C29 H28 0.961 . S
C29 H30 0.960 . S
H30 C29 0.960 . S
H31 N11 0.862 . S
O32 Co0 1.920 . S
O32 C5 1.289 . S
C33 O25 1.258 . S
C33 O26 1.266 1_545 S
Co34 O37 1.970 . S
Co34 N51 1.989 . S
Co34 O59 1.967 . S
Co34 O66 1.920 . S
Co35 O38 1.966 . S
Co35 N44 2.022 . S
Co35 N52 1.993 . S
Co35 O60 1.941 . S
C36 O37 1.258 . S
C36 O38 1.263 . S
O37 Co34 1.970 . S
O37 C36 1.258 . S
O38 Co35 1.966 . S
O38 C36 1.263 . S
C39 O40 1.235 . S
C39 O66 1.289 . S
O40 C39 1.235 . S
C41 C43 1.400 . S
C41 N44 1.351 . S
C41 C46 1.501 . S
C42 C43 1.387 . S
C42 N45 1.341 . S
C43 C41 1.400 . S
C43 C42 1.387 . S
N44 Co35 2.022 . S
N44 C41 1.351 . S
N44 N45 1.365 . S
N45 C42 1.341 . S
N45 N44 1.365 . S
N45 H65 0.862 . S
C46 C41 1.501 . S
C46 H47 0.961 . S
C46 H48 0.961 . S
C46 H49 0.960 . S
H47 C46 0.961 . S
H48 C46 0.961 . S
H49 C46 0.960 . S
C50 N51 1.342 . S
C50 C54 1.401 . S
C50 C55 1.499 . S
N51 Co34 1.989 . S
N51 C50 1.342 . S
N51 N52 1.388 . S
N52 Co35 1.993 . S
N52 N51 1.388 . S
N52 C53 1.346 . S
C53 N52 1.346 . S
C53 C54 1.396 . S
C53 C63 1.510 . S
C54 C50 1.401 . S
C54 C53 1.396 . S
C55 C50 1.499 . S
C55 H56 0.959 . S
C55 H57 0.960 . S
C55 H58 0.961 . S
H56 C55 0.959 . S
H57 C55 0.960 . S
H58 C55 0.961 . S
O59 Co34 1.967 . S
O59 C67 1.258 . S
O60 Co35 1.941 . S
O60 C67 1.266 . S
H61 C63 0.959 . S
H62 C63 0.961 . S
C63 C53 1.510 . S
C63 H61 0.959 . S
C63 H62 0.961 . S
C63 H64 0.960 . S
H64 C63 0.960 . S
H65 N45 0.862 . S
O66 Co34 1.920 . S
O66 C39 1.289 . S
C67 O59 1.258 . S
C67 O60 1.266 . S
Co68 O71 1.970 . S
Co68 N85 1.989 . S
Co68 O93 1.967 . S
Co68 O100 1.920 . S
Co69 O72 1.966 . S
Co69 N78 2.022 . S
Co69 N86 1.993 . S
Co69 O94 1.941 . S
C70 O71 1.258 . S
C70 O72 1.263 . S
O71 Co68 1.970 . S
O71 C70 1.258 . S
O72 Co69 1.966 . S
O72 C70 1.263 . S
C73 O74 1.235 . S
C73 O100 1.289 . S
O74 C73 1.235 . S
C75 C77 1.400 . S
C75 N78 1.351 . S
C75 C80 1.501 . S
C76 C77 1.387 . S
C76 N79 1.341 . S
C77 C75 1.400 . S
C77 C76 1.387 . S
N78 Co69 2.022 . S
N78 C75 1.351 . S
N78 N79 1.365 . S
N79 C76 1.341 . S
N79 N78 1.365 . S
N79 H99 0.862 . S
C80 C75 1.501 . S
C80 H81 0.961 . S
C80 H82 0.961 . S
C80 H83 0.960 . S
H81 C80 0.961 . S
H82 C80 0.961 . S
H83 C80 0.960 . S
C84 N85 1.342 . S
C84 C88 1.401 . S
C84 C89 1.499 . S
N85 Co68 1.989 . S
N85 C84 1.342 . S
N85 N86 1.388 . S
N86 Co69 1.993 . S
N86 N85 1.388 . S
N86 C87 1.346 . S
C87 N86 1.346 . S
C87 C88 1.396 . S
C87 C97 1.510 . S
C88 C84 1.401 . S
C88 C87 1.396 . S
C89 C84 1.499 . S
C89 H90 0.959 . S
C89 H91 0.960 . S
C89 H92 0.961 . S
H90 C89 0.959 . S
H91 C89 0.960 . S
H92 C89 0.961 . S
O93 Co68 1.967 . S
O93 C101 1.258 . S
O94 Co69 1.941 . S
O94 C101 1.266 . S
H95 C97 0.959 . S
H96 C97 0.961 . S
C97 C87 1.510 . S
C97 H95 0.959 . S
C97 H96 0.961 . S
C97 H98 0.960 . S
H98 C97 0.960 . S
H99 N79 0.862 . S
O100 Co68 1.920 . S
O100 C73 1.289 . S
C101 O93 1.258 . S
C101 O94 1.266 . S
Co102 O105 1.970 . S
Co102 N119 1.989 . S
Co102 O127 1.967 . S
Co102 O134 1.920 . S
Co103 O106 1.951 1_655 S
Co103 N112 2.054 . S
Co103 N120 1.975 1_655 S
Co103 O128 1.947 . S
C104 O105 1.258 . S
C104 O106 1.263 . S
O105 Co102 1.970 . S
O105 C104 1.258 . S
O106 Co103 1.951 1_455 S
O106 C104 1.263 . S
C107 O108 1.235 . S
C107 O134 1.289 . S
O108 C107 1.235 . S
C109 C111 1.400 . S
C109 N112 1.351 . S
C109 C114 1.501 . S
C110 C111 1.387 . S
C110 N113 1.341 . S
C111 C109 1.400 . S
C111 C110 1.387 . S
N112 Co103 2.054 . S
N112 C109 1.351 . S
N112 N113 1.365 . S
N113 C110 1.341 . S
N113 N112 1.365 . S
N113 H133 0.862 . S
C114 C109 1.501 . S
C114 H115 0.961 . S
C114 H116 0.961 . S
C114 H117 0.960 . S
H115 C114 0.961 . S
H116 C114 0.961 . S
H117 C114 0.960 . S
C118 N119 1.342 . S
C118 C122 1.401 . S
C118 C123 1.499 . S
N119 Co102 1.989 . S
N119 C118 1.342 . S
N119 N120 1.388 . S
N120 Co103 1.975 1_455 S
N120 N119 1.388 . S
N120 C121 1.346 . S
C121 N120 1.346 . S
C121 C122 1.396 . S
C121 C131 1.510 1_455 S
C122 C118 1.401 . S
C122 C121 1.396 . S
C123 C118 1.499 . S
C123 H124 0.959 . S
C123 H125 0.960 . S
C123 H126 0.961 . S
H124 C123 0.959 . S
H125 C123 0.960 . S
H126 C123 0.961 . S
O127 Co102 1.967 . S
O127 C135 1.258 . S
O128 Co103 1.947 . S
O128 C135 1.266 1_655 S
H129 C131 0.959 . S
H130 C131 0.961 . S
C131 C121 1.510 1_655 S
C131 H129 0.959 . S
C131 H130 0.961 . S
C131 H132 0.960 . S
H132 C131 0.960 . S
H133 N113 0.862 . S
O134 Co102 1.920 . S
O134 C107 1.289 . S
C135 O127 1.258 . S
C135 O128 1.266 1_455 S
Co136 O139 1.970 . S
Co136 N153 1.989 . S
Co136 O161 1.967 . S
Co136 O168 1.920 . S
Co137 O140 1.951 1_545 S
Co137 N146 2.054 . S
Co137 N154 1.975 1_545 S
Co137 O162 1.947 . S
C138 O139 1.258 . S
C138 O140 1.263 . S
O139 Co136 1.970 . S
O139 C138 1.258 . S
O140 Co137 1.951 1_565 S
O140 C138 1.263 . S
C141 O142 1.235 . S
C141 O168 1.289 . S
O142 C141 1.235 . S
C143 C145 1.400 . S
C143 N146 1.351 . S
C143 C148 1.501 . S
C144 C145 1.387 . S
C144 N147 1.341 . S
C145 C143 1.400 . S
C145 C144 1.387 . S
N146 Co137 2.054 . S
N146 C143 1.351 . S
N146 N147 1.365 . S
N147 C144 1.341 . S
N147 N146 1.365 . S
N147 H167 0.862 . S
C148 C143 1.501 . S
C148 H149 0.961 . S
C148 H150 0.961 . S
C148 H151 0.960 . S
H149 C148 0.961 . S
H150 C148 0.961 . S
H151 C148 0.960 . S
C152 N153 1.342 . S
C152 C156 1.401 . S
C152 C157 1.499 . S
N153 Co136 1.989 . S
N153 C152 1.342 . S
N153 N154 1.388 . S
N154 Co137 1.975 1_565 S
N154 N153 1.388 . S
N154 C155 1.346 . S
C155 N154 1.346 . S
C155 C156 1.396 . S
C155 C165 1.510 1_565 S
C156 C152 1.401 . S
C156 C155 1.396 . S
C157 C152 1.499 . S
C157 H158 0.959 . S
C157 H159 0.960 . S
C157 H160 0.961 . S
H158 C157 0.959 . S
H159 C157 0.960 . S
H160 C157 0.961 . S
O161 Co136 1.967 . S
O161 C169 1.258 . S
O162 Co137 1.947 . S
O162 C169 1.266 1_545 S
H163 C165 0.959 . S
H164 C165 0.961 . S
C165 C155 1.510 1_545 S
C165 H163 0.959 . S
C165 H164 0.961 . S
C165 H166 0.960 . S
H166 C165 0.960 . S
H167 N147 0.862 . S
O168 Co136 1.920 . S
O168 C141 1.289 . S
C169 O161 1.258 . S
C169 O162 1.266 1_565 S
Co170 O173 1.970 . S
Co170 N187 1.989 . S
Co170 O195 1.967 . S
Co170 O202 1.920 . S
Co171 O174 1.966 . S
Co171 N180 2.022 . S
Co171 N188 1.993 . S
Co171 O196 1.941 . S
C172 O173 1.258 . S
C172 O174 1.263 . S
O173 Co170 1.970 . S
O173 C172 1.258 . S
O174 Co171 1.966 . S
O174 C172 1.263 . S
C175 O176 1.235 . S
C175 O202 1.289 . S
O176 C175 1.235 . S
C177 C179 1.400 . S
C177 N180 1.351 . S
C177 C182 1.501 . S
C178 C179 1.387 . S
C178 N181 1.341 . S
C179 C177 1.400 . S
C179 C178 1.387 . S
N180 Co171 2.022 . S
N180 C177 1.351 . S
N180 N181 1.365 . S
N181 C178 1.341 . S
N181 N180 1.365 . S
N181 H201 0.862 . S
C182 C177 1.501 . S
C182 H183 0.961 . S
C182 H184 0.961 . S
C182 H185 0.960 . S
H183 C182 0.961 . S
H184 C182 0.961 . S
H185 C182 0.960 . S
C186 N187 1.342 . S
C186 C190 1.401 . S
C186 C191 1.499 . S
N187 Co170 1.989 . S
N187 C186 1.342 . S
N187 N188 1.388 . S
N188 Co171 1.993 . S
N188 N187 1.388 . S
N188 C189 1.346 . S
C189 N188 1.346 . S
C189 C190 1.396 . S
C189 C199 1.510 . S
C190 C186 1.401 . S
C190 C189 1.396 . S
C191 C186 1.499 . S
C191 H192 0.959 . S
C191 H193 0.960 . S
C191 H194 0.961 . S
H192 C191 0.959 . S
H193 C191 0.960 . S
H194 C191 0.961 . S
O195 Co170 1.967 . S
O195 C203 1.258 . S
O196 Co171 1.941 . S
O196 C203 1.266 . S
H197 C199 0.959 . S
H198 C199 0.961 . S
C199 C189 1.510 . S
C199 H197 0.959 . S
C199 H198 0.961 . S
C199 H200 0.960 . S
H200 C199 0.960 . S
H201 N181 0.862 . S
O202 Co170 1.920 . S
O202 C175 1.289 . S
C203 O195 1.258 . S
C203 O196 1.266 . S
Co204 O207 1.970 . S
Co204 N221 1.989 . S
Co204 O229 1.967 . S
Co204 O236 1.920 . S
Co205 O208 1.966 . S
Co205 N214 2.022 . S
Co205 N222 1.993 . S
Co205 O230 1.941 . S
C206 O207 1.258 . S
C206 O208 1.263 . S
O207 Co204 1.970 . S
O207 C206 1.258 . S
O208 Co205 1.966 . S
O208 C206 1.263 . S
C209 O210 1.235 . S
C209 O236 1.289 . S
O210 C209 1.235 . S
C211 C213 1.400 . S
C211 N214 1.351 . S
C211 C216 1.501 . S
C212 C213 1.387 . S
C212 N215 1.341 . S
C213 C211 1.400 . S
C213 C212 1.387 . S
N214 Co205 2.022 . S
N214 C211 1.351 . S
N214 N215 1.365 . S
N215 C212 1.341 . S
N215 N214 1.365 . S
N215 H235 0.862 . S
C216 C211 1.501 . S
C216 H217 0.961 . S
C216 H218 0.961 . S
C216 H219 0.960 . S
H217 C216 0.961 . S
H218 C216 0.961 . S
H219 C216 0.960 . S
C220 N221 1.342 . S
C220 C224 1.401 . S
C220 C225 1.499 . S
N221 Co204 1.989 . S
N221 C220 1.342 . S
N221 N222 1.388 . S
N222 Co205 1.993 . S
N222 N221 1.388 . S
N222 C223 1.346 . S
C223 N222 1.346 . S
C223 C224 1.396 . S
C223 C233 1.510 . S
C224 C220 1.401 . S
C224 C223 1.396 . S
C225 C220 1.499 . S
C225 H226 0.959 . S
C225 H227 0.960 . S
C225 H228 0.961 . S
H226 C225 0.959 . S
H227 C225 0.960 . S
H228 C225 0.961 . S
O229 Co204 1.967 . S
O229 C237 1.258 . S
O230 Co205 1.941 . S
O230 C237 1.266 . S
H231 C233 0.959 . S
H232 C233 0.961 . S
C233 C223 1.510 . S
C233 H231 0.959 . S
C233 H232 0.961 . S
C233 H234 0.960 . S
H234 C233 0.960 . S
H235 N215 0.862 . S
O236 Co204 1.920 . S
O236 C209 1.289 . S
C237 O229 1.258 . S
C237 O230 1.266 . S
Co238 O241 1.970 . S
Co238 N255 1.989 . S
Co238 O263 1.967 . S
Co238 O270 1.920 . S
Co239 O242 1.951 1_455 S
Co239 N248 2.054 . S
Co239 N256 1.975 1_455 S
Co239 O264 1.947 . S
C240 O241 1.258 . S
C240 O242 1.263 . S
O241 Co238 1.970 . S
O241 C240 1.258 . S
O242 Co239 1.951 1_655 S
O242 C240 1.263 . S
C243 O244 1.235 . S
C243 O270 1.289 . S
O244 C243 1.235 . S
C245 C247 1.400 . S
C245 N248 1.351 . S
C245 C250 1.501 . S
C246 C247 1.387 . S
C246 N249 1.341 . S
C247 C245 1.400 . S
C247 C246 1.387 . S
N248 Co239 2.054 . S
N248 C245 1.351 . S
N248 N249 1.365 . S
N249 C246 1.341 . S
N249 N248 1.365 . S
N249 H269 0.862 . S
C250 C245 1.501 . S
C250 H251 0.961 . S
C250 H252 0.961 . S
C250 H253 0.960 . S
H251 C250 0.961 . S
H252 C250 0.961 . S
H253 C250 0.960 . S
C254 N255 1.342 . S
C254 C258 1.401 . S
C254 C259 1.499 . S
N255 Co238 1.989 . S
N255 C254 1.342 . S
N255 N256 1.388 . S
N256 Co239 1.975 1_655 S
N256 N255 1.388 . S
N256 C257 1.346 . S
C257 N256 1.346 . S
C257 C258 1.396 . S
C257 C267 1.510 1_655 S
C258 C254 1.401 . S
C258 C257 1.396 . S
C259 C254 1.499 . S
C259 H260 0.959 . S
C259 H261 0.960 . S
C259 H262 0.961 . S
H260 C259 0.959 . S
H261 C259 0.960 . S
H262 C259 0.961 . S
O263 Co238 1.967 . S
O263 C271 1.258 . S
O264 Co239 1.947 . S
O264 C271 1.266 1_455 S
H265 C267 0.959 . S
H266 C267 0.961 . S
C267 C257 1.510 1_455 S
C267 H265 0.959 . S
C267 H266 0.961 . S
C267 H268 0.960 . S
H268 C267 0.960 . S
H269 N249 0.862 . S
O270 Co238 1.920 . S
O270 C243 1.289 . S
C271 O263 1.258 . S
C271 O264 1.266 1_655 S
Co272 O275 1.970 . S
Co272 N289 1.989 . S
Co272 O297 1.967 . S
Co272 O304 1.920 . S
Co273 O276 1.951 1_545 S
Co273 N282 2.054 . S
Co273 N290 1.975 1_545 S
Co273 O298 1.947 . S
C274 O275 1.258 . S
C274 O276 1.263 . S
O275 Co272 1.970 . S
O275 C274 1.258 . S
O276 Co273 1.951 1_565 S
O276 C274 1.263 . S
C277 O278 1.235 . S
C277 O304 1.289 . S
O278 C277 1.235 . S
C279 C281 1.400 . S
C279 N282 1.351 . S
C279 C284 1.501 . S
C280 C281 1.387 . S
C280 N283 1.341 . S
C281 C279 1.400 . S
C281 C280 1.387 . S
N282 Co273 2.054 . S
N282 C279 1.351 . S
N282 N283 1.365 . S
N283 C280 1.341 . S
N283 N282 1.365 . S
N283 H303 0.862 . S
C284 C279 1.501 . S
C284 H285 0.961 . S
C284 H286 0.961 . S
C284 H287 0.960 . S
H285 C284 0.961 . S
H286 C284 0.961 . S
H287 C284 0.960 . S
C288 N289 1.342 . S
C288 C292 1.401 . S
C288 C293 1.499 . S
N289 Co272 1.989 . S
N289 C288 1.342 . S
N289 N290 1.388 . S
N290 Co273 1.975 1_565 S
N290 N289 1.388 . S
N290 C291 1.346 . S
C291 N290 1.346 . S
C291 C292 1.396 . S
C291 C301 1.510 1_565 S
C292 C288 1.401 . S
C292 C291 1.396 . S
C293 C288 1.499 . S
C293 H294 0.959 . S
C293 H295 0.960 . S
C293 H296 0.961 . S
H294 C293 0.959 . S
H295 C293 0.960 . S
H296 C293 0.961 . S
O297 Co272 1.967 . S
O297 C305 1.258 . S
O298 Co273 1.947 . S
O298 C305 1.266 1_545 S
H299 C301 0.959 . S
H300 C301 0.961 . S
C301 C291 1.510 1_545 S
C301 H299 0.959 . S
C301 H300 0.961 . S
C301 H302 0.960 . S
H302 C301 0.960 . S
H303 N283 0.862 . S
O304 Co272 1.920 . S
O304 C277 1.289 . S
C305 O297 1.258 . S
C305 O298 1.266 1_565 S
Co306 O309 1.970 . S
Co306 N323 1.989 . S
Co306 O331 1.967 . S
Co306 O338 1.920 . S
Co307 O310 1.966 . S
Co307 N316 2.022 . S
Co307 N324 1.993 . S
Co307 O332 1.941 . S
C308 O309 1.258 . S
C308 O310 1.263 . S
O309 Co306 1.970 . S
O309 C308 1.258 . S
O310 Co307 1.966 . S
O310 C308 1.263 . S
C311 O312 1.235 . S
C311 O338 1.289 . S
O312 C311 1.235 . S
C313 C315 1.400 . S
C313 N316 1.351 . S
C313 C318 1.501 . S
C314 C315 1.387 . S
C314 N317 1.341 . S
C315 C313 1.400 . S
C315 C314 1.387 . S
N316 Co307 2.022 . S
N316 C313 1.351 . S
N316 N317 1.365 . S
N317 C314 1.341 . S
N317 N316 1.365 . S
N317 H337 0.862 . S
C318 C313 1.501 . S
C318 H319 0.961 . S
C318 H320 0.961 . S
C318 H321 0.960 . S
H319 C318 0.961 . S
H320 C318 0.961 . S
H321 C318 0.960 . S
C322 N323 1.342 . S
C322 C326 1.401 . S
C322 C327 1.499 . S
N323 Co306 1.989 . S
N323 C322 1.342 . S
N323 N324 1.388 . S
N324 Co307 1.993 . S
N324 N323 1.388 . S
N324 C325 1.346 . S
C325 N324 1.346 . S
C325 C326 1.396 . S
C325 C335 1.510 . S
C326 C322 1.401 . S
C326 C325 1.396 . S
C327 C322 1.499 . S
C327 H328 0.959 . S
C327 H329 0.960 . S
C327 H330 0.961 . S
H328 C327 0.959 . S
H329 C327 0.960 . S
H330 C327 0.961 . S
O331 Co306 1.967 . S
O331 C339 1.258 . S
O332 Co307 1.941 . S
O332 C339 1.266 . S
H333 C335 0.959 . S
H334 C335 0.961 . S
C335 C325 1.510 . S
C335 H333 0.959 . S
C335 H334 0.961 . S
C335 H336 0.960 . S
H336 C335 0.960 . S
H337 N317 0.862 . S
O338 Co306 1.920 . S
O338 C311 1.289 . S
C339 O331 1.258 . S
C339 O332 1.266 . S
Co340 O343 1.970 . S
Co340 N357 1.989 . S
Co340 O365 1.967 . S
Co340 O372 1.920 . S
Co341 O344 1.966 . S
Co341 N350 2.022 . S
Co341 N358 1.993 . S
Co341 O366 1.941 . S
C342 O343 1.258 . S
C342 O344 1.263 . S
O343 Co340 1.970 . S
O343 C342 1.258 . S
O344 Co341 1.966 . S
O344 C342 1.263 . S
C345 O346 1.235 . S
C345 O372 1.289 . S
O346 C345 1.235 . S
C347 C349 1.400 . S
C347 N350 1.351 . S
C347 C352 1.501 . S
C348 C349 1.387 . S
C348 N351 1.341 . S
C349 C347 1.400 . S
C349 C348 1.387 . S
N350 Co341 2.022 . S
N350 C347 1.351 . S
N350 N351 1.365 . S
N351 C348 1.341 . S
N351 N350 1.365 . S
N351 H371 0.862 . S
C352 C347 1.501 . S
C352 H353 0.961 . S
C352 H354 0.961 . S
C352 H355 0.960 . S
H353 C352 0.961 . S
H354 C352 0.961 . S
H355 C352 0.960 . S
C356 N357 1.342 . S
C356 C360 1.401 . S
C356 C361 1.499 . S
N357 Co340 1.989 . S
N357 C356 1.342 . S
N357 N358 1.388 . S
N358 Co341 1.993 . S
N358 N357 1.388 . S
N358 C359 1.346 . S
C359 N358 1.346 . S
C359 C360 1.396 . S
C359 C369 1.510 . S
C360 C356 1.401 . S
C360 C359 1.396 . S
C361 C356 1.499 . S
C361 H362 0.959 . S
C361 H363 0.960 . S
C361 H364 0.961 . S
H362 C361 0.959 . S
H363 C361 0.960 . S
H364 C361 0.961 . S
O365 Co340 1.967 . S
O365 C373 1.258 . S
O366 Co341 1.941 . S
O366 C373 1.266 . S
H367 C369 0.959 . S
H368 C369 0.961 . S
C369 C359 1.510 . S
C369 H367 0.959 . S
C369 H368 0.961 . S
C369 H370 0.960 . S
H370 C369 0.960 . S
H371 N351 0.862 . S
O372 Co340 1.920 . S
O372 C345 1.289 . S
C373 O365 1.258 . S
C373 O366 1.266 . S
Co374 O377 1.970 . S
Co374 N391 1.989 . S
Co374 O399 1.967 . S
Co374 O406 1.920 . S
Co375 O378 1.951 1_455 S
Co375 N384 2.054 . S
Co375 N392 1.975 1_455 S
Co375 O400 1.947 . S
C376 O377 1.258 . S
C376 O378 1.263 . S
O377 Co374 1.970 . S
O377 C376 1.258 . S
O378 Co375 1.951 1_655 S
O378 C376 1.263 . S
C379 O380 1.235 . S
C379 O406 1.289 . S
O380 C379 1.235 . S
C381 C383 1.400 . S
C381 N384 1.351 . S
C381 C386 1.501 . S
C382 C383 1.387 . S
C382 N385 1.341 . S
C383 C381 1.400 . S
C383 C382 1.387 . S
N384 Co375 2.054 . S
N384 C381 1.351 . S
N384 N385 1.365 . S
N385 C382 1.341 . S
N385 N384 1.365 . S
N385 H405 0.862 . S
C386 C381 1.501 . S
C386 H387 0.961 . S
C386 H388 0.961 . S
C386 H389 0.960 . S
H387 C386 0.961 . S
H388 C386 0.961 . S
H389 C386 0.960 . S
C390 N391 1.342 . S
C390 C394 1.401 . S
C390 C395 1.499 . S
N391 Co374 1.989 . S
N391 C390 1.342 . S
N391 N392 1.388 . S
N392 Co375 1.975 1_655 S
N392 N391 1.388 . S
N392 C393 1.346 . S
C393 N392 1.346 . S
C393 C394 1.396 . S
C393 C403 1.510 1_655 S
C394 C390 1.401 . S
C394 C393 1.396 . S
C395 C390 1.499 . S
C395 H396 0.959 . S
C395 H397 0.960 . S
C395 H398 0.961 . S
H396 C395 0.959 . S
H397 C395 0.960 . S
H398 C395 0.961 . S
O399 Co374 1.967 . S
O399 C407 1.258 . S
O400 Co375 1.947 . S
O400 C407 1.266 1_455 S
H401 C403 0.959 . S
H402 C403 0.961 . S
C403 C393 1.510 1_455 S
C403 H401 0.959 . S
C403 H402 0.961 . S
C403 H404 0.960 . S
H404 C403 0.960 . S
H405 N385 0.862 . S
O406 Co374 1.920 . S
O406 C379 1.289 . S
C407 O399 1.258 . S
C407 O400 1.266 1_655 S
Co408 O411 1.970 . S
Co408 N425 1.989 . S
Co408 O433 1.967 . S
Co408 O440 1.920 . S
Co409 O412 1.951 1_565 S
Co409 N418 2.054 . S
Co409 N426 1.975 1_565 S
Co409 O434 1.947 . S
C410 O411 1.258 . S
C410 O412 1.263 . S
O411 Co408 1.970 . S
O411 C410 1.258 . S
O412 Co409 1.951 1_545 S
O412 C410 1.263 . S
C413 O414 1.235 . S
C413 O440 1.289 . S
O414 C413 1.235 . S
C415 C417 1.400 . S
C415 N418 1.351 . S
C415 C420 1.501 . S
C416 C417 1.387 . S
C416 N419 1.341 . S
C417 C415 1.400 . S
C417 C416 1.387 . S
N418 Co409 2.054 . S
N418 C415 1.351 . S
N418 N419 1.365 . S
N419 C416 1.341 . S
N419 N418 1.365 . S
N419 H439 0.862 . S
C420 C415 1.501 . S
C420 H421 0.961 . S
C420 H422 0.961 . S
C420 H423 0.960 . S
H421 C420 0.961 . S
H422 C420 0.961 . S
H423 C420 0.960 . S
C424 N425 1.342 . S
C424 C428 1.401 . S
C424 C429 1.499 . S
N425 Co408 1.989 . S
N425 C424 1.342 . S
N425 N426 1.388 . S
N426 Co409 1.975 1_545 S
N426 N425 1.388 . S
N426 C427 1.346 . S
C427 N426 1.346 . S
C427 C428 1.396 . S
C427 C437 1.510 1_545 S
C428 C424 1.401 . S
C428 C427 1.396 . S
C429 C424 1.499 . S
C429 H430 0.959 . S
C429 H431 0.960 . S
C429 H432 0.961 . S
H430 C429 0.959 . S
H431 C429 0.960 . S
H432 C429 0.961 . S
O433 Co408 1.967 . S
O433 C441 1.258 . S
O434 Co409 1.947 . S
O434 C441 1.266 1_565 S
H435 C437 0.959 . S
H436 C437 0.961 . S
C437 C427 1.510 1_565 S
C437 H435 0.959 . S
C437 H436 0.961 . S
C437 H438 0.960 . S
H438 C437 0.960 . S
H439 N419 0.862 . S
O440 Co408 1.920 . S
O440 C413 1.289 . S
C441 O433 1.258 . S
C441 O434 1.266 1_545 S
Co442 O445 1.970 . S
Co442 N459 1.989 . S
Co442 O467 1.967 . S
Co442 O474 1.920 . S
Co443 O446 1.966 . S
Co443 N452 2.022 . S
Co443 N460 1.993 . S
Co443 O468 1.941 . S
C444 O445 1.258 . S
C444 O446 1.263 . S
O445 Co442 1.970 . S
O445 C444 1.258 . S
O446 Co443 1.966 . S
O446 C444 1.263 . S
C447 O448 1.235 . S
C447 O474 1.289 . S
O448 C447 1.235 . S
C449 C451 1.400 . S
C449 N452 1.351 . S
C449 C454 1.501 . S
C450 C451 1.387 . S
C450 N453 1.341 . S
C451 C449 1.400 . S
C451 C450 1.387 . S
N452 Co443 2.022 . S
N452 C449 1.351 . S
N452 N453 1.365 . S
N453 C450 1.341 . S
N453 N452 1.365 . S
N453 H473 0.862 . S
C454 C449 1.501 . S
C454 H455 0.961 . S
C454 H456 0.961 . S
C454 H457 0.960 . S
H455 C454 0.961 . S
H456 C454 0.961 . S
H457 C454 0.960 . S
C458 N459 1.342 . S
C458 C462 1.401 . S
C458 C463 1.499 . S
N459 Co442 1.989 . S
N459 C458 1.342 . S
N459 N460 1.388 . S
N460 Co443 1.993 . S
N460 N459 1.388 . S
N460 C461 1.346 . S
C461 N460 1.346 . S
C461 C462 1.396 . S
C461 C471 1.510 . S
C462 C458 1.401 . S
C462 C461 1.396 . S
C463 C458 1.499 . S
C463 H464 0.959 . S
C463 H465 0.960 . S
C463 H466 0.961 . S
H464 C463 0.959 . S
H465 C463 0.960 . S
H466 C463 0.961 . S
O467 Co442 1.967 . S
O467 C475 1.258 . S
O468 Co443 1.941 . S
O468 C475 1.266 . S
H469 C471 0.959 . S
H470 C471 0.961 . S
C471 C461 1.510 . S
C471 H469 0.959 . S
C471 H470 0.961 . S
C471 H472 0.960 . S
H472 C471 0.960 . S
H473 N453 0.862 . S
O474 Co442 1.920 . S
O474 C447 1.289 . S
C475 O467 1.258 . S
C475 O468 1.266 . S
Co476 O479 1.970 . S
Co476 N493 1.989 . S
Co476 O501 1.967 . S
Co476 O508 1.920 . S
Co477 O480 1.966 . S
Co477 N486 2.022 . S
Co477 N494 1.993 . S
Co477 O502 1.941 . S
C478 O479 1.258 . S
C478 O480 1.263 . S
O479 Co476 1.970 . S
O479 C478 1.258 . S
O480 Co477 1.966 . S
O480 C478 1.263 . S
C481 O482 1.235 . S
C481 O508 1.289 . S
O482 C481 1.235 . S
C483 C485 1.400 . S
C483 N486 1.351 . S
C483 C488 1.501 . S
C484 C485 1.387 . S
C484 N487 1.341 . S
C485 C483 1.400 . S
C485 C484 1.387 . S
N486 Co477 2.022 . S
N486 C483 1.351 . S
N486 N487 1.365 . S
N487 C484 1.341 . S
N487 N486 1.365 . S
N487 H507 0.862 . S
C488 C483 1.501 . S
C488 H489 0.961 . S
C488 H490 0.961 . S
C488 H491 0.960 . S
H489 C488 0.961 . S
H490 C488 0.961 . S
H491 C488 0.960 . S
C492 N493 1.342 . S
C492 C496 1.401 . S
C492 C497 1.499 . S
N493 Co476 1.989 . S
N493 C492 1.342 . S
N493 N494 1.388 . S
N494 Co477 1.993 . S
N494 N493 1.388 . S
N494 C495 1.346 . S
C495 N494 1.346 . S
C495 C496 1.396 . S
C495 C505 1.510 . S
C496 C492 1.401 . S
C496 C495 1.396 . S
C497 C492 1.499 . S
C497 H498 0.959 . S
C497 H499 0.960 . S
C497 H500 0.961 . S
H498 C497 0.959 . S
H499 C497 0.960 . S
H500 C497 0.961 . S
O501 Co476 1.967 . S
O501 C509 1.258 . S
O502 Co477 1.941 . S
O502 C509 1.266 . S
H503 C505 0.959 . S
H504 C505 0.961 . S
C505 C495 1.510 . S
C505 H503 0.959 . S
C505 H504 0.961 . S
C505 H506 0.960 . S
H506 C505 0.960 . S
H507 N487 0.862 . S
O508 Co476 1.920 . S
O508 C481 1.289 . S
C509 O501 1.258 . S
C509 O502 1.266 . S
Co510 O513 1.970 . S
Co510 N527 1.989 . S
Co510 O535 1.967 . S
Co510 O542 1.920 . S
Co511 O514 1.951 1_655 S
Co511 N520 2.054 . S
Co511 N528 1.975 1_655 S
Co511 O536 1.947 . S
C512 O513 1.258 . S
C512 O514 1.263 . S
O513 Co510 1.970 . S
O513 C512 1.258 . S
O514 Co511 1.951 1_455 S
O514 C512 1.263 . S
C515 O516 1.235 . S
C515 O542 1.289 . S
O516 C515 1.235 . S
C517 C519 1.400 . S
C517 N520 1.351 . S
C517 C522 1.501 . S
C518 C519 1.387 . S
C518 N521 1.341 . S
C519 C517 1.400 . S
C519 C518 1.387 . S
N520 Co511 2.054 . S
N520 C517 1.351 . S
N520 N521 1.365 . S
N521 C518 1.341 . S
N521 N520 1.365 . S
N521 H541 0.862 . S
C522 C517 1.501 . S
C522 H523 0.961 . S
C522 H524 0.961 . S
C522 H525 0.960 . S
H523 C522 0.961 . S
H524 C522 0.961 . S
H525 C522 0.960 . S
C526 N527 1.342 . S
C526 C530 1.401 . S
C526 C531 1.499 . S
N527 Co510 1.989 . S
N527 C526 1.342 . S
N527 N528 1.388 . S
N528 Co511 1.975 1_455 S
N528 N527 1.388 . S
N528 C529 1.346 . S
C529 N528 1.346 . S
C529 C530 1.396 . S
C529 C539 1.510 1_455 S
C530 C526 1.401 . S
C530 C529 1.396 . S
C531 C526 1.499 . S
C531 H532 0.959 . S
C531 H533 0.960 . S
C531 H534 0.961 . S
H532 C531 0.959 . S
H533 C531 0.960 . S
H534 C531 0.961 . S
O535 Co510 1.967 . S
O535 C543 1.258 . S
O536 Co511 1.947 . S
O536 C543 1.266 1_655 S
H537 C539 0.959 . S
H538 C539 0.961 . S
C539 C529 1.510 1_655 S
C539 H537 0.959 . S
C539 H538 0.961 . S
C539 H540 0.960 . S
H540 C539 0.960 . S
H541 N521 0.862 . S
O542 Co510 1.920 . S
O542 C515 1.289 . S
C543 O535 1.258 . S
C543 O536 1.266 1_455 S
C544 C545 1.349 . S
C544 C546 1.327 . S
C544 H569 0.950 . S
C545 C544 1.349 . S
C545 C561 1.349 . S
C546 C544 1.327 . S
C546 C565 1.429 . S
C546 H570 0.950 . S
C547 C564 1.574 . S
C547 C566 1.368 . S
C547 H571 0.949 . S
H548 C552 0.949 . S
C549 C550 1.349 . S
C549 C551 1.327 . S
C549 H572 0.950 . S
C550 C549 1.349 . S
C550 C562 1.349 . S
C551 C549 1.327 . S
C551 C567 1.429 . S
C551 H573 0.950 . S
C552 H548 0.949 . S
C552 C560 1.574 . S
C552 C568 1.368 . S
H553 C561 0.950 . S
H554 C559 0.950 . S
H555 C560 0.949 . S
H556 C562 0.950 . S
H557 C563 0.950 . S
H558 C564 0.949 . S
C559 H554 0.950 . S
C559 C561 1.327 . S
C559 C565 1.429 . S
C560 C552 1.574 . S
C560 H555 0.949 . S
C560 C566 1.368 . S
C561 C545 1.349 . S
C561 H553 0.950 . S
C561 C559 1.327 . S
C562 C550 1.349 . S
C562 H556 0.950 . S
C562 C563 1.327 . S
C563 H557 0.950 . S
C563 C562 1.327 . S
C563 C567 1.429 . S
C564 C547 1.574 . S
C564 H558 0.949 . S
C564 C568 1.368 . S
C565 C546 1.429 . S
C565 C559 1.429 . S
C565 C566 1.523 . S
C566 C547 1.368 . S
C566 C560 1.368 . S
C566 C565 1.523 . S
C567 C551 1.429 . S
C567 C563 1.429 . S
C567 C568 1.523 . S
C568 C552 1.368 . S
C568 C564 1.368 . S
C568 C567 1.523 . S
H569 C544 0.950 . S
H570 C546 0.950 . S
H571 C547 0.949 . S
H572 C549 0.950 . S
H573 C551 0.950 . S
C574 C575 1.349 . S
C574 C576 1.327 . S
C574 H599 0.950 . S
C575 C574 1.349 . S
C575 C591 1.349 . S
C576 C574 1.327 . S
C576 C595 1.429 . S
C576 H600 0.950 . S
C577 C594 1.574 . S
C577 C596 1.368 . S
C577 H601 0.949 . S
H578 C582 0.949 . S
C579 C580 1.349 . S
C579 C581 1.327 . S
C579 H602 0.950 . S
C580 C579 1.349 . S
C580 C592 1.349 . S
C581 C579 1.327 . S
C581 C597 1.429 . S
C581 H603 0.950 . S
C582 H578 0.949 . S
C582 C590 1.574 . S
C582 C598 1.368 . S
H583 C591 0.950 . S
H584 C589 0.950 . S
H585 C590 0.949 . S
H586 C592 0.950 . S
H587 C593 0.950 . S
H588 C594 0.949 . S
C589 H584 0.950 . S
C589 C591 1.327 . S
C589 C595 1.429 . S
C590 C582 1.574 . S
C590 H585 0.949 . S
C590 C596 1.368 . S
C591 C575 1.349 . S
C591 H583 0.950 . S
C591 C589 1.327 . S
C592 C580 1.349 . S
C592 H586 0.950 . S
C592 C593 1.327 . S
C593 H587 0.950 . S
C593 C592 1.327 . S
C593 C597 1.429 . S
C594 C577 1.574 . S
C594 H588 0.949 . S
C594 C598 1.368 . S
C595 C576 1.429 . S
C595 C589 1.429 . S
C595 C596 1.523 . S
C596 C577 1.368 . S
C596 C590 1.368 . S
C596 C595 1.523 . S
C597 C581 1.429 . S
C597 C593 1.429 . S
C597 C598 1.523 . S
C598 C582 1.368 . S
C598 C594 1.368 . S
C598 C597 1.523 . S
H599 C574 0.950 . S
H600 C576 0.950 . S
H601 C577 0.949 . S
H602 C579 0.950 . S
H603 C581 0.950 . S
C604 C605 1.349 . S
C604 C606 1.327 . S
C604 H629 0.950 . S
C605 C604 1.349 . S
C605 C621 1.349 1_455 S
C606 C604 1.327 . S
C606 C625 1.429 1_455 S
C606 H630 0.950 . S
C607 C624 1.574 . S
C607 C626 1.368 . S
C607 H631 0.949 . S
H608 C612 0.949 1_455 S
C609 C610 1.349 . S
C609 C611 1.327 . S
C609 H632 0.950 . S
C610 C609 1.349 . S
C610 C622 1.349 . S
C611 C609 1.327 . S
C611 C627 1.429 . S
C611 H633 0.950 . S
C612 H608 0.949 1_655 S
C612 C620 1.574 1_655 S
C612 C628 1.368 . S
H613 C621 0.950 . S
H614 C619 0.950 . S
H615 C620 0.949 . S
H616 C622 0.950 . S
H617 C623 0.950 . S
H618 C624 0.949 . S
C619 H614 0.950 . S
C619 C621 1.327 . S
C619 C625 1.429 . S
C620 C612 1.574 1_455 S
C620 H615 0.949 . S
C620 C626 1.368 1_455 S
C621 C605 1.349 1_655 S
C621 H613 0.950 . S
C621 C619 1.327 . S
C622 C610 1.349 . S
C622 H616 0.950 . S
C622 C623 1.327 . S
C623 H617 0.950 . S
C623 C622 1.327 . S
C623 C627 1.429 . S
C624 C607 1.574 . S
C624 H618 0.949 . S
C624 C628 1.368 . S
C625 C606 1.429 1_655 S
C625 C619 1.429 . S
C625 C626 1.523 . S
C626 C607 1.368 . S
C626 C620 1.368 1_655 S
C626 C625 1.523 . S
C627 C611 1.429 . S
C627 C623 1.429 . S
C627 C628 1.523 . S
C628 C612 1.368 . S
C628 C624 1.368 . S
C628 C627 1.523 . S
H629 C604 0.950 . S
H630 C606 0.950 . S
H631 C607 0.949 . S
H632 C609 0.950 . S
H633 C611 0.950 . S
C634 C635 1.349 . S
C634 C636 1.327 . S
C634 H659 0.950 . S
C635 C634 1.349 . S
C635 C651 1.349 . S
C636 C634 1.327 . S
C636 C655 1.429 . S
C636 H660 0.950 . S
C637 C654 1.574 . S
C637 C656 1.368 . S
C637 H661 0.949 . S
H638 C642 0.949 . S
C639 C640 1.349 . S
C639 C641 1.327 . S
C639 H662 0.950 . S
C640 C639 1.349 . S
C640 C652 1.349 1_545 S
C641 C639 1.327 . S
C641 C657 1.429 1_545 S
C641 H663 0.950 . S
C642 H638 0.949 . S
C642 C650 1.574 . S
C642 C658 1.368 . S
H643 C651 0.950 . S
H644 C649 0.950 . S
H645 C650 0.949 . S
H646 C652 0.950 . S
H647 C653 0.950 . S
H648 C654 0.949 1_545 S
C649 H644 0.950 . S
C649 C651 1.327 . S
C649 C655 1.429 . S
C650 C642 1.574 . S
C650 H645 0.949 . S
C650 C656 1.368 . S
C651 C635 1.349 . S
C651 H643 0.950 . S
C651 C649 1.327 . S
C652 C640 1.349 1_565 S
C652 H646 0.950 . S
C652 C653 1.327 . S
C653 H647 0.950 . S
C653 C652 1.327 . S
C653 C657 1.429 . S
C654 C637 1.574 . S
C654 H648 0.949 1_565 S
C654 C658 1.368 . S
C655 C636 1.429 . S
C655 C649 1.429 . S
C655 C656 1.523 . S
C656 C637 1.368 . S
C656 C650 1.368 . S
C656 C655 1.523 . S
C657 C641 1.429 1_565 S
C657 C653 1.429 . S
C657 C658 1.523 . S
C658 C642 1.368 . S
C658 C654 1.368 . S
C658 C657 1.523 . S
H659 C634 0.950 . S
H660 C636 0.950 . S
H661 C637 0.949 . S
H662 C639 0.950 . S
H663 C641 0.950 . S
C664 C665 1.349 1_455 S
C664 C666 1.327 . S
C664 H689 0.950 . S
C665 C664 1.349 1_655 S
C665 C681 1.349 . S
C666 C664 1.327 . S
C666 C685 1.429 . S
C666 H690 0.950 . S
C667 C684 1.574 1_655 S
C667 C686 1.368 1_655 S
C667 H691 0.949 . S
H668 C672 0.949 . S
C669 C670 1.349 . S
C669 C671 1.327 . S
C669 H692 0.950 . S
C670 C669 1.349 . S
C670 C682 1.349 . S
C671 C669 1.327 . S
C671 C687 1.429 . S
C671 H693 0.950 . S
C672 H668 0.949 . S
C672 C680 1.574 . S
C672 C688 1.368 . S
H673 C681 0.950 . S
H674 C679 0.950 . S
H675 C680 0.949 . S
H676 C682 0.950 . S
H677 C683 0.950 . S
H678 C684 0.949 1_655 S
C679 H674 0.950 . S
C679 C681 1.327 . S
C679 C685 1.429 1_655 S
C680 C672 1.574 . S
C680 H675 0.949 . S
C680 C686 1.368 . S
C681 C665 1.349 . S
C681 H673 0.950 . S
C681 C679 1.327 . S
C682 C670 1.349 . S
C682 H676 0.950 . S
C682 C683 1.327 . S
C683 H677 0.950 . S
C683 C682 1.327 . S
C683 C687 1.429 . S
C684 C667 1.574 1_455 S
C684 H678 0.949 1_455 S
C684 C688 1.368 . S
C685 C666 1.429 . S
C685 C679 1.429 1_455 S
C685 C686 1.523 . S
C686 C667 1.368 1_455 S
C686 C680 1.368 . S
C686 C685 1.523 . S
C687 C671 1.429 . S
C687 C683 1.429 . S
C687 C688 1.523 . S
C688 C672 1.368 . S
C688 C684 1.368 . S
C688 C687 1.523 . S
H689 C664 0.950 . S
H690 C666 0.950 . S
H691 C667 0.949 . S
H692 C669 0.950 . S
H693 C671 0.950 . S
C694 C695 1.349 . S
C694 C696 1.327 . S
C694 H719 0.950 . S
C695 C694 1.349 . S
C695 C711 1.349 1_565 S
C696 C694 1.327 . S
C696 C715 1.429 1_565 S
C696 H720 0.950 . S
C697 C714 1.574 . S
C697 C716 1.368 . S
C697 H721 0.949 . S
H698 C702 0.949 1_565 S
C699 C700 1.349 . S
C699 C701 1.327 . S
C699 H722 0.950 . S
C700 C699 1.349 . S
C700 C712 1.349 . S
C701 C699 1.327 . S
C701 C717 1.429 . S
C701 H723 0.950 . S
C702 H698 0.949 1_545 S
C702 C710 1.574 1_545 S
C702 C718 1.368 . S
H703 C711 0.950 . S
H704 C709 0.950 . S
H705 C710 0.949 . S
H706 C712 0.950 . S
H707 C713 0.950 . S
H708 C714 0.949 . S
C709 H704 0.950 . S
C709 C711 1.327 . S
C709 C715 1.429 . S
C710 C702 1.574 1_565 S
C710 H705 0.949 . S
C710 C716 1.368 1_565 S
C711 C695 1.349 1_545 S
C711 H703 0.950 . S
C711 C709 1.327 . S
C712 C700 1.349 . S
C712 H706 0.950 . S
C712 C713 1.327 . S
C713 H707 0.950 . S
C713 C712 1.327 . S
C713 C717 1.429 . S
C714 C697 1.574 . S
C714 H708 0.949 . S
C714 C718 1.368 . S
C715 C696 1.429 1_545 S
C715 C709 1.429 . S
C715 C716 1.523 . S
C716 C697 1.368 . S
C716 C710 1.368 1_545 S
C716 C715 1.523 . S
C717 C701 1.429 . S
C717 C713 1.429 . S
C717 C718 1.523 . S
C718 C702 1.368 . S
C718 C714 1.368 . S
C718 C717 1.523 . S
H719 C694 0.950 . S
H720 C696 0.950 . S
H721 C697 0.949 . S
H722 C699 0.950 . S
H723 C701 0.950 . S
C724 C725 1.349 . S
C724 C726 1.327 . S
C724 H749 0.950 . S
C725 C724 1.349 . S
C725 C741 1.349 . S
C726 C724 1.327 . S
C726 C745 1.429 . S
C726 H750 0.950 . S
C727 C744 1.574 . S
C727 C746 1.368 . S
C727 H751 0.949 . S
H728 C732 0.949 . S
C729 C730 1.349 . S
C729 C731 1.327 . S
C729 H752 0.950 . S
C730 C729 1.349 . S
C730 C742 1.349 . S
C731 C729 1.327 . S
C731 C747 1.429 . S
C731 H753 0.950 . S
C732 H728 0.949 . S
C732 C740 1.574 . S
C732 C748 1.368 . S
H733 C741 0.950 . S
H734 C739 0.950 . S
H735 C740 0.949 . S
H736 C742 0.950 . S
H737 C743 0.950 . S
H738 C744 0.949 . S
C739 H734 0.950 . S
C739 C741 1.327 . S
C739 C745 1.429 . S
C740 C732 1.574 . S
C740 H735 0.949 . S
C740 C746 1.368 . S
C741 C725 1.349 . S
C741 H733 0.950 . S
C741 C739 1.327 . S
C742 C730 1.349 . S
C742 H736 0.950 . S
C742 C743 1.327 . S
C743 H737 0.950 . S
C743 C742 1.327 . S
C743 C747 1.429 . S
C744 C727 1.574 . S
C744 H738 0.949 . S
C744 C748 1.368 . S
C745 C726 1.429 . S
C745 C739 1.429 . S
C745 C746 1.523 . S
C746 C727 1.368 . S
C746 C740 1.368 . S
C746 C745 1.523 . S
C747 C731 1.429 . S
C747 C743 1.429 . S
C747 C748 1.523 . S
C748 C732 1.368 . S
C748 C744 1.368 . S
C748 C747 1.523 . S
H749 C724 0.950 . S
H750 C726 0.950 . S
H751 C727 0.949 . S
H752 C729 0.950 . S
H753 C731 0.950 . S
C754 C755 1.349 . S
C754 C756 1.327 . S
C754 H779 0.950 . S
C755 C754 1.349 . S
C755 C771 1.349 . S
C756 C754 1.327 . S
C756 C775 1.429 . S
C756 H780 0.950 . S
C757 C774 1.574 . S
C757 C776 1.368 . S
C757 H781 0.949 . S
H758 C762 0.949 . S
C759 C760 1.349 . S
C759 C761 1.327 . S
C759 H782 0.950 . S
C760 C759 1.349 . S
C760 C772 1.349 . S
C761 C759 1.327 . S
C761 C777 1.429 . S
C761 H783 0.950 . S
C762 H758 0.949 . S
C762 C770 1.574 . S
C762 C778 1.368 . S
H763 C771 0.950 . S
H764 C769 0.950 . S
H765 C770 0.949 . S
H766 C772 0.950 . S
H767 C773 0.950 . S
H768 C774 0.949 . S
C769 H764 0.950 . S
C769 C771 1.327 . S
C769 C775 1.429 . S
C770 C762 1.574 . S
C770 H765 0.949 . S
C770 C776 1.368 . S
C771 C755 1.349 . S
C771 H763 0.950 . S
C771 C769 1.327 . S
C772 C760 1.349 . S
C772 H766 0.950 . S
C772 C773 1.327 . S
C773 H767 0.950 . S
C773 C772 1.327 . S
C773 C777 1.429 . S
C774 C757 1.574 . S
C774 H768 0.949 . S
C774 C778 1.368 . S
C775 C756 1.429 . S
C775 C769 1.429 . S
C775 C776 1.523 . S
C776 C757 1.368 . S
C776 C770 1.368 . S
C776 C775 1.523 . S
C777 C761 1.429 . S
C777 C773 1.429 . S
C777 C778 1.523 . S
C778 C762 1.368 . S
C778 C774 1.368 . S
C778 C777 1.523 . S
H779 C754 0.950 . S
H780 C756 0.950 . S
H781 C757 0.949 . S
H782 C759 0.950 . S
H783 C761 0.950 . S
C784 C785 1.349 . S
C784 C786 1.327 . S
C784 H809 0.950 . S
C785 C784 1.349 . S
C785 C801 1.349 . S
C786 C784 1.327 . S
C786 C805 1.429 . S
C786 H810 0.950 . S
C787 C804 1.574 . S
C787 C806 1.368 . S
C787 H811 0.949 . S
H788 C792 0.949 . S
C789 C790 1.349 . S
C789 C791 1.327 . S
C789 H812 0.950 . S
C790 C789 1.349 . S
C790 C802 1.349 . S
C791 C789 1.327 . S
C791 C807 1.429 . S
C791 H813 0.950 . S
C792 H788 0.949 . S
C792 C800 1.574 . S
C792 C808 1.368 . S
H793 C801 0.950 . S
H794 C799 0.950 . S
H795 C800 0.949 . S
H796 C802 0.950 . S
H797 C803 0.950 . S
H798 C804 0.949 . S
C799 H794 0.950 . S
C799 C801 1.327 . S
C799 C805 1.429 . S
C800 C792 1.574 . S
C800 H795 0.949 . S
C800 C806 1.368 . S
C801 C785 1.349 . S
C801 H793 0.950 . S
C801 C799 1.327 . S
C802 C790 1.349 . S
C802 H796 0.950 . S
C802 C803 1.327 . S
C803 H797 0.950 . S
C803 C802 1.327 . S
C803 C807 1.429 . S
C804 C787 1.574 . S
C804 H798 0.949 . S
C804 C808 1.368 . S
C805 C786 1.429 . S
C805 C799 1.429 . S
C805 C806 1.523 . S
C806 C787 1.368 . S
C806 C800 1.368 . S
C806 C805 1.523 . S
C807 C791 1.429 . S
C807 C803 1.429 . S
C807 C808 1.523 . S
C808 C792 1.368 . S
C808 C804 1.368 . S
C808 C807 1.523 . S
H809 C784 0.950 . S
H810 C786 0.950 . S
H811 C787 0.949 . S
H812 C789 0.950 . S
H813 C791 0.950 . S
C814 C815 1.349 . S
C814 C816 1.327 . S
C814 H839 0.950 . S
C815 C814 1.349 . S
C815 C831 1.349 . S
C816 C814 1.327 . S
C816 C835 1.429 . S
C816 H840 0.950 . S
C817 C834 1.574 . S
C817 C836 1.368 . S
C817 H841 0.949 . S
H818 C822 0.949 . S
C819 C820 1.349 . S
C819 C821 1.327 . S
C819 H842 0.950 . S
C820 C819 1.349 . S
C820 C832 1.349 . S
C821 C819 1.327 . S
C821 C837 1.429 . S
C821 H843 0.950 . S
C822 H818 0.949 . S
C822 C830 1.574 . S
C822 C838 1.368 . S
H823 C831 0.950 . S
H824 C829 0.950 . S
H825 C830 0.949 . S
H826 C832 0.950 . S
H827 C833 0.950 . S
H828 C834 0.949 . S
C829 H824 0.950 . S
C829 C831 1.327 . S
C829 C835 1.429 . S
C830 C822 1.574 . S
C830 H825 0.949 . S
C830 C836 1.368 . S
C831 C815 1.349 . S
C831 H823 0.950 . S
C831 C829 1.327 . S
C832 C820 1.349 . S
C832 H826 0.950 . S
C832 C833 1.327 . S
C833 H827 0.950 . S
C833 C832 1.327 . S
C833 C837 1.429 . S
C834 C817 1.574 . S
C834 H828 0.949 . S
C834 C838 1.368 . S
C835 C816 1.429 . S
C835 C829 1.429 . S
C835 C836 1.523 . S
C836 C817 1.368 . S
C836 C830 1.368 . S
C836 C835 1.523 . S
C837 C821 1.429 . S
C837 C833 1.429 . S
C837 C838 1.523 . S
C838 C822 1.368 . S
C838 C834 1.368 . S
C838 C837 1.523 . S
H839 C814 0.950 . S
H840 C816 0.950 . S
H841 C817 0.949 . S
H842 C819 0.950 . S
H843 C821 0.950 . S
C844 C845 1.349 1_455 S
C844 C846 1.327 . S
C844 H869 0.950 . S
C845 C844 1.349 1_655 S
C845 C861 1.349 . S
C846 C844 1.327 . S
C846 C865 1.429 . S
C846 H870 0.950 . S
C847 C864 1.574 1_655 S
C847 C866 1.368 1_655 S
C847 H871 0.949 . S
H848 C852 0.949 . S
C849 C850 1.349 . S
C849 C851 1.327 . S
C849 H872 0.950 . S
C850 C849 1.349 . S
C850 C862 1.349 . S
C851 C849 1.327 . S
C851 C867 1.429 . S
C851 H873 0.950 . S
C852 H848 0.949 . S
C852 C860 1.574 . S
C852 C868 1.368 . S
H853 C861 0.950 . S
H854 C859 0.950 . S
H855 C860 0.949 . S
H856 C862 0.950 . S
H857 C863 0.950 . S
H858 C864 0.949 1_655 S
C859 H854 0.950 . S
C859 C861 1.327 . S
C859 C865 1.429 1_655 S
C860 C852 1.574 . S
C860 H855 0.949 . S
C860 C866 1.368 . S
C861 C845 1.349 . S
C861 H853 0.950 . S
C861 C859 1.327 . S
C862 C850 1.349 . S
C862 H856 0.950 . S
C862 C863 1.327 . S
C863 H857 0.950 . S
C863 C862 1.327 . S
C863 C867 1.429 . S
C864 C847 1.574 1_455 S
C864 H858 0.949 1_455 S
C864 C868 1.368 . S
C865 C846 1.429 . S
C865 C859 1.429 1_455 S
C865 C866 1.523 . S
C866 C847 1.368 1_455 S
C866 C860 1.368 . S
C866 C865 1.523 . S
C867 C851 1.429 . S
C867 C863 1.429 . S
C867 C868 1.523 . S
C868 C852 1.368 . S
C868 C864 1.368 . S
C868 C867 1.523 . S
H869 C844 0.950 . S
H870 C846 0.950 . S
H871 C847 0.949 . S
H872 C849 0.950 . S
H873 C851 0.950 . S
C874 C875 1.349 1_545 S
C874 C876 1.327 . S
C874 H899 0.950 . S
C875 C874 1.349 1_565 S
C875 C891 1.349 . S
C876 C874 1.327 . S
C876 C895 1.429 . S
C876 H900 0.950 . S
C877 C894 1.574 . S
C877 C896 1.368 1_565 S
C877 H901 0.949 . S
H878 C882 0.949 . S
C879 C880 1.349 . S
C879 C881 1.327 . S
C879 H902 0.943 1_545 S
C880 C879 1.349 . S
C880 C892 1.349 . S
C881 C879 1.327 . S
C881 C897 1.429 . S
C881 H903 0.950 1_545 S
C882 H878 0.949 . S
C882 C890 1.574 . S
C882 C898 1.368 . S
H883 C891 0.950 . S
H884 C889 0.950 . S
H885 C890 0.949 . S
H886 C892 0.950 . S
H887 C893 0.950 . S
H888 C894 0.949 . S
C889 H884 0.950 . S
C889 C891 1.327 . S
C889 C895 1.429 1_565 S
C890 C882 1.574 . S
C890 H885 0.949 . S
C890 C896 1.368 . S
C891 C875 1.349 . S
C891 H883 0.950 . S
C891 C889 1.327 . S
C892 C880 1.349 . S
C892 H886 0.950 . S
C892 C893 1.327 . S
C893 H887 0.950 . S
C893 C892 1.327 . S
C893 C897 1.429 . S
C894 C877 1.574 . S
C894 H888 0.949 . S
C894 C898 1.368 1_565 S
C895 C876 1.429 . S
C895 C889 1.429 1_545 S
C895 C896 1.523 . S
C896 C877 1.368 1_545 S
C896 C890 1.368 . S
C896 C895 1.523 . S
C897 C881 1.429 . S
C897 C893 1.429 . S
C897 C898 1.523 . S
C898 C882 1.368 . S
C898 C894 1.368 1_545 S
C898 C897 1.523 . S
H899 C874 0.950 . S
H900 C876 0.950 . S
H901 C877 0.949 . S
H902 C879 0.943 1_565 S
H903 C881 0.950 1_565 S
C904 C905 1.349 . S
C904 C906 1.327 . S
C904 H929 0.950 . S
C905 C904 1.349 . S
C905 C921 1.349 1_455 S
C906 C904 1.327 . S
C906 C925 1.429 1_455 S
C906 H930 0.950 . S
C907 C924 1.574 . S
C907 C926 1.368 . S
C907 H931 0.949 . S
H908 C912 0.949 1_455 S
C909 C910 1.349 . S
C909 C911 1.327 . S
C909 H932 0.950 . S
C910 C909 1.349 . S
C910 C922 1.349 . S
C911 C909 1.327 . S
C911 C927 1.429 . S
C911 H933 0.950 . S
C912 H908 0.949 1_655 S
C912 C920 1.574 1_655 S
C912 C928 1.368 . S
H913 C921 0.950 . S
H914 C919 0.950 . S
H915 C920 0.949 . S
H916 C922 0.950 . S
H917 C923 0.950 . S
H918 C924 0.949 . S
C919 H914 0.950 . S
C919 C921 1.327 . S
C919 C925 1.429 . S
C920 C912 1.574 1_455 S
C920 H915 0.949 . S
C920 C926 1.368 1_455 S
C921 C905 1.349 1_655 S
C921 H913 0.950 . S
C921 C919 1.327 . S
C922 C910 1.349 . S
C922 H916 0.950 . S
C922 C923 1.327 . S
C923 H917 0.950 . S
C923 C922 1.327 . S
C923 C927 1.429 . S
C924 C907 1.574 . S
C924 H918 0.949 . S
C924 C928 1.368 . S
C925 C906 1.429 1_655 S
C925 C919 1.429 . S
C925 C926 1.523 . S
C926 C907 1.368 . S
C926 C920 1.368 1_655 S
C926 C925 1.523 . S
C927 C911 1.429 . S
C927 C923 1.429 . S
C927 C928 1.523 . S
C928 C912 1.368 . S
C928 C924 1.368 . S
C928 C927 1.523 . S
H929 C904 0.950 . S
H930 C906 0.950 . S
H931 C907 0.949 . S
H932 C909 0.950 . S
H933 C911 0.950 . S
C934 C935 1.349 . S
C934 C936 1.327 . S
C934 H959 0.950 . S
C935 C934 1.349 . S
C935 C951 1.349 1_545 S
C936 C934 1.327 . S
C936 C955 1.429 1_545 S
C936 H960 0.950 . S
C937 C954 1.574 . S
C937 C956 1.368 . S
C937 H961 0.949 . S
H938 C942 0.949 1_545 S
C939 C940 1.349 . S
C939 C941 1.327 . S
C939 H962 0.950 . S
C940 C939 1.349 . S
C940 C952 1.349 . S
C941 C939 1.327 . S
C941 C957 1.429 . S
C941 H963 0.950 . S
C942 H938 0.949 1_565 S
C942 C950 1.574 1_565 S
C942 C958 1.368 . S
H943 C951 0.950 . S
H944 C949 0.950 . S
H945 C950 0.949 . S
H946 C952 0.950 . S
H947 C953 0.950 . S
H948 C954 0.949 . S
C949 H944 0.950 . S
C949 C951 1.327 . S
C949 C955 1.429 . S
C950 C942 1.574 1_545 S
C950 H945 0.949 . S
C950 C956 1.368 1_545 S
C951 C935 1.349 1_565 S
C951 H943 0.950 . S
C951 C949 1.327 . S
C952 C940 1.349 . S
C952 H946 0.950 . S
C952 C953 1.327 . S
C953 H947 0.950 . S
C953 C952 1.327 . S
C953 C957 1.429 . S
C954 C937 1.574 . S
C954 H948 0.949 . S
C954 C958 1.368 . S
C955 C936 1.429 1_565 S
C955 C949 1.429 . S
C955 C956 1.523 . S
C956 C937 1.368 . S
C956 C950 1.368 1_565 S
C956 C955 1.523 . S
C957 C941 1.429 . S
C957 C953 1.429 . S
C957 C958 1.523 . S
C958 C942 1.368 . S
C958 C954 1.368 . S
C958 C957 1.523 . S
H959 C934 0.950 . S
H960 C936 0.950 . S
H961 C937 0.949 . S
H962 C939 0.950 . S
H963 C941 0.950 . S
C964 C965 1.349 . S
C964 C966 1.327 . S
C964 H989 0.950 . S
C965 C964 1.349 . S
C965 C981 1.349 . S
C966 C964 1.327 . S
C966 C985 1.429 . S
C966 H990 0.950 . S
C967 C984 1.574 . S
C967 C986 1.368 . S
C967 H991 0.949 . S
H968 C972 0.949 . S
C969 C970 1.349 . S
C969 C971 1.327 . S
C969 H992 0.950 . S
C970 C969 1.349 . S
C970 C982 1.349 . S
C971 C969 1.327 . S
C971 C987 1.429 . S
C971 H993 0.950 . S
C972 H968 0.949 . S
C972 C980 1.574 . S
C972 C988 1.368 . S
H973 C981 0.950 . S
H974 C979 0.950 . S
H975 C980 0.949 . S
H976 C982 0.950 . S
H977 C983 0.950 . S
H978 C984 0.949 . S
C979 H974 0.950 . S
C979 C981 1.327 . S
C979 C985 1.429 . S
C980 C972 1.574 . S
C980 H975 0.949 . S
C980 C986 1.368 . S
C981 C965 1.349 . S
C981 H973 0.950 . S
C981 C979 1.327 . S
C982 C970 1.349 . S
C982 H976 0.950 . S
C982 C983 1.327 . S
C983 H977 0.950 . S
C983 C982 1.327 . S
C983 C987 1.429 . S
C984 C967 1.574 . S
C984 H978 0.949 . S
C984 C988 1.368 . S
C985 C966 1.429 . S
C985 C979 1.429 . S
C985 C986 1.523 . S
C986 C967 1.368 . S
C986 C980 1.368 . S
C986 C985 1.523 . S
C987 C971 1.429 . S
C987 C983 1.429 . S
C987 C988 1.523 . S
C988 C972 1.368 . S
C988 C984 1.368 . S
C988 C987 1.523 . S
H989 C964 0.950 . S
H990 C966 0.950 . S
H991 C967 0.949 . S
H992 C969 0.950 . S
H993 C971 0.950 . S
C994 C995 1.349 . S
C994 C996 1.327 . S
C994 H1019 0.950 . S
C995 C994 1.349 . S
C995 C1011 1.349 . S
C996 C994 1.327 . S
C996 C1015 1.429 . S
C996 H1020 0.950 . S
C997 C1014 1.574 . S
C997 C1016 1.368 . S
C997 H1021 0.949 . S
H998 C1002 0.949 . S
C999 C1000 1.349 . S
C999 C1001 1.327 . S
C999 H1022 0.950 . S
C1000 C999 1.349 . S
C1000 C1012 1.349 . S
C1001 C999 1.327 . S
C1001 C1017 1.429 . S
C1001 H1023 0.950 . S
C1002 H998 0.949 . S
C1002 C1010 1.574 . S
C1002 C1018 1.368 . S
H1003 C1011 0.950 . S
H1004 C1009 0.950 . S
H1005 C1010 0.949 . S
H1006 C1012 0.950 . S
H1007 C1013 0.950 . S
H1008 C1014 0.949 . S
C1009 H1004 0.950 . S
C1009 C1011 1.327 . S
C1009 C1015 1.429 . S
C1010 C1002 1.574 . S
C1010 H1005 0.949 . S
C1010 C1016 1.368 . S
C1011 C995 1.349 . S
C1011 H1003 0.950 . S
C1011 C1009 1.327 . S
C1012 C1000 1.349 . S
C1012 H1006 0.950 . S
C1012 C1013 1.327 . S
C1013 H1007 0.950 . S
C1013 C1012 1.327 . S
C1013 C1017 1.429 . S
C1014 C997 1.574 . S
C1014 H1008 0.949 . S
C1014 C1018 1.368 . S
C1015 C996 1.429 . S
C1015 C1009 1.429 . S
C1015 C1016 1.523 . S
C1016 C997 1.368 . S
C1016 C1010 1.368 . S
C1016 C1015 1.523 . S
C1017 C1001 1.429 . S
C1017 C1013 1.429 . S
C1017 C1018 1.523 . S
C1018 C1002 1.368 . S
C1018 C1014 1.368 . S
C1018 C1017 1.523 . S
H1019 C994 0.950 . S
H1020 C996 0.950 . S
H1021 C997 0.949 . S
H1022 C999 0.950 . S
H1023 C1001 0.950 . S
C1024 C1025 1.349 . S
C1024 C1026 1.327 . S
C1024 H1049 0.950 . S
C1025 C1024 1.349 . S
C1025 C1041 1.349 . S
C1026 C1024 1.327 . S
C1026 C1045 1.429 . S
C1026 H1050 0.950 . S
C1027 C1044 1.574 . S
C1027 C1046 1.368 . S
C1027 H1051 0.949 . S
H1028 C1032 0.949 . S
C1029 C1030 1.349 . S
C1029 C1031 1.327 . S
C1029 H1052 0.950 . S
C1030 C1029 1.349 . S
C1030 C1042 1.349 . S
C1031 C1029 1.327 . S
C1031 C1047 1.429 . S
C1031 H1053 0.950 . S
C1032 H1028 0.949 . S
C1032 C1040 1.574 . S
C1032 C1048 1.368 . S
H1033 C1041 0.950 . S
H1034 C1039 0.950 . S
H1035 C1040 0.949 . S
H1036 C1042 0.950 . S
H1037 C1043 0.950 . S
H1038 C1044 0.949 . S
C1039 H1034 0.950 . S
C1039 C1041 1.327 . S
C1039 C1045 1.429 . S
C1040 C1032 1.574 . S
C1040 H1035 0.949 . S
C1040 C1046 1.368 . S
C1041 C1025 1.349 . S
C1041 H1033 0.950 . S
C1041 C1039 1.327 . S
C1042 C1030 1.349 . S
C1042 H1036 0.950 . S
C1042 C1043 1.327 . S
C1043 H1037 0.950 . S
C1043 C1042 1.327 . S
C1043 C1047 1.429 . S
C1044 C1027 1.574 . S
C1044 H1038 0.949 . S
C1044 C1048 1.368 . S
C1045 C1026 1.429 . S
C1045 C1039 1.429 . S
C1045 C1046 1.523 . S
C1046 C1027 1.368 . S
C1046 C1040 1.368 . S
C1046 C1045 1.523 . S
C1047 C1031 1.429 . S
C1047 C1043 1.429 . S
C1047 C1048 1.523 . S
C1048 C1032 1.368 . S
C1048 C1044 1.368 . S
C1048 C1047 1.523 . S
H1049 C1024 0.950 . S
H1050 C1026 0.950 . S
H1051 C1027 0.949 . S
H1052 C1029 0.950 . S
H1053 C1031 0.950 . S
C1054 C1055 1.349 . S
C1054 C1056 1.327 . S
C1054 H1079 0.950 . S
C1055 C1054 1.349 . S
C1055 C1071 1.349 . S
C1056 C1054 1.327 . S
C1056 C1075 1.429 . S
C1056 H1080 0.950 . S
C1057 C1074 1.574 . S
C1057 C1076 1.368 . S
C1057 H1081 0.949 . S
H1058 C1062 0.949 . S
C1059 C1060 1.349 . S
C1059 C1061 1.327 . S
C1059 H1082 0.950 . S
C1060 C1059 1.349 . S
C1060 C1072 1.349 . S
C1061 C1059 1.327 . S
C1061 C1077 1.429 . S
C1061 H1083 0.950 . S
C1062 H1058 0.949 . S
C1062 C1070 1.574 . S
C1062 C1078 1.368 . S
H1063 C1071 0.950 . S
H1064 C1069 0.950 . S
H1065 C1070 0.949 . S
H1066 C1072 0.950 . S
H1067 C1073 0.950 . S
H1068 C1074 0.949 . S
C1069 H1064 0.950 . S
C1069 C1071 1.327 . S
C1069 C1075 1.429 . S
C1070 C1062 1.574 . S
C1070 H1065 0.949 . S
C1070 C1076 1.368 . S
C1071 C1055 1.349 . S
C1071 H1063 0.950 . S
C1071 C1069 1.327 . S
C1072 C1060 1.349 . S
C1072 H1066 0.950 . S
C1072 C1073 1.327 . S
C1073 H1067 0.950 . S
C1073 C1072 1.327 . S
C1073 C1077 1.429 . S
C1074 C1057 1.574 . S
C1074 H1068 0.949 . S
C1074 C1078 1.368 . S
C1075 C1056 1.429 . S
C1075 C1069 1.429 . S
C1075 C1076 1.523 . S
C1076 C1057 1.368 . S
C1076 C1070 1.368 . S
C1076 C1075 1.523 . S
C1077 C1061 1.429 . S
C1077 C1073 1.429 . S
C1077 C1078 1.523 . S
C1078 C1062 1.368 . S
C1078 C1074 1.368 . S
C1078 C1077 1.523 . S
H1079 C1054 0.950 . S
H1080 C1056 0.950 . S
H1081 C1057 0.949 . S
H1082 C1059 0.950 . S
H1083 C1061 0.950 . S
C1084 C1085 1.349 . S
C1084 C1086 1.327 . S
C1084 H1109 0.950 . S
C1085 C1084 1.349 . S
C1085 C1101 1.349 . S
C1086 C1084 1.327 . S
C1086 C1105 1.429 . S
C1086 H1110 0.950 . S
C1087 C1104 1.574 . S
C1087 C1106 1.368 . S
C1087 H1111 0.949 . S
H1088 C1092 0.949 . S
C1089 C1090 1.349 . S
C1089 C1091 1.327 . S
C1089 H1112 0.950 . S
C1090 C1089 1.349 . S
C1090 C1102 1.349 . S
C1091 C1089 1.327 . S
C1091 C1107 1.429 . S
C1091 H1113 0.950 . S
C1092 H1088 0.949 . S
C1092 C1100 1.574 . S
C1092 C1108 1.368 . S
H1093 C1101 0.950 . S
H1094 C1099 0.950 . S
H1095 C1100 0.949 . S
H1096 C1102 0.950 . S
H1097 C1103 0.950 . S
H1098 C1104 0.949 . S
C1099 H1094 0.950 . S
C1099 C1101 1.327 . S
C1099 C1105 1.429 . S
C1100 C1092 1.574 . S
C1100 H1095 0.949 . S
C1100 C1106 1.368 . S
C1101 C1085 1.349 . S
C1101 H1093 0.950 . S
C1101 C1099 1.327 . S
C1102 C1090 1.349 . S
C1102 H1096 0.950 . S
C1102 C1103 1.327 . S
C1103 H1097 0.950 . S
C1103 C1102 1.327 . S
C1103 C1107 1.429 . S
C1104 C1087 1.574 . S
C1104 H1098 0.949 . S
C1104 C1108 1.368 . S
C1105 C1086 1.429 . S
C1105 C1099 1.429 . S
C1105 C1106 1.523 . S
C1106 C1087 1.368 . S
C1106 C1100 1.368 . S
C1106 C1105 1.523 . S
C1107 C1091 1.429 . S
C1107 C1103 1.429 . S
C1107 C1108 1.523 . S
C1108 C1092 1.368 . S
C1108 C1104 1.368 . S
C1108 C1107 1.523 . S
H1109 C1084 0.950 . S
H1110 C1086 0.950 . S
H1111 C1087 0.949 . S
H1112 C1089 0.950 . S
H1113 C1091 0.950 . S
C1114 C1115 1.349 . S
C1114 C1116 1.327 . S
C1114 H1139 0.950 . S
C1115 C1114 1.349 . S
C1115 C1131 1.349 . S
C1116 C1114 1.327 . S
C1116 C1135 1.429 . S
C1116 H1140 0.950 . S
C1117 C1134 1.574 . S
C1117 C1136 1.368 . S
C1117 H1141 0.949 . S
H1118 C1122 0.949 . S
C1119 C1120 1.349 . S
C1119 C1121 1.327 . S
C1119 H1142 0.950 . S
C1120 C1119 1.349 . S
C1120 C1132 1.349 . S
C1121 C1119 1.327 . S
C1121 C1137 1.429 . S
C1121 H1143 0.950 . S
C1122 H1118 0.949 . S
C1122 C1130 1.574 . S
C1122 C1138 1.368 . S
H1123 C1131 0.950 . S
H1124 C1129 0.950 . S
H1125 C1130 0.949 . S
H1126 C1132 0.950 . S
H1127 C1133 0.950 . S
H1128 C1134 0.949 . S
C1129 H1124 0.950 . S
C1129 C1131 1.327 . S
C1129 C1135 1.429 . S
C1130 C1122 1.574 . S
C1130 H1125 0.949 . S
C1130 C1136 1.368 . S
C1131 C1115 1.349 . S
C1131 H1123 0.950 . S
C1131 C1129 1.327 . S
C1132 C1120 1.349 . S
C1132 H1126 0.950 . S
C1132 C1133 1.327 . S
C1133 H1127 0.950 . S
C1133 C1132 1.327 . S
C1133 C1137 1.429 . S
C1134 C1117 1.574 . S
C1134 H1128 0.949 . S
C1134 C1138 1.368 . S
C1135 C1116 1.429 . S
C1135 C1129 1.429 . S
C1135 C1136 1.523 . S
C1136 C1117 1.368 . S
C1136 C1130 1.368 . S
C1136 C1135 1.523 . S
C1137 C1121 1.429 . S
C1137 C1133 1.429 . S
C1137 C1138 1.523 . S
C1138 C1122 1.368 . S
C1138 C1134 1.368 . S
C1138 C1137 1.523 . S
H1139 C1114 0.950 . S
H1140 C1116 0.950 . S
H1141 C1117 0.949 . S
H1142 C1119 0.950 . S
H1143 C1121 0.950 . S
C1144 C1145 1.349 . S
C1144 C1146 1.327 . S
C1144 H1169 0.950 . S
C1145 C1144 1.349 . S
C1145 C1161 1.349 . S
C1146 C1144 1.327 . S
C1146 C1165 1.429 . S
C1146 H1170 0.950 . S
C1147 C1164 1.574 . S
C1147 C1166 1.368 . S
C1147 H1171 0.949 . S
H1148 C1152 0.949 . S
C1149 C1150 1.349 . S
C1149 C1151 1.327 . S
C1149 H1172 0.950 . S
C1150 C1149 1.349 . S
C1150 C1162 1.349 . S
C1151 C1149 1.327 . S
C1151 C1167 1.429 . S
C1151 H1173 0.950 . S
C1152 H1148 0.949 . S
C1152 C1160 1.574 . S
C1152 C1168 1.368 . S
H1153 C1161 0.950 . S
H1154 C1159 0.950 . S
H1155 C1160 0.949 . S
H1156 C1162 0.950 . S
H1157 C1163 0.950 . S
H1158 C1164 0.949 . S
C1159 H1154 0.950 . S
C1159 C1161 1.327 . S
C1159 C1165 1.429 . S
C1160 C1152 1.574 . S
C1160 H1155 0.949 . S
C1160 C1166 1.368 . S
C1161 C1145 1.349 . S
C1161 H1153 0.950 . S
C1161 C1159 1.327 . S
C1162 C1150 1.349 . S
C1162 H1156 0.950 . S
C1162 C1163 1.327 . S
C1163 H1157 0.950 . S
C1163 C1162 1.327 . S
C1163 C1167 1.429 . S
C1164 C1147 1.574 . S
C1164 H1158 0.949 . S
C1164 C1168 1.368 . S
C1165 C1146 1.429 . S
C1165 C1159 1.429 . S
C1165 C1166 1.523 . S
C1166 C1147 1.368 . S
C1166 C1160 1.368 . S
C1166 C1165 1.523 . S
C1167 C1151 1.429 . S
C1167 C1163 1.429 . S
C1167 C1168 1.523 . S
C1168 C1152 1.368 . S
C1168 C1164 1.368 . S
C1168 C1167 1.523 . S
H1169 C1144 0.950 . S
H1170 C1146 0.950 . S
H1171 C1147 0.949 . S
H1172 C1149 0.950 . S
H1173 C1151 0.950 . S
C1174 C1175 1.349 . S
C1174 C1176 1.327 . S
C1174 H1199 0.950 . S
C1175 C1174 1.349 . S
C1175 C1191 1.349 . S
C1176 C1174 1.327 . S
C1176 C1195 1.429 . S
C1176 H1200 0.950 . S
C1177 C1194 1.574 . S
C1177 C1196 1.368 . S
C1177 H1201 0.949 . S
H1178 C1182 0.949 . S
C1179 C1180 1.349 . S
C1179 C1181 1.327 . S
C1179 H1202 0.950 . S
C1180 C1179 1.349 . S
C1180 C1192 1.349 . S
C1181 C1179 1.327 . S
C1181 C1197 1.429 . S
C1181 H1203 0.950 . S
C1182 H1178 0.949 . S
C1182 C1190 1.574 . S
C1182 C1198 1.368 . S
H1183 C1191 0.950 . S
H1184 C1189 0.950 . S
H1185 C1190 0.949 . S
H1186 C1192 0.950 . S
H1187 C1193 0.950 . S
H1188 C1194 0.949 . S
C1189 H1184 0.950 . S
C1189 C1191 1.327 . S
C1189 C1195 1.429 . S
C1190 C1182 1.574 . S
C1190 H1185 0.949 . S
C1190 C1196 1.368 . S
C1191 C1175 1.349 . S
C1191 H1183 0.950 . S
C1191 C1189 1.327 . S
C1192 C1180 1.349 . S
C1192 H1186 0.950 . S
C1192 C1193 1.327 . S
C1193 H1187 0.950 . S
C1193 C1192 1.327 . S
C1193 C1197 1.429 . S
C1194 C1177 1.574 . S
C1194 H1188 0.949 . S
C1194 C1198 1.368 . S
C1195 C1176 1.429 . S
C1195 C1189 1.429 . S
C1195 C1196 1.523 . S
C1196 C1177 1.368 . S
C1196 C1190 1.368 . S
C1196 C1195 1.523 . S
C1197 C1181 1.429 . S
C1197 C1193 1.429 . S
C1197 C1198 1.523 . S
C1198 C1182 1.368 . S
C1198 C1194 1.368 . S
C1198 C1197 1.523 . S
H1199 C1174 0.950 . S
H1200 C1176 0.950 . S
H1201 C1177 0.949 . S
H1202 C1179 0.950 . S
H1203 C1181 0.950 . S
C1204 C1205 1.349 . S
C1204 C1206 1.327 . S
C1204 H1229 0.950 . S
C1205 C1204 1.349 . S
C1205 C1221 1.349 . S
C1206 C1204 1.327 . S
C1206 C1225 1.429 . S
C1206 H1230 0.950 . S
C1207 C1224 1.574 . S
C1207 C1226 1.368 . S
C1207 H1231 0.949 . S
H1208 C1212 0.949 . S
C1209 C1210 1.349 . S
C1209 C1211 1.327 . S
C1209 H1232 0.950 . S
C1210 C1209 1.349 . S
C1210 C1222 1.349 . S
C1211 C1209 1.327 . S
C1211 C1227 1.429 . S
C1211 H1233 0.950 . S
C1212 H1208 0.949 . S
C1212 C1220 1.574 . S
C1212 C1228 1.368 . S
H1213 C1221 0.950 . S
H1214 C1219 0.950 . S
H1215 C1220 0.949 . S
H1216 C1222 0.950 . S
H1217 C1223 0.950 . S
H1218 C1224 0.949 . S
C1219 H1214 0.950 . S
C1219 C1221 1.327 . S
C1219 C1225 1.429 . S
C1220 C1212 1.574 . S
C1220 H1215 0.949 . S
C1220 C1226 1.368 . S
C1221 C1205 1.349 . S
C1221 H1213 0.950 . S
C1221 C1219 1.327 . S
C1222 C1210 1.349 . S
C1222 H1216 0.950 . S
C1222 C1223 1.327 . S
C1223 H1217 0.950 . S
C1223 C1222 1.327 . S
C1223 C1227 1.429 . S
C1224 C1207 1.574 . S
C1224 H1218 0.949 . S
C1224 C1228 1.368 . S
C1225 C1206 1.429 . S
C1225 C1219 1.429 . S
C1225 C1226 1.523 . S
C1226 C1207 1.368 . S
C1226 C1220 1.368 . S
C1226 C1225 1.523 . S
C1227 C1211 1.429 . S
C1227 C1223 1.429 . S
C1227 C1228 1.523 . S
C1228 C1212 1.368 . S
C1228 C1224 1.368 . S
C1228 C1227 1.523 . S
H1229 C1204 0.950 . S
H1230 C1206 0.950 . S
H1231 C1207 0.949 . S
H1232 C1209 0.950 . S
H1233 C1211 0.950 . S
C1234 C1235 1.349 . S
C1234 C1236 1.327 . S
C1234 H1259 0.950 . S
C1235 C1234 1.349 . S
C1235 C1251 1.349 . S
C1236 C1234 1.327 . S
C1236 C1255 1.429 . S
C1236 H1260 0.950 . S
C1237 C1254 1.574 . S
C1237 C1256 1.368 . S
C1237 H1261 0.949 . S
H1238 C1242 0.949 . S
C1239 C1240 1.349 . S
C1239 C1241 1.327 . S
C1239 H1262 0.950 . S
C1240 C1239 1.349 . S
C1240 C1252 1.349 . S
C1241 C1239 1.327 . S
C1241 C1257 1.429 . S
C1241 H1263 0.950 . S
C1242 H1238 0.949 . S
C1242 C1250 1.574 . S
C1242 C1258 1.368 . S
H1243 C1251 0.950 . S
H1244 C1249 0.950 . S
H1245 C1250 0.949 . S
H1246 C1252 0.950 . S
H1247 C1253 0.950 . S
H1248 C1254 0.949 . S
C1249 H1244 0.950 . S
C1249 C1251 1.327 . S
C1249 C1255 1.429 . S
C1250 C1242 1.574 . S
C1250 H1245 0.949 . S
C1250 C1256 1.368 . S
C1251 C1235 1.349 . S
C1251 H1243 0.950 . S
C1251 C1249 1.327 . S
C1252 C1240 1.349 . S
C1252 H1246 0.950 . S
C1252 C1253 1.327 . S
C1253 H1247 0.950 . S
C1253 C1252 1.327 . S
C1253 C1257 1.429 . S
C1254 C1237 1.574 . S
C1254 H1248 0.949 . S
C1254 C1258 1.368 . S
C1255 C1236 1.429 . S
C1255 C1249 1.429 . S
C1255 C1256 1.523 . S
C1256 C1237 1.368 . S
C1256 C1250 1.368 . S
C1256 C1255 1.523 . S
C1257 C1241 1.429 . S
C1257 C1253 1.429 . S
C1257 C1258 1.523 . S
C1258 C1242 1.368 . S
C1258 C1254 1.368 . S
C1258 C1257 1.523 . S
H1259 C1234 0.950 . S
H1260 C1236 0.950 . S
H1261 C1237 0.949 . S
H1262 C1239 0.950 . S
H1263 C1241 0.950 . S
C1264 C1265 1.349 . S
C1264 C1266 1.327 . S
C1264 H1289 0.950 . S
C1265 C1264 1.349 . S
C1265 C1281 1.349 . S
C1266 C1264 1.327 . S
C1266 C1285 1.429 . S
C1266 H1290 0.950 1_545 S
C1267 C1284 1.627 . S
C1267 C1286 1.314 1_556 S
C1267 H1291 0.953 . S
H1268 C1272 0.953 . S
C1269 C1270 1.349 . S
C1269 C1271 1.327 . S
C1269 H1292 0.950 . S
C1270 C1269 1.349 . S
C1270 C1282 1.349 . S
C1271 C1269 1.327 . S
C1271 C1287 1.429 . S
C1271 H1293 0.950 1_565 S
C1272 H1268 0.953 . S
C1272 C1280 1.627 . S
C1272 C1288 1.314 1_554 S
H1273 C1281 0.950 . S
H1274 C1279 0.950 . S
H1275 C1280 0.949 . S
H1276 C1282 0.950 . S
H1277 C1283 0.950 . S
H1278 C1284 0.949 . S
C1279 H1274 0.950 . S
C1279 C1281 1.327 . S
C1279 C1285 1.429 . S
C1280 C1272 1.627 . S
C1280 H1275 0.949 . S
C1280 C1286 1.368 1_565 S
C1281 C1265 1.349 . S
C1281 H1273 0.950 . S
C1281 C1279 1.327 . S
C1282 C1270 1.349 . S
C1282 H1276 0.950 . S
C1282 C1283 1.327 . S
C1283 H1277 0.950 . S
C1283 C1282 1.327 . S
C1283 C1287 1.429 . S
C1284 C1267 1.627 . S
C1284 H1278 0.949 . S
C1284 C1288 1.368 1_545 S
C1285 C1266 1.429 . S
C1285 C1279 1.429 . S
C1285 C1286 1.523 . S
C1286 C1267 1.314 1_554 S
C1286 C1280 1.368 1_545 S
C1286 C1285 1.523 . S
C1287 C1271 1.429 . S
C1287 C1283 1.429 . S
C1287 C1288 1.523 . S
C1288 C1272 1.314 1_556 S
C1288 C1284 1.368 1_565 S
C1288 C1287 1.523 . S
H1289 C1264 0.950 . S
H1290 C1266 0.950 1_565 S
H1291 C1267 0.953 . S
H1292 C1269 0.950 . S
H1293 C1271 0.950 1_545 S
C1294 C1295 1.349 . S
C1294 C1296 1.327 . S
C1294 H1319 0.950 . S
C1295 C1294 1.349 . S
C1295 C1311 1.349 . S
C1296 C1294 1.327 . S
C1296 C1315 1.429 . S
C1296 H1320 0.950 . S
C1297 C1314 1.574 1_554 S
C1297 C1316 1.368 . S
C1297 H1321 0.949 . S
H1298 C1302 0.949 . S
C1299 C1300 1.349 . S
C1299 C1301 1.327 . S
C1299 H1322 0.950 . S
C1300 C1299 1.349 . S
C1300 C1312 1.349 . S
C1301 C1299 1.327 . S
C1301 C1317 1.429 . S
C1301 H1323 0.950 . S
C1302 H1298 0.949 . S
C1302 C1310 1.574 1_556 S
C1302 C1318 1.368 . S
H1303 C1311 0.950 . S
H1304 C1309 0.950 . S
H1305 C1310 0.949 . S
H1306 C1312 0.950 . S
H1307 C1313 0.950 . S
H1308 C1314 0.949 . S
C1309 H1304 0.950 . S
C1309 C1311 1.327 . S
C1309 C1315 1.429 . S
C1310 C1302 1.574 1_554 S
C1310 H1305 0.949 . S
C1310 C1316 1.368 . S
C1311 C1295 1.349 . S
C1311 H1303 0.950 . S
C1311 C1309 1.327 . S
C1312 C1300 1.349 . S
C1312 H1306 0.950 . S
C1312 C1313 1.327 . S
C1313 H1307 0.950 . S
C1313 C1312 1.327 . S
C1313 C1317 1.429 . S
C1314 C1297 1.574 1_556 S
C1314 H1308 0.949 . S
C1314 C1318 1.368 . S
C1315 C1296 1.429 . S
C1315 C1309 1.429 . S
C1315 C1316 1.523 . S
C1316 C1297 1.368 . S
C1316 C1310 1.368 . S
C1316 C1315 1.523 . S
C1317 C1301 1.429 . S
C1317 C1313 1.429 . S
C1317 C1318 1.523 . S
C1318 C1302 1.368 . S
C1318 C1314 1.368 . S
C1318 C1317 1.523 . S
H1319 C1294 0.950 . S
H1320 C1296 0.950 . S
H1321 C1297 0.949 . S
H1322 C1299 0.950 . S
H1323 C1301 0.950 . S
C1324 C1325 1.349 . S
C1324 C1326 1.327 . S
C1324 H1349 0.950 . S
C1325 C1324 1.349 . S
C1325 C1341 1.349 . S
C1326 C1324 1.327 . S
C1326 C1345 1.429 . S
C1326 H1350 0.950 . S
C1327 C1344 1.595 . S
C1327 C1346 1.347 1_556 S
C1327 H1351 0.949 . S
H1328 C1332 0.949 . S
C1329 C1330 1.349 . S
C1329 C1331 1.327 . S
C1329 H1352 0.950 . S
C1330 C1329 1.349 . S
C1330 C1342 1.349 . S
C1331 C1329 1.327 . S
C1331 C1347 1.429 . S
C1331 H1353 0.950 . S
C1332 H1328 0.949 . S
C1332 C1340 1.595 . S
C1332 C1348 1.347 1_554 S
H1333 C1341 0.950 . S
H1334 C1339 0.950 . S
H1335 C1340 0.949 . S
H1336 C1342 0.950 . S
H1337 C1343 0.950 . S
H1338 C1344 0.949 . S
C1339 H1334 0.950 . S
C1339 C1341 1.327 . S
C1339 C1345 1.429 . S
C1340 C1332 1.595 . S
C1340 H1335 0.949 . S
C1340 C1346 1.368 1_455 S
C1341 C1325 1.349 . S
C1341 H1333 0.950 . S
C1341 C1339 1.327 . S
C1342 C1330 1.349 . S
C1342 H1336 0.950 . S
C1342 C1343 1.327 . S
C1343 H1337 0.950 . S
C1343 C1342 1.327 . S
C1343 C1347 1.429 . S
C1344 C1327 1.595 . S
C1344 H1338 0.949 . S
C1344 C1348 1.368 1_655 S
C1345 C1326 1.429 . S
C1345 C1339 1.429 . S
C1345 C1346 1.523 . S
C1346 C1327 1.347 1_554 S
C1346 C1340 1.368 1_655 S
C1346 C1345 1.523 . S
C1347 C1331 1.429 . S
C1347 C1343 1.429 . S
C1347 C1348 1.523 . S
C1348 C1332 1.347 1_556 S
C1348 C1344 1.368 1_455 S
C1348 C1347 1.523 . S
H1349 C1324 0.950 . S
H1350 C1326 0.950 . S
H1351 C1327 0.949 . S
H1352 C1329 0.950 . S
H1353 C1331 0.950 . S
C1354 C1355 1.349 . S
C1354 C1356 1.327 1_655 S
C1354 H1379 0.950 1_655 S
C1355 C1354 1.349 . S
C1355 C1371 1.349 . S
C1356 C1354 1.327 1_455 S
C1356 C1375 1.429 1_455 S
C1356 H1380 0.950 . S
C1357 C1374 1.574 1_546 S
C1357 C1376 1.368 . S
C1357 H1381 0.949 . S
H1358 C1362 0.949 . S
C1359 C1360 1.349 . S
C1359 C1361 1.327 1_455 S
C1359 H1382 0.950 1_455 S
C1360 C1359 1.349 . S
C1360 C1372 1.349 . S
C1361 C1359 1.327 1_655 S
C1361 C1377 1.429 1_655 S
C1361 H1383 0.950 . S
C1362 H1358 0.949 . S
C1362 C1370 1.574 1_564 S
C1362 C1378 1.368 . S
H1363 C1371 0.950 . S
H1364 C1369 0.950 . S
H1365 C1370 0.949 . S
H1366 C1372 0.950 . S
H1367 C1373 0.950 . S
H1368 C1374 0.949 . S
C1369 H1364 0.950 . S
C1369 C1371 1.327 . S
C1369 C1375 1.429 . S
C1370 C1362 1.574 1_546 S
C1370 H1365 0.949 . S
C1370 C1376 1.368 1_455 S
C1371 C1355 1.349 . S
C1371 H1363 0.950 . S
C1371 C1369 1.327 . S
C1372 C1360 1.349 . S
C1372 H1366 0.950 . S
C1372 C1373 1.327 . S
C1373 H1367 0.950 . S
C1373 C1372 1.327 . S
C1373 C1377 1.429 . S
C1374 C1357 1.574 1_564 S
C1374 H1368 0.949 . S
C1374 C1378 1.368 1_655 S
C1375 C1356 1.429 1_655 S
C1375 C1369 1.429 . S
C1375 C1376 1.523 . S
C1376 C1357 1.368 . S
C1376 C1370 1.368 1_655 S
C1376 C1375 1.523 . S
C1377 C1361 1.429 1_455 S
C1377 C1373 1.429 . S
C1377 C1378 1.523 . S
C1378 C1362 1.368 . S
C1378 C1374 1.368 1_455 S
C1378 C1377 1.523 . S
H1379 C1354 0.950 1_455 S
H1380 C1356 0.950 . S
H1381 C1357 0.949 . S
H1382 C1359 0.950 1_655 S
H1383 C1361 0.950 . S
C1384 C1385 1.349 . S
C1384 C1386 1.327 . S
C1384 H1409 0.950 . S
C1385 C1384 1.349 . S
C1385 C1401 1.349 . S
C1386 C1384 1.327 . S
C1386 C1405 1.429 . S
C1386 H1410 0.950 . S
C1387 C1404 1.574 . S
C1387 C1406 1.368 1_565 S
C1387 H1411 0.949 . S
H1388 C1392 0.949 . S
C1389 C1390 1.349 . S
C1389 C1391 1.327 . S
C1389 H1412 0.950 . S
C1390 C1389 1.349 . S
C1390 C1402 1.349 . S
C1391 C1389 1.327 . S
C1391 C1407 1.429 . S
C1391 H1413 0.950 . S
C1392 H1388 0.949 . S
C1392 C1400 1.574 . S
C1392 C1408 1.368 1_545 S
H1393 C1401 0.950 . S
H1394 C1399 0.950 1_565 S
H1395 C1400 0.949 . S
H1396 C1402 0.950 . S
H1397 C1403 0.950 1_545 S
H1398 C1404 0.949 . S
C1399 H1394 0.950 1_545 S
C1399 C1401 1.327 . S
C1399 C1405 1.429 . S
C1400 C1392 1.574 . S
C1400 H1395 0.949 . S
C1400 C1406 1.368 1_455 S
C1401 C1385 1.349 . S
C1401 H1393 0.950 . S
C1401 C1399 1.327 . S
C1402 C1390 1.349 . S
C1402 H1396 0.950 . S
C1402 C1403 1.327 . S
C1403 H1397 0.950 1_565 S
C1403 C1402 1.327 . S
C1403 C1407 1.429 . S
C1404 C1387 1.574 . S
C1404 H1398 0.949 . S
C1404 C1408 1.368 1_655 S
C1405 C1386 1.429 . S
C1405 C1399 1.429 . S
C1405 C1406 1.523 . S
C1406 C1387 1.368 1_545 S
C1406 C1400 1.368 1_655 S
C1406 C1405 1.523 . S
C1407 C1391 1.429 . S
C1407 C1403 1.429 . S
C1407 C1408 1.523 . S
C1408 C1392 1.368 1_565 S
C1408 C1404 1.368 1_455 S
C1408 C1407 1.523 . S
H1409 C1384 0.950 . S
H1410 C1386 0.950 . S
H1411 C1387 0.949 . S
H1412 C1389 0.950 . S
H1413 C1391 0.950 . S
C1414 C1415 1.349 . S
C1414 C1416 1.327 . S
C1414 H1439 0.950 . S
C1415 C1414 1.349 . S
C1415 C1431 1.349 . S
C1416 C1414 1.327 . S
C1416 C1435 1.429 . S
C1416 H1440 0.950 . S
C1417 C1434 1.574 . S
C1417 C1436 1.368 1_565 S
C1417 H1441 0.949 . S
H1418 C1422 0.949 . S
C1419 C1420 1.349 . S
C1419 C1421 1.327 . S
C1419 H1442 0.950 . S
C1420 C1419 1.349 . S
C1420 C1432 1.349 . S
C1421 C1419 1.327 . S
C1421 C1437 1.429 . S
C1421 H1443 0.950 . S
C1422 H1418 0.949 . S
C1422 C1430 1.574 . S
C1422 C1438 1.368 1_545 S
H1423 C1431 0.950 . S
H1424 C1429 0.950 . S
H1425 C1430 0.949 . S
H1426 C1432 0.950 . S
H1427 C1433 0.950 . S
H1428 C1434 0.949 . S
C1429 H1424 0.950 . S
C1429 C1431 1.327 . S
C1429 C1435 1.429 . S
C1430 C1422 1.574 . S
C1430 H1425 0.949 . S
C1430 C1436 1.368 . S
C1431 C1415 1.349 . S
C1431 H1423 0.950 . S
C1431 C1429 1.327 . S
C1432 C1420 1.349 . S
C1432 H1426 0.950 . S
C1432 C1433 1.327 . S
C1433 H1427 0.950 . S
C1433 C1432 1.327 . S
C1433 C1437 1.429 . S
C1434 C1417 1.574 . S
C1434 H1428 0.949 . S
C1434 C1438 1.368 . S
C1435 C1416 1.429 . S
C1435 C1429 1.429 . S
C1435 C1436 1.523 . S
C1436 C1417 1.368 1_545 S
C1436 C1430 1.368 . S
C1436 C1435 1.523 . S
C1437 C1421 1.429 . S
C1437 C1433 1.429 . S
C1437 C1438 1.523 . S
C1438 C1422 1.368 1_565 S
C1438 C1434 1.368 . S
C1438 C1437 1.523 . S
H1439 C1414 0.950 . S
H1440 C1416 0.950 . S
H1441 C1417 0.949 . S
H1442 C1419 0.950 . S
H1443 C1421 0.950 . S
C1444 C1445 1.349 . S
C1444 C1446 1.327 . S
C1444 H1469 0.950 . S
C1445 C1444 1.349 . S
C1445 C1461 1.349 . S
C1446 C1444 1.327 . S
C1446 C1465 1.429 . S
C1446 H1470 0.950 . S
C1447 C1464 1.574 . S
C1447 C1466 1.368 . S
C1447 H1471 0.949 . S
H1448 C1452 0.949 . S
C1449 C1450 1.349 . S
C1449 C1451 1.327 . S
C1449 H1472 0.950 . S
C1450 C1449 1.349 . S
C1450 C1462 1.349 . S
C1451 C1449 1.327 . S
C1451 C1467 1.429 . S
C1451 H1473 0.950 . S
C1452 H1448 0.949 . S
C1452 C1460 1.574 . S
C1452 C1468 1.368 . S
H1453 C1461 0.950 . S
H1454 C1459 0.950 . S
H1455 C1460 0.949 . S
H1456 C1462 0.950 . S
H1457 C1463 0.950 . S
H1458 C1464 0.949 . S
C1459 H1454 0.950 . S
C1459 C1461 1.327 . S
C1459 C1465 1.429 . S
C1460 C1452 1.574 . S
C1460 H1455 0.949 . S
C1460 C1466 1.368 . S
C1461 C1445 1.349 . S
C1461 H1453 0.950 . S
C1461 C1459 1.327 . S
C1462 C1450 1.349 . S
C1462 H1456 0.950 . S
C1462 C1463 1.327 . S
C1463 H1457 0.950 . S
C1463 C1462 1.327 . S
C1463 C1467 1.429 . S
C1464 C1447 1.574 . S
C1464 H1458 0.949 . S
C1464 C1468 1.368 . S
C1465 C1446 1.429 . S
C1465 C1459 1.429 . S
C1465 C1466 1.523 . S
C1466 C1447 1.368 . S
C1466 C1460 1.368 . S
C1466 C1465 1.523 . S
C1467 C1451 1.429 . S
C1467 C1463 1.429 . S
C1467 C1468 1.523 . S
C1468 C1452 1.368 . S
C1468 C1464 1.368 . S
C1468 C1467 1.523 . S
H1469 C1444 0.950 . S
H1470 C1446 0.950 . S
H1471 C1447 0.949 . S
H1472 C1449 0.950 . S
H1473 C1451 0.950 . S
C1474 C1475 1.349 . S
C1474 C1476 1.327 . S
C1474 H1499 0.950 . S
C1475 C1474 1.349 . S
C1475 C1491 1.349 . S
C1476 C1474 1.327 . S
C1476 C1495 1.429 . S
C1476 H1500 0.950 . S
C1477 C1494 1.574 . S
C1477 C1496 1.368 1_655 S
C1477 H1501 0.949 . S
H1478 C1482 0.949 . S
C1479 C1480 1.349 . S
C1479 C1481 1.327 . S
C1479 H1502 0.950 . S
C1480 C1479 1.349 . S
C1480 C1492 1.349 . S
C1481 C1479 1.327 . S
C1481 C1497 1.429 . S
C1481 H1503 0.950 . S
C1482 H1478 0.949 . S
C1482 C1490 1.574 . S
C1482 C1498 1.368 1_455 S
H1483 C1491 0.950 . S
H1484 C1489 0.950 1_655 S
H1485 C1490 0.949 . S
H1486 C1492 0.950 . S
H1487 C1493 0.950 1_455 S
H1488 C1494 0.949 . S
C1489 H1484 0.950 1_455 S
C1489 C1491 1.327 . S
C1489 C1495 1.429 . S
C1490 C1482 1.574 . S
C1490 H1485 0.949 . S
C1490 C1496 1.368 . S
C1491 C1475 1.349 . S
C1491 H1483 0.950 . S
C1491 C1489 1.327 . S
C1492 C1480 1.349 . S
C1492 H1486 0.950 . S
C1492 C1493 1.327 . S
C1493 H1487 0.950 1_655 S
C1493 C1492 1.327 . S
C1493 C1497 1.429 . S
C1494 C1477 1.574 . S
C1494 H1488 0.949 . S
C1494 C1498 1.368 . S
C1495 C1476 1.429 . S
C1495 C1489 1.429 . S
C1495 C1496 1.523 . S
C1496 C1477 1.368 1_455 S
C1496 C1490 1.368 . S
C1496 C1495 1.523 . S
C1497 C1481 1.429 . S
C1497 C1493 1.429 . S
C1497 C1498 1.523 . S
C1498 C1482 1.368 1_655 S
C1498 C1494 1.368 . S
C1498 C1497 1.523 . S
H1499 C1474 0.950 . S
H1500 C1476 0.950 . S
H1501 C1477 0.949 . S
H1502 C1479 0.950 . S
H1503 C1481 0.950 . S
C1504 C1505 1.349 . S
C1504 C1506 1.327 . S
C1504 H1529 0.950 . S
C1505 C1504 1.349 . S
C1505 C1521 1.349 . S
C1506 C1504 1.327 . S
C1506 C1525 1.429 . S
C1506 H1530 0.950 . S
C1507 C1524 1.574 . S
C1507 C1526 1.368 . S
C1507 H1531 0.949 . S
H1508 C1512 0.949 . S
C1509 C1510 1.349 . S
C1509 C1511 1.327 . S
C1509 H1532 0.950 . S
C1510 C1509 1.349 . S
C1510 C1522 1.349 . S
C1511 C1509 1.327 . S
C1511 C1527 1.429 . S
C1511 H1533 0.950 . S
C1512 H1508 0.949 . S
C1512 C1520 1.574 . S
C1512 C1528 1.368 . S
H1513 C1521 0.950 . S
H1514 C1519 0.950 . S
H1515 C1520 0.949 . S
H1516 C1522 0.950 . S
H1517 C1523 0.950 . S
H1518 C1524 0.949 . S
C1519 H1514 0.950 . S
C1519 C1521 1.327 . S
C1519 C1525 1.429 . S
C1520 C1512 1.574 . S
C1520 H1515 0.949 . S
C1520 C1526 1.368 . S
C1521 C1505 1.349 . S
C1521 H1513 0.950 . S
C1521 C1519 1.327 . S
C1522 C1510 1.349 . S
C1522 H1516 0.950 . S
C1522 C1523 1.327 . S
C1523 H1517 0.950 . S
C1523 C1522 1.327 . S
C1523 C1527 1.429 . S
C1524 C1507 1.574 . S
C1524 H1518 0.949 . S
C1524 C1528 1.368 . S
C1525 C1506 1.429 . S
C1525 C1519 1.429 . S
C1525 C1526 1.523 . S
C1526 C1507 1.368 . S
C1526 C1520 1.368 . S
C1526 C1525 1.523 . S
C1527 C1511 1.429 . S
C1527 C1523 1.429 . S
C1527 C1528 1.523 . S
C1528 C1512 1.368 . S
C1528 C1524 1.368 . S
C1528 C1527 1.523 . S
H1529 C1504 0.950 . S
H1530 C1506 0.950 . S
H1531 C1507 0.949 . S
H1532 C1509 0.950 . S
H1533 C1511 0.950 . S
C1534 C1535 1.349 . S
C1534 C1536 1.327 . S
C1534 H1559 0.950 . S
C1535 C1534 1.349 . S
C1535 C1551 1.349 . S
C1536 C1534 1.327 . S
C1536 C1555 1.429 . S
C1536 H1560 0.950 . S
C1537 C1554 1.574 . S
C1537 C1556 1.368 . S
C1537 H1561 0.949 . S
H1538 C1542 0.949 . S
C1539 C1540 1.349 . S
C1539 C1541 1.327 . S
C1539 H1562 0.950 . S
C1540 C1539 1.349 . S
C1540 C1552 1.349 . S
C1541 C1539 1.327 . S
C1541 C1557 1.429 . S
C1541 H1563 0.950 . S
C1542 H1538 0.949 . S
C1542 C1550 1.574 . S
C1542 C1558 1.368 . S
H1543 C1551 0.950 . S
H1544 C1549 0.950 . S
H1545 C1550 0.949 . S
H1546 C1552 0.950 . S
H1547 C1553 0.950 . S
H1548 C1554 0.949 . S
C1549 H1544 0.950 . S
C1549 C1551 1.327 . S
C1549 C1555 1.429 . S
C1550 C1542 1.574 . S
C1550 H1545 0.949 . S
C1550 C1556 1.368 . S
C1551 C1535 1.349 . S
C1551 H1543 0.950 . S
C1551 C1549 1.327 . S
C1552 C1540 1.349 . S
C1552 H1546 0.950 . S
C1552 C1553 1.327 . S
C1553 H1547 0.950 . S
C1553 C1552 1.327 . S
C1553 C1557 1.429 . S
C1554 C1537 1.574 . S
C1554 H1548 0.949 . S
C1554 C1558 1.368 . S
C1555 C1536 1.429 . S
C1555 C1549 1.429 . S
C1555 C1556 1.523 . S
C1556 C1537 1.368 . S
C1556 C1550 1.368 . S
C1556 C1555 1.523 . S
C1557 C1541 1.429 . S
C1557 C1553 1.429 . S
C1557 C1558 1.523 . S
C1558 C1542 1.368 . S
C1558 C1554 1.368 . S
C1558 C1557 1.523 . S
H1559 C1534 0.950 . S
H1560 C1536 0.950 . S
H1561 C1537 0.949 . S
H1562 C1539 0.950 . S
H1563 C1541 0.950 . S
C1564 C1565 1.349 . S
C1564 C1566 1.327 . S
C1564 H1589 0.950 . S
C1565 C1564 1.349 . S
C1565 C1581 1.349 . S
C1566 C1564 1.327 . S
C1566 C1585 1.429 . S
C1566 H1590 0.950 . S
C1567 C1584 1.574 . S
C1567 C1586 1.368 . S
C1567 H1591 0.949 . S
H1568 C1572 0.949 . S
C1569 C1570 1.349 . S
C1569 C1571 1.327 . S
C1569 H1592 0.950 . S
C1570 C1569 1.349 . S
C1570 C1582 1.349 . S
C1571 C1569 1.327 . S
C1571 C1587 1.429 . S
C1571 H1593 0.950 . S
C1572 H1568 0.949 . S
C1572 C1580 1.574 . S
C1572 C1588 1.368 . S
H1573 C1581 0.950 . S
H1574 C1579 0.950 . S
H1575 C1580 0.949 . S
H1576 C1582 0.950 . S
H1577 C1583 0.950 . S
H1578 C1584 0.949 . S
C1579 H1574 0.950 . S
C1579 C1581 1.327 . S
C1579 C1585 1.429 . S
C1580 C1572 1.574 . S
C1580 H1575 0.949 . S
C1580 C1586 1.368 . S
C1581 C1565 1.349 . S
C1581 H1573 0.950 . S
C1581 C1579 1.327 . S
C1582 C1570 1.349 . S
C1582 H1576 0.950 . S
C1582 C1583 1.327 . S
C1583 H1577 0.950 . S
C1583 C1582 1.327 . S
C1583 C1587 1.429 . S
C1584 C1567 1.574 . S
C1584 H1578 0.949 . S
C1584 C1588 1.368 . S
C1585 C1566 1.429 . S
C1585 C1579 1.429 . S
C1585 C1586 1.523 . S
C1586 C1567 1.368 . S
C1586 C1580 1.368 . S
C1586 C1585 1.523 . S
C1587 C1571 1.429 . S
C1587 C1583 1.429 . S
C1587 C1588 1.523 . S
C1588 C1572 1.368 . S
C1588 C1584 1.368 . S
C1588 C1587 1.523 . S
H1589 C1564 0.950 . S
H1590 C1566 0.950 . S
H1591 C1567 0.949 . S
H1592 C1569 0.950 . S
H1593 C1571 0.950 . S
C1594 C1595 1.349 . S
C1594 C1596 1.327 . S
C1594 H1619 0.950 . S
C1595 C1594 1.349 . S
C1595 C1611 1.349 . S
C1596 C1594 1.327 . S
C1596 C1615 1.429 . S
C1596 H1620 0.950 . S
C1597 C1614 1.574 . S
C1597 C1616 1.368 . S
C1597 H1621 0.949 . S
H1598 C1602 0.949 . S
C1599 C1600 1.349 . S
C1599 C1601 1.327 . S
C1599 H1622 0.950 . S
C1600 C1599 1.349 . S
C1600 C1612 1.349 . S
C1601 C1599 1.327 . S
C1601 C1617 1.429 . S
C1601 H1623 0.950 . S
C1602 H1598 0.949 . S
C1602 C1610 1.574 . S
C1602 C1618 1.368 . S
H1603 C1611 0.950 . S
H1604 C1609 0.950 . S
H1605 C1610 0.949 . S
H1606 C1612 0.950 . S
H1607 C1613 0.950 . S
H1608 C1614 0.949 . S
C1609 H1604 0.950 . S
C1609 C1611 1.327 . S
C1609 C1615 1.429 . S
C1610 C1602 1.574 . S
C1610 H1605 0.949 . S
C1610 C1616 1.368 . S
C1611 C1595 1.349 . S
C1611 H1603 0.950 . S
C1611 C1609 1.327 . S
C1612 C1600 1.349 . S
C1612 H1606 0.950 . S
C1612 C1613 1.327 . S
C1613 H1607 0.950 . S
C1613 C1612 1.327 . S
C1613 C1617 1.429 . S
C1614 C1597 1.574 . S
C1614 H1608 0.949 . S
C1614 C1618 1.368 . S
C1615 C1596 1.429 . S
C1615 C1609 1.429 . S
C1615 C1616 1.523 . S
C1616 C1597 1.368 . S
C1616 C1610 1.368 . S
C1616 C1615 1.523 . S
C1617 C1601 1.429 . S
C1617 C1613 1.429 . S
C1617 C1618 1.523 . S
C1618 C1602 1.368 . S
C1618 C1614 1.368 . S
C1618 C1617 1.523 . S
H1619 C1594 0.950 . S
H1620 C1596 0.950 . S
H1621 C1597 0.949 . S
H1622 C1599 0.950 . S
H1623 C1601 0.950 . S
C1624 C1625 1.349 . S
C1624 C1626 1.327 . S
C1624 H1649 0.950 . S
C1625 C1624 1.349 . S
C1625 C1641 1.349 . S
C1626 C1624 1.327 . S
C1626 C1645 1.429 . S
C1626 H1650 0.950 . S
C1627 C1644 1.574 . S
C1627 C1646 1.368 . S
C1627 H1651 0.949 . S
H1628 C1632 0.949 . S
C1629 C1630 1.349 . S
C1629 C1631 1.327 . S
C1629 H1652 0.950 . S
C1630 C1629 1.349 . S
C1630 C1642 1.349 . S
C1631 C1629 1.327 . S
C1631 C1647 1.429 . S
C1631 H1653 0.950 . S
C1632 H1628 0.949 . S
C1632 C1640 1.574 . S
C1632 C1648 1.368 . S
H1633 C1641 0.950 . S
H1634 C1639 0.950 . S
H1635 C1640 0.949 . S
H1636 C1642 0.950 . S
H1637 C1643 0.950 . S
H1638 C1644 0.949 . S
C1639 H1634 0.950 . S
C1639 C1641 1.327 . S
C1639 C1645 1.429 . S
C1640 C1632 1.574 . S
C1640 H1635 0.949 . S
C1640 C1646 1.368 . S
C1641 C1625 1.349 . S
C1641 H1633 0.950 . S
C1641 C1639 1.327 . S
C1642 C1630 1.349 . S
C1642 H1636 0.950 . S
C1642 C1643 1.327 . S
C1643 H1637 0.950 . S
C1643 C1642 1.327 . S
C1643 C1647 1.429 . S
C1644 C1627 1.574 . S
C1644 H1638 0.949 . S
C1644 C1648 1.368 . S
C1645 C1626 1.429 . S
C1645 C1639 1.429 . S
C1645 C1646 1.523 . S
C1646 C1627 1.368 . S
C1646 C1640 1.368 . S
C1646 C1645 1.523 . S
C1647 C1631 1.429 . S
C1647 C1643 1.429 . S
C1647 C1648 1.523 . S
C1648 C1632 1.368 . S
C1648 C1644 1.368 . S
C1648 C1647 1.523 . S
H1649 C1624 0.950 . S
H1650 C1626 0.950 . S
H1651 C1627 0.949 . S
H1652 C1629 0.950 . S
H1653 C1631 0.950 . S
C1654 C1655 1.349 . S
C1654 C1656 1.327 . S
C1654 H1679 0.950 . S
C1655 C1654 1.349 . S
C1655 C1671 1.349 . S
C1656 C1654 1.327 . S
C1656 C1675 1.429 . S
C1656 H1680 0.950 . S
C1657 C1674 1.574 . S
C1657 C1676 1.368 . S
C1657 H1681 0.949 . S
H1658 C1662 0.949 . S
C1659 C1660 1.349 . S
C1659 C1661 1.327 . S
C1659 H1682 0.950 . S
C1660 C1659 1.349 . S
C1660 C1672 1.349 . S
C1661 C1659 1.327 . S
C1661 C1677 1.429 . S
C1661 H1683 0.950 . S
C1662 H1658 0.949 . S
C1662 C1670 1.574 . S
C1662 C1678 1.368 . S
H1663 C1671 0.950 . S
H1664 C1669 0.950 . S
H1665 C1670 0.949 . S
H1666 C1672 0.950 . S
H1667 C1673 0.950 . S
H1668 C1674 0.949 . S
C1669 H1664 0.950 . S
C1669 C1671 1.327 . S
C1669 C1675 1.429 . S
C1670 C1662 1.574 . S
C1670 H1665 0.949 . S
C1670 C1676 1.368 . S
C1671 C1655 1.349 . S
C1671 H1663 0.950 . S
C1671 C1669 1.327 . S
C1672 C1660 1.349 . S
C1672 H1666 0.950 . S
C1672 C1673 1.327 . S
C1673 H1667 0.950 . S
C1673 C1672 1.327 . S
C1673 C1677 1.429 . S
C1674 C1657 1.574 . S
C1674 H1668 0.949 . S
C1674 C1678 1.368 . S
C1675 C1656 1.429 . S
C1675 C1669 1.429 . S
C1675 C1676 1.523 . S
C1676 C1657 1.368 . S
C1676 C1670 1.368 . S
C1676 C1675 1.523 . S
C1677 C1661 1.429 . S
C1677 C1673 1.429 . S
C1677 C1678 1.523 . S
C1678 C1662 1.368 . S
C1678 C1674 1.368 . S
C1678 C1677 1.523 . S
H1679 C1654 0.950 . S
H1680 C1656 0.950 . S
H1681 C1657 0.949 . S
H1682 C1659 0.950 . S
H1683 C1661 0.950 . S
C1684 C1685 1.349 . S
C1684 C1686 1.327 . S
C1684 H1709 0.950 . S
C1685 C1684 1.349 . S
C1685 C1701 1.349 . S
C1686 C1684 1.327 . S
C1686 C1705 1.429 . S
C1686 H1710 0.950 . S
C1687 C1704 1.574 . S
C1687 C1706 1.368 . S
C1687 H1711 0.949 . S
H1688 C1692 0.949 . S
C1689 C1690 1.349 . S
C1689 C1691 1.327 . S
C1689 H1712 0.950 . S
C1690 C1689 1.349 . S
C1690 C1702 1.349 . S
C1691 C1689 1.327 . S
C1691 C1707 1.429 . S
C1691 H1713 0.950 . S
C1692 H1688 0.949 . S
C1692 C1700 1.574 . S
C1692 C1708 1.368 . S
H1693 C1701 0.950 . S
H1694 C1699 0.950 . S
H1695 C1700 0.949 . S
H1696 C1702 0.950 . S
H1697 C1703 0.950 . S
H1698 C1704 0.949 . S
C1699 H1694 0.950 . S
C1699 C1701 1.327 . S
C1699 C1705 1.429 . S
C1700 C1692 1.574 . S
C1700 H1695 0.949 . S
C1700 C1706 1.368 . S
C1701 C1685 1.349 . S
C1701 H1693 0.950 . S
C1701 C1699 1.327 . S
C1702 C1690 1.349 . S
C1702 H1696 0.950 . S
C1702 C1703 1.327 . S
C1703 H1697 0.950 . S
C1703 C1702 1.327 . S
C1703 C1707 1.429 . S
C1704 C1687 1.574 . S
C1704 H1698 0.949 . S
C1704 C1708 1.368 . S
C1705 C1686 1.429 . S
C1705 C1699 1.429 . S
C1705 C1706 1.523 . S
C1706 C1687 1.368 . S
C1706 C1700 1.368 . S
C1706 C1705 1.523 . S
C1707 C1691 1.429 . S
C1707 C1703 1.429 . S
C1707 C1708 1.523 . S
C1708 C1692 1.368 . S
C1708 C1704 1.368 . S
C1708 C1707 1.523 . S
H1709 C1684 0.950 . S
H1710 C1686 0.950 . S
H1711 C1687 0.949 . S
H1712 C1689 0.950 . S
H1713 C1691 0.950 . S
C1714 C1715 1.349 . S
C1714 C1716 1.327 . S
C1714 H1739 0.950 . S
C1715 C1714 1.349 . S
C1715 C1731 1.349 . S
C1716 C1714 1.327 . S
C1716 C1735 1.429 . S
C1716 H1740 0.950 . S
C1717 C1734 1.574 . S
C1717 C1736 1.368 . S
C1717 H1741 0.949 . S
H1718 C1722 0.949 . S
C1719 C1720 1.349 . S
C1719 C1721 1.327 . S
C1719 H1742 0.950 . S
C1720 C1719 1.349 . S
C1720 C1732 1.349 . S
C1721 C1719 1.327 . S
C1721 C1737 1.429 . S
C1721 H1743 0.950 . S
C1722 H1718 0.949 . S
C1722 C1730 1.574 . S
C1722 C1738 1.368 . S
H1723 C1731 0.950 . S
H1724 C1729 0.950 . S
H1725 C1730 0.949 . S
H1726 C1732 0.950 . S
H1727 C1733 0.950 . S
H1728 C1734 0.949 . S
C1729 H1724 0.950 . S
C1729 C1731 1.327 . S
C1729 C1735 1.429 . S
C1730 C1722 1.574 . S
C1730 H1725 0.949 . S
C1730 C1736 1.368 . S
C1731 C1715 1.349 . S
C1731 H1723 0.950 . S
C1731 C1729 1.327 . S
C1732 C1720 1.349 . S
C1732 H1726 0.950 . S
C1732 C1733 1.327 . S
C1733 H1727 0.950 . S
C1733 C1732 1.327 . S
C1733 C1737 1.429 . S
C1734 C1717 1.574 . S
C1734 H1728 0.949 . S
C1734 C1738 1.368 . S
C1735 C1716 1.429 . S
C1735 C1729 1.429 . S
C1735 C1736 1.523 . S
C1736 C1717 1.368 . S
C1736 C1730 1.368 . S
C1736 C1735 1.523 . S
C1737 C1721 1.429 . S
C1737 C1733 1.429 . S
C1737 C1738 1.523 . S
C1738 C1722 1.368 . S
C1738 C1734 1.368 . S
C1738 C1737 1.523 . S
H1739 C1714 0.950 . S
H1740 C1716 0.950 . S
H1741 C1717 0.949 . S
H1742 C1719 0.950 . S
H1743 C1721 0.950 . S
C545 C9 0.676 . S
C550 C67 0.618 . S
C575 C101 0.618 . S
C580 C43 0.676 . S
C605 C135 0.618 . S
C610 C77 0.676 . S
C635 C111 0.676 . S
C640 C33 0.618 . S
C665 C271 0.618 . S
C670 C145 0.676 . S
C695 C169 0.618 . S
C700 C179 0.676 . S
C725 C203 0.618 . S
C730 C213 0.676 . S
C755 C247 0.676 . S
C760 C237 0.618 . S
C785 C281 0.676 . S
C790 C339 0.618 . S
C815 C315 0.676 . S
C820 C373 0.618 . S
C845 C407 0.618 . S
C850 C349 0.676 . S
C875 C305 0.618 . S
C880 C383 0.676 . S
C905 C543 0.618 . S
C910 C417 0.676 . S
C935 C441 0.618 . S
C940 C451 0.676 . S
C965 C485 0.676 . S
C970 C475 0.618 . S
C995 C519 0.676 . S
C1000 C509 0.618 . S
C1025 C5 2.228 . S
C1030 C73 2.228 . S
C1055 C39 2.228 . S
C1060 C107 2.228 . S
C1085 C209 2.228 . S
C1090 C141 2.228 . S
C1115 C243 2.228 . S
C1120 C175 2.228 . S
C1145 C345 2.228 . S
C1150 C277 2.228 . S
C1175 C311 2.228 . S
C1180 C379 2.228 . S
C1205 C413 2.228 . S
C1210 C481 2.228 . S
C1235 C447 2.228 . S
C1240 C515 2.228 . S
C1265 C20 1.794 . S
C1270 C292 1.794 . S
C1295 C54 1.794 . S
C1300 C326 1.794 . S
C1325 C88 1.794 . S
C1330 C360 1.794 . S
C1355 C394 1.794 . S
C1360 C122 1.794 . S
C1385 C428 1.794 . S
C1390 C156 1.794 . S
C1415 C190 1.794 . S
C1420 C462 1.794 . S
C1445 C224 1.794 . S
C1450 C496 1.794 . S
C1475 C530 1.794 . S
C1480 C258 1.794 . S
C1505 C172 1.637 . S
C1510 C2 1.637 . S
C1535 C206 1.637 . S
C1540 C36 1.637 . S
C1565 C70 1.637 . S
C1570 C240 1.637 . S
C1595 C138 1.637 . S
C1600 C104 1.637 . S
C1625 C274 1.637 . S
C1630 C444 1.637 . S
C1655 C478 1.637 . S
C1660 C308 1.637 . S
C1685 C512 1.637 . S
C1690 C342 1.637 . S
C1715 C376 1.637 . S
C1720 C410 1.637 . S
