# Generated by pormake.
# Topology yfb, (5)-cn, num edge types: 1
# Building blocks:
#     Node 0, Type 0, BuildingBlock: XOMCOT_clean_sbu_1, # of connection points: 5
#     Node 1, Type 0, BuildingBlock: XOMCOT_clean_sbu_1, # of connection points: 5
#     Node 2, Type 0, BuildingBlock: XOMCOT_clean_sbu_1, # of connection points: 5
#     Node 3, Type 0, BuildingBlock: XOMCOT_clean_sbu_1, # of connection points: 5
#     Node 4, Type 0, BuildingBlock: XOMCOT_clean_sbu_1, # of connection points: 5
#     Node 5, Type 0, BuildingBlock: XOMCOT_clean_sbu_1, # of connection points: 5
#     Node 6, Type 0, BuildingBlock: XOMCOT_clean_sbu_1, # of connection points: 5
#     Node 7, Type 0, BuildingBlock: XOMCOT_clean_sbu_1, # of connection points: 5
#     Node 8, Type 0, BuildingBlock: XOMCOT_clean_sbu_1, # of connection points: 5
#     Node 9, Type 0, BuildingBlock: XOMCOT_clean_sbu_1, # of connection points: 5
#     Node 10, Type 0, BuildingBlock: XOMCOT_clean_sbu_1, # of connection points: 5
#     Node 11, Type 0, BuildingBlock: XOMCOT_clean_sbu_1, # of connection points: 5
#     Node 12, Type 0, BuildingBlock: XOMCOT_clean_sbu_1, # of connection points: 5
#     Node 13, Type 0, BuildingBlock: XOMCOT_clean_sbu_1, # of connection points: 5
#     Node 14, Type 0, BuildingBlock: XOMCOT_clean_sbu_1, # of connection points: 5
#     Node 15, Type 0, BuildingBlock: XOMCOT_clean_sbu_1, # of connection points: 5
#     Edge 16, Type (0, 0), BuildingBlock: EZIPEK_clean_linker_0, # of connection points: 2
#     Edge 17, Type (0, 0), BuildingBlock: EZIPEK_clean_linker_0, # of connection points: 2
#     Edge 18, Type (0, 0), BuildingBlock: EZIPEK_clean_linker_0, # of connection points: 2
#     Edge 19, Type (0, 0), BuildingBlock: EZIPEK_clean_linker_0, # of connection points: 2
#     Edge 20, Type (0, 0), BuildingBlock: EZIPEK_clean_linker_0, # of connection points: 2
#     Edge 21, Type (0, 0), BuildingBlock: EZIPEK_clean_linker_0, # of connection points: 2
#     Edge 22, Type (0, 0), BuildingBlock: EZIPEK_clean_linker_0, # of connection points: 2
#     Edge 23, Type (0, 0), BuildingBlock: EZIPEK_clean_linker_0, # of connection points: 2
#     Edge 24, Type (0, 0), BuildingBlock: EZIPEK_clean_linker_0, # of connection points: 2
#     Edge 25, Type (0, 0), BuildingBlock: EZIPEK_clean_linker_0, # of connection points: 2
#     Edge 26, Type (0, 0), BuildingBlock: EZIPEK_clean_linker_0, # of connection points: 2
#     Edge 27, Type (0, 0), BuildingBlock: EZIPEK_clean_linker_0, # of connection points: 2
#     Edge 28, Type (0, 0), BuildingBlock: EZIPEK_clean_linker_0, # of connection points: 2
#     Edge 29, Type (0, 0), BuildingBlock: EZIPEK_clean_linker_0, # of connection points: 2
#     Edge 30, Type (0, 0), BuildingBlock: EZIPEK_clean_linker_0, # of connection points: 2
#     Edge 31, Type (0, 0), BuildingBlock: EZIPEK_clean_linker_0, # of connection points: 2
#     Edge 32, Type (0, 0), BuildingBlock: EZIPEK_clean_linker_0, # of connection points: 2
#     Edge 33, Type (0, 0), BuildingBlock: EZIPEK_clean_linker_0, # of connection points: 2
#     Edge 34, Type (0, 0), BuildingBlock: EZIPEK_clean_linker_0, # of connection points: 2
#     Edge 35, Type (0, 0), BuildingBlock: EZIPEK_clean_linker_0, # of connection points: 2
#     Edge 36, Type (0, 0), BuildingBlock: EZIPEK_clean_linker_0, # of connection points: 2
#     Edge 37, Type (0, 0), BuildingBlock: EZIPEK_clean_linker_0, # of connection points: 2
#     Edge 38, Type (0, 0), BuildingBlock: EZIPEK_clean_linker_0, # of connection points: 2
#     Edge 39, Type (0, 0), BuildingBlock: EZIPEK_clean_linker_0, # of connection points: 2
#     Edge 40, Type (0, 0), BuildingBlock: EZIPEK_clean_linker_0, # of connection points: 2
#     Edge 41, Type (0, 0), BuildingBlock: EZIPEK_clean_linker_0, # of connection points: 2
#     Edge 42, Type (0, 0), BuildingBlock: EZIPEK_clean_linker_0, # of connection points: 2
#     Edge 43, Type (0, 0), BuildingBlock: EZIPEK_clean_linker_0, # of connection points: 2
#     Edge 44, Type (0, 0), BuildingBlock: EZIPEK_clean_linker_0, # of connection points: 2
#     Edge 45, Type (0, 0), BuildingBlock: EZIPEK_clean_linker_0, # of connection points: 2
#     Edge 46, Type (0, 0), BuildingBlock: EZIPEK_clean_linker_0, # of connection points: 2
#     Edge 47, Type (0, 0), BuildingBlock: EZIPEK_clean_linker_0, # of connection points: 2
#     Edge 48, Type (0, 0), BuildingBlock: EZIPEK_clean_linker_0, # of connection points: 2
#     Edge 49, Type (0, 0), BuildingBlock: EZIPEK_clean_linker_0, # of connection points: 2
#     Edge 50, Type (0, 0), BuildingBlock: EZIPEK_clean_linker_0, # of connection points: 2
#     Edge 51, Type (0, 0), BuildingBlock: EZIPEK_clean_linker_0, # of connection points: 2
#     Edge 52, Type (0, 0), BuildingBlock: EZIPEK_clean_linker_0, # of connection points: 2
#     Edge 53, Type (0, 0), BuildingBlock: EZIPEK_clean_linker_0, # of connection points: 2
#     Edge 54, Type (0, 0), BuildingBlock: EZIPEK_clean_linker_0, # of connection points: 2
#     Edge 55, Type (0, 0), BuildingBlock: EZIPEK_clean_linker_0, # of connection points: 2
# Relax obj value: 0.755
# Max RMSD: 0.276
# Mean RMSD: 0.276
data_MOF--net-yfb--node1-XOMCOT_clean_sbu_1--edge1-EZIPEK_clean_linker_0
_symmetry_space_group_name_H-M    P1
_symmetry_Int_Tables_number       1
_symmetry_cell_setting            triclinic
loop_
_symmetry_equiv_pos_as_xyz
'x, y, z'
_cell_length_a     32.883194
_cell_length_b     32.69087
_cell_length_c     30.461137
_cell_angle_alpha  90.399628
_cell_angle_beta   89.862636
_cell_angle_gamma 90.361794
loop_
_atom_site_label
_atom_site_type_symbol
_atom_site_fract_x
_atom_site_fract_y
_atom_site_fract_z
_atom_type_partial_charge
C0 C 0.64236 0.98372 0.11455 0.0
C1 C 0.60889 0.96543 0.09452 0.0
N2 N 0.57699 0.99077 0.09854 0.0
N3 N 0.63229 0.02149 0.12952 0.0
C4 C 0.59141 0.02249 0.12241 0.0
H5 H 0.67312 0.97247 0.11198 0.0
Co6 Co 0.66412 0.07221 0.12861 0.0
C7 C 0.59901 0.11719 0.11904 0.0
O8 O 0.61209 0.10871 0.07919 0.0
N9 N 0.69185 0.12257 0.1252 0.0
C10 C 0.71943 0.17798 0.09494 0.0
C11 C 0.71076 0.13726 0.08916 0.0
C12 C 0.68849 0.15544 0.15218 0.0
N13 N 0.70467 0.18948 0.13424 0.0
O14 O 0.68735 0.06464 0.18952 0.0
H15 H 0.71471 0.12047 0.05901 0.0
H16 H 0.67114 0.15537 0.1824 0.0
O17 O 0.61801 0.1017 0.15151 0.0
C18 C 0.70889 0.03661 0.20743 0.0
O19 O 0.71563 1.00253 0.18559 0.0
N20 N 0.7092 0.04631 0.10015 0.0
C21 C 0.76763 0.05182 1.03403 0.0
C22 C 0.73023 0.0329 1.02561 0.0
C23 C 0.70056 0.03314 0.05848 0.0
C24 C 0.74859 0.05569 0.1109 0.0
C25 C 0.77811 0.05983 0.0779 0.0
H26 H 0.66953 0.02818 0.04876 0.0
H27 H 0.7559 0.0674 0.14302 0.0
H28 H 0.57219 0.04737 0.13163 0.0
H29 H 0.60926 0.938 0.07441 0.0
H30 H 0.73134 0.19857 0.07027 0.0
H31 H 0.72161 0.02496 0.9923 0.0
H32 H 0.80728 0.0735 0.08595 0.0
C33 C 0.52766 0.63122 0.12886 0.0
C34 C 0.54353 0.5962 0.10972 0.0
N35 N 0.51234 0.57228 0.09678 0.0
N36 N 0.48658 0.63001 0.12713 0.0
C37 C 0.47859 0.59281 0.1086 0.0
H38 H 0.54508 0.65765 0.13946 0.0
Co39 Co 0.45325 0.67773 0.13467 0.0
C40 C 0.38316 0.62027 0.11236 0.0
O41 O 0.3958 0.61589 0.07168 0.0
N42 N 0.42212 0.72464 0.14209 0.0
C43 C 0.39585 0.78562 0.13145 0.0
C44 C 0.42807 0.76069 0.12213 0.0
C45 C 0.38722 0.72899 0.16488 0.0
N46 N 0.36991 0.76611 0.15911 0.0
O47 O 0.46045 0.67846 0.19906 0.0
H48 H 0.45299 0.76738 0.10009 0.0
H49 H 0.3739 0.70394 0.18272 0.0
O50 O 0.40293 0.64284 0.13981 0.0
C51 C 0.48262 0.7084 0.21316 0.0
O52 O 0.50611 0.72748 0.18489 0.0
N53 N 0.44793 0.68316 0.07251 0.0
C54 C 0.44724 0.73547 1.00103 0.0
C55 C 0.41072 0.72183 1.01953 0.0
C56 C 0.41169 0.6958 0.05532 0.0
C57 C 0.4831 0.69036 0.04974 0.0
C58 C 0.48324 0.71574 1.01286 0.0
H59 H 0.38381 0.69234 0.07355 0.0
H60 H 0.51199 0.68146 0.06316 0.0
H61 H 0.44915 0.5809 0.10125 0.0
H62 H 0.57529 0.59009 0.10317 0.0
H63 H 0.39082 0.81468 0.11574 0.0
H64 H 0.3821 0.73604 1.01108 0.0
H65 H 0.5119 0.72398 0.99765 0.0
C66 C 0.86606 0.50373 0.14827 0.0
C67 C 0.904 0.51663 0.13362 0.0
N68 N 0.9196 0.48709 0.10763 0.0
N69 N 0.85789 0.46629 0.13137 0.0
C70 C 0.89154 0.45693 0.10755 0.0
H71 H 0.84495 0.52181 0.1673 0.0
Co72 Co 0.81039 0.43364 0.12642 0.0
C73 C 0.85064 0.36531 0.1295 0.0
O74 O 0.84341 0.37196 0.08775 0.0
N75 N 0.76528 0.39969 0.11975 0.0
C76 C 0.7203 0.35846 0.0888 0.0
C77 C 0.74959 0.38744 0.08115 0.0
C78 C 0.74531 0.37765 0.15038 0.0
N79 N 0.71726 0.35192 0.13257 0.0
O80 O 0.78578 0.45368 0.18253 0.0
H81 H 0.76038 0.39741 0.04939 0.0
H82 H 0.75394 0.37866 0.18438 0.0
O83 O 0.83742 0.39088 0.15779 0.0
C84 C 0.76855 0.48504 0.19972 0.0
O85 O 0.76588 0.51796 0.17559 0.0
N86 N 0.78494 0.47339 0.0908 0.0
C87 C 0.74519 0.50008 1.0145 0.0
C88 C 0.78765 0.49674 1.01612 0.0
C89 C 0.80648 0.48221 0.05371 0.0
C90 C 0.74423 0.48128 0.09214 0.0
C91 C 0.72381 0.49418 0.05441 0.0
H92 H 0.83771 0.47334 0.05059 0.0
H93 H 0.72631 0.47211 0.12024 0.0
H94 H 0.8939 0.43012 0.08679 0.0
H95 H 0.91774 0.54638 0.13913 0.0
H96 H 0.70502 0.34096 0.06341 0.0
H97 H 0.8067 0.50134 0.98788 0.0
H98 H 0.69097 0.49508 0.05587 0.0
C99 C 0.02323 0.89158 0.13419 0.0
C100 C 0.00507 0.92719 0.11931 0.0
N101 N 0.03056 0.94529 0.09054 0.0
N102 N 0.05982 0.88732 0.1145 0.0
C103 C 0.0633 0.92083 0.08872 0.0
H104 H 0.01009 0.8701 0.15702 0.0
Co105 Co 0.10238 0.84901 0.11204 0.0
C106 C 0.15968 0.90805 0.12872 0.0
O107 O 0.16189 0.90541 0.08575 0.0
N108 N 0.14703 0.81452 0.10672 0.0
C109 C 0.20201 0.78722 0.07605 0.0
C110 C 0.16425 0.80344 0.06823 0.0
C111 C 0.17474 0.80482 0.13745 0.0
N112 N 0.20857 0.78855 0.11962 0.0
O113 O 0.08473 0.81784 0.16624 0.0
H114 H 0.15172 0.81033 1.0364 0.0
H115 H 0.17163 0.81258 0.17181 0.0
O116 O 0.13442 0.88524 0.14894 0.0
C117 C 0.05471 0.79467 0.1775 0.0
O118 O 0.0235 0.7906 0.15096 0.0
N119 N 0.07165 0.81416 0.07332 0.0
C120 C 0.03718 0.76332 1.00865 0.0
C121 C 0.03302 0.80578 1.00643 0.0
C122 C 0.05167 0.83063 1.03827 0.0
C123 C 0.07432 0.77263 0.07661 0.0
C124 C 0.05771 0.74689 0.04471 0.0
H125 H 0.05116 0.86312 1.03337 0.0
H126 H 0.0911 0.75897 0.10291 0.0
H127 H 0.08878 0.92619 0.06697 0.0
H128 H 0.97521 0.93836 0.12809 0.0
H129 H 0.22456 0.77924 0.05151 0.0
H130 H 0.01657 0.81987 0.97987 0.0
H131 H 0.06216 0.71419 0.0475 0.0
C132 C 0.57508 0.49374 0.4134 0.0
C133 C 0.54095 0.50969 0.43426 0.0
N134 N 0.54323 0.50112 0.47746 0.0
N135 N 0.59937 0.4764 0.44365 0.0
C136 C 0.57909 0.48193 0.48201 0.0
H137 H 0.57916 0.49094 0.37829 0.0
Co138 Co 0.63754 0.43377 0.44352 0.0
C139 C 0.58156 0.3815 0.47178 0.0
O140 O 0.60062 0.39401 0.5073 0.0
N141 N 0.67254 0.38966 0.44969 0.0
C142 C 0.70882 0.34653 0.48921 0.0
C143 C 0.68859 0.38287 0.48965 0.0
C144 C 0.68308 0.35657 0.42542 0.0
N145 N 0.70587 0.33018 0.44873 0.0
O146 O 0.65 0.43744 0.37767 0.0
H147 H 0.68456 0.40275 0.51781 0.0
H148 H 0.67245 0.35062 0.39251 0.0
O149 O 0.59324 0.39554 0.43475 0.0
C150 C 0.66243 0.46877 0.35559 0.0
O151 O 0.66095 0.50485 0.37484 0.0
N152 N 0.68184 0.46991 0.45605 0.0
C153 C 0.7542 0.4861 0.49945 0.0
C154 C 0.71775 0.50258 0.51542 0.0
C155 C 0.68137 0.49311 0.49355 0.0
C156 C 0.71819 0.46172 0.43595 0.0
C157 C 0.75468 0.4697 0.45704 0.0
H158 H 0.65315 0.5 0.50988 0.0
H159 H 0.71964 0.44229 0.40741 0.0
H160 H 0.5886 0.46852 0.51261 0.0
H161 H 0.51475 0.52284 0.41833 0.0
H162 H 0.72441 0.33273 0.51652 0.0
H163 H 0.71662 0.51727 0.54737 0.0
H164 H 0.78231 0.45702 0.44321 0.0
C165 C 0.99814 0.64287 0.43444 0.0
C166 C 0.98127 0.61005 0.457 0.0
N167 N 0.01173 0.58771 0.47377 0.0
N168 N 0.03908 0.64123 0.43689 0.0
C169 C 0.04608 0.60701 0.46091 0.0
H170 H 0.98153 0.66761 0.41956 0.0
Co171 Co 0.07808 0.68281 0.42303 0.0
C172 C 0.15403 0.64376 0.4501 0.0
O173 O 0.16222 0.67779 0.47171 0.0
N174 N 0.11877 0.72382 0.40907 0.0
C175 C 0.15487 0.78096 0.39993 0.0
C176 C 0.11939 0.7646 0.41613 0.0
C177 C 0.15391 0.71699 0.38659 0.0
N178 N 0.17691 0.75119 0.38039 0.0
O179 O 0.07218 0.67437 0.35936 0.0
H180 H 0.09608 0.78219 0.43226 0.0
H181 H 0.16279 0.68677 0.37644 0.0
O182 O 0.12112 0.64131 0.42802 0.0
C183 C 0.05386 0.70598 0.34416 0.0
O184 O 0.03785 0.73135 0.37296 0.0
N185 N 0.07907 0.69667 0.48352 0.0
C186 C 0.07651 0.73535 0.56541 0.0
C187 C 0.08837 0.69423 0.56187 0.0
C188 C 0.09029 0.67555 0.52024 0.0
C189 C 0.05989 0.7331 0.4883 0.0
C190 C 0.06041 0.75401 0.52805 0.0
H191 H 0.10164 0.64476 0.51791 0.0
H192 H 0.04537 0.74683 0.46033 0.0
H193 H 0.07565 0.59757 0.47177 0.0
H194 H 0.94922 0.60411 0.46229 0.0
H195 H 0.16424 0.81242 0.40468 0.0
H196 H 0.09794 0.67742 0.59052 0.0
H197 H 0.04878 0.78494 0.52921 0.0
C198 C 0.90319 1.00686 0.41718 0.0
C199 C 0.9386 0.99061 0.43478 0.0
N200 N 0.94863 0.01264 0.47077 0.0
N201 N 0.89079 0.03846 0.44263 0.0
C202 C 0.91973 0.04134 0.47415 0.0
H203 H 0.88799 0.99619 0.38785 0.0
Co204 Co 0.84945 0.0779 0.44741 0.0
C205 C 0.90314 0.13991 0.44826 0.0
O206 O 0.89472 0.13497 0.49006 0.0
N207 N 0.81197 0.11932 0.45655 0.0
C208 C 0.77569 0.16468 0.4941 0.0
C209 C 0.79803 0.1296 0.49683 0.0
C210 C 0.79864 0.14914 0.42985 0.0
N211 N 0.77644 0.17698 0.45211 0.0
O212 O 0.82267 0.06582 0.38893 0.0
H213 H 0.80543 0.1136 0.52664 0.0
H214 H 0.80694 0.15172 0.39558 0.0
O215 O 0.8855 0.11694 0.4201 0.0
C216 C 0.80692 0.03458 0.36925 0.0
O217 O 0.81118 0.99827 0.3868 0.0
N218 N 0.81432 0.0406 0.47755 0.0
C219 C 0.76116 0.02257 0.5459 0.0
C220 C 0.80213 0.01207 0.54908 0.0
C221 C 0.82852 0.0226 0.51491 0.0
C222 C 0.77328 0.04281 0.4708 0.0
C223 C 0.74614 0.03475 0.50504 0.0
H224 H 0.86046 0.0207 0.52144 0.0
H225 H 0.76153 0.05748 0.44186 0.0
H226 H 0.91868 0.06333 0.50078 0.0
H227 H 0.95538 0.96459 0.42237 0.0
H228 H 0.76232 0.18152 0.52121 0.0
H229 H 0.81447 1.00135 0.57984 0.0
H230 H 0.71431 0.04219 0.50104 0.0
C231 C 0.52284 0.83075 0.49882 0.0
C232 C 0.54027 0.86451 0.51933 0.0
N233 N 0.51473 0.89646 0.51572 0.0
N234 N 0.48657 0.84128 0.4818 0.0
C235 C 0.4837 0.88193 0.49089 0.0
H236 H 0.53372 0.79966 0.50068 0.0
Co237 Co 0.44218 0.80528 0.46918 0.0
C238 C 0.37252 0.85514 0.49966 0.0
O239 O 0.36388 0.82632 0.52799 0.0
N240 N 0.39473 0.77148 0.45633 0.0
C241 C 0.33479 0.7391 0.46158 0.0
C242 C 0.37077 0.74799 0.48247 0.0
C243 C 0.37196 0.77553 0.41934 0.0
N244 N 0.33529 0.75698 0.42206 0.0
O245 O 0.45152 0.81127 0.40579 0.0
H246 H 0.37629 0.74076 0.51636 0.0
H247 H 0.38073 0.79398 0.39175 0.0
O248 O 0.40344 0.85158 0.4741 0.0
C249 C 0.46481 0.77658 0.39157 0.0
O250 O 0.4688 0.74748 0.42078 0.0
N251 N 0.44025 0.79263 0.52945 0.0
C252 C 0.45198 0.76001 0.61337 0.0
C253 C 0.44745 0.80244 0.60759 0.0
C254 C 0.44113 0.81814 0.56524 0.0
C255 C 0.4499 0.75255 0.53425 0.0
C256 C 0.45344 0.73532 0.57545 0.0
H257 H 0.43817 0.85073 0.56118 0.0
H258 H 0.45333 0.73324 0.50556 0.0
H259 H 0.45802 0.90027 0.48198 0.0
H260 H 0.56747 0.86442 0.53929 0.0
H261 H 0.30899 0.72324 0.47568 0.0
H262 H 0.44986 0.82364 0.63476 0.0
H263 H 0.45751 0.70252 0.57726 0.0
C264 C 0.37276 0.03113 0.96866 0.0
C265 C 0.40967 0.04316 0.987 0.0
N266 N 0.43153 0.00939 0.99525 0.0
N267 N 0.37128 0.98989 0.96543 0.0
C268 C 0.40808 0.97803 0.98134 0.0
H269 H 0.34713 0.05089 0.96272 0.0
Co270 Co 0.3243 0.95509 0.96467 0.0
C271 C 0.36538 0.87575 0.98662 0.0
O272 O 0.33914 0.86618 1.01751 0.0
N273 N 0.27899 0.91739 0.96654 0.0
C274 C 0.22893 0.87841 0.99312 0.0
C275 C 0.24925 0.91499 0.99721 0.0
C276 C 0.27444 0.88214 0.94297 0.0
N277 N 0.24489 0.85733 0.95923 0.0
O278 O 0.32186 0.95427 0.90006 0.0
H279 H 0.24356 0.93695 1.02297 0.0
H280 H 0.29427 0.87346 0.91632 0.0
O281 O 0.36118 0.90847 0.96474 0.0
C282 C 0.28882 0.97123 0.88694 0.0
O283 O 0.26431 0.98611 0.91714 0.0
N284 N 0.32112 0.96299 1.02556 0.0
C285 C 0.28774 0.98386 0.10736 0.0
C286 C 0.32075 0.95653 0.10381 0.0
C287 C 0.33673 0.94604 0.06249 0.0
C288 C 0.29569 0.9955 1.02927 0.0
C289 C 0.27825 1.00607 0.0693 0.0
H290 H 0.36051 0.92395 0.06075 0.0
H291 H 0.28546 0.01066 0.9999 0.0
H292 H 0.41679 0.94685 0.98687 0.0
H293 H 0.41832 0.07392 0.99669 0.0
H294 H 0.20505 0.8674 1.01458 0.0
H295 H 0.33313 0.94161 0.13196 0.0
H296 H 0.25476 0.02892 0.0685 0.0
C297 C 0.51627 0.37969 0.93601 0.0
C298 C 0.49633 0.41339 0.9538 0.0
N299 N 0.52125 0.43169 0.98314 0.0
N300 N 0.55337 0.37659 0.95461 0.0
C301 C 0.5552 0.4089 0.98276 0.0
H302 H 0.50416 0.35899 0.91151 0.0
Co303 Co 0.59906 0.34161 0.95271 0.0
C304 C 0.64996 0.40484 0.94663 0.0
O305 O 0.65321 0.3934 0.98772 0.0
N306 N 0.64716 0.31031 0.95354 0.0
C307 C 0.70277 0.28115 0.98056 0.0
C308 C 0.66377 0.29348 0.98965 0.0
C309 C 0.6771 0.30845 0.92301 0.0
N310 N 0.71116 0.29092 0.93874 0.0
O311 O 0.58315 0.31294 0.89568 0.0
H312 H 0.64949 0.2928 1.02148 0.0
H313 H 0.67513 0.32247 0.89103 0.0
O314 O 0.62747 0.38389 0.92079 0.0
C315 C 0.55407 0.28837 0.88455 0.0
O316 O 0.52383 0.28233 0.91205 0.0
N317 N 0.5714 0.3017 0.98815 0.0
C318 C 0.54421 0.24694 0.05239 0.0
C319 C 0.53384 0.28815 0.05478 0.0
C320 C 0.54954 0.31517 1.02371 0.0
C321 C 0.5778 0.2607 0.98291 0.0
C322 C 0.56538 0.23307 1.01506 0.0
H323 H 0.54559 0.34709 1.03016 0.0
H324 H 0.59515 0.24935 0.9554 0.0
H325 H 0.58076 0.41494 1.00412 0.0
H326 H 0.46597 0.42355 0.9459 0.0
H327 H 0.72447 0.26929 1.00385 0.0
H328 H 0.51554 0.29992 0.08155 0.0
H329 H 0.57358 0.20116 1.01146 0.0
C330 C 0.10311 0.49959 0.93866 0.0
C331 C 0.06963 0.47861 0.95543 0.0
N332 N 0.05676 0.49853 0.99172 0.0
N333 N 0.11127 0.53221 0.96475 0.0
C334 C 0.08218 0.53055 0.99624 0.0
H335 H 0.11887 0.49246 0.90844 0.0
Co336 Co 0.14442 0.57926 0.96472 0.0
C337 C 0.07978 0.62784 0.96168 0.0
O338 O 0.08805 0.6261 1.0038 0.0
N339 N 0.17376 0.62849 0.96923 0.0
C340 C 0.20037 0.68135 1.00579 0.0
C341 C 0.18505 0.64252 1.00923 0.0
C342 C 0.18114 0.66025 0.94191 0.0
N343 N 0.19774 0.69251 0.96362 0.0
O344 O 0.17092 0.56582 0.90619 0.0
H345 H 0.18054 0.6261 1.03949 0.0
H346 H 0.17281 0.66054 0.90758 0.0
O347 O 0.1021 0.60785 0.93506 0.0
C348 C 0.19322 0.53594 0.89276 0.0
O349 O 0.19965 0.50527 0.91948 0.0
N350 N 0.18596 0.55248 0.99708 0.0
C351 C 0.24526 0.54622 0.0616 0.0
C352 C 0.20555 0.53302 0.07011 0.0
C353 C 0.17609 0.5369 1.03736 0.0
C354 C 0.22584 0.56023 0.98701 0.0
C355 C 0.25594 0.55704 1.01878 0.0
H356 H 0.14486 0.53207 0.04657 0.0
H357 H 0.23402 0.57444 0.95635 0.0
H358 H 0.07917 0.55306 1.02216 0.0
H359 H 0.05499 0.45192 0.94119 0.0
H360 H 0.21096 0.7007 1.03246 0.0
H361 H 0.1964 0.52473 0.10307 0.0
H362 H 0.28644 0.56772 1.01129 0.0
C363 C 0.03646 0.14097 0.94165 0.0
C364 C 0.05102 0.10601 0.96155 0.0
N365 N 0.01921 0.08522 0.97838 0.0
N366 N 0.99563 0.14228 0.94595 0.0
C367 C 0.98624 0.10758 0.96824 0.0
H368 H 0.05471 0.16518 0.92749 0.0
Co369 Co 0.96195 0.18813 0.93574 0.0
C370 C 0.87887 0.15407 0.9508 0.0
O371 O 0.87055 0.18739 0.97334 0.0
N372 N 0.92809 0.23523 0.92533 0.0
C373 C 0.90493 0.299 0.92581 0.0
C374 C 0.93666 0.27427 0.93657 0.0
C375 C 0.89183 0.23826 0.90423 0.0
N376 N 0.87614 0.27676 0.90475 0.0
O377 O 0.96992 0.18467 0.8717 0.0
H378 H 0.96422 0.28506 0.95184 0.0
H379 H 0.8764 0.21199 0.89053 0.0
O380 O 0.91409 0.15046 0.93321 0.0
C381 C 0.98977 0.21544 0.85631 0.0
O382 O 0.00746 0.2401 0.8848 0.0
N383 N 0.95758 0.1954 0.99783 0.0
C384 C 0.93677 0.23199 0.07662 0.0
C385 C 0.92685 0.1907 0.06921 0.0
C386 C 0.93664 0.17311 1.02848 0.0
C387 C 0.97824 0.22934 1.01134 0.0
C388 C 0.96633 0.24985 0.04944 0.0
H389 H 0.92371 0.14363 1.02073 0.0
H390 H 1.00052 0.24313 0.98984 0.0
H391 H 0.95624 0.09983 0.97961 0.0
H392 H 0.0826 0.09765 0.96542 0.0
H393 H 0.90327 0.33064 0.93569 0.0
H394 H 0.90652 0.1746 0.09126 0.0
H395 H 0.97748 0.28064 0.05533 0.0
C396 C 0.37604 0.49329 0.66626 0.0
C397 C 0.40867 0.4756 0.64398 0.0
N398 N 0.4256 0.50414 0.61769 0.0
N399 N 0.37277 0.53269 0.65377 0.0
C400 C 0.40379 0.5381 0.62498 0.0
H401 H 0.35456 0.47754 0.68719 0.0
Co402 Co 0.33568 0.57598 0.6543 0.0
C403 C 0.39621 0.63413 0.6645 0.0
O404 O 0.39028 0.63631 0.62196 0.0
N405 N 0.30275 0.62202 0.64942 0.0
C406 C 0.27631 0.67462 0.61376 0.0
C407 C 0.2895 0.6352 0.61003 0.0
C408 C 0.29852 0.65466 0.67633 0.0
N409 N 0.28301 0.68714 0.65521 0.0
O410 O 0.3089 0.56096 0.71187 0.0
H411 H 0.29296 0.61856 0.57953 0.0
H412 H 0.30986 0.65579 0.70947 0.0
O413 O 0.37506 0.60888 0.68674 0.0
C414 C 0.28479 0.53231 0.72494 0.0
O415 O 0.27632 0.5019 0.69801 0.0
N416 N 0.29697 0.54455 0.62056 0.0
C417 C 0.24708 0.53903 0.54787 0.0
C418 C 0.28461 0.51927 0.54746 0.0
C419 C 0.31012 0.52438 0.5837 0.0
C420 C 0.25633 0.55262 0.62508 0.0
C421 C 0.23101 0.55149 0.58836 0.0
H422 H 0.34158 0.5171 0.57916 0.0
H423 H 0.24503 0.56747 0.65444 0.0
H424 H 0.40773 0.5654 0.60575 0.0
H425 H 0.41754 0.44379 0.64492 0.0
H426 H 0.26745 0.69423 0.58695 0.0
H427 H 0.29708 0.50743 0.517 0.0
H428 H 0.20121 0.56536 0.59038 0.0
C429 C 0.01492 0.39017 0.62292 0.0
C430 C 0.03282 0.42434 0.60396 0.0
N431 N 1.00322 0.45005 0.59141 0.0
N432 N 0.97403 0.39416 0.62264 0.0
C433 C 0.96833 0.43181 0.60467 0.0
H434 H 0.03077 0.36284 0.63234 0.0
Co435 Co 0.93096 0.35429 0.62858 0.0
C436 C 0.88293 0.38608 0.5491 0.0
O437 O 0.88754 0.35536 0.52163 0.0
N438 N 0.88645 0.318 0.63406 0.0
C439 C 0.83415 0.277 0.61828 0.0
C440 C 0.86951 0.29373 0.60281 0.0
C441 C 0.85973 0.3163 0.66802 0.0
N442 N 0.8278 0.29137 0.65903 0.0
O443 O 0.95901 0.32257 0.67622 0.0
H444 H 0.88012 0.2905 0.56944 0.0
H445 H 0.86247 0.33465 0.69758 0.0
O446 O 0.89848 0.38531 0.58737 0.0
C447 C 0.98832 0.29841 0.68588 0.0
O448 O 0.01634 0.29011 0.65641 0.0
N449 N 0.95515 0.32151 0.5823 0.0
C450 C 0.9694 0.27264 0.50833 0.0
C451 C 0.9762 0.31493 0.50658 0.0
C452 C 0.96828 0.33895 0.54397 0.0
C453 C 0.95644 0.27994 0.58604 0.0
C454 C 0.96222 0.25506 0.54939 0.0
H455 H 0.96897 0.37172 0.54061 0.0
H456 H 0.94798 0.26535 0.6161 0.0
H457 H 0.93886 0.44489 0.5985 0.0
H458 H 0.0648 0.4283 0.59653 0.0
H459 H 0.81304 0.258 0.59986 0.0
H460 H 0.98437 0.32958 0.47601 0.0
H461 H 0.95818 0.22229 0.55271 0.0
C462 C 0.1198 0.01134 0.65317 0.0
C463 C 0.08564 0.02756 0.63295 0.0
N464 N 0.07236 1.0005 0.60252 0.0
N465 N 0.12788 0.97438 0.63518 0.0
C466 C 0.09807 0.96883 0.605 0.0
H467 H 0.13826 0.02645 0.67774 0.0
Co468 Co 0.16962 0.93526 0.63567 0.0
C469 C 0.11739 0.87242 0.63757 0.0
O470 O 0.12591 0.87631 0.59566 0.0
N471 N 0.20824 0.8946 0.63223 0.0
C472 C 0.25143 0.85013 0.60422 0.0
C473 C 0.22434 0.88031 0.59458 0.0
C474 C 0.22446 0.8715 0.66408 0.0
N475 N 0.25228 0.84494 0.64822 0.0
O476 O 0.19313 0.95177 0.69495 0.0
H477 H 0.21652 0.891 0.56218 0.0
H478 H 0.21557 0.87463 0.6979 0.0
O479 O 0.13378 0.89724 0.66476 0.0
C480 C 0.21189 0.98217 0.71299 0.0
O481 O 0.21581 0.01654 0.69125 0.0
N482 N 0.20483 0.97057 0.60341 0.0
C483 C 0.26118 0.97479 0.53536 0.0
C484 C 0.22026 0.98412 0.52768 0.0
C485 C 0.19222 0.98031 0.56207 0.0
C486 C 0.24538 0.97208 0.61276 0.0
C487 C 0.27407 0.97346 0.5792 0.0
H488 H 0.16043 0.97979 0.55382 0.0
H489 H 0.25629 0.96455 0.64459 0.0
H490 H 0.09686 0.94324 0.5825 0.0
H491 H 0.0726 0.05741 0.6389 0.0
H492 H 0.2683 0.83234 0.58032 0.0
H493 H 0.2092 0.99024 0.49507 0.0
H494 H 0.30548 0.96744 0.58748 0.0
C495 C 0.51239 0.09445 0.66972 0.0
C496 C 0.49573 0.05796 0.65409 0.0
N497 N 0.51604 0.04663 0.61746 0.0
N498 N 0.54277 0.10639 0.6427 0.0
C499 C 0.54367 0.07668 0.61125 0.0
H500 H 0.50412 0.1098 0.69993 0.0
Co501 Co 0.58493 0.14654 0.64411 0.0
C502 C 0.63925 0.08927 0.63287 0.0
O503 O 0.63242 0.10389 0.59356 0.0
N504 N 0.62886 0.18326 0.64227 0.0
C505 C 0.67994 0.21852 0.6131 0.0
C506 C 0.64705 0.19383 0.60426 0.0
C507 C 0.65098 0.20231 0.67389 0.0
N508 N 0.68251 0.22366 0.65687 0.0
O509 O 0.57232 0.1659 0.70607 0.0
H510 H 0.63709 0.18381 0.57209 0.0
H511 H 0.64443 0.20044 0.70848 0.0
O512 O 0.62101 0.1053 0.66569 0.0
C513 C 0.54286 0.18553 0.72421 0.0
O514 O 0.51124 0.19363 0.69957 0.0
N515 N 0.551 0.18684 0.61822 0.0
C516 C 0.52904 0.24692 0.55831 0.0
C517 C 0.51678 0.20628 0.55175 0.0
C518 C 0.52945 0.17643 0.58136 0.0
C519 C 0.55712 0.22725 0.62829 0.0
C520 C 0.54715 0.25762 0.5984 0.0
H521 H 0.52485 0.14489 0.57225 0.0
H522 H 0.57367 0.23613 0.65746 0.0
H523 H 0.56494 0.07639 0.58425 0.0
H524 H 0.47197 0.04012 0.66966 0.0
H525 H 0.7007 0.23156 0.58926 0.0
H526 H 0.50143 0.19713 0.5218 0.0
H527 H 0.55612 0.28895 0.60532 0.0
C528 C 0.76189 0.07034 0.25787 0.0
C529 C 0.72902 0.04221 0.25193 0.0
C530 C 0.74173 0.01696 0.32703 0.0
C531 C 0.77918 0.03934 0.32953 0.0
N532 N 0.82704 0.08377 0.29264 0.0
N533 N 0.68902 0.98676 0.28121 0.0
C534 C 0.78961 0.06544 0.29385 0.0
C535 C 0.71953 0.0149 0.28663 0.0
N536 N 0.76673 0.10206 0.22942 0.0
N537 N 0.72578 0.99946 0.36393 0.0
H538 H 0.66983 0.9864 0.25398 0.0
H539 H 0.68422 0.96249 0.30264 0.0
H540 H 0.73912 1.00219 0.39475 0.0
H541 H 0.69682 0.98641 0.36512 0.0
H542 H 0.78772 0.12565 0.23433 0.0
H543 H 0.74664 0.10748 0.20382 0.0
H544 H 0.83797 0.09949 0.26537 0.0
H545 H 0.84895 0.07979 0.31686 0.0
C546 C 0.45139 0.78164 0.30768 0.0
C547 C 0.47305 0.76514 0.34387 0.0
C548 C 0.49755 0.7094 0.29491 0.0
C549 C 0.47778 0.72694 0.2585 0.0
N550 N 0.44895 0.78892 0.22905 0.0
N551 N 0.53034 0.72334 0.3644 0.0
C552 C 0.45847 0.76568 0.26451 0.0
C553 C 0.50008 0.73184 0.33525 0.0
N554 N 0.4238 0.81224 0.31347 0.0
N555 N 0.51487 0.67171 0.29097 0.0
H556 H 0.53637 0.7419 0.39166 0.0
H557 H 0.55275 0.70162 0.35829 0.0
H558 H 0.51468 0.65499 0.26166 0.0
H559 H 0.52633 0.65584 0.31776 0.0
H560 H 0.40294 0.82016 0.28928 0.0
H561 H 0.4203 0.82889 0.3423 0.0
H562 H 0.43832 0.81882 0.23151 0.0
H563 H 0.45689 0.78061 0.19736 0.0
C564 C 0.71806 0.43835 0.30398 0.0
C565 C 0.68541 0.46629 0.31179 0.0
C566 C 0.71418 0.51078 0.25418 0.0
C567 C 0.74444 0.4814 0.24284 0.0
N568 N 0.77946 0.41998 0.26393 0.0
N569 N 0.64652 0.522 0.28308 0.0
C570 C 0.7474 0.44587 0.26971 0.0
C571 C 0.68167 0.49999 0.28303 0.0
N572 N 0.72194 0.40504 0.33008 0.0
N573 N 0.71826 0.55056 0.24143 0.0
H574 H 0.62157 0.51405 0.30257 0.0
H575 H 0.64061 0.54472 0.26013 0.0
H576 H 0.74523 0.56232 0.22858 0.0
H577 H 0.69811 0.5734 0.25115 0.0
H578 H 0.74784 0.3871 0.33233 0.0
H579 H 0.69811 0.39471 0.34906 0.0
H580 H 0.78006 0.38996 0.27501 0.0
H581 H 0.8066 0.42928 0.24923 0.0
C582 C 0.01776 0.74016 0.28196 0.0
C583 C 0.05295 0.71911 0.29646 0.0
C584 C 0.08792 0.74249 0.22892 0.0
C585 C 0.05533 0.76965 0.21931 0.0
N586 N 0.99096 0.79784 0.24212 0.0
N587 N 0.12302 0.70125 0.28238 0.0
C588 C 0.02062 0.7692 0.24723 0.0
C589 C 0.08835 0.72029 0.26942 0.0
N590 N 0.98105 0.73169 0.30102 0.0
N591 N 0.11755 0.73577 0.19838 0.0
H592 H 0.12404 0.68083 0.30829 0.0
H593 H 0.15119 0.70671 0.26776 0.0
H594 H 0.11847 0.75064 0.16844 0.0
H595 H 0.13872 0.71234 0.20085 0.0
H596 H 0.95364 0.74319 0.28943 0.0
H597 H 0.97765 0.7093 0.32506 0.0
H598 H 0.96703 0.80153 0.26426 0.0
H599 H 0.99257 0.82081 0.2186 0.0
C600 C 0.27825 0.94205 0.80878 0.0
C601 C 0.2755 0.97483 0.83957 0.0
C602 C 0.22781 0.00939 0.78944 0.0
C603 C 0.23299 0.97836 0.7571 0.0
N604 N 0.27611 0.92312 0.73232 0.0
N605 N 0.25843 0.04596 0.85039 0.0
C606 C 0.2617 0.94676 0.76575 0.0
C607 C 0.25352 0.01039 0.82714 0.0
N608 N 0.29582 0.90595 0.82011 0.0
N609 N 0.1975 0.03744 0.78512 0.0
H610 H 0.27925 0.04889 0.87603 0.0
H611 H 0.24583 0.07362 0.84064 0.0
H612 H 0.17703 0.037 0.75902 0.0
H613 H 0.19005 0.0583 0.80986 0.0
H614 H 0.29367 0.87968 0.8006 0.0
H615 H 0.31026 0.90122 0.84987 0.0
H616 H 0.29977 0.90235 0.73596 0.0
H617 H 0.26818 0.92815 0.70002 0.0
C618 C 0.51832 0.26125 0.81689 0.0
C619 C 0.55446 0.26342 0.84216 0.0
C620 C 0.58294 0.20796 0.79477 0.0
C621 C 0.5461 0.20604 0.76979 0.0
N622 N 0.47363 0.21672 0.77573 0.0
N623 N 0.61876 0.23252 0.85976 0.0
C624 C 0.5123 0.22867 0.78617 0.0
C625 C 0.58634 0.23532 0.83204 0.0
N626 N 0.4894 0.29075 0.82175 0.0
N627 N 0.61422 0.18234 0.78469 0.0
H628 H 0.62314 0.2521 0.88631 0.0
H629 H 0.64011 0.2092 0.85836 0.0
H630 H 0.61019 0.15519 0.76718 0.0
H631 H 0.64408 0.18742 0.79479 0.0
H632 H 0.46409 0.29256 0.80131 0.0
H633 H 0.49308 0.31581 0.84279 0.0
H634 H 0.44791 0.23038 0.78932 0.0
H635 H 0.46739 0.18917 0.75957 0.0
C636 C 0.25273 0.49782 0.79169 0.0
C637 C 0.26269 0.53442 0.76886 0.0
C638 C 0.23135 0.57294 0.83012 0.0
C639 C 0.21529 0.53634 0.84878 0.0
N640 N 0.20222 0.46414 0.83666 0.0
N641 N 0.24757 0.60646 0.762 0.0
C642 C 0.22348 0.49881 0.82642 0.0
C643 C 0.24813 0.57198 0.78681 0.0
N644 N 0.2721 0.46213 0.78167 0.0
N645 N 0.23282 0.60838 0.85393 0.0
H646 H 0.25423 0.60602 0.72864 0.0
H647 H 0.23461 0.63367 0.7731 0.0
H648 H 0.22524 0.60976 0.88702 0.0
H649 H 0.24696 0.63485 0.8423 0.0
H650 H 0.26786 0.43551 0.79983 0.0
H651 H 0.29605 0.46052 0.75924 0.0
H652 H 0.20521 0.43696 0.81885 0.0
H653 H 0.17795 0.464 0.85873 0.0
C654 C 0.02577 0.24906 0.79272 0.0
C655 C 0.9905 0.22816 0.80842 0.0
C656 C 0.95593 0.24751 0.73957 0.0
C657 C 0.9883 0.27494 0.72865 0.0
N658 N 0.0532 0.30415 0.74842 0.0
N659 N 0.92036 0.2085 0.795 0.0
C660 C 0.02308 0.27612 0.75616 0.0
C661 C 0.9553 0.2272 0.78115 0.0
N662 N 0.06252 0.24177 0.81189 0.0
N663 N 0.92636 0.2391 0.7095 0.0
H664 H 0.91782 0.19159 0.82355 0.0
H665 H 0.89277 0.21119 0.77861 0.0
H666 H 0.92329 0.25506 0.68046 0.0
H667 H 0.90714 0.21374 0.71177 0.0
H668 H 0.08993 0.25311 0.79964 0.0
H669 H 0.06603 0.22027 0.83676 0.0
H670 H 0.07722 0.3094 0.77003 0.0
H671 H 0.05215 0.32491 0.7226 0.0
C672 C 0.50682 0.00949 1.0013 0.0
C673 C 0.46825 1.00573 1.0215 0.0
C674 C 0.50174 0.98596 0.09075 0.0
C675 C 0.54048 0.99245 0.0714 0.0
N676 N 0.57965 0.01725 1.01003 0.0
N677 N 0.42835 0.99531 0.08655 0.0
C678 C 0.54292 1.00589 1.02701 0.0
C679 C 0.46557 0.99519 0.06663 0.0
N680 N 0.50881 0.0157 0.95706 0.0
N681 N 0.49982 0.97049 0.13221 0.0
H682 H 0.40191 1.00301 0.06978 0.0
H683 H 0.42387 0.991 0.12002 0.0
H684 H 0.52594 0.96391 0.1502 0.0
H685 H 0.47294 0.96145 0.1475 0.0
H686 H 0.53568 0.0142 0.93899 0.0
H687 H 0.48286 0.01955 0.9379 0.0
H688 H 0.58316 0.03192 0.98002 0.0
H689 H 0.60653 0.01479 1.02755 0.0
C690 C 0.51355 0.50708 0.99305 0.0
C691 C 0.51411 0.46718 1.01114 0.0
C692 C 0.51479 0.49708 0.08576 0.0
C693 C 0.51372 0.53686 0.06779 0.0
N694 N 0.50671 0.58045 1.00517 0.0
N695 N 0.50622 0.42387 0.07379 0.0
C696 C 0.51137 0.542 1.02157 0.0
C697 C 0.51222 0.46217 0.05737 0.0
N698 N 0.51688 0.5115 0.94864 0.0
N699 N 0.51873 0.49294 0.13011 0.0
H700 H 0.50182 0.3985 0.05337 0.0
H701 H 0.50157 0.41769 0.10689 0.0
H702 H 0.51965 0.51811 0.15137 0.0
H703 H 0.52368 0.46512 0.14555 0.0
H704 H 0.5209 0.53948 0.93311 0.0
H705 H 0.51831 0.48663 0.92713 0.0
H706 H 0.50043 0.5866 0.97242 0.0
H707 H 0.507 0.60651 1.02507 0.0
C708 C 0.0259 0.47379 0.06119 0.0
C709 C 0.02125 0.49106 1.01886 0.0
C710 C 0.95021 0.50735 1.03617 0.0
C711 C 0.95439 0.48978 0.07842 0.0
N712 N 0.99411 0.45167 0.12959 0.0
N713 N 0.9784 0.5226 0.96506 0.0
C714 C 0.99177 0.4716 0.09043 0.0
C715 C 0.98315 0.50686 1.00608 0.0
N716 N 0.06345 0.46053 0.07354 0.0
N717 N 0.91489 0.52514 1.02354 0.0
H718 H 1.00184 0.52325 0.94198 0.0
H719 H 0.9509 0.53479 0.95434 0.0
H720 H 0.88929 0.5277 0.04367 0.0
H721 H 0.88929 0.5277 0.04367 0.0
H722 H 0.07062 0.45125 0.10518 0.0
H723 H 0.08816 0.46036 0.05202 0.0
H724 H 0.01893 0.43432 0.13923 0.0
H725 H 0.96992 0.45089 0.15178 0.0
C726 C 0.01077 0.01059 0.99072 0.0
C727 C 0.02032 0.05011 1.00732 0.0
C728 C 0.03395 0.02057 0.08007 0.0
C729 C 0.02381 0.98113 0.06366 0.0
N730 N 0.99691 0.93872 1.00601 0.0
N731 N 0.03422 0.09427 0.06883 0.0
C732 C 0.01048 0.97626 1.01964 0.0
C733 C 0.02999 0.0555 0.0524 0.0
N734 N 1.00299 1.00604 0.94694 0.0
N735 N 0.04836 0.02424 0.12191 0.0
H736 H 0.03147 0.12017 0.04926 0.0
H737 H 0.03755 0.10103 0.10205 0.0
H738 H 0.0501 0.99933 0.14305 0.0
H739 H 0.06058 0.05113 0.13492 0.0
H740 H 0.99922 0.97791 0.93126 0.0
H741 H 1.00257 0.03083 0.92554 0.0
H742 H 0.98378 0.93301 0.97553 0.0
H743 H 0.99614 0.91352 1.02682 0.0
C744 C 0.49433 0.5192 0.58843 0.0
C745 C 0.45597 0.49987 0.5832 0.0
C746 C 0.47467 0.48123 0.50715 0.0
C747 C 0.5119 0.50349 0.51135 0.0
N748 N 0.55402 0.54911 0.55366 0.0
N749 N 0.40713 0.46696 0.53595 0.0
C750 C 0.52077 0.52396 0.55149 0.0
C751 C 0.44544 0.48223 0.54201 0.0
N752 N 0.50568 0.53218 0.6293 0.0
N753 N 0.46841 0.45664 0.47133 0.0
H754 H 0.38601 0.46478 0.56135 0.0
H755 H 0.39555 0.45869 0.50534 0.0
H756 H 0.48981 0.45295 0.44643 0.0
H757 H 0.44402 0.43633 0.46851 0.0
H758 H 0.53459 0.54333 0.63675 0.0
H759 H 0.48693 0.52838 0.65669 0.0
H760 H 0.56054 0.56796 0.58045 0.0
H761 H 0.57312 0.55394 0.52676 0.0
C762 C 0.99926 0.52514 0.57796 0.0
C763 C 0.00655 0.48495 0.56187 0.0
C764 C 0.01454 0.51283 0.4869 0.0
C765 C 0.00898 0.55303 0.50342 0.0
N766 N 1.00132 0.59865 0.56482 0.0
N767 N 0.02397 0.44042 0.50142 0.0
C768 C 1.00263 0.55946 0.54906 0.0
C769 C 0.01514 0.47884 0.51638 0.0
N770 N 0.98886 0.53026 0.62106 0.0
N771 N 0.01814 0.50735 0.44255 0.0
H772 H 0.02269 0.41471 0.52127 0.0
H773 H 0.03459 0.43394 0.46998 0.0
H774 H 0.01823 0.53179 0.4207 0.0
H775 H 0.01857 0.47897 0.42695 0.0
H776 H 0.97887 0.55778 0.63448 0.0
H777 H 0.98837 0.50605 0.6432 0.0
H778 H 1.00073 0.60622 0.59804 0.0
H779 H 1.00352 0.62404 0.54437 0.0
C780 C 0.97209 0.98752 0.54302 0.0
C781 C 0.98108 1.00633 0.50224 0.0
C782 C 0.05052 0.02193 0.52812 0.0
C783 C 0.04078 1.00507 0.56971 0.0
N784 N 0.99306 0.9729 0.61811 0.0
N785 N 0.02764 0.04195 0.45526 0.0
C786 C 1.00165 0.98811 0.57745 0.0
C787 C 0.02015 0.02348 0.49456 0.0
N788 N 0.93532 0.96842 0.54805 0.0
N789 N 0.08922 0.03572 0.52078 0.0
H790 H 0.00639 0.04189 0.42988 0.0
H791 H 0.05387 0.05851 0.44803 0.0
H792 H 0.11123 0.03648 0.54537 0.0
H793 H 0.1002 0.04512 0.49043 0.0
H794 H 0.92661 0.9521 0.57572 0.0
H795 H 0.91394 0.96688 0.52283 0.0
H796 H 0.96468 0.96204 0.62782 0.0
H797 H 0.01447 0.97284 0.64335 0.0
C798 C 0.51137 0.97279 0.52062 0.0
C799 C 0.51469 0.9343 0.54163 0.0
C800 C 0.52059 0.97033 0.61292 0.0
C801 C 0.51338 0.00846 0.59242 0.0
N802 N 0.49415 0.0448 0.52749 0.0
N803 N 0.51145 0.89695 0.60974 0.0
C804 C 0.50653 0.00928 0.54638 0.0
C805 C 0.51618 0.93321 0.58836 0.0
N806 N 0.51434 0.97463 0.47599 0.0
N807 N 0.53375 0.96941 0.65537 0.0
H808 H 0.50646 0.86931 0.59351 0.0
H809 H 0.50799 0.89499 0.64368 0.0
H810 H 0.53915 0.99577 0.67391 0.0
H811 H 0.54359 0.94275 0.67048 0.0
H812 H 0.51603 1.00201 0.45878 0.0
H813 H 0.51898 0.9487 0.45652 0.0
H814 H 0.48496 0.04674 0.49488 0.0
H815 H 0.48924 0.07146 0.54573 0.0
C816 C 0.55671 0.21923 0.1286 0.0
C817 C 0.53499 0.21743 0.08825 0.0
C818 C 0.533 0.14334 0.09126 0.0
C819 C 0.56391 0.1453 0.12371 0.0
N820 N 0.58759 0.18062 0.18803 0.0
N821 N 0.48557 0.181 0.04569 0.0
C822 C 0.56936 0.18185 0.14791 0.0
C823 C 0.51651 0.18029 0.07541 0.0
N824 N 0.56754 0.25603 0.14656 0.0
N825 N 0.52224 0.10652 0.07338 0.0
H826 H 0.47446 0.20866 1.03376 0.0
H827 H 0.46915 0.15521 1.03584 0.0
H828 H 0.53302 0.07924 0.086 0.0
H829 H 0.50329 0.10297 0.04629 0.0
H830 H 0.58732 0.25937 0.17295 0.0
H831 H 0.55685 0.2837 0.13486 0.0
H832 H 0.59151 0.20598 0.20843 0.0
H833 H 0.59497 0.15295 0.20276 0.0
C834 C 0.27098 0.60012 0.11151 0.0
C835 C 0.27321 0.55891 0.09738 0.0
C836 C 0.34361 0.5565 0.12247 0.0
C837 C 0.34433 0.59982 0.12369 0.0
N838 N 0.30805 0.6635 0.11947 0.0
N839 N 0.3095 0.4956 0.09414 0.0
C840 C 0.30754 0.62184 0.11979 0.0
C841 C 0.3087 0.53604 0.10539 0.0
N842 N 0.23413 0.6189 0.11461 0.0
N843 N 0.3769 0.53552 0.13621 0.0
H844 H 0.28352 0.48022 0.08303 0.0
H845 H 0.33575 0.47795 0.09459 0.0
H846 H 0.40198 0.55064 0.14981 0.0
H847 H 0.37793 0.50376 0.1382 0.0
H848 H 0.23045 0.64849 0.12669 0.0
H849 H 0.20685 0.60323 0.10955 0.0
H850 H 0.28332 0.68109 0.10998 0.0
H851 H 0.33425 0.68028 0.12586 0.0
C852 C 0.86915 0.2608 0.10296 0.0
C853 C 0.91243 0.25868 0.10682 0.0
C854 C 0.91212 0.32406 0.14699 0.0
C855 C 0.86963 0.32605 0.14107 0.0
N856 N 0.80741 0.28879 0.13371 0.0
N857 N 0.97198 0.28093 0.14678 0.0
C858 C 0.84828 0.29104 0.12714 0.0
C859 C 0.93285 0.28774 0.13415 0.0
N860 N 0.84806 0.23813 0.07267 0.0
N861 N 0.93273 0.35765 0.162 0.0
H862 H 0.98722 0.25405 0.13837 0.0
H863 H 0.98751 0.29988 0.16879 0.0
H864 H 0.91759 0.38391 0.17265 0.0
H865 H 0.96436 0.35979 0.16219 0.0
H866 H 0.81716 0.24225 0.06667 0.0
H867 H 0.86137 0.21904 0.04957 0.0
H868 H 0.79014 0.26289 0.12597 0.0
H869 H 0.79255 0.31136 0.15176 0.0
C870 C 0.22089 1.00338 0.14133 0.0
C871 C 0.25824 0.98284 0.14577 0.0
C872 C 0.22122 0.92407 0.17478 0.0
C873 C 0.18669 0.93786 0.15147 0.0
N874 N 0.14947 0.99522 0.12356 0.0
N875 N 0.28973 0.94111 0.19997 0.0
C876 C 0.1848 0.97952 0.13927 0.0
C877 C 0.25738 0.94832 0.17341 0.0
N878 N 0.22061 0.04491 0.1388 0.0
N879 N 0.21961 0.88792 0.19659 0.0
H880 H 0.31448 0.96132 0.20073 0.0
H881 H 0.29045 0.91782 0.22309 0.0
H882 H 0.19213 0.87255 0.20129 0.0
H883 H 0.24492 0.87404 0.2104 0.0
H884 H 0.19396 0.06198 0.13804 0.0
H885 H 0.24775 0.06165 0.14074 0.0
H886 H 0.14745 0.02432 0.11002 0.0
H887 H 0.12255 0.97816 0.12352 0.0
C888 C 0.5566 0.31042 0.45786 0.0
C889 C 0.55007 0.34907 0.47729 0.0
C890 C 0.50805 0.31612 0.53355 0.0
C891 C 0.52669 0.2784 0.52312 0.0
N892 N 0.56881 0.23917 0.4727 0.0
N893 N 0.51461 0.38977 0.53101 0.0
C894 C 0.54995 0.2749 0.48369 0.0
C895 C 0.52311 0.35225 0.5136 0.0
N896 N 0.57016 0.30777 0.41565 0.0
N897 N 0.47738 0.31727 0.56378 0.0
H898 H 0.52548 0.41649 0.51665 0.0
H899 H 0.49889 0.39417 0.56037 0.0
H900 H 0.46624 0.29071 0.57855 0.0
H901 H 0.46066 0.3435 0.57072 0.0
H902 H 0.57232 0.28008 0.39865 0.0
H903 H 0.57441 0.33362 0.39627 0.0
H904 H 0.5887 0.23659 0.44628 0.0
H905 H 0.56717 0.21269 0.49129 0.0
C906 C 0.16793 0.56872 0.46361 0.0
C907 C 0.18261 0.60868 0.45499 0.0
C908 C 0.24842 0.59011 0.48645 0.0
C909 C 0.22919 0.556 0.50702 0.0
N910 N 0.17199 0.50985 0.51142 0.0
N911 N 0.23972 0.65425 0.44868 0.0
C912 C 0.18947 0.54402 0.49389 0.0
C913 C 0.22416 0.61777 0.46251 0.0
N914 N 0.13474 0.5539 0.44185 0.0
N915 N 0.28936 0.59691 0.49026 0.0
H916 H 0.22371 0.67305 0.42754 0.0
H917 H 0.26725 0.6665 0.45933 0.0
H918 H 0.30883 0.57951 0.50908 0.0
H919 H 0.30527 0.61822 0.47156 0.0
H920 H 0.12402 0.52403 0.44518 0.0
H921 H 0.12133 0.56986 0.41624 0.0
H922 H 0.14141 0.50227 0.5072 0.0
H923 H 0.188 0.49008 0.53176 0.0
C924 C 0.91505 0.21076 0.42295 0.0
C925 C 0.93165 0.17325 0.43634 0.0
C926 C 0.98953 0.20964 0.46847 0.0
C927 C 0.96599 0.24569 0.46867 0.0
N928 N 0.91108 0.28392 0.43622 0.0
N929 N 0.98889 0.13547 0.46188 0.0
C930 C 0.9308 0.24769 0.44157 0.0
C931 C 0.97106 0.17235 0.45468 0.0
N932 N 0.8834 0.21042 0.3941 0.0
N933 N 0.02826 0.21122 0.48433 0.0
H934 H 0.97561 0.10836 0.45044 0.0
H935 H 0.01576 0.13171 0.47933 0.0
H936 H 0.04125 0.23882 0.49493 0.0
H937 H 0.04809 0.18654 0.48376 0.0
H938 H 0.87034 0.23657 0.3811 0.0
H939 H 0.87278 0.18317 0.38013 0.0
H940 H 0.88343 0.28679 0.42007 0.0
H941 H 0.9224 0.31166 0.44785 0.0
C942 C 0.35801 0.93097 0.50603 0.0
C943 C 0.34433 0.89044 0.49651 0.0
C944 C 0.27551 0.91657 0.48486 0.0
C945 C 0.28795 0.95519 0.50139 0.0
N946 N 0.34202 1.00365 0.50838 0.0
N947 N 0.28774 0.84411 0.48322 0.0
C948 C 0.32993 0.96387 0.50409 0.0
C949 C 0.30251 0.88311 0.48728 0.0
N950 N 0.39573 0.93719 0.52347 0.0
N951 N 0.23868 0.91216 0.46485 0.0
H952 H 0.30614 0.8184 0.4816 0.0
H953 H 0.25677 0.83715 0.48341 0.0
H954 H 0.22048 0.93701 0.45744 0.0
H955 H 0.22926 0.8852 0.44938 0.0
H956 H 0.4067 0.96561 0.53376 0.0
H957 H 0.41383 0.91301 0.53341 0.0
H958 H 0.37234 0.01305 0.50768 0.0
H959 H 0.32078 0.02731 0.50847 0.0
C960 C 0.45749 0.81025 1.00801 0.0
C961 C 0.44686 0.77672 0.98057 0.0
C962 C 0.39951 0.82102 0.94154 0.0
C963 C 0.4003 0.8482 0.97801 0.0
N964 N 0.43482 0.87265 0.04289 0.0
N965 N 0.41337 0.75185 0.91587 0.0
C966 C 0.43122 0.84438 1.00998 0.0
C967 C 0.4205 0.78319 0.94466 0.0
N968 N 0.49225 0.80935 1.03234 0.0
N969 N 0.37817 0.83093 0.90482 0.0
H970 H 0.42968 0.72457 0.91748 0.0
H971 H 0.39081 0.7524 0.89194 0.0
H972 H 0.3634 0.85888 0.90184 0.0
H973 H 0.37832 0.81333 0.8762 0.0
H974 H 0.50282 0.83418 0.05073 0.0
H975 H 0.51318 0.78575 1.0299 0.0
H976 H 0.45256 0.86838 0.07076 0.0
H977 H 0.41924 0.90016 1.04252 0.0
C978 C 0.68069 0.50896 0.9716 0.0
C979 C 0.72267 0.50012 0.97122 0.0
C980 C 0.7108 0.44304 0.92113 0.0
C981 C 0.66966 0.44371 0.93397 0.0
N982 N 0.61263 0.48586 0.95113 0.0
N983 N 0.77253 0.48356 0.91594 0.0
C984 C 0.65353 0.48017 0.95193 0.0
C985 C 0.73679 0.47476 0.9365 0.0
N986 N 0.66767 0.54318 0.99307 0.0
N987 N 0.72472 0.41198 0.89532 0.0
H988 H 0.78781 0.51108 0.9221 0.0
H989 H 0.78331 0.46704 0.889 0.0
H990 H 0.70498 0.38978 0.88259 0.0
H991 H 0.75535 0.40822 0.88754 0.0
H992 H 0.63728 0.55114 0.99694 0.0
H993 H 0.68857 0.56378 1.00681 0.0
H994 H 0.59827 0.51145 0.96415 0.0
H995 H 0.59381 0.46548 0.93404 0.0
C996 C 0.04786 0.7313 0.935 0.0
C997 C 0.02347 0.73481 0.97319 0.0
C998 C 0.01373 0.66106 0.97396 0.0
C999 C 0.04896 0.65781 0.94744 0.0
N1000 N 0.08919 0.68632 0.88918 0.0
N1001 N 0.96894 0.7066 1.01523 0.0
C1002 C 0.06176 0.69177 0.92233 0.0
C1003 C 1.00038 0.70062 0.98672 0.0
N1004 N 0.05843 0.76559 0.91237 0.0
N1005 N 0.99626 0.62624 0.98987 0.0
H1006 H 0.96045 0.73612 1.02475 0.0
H1007 H 0.95079 0.6833 1.02787 0.0
H1008 H 0.00714 0.59753 0.98059 0.0
H1009 H 0.97129 0.62557 1.01087 0.0
H1010 H 0.07554 0.76547 0.88362 0.0
H1011 H 0.0474 0.7943 0.92106 0.0
H1012 H 0.10358 0.71004 0.87257 0.0
H1013 H 0.09688 0.65723 0.87779 0.0
C1014 C 0.77798 0.10489 0.97468 0.0
C1015 C 0.79256 0.0701 0.99785 0.0
C1016 C 0.85928 0.07992 0.96288 0.0
C1017 C 0.84799 0.12021 0.95169 0.0
N1018 N 0.79472 0.16791 0.93714 0.0
N1019 N 0.84634 0.02173 1.01001 0.0
C1020 C 0.80645 0.13117 0.95374 0.0
C1021 C 0.83295 0.05651 0.99031 0.0
N1022 N 0.73734 0.11329 0.97254 0.0
N1023 N 0.89387 0.06348 0.94575 0.0
H1024 H 0.82707 1.00263 1.028 0.0
H1025 H 0.87675 0.01295 1.00997 0.0
H1026 H 0.91086 0.07856 0.92181 0.0
H1027 H 0.90255 0.03328 0.95072 0.0
H1028 H 0.72514 0.1354 0.95207 0.0
H1029 H 0.71473 0.09637 0.98784 0.0
H1030 H 0.76711 0.18185 0.94438 0.0
H1031 H 0.81391 0.18506 0.91706 0.0
C1032 C 0.48109 0.70532 0.65895 0.0
C1033 C 0.45461 0.73922 0.65714 0.0
C1034 C 0.40604 0.70072 0.70161 0.0
C1035 C 0.4238 0.66472 0.68493 0.0
N1036 N 0.48406 0.63095 0.6604 0.0
N1037 N 0.40148 0.77475 0.69626 0.0
C1038 C 0.46415 0.66648 0.66925 0.0
C1039 C 0.42036 0.73907 0.68561 0.0
N1040 N 0.52029 0.71002 0.64532 0.0
N1041 N 0.37583 0.6975 0.732 0.0
H1042 H 0.4139 0.80307 0.68845 0.0
H1043 H 0.37457 0.7764 0.71417 0.0
H1044 H 0.36838 0.66909 0.74537 0.0
H1045 H 0.3612 0.72231 0.74647 0.0
H1046 H 0.54179 0.68679 0.64649 0.0
H1047 H 0.53132 0.73868 0.63579 0.0
H1048 H 0.51221 0.62956 0.64477 0.0
H1049 H 0.47115 0.60274 0.66863 0.0
C1050 C 0.82825 0.48404 0.51698 0.0
C1051 C 0.78785 0.47324 0.52878 0.0
C1052 C 0.81042 0.40644 0.5532 0.0
C1053 C 0.85079 0.41641 0.54095 0.0
N1054 N 0.90013 0.46662 0.51758 0.0
N1055 N 0.74515 0.43216 0.57599 0.0
C1056 C 0.86051 0.45616 0.52542 0.0
C1057 C 0.78065 0.4373 0.55332 0.0
N1058 N 0.83486 0.51992 0.49542 0.0
N1059 N 0.79986 0.36701 0.56254 0.0
H1060 H 0.72348 0.45499 0.57909 0.0
H1061 H 0.73963 0.40739 0.59651 0.0
H1062 H 0.82012 0.34288 0.55987 0.0
H1063 H 0.77003 0.35758 0.56811 0.0
H1064 H 0.86257 0.52828 0.48142 0.0
H1065 H 0.81152 0.54099 0.49084 0.0
H1066 H 0.90974 0.49619 0.51022 0.0
H1067 H 0.92382 0.4457 0.52023 0.0
C1068 C 0.04858 0.78695 0.61835 0.0
C1069 C 0.08117 0.76063 0.60631 0.0
C1070 C 0.1244 0.80076 0.6555 0.0
C1071 C 0.09785 0.83381 0.65121 0.0
N1072 N 0.03058 0.85715 0.6364 0.0
N1073 N 0.15301 0.74405 0.61599 0.0
C1074 C 0.05799 0.82606 0.63645 0.0
C1075 C 0.11974 0.76683 0.62681 0.0
N1076 N 0.00944 0.77526 0.61023 0.0
N1077 N 0.1553 0.80323 0.68484 0.0
H1078 H 0.1529 0.72051 0.59298 0.0
H1079 H 0.18205 0.75115 0.6276 0.0
H1080 H 0.15823 0.82845 0.70585 0.0
H1081 H 0.17365 0.77823 0.69156 0.0
H1082 H 0.98441 0.79242 0.62017 0.0
H1083 H 1.00249 0.74644 0.59714 0.0
H1084 H 1.00213 0.85493 0.62155 0.0
H1085 H 0.03766 0.88566 0.65023 0.0
C1086 C 0.66481 0.02133 0.6118 0.0
C1087 C 0.67074 0.05758 0.63653 0.0
C1088 C 0.7421 0.05991 0.61606 0.0
C1089 C 0.73491 0.02726 0.58556 0.0
N1090 N 0.69466 0.96846 0.56543 0.0
N1091 N 0.71661 0.0981 0.67905 0.0
C1092 C 0.69799 1.00472 0.58767 0.0
C1093 C 0.71029 0.07173 0.64491 0.0
N1094 N 0.62663 1.005 0.60931 0.0
N1095 N 0.77733 0.08226 0.61489 0.0
H1096 H 0.69277 0.10672 0.6998 0.0
H1097 H 0.74545 0.10728 0.68938 0.0
H1098 H 0.80189 0.07535 0.59474 0.0
H1099 H 0.78139 0.10945 0.63242 0.0
H1100 H 0.61831 0.98114 0.58833 0.0
H1101 H 0.60311 0.01646 0.62879 0.0
H1102 H 0.66928 0.94936 0.56706 0.0
H1103 H 0.71906 0.95611 0.5479 0.0
C1104 C 0.71628 0.29369 0.18517 0.0
C1105 C 0.69724 0.31642 0.15169 0.0
C1106 C 0.66762 0.25387 0.12216 0.0
C1107 C 0.69622 0.23105 0.14656 0.0
N1108 N 0.74486 0.22814 0.20522 0.0
N1109 N 0.63836 0.31946 0.10596 0.0
C1110 C 0.71904 0.2505 0.18013 0.0
C1111 C 0.66681 0.2967 0.12685 0.0
N1112 N 0.72847 0.31283 0.22276 0.0
N1113 N 0.6423 0.23581 0.09252 0.0
H1114 H 0.63736 0.35123 0.10983 0.0
H1115 H 0.61528 0.30625 0.08712 0.0
H1116 H 0.64056 0.20427 0.08723 0.0
H1117 H 0.64056 0.20427 0.08723 0.0
H1118 H 0.74095 0.29744 0.2493 0.0
H1119 H 0.71982 0.34285 0.22962 0.0
H1120 H 0.76556 0.24139 0.22701 0.0
H1121 H 0.7469 0.1964 0.20221 0.0
C1122 C 0.27531 0.81992 0.13586 0.0
C1123 C 0.24767 0.7868 0.14043 0.0
C1124 C 0.29842 0.74998 0.18322 0.0
C1125 C 0.32813 0.77823 0.16836 0.0
N1126 N 0.33821 0.85016 0.16191 0.0
N1127 N 0.23021 0.72246 0.1733 0.0
C1128 C 0.31457 0.81663 0.15426 0.0
C1129 C 0.25818 0.75267 0.16633 0.0
N1130 N 0.26467 0.85375 0.11271 0.0
N1131 N 0.30749 0.72437 0.21683 0.0
H1132 H 0.20084 0.72389 0.16056 0.0
H1133 H 0.23685 0.69526 0.18928 0.0
H1134 H 0.33463 0.72766 0.23428 0.0
H1135 H 0.28646 0.70463 0.23123 0.0
H1136 H 0.28554 0.87638 0.104 0.0
H1137 H 0.23543 0.85822 0.1006 0.0
H1138 H 0.32809 0.87962 0.15642 0.0
H1139 H 0.3656 0.84814 0.17907 0.0
C1140 C 0.7046 0.25848 0.42001 0.0
C1141 C 0.72652 0.29348 0.43493 0.0
C1142 C 0.78581 0.25146 0.45025 0.0
C1143 C 0.76336 0.21635 0.43758 0.0
N1144 N 0.70673 0.1862 0.39991 0.0
N1145 N 0.79129 0.32535 0.44862 0.0
C1146 C 0.72468 0.22004 0.4181 0.0
C1147 C 0.76848 0.2905 0.44448 0.0
N1148 N 0.66415 0.26125 0.41105 0.0
N1149 N 0.82256 0.24719 0.47036 0.0
H1150 H 0.77905 0.35427 0.44316 0.0
H1151 H 0.82269 0.32533 0.45309 0.0
H1152 H 0.83679 0.21893 0.47337 0.0
H1153 H 0.83764 0.27123 0.48615 0.0
H1154 H 0.646 0.23642 0.40215 0.0
H1155 H 0.648 0.28822 0.41474 0.0
H1156 H 0.67987 0.18688 0.38194 0.0
H1157 H 0.72082 0.15769 0.39978 0.0
C1158 C 0.28047 0.79511 0.38257 0.0
C1159 C 0.30127 0.75803 0.39193 0.0
C1160 C 0.24412 0.71951 0.36044 0.0
C1161 C 0.21956 0.75442 0.3666 0.0
N1162 N 0.22053 0.82569 0.34952 0.0
N1163 N 0.30756 0.68591 0.37849 0.0
C1164 C 0.23971 0.79272 0.36691 0.0
C1165 C 0.28471 0.72051 0.37648 0.0
N1166 N 0.29836 0.83216 0.39044 0.0
N1167 N 0.22991 0.6874 0.33615 0.0
H1168 H 0.33809 0.68677 0.38784 0.0
H1169 H 0.29598 0.65673 0.37221 0.0
H1170 H 0.20258 0.68943 0.31908 0.0
H1171 H 0.24722 0.66182 0.32824 0.0
H1172 H 0.28295 0.85979 0.3884 0.0
H1173 H 0.32811 0.8356 0.4012 0.0
H1174 H 0.23423 0.8542 0.34536 0.0
H1175 H 0.19207 0.82259 0.33463 0.0
C1176 C 0.19158 0.80548 0.94471 0.0
C1177 C 0.23353 0.81559 0.94728 0.0
C1178 C 0.249 0.7422 0.94037 0.0
C1179 C 0.20785 0.7327 0.94801 0.0
N1180 N 0.14008 0.75536 0.96317 0.0
N1181 N 0.30261 0.79083 0.95329 0.0
C1182 C 0.17895 0.76433 0.95097 0.0
C1183 C 0.26258 0.78329 0.94551 0.0
N1184 N 0.16389 0.8354 0.93683 0.0
N1185 N 0.27535 0.71138 0.93053 0.0
H1186 H 0.31365 0.81975 0.95977 0.0
H1187 H 0.32406 0.7679 0.95763 0.0
H1188 H 0.2657 0.68097 0.9279 0.0
H1189 H 0.30539 0.71653 0.92091 0.0
H1190 H 0.13307 0.82933 0.93187 0.0
H1191 H 0.17272 0.86555 0.93064 0.0
H1192 H 0.11912 0.77788 0.97152 0.0
H1193 H 0.13018 0.72543 0.9685 0.0
C1194 C 0.81808 0.32519 0.91453 0.0
C1195 C 0.83395 0.28865 0.89639 0.0
C1196 C 0.76433 0.26174 0.89031 0.0
C1197 C 0.75127 0.29268 0.9198 0.0
N1198 N 0.76547 0.35527 0.95943 0.0
N1199 N 0.81853 0.23708 0.84265 0.0
C1200 C 0.77799 0.32507 0.93149 0.0
C1201 C 0.80589 0.26105 0.87671 0.0
N1202 N 0.83902 0.36099 0.91005 0.0
N1203 N 0.73744 0.2322 0.87718 0.0
H1204 H 0.84764 0.24062 0.82951 0.0
H1205 H 0.79941 0.21788 0.82461 0.0
H1206 H 0.70697 0.2326 0.88679 0.0
H1207 H 0.74566 0.20647 0.85897 0.0
H1208 H 0.82749 0.3892 0.92009 0.0
H1209 H 0.86477 0.36278 0.89 0.0
H1210 H 0.78534 0.3773 0.97216 0.0
H1211 H 0.73573 0.35711 0.9712 0.0
C1212 C 0.31466 0.755 0.646 0.0
C1213 C 0.28653 0.72925 0.66821 0.0
C1214 C 0.25644 0.78911 0.70303 0.0
C1215 C 0.27492 0.8133 0.6703 0.0
N1216 N 0.33632 0.82489 0.63066 0.0
N1217 N 0.23381 0.72087 0.72232 0.0
C1218 C 0.30955 0.79789 0.64887 0.0
C1219 C 0.25897 0.74597 0.69904 0.0
N1220 N 0.34426 0.7382 0.62028 0.0
N1221 N 0.23974 0.80717 0.73912 0.0
H1222 H 0.23502 0.68912 0.71939 0.0
H1223 H 0.21052 0.73167 0.74247 0.0
H1224 H 0.24424 0.83817 0.74572 0.0
H1225 H 0.22752 0.79069 0.76523 0.0
H1226 H 0.36257 0.75496 0.59901 0.0
H1227 H 0.35024 0.70694 0.62024 0.0
H1228 H 0.36364 0.81648 0.61613 0.0
H1229 H 0.33196 0.85644 0.63362 0.0
C1230 C 0.75622 0.30824 0.66973 0.0
C1231 C 0.79026 0.28519 0.68243 0.0
C1232 C 0.74548 0.22792 0.70157 0.0
C1233 C 0.7136 0.24757 0.67865 0.0
N1234 N 0.6851 0.30993 0.6515 0.0
N1235 N 0.81707 0.22984 0.72313 0.0
C1236 C 0.71772 0.28921 0.66728 0.0
C1237 C 0.78439 0.24739 0.70356 0.0
N1238 N 0.76052 0.3477 0.65691 0.0
N1239 N 0.73888 0.19034 0.71941 0.0
H1240 H 0.84459 0.24575 0.72558 0.0
H1241 H 0.81683 0.20144 0.73825 0.0
H1242 H 0.71036 0.17647 0.71947 0.0
H1243 H 0.7608 0.17355 0.73579 0.0
H1244 H 0.78828 0.36338 0.65793 0.0
H1245 H 0.78828 0.36338 0.65793 0.0
H1246 H 0.68714 0.34032 0.64131 0.0
H1247 H 0.65618 0.29658 0.64991 0.0
loop_
_geom_bond_atom_site_label_1
_geom_bond_atom_site_label_2
_geom_bond_distance
_geom_bond_site_symmetry_2
_ccdc_geom_bond_type
C0 C1 1.351 1_545 S
C0 N3 1.368 . S
C0 H5 0.931 . S
C1 C0 1.351 1_565 S
C1 N2 1.373 . S
C1 H29 0.930 . S
N2 C1 1.373 . S
N2 C4 1.340 1_565 S
N3 C0 1.368 . S
N3 C4 1.321 . S
N3 Co6 2.135 . S
C4 N2 1.340 1_545 S
C4 N3 1.321 . S
C4 H28 0.930 . S
H5 C0 0.931 . S
Co6 N3 2.135 . S
Co6 N9 2.121 . S
Co6 O14 2.055 . S
Co6 O17 2.039 . S
Co6 N20 2.140 . S
C7 O8 1.227 . S
C7 O17 1.265 . S
O8 C7 1.227 . S
N9 Co6 2.121 . S
N9 C11 1.375 . S
N9 C12 1.313 . S
C10 C11 1.338 . S
C10 N13 1.377 . S
C10 H30 0.930 . S
C11 N9 1.375 . S
C11 C10 1.338 . S
C11 H15 0.931 . S
C12 N9 1.313 . S
C12 N13 1.344 . S
C12 H16 0.930 . S
N13 C10 1.377 . S
N13 C12 1.344 . S
O14 Co6 2.055 . S
O14 C18 1.253 . S
H15 C11 0.931 . S
H16 C12 0.930 . S
O17 Co6 2.039 . S
O17 C7 1.265 . S
C18 O14 1.253 . S
C18 O19 1.227 . S
O19 C18 1.227 . S
N20 Co6 2.140 . S
N20 C23 1.346 . S
N20 C24 1.345 . S
C21 C22 1.387 . S
C21 C25 1.391 . S
C22 C21 1.387 . S
C22 C23 1.369 . S
C22 H31 0.929 1_554 S
C23 N20 1.346 . S
C23 C22 1.369 . S
C23 H26 0.928 . S
C24 N20 1.345 . S
C24 C25 1.371 . S
C24 H27 0.931 . S
C25 C21 1.391 . S
C25 C24 1.371 . S
C25 H32 0.930 . S
H26 C23 0.928 . S
H27 C24 0.931 . S
H28 C4 0.930 . S
H29 C1 0.930 . S
H30 C10 0.930 . S
H31 C22 0.929 1_556 S
H32 C25 0.930 . S
C33 C34 1.351 . S
C33 N36 1.368 . S
C33 H38 0.931 . S
C34 C33 1.351 . S
C34 N35 1.373 . S
C34 H62 0.930 . S
N35 C34 1.373 . S
N35 C37 1.340 . S
N36 C33 1.368 . S
N36 C37 1.321 . S
N36 Co39 2.135 . S
C37 N35 1.340 . S
C37 N36 1.321 . S
C37 H61 0.930 . S
H38 C33 0.931 . S
Co39 N36 2.135 . S
Co39 N42 2.121 . S
Co39 O47 2.055 . S
Co39 O50 2.039 . S
Co39 N53 2.140 . S
C40 O41 1.227 . S
C40 O50 1.265 . S
O41 C40 1.227 . S
N42 Co39 2.121 . S
N42 C44 1.375 . S
N42 C45 1.313 . S
C43 C44 1.338 . S
C43 N46 1.377 . S
C43 H63 0.930 . S
C44 N42 1.375 . S
C44 C43 1.338 . S
C44 H48 0.931 . S
C45 N42 1.313 . S
C45 N46 1.344 . S
C45 H49 0.930 . S
N46 C43 1.377 . S
N46 C45 1.344 . S
O47 Co39 2.055 . S
O47 C51 1.253 . S
H48 C44 0.931 . S
H49 C45 0.930 . S
O50 Co39 2.039 . S
O50 C40 1.265 . S
C51 O47 1.253 . S
C51 O52 1.227 . S
O52 C51 1.227 . S
N53 Co39 2.140 . S
N53 C56 1.346 . S
N53 C57 1.345 . S
C54 C55 1.387 . S
C54 C58 1.391 . S
C55 C54 1.387 . S
C55 C56 1.369 . S
C55 H64 0.929 1_554 S
C56 N53 1.346 . S
C56 C55 1.369 . S
C56 H59 0.928 . S
C57 N53 1.345 . S
C57 C58 1.371 . S
C57 H60 0.931 . S
C58 C54 1.391 . S
C58 C57 1.371 . S
C58 H65 0.930 . S
H59 C56 0.928 . S
H60 C57 0.931 . S
H61 C37 0.930 . S
H62 C34 0.930 . S
H63 C43 0.930 . S
H64 C55 0.929 1_556 S
H65 C58 0.930 . S
C66 C67 1.351 . S
C66 N69 1.368 . S
C66 H71 0.931 . S
C67 C66 1.351 . S
C67 N68 1.373 . S
C67 H95 0.930 . S
N68 C67 1.373 . S
N68 C70 1.340 . S
N69 C66 1.368 . S
N69 C70 1.321 . S
N69 Co72 2.135 . S
C70 N68 1.340 . S
C70 N69 1.321 . S
C70 H94 0.930 . S
H71 C66 0.931 . S
Co72 N69 2.135 . S
Co72 N75 2.121 . S
Co72 O80 2.055 . S
Co72 O83 2.039 . S
Co72 N86 2.140 . S
C73 O74 1.227 . S
C73 O83 1.265 . S
O74 C73 1.227 . S
N75 Co72 2.121 . S
N75 C77 1.375 . S
N75 C78 1.313 . S
C76 C77 1.338 . S
C76 N79 1.377 . S
C76 H96 0.930 . S
C77 N75 1.375 . S
C77 C76 1.338 . S
C77 H81 0.931 . S
C78 N75 1.313 . S
C78 N79 1.344 . S
C78 H82 0.930 . S
N79 C76 1.377 . S
N79 C78 1.344 . S
O80 Co72 2.055 . S
O80 C84 1.253 . S
H81 C77 0.931 . S
H82 C78 0.930 . S
O83 Co72 2.039 . S
O83 C73 1.265 . S
C84 O80 1.253 . S
C84 O85 1.227 . S
O85 C84 1.227 . S
N86 Co72 2.140 . S
N86 C89 1.346 . S
N86 C90 1.345 . S
C87 C88 1.387 . S
C87 C91 1.391 . S
C88 C87 1.387 . S
C88 C89 1.369 . S
C88 H97 0.929 1_554 S
C89 N86 1.346 . S
C89 C88 1.369 . S
C89 H92 0.928 . S
C90 N86 1.345 . S
C90 C91 1.371 . S
C90 H93 0.931 . S
C91 C87 1.391 . S
C91 C90 1.371 . S
C91 H98 0.930 . S
H92 C89 0.928 . S
H93 C90 0.931 . S
H94 C70 0.930 . S
H95 C67 0.930 . S
H96 C76 0.930 . S
H97 C88 0.929 1_556 S
H98 C91 0.930 . S
C99 C100 1.351 1_455 S
C99 N102 1.368 . S
C99 H104 0.931 . S
C100 C99 1.351 1_655 S
C100 N101 1.373 . S
C100 H128 0.930 . S
N101 C100 1.373 . S
N101 C103 1.340 1_655 S
N102 C99 1.368 . S
N102 C103 1.321 . S
N102 Co105 2.135 . S
C103 N101 1.340 1_455 S
C103 N102 1.321 . S
C103 H127 0.930 . S
H104 C99 0.931 . S
Co105 N102 2.135 . S
Co105 N108 2.121 . S
Co105 O113 2.055 . S
Co105 O116 2.039 . S
Co105 N119 2.140 . S
C106 O107 1.227 . S
C106 O116 1.265 . S
O107 C106 1.227 . S
N108 Co105 2.121 . S
N108 C110 1.375 . S
N108 C111 1.313 . S
C109 C110 1.338 . S
C109 N112 1.377 . S
C109 H129 0.930 . S
C110 N108 1.375 . S
C110 C109 1.338 . S
C110 H114 0.931 . S
C111 N108 1.313 . S
C111 N112 1.344 . S
C111 H115 0.930 . S
N112 C109 1.377 . S
N112 C111 1.344 . S
O113 Co105 2.055 . S
O113 C117 1.253 . S
H114 C110 0.931 . S
H115 C111 0.930 . S
O116 Co105 2.039 . S
O116 C106 1.265 . S
C117 O113 1.253 . S
C117 O118 1.227 . S
O118 C117 1.227 . S
N119 Co105 2.140 . S
N119 C122 1.346 . S
N119 C123 1.345 . S
C120 C121 1.387 . S
C120 C124 1.391 . S
C121 C120 1.387 . S
C121 C122 1.369 . S
C121 H130 0.929 1_554 S
C122 N119 1.346 . S
C122 C121 1.369 . S
C122 H125 0.928 . S
C123 N119 1.345 . S
C123 C124 1.371 . S
C123 H126 0.931 . S
C124 C120 1.391 . S
C124 C123 1.371 . S
C124 H131 0.930 . S
H125 C122 0.928 . S
H126 C123 0.931 . S
H127 C103 0.930 . S
H128 C100 0.930 . S
H129 C109 0.930 . S
H130 C121 0.929 1_556 S
H131 C124 0.930 . S
C132 C133 1.351 . S
C132 N135 1.368 . S
C132 H137 0.931 . S
C133 C132 1.351 . S
C133 N134 1.373 . S
C133 H161 0.930 . S
N134 C133 1.373 . S
N134 C136 1.340 . S
N135 C132 1.368 . S
N135 C136 1.321 . S
N135 Co138 2.135 . S
C136 N134 1.340 . S
C136 N135 1.321 . S
C136 H160 0.930 . S
H137 C132 0.931 . S
Co138 N135 2.135 . S
Co138 N141 2.121 . S
Co138 O146 2.055 . S
Co138 O149 2.039 . S
Co138 N152 2.140 . S
C139 O140 1.227 . S
C139 O149 1.265 . S
O140 C139 1.227 . S
N141 Co138 2.121 . S
N141 C143 1.375 . S
N141 C144 1.313 . S
C142 C143 1.338 . S
C142 N145 1.377 . S
C142 H162 0.930 . S
C143 N141 1.375 . S
C143 C142 1.338 . S
C143 H147 0.931 . S
C144 N141 1.313 . S
C144 N145 1.344 . S
C144 H148 0.930 . S
N145 C142 1.377 . S
N145 C144 1.344 . S
O146 Co138 2.055 . S
O146 C150 1.253 . S
H147 C143 0.931 . S
H148 C144 0.930 . S
O149 Co138 2.039 . S
O149 C139 1.265 . S
C150 O146 1.253 . S
C150 O151 1.227 . S
O151 C150 1.227 . S
N152 Co138 2.140 . S
N152 C155 1.346 . S
N152 C156 1.345 . S
C153 C154 1.387 . S
C153 C157 1.391 . S
C154 C153 1.387 . S
C154 C155 1.369 . S
C154 H163 0.929 . S
C155 N152 1.346 . S
C155 C154 1.369 . S
C155 H158 0.928 . S
C156 N152 1.345 . S
C156 C157 1.371 . S
C156 H159 0.931 . S
C157 C153 1.391 . S
C157 C156 1.371 . S
C157 H164 0.930 . S
H158 C155 0.928 . S
H159 C156 0.931 . S
H160 C136 0.930 . S
H161 C133 0.930 . S
H162 C142 0.930 . S
H163 C154 0.929 . S
H164 C157 0.930 . S
C165 C166 1.351 1_455 S
C165 N168 1.368 . S
C165 H170 0.931 . S
C166 C165 1.351 1_655 S
C166 N167 1.373 . S
C166 H194 0.930 . S
N167 C166 1.373 . S
N167 C169 1.340 1_655 S
N168 C165 1.368 . S
N168 C169 1.321 . S
N168 Co171 2.135 . S
C169 N167 1.340 1_455 S
C169 N168 1.321 . S
C169 H193 0.930 . S
H170 C165 0.931 . S
Co171 N168 2.135 . S
Co171 N174 2.121 . S
Co171 O179 2.055 . S
Co171 O182 2.039 . S
Co171 N185 2.140 . S
C172 O173 1.227 . S
C172 O182 1.265 . S
O173 C172 1.227 . S
N174 Co171 2.121 . S
N174 C176 1.375 . S
N174 C177 1.313 . S
C175 C176 1.338 . S
C175 N178 1.377 . S
C175 H195 0.930 . S
C176 N174 1.375 . S
C176 C175 1.338 . S
C176 H180 0.931 . S
C177 N174 1.313 . S
C177 N178 1.344 . S
C177 H181 0.930 . S
N178 C175 1.377 . S
N178 C177 1.344 . S
O179 Co171 2.055 . S
O179 C183 1.253 . S
H180 C176 0.931 . S
H181 C177 0.930 . S
O182 Co171 2.039 . S
O182 C172 1.265 . S
C183 O179 1.253 . S
C183 O184 1.227 . S
O184 C183 1.227 . S
N185 Co171 2.140 . S
N185 C188 1.346 . S
N185 C189 1.345 . S
C186 C187 1.387 . S
C186 C190 1.391 . S
C187 C186 1.387 . S
C187 C188 1.369 . S
C187 H196 0.929 . S
C188 N185 1.346 . S
C188 C187 1.369 . S
C188 H191 0.928 . S
C189 N185 1.345 . S
C189 C190 1.371 . S
C189 H192 0.931 . S
C190 C186 1.391 . S
C190 C189 1.371 . S
C190 H197 0.930 . S
H191 C188 0.928 . S
H192 C189 0.931 . S
H193 C169 0.930 . S
H194 C166 0.930 . S
H195 C175 0.930 . S
H196 C187 0.929 . S
H197 C190 0.930 . S
C198 C199 1.351 1_545 S
C198 N201 1.368 . S
C198 H203 0.931 . S
C199 C198 1.351 1_565 S
C199 N200 1.373 . S
C199 H227 0.930 . S
N200 C199 1.373 . S
N200 C202 1.340 1_565 S
N201 C198 1.368 . S
N201 C202 1.321 . S
N201 Co204 2.135 . S
C202 N200 1.340 1_545 S
C202 N201 1.321 . S
C202 H226 0.930 . S
H203 C198 0.931 . S
Co204 N201 2.135 . S
Co204 N207 2.121 . S
Co204 O212 2.055 . S
Co204 O215 2.039 . S
Co204 N218 2.140 . S
C205 O206 1.227 . S
C205 O215 1.265 . S
O206 C205 1.227 . S
N207 Co204 2.121 . S
N207 C209 1.375 . S
N207 C210 1.313 . S
C208 C209 1.338 . S
C208 N211 1.377 . S
C208 H228 0.930 . S
C209 N207 1.375 . S
C209 C208 1.338 . S
C209 H213 0.931 . S
C210 N207 1.313 . S
C210 N211 1.344 . S
C210 H214 0.930 . S
N211 C208 1.377 . S
N211 C210 1.344 . S
O212 Co204 2.055 . S
O212 C216 1.253 . S
H213 C209 0.931 . S
H214 C210 0.930 . S
O215 Co204 2.039 . S
O215 C205 1.265 . S
C216 O212 1.253 . S
C216 O217 1.227 . S
O217 C216 1.227 . S
N218 Co204 2.140 . S
N218 C221 1.346 . S
N218 C222 1.345 . S
C219 C220 1.387 . S
C219 C223 1.391 . S
C220 C219 1.387 . S
C220 C221 1.369 . S
C220 H229 0.929 . S
C221 N218 1.346 . S
C221 C220 1.369 . S
C221 H224 0.928 . S
C222 N218 1.345 . S
C222 C223 1.371 . S
C222 H225 0.931 . S
C223 C219 1.391 . S
C223 C222 1.371 . S
C223 H230 0.930 . S
H224 C221 0.928 . S
H225 C222 0.931 . S
H226 C202 0.930 . S
H227 C199 0.930 . S
H228 C208 0.930 . S
H229 C220 0.929 . S
H230 C223 0.930 . S
C231 C232 1.351 . S
C231 N234 1.368 . S
C231 H236 0.931 . S
C232 C231 1.351 . S
C232 N233 1.373 . S
C232 H260 0.930 . S
N233 C232 1.373 . S
N233 C235 1.340 . S
N234 C231 1.368 . S
N234 C235 1.321 . S
N234 Co237 2.135 . S
C235 N233 1.340 . S
C235 N234 1.321 . S
C235 H259 0.930 . S
H236 C231 0.931 . S
Co237 N234 2.135 . S
Co237 N240 2.121 . S
Co237 O245 2.055 . S
Co237 O248 2.039 . S
Co237 N251 2.140 . S
C238 O239 1.227 . S
C238 O248 1.265 . S
O239 C238 1.227 . S
N240 Co237 2.121 . S
N240 C242 1.375 . S
N240 C243 1.313 . S
C241 C242 1.338 . S
C241 N244 1.377 . S
C241 H261 0.930 . S
C242 N240 1.375 . S
C242 C241 1.338 . S
C242 H246 0.931 . S
C243 N240 1.313 . S
C243 N244 1.344 . S
C243 H247 0.930 . S
N244 C241 1.377 . S
N244 C243 1.344 . S
O245 Co237 2.055 . S
O245 C249 1.253 . S
H246 C242 0.931 . S
H247 C243 0.930 . S
O248 Co237 2.039 . S
O248 C238 1.265 . S
C249 O245 1.253 . S
C249 O250 1.227 . S
O250 C249 1.227 . S
N251 Co237 2.140 . S
N251 C254 1.346 . S
N251 C255 1.345 . S
C252 C253 1.387 . S
C252 C256 1.391 . S
C253 C252 1.387 . S
C253 C254 1.369 . S
C253 H262 0.929 . S
C254 N251 1.346 . S
C254 C253 1.369 . S
C254 H257 0.928 . S
C255 N251 1.345 . S
C255 C256 1.371 . S
C255 H258 0.931 . S
C256 C252 1.391 . S
C256 C255 1.371 . S
C256 H263 0.930 . S
H257 C254 0.928 . S
H258 C255 0.931 . S
H259 C235 0.930 . S
H260 C232 0.930 . S
H261 C241 0.930 . S
H262 C253 0.929 . S
H263 C256 0.930 . S
C264 C265 1.351 1_565 S
C264 N267 1.368 . S
C264 H269 0.931 . S
C265 C264 1.351 1_545 S
C265 N266 1.373 . S
C265 H293 0.930 . S
N266 C265 1.373 . S
N266 C268 1.340 1_545 S
N267 C264 1.368 . S
N267 C268 1.321 . S
N267 Co270 2.135 . S
C268 N266 1.340 1_565 S
C268 N267 1.321 . S
C268 H292 0.930 . S
H269 C264 0.931 . S
Co270 N267 2.135 . S
Co270 N273 2.121 . S
Co270 O278 2.055 . S
Co270 O281 2.039 . S
Co270 N284 2.140 . S
C271 O272 1.227 . S
C271 O281 1.265 . S
O272 C271 1.227 . S
N273 Co270 2.121 . S
N273 C275 1.375 . S
N273 C276 1.313 . S
C274 C275 1.338 . S
C274 N277 1.377 . S
C274 H294 0.930 . S
C275 N273 1.375 . S
C275 C274 1.338 . S
C275 H279 0.931 . S
C276 N273 1.313 . S
C276 N277 1.344 . S
C276 H280 0.930 . S
N277 C274 1.377 . S
N277 C276 1.344 . S
O278 Co270 2.055 . S
O278 C282 1.253 . S
H279 C275 0.931 . S
H280 C276 0.930 . S
O281 Co270 2.039 . S
O281 C271 1.265 . S
C282 O278 1.253 . S
C282 O283 1.227 . S
O283 C282 1.227 . S
N284 Co270 2.140 . S
N284 C287 1.346 . S
N284 C288 1.345 . S
C285 C286 1.387 . S
C285 C289 1.391 . S
C286 C285 1.387 . S
C286 C287 1.369 . S
C286 H295 0.929 1_556 S
C287 N284 1.346 . S
C287 C286 1.369 . S
C287 H290 0.928 . S
C288 N284 1.345 . S
C288 C289 1.371 . S
C288 H291 0.931 . S
C289 C285 1.391 . S
C289 C288 1.371 . S
C289 H296 0.930 . S
H290 C287 0.928 . S
H291 C288 0.931 . S
H292 C268 0.930 . S
H293 C265 0.930 . S
H294 C274 0.930 . S
H295 C286 0.929 1_554 S
H296 C289 0.930 . S
C297 C298 1.351 . S
C297 N300 1.368 . S
C297 H302 0.931 . S
C298 C297 1.351 . S
C298 N299 1.373 . S
C298 H326 0.930 . S
N299 C298 1.373 . S
N299 C301 1.340 . S
N300 C297 1.368 . S
N300 C301 1.321 . S
N300 Co303 2.135 . S
C301 N299 1.340 . S
C301 N300 1.321 . S
C301 H325 0.930 . S
H302 C297 0.931 . S
Co303 N300 2.135 . S
Co303 N306 2.121 . S
Co303 O311 2.055 . S
Co303 O314 2.039 . S
Co303 N317 2.140 . S
C304 O305 1.227 . S
C304 O314 1.265 . S
O305 C304 1.227 . S
N306 Co303 2.121 . S
N306 C308 1.375 . S
N306 C309 1.313 . S
C307 C308 1.338 . S
C307 N310 1.377 . S
C307 H327 0.930 . S
C308 N306 1.375 . S
C308 C307 1.338 . S
C308 H312 0.931 . S
C309 N306 1.313 . S
C309 N310 1.344 . S
C309 H313 0.930 . S
N310 C307 1.377 . S
N310 C309 1.344 . S
O311 Co303 2.055 . S
O311 C315 1.253 . S
H312 C308 0.931 . S
H313 C309 0.930 . S
O314 Co303 2.039 . S
O314 C304 1.265 . S
C315 O311 1.253 . S
C315 O316 1.227 . S
O316 C315 1.227 . S
N317 Co303 2.140 . S
N317 C320 1.346 . S
N317 C321 1.345 . S
C318 C319 1.387 . S
C318 C322 1.391 . S
C319 C318 1.387 . S
C319 C320 1.369 . S
C319 H328 0.929 1_556 S
C320 N317 1.346 . S
C320 C319 1.369 . S
C320 H323 0.928 . S
C321 N317 1.345 . S
C321 C322 1.371 . S
C321 H324 0.931 . S
C322 C318 1.391 . S
C322 C321 1.371 . S
C322 H329 0.930 . S
H323 C320 0.928 . S
H324 C321 0.931 . S
H325 C301 0.930 . S
H326 C298 0.930 . S
H327 C307 0.930 . S
H328 C319 0.929 1_554 S
H329 C322 0.930 . S
C330 C331 1.351 . S
C330 N333 1.368 . S
C330 H335 0.931 . S
C331 C330 1.351 . S
C331 N332 1.373 . S
C331 H359 0.930 . S
N332 C331 1.373 . S
N332 C334 1.340 . S
N333 C330 1.368 . S
N333 C334 1.321 . S
N333 Co336 2.135 . S
C334 N332 1.340 . S
C334 N333 1.321 . S
C334 H358 0.930 . S
H335 C330 0.931 . S
Co336 N333 2.135 . S
Co336 N339 2.121 . S
Co336 O344 2.055 . S
Co336 O347 2.039 . S
Co336 N350 2.140 . S
C337 O338 1.227 . S
C337 O347 1.265 . S
O338 C337 1.227 . S
N339 Co336 2.121 . S
N339 C341 1.375 . S
N339 C342 1.313 . S
C340 C341 1.338 . S
C340 N343 1.377 . S
C340 H360 0.930 . S
C341 N339 1.375 . S
C341 C340 1.338 . S
C341 H345 0.931 . S
C342 N339 1.313 . S
C342 N343 1.344 . S
C342 H346 0.930 . S
N343 C340 1.377 . S
N343 C342 1.344 . S
O344 Co336 2.055 . S
O344 C348 1.253 . S
H345 C341 0.931 . S
H346 C342 0.930 . S
O347 Co336 2.039 . S
O347 C337 1.265 . S
C348 O344 1.253 . S
C348 O349 1.227 . S
O349 C348 1.227 . S
N350 Co336 2.140 . S
N350 C353 1.346 . S
N350 C354 1.345 . S
C351 C352 1.387 . S
C351 C355 1.391 . S
C352 C351 1.387 . S
C352 C353 1.369 . S
C352 H361 0.929 1_556 S
C353 N350 1.346 . S
C353 C352 1.369 . S
C353 H356 0.928 . S
C354 N350 1.345 . S
C354 C355 1.371 . S
C354 H357 0.931 . S
C355 C351 1.391 . S
C355 C354 1.371 . S
C355 H362 0.930 . S
H356 C353 0.928 . S
H357 C354 0.931 . S
H358 C334 0.930 . S
H359 C331 0.930 . S
H360 C340 0.930 . S
H361 C352 0.929 1_554 S
H362 C355 0.930 . S
C363 C364 1.351 1_655 S
C363 N366 1.368 . S
C363 H368 0.931 . S
C364 C363 1.351 1_455 S
C364 N365 1.373 . S
C364 H392 0.930 . S
N365 C364 1.373 . S
N365 C367 1.340 1_455 S
N366 C363 1.368 . S
N366 C367 1.321 . S
N366 Co369 2.135 . S
C367 N365 1.340 1_655 S
C367 N366 1.321 . S
C367 H391 0.930 . S
H368 C363 0.931 . S
Co369 N366 2.135 . S
Co369 N372 2.121 . S
Co369 O377 2.055 . S
Co369 O380 2.039 . S
Co369 N383 2.140 . S
C370 O371 1.227 . S
C370 O380 1.265 . S
O371 C370 1.227 . S
N372 Co369 2.121 . S
N372 C374 1.375 . S
N372 C375 1.313 . S
C373 C374 1.338 . S
C373 N376 1.377 . S
C373 H393 0.930 . S
C374 N372 1.375 . S
C374 C373 1.338 . S
C374 H378 0.931 . S
C375 N372 1.313 . S
C375 N376 1.344 . S
C375 H379 0.930 . S
N376 C373 1.377 . S
N376 C375 1.344 . S
O377 Co369 2.055 . S
O377 C381 1.253 . S
H378 C374 0.931 . S
H379 C375 0.930 . S
O380 Co369 2.039 . S
O380 C370 1.265 . S
C381 O377 1.253 . S
C381 O382 1.227 . S
O382 C381 1.227 . S
N383 Co369 2.140 . S
N383 C386 1.346 . S
N383 C387 1.345 . S
C384 C385 1.387 . S
C384 C388 1.391 . S
C385 C384 1.387 . S
C385 C386 1.369 . S
C385 H394 0.929 1_556 S
C386 N383 1.346 . S
C386 C385 1.369 . S
C386 H389 0.928 . S
C387 N383 1.345 . S
C387 C388 1.371 . S
C387 H390 0.931 . S
C388 C384 1.391 . S
C388 C387 1.371 . S
C388 H395 0.930 . S
H389 C386 0.928 . S
H390 C387 0.931 . S
H391 C367 0.930 . S
H392 C364 0.930 . S
H393 C373 0.930 . S
H394 C385 0.929 1_554 S
H395 C388 0.930 . S
C396 C397 1.351 . S
C396 N399 1.368 . S
C396 H401 0.931 . S
C397 C396 1.351 . S
C397 N398 1.373 . S
C397 H425 0.930 . S
N398 C397 1.373 . S
N398 C400 1.340 . S
N399 C396 1.368 . S
N399 C400 1.321 . S
N399 Co402 2.135 . S
C400 N398 1.340 . S
C400 N399 1.321 . S
C400 H424 0.930 . S
H401 C396 0.931 . S
Co402 N399 2.135 . S
Co402 N405 2.121 . S
Co402 O410 2.055 . S
Co402 O413 2.039 . S
Co402 N416 2.140 . S
C403 O404 1.227 . S
C403 O413 1.265 . S
O404 C403 1.227 . S
N405 Co402 2.121 . S
N405 C407 1.375 . S
N405 C408 1.313 . S
C406 C407 1.338 . S
C406 N409 1.377 . S
C406 H426 0.930 . S
C407 N405 1.375 . S
C407 C406 1.338 . S
C407 H411 0.931 . S
C408 N405 1.313 . S
C408 N409 1.344 . S
C408 H412 0.930 . S
N409 C406 1.377 . S
N409 C408 1.344 . S
O410 Co402 2.055 . S
O410 C414 1.253 . S
H411 C407 0.931 . S
H412 C408 0.930 . S
O413 Co402 2.039 . S
O413 C403 1.265 . S
C414 O410 1.253 . S
C414 O415 1.227 . S
O415 C414 1.227 . S
N416 Co402 2.140 . S
N416 C419 1.346 . S
N416 C420 1.345 . S
C417 C418 1.387 . S
C417 C421 1.391 . S
C418 C417 1.387 . S
C418 C419 1.369 . S
C418 H427 0.929 . S
C419 N416 1.346 . S
C419 C418 1.369 . S
C419 H422 0.928 . S
C420 N416 1.345 . S
C420 C421 1.371 . S
C420 H423 0.931 . S
C421 C417 1.391 . S
C421 C420 1.371 . S
C421 H428 0.930 . S
H422 C419 0.928 . S
H423 C420 0.931 . S
H424 C400 0.930 . S
H425 C397 0.930 . S
H426 C406 0.930 . S
H427 C418 0.929 . S
H428 C421 0.930 . S
C429 C430 1.351 1_655 S
C429 N432 1.368 . S
C429 H434 0.931 . S
C430 C429 1.351 1_455 S
C430 N431 1.373 . S
C430 H458 0.930 . S
N431 C430 1.373 . S
N431 C433 1.340 1_455 S
N432 C429 1.368 . S
N432 C433 1.321 . S
N432 Co435 2.135 . S
C433 N431 1.340 1_655 S
C433 N432 1.321 . S
C433 H457 0.930 . S
H434 C429 0.931 . S
Co435 N432 2.135 . S
Co435 N438 2.121 . S
Co435 O443 2.055 . S
Co435 O446 2.039 . S
Co435 N449 2.140 . S
C436 O437 1.227 . S
C436 O446 1.265 . S
O437 C436 1.227 . S
N438 Co435 2.121 . S
N438 C440 1.375 . S
N438 C441 1.313 . S
C439 C440 1.338 . S
C439 N442 1.377 . S
C439 H459 0.930 . S
C440 N438 1.375 . S
C440 C439 1.338 . S
C440 H444 0.931 . S
C441 N438 1.313 . S
C441 N442 1.344 . S
C441 H445 0.930 . S
N442 C439 1.377 . S
N442 C441 1.344 . S
O443 Co435 2.055 . S
O443 C447 1.253 . S
H444 C440 0.931 . S
H445 C441 0.930 . S
O446 Co435 2.039 . S
O446 C436 1.265 . S
C447 O443 1.253 . S
C447 O448 1.227 . S
O448 C447 1.227 . S
N449 Co435 2.140 . S
N449 C452 1.346 . S
N449 C453 1.345 . S
C450 C451 1.387 . S
C450 C454 1.391 . S
C451 C450 1.387 . S
C451 C452 1.369 . S
C451 H460 0.929 . S
C452 N449 1.346 . S
C452 C451 1.369 . S
C452 H455 0.928 . S
C453 N449 1.345 . S
C453 C454 1.371 . S
C453 H456 0.931 . S
C454 C450 1.391 . S
C454 C453 1.371 . S
C454 H461 0.930 . S
H455 C452 0.928 . S
H456 C453 0.931 . S
H457 C433 0.930 . S
H458 C430 0.930 . S
H459 C439 0.930 . S
H460 C451 0.929 . S
H461 C454 0.930 . S
C462 C463 1.351 1_565 S
C462 N465 1.368 . S
C462 H467 0.931 . S
C463 C462 1.351 1_545 S
C463 N464 1.373 . S
C463 H491 0.930 . S
N464 C463 1.373 . S
N464 C466 1.340 1_545 S
N465 C462 1.368 . S
N465 C466 1.321 . S
N465 Co468 2.135 . S
C466 N464 1.340 1_565 S
C466 N465 1.321 . S
C466 H490 0.930 . S
H467 C462 0.931 . S
Co468 N465 2.135 . S
Co468 N471 2.121 . S
Co468 O476 2.055 . S
Co468 O479 2.039 . S
Co468 N482 2.140 . S
C469 O470 1.227 . S
C469 O479 1.265 . S
O470 C469 1.227 . S
N471 Co468 2.121 . S
N471 C473 1.375 . S
N471 C474 1.313 . S
C472 C473 1.338 . S
C472 N475 1.377 . S
C472 H492 0.930 . S
C473 N471 1.375 . S
C473 C472 1.338 . S
C473 H477 0.931 . S
C474 N471 1.313 . S
C474 N475 1.344 . S
C474 H478 0.930 . S
N475 C472 1.377 . S
N475 C474 1.344 . S
O476 Co468 2.055 . S
O476 C480 1.253 . S
H477 C473 0.931 . S
H478 C474 0.930 . S
O479 Co468 2.039 . S
O479 C469 1.265 . S
C480 O476 1.253 . S
C480 O481 1.227 . S
O481 C480 1.227 . S
N482 Co468 2.140 . S
N482 C485 1.346 . S
N482 C486 1.345 . S
C483 C484 1.387 . S
C483 C487 1.391 . S
C484 C483 1.387 . S
C484 C485 1.369 . S
C484 H493 0.929 . S
C485 N482 1.346 . S
C485 C484 1.369 . S
C485 H488 0.928 . S
C486 N482 1.345 . S
C486 C487 1.371 . S
C486 H489 0.931 . S
C487 C483 1.391 . S
C487 C486 1.371 . S
C487 H494 0.930 . S
H488 C485 0.928 . S
H489 C486 0.931 . S
H490 C466 0.930 . S
H491 C463 0.930 . S
H492 C472 0.930 . S
H493 C484 0.929 . S
H494 C487 0.930 . S
C495 C496 1.351 . S
C495 N498 1.368 . S
C495 H500 0.931 . S
C496 C495 1.351 . S
C496 N497 1.373 . S
C496 H524 0.930 . S
N497 C496 1.373 . S
N497 C499 1.340 . S
N498 C495 1.368 . S
N498 C499 1.321 . S
N498 Co501 2.135 . S
C499 N497 1.340 . S
C499 N498 1.321 . S
C499 H523 0.930 . S
H500 C495 0.931 . S
Co501 N498 2.135 . S
Co501 N504 2.121 . S
Co501 O509 2.055 . S
Co501 O512 2.039 . S
Co501 N515 2.140 . S
C502 O503 1.227 . S
C502 O512 1.265 . S
O503 C502 1.227 . S
N504 Co501 2.121 . S
N504 C506 1.375 . S
N504 C507 1.313 . S
C505 C506 1.338 . S
C505 N508 1.377 . S
C505 H525 0.930 . S
C506 N504 1.375 . S
C506 C505 1.338 . S
C506 H510 0.931 . S
C507 N504 1.313 . S
C507 N508 1.344 . S
C507 H511 0.930 . S
N508 C505 1.377 . S
N508 C507 1.344 . S
O509 Co501 2.055 . S
O509 C513 1.253 . S
H510 C506 0.931 . S
H511 C507 0.930 . S
O512 Co501 2.039 . S
O512 C502 1.265 . S
C513 O509 1.253 . S
C513 O514 1.227 . S
O514 C513 1.227 . S
N515 Co501 2.140 . S
N515 C518 1.346 . S
N515 C519 1.345 . S
C516 C517 1.387 . S
C516 C520 1.391 . S
C517 C516 1.387 . S
C517 C518 1.369 . S
C517 H526 0.929 . S
C518 N515 1.346 . S
C518 C517 1.369 . S
C518 H521 0.928 . S
C519 N515 1.345 . S
C519 C520 1.371 . S
C519 H522 0.931 . S
C520 C516 1.391 . S
C520 C519 1.371 . S
C520 H527 0.930 . S
H521 C518 0.928 . S
H522 C519 0.931 . S
H523 C499 0.930 . S
H524 C496 0.930 . S
H525 C505 0.930 . S
H526 C517 0.929 . S
H527 C520 0.930 . S
C528 C529 1.363 . S
C528 C534 1.379 . S
C528 N536 1.356 . S
C529 C528 1.363 . S
C529 C535 1.363 . S
C530 C531 1.363 . S
C530 C535 1.379 . S
C530 N537 1.356 . S
C531 C530 1.363 . S
C531 C534 1.363 . S
N532 C534 1.356 . S
N532 H544 0.984 . S
N532 H545 0.985 . S
N533 C535 1.356 . S
N533 H538 0.984 . S
N533 H539 0.985 1_545 S
C534 C528 1.379 . S
C534 C531 1.363 . S
C534 N532 1.356 . S
C535 C529 1.363 . S
C535 C530 1.379 . S
C535 N533 1.356 . S
N536 C528 1.356 . S
N536 H542 0.984 . S
N536 H543 0.984 . S
N537 C530 1.356 . S
N537 H540 0.984 . S
N537 H541 0.985 1_545 S
H538 N533 0.984 . S
H539 N533 0.985 1_565 S
H540 N537 0.984 . S
H541 N537 0.985 1_565 S
H542 N536 0.984 . S
H543 N536 0.984 . S
H544 N532 0.984 . S
H545 N532 0.985 . S
C546 C547 1.363 . S
C546 C552 1.379 . S
C546 N554 1.356 . S
C547 C546 1.363 . S
C547 C553 1.363 . S
C548 C549 1.363 . S
C548 C553 1.379 . S
C548 N555 1.356 . S
C549 C548 1.363 . S
C549 C552 1.363 . S
N550 C552 1.356 . S
N550 H562 0.984 . S
N550 H563 0.985 . S
N551 C553 1.356 . S
N551 H556 0.984 . S
N551 H557 0.985 . S
C552 C546 1.379 . S
C552 C549 1.363 . S
C552 N550 1.356 . S
C553 C547 1.363 . S
C553 C548 1.379 . S
C553 N551 1.356 . S
N554 C546 1.356 . S
N554 H560 0.984 . S
N554 H561 0.984 . S
N555 C548 1.356 . S
N555 H558 0.984 . S
N555 H559 0.985 . S
H556 N551 0.984 . S
H557 N551 0.985 . S
H558 N555 0.984 . S
H559 N555 0.985 . S
H560 N554 0.984 . S
H561 N554 0.984 . S
H562 N550 0.984 . S
H563 N550 0.985 . S
C564 C565 1.363 . S
C564 C570 1.379 . S
C564 N572 1.356 . S
C565 C564 1.363 . S
C565 C571 1.363 . S
C566 C567 1.363 . S
C566 C571 1.379 . S
C566 N573 1.356 . S
C567 C566 1.363 . S
C567 C570 1.363 . S
N568 C570 1.356 . S
N568 H580 0.984 . S
N568 H581 0.985 . S
N569 C571 1.356 . S
N569 H574 0.984 . S
N569 H575 0.985 . S
C570 C564 1.379 . S
C570 C567 1.363 . S
C570 N568 1.356 . S
C571 C565 1.363 . S
C571 C566 1.379 . S
C571 N569 1.356 . S
N572 C564 1.356 . S
N572 H578 0.984 . S
N572 H579 0.984 . S
N573 C566 1.356 . S
N573 H576 0.984 . S
N573 H577 0.985 . S
H574 N569 0.984 . S
H575 N569 0.985 . S
H576 N573 0.984 . S
H577 N573 0.985 . S
H578 N572 0.984 . S
H579 N572 0.984 . S
H580 N568 0.984 . S
H581 N568 0.985 . S
C582 C583 1.363 . S
C582 C588 1.379 . S
C582 N590 1.356 . S
C583 C582 1.363 . S
C583 C589 1.363 . S
C584 C585 1.363 . S
C584 C589 1.379 . S
C584 N591 1.356 . S
C585 C584 1.363 . S
C585 C588 1.363 . S
N586 C588 1.356 . S
N586 H598 0.984 . S
N586 H599 0.985 . S
N587 C589 1.356 . S
N587 H592 0.984 . S
N587 H593 0.985 . S
C588 C582 1.379 . S
C588 C585 1.363 . S
C588 N586 1.356 . S
C589 C583 1.363 . S
C589 C584 1.379 . S
C589 N587 1.356 . S
N590 C582 1.356 . S
N590 H596 0.984 . S
N590 H597 0.984 . S
N591 C584 1.356 . S
N591 H594 0.984 . S
N591 H595 0.985 . S
H592 N587 0.984 . S
H593 N587 0.985 . S
H594 N591 0.984 . S
H595 N591 0.985 . S
H596 N590 0.984 . S
H597 N590 0.984 . S
H598 N586 0.984 . S
H599 N586 0.985 . S
C600 C601 1.363 . S
C600 C606 1.379 . S
C600 N608 1.356 . S
C601 C600 1.363 . S
C601 C607 1.363 . S
C602 C603 1.363 . S
C602 C607 1.379 . S
C602 N609 1.356 . S
C603 C602 1.363 . S
C603 C606 1.363 . S
N604 C606 1.356 . S
N604 H616 0.984 . S
N604 H617 0.985 . S
N605 C607 1.356 . S
N605 H610 0.984 . S
N605 H611 0.985 1_565 S
C606 C600 1.379 . S
C606 C603 1.363 . S
C606 N604 1.356 . S
C607 C601 1.363 . S
C607 C602 1.379 . S
C607 N605 1.356 . S
N608 C600 1.356 . S
N608 H614 0.984 . S
N608 H615 0.984 . S
N609 C602 1.356 . S
N609 H612 0.984 . S
N609 H613 0.985 1_565 S
H610 N605 0.984 . S
H611 N605 0.985 1_545 S
H612 N609 0.984 . S
H613 N609 0.985 1_545 S
H614 N608 0.984 . S
H615 N608 0.984 . S
H616 N604 0.984 . S
H617 N604 0.985 . S
C618 C619 1.363 . S
C618 C624 1.379 . S
C618 N626 1.356 . S
C619 C618 1.363 . S
C619 C625 1.363 . S
C620 C621 1.363 . S
C620 C625 1.379 . S
C620 N627 1.356 . S
C621 C620 1.363 . S
C621 C624 1.363 . S
N622 C624 1.356 . S
N622 H634 0.984 . S
N622 H635 0.985 . S
N623 C625 1.356 . S
N623 H628 0.984 . S
N623 H629 0.985 . S
C624 C618 1.379 . S
C624 C621 1.363 . S
C624 N622 1.356 . S
C625 C619 1.363 . S
C625 C620 1.379 . S
C625 N623 1.356 . S
N626 C618 1.356 . S
N626 H632 0.984 . S
N626 H633 0.984 . S
N627 C620 1.356 . S
N627 H630 0.984 . S
N627 H631 0.985 . S
H628 N623 0.984 . S
H629 N623 0.985 . S
H630 N627 0.984 . S
H631 N627 0.985 . S
H632 N626 0.984 . S
H633 N626 0.984 . S
H634 N622 0.984 . S
H635 N622 0.985 . S
C636 C637 1.363 . S
C636 C642 1.379 . S
C636 N644 1.356 . S
C637 C636 1.363 . S
C637 C643 1.363 . S
C638 C639 1.363 . S
C638 C643 1.379 . S
C638 N645 1.356 . S
C639 C638 1.363 . S
C639 C642 1.363 . S
N640 C642 1.356 . S
N640 H652 0.984 . S
N640 H653 0.985 . S
N641 C643 1.356 . S
N641 H646 0.984 . S
N641 H647 0.985 . S
C642 C636 1.379 . S
C642 C639 1.363 . S
C642 N640 1.356 . S
C643 C637 1.363 . S
C643 C638 1.379 . S
C643 N641 1.356 . S
N644 C636 1.356 . S
N644 H650 0.984 . S
N644 H651 0.984 . S
N645 C638 1.356 . S
N645 H648 0.984 . S
N645 H649 0.985 . S
H646 N641 0.984 . S
H647 N641 0.985 . S
H648 N645 0.984 . S
H649 N645 0.985 . S
H650 N644 0.984 . S
H651 N644 0.984 . S
H652 N640 0.984 . S
H653 N640 0.985 . S
C654 C655 1.363 . S
C654 C660 1.379 . S
C654 N662 1.356 . S
C655 C654 1.363 . S
C655 C661 1.363 . S
C656 C657 1.363 . S
C656 C661 1.379 . S
C656 N663 1.356 . S
C657 C656 1.363 . S
C657 C660 1.363 . S
N658 C660 1.356 . S
N658 H670 0.984 1_655 S
N658 H671 0.985 . S
N659 C661 1.356 . S
N659 H664 0.984 . S
N659 H665 0.985 . S
C660 C654 1.379 . S
C660 C657 1.363 . S
C660 N658 1.356 . S
C661 C655 1.363 . S
C661 C656 1.379 . S
C661 N659 1.356 . S
N662 C654 1.356 . S
N662 H668 0.984 1_655 S
N662 H669 0.984 . S
N663 C656 1.356 . S
N663 H666 0.984 . S
N663 H667 0.985 . S
H664 N659 0.984 . S
H665 N659 0.985 . S
H666 N663 0.984 . S
H667 N663 0.985 . S
H668 N662 0.984 1_455 S
H669 N662 0.984 . S
H670 N658 0.984 1_455 S
H671 N658 0.985 . S
C672 C673 1.363 . S
C672 C678 1.379 1_556 S
C672 N680 1.356 . S
C673 C672 1.363 . S
C673 C679 1.363 1_545 S
C674 C675 1.363 . S
C674 C679 1.379 1_554 S
C674 N681 1.356 . S
C675 C674 1.363 . S
C675 C678 1.363 1_565 S
N676 C678 1.356 . S
N676 H688 0.984 . S
N676 H689 0.985 . S
N677 C679 1.356 . S
N677 H682 0.984 . S
N677 H683 0.985 . S
C678 C672 1.379 1_554 S
C678 C675 1.363 1_545 S
C678 N676 1.356 . S
C679 C673 1.363 1_565 S
C679 C674 1.379 1_556 S
C679 N677 1.356 . S
N680 C672 1.356 . S
N680 H686 0.984 . S
N680 H687 0.984 . S
N681 C674 1.356 . S
N681 H684 0.984 . S
N681 H685 0.985 . S
H682 N677 0.984 . S
H683 N677 0.985 . S
H684 N681 0.984 . S
H685 N681 0.985 . S
H686 N680 0.984 . S
H687 N680 0.984 . S
H688 N676 0.984 . S
H689 N676 0.985 . S
C690 C691 1.363 . S
C690 C696 1.379 . S
C690 N698 1.356 . S
C691 C690 1.363 . S
C691 C697 1.363 1_556 S
C692 C693 1.363 . S
C692 C697 1.379 . S
C692 N699 1.356 . S
C693 C692 1.363 . S
C693 C696 1.363 1_554 S
N694 C696 1.356 . S
N694 H706 0.984 . S
N694 H707 0.985 1_556 S
N695 C697 1.356 . S
N695 H700 0.984 1_554 S
N695 H701 0.985 . S
C696 C690 1.379 . S
C696 C693 1.363 1_556 S
C696 N694 1.356 . S
C697 C691 1.363 1_554 S
C697 C692 1.379 . S
C697 N695 1.356 . S
N698 C690 1.356 . S
N698 H704 0.984 . S
N698 H705 0.984 . S
N699 C692 1.356 . S
N699 H702 0.984 . S
N699 H703 0.985 . S
H700 N695 0.984 1_556 S
H701 N695 0.985 . S
H702 N699 0.984 . S
H703 N699 0.985 . S
H704 N698 0.984 . S
H705 N698 0.984 . S
H706 N694 0.984 . S
H707 N694 0.985 1_554 S
C708 C709 1.363 . S
C708 C714 1.386 1_556 S
C708 N716 1.356 . S
C709 C708 1.363 . S
C709 C715 1.355 1_455 S
C710 C711 1.363 . S
C710 C715 1.386 1_554 S
C710 N717 1.356 . S
C711 C710 1.363 . S
C711 C714 1.355 1_655 S
N712 C714 1.354 1_655 S
N712 H724 0.984 1_655 S
N712 H725 0.985 . S
N713 C715 1.354 1_455 S
N713 H718 0.984 . S
N713 H719 0.985 1_455 S
C714 C708 1.386 1_554 S
C714 C711 1.355 1_455 S
C714 N712 1.354 1_455 S
C715 C709 1.355 1_655 S
C715 C710 1.386 1_556 S
C715 N713 1.354 1_655 S
N716 C708 1.356 . S
N716 H722 0.984 . S
N716 H723 0.984 . S
N717 C710 1.356 . S
N717 H720 0.984 . S
N717 H721 0.985 . S
H718 N713 0.984 . S
H719 N713 0.985 1_655 S
H720 N717 0.984 . S
H721 N717 0.985 . S
H722 N716 0.984 . S
H723 N716 0.984 . S
H724 N712 0.984 1_455 S
H725 N712 0.985 . S
C726 C727 1.363 1_665 S
C726 C732 1.379 . S
C726 N734 1.356 1_565 S
C727 C726 1.363 1_445 S
C727 C733 1.363 1_556 S
C728 C729 1.363 1_445 S
C728 C733 1.379 . S
C728 N735 1.356 1_545 S
C729 C728 1.363 1_665 S
C729 C732 1.363 1_554 S
N730 C732 1.356 . S
N730 H742 0.984 . S
N730 H743 0.985 1_556 S
N731 C733 1.356 . S
N731 H736 0.984 1_554 S
N731 H737 0.985 . S
C732 C726 1.379 . S
C732 C729 1.363 1_556 S
C732 N730 1.356 . S
C733 C727 1.363 1_554 S
C733 C728 1.379 . S
C733 N731 1.356 . S
N734 C726 1.356 1_545 S
N734 H740 0.984 1_545 S
N734 H741 0.984 . S
N735 C728 1.356 1_565 S
N735 H738 0.984 . S
N735 H739 0.985 1_565 S
H736 N731 0.984 1_556 S
H737 N731 0.985 . S
H738 N735 0.984 . S
H739 N735 0.985 1_545 S
H740 N734 0.984 1_565 S
H741 N734 0.984 . S
H742 N730 0.984 . S
H743 N730 0.985 1_554 S
C744 C745 1.363 . S
C744 C750 1.379 . S
C744 N752 1.356 . S
C745 C744 1.363 . S
C745 C751 1.363 . S
C746 C747 1.363 . S
C746 C751 1.379 . S
C746 N753 1.356 . S
C747 C746 1.363 . S
C747 C750 1.363 . S
N748 C750 1.356 . S
N748 H760 0.984 . S
N748 H761 0.985 . S
N749 C751 1.356 . S
N749 H754 0.984 . S
N749 H755 0.985 . S
C750 C744 1.379 . S
C750 C747 1.363 . S
C750 N748 1.356 . S
C751 C745 1.363 . S
C751 C746 1.379 . S
C751 N749 1.356 . S
N752 C744 1.356 . S
N752 H758 0.984 . S
N752 H759 0.984 . S
N753 C746 1.356 . S
N753 H756 0.984 . S
N753 H757 0.985 . S
H754 N749 0.984 . S
H755 N749 0.985 . S
H756 N753 0.984 . S
H757 N753 0.985 . S
H758 N752 0.984 . S
H759 N752 0.984 . S
H760 N748 0.984 . S
H761 N748 0.985 . S
C762 C763 1.363 1_655 S
C762 C768 1.379 . S
C762 N770 1.356 . S
C763 C762 1.363 1_455 S
C763 C769 1.363 . S
C764 C765 1.363 1_455 S
C764 C769 1.379 . S
C764 N771 1.356 . S
C765 C764 1.363 1_655 S
C765 C768 1.363 . S
N766 C768 1.356 . S
N766 H778 0.984 . S
N766 H779 0.985 . S
N767 C769 1.356 . S
N767 H772 0.984 . S
N767 H773 0.985 . S
C768 C762 1.379 . S
C768 C765 1.363 . S
C768 N766 1.356 . S
C769 C763 1.363 . S
C769 C764 1.379 . S
C769 N767 1.356 . S
N770 C762 1.356 . S
N770 H776 0.984 . S
N770 H777 0.984 . S
N771 C764 1.356 . S
N771 H774 0.984 . S
N771 H775 0.985 . S
H772 N767 0.984 . S
H773 N767 0.985 . S
H774 N771 0.984 . S
H775 N771 0.985 . S
H776 N770 0.984 . S
H777 N770 0.984 . S
H778 N766 0.984 . S
H779 N766 0.985 . S
C780 C781 1.363 . S
C780 C786 1.379 . S
C780 N788 1.356 . S
C781 C780 1.363 . S
C781 C787 1.363 1_665 S
C782 C783 1.363 . S
C782 C787 1.379 . S
C782 N789 1.356 . S
C783 C782 1.363 . S
C783 C786 1.363 1_445 S
N784 C786 1.356 1_455 S
N784 H796 0.984 1_455 S
N784 H797 0.985 . S
N785 C787 1.356 1_655 S
N785 H790 0.984 . S
N785 H791 0.985 1_655 S
C786 C780 1.379 . S
C786 C783 1.363 1_665 S
C786 N784 1.356 1_655 S
C787 C781 1.363 1_445 S
C787 C782 1.379 . S
C787 N785 1.356 1_455 S
N788 C780 1.356 . S
N788 H794 0.984 . S
N788 H795 0.984 . S
N789 C782 1.356 . S
N789 H792 0.984 . S
N789 H793 0.985 . S
H790 N785 0.984 . S
H791 N785 0.985 1_455 S
H792 N789 0.984 . S
H793 N789 0.985 . S
H794 N788 0.984 . S
H795 N788 0.984 . S
H796 N784 0.984 1_655 S
H797 N784 0.985 . S
C798 C799 1.363 . S
C798 C804 1.379 1_565 S
C798 N806 1.356 . S
C799 C798 1.363 . S
C799 C805 1.363 . S
C800 C801 1.363 . S
C800 C805 1.379 1_545 S
C800 N807 1.356 . S
C801 C800 1.363 . S
C801 C804 1.363 . S
N802 C804 1.356 . S
N802 H814 0.984 . S
N802 H815 0.985 . S
N803 C805 1.356 . S
N803 H808 0.984 . S
N803 H809 0.985 . S
C804 C798 1.379 1_545 S
C804 C801 1.363 . S
C804 N802 1.356 . S
C805 C799 1.363 . S
C805 C800 1.379 1_565 S
C805 N803 1.356 . S
N806 C798 1.356 . S
N806 H812 0.984 . S
N806 H813 0.984 . S
N807 C800 1.356 . S
N807 H810 0.984 . S
N807 H811 0.985 . S
H808 N803 0.984 . S
H809 N803 0.985 . S
H810 N807 0.984 . S
H811 N807 0.985 . S
H812 N806 0.984 . S
H813 N806 0.984 . S
H814 N802 0.984 . S
H815 N802 0.985 . S
C816 C817 1.363 1_554 S
C816 C822 1.379 . S
C816 N824 1.356 . S
C817 C816 1.363 1_556 S
C817 C823 1.363 . S
C818 C819 1.363 . S
C818 C823 1.379 1_554 S
C818 N825 1.356 . S
C819 C818 1.363 . S
C819 C822 1.363 . S
N820 C822 1.356 . S
N820 H832 0.984 . S
N820 H833 0.985 . S
N821 C823 1.356 . S
N821 H826 0.984 . S
N821 H827 0.985 . S
C822 C816 1.379 . S
C822 C819 1.363 . S
C822 N820 1.356 . S
C823 C817 1.363 . S
C823 C818 1.379 1_556 S
C823 N821 1.356 . S
N824 C816 1.356 . S
N824 H830 0.984 . S
N824 H831 0.984 . S
N825 C818 1.356 . S
N825 H828 0.984 . S
N825 H829 0.985 . S
H826 N821 0.984 . S
H827 N821 0.985 . S
H828 N825 0.984 . S
H829 N825 0.985 . S
H830 N824 0.984 . S
H831 N824 0.984 . S
H832 N820 0.984 . S
H833 N820 0.985 . S
C834 C835 1.363 . S
C834 C840 1.379 1_556 S
C834 N842 1.356 . S
C835 C834 1.363 . S
C835 C841 1.363 1_556 S
C836 C837 1.363 . S
C836 C841 1.379 . S
C836 N843 1.356 . S
C837 C836 1.363 . S
C837 C840 1.363 . S
N838 C840 1.356 . S
N838 H850 0.984 . S
N838 H851 0.985 . S
N839 C841 1.356 . S
N839 H844 0.984 . S
N839 H845 0.985 . S
C840 C834 1.379 1_554 S
C840 C837 1.363 . S
C840 N838 1.356 . S
C841 C835 1.363 1_554 S
C841 C836 1.379 . S
C841 N839 1.356 . S
N842 C834 1.356 . S
N842 H848 0.984 . S
N842 H849 0.984 . S
N843 C836 1.356 . S
N843 H846 0.984 . S
N843 H847 0.985 . S
H844 N839 0.984 . S
H845 N839 0.985 . S
H846 N843 0.984 . S
H847 N843 0.985 . S
H848 N842 0.984 . S
H849 N842 0.984 . S
H850 N838 0.984 . S
H851 N838 0.985 . S
C852 C853 1.363 1_554 S
C852 C858 1.379 . S
C852 N860 1.356 . S
C853 C852 1.363 1_556 S
C853 C859 1.363 . S
C854 C855 1.363 . S
C854 C859 1.379 1_554 S
C854 N861 1.356 . S
C855 C854 1.363 . S
C855 C858 1.363 . S
N856 C858 1.356 . S
N856 H868 0.984 . S
N856 H869 0.985 . S
N857 C859 1.356 . S
N857 H862 0.984 . S
N857 H863 0.985 . S
C858 C852 1.379 . S
C858 C855 1.363 . S
C858 N856 1.356 . S
C859 C853 1.363 . S
C859 C854 1.379 1_556 S
C859 N857 1.356 . S
N860 C852 1.356 . S
N860 H866 0.984 . S
N860 H867 0.984 . S
N861 C854 1.356 . S
N861 H864 0.984 . S
N861 H865 0.985 1_554 S
H862 N857 0.984 . S
H863 N857 0.985 . S
H864 N861 0.984 . S
H865 N861 0.985 1_556 S
H866 N860 0.984 . S
H867 N860 0.984 . S
H868 N856 0.984 . S
H869 N856 0.985 . S
C870 C871 1.363 . S
C870 C876 1.379 1_556 S
C870 N878 1.356 . S
C871 C870 1.363 . S
C871 C877 1.363 1_556 S
C872 C873 1.363 . S
C872 C877 1.379 . S
C872 N879 1.356 . S
C873 C872 1.363 . S
C873 C876 1.363 . S
N874 C876 1.356 . S
N874 H886 0.984 1_554 S
N874 H887 0.985 . S
N875 C877 1.356 . S
N875 H880 0.984 . S
N875 H881 0.994 . S
C876 C870 1.379 1_554 S
C876 C873 1.363 . S
C876 N874 1.356 . S
C877 C871 1.363 1_554 S
C877 C872 1.379 . S
C877 N875 1.356 . S
N878 C870 1.356 . S
N878 H884 0.984 . S
N878 H885 0.984 . S
N879 C872 1.356 . S
N879 H882 0.984 . S
N879 H883 0.985 . S
H880 N875 0.984 . S
H881 N875 0.994 . S
H882 N879 0.984 . S
H883 N879 0.985 . S
H884 N878 0.984 . S
H885 N878 0.984 . S
H886 N874 0.984 1_556 S
H887 N874 0.985 . S
C888 C889 1.363 . S
C888 C894 1.379 . S
C888 N896 1.356 . S
C889 C888 1.363 . S
C889 C895 1.363 . S
C890 C891 1.363 . S
C890 C895 1.379 . S
C890 N897 1.356 . S
C891 C890 1.363 . S
C891 C894 1.363 . S
N892 C894 1.356 . S
N892 H904 0.984 . S
N892 H905 0.985 . S
N893 C895 1.356 . S
N893 H898 0.984 . S
N893 H899 0.985 . S
C894 C888 1.379 . S
C894 C891 1.363 . S
C894 N892 1.356 . S
C895 C889 1.363 . S
C895 C890 1.379 . S
C895 N893 1.356 . S
N896 C888 1.356 . S
N896 H902 0.984 . S
N896 H903 0.984 . S
N897 C890 1.356 . S
N897 H900 0.984 . S
N897 H901 0.985 . S
H898 N893 0.984 . S
H899 N893 0.985 . S
H900 N897 0.984 . S
H901 N897 0.985 . S
H902 N896 0.984 . S
H903 N896 0.984 . S
H904 N892 0.984 . S
H905 N892 0.985 . S
C906 C907 1.363 . S
C906 C912 1.379 . S
C906 N914 1.356 . S
C907 C906 1.363 . S
C907 C913 1.363 . S
C908 C909 1.363 . S
C908 C913 1.379 . S
C908 N915 1.356 . S
C909 C908 1.363 . S
C909 C912 1.363 . S
N910 C912 1.356 . S
N910 H922 0.984 . S
N910 H923 0.985 . S
N911 C913 1.356 . S
N911 H916 0.984 . S
N911 H917 0.985 . S
C912 C906 1.379 . S
C912 C909 1.363 . S
C912 N910 1.356 . S
C913 C907 1.363 . S
C913 C908 1.379 . S
C913 N911 1.356 . S
N914 C906 1.356 . S
N914 H920 0.984 . S
N914 H921 0.984 . S
N915 C908 1.356 . S
N915 H918 0.984 . S
N915 H919 0.985 . S
H916 N911 0.984 . S
H917 N911 0.985 . S
H918 N915 0.984 . S
H919 N915 0.985 . S
H920 N914 0.984 . S
H921 N914 0.984 . S
H922 N910 0.984 . S
H923 N910 0.985 . S
C924 C925 1.363 . S
C924 C930 1.379 . S
C924 N932 1.356 . S
C925 C924 1.363 . S
C925 C931 1.363 . S
C926 C927 1.363 . S
C926 C931 1.379 . S
C926 N933 1.356 . S
C927 C926 1.363 . S
C927 C930 1.363 . S
N928 C930 1.356 . S
N928 H940 0.975 1_655 S
N928 H941 0.985 . S
N929 C931 1.356 . S
N929 H934 0.984 . S
N929 H935 0.985 . S
C930 C924 1.379 . S
C930 C927 1.363 . S
C930 N928 1.356 . S
C931 C925 1.363 . S
C931 C926 1.379 . S
C931 N929 1.356 . S
N932 C924 1.356 . S
N932 H938 0.984 . S
N932 H939 0.984 . S
N933 C926 1.356 . S
N933 H936 0.984 . S
N933 H937 0.985 . S
H934 N929 0.984 . S
H935 N929 0.985 . S
H936 N933 0.984 . S
H937 N933 0.985 . S
H938 N932 0.984 . S
H939 N932 0.984 . S
H940 N928 0.975 1_455 S
H941 N928 0.985 . S
C942 C943 1.363 . S
C942 C948 1.379 . S
C942 N950 1.356 . S
C943 C942 1.363 . S
C943 C949 1.363 . S
C944 C945 1.363 . S
C944 C949 1.379 . S
C944 N951 1.356 . S
C945 C944 1.363 . S
C945 C948 1.363 . S
N946 C948 1.356 . S
N946 H958 0.984 . S
N946 H959 0.985 . S
N947 C949 1.356 . S
N947 H952 0.984 . S
N947 H953 0.985 . S
C948 C942 1.379 . S
C948 C945 1.363 . S
C948 N946 1.356 . S
C949 C943 1.363 . S
C949 C944 1.379 . S
C949 N947 1.356 . S
N950 C942 1.356 . S
N950 H956 0.984 . S
N950 H957 0.984 . S
N951 C944 1.356 . S
N951 H954 0.984 . S
N951 H955 0.985 . S
H952 N947 0.984 . S
H953 N947 0.985 . S
H954 N951 0.984 . S
H955 N951 0.985 . S
H956 N950 0.984 . S
H957 N950 0.984 . S
H958 N946 0.984 . S
H959 N946 0.985 . S
C960 C961 1.363 . S
C960 C966 1.379 1_554 S
C960 N968 1.356 . S
C961 C960 1.363 . S
C961 C967 1.363 1_554 S
C962 C963 1.363 . S
C962 C967 1.379 . S
C962 N969 1.356 . S
C963 C962 1.363 . S
C963 C966 1.363 . S
N964 C966 1.356 . S
N964 H976 0.984 1_556 S
N964 H977 0.985 . S
N965 C967 1.356 . S
N965 H970 0.984 . S
N965 H971 0.985 . S
C966 C960 1.379 1_556 S
C966 C963 1.363 . S
C966 N964 1.356 . S
C967 C961 1.363 1_556 S
C967 C962 1.379 . S
C967 N965 1.356 . S
N968 C960 1.356 . S
N968 H974 0.984 . S
N968 H975 0.984 . S
N969 C962 1.356 . S
N969 H972 0.984 . S
N969 H973 0.985 . S
H970 N965 0.984 . S
H971 N965 0.985 . S
H972 N969 0.984 . S
H973 N969 0.985 . S
H974 N968 0.984 . S
H975 N968 0.984 . S
H976 N964 0.984 1_554 S
H977 N964 0.985 . S
C978 C979 1.363 1_556 S
C978 C984 1.379 . S
C978 N986 1.356 . S
C979 C978 1.363 1_554 S
C979 C985 1.363 1_554 S
C980 C981 1.363 . S
C980 C985 1.379 . S
C980 N987 1.356 . S
C981 C980 1.363 . S
C981 C984 1.363 . S
N982 C984 1.356 . S
N982 H994 0.984 . S
N982 H995 0.985 . S
N983 C985 1.356 1_554 S
N983 H988 0.984 . S
N983 H989 0.985 . S
C984 C978 1.379 . S
C984 C981 1.363 . S
C984 N982 1.356 . S
C985 C979 1.363 1_556 S
C985 C980 1.379 . S
C985 N983 1.356 1_556 S
N986 C978 1.356 . S
N986 H992 0.984 . S
N986 H993 0.984 1_556 S
N987 C980 1.356 . S
N987 H990 0.984 . S
N987 H991 0.985 . S
H988 N983 0.984 . S
H989 N983 0.985 . S
H990 N987 0.984 . S
H991 N987 0.985 . S
H992 N986 0.984 . S
H993 N986 0.984 1_554 S
H994 N982 0.984 . S
H995 N982 0.985 . S
C996 C997 1.363 1_556 S
C996 C1002 1.379 . S
C996 N1004 1.356 . S
C997 C996 1.363 1_554 S
C997 C1003 1.363 . S
C998 C999 1.363 . S
C998 C1003 1.379 1_556 S
C998 N1005 1.356 . S
C999 C998 1.363 . S
C999 C1002 1.363 . S
N1000 C1002 1.356 . S
N1000 H1012 0.984 . S
N1000 H1013 0.985 . S
N1001 C1003 1.356 . S
N1001 H1006 0.984 . S
N1001 H1007 0.985 . S
C1002 C996 1.379 . S
C1002 C999 1.363 . S
C1002 N1000 1.356 . S
C1003 C997 1.363 . S
C1003 C998 1.379 1_554 S
C1003 N1001 1.356 . S
N1004 C996 1.356 . S
N1004 H1010 0.984 . S
N1004 H1011 0.984 . S
N1005 C998 1.356 . S
N1005 H1008 0.984 . S
N1005 H1009 0.985 1_556 S
H1006 N1001 0.984 . S
H1007 N1001 0.985 . S
H1008 N1005 0.984 . S
H1009 N1005 0.985 1_554 S
H1010 N1004 0.984 . S
H1011 N1004 0.984 . S
H1012 N1000 0.984 . S
H1013 N1000 0.985 . S
C1014 C1015 1.363 1_556 S
C1014 C1020 1.379 . S
C1014 N1022 1.356 1_556 S
C1015 C1014 1.363 1_554 S
C1015 C1021 1.363 1_554 S
C1016 C1017 1.363 . S
C1016 C1021 1.379 . S
C1016 N1023 1.356 . S
C1017 C1016 1.363 . S
C1017 C1020 1.363 . S
N1018 C1020 1.356 . S
N1018 H1030 0.984 . S
N1018 H1031 0.985 . S
N1019 C1021 1.356 1_564 S
N1019 H1024 0.984 . S
N1019 H1025 0.985 1_554 S
C1020 C1014 1.379 . S
C1020 C1017 1.363 . S
C1020 N1018 1.356 . S
C1021 C1015 1.363 1_556 S
C1021 C1016 1.379 . S
C1021 N1019 1.356 1_546 S
N1022 C1014 1.356 1_554 S
N1022 H1028 0.984 . S
N1022 H1029 0.984 . S
N1023 C1016 1.356 . S
N1023 H1026 0.984 . S
N1023 H1027 0.985 . S
H1024 N1019 0.984 . S
H1025 N1019 0.985 1_556 S
H1026 N1023 0.984 . S
H1027 N1023 0.985 . S
H1028 N1022 0.984 . S
H1029 N1022 0.984 . S
H1030 N1018 0.984 . S
H1031 N1018 0.985 . S
C1032 C1033 1.363 . S
C1032 C1038 1.379 . S
C1032 N1040 1.356 . S
C1033 C1032 1.363 . S
C1033 C1039 1.363 . S
C1034 C1035 1.363 . S
C1034 C1039 1.379 . S
C1034 N1041 1.356 . S
C1035 C1034 1.363 . S
C1035 C1038 1.363 . S
N1036 C1038 1.356 . S
N1036 H1048 0.984 . S
N1036 H1049 0.985 . S
N1037 C1039 1.356 . S
N1037 H1042 0.984 . S
N1037 H1043 0.985 . S
C1038 C1032 1.379 . S
C1038 C1035 1.363 . S
C1038 N1036 1.356 . S
C1039 C1033 1.363 . S
C1039 C1034 1.379 . S
C1039 N1037 1.356 . S
N1040 C1032 1.356 . S
N1040 H1046 0.984 . S
N1040 H1047 0.984 . S
N1041 C1034 1.356 . S
N1041 H1044 0.984 . S
N1041 H1045 0.985 . S
H1042 N1037 0.984 . S
H1043 N1037 0.985 . S
H1044 N1041 0.984 . S
H1045 N1041 0.985 . S
H1046 N1040 0.984 . S
H1047 N1040 0.984 . S
H1048 N1036 0.984 . S
H1049 N1036 0.985 . S
C1050 C1051 1.363 . S
C1050 C1056 1.379 . S
C1050 N1058 1.356 . S
C1051 C1050 1.363 . S
C1051 C1057 1.363 . S
C1052 C1053 1.363 . S
C1052 C1057 1.379 . S
C1052 N1059 1.356 . S
C1053 C1052 1.363 . S
C1053 C1056 1.363 . S
N1054 C1056 1.356 . S
N1054 H1066 0.984 . S
N1054 H1067 0.985 . S
N1055 C1057 1.356 . S
N1055 H1060 0.984 . S
N1055 H1061 0.985 . S
C1056 C1050 1.379 . S
C1056 C1053 1.363 . S
C1056 N1054 1.356 . S
C1057 C1051 1.363 . S
C1057 C1052 1.379 . S
C1057 N1055 1.356 . S
N1058 C1050 1.356 . S
N1058 H1064 0.984 . S
N1058 H1065 0.984 . S
N1059 C1052 1.356 . S
N1059 H1062 0.984 . S
N1059 H1063 0.985 . S
H1060 N1055 0.984 . S
H1061 N1055 0.985 . S
H1062 N1059 0.984 . S
H1063 N1059 0.985 . S
H1064 N1058 0.984 . S
H1065 N1058 0.984 . S
H1066 N1054 0.984 . S
H1067 N1054 0.985 . S
C1068 C1069 1.363 . S
C1068 C1074 1.379 . S
C1068 N1076 1.356 . S
C1069 C1068 1.363 . S
C1069 C1075 1.363 . S
C1070 C1071 1.363 . S
C1070 C1075 1.379 . S
C1070 N1077 1.356 . S
C1071 C1070 1.363 . S
C1071 C1074 1.363 . S
N1072 C1074 1.356 . S
N1072 H1084 0.984 . S
N1072 H1085 0.985 . S
N1073 C1075 1.356 . S
N1073 H1078 0.984 . S
N1073 H1079 0.985 . S
C1074 C1068 1.379 . S
C1074 C1071 1.363 . S
C1074 N1072 1.356 . S
C1075 C1069 1.363 . S
C1075 C1070 1.379 . S
C1075 N1073 1.356 . S
N1076 C1068 1.356 . S
N1076 H1082 0.984 . S
N1076 H1083 0.984 . S
N1077 C1070 1.356 . S
N1077 H1080 0.984 . S
N1077 H1081 0.985 . S
H1078 N1073 0.984 . S
H1079 N1073 0.985 . S
H1080 N1077 0.984 . S
H1081 N1077 0.985 . S
H1082 N1076 0.984 . S
H1083 N1076 0.984 . S
H1084 N1072 0.984 . S
H1085 N1072 0.985 . S
C1086 C1087 1.363 . S
C1086 C1092 1.379 . S
C1086 N1094 1.356 . S
C1087 C1086 1.363 . S
C1087 C1093 1.363 . S
C1088 C1089 1.363 . S
C1088 C1093 1.379 . S
C1088 N1095 1.356 . S
C1089 C1088 1.363 . S
C1089 C1092 1.363 . S
N1090 C1092 1.356 . S
N1090 H1102 0.984 1_545 S
N1090 H1103 0.985 1_545 S
N1091 C1093 1.356 . S
N1091 H1096 0.984 . S
N1091 H1097 0.985 . S
C1092 C1086 1.379 . S
C1092 C1089 1.363 . S
C1092 N1090 1.356 . S
C1093 C1087 1.363 . S
C1093 C1088 1.379 . S
C1093 N1091 1.356 . S
N1094 C1086 1.356 . S
N1094 H1100 0.984 . S
N1094 H1101 0.984 . S
N1095 C1088 1.356 . S
N1095 H1098 0.984 . S
N1095 H1099 0.985 . S
H1096 N1091 0.984 . S
H1097 N1091 0.985 . S
H1098 N1095 0.984 . S
H1099 N1095 0.985 . S
H1100 N1094 0.984 . S
H1101 N1094 0.984 . S
H1102 N1090 0.984 1_565 S
H1103 N1090 0.985 1_565 S
C1104 C1105 1.363 . S
C1104 C1110 1.379 . S
C1104 N1112 1.356 . S
C1105 C1104 1.363 . S
C1105 C1111 1.363 . S
C1106 C1107 1.363 . S
C1106 C1111 1.379 . S
C1106 N1113 1.356 . S
C1107 C1106 1.363 . S
C1107 C1110 1.363 . S
N1108 C1110 1.356 . S
N1108 H1120 0.984 . S
N1108 H1121 0.985 . S
N1109 C1111 1.356 . S
N1109 H1114 0.984 . S
N1109 H1115 0.985 . S
C1110 C1104 1.379 . S
C1110 C1107 1.363 . S
C1110 N1108 1.356 . S
C1111 C1105 1.363 . S
C1111 C1106 1.379 . S
C1111 N1109 1.356 . S
N1112 C1104 1.356 . S
N1112 H1118 0.984 . S
N1112 H1119 0.984 . S
N1113 C1106 1.356 . S
N1113 H1116 0.984 . S
N1113 H1117 0.985 . S
H1114 N1109 0.984 . S
H1115 N1109 0.985 . S
H1116 N1113 0.984 . S
H1117 N1113 0.985 . S
H1118 N1112 0.984 . S
H1119 N1112 0.984 . S
H1120 N1108 0.984 . S
H1121 N1108 0.985 . S
C1122 C1123 1.363 . S
C1122 C1128 1.379 . S
C1122 N1130 1.356 . S
C1123 C1122 1.363 . S
C1123 C1129 1.363 . S
C1124 C1125 1.363 . S
C1124 C1129 1.379 . S
C1124 N1131 1.356 . S
C1125 C1124 1.363 . S
C1125 C1128 1.363 . S
N1126 C1128 1.356 . S
N1126 H1138 0.984 . S
N1126 H1139 0.985 . S
N1127 C1129 1.356 . S
N1127 H1132 0.984 . S
N1127 H1133 0.985 . S
C1128 C1122 1.379 . S
C1128 C1125 1.363 . S
C1128 N1126 1.356 . S
C1129 C1123 1.363 . S
C1129 C1124 1.379 . S
C1129 N1127 1.356 . S
N1130 C1122 1.356 . S
N1130 H1136 0.984 . S
N1130 H1137 0.984 . S
N1131 C1124 1.356 . S
N1131 H1134 0.984 . S
N1131 H1135 0.985 . S
H1132 N1127 0.984 . S
H1133 N1127 0.985 . S
H1134 N1131 0.984 . S
H1135 N1131 0.985 . S
H1136 N1130 0.984 . S
H1137 N1130 0.984 . S
H1138 N1126 0.984 . S
H1139 N1126 0.985 . S
C1140 C1141 1.363 . S
C1140 C1146 1.379 . S
C1140 N1148 1.356 . S
C1141 C1140 1.363 . S
C1141 C1147 1.363 . S
C1142 C1143 1.363 . S
C1142 C1147 1.379 . S
C1142 N1149 1.356 . S
C1143 C1142 1.363 . S
C1143 C1146 1.363 . S
N1144 C1146 1.356 . S
N1144 H1156 0.984 . S
N1144 H1157 0.985 . S
N1145 C1147 1.356 . S
N1145 H1150 0.984 . S
N1145 H1151 0.985 . S
C1146 C1140 1.379 . S
C1146 C1143 1.363 . S
C1146 N1144 1.356 . S
C1147 C1141 1.363 . S
C1147 C1142 1.379 . S
C1147 N1145 1.356 . S
N1148 C1140 1.356 . S
N1148 H1154 0.984 . S
N1148 H1155 0.984 . S
N1149 C1142 1.356 . S
N1149 H1152 0.984 . S
N1149 H1153 0.985 . S
H1150 N1145 0.984 . S
H1151 N1145 0.985 . S
H1152 N1149 0.984 . S
H1153 N1149 0.985 . S
H1154 N1148 0.984 . S
H1155 N1148 0.984 . S
H1156 N1144 0.984 . S
H1157 N1144 0.985 . S
C1158 C1159 1.363 . S
C1158 C1164 1.379 . S
C1158 N1166 1.356 . S
C1159 C1158 1.363 . S
C1159 C1165 1.363 . S
C1160 C1161 1.363 . S
C1160 C1165 1.379 . S
C1160 N1167 1.356 . S
C1161 C1160 1.363 . S
C1161 C1164 1.363 . S
N1162 C1164 1.356 . S
N1162 H1174 0.984 . S
N1162 H1175 0.985 . S
N1163 C1165 1.356 . S
N1163 H1168 0.984 . S
N1163 H1169 0.985 . S
C1164 C1158 1.379 . S
C1164 C1161 1.363 . S
C1164 N1162 1.356 . S
C1165 C1159 1.363 . S
C1165 C1160 1.379 . S
C1165 N1163 1.356 . S
N1166 C1158 1.356 . S
N1166 H1172 0.984 . S
N1166 H1173 0.984 . S
N1167 C1160 1.356 . S
N1167 H1170 0.984 . S
N1167 H1171 0.985 . S
H1168 N1163 0.984 . S
H1169 N1163 0.985 . S
H1170 N1167 0.984 . S
H1171 N1167 0.985 . S
H1172 N1166 0.984 . S
H1173 N1166 0.984 . S
H1174 N1162 0.984 . S
H1175 N1162 0.985 . S
C1176 C1177 1.363 . S
C1176 C1182 1.379 . S
C1176 N1184 1.356 . S
C1177 C1176 1.363 . S
C1177 C1183 1.363 . S
C1178 C1179 1.363 . S
C1178 C1183 1.379 . S
C1178 N1185 1.356 . S
C1179 C1178 1.363 . S
C1179 C1182 1.363 . S
N1180 C1182 1.356 . S
N1180 H1192 0.984 . S
N1180 H1193 0.985 . S
N1181 C1183 1.356 . S
N1181 H1186 0.984 . S
N1181 H1187 0.985 . S
C1182 C1176 1.379 . S
C1182 C1179 1.363 . S
C1182 N1180 1.356 . S
C1183 C1177 1.363 . S
C1183 C1178 1.379 . S
C1183 N1181 1.356 . S
N1184 C1176 1.356 . S
N1184 H1190 0.984 . S
N1184 H1191 0.984 . S
N1185 C1178 1.356 . S
N1185 H1188 0.984 . S
N1185 H1189 0.985 . S
H1186 N1181 0.984 . S
H1187 N1181 0.985 . S
H1188 N1185 0.984 . S
H1189 N1185 0.985 . S
H1190 N1184 0.984 . S
H1191 N1184 0.984 . S
H1192 N1180 0.984 . S
H1193 N1180 0.985 . S
C1194 C1195 1.363 . S
C1194 C1200 1.379 . S
C1194 N1202 1.356 . S
C1195 C1194 1.363 . S
C1195 C1201 1.363 . S
C1196 C1197 1.363 . S
C1196 C1201 1.379 . S
C1196 N1203 1.356 . S
C1197 C1196 1.363 . S
C1197 C1200 1.363 . S
N1198 C1200 1.356 . S
N1198 H1210 0.984 . S
N1198 H1211 0.985 . S
N1199 C1201 1.356 . S
N1199 H1204 0.984 . S
N1199 H1205 0.985 . S
C1200 C1194 1.379 . S
C1200 C1197 1.363 . S
C1200 N1198 1.356 . S
C1201 C1195 1.363 . S
C1201 C1196 1.379 . S
C1201 N1199 1.356 . S
N1202 C1194 1.356 . S
N1202 H1208 0.984 . S
N1202 H1209 0.984 . S
N1203 C1196 1.356 . S
N1203 H1206 0.984 . S
N1203 H1207 0.985 . S
H1204 N1199 0.984 . S
H1205 N1199 0.985 . S
H1206 N1203 0.984 . S
H1207 N1203 0.985 . S
H1208 N1202 0.984 . S
H1209 N1202 0.984 . S
H1210 N1198 0.984 . S
H1211 N1198 0.985 . S
C1212 C1213 1.363 . S
C1212 C1218 1.379 . S
C1212 N1220 1.356 . S
C1213 C1212 1.363 . S
C1213 C1219 1.363 . S
C1214 C1215 1.363 . S
C1214 C1219 1.379 . S
C1214 N1221 1.356 . S
C1215 C1214 1.363 . S
C1215 C1218 1.363 . S
N1216 C1218 1.356 . S
N1216 H1228 0.984 . S
N1216 H1229 0.985 . S
N1217 C1219 1.356 . S
N1217 H1222 0.984 . S
N1217 H1223 0.985 . S
C1218 C1212 1.379 . S
C1218 C1215 1.363 . S
C1218 N1216 1.356 . S
C1219 C1213 1.363 . S
C1219 C1214 1.379 . S
C1219 N1217 1.356 . S
N1220 C1212 1.356 . S
N1220 H1226 0.984 . S
N1220 H1227 0.984 . S
N1221 C1214 1.356 . S
N1221 H1224 0.984 . S
N1221 H1225 0.985 . S
H1222 N1217 0.984 . S
H1223 N1217 0.985 . S
H1224 N1221 0.984 . S
H1225 N1221 0.985 . S
H1226 N1220 0.984 . S
H1227 N1220 0.984 . S
H1228 N1216 0.984 . S
H1229 N1216 0.985 . S
C1230 C1231 1.363 . S
C1230 C1236 1.379 . S
C1230 N1238 1.356 . S
C1231 C1230 1.363 . S
C1231 C1237 1.363 . S
C1232 C1233 1.363 . S
C1232 C1237 1.379 . S
C1232 N1239 1.356 . S
C1233 C1232 1.363 . S
C1233 C1236 1.363 . S
N1234 C1236 1.356 . S
N1234 H1246 0.984 . S
N1234 H1247 0.985 . S
N1235 C1237 1.356 . S
N1235 H1240 0.984 . S
N1235 H1241 0.985 . S
C1236 C1230 1.379 . S
C1236 C1233 1.363 . S
C1236 N1234 1.356 . S
C1237 C1231 1.363 . S
C1237 C1232 1.379 . S
C1237 N1235 1.356 . S
N1238 C1230 1.356 . S
N1238 H1244 0.984 . S
N1238 H1245 0.984 . S
N1239 C1232 1.356 . S
N1239 H1242 0.984 . S
N1239 H1243 0.985 . S
H1240 N1235 0.984 . S
H1241 N1235 0.985 . S
H1242 N1239 0.984 . S
H1243 N1239 0.985 . S
H1244 N1238 0.984 . S
H1245 N1238 0.984 . S
H1246 N1234 0.984 . S
H1247 N1234 0.985 . S
C529 C18 1.884 . S
C531 C216 1.884 . S
C547 C249 1.884 . S
C549 C51 1.884 . S
C565 C150 1.884 . S
C567 C84 1.884 . S
C583 C183 1.884 . S
C585 C117 1.884 . S
C601 C282 1.884 . S
C603 C480 1.884 . S
C619 C315 1.884 . S
C621 C513 1.884 . S
C637 C414 1.884 . S
C639 C348 1.884 . S
C655 C381 1.884 . S
C657 C447 1.884 . S
C673 N266 2.402 . S
C675 N2 2.402 . S
C691 N299 2.402 . S
C693 N35 2.402 . S
C709 N332 2.401 . S
C711 N68 2.401 . S
C727 N365 2.402 . S
C729 N101 2.402 . S
C745 N398 2.402 . S
C747 N134 2.402 . S
C763 N431 2.401 . S
C765 N167 2.401 . S
C781 N200 2.402 . S
C783 N464 2.402 . S
C799 N233 2.402 . S
C801 N497 2.402 . S
C817 C318 1.017 . S
C819 C7 1.074 . S
C835 C351 1.017 . S
C837 C40 1.074 . S
C853 C384 1.017 . S
C855 C73 1.074 . S
C871 C285 1.017 . S
C873 C106 1.074 . S
C889 C139 1.074 . S
C891 C516 1.017 . S
C907 C172 1.074 . S
C909 C417 1.017 . S
C925 C205 1.074 . S
C927 C450 1.017 . S
C943 C238 1.074 . S
C945 C483 1.017 . S
C961 C54 1.017 . S
C963 C271 1.074 . S
C979 C87 1.017 . S
C981 C304 1.074 . S
C997 C120 1.017 . S
C999 C337 1.074 . S
C1015 C21 1.017 . S
C1017 C370 1.074 . S
C1033 C252 1.017 . S
C1035 C403 1.074 . S
C1051 C153 1.017 . S
C1053 C436 1.074 . S
C1069 C186 1.017 . S
C1071 C469 1.074 . S
C1087 C502 1.074 . S
C1089 C219 1.017 . S
C1105 N79 0.753 . S
C1107 N13 0.753 . S
C1123 N112 0.753 . S
C1125 N46 0.753 . S
C1141 N145 0.753 . S
C1143 N211 0.753 . S
C1159 N244 0.753 . S
C1161 N178 0.753 . S
C1177 N277 0.753 . S
C1179 N343 0.753 . S
C1195 N376 0.753 . S
C1197 N310 0.753 . S
C1213 N409 0.753 . S
C1215 N475 0.753 . S
C1231 N442 0.753 . S
C1233 N508 0.753 . S
