# Generated by pormake.
# Topology uow, (4)-cn, num edge types: 1
# Building blocks:
#     Node 0, Type 0, BuildingBlock: QUQFOY_clean_sbu_1, # of connection points: 4
#     Node 1, Type 0, BuildingBlock: QUQFOY_clean_sbu_1, # of connection points: 4
#     Node 2, Type 0, BuildingBlock: QUQFOY_clean_sbu_1, # of connection points: 4
#     Node 3, Type 0, BuildingBlock: QUQFOY_clean_sbu_1, # of connection points: 4
#     Node 4, Type 0, BuildingBlock: QUQFOY_clean_sbu_1, # of connection points: 4
#     Node 5, Type 0, BuildingBlock: QUQFOY_clean_sbu_1, # of connection points: 4
#     Node 6, Type 0, BuildingBlock: QUQFOY_clean_sbu_1, # of connection points: 4
#     Node 7, Type 0, BuildingBlock: QUQFOY_clean_sbu_1, # of connection points: 4
#     Node 8, Type 0, BuildingBlock: QUQFOY_clean_sbu_1, # of connection points: 4
#     Node 9, Type 0, BuildingBlock: QUQFOY_clean_sbu_1, # of connection points: 4
#     Node 10, Type 0, BuildingBlock: QUQFOY_clean_sbu_1, # of connection points: 4
#     Node 11, Type 0, BuildingBlock: QUQFOY_clean_sbu_1, # of connection points: 4
#     Node 12, Type 0, BuildingBlock: QUQFOY_clean_sbu_1, # of connection points: 4
#     Node 13, Type 0, BuildingBlock: QUQFOY_clean_sbu_1, # of connection points: 4
#     Node 14, Type 0, BuildingBlock: QUQFOY_clean_sbu_1, # of connection points: 4
#     Node 15, Type 0, BuildingBlock: QUQFOY_clean_sbu_1, # of connection points: 4
#     Node 16, Type 0, BuildingBlock: QUQFOY_clean_sbu_1, # of connection points: 4
#     Node 17, Type 0, BuildingBlock: QUQFOY_clean_sbu_1, # of connection points: 4
#     Node 18, Type 0, BuildingBlock: QUQFOY_clean_sbu_1, # of connection points: 4
#     Node 19, Type 0, BuildingBlock: QUQFOY_clean_sbu_1, # of connection points: 4
#     Node 20, Type 0, BuildingBlock: QUQFOY_clean_sbu_1, # of connection points: 4
#     Node 21, Type 0, BuildingBlock: QUQFOY_clean_sbu_1, # of connection points: 4
#     Node 22, Type 0, BuildingBlock: QUQFOY_clean_sbu_1, # of connection points: 4
#     Node 23, Type 0, BuildingBlock: QUQFOY_clean_sbu_1, # of connection points: 4
#     Node 24, Type 0, BuildingBlock: QUQFOY_clean_sbu_1, # of connection points: 4
#     Node 25, Type 0, BuildingBlock: QUQFOY_clean_sbu_1, # of connection points: 4
#     Node 26, Type 0, BuildingBlock: QUQFOY_clean_sbu_1, # of connection points: 4
#     Node 27, Type 0, BuildingBlock: QUQFOY_clean_sbu_1, # of connection points: 4
#     Node 28, Type 0, BuildingBlock: QUQFOY_clean_sbu_1, # of connection points: 4
#     Node 29, Type 0, BuildingBlock: QUQFOY_clean_sbu_1, # of connection points: 4
#     Node 30, Type 0, BuildingBlock: QUQFOY_clean_sbu_1, # of connection points: 4
#     Node 31, Type 0, BuildingBlock: QUQFOY_clean_sbu_1, # of connection points: 4
#     Edge 32, Type (0, 0), BuildingBlock: XIVTED_clean_linker_0, # of connection points: 2
#     Edge 33, Type (0, 0), BuildingBlock: XIVTED_clean_linker_0, # of connection points: 2
#     Edge 34, Type (0, 0), BuildingBlock: XIVTED_clean_linker_0, # of connection points: 2
#     Edge 35, Type (0, 0), BuildingBlock: XIVTED_clean_linker_0, # of connection points: 2
#     Edge 36, Type (0, 0), BuildingBlock: XIVTED_clean_linker_0, # of connection points: 2
#     Edge 37, Type (0, 0), BuildingBlock: XIVTED_clean_linker_0, # of connection points: 2
#     Edge 38, Type (0, 0), BuildingBlock: XIVTED_clean_linker_0, # of connection points: 2
#     Edge 39, Type (0, 0), BuildingBlock: XIVTED_clean_linker_0, # of connection points: 2
#     Edge 40, Type (0, 0), BuildingBlock: XIVTED_clean_linker_0, # of connection points: 2
#     Edge 41, Type (0, 0), BuildingBlock: XIVTED_clean_linker_0, # of connection points: 2
#     Edge 42, Type (0, 0), BuildingBlock: XIVTED_clean_linker_0, # of connection points: 2
#     Edge 43, Type (0, 0), BuildingBlock: XIVTED_clean_linker_0, # of connection points: 2
#     Edge 44, Type (0, 0), BuildingBlock: XIVTED_clean_linker_0, # of connection points: 2
#     Edge 45, Type (0, 0), BuildingBlock: XIVTED_clean_linker_0, # of connection points: 2
#     Edge 46, Type (0, 0), BuildingBlock: XIVTED_clean_linker_0, # of connection points: 2
#     Edge 47, Type (0, 0), BuildingBlock: XIVTED_clean_linker_0, # of connection points: 2
#     Edge 48, Type (0, 0), BuildingBlock: XIVTED_clean_linker_0, # of connection points: 2
#     Edge 49, Type (0, 0), BuildingBlock: XIVTED_clean_linker_0, # of connection points: 2
#     Edge 50, Type (0, 0), BuildingBlock: XIVTED_clean_linker_0, # of connection points: 2
#     Edge 51, Type (0, 0), BuildingBlock: XIVTED_clean_linker_0, # of connection points: 2
#     Edge 52, Type (0, 0), BuildingBlock: XIVTED_clean_linker_0, # of connection points: 2
#     Edge 53, Type (0, 0), BuildingBlock: XIVTED_clean_linker_0, # of connection points: 2
#     Edge 54, Type (0, 0), BuildingBlock: XIVTED_clean_linker_0, # of connection points: 2
#     Edge 55, Type (0, 0), BuildingBlock: XIVTED_clean_linker_0, # of connection points: 2
#     Edge 56, Type (0, 0), BuildingBlock: XIVTED_clean_linker_0, # of connection points: 2
#     Edge 57, Type (0, 0), BuildingBlock: XIVTED_clean_linker_0, # of connection points: 2
#     Edge 58, Type (0, 0), BuildingBlock: XIVTED_clean_linker_0, # of connection points: 2
#     Edge 59, Type (0, 0), BuildingBlock: XIVTED_clean_linker_0, # of connection points: 2
#     Edge 60, Type (0, 0), BuildingBlock: XIVTED_clean_linker_0, # of connection points: 2
#     Edge 61, Type (0, 0), BuildingBlock: XIVTED_clean_linker_0, # of connection points: 2
#     Edge 62, Type (0, 0), BuildingBlock: XIVTED_clean_linker_0, # of connection points: 2
#     Edge 63, Type (0, 0), BuildingBlock: XIVTED_clean_linker_0, # of connection points: 2
#     Edge 64, Type (0, 0), BuildingBlock: XIVTED_clean_linker_0, # of connection points: 2
#     Edge 65, Type (0, 0), BuildingBlock: XIVTED_clean_linker_0, # of connection points: 2
#     Edge 66, Type (0, 0), BuildingBlock: XIVTED_clean_linker_0, # of connection points: 2
#     Edge 67, Type (0, 0), BuildingBlock: XIVTED_clean_linker_0, # of connection points: 2
#     Edge 68, Type (0, 0), BuildingBlock: XIVTED_clean_linker_0, # of connection points: 2
#     Edge 69, Type (0, 0), BuildingBlock: XIVTED_clean_linker_0, # of connection points: 2
#     Edge 70, Type (0, 0), BuildingBlock: XIVTED_clean_linker_0, # of connection points: 2
#     Edge 71, Type (0, 0), BuildingBlock: XIVTED_clean_linker_0, # of connection points: 2
#     Edge 72, Type (0, 0), BuildingBlock: XIVTED_clean_linker_0, # of connection points: 2
#     Edge 73, Type (0, 0), BuildingBlock: XIVTED_clean_linker_0, # of connection points: 2
#     Edge 74, Type (0, 0), BuildingBlock: XIVTED_clean_linker_0, # of connection points: 2
#     Edge 75, Type (0, 0), BuildingBlock: XIVTED_clean_linker_0, # of connection points: 2
#     Edge 76, Type (0, 0), BuildingBlock: XIVTED_clean_linker_0, # of connection points: 2
#     Edge 77, Type (0, 0), BuildingBlock: XIVTED_clean_linker_0, # of connection points: 2
#     Edge 78, Type (0, 0), BuildingBlock: XIVTED_clean_linker_0, # of connection points: 2
#     Edge 79, Type (0, 0), BuildingBlock: XIVTED_clean_linker_0, # of connection points: 2
#     Edge 80, Type (0, 0), BuildingBlock: XIVTED_clean_linker_0, # of connection points: 2
#     Edge 81, Type (0, 0), BuildingBlock: XIVTED_clean_linker_0, # of connection points: 2
#     Edge 82, Type (0, 0), BuildingBlock: XIVTED_clean_linker_0, # of connection points: 2
#     Edge 83, Type (0, 0), BuildingBlock: XIVTED_clean_linker_0, # of connection points: 2
#     Edge 84, Type (0, 0), BuildingBlock: XIVTED_clean_linker_0, # of connection points: 2
#     Edge 85, Type (0, 0), BuildingBlock: XIVTED_clean_linker_0, # of connection points: 2
#     Edge 86, Type (0, 0), BuildingBlock: XIVTED_clean_linker_0, # of connection points: 2
#     Edge 87, Type (0, 0), BuildingBlock: XIVTED_clean_linker_0, # of connection points: 2
#     Edge 88, Type (0, 0), BuildingBlock: XIVTED_clean_linker_0, # of connection points: 2
#     Edge 89, Type (0, 0), BuildingBlock: XIVTED_clean_linker_0, # of connection points: 2
#     Edge 90, Type (0, 0), BuildingBlock: XIVTED_clean_linker_0, # of connection points: 2
#     Edge 91, Type (0, 0), BuildingBlock: XIVTED_clean_linker_0, # of connection points: 2
#     Edge 92, Type (0, 0), BuildingBlock: XIVTED_clean_linker_0, # of connection points: 2
#     Edge 93, Type (0, 0), BuildingBlock: XIVTED_clean_linker_0, # of connection points: 2
#     Edge 94, Type (0, 0), BuildingBlock: XIVTED_clean_linker_0, # of connection points: 2
#     Edge 95, Type (0, 0), BuildingBlock: XIVTED_clean_linker_0, # of connection points: 2
# Relax obj value: 0.134
# Max RMSD: 0.127
# Mean RMSD: 0.127
data_MOF--net-uow--node1-QUQFOY_clean_sbu_1--edge1-XIVTED_clean_linker_0
_symmetry_space_group_name_H-M    P1
_symmetry_Int_Tables_number       1
_symmetry_cell_setting            triclinic
loop_
_symmetry_equiv_pos_as_xyz
'x, y, z'
_cell_length_a     64.649955
_cell_length_b     64.679964
_cell_length_c     44.458036
_cell_angle_alpha  89.986729
_cell_angle_beta   90.002597
_cell_angle_gamma 90.114535
loop_
_atom_site_label
_atom_site_type_symbol
_atom_site_fract_x
_atom_site_fract_y
_atom_site_fract_z
_atom_type_partial_charge
O0 O 0.03014 0.39603 0.32702 0.0
Cd1 Cd 0.06073 0.40089 0.31643 0.0
Cd2 Cd 0.05421 0.36901 0.27807 0.0
O3 O 0.02375 0.37255 0.29225 0.0
O4 O 0.0673 0.43054 0.32439 0.0
O5 O 0.06754 0.41664 0.27884 0.0
C6 C 0.06957 0.43281 0.29571 0.0
C7 C 0.06182 0.36138 0.22774 0.0
C8 C 0.01759 0.38389 0.31385 0.0
C9 C 0.08417 0.36289 0.33023 0.0
O10 O 0.07455 0.35536 0.30782 0.0
O11 O 0.08161 0.38166 0.33779 0.0
O12 O 0.05264 0.34824 0.24494 0.0
O13 O 0.06591 0.37943 0.23868 0.0
O14 O 0.86375 0.77498 0.57139 0.0
Cd15 Cd 0.85955 0.80594 0.56269 0.0
Cd16 Cd 0.89163 0.79998 0.52399 0.0
O17 O 0.88739 0.76928 0.5366 0.0
O18 O 0.82998 0.81263 0.57104 0.0
O19 O 0.84383 0.81375 0.52549 0.0
C20 C 0.82768 0.8155 0.54248 0.0
C21 C 0.89994 0.80837 0.47412 0.0
C22 C 0.87569 0.76264 0.55754 0.0
C23 C 0.89794 0.82882 0.57748 0.0
O24 O 0.90537 0.81964 0.55465 0.0
O25 O 0.87915 0.82615 0.585 0.0
O26 O 0.91272 0.79872 0.4913 0.0
O27 O 0.88185 0.81254 0.4848 0.0
O28 O 0.47979 0.61477 0.82204 0.0
Cd29 Cd 0.44936 0.60569 0.81785 0.0
Cd30 Cd 0.44674 0.63857 0.77925 0.0
O31 O 0.47729 0.64227 0.79281 0.0
O32 O 0.44734 0.57554 0.82682 0.0
O33 O 0.44058 0.58894 0.78202 0.0
C34 C 0.44207 0.5728 0.79908 0.0
C35 C 0.43774 0.64698 0.72961 0.0
C36 C 0.48784 0.63082 0.81034 0.0
C37 C 0.41971 0.63847 0.83529 0.0
O38 O 0.42432 0.64644 0.81006 0.0
O39 O 0.42832 0.62185 0.84394 0.0
O40 O 0.44211 0.661 0.74912 0.0
O41 O 0.43917 0.62789 0.7378 0.0
O42 O 0.64697 0.22875 0.0743 0.0
Cd43 Cd 0.64927 0.19805 0.06131 0.0
Cd44 Cd 0.61862 0.20949 0.02628 0.0
O45 O 0.62789 0.23923 0.03623 0.0
O46 O 0.67825 0.1891 0.06982 0.0
O47 O 0.66533 0.19163 0.02383 0.0
C48 C 0.681 0.18794 0.04109 0.0
C49 C 0.60985 0.19928 0.97741 0.0
C50 C 0.63831 0.2433 0.05975 0.0
C51 C 0.60883 0.18164 0.07871 0.0
O52 O 0.60228 0.19493 0.05997 0.0
O53 O 0.62808 0.17789 0.0808 0.0
O54 O 0.59839 0.21179 0.99257 0.0
O55 O 0.62689 0.19311 0.98959 0.0
O56 O 0.02721 0.61073 0.17761 0.0
Cd57 Cd 0.05797 0.60712 0.18815 0.0
Cd58 Cd 0.05032 0.63861 0.22701 0.0
O59 O 0.02006 0.63383 0.21258 0.0
O60 O 0.06561 0.57775 0.1802 0.0
O61 O 0.06517 0.59161 0.22578 0.0
C62 C 0.06781 0.57554 0.2089 0.0
C63 C 0.05707 0.64679 0.27746 0.0
C64 C 0.01425 0.62227 0.19099 0.0
C65 C 0.08041 0.64601 0.17522 0.0
O66 O 0.07049 0.65305 0.19767 0.0
O67 O 0.07834 0.62724 0.16726 0.0
O68 O 0.04764 0.65945 0.25985 0.0
O69 O 0.06195 0.62887 0.26684 0.0
O70 O 0.64511 0.77837 0.42702 0.0
Cd71 Cd 0.65192 0.80876 0.43659 0.0
Cd72 Cd 0.61887 0.8047 0.47434 0.0
O73 O 0.61949 0.77423 0.45933 0.0
O74 O 0.68195 0.81335 0.42852 0.0
O75 O 0.66804 0.81551 0.47394 0.0
C76 C 0.68431 0.81631 0.45705 0.0
C77 C 0.61096 0.8123 0.52451 0.0
C78 C 0.63128 0.76701 0.43893 0.0
C79 C 0.61616 0.83513 0.4218 0.0
O80 O 0.608 0.82675 0.44477 0.0
O81 O 0.63443 0.83045 0.41384 0.0
O82 O 0.59699 0.80612 0.50594 0.0
O83 O 0.62984 0.81325 0.51511 0.0
O84 O 0.47906 0.39568 0.67785 0.0
Cd85 Cd 0.4485 0.39824 0.6914 0.0
Cd86 Cd 0.4598 0.36734 0.7259 0.0
O87 O 0.48958 0.37642 0.7157 0.0
O88 O 0.43978 0.42735 0.68347 0.0
O89 O 0.44274 0.41413 0.72922 0.0
C90 C 0.43905 0.42994 0.71225 0.0
C91 C 0.44968 0.35873 0.77486 0.0
C92 C 0.49362 0.38689 0.69221 0.0
C93 C 0.43146 0.35809 0.6739 0.0
O94 O 0.44486 0.35128 0.69228 0.0
O95 O 0.42789 0.37739 0.67214 0.0
O96 O 0.462 0.3471 0.75963 0.0
O97 O 0.44364 0.37582 0.76268 0.0
O98 O 0.86274 0.22661 0.92627 0.0
Cd99 Cd 0.85656 0.19602 0.93535 0.0
Cd100 Cd 0.88936 0.20075 0.9737 0.0
O101 O 0.88794 0.23129 0.95912 0.0
O102 O 0.82676 0.19093 0.92626 0.0
O103 O 0.83999 0.18873 0.9721 0.0
C104 C 0.824 0.1878 0.95466 0.0
C105 C 0.89769 0.19302 0.02368 0.0
C106 C 0.87613 0.23829 0.93859 0.0
C107 C 0.8931 0.17067 0.92082 0.0
O108 O 0.9009 0.17919 0.94393 0.0
O109 O 0.87474 0.17485 0.91268 0.0
O110 O 0.91139 0.19975 0.00509 0.0
O111 O 0.8788 0.19162 0.01447 0.0
O112 O 0.97924 0.61404 0.68081 0.0
Cd113 Cd 0.94859 0.60586 0.68531 0.0
Cd114 Cd 0.94725 0.63843 0.72435 0.0
O115 O 0.97801 0.64096 0.71131 0.0
O116 O 0.94565 0.57567 0.67719 0.0
O117 O 0.93977 0.58983 0.72177 0.0
C118 C 0.94074 0.57343 0.70517 0.0
C119 C 0.93812 0.64662 0.77397 0.0
C120 C 0.98801 0.62945 0.6932 0.0
C121 C 0.92017 0.63976 0.66828 0.0
O122 O 0.92537 0.64751 0.69341 0.0
O123 O 0.92787 0.62272 0.65956 0.0
O124 O 0.94327 0.66068 0.75491 0.0
O125 O 0.93888 0.62758 0.76537 0.0
O126 O 0.14559 0.22798 0.42708 0.0
Cd127 Cd 0.14934 0.19732 0.4378 0.0
Cd128 Cd 0.11769 0.20483 0.47601 0.0
O129 O 0.12246 0.23517 0.462 0.0
O130 O 0.17881 0.18986 0.43014 0.0
O131 O 0.16475 0.19035 0.4756 0.0
C132 C 0.18093 0.18782 0.45888 0.0
C133 C 0.10968 0.19731 0.52627 0.0
C134 C 0.134 0.24094 0.44035 0.0
C135 C 0.11049 0.17523 0.42375 0.0
O136 O 0.10327 0.18511 0.44609 0.0
O137 O 0.12941 0.17706 0.41638 0.0
O138 O 0.09695 0.20704 0.5091 0.0
O139 O 0.12757 0.19261 0.51534 0.0
O140 O 0.53312 0.39487 0.17265 0.0
Cd141 Cd 0.56335 0.40043 0.18484 0.0
Cd142 Cd 0.55645 0.36866 0.22345 0.0
O143 O 0.52628 0.3718 0.20783 0.0
O144 O 0.56957 0.43019 0.177 0.0
O145 O 0.56881 0.41645 0.22265 0.0
C146 C 0.57103 0.43259 0.20577 0.0
C147 C 0.56286 0.36094 0.2741 0.0
C148 C 0.52043 0.38277 0.18563 0.0
C149 C 0.58798 0.36285 0.17317 0.0
O150 O 0.57776 0.35525 0.19497 0.0
O151 O 0.5853 0.38153 0.1652 0.0
O152 O 0.55421 0.34779 0.25635 0.0
O153 O 0.56706 0.37906 0.26349 0.0
O154 O 0.36305 0.77267 0.93192 0.0
Cd155 Cd 0.35954 0.80382 0.93965 0.0
Cd156 Cd 0.39114 0.79762 0.97899 0.0
O157 O 0.38636 0.76687 0.96714 0.0
O158 O 0.33017 0.81108 0.9307 0.0
O159 O 0.34376 0.81251 0.9764 0.0
C160 C 0.32776 0.81436 0.95914 0.0
C161 C 0.39904 0.8065 0.0288 0.0
C162 C 0.37464 0.76023 0.94623 0.0
C163 C 0.39865 0.82549 0.92478 0.0
O164 O 0.40566 0.81649 0.94805 0.0
O165 O 0.37985 0.82319 0.91702 0.0
O166 O 0.41183 0.79637 0.01223 0.0
O167 O 0.38116 0.81087 0.01756 0.0
O168 O 0.98005 0.39493 0.82442 0.0
Cd169 Cd 0.94942 0.39905 0.81366 0.0
Cd170 Cd 0.95669 0.36753 0.77498 0.0
O171 O 0.98705 0.37197 0.7892 0.0
O172 O 0.94217 0.42858 0.82114 0.0
O173 O 0.94267 0.41442 0.77576 0.0
C174 C 0.9402 0.43065 0.79238 0.0
C175 C 0.94925 0.35949 0.7247 0.0
C176 C 0.99292 0.3833 0.81103 0.0
C177 C 0.92686 0.36039 0.82708 0.0
O178 O 0.93671 0.35323 0.80466 0.0
O179 O 0.92891 0.37921 0.8348 0.0
O180 O 0.95886 0.34673 0.74197 0.0
O181 O 0.94466 0.37743 0.73551 0.0
O182 O 0.36189 0.22848 0.57583 0.0
Cd183 Cd 0.35478 0.1977 0.56977 0.0
Cd184 Cd 0.38607 0.19831 0.52877 0.0
O185 O 0.38648 0.2292 0.54143 0.0
O186 O 0.32482 0.19322 0.5783 0.0
O187 O 0.33875 0.18948 0.53306 0.0
C188 C 0.32249 0.18922 0.55002 0.0
C189 C 0.39376 0.18989 0.4786 0.0
C190 C 0.37581 0.23829 0.56152 0.0
C191 C 0.39071 0.17092 0.58399 0.0
O192 O 0.39797 0.17748 0.5592 0.0
O193 O 0.37306 0.17688 0.59316 0.0
O194 O 0.40743 0.19764 0.49637 0.0
O195 O 0.37527 0.18742 0.48894 0.0
O196 O 0.52552 0.61077 0.3217 0.0
Cd197 Cd 0.55641 0.6072 0.31202 0.0
Cd198 Cd 0.5492 0.63894 0.27318 0.0
O199 O 0.5188 0.63411 0.28688 0.0
O200 O 0.56393 0.57784 0.32029 0.0
O201 O 0.56422 0.59166 0.27467 0.0
C202 C 0.56659 0.5756 0.29168 0.0
C203 C 0.55643 0.64783 0.2231 0.0
C204 C 0.51274 0.62243 0.3082 0.0
C205 C 0.57852 0.64608 0.326 0.0
O206 O 0.56899 0.65317 0.30323 0.0
O207 O 0.57635 0.62729 0.3338 0.0
O208 O 0.54681 0.66023 0.24088 0.0
O209 O 0.56123 0.62977 0.2333 0.0
O210 O 0.14654 0.77873 0.07531 0.0
Cd211 Cd 0.15194 0.80909 0.06381 0.0
Cd212 Cd 0.12036 0.80237 0.0248 0.0
O213 O 0.12355 0.7721 0.03992 0.0
O214 O 0.18164 0.81549 0.07199 0.0
O215 O 0.16806 0.81512 0.02623 0.0
C216 C 0.18414 0.81729 0.04328 0.0
C217 C 0.11263 0.80926 0.97425 0.0
C218 C 0.13447 0.76613 0.0621 0.0
C219 C 0.114 0.83308 0.07598 0.0
O220 O 0.10662 0.82318 0.05372 0.0
O221 O 0.13269 0.8305 0.08404 0.0
O222 O 0.09954 0.8003 0.99177 0.0
O223 O 0.13071 0.81351 0.98499 0.0
O224 O 0.53166 0.89371 0.82565 0.0
Cd225 Cd 0.56184 0.90119 0.8154 0.0
Cd226 Cd 0.55832 0.86737 0.77883 0.0
O227 O 0.52795 0.86743 0.79438 0.0
O228 O 0.56571 0.93133 0.82324 0.0
O229 O 0.56803 0.91738 0.77787 0.0
C230 C 0.56855 0.93369 0.79469 0.0
C231 C 0.56564 0.85902 0.72873 0.0
C232 C 0.52057 0.87939 0.81444 0.0
C233 C 0.58943 0.8664 0.83068 0.0
O234 O 0.581 0.85761 0.80824 0.0
O235 O 0.58428 0.88464 0.83811 0.0
O236 O 0.56005 0.84513 0.74783 0.0
O237 O 0.56616 0.87802 0.73758 0.0
O238 O 0.36282 0.27639 0.07419 0.0
Cd239 Cd 0.35892 0.30723 0.06435 0.0
Cd240 Cd 0.39015 0.3002 0.02483 0.0
O241 O 0.38568 0.2698 0.03865 0.0
O242 O 0.3295 0.3146 0.07268 0.0
O243 O 0.34319 0.31464 0.02699 0.0
C244 C 0.32716 0.31702 0.04404 0.0
C245 C 0.39807 0.30738 0.97443 0.0
C246 C 0.37435 0.26367 0.06032 0.0
C247 C 0.39783 0.32972 0.07716 0.0
O248 O 0.40473 0.32008 0.05437 0.0
O249 O 0.37911 0.3275 0.08536 0.0
O250 O 0.41087 0.29789 0.99177 0.0
O251 O 0.38018 0.3121 0.98531 0.0
O252 O 0.97571 0.1116 0.32564 0.0
Cd253 Cd 0.94519 0.1057 0.31572 0.0
Cd254 Cd 0.95049 0.13877 0.27834 0.0
O255 O 0.98096 0.13695 0.29324 0.0
O256 O 0.93991 0.07579 0.32374 0.0
O257 O 0.93838 0.08971 0.27827 0.0
C258 C 0.93722 0.07346 0.29515 0.0
C259 C 0.94297 0.14728 0.22836 0.0
C260 C 0.98764 0.12493 0.31374 0.0
C261 C 0.92001 0.14223 0.33077 0.0
O262 O 0.92888 0.15025 0.30809 0.0
O263 O 0.92387 0.1237 0.33841 0.0
O264 O 0.94975 0.16089 0.24706 0.0
O265 O 0.94141 0.12838 0.23749 0.0
O266 O 0.14587 0.73091 0.57157 0.0
Cd267 Cd 0.14768 0.70004 0.55952 0.0
Cd268 Cd 0.11688 0.7114 0.52463 0.0
O269 O 0.12622 0.74123 0.534 0.0
O270 O 0.17665 0.69094 0.56784 0.0
O271 O 0.16335 0.69281 0.52202 0.0
C272 C 0.17914 0.68929 0.53912 0.0
C273 C 0.10811 0.70051 0.47604 0.0
C274 C 0.13703 0.7454 0.55712 0.0
C275 C 0.10719 0.68445 0.57818 0.0
O276 O 0.10066 0.69734 0.55884 0.0
O277 O 0.12642 0.68057 0.58025 0.0
O278 O 0.09663 0.71322 0.49082 0.0
O279 O 0.12516 0.69454 0.48842 0.0
O280 O 0.52703 0.11243 0.67835 0.0
Cd281 Cd 0.55784 0.10872 0.6885 0.0
Cd282 Cd 0.55034 0.1398 0.72802 0.0
O283 O 0.52001 0.13507 0.71399 0.0
O284 O 0.56535 0.07934 0.68027 0.0
O285 O 0.56497 0.09302 0.72597 0.0
C286 C 0.56746 0.07699 0.70896 0.0
C287 C 0.55748 0.14756 0.77848 0.0
C288 C 0.5141 0.12375 0.69219 0.0
C289 C 0.5801 0.14779 0.67604 0.0
O290 O 0.57022 0.15458 0.69867 0.0
O291 O 0.57813 0.12906 0.6678 0.0
O292 O 0.54787 0.16035 0.76127 0.0
O293 O 0.56232 0.12975 0.76745 0.0
O294 O 0.14678 0.27979 0.92719 0.0
Cd295 Cd 0.15188 0.31032 0.93786 0.0
Cd296 Cd 0.12003 0.30394 0.97662 0.0
O297 O 0.12347 0.27352 0.96227 0.0
O298 O 0.18157 0.31675 0.92977 0.0
O299 O 0.16779 0.31695 0.9754 0.0
C300 C 0.18394 0.31894 0.95844 0.0
C301 C 0.11184 0.31115 0.02691 0.0
C302 C 0.13465 0.26731 0.94051 0.0
C303 C 0.11394 0.334 0.92451 0.0
O304 O 0.10647 0.32441 0.94699 0.0
O305 O 0.13266 0.33133 0.91672 0.0
O306 O 0.09892 0.30207 0.00926 0.0
O307 O 0.12999 0.31539 0.01644 0.0
O308 O 0.97983 0.89571 0.17344 0.0
Cd309 Cd 0.94918 0.89991 0.1841 0.0
Cd310 Cd 0.95652 0.86896 0.22383 0.0
O311 O 0.98683 0.87319 0.20928 0.0
O312 O 0.94179 0.92933 0.1759 0.0
O313 O 0.9423 0.91567 0.22161 0.0
C314 C 0.93972 0.93169 0.2046 0.0
C315 C 0.94942 0.86135 0.27436 0.0
C316 C 0.99269 0.88423 0.18714 0.0
C317 C 0.92655 0.86106 0.17209 0.0
O318 O 0.9364 0.85427 0.19477 0.0
O319 O 0.92866 0.87972 0.16365 0.0
O320 O 0.95891 0.84846 0.2572 0.0
O321 O 0.94475 0.8792 0.26328 0.0
O322 O 0.36159 0.72638 0.42572 0.0
Cd323 Cd 0.35512 0.69587 0.43497 0.0
Cd324 Cd 0.38783 0.70023 0.47317 0.0
O325 O 0.3869 0.73077 0.45847 0.0
O326 O 0.3252 0.69099 0.42647 0.0
O327 O 0.33886 0.68878 0.47205 0.0
C328 C 0.3227 0.68791 0.45494 0.0
C329 C 0.39541 0.69241 0.52339 0.0
C330 C 0.37516 0.7379 0.43793 0.0
C331 C 0.39131 0.67004 0.42046 0.0
O332 O 0.39922 0.67846 0.44358 0.0
O333 O 0.37302 0.67448 0.4123 0.0
O334 O 0.40944 0.69897 0.50517 0.0
O335 O 0.37664 0.69123 0.51362 0.0
O336 O 0.47887 0.11133 0.17657 0.0
Cd337 Cd 0.4481 0.10448 0.18343 0.0
Cd338 Cd 0.44953 0.13566 0.22458 0.0
O339 O 0.4803 0.13575 0.21118 0.0
O340 O 0.44331 0.07456 0.17501 0.0
O341 O 0.44031 0.08849 0.22036 0.0
C342 C 0.43975 0.07224 0.20341 0.0
C343 C 0.44168 0.14339 0.27492 0.0
C344 C 0.48902 0.12506 0.19076 0.0
C345 C 0.42146 0.14068 0.17012 0.0
O346 O 0.42846 0.14783 0.19472 0.0
O347 O 0.4271 0.123 0.16072 0.0
O348 O 0.44949 0.15696 0.25705 0.0
O349 O 0.43886 0.12495 0.26459 0.0
O350 O 0.64684 0.73387 0.93096 0.0
Cd351 Cd 0.6479 0.70289 0.9427 0.0
Cd352 Cd 0.61736 0.71474 0.97785 0.0
O353 O 0.62732 0.74439 0.96854 0.0
O354 O 0.67667 0.6931 0.93447 0.0
O355 O 0.66333 0.69524 0.98023 0.0
C356 C 0.67906 0.69137 0.96321 0.0
C357 C 0.60874 0.70377 0.02645 0.0
C358 C 0.6383 0.74847 0.94555 0.0
C359 C 0.60693 0.68801 0.92442 0.0
O360 O 0.60068 0.70097 0.94385 0.0
O361 O 0.6261 0.68392 0.92207 0.0
O362 O 0.59741 0.71679 0.012 0.0
O363 O 0.62559 0.69755 0.01377 0.0
O364 O 0.03128 0.89557 0.67489 0.0
Cd365 Cd 0.06174 0.90114 0.68577 0.0
Cd366 Cd 0.05597 0.86847 0.72325 0.0
O367 O 0.02549 0.87133 0.7088 0.0
O368 O 0.06761 0.93092 0.67765 0.0
O369 O 0.06819 0.91717 0.72329 0.0
C370 C 0.06993 0.93331 0.70629 0.0
C371 C 0.06342 0.86034 0.77347 0.0
C372 C 0.01905 0.88286 0.68757 0.0
C373 C 0.08648 0.864 0.67143 0.0
O374 O 0.07695 0.85586 0.69348 0.0
O375 O 0.0833 0.88276 0.66429 0.0
O376 O 0.05475 0.8472 0.75572 0.0
O377 O 0.06707 0.87865 0.76313 0.0
O378 O 0.86061 0.27776 0.4266 0.0
Cd379 Cd 0.8569 0.30854 0.43679 0.0
Cd380 Cd 0.88875 0.3012 0.47506 0.0
O381 O 0.88399 0.2708 0.46129 0.0
O382 O 0.82744 0.3159 0.4289 0.0
O383 O 0.84145 0.31589 0.47439 0.0
C384 C 0.8253 0.31827 0.45758 0.0
C385 C 0.89675 0.30891 0.52525 0.0
C386 C 0.87228 0.26488 0.43991 0.0
C387 C 0.89565 0.3309 0.42274 0.0
O388 O 0.90295 0.32107 0.4451 0.0
O389 O 0.87678 0.32884 0.41527 0.0
O390 O 0.90954 0.29922 0.50811 0.0
O391 O 0.8788 0.31341 0.51434 0.0
O392 O 0.48159 0.89604 0.32613 0.0
Cd393 Cd 0.45075 0.89945 0.31604 0.0
Cd394 Cd 0.45823 0.86785 0.27752 0.0
O395 O 0.48861 0.87292 0.29115 0.0
O396 O 0.44301 0.92883 0.32373 0.0
O397 O 0.44332 0.91472 0.2783 0.0
C398 C 0.44073 0.93088 0.29501 0.0
C399 C 0.45073 0.85942 0.2274 0.0
C400 C 0.49452 0.88456 0.3126 0.0
C401 C 0.42887 0.86044 0.33008 0.0
O402 O 0.43865 0.85334 0.30755 0.0
O403 O 0.43074 0.8793 0.33765 0.0
O404 O 0.46061 0.84693 0.24475 0.0
O405 O 0.44586 0.87733 0.23806 0.0
O406 O 0.86107 0.72625 0.07731 0.0
Cd407 Cd 0.85464 0.69568 0.06844 0.0
Cd408 Cd 0.88703 0.69994 0.0297 0.0
O409 O 0.88593 0.73058 0.04384 0.0
O410 O 0.8247 0.69076 0.07684 0.0
O411 O 0.83846 0.68852 0.03132 0.0
C412 C 0.82225 0.68769 0.04835 0.0
C413 C 0.89468 0.69188 0.97962 0.0
C414 C 0.87439 0.73778 0.06455 0.0
C415 C 0.89103 0.67011 0.08281 0.0
O416 O 0.89874 0.67851 0.05954 0.0
O417 O 0.87273 0.67441 0.0911 0.0
O418 O 0.90865 0.69865 0.99775 0.0
O419 O 0.87591 0.69061 0.98938 0.0
O420 O 0.0291 0.11088 0.8266 0.0
Cd421 Cd 0.05987 0.10702 0.81638 0.0
Cd422 Cd 0.05252 0.13838 0.77726 0.0
O423 O 0.02214 0.13378 0.79127 0.0
O424 O 0.06724 0.07763 0.82477 0.0
O425 O 0.06703 0.09123 0.77901 0.0
C426 C 0.06946 0.07523 0.79611 0.0
C427 C 0.05999 0.14598 0.72686 0.0
C428 C 0.01621 0.12237 0.81297 0.0
C429 C 0.08235 0.14587 0.82928 0.0
O430 O 0.07249 0.15288 0.80675 0.0
O431 O 0.08027 0.12711 0.83729 0.0
O432 O 0.05039 0.1589 0.74388 0.0
O433 O 0.06458 0.12814 0.73802 0.0
O434 O 0.64481 0.28206 0.57781 0.0
Cd435 Cd 0.65052 0.31233 0.56606 0.0
Cd436 Cd 0.61883 0.3059 0.52726 0.0
O437 O 0.62164 0.27563 0.54258 0.0
O438 O 0.68031 0.31847 0.57377 0.0
O439 O 0.66639 0.31808 0.52822 0.0
C440 C 0.6826 0.3202 0.54501 0.0
C441 C 0.61154 0.31273 0.4766 0.0
C442 C 0.63257 0.26957 0.5647 0.0
C443 C 0.61306 0.3371 0.57795 0.0
O444 O 0.60547 0.32715 0.5559 0.0
O445 O 0.6317 0.3342 0.58602 0.0
O446 O 0.59815 0.30413 0.49403 0.0
O447 O 0.62963 0.31664 0.48753 0.0
H448 H 0.08968 0.38088 0.19056 0.0
H449 H 0.07815 0.29788 0.05838 0.0
H450 H 0.04958 0.32758 0.19563 0.0
H451 H 0.1303 0.33942 0.06456 0.0
H452 H 0.06569 0.31064 0.10672 0.0
H453 H 0.10261 0.3684 0.14192 0.0
C454 C 0.08344 0.36669 0.18131 0.0
C455 C 0.06852 0.35525 0.19717 0.0
C456 C 0.07992 0.3169 0.09763 0.0
C457 C 0.08328 0.34088 0.14175 0.0
C458 C 0.08707 0.30961 0.07002 0.0
C459 C 0.10533 0.31756 0.05744 0.0
C460 C 0.09093 0.33251 0.1127 0.0
C461 C 0.11622 0.33276 0.07355 0.0
C462 C 0.09094 0.3595 0.1537 0.0
C463 C 0.06111 0.33688 0.18424 0.0
N464 N 0.10877 0.33987 0.10027 0.0
N465 N 0.06853 0.3303 0.15732 0.0
H466 H 0.92109 0.88002 0.3116 0.0
H467 H 0.93391 0.79614 0.44253 0.0
H468 H 0.96267 0.82803 0.30655 0.0
H469 H 0.88139 0.83706 0.43732 0.0
H470 H 0.94638 0.80977 0.39469 0.0
H471 H 0.90843 0.86705 0.36017 0.0
C472 C 0.92772 0.86602 0.32085 0.0
C473 C 0.94296 0.85508 0.30499 0.0
C474 C 0.93207 0.81572 0.40388 0.0
C475 C 0.9285 0.84014 0.36031 0.0
C476 C 0.92491 0.80792 0.43121 0.0
C477 C 0.90654 0.81543 0.44392 0.0
C478 C 0.92093 0.83137 0.38918 0.0
C479 C 0.89556 0.83074 0.42822 0.0
C480 C 0.92037 0.85855 0.34842 0.0
C481 C 0.95088 0.83695 0.31792 0.0
N482 N 0.903 0.83831 0.40174 0.0
N483 N 0.94358 0.83008 0.34478 0.0
H484 H 0.41492 0.68062 0.7145 0.0
H485 H 0.43164 0.67486 0.54062 0.0
H486 H 0.4442 0.62692 0.67603 0.0
H487 H 0.3722 0.69356 0.57511 0.0
H488 H 0.4411 0.6624 0.59088 0.0
H489 H 0.40336 0.69092 0.66411 0.0
C490 C 0.41895 0.67103 0.6954 0.0
C491 C 0.43055 0.65291 0.69931 0.0
C492 C 0.42599 0.66921 0.58735 0.0
C493 C 0.41775 0.66483 0.64188 0.0
C494 C 0.42064 0.67645 0.55885 0.0
C495 C 0.40113 0.6853 0.55383 0.0
C496 C 0.41199 0.6714 0.61118 0.0
C497 C 0.38737 0.68681 0.57811 0.0
C498 C 0.41224 0.67686 0.66681 0.0
C499 C 0.43523 0.64096 0.6739 0.0
N500 N 0.39317 0.68019 0.60594 0.0
N501 N 0.42908 0.64731 0.6461 0.0
H502 H 0.54437 0.18115 0.81013 0.0
H503 H 0.62667 0.16812 0.94322 0.0
H504 H 0.58551 0.12886 0.81621 0.0
H505 H 0.57705 0.21266 0.94408 0.0
H506 H 0.61338 0.15448 0.89546 0.0
H507 H 0.55728 0.19355 0.85838 0.0
C508 C 0.55603 0.17217 0.82174 0.0
C509 C 0.56387 0.15393 0.80909 0.0
C510 C 0.60544 0.16724 0.90614 0.0
C511 C 0.57897 0.16823 0.86437 0.0
C512 C 0.61308 0.17512 0.93329 0.0
C513 C 0.60297 0.19158 0.94766 0.0
C514 C 0.58765 0.176 0.8932 0.0
C515 C 0.58536 0.19996 0.93385 0.0
C516 C 0.56343 0.17929 0.84932 0.0
C517 C 0.57897 0.14295 0.82521 0.0
N518 N 0.5783 0.19211 0.90744 0.0
N519 N 0.58616 0.15035 0.85194 0.0
H520 H 0.04351 0.6805 0.30846 0.0
H521 H 0.1252 0.66911 0.44261 0.0
H522 H 0.0849 0.62849 0.31592 0.0
H523 H 0.07519 0.71321 0.44237 0.0
H524 H 0.11215 0.65492 0.39506 0.0
H525 H 0.05597 0.69328 0.35675 0.0
C526 C 0.05513 0.67166 0.32038 0.0
C527 C 0.06317 0.65339 0.30811 0.0
C528 C 0.10406 0.6677 0.40546 0.0
C529 C 0.07778 0.66814 0.36342 0.0
C530 C 0.11157 0.67589 0.43249 0.0
C531 C 0.10129 0.69241 0.44648 0.0
C532 C 0.08625 0.67619 0.39223 0.0
C533 C 0.08363 0.70049 0.43243 0.0
C534 C 0.06227 0.679 0.34798 0.0
C535 C 0.07821 0.6426 0.32462 0.0
N536 N 0.07671 0.69234 0.40612 0.0
N537 N 0.08515 0.65023 0.35135 0.0
H538 H 0.63329 0.80937 0.57685 0.0
H539 H 0.56142 0.88052 0.67587 0.0
H540 H 0.57539 0.83142 0.54102 0.0
H541 H 0.58559 0.82381 0.71271 0.0
H542 H 0.57296 0.8694 0.62555 0.0
H543 H 0.62251 0.82127 0.62716 0.0
C544 C 0.61839 0.81677 0.57959 0.0
C545 C 0.6051 0.81927 0.55494 0.0
C546 C 0.57573 0.8595 0.64478 0.0
C547 C 0.59311 0.83337 0.61169 0.0
C548 C 0.56922 0.86582 0.67335 0.0
C549 C 0.57242 0.85295 0.69829 0.0
C550 C 0.58611 0.84058 0.6415 0.0
C551 C 0.58263 0.83404 0.69393 0.0
C552 C 0.61227 0.82348 0.60815 0.0
C553 C 0.58596 0.829 0.55957 0.0
N554 N 0.58932 0.8285 0.6661 0.0
N555 N 0.5806 0.8359 0.58736 0.0
H556 H 0.43179 0.29428 0.94303 0.0
H557 H 0.41872 0.37586 0.80911 0.0
H558 H 0.37934 0.33519 0.9364 0.0
H559 H 0.46296 0.32598 0.80836 0.0
H560 H 0.40515 0.36286 0.85708 0.0
H561 H 0.44418 0.30695 0.89465 0.0
C562 C 0.42278 0.30584 0.93128 0.0
C563 C 0.40449 0.31368 0.9438 0.0
C564 C 0.41783 0.35479 0.84638 0.0
C565 C 0.41878 0.32851 0.88837 0.0
C566 C 0.42567 0.36227 0.81911 0.0
C567 C 0.44202 0.352 0.80471 0.0
C568 C 0.42653 0.33702 0.85942 0.0
C569 C 0.45034 0.3344 0.81861 0.0
C570 C 0.42989 0.3131 0.90362 0.0
C571 C 0.39347 0.32866 0.9275 0.0
N572 N 0.44254 0.32751 0.84515 0.0
N573 N 0.40087 0.33571 0.9007 0.0
H574 H 0.9335 0.17394 0.03899 0.0
H575 H 0.92427 0.18329 0.21306 0.0
H576 H 0.87608 0.19572 0.07672 0.0
H577 H 0.94548 0.12569 0.17532 0.0
H578 H 0.91199 0.19381 0.16309 0.0
H579 H 0.94391 0.16158 0.08895 0.0
C580 C 0.92315 0.17622 0.05786 0.0
C581 C 0.90394 0.18589 0.05387 0.0
C582 C 0.91932 0.17888 0.16587 0.0
C583 C 0.91591 0.17218 0.1108 0.0
C584 C 0.92645 0.17293 0.19418 0.0
C585 C 0.93594 0.15362 0.19817 0.0
C586 C 0.92231 0.16572 0.14125 0.0
C587 C 0.93821 0.14068 0.17309 0.0
C588 C 0.92904 0.16904 0.08618 0.0
C589 C 0.89101 0.1883 0.07895 0.0
N590 N 0.93172 0.1471 0.14549 0.0
N591 N 0.89737 0.18176 0.10656 0.0
H592 H 0.91611 0.68077 0.78907 0.0
H593 H 0.93075 0.67382 0.96294 0.0
H594 H 0.94334 0.62592 0.82732 0.0
H595 H 0.87179 0.6933 0.92762 0.0
H596 H 0.94041 0.66133 0.91278 0.0
H597 H 0.90417 0.69095 0.83933 0.0
C598 C 0.91961 0.67091 0.8081 0.0
C599 C 0.93075 0.65251 0.80418 0.0
C600 C 0.92536 0.6683 0.91612 0.0
C601 C 0.91752 0.66425 0.86145 0.0
C602 C 0.91989 0.67556 0.94456 0.0
C603 C 0.90047 0.68465 0.94929 0.0
C604 C 0.91157 0.67074 0.89209 0.0
C605 C 0.88689 0.68636 0.92482 0.0
C606 C 0.91269 0.67666 0.83661 0.0
C607 C 0.93475 0.64019 0.82947 0.0
N608 N 0.89282 0.67973 0.89706 0.0
N609 N 0.92841 0.64646 0.85722 0.0
H610 H 0.07629 0.2106 0.55831 0.0
H611 H 0.08812 0.12693 0.68972 0.0
H612 H 0.12793 0.16855 0.56324 0.0
H613 H 0.04733 0.17956 0.69468 0.0
H614 H 0.10093 0.13964 0.6411 0.0
H615 H 0.06389 0.19753 0.60653 0.0
C616 C 0.08512 0.1987 0.56965 0.0
C617 C 0.10321 0.19069 0.55674 0.0
C618 C 0.08914 0.14834 0.65285 0.0
C619 C 0.08888 0.1754 0.6119 0.0
C620 C 0.08171 0.14102 0.68045 0.0
C621 C 0.06663 0.1522 0.69628 0.0
C622 C 0.08127 0.16685 0.64089 0.0
C623 C 0.05899 0.17045 0.68332 0.0
C624 C 0.078 0.19122 0.5972 0.0
C625 C 0.11398 0.17525 0.57248 0.0
N626 N 0.06637 0.17717 0.65643 0.0
N627 N 0.10657 0.16799 0.59916 0.0
H628 H 0.63152 0.33986 0.43888 0.0
H629 H 0.54926 0.32753 0.3059 0.0
H630 H 0.57774 0.30042 0.4445 0.0
H631 H 0.59069 0.37976 0.312 0.0
H632 H 0.56163 0.31546 0.3547 0.0
H633 H 0.61935 0.35235 0.38982 0.0
C634 C 0.61729 0.33366 0.42966 0.0
C635 C 0.60562 0.31907 0.44579 0.0
C636 C 0.56794 0.32963 0.34548 0.0
C637 C 0.59161 0.33334 0.38991 0.0
C638 C 0.56087 0.33656 0.31763 0.0
C639 C 0.56892 0.35472 0.30489 0.0
C640 C 0.58343 0.34076 0.36063 0.0
C641 C 0.58397 0.36575 0.3211 0.0
C642 C 0.61028 0.34093 0.40182 0.0
C643 C 0.58721 0.3117 0.43289 0.0
N644 N 0.59087 0.35851 0.34806 0.0
N645 N 0.58081 0.31888 0.40574 0.0
H646 H 0.46441 0.82599 0.1959 0.0
H647 H 0.3801 0.83534 0.0649 0.0
H648 H 0.42165 0.87699 0.19023 0.0
H649 H 0.43287 0.79467 0.0611 0.0
H650 H 0.39295 0.84908 0.1129 0.0
H651 H 0.45134 0.81295 0.14807 0.0
C652 C 0.45235 0.83455 0.18447 0.0
C653 C 0.44414 0.85264 0.19707 0.0
C654 C 0.40166 0.83712 0.10154 0.0
C655 C 0.42884 0.83758 0.14235 0.0
C656 C 0.39426 0.82916 0.07428 0.0
C657 C 0.40542 0.81383 0.05897 0.0
C658 C 0.42024 0.82951 0.11365 0.0
C659 C 0.42376 0.8065 0.07206 0.0
C660 C 0.44487 0.82707 0.15714 0.0
C661 C 0.42851 0.86305 0.18123 0.0
N662 N 0.43055 0.81438 0.09859 0.0
N663 N 0.42124 0.85529 0.15476 0.0
H664 H 0.96247 0.32605 0.69275 0.0
H665 H 0.87795 0.33719 0.56238 0.0
H666 H 0.92041 0.37766 0.68778 0.0
H667 H 0.93064 0.29649 0.55699 0.0
H668 H 0.89102 0.35028 0.61062 0.0
H669 H 0.94918 0.31347 0.64475 0.0
C670 C 0.95053 0.33484 0.68143 0.0
C671 C 0.94257 0.35297 0.69428 0.0
C672 C 0.89966 0.33845 0.59886 0.0
C673 C 0.92702 0.33843 0.63939 0.0
C674 C 0.89213 0.33086 0.57147 0.0
C675 C 0.90322 0.31572 0.55564 0.0
C676 C 0.91828 0.33068 0.6106 0.0
C677 C 0.92159 0.30819 0.56837 0.0
C678 C 0.94292 0.32762 0.65402 0.0
C679 C 0.92708 0.36368 0.67859 0.0
N680 N 0.92851 0.31572 0.59506 0.0
N681 N 0.91968 0.35617 0.65205 0.0
H682 H 0.45438 0.17703 0.30673 0.0
H683 H 0.37317 0.16342 0.44045 0.0
H684 H 0.41437 0.12372 0.31283 0.0
H685 H 0.42806 0.20122 0.44709 0.0
H686 H 0.38503 0.15121 0.39099 0.0
H687 H 0.44219 0.18843 0.35592 0.0
C688 C 0.44309 0.16765 0.31852 0.0
C689 C 0.43542 0.14936 0.30571 0.0
C690 C 0.39441 0.16219 0.40334 0.0
C691 C 0.42113 0.16253 0.36194 0.0
C692 C 0.38759 0.16928 0.4314 0.0
C693 C 0.39965 0.18336 0.44788 0.0
C694 C 0.41323 0.16951 0.39158 0.0
C695 C 0.41829 0.19033 0.43522 0.0
C696 C 0.43614 0.17417 0.34662 0.0
C697 C 0.42079 0.13784 0.32202 0.0
N698 N 0.42445 0.1834 0.40784 0.0
N699 N 0.41396 0.14471 0.34924 0.0
H700 H 0.54348 0.68223 0.19314 0.0
H701 H 0.62536 0.6717 0.05902 0.0
H702 H 0.58435 0.6299 0.1844 0.0
H703 H 0.57623 0.71676 0.06075 0.0
H704 H 0.61212 0.65709 0.10619 0.0
H705 H 0.55639 0.69569 0.1455 0.0
C706 C 0.55508 0.67347 0.18107 0.0
C707 C 0.56284 0.6549 0.1928 0.0
C708 C 0.60427 0.67019 0.09622 0.0
C709 C 0.57796 0.67042 0.13821 0.0
C710 C 0.61189 0.67861 0.06941 0.0
C711 C 0.60191 0.6955 0.05592 0.0
C712 C 0.58663 0.67881 0.10973 0.0
C713 C 0.58444 0.70375 0.07029 0.0
C714 C 0.56248 0.6812 0.15384 0.0
C715 C 0.57787 0.64424 0.17612 0.0
N716 N 0.5774 0.69535 0.09637 0.0
N717 N 0.58506 0.65223 0.14974 0.0
H718 H 0.09061 0.87994 0.81155 0.0
H719 H 0.0794 0.79568 0.94203 0.0
H720 H 0.05166 0.8259 0.80451 0.0
H721 H 0.13117 0.83776 0.9371 0.0
H722 H 0.06718 0.80855 0.89359 0.0
H723 H 0.10343 0.86714 0.86009 0.0
C724 C 0.0846 0.86551 0.82034 0.0
C725 C 0.07003 0.85397 0.80397 0.0
C726 C 0.08129 0.8149 0.90298 0.0
C727 C 0.08467 0.83924 0.85927 0.0
C728 C 0.0883 0.80753 0.93063 0.0
C729 C 0.10637 0.81562 0.9436 0.0
C730 C 0.09223 0.83071 0.88827 0.0
C731 C 0.11723 0.831 0.9278 0.0
C732 C 0.09204 0.85814 0.84789 0.0
C733 C 0.06291 0.83529 0.81632 0.0
N734 N 0.1099 0.83818 0.90105 0.0
N735 N 0.07025 0.82855 0.8432 0.0
H736 H 0.08981 0.36319 0.39136 0.0
H737 H 0.15216 0.25657 0.38965 0.0
H738 H 0.10719 0.33044 0.31078 0.0
H739 H 0.11158 0.27376 0.46261 0.0
H740 H 0.14455 0.28937 0.365 0.0
H741 H 0.10633 0.33593 0.42159 0.0
C742 C 0.09754 0.35054 0.38006 0.0
C743 C 0.09706 0.34893 0.34859 0.0
C744 C 0.13755 0.28606 0.38661 0.0
C745 C 0.11596 0.318 0.38278 0.0
C746 C 0.14192 0.26736 0.4008 0.0
C747 C 0.13223 0.2622 0.42808 0.0
C748 C 0.12352 0.29985 0.39982 0.0
C749 C 0.11921 0.27696 0.44144 0.0
C750 C 0.1068 0.33497 0.39728 0.0
C751 C 0.10709 0.33215 0.33501 0.0
N752 N 0.11507 0.29507 0.42704 0.0
N753 N 0.11608 0.31732 0.35217 0.0
H754 H 0.8981 0.83376 0.63882 0.0
H755 H 1.00259 0.90018 0.63683 0.0
H756 H 0.92999 0.85251 0.55807 0.0
H757 H 0.98738 0.85856 0.70955 0.0
H758 H 0.97013 0.89102 0.6122 0.0
H759 H 0.92522 0.8508 0.66893 0.0
C760 C 0.91054 0.84186 0.62747 0.0
C761 C 0.91194 0.84166 0.59596 0.0
C762 C 0.97379 0.88411 0.63375 0.0
C763 C 0.94267 0.86117 0.63002 0.0
C764 C 0.9923 0.88937 0.64793 0.0
C765 C 0.99793 0.8799 0.67515 0.0
C766 C 0.96064 0.8694 0.64693 0.0
C767 C 0.98381 0.86607 0.68843 0.0
C768 C 0.92602 0.85142 0.64461 0.0
C769 C 0.92845 0.85218 0.58232 0.0
N770 N 0.96586 0.8611 0.67406 0.0
N771 N 0.94317 0.86148 0.59941 0.0
H772 H 0.39943 0.7292 0.96845 0.0
H773 H 0.38756 0.66347 0.82035 0.0
H774 H 0.35318 0.74145 0.90073 0.0
H775 H 0.42257 0.6418 0.89659 0.0
H776 H 0.37171 0.68976 0.85214 0.0
H777 H 0.40542 0.69525 0.94575 0.0
C778 C 0.39028 0.72465 0.94914 0.0
C779 C 0.37603 0.7384 0.93619 0.0
C780 C 0.38253 0.67902 0.86219 0.0
C781 C 0.38294 0.69962 0.90996 0.0
C782 C 0.39153 0.66396 0.84402 0.0
C783 C 0.40648 0.65056 0.85584 0.0
C784 C 0.3889 0.68107 0.89226 0.0
C785 C 0.41106 0.65183 0.88664 0.0
C786 C 0.3937 0.70523 0.9362 0.0
C787 C 0.36454 0.73154 0.91128 0.0
N788 N 0.40266 0.66716 0.90369 0.0
N789 N 0.36848 0.71282 0.89874 0.0
H790 H 0.57711 0.20081 0.10635 0.0
H791 H 0.51521 0.10291 0.15415 0.0
H792 H 0.60646 0.14125 0.09849 0.0
H793 H 0.51092 0.16008 0.20386 0.0
H794 H 0.54741 0.11544 0.13108 0.0
H795 H 0.55086 0.18554 0.13898 0.0
C796 C 0.57802 0.18448 0.11162 0.0
C797 C 0.59387 0.17222 0.09969 0.0
C798 C 0.53957 0.125 0.14749 0.0
C799 C 0.5637 0.15458 0.13666 0.0
C800 C 0.52119 0.11791 0.16061 0.0
C801 C 0.51021 0.13055 0.18075 0.0
C802 C 0.54667 0.145 0.15406 0.0
C803 C 0.51876 0.14982 0.18838 0.0
C804 C 0.56314 0.17581 0.13039 0.0
C805 C 0.59446 0.15118 0.10736 0.0
N806 N 0.53623 0.15662 0.17457 0.0
N807 N 0.5793 0.14287 0.12501 0.0
H808 H 0.10221 0.67897 0.19603 0.0
H809 H 0.11182 0.73367 0.03901 0.0
H810 H 0.08744 0.64621 0.11432 0.0
H811 H 0.14964 0.75093 0.11507 0.0
H812 H 0.10261 0.7015 0.06501 0.0
H813 H 0.11952 0.70563 0.16631 0.0
C814 C 0.10287 0.67728 0.1718 0.0
C815 C 0.09336 0.66042 0.15757 0.0
C816 C 0.1132 0.7122 0.07571 0.0
C817 C 0.11274 0.69111 0.12332 0.0
C818 C 0.11845 0.73058 0.06092 0.0
C819 C 0.13135 0.74518 0.07499 0.0
C820 C 0.12061 0.70859 0.10494 0.0
C821 C 0.13952 0.74026 0.10338 0.0
C822 C 0.11279 0.69247 0.15484 0.0
C823 C 0.09468 0.65895 0.12612 0.0
N824 N 0.13375 0.72258 0.11759 0.0
N825 N 0.10386 0.67433 0.10994 0.0
H826 H 0.51102 0.904 0.36173 0.0
H827 H 0.616 0.83879 0.36036 0.0
H828 H 0.52698 0.86165 0.29035 0.0
H829 H 0.58609 0.86144 0.44051 0.0
H830 H 0.58909 0.85558 0.32984 0.0
H831 H 0.54426 0.89701 0.38555 0.0
C832 C 0.52163 0.89348 0.35075 0.0
C833 C 0.51599 0.88311 0.32421 0.0
C834 C 0.58871 0.85719 0.35408 0.0
C835 C 0.55416 0.87509 0.35153 0.0
C836 C 0.60412 0.84779 0.37146 0.0
C837 C 0.60312 0.84865 0.40297 0.0
C838 C 0.57251 0.86777 0.3684 0.0
C839 C 0.5873 0.86029 0.41627 0.0
C840 C 0.5406 0.88948 0.36445 0.0
C841 C 0.53054 0.86979 0.31099 0.0
N842 N 0.57256 0.86929 0.39895 0.0
N843 N 0.54889 0.86598 0.32496 0.0
H844 H 0.41097 0.25974 0.54757 0.0
H845 H 0.39093 0.35669 0.65456 0.0
H846 H 0.35403 0.26505 0.59777 0.0
H847 H 0.44981 0.32608 0.64575 0.0
H848 H 0.37528 0.32989 0.62198 0.0
H849 H 0.42319 0.29173 0.57077 0.0
C850 C 0.40082 0.26783 0.56296 0.0
C851 C 0.38154 0.25951 0.57105 0.0
C852 C 0.39165 0.32928 0.62706 0.0
C853 C 0.39549 0.29619 0.59751 0.0
C854 C 0.40055 0.3445 0.64548 0.0
C855 C 0.4216 0.34338 0.65298 0.0
C856 C 0.40413 0.31339 0.61548 0.0
C857 C 0.43346 0.32732 0.64076 0.0
C858 C 0.40788 0.28603 0.57628 0.0
C859 C 0.36911 0.27078 0.59116 0.0
N860 N 0.4246 0.31303 0.62253 0.0
N861 N 0.37636 0.28852 0.60392 0.0
H862 H 0.99969 0.10324 0.86234 0.0
H863 H 0.89394 0.16723 0.85935 0.0
H864 H 0.98378 0.14527 0.79051 0.0
H865 H 0.92353 0.14494 0.93998 0.0
H866 H 0.92143 0.15098 0.82927 0.0
H867 H 0.96633 0.11013 0.88584 0.0
C868 C 0.98908 0.11368 0.85121 0.0
C869 C 0.99475 0.12396 0.8246 0.0
C870 C 0.92162 0.14934 0.85352 0.0
C871 C 0.95644 0.13187 0.85155 0.0
C872 C 0.90589 0.15843 0.87063 0.0
C873 C 0.9066 0.1575 0.90215 0.0
C874 C 0.93787 0.139 0.86811 0.0
C875 C 0.92253 0.14614 0.91572 0.0
C876 C 0.97004 0.11763 0.86473 0.0
C877 C 0.9802 0.13719 0.81119 0.0
N878 N 0.93757 0.13743 0.89865 0.0
N879 N 0.96177 0.14094 0.82497 0.0
H880 H 0.88904 0.66577 0.68393 0.0
H881 H 0.90074 0.73166 0.53573 0.0
H882 H 0.92281 0.6434 0.60697 0.0
H883 H 0.85464 0.74403 0.60362 0.0
H884 H 0.90686 0.69779 0.55868 0.0
H885 H 0.87369 0.69262 0.6526 0.0
C886 C 0.89284 0.66625 0.6602 0.0
C887 C 0.90726 0.65243 0.64803 0.0
C888 C 0.89516 0.70779 0.56822 0.0
C889 C 0.89027 0.68358 0.61212 0.0
C890 C 0.89167 0.72716 0.55515 0.0
C891 C 0.87738 0.74091 0.56802 0.0
C892 C 0.88444 0.70222 0.59451 0.0
C893 C 0.86601 0.73413 0.59309 0.0
C894 C 0.88412 0.68162 0.6423 0.0
C895 C 0.91168 0.65373 0.61717 0.0
N896 N 0.87 0.71544 0.60573 0.0
N897 N 0.90356 0.66935 0.60037 0.0
H898 H 0.00416 0.10668 0.36365 0.0
H899 H 0.11011 0.17048 0.36247 0.0
H900 H 0.01926 0.14971 0.29263 0.0
H901 H 0.07773 0.15255 0.44319 0.0
H902 H 0.0823 0.15465 0.33232 0.0
H903 H 0.03685 0.11501 0.38821 0.0
C904 C 0.01446 0.11765 0.35291 0.0
C905 C 0.00876 0.12773 0.32618 0.0
C906 C 0.08154 0.15393 0.35663 0.0
C907 C 0.04633 0.13721 0.3543 0.0
C908 C 0.09741 0.16278 0.3738 0.0
C909 C 0.09609 0.16284 0.40531 0.0
C910 C 0.06458 0.14473 0.37121 0.0
C911 C 0.07924 0.15291 0.41894 0.0
C912 C 0.0331 0.12242 0.36706 0.0
C913 C 0.0229 0.14174 0.31337 0.0
N914 N 0.06414 0.14427 0.40182 0.0
N915 N 0.04101 0.14618 0.32766 0.0
H916 H 0.62146 0.27858 0.03543 0.0
H917 H 0.6097 0.32998 0.1943 0.0
H918 H 0.65331 0.25609 0.11425 0.0
H919 H 0.59709 0.36395 0.11289 0.0
H920 H 0.62765 0.30379 0.16476 0.0
H921 H 0.61445 0.31101 0.06187 0.0
C922 C 0.62734 0.28058 0.05806 0.0
C923 C 0.6377 0.2644 0.07279 0.0
C924 C 0.6213 0.31713 0.15332 0.0
C925 C 0.62946 0.30136 0.10327 0.0
C926 C 0.61101 0.33206 0.17019 0.0
C927 C 0.6018 0.34906 0.15596 0.0
C928 C 0.62195 0.31888 0.12184 0.0
C929 C 0.60402 0.35107 0.12469 0.0
C930 C 0.62333 0.29912 0.07313 0.0
C931 C 0.64506 0.26798 0.10206 0.0
N932 N 0.61353 0.33591 0.10855 0.0
N933 N 0.64046 0.2859 0.1165 0.0
H934 H 0.39974 0.82912 0.86325 0.0
H935 H 0.50329 0.89685 0.86441 0.0
H936 H 0.43088 0.84897 0.94405 0.0
H937 H 0.49025 0.85288 0.79379 0.0
H938 H 0.47101 0.88708 0.88905 0.0
H939 H 0.42742 0.8453 0.83318 0.0
C940 C 0.41215 0.83726 0.8746 0.0
C941 C 0.41314 0.83768 0.90613 0.0
C942 C 0.47511 0.87975 0.86798 0.0
C943 C 0.44449 0.85622 0.87211 0.0
C944 C 0.49352 0.88535 0.85379 0.0
C945 C 0.49967 0.87549 0.82711 0.0
C946 C 0.46256 0.86434 0.85532 0.0
C947 C 0.48624 0.86074 0.81447 0.0
C948 C 0.42795 0.84632 0.85749 0.0
C949 C 0.42963 0.84821 0.91978 0.0
N950 N 0.46833 0.85551 0.82878 0.0
N951 N 0.44464 0.85706 0.90271 0.0
H952 H 0.90133 0.26928 0.96047 0.0
H953 H 0.9034 0.3285 0.80672 0.0
H954 H 0.8584 0.25551 0.88876 0.0
H955 H 0.92242 0.35904 0.88838 0.0
H956 H 0.88715 0.30131 0.83671 0.0
H957 H 0.90976 0.30208 0.9355 0.0
C958 C 0.89346 0.27325 0.93975 0.0
C959 C 0.8793 0.25946 0.92654 0.0
C960 C 0.89456 0.31412 0.84815 0.0
C961 C 0.88908 0.29676 0.89779 0.0
C962 C 0.90385 0.32961 0.83103 0.0
C963 C 0.91422 0.34599 0.84515 0.0
C964 C 0.89618 0.31465 0.87963 0.0
C965 C 0.91442 0.3467 0.87671 0.0
C966 C 0.89824 0.29199 0.92558 0.0
C967 C 0.86952 0.26551 0.89973 0.0
N968 N 0.90587 0.331 0.89297 0.0
N969 N 0.87484 0.28351 0.88602 0.0
H970 H 0.49722 0.104 0.64359 0.0
H971 H 0.39253 0.16971 0.64563 0.0
H972 H 0.4819 0.14702 0.71441 0.0
H973 H 0.42004 0.14354 0.56592 0.0
H974 H 0.41999 0.15375 0.676 0.0
H975 H 0.46372 0.11066 0.62037 0.0
C976 C 0.48672 0.11463 0.65455 0.0
C977 C 0.49259 0.12524 0.68077 0.0
C978 C 0.41974 0.15122 0.65193 0.0
C979 C 0.45412 0.13292 0.65413 0.0
C980 C 0.40401 0.16016 0.63464 0.0
C981 C 0.40416 0.15806 0.60322 0.0
C982 C 0.43545 0.13989 0.63764 0.0
C983 C 0.41949 0.1457 0.59006 0.0
C984 C 0.46759 0.11844 0.64119 0.0
C985 C 0.47815 0.13868 0.69401 0.0
N986 N 0.43457 0.1372 0.60729 0.0
N987 N 0.45966 0.14231 0.68037 0.0
H988 H 0.60536 0.73646 0.46038 0.0
H989 H 0.60194 0.6781 0.30591 0.0
H990 H 0.64847 0.74979 0.38873 0.0
H991 H 0.58287 0.64728 0.38735 0.0
H992 H 0.61843 0.70503 0.33611 0.0
H993 H 0.59615 0.70404 0.43495 0.0
C994 C 0.6131 0.73247 0.43958 0.0
C995 C 0.62757 0.74602 0.42654 0.0
C996 C 0.61094 0.69222 0.34744 0.0
C997 C 0.61688 0.70918 0.39725 0.0
C998 C 0.6015 0.67688 0.33021 0.0
C999 C 0.59107 0.66049 0.3442 0.0
C1000 C 0.60943 0.69152 0.37893 0.0
C1001 C 0.59091 0.65963 0.37576 0.0
C1002 C 0.60787 0.71395 0.42514 0.0
C1003 C 0.63715 0.73996 0.39958 0.0
N1004 N 0.59962 0.67518 0.39214 0.0
N1005 N 0.63139 0.72219 0.38562 0.0
H1006 H 0.08204 0.85611 0.05495 0.0
H1007 H 0.02537 0.86224 0.21067 0.0
H1008 H 0.11345 0.83943 0.13697 0.0
H1009 H 0.00835 0.90067 0.13522 0.0
H1010 H 0.05812 0.85426 0.18545 0.0
H1011 H 0.05523 0.87315 0.08454 0.0
C1012 C 0.08344 0.85635 0.07923 0.0
C1013 C 0.09992 0.84633 0.09358 0.0
C1014 C 0.04734 0.86473 0.17472 0.0
C1015 C 0.06901 0.86534 0.12768 0.0
C1016 C 0.02863 0.86927 0.18907 0.0
C1017 C 0.01392 0.88193 0.17489 0.0
C1018 C 0.0512 0.87264 0.14583 0.0
C1019 C 0.01908 0.89068 0.14694 0.0
C1020 C 0.06815 0.86609 0.09613 0.0
C1021 C 0.10101 0.84709 0.12509 0.0
N1022 N 0.0371 0.88559 0.13314 0.0
N1023 N 0.08551 0.85607 0.14118 0.0
H1024 H 0.65711 0.76194 0.89395 0.0
H1025 H 0.59539 0.86887 0.89168 0.0
H1026 H 0.61972 0.78346 0.96804 0.0
H1027 H 0.61514 0.83554 0.81277 0.0
H1028 H 0.61328 0.84331 0.92323 0.0
H1029 H 0.65109 0.79465 0.8681 0.0
C1030 C 0.64797 0.77367 0.90511 0.0
C1031 C 0.63855 0.76972 0.933 0.0
C1032 C 0.61402 0.84189 0.89898 0.0
C1033 C 0.63154 0.80723 0.90331 0.0
C1034 C 0.60396 0.85651 0.88099 0.0
C1035 C 0.60362 0.85414 0.84962 0.0
C1036 C 0.62401 0.82502 0.88538 0.0
C1037 C 0.61483 0.83778 0.8369 0.0
C1038 C 0.64449 0.79234 0.89024 0.0
C1039 C 0.62705 0.78568 0.94639 0.0
N1040 N 0.62443 0.82377 0.85482 0.0
N1041 N 0.62361 0.80363 0.93123 0.0
H1042 H 0.5053 0.39842 0.1329 0.0
H1043 H 0.39821 0.33634 0.13817 0.0
H1044 H 0.48775 0.36033 0.20853 0.0
H1045 H 0.43089 0.35151 0.0565 0.0
H1046 H 0.42595 0.3531 0.16734 0.0
H1047 H 0.47278 0.38951 0.10823 0.0
C1048 C 0.4945 0.38844 0.14459 0.0
C1049 C 0.49945 0.37989 0.17272 0.0
C1050 C 0.42681 0.35299 0.14301 0.0
C1051 C 0.46209 0.36968 0.14445 0.0
C1052 C 0.41097 0.34359 0.12639 0.0
C1053 C 0.41238 0.34246 0.09492 0.0
C1054 C 0.44386 0.36164 0.12793 0.0
C1055 C 0.42931 0.35191 0.08074 0.0
C1056 C 0.47595 0.38331 0.13038 0.0
C1057 C 0.48469 0.3671 0.18672 0.0
N1058 N 0.44439 0.36106 0.09733 0.0
N1059 N 0.46672 0.36226 0.17234 0.0
H1060 H 0.85273 0.24848 0.39082 0.0
H1061 H 0.91648 0.14262 0.39222 0.0
H1062 H 0.89533 0.23238 0.46186 0.0
H1063 H 0.89444 0.17289 0.312 0.0
H1064 H 0.90036 0.16998 0.42267 0.0
H1065 H 0.85946 0.21521 0.367 0.0
C1066 C 0.86326 0.23785 0.40172 0.0
C1067 C 0.87375 0.24344 0.42818 0.0
C1068 C 0.89874 0.17034 0.39843 0.0
C1069 C 0.88146 0.20522 0.40087 0.0
C1070 C 0.90775 0.15468 0.3811 0.0
C1071 C 0.90685 0.15562 0.34959 0.0
C1072 C 0.88849 0.18674 0.38406 0.0
C1073 C 0.89559 0.1717 0.33624 0.0
C1074 C 0.86712 0.21886 0.38802 0.0
C1075 C 0.88709 0.22885 0.44129 0.0
N1076 N 0.88694 0.18667 0.35351 0.0
N1077 N 0.89073 0.21047 0.42734 0.0
H1078 H 0.07457 0.70401 0.60295 0.0
H1079 H 0.01648 0.60631 0.66203 0.0
H1080 H 0.10581 0.64516 0.60247 0.0
H1081 H 0.00743 0.6666 0.7015 0.0
H1082 H 0.04847 0.61893 0.63859 0.0
H1083 H 0.04852 0.68976 0.63677 0.0
C1084 C 0.07593 0.68804 0.61005 0.0
C1085 C 0.09224 0.67567 0.59978 0.0
C1086 C 0.03965 0.62921 0.65288 0.0
C1087 C 0.06231 0.65918 0.63828 0.0
C1088 C 0.02138 0.62207 0.6662 0.0
C1089 C 0.0091 0.63549 0.68349 0.0
C1090 C 0.04538 0.65 0.65636 0.0
C1091 C 0.01628 0.65572 0.68825 0.0
C1092 C 0.06115 0.67997 0.62954 0.0
C1093 C 0.09342 0.65515 0.60993 0.0
N1094 N 0.03372 0.66246 0.67428 0.0
N1095 N 0.07838 0.64738 0.62829 0.0
H1096 H 0.6099 0.2372 0.54137 0.0
H1097 H 0.60197 0.18054 0.69734 0.0
H1098 H 0.64779 0.25414 0.6175 0.0
H1099 H 0.58659 0.14881 0.61501 0.0
H1100 H 0.61874 0.20775 0.66806 0.0
H1101 H 0.60105 0.20472 0.56683 0.0
C1102 C 0.6166 0.23399 0.56321 0.0
C1103 C 0.62944 0.24857 0.57743 0.0
C1104 C 0.612 0.1947 0.65634 0.0
C1105 C 0.61915 0.2116 0.60676 0.0
C1106 C 0.60239 0.17919 0.67306 0.0
C1107 C 0.59286 0.16245 0.65854 0.0
C1108 C 0.61162 0.1938 0.62479 0.0
C1109 C 0.59386 0.16143 0.62703 0.0
C1110 C 0.61157 0.21543 0.57767 0.0
C1111 C 0.63773 0.24349 0.60569 0.0
N1112 N 0.60274 0.17712 0.61111 0.0
N1113 N 0.63218 0.22562 0.61959 0.0
H1114 H 0.02553 0.36073 0.78847 0.0
H1115 H 0.08198 0.35745 0.94449 0.0
H1116 H 0.00865 0.40079 0.86214 0.0
H1117 H 0.11356 0.33927 0.8633 0.0
H1118 H 0.05527 0.374 0.9141 0.0
H1119 H 0.05825 0.35317 0.81407 0.0
C1120 C 0.02881 0.3682 0.80975 0.0
C1121 C 0.01415 0.3812 0.82334 0.0
C1122 C 0.06821 0.36672 0.90285 0.0
C1123 C 0.05139 0.3724 0.85284 0.0
C1124 C 0.08343 0.35726 0.9202 0.0
C1125 C 0.09993 0.34697 0.90634 0.0
C1126 C 0.06914 0.36541 0.87135 0.0
C1127 C 0.10111 0.34715 0.87481 0.0
C1128 C 0.04751 0.3639 0.82431 0.0
C1129 C 0.01934 0.39052 0.85088 0.0
N1130 N 0.08566 0.35587 0.8583 0.0
N1131 N 0.03734 0.38566 0.86492 0.0
H1132 H 0.89928 0.76855 0.04134 0.0
H1133 H 0.90335 0.82939 0.19379 0.0
H1134 H 0.85753 0.75537 0.11473 0.0
H1135 H 0.92153 0.8589 0.11091 0.0
H1136 H 0.8868 0.80184 0.1649 0.0
H1137 H 0.90811 0.80155 0.06541 0.0
C1138 C 0.89176 0.77268 0.06225 0.0
C1139 C 0.87781 0.75902 0.07617 0.0
C1140 C 0.8941 0.8145 0.15296 0.0
C1141 C 0.88804 0.79655 0.1039 0.0
C1142 C 0.90356 0.8302 0.16945 0.0
C1143 C 0.91379 0.84639 0.15467 0.0
C1144 C 0.89537 0.81464 0.12143 0.0
C1145 C 0.91366 0.84671 0.1231 0.0
C1146 C 0.89676 0.79154 0.07591 0.0
C1147 C 0.86847 0.76528 0.10321 0.0
N1148 N 0.90493 0.83082 0.10745 0.0
N1149 N 0.87401 0.7834 0.1164 0.0
H1150 H 0.42115 0.64363 0.43959 0.0
H1151 H 0.48047 0.64548 0.28568 0.0
H1152 H 0.3924 0.66701 0.35899 0.0
H1153 H 0.49608 0.60339 0.35755 0.0
H1154 H 0.44727 0.65222 0.31033 0.0
H1155 H 0.44774 0.6272 0.4089 0.0
C1156 C 0.42024 0.64494 0.41532 0.0
C1157 C 0.40463 0.65672 0.40177 0.0
C1158 C 0.45782 0.64123 0.32037 0.0
C1159 C 0.43536 0.63847 0.36647 0.0
C1160 C 0.47681 0.6374 0.30634 0.0
C1161 C 0.49127 0.62408 0.31977 0.0
C1162 C 0.45342 0.63192 0.3482 0.0
C1163 C 0.48558 0.61396 0.34649 0.0
C1164 C 0.43542 0.63557 0.39779 0.0
C1165 C 0.40415 0.65796 0.37026 0.0
N1166 N 0.46728 0.61835 0.36005 0.0
N1167 N 0.41958 0.64931 0.35365 0.0
H1168 H 0.39397 0.16952 0.1893 0.0
H1169 H 0.39737 0.23166 0.03706 0.0
H1170 H 0.42005 0.1434 0.10858 0.0
H1171 H 0.35568 0.24661 0.10972 0.0
H1172 H 0.40417 0.19822 0.06088 0.0
H1173 H 0.37787 0.19661 0.15919 0.0
C1174 C 0.39597 0.16929 0.1651 0.0
C1175 C 0.40842 0.15429 0.1514 0.0
C1176 C 0.39327 0.20869 0.07131 0.0
C1177 C 0.3905 0.1856 0.11678 0.0
C1178 C 0.3894 0.22782 0.05775 0.0
C1179 C 0.37616 0.24215 0.07161 0.0
C1180 C 0.38405 0.20398 0.0991 0.0
C1181 C 0.36618 0.23621 0.09833 0.0
C1182 C 0.38678 0.18477 0.14789 0.0
C1183 C 0.41049 0.15467 0.11997 0.0
N1184 N 0.37057 0.21775 0.1114 0.0
N1185 N 0.40197 0.17036 0.10374 0.0
H1186 H 0.51761 0.60817 0.83971 0.0
H1187 H 0.5728 0.70677 0.9025 0.0
H1188 H 0.50535 0.6691 0.80433 0.0
H1189 H 0.6063 0.64923 0.8984 0.0
H1190 H 0.54648 0.69226 0.86935 0.0
H1191 H 0.54926 0.62156 0.86327 0.0
C1192 C 0.52173 0.62426 0.83648 0.0
C1193 C 0.50868 0.63758 0.82024 0.0
C1194 C 0.55966 0.68283 0.87545 0.0
C1195 C 0.54455 0.65296 0.84756 0.0
C1196 C 0.5746 0.69103 0.89456 0.0
C1197 C 0.59166 0.67911 0.90332 0.0
C1198 C 0.56143 0.66234 0.86554 0.0
C1199 C 0.59335 0.6589 0.89212 0.0
C1200 C 0.5398 0.63185 0.84988 0.0
C1201 C 0.51485 0.65826 0.8167 0.0
N1202 N 0.57819 0.65097 0.87412 0.0
N1203 N 0.53212 0.66539 0.83072 0.0
H1204 H 0.09408 0.86643 0.6108 0.0
H1205 H 0.15442 0.75863 0.60984 0.0
H1206 H 0.10928 0.83113 0.69008 0.0
H1207 H 0.11836 0.78032 0.53444 0.0
H1208 H 0.14732 0.79097 0.63605 0.0
H1209 H 0.11189 0.84043 0.57987 0.0
C1210 C 0.10159 0.85348 0.62172 0.0
C1211 C 0.10007 0.85077 0.65297 0.0
C1212 C 0.14125 0.78877 0.61356 0.0
C1213 C 0.12046 0.82125 0.61795 0.0
C1214 C 0.14536 0.77033 0.59848 0.0
C1215 C 0.13665 0.76654 0.57007 0.0
C1216 C 0.12842 0.80362 0.60014 0.0
C1217 C 0.12518 0.78244 0.55647 0.0
C1218 C 0.11161 0.83864 0.60409 0.0
C1219 C 0.10991 0.83367 0.66602 0.0
N1220 N 0.12116 0.80021 0.57179 0.0
N1221 N 0.1196 0.81952 0.64845 0.0
H1222 H 0.89563 0.33701 0.36165 0.0
H1223 H 1.00159 0.40093 0.36506 0.0
H1224 H 0.9284 0.35337 0.44275 0.0
H1225 H 0.98533 0.36071 0.29119 0.0
H1226 H 0.96898 0.39213 0.38956 0.0
H1227 H 0.923 0.35395 0.33192 0.0
C1228 C 0.90832 0.34457 0.37317 0.0
C1229 C 0.90989 0.34372 0.40464 0.0
C1230 C 0.97245 0.38546 0.36779 0.0
C1231 C 0.94089 0.36313 0.37102 0.0
C1232 C 0.99104 0.39052 0.35369 0.0
C1233 C 0.9964 0.3813 0.32617 0.0
C1234 C 0.95896 0.37124 0.35424 0.0
C1235 C 0.98195 0.368 0.31254 0.0
C1236 C 0.92394 0.35407 0.35624 0.0
C1237 C 0.92672 0.35355 0.41851 0.0
N1238 N 0.96393 0.36322 0.32684 0.0
N1239 N 0.94157 0.36282 0.40163 0.0
H1240 H 0.42391 0.8596 0.39136 0.0
H1241 H 0.35776 0.75514 0.38788 0.0
H1242 H 0.40598 0.82804 0.30998 0.0
H1243 H 0.40057 0.76874 0.45982 0.0
H1244 H 0.36717 0.78771 0.36382 0.0
H1245 H 0.40741 0.83187 0.42094 0.0
C1246 C 0.4161 0.8471 0.37977 0.0
C1247 C 0.41634 0.84599 0.34824 0.0
C1248 C 0.3743 0.78366 0.38507 0.0
C1249 C 0.39744 0.81459 0.38168 0.0
C1250 C 0.36891 0.76509 0.39893 0.0
C1251 C 0.3786 0.759 0.42578 0.0
C1252 C 0.38933 0.79643 0.39823 0.0
C1253 C 0.39287 0.77269 0.43899 0.0
C1254 C 0.40686 0.83127 0.3966 0.0
C1255 C 0.40623 0.82938 0.33426 0.0
N1256 N 0.39792 0.79074 0.42497 0.0
N1257 N 0.39719 0.81434 0.35106 0.0
H1258 H 0.99801 0.60323 0.14134 0.0
H1259 H 0.89188 0.66661 0.14429 0.0
H1260 H 0.9816 0.64486 0.21339 0.0
H1261 H 0.92156 0.64449 0.06365 0.0
H1262 H 0.91941 0.65044 0.17435 0.0
H1263 H 0.96465 0.60998 0.11769 0.0
C1264 C 0.98729 0.61355 0.15248 0.0
C1265 C 0.99282 0.62376 0.1792 0.0
C1266 C 0.91962 0.64882 0.15011 0.0
C1267 C 0.95451 0.63151 0.15209 0.0
C1268 C 0.90385 0.65787 0.133 0.0
C1269 C 0.90458 0.65697 0.10147 0.0
C1270 C 0.93592 0.63856 0.13552 0.0
C1271 C 0.92054 0.64567 0.0879 0.0
C1272 C 0.96826 0.61742 0.13888 0.0
C1273 C 0.97813 0.63684 0.19262 0.0
N1274 N 0.93562 0.637 0.10498 0.0
N1275 N 0.95971 0.64051 0.17877 0.0
H1276 H 0.11169 0.23514 0.96382 0.0
H1277 H 0.10479 0.17831 0.80828 0.0
H1278 H 0.15083 0.25133 0.88869 0.0
H1279 H 0.08851 0.14669 0.89035 0.0
H1280 H 0.12177 0.20526 0.83783 0.0
H1281 H 0.10302 0.20255 0.93856 0.0
C1282 C 0.11872 0.23173 0.94228 0.0
C1283 C 0.13182 0.24616 0.92822 0.0
C1284 C 0.11479 0.19228 0.84943 0.0
C1285 C 0.12174 0.20908 0.89911 0.0
C1286 C 0.10507 0.17693 0.83257 0.0
C1287 C 0.09523 0.16031 0.84694 0.0
C1288 C 0.11419 0.19135 0.88098 0.0
C1289 C 0.09603 0.15923 0.87846 0.0
C1290 C 0.11379 0.21311 0.92792 0.0
C1291 C 0.14054 0.24082 0.90034 0.0
N1292 N 0.10501 0.17478 0.89452 0.0
N1293 N 0.13507 0.22291 0.88651 0.0
H1294 H 0.58028 0.3591 0.55709 0.0
H1295 H 0.52891 0.36984 0.71621 0.0
H1296 H 0.61418 0.34579 0.63835 0.0
H1297 H 0.50633 0.40207 0.63779 0.0
H1298 H 0.56133 0.36298 0.68962 0.0
H1299 H 0.55411 0.37689 0.58689 0.0
C1300 C 0.58235 0.36022 0.58123 0.0
C1301 C 0.59931 0.35084 0.59533 0.0
C1302 C 0.54942 0.37191 0.67848 0.0
C1303 C 0.56917 0.37081 0.62973 0.0
C1304 C 0.53089 0.37583 0.69364 0.0
C1305 C 0.51469 0.38626 0.67906 0.0
C1306 C 0.55164 0.3782 0.64841 0.0
C1307 C 0.51824 0.39376 0.64985 0.0
C1308 C 0.56743 0.37042 0.59825 0.0
C1309 C 0.60131 0.35284 0.62663 0.0
N1310 N 0.53615 0.38925 0.63533 0.0
N1311 N 0.58617 0.36226 0.64291 0.0
H1312 H 0.07361 0.4433 0.23616 0.0
H1313 H 0.0719 0.56516 0.26848 0.0
H1314 H 0.07329 0.46978 0.32526 0.0
H1315 H 0.07271 0.53871 0.17937 0.0
H1316 H 0.07531 0.53044 0.2897 0.0
H1317 H 0.07618 0.47812 0.21495 0.0
C1318 C 0.07427 0.45641 0.25129 0.0
C1319 C 0.07311 0.45359 0.28255 0.0
C1320 C 0.07491 0.53224 0.26549 0.0
C1321 C 0.07591 0.49356 0.2584 0.0
C1322 C 0.07299 0.55209 0.25335 0.0
C1323 C 0.0719 0.55488 0.22208 0.0
C1324 C 0.07566 0.51501 0.24625 0.0
C1325 C 0.07341 0.53732 0.20361 0.0
C1326 C 0.07571 0.47631 0.23916 0.0
C1327 C 0.07406 0.47119 0.30103 0.0
N1328 N 0.07507 0.51816 0.21596 0.0
N1329 N 0.07526 0.49039 0.28868 0.0
H1330 H 0.81699 0.81983 0.48306 0.0
H1331 H 0.69509 0.82082 0.51644 0.0
H1332 H 0.79086 0.81946 0.57239 0.0
H1333 H 0.72128 0.81885 0.42719 0.0
H1334 H 0.73002 0.82344 0.53731 0.0
H1335 H 0.7821 0.82268 0.46217 0.0
C1336 C 0.80395 0.82055 0.49831 0.0
C1337 C 0.80688 0.81929 0.52954 0.0
C1338 C 0.72812 0.82256 0.51314 0.0
C1339 C 0.76682 0.82241 0.50574 0.0
C1340 C 0.70816 0.8211 0.50121 0.0
C1341 C 0.70522 0.8195 0.47001 0.0
C1342 C 0.74532 0.82241 0.49377 0.0
C1343 C 0.72277 0.81996 0.45139 0.0
C1344 C 0.784 0.82213 0.48635 0.0
C1345 C 0.78936 0.8203 0.54817 0.0
N1346 N 0.74204 0.82126 0.46355 0.0
N1347 N 0.77011 0.82168 0.536 0.0
H1348 H 0.43111 0.46615 0.68245 0.0
H1349 H 0.44303 0.53618 0.8299 0.0
H1350 H 0.43969 0.44133 0.7717 0.0
H1351 H 0.43339 0.56118 0.74098 0.0
H1352 H 0.43946 0.50134 0.80942 0.0
H1353 H 0.42931 0.50089 0.70386 0.0
C1354 C 0.4324 0.46797 0.7066 0.0
C1355 C 0.43566 0.45077 0.72528 0.0
C1356 C 0.438 0.51442 0.79438 0.0
C1357 C 0.4338 0.49062 0.74995 0.0
C1358 C 0.44004 0.53436 0.80607 0.0
C1359 C 0.43862 0.55167 0.78711 0.0
C1360 C 0.43458 0.51168 0.76344 0.0
C1361 C 0.43466 0.54831 0.75644 0.0
C1362 C 0.43142 0.48785 0.71881 0.0
C1363 C 0.43721 0.45412 0.75641 0.0
N1364 N 0.43291 0.52872 0.74554 0.0
N1365 N 0.43642 0.47364 0.76772 0.0
H1366 H 0.78753 0.18533 0.92356 0.0
H1367 H 0.71712 0.18089 0.07163 0.0
H1368 H 0.81231 0.18259 0.01361 0.0
H1369 H 0.69256 0.1864 0.98172 0.0
H1370 H 0.75191 0.17807 0.05058 0.0
H1371 H 0.75265 0.18241 0.94421 0.0
C1372 C 0.78567 0.18395 0.94769 0.0
C1373 C 0.80292 0.18432 0.96688 0.0
C1374 C 0.73891 0.17973 0.03543 0.0
C1375 C 0.76288 0.18106 0.99075 0.0
C1376 C 0.719 0.18129 0.04743 0.0
C1377 C 0.70185 0.184 0.02843 0.0
C1378 C 0.74178 0.18092 0.00415 0.0
C1379 C 0.70529 0.18439 0.99725 0.0
C1380 C 0.76571 0.18231 0.95947 0.0
C1381 C 0.79949 0.18244 0.99796 0.0
N1382 N 0.72485 0.18301 0.98611 0.0
N1383 N 0.77988 0.18101 0.00892 0.0
H1384 H 0.93815 0.44091 0.73255 0.0
H1385 H 0.93296 0.56289 0.76394 0.0
H1386 H 0.93441 0.46756 0.82137 0.0
H1387 H 0.94092 0.53625 0.6757 0.0
H1388 H 0.92999 0.52804 0.78497 0.0
H1389 H 0.9356 0.47559 0.71095 0.0
C1390 C 0.93658 0.45402 0.74752 0.0
C1391 C 0.93661 0.4513 0.77885 0.0
C1392 C 0.93226 0.52982 0.76097 0.0
C1393 C 0.93382 0.49113 0.75424 0.0
C1394 C 0.93392 0.54974 0.74894 0.0
C1395 C 0.93731 0.55253 0.71801 0.0
C1396 C 0.93399 0.51254 0.74197 0.0
C1397 C 0.93841 0.53487 0.69969 0.0
C1398 C 0.93519 0.47385 0.73516 0.0
C1399 C 0.93454 0.4689 0.79711 0.0
N1400 N 0.93685 0.51567 0.71195 0.0
N1401 N 0.93335 0.48804 0.78455 0.0
H1402 H 0.28552 0.1874 0.58 0.0
H1403 H 0.21768 0.18171 0.42961 0.0
H1404 H 0.31176 0.18285 0.49099 0.0
H1405 H 0.19143 0.18591 0.51865 0.0
H1406 H 0.25212 0.17923 0.45191 0.0
H1407 H 0.25098 0.18409 0.55825 0.0
C1408 C 0.28405 0.18554 0.55588 0.0
C1409 C 0.30161 0.18552 0.53728 0.0
C1410 C 0.23883 0.18052 0.46661 0.0
C1411 C 0.26198 0.18182 0.51216 0.0
C1412 C 0.21912 0.18191 0.45388 0.0
C1413 C 0.20161 0.18414 0.47227 0.0
C1414 C 0.24112 0.18146 0.498 0.0
C1415 C 0.20448 0.18426 0.50358 0.0
C1416 C 0.26428 0.18367 0.54347 0.0
C1417 C 0.29869 0.18302 0.5062 0.0
N1418 N 0.22385 0.1831 0.51543 0.0
N1419 N 0.27927 0.1814 0.49461 0.0
H1420 H 0.5716 0.5651 0.23229 0.0
H1421 H 0.57359 0.44331 0.2654 0.0
H1422 H 0.57114 0.53885 0.32155 0.0
H1423 H 0.57483 0.46954 0.17614 0.0
H1424 H 0.57537 0.47821 0.28646 0.0
H1425 H 0.5755 0.53034 0.21138 0.0
C1426 C 0.57251 0.55206 0.24752 0.0
C1427 C 0.57093 0.55492 0.27873 0.0
C1428 C 0.57541 0.47633 0.26226 0.0
C1429 C 0.57524 0.51501 0.25492 0.0
C1430 C 0.57442 0.45639 0.25021 0.0
C1431 C 0.57395 0.45347 0.21893 0.0
C1432 C 0.57586 0.49353 0.24292 0.0
C1433 C 0.57508 0.47102 0.20039 0.0
C1434 C 0.5747 0.53219 0.23556 0.0
C1435 C 0.57222 0.53741 0.29735 0.0
N1436 N 0.57585 0.49027 0.21265 0.0
N1437 N 0.57416 0.51823 0.28516 0.0
H1438 H 0.19514 0.82008 0.98375 0.0
H1439 H 0.31686 0.8201 0.01824 0.0
H1440 H 0.22092 0.82156 0.07328 0.0
H1441 H 0.2911 0.81809 0.92873 0.0
H1442 H 0.28191 0.8237 0.03866 0.0
H1443 H 0.23014 0.82234 0.96305 0.0
C1444 C 0.20813 0.82106 0.99908 0.0
C1445 C 0.20506 0.82051 0.03033 0.0
C1446 C 0.28391 0.82264 0.01453 0.0
C1447 C 0.24525 0.82298 0.00675 0.0
C1448 C 0.30389 0.82063 0.00284 0.0
C1449 C 0.30695 0.81868 0.97171 0.0
C1450 C 0.26681 0.82264 0.99498 0.0
C1451 C 0.28951 0.81947 0.95288 0.0
C1452 C 0.22814 0.82232 0.98723 0.0
C1453 C 0.22252 0.82185 0.04905 0.0
N1454 N 0.27022 0.82125 0.96481 0.0
N1455 N 0.24183 0.8229 0.03699 0.0
H1456 H 0.57313 0.94446 0.73528 0.0
H1457 H 0.57083 0.06629 0.7685 0.0
H1458 H 0.57042 0.9707 0.82445 0.0
H1459 H 0.57226 0.04023 0.67917 0.0
H1460 H 0.57359 0.03145 0.78946 0.0
H1461 H 0.57558 0.97939 0.71437 0.0
C1462 C 0.57319 0.95754 0.75049 0.0
C1463 C 0.57146 0.95462 0.78167 0.0
C1464 C 0.57345 0.03335 0.76527 0.0
C1465 C 0.57419 0.9947 0.75787 0.0
C1466 C 0.57193 0.05327 0.75327 0.0
C1467 C 0.57121 0.05622 0.72201 0.0
C1468 C 0.57421 0.01619 0.74589 0.0
C1469 C 0.57269 0.03872 0.70341 0.0
C1470 C 0.57457 0.9775 0.73853 0.0
C1471 C 0.57165 0.97218 0.80026 0.0
N1472 N 0.57399 0.01948 0.71561 0.0
N1473 N 0.57288 0.99143 0.78808 0.0
H1474 H 0.3165 0.32144 0.98461 0.0
H1475 H 0.19467 0.32263 0.01796 0.0
H1476 H 0.29039 0.32148 0.07395 0.0
H1477 H 0.22083 0.32272 0.92865 0.0
H1478 H 0.22959 0.32509 0.03892 0.0
H1479 H 0.28166 0.32481 0.96374 0.0
C1480 C 0.30347 0.32236 0.99987 0.0
C1481 C 0.3064 0.32106 0.0311 0.0
C1482 C 0.22769 0.32473 0.01472 0.0
C1483 C 0.26638 0.32477 0.00732 0.0
C1484 C 0.20773 0.32336 0.00274 0.0
C1485 C 0.20479 0.32235 0.97149 0.0
C1486 C 0.24488 0.32504 0.99535 0.0
C1487 C 0.22233 0.32337 0.95288 0.0
C1488 C 0.28356 0.32424 0.98792 0.0
C1489 C 0.2889 0.32234 0.04974 0.0
N1490 N 0.24159 0.32452 0.96509 0.0
N1491 N 0.26967 0.32399 0.03757 0.0
H1492 H 0.9341 0.03656 0.32501 0.0
H1493 H 0.93433 0.96833 0.17471 0.0
H1494 H 0.93352 0.06263 0.23564 0.0
H1495 H 0.93647 0.94245 0.26414 0.0
H1496 H 0.93101 1.00282 0.19658 0.0
H1497 H 0.93196 1.00199 0.30315 0.0
C1498 C 0.93336 0.03504 0.30077 0.0
C1499 C 0.9341 0.05257 0.28213 0.0
C1500 C 0.93205 0.9896 0.21144 0.0
C1501 C 0.93176 0.01289 0.25689 0.0
C1502 C 0.93392 0.96986 0.19896 0.0
C1503 C 0.93579 0.95243 0.21761 0.0
C1504 C 0.9321 0.992 0.24285 0.0
C1505 C 0.93513 0.95542 0.24888 0.0
C1506 C 0.93216 0.01526 0.28829 0.0
C1507 C 0.93304 0.04959 0.25088 0.0
N1508 N 0.93347 0.97481 0.26049 0.0
N1509 N 0.93205 0.03014 0.23925 0.0
H1510 H 0.31164 0.68262 0.5141 0.0
H1511 H 0.19002 0.68627 0.47963 0.0
H1512 H 0.28587 0.68579 0.42466 0.0
H1513 H 0.21561 0.68311 0.56917 0.0
H1514 H 0.22492 0.68307 0.45895 0.0
H1515 H 0.2766 0.6799 0.53456 0.0
C1516 C 0.29864 0.68257 0.49873 0.0
C1517 C 0.30173 0.68456 0.46761 0.0
C1518 C 0.2229 0.68291 0.48313 0.0
C1519 C 0.26151 0.68154 0.49091 0.0
C1520 C 0.20294 0.68468 0.49496 0.0
C1521 C 0.19986 0.68507 0.5262 0.0
C1522 C 0.23995 0.68159 0.50266 0.0
C1523 C 0.21723 0.68295 0.54494 0.0
C1524 C 0.27861 0.68104 0.51044 0.0
C1525 C 0.28426 0.68438 0.44881 0.0
N1526 N 0.23651 0.68146 0.5329 0.0
N1527 N 0.26494 0.68304 0.46075 0.0
H1528 H 0.43764 0.03525 0.17356 0.0
H1529 H 0.43448 0.96759 0.32429 0.0
H1530 H 0.43421 0.06154 0.26264 0.0
H1531 H 0.43809 0.94128 0.23525 0.0
H1532 H 0.43135 1.00194 0.30195 0.0
H1533 H 0.43487 1.00072 0.19549 0.0
C1534 C 0.43613 0.03379 0.19774 0.0
C1535 C 0.43627 0.05136 0.21629 0.0
C1536 C 0.43266 0.98866 0.28726 0.0
C1537 C 0.43321 0.01175 0.24162 0.0
C1538 C 0.43442 0.969 0.30002 0.0
C1539 C 0.43667 0.95149 0.28163 0.0
C1540 C 0.43324 0.99091 0.25585 0.0
C1541 C 0.43644 0.95432 0.25032 0.0
C1542 C 0.43457 0.01403 0.21025 0.0
C1543 C 0.43423 0.04846 0.24746 0.0
N1544 N 0.43492 0.97365 0.23843 0.0
N1545 N 0.43292 0.02905 0.25913 0.0
H1546 H 0.81133 0.68248 0.98913 0.0
H1547 H 0.68969 0.68796 0.02275 0.0
H1548 H 0.78532 0.68585 0.07839 0.0
H1549 H 0.71551 0.6845 0.93337 0.0
H1550 H 0.72445 0.68407 0.04366 0.0
H1551 H 0.77632 0.68019 0.96842 0.0
C1552 C 0.79828 0.68255 0.0044 0.0
C1553 C 0.8013 0.68448 0.03555 0.0
C1554 C 0.7225 0.68399 0.01947 0.0
C1555 C 0.76112 0.68198 0.01197 0.0
C1556 C 0.70263 0.68616 0.0075 0.0
C1557 C 0.69965 0.68668 0.97624 0.0
C1558 C 0.7396 0.6824 1.00006 0.0
C1559 C 0.71704 0.68426 0.95762 0.0
C1560 C 0.77828 0.68128 0.99256 0.0
C1561 C 0.78377 0.68448 0.05423 0.0
N1562 N 0.73625 0.68239 0.96979 0.0
N1563 N 0.76447 0.68339 0.04215 0.0
H1564 H 0.07445 0.03862 0.8262 0.0
H1565 H 0.07399 0.97005 0.67626 0.0
H1566 H 0.07286 0.06433 0.73664 0.0
H1567 H 0.07344 0.94423 0.76579 0.0
H1568 H 0.07677 0.00463 0.69795 0.0
H1569 H 0.07734 0.00405 0.80451 0.0
C1570 C 0.07491 0.03703 0.80196 0.0
C1571 C 0.07329 0.05444 0.78322 0.0
C1572 C 0.07618 0.99141 0.71288 0.0
C1573 C 0.07647 0.01478 0.75819 0.0
C1574 C 0.07462 0.97162 0.7005 0.0
C1575 C 0.07336 0.95418 0.71923 0.0
C1576 C 0.07645 0.99385 0.74427 0.0
C1577 C 0.07429 0.95721 0.75047 0.0
C1578 C 0.07652 0.01725 0.78958 0.0
C1579 C 0.074 0.05138 0.75197 0.0
N1580 N 0.07566 0.97666 0.762 0.0
N1581 N 0.0754 0.03194 0.74045 0.0
H1582 H 0.69302 0.32348 0.48535 0.0
H1583 H 0.81503 0.32256 0.51716 0.0
H1584 H 0.71967 0.32394 0.57435 0.0
H1585 H 0.78835 0.32271 0.42817 0.0
H1586 H 0.78031 0.3258 0.53851 0.0
H1587 H 0.7278 0.32587 0.46397 0.0
C1588 C 0.70616 0.32425 0.50041 0.0
C1589 C 0.7034 0.32339 0.53171 0.0
C1590 C 0.78205 0.32529 0.5143 0.0
C1591 C 0.74333 0.32602 0.50736 0.0
C1592 C 0.8019 0.32348 0.50209 0.0
C1593 C 0.80463 0.32225 0.47082 0.0
C1594 C 0.76476 0.32581 0.49513 0.0
C1595 C 0.78701 0.32352 0.45241 0.0
C1596 C 0.72604 0.3256 0.48819 0.0
C1597 C 0.72104 0.32448 0.5501 0.0
N1598 N 0.76785 0.32509 0.46483 0.0
N1599 N 0.74023 0.3256 0.53766 0.0
loop_
_geom_bond_atom_site_label_1
_geom_bond_atom_site_label_2
_geom_bond_distance
_geom_bond_site_symmetry_2
_ccdc_geom_bond_type
O0 Cd1 2.223 . S
O0 C8 1.315 . S
Cd1 O0 2.223 . S
Cd1 O4 2.297 . S
Cd1 O5 2.439 . S
Cd1 O11 2.240 . S
Cd2 O3 2.240 . S
Cd2 O10 2.223 . S
Cd2 O12 2.297 . S
Cd2 O13 2.439 . S
O3 Cd2 2.240 . S
O3 C8 1.279 . S
O4 Cd1 2.297 . S
O4 C6 1.247 . S
O5 Cd1 2.439 . S
O5 C6 1.208 . S
C6 O4 1.247 . S
C6 O5 1.208 . S
C7 O12 1.247 . S
C7 O13 1.208 . S
C8 O0 1.315 . S
C8 O3 1.279 . S
C9 O10 1.315 . S
C9 O11 1.279 . S
O10 Cd2 2.223 . S
O10 C9 1.315 . S
O11 Cd1 2.240 . S
O11 C9 1.279 . S
O12 Cd2 2.297 . S
O12 C7 1.247 . S
O13 Cd2 2.439 . S
O13 C7 1.208 . S
O14 Cd15 2.223 . S
O14 C22 1.315 . S
Cd15 O14 2.223 . S
Cd15 O18 2.297 . S
Cd15 O19 2.439 . S
Cd15 O25 2.240 . S
Cd16 O17 2.240 . S
Cd16 O24 2.223 . S
Cd16 O26 2.297 . S
Cd16 O27 2.439 . S
O17 Cd16 2.240 . S
O17 C22 1.279 . S
O18 Cd15 2.297 . S
O18 C20 1.247 . S
O19 Cd15 2.439 . S
O19 C20 1.208 . S
C20 O18 1.247 . S
C20 O19 1.208 . S
C21 O26 1.247 . S
C21 O27 1.208 . S
C22 O14 1.315 . S
C22 O17 1.279 . S
C23 O24 1.315 . S
C23 O25 1.279 . S
O24 Cd16 2.223 . S
O24 C23 1.315 . S
O25 Cd15 2.240 . S
O25 C23 1.279 . S
O26 Cd16 2.297 . S
O26 C21 1.247 . S
O27 Cd16 2.439 . S
O27 C21 1.208 . S
O28 Cd29 2.223 . S
O28 C36 1.315 . S
Cd29 O28 2.223 . S
Cd29 O32 2.297 . S
Cd29 O33 2.439 . S
Cd29 O39 2.240 . S
Cd30 O31 2.240 . S
Cd30 O38 2.223 . S
Cd30 O40 2.297 . S
Cd30 O41 2.439 . S
O31 Cd30 2.240 . S
O31 C36 1.279 . S
O32 Cd29 2.297 . S
O32 C34 1.247 . S
O33 Cd29 2.439 . S
O33 C34 1.208 . S
C34 O32 1.247 . S
C34 O33 1.208 . S
C35 O40 1.247 . S
C35 O41 1.208 . S
C36 O28 1.315 . S
C36 O31 1.279 . S
C37 O38 1.315 . S
C37 O39 1.279 . S
O38 Cd30 2.223 . S
O38 C37 1.315 . S
O39 Cd29 2.240 . S
O39 C37 1.279 . S
O40 Cd30 2.297 . S
O40 C35 1.247 . S
O41 Cd30 2.439 . S
O41 C35 1.208 . S
O42 Cd43 2.223 . S
O42 C50 1.315 . S
Cd43 O42 2.223 . S
Cd43 O46 2.297 . S
Cd43 O47 2.439 . S
Cd43 O53 2.240 . S
Cd44 O45 2.240 . S
Cd44 O52 2.223 . S
Cd44 O54 2.297 1_554 S
Cd44 O55 2.439 1_554 S
O45 Cd44 2.240 . S
O45 C50 1.279 . S
O46 Cd43 2.297 . S
O46 C48 1.247 . S
O47 Cd43 2.439 . S
O47 C48 1.208 . S
C48 O46 1.247 . S
C48 O47 1.208 . S
C49 O54 1.247 . S
C49 O55 1.208 . S
C50 O42 1.315 . S
C50 O45 1.279 . S
C51 O52 1.315 . S
C51 O53 1.279 . S
O52 Cd44 2.223 . S
O52 C51 1.315 . S
O53 Cd43 2.240 . S
O53 C51 1.279 . S
O54 Cd44 2.297 1_556 S
O54 C49 1.247 . S
O55 Cd44 2.439 1_556 S
O55 C49 1.208 . S
O56 Cd57 2.223 . S
O56 C64 1.315 . S
Cd57 O56 2.223 . S
Cd57 O60 2.297 . S
Cd57 O61 2.439 . S
Cd57 O67 2.240 . S
Cd58 O59 2.240 . S
Cd58 O66 2.223 . S
Cd58 O68 2.297 . S
Cd58 O69 2.439 . S
O59 Cd58 2.240 . S
O59 C64 1.279 . S
O60 Cd57 2.297 . S
O60 C62 1.247 . S
O61 Cd57 2.439 . S
O61 C62 1.208 . S
C62 O60 1.247 . S
C62 O61 1.208 . S
C63 O68 1.247 . S
C63 O69 1.208 . S
C64 O56 1.315 . S
C64 O59 1.279 . S
C65 O66 1.315 . S
C65 O67 1.279 . S
O66 Cd58 2.223 . S
O66 C65 1.315 . S
O67 Cd57 2.240 . S
O67 C65 1.279 . S
O68 Cd58 2.297 . S
O68 C63 1.247 . S
O69 Cd58 2.439 . S
O69 C63 1.208 . S
O70 Cd71 2.223 . S
O70 C78 1.315 . S
Cd71 O70 2.223 . S
Cd71 O74 2.297 . S
Cd71 O75 2.439 . S
Cd71 O81 2.240 . S
Cd72 O73 2.240 . S
Cd72 O80 2.223 . S
Cd72 O82 2.297 . S
Cd72 O83 2.439 . S
O73 Cd72 2.240 . S
O73 C78 1.279 . S
O74 Cd71 2.297 . S
O74 C76 1.247 . S
O75 Cd71 2.439 . S
O75 C76 1.208 . S
C76 O74 1.247 . S
C76 O75 1.208 . S
C77 O82 1.247 . S
C77 O83 1.208 . S
C78 O70 1.315 . S
C78 O73 1.279 . S
C79 O80 1.315 . S
C79 O81 1.279 . S
O80 Cd72 2.223 . S
O80 C79 1.315 . S
O81 Cd71 2.240 . S
O81 C79 1.279 . S
O82 Cd72 2.297 . S
O82 C77 1.247 . S
O83 Cd72 2.439 . S
O83 C77 1.208 . S
O84 Cd85 2.223 . S
O84 C92 1.315 . S
Cd85 O84 2.223 . S
Cd85 O88 2.297 . S
Cd85 O89 2.439 . S
Cd85 O95 2.240 . S
Cd86 O87 2.240 . S
Cd86 O94 2.223 . S
Cd86 O96 2.297 . S
Cd86 O97 2.439 . S
O87 Cd86 2.240 . S
O87 C92 1.279 . S
O88 Cd85 2.297 . S
O88 C90 1.247 . S
O89 Cd85 2.439 . S
O89 C90 1.208 . S
C90 O88 1.247 . S
C90 O89 1.208 . S
C91 O96 1.247 . S
C91 O97 1.208 . S
C92 O84 1.315 . S
C92 O87 1.279 . S
C93 O94 1.315 . S
C93 O95 1.279 . S
O94 Cd86 2.223 . S
O94 C93 1.315 . S
O95 Cd85 2.240 . S
O95 C93 1.279 . S
O96 Cd86 2.297 . S
O96 C91 1.247 . S
O97 Cd86 2.439 . S
O97 C91 1.208 . S
O98 Cd99 2.223 . S
O98 C106 1.315 . S
Cd99 O98 2.223 . S
Cd99 O102 2.297 . S
Cd99 O103 2.439 . S
Cd99 O109 2.240 . S
Cd100 O101 2.240 . S
Cd100 O108 2.223 . S
Cd100 O110 2.297 1_556 S
Cd100 O111 2.439 1_556 S
O101 Cd100 2.240 . S
O101 C106 1.279 . S
O102 Cd99 2.297 . S
O102 C104 1.247 . S
O103 Cd99 2.439 . S
O103 C104 1.208 . S
C104 O102 1.247 . S
C104 O103 1.208 . S
C105 O110 1.247 . S
C105 O111 1.208 . S
C106 O98 1.315 . S
C106 O101 1.279 . S
C107 O108 1.315 . S
C107 O109 1.279 . S
O108 Cd100 2.223 . S
O108 C107 1.315 . S
O109 Cd99 2.240 . S
O109 C107 1.279 . S
O110 Cd100 2.297 1_554 S
O110 C105 1.247 . S
O111 Cd100 2.439 1_554 S
O111 C105 1.208 . S
O112 Cd113 2.223 . S
O112 C120 1.315 . S
Cd113 O112 2.223 . S
Cd113 O116 2.297 . S
Cd113 O117 2.439 . S
Cd113 O123 2.240 . S
Cd114 O115 2.240 . S
Cd114 O122 2.223 . S
Cd114 O124 2.297 . S
Cd114 O125 2.439 . S
O115 Cd114 2.240 . S
O115 C120 1.279 . S
O116 Cd113 2.297 . S
O116 C118 1.247 . S
O117 Cd113 2.439 . S
O117 C118 1.208 . S
C118 O116 1.247 . S
C118 O117 1.208 . S
C119 O124 1.247 . S
C119 O125 1.208 . S
C120 O112 1.315 . S
C120 O115 1.279 . S
C121 O122 1.315 . S
C121 O123 1.279 . S
O122 Cd114 2.223 . S
O122 C121 1.315 . S
O123 Cd113 2.240 . S
O123 C121 1.279 . S
O124 Cd114 2.297 . S
O124 C119 1.247 . S
O125 Cd114 2.439 . S
O125 C119 1.208 . S
O126 Cd127 2.223 . S
O126 C134 1.315 . S
Cd127 O126 2.223 . S
Cd127 O130 2.297 . S
Cd127 O131 2.439 . S
Cd127 O137 2.240 . S
Cd128 O129 2.240 . S
Cd128 O136 2.223 . S
Cd128 O138 2.297 . S
Cd128 O139 2.439 . S
O129 Cd128 2.240 . S
O129 C134 1.279 . S
O130 Cd127 2.297 . S
O130 C132 1.247 . S
O131 Cd127 2.439 . S
O131 C132 1.208 . S
C132 O130 1.247 . S
C132 O131 1.208 . S
C133 O138 1.247 . S
C133 O139 1.208 . S
C134 O126 1.315 . S
C134 O129 1.279 . S
C135 O136 1.315 . S
C135 O137 1.279 . S
O136 Cd128 2.223 . S
O136 C135 1.315 . S
O137 Cd127 2.240 . S
O137 C135 1.279 . S
O138 Cd128 2.297 . S
O138 C133 1.247 . S
O139 Cd128 2.439 . S
O139 C133 1.208 . S
O140 Cd141 2.223 . S
O140 C148 1.315 . S
Cd141 O140 2.223 . S
Cd141 O144 2.297 . S
Cd141 O145 2.439 . S
Cd141 O151 2.240 . S
Cd142 O143 2.240 . S
Cd142 O150 2.223 . S
Cd142 O152 2.297 . S
Cd142 O153 2.439 . S
O143 Cd142 2.240 . S
O143 C148 1.279 . S
O144 Cd141 2.297 . S
O144 C146 1.247 . S
O145 Cd141 2.439 . S
O145 C146 1.208 . S
C146 O144 1.247 . S
C146 O145 1.208 . S
C147 O152 1.247 . S
C147 O153 1.208 . S
C148 O140 1.315 . S
C148 O143 1.279 . S
C149 O150 1.315 . S
C149 O151 1.279 . S
O150 Cd142 2.223 . S
O150 C149 1.315 . S
O151 Cd141 2.240 . S
O151 C149 1.279 . S
O152 Cd142 2.297 . S
O152 C147 1.247 . S
O153 Cd142 2.439 . S
O153 C147 1.208 . S
O154 Cd155 2.223 . S
O154 C162 1.315 . S
Cd155 O154 2.223 . S
Cd155 O158 2.297 . S
Cd155 O159 2.439 . S
Cd155 O165 2.240 . S
Cd156 O157 2.240 . S
Cd156 O164 2.223 . S
Cd156 O166 2.297 1_556 S
Cd156 O167 2.439 1_556 S
O157 Cd156 2.240 . S
O157 C162 1.279 . S
O158 Cd155 2.297 . S
O158 C160 1.247 . S
O159 Cd155 2.439 . S
O159 C160 1.208 . S
C160 O158 1.247 . S
C160 O159 1.208 . S
C161 O166 1.247 . S
C161 O167 1.208 . S
C162 O154 1.315 . S
C162 O157 1.279 . S
C163 O164 1.315 . S
C163 O165 1.279 . S
O164 Cd156 2.223 . S
O164 C163 1.315 . S
O165 Cd155 2.240 . S
O165 C163 1.279 . S
O166 Cd156 2.297 1_554 S
O166 C161 1.247 . S
O167 Cd156 2.439 1_554 S
O167 C161 1.208 . S
O168 Cd169 2.223 . S
O168 C176 1.315 . S
Cd169 O168 2.223 . S
Cd169 O172 2.297 . S
Cd169 O173 2.439 . S
Cd169 O179 2.240 . S
Cd170 O171 2.240 . S
Cd170 O178 2.223 . S
Cd170 O180 2.297 . S
Cd170 O181 2.439 . S
O171 Cd170 2.240 . S
O171 C176 1.279 . S
O172 Cd169 2.297 . S
O172 C174 1.247 . S
O173 Cd169 2.439 . S
O173 C174 1.208 . S
C174 O172 1.247 . S
C174 O173 1.208 . S
C175 O180 1.247 . S
C175 O181 1.208 . S
C176 O168 1.315 . S
C176 O171 1.279 . S
C177 O178 1.315 . S
C177 O179 1.279 . S
O178 Cd170 2.223 . S
O178 C177 1.315 . S
O179 Cd169 2.240 . S
O179 C177 1.279 . S
O180 Cd170 2.297 . S
O180 C175 1.247 . S
O181 Cd170 2.439 . S
O181 C175 1.208 . S
O182 Cd183 2.223 . S
O182 C190 1.315 . S
Cd183 O182 2.223 . S
Cd183 O186 2.297 . S
Cd183 O187 2.439 . S
Cd183 O193 2.240 . S
Cd184 O185 2.240 . S
Cd184 O192 2.223 . S
Cd184 O194 2.297 . S
Cd184 O195 2.439 . S
O185 Cd184 2.240 . S
O185 C190 1.279 . S
O186 Cd183 2.297 . S
O186 C188 1.247 . S
O187 Cd183 2.439 . S
O187 C188 1.208 . S
C188 O186 1.247 . S
C188 O187 1.208 . S
C189 O194 1.247 . S
C189 O195 1.208 . S
C190 O182 1.315 . S
C190 O185 1.279 . S
C191 O192 1.315 . S
C191 O193 1.279 . S
O192 Cd184 2.223 . S
O192 C191 1.315 . S
O193 Cd183 2.240 . S
O193 C191 1.279 . S
O194 Cd184 2.297 . S
O194 C189 1.247 . S
O195 Cd184 2.439 . S
O195 C189 1.208 . S
O196 Cd197 2.223 . S
O196 C204 1.315 . S
Cd197 O196 2.223 . S
Cd197 O200 2.297 . S
Cd197 O201 2.439 . S
Cd197 O207 2.240 . S
Cd198 O199 2.240 . S
Cd198 O206 2.223 . S
Cd198 O208 2.297 . S
Cd198 O209 2.439 . S
O199 Cd198 2.240 . S
O199 C204 1.279 . S
O200 Cd197 2.297 . S
O200 C202 1.247 . S
O201 Cd197 2.439 . S
O201 C202 1.208 . S
C202 O200 1.247 . S
C202 O201 1.208 . S
C203 O208 1.247 . S
C203 O209 1.208 . S
C204 O196 1.315 . S
C204 O199 1.279 . S
C205 O206 1.315 . S
C205 O207 1.279 . S
O206 Cd198 2.223 . S
O206 C205 1.315 . S
O207 Cd197 2.240 . S
O207 C205 1.279 . S
O208 Cd198 2.297 . S
O208 C203 1.247 . S
O209 Cd198 2.439 . S
O209 C203 1.208 . S
O210 Cd211 2.223 . S
O210 C218 1.315 . S
Cd211 O210 2.223 . S
Cd211 O214 2.297 . S
Cd211 O215 2.439 . S
Cd211 O221 2.240 . S
Cd212 O213 2.240 . S
Cd212 O220 2.223 . S
Cd212 O222 2.297 1_554 S
Cd212 O223 2.439 1_554 S
O213 Cd212 2.240 . S
O213 C218 1.279 . S
O214 Cd211 2.297 . S
O214 C216 1.247 . S
O215 Cd211 2.439 . S
O215 C216 1.208 . S
C216 O214 1.247 . S
C216 O215 1.208 . S
C217 O222 1.247 . S
C217 O223 1.208 . S
C218 O210 1.315 . S
C218 O213 1.279 . S
C219 O220 1.315 . S
C219 O221 1.279 . S
O220 Cd212 2.223 . S
O220 C219 1.315 . S
O221 Cd211 2.240 . S
O221 C219 1.279 . S
O222 Cd212 2.297 1_556 S
O222 C217 1.247 . S
O223 Cd212 2.439 1_556 S
O223 C217 1.208 . S
O224 Cd225 2.223 . S
O224 C232 1.315 . S
Cd225 O224 2.223 . S
Cd225 O228 2.297 . S
Cd225 O229 2.439 . S
Cd225 O235 2.240 . S
Cd226 O227 2.240 . S
Cd226 O234 2.223 . S
Cd226 O236 2.297 . S
Cd226 O237 2.439 . S
O227 Cd226 2.240 . S
O227 C232 1.279 . S
O228 Cd225 2.297 . S
O228 C230 1.247 . S
O229 Cd225 2.439 . S
O229 C230 1.208 . S
C230 O228 1.247 . S
C230 O229 1.208 . S
C231 O236 1.247 . S
C231 O237 1.208 . S
C232 O224 1.315 . S
C232 O227 1.279 . S
C233 O234 1.315 . S
C233 O235 1.279 . S
O234 Cd226 2.223 . S
O234 C233 1.315 . S
O235 Cd225 2.240 . S
O235 C233 1.279 . S
O236 Cd226 2.297 . S
O236 C231 1.247 . S
O237 Cd226 2.439 . S
O237 C231 1.208 . S
O238 Cd239 2.223 . S
O238 C246 1.315 . S
Cd239 O238 2.223 . S
Cd239 O242 2.297 . S
Cd239 O243 2.439 . S
Cd239 O249 2.240 . S
Cd240 O241 2.240 . S
Cd240 O248 2.223 . S
Cd240 O250 2.297 1_554 S
Cd240 O251 2.439 1_554 S
O241 Cd240 2.240 . S
O241 C246 1.279 . S
O242 Cd239 2.297 . S
O242 C244 1.247 . S
O243 Cd239 2.439 . S
O243 C244 1.208 . S
C244 O242 1.247 . S
C244 O243 1.208 . S
C245 O250 1.247 . S
C245 O251 1.208 . S
C246 O238 1.315 . S
C246 O241 1.279 . S
C247 O248 1.315 . S
C247 O249 1.279 . S
O248 Cd240 2.223 . S
O248 C247 1.315 . S
O249 Cd239 2.240 . S
O249 C247 1.279 . S
O250 Cd240 2.297 1_556 S
O250 C245 1.247 . S
O251 Cd240 2.439 1_556 S
O251 C245 1.208 . S
O252 Cd253 2.223 . S
O252 C260 1.315 . S
Cd253 O252 2.223 . S
Cd253 O256 2.297 . S
Cd253 O257 2.439 . S
Cd253 O263 2.240 . S
Cd254 O255 2.240 . S
Cd254 O262 2.223 . S
Cd254 O264 2.297 . S
Cd254 O265 2.439 . S
O255 Cd254 2.240 . S
O255 C260 1.279 . S
O256 Cd253 2.297 . S
O256 C258 1.247 . S
O257 Cd253 2.439 . S
O257 C258 1.208 . S
C258 O256 1.247 . S
C258 O257 1.208 . S
C259 O264 1.247 . S
C259 O265 1.208 . S
C260 O252 1.315 . S
C260 O255 1.279 . S
C261 O262 1.315 . S
C261 O263 1.279 . S
O262 Cd254 2.223 . S
O262 C261 1.315 . S
O263 Cd253 2.240 . S
O263 C261 1.279 . S
O264 Cd254 2.297 . S
O264 C259 1.247 . S
O265 Cd254 2.439 . S
O265 C259 1.208 . S
O266 Cd267 2.223 . S
O266 C274 1.315 . S
Cd267 O266 2.223 . S
Cd267 O270 2.297 . S
Cd267 O271 2.439 . S
Cd267 O277 2.240 . S
Cd268 O269 2.240 . S
Cd268 O276 2.223 . S
Cd268 O278 2.297 . S
Cd268 O279 2.439 . S
O269 Cd268 2.240 . S
O269 C274 1.279 . S
O270 Cd267 2.297 . S
O270 C272 1.247 . S
O271 Cd267 2.439 . S
O271 C272 1.208 . S
C272 O270 1.247 . S
C272 O271 1.208 . S
C273 O278 1.247 . S
C273 O279 1.208 . S
C274 O266 1.315 . S
C274 O269 1.279 . S
C275 O276 1.315 . S
C275 O277 1.279 . S
O276 Cd268 2.223 . S
O276 C275 1.315 . S
O277 Cd267 2.240 . S
O277 C275 1.279 . S
O278 Cd268 2.297 . S
O278 C273 1.247 . S
O279 Cd268 2.439 . S
O279 C273 1.208 . S
O280 Cd281 2.223 . S
O280 C288 1.315 . S
Cd281 O280 2.223 . S
Cd281 O284 2.297 . S
Cd281 O285 2.439 . S
Cd281 O291 2.240 . S
Cd282 O283 2.240 . S
Cd282 O290 2.223 . S
Cd282 O292 2.297 . S
Cd282 O293 2.439 . S
O283 Cd282 2.240 . S
O283 C288 1.279 . S
O284 Cd281 2.297 . S
O284 C286 1.247 . S
O285 Cd281 2.439 . S
O285 C286 1.208 . S
C286 O284 1.247 . S
C286 O285 1.208 . S
C287 O292 1.247 . S
C287 O293 1.208 . S
C288 O280 1.315 . S
C288 O283 1.279 . S
C289 O290 1.315 . S
C289 O291 1.279 . S
O290 Cd282 2.223 . S
O290 C289 1.315 . S
O291 Cd281 2.240 . S
O291 C289 1.279 . S
O292 Cd282 2.297 . S
O292 C287 1.247 . S
O293 Cd282 2.439 . S
O293 C287 1.208 . S
O294 Cd295 2.223 . S
O294 C302 1.315 . S
Cd295 O294 2.223 . S
Cd295 O298 2.297 . S
Cd295 O299 2.439 . S
Cd295 O305 2.240 . S
Cd296 O297 2.240 . S
Cd296 O304 2.223 . S
Cd296 O306 2.297 1_556 S
Cd296 O307 2.439 1_556 S
O297 Cd296 2.240 . S
O297 C302 1.279 . S
O298 Cd295 2.297 . S
O298 C300 1.247 . S
O299 Cd295 2.439 . S
O299 C300 1.208 . S
C300 O298 1.247 . S
C300 O299 1.208 . S
C301 O306 1.247 . S
C301 O307 1.208 . S
C302 O294 1.315 . S
C302 O297 1.279 . S
C303 O304 1.315 . S
C303 O305 1.279 . S
O304 Cd296 2.223 . S
O304 C303 1.315 . S
O305 Cd295 2.240 . S
O305 C303 1.279 . S
O306 Cd296 2.297 1_554 S
O306 C301 1.247 . S
O307 Cd296 2.439 1_554 S
O307 C301 1.208 . S
O308 Cd309 2.223 . S
O308 C316 1.315 . S
Cd309 O308 2.223 . S
Cd309 O312 2.297 . S
Cd309 O313 2.439 . S
Cd309 O319 2.240 . S
Cd310 O311 2.240 . S
Cd310 O318 2.223 . S
Cd310 O320 2.297 . S
Cd310 O321 2.439 . S
O311 Cd310 2.240 . S
O311 C316 1.279 . S
O312 Cd309 2.297 . S
O312 C314 1.247 . S
O313 Cd309 2.439 . S
O313 C314 1.208 . S
C314 O312 1.247 . S
C314 O313 1.208 . S
C315 O320 1.247 . S
C315 O321 1.208 . S
C316 O308 1.315 . S
C316 O311 1.279 . S
C317 O318 1.315 . S
C317 O319 1.279 . S
O318 Cd310 2.223 . S
O318 C317 1.315 . S
O319 Cd309 2.240 . S
O319 C317 1.279 . S
O320 Cd310 2.297 . S
O320 C315 1.247 . S
O321 Cd310 2.439 . S
O321 C315 1.208 . S
O322 Cd323 2.223 . S
O322 C330 1.315 . S
Cd323 O322 2.223 . S
Cd323 O326 2.297 . S
Cd323 O327 2.439 . S
Cd323 O333 2.240 . S
Cd324 O325 2.240 . S
Cd324 O332 2.223 . S
Cd324 O334 2.297 . S
Cd324 O335 2.439 . S
O325 Cd324 2.240 . S
O325 C330 1.279 . S
O326 Cd323 2.297 . S
O326 C328 1.247 . S
O327 Cd323 2.439 . S
O327 C328 1.208 . S
C328 O326 1.247 . S
C328 O327 1.208 . S
C329 O334 1.247 . S
C329 O335 1.208 . S
C330 O322 1.315 . S
C330 O325 1.279 . S
C331 O332 1.315 . S
C331 O333 1.279 . S
O332 Cd324 2.223 . S
O332 C331 1.315 . S
O333 Cd323 2.240 . S
O333 C331 1.279 . S
O334 Cd324 2.297 . S
O334 C329 1.247 . S
O335 Cd324 2.439 . S
O335 C329 1.208 . S
O336 Cd337 2.223 . S
O336 C344 1.315 . S
Cd337 O336 2.223 . S
Cd337 O340 2.297 . S
Cd337 O341 2.439 . S
Cd337 O347 2.240 . S
Cd338 O339 2.240 . S
Cd338 O346 2.223 . S
Cd338 O348 2.297 . S
Cd338 O349 2.439 . S
O339 Cd338 2.240 . S
O339 C344 1.279 . S
O340 Cd337 2.297 . S
O340 C342 1.247 . S
O341 Cd337 2.439 . S
O341 C342 1.208 . S
C342 O340 1.247 . S
C342 O341 1.208 . S
C343 O348 1.247 . S
C343 O349 1.208 . S
C344 O336 1.315 . S
C344 O339 1.279 . S
C345 O346 1.315 . S
C345 O347 1.279 . S
O346 Cd338 2.223 . S
O346 C345 1.315 . S
O347 Cd337 2.240 . S
O347 C345 1.279 . S
O348 Cd338 2.297 . S
O348 C343 1.247 . S
O349 Cd338 2.439 . S
O349 C343 1.208 . S
O350 Cd351 2.223 . S
O350 C358 1.315 . S
Cd351 O350 2.223 . S
Cd351 O354 2.297 . S
Cd351 O355 2.439 . S
Cd351 O361 2.240 . S
Cd352 O353 2.240 . S
Cd352 O360 2.223 . S
Cd352 O362 2.297 1_556 S
Cd352 O363 2.439 1_556 S
O353 Cd352 2.240 . S
O353 C358 1.279 . S
O354 Cd351 2.297 . S
O354 C356 1.247 . S
O355 Cd351 2.439 . S
O355 C356 1.208 . S
C356 O354 1.247 . S
C356 O355 1.208 . S
C357 O362 1.247 . S
C357 O363 1.208 . S
C358 O350 1.315 . S
C358 O353 1.279 . S
C359 O360 1.315 . S
C359 O361 1.279 . S
O360 Cd352 2.223 . S
O360 C359 1.315 . S
O361 Cd351 2.240 . S
O361 C359 1.279 . S
O362 Cd352 2.297 1_554 S
O362 C357 1.247 . S
O363 Cd352 2.439 1_554 S
O363 C357 1.208 . S
O364 Cd365 2.223 . S
O364 C372 1.315 . S
Cd365 O364 2.223 . S
Cd365 O368 2.297 . S
Cd365 O369 2.439 . S
Cd365 O375 2.240 . S
Cd366 O367 2.240 . S
Cd366 O374 2.223 . S
Cd366 O376 2.297 . S
Cd366 O377 2.439 . S
O367 Cd366 2.240 . S
O367 C372 1.279 . S
O368 Cd365 2.297 . S
O368 C370 1.247 . S
O369 Cd365 2.439 . S
O369 C370 1.208 . S
C370 O368 1.247 . S
C370 O369 1.208 . S
C371 O376 1.247 . S
C371 O377 1.208 . S
C372 O364 1.315 . S
C372 O367 1.279 . S
C373 O374 1.315 . S
C373 O375 1.279 . S
O374 Cd366 2.223 . S
O374 C373 1.315 . S
O375 Cd365 2.240 . S
O375 C373 1.279 . S
O376 Cd366 2.297 . S
O376 C371 1.247 . S
O377 Cd366 2.439 . S
O377 C371 1.208 . S
O378 Cd379 2.223 . S
O378 C386 1.315 . S
Cd379 O378 2.223 . S
Cd379 O382 2.297 . S
Cd379 O383 2.439 . S
Cd379 O389 2.240 . S
Cd380 O381 2.240 . S
Cd380 O388 2.223 . S
Cd380 O390 2.297 . S
Cd380 O391 2.439 . S
O381 Cd380 2.240 . S
O381 C386 1.279 . S
O382 Cd379 2.297 . S
O382 C384 1.247 . S
O383 Cd379 2.439 . S
O383 C384 1.208 . S
C384 O382 1.247 . S
C384 O383 1.208 . S
C385 O390 1.247 . S
C385 O391 1.208 . S
C386 O378 1.315 . S
C386 O381 1.279 . S
C387 O388 1.315 . S
C387 O389 1.279 . S
O388 Cd380 2.223 . S
O388 C387 1.315 . S
O389 Cd379 2.240 . S
O389 C387 1.279 . S
O390 Cd380 2.297 . S
O390 C385 1.247 . S
O391 Cd380 2.439 . S
O391 C385 1.208 . S
O392 Cd393 2.223 . S
O392 C400 1.315 . S
Cd393 O392 2.223 . S
Cd393 O396 2.297 . S
Cd393 O397 2.439 . S
Cd393 O403 2.240 . S
Cd394 O395 2.240 . S
Cd394 O402 2.223 . S
Cd394 O404 2.297 . S
Cd394 O405 2.439 . S
O395 Cd394 2.240 . S
O395 C400 1.279 . S
O396 Cd393 2.297 . S
O396 C398 1.247 . S
O397 Cd393 2.439 . S
O397 C398 1.208 . S
C398 O396 1.247 . S
C398 O397 1.208 . S
C399 O404 1.247 . S
C399 O405 1.208 . S
C400 O392 1.315 . S
C400 O395 1.279 . S
C401 O402 1.315 . S
C401 O403 1.279 . S
O402 Cd394 2.223 . S
O402 C401 1.315 . S
O403 Cd393 2.240 . S
O403 C401 1.279 . S
O404 Cd394 2.297 . S
O404 C399 1.247 . S
O405 Cd394 2.439 . S
O405 C399 1.208 . S
O406 Cd407 2.223 . S
O406 C414 1.315 . S
Cd407 O406 2.223 . S
Cd407 O410 2.297 . S
Cd407 O411 2.439 . S
Cd407 O417 2.240 . S
Cd408 O409 2.240 . S
Cd408 O416 2.223 . S
Cd408 O418 2.297 1_554 S
Cd408 O419 2.439 1_554 S
O409 Cd408 2.240 . S
O409 C414 1.279 . S
O410 Cd407 2.297 . S
O410 C412 1.247 . S
O411 Cd407 2.439 . S
O411 C412 1.208 . S
C412 O410 1.247 . S
C412 O411 1.208 . S
C413 O418 1.247 . S
C413 O419 1.208 . S
C414 O406 1.315 . S
C414 O409 1.279 . S
C415 O416 1.315 . S
C415 O417 1.279 . S
O416 Cd408 2.223 . S
O416 C415 1.315 . S
O417 Cd407 2.240 . S
O417 C415 1.279 . S
O418 Cd408 2.297 1_556 S
O418 C413 1.247 . S
O419 Cd408 2.439 1_556 S
O419 C413 1.208 . S
O420 Cd421 2.223 . S
O420 C428 1.315 . S
Cd421 O420 2.223 . S
Cd421 O424 2.297 . S
Cd421 O425 2.439 . S
Cd421 O431 2.240 . S
Cd422 O423 2.240 . S
Cd422 O430 2.223 . S
Cd422 O432 2.297 . S
Cd422 O433 2.439 . S
O423 Cd422 2.240 . S
O423 C428 1.279 . S
O424 Cd421 2.297 . S
O424 C426 1.247 . S
O425 Cd421 2.439 . S
O425 C426 1.208 . S
C426 O424 1.247 . S
C426 O425 1.208 . S
C427 O432 1.247 . S
C427 O433 1.208 . S
C428 O420 1.315 . S
C428 O423 1.279 . S
C429 O430 1.315 . S
C429 O431 1.279 . S
O430 Cd422 2.223 . S
O430 C429 1.315 . S
O431 Cd421 2.240 . S
O431 C429 1.279 . S
O432 Cd422 2.297 . S
O432 C427 1.247 . S
O433 Cd422 2.439 . S
O433 C427 1.208 . S
O434 Cd435 2.223 . S
O434 C442 1.315 . S
Cd435 O434 2.223 . S
Cd435 O438 2.297 . S
Cd435 O439 2.439 . S
Cd435 O445 2.240 . S
Cd436 O437 2.240 . S
Cd436 O444 2.223 . S
Cd436 O446 2.297 . S
Cd436 O447 2.439 . S
O437 Cd436 2.240 . S
O437 C442 1.279 . S
O438 Cd435 2.297 . S
O438 C440 1.247 . S
O439 Cd435 2.439 . S
O439 C440 1.208 . S
C440 O438 1.247 . S
C440 O439 1.208 . S
C441 O446 1.247 . S
C441 O447 1.208 . S
C442 O434 1.315 . S
C442 O437 1.279 . S
C443 O444 1.315 . S
C443 O445 1.279 . S
O444 Cd436 2.223 . S
O444 C443 1.315 . S
O445 Cd435 2.240 . S
O445 C443 1.279 . S
O446 Cd436 2.297 . S
O446 C441 1.247 . S
O447 Cd436 2.439 . S
O447 C441 1.208 . S
H448 C454 0.930 . S
H449 C458 0.930 . S
H450 C463 0.929 . S
H451 C461 0.929 . S
H452 C456 0.929 . S
H453 C462 0.929 . S
C454 H448 0.930 . S
C454 C455 1.367 . S
C454 C462 1.378 . S
C455 C454 1.367 . S
C455 C463 1.433 . S
C456 H452 0.929 . S
C456 C458 1.378 . S
C456 C460 1.350 . S
C457 C460 1.463 . S
C457 C462 1.350 . S
C457 N465 1.427 . S
C458 H449 0.930 . S
C458 C456 1.378 . S
C458 C459 1.367 . S
C459 C458 1.367 . S
C459 C461 1.433 . S
C460 C456 1.350 . S
C460 C457 1.463 . S
C460 N464 1.427 . S
C461 H451 0.929 . S
C461 C459 1.433 . S
C461 N464 1.384 . S
C462 H453 0.929 . S
C462 C454 1.378 . S
C462 C457 1.350 . S
C463 H450 0.929 . S
C463 C455 1.433 . S
C463 N465 1.384 . S
N464 C460 1.427 . S
N464 C461 1.384 . S
N465 C457 1.427 . S
N465 C463 1.384 . S
H466 C472 0.930 . S
H467 C476 0.930 . S
H468 C481 0.929 . S
H469 C479 0.929 . S
H470 C474 0.929 . S
H471 C480 0.929 . S
C472 H466 0.930 . S
C472 C473 1.367 . S
C472 C480 1.378 . S
C473 C472 1.367 . S
C473 C481 1.433 . S
C474 H470 0.929 . S
C474 C476 1.378 . S
C474 C478 1.350 . S
C475 C478 1.463 . S
C475 C480 1.350 . S
C475 N483 1.427 . S
C476 H467 0.930 . S
C476 C474 1.378 . S
C476 C477 1.367 . S
C477 C476 1.367 . S
C477 C479 1.433 . S
C478 C474 1.350 . S
C478 C475 1.463 . S
C478 N482 1.427 . S
C479 H469 0.929 . S
C479 C477 1.433 . S
C479 N482 1.384 . S
C480 H471 0.929 . S
C480 C472 1.378 . S
C480 C475 1.350 . S
C481 H468 0.929 . S
C481 C473 1.433 . S
C481 N483 1.384 . S
N482 C478 1.427 . S
N482 C479 1.384 . S
N483 C475 1.427 . S
N483 C481 1.384 . S
H484 C490 0.930 . S
H485 C494 0.930 . S
H486 C499 0.929 . S
H487 C497 0.929 . S
H488 C492 0.929 . S
H489 C498 0.929 . S
C490 H484 0.930 . S
C490 C491 1.367 . S
C490 C498 1.378 . S
C491 C490 1.367 . S
C491 C499 1.433 . S
C492 H488 0.929 . S
C492 C494 1.378 . S
C492 C496 1.350 . S
C493 C496 1.463 . S
C493 C498 1.350 . S
C493 N501 1.427 . S
C494 H485 0.930 . S
C494 C492 1.378 . S
C494 C495 1.367 . S
C495 C494 1.367 . S
C495 C497 1.433 . S
C496 C492 1.350 . S
C496 C493 1.463 . S
C496 N500 1.427 . S
C497 H487 0.929 . S
C497 C495 1.433 . S
C497 N500 1.384 . S
C498 H489 0.929 . S
C498 C490 1.378 . S
C498 C493 1.350 . S
C499 H486 0.929 . S
C499 C491 1.433 . S
C499 N501 1.384 . S
N500 C496 1.427 . S
N500 C497 1.384 . S
N501 C493 1.427 . S
N501 C499 1.384 . S
H502 C508 0.930 . S
H503 C512 0.930 . S
H504 C517 0.929 . S
H505 C515 0.929 . S
H506 C510 0.929 . S
H507 C516 0.929 . S
C508 H502 0.930 . S
C508 C509 1.367 . S
C508 C516 1.378 . S
C509 C508 1.367 . S
C509 C517 1.433 . S
C510 H506 0.929 . S
C510 C512 1.378 . S
C510 C514 1.350 . S
C511 C514 1.463 . S
C511 C516 1.350 . S
C511 N519 1.427 . S
C512 H503 0.930 . S
C512 C510 1.378 . S
C512 C513 1.367 . S
C513 C512 1.367 . S
C513 C515 1.433 . S
C514 C510 1.350 . S
C514 C511 1.463 . S
C514 N518 1.427 . S
C515 H505 0.929 . S
C515 C513 1.433 . S
C515 N518 1.384 . S
C516 H507 0.929 . S
C516 C508 1.378 . S
C516 C511 1.350 . S
C517 H504 0.929 . S
C517 C509 1.433 . S
C517 N519 1.384 . S
N518 C514 1.427 . S
N518 C515 1.384 . S
N519 C511 1.427 . S
N519 C517 1.384 . S
H520 C526 0.930 . S
H521 C530 0.930 . S
H522 C535 0.929 . S
H523 C533 0.929 . S
H524 C528 0.929 . S
H525 C534 0.929 . S
C526 H520 0.930 . S
C526 C527 1.367 . S
C526 C534 1.378 . S
C527 C526 1.367 . S
C527 C535 1.433 . S
C528 H524 0.929 . S
C528 C530 1.378 . S
C528 C532 1.350 . S
C529 C532 1.463 . S
C529 C534 1.350 . S
C529 N537 1.427 . S
C530 H521 0.930 . S
C530 C528 1.378 . S
C530 C531 1.367 . S
C531 C530 1.367 . S
C531 C533 1.433 . S
C532 C528 1.350 . S
C532 C529 1.463 . S
C532 N536 1.427 . S
C533 H523 0.929 . S
C533 C531 1.433 . S
C533 N536 1.384 . S
C534 H525 0.929 . S
C534 C526 1.378 . S
C534 C529 1.350 . S
C535 H522 0.929 . S
C535 C527 1.433 . S
C535 N537 1.384 . S
N536 C532 1.427 . S
N536 C533 1.384 . S
N537 C529 1.427 . S
N537 C535 1.384 . S
H538 C544 0.930 . S
H539 C548 0.930 . S
H540 C553 0.929 . S
H541 C551 0.929 . S
H542 C546 0.929 . S
H543 C552 0.929 . S
C544 H538 0.930 . S
C544 C545 1.367 . S
C544 C552 1.378 . S
C545 C544 1.367 . S
C545 C553 1.433 . S
C546 H542 0.929 . S
C546 C548 1.378 . S
C546 C550 1.350 . S
C547 C550 1.463 . S
C547 C552 1.350 . S
C547 N555 1.427 . S
C548 H539 0.930 . S
C548 C546 1.378 . S
C548 C549 1.367 . S
C549 C548 1.367 . S
C549 C551 1.433 . S
C550 C546 1.350 . S
C550 C547 1.463 . S
C550 N554 1.427 . S
C551 H541 0.929 . S
C551 C549 1.433 . S
C551 N554 1.384 . S
C552 H543 0.929 . S
C552 C544 1.378 . S
C552 C547 1.350 . S
C553 H540 0.929 . S
C553 C545 1.433 . S
C553 N555 1.384 . S
N554 C550 1.427 . S
N554 C551 1.384 . S
N555 C547 1.427 . S
N555 C553 1.384 . S
H556 C562 0.930 . S
H557 C566 0.930 . S
H558 C571 0.929 . S
H559 C569 0.929 . S
H560 C564 0.929 . S
H561 C570 0.929 . S
C562 H556 0.930 . S
C562 C563 1.367 . S
C562 C570 1.378 . S
C563 C562 1.367 . S
C563 C571 1.433 . S
C564 H560 0.929 . S
C564 C566 1.378 . S
C564 C568 1.350 . S
C565 C568 1.463 . S
C565 C570 1.350 . S
C565 N573 1.427 . S
C566 H557 0.930 . S
C566 C564 1.378 . S
C566 C567 1.367 . S
C567 C566 1.367 . S
C567 C569 1.433 . S
C568 C564 1.350 . S
C568 C565 1.463 . S
C568 N572 1.427 . S
C569 H559 0.929 . S
C569 C567 1.433 . S
C569 N572 1.384 . S
C570 H561 0.929 . S
C570 C562 1.378 . S
C570 C565 1.350 . S
C571 H558 0.929 . S
C571 C563 1.433 . S
C571 N573 1.384 . S
N572 C568 1.427 . S
N572 C569 1.384 . S
N573 C565 1.427 . S
N573 C571 1.384 . S
H574 C580 0.930 . S
H575 C584 0.930 . S
H576 C589 0.929 . S
H577 C587 0.929 . S
H578 C582 0.929 . S
H579 C588 0.929 . S
C580 H574 0.930 . S
C580 C581 1.367 . S
C580 C588 1.378 . S
C581 C580 1.367 . S
C581 C589 1.433 . S
C582 H578 0.929 . S
C582 C584 1.378 . S
C582 C586 1.350 . S
C583 C586 1.463 . S
C583 C588 1.350 . S
C583 N591 1.427 . S
C584 H575 0.930 . S
C584 C582 1.378 . S
C584 C585 1.367 . S
C585 C584 1.367 . S
C585 C587 1.433 . S
C586 C582 1.350 . S
C586 C583 1.463 . S
C586 N590 1.427 . S
C587 H577 0.929 . S
C587 C585 1.433 . S
C587 N590 1.384 . S
C588 H579 0.929 . S
C588 C580 1.378 . S
C588 C583 1.350 . S
C589 H576 0.929 . S
C589 C581 1.433 . S
C589 N591 1.384 . S
N590 C586 1.427 . S
N590 C587 1.384 . S
N591 C583 1.427 . S
N591 C589 1.384 . S
H592 C598 0.930 . S
H593 C602 0.930 . S
H594 C607 0.929 . S
H595 C605 0.929 . S
H596 C600 0.929 . S
H597 C606 0.929 . S
C598 H592 0.930 . S
C598 C599 1.367 . S
C598 C606 1.378 . S
C599 C598 1.367 . S
C599 C607 1.433 . S
C600 H596 0.929 . S
C600 C602 1.378 . S
C600 C604 1.350 . S
C601 C604 1.463 . S
C601 C606 1.350 . S
C601 N609 1.427 . S
C602 H593 0.930 . S
C602 C600 1.378 . S
C602 C603 1.367 . S
C603 C602 1.367 . S
C603 C605 1.433 . S
C604 C600 1.350 . S
C604 C601 1.463 . S
C604 N608 1.427 . S
C605 H595 0.929 . S
C605 C603 1.433 . S
C605 N608 1.384 . S
C606 H597 0.929 . S
C606 C598 1.378 . S
C606 C601 1.350 . S
C607 H594 0.929 . S
C607 C599 1.433 . S
C607 N609 1.384 . S
N608 C604 1.427 . S
N608 C605 1.384 . S
N609 C601 1.427 . S
N609 C607 1.384 . S
H610 C616 0.930 . S
H611 C620 0.930 . S
H612 C625 0.929 . S
H613 C623 0.929 . S
H614 C618 0.929 . S
H615 C624 0.929 . S
C616 H610 0.930 . S
C616 C617 1.367 . S
C616 C624 1.378 . S
C617 C616 1.367 . S
C617 C625 1.433 . S
C618 H614 0.929 . S
C618 C620 1.378 . S
C618 C622 1.350 . S
C619 C622 1.463 . S
C619 C624 1.350 . S
C619 N627 1.427 . S
C620 H611 0.930 . S
C620 C618 1.378 . S
C620 C621 1.367 . S
C621 C620 1.367 . S
C621 C623 1.433 . S
C622 C618 1.350 . S
C622 C619 1.463 . S
C622 N626 1.427 . S
C623 H613 0.929 . S
C623 C621 1.433 . S
C623 N626 1.384 . S
C624 H615 0.929 . S
C624 C616 1.378 . S
C624 C619 1.350 . S
C625 H612 0.929 . S
C625 C617 1.433 . S
C625 N627 1.384 . S
N626 C622 1.427 . S
N626 C623 1.384 . S
N627 C619 1.427 . S
N627 C625 1.384 . S
H628 C634 0.930 . S
H629 C638 0.930 . S
H630 C643 0.929 . S
H631 C641 0.929 . S
H632 C636 0.929 . S
H633 C642 0.929 . S
C634 H628 0.930 . S
C634 C635 1.367 . S
C634 C642 1.378 . S
C635 C634 1.367 . S
C635 C643 1.433 . S
C636 H632 0.929 . S
C636 C638 1.378 . S
C636 C640 1.350 . S
C637 C640 1.463 . S
C637 C642 1.350 . S
C637 N645 1.427 . S
C638 H629 0.930 . S
C638 C636 1.378 . S
C638 C639 1.367 . S
C639 C638 1.367 . S
C639 C641 1.433 . S
C640 C636 1.350 . S
C640 C637 1.463 . S
C640 N644 1.427 . S
C641 H631 0.929 . S
C641 C639 1.433 . S
C641 N644 1.384 . S
C642 H633 0.929 . S
C642 C634 1.378 . S
C642 C637 1.350 . S
C643 H630 0.929 . S
C643 C635 1.433 . S
C643 N645 1.384 . S
N644 C640 1.427 . S
N644 C641 1.384 . S
N645 C637 1.427 . S
N645 C643 1.384 . S
H646 C652 0.930 . S
H647 C656 0.930 . S
H648 C661 0.929 . S
H649 C659 0.929 . S
H650 C654 0.929 . S
H651 C660 0.929 . S
C652 H646 0.930 . S
C652 C653 1.367 . S
C652 C660 1.378 . S
C653 C652 1.367 . S
C653 C661 1.433 . S
C654 H650 0.929 . S
C654 C656 1.378 . S
C654 C658 1.350 . S
C655 C658 1.463 . S
C655 C660 1.350 . S
C655 N663 1.427 . S
C656 H647 0.930 . S
C656 C654 1.378 . S
C656 C657 1.367 . S
C657 C656 1.367 . S
C657 C659 1.433 . S
C658 C654 1.350 . S
C658 C655 1.463 . S
C658 N662 1.427 . S
C659 H649 0.929 . S
C659 C657 1.433 . S
C659 N662 1.384 . S
C660 H651 0.929 . S
C660 C652 1.378 . S
C660 C655 1.350 . S
C661 H648 0.929 . S
C661 C653 1.433 . S
C661 N663 1.384 . S
N662 C658 1.427 . S
N662 C659 1.384 . S
N663 C655 1.427 . S
N663 C661 1.384 . S
H664 C670 0.930 . S
H665 C674 0.930 . S
H666 C679 0.929 . S
H667 C677 0.929 . S
H668 C672 0.929 . S
H669 C678 0.929 . S
C670 H664 0.930 . S
C670 C671 1.367 . S
C670 C678 1.378 . S
C671 C670 1.367 . S
C671 C679 1.433 . S
C672 H668 0.929 . S
C672 C674 1.378 . S
C672 C676 1.350 . S
C673 C676 1.463 . S
C673 C678 1.350 . S
C673 N681 1.427 . S
C674 H665 0.930 . S
C674 C672 1.378 . S
C674 C675 1.367 . S
C675 C674 1.367 . S
C675 C677 1.433 . S
C676 C672 1.350 . S
C676 C673 1.463 . S
C676 N680 1.427 . S
C677 H667 0.929 . S
C677 C675 1.433 . S
C677 N680 1.384 . S
C678 H669 0.929 . S
C678 C670 1.378 . S
C678 C673 1.350 . S
C679 H666 0.929 . S
C679 C671 1.433 . S
C679 N681 1.384 . S
N680 C676 1.427 . S
N680 C677 1.384 . S
N681 C673 1.427 . S
N681 C679 1.384 . S
H682 C688 0.930 . S
H683 C692 0.930 . S
H684 C697 0.929 . S
H685 C695 0.929 . S
H686 C690 0.929 . S
H687 C696 0.929 . S
C688 H682 0.930 . S
C688 C689 1.367 . S
C688 C696 1.378 . S
C689 C688 1.367 . S
C689 C697 1.433 . S
C690 H686 0.929 . S
C690 C692 1.378 . S
C690 C694 1.350 . S
C691 C694 1.463 . S
C691 C696 1.350 . S
C691 N699 1.427 . S
C692 H683 0.930 . S
C692 C690 1.378 . S
C692 C693 1.367 . S
C693 C692 1.367 . S
C693 C695 1.433 . S
C694 C690 1.350 . S
C694 C691 1.463 . S
C694 N698 1.427 . S
C695 H685 0.929 . S
C695 C693 1.433 . S
C695 N698 1.384 . S
C696 H687 0.929 . S
C696 C688 1.378 . S
C696 C691 1.350 . S
C697 H684 0.929 . S
C697 C689 1.433 . S
C697 N699 1.384 . S
N698 C694 1.427 . S
N698 C695 1.384 . S
N699 C691 1.427 . S
N699 C697 1.384 . S
H700 C706 0.930 . S
H701 C710 0.930 . S
H702 C715 0.929 . S
H703 C713 0.929 . S
H704 C708 0.929 . S
H705 C714 0.929 . S
C706 H700 0.930 . S
C706 C707 1.367 . S
C706 C714 1.378 . S
C707 C706 1.367 . S
C707 C715 1.433 . S
C708 H704 0.929 . S
C708 C710 1.378 . S
C708 C712 1.350 . S
C709 C712 1.463 . S
C709 C714 1.350 . S
C709 N717 1.427 . S
C710 H701 0.930 . S
C710 C708 1.378 . S
C710 C711 1.367 . S
C711 C710 1.367 . S
C711 C713 1.433 . S
C712 C708 1.350 . S
C712 C709 1.463 . S
C712 N716 1.427 . S
C713 H703 0.929 . S
C713 C711 1.433 . S
C713 N716 1.384 . S
C714 H705 0.929 . S
C714 C706 1.378 . S
C714 C709 1.350 . S
C715 H702 0.929 . S
C715 C707 1.433 . S
C715 N717 1.384 . S
N716 C712 1.427 . S
N716 C713 1.384 . S
N717 C709 1.427 . S
N717 C715 1.384 . S
H718 C724 0.930 . S
H719 C728 0.930 . S
H720 C733 0.929 . S
H721 C731 0.929 . S
H722 C726 0.929 . S
H723 C732 0.929 . S
C724 H718 0.930 . S
C724 C725 1.367 . S
C724 C732 1.378 . S
C725 C724 1.367 . S
C725 C733 1.433 . S
C726 H722 0.929 . S
C726 C728 1.378 . S
C726 C730 1.350 . S
C727 C730 1.463 . S
C727 C732 1.350 . S
C727 N735 1.427 . S
C728 H719 0.930 . S
C728 C726 1.378 . S
C728 C729 1.367 . S
C729 C728 1.367 . S
C729 C731 1.433 . S
C730 C726 1.350 . S
C730 C727 1.463 . S
C730 N734 1.427 . S
C731 H721 0.929 . S
C731 C729 1.433 . S
C731 N734 1.384 . S
C732 H723 0.929 . S
C732 C724 1.378 . S
C732 C727 1.350 . S
C733 H720 0.929 . S
C733 C725 1.433 . S
C733 N735 1.384 . S
N734 C730 1.427 . S
N734 C731 1.384 . S
N735 C727 1.427 . S
N735 C733 1.384 . S
H736 C742 0.930 . S
H737 C746 0.930 . S
H738 C751 0.929 . S
H739 C749 0.929 . S
H740 C744 0.929 . S
H741 C750 0.929 . S
C742 H736 0.930 . S
C742 C743 1.367 . S
C742 C750 1.378 . S
C743 C742 1.367 . S
C743 C751 1.433 . S
C744 H740 0.929 . S
C744 C746 1.378 . S
C744 C748 1.350 . S
C745 C748 1.463 . S
C745 C750 1.350 . S
C745 N753 1.427 . S
C746 H737 0.930 . S
C746 C744 1.378 . S
C746 C747 1.367 . S
C747 C746 1.367 . S
C747 C749 1.433 . S
C748 C744 1.350 . S
C748 C745 1.463 . S
C748 N752 1.427 . S
C749 H739 0.929 . S
C749 C747 1.433 . S
C749 N752 1.384 . S
C750 H741 0.929 . S
C750 C742 1.378 . S
C750 C745 1.350 . S
C751 H738 0.929 . S
C751 C743 1.433 . S
C751 N753 1.384 . S
N752 C748 1.427 . S
N752 C749 1.384 . S
N753 C745 1.427 . S
N753 C751 1.384 . S
H754 C760 0.930 . S
H755 C764 0.930 1_455 S
H756 C769 0.929 . S
H757 C767 0.929 . S
H758 C762 0.929 . S
H759 C768 0.929 . S
C760 H754 0.930 . S
C760 C761 1.367 . S
C760 C768 1.378 . S
C761 C760 1.367 . S
C761 C769 1.433 . S
C762 H758 0.929 . S
C762 C764 1.378 . S
C762 C766 1.350 . S
C763 C766 1.463 . S
C763 C768 1.350 . S
C763 N771 1.427 . S
C764 H755 0.930 1_655 S
C764 C762 1.378 . S
C764 C765 1.367 . S
C765 C764 1.367 . S
C765 C767 1.433 . S
C766 C762 1.350 . S
C766 C763 1.463 . S
C766 N770 1.427 . S
C767 H757 0.929 . S
C767 C765 1.433 . S
C767 N770 1.384 . S
C768 H759 0.929 . S
C768 C760 1.378 . S
C768 C763 1.350 . S
C769 H756 0.929 . S
C769 C761 1.433 . S
C769 N771 1.384 . S
N770 C766 1.427 . S
N770 C767 1.384 . S
N771 C763 1.427 . S
N771 C769 1.384 . S
H772 C778 0.930 . S
H773 C782 0.930 . S
H774 C787 0.929 . S
H775 C785 0.929 . S
H776 C780 0.929 . S
H777 C786 0.929 . S
C778 H772 0.930 . S
C778 C779 1.367 . S
C778 C786 1.378 . S
C779 C778 1.367 . S
C779 C787 1.433 . S
C780 H776 0.929 . S
C780 C782 1.378 . S
C780 C784 1.350 . S
C781 C784 1.463 . S
C781 C786 1.350 . S
C781 N789 1.427 . S
C782 H773 0.930 . S
C782 C780 1.378 . S
C782 C783 1.367 . S
C783 C782 1.367 . S
C783 C785 1.433 . S
C784 C780 1.350 . S
C784 C781 1.463 . S
C784 N788 1.427 . S
C785 H775 0.929 . S
C785 C783 1.433 . S
C785 N788 1.384 . S
C786 H777 0.929 . S
C786 C778 1.378 . S
C786 C781 1.350 . S
C787 H774 0.929 . S
C787 C779 1.433 . S
C787 N789 1.384 . S
N788 C784 1.427 . S
N788 C785 1.384 . S
N789 C781 1.427 . S
N789 C787 1.384 . S
H790 C796 0.930 . S
H791 C800 0.930 . S
H792 C805 0.929 . S
H793 C803 0.929 . S
H794 C798 0.929 . S
H795 C804 0.929 . S
C796 H790 0.930 . S
C796 C797 1.367 . S
C796 C804 1.378 . S
C797 C796 1.367 . S
C797 C805 1.433 . S
C798 H794 0.929 . S
C798 C800 1.378 . S
C798 C802 1.350 . S
C799 C802 1.463 . S
C799 C804 1.350 . S
C799 N807 1.427 . S
C800 H791 0.930 . S
C800 C798 1.378 . S
C800 C801 1.367 . S
C801 C800 1.367 . S
C801 C803 1.433 . S
C802 C798 1.350 . S
C802 C799 1.463 . S
C802 N806 1.427 . S
C803 H793 0.929 . S
C803 C801 1.433 . S
C803 N806 1.384 . S
C804 H795 0.929 . S
C804 C796 1.378 . S
C804 C799 1.350 . S
C805 H792 0.929 . S
C805 C797 1.433 . S
C805 N807 1.384 . S
N806 C802 1.427 . S
N806 C803 1.384 . S
N807 C799 1.427 . S
N807 C805 1.384 . S
H808 C814 0.930 . S
H809 C818 0.930 . S
H810 C823 0.929 . S
H811 C821 0.929 . S
H812 C816 0.929 . S
H813 C822 0.929 . S
C814 H808 0.930 . S
C814 C815 1.367 . S
C814 C822 1.378 . S
C815 C814 1.367 . S
C815 C823 1.433 . S
C816 H812 0.929 . S
C816 C818 1.378 . S
C816 C820 1.350 . S
C817 C820 1.463 . S
C817 C822 1.350 . S
C817 N825 1.427 . S
C818 H809 0.930 . S
C818 C816 1.378 . S
C818 C819 1.367 . S
C819 C818 1.367 . S
C819 C821 1.433 . S
C820 C816 1.350 . S
C820 C817 1.463 . S
C820 N824 1.427 . S
C821 H811 0.929 . S
C821 C819 1.433 . S
C821 N824 1.384 . S
C822 H813 0.929 . S
C822 C814 1.378 . S
C822 C817 1.350 . S
C823 H810 0.929 . S
C823 C815 1.433 . S
C823 N825 1.384 . S
N824 C820 1.427 . S
N824 C821 1.384 . S
N825 C817 1.427 . S
N825 C823 1.384 . S
H826 C832 0.930 . S
H827 C836 0.930 . S
H828 C841 0.929 . S
H829 C839 0.929 . S
H830 C834 0.929 . S
H831 C840 0.929 . S
C832 H826 0.930 . S
C832 C833 1.367 . S
C832 C840 1.378 . S
C833 C832 1.367 . S
C833 C841 1.433 . S
C834 H830 0.929 . S
C834 C836 1.378 . S
C834 C838 1.350 . S
C835 C838 1.463 . S
C835 C840 1.350 . S
C835 N843 1.427 . S
C836 H827 0.930 . S
C836 C834 1.378 . S
C836 C837 1.367 . S
C837 C836 1.367 . S
C837 C839 1.433 . S
C838 C834 1.350 . S
C838 C835 1.463 . S
C838 N842 1.427 . S
C839 H829 0.929 . S
C839 C837 1.433 . S
C839 N842 1.384 . S
C840 H831 0.929 . S
C840 C832 1.378 . S
C840 C835 1.350 . S
C841 H828 0.929 . S
C841 C833 1.433 . S
C841 N843 1.384 . S
N842 C838 1.427 . S
N842 C839 1.384 . S
N843 C835 1.427 . S
N843 C841 1.384 . S
H844 C850 0.930 . S
H845 C854 0.930 . S
H846 C859 0.929 . S
H847 C857 0.929 . S
H848 C852 0.929 . S
H849 C858 0.929 . S
C850 H844 0.930 . S
C850 C851 1.367 . S
C850 C858 1.378 . S
C851 C850 1.367 . S
C851 C859 1.433 . S
C852 H848 0.929 . S
C852 C854 1.378 . S
C852 C856 1.350 . S
C853 C856 1.463 . S
C853 C858 1.350 . S
C853 N861 1.427 . S
C854 H845 0.930 . S
C854 C852 1.378 . S
C854 C855 1.367 . S
C855 C854 1.367 . S
C855 C857 1.433 . S
C856 C852 1.350 . S
C856 C853 1.463 . S
C856 N860 1.427 . S
C857 H847 0.929 . S
C857 C855 1.433 . S
C857 N860 1.384 . S
C858 H849 0.929 . S
C858 C850 1.378 . S
C858 C853 1.350 . S
C859 H846 0.929 . S
C859 C851 1.433 . S
C859 N861 1.384 . S
N860 C856 1.427 . S
N860 C857 1.384 . S
N861 C853 1.427 . S
N861 C859 1.384 . S
H862 C868 0.930 1_455 S
H863 C872 0.930 . S
H864 C877 0.929 . S
H865 C875 0.929 . S
H866 C870 0.929 . S
H867 C876 0.929 . S
C868 H862 0.930 1_655 S
C868 C869 1.367 . S
C868 C876 1.378 . S
C869 C868 1.367 . S
C869 C877 1.433 . S
C870 H866 0.929 . S
C870 C872 1.378 . S
C870 C874 1.350 . S
C871 C874 1.463 . S
C871 C876 1.350 . S
C871 N879 1.427 . S
C872 H863 0.930 . S
C872 C870 1.378 . S
C872 C873 1.367 . S
C873 C872 1.367 . S
C873 C875 1.433 . S
C874 C870 1.350 . S
C874 C871 1.463 . S
C874 N878 1.427 . S
C875 H865 0.929 . S
C875 C873 1.433 . S
C875 N878 1.384 . S
C876 H867 0.929 . S
C876 C868 1.378 . S
C876 C871 1.350 . S
C877 H864 0.929 . S
C877 C869 1.433 . S
C877 N879 1.384 . S
N878 C874 1.427 . S
N878 C875 1.384 . S
N879 C871 1.427 . S
N879 C877 1.384 . S
H880 C886 0.930 . S
H881 C890 0.930 . S
H882 C895 0.929 . S
H883 C893 0.929 . S
H884 C888 0.929 . S
H885 C894 0.929 . S
C886 H880 0.930 . S
C886 C887 1.367 . S
C886 C894 1.378 . S
C887 C886 1.367 . S
C887 C895 1.433 . S
C888 H884 0.929 . S
C888 C890 1.378 . S
C888 C892 1.350 . S
C889 C892 1.463 . S
C889 C894 1.350 . S
C889 N897 1.427 . S
C890 H881 0.930 . S
C890 C888 1.378 . S
C890 C891 1.367 . S
C891 C890 1.367 . S
C891 C893 1.433 . S
C892 C888 1.350 . S
C892 C889 1.463 . S
C892 N896 1.427 . S
C893 H883 0.929 . S
C893 C891 1.433 . S
C893 N896 1.384 . S
C894 H885 0.929 . S
C894 C886 1.378 . S
C894 C889 1.350 . S
C895 H882 0.929 . S
C895 C887 1.433 . S
C895 N897 1.384 . S
N896 C892 1.427 . S
N896 C893 1.384 . S
N897 C889 1.427 . S
N897 C895 1.384 . S
H898 C904 0.930 1_655 S
H899 C908 0.930 . S
H900 C913 0.929 . S
H901 C911 0.929 . S
H902 C906 0.929 . S
H903 C912 0.929 . S
C904 H898 0.930 1_455 S
C904 C905 1.367 . S
C904 C912 1.378 . S
C905 C904 1.367 . S
C905 C913 1.433 . S
C906 H902 0.929 . S
C906 C908 1.378 . S
C906 C910 1.350 . S
C907 C910 1.463 . S
C907 C912 1.350 . S
C907 N915 1.427 . S
C908 H899 0.930 . S
C908 C906 1.378 . S
C908 C909 1.367 . S
C909 C908 1.367 . S
C909 C911 1.433 . S
C910 C906 1.350 . S
C910 C907 1.463 . S
C910 N914 1.427 . S
C911 H901 0.929 . S
C911 C909 1.433 . S
C911 N914 1.384 . S
C912 H903 0.929 . S
C912 C904 1.378 . S
C912 C907 1.350 . S
C913 H900 0.929 . S
C913 C905 1.433 . S
C913 N915 1.384 . S
N914 C910 1.427 . S
N914 C911 1.384 . S
N915 C907 1.427 . S
N915 C913 1.384 . S
H916 C922 0.930 . S
H917 C926 0.930 . S
H918 C931 0.929 . S
H919 C929 0.929 . S
H920 C924 0.929 . S
H921 C930 0.929 . S
C922 H916 0.930 . S
C922 C923 1.367 . S
C922 C930 1.378 . S
C923 C922 1.367 . S
C923 C931 1.433 . S
C924 H920 0.929 . S
C924 C926 1.378 . S
C924 C928 1.350 . S
C925 C928 1.463 . S
C925 C930 1.350 . S
C925 N933 1.427 . S
C926 H917 0.930 . S
C926 C924 1.378 . S
C926 C927 1.367 . S
C927 C926 1.367 . S
C927 C929 1.433 . S
C928 C924 1.350 . S
C928 C925 1.463 . S
C928 N932 1.427 . S
C929 H919 0.929 . S
C929 C927 1.433 . S
C929 N932 1.384 . S
C930 H921 0.929 . S
C930 C922 1.378 . S
C930 C925 1.350 . S
C931 H918 0.929 . S
C931 C923 1.433 . S
C931 N933 1.384 . S
N932 C928 1.427 . S
N932 C929 1.384 . S
N933 C925 1.427 . S
N933 C931 1.384 . S
H934 C940 0.930 . S
H935 C944 0.930 . S
H936 C949 0.929 . S
H937 C947 0.929 . S
H938 C942 0.929 . S
H939 C948 0.929 . S
C940 H934 0.930 . S
C940 C941 1.367 . S
C940 C948 1.378 . S
C941 C940 1.367 . S
C941 C949 1.433 . S
C942 H938 0.929 . S
C942 C944 1.378 . S
C942 C946 1.350 . S
C943 C946 1.463 . S
C943 C948 1.350 . S
C943 N951 1.427 . S
C944 H935 0.930 . S
C944 C942 1.378 . S
C944 C945 1.367 . S
C945 C944 1.367 . S
C945 C947 1.433 . S
C946 C942 1.350 . S
C946 C943 1.463 . S
C946 N950 1.427 . S
C947 H937 0.929 . S
C947 C945 1.433 . S
C947 N950 1.384 . S
C948 H939 0.929 . S
C948 C940 1.378 . S
C948 C943 1.350 . S
C949 H936 0.929 . S
C949 C941 1.433 . S
C949 N951 1.384 . S
N950 C946 1.427 . S
N950 C947 1.384 . S
N951 C943 1.427 . S
N951 C949 1.384 . S
H952 C958 0.930 . S
H953 C962 0.930 . S
H954 C967 0.929 . S
H955 C965 0.929 . S
H956 C960 0.929 . S
H957 C966 0.929 . S
C958 H952 0.930 . S
C958 C959 1.367 . S
C958 C966 1.378 . S
C959 C958 1.367 . S
C959 C967 1.433 . S
C960 H956 0.929 . S
C960 C962 1.378 . S
C960 C964 1.350 . S
C961 C964 1.463 . S
C961 C966 1.350 . S
C961 N969 1.427 . S
C962 H953 0.930 . S
C962 C960 1.378 . S
C962 C963 1.367 . S
C963 C962 1.367 . S
C963 C965 1.433 . S
C964 C960 1.350 . S
C964 C961 1.463 . S
C964 N968 1.427 . S
C965 H955 0.929 . S
C965 C963 1.433 . S
C965 N968 1.384 . S
C966 H957 0.929 . S
C966 C958 1.378 . S
C966 C961 1.350 . S
C967 H954 0.929 . S
C967 C959 1.433 . S
C967 N969 1.384 . S
N968 C964 1.427 . S
N968 C965 1.384 . S
N969 C961 1.427 . S
N969 C967 1.384 . S
H970 C976 0.930 . S
H971 C980 0.930 . S
H972 C985 0.929 . S
H973 C983 0.929 . S
H974 C978 0.929 . S
H975 C984 0.929 . S
C976 H970 0.930 . S
C976 C977 1.367 . S
C976 C984 1.378 . S
C977 C976 1.367 . S
C977 C985 1.433 . S
C978 H974 0.929 . S
C978 C980 1.378 . S
C978 C982 1.350 . S
C979 C982 1.463 . S
C979 C984 1.350 . S
C979 N987 1.427 . S
C980 H971 0.930 . S
C980 C978 1.378 . S
C980 C981 1.367 . S
C981 C980 1.367 . S
C981 C983 1.433 . S
C982 C978 1.350 . S
C982 C979 1.463 . S
C982 N986 1.427 . S
C983 H973 0.929 . S
C983 C981 1.433 . S
C983 N986 1.384 . S
C984 H975 0.929 . S
C984 C976 1.378 . S
C984 C979 1.350 . S
C985 H972 0.929 . S
C985 C977 1.433 . S
C985 N987 1.384 . S
N986 C982 1.427 . S
N986 C983 1.384 . S
N987 C979 1.427 . S
N987 C985 1.384 . S
H988 C994 0.930 . S
H989 C998 0.930 . S
H990 C1003 0.929 . S
H991 C1001 0.929 . S
H992 C996 0.929 . S
H993 C1002 0.929 . S
C994 H988 0.930 . S
C994 C995 1.367 . S
C994 C1002 1.378 . S
C995 C994 1.367 . S
C995 C1003 1.433 . S
C996 H992 0.929 . S
C996 C998 1.378 . S
C996 C1000 1.350 . S
C997 C1000 1.463 . S
C997 C1002 1.350 . S
C997 N1005 1.427 . S
C998 H989 0.930 . S
C998 C996 1.378 . S
C998 C999 1.367 . S
C999 C998 1.367 . S
C999 C1001 1.433 . S
C1000 C996 1.350 . S
C1000 C997 1.463 . S
C1000 N1004 1.427 . S
C1001 H991 0.929 . S
C1001 C999 1.433 . S
C1001 N1004 1.384 . S
C1002 H993 0.929 . S
C1002 C994 1.378 . S
C1002 C997 1.350 . S
C1003 H990 0.929 . S
C1003 C995 1.433 . S
C1003 N1005 1.384 . S
N1004 C1000 1.427 . S
N1004 C1001 1.384 . S
N1005 C997 1.427 . S
N1005 C1003 1.384 . S
H1006 C1012 0.930 . S
H1007 C1016 0.930 . S
H1008 C1021 0.929 . S
H1009 C1019 0.929 . S
H1010 C1014 0.929 . S
H1011 C1020 0.929 . S
C1012 H1006 0.930 . S
C1012 C1013 1.367 . S
C1012 C1020 1.378 . S
C1013 C1012 1.367 . S
C1013 C1021 1.433 . S
C1014 H1010 0.929 . S
C1014 C1016 1.378 . S
C1014 C1018 1.350 . S
C1015 C1018 1.463 . S
C1015 C1020 1.350 . S
C1015 N1023 1.427 . S
C1016 H1007 0.930 . S
C1016 C1014 1.378 . S
C1016 C1017 1.367 . S
C1017 C1016 1.367 . S
C1017 C1019 1.433 . S
C1018 C1014 1.350 . S
C1018 C1015 1.463 . S
C1018 N1022 1.427 . S
C1019 H1009 0.929 . S
C1019 C1017 1.433 . S
C1019 N1022 1.384 . S
C1020 H1011 0.929 . S
C1020 C1012 1.378 . S
C1020 C1015 1.350 . S
C1021 H1008 0.929 . S
C1021 C1013 1.433 . S
C1021 N1023 1.384 . S
N1022 C1018 1.427 . S
N1022 C1019 1.384 . S
N1023 C1015 1.427 . S
N1023 C1021 1.384 . S
H1024 C1030 0.930 . S
H1025 C1034 0.930 . S
H1026 C1039 0.929 . S
H1027 C1037 0.929 . S
H1028 C1032 0.929 . S
H1029 C1038 0.929 . S
C1030 H1024 0.930 . S
C1030 C1031 1.367 . S
C1030 C1038 1.378 . S
C1031 C1030 1.367 . S
C1031 C1039 1.433 . S
C1032 H1028 0.929 . S
C1032 C1034 1.378 . S
C1032 C1036 1.350 . S
C1033 C1036 1.463 . S
C1033 C1038 1.350 . S
C1033 N1041 1.427 . S
C1034 H1025 0.930 . S
C1034 C1032 1.378 . S
C1034 C1035 1.367 . S
C1035 C1034 1.367 . S
C1035 C1037 1.433 . S
C1036 C1032 1.350 . S
C1036 C1033 1.463 . S
C1036 N1040 1.427 . S
C1037 H1027 0.929 . S
C1037 C1035 1.433 . S
C1037 N1040 1.384 . S
C1038 H1029 0.929 . S
C1038 C1030 1.378 . S
C1038 C1033 1.350 . S
C1039 H1026 0.929 . S
C1039 C1031 1.433 . S
C1039 N1041 1.384 . S
N1040 C1036 1.427 . S
N1040 C1037 1.384 . S
N1041 C1033 1.427 . S
N1041 C1039 1.384 . S
H1042 C1048 0.930 . S
H1043 C1052 0.930 . S
H1044 C1057 0.929 . S
H1045 C1055 0.929 . S
H1046 C1050 0.929 . S
H1047 C1056 0.929 . S
C1048 H1042 0.930 . S
C1048 C1049 1.367 . S
C1048 C1056 1.378 . S
C1049 C1048 1.367 . S
C1049 C1057 1.433 . S
C1050 H1046 0.929 . S
C1050 C1052 1.378 . S
C1050 C1054 1.350 . S
C1051 C1054 1.463 . S
C1051 C1056 1.350 . S
C1051 N1059 1.427 . S
C1052 H1043 0.930 . S
C1052 C1050 1.378 . S
C1052 C1053 1.367 . S
C1053 C1052 1.367 . S
C1053 C1055 1.433 . S
C1054 C1050 1.350 . S
C1054 C1051 1.463 . S
C1054 N1058 1.427 . S
C1055 H1045 0.929 . S
C1055 C1053 1.433 . S
C1055 N1058 1.384 . S
C1056 H1047 0.929 . S
C1056 C1048 1.378 . S
C1056 C1051 1.350 . S
C1057 H1044 0.929 . S
C1057 C1049 1.433 . S
C1057 N1059 1.384 . S
N1058 C1054 1.427 . S
N1058 C1055 1.384 . S
N1059 C1051 1.427 . S
N1059 C1057 1.384 . S
H1060 C1066 0.930 . S
H1061 C1070 0.930 . S
H1062 C1075 0.929 . S
H1063 C1073 0.929 . S
H1064 C1068 0.929 . S
H1065 C1074 0.929 . S
C1066 H1060 0.930 . S
C1066 C1067 1.367 . S
C1066 C1074 1.378 . S
C1067 C1066 1.367 . S
C1067 C1075 1.433 . S
C1068 H1064 0.929 . S
C1068 C1070 1.378 . S
C1068 C1072 1.350 . S
C1069 C1072 1.463 . S
C1069 C1074 1.350 . S
C1069 N1077 1.427 . S
C1070 H1061 0.930 . S
C1070 C1068 1.378 . S
C1070 C1071 1.367 . S
C1071 C1070 1.367 . S
C1071 C1073 1.433 . S
C1072 C1068 1.350 . S
C1072 C1069 1.463 . S
C1072 N1076 1.427 . S
C1073 H1063 0.929 . S
C1073 C1071 1.433 . S
C1073 N1076 1.384 . S
C1074 H1065 0.929 . S
C1074 C1066 1.378 . S
C1074 C1069 1.350 . S
C1075 H1062 0.929 . S
C1075 C1067 1.433 . S
C1075 N1077 1.384 . S
N1076 C1072 1.427 . S
N1076 C1073 1.384 . S
N1077 C1069 1.427 . S
N1077 C1075 1.384 . S
H1078 C1084 0.930 . S
H1079 C1088 0.930 . S
H1080 C1093 0.929 . S
H1081 C1091 0.929 . S
H1082 C1086 0.929 . S
H1083 C1092 0.929 . S
C1084 H1078 0.930 . S
C1084 C1085 1.367 . S
C1084 C1092 1.378 . S
C1085 C1084 1.367 . S
C1085 C1093 1.433 . S
C1086 H1082 0.929 . S
C1086 C1088 1.378 . S
C1086 C1090 1.350 . S
C1087 C1090 1.463 . S
C1087 C1092 1.350 . S
C1087 N1095 1.427 . S
C1088 H1079 0.930 . S
C1088 C1086 1.378 . S
C1088 C1089 1.367 . S
C1089 C1088 1.367 . S
C1089 C1091 1.433 . S
C1090 C1086 1.350 . S
C1090 C1087 1.463 . S
C1090 N1094 1.427 . S
C1091 H1081 0.929 . S
C1091 C1089 1.433 . S
C1091 N1094 1.384 . S
C1092 H1083 0.929 . S
C1092 C1084 1.378 . S
C1092 C1087 1.350 . S
C1093 H1080 0.929 . S
C1093 C1085 1.433 . S
C1093 N1095 1.384 . S
N1094 C1090 1.427 . S
N1094 C1091 1.384 . S
N1095 C1087 1.427 . S
N1095 C1093 1.384 . S
H1096 C1102 0.930 . S
H1097 C1106 0.930 . S
H1098 C1111 0.929 . S
H1099 C1109 0.929 . S
H1100 C1104 0.929 . S
H1101 C1110 0.929 . S
C1102 H1096 0.930 . S
C1102 C1103 1.367 . S
C1102 C1110 1.378 . S
C1103 C1102 1.367 . S
C1103 C1111 1.433 . S
C1104 H1100 0.929 . S
C1104 C1106 1.378 . S
C1104 C1108 1.350 . S
C1105 C1108 1.463 . S
C1105 C1110 1.350 . S
C1105 N1113 1.427 . S
C1106 H1097 0.930 . S
C1106 C1104 1.378 . S
C1106 C1107 1.367 . S
C1107 C1106 1.367 . S
C1107 C1109 1.433 . S
C1108 C1104 1.350 . S
C1108 C1105 1.463 . S
C1108 N1112 1.427 . S
C1109 H1099 0.929 . S
C1109 C1107 1.433 . S
C1109 N1112 1.384 . S
C1110 H1101 0.929 . S
C1110 C1102 1.378 . S
C1110 C1105 1.350 . S
C1111 H1098 0.929 . S
C1111 C1103 1.433 . S
C1111 N1113 1.384 . S
N1112 C1108 1.427 . S
N1112 C1109 1.384 . S
N1113 C1105 1.427 . S
N1113 C1111 1.384 . S
H1114 C1120 0.930 . S
H1115 C1124 0.930 . S
H1116 C1129 0.929 . S
H1117 C1127 0.929 . S
H1118 C1122 0.929 . S
H1119 C1128 0.929 . S
C1120 H1114 0.930 . S
C1120 C1121 1.367 . S
C1120 C1128 1.378 . S
C1121 C1120 1.367 . S
C1121 C1129 1.433 . S
C1122 H1118 0.929 . S
C1122 C1124 1.378 . S
C1122 C1126 1.350 . S
C1123 C1126 1.463 . S
C1123 C1128 1.350 . S
C1123 N1131 1.427 . S
C1124 H1115 0.930 . S
C1124 C1122 1.378 . S
C1124 C1125 1.367 . S
C1125 C1124 1.367 . S
C1125 C1127 1.433 . S
C1126 C1122 1.350 . S
C1126 C1123 1.463 . S
C1126 N1130 1.427 . S
C1127 H1117 0.929 . S
C1127 C1125 1.433 . S
C1127 N1130 1.384 . S
C1128 H1119 0.929 . S
C1128 C1120 1.378 . S
C1128 C1123 1.350 . S
C1129 H1116 0.929 . S
C1129 C1121 1.433 . S
C1129 N1131 1.384 . S
N1130 C1126 1.427 . S
N1130 C1127 1.384 . S
N1131 C1123 1.427 . S
N1131 C1129 1.384 . S
H1132 C1138 0.930 . S
H1133 C1142 0.930 . S
H1134 C1147 0.929 . S
H1135 C1145 0.929 . S
H1136 C1140 0.929 . S
H1137 C1146 0.929 . S
C1138 H1132 0.930 . S
C1138 C1139 1.367 . S
C1138 C1146 1.378 . S
C1139 C1138 1.367 . S
C1139 C1147 1.433 . S
C1140 H1136 0.929 . S
C1140 C1142 1.378 . S
C1140 C1144 1.350 . S
C1141 C1144 1.463 . S
C1141 C1146 1.350 . S
C1141 N1149 1.427 . S
C1142 H1133 0.930 . S
C1142 C1140 1.378 . S
C1142 C1143 1.367 . S
C1143 C1142 1.367 . S
C1143 C1145 1.433 . S
C1144 C1140 1.350 . S
C1144 C1141 1.463 . S
C1144 N1148 1.427 . S
C1145 H1135 0.929 . S
C1145 C1143 1.433 . S
C1145 N1148 1.384 . S
C1146 H1137 0.929 . S
C1146 C1138 1.378 . S
C1146 C1141 1.350 . S
C1147 H1134 0.929 . S
C1147 C1139 1.433 . S
C1147 N1149 1.384 . S
N1148 C1144 1.427 . S
N1148 C1145 1.384 . S
N1149 C1141 1.427 . S
N1149 C1147 1.384 . S
H1150 C1156 0.930 . S
H1151 C1160 0.930 . S
H1152 C1165 0.929 . S
H1153 C1163 0.929 . S
H1154 C1158 0.929 . S
H1155 C1164 0.929 . S
C1156 H1150 0.930 . S
C1156 C1157 1.367 . S
C1156 C1164 1.378 . S
C1157 C1156 1.367 . S
C1157 C1165 1.433 . S
C1158 H1154 0.929 . S
C1158 C1160 1.378 . S
C1158 C1162 1.350 . S
C1159 C1162 1.463 . S
C1159 C1164 1.350 . S
C1159 N1167 1.427 . S
C1160 H1151 0.930 . S
C1160 C1158 1.378 . S
C1160 C1161 1.367 . S
C1161 C1160 1.367 . S
C1161 C1163 1.433 . S
C1162 C1158 1.350 . S
C1162 C1159 1.463 . S
C1162 N1166 1.427 . S
C1163 H1153 0.929 . S
C1163 C1161 1.433 . S
C1163 N1166 1.384 . S
C1164 H1155 0.929 . S
C1164 C1156 1.378 . S
C1164 C1159 1.350 . S
C1165 H1152 0.929 . S
C1165 C1157 1.433 . S
C1165 N1167 1.384 . S
N1166 C1162 1.427 . S
N1166 C1163 1.384 . S
N1167 C1159 1.427 . S
N1167 C1165 1.384 . S
H1168 C1174 0.930 . S
H1169 C1178 0.930 . S
H1170 C1183 0.929 . S
H1171 C1181 0.929 . S
H1172 C1176 0.929 . S
H1173 C1182 0.929 . S
C1174 H1168 0.930 . S
C1174 C1175 1.367 . S
C1174 C1182 1.378 . S
C1175 C1174 1.367 . S
C1175 C1183 1.433 . S
C1176 H1172 0.929 . S
C1176 C1178 1.378 . S
C1176 C1180 1.350 . S
C1177 C1180 1.463 . S
C1177 C1182 1.350 . S
C1177 N1185 1.427 . S
C1178 H1169 0.930 . S
C1178 C1176 1.378 . S
C1178 C1179 1.367 . S
C1179 C1178 1.367 . S
C1179 C1181 1.433 . S
C1180 C1176 1.350 . S
C1180 C1177 1.463 . S
C1180 N1184 1.427 . S
C1181 H1171 0.929 . S
C1181 C1179 1.433 . S
C1181 N1184 1.384 . S
C1182 H1173 0.929 . S
C1182 C1174 1.378 . S
C1182 C1177 1.350 . S
C1183 H1170 0.929 . S
C1183 C1175 1.433 . S
C1183 N1185 1.384 . S
N1184 C1180 1.427 . S
N1184 C1181 1.384 . S
N1185 C1177 1.427 . S
N1185 C1183 1.384 . S
H1186 C1192 0.930 . S
H1187 C1196 0.930 . S
H1188 C1201 0.929 . S
H1189 C1199 0.929 . S
H1190 C1194 0.929 . S
H1191 C1200 0.929 . S
C1192 H1186 0.930 . S
C1192 C1193 1.367 . S
C1192 C1200 1.378 . S
C1193 C1192 1.367 . S
C1193 C1201 1.433 . S
C1194 H1190 0.929 . S
C1194 C1196 1.378 . S
C1194 C1198 1.350 . S
C1195 C1198 1.463 . S
C1195 C1200 1.350 . S
C1195 N1203 1.427 . S
C1196 H1187 0.930 . S
C1196 C1194 1.378 . S
C1196 C1197 1.367 . S
C1197 C1196 1.367 . S
C1197 C1199 1.433 . S
C1198 C1194 1.350 . S
C1198 C1195 1.463 . S
C1198 N1202 1.427 . S
C1199 H1189 0.929 . S
C1199 C1197 1.433 . S
C1199 N1202 1.384 . S
C1200 H1191 0.929 . S
C1200 C1192 1.378 . S
C1200 C1195 1.350 . S
C1201 H1188 0.929 . S
C1201 C1193 1.433 . S
C1201 N1203 1.384 . S
N1202 C1198 1.427 . S
N1202 C1199 1.384 . S
N1203 C1195 1.427 . S
N1203 C1201 1.384 . S
H1204 C1210 0.930 . S
H1205 C1214 0.930 . S
H1206 C1219 0.929 . S
H1207 C1217 0.929 . S
H1208 C1212 0.929 . S
H1209 C1218 0.929 . S
C1210 H1204 0.930 . S
C1210 C1211 1.367 . S
C1210 C1218 1.378 . S
C1211 C1210 1.367 . S
C1211 C1219 1.433 . S
C1212 H1208 0.929 . S
C1212 C1214 1.378 . S
C1212 C1216 1.350 . S
C1213 C1216 1.463 . S
C1213 C1218 1.350 . S
C1213 N1221 1.427 . S
C1214 H1205 0.930 . S
C1214 C1212 1.378 . S
C1214 C1215 1.367 . S
C1215 C1214 1.367 . S
C1215 C1217 1.433 . S
C1216 C1212 1.350 . S
C1216 C1213 1.463 . S
C1216 N1220 1.427 . S
C1217 H1207 0.929 . S
C1217 C1215 1.433 . S
C1217 N1220 1.384 . S
C1218 H1209 0.929 . S
C1218 C1210 1.378 . S
C1218 C1213 1.350 . S
C1219 H1206 0.929 . S
C1219 C1211 1.433 . S
C1219 N1221 1.384 . S
N1220 C1216 1.427 . S
N1220 C1217 1.384 . S
N1221 C1213 1.427 . S
N1221 C1219 1.384 . S
H1222 C1228 0.930 . S
H1223 C1232 0.930 . S
H1224 C1237 0.929 . S
H1225 C1235 0.929 . S
H1226 C1230 0.929 . S
H1227 C1236 0.929 . S
C1228 H1222 0.930 . S
C1228 C1229 1.367 . S
C1228 C1236 1.378 . S
C1229 C1228 1.367 . S
C1229 C1237 1.433 . S
C1230 H1226 0.929 . S
C1230 C1232 1.378 . S
C1230 C1234 1.350 . S
C1231 C1234 1.463 . S
C1231 C1236 1.350 . S
C1231 N1239 1.427 . S
C1232 H1223 0.930 . S
C1232 C1230 1.378 . S
C1232 C1233 1.367 . S
C1233 C1232 1.367 . S
C1233 C1235 1.433 . S
C1234 C1230 1.350 . S
C1234 C1231 1.463 . S
C1234 N1238 1.427 . S
C1235 H1225 0.929 . S
C1235 C1233 1.433 . S
C1235 N1238 1.384 . S
C1236 H1227 0.929 . S
C1236 C1228 1.378 . S
C1236 C1231 1.350 . S
C1237 H1224 0.929 . S
C1237 C1229 1.433 . S
C1237 N1239 1.384 . S
N1238 C1234 1.427 . S
N1238 C1235 1.384 . S
N1239 C1231 1.427 . S
N1239 C1237 1.384 . S
H1240 C1246 0.930 . S
H1241 C1250 0.930 . S
H1242 C1255 0.929 . S
H1243 C1253 0.929 . S
H1244 C1248 0.929 . S
H1245 C1254 0.929 . S
C1246 H1240 0.930 . S
C1246 C1247 1.367 . S
C1246 C1254 1.378 . S
C1247 C1246 1.367 . S
C1247 C1255 1.433 . S
C1248 H1244 0.929 . S
C1248 C1250 1.378 . S
C1248 C1252 1.350 . S
C1249 C1252 1.463 . S
C1249 C1254 1.350 . S
C1249 N1257 1.427 . S
C1250 H1241 0.930 . S
C1250 C1248 1.378 . S
C1250 C1251 1.367 . S
C1251 C1250 1.367 . S
C1251 C1253 1.433 . S
C1252 C1248 1.350 . S
C1252 C1249 1.463 . S
C1252 N1256 1.427 . S
C1253 H1243 0.929 . S
C1253 C1251 1.433 . S
C1253 N1256 1.384 . S
C1254 H1245 0.929 . S
C1254 C1246 1.378 . S
C1254 C1249 1.350 . S
C1255 H1242 0.929 . S
C1255 C1247 1.433 . S
C1255 N1257 1.384 . S
N1256 C1252 1.427 . S
N1256 C1253 1.384 . S
N1257 C1249 1.427 . S
N1257 C1255 1.384 . S
H1258 C1264 0.930 . S
H1259 C1268 0.930 . S
H1260 C1273 0.929 . S
H1261 C1271 0.929 . S
H1262 C1266 0.929 . S
H1263 C1272 0.929 . S
C1264 H1258 0.930 . S
C1264 C1265 1.367 . S
C1264 C1272 1.378 . S
C1265 C1264 1.367 . S
C1265 C1273 1.433 . S
C1266 H1262 0.929 . S
C1266 C1268 1.378 . S
C1266 C1270 1.350 . S
C1267 C1270 1.463 . S
C1267 C1272 1.350 . S
C1267 N1275 1.427 . S
C1268 H1259 0.930 . S
C1268 C1266 1.378 . S
C1268 C1269 1.367 . S
C1269 C1268 1.367 . S
C1269 C1271 1.433 . S
C1270 C1266 1.350 . S
C1270 C1267 1.463 . S
C1270 N1274 1.427 . S
C1271 H1261 0.929 . S
C1271 C1269 1.433 . S
C1271 N1274 1.384 . S
C1272 H1263 0.929 . S
C1272 C1264 1.378 . S
C1272 C1267 1.350 . S
C1273 H1260 0.929 . S
C1273 C1265 1.433 . S
C1273 N1275 1.384 . S
N1274 C1270 1.427 . S
N1274 C1271 1.384 . S
N1275 C1267 1.427 . S
N1275 C1273 1.384 . S
H1276 C1282 0.930 . S
H1277 C1286 0.930 . S
H1278 C1291 0.929 . S
H1279 C1289 0.929 . S
H1280 C1284 0.929 . S
H1281 C1290 0.929 . S
C1282 H1276 0.930 . S
C1282 C1283 1.367 . S
C1282 C1290 1.378 . S
C1283 C1282 1.367 . S
C1283 C1291 1.433 . S
C1284 H1280 0.929 . S
C1284 C1286 1.378 . S
C1284 C1288 1.350 . S
C1285 C1288 1.463 . S
C1285 C1290 1.350 . S
C1285 N1293 1.427 . S
C1286 H1277 0.930 . S
C1286 C1284 1.378 . S
C1286 C1287 1.367 . S
C1287 C1286 1.367 . S
C1287 C1289 1.433 . S
C1288 C1284 1.350 . S
C1288 C1285 1.463 . S
C1288 N1292 1.427 . S
C1289 H1279 0.929 . S
C1289 C1287 1.433 . S
C1289 N1292 1.384 . S
C1290 H1281 0.929 . S
C1290 C1282 1.378 . S
C1290 C1285 1.350 . S
C1291 H1278 0.929 . S
C1291 C1283 1.433 . S
C1291 N1293 1.384 . S
N1292 C1288 1.427 . S
N1292 C1289 1.384 . S
N1293 C1285 1.427 . S
N1293 C1291 1.384 . S
H1294 C1300 0.930 . S
H1295 C1304 0.930 . S
H1296 C1309 0.929 . S
H1297 C1307 0.929 . S
H1298 C1302 0.929 . S
H1299 C1308 0.929 . S
C1300 H1294 0.930 . S
C1300 C1301 1.367 . S
C1300 C1308 1.378 . S
C1301 C1300 1.367 . S
C1301 C1309 1.433 . S
C1302 H1298 0.929 . S
C1302 C1304 1.378 . S
C1302 C1306 1.350 . S
C1303 C1306 1.463 . S
C1303 C1308 1.350 . S
C1303 N1311 1.427 . S
C1304 H1295 0.930 . S
C1304 C1302 1.378 . S
C1304 C1305 1.367 . S
C1305 C1304 1.367 . S
C1305 C1307 1.433 . S
C1306 C1302 1.350 . S
C1306 C1303 1.463 . S
C1306 N1310 1.427 . S
C1307 H1297 0.929 . S
C1307 C1305 1.433 . S
C1307 N1310 1.384 . S
C1308 H1299 0.929 . S
C1308 C1300 1.378 . S
C1308 C1303 1.350 . S
C1309 H1296 0.929 . S
C1309 C1301 1.433 . S
C1309 N1311 1.384 . S
N1310 C1306 1.427 . S
N1310 C1307 1.384 . S
N1311 C1303 1.427 . S
N1311 C1309 1.384 . S
H1312 C1318 0.930 . S
H1313 C1322 0.930 . S
H1314 C1327 0.929 . S
H1315 C1325 0.929 . S
H1316 C1320 0.929 . S
H1317 C1326 0.929 . S
C1318 H1312 0.930 . S
C1318 C1319 1.367 . S
C1318 C1326 1.378 . S
C1319 C1318 1.367 . S
C1319 C1327 1.433 . S
C1320 H1316 0.929 . S
C1320 C1322 1.378 . S
C1320 C1324 1.350 . S
C1321 C1324 1.463 . S
C1321 C1326 1.350 . S
C1321 N1329 1.427 . S
C1322 H1313 0.930 . S
C1322 C1320 1.378 . S
C1322 C1323 1.367 . S
C1323 C1322 1.367 . S
C1323 C1325 1.433 . S
C1324 C1320 1.350 . S
C1324 C1321 1.463 . S
C1324 N1328 1.427 . S
C1325 H1315 0.929 . S
C1325 C1323 1.433 . S
C1325 N1328 1.384 . S
C1326 H1317 0.929 . S
C1326 C1318 1.378 . S
C1326 C1321 1.350 . S
C1327 H1314 0.929 . S
C1327 C1319 1.433 . S
C1327 N1329 1.384 . S
N1328 C1324 1.427 . S
N1328 C1325 1.384 . S
N1329 C1321 1.427 . S
N1329 C1327 1.384 . S
H1330 C1336 0.930 . S
H1331 C1340 0.930 . S
H1332 C1345 0.929 . S
H1333 C1343 0.929 . S
H1334 C1338 0.929 . S
H1335 C1344 0.929 . S
C1336 H1330 0.930 . S
C1336 C1337 1.367 . S
C1336 C1344 1.378 . S
C1337 C1336 1.367 . S
C1337 C1345 1.433 . S
C1338 H1334 0.929 . S
C1338 C1340 1.378 . S
C1338 C1342 1.350 . S
C1339 C1342 1.463 . S
C1339 C1344 1.350 . S
C1339 N1347 1.427 . S
C1340 H1331 0.930 . S
C1340 C1338 1.378 . S
C1340 C1341 1.367 . S
C1341 C1340 1.367 . S
C1341 C1343 1.433 . S
C1342 C1338 1.350 . S
C1342 C1339 1.463 . S
C1342 N1346 1.427 . S
C1343 H1333 0.929 . S
C1343 C1341 1.433 . S
C1343 N1346 1.384 . S
C1344 H1335 0.929 . S
C1344 C1336 1.378 . S
C1344 C1339 1.350 . S
C1345 H1332 0.929 . S
C1345 C1337 1.433 . S
C1345 N1347 1.384 . S
N1346 C1342 1.427 . S
N1346 C1343 1.384 . S
N1347 C1339 1.427 . S
N1347 C1345 1.384 . S
H1348 C1354 0.930 . S
H1349 C1358 0.930 . S
H1350 C1363 0.929 . S
H1351 C1361 0.929 . S
H1352 C1356 0.929 . S
H1353 C1362 0.929 . S
C1354 H1348 0.930 . S
C1354 C1355 1.367 . S
C1354 C1362 1.378 . S
C1355 C1354 1.367 . S
C1355 C1363 1.433 . S
C1356 H1352 0.929 . S
C1356 C1358 1.378 . S
C1356 C1360 1.350 . S
C1357 C1360 1.463 . S
C1357 C1362 1.350 . S
C1357 N1365 1.427 . S
C1358 H1349 0.930 . S
C1358 C1356 1.378 . S
C1358 C1359 1.367 . S
C1359 C1358 1.367 . S
C1359 C1361 1.433 . S
C1360 C1356 1.350 . S
C1360 C1357 1.463 . S
C1360 N1364 1.427 . S
C1361 H1351 0.929 . S
C1361 C1359 1.433 . S
C1361 N1364 1.384 . S
C1362 H1353 0.929 . S
C1362 C1354 1.378 . S
C1362 C1357 1.350 . S
C1363 H1350 0.929 . S
C1363 C1355 1.433 . S
C1363 N1365 1.384 . S
N1364 C1360 1.427 . S
N1364 C1361 1.384 . S
N1365 C1357 1.427 . S
N1365 C1363 1.384 . S
H1366 C1372 0.930 . S
H1367 C1376 0.930 . S
H1368 C1381 0.929 . S
H1369 C1379 0.929 . S
H1370 C1374 0.929 . S
H1371 C1380 0.929 . S
C1372 H1366 0.930 . S
C1372 C1373 1.367 . S
C1372 C1380 1.378 . S
C1373 C1372 1.367 . S
C1373 C1381 1.433 . S
C1374 H1370 0.929 . S
C1374 C1376 1.378 . S
C1374 C1378 1.350 . S
C1375 C1378 1.463 1_556 S
C1375 C1380 1.350 . S
C1375 N1383 1.427 . S
C1376 H1367 0.930 . S
C1376 C1374 1.378 . S
C1376 C1377 1.367 . S
C1377 C1376 1.367 . S
C1377 C1379 1.433 . S
C1378 C1374 1.350 . S
C1378 C1375 1.463 1_554 S
C1378 N1382 1.427 . S
C1379 H1369 0.929 . S
C1379 C1377 1.433 . S
C1379 N1382 1.384 . S
C1380 H1371 0.929 . S
C1380 C1372 1.378 . S
C1380 C1375 1.350 . S
C1381 H1368 0.929 . S
C1381 C1373 1.433 . S
C1381 N1383 1.384 . S
N1382 C1378 1.427 . S
N1382 C1379 1.384 . S
N1383 C1375 1.427 . S
N1383 C1381 1.384 . S
H1384 C1390 0.930 . S
H1385 C1394 0.930 . S
H1386 C1399 0.929 . S
H1387 C1397 0.929 . S
H1388 C1392 0.929 . S
H1389 C1398 0.929 . S
C1390 H1384 0.930 . S
C1390 C1391 1.367 . S
C1390 C1398 1.378 . S
C1391 C1390 1.367 . S
C1391 C1399 1.433 . S
C1392 H1388 0.929 . S
C1392 C1394 1.378 . S
C1392 C1396 1.350 . S
C1393 C1396 1.463 . S
C1393 C1398 1.350 . S
C1393 N1401 1.427 . S
C1394 H1385 0.930 . S
C1394 C1392 1.378 . S
C1394 C1395 1.367 . S
C1395 C1394 1.367 . S
C1395 C1397 1.433 . S
C1396 C1392 1.350 . S
C1396 C1393 1.463 . S
C1396 N1400 1.427 . S
C1397 H1387 0.929 . S
C1397 C1395 1.433 . S
C1397 N1400 1.384 . S
C1398 H1389 0.929 . S
C1398 C1390 1.378 . S
C1398 C1393 1.350 . S
C1399 H1386 0.929 . S
C1399 C1391 1.433 . S
C1399 N1401 1.384 . S
N1400 C1396 1.427 . S
N1400 C1397 1.384 . S
N1401 C1393 1.427 . S
N1401 C1399 1.384 . S
H1402 C1408 0.930 . S
H1403 C1412 0.930 . S
H1404 C1417 0.929 . S
H1405 C1415 0.929 . S
H1406 C1410 0.929 . S
H1407 C1416 0.929 . S
C1408 H1402 0.930 . S
C1408 C1409 1.367 . S
C1408 C1416 1.378 . S
C1409 C1408 1.367 . S
C1409 C1417 1.433 . S
C1410 H1406 0.929 . S
C1410 C1412 1.378 . S
C1410 C1414 1.350 . S
C1411 C1414 1.463 . S
C1411 C1416 1.350 . S
C1411 N1419 1.427 . S
C1412 H1403 0.930 . S
C1412 C1410 1.378 . S
C1412 C1413 1.367 . S
C1413 C1412 1.367 . S
C1413 C1415 1.433 . S
C1414 C1410 1.350 . S
C1414 C1411 1.463 . S
C1414 N1418 1.427 . S
C1415 H1405 0.929 . S
C1415 C1413 1.433 . S
C1415 N1418 1.384 . S
C1416 H1407 0.929 . S
C1416 C1408 1.378 . S
C1416 C1411 1.350 . S
C1417 H1404 0.929 . S
C1417 C1409 1.433 . S
C1417 N1419 1.384 . S
N1418 C1414 1.427 . S
N1418 C1415 1.384 . S
N1419 C1411 1.427 . S
N1419 C1417 1.384 . S
H1420 C1426 0.930 . S
H1421 C1430 0.930 . S
H1422 C1435 0.929 . S
H1423 C1433 0.929 . S
H1424 C1428 0.929 . S
H1425 C1434 0.929 . S
C1426 H1420 0.930 . S
C1426 C1427 1.367 . S
C1426 C1434 1.378 . S
C1427 C1426 1.367 . S
C1427 C1435 1.433 . S
C1428 H1424 0.929 . S
C1428 C1430 1.378 . S
C1428 C1432 1.350 . S
C1429 C1432 1.463 . S
C1429 C1434 1.350 . S
C1429 N1437 1.427 . S
C1430 H1421 0.930 . S
C1430 C1428 1.378 . S
C1430 C1431 1.367 . S
C1431 C1430 1.367 . S
C1431 C1433 1.433 . S
C1432 C1428 1.350 . S
C1432 C1429 1.463 . S
C1432 N1436 1.427 . S
C1433 H1423 0.929 . S
C1433 C1431 1.433 . S
C1433 N1436 1.384 . S
C1434 H1425 0.929 . S
C1434 C1426 1.378 . S
C1434 C1429 1.350 . S
C1435 H1422 0.929 . S
C1435 C1427 1.433 . S
C1435 N1437 1.384 . S
N1436 C1432 1.427 . S
N1436 C1433 1.384 . S
N1437 C1429 1.427 . S
N1437 C1435 1.384 . S
H1438 C1444 0.930 . S
H1439 C1448 0.930 . S
H1440 C1453 0.929 . S
H1441 C1451 0.929 . S
H1442 C1446 0.929 . S
H1443 C1452 0.929 . S
C1444 H1438 0.930 . S
C1444 C1445 1.367 . S
C1444 C1452 1.378 . S
C1445 C1444 1.367 . S
C1445 C1453 1.433 . S
C1446 H1442 0.929 . S
C1446 C1448 1.378 . S
C1446 C1450 1.350 . S
C1447 C1450 1.463 1_554 S
C1447 C1452 1.350 . S
C1447 N1455 1.427 . S
C1448 H1439 0.930 . S
C1448 C1446 1.378 . S
C1448 C1449 1.367 . S
C1449 C1448 1.367 . S
C1449 C1451 1.433 . S
C1450 C1446 1.350 . S
C1450 C1447 1.463 1_556 S
C1450 N1454 1.427 . S
C1451 H1441 0.929 . S
C1451 C1449 1.433 . S
C1451 N1454 1.384 . S
C1452 H1443 0.929 . S
C1452 C1444 1.378 . S
C1452 C1447 1.350 . S
C1453 H1440 0.929 . S
C1453 C1445 1.433 . S
C1453 N1455 1.384 . S
N1454 C1450 1.427 . S
N1454 C1451 1.384 . S
N1455 C1447 1.427 . S
N1455 C1453 1.384 . S
H1456 C1462 0.930 . S
H1457 C1466 0.930 . S
H1458 C1471 0.929 . S
H1459 C1469 0.929 . S
H1460 C1464 0.929 . S
H1461 C1470 0.929 . S
C1462 H1456 0.930 . S
C1462 C1463 1.367 . S
C1462 C1470 1.378 . S
C1463 C1462 1.367 . S
C1463 C1471 1.433 . S
C1464 H1460 0.929 . S
C1464 C1466 1.378 . S
C1464 C1468 1.350 . S
C1465 C1468 1.463 1_565 S
C1465 C1470 1.350 . S
C1465 N1473 1.427 . S
C1466 H1457 0.930 . S
C1466 C1464 1.378 . S
C1466 C1467 1.367 . S
C1467 C1466 1.367 . S
C1467 C1469 1.433 . S
C1468 C1464 1.350 . S
C1468 C1465 1.463 1_545 S
C1468 N1472 1.427 . S
C1469 H1459 0.929 . S
C1469 C1467 1.433 . S
C1469 N1472 1.384 . S
C1470 H1461 0.929 . S
C1470 C1462 1.378 . S
C1470 C1465 1.350 . S
C1471 H1458 0.929 . S
C1471 C1463 1.433 . S
C1471 N1473 1.384 . S
N1472 C1468 1.427 . S
N1472 C1469 1.384 . S
N1473 C1465 1.427 . S
N1473 C1471 1.384 . S
H1474 C1480 0.930 . S
H1475 C1484 0.930 . S
H1476 C1489 0.929 . S
H1477 C1487 0.929 . S
H1478 C1482 0.929 . S
H1479 C1488 0.929 . S
C1480 H1474 0.930 . S
C1480 C1481 1.367 1_556 S
C1480 C1488 1.378 . S
C1481 C1480 1.367 1_554 S
C1481 C1489 1.433 . S
C1482 H1478 0.929 . S
C1482 C1484 1.378 . S
C1482 C1486 1.350 1_554 S
C1483 C1486 1.463 1_554 S
C1483 C1488 1.350 1_554 S
C1483 N1491 1.427 . S
C1484 H1475 0.930 . S
C1484 C1482 1.378 . S
C1484 C1485 1.367 1_554 S
C1485 C1484 1.367 1_556 S
C1485 C1487 1.433 . S
C1486 C1482 1.350 1_556 S
C1486 C1483 1.463 1_556 S
C1486 N1490 1.427 . S
C1487 H1477 0.929 . S
C1487 C1485 1.433 . S
C1487 N1490 1.384 . S
C1488 H1479 0.929 . S
C1488 C1480 1.378 . S
C1488 C1483 1.350 1_556 S
C1489 H1476 0.929 . S
C1489 C1481 1.433 . S
C1489 N1491 1.384 . S
N1490 C1486 1.427 . S
N1490 C1487 1.384 . S
N1491 C1483 1.427 . S
N1491 C1489 1.384 . S
H1492 C1498 0.930 . S
H1493 C1502 0.930 . S
H1494 C1507 0.929 . S
H1495 C1505 0.929 . S
H1496 C1500 0.929 . S
H1497 C1506 0.929 . S
C1498 H1492 0.930 . S
C1498 C1499 1.367 . S
C1498 C1506 1.378 . S
C1499 C1498 1.367 . S
C1499 C1507 1.433 . S
C1500 H1496 0.929 . S
C1500 C1502 1.378 . S
C1500 C1504 1.350 . S
C1501 C1504 1.463 1_545 S
C1501 C1506 1.350 . S
C1501 N1509 1.427 . S
C1502 H1493 0.930 . S
C1502 C1500 1.378 . S
C1502 C1503 1.367 . S
C1503 C1502 1.367 . S
C1503 C1505 1.433 . S
C1504 C1500 1.350 . S
C1504 C1501 1.463 1_565 S
C1504 N1508 1.427 . S
C1505 H1495 0.929 . S
C1505 C1503 1.433 . S
C1505 N1508 1.384 . S
C1506 H1497 0.929 . S
C1506 C1498 1.378 . S
C1506 C1501 1.350 . S
C1507 H1494 0.929 . S
C1507 C1499 1.433 . S
C1507 N1509 1.384 . S
N1508 C1504 1.427 . S
N1508 C1505 1.384 . S
N1509 C1501 1.427 . S
N1509 C1507 1.384 . S
H1510 C1516 0.930 . S
H1511 C1520 0.930 . S
H1512 C1525 0.929 . S
H1513 C1523 0.929 . S
H1514 C1518 0.929 . S
H1515 C1524 0.929 . S
C1516 H1510 0.930 . S
C1516 C1517 1.367 . S
C1516 C1524 1.378 . S
C1517 C1516 1.367 . S
C1517 C1525 1.433 . S
C1518 H1514 0.929 . S
C1518 C1520 1.378 . S
C1518 C1522 1.350 . S
C1519 C1522 1.463 . S
C1519 C1524 1.350 . S
C1519 N1527 1.427 . S
C1520 H1511 0.930 . S
C1520 C1518 1.378 . S
C1520 C1521 1.367 . S
C1521 C1520 1.367 . S
C1521 C1523 1.433 . S
C1522 C1518 1.350 . S
C1522 C1519 1.463 . S
C1522 N1526 1.427 . S
C1523 H1513 0.929 . S
C1523 C1521 1.433 . S
C1523 N1526 1.384 . S
C1524 H1515 0.929 . S
C1524 C1516 1.378 . S
C1524 C1519 1.350 . S
C1525 H1512 0.929 . S
C1525 C1517 1.433 . S
C1525 N1527 1.384 . S
N1526 C1522 1.427 . S
N1526 C1523 1.384 . S
N1527 C1519 1.427 . S
N1527 C1525 1.384 . S
H1528 C1534 0.930 . S
H1529 C1538 0.930 . S
H1530 C1543 0.929 . S
H1531 C1541 0.929 . S
H1532 C1536 0.929 . S
H1533 C1542 0.929 . S
C1534 H1528 0.930 . S
C1534 C1535 1.367 . S
C1534 C1542 1.378 . S
C1535 C1534 1.367 . S
C1535 C1543 1.433 . S
C1536 H1532 0.929 . S
C1536 C1538 1.378 . S
C1536 C1540 1.350 . S
C1537 C1540 1.463 1_545 S
C1537 C1542 1.350 . S
C1537 N1545 1.427 . S
C1538 H1529 0.930 . S
C1538 C1536 1.378 . S
C1538 C1539 1.367 . S
C1539 C1538 1.367 . S
C1539 C1541 1.433 . S
C1540 C1536 1.350 . S
C1540 C1537 1.463 1_565 S
C1540 N1544 1.427 . S
C1541 H1531 0.929 . S
C1541 C1539 1.433 . S
C1541 N1544 1.384 . S
C1542 H1533 0.929 . S
C1542 C1534 1.378 . S
C1542 C1537 1.350 . S
C1543 H1530 0.929 . S
C1543 C1535 1.433 . S
C1543 N1545 1.384 . S
N1544 C1540 1.427 . S
N1544 C1541 1.384 . S
N1545 C1537 1.427 . S
N1545 C1543 1.384 . S
H1546 C1552 0.930 . S
H1547 C1556 0.930 . S
H1548 C1561 0.929 . S
H1549 C1559 0.929 . S
H1550 C1554 0.929 . S
H1551 C1560 0.929 . S
C1552 H1546 0.930 . S
C1552 C1553 1.367 . S
C1552 C1560 1.378 . S
C1553 C1552 1.367 . S
C1553 C1561 1.433 . S
C1554 H1550 0.929 . S
C1554 C1556 1.378 . S
C1554 C1558 1.350 . S
C1555 C1558 1.463 1_554 S
C1555 C1560 1.350 . S
C1555 N1563 1.427 . S
C1556 H1547 0.930 . S
C1556 C1554 1.378 . S
C1556 C1557 1.367 . S
C1557 C1556 1.367 . S
C1557 C1559 1.433 . S
C1558 C1554 1.350 . S
C1558 C1555 1.463 1_556 S
C1558 N1562 1.427 . S
C1559 H1549 0.929 . S
C1559 C1557 1.433 . S
C1559 N1562 1.384 . S
C1560 H1551 0.929 . S
C1560 C1552 1.378 . S
C1560 C1555 1.350 . S
C1561 H1548 0.929 . S
C1561 C1553 1.433 . S
C1561 N1563 1.384 . S
N1562 C1558 1.427 . S
N1562 C1559 1.384 . S
N1563 C1555 1.427 . S
N1563 C1561 1.384 . S
H1564 C1570 0.930 . S
H1565 C1574 0.930 . S
H1566 C1579 0.929 . S
H1567 C1577 0.929 . S
H1568 C1572 0.929 . S
H1569 C1578 0.929 . S
C1570 H1564 0.930 . S
C1570 C1571 1.367 . S
C1570 C1578 1.378 . S
C1571 C1570 1.367 . S
C1571 C1579 1.433 . S
C1572 H1568 0.929 . S
C1572 C1574 1.378 . S
C1572 C1576 1.350 . S
C1573 C1576 1.463 1_545 S
C1573 C1578 1.350 . S
C1573 N1581 1.427 . S
C1574 H1565 0.930 . S
C1574 C1572 1.378 . S
C1574 C1575 1.367 . S
C1575 C1574 1.367 . S
C1575 C1577 1.433 . S
C1576 C1572 1.350 . S
C1576 C1573 1.463 1_565 S
C1576 N1580 1.427 . S
C1577 H1567 0.929 . S
C1577 C1575 1.433 . S
C1577 N1580 1.384 . S
C1578 H1569 0.929 . S
C1578 C1570 1.378 . S
C1578 C1573 1.350 . S
C1579 H1566 0.929 . S
C1579 C1571 1.433 . S
C1579 N1581 1.384 . S
N1580 C1576 1.427 . S
N1580 C1577 1.384 . S
N1581 C1573 1.427 . S
N1581 C1579 1.384 . S
H1582 C1588 0.930 . S
H1583 C1592 0.930 . S
H1584 C1597 0.929 . S
H1585 C1595 0.929 . S
H1586 C1590 0.929 . S
H1587 C1596 0.929 . S
C1588 H1582 0.930 . S
C1588 C1589 1.367 . S
C1588 C1596 1.378 . S
C1589 C1588 1.367 . S
C1589 C1597 1.433 . S
C1590 H1586 0.929 . S
C1590 C1592 1.378 . S
C1590 C1594 1.350 . S
C1591 C1594 1.463 . S
C1591 C1596 1.350 . S
C1591 N1599 1.427 . S
C1592 H1583 0.930 . S
C1592 C1590 1.378 . S
C1592 C1593 1.367 . S
C1593 C1592 1.367 . S
C1593 C1595 1.433 . S
C1594 C1590 1.350 . S
C1594 C1591 1.463 . S
C1594 N1598 1.427 . S
C1595 H1585 0.929 . S
C1595 C1593 1.433 . S
C1595 N1598 1.384 . S
C1596 H1587 0.929 . S
C1596 C1588 1.378 . S
C1596 C1591 1.350 . S
C1597 H1584 0.929 . S
C1597 C1589 1.433 . S
C1597 N1599 1.384 . S
N1598 C1594 1.427 . S
N1598 C1595 1.384 . S
N1599 C1591 1.427 . S
N1599 C1597 1.384 . S
C455 C7 1.110 . S
C459 C301 1.098 . S
C473 C315 1.111 . S
C477 C21 1.097 . S
C491 C35 1.103 . S
C495 C329 1.103 . S
C509 C287 1.099 . S
C513 C49 1.109 . S
C527 C63 1.097 . S
C531 C273 1.110 . S
C545 C77 1.104 . S
C549 C231 1.105 . S
C563 C245 1.098 . S
C567 C91 1.110 . S
C581 C105 1.103 . S
C585 C259 1.103 . S
C599 C119 1.102 . S
C603 C413 1.104 . S
C617 C133 1.100 . S
C621 C427 1.108 . S
C635 C441 1.107 . S
C639 C147 1.099 . S
C653 C399 1.099 . S
C657 C161 1.109 . S
C671 C175 1.099 . S
C675 C385 1.109 . S
C689 C343 1.099 . S
C693 C189 1.108 . S
C707 C203 1.100 . S
C711 C357 1.107 . S
C725 C371 1.111 . S
C729 C217 1.097 . S
C743 C9 1.520 . S
C747 C134 1.528 . S
C761 C23 1.520 . S
C765 C372 1.528 1_655 S
C779 C162 1.532 . S
C783 C37 1.518 . S
C797 C51 1.515 . S
C801 C344 1.531 . S
C815 C65 1.510 . S
C819 C218 1.536 . S
C833 C400 1.528 . S
C837 C79 1.521 . S
C851 C190 1.530 . S
C855 C93 1.520 . S
C869 C428 1.528 1_655 S
C873 C107 1.520 . S
C887 C121 1.510 . S
C891 C22 1.536 . S
C905 C260 1.528 1_455 S
C909 C135 1.521 . S
C923 C50 1.534 . S
C927 C149 1.511 . S
C941 C163 1.521 . S
C945 C232 1.529 . S
C959 C106 1.535 . S
C963 C177 1.512 . S
C977 C288 1.530 . S
C981 C191 1.518 . S
C995 C78 1.536 . S
C999 C205 1.510 . S
C1013 C219 1.513 . S
C1017 C316 1.535 1_455 S
C1031 C358 1.529 . S
C1035 C233 1.521 . S
C1049 C148 1.530 . S
C1053 C247 1.517 . S
C1067 C386 1.529 . S
C1071 C261 1.521 . S
C1085 C275 1.516 . S
C1089 C120 1.531 1_455 S
C1103 C442 1.536 . S
C1107 C289 1.510 . S
C1121 C176 1.535 1_455 S
C1125 C303 1.513 . S
C1139 C414 1.536 . S
C1143 C317 1.511 . S
C1157 C331 1.510 . S
C1161 C204 1.536 . S
C1175 C345 1.510 . S
C1179 C246 1.535 . S
C1193 C36 1.531 . S
C1197 C359 1.515 . S
C1211 C373 1.516 . S
C1215 C274 1.531 . S
C1229 C387 1.517 . S
C1233 C8 1.530 1_655 S
C1247 C401 1.520 . S
C1251 C330 1.528 . S
C1265 C64 1.529 1_655 S
C1269 C415 1.518 . S
C1283 C302 1.536 . S
C1287 C429 1.511 . S
C1301 C443 1.510 . S
C1305 C92 1.536 . S
C1319 C6 1.431 . S
C1323 C62 1.427 . S
C1337 C20 1.427 . S
C1341 C76 1.430 . S
C1355 C90 1.425 . S
C1359 C34 1.429 . S
C1373 C104 1.431 . S
C1377 C48 1.425 . S
C1391 C174 1.427 . S
C1395 C118 1.430 . S
C1409 C188 1.426 . S
C1413 C132 1.428 . S
C1427 C202 1.427 . S
C1431 C146 1.430 . S
C1445 C216 1.425 . S
C1449 C160 1.431 . S
C1463 C230 1.430 . S
C1467 C286 1.427 . S
C1481 C244 1.429 . S
C1485 C300 1.429 . S
C1499 C258 1.426 . S
C1503 C314 1.428 . S
C1517 C328 1.427 . S
C1521 C272 1.430 . S
C1535 C342 1.426 . S
C1539 C398 1.428 . S
C1553 C412 1.431 . S
C1557 C356 1.425 . S
C1571 C426 1.430 . S
C1575 C370 1.425 . S
C1589 C440 1.431 . S
C1593 C384 1.427 . S
