# Generated by pormake.
# Topology nfc, (4)-cn, num edge types: 1
# Building blocks:
#     Node 0, Type 0, BuildingBlock: ESEHIV_clean_sbu_0, # of connection points: 4
#     Node 1, Type 0, BuildingBlock: ESEHIV_clean_sbu_0, # of connection points: 4
#     Node 2, Type 0, BuildingBlock: ESEHIV_clean_sbu_0, # of connection points: 4
#     Node 3, Type 0, BuildingBlock: ESEHIV_clean_sbu_0, # of connection points: 4
#     Node 4, Type 0, BuildingBlock: ESEHIV_clean_sbu_0, # of connection points: 4
#     Node 5, Type 0, BuildingBlock: ESEHIV_clean_sbu_0, # of connection points: 4
#     Node 6, Type 0, BuildingBlock: ESEHIV_clean_sbu_0, # of connection points: 4
#     Node 7, Type 0, BuildingBlock: ESEHIV_clean_sbu_0, # of connection points: 4
#     Node 8, Type 0, BuildingBlock: ESEHIV_clean_sbu_0, # of connection points: 4
#     Node 9, Type 0, BuildingBlock: ESEHIV_clean_sbu_0, # of connection points: 4
#     Node 10, Type 0, BuildingBlock: ESEHIV_clean_sbu_0, # of connection points: 4
#     Node 11, Type 0, BuildingBlock: ESEHIV_clean_sbu_0, # of connection points: 4
#     Node 12, Type 0, BuildingBlock: ESEHIV_clean_sbu_0, # of connection points: 4
#     Node 13, Type 0, BuildingBlock: ESEHIV_clean_sbu_0, # of connection points: 4
#     Node 14, Type 0, BuildingBlock: ESEHIV_clean_sbu_0, # of connection points: 4
#     Node 15, Type 0, BuildingBlock: ESEHIV_clean_sbu_0, # of connection points: 4
#     Edge 16, Type (0, 0), BuildingBlock: AJUNOK_clean_linker_0, # of connection points: 2
#     Edge 17, Type (0, 0), BuildingBlock: AJUNOK_clean_linker_0, # of connection points: 2
#     Edge 18, Type (0, 0), BuildingBlock: AJUNOK_clean_linker_0, # of connection points: 2
#     Edge 19, Type (0, 0), BuildingBlock: AJUNOK_clean_linker_0, # of connection points: 2
#     Edge 20, Type (0, 0), BuildingBlock: AJUNOK_clean_linker_0, # of connection points: 2
#     Edge 21, Type (0, 0), BuildingBlock: AJUNOK_clean_linker_0, # of connection points: 2
#     Edge 22, Type (0, 0), BuildingBlock: AJUNOK_clean_linker_0, # of connection points: 2
#     Edge 23, Type (0, 0), BuildingBlock: AJUNOK_clean_linker_0, # of connection points: 2
#     Edge 24, Type (0, 0), BuildingBlock: AJUNOK_clean_linker_0, # of connection points: 2
#     Edge 25, Type (0, 0), BuildingBlock: AJUNOK_clean_linker_0, # of connection points: 2
#     Edge 26, Type (0, 0), BuildingBlock: AJUNOK_clean_linker_0, # of connection points: 2
#     Edge 27, Type (0, 0), BuildingBlock: AJUNOK_clean_linker_0, # of connection points: 2
#     Edge 28, Type (0, 0), BuildingBlock: AJUNOK_clean_linker_0, # of connection points: 2
#     Edge 29, Type (0, 0), BuildingBlock: AJUNOK_clean_linker_0, # of connection points: 2
#     Edge 30, Type (0, 0), BuildingBlock: AJUNOK_clean_linker_0, # of connection points: 2
#     Edge 31, Type (0, 0), BuildingBlock: AJUNOK_clean_linker_0, # of connection points: 2
#     Edge 32, Type (0, 0), BuildingBlock: AJUNOK_clean_linker_0, # of connection points: 2
#     Edge 33, Type (0, 0), BuildingBlock: AJUNOK_clean_linker_0, # of connection points: 2
#     Edge 34, Type (0, 0), BuildingBlock: AJUNOK_clean_linker_0, # of connection points: 2
#     Edge 35, Type (0, 0), BuildingBlock: AJUNOK_clean_linker_0, # of connection points: 2
#     Edge 36, Type (0, 0), BuildingBlock: AJUNOK_clean_linker_0, # of connection points: 2
#     Edge 37, Type (0, 0), BuildingBlock: AJUNOK_clean_linker_0, # of connection points: 2
#     Edge 38, Type (0, 0), BuildingBlock: AJUNOK_clean_linker_0, # of connection points: 2
#     Edge 39, Type (0, 0), BuildingBlock: AJUNOK_clean_linker_0, # of connection points: 2
#     Edge 40, Type (0, 0), BuildingBlock: AJUNOK_clean_linker_0, # of connection points: 2
#     Edge 41, Type (0, 0), BuildingBlock: AJUNOK_clean_linker_0, # of connection points: 2
#     Edge 42, Type (0, 0), BuildingBlock: AJUNOK_clean_linker_0, # of connection points: 2
#     Edge 43, Type (0, 0), BuildingBlock: AJUNOK_clean_linker_0, # of connection points: 2
#     Edge 44, Type (0, 0), BuildingBlock: AJUNOK_clean_linker_0, # of connection points: 2
#     Edge 45, Type (0, 0), BuildingBlock: AJUNOK_clean_linker_0, # of connection points: 2
#     Edge 46, Type (0, 0), BuildingBlock: AJUNOK_clean_linker_0, # of connection points: 2
#     Edge 47, Type (0, 0), BuildingBlock: AJUNOK_clean_linker_0, # of connection points: 2
# Relax obj value: 0.073
# Max RMSD: 0.212
# Mean RMSD: 0.162
data_MOF--net-nfc--node1-ESEHIV_clean_sbu_0--edge1-AJUNOK_clean_linker_0
_symmetry_space_group_name_H-M    P1
_symmetry_Int_Tables_number       1
_symmetry_cell_setting            triclinic
loop_
_symmetry_equiv_pos_as_xyz
'x, y, z'
_cell_length_a     28.952105
_cell_length_b     28.957309
_cell_length_c     22.982783
_cell_angle_alpha  88.350933
_cell_angle_beta   87.711718
_cell_angle_gamma 77.4042
loop_
_atom_site_label
_atom_site_type_symbol
_atom_site_fract_x
_atom_site_fract_y
_atom_site_fract_z
_atom_type_partial_charge
Cu0 Cu 0.08691 0.0585 0.98639 0.0
N1 N 0.07172 0.99901 0.98125 0.0
N2 N 0.03845 0.93973 0.95628 0.0
C3 C 0.03708 0.98672 0.95129 0.0
C4 C 0.07537 0.92217 0.9905 0.0
C5 C 0.09579 0.95855 1.00549 0.0
O6 O 0.07305 0.09205 0.91252 0.0
C7 C 0.06116 0.07042 0.10274 0.0
O8 O 0.08522 0.02641 0.10338 0.0
H9 H 1.01284 1.01133 0.92445 0.0
H10 H 0.12671 0.9556 0.03141 0.0
N11 N 0.15159 0.05123 0.99978 0.0
N12 N 0.21629 0.06293 0.04215 0.0
C13 C 0.16859 0.07153 0.04361 0.0
C14 C 0.18999 0.0295 0.9683 0.0
C15 C 0.23013 0.03655 0.99445 0.0
C16 C 0.09944 0.11702 0.88725 0.0
O17 O 0.13556 0.1256 0.91458 0.0
H18 H 0.14617 0.09336 0.07543 0.0
H19 H 0.18875 1.0115 0.92805 0.0
O20 O 0.05366 0.09209 0.05381 0.0
H21 H 0.08744 0.88528 1.00288 0.0
H22 H 0.26627 1.02475 0.97831 0.0
Cu23 Cu 0.31632 0.82811 0.30399 0.0
N24 N 0.33735 0.86659 0.24746 0.0
N25 N 0.33891 0.89396 0.15565 0.0
C26 C 0.31183 0.88311 0.20093 0.0
C27 C 0.38314 0.88658 0.17619 0.0
C28 C 0.3821 0.86925 0.23273 0.0
O29 O 0.33438 0.76388 0.27287 0.0
C30 C 0.22444 0.85192 0.3661 0.0
O31 O 0.24114 0.8174 0.40301 0.0
H32 H 0.27525 0.8806 0.19787 0.0
H33 H 0.41239 0.85524 0.25895 0.0
N34 N 0.34902 0.82872 0.3721 0.0
N35 N 0.35844 0.83831 0.46674 0.0
C36 C 0.33124 0.85215 0.42036 0.0
C37 C 0.38969 0.79963 0.38777 0.0
C38 C 0.39554 0.80534 0.4463 0.0
C39 C 0.33334 0.75602 0.21859 0.0
O40 O 0.30814 0.78831 0.18474 0.0
H41 H 0.2968 0.87578 0.42247 0.0
H42 H 0.41172 0.77378 0.35969 0.0
O43 O 0.24879 0.85694 0.31964 0.0
H44 H 0.41465 0.89063 0.1516 0.0
H45 H 0.42338 0.78485 0.47241 0.0
Cu46 Cu 0.52547 0.08914 0.51991 0.0
N47 N 0.54989 0.14385 0.50784 0.0
N48 N 0.59794 0.19126 0.47696 0.0
C49 C 0.5873 0.14833 0.47265 0.0
C50 C 0.56599 0.21466 0.51612 0.0
C51 C 0.53627 0.1855 0.53474 0.0
O52 O 0.53588 0.05534 0.44609 0.0
C53 C 0.54997 0.07178 0.63593 0.0
O54 O 0.52874 0.11668 0.63799 0.0
H55 H 0.60747 0.12006 0.44622 0.0
H56 H 0.50763 0.19353 0.56698 0.0
N57 N 0.46062 0.10253 0.54172 0.0
N58 N 0.39382 0.09065 0.5869 0.0
C59 C 0.44106 0.07468 0.57869 0.0
C60 C 0.42464 0.1382 0.52662 0.0
C61 C 0.38338 0.13092 0.55439 0.0
C62 C 0.5108 0.07253 0.40292 0.0
O63 O 0.4771 0.11056 0.41052 0.0
H64 H 0.46166 0.04362 0.59995 0.0
H65 H 0.42807 0.16711 0.49715 0.0
O66 O 0.55552 0.05184 0.58646 0.0
H67 H 0.56468 0.25003 0.53095 0.0
H68 H 0.34833 0.15295 0.54999 0.0
Cu69 Cu 0.24074 0.22961 0.81072 0.0
N70 N 0.2833 0.23159 0.74685 0.0
N71 N 0.3108 0.24073 0.65545 0.0
C72 C 0.27271 0.24974 0.69281 0.0
C73 C 0.34627 0.21528 0.68692 0.0
C74 C 0.32932 0.2096 0.74276 0.0
O75 O 0.17932 0.23745 0.77421 0.0
C76 C 0.30009 0.16802 0.88288 0.0
O77 O 0.32087 0.20407 0.8787 0.0
H78 H 0.23758 0.26807 0.68075 0.0
H79 H 0.34895 0.18853 0.77676 0.0
N80 N 0.24148 0.27897 0.86278 0.0
N81 N 0.25585 0.31239 0.94536 0.0
C82 C 0.24304 0.27507 0.92158 0.0
C83 C 0.25177 0.32118 0.84925 0.0
C84 C 0.26055 0.34184 0.89992 0.0
C85 C 0.14433 0.2719 0.78395 0.0
O86 O 0.14474 0.29784 0.82979 0.0
H87 H 0.23971 0.24331 0.94588 0.0
H88 H 0.25612 0.33436 0.80531 0.0
O89 O 0.26281 0.16963 0.85426 0.0
H90 H 0.38137 0.19933 0.66993 0.0
H91 H 0.2724 0.37466 0.90265 0.0
Cu92 Cu 0.03233 0.10016 0.49303 0.0
N93 N 0.03132 0.13707 0.42477 0.0
N94 N 0.03021 0.15278 0.32899 0.0
C95 C 1.01986 0.12405 0.37243 0.0
C96 C 0.04875 0.18542 0.35507 0.0
C97 C 0.04885 0.176 0.41439 0.0
O98 O 0.05736 0.03312 0.47211 0.0
C99 C 0.95543 0.10255 0.57792 0.0
O100 O 0.98307 0.06568 0.60243 0.0
H101 H 1.00921 0.09106 0.36559 0.0
H102 H 0.06426 0.19377 0.44688 0.0
N103 N 0.07336 0.11518 0.54695 0.0
N104 N 0.09573 0.12722 0.63661 0.0
C105 C 0.05982 0.13474 0.59913 0.0
C106 C 0.11991 0.0963 0.55052 0.0
C107 C 0.13382 0.10388 0.60542 0.0
C108 C 0.09229 1.02464 0.43503 0.0
O109 O 0.10877 0.06027 0.4126 0.0
H110 H 1.02365 0.15177 0.61004 0.0
H111 H 0.14133 0.0747 0.51762 0.0
O112 O 0.9685 0.11805 0.52892 0.0
H113 H 0.06513 0.21132 0.33239 0.0
H114 H 0.16842 0.08947 0.62252 0.0
Cu115 Cu 0.2548 0.88352 0.81045 0.0
N116 N 0.24455 0.94774 0.78814 0.0
N117 N 0.26929 1.00534 0.73667 0.0
C118 C 0.28189 0.96568 0.76983 0.0
C119 C 0.22153 1.01408 0.73647 0.0
C120 C 0.20629 0.9783 0.76802 0.0
O121 O 0.29209 0.85297 0.74429 0.0
C122 C 0.26617 0.89952 0.92439 0.0
O123 O 0.22188 0.92117 0.91713 0.0
H124 H 0.31804 0.94725 0.77648 0.0
H125 H 0.17062 0.97249 0.77063 0.0
N126 N 0.2004 0.85808 0.82306 0.0
N127 N 0.15532 0.80793 0.85476 0.0
C128 C 0.1957 0.82308 0.86169 0.0
C129 C 0.16103 0.86582 0.79168 0.0
C130 C 0.13341 0.83487 0.81087 0.0
C131 C 0.27225 0.86461 0.69592 0.0
O132 O 0.22817 0.88838 0.69651 0.0
H133 H 0.22187 0.80826 0.89336 0.0
H134 H 0.15294 0.89177 0.75678 0.0
O135 O 0.28923 0.87744 0.88165 0.0
H136 H 0.19958 0.04154 0.71067 0.0
H137 H 0.09931 0.83297 0.79462 0.0
Cu138 Cu 0.50959 0.95302 0.02043 0.0
N139 N 0.54363 0.94855 0.94819 0.0
N140 N 0.56358 0.96736 0.8563 0.0
C141 C 0.54112 0.9833 0.90712 0.0
C142 C 0.58051 0.92065 0.86582 0.0
C143 C 0.56796 0.90915 0.92204 0.0
O144 O 0.44456 0.98589 1.00357 0.0
C145 C 0.55663 0.86857 0.07152 0.0
O146 O 0.59284 0.88364 0.04793 0.0
H147 H 0.52042 1.01882 0.91327 0.0
H148 H 0.57393 0.8739 0.94114 0.0
N149 N 0.53424 0.9871 0.07523 0.0
N150 N 0.54517 1.01334 0.16333 0.0
C151 C 0.51647 0.99496 0.1301 0.0
C152 C 0.57552 1.00133 0.07341 0.0
C153 C 0.58224 1.0178 0.12765 0.0
C154 C 0.43515 0.03103 1.0036 0.0
O155 O 0.46834 0.05281 1.01748 0.0
H156 H 0.484 0.98547 0.14599 0.0
H157 H 0.59972 0.99844 0.03594 0.0
O158 O 0.51486 0.89159 0.0607 0.0
H159 H 0.59929 0.89612 0.8338 0.0
H160 H 0.61216 0.03178 0.13982 0.0
Cu161 Cu 0.34254 0.25324 0.2868 0.0
N162 N 0.34127 0.19211 0.26437 0.0
N163 N 0.31961 0.13702 0.21198 0.0
C164 C 0.3165 0.18356 0.21926 0.0
C165 C 0.34765 0.11503 0.25456 0.0
C166 C 0.36096 0.14924 0.28693 0.0
O167 O 0.31099 0.29335 0.223 0.0
C168 C 0.3378 0.24258 0.40682 0.0
O169 O 0.37812 0.21345 0.39376 0.0
H170 H 0.29609 0.21117 0.19227 0.0
H171 H 0.38265 0.14325 0.32471 0.0
N172 N 0.40501 0.26014 0.29314 0.0
N173 N 0.46383 0.28472 0.33531 0.0
C174 C 0.41751 0.2953 0.32163 0.0
C175 C 0.44477 0.22644 0.28692 0.0
C176 C 0.48095 0.24143 0.31263 0.0
C177 C 0.3344 0.29293 0.17458 0.0
O178 O 0.37942 0.27175 0.17303 0.0
H179 H 0.39192 0.32664 0.33435 0.0
H180 H 0.44646 0.19176 0.26956 0.0
O181 O 0.31303 0.26427 0.36547 0.0
H182 H 0.35655 0.07726 0.26309 0.0
H183 H 0.51623 0.22017 0.31811 0.0
Cu184 Cu 0.83097 0.32286 0.78842 0.0
N185 N 0.85597 0.36731 0.74489 0.0
N186 N 0.88279 0.39256 0.66022 0.0
C187 C 0.84942 0.37319 0.6875 0.0
C188 C 0.91129 0.39986 0.70235 0.0
C189 C 0.89432 0.38474 0.75491 0.0
O190 O 0.82763 0.27427 0.73156 0.0
C191 C 0.76091 0.39739 0.84069 0.0
O192 O 0.78837 0.42467 0.81908 0.0
H193 H 0.82523 0.35677 0.66493 0.0
H194 H 0.9121 0.38121 0.79582 0.0
N195 N 0.87427 0.29399 0.84312 0.0
N196 N 0.90193 0.25521 0.92387 0.0
C197 C 0.86313 0.27785 0.89601 0.0
C198 C 0.92181 0.28107 0.83722 0.0
C199 C 0.93911 0.25764 0.88764 0.0
C200 C 0.83856 0.22981 0.74242 0.0
O201 O 0.84213 0.21494 0.7969 0.0
H202 H 0.82723 0.28279 0.91381 0.0
H203 H 0.94234 0.28772 0.79875 0.0
O204 O 0.77166 0.35306 0.83016 0.0
H205 H 0.9448 0.41001 0.69473 0.0
H206 H 0.97589 0.24318 0.89684 0.0
Cu207 Cu 0.72064 0.73209 0.33235 0.0
N208 N 0.76135 0.74969 0.27479 0.0
N209 N 0.78623 0.76074 0.18302 0.0
C210 C 0.76259 0.73579 0.21919 0.0
C211 C 0.80101 0.79137 0.21733 0.0
C212 C 0.78534 0.78463 0.274 0.0
O213 O 0.66207 0.73739 0.28987 0.0
C214 C 0.78852 0.64374 0.35244 0.0
O215 O 0.809 0.65311 0.30284 0.0
H216 H 0.74392 0.70977 0.20498 0.0
H217 H 0.78901 0.80536 0.31128 0.0
N218 N 0.70983 0.77367 0.39518 0.0
N219 N 0.71873 0.79955 0.48412 0.0
C220 C 0.7397 0.77312 0.43886 0.0
C221 C 0.6685 0.80139 0.41371 0.0
C222 C 0.67405 0.81782 0.46813 0.0
C223 C 0.64465 0.77916 0.27052 0.0
O224 O 0.6647 0.81379 0.28398 0.0
H225 H 0.77503 0.75095 0.43923 0.0
H226 H 0.63564 0.80698 0.39115 0.0
O227 O 0.74902 0.67028 0.36836 0.0
H228 H 0.82091 0.81731 0.20247 0.0
H229 H 0.64681 0.84014 0.49458 0.0
Cu230 Cu 0.81785 0.29967 0.29909 0.0
N231 N 0.84443 0.25275 0.2464 0.0
N232 N 0.87641 0.21993 0.16367 0.0
C233 C 0.8615 0.26039 0.19267 0.0
C234 C 0.86804 0.18511 0.20003 0.0
C235 C 0.84858 0.20556 0.25159 0.0
O236 O 0.81167 0.36137 0.25754 0.0
C237 C 0.75857 0.25956 0.37827 0.0
O238 O 0.7981 0.24597 0.40615 0.0
H239 H 0.86086 0.2951 0.17368 0.0
H240 H 0.83713 0.18755 0.28957 0.0
N241 N 0.86082 0.29913 0.35742 0.0
N242 N 0.89415 0.32364 0.43326 0.0
C243 C 0.85453 0.32858 0.40247 0.0
C244 C 0.90573 0.27413 0.35983 0.0
C245 C 0.92635 0.28902 0.40684 0.0
C246 C 0.8509 0.37243 0.24224 0.0
O247 O 0.89056 0.34337 0.25637 0.0
H248 H 0.8211 0.35245 0.41265 0.0
H249 H 0.9226 0.24782 0.32873 0.0
O250 O 0.75846 0.28483 0.33169 0.0
H251 H 0.87467 0.14797 0.18964 0.0
H252 H 0.96234 0.27571 0.42016 0.0
Cu253 Cu 0.82827 0.75647 0.81622 0.0
N254 N 0.83552 0.69308 0.79466 0.0
N255 N 0.81793 0.63056 0.75222 0.0
C256 C 0.80312 0.67675 0.76527 0.0
C257 C 0.86119 0.6172 0.77496 0.0
C258 C 0.8722 0.65586 0.80061 0.0
O259 O 0.79032 0.79124 0.75428 0.0
C260 C 0.81759 0.73637 0.93462 0.0
O261 O 0.85112 0.69971 0.92025 0.0
H262 H 0.76917 0.69847 0.75398 0.0
H263 H 0.90476 0.65682 0.82158 0.0
N264 N 0.88585 0.77609 0.81828 0.0
N265 N 0.93887 0.81836 0.84065 0.0
C266 C 0.89396 0.81242 0.84908 0.0
C267 C 0.92704 0.75804 0.78994 0.0
C268 C 0.95959 0.78403 0.80338 0.0
C269 C 0.81047 0.78773 0.70369 0.0
O270 O 0.85544 0.76681 0.699 0.0
H271 H 0.86771 0.83302 0.8783 0.0
H272 H 0.933 0.72813 0.76137 0.0
O273 O 0.79975 0.76568 0.89476 0.0
H274 H 0.88352 0.58217 0.77224 0.0
H275 H 0.99588 0.77797 0.78679 0.0
Cu276 Cu 0.60235 0.48028 0.56517 0.0
N277 N 0.59635 0.4196 0.54622 0.0
N278 N 0.56807 0.36713 0.49683 0.0
C279 C 0.56445 0.41309 0.50793 0.0
C280 C 0.6033 0.34342 0.5299 0.0
C281 C 0.62047 0.37588 0.56091 0.0
O282 O 0.5862 0.51413 0.49172 0.0
C283 C 0.57272 0.4744 0.67796 0.0
O284 O 0.61218 0.44186 0.67536 0.0
H285 H 0.53994 0.4418 0.48702 0.0
H286 H 0.64844 0.3679 0.59173 0.0
N287 N 0.66356 0.4839 0.58705 0.0
N288 N 0.72004 0.51155 0.63007 0.0
C289 C 0.67568 0.52202 0.60962 0.0
C290 C 0.70171 0.44827 0.59325 0.0
C291 C 0.73608 0.46498 0.62057 0.0
C292 C 0.61365 0.49592 0.44966 0.0
O293 O 0.65405 0.4674 0.46237 0.0
H294 H 0.65142 0.556 0.614 0.0
H295 H 0.70399 0.41217 0.58095 0.0
O296 O 0.55933 0.49851 0.63199 0.0
H297 H 0.61538 0.30554 0.53197 0.0
H298 H 0.76979 0.44409 0.63386 0.0
Cu299 Cu 1.00913 0.57644 0.04423 0.0
N300 N 1.01651 0.63864 0.03009 0.0
N301 N 0.05062 0.69588 0.99289 0.0
C302 C 0.05007 0.64943 0.99294 0.0
C303 C 1.01599 0.71529 0.0315 0.0
C304 C 0.99474 0.67992 0.05417 0.0
O305 O 1.02676 0.54524 0.97002 0.0
C306 C 0.03301 0.56895 0.15792 0.0
O307 O 0.99985 0.60795 0.15649 0.0
H308 H 0.07445 0.62338 0.96741 0.0
H309 H 0.96594 0.68398 0.08637 0.0
N310 N 0.94814 0.56905 0.06797 0.0
N311 N 0.89566 0.5301 0.10937 0.0
C312 C 0.94126 0.52816 0.09229 0.0
C313 C 0.90526 0.59862 0.06974 0.0
C314 C 0.87269 0.57461 0.09506 0.0
C315 C 0.99641 0.5558 0.93036 0.0
O316 O 0.9548 0.58277 0.94338 0.0
H317 H 0.96995 0.49775 0.09885 0.0
H318 H 0.89833 0.635 0.05427 0.0
O319 O 0.0473 0.54887 0.1098 0.0
H320 H 1.00652 0.75242 0.04216 0.0
H321 H 0.83515 0.58883 0.10161 0.0
Cu322 Cu 0.52332 0.52335 0.05734 0.0
N323 N 0.48396 0.50605 1.00281 0.0
N324 N 0.48046 0.49573 0.90659 0.0
C325 C 0.50297 0.48044 0.95632 0.0
C326 C 0.44345 0.53025 0.92344 0.0
C327 C 0.44565 0.53644 0.98248 0.0
O328 O 0.586 0.51361 1.01591 0.0
C329 C 0.45655 0.58915 0.11709 0.0
O330 O 0.44297 0.54971 0.13091 0.0
H331 H 0.5368 0.45588 0.95722 0.0
H332 H 0.42574 0.56655 1.00603 0.0
N333 N 0.52973 0.4881 0.12729 0.0
N334 N 0.5441 0.47472 0.22175 0.0
C335 C 0.54442 0.5046 0.17588 0.0
C336 C 0.51977 0.44605 0.14283 0.0
C337 C 0.52926 0.43741 0.20121 0.0
C338 C 0.61067 0.47111 1.01458 0.0
O339 O 0.59613 0.43886 0.04739 0.0
H340 H 0.55534 0.53799 0.17736 0.0
H341 H 0.50651 0.42349 0.11393 0.0
O342 O 0.49243 0.58751 0.08208 0.0
H343 H 0.4208 0.55427 0.89432 0.0
H344 H 0.52513 0.40646 0.22672 0.0
Cu345 Cu 1.00168 0.46001 0.53961 0.0
N346 N 0.0419 0.45354 0.47309 0.0
N347 N 0.06277 0.47186 0.3816 0.0
C348 C 0.04416 0.48855 0.43392 0.0
C349 C 0.07284 0.42429 0.38872 0.0
C350 C 0.05976 0.41318 0.44481 0.0
O351 O 0.93898 0.48653 0.50838 0.0
C352 C 0.0506 0.37818 0.59375 0.0
O353 O 0.086 0.39503 0.57097 0.0
H354 H 0.02831 0.52528 0.44227 0.0
H355 H 0.05855 0.37816 0.46157 0.0
N356 N 1.01827 0.49957 0.59417 0.0
N357 N 1.02778 0.52422 0.68347 0.0
C358 C 1.00733 0.49644 0.65137 0.0
C359 C 0.04666 0.53069 0.58942 0.0
C360 C 0.05233 0.54627 0.64456 0.0
C361 C 0.91505 0.52841 0.51742 0.0
O362 O 0.92767 0.55336 0.55838 0.0
H363 H 0.98577 0.47298 0.66925 0.0
H364 H 0.06279 0.54062 0.54906 0.0
O365 O 1.00836 0.39965 0.5828 0.0
H366 H 0.08382 0.39905 0.35439 0.0
H367 H 0.07256 0.57209 0.65489 0.0
C368 C 1.01023 0.12584 0.17402 0.0
C369 C 0.05406 0.09633 0.15802 0.0
C370 C 1.00273 0.146 0.22968 0.0
C371 C 0.03929 0.13834 0.2697 0.0
H372 H 0.98115 0.1316 0.14453 0.0
H373 H 0.96808 0.16667 0.24215 0.0
S374 S 0.16145 0.06826 0.24682 0.0
N375 N 0.13499 0.06286 0.18585 0.0
N376 N 0.12106 0.10239 0.28859 0.0
C377 C 0.08365 0.11107 0.25298 0.0
C378 C 0.09101 0.08968 0.19751 0.0
C379 C 0.35424 0.81228 0.57024 0.0
C380 C 0.34367 0.84802 0.52669 0.0
C381 C 0.33274 0.81831 0.62627 0.0
C382 C 0.29931 0.8598 0.63991 0.0
H383 H 0.37734 0.77853 0.56026 0.0
H384 H 0.34046 0.78949 0.65797 0.0
S385 S 0.26616 0.96727 0.54554 0.0
N386 N 0.30367 0.92922 0.50486 0.0
N387 N 0.26088 0.93929 0.60818 0.0
C388 C 0.29048 0.89668 0.59793 0.0
C389 C 0.31336 0.89116 0.54188 0.0
C390 C 0.56283 0.97035 0.74802 0.0
C391 C 0.56427 0.99309 0.80125 0.0
C392 C 0.56057 0.99535 0.69436 0.0
C393 C 0.55956 0.04419 0.69165 0.0
H394 H 0.56176 0.93324 0.74785 0.0
H395 H 0.55765 0.97662 0.65502 0.0
S396 S 0.56879 0.11913 0.81745 0.0
N397 N 0.56924 0.06636 0.84689 0.0
N398 N 0.56432 0.11341 0.74676 0.0
C399 C 0.56302 0.06687 0.74431 0.0
C400 C 0.56546 0.04139 0.79882 0.0
C401 C 0.24733 0.30044 0.05249 0.0
C402 C 0.27277 0.31385 1.00366 0.0
C403 C 0.26565 0.2973 0.10883 0.0
C404 C 0.31069 0.30633 0.1182 0.0
H405 H 0.21346 0.29139 0.04677 0.0
H406 H 0.24553 0.28522 0.14464 0.0
S407 S 0.39138 0.34301 1.00517 0.0
N408 N 0.34499 0.337 0.96901 0.0
N409 N 0.37945 0.33055 0.07393 0.0
C410 C 0.33583 0.32084 0.06991 0.0
C411 C 0.31695 0.3247 1.01295 0.0
C412 C 0.13375 0.1363 0.72889 0.0
C413 C 0.09305 0.13259 0.69929 0.0
C414 C 0.13462 0.13439 0.7899 0.0
C415 C 0.0949 0.12817 0.82402 0.0
H416 H 0.16588 0.13907 0.70464 0.0
H417 H 0.16755 0.13529 0.81017 0.0
S418 S 0.97795 0.1211 0.76977 0.0
N419 N 1.01069 0.12541 0.71029 0.0
N420 N 1.01248 0.12274 0.82459 0.0
C421 C 0.05316 0.12715 0.79551 0.0
C422 C 0.05214 0.12913 0.73332 0.0
C423 C 0.92818 0.32205 0.5302 0.0
C424 C 0.89925 0.3468 0.4866 0.0
C425 C 0.92662 0.34005 0.58628 0.0
C426 C 0.89634 0.3834 0.60048 0.0
H427 H 0.9494 0.28697 0.52243 0.0
H428 H 0.94611 0.31824 0.62012 0.0
S429 S 0.8199 0.46569 0.50054 0.0
N430 N 0.84483 0.42039 0.45972 0.0
N431 N 0.84159 0.45322 0.56593 0.0
C432 C 0.87063 0.41036 0.5564 0.0
C433 C 0.87218 0.3923 0.49918 0.0
C434 C 0.49165 0.04605 0.24568 0.0
C435 C 0.53739 1.02527 0.22416 0.0
C436 C 0.48345 0.0598 0.30392 0.0
C437 C 0.52042 0.05277 0.34345 0.0
H438 H 0.46214 0.05289 0.21683 0.0
H439 H 0.44777 0.07638 0.31805 0.0
S440 S 0.64609 0.99606 0.31032 0.0
N441 N 0.61977 0.99555 0.24795 0.0
N442 N 0.60427 1.02139 0.35742 0.0
C443 C 0.56605 0.03039 0.32312 0.0
C444 C 0.57456 1.0168 0.2635 0.0
C445 C 0.80174 0.71096 0.0961 0.0
C446 C 0.79207 0.75614 0.12059 0.0
C447 C 0.80826 0.70522 0.03573 0.0
C448 C 0.80467 0.74442 0.99723 0.0
H449 H 0.80538 0.67973 0.12405 0.0
H450 H 0.81662 0.66964 0.01905 0.0
S451 S 0.77648 0.87054 0.0388 0.0
N452 N 0.77665 0.84101 0.10142 0.0
N453 N 0.78884 0.8302 0.9878 0.0
C454 C 0.79341 0.78993 0.02089 0.0
C455 C 0.78731 0.79578 0.0826 0.0
C456 C 0.57357 0.47739 0.78536 0.0
C457 C 0.54703 0.48302 0.73484 0.0
C458 C 0.5516 0.48125 0.84071 0.0
C459 C 0.50191 0.49007 0.84843 0.0
H460 H 0.61193 0.47014 0.78219 0.0
H461 H 0.57413 0.478 0.87757 0.0
S462 S 0.41624 0.5061 0.72962 0.0
N463 N 0.46854 0.49771 0.69523 0.0
N464 N 0.4268 0.50362 0.79992 0.0
C465 C 0.47479 0.49586 0.79805 0.0
C466 C 0.49741 0.49265 0.7412 0.0
C467 C 0.93129 0.25158 0.02301 0.0
C468 C 0.90279 0.2368 0.98248 0.0
C469 C 0.92504 0.24254 0.08267 0.0
C470 C 0.89087 0.21765 0.10331 0.0
H471 H 0.95596 0.27319 1.00885 0.0
H472 H 0.94503 0.2574 0.11328 0.0
S473 S 0.81225 0.16591 1.0138 0.0
N474 N 0.84283 0.19209 0.96605 0.0
N475 N 0.83154 0.17458 0.07845 0.0
C476 C 0.86505 0.19932 0.06282 0.0
C477 C 0.87086 0.20913 1.00222 0.0
C478 C 1.01748 0.56234 0.26494 0.0
C479 C 0.0457 0.54559 0.21537 0.0
C480 C 1.02436 0.53912 0.31908 0.0
C481 C 0.06007 0.49806 0.32668 0.0
H482 H 0.98836 0.59287 0.2618 0.0
H483 H 0.99994 0.55264 0.35453 0.0
S484 S 0.14794 0.44297 0.21271 0.0
N485 N 0.11332 0.48744 0.17833 0.0
N486 N 0.12735 0.44437 0.28086 0.0
C487 C 0.09022 0.48214 0.27817 0.0
C488 C 0.08281 0.5057 0.22249 0.0
C489 C 0.80855 0.80281 0.59641 0.0
C490 C 0.78355 0.79866 0.6495 0.0
C491 C 0.7867 0.80458 0.54286 0.0
C492 C 0.73886 0.80248 0.54001 0.0
H493 H 0.84591 0.80317 0.59601 0.0
H494 H 0.80765 0.80666 0.50317 0.0
S495 S 0.65724 0.79184 0.66606 0.0
N496 N 0.70787 0.79334 0.69579 0.0
N497 N 0.66679 0.79645 0.59502 0.0
C498 C 0.71285 0.79997 0.59274 0.0
C499 C 0.73518 0.79817 0.64749 0.0
C500 C 0.59066 0.44346 0.30705 0.0
C501 C 0.55931 0.48064 0.27947 0.0
C502 C 0.60844 0.44942 0.36149 0.0
C503 C 0.59481 0.49255 0.39117 0.0
H504 H 0.60232 0.40984 0.28572 0.0
H505 H 0.63261 0.41956 0.38083 0.0
S506 S 0.51078 0.59983 0.33902 0.0
N507 N 0.51387 0.56156 0.28628 0.0
N508 N 0.54627 0.57234 0.38974 0.0
C509 C 0.56235 0.52961 0.3648 0.0
C510 C 0.54495 0.52381 0.30862 0.0
C511 C 0.27566 0.91833 0.08541 0.0
C512 C 0.32379 0.89996 0.09608 0.0
C513 C 0.25784 0.91835 0.02985 0.0
C514 C 0.28738 0.90055 0.98191 0.0
H515 H 0.25114 0.93233 0.12064 0.0
H516 H 0.22024 0.93181 0.02489 0.0
S517 S 0.41733 0.85387 0.98374 0.0
N518 N 0.40159 0.86645 0.05227 0.0
N519 N 0.36808 0.86812 0.94728 0.0
C520 C 0.33608 0.88433 0.9909 0.0
C521 C 0.35433 0.88384 0.04797 0.0
C522 C 0.97196 0.53326 0.83452 0.0
C523 C 1.00788 0.54242 0.86891 0.0
C524 C 0.97932 0.52625 0.77451 0.0
C525 C 1.02242 0.52948 0.74593 0.0
H526 H 0.93753 0.5321 0.85406 0.0
H527 H 0.9504 0.51962 0.74994 0.0
S528 S 0.12876 0.55057 0.81686 0.0
N529 N 0.08897 0.55238 0.87078 0.0
N530 N 0.10266 0.53995 0.75757 0.0
C531 C 0.05913 0.5376 0.78006 0.0
C532 C 0.0519 0.54382 0.84162 0.0
C533 C 0.28309 0.24578 0.49574 0.0
C534 C 0.32588 0.25247 0.46923 0.0
C535 C 0.27691 0.24479 0.55705 0.0
C536 C 0.31323 0.25064 0.59347 0.0
H537 H 0.2556 0.23821 0.46929 0.0
H538 H 0.2449 0.23642 0.57605 0.0
S539 S 0.4286 0.27675 0.54476 0.0
N540 N 0.40291 0.26964 0.48382 0.0
N541 N 0.39058 0.26966 0.5979 0.0
C542 C 0.35445 0.26099 0.56698 0.0
C543 C 0.36094 0.26139 0.50518 0.0
C544 C 0.22593 0.12485 0.10895 0.0
C545 C 0.2446 0.08122 0.08241 0.0
C546 C 0.25032 0.14219 0.15152 0.0
C547 C 0.29478 0.11693 0.1695 0.0
H548 H 0.19197 0.14604 0.09674 0.0
H549 H 0.23382 0.17563 0.17096 0.0
S550 S 0.36086 1.0022 0.11228 0.0
N551 N 0.31128 1.01371 0.07621 0.0
N552 N 0.35753 0.04694 0.15621 0.0
C553 C 0.3144 0.0736 0.14301 0.0
C554 C 0.28945 0.05581 0.09922 0.0
C555 C 0.13209 0.96789 0.35953 0.0
C556 C 0.11717 0.97606 0.41812 0.0
C557 C 0.16433 0.92636 0.34271 0.0
C558 C 0.18365 0.89111 0.38385 0.0
H559 H 0.12006 0.99482 0.32651 0.0
H560 H 0.17575 0.92289 0.29728 0.0
S561 S 0.15561 0.8953 0.54335 0.0
N562 N 0.12313 0.94514 0.51732 0.0
N563 N 0.18393 0.86717 0.48647 0.0
C564 C 0.1674 0.898 0.44253 0.0
C565 C 0.13417 0.94039 0.45948 0.0
C566 C 0.29113 0.07574 0.68797 0.0
C567 C 0.30042 0.02648 0.69855 0.0
C568 C 0.32129 0.09654 0.65093 0.0
C569 C 0.3617 0.06884 0.62271 0.0
H570 H 0.26079 0.09834 0.70923 0.0
H571 H 0.31326 0.13461 0.64506 0.0
S572 S 0.39739 0.93757 0.62857 0.0
N573 N 0.35072 0.95036 0.67341 0.0
N574 N 0.40567 0.98896 0.60277 0.0
C575 C 0.36999 1.01939 0.63099 0.0
C576 C 0.33986 0.99838 0.66916 0.0
C577 C 0.3357 0.08178 0.90174 0.0
C578 C 0.32087 0.12821 0.92223 0.0
C579 C 0.36972 0.04797 0.93168 0.0
C580 C 0.39003 0.06007 0.98231 0.0
H581 H 0.3243 0.07283 0.85999 0.0
H582 H 0.38319 1.01379 0.91229 0.0
S583 S 0.35546 0.17399 0.05924 0.0
N584 N 0.32289 0.18175 1.00098 0.0
N585 N 0.38723 0.11928 0.05591 0.0
C586 C 0.37165 0.10481 1.00594 0.0
C587 C 0.33688 0.13862 0.97621 0.0
C588 C 0.03485 0.86703 0.90607 0.0
C589 C 1.01179 0.91176 0.92566 0.0
C590 C 1.01082 0.83728 0.87865 0.0
C591 C 0.96212 0.85084 0.86894 0.0
H592 H 0.07225 0.8553 0.91178 0.0
H593 H 0.03056 0.803 0.86551 0.0
S594 S 0.88453 0.96631 0.90924 0.0
N595 N 0.93708 0.96939 0.93237 0.0
N596 N 0.89144 0.91396 0.87921 0.0
C597 C 0.9382 0.89623 0.88732 0.0
C598 C 0.96309 0.92668 0.9157 0.0
C599 C 0.87662 0.21331 0.64252 0.0
C600 C 0.85874 0.19628 0.69492 0.0
C601 C 0.90502 0.18239 0.60269 0.0
C602 C 0.91687 0.13308 0.61353 0.0
H603 H 0.87124 0.25103 0.63373 0.0
H604 H 0.92022 0.19771 0.56499 0.0
S605 S 0.87185 0.06968 0.73861 0.0
N606 N 0.84959 0.12619 0.75116 0.0
N607 N 0.90299 0.06838 0.67665 0.0
C608 C 0.89599 0.11536 0.66323 0.0
C609 C 0.86696 0.14682 0.70375 0.0
C610 C 0.70677 0.24244 0.4621 0.0
C611 C 0.71555 0.24403 0.40145 0.0
C612 C 0.66861 0.22477 0.48629 0.0
C613 C 0.6381 0.20722 0.45098 0.0
H614 H 0.72959 0.2551 0.49124 0.0
H615 H 0.66302 0.22444 0.53315 0.0
S616 S 0.6475 0.19976 0.29015 0.0
N617 N 0.69133 0.22477 0.30669 0.0
N618 N 0.62062 0.18993 0.35263 0.0
C619 C 0.64719 0.20716 0.39047 0.0
C620 C 0.68543 0.22627 0.36556 0.0
C621 C 0.62524 0.77206 0.16734 0.0
C622 C 0.61039 0.78884 0.22331 0.0
C623 C 0.6038 0.79515 0.11741 0.0
C624 C 0.56606 0.83503 0.12181 0.0
H625 H 0.65682 0.74431 0.16172 0.0
H626 H 0.6194 0.78414 0.07503 0.0
S627 S 0.51085 0.88941 0.2588 0.0
N628 N 0.55355 0.84532 0.28046 0.0
N629 N 0.51199 0.88726 0.18701 0.0
C630 C 0.54788 0.84902 0.17772 0.0
C631 C 0.57046 0.8263 0.22841 0.0
C632 C 0.7729 0.5245 0.70727 0.0
C633 C 0.74418 0.54218 0.66008 0.0
C634 C 0.79681 0.55348 0.737 0.0
C635 C 0.79309 0.60137 0.72075 0.0
H636 H 0.77642 0.48807 0.72187 0.0
H637 H 0.81788 0.53843 0.77357 0.0
S638 S 0.72705 0.66347 0.59573 0.0
N639 N 0.71638 0.6097 0.59572 0.0
N640 N 0.76139 0.66408 0.65126 0.0
C641 C 0.76536 0.61924 0.67277 0.0
C642 C 0.74093 0.58971 0.64255 0.0
C643 C 0.6719 0.40621 0.96867 0.0
C644 C 0.64999 0.45485 0.97039 0.0
C645 C 0.70645 0.38792 0.92581 0.0
C646 C 0.72136 0.41737 0.88273 0.0
H647 H 0.66214 0.3815 1.00062 0.0
H648 H 0.72224 0.35039 0.92727 0.0
S649 S 0.67465 0.54697 0.86526 0.0
N650 N 0.64525 0.53193 0.92328 0.0
N651 N 0.71067 0.49773 0.84323 0.0
C652 C 0.69989 0.46609 0.88351 0.0
C653 C 0.66425 0.48476 0.92711 0.0
C654 C 0.89034 0.40648 0.15912 0.0
C655 C 0.85434 0.41324 0.20288 0.0
C656 C 0.90144 0.44456 0.12691 0.0
C657 C 0.87774 0.4916 0.13748 0.0
H658 H 0.9112 0.37128 0.1506 0.0
H659 H 0.92992 0.43695 0.0943 0.0
S660 S 0.77689 0.52807 0.24374 0.0
N661 N 0.79185 0.46989 0.25198 0.0
N662 N 0.81337 0.54224 0.19247 0.0
C663 C 0.83959 0.49879 0.179 0.0
C664 C 0.82782 0.45946 0.21149 0.0
C665 C 0.84151 0.58952 0.49457 0.0
C666 C 0.87856 0.55223 0.47587 0.0
C667 C 0.81045 0.61685 0.45479 0.0
C668 C 0.81591 0.60887 0.39442 0.0
H669 H 0.83714 0.59841 0.54023 0.0
H670 H 0.78363 0.64614 0.47125 0.0
S671 S 0.90525 0.51356 0.32318 0.0
N672 N 0.91663 0.50663 0.39311 0.0
N673 N 0.85993 0.55919 0.31848 0.0
C674 C 0.85179 0.57064 0.37544 0.0
C675 C 0.88262 0.54203 0.41606 0.0
C676 C 0.53894 0.29813 0.37275 0.0
C677 C 0.48893 0.30941 0.37342 0.0
C678 C 0.56454 0.31676 0.41332 0.0
C679 C 0.54133 0.34819 0.45568 0.0
H680 H 0.55868 0.2747 0.34042 0.0
H681 H 0.60283 0.30719 0.41113 0.0
S682 S 0.4121 0.39461 0.47412 0.0
N683 N 0.41774 0.35797 0.41933 0.0
N684 N 0.46648 0.39305 0.49424 0.0
C685 C 0.49185 0.36199 0.45551 0.0
C686 C 0.46549 0.34275 0.41466 0.0
C687 C 0.41078 0.63252 0.20052 0.0
C688 C 0.42917 0.6336 0.14287 0.0
C689 C 0.38027 0.67223 0.22498 0.0
C690 C 0.36578 0.71423 0.19215 0.0
H691 H 0.41981 0.60045 0.22695 0.0
H692 H 0.36716 0.66965 0.2695 0.0
S693 S 0.40478 0.73567 0.03947 0.0
N694 N 0.4319 0.6805 0.05422 0.0
N695 N 0.37376 0.75497 0.09917 0.0
C696 C 0.38444 0.71596 0.13454 0.0
C697 C 0.41638 0.67575 0.11018 0.0
C698 C 0.13196 0.77779 0.9508 0.0
C699 C 0.13644 0.77368 0.88984 0.0
C700 C 0.10414 0.752 0.98442 0.0
C701 C 0.08154 0.71976 0.95855 0.0
H702 H 0.14721 0.80361 0.97196 0.0
H703 H 0.09964 0.75777 0.03082 0.0
S704 S 0.087 0.69192 0.8017 0.0
N705 N 0.11894 0.7325 0.80573 0.0
N706 N 0.06849 0.68266 0.86907 0.0
C707 C 0.08863 0.71288 0.8983 0.0
C708 C 0.1158 0.74003 0.86394 0.0
C709 C 0.05119 0.35772 0.69956 0.0
C710 C 0.06119 0.34291 0.64188 0.0
C711 C 0.07511 0.33184 0.74621 0.0
C712 C 0.11039 0.29037 0.73691 0.0
H713 H 0.02815 0.39176 0.70832 0.0
H714 H 0.06838 0.34658 0.78929 0.0
S715 S 0.14284 0.23255 0.5942 0.0
N716 N 0.10346 0.2813 0.57842 0.0
N717 N 0.14855 0.2324 0.66542 0.0
C718 C 0.11713 0.27289 0.67977 0.0
C719 C 0.09269 0.29938 0.63242 0.0
loop_
_geom_bond_atom_site_label_1
_geom_bond_atom_site_label_2
_geom_bond_distance
_geom_bond_site_symmetry_2
_ccdc_geom_bond_type
Cu0 N1 1.999 1_455 S
Cu0 O6 1.974 1_554 S
Cu0 N11 1.985 . S
Cu0 O20 1.959 1_455 S
N1 Cu0 1.999 1_655 S
N1 C3 1.263 1_544 S
N1 C5 1.389 . S
N2 C3 1.358 . S
N2 C4 1.400 1_556 S
C3 N1 1.263 1_566 S
C3 N2 1.358 . S
C3 H9 0.930 . S
C4 N2 1.400 1_554 S
C4 C5 1.351 1_565 S
C4 H21 0.930 . S
C5 N1 1.389 . S
C5 C4 1.351 1_545 S
C5 H10 0.930 . S
O6 Cu0 1.974 1_556 S
O6 C16 1.282 . S
C7 O8 1.261 1_545 S
C7 O20 1.251 1_455 S
O8 C7 1.261 1_565 S
H9 C3 0.930 . S
H10 C5 0.930 . S
N11 Cu0 1.985 . S
N11 C13 1.335 . S
N11 C14 1.390 1_554 S
N12 C13 1.345 . S
N12 C15 1.336 . S
C13 N11 1.335 . S
C13 N12 1.345 . S
C13 H18 0.930 . S
C14 N11 1.390 1_556 S
C14 C15 1.346 1_556 S
C14 H19 0.930 . S
C15 N12 1.336 . S
C15 C14 1.346 1_554 S
C15 H22 0.929 . S
C16 O6 1.282 . S
C16 O17 1.216 . S
O17 C16 1.216 . S
H18 C13 0.930 . S
H19 C14 0.930 . S
O20 Cu0 1.959 1_655 S
O20 C7 1.251 1_655 S
H21 C4 0.930 . S
H22 C15 0.929 . S
Cu23 N24 1.999 . S
Cu23 O29 1.974 . S
Cu23 N34 1.985 . S
Cu23 O43 1.959 . S
N24 Cu23 1.999 . S
N24 C26 1.263 . S
N24 C28 1.389 . S
N25 C26 1.358 . S
N25 C27 1.400 . S
C26 N24 1.263 . S
C26 N25 1.358 . S
C26 H32 0.930 . S
C27 N25 1.400 . S
C27 C28 1.351 . S
C27 H44 0.930 . S
C28 N24 1.389 . S
C28 C27 1.351 . S
C28 H33 0.930 . S
O29 Cu23 1.974 . S
O29 C39 1.282 . S
C30 O31 1.261 . S
C30 O43 1.251 . S
O31 C30 1.261 . S
H32 C26 0.930 . S
H33 C28 0.930 . S
N34 Cu23 1.985 . S
N34 C36 1.335 . S
N34 C37 1.390 . S
N35 C36 1.345 . S
N35 C38 1.336 . S
C36 N34 1.335 . S
C36 N35 1.345 . S
C36 H41 0.930 . S
C37 N34 1.390 . S
C37 C38 1.346 . S
C37 H42 0.930 . S
C38 N35 1.336 . S
C38 C37 1.346 . S
C38 H45 0.929 . S
C39 O29 1.282 . S
C39 O40 1.216 . S
O40 C39 1.216 . S
H41 C36 0.930 . S
H42 C37 0.930 . S
O43 Cu23 1.959 . S
O43 C30 1.251 . S
H44 C27 0.930 . S
H45 C38 0.929 . S
Cu46 N47 1.999 1_565 S
Cu46 O52 1.974 . S
Cu46 N57 1.985 . S
Cu46 O66 1.959 . S
N47 Cu46 1.999 1_545 S
N47 C49 1.263 . S
N47 C51 1.389 . S
N48 C49 1.358 . S
N48 C50 1.400 . S
C49 N47 1.263 . S
C49 N48 1.358 . S
C49 H55 0.930 . S
C50 N48 1.400 . S
C50 C51 1.351 . S
C50 H67 0.930 . S
C51 N47 1.389 . S
C51 C50 1.351 . S
C51 H56 0.930 . S
O52 Cu46 1.974 . S
O52 C62 1.282 1_565 S
C53 O54 1.261 . S
C53 O66 1.251 1_545 S
O54 C53 1.261 . S
H55 C49 0.930 . S
H56 C51 0.930 . S
N57 Cu46 1.985 . S
N57 C59 1.335 . S
N57 C60 1.390 . S
N58 C59 1.345 . S
N58 C61 1.336 . S
C59 N57 1.335 . S
C59 N58 1.345 . S
C59 H64 0.930 . S
C60 N57 1.390 . S
C60 C61 1.346 . S
C60 H65 0.930 . S
C61 N58 1.336 . S
C61 C60 1.346 . S
C61 H68 0.929 . S
C62 O52 1.282 1_545 S
C62 O63 1.216 . S
O63 C62 1.216 . S
H64 C59 0.930 . S
H65 C60 0.930 . S
O66 Cu46 1.959 . S
O66 C53 1.251 1_565 S
H67 C50 0.930 . S
H68 C61 0.929 . S
Cu69 N70 1.999 . S
Cu69 O75 1.974 . S
Cu69 N80 1.985 . S
Cu69 O89 1.959 . S
N70 Cu69 1.999 . S
N70 C72 1.263 . S
N70 C74 1.389 . S
N71 C72 1.358 . S
N71 C73 1.400 . S
C72 N70 1.263 . S
C72 N71 1.358 . S
C72 H78 0.930 . S
C73 N71 1.400 . S
C73 C74 1.351 . S
C73 H90 0.930 . S
C74 N70 1.389 . S
C74 C73 1.351 . S
C74 H79 0.930 . S
O75 Cu69 1.974 . S
O75 C85 1.282 . S
C76 O77 1.261 . S
C76 O89 1.251 . S
O77 C76 1.261 . S
H78 C72 0.930 . S
H79 C74 0.930 . S
N80 Cu69 1.985 . S
N80 C82 1.335 . S
N80 C83 1.390 . S
N81 C82 1.345 . S
N81 C84 1.336 . S
C82 N80 1.335 . S
C82 N81 1.345 . S
C82 H87 0.930 . S
C83 N80 1.390 . S
C83 C84 1.346 . S
C83 H88 0.930 . S
C84 N81 1.336 . S
C84 C83 1.346 . S
C84 H91 0.929 . S
C85 O75 1.282 . S
C85 O86 1.216 . S
O86 C85 1.216 . S
H87 C82 0.930 . S
H88 C83 0.930 . S
O89 Cu69 1.959 . S
O89 C76 1.251 . S
H90 C73 0.930 . S
H91 C84 0.929 . S
Cu92 N93 1.999 . S
Cu92 O98 1.974 1_545 S
Cu92 N103 1.985 . S
Cu92 O112 1.959 1_455 S
N93 Cu92 1.999 . S
N93 C95 1.263 . S
N93 C97 1.389 . S
N94 C95 1.358 . S
N94 C96 1.400 1_455 S
C95 N93 1.263 . S
C95 N94 1.358 . S
C95 H101 0.930 . S
C96 N94 1.400 1_655 S
C96 C97 1.351 1_655 S
C96 H113 0.930 . S
C97 N93 1.389 . S
C97 C96 1.351 1_455 S
C97 H102 0.930 1_455 S
O98 Cu92 1.974 1_565 S
O98 C108 1.282 . S
C99 O100 1.261 . S
C99 O112 1.251 . S
O100 C99 1.261 . S
H101 C95 0.930 . S
H102 C97 0.930 1_655 S
N103 Cu92 1.985 . S
N103 C105 1.335 . S
N103 C106 1.390 1_545 S
N104 C105 1.345 . S
N104 C107 1.336 1_545 S
C105 N103 1.335 . S
C105 N104 1.345 . S
C105 H110 0.930 . S
C106 N103 1.390 1_565 S
C106 C107 1.346 . S
C106 H111 0.930 . S
C107 N104 1.336 1_565 S
C107 C106 1.346 . S
C107 H114 0.929 . S
C108 O98 1.282 . S
C108 O109 1.216 . S
O109 C108 1.216 . S
H110 C105 0.930 . S
H111 C106 0.930 . S
O112 Cu92 1.959 1_655 S
O112 C99 1.251 . S
H113 C96 0.930 . S
H114 C107 0.929 . S
Cu115 N116 1.999 . S
Cu115 O121 1.974 . S
Cu115 N126 1.985 . S
Cu115 O135 1.959 . S
N116 Cu115 1.999 . S
N116 C118 1.263 . S
N116 C120 1.389 . S
N117 C118 1.358 . S
N117 C119 1.400 . S
C118 N116 1.263 . S
C118 N117 1.358 . S
C118 H124 0.930 . S
C119 N117 1.400 . S
C119 C120 1.351 . S
C119 H136 0.930 . S
C120 N116 1.389 . S
C120 C119 1.351 . S
C120 H125 0.930 . S
O121 Cu115 1.974 . S
O121 C131 1.282 . S
C122 O123 1.261 . S
C122 O135 1.251 . S
O123 C122 1.261 . S
H124 C118 0.930 . S
H125 C120 0.930 . S
N126 Cu115 1.985 . S
N126 C128 1.335 . S
N126 C129 1.390 . S
N127 C128 1.345 . S
N127 C130 1.336 . S
C128 N126 1.335 . S
C128 N127 1.345 . S
C128 H133 0.930 . S
C129 N126 1.390 . S
C129 C130 1.346 . S
C129 H134 0.930 . S
C130 N127 1.336 . S
C130 C129 1.346 . S
C130 H137 0.929 . S
C131 O121 1.282 . S
C131 O132 1.216 . S
O132 C131 1.216 . S
H133 C128 0.930 . S
H134 C129 0.930 . S
O135 Cu115 1.959 . S
O135 C122 1.251 . S
H136 C119 0.930 . S
H137 C130 0.929 . S
Cu138 N139 1.999 1_554 S
Cu138 O144 1.974 1_564 S
Cu138 N149 1.985 1_565 S
Cu138 O158 1.959 . S
N139 Cu138 1.999 1_556 S
N139 C141 1.263 . S
N139 C143 1.389 . S
N140 C141 1.358 . S
N140 C142 1.400 . S
C141 N139 1.263 . S
C141 N140 1.358 . S
C141 H147 0.930 1_565 S
C142 N140 1.400 . S
C142 C143 1.351 . S
C142 H159 0.930 . S
C143 N139 1.389 . S
C143 C142 1.351 . S
C143 H148 0.930 . S
O144 Cu138 1.974 1_546 S
O144 C154 1.282 . S
C145 O146 1.261 . S
C145 O158 1.251 . S
O146 C145 1.261 . S
H147 C141 0.930 1_545 S
H148 C143 0.930 . S
N149 Cu138 1.985 1_545 S
N149 C151 1.335 1_545 S
N149 C152 1.390 . S
N150 C151 1.345 1_545 S
N150 C153 1.336 . S
C151 N149 1.335 1_565 S
C151 N150 1.345 1_565 S
C151 H156 0.930 . S
C152 N149 1.390 . S
C152 C153 1.346 . S
C152 H157 0.930 . S
C153 N150 1.336 . S
C153 C152 1.346 . S
C153 H160 0.929 . S
C154 O144 1.282 . S
C154 O155 1.216 . S
O155 C154 1.216 . S
H156 C151 0.930 . S
H157 C152 0.930 . S
O158 Cu138 1.959 . S
O158 C145 1.251 . S
H159 C142 0.930 . S
H160 C153 0.929 . S
Cu161 N162 1.999 . S
Cu161 O167 1.974 . S
Cu161 N172 1.985 . S
Cu161 O181 1.959 . S
N162 Cu161 1.999 . S
N162 C164 1.263 . S
N162 C166 1.389 . S
N163 C164 1.358 . S
N163 C165 1.400 . S
C164 N162 1.263 . S
C164 N163 1.358 . S
C164 H170 0.930 . S
C165 N163 1.400 . S
C165 C166 1.351 . S
C165 H182 0.930 . S
C166 N162 1.389 . S
C166 C165 1.351 . S
C166 H171 0.930 . S
O167 Cu161 1.974 . S
O167 C177 1.282 . S
C168 O169 1.261 . S
C168 O181 1.251 . S
O169 C168 1.261 . S
H170 C164 0.930 . S
H171 C166 0.930 . S
N172 Cu161 1.985 . S
N172 C174 1.335 . S
N172 C175 1.390 . S
N173 C174 1.345 . S
N173 C176 1.336 . S
C174 N172 1.335 . S
C174 N173 1.345 . S
C174 H179 0.930 . S
C175 N172 1.390 . S
C175 C176 1.346 . S
C175 H180 0.930 . S
C176 N173 1.336 . S
C176 C175 1.346 . S
C176 H183 0.929 . S
C177 O167 1.282 . S
C177 O178 1.216 . S
O178 C177 1.216 . S
H179 C174 0.930 . S
H180 C175 0.930 . S
O181 Cu161 1.959 . S
O181 C168 1.251 . S
H182 C165 0.930 . S
H183 C176 0.929 . S
Cu184 N185 1.999 . S
Cu184 O190 1.974 . S
Cu184 N195 1.985 . S
Cu184 O204 1.959 . S
N185 Cu184 1.999 . S
N185 C187 1.263 . S
N185 C189 1.389 . S
N186 C187 1.358 . S
N186 C188 1.400 . S
C187 N185 1.263 . S
C187 N186 1.358 . S
C187 H193 0.930 . S
C188 N186 1.400 . S
C188 C189 1.351 . S
C188 H205 0.930 . S
C189 N185 1.389 . S
C189 C188 1.351 . S
C189 H194 0.930 . S
O190 Cu184 1.974 . S
O190 C200 1.282 . S
C191 O192 1.261 . S
C191 O204 1.251 . S
O192 C191 1.261 . S
H193 C187 0.930 . S
H194 C189 0.930 . S
N195 Cu184 1.985 . S
N195 C197 1.335 . S
N195 C198 1.390 . S
N196 C197 1.345 . S
N196 C199 1.336 . S
C197 N195 1.335 . S
C197 N196 1.345 . S
C197 H202 0.930 . S
C198 N195 1.390 . S
C198 C199 1.346 . S
C198 H203 0.930 . S
C199 N196 1.336 . S
C199 C198 1.346 . S
C199 H206 0.929 . S
C200 O190 1.282 . S
C200 O201 1.216 . S
O201 C200 1.216 . S
H202 C197 0.930 . S
H203 C198 0.930 . S
O204 Cu184 1.959 . S
O204 C191 1.251 . S
H205 C188 0.930 . S
H206 C199 0.929 . S
Cu207 N208 1.999 . S
Cu207 O213 1.974 . S
Cu207 N218 1.985 . S
Cu207 O227 1.959 . S
N208 Cu207 1.999 . S
N208 C210 1.263 . S
N208 C212 1.389 . S
N209 C210 1.358 . S
N209 C211 1.400 . S
C210 N208 1.263 . S
C210 N209 1.358 . S
C210 H216 0.930 . S
C211 N209 1.400 . S
C211 C212 1.351 . S
C211 H228 0.930 . S
C212 N208 1.389 . S
C212 C211 1.351 . S
C212 H217 0.930 . S
O213 Cu207 1.974 . S
O213 C223 1.282 . S
C214 O215 1.261 . S
C214 O227 1.251 . S
O215 C214 1.261 . S
H216 C210 0.930 . S
H217 C212 0.930 . S
N218 Cu207 1.985 . S
N218 C220 1.335 . S
N218 C221 1.390 . S
N219 C220 1.345 . S
N219 C222 1.336 . S
C220 N218 1.335 . S
C220 N219 1.345 . S
C220 H225 0.930 . S
C221 N218 1.390 . S
C221 C222 1.346 . S
C221 H226 0.930 . S
C222 N219 1.336 . S
C222 C221 1.346 . S
C222 H229 0.929 . S
C223 O213 1.282 . S
C223 O224 1.216 . S
O224 C223 1.216 . S
H225 C220 0.930 . S
H226 C221 0.930 . S
O227 Cu207 1.959 . S
O227 C214 1.251 . S
H228 C211 0.930 . S
H229 C222 0.929 . S
Cu230 N231 1.999 . S
Cu230 O236 1.974 . S
Cu230 N241 1.985 . S
Cu230 O250 1.959 . S
N231 Cu230 1.999 . S
N231 C233 1.263 . S
N231 C235 1.389 . S
N232 C233 1.358 . S
N232 C234 1.400 . S
C233 N231 1.263 . S
C233 N232 1.358 . S
C233 H239 0.930 . S
C234 N232 1.400 . S
C234 C235 1.351 . S
C234 H251 0.930 . S
C235 N231 1.389 . S
C235 C234 1.351 . S
C235 H240 0.930 . S
O236 Cu230 1.974 . S
O236 C246 1.282 . S
C237 O238 1.261 . S
C237 O250 1.251 . S
O238 C237 1.261 . S
H239 C233 0.930 . S
H240 C235 0.930 . S
N241 Cu230 1.985 . S
N241 C243 1.335 . S
N241 C244 1.390 . S
N242 C243 1.345 . S
N242 C245 1.336 . S
C243 N241 1.335 . S
C243 N242 1.345 . S
C243 H248 0.930 . S
C244 N241 1.390 . S
C244 C245 1.346 . S
C244 H249 0.930 . S
C245 N242 1.336 . S
C245 C244 1.346 . S
C245 H252 0.929 . S
C246 O236 1.282 . S
C246 O247 1.216 . S
O247 C246 1.216 . S
H248 C243 0.930 . S
H249 C244 0.930 . S
O250 Cu230 1.959 . S
O250 C237 1.251 . S
H251 C234 0.930 . S
H252 C245 0.929 . S
Cu253 N254 1.999 . S
Cu253 O259 1.974 . S
Cu253 N264 1.985 . S
Cu253 O273 1.959 . S
N254 Cu253 1.999 . S
N254 C256 1.263 . S
N254 C258 1.389 . S
N255 C256 1.358 . S
N255 C257 1.400 . S
C256 N254 1.263 . S
C256 N255 1.358 . S
C256 H262 0.930 . S
C257 N255 1.400 . S
C257 C258 1.351 . S
C257 H274 0.930 . S
C258 N254 1.389 . S
C258 C257 1.351 . S
C258 H263 0.930 . S
O259 Cu253 1.974 . S
O259 C269 1.282 . S
C260 O261 1.261 . S
C260 O273 1.251 . S
O261 C260 1.261 . S
H262 C256 0.930 . S
H263 C258 0.930 . S
N264 Cu253 1.985 . S
N264 C266 1.335 . S
N264 C267 1.390 . S
N265 C266 1.345 . S
N265 C268 1.336 . S
C266 N264 1.335 . S
C266 N265 1.345 . S
C266 H271 0.930 . S
C267 N264 1.390 . S
C267 C268 1.346 . S
C267 H272 0.930 . S
C268 N265 1.336 . S
C268 C267 1.346 . S
C268 H275 0.929 . S
C269 O259 1.282 . S
C269 O270 1.216 . S
O270 C269 1.216 . S
H271 C266 0.930 . S
H272 C267 0.930 . S
O273 Cu253 1.959 . S
O273 C260 1.251 . S
H274 C257 0.930 . S
H275 C268 0.929 . S
Cu276 N277 1.999 . S
Cu276 O282 1.974 . S
Cu276 N287 1.985 . S
Cu276 O296 1.959 . S
N277 Cu276 1.999 . S
N277 C279 1.263 . S
N277 C281 1.389 . S
N278 C279 1.358 . S
N278 C280 1.400 . S
C279 N277 1.263 . S
C279 N278 1.358 . S
C279 H285 0.930 . S
C280 N278 1.400 . S
C280 C281 1.351 . S
C280 H297 0.930 . S
C281 N277 1.389 . S
C281 C280 1.351 . S
C281 H286 0.930 . S
O282 Cu276 1.974 . S
O282 C292 1.282 . S
C283 O284 1.261 . S
C283 O296 1.251 . S
O284 C283 1.261 . S
H285 C279 0.930 . S
H286 C281 0.930 . S
N287 Cu276 1.985 . S
N287 C289 1.335 . S
N287 C290 1.390 . S
N288 C289 1.345 . S
N288 C291 1.336 . S
C289 N287 1.335 . S
C289 N288 1.345 . S
C289 H294 0.930 . S
C290 N287 1.390 . S
C290 C291 1.346 . S
C290 H295 0.930 . S
C291 N288 1.336 . S
C291 C290 1.346 . S
C291 H298 0.929 . S
C292 O282 1.282 . S
C292 O293 1.216 . S
O293 C292 1.216 . S
H294 C289 0.930 . S
H295 C290 0.930 . S
O296 Cu276 1.959 . S
O296 C283 1.251 . S
H297 C280 0.930 . S
H298 C291 0.929 . S
Cu299 N300 1.999 . S
Cu299 O305 1.974 1_554 S
Cu299 N310 1.985 1_455 S
Cu299 O319 1.959 . S
N300 Cu299 1.999 . S
N300 C302 1.263 1_554 S
N300 C304 1.389 . S
N301 C302 1.358 . S
N301 C303 1.400 1_556 S
C302 N300 1.263 1_556 S
C302 N301 1.358 . S
C302 H308 0.930 . S
C303 N301 1.400 1_554 S
C303 C304 1.351 . S
C303 H320 0.930 . S
C304 N300 1.389 . S
C304 C303 1.351 . S
C304 H309 0.930 . S
O305 Cu299 1.974 1_556 S
O305 C315 1.282 1_455 S
C306 O307 1.261 1_455 S
C306 O319 1.251 . S
O307 C306 1.261 1_655 S
H308 C302 0.930 . S
H309 C304 0.930 . S
N310 Cu299 1.985 1_655 S
N310 C312 1.335 . S
N310 C313 1.390 . S
N311 C312 1.345 . S
N311 C314 1.336 . S
C312 N310 1.335 . S
C312 N311 1.345 . S
C312 H317 0.930 . S
C313 N310 1.390 . S
C313 C314 1.346 . S
C313 H318 0.930 1_554 S
C314 N311 1.336 . S
C314 C313 1.346 . S
C314 H321 0.929 . S
C315 O305 1.282 1_655 S
C315 O316 1.216 . S
O316 C315 1.216 . S
H317 C312 0.930 . S
H318 C313 0.930 1_556 S
O319 Cu299 1.959 . S
O319 C306 1.251 . S
H320 C303 0.930 . S
H321 C314 0.929 . S
Cu322 N323 1.999 1_554 S
Cu322 O328 1.974 1_554 S
Cu322 N333 1.985 . S
Cu322 O342 1.959 . S
N323 Cu322 1.999 1_556 S
N323 C325 1.263 . S
N323 C327 1.389 . S
N324 C325 1.358 . S
N324 C326 1.400 . S
C325 N323 1.263 . S
C325 N324 1.358 . S
C325 H331 0.930 . S
C326 N324 1.400 . S
C326 C327 1.351 . S
C326 H343 0.930 . S
C327 N323 1.389 . S
C327 C326 1.351 . S
C327 H332 0.930 . S
O328 Cu322 1.974 1_556 S
O328 C338 1.282 . S
C329 O330 1.261 . S
C329 O342 1.251 . S
O330 C329 1.261 . S
H331 C325 0.930 . S
H332 C327 0.930 . S
N333 Cu322 1.985 . S
N333 C335 1.335 . S
N333 C336 1.390 . S
N334 C335 1.345 . S
N334 C337 1.336 . S
C335 N333 1.335 . S
C335 N334 1.345 . S
C335 H340 0.930 . S
C336 N333 1.390 . S
C336 C337 1.346 . S
C336 H341 0.930 . S
C337 N334 1.336 . S
C337 C336 1.346 . S
C337 H344 0.929 . S
C338 O328 1.282 . S
C338 O339 1.216 . S
O339 C338 1.216 . S
H340 C335 0.930 . S
H341 C336 0.930 . S
O342 Cu322 1.959 . S
O342 C329 1.251 . S
H343 C326 0.930 . S
H344 C337 0.929 . S
Cu345 N346 1.999 1_655 S
Cu345 O351 1.974 . S
Cu345 N356 1.985 . S
Cu345 O365 1.959 1_655 S
N346 Cu345 1.999 1_455 S
N346 C348 1.263 . S
N346 C350 1.389 . S
N347 C348 1.358 . S
N347 C349 1.400 . S
C348 N346 1.263 . S
C348 N347 1.358 . S
C348 H354 0.930 . S
C349 N347 1.400 . S
C349 C350 1.351 . S
C349 H366 0.930 . S
C350 N346 1.389 . S
C350 C349 1.351 . S
C350 H355 0.930 . S
O351 Cu345 1.974 . S
O351 C361 1.282 . S
C352 O353 1.261 . S
C352 O365 1.251 . S
O353 C352 1.261 . S
H354 C348 0.930 . S
H355 C350 0.930 . S
N356 Cu345 1.985 . S
N356 C358 1.335 . S
N356 C359 1.390 . S
N357 C358 1.345 . S
N357 C360 1.336 . S
C358 N356 1.335 . S
C358 N357 1.345 . S
C358 H363 0.930 1_655 S
C359 N356 1.390 . S
C359 C360 1.346 . S
C359 H364 0.930 . S
C360 N357 1.336 . S
C360 C359 1.346 . S
C360 H367 0.929 . S
C361 O351 1.282 . S
C361 O362 1.216 . S
O362 C361 1.216 . S
H363 C358 0.930 1_455 S
H364 C359 0.930 . S
O365 Cu345 1.959 1_455 S
O365 C352 1.251 . S
H366 C349 0.930 . S
H367 C360 0.929 . S
C368 C369 1.369 1_655 S
C368 C370 1.419 . S
C368 H372 0.930 . S
C369 C368 1.369 1_455 S
C369 C378 1.429 . S
C370 C368 1.419 . S
C370 C371 1.363 1_655 S
C370 H373 0.929 . S
C371 C370 1.363 1_455 S
C371 C377 1.428 . S
H372 C368 0.930 . S
H373 C370 0.929 . S
S374 N375 1.613 . S
S374 N376 1.610 . S
N375 S374 1.613 . S
N375 C378 1.350 1_565 S
N376 S374 1.610 . S
N376 C377 1.351 1_565 S
C377 C371 1.428 . S
C377 N376 1.351 1_545 S
C377 C378 1.434 . S
C378 C369 1.429 . S
C378 N375 1.350 1_545 S
C378 C377 1.434 . S
C379 C380 1.369 . S
C379 C381 1.419 . S
C379 H383 0.930 . S
C380 C379 1.369 . S
C380 C389 1.429 . S
C381 C379 1.419 . S
C381 C382 1.363 . S
C381 H384 0.929 . S
C382 C381 1.363 . S
C382 C388 1.428 . S
H383 C379 0.930 . S
H384 C381 0.929 . S
S385 N386 1.613 . S
S385 N387 1.610 . S
N386 S385 1.613 . S
N386 C389 1.350 . S
N387 S385 1.610 . S
N387 C388 1.351 . S
C388 C382 1.428 . S
C388 N387 1.351 . S
C388 C389 1.434 . S
C389 C380 1.429 . S
C389 N386 1.350 . S
C389 C388 1.434 . S
C390 C391 1.369 . S
C390 C392 1.419 . S
C390 H394 0.930 . S
C391 C390 1.369 . S
C391 C400 1.429 1_565 S
C392 C390 1.419 . S
C392 C393 1.363 1_565 S
C392 H395 0.929 . S
C393 C392 1.363 1_545 S
C393 C399 1.428 . S
H394 C390 0.930 . S
H395 C392 0.929 . S
S396 N397 1.613 . S
S396 N398 1.610 . S
N397 S396 1.613 . S
N397 C400 1.350 . S
N398 S396 1.610 . S
N398 C399 1.351 . S
C399 C393 1.428 . S
C399 N398 1.351 . S
C399 C400 1.434 . S
C400 C391 1.429 1_545 S
C400 N397 1.350 . S
C400 C399 1.434 . S
C401 C402 1.369 1_554 S
C401 C403 1.419 . S
C401 H405 0.930 . S
C402 C401 1.369 1_556 S
C402 C411 1.429 1_556 S
C403 C401 1.419 . S
C403 C404 1.363 . S
C403 H406 0.929 . S
C404 C403 1.363 . S
C404 C410 1.428 . S
H405 C401 0.930 . S
H406 C403 0.929 . S
S407 N408 1.613 1_554 S
S407 N409 1.610 . S
N408 S407 1.613 1_556 S
N408 C411 1.350 1_556 S
N409 S407 1.610 . S
N409 C410 1.351 . S
C410 C404 1.428 . S
C410 N409 1.351 . S
C410 C411 1.434 . S
C411 C402 1.429 1_554 S
C411 N408 1.350 1_554 S
C411 C410 1.434 . S
C412 C413 1.369 . S
C412 C414 1.419 . S
C412 H416 0.930 . S
C413 C412 1.369 . S
C413 C422 1.429 . S
C414 C412 1.419 . S
C414 C415 1.363 . S
C414 H417 0.929 . S
C415 C414 1.363 . S
C415 C421 1.428 1_455 S
H416 C412 0.930 . S
H417 C414 0.929 . S
S418 N419 1.613 . S
S418 N420 1.610 . S
N419 S418 1.613 . S
N419 C422 1.350 1_655 S
N420 S418 1.610 . S
N420 C421 1.351 . S
C421 C415 1.428 1_655 S
C421 N420 1.351 . S
C421 C422 1.434 1_655 S
C422 C413 1.429 . S
C422 N419 1.350 1_455 S
C422 C421 1.434 1_455 S
C423 C424 1.369 . S
C423 C425 1.419 . S
C423 H427 0.930 . S
C424 C423 1.369 . S
C424 C433 1.429 . S
C425 C423 1.419 . S
C425 C426 1.363 . S
C425 H428 0.929 . S
C426 C425 1.363 . S
C426 C432 1.428 . S
H427 C423 0.930 . S
H428 C425 0.929 . S
S429 N430 1.613 . S
S429 N431 1.610 . S
N430 S429 1.613 . S
N430 C433 1.350 . S
N431 S429 1.610 . S
N431 C432 1.351 . S
C432 C426 1.428 . S
C432 N431 1.351 . S
C432 C433 1.434 . S
C433 C424 1.429 . S
C433 N430 1.350 . S
C433 C432 1.434 . S
C434 C435 1.369 . S
C434 C436 1.419 . S
C434 H438 0.930 . S
C435 C434 1.369 . S
C435 C444 1.429 1_545 S
C436 C434 1.419 . S
C436 C437 1.363 . S
C436 H439 0.929 . S
C437 C436 1.363 . S
C437 C443 1.428 1_545 S
H438 C434 0.930 . S
H439 C436 0.929 . S
S440 N441 1.613 . S
S440 N442 1.610 . S
N441 S440 1.613 . S
N441 C444 1.350 . S
N442 S440 1.610 . S
N442 C443 1.351 . S
C443 C437 1.428 1_565 S
C443 N442 1.351 . S
C443 C444 1.434 . S
C444 C435 1.429 1_565 S
C444 N441 1.350 . S
C444 C443 1.434 . S
C445 C446 1.369 . S
C445 C447 1.419 1_554 S
C445 H449 0.930 . S
C446 C445 1.369 . S
C446 C455 1.429 . S
C447 C445 1.419 1_556 S
C447 C448 1.363 . S
C447 H450 0.929 . S
C448 C447 1.363 . S
C448 C454 1.428 . S
H449 C445 0.930 . S
H450 C447 0.929 . S
S451 N452 1.613 1_556 S
S451 N453 1.610 . S
N452 S451 1.613 1_554 S
N452 C455 1.350 . S
N453 S451 1.610 . S
N453 C454 1.351 . S
C454 C448 1.428 . S
C454 N453 1.351 . S
C454 C455 1.434 1_556 S
C455 C446 1.429 . S
C455 N452 1.350 . S
C455 C454 1.434 1_554 S
C456 C457 1.369 . S
C456 C458 1.419 . S
C456 H460 0.930 . S
C457 C456 1.369 . S
C457 C466 1.429 . S
C458 C456 1.419 . S
C458 C459 1.363 . S
C458 H461 0.929 . S
C459 C458 1.363 . S
C459 C465 1.428 . S
H460 C456 0.930 . S
H461 C458 0.929 . S
S462 N463 1.613 . S
S462 N464 1.610 . S
N463 S462 1.613 . S
N463 C466 1.350 . S
N464 S462 1.610 . S
N464 C465 1.351 . S
C465 C459 1.428 . S
C465 N464 1.351 . S
C465 C466 1.434 . S
C466 C457 1.429 . S
C466 N463 1.350 . S
C466 C465 1.434 . S
C467 C468 1.369 1_554 S
C467 C469 1.419 . S
C467 H471 0.930 . S
C468 C467 1.369 1_556 S
C468 C477 1.429 . S
C469 C467 1.419 . S
C469 C470 1.363 . S
C469 H472 0.929 . S
C470 C469 1.363 . S
C470 C476 1.428 . S
H471 C467 0.930 . S
H472 C469 0.929 . S
S473 N474 1.613 . S
S473 N475 1.610 1_556 S
N474 S473 1.613 . S
N474 C477 1.350 . S
N475 S473 1.610 1_554 S
N475 C476 1.351 . S
C476 C470 1.428 . S
C476 N475 1.351 . S
C476 C477 1.434 1_554 S
C477 C468 1.429 . S
C477 N474 1.350 . S
C477 C476 1.434 1_556 S
C478 C479 1.369 1_655 S
C478 C480 1.419 . S
C478 H482 0.930 . S
C479 C478 1.369 1_455 S
C479 C488 1.429 . S
C480 C478 1.419 . S
C480 C481 1.363 1_655 S
C480 H483 0.929 . S
C481 C480 1.363 1_455 S
C481 C487 1.428 . S
H482 C478 0.930 . S
H483 C480 0.929 . S
S484 N485 1.613 . S
S484 N486 1.610 . S
N485 S484 1.613 . S
N485 C488 1.350 . S
N486 S484 1.610 . S
N486 C487 1.351 . S
C487 C481 1.428 . S
C487 N486 1.351 . S
C487 C488 1.434 . S
C488 C479 1.429 . S
C488 N485 1.350 . S
C488 C487 1.434 . S
C489 C490 1.369 . S
C489 C491 1.419 . S
C489 H493 0.930 . S
C490 C489 1.369 . S
C490 C499 1.429 . S
C491 C489 1.419 . S
C491 C492 1.363 . S
C491 H494 0.929 . S
C492 C491 1.363 . S
C492 C498 1.428 . S
H493 C489 0.930 . S
H494 C491 0.929 . S
S495 N496 1.613 . S
S495 N497 1.610 . S
N496 S495 1.613 . S
N496 C499 1.350 . S
N497 S495 1.610 . S
N497 C498 1.351 . S
C498 C492 1.428 . S
C498 N497 1.351 . S
C498 C499 1.434 . S
C499 C490 1.429 . S
C499 N496 1.350 . S
C499 C498 1.434 . S
C500 C501 1.369 . S
C500 C502 1.419 . S
C500 H504 0.930 . S
C501 C500 1.369 . S
C501 C510 1.429 . S
C502 C500 1.419 . S
C502 C503 1.363 . S
C502 H505 0.929 . S
C503 C502 1.363 . S
C503 C509 1.428 . S
H504 C500 0.930 . S
H505 C502 0.929 . S
S506 N507 1.613 . S
S506 N508 1.610 . S
N507 S506 1.613 . S
N507 C510 1.350 . S
N508 S506 1.610 . S
N508 C509 1.351 . S
C509 C503 1.428 . S
C509 N508 1.351 . S
C509 C510 1.434 . S
C510 C501 1.429 . S
C510 N507 1.350 . S
C510 C509 1.434 . S
C511 C512 1.369 . S
C511 C513 1.419 1_554 S
C511 H515 0.930 . S
C512 C511 1.369 . S
C512 C521 1.429 . S
C513 C511 1.419 1_556 S
C513 C514 1.363 . S
C513 H516 0.929 . S
C514 C513 1.363 . S
C514 C520 1.428 . S
H515 C511 0.930 . S
H516 C513 0.929 . S
S517 N518 1.613 1_556 S
S517 N519 1.610 . S
N518 S517 1.613 1_554 S
N518 C521 1.350 . S
N519 S517 1.610 . S
N519 C520 1.351 . S
C520 C514 1.428 . S
C520 N519 1.351 . S
C520 C521 1.434 1_556 S
C521 C512 1.429 . S
C521 N518 1.350 . S
C521 C520 1.434 1_554 S
C522 C523 1.369 . S
C522 C524 1.419 . S
C522 H526 0.930 . S
C523 C522 1.369 . S
C523 C532 1.429 1_655 S
C524 C522 1.419 . S
C524 C525 1.363 . S
C524 H527 0.929 . S
C525 C524 1.363 . S
C525 C531 1.428 1_655 S
H526 C522 0.930 . S
H527 C524 0.929 . S
S528 N529 1.613 . S
S528 N530 1.610 . S
N529 S528 1.613 . S
N529 C532 1.350 . S
N530 S528 1.610 . S
N530 C531 1.351 . S
C531 C525 1.428 1_455 S
C531 N530 1.351 . S
C531 C532 1.434 . S
C532 C523 1.429 1_455 S
C532 N529 1.350 . S
C532 C531 1.434 . S
C533 C534 1.369 . S
C533 C535 1.419 . S
C533 H537 0.930 . S
C534 C533 1.369 . S
C534 C543 1.429 . S
C535 C533 1.419 . S
C535 C536 1.363 . S
C535 H538 0.929 . S
C536 C535 1.363 . S
C536 C542 1.428 . S
H537 C533 0.930 . S
H538 C535 0.929 . S
S539 N540 1.613 . S
S539 N541 1.610 . S
N540 S539 1.613 . S
N540 C543 1.350 . S
N541 S539 1.610 . S
N541 C542 1.351 . S
C542 C536 1.428 . S
C542 N541 1.351 . S
C542 C543 1.434 . S
C543 C534 1.429 . S
C543 N540 1.350 . S
C543 C542 1.434 . S
C544 C545 1.369 . S
C544 C546 1.419 . S
C544 H548 0.930 . S
C545 C544 1.369 . S
C545 C554 1.429 . S
C546 C544 1.419 . S
C546 C547 1.363 . S
C546 H549 0.929 . S
C547 C546 1.363 . S
C547 C553 1.428 . S
H548 C544 0.930 . S
H549 C546 0.929 . S
S550 N551 1.613 . S
S550 N552 1.610 . S
N551 S550 1.613 . S
N551 C554 1.350 . S
N552 S550 1.610 . S
N552 C553 1.351 . S
C553 C547 1.428 . S
C553 N552 1.351 . S
C553 C554 1.434 . S
C554 C545 1.429 . S
C554 N551 1.350 . S
C554 C553 1.434 . S
C555 C556 1.369 . S
C555 C557 1.419 . S
C555 H559 0.930 . S
C556 C555 1.369 . S
C556 C565 1.429 . S
C557 C555 1.419 . S
C557 C558 1.363 . S
C557 H560 0.929 . S
C558 C557 1.363 . S
C558 C564 1.428 . S
H559 C555 0.930 . S
H560 C557 0.929 . S
S561 N562 1.613 . S
S561 N563 1.610 . S
N562 S561 1.613 . S
N562 C565 1.350 . S
N563 S561 1.610 . S
N563 C564 1.351 . S
C564 C558 1.428 . S
C564 N563 1.351 . S
C564 C565 1.434 . S
C565 C556 1.429 . S
C565 N562 1.350 . S
C565 C564 1.434 . S
C566 C567 1.369 . S
C566 C568 1.419 . S
C566 H570 0.930 . S
C567 C566 1.369 . S
C567 C576 1.429 . S
C568 C566 1.419 . S
C568 C569 1.363 . S
C568 H571 0.929 . S
C569 C568 1.363 . S
C569 C575 1.428 . S
H570 C566 0.930 . S
H571 C568 0.929 . S
S572 N573 1.613 . S
S572 N574 1.610 . S
N573 S572 1.613 . S
N573 C576 1.350 . S
N574 S572 1.610 . S
N574 C575 1.351 . S
C575 C569 1.428 . S
C575 N574 1.351 . S
C575 C576 1.434 . S
C576 C567 1.429 . S
C576 N573 1.350 . S
C576 C575 1.434 . S
C577 C578 1.369 . S
C577 C579 1.419 . S
C577 H581 0.930 . S
C578 C577 1.369 . S
C578 C587 1.429 . S
C579 C577 1.419 . S
C579 C580 1.363 . S
C579 H582 0.929 . S
C580 C579 1.363 . S
C580 C586 1.428 . S
H581 C577 0.930 . S
H582 C579 0.929 . S
S583 N584 1.613 . S
S583 N585 1.610 . S
N584 S583 1.613 . S
N584 C587 1.350 . S
N585 S583 1.610 . S
N585 C586 1.351 . S
C586 C580 1.428 . S
C586 N585 1.351 . S
C586 C587 1.434 . S
C587 C578 1.429 . S
C587 N584 1.350 . S
C587 C586 1.434 . S
C588 C589 1.369 . S
C588 C590 1.419 . S
C588 H592 0.930 . S
C589 C588 1.369 . S
C589 C598 1.429 . S
C590 C588 1.419 . S
C590 C591 1.363 . S
C590 H593 0.929 . S
C591 C590 1.363 . S
C591 C597 1.428 . S
H592 C588 0.930 . S
H593 C590 0.929 . S
S594 N595 1.613 . S
S594 N596 1.610 . S
N595 S594 1.613 . S
N595 C598 1.350 . S
N596 S594 1.610 . S
N596 C597 1.351 . S
C597 C591 1.428 . S
C597 N596 1.351 . S
C597 C598 1.434 . S
C598 C589 1.429 . S
C598 N595 1.350 . S
C598 C597 1.434 . S
C599 C600 1.369 . S
C599 C601 1.419 . S
C599 H603 0.930 . S
C600 C599 1.369 . S
C600 C609 1.429 . S
C601 C599 1.419 . S
C601 C602 1.363 . S
C601 H604 0.929 . S
C602 C601 1.363 . S
C602 C608 1.428 . S
H603 C599 0.930 . S
H604 C601 0.929 . S
S605 N606 1.613 . S
S605 N607 1.610 . S
N606 S605 1.613 . S
N606 C609 1.350 . S
N607 S605 1.610 . S
N607 C608 1.351 . S
C608 C602 1.428 . S
C608 N607 1.351 . S
C608 C609 1.434 . S
C609 C600 1.429 . S
C609 N606 1.350 . S
C609 C608 1.434 . S
C610 C611 1.369 . S
C610 C612 1.419 . S
C610 H614 0.930 . S
C611 C610 1.369 . S
C611 C620 1.429 . S
C612 C610 1.419 . S
C612 C613 1.363 . S
C612 H615 0.929 . S
C613 C612 1.363 . S
C613 C619 1.428 . S
H614 C610 0.930 . S
H615 C612 0.929 . S
S616 N617 1.613 . S
S616 N618 1.610 . S
N617 S616 1.613 . S
N617 C620 1.350 . S
N618 S616 1.610 . S
N618 C619 1.351 . S
C619 C613 1.428 . S
C619 N618 1.351 . S
C619 C620 1.434 . S
C620 C611 1.429 . S
C620 N617 1.350 . S
C620 C619 1.434 . S
C621 C622 1.369 . S
C621 C623 1.419 . S
C621 H625 0.930 . S
C622 C621 1.369 . S
C622 C631 1.429 . S
C623 C621 1.419 . S
C623 C624 1.363 . S
C623 H626 0.929 . S
C624 C623 1.363 . S
C624 C630 1.428 . S
H625 C621 0.930 . S
H626 C623 0.929 . S
S627 N628 1.613 . S
S627 N629 1.610 . S
N628 S627 1.613 . S
N628 C631 1.350 . S
N629 S627 1.610 . S
N629 C630 1.351 . S
C630 C624 1.428 . S
C630 N629 1.351 . S
C630 C631 1.434 . S
C631 C622 1.429 . S
C631 N628 1.350 . S
C631 C630 1.434 . S
C632 C633 1.369 . S
C632 C634 1.419 . S
C632 H636 0.930 . S
C633 C632 1.369 . S
C633 C642 1.429 . S
C634 C632 1.419 . S
C634 C635 1.363 . S
C634 H637 0.929 . S
C635 C634 1.363 . S
C635 C641 1.428 . S
H636 C632 0.930 . S
H637 C634 0.929 . S
S638 N639 1.613 . S
S638 N640 1.610 . S
N639 S638 1.613 . S
N639 C642 1.350 . S
N640 S638 1.610 . S
N640 C641 1.351 . S
C641 C635 1.428 . S
C641 N640 1.351 . S
C641 C642 1.434 . S
C642 C633 1.429 . S
C642 N639 1.350 . S
C642 C641 1.434 . S
C643 C644 1.369 . S
C643 C645 1.419 . S
C643 H647 0.930 . S
C644 C643 1.369 . S
C644 C653 1.429 . S
C645 C643 1.419 . S
C645 C646 1.363 . S
C645 H648 0.929 . S
C646 C645 1.363 . S
C646 C652 1.428 . S
H647 C643 0.930 . S
H648 C645 0.929 . S
S649 N650 1.613 . S
S649 N651 1.610 . S
N650 S649 1.613 . S
N650 C653 1.350 . S
N651 S649 1.610 . S
N651 C652 1.351 . S
C652 C646 1.428 . S
C652 N651 1.351 . S
C652 C653 1.434 . S
C653 C644 1.429 . S
C653 N650 1.350 . S
C653 C652 1.434 . S
C654 C655 1.369 . S
C654 C656 1.419 . S
C654 H658 0.930 . S
C655 C654 1.369 . S
C655 C664 1.429 . S
C656 C654 1.419 . S
C656 C657 1.363 . S
C656 H659 0.929 . S
C657 C656 1.363 . S
C657 C663 1.428 . S
H658 C654 0.930 . S
H659 C656 0.929 . S
S660 N661 1.613 . S
S660 N662 1.610 . S
N661 S660 1.613 . S
N661 C664 1.350 . S
N662 S660 1.610 . S
N662 C663 1.351 . S
C663 C657 1.428 . S
C663 N662 1.351 . S
C663 C664 1.434 . S
C664 C655 1.429 . S
C664 N661 1.350 . S
C664 C663 1.434 . S
C665 C666 1.369 . S
C665 C667 1.419 . S
C665 H669 0.930 . S
C666 C665 1.369 . S
C666 C675 1.429 . S
C667 C665 1.419 . S
C667 C668 1.363 . S
C667 H670 0.929 . S
C668 C667 1.363 . S
C668 C674 1.428 . S
H669 C665 0.930 . S
H670 C667 0.929 . S
S671 N672 1.613 . S
S671 N673 1.610 . S
N672 S671 1.613 . S
N672 C675 1.350 . S
N673 S671 1.610 . S
N673 C674 1.351 . S
C674 C668 1.428 . S
C674 N673 1.351 . S
C674 C675 1.434 . S
C675 C666 1.429 . S
C675 N672 1.350 . S
C675 C674 1.434 . S
C676 C677 1.369 . S
C676 C678 1.419 . S
C676 H680 0.930 . S
C677 C676 1.369 . S
C677 C686 1.429 . S
C678 C676 1.419 . S
C678 C679 1.363 . S
C678 H681 0.929 . S
C679 C678 1.363 . S
C679 C685 1.428 . S
H680 C676 0.930 . S
H681 C678 0.929 . S
S682 N683 1.613 . S
S682 N684 1.610 . S
N683 S682 1.613 . S
N683 C686 1.350 . S
N684 S682 1.610 . S
N684 C685 1.351 . S
C685 C679 1.428 . S
C685 N684 1.351 . S
C685 C686 1.434 . S
C686 C677 1.429 . S
C686 N683 1.350 . S
C686 C685 1.434 . S
C687 C688 1.369 . S
C687 C689 1.419 . S
C687 H691 0.930 . S
C688 C687 1.369 . S
C688 C697 1.429 . S
C689 C687 1.419 . S
C689 C690 1.363 . S
C689 H692 0.929 . S
C690 C689 1.363 . S
C690 C696 1.428 . S
H691 C687 0.930 . S
H692 C689 0.929 . S
S693 N694 1.613 . S
S693 N695 1.610 . S
N694 S693 1.613 . S
N694 C697 1.350 . S
N695 S693 1.610 . S
N695 C696 1.351 . S
C696 C690 1.428 . S
C696 N695 1.351 . S
C696 C697 1.434 . S
C697 C688 1.429 . S
C697 N694 1.350 . S
C697 C696 1.434 . S
C698 C699 1.369 . S
C698 C700 1.419 . S
C698 H702 0.930 . S
C699 C698 1.369 . S
C699 C708 1.429 . S
C700 C698 1.419 . S
C700 C701 1.363 . S
C700 H703 0.929 . S
C701 C700 1.363 . S
C701 C707 1.428 . S
H702 C698 0.930 . S
H703 C700 0.929 . S
S704 N705 1.613 . S
S704 N706 1.610 . S
N705 S704 1.613 . S
N705 C708 1.350 . S
N706 S704 1.610 . S
N706 C707 1.351 . S
C707 C701 1.428 . S
C707 N706 1.351 . S
C707 C708 1.434 . S
C708 C699 1.429 . S
C708 N705 1.350 . S
C708 C707 1.434 . S
C709 C710 1.369 . S
C709 C711 1.419 . S
C709 H713 0.930 . S
C710 C709 1.369 . S
C710 C719 1.429 . S
C711 C709 1.419 . S
C711 C712 1.363 . S
C711 H714 0.929 . S
C712 C711 1.363 . S
C712 C718 1.428 . S
H713 C709 0.930 . S
H714 C711 0.929 . S
S715 N716 1.613 . S
S715 N717 1.610 . S
N716 S715 1.613 . S
N716 C719 1.350 . S
N717 S715 1.610 . S
N717 C718 1.351 . S
C718 C712 1.428 . S
C718 N717 1.351 . S
C718 C719 1.434 . S
C719 C710 1.429 . S
C719 N716 1.350 . S
C719 C718 1.434 . S
C369 C7 1.287 . S
C371 N94 1.295 . S
C380 N35 1.298 . S
C382 C131 1.304 . S
C391 N140 1.304 . S
C393 C53 1.296 . S
C402 N81 1.324 . S
C404 C177 1.337 . S
C413 N104 1.224 . S
C415 C16 1.216 . S
C424 N242 0.508 . S
C426 N186 0.535 . S
C435 N150 1.197 . S
C437 C62 1.193 . S
C446 N209 1.205 . S
C448 C260 1.215 . S
C457 C283 1.291 . S
C459 N324 1.304 . S
C468 N196 0.704 . S
C470 N232 0.704 . S
C479 C306 1.279 . S
C481 N347 1.292 . S
C490 C269 1.339 . S
C492 N219 1.333 . S
C501 N334 1.207 . S
C503 C292 1.197 . S
C512 N25 1.205 . S
C514 C122 1.218 . S
C523 C315 1.212 . S
C525 N357 1.215 . S
C534 C168 1.212 . S
C536 N71 1.198 . S
C545 N12 1.542 . S
C547 N163 1.512 . S
C556 C108 1.603 . S
C558 C30 1.619 . S
C567 N117 1.613 . S
C569 N58 1.646 . S
C578 C76 1.582 . S
C580 C154 1.581 . S
C589 N2 1.581 . S
C591 N265 1.576 . S
C600 C200 1.669 . S
C602 C99 1.652 . S
C611 C237 1.703 . S
C613 N48 1.716 . S
C622 C223 1.613 . S
C624 C145 1.609 . S
C633 N288 1.534 . S
C635 N255 1.505 . S
C644 C338 1.625 . S
C646 C191 1.640 . S
C655 C246 1.667 . S
C657 N311 1.671 . S
C666 C361 1.595 . S
C668 C214 1.631 . S
C677 N173 1.572 . S
C679 N278 1.575 . S
C688 C329 1.613 . S
C690 C39 1.622 . S
C699 N127 1.657 . S
C701 N301 1.662 . S
C710 C352 1.632 . S
C712 C85 1.651 . S
