# Generated by pormake.
# Topology wla, (5)-cn, num edge types: 1
# Building blocks:
#     Node 0, Type 0, BuildingBlock: XOMCOT_clean_sbu_0, # of connection points: 5
#     Node 1, Type 0, BuildingBlock: XOMCOT_clean_sbu_0, # of connection points: 5
#     Node 2, Type 0, BuildingBlock: XOMCOT_clean_sbu_0, # of connection points: 5
#     Node 3, Type 0, BuildingBlock: XOMCOT_clean_sbu_0, # of connection points: 5
#     Node 4, Type 0, BuildingBlock: XOMCOT_clean_sbu_0, # of connection points: 5
#     Node 5, Type 0, BuildingBlock: XOMCOT_clean_sbu_0, # of connection points: 5
#     Node 6, Type 0, BuildingBlock: XOMCOT_clean_sbu_0, # of connection points: 5
#     Node 7, Type 0, BuildingBlock: XOMCOT_clean_sbu_0, # of connection points: 5
#     Node 8, Type 0, BuildingBlock: XOMCOT_clean_sbu_0, # of connection points: 5
#     Node 9, Type 0, BuildingBlock: XOMCOT_clean_sbu_0, # of connection points: 5
#     Node 10, Type 0, BuildingBlock: XOMCOT_clean_sbu_0, # of connection points: 5
#     Node 11, Type 0, BuildingBlock: XOMCOT_clean_sbu_0, # of connection points: 5
#     Node 12, Type 0, BuildingBlock: XOMCOT_clean_sbu_0, # of connection points: 5
#     Node 13, Type 0, BuildingBlock: XOMCOT_clean_sbu_0, # of connection points: 5
#     Node 14, Type 0, BuildingBlock: XOMCOT_clean_sbu_0, # of connection points: 5
#     Node 15, Type 0, BuildingBlock: XOMCOT_clean_sbu_0, # of connection points: 5
#     Node 16, Type 0, BuildingBlock: XOMCOT_clean_sbu_0, # of connection points: 5
#     Node 17, Type 0, BuildingBlock: XOMCOT_clean_sbu_0, # of connection points: 5
#     Edge 18, Type (0, 0), BuildingBlock: TEMPAE_clean_linker_10, # of connection points: 2
#     Edge 19, Type (0, 0), BuildingBlock: TEMPAE_clean_linker_10, # of connection points: 2
#     Edge 20, Type (0, 0), BuildingBlock: TEMPAE_clean_linker_10, # of connection points: 2
#     Edge 21, Type (0, 0), BuildingBlock: TEMPAE_clean_linker_10, # of connection points: 2
#     Edge 22, Type (0, 0), BuildingBlock: TEMPAE_clean_linker_10, # of connection points: 2
#     Edge 23, Type (0, 0), BuildingBlock: TEMPAE_clean_linker_10, # of connection points: 2
#     Edge 24, Type (0, 0), BuildingBlock: TEMPAE_clean_linker_10, # of connection points: 2
#     Edge 25, Type (0, 0), BuildingBlock: TEMPAE_clean_linker_10, # of connection points: 2
#     Edge 26, Type (0, 0), BuildingBlock: TEMPAE_clean_linker_10, # of connection points: 2
#     Edge 27, Type (0, 0), BuildingBlock: TEMPAE_clean_linker_10, # of connection points: 2
#     Edge 28, Type (0, 0), BuildingBlock: TEMPAE_clean_linker_10, # of connection points: 2
#     Edge 29, Type (0, 0), BuildingBlock: TEMPAE_clean_linker_10, # of connection points: 2
#     Edge 30, Type (0, 0), BuildingBlock: TEMPAE_clean_linker_10, # of connection points: 2
#     Edge 31, Type (0, 0), BuildingBlock: TEMPAE_clean_linker_10, # of connection points: 2
#     Edge 32, Type (0, 0), BuildingBlock: TEMPAE_clean_linker_10, # of connection points: 2
#     Edge 33, Type (0, 0), BuildingBlock: TEMPAE_clean_linker_10, # of connection points: 2
#     Edge 34, Type (0, 0), BuildingBlock: TEMPAE_clean_linker_10, # of connection points: 2
#     Edge 35, Type (0, 0), BuildingBlock: TEMPAE_clean_linker_10, # of connection points: 2
#     Edge 36, Type (0, 0), BuildingBlock: TEMPAE_clean_linker_10, # of connection points: 2
#     Edge 37, Type (0, 0), BuildingBlock: TEMPAE_clean_linker_10, # of connection points: 2
#     Edge 38, Type (0, 0), BuildingBlock: TEMPAE_clean_linker_10, # of connection points: 2
#     Edge 39, Type (0, 0), BuildingBlock: TEMPAE_clean_linker_10, # of connection points: 2
#     Edge 40, Type (0, 0), BuildingBlock: TEMPAE_clean_linker_10, # of connection points: 2
#     Edge 41, Type (0, 0), BuildingBlock: TEMPAE_clean_linker_10, # of connection points: 2
#     Edge 42, Type (0, 0), BuildingBlock: TEMPAE_clean_linker_10, # of connection points: 2
#     Edge 43, Type (0, 0), BuildingBlock: TEMPAE_clean_linker_10, # of connection points: 2
#     Edge 44, Type (0, 0), BuildingBlock: TEMPAE_clean_linker_10, # of connection points: 2
#     Edge 45, Type (0, 0), BuildingBlock: TEMPAE_clean_linker_10, # of connection points: 2
#     Edge 46, Type (0, 0), BuildingBlock: TEMPAE_clean_linker_10, # of connection points: 2
#     Edge 47, Type (0, 0), BuildingBlock: TEMPAE_clean_linker_10, # of connection points: 2
#     Edge 48, Type (0, 0), BuildingBlock: TEMPAE_clean_linker_10, # of connection points: 2
#     Edge 49, Type (0, 0), BuildingBlock: TEMPAE_clean_linker_10, # of connection points: 2
#     Edge 50, Type (0, 0), BuildingBlock: TEMPAE_clean_linker_10, # of connection points: 2
#     Edge 51, Type (0, 0), BuildingBlock: TEMPAE_clean_linker_10, # of connection points: 2
#     Edge 52, Type (0, 0), BuildingBlock: TEMPAE_clean_linker_10, # of connection points: 2
#     Edge 53, Type (0, 0), BuildingBlock: TEMPAE_clean_linker_10, # of connection points: 2
#     Edge 54, Type (0, 0), BuildingBlock: TEMPAE_clean_linker_10, # of connection points: 2
#     Edge 55, Type (0, 0), BuildingBlock: TEMPAE_clean_linker_10, # of connection points: 2
#     Edge 56, Type (0, 0), BuildingBlock: TEMPAE_clean_linker_10, # of connection points: 2
#     Edge 57, Type (0, 0), BuildingBlock: TEMPAE_clean_linker_10, # of connection points: 2
#     Edge 58, Type (0, 0), BuildingBlock: TEMPAE_clean_linker_10, # of connection points: 2
#     Edge 59, Type (0, 0), BuildingBlock: TEMPAE_clean_linker_10, # of connection points: 2
#     Edge 60, Type (0, 0), BuildingBlock: TEMPAE_clean_linker_10, # of connection points: 2
#     Edge 61, Type (0, 0), BuildingBlock: TEMPAE_clean_linker_10, # of connection points: 2
#     Edge 62, Type (0, 0), BuildingBlock: TEMPAE_clean_linker_10, # of connection points: 2
# Relax obj value: 0.271
# Max RMSD: 0.259
# Mean RMSD: 0.259
data_MOF--net-wla--node1-XOMCOT_clean_sbu_0--edge1-TEMPAE_clean_linker_10
_symmetry_space_group_name_H-M    P1
_symmetry_Int_Tables_number       1
_symmetry_cell_setting            triclinic
loop_
_symmetry_equiv_pos_as_xyz
'x, y, z'
_cell_length_a     59.479042
_cell_length_b     59.469061
_cell_length_c     31.88583
_cell_angle_alpha  90.013365
_cell_angle_beta   89.989792
_cell_angle_gamma 120.01037
loop_
_atom_site_label
_atom_site_type_symbol
_atom_site_fract_x
_atom_site_fract_y
_atom_site_fract_z
_atom_type_partial_charge
Co0 Co 0.17359 0.03794 0.19986 0.0
C1 C 0.22814 0.08174 0.19813 0.0
C2 C 0.20048 0.09438 0.18981 0.0
C3 C 0.22488 0.1153 0.18369 0.0
N4 N 0.20246 0.07337 0.1999 0.0
N5 N 0.24222 0.10726 0.18884 0.0
H6 H 0.23635 0.0692 0.19925 0.0
H7 H 0.18243 0.09418 0.18456 0.0
C8 C 0.15618 0.06662 0.25573 0.0
O9 O 0.17898 0.07752 0.27423 0.0
N10 N 0.14463 0.00293 0.19824 0.0
C11 C 0.14584 0.98092 0.19698 0.0
C12 C 0.12093 0.96005 0.19787 0.0
C13 C 0.11916 0.99529 0.19998 0.0
N14 N 0.10427 0.96918 0.19999 0.0
C15 C 0.20539 0.02943 0.25968 0.0
C16 C 0.16978 0.01385 0.32432 0.0
C17 C 0.19327 0.01434 0.33117 0.0
C18 C 0.21126 0.02223 0.29825 0.0
C19 C 0.16481 0.02127 0.28567 0.0
N20 N 0.1829 0.03003 0.25432 0.0
H21 H 0.21845 0.03339 0.23382 0.0
H22 H 0.14594 0.01923 0.28078 0.0
H23 H 0.16361 0.98011 0.19633 0.0
H24 H 0.11161 0.00847 0.20132 0.0
O25 O 0.19292 0.02774 0.16301 0.0
O26 O 0.16726 0.04282 0.14253 0.0
O27 O 0.15076 0.05007 0.22641 0.0
C28 C 0.18285 0.0343 0.13236 0.0
H29 H 0.22942 0.13461 0.17429 0.0
H30 H 0.1155 0.93975 0.19825 0.0
H31 H 0.15518 0.00769 0.34869 0.0
H32 H 0.22927 0.02206 0.30184 0.0
Co33 Co 0.9737 0.1442 0.23403 0.0
C34 C 0.93029 0.15467 0.21737 0.0
C35 C 0.92757 0.12315 0.18086 0.0
C36 C 0.9078 0.12743 0.169 0.0
N37 N 0.94152 0.14003 0.21157 0.0
N38 N 0.90958 0.14726 0.19203 0.0
H39 H 0.93764 0.17122 0.23787 0.0
H40 H 0.93186 0.10903 0.16738 0.0
C41 C 0.93255 0.09067 0.25597 0.0
O42 O 0.91778 0.10034 0.26677 0.0
N43 N 0.00587 0.14814 0.25487 0.0
C44 C 0.0227 0.16645 0.28152 0.0
C45 C 0.04202 0.16096 0.29109 0.0
C46 C 0.01535 0.13214 0.24779 0.0
N47 N 0.03732 0.1395 0.26973 0.0
C48 C 0.9697 0.17545 0.29943 0.0
C49 C 0.96519 0.14264 0.36421 0.0
C50 C 0.96911 0.16728 0.37376 0.0
C51 C 0.97063 0.18357 0.34092 0.0
C52 C 0.96437 0.13531 0.32261 0.0
N53 N 0.96642 0.15148 0.29051 0.0
H54 H 0.97375 0.18934 0.27471 0.0
H55 H 0.96447 0.11753 0.3168 0.0
H56 H 0.02085 0.18242 0.2937 0.0
H57 H 0.00609 0.11516 0.22782 0.0
O58 O 0.9919 0.17917 0.21147 0.0
O59 O 0.98465 0.14337 0.17786 0.0
O60 O 0.95604 0.10564 0.24454 0.0
C61 C 0.99409 0.16833 0.17743 0.0
H62 H 0.89347 0.117 0.14493 0.0
H63 H 0.05835 0.17191 0.31183 0.0
H64 H 0.96434 0.12966 0.38881 0.0
H65 H 0.9744 0.20306 0.34718 0.0
Co66 Co 0.85777 0.833 0.19537 0.0
C67 C 0.85198 0.78058 0.18469 0.0
C68 C 0.88579 0.81051 0.15405 0.0
C69 C 0.88318 0.78692 0.14333 0.0
N70 N 0.86636 0.80659 0.18033 0.0
N71 N 0.86193 0.76821 0.16272 0.0
H72 H 0.83356 0.77055 0.20056 0.0
H73 H 0.90011 0.82922 0.14171 0.0
C74 C 0.91176 0.85295 0.22603 0.0
O75 O 0.90376 0.83013 0.24336 0.0
N76 N 0.84941 0.85951 0.20902 0.0
C77 C 0.82791 0.85603 0.22895 0.0
C78 C 0.831 0.88001 0.23831 0.0
C79 C 0.86505 0.88538 0.2057 0.0
N80 N 0.8543 0.8983 0.22359 0.0
C81 C 0.82732 0.7991 0.26253 0.0
C82 C 0.85541 0.83308 0.3262 0.0
C83 C 0.83208 0.81056 0.33599 0.0
C84 C 0.81822 0.79311 0.30376 0.0
C85 C 0.86369 0.83836 0.2848 0.0
N86 N 0.85002 0.82132 0.25335 0.0
H87 H 0.81486 0.78687 0.23782 0.0
H88 H 0.88003 0.85724 0.27802 0.0
H89 H 0.81164 0.83738 0.23765 0.0
H90 H 0.88438 0.89459 0.19238 0.0
O91 O 0.82363 0.81185 0.171 0.0
O92 O 0.85883 0.84131 0.13715 0.0
O93 O 0.89559 0.85779 0.20755 0.0
C94 C 0.83437 0.82374 0.13613 0.0
H95 H 0.89537 0.78369 0.12181 0.0
H96 H 0.81747 0.88377 0.25532 0.0
H97 H 0.86662 0.84722 0.35016 0.0
H98 H 0.79969 0.77588 0.30991 0.0
Co99 Co 0.02355 0.16533 0.81073 0.0
C100 C 0.06588 0.22071 0.81139 0.0
C101 C 0.07795 0.19505 0.8365 0.0
C102 C 0.09777 0.22018 0.842 0.0
N103 N 0.05804 0.19533 0.81673 0.0
N104 N 0.09009 0.23632 0.82638 0.0
H105 H 0.05394 0.22783 0.79848 0.0
H106 H 0.07759 0.17775 0.84792 0.0
C107 C 0.059 0.15165 0.76528 0.0
O108 O 0.07133 0.17527 0.74972 0.0
N109 N 0.98931 0.13532 0.80615 0.0
C110 C 0.96666 0.13526 0.80374 0.0
C111 C 0.94684 0.11001 0.79876 0.0
C112 C 0.98309 0.11028 0.80247 0.0
N113 N 0.95729 0.09445 0.79774 0.0
C114 C 0.01408 0.19533 0.74938 0.0
C115 C 0.00772 0.16318 0.68248 0.0
C116 C 0.00367 0.18416 0.67632 0.0
C117 C 0.00716 0.20057 0.71015 0.0
C118 C 0.01487 0.15885 0.72183 0.0
N119 N 0.01884 0.17525 0.7546 0.0
H120 H 0.01419 0.20661 0.77592 0.0
H121 H 0.0156 0.14126 0.72613 0.0
H122 H 0.96475 0.15241 0.80464 0.0
H123 H 0.99704 0.10369 0.80313 0.0
O124 O 0.0099 0.18316 0.84383 0.0
O125 O 0.0243 0.15778 0.86901 0.0
O126 O 0.03915 0.14439 0.78873 0.0
C127 C 0.01457 0.17271 0.87609 0.0
H128 H 0.11581 0.22606 0.85837 0.0
H129 H 0.92644 0.10366 0.79488 0.0
H130 H 0.00473 0.14976 0.65723 0.0
H131 H 0.00336 0.21649 0.70679 0.0
Co132 Co 0.833 0.84808 0.78163 0.0
C133 C 0.77996 0.84015 0.79342 0.0
C134 C 0.80912 0.87511 0.82246 0.0
C135 C 0.78516 0.87166 0.83296 0.0
N136 N 0.80588 0.85557 0.79701 0.0
N137 N 0.76686 0.84956 0.81485 0.0
H138 H 0.77068 0.82182 0.7773 0.0
H139 H 0.82762 0.89012 0.83439 0.0
C140 C 0.85197 0.90227 0.75275 0.0
O141 O 0.82935 0.8939 0.73444 0.0
N142 N 0.86007 0.84063 0.76757 0.0
C143 C 0.857 0.81946 0.74701 0.0
C144 C 0.88114 0.82307 0.73737 0.0
C145 C 0.88588 0.8566 0.77102 0.0
N146 N 0.89911 0.84635 0.7526 0.0
C147 C 0.79995 0.8182 0.71312 0.0
C148 C 0.83436 0.84772 0.65084 0.0
C149 C 0.81223 0.82433 0.63999 0.0
C150 C 0.79453 0.80974 0.67149 0.0
C151 C 0.83907 0.85535 0.69257 0.0
N152 N 0.82181 0.84099 0.72334 0.0
H153 H 0.78766 0.80518 0.73723 0.0
H154 H 0.85774 0.87178 0.70012 0.0
H155 H 0.8385 0.80307 0.73805 0.0
H156 H 0.8948 0.8758 0.7848 0.0
O157 O 0.81237 0.81346 0.8048 0.0
O158 O 0.84104 0.8486 0.83979 0.0
O159 O 0.85717 0.88626 0.77094 0.0
C160 C 0.824 0.82398 0.83996 0.0
H161 H 0.7815 0.88366 0.85423 0.0
H162 H 0.88523 0.80993 0.71985 0.0
H163 H 0.84868 0.85946 0.62746 0.0
H164 H 0.77761 0.79113 0.66446 0.0
Co165 Co 0.14157 0.97115 0.76848 0.0
C166 C 0.15452 0.92874 0.77767 0.0
C167 C 0.11889 0.92018 0.80785 0.0
C168 C 0.12387 0.9005 0.81675 0.0
N169 N 0.13798 0.93784 0.78308 0.0
N170 N 0.14624 0.90594 0.79772 0.0
H171 H 0.17286 0.93892 0.7616 0.0
H172 H 0.10278 0.92192 0.81963 0.0
C173 C 0.09203 0.93095 0.73003 0.0
O174 O 0.10391 0.91843 0.71805 0.0
N175 N 0.14477 0.00423 0.7554 0.0
C176 C 0.16487 0.0244 0.73593 0.0
C177 C 0.15875 0.04361 0.72974 0.0
C178 C 0.12695 0.01156 0.76171 0.0
N179 N 0.13502 0.03545 0.74607 0.0
C180 C 0.18005 0.9763 0.7076 0.0
C181 C 0.15191 0.97591 0.63842 0.0
C182 C 0.17735 0.98108 0.63262 0.0
C183 C 0.19142 0.98079 0.66764 0.0
C184 C 0.14139 0.97158 0.67846 0.0
N185 N 0.15509 0.97121 0.71263 0.0
H186 H 0.1919 0.97854 0.73464 0.0
H187 H 0.12286 0.97049 0.68182 0.0
H188 H 0.18258 0.02496 0.72634 0.0
H189 H 0.10833 0.9995 0.77659 0.0
O190 O 0.17364 0.98867 0.80077 0.0
O191 O 0.13392 0.97463 0.82547 0.0
O192 O 0.10456 0.95296 0.74827 0.0
C193 C 0.15865 0.98561 0.83273 0.0
H194 H 0.11225 0.88374 0.83634 0.0
H195 H 0.1708 0.06221 0.71477 0.0
H196 H 0.14048 0.9763 0.61225 0.0
H197 H 0.21141 0.98541 0.66449 0.0
Co198 Co 0.83126 0.35715 0.53758 0.0
C199 C 0.88513 0.40198 0.5304 0.0
C200 C 0.85703 0.40879 0.49999 0.0
C201 C 0.88134 0.42915 0.49103 0.0
N202 N 0.85936 0.39183 0.52501 0.0
N203 N 0.89914 0.42487 0.51007 0.0
H204 H 0.89353 0.39235 0.54718 0.0
H205 H 0.8389 0.40585 0.48724 0.0
C206 C 0.81393 0.39289 0.5715 0.0
O207 O 0.83673 0.40664 0.58948 0.0
N208 N 0.80302 0.32271 0.549 0.0
C209 C 0.80476 0.30286 0.56571 0.0
C210 C 0.78018 0.28343 0.57626 0.0
C211 C 0.77757 0.31507 0.54899 0.0
N212 N 0.76306 0.29121 0.56602 0.0
C213 C 0.86345 0.35576 0.60384 0.0
C214 C 0.83029 0.35101 0.6682 0.0
C215 C 0.85175 0.34815 0.67717 0.0
C216 C 0.8688 0.35113 0.64465 0.0
C217 C 0.82573 0.3557 0.62724 0.0
N218 N 0.84241 0.35853 0.59549 0.0
H219 H 0.87517 0.35505 0.57868 0.0
H220 H 0.80758 0.35494 0.62095 0.0
H221 H 0.82275 0.3031 0.57197 0.0
H222 H 0.77002 0.32714 0.53777 0.0
O223 O 0.85069 0.34286 0.51081 0.0
O224 O 0.823 0.35209 0.47904 0.0
O225 O 0.80836 0.37205 0.55179 0.0
C226 C 0.83934 0.3437 0.47642 0.0
H227 H 0.8854 0.44506 0.47015 0.0
H228 H 0.77557 0.26558 0.5922 0.0
H229 H 0.81642 0.34846 0.69241 0.0
H230 H 0.88515 0.34824 0.65019 0.0
Co231 Co 0.63022 0.47074 0.53966 0.0
C232 C 0.58536 0.48013 0.54163 0.0
C233 C 0.57524 0.44252 0.51792 0.0
C234 C 0.55417 0.44592 0.51316 0.0
N235 N 0.59477 0.46386 0.53617 0.0
N236 N 0.56063 0.46955 0.52814 0.0
H237 H 0.59666 0.49999 0.55187 0.0
H238 H 0.5767 0.4261 0.50682 0.0
C239 C 0.59825 0.42173 0.58762 0.0
O240 O 0.58565 0.43228 0.60482 0.0
N241 N 0.66537 0.47723 0.54177 0.0
C242 C 0.68717 0.50064 0.5428 0.0
C243 C 0.70822 0.49698 0.54575 0.0
C244 C 0.67331 0.45965 0.54433 0.0
N245 N 0.69939 0.47122 0.54694 0.0
C246 C 0.63811 0.50992 0.6009 0.0
C247 C 0.64784 0.48616 0.66725 0.0
C248 C 0.64945 0.51019 0.67389 0.0
C249 C 0.64439 0.52212 0.6402 0.0
C250 C 0.64139 0.47468 0.62783 0.0
N251 N 0.63555 0.48594 0.59547 0.0
H252 H 0.6365 0.52036 0.57451 0.0
H253 H 0.64231 0.45721 0.62321 0.0
H254 H 0.68771 0.51909 0.54218 0.0
H255 H 0.66038 0.43885 0.54423 0.0
O256 O 0.64166 0.50154 0.50527 0.0
O257 O 0.62807 0.46166 0.48159 0.0
O258 O 0.61715 0.43477 0.56262 0.0
C259 C 0.63662 0.48601 0.47338 0.0
H260 H 0.53591 0.43256 0.4983 0.0
H261 H 0.72839 0.51204 0.54802 0.0
H262 H 0.65195 0.47641 0.69226 0.0
H263 H 0.6463 0.54111 0.64377 0.0
Co264 Co 0.51999 0.16134 0.54668 0.0
C265 C 0.5075 0.10852 0.52468 0.0
C266 C 0.54574 0.13663 0.50374 0.0
C267 C 0.54069 0.11229 0.49158 0.0
N268 N 0.52491 0.13407 0.52457 0.0
N269 N 0.5166 0.09467 0.50475 0.0
H270 H 0.48858 0.10034 0.53917 0.0
H271 H 0.56314 0.1549 0.49726 0.0
C272 C 0.56915 0.19541 0.59548 0.0
O273 O 0.55625 0.19879 0.62595 0.0
N274 N 0.51531 0.18925 0.56837 0.0
C275 C 0.49698 0.1881 0.59478 0.0
C276 C 0.50263 0.21292 0.60433 0.0
C277 C 0.53124 0.21482 0.561 0.0
N278 N 0.52413 0.22956 0.58313 0.0
C279 C 0.48156 0.1289 0.60741 0.0
C280 C 0.5161 0.1307 0.66693 0.0
C281 C 0.49014 0.12126 0.67874 0.0
C282 C 0.47246 0.11877 0.64738 0.0
C283 C 0.52417 0.14009 0.6264 0.0
N284 N 0.50752 0.14178 0.59886 0.0
H285 H 0.46789 0.12801 0.58426 0.0
H286 H 0.54406 0.14675 0.61802 0.0
H287 H 0.48053 0.1708 0.60676 0.0
H288 H 0.54835 0.22251 0.54133 0.0
O289 O 0.48765 0.14758 0.51523 0.0
O290 O 0.52667 0.17688 0.49239 0.0
O291 O 0.55725 0.18013 0.56501 0.0
C292 C 0.50207 0.16244 0.48474 0.0
H293 H 0.55356 0.10804 0.4736 0.0
H294 H 0.49178 0.21838 0.62517 0.0
H295 H 0.53058 0.13236 0.6892 0.0
H296 H 0.45195 0.11026 0.65407 0.0
Co297 Co 0.6988 0.50524 0.11028 0.0
C298 C 0.74231 0.56028 0.11224 0.0
C299 C 0.75209 0.53374 0.14091 0.0
C300 C 0.77243 0.55852 0.14668 0.0
N301 N 0.73327 0.53476 0.11894 0.0
N302 N 0.76626 0.57527 0.12874 0.0
H303 H 0.73146 0.5679 0.09692 0.0
H304 H 0.75066 0.51615 0.15336 0.0
C305 C 0.73522 0.49186 0.06716 0.0
O306 O 0.74852 0.51577 0.05302 0.0
N307 N 0.66458 0.47568 0.10291 0.0
C308 C 0.64245 0.47625 0.0971 0.0
C309 C 0.62249 0.45125 0.09074 0.0
C310 C 0.65795 0.4505 0.09992 0.0
N311 N 0.63234 0.43517 0.09232 0.0
C312 C 0.69106 0.53671 0.04932 0.0
C313 C 0.68715 0.50635 0.98109 0.0
C314 C 0.68304 0.52732 0.9752 0.0
C315 C 0.68532 0.54286 0.00976 0.0
C316 C 0.69292 0.50102 0.02077 0.0
N317 N 0.69569 0.51654 0.05428 0.0
H318 H 0.69055 0.54746 0.07623 0.0
H319 H 0.69356 0.48336 0.02454 0.0
H320 H 0.64103 0.49369 0.09666 0.0
H321 H 0.67149 0.44349 0.10327 0.0
O322 O 0.68424 0.52217 0.14389 0.0
O323 O 0.69829 0.49641 0.16809 0.0
O324 O 0.71456 0.48446 0.08855 0.0
C325 C 0.68833 0.51104 0.17589 0.0
H326 H 0.78979 0.56375 0.16466 0.0
H327 H 0.60244 0.44543 0.08431 0.0
H328 H 0.68518 0.49361 0.95531 0.0
H329 H 0.68151 0.55878 0.00662 0.0
Co330 Co 0.49807 0.19307 0.12033 0.0
C331 C 0.44495 0.18559 0.1167 0.0
C332 C 0.47382 0.22573 0.12153 0.0
C333 C 0.4498 0.22356 0.12563 0.0
N334 N 0.47087 0.20196 0.11481 0.0
N335 N 0.43171 0.19827 0.12265 0.0
H336 H 0.43596 0.16473 0.11854 0.0
H337 H 0.4921 0.2433 0.12686 0.0
C338 C 0.52446 0.2421 0.06966 0.0
O339 O 0.50511 0.23185 0.04281 0.0
N340 N 0.52514 0.18451 0.12739 0.0
C341 C 0.52288 0.16114 0.12001 0.0
C342 C 0.54732 0.16399 0.1199 0.0
C343 C 0.55073 0.20112 0.13272 0.0
N344 N 0.56462 0.18904 0.12807 0.0
C345 C 0.46924 0.15988 0.05041 0.0
C346 C 0.51141 0.1777 0.99723 0.0
C347 C 0.48695 0.15886 0.98233 0.0
C348 C 0.46571 0.14974 0.0098 0.0
C349 C 0.51394 0.18764 0.03758 0.0
N350 N 0.49289 0.17939 0.06333 0.0
H351 H 0.45301 0.15156 0.07152 0.0
H352 H 0.53309 0.20186 0.04833 0.0
H353 H 0.50492 0.14372 0.11213 0.0
H354 H 0.55923 0.22188 0.13662 0.0
O355 O 0.47452 0.16172 0.15086 0.0
O356 O 0.49954 0.2008 0.17887 0.0
O357 O 0.52465 0.22894 0.10116 0.0
C358 C 0.48226 0.17649 0.18408 0.0
H359 H 0.44604 0.23918 0.13269 0.0
H360 H 0.55218 0.1492 0.11216 0.0
H361 H 0.52868 0.1846 0.97813 0.0
H362 H 0.44646 0.13497 0.00013 0.0
Co363 Co 0.81092 0.30878 0.11972 0.0
C364 C 0.82137 0.26555 0.1361 0.0
C365 C 0.78872 0.26153 0.17079 0.0
C366 C 0.79331 0.24195 0.18272 0.0
N367 N 0.80607 0.2761 0.14104 0.0
N368 N 0.81395 0.24466 0.16099 0.0
H369 H 0.83806 0.27325 0.11588 0.0
H370 H 0.77426 0.26544 0.18396 0.0
C371 C 0.75715 0.26857 0.09694 0.0
O372 O 0.76654 0.25371 0.0852 0.0
N373 N 0.81592 0.34151 0.09975 0.0
C374 C 0.83605 0.35899 0.0765 0.0
C375 C 0.83123 0.37843 0.06474 0.0
C376 C 0.79937 0.3507 0.10264 0.0
N377 N 0.80826 0.37314 0.08128 0.0
C378 C 0.84211 0.30539 0.05355 0.0
C379 C 0.80984 0.30301 0.98935 0.0
C380 C 0.83457 0.30732 0.97952 0.0
C381 C 0.85056 0.30766 0.01195 0.0
C382 C 0.8022 0.30087 0.03101 0.0
N383 N 0.81814 0.30201 0.06285 0.0
H384 H 0.85588 0.30879 0.07817 0.0
H385 H 0.78444 0.30093 0.0372 0.0
H386 H 0.85277 0.35738 0.06786 0.0
H387 H 0.78092 0.34084 0.11885 0.0
O388 O 0.8458 0.32603 0.1428 0.0
O389 O 0.81011 0.31923 0.17622 0.0
O390 O 0.77237 0.29188 0.10901 0.0
C391 C 0.83498 0.32812 0.17697 0.0
H392 H 0.78309 0.22765 0.20692 0.0
H393 H 0.84358 0.39516 0.04557 0.0
H394 H 0.79709 0.30304 0.96508 0.0
H395 H 0.87011 0.31168 0.00549 0.0
Co396 Co 0.50654 0.69064 0.87902 0.0
C397 C 0.56033 0.73529 0.86696 0.0
C398 C 0.53205 0.73817 0.82926 0.0
C399 C 0.55619 0.75842 0.81903 0.0
N400 N 0.53459 0.72375 0.85956 0.0
N401 N 0.57388 0.75653 0.84282 0.0
H402 H 0.56933 0.72779 0.8876 0.0
H403 H 0.51386 0.73378 0.81474 0.0
C404 C 0.4929 0.73044 0.90387 0.0
O405 O 0.51711 0.74508 0.91599 0.0
N406 N 0.47841 0.65757 0.89685 0.0
C407 C 0.48016 0.63949 0.91985 0.0
C408 C 0.45546 0.61945 0.92798 0.0
C409 C 0.45287 0.64822 0.89056 0.0
N410 N 0.43845 0.62502 0.90945 0.0
C411 C 0.54038 0.69279 0.94548 0.0
C412 C 0.50981 0.69397 0.00964 0.0
C413 C 0.53027 0.68969 0.01941 0.0
C414 C 0.54624 0.68993 0.98699 0.0
C415 C 0.50461 0.69665 0.96807 0.0
N416 N 0.5198 0.69618 0.93627 0.0
H417 H 0.55115 0.69008 0.92069 0.0
H418 H 0.4868 0.6966 0.96179 0.0
H419 H 0.4981 0.64093 0.93043 0.0
H420 H 0.44499 0.65841 0.87337 0.0
O421 O 0.52439 0.67378 0.85536 0.0
O422 O 0.496 0.68133 0.82193 0.0
O423 O 0.48486 0.70738 0.89055 0.0
C424 C 0.51186 0.6723 0.82105 0.0
H425 H 0.56046 0.77306 0.79536 0.0
H426 H 0.45035 0.60207 0.94586 0.0
H427 H 0.49684 0.69361 0.03386 0.0
H428 H 0.56186 0.68603 0.99334 0.0
Co429 Co 0.31416 0.81323 0.86159 0.0
C430 C 0.26985 0.82288 0.85109 0.0
C431 C 0.26284 0.78732 0.82273 0.0
C432 C 0.24271 0.79138 0.81238 0.0
N433 N 0.27977 0.80695 0.84738 0.0
N434 N 0.2472 0.81385 0.83009 0.0
H435 H 0.27927 0.84112 0.86737 0.0
H436 H 0.2656 0.77173 0.81139 0.0
C437 C 0.27708 0.7624 0.89998 0.0
O438 O 0.26328 0.77285 0.91243 0.0
N439 N 0.34835 0.81917 0.87416 0.0
C440 C 0.36795 0.84035 0.89247 0.0
C441 C 0.38789 0.8355 0.90049 0.0
C442 C 0.35668 0.80198 0.87041 0.0
N443 N 0.3807 0.81145 0.88648 0.0
C444 C 0.31625 0.84979 0.92323 0.0
C445 C 0.31992 0.82334 0.99162 0.0
C446 C 0.32296 0.84799 -0.00245 0.0
C447 C 0.32059 0.86115 0.96305 0.0
C448 C 0.3154 0.81267 0.95164 0.0
N449 N 0.31309 0.82554 0.91787 0.0
H450 H 0.31736 0.86139 0.89649 0.0
H451 H 0.31592 0.79494 0.94782 0.0
H452 H 0.36745 0.85774 0.90065 0.0
H453 H 0.34508 0.7826 0.85773 0.0
O454 O 0.32893 0.84576 0.83122 0.0
O455 O 0.31889 0.80741 0.80395 0.0
O456 O 0.29861 0.7761 0.88086 0.0
C457 C 0.32757 0.83205 0.79849 0.0
H458 H 0.2268 0.77939 0.79156 0.0
H459 H 0.40614 0.84847 0.91573 0.0
H460 H 0.32218 0.81284 0.01753 0.0
H461 H 0.32367 0.88062 0.96642 0.0
Co462 Co 0.1919 0.49953 0.88899 0.0
C463 C 0.1786 0.44462 0.87343 0.0
C464 C 0.20891 0.472 0.83334 0.0
C465 C 0.20296 0.44742 0.82145 0.0
N466 N 0.19376 0.4703 0.86609 0.0
N467 N 0.18392 0.43029 0.84669 0.0
H468 H 0.1632 0.43633 0.89628 0.0
H469 H 0.22293 0.48995 0.81846 0.0
C470 C 0.24512 0.50933 0.90843 0.0
O471 O 0.23507 0.48449 0.91671 0.0
N472 N 0.19025 0.52897 0.91027 0.0
C473 C 0.17284 0.52895 0.93738 0.0
C474 C 0.17956 0.55429 0.94562 0.0
C475 C 0.20697 0.55412 0.9017 0.0
N476 N 0.20092 0.56994 0.92304 0.0
C477 C 0.15911 0.46614 0.95454 0.0
C478 C 0.19358 0.49158 0.01903 0.0
C479 C 0.16766 0.47391 0.02895 0.0
C480 C 0.15052 0.46036 0.99609 0.0
C481 C 0.20116 0.49729 0.97734 0.0
N482 N 0.18406 0.4848 0.94538 0.0
H483 H 0.14499 0.45713 0.92981 0.0
H484 H 0.22019 0.51355 0.9716 0.0
H485 H 0.15645 0.5118 0.95037 0.0
H486 H 0.22339 0.5607 0.88071 0.0
O487 O 0.15696 0.48472 0.86684 0.0
O488 O 0.19325 0.51183 0.83296 0.0
O489 O 0.2305 0.51863 0.89905 0.0
C490 C 0.16813 0.49757 0.83283 0.0
H491 H 0.21171 0.44251 0.79591 0.0
H492 H 0.16934 0.56074 0.96599 0.0
H493 H 0.20766 0.50232 0.0433 0.0
H494 H 0.13021 0.44681 0.00212 0.0
Co495 Co 0.35515 0.83325 0.43703 0.0
C496 C 0.39823 0.88764 0.45209 0.0
C497 C 0.40122 0.85949 0.48999 0.0
C498 C 0.42079 0.88377 0.50133 0.0
N499 N 0.38711 0.86187 0.45897 0.0
N500 N 0.41885 0.90136 0.47738 0.0
H501 H 0.39103 0.89653 0.43063 0.0
H502 H 0.39717 0.84128 0.50403 0.0
C503 C 0.39756 0.82347 0.41147 0.0
O504 O 0.41162 0.8482 0.40187 0.0
N505 N 0.32333 0.8044 0.41656 0.0
C506 C 0.30439 0.80532 0.39492 0.0
C507 C 0.28637 0.78045 0.38293 0.0
C508 C 0.31659 0.77918 0.41786 0.0
N509 N 0.2941 0.764 0.39728 0.0
C510 C 0.35601 0.86836 0.37421 0.0
C511 C 0.36121 0.8421 0.30691 0.0
C512 C 0.3558 0.86208 0.29934 0.0
C513 C 0.35391 0.87583 0.33345 0.0
C514 C 0.36316 0.8353 0.34788 0.0
N515 N 0.3608 0.84844 0.38119 0.0
H516 H 0.35199 0.87752 0.4001 0.0
H517 H 0.36432 0.81796 0.35229 0.0
H518 H 0.30406 0.82289 0.38746 0.0
H519 H 0.32804 0.77223 0.43362 0.0
O520 O 0.33627 0.84852 0.46231 0.0
O521 O 0.34539 0.82052 0.49317 0.0
O522 O 0.37407 0.81398 0.4236 0.0
C523 C 0.3353 0.83544 0.49565 0.0
H524 H 0.43515 0.88817 0.52558 0.0
H525 H 0.26926 0.77512 0.3642 0.0
H526 H 0.36248 0.8308 0.28131 0.0
H527 H 0.3491 0.89097 0.32878 0.0
Co528 Co 0.16067 0.52525 0.46443 0.0
C529 C 0.10694 0.51498 0.4674 0.0
C530 C 0.13425 0.55391 0.48676 0.0
C531 C 0.10953 0.54987 0.49223 0.0
N532 N 0.13249 0.53201 0.47132 0.0
N533 N 0.09251 0.52544 0.47993 0.0
H534 H 0.09908 0.495 0.45761 0.0
H535 H 0.15222 0.57121 0.49502 0.0
C536 C 0.19548 0.56963 0.40619 0.0
O537 O 0.19747 0.55383 0.37956 0.0
N538 N 0.1897 0.51893 0.45889 0.0
C539 C 0.18948 0.49624 0.46388 0.0
C540 C 0.2145 0.50076 0.46144 0.0
C541 C 0.21512 0.53701 0.45574 0.0
N542 N 0.23052 0.5264 0.45598 0.0
C543 C 0.14054 0.48411 0.40394 0.0
C544 C 0.13501 0.51179 0.33919 0.0
C545 C 0.13238 0.48744 0.33073 0.0
C546 C 0.13395 0.47303 0.36413 0.0
C547 C 0.14168 0.52215 0.37963 0.0
N548 N 0.14652 0.50916 0.41042 0.0
H549 H 0.14125 0.47261 0.42935 0.0
H550 H 0.1441 0.54111 0.38569 0.0
H551 H 0.17262 0.47772 0.47091 0.0
H552 H 0.22256 0.5577 0.4556 0.0
O553 O 0.1425 0.49509 0.5002 0.0
O554 O 0.1707 0.53516 0.52159 0.0
O555 O 0.18178 0.56088 0.43937 0.0
C556 C 0.15483 0.51098 0.5309 0.0
H557 H 0.10442 0.56358 0.50504 0.0
H558 H 0.22046 0.48633 0.46393 0.0
H559 H 0.1334 0.52336 0.3144 0.0
H560 H 0.13089 0.45367 0.35925 0.0
Co561 Co 0.4767 0.6436 0.46111 0.0
C562 C 0.48306 0.59722 0.47024 0.0
C563 C 0.44843 0.59223 0.49928 0.0
C564 C 0.45118 0.57127 0.50937 0.0
N565 N 0.46829 0.60842 0.47437 0.0
N566 N 0.47308 0.57444 0.49123 0.0
H567 H 0.50129 0.60602 0.45398 0.0
H568 H 0.43372 0.59614 0.51131 0.0
C569 C 0.42365 0.60955 0.42679 0.0
O570 O 0.43246 0.59551 0.40906 0.0
N571 N 0.48481 0.6786 0.44932 0.0
C572 C 0.50652 0.69731 0.4308 0.0
C573 C 0.50319 0.71819 0.4225 0.0
C574 C 0.4688 0.68839 0.45291 0.0
N575 N 0.47954 0.71246 0.43652 0.0
C576 C 0.50928 0.64248 0.39518 0.0
C577 C 0.48243 0.64937 0.33054 0.0
C578 C 0.50609 0.65065 0.32178 0.0
C579 C 0.51934 0.64657 0.35444 0.0
C580 C 0.47309 0.6452 0.37143 0.0
N581 N 0.48614 0.64133 0.40333 0.0
H582 H 0.52126 0.64241 0.42044 0.0
H583 H 0.45638 0.64722 0.37759 0.0
H584 H 0.52313 0.69547 0.42234 0.0
H585 H 0.44927 0.67771 0.46533 0.0
O586 O 0.51022 0.65649 0.48784 0.0
O587 O 0.47388 0.64929 0.51952 0.0
O588 O 0.43914 0.6303 0.44659 0.0
C589 C 0.49838 0.65655 0.52215 0.0
H590 H 0.43874 0.55577 0.53051 0.0
H591 H 0.51682 0.73597 0.40669 0.0
H592 H 0.47174 0.65274 0.30622 0.0
H593 H 0.5381 0.64824 0.34909 0.0
C594 C 0.14718 0.10224 0.27179 0.0
C595 C 0.13787 0.0758 0.26475 0.0
C596 C 0.13003 0.11192 0.2746 0.0
C597 C 0.10294 0.09455 0.27167 0.0
C598 C 0.09342 0.0676 0.2668 0.0
C599 C 0.11106 0.05859 0.26261 0.0
C600 C 0.14097 0.14086 0.2786 0.0
C601 C 0.06466 0.04838 0.26498 0.0
C602 C 0.06012 0.12121 0.30846 0.0
C603 C 0.05269 0.12712 0.27026 0.0
C604 C 0.07569 0.10965 0.30944 0.0
C605 C 0.08475 0.10484 0.27129 0.0
C606 C 0.07722 0.11082 0.2326 0.0
C607 C 0.06087 0.1215 0.23259 0.0
C608 C 0.08257 0.10273 0.3512 0.0
C609 C 0.08704 0.10667 0.19129 0.0
H610 H 0.16795 0.11556 0.27287 0.0
H611 H 0.10392 0.03809 0.25736 0.0
H612 H 0.13546 0.14817 0.25068 0.0
H613 H 0.13269 0.14526 0.30646 0.0
H614 H 0.16248 0.15164 0.28139 0.0
H615 H 0.06046 0.02795 0.26512 0.0
H616 H 0.05466 0.05128 0.29207 0.0
H617 H 0.05626 0.05157 0.23609 0.0
H618 H 0.05346 0.12542 0.33747 0.0
H619 H 0.05514 0.12634 0.20321 0.0
H620 H 0.10379 0.11461 0.35659 0.0
H621 H 0.07753 0.08206 0.35122 0.0
H622 H 0.07237 0.10594 0.37771 0.0
H623 H 0.10858 0.11804 0.19071 0.0
H624 H 0.07952 0.11258 0.16407 0.0
H625 H 0.08126 0.08593 0.18759 0.0
C626 C 0.87909 0.94269 0.19589 0.0
C627 C 0.86625 0.92584 0.22929 0.0
C628 C 0.89036 0.96965 0.2008 0.0
C629 C 0.88936 0.97988 0.24046 0.0
C630 C 0.87699 0.96288 0.2746 0.0
C631 C 0.86523 0.93599 0.2684 0.0
C632 C 0.90277 0.98711 0.16339 0.0
C633 C 0.87617 0.97308 0.3176 0.0
C634 C 0.93734 0.05133 0.25934 0.0
C635 C 0.92146 0.06231 0.25426 0.0
C636 C 0.92704 0.0244 0.25588 0.0
C637 C 0.90045 0.0083 0.24585 0.0
C638 C 0.88439 0.01937 0.24055 0.0
C639 C 0.89503 0.04623 0.24543 0.0
C640 C 0.94459 0.01319 0.26288 0.0
C641 C 0.8561 0.00293 0.22878 0.0
H642 H 0.87969 0.93465 0.16568 0.0
H643 H 0.85558 0.92282 0.29428 0.0
H644 H 0.89288 0.99837 0.1569 0.0
H645 H 0.92341 0.0013 0.17017 0.0
H646 H 0.90184 0.97604 0.13475 0.0
H647 H 0.86714 0.95734 0.34133 0.0
H648 H 0.89612 0.98734 0.32804 0.0
H649 H 0.86496 0.98339 0.31642 0.0
H650 H 0.95779 0.06379 0.2663 0.0
H651 H 0.8828 0.05476 0.24094 0.0
H652 H 0.94593 0.00372 0.23376 0.0
H653 H 0.93634 0.99802 0.28758 0.0
H654 H 0.96451 0.02822 0.27237 0.0
H655 H 0.85431 0.99259 0.1989 0.0
H656 H 0.8464 0.01465 0.22504 0.0
H657 H 0.8456 0.98796 0.25313 0.0
C658 C 0.94956 0.89283 0.19634 0.0
C659 C 0.93974 0.87249 0.2256 0.0
C660 C 0.97635 0.91003 0.19274 0.0
C661 C 0.99368 0.90708 0.21953 0.0
C662 C 0.98379 0.88729 0.25035 0.0
C663 C 0.95694 0.87006 0.25275 0.0
C664 C 0.98617 0.93067 0.15911 0.0
C665 C 0.00163 0.88387 0.28005 0.0
C666 C 0.06258 0.93033 0.18295 0.0
C667 C 0.07649 0.95412 0.20388 0.0
C668 C 0.03555 0.91508 0.18721 0.0
C669 C 0.0222 0.92364 0.21367 0.0
C670 C 0.03615 0.94771 0.23484 0.0
C671 C 0.06314 0.96279 0.22938 0.0
C672 C 0.02131 0.88976 0.16348 0.0
C673 C 0.02265 0.9573 0.2638 0.0
H674 H 0.93637 0.89475 0.17514 0.0
H675 H 0.94944 0.85451 0.27566 0.0
H676 H 0.99916 0.95006 0.17294 0.0
H677 H 0.99777 0.92686 0.13589 0.0
H678 H 0.97012 0.93129 0.14235 0.0
H679 H 0.99076 0.86895 0.30439 0.0
H680 H 0.01386 0.87797 0.2622 0.0
H681 H 0.01489 0.90253 0.29582 0.0
H682 H 0.07288 0.9238 0.16288 0.0
H683 H 0.07394 0.98106 0.24595 0.0
H684 H 0.00584 0.88958 0.14379 0.0
H685 H 0.01173 0.87335 0.18587 0.0
H686 H 0.03444 0.88638 0.14298 0.0
H687 H 0.00766 0.95935 0.2463 0.0
H688 H 0.03637 0.97631 0.27828 0.0
H689 H 0.01256 0.94293 0.28915 0.0
C690 C 0.11277 0.05423 0.7849 0.0
C691 C 0.12146 0.04968 0.74684 0.0
C692 C 0.10157 0.07012 0.7866 0.0
C693 C 0.09827 0.0809 0.74905 0.0
C694 C 0.10601 0.07531 0.71025 0.0
C695 C 0.11799 0.06013 0.70974 0.0
C696 C 0.09426 0.07621 0.82871 0.0
C697 C 0.10204 0.08571 0.66943 0.0
C698 C 0.05165 0.10696 0.75469 0.0
C699 C 0.06888 0.13373 0.75787 0.0
C700 C 0.06092 0.08952 0.75037 0.0
C701 C 0.08803 0.09912 0.75069 0.0
C702 C 0.10548 0.1262 0.75371 0.0
C703 C 0.09566 0.14323 0.75657 0.0
C704 C 0.04174 0.06089 0.74578 0.0
C705 C 0.13449 0.13712 0.75533 0.0
H706 H 0.11577 0.0462 0.81346 0.0
H707 H 0.12466 0.0563 0.68039 0.0
H708 H 0.10571 0.09743 0.83459 0.0
H709 H 0.07347 0.07065 0.82891 0.0
H710 H 0.09777 0.06599 0.85482 0.0
H711 H 0.1069 0.07758 0.64178 0.0
H712 H 0.08157 0.0811 0.66667 0.0
H713 H 0.11441 0.10716 0.66873 0.0
H714 H 0.03091 0.09968 0.75541 0.0
H715 H 0.10894 0.16393 0.75954 0.0
H716 H 0.04356 0.05005 0.77262 0.0
H717 H 0.04603 0.05332 0.71688 0.0
H718 H 0.02135 0.05675 0.74428 0.0
H719 H 0.13948 0.12877 0.78249 0.0
H720 H 0.14537 0.15862 0.75817 0.0
H721 H 0.14115 0.13162 0.72664 0.0
C722 C 0.95509 0.05558 0.76612 0.0
C723 C 0.94383 0.06687 0.79075 0.0
C724 C 0.94173 0.0288 0.75782 0.0
C725 C 0.91678 0.01293 0.77537 0.0
C726 C 0.90556 0.02422 0.80091 0.0
C727 C 0.91913 0.05111 0.80792 0.0
C728 C 0.95416 0.01756 0.72989 0.0
C729 C 0.87921 0.0079 0.82084 0.0
C730 C 0.86819 0.94778 0.72847 0.0
C731 C 0.87046 0.93047 0.75558 0.0
C732 C 0.88401 0.97473 0.73341 0.0
C733 C 0.90213 0.98455 0.76678 0.0
C734 C 0.90501 0.96716 0.79351 0.0
C735 C 0.8893 0.9403 0.78732 0.0
C736 C 0.88081 0.99268 0.70366 0.0
C737 C 0.92383 0.97687 0.82983 0.0
H738 H 0.9741 0.06783 0.75247 0.0
H739 H 0.91058 0.05984 0.82731 0.0
H740 H 0.95745 0.00349 0.74784 0.0
H741 H 0.94099 0.00679 0.70346 0.0
H742 H 0.97303 0.03275 0.71688 0.0
H743 H 0.87365 0.01955 0.84107 0.0
H744 H 0.86422 0.99835 0.79615 0.0
H745 H 0.87908 0.9923 0.84012 0.0
H746 H 0.8538 0.94027 0.70368 0.0
H747 H 0.89105 0.92701 0.80852 0.0
H748 H 0.89993 0.00732 0.69074 0.0
H749 H 0.87282 0.00337 0.72082 0.0
H750 H 0.86758 0.98203 0.67718 0.0
H751 H 0.94358 0.99121 0.81879 0.0
H752 H 0.92478 0.96088 0.84624 0.0
H753 H 0.91783 0.98692 0.85274 0.0
C754 C 0.05172 0.93359 0.72288 0.0
C755 C 0.06362 0.91846 0.72666 0.0
C756 C 0.02461 0.92208 0.72394 0.0
C757 C 0.0092 0.89496 0.73032 0.0
C758 C 0.02116 0.87956 0.73341 0.0
C759 C 0.04827 0.89149 0.73092 0.0
C760 C 0.01249 0.93901 0.71922 0.0
C761 C 0.00542 0.85068 0.7413 0.0
C762 C 0.94329 0.87035 0.78099 0.0
C763 C 0.92664 0.85872 0.74693 0.0
C764 C 0.97026 0.88206 0.77608 0.0
C765 C 0.9807 0.88282 0.7358 0.0
C766 C 0.96389 0.87162 0.70108 0.0
C767 C 0.93696 0.85931 0.70723 0.0
C768 C 0.98754 0.8932 0.81406 0.0
C769 C 0.97433 0.87278 0.65748 0.0
H770 H 0.06366 0.95448 0.71944 0.0
H771 H 0.05752 0.87985 0.73439 0.0
H772 H 0.9971 0.9309 0.69489 0.0
H773 H 0.00317 0.93939 0.74913 0.0
H774 H 0.027 0.95929 0.71055 0.0
H775 H 0.01766 0.84141 0.74194 0.0
H776 H 0.99517 0.84703 0.77179 0.0
H777 H 0.9904 0.84112 0.71669 0.0
H778 H 0.93506 0.86968 0.81162 0.0
H779 H 0.92389 0.85054 0.68092 0.0
H780 H 0.00107 0.91427 0.8096 0.0
H781 H 0.99952 0.88383 0.81808 0.0
H782 H 0.97626 0.89043 0.84328 0.0
H783 H 0.98801 0.89326 0.64874 0.0
H784 H 0.95865 0.86413 0.63359 0.0
H785 H 0.98535 0.86228 0.65664 0.0
C786 C 0.70563 0.43642 0.5764 0.0
C787 C 0.71466 0.45878 0.55166 0.0
C788 C 0.72071 0.42454 0.58218 0.0
C789 C 0.74514 0.43504 0.56206 0.0
C790 C 0.75414 0.45742 0.53656 0.0
C791 C 0.73889 0.46917 0.53204 0.0
C792 C 0.71066 0.40098 0.61018 0.0
C793 C 0.7798 0.46885 0.51376 0.0
C794 C 0.79777 0.42149 0.59987 0.0
C795 C 0.79506 0.40219 0.5717 0.0
C796 C 0.78091 0.43161 0.59825 0.0
C797 C 0.76131 0.4226 0.56713 0.0
C798 C 0.75814 0.40271 0.53923 0.0
C799 C 0.7749 0.39257 0.54213 0.0
C800 C 0.78447 0.45236 0.62918 0.0
C801 C 0.73775 0.39287 0.50519 0.0
H802 H 0.68701 0.42858 0.59197 0.0
H803 H 0.74569 0.48628 0.51256 0.0
H804 H 0.70912 0.38427 0.59228 0.0
H805 H 0.72452 0.40495 0.63624 0.0
H806 H 0.69132 0.39531 0.62367 0.0
H807 H 0.78369 0.48595 0.49439 0.0
H808 H 0.79585 0.47488 0.53664 0.0
H809 H 0.78003 0.45396 0.49305 0.0
H810 H 0.81317 0.42883 0.62302 0.0
H811 H 0.77273 0.37771 0.52015 0.0
H812 H 0.76575 0.44694 0.64476 0.0
H813 H 0.79082 0.47093 0.6124 0.0
H814 H 0.79911 0.45563 0.65362 0.0
H815 H 0.71829 0.38624 0.51891 0.0
H816 H 0.73711 0.37657 0.48717 0.0
H817 H 0.74182 0.40889 0.4831 0.0
C818 C 0.60634 0.38451 0.59113 0.0
C819 C 0.58892 0.39386 0.59318 0.0
C820 C 0.59739 0.35776 0.59205 0.0
C821 C 0.57034 0.34004 0.59369 0.0
C822 C 0.55272 0.34946 0.5965 0.0
C823 C 0.56228 0.37632 0.59683 0.0
C824 C 0.61681 0.34847 0.59043 0.0
C825 C 0.52372 0.33119 0.59739 0.0
C826 C 0.54433 0.27229 0.54911 0.0
C827 C 0.53734 0.25733 0.58566 0.0
C828 C 0.5554 0.29936 0.55124 0.0
C829 C 0.56028 0.31165 0.59097 0.0
C830 C 0.55428 0.2966 0.628 0.0
C831 C 0.54247 0.26952 0.62485 0.0
C832 C 0.56097 0.31469 0.51107 0.0
C833 C 0.55995 0.30904 0.67087 0.0
H834 H 0.62699 0.39815 0.58853 0.0
H835 H 0.54881 0.38358 0.5979 0.0
H836 H 0.61307 0.33451 0.61624 0.0
H837 H 0.61469 0.33808 0.5605 0.0
H838 H 0.63715 0.36473 0.59293 0.0
H839 H 0.51269 0.34167 0.59991 0.0
H840 H 0.51757 0.31928 0.56838 0.0
H841 H 0.51841 0.31764 0.62427 0.0
H842 H 0.54015 0.26264 0.51893 0.0
H843 H 0.53725 0.25776 0.653 0.0
H844 H 0.58171 0.33 0.50978 0.0
H845 H 0.54932 0.32455 0.5101 0.0
H846 H 0.55637 0.30222 0.48279 0.0
H847 H 0.5805 0.32483 0.67273 0.0
H848 H 0.55619 0.29483 0.69632 0.0
H849 H 0.54768 0.31795 0.6764 0.0
C850 C 0.61233 0.22039 0.63153 0.0
C851 C 0.59782 0.20977 0.59489 0.0
C852 C 0.63964 0.23386 0.63036 0.0
C853 C 0.65253 0.23716 0.59153 0.0
C854 C 0.6379 0.22675 0.55445 0.0
C855 C 0.61078 0.21302 0.55666 0.0
C856 C 0.65468 0.24435 0.6706 0.0
C857 C 0.65087 0.23026 0.51229 0.0
C858 C 0.72177 0.29143 0.5748 0.0
C859 C 0.73548 0.27784 0.57453 0.0
C860 C 0.69487 0.27857 0.58157 0.0
C861 C 0.68133 0.25151 0.58909 0.0
C862 C 0.69507 0.2378 0.5905 0.0
C863 C 0.7219 0.25106 0.58281 0.0
C864 C 0.68084 0.29382 0.57927 0.0
C865 C 0.6813 0.20894 0.59885 0.0
H866 H 0.60237 0.21786 0.66113 0.0
H867 H 0.59968 0.20513 0.5281 0.0
H868 H 0.66746 0.23598 0.67579 0.0
H869 H 0.66741 0.26572 0.66833 0.0
H870 H 0.64176 0.23988 0.69824 0.0
H871 H 0.63662 0.22138 0.48634 0.0
H872 H 0.66356 0.25125 0.50554 0.0
H873 H 0.6634 0.22136 0.5127 0.0
H874 H 0.73191 0.31217 0.56956 0.0
H875 H 0.73206 0.24022 0.58247 0.0
H876 H 0.6692 0.29074 0.60808 0.0
H877 H 0.66714 0.28684 0.55241 0.0
H878 H 0.69438 0.31499 0.57533 0.0
H879 H 0.66897 0.20419 0.62726 0.0
H880 H 0.69509 0.20167 0.60324 0.0
H881 H 0.66832 0.19837 0.57214 0.0
C882 C 0.78591 0.39465 0.11133 0.0
C883 C 0.7958 0.38829 0.07635 0.0
C884 C 0.77541 0.41105 0.10739 0.0
C885 C 0.77409 0.42057 0.06726 0.0
C886 C 0.78314 0.4133 0.03158 0.0
C887 C 0.79431 0.39756 0.0367 0.0
C888 C 0.76654 0.41887 0.14632 0.0
C889 C 0.78129 0.42237 0.98816 0.0
C890 C 0.72801 0.44709 0.0593 0.0
C891 C 0.74525 0.47388 0.062 0.0
C892 C 0.7372 0.42949 0.05909 0.0
C893 C 0.76418 0.43896 0.06301 0.0
C894 C 0.78169 0.46607 0.06488 0.0
C895 C 0.772 0.48325 0.06372 0.0
C896 C 0.71802 0.40078 0.05566 0.0
C897 C 0.81053 0.47688 0.07011 0.0
H898 H 0.78733 0.38752 0.14193 0.0
H899 H 0.80178 0.3923 0.00972 0.0
H900 H 0.77786 0.44029 0.15008 0.0
H901 H 0.74582 0.41332 0.14331 0.0
H902 H 0.76888 0.40974 0.17511 0.0
H903 H 0.7874 0.41336 0.96345 0.0
H904 H 0.76106 0.41764 0.98171 0.0
H905 H 0.79375 0.44377 0.98603 0.0
H906 H 0.7073 0.43989 0.05773 0.0
H907 H 0.78527 0.50398 0.06633 0.0
H908 H 0.71793 0.39087 0.08518 0.0
H909 H 0.72384 0.3921 0.03005 0.0
H910 H 0.69796 0.39678 0.04952 0.0
H911 H 0.81431 0.46985 0.10006 0.0
H912 H 0.82154 0.49846 0.07024 0.0
H913 H 0.8181 0.46992 0.04446 0.0
C914 C 0.59265 0.39263 0.09945 0.0
C915 C 0.61846 0.4075 0.08611 0.0
C916 C 0.57885 0.36563 0.09399 0.0
C917 C 0.59106 0.35323 0.07416 0.0
C918 C 0.61701 0.36819 0.05999 0.0
C919 C 0.6305 0.39516 0.06649 0.0
C920 C 0.55132 0.35032 0.11008 0.0
C921 C 0.63059 0.35571 0.03831 0.0
C922 C 0.56159 0.28194 0.10071 0.0
C923 C 0.54401 0.2701 0.06753 0.0
C924 C 0.57784 0.30894 0.10234 0.0
C925 C 0.57675 0.3245 0.06975 0.0
C926 C 0.56023 0.31259 0.0349 0.0
C927 C 0.54393 0.2855 0.0343 0.0
C928 C 0.59511 0.32089 0.14013 0.0
C929 C 0.55897 0.32855 -0.00086 0.0
H930 H 0.58344 0.40211 0.11501 0.0
H931 H 0.65035 0.40668 0.05567 0.0
H932 H 0.53796 0.33924 0.08405 0.0
H933 H 0.54987 0.33602 0.13384 0.0
H934 H 0.54461 0.36294 0.12452 0.0
H935 H 0.64957 0.37033 0.0248 0.0
H936 H 0.63401 0.34363 0.06105 0.0
H937 H 0.61825 0.34268 0.01281 0.0
H938 H 0.56194 0.27022 0.12645 0.0
H939 H 0.5306 0.2765 0.00836 0.0
H940 H 0.5883 0.33227 0.15831 0.0
H941 H 0.61534 0.33451 0.13017 0.0
H942 H 0.59517 0.30603 0.16116 0.0
H943 H 0.55001 0.33997 0.01021 0.0
H944 H 0.54738 0.31627 0.97235 0.0
H945 H 0.5788 0.34257 0.98789 0.0
C946 C 0.71782 0.27348 0.0942 0.0
C947 C 0.72882 0.25761 0.09936 0.0
C948 C 0.69089 0.26318 0.09786 0.0
C949 C 0.67482 0.23663 0.10829 0.0
C950 C 0.68595 0.22064 0.11397 0.0
C951 C 0.71278 0.23125 0.10879 0.0
C952 C 0.67962 0.28063 0.09036 0.0
C953 C 0.66958 0.19242 0.1262 0.0
C954 C 0.60861 0.21459 0.15672 0.0
C955 C 0.59218 0.2014 0.12313 0.0
C956 C 0.63566 0.22629 0.15237 0.0
C957 C 0.64632 0.22537 0.11305 0.0
C958 C 0.62964 0.21271 0.07867 0.0
C959 C 0.60269 0.20052 0.08436 0.0
C960 C 0.65277 0.23901 0.19002 0.0
C961 C 0.64024 0.21193 0.036 0.0
H962 H 0.73027 0.29387 0.08682 0.0
H963 H 0.72133 0.21905 0.1134 0.0
H964 H 0.66475 0.27237 0.06522 0.0
H965 H 0.66977 0.28181 0.11911 0.0
H966 H 0.69467 0.30061 0.08118 0.0
H967 H 0.68139 0.1829 0.13087 0.0
H968 H 0.65891 0.19075 0.15566 0.0
H969 H 0.65489 0.18166 0.10158 0.0
H970 H 0.60017 0.21514 0.18656 0.0
H971 H 0.5897 0.19053 0.05841 0.0
H972 H 0.6669 0.25965 0.18312 0.0
H973 H 0.6641 0.22928 0.19727 0.0
H974 H 0.6414 0.23812 0.21826 0.0
H975 H 0.65456 0.2319 0.02569 0.0
H976 H 0.62471 0.20288 0.01193 0.0
H977 H 0.65056 0.20075 0.03766 0.0
C978 C 0.39771 0.78516 0.85547 0.0
C979 C 0.39511 0.79814 0.89008 0.0
C980 C 0.4128 0.77312 0.85802 0.0
C981 C 0.42482 0.77342 0.89655 0.0
C982 C 0.42138 0.78571 0.93204 0.0
C983 C 0.40689 0.7983 0.92816 0.0
C984 C 0.41662 0.76087 0.81918 0.0
C985 C 0.43324 0.78579 0.97395 0.0
C986 C 0.44864 0.72522 0.90943 0.0
C987 C 0.47541 0.74127 0.90341 0.0
C988 C 0.43191 0.73549 0.90811 0.0
C989 C 0.44218 0.7622 0.89914 0.0
C990 C 0.46919 0.77836 0.89253 0.0
C991 C 0.48553 0.76776 0.89542 0.0
C992 C 0.40332 0.71785 0.91654 0.0
C993 C 0.48079 0.80676 0.88171 0.0
H994 H 0.38861 0.78525 0.82607 0.0
H995 H 0.40448 0.80811 0.95496 0.0
H996 H 0.43754 0.77087 0.81086 0.0
H997 H 0.41044 0.74022 0.82519 0.0
H998 H 0.40556 0.76191 0.7919 0.0
H999 H 0.42692 0.7943 -0.00082 0.0
H1000 H 0.42786 0.76569 0.98298 0.0
H1001 H 0.45472 0.79717 0.97172 0.0
H1002 H 0.44086 0.70473 0.91575 0.0
H1003 H 0.5062 0.78009 0.89019 0.0
H1004 H 0.39182 0.7171 0.88866 0.0
H1005 H 0.39709 0.72566 0.94291 0.0
H1006 H 0.39859 0.69775 0.92442 0.0
H1007 H 0.47132 0.80888 0.85319 0.0
H1008 H 0.50205 0.81642 0.87604 0.0
H1009 H 0.47724 0.81708 0.90754 0.0
C1010 C 0.28429 0.72476 0.90909 0.0
C1011 C 0.26716 0.73446 0.90663 0.0
C1012 C 0.27489 0.69804 0.91375 0.0
C1013 C 0.24775 0.68067 0.91473 0.0
C1014 C 0.23042 0.69043 0.91233 0.0
C1015 C 0.24036 0.71727 0.90888 0.0
C1016 C 0.29396 0.68838 0.91737 0.0
C1017 C 0.20135 0.67249 0.91231 0.0
C1018 C 0.22165 0.61049 0.88252 0.0
C1019 C 0.21399 0.59776 0.92121 0.0
C1020 C 0.23295 0.63756 0.87997 0.0
C1021 C 0.23732 0.65219 0.9172 0.0
C1022 C 0.23048 0.63944 0.95652 0.0
C1023 C 0.21851 0.61227 0.95798 0.0
C1024 C 0.23938 0.65038 0.83738 0.0
C1025 C 0.23549 0.65443 0.99695 0.0
H1026 H 0.30505 0.73809 0.90761 0.0
H1027 H 0.2271 0.72474 0.90657 0.0
H1028 H 0.28989 0.67643 0.94611 0.0
H1029 H 0.29174 0.67576 0.89025 0.0
H1030 H 0.3144 0.70454 0.91848 0.0
H1031 H 0.19055 0.68321 0.9099 0.0
H1032 H 0.1957 0.65877 0.88556 0.0
H1033 H 0.19523 0.66074 0.94144 0.0
H1034 H 0.21788 0.59911 0.85416 0.0
H1035 H 0.21279 0.60229 0.98787 0.0
H1036 H 0.26019 0.66549 0.83591 0.0
H1037 H 0.22794 0.66022 0.83206 0.0
H1038 H 0.23517 0.63626 0.81158 0.0
H1039 H 0.25612 0.67004 -0.00138 0.0
H1040 H 0.23091 0.64179 0.02499 0.0
H1041 H 0.22349 0.6639 -0.00199 0.0
C1042 C 0.29017 0.51683 0.90395 0.0
C1043 C 0.27347 0.52674 0.9104 0.0
C1044 C 0.31718 0.53329 0.90377 0.0
C1045 C 0.32768 0.56018 0.91124 0.0
C1046 C 0.31089 0.57021 0.9186 0.0
C1047 C 0.28393 0.55339 0.91758 0.0
C1048 C 0.33447 0.52197 0.89492 0.0
C1049 C 0.3214 0.59868 0.92763 0.0
C1050 C 0.39784 0.59694 0.94717 0.0
C1051 C 0.41067 0.60948 0.91018 0.0
C1052 C 0.37073 0.58137 0.94827 0.0
C1053 C 0.35626 0.57777 0.91115 0.0
C1054 C 0.36916 0.59045 0.87367 0.0
C1055 C 0.39625 0.60645 0.87381 0.0
C1056 C 0.3576 0.5687 0.98905 0.0
C1057 C 0.35444 0.58663 0.83326 0.0
H1058 H 0.2821 0.49626 0.89799 0.0
H1059 H 0.27103 0.56107 0.92281 0.0
H1060 H 0.34684 0.53166 0.86718 0.0
H1061 H 0.34763 0.52555 0.92186 0.0
H1062 H 0.32319 0.50074 0.88891 0.0
H1063 H 0.30572 0.60322 0.93398 0.0
H1064 H 0.33455 0.60467 0.95517 0.0
H1065 H 0.33301 0.61054 0.9006 0.0
H1066 H 0.40909 0.59963 0.97537 0.0
H1067 H 0.40631 0.61603 0.8452 0.0
H1068 H 0.3476 0.54727 0.98584 0.0
H1069 H 0.34258 0.57389 0.99687 0.0
H1070 H 0.37155 0.57457 0.01554 0.0
H1071 H 0.344 0.56575 0.82462 0.0
H1072 H 0.3674 0.59793 0.8069 0.0
H1073 H 0.33962 0.59255 0.83741 0.0
C1074 C 0.46841 0.73951 0.39289 0.0
C1075 C 0.46729 0.7278 0.43151 0.0
C1076 C 0.45623 0.75428 0.38732 0.0
C1077 C 0.44334 0.75802 0.42163 0.0
C1078 C 0.44229 0.74629 0.46081 0.0
C1079 C 0.45396 0.73095 0.46506 0.0
C1080 C 0.45711 0.76584 0.34477 0.0
C1081 C 0.42933 0.75041 0.49842 0.0
C1082 C 0.43594 0.81774 0.41989 0.0
C1083 C 0.40944 0.8069 0.41117 0.0
C1084 C 0.4472 0.802 0.42349 0.0
C1085 C 0.4317 0.7749 0.41696 0.0
C1086 C 0.40507 0.76396 0.40678 0.0
C1087 C 0.39414 0.78008 0.40467 0.0
C1088 C 0.47549 0.81429 0.43549 0.0
C1089 C 0.3881 0.73525 0.39849 0.0
H1090 H 0.47845 0.73665 0.36688 0.0
H1091 H 0.45329 0.72189 0.49488 0.0
H1092 H 0.43712 0.75978 0.33406 0.0
H1093 H 0.46781 0.78734 0.34683 0.0
H1094 H 0.46667 0.75988 0.32081 0.0
H1095 H 0.43044 0.74011 0.52671 0.0
H1096 H 0.43867 0.77145 0.50561 0.0
H1097 H 0.40861 0.74348 0.49148 0.0
H1098 H 0.44769 0.83845 0.42547 0.0
H1099 H 0.37363 0.77172 0.39781 0.0
H1100 H 0.48634 0.81041 0.41097 0.0
H1101 H 0.47738 0.80556 0.4651 0.0
H1102 H 0.48475 0.83563 0.43987 0.0
H1103 H 0.39711 0.72888 0.37423 0.0
H1104 H 0.36832 0.73018 0.38786 0.0
H1105 H 0.38626 0.72412 0.42744 0.0
C1106 C 0.25454 0.722 0.38215 0.0
C1107 C 0.2811 0.73613 0.39198 0.0
C1108 C 0.24132 0.69482 0.37938 0.0
C1109 C 0.25485 0.68132 0.38728 0.0
C1110 C 0.28181 0.69539 0.39567 0.0
C1111 C 0.29464 0.7226 0.39758 0.0
C1112 C 0.21259 0.6805 0.36992 0.0
C1113 C 0.29689 0.68168 0.40457 0.0
C1114 C 0.21476 0.61444 0.43479 0.0
C1115 C 0.21099 0.5981 0.40053 0.0
C1116 C 0.22935 0.64146 0.43089 0.0
C1117 C 0.2402 0.65257 0.39155 0.0
C1118 C 0.23657 0.63627 0.35674 0.0
C1119 C 0.22214 0.60914 0.36173 0.0
C1120 C 0.23308 0.65812 0.46896 0.0
C1121 C 0.2476 0.6475 0.31421 0.0
H1122 H 0.24375 0.73204 0.37792 0.0
H1123 H 0.31525 0.73319 0.40404 0.0
H1124 H 0.20801 0.66574 0.34512 0.0
H1125 H 0.20162 0.67008 0.39842 0.0
H1126 H 0.20562 0.6938 0.3596 0.0
H1127 H 0.3181 0.69542 0.40713 0.0
H1128 H 0.29004 0.67076 0.43446 0.0
H1129 H 0.2935 0.66738 0.37953 0.0
H1130 H 0.20647 0.6061 0.46505 0.0
H1131 H 0.21926 0.5966 0.33516 0.0
H1132 H 0.22442 0.67059 0.46322 0.0
H1133 H 0.25409 0.67118 0.47499 0.0
H1134 H 0.22407 0.64638 0.4976 0.0
H1135 H 0.23932 0.65952 0.3031 0.0
H1136 H 0.24343 0.63221 0.29051 0.0
H1137 H 0.26893 0.66045 0.3164 0.0
C1138 C 0.37872 0.58009 0.4001 0.0
C1139 C 0.39545 0.60013 0.42708 0.0
C1140 C 0.3517 0.56932 0.40284 0.0
C1141 C 0.3412 0.57852 0.43379 0.0
C1142 C 0.35803 0.59927 0.4603 0.0
C1143 C 0.38497 0.60997 0.4564 0.0
C1144 C 0.33437 0.54757 0.37345 0.0
C1145 C 0.34757 0.60944 0.49396 0.0
C1146 C 0.27074 0.56167 0.42509 0.0
C1147 C 0.25831 0.53983 0.45122 0.0
C1148 C 0.29772 0.5745 0.41903 0.0
C1149 C 0.31262 0.56543 0.44004 0.0
C1150 C 0.3002 0.54361 0.46696 0.0
C1151 C 0.27316 0.53097 0.47198 0.0
C1152 C 0.31021 0.59748 0.38967 0.0
C1153 C 0.31548 0.53363 0.49047 0.0
H1154 H 0.38671 0.57254 0.37717 0.0
H1155 H 0.39778 0.62541 0.47748 0.0
H1156 H 0.32291 0.52936 0.39152 0.0
H1157 H 0.32038 0.55202 0.35785 0.0
H1158 H 0.3456 0.54411 0.34896 0.0
H1159 H 0.36323 0.62659 0.51046 0.0
H1160 H 0.33385 0.61492 0.48022 0.0
H1161 H 0.3366 0.59395 0.51739 0.0
H1162 H 0.25924 0.56834 0.40861 0.0
H1163 H 0.26362 0.5143 0.49256 0.0
H1164 H 0.3199 0.59329 0.36356 0.0
H1165 H 0.3254 0.61477 0.40643 0.0
H1166 H 0.29591 0.60232 0.37625 0.0
H1167 H 0.3256 0.52749 0.46796 0.0
H1168 H 0.30296 0.51689 0.51105 0.0
H1169 H 0.33059 0.54935 0.51006 0.0
C1170 C 0.38676 0.16339 0.11082 0.0
C1171 C 0.40436 0.18655 0.13094 0.0
C1172 C 0.36016 0.15099 0.11996 0.0
C1173 C 0.35103 0.16194 0.15023 0.0
C1174 C 0.36868 0.18546 0.17039 0.0
C1175 C 0.39516 0.19755 0.16036 0.0
C1176 C 0.34186 0.12605 0.09751 0.0
C1177 C 0.35967 0.19757 0.20311 0.0
C1178 C 0.27943 0.14093 0.14911 0.0
C1179 C 0.26963 0.12175 0.18032 0.0
C1180 C 0.30595 0.15433 0.13919 0.0
C1181 C 0.32305 0.14852 0.16126 0.0
C1182 C 0.31335 0.12949 0.19329 0.0
C1183 C 0.2867 0.11625 0.2023 0.0
C1184 C 0.31558 0.17434 0.10458 0.0
C1185 C 0.33107 0.12295 0.21776 0.0
H1186 H 0.39386 0.15503 0.08781 0.0
H1187 H 0.40877 0.21523 0.17646 0.0
H1188 H 0.33216 0.11002 0.12054 0.0
H1189 H 0.32643 0.12806 0.0814 0.0
H1190 H 0.35199 0.12051 0.07396 0.0
H1191 H 0.37581 0.21619 0.21525 0.0
H1192 H 0.34456 0.20121 0.18976 0.0
H1193 H 0.35072 0.18398 0.22981 0.0
H1194 H 0.26624 0.14496 0.1316 0.0
H1195 H 0.27917 0.10161 0.22671 0.0
H1196 H 0.32422 0.16841 0.07908 0.0
H1197 H 0.33107 0.19333 0.11663 0.0
H1198 H 0.29983 0.17699 0.09111 0.0
H1199 H 0.34037 0.11536 0.19624 0.0
H1200 H 0.32055 0.10824 0.24255 0.0
H1201 H 0.34683 0.14073 0.23268 0.0
C1202 C 0.85367 0.24143 0.15981 0.0
C1203 C 0.82678 0.22973 0.16585 0.0
C1204 C 0.86648 0.2272 0.16439 0.0
C1205 C 0.85204 0.20062 0.17537 0.0
C1206 C 0.8249 0.18867 0.18169 0.0
C1207 C 0.81259 0.20341 0.1769 0.0
C1208 C 0.89549 0.24066 0.15764 0.0
C1209 C 0.80889 0.16033 0.19333 0.0
C1210 C 0.88299 0.1599 0.14965 0.0
C1211 C 0.89396 0.15942 0.18832 0.0
C1212 C 0.86878 0.17277 0.14519 0.0
C1213 C 0.86548 0.18542 0.18027 0.0
C1214 C 0.87603 0.18454 0.21959 0.0
C1215 C 0.89016 0.17154 0.22313 0.0
C1216 C 0.8579 0.17341 0.1027 0.0
C1217 C 0.8728 0.19772 0.25774 0.0
H1218 H 0.86483 0.26188 0.15213 0.0
H1219 H 0.79179 0.19426 0.18124 0.0
H1220 H 0.90519 0.23953 0.18662 0.0
H1221 H 0.90008 0.23073 0.13242 0.0
H1222 H 0.90382 0.26142 0.14896 0.0
H1223 H 0.78801 0.15403 0.19743 0.0
H1224 H 0.8107 0.14818 0.16863 0.0
H1225 H 0.81627 0.15658 0.22292 0.0
H1226 H 0.88613 0.15086 0.12254 0.0
H1227 H 0.89826 0.17086 0.2532 0.0
H1228 H 0.86724 0.19372 0.09118 0.0
H1229 H 0.83677 0.16621 0.10513 0.0
H1230 H 0.86104 0.16149 0.07913 0.0
H1231 H 0.88229 0.21895 0.25221 0.0
H1232 H 0.88134 0.19434 0.28638 0.0
H1233 H 0.85191 0.19058 0.26352 0.0
C1234 C 0.8079 0.61613 0.13874 0.0
C1235 C 0.7811 0.60329 0.13063 0.0
C1236 C 0.8223 0.64321 0.14319 0.0
C1237 C 0.80971 0.65791 0.13871 0.0
C1238 C 0.78289 0.64527 0.1293 0.0
C1239 C 0.76888 0.61813 0.12571 0.0
C1240 C 0.85087 0.65605 0.15352 0.0
C1241 C 0.76886 0.66036 0.12385 0.0
C1242 C 0.83772 0.72385 0.19078 0.0
C1243 C 0.85013 0.74063 0.15707 0.0
C1244 C 0.82502 0.69685 0.18544 0.0
C1245 C 0.82436 0.68646 0.1452 0.0
C1246 C 0.83705 0.70335 0.11107 0.0
C1247 C 0.84997 0.73029 0.11751 0.0
C1248 C 0.81205 0.67946 0.22273 0.0
C1249 C 0.83636 0.69297 0.06758 0.0
H1250 H 0.8177 0.60503 0.14183 0.0
H1251 H 0.74821 0.60863 0.12004 0.0
H1252 H 0.86241 0.67083 0.12944 0.0
H1253 H 0.85468 0.6663 0.18403 0.0
H1254 H 0.85783 0.64188 0.15536 0.0
H1255 H 0.74833 0.64778 0.11405 0.0
H1256 H 0.76914 0.67001 0.15378 0.0
H1257 H 0.77888 0.67584 0.10002 0.0
H1258 H 0.83806 0.73195 0.22138 0.0
H1259 H 0.85924 0.7433 0.09133 0.0
H1260 H 0.81946 0.66579 0.22692 0.0
H1261 H 0.79083 0.66762 0.21723 0.0
H1262 H 0.81535 0.69064 0.25222 0.0
H1263 H 0.84407 0.67942 0.06816 0.0
H1264 H 0.84782 0.7087 0.0447 0.0
H1265 H 0.81599 0.68183 0.05642 0.0
C1266 C 0.09026 0.27798 0.82886 0.0
C1267 C 0.10385 0.26431 0.82885 0.0
C1268 C 0.10338 0.30515 0.83161 0.0
C1269 C 0.13076 0.31904 0.83499 0.0
C1270 C 0.14464 0.30545 0.83523 0.0
C1271 C 0.13103 0.27827 0.83194 0.0
C1272 C 0.08791 0.319 0.83101 0.0
C1273 C 0.17386 0.31962 0.839 0.0
C1274 C 0.16663 0.39028 0.80468 0.0
C1275 C 0.17082 0.40243 0.84386 0.0
C1276 C 0.15362 0.36314 0.80132 0.0
C1277 C 0.14486 0.34783 0.83812 0.0
C1278 C 0.14921 0.36 0.87782 0.0
C1279 C 0.16201 0.38719 0.88017 0.0
C1280 C 0.14898 0.35086 0.7584 0.0
C1281 C 0.14041 0.3443 0.91777 0.0
H1282 H 0.06928 0.2675 0.82738 0.0
H1283 H 0.14174 0.26797 0.83146 0.0
H1284 H 0.09112 0.33004 0.86057 0.0
H1285 H 0.0946 0.33322 0.80489 0.0
H1286 H 0.06675 0.30538 0.82731 0.0
H1287 H 0.18171 0.30615 0.83953 0.0
H1288 H 0.18273 0.33321 0.81229 0.0
H1289 H 0.17997 0.33141 0.86813 0.0
H1290 H 0.1731 0.40204 0.77653 0.0
H1291 H 0.16548 0.39661 0.91047 0.0
H1292 H 0.12782 0.33826 0.75298 0.0
H1293 H 0.15783 0.33832 0.75643 0.0
H1294 H 0.15714 0.36555 0.73293 0.0
H1295 H 0.11903 0.33134 0.91732 0.0
H1296 H 0.14573 0.35677 0.94616 0.0
H1297 H 0.14922 0.33173 0.92018 0.0
C1298 C 0.617 0.7769 0.87595 0.0
C1299 C 0.60165 0.77219 0.8401 0.0
C1300 C 0.64418 0.79095 0.8734 0.0
C1301 C 0.6562 0.80021 0.83395 0.0
C1302 C 0.64078 0.79594 0.79776 0.0
C1303 C 0.61366 0.78206 0.80133 0.0
C1304 C 0.66001 0.7954 0.91273 0.0
C1305 C 0.65292 0.80525 0.75507 0.0
C1306 C 0.72736 0.85217 0.82824 0.0
C1307 C 0.73916 0.83724 0.82037 0.0
C1308 C 0.70036 0.84039 0.83323 0.0
C1309 C 0.68485 0.81306 0.83005 0.0
C1310 C 0.69665 0.79787 0.82249 0.0
C1311 C 0.72366 0.81013 0.81796 0.0
C1312 C 0.68841 0.85716 0.84152 0.0
C1313 C 0.68073 0.76865 0.81893 0.0
H1314 H 0.60769 0.76952 0.90599 0.0
H1315 H 0.60182 0.77815 0.77351 0.0
H1316 H 0.67131 0.78523 0.91016 0.0
H1317 H 0.67414 0.81639 0.9166 0.0
H1318 H 0.64769 0.7883 0.94128 0.0
H1319 H 0.63822 0.80143 0.73043 0.0
H1320 H 0.66702 0.82639 0.75591 0.0
H1321 H 0.66381 0.79533 0.74611 0.0
H1322 H 0.73921 0.87311 0.82985 0.0
H1323 H 0.73262 0.79838 0.81295 0.0
H1324 H 0.67674 0.8508 0.87076 0.0
H1325 H 0.67502 0.85496 0.8156 0.0
H1326 H 0.70326 0.87804 0.84455 0.0
H1327 H 0.6696 0.7603 0.84825 0.0
H1328 H 0.69293 0.75969 0.81288 0.0
H1329 H 0.66645 0.76318 0.79307 0.0
C1330 C 0.20593 0.81238 0.813 0.0
C1331 C 0.23217 0.82663 0.82472 0.0
C1332 C 0.19119 0.82461 0.80717 0.0
C1333 C 0.20285 0.85167 0.81391 0.0
C1334 C 0.22924 0.86618 0.82587 0.0
C1335 C 0.24363 0.85356 0.83072 0.0
C1336 C 0.16313 0.80856 0.79394 0.0
C1337 C 0.24227 0.89507 0.83374 0.0
C1338 C 0.17347 0.88981 0.76703 0.0
C1339 C 0.15976 0.89167 0.8013 0.0
C1340 C 0.1871 0.87629 0.77036 0.0
C1341 C 0.18738 0.86484 0.80914 0.0
C1342 C 0.17352 0.86665 0.84384 0.0
C1343 C 0.15969 0.87987 0.83936 0.0
C1344 C 0.2013 0.87436 0.7325 0.0
C1345 C 0.17378 0.85512 0.88591 0.0
H1346 H 0.19675 0.79159 0.80873 0.0
H1347 H 0.26396 0.86497 0.83882 0.0
H1348 H 0.15035 0.8094 0.81848 0.0
H1349 H 0.15978 0.81663 0.76477 0.0
H1350 H 0.15727 0.78789 0.78839 0.0
H1351 H 0.26284 0.90346 0.84361 0.0
H1352 H 0.24168 0.90519 0.80491 0.0
H1353 H 0.23167 0.89912 0.85852 0.0
H1354 H 0.17327 0.89874 0.73752 0.0
H1355 H 0.14936 0.88163 0.86601 0.0
H1356 H 0.19469 0.85369 0.72554 0.0
H1357 H 0.22243 0.88408 0.73907 0.0
H1358 H 0.19824 0.8834 0.7042 0.0
H1359 H 0.16656 0.83402 0.88266 0.0
H1360 H 0.16166 0.85791 0.90955 0.0
H1361 H 0.19398 0.86423 0.89787 0.0
C1362 C 0.94301 0.43015 0.51885 0.0
C1363 C 0.92713 0.44022 0.50621 0.0
C1364 C 0.97009 0.44468 0.51477 0.0
C1365 C 0.9817 0.46974 0.49678 0.0
C1366 C 0.966 0.4801 0.48379 0.0
C1367 C 0.93899 0.46537 0.4891 0.0
C1368 C 0.98628 0.43314 0.5296 0.0
C1369 C 0.97773 0.50668 0.46397 0.0
C1370 C 0.05304 0.51594 0.51883 0.0
C1371 C 0.06474 0.51233 0.48332 0.0
C1372 C 0.02598 0.50227 0.52358 0.0
C1373 C 0.01032 0.48505 0.49155 0.0
C1374 C 0.02206 0.48184 0.45513 0.0
C1375 C 0.04921 0.49532 0.45171 0.0
C1376 C 0.01421 0.50573 0.56329 0.0
C1377 C 0.00596 0.46406 0.41995 0.0
H1378 H 0.93451 0.41079 0.53163 0.0
H1379 H 0.92728 0.47374 0.47976 0.0
H1380 H 0.99692 0.431 0.50275 0.0
H1381 H 0.001 0.44633 0.55258 0.0
H1382 H 0.97435 0.41382 0.54449 0.0
H1383 H 0.96279 0.51171 0.45465 0.0
H1384 H 0.99139 0.52164 0.48619 0.0
H1385 H 0.98907 0.50755 0.43575 0.0
H1386 H 0.06517 0.52886 0.54348 0.0
H1387 H 0.05838 0.49277 0.42416 0.0
H1388 H 0.0034 0.48687 0.57995 0.0
H1389 H 8e-05 0.51212 0.55565 0.0
H1390 H 0.0291 0.52016 0.58488 0.0
H1391 H 0.99491 0.44376 0.43143 0.0
H1392 H 0.01805 0.46477 0.39286 0.0
H1393 H 0.9916 0.46947 0.40895 0.0
C1394 C 0.46993 0.53284 0.5122 0.0
C1395 C 0.48468 0.55828 0.49668 0.0
C1396 C 0.48113 0.51723 0.51889 0.0
C1397 C 0.50758 0.52703 0.5089 0.0
C1398 C 0.52253 0.55245 0.49269 0.0
C1399 C 0.51101 0.56783 0.48723 0.0
C1400 C 0.4647 0.4903 0.53682 0.0
C1401 C 0.55075 0.56344 0.4811 0.0
C1402 C 0.54633 0.49868 0.55686 0.0
C1403 C 0.54589 0.48256 0.52451 0.0
C1404 C 0.53312 0.51258 0.55284 0.0
C1405 C 0.51973 0.51072 0.51512 0.0
C1406 C 0.51903 0.49423 0.4825 0.0
C1407 C 0.53192 0.48012 0.4878 0.0
C1408 C 0.53383 0.52955 0.58864 0.0
C1409 C 0.50546 0.4922 0.44146 0.0
H1410 H 0.44955 0.52495 0.5191 0.0
H1411 H 0.52293 0.58746 0.47597 0.0
H1412 H 0.46366 0.47561 0.51427 0.0
H1413 H 0.47374 0.48827 0.56595 0.0
H1414 H 0.44463 0.48586 0.54413 0.0
H1415 H 0.55943 0.58323 0.46743 0.0
H1416 H 0.56211 0.56435 0.50927 0.0
H1417 H 0.55273 0.55055 0.45806 0.0
H1418 H 0.55703 0.50034 0.5853 0.0
H1419 H 0.53193 0.46791 0.46259 0.0
H1420 H 0.5138 0.52465 0.59725 0.0
H1421 H 0.54434 0.55021 0.57882 0.0
H1422 H 0.54355 0.52743 0.61687 0.0
H1423 H 0.4849 0.48653 0.44716 0.0
H1424 H 0.50601 0.47784 0.41981 0.0
H1425 H 0.51484 0.51143 0.42575 0.0
C1426 C 0.44343 0.94119 0.51916 0.0
C1427 C 0.43432 0.92915 0.48018 0.0
C1428 C 0.4576 0.96832 0.52258 0.0
C1429 C 0.46298 0.9837 0.48604 0.0
C1430 C 0.45427 0.97162 0.44647 0.0
C1431 C 0.43988 0.94445 0.44407 0.0
C1432 C 0.46627 0.98052 0.56539 0.0
C1433 C 0.45991 0.9874 0.40678 0.0
C1434 C 0.47599 0.05248 0.49961 0.0
C1435 C 0.50322 0.06692 0.49872 0.0
C1436 C 0.46267 0.02541 0.49533 0.0
C1437 C 0.4769 0.01243 0.48949 0.0
C1438 C 0.50434 0.02684 0.4877 0.0
C1439 C 0.51718 0.05391 0.49252 0.0
C1440 C 0.43337 0.01066 0.49749 0.0
C1441 C 0.52013 0.01362 0.48122 0.0
H1442 H 0.43883 0.92936 0.54714 0.0
H1443 H 0.43306 0.9351 0.4139 0.0
H1444 H 0.4876 0.99375 0.56573 0.0
H1445 H 0.45713 0.99239 0.57272 0.0
H1446 H 0.46109 0.96579 0.59052 0.0
H1447 H 0.45268 0.97499 0.37834 0.0
H1448 H 0.45068 0.99962 0.40839 0.0
H1449 H 0.48113 0.00071 0.40348 0.0
H1450 H 0.46497 0.06232 0.50347 0.0
H1451 H 0.53819 0.06481 0.49221 0.0
H1452 H 0.42682 0.99651 0.52371 0.0
H1453 H 0.42519 0.99945 0.46818 0.0
H1454 H 0.42521 0.0237 0.50215 0.0
H1455 H 0.51688 0.00025 0.50772 0.0
H1456 H 0.54125 0.02772 0.47882 0.0
H1457 H 0.51376 0.00172 0.45222 0.0
C1458 C 0.1784 0.98491 0.3933 0.0
C1459 C 0.19837 0.00649 0.3727 0.0
C1460 C 0.1805 0.98024 0.43574 0.0
C1461 C 0.20332 0.99741 0.45806 0.0
C1462 C 0.22468 0.01752 0.43627 0.0
C1463 C 0.2219 0.02196 0.39374 0.0
C1464 C 0.15729 0.9584 0.45753 0.0
C1465 C 0.24965 0.03567 0.4586 0.0
C1466 C 0.18614 0.00719 0.56766 0.0
C1467 C 0.18915 0.9887 0.59036 0.0
C1468 C 0.19249 0.0115 0.5251 0.0
C1469 C 0.20247 0.99719 0.5047 0.0
C1470 C 0.20784 0.98023 0.52836 0.0
C1471 C 0.20098 0.97607 0.57111 0.0
C1472 C 0.18653 0.0299 0.50132 0.0
C1473 C 0.21919 0.96521 0.50808 0.0
H1474 H 0.16046 0.97243 0.37675 0.0
H1475 H 0.23752 0.03853 0.37785 0.0
H1476 H 0.16328 0.94683 0.47695 0.0
H1477 H 0.14847 0.96663 0.47882 0.0
H1478 H 0.14221 0.94518 0.43497 0.0
H1479 H 0.26601 0.04589 0.4362 0.0
H1480 H 0.24724 0.05049 0.47598 0.0
H1481 H 0.25475 0.02499 0.48171 0.0
H1482 H 0.17759 0.01745 0.58287 0.0
H1483 H 0.20353 0.96192 0.58874 0.0
H1484 H 0.17056 0.01876 0.4787 0.0
H1485 H 0.20372 0.044 0.48309 0.0
H1486 H 0.18059 0.04087 0.52243 0.0
H1487 H 0.20352 0.94789 0.49206 0.0
H1488 H 0.22827 0.95847 0.53165 0.0
H1489 H 0.23392 0.97714 0.48415 0.0
C1490 C 0.97373 0.16642 0.61548 0.0
C1491 C 0.99467 0.18769 0.63495 0.0
C1492 C 0.96793 0.16748 0.57328 0.0
C1493 C 0.98355 0.19039 0.55 0.0
C1494 C 0.00315 0.21276 0.57058 0.0
C1495 C 0.00851 0.21115 0.61306 0.0
C1496 C 0.94668 0.14325 0.55274 0.0
C1497 C 0.01992 0.23764 0.54698 0.0
C1498 C 0.99343 0.17385 0.44 0.0
C1499 C 0.97478 0.17669 0.41752 0.0
C1500 C 0.99752 0.17981 0.48268 0.0
C1501 C 0.98258 0.18892 0.50349 0.0
C1502 C 0.96487 0.19345 0.48039 0.0
C1503 C 0.96118 0.18727 0.43741 0.0
C1504 C 0.01679 0.17489 0.50594 0.0
C1505 C 0.94886 0.20343 0.50142 0.0
H1506 H 0.96271 0.14844 0.63279 0.0
H1507 H 0.02461 0.22765 0.62828 0.0
H1508 H 0.93432 0.14794 0.53276 0.0
H1509 H 0.95551 0.13468 0.53219 0.0
H1510 H 0.93415 0.12839 0.57614 0.0
H1511 H 0.03018 0.25444 0.56856 0.0
H1512 H 0.03469 0.23568 0.52861 0.0
H1513 H 0.00815 0.24174 0.52455 0.0
H1514 H 0.00442 0.16626 0.42427 0.0
H1515 H 0.9469 0.18965 0.41984 0.0
H1516 H 0.00635 0.15877 0.5286 0.0
H1517 H 0.03049 0.19235 0.52408 0.0
H1518 H 0.02818 0.16966 0.48449 0.0
H1519 H 0.933 0.1875 0.51963 0.0
H1520 H 0.94001 0.21066 0.47824 0.0
H1521 H 0.96084 0.21929 0.52373 0.0
C1522 C 0.78577 0.80497 0.57484 0.0
C1523 C 0.80927 0.81447 0.59657 0.0
C1524 C 0.78422 0.79883 0.53198 0.0
C1525 C 0.80674 0.80253 0.51075 0.0
C1526 C 0.82992 0.81024 0.53344 0.0
C1527 C 0.83082 0.81594 0.57611 0.0
C1528 C 0.75901 0.79003 0.50897 0.0
C1529 C 0.85439 0.81438 0.51211 0.0
C1530 C 0.8116 0.78287 0.39964 0.0
C1531 C 0.82152 0.80681 0.37906 0.0
C1532 C 0.80454 0.78043 0.44217 0.0
C1533 C 0.80775 0.8025 0.46429 0.0
C1534 C 0.81593 0.82613 0.44272 0.0
C1535 C 0.82253 0.82792 0.40033 0.0
C1536 C 0.79526 0.75475 0.46395 0.0
C1537 C 0.81956 0.85015 0.46506 0.0
H1538 H 0.769 0.80354 0.59078 0.0
H1539 H 0.84878 0.82249 0.59326 0.0
H1540 H 0.76018 0.80658 0.49108 0.0
H1541 H 0.7553 0.77445 0.48616 0.0
H1542 H 0.7423 0.78282 0.5309 0.0
H1543 H 0.87006 0.81824 0.53488 0.0
H1544 H 0.85037 0.79713 0.49315 0.0
H1545 H 0.8616 0.83118 0.49042 0.0
H1546 H 0.81052 0.76643 0.3831 0.0
H1547 H 0.82937 0.84622 0.38406 0.0
H1548 H 0.77911 0.75053 0.48584 0.0
H1549 H 0.81137 0.7556 0.48269 0.0
H1550 H 0.78865 0.73851 0.44118 0.0
H1551 H 0.80191 0.84572 0.48318 0.0
H1552 H 0.82389 0.86628 0.443 0.0
H1553 H 0.83588 0.85691 0.48765 0.0
C1554 C 0.84219 0.33472 0.91668 0.0
C1555 C 0.84439 0.31483 0.93624 0.0
C1556 C 0.84813 0.34036 0.87422 0.0
C1557 C 0.85651 0.32573 0.85068 0.0
C1558 C 0.86053 0.30681 0.87095 0.0
C1559 C 0.85442 0.30157 0.91378 0.0
C1560 C 0.84374 0.36083 0.85401 0.0
C1561 C 0.86975 0.29107 0.84696 0.0
C1562 C 0.83313 0.31939 0.73927 0.0
C1563 C 0.85469 0.33994 0.71964 0.0
C1564 C 0.83417 0.31325 0.78128 0.0
C1565 C 0.85739 0.32803 0.80426 0.0
C1566 C 0.87985 0.34752 0.78374 0.0
C1567 C 0.87824 0.35327 0.74145 0.0
C1568 C 0.8098 0.29217 0.80181 0.0
C1569 C 0.90503 0.36345 0.80709 0.0
H1570 H 0.83499 0.34537 0.93444 0.0
H1571 H 0.8563 0.28632 0.92912 0.0
H1572 H 0.86105 0.37461 0.83566 0.0
H1573 H 0.82713 0.35144 0.83192 0.0
H1574 H 0.83946 0.37202 0.87744 0.0
H1575 H 0.87646 0.28083 0.86826 0.0
H1576 H 0.85357 0.27633 0.82761 0.0
H1577 H 0.88579 0.30362 0.82534 0.0
H1578 H 0.81509 0.30862 0.72202 0.0
H1579 H 0.89499 0.36903 0.72613 0.0
H1580 H 0.80227 0.30107 0.82432 0.0
H1581 H 0.81405 0.27876 0.81975 0.0
H1582 H 0.7943 0.28069 0.7786 0.0
H1583 H 0.90349 0.37782 0.82727 0.0
H1584 H 0.92167 0.37413 0.78535 0.0
H1585 H 0.90912 0.35094 0.82784 0.0
C1586 C 0.68848 0.55579 0.91341 0.0
C1587 C 0.6751 0.53156 0.93328 0.0
C1588 C 0.68411 0.55838 0.87075 0.0
C1589 C 0.66616 0.53617 0.84782 0.0
C1590 C 0.65103 0.51225 0.86892 0.0
C1591 C 0.65562 0.51031 0.9114 0.0
C1592 C 0.70007 0.58437 0.84968 0.0
C1593 C 0.63152 0.48807 0.84589 0.0
C1594 C 0.6425 0.53183 0.7362 0.0
C1595 C 0.65715 0.52258 0.71576 0.0
C1596 C 0.64679 0.53886 0.77883 0.0
C1597 C 0.66597 0.53629 0.8012 0.0
C1598 C 0.68232 0.52925 0.77953 0.0
C1599 C 0.67777 0.52261 0.73705 0.0
C1600 C 0.6295 0.54704 0.80052 0.0
C1601 C 0.70315 0.52644 0.80197 0.0
H1602 H 0.7034 0.57232 0.93043 0.0
H1603 H 0.64482 0.49171 0.9271 0.0
H1604 H 0.71659 0.58472 0.83295 0.0
H1605 H 0.68836 0.58782 0.82619 0.0
H1606 H 0.70805 0.6005 0.87282 0.0
H1607 H 0.61975 0.47171 0.86758 0.0
H1608 H 0.6182 0.49204 0.82712 0.0
H1609 H 0.64186 0.4819 0.82384 0.0
H1610 H 0.62668 0.53205 0.71969 0.0
H1611 H 0.68957 0.51614 0.72093 0.0
H1612 H 0.6406 0.5626 0.8238 0.0
H1613 H 0.61391 0.53021 0.81762 0.0
H1614 H 0.62022 0.55404 0.77774 0.0
H1615 H 0.71549 0.54394 0.82108 0.0
H1616 H 0.7158 0.52335 0.77986 0.0
H1617 H 0.69394 0.50959 0.82365 0.0
C1618 C 0.49554 0.10999 0.75287 0.0
C1619 C 0.48257 0.11733 0.72395 0.0
C1620 C 0.49327 0.11252 0.79622 0.0
C1621 C 0.47703 0.12187 0.81104 0.0
C1622 C 0.46168 0.12651 0.78233 0.0
C1623 C 0.46487 0.12452 0.73917 0.0
C1624 C 0.51009 0.10746 0.82576 0.0
C1625 C 0.44354 0.13579 0.79691 0.0
C1626 C 0.46613 0.12297 0.92857 0.0
C1627 C 0.4839 0.149 0.93848 0.0
C1628 C 0.46343 0.11376 0.88718 0.0
C1629 C 0.47926 0.13083 0.85518 0.0
C1630 C 0.49728 0.15702 0.86499 0.0
C1631 C 0.49909 0.16583 0.90623 0.0
C1632 C 0.4436 0.08586 0.87766 0.0
C1633 C 0.51472 0.17586 0.83184 0.0
H1634 H 0.50859 0.10355 0.7417 0.0
H1635 H 0.45474 0.13041 0.71753 0.0
H1636 H 0.52623 0.12629 0.83716 0.0
H1637 H 0.49885 0.09633 0.85357 0.0
H1638 H 0.51856 0.09666 0.81027 0.0
H1639 H 0.42959 0.13377 0.77201 0.0
H1640 H 0.43248 0.12482 0.82499 0.0
H1641 H 0.45502 0.15658 0.80582 0.0
H1642 H 0.4545 0.10965 0.95317 0.0
H1643 H 0.51238 0.18612 0.91309 0.0
H1644 H 0.45335 0.07563 0.86471 0.0
H1645 H 0.42985 0.08508 0.85341 0.0
H1646 H 0.43237 0.07523 0.9059 0.0
H1647 H 0.52596 0.16804 0.81593 0.0
H1648 H 0.52858 0.19523 0.84507 0.0
H1649 H 0.5028 0.17842 0.80761 0.0
C1650 C 0.51761 0.67935 0.2593 0.0
C1651 C 0.51753 0.65835 0.27935 0.0
C1652 C 0.52493 0.68505 0.21725 0.0
C1653 C 0.53249 0.6694 0.1947 0.0
C1654 C 0.53452 0.6495 0.2157 0.0
C1655 C 0.52696 0.64416 0.25798 0.0
C1656 C 0.52264 0.70658 0.19621 0.0
C1657 C 0.54294 0.63273 0.19286 0.0
C1658 C 0.5103 0.66256 0.08251 0.0
C1659 C 0.53255 0.68202 0.06261 0.0
C1660 C 0.5106 0.65705 0.12502 0.0
C1661 C 0.53382 0.67128 0.14824 0.0
C1662 C 0.55691 0.68959 0.12758 0.0
C1663 C 0.556 0.69479 0.08476 0.0
C1664 C 0.48554 0.63726 0.14565 0.0
C1665 C 0.58211 0.70479 0.15117 0.0
H1666 H 0.51103 0.69083 0.27621 0.0
H1667 H 0.52715 0.62807 0.27361 0.0
H1668 H 0.54052 0.71942 0.17826 0.0
H1669 H 0.50624 0.69807 0.17363 0.0
H1670 H 0.51915 0.7186 0.2191 0.0
H1671 H 0.54851 0.62191 0.21497 0.0
H1672 H 0.52671 0.61843 0.1731 0.0
H1673 H 0.55958 0.64463 0.17179 0.0
H1674 H 0.4923 0.65221 0.06501 0.0
H1675 H 0.57327 0.70967 0.06918 0.0
H1676 H 0.47893 0.64722 0.16769 0.0
H1677 H 0.48857 0.6232 0.16412 0.0
H1678 H 0.46983 0.62632 0.12247 0.0
H1679 H 0.58156 0.72026 0.1698 0.0
H1680 H 0.59902 0.71409 0.12959 0.0
H1681 H 0.58499 0.69209 0.17339 0.0
C1682 C 0.35251 0.86162 0.05877 0.0
C1683 C 0.33081 0.86029 0.03921 0.0
C1684 C 0.35757 0.86806 0.10121 0.0
C1685 C 0.34041 0.8732 0.12462 0.0
C1686 C 0.31995 0.87442 0.10397 0.0
C1687 C 0.31533 0.86789 0.06123 0.0
C1688 C 0.37978 0.86679 0.12179 0.0
C1689 C 0.30159 0.88036 0.12771 0.0
C1690 C 0.33167 0.84469 0.2328 0.0
C1691 C 0.34938 0.86622 0.25629 0.0
C1692 C 0.3273 0.84715 0.19045 0.0
C1693 C 0.34093 0.87183 0.17106 0.0
C1694 C 0.35743 0.89402 0.19535 0.0
C1695 C 0.3615 0.89094 0.23793 0.0
C1696 C 0.30936 0.82296 0.16589 0.0
C1697 C 0.37194 0.92069 0.17594 0.0
H1698 H 0.36472 0.85619 0.04131 0.0
H1699 H 0.29867 0.86704 0.04585 0.0
H1700 H 0.391 0.88385 0.14241 0.0
H1701 H 0.37194 0.84914 0.14169 0.0
H1702 H 0.39322 0.866 0.0984 0.0
H1703 H 0.29074 0.88627 0.10627 0.0
H1704 H 0.28732 0.86276 0.145 0.0
H1705 H 0.31222 0.89599 0.15107 0.0
H1706 H 0.32176 0.82567 0.24738 0.0
H1707 H 0.37501 0.90763 0.25628 0.0
H1708 H 0.32079 0.81884 0.14277 0.0
H1709 H 0.29497 0.82585 0.14817 0.0
H1710 H 0.29873 0.80567 0.1864 0.0
H1711 H 0.38892 0.92265 0.15832 0.0
H1712 H 0.37911 0.93622 0.2001 0.0
H1713 H 0.35946 0.92369 0.15342 0.0
C1714 C 0.14817 0.47003 0.27409 0.0
C1715 C 0.13107 0.47848 0.28698 0.0
C1716 C 0.15051 0.46537 0.23172 0.0
C1717 C 0.13514 0.46895 0.20155 0.0
C1718 C 0.11645 0.47559 0.21471 0.0
C1719 C 0.11484 0.4806 0.25734 0.0
C1720 C 0.171 0.45876 0.21902 0.0
C1721 C 0.09929 0.47898 0.18353 0.0
C1722 C 0.16814 0.49477 0.09717 0.0
C1723 C 0.15826 0.47215 0.07273 0.0
C1724 C 0.16041 0.49392 0.13881 0.0
C1725 C 0.14171 0.46993 0.15639 0.0
C1726 C 0.13074 0.44713 0.13157 0.0
C1727 C 0.1393 0.44846 0.09002 0.0
C1728 C 0.17277 0.51871 0.16425 0.0
C1729 C 0.11036 0.42133 0.14912 0.0
H1730 H 0.16096 0.46864 0.29686 0.0
H1731 H 0.1014 0.48684 0.26734 0.0
H1732 H 0.1629 0.44223 0.19676 0.0
H1733 H 0.18707 0.47567 0.20275 0.0
H1734 H 0.17918 0.45376 0.24642 0.0
H1735 H 0.08285 0.47952 0.19912 0.0
H1736 H 0.11089 0.49747 0.16622 0.0
H1737 H 0.09141 0.46302 0.16015 0.0
H1738 H 0.18204 0.51335 0.08373 0.0
H1739 H 0.13147 0.43091 0.07136 0.0
H1740 H 0.1829 0.51654 0.19184 0.0
H1741 H 0.15764 0.52274 0.17622 0.0
H1742 H 0.18702 0.53575 0.14576 0.0
H1743 H 0.11904 0.41495 0.17388 0.0
H1744 H 0.10189 0.40601 0.12462 0.0
H1745 H 0.0945 0.42323 0.16393 0.0
C1746 C 0.18088 0.04354 0.0569 0.0
C1747 C 0.18779 0.0314 0.08788 0.0
C1748 C 0.18177 0.03828 0.01433 0.0
C1749 C 0.18952 0.02023 0.00245 0.0
C1750 C 0.19842 0.00943 0.03339 0.0
C1751 C 0.19751 0.01521 0.07591 0.0
C1752 C 0.17236 0.05047 0.98237 0.0
C1753 C 0.20698 0.99023 0.02196 0.0
C1754 C 0.1511 0.98068 0.90923 0.0
C1755 C 0.16835 0.993 0.87598 0.0
C1756 C 0.15841 0.98846 0.9507 0.0
C1757 C 0.18361 0.00934 0.95928 0.0
C1758 C 0.20164 0.02109 0.92606 0.0
C1759 C 0.19381 0.01265 0.88456 0.0
C1760 C 0.13861 0.97512 0.98514 0.0
C1761 C 0.22868 0.04335 0.93407 0.0
H1762 H 0.17381 0.05647 0.06598 0.0
H1763 H 0.20307 0.00594 0.0998 0.0
H1764 H 0.18579 0.0579 0.95522 0.0
H1765 H 0.15305 0.03555 0.97041 0.0
H1766 H 0.17051 0.06669 0.99588 0.0
H1767 H 0.21787 0.98752 0.04791 0.0
H1768 H 0.18964 0.97115 0.01488 0.0
H1769 H 0.21934 0.9966 0.99348 0.0
H1770 H 0.13153 0.96512 0.90276 0.0
H1771 H 0.2072 0.02211 0.85884 0.0
H1772 H 0.13324 0.98892 -0.00107 0.0
H1773 H 0.14692 0.96883 0.01064 0.0
H1774 H 0.12064 0.95787 0.97355 0.0
H1775 H 0.22772 0.06107 0.94156 0.0
H1776 H 0.24152 0.04751 0.90639 0.0
H1777 H 0.23753 0.03918 0.96144 0.0
C1778 C 0.98587 0.18793 0.11571 0.0
C1779 C 0.00279 0.18227 0.13769 0.0
C1780 C 0.98864 0.1923 0.07229 0.0
C1781 C 0.00906 0.19135 0.05104 0.0
C1782 C 0.02794 0.18874 0.07428 0.0
C1783 C 0.02424 0.18364 0.11739 0.0
C1784 C 0.96794 0.19471 0.04876 0.0
C1785 C 0.05044 0.18841 0.053 0.0
C1786 C 0.99706 0.1571 0.94682 0.0
C1787 C 0.00997 0.1779 0.91916 0.0
C1788 C 0.99528 0.16141 0.98948 0.0
C1789 C 0.0076 0.18721 0.00497 0.0
C1790 C 0.02002 0.20837 0.97679 0.0
C1791 C 0.02076 0.20342 0.93384 0.0
C1792 C 0.98117 0.13825 0.01822 0.0
C1793 C 0.03387 0.23607 0.99218 0.0
H1794 H 0.969 0.18633 0.13161 0.0
H1795 H 0.03709 0.17896 0.13463 0.0
H1796 H 0.9765 0.20915 0.02309 0.0
H1797 H 0.95424 0.17569 0.03435 0.0
H1798 H 0.95672 0.20037 0.06985 0.0
H1799 H 0.06582 0.19133 0.07575 0.0
H1800 H 0.04343 0.16938 0.03735 0.0
H1801 H 0.05907 0.20371 0.02857 0.0
H1802 H 0.98874 0.1374 0.93509 0.0
H1803 H 0.03107 0.21944 0.91218 0.0
H1804 H 0.96726 0.14055 0.03844 0.0
H1805 H 0.99533 0.13685 0.03911 0.0
H1806 H 0.97036 0.11974 0.00057 0.0
H1807 H 0.02191 0.23925 0.01552 0.0
H1808 H 0.03879 0.25015 0.96608 0.0
H1809 H 0.05215 0.24018 0.00802 0.0
C1810 C 0.79199 0.80101 0.89623 0.0
C1811 C 0.81682 0.80988 0.87968 0.0
C1812 C 0.78743 0.79592 0.93935 0.0
C1813 C 0.80819 0.79967 0.96569 0.0
C1814 C 0.83228 0.80534 0.94779 0.0
C1815 C 0.83643 0.81084 0.90494 0.0
C1816 C 0.76141 0.78958 0.9571 0.0
C1817 C 0.85474 0.80878 0.97454 0.0
C1818 C 0.82431 0.83573 0.06774 0.0
C1819 C 0.82069 0.81627 0.09596 0.0
C1820 C 0.81738 0.82988 0.0256 0.0
C1821 C 0.80737 0.80402 0.01134 0.0
C1822 C 0.80155 0.78391 0.04059 0.0
C1823 C 0.80817 0.79031 0.08295 0.0
C1824 C 0.82329 0.85188 0.99571 0.0
C1825 C 0.79084 0.75614 0.02679 0.0
H1826 H 0.77694 0.80055 0.87642 0.0
H1827 H 0.8556 0.81775 0.89174 0.0
H1828 H 0.75595 0.77596 0.98394 0.0
H1829 H 0.76249 0.8077 0.9687 0.0
H1830 H 0.74592 0.78097 0.9329 0.0
H1831 H 0.87039 0.80885 0.9554 0.0
H1832 H 0.86306 0.82754 0.99157 0.0
H1833 H 0.84814 0.79308 -0.00176 0.0
H1834 H 0.83393 0.85578 0.07819 0.0
H1835 H 0.80563 0.77533 0.10501 0.0
H1836 H 0.80676 0.84647 0.97406 0.0
H1837 H 0.8405 0.85607 0.97643 0.0
H1838 H 0.82749 0.86994 0.01252 0.0
H1839 H 0.78066 0.7424 0.05294 0.0
H1840 H 0.8071 0.75336 0.01643 0.0
H1841 H 0.77724 0.75123 4e-05 0.0
C1842 C 0.84633 0.35467 0.24108 0.0
C1843 C 0.84883 0.33646 0.21692 0.0
C1844 C 0.85183 0.35709 0.28405 0.0
C1845 C 0.85901 0.34013 0.30333 0.0
C1846 C 0.86389 0.32339 0.27821 0.0
C1847 C 0.8589 0.32189 0.23493 0.0
C1848 C 0.84712 0.37578 0.30945 0.0
C1849 C 0.87148 0.30496 0.29744 0.0
C1850 C 0.87137 0.35221 0.42004 0.0
C1851 C 0.84595 0.33777 0.43526 0.0
C1852 C 0.87658 0.35186 0.37711 0.0
C1853 C 0.85588 0.33637 0.34947 0.0
C1854 C 0.83066 0.3199 0.36577 0.0
C1855 C 0.82593 0.32118 0.40843 0.0
C1856 C 0.90365 0.36981 0.36103 0.0
C1857 C 0.80811 0.30256 0.33763 0.0
H1858 H 0.83839 0.36579 0.22688 0.0
H1859 H 0.86039 0.3075 0.21609 0.0
H1860 H 0.82848 0.36483 0.32667 0.0
H1861 H 0.86274 0.38603 0.33297 0.0
H1862 H 0.84604 0.39045 0.2893 0.0
H1863 H 0.88018 0.29783 0.27383 0.0
H1864 H 0.88543 0.31434 0.32355 0.0
H1865 H 0.8539 0.28794 0.31049 0.0
H1866 H 0.88673 0.36535 0.44098 0.0
H1867 H 0.80629 0.31013 0.42052 0.0
H1868 H 0.90454 0.38752 0.34789 0.0
H1869 H 0.90885 0.36053 0.33556 0.0
H1870 H 0.91832 0.37584 0.38646 0.0
H1871 H 0.80261 0.31463 0.31846 0.0
H1872 H 0.79082 0.28847 0.35583 0.0
H1873 H 0.81363 0.2916 0.31578 0.0
C1874 C 0.6644 0.52284 0.22824 0.0
C1875 C 0.68199 0.5143 0.21937 0.0
C1876 C 0.65632 0.52293 0.26971 0.0
C1877 C 0.66624 0.5144 0.30265 0.0
C1878 C 0.68523 0.50735 0.29391 0.0
C1879 C 0.69278 0.50732 0.25241 0.0
C1880 C 0.63616 0.5307 0.27789 0.0
C1881 C 0.69651 0.49834 0.32809 0.0
C1882 C 0.65944 0.52084 0.41954 0.0
C1883 C 0.64098 0.49518 0.42963 0.0
C1884 C 0.66657 0.5282 0.37755 0.0
C1885 C 0.65474 0.50945 0.34535 0.0
C1886 C 0.63449 0.48416 0.35537 0.0
C1887 C 0.62799 0.4773 0.39741 0.0
C1888 C 0.68811 0.55539 0.36806 0.0
C1889 C 0.6211 0.46364 0.322 0.0
H1890 H 0.65613 0.52837 0.20272 0.0
H1891 H 0.70674 0.50112 0.24576 0.0
H1892 H 0.61715 0.51306 0.28403 0.0
H1893 H 0.64125 0.54326 0.30608 0.0
H1894 H 0.6339 0.54112 0.25075 0.0
H1895 H 0.71277 0.49586 0.31659 0.0
H1896 H 0.70369 0.51242 0.3544 0.0
H1897 H 0.68117 0.47944 0.34072 0.0
H1898 H 0.6694 0.53472 0.44448 0.0
H1899 H 0.61333 0.45755 0.40516 0.0
H1900 H 0.68353 0.56316 0.33971 0.0
H1901 H 0.70627 0.55504 0.36161 0.0
H1902 H 0.69173 0.5688 0.39474 0.0
H1903 H 0.60358 0.44618 0.33424 0.0
H1904 H 0.63474 0.45755 0.30987 0.0
H1905 H 0.61529 0.47149 0.2952 0.0
C1906 C 0.47449 0.14549 0.24198 0.0
C1907 C 0.47282 0.16657 0.22637 0.0
C1908 C 0.47263 0.14054 0.28531 0.0
C1909 C 0.4685 0.1568 0.31301 0.0
C1910 C 0.46346 0.17592 0.29647 0.0
C1911 C 0.46622 0.18094 0.25329 0.0
C1912 C 0.47822 0.12003 0.30162 0.0
C1913 C 0.45805 0.19304 0.32468 0.0
C1914 C 0.46618 0.1447 0.43097 0.0
C1915 C 0.49213 0.16176 0.44199 0.0
C1916 C 0.45781 0.14301 0.38914 0.0
C1917 C 0.47597 0.15839 0.35787 0.0
C1918 C 0.50205 0.17588 0.36919 0.0
C1919 C 0.50967 0.17748 0.41099 0.0
C1920 C 0.42978 0.12447 0.37836 0.0
C1921 C 0.52216 0.19273 0.33699 0.0
H1922 H 0.47964 0.13445 0.22093 0.0
H1923 H 0.46462 0.19706 0.24085 0.0
H1924 H 0.49833 0.12954 0.3141 0.0
H1925 H 0.4649 0.10899 0.32768 0.0
H1926 H 0.47643 0.10621 0.27661 0.0
H1927 H 0.44896 0.2026 0.30717 0.0
H1928 H 0.4451 0.18168 0.35097 0.0
H1929 H 0.47656 0.20841 0.33836 0.0
H1930 H 0.45255 0.13245 0.45481 0.0
H1931 H 0.52975 0.19078 0.41916 0.0
H1932 H 0.42828 0.1075 0.36137 0.0
H1933 H 0.42206 0.1339 0.35734 0.0
H1934 H 0.41737 0.11732 0.40681 0.0
H1935 H 0.52343 0.18043 0.31198 0.0
H1936 H 0.54177 0.20473 0.35092 0.0
H1937 H 0.51645 0.20593 0.32193 0.0
C1938 C 0.49662 0.6453 0.75748 0.0
C1939 C 0.51732 0.664 0.78106 0.0
C1940 C 0.49943 0.64274 0.71446 0.0
C1941 C 0.52325 0.66004 0.69459 0.0
C1942 C 0.54495 0.67726 0.71917 0.0
C1943 C 0.54174 0.67892 0.76249 0.0
C1944 C 0.47599 0.62356 0.68963 0.0
C1945 C 0.57063 0.69601 0.69929 0.0
C1946 C 0.52262 0.64828 0.57763 0.0
C1947 C 0.51101 0.6623 0.56322 0.0
C1948 C 0.52865 0.64866 0.62035 0.0
C1949 C 0.52327 0.66377 0.64856 0.0
C1950 C 0.51383 0.67985 0.63303 0.0
C1951 C 0.50739 0.67853 0.59059 0.0
C1952 C 0.5385 0.63115 0.63561 0.0
C1953 C 0.50843 0.6968 0.66178 0.0
H1954 H 0.47775 0.63391 0.77214 0.0
H1955 H 0.55761 0.69365 0.78093 0.0
H1956 H 0.46767 0.63405 0.67279 0.0
H1957 H 0.48151 0.61358 0.66584 0.0
H1958 H 0.46067 0.60869 0.71016 0.0
H1959 H 0.58672 0.70347 0.72248 0.0
H1960 H 0.57521 0.68679 0.67294 0.0
H1961 H 0.56956 0.7128 0.68646 0.0
H1962 H 0.52504 0.63545 0.55626 0.0
H1963 H 0.49838 0.68932 0.57909 0.0
H1964 H 0.52203 0.61313 0.64864 0.0
H1965 H 0.55304 0.64055 0.66096 0.0
H1966 H 0.54731 0.62563 0.60974 0.0
H1967 H 0.49121 0.6844 0.68149 0.0
H1968 H 0.50453 0.71057 0.64407 0.0
H1969 H 0.5251 0.70808 0.68312 0.0
C1970 C 0.34848 0.8388 0.72929 0.0
C1971 C 0.33209 0.84262 0.75598 0.0
C1972 C 0.34851 0.84302 0.68611 0.0
C1973 C 0.33089 0.85016 0.6693 0.0
C1974 C 0.31536 0.85551 0.6966 0.0
C1975 C 0.31637 0.85192 0.73995 0.0
C1976 C 0.36597 0.83786 0.65822 0.0
C1977 C 0.29605 0.8627 0.67996 0.0
C1978 C 0.34196 0.86566 0.55359 0.0
C1979 C 0.32791 0.84063 0.53671 0.0
C1980 C 0.34162 0.86969 0.59691 0.0
C1981 C 0.3264 0.84819 0.62331 0.0
C1982 C 0.31 0.8234 0.60547 0.0
C1983 C 0.3114 0.81981 0.56235 0.0
C1984 C 0.35965 0.8963 0.61464 0.0
C1985 C 0.29285 0.80012 0.63236 0.0
H1986 H 0.36045 0.83144 0.74203 0.0
H1987 H 0.30334 0.85434 0.76086 0.0
H1988 H 0.35414 0.81944 0.64082 0.0
H1989 H 0.37582 0.85361 0.63478 0.0
H1990 H 0.38097 0.83617 0.67646 0.0
H1991 H 0.28924 0.87095 0.70488 0.0
H1992 H 0.30452 0.87692 0.65396 0.0
H1993 H 0.27895 0.84506 0.66728 0.0
H1994 H 0.35512 0.88163 0.53359 0.0
H1995 H 0.30073 0.80046 0.54904 0.0
H1996 H 0.37724 0.89672 0.62729 0.0
H1997 H 0.35035 0.90092 0.64082 0.0
H1998 H 0.36587 0.91165 0.5903 0.0
H1999 H 0.30501 0.79374 0.64925 0.0
H2000 H 0.27829 0.78355 0.61335 0.0
H2001 H 0.28252 0.80516 0.65621 0.0
C2002 C 0.12613 0.48988 0.59231 0.0
C2003 C 0.151 0.50244 0.57463 0.0
C2004 C 0.12286 0.48523 0.63571 0.0
C2005 C 0.14497 0.49272 0.66126 0.0
C2006 C 0.16996 0.504 0.64276 0.0
C2007 C 0.17269 0.50919 0.59971 0.0
C2008 C 0.09604 0.47379 0.6544 0.0
C2009 C 0.194 0.51159 0.66865 0.0
C2010 C 0.15441 0.51458 0.77366 0.0
C2011 C 0.15404 0.49348 0.79351 0.0
C2012 C 0.14828 0.51337 0.731 0.0
C2013 C 0.14281 0.49092 0.70765 0.0
C2014 C 0.1404 0.4688 0.72854 0.0
C2015 C 0.14584 0.47029 0.77158 0.0
C2016 C 0.15029 0.5371 0.71015 0.0
C2017 C 0.13506 0.44466 0.70479 0.0
H2018 H 0.10945 0.48504 0.5726 0.0
H2019 H 0.19187 0.51886 0.58563 0.0
H2020 H 0.0924 0.45821 0.67712 0.0
H2021 H 0.09453 0.48913 0.67184 0.0
H2022 H 0.08066 0.46576 0.62998 0.0
H2023 H 0.21145 0.51753 0.64882 0.0
H2024 H 0.19781 0.52805 0.68953 0.0
H2025 H 0.19112 0.49517 0.68886 0.0
H2026 H 0.16105 0.53256 0.79086 0.0
H2027 H 0.14611 0.4542 0.78712 0.0
H2028 H 0.13427 0.53149 0.68731 0.0
H2029 H 0.16887 0.54747 0.69265 0.0
H2030 H 0.14976 0.55075 0.73339 0.0
H2031 H 0.12896 0.42779 0.72607 0.0
H2032 H 0.15301 0.44831 0.68829 0.0
H2033 H 0.1198 0.4396 0.68073 0.0
loop_
_geom_bond_atom_site_label_1
_geom_bond_atom_site_label_2
_geom_bond_distance
_geom_bond_site_symmetry_2
_ccdc_geom_bond_type
Co0 N4 2.148 . S
Co0 N10 2.128 1_545 S
Co0 N20 2.194 1_545 S
Co0 O25 2.351 1_545 S
Co0 O26 2.155 1_545 S
Co0 O27 2.096 . S
C1 N4 1.301 . S
C1 N5 1.328 . S
C1 H6 0.930 . S
C2 C3 1.333 . S
C2 N4 1.317 . S
C2 H7 0.930 . S
C3 C2 1.333 . S
C3 N5 1.350 . S
C3 H29 0.931 . S
N4 Co0 2.148 . S
N4 C1 1.301 . S
N4 C2 1.317 . S
N5 C1 1.328 . S
N5 C3 1.350 . S
H6 C1 0.930 . S
H7 C2 0.930 . S
C8 O9 1.224 . S
C8 O27 1.247 . S
O9 C8 1.224 . S
N10 Co0 2.128 1_565 S
N10 C11 1.355 . S
N10 C13 1.311 . S
C11 N10 1.355 . S
C11 C12 1.363 . S
C11 H23 0.929 . S
C12 C11 1.363 . S
C12 N14 1.375 . S
C12 H30 0.931 . S
C13 N10 1.311 . S
C13 N14 1.347 . S
C13 H24 0.929 . S
N14 C12 1.375 . S
N14 C13 1.347 . S
C15 C18 1.365 . S
C15 N20 1.328 . S
C15 H21 0.929 . S
C16 C17 1.362 . S
C16 C19 1.378 1_565 S
C16 H31 0.932 1_565 S
C17 C16 1.362 . S
C17 C18 1.366 . S
C18 C15 1.365 . S
C18 C17 1.366 . S
C18 H32 0.930 . S
C19 C16 1.378 1_545 S
C19 N20 1.315 1_545 S
C19 H22 0.930 . S
N20 Co0 2.194 1_565 S
N20 C15 1.328 . S
N20 C19 1.315 1_565 S
H21 C15 0.929 . S
H22 C19 0.930 . S
H23 C11 0.929 . S
H24 C13 0.929 . S
O25 Co0 2.351 1_565 S
O25 C28 1.244 . S
O26 Co0 2.155 1_565 S
O26 C28 1.240 . S
O27 Co0 2.096 . S
O27 C8 1.247 . S
C28 O25 1.244 . S
C28 O26 1.240 . S
H29 C3 0.931 . S
H30 C12 0.931 . S
H31 C16 0.932 1_545 S
H32 C18 0.930 . S
Co33 N37 2.148 . S
Co33 N43 2.128 1_655 S
Co33 N53 2.194 1_655 S
Co33 O58 2.351 1_655 S
Co33 O59 2.155 1_655 S
Co33 O60 2.096 . S
C34 N37 1.301 . S
C34 N38 1.328 . S
C34 H39 0.930 . S
C35 C36 1.333 . S
C35 N37 1.317 . S
C35 H40 0.930 . S
C36 C35 1.333 . S
C36 N38 1.350 . S
C36 H62 0.931 . S
N37 Co33 2.148 . S
N37 C34 1.301 . S
N37 C35 1.317 . S
N38 C34 1.328 . S
N38 C36 1.350 . S
H39 C34 0.930 . S
H40 C35 0.930 . S
C41 O42 1.224 . S
C41 O60 1.247 . S
O42 C41 1.224 . S
N43 Co33 2.128 1_455 S
N43 C44 1.355 . S
N43 C46 1.311 . S
C44 N43 1.355 . S
C44 C45 1.363 . S
C44 H56 0.929 . S
C45 C44 1.363 . S
C45 N47 1.375 . S
C45 H63 0.931 . S
C46 N43 1.311 . S
C46 N47 1.347 . S
C46 H57 0.929 . S
N47 C45 1.375 . S
N47 C46 1.347 . S
C48 C51 1.365 . S
C48 N53 1.328 . S
C48 H54 0.929 . S
C49 C50 1.362 . S
C49 C52 1.374 1_455 S
C49 H64 0.930 . S
C50 C49 1.362 . S
C50 C51 1.366 . S
C51 C48 1.365 . S
C51 C50 1.366 . S
C51 H65 0.930 . S
C52 C49 1.374 1_655 S
C52 N53 1.314 1_655 S
C52 H55 0.937 . S
N53 Co33 2.194 1_455 S
N53 C48 1.328 . S
N53 C52 1.314 1_455 S
H54 C48 0.929 . S
H55 C52 0.937 . S
H56 C44 0.929 . S
H57 C46 0.929 . S
O58 Co33 2.351 1_455 S
O58 C61 1.244 . S
O59 Co33 2.155 1_455 S
O59 C61 1.240 . S
O60 Co33 2.096 . S
O60 C41 1.247 . S
C61 O58 1.244 . S
C61 O59 1.240 . S
H62 C36 0.931 . S
H63 C45 0.931 . S
H64 C49 0.930 . S
H65 C51 0.930 . S
Co66 N70 2.148 . S
Co66 N76 2.128 . S
Co66 N86 2.194 . S
Co66 O91 2.351 . S
Co66 O92 2.155 . S
Co66 O93 2.096 . S
C67 N70 1.301 . S
C67 N71 1.328 . S
C67 H72 0.930 . S
C68 C69 1.333 . S
C68 N70 1.317 . S
C68 H73 0.930 . S
C69 C68 1.333 . S
C69 N71 1.350 . S
C69 H95 0.931 . S
N70 Co66 2.148 . S
N70 C67 1.301 . S
N70 C68 1.317 . S
N71 C67 1.328 . S
N71 C69 1.350 . S
H72 C67 0.930 . S
H73 C68 0.930 . S
C74 O75 1.224 . S
C74 O93 1.247 . S
O75 C74 1.224 . S
N76 Co66 2.128 . S
N76 C77 1.355 . S
N76 C79 1.311 . S
C77 N76 1.355 . S
C77 C78 1.363 . S
C77 H89 0.929 . S
C78 C77 1.363 . S
C78 N80 1.375 . S
C78 H96 0.931 . S
C79 N76 1.311 . S
C79 N80 1.347 . S
C79 H90 0.929 . S
N80 C78 1.375 . S
N80 C79 1.347 . S
C81 C84 1.365 . S
C81 N86 1.328 . S
C81 H87 0.929 . S
C82 C83 1.362 . S
C82 C85 1.378 . S
C82 H97 0.929 . S
C83 C82 1.362 . S
C83 C84 1.366 . S
C84 C81 1.365 . S
C84 C83 1.366 . S
C84 H98 0.930 . S
C85 C82 1.378 . S
C85 N86 1.315 . S
C85 H88 0.930 . S
N86 Co66 2.194 . S
N86 C81 1.328 . S
N86 C85 1.315 . S
H87 C81 0.929 . S
H88 C85 0.930 . S
H89 C77 0.929 . S
H90 C79 0.929 . S
O91 Co66 2.351 . S
O91 C94 1.244 . S
O92 Co66 2.155 . S
O92 C94 1.240 . S
O93 Co66 2.096 . S
O93 C74 1.247 . S
C94 O91 1.244 . S
C94 O92 1.240 . S
H95 C69 0.931 . S
H96 C78 0.931 . S
H97 C82 0.929 . S
H98 C84 0.930 . S
Co99 N103 2.148 . S
Co99 N109 2.128 1_455 S
Co99 N119 2.194 1_455 S
Co99 O124 2.351 1_455 S
Co99 O125 2.155 1_455 S
Co99 O126 2.096 . S
C100 N103 1.301 . S
C100 N104 1.328 . S
C100 H105 0.930 . S
C101 C102 1.333 . S
C101 N103 1.317 . S
C101 H106 0.930 . S
C102 C101 1.333 . S
C102 N104 1.350 . S
C102 H128 0.931 . S
N103 Co99 2.148 . S
N103 C100 1.301 . S
N103 C101 1.317 . S
N104 C100 1.328 . S
N104 C102 1.350 . S
H105 C100 0.930 . S
H106 C101 0.930 . S
C107 O108 1.224 . S
C107 O126 1.247 . S
O108 C107 1.224 . S
N109 Co99 2.128 1_655 S
N109 C110 1.355 . S
N109 C112 1.311 . S
C110 N109 1.355 . S
C110 C111 1.363 . S
C110 H122 0.929 . S
C111 C110 1.363 . S
C111 N113 1.375 . S
C111 H129 0.931 . S
C112 N109 1.311 . S
C112 N113 1.347 . S
C112 H123 0.929 . S
N113 C111 1.375 . S
N113 C112 1.347 . S
C114 C117 1.365 . S
C114 N119 1.328 . S
C114 H120 0.929 . S
C115 C116 1.362 . S
C115 C118 1.378 1_655 S
C115 H130 0.932 1_655 S
C116 C115 1.362 . S
C116 C117 1.366 . S
C117 C114 1.365 . S
C117 C116 1.366 . S
C117 H131 0.930 . S
C118 C115 1.378 1_455 S
C118 N119 1.315 1_455 S
C118 H121 0.930 . S
N119 Co99 2.194 1_655 S
N119 C114 1.328 . S
N119 C118 1.315 1_655 S
H120 C114 0.929 . S
H121 C118 0.930 . S
H122 C110 0.929 . S
H123 C112 0.929 . S
O124 Co99 2.351 1_655 S
O124 C127 1.244 . S
O125 Co99 2.155 1_655 S
O125 C127 1.240 . S
O126 Co99 2.096 . S
O126 C107 1.247 . S
C127 O124 1.244 . S
C127 O125 1.240 . S
H128 C102 0.931 . S
H129 C111 0.931 . S
H130 C115 0.932 1_455 S
H131 C117 0.930 . S
Co132 N136 2.148 . S
Co132 N142 2.128 . S
Co132 N152 2.194 . S
Co132 O157 2.351 . S
Co132 O158 2.155 . S
Co132 O159 2.096 . S
C133 N136 1.301 . S
C133 N137 1.328 . S
C133 H138 0.930 . S
C134 C135 1.333 . S
C134 N136 1.317 . S
C134 H139 0.930 . S
C135 C134 1.333 . S
C135 N137 1.350 . S
C135 H161 0.931 . S
N136 Co132 2.148 . S
N136 C133 1.301 . S
N136 C134 1.317 . S
N137 C133 1.328 . S
N137 C135 1.350 . S
H138 C133 0.930 . S
H139 C134 0.930 . S
C140 O141 1.224 . S
C140 O159 1.247 . S
O141 C140 1.224 . S
N142 Co132 2.128 . S
N142 C143 1.355 . S
N142 C145 1.311 . S
C143 N142 1.355 . S
C143 C144 1.363 . S
C143 H155 0.929 . S
C144 C143 1.363 . S
C144 N146 1.375 . S
C144 H162 0.931 . S
C145 N142 1.311 . S
C145 N146 1.347 . S
C145 H156 0.929 . S
N146 C144 1.375 . S
N146 C145 1.347 . S
C147 C150 1.365 . S
C147 N152 1.328 . S
C147 H153 0.929 . S
C148 C149 1.362 . S
C148 C151 1.378 . S
C148 H163 0.929 . S
C149 C148 1.362 . S
C149 C150 1.366 . S
C150 C147 1.365 . S
C150 C149 1.366 . S
C150 H164 0.930 . S
C151 C148 1.378 . S
C151 N152 1.315 . S
C151 H154 0.930 . S
N152 Co132 2.194 . S
N152 C147 1.328 . S
N152 C151 1.315 . S
H153 C147 0.929 . S
H154 C151 0.930 . S
H155 C143 0.929 . S
H156 C145 0.929 . S
O157 Co132 2.351 . S
O157 C160 1.244 . S
O158 Co132 2.155 . S
O158 C160 1.240 . S
O159 Co132 2.096 . S
O159 C140 1.247 . S
C160 O157 1.244 . S
C160 O158 1.240 . S
H161 C135 0.931 . S
H162 C144 0.931 . S
H163 C148 0.929 . S
H164 C150 0.930 . S
Co165 N169 2.148 . S
Co165 N175 2.128 1_565 S
Co165 N185 2.194 1_565 S
Co165 O190 2.351 1_565 S
Co165 O191 2.155 1_565 S
Co165 O192 2.096 . S
C166 N169 1.301 . S
C166 N170 1.328 . S
C166 H171 0.930 . S
C167 C168 1.333 . S
C167 N169 1.317 . S
C167 H172 0.930 . S
C168 C167 1.333 . S
C168 N170 1.350 . S
C168 H194 0.931 . S
N169 Co165 2.148 . S
N169 C166 1.301 . S
N169 C167 1.317 . S
N170 C166 1.328 . S
N170 C168 1.350 . S
H171 C166 0.930 . S
H172 C167 0.930 . S
C173 O174 1.224 . S
C173 O192 1.247 . S
O174 C173 1.224 . S
N175 Co165 2.128 1_545 S
N175 C176 1.355 . S
N175 C178 1.311 . S
C176 N175 1.355 . S
C176 C177 1.363 . S
C176 H188 0.929 . S
C177 C176 1.363 . S
C177 N179 1.375 . S
C177 H195 0.931 . S
C178 N175 1.311 . S
C178 N179 1.347 . S
C178 H189 0.929 . S
N179 C177 1.375 . S
N179 C178 1.347 . S
C180 C183 1.365 . S
C180 N185 1.328 . S
C180 H186 0.929 . S
C181 C182 1.362 . S
C181 C184 1.374 1_545 S
C181 H196 0.930 . S
C182 C181 1.362 . S
C182 C183 1.366 . S
C183 C180 1.365 . S
C183 C182 1.366 . S
C183 H197 0.930 . S
C184 C181 1.374 1_565 S
C184 N185 1.314 1_565 S
C184 H187 0.937 . S
N185 Co165 2.194 1_545 S
N185 C180 1.328 . S
N185 C184 1.314 1_545 S
H186 C180 0.929 . S
H187 C184 0.937 . S
H188 C176 0.929 . S
H189 C178 0.929 . S
O190 Co165 2.351 1_545 S
O190 C193 1.244 . S
O191 Co165 2.155 1_545 S
O191 C193 1.240 . S
O192 Co165 2.096 . S
O192 C173 1.247 . S
C193 O190 1.244 . S
C193 O191 1.240 . S
H194 C168 0.931 . S
H195 C177 0.931 . S
H196 C181 0.930 . S
H197 C183 0.930 . S
Co198 N202 2.148 . S
Co198 N208 2.128 . S
Co198 N218 2.194 . S
Co198 O223 2.351 . S
Co198 O224 2.155 . S
Co198 O225 2.096 . S
C199 N202 1.301 . S
C199 N203 1.328 . S
C199 H204 0.930 . S
C200 C201 1.333 . S
C200 N202 1.317 . S
C200 H205 0.930 . S
C201 C200 1.333 . S
C201 N203 1.350 . S
C201 H227 0.931 . S
N202 Co198 2.148 . S
N202 C199 1.301 . S
N202 C200 1.317 . S
N203 C199 1.328 . S
N203 C201 1.350 . S
H204 C199 0.930 . S
H205 C200 0.930 . S
C206 O207 1.224 . S
C206 O225 1.247 . S
O207 C206 1.224 . S
N208 Co198 2.128 . S
N208 C209 1.355 . S
N208 C211 1.311 . S
C209 N208 1.355 . S
C209 C210 1.363 . S
C209 H221 0.929 . S
C210 C209 1.363 . S
C210 N212 1.375 . S
C210 H228 0.931 . S
C211 N208 1.311 . S
C211 N212 1.347 . S
C211 H222 0.929 . S
N212 C210 1.375 . S
N212 C211 1.347 . S
C213 C216 1.365 . S
C213 N218 1.328 . S
C213 H219 0.929 . S
C214 C215 1.362 . S
C214 C217 1.378 . S
C214 H229 0.929 . S
C215 C214 1.362 . S
C215 C216 1.366 . S
C216 C213 1.365 . S
C216 C215 1.366 . S
C216 H230 0.930 . S
C217 C214 1.378 . S
C217 N218 1.315 . S
C217 H220 0.930 . S
N218 Co198 2.194 . S
N218 C213 1.328 . S
N218 C217 1.315 . S
H219 C213 0.929 . S
H220 C217 0.930 . S
H221 C209 0.929 . S
H222 C211 0.929 . S
O223 Co198 2.351 . S
O223 C226 1.244 . S
O224 Co198 2.155 . S
O224 C226 1.240 . S
O225 Co198 2.096 . S
O225 C206 1.247 . S
C226 O223 1.244 . S
C226 O224 1.240 . S
H227 C201 0.931 . S
H228 C210 0.931 . S
H229 C214 0.929 . S
H230 C216 0.930 . S
Co231 N235 2.148 . S
Co231 N241 2.128 . S
Co231 N251 2.194 . S
Co231 O256 2.351 . S
Co231 O257 2.155 . S
Co231 O258 2.096 . S
C232 N235 1.301 . S
C232 N236 1.328 . S
C232 H237 0.930 . S
C233 C234 1.333 . S
C233 N235 1.317 . S
C233 H238 0.930 . S
C234 C233 1.333 . S
C234 N236 1.350 . S
C234 H260 0.931 . S
N235 Co231 2.148 . S
N235 C232 1.301 . S
N235 C233 1.317 . S
N236 C232 1.328 . S
N236 C234 1.350 . S
H237 C232 0.930 . S
H238 C233 0.930 . S
C239 O240 1.224 . S
C239 O258 1.247 . S
O240 C239 1.224 . S
N241 Co231 2.128 . S
N241 C242 1.355 . S
N241 C244 1.311 . S
C242 N241 1.355 . S
C242 C243 1.363 . S
C242 H254 0.929 . S
C243 C242 1.363 . S
C243 N245 1.375 . S
C243 H261 0.931 . S
C244 N241 1.311 . S
C244 N245 1.347 . S
C244 H255 0.929 . S
N245 C243 1.375 . S
N245 C244 1.347 . S
C246 C249 1.365 . S
C246 N251 1.328 . S
C246 H252 0.929 . S
C247 C248 1.362 . S
C247 C250 1.378 . S
C247 H262 0.929 . S
C248 C247 1.362 . S
C248 C249 1.366 . S
C249 C246 1.365 . S
C249 C248 1.366 . S
C249 H263 0.930 . S
C250 C247 1.378 . S
C250 N251 1.315 . S
C250 H253 0.930 . S
N251 Co231 2.194 . S
N251 C246 1.328 . S
N251 C250 1.315 . S
H252 C246 0.929 . S
H253 C250 0.930 . S
H254 C242 0.929 . S
H255 C244 0.929 . S
O256 Co231 2.351 . S
O256 C259 1.244 . S
O257 Co231 2.155 . S
O257 C259 1.240 . S
O258 Co231 2.096 . S
O258 C239 1.247 . S
C259 O256 1.244 . S
C259 O257 1.240 . S
H260 C234 0.931 . S
H261 C243 0.931 . S
H262 C247 0.929 . S
H263 C249 0.930 . S
Co264 N268 2.148 . S
Co264 N274 2.128 . S
Co264 N284 2.194 . S
Co264 O289 2.351 . S
Co264 O290 2.155 . S
Co264 O291 2.096 . S
C265 N268 1.301 . S
C265 N269 1.328 . S
C265 H270 0.930 . S
C266 C267 1.333 . S
C266 N268 1.317 . S
C266 H271 0.930 . S
C267 C266 1.333 . S
C267 N269 1.350 . S
C267 H293 0.931 . S
N268 Co264 2.148 . S
N268 C265 1.301 . S
N268 C266 1.317 . S
N269 C265 1.328 . S
N269 C267 1.350 . S
H270 C265 0.930 . S
H271 C266 0.930 . S
C272 O273 1.224 . S
C272 O291 1.247 . S
O273 C272 1.224 . S
N274 Co264 2.128 . S
N274 C275 1.355 . S
N274 C277 1.311 . S
C275 N274 1.355 . S
C275 C276 1.363 . S
C275 H287 0.929 . S
C276 C275 1.363 . S
C276 N278 1.375 . S
C276 H294 0.931 . S
C277 N274 1.311 . S
C277 N278 1.347 . S
C277 H288 0.929 . S
N278 C276 1.375 . S
N278 C277 1.347 . S
C279 C282 1.365 . S
C279 N284 1.328 . S
C279 H285 0.929 . S
C280 C281 1.362 . S
C280 C283 1.378 . S
C280 H295 0.929 . S
C281 C280 1.362 . S
C281 C282 1.366 . S
C282 C279 1.365 . S
C282 C281 1.366 . S
C282 H296 0.930 . S
C283 C280 1.378 . S
C283 N284 1.315 . S
C283 H286 0.930 . S
N284 Co264 2.194 . S
N284 C279 1.328 . S
N284 C283 1.315 . S
H285 C279 0.929 . S
H286 C283 0.930 . S
H287 C275 0.929 . S
H288 C277 0.929 . S
O289 Co264 2.351 . S
O289 C292 1.244 . S
O290 Co264 2.155 . S
O290 C292 1.240 . S
O291 Co264 2.096 . S
O291 C272 1.247 . S
C292 O289 1.244 . S
C292 O290 1.240 . S
H293 C267 0.931 . S
H294 C276 0.931 . S
H295 C280 0.929 . S
H296 C282 0.930 . S
Co297 N301 2.148 . S
Co297 N307 2.128 . S
Co297 N317 2.194 . S
Co297 O322 2.351 . S
Co297 O323 2.155 . S
Co297 O324 2.096 . S
C298 N301 1.301 . S
C298 N302 1.328 . S
C298 H303 0.930 . S
C299 C300 1.333 . S
C299 N301 1.317 . S
C299 H304 0.930 . S
C300 C299 1.333 . S
C300 N302 1.350 . S
C300 H326 0.931 . S
N301 Co297 2.148 . S
N301 C298 1.301 . S
N301 C299 1.317 . S
N302 C298 1.328 . S
N302 C300 1.350 . S
H303 C298 0.930 . S
H304 C299 0.930 . S
C305 O306 1.224 . S
C305 O324 1.247 . S
O306 C305 1.224 . S
N307 Co297 2.128 . S
N307 C308 1.355 . S
N307 C310 1.311 . S
C308 N307 1.355 . S
C308 C309 1.363 . S
C308 H320 0.929 . S
C309 C308 1.363 . S
C309 N311 1.375 . S
C309 H327 0.931 . S
C310 N307 1.311 . S
C310 N311 1.347 . S
C310 H321 0.929 . S
N311 C309 1.375 . S
N311 C310 1.347 . S
C312 C315 1.365 . S
C312 N317 1.328 . S
C312 H318 0.929 . S
C313 C314 1.362 . S
C313 C316 1.378 1_556 S
C313 H328 0.929 . S
C314 C313 1.362 . S
C314 C315 1.366 1_556 S
C315 C312 1.365 . S
C315 C314 1.366 1_554 S
C315 H329 0.930 . S
C316 C313 1.378 1_554 S
C316 N317 1.315 . S
C316 H319 0.930 . S
N317 Co297 2.194 . S
N317 C312 1.328 . S
N317 C316 1.315 . S
H318 C312 0.929 . S
H319 C316 0.930 . S
H320 C308 0.929 . S
H321 C310 0.929 . S
O322 Co297 2.351 . S
O322 C325 1.244 . S
O323 Co297 2.155 . S
O323 C325 1.240 . S
O324 Co297 2.096 . S
O324 C305 1.247 . S
C325 O322 1.244 . S
C325 O323 1.240 . S
H326 C300 0.931 . S
H327 C309 0.931 . S
H328 C313 0.929 . S
H329 C315 0.930 . S
Co330 N334 2.148 . S
Co330 N340 2.128 . S
Co330 N350 2.194 . S
Co330 O355 2.351 . S
Co330 O356 2.155 . S
Co330 O357 2.096 . S
C331 N334 1.301 . S
C331 N335 1.328 . S
C331 H336 0.930 . S
C332 C333 1.333 . S
C332 N334 1.317 . S
C332 H337 0.930 . S
C333 C332 1.333 . S
C333 N335 1.350 . S
C333 H359 0.931 . S
N334 Co330 2.148 . S
N334 C331 1.301 . S
N334 C332 1.317 . S
N335 C331 1.328 . S
N335 C333 1.350 . S
H336 C331 0.930 . S
H337 C332 0.930 . S
C338 O339 1.224 . S
C338 O357 1.247 . S
O339 C338 1.224 . S
N340 Co330 2.128 . S
N340 C341 1.355 . S
N340 C343 1.311 . S
C341 N340 1.355 . S
C341 C342 1.363 . S
C341 H353 0.929 . S
C342 C341 1.363 . S
C342 N344 1.375 . S
C342 H360 0.931 . S
C343 N340 1.311 . S
C343 N344 1.347 . S
C343 H354 0.929 . S
N344 C342 1.375 . S
N344 C343 1.347 . S
C345 C348 1.365 . S
C345 N350 1.328 . S
C345 H351 0.929 . S
C346 C347 1.362 . S
C346 C349 1.378 1_556 S
C346 H361 0.929 . S
C347 C346 1.362 . S
C347 C348 1.366 1_556 S
C348 C345 1.365 . S
C348 C347 1.366 1_554 S
C348 H362 0.930 . S
C349 C346 1.378 1_554 S
C349 N350 1.315 . S
C349 H352 0.930 . S
N350 Co330 2.194 . S
N350 C345 1.328 . S
N350 C349 1.315 . S
H351 C345 0.929 . S
H352 C349 0.930 . S
H353 C341 0.929 . S
H354 C343 0.929 . S
O355 Co330 2.351 . S
O355 C358 1.244 . S
O356 Co330 2.155 . S
O356 C358 1.240 . S
O357 Co330 2.096 . S
O357 C338 1.247 . S
C358 O355 1.244 . S
C358 O356 1.240 . S
H359 C333 0.931 . S
H360 C342 0.931 . S
H361 C346 0.929 . S
H362 C348 0.930 . S
Co363 N367 2.148 . S
Co363 N373 2.128 . S
Co363 N383 2.194 . S
Co363 O388 2.351 . S
Co363 O389 2.155 . S
Co363 O390 2.096 . S
C364 N367 1.301 . S
C364 N368 1.328 . S
C364 H369 0.930 . S
C365 C366 1.333 . S
C365 N367 1.317 . S
C365 H370 0.930 . S
C366 C365 1.333 . S
C366 N368 1.350 . S
C366 H392 0.931 . S
N367 Co363 2.148 . S
N367 C364 1.301 . S
N367 C365 1.317 . S
N368 C364 1.328 . S
N368 C366 1.350 . S
H369 C364 0.930 . S
H370 C365 0.930 . S
C371 O372 1.224 . S
C371 O390 1.247 . S
O372 C371 1.224 . S
N373 Co363 2.128 . S
N373 C374 1.355 . S
N373 C376 1.311 . S
C374 N373 1.355 . S
C374 C375 1.363 . S
C374 H386 0.929 . S
C375 C374 1.363 . S
C375 N377 1.375 . S
C375 H393 0.931 . S
C376 N373 1.311 . S
C376 N377 1.347 . S
C376 H387 0.929 . S
N377 C375 1.375 . S
N377 C376 1.347 . S
C378 C381 1.365 . S
C378 N383 1.328 . S
C378 H384 0.929 . S
C379 C380 1.362 . S
C379 C382 1.378 1_556 S
C379 H394 0.929 . S
C380 C379 1.362 . S
C380 C381 1.366 1_556 S
C381 C378 1.365 . S
C381 C380 1.366 1_554 S
C381 H395 0.930 . S
C382 C379 1.378 1_554 S
C382 N383 1.315 . S
C382 H385 0.930 . S
N383 Co363 2.194 . S
N383 C378 1.328 . S
N383 C382 1.315 . S
H384 C378 0.929 . S
H385 C382 0.930 . S
H386 C374 0.929 . S
H387 C376 0.929 . S
O388 Co363 2.351 . S
O388 C391 1.244 . S
O389 Co363 2.155 . S
O389 C391 1.240 . S
O390 Co363 2.096 . S
O390 C371 1.247 . S
C391 O388 1.244 . S
C391 O389 1.240 . S
H392 C366 0.931 . S
H393 C375 0.931 . S
H394 C379 0.929 . S
H395 C381 0.930 . S
Co396 N400 2.148 . S
Co396 N406 2.128 . S
Co396 N416 2.194 . S
Co396 O421 2.351 . S
Co396 O422 2.155 . S
Co396 O423 2.096 . S
C397 N400 1.301 . S
C397 N401 1.328 . S
C397 H402 0.930 . S
C398 C399 1.333 . S
C398 N400 1.317 . S
C398 H403 0.930 . S
C399 C398 1.333 . S
C399 N401 1.350 . S
C399 H425 0.931 . S
N400 Co396 2.148 . S
N400 C397 1.301 . S
N400 C398 1.317 . S
N401 C397 1.328 . S
N401 C399 1.350 . S
H402 C397 0.930 . S
H403 C398 0.930 . S
C404 O405 1.224 . S
C404 O423 1.247 . S
O405 C404 1.224 . S
N406 Co396 2.128 . S
N406 C407 1.355 . S
N406 C409 1.311 . S
C407 N406 1.355 . S
C407 C408 1.363 . S
C407 H419 0.929 . S
C408 C407 1.363 . S
C408 N410 1.375 . S
C408 H426 0.931 . S
C409 N406 1.311 . S
C409 N410 1.347 . S
C409 H420 0.929 . S
N410 C408 1.375 . S
N410 C409 1.347 . S
C411 C414 1.365 . S
C411 N416 1.328 . S
C411 H417 0.929 . S
C412 C413 1.362 . S
C412 C415 1.378 1_554 S
C412 H427 0.929 . S
C413 C412 1.362 . S
C413 C414 1.366 1_554 S
C414 C411 1.365 . S
C414 C413 1.366 1_556 S
C414 H428 0.930 . S
C415 C412 1.378 1_556 S
C415 N416 1.315 . S
C415 H418 0.930 . S
N416 Co396 2.194 . S
N416 C411 1.328 . S
N416 C415 1.315 . S
H417 C411 0.929 . S
H418 C415 0.930 . S
H419 C407 0.929 . S
H420 C409 0.929 . S
O421 Co396 2.351 . S
O421 C424 1.244 . S
O422 Co396 2.155 . S
O422 C424 1.240 . S
O423 Co396 2.096 . S
O423 C404 1.247 . S
C424 O421 1.244 . S
C424 O422 1.240 . S
H425 C399 0.931 . S
H426 C408 0.931 . S
H427 C412 0.929 . S
H428 C414 0.930 . S
Co429 N433 2.148 . S
Co429 N439 2.128 . S
Co429 N449 2.194 . S
Co429 O454 2.351 . S
Co429 O455 2.155 . S
Co429 O456 2.096 . S
C430 N433 1.301 . S
C430 N434 1.328 . S
C430 H435 0.930 . S
C431 C432 1.333 . S
C431 N433 1.317 . S
C431 H436 0.930 . S
C432 C431 1.333 . S
C432 N434 1.350 . S
C432 H458 0.931 . S
N433 Co429 2.148 . S
N433 C430 1.301 . S
N433 C431 1.317 . S
N434 C430 1.328 . S
N434 C432 1.350 . S
H435 C430 0.930 . S
H436 C431 0.930 . S
C437 O438 1.224 . S
C437 O456 1.247 . S
O438 C437 1.224 . S
N439 Co429 2.128 . S
N439 C440 1.355 . S
N439 C442 1.311 . S
C440 N439 1.355 . S
C440 C441 1.363 . S
C440 H452 0.929 . S
C441 C440 1.363 . S
C441 N443 1.375 . S
C441 H459 0.931 . S
C442 N439 1.311 . S
C442 N443 1.347 . S
C442 H453 0.929 . S
N443 C441 1.375 . S
N443 C442 1.347 . S
C444 C447 1.365 . S
C444 N449 1.328 . S
C444 H450 0.929 . S
C445 C446 1.362 . S
C445 C448 1.378 1_554 S
C445 H460 0.929 . S
C446 C445 1.362 . S
C446 C447 1.366 1_554 S
C447 C444 1.365 . S
C447 C446 1.366 1_556 S
C447 H461 0.930 . S
C448 C445 1.378 1_556 S
C448 N449 1.315 . S
C448 H451 0.930 . S
N449 Co429 2.194 . S
N449 C444 1.328 . S
N449 C448 1.315 . S
H450 C444 0.929 . S
H451 C448 0.930 . S
H452 C440 0.929 . S
H453 C442 0.929 . S
O454 Co429 2.351 . S
O454 C457 1.244 . S
O455 Co429 2.155 . S
O455 C457 1.240 . S
O456 Co429 2.096 . S
O456 C437 1.247 . S
C457 O454 1.244 . S
C457 O455 1.240 . S
H458 C432 0.931 . S
H459 C441 0.931 . S
H460 C445 0.929 . S
H461 C447 0.930 . S
Co462 N466 2.148 . S
Co462 N472 2.128 . S
Co462 N482 2.194 . S
Co462 O487 2.351 . S
Co462 O488 2.155 . S
Co462 O489 2.096 . S
C463 N466 1.301 . S
C463 N467 1.328 . S
C463 H468 0.930 . S
C464 C465 1.333 . S
C464 N466 1.317 . S
C464 H469 0.930 . S
C465 C464 1.333 . S
C465 N467 1.350 . S
C465 H491 0.931 . S
N466 Co462 2.148 . S
N466 C463 1.301 . S
N466 C464 1.317 . S
N467 C463 1.328 . S
N467 C465 1.350 . S
H468 C463 0.930 . S
H469 C464 0.930 . S
C470 O471 1.224 . S
C470 O489 1.247 . S
O471 C470 1.224 . S
N472 Co462 2.128 . S
N472 C473 1.355 . S
N472 C475 1.311 . S
C473 N472 1.355 . S
C473 C474 1.363 . S
C473 H485 0.929 . S
C474 C473 1.363 . S
C474 N476 1.375 . S
C474 H492 0.931 . S
C475 N472 1.311 . S
C475 N476 1.347 . S
C475 H486 0.929 . S
N476 C474 1.375 . S
N476 C475 1.347 . S
C477 C480 1.365 . S
C477 N482 1.328 . S
C477 H483 0.929 . S
C478 C479 1.362 . S
C478 C481 1.378 1_554 S
C478 H493 0.929 . S
C479 C478 1.362 . S
C479 C480 1.366 1_554 S
C480 C477 1.365 . S
C480 C479 1.366 1_556 S
C480 H494 0.930 . S
C481 C478 1.378 1_556 S
C481 N482 1.315 . S
C481 H484 0.930 . S
N482 Co462 2.194 . S
N482 C477 1.328 . S
N482 C481 1.315 . S
H483 C477 0.929 . S
H484 C481 0.930 . S
H485 C473 0.929 . S
H486 C475 0.929 . S
O487 Co462 2.351 . S
O487 C490 1.244 . S
O488 Co462 2.155 . S
O488 C490 1.240 . S
O489 Co462 2.096 . S
O489 C470 1.247 . S
C490 O487 1.244 . S
C490 O488 1.240 . S
H491 C465 0.931 . S
H492 C474 0.931 . S
H493 C478 0.929 . S
H494 C480 0.930 . S
Co495 N499 2.148 . S
Co495 N505 2.128 . S
Co495 N515 2.194 . S
Co495 O520 2.351 . S
Co495 O521 2.155 . S
Co495 O522 2.096 . S
C496 N499 1.301 . S
C496 N500 1.328 . S
C496 H501 0.930 . S
C497 C498 1.333 . S
C497 N499 1.317 . S
C497 H502 0.930 . S
C498 C497 1.333 . S
C498 N500 1.350 . S
C498 H524 0.931 . S
N499 Co495 2.148 . S
N499 C496 1.301 . S
N499 C497 1.317 . S
N500 C496 1.328 . S
N500 C498 1.350 . S
H501 C496 0.930 . S
H502 C497 0.930 . S
C503 O504 1.224 . S
C503 O522 1.247 . S
O504 C503 1.224 . S
N505 Co495 2.128 . S
N505 C506 1.355 . S
N505 C508 1.311 . S
C506 N505 1.355 . S
C506 C507 1.363 . S
C506 H518 0.929 . S
C507 C506 1.363 . S
C507 N509 1.375 . S
C507 H525 0.931 . S
C508 N505 1.311 . S
C508 N509 1.347 . S
C508 H519 0.929 . S
N509 C507 1.375 . S
N509 C508 1.347 . S
C510 C513 1.365 . S
C510 N515 1.328 . S
C510 H516 0.929 . S
C511 C512 1.362 . S
C511 C514 1.378 . S
C511 H526 0.929 . S
C512 C511 1.362 . S
C512 C513 1.366 . S
C513 C510 1.365 . S
C513 C512 1.366 . S
C513 H527 0.930 . S
C514 C511 1.378 . S
C514 N515 1.315 . S
C514 H517 0.930 . S
N515 Co495 2.194 . S
N515 C510 1.328 . S
N515 C514 1.315 . S
H516 C510 0.929 . S
H517 C514 0.930 . S
H518 C506 0.929 . S
H519 C508 0.929 . S
O520 Co495 2.351 . S
O520 C523 1.244 . S
O521 Co495 2.155 . S
O521 C523 1.240 . S
O522 Co495 2.096 . S
O522 C503 1.247 . S
C523 O520 1.244 . S
C523 O521 1.240 . S
H524 C498 0.931 . S
H525 C507 0.931 . S
H526 C511 0.929 . S
H527 C513 0.930 . S
Co528 N532 2.148 . S
Co528 N538 2.128 . S
Co528 N548 2.194 . S
Co528 O553 2.351 . S
Co528 O554 2.155 . S
Co528 O555 2.096 . S
C529 N532 1.301 . S
C529 N533 1.328 . S
C529 H534 0.930 . S
C530 C531 1.333 . S
C530 N532 1.317 . S
C530 H535 0.930 . S
C531 C530 1.333 . S
C531 N533 1.350 . S
C531 H557 0.931 . S
N532 Co528 2.148 . S
N532 C529 1.301 . S
N532 C530 1.317 . S
N533 C529 1.328 . S
N533 C531 1.350 . S
H534 C529 0.930 . S
H535 C530 0.930 . S
C536 O537 1.224 . S
C536 O555 1.247 . S
O537 C536 1.224 . S
N538 Co528 2.128 . S
N538 C539 1.355 . S
N538 C541 1.311 . S
C539 N538 1.355 . S
C539 C540 1.363 . S
C539 H551 0.929 . S
C540 C539 1.363 . S
C540 N542 1.375 . S
C540 H558 0.931 . S
C541 N538 1.311 . S
C541 N542 1.347 . S
C541 H552 0.929 . S
N542 C540 1.375 . S
N542 C541 1.347 . S
C543 C546 1.365 . S
C543 N548 1.328 . S
C543 H549 0.929 . S
C544 C545 1.362 . S
C544 C547 1.378 . S
C544 H559 0.929 . S
C545 C544 1.362 . S
C545 C546 1.366 . S
C546 C543 1.365 . S
C546 C545 1.366 . S
C546 H560 0.930 . S
C547 C544 1.378 . S
C547 N548 1.315 . S
C547 H550 0.930 . S
N548 Co528 2.194 . S
N548 C543 1.328 . S
N548 C547 1.315 . S
H549 C543 0.929 . S
H550 C547 0.930 . S
H551 C539 0.929 . S
H552 C541 0.929 . S
O553 Co528 2.351 . S
O553 C556 1.244 . S
O554 Co528 2.155 . S
O554 C556 1.240 . S
O555 Co528 2.096 . S
O555 C536 1.247 . S
C556 O553 1.244 . S
C556 O554 1.240 . S
H557 C531 0.931 . S
H558 C540 0.931 . S
H559 C544 0.929 . S
H560 C546 0.930 . S
Co561 N565 2.148 . S
Co561 N571 2.128 . S
Co561 N581 2.194 . S
Co561 O586 2.351 . S
Co561 O587 2.155 . S
Co561 O588 2.096 . S
C562 N565 1.301 . S
C562 N566 1.328 . S
C562 H567 0.930 . S
C563 C564 1.333 . S
C563 N565 1.317 . S
C563 H568 0.930 . S
C564 C563 1.333 . S
C564 N566 1.350 . S
C564 H590 0.931 . S
N565 Co561 2.148 . S
N565 C562 1.301 . S
N565 C563 1.317 . S
N566 C562 1.328 . S
N566 C564 1.350 . S
H567 C562 0.930 . S
H568 C563 0.930 . S
C569 O570 1.224 . S
C569 O588 1.247 . S
O570 C569 1.224 . S
N571 Co561 2.128 . S
N571 C572 1.355 . S
N571 C574 1.311 . S
C572 N571 1.355 . S
C572 C573 1.363 . S
C572 H584 0.929 . S
C573 C572 1.363 . S
C573 N575 1.375 . S
C573 H591 0.931 . S
C574 N571 1.311 . S
C574 N575 1.347 . S
C574 H585 0.929 . S
N575 C573 1.375 . S
N575 C574 1.347 . S
C576 C579 1.365 . S
C576 N581 1.328 . S
C576 H582 0.929 . S
C577 C578 1.362 . S
C577 C580 1.378 . S
C577 H592 0.929 . S
C578 C577 1.362 . S
C578 C579 1.366 . S
C579 C576 1.365 . S
C579 C578 1.366 . S
C579 H593 0.930 . S
C580 C577 1.378 . S
C580 N581 1.315 . S
C580 H583 0.930 . S
N581 Co561 2.194 . S
N581 C576 1.328 . S
N581 C580 1.315 . S
H582 C576 0.929 . S
H583 C580 0.930 . S
H584 C572 0.929 . S
H585 C574 0.929 . S
O586 Co561 2.351 . S
O586 C589 1.244 . S
O587 Co561 2.155 . S
O587 C589 1.240 . S
O588 Co561 2.096 . S
O588 C569 1.247 . S
C589 O586 1.244 . S
C589 O587 1.240 . S
H590 C564 0.931 . S
H591 C573 0.931 . S
H592 C577 0.929 . S
H593 C579 0.930 . S
C594 C595 1.391 . S
C594 C596 1.394 . S
C594 H610 0.931 . S
C595 C594 1.391 . S
C595 C599 1.376 . S
C596 C594 1.394 . S
C596 C597 1.369 . S
C596 C600 1.531 . S
C597 C596 1.369 . S
C597 C598 1.410 . S
C597 C605 1.503 . S
C598 C597 1.410 . S
C598 C599 1.392 . S
C598 C601 1.511 . S
C599 C595 1.376 . S
C599 C598 1.392 . S
C599 H611 0.929 . S
C600 C596 1.531 . S
C600 H612 0.960 . S
C600 H613 0.962 . S
C600 H614 0.960 . S
C601 C598 1.511 . S
C601 H615 0.961 . S
C601 H616 0.961 . S
C601 H617 0.961 . S
C602 C603 1.370 . S
C602 C604 1.363 . S
C602 H618 0.931 . S
C603 C602 1.370 . S
C603 C607 1.408 . S
C604 C602 1.363 . S
C604 C605 1.370 . S
C604 C608 1.524 . S
C605 C597 1.503 . S
C605 C604 1.370 . S
C605 C606 1.403 . S
C606 C605 1.403 . S
C606 C607 1.404 . S
C606 C609 1.539 . S
C607 C603 1.408 . S
C607 C606 1.404 . S
C607 H619 0.930 . S
C608 C604 1.524 . S
C608 H620 0.956 . S
C608 H621 0.961 . S
C608 H622 0.961 . S
C609 C606 1.539 . S
C609 H623 0.958 . S
C609 H624 0.961 . S
C609 H625 0.960 . S
H610 C594 0.931 . S
H611 C599 0.929 . S
H612 C600 0.960 . S
H613 C600 0.962 . S
H614 C600 0.960 . S
H615 C601 0.961 . S
H616 C601 0.961 . S
H617 C601 0.961 . S
H618 C602 0.931 . S
H619 C607 0.930 . S
H620 C608 0.956 . S
H621 C608 0.961 . S
H622 C608 0.961 . S
H623 C609 0.958 . S
H624 C609 0.961 . S
H625 C609 0.960 . S
C626 C627 1.391 . S
C626 C628 1.394 . S
C626 H642 0.931 . S
C627 C626 1.391 . S
C627 C631 1.376 . S
C628 C626 1.394 . S
C628 C629 1.369 . S
C628 C632 1.531 . S
C629 C628 1.369 . S
C629 C630 1.410 . S
C629 C637 1.503 1_565 S
C630 C629 1.410 . S
C630 C631 1.392 . S
C630 C633 1.533 . S
C631 C627 1.376 . S
C631 C630 1.392 . S
C631 H643 0.929 . S
C632 C628 1.531 . S
C632 H644 0.960 1_565 S
C632 H645 0.962 1_565 S
C632 H646 0.960 . S
C633 C630 1.533 . S
C633 H647 0.984 . S
C633 H648 0.940 1_565 S
C633 H649 0.939 1_565 S
C634 C635 1.370 . S
C634 C636 1.363 . S
C634 H650 0.931 . S
C635 C634 1.370 . S
C635 C639 1.408 . S
C636 C634 1.363 . S
C636 C637 1.370 . S
C636 C640 1.524 . S
C637 C629 1.503 1_545 S
C637 C636 1.370 . S
C637 C638 1.403 . S
C638 C637 1.403 . S
C638 C639 1.404 . S
C638 C641 1.539 . S
C639 C635 1.408 . S
C639 C638 1.404 . S
C639 H651 0.930 . S
C640 C636 1.524 . S
C640 H652 0.956 . S
C640 H653 0.961 . S
C640 H654 0.961 . S
C641 C638 1.539 . S
C641 H655 0.958 . S
C641 H656 0.961 . S
C641 H657 0.960 . S
H642 C626 0.931 . S
H643 C631 0.929 . S
H644 C632 0.960 1_545 S
H645 C632 0.962 1_545 S
H646 C632 0.960 . S
H647 C633 0.984 . S
H648 C633 0.940 1_545 S
H649 C633 0.939 1_545 S
H650 C634 0.931 . S
H651 C639 0.930 . S
H652 C640 0.956 . S
H653 C640 0.961 . S
H654 C640 0.961 . S
H655 C641 0.958 . S
H656 C641 0.961 . S
H657 C641 0.960 . S
C658 C659 1.391 . S
C658 C660 1.394 . S
C658 H674 0.931 . S
C659 C658 1.391 . S
C659 C663 1.376 . S
C660 C658 1.394 . S
C660 C661 1.369 . S
C660 C664 1.531 . S
C661 C660 1.369 . S
C661 C662 1.410 . S
C661 C669 1.503 1_655 S
C662 C661 1.410 . S
C662 C663 1.392 . S
C662 C665 1.511 . S
C663 C659 1.376 . S
C663 C662 1.392 . S
C663 H675 0.929 . S
C664 C660 1.531 . S
C664 H676 0.960 . S
C664 H677 0.962 . S
C664 H678 0.960 . S
C665 C662 1.511 . S
C665 H679 0.961 . S
C665 H680 0.961 . S
C665 H681 0.961 . S
C666 C667 1.370 . S
C666 C668 1.363 . S
C666 H682 0.931 . S
C667 C666 1.370 . S
C667 C671 1.408 . S
C668 C666 1.363 . S
C668 C669 1.370 . S
C668 C672 1.522 1_455 S
C669 C661 1.503 1_455 S
C669 C668 1.370 . S
C669 C670 1.403 . S
C670 C669 1.403 . S
C670 C671 1.404 . S
C670 C673 1.539 . S
C671 C667 1.408 . S
C671 C670 1.404 . S
C671 H683 0.930 . S
C672 C668 1.522 1_655 S
C672 H684 0.967 . S
C672 H685 0.996 . S
C672 H686 0.919 1_655 S
C673 C670 1.539 . S
C673 H687 0.958 . S
C673 H688 0.961 . S
C673 H689 0.960 1_455 S
H674 C658 0.931 . S
H675 C663 0.929 . S
H676 C664 0.960 . S
H677 C664 0.962 . S
H678 C664 0.960 . S
H679 C665 0.961 . S
H680 C665 0.961 . S
H681 C665 0.961 . S
H682 C666 0.931 . S
H683 C671 0.930 . S
H684 C672 0.967 . S
H685 C672 0.996 . S
H686 C672 0.919 1_455 S
H687 C673 0.958 . S
H688 C673 0.961 . S
H689 C673 0.960 1_655 S
C690 C691 1.391 . S
C690 C692 1.394 . S
C690 H706 0.931 . S
C691 C690 1.391 . S
C691 C695 1.376 . S
C692 C690 1.394 . S
C692 C693 1.369 . S
C692 C696 1.531 . S
C693 C692 1.369 . S
C693 C694 1.410 . S
C693 C701 1.503 . S
C694 C693 1.410 . S
C694 C695 1.392 . S
C694 C697 1.511 . S
C695 C691 1.376 . S
C695 C694 1.392 . S
C695 H707 0.929 . S
C696 C692 1.531 . S
C696 H708 0.960 . S
C696 H709 0.962 . S
C696 H710 0.960 . S
C697 C694 1.511 . S
C697 H711 0.961 . S
C697 H712 0.961 . S
C697 H713 0.961 . S
C698 C699 1.370 . S
C698 C700 1.363 . S
C698 H714 0.931 . S
C699 C698 1.370 . S
C699 C703 1.408 . S
C700 C698 1.363 . S
C700 C701 1.370 . S
C700 C704 1.524 . S
C701 C693 1.503 . S
C701 C700 1.370 . S
C701 C702 1.403 . S
C702 C701 1.403 . S
C702 C703 1.404 . S
C702 C705 1.539 . S
C703 C699 1.408 . S
C703 C702 1.404 . S
C703 H715 0.930 . S
C704 C700 1.524 . S
C704 H716 0.956 . S
C704 H717 0.961 . S
C704 H718 0.961 . S
C705 C702 1.539 . S
C705 H719 0.958 . S
C705 H720 0.961 . S
C705 H721 0.960 . S
H706 C690 0.931 . S
H707 C695 0.929 . S
H708 C696 0.960 . S
H709 C696 0.962 . S
H710 C696 0.960 . S
H711 C697 0.961 . S
H712 C697 0.961 . S
H713 C697 0.961 . S
H714 C698 0.931 . S
H715 C703 0.930 . S
H716 C704 0.956 . S
H717 C704 0.961 . S
H718 C704 0.961 . S
H719 C705 0.958 . S
H720 C705 0.961 . S
H721 C705 0.960 . S
C722 C723 1.391 . S
C722 C724 1.394 . S
C722 H738 0.931 . S
C723 C722 1.391 . S
C723 C727 1.376 . S
C724 C722 1.394 . S
C724 C725 1.369 . S
C724 C728 1.536 . S
C725 C724 1.369 . S
C725 C726 1.410 . S
C725 C733 1.503 1_545 S
C726 C725 1.410 . S
C726 C727 1.392 . S
C726 C729 1.511 . S
C727 C723 1.376 . S
C727 C726 1.392 . S
C727 H739 0.929 . S
C728 C724 1.536 . S
C728 H740 0.956 1_545 S
C728 H741 0.958 1_545 S
C728 H742 0.962 . S
C729 C726 1.511 . S
C729 H743 0.961 . S
C729 H744 0.961 1_545 S
C729 H745 0.961 . S
C730 C731 1.370 . S
C730 C732 1.363 . S
C730 H746 0.931 . S
C731 C730 1.370 . S
C731 C735 1.408 . S
C732 C730 1.363 . S
C732 C733 1.370 . S
C732 C736 1.524 . S
C733 C725 1.503 1_565 S
C733 C732 1.370 . S
C733 C734 1.403 . S
C734 C733 1.403 . S
C734 C735 1.404 . S
C734 C737 1.539 . S
C735 C731 1.408 . S
C735 C734 1.404 . S
C735 H747 0.930 . S
C736 C732 1.524 . S
C736 H748 0.956 . S
C736 H749 0.961 . S
C736 H750 0.961 . S
C737 C734 1.539 . S
C737 H751 0.958 . S
C737 H752 0.961 . S
C737 H753 0.960 . S
H738 C722 0.931 . S
H739 C727 0.929 . S
H740 C728 0.956 1_565 S
H741 C728 0.958 1_565 S
H742 C728 0.962 . S
H743 C729 0.961 . S
H744 C729 0.961 1_565 S
H745 C729 0.961 . S
H746 C730 0.931 . S
H747 C735 0.930 . S
H748 C736 0.956 . S
H749 C736 0.961 . S
H750 C736 0.961 . S
H751 C737 0.958 . S
H752 C737 0.961 . S
H753 C737 0.960 . S
C754 C755 1.391 . S
C754 C756 1.394 . S
C754 H770 0.931 . S
C755 C754 1.391 . S
C755 C759 1.376 . S
C756 C754 1.394 . S
C756 C757 1.369 . S
C756 C760 1.531 . S
C757 C756 1.369 . S
C757 C758 1.410 . S
C757 C765 1.503 1_455 S
C758 C757 1.410 . S
C758 C759 1.392 . S
C758 C761 1.511 . S
C759 C755 1.376 . S
C759 C758 1.392 . S
C759 H771 0.929 . S
C760 C756 1.531 . S
C760 H772 0.960 . S
C760 H773 0.962 . S
C760 H774 0.960 . S
C761 C758 1.511 . S
C761 H775 0.961 . S
C761 H776 0.961 . S
C761 H777 0.961 . S
C762 C763 1.370 . S
C762 C764 1.363 . S
C762 H778 0.931 . S
C763 C762 1.370 . S
C763 C767 1.408 . S
C764 C762 1.363 . S
C764 C765 1.370 . S
C764 C768 1.524 1_655 S
C765 C757 1.503 1_655 S
C765 C764 1.370 . S
C765 C766 1.403 . S
C766 C765 1.403 . S
C766 C767 1.404 . S
C766 C769 1.539 . S
C767 C763 1.408 . S
C767 C766 1.404 . S
C767 H779 0.930 . S
C768 C764 1.524 1_455 S
C768 H780 0.956 . S
C768 H781 0.961 . S
C768 H782 0.961 1_455 S
C769 C766 1.539 . S
C769 H783 0.961 1_655 S
C769 H784 0.961 . S
C769 H785 0.960 1_655 S
H770 C754 0.931 . S
H771 C759 0.929 . S
H772 C760 0.960 . S
H773 C760 0.962 . S
H774 C760 0.960 . S
H775 C761 0.961 . S
H776 C761 0.961 . S
H777 C761 0.961 . S
H778 C762 0.931 . S
H779 C767 0.930 . S
H780 C768 0.956 . S
H781 C768 0.961 . S
H782 C768 0.961 1_655 S
H783 C769 0.961 1_455 S
H784 C769 0.961 . S
H785 C769 0.960 1_455 S
C786 C787 1.391 . S
C786 C788 1.394 . S
C786 H802 0.931 . S
C787 C786 1.391 . S
C787 C791 1.376 . S
C788 C786 1.394 . S
C788 C789 1.369 . S
C788 C792 1.531 . S
C789 C788 1.369 . S
C789 C790 1.410 . S
C789 C797 1.503 . S
C790 C789 1.410 . S
C790 C791 1.392 . S
C790 C793 1.511 . S
C791 C787 1.376 . S
C791 C790 1.392 . S
C791 H803 0.929 . S
C792 C788 1.531 . S
C792 H804 0.960 . S
C792 H805 0.962 . S
C792 H806 0.960 . S
C793 C790 1.511 . S
C793 H807 0.961 . S
C793 H808 0.961 . S
C793 H809 0.961 . S
C794 C795 1.370 . S
C794 C796 1.363 . S
C794 H810 0.931 . S
C795 C794 1.370 . S
C795 C799 1.408 . S
C796 C794 1.363 . S
C796 C797 1.370 . S
C796 C800 1.524 . S
C797 C789 1.503 . S
C797 C796 1.370 . S
C797 C798 1.403 . S
C798 C797 1.403 . S
C798 C799 1.404 . S
C798 C801 1.539 . S
C799 C795 1.408 . S
C799 C798 1.404 . S
C799 H811 0.930 . S
C800 C796 1.524 . S
C800 H812 0.956 . S
C800 H813 0.961 . S
C800 H814 0.961 . S
C801 C798 1.539 . S
C801 H815 0.958 . S
C801 H816 0.961 . S
C801 H817 0.960 . S
H802 C786 0.931 . S
H803 C791 0.929 . S
H804 C792 0.960 . S
H805 C792 0.962 . S
H806 C792 0.960 . S
H807 C793 0.961 . S
H808 C793 0.961 . S
H809 C793 0.961 . S
H810 C794 0.931 . S
H811 C799 0.930 . S
H812 C800 0.956 . S
H813 C800 0.961 . S
H814 C800 0.961 . S
H815 C801 0.958 . S
H816 C801 0.961 . S
H817 C801 0.960 . S
C818 C819 1.391 . S
C818 C820 1.394 . S
C818 H834 0.931 . S
C819 C818 1.391 . S
C819 C823 1.376 . S
C820 C818 1.394 . S
C820 C821 1.369 . S
C820 C824 1.531 . S
C821 C820 1.369 . S
C821 C822 1.410 . S
C821 C829 1.503 . S
C822 C821 1.410 . S
C822 C823 1.392 . S
C822 C825 1.511 . S
C823 C819 1.376 . S
C823 C822 1.392 . S
C823 H835 0.929 . S
C824 C820 1.531 . S
C824 H836 0.960 . S
C824 H837 0.962 . S
C824 H838 0.960 . S
C825 C822 1.511 . S
C825 H839 0.961 . S
C825 H840 0.961 . S
C825 H841 0.961 . S
C826 C827 1.370 . S
C826 C828 1.363 . S
C826 H842 0.931 . S
C827 C826 1.370 . S
C827 C831 1.408 . S
C828 C826 1.363 . S
C828 C829 1.370 . S
C828 C832 1.524 . S
C829 C821 1.503 . S
C829 C828 1.370 . S
C829 C830 1.403 . S
C830 C829 1.403 . S
C830 C831 1.404 . S
C830 C833 1.539 . S
C831 C827 1.408 . S
C831 C830 1.404 . S
C831 H843 0.930 . S
C832 C828 1.524 . S
C832 H844 0.956 . S
C832 H845 0.961 . S
C832 H846 0.961 . S
C833 C830 1.539 . S
C833 H847 0.958 . S
C833 H848 0.961 . S
C833 H849 0.960 . S
H834 C818 0.931 . S
H835 C823 0.929 . S
H836 C824 0.960 . S
H837 C824 0.962 . S
H838 C824 0.960 . S
H839 C825 0.961 . S
H840 C825 0.961 . S
H841 C825 0.961 . S
H842 C826 0.931 . S
H843 C831 0.930 . S
H844 C832 0.956 . S
H845 C832 0.961 . S
H846 C832 0.961 . S
H847 C833 0.958 . S
H848 C833 0.961 . S
H849 C833 0.960 . S
C850 C851 1.391 . S
C850 C852 1.394 . S
C850 H866 0.931 . S
C851 C850 1.391 . S
C851 C855 1.376 . S
C852 C850 1.394 . S
C852 C853 1.369 . S
C852 C856 1.531 . S
C853 C852 1.369 . S
C853 C854 1.410 . S
C853 C861 1.503 . S
C854 C853 1.410 . S
C854 C855 1.392 . S
C854 C857 1.511 . S
C855 C851 1.376 . S
C855 C854 1.392 . S
C855 H867 0.929 . S
C856 C852 1.531 . S
C856 H868 0.960 . S
C856 H869 0.962 . S
C856 H870 0.960 . S
C857 C854 1.511 . S
C857 H871 0.961 . S
C857 H872 0.961 . S
C857 H873 0.961 . S
C858 C859 1.370 . S
C858 C860 1.363 . S
C858 H874 0.931 . S
C859 C858 1.370 . S
C859 C863 1.408 . S
C860 C858 1.363 . S
C860 C861 1.370 . S
C860 C864 1.524 . S
C861 C853 1.503 . S
C861 C860 1.370 . S
C861 C862 1.403 . S
C862 C861 1.403 . S
C862 C863 1.404 . S
C862 C865 1.539 . S
C863 C859 1.408 . S
C863 C862 1.404 . S
C863 H875 0.930 . S
C864 C860 1.524 . S
C864 H876 0.956 . S
C864 H877 0.961 . S
C864 H878 0.961 . S
C865 C862 1.539 . S
C865 H879 0.958 . S
C865 H880 0.961 . S
C865 H881 0.960 . S
H866 C850 0.931 . S
H867 C855 0.929 . S
H868 C856 0.960 . S
H869 C856 0.962 . S
H870 C856 0.960 . S
H871 C857 0.961 . S
H872 C857 0.961 . S
H873 C857 0.961 . S
H874 C858 0.931 . S
H875 C863 0.930 . S
H876 C864 0.956 . S
H877 C864 0.961 . S
H878 C864 0.961 . S
H879 C865 0.958 . S
H880 C865 0.961 . S
H881 C865 0.960 . S
C882 C883 1.391 . S
C882 C884 1.394 . S
C882 H898 0.931 . S
C883 C882 1.391 . S
C883 C887 1.376 . S
C884 C882 1.394 . S
C884 C885 1.369 . S
C884 C888 1.531 . S
C885 C884 1.369 . S
C885 C886 1.410 . S
C885 C893 1.503 . S
C886 C885 1.410 . S
C886 C887 1.392 . S
C886 C889 1.511 . S
C887 C883 1.376 . S
C887 C886 1.392 . S
C887 H899 0.929 . S
C888 C884 1.531 . S
C888 H900 0.960 . S
C888 H901 0.962 . S
C888 H902 0.960 . S
C889 C886 1.511 . S
C889 H903 0.961 . S
C889 H904 0.961 . S
C889 H905 0.961 . S
C890 C891 1.370 . S
C890 C892 1.363 . S
C890 H906 0.931 . S
C891 C890 1.370 . S
C891 C895 1.408 . S
C892 C890 1.363 . S
C892 C893 1.370 . S
C892 C896 1.524 . S
C893 C885 1.503 . S
C893 C892 1.370 . S
C893 C894 1.403 . S
C894 C893 1.403 . S
C894 C895 1.404 . S
C894 C897 1.539 . S
C895 C891 1.408 . S
C895 C894 1.404 . S
C895 H907 0.930 . S
C896 C892 1.524 . S
C896 H908 0.956 . S
C896 H909 0.961 . S
C896 H910 0.961 . S
C897 C894 1.539 . S
C897 H911 0.958 . S
C897 H912 0.961 . S
C897 H913 0.960 . S
H898 C882 0.931 . S
H899 C887 0.929 . S
H900 C888 0.960 . S
H901 C888 0.962 . S
H902 C888 0.960 . S
H903 C889 0.961 . S
H904 C889 0.961 . S
H905 C889 0.961 . S
H906 C890 0.931 . S
H907 C895 0.930 . S
H908 C896 0.956 . S
H909 C896 0.961 . S
H910 C896 0.961 . S
H911 C897 0.958 . S
H912 C897 0.961 . S
H913 C897 0.960 . S
C914 C915 1.391 . S
C914 C916 1.394 . S
C914 H930 0.931 . S
C915 C914 1.391 . S
C915 C919 1.376 . S
C916 C914 1.394 . S
C916 C917 1.369 . S
C916 C920 1.531 . S
C917 C916 1.369 . S
C917 C918 1.410 . S
C917 C925 1.503 . S
C918 C917 1.410 . S
C918 C919 1.392 . S
C918 C921 1.511 . S
C919 C915 1.376 . S
C919 C918 1.392 . S
C919 H931 0.929 . S
C920 C916 1.531 . S
C920 H932 0.960 . S
C920 H933 0.962 . S
C920 H934 0.960 . S
C921 C918 1.511 . S
C921 H935 0.961 . S
C921 H936 0.961 . S
C921 H937 0.961 . S
C922 C923 1.370 . S
C922 C924 1.363 . S
C922 H938 0.931 . S
C923 C922 1.370 . S
C923 C927 1.408 . S
C924 C922 1.363 . S
C924 C925 1.370 . S
C924 C928 1.524 . S
C925 C917 1.503 . S
C925 C924 1.370 . S
C925 C926 1.403 . S
C926 C925 1.403 . S
C926 C927 1.404 . S
C926 C929 1.539 . S
C927 C923 1.408 . S
C927 C926 1.404 . S
C927 H939 0.930 . S
C928 C924 1.524 . S
C928 H940 0.956 . S
C928 H941 0.961 . S
C928 H942 0.961 . S
C929 C926 1.539 . S
C929 H943 0.958 . S
C929 H944 0.961 . S
C929 H945 0.960 . S
H930 C914 0.931 . S
H931 C919 0.929 . S
H932 C920 0.960 . S
H933 C920 0.962 . S
H934 C920 0.960 . S
H935 C921 0.961 . S
H936 C921 0.961 . S
H937 C921 0.961 . S
H938 C922 0.931 . S
H939 C927 0.930 . S
H940 C928 0.956 . S
H941 C928 0.961 . S
H942 C928 0.961 . S
H943 C929 0.958 . S
H944 C929 0.961 . S
H945 C929 0.960 . S
C946 C947 1.391 . S
C946 C948 1.394 . S
C946 H962 0.931 . S
C947 C946 1.391 . S
C947 C951 1.376 . S
C948 C946 1.394 . S
C948 C949 1.369 . S
C948 C952 1.531 . S
C949 C948 1.369 . S
C949 C950 1.410 . S
C949 C957 1.503 . S
C950 C949 1.410 . S
C950 C951 1.392 . S
C950 C953 1.511 . S
C951 C947 1.376 . S
C951 C950 1.392 . S
C951 H963 0.929 . S
C952 C948 1.531 . S
C952 H964 0.960 . S
C952 H965 0.962 . S
C952 H966 0.960 . S
C953 C950 1.511 . S
C953 H967 0.961 . S
C953 H968 0.961 . S
C953 H969 0.961 . S
C954 C955 1.370 . S
C954 C956 1.363 . S
C954 H970 0.931 . S
C955 C954 1.370 . S
C955 C959 1.408 . S
C956 C954 1.363 . S
C956 C957 1.370 . S
C956 C960 1.524 . S
C957 C949 1.503 . S
C957 C956 1.370 . S
C957 C958 1.403 . S
C958 C957 1.403 . S
C958 C959 1.404 . S
C958 C961 1.539 . S
C959 C955 1.408 . S
C959 C958 1.404 . S
C959 H971 0.930 . S
C960 C956 1.524 . S
C960 H972 0.956 . S
C960 H973 0.961 . S
C960 H974 0.961 . S
C961 C958 1.539 . S
C961 H975 0.958 . S
C961 H976 0.961 . S
C961 H977 0.960 . S
H962 C946 0.931 . S
H963 C951 0.929 . S
H964 C952 0.960 . S
H965 C952 0.962 . S
H966 C952 0.960 . S
H967 C953 0.961 . S
H968 C953 0.961 . S
H969 C953 0.961 . S
H970 C954 0.931 . S
H971 C959 0.930 . S
H972 C960 0.956 . S
H973 C960 0.961 . S
H974 C960 0.961 . S
H975 C961 0.958 . S
H976 C961 0.961 . S
H977 C961 0.960 . S
C978 C979 1.391 . S
C978 C980 1.394 . S
C978 H994 0.931 . S
C979 C978 1.391 . S
C979 C983 1.376 . S
C980 C978 1.394 . S
C980 C981 1.369 . S
C980 C984 1.531 . S
C981 C980 1.369 . S
C981 C982 1.410 . S
C981 C989 1.503 . S
C982 C981 1.410 . S
C982 C983 1.392 . S
C982 C985 1.511 . S
C983 C979 1.376 . S
C983 C982 1.392 . S
C983 H995 0.929 . S
C984 C980 1.531 . S
C984 H996 0.960 . S
C984 H997 0.962 . S
C984 H998 0.960 . S
C985 C982 1.511 . S
C985 H999 0.961 . S
C985 H1000 0.961 . S
C985 H1001 0.961 . S
C986 C987 1.370 . S
C986 C988 1.363 . S
C986 H1002 0.931 . S
C987 C986 1.370 . S
C987 C991 1.408 . S
C988 C986 1.363 . S
C988 C989 1.370 . S
C988 C992 1.524 . S
C989 C981 1.503 . S
C989 C988 1.370 . S
C989 C990 1.403 . S
C990 C989 1.403 . S
C990 C991 1.404 . S
C990 C993 1.539 . S
C991 C987 1.408 . S
C991 C990 1.404 . S
C991 H1003 0.930 . S
C992 C988 1.524 . S
C992 H1004 0.956 . S
C992 H1005 0.961 . S
C992 H1006 0.961 . S
C993 C990 1.539 . S
C993 H1007 0.958 . S
C993 H1008 0.961 . S
C993 H1009 0.960 . S
H994 C978 0.931 . S
H995 C983 0.929 . S
H996 C984 0.960 . S
H997 C984 0.962 . S
H998 C984 0.960 . S
H999 C985 0.961 . S
H1000 C985 0.961 . S
H1001 C985 0.961 . S
H1002 C986 0.931 . S
H1003 C991 0.930 . S
H1004 C992 0.956 . S
H1005 C992 0.961 . S
H1006 C992 0.961 . S
H1007 C993 0.958 . S
H1008 C993 0.961 . S
H1009 C993 0.960 . S
C1010 C1011 1.391 . S
C1010 C1012 1.394 . S
C1010 H1026 0.931 . S
C1011 C1010 1.391 . S
C1011 C1015 1.376 . S
C1012 C1010 1.394 . S
C1012 C1013 1.369 . S
C1012 C1016 1.531 . S
C1013 C1012 1.369 . S
C1013 C1014 1.410 . S
C1013 C1021 1.503 . S
C1014 C1013 1.410 . S
C1014 C1015 1.392 . S
C1014 C1017 1.511 . S
C1015 C1011 1.376 . S
C1015 C1014 1.392 . S
C1015 H1027 0.929 . S
C1016 C1012 1.531 . S
C1016 H1028 0.960 . S
C1016 H1029 0.962 . S
C1016 H1030 0.960 . S
C1017 C1014 1.511 . S
C1017 H1031 0.961 . S
C1017 H1032 0.961 . S
C1017 H1033 0.961 . S
C1018 C1019 1.370 . S
C1018 C1020 1.363 . S
C1018 H1034 0.931 . S
C1019 C1018 1.370 . S
C1019 C1023 1.408 . S
C1020 C1018 1.363 . S
C1020 C1021 1.370 . S
C1020 C1024 1.524 . S
C1021 C1013 1.503 . S
C1021 C1020 1.370 . S
C1021 C1022 1.403 . S
C1022 C1021 1.403 . S
C1022 C1023 1.404 . S
C1022 C1025 1.539 . S
C1023 C1019 1.408 . S
C1023 C1022 1.404 . S
C1023 H1035 0.930 . S
C1024 C1020 1.524 . S
C1024 H1036 0.956 . S
C1024 H1037 0.961 . S
C1024 H1038 0.961 . S
C1025 C1022 1.539 . S
C1025 H1039 0.958 . S
C1025 H1040 0.961 . S
C1025 H1041 0.960 . S
H1026 C1010 0.931 . S
H1027 C1015 0.929 . S
H1028 C1016 0.960 . S
H1029 C1016 0.962 . S
H1030 C1016 0.960 . S
H1031 C1017 0.961 . S
H1032 C1017 0.961 . S
H1033 C1017 0.961 . S
H1034 C1018 0.931 . S
H1035 C1023 0.930 . S
H1036 C1024 0.956 . S
H1037 C1024 0.961 . S
H1038 C1024 0.961 . S
H1039 C1025 0.958 . S
H1040 C1025 0.961 . S
H1041 C1025 0.960 . S
C1042 C1043 1.391 . S
C1042 C1044 1.394 . S
C1042 H1058 0.931 . S
C1043 C1042 1.391 . S
C1043 C1047 1.376 . S
C1044 C1042 1.394 . S
C1044 C1045 1.369 . S
C1044 C1048 1.531 . S
C1045 C1044 1.369 . S
C1045 C1046 1.410 . S
C1045 C1053 1.503 . S
C1046 C1045 1.410 . S
C1046 C1047 1.392 . S
C1046 C1049 1.511 . S
C1047 C1043 1.376 . S
C1047 C1046 1.392 . S
C1047 H1059 0.929 . S
C1048 C1044 1.531 . S
C1048 H1060 0.960 . S
C1048 H1061 0.962 . S
C1048 H1062 0.960 . S
C1049 C1046 1.511 . S
C1049 H1063 0.961 . S
C1049 H1064 0.961 . S
C1049 H1065 0.961 . S
C1050 C1051 1.370 . S
C1050 C1052 1.363 . S
C1050 H1066 0.931 . S
C1051 C1050 1.370 . S
C1051 C1055 1.408 . S
C1052 C1050 1.363 . S
C1052 C1053 1.370 . S
C1052 C1056 1.524 . S
C1053 C1045 1.503 . S
C1053 C1052 1.370 . S
C1053 C1054 1.403 . S
C1054 C1053 1.403 . S
C1054 C1055 1.404 . S
C1054 C1057 1.539 . S
C1055 C1051 1.408 . S
C1055 C1054 1.404 . S
C1055 H1067 0.930 . S
C1056 C1052 1.524 . S
C1056 H1068 0.956 . S
C1056 H1069 0.961 . S
C1056 H1070 0.961 . S
C1057 C1054 1.539 . S
C1057 H1071 0.958 . S
C1057 H1072 0.961 . S
C1057 H1073 0.960 . S
H1058 C1042 0.931 . S
H1059 C1047 0.929 . S
H1060 C1048 0.960 . S
H1061 C1048 0.962 . S
H1062 C1048 0.960 . S
H1063 C1049 0.961 . S
H1064 C1049 0.961 . S
H1065 C1049 0.961 . S
H1066 C1050 0.931 . S
H1067 C1055 0.930 . S
H1068 C1056 0.956 . S
H1069 C1056 0.961 . S
H1070 C1056 0.961 . S
H1071 C1057 0.958 . S
H1072 C1057 0.961 . S
H1073 C1057 0.960 . S
C1074 C1075 1.391 . S
C1074 C1076 1.394 . S
C1074 H1090 0.931 . S
C1075 C1074 1.391 . S
C1075 C1079 1.376 . S
C1076 C1074 1.394 . S
C1076 C1077 1.369 . S
C1076 C1080 1.531 . S
C1077 C1076 1.369 . S
C1077 C1078 1.410 . S
C1077 C1085 1.503 . S
C1078 C1077 1.410 . S
C1078 C1079 1.392 . S
C1078 C1081 1.511 . S
C1079 C1075 1.376 . S
C1079 C1078 1.392 . S
C1079 H1091 0.929 . S
C1080 C1076 1.531 . S
C1080 H1092 0.960 . S
C1080 H1093 0.962 . S
C1080 H1094 0.960 . S
C1081 C1078 1.511 . S
C1081 H1095 0.961 . S
C1081 H1096 0.961 . S
C1081 H1097 0.961 . S
C1082 C1083 1.370 . S
C1082 C1084 1.363 . S
C1082 H1098 0.931 . S
C1083 C1082 1.370 . S
C1083 C1087 1.408 . S
C1084 C1082 1.363 . S
C1084 C1085 1.370 . S
C1084 C1088 1.524 . S
C1085 C1077 1.503 . S
C1085 C1084 1.370 . S
C1085 C1086 1.403 . S
C1086 C1085 1.403 . S
C1086 C1087 1.404 . S
C1086 C1089 1.539 . S
C1087 C1083 1.408 . S
C1087 C1086 1.404 . S
C1087 H1099 0.930 . S
C1088 C1084 1.524 . S
C1088 H1100 0.956 . S
C1088 H1101 0.961 . S
C1088 H1102 0.961 . S
C1089 C1086 1.539 . S
C1089 H1103 0.958 . S
C1089 H1104 0.961 . S
C1089 H1105 0.960 . S
H1090 C1074 0.931 . S
H1091 C1079 0.929 . S
H1092 C1080 0.960 . S
H1093 C1080 0.962 . S
H1094 C1080 0.960 . S
H1095 C1081 0.961 . S
H1096 C1081 0.961 . S
H1097 C1081 0.961 . S
H1098 C1082 0.931 . S
H1099 C1087 0.930 . S
H1100 C1088 0.956 . S
H1101 C1088 0.961 . S
H1102 C1088 0.961 . S
H1103 C1089 0.958 . S
H1104 C1089 0.961 . S
H1105 C1089 0.960 . S
C1106 C1107 1.391 . S
C1106 C1108 1.394 . S
C1106 H1122 0.931 . S
C1107 C1106 1.391 . S
C1107 C1111 1.376 . S
C1108 C1106 1.394 . S
C1108 C1109 1.369 . S
C1108 C1112 1.531 . S
C1109 C1108 1.369 . S
C1109 C1110 1.410 . S
C1109 C1117 1.503 . S
C1110 C1109 1.410 . S
C1110 C1111 1.392 . S
C1110 C1113 1.511 . S
C1111 C1107 1.376 . S
C1111 C1110 1.392 . S
C1111 H1123 0.929 . S
C1112 C1108 1.531 . S
C1112 H1124 0.960 . S
C1112 H1125 0.962 . S
C1112 H1126 0.960 . S
C1113 C1110 1.511 . S
C1113 H1127 0.961 . S
C1113 H1128 0.961 . S
C1113 H1129 0.961 . S
C1114 C1115 1.370 . S
C1114 C1116 1.363 . S
C1114 H1130 0.931 . S
C1115 C1114 1.370 . S
C1115 C1119 1.408 . S
C1116 C1114 1.363 . S
C1116 C1117 1.370 . S
C1116 C1120 1.524 . S
C1117 C1109 1.503 . S
C1117 C1116 1.370 . S
C1117 C1118 1.403 . S
C1118 C1117 1.403 . S
C1118 C1119 1.404 . S
C1118 C1121 1.539 . S
C1119 C1115 1.408 . S
C1119 C1118 1.404 . S
C1119 H1131 0.930 . S
C1120 C1116 1.524 . S
C1120 H1132 0.956 . S
C1120 H1133 0.961 . S
C1120 H1134 0.961 . S
C1121 C1118 1.539 . S
C1121 H1135 0.958 . S
C1121 H1136 0.961 . S
C1121 H1137 0.960 . S
H1122 C1106 0.931 . S
H1123 C1111 0.929 . S
H1124 C1112 0.960 . S
H1125 C1112 0.962 . S
H1126 C1112 0.960 . S
H1127 C1113 0.961 . S
H1128 C1113 0.961 . S
H1129 C1113 0.961 . S
H1130 C1114 0.931 . S
H1131 C1119 0.930 . S
H1132 C1120 0.956 . S
H1133 C1120 0.961 . S
H1134 C1120 0.961 . S
H1135 C1121 0.958 . S
H1136 C1121 0.961 . S
H1137 C1121 0.960 . S
C1138 C1139 1.391 . S
C1138 C1140 1.394 . S
C1138 H1154 0.931 . S
C1139 C1138 1.391 . S
C1139 C1143 1.376 . S
C1140 C1138 1.394 . S
C1140 C1141 1.369 . S
C1140 C1144 1.531 . S
C1141 C1140 1.369 . S
C1141 C1142 1.410 . S
C1141 C1149 1.503 . S
C1142 C1141 1.410 . S
C1142 C1143 1.392 . S
C1142 C1145 1.511 . S
C1143 C1139 1.376 . S
C1143 C1142 1.392 . S
C1143 H1155 0.929 . S
C1144 C1140 1.531 . S
C1144 H1156 0.960 . S
C1144 H1157 0.962 . S
C1144 H1158 0.960 . S
C1145 C1142 1.511 . S
C1145 H1159 0.961 . S
C1145 H1160 0.961 . S
C1145 H1161 0.961 . S
C1146 C1147 1.370 . S
C1146 C1148 1.363 . S
C1146 H1162 0.931 . S
C1147 C1146 1.370 . S
C1147 C1151 1.408 . S
C1148 C1146 1.363 . S
C1148 C1149 1.370 . S
C1148 C1152 1.524 . S
C1149 C1141 1.503 . S
C1149 C1148 1.370 . S
C1149 C1150 1.403 . S
C1150 C1149 1.403 . S
C1150 C1151 1.404 . S
C1150 C1153 1.539 . S
C1151 C1147 1.408 . S
C1151 C1150 1.404 . S
C1151 H1163 0.930 . S
C1152 C1148 1.524 . S
C1152 H1164 0.956 . S
C1152 H1165 0.961 . S
C1152 H1166 0.961 . S
C1153 C1150 1.539 . S
C1153 H1167 0.958 . S
C1153 H1168 0.961 . S
C1153 H1169 0.960 . S
H1154 C1138 0.931 . S
H1155 C1143 0.929 . S
H1156 C1144 0.960 . S
H1157 C1144 0.962 . S
H1158 C1144 0.960 . S
H1159 C1145 0.961 . S
H1160 C1145 0.961 . S
H1161 C1145 0.961 . S
H1162 C1146 0.931 . S
H1163 C1151 0.930 . S
H1164 C1152 0.956 . S
H1165 C1152 0.961 . S
H1166 C1152 0.961 . S
H1167 C1153 0.958 . S
H1168 C1153 0.961 . S
H1169 C1153 0.960 . S
C1170 C1171 1.391 . S
C1170 C1172 1.394 . S
C1170 H1186 0.931 . S
C1171 C1170 1.391 . S
C1171 C1175 1.376 . S
C1172 C1170 1.394 . S
C1172 C1173 1.369 . S
C1172 C1176 1.531 . S
C1173 C1172 1.369 . S
C1173 C1174 1.410 . S
C1173 C1181 1.503 . S
C1174 C1173 1.410 . S
C1174 C1175 1.392 . S
C1174 C1177 1.511 . S
C1175 C1171 1.376 . S
C1175 C1174 1.392 . S
C1175 H1187 0.929 . S
C1176 C1172 1.531 . S
C1176 H1188 0.960 . S
C1176 H1189 0.962 . S
C1176 H1190 0.960 . S
C1177 C1174 1.511 . S
C1177 H1191 0.961 . S
C1177 H1192 0.961 . S
C1177 H1193 0.961 . S
C1178 C1179 1.370 . S
C1178 C1180 1.363 . S
C1178 H1194 0.931 . S
C1179 C1178 1.370 . S
C1179 C1183 1.408 . S
C1180 C1178 1.363 . S
C1180 C1181 1.370 . S
C1180 C1184 1.524 . S
C1181 C1173 1.503 . S
C1181 C1180 1.370 . S
C1181 C1182 1.403 . S
C1182 C1181 1.403 . S
C1182 C1183 1.404 . S
C1182 C1185 1.539 . S
C1183 C1179 1.408 . S
C1183 C1182 1.404 . S
C1183 H1195 0.930 . S
C1184 C1180 1.524 . S
C1184 H1196 0.956 . S
C1184 H1197 0.961 . S
C1184 H1198 0.961 . S
C1185 C1182 1.539 . S
C1185 H1199 0.958 . S
C1185 H1200 0.961 . S
C1185 H1201 0.960 . S
H1186 C1170 0.931 . S
H1187 C1175 0.929 . S
H1188 C1176 0.960 . S
H1189 C1176 0.962 . S
H1190 C1176 0.960 . S
H1191 C1177 0.961 . S
H1192 C1177 0.961 . S
H1193 C1177 0.961 . S
H1194 C1178 0.931 . S
H1195 C1183 0.930 . S
H1196 C1184 0.956 . S
H1197 C1184 0.961 . S
H1198 C1184 0.961 . S
H1199 C1185 0.958 . S
H1200 C1185 0.961 . S
H1201 C1185 0.960 . S
C1202 C1203 1.391 . S
C1202 C1204 1.394 . S
C1202 H1218 0.931 . S
C1203 C1202 1.391 . S
C1203 C1207 1.376 . S
C1204 C1202 1.394 . S
C1204 C1205 1.369 . S
C1204 C1208 1.531 . S
C1205 C1204 1.369 . S
C1205 C1206 1.410 . S
C1205 C1213 1.503 . S
C1206 C1205 1.410 . S
C1206 C1207 1.392 . S
C1206 C1209 1.511 . S
C1207 C1203 1.376 . S
C1207 C1206 1.392 . S
C1207 H1219 0.929 . S
C1208 C1204 1.531 . S
C1208 H1220 0.960 . S
C1208 H1221 0.962 . S
C1208 H1222 0.960 . S
C1209 C1206 1.511 . S
C1209 H1223 0.961 . S
C1209 H1224 0.961 . S
C1209 H1225 0.961 . S
C1210 C1211 1.370 . S
C1210 C1212 1.363 . S
C1210 H1226 0.931 . S
C1211 C1210 1.370 . S
C1211 C1215 1.408 . S
C1212 C1210 1.363 . S
C1212 C1213 1.370 . S
C1212 C1216 1.524 . S
C1213 C1205 1.503 . S
C1213 C1212 1.370 . S
C1213 C1214 1.403 . S
C1214 C1213 1.403 . S
C1214 C1215 1.404 . S
C1214 C1217 1.539 . S
C1215 C1211 1.408 . S
C1215 C1214 1.404 . S
C1215 H1227 0.930 . S
C1216 C1212 1.524 . S
C1216 H1228 0.956 . S
C1216 H1229 0.961 . S
C1216 H1230 0.961 . S
C1217 C1214 1.539 . S
C1217 H1231 0.958 . S
C1217 H1232 0.961 . S
C1217 H1233 0.960 . S
H1218 C1202 0.931 . S
H1219 C1207 0.929 . S
H1220 C1208 0.960 . S
H1221 C1208 0.962 . S
H1222 C1208 0.960 . S
H1223 C1209 0.961 . S
H1224 C1209 0.961 . S
H1225 C1209 0.961 . S
H1226 C1210 0.931 . S
H1227 C1215 0.930 . S
H1228 C1216 0.956 . S
H1229 C1216 0.961 . S
H1230 C1216 0.961 . S
H1231 C1217 0.958 . S
H1232 C1217 0.961 . S
H1233 C1217 0.960 . S
C1234 C1235 1.391 . S
C1234 C1236 1.394 . S
C1234 H1250 0.931 . S
C1235 C1234 1.391 . S
C1235 C1239 1.376 . S
C1236 C1234 1.394 . S
C1236 C1237 1.369 . S
C1236 C1240 1.531 . S
C1237 C1236 1.369 . S
C1237 C1238 1.410 . S
C1237 C1245 1.503 . S
C1238 C1237 1.410 . S
C1238 C1239 1.392 . S
C1238 C1241 1.511 . S
C1239 C1235 1.376 . S
C1239 C1238 1.392 . S
C1239 H1251 0.929 . S
C1240 C1236 1.531 . S
C1240 H1252 0.960 . S
C1240 H1253 0.962 . S
C1240 H1254 0.960 . S
C1241 C1238 1.511 . S
C1241 H1255 0.961 . S
C1241 H1256 0.961 . S
C1241 H1257 0.961 . S
C1242 C1243 1.370 . S
C1242 C1244 1.363 . S
C1242 H1258 0.931 . S
C1243 C1242 1.370 . S
C1243 C1247 1.408 . S
C1244 C1242 1.363 . S
C1244 C1245 1.370 . S
C1244 C1248 1.524 . S
C1245 C1237 1.503 . S
C1245 C1244 1.370 . S
C1245 C1246 1.403 . S
C1246 C1245 1.403 . S
C1246 C1247 1.404 . S
C1246 C1249 1.539 . S
C1247 C1243 1.408 . S
C1247 C1246 1.404 . S
C1247 H1259 0.930 . S
C1248 C1244 1.524 . S
C1248 H1260 0.956 . S
C1248 H1261 0.961 . S
C1248 H1262 0.961 . S
C1249 C1246 1.539 . S
C1249 H1263 0.958 . S
C1249 H1264 0.961 . S
C1249 H1265 0.960 . S
H1250 C1234 0.931 . S
H1251 C1239 0.929 . S
H1252 C1240 0.960 . S
H1253 C1240 0.962 . S
H1254 C1240 0.960 . S
H1255 C1241 0.961 . S
H1256 C1241 0.961 . S
H1257 C1241 0.961 . S
H1258 C1242 0.931 . S
H1259 C1247 0.930 . S
H1260 C1248 0.956 . S
H1261 C1248 0.961 . S
H1262 C1248 0.961 . S
H1263 C1249 0.958 . S
H1264 C1249 0.961 . S
H1265 C1249 0.960 . S
C1266 C1267 1.391 . S
C1266 C1268 1.394 . S
C1266 H1282 0.931 . S
C1267 C1266 1.391 . S
C1267 C1271 1.376 . S
C1268 C1266 1.394 . S
C1268 C1269 1.369 . S
C1268 C1272 1.531 . S
C1269 C1268 1.369 . S
C1269 C1270 1.410 . S
C1269 C1277 1.503 . S
C1270 C1269 1.410 . S
C1270 C1271 1.392 . S
C1270 C1273 1.511 . S
C1271 C1267 1.376 . S
C1271 C1270 1.392 . S
C1271 H1283 0.929 . S
C1272 C1268 1.531 . S
C1272 H1284 0.960 . S
C1272 H1285 0.962 . S
C1272 H1286 0.960 . S
C1273 C1270 1.511 . S
C1273 H1287 0.961 . S
C1273 H1288 0.961 . S
C1273 H1289 0.961 . S
C1274 C1275 1.370 . S
C1274 C1276 1.363 . S
C1274 H1290 0.931 . S
C1275 C1274 1.370 . S
C1275 C1279 1.408 . S
C1276 C1274 1.363 . S
C1276 C1277 1.370 . S
C1276 C1280 1.524 . S
C1277 C1269 1.503 . S
C1277 C1276 1.370 . S
C1277 C1278 1.403 . S
C1278 C1277 1.403 . S
C1278 C1279 1.404 . S
C1278 C1281 1.539 . S
C1279 C1275 1.408 . S
C1279 C1278 1.404 . S
C1279 H1291 0.930 . S
C1280 C1276 1.524 . S
C1280 H1292 0.956 . S
C1280 H1293 0.961 . S
C1280 H1294 0.961 . S
C1281 C1278 1.539 . S
C1281 H1295 0.958 . S
C1281 H1296 0.961 . S
C1281 H1297 0.960 . S
H1282 C1266 0.931 . S
H1283 C1271 0.929 . S
H1284 C1272 0.960 . S
H1285 C1272 0.962 . S
H1286 C1272 0.960 . S
H1287 C1273 0.961 . S
H1288 C1273 0.961 . S
H1289 C1273 0.961 . S
H1290 C1274 0.931 . S
H1291 C1279 0.930 . S
H1292 C1280 0.956 . S
H1293 C1280 0.961 . S
H1294 C1280 0.961 . S
H1295 C1281 0.958 . S
H1296 C1281 0.961 . S
H1297 C1281 0.960 . S
C1298 C1299 1.391 . S
C1298 C1300 1.394 . S
C1298 H1314 0.931 . S
C1299 C1298 1.391 . S
C1299 C1303 1.376 . S
C1300 C1298 1.394 . S
C1300 C1301 1.369 . S
C1300 C1304 1.531 . S
C1301 C1300 1.369 . S
C1301 C1302 1.410 . S
C1301 C1309 1.503 . S
C1302 C1301 1.410 . S
C1302 C1303 1.392 . S
C1302 C1305 1.511 . S
C1303 C1299 1.376 . S
C1303 C1302 1.392 . S
C1303 H1315 0.929 . S
C1304 C1300 1.531 . S
C1304 H1316 0.960 . S
C1304 H1317 0.962 . S
C1304 H1318 0.960 . S
C1305 C1302 1.511 . S
C1305 H1319 0.961 . S
C1305 H1320 0.961 . S
C1305 H1321 0.961 . S
C1306 C1307 1.370 . S
C1306 C1308 1.363 . S
C1306 H1322 0.931 . S
C1307 C1306 1.370 . S
C1307 C1311 1.408 . S
C1308 C1306 1.363 . S
C1308 C1309 1.370 . S
C1308 C1312 1.524 . S
C1309 C1301 1.503 . S
C1309 C1308 1.370 . S
C1309 C1310 1.403 . S
C1310 C1309 1.403 . S
C1310 C1311 1.404 . S
C1310 C1313 1.539 . S
C1311 C1307 1.408 . S
C1311 C1310 1.404 . S
C1311 H1323 0.930 . S
C1312 C1308 1.524 . S
C1312 H1324 0.956 . S
C1312 H1325 0.961 . S
C1312 H1326 0.961 . S
C1313 C1310 1.539 . S
C1313 H1327 0.958 . S
C1313 H1328 0.961 . S
C1313 H1329 0.960 . S
H1314 C1298 0.931 . S
H1315 C1303 0.929 . S
H1316 C1304 0.960 . S
H1317 C1304 0.962 . S
H1318 C1304 0.960 . S
H1319 C1305 0.961 . S
H1320 C1305 0.961 . S
H1321 C1305 0.961 . S
H1322 C1306 0.931 . S
H1323 C1311 0.930 . S
H1324 C1312 0.956 . S
H1325 C1312 0.961 . S
H1326 C1312 0.961 . S
H1327 C1313 0.958 . S
H1328 C1313 0.961 . S
H1329 C1313 0.960 . S
C1330 C1331 1.391 . S
C1330 C1332 1.394 . S
C1330 H1346 0.931 . S
C1331 C1330 1.391 . S
C1331 C1335 1.376 . S
C1332 C1330 1.394 . S
C1332 C1333 1.369 . S
C1332 C1336 1.531 . S
C1333 C1332 1.369 . S
C1333 C1334 1.410 . S
C1333 C1341 1.503 . S
C1334 C1333 1.410 . S
C1334 C1335 1.392 . S
C1334 C1337 1.511 . S
C1335 C1331 1.376 . S
C1335 C1334 1.392 . S
C1335 H1347 0.929 . S
C1336 C1332 1.531 . S
C1336 H1348 0.960 . S
C1336 H1349 0.962 . S
C1336 H1350 0.960 . S
C1337 C1334 1.511 . S
C1337 H1351 0.961 . S
C1337 H1352 0.961 . S
C1337 H1353 0.961 . S
C1338 C1339 1.370 . S
C1338 C1340 1.363 . S
C1338 H1354 0.931 . S
C1339 C1338 1.370 . S
C1339 C1343 1.408 . S
C1340 C1338 1.363 . S
C1340 C1341 1.370 . S
C1340 C1344 1.524 . S
C1341 C1333 1.503 . S
C1341 C1340 1.370 . S
C1341 C1342 1.403 . S
C1342 C1341 1.403 . S
C1342 C1343 1.404 . S
C1342 C1345 1.539 . S
C1343 C1339 1.408 . S
C1343 C1342 1.404 . S
C1343 H1355 0.930 . S
C1344 C1340 1.524 . S
C1344 H1356 0.956 . S
C1344 H1357 0.961 . S
C1344 H1358 0.961 . S
C1345 C1342 1.539 . S
C1345 H1359 0.958 . S
C1345 H1360 0.961 . S
C1345 H1361 0.960 . S
H1346 C1330 0.931 . S
H1347 C1335 0.929 . S
H1348 C1336 0.960 . S
H1349 C1336 0.962 . S
H1350 C1336 0.960 . S
H1351 C1337 0.961 . S
H1352 C1337 0.961 . S
H1353 C1337 0.961 . S
H1354 C1338 0.931 . S
H1355 C1343 0.930 . S
H1356 C1344 0.956 . S
H1357 C1344 0.961 . S
H1358 C1344 0.961 . S
H1359 C1345 0.958 . S
H1360 C1345 0.961 . S
H1361 C1345 0.960 . S
C1362 C1363 1.391 . S
C1362 C1364 1.394 . S
C1362 H1378 0.931 . S
C1363 C1362 1.391 . S
C1363 C1367 1.376 . S
C1364 C1362 1.394 . S
C1364 C1365 1.369 . S
C1364 C1368 1.531 . S
C1365 C1364 1.369 . S
C1365 C1366 1.410 . S
C1365 C1373 1.503 1_655 S
C1366 C1365 1.410 . S
C1366 C1367 1.392 . S
C1366 C1369 1.511 . S
C1367 C1363 1.376 . S
C1367 C1366 1.392 . S
C1367 H1379 0.929 . S
C1368 C1364 1.531 . S
C1368 H1380 0.928 1_655 S
C1368 H1381 0.962 . S
C1368 H1382 0.960 . S
C1369 C1366 1.511 . S
C1369 H1383 0.961 . S
C1369 H1384 0.961 1_655 S
C1369 H1385 0.961 . S
C1370 C1371 1.370 . S
C1370 C1372 1.363 . S
C1370 H1386 0.931 . S
C1371 C1370 1.370 . S
C1371 C1375 1.408 . S
C1372 C1370 1.363 . S
C1372 C1373 1.370 . S
C1372 C1376 1.524 . S
C1373 C1365 1.503 1_455 S
C1373 C1372 1.370 . S
C1373 C1374 1.403 . S
C1374 C1373 1.403 . S
C1374 C1375 1.404 . S
C1374 C1377 1.539 . S
C1375 C1371 1.408 . S
C1375 C1374 1.404 . S
C1375 H1387 0.930 . S
C1376 C1372 1.524 . S
C1376 H1388 0.956 . S
C1376 H1389 0.961 . S
C1376 H1390 0.961 . S
C1377 C1374 1.539 . S
C1377 H1391 0.958 . S
C1377 H1392 0.961 . S
C1377 H1393 0.960 1_455 S
H1378 C1362 0.931 . S
H1379 C1367 0.929 . S
H1380 C1368 0.928 1_455 S
H1381 C1368 0.962 . S
H1382 C1368 0.960 . S
H1383 C1369 0.961 . S
H1384 C1369 0.961 1_455 S
H1385 C1369 0.961 . S
H1386 C1370 0.931 . S
H1387 C1375 0.930 . S
H1388 C1376 0.956 . S
H1389 C1376 0.961 . S
H1390 C1376 0.961 . S
H1391 C1377 0.958 . S
H1392 C1377 0.961 . S
H1393 C1377 0.960 1_655 S
C1394 C1395 1.391 . S
C1394 C1396 1.394 . S
C1394 H1410 0.931 . S
C1395 C1394 1.391 . S
C1395 C1399 1.376 . S
C1396 C1394 1.394 . S
C1396 C1397 1.369 . S
C1396 C1400 1.531 . S
C1397 C1396 1.369 . S
C1397 C1398 1.410 . S
C1397 C1405 1.503 . S
C1398 C1397 1.410 . S
C1398 C1399 1.392 . S
C1398 C1401 1.511 . S
C1399 C1395 1.376 . S
C1399 C1398 1.392 . S
C1399 H1411 0.929 . S
C1400 C1396 1.531 . S
C1400 H1412 0.960 . S
C1400 H1413 0.962 . S
C1400 H1414 0.960 . S
C1401 C1398 1.511 . S
C1401 H1415 0.961 . S
C1401 H1416 0.961 . S
C1401 H1417 0.961 . S
C1402 C1403 1.370 . S
C1402 C1404 1.363 . S
C1402 H1418 0.931 . S
C1403 C1402 1.370 . S
C1403 C1407 1.408 . S
C1404 C1402 1.363 . S
C1404 C1405 1.370 . S
C1404 C1408 1.524 . S
C1405 C1397 1.503 . S
C1405 C1404 1.370 . S
C1405 C1406 1.403 . S
C1406 C1405 1.403 . S
C1406 C1407 1.404 . S
C1406 C1409 1.539 . S
C1407 C1403 1.408 . S
C1407 C1406 1.404 . S
C1407 H1419 0.930 . S
C1408 C1404 1.524 . S
C1408 H1420 0.956 . S
C1408 H1421 0.961 . S
C1408 H1422 0.961 . S
C1409 C1406 1.539 . S
C1409 H1423 0.958 . S
C1409 H1424 0.961 . S
C1409 H1425 0.960 . S
H1410 C1394 0.931 . S
H1411 C1399 0.929 . S
H1412 C1400 0.960 . S
H1413 C1400 0.962 . S
H1414 C1400 0.960 . S
H1415 C1401 0.961 . S
H1416 C1401 0.961 . S
H1417 C1401 0.961 . S
H1418 C1402 0.931 . S
H1419 C1407 0.930 . S
H1420 C1408 0.956 . S
H1421 C1408 0.961 . S
H1422 C1408 0.961 . S
H1423 C1409 0.958 . S
H1424 C1409 0.961 . S
H1425 C1409 0.960 . S
C1426 C1427 1.391 . S
C1426 C1428 1.394 . S
C1426 H1442 0.931 . S
C1427 C1426 1.391 . S
C1427 C1431 1.376 . S
C1428 C1426 1.394 . S
C1428 C1429 1.369 . S
C1428 C1432 1.531 . S
C1429 C1428 1.369 . S
C1429 C1430 1.410 . S
C1429 C1437 1.503 1_565 S
C1430 C1429 1.410 . S
C1430 C1431 1.392 . S
C1430 C1433 1.511 . S
C1431 C1427 1.376 . S
C1431 C1430 1.392 . S
C1431 H1443 0.929 . S
C1432 C1428 1.531 . S
C1432 H1444 0.960 . S
C1432 H1445 0.962 . S
C1432 H1446 0.960 . S
C1433 C1430 1.511 . S
C1433 H1447 0.961 . S
C1433 H1448 0.961 1_565 S
C1433 H1449 0.961 . S
C1434 C1435 1.370 . S
C1434 C1436 1.363 . S
C1434 H1450 0.931 . S
C1435 C1434 1.370 . S
C1435 C1439 1.408 . S
C1436 C1434 1.363 . S
C1436 C1437 1.370 . S
C1436 C1440 1.524 . S
C1437 C1429 1.503 1_545 S
C1437 C1436 1.370 . S
C1437 C1438 1.403 . S
C1438 C1437 1.403 . S
C1438 C1439 1.404 . S
C1438 C1441 1.539 . S
C1439 C1435 1.408 . S
C1439 C1438 1.404 . S
C1439 H1451 0.930 . S
C1440 C1436 1.524 . S
C1440 H1452 0.956 . S
C1440 H1453 0.961 . S
C1440 H1454 0.961 . S
C1441 C1438 1.539 . S
C1441 H1455 0.958 . S
C1441 H1456 0.961 . S
C1441 H1457 0.960 1_545 S
H1442 C1426 0.931 . S
H1443 C1431 0.929 . S
H1444 C1432 0.960 . S
H1445 C1432 0.962 . S
H1446 C1432 0.960 . S
H1447 C1433 0.961 . S
H1448 C1433 0.961 1_545 S
H1449 C1433 0.961 . S
H1450 C1434 0.931 . S
H1451 C1439 0.930 . S
H1452 C1440 0.956 . S
H1453 C1440 0.961 . S
H1454 C1440 0.961 . S
H1455 C1441 0.958 . S
H1456 C1441 0.961 . S
H1457 C1441 0.960 1_565 S
C1458 C1459 1.391 . S
C1458 C1460 1.394 . S
C1458 H1474 0.931 . S
C1459 C1458 1.391 . S
C1459 C1463 1.376 . S
C1460 C1458 1.394 . S
C1460 C1461 1.369 . S
C1460 C1464 1.531 . S
C1461 C1460 1.369 . S
C1461 C1462 1.410 . S
C1461 C1469 1.494 1_565 S
C1462 C1461 1.410 . S
C1462 C1463 1.392 . S
C1462 C1465 1.511 . S
C1463 C1459 1.376 . S
C1463 C1462 1.392 . S
C1463 H1475 0.929 . S
C1464 C1460 1.531 . S
C1464 H1476 0.960 . S
C1464 H1477 0.959 1_565 S
C1464 H1478 0.960 . S
C1465 C1462 1.511 . S
C1465 H1479 0.961 1_565 S
C1465 H1480 0.961 1_565 S
C1465 H1481 0.961 . S
C1466 C1467 1.370 . S
C1466 C1468 1.363 . S
C1466 H1482 0.931 . S
C1467 C1466 1.370 . S
C1467 C1471 1.408 1_545 S
C1468 C1466 1.363 . S
C1468 C1469 1.397 . S
C1468 C1472 1.524 . S
C1469 C1461 1.494 1_545 S
C1469 C1468 1.397 . S
C1469 C1470 1.386 1_545 S
C1470 C1469 1.386 1_565 S
C1470 C1471 1.404 . S
C1470 C1473 1.539 . S
C1471 C1467 1.408 1_565 S
C1471 C1470 1.404 . S
C1471 H1483 0.930 . S
C1472 C1468 1.524 . S
C1472 H1484 0.956 . S
C1472 H1485 0.961 . S
C1472 H1486 0.961 . S
C1473 C1470 1.539 . S
C1473 H1487 0.958 . S
C1473 H1488 0.961 . S
C1473 H1489 0.960 . S
H1474 C1458 0.931 . S
H1475 C1463 0.929 . S
H1476 C1464 0.960 . S
H1477 C1464 0.959 1_545 S
H1478 C1464 0.960 . S
H1479 C1465 0.961 1_545 S
H1480 C1465 0.961 1_545 S
H1481 C1465 0.961 . S
H1482 C1466 0.931 . S
H1483 C1471 0.930 . S
H1484 C1472 0.956 . S
H1485 C1472 0.961 . S
H1486 C1472 0.961 . S
H1487 C1473 0.958 . S
H1488 C1473 0.961 . S
H1489 C1473 0.960 . S
C1490 C1491 1.391 . S
C1490 C1492 1.394 . S
C1490 H1506 0.931 . S
C1491 C1490 1.391 . S
C1491 C1495 1.376 . S
C1492 C1490 1.394 . S
C1492 C1493 1.369 . S
C1492 C1496 1.531 1_655 S
C1493 C1492 1.369 . S
C1493 C1494 1.410 . S
C1493 C1501 1.492 1_655 S
C1494 C1493 1.410 . S
C1494 C1495 1.392 . S
C1494 C1497 1.511 . S
C1495 C1491 1.376 . S
C1495 C1494 1.392 . S
C1495 H1507 0.929 . S
C1496 C1492 1.531 1_455 S
C1496 H1508 0.960 1_455 S
C1496 H1509 0.962 . S
C1496 H1510 0.960 1_455 S
C1497 C1494 1.511 . S
C1497 H1511 0.961 . S
C1497 H1512 0.961 . S
C1497 H1513 0.961 . S
C1498 C1499 1.370 . S
C1498 C1500 1.363 . S
C1498 H1514 0.931 . S
C1499 C1498 1.370 . S
C1499 C1503 1.408 1_455 S
C1500 C1498 1.363 . S
C1500 C1501 1.398 . S
C1500 C1504 1.524 . S
C1501 C1493 1.492 1_455 S
C1501 C1500 1.398 . S
C1501 C1502 1.387 1_455 S
C1502 C1501 1.387 1_655 S
C1502 C1503 1.404 . S
C1502 C1505 1.539 . S
C1503 C1499 1.408 1_655 S
C1503 C1502 1.404 . S
C1503 H1515 0.930 . S
C1504 C1500 1.524 . S
C1504 H1516 0.956 . S
C1504 H1517 0.961 . S
C1504 H1518 0.961 . S
C1505 C1502 1.539 . S
C1505 H1519 0.958 . S
C1505 H1520 0.961 . S
C1505 H1521 0.960 . S
H1506 C1490 0.931 . S
H1507 C1495 0.929 . S
H1508 C1496 0.960 1_655 S
H1509 C1496 0.962 . S
H1510 C1496 0.960 1_655 S
H1511 C1497 0.961 . S
H1512 C1497 0.961 . S
H1513 C1497 0.961 . S
H1514 C1498 0.931 . S
H1515 C1503 0.930 . S
H1516 C1504 0.956 . S
H1517 C1504 0.961 . S
H1518 C1504 0.961 . S
H1519 C1505 0.958 . S
H1520 C1505 0.961 . S
H1521 C1505 0.960 . S
C1522 C1523 1.391 . S
C1522 C1524 1.394 . S
C1522 H1538 0.931 . S
C1523 C1522 1.391 . S
C1523 C1527 1.376 . S
C1524 C1522 1.394 . S
C1524 C1525 1.369 . S
C1524 C1528 1.531 . S
C1525 C1524 1.369 . S
C1525 C1526 1.410 . S
C1525 C1533 1.503 . S
C1526 C1525 1.410 . S
C1526 C1527 1.392 . S
C1526 C1529 1.511 . S
C1527 C1523 1.376 . S
C1527 C1526 1.392 . S
C1527 H1539 0.929 . S
C1528 C1524 1.531 . S
C1528 H1540 0.960 . S
C1528 H1541 0.962 . S
C1528 H1542 0.960 . S
C1529 C1526 1.511 . S
C1529 H1543 0.961 . S
C1529 H1544 0.961 . S
C1529 H1545 0.961 . S
C1530 C1531 1.370 . S
C1530 C1532 1.363 . S
C1530 H1546 0.931 . S
C1531 C1530 1.370 . S
C1531 C1535 1.408 . S
C1532 C1530 1.363 . S
C1532 C1533 1.370 . S
C1532 C1536 1.524 . S
C1533 C1525 1.503 . S
C1533 C1532 1.370 . S
C1533 C1534 1.403 . S
C1534 C1533 1.403 . S
C1534 C1535 1.404 . S
C1534 C1537 1.539 . S
C1535 C1531 1.408 . S
C1535 C1534 1.404 . S
C1535 H1547 0.930 . S
C1536 C1532 1.524 . S
C1536 H1548 0.956 . S
C1536 H1549 0.961 . S
C1536 H1550 0.961 . S
C1537 C1534 1.539 . S
C1537 H1551 0.958 . S
C1537 H1552 0.961 . S
C1537 H1553 0.960 . S
H1538 C1522 0.931 . S
H1539 C1527 0.929 . S
H1540 C1528 0.960 . S
H1541 C1528 0.962 . S
H1542 C1528 0.960 . S
H1543 C1529 0.961 . S
H1544 C1529 0.961 . S
H1545 C1529 0.961 . S
H1546 C1530 0.931 . S
H1547 C1535 0.930 . S
H1548 C1536 0.956 . S
H1549 C1536 0.961 . S
H1550 C1536 0.961 . S
H1551 C1537 0.958 . S
H1552 C1537 0.961 . S
H1553 C1537 0.960 . S
C1554 C1555 1.391 . S
C1554 C1556 1.394 . S
C1554 H1570 0.931 . S
C1555 C1554 1.391 . S
C1555 C1559 1.376 . S
C1556 C1554 1.394 . S
C1556 C1557 1.369 . S
C1556 C1560 1.531 . S
C1557 C1556 1.369 . S
C1557 C1558 1.410 . S
C1557 C1565 1.503 . S
C1558 C1557 1.410 . S
C1558 C1559 1.392 . S
C1558 C1561 1.511 . S
C1559 C1555 1.376 . S
C1559 C1558 1.392 . S
C1559 H1571 0.929 . S
C1560 C1556 1.531 . S
C1560 H1572 0.960 . S
C1560 H1573 0.962 . S
C1560 H1574 0.960 . S
C1561 C1558 1.511 . S
C1561 H1575 0.961 . S
C1561 H1576 0.961 . S
C1561 H1577 0.961 . S
C1562 C1563 1.370 . S
C1562 C1564 1.363 . S
C1562 H1578 0.931 . S
C1563 C1562 1.370 . S
C1563 C1567 1.408 . S
C1564 C1562 1.363 . S
C1564 C1565 1.370 . S
C1564 C1568 1.524 . S
C1565 C1557 1.503 . S
C1565 C1564 1.370 . S
C1565 C1566 1.403 . S
C1566 C1565 1.403 . S
C1566 C1567 1.404 . S
C1566 C1569 1.539 . S
C1567 C1563 1.408 . S
C1567 C1566 1.404 . S
C1567 H1579 0.930 . S
C1568 C1564 1.524 . S
C1568 H1580 0.956 . S
C1568 H1581 0.961 . S
C1568 H1582 0.961 . S
C1569 C1566 1.539 . S
C1569 H1583 0.958 . S
C1569 H1584 0.961 . S
C1569 H1585 0.960 . S
H1570 C1554 0.931 . S
H1571 C1559 0.929 . S
H1572 C1560 0.960 . S
H1573 C1560 0.962 . S
H1574 C1560 0.960 . S
H1575 C1561 0.961 . S
H1576 C1561 0.961 . S
H1577 C1561 0.961 . S
H1578 C1562 0.931 . S
H1579 C1567 0.930 . S
H1580 C1568 0.956 . S
H1581 C1568 0.961 . S
H1582 C1568 0.961 . S
H1583 C1569 0.958 . S
H1584 C1569 0.961 . S
H1585 C1569 0.960 . S
C1586 C1587 1.391 . S
C1586 C1588 1.394 . S
C1586 H1602 0.931 . S
C1587 C1586 1.391 . S
C1587 C1591 1.376 . S
C1588 C1586 1.394 . S
C1588 C1589 1.369 . S
C1588 C1592 1.531 . S
C1589 C1588 1.369 . S
C1589 C1590 1.410 . S
C1589 C1597 1.503 . S
C1590 C1589 1.410 . S
C1590 C1591 1.392 . S
C1590 C1593 1.511 . S
C1591 C1587 1.376 . S
C1591 C1590 1.392 . S
C1591 H1603 0.929 . S
C1592 C1588 1.531 . S
C1592 H1604 0.960 . S
C1592 H1605 0.962 . S
C1592 H1606 0.960 . S
C1593 C1590 1.511 . S
C1593 H1607 0.961 . S
C1593 H1608 0.961 . S
C1593 H1609 0.961 . S
C1594 C1595 1.370 . S
C1594 C1596 1.363 . S
C1594 H1610 0.931 . S
C1595 C1594 1.370 . S
C1595 C1599 1.408 . S
C1596 C1594 1.363 . S
C1596 C1597 1.370 . S
C1596 C1600 1.524 . S
C1597 C1589 1.503 . S
C1597 C1596 1.370 . S
C1597 C1598 1.403 . S
C1598 C1597 1.403 . S
C1598 C1599 1.404 . S
C1598 C1601 1.539 . S
C1599 C1595 1.408 . S
C1599 C1598 1.404 . S
C1599 H1611 0.930 . S
C1600 C1596 1.524 . S
C1600 H1612 0.956 . S
C1600 H1613 0.961 . S
C1600 H1614 0.961 . S
C1601 C1598 1.539 . S
C1601 H1615 0.958 . S
C1601 H1616 0.961 . S
C1601 H1617 0.960 . S
H1602 C1586 0.931 . S
H1603 C1591 0.929 . S
H1604 C1592 0.960 . S
H1605 C1592 0.962 . S
H1606 C1592 0.960 . S
H1607 C1593 0.961 . S
H1608 C1593 0.961 . S
H1609 C1593 0.961 . S
H1610 C1594 0.931 . S
H1611 C1599 0.930 . S
H1612 C1600 0.956 . S
H1613 C1600 0.961 . S
H1614 C1600 0.961 . S
H1615 C1601 0.958 . S
H1616 C1601 0.961 . S
H1617 C1601 0.960 . S
C1618 C1619 1.391 . S
C1618 C1620 1.394 . S
C1618 H1634 0.931 . S
C1619 C1618 1.391 . S
C1619 C1623 1.376 . S
C1620 C1618 1.394 . S
C1620 C1621 1.369 . S
C1620 C1624 1.531 . S
C1621 C1620 1.369 . S
C1621 C1622 1.410 . S
C1621 C1629 1.503 . S
C1622 C1621 1.410 . S
C1622 C1623 1.392 . S
C1622 C1625 1.511 . S
C1623 C1619 1.376 . S
C1623 C1622 1.392 . S
C1623 H1635 0.929 . S
C1624 C1620 1.531 . S
C1624 H1636 0.960 . S
C1624 H1637 0.962 . S
C1624 H1638 0.960 . S
C1625 C1622 1.511 . S
C1625 H1639 0.961 . S
C1625 H1640 0.961 . S
C1625 H1641 0.961 . S
C1626 C1627 1.370 . S
C1626 C1628 1.363 . S
C1626 H1642 0.931 . S
C1627 C1626 1.370 . S
C1627 C1631 1.408 . S
C1628 C1626 1.363 . S
C1628 C1629 1.370 . S
C1628 C1632 1.524 . S
C1629 C1621 1.503 . S
C1629 C1628 1.370 . S
C1629 C1630 1.403 . S
C1630 C1629 1.403 . S
C1630 C1631 1.404 . S
C1630 C1633 1.539 . S
C1631 C1627 1.408 . S
C1631 C1630 1.404 . S
C1631 H1643 0.930 . S
C1632 C1628 1.524 . S
C1632 H1644 0.956 . S
C1632 H1645 0.961 . S
C1632 H1646 0.961 . S
C1633 C1630 1.539 . S
C1633 H1647 0.958 . S
C1633 H1648 0.961 . S
C1633 H1649 0.960 . S
H1634 C1618 0.931 . S
H1635 C1623 0.929 . S
H1636 C1624 0.960 . S
H1637 C1624 0.962 . S
H1638 C1624 0.960 . S
H1639 C1625 0.961 . S
H1640 C1625 0.961 . S
H1641 C1625 0.961 . S
H1642 C1626 0.931 . S
H1643 C1631 0.930 . S
H1644 C1632 0.956 . S
H1645 C1632 0.961 . S
H1646 C1632 0.961 . S
H1647 C1633 0.958 . S
H1648 C1633 0.961 . S
H1649 C1633 0.960 . S
C1650 C1651 1.391 . S
C1650 C1652 1.394 . S
C1650 H1666 0.931 . S
C1651 C1650 1.391 . S
C1651 C1655 1.376 . S
C1652 C1650 1.394 . S
C1652 C1653 1.369 . S
C1652 C1656 1.531 . S
C1653 C1652 1.369 . S
C1653 C1654 1.410 . S
C1653 C1661 1.503 . S
C1654 C1653 1.410 . S
C1654 C1655 1.392 . S
C1654 C1657 1.511 . S
C1655 C1651 1.376 . S
C1655 C1654 1.392 . S
C1655 H1667 0.929 . S
C1656 C1652 1.531 . S
C1656 H1668 0.960 . S
C1656 H1669 0.962 . S
C1656 H1670 0.960 . S
C1657 C1654 1.511 . S
C1657 H1671 0.961 . S
C1657 H1672 0.961 . S
C1657 H1673 0.961 . S
C1658 C1659 1.370 . S
C1658 C1660 1.363 . S
C1658 H1674 0.931 . S
C1659 C1658 1.370 . S
C1659 C1663 1.408 . S
C1660 C1658 1.363 . S
C1660 C1661 1.370 . S
C1660 C1664 1.524 . S
C1661 C1653 1.503 . S
C1661 C1660 1.370 . S
C1661 C1662 1.403 . S
C1662 C1661 1.403 . S
C1662 C1663 1.404 . S
C1662 C1665 1.539 . S
C1663 C1659 1.408 . S
C1663 C1662 1.404 . S
C1663 H1675 0.930 . S
C1664 C1660 1.524 . S
C1664 H1676 0.956 . S
C1664 H1677 0.961 . S
C1664 H1678 0.961 . S
C1665 C1662 1.539 . S
C1665 H1679 0.958 . S
C1665 H1680 0.961 . S
C1665 H1681 0.960 . S
H1666 C1650 0.931 . S
H1667 C1655 0.929 . S
H1668 C1656 0.960 . S
H1669 C1656 0.962 . S
H1670 C1656 0.960 . S
H1671 C1657 0.961 . S
H1672 C1657 0.961 . S
H1673 C1657 0.961 . S
H1674 C1658 0.931 . S
H1675 C1663 0.930 . S
H1676 C1664 0.956 . S
H1677 C1664 0.961 . S
H1678 C1664 0.961 . S
H1679 C1665 0.958 . S
H1680 C1665 0.961 . S
H1681 C1665 0.960 . S
C1682 C1683 1.391 . S
C1682 C1684 1.394 . S
C1682 H1698 0.931 . S
C1683 C1682 1.391 . S
C1683 C1687 1.376 . S
C1684 C1682 1.394 . S
C1684 C1685 1.369 . S
C1684 C1688 1.531 . S
C1685 C1684 1.369 . S
C1685 C1686 1.410 . S
C1685 C1693 1.503 . S
C1686 C1685 1.410 . S
C1686 C1687 1.392 . S
C1686 C1689 1.511 . S
C1687 C1683 1.376 . S
C1687 C1686 1.392 . S
C1687 H1699 0.929 . S
C1688 C1684 1.531 . S
C1688 H1700 0.960 . S
C1688 H1701 0.962 . S
C1688 H1702 0.960 . S
C1689 C1686 1.511 . S
C1689 H1703 0.961 . S
C1689 H1704 0.961 . S
C1689 H1705 0.961 . S
C1690 C1691 1.370 . S
C1690 C1692 1.363 . S
C1690 H1706 0.931 . S
C1691 C1690 1.370 . S
C1691 C1695 1.408 . S
C1692 C1690 1.363 . S
C1692 C1693 1.370 . S
C1692 C1696 1.524 . S
C1693 C1685 1.503 . S
C1693 C1692 1.370 . S
C1693 C1694 1.403 . S
C1694 C1693 1.403 . S
C1694 C1695 1.404 . S
C1694 C1697 1.539 . S
C1695 C1691 1.408 . S
C1695 C1694 1.404 . S
C1695 H1707 0.930 . S
C1696 C1692 1.524 . S
C1696 H1708 0.956 . S
C1696 H1709 0.961 . S
C1696 H1710 0.961 . S
C1697 C1694 1.539 . S
C1697 H1711 0.958 . S
C1697 H1712 0.961 . S
C1697 H1713 0.960 . S
H1698 C1682 0.931 . S
H1699 C1687 0.929 . S
H1700 C1688 0.960 . S
H1701 C1688 0.962 . S
H1702 C1688 0.960 . S
H1703 C1689 0.961 . S
H1704 C1689 0.961 . S
H1705 C1689 0.961 . S
H1706 C1690 0.931 . S
H1707 C1695 0.930 . S
H1708 C1696 0.956 . S
H1709 C1696 0.961 . S
H1710 C1696 0.961 . S
H1711 C1697 0.958 . S
H1712 C1697 0.961 . S
H1713 C1697 0.960 . S
C1714 C1715 1.391 . S
C1714 C1716 1.394 . S
C1714 H1730 0.931 . S
C1715 C1714 1.391 . S
C1715 C1719 1.376 . S
C1716 C1714 1.394 . S
C1716 C1717 1.369 . S
C1716 C1720 1.531 . S
C1717 C1716 1.369 . S
C1717 C1718 1.410 . S
C1717 C1725 1.503 . S
C1718 C1717 1.410 . S
C1718 C1719 1.392 . S
C1718 C1721 1.511 . S
C1719 C1715 1.376 . S
C1719 C1718 1.392 . S
C1719 H1731 0.929 . S
C1720 C1716 1.531 . S
C1720 H1732 0.960 . S
C1720 H1733 0.962 . S
C1720 H1734 0.960 . S
C1721 C1718 1.511 . S
C1721 H1735 0.961 . S
C1721 H1736 0.961 . S
C1721 H1737 0.961 . S
C1722 C1723 1.370 . S
C1722 C1724 1.363 . S
C1722 H1738 0.931 . S
C1723 C1722 1.370 . S
C1723 C1727 1.408 . S
C1724 C1722 1.363 . S
C1724 C1725 1.370 . S
C1724 C1728 1.524 . S
C1725 C1717 1.503 . S
C1725 C1724 1.370 . S
C1725 C1726 1.403 . S
C1726 C1725 1.403 . S
C1726 C1727 1.404 . S
C1726 C1729 1.539 . S
C1727 C1723 1.408 . S
C1727 C1726 1.404 . S
C1727 H1739 0.930 . S
C1728 C1724 1.524 . S
C1728 H1740 0.956 . S
C1728 H1741 0.961 . S
C1728 H1742 0.961 . S
C1729 C1726 1.539 . S
C1729 H1743 0.958 . S
C1729 H1744 0.961 . S
C1729 H1745 0.960 . S
H1730 C1714 0.931 . S
H1731 C1719 0.929 . S
H1732 C1720 0.960 . S
H1733 C1720 0.962 . S
H1734 C1720 0.960 . S
H1735 C1721 0.961 . S
H1736 C1721 0.961 . S
H1737 C1721 0.961 . S
H1738 C1722 0.931 . S
H1739 C1727 0.930 . S
H1740 C1728 0.956 . S
H1741 C1728 0.961 . S
H1742 C1728 0.961 . S
H1743 C1729 0.958 . S
H1744 C1729 0.961 . S
H1745 C1729 0.960 . S
C1746 C1747 1.391 . S
C1746 C1748 1.394 1_565 S
C1746 H1762 0.931 . S
C1747 C1746 1.391 . S
C1747 C1751 1.376 . S
C1748 C1746 1.394 1_545 S
C1748 C1749 1.369 . S
C1748 C1752 1.531 . S
C1749 C1748 1.369 . S
C1749 C1750 1.410 1_545 S
C1749 C1757 1.503 1_554 S
C1750 C1749 1.410 1_565 S
C1750 C1751 1.392 . S
C1750 C1753 1.511 . S
C1751 C1747 1.376 . S
C1751 C1750 1.392 . S
C1751 H1763 0.929 . S
C1752 C1748 1.531 . S
C1752 H1764 0.960 . S
C1752 H1765 0.962 . S
C1752 H1766 0.960 . S
C1753 C1750 1.511 . S
C1753 H1767 0.961 . S
C1753 H1768 0.961 1_554 S
C1753 H1769 0.961 1_565 S
C1754 C1755 1.370 1_565 S
C1754 C1756 1.363 . S
C1754 H1770 0.931 . S
C1755 C1754 1.370 1_545 S
C1755 C1759 1.408 . S
C1756 C1754 1.363 . S
C1756 C1757 1.370 1_565 S
C1756 C1760 1.524 . S
C1757 C1749 1.503 1_556 S
C1757 C1756 1.370 1_545 S
C1757 C1758 1.403 . S
C1758 C1757 1.403 . S
C1758 C1759 1.404 . S
C1758 C1761 1.544 . S
C1759 C1755 1.408 . S
C1759 C1758 1.404 . S
C1759 H1771 0.930 . S
C1760 C1756 1.524 . S
C1760 H1772 0.956 . S
C1760 H1773 0.961 . S
C1760 H1774 0.961 . S
C1761 C1758 1.544 . S
C1761 H1775 0.956 1_556 S
C1761 H1776 0.964 . S
C1761 H1777 0.954 1_556 S
H1762 C1746 0.931 . S
H1763 C1751 0.929 . S
H1764 C1752 0.960 . S
H1765 C1752 0.962 . S
H1766 C1752 0.960 . S
H1767 C1753 0.961 . S
H1768 C1753 0.961 1_556 S
H1769 C1753 0.961 1_545 S
H1770 C1754 0.931 . S
H1771 C1759 0.930 . S
H1772 C1760 0.956 . S
H1773 C1760 0.961 . S
H1774 C1760 0.961 . S
H1775 C1761 0.956 1_554 S
H1776 C1761 0.964 . S
H1777 C1761 0.954 1_554 S
C1778 C1779 1.391 . S
C1778 C1780 1.394 . S
C1778 H1794 0.931 . S
C1779 C1778 1.391 . S
C1779 C1783 1.376 . S
C1780 C1778 1.394 . S
C1780 C1781 1.369 . S
C1780 C1784 1.531 1_455 S
C1781 C1780 1.369 . S
C1781 C1782 1.410 . S
C1781 C1789 1.495 1_454 S
C1782 C1781 1.410 . S
C1782 C1783 1.392 . S
C1782 C1785 1.511 . S
C1783 C1779 1.376 . S
C1783 C1782 1.392 . S
C1783 H1795 0.929 . S
C1784 C1780 1.531 1_655 S
C1784 H1796 0.960 1_554 S
C1784 H1797 0.962 . S
C1784 H1798 0.960 . S
C1785 C1782 1.511 . S
C1785 H1799 0.961 . S
C1785 H1800 0.961 1_554 S
C1785 H1801 0.961 1_554 S
C1786 C1787 1.370 . S
C1786 C1788 1.363 . S
C1786 H1802 0.931 . S
C1787 C1786 1.370 . S
C1787 C1791 1.408 1_655 S
C1788 C1786 1.363 . S
C1788 C1789 1.389 . S
C1788 C1792 1.524 1_556 S
C1789 C1781 1.495 1_656 S
C1789 C1788 1.389 . S
C1789 C1790 1.394 1_655 S
C1790 C1789 1.394 1_455 S
C1790 C1791 1.404 . S
C1790 C1793 1.539 . S
C1791 C1787 1.408 1_455 S
C1791 C1790 1.404 . S
C1791 H1803 0.930 . S
C1792 C1788 1.524 1_554 S
C1792 H1804 0.956 . S
C1792 H1805 0.961 . S
C1792 H1806 0.961 1_554 S
C1793 C1790 1.539 . S
C1793 H1807 0.958 . S
C1793 H1808 0.961 . S
C1793 H1809 0.960 . S
H1794 C1778 0.931 . S
H1795 C1783 0.929 . S
H1796 C1784 0.960 1_556 S
H1797 C1784 0.962 . S
H1798 C1784 0.960 . S
H1799 C1785 0.961 . S
H1800 C1785 0.961 1_556 S
H1801 C1785 0.961 1_556 S
H1802 C1786 0.931 . S
H1803 C1791 0.930 . S
H1804 C1792 0.956 . S
H1805 C1792 0.961 . S
H1806 C1792 0.961 1_556 S
H1807 C1793 0.958 . S
H1808 C1793 0.961 . S
H1809 C1793 0.960 . S
C1810 C1811 1.391 . S
C1810 C1812 1.394 . S
C1810 H1826 0.931 . S
C1811 C1810 1.391 . S
C1811 C1815 1.376 . S
C1812 C1810 1.394 . S
C1812 C1813 1.369 . S
C1812 C1816 1.531 . S
C1813 C1812 1.369 . S
C1813 C1814 1.410 . S
C1813 C1821 1.503 1_556 S
C1814 C1813 1.410 . S
C1814 C1815 1.392 . S
C1814 C1817 1.511 . S
C1815 C1811 1.376 . S
C1815 C1814 1.392 . S
C1815 H1827 0.929 . S
C1816 C1812 1.531 . S
C1816 H1828 0.943 1_556 S
C1816 H1829 0.962 . S
C1816 H1830 0.960 . S
C1817 C1814 1.511 . S
C1817 H1831 0.961 . S
C1817 H1832 0.961 1_556 S
C1817 H1833 0.961 1_556 S
C1818 C1819 1.370 . S
C1818 C1820 1.363 . S
C1818 H1834 0.931 . S
C1819 C1818 1.370 . S
C1819 C1823 1.408 . S
C1820 C1818 1.363 . S
C1820 C1821 1.370 . S
C1820 C1824 1.524 1_554 S
C1821 C1813 1.503 1_554 S
C1821 C1820 1.370 . S
C1821 C1822 1.403 . S
C1822 C1821 1.403 . S
C1822 C1823 1.404 . S
C1822 C1825 1.539 . S
C1823 C1819 1.408 . S
C1823 C1822 1.404 . S
C1823 H1835 0.930 . S
C1824 C1820 1.524 1_556 S
C1824 H1836 0.956 . S
C1824 H1837 0.961 . S
C1824 H1838 0.961 1_556 S
C1825 C1822 1.539 . S
C1825 H1839 0.958 . S
C1825 H1840 0.961 . S
C1825 H1841 0.960 . S
H1826 C1810 0.931 . S
H1827 C1815 0.929 . S
H1828 C1816 0.943 1_554 S
H1829 C1816 0.962 . S
H1830 C1816 0.960 . S
H1831 C1817 0.961 . S
H1832 C1817 0.961 1_554 S
H1833 C1817 0.961 1_554 S
H1834 C1818 0.931 . S
H1835 C1823 0.930 . S
H1836 C1824 0.956 . S
H1837 C1824 0.961 . S
H1838 C1824 0.961 1_554 S
H1839 C1825 0.958 . S
H1840 C1825 0.961 . S
H1841 C1825 0.960 . S
C1842 C1843 1.391 . S
C1842 C1844 1.394 . S
C1842 H1858 0.931 . S
C1843 C1842 1.391 . S
C1843 C1847 1.376 . S
C1844 C1842 1.394 . S
C1844 C1845 1.369 . S
C1844 C1848 1.531 . S
C1845 C1844 1.369 . S
C1845 C1846 1.410 . S
C1845 C1853 1.503 . S
C1846 C1845 1.410 . S
C1846 C1847 1.392 . S
C1846 C1849 1.511 . S
C1847 C1843 1.376 . S
C1847 C1846 1.392 . S
C1847 H1859 0.929 . S
C1848 C1844 1.531 . S
C1848 H1860 0.960 . S
C1848 H1861 0.962 . S
C1848 H1862 0.960 . S
C1849 C1846 1.511 . S
C1849 H1863 0.961 . S
C1849 H1864 0.961 . S
C1849 H1865 0.961 . S
C1850 C1851 1.370 . S
C1850 C1852 1.363 . S
C1850 H1866 0.931 . S
C1851 C1850 1.370 . S
C1851 C1855 1.408 . S
C1852 C1850 1.363 . S
C1852 C1853 1.370 . S
C1852 C1856 1.524 . S
C1853 C1845 1.503 . S
C1853 C1852 1.370 . S
C1853 C1854 1.403 . S
C1854 C1853 1.403 . S
C1854 C1855 1.404 . S
C1854 C1857 1.539 . S
C1855 C1851 1.408 . S
C1855 C1854 1.404 . S
C1855 H1867 0.930 . S
C1856 C1852 1.524 . S
C1856 H1868 0.956 . S
C1856 H1869 0.961 . S
C1856 H1870 0.961 . S
C1857 C1854 1.539 . S
C1857 H1871 0.958 . S
C1857 H1872 0.961 . S
C1857 H1873 0.960 . S
H1858 C1842 0.931 . S
H1859 C1847 0.929 . S
H1860 C1848 0.960 . S
H1861 C1848 0.962 . S
H1862 C1848 0.960 . S
H1863 C1849 0.961 . S
H1864 C1849 0.961 . S
H1865 C1849 0.961 . S
H1866 C1850 0.931 . S
H1867 C1855 0.930 . S
H1868 C1856 0.956 . S
H1869 C1856 0.961 . S
H1870 C1856 0.961 . S
H1871 C1857 0.958 . S
H1872 C1857 0.961 . S
H1873 C1857 0.960 . S
C1874 C1875 1.391 . S
C1874 C1876 1.394 . S
C1874 H1890 0.931 . S
C1875 C1874 1.391 . S
C1875 C1879 1.376 . S
C1876 C1874 1.394 . S
C1876 C1877 1.369 . S
C1876 C1880 1.531 . S
C1877 C1876 1.369 . S
C1877 C1878 1.410 . S
C1877 C1885 1.503 . S
C1878 C1877 1.410 . S
C1878 C1879 1.392 . S
C1878 C1881 1.511 . S
C1879 C1875 1.376 . S
C1879 C1878 1.392 . S
C1879 H1891 0.929 . S
C1880 C1876 1.531 . S
C1880 H1892 0.960 . S
C1880 H1893 0.962 . S
C1880 H1894 0.960 . S
C1881 C1878 1.511 . S
C1881 H1895 0.961 . S
C1881 H1896 0.961 . S
C1881 H1897 0.961 . S
C1882 C1883 1.370 . S
C1882 C1884 1.363 . S
C1882 H1898 0.931 . S
C1883 C1882 1.370 . S
C1883 C1887 1.408 . S
C1884 C1882 1.363 . S
C1884 C1885 1.370 . S
C1884 C1888 1.524 . S
C1885 C1877 1.503 . S
C1885 C1884 1.370 . S
C1885 C1886 1.403 . S
C1886 C1885 1.403 . S
C1886 C1887 1.404 . S
C1886 C1889 1.539 . S
C1887 C1883 1.408 . S
C1887 C1886 1.404 . S
C1887 H1899 0.930 . S
C1888 C1884 1.524 . S
C1888 H1900 0.956 . S
C1888 H1901 0.961 . S
C1888 H1902 0.961 . S
C1889 C1886 1.539 . S
C1889 H1903 0.958 . S
C1889 H1904 0.961 . S
C1889 H1905 0.960 . S
H1890 C1874 0.931 . S
H1891 C1879 0.929 . S
H1892 C1880 0.960 . S
H1893 C1880 0.962 . S
H1894 C1880 0.960 . S
H1895 C1881 0.961 . S
H1896 C1881 0.961 . S
H1897 C1881 0.961 . S
H1898 C1882 0.931 . S
H1899 C1887 0.930 . S
H1900 C1888 0.956 . S
H1901 C1888 0.961 . S
H1902 C1888 0.961 . S
H1903 C1889 0.958 . S
H1904 C1889 0.961 . S
H1905 C1889 0.960 . S
C1906 C1907 1.391 . S
C1906 C1908 1.394 . S
C1906 H1922 0.931 . S
C1907 C1906 1.391 . S
C1907 C1911 1.376 . S
C1908 C1906 1.394 . S
C1908 C1909 1.369 . S
C1908 C1912 1.531 . S
C1909 C1908 1.369 . S
C1909 C1910 1.410 . S
C1909 C1917 1.503 . S
C1910 C1909 1.410 . S
C1910 C1911 1.392 . S
C1910 C1913 1.511 . S
C1911 C1907 1.376 . S
C1911 C1910 1.392 . S
C1911 H1923 0.929 . S
C1912 C1908 1.531 . S
C1912 H1924 0.960 . S
C1912 H1925 0.962 . S
C1912 H1926 0.960 . S
C1913 C1910 1.511 . S
C1913 H1927 0.961 . S
C1913 H1928 0.961 . S
C1913 H1929 0.961 . S
C1914 C1915 1.370 . S
C1914 C1916 1.363 . S
C1914 H1930 0.931 . S
C1915 C1914 1.370 . S
C1915 C1919 1.408 . S
C1916 C1914 1.363 . S
C1916 C1917 1.370 . S
C1916 C1920 1.524 . S
C1917 C1909 1.503 . S
C1917 C1916 1.370 . S
C1917 C1918 1.403 . S
C1918 C1917 1.403 . S
C1918 C1919 1.404 . S
C1918 C1921 1.539 . S
C1919 C1915 1.408 . S
C1919 C1918 1.404 . S
C1919 H1931 0.930 . S
C1920 C1916 1.524 . S
C1920 H1932 0.956 . S
C1920 H1933 0.961 . S
C1920 H1934 0.961 . S
C1921 C1918 1.539 . S
C1921 H1935 0.958 . S
C1921 H1936 0.961 . S
C1921 H1937 0.960 . S
H1922 C1906 0.931 . S
H1923 C1911 0.929 . S
H1924 C1912 0.960 . S
H1925 C1912 0.962 . S
H1926 C1912 0.960 . S
H1927 C1913 0.961 . S
H1928 C1913 0.961 . S
H1929 C1913 0.961 . S
H1930 C1914 0.931 . S
H1931 C1919 0.930 . S
H1932 C1920 0.956 . S
H1933 C1920 0.961 . S
H1934 C1920 0.961 . S
H1935 C1921 0.958 . S
H1936 C1921 0.961 . S
H1937 C1921 0.960 . S
C1938 C1939 1.391 . S
C1938 C1940 1.394 . S
C1938 H1954 0.931 . S
C1939 C1938 1.391 . S
C1939 C1943 1.376 . S
C1940 C1938 1.394 . S
C1940 C1941 1.369 . S
C1940 C1944 1.531 . S
C1941 C1940 1.369 . S
C1941 C1942 1.410 . S
C1941 C1949 1.503 . S
C1942 C1941 1.410 . S
C1942 C1943 1.392 . S
C1942 C1945 1.511 . S
C1943 C1939 1.376 . S
C1943 C1942 1.392 . S
C1943 H1955 0.929 . S
C1944 C1940 1.531 . S
C1944 H1956 0.960 . S
C1944 H1957 0.962 . S
C1944 H1958 0.960 . S
C1945 C1942 1.511 . S
C1945 H1959 0.961 . S
C1945 H1960 0.961 . S
C1945 H1961 0.961 . S
C1946 C1947 1.370 . S
C1946 C1948 1.363 . S
C1946 H1962 0.931 . S
C1947 C1946 1.370 . S
C1947 C1951 1.408 . S
C1948 C1946 1.363 . S
C1948 C1949 1.370 . S
C1948 C1952 1.524 . S
C1949 C1941 1.503 . S
C1949 C1948 1.370 . S
C1949 C1950 1.403 . S
C1950 C1949 1.403 . S
C1950 C1951 1.404 . S
C1950 C1953 1.539 . S
C1951 C1947 1.408 . S
C1951 C1950 1.404 . S
C1951 H1963 0.930 . S
C1952 C1948 1.524 . S
C1952 H1964 0.956 . S
C1952 H1965 0.961 . S
C1952 H1966 0.961 . S
C1953 C1950 1.539 . S
C1953 H1967 0.958 . S
C1953 H1968 0.961 . S
C1953 H1969 0.960 . S
H1954 C1938 0.931 . S
H1955 C1943 0.929 . S
H1956 C1944 0.960 . S
H1957 C1944 0.962 . S
H1958 C1944 0.960 . S
H1959 C1945 0.961 . S
H1960 C1945 0.961 . S
H1961 C1945 0.961 . S
H1962 C1946 0.931 . S
H1963 C1951 0.930 . S
H1964 C1952 0.956 . S
H1965 C1952 0.961 . S
H1966 C1952 0.961 . S
H1967 C1953 0.958 . S
H1968 C1953 0.961 . S
H1969 C1953 0.960 . S
C1970 C1971 1.391 . S
C1970 C1972 1.394 . S
C1970 H1986 0.931 . S
C1971 C1970 1.391 . S
C1971 C1975 1.376 . S
C1972 C1970 1.394 . S
C1972 C1973 1.369 . S
C1972 C1976 1.531 . S
C1973 C1972 1.369 . S
C1973 C1974 1.410 . S
C1973 C1981 1.503 . S
C1974 C1973 1.410 . S
C1974 C1975 1.392 . S
C1974 C1977 1.511 . S
C1975 C1971 1.376 . S
C1975 C1974 1.392 . S
C1975 H1987 0.929 . S
C1976 C1972 1.531 . S
C1976 H1988 0.960 . S
C1976 H1989 0.962 . S
C1976 H1990 0.960 . S
C1977 C1974 1.511 . S
C1977 H1991 0.961 . S
C1977 H1992 0.961 . S
C1977 H1993 0.961 . S
C1978 C1979 1.370 . S
C1978 C1980 1.363 . S
C1978 H1994 0.931 . S
C1979 C1978 1.370 . S
C1979 C1983 1.408 . S
C1980 C1978 1.363 . S
C1980 C1981 1.370 . S
C1980 C1984 1.524 . S
C1981 C1973 1.503 . S
C1981 C1980 1.370 . S
C1981 C1982 1.403 . S
C1982 C1981 1.403 . S
C1982 C1983 1.404 . S
C1982 C1985 1.539 . S
C1983 C1979 1.408 . S
C1983 C1982 1.404 . S
C1983 H1995 0.930 . S
C1984 C1980 1.524 . S
C1984 H1996 0.956 . S
C1984 H1997 0.961 . S
C1984 H1998 0.961 . S
C1985 C1982 1.539 . S
C1985 H1999 0.958 . S
C1985 H2000 0.961 . S
C1985 H2001 0.960 . S
H1986 C1970 0.931 . S
H1987 C1975 0.929 . S
H1988 C1976 0.960 . S
H1989 C1976 0.962 . S
H1990 C1976 0.960 . S
H1991 C1977 0.961 . S
H1992 C1977 0.961 . S
H1993 C1977 0.961 . S
H1994 C1978 0.931 . S
H1995 C1983 0.930 . S
H1996 C1984 0.956 . S
H1997 C1984 0.961 . S
H1998 C1984 0.961 . S
H1999 C1985 0.958 . S
H2000 C1985 0.961 . S
H2001 C1985 0.960 . S
C2002 C2003 1.391 . S
C2002 C2004 1.394 . S
C2002 H2018 0.931 . S
C2003 C2002 1.391 . S
C2003 C2007 1.376 . S
C2004 C2002 1.394 . S
C2004 C2005 1.369 . S
C2004 C2008 1.531 . S
C2005 C2004 1.369 . S
C2005 C2006 1.410 . S
C2005 C2013 1.503 . S
C2006 C2005 1.410 . S
C2006 C2007 1.392 . S
C2006 C2009 1.511 . S
C2007 C2003 1.376 . S
C2007 C2006 1.392 . S
C2007 H2019 0.929 . S
C2008 C2004 1.531 . S
C2008 H2020 0.960 . S
C2008 H2021 0.962 . S
C2008 H2022 0.960 . S
C2009 C2006 1.511 . S
C2009 H2023 0.961 . S
C2009 H2024 0.961 . S
C2009 H2025 0.961 . S
C2010 C2011 1.370 . S
C2010 C2012 1.363 . S
C2010 H2026 0.931 . S
C2011 C2010 1.370 . S
C2011 C2015 1.408 . S
C2012 C2010 1.363 . S
C2012 C2013 1.370 . S
C2012 C2016 1.524 . S
C2013 C2005 1.503 . S
C2013 C2012 1.370 . S
C2013 C2014 1.403 . S
C2014 C2013 1.403 . S
C2014 C2015 1.404 . S
C2014 C2017 1.539 . S
C2015 C2011 1.408 . S
C2015 C2014 1.404 . S
C2015 H2027 0.930 . S
C2016 C2012 1.524 . S
C2016 H2028 0.956 . S
C2016 H2029 0.961 . S
C2016 H2030 0.961 . S
C2017 C2014 1.539 . S
C2017 H2031 0.958 . S
C2017 H2032 0.961 . S
C2017 H2033 0.960 . S
H2018 C2002 0.931 . S
H2019 C2007 0.929 . S
H2020 C2008 0.960 . S
H2021 C2008 0.962 . S
H2022 C2008 0.960 . S
H2023 C2009 0.961 . S
H2024 C2009 0.961 . S
H2025 C2009 0.961 . S
H2026 C2010 0.931 . S
H2027 C2015 0.930 . S
H2028 C2016 0.956 . S
H2029 C2016 0.961 . S
H2030 C2016 0.961 . S
H2031 C2017 0.958 . S
H2032 C2017 0.961 . S
H2033 C2017 0.960 . S
C595 C8 1.185 . S
C603 N47 1.201 . S
C627 N80 1.165 . S
C635 C41 1.206 . S
C659 C74 1.183 . S
C667 N14 1.202 . S
C691 N179 1.172 . S
C699 C107 1.207 . S
C723 N113 1.176 . S
C731 C140 1.205 . S
C755 C173 1.188 . S
C763 N146 1.194 . S
C787 N245 1.185 . S
C795 C206 1.203 . S
C819 C239 1.190 . S
C827 N278 1.193 . S
C851 C272 1.215 . S
C859 N212 1.184 . S
C883 N377 1.167 . S
C891 C305 1.207 . S
C915 N311 1.208 . S
C923 C338 1.192 . S
C947 C371 1.208 . S
C955 N344 1.184 . S
C979 N443 1.166 . S
C987 C404 1.206 . S
C1011 C437 1.203 . S
C1019 N476 1.186 . S
C1043 C470 1.194 . S
C1051 N410 1.197 . S
C1075 N575 1.211 . S
C1083 C503 1.192 . S
C1107 N509 1.185 . S
C1115 C536 1.199 . S
C1139 C569 1.211 . S
C1147 N542 1.183 . S
C1171 N335 1.367 . S
C1179 N5 1.371 . S
C1203 N368 1.353 . S
C1211 N38 1.366 . S
C1235 N302 1.368 . S
C1243 N71 1.363 . S
C1267 N104 1.350 . S
C1275 N467 1.364 . S
C1299 N401 1.377 . S
C1307 N137 1.373 . S
C1331 N434 1.378 . S
C1339 N170 1.369 . S
C1363 N203 1.359 . S
C1371 N533 1.368 . S
C1395 N566 1.373 . S
C1403 N236 1.366 . S
C1427 N500 1.344 . S
C1435 N269 1.360 . S
C1459 C17 1.717 . S
C1467 C182 1.675 . S
C1491 C116 1.711 . S
C1499 C50 1.673 . S
C1523 C149 1.668 . S
C1531 C83 1.679 . S
C1555 C380 1.710 . S
C1563 C215 1.688 . S
C1587 C314 1.649 . S
C1595 C248 1.699 . S
C1619 C281 1.691 . S
C1627 C347 1.673 . S
C1651 C578 1.717 . S
C1659 C413 1.676 . S
C1683 C446 1.694 . S
C1691 C512 1.696 . S
C1715 C545 1.702 . S
C1723 C479 1.693 . S
C1747 C28 1.098 . S
C1755 C193 1.155 . S
C1779 C61 1.185 . S
C1787 C127 1.116 . S
C1811 C160 1.185 . S
C1819 C94 1.116 . S
C1843 C391 1.104 . S
C1851 C226 1.155 . S
C1875 C325 1.153 . S
C1883 C259 1.106 . S
C1907 C358 1.076 . S
C1915 C292 1.149 . S
C1939 C424 1.070 . S
C1947 C589 1.135 . S
C1971 C457 1.069 . S
C1979 C523 1.138 . S
C2003 C556 1.186 . S
C2011 C490 1.118 . S
