# Generated by pormake.
# Topology snk, (6)-cn, num edge types: 1
# Building blocks:
#     Node 0, Type 0, BuildingBlock: JUFBIX_clean_sbu_0, # of connection points: 6
#     Node 1, Type 0, BuildingBlock: JUFBIX_clean_sbu_0, # of connection points: 6
#     Node 2, Type 0, BuildingBlock: JUFBIX_clean_sbu_0, # of connection points: 6
#     Node 3, Type 0, BuildingBlock: JUFBIX_clean_sbu_0, # of connection points: 6
#     Node 4, Type 0, BuildingBlock: JUFBIX_clean_sbu_0, # of connection points: 6
#     Node 5, Type 0, BuildingBlock: JUFBIX_clean_sbu_0, # of connection points: 6
#     Node 6, Type 0, BuildingBlock: JUFBIX_clean_sbu_0, # of connection points: 6
#     Node 7, Type 0, BuildingBlock: JUFBIX_clean_sbu_0, # of connection points: 6
#     Edge 8, Type (0, 0), BuildingBlock: XUDNAN_clean_linker_2, # of connection points: 2
#     Edge 9, Type (0, 0), BuildingBlock: XUDNAN_clean_linker_2, # of connection points: 2
#     Edge 10, Type (0, 0), BuildingBlock: XUDNAN_clean_linker_2, # of connection points: 2
#     Edge 11, Type (0, 0), BuildingBlock: XUDNAN_clean_linker_2, # of connection points: 2
#     Edge 12, Type (0, 0), BuildingBlock: XUDNAN_clean_linker_2, # of connection points: 2
#     Edge 13, Type (0, 0), BuildingBlock: XUDNAN_clean_linker_2, # of connection points: 2
#     Edge 14, Type (0, 0), BuildingBlock: XUDNAN_clean_linker_2, # of connection points: 2
#     Edge 15, Type (0, 0), BuildingBlock: XUDNAN_clean_linker_2, # of connection points: 2
#     Edge 16, Type (0, 0), BuildingBlock: XUDNAN_clean_linker_2, # of connection points: 2
#     Edge 17, Type (0, 0), BuildingBlock: XUDNAN_clean_linker_2, # of connection points: 2
#     Edge 18, Type (0, 0), BuildingBlock: XUDNAN_clean_linker_2, # of connection points: 2
#     Edge 19, Type (0, 0), BuildingBlock: XUDNAN_clean_linker_2, # of connection points: 2
#     Edge 20, Type (0, 0), BuildingBlock: XUDNAN_clean_linker_2, # of connection points: 2
#     Edge 21, Type (0, 0), BuildingBlock: XUDNAN_clean_linker_2, # of connection points: 2
#     Edge 22, Type (0, 0), BuildingBlock: XUDNAN_clean_linker_2, # of connection points: 2
#     Edge 23, Type (0, 0), BuildingBlock: XUDNAN_clean_linker_2, # of connection points: 2
#     Edge 24, Type (0, 0), BuildingBlock: XUDNAN_clean_linker_2, # of connection points: 2
#     Edge 25, Type (0, 0), BuildingBlock: XUDNAN_clean_linker_2, # of connection points: 2
#     Edge 26, Type (0, 0), BuildingBlock: XUDNAN_clean_linker_2, # of connection points: 2
#     Edge 27, Type (0, 0), BuildingBlock: XUDNAN_clean_linker_2, # of connection points: 2
#     Edge 28, Type (0, 0), BuildingBlock: XUDNAN_clean_linker_2, # of connection points: 2
#     Edge 29, Type (0, 0), BuildingBlock: XUDNAN_clean_linker_2, # of connection points: 2
#     Edge 30, Type (0, 0), BuildingBlock: XUDNAN_clean_linker_2, # of connection points: 2
#     Edge 31, Type (0, 0), BuildingBlock: XUDNAN_clean_linker_2, # of connection points: 2
# Relax obj value: 0.128
# Max RMSD: 0.108
# Mean RMSD: 0.069
data_MOF--net-snk--node1-JUFBIX_clean_sbu_0--edge1-XUDNAN_clean_linker_2
_symmetry_space_group_name_H-M    P1
_symmetry_Int_Tables_number       1
_symmetry_cell_setting            triclinic
loop_
_symmetry_equiv_pos_as_xyz
'x, y, z'
_cell_length_a     46.896675
_cell_length_b     47.464101
_cell_length_c     14.971865
_cell_angle_alpha  98.659066
_cell_angle_beta   98.739551
_cell_angle_gamma 92.692081
loop_
_atom_site_label
_atom_site_type_symbol
_atom_site_fract_x
_atom_site_fract_y
_atom_site_fract_z
_atom_type_partial_charge
Co0 Co 1.0177 1.00786 0.46151 0.0
C1 C 0.99057 0.05617 0.47059 0.0
Co2 Co 0.05086 0.04308 0.50148 0.0
C3 C 1.0044 0.95394 0.49447 0.0
C4 C 0.9727 0.96165 0.38405 0.0
N5 N 0.9961 0.97386 0.44311 0.0
N6 N 0.98743 0.92969 0.47158 0.0
C7 C 0.96717 0.9343 0.40187 0.0
H8 H 1.02294 0.9573 0.54828 0.0
H9 H 0.96051 0.97191 0.33228 0.0
C10 C 0.07801 0.99478 0.4922 0.0
N11 N 0.07266 0.07693 0.52117 0.0
C12 C 0.06479 0.09805 0.47431 0.0
C13 C 0.09638 0.0878 0.58107 0.0
N14 N 0.08242 0.12183 0.50107 0.0
C15 C 0.1026 0.11552 0.56839 0.0
C16 C 1.03432 1.02877 0.65347 0.0
O17 O 0.05152 0.98632 0.46902 0.0
O18 O 0.08471 1.02149 0.51175 0.0
O19 O 0.05131 0.04558 0.62527 0.0
O20 O 1.01782 1.01046 0.59486 0.0
O21 O 1.01708 0.06464 0.49365 0.0
H22 H 0.10832 0.07635 0.63001 0.0
H23 H 0.04621 0.09579 0.42079 0.0
O24 O 0.98384 0.02944 0.45129 0.0
O25 O 1.01736 1.00577 0.33182 0.0
O26 O 0.05067 0.04102 0.37435 0.0
C27 C 1.03463 1.0242 0.31065 0.0
H28 H 0.94913 0.91949 0.3683 0.0
H29 H 0.12116 0.12939 0.60358 0.0
Co30 Co 0.30092 0.76243 0.74448 0.0
C31 C 0.24 0.73457 0.69821 0.0
Co32 Co 0.26594 0.79251 0.73993 0.0
C33 C 0.35095 0.72968 0.805 0.0
C34 C 0.32556 0.71099 0.67694 0.0
N35 N 0.32782 0.73401 0.7431 0.0
N36 N 0.36286 0.70469 0.78003 0.0
C37 C 0.34683 0.6931 0.69922 0.0
H38 H 0.3583 0.74408 0.86847 0.0
H39 H 0.30902 0.70713 0.61681 0.0
C40 C 0.32636 0.82048 0.78538 0.0
N41 N 0.23969 0.82169 0.74267 0.0
C42 C 0.22134 0.83077 0.67515 0.0
C43 C 0.23962 0.84188 0.81647 0.0
N44 N 0.2101 0.85579 0.70438 0.0
C45 C 0.22152 0.86247 0.79368 0.0
C46 C 0.28261 0.77731 0.91193 0.0
O47 O 0.33352 0.79447 0.7766 0.0
O48 O 0.29895 0.8236 0.77295 0.0
O49 O 0.26575 0.79132 0.86379 0.0
O50 O 0.30055 0.76219 0.87398 0.0
O51 O 0.23315 0.76071 0.70636 0.0
H52 H 0.2531 0.84257 0.88212 0.0
H53 H 0.2175 0.82003 0.60491 0.0
O54 O 0.26744 0.73115 0.71211 0.0
O55 O 0.30085 0.76343 0.61415 0.0
O56 O 0.26657 0.79327 0.61737 0.0
C57 C 0.28361 0.77913 0.57309 0.0
H58 H 0.35022 0.67301 0.65869 0.0
H59 H 0.21759 0.88126 0.83956 0.0
Co60 Co 0.54834 1.00937 0.97985 0.0
C61 C 0.57743 0.06846 0.02387 0.0
Co62 Co 0.51796 0.04382 0.98419 0.0
C63 C 0.59564 0.97525 0.92398 0.0
C64 C 0.57479 0.9589 0.02491 0.0
N65 N 0.57508 0.98095 0.97772 0.0
N66 N 0.60787 0.95038 0.93532 0.0
C67 C 0.59477 0.94025 -0.00069 0.0
H68 H 0.60066 0.98845 0.87465 0.0
H69 H 0.56023 0.95602 0.07287 0.0
C70 C 0.48883 0.98491 0.94064 0.0
N71 N 0.48971 0.07082 0.98374 0.0
C72 C 0.48355 0.09112 0.05088 0.0
C73 C 0.46781 0.07064 0.91383 0.0
N74 N 0.45852 0.10321 0.02555 0.0
C75 C 0.44881 0.09038 0.939 0.0
C76 C 0.53311 1.02779 0.8124 0.0
O77 O 0.51517 0.97805 0.94965 0.0
O78 O 0.48554 1.01195 0.95227 0.0
O79 O 0.51864 0.04424 0.86005 0.0
O80 O 0.54787 1.00966 0.85008 0.0
O81 O 0.55099 0.07528 0.01645 0.0
H82 H 0.46515 0.05625 0.8494 0.0
H83 H 0.49644 0.096 0.11836 0.0
O84 O 0.58094 0.04133 0.01021 0.0
O85 O 0.54846 1.00996 0.11099 0.0
O86 O 0.51782 0.04342 0.10753 0.0
C87 C 0.5331 1.02741 0.15262 0.0
H88 H 0.59911 0.92057 0.02548 0.0
H89 H 0.42912 0.09467 0.89689 0.0
Co90 Co 0.30399 0.29376 0.29896 0.0
C91 C 0.24923 0.31217 0.28944 0.0
Co92 Co 0.27213 0.25764 0.25996 0.0
C93 C 0.35642 0.32534 0.29962 0.0
C94 C 0.33407 0.34393 0.40593 0.0
N95 N 0.33236 0.32208 0.33605 0.0
N96 N 0.37302 0.34875 0.34264 0.0
C97 C 0.35914 0.36051 0.40998 0.0
H98 H 0.36118 0.31121 0.24078 0.0
H99 H 0.31776 0.34795 0.44929 0.0
C100 C 0.32683 0.23945 0.2672 0.0
N101 N 0.24272 0.22974 0.22593 0.0
C102 C 0.21878 0.23116 0.26452 0.0
C103 C 0.23643 0.20858 0.15348 0.0
N104 N 0.19733 0.21243 0.21875 0.0
C105 C 0.20826 0.1978 0.14882 0.0
C106 C 0.28766 0.27819 0.11006 0.0
O107 O 0.3328 0.26613 0.29313 0.0
O108 O 0.3004 0.23005 0.2489 0.0
O109 O 0.27133 0.26085 0.13876 0.0
O110 O 0.30445 0.29634 0.16863 0.0
O111 O 0.24363 0.28541 0.2688 0.0
H112 H 0.2508 0.20238 0.10505 0.0
H113 H 0.21663 0.24707 0.32244 0.0
O114 O 0.27553 0.32166 0.30526 0.0
O115 O 0.30371 0.29093 0.4259 0.0
O116 O 0.27283 0.25378 0.384 0.0
C117 C 0.28822 0.2712 0.44745 0.0
H118 H 0.36561 0.38062 0.45481 0.0
H119 H 0.19673 0.18091 0.09764 0.0
Co120 Co 0.80099 0.25848 0.23342 0.0
C121 C 0.74042 0.23323 0.1883 0.0
Co122 Co 0.7688 0.29139 0.23197 0.0
C123 C 0.84534 0.21952 0.29416 0.0
C124 C 0.82504 0.20788 0.15486 0.0
N125 N 0.82621 0.22846 0.22835 0.0
N126 N 0.85592 0.1942 0.26424 0.0
C127 C 0.8432 0.18716 0.1762 0.0
H128 H 0.85034 0.2307 0.36378 0.0
H129 H 0.81081 0.20718 0.09051 0.0
C130 C 0.83047 0.31556 0.27703 0.0
N131 N 0.74349 0.32123 0.23748 0.0
C132 C 0.7226 0.32934 0.17489 0.0
C133 C 0.74609 0.34235 0.31005 0.0
N134 N 0.71245 0.35477 0.20595 0.0
C135 C 0.72722 0.36272 0.2912 0.0
C136 C 0.78491 0.27272 0.40164 0.0
O137 O 0.83433 0.28862 0.26659 0.0
O138 O 0.80382 0.32193 0.2653 0.0
O139 O 0.76903 0.28976 0.36203 0.0
O140 O 0.80066 0.25728 0.35593 0.0
O141 O 0.73456 0.25979 0.19839 0.0
H142 H 0.76151 0.34342 0.37222 0.0
H143 H 0.71585 0.31746 0.10673 0.0
O144 O 0.76748 0.22889 0.20047 0.0
O145 O 0.80101 0.25998 0.10986 0.0
O146 O 0.76902 0.29209 0.10248 0.0
C147 C 0.78552 0.27545 0.06308 0.0
H148 H 0.84636 0.16812 0.13014 0.0
H149 H 0.72472 0.38208 0.33695 0.0
Co150 Co 0.79998 0.80038 0.69594 0.0
C151 C 0.74788 0.82416 0.69067 0.0
Co152 Co 0.76478 0.76745 0.65367 0.0
C153 C 0.8566 0.82111 0.70333 0.0
C154 C 0.83822 0.84651 0.8074 0.0
N155 N 0.83168 0.8254 0.73499 0.0
N156 N 0.87883 0.83813 0.75322 0.0
C157 C 0.86739 0.85454 0.81861 0.0
H158 H 0.85851 0.80449 0.64715 0.0
H159 H 0.82315 0.85455 0.8514 0.0
C160 C 0.81764 0.74391 0.66382 0.0
N161 N 0.73372 0.74108 0.61246 0.0
C162 C 0.71463 0.73164 0.66141 0.0
C163 C 0.72842 0.72347 0.53111 0.0
N164 N 0.69848 0.70825 0.61547 0.0
C165 C 0.70686 0.70317 0.53299 0.0
C166 C 0.78436 0.78749 0.50668 0.0
O167 O 0.82521 0.76989 0.69509 0.0
O168 O 0.79088 0.73698 0.63653 0.0
O169 O 0.76477 0.77285 0.53208 0.0
O170 O 0.80323 0.80238 0.56775 0.0
O171 O 0.73876 0.79783 0.67183 0.0
H172 H 0.74114 0.72352 0.47695 0.0
H173 H 0.71491 0.73953 0.73329 0.0
O174 O 0.77488 0.83065 0.69865 0.0
O175 O 0.79715 0.79836 0.82146 0.0
O176 O 0.76532 0.76184 0.77792 0.0
C177 C 0.78097 0.77897 0.84213 0.0
H178 H 0.87914 0.87101 0.87083 0.0
H179 H 0.70021 0.68435 0.48208 0.0
Co180 Co 0.52649 0.52417 -0.01007 0.0
C181 C 0.51311 0.5811 -0.00341 0.0
Co182 Co 0.56459 0.55385 0.03125 0.0
C183 C 0.49253 0.47642 0.00169 0.0
C184 C 0.46784 0.50108 0.91396 0.0
N185 N 0.4947 0.49898 0.95875 0.0
N186 N 0.46534 0.46512 -0.00953 0.0
C187 C 0.44948 0.48017 0.93434 0.0
H188 H 0.5098 0.47077 0.05111 0.0
H189 H 0.46144 0.51841 0.87763 0.0
C190 C 0.57772 0.49655 0.02203 0.0
N191 N 0.59691 0.5782 0.06825 0.0
C192 C 0.60585 0.59926 0.02658 0.0
C193 C 0.61894 0.576 0.1358 0.0
N194 N 0.63289 0.60976 0.06345 0.0
C195 C 0.64141 0.59516 0.13188 0.0
C196 C 0.54136 0.54221 0.18052 0.0
O197 O 0.5507 0.49267 -0.00534 0.0
O198 O 0.58877 0.52207 0.04278 0.0
O199 O 0.56061 0.55648 0.15277 0.0
O200 O 0.5234 0.52552 0.12127 0.0
O201 O 0.54045 0.58578 0.01975 0.0
H202 H 0.6195 0.55994 0.18013 0.0
H203 H 0.59406 0.60462 0.96407 0.0
O204 O 0.50238 0.55544 0.9833 0.0
O205 O 0.5294 0.52312 0.86265 0.0
O206 O 0.56872 0.55173 0.90626 0.0
C207 C 0.55023 0.53767 0.84207 0.0
H208 H 0.4261 0.47839 0.91834 0.0
H209 H 0.66307 0.59646 0.17026 0.0
Co210 Co 0.05045 0.51091 0.48593 0.0
C211 C 0.07516 0.57111 0.52985 0.0
Co212 Co 1.01659 0.54204 0.48541 0.0
C213 C 0.08799 0.4646 0.43353 0.0
C214 C 0.10276 0.48973 0.56493 0.0
N215 N 0.0808 0.4864 0.49384 0.0
N216 N 0.11371 0.45453 0.46433 0.0
C217 C 0.12282 0.47034 0.54722 0.0
H218 H 0.07513 0.45694 0.36717 0.0
H219 H 0.10447 0.50579 0.62532 0.0
C220 C 0.99316 0.48078 0.4418 0.0
N221 N 0.986 0.56665 0.47656 0.0
C222 C 0.97785 0.58808 0.53639 0.0
C223 C 0.96484 0.56359 0.4032 0.0
N224 N 0.9524 0.59826 0.50286 0.0
C225 C 0.94448 0.58282 0.41875 0.0
C226 C 1.03516 0.52723 0.31665 0.0
O227 O 1.02053 0.47759 0.45394 0.0
O228 O 0.98613 0.50693 0.45162 0.0
O229 O 1.01865 0.54178 0.36198 0.0
O230 O 0.05175 0.51081 0.35654 0.0
O231 O 0.04812 0.57639 0.51958 0.0
H232 H 0.96388 0.54786 0.34231 0.0
H233 H 0.98991 0.59542 0.60414 0.0
O234 O 0.08001 0.54449 0.51777 0.0
O235 O 0.04861 0.51175 0.61594 0.0
O236 O 1.01507 0.54238 0.60852 0.0
C237 C 1.0315 0.52766 0.65537 0.0
H238 H 0.14266 0.46809 0.59225 0.0
H239 H 0.92529 0.5852 0.37106 0.0
H240 H 0.11053 0.17351 0.56461 0.0
H241 H 0.05435 0.1253 0.32921 0.0
H242 H 0.06706 0.15944 0.23491 0.0
H243 H 0.10824 0.2486 0.46097 0.0
H244 H 0.14571 0.25618 0.51165 0.0
H245 H 0.1209 0.23929 0.5718 0.0
H246 H 0.15481 0.19821 0.58623 0.0
H247 H 0.17926 0.21471 0.52652 0.0
H248 H 0.16472 0.17847 0.48399 0.0
H249 H 0.10081 0.18026 0.15535 0.0
H250 H 0.14739 0.191 0.10634 0.0
H251 H 0.1835 0.22658 0.38643 0.0
C252 C 0.10008 0.17102 0.49414 0.0
C253 C 0.0824 0.14622 0.45448 0.0
C254 C 0.06835 0.14379 0.3625 0.0
C255 C 0.07528 0.16345 0.30756 0.0
C256 C 0.09601 0.18561 0.34539 0.0
C257 C 0.10735 0.19037 0.43813 0.0
C258 C 0.13389 0.21102 0.45785 0.0
C259 C 0.12674 0.24052 0.50319 0.0
C260 C 0.15964 0.19986 0.5168 0.0
C261 C 0.13897 0.21192 0.36103 0.0
C262 C 0.116 0.1988 0.29697 0.0
C263 C 0.11841 0.19173 0.20442 0.0
C264 C 0.14511 0.19731 0.17727 0.0
C265 C 0.169 0.20961 0.24271 0.0
C266 C 0.16537 0.21799 0.33446 0.0
H267 H 0.12829 0.99584 0.61771 0.0
H268 H 0.07506 0.94311 0.38483 0.0
H269 H 0.10531 0.90281 0.40673 0.0
H270 H 0.19839 0.96475 0.58451 0.0
H271 H 0.20994 0.96638 0.70574 0.0
H272 H 0.18653 0.99229 0.66448 0.0
H273 H 0.14966 0.97884 0.76621 0.0
H274 H 0.17277 0.95272 0.80702 0.0
H275 H 0.13587 0.94215 0.75461 0.0
H276 H 0.13881 0.86664 0.46134 0.0
H277 H 0.17274 0.83775 0.54547 0.0
H278 H 0.20407 0.91332 0.74431 0.0
C279 C 0.12367 0.9761 0.56965 0.0
C280 C 0.09958 0.97282 0.49848 0.0
C281 C 0.09358 0.94625 0.43915 0.0
C282 C 0.11064 0.92318 0.45107 0.0
C283 C 0.13372 0.92675 0.5232 0.0
C284 C 0.14037 0.95257 0.58138 0.0
C285 C 0.16495 0.94992 0.65778 0.0
C286 C 0.19153 0.9695 0.6528 0.0
C287 C 0.15522 0.95628 0.75195 0.0
C288 C 0.17063 0.91859 0.63431 0.0
C289 C 0.1526 0.90567 0.55589 0.0
C290 C 0.15325 0.87663 0.52242 0.0
C291 C 0.1727 0.86034 0.57059 0.0
C292 C 0.19118 0.87296 0.65207 0.0
C293 C 0.19014 0.90266 0.68318 0.0
H294 H 0.38988 0.82725 0.81894 0.0
H295 H 0.31461 0.87712 0.80735 0.0
H296 H 0.34643 0.92135 0.84344 0.0
H297 H 0.4352 0.87626 0.00906 0.0
H298 H 0.46849 0.87205 0.96373 0.0
H299 H 0.44027 0.84353 0.93667 0.0
H300 H 0.44017 0.84348 0.76438 0.0
H301 H 0.4684 0.872 0.79097 0.0
H302 H 0.43503 0.87617 0.71825 0.0
H303 H 0.38698 0.96253 0.88189 0.0
H304 H 0.43101 0.99517 0.91806 0.0
H305 H 0.48358 0.92234 0.9084 0.0
C306 C 0.37993 0.84741 0.82394 0.0
C307 C 0.34864 0.84752 0.80923 0.0
C308 C 0.33776 0.87521 0.81736 0.0
C309 C 0.35599 0.90097 0.83823 0.0
C310 C 0.38619 0.90011 0.852 0.0
C311 C 0.39824 0.87397 0.84524 0.0
C312 C 0.43169 0.87968 0.86369 0.0
C313 C 0.44469 0.86711 0.94831 0.0
C314 C 0.44459 0.86707 0.77931 0.0
C315 C 0.43647 0.9128 0.88166 0.0
C316 C 0.40965 0.92393 0.87432 0.0
C317 C 0.40792 0.95369 0.88758 0.0
C318 C 0.43353 0.97241 0.90849 0.0
C319 C 0.46187 0.96242 0.91715 0.0
C320 C 0.46285 0.93159 0.903 0.0
H321 H 0.40046 0.10895 0.01019 0.0
H322 H 0.48328 0.14542 0.16318 0.0
H323 H 0.45837 0.18299 0.24862 0.0
H324 H 0.36881 0.17437 0.98537 0.0
H325 H 0.33311 0.16151 -0.00181 0.0
H326 H 0.35741 0.13693 0.95292 0.0
H327 H 0.3517 0.10618 0.079 0.0
H328 H 0.32739 0.13071 0.12477 0.0
H329 H 0.35918 0.12256 0.19761 0.0
H330 H 0.42423 0.21896 0.30843 0.0
H331 H 0.38408 0.24863 0.34268 0.0
H332 H 0.32335 0.18747 0.1543 0.0
C333 C 0.41344 0.12481 0.0616 0.0
C334 C 0.44398 0.12426 0.07944 0.0
C335 C 0.45995 0.14523 0.1486 0.0
C336 C 0.44594 0.16672 0.19721 0.0
C337 C 0.41586 0.1668 0.17684 0.0
C338 C 0.3998 0.14619 0.11118 0.0
C339 C 0.3678 0.15117 0.10115 0.0
C340 C 0.35611 0.1563 0.00363 0.0
C341 C 0.3505 0.12616 0.12721 0.0
C342 C 0.36829 0.1781 0.17042 0.0
C343 C 0.39623 0.18684 0.21326 0.0
C344 C 0.40227 0.21204 0.27616 0.0
C345 C 0.37929 0.22878 0.29518 0.0
C346 C 0.35046 0.22022 0.25231 0.0
C347 C 0.34501 0.19432 0.18981 0.0
H348 H 0.96357 0.87602 0.41347 0.0
H349 H 1.0139 0.93069 0.64767 0.0
H350 H 1.00544 0.896 0.74473 0.0
H351 H 0.90991 0.86434 0.48854 0.0
H352 H 0.90027 0.82673 0.44975 0.0
H353 H 0.92304 0.84552 0.3905 0.0
H354 H 0.96194 0.8094 0.41513 0.0
H355 H 0.93895 0.79046 0.476 0.0
H356 H 0.97538 0.80285 0.52891 0.0
H357 H 0.97432 0.87244 0.8244 0.0
H358 H 0.92763 0.8607 0.86984 0.0
H359 H 0.896 0.81857 0.59285 0.0
C360 C 0.97371 0.87984 0.48441 0.0
C361 C 0.98877 0.90624 0.52237 0.0
C362 C 1.00224 0.91071 0.61534 0.0
C363 C 0.99772 0.89078 0.6719 0.0
C364 C 0.97978 0.86635 0.63512 0.0
C365 C 0.96888 0.8601 0.54211 0.0
C366 C 0.9449 0.83656 0.52333 0.0
C367 C 0.91797 0.84382 0.45963 0.0
C368 C 0.95597 0.80814 0.48355 0.0
C369 C 0.93959 0.83591 0.62023 0.0
C370 C 0.96127 0.85143 0.6842 0.0
C371 C 0.95777 0.85933 0.77552 0.0
C372 C 0.93093 0.85308 0.80061 0.0
C373 C 0.90797 0.83913 0.73449 0.0
C374 C 0.91318 0.82882 0.64542 0.0
H375 H 0.93955 0.05474 0.3476 0.0
H376 H 0.99414 0.10823 0.57588 0.0
H377 H 0.9637 0.14839 0.55452 0.0
H378 H 0.93038 0.10796 0.20844 0.0
H379 H 0.89324 0.09717 0.15936 0.0
H380 H 0.91686 0.07127 0.19912 0.0
H381 H 0.88122 0.05811 0.30507 0.0
H382 H 0.85732 0.08381 0.26492 0.0
H383 H 0.86995 0.08584 0.38574 0.0
H384 H 0.92972 0.18427 0.50123 0.0
H385 H 0.89482 0.21276 0.41939 0.0
H386 H 0.8622 0.13665 0.22449 0.0
C387 C 0.94448 0.07463 0.39475 0.0
C388 C 0.96901 0.07815 0.46445 0.0
C389 C 0.97533 0.1049 0.52264 0.0
C390 C 0.95815 0.12791 0.51102 0.0
C391 C 0.93461 0.12409 0.44038 0.0
C392 C 0.92764 0.09811 0.38335 0.0
C393 C 0.90242 0.10046 0.30864 0.0
C394 C 0.91126 0.09383 0.21326 0.0
C395 C 0.87617 0.08089 0.3166 0.0
C396 C 0.89673 0.13182 0.3318 0.0
C397 C 0.91536 0.14499 0.40854 0.0
C398 C 0.9148 0.17407 0.44149 0.0
C399 C 0.89479 0.19014 0.39462 0.0
C400 C 0.8756 0.17726 0.31495 0.0
C401 C 0.87662 0.14752 0.28424 0.0
H402 H 0.67624 0.22687 0.15624 0.0
H403 H 0.75129 0.17666 0.16028 0.0
H404 H 0.71947 0.13267 0.12133 0.0
H405 H 0.63143 0.17634 0.25352 0.0
H406 H 0.59784 0.18094 0.18265 0.0
H407 H 0.62599 0.20954 0.21077 0.0
H408 H 0.62528 0.21108 0.03907 0.0
H409 H 0.59713 0.18249 0.0105 0.0
H410 H 0.63022 0.17893 0.96368 0.0
H411 H 0.67922 0.09154 0.08038 0.0
H412 H 0.63539 0.05868 0.0429 0.0
H413 H 0.58243 0.13118 0.06155 0.0
C414 C 0.68615 0.20669 0.14898 0.0
C415 C 0.71749 0.20655 0.16262 0.0
C416 C 0.72818 0.17875 0.15142 0.0
C417 C 0.70993 0.15305 0.12878 0.0
C418 C 0.67977 0.15392 0.11618 0.0
C419 C 0.66776 0.18007 0.12585 0.0
C420 C 0.63427 0.17419 0.10812 0.0
C421 C 0.62162 0.18597 0.19386 0.0
C422 C 0.62093 0.18748 0.02544 0.0
C423 C 0.62953 0.14101 0.08723 0.0
C424 C 0.65639 0.13001 0.0925 0.0
C425 C 0.65824 0.10027 0.07637 0.0
C426 C 0.63272 0.0814 0.0547 0.0
C427 C 0.6043 0.09118 0.04813 0.0
C428 C 0.6032 0.12204 0.0652 0.0
H429 H 0.69532 0.8192 0.75048 0.0
H430 H 0.75597 0.88108 0.68146 0.0
H431 H 0.72537 0.9199 0.72854 0.0
H432 H 0.62885 0.854 0.68274 0.0
H433 H 0.61264 0.8454 0.77789 0.0
H434 H 0.63788 0.82229 0.73063 0.0
H435 H 0.66925 0.82717 0.89093 0.0
H436 H 0.64424 0.85041 0.93859 0.0
H437 H 0.68196 0.86223 0.95237 0.0
H438 H 0.68861 0.95256 0.78896 0.0
H439 H 0.65032 0.97603 0.86354 0.0
H440 H 0.61474 0.89315 0.89866 0.0
C441 C 0.70183 0.84084 0.74336 0.0
C442 C 0.7279 0.84699 0.71082 0.0
C443 C 0.73602 0.87576 0.70532 0.0
C444 C 0.71874 0.89798 0.73193 0.0
C445 C 0.69343 0.89128 0.765 0.0
C446 C 0.68504 0.86339 0.7711 0.0
C447 C 0.6579 0.86213 0.81467 0.0
C448 C 0.63283 0.84494 0.74746 0.0
C449 C 0.6637 0.84976 0.90446 0.0
C450 C 0.65242 0.89362 0.83263 0.0
C451 C 0.67295 0.91009 0.8026 0.0
C452 C 0.67239 0.9398 0.81244 0.0
C453 C 0.65047 0.95299 0.8546 0.0
C454 C 0.62949 0.9366 0.88762 0.0
C455 C 0.63057 0.90645 0.87548 0.0
H456 H 0.62774 0.66175 0.01782 0.0
H457 H 0.67651 0.5867 -0.01047 0.0
H458 H 0.69649 0.60285 0.86069 0.0
H459 H 0.60725 0.66439 0.79062 0.0
H460 H 0.61158 0.70262 0.79707 0.0
H461 H 0.60382 0.68759 0.89492 0.0
H462 H 0.64979 0.71444 -0.00377 0.0
H463 H 0.65687 0.73073 0.89995 0.0
H464 H 0.68424 0.71134 0.95741 0.0
H465 H 0.70492 0.62327 0.72341 0.0
H466 H 0.71286 0.65391 0.609 0.0
H467 H 0.65996 0.7167 0.73015 0.0
C468 C 0.64371 0.64961 0.98688 0.0
C469 C 0.65116 0.62342 0.0132 0.0
C470 C 0.67136 0.60724 0.97074 0.0
C471 C 0.68233 0.61599 0.89696 0.0
C472 C 0.67311 0.64111 0.86864 0.0
C473 C 0.65519 0.65831 0.91434 0.0
C474 C 0.64848 0.68418 0.86954 0.0
C475 C 0.61584 0.6847 0.83608 0.0
C476 C 0.66058 0.7118 0.93463 0.0
C477 C 0.66486 0.67843 0.79023 0.0
C478 C 0.67849 0.65324 0.79017 0.0
C479 C 0.69465 0.64321 0.72306 0.0
C480 C 0.69859 0.66043 0.65755 0.0
C481 C 0.68669 0.68736 0.66112 0.0
C482 C 0.66881 0.69596 0.726 0.0
H483 H 0.7104 0.41274 0.22975 0.0
H484 H 0.66565 0.33407 0.07743 0.0
H485 H 0.62709 0.36192 0.0084 0.0
H486 H 0.64842 0.44756 0.2825 0.0
H487 H 0.66229 0.48255 0.26977 0.0
H488 H 0.68688 0.45656 0.30289 0.0
H489 H 0.71325 0.46195 0.16579 0.0
H490 H 0.68877 0.48803 0.13233 0.0
H491 H 0.69283 0.4568 0.05169 0.0
H492 H 0.59133 0.39863 0.96586 0.0
H493 H 0.56324 0.44062 0.94569 0.0
H494 H 0.63226 0.49564 0.12235 0.0
C495 C 0.69254 0.40128 0.18174 0.0
C496 C 0.69104 0.37104 0.15954 0.0
C497 C 0.66745 0.35711 0.09512 0.0
C498 C 0.64537 0.37281 0.05595 0.0
C499 C 0.64731 0.40253 0.08084 0.0
C500 C 0.67052 0.41662 0.14152 0.0
C501 C 0.66745 0.44866 0.15786 0.0
C502 C 0.66618 0.45945 0.25927 0.0
C503 C 0.69204 0.46481 0.12494 0.0
C504 C 0.6386 0.45046 0.09812 0.0
C505 C 0.62729 0.42361 0.0544 0.0
C506 C 0.60022 0.41973 -0.00104 0.0
C507 C 0.58437 0.44378 0.98804 0.0
C508 C 0.59556 0.47158 0.03161 0.0
C509 C 0.62322 0.47481 0.08689 0.0
H510 H 0.92941 0.47396 0.4054 0.0
H511 H 1.00463 0.42404 0.41988 0.0
H512 H 0.97279 0.37984 0.38198 0.0
H513 H 0.88338 0.42469 0.50284 0.0
H514 H 0.85032 0.42891 0.4287 0.0
H515 H 0.87852 0.45746 0.45697 0.0
H516 H 0.87933 0.45766 0.2853 0.0
H517 H 0.85112 0.42911 0.25656 0.0
H518 H 0.88473 0.42502 0.21302 0.0
H519 H 0.93225 0.33862 0.34137 0.0
H520 H 0.88838 0.30588 0.30278 0.0
H521 H 0.83552 0.3785 0.31014 0.0
C522 C 0.93935 0.45379 0.40073 0.0
C523 C 0.9707 0.45372 0.41689 0.0
C524 C 0.9815 0.42598 0.40891 0.0
C525 C 0.96323 0.40022 0.38697 0.0
C526 C 0.93301 0.40105 0.3718 0.0
C527 C 0.92099 0.42719 0.37826 0.0
C528 C 0.88749 0.42139 0.35804 0.0
C529 C 0.87413 0.43387 0.4416 0.0
C530 C 0.87491 0.43407 0.2732 0.0
C531 C 0.88267 0.38822 0.33944 0.0
C532 C 0.90953 0.37717 0.34807 0.0
C533 C 0.9113 0.34742 0.33468 0.0
C534 C 0.88572 0.32862 0.31233 0.0
C535 C 0.85729 0.33842 0.30217 0.0
C536 C 0.85627 0.36931 0.31653 0.0
H537 H 0.81509 0.69022 0.55631 0.0
H538 H 0.87243 0.75073 0.75862 0.0
H539 H 0.91217 0.71903 0.74564 0.0
H540 H 0.84517 0.62488 0.62496 0.0
H541 H 0.84167 0.60663 0.50878 0.0
H542 H 0.81689 0.63303 0.53883 0.0
H543 H 0.83014 0.66071 0.41267 0.0
H544 H 0.85502 0.63448 0.38252 0.0
H545 H 0.86749 0.67169 0.41294 0.0
H546 H 0.94686 0.68165 0.7064 0.0
H547 H 0.97361 0.64212 0.64025 0.0
H548 H 0.89444 0.60572 0.46279 0.0
C549 C 0.83585 0.69652 0.599 0.0
C550 C 0.84042 0.72298 0.65908 0.0
C551 C 0.86821 0.73061 0.71225 0.0
C552 C 0.89102 0.71269 0.70553 0.0
C553 C 0.88601 0.68702 0.64494 0.0
C554 C 0.85913 0.67889 0.59251 0.0
C555 C 0.86008 0.65082 0.52933 0.0
C556 C 0.83975 0.62746 0.55185 0.0
C557 C 0.85275 0.65467 0.42839 0.0
C558 C 0.89164 0.6447 0.55385 0.0
C559 C 0.90617 0.66572 0.62122 0.0
C560 C 0.93563 0.66496 0.65387 0.0
C561 C 0.95068 0.6423 0.61612 0.0
C562 C 0.93643 0.62064 0.54575 0.0
C563 C 0.90633 0.62194 0.51543 0.0
H564 H 0.3804 0.34407 0.16589 0.0
H565 H 0.41632 0.38535 0.44138 0.0
H566 H 0.44801 0.41743 0.37777 0.0
H567 H 0.44879 0.35294 0.06125 0.0
H568 H 0.42752 0.35917 0.95613 0.0
H569 H 0.41316 0.33527 0.02384 0.0
H570 H 0.36815 0.3647 0.02763 0.0
H571 H 0.38264 0.38922 0.9628 0.0
H572 H 0.37285 0.40235 0.07261 0.0
H573 H 0.46661 0.45053 0.28724 0.0
H574 H 0.47783 0.47956 0.17237 0.0
H575 H 0.43065 0.41638 0.95461 0.0
C576 C 0.39594 0.3588 0.21326 0.0
C577 C 0.396 0.36236 0.30857 0.0
C578 C 0.41594 0.38257 0.3681 0.0
C579 C 0.43404 0.40069 0.33265 0.0
C580 C 0.43201 0.39783 0.23793 0.0
C581 C 0.414 0.37698 0.17892 0.0
C582 C 0.41326 0.38061 0.07995 0.0
C583 C 0.42649 0.35551 0.0272 0.0
C584 C 0.3824 0.38446 0.03312 0.0
C585 C 0.43237 0.40781 0.093 0.0
C586 C 0.44317 0.41712 0.18465 0.0
C587 C 0.45917 0.44302 0.21516 0.0
C588 C 0.4652 0.45938 0.14983 0.0
C589 C 0.45542 0.44965 0.05546 0.0
C590 C 0.43843 0.42386 0.02654 0.0
H591 H 0.45725 0.57649 0.90533 0.0
H592 H 0.52559 0.63932 0.0472 0.0
H593 H 0.49387 0.67811 0.01423 0.0
H594 H 0.43368 0.6152 0.72477 0.0
H595 H 0.396 0.60383 0.71596 0.0
H596 H 0.42345 0.58138 0.75617 0.0
H597 H 0.40139 0.5806 0.90429 0.0
H598 H 0.37384 0.60306 0.86454 0.0
H599 H 0.39646 0.61386 0.97417 0.0
H600 H 0.4535 0.71046 0.96313 0.0
H601 H 0.4107 0.73244 0.89076 0.0
H602 H 0.37023 0.64802 0.77832 0.0
C603 C 0.46552 0.59839 0.93056 0.0
C604 C 0.49394 0.60475 0.97996 0.0
C605 C 0.50392 0.6338 0.00982 0.0
C606 C 0.48598 0.65601 -0.00856 0.0
C607 C 0.45811 0.64894 0.94224 0.0
C608 C 0.44808 0.62075 0.91176 0.0
C609 C 0.41792 0.61864 0.8564 0.0
C610 C 0.41777 0.6039 0.75748 0.0
C611 C 0.39612 0.60312 0.90264 0.0
C612 C 0.41243 0.65001 0.86005 0.0
C613 C 0.43567 0.66726 0.91064 0.0
C614 C 0.43527 0.69704 0.92336 0.0
C615 C 0.41078 0.7094 0.8824 0.0
C616 C 0.38707 0.69209 0.82819 0.0
C617 C 0.38805 0.66197 0.81815 0.0
H618 H 0.17627 0.72883 0.66121 0.0
H619 H 0.25048 0.67752 0.67592 0.0
H620 H 0.21782 0.63385 0.63714 0.0
H621 H 0.1291 0.68024 0.75767 0.0
H622 H 0.09626 0.68507 0.68346 0.0
H623 H 0.12493 0.71316 0.71224 0.0
H624 H 0.126 0.71341 0.54076 0.0
H625 H 0.09733 0.68533 0.5115 0.0
H626 H 0.1309 0.68067 0.46816 0.0
H627 H 0.17678 0.59351 0.59544 0.0
H628 H 0.13273 0.5614 0.55614 0.0
H629 H 0.08061 0.63466 0.56415 0.0
C630 C 0.18582 0.70846 0.6564 0.0
C631 C 0.21715 0.70782 0.6729 0.0
C632 C 0.22741 0.67988 0.66476 0.0
C633 C 0.20866 0.65443 0.64229 0.0
C634 C 0.1785 0.65581 0.62682 0.0
C635 C 0.16696 0.68217 0.6335 0.0
C636 C 0.13337 0.67693 0.61299 0.0
C637 C 0.12012 0.68962 0.69655 0.0
C638 C 0.12117 0.68987 0.52834 0.0
C639 C 0.12792 0.64378 0.59392 0.0
C640 C 0.15462 0.63235 0.60259 0.0
C641 C 0.15597 0.6026 0.58875 0.0
C642 C 0.13021 0.58416 0.56591 0.0
C643 C 0.10184 0.59424 0.55566 0.0
C644 C 0.10121 0.62519 0.57055 0.0
H645 H 0.25157 0.36759 0.38118 0.0
H646 H 0.19214 0.29982 0.21763 0.0
H647 H 0.15132 0.32999 0.23641 0.0
H648 H 0.20551 0.3884 0.54339 0.0
H649 H 0.21609 0.42602 0.55813 0.0
H650 H 0.24099 0.40016 0.52523 0.0
H651 H 0.24623 0.42354 0.38245 0.0
H652 H 0.22137 0.44954 0.41504 0.0
H653 H 0.21435 0.42791 0.30321 0.0
H654 H 0.11631 0.36732 0.27699 0.0
H655 H 0.09024 0.40747 0.34367 0.0
H656 H 0.17206 0.45022 0.48439 0.0
C657 C 0.23003 0.3593 0.34807 0.0
C658 C 0.22518 0.33139 0.29705 0.0
C659 C 0.1965 0.32115 0.25663 0.0
C660 C 0.17312 0.33817 0.26675 0.0
C661 C 0.17856 0.36544 0.31818 0.0
C662 C 0.2063 0.37591 0.35854 0.0
C663 C 0.20602 0.40525 0.41497 0.0
C664 C 0.21785 0.40492 0.51643 0.0
C665 C 0.223 0.4279 0.3766 0.0
C666 C 0.17385 0.40951 0.40072 0.0
C667 C 0.15837 0.38647 0.34378 0.0
C668 C 0.12826 0.3855 0.32149 0.0
C669 C 0.1136 0.40847 0.3593 0.0
C670 C 0.12895 0.432 0.41973 0.0
C671 C 0.15955 0.43246 0.43945 0.0
H672 H 1.01191 0.99078 0.7564 0.0
H673 H 0.05596 0.07482 0.77735 0.0
H674 H 0.05908 0.08183 0.94339 0.0
H675 H 0.97053 1.01081 0.9451 0.0
H676 H 0.97415 0.9774 0.98778 0.0
H677 H 0.97378 0.97853 0.86779 0.0
H678 H 1.0228 0.9555 0.87595 0.0
H679 H 1.02344 0.95439 -0.00399 0.0
H680 H 0.05325 0.97211 0.95842 0.0
H681 H 0.06046 0.08016 0.10346 0.0
H682 H 0.05833 0.07057 0.25786 0.0
H683 H 1.01253 0.98795 0.14615 0.0
C684 C 1.02188 1.01072 0.79619 0.0
C685 C 1.03381 0.03217 0.75334 0.0
C686 C 0.04687 0.0579 0.80792 0.0
C687 C 0.04871 0.06221 0.9027 0.0
C688 C 0.03733 0.0407 0.94298 0.0
C689 C 1.024 1.01549 0.89244 0.0
C690 C 1.01429 0.99595 0.95589 0.0
C691 C 0.98122 0.99034 0.93806 0.0
C692 C 1.02935 0.96782 0.94595 0.0
C693 C 1.02469 1.01416 0.04925 0.0
C694 C 0.03786 0.03984 0.03884 0.0
C695 C 0.05005 0.06023 0.1129 0.0
C696 C 0.0488 0.05444 0.20069 0.0
C697 C 1.0353 1.02846 0.21476 0.0
C698 C 1.02289 1.00802 0.13768 0.0
H699 H 0.30976 0.74763 0.43685 0.0
H700 H 0.25568 0.8185 0.48819 0.0
H701 H 0.2512 0.82484 0.32859 0.0
H702 H 0.34737 0.77892 0.27194 0.0
H703 H 0.3481 0.74545 0.19755 0.0
H704 H 0.34837 0.746 0.31834 0.0
H705 H 0.30309 0.71037 0.28233 0.0
H706 H 0.30264 0.70979 0.16147 0.0
H707 H 0.27105 0.71898 0.21162 0.0
H708 H 0.24968 0.8234 0.16791 0.0
H709 H 0.25295 0.81563 0.00574 0.0
H710 H 0.30916 0.74659 0.04459 0.0
C711 C 0.29719 0.76455 0.41426 0.0
C712 C 0.28293 0.7824 0.47572 0.0
C713 C 0.26663 0.80428 0.44324 0.0
C714 C 0.26395 0.8082 0.35227 0.0
C715 C 0.27776 0.79023 0.2935 0.0
C716 C 0.29422 0.76892 0.32215 0.0
C717 C 0.30628 0.75271 0.24172 0.0
C718 C 0.33951 0.75597 0.25841 0.0
C719 C 0.29509 0.72108 0.22321 0.0
C720 C 0.29369 0.76828 0.16433 0.0
C721 C 0.27732 0.78974 0.19714 0.0
C722 C 0.26262 0.80684 0.14109 0.0
C723 C 0.26464 0.80213 0.04843 0.0
C724 C 0.28145 0.78056 0.01153 0.0
C725 C 0.29629 0.76336 0.07062 0.0
H726 H 0.55235 0.9919 0.67047 0.0
H727 H 0.51379 0.07256 0.73522 0.0
H728 H 0.51194 0.08059 0.57742 0.0
H729 H 0.59594 1.01579 0.50773 0.0
H730 H 0.5899 0.98257 0.42913 0.0
H731 H 0.5897 0.98271 0.54952 0.0
H732 H 0.53857 0.95664 0.51253 0.0
H733 H 0.53861 0.95643 0.39209 0.0
H734 H 0.5098 0.9719 0.44552 0.0
H735 H 0.51238 0.08063 0.41753 0.0
H736 H 0.51449 0.07247 0.25429 0.0
H737 H 0.55246 0.99156 0.27934 0.0
C738 C 0.54371 1.01127 0.65118 0.0
C739 C 0.53316 0.03154 0.71578 0.0
C740 C 0.52187 0.05656 0.68763 0.0
C741 C 0.52079 0.06146 0.59787 0.0
C742 C 0.53103 0.04119 0.536 0.0
C743 C 0.54226 1.01655 0.56037 0.0
C744 C 0.55085 0.99819 0.47725 0.0
C745 C 0.58355 0.99461 0.4918 0.0
C746 C 0.53341 0.96906 0.45558 0.0
C747 C 0.54237 1.01643 0.40314 0.0
C748 C 0.53114 0.04113 0.43998 0.0
C749 C 0.52115 0.06142 0.38753 0.0
C750 C 0.52237 0.05642 0.29428 0.0
C751 C 0.53349 0.03125 0.25311 0.0
C752 C 0.54394 1.01102 0.3087 0.0
H753 H 0.30991 0.31454 -0.00063 0.0
H754 H 0.26623 0.23101 -0.00826 0.0
H755 H 0.26371 0.22098 0.82703 0.0
H756 H 0.26872 0.32882 0.78869 0.0
H757 H 0.29862 0.34555 0.74871 0.0
H758 H 0.29875 0.34701 0.86974 0.0
H759 H 0.34811 0.32455 0.88586 0.0
H760 H 0.3482 0.32315 0.76492 0.0
H761 H 0.35198 0.29109 0.81537 0.0
H762 H 0.26293 0.21914 0.66581 0.0
H763 H 0.26536 0.22561 0.50791 0.0
H764 H 0.30996 0.30951 0.60611 0.0
C765 C 0.3 0.29417 0.96278 0.0
C766 C 0.28799 0.27381 0.00963 0.0
C767 C 0.27524 0.24733 0.95871 0.0
C768 C 0.27376 0.24119 0.86438 0.0
C769 C 0.28519 0.26158 0.82017 0.0
C770 C 0.29818 0.28751 0.86658 0.0
C771 C 0.308 0.30543 0.79888 0.0
C772 C 0.2926 0.33336 0.8017 0.0
C773 C 0.34104 0.3114 0.81738 0.0
C774 C 0.29809 0.28543 0.70837 0.0
C775 C 0.28507 0.26031 0.72351 0.0
C776 C 0.27327 0.23861 0.65256 0.0
C777 C 0.2747 0.24255 0.56289 0.0
C778 C 0.28792 0.26798 0.54427 0.0
C779 C 0.29994 0.28972 0.61826 0.0
H780 H 0.76141 0.30791 0.9316 0.0
H781 H 0.81237 0.23494 0.96761 0.0
H782 H 0.81537 0.22678 0.80538 0.0
H783 H 0.72152 0.2777 0.705 0.0
H784 H 0.72269 0.31072 0.65946 0.0
H785 H 0.72309 0.31135 0.78035 0.0
H786 H 0.77048 0.34405 0.81601 0.0
H787 H 0.7702 0.34354 0.69527 0.0
H788 H 0.80134 0.33279 0.76496 0.0
H789 H 0.81419 0.22532 0.64482 0.0
H790 H 0.81028 0.23171 0.48524 0.0
H791 H 0.76104 0.30618 0.53914 0.0
C792 C 0.77307 0.29022 0.90493 0.0
C793 C 0.78654 0.27205 0.96333 0.0
C794 C 0.80178 0.24925 0.92555 0.0
C795 C 0.80363 0.24429 0.8328 0.0
C796 C 0.79032 0.26235 0.77745 0.0
C797 C 0.77545 0.28498 0.81102 0.0
C798 C 0.76408 0.30127 0.73408 0.0
C799 C 0.73087 0.30019 0.71883 0.0
C800 C 0.77732 0.33226 0.75378 0.0
C801 C 0.77508 0.28412 0.65318 0.0
C802 C 0.78999 0.26175 0.68109 0.0
C803 C 0.80261 0.24276 0.62167 0.0
C804 C 0.80026 0.2467 0.53075 0.0
C805 C 0.78545 0.26956 0.49901 0.0
C806 C 0.77244 0.28849 0.56117 0.0
H807 H 0.79909 0.8257 0.39112 0.0
H808 H 0.77635 0.73652 0.39884 0.0
H809 H 0.77322 0.72527 0.23257 0.0
H810 H 0.75373 0.83061 0.18139 0.0
H811 H 0.77914 0.85238 0.13742 0.0
H812 H 0.78089 0.85415 0.2592 0.0
H813 H 0.83444 0.84184 0.27462 0.0
H814 H 0.83293 0.8403 0.15292 0.0
H815 H 0.84399 0.81012 0.20638 0.0
H816 H 0.76738 0.72364 0.06627 0.0
H817 H 0.76591 0.73065 0.90597 0.0
H818 H 0.79632 0.81965 -0.00216 0.0
C819 C 0.79389 0.80382 0.3576 0.0
C820 C 0.78702 0.78212 0.40797 0.0
C821 C 0.7805 0.7537 0.36161 0.0
C822 C 0.77894 0.74698 0.26696 0.0
C823 C 0.78452 0.76879 0.21858 0.0
C824 C 0.7925 0.79654 0.26175 0.0
C825 C 0.79742 0.81556 0.19129 0.0
C826 C 0.77655 0.83959 0.19243 0.0
C827 C 0.82908 0.82767 0.20726 0.0
C828 C 0.79035 0.79418 0.10272 0.0
C829 C 0.78277 0.76742 0.12073 0.0
C830 C 0.77375 0.74437 0.05103 0.0
C831 C 0.77282 0.7486 0.96009 0.0
C832 C 0.78123 0.77556 0.93923 0.0
C833 C 0.79014 0.79867 0.01177 0.0
H834 H 0.52257 0.50415 0.67948 0.0
H835 H 0.58062 0.57982 0.78661 0.0
H836 H 0.58116 0.58947 0.63075 0.0
H837 H 0.55727 0.48305 0.47905 0.0
H838 H 0.52398 0.47027 0.4036 0.0
H839 H 0.52702 0.46912 0.52441 0.0
H840 H 0.48182 0.49813 0.53049 0.0
H841 H 0.47894 0.4997 0.40991 0.0
H842 H 0.48134 0.53221 0.49113 0.0
H843 H 0.57473 0.59291 0.4695 0.0
H844 H 0.56741 0.58674 0.30287 0.0
H845 H 0.51602 0.50693 0.2874 0.0
C846 C 0.53544 0.52265 0.66973 0.0
C847 C 0.55153 0.54127 0.74581 0.0
C848 C 0.56823 0.56515 0.7301 0.0
C849 C 0.56853 0.57097 0.6416 0.0
C850 C 0.55232 0.55256 0.56859 0.0
C851 C 0.53648 0.52857 0.58065 0.0
C852 C 0.52225 0.51185 0.48805 0.0
C853 C 0.5333 0.48179 0.4729 0.0
C854 C 0.48912 0.51039 0.47942 0.0
C855 C 0.53271 0.53034 0.42287 0.0
C856 C 0.54961 0.55388 0.4721 0.0
C857 C 0.56179 0.57446 0.42995 0.0
C858 C 0.55744 0.57064 0.3347 0.0
C859 C 0.54132 0.54617 0.28109 0.0
C860 C 0.52828 0.52591 0.32604 0.0
H861 H 0.05513 0.49411 0.78331 0.0
H862 H 1.00729 0.56947 0.75477 0.0
H863 H 1.00555 0.57725 0.91857 0.0
H864 H 1.01573 0.46995 0.95109 0.0
H865 H 0.04668 0.45772 0.01762 0.0
H866 H 0.04573 0.45783 0.89689 0.0
H867 H 0.09418 0.48885 0.93123 0.0
H868 H 0.09525 0.48887 0.05212 0.0
H869 H 0.09735 0.52222 0.00881 0.0
H870 H 1.0075 0.57771 0.07986 0.0
H871 H 1.01162 0.57002 0.23836 0.0
H872 H 0.05764 0.49386 0.17536 0.0
C873 C 0.04443 0.51226 0.81196 0.0
C874 C 1.03129 0.53112 0.75549 0.0
C875 C 1.01737 0.55454 0.79564 0.0
C876 C 1.01633 0.55931 0.88911 0.0
C877 C 1.02922 0.54046 0.94257 0.0
C878 C 0.04293 0.51731 0.90642 0.0
C879 C 0.05405 0.50016 0.98133 0.0
C880 C 0.03968 0.4696 0.96047 0.0
C881 C 0.08718 0.50002 -0.00588 0.0
C882 C 0.04419 0.51736 0.06425 0.0
C883 C 1.0301 0.54054 0.03907 0.0
C884 C 1.01847 0.55965 0.1008 0.0
C885 C 1.0209 0.55495 0.19106 0.0
C886 C 1.03484 0.53121 0.21995 0.0
C887 C 0.04697 0.51223 0.1556 0.0
loop_
_geom_bond_atom_site_label_1
_geom_bond_atom_site_label_2
_geom_bond_distance
_geom_bond_site_symmetry_2
_ccdc_geom_bond_type
Co0 N5 2.057 . S
Co0 O17 2.021 1_655 S
Co0 O20 2.062 . S
Co0 O24 2.117 1_565 S
Co0 O25 2.020 . S
C1 O21 1.259 . S
C1 O24 1.258 . S
Co2 N11 2.057 . S
Co2 O18 2.117 1_545 S
Co2 O19 2.020 . S
Co2 O21 2.021 1_455 S
Co2 O26 2.062 . S
C3 N5 1.316 . S
C3 N6 1.347 . S
C3 H8 0.931 . S
C4 N5 1.375 . S
C4 C7 1.350 . S
C4 H9 0.930 . S
N5 Co0 2.057 . S
N5 C3 1.316 . S
N5 C4 1.375 . S
N6 C3 1.347 . S
N6 C7 1.373 . S
C7 C4 1.350 . S
C7 N6 1.373 . S
C7 H28 0.931 . S
H8 C3 0.931 . S
H9 C4 0.930 . S
C10 O17 1.259 . S
C10 O18 1.258 . S
N11 Co2 2.057 . S
N11 C12 1.316 . S
N11 C13 1.375 . S
C12 N11 1.316 . S
C12 N14 1.347 . S
C12 H23 0.931 . S
C13 N11 1.375 . S
C13 C15 1.350 . S
C13 H22 0.930 . S
N14 C12 1.347 . S
N14 C15 1.373 . S
C15 C13 1.350 . S
C15 N14 1.373 . S
C15 H29 0.931 . S
C16 O19 1.256 . S
C16 O20 1.255 1_445 S
O17 Co0 2.021 1_455 S
O17 C10 1.259 . S
O18 Co2 2.117 1_565 S
O18 C10 1.258 . S
O19 Co2 2.020 . S
O19 C16 1.256 . S
O20 Co0 2.062 . S
O20 C16 1.255 1_665 S
O21 C1 1.259 . S
O21 Co2 2.021 1_655 S
H22 C13 0.930 . S
H23 C12 0.931 . S
O24 Co0 2.117 1_545 S
O24 C1 1.258 . S
O25 Co0 2.020 . S
O25 C27 1.256 . S
O26 Co2 2.062 . S
O26 C27 1.255 1_445 S
C27 O25 1.256 . S
C27 O26 1.255 1_665 S
H28 C7 0.931 . S
H29 C15 0.931 . S
Co30 N35 2.057 . S
Co30 O47 2.021 . S
Co30 O50 2.062 . S
Co30 O54 2.117 . S
Co30 O55 2.020 . S
C31 O51 1.259 . S
C31 O54 1.258 . S
Co32 N41 2.057 . S
Co32 O48 2.117 . S
Co32 O49 2.020 . S
Co32 O51 2.021 . S
Co32 O56 2.062 . S
C33 N35 1.316 . S
C33 N36 1.347 . S
C33 H38 0.931 . S
C34 N35 1.375 . S
C34 C37 1.350 . S
C34 H39 0.930 . S
N35 Co30 2.057 . S
N35 C33 1.316 . S
N35 C34 1.375 . S
N36 C33 1.347 . S
N36 C37 1.373 . S
C37 C34 1.350 . S
C37 N36 1.373 . S
C37 H58 0.931 . S
H38 C33 0.931 . S
H39 C34 0.930 . S
C40 O47 1.259 . S
C40 O48 1.258 . S
N41 Co32 2.057 . S
N41 C42 1.316 . S
N41 C43 1.375 . S
C42 N41 1.316 . S
C42 N44 1.347 . S
C42 H53 0.931 . S
C43 N41 1.375 . S
C43 C45 1.350 . S
C43 H52 0.930 . S
N44 C42 1.347 . S
N44 C45 1.373 . S
C45 C43 1.350 . S
C45 N44 1.373 . S
C45 H59 0.931 . S
C46 O49 1.256 . S
C46 O50 1.255 . S
O47 Co30 2.021 . S
O47 C40 1.259 . S
O48 Co32 2.117 . S
O48 C40 1.258 . S
O49 Co32 2.020 . S
O49 C46 1.256 . S
O50 Co30 2.062 . S
O50 C46 1.255 . S
O51 C31 1.259 . S
O51 Co32 2.021 . S
H52 C43 0.930 . S
H53 C42 0.931 . S
O54 Co30 2.117 . S
O54 C31 1.258 . S
O55 Co30 2.020 . S
O55 C57 1.256 . S
O56 Co32 2.062 . S
O56 C57 1.255 . S
C57 O55 1.256 . S
C57 O56 1.255 . S
H58 C37 0.931 . S
H59 C45 0.931 . S
Co60 N65 2.057 . S
Co60 O77 2.021 . S
Co60 O80 2.062 . S
Co60 O84 2.117 1_566 S
Co60 O85 2.020 1_556 S
C61 O81 1.259 . S
C61 O84 1.258 . S
Co62 N71 2.057 . S
Co62 O78 2.117 1_544 S
Co62 O79 2.020 1_554 S
Co62 O81 2.021 . S
Co62 O86 2.062 . S
C63 N65 1.316 . S
C63 N66 1.347 . S
C63 H68 0.931 . S
C64 N65 1.375 1_554 S
C64 C67 1.350 1_554 S
C64 H69 0.930 . S
N65 Co60 2.057 . S
N65 C63 1.316 . S
N65 C64 1.375 1_556 S
N66 C63 1.347 . S
N66 C67 1.373 . S
C67 C64 1.350 1_556 S
C67 N66 1.373 . S
C67 H88 0.931 . S
H68 C63 0.931 . S
H69 C64 0.930 . S
C70 O77 1.259 . S
C70 O78 1.258 . S
N71 Co62 2.057 . S
N71 C72 1.316 . S
N71 C73 1.375 1_554 S
C72 N71 1.316 . S
C72 N74 1.347 . S
C72 H83 0.931 . S
C73 N71 1.375 1_556 S
C73 C75 1.350 1_556 S
C73 H82 0.930 . S
N74 C72 1.347 . S
N74 C75 1.373 . S
C75 C73 1.350 1_554 S
C75 N74 1.373 . S
C75 H89 0.931 . S
C76 O79 1.266 . S
C76 O80 1.242 1_545 S
O77 Co60 2.021 . S
O77 C70 1.259 . S
O78 Co62 2.117 1_566 S
O78 C70 1.258 . S
O79 Co62 2.020 1_556 S
O79 C76 1.266 . S
O80 Co60 2.062 . S
O80 C76 1.242 1_565 S
O81 C61 1.259 . S
O81 Co62 2.021 . S
H82 C73 0.930 . S
H83 C72 0.931 . S
O84 Co60 2.117 1_544 S
O84 C61 1.258 . S
O85 Co60 2.020 1_554 S
O85 C87 1.260 . S
O86 Co62 2.062 . S
O86 C87 1.250 1_545 S
C87 O85 1.260 . S
C87 O86 1.250 1_565 S
H88 C67 0.931 . S
H89 C75 0.931 . S
Co90 N95 2.057 . S
Co90 O107 2.021 . S
Co90 O110 2.062 . S
Co90 O114 2.117 . S
Co90 O115 2.020 . S
C91 O111 1.259 . S
C91 O114 1.258 . S
Co92 N101 2.057 . S
Co92 O108 2.117 . S
Co92 O109 2.020 . S
Co92 O111 2.021 . S
Co92 O116 2.062 . S
C93 N95 1.316 . S
C93 N96 1.347 . S
C93 H98 0.931 . S
C94 N95 1.375 . S
C94 C97 1.350 . S
C94 H99 0.930 . S
N95 Co90 2.057 . S
N95 C93 1.316 . S
N95 C94 1.375 . S
N96 C93 1.347 . S
N96 C97 1.373 . S
C97 C94 1.350 . S
C97 N96 1.373 . S
C97 H118 0.931 . S
H98 C93 0.931 . S
H99 C94 0.930 . S
C100 O107 1.259 . S
C100 O108 1.258 . S
N101 Co92 2.057 . S
N101 C102 1.316 . S
N101 C103 1.375 . S
C102 N101 1.316 . S
C102 N104 1.347 . S
C102 H113 0.931 . S
C103 N101 1.375 . S
C103 C105 1.350 . S
C103 H112 0.930 . S
N104 C102 1.347 . S
N104 C105 1.373 . S
C105 C103 1.350 . S
C105 N104 1.373 . S
C105 H119 0.931 . S
C106 O109 1.256 . S
C106 O110 1.255 . S
O107 Co90 2.021 . S
O107 C100 1.259 . S
O108 Co92 2.117 . S
O108 C100 1.258 . S
O109 Co92 2.020 . S
O109 C106 1.256 . S
O110 Co90 2.062 . S
O110 C106 1.255 . S
O111 C91 1.259 . S
O111 Co92 2.021 . S
H112 C103 0.930 . S
H113 C102 0.931 . S
O114 Co90 2.117 . S
O114 C91 1.258 . S
O115 Co90 2.020 . S
O115 C117 1.256 . S
O116 Co92 2.062 . S
O116 C117 1.255 . S
C117 O115 1.256 . S
C117 O116 1.255 . S
H118 C97 0.931 . S
H119 C105 0.931 . S
Co120 N125 2.057 . S
Co120 O137 2.021 . S
Co120 O140 2.062 . S
Co120 O144 2.117 . S
Co120 O145 2.020 . S
C121 O141 1.259 . S
C121 O144 1.258 . S
Co122 N131 2.057 . S
Co122 O138 2.117 . S
Co122 O139 2.020 . S
Co122 O141 2.021 . S
Co122 O146 2.062 . S
C123 N125 1.316 . S
C123 N126 1.347 . S
C123 H128 0.931 . S
C124 N125 1.375 . S
C124 C127 1.350 . S
C124 H129 0.930 . S
N125 Co120 2.057 . S
N125 C123 1.316 . S
N125 C124 1.375 . S
N126 C123 1.347 . S
N126 C127 1.373 . S
C127 C124 1.350 . S
C127 N126 1.373 . S
C127 H148 0.931 . S
H128 C123 0.931 . S
H129 C124 0.930 . S
C130 O137 1.259 . S
C130 O138 1.258 . S
N131 Co122 2.057 . S
N131 C132 1.316 . S
N131 C133 1.375 . S
C132 N131 1.316 . S
C132 N134 1.347 . S
C132 H143 0.931 . S
C133 N131 1.375 . S
C133 C135 1.350 . S
C133 H142 0.930 . S
N134 C132 1.347 . S
N134 C135 1.373 . S
C135 C133 1.350 . S
C135 N134 1.373 . S
C135 H149 0.931 . S
C136 O139 1.256 . S
C136 O140 1.255 . S
O137 Co120 2.021 . S
O137 C130 1.259 . S
O138 Co122 2.117 . S
O138 C130 1.258 . S
O139 Co122 2.020 . S
O139 C136 1.256 . S
O140 Co120 2.062 . S
O140 C136 1.255 . S
O141 C121 1.259 . S
O141 Co122 2.021 . S
H142 C133 0.930 . S
H143 C132 0.931 . S
O144 Co120 2.117 . S
O144 C121 1.258 . S
O145 Co120 2.020 . S
O145 C147 1.256 . S
O146 Co122 2.062 . S
O146 C147 1.255 . S
C147 O145 1.256 . S
C147 O146 1.255 . S
H148 C127 0.931 . S
H149 C135 0.931 . S
Co150 N155 2.057 . S
Co150 O167 2.021 . S
Co150 O170 2.062 . S
Co150 O174 2.117 . S
Co150 O175 2.020 . S
C151 O171 1.259 . S
C151 O174 1.258 . S
Co152 N161 2.057 . S
Co152 O168 2.117 . S
Co152 O169 2.020 . S
Co152 O171 2.021 . S
Co152 O176 2.062 . S
C153 N155 1.316 . S
C153 N156 1.347 . S
C153 H158 0.931 . S
C154 N155 1.375 . S
C154 C157 1.350 . S
C154 H159 0.930 . S
N155 Co150 2.057 . S
N155 C153 1.316 . S
N155 C154 1.375 . S
N156 C153 1.347 . S
N156 C157 1.373 . S
C157 C154 1.350 . S
C157 N156 1.373 . S
C157 H178 0.931 . S
H158 C153 0.931 . S
H159 C154 0.930 . S
C160 O167 1.259 . S
C160 O168 1.258 . S
N161 Co152 2.057 . S
N161 C162 1.316 . S
N161 C163 1.375 . S
C162 N161 1.316 . S
C162 N164 1.347 . S
C162 H173 0.931 . S
C163 N161 1.375 . S
C163 C165 1.350 . S
C163 H172 0.930 . S
N164 C162 1.347 . S
N164 C165 1.373 . S
C165 C163 1.350 . S
C165 N164 1.373 . S
C165 H179 0.931 . S
C166 O169 1.256 . S
C166 O170 1.255 . S
O167 Co150 2.021 . S
O167 C160 1.259 . S
O168 Co152 2.117 . S
O168 C160 1.258 . S
O169 Co152 2.020 . S
O169 C166 1.256 . S
O170 Co150 2.062 . S
O170 C166 1.255 . S
O171 C151 1.259 . S
O171 Co152 2.021 . S
H172 C163 0.930 . S
H173 C162 0.931 . S
O174 Co150 2.117 . S
O174 C151 1.258 . S
O175 Co150 2.020 . S
O175 C177 1.256 . S
O176 Co152 2.062 . S
O176 C177 1.255 . S
C177 O175 1.256 . S
C177 O176 1.255 . S
H178 C157 0.931 . S
H179 C165 0.931 . S
Co180 N185 2.057 . S
Co180 O197 2.021 1_556 S
Co180 O200 2.062 1_556 S
Co180 O204 2.117 . S
Co180 O205 2.020 . S
C181 O201 1.259 . S
C181 O204 1.258 . S
Co182 N191 2.057 . S
Co182 O198 2.117 . S
Co182 O199 2.020 . S
Co182 O201 2.021 1_554 S
Co182 O206 2.062 1_554 S
C183 N185 1.316 1_554 S
C183 N186 1.347 . S
C183 H188 0.931 . S
C184 N185 1.375 . S
C184 C187 1.350 . S
C184 H189 0.930 . S
N185 Co180 2.057 . S
N185 C183 1.316 1_556 S
N185 C184 1.375 . S
N186 C183 1.347 . S
N186 C187 1.373 1_554 S
C187 C184 1.350 . S
C187 N186 1.373 1_556 S
C187 H208 0.931 . S
H188 C183 0.931 . S
H189 C184 0.930 . S
C190 O197 1.259 . S
C190 O198 1.258 . S
N191 Co182 2.057 . S
N191 C192 1.316 1_554 S
N191 C193 1.375 . S
C192 N191 1.316 1_556 S
C192 N194 1.347 . S
C192 H203 0.931 . S
C193 N191 1.375 . S
C193 C195 1.350 . S
C193 H202 0.930 . S
N194 C192 1.347 . S
N194 C195 1.373 1_556 S
C195 C193 1.350 . S
C195 N194 1.373 1_554 S
C195 H209 0.931 . S
C196 O199 1.256 . S
C196 O200 1.255 . S
O197 Co180 2.021 1_554 S
O197 C190 1.259 . S
O198 Co182 2.117 . S
O198 C190 1.258 . S
O199 Co182 2.020 . S
O199 C196 1.256 . S
O200 Co180 2.062 1_554 S
O200 C196 1.255 . S
O201 C181 1.259 . S
O201 Co182 2.021 1_556 S
H202 C193 0.930 . S
H203 C192 0.931 . S
O204 Co180 2.117 . S
O204 C181 1.258 . S
O205 Co180 2.020 . S
O205 C207 1.256 . S
O206 Co182 2.062 1_556 S
O206 C207 1.255 . S
C207 O205 1.256 . S
C207 O206 1.255 . S
H208 C187 0.931 . S
H209 C195 0.931 . S
Co210 N215 2.057 . S
Co210 O227 2.021 1_455 S
Co210 O230 2.062 . S
Co210 O234 2.117 . S
Co210 O235 2.020 . S
C211 O231 1.259 . S
C211 O234 1.258 . S
Co212 N221 2.057 . S
Co212 O228 2.117 . S
Co212 O229 2.020 . S
Co212 O231 2.021 1_655 S
Co212 O236 2.062 . S
C213 N215 1.316 . S
C213 N216 1.347 . S
C213 H218 0.931 . S
C214 N215 1.375 . S
C214 C217 1.350 . S
C214 H219 0.930 . S
N215 Co210 2.057 . S
N215 C213 1.316 . S
N215 C214 1.375 . S
N216 C213 1.347 . S
N216 C217 1.373 . S
C217 C214 1.350 . S
C217 N216 1.373 . S
C217 H238 0.931 . S
H218 C213 0.931 . S
H219 C214 0.930 . S
C220 O227 1.259 . S
C220 O228 1.258 . S
N221 Co212 2.057 . S
N221 C222 1.316 . S
N221 C223 1.375 . S
C222 N221 1.316 . S
C222 N224 1.347 . S
C222 H233 0.931 . S
C223 N221 1.375 . S
C223 C225 1.350 . S
C223 H232 0.930 . S
N224 C222 1.347 . S
N224 C225 1.373 . S
C225 C223 1.350 . S
C225 N224 1.373 . S
C225 H239 0.931 . S
C226 O229 1.256 . S
C226 O230 1.255 1_655 S
O227 Co210 2.021 1_655 S
O227 C220 1.259 . S
O228 Co212 2.117 . S
O228 C220 1.258 . S
O229 Co212 2.020 . S
O229 C226 1.256 . S
O230 Co210 2.062 . S
O230 C226 1.255 1_455 S
O231 C211 1.259 . S
O231 Co212 2.021 1_455 S
H232 C223 0.930 . S
H233 C222 0.931 . S
O234 Co210 2.117 . S
O234 C211 1.258 . S
O235 Co210 2.020 . S
O235 C237 1.256 . S
O236 Co212 2.062 . S
O236 C237 1.255 1_655 S
C237 O235 1.256 . S
C237 O236 1.255 1_455 S
H238 C217 0.931 . S
H239 C225 0.931 . S
H240 C252 0.930 . S
H241 C254 0.930 . S
H242 C255 0.930 . S
H243 C259 0.959 . S
H244 C259 0.959 . S
H245 C259 0.961 . S
H246 C260 0.960 . S
H247 C260 0.961 . S
H248 C260 0.959 . S
H249 C263 0.929 . S
H250 C264 0.931 . S
H251 C266 0.930 . S
C252 H240 0.930 . S
C252 C253 1.399 . S
C252 C257 1.399 . S
C253 C252 1.399 . S
C253 C254 1.376 . S
C254 H241 0.930 . S
C254 C253 1.376 . S
C254 C255 1.388 . S
C255 H242 0.930 . S
C255 C254 1.388 . S
C255 C256 1.390 . S
C256 C255 1.390 . S
C256 C257 1.394 . S
C256 C262 1.465 . S
C257 C252 1.399 . S
C257 C256 1.394 . S
C257 C258 1.516 . S
C258 C257 1.516 . S
C258 C259 1.502 . S
C258 C260 1.561 . S
C258 C261 1.526 . S
C259 H243 0.959 . S
C259 H244 0.959 . S
C259 H245 0.961 . S
C259 C258 1.502 . S
C260 H246 0.960 . S
C260 H247 0.961 . S
C260 H248 0.959 . S
C260 C258 1.561 . S
C261 C258 1.526 . S
C261 C262 1.396 . S
C261 C266 1.390 . S
C262 C256 1.465 . S
C262 C261 1.396 . S
C262 C263 1.399 . S
C263 H249 0.929 . S
C263 C262 1.399 . S
C263 C264 1.385 . S
C264 H250 0.931 . S
C264 C263 1.385 . S
C264 C265 1.389 . S
C265 C264 1.389 . S
C265 C266 1.387 . S
C266 H251 0.930 . S
C266 C261 1.390 . S
C266 C265 1.387 . S
H267 C279 0.930 . S
H268 C281 0.930 . S
H269 C282 0.930 . S
H270 C286 0.959 . S
H271 C286 0.959 . S
H272 C286 0.961 . S
H273 C287 0.960 . S
H274 C287 0.961 . S
H275 C287 0.959 . S
H276 C290 0.929 . S
H277 C291 0.931 . S
H278 C293 0.930 . S
C279 H267 0.930 . S
C279 C280 1.399 . S
C279 C284 1.399 . S
C280 C279 1.399 . S
C280 C281 1.376 . S
C281 H268 0.930 . S
C281 C280 1.376 . S
C281 C282 1.388 . S
C282 H269 0.930 . S
C282 C281 1.388 . S
C282 C283 1.390 . S
C283 C282 1.390 . S
C283 C284 1.394 . S
C283 C289 1.465 . S
C284 C279 1.399 . S
C284 C283 1.394 . S
C284 C285 1.516 . S
C285 C284 1.516 . S
C285 C286 1.502 . S
C285 C287 1.561 . S
C285 C288 1.526 . S
C286 H270 0.959 . S
C286 H271 0.959 . S
C286 H272 0.961 . S
C286 C285 1.502 . S
C287 H273 0.960 . S
C287 H274 0.961 . S
C287 H275 0.959 . S
C287 C285 1.561 . S
C288 C285 1.526 . S
C288 C289 1.396 . S
C288 C293 1.390 . S
C289 C283 1.465 . S
C289 C288 1.396 . S
C289 C290 1.399 . S
C290 H276 0.929 . S
C290 C289 1.399 . S
C290 C291 1.385 . S
C291 H277 0.931 . S
C291 C290 1.385 . S
C291 C292 1.389 . S
C292 C291 1.389 . S
C292 C293 1.387 . S
C293 H278 0.930 . S
C293 C288 1.390 . S
C293 C292 1.387 . S
H294 C306 0.930 . S
H295 C308 0.930 . S
H296 C309 0.930 1_554 S
H297 C313 0.959 . S
H298 C313 0.959 . S
H299 C313 0.961 . S
H300 C314 0.960 . S
H301 C314 0.961 . S
H302 C314 0.959 . S
H303 C317 0.929 . S
H304 C318 0.931 . S
H305 C320 0.930 . S
C306 H294 0.930 . S
C306 C307 1.399 . S
C306 C311 1.399 . S
C307 C306 1.399 . S
C307 C308 1.376 . S
C308 H295 0.930 . S
C308 C307 1.376 . S
C308 C309 1.388 . S
C309 H296 0.930 1_556 S
C309 C308 1.388 . S
C309 C310 1.390 . S
C310 C309 1.390 . S
C310 C311 1.394 . S
C310 C316 1.465 . S
C311 C306 1.399 . S
C311 C310 1.394 . S
C311 C312 1.516 . S
C312 C311 1.516 . S
C312 C313 1.502 . S
C312 C314 1.561 . S
C312 C315 1.526 . S
C313 H297 0.959 . S
C313 H298 0.959 . S
C313 H299 0.961 . S
C313 C312 1.502 . S
C314 H300 0.960 . S
C314 H301 0.961 . S
C314 H302 0.959 . S
C314 C312 1.561 . S
C315 C312 1.526 . S
C315 C316 1.396 . S
C315 C320 1.390 . S
C316 C310 1.465 . S
C316 C315 1.396 . S
C316 C317 1.399 1_556 S
C317 H303 0.929 . S
C317 C316 1.399 1_554 S
C317 C318 1.385 . S
C318 H304 0.931 . S
C318 C317 1.385 . S
C318 C319 1.389 1_554 S
C319 C318 1.389 1_556 S
C319 C320 1.387 . S
C320 H305 0.930 . S
C320 C315 1.390 . S
C320 C319 1.387 . S
H321 C333 0.930 . S
H322 C335 0.930 1_556 S
H323 C336 0.930 1_556 S
H324 C340 0.959 . S
H325 C340 0.959 . S
H326 C340 0.961 . S
H327 C341 0.960 . S
H328 C341 0.961 . S
H329 C341 0.959 . S
H330 C344 0.929 . S
H331 C345 0.931 . S
H332 C347 0.930 . S
C333 H321 0.930 . S
C333 C334 1.399 . S
C333 C338 1.399 . S
C334 C333 1.399 . S
C334 C335 1.376 . S
C335 H322 0.930 1_554 S
C335 C334 1.376 . S
C335 C336 1.388 . S
C336 H323 0.930 1_554 S
C336 C335 1.388 . S
C336 C337 1.390 . S
C337 C336 1.390 . S
C337 C338 1.394 . S
C337 C343 1.465 . S
C338 C333 1.399 . S
C338 C337 1.394 . S
C338 C339 1.516 . S
C339 C338 1.516 . S
C339 C340 1.502 . S
C339 C341 1.561 . S
C339 C342 1.526 . S
C340 H324 0.959 . S
C340 H325 0.959 . S
C340 H326 0.961 . S
C340 C339 1.502 . S
C341 H327 0.960 . S
C341 H328 0.961 . S
C341 H329 0.959 . S
C341 C339 1.561 . S
C342 C339 1.526 . S
C342 C343 1.396 . S
C342 C347 1.390 . S
C343 C337 1.465 . S
C343 C342 1.396 . S
C343 C344 1.399 . S
C344 H330 0.929 . S
C344 C343 1.399 . S
C344 C345 1.385 . S
C345 H331 0.931 . S
C345 C344 1.385 . S
C345 C346 1.389 . S
C346 C345 1.389 . S
C346 C347 1.387 . S
C347 H332 0.930 . S
C347 C342 1.390 . S
C347 C346 1.387 . S
H348 C360 0.930 . S
H349 C362 0.930 . S
H350 C363 0.930 . S
H351 C367 0.959 . S
H352 C367 0.959 . S
H353 C367 0.961 . S
H354 C368 0.960 . S
H355 C368 0.961 . S
H356 C368 0.959 . S
H357 C371 0.929 . S
H358 C372 0.931 . S
H359 C374 0.930 . S
C360 H348 0.930 . S
C360 C361 1.399 . S
C360 C365 1.399 . S
C361 C360 1.399 . S
C361 C362 1.376 . S
C362 H349 0.930 . S
C362 C361 1.376 . S
C362 C363 1.388 . S
C363 H350 0.930 . S
C363 C362 1.388 . S
C363 C364 1.390 . S
C364 C363 1.390 . S
C364 C365 1.394 . S
C364 C370 1.465 . S
C365 C360 1.399 . S
C365 C364 1.394 . S
C365 C366 1.516 . S
C366 C365 1.516 . S
C366 C367 1.502 . S
C366 C368 1.561 . S
C366 C369 1.526 . S
C367 H351 0.959 . S
C367 H352 0.959 . S
C367 H353 0.961 . S
C367 C366 1.502 . S
C368 H354 0.960 . S
C368 H355 0.961 . S
C368 H356 0.959 . S
C368 C366 1.561 . S
C369 C366 1.526 . S
C369 C370 1.396 . S
C369 C374 1.390 . S
C370 C364 1.465 . S
C370 C369 1.396 . S
C370 C371 1.399 . S
C371 H357 0.929 . S
C371 C370 1.399 . S
C371 C372 1.385 . S
C372 H358 0.931 . S
C372 C371 1.385 . S
C372 C373 1.389 . S
C373 C372 1.389 . S
C373 C374 1.387 . S
C374 H359 0.930 . S
C374 C369 1.390 . S
C374 C373 1.387 . S
H375 C387 0.930 . S
H376 C389 0.930 . S
H377 C390 0.930 . S
H378 C394 0.959 . S
H379 C394 0.959 . S
H380 C394 0.961 . S
H381 C395 0.960 . S
H382 C395 0.961 . S
H383 C395 0.959 . S
H384 C398 0.929 . S
H385 C399 0.931 . S
H386 C401 0.930 . S
C387 H375 0.930 . S
C387 C388 1.399 . S
C387 C392 1.399 . S
C388 C387 1.399 . S
C388 C389 1.376 . S
C389 H376 0.930 . S
C389 C388 1.376 . S
C389 C390 1.388 . S
C390 H377 0.930 . S
C390 C389 1.388 . S
C390 C391 1.390 . S
C391 C390 1.390 . S
C391 C392 1.394 . S
C391 C397 1.465 . S
C392 C387 1.399 . S
C392 C391 1.394 . S
C392 C393 1.516 . S
C393 C392 1.516 . S
C393 C394 1.502 . S
C393 C395 1.561 . S
C393 C396 1.526 . S
C394 H378 0.959 . S
C394 H379 0.959 . S
C394 H380 0.961 . S
C394 C393 1.502 . S
C395 H381 0.960 . S
C395 H382 0.961 . S
C395 H383 0.959 . S
C395 C393 1.561 . S
C396 C393 1.526 . S
C396 C397 1.396 . S
C396 C401 1.390 . S
C397 C391 1.465 . S
C397 C396 1.396 . S
C397 C398 1.399 . S
C398 H384 0.929 . S
C398 C397 1.399 . S
C398 C399 1.385 . S
C399 H385 0.931 . S
C399 C398 1.385 . S
C399 C400 1.389 . S
C400 C399 1.389 . S
C400 C401 1.387 . S
C401 H386 0.930 . S
C401 C396 1.390 . S
C401 C400 1.387 . S
H402 C414 0.930 . S
H403 C416 0.930 . S
H404 C417 0.930 . S
H405 C421 0.959 1_554 S
H406 C421 0.959 . S
H407 C421 0.961 . S
H408 C422 0.960 . S
H409 C422 0.961 . S
H410 C422 0.959 . S
H411 C425 0.929 . S
H412 C426 0.931 . S
H413 C428 0.930 1_556 S
C414 H402 0.930 . S
C414 C415 1.399 . S
C414 C419 1.399 . S
C415 C414 1.399 . S
C415 C416 1.376 . S
C416 H403 0.930 . S
C416 C415 1.376 . S
C416 C417 1.388 . S
C417 H404 0.930 . S
C417 C416 1.388 . S
C417 C418 1.390 . S
C418 C417 1.390 . S
C418 C419 1.394 . S
C418 C424 1.465 . S
C419 C414 1.399 . S
C419 C418 1.394 . S
C419 C420 1.516 . S
C420 C419 1.516 . S
C420 C421 1.502 1_554 S
C420 C422 1.561 1_554 S
C420 C423 1.526 . S
C421 H405 0.959 1_556 S
C421 H406 0.959 . S
C421 H407 0.961 . S
C421 C420 1.502 1_556 S
C422 H408 0.960 . S
C422 H409 0.961 . S
C422 H410 0.959 . S
C422 C420 1.561 1_556 S
C423 C420 1.526 . S
C423 C424 1.396 . S
C423 C428 1.390 . S
C424 C418 1.465 . S
C424 C423 1.396 . S
C424 C425 1.399 . S
C425 H411 0.929 . S
C425 C424 1.399 . S
C425 C426 1.385 . S
C426 H412 0.931 . S
C426 C425 1.385 . S
C426 C427 1.389 . S
C427 C426 1.389 . S
C427 C428 1.387 . S
C428 H413 0.930 1_554 S
C428 C423 1.390 . S
C428 C427 1.387 . S
H429 C441 0.930 . S
H430 C443 0.930 . S
H431 C444 0.930 . S
H432 C448 0.959 . S
H433 C448 0.959 . S
H434 C448 0.961 . S
H435 C449 0.960 . S
H436 C449 0.961 . S
H437 C449 0.959 . S
H438 C452 0.929 . S
H439 C453 0.931 . S
H440 C455 0.930 . S
C441 H429 0.930 . S
C441 C442 1.399 . S
C441 C446 1.399 . S
C442 C441 1.399 . S
C442 C443 1.376 . S
C443 H430 0.930 . S
C443 C442 1.376 . S
C443 C444 1.388 . S
C444 H431 0.930 . S
C444 C443 1.388 . S
C444 C445 1.390 . S
C445 C444 1.390 . S
C445 C446 1.394 . S
C445 C451 1.465 . S
C446 C441 1.399 . S
C446 C445 1.394 . S
C446 C447 1.516 . S
C447 C446 1.516 . S
C447 C448 1.502 . S
C447 C449 1.561 . S
C447 C450 1.526 . S
C448 H432 0.959 . S
C448 H433 0.959 . S
C448 H434 0.961 . S
C448 C447 1.502 . S
C449 H435 0.960 . S
C449 H436 0.961 . S
C449 H437 0.959 . S
C449 C447 1.561 . S
C450 C447 1.526 . S
C450 C451 1.396 . S
C450 C455 1.390 . S
C451 C445 1.465 . S
C451 C450 1.396 . S
C451 C452 1.399 . S
C452 H438 0.929 . S
C452 C451 1.399 . S
C452 C453 1.385 . S
C453 H439 0.931 . S
C453 C452 1.385 . S
C453 C454 1.389 . S
C454 C453 1.389 . S
C454 C455 1.387 . S
C455 H440 0.930 . S
C455 C450 1.390 . S
C455 C454 1.387 . S
H456 C468 0.930 . S
H457 C470 0.930 . S
H458 C471 0.930 . S
H459 C475 0.959 . S
H460 C475 0.959 . S
H461 C475 0.961 . S
H462 C476 0.960 . S
H463 C476 0.961 . S
H464 C476 0.959 . S
H465 C479 0.929 . S
H466 C480 0.931 . S
H467 C482 0.930 . S
C468 H456 0.930 . S
C468 C469 1.399 . S
C468 C473 1.399 . S
C469 C468 1.399 . S
C469 C470 1.376 . S
C470 H457 0.930 . S
C470 C469 1.376 . S
C470 C471 1.388 . S
C471 H458 0.930 . S
C471 C470 1.388 . S
C471 C472 1.390 . S
C472 C471 1.390 . S
C472 C473 1.394 . S
C472 C478 1.465 . S
C473 C468 1.399 . S
C473 C472 1.394 . S
C473 C474 1.516 . S
C474 C473 1.516 . S
C474 C475 1.502 . S
C474 C476 1.561 1_556 S
C474 C477 1.526 . S
C475 H459 0.959 . S
C475 H460 0.959 . S
C475 H461 0.961 . S
C475 C474 1.502 . S
C476 H462 0.960 . S
C476 H463 0.961 . S
C476 H464 0.959 . S
C476 C474 1.561 1_554 S
C477 C474 1.526 . S
C477 C478 1.396 . S
C477 C482 1.390 . S
C478 C472 1.465 . S
C478 C477 1.396 . S
C478 C479 1.399 . S
C479 H465 0.929 . S
C479 C478 1.399 . S
C479 C480 1.385 . S
C480 H466 0.931 . S
C480 C479 1.385 . S
C480 C481 1.389 . S
C481 C480 1.389 . S
C481 C482 1.387 . S
C482 H467 0.930 . S
C482 C477 1.390 . S
C482 C481 1.387 . S
H483 C495 0.930 . S
H484 C497 0.930 . S
H485 C498 0.930 1_556 S
H486 C502 0.959 . S
H487 C502 0.959 . S
H488 C502 0.961 . S
H489 C503 0.960 . S
H490 C503 0.961 . S
H491 C503 0.959 . S
H492 C506 0.929 . S
H493 C507 0.931 . S
H494 C509 0.930 . S
C495 H483 0.930 . S
C495 C496 1.399 . S
C495 C500 1.399 . S
C496 C495 1.399 . S
C496 C497 1.376 . S
C497 H484 0.930 . S
C497 C496 1.376 . S
C497 C498 1.388 . S
C498 H485 0.930 1_554 S
C498 C497 1.388 . S
C498 C499 1.390 . S
C499 C498 1.390 . S
C499 C500 1.394 . S
C499 C505 1.465 . S
C500 C495 1.399 . S
C500 C499 1.394 . S
C500 C501 1.516 . S
C501 C500 1.516 . S
C501 C502 1.502 . S
C501 C503 1.561 . S
C501 C504 1.526 . S
C502 H486 0.959 . S
C502 H487 0.959 . S
C502 H488 0.961 . S
C502 C501 1.502 . S
C503 H489 0.960 . S
C503 H490 0.961 . S
C503 H491 0.959 . S
C503 C501 1.561 . S
C504 C501 1.526 . S
C504 C505 1.396 . S
C504 C509 1.390 . S
C505 C499 1.465 . S
C505 C504 1.396 . S
C505 C506 1.399 1_554 S
C506 H492 0.929 . S
C506 C505 1.399 1_556 S
C506 C507 1.385 . S
C507 H493 0.931 . S
C507 C506 1.385 . S
C507 C508 1.389 1_556 S
C508 C507 1.389 1_554 S
C508 C509 1.387 . S
C509 H494 0.930 . S
C509 C504 1.390 . S
C509 C508 1.387 . S
H510 C522 0.930 . S
H511 C524 0.930 . S
H512 C525 0.930 . S
H513 C529 0.959 . S
H514 C529 0.959 . S
H515 C529 0.961 . S
H516 C530 0.960 . S
H517 C530 0.961 . S
H518 C530 0.959 . S
H519 C533 0.929 . S
H520 C534 0.931 . S
H521 C536 0.930 . S
C522 H510 0.930 . S
C522 C523 1.399 . S
C522 C527 1.399 . S
C523 C522 1.399 . S
C523 C524 1.376 . S
C524 H511 0.930 . S
C524 C523 1.376 . S
C524 C525 1.388 . S
C525 H512 0.930 . S
C525 C524 1.388 . S
C525 C526 1.390 . S
C526 C525 1.390 . S
C526 C527 1.394 . S
C526 C532 1.465 . S
C527 C522 1.399 . S
C527 C526 1.394 . S
C527 C528 1.516 . S
C528 C527 1.516 . S
C528 C529 1.502 . S
C528 C530 1.561 . S
C528 C531 1.526 . S
C529 H513 0.959 . S
C529 H514 0.959 . S
C529 H515 0.961 . S
C529 C528 1.502 . S
C530 H516 0.960 . S
C530 H517 0.961 . S
C530 H518 0.959 . S
C530 C528 1.561 . S
C531 C528 1.526 . S
C531 C532 1.396 . S
C531 C536 1.390 . S
C532 C526 1.465 . S
C532 C531 1.396 . S
C532 C533 1.399 . S
C533 H519 0.929 . S
C533 C532 1.399 . S
C533 C534 1.385 . S
C534 H520 0.931 . S
C534 C533 1.385 . S
C534 C535 1.389 . S
C535 C534 1.389 . S
C535 C536 1.387 . S
C536 H521 0.930 . S
C536 C531 1.390 . S
C536 C535 1.387 . S
H537 C549 0.930 . S
H538 C551 0.930 . S
H539 C552 0.930 . S
H540 C556 0.959 . S
H541 C556 0.959 . S
H542 C556 0.961 . S
H543 C557 0.960 . S
H544 C557 0.961 . S
H545 C557 0.959 . S
H546 C560 0.929 . S
H547 C561 0.931 . S
H548 C563 0.930 . S
C549 H537 0.930 . S
C549 C550 1.399 . S
C549 C554 1.399 . S
C550 C549 1.399 . S
C550 C551 1.376 . S
C551 H538 0.930 . S
C551 C550 1.376 . S
C551 C552 1.388 . S
C552 H539 0.930 . S
C552 C551 1.388 . S
C552 C553 1.390 . S
C553 C552 1.390 . S
C553 C554 1.394 . S
C553 C559 1.465 . S
C554 C549 1.399 . S
C554 C553 1.394 . S
C554 C555 1.516 . S
C555 C554 1.516 . S
C555 C556 1.502 . S
C555 C557 1.561 . S
C555 C558 1.526 . S
C556 H540 0.959 . S
C556 H541 0.959 . S
C556 H542 0.961 . S
C556 C555 1.502 . S
C557 H543 0.960 . S
C557 H544 0.961 . S
C557 H545 0.959 . S
C557 C555 1.561 . S
C558 C555 1.526 . S
C558 C559 1.396 . S
C558 C563 1.390 . S
C559 C553 1.465 . S
C559 C558 1.396 . S
C559 C560 1.399 . S
C560 H546 0.929 . S
C560 C559 1.399 . S
C560 C561 1.385 . S
C561 H547 0.931 . S
C561 C560 1.385 . S
C561 C562 1.389 . S
C562 C561 1.389 . S
C562 C563 1.387 . S
C563 H548 0.930 . S
C563 C558 1.390 . S
C563 C562 1.387 . S
H564 C576 0.930 . S
H565 C578 0.930 . S
H566 C579 0.930 . S
H567 C583 0.959 1_554 S
H568 C583 0.959 . S
H569 C583 0.961 . S
H570 C584 0.960 . S
H571 C584 0.961 . S
H572 C584 0.959 . S
H573 C587 0.929 . S
H574 C588 0.931 . S
H575 C590 0.930 . S
C576 H564 0.930 . S
C576 C577 1.399 . S
C576 C581 1.399 . S
C577 C576 1.399 . S
C577 C578 1.376 . S
C578 H565 0.930 . S
C578 C577 1.376 . S
C578 C579 1.388 . S
C579 H566 0.930 . S
C579 C578 1.388 . S
C579 C580 1.390 . S
C580 C579 1.390 . S
C580 C581 1.394 . S
C580 C586 1.465 . S
C581 C576 1.399 . S
C581 C580 1.394 . S
C581 C582 1.516 . S
C582 C581 1.516 . S
C582 C583 1.502 1_554 S
C582 C584 1.561 1_554 S
C582 C585 1.526 . S
C583 H567 0.959 1_556 S
C583 H568 0.959 . S
C583 H569 0.961 . S
C583 C582 1.502 1_556 S
C584 H570 0.960 . S
C584 H571 0.961 . S
C584 H572 0.959 . S
C584 C582 1.561 1_556 S
C585 C582 1.526 . S
C585 C586 1.396 . S
C585 C590 1.390 1_554 S
C586 C580 1.465 . S
C586 C585 1.396 . S
C586 C587 1.399 . S
C587 H573 0.929 . S
C587 C586 1.399 . S
C587 C588 1.385 . S
C588 H574 0.931 . S
C588 C587 1.385 . S
C588 C589 1.389 . S
C589 C588 1.389 . S
C589 C590 1.387 1_554 S
C590 H575 0.930 . S
C590 C585 1.390 1_556 S
C590 C589 1.387 1_556 S
H591 C603 0.930 . S
H592 C605 0.930 . S
H593 C606 0.930 . S
H594 C610 0.959 . S
H595 C610 0.959 . S
H596 C610 0.961 . S
H597 C611 0.960 . S
H598 C611 0.961 . S
H599 C611 0.959 . S
H600 C614 0.929 1_554 S
H601 C615 0.931 . S
H602 C617 0.930 . S
C603 H591 0.930 . S
C603 C604 1.399 . S
C603 C608 1.399 . S
C604 C603 1.399 . S
C604 C605 1.376 1_556 S
C605 H592 0.930 . S
C605 C604 1.376 1_554 S
C605 C606 1.388 . S
C606 H593 0.930 . S
C606 C605 1.388 . S
C606 C607 1.390 1_554 S
C607 C606 1.390 1_556 S
C607 C608 1.394 . S
C607 C613 1.465 . S
C608 C603 1.399 . S
C608 C607 1.394 . S
C608 C609 1.516 . S
C609 C608 1.516 . S
C609 C610 1.502 . S
C609 C611 1.561 . S
C609 C612 1.526 . S
C610 H594 0.959 . S
C610 H595 0.959 . S
C610 H596 0.961 . S
C610 C609 1.502 . S
C611 H597 0.960 . S
C611 H598 0.961 . S
C611 H599 0.959 . S
C611 C609 1.561 . S
C612 C609 1.526 . S
C612 C613 1.396 . S
C612 C617 1.390 . S
C613 C607 1.465 . S
C613 C612 1.396 . S
C613 C614 1.399 . S
C614 H600 0.929 1_556 S
C614 C613 1.399 . S
C614 C615 1.385 . S
C615 H601 0.931 . S
C615 C614 1.385 . S
C615 C616 1.389 . S
C616 C615 1.389 . S
C616 C617 1.387 . S
C617 H602 0.930 . S
C617 C612 1.390 . S
C617 C616 1.387 . S
H618 C630 0.930 . S
H619 C632 0.930 . S
H620 C633 0.930 . S
H621 C637 0.959 . S
H622 C637 0.959 . S
H623 C637 0.961 . S
H624 C638 0.960 . S
H625 C638 0.961 . S
H626 C638 0.959 . S
H627 C641 0.929 . S
H628 C642 0.931 . S
H629 C644 0.930 . S
C630 H618 0.930 . S
C630 C631 1.399 . S
C630 C635 1.399 . S
C631 C630 1.399 . S
C631 C632 1.376 . S
C632 H619 0.930 . S
C632 C631 1.376 . S
C632 C633 1.388 . S
C633 H620 0.930 . S
C633 C632 1.388 . S
C633 C634 1.390 . S
C634 C633 1.390 . S
C634 C635 1.394 . S
C634 C640 1.465 . S
C635 C630 1.399 . S
C635 C634 1.394 . S
C635 C636 1.516 . S
C636 C635 1.516 . S
C636 C637 1.502 . S
C636 C638 1.561 . S
C636 C639 1.526 . S
C637 H621 0.959 . S
C637 H622 0.959 . S
C637 H623 0.961 . S
C637 C636 1.502 . S
C638 H624 0.960 . S
C638 H625 0.961 . S
C638 H626 0.959 . S
C638 C636 1.561 . S
C639 C636 1.526 . S
C639 C640 1.396 . S
C639 C644 1.390 . S
C640 C634 1.465 . S
C640 C639 1.396 . S
C640 C641 1.399 . S
C641 H627 0.929 . S
C641 C640 1.399 . S
C641 C642 1.385 . S
C642 H628 0.931 . S
C642 C641 1.385 . S
C642 C643 1.389 . S
C643 C642 1.389 . S
C643 C644 1.387 . S
C644 H629 0.930 . S
C644 C639 1.390 . S
C644 C643 1.387 . S
H645 C657 0.930 . S
H646 C659 0.930 . S
H647 C660 0.930 . S
H648 C664 0.959 . S
H649 C664 0.959 . S
H650 C664 0.961 . S
H651 C665 0.960 . S
H652 C665 0.961 . S
H653 C665 0.959 . S
H654 C668 0.929 . S
H655 C669 0.931 . S
H656 C671 0.930 . S
C657 H645 0.930 . S
C657 C658 1.399 . S
C657 C662 1.399 . S
C658 C657 1.399 . S
C658 C659 1.376 . S
C659 H646 0.930 . S
C659 C658 1.376 . S
C659 C660 1.388 . S
C660 H647 0.930 . S
C660 C659 1.388 . S
C660 C661 1.390 . S
C661 C660 1.390 . S
C661 C662 1.394 . S
C661 C667 1.465 . S
C662 C657 1.399 . S
C662 C661 1.394 . S
C662 C663 1.516 . S
C663 C662 1.516 . S
C663 C664 1.502 . S
C663 C665 1.561 . S
C663 C666 1.526 . S
C664 H648 0.959 . S
C664 H649 0.959 . S
C664 H650 0.961 . S
C664 C663 1.502 . S
C665 H651 0.960 . S
C665 H652 0.961 . S
C665 H653 0.959 . S
C665 C663 1.561 . S
C666 C663 1.526 . S
C666 C667 1.396 . S
C666 C671 1.390 . S
C667 C661 1.465 . S
C667 C666 1.396 . S
C667 C668 1.399 . S
C668 H654 0.929 . S
C668 C667 1.399 . S
C668 C669 1.385 . S
C669 H655 0.931 . S
C669 C668 1.385 . S
C669 C670 1.389 . S
C670 C669 1.389 . S
C670 C671 1.387 . S
C671 H656 0.930 . S
C671 C666 1.390 . S
C671 C670 1.387 . S
H672 C684 0.930 . S
H673 C686 0.930 . S
H674 C687 0.930 . S
H675 C691 0.959 . S
H676 C691 0.959 . S
H677 C691 0.961 . S
H678 C692 0.960 . S
H679 C692 0.961 1_554 S
H680 C692 0.959 . S
H681 C695 0.929 . S
H682 C696 0.931 . S
H683 C698 0.930 . S
C684 H672 0.930 . S
C684 C685 1.399 1_665 S
C684 C689 1.399 . S
C685 C684 1.399 1_445 S
C685 C686 1.376 . S
C686 H673 0.930 . S
C686 C685 1.376 . S
C686 C687 1.388 . S
C687 H674 0.930 . S
C687 C686 1.388 . S
C687 C688 1.390 . S
C688 C687 1.390 . S
C688 C689 1.394 1_445 S
C688 C694 1.465 1_556 S
C689 C684 1.399 . S
C689 C688 1.394 1_665 S
C689 C690 1.515 . S
C690 C689 1.515 . S
C690 C691 1.502 . S
C690 C692 1.561 1_655 S
C690 C693 1.525 1_556 S
C691 H675 0.959 . S
C691 H676 0.959 . S
C691 H677 0.961 . S
C691 C690 1.502 . S
C692 H678 0.960 . S
C692 H679 0.961 1_556 S
C692 H680 0.959 . S
C692 C690 1.561 1_455 S
C693 C690 1.525 1_554 S
C693 C694 1.386 1_665 S
C693 C698 1.400 . S
C694 C688 1.465 1_554 S
C694 C693 1.386 1_445 S
C694 C695 1.399 . S
C695 H681 0.929 . S
C695 C694 1.399 . S
C695 C696 1.385 . S
C696 H682 0.931 . S
C696 C695 1.385 . S
C696 C697 1.387 1_445 S
C697 C696 1.387 1_665 S
C697 C698 1.387 . S
C698 H683 0.930 . S
C698 C693 1.400 . S
C698 C697 1.387 . S
H699 C711 0.930 . S
H700 C713 0.930 . S
H701 C714 0.930 . S
H702 C718 0.959 . S
H703 C718 0.959 . S
H704 C718 0.961 . S
H705 C719 0.960 . S
H706 C719 0.961 . S
H707 C719 0.959 . S
H708 C722 0.929 . S
H709 C723 0.931 . S
H710 C725 0.930 . S
C711 H699 0.930 . S
C711 C712 1.399 . S
C711 C716 1.399 . S
C712 C711 1.399 . S
C712 C713 1.376 . S
C713 H700 0.930 . S
C713 C712 1.376 . S
C713 C714 1.388 . S
C714 H701 0.930 . S
C714 C713 1.388 . S
C714 C715 1.390 . S
C715 C714 1.390 . S
C715 C716 1.394 . S
C715 C721 1.465 . S
C716 C711 1.399 . S
C716 C715 1.394 . S
C716 C717 1.516 . S
C717 C716 1.516 . S
C717 C718 1.502 . S
C717 C719 1.561 . S
C717 C720 1.526 . S
C718 H702 0.959 . S
C718 H703 0.959 . S
C718 H704 0.961 . S
C718 C717 1.502 . S
C719 H705 0.960 . S
C719 H706 0.961 . S
C719 H707 0.959 . S
C719 C717 1.561 . S
C720 C717 1.526 . S
C720 C721 1.396 . S
C720 C725 1.390 . S
C721 C715 1.465 . S
C721 C720 1.396 . S
C721 C722 1.399 . S
C722 H708 0.929 . S
C722 C721 1.399 . S
C722 C723 1.385 . S
C723 H709 0.931 . S
C723 C722 1.385 . S
C723 C724 1.389 . S
C724 C723 1.389 . S
C724 C725 1.387 . S
C725 H710 0.930 . S
C725 C720 1.390 . S
C725 C724 1.387 . S
H726 C738 0.930 . S
H727 C740 0.930 . S
H728 C741 0.930 . S
H729 C745 0.959 . S
H730 C745 0.959 . S
H731 C745 0.961 . S
H732 C746 0.960 . S
H733 C746 0.961 . S
H734 C746 0.959 . S
H735 C749 0.929 . S
H736 C750 0.931 . S
H737 C752 0.930 . S
C738 H726 0.930 . S
C738 C739 1.399 1_565 S
C738 C743 1.399 . S
C739 C738 1.399 1_545 S
C739 C740 1.376 . S
C740 H727 0.930 . S
C740 C739 1.376 . S
C740 C741 1.388 . S
C741 H728 0.930 . S
C741 C740 1.388 . S
C741 C742 1.390 . S
C742 C741 1.390 . S
C742 C743 1.394 1_545 S
C742 C748 1.465 . S
C743 C738 1.399 . S
C743 C742 1.394 1_565 S
C743 C744 1.516 . S
C744 C743 1.516 . S
C744 C745 1.502 . S
C744 C746 1.561 . S
C744 C747 1.526 . S
C745 H729 0.959 . S
C745 H730 0.959 . S
C745 H731 0.961 . S
C745 C744 1.502 . S
C746 H732 0.960 . S
C746 H733 0.961 . S
C746 H734 0.959 . S
C746 C744 1.561 . S
C747 C744 1.526 . S
C747 C748 1.396 1_565 S
C747 C752 1.390 . S
C748 C742 1.465 . S
C748 C747 1.396 1_545 S
C748 C749 1.399 . S
C749 H735 0.929 . S
C749 C748 1.399 . S
C749 C750 1.385 . S
C750 H736 0.931 . S
C750 C749 1.385 . S
C750 C751 1.389 . S
C751 C750 1.389 . S
C751 C752 1.387 1_545 S
C752 H737 0.930 . S
C752 C747 1.390 . S
C752 C751 1.387 1_565 S
H753 C765 0.930 . S
H754 C767 0.930 . S
H755 C768 0.930 . S
H756 C772 0.959 . S
H757 C772 0.959 . S
H758 C772 0.961 . S
H759 C773 0.960 . S
H760 C773 0.961 . S
H761 C773 0.959 . S
H762 C776 0.929 . S
H763 C777 0.931 . S
H764 C779 0.930 . S
C765 H753 0.930 . S
C765 C766 1.399 . S
C765 C770 1.399 . S
C766 C765 1.399 . S
C766 C767 1.376 . S
C767 H754 0.930 . S
C767 C766 1.376 . S
C767 C768 1.388 . S
C768 H755 0.930 . S
C768 C767 1.388 . S
C768 C769 1.390 . S
C769 C768 1.390 . S
C769 C770 1.394 . S
C769 C775 1.465 . S
C770 C765 1.399 . S
C770 C769 1.394 . S
C770 C771 1.516 . S
C771 C770 1.516 . S
C771 C772 1.502 . S
C771 C773 1.561 . S
C771 C774 1.526 . S
C772 H756 0.959 . S
C772 H757 0.959 . S
C772 H758 0.961 . S
C772 C771 1.502 . S
C773 H759 0.960 . S
C773 H760 0.961 . S
C773 H761 0.959 . S
C773 C771 1.561 . S
C774 C771 1.526 . S
C774 C775 1.396 . S
C774 C779 1.390 . S
C775 C769 1.465 . S
C775 C774 1.396 . S
C775 C776 1.399 . S
C776 H762 0.929 . S
C776 C775 1.399 . S
C776 C777 1.385 . S
C777 H763 0.931 . S
C777 C776 1.385 . S
C777 C778 1.389 . S
C778 C777 1.389 . S
C778 C779 1.387 . S
C779 H764 0.930 . S
C779 C774 1.390 . S
C779 C778 1.387 . S
H780 C792 0.930 . S
H781 C794 0.930 . S
H782 C795 0.930 . S
H783 C799 0.959 . S
H784 C799 0.959 . S
H785 C799 0.961 . S
H786 C800 0.960 . S
H787 C800 0.961 . S
H788 C800 0.959 . S
H789 C803 0.929 . S
H790 C804 0.931 . S
H791 C806 0.930 . S
C792 H780 0.930 . S
C792 C793 1.399 . S
C792 C797 1.399 . S
C793 C792 1.399 . S
C793 C794 1.376 . S
C794 H781 0.930 . S
C794 C793 1.376 . S
C794 C795 1.388 . S
C795 H782 0.930 . S
C795 C794 1.388 . S
C795 C796 1.390 . S
C796 C795 1.390 . S
C796 C797 1.394 . S
C796 C802 1.465 . S
C797 C792 1.399 . S
C797 C796 1.394 . S
C797 C798 1.516 . S
C798 C797 1.516 . S
C798 C799 1.502 . S
C798 C800 1.561 . S
C798 C801 1.526 . S
C799 H783 0.959 . S
C799 H784 0.959 . S
C799 H785 0.961 . S
C799 C798 1.502 . S
C800 H786 0.960 . S
C800 H787 0.961 . S
C800 H788 0.959 . S
C800 C798 1.561 . S
C801 C798 1.526 . S
C801 C802 1.396 . S
C801 C806 1.390 . S
C802 C796 1.465 . S
C802 C801 1.396 . S
C802 C803 1.399 . S
C803 H789 0.929 . S
C803 C802 1.399 . S
C803 C804 1.385 . S
C804 H790 0.931 . S
C804 C803 1.385 . S
C804 C805 1.389 . S
C805 C804 1.389 . S
C805 C806 1.387 . S
C806 H791 0.930 . S
C806 C801 1.390 . S
C806 C805 1.387 . S
H807 C819 0.930 . S
H808 C821 0.930 . S
H809 C822 0.930 . S
H810 C826 0.959 . S
H811 C826 0.959 . S
H812 C826 0.961 . S
H813 C827 0.960 . S
H814 C827 0.961 . S
H815 C827 0.959 . S
H816 C830 0.929 . S
H817 C831 0.931 . S
H818 C833 0.930 . S
C819 H807 0.930 . S
C819 C820 1.399 . S
C819 C824 1.399 . S
C820 C819 1.399 . S
C820 C821 1.376 . S
C821 H808 0.930 . S
C821 C820 1.376 . S
C821 C822 1.388 . S
C822 H809 0.930 . S
C822 C821 1.388 . S
C822 C823 1.390 . S
C823 C822 1.390 . S
C823 C824 1.394 . S
C823 C829 1.465 . S
C824 C819 1.399 . S
C824 C823 1.394 . S
C824 C825 1.516 . S
C825 C824 1.516 . S
C825 C826 1.502 . S
C825 C827 1.561 . S
C825 C828 1.526 . S
C826 H810 0.959 . S
C826 H811 0.959 . S
C826 H812 0.961 . S
C826 C825 1.502 . S
C827 H813 0.960 . S
C827 H814 0.961 . S
C827 H815 0.959 . S
C827 C825 1.561 . S
C828 C825 1.526 . S
C828 C829 1.396 . S
C828 C833 1.390 . S
C829 C823 1.465 . S
C829 C828 1.396 . S
C829 C830 1.399 . S
C830 H816 0.929 . S
C830 C829 1.399 . S
C830 C831 1.385 . S
C831 H817 0.931 . S
C831 C830 1.385 . S
C831 C832 1.389 . S
C832 C831 1.389 . S
C832 C833 1.387 . S
C833 H818 0.930 . S
C833 C828 1.390 . S
C833 C832 1.387 . S
H834 C846 0.930 . S
H835 C848 0.930 . S
H836 C849 0.930 . S
H837 C853 0.959 . S
H838 C853 0.959 . S
H839 C853 0.961 . S
H840 C854 0.960 . S
H841 C854 0.961 . S
H842 C854 0.959 . S
H843 C857 0.929 . S
H844 C858 0.931 . S
H845 C860 0.930 . S
C846 H834 0.930 . S
C846 C847 1.399 . S
C846 C851 1.399 . S
C847 C846 1.399 . S
C847 C848 1.376 . S
C848 H835 0.930 . S
C848 C847 1.376 . S
C848 C849 1.388 . S
C849 H836 0.930 . S
C849 C848 1.388 . S
C849 C850 1.390 . S
C850 C849 1.390 . S
C850 C851 1.394 . S
C850 C856 1.465 . S
C851 C846 1.399 . S
C851 C850 1.394 . S
C851 C852 1.516 . S
C852 C851 1.516 . S
C852 C853 1.502 . S
C852 C854 1.561 . S
C852 C855 1.526 . S
C853 H837 0.959 . S
C853 H838 0.959 . S
C853 H839 0.961 . S
C853 C852 1.502 . S
C854 H840 0.960 . S
C854 H841 0.961 . S
C854 H842 0.959 . S
C854 C852 1.561 . S
C855 C852 1.526 . S
C855 C856 1.396 . S
C855 C860 1.390 . S
C856 C850 1.465 . S
C856 C855 1.396 . S
C856 C857 1.399 . S
C857 H843 0.929 . S
C857 C856 1.399 . S
C857 C858 1.385 . S
C858 H844 0.931 . S
C858 C857 1.385 . S
C858 C859 1.389 . S
C859 C858 1.389 . S
C859 C860 1.387 . S
C860 H845 0.930 . S
C860 C855 1.390 . S
C860 C859 1.387 . S
H861 C873 0.930 . S
H862 C875 0.930 . S
H863 C876 0.930 . S
H864 C880 0.959 . S
H865 C880 0.959 1_554 S
H866 C880 0.961 . S
H867 C881 0.960 . S
H868 C881 0.961 1_554 S
H869 C881 0.960 . S
H870 C884 0.929 . S
H871 C885 0.931 . S
H872 C887 0.930 . S
C873 H861 0.930 . S
C873 C874 1.399 1_655 S
C873 C878 1.399 . S
C874 C873 1.399 1_455 S
C874 C875 1.376 . S
C875 H862 0.930 . S
C875 C874 1.376 . S
C875 C876 1.388 . S
C876 H863 0.930 . S
C876 C875 1.388 . S
C876 C877 1.390 . S
C877 C876 1.390 . S
C877 C878 1.394 1_455 S
C877 C883 1.465 1_556 S
C878 C873 1.399 . S
C878 C877 1.394 1_655 S
C878 C879 1.516 . S
C879 C878 1.516 . S
C879 C880 1.502 . S
C879 C881 1.561 1_655 S
C879 C882 1.526 1_556 S
C880 H864 0.959 . S
C880 H865 0.959 1_556 S
C880 H866 0.961 . S
C880 C879 1.502 . S
C881 H867 0.960 . S
C881 H868 0.961 1_556 S
C881 H869 0.960 . S
C881 C879 1.561 1_455 S
C882 C879 1.526 1_554 S
C882 C883 1.396 1_655 S
C882 C887 1.390 . S
C883 C877 1.465 1_554 S
C883 C882 1.396 1_455 S
C883 C884 1.399 . S
C884 H870 0.929 . S
C884 C883 1.399 . S
C884 C885 1.385 . S
C885 H871 0.931 . S
C885 C884 1.385 . S
C885 C886 1.389 . S
C886 C885 1.389 . S
C886 C887 1.387 1_455 S
C887 H872 0.930 . S
C887 C882 1.390 . S
C887 C886 1.387 1_655 S
C253 N14 0.535 . S
C265 N104 0.557 . S
C280 C10 1.493 . S
C292 N44 1.496 . S
C307 C40 2.751 . S
C319 C70 2.749 . S
C334 N74 1.484 . S
C346 C100 1.485 . S
C361 N6 0.603 . S
C373 N156 0.605 . S
C388 C1 1.508 . S
C400 N126 1.481 . S
C415 C121 2.748 . S
C427 C61 2.748 . S
C442 C151 1.504 . S
C454 N66 1.443 . S
C469 N194 0.526 . S
C481 N164 0.532 . S
C496 N134 1.468 . S
C508 C190 1.507 . S
C523 C220 2.740 . S
C535 C130 2.750 . S
C550 C160 1.497 . S
C562 N224 1.460 . S
C577 N96 0.561 . S
C589 N186 0.564 . S
C604 C181 1.502 . S
C616 N36 1.495 . S
C631 C31 2.747 . S
C643 C211 2.747 . S
C658 C91 1.510 . S
C670 N216 1.472 . S
C685 C16 1.289 . S
C697 C27 1.253 . S
C712 C57 1.226 . S
C724 C46 1.232 1_554 S
C739 C76 1.236 . S
C751 C87 1.226 1_545 S
C766 C106 1.256 1_556 S
C778 C117 1.281 . S
C793 C147 1.232 1_556 S
C805 C136 1.226 . S
C820 C166 1.251 . S
C832 C177 1.288 1_554 S
C847 C207 1.259 . S
C859 C196 1.288 . S
C874 C237 1.229 . S
C886 C226 1.230 1_455 S
