# Generated by pormake.
# Topology umx, (4)-cn, num edge types: 1
# Building blocks:
#     Node 0, Type 0, BuildingBlock: TATPOV_clean_sbu_0, # of connection points: 4
#     Node 1, Type 0, BuildingBlock: TATPOV_clean_sbu_0, # of connection points: 4
#     Node 2, Type 0, BuildingBlock: TATPOV_clean_sbu_0, # of connection points: 4
#     Node 3, Type 0, BuildingBlock: TATPOV_clean_sbu_0, # of connection points: 4
#     Node 4, Type 0, BuildingBlock: TATPOV_clean_sbu_0, # of connection points: 4
#     Node 5, Type 0, BuildingBlock: TATPOV_clean_sbu_0, # of connection points: 4
#     Node 6, Type 0, BuildingBlock: TATPOV_clean_sbu_0, # of connection points: 4
#     Node 7, Type 0, BuildingBlock: TATPOV_clean_sbu_0, # of connection points: 4
#     Edge 8, Type (0, 0), BuildingBlock: XUDNAN_clean_linker_2, # of connection points: 2
#     Edge 9, Type (0, 0), BuildingBlock: XUDNAN_clean_linker_2, # of connection points: 2
#     Edge 10, Type (0, 0), BuildingBlock: XUDNAN_clean_linker_2, # of connection points: 2
#     Edge 11, Type (0, 0), BuildingBlock: XUDNAN_clean_linker_2, # of connection points: 2
#     Edge 12, Type (0, 0), BuildingBlock: XUDNAN_clean_linker_2, # of connection points: 2
#     Edge 13, Type (0, 0), BuildingBlock: XUDNAN_clean_linker_2, # of connection points: 2
#     Edge 14, Type (0, 0), BuildingBlock: XUDNAN_clean_linker_2, # of connection points: 2
#     Edge 15, Type (0, 0), BuildingBlock: XUDNAN_clean_linker_2, # of connection points: 2
#     Edge 16, Type (0, 0), BuildingBlock: XUDNAN_clean_linker_2, # of connection points: 2
#     Edge 17, Type (0, 0), BuildingBlock: XUDNAN_clean_linker_2, # of connection points: 2
#     Edge 18, Type (0, 0), BuildingBlock: XUDNAN_clean_linker_2, # of connection points: 2
#     Edge 19, Type (0, 0), BuildingBlock: XUDNAN_clean_linker_2, # of connection points: 2
#     Edge 20, Type (0, 0), BuildingBlock: XUDNAN_clean_linker_2, # of connection points: 2
#     Edge 21, Type (0, 0), BuildingBlock: XUDNAN_clean_linker_2, # of connection points: 2
#     Edge 22, Type (0, 0), BuildingBlock: XUDNAN_clean_linker_2, # of connection points: 2
#     Edge 23, Type (0, 0), BuildingBlock: XUDNAN_clean_linker_2, # of connection points: 2
# Relax obj value: 0.211
# Max RMSD: 0.756
# Mean RMSD: 0.325
data_MOF--net-umx--node1-TATPOV_clean_sbu_0--edge1-XUDNAN_clean_linker_2
_symmetry_space_group_name_H-M    P1
_symmetry_Int_Tables_number       1
_symmetry_cell_setting            triclinic
loop_
_symmetry_equiv_pos_as_xyz
'x, y, z'
_cell_length_a     43.733894
_cell_length_b     19.997988
_cell_length_c     28.059406
_cell_angle_alpha  89.898516
_cell_angle_beta   90.11532
_cell_angle_gamma 102.30613
loop_
_atom_site_label
_atom_site_type_symbol
_atom_site_fract_x
_atom_site_fract_y
_atom_site_fract_z
_atom_type_partial_charge
Zn0 Zn 0.09407 0.35706 0.97982 0.0
Zn1 Zn 0.09265 0.22412 0.00922 0.0
O2 O 0.10531 0.23541 0.94079 0.0
O3 O 0.12544 0.34479 0.92776 0.0
O4 O 0.10017 0.13062 0.0268 0.0
O5 O 0.09754 0.35946 0.0556 0.0
O6 O 0.12434 0.28071 0.05213 0.0
C7 C 0.11987 0.28283 0.91399 0.0
C8 C 0.03727 0.28307 -0.00793 0.0
O9 O 0.04878 0.24704 0.02197 0.0
O10 O 0.05283 0.29988 0.95461 0.0
C11 C 0.11258 0.10113 -0.0059 0.0
O12 O 0.09771 0.09055 0.95314 0.0
C13 C 0.11292 0.32154 0.07722 0.0
Zn14 Zn 0.49602 0.36194 0.50726 0.0
Zn15 Zn 0.55119 0.37509 0.50645 0.0
O16 O 0.53216 0.38019 0.43868 0.0
O17 O 0.48182 0.37886 0.44379 0.0
O18 O 0.59519 0.43078 0.5073 0.0
O19 O 0.48731 0.41773 0.56153 0.0
O20 O 0.5316 0.38527 0.57278 0.0
C21 C 0.50581 0.37967 0.41884 0.0
C22 C 0.52707 0.24003 0.51772 0.0
O23 O 0.55358 0.27802 0.50899 0.0
O24 O 0.50255 0.2645 0.52003 0.0
C25 C 0.61155 0.43088 0.47002 0.0
O26 O 0.599 0.39569 0.43275 0.0
C27 C 0.50777 0.40429 0.5895 0.0
Zn28 Zn 0.90033 0.61388 0.00996 0.0
Zn29 Zn 0.92677 0.77079 0.00996 0.0
O30 O 0.91578 0.74022 0.94364 0.0
O31 O 0.88655 0.63513 0.94153 0.0
O32 O 0.90879 0.85599 0.01998 0.0
O33 O 0.87726 0.61125 0.07646 0.0
O34 O 0.90316 0.71163 0.057 0.0
C35 C 0.89992 0.69021 0.92045 0.0
C36 C 0.97264 0.69403 0.01726 0.0
O37 O 0.9713 0.75742 0.01859 0.0
O38 O 0.94803 0.64685 0.01431 0.0
C39 C 0.89636 0.87751 0.98347 0.0
O40 O 0.91029 0.87572 0.94222 0.0
C41 C 0.88774 0.67307 0.08779 0.0
Zn42 Zn 0.52302 0.68304 0.49653 0.0
Zn43 Zn 0.47063 0.60974 0.49851 0.0
O44 O 0.49119 0.58805 0.43483 0.0
O45 O 0.53184 0.6747 0.42955 0.0
O46 O 0.42814 0.54304 0.50249 0.0
O47 O 0.54323 0.63606 0.545 0.0
O48 O 0.49345 0.59941 0.5627 0.0
C49 C 0.51413 0.6232 0.41132 0.0
C50 C 0.47777 0.76011 0.50579 0.0
O51 O 0.45952 0.70373 0.49554 0.0
O52 O 0.50643 0.76331 0.51387 0.0
C53 C 0.40382 0.55923 0.48483 0.0
O54 O 0.40671 0.61797 0.46244 0.0
C55 C 0.52235 0.60842 0.57398 0.0
Zn56 Zn 0.06235 0.16502 0.49813 0.0
Zn57 Zn 0.11877 0.25092 0.49547 0.0
O58 O 0.10897 0.2032 0.55875 0.0
O59 O 0.06872 0.11609 0.55983 0.0
O60 O 0.16562 0.28461 0.49833 0.0
O61 O 0.06579 0.13229 0.43025 0.0
O62 O 0.11028 0.20803 0.42993 0.0
C63 C 0.09136 0.15459 0.58102 0.0
C64 C 0.06721 0.31782 0.50515 0.0
O65 O 0.09658 0.32858 0.49816 0.0
O66 O 0.05046 0.25762 0.50718 0.0
C67 C 0.17961 0.34695 0.50144 0.0
O68 O 0.16312 0.39469 0.50226 0.0
C69 C 0.0895 0.16489 0.40792 0.0
Zn70 Zn 0.46222 0.34756 -0.00899 0.0
Zn71 Zn 0.41056 0.26605 0.00619 0.0
O72 O 0.42469 0.31602 0.06986 0.0
O73 O 0.46804 0.39104 0.05326 0.0
O74 O 0.36363 0.22805 0.00389 0.0
O75 O 0.45416 0.39844 0.93359 0.0
O76 O 0.4186 0.30304 0.93833 0.0
C77 C 0.44814 0.36184 0.08319 0.0
C78 C 0.46058 0.19709 -0.00788 0.0
O79 O 0.43239 0.18766 0.00636 0.0
O80 O 0.47608 0.25668 0.98207 0.0
C81 C 0.342 0.23243 0.03317 0.0
O82 O 0.34925 0.26294 0.07434 0.0
C83 C 0.43389 0.35243 0.91381 0.0
Zn84 Zn 0.95306 0.82206 0.49793 0.0
Zn85 Zn 0.89484 0.74195 0.49924 0.0
O86 O 0.89349 0.80502 0.55447 0.0
O87 O 0.94369 0.83938 0.56811 0.0
O88 O 0.85089 0.68988 0.48907 0.0
O89 O 0.94435 0.87061 0.4365 0.0
O90 O 0.90579 0.77993 0.43377 0.0
C91 C 0.91589 0.82432 0.58362 0.0
C92 C 0.94805 0.67483 0.50374 0.0
O93 O 0.91978 0.6721 0.51529 0.0
O94 O 0.96546 0.73008 0.48907 0.0
C95 C 0.83048 0.66457 0.51996 0.0
O96 O 0.83741 0.67095 0.56548 0.0
C97 C 0.92346 0.83009 0.41316 0.0
Zn98 Zn 0.53887 0.65854 0.00483 0.0
Zn99 Zn 0.59951 0.7036 -0.00244 0.0
O100 O 0.59064 0.65584 0.06244 0.0
O101 O 0.54391 0.5893 0.05415 0.0
O102 O 0.64664 0.73773 -0.00893 0.0
O103 O 0.53663 0.63826 0.93509 0.0
O104 O 0.58783 0.64893 0.93626 0.0
C105 C 0.56862 0.60876 0.07825 0.0
C106 C 0.55674 0.80206 0.01029 0.0
O107 O 0.58236 0.7902 -0.0053 0.0
O108 O 0.53513 0.75351 0.02443 0.0
C109 C 0.66783 0.74763 0.02307 0.0
O110 O 0.66003 0.73401 0.06778 0.0
C111 C 0.56176 0.63403 0.91436 0.0
H112 H 0.14894 0.3359 0.15897 0.0
H113 H 0.0565 0.24669 0.10495 0.0
H114 H 0.04169 0.19134 0.18125 0.0
H115 H 0.15788 0.19079 0.2261 0.0
H116 H 0.17752 0.23821 0.276 0.0
H117 H 0.18081 0.27617 0.21743 0.0
H118 H 0.15982 0.37988 0.24901 0.0
H119 H 0.15745 0.34316 0.30789 0.0
H120 H 0.12331 0.36472 0.2811 0.0
H121 H 0.03731 0.13952 0.26238 0.0
H122 H 0.04162 0.10932 0.34707 0.0
H123 H 0.137 0.22895 0.34977 0.0
C124 C 0.12538 0.30621 0.16379 0.0
C125 C 0.10346 0.2984 0.12618 0.0
C126 C 0.07322 0.25694 0.13337 0.0
C127 C 0.0647 0.2238 0.17669 0.0
C128 C 0.08685 0.23167 0.21278 0.0
C129 C 0.11639 0.27267 0.20727 0.0
C130 C 0.13562 0.2721 0.25214 0.0
C131 C 0.16468 0.24256 0.24231 0.0
C132 C 0.14457 0.34424 0.27382 0.0
C133 C 0.1123 0.22428 0.28327 0.0
C134 C 0.0844 0.20098 0.25968 0.0
C135 C 0.05907 0.15743 0.28138 0.0
C136 C 0.06185 0.13992 0.32939 0.0
C137 C 0.08966 0.16653 0.35517 0.0
C138 C 0.1155 0.20723 0.33107 0.0
H139 H 0.48936 0.48386 0.65769 0.0
H140 H 0.5026 0.27961 0.62846 0.0
H141 H 0.47725 0.23859 0.70499 0.0
H142 H 0.51136 0.46663 0.78254 0.0
H143 H 0.48775 0.52494 0.80234 0.0
H144 H 0.50384 0.53157 0.74301 0.0
H145 H 0.44862 0.52533 0.70726 0.0
H146 H 0.43187 0.51496 0.76611 0.0
H147 H 0.41835 0.45139 0.72098 0.0
H148 H 0.45026 0.22165 0.78488 0.0
H149 H 0.43317 0.2336 0.8676 0.0
H150 H 0.44268 0.45179 0.84639 0.0
C151 C 0.48721 0.43085 0.6678 0.0
C152 C 0.49802 0.38483 0.63801 0.0
C153 C 0.49482 0.31556 0.65181 0.0
C154 C 0.48003 0.2917 0.69462 0.0
C155 C 0.46916 0.3384 0.7232 0.0
C156 C 0.47351 0.40674 0.711 0.0
C157 C 0.4643 0.4482 0.75102 0.0
C158 C 0.49354 0.49573 0.77123 0.0
C159 C 0.43929 0.48728 0.73538 0.0
C160 C 0.45177 0.39263 0.78613 0.0
C161 C 0.45487 0.3293 0.76968 0.0
C162 C 0.44732 0.27084 0.79781 0.0
C163 C 0.43735 0.27809 0.8445 0.0
C164 C 0.43578 0.34352 0.86245 0.0
C165 C 0.44262 0.40109 0.83276 0.0
H166 H 0.93773 0.73135 0.35897 0.0
H167 H 0.90693 0.92306 0.35157 0.0
H168 H 0.89448 0.90246 0.26569 0.0
H169 H 0.97047 0.73946 0.23376 0.0
H170 H 0.95822 0.64804 0.22711 0.0
H171 H 0.96955 0.68437 0.28488 0.0
H172 H 0.91626 0.62063 0.31866 0.0
H173 H 0.90425 0.58587 0.26085 0.0
H174 H 0.88053 0.63483 0.29226 0.0
H175 H 0.87969 0.85398 0.18468 0.0
H176 H 0.86927 0.78778 0.11019 0.0
H177 H 0.9079 0.6254 0.17122 0.0
C178 C 0.92944 0.77008 0.33862 0.0
C179 C 0.92355 0.82918 0.36106 0.0
C180 C 0.91209 0.87834 0.33432 0.0
C181 C 0.90479 0.86665 0.28585 0.0
C182 C 0.90941 0.80596 0.26527 0.0
C183 C 0.92222 0.75926 0.29047 0.0
C184 C 0.92331 0.6964 0.2609 0.0
C185 C 0.95741 0.69182 0.25106 0.0
C186 C 0.90498 0.63058 0.28461 0.0
C187 C 0.90724 0.71297 0.21599 0.0
C188 C 0.89993 0.77689 0.21908 0.0
C189 C 0.88524 0.8039 0.18202 0.0
C190 C 0.87883 0.76562 0.1402 0.0
C191 C 0.88642 0.70074 0.13588 0.0
C192 C 0.90051 0.67357 0.17448 0.0
H193 H 0.52997 0.69248 0.84945 0.0
H194 H 0.59372 0.55472 0.86398 0.0
H195 H 0.59388 0.54072 0.77622 0.0
H196 H 0.48143 0.62305 0.75884 0.0
H197 H 0.48199 0.70088 0.72718 0.0
H198 H 0.48934 0.70287 0.79021 0.0
H199 H 0.54078 0.79045 0.77508 0.0
H200 H 0.53345 0.7859 0.71178 0.0
H201 H 0.56962 0.76983 0.73513 0.0
H202 H 0.58276 0.53219 0.68955 0.0
H203 H 0.56203 0.53204 0.6073 0.0
H204 H 0.50596 0.67625 0.64956 0.0
C205 C 0.54388 0.65932 0.83391 0.0
C206 C 0.56141 0.62343 0.86284 0.0
C207 C 0.58004 0.58192 0.84192 0.0
C208 C 0.5805 0.57438 0.79235 0.0
C209 C 0.56312 0.6108 0.76463 0.0
C210 C 0.5454 0.65317 0.78456 0.0
C211 C 0.5287 0.68616 0.74667 0.0
C212 C 0.49337 0.67741 0.75635 0.0
C213 C 0.54408 0.76257 0.74187 0.0
C214 C 0.53573 0.6468 0.70342 0.0
C215 C 0.55713 0.60685 0.71406 0.0
C216 C 0.56651 0.56412 0.68045 0.0
C217 C 0.55424 0.56323 0.63433 0.0
C218 C 0.53185 0.6023 0.62326 0.0
C219 C 0.52247 0.64454 0.65804 0.0
H220 H 0.9336 0.88635 0.67093 0.0
H221 H 0.89127 0.6936 0.60397 0.0
H222 H 0.8842 0.63707 0.68211 0.0
H223 H 0.97497 0.80887 0.76342 0.0
H224 H 0.96924 0.86848 0.80893 0.0
H225 H 0.97208 0.8946 0.74732 0.0
H226 H 0.91852 0.92979 0.75323 0.0
H227 H 0.9157 0.90427 0.8149 0.0
H228 H 0.88481 0.86821 0.77391 0.0
H229 H 0.8793 0.60164 0.76679 0.0
H230 H 0.8773 0.5901 0.85457 0.0
H231 H 0.92377 0.80422 0.86739 0.0
C232 C 0.9226 0.83253 0.67309 0.0
C233 C 0.91146 0.79491 0.63182 0.0
C234 C 0.89818 0.72403 0.63555 0.0
C235 C 0.89463 0.69112 0.67966 0.0
C236 C 0.90492 0.72958 0.7199 0.0
C237 C 0.91881 0.79857 0.71727 0.0
C238 C 0.92733 0.82752 0.76654 0.0
C239 C 0.96302 0.85124 0.77186 0.0
C240 C 0.91058 0.88589 0.77778 0.0
C241 C 0.91483 0.76471 0.79681 0.0
C242 C 0.90247 0.70857 0.76917 0.0
C243 C 0.88887 0.64522 0.78906 0.0
C244 C 0.88756 0.63924 0.83887 0.0
C245 C 0.89969 0.6964 0.86796 0.0
C246 C 0.91378 0.75961 0.84635 0.0
H247 H 0.56357 0.7021 0.14332 0.0
H248 H 0.56412 0.48722 0.12602 0.0
H249 H 0.55147 0.4676 0.21201 0.0
H250 H 0.59265 0.72703 0.26553 0.0
H251 H 0.56575 0.78054 0.2806 0.0
H252 H 0.5796 0.77877 0.2203 0.0
H253 H 0.52213 0.74658 0.19048 0.0
H254 H 0.50822 0.74723 0.25076 0.0
H255 H 0.49619 0.67183 0.21452 0.0
H256 H 0.54264 0.47621 0.30074 0.0
H257 H 0.52637 0.50437 0.38209 0.0
H258 H 0.5225 0.70739 0.33513 0.0
C259 C 0.56223 0.65151 0.15825 0.0
C260 C 0.56633 0.59662 0.12941 0.0
C261 C 0.56233 0.53005 0.14864 0.0
C262 C 0.55504 0.51862 0.19707 0.0
C263 C 0.551 0.5741 0.22465 0.0
C264 C 0.55385 0.63894 0.20566 0.0
C265 C 0.54449 0.68796 0.24092 0.0
C266 C 0.57228 0.74705 0.25253 0.0
C267 C 0.51607 0.71493 0.22308 0.0
C268 C 0.53603 0.64062 0.2829 0.0
C269 C 0.5407 0.57578 0.27328 0.0
C270 C 0.53701 0.52514 0.30806 0.0
C271 C 0.5273 0.54062 0.35347 0.0
C272 C 0.52094 0.60519 0.36296 0.0
C273 C 0.52583 0.65628 0.32763 0.0
H274 H 0.10778 0.34588 0.8308 0.0
H275 H 0.14097 0.17274 0.88715 0.0
H276 H 0.13331 0.11596 0.80894 0.0
H277 H 0.04874 0.25383 0.7571 0.0
H278 H 0.05489 0.31294 0.70773 0.0
H279 H 0.06482 0.34342 0.76731 0.0
H280 H 0.12166 0.39554 0.74127 0.0
H281 H 0.11157 0.36715 0.68129 0.0
H282 H 0.14403 0.34247 0.71107 0.0
H283 H 0.11683 0.07241 0.72784 0.0
H284 H 0.10391 0.05617 0.64176 0.0
H285 H 0.08395 0.25924 0.63636 0.0
C286 C 0.11473 0.2975 0.82593 0.0
C287 C 0.12528 0.26343 0.86477 0.0
C288 C 0.13312 0.19923 0.85758 0.0
C289 C 0.12849 0.16643 0.81349 0.0
C290 C 0.11636 0.19916 0.77657 0.0
C291 C 0.1105 0.26416 0.78166 0.0
C292 C 0.09787 0.28773 0.73569 0.0
C293 C 0.06461 0.30018 0.7424 0.0
C294 C 0.12012 0.35201 0.71617 0.0
C295 C 0.09769 0.22579 0.70445 0.0
C296 C 0.1078 0.17472 0.72901 0.0
C297 C 0.10924 0.11226 0.70783 0.0
C298 C 0.10167 0.10307 0.65929 0.0
C299 C 0.09322 0.15651 0.63307 0.0
C300 C 0.09047 0.21775 0.65611 0.0
H301 H 0.46095 0.41658 0.36374 0.0
H302 H 0.54277 0.32615 0.35812 0.0
H303 H 0.53525 0.30907 0.27137 0.0
H304 H 0.4144 0.31023 0.27794 0.0
H305 H 0.39877 0.3781 0.25148 0.0
H306 H 0.41029 0.38305 0.31326 0.0
H307 H 0.44856 0.50096 0.29871 0.0
H308 H 0.43531 0.49652 0.23771 0.0
H309 H 0.4764 0.50828 0.25071 0.0
H310 H 0.51941 0.30276 0.18716 0.0
H311 H 0.49684 0.30965 0.10731 0.0
H312 H 0.42541 0.40574 0.1667 0.0
C313 C 0.4772 0.39305 0.34417 0.0
C314 C 0.50244 0.37273 0.36716 0.0
C315 C 0.52349 0.34262 0.34075 0.0
C316 C 0.51931 0.33241 0.29171 0.0
C317 C 0.49428 0.35356 0.27007 0.0
C318 C 0.47378 0.38385 0.2952 0.0
C319 C 0.44945 0.4039 0.263 0.0
C320 C 0.41626 0.36656 0.27728 0.0
C321 C 0.45263 0.48203 0.26255 0.0
C322 C 0.45906 0.37875 0.21581 0.0
C323 C 0.48513 0.35031 0.22092 0.0
C324 C 0.49906 0.3249 0.18261 0.0
C325 C 0.48617 0.32924 0.13763 0.0
C326 C 0.45966 0.35852 0.13157 0.0
C327 C 0.44563 0.38303 0.17094 0.0
H328 H 0.991 0.63313 0.94225 0.0
H329 H 0.01512 0.68886 0.08839 0.0
H330 H 0.03289 0.58045 0.09966 0.0
H331 H 0.95149 0.47781 0.97683 0.0
H332 H 0.95795 0.43119 0.92424 0.0
H333 H 0.95815 0.52111 0.92024 0.0
H334 H 0.01406 0.54838 0.88462 0.0
H335 H 0.01295 0.45794 0.88465 0.0
H336 H 0.04476 0.51588 0.91367 0.0
H337 H 0.03446 0.45423 0.10061 0.0
H338 H 0.03618 0.33469 0.08367 0.0
H339 H 1.00393 0.35719 0.93963 0.0
C340 C 1.00247 0.62496 0.97541 0.0
C341 C 1.00177 0.66915 0.01447 0.0
C342 C 0.01576 0.65599 0.05793 0.0
C343 C 0.02502 0.59347 0.06495 0.0
C344 C 0.01988 0.54543 0.0281 0.0
C345 C 0.00958 0.56113 0.9837 0.0
C346 C 1.00042 0.49777 0.95289 0.0
C347 C 0.96492 0.48105 0.94297 0.0
C348 C 0.01921 0.50546 0.90622 0.0
C349 C 0.00912 0.44472 -0.01433 0.0
C350 C 0.01941 0.47264 0.02933 0.0
C351 C 0.02731 0.43245 0.06603 0.0
C352 C 0.02776 0.36382 0.05623 0.0
C353 C 0.02136 0.3368 0.00972 0.0
C354 C 0.00945 0.37649 0.97538 0.0
H355 H 0.4898 0.8547 0.43762 0.0
H356 H 0.44744 0.80947 0.57644 0.0
H357 H 0.45712 0.93293 0.5943 0.0
H358 H 0.55056 0.9698 0.47362 0.0
H359 H 0.55408 0.02985 0.42492 0.0
H360 H 0.53608 0.94134 0.41527 0.0
H361 H 0.4851 0.9722 0.38412 0.0
H362 H 0.50378 0.06121 0.39019 0.0
H363 H 0.46662 0.02857 0.41852 0.0
H364 H 0.48306 0.05227 0.6051 0.0
H365 H 0.50859 0.1741 0.59894 0.0
H366 H 0.53487 0.14406 0.45294 0.0
C367 C 0.48051 0.87153 0.47021 0.0
C368 C 0.4674 0.82396 0.50552 0.0
C369 C 0.4567 0.84607 0.5488 0.0
C370 C 0.46265 0.91579 0.55943 0.0
C371 C 0.47886 0.96133 0.52595 0.0
C372 C 0.48649 0.94083 0.48131 0.0
C373 C 0.50663 -0.00067 0.45389 0.0
C374 C 0.53872 0.98411 0.44122 0.0
C375 C 0.48949 0.01637 0.40905 0.0
C376 C 0.50984 0.05526 0.49085 0.0
C377 C 0.49402 0.03158 0.53225 0.0
C378 C 0.49474 0.07216 0.57249 0.0
C379 C 0.50967 0.14073 0.56898 0.0
C380 C 0.52339 0.16732 0.52562 0.0
C381 C 0.52479 0.12396 0.48664 0.0
H382 H 0.05567 0.41333 0.44236 0.0
H383 H 0.04325 0.34468 0.589 0.0
H384 H 0.00936 0.42689 0.60387 0.0
H385 H 0.05688 0.59369 0.46278 0.0
H386 H 0.03468 0.6017 0.40965 0.0
H387 H 0.05928 0.54014 0.41185 0.0
H388 H 0.01138 0.44474 0.38926 0.0
H389 H 0.98647 0.5058 0.38847 0.0
H390 H 0.97682 0.43104 0.42596 0.0
H391 H 0.97396 0.50834 0.60112 0.0
H392 H 0.94503 0.59955 0.58426 0.0
H393 H 0.98166 0.6181 0.44027 0.0
C394 C 0.0464 0.41731 0.47777 0.0
C395 C 0.0521 0.37428 0.51493 0.0
C396 C 0.0391 0.37843 0.56056 0.0
C397 C 0.01976 0.42432 0.56914 0.0
C398 C 0.0136 0.46475 0.53143 0.0
C399 C 0.02682 0.46256 0.48683 0.0
C400 C 0.01573 0.51061 0.45238 0.0
C401 C 0.0433 0.56476 0.43307 0.0
C402 C 0.99646 0.47065 0.41162 0.0
C403 C 0.99518 0.54176 0.48514 0.0
C404 C 0.99359 0.51313 0.53017 0.0
C405 C 0.97521 0.53179 0.56619 0.0
C406 C 0.9588 0.58302 0.55631 0.0
C407 C 0.96165 0.61538 0.51129 0.0
C408 C 0.97959 0.59404 0.47508 0.0
H409 H 0.52391 0.86841 0.06996 0.0
H410 H 0.57224 0.88504 0.93419 0.0
H411 H 0.55195 0.98785 0.91461 0.0
H412 H 0.456 0.91518 0.03457 0.0
H413 H 0.45199 0.9678 0.08533 0.0
H414 H 0.47243 0.8991 0.09139 0.0
H415 H 0.52171 0.98328 0.12283 0.0
H416 H 0.50112 0.0521 0.11817 0.0
H417 H 0.53818 0.05866 0.08861 0.0
H418 H 0.52343 0.08134 0.90682 0.0
H419 H 0.49288 0.17132 0.9152 0.0
H420 H 0.4632 0.09567 0.05628 0.0
C421 C 0.53073 0.89491 0.03669 0.0
C422 C 0.54966 0.86965 0.00357 0.0
C423 C 0.55816 0.90475 0.96022 0.0
C424 C 0.54656 0.96265 0.94867 0.0
C425 C 0.52718 0.98527 0.98142 0.0
C426 C 0.51998 0.95381 0.02508 0.0
C427 C 0.49883 0.98923 0.05384 0.0
C428 C 0.46798 0.93985 0.06701 0.0
C429 C 0.51598 0.02281 0.0985 0.0
C430 C 0.49373 0.0427 0.01822 0.0
C431 C 0.51068 0.03993 0.97697 0.0
C432 C 0.51028 0.08461 0.93904 0.0
C433 C 0.49286 0.13513 0.944 0.0
C434 C 0.47579 0.13945 -0.01385 0.0
C435 C 0.47577 0.09222 0.02344 0.0
H436 H 0.15544 0.14371 0.06706 0.0
H437 H 0.14869 0.07001 0.92113 0.0
H438 H 0.20612 0.09728 0.91491 0.0
H439 H 0.22013 0.27907 0.0575 0.0
H440 H 0.23897 0.26259 0.11218 0.0
H441 H 0.19714 0.23622 0.10631 0.0
H442 H 0.2 0.11132 0.12703 0.0
H443 H 0.24186 0.13755 0.13359 0.0
H444 H 0.22544 0.06944 0.09312 0.0
H445 H 0.26434 0.14148 0.9221 0.0
H446 H 0.31931 0.18494 0.94573 0.0
H447 H 0.28925 0.2209 0.08906 0.0
C448 C 0.16601 0.13247 0.03399 0.0
C449 C 0.14725 0.10688 -0.00598 0.0
C450 C 0.16228 0.09159 0.95185 0.0
C451 C 0.19501 0.10665 0.94794 0.0
C452 C 0.21271 0.13426 -0.01275 0.0
C453 C 0.19883 0.14499 0.02997 0.0
C454 C 0.22349 0.17211 0.06741 0.0
C455 C 0.21969 0.24164 0.08697 0.0
C456 C 0.22264 0.11948 0.10768 0.0
C457 C 0.25319 0.17888 0.03825 0.0
C458 C 0.24644 0.15617 -0.00782 0.0
C459 C 0.26992 0.15825 0.95834 0.0
C460 C 0.30114 0.18308 0.97217 0.0
C461 C 0.30875 0.20577 0.01946 0.0
C462 C 0.2843 0.20372 0.05274 0.0
H463 H 0.77853 0.61464 0.57513 0.0
H464 H 0.81102 0.63622 0.42849 0.0
H465 H 0.75838 0.5811 0.40063 0.0
H466 H 0.72672 0.44933 0.56099 0.0
H467 H 0.69715 0.46858 0.60019 0.0
H468 H 0.7376 0.50956 0.60899 0.0
H469 H 0.72297 0.62818 0.604 0.0
H470 H 0.68249 0.58761 0.5948 0.0
H471 H 0.70239 0.64956 0.55235 0.0
H472 H 0.70329 0.52305 0.38802 0.0
H473 H 0.64779 0.46419 0.3913 0.0
H474 H 0.6497 0.48181 0.54562 0.0
C475 C 0.77456 0.60759 0.53719 0.0
C476 C 0.79891 0.62983 0.50401 0.0
C477 C 0.79277 0.61979 0.45463 0.0
C478 C 0.76293 0.58854 0.43838 0.0
C479 C 0.73944 0.56772 0.47188 0.0
C480 C 0.74478 0.57665 0.52023 0.0
C481 C 0.7152 0.54945 0.54845 0.0
C482 C 0.71943 0.49073 0.5816 0.0
C483 C 0.70517 0.60715 0.57654 0.0
C484 C 0.69252 0.52373 0.50824 0.0
C485 C 0.70712 0.53478 0.46447 0.0
C486 C 0.69147 0.51418 0.42202 0.0
C487 C 0.65999 0.4807 0.42426 0.0
C488 C 0.64445 0.46852 0.46863 0.0
C489 C 0.66092 0.49092 0.51114 0.0
H490 H 0.85421 0.85623 0.05893 0.0
H491 H 0.86034 0.89736 0.90712 0.0
H492 H 0.80291 0.87462 0.90221 0.0
H493 H 0.79109 0.71393 0.05161 0.0
H494 H 0.77147 0.73114 0.10521 0.0
H495 H 0.81315 0.75983 0.10012 0.0
H496 H 0.80913 0.88447 0.11725 0.0
H497 H 0.76738 0.85627 0.12391 0.0
H498 H 0.78301 0.92329 0.08208 0.0
H499 H 0.74511 0.83499 0.91109 0.0
H500 H 0.69044 0.78899 0.93462 0.0
H501 H 0.7205 0.76902 0.08061 0.0
C502 C 0.84352 0.86062 0.02481 0.0
C503 C 0.86212 0.87739 0.98339 0.0
C504 C 0.84694 0.88453 0.93951 0.0
C505 C 0.81418 0.8714 0.93625 0.0
C506 C 0.79663 0.85135 0.97719 0.0
C507 C 0.81067 0.84667 0.02085 0.0
C508 C 0.78618 0.82039 0.05878 0.0
C509 C 0.79077 0.75229 0.08014 0.0
C510 C 0.78645 0.87435 0.09781 0.0
C511 C 0.75637 0.81002 0.0293 0.0
C512 C 0.763 0.82852 0.98239 0.0
C513 C 0.73959 0.82114 0.94786 0.0
C514 C 0.70855 0.79465 0.96161 0.0
C515 C 0.70099 0.77557 0.00954 0.0
C516 C 0.72538 0.78356 0.04376 0.0
H517 H 0.34721 0.59277 0.46927 0.0
H518 H 0.38908 0.42463 0.51403 0.0
H519 H 0.33616 0.35104 0.52345 0.0
H520 H 0.28297 0.55887 0.55118 0.0
H521 H 0.25564 0.58303 0.50981 0.0
H522 H 0.2967 0.62155 0.5055 0.0
H523 H 0.29687 0.58262 0.41734 0.0
H524 H 0.25579 0.54428 0.42142 0.0
H525 H 0.28306 0.49345 0.4029 0.0
H526 H 0.27797 0.29517 0.52563 0.0
H527 H 0.22008 0.26399 0.52413 0.0
H528 H 0.21729 0.47136 0.48179 0.0
C529 C 0.34536 0.54039 0.48088 0.0
C530 C 0.37234 0.51432 0.49064 0.0
C531 C 0.36876 0.44568 0.50628 0.0
C532 C 0.3388 0.40352 0.51167 0.0
C533 C 0.3127 0.43101 0.50173 0.0
C534 C 0.31576 0.49806 0.48695 0.0
C535 C 0.28415 0.51597 0.47947 0.0
C536 C 0.27961 0.57324 0.51353 0.0
C537 C 0.27972 0.5352 0.42718 0.0
C538 C 0.26275 0.44859 0.49224 0.0
C539 C 0.27956 0.3999 0.5046 0.0
C540 C 0.26465 0.33311 0.51629 0.0
C541 C 0.23177 0.31586 0.51524 0.0
C542 C 0.2142 0.36542 0.50308 0.0
C543 C 0.23004 0.43258 0.49172 0.0
loop_
_geom_bond_atom_site_label_1
_geom_bond_atom_site_label_2
_geom_bond_distance
_geom_bond_site_symmetry_2
_ccdc_geom_bond_type
Zn0 O3 2.031 1_554 S
Zn0 O5 2.049 . S
Zn0 O10 2.067 . S
Zn1 O2 1.962 1_554 S
Zn1 O4 1.986 . S
Zn1 O6 1.996 . S
Zn1 O9 1.943 . S
O2 Zn1 1.962 1_556 S
O2 C7 1.254 . S
O3 Zn0 2.031 1_556 S
O3 C7 1.269 . S
O4 Zn1 1.986 . S
O4 C11 1.262 . S
O5 Zn0 2.049 . S
O5 C13 1.260 . S
O6 Zn1 1.996 . S
O6 C13 1.257 . S
C7 O2 1.254 . S
C7 O3 1.269 . S
C8 O9 1.249 . S
C8 O10 1.270 . S
O9 Zn1 1.943 . S
O9 C8 1.249 . S
O10 Zn0 2.067 . S
O10 C8 1.270 . S
C11 O4 1.262 . S
C11 O12 1.232 1_554 S
O12 C11 1.232 1_556 S
C13 O5 1.260 . S
C13 O6 1.257 . S
Zn14 O17 2.031 . S
Zn14 O19 2.049 . S
Zn14 O24 2.067 . S
Zn15 O16 1.962 . S
Zn15 O18 1.986 . S
Zn15 O20 1.996 . S
Zn15 O23 1.943 . S
O16 Zn15 1.962 . S
O16 C21 1.254 . S
O17 Zn14 2.031 . S
O17 C21 1.269 . S
O18 Zn15 1.986 . S
O18 C25 1.262 . S
O19 Zn14 2.049 . S
O19 C27 1.260 . S
O20 Zn15 1.996 . S
O20 C27 1.257 . S
C21 O16 1.254 . S
C21 O17 1.269 . S
C22 O23 1.249 . S
C22 O24 1.270 . S
O23 Zn15 1.943 . S
O23 C22 1.249 . S
O24 Zn14 2.067 . S
O24 C22 1.270 . S
C25 O18 1.262 . S
C25 O26 1.232 . S
O26 C25 1.232 . S
C27 O19 1.260 . S
C27 O20 1.257 . S
Zn28 O31 2.031 1_554 S
Zn28 O33 2.049 . S
Zn28 O38 2.067 . S
Zn29 O30 1.962 1_554 S
Zn29 O32 1.986 . S
Zn29 O34 1.996 . S
Zn29 O37 1.943 . S
O30 Zn29 1.962 1_556 S
O30 C35 1.254 . S
O31 Zn28 2.031 1_556 S
O31 C35 1.269 . S
O32 Zn29 1.986 . S
O32 C39 1.262 . S
O33 Zn28 2.049 . S
O33 C41 1.260 . S
O34 Zn29 1.996 . S
O34 C41 1.257 . S
C35 O30 1.254 . S
C35 O31 1.269 . S
C36 O37 1.249 . S
C36 O38 1.270 . S
O37 Zn29 1.943 . S
O37 C36 1.249 . S
O38 Zn28 2.067 . S
O38 C36 1.270 . S
C39 O32 1.262 . S
C39 O40 1.232 1_554 S
O40 C39 1.232 1_556 S
C41 O33 1.260 . S
C41 O34 1.257 . S
Zn42 O45 2.031 . S
Zn42 O47 2.049 . S
Zn42 O52 2.067 . S
Zn43 O44 1.962 . S
Zn43 O46 1.986 . S
Zn43 O48 1.996 . S
Zn43 O51 1.943 . S
O44 Zn43 1.962 . S
O44 C49 1.254 . S
O45 Zn42 2.031 . S
O45 C49 1.269 . S
O46 Zn43 1.986 . S
O46 C53 1.262 . S
O47 Zn42 2.049 . S
O47 C55 1.260 . S
O48 Zn43 1.996 . S
O48 C55 1.257 . S
C49 O44 1.254 . S
C49 O45 1.269 . S
C50 O51 1.249 . S
C50 O52 1.270 . S
O51 Zn43 1.943 . S
O51 C50 1.249 . S
O52 Zn42 2.067 . S
O52 C50 1.270 . S
C53 O46 1.262 . S
C53 O54 1.232 . S
O54 C53 1.232 . S
C55 O47 1.260 . S
C55 O48 1.257 . S
Zn56 O59 2.031 . S
Zn56 O61 2.049 . S
Zn56 O66 2.067 . S
Zn57 O58 1.962 . S
Zn57 O60 1.986 . S
Zn57 O62 1.996 . S
Zn57 O65 1.943 . S
O58 Zn57 1.962 . S
O58 C63 1.254 . S
O59 Zn56 2.031 . S
O59 C63 1.269 . S
O60 Zn57 1.986 . S
O60 C67 1.262 . S
O61 Zn56 2.049 . S
O61 C69 1.260 . S
O62 Zn57 1.996 . S
O62 C69 1.257 . S
C63 O58 1.254 . S
C63 O59 1.269 . S
C64 O65 1.249 . S
C64 O66 1.270 . S
O65 Zn57 1.943 . S
O65 C64 1.249 . S
O66 Zn56 2.067 . S
O66 C64 1.270 . S
C67 O60 1.262 . S
C67 O68 1.232 . S
O68 C67 1.232 . S
C69 O61 1.260 . S
C69 O62 1.257 . S
Zn70 O73 2.031 . S
Zn70 O75 2.049 1_554 S
Zn70 O80 2.067 . S
Zn71 O72 1.962 . S
Zn71 O74 1.986 1_554 S
Zn71 O76 1.996 1_554 S
Zn71 O79 1.943 . S
O72 Zn71 1.962 . S
O72 C77 1.254 . S
O73 Zn70 2.031 . S
O73 C77 1.269 . S
O74 Zn71 1.986 1_556 S
O74 C81 1.262 1_556 S
O75 Zn70 2.049 1_556 S
O75 C83 1.260 . S
O76 Zn71 1.996 1_556 S
O76 C83 1.257 . S
C77 O72 1.254 . S
C77 O73 1.269 . S
C78 O79 1.249 . S
C78 O80 1.270 . S
O79 Zn71 1.943 . S
O79 C78 1.249 . S
O80 Zn70 2.067 . S
O80 C78 1.270 . S
C81 O74 1.262 1_554 S
C81 O82 1.232 . S
O82 C81 1.232 . S
C83 O75 1.260 . S
C83 O76 1.257 . S
Zn84 O87 2.031 . S
Zn84 O89 2.049 . S
Zn84 O94 2.067 . S
Zn85 O86 1.962 . S
Zn85 O88 1.986 . S
Zn85 O90 1.996 . S
Zn85 O93 1.943 . S
O86 Zn85 1.962 . S
O86 C91 1.254 . S
O87 Zn84 2.031 . S
O87 C91 1.269 . S
O88 Zn85 1.986 . S
O88 C95 1.262 . S
O89 Zn84 2.049 . S
O89 C97 1.260 . S
O90 Zn85 1.996 . S
O90 C97 1.257 . S
C91 O86 1.254 . S
C91 O87 1.269 . S
C92 O93 1.249 . S
C92 O94 1.270 . S
O93 Zn85 1.943 . S
O93 C92 1.249 . S
O94 Zn84 2.067 . S
O94 C92 1.270 . S
C95 O88 1.262 . S
C95 O96 1.232 . S
O96 C95 1.232 . S
C97 O89 1.260 . S
C97 O90 1.257 . S
Zn98 O101 2.031 . S
Zn98 O103 2.049 1_554 S
Zn98 O108 2.067 . S
Zn99 O100 1.962 . S
Zn99 O102 1.986 1_554 S
Zn99 O104 1.996 1_554 S
Zn99 O107 1.943 . S
O100 Zn99 1.962 . S
O100 C105 1.254 . S
O101 Zn98 2.031 . S
O101 C105 1.269 . S
O102 Zn99 1.986 1_556 S
O102 C109 1.262 1_556 S
O103 Zn98 2.049 1_556 S
O103 C111 1.260 . S
O104 Zn99 1.996 1_556 S
O104 C111 1.257 . S
C105 O100 1.254 . S
C105 O101 1.269 . S
C106 O107 1.249 . S
C106 O108 1.270 . S
O107 Zn99 1.943 . S
O107 C106 1.249 . S
O108 Zn98 2.067 . S
O108 C106 1.270 . S
C109 O102 1.262 1_554 S
C109 O110 1.232 . S
O110 C109 1.232 . S
C111 O103 1.260 . S
C111 O104 1.257 . S
H112 C124 0.930 . S
H113 C126 0.930 . S
H114 C127 0.930 . S
H115 C131 0.959 . S
H116 C131 0.959 . S
H117 C131 0.961 . S
H118 C132 0.960 . S
H119 C132 0.961 . S
H120 C132 0.959 . S
H121 C135 0.929 . S
H122 C136 0.931 . S
H123 C138 0.930 . S
C124 H112 0.930 . S
C124 C125 1.399 . S
C124 C129 1.399 . S
C125 C124 1.399 . S
C125 C126 1.376 . S
C126 H113 0.930 . S
C126 C125 1.376 . S
C126 C127 1.388 . S
C127 H114 0.930 . S
C127 C126 1.388 . S
C127 C128 1.390 . S
C128 C127 1.390 . S
C128 C129 1.394 . S
C128 C134 1.465 . S
C129 C124 1.399 . S
C129 C128 1.394 . S
C129 C130 1.516 . S
C130 C129 1.516 . S
C130 C131 1.502 . S
C130 C132 1.561 . S
C130 C133 1.526 . S
C131 H115 0.959 . S
C131 H116 0.959 . S
C131 H117 0.961 . S
C131 C130 1.502 . S
C132 H118 0.960 . S
C132 H119 0.961 . S
C132 H120 0.959 . S
C132 C130 1.561 . S
C133 C130 1.526 . S
C133 C134 1.396 . S
C133 C138 1.390 . S
C134 C128 1.465 . S
C134 C133 1.396 . S
C134 C135 1.399 . S
C135 H121 0.929 . S
C135 C134 1.399 . S
C135 C136 1.385 . S
C136 H122 0.931 . S
C136 C135 1.385 . S
C136 C137 1.389 . S
C137 C136 1.389 . S
C137 C138 1.387 . S
C138 H123 0.930 . S
C138 C133 1.390 . S
C138 C137 1.387 . S
H139 C151 0.930 . S
H140 C153 0.930 . S
H141 C154 0.930 . S
H142 C158 0.959 . S
H143 C158 0.959 . S
H144 C158 0.961 . S
H145 C159 0.960 . S
H146 C159 0.961 . S
H147 C159 0.959 . S
H148 C162 0.929 . S
H149 C163 0.931 . S
H150 C165 0.930 . S
C151 H139 0.930 . S
C151 C152 1.399 . S
C151 C156 1.399 . S
C152 C151 1.399 . S
C152 C153 1.376 . S
C153 H140 0.930 . S
C153 C152 1.376 . S
C153 C154 1.388 . S
C154 H141 0.930 . S
C154 C153 1.388 . S
C154 C155 1.390 . S
C155 C154 1.390 . S
C155 C156 1.394 . S
C155 C161 1.465 . S
C156 C151 1.399 . S
C156 C155 1.394 . S
C156 C157 1.516 . S
C157 C156 1.516 . S
C157 C158 1.502 . S
C157 C159 1.561 . S
C157 C160 1.526 . S
C158 H142 0.959 . S
C158 H143 0.959 . S
C158 H144 0.961 . S
C158 C157 1.502 . S
C159 H145 0.960 . S
C159 H146 0.961 . S
C159 H147 0.959 . S
C159 C157 1.561 . S
C160 C157 1.526 . S
C160 C161 1.396 . S
C160 C165 1.390 . S
C161 C155 1.465 . S
C161 C160 1.396 . S
C161 C162 1.399 . S
C162 H148 0.929 . S
C162 C161 1.399 . S
C162 C163 1.385 . S
C163 H149 0.931 . S
C163 C162 1.385 . S
C163 C164 1.389 . S
C164 C163 1.389 . S
C164 C165 1.387 . S
C165 H150 0.930 . S
C165 C160 1.390 . S
C165 C164 1.387 . S
H166 C178 0.930 . S
H167 C180 0.930 . S
H168 C181 0.930 . S
H169 C185 0.959 . S
H170 C185 0.959 . S
H171 C185 0.961 . S
H172 C186 0.960 . S
H173 C186 0.961 . S
H174 C186 0.959 . S
H175 C189 0.929 . S
H176 C190 0.931 . S
H177 C192 0.930 . S
C178 H166 0.930 . S
C178 C179 1.399 . S
C178 C183 1.399 . S
C179 C178 1.399 . S
C179 C180 1.376 . S
C180 H167 0.930 . S
C180 C179 1.376 . S
C180 C181 1.388 . S
C181 H168 0.930 . S
C181 C180 1.388 . S
C181 C182 1.390 . S
C182 C181 1.390 . S
C182 C183 1.394 . S
C182 C188 1.465 . S
C183 C178 1.399 . S
C183 C182 1.394 . S
C183 C184 1.516 . S
C184 C183 1.516 . S
C184 C185 1.502 . S
C184 C186 1.561 . S
C184 C187 1.526 . S
C185 H169 0.959 . S
C185 H170 0.959 . S
C185 H171 0.961 . S
C185 C184 1.502 . S
C186 H172 0.960 . S
C186 H173 0.961 . S
C186 H174 0.959 . S
C186 C184 1.561 . S
C187 C184 1.526 . S
C187 C188 1.396 . S
C187 C192 1.390 . S
C188 C182 1.465 . S
C188 C187 1.396 . S
C188 C189 1.399 . S
C189 H175 0.929 . S
C189 C188 1.399 . S
C189 C190 1.385 . S
C190 H176 0.931 . S
C190 C189 1.385 . S
C190 C191 1.389 . S
C191 C190 1.389 . S
C191 C192 1.387 . S
C192 H177 0.930 . S
C192 C187 1.390 . S
C192 C191 1.387 . S
H193 C205 0.930 . S
H194 C207 0.930 . S
H195 C208 0.930 . S
H196 C212 0.959 . S
H197 C212 0.959 . S
H198 C212 0.961 . S
H199 C213 0.960 . S
H200 C213 0.961 . S
H201 C213 0.959 . S
H202 C216 0.929 . S
H203 C217 0.931 . S
H204 C219 0.930 . S
C205 H193 0.930 . S
C205 C206 1.399 . S
C205 C210 1.399 . S
C206 C205 1.399 . S
C206 C207 1.376 . S
C207 H194 0.930 . S
C207 C206 1.376 . S
C207 C208 1.388 . S
C208 H195 0.930 . S
C208 C207 1.388 . S
C208 C209 1.390 . S
C209 C208 1.390 . S
C209 C210 1.394 . S
C209 C215 1.465 . S
C210 C205 1.399 . S
C210 C209 1.394 . S
C210 C211 1.516 . S
C211 C210 1.516 . S
C211 C212 1.502 . S
C211 C213 1.561 . S
C211 C214 1.526 . S
C212 H196 0.959 . S
C212 H197 0.959 . S
C212 H198 0.961 . S
C212 C211 1.502 . S
C213 H199 0.960 . S
C213 H200 0.961 . S
C213 H201 0.959 . S
C213 C211 1.561 . S
C214 C211 1.526 . S
C214 C215 1.396 . S
C214 C219 1.390 . S
C215 C209 1.465 . S
C215 C214 1.396 . S
C215 C216 1.399 . S
C216 H202 0.929 . S
C216 C215 1.399 . S
C216 C217 1.385 . S
C217 H203 0.931 . S
C217 C216 1.385 . S
C217 C218 1.389 . S
C218 C217 1.389 . S
C218 C219 1.387 . S
C219 H204 0.930 . S
C219 C214 1.390 . S
C219 C218 1.387 . S
H220 C232 0.930 . S
H221 C234 0.930 . S
H222 C235 0.930 . S
H223 C239 0.959 . S
H224 C239 0.959 . S
H225 C239 0.961 . S
H226 C240 0.960 . S
H227 C240 0.961 . S
H228 C240 0.959 . S
H229 C243 0.929 . S
H230 C244 0.931 . S
H231 C246 0.930 . S
C232 H220 0.930 . S
C232 C233 1.399 . S
C232 C237 1.399 . S
C233 C232 1.399 . S
C233 C234 1.376 . S
C234 H221 0.930 . S
C234 C233 1.376 . S
C234 C235 1.388 . S
C235 H222 0.930 . S
C235 C234 1.388 . S
C235 C236 1.390 . S
C236 C235 1.390 . S
C236 C237 1.394 . S
C236 C242 1.465 . S
C237 C232 1.399 . S
C237 C236 1.394 . S
C237 C238 1.516 . S
C238 C237 1.516 . S
C238 C239 1.502 . S
C238 C240 1.561 . S
C238 C241 1.526 . S
C239 H223 0.959 . S
C239 H224 0.959 . S
C239 H225 0.961 . S
C239 C238 1.502 . S
C240 H226 0.960 . S
C240 H227 0.961 . S
C240 H228 0.959 . S
C240 C238 1.561 . S
C241 C238 1.526 . S
C241 C242 1.396 . S
C241 C246 1.390 . S
C242 C236 1.465 . S
C242 C241 1.396 . S
C242 C243 1.399 . S
C243 H229 0.929 . S
C243 C242 1.399 . S
C243 C244 1.385 . S
C244 H230 0.931 . S
C244 C243 1.385 . S
C244 C245 1.389 . S
C245 C244 1.389 . S
C245 C246 1.387 . S
C246 H231 0.930 . S
C246 C241 1.390 . S
C246 C245 1.387 . S
H247 C259 0.930 . S
H248 C261 0.930 . S
H249 C262 0.930 . S
H250 C266 0.959 . S
H251 C266 0.959 . S
H252 C266 0.961 . S
H253 C267 0.960 . S
H254 C267 0.961 . S
H255 C267 0.959 . S
H256 C270 0.929 . S
H257 C271 0.931 . S
H258 C273 0.930 . S
C259 H247 0.930 . S
C259 C260 1.399 . S
C259 C264 1.399 . S
C260 C259 1.399 . S
C260 C261 1.376 . S
C261 H248 0.930 . S
C261 C260 1.376 . S
C261 C262 1.388 . S
C262 H249 0.930 . S
C262 C261 1.388 . S
C262 C263 1.390 . S
C263 C262 1.390 . S
C263 C264 1.394 . S
C263 C269 1.465 . S
C264 C259 1.399 . S
C264 C263 1.394 . S
C264 C265 1.516 . S
C265 C264 1.516 . S
C265 C266 1.502 . S
C265 C267 1.561 . S
C265 C268 1.526 . S
C266 H250 0.959 . S
C266 H251 0.959 . S
C266 H252 0.961 . S
C266 C265 1.502 . S
C267 H253 0.960 . S
C267 H254 0.961 . S
C267 H255 0.959 . S
C267 C265 1.561 . S
C268 C265 1.526 . S
C268 C269 1.396 . S
C268 C273 1.390 . S
C269 C263 1.465 . S
C269 C268 1.396 . S
C269 C270 1.399 . S
C270 H256 0.929 . S
C270 C269 1.399 . S
C270 C271 1.385 . S
C271 H257 0.931 . S
C271 C270 1.385 . S
C271 C272 1.389 . S
C272 C271 1.389 . S
C272 C273 1.387 . S
C273 H258 0.930 . S
C273 C268 1.390 . S
C273 C272 1.387 . S
H274 C286 0.930 . S
H275 C288 0.930 . S
H276 C289 0.930 . S
H277 C293 0.959 . S
H278 C293 0.959 . S
H279 C293 0.961 . S
H280 C294 0.960 . S
H281 C294 0.961 . S
H282 C294 0.959 . S
H283 C297 0.929 . S
H284 C298 0.931 . S
H285 C300 0.930 . S
C286 H274 0.930 . S
C286 C287 1.399 . S
C286 C291 1.399 . S
C287 C286 1.399 . S
C287 C288 1.376 . S
C288 H275 0.930 . S
C288 C287 1.376 . S
C288 C289 1.388 . S
C289 H276 0.930 . S
C289 C288 1.388 . S
C289 C290 1.390 . S
C290 C289 1.390 . S
C290 C291 1.394 . S
C290 C296 1.465 . S
C291 C286 1.399 . S
C291 C290 1.394 . S
C291 C292 1.516 . S
C292 C291 1.516 . S
C292 C293 1.502 . S
C292 C294 1.561 . S
C292 C295 1.526 . S
C293 H277 0.959 . S
C293 H278 0.959 . S
C293 H279 0.961 . S
C293 C292 1.502 . S
C294 H280 0.960 . S
C294 H281 0.961 . S
C294 H282 0.959 . S
C294 C292 1.561 . S
C295 C292 1.526 . S
C295 C296 1.396 . S
C295 C300 1.390 . S
C296 C290 1.465 . S
C296 C295 1.396 . S
C296 C297 1.399 . S
C297 H283 0.929 . S
C297 C296 1.399 . S
C297 C298 1.385 . S
C298 H284 0.931 . S
C298 C297 1.385 . S
C298 C299 1.389 . S
C299 C298 1.389 . S
C299 C300 1.387 . S
C300 H285 0.930 . S
C300 C295 1.390 . S
C300 C299 1.387 . S
H301 C313 0.930 . S
H302 C315 0.930 . S
H303 C316 0.930 . S
H304 C320 0.959 . S
H305 C320 0.959 . S
H306 C320 0.961 . S
H307 C321 0.960 . S
H308 C321 0.961 . S
H309 C321 0.959 . S
H310 C324 0.929 . S
H311 C325 0.931 . S
H312 C327 0.930 . S
C313 H301 0.930 . S
C313 C314 1.399 . S
C313 C318 1.399 . S
C314 C313 1.399 . S
C314 C315 1.376 . S
C315 H302 0.930 . S
C315 C314 1.376 . S
C315 C316 1.388 . S
C316 H303 0.930 . S
C316 C315 1.388 . S
C316 C317 1.390 . S
C317 C316 1.390 . S
C317 C318 1.394 . S
C317 C323 1.465 . S
C318 C313 1.399 . S
C318 C317 1.394 . S
C318 C319 1.516 . S
C319 C318 1.516 . S
C319 C320 1.502 . S
C319 C321 1.561 . S
C319 C322 1.526 . S
C320 H304 0.959 . S
C320 H305 0.959 . S
C320 H306 0.961 . S
C320 C319 1.502 . S
C321 H307 0.960 . S
C321 H308 0.961 . S
C321 H309 0.959 . S
C321 C319 1.561 . S
C322 C319 1.526 . S
C322 C323 1.396 . S
C322 C327 1.390 . S
C323 C317 1.465 . S
C323 C322 1.396 . S
C323 C324 1.399 . S
C324 H310 0.929 . S
C324 C323 1.399 . S
C324 C325 1.385 . S
C325 H311 0.931 . S
C325 C324 1.385 . S
C325 C326 1.389 . S
C326 C325 1.389 . S
C326 C327 1.387 . S
C327 H312 0.930 . S
C327 C322 1.390 . S
C327 C326 1.387 . S
H328 C340 0.930 . S
H329 C342 0.930 . S
H330 C343 0.930 . S
H331 C347 0.959 . S
H332 C347 0.959 . S
H333 C347 0.961 . S
H334 C348 0.960 1_655 S
H335 C348 0.961 1_655 S
H336 C348 0.959 . S
H337 C351 0.929 . S
H338 C352 0.931 . S
H339 C354 0.930 . S
C340 H328 0.930 . S
C340 C341 1.399 1_656 S
C340 C345 1.399 . S
C341 C340 1.399 1_454 S
C341 C342 1.376 . S
C342 H329 0.930 . S
C342 C341 1.376 . S
C342 C343 1.388 . S
C343 H330 0.930 . S
C343 C342 1.388 . S
C343 C344 1.390 . S
C344 C343 1.390 . S
C344 C345 1.394 1_454 S
C344 C350 1.465 . S
C345 C340 1.399 . S
C345 C344 1.394 1_656 S
C345 C346 1.516 . S
C346 C345 1.516 . S
C346 C347 1.502 . S
C346 C348 1.561 1_655 S
C346 C349 1.526 . S
C347 H331 0.959 . S
C347 H332 0.959 . S
C347 H333 0.961 . S
C347 C346 1.502 . S
C348 H334 0.960 1_455 S
C348 H335 0.961 1_455 S
C348 H336 0.959 . S
C348 C346 1.561 1_455 S
C349 C346 1.526 . S
C349 C350 1.396 1_656 S
C349 C354 1.390 . S
C350 C344 1.465 . S
C350 C349 1.396 1_454 S
C350 C351 1.399 . S
C351 H337 0.929 . S
C351 C350 1.399 . S
C351 C352 1.385 . S
C352 H338 0.931 . S
C352 C351 1.385 . S
C352 C353 1.389 . S
C353 C352 1.389 . S
C353 C354 1.387 1_454 S
C354 H339 0.930 . S
C354 C349 1.390 . S
C354 C353 1.387 1_656 S
H355 C367 0.930 . S
H356 C369 0.930 . S
H357 C370 0.930 . S
H358 C374 0.959 . S
H359 C374 0.959 1_545 S
H360 C374 0.961 . S
H361 C375 0.960 1_565 S
H362 C375 0.961 . S
H363 C375 0.959 . S
H364 C378 0.929 . S
H365 C379 0.931 . S
H366 C381 0.930 . S
C367 H355 0.930 . S
C367 C368 1.399 . S
C367 C372 1.399 . S
C368 C367 1.399 . S
C368 C369 1.376 . S
C369 H356 0.930 . S
C369 C368 1.376 . S
C369 C370 1.388 . S
C370 H357 0.930 . S
C370 C369 1.388 . S
C370 C371 1.390 . S
C371 C370 1.390 . S
C371 C372 1.394 . S
C371 C377 1.465 1_565 S
C372 C367 1.399 . S
C372 C371 1.394 . S
C372 C373 1.516 . S
C373 C372 1.516 . S
C373 C374 1.502 . S
C373 C375 1.561 1_565 S
C373 C376 1.526 1_565 S
C374 H358 0.959 . S
C374 H359 0.959 1_565 S
C374 H360 0.961 . S
C374 C373 1.502 . S
C375 H361 0.960 1_545 S
C375 H362 0.961 . S
C375 H363 0.959 . S
C375 C373 1.561 1_545 S
C376 C373 1.526 1_545 S
C376 C377 1.396 . S
C376 C381 1.390 . S
C377 C371 1.465 1_545 S
C377 C376 1.396 . S
C377 C378 1.399 . S
C378 H364 0.929 . S
C378 C377 1.399 . S
C378 C379 1.385 . S
C379 H365 0.931 . S
C379 C378 1.385 . S
C379 C380 1.389 . S
C380 C379 1.389 . S
C380 C381 1.387 . S
C381 H366 0.930 . S
C381 C376 1.390 . S
C381 C380 1.387 . S
H382 C394 0.930 . S
H383 C396 0.930 . S
H384 C397 0.930 . S
H385 C401 0.959 . S
H386 C401 0.959 . S
H387 C401 0.961 . S
H388 C402 0.960 . S
H389 C402 0.961 . S
H390 C402 0.959 . S
H391 C405 0.929 . S
H392 C406 0.931 . S
H393 C408 0.930 . S
C394 H382 0.930 . S
C394 C395 1.399 . S
C394 C399 1.399 . S
C395 C394 1.399 . S
C395 C396 1.376 . S
C396 H383 0.930 . S
C396 C395 1.376 . S
C396 C397 1.388 . S
C397 H384 0.930 . S
C397 C396 1.388 . S
C397 C398 1.390 . S
C398 C397 1.390 . S
C398 C399 1.394 . S
C398 C404 1.465 1_455 S
C399 C394 1.399 . S
C399 C398 1.394 . S
C399 C400 1.516 . S
C400 C399 1.516 . S
C400 C401 1.502 . S
C400 C402 1.561 1_455 S
C400 C403 1.526 1_455 S
C401 H385 0.959 . S
C401 H386 0.959 . S
C401 H387 0.961 . S
C401 C400 1.502 . S
C402 H388 0.960 . S
C402 H389 0.961 . S
C402 H390 0.959 . S
C402 C400 1.561 1_655 S
C403 C400 1.526 1_655 S
C403 C404 1.396 . S
C403 C408 1.390 . S
C404 C398 1.465 1_655 S
C404 C403 1.396 . S
C404 C405 1.399 . S
C405 H391 0.929 . S
C405 C404 1.399 . S
C405 C406 1.385 . S
C406 H392 0.931 . S
C406 C405 1.385 . S
C406 C407 1.389 . S
C407 C406 1.389 . S
C407 C408 1.387 . S
C408 H393 0.930 . S
C408 C403 1.390 . S
C408 C407 1.387 . S
H409 C421 0.930 . S
H410 C423 0.930 . S
H411 C424 0.930 . S
H412 C428 0.959 . S
H413 C428 0.959 . S
H414 C428 0.961 . S
H415 C429 0.960 1_565 S
H416 C429 0.961 . S
H417 C429 0.959 . S
H418 C432 0.929 . S
H419 C433 0.931 . S
H420 C435 0.930 . S
C421 H409 0.930 . S
C421 C422 1.399 . S
C421 C426 1.399 . S
C422 C421 1.399 . S
C422 C423 1.376 1_554 S
C423 H410 0.930 . S
C423 C422 1.376 1_556 S
C423 C424 1.388 . S
C424 H411 0.930 . S
C424 C423 1.388 . S
C424 C425 1.390 1_556 S
C425 C424 1.390 1_554 S
C425 C426 1.394 . S
C425 C431 1.465 1_565 S
C426 C421 1.399 . S
C426 C425 1.394 . S
C426 C427 1.516 . S
C427 C426 1.516 . S
C427 C428 1.502 . S
C427 C429 1.561 1_565 S
C427 C430 1.526 1_565 S
C428 H412 0.959 . S
C428 H413 0.959 . S
C428 H414 0.961 . S
C428 C427 1.502 . S
C429 H415 0.960 1_545 S
C429 H416 0.961 . S
C429 H417 0.959 . S
C429 C427 1.561 1_545 S
C430 C427 1.526 1_545 S
C430 C431 1.396 . S
C430 C435 1.390 . S
C431 C425 1.465 1_545 S
C431 C430 1.396 . S
C431 C432 1.399 1_554 S
C432 H418 0.929 . S
C432 C431 1.399 1_556 S
C432 C433 1.385 . S
C433 H419 0.931 . S
C433 C432 1.385 . S
C433 C434 1.389 1_556 S
C434 C433 1.389 1_554 S
C434 C435 1.387 . S
C435 H420 0.930 . S
C435 C430 1.390 . S
C435 C434 1.387 . S
H436 C448 0.930 . S
H437 C450 0.930 . S
H438 C451 0.930 . S
H439 C455 0.959 . S
H440 C455 0.959 . S
H441 C455 0.961 . S
H442 C456 0.960 . S
H443 C456 0.961 . S
H444 C456 0.959 . S
H445 C459 0.929 . S
H446 C460 0.931 . S
H447 C462 0.930 . S
C448 H436 0.930 . S
C448 C449 1.399 . S
C448 C453 1.399 . S
C449 C448 1.399 . S
C449 C450 1.376 1_554 S
C450 H437 0.930 . S
C450 C449 1.376 1_556 S
C450 C451 1.388 . S
C451 H438 0.930 . S
C451 C450 1.388 . S
C451 C452 1.390 . S
C452 C451 1.390 . S
C452 C453 1.394 1_556 S
C452 C458 1.465 . S
C453 C448 1.399 . S
C453 C452 1.394 1_554 S
C453 C454 1.516 . S
C454 C453 1.516 . S
C454 C455 1.502 . S
C454 C456 1.561 . S
C454 C457 1.526 . S
C455 H439 0.959 . S
C455 H440 0.959 . S
C455 H441 0.961 . S
C455 C454 1.502 . S
C456 H442 0.960 . S
C456 H443 0.961 . S
C456 H444 0.959 . S
C456 C454 1.561 . S
C457 C454 1.526 . S
C457 C458 1.396 1_554 S
C457 C462 1.390 . S
C458 C452 1.465 . S
C458 C457 1.396 1_556 S
C458 C459 1.399 . S
C459 H445 0.929 . S
C459 C458 1.399 . S
C459 C460 1.385 . S
C460 H446 0.931 . S
C460 C459 1.385 . S
C460 C461 1.389 1_556 S
C461 C460 1.389 1_554 S
C461 C462 1.387 . S
C462 H447 0.930 . S
C462 C457 1.390 . S
C462 C461 1.387 . S
H463 C475 0.930 . S
H464 C477 0.930 . S
H465 C478 0.930 . S
H466 C482 0.959 . S
H467 C482 0.959 . S
H468 C482 0.961 . S
H469 C483 0.960 . S
H470 C483 0.961 . S
H471 C483 0.959 . S
H472 C486 0.929 . S
H473 C487 0.931 . S
H474 C489 0.930 . S
C475 H463 0.930 . S
C475 C476 1.399 . S
C475 C480 1.399 . S
C476 C475 1.399 . S
C476 C477 1.376 . S
C477 H464 0.930 . S
C477 C476 1.376 . S
C477 C478 1.388 . S
C478 H465 0.930 . S
C478 C477 1.388 . S
C478 C479 1.390 . S
C479 C478 1.390 . S
C479 C480 1.394 . S
C479 C485 1.465 . S
C480 C475 1.399 . S
C480 C479 1.394 . S
C480 C481 1.516 . S
C481 C480 1.516 . S
C481 C482 1.502 . S
C481 C483 1.561 . S
C481 C484 1.526 . S
C482 H466 0.959 . S
C482 H467 0.959 . S
C482 H468 0.961 . S
C482 C481 1.502 . S
C483 H469 0.960 . S
C483 H470 0.961 . S
C483 H471 0.959 . S
C483 C481 1.561 . S
C484 C481 1.526 . S
C484 C485 1.396 . S
C484 C489 1.390 . S
C485 C479 1.465 . S
C485 C484 1.396 . S
C485 C486 1.399 . S
C486 H472 0.929 . S
C486 C485 1.399 . S
C486 C487 1.385 . S
C487 H473 0.931 . S
C487 C486 1.385 . S
C487 C488 1.389 . S
C488 C487 1.389 . S
C488 C489 1.387 . S
C489 H474 0.930 . S
C489 C484 1.390 . S
C489 C488 1.387 . S
H490 C502 0.930 . S
H491 C504 0.930 . S
H492 C505 0.930 . S
H493 C509 0.959 . S
H494 C509 0.959 . S
H495 C509 0.961 . S
H496 C510 0.960 . S
H497 C510 0.961 . S
H498 C510 0.959 . S
H499 C513 0.929 . S
H500 C514 0.931 . S
H501 C516 0.930 . S
C502 H490 0.930 . S
C502 C503 1.399 . S
C502 C507 1.399 . S
C503 C502 1.399 . S
C503 C504 1.376 1_554 S
C504 H491 0.930 . S
C504 C503 1.376 1_556 S
C504 C505 1.388 . S
C505 H492 0.930 . S
C505 C504 1.388 . S
C505 C506 1.390 . S
C506 C505 1.390 . S
C506 C507 1.394 1_556 S
C506 C512 1.465 . S
C507 C502 1.399 . S
C507 C506 1.394 1_554 S
C507 C508 1.516 . S
C508 C507 1.516 . S
C508 C509 1.502 . S
C508 C510 1.561 . S
C508 C511 1.526 . S
C509 H493 0.959 . S
C509 H494 0.959 . S
C509 H495 0.961 . S
C509 C508 1.502 . S
C510 H496 0.960 . S
C510 H497 0.961 . S
C510 H498 0.959 . S
C510 C508 1.561 . S
C511 C508 1.526 . S
C511 C512 1.396 1_554 S
C511 C516 1.390 . S
C512 C506 1.465 . S
C512 C511 1.396 1_556 S
C512 C513 1.399 . S
C513 H499 0.929 . S
C513 C512 1.399 . S
C513 C514 1.385 . S
C514 H500 0.931 . S
C514 C513 1.385 . S
C514 C515 1.389 1_556 S
C515 C514 1.389 1_554 S
C515 C516 1.387 . S
C516 H501 0.930 . S
C516 C511 1.390 . S
C516 C515 1.387 . S
H517 C529 0.930 . S
H518 C531 0.930 . S
H519 C532 0.930 . S
H520 C536 0.959 . S
H521 C536 0.959 . S
H522 C536 0.961 . S
H523 C537 0.960 . S
H524 C537 0.961 . S
H525 C537 0.959 . S
H526 C540 0.929 . S
H527 C541 0.931 . S
H528 C543 0.930 . S
C529 H517 0.930 . S
C529 C530 1.399 . S
C529 C534 1.399 . S
C530 C529 1.399 . S
C530 C531 1.376 . S
C531 H518 0.930 . S
C531 C530 1.376 . S
C531 C532 1.388 . S
C532 H519 0.930 . S
C532 C531 1.388 . S
C532 C533 1.390 . S
C533 C532 1.390 . S
C533 C534 1.394 . S
C533 C539 1.465 . S
C534 C529 1.399 . S
C534 C533 1.394 . S
C534 C535 1.516 . S
C535 C534 1.516 . S
C535 C536 1.502 . S
C535 C537 1.561 . S
C535 C538 1.526 . S
C536 H520 0.959 . S
C536 H521 0.959 . S
C536 H522 0.961 . S
C536 C535 1.502 . S
C537 H523 0.960 . S
C537 H524 0.961 . S
C537 H525 0.959 . S
C537 C535 1.561 . S
C538 C535 1.526 . S
C538 C539 1.396 . S
C538 C543 1.390 . S
C539 C533 1.465 . S
C539 C538 1.396 . S
C539 C540 1.399 . S
C540 H526 0.929 . S
C540 C539 1.399 . S
C540 C541 1.385 . S
C541 H527 0.931 . S
C541 C540 1.385 . S
C541 C542 1.389 . S
C542 C541 1.389 . S
C542 C543 1.387 . S
C543 H528 0.930 . S
C543 C538 1.390 . S
C543 C542 1.387 . S
C125 C13 1.293 . S
C137 C69 1.280 . S
C152 C27 1.243 . S
C164 C83 1.287 . S
C179 C97 1.354 . S
C191 C41 1.350 . S
C206 C111 1.344 . S
C218 C55 1.305 . S
C233 C91 1.167 . S
C245 C35 1.259 . S
C260 C105 1.226 . S
C272 C49 1.229 . S
C287 C7 1.181 . S
C299 C63 1.254 . S
C314 C21 1.191 . S
C326 C77 1.189 . S
C341 C36 3.170 1_455 S
C353 C8 3.122 . S
C368 C50 1.453 . S
C380 C22 1.403 . S
C395 C64 1.168 . S
C407 C92 1.205 . S
C422 C106 1.452 . S
C434 C78 1.408 . S
C449 C11 2.133 . S
C461 C81 2.585 . S
C476 C95 1.558 . S
C488 C25 1.541 . S
C503 C39 2.134 . S
C515 C109 2.585 . S
C530 C53 1.551 . S
C542 C67 1.542 . S
