# Generated by pormake.
# Topology whw, (6)-cn, num edge types: 1
# Building blocks:
#     Node 0, Type 0, BuildingBlock: BETGAK_clean_sbu_0, # of connection points: 6
#     Node 1, Type 0, BuildingBlock: BETGAK_clean_sbu_0, # of connection points: 6
#     Node 2, Type 0, BuildingBlock: BETGAK_clean_sbu_0, # of connection points: 6
#     Node 3, Type 0, BuildingBlock: BETGAK_clean_sbu_0, # of connection points: 6
#     Node 4, Type 0, BuildingBlock: BETGAK_clean_sbu_0, # of connection points: 6
#     Node 5, Type 0, BuildingBlock: BETGAK_clean_sbu_0, # of connection points: 6
#     Node 6, Type 0, BuildingBlock: BETGAK_clean_sbu_0, # of connection points: 6
#     Node 7, Type 0, BuildingBlock: BETGAK_clean_sbu_0, # of connection points: 6
#     Node 8, Type 0, BuildingBlock: BETGAK_clean_sbu_0, # of connection points: 6
#     Node 9, Type 0, BuildingBlock: BETGAK_clean_sbu_0, # of connection points: 6
#     Node 10, Type 0, BuildingBlock: BETGAK_clean_sbu_0, # of connection points: 6
#     Node 11, Type 0, BuildingBlock: BETGAK_clean_sbu_0, # of connection points: 6
#     Node 12, Type 0, BuildingBlock: BETGAK_clean_sbu_0, # of connection points: 6
#     Node 13, Type 0, BuildingBlock: BETGAK_clean_sbu_0, # of connection points: 6
#     Node 14, Type 0, BuildingBlock: BETGAK_clean_sbu_0, # of connection points: 6
#     Node 15, Type 0, BuildingBlock: BETGAK_clean_sbu_0, # of connection points: 6
#     Edge 16, Type (0, 0), BuildingBlock: XIVTED_clean_linker_0, # of connection points: 2
#     Edge 17, Type (0, 0), BuildingBlock: XIVTED_clean_linker_0, # of connection points: 2
#     Edge 18, Type (0, 0), BuildingBlock: XIVTED_clean_linker_0, # of connection points: 2
#     Edge 19, Type (0, 0), BuildingBlock: XIVTED_clean_linker_0, # of connection points: 2
#     Edge 20, Type (0, 0), BuildingBlock: XIVTED_clean_linker_0, # of connection points: 2
#     Edge 21, Type (0, 0), BuildingBlock: XIVTED_clean_linker_0, # of connection points: 2
#     Edge 22, Type (0, 0), BuildingBlock: XIVTED_clean_linker_0, # of connection points: 2
#     Edge 23, Type (0, 0), BuildingBlock: XIVTED_clean_linker_0, # of connection points: 2
#     Edge 24, Type (0, 0), BuildingBlock: XIVTED_clean_linker_0, # of connection points: 2
#     Edge 25, Type (0, 0), BuildingBlock: XIVTED_clean_linker_0, # of connection points: 2
#     Edge 26, Type (0, 0), BuildingBlock: XIVTED_clean_linker_0, # of connection points: 2
#     Edge 27, Type (0, 0), BuildingBlock: XIVTED_clean_linker_0, # of connection points: 2
#     Edge 28, Type (0, 0), BuildingBlock: XIVTED_clean_linker_0, # of connection points: 2
#     Edge 29, Type (0, 0), BuildingBlock: XIVTED_clean_linker_0, # of connection points: 2
#     Edge 30, Type (0, 0), BuildingBlock: XIVTED_clean_linker_0, # of connection points: 2
#     Edge 31, Type (0, 0), BuildingBlock: XIVTED_clean_linker_0, # of connection points: 2
#     Edge 32, Type (0, 0), BuildingBlock: XIVTED_clean_linker_0, # of connection points: 2
#     Edge 33, Type (0, 0), BuildingBlock: XIVTED_clean_linker_0, # of connection points: 2
#     Edge 34, Type (0, 0), BuildingBlock: XIVTED_clean_linker_0, # of connection points: 2
#     Edge 35, Type (0, 0), BuildingBlock: XIVTED_clean_linker_0, # of connection points: 2
#     Edge 36, Type (0, 0), BuildingBlock: XIVTED_clean_linker_0, # of connection points: 2
#     Edge 37, Type (0, 0), BuildingBlock: XIVTED_clean_linker_0, # of connection points: 2
#     Edge 38, Type (0, 0), BuildingBlock: XIVTED_clean_linker_0, # of connection points: 2
#     Edge 39, Type (0, 0), BuildingBlock: XIVTED_clean_linker_0, # of connection points: 2
#     Edge 40, Type (0, 0), BuildingBlock: XIVTED_clean_linker_0, # of connection points: 2
#     Edge 41, Type (0, 0), BuildingBlock: XIVTED_clean_linker_0, # of connection points: 2
#     Edge 42, Type (0, 0), BuildingBlock: XIVTED_clean_linker_0, # of connection points: 2
#     Edge 43, Type (0, 0), BuildingBlock: XIVTED_clean_linker_0, # of connection points: 2
#     Edge 44, Type (0, 0), BuildingBlock: XIVTED_clean_linker_0, # of connection points: 2
#     Edge 45, Type (0, 0), BuildingBlock: XIVTED_clean_linker_0, # of connection points: 2
#     Edge 46, Type (0, 0), BuildingBlock: XIVTED_clean_linker_0, # of connection points: 2
#     Edge 47, Type (0, 0), BuildingBlock: XIVTED_clean_linker_0, # of connection points: 2
#     Edge 48, Type (0, 0), BuildingBlock: XIVTED_clean_linker_0, # of connection points: 2
#     Edge 49, Type (0, 0), BuildingBlock: XIVTED_clean_linker_0, # of connection points: 2
#     Edge 50, Type (0, 0), BuildingBlock: XIVTED_clean_linker_0, # of connection points: 2
#     Edge 51, Type (0, 0), BuildingBlock: XIVTED_clean_linker_0, # of connection points: 2
#     Edge 52, Type (0, 0), BuildingBlock: XIVTED_clean_linker_0, # of connection points: 2
#     Edge 53, Type (0, 0), BuildingBlock: XIVTED_clean_linker_0, # of connection points: 2
#     Edge 54, Type (0, 0), BuildingBlock: XIVTED_clean_linker_0, # of connection points: 2
#     Edge 55, Type (0, 0), BuildingBlock: XIVTED_clean_linker_0, # of connection points: 2
#     Edge 56, Type (0, 0), BuildingBlock: XIVTED_clean_linker_0, # of connection points: 2
#     Edge 57, Type (0, 0), BuildingBlock: XIVTED_clean_linker_0, # of connection points: 2
#     Edge 58, Type (0, 0), BuildingBlock: XIVTED_clean_linker_0, # of connection points: 2
#     Edge 59, Type (0, 0), BuildingBlock: XIVTED_clean_linker_0, # of connection points: 2
#     Edge 60, Type (0, 0), BuildingBlock: XIVTED_clean_linker_0, # of connection points: 2
#     Edge 61, Type (0, 0), BuildingBlock: XIVTED_clean_linker_0, # of connection points: 2
#     Edge 62, Type (0, 0), BuildingBlock: XIVTED_clean_linker_0, # of connection points: 2
#     Edge 63, Type (0, 0), BuildingBlock: XIVTED_clean_linker_0, # of connection points: 2
# Relax obj value: 0.451
# Max RMSD: 0.242
# Mean RMSD: 0.217
data_MOF--net-whw--node1-BETGAK_clean_sbu_0--edge1-XIVTED_clean_linker_0
_symmetry_space_group_name_H-M    P1
_symmetry_Int_Tables_number       1
_symmetry_cell_setting            triclinic
loop_
_symmetry_equiv_pos_as_xyz
'x, y, z'
_cell_length_a     47.561741
_cell_length_b     46.614031
_cell_length_c     33.73536
_cell_angle_alpha  89.714353
_cell_angle_beta   102.52967
_cell_angle_gamma 97.679403
loop_
_atom_site_label
_atom_site_type_symbol
_atom_site_fract_x
_atom_site_fract_y
_atom_site_fract_z
_atom_type_partial_charge
La0 La 0.06437 0.14035 0.17147 0.0
La1 La 0.00422 0.13031 0.17979 0.0
C2 C 0.11209 0.13349 0.15567 0.0
C3 C 0.12032 0.11928 0.12274 0.0
C4 C 0.1492 0.1237 0.11892 0.0
C5 C 0.15658 0.11254 0.085 0.0
C6 C 0.13503 0.09687 0.05479 0.0
C7 C 0.10648 0.09065 0.06046 0.0
C8 C 0.0991 0.10208 0.09415 0.0
C9 C 0.04891 0.18479 0.20493 0.0
C10 C 0.01433 0.15794 0.09859 0.0
C11 C 0.95457 0.12189 0.19511 0.0
C12 C 0.94253 0.12862 0.22922 0.0
C13 C 0.91505 0.11497 0.23203 0.0
C14 C 0.90437 0.11978 0.26633 0.0
C15 C 0.92111 0.13849 0.29759 0.0
C16 C 0.94839 0.1526 0.29415 0.0
C17 C 0.95914 0.14748 0.26023 0.0
C18 C 0.01823 0.08965 0.13582 0.0
C19 C 0.05546 0.13628 0.2613 0.0
O20 O 0.09943 0.15663 0.14581 0.0
O21 O 0.09858 0.11588 0.17791 0.0
O22 O 0.07546 0.17929 0.21124 0.0
O23 O 0.0336 0.16787 0.17761 0.0
O24 O 0.04054 0.14915 0.10858 0.0
O25 O 0.99747 0.15637 0.1253 0.0
O26 O 0.9731 0.10312 0.20255 0.0
O27 O 0.96379 0.14434 0.17573 0.0
O28 O 0.99424 0.10037 0.1285 0.0
O29 O 0.0341 0.10119 0.16861 0.0
O30 O 0.02728 0.13625 0.24525 0.0
O31 O 0.07359 0.13353 0.23727 0.0
H32 H 0.1657 0.13688 0.14112 0.0
H33 H 0.17863 0.11808 0.08098 0.0
H34 H 0.08955 0.07859 1.03758 0.0
H35 H 0.07666 0.09856 0.09704 0.0
H36 H 0.90225 0.10012 0.20825 0.0
H37 H 0.88338 0.10856 0.26885 0.0
H38 H 0.96194 0.16654 0.31848 0.0
H39 H 0.9807 0.15755 0.25875 0.0
La40 La 0.13143 0.7713 0.37727 0.0
La41 La 0.13362 0.71077 0.35275 0.0
C42 C 0.12867 0.82042 0.40507 0.0
C43 C 0.12446 0.8306 0.44362 0.0
C44 C 0.13907 0.85744 0.45978 0.0
C45 C 0.14052 0.86466 0.50022 0.0
C46 C 0.12732 0.84499 0.52454 0.0
C47 C 0.1111 0.81895 0.50736 0.0
C48 C 0.11 0.81167 0.46725 0.0
C49 C 0.17843 0.76288 0.35115 0.0
C50 C 0.13395 0.7227 0.44594 0.0
C51 C 0.15138 0.66749 0.32752 0.0
C52 C 0.16783 0.66304 0.29681 0.0
C53 C 0.16564 0.63552 0.27944 0.0
C54 C 0.17878 0.63174 0.24708 0.0
C55 C 0.19475 0.65544 0.23198 0.0
C56 C 0.19861 0.68261 0.25184 0.0
C57 C 0.18462 0.68648 0.28325 0.0
C58 C 0.08383 0.7173 0.37041 0.0
C59 C 0.11064 0.75706 0.28517 0.0
O60 O 0.15294 0.80948 0.40798 0.0
O61 O 0.10643 0.80433 0.38229 0.0
O62 O 0.16436 0.78462 0.34242 0.0
O63 O 0.1663 0.7465 0.37432 0.0
O64 O 0.12985 0.74959 0.43543 0.0
O65 O 0.13894 0.70414 0.41917 0.0
O66 O 0.12524 0.67432 0.31363 0.0
O67 O 0.1658 0.68366 0.35892 0.0
O68 O 0.09436 0.69291 0.37268 0.0
O69 O 0.09973 0.7354 0.35418 0.0
O70 O 0.12382 0.73331 0.29283 0.0
O71 O 0.10746 0.77334 0.31536 0.0
H72 H 0.15076 0.872 0.44189 0.0
H73 H 0.15334 0.88477 0.51301 0.0
H74 H 0.10037 0.80363 0.52542 0.0
H75 H 0.09932 0.79059 0.45549 0.0
H76 H 0.1526 0.61725 0.28956 0.0
H77 H 0.17458 0.61057 0.23231 0.0
H78 H 0.21103 0.7013 0.24169 0.0
H79 H 0.1859 0.70797 0.29581 0.0
La80 La 0.50067 0.88242 0.71043 0.0
La81 La 0.5215 0.86538 0.63003 0.0
C82 C 0.48168 0.87892 0.77612 0.0
C83 C 0.47951 0.86641 0.81743 0.0
C84 C 0.48875 0.88395 0.85308 0.0
C85 C 0.48259 0.87456 0.89074 0.0
C86 C 0.46662 0.84715 0.89469 0.0
C87 C 0.45801 0.82932 0.85903 0.0
C88 C 0.46418 0.83876 0.82134 0.0
C89 C 0.51495 0.92578 0.66391 0.0
C90 C 0.56558 0.87153 0.71626 0.0
C91 C 0.54764 0.8568 0.57341 0.0
C92 C 0.54946 0.84317 0.53346 0.0
C93 C 0.5607 0.81669 0.53273 0.0
C94 C 0.56714 0.80593 0.49711 0.0
C95 C 0.56265 0.82113 0.46036 0.0
C96 C 0.55077 0.84739 0.46098 0.0
C97 C 0.54454 0.85826 0.49681 0.0
C98 C 0.48777 0.82643 0.66135 0.0
C99 C 0.45922 0.88183 0.62335 0.0
O100 O 0.50424 0.89723 0.77139 0.0
O101 O 0.47011 0.86319 0.74298 0.0
O102 O 0.49743 0.92674 0.68853 0.0
O103 O 0.52584 0.90249 0.66926 0.0
O104 O 0.54466 0.8743 0.73567 0.0
O105 O 0.56186 0.86975 0.67629 0.0
O106 O 0.54718 0.84021 0.60487 0.0
O107 O 0.53303 0.87878 0.57452 0.0
O108 O 0.48818 0.82724 0.6231 0.0
O109 O 0.50751 0.84482 0.68057 0.0
O110 O 0.48141 0.88276 0.60504 0.0
O111 O 0.46115 0.87739 0.66269 0.0
H112 H 0.50013 0.90554 0.85167 0.0
H113 H 0.49035 0.88914 0.91681 0.0
H114 H 0.44544 0.80825 0.85962 0.0
H115 H 0.456 0.82458 0.79487 0.0
H116 H 0.56562 0.8046 0.5603 0.0
H117 H 0.57669 0.78603 0.49913 0.0
H118 H 0.54634 0.8599 0.43379 0.0
H119 H 0.53649 0.87897 0.49596 0.0
La120 La 0.39852 0.23708 0.98591 0.0
La121 La 0.40687 0.29681 0.9621 0.0
C122 C 0.39175 0.18865 1.01767 0.0
C123 C 0.39272 0.17808 0.05899 0.0
C124 C 0.3676 0.1756 0.07512 0.0
C125 C 0.36828 0.16543 0.1141 0.0
C126 C 0.39394 0.15719 0.13738 0.0
C127 C 0.41906 0.15966 0.12138 0.0
C128 C 0.41845 0.16998 0.08243 0.0
C129 C 0.35648 0.24931 0.92582 0.0
C130 C 0.40606 0.28778 1.05441 0.0
C131 C 0.3996 0.34509 0.93154 0.0
C132 C 0.38655 0.35655 0.89293 0.0
C133 C 0.37597 0.33825 0.85872 0.0
C134 C 0.36609 0.35003 0.82111 0.0
C135 C 0.36663 0.3802 0.81755 0.0
C136 C 0.37557 0.39813 0.85256 0.0
C137 C 0.38558 0.38632 0.89008 0.0
C138 C 0.45383 0.28094 1.0103 0.0
C139 C 0.42155 0.24761 0.90576 0.0
O140 O 0.37051 0.20358 1.00324 0.0
O141 O 0.41641 0.20001 1.00901 0.0
O142 O 0.36767 0.2256 0.93 0.0
O143 O 0.36807 0.26601 0.95674 0.0
O144 O 0.40467 0.25974 1.04611 0.0
O145 O 0.40352 0.30633 1.02452 0.0
O146 O 0.4228 0.33264 0.93203 0.0
O147 O 0.38128 0.33024 0.95031 0.0
O148 O 0.44764 0.3072 1.00775 0.0
O149 O 0.43565 0.26621 0.98298 0.0
O150 O 0.41399 0.27414 0.90744 0.0
O151 O 0.42087 0.23001 0.93684 0.0
H152 H 0.34732 0.18138 0.05759 0.0
H153 H 0.3486 0.16345 0.12572 0.0
H154 H 0.43923 0.15373 0.13908 0.0
H155 H 0.43807 0.17154 0.07072 0.0
H156 H 0.37644 0.3151 0.86087 0.0
H157 H 0.35971 0.3357 0.79458 0.0
H158 H 0.37591 0.42138 0.85064 0.0
H159 H 0.39343 0.40053 0.91663 0.0
La160 La 0.03926 0.86975 0.93012 0.0
La161 La 0.97933 0.8561 0.93811 0.0
C162 C 0.08857 0.88119 0.91421 0.0
C163 C 0.10057 0.87614 0.87938 0.0
C164 C 0.12732 0.89146 0.87624 0.0
C165 C 0.13816 0.88765 0.84177 0.0
C166 C 0.12239 0.86823 0.81076 0.0
C167 C 0.09572 0.85272 0.81428 0.0
C168 C 0.08473 0.85689 0.84831 0.0
C169 C 0.02359 0.90811 0.97587 0.0
C170 C 0.988 0.86399 0.84852 0.0
C171 C 0.93074 0.85746 0.95497 0.0
C172 C 0.91834 0.86771 0.98747 0.0
C173 C 0.90083 0.84778 1.00591 0.0
C174 C 0.88789 0.857 1.0359 0.0
C175 C 0.89194 0.88645 1.04755 0.0
C176 C 0.9094 0.90645 1.02885 0.0
C177 C 0.92261 0.89715 0.99912 0.0
C178 C 0.99728 0.81422 0.90227 0.0
C179 C 0.03036 0.83955 1.01012 0.0
O180 O 0.06917 0.89911 0.90814 0.0
O181 O 0.08044 0.85787 0.93278 0.0
O182 O 0.0481 0.89836 0.98252 0.0
O183 O 0.00787 0.89674 0.94279 0.0
O184 O 0.01628 0.86498 0.86457 0.0
O185 O 0.96955 0.86473 0.8727 0.0
O186 O 0.94545 0.83551 0.96318 0.0
O187 O 0.94309 0.8774 0.93439 0.0
O188 O 0.97036 0.81848 0.89592 0.0
O189 O 0.01163 0.83077 0.93066 0.0
O190 O 0.0037 0.84721 1.00043 0.0
O191 O 0.04735 0.84274 0.98358 0.0
H192 H 0.13948 0.90664 0.90003 0.0
H193 H 0.15865 0.89995 0.83911 0.0
H194 H 0.08293 0.83817 0.79011 0.0
H195 H 0.06368 0.84557 0.85 0.0
H196 H 0.89724 0.82501 0.9972 0.0
H197 H 0.87522 0.84092 1.0505 0.0
H198 H 0.91283 0.92927 1.03712 0.0
H199 H 0.93598 0.91304 0.98522 0.0
La200 La 0.41373 0.79335 0.25837 0.0
La201 La 0.40921 0.73204 0.23295 0.0
C202 C 0.40107 0.83981 0.28271 0.0
C203 C 0.38515 0.84868 0.31208 0.0
C204 C 0.39578 0.87423 0.33497 0.0
C205 C 0.38241 0.88181 0.36551 0.0
C206 C 0.35793 0.86402 0.37346 0.0
C207 C 0.34621 0.83939 0.34842 0.0
C208 C 0.35998 0.8316 0.31839 0.0
C209 C 0.46168 0.78119 0.23993 0.0
C210 C 0.43084 0.74491 0.32587 0.0
C211 C 0.40712 0.68211 0.20436 0.0
C212 C 0.41375 0.67016 0.16852 0.0
C213 C 0.40342 0.64126 0.157 0.0
C214 C 0.40814 0.63018 0.12116 0.0
C215 C 0.42335 0.648 0.097 0.0
C216 C 0.43393 0.67688 0.10894 0.0
C217 C 0.429 0.68794 0.14451 0.0
C218 C 0.36446 0.74514 0.26082 0.0
C219 C 0.41217 0.78084 0.16492 0.0
O220 O 0.42551 0.82975 0.29788 0.0
O221 O 0.38539 0.82443 0.25131 0.0
O222 O 0.45392 0.80689 0.2383 0.0
O223 O 0.44438 0.76471 0.25612 0.0
O224 O 0.42251 0.77113 0.31845 0.0
O225 O 0.43067 0.72687 0.29573 0.0
O226 O 0.38515 0.69698 0.19707 0.0
O227 O 0.4295 0.69517 0.23066 0.0
O228 O 0.37589 0.72165 0.26767 0.0
O229 O 0.37749 0.76051 0.23748 0.0
O230 O 0.41346 0.7534 0.17512 0.0
O231 O 0.4092 0.80021 0.19208 0.0
H232 H 0.41518 0.88768 0.33039 0.0
H233 H 0.39263 0.90056 0.3846 0.0
H234 H 0.32731 0.8253 0.35335 0.0
H235 H 0.35154 0.81177 0.30106 0.0
H236 H 0.39135 0.6275 0.17531 0.0
H237 H 0.3998 0.60785 0.11216 0.0
H238 H 0.44519 0.6911 0.09018 0.0
H239 H 0.43653 0.71043 0.15283 0.0
La240 La 0.522 0.13375 0.47895 0.0
La241 La 0.54763 0.11807 0.40248 0.0
C242 C 0.50881 0.14697 0.54491 0.0
C243 C 0.50163 0.1564 0.58403 0.0
C244 C 0.51065 0.185 0.5995 0.0
C245 C 0.50238 0.19484 0.63424 0.0
C246 C 0.48458 0.17654 0.65508 0.0
C247 C 0.47578 0.14777 0.63973 0.0
C248 C 0.4841 0.13792 0.60488 0.0
C249 C 0.52909 0.17287 0.42413 0.0
C250 C 0.58878 0.13024 0.48584 0.0
C251 C 0.5608 0.12822 0.3339 0.0
C252 C 0.56857 0.13426 0.29302 0.0
C253 C 0.59761 0.14289 0.29009 0.0
C254 C 0.60469 0.15209 0.25289 0.0
C255 C 0.58306 0.15246 0.21683 0.0
C256 C 0.55403 0.14324 0.21968 0.0
C257 C 0.5469 0.13475 0.25713 0.0
C258 C 0.5389 0.0747 0.45143 0.0
C259 C 0.47813 0.11243 0.39869 0.0
O260 O 0.5261 0.16395 0.5267 0.0
O261 O 0.50004 0.12136 0.52684 0.0
O262 O 0.50782 0.17041 0.44266 0.0
O263 O 0.54559 0.15481 0.43747 0.0
O264 O 0.56628 0.12437 0.50339 0.0
O265 O 0.58587 0.136 0.44688 0.0
O266 O 0.57605 0.11381 0.36254 0.0
O267 O 0.53702 0.1348 0.34302 0.0
O268 O 0.55563 0.07461 0.4253 0.0
O269 O 0.52524 0.09618 0.44463 0.0
O270 O 0.50024 0.11215 0.38025 0.0
O271 O 0.48109 0.11796 0.43803 0.0
H272 H 0.52397 0.20011 0.58441 0.0
H273 H 0.51023 0.21694 0.64485 0.0
H274 H 0.4618 0.13286 0.65405 0.0
H275 H 0.47635 0.11588 0.59384 0.0
H276 H 0.61493 0.14344 0.31699 0.0
H277 H 0.62729 0.15885 0.25239 0.0
H278 H 0.53658 0.14338 0.19307 0.0
H279 H 0.52425 0.12882 0.25804 0.0
La280 La 0.14197 0.20838 0.64436 0.0
La281 La 0.14808 0.26837 0.62055 0.0
C282 C 0.15247 0.16088 0.67502 0.0
C283 C 0.16771 0.15231 0.71424 0.0
C284 C 0.16558 0.12305 0.72389 0.0
C285 C 0.17547 0.11519 0.7638 0.0
C286 C 0.18748 0.13668 0.79404 0.0
C287 C 0.19252 0.16571 0.78312 0.0
C288 C 0.18218 0.17355 0.74342 0.0
C289 C 0.09333 0.22335 0.5991 0.0
C290 C 0.12662 0.25648 0.70191 0.0
C291 C 0.15324 0.3172 0.58957 0.0
C292 C 0.15204 0.32747 0.54851 0.0
C293 C 0.17167 0.35142 0.54267 0.0
C294 C 0.17374 0.35953 0.50356 0.0
C295 C 0.15611 0.34378 0.46975 0.0
C296 C 0.13624 0.31984 0.47579 0.0
C297 C 0.13432 0.31164 0.51497 0.0
C298 C 0.19144 0.25691 0.67917 0.0
C299 C 0.13992 0.2176 0.55167 0.0
O300 O 0.12855 0.17189 0.67534 0.0
O301 O 0.16901 0.17611 0.65401 0.0
O302 O 0.10023 0.19732 0.60082 0.0
O303 O 0.1122 0.2383 0.62533 0.0
O304 O 0.13495 0.23031 0.69972 0.0
O305 O 0.12643 0.27432 0.67089 0.0
O306 O 0.17502 0.30277 0.60292 0.0
O307 O 0.12884 0.30482 0.59799 0.0
O308 O 0.17947 0.28017 0.67586 0.0
O309 O 0.17979 0.24025 0.64821 0.0
O310 O 0.1408 0.24559 0.56002 0.0
O311 O 0.14386 0.19918 0.58154 0.0
H312 H 0.15445 0.10654 0.7013 0.0
H313 H 0.17101 0.09272 0.77159 0.0
H314 H 0.20176 0.18259 0.806 0.0
H315 H 0.1836 0.19626 0.73615 0.0
H316 H 0.18593 0.36341 0.56843 0.0
H317 H 0.18942 0.37788 0.4998 0.0
H318 H 0.12197 0.30762 0.45029 0.0
H319 H 0.11935 0.29276 0.51902 0.0
La320 La 0.9149 0.28683 0.7583 0.0
La321 La 0.90618 0.22535 0.73153 0.0
C322 C 0.90284 0.33607 0.77308 0.0
C323 C 0.88618 0.34589 0.80088 0.0
C324 C 0.89549 0.37249 0.82162 0.0
C325 C 0.88312 0.37951 0.85359 0.0
C326 C 0.86106 0.36004 0.86504 0.0
C327 C 0.85019 0.33449 0.84172 0.0
C328 C 0.86303 0.3273 0.81044 0.0
C329 C 0.96331 0.26713 0.75354 0.0
C330 C 0.93258 0.23939 0.82292 0.0
C331 C 0.902 0.17591 0.70099 0.0
C332 C 0.90879 0.1656 0.66421 0.0
C333 C 0.89126 0.14168 0.64297 0.0
C334 C 0.8933 0.13546 0.60352 0.0
C335 C 0.91294 0.15318 0.5853 0.0
C336 C 0.93195 0.17586 0.60786 0.0
C337 C 0.92965 0.18224 0.64702 0.0
C338 C 0.86476 0.24016 0.76595 0.0
C339 C 0.91156 0.27489 0.66331 0.0
O340 O 0.92696 0.32648 0.79073 0.0
O341 O 0.88793 0.31906 0.74295 0.0
O342 O 0.96269 0.28969 0.77555 0.0
O343 O 0.93845 0.26044 0.73197 0.0
O344 O 0.92003 0.26352 0.81687 0.0
O345 O 0.93394 0.2231 0.79161 0.0
O346 O 0.88064 0.19169 0.69444 0.0
O347 O 0.92443 0.18725 0.72893 0.0
O348 O 0.87543 0.21619 0.77101 0.0
O349 O 0.8769 0.25498 0.74137 0.0
O350 O 0.90715 0.24667 0.6715 0.0
O351 O 0.91536 0.29458 0.69322 0.0
H352 H 0.91354 0.38698 0.81483 0.0
H353 H 0.89254 0.39915 0.87119 0.0
H354 H 0.83305 0.31915 0.84926 0.0
H355 H 0.85602 0.30649 0.79524 0.0
H356 H 0.87481 0.12899 0.65591 0.0
H357 H 0.87823 0.11805 0.58646 0.0
H358 H 0.94751 0.18957 0.5945 0.0
H359 H 0.94295 0.20114 0.6629 0.0
La360 La 0.63844 0.70165 0.15022 0.0
La361 La 0.64493 0.76142 0.1263 0.0
C362 C 0.64756 0.65462 0.18358 0.0
C363 C 0.66328 0.64679 0.22332 0.0
C364 C 0.65069 0.62417 0.24379 0.0
C365 C 0.66337 0.6191 0.28396 0.0
C366 C 0.68893 0.63656 0.30397 0.0
C367 C 0.70241 0.65808 0.28241 0.0
C368 C 0.68954 0.66329 0.24243 0.0
C369 C 0.59041 0.71579 0.10318 0.0
C370 C 0.62303 0.75052 0.20688 0.0
C371 C 0.65069 0.81002 0.09474 0.0
C372 C 0.64998 0.8196 1.05343 0.0
C373 C 0.67072 0.84238 1.047 0.0
C374 C 0.67349 0.8492 1.00769 0.0
C375 C 0.65545 0.83334 0.97429 0.0
C376 C 0.63431 0.81077 0.98092 0.0
C377 C 0.6317 0.80384 1.02025 0.0
C378 C 0.68786 0.74992 0.18557 0.0
C379 C 0.63785 0.71083 0.05761 0.0
O380 O 0.62431 0.66679 0.18377 0.0
O381 O 0.66362 0.66784 0.1602 0.0
O382 O 0.59744 0.68985 0.10582 0.0
O383 O 0.60845 0.73131 0.12986 0.0
O384 O 0.63139 0.72435 0.2051 0.0
O385 O 0.62281 0.76805 0.17561 0.0
O386 O 0.67233 0.79562 0.10906 0.0
O387 O 0.62611 0.79792 0.10288 0.0
O388 O 0.67579 0.77311 0.1823 0.0
O389 O 0.67652 0.7333 0.1545 0.0
O390 O 0.63853 0.73875 0.06606 0.0
O391 O 0.64138 0.69231 0.08752 0.0
H392 H 0.63033 0.61136 0.22937 0.0
H393 H 0.65213 0.60271 0.29996 0.0
H394 H 0.72223 0.67169 0.29694 0.0
H395 H 0.69954 0.68088 0.22701 0.0
H396 H 0.68538 0.8543 0.07247 0.0
H397 H 0.69008 0.86655 1.0035 0.0
H398 H 0.61966 0.79856 0.95574 0.0
H399 H 0.61584 0.78585 1.02472 0.0
La400 La 0.63079 0.26888 0.87745 0.0
La401 La 0.63005 0.20802 0.85122 0.0
C402 C 0.62938 0.31803 0.90627 0.0
C403 C 0.62589 0.32779 0.9454 0.0
C404 C 0.64025 0.35475 0.96142 0.0
C405 C 0.64244 0.36162 1.00217 0.0
C406 C 0.63022 0.34147 1.02687 0.0
C407 C 0.61419 0.3153 1.0099 0.0
C408 C 0.61238 0.30836 0.96949 0.0
C409 C 0.67731 0.25839 0.85183 0.0
C410 C 0.63135 0.21923 0.94482 0.0
C411 C 0.64616 0.16425 0.82466 0.0
C412 C 0.66339 0.16068 0.79461 0.0
C413 C 0.66217 0.13359 0.77648 0.0
C414 C 0.67644 0.1309 0.74497 0.0
C415 C 0.69262 0.15528 0.73163 0.0
C416 C 0.69552 0.18195 0.75242 0.0
C417 C 0.68029 0.18474 0.78273 0.0
C418 C 0.58094 0.21719 0.86878 0.0
C419 C 0.60968 0.25595 0.78475 0.0
O420 O 0.65332 0.30672 0.90808 0.0
O421 O 0.60669 0.3024 0.88378 0.0
O422 O 0.66457 0.28107 0.84364 0.0
O423 O 0.66416 0.24228 0.87418 0.0
O424 O 0.6291 0.2467 0.93551 0.0
O425 O 0.63451 0.20039 0.9171 0.0
O426 O 0.62065 0.17244 0.81039 0.0
O427 O 0.66045 0.17898 0.85746 0.0
O428 O 0.59003 0.19205 0.87075 0.0
O429 O 0.59777 0.23449 0.85301 0.0
O430 O 0.62145 0.23134 0.79186 0.0
O431 O 0.60753 0.27247 0.81533 0.0
H432 H 0.65119 0.36968 0.94313 0.0
H433 H 0.65504 0.38186 1.01482 0.0
H434 H 0.60418 0.29965 1.02829 0.0
H435 H 0.60187 0.2872 0.9578 0.0
H436 H 0.64906 0.11484 0.78532 0.0
H437 H 0.67298 0.11006 0.72943 0.0
H438 H 0.70809 0.20112 0.74374 0.0
H439 H 0.68072 0.2059 0.79577 0.0
La440 La 0.89957 0.73735 0.4859 0.0
La441 La 0.90907 0.79707 0.46263 0.0
C442 C 0.89207 0.68883 0.51717 0.0
C443 C 0.89317 0.67879 0.55837 0.0
C444 C 0.87323 0.65522 0.56454 0.0
C445 C 0.87174 0.64692 0.6038 0.0
C446 C 0.89029 0.6621 0.63744 0.0
C447 C 0.91032 0.68579 0.63106 0.0
C448 C 0.91166 0.69418 0.59174 0.0
C449 C 0.85811 0.75047 0.42563 0.0
C450 C 0.90741 0.7881 0.55451 0.0
C451 C 0.90369 0.84552 0.43153 0.0
C452 C 0.89114 0.85779 0.39288 0.0
C453 C 0.90881 0.87837 0.37571 0.0
C454 C 0.89801 0.88974 0.33822 0.0
C455 C 0.86913 0.88096 0.31747 0.0
C456 C 0.85109 0.86108 0.33556 0.0
C457 C 0.86207 0.84941 0.37292 0.0
C458 C 0.95554 0.7803 0.51104 0.0
C459 C 0.92302 0.74754 0.40611 0.0
O460 O 0.87116 0.70436 0.50392 0.0
O461 O 0.91678 0.69986 0.50839 0.0
O462 O 0.86886 0.72651 0.42955 0.0
O463 O 0.86974 0.76691 0.45678 0.0
O464 O 0.90586 0.76006 0.54611 0.0
O465 O 0.90519 0.80671 0.52471 0.0
O466 O 0.92624 0.83207 0.43198 0.0
O467 O 0.88533 0.83188 0.45139 0.0
O468 O 0.94967 0.80666 0.5088 0.0
O469 O 0.93723 0.7659 0.48352 0.0
O470 O 0.91583 0.7742 0.4079 0.0
O471 O 0.92194 0.72987 0.43701 0.0
H472 H 0.85842 0.64356 0.53896 0.0
H473 H 0.85589 0.6288 0.60781 0.0
H474 H 0.92523 0.69761 0.65638 0.0
H475 H 0.92693 0.71275 0.58744 0.0
H476 H 0.93127 0.88511 0.39086 0.0
H477 H 0.91276 0.90441 0.32478 0.0
H478 H 0.82872 0.85405 0.32044 0.0
H479 H 0.84797 0.83358 0.38577 0.0
La480 La 0.56306 0.64949 0.6672 0.0
La481 La 0.50674 0.6254 0.67987 0.0
C482 C 0.61589 0.65428 0.66458 0.0
C483 C 0.63243 0.6475 0.63527 0.0
C484 C 0.6617 0.65918 0.6411 0.0
C485 C 0.67753 0.65365 0.61248 0.0
C486 C 0.66416 0.63633 0.57784 0.0
C487 C 0.63491 0.62407 0.5727 0.0
C488 C 0.61908 0.62969 0.60127 0.0
C489 C 0.53173 0.68782 0.68507 0.0
C490 C 0.51059 0.65646 0.59663 0.0
C491 C 0.46004 0.60941 0.70074 0.0
C492 C 0.45155 0.6122 0.73905 0.0
C493 C 0.42948 0.59235 0.74883 0.0
C494 C 0.42419 0.59281 0.78783 0.0
C495 C 0.44111 0.61308 0.817 0.0
C496 C 0.46236 0.63366 0.80638 0.0
C497 C 0.4677 0.63305 0.76772 0.0
C498 C 0.52498 0.59286 0.62911 0.0
C499 C 0.55985 0.63981 0.76015 0.0
O500 O 0.59978 0.6749 0.65461 0.0
O501 O 0.60206 0.63184 0.67883 0.0
O502 O 0.54835 0.69275 0.65926 0.0
O503 O 0.53413 0.66352 0.69932 0.0
O504 O 0.53822 0.65188 0.6046 0.0
O505 O 0.49474 0.6512 0.62465 0.0
O506 O 0.48025 0.59259 0.70189 0.0
O507 O 0.46528 0.634 0.68273 0.0
O508 O 0.49896 0.59843 0.62603 0.0
O509 O 0.54085 0.60507 0.66159 0.0
O510 O 0.53265 0.62686 0.74537 0.0
O511 O 0.57522 0.65119 0.73416 0.0
H512 H 0.67214 0.6729 0.66744 0.0
H513 H 0.70006 0.66327 0.61702 0.0
H514 H 0.62395 0.61111 0.54584 0.0
H515 H 0.59637 0.62061 0.59653 0.0
H516 H 0.41715 0.57595 0.72688 0.0
H517 H 0.40778 0.5767 0.79563 0.0
H518 H 0.47531 0.64981 0.82825 0.0
H519 H 0.48508 0.64821 0.76062 0.0
La520 La 0.99753 0.38082 0.20599 0.0
La521 La 0.02207 0.3651 0.12841 0.0
C522 C 0.98414 0.37061 0.27468 0.0
C523 C 0.97722 0.36192 0.31556 0.0
C524 C 0.95955 0.3768 0.33456 0.0
C525 C 0.95237 0.36742 0.37178 0.0
C526 C 0.96238 0.34259 0.3916 0.0
C527 C 0.98018 0.32789 0.37239 0.0
C528 C 0.98741 0.33732 0.33544 0.0
C529 C 0.00953 0.42482 0.15976 0.0
C530 C 0.06665 0.38207 0.20998 0.0
C531 C 0.03563 0.35321 0.06214 0.0
C532 C 0.04304 0.34458 1.02276 0.0
C533 C 0.03388 0.31632 1.006 0.0
C534 C 0.04249 0.30717 0.97111 0.0
C535 C 0.06074 0.32586 0.9514 0.0
C536 C 0.06971 0.35428 0.96809 0.0
C537 C 0.06108 0.36342 1.0031 0.0
C538 C 0.011 0.32445 0.17952 0.0
C539 C 0.95626 0.37411 0.12174 0.0
O540 O 0.97323 0.39051 0.25048 0.0
O541 O 0.00332 0.35844 0.26069 0.0
O542 O 0.99243 0.42522 0.18532 0.0
O543 O 0.02181 0.40234 0.1654 0.0
O544 O 0.04481 0.38404 0.22841 0.0
O545 O 0.06341 0.37692 0.17053 0.0
O546 O 0.01711 0.33642 0.0786 0.0
O547 O 0.04532 0.37803 0.08204 0.0
O548 O 0.03239 0.32595 0.16132 0.0
O549 O 0.99658 0.34455 0.16803 0.0
O550 O 0.97912 0.37793 0.1046 0.0
O551 O 0.95806 0.36798 0.16051 0.0
H552 H 0.95098 0.39566 0.32046 0.0
H553 H 0.93838 0.37948 0.38452 0.0
H554 H 0.98901 0.30906 0.38609 0.0
H555 H 1.00103 0.32505 0.32227 0.0
H556 H 0.02022 0.30094 1.0202 0.0
H557 H 0.03455 0.28531 0.95949 0.0
H558 H 0.08405 0.36946 0.95472 0.0
H559 H 0.06901 0.38518 1.01517 0.0
La560 La 0.5397 0.36769 0.42962 0.0
La561 La 0.47969 0.35797 0.43755 0.0
C562 C 0.58949 0.37642 0.4148 0.0
C563 C 0.60191 0.37158 0.3803 0.0
C564 C 0.6284 0.38765 0.37754 0.0
C565 C 0.6395 0.38467 0.34312 0.0
C566 C 0.62423 0.36535 0.3117 0.0
C567 C 0.59788 0.34898 0.31487 0.0
C568 C 0.58662 0.35229 0.34893 0.0
C569 C 0.52621 0.40787 0.47502 0.0
C570 C 0.48896 0.36416 0.34782 0.0
C571 C 0.43164 0.3633 0.45373 0.0
C572 C 0.42086 0.37445 0.48678 0.0
C573 C 0.43931 0.38099 0.52489 0.0
C574 C 0.42834 0.39127 0.55632 0.0
C575 C 0.39889 0.39528 0.54972 0.0
C576 C 0.38085 0.38958 0.51098 0.0
C577 C 0.39181 0.37916 0.4797 0.0
C578 C 0.49429 0.31421 0.40145 0.0
C579 C 0.52929 0.3385 0.50949 0.0
O580 O 0.57145 0.39569 0.4093 0.0
O581 O 0.57964 0.35303 0.43181 0.0
O582 O 0.54972 0.3963 0.48239 0.0
O583 O 0.51028 0.39707 0.44178 0.0
O584 O 0.51702 0.36362 0.364 0.0
O585 O 0.47069 0.36635 0.37191 0.0
O586 O 0.44421 0.33988 0.46103 0.0
O587 O 0.44606 0.3829 0.43515 0.0
O588 O 0.46801 0.32042 0.39541 0.0
O589 O 0.50989 0.33009 0.42987 0.0
O590 O 0.50328 0.34769 0.49988 0.0
O591 O 0.54622 0.34049 0.4829 0.0
H592 H 0.64011 0.40287 0.40155 0.0
H593 H 0.65976 0.39757 0.3408 0.0
H594 H 0.58551 0.33444 0.29039 0.0
H595 H 0.56576 0.34035 0.35036 0.0
H596 H 0.46195 0.3777 0.53043 0.0
H597 H 0.44263 0.39506 0.58605 0.0
H598 H 0.35819 0.3928 0.50504 0.0
H599 H 0.37755 0.37451 0.45007 0.0
La600 La 0.02342 0.63462 0.97889 0.0
La601 La 0.04728 0.61777 0.90156 0.0
C602 C 0.01041 0.64736 1.04518 0.0
C603 C 0.00339 0.65652 0.08454 0.0
C604 C 0.01352 0.68468 0.1012 0.0
C605 C 0.00528 0.69446 0.136 0.0
C606 C 0.98641 0.67655 0.1557 0.0
C607 C 0.97652 0.6482 0.13919 0.0
C608 C 0.98481 0.63842 0.10428 0.0
C609 C 0.03428 0.67466 0.92688 0.0
C610 C 0.08934 0.62633 0.98498 0.0
C611 C 0.06069 0.6268 0.83285 0.0
C612 C 0.06766 0.63462 0.79185 0.0
C613 C 0.08559 0.61938 0.77389 0.0
C614 C 0.09303 0.62807 0.73664 0.0
C615 C 0.08292 0.65246 0.7157 0.0
C616 C 0.06481 0.66749 0.73387 0.0
C617 C 0.05745 0.65884 0.77099 0.0
C618 C 0.03566 0.5745 0.94918 0.0
C619 C 0.97843 0.61761 0.8976 0.0
O620 O 0.0287 0.66389 1.02805 0.0
O621 O 1.00059 0.62231 1.02592 0.0
O622 O 0.01296 0.67347 0.94521 0.0
O623 O 0.04869 0.65461 0.93862 0.0
O624 O 0.06675 0.62235 1.00271 0.0
O625 O 0.08683 0.63189 0.94597 0.0
O626 O 0.07118 0.60685 0.85735 0.0
O627 O 0.04181 0.63966 0.84652 0.0
O628 O 0.05276 0.57379 0.9237 0.0
O629 O 0.0232 0.59683 0.9428 0.0
O630 O 1.00011 0.61506 0.87916 0.0
O631 O 0.98187 0.62308 0.93703 0.0
H632 H 0.02766 0.69951 0.08697 0.0
H633 H 0.01398 0.7162 0.14754 0.0
H634 H 0.9617 0.63362 0.15261 0.0
H635 H 0.97617 0.61676 0.09228 0.0
H636 H 0.09423 0.60084 0.78891 0.0
H637 H 0.10731 0.61584 0.72479 0.0
H638 H 0.05588 0.68601 0.71929 0.0
H639 H 0.04376 0.67144 0.78353 0.0
H640 H 0.1016 0.10958 0.98315 0.0
H641 H 0.20745 0.0913 0.83912 0.0
H642 H 0.18242 0.07745 1.03507 0.0
H643 H 0.16302 0.16591 0.84311 0.0
H644 H 0.19392 0.07523 0.90309 0.0
H645 H 0.11694 0.11621 0.91929 0.0
C646 C 0.12215 0.10292 0.98071 0.0
C647 C 0.14093 0.09309 1.01439 0.0
C648 C 0.18776 0.09534 0.88998 0.0
C649 C 0.15876 0.10149 0.94202 0.0
C650 C 0.19557 0.10457 0.85399 0.0
C651 C 0.18653 0.13002 0.83624 0.0
C652 C 0.17028 0.11139 0.90701 0.0
C653 C 0.17089 0.14643 0.85612 0.0
C654 C 0.13103 0.10714 0.94449 0.0
C655 C 0.16757 0.08537 1.0097 0.0
N656 N 0.16287 0.13657 0.89019 0.0
N657 N 0.176 0.09009 0.97403 0.0
H658 H 0.12286 0.74253 0.21088 0.0
H659 H 0.0079 0.8381 0.07932 0.0
H660 H 0.06969 0.79328 0.2627 0.0
H661 H 0.07789 0.8104 1.03315 0.0
H662 H 0.0267 0.81656 0.14468 0.0
H663 H 0.10309 0.76163 0.14351 0.0
C664 C 0.10693 0.7574 0.20818 0.0
C665 C 0.09811 0.76623 0.24287 0.0
C666 C 0.03795 0.81514 0.12023 0.0
C667 C 0.07524 0.78816 0.16568 0.0
C668 C 0.02714 0.82743 0.08276 0.0
C669 C 0.04124 0.82626 1.05037 0.0
C670 C 0.06293 0.80106 0.12559 0.0
C671 C 0.06624 0.81206 0.05709 0.0
C672 C 0.09575 0.76846 0.16972 0.0
C673 C 0.07744 0.78581 0.23719 0.0
N674 N 0.07614 0.8 0.09365 0.0
N675 N 0.06678 0.79593 0.19972 0.0
H676 H 0.35601 0.91483 0.41402 0.0
H677 H 0.4297 0.83342 0.58652 0.0
H678 H 0.3399 0.82191 0.42315 0.0
H679 H 0.42448 0.92401 0.60013 0.0
H680 H 0.38473 0.82799 0.53578 0.0
H681 H 0.36588 0.91928 0.48777 0.0
C682 C 0.35352 0.8954 0.43137 0.0
C683 C 0.3492 0.86788 0.41252 0.0
C684 C 0.3926 0.84902 0.55048 0.0
C685 C 0.36021 0.87281 0.49654 0.0
C686 C 0.41829 0.85193 0.57965 0.0
C687 C 0.43033 0.87897 0.59729 0.0
C688 C 0.37979 0.87382 0.53713 0.0
C689 C 0.41562 0.90282 0.58655 0.0
C690 C 0.35899 0.89798 0.47358 0.0
C691 C 0.34443 0.84362 0.43621 0.0
N692 N 0.39133 0.89987 0.55615 0.0
N693 N 0.35102 0.84659 0.4772 0.0
H694 H 0.4359 0.19385 0.89054 0.0
H695 H 0.47356 0.23184 0.67256 0.0
H696 H 0.4292 0.27726 0.8362 0.0
H697 H 0.4738 0.14672 0.72339 0.0
H698 H 0.4591 0.24912 0.73257 0.0
H699 H 0.45101 0.17687 0.8308 0.0
C700 C 0.43761 0.20873 0.86615 0.0
C701 C 0.43112 0.23721 0.86893 0.0
C702 C 0.46228 0.22664 0.73064 0.0
C703 C 0.44873 0.21755 0.79941 0.0
C704 C 0.47082 0.21666 0.69624 0.0
C705 C 0.4752 0.18752 0.69213 0.0
C706 C 0.45794 0.20758 0.76192 0.0
C707 C 0.4705 0.1692 0.72425 0.0
C708 C 0.44627 0.19891 0.83181 0.0
C709 C 0.43386 0.25517 0.83583 0.0
N710 N 0.46228 0.17948 0.75742 0.0
N711 N 0.44243 0.24512 0.80277 0.0
H712 H 0.83518 0.84778 0.25385 0.0
H713 H 0.9174 0.92607 0.10858 0.0
H714 H 0.88159 0.93375 0.28418 0.0
H715 H 0.8385 0.86759 0.06332 0.0
H716 H 0.90084 0.93361 0.17051 0.0
H717 H 0.8306 0.85801 0.18241 0.0
C718 C 0.84355 0.8692 0.24558 0.0
C719 C 0.85946 0.88971 0.27511 0.0
C720 C 0.88675 0.91976 0.14656 0.0
C721 C 0.85511 0.90112 0.1933 0.0
C722 C 0.8962 0.91545 0.11112 0.0
C723 C 0.87959 0.89564 0.08116 0.0
C724 C 0.86088 0.90368 0.1523 0.0
C725 C 0.85241 0.88231 0.08632 0.0
C726 C 0.84103 0.87499 0.20462 0.0
C727 C 0.87005 0.91696 0.26235 0.0
N728 N 0.84419 0.88602 0.12175 0.0
N729 N 0.86843 0.92162 0.22229 0.0
H730 H 0.92346 0.25552 0.89808 0.0
H731 H 0.0353 0.15618 1.02805 0.0
H732 H 0.97113 0.20023 0.84353 0.0
H733 H 0.96862 0.18932 0.07582 0.0
H734 H 0.01617 0.17692 0.96198 0.0
H735 H 0.9438 0.23651 0.96508 0.0
C736 C 0.93829 0.23959 0.90009 0.0
C737 C 0.9454 0.22954 0.86475 0.0
C738 C 0.00576 0.17969 0.98697 0.0
C739 C 0.96907 0.2077 0.94173 0.0
C740 C 0.01676 0.16788 1.02483 0.0
C741 C 0.00365 0.17081 0.0579 0.0
C742 C 0.98164 0.19505 0.98195 0.0
C743 C 0.97952 0.18627 1.05143 0.0
C744 C 0.94983 0.22861 0.93839 0.0
C745 C 0.96476 0.20866 0.86961 0.0
N746 N 0.96947 0.19781 1.01456 0.0
N747 N 0.97588 0.19862 0.90705 0.0
H748 H 0.69371 0.19834 0.67553 0.0
H749 H 0.60741 0.08935 0.53806 0.0
H750 H 0.70963 0.10961 0.69458 0.0
H751 H 0.6358 0.17115 0.48952 0.0
H752 H 0.65288 0.09388 0.58898 0.0
H753 H 0.68533 0.18995 0.60347 0.0
C754 C 0.69669 0.1773 0.66501 0.0
C755 C 0.70059 0.15405 0.69149 0.0
C756 C 0.64974 0.11047 0.56645 0.0
C757 C 0.68957 0.14416 0.60819 0.0
C758 C 0.62364 0.10802 0.53785 0.0
C759 C 0.61789 0.13037 0.51083 0.0
C760 C 0.66944 0.13606 0.56899 0.0
C761 C 0.63954 0.15382 0.5107 0.0
C762 C 0.69174 0.17251 0.62331 0.0
C763 C 0.70467 0.12764 0.67519 0.0
N764 N 0.66413 0.1566 0.54043 0.0
N765 N 0.69772 0.12295 0.63436 0.0
H766 H 0.56578 0.76434 0.43661 0.0
H767 H 0.61051 0.80468 0.22389 0.0
H768 H 0.5789 0.85203 0.39558 0.0
H769 H 0.61446 0.72019 0.27562 0.0
H770 H 0.59589 0.82147 0.28412 0.0
H771 H 0.58069 0.74742 0.37689 0.0
C772 C 0.57187 0.78028 0.41552 0.0
C773 C 0.57094 0.81003 0.42233 0.0
C774 C 0.59993 0.79925 0.28244 0.0
C775 C 0.58766 0.79007 0.35189 0.0
C776 C 0.60828 0.78951 0.24779 0.0
C777 C 0.61386 0.76078 0.24412 0.0
C778 C 0.59672 0.78022 0.31419 0.0
C779 C 0.61052 0.74247 0.27669 0.0
C780 C 0.58027 0.77038 0.38092 0.0
C781 C 0.5786 0.82894 0.39227 0.0
N782 N 0.60214 0.75241 0.30999 0.0
N783 N 0.58647 0.81871 0.35878 0.0
H784 H 0.70805 0.68172 0.35833 0.0
H785 H 0.66567 0.58752 0.53419 0.0
H786 H 0.69123 0.58829 0.35075 0.0
H787 H 0.6968 0.67906 0.54634 0.0
H788 H 0.68336 0.58569 0.4716 0.0
H789 H 0.71364 0.67982 0.43133 0.0
C790 C 0.70642 0.66071 0.37213 0.0
C791 C 0.69875 0.63509 0.34837 0.0
C792 C 0.68697 0.60603 0.48849 0.0
C793 C 0.70412 0.63284 0.43195 0.0
C794 C 0.67675 0.60708 0.52401 0.0
C795 C 0.67952 0.63353 0.54498 0.0
C796 C 0.69961 0.63171 0.47375 0.0
C797 C 0.69432 0.65821 0.53106 0.0
C798 C 0.7094 0.65964 0.41393 0.0
C799 C 0.69646 0.60856 0.36796 0.0
N800 N 0.70338 0.6568 0.49585 0.0
N801 N 0.69853 0.60813 0.40865 0.0
H802 H 0.61909 0.23927 0.70966 0.0
H803 H 0.5082 0.33969 0.57985 0.0
H804 H 0.57138 0.29506 0.76336 0.0
H805 H 0.57463 0.30649 0.5316 0.0
H806 H 0.52697 0.31831 0.64548 0.0
H807 H 0.59902 0.25827 0.64239 0.0
C808 C 0.60433 0.25528 0.70742 0.0
C809 C 0.59715 0.26551 0.74261 0.0
C810 C 0.53741 0.31564 0.62048 0.0
C811 C 0.57382 0.28731 0.66546 0.0
C812 C 0.5266 0.32782 0.58286 0.0
C813 C 0.53976 0.32508 0.54982 0.0
C814 C 0.5614 0.3001 0.62531 0.0
C815 C 0.56373 0.3094 0.55602 0.0
C816 C 0.59295 0.26626 0.66899 0.0
C817 C 0.57787 0.28649 0.73746 0.0
N818 N 0.57362 0.2975 0.5927 0.0
N819 N 0.56695 0.29649 0.69999 0.0
H820 H 0.94147 0.42036 0.07818 0.0
H821 H 0.85061 0.31773 0.91882 0.0
H822 H 0.90783 0.33415 0.10666 0.0
H823 H 0.85631 0.41033 0.9044 0.0
H824 H 0.85761 0.32483 0.99125 0.0
H825 H 0.89965 0.42054 1.02182 0.0
C826 C 0.92468 0.40177 0.073 0.0
C827 C 0.92803 0.37697 0.09599 0.0
C828 C 0.85637 0.34365 0.9723 0.0
C829 C 0.8809 0.37641 1.03107 0.0
C830 C 0.85216 0.3396 0.93051 0.0
C831 C 0.85416 0.36361 0.90541 0.0
C832 C 0.86352 0.37184 0.98909 0.0
C833 C 0.85608 0.39127 0.92284 0.0
C834 C 0.90072 0.40185 1.04101 0.0
C835 C 0.90588 0.35348 0.08891 0.0
N836 N 0.86176 0.39473 0.96383 0.0
N837 N 0.88353 0.35338 0.05608 0.0
H838 H 0.93557 0.6932 0.38981 0.0
H839 H 0.9777 0.73237 0.17481 0.0
H840 H 0.93251 0.77767 0.33774 0.0
H841 H 0.97331 0.64618 0.2224 0.0
H842 H 0.96315 0.74957 0.23478 0.0
H843 H 0.95079 0.67622 0.33014 0.0
C844 C 0.9381 0.70831 0.36594 0.0
C845 C 0.93258 0.73709 0.36932 0.0
C846 C 0.96533 0.72687 0.23214 0.0
C847 C 0.95035 0.71744 0.29991 0.0
C848 C 0.97392 0.71692 0.19777 0.0
C849 C 0.97703 0.68751 0.19276 0.0
C850 C 0.95966 0.70751 0.2625 0.0
C851 C 0.97102 0.66889 0.22397 0.0
C852 C 0.94682 0.69849 0.33163 0.0
C853 C 0.93636 0.75534 0.33687 0.0
N854 N 0.96279 0.67914 0.25715 0.0
N855 N 0.94498 0.74529 0.30386 0.0
H856 H 0.34731 0.37183 0.5665 0.0
H857 H 0.39908 0.42685 0.7934 0.0
H858 H 0.42246 0.43514 0.61129 0.0
H859 H 0.32507 0.36205 0.74942 0.0
H860 H 0.39937 0.44035 0.72391 0.0
H861 H 0.33094 0.37807 0.62893 0.0
C862 C 0.35999 0.38762 0.58907 0.0
C863 C 0.3865 0.4027 0.58408 0.0
C864 C 0.38261 0.42365 0.72941 0.0
C865 C 0.36826 0.40938 0.65594 0.0
C866 C 0.38226 0.41607 0.76917 0.0
C867 C 0.36228 0.39295 0.77704 0.0
C868 C 0.36313 0.40769 0.69742 0.0
C869 C 0.34125 0.37955 0.74446 0.0
C870 C 0.3507 0.39106 0.62482 0.0
C871 C 0.40222 0.42261 0.61445 0.0
N872 N 0.34258 0.38674 0.70589 0.0
N873 N 0.39309 0.42503 0.64948 0.0
H874 H 0.45445 0.64683 0.55077 0.0
H875 H 0.46977 0.77319 0.39206 0.0
H876 H 0.53758 0.69716 0.55273 0.0
H877 H 0.4157 0.69193 0.35564 0.0
H878 H 0.48942 0.75219 0.45821 0.0
H879 H 0.43435 0.66925 0.48627 0.0
C880 C 0.46848 0.66263 0.53774 0.0
C881 C 0.49791 0.66976 0.55714 0.0
C882 C 0.47299 0.73912 0.43584 0.0
C883 C 0.47466 0.6964 0.4837 0.0
C884 C 0.46156 0.7512 0.39823 0.0
C885 C 0.44071 0.73449 0.36826 0.0
C886 C 0.46296 0.71033 0.44415 0.0
C887 C 0.4315 0.70577 0.37783 0.0
C888 C 0.45698 0.67542 0.50087 0.0
C889 C 0.51491 0.69061 0.53868 0.0
N890 N 0.44237 0.69479 0.41479 0.0
N891 N 0.50305 0.70334 0.50342 0.0
H892 H 0.19449 0.6968 0.17346 0.0
H893 H 0.10633 0.58646 1.04014 0.0
H894 H 0.21036 0.6084 0.19627 0.0
H895 H 0.1375 0.66531 0.98689 0.0
H896 H 0.1514 0.59133 0.09196 0.0
H897 H 0.18501 0.68656 0.10161 0.0
C898 C 0.19724 0.67547 0.16374 0.0
C899 C 0.2016 0.65292 0.19132 0.0
C900 C 0.14895 0.60709 0.06819 0.0
C901 C 0.18938 0.64091 0.1084 0.0
C902 C 0.1231 0.60446 1.03904 0.0
C903 C 0.11827 0.62594 1.01032 0.0
C904 C 0.16931 0.63205 0.06946 0.0
C905 C 0.14055 0.64861 1.00925 0.0
C906 C 0.19166 0.6696 0.12222 0.0
C907 C 0.2052 0.62597 0.17607 0.0
N908 N 0.16488 0.65168 1.03943 0.0
N909 N 0.19769 0.62027 0.13547 0.0
H910 H 0.11857 0.2252 0.76991 0.0
H911 H 0.07227 0.35734 0.88487 0.0
H912 H 0.11164 0.30965 0.7191 0.0
H913 H 0.07154 0.27092 0.93136 0.0
H914 H 0.08791 0.34062 0.82544 0.0
H915 H 0.10237 0.24154 0.82946 0.0
C916 C 0.11373 0.24719 0.77113 0.0
C917 C 0.11668 0.26595 0.73897 0.0
C918 C 0.08429 0.32526 0.84859 0.0
C919 C 0.09803 0.28507 0.808 0.0
C920 C 0.07549 0.33488 0.88301 0.0
C921 C 0.07038 0.31575 0.91404 0.0
C922 C 0.08834 0.29611 0.84453 0.0
C923 C 0.07465 0.28669 0.90855 0.0
C924 C 0.1044 0.25654 0.80532 0.0
C925 C 0.10984 0.29423 0.7428 0.0
N926 N 0.08336 0.27792 0.8749 0.0
N927 N 0.10102 0.30283 0.7764 0.0
H928 H 0.96378 0.29881 0.20592 0.0
H929 H 0.07799 0.2113 0.27702 0.0
H930 H 0.0567 0.32019 0.24218 0.0
H931 H 0.99289 0.19315 0.19871 0.0
H932 H 0.05908 0.2443 0.31754 0.0
H933 H 0.96531 0.26392 0.26073 0.0
C934 C 0.98442 0.29635 0.22591 0.0
C935 C 0.01056 0.30956 0.21737 0.0
C936 C 0.04419 0.23205 0.29258 0.0
C937 C 0.01245 0.27007 0.27833 0.0
C938 C 0.05519 0.21386 0.26884 0.0
C939 C 0.03727 0.20107 0.23314 0.0
C940 C 0.016 0.23917 0.27815 0.0
C941 C 0.00773 0.20389 0.22485 0.0
C942 C 0.98526 0.2772 0.25791 0.0
C943 C 0.03646 0.30786 0.24561 0.0
N944 N 0.99799 0.22294 0.24697 0.0
N945 N 0.03681 0.28821 0.27526 0.0
H946 H 0.00521 0.81689 0.51123 0.0
H947 H 0.0672 0.68466 0.4305 0.0
H948 H 0.97297 0.72814 0.53014 0.0
H949 H 0.06089 0.76736 0.3738 0.0
H950 H 0.04671 0.70163 0.48526 0.0
H951 H 0.04463 0.8004 0.48569 0.0
C952 C 0.00737 0.79403 0.5122 0.0
C953 C 0.98528 0.77357 0.5208 0.0
C954 C 0.05009 0.71606 0.46095 0.0
C955 C 0.02943 0.75483 0.49119 0.0
C956 C 0.06127 0.70633 0.42945 0.0
C957 C 0.06636 0.72509 0.39835 0.0
C958 C 0.04382 0.74456 0.46089 0.0
C959 C 0.05813 0.75273 0.39805 0.0
C960 C 0.02959 0.78463 0.49702 0.0
C961 C 0.98926 0.74435 0.52229 0.0
N962 N 0.04725 0.76172 0.42905 0.0
N963 N 0.01043 0.73558 0.50605 0.0
H964 H 0.51327 0.69416 0.75389 0.0
H965 H 0.43633 0.79482 0.62314 0.0
H966 H 0.49496 0.71323 0.62653 0.0
H967 H 0.49181 0.81398 0.74175 0.0
H968 H 0.41481 0.7506 0.64878 0.0
H969 H 0.47233 0.71872 0.76244 0.0
C970 C 0.50029 0.7033 0.72769 0.0
C971 C 0.50797 0.7031 0.68987 0.0
C972 C 0.43066 0.7652 0.66993 0.0
C973 C 0.46083 0.72967 0.69898 0.0
C974 C 0.44336 0.79039 0.65489 0.0
C975 C 0.46768 0.80679 0.67944 0.0
C976 C 0.44644 0.75466 0.70578 0.0
C977 C 0.47485 0.80045 0.72073 0.0
C978 C 0.47664 0.71654 0.73242 0.0
C979 C 0.49043 0.71427 0.65654 0.0
N980 N 0.46397 0.77436 0.73309 0.0
N981 N 0.46779 0.72738 0.66199 0.0
H982 H 0.55942 0.26812 0.87003 0.0
H983 H 0.47143 0.22915 1.03112 0.0
H984 H 0.56343 0.1864 0.92984 0.0
H985 H 0.50348 0.31749 1.00992 0.0
H986 H 0.51091 0.21304 1.00547 0.0
H987 H 0.53983 0.28643 0.92468 0.0
C988 C 0.5564 0.25422 0.89497 0.0
C989 C 0.56389 0.22624 0.89645 0.0
C990 C 0.51008 0.23606 1.00795 0.0
C991 C 0.54187 0.24673 0.95888 0.0
C992 C 0.48776 0.24526 1.0231 0.0
C993 C 0.48363 0.27443 1.02054 0.0
C994 C 0.52764 0.25637 0.98993 0.0
C995 C 0.5055 0.29462 1.01089 0.0
C996 C 0.54551 0.26465 0.92627 0.0
C997 C 0.55834 0.20838 0.92818 0.0
N998 N 0.52606 0.2851 0.99407 0.0
N999 N 0.54772 0.21898 0.95842 0.0
H1000 H 0.05393 0.80741 0.90968 0.0
H1001 H 0.98892 0.68001 0.86411 0.0
H1002 H 0.96994 0.789 0.82865 0.0
H1003 H 0.08198 0.69936 0.90066 0.0
H1004 H 0.98949 0.71335 0.80862 0.0
H1005 H 0.07336 0.7761 0.86846 0.0
C1006 C 0.03962 0.7969 0.88289 0.0
C1007 C 0.00992 0.79904 0.87405 0.0
C1008 C 0.01004 0.71028 0.82839 0.0
C1009 C 0.03118 0.76093 0.82915 0.0
C1010 C 0.00946 0.69165 0.86054 0.0
C1011 C 0.0351 0.68966 0.88918 0.0
C1012 C 0.03541 0.72997 0.82953 0.0
C1013 C 0.06144 0.70274 0.88118 0.0
C1014 C 0.05072 0.77917 0.85884 0.0
C1015 C 0.99263 0.78619 0.83801 0.0
N1016 N 0.06098 0.72317 0.85232 0.0
N1017 N 0.00338 0.76707 0.8171 0.0
H1018 H 0.54198 0.6779 0.1054 0.0
H1019 H 0.48135 0.81243 0.18104 0.0
H1020 H 0.57087 0.7665 0.08088 0.0
H1021 H 0.47796 0.72784 0.23359 0.0
H1022 H 0.50064 0.79386 0.12642 0.0
H1023 H 0.50114 0.69365 0.1283 0.0
C1024 C 0.53883 0.70048 0.10273 0.0
C1025 C 0.56028 0.72128 0.09316 0.0
C1026 C 0.49545 0.77932 0.14974 0.0
C1027 C 0.5146 0.73927 0.11998 0.0
C1028 C 0.48493 0.78996 0.18123 0.0
C1029 C 0.47775 0.77138 0.2114 0.0
C1030 C 0.49932 0.75008 0.14898 0.0
C1031 C 0.48274 0.74257 0.21035 0.0
C1032 C 0.51578 0.7095 0.11638 0.0
C1033 C 0.55508 0.75009 0.08948 0.0
N1034 N 0.49337 0.73276 0.17957 0.0
N1035 N 0.53315 0.75853 0.10431 0.0
H1036 H 0.57557 0.19624 0.39437 0.0
H1037 H 0.46412 0.28924 0.32913 0.0
H1038 H 0.48222 0.1781 0.36326 0.0
H1039 H 0.54983 0.30393 0.40647 0.0
H1040 H 0.48099 0.25499 0.28804 0.0
H1041 H 0.57366 0.23173 0.34041 0.0
C1042 C 0.55472 0.19941 0.37552 0.0
C1043 C 0.52877 0.187 0.38551 0.0
C1044 C 0.4965 0.26673 0.31289 0.0
C1045 C 0.52653 0.22724 0.32552 0.0
C1046 C 0.48667 0.28568 0.33694 0.0
C1047 C 0.50526 0.29782 0.3726 0.0
C1048 C 0.52422 0.25839 0.32675 0.0
C1049 C 0.53446 0.2937 0.3804 0.0
C1050 C 0.55363 0.21898 0.34402 0.0
C1051 C 0.50249 0.18971 0.35873 0.0
N1052 N 0.54303 0.27392 0.35797 0.0
N1053 N 0.50196 0.20982 0.32962 0.0
H1054 H 0.0734 0.27505 0.58711 0.0
H1055 H 0.98054 0.21582 0.74434 0.0
H1056 H 0.04529 0.18457 0.6011 0.0
H1057 H 0.99758 0.3065 0.7198 0.0
H1058 H 0.00317 0.20423 0.68928 0.0
H1059 H 0.03857 0.28749 0.62528 0.0
C1060 C 0.05871 0.25779 0.59632 0.0
C1061 C 0.06325 0.22886 0.59338 0.0
C1062 C 1.00238 0.22673 0.69618 0.0
C1063 C 0.02444 0.24267 0.63772 0.0
C1064 C 0.99027 0.23333 0.72833 0.0
C1065 C 0.98776 0.26207 0.73668 0.0
C1066 C 0.01193 0.24914 0.67234 0.0
C1067 C 0.99984 0.28409 0.71464 0.0
C1068 C 0.03932 0.26488 0.61894 0.0
C1069 C 0.04325 0.20724 0.60448 0.0
N1070 N 0.01122 0.27714 0.68299 0.0
N1071 N 0.0254 0.21457 0.62791 0.0
H1072 H 0.06085 0.05251 0.15139 0.0
H1073 H 0.98079 0.9451 0.96042 0.0
H1074 H 0.98195 0.06673 0.06725 0.0
H1075 H 0.05967 0.93089 1.04465 0.0
H1076 H 0.98034 0.98965 0.99953 0.0
H1077 H 0.06134 0.00801 0.11223 0.0
C1078 C 0.04374 0.04636 0.12479 0.0
C1079 C 0.02129 0.06335 0.11286 0.0
C1080 C 0.99773 0.97669 1.00939 0.0
C1081 C 0.02141 0.01242 0.06802 0.0
C1082 C 0.99784 0.95119 0.9871 0.0
C1083 C 0.02028 0.9342 0.99906 0.0
C1084 C 0.02024 0.98523 1.04376 0.0
C1085 C 0.04193 0.9433 1.03401 0.0
C1086 C 0.04391 0.02093 0.10243 0.0
C1087 C 0.99967 0.0543 0.0779 0.0
N1088 N 0.04142 0.96803 0.05485 0.0
N1089 N 1.00021 0.0296 0.05697 0.0
H1090 H 0.19944 0.79299 0.29241 0.0
H1091 H 0.34482 0.71852 0.32256 0.0
H1092 H 0.21992 0.72684 0.3796 0.0
H1093 H 0.32274 0.78089 0.23018 0.0
H1094 H 0.29989 0.72233 0.34455 0.0
H1095 H 0.24458 0.78978 0.27026 0.0
C1096 C 0.21348 0.77773 0.30694 0.0
C1097 C 0.20581 0.76009 0.33789 0.0
C1098 C 0.30477 0.73532 0.31958 0.0
C1099 C 0.25785 0.75635 0.31256 0.0
C1100 C 0.33051 0.73321 0.30697 0.0
C1101 C 0.33771 0.7496 0.27464 0.0
C1102 C 0.28572 0.75398 0.29976 0.0
C1103 C 0.31819 0.76807 0.25545 0.0
C1104 C 0.23928 0.77591 0.29417 0.0
C1105 C 0.2249 0.74079 0.3556 0.0
N1106 N 0.29311 0.7698 0.26837 0.0
N1107 N 0.25 0.73943 0.34266 0.0
H1108 H 0.49859 0.06886 0.49853 0.0
H1109 H 0.55473 0.92955 0.61534 0.0
H1110 H 0.57061 0.02998 0.4745 0.0
H1111 H 0.48485 0.97123 0.64104 0.0
H1112 H 0.56062 0.96531 0.56299 0.0
H1113 H 0.49311 0.03294 0.55036 0.0
C1114 C 0.51341 0.05286 0.50441 0.0
C1115 C 0.53527 0.05261 0.48246 0.0
C1116 C 0.54399 0.96664 0.58006 0.0
C1117 C 0.52888 0.0109 0.5415 0.0
C1118 C 0.54055 0.94615 0.60982 0.0
C1119 C 0.51918 0.94734 0.63243 0.0
C1120 C 0.52593 0.98855 0.57285 0.0
C1121 C 0.50164 0.96954 0.62439 0.0
C1122 C 0.51018 0.03221 0.53389 0.0
C1123 C 0.55348 0.03097 0.49077 0.0
N1124 N 0.50538 0.98919 0.59533 0.0
N1125 N 0.5499 0.01101 0.51961 0.0
H1126 H 0.32393 0.29557 0.90371 0.0
H1127 H 0.22732 0.21282 0.69762 0.0
H1128 H 0.33345 0.20987 0.86544 0.0
H1129 H 0.21263 0.29507 0.74164 0.0
H1130 H 0.26748 0.21176 0.7579 0.0
H1131 H 0.28415 0.29686 0.84297 0.0
C1132 C 0.3177 0.27709 0.88285 0.0
C1133 C 0.33209 0.25257 0.89017 0.0
C1134 C 0.25543 0.23008 0.75413 0.0
C1135 C 0.2867 0.25378 0.82042 0.0
C1136 C 0.2325 0.23061 0.71964 0.0
C1137 C 0.21638 0.25399 0.71422 0.0
C1138 C 0.26252 0.25324 0.78316 0.0
C1139 C 0.22427 0.27648 0.74413 0.0
C1140 C 0.295 0.27776 0.84808 0.0
C1141 C 0.32307 0.2293 0.86154 0.0
N1142 N 0.24655 0.27557 0.77687 0.0
N1143 N 0.30119 0.23048 0.82834 0.0
H1144 H 0.71616 0.21988 0.8805 0.0
H1145 H 0.82386 0.27572 0.73323 0.0
H1146 H 0.70149 0.28884 0.79605 0.0
H1147 H 0.84296 0.21302 0.82612 0.0
H1148 H 0.77814 0.27989 0.7543 0.0
H1149 H 0.76182 0.21556 0.8593 0.0
C1150 C 0.72257 0.2341 0.85759 0.0
C1151 C 0.70499 0.25472 0.84001 0.0
C1152 C 0.79237 0.26526 0.77015 0.0
C1153 C 0.7572 0.25008 0.81566 0.0
C1154 C 0.81849 0.26298 0.75817 0.0
C1155 C 0.83742 0.24434 0.77835 0.0
C1156 C 0.7849 0.24842 0.80212 0.0
C1157 C 0.82913 0.2279 0.80999 0.0
C1158 C 0.74862 0.23168 0.84546 0.0
C1159 C 0.71437 0.27264 0.81044 0.0
N1160 N 0.80359 0.23031 0.82087 0.0
N1161 N 0.7397 0.26989 0.7992 0.0
H1162 H 0.85037 0.72469 0.35237 0.0
H1163 H 0.69522 0.77442 0.25964 0.0
H1164 H 0.81215 0.78427 0.41512 0.0
H1165 H 0.73627 0.7197 0.19351 0.0
H1166 H 0.73687 0.77714 0.3167 0.0
H1167 H 0.8093 0.72287 0.2947 0.0
C1168 C 0.83343 0.73779 0.35389 0.0
C1169 C 0.83491 0.75468 0.38903 0.0
C1170 C 0.73686 0.76434 0.29 0.0
C1171 C 0.78694 0.7523 0.32215 0.0
C1172 C 0.71293 0.76258 0.25723 0.0
C1173 C 0.71196 0.74663 0.22145 0.0
C1174 C 0.76055 0.75006 0.2876 0.0
C1175 C 0.73575 0.73197 0.22044 0.0
C1176 C 0.80983 0.73658 0.32074 0.0
C1177 C 0.81219 0.77112 0.38879 0.0
N1178 N 0.75904 0.73408 0.25295 0.0
N1179 N 0.78908 0.76934 0.35603 0.0
H1180 H 0.49549 0.57664 0.55376 0.0
H1181 H 0.5599 0.427 0.5474 0.0
H1182 H 0.56366 0.55181 0.64868 0.0
H1183 H 0.48925 0.45039 0.45508 0.0
H1184 H 0.56212 0.47251 0.58372 0.0
H1185 H 0.49462 0.53191 0.51622 0.0
C1186 C 0.51073 0.56192 0.56646 0.0
C1187 C 0.52979 0.56818 0.60452 0.0
C1188 C 0.54603 0.46781 0.55567 0.0
C1189 C 0.52853 0.51612 0.56139 0.0
C1190 C 0.54462 0.44168 0.53477 0.0
C1191 C 0.52436 0.43471 0.49784 0.0
C1192 C 0.52703 0.48761 0.53984 0.0
C1193 C 0.50516 0.4547 0.48336 0.0
C1194 C 0.51002 0.5362 0.54498 0.0
C1195 C 0.54885 0.54815 0.61935 0.0
N1196 N 0.50705 0.48026 0.50431 0.0
N1197 N 0.5476 0.52295 0.59786 0.0
H1198 H 0.99485 0.56944 0.99579 0.0
H1199 H 0.0504 0.43028 0.1134 0.0
H1200 H 0.06652 0.52948 0.97273 0.0
H1201 H 0.97861 0.46996 0.13662 0.0
H1202 H 0.05656 0.46628 0.06175 0.0
H1203 H 0.98864 0.53355 1.04763 0.0
C1204 C 0.00941 0.55322 1.00187 0.0
C1205 C 0.03139 0.55261 0.98018 0.0
C1206 C 0.03942 0.46716 0.07805 0.0
C1207 C 0.0242 0.51107 1.03914 0.0
C1208 C 0.0358 0.44648 0.10739 0.0
C1209 C 0.0138 0.44696 0.12906 0.0
C1210 C 0.02094 0.48866 0.07029 0.0
C1211 C 0.99587 0.46881 0.12063 0.0
C1212 C 0.00577 0.53261 1.03133 0.0
C1213 C 0.04928 0.53074 0.98874 0.0
N1214 N 0.9998 0.48874 0.09192 0.0
N1215 N 0.04533 0.51089 1.01751 0.0
H1216 H 0.11095 0.16252 0.29466 0.0
H1217 H 0.10502 0.16625 0.5271 0.0
H1218 H 0.02939 0.13512 0.32849 0.0
H1219 H 0.14713 0.24102 0.47704 0.0
H1220 H 0.08368 0.14687 0.45796 0.0
H1221 H 0.1309 0.1834 0.36325 0.0
C1222 C 0.09727 0.16026 0.31659 0.0
C1223 C 0.06831 0.14636 0.30519 0.0
C1224 C 0.0977 0.16743 0.46203 0.0
C1225 C 0.09172 0.17042 0.38521 0.0
C1226 C 0.11022 0.17852 0.50168 0.0
C1227 C 0.12844 0.20537 0.50858 0.0
C1228 C 0.10396 0.18258 0.42819 0.0
C1229 C 0.13357 0.22022 0.47373 0.0
C1230 C 0.10873 0.17261 0.35583 0.0
C1231 C 0.05183 0.14513 0.33546 0.0
N1232 N 0.12188 0.20847 0.43537 0.0
N1233 N 0.06382 0.15651 0.37393 0.0
H1234 H 0.12612 0.8955 0.56446 0.0
H1235 H 0.12878 0.81887 0.77365 0.0
H1236 H 0.1408 0.80655 0.58401 0.0
H1237 H 0.13695 0.91167 0.76236 0.0
H1238 H 0.13647 0.81432 0.70494 0.0
H1239 H 0.13298 0.9028 0.63778 0.0
C1240 C 0.13103 0.87764 0.58428 0.0
C1241 C 0.13237 0.8503 0.56842 0.0
C1242 C 0.13721 0.83574 0.71773 0.0
C1243 C 0.14014 0.85834 0.65158 0.0
C1244 C 0.13281 0.83827 0.75678 0.0
C1245 C 0.13222 0.86562 0.77309 0.0
C1246 C 0.14049 0.86076 0.69493 0.0
C1247 C 0.13748 0.89024 0.75053 0.0
C1248 C 0.13499 0.88179 0.62598 0.0
C1249 C 0.13878 0.82777 0.59511 0.0
N1250 N 0.14097 0.88721 0.71209 0.0
N1251 N 0.14216 0.83223 0.63548 0.0
H1252 H 0.41975 0.74741 0.10108 0.0
H1253 H 0.45776 0.88089 0.95841 0.0
H1254 H 0.41994 0.83656 0.13427 0.0
H1255 H 0.45635 0.79136 0.92517 0.0
H1256 H 0.44474 0.86539 1.02228 0.0
H1257 H 0.43312 0.76312 1.03736 0.0
C1258 C 0.42222 0.77032 0.09502 0.0
C1259 C 0.41813 0.79046 0.12372 0.0
C1260 C 0.44725 0.84907 1.00106 0.0
C1261 C 0.43405 0.80898 1.04932 0.0
C1262 C 0.45502 0.85795 0.96422 0.0
C1263 C 0.45852 0.83768 0.93512 0.0
C1264 C 0.44267 0.81945 1.0099 0.0
C1265 C 0.45374 0.80819 0.94549 0.0
C1266 C 0.43005 0.77933 0.05832 0.0
C1267 C 0.42229 0.81994 0.1134 0.0
N1268 N 0.44621 0.80016 0.9815 0.0
N1269 N 0.42994 0.82817 0.0775 0.0
H1270 H 0.43862 0.14977 0.39225 0.0
H1271 H 0.37213 0.17837 0.19834 0.0
H1272 H 0.4541 0.06976 0.34305 0.0
H1273 H 0.4164 0.10925 0.16833 0.0
H1274 H 0.37728 0.16075 0.26753 0.0
H1275 H 0.4049 0.15711 0.32895 0.0
C1276 C 0.43347 0.13288 0.36883 0.0
C1277 C 0.44931 0.10943 0.37213 0.0
C1278 C 0.38588 0.14939 0.24596 0.0
C1279 C 0.41118 0.11756 0.29953 0.0
C1280 C 0.38274 0.15933 0.20638 0.0
C1281 C 0.39452 0.14559 0.17812 0.0
C1282 C 0.40108 0.12568 0.25706 0.0
C1283 C 0.40777 0.12092 0.18964 0.0
C1284 C 0.41431 0.13715 0.33233 0.0
C1285 C 0.4424 0.08831 0.34109 0.0
N1286 N 0.41093 0.11195 0.22834 0.0
N1287 N 0.4243 0.09321 0.3056 0.0
H1288 H 0.89838 0.76236 0.62656 0.0
H1289 H 0.01497 0.86994 0.78251 0.0
H1290 H 0.9409 0.8398 0.58312 0.0
H1291 H 0.93355 0.83601 0.81241 0.0
H1292 H 0.99503 0.85206 0.71176 0.0
H1293 H 0.9174 0.78143 0.69696 0.0
C1294 C 0.91149 0.78341 0.6316 0.0
C1295 C 0.91732 0.79961 0.59819 0.0
C1296 C 0.9815 0.8487 0.73381 0.0
C1297 C 0.94049 0.82117 0.67962 0.0
C1298 C 0.99286 0.85906 0.77434 0.0
C1299 C 0.97588 0.8553 0.80393 0.0
C1300 C 0.95321 0.83329 0.72258 0.0
C1301 C 0.94746 0.84023 0.79096 0.0
C1302 C 0.92244 0.79429 0.67196 0.0
C1303 C 0.93511 0.82662 0.6074 0.0
N1304 N 0.9373 0.82958 0.75187 0.0
N1305 N 0.94622 0.83626 0.64679 0.0
H1306 H 0.90779 0.10342 0.54041 0.0
H1307 H 0.91967 0.18797 0.33868 0.0
H1308 H 0.91301 0.19637 0.53118 0.0
H1309 H 0.9031 0.09484 0.34329 0.0
H1310 H 0.91339 0.1915 0.40825 0.0
H1311 H 0.90306 0.0995 0.46703 0.0
C1312 C 0.90794 0.12294 0.52284 0.0
C1313 C 0.91123 0.15024 0.54165 0.0
C1314 C 0.9106 0.17029 0.39385 0.0
C1315 C 0.90574 0.14603 0.45838 0.0
C1316 C 0.91412 0.16834 0.35428 0.0
C1317 C 0.91192 0.14112 0.33577 0.0
C1318 C 0.90525 0.14479 0.41489 0.0
C1319 C 0.90471 0.11621 0.35673 0.0
C1320 C 0.90515 0.12073 0.4811 0.0
C1321 C 0.91127 0.17495 0.51784 0.0
N1322 N 0.90199 0.11862 0.39561 0.0
N1323 N 0.90871 0.17225 0.47734 0.0
H1324 H 0.61308 0.16365 0.96723 0.0
H1325 H 0.62116 0.20014 0.20276 0.0
H1326 H 0.63684 0.25073 1.01665 0.0
H1327 H 0.56257 0.12854 0.13869 0.0
H1328 H 0.63325 0.21627 0.1381 0.0
H1329 H 0.60086 0.1478 1.03188 0.0
C1330 C 0.61628 0.17945 0.99178 0.0
C1331 C 0.62643 0.20869 0.98595 0.0
C1332 C 0.61776 0.197 0.13812 0.0
C1333 C 0.61247 0.1903 0.06129 0.0
C1334 C 0.6109 0.18761 0.17526 0.0
C1335 C 0.59072 0.16273 0.17685 0.0
C1336 C 0.60504 0.18116 0.10172 0.0
C1337 C 0.5781 0.14786 0.13949 0.0
C1338 C 0.60898 0.17034 1.02877 0.0
C1339 C 0.62935 0.22797 1.01926 0.0
N1340 N 0.58563 0.15704 0.10395 0.0
N1341 N 0.62274 0.21847 0.05522 0.0
H1342 H 0.59613 0.82597 0.72455 0.0
H1343 H 0.66403 0.88758 0.94443 0.0
H1344 H 0.59879 0.91374 0.76594 0.0
H1345 H 0.65162 0.79707 0.90906 0.0
H1346 H 0.65852 0.90022 0.87348 0.0
H1347 H 0.63426 0.8187 0.78406 0.0
C1348 C 0.60577 0.84404 0.74535 0.0
C1349 C 0.59433 0.87027 0.74135 0.0
C1350 C 0.65764 0.87759 0.88124 0.0
C1351 C 0.63691 0.86214 0.80911 0.0
C1352 C 0.66087 0.87035 0.92183 0.0
C1353 C 0.65748 0.8412 0.9325 0.0
C1354 C 0.65034 0.85553 0.85115 0.0
C1355 C 0.65334 0.81981 0.9019 0.0
C1356 C 0.62732 0.83989 0.77934 0.0
C1357 C 0.60703 0.89308 0.76875 0.0
N1358 N 0.64922 0.82739 0.86242 0.0
N1359 N 0.62735 0.88834 0.80207 0.0
H1360 H 0.60369 0.68311 0.79267 0.0
H1361 H 0.61185 0.65584 1.02949 0.0
H1362 H 0.54236 0.61816 0.83101 0.0
H1363 H 0.6391 0.73939 0.98482 0.0
H1364 H 0.59189 0.63817 0.95905 0.0
H1365 H 0.6219 0.69997 0.86305 0.0
C1366 C 0.5941 0.67197 0.81578 0.0
C1367 C 0.57138 0.64864 0.80493 0.0
C1368 C 0.60237 0.66031 0.96457 0.0
C1369 C 0.59301 0.66836 0.88766 0.0
C1370 C 0.61414 0.67047 1.00501 0.0
C1371 C 0.62782 0.69926 1.01387 0.0
C1372 C 0.60462 0.67869 0.93183 0.0
C1373 C 0.6292 0.71702 0.98013 0.0
C1374 C 0.60457 0.68193 0.85633 0.0
C1375 C 0.55998 0.63592 0.83724 0.0
N1376 N 0.61816 0.70644 0.94107 0.0
N1377 N 0.57106 0.64566 0.87684 0.0
H1378 H 0.6383 0.4099 0.26463 0.0
H1379 H 0.64627 0.30317 0.08549 0.0
H1380 H 0.63205 0.31699 0.27355 0.0
H1381 H 0.62816 0.39126 0.06775 0.0
H1382 H 0.65313 0.31061 0.15849 0.0
H1383 H 0.64733 0.40593 0.19631 0.0
C1384 C 0.63958 0.38877 0.25242 0.0
C1385 C 0.63438 0.36367 0.27411 0.0
C1386 C 0.64788 0.32837 0.13864 0.0
C1387 C 0.64422 0.35897 0.19679 0.0
C1388 C 0.64371 0.32408 0.09708 0.0
C1389 C 0.63602 0.34651 0.07083 0.0
C1390 C 0.64435 0.35525 0.15385 0.0
C1391 C 0.63391 0.37345 0.08719 0.0
C1392 C 0.6445 0.3865 0.21355 0.0
C1393 C 0.63579 0.33673 0.25727 0.0
N1394 N 0.63777 0.37703 0.1279 0.0
N1395 N 0.64035 0.33503 0.21924 0.0
H1396 H 0.95571 0.28629 0.42108 0.0
H1397 H 0.91992 0.33062 0.63487 0.0
H1398 H 0.95045 0.37413 0.45525 0.0
H1399 H 0.91792 0.24204 0.59727 0.0
H1400 H 0.93206 0.34663 0.57048 0.0
H1401 H 0.9436 0.27 0.48526 0.0
C1402 C 0.95225 0.30239 0.44186 0.0
C1403 C 0.95439 0.33199 0.4316 0.0
C1404 C 0.92882 0.32366 0.57603 0.0
C1405 C 0.93978 0.3128 0.5067 0.0
C1406 C 0.92174 0.31437 0.61308 0.0
C1407 C 0.91732 0.2847 0.62211 0.0
C1408 C 0.93192 0.30335 0.54697 0.0
C1409 C 0.92058 0.26508 0.59207 0.0
C1410 C 0.94503 0.29285 0.47878 0.0
C1411 C 0.94886 0.35114 0.4606 0.0
N1412 N 0.92765 0.27468 0.55634 0.0
N1413 N 0.942 0.34132 0.4963 0.0
H1414 H 0.94224 0.65829 0.89193 0.0
H1415 H 0.88493 0.60649 0.66319 0.0
H1416 H 0.95121 0.57608 0.8417 0.0
H1417 H 0.89494 0.69516 0.70623 0.0
H1418 H 0.89117 0.59063 0.73294 0.0
H1419 H 0.90674 0.66643 0.8299 0.0
C1420 C 0.93552 0.64131 0.86866 0.0
C1421 C 0.9497 0.6167 0.87119 0.0
C1422 C 0.8914 0.61352 0.72709 0.0
C1423 C 0.90997 0.62592 0.80064 0.0
C1424 C 0.88776 0.62261 0.68724 0.0
C1425 C 0.88993 0.65223 0.67899 0.0
C1426 C 0.89767 0.63421 0.75894 0.0
C1427 C 0.8939 0.67214 0.71143 0.0
C1428 C 0.91558 0.64609 0.83315 0.0
C1429 C 0.94078 0.59545 0.84034 0.0
N1430 N 0.89817 0.66279 0.75016 0.0
N1431 N 0.92181 0.60079 0.80585 0.0
H1432 H 0.51633 0.3672 0.28217 0.0
H1433 H 0.39588 0.26322 0.12668 0.0
H1434 H 0.43337 0.33905 0.31142 0.0
H1435 H 0.44137 0.33857 0.08259 0.0
H1436 H 0.41544 0.28246 0.19694 0.0
H1437 H 0.49584 0.3492 0.21161 0.0
C1438 C 0.49377 0.35758 0.27389 0.0
C1439 C 0.47656 0.3555 0.30325 0.0
C1440 C 0.42103 0.29482 0.17183 0.0
C1441 C 0.45317 0.33328 0.22212 0.0
C1442 C 0.40979 0.28384 0.13156 0.0
C1443 C 0.4163 0.29942 0.09801 0.0
C1444 C 0.44007 0.32112 0.17926 0.0
C1445 C 0.43506 0.3259 0.10699 0.0
C1446 C 0.48209 0.34714 0.23347 0.0
C1447 C 0.44752 0.34197 0.29014 0.0
N1448 N 0.44644 0.33559 0.1463 0.0
N1449 N 0.43702 0.33117 0.25118 0.0
H1450 H 0.47308 0.6521 0.06921 0.0
H1451 H 0.39069 0.60777 0.8441 0.0
H1452 H 0.38143 0.62012 1.03696 0.0
H1453 H 0.48405 0.6163 0.88494 0.0
H1454 H 0.38636 0.61083 0.91482 0.0
H1455 H 0.47755 0.63835 1.00144 0.0
C1456 C 0.45402 0.64184 1.04782 0.0
C1457 C 0.42689 0.63713 0.05818 0.0
C1458 C 0.40775 0.61167 0.90825 0.0
C1459 C 0.43165 0.62155 0.9812 0.0
C1460 C 0.41018 0.60989 0.86806 0.0
C1461 C 0.43774 0.61225 0.85904 0.0
C1462 C 0.43309 0.61598 0.93913 0.0
C1463 C 0.46243 0.61509 0.89084 0.0
C1464 C 0.45654 0.6339 1.00936 0.0
C1465 C 0.40274 0.62378 1.02987 0.0
N1466 N 0.45953 0.61718 0.9296 0.0
N1467 N 0.40561 0.61668 0.99226 0.0
H1468 H 0.12264 0.75452 0.50842 0.0
H1469 H 0.09674 0.61987 0.65462 0.0
H1470 H 0.13195 0.66714 0.47798 0.0
H1471 H 0.08834 0.70797 0.68349 0.0
H1472 H 0.10995 0.63631 0.5911 0.0
H1473 H 0.1103 0.73765 0.57213 0.0
C1474 C 0.1225 0.73179 0.51513 0.0
C1475 C 0.12889 0.71249 0.48721 0.0
C1476 C 0.10518 0.65207 0.6113 0.0
C1477 C 0.11422 0.69258 0.56159 0.0
C1478 C 0.09774 0.64269 0.64814 0.0
C1479 C 0.09117 0.66227 0.67564 0.0
C1480 C 0.10626 0.68148 0.60099 0.0
C1481 C 0.09258 0.69156 0.66386 0.0
C1482 C 0.11525 0.72208 0.55181 0.0
C1483 C 0.12771 0.68313 0.49829 0.0
N1484 N 0.09987 0.70008 0.62797 0.0
N1485 N 0.12059 0.67421 0.53422 0.0
H1486 H 0.10437 0.34281 0.21646 0.0
H1487 H 0.16084 0.39907 0.44274 0.0
H1488 H 0.09284 0.42488 0.26433 0.0
H1489 H 0.15383 0.31009 0.40243 0.0
H1490 H 0.15492 0.41398 0.37259 0.0
H1491 H 0.14129 0.33695 0.27797 0.0
C1492 C 0.11076 0.36023 0.23909 0.0
C1493 C 0.09552 0.38411 0.23617 0.0
C1494 C 0.15532 0.39125 0.37914 0.0
C1495 C 0.13687 0.3775 0.30606 0.0
C1496 C 0.15878 0.38271 0.41922 0.0
C1497 C 0.1572 0.35324 0.42828 0.0
C1498 C 0.14978 0.37014 0.34792 0.0
C1499 C 0.1543 0.33298 0.39654 0.0
C1500 C 0.13155 0.35679 0.27426 0.0
C1501 C 0.10406 0.40602 0.26611 0.0
N1502 N 0.15009 0.34177 0.35756 0.0
N1503 N 0.12387 0.40195 0.30033 0.0
loop_
_geom_bond_atom_site_label_1
_geom_bond_atom_site_label_2
_geom_bond_distance
_geom_bond_site_symmetry_2
_ccdc_geom_bond_type
La0 C2 2.928 . S
La0 O20 2.521 . S
La0 O21 2.628 . S
La0 O22 2.554 . S
La0 O23 2.765 . S
La0 O24 2.470 1_455 S
La0 O29 2.482 . S
La0 O31 2.503 . S
La1 C11 2.928 . S
La1 O23 2.476 1_655 S
La1 O25 2.503 . S
La1 O26 2.521 . S
La1 O27 2.628 . S
La1 O28 2.554 . S
La1 O29 2.757 1_655 S
La1 O30 2.470 1_655 S
C2 La0 2.928 . S
C2 C3 1.503 1_554 S
C2 O20 1.261 . S
C2 O21 1.243 . S
C3 C2 1.503 1_556 S
C3 C4 1.394 . S
C3 C8 1.373 . S
C4 C3 1.394 . S
C4 C5 1.380 . S
C4 H32 0.930 . S
C5 C4 1.380 . S
C5 C6 1.376 . S
C5 H33 0.930 . S
C6 C5 1.376 . S
C6 C7 1.370 . S
C7 C6 1.370 . S
C7 C8 1.396 . S
C7 H34 0.929 . S
C8 C3 1.373 . S
C8 C7 1.396 . S
C8 H35 0.929 . S
C9 O22 1.240 . S
C9 O23 1.292 . S
C10 O24 1.258 . S
C10 O25 1.256 . S
C11 La1 2.928 . S
C11 C12 1.503 . S
C11 O26 1.261 . S
C11 O27 1.243 . S
C12 C11 1.503 . S
C12 C13 1.394 . S
C12 C17 1.373 . S
C13 C12 1.394 . S
C13 C14 1.380 . S
C13 H36 0.930 . S
C14 C13 1.380 . S
C14 C15 1.376 . S
C14 H37 0.930 . S
C15 C14 1.376 . S
C15 C16 1.370 . S
C16 C15 1.370 . S
C16 C17 1.396 . S
C16 H38 0.929 . S
C17 C12 1.373 . S
C17 C16 1.396 . S
C17 H39 0.929 . S
C18 O28 1.240 . S
C18 O29 1.289 1_655 S
C19 O30 1.258 . S
C19 O31 1.256 . S
O20 La0 2.521 . S
O20 C2 1.261 . S
O21 La0 2.628 . S
O21 C2 1.243 . S
O22 La0 2.554 . S
O22 C9 1.240 . S
O23 La0 2.765 . S
O23 La1 2.476 1_455 S
O23 C9 1.292 . S
O24 La0 2.470 1_655 S
O24 C10 1.258 . S
O25 La1 2.503 . S
O25 C10 1.256 . S
O26 La1 2.521 . S
O26 C11 1.261 . S
O27 La1 2.628 . S
O27 C11 1.243 . S
O28 La1 2.554 . S
O28 C18 1.240 . S
O29 La0 2.482 . S
O29 La1 2.757 1_455 S
O29 C18 1.289 1_455 S
O30 La1 2.470 1_455 S
O30 C19 1.258 . S
O31 La0 2.503 . S
O31 C19 1.256 . S
H32 C4 0.930 . S
H33 C5 0.930 . S
H34 C7 0.929 . S
H35 C8 0.929 . S
H36 C13 0.930 . S
H37 C14 0.930 . S
H38 C16 0.929 . S
H39 C17 0.929 . S
La40 C42 2.928 . S
La40 O60 2.521 . S
La40 O61 2.628 . S
La40 O62 2.554 . S
La40 O63 2.757 . S
La40 O64 2.470 . S
La40 O69 2.482 . S
La40 O71 2.503 . S
La41 C51 2.928 . S
La41 O63 2.482 . S
La41 O65 2.503 . S
La41 O66 2.521 . S
La41 O67 2.628 . S
La41 O68 2.554 . S
La41 O69 2.757 . S
La41 O70 2.470 . S
C42 La40 2.928 . S
C42 C43 1.503 . S
C42 O60 1.261 . S
C42 O61 1.243 . S
C43 C42 1.503 . S
C43 C44 1.394 . S
C43 C48 1.373 . S
C44 C43 1.394 . S
C44 C45 1.380 . S
C44 H72 0.930 . S
C45 C44 1.380 . S
C45 C46 1.376 . S
C45 H73 0.930 . S
C46 C45 1.376 . S
C46 C47 1.370 . S
C47 C46 1.370 . S
C47 C48 1.396 . S
C47 H74 0.929 . S
C48 C43 1.373 . S
C48 C47 1.396 . S
C48 H75 0.929 . S
C49 O62 1.240 . S
C49 O63 1.289 . S
C50 O64 1.258 . S
C50 O65 1.256 . S
C51 La41 2.928 . S
C51 C52 1.503 . S
C51 O66 1.261 . S
C51 O67 1.243 . S
C52 C51 1.503 . S
C52 C53 1.394 . S
C52 C57 1.373 . S
C53 C52 1.394 . S
C53 C54 1.380 . S
C53 H76 0.930 . S
C54 C53 1.380 . S
C54 C55 1.376 . S
C54 H77 0.930 . S
C55 C54 1.376 . S
C55 C56 1.370 . S
C56 C55 1.370 . S
C56 C57 1.396 . S
C56 H78 0.929 . S
C57 C52 1.373 . S
C57 C56 1.396 . S
C57 H79 0.929 . S
C58 O68 1.240 . S
C58 O69 1.289 . S
C59 O70 1.258 . S
C59 O71 1.256 . S
O60 La40 2.521 . S
O60 C42 1.261 . S
O61 La40 2.628 . S
O61 C42 1.243 . S
O62 La40 2.554 . S
O62 C49 1.240 . S
O63 La40 2.757 . S
O63 La41 2.482 . S
O63 C49 1.289 . S
O64 La40 2.470 . S
O64 C50 1.258 . S
O65 La41 2.503 . S
O65 C50 1.256 . S
O66 La41 2.521 . S
O66 C51 1.261 . S
O67 La41 2.628 . S
O67 C51 1.243 . S
O68 La41 2.554 . S
O68 C58 1.240 . S
O69 La40 2.482 . S
O69 La41 2.757 . S
O69 C58 1.289 . S
O70 La41 2.470 . S
O70 C59 1.258 . S
O71 La40 2.503 . S
O71 C59 1.256 . S
H72 C44 0.930 . S
H73 C45 0.930 . S
H74 C47 0.929 . S
H75 C48 0.929 . S
H76 C53 0.930 . S
H77 C54 0.930 . S
H78 C56 0.929 . S
H79 C57 0.929 . S
La80 C82 2.928 . S
La80 O100 2.521 . S
La80 O101 2.628 . S
La80 O102 2.554 . S
La80 O103 2.757 . S
La80 O104 2.470 . S
La80 O109 2.482 . S
La80 O111 2.503 . S
La81 C91 2.928 . S
La81 O103 2.482 . S
La81 O105 2.503 . S
La81 O106 2.521 . S
La81 O107 2.628 . S
La81 O108 2.554 . S
La81 O109 2.757 . S
La81 O110 2.470 . S
C82 La80 2.928 . S
C82 C83 1.503 . S
C82 O100 1.261 . S
C82 O101 1.243 . S
C83 C82 1.503 . S
C83 C84 1.394 . S
C83 C88 1.373 . S
C84 C83 1.394 . S
C84 C85 1.380 . S
C84 H112 0.930 . S
C85 C84 1.380 . S
C85 C86 1.376 . S
C85 H113 0.930 . S
C86 C85 1.376 . S
C86 C87 1.370 . S
C87 C86 1.370 . S
C87 C88 1.396 . S
C87 H114 0.929 . S
C88 C83 1.373 . S
C88 C87 1.396 . S
C88 H115 0.929 . S
C89 O102 1.240 . S
C89 O103 1.289 . S
C90 O104 1.258 . S
C90 O105 1.256 . S
C91 La81 2.928 . S
C91 C92 1.503 . S
C91 O106 1.261 . S
C91 O107 1.243 . S
C92 C91 1.503 . S
C92 C93 1.394 . S
C92 C97 1.373 . S
C93 C92 1.394 . S
C93 C94 1.380 . S
C93 H116 0.930 . S
C94 C93 1.380 . S
C94 C95 1.376 . S
C94 H117 0.930 . S
C95 C94 1.376 . S
C95 C96 1.370 . S
C96 C95 1.370 . S
C96 C97 1.396 . S
C96 H118 0.929 . S
C97 C92 1.373 . S
C97 C96 1.396 . S
C97 H119 0.929 . S
C98 O108 1.240 . S
C98 O109 1.289 . S
C99 O110 1.258 . S
C99 O111 1.256 . S
O100 La80 2.521 . S
O100 C82 1.261 . S
O101 La80 2.628 . S
O101 C82 1.243 . S
O102 La80 2.554 . S
O102 C89 1.240 . S
O103 La80 2.757 . S
O103 La81 2.482 . S
O103 C89 1.289 . S
O104 La80 2.470 . S
O104 C90 1.258 . S
O105 La81 2.503 . S
O105 C90 1.256 . S
O106 La81 2.521 . S
O106 C91 1.261 . S
O107 La81 2.628 . S
O107 C91 1.243 . S
O108 La81 2.554 . S
O108 C98 1.240 . S
O109 La80 2.482 . S
O109 La81 2.757 . S
O109 C98 1.289 . S
O110 La81 2.470 . S
O110 C99 1.258 . S
O111 La80 2.503 . S
O111 C99 1.256 . S
H112 C84 0.930 . S
H113 C85 0.930 . S
H114 C87 0.929 . S
H115 C88 0.929 . S
H116 C93 0.930 . S
H117 C94 0.930 . S
H118 C96 0.929 . S
H119 C97 0.929 . S
La120 C122 2.928 . S
La120 O140 2.521 . S
La120 O141 2.628 . S
La120 O142 2.554 . S
La120 O143 2.757 . S
La120 O144 2.470 . S
La120 O149 2.482 . S
La120 O151 2.503 . S
La121 C131 2.928 . S
La121 O143 2.482 . S
La121 O145 2.503 . S
La121 O146 2.521 . S
La121 O147 2.628 . S
La121 O148 2.554 . S
La121 O149 2.757 . S
La121 O150 2.470 . S
C122 La120 2.928 . S
C122 C123 1.503 1_556 S
C122 O140 1.261 . S
C122 O141 1.243 . S
C123 C122 1.503 1_554 S
C123 C124 1.394 . S
C123 C128 1.373 . S
C124 C123 1.394 . S
C124 C125 1.380 . S
C124 H152 0.930 . S
C125 C124 1.380 . S
C125 C126 1.376 . S
C125 H153 0.930 . S
C126 C125 1.376 . S
C126 C127 1.370 . S
C127 C126 1.370 . S
C127 C128 1.396 . S
C127 H154 0.929 . S
C128 C123 1.373 . S
C128 C127 1.396 . S
C128 H155 0.929 . S
C129 O142 1.240 . S
C129 O143 1.289 . S
C130 O144 1.258 . S
C130 O145 1.256 . S
C131 La121 2.928 . S
C131 C132 1.503 . S
C131 O146 1.261 . S
C131 O147 1.243 . S
C132 C131 1.503 . S
C132 C133 1.394 . S
C132 C137 1.373 . S
C133 C132 1.394 . S
C133 C134 1.380 . S
C133 H156 0.930 . S
C134 C133 1.380 . S
C134 C135 1.376 . S
C134 H157 0.930 . S
C135 C134 1.376 . S
C135 C136 1.370 . S
C136 C135 1.370 . S
C136 C137 1.396 . S
C136 H158 0.929 . S
C137 C132 1.373 . S
C137 C136 1.396 . S
C137 H159 0.929 . S
C138 O148 1.240 . S
C138 O149 1.289 . S
C139 O150 1.258 . S
C139 O151 1.256 . S
O140 La120 2.521 . S
O140 C122 1.261 . S
O141 La120 2.628 . S
O141 C122 1.243 . S
O142 La120 2.554 . S
O142 C129 1.240 . S
O143 La120 2.757 . S
O143 La121 2.482 . S
O143 C129 1.289 . S
O144 La120 2.470 . S
O144 C130 1.258 . S
O145 La121 2.503 . S
O145 C130 1.256 . S
O146 La121 2.521 . S
O146 C131 1.261 . S
O147 La121 2.628 . S
O147 C131 1.243 . S
O148 La121 2.554 . S
O148 C138 1.240 . S
O149 La120 2.482 . S
O149 La121 2.757 . S
O149 C138 1.289 . S
O150 La121 2.470 . S
O150 C139 1.258 . S
O151 La120 2.503 . S
O151 C139 1.256 . S
H152 C124 0.930 . S
H153 C125 0.930 . S
H154 C127 0.929 . S
H155 C128 0.929 . S
H156 C133 0.930 . S
H157 C134 0.930 . S
H158 C136 0.929 . S
H159 C137 0.929 . S
La160 C162 2.928 . S
La160 O180 2.521 . S
La160 O181 2.628 . S
La160 O182 2.554 . S
La160 O183 2.757 . S
La160 O184 2.470 . S
La160 O189 2.482 . S
La160 O191 2.503 . S
La161 C171 2.928 . S
La161 O183 2.482 1_655 S
La161 O185 2.503 . S
La161 O186 2.521 . S
La161 O187 2.628 . S
La161 O188 2.554 1_655 S
La161 O189 2.757 1_655 S
La161 O190 2.470 1_655 S
C162 La160 2.928 . S
C162 C163 1.503 . S
C162 O180 1.261 . S
C162 O181 1.243 . S
C163 C162 1.503 . S
C163 C164 1.394 . S
C163 C168 1.373 . S
C164 C163 1.394 . S
C164 C165 1.380 . S
C164 H192 0.930 . S
C165 C164 1.380 . S
C165 C166 1.376 . S
C165 H193 0.930 . S
C166 C165 1.376 . S
C166 C167 1.370 . S
C167 C166 1.370 . S
C167 C168 1.396 . S
C167 H194 0.929 . S
C168 C163 1.373 . S
C168 C167 1.396 . S
C168 H195 0.929 . S
C169 O182 1.240 . S
C169 O183 1.289 . S
C170 O184 1.258 . S
C170 O185 1.256 1_455 S
C171 La161 2.928 . S
C171 C172 1.503 1_556 S
C171 O186 1.261 . S
C171 O187 1.243 . S
C172 C171 1.503 1_554 S
C172 C173 1.394 . S
C172 C177 1.373 . S
C173 C172 1.394 . S
C173 C174 1.380 . S
C173 H196 0.930 . S
C174 C173 1.380 . S
C174 C175 1.376 . S
C174 H197 0.930 . S
C175 C174 1.376 . S
C175 C176 1.370 . S
C176 C175 1.370 . S
C176 C177 1.396 . S
C176 H198 0.929 . S
C177 C172 1.373 . S
C177 C176 1.396 . S
C177 H199 0.929 . S
C178 O188 1.240 . S
C178 O189 1.289 . S
C179 O190 1.258 . S
C179 O191 1.256 . S
O180 La160 2.521 . S
O180 C162 1.261 . S
O181 La160 2.628 . S
O181 C162 1.243 . S
O182 La160 2.554 . S
O182 C169 1.240 . S
O183 La160 2.757 . S
O183 La161 2.482 1_455 S
O183 C169 1.289 . S
O184 La160 2.470 . S
O184 C170 1.258 . S
O185 La161 2.503 . S
O185 C170 1.256 1_655 S
O186 La161 2.521 . S
O186 C171 1.261 . S
O187 La161 2.628 . S
O187 C171 1.243 . S
O188 La161 2.554 1_455 S
O188 C178 1.240 . S
O189 La160 2.482 . S
O189 La161 2.757 1_455 S
O189 C178 1.289 . S
O190 La161 2.470 1_455 S
O190 C179 1.258 . S
O191 La160 2.503 . S
O191 C179 1.256 . S
H192 C164 0.930 . S
H193 C165 0.930 . S
H194 C167 0.929 . S
H195 C168 0.929 . S
H196 C173 0.930 . S
H197 C174 0.930 . S
H198 C176 0.929 . S
H199 C177 0.929 . S
La200 C202 2.928 . S
La200 O220 2.521 . S
La200 O221 2.628 . S
La200 O222 2.554 . S
La200 O223 2.757 . S
La200 O224 2.470 . S
La200 O229 2.482 . S
La200 O231 2.503 . S
La201 C211 2.928 . S
La201 O223 2.482 . S
La201 O225 2.503 . S
La201 O226 2.521 . S
La201 O227 2.628 . S
La201 O228 2.554 . S
La201 O229 2.757 . S
La201 O230 2.470 . S
C202 La200 2.928 . S
C202 C203 1.503 . S
C202 O220 1.261 . S
C202 O221 1.243 . S
C203 C202 1.503 . S
C203 C204 1.394 . S
C203 C208 1.373 . S
C204 C203 1.394 . S
C204 C205 1.380 . S
C204 H232 0.930 . S
C205 C204 1.380 . S
C205 C206 1.376 . S
C205 H233 0.930 . S
C206 C205 1.376 . S
C206 C207 1.370 . S
C207 C206 1.370 . S
C207 C208 1.396 . S
C207 H234 0.929 . S
C208 C203 1.373 . S
C208 C207 1.396 . S
C208 H235 0.929 . S
C209 O222 1.240 . S
C209 O223 1.289 . S
C210 O224 1.258 . S
C210 O225 1.256 . S
C211 La201 2.928 . S
C211 C212 1.503 . S
C211 O226 1.261 . S
C211 O227 1.243 . S
C212 C211 1.503 . S
C212 C213 1.394 . S
C212 C217 1.373 . S
C213 C212 1.394 . S
C213 C214 1.380 1_554 S
C213 H236 0.930 . S
C214 C213 1.380 1_556 S
C214 C215 1.376 . S
C214 H237 0.930 . S
C215 C214 1.376 . S
C215 C216 1.370 . S
C216 C215 1.370 . S
C216 C217 1.396 1_556 S
C216 H238 0.929 . S
C217 C212 1.373 . S
C217 C216 1.396 1_554 S
C217 H239 0.929 . S
C218 O228 1.240 . S
C218 O229 1.289 . S
C219 O230 1.258 . S
C219 O231 1.256 . S
O220 La200 2.521 . S
O220 C202 1.261 . S
O221 La200 2.628 . S
O221 C202 1.243 . S
O222 La200 2.554 . S
O222 C209 1.240 . S
O223 La200 2.757 . S
O223 La201 2.482 . S
O223 C209 1.289 . S
O224 La200 2.470 . S
O224 C210 1.258 . S
O225 La201 2.503 . S
O225 C210 1.256 . S
O226 La201 2.521 . S
O226 C211 1.261 . S
O227 La201 2.628 . S
O227 C211 1.243 . S
O228 La201 2.554 . S
O228 C218 1.240 . S
O229 La200 2.482 . S
O229 La201 2.757 . S
O229 C218 1.289 . S
O230 La201 2.470 . S
O230 C219 1.258 . S
O231 La200 2.503 . S
O231 C219 1.256 . S
H232 C204 0.930 . S
H233 C205 0.930 . S
H234 C207 0.929 . S
H235 C208 0.929 . S
H236 C213 0.930 . S
H237 C214 0.930 . S
H238 C216 0.929 . S
H239 C217 0.929 . S
La240 C242 2.928 . S
La240 O260 2.521 . S
La240 O261 2.628 . S
La240 O262 2.554 . S
La240 O263 2.757 . S
La240 O264 2.470 . S
La240 O269 2.482 . S
La240 O271 2.503 . S
La241 C251 2.928 . S
La241 O263 2.482 . S
La241 O265 2.503 . S
La241 O266 2.521 . S
La241 O267 2.628 . S
La241 O268 2.554 . S
La241 O269 2.757 . S
La241 O270 2.470 . S
C242 La240 2.928 . S
C242 C243 1.503 . S
C242 O260 1.261 . S
C242 O261 1.243 . S
C243 C242 1.503 . S
C243 C244 1.394 . S
C243 C248 1.373 . S
C244 C243 1.394 . S
C244 C245 1.380 . S
C244 H272 0.930 . S
C245 C244 1.380 . S
C245 C246 1.376 . S
C245 H273 0.930 . S
C246 C245 1.376 . S
C246 C247 1.370 . S
C247 C246 1.370 . S
C247 C248 1.396 . S
C247 H274 0.929 . S
C248 C243 1.373 . S
C248 C247 1.396 . S
C248 H275 0.929 . S
C249 O262 1.240 . S
C249 O263 1.289 . S
C250 O264 1.258 . S
C250 O265 1.256 . S
C251 La241 2.928 . S
C251 C252 1.503 . S
C251 O266 1.261 . S
C251 O267 1.243 . S
C252 C251 1.503 . S
C252 C253 1.394 . S
C252 C257 1.373 . S
C253 C252 1.394 . S
C253 C254 1.380 . S
C253 H276 0.930 . S
C254 C253 1.380 . S
C254 C255 1.376 . S
C254 H277 0.930 . S
C255 C254 1.376 . S
C255 C256 1.370 . S
C256 C255 1.370 . S
C256 C257 1.396 . S
C256 H278 0.929 . S
C257 C252 1.373 . S
C257 C256 1.396 . S
C257 H279 0.929 . S
C258 O268 1.240 . S
C258 O269 1.289 . S
C259 O270 1.258 . S
C259 O271 1.256 . S
O260 La240 2.521 . S
O260 C242 1.261 . S
O261 La240 2.628 . S
O261 C242 1.243 . S
O262 La240 2.554 . S
O262 C249 1.240 . S
O263 La240 2.757 . S
O263 La241 2.482 . S
O263 C249 1.289 . S
O264 La240 2.470 . S
O264 C250 1.258 . S
O265 La241 2.503 . S
O265 C250 1.256 . S
O266 La241 2.521 . S
O266 C251 1.261 . S
O267 La241 2.628 . S
O267 C251 1.243 . S
O268 La241 2.554 . S
O268 C258 1.240 . S
O269 La240 2.482 . S
O269 La241 2.757 . S
O269 C258 1.289 . S
O270 La241 2.470 . S
O270 C259 1.258 . S
O271 La240 2.503 . S
O271 C259 1.256 . S
H272 C244 0.930 . S
H273 C245 0.930 . S
H274 C247 0.929 . S
H275 C248 0.929 . S
H276 C253 0.930 . S
H277 C254 0.930 . S
H278 C256 0.929 . S
H279 C257 0.929 . S
La280 C282 2.928 . S
La280 O300 2.521 . S
La280 O301 2.628 . S
La280 O302 2.554 . S
La280 O303 2.757 . S
La280 O304 2.470 . S
La280 O309 2.482 . S
La280 O311 2.503 . S
La281 C291 2.928 . S
La281 O303 2.482 . S
La281 O305 2.503 . S
La281 O306 2.521 . S
La281 O307 2.628 . S
La281 O308 2.554 . S
La281 O309 2.757 . S
La281 O310 2.470 . S
C282 La280 2.928 . S
C282 C283 1.503 . S
C282 O300 1.261 . S
C282 O301 1.243 . S
C283 C282 1.503 . S
C283 C284 1.394 . S
C283 C288 1.373 . S
C284 C283 1.394 . S
C284 C285 1.380 . S
C284 H312 0.930 . S
C285 C284 1.380 . S
C285 C286 1.376 . S
C285 H313 0.930 . S
C286 C285 1.376 . S
C286 C287 1.370 . S
C287 C286 1.370 . S
C287 C288 1.396 . S
C287 H314 0.929 . S
C288 C283 1.373 . S
C288 C287 1.396 . S
C288 H315 0.929 . S
C289 O302 1.240 . S
C289 O303 1.289 . S
C290 O304 1.258 . S
C290 O305 1.256 . S
C291 La281 2.928 . S
C291 C292 1.503 . S
C291 O306 1.261 . S
C291 O307 1.243 . S
C292 C291 1.503 . S
C292 C293 1.394 . S
C292 C297 1.373 . S
C293 C292 1.394 . S
C293 C294 1.380 . S
C293 H316 0.930 . S
C294 C293 1.380 . S
C294 C295 1.376 . S
C294 H317 0.930 . S
C295 C294 1.376 . S
C295 C296 1.370 . S
C296 C295 1.370 . S
C296 C297 1.396 . S
C296 H318 0.929 . S
C297 C292 1.373 . S
C297 C296 1.396 . S
C297 H319 0.929 . S
C298 O308 1.240 . S
C298 O309 1.289 . S
C299 O310 1.258 . S
C299 O311 1.256 . S
O300 La280 2.521 . S
O300 C282 1.261 . S
O301 La280 2.628 . S
O301 C282 1.243 . S
O302 La280 2.554 . S
O302 C289 1.240 . S
O303 La280 2.757 . S
O303 La281 2.482 . S
O303 C289 1.289 . S
O304 La280 2.470 . S
O304 C290 1.258 . S
O305 La281 2.503 . S
O305 C290 1.256 . S
O306 La281 2.521 . S
O306 C291 1.261 . S
O307 La281 2.628 . S
O307 C291 1.243 . S
O308 La281 2.554 . S
O308 C298 1.240 . S
O309 La280 2.482 . S
O309 La281 2.757 . S
O309 C298 1.289 . S
O310 La281 2.470 . S
O310 C299 1.258 . S
O311 La280 2.503 . S
O311 C299 1.256 . S
H312 C284 0.930 . S
H313 C285 0.930 . S
H314 C287 0.929 . S
H315 C288 0.929 . S
H316 C293 0.930 . S
H317 C294 0.930 . S
H318 C296 0.929 . S
H319 C297 0.929 . S
La320 C322 2.928 . S
La320 O340 2.521 . S
La320 O341 2.628 . S
La320 O342 2.554 . S
La320 O343 2.757 . S
La320 O344 2.470 . S
La320 O349 2.482 . S
La320 O351 2.503 . S
La321 C331 2.928 . S
La321 O343 2.482 . S
La321 O345 2.503 . S
La321 O346 2.521 . S
La321 O347 2.628 . S
La321 O348 2.554 . S
La321 O349 2.757 . S
La321 O350 2.470 . S
C322 La320 2.928 . S
C322 C323 1.503 . S
C322 O340 1.261 . S
C322 O341 1.243 . S
C323 C322 1.503 . S
C323 C324 1.394 . S
C323 C328 1.373 . S
C324 C323 1.394 . S
C324 C325 1.380 . S
C324 H352 0.930 . S
C325 C324 1.380 . S
C325 C326 1.376 . S
C325 H353 0.930 . S
C326 C325 1.376 . S
C326 C327 1.370 . S
C327 C326 1.370 . S
C327 C328 1.396 . S
C327 H354 0.929 . S
C328 C323 1.373 . S
C328 C327 1.396 . S
C328 H355 0.929 . S
C329 O342 1.240 . S
C329 O343 1.289 . S
C330 O344 1.258 . S
C330 O345 1.256 . S
C331 La321 2.928 . S
C331 C332 1.503 . S
C331 O346 1.261 . S
C331 O347 1.243 . S
C332 C331 1.503 . S
C332 C333 1.394 . S
C332 C337 1.373 . S
C333 C332 1.394 . S
C333 C334 1.380 . S
C333 H356 0.930 . S
C334 C333 1.380 . S
C334 C335 1.376 . S
C334 H357 0.930 . S
C335 C334 1.376 . S
C335 C336 1.370 . S
C336 C335 1.370 . S
C336 C337 1.396 . S
C336 H358 0.929 . S
C337 C332 1.373 . S
C337 C336 1.396 . S
C337 H359 0.929 . S
C338 O348 1.240 . S
C338 O349 1.289 . S
C339 O350 1.258 . S
C339 O351 1.256 . S
O340 La320 2.521 . S
O340 C322 1.261 . S
O341 La320 2.628 . S
O341 C322 1.243 . S
O342 La320 2.554 . S
O342 C329 1.240 . S
O343 La320 2.757 . S
O343 La321 2.482 . S
O343 C329 1.289 . S
O344 La320 2.470 . S
O344 C330 1.258 . S
O345 La321 2.503 . S
O345 C330 1.256 . S
O346 La321 2.521 . S
O346 C331 1.261 . S
O347 La321 2.628 . S
O347 C331 1.243 . S
O348 La321 2.554 . S
O348 C338 1.240 . S
O349 La320 2.482 . S
O349 La321 2.757 . S
O349 C338 1.289 . S
O350 La321 2.470 . S
O350 C339 1.258 . S
O351 La320 2.503 . S
O351 C339 1.256 . S
H352 C324 0.930 . S
H353 C325 0.930 . S
H354 C327 0.929 . S
H355 C328 0.929 . S
H356 C333 0.930 . S
H357 C334 0.930 . S
H358 C336 0.929 . S
H359 C337 0.929 . S
La360 C362 2.928 . S
La360 O380 2.521 . S
La360 O381 2.628 . S
La360 O382 2.554 . S
La360 O383 2.757 . S
La360 O384 2.470 . S
La360 O389 2.482 . S
La360 O391 2.503 . S
La361 C371 2.928 . S
La361 O383 2.482 . S
La361 O385 2.503 . S
La361 O386 2.521 . S
La361 O387 2.628 . S
La361 O388 2.554 . S
La361 O389 2.757 . S
La361 O390 2.470 . S
C362 La360 2.928 . S
C362 C363 1.503 . S
C362 O380 1.261 . S
C362 O381 1.243 . S
C363 C362 1.503 . S
C363 C364 1.394 . S
C363 C368 1.373 . S
C364 C363 1.394 . S
C364 C365 1.380 . S
C364 H392 0.930 . S
C365 C364 1.380 . S
C365 C366 1.376 . S
C365 H393 0.930 . S
C366 C365 1.376 . S
C366 C367 1.370 . S
C367 C366 1.370 . S
C367 C368 1.396 . S
C367 H394 0.929 . S
C368 C363 1.373 . S
C368 C367 1.396 . S
C368 H395 0.929 . S
C369 O382 1.240 . S
C369 O383 1.289 . S
C370 O384 1.258 . S
C370 O385 1.256 . S
C371 La361 2.928 . S
C371 C372 1.503 1_554 S
C371 O386 1.261 . S
C371 O387 1.243 . S
C372 C371 1.503 1_556 S
C372 C373 1.394 . S
C372 C377 1.373 . S
C373 C372 1.394 . S
C373 C374 1.380 . S
C373 H396 0.930 . S
C374 C373 1.380 . S
C374 C375 1.376 . S
C374 H397 0.930 . S
C375 C374 1.376 . S
C375 C376 1.370 . S
C376 C375 1.370 . S
C376 C377 1.396 . S
C376 H398 0.929 . S
C377 C372 1.373 . S
C377 C376 1.396 . S
C377 H399 0.929 . S
C378 O388 1.240 . S
C378 O389 1.289 . S
C379 O390 1.258 . S
C379 O391 1.256 . S
O380 La360 2.521 . S
O380 C362 1.261 . S
O381 La360 2.628 . S
O381 C362 1.243 . S
O382 La360 2.554 . S
O382 C369 1.240 . S
O383 La360 2.757 . S
O383 La361 2.482 . S
O383 C369 1.289 . S
O384 La360 2.470 . S
O384 C370 1.258 . S
O385 La361 2.503 . S
O385 C370 1.256 . S
O386 La361 2.521 . S
O386 C371 1.261 . S
O387 La361 2.628 . S
O387 C371 1.243 . S
O388 La361 2.554 . S
O388 C378 1.240 . S
O389 La360 2.482 . S
O389 La361 2.757 . S
O389 C378 1.289 . S
O390 La361 2.470 . S
O390 C379 1.258 . S
O391 La360 2.503 . S
O391 C379 1.256 . S
H392 C364 0.930 . S
H393 C365 0.930 . S
H394 C367 0.929 . S
H395 C368 0.929 . S
H396 C373 0.930 . S
H397 C374 0.930 . S
H398 C376 0.929 . S
H399 C377 0.929 . S
La400 C402 2.928 . S
La400 O420 2.521 . S
La400 O421 2.628 . S
La400 O422 2.554 . S
La400 O423 2.757 . S
La400 O424 2.470 . S
La400 O429 2.482 . S
La400 O431 2.503 . S
La401 C411 2.928 . S
La401 O423 2.482 . S
La401 O425 2.503 . S
La401 O426 2.521 . S
La401 O427 2.628 . S
La401 O428 2.554 . S
La401 O429 2.757 . S
La401 O430 2.470 . S
C402 La400 2.928 . S
C402 C403 1.503 . S
C402 O420 1.261 . S
C402 O421 1.243 . S
C403 C402 1.503 . S
C403 C404 1.394 . S
C403 C408 1.373 . S
C404 C403 1.394 . S
C404 C405 1.380 1_556 S
C404 H432 0.930 . S
C405 C404 1.380 1_554 S
C405 C406 1.376 . S
C405 H433 0.930 . S
C406 C405 1.376 . S
C406 C407 1.370 . S
C407 C406 1.370 . S
C407 C408 1.396 1_554 S
C407 H434 0.929 . S
C408 C403 1.373 . S
C408 C407 1.396 1_556 S
C408 H435 0.929 . S
C409 O422 1.240 . S
C409 O423 1.289 . S
C410 O424 1.258 . S
C410 O425 1.256 . S
C411 La401 2.928 . S
C411 C412 1.503 . S
C411 O426 1.261 . S
C411 O427 1.243 . S
C412 C411 1.503 . S
C412 C413 1.394 . S
C412 C417 1.373 . S
C413 C412 1.394 . S
C413 C414 1.380 . S
C413 H436 0.930 . S
C414 C413 1.380 . S
C414 C415 1.376 . S
C414 H437 0.930 . S
C415 C414 1.376 . S
C415 C416 1.370 . S
C416 C415 1.370 . S
C416 C417 1.396 . S
C416 H438 0.929 . S
C417 C412 1.373 . S
C417 C416 1.396 . S
C417 H439 0.929 . S
C418 O428 1.240 . S
C418 O429 1.289 . S
C419 O430 1.258 . S
C419 O431 1.256 . S
O420 La400 2.521 . S
O420 C402 1.261 . S
O421 La400 2.628 . S
O421 C402 1.243 . S
O422 La400 2.554 . S
O422 C409 1.240 . S
O423 La400 2.757 . S
O423 La401 2.482 . S
O423 C409 1.289 . S
O424 La400 2.470 . S
O424 C410 1.258 . S
O425 La401 2.503 . S
O425 C410 1.256 . S
O426 La401 2.521 . S
O426 C411 1.261 . S
O427 La401 2.628 . S
O427 C411 1.243 . S
O428 La401 2.554 . S
O428 C418 1.240 . S
O429 La400 2.482 . S
O429 La401 2.757 . S
O429 C418 1.289 . S
O430 La401 2.470 . S
O430 C419 1.258 . S
O431 La400 2.503 . S
O431 C419 1.256 . S
H432 C404 0.930 . S
H433 C405 0.930 . S
H434 C407 0.929 . S
H435 C408 0.929 . S
H436 C413 0.930 . S
H437 C414 0.930 . S
H438 C416 0.929 . S
H439 C417 0.929 . S
La440 C442 2.928 . S
La440 O460 2.521 . S
La440 O461 2.628 . S
La440 O462 2.554 . S
La440 O463 2.757 . S
La440 O464 2.470 . S
La440 O469 2.482 . S
La440 O471 2.503 . S
La441 C451 2.928 . S
La441 O463 2.482 . S
La441 O465 2.503 . S
La441 O466 2.521 . S
La441 O467 2.628 . S
La441 O468 2.554 . S
La441 O469 2.757 . S
La441 O470 2.470 . S
C442 La440 2.928 . S
C442 C443 1.503 . S
C442 O460 1.261 . S
C442 O461 1.243 . S
C443 C442 1.503 . S
C443 C444 1.394 . S
C443 C448 1.373 . S
C444 C443 1.394 . S
C444 C445 1.380 . S
C444 H472 0.930 . S
C445 C444 1.380 . S
C445 C446 1.376 . S
C445 H473 0.930 . S
C446 C445 1.376 . S
C446 C447 1.370 . S
C447 C446 1.370 . S
C447 C448 1.396 . S
C447 H474 0.929 . S
C448 C443 1.373 . S
C448 C447 1.396 . S
C448 H475 0.929 . S
C449 O462 1.240 . S
C449 O463 1.289 . S
C450 O464 1.258 . S
C450 O465 1.256 . S
C451 La441 2.928 . S
C451 C452 1.503 . S
C451 O466 1.261 . S
C451 O467 1.243 . S
C452 C451 1.503 . S
C452 C453 1.394 . S
C452 C457 1.373 . S
C453 C452 1.394 . S
C453 C454 1.380 . S
C453 H476 0.930 . S
C454 C453 1.380 . S
C454 C455 1.376 . S
C454 H477 0.930 . S
C455 C454 1.376 . S
C455 C456 1.370 . S
C456 C455 1.370 . S
C456 C457 1.396 . S
C456 H478 0.929 . S
C457 C452 1.373 . S
C457 C456 1.396 . S
C457 H479 0.929 . S
C458 O468 1.240 . S
C458 O469 1.289 . S
C459 O470 1.258 . S
C459 O471 1.256 . S
O460 La440 2.521 . S
O460 C442 1.261 . S
O461 La440 2.628 . S
O461 C442 1.243 . S
O462 La440 2.554 . S
O462 C449 1.240 . S
O463 La440 2.757 . S
O463 La441 2.482 . S
O463 C449 1.289 . S
O464 La440 2.470 . S
O464 C450 1.258 . S
O465 La441 2.503 . S
O465 C450 1.256 . S
O466 La441 2.521 . S
O466 C451 1.261 . S
O467 La441 2.628 . S
O467 C451 1.243 . S
O468 La441 2.554 . S
O468 C458 1.240 . S
O469 La440 2.482 . S
O469 La441 2.757 . S
O469 C458 1.289 . S
O470 La441 2.470 . S
O470 C459 1.258 . S
O471 La440 2.503 . S
O471 C459 1.256 . S
H472 C444 0.930 . S
H473 C445 0.930 . S
H474 C447 0.929 . S
H475 C448 0.929 . S
H476 C453 0.930 . S
H477 C454 0.930 . S
H478 C456 0.929 . S
H479 C457 0.929 . S
La480 C482 2.928 . S
La480 O500 2.521 . S
La480 O501 2.628 . S
La480 O502 2.554 . S
La480 O503 2.757 . S
La480 O504 2.470 . S
La480 O509 2.482 . S
La480 O511 2.503 . S
La481 C491 2.928 . S
La481 O503 2.482 . S
La481 O505 2.503 . S
La481 O506 2.521 . S
La481 O507 2.628 . S
La481 O508 2.554 . S
La481 O509 2.757 . S
La481 O510 2.470 . S
C482 La480 2.928 . S
C482 C483 1.503 . S
C482 O500 1.261 . S
C482 O501 1.243 . S
C483 C482 1.503 . S
C483 C484 1.394 . S
C483 C488 1.373 . S
C484 C483 1.394 . S
C484 C485 1.380 . S
C484 H512 0.930 . S
C485 C484 1.380 . S
C485 C486 1.376 . S
C485 H513 0.930 . S
C486 C485 1.376 . S
C486 C487 1.370 . S
C487 C486 1.370 . S
C487 C488 1.396 . S
C487 H514 0.929 . S
C488 C483 1.373 . S
C488 C487 1.396 . S
C488 H515 0.929 . S
C489 O502 1.240 . S
C489 O503 1.289 . S
C490 O504 1.258 . S
C490 O505 1.256 . S
C491 La481 2.928 . S
C491 C492 1.503 . S
C491 O506 1.261 . S
C491 O507 1.243 . S
C492 C491 1.503 . S
C492 C493 1.394 . S
C492 C497 1.373 . S
C493 C492 1.394 . S
C493 C494 1.380 . S
C493 H516 0.930 . S
C494 C493 1.380 . S
C494 C495 1.376 . S
C494 H517 0.930 . S
C495 C494 1.376 . S
C495 C496 1.370 . S
C496 C495 1.370 . S
C496 C497 1.396 . S
C496 H518 0.929 . S
C497 C492 1.373 . S
C497 C496 1.396 . S
C497 H519 0.929 . S
C498 O508 1.240 . S
C498 O509 1.289 . S
C499 O510 1.258 . S
C499 O511 1.256 . S
O500 La480 2.521 . S
O500 C482 1.261 . S
O501 La480 2.628 . S
O501 C482 1.243 . S
O502 La480 2.554 . S
O502 C489 1.240 . S
O503 La480 2.757 . S
O503 La481 2.482 . S
O503 C489 1.289 . S
O504 La480 2.470 . S
O504 C490 1.258 . S
O505 La481 2.503 . S
O505 C490 1.256 . S
O506 La481 2.521 . S
O506 C491 1.261 . S
O507 La481 2.628 . S
O507 C491 1.243 . S
O508 La481 2.554 . S
O508 C498 1.240 . S
O509 La480 2.482 . S
O509 La481 2.757 . S
O509 C498 1.289 . S
O510 La481 2.470 . S
O510 C499 1.258 . S
O511 La480 2.503 . S
O511 C499 1.256 . S
H512 C484 0.930 . S
H513 C485 0.930 . S
H514 C487 0.929 . S
H515 C488 0.929 . S
H516 C493 0.930 . S
H517 C494 0.930 . S
H518 C496 0.929 . S
H519 C497 0.929 . S
La520 C522 2.928 . S
La520 O540 2.521 . S
La520 O541 2.628 . S
La520 O542 2.554 . S
La520 O543 2.757 1_655 S
La520 O544 2.470 1_655 S
La520 O549 2.482 1_655 S
La520 O551 2.503 . S
La521 C531 2.928 . S
La521 O543 2.482 . S
La521 O545 2.503 . S
La521 O546 2.521 . S
La521 O547 2.628 . S
La521 O548 2.554 . S
La521 O549 2.757 . S
La521 O550 2.470 . S
C522 La520 2.928 . S
C522 C523 1.503 . S
C522 O540 1.261 . S
C522 O541 1.243 . S
C523 C522 1.503 . S
C523 C524 1.394 . S
C523 C528 1.373 . S
C524 C523 1.394 . S
C524 C525 1.380 . S
C524 H552 0.930 . S
C525 C524 1.380 . S
C525 C526 1.376 . S
C525 H553 0.930 . S
C526 C525 1.376 . S
C526 C527 1.370 . S
C527 C526 1.370 . S
C527 C528 1.396 . S
C527 H554 0.929 . S
C528 C523 1.373 . S
C528 C527 1.396 . S
C528 H555 0.929 . S
C529 O542 1.240 1_455 S
C529 O543 1.289 . S
C530 O544 1.258 . S
C530 O545 1.256 . S
C531 La521 2.928 . S
C531 C532 1.503 1_554 S
C531 O546 1.261 . S
C531 O547 1.243 . S
C532 C531 1.503 1_556 S
C532 C533 1.394 . S
C532 C537 1.373 . S
C533 C532 1.394 . S
C533 C534 1.380 . S
C533 H556 0.930 . S
C534 C533 1.380 . S
C534 C535 1.376 . S
C534 H557 0.930 . S
C535 C534 1.376 . S
C535 C536 1.370 . S
C536 C535 1.370 . S
C536 C537 1.396 . S
C536 H558 0.929 . S
C537 C532 1.373 . S
C537 C536 1.396 . S
C537 H559 0.929 . S
C538 O548 1.240 . S
C538 O549 1.289 . S
C539 O550 1.258 1_655 S
C539 O551 1.256 . S
O540 La520 2.521 . S
O540 C522 1.261 . S
O541 La520 2.628 . S
O541 C522 1.243 . S
O542 La520 2.554 . S
O542 C529 1.240 1_655 S
O543 La520 2.757 1_455 S
O543 La521 2.482 . S
O543 C529 1.289 . S
O544 La520 2.470 1_455 S
O544 C530 1.258 . S
O545 La521 2.503 . S
O545 C530 1.256 . S
O546 La521 2.521 . S
O546 C531 1.261 . S
O547 La521 2.628 . S
O547 C531 1.243 . S
O548 La521 2.554 . S
O548 C538 1.240 . S
O549 La520 2.482 1_455 S
O549 La521 2.757 . S
O549 C538 1.289 . S
O550 La521 2.470 . S
O550 C539 1.258 1_455 S
O551 La520 2.503 . S
O551 C539 1.256 . S
H552 C524 0.930 . S
H553 C525 0.930 . S
H554 C527 0.929 . S
H555 C528 0.929 . S
H556 C533 0.930 . S
H557 C534 0.930 . S
H558 C536 0.929 . S
H559 C537 0.929 . S
La560 C562 2.928 . S
La560 O580 2.521 . S
La560 O581 2.628 . S
La560 O582 2.554 . S
La560 O583 2.757 . S
La560 O584 2.470 . S
La560 O589 2.482 . S
La560 O591 2.503 . S
La561 C571 2.928 . S
La561 O583 2.482 . S
La561 O585 2.503 . S
La561 O586 2.521 . S
La561 O587 2.628 . S
La561 O588 2.554 . S
La561 O589 2.757 . S
La561 O590 2.470 . S
C562 La560 2.928 . S
C562 C563 1.503 . S
C562 O580 1.261 . S
C562 O581 1.243 . S
C563 C562 1.503 . S
C563 C564 1.394 . S
C563 C568 1.373 . S
C564 C563 1.394 . S
C564 C565 1.380 . S
C564 H592 0.930 . S
C565 C564 1.380 . S
C565 C566 1.376 . S
C565 H593 0.930 . S
C566 C565 1.376 . S
C566 C567 1.370 . S
C567 C566 1.370 . S
C567 C568 1.396 . S
C567 H594 0.929 . S
C568 C563 1.373 . S
C568 C567 1.396 . S
C568 H595 0.929 . S
C569 O582 1.240 . S
C569 O583 1.289 . S
C570 O584 1.258 . S
C570 O585 1.256 . S
C571 La561 2.928 . S
C571 C572 1.503 . S
C571 O586 1.261 . S
C571 O587 1.243 . S
C572 C571 1.503 . S
C572 C573 1.394 . S
C572 C577 1.373 . S
C573 C572 1.394 . S
C573 C574 1.380 . S
C573 H596 0.930 . S
C574 C573 1.380 . S
C574 C575 1.376 . S
C574 H597 0.930 . S
C575 C574 1.376 . S
C575 C576 1.370 . S
C576 C575 1.370 . S
C576 C577 1.396 . S
C576 H598 0.929 . S
C577 C572 1.373 . S
C577 C576 1.396 . S
C577 H599 0.929 . S
C578 O588 1.240 . S
C578 O589 1.289 . S
C579 O590 1.258 . S
C579 O591 1.256 . S
O580 La560 2.521 . S
O580 C562 1.261 . S
O581 La560 2.628 . S
O581 C562 1.243 . S
O582 La560 2.554 . S
O582 C569 1.240 . S
O583 La560 2.757 . S
O583 La561 2.482 . S
O583 C569 1.289 . S
O584 La560 2.470 . S
O584 C570 1.258 . S
O585 La561 2.503 . S
O585 C570 1.256 . S
O586 La561 2.521 . S
O586 C571 1.261 . S
O587 La561 2.628 . S
O587 C571 1.243 . S
O588 La561 2.554 . S
O588 C578 1.240 . S
O589 La560 2.482 . S
O589 La561 2.757 . S
O589 C578 1.289 . S
O590 La561 2.470 . S
O590 C579 1.258 . S
O591 La560 2.503 . S
O591 C579 1.256 . S
H592 C564 0.930 . S
H593 C565 0.930 . S
H594 C567 0.929 . S
H595 C568 0.929 . S
H596 C573 0.930 . S
H597 C574 0.930 . S
H598 C576 0.929 . S
H599 C577 0.929 . S
La600 C602 2.928 . S
La600 O620 2.521 . S
La600 O621 2.628 . S
La600 O622 2.554 1_655 S
La600 O623 2.757 1_655 S
La600 O624 2.470 1_655 S
La600 O629 2.482 1_655 S
La600 O631 2.503 . S
La601 C611 2.928 . S
La601 O623 2.482 . S
La601 O625 2.503 . S
La601 O626 2.521 . S
La601 O627 2.628 . S
La601 O628 2.554 . S
La601 O629 2.757 . S
La601 O630 2.470 . S
C602 La600 2.928 . S
C602 C603 1.503 1_556 S
C602 O620 1.261 . S
C602 O621 1.243 . S
C603 C602 1.503 1_554 S
C603 C604 1.394 . S
C603 C608 1.373 . S
C604 C603 1.394 . S
C604 C605 1.380 . S
C604 H632 0.930 . S
C605 C604 1.380 . S
C605 C606 1.376 . S
C605 H633 0.930 . S
C606 C605 1.376 . S
C606 C607 1.370 . S
C607 C606 1.370 . S
C607 C608 1.396 . S
C607 H634 0.929 . S
C608 C603 1.373 . S
C608 C607 1.396 . S
C608 H635 0.929 . S
C609 O622 1.240 . S
C609 O623 1.289 . S
C610 O624 1.258 . S
C610 O625 1.256 . S
C611 La601 2.928 . S
C611 C612 1.503 . S
C611 O626 1.261 . S
C611 O627 1.243 . S
C612 C611 1.503 . S
C612 C613 1.394 . S
C612 C617 1.373 . S
C613 C612 1.394 . S
C613 C614 1.380 . S
C613 H636 0.930 . S
C614 C613 1.380 . S
C614 C615 1.376 . S
C614 H637 0.930 . S
C615 C614 1.376 . S
C615 C616 1.370 . S
C616 C615 1.370 . S
C616 C617 1.396 . S
C616 H638 0.929 . S
C617 C612 1.373 . S
C617 C616 1.396 . S
C617 H639 0.929 . S
C618 O628 1.240 . S
C618 O629 1.289 . S
C619 O630 1.258 1_655 S
C619 O631 1.256 . S
O620 La600 2.521 . S
O620 C602 1.261 . S
O621 La600 2.628 . S
O621 C602 1.243 . S
O622 La600 2.554 1_455 S
O622 C609 1.240 . S
O623 La600 2.757 1_455 S
O623 La601 2.482 . S
O623 C609 1.289 . S
O624 La600 2.470 1_455 S
O624 C610 1.258 . S
O625 La601 2.503 . S
O625 C610 1.256 . S
O626 La601 2.521 . S
O626 C611 1.261 . S
O627 La601 2.628 . S
O627 C611 1.243 . S
O628 La601 2.554 . S
O628 C618 1.240 . S
O629 La600 2.482 1_455 S
O629 La601 2.757 . S
O629 C618 1.289 . S
O630 La601 2.470 . S
O630 C619 1.258 1_455 S
O631 La600 2.503 . S
O631 C619 1.256 . S
H632 C604 0.930 . S
H633 C605 0.930 . S
H634 C607 0.929 . S
H635 C608 0.929 . S
H636 C613 0.930 . S
H637 C614 0.930 . S
H638 C616 0.929 . S
H639 C617 0.929 . S
H640 C646 0.930 . S
H641 C650 0.930 . S
H642 C655 0.929 . S
H643 C653 0.929 . S
H644 C648 0.929 . S
H645 C654 0.929 . S
C646 H640 0.930 . S
C646 C647 1.367 . S
C646 C654 1.378 . S
C647 C646 1.367 . S
C647 C655 1.433 . S
C648 H644 0.929 . S
C648 C650 1.378 . S
C648 C652 1.350 . S
C649 C652 1.463 . S
C649 C654 1.350 . S
C649 N657 1.427 . S
C650 H641 0.930 . S
C650 C648 1.378 . S
C650 C651 1.367 . S
C651 C650 1.367 . S
C651 C653 1.433 . S
C652 C648 1.350 . S
C652 C649 1.463 . S
C652 N656 1.427 . S
C653 H643 0.929 . S
C653 C651 1.433 . S
C653 N656 1.384 . S
C654 H645 0.929 . S
C654 C646 1.378 . S
C654 C649 1.350 . S
C655 H642 0.929 . S
C655 C647 1.433 . S
C655 N657 1.384 . S
N656 C652 1.427 . S
N656 C653 1.384 . S
N657 C649 1.427 . S
N657 C655 1.384 . S
H658 C664 0.930 . S
H659 C668 0.930 . S
H660 C673 0.929 . S
H661 C671 0.929 . S
H662 C666 0.929 . S
H663 C672 0.929 . S
C664 H658 0.930 . S
C664 C665 1.367 . S
C664 C672 1.378 . S
C665 C664 1.367 . S
C665 C673 1.433 . S
C666 H662 0.929 . S
C666 C668 1.378 . S
C666 C670 1.350 . S
C667 C670 1.463 . S
C667 C672 1.350 . S
C667 N675 1.427 . S
C668 H659 0.930 . S
C668 C666 1.378 . S
C668 C669 1.367 . S
C669 C668 1.367 . S
C669 C671 1.433 . S
C670 C666 1.350 . S
C670 C667 1.463 . S
C670 N674 1.427 . S
C671 H661 0.929 . S
C671 C669 1.433 . S
C671 N674 1.384 . S
C672 H663 0.929 . S
C672 C664 1.378 . S
C672 C667 1.350 . S
C673 H660 0.929 . S
C673 C665 1.433 . S
C673 N675 1.384 . S
N674 C670 1.427 . S
N674 C671 1.384 . S
N675 C667 1.427 . S
N675 C673 1.384 . S
H676 C682 0.930 . S
H677 C686 0.930 . S
H678 C691 0.929 . S
H679 C689 0.929 . S
H680 C684 0.929 . S
H681 C690 0.929 . S
C682 H676 0.930 . S
C682 C683 1.367 . S
C682 C690 1.378 . S
C683 C682 1.367 . S
C683 C691 1.433 . S
C684 H680 0.929 . S
C684 C686 1.378 . S
C684 C688 1.350 . S
C685 C688 1.463 . S
C685 C690 1.350 . S
C685 N693 1.427 . S
C686 H677 0.930 . S
C686 C684 1.378 . S
C686 C687 1.367 . S
C687 C686 1.367 . S
C687 C689 1.433 . S
C688 C684 1.350 . S
C688 C685 1.463 . S
C688 N692 1.427 . S
C689 H679 0.929 . S
C689 C687 1.433 . S
C689 N692 1.384 . S
C690 H681 0.929 . S
C690 C682 1.378 . S
C690 C685 1.350 . S
C691 H678 0.929 . S
C691 C683 1.433 . S
C691 N693 1.384 . S
N692 C688 1.427 . S
N692 C689 1.384 . S
N693 C685 1.427 . S
N693 C691 1.384 . S
H694 C700 0.930 . S
H695 C704 0.930 . S
H696 C709 0.929 . S
H697 C707 0.929 . S
H698 C702 0.929 . S
H699 C708 0.929 . S
C700 H694 0.930 . S
C700 C701 1.367 . S
C700 C708 1.378 . S
C701 C700 1.367 . S
C701 C709 1.433 . S
C702 H698 0.929 . S
C702 C704 1.378 . S
C702 C706 1.350 . S
C703 C706 1.463 . S
C703 C708 1.350 . S
C703 N711 1.427 . S
C704 H695 0.930 . S
C704 C702 1.378 . S
C704 C705 1.367 . S
C705 C704 1.367 . S
C705 C707 1.433 . S
C706 C702 1.350 . S
C706 C703 1.463 . S
C706 N710 1.427 . S
C707 H697 0.929 . S
C707 C705 1.433 . S
C707 N710 1.384 . S
C708 H699 0.929 . S
C708 C700 1.378 . S
C708 C703 1.350 . S
C709 H696 0.929 . S
C709 C701 1.433 . S
C709 N711 1.384 . S
N710 C706 1.427 . S
N710 C707 1.384 . S
N711 C703 1.427 . S
N711 C709 1.384 . S
H712 C718 0.930 . S
H713 C722 0.930 . S
H714 C727 0.929 . S
H715 C725 0.929 . S
H716 C720 0.929 . S
H717 C726 0.929 . S
C718 H712 0.930 . S
C718 C719 1.367 . S
C718 C726 1.378 . S
C719 C718 1.367 . S
C719 C727 1.433 . S
C720 H716 0.929 . S
C720 C722 1.378 . S
C720 C724 1.350 . S
C721 C724 1.463 . S
C721 C726 1.350 . S
C721 N729 1.427 . S
C722 H713 0.930 . S
C722 C720 1.378 . S
C722 C723 1.367 . S
C723 C722 1.367 . S
C723 C725 1.433 . S
C724 C720 1.350 . S
C724 C721 1.463 . S
C724 N728 1.427 . S
C725 H715 0.929 . S
C725 C723 1.433 . S
C725 N728 1.384 . S
C726 H717 0.929 . S
C726 C718 1.378 . S
C726 C721 1.350 . S
C727 H714 0.929 . S
C727 C719 1.433 . S
C727 N729 1.384 . S
N728 C724 1.427 . S
N728 C725 1.384 . S
N729 C721 1.427 . S
N729 C727 1.384 . S
H730 C736 0.930 . S
H731 C740 0.930 . S
H732 C745 0.929 . S
H733 C743 0.929 . S
H734 C738 0.929 . S
H735 C744 0.929 . S
C736 H730 0.930 . S
C736 C737 1.367 . S
C736 C744 1.378 . S
C737 C736 1.367 . S
C737 C745 1.433 . S
C738 H734 0.929 . S
C738 C740 1.378 . S
C738 C742 1.350 . S
C739 C742 1.463 . S
C739 C744 1.350 . S
C739 N747 1.427 . S
C740 H731 0.930 . S
C740 C738 1.378 . S
C740 C741 1.367 . S
C741 C740 1.367 . S
C741 C743 1.433 . S
C742 C738 1.350 . S
C742 C739 1.463 . S
C742 N746 1.427 . S
C743 H733 0.929 . S
C743 C741 1.433 . S
C743 N746 1.384 . S
C744 H735 0.929 . S
C744 C736 1.378 . S
C744 C739 1.350 . S
C745 H732 0.929 . S
C745 C737 1.433 . S
C745 N747 1.384 . S
N746 C742 1.427 . S
N746 C743 1.384 . S
N747 C739 1.427 . S
N747 C745 1.384 . S
H748 C754 0.930 . S
H749 C758 0.930 . S
H750 C763 0.929 . S
H751 C761 0.929 . S
H752 C756 0.929 . S
H753 C762 0.929 . S
C754 H748 0.930 . S
C754 C755 1.367 . S
C754 C762 1.378 . S
C755 C754 1.367 . S
C755 C763 1.433 . S
C756 H752 0.929 . S
C756 C758 1.378 . S
C756 C760 1.350 . S
C757 C760 1.463 . S
C757 C762 1.350 . S
C757 N765 1.427 . S
C758 H749 0.930 . S
C758 C756 1.378 . S
C758 C759 1.367 . S
C759 C758 1.367 . S
C759 C761 1.433 . S
C760 C756 1.350 . S
C760 C757 1.463 . S
C760 N764 1.427 . S
C761 H751 0.929 . S
C761 C759 1.433 . S
C761 N764 1.384 . S
C762 H753 0.929 . S
C762 C754 1.378 . S
C762 C757 1.350 . S
C763 H750 0.929 . S
C763 C755 1.433 . S
C763 N765 1.384 . S
N764 C760 1.427 . S
N764 C761 1.384 . S
N765 C757 1.427 . S
N765 C763 1.384 . S
H766 C772 0.930 . S
H767 C776 0.930 . S
H768 C781 0.929 . S
H769 C779 0.929 . S
H770 C774 0.929 . S
H771 C780 0.929 . S
C772 H766 0.930 . S
C772 C773 1.367 . S
C772 C780 1.378 . S
C773 C772 1.367 . S
C773 C781 1.433 . S
C774 H770 0.929 . S
C774 C776 1.378 . S
C774 C778 1.350 . S
C775 C778 1.463 . S
C775 C780 1.350 . S
C775 N783 1.427 . S
C776 H767 0.930 . S
C776 C774 1.378 . S
C776 C777 1.367 . S
C777 C776 1.367 . S
C777 C779 1.433 . S
C778 C774 1.350 . S
C778 C775 1.463 . S
C778 N782 1.427 . S
C779 H769 0.929 . S
C779 C777 1.433 . S
C779 N782 1.384 . S
C780 H771 0.929 . S
C780 C772 1.378 . S
C780 C775 1.350 . S
C781 H768 0.929 . S
C781 C773 1.433 . S
C781 N783 1.384 . S
N782 C778 1.427 . S
N782 C779 1.384 . S
N783 C775 1.427 . S
N783 C781 1.384 . S
H784 C790 0.930 . S
H785 C794 0.930 . S
H786 C799 0.929 . S
H787 C797 0.929 . S
H788 C792 0.929 . S
H789 C798 0.929 . S
C790 H784 0.930 . S
C790 C791 1.367 . S
C790 C798 1.378 . S
C791 C790 1.367 . S
C791 C799 1.433 . S
C792 H788 0.929 . S
C792 C794 1.378 . S
C792 C796 1.350 . S
C793 C796 1.463 . S
C793 C798 1.350 . S
C793 N801 1.427 . S
C794 H785 0.930 . S
C794 C792 1.378 . S
C794 C795 1.367 . S
C795 C794 1.367 . S
C795 C797 1.433 . S
C796 C792 1.350 . S
C796 C793 1.463 . S
C796 N800 1.427 . S
C797 H787 0.929 . S
C797 C795 1.433 . S
C797 N800 1.384 . S
C798 H789 0.929 . S
C798 C790 1.378 . S
C798 C793 1.350 . S
C799 H786 0.929 . S
C799 C791 1.433 . S
C799 N801 1.384 . S
N800 C796 1.427 . S
N800 C797 1.384 . S
N801 C793 1.427 . S
N801 C799 1.384 . S
H802 C808 0.930 . S
H803 C812 0.930 . S
H804 C817 0.929 . S
H805 C815 0.929 . S
H806 C810 0.929 . S
H807 C816 0.929 . S
C808 H802 0.930 . S
C808 C809 1.367 . S
C808 C816 1.378 . S
C809 C808 1.367 . S
C809 C817 1.433 . S
C810 H806 0.929 . S
C810 C812 1.378 . S
C810 C814 1.350 . S
C811 C814 1.463 . S
C811 C816 1.350 . S
C811 N819 1.427 . S
C812 H803 0.930 . S
C812 C810 1.378 . S
C812 C813 1.367 . S
C813 C812 1.367 . S
C813 C815 1.433 . S
C814 C810 1.350 . S
C814 C811 1.463 . S
C814 N818 1.427 . S
C815 H805 0.929 . S
C815 C813 1.433 . S
C815 N818 1.384 . S
C816 H807 0.929 . S
C816 C808 1.378 . S
C816 C811 1.350 . S
C817 H804 0.929 . S
C817 C809 1.433 . S
C817 N819 1.384 . S
N818 C814 1.427 . S
N818 C815 1.384 . S
N819 C811 1.427 . S
N819 C817 1.384 . S
H820 C826 0.930 . S
H821 C830 0.930 . S
H822 C835 0.929 . S
H823 C833 0.929 . S
H824 C828 0.929 . S
H825 C834 0.929 . S
C826 H820 0.930 . S
C826 C827 1.367 . S
C826 C834 1.378 1_554 S
C827 C826 1.367 . S
C827 C835 1.433 . S
C828 H824 0.929 . S
C828 C830 1.378 . S
C828 C832 1.350 . S
C829 C832 1.463 . S
C829 C834 1.350 . S
C829 N837 1.427 1_556 S
C830 H821 0.930 . S
C830 C828 1.378 . S
C830 C831 1.367 . S
C831 C830 1.367 . S
C831 C833 1.433 . S
C832 C828 1.350 . S
C832 C829 1.463 . S
C832 N836 1.427 . S
C833 H823 0.929 . S
C833 C831 1.433 . S
C833 N836 1.384 . S
C834 H825 0.929 . S
C834 C826 1.378 1_556 S
C834 C829 1.350 . S
C835 H822 0.929 . S
C835 C827 1.433 . S
C835 N837 1.384 . S
N836 C832 1.427 . S
N836 C833 1.384 . S
N837 C829 1.427 1_554 S
N837 C835 1.384 . S
H838 C844 0.930 . S
H839 C848 0.930 . S
H840 C853 0.929 . S
H841 C851 0.929 . S
H842 C846 0.929 . S
H843 C852 0.929 . S
C844 H838 0.930 . S
C844 C845 1.367 . S
C844 C852 1.378 . S
C845 C844 1.367 . S
C845 C853 1.433 . S
C846 H842 0.929 . S
C846 C848 1.378 . S
C846 C850 1.350 . S
C847 C850 1.463 . S
C847 C852 1.350 . S
C847 N855 1.427 . S
C848 H839 0.930 . S
C848 C846 1.378 . S
C848 C849 1.367 . S
C849 C848 1.367 . S
C849 C851 1.433 . S
C850 C846 1.350 . S
C850 C847 1.463 . S
C850 N854 1.427 . S
C851 H841 0.929 . S
C851 C849 1.433 . S
C851 N854 1.384 . S
C852 H843 0.929 . S
C852 C844 1.378 . S
C852 C847 1.350 . S
C853 H840 0.929 . S
C853 C845 1.433 . S
C853 N855 1.384 . S
N854 C850 1.427 . S
N854 C851 1.384 . S
N855 C847 1.427 . S
N855 C853 1.384 . S
H856 C862 0.930 . S
H857 C866 0.930 . S
H858 C871 0.929 . S
H859 C869 0.929 . S
H860 C864 0.929 . S
H861 C870 0.929 . S
C862 H856 0.930 . S
C862 C863 1.367 . S
C862 C870 1.378 . S
C863 C862 1.367 . S
C863 C871 1.433 . S
C864 H860 0.929 . S
C864 C866 1.378 . S
C864 C868 1.350 . S
C865 C868 1.463 . S
C865 C870 1.350 . S
C865 N873 1.427 . S
C866 H857 0.930 . S
C866 C864 1.378 . S
C866 C867 1.367 . S
C867 C866 1.367 . S
C867 C869 1.433 . S
C868 C864 1.350 . S
C868 C865 1.463 . S
C868 N872 1.427 . S
C869 H859 0.929 . S
C869 C867 1.433 . S
C869 N872 1.384 . S
C870 H861 0.929 . S
C870 C862 1.378 . S
C870 C865 1.350 . S
C871 H858 0.929 . S
C871 C863 1.433 . S
C871 N873 1.384 . S
N872 C868 1.427 . S
N872 C869 1.384 . S
N873 C865 1.427 . S
N873 C871 1.384 . S
H874 C880 0.930 . S
H875 C884 0.930 . S
H876 C889 0.929 . S
H877 C887 0.929 . S
H878 C882 0.929 . S
H879 C888 0.929 . S
C880 H874 0.930 . S
C880 C881 1.367 . S
C880 C888 1.378 . S
C881 C880 1.367 . S
C881 C889 1.433 . S
C882 H878 0.929 . S
C882 C884 1.378 . S
C882 C886 1.350 . S
C883 C886 1.463 . S
C883 C888 1.350 . S
C883 N891 1.427 . S
C884 H875 0.930 . S
C884 C882 1.378 . S
C884 C885 1.367 . S
C885 C884 1.367 . S
C885 C887 1.433 . S
C886 C882 1.350 . S
C886 C883 1.463 . S
C886 N890 1.427 . S
C887 H877 0.929 . S
C887 C885 1.433 . S
C887 N890 1.384 . S
C888 H879 0.929 . S
C888 C880 1.378 . S
C888 C883 1.350 . S
C889 H876 0.929 . S
C889 C881 1.433 . S
C889 N891 1.384 . S
N890 C886 1.427 . S
N890 C887 1.384 . S
N891 C883 1.427 . S
N891 C889 1.384 . S
H892 C898 0.930 . S
H893 C902 0.930 . S
H894 C907 0.929 . S
H895 C905 0.929 . S
H896 C900 0.929 . S
H897 C906 0.929 . S
C898 H892 0.930 . S
C898 C899 1.367 . S
C898 C906 1.378 . S
C899 C898 1.367 . S
C899 C907 1.433 . S
C900 H896 0.929 . S
C900 C902 1.378 1_554 S
C900 C904 1.350 . S
C901 C904 1.463 . S
C901 C906 1.350 . S
C901 N909 1.427 . S
C902 H893 0.930 . S
C902 C900 1.378 1_556 S
C902 C903 1.367 . S
C903 C902 1.367 . S
C903 C905 1.433 . S
C904 C900 1.350 . S
C904 C901 1.463 . S
C904 N908 1.427 1_554 S
C905 H895 0.929 . S
C905 C903 1.433 . S
C905 N908 1.384 . S
C906 H897 0.929 . S
C906 C898 1.378 . S
C906 C901 1.350 . S
C907 H894 0.929 . S
C907 C899 1.433 . S
C907 N909 1.384 . S
N908 C904 1.427 1_556 S
N908 C905 1.384 . S
N909 C901 1.427 . S
N909 C907 1.384 . S
H910 C916 0.930 . S
H911 C920 0.930 . S
H912 C925 0.929 . S
H913 C923 0.929 . S
H914 C918 0.929 . S
H915 C924 0.929 . S
C916 H910 0.930 . S
C916 C917 1.367 . S
C916 C924 1.378 . S
C917 C916 1.367 . S
C917 C925 1.433 . S
C918 H914 0.929 . S
C918 C920 1.378 . S
C918 C922 1.350 . S
C919 C922 1.463 . S
C919 C924 1.350 . S
C919 N927 1.427 . S
C920 H911 0.930 . S
C920 C918 1.378 . S
C920 C921 1.367 . S
C921 C920 1.367 . S
C921 C923 1.433 . S
C922 C918 1.350 . S
C922 C919 1.463 . S
C922 N926 1.427 . S
C923 H913 0.929 . S
C923 C921 1.433 . S
C923 N926 1.384 . S
C924 H915 0.929 . S
C924 C916 1.378 . S
C924 C919 1.350 . S
C925 H912 0.929 . S
C925 C917 1.433 . S
C925 N927 1.384 . S
N926 C922 1.427 . S
N926 C923 1.384 . S
N927 C919 1.427 . S
N927 C925 1.384 . S
H928 C934 0.930 . S
H929 C938 0.930 . S
H930 C943 0.929 . S
H931 C941 0.929 . S
H932 C936 0.929 . S
H933 C942 0.929 . S
C934 H928 0.930 . S
C934 C935 1.367 . S
C934 C942 1.378 . S
C935 C934 1.367 . S
C935 C943 1.433 . S
C936 H932 0.929 . S
C936 C938 1.378 . S
C936 C940 1.350 . S
C937 C940 1.463 . S
C937 C942 1.350 . S
C937 N945 1.427 . S
C938 H929 0.930 . S
C938 C936 1.378 . S
C938 C939 1.367 . S
C939 C938 1.367 . S
C939 C941 1.433 . S
C940 C936 1.350 . S
C940 C937 1.463 . S
C940 N944 1.427 . S
C941 H931 0.929 . S
C941 C939 1.433 . S
C941 N944 1.384 . S
C942 H933 0.929 . S
C942 C934 1.378 . S
C942 C937 1.350 . S
C943 H930 0.929 . S
C943 C935 1.433 . S
C943 N945 1.384 . S
N944 C940 1.427 . S
N944 C941 1.384 . S
N945 C937 1.427 . S
N945 C943 1.384 . S
H946 C952 0.930 . S
H947 C956 0.930 . S
H948 C961 0.929 . S
H949 C959 0.929 . S
H950 C954 0.929 . S
H951 C960 0.929 . S
C952 H946 0.930 . S
C952 C953 1.367 . S
C952 C960 1.378 1_655 S
C953 C952 1.367 . S
C953 C961 1.433 . S
C954 H950 0.929 . S
C954 C956 1.378 . S
C954 C958 1.350 . S
C955 C958 1.463 . S
C955 C960 1.350 . S
C955 N963 1.427 1_455 S
C956 H947 0.930 . S
C956 C954 1.378 . S
C956 C957 1.367 . S
C957 C956 1.367 . S
C957 C959 1.433 . S
C958 C954 1.350 . S
C958 C955 1.463 . S
C958 N962 1.427 . S
C959 H949 0.929 . S
C959 C957 1.433 . S
C959 N962 1.384 . S
C960 H951 0.929 . S
C960 C952 1.378 1_455 S
C960 C955 1.350 . S
C961 H948 0.929 . S
C961 C953 1.433 . S
C961 N963 1.384 . S
N962 C958 1.427 . S
N962 C959 1.384 . S
N963 C955 1.427 1_655 S
N963 C961 1.384 . S
H964 C970 0.930 . S
H965 C974 0.930 . S
H966 C979 0.929 . S
H967 C977 0.929 . S
H968 C972 0.929 . S
H969 C978 0.929 . S
C970 H964 0.930 . S
C970 C971 1.367 . S
C970 C978 1.378 . S
C971 C970 1.367 . S
C971 C979 1.433 . S
C972 H968 0.929 . S
C972 C974 1.378 . S
C972 C976 1.350 . S
C973 C976 1.463 . S
C973 C978 1.350 . S
C973 N981 1.427 . S
C974 H965 0.930 . S
C974 C972 1.378 . S
C974 C975 1.367 . S
C975 C974 1.367 . S
C975 C977 1.433 . S
C976 C972 1.350 . S
C976 C973 1.463 . S
C976 N980 1.427 . S
C977 H967 0.929 . S
C977 C975 1.433 . S
C977 N980 1.384 . S
C978 H969 0.929 . S
C978 C970 1.378 . S
C978 C973 1.350 . S
C979 H966 0.929 . S
C979 C971 1.433 . S
C979 N981 1.384 . S
N980 C976 1.427 . S
N980 C977 1.384 . S
N981 C973 1.427 . S
N981 C979 1.384 . S
H982 C988 0.930 . S
H983 C992 0.930 . S
H984 C997 0.929 . S
H985 C995 0.929 . S
H986 C990 0.929 . S
H987 C996 0.929 . S
C988 H982 0.930 . S
C988 C989 1.367 . S
C988 C996 1.378 . S
C989 C988 1.367 . S
C989 C997 1.433 . S
C990 H986 0.929 . S
C990 C992 1.378 . S
C990 C994 1.350 . S
C991 C994 1.463 . S
C991 C996 1.350 . S
C991 N999 1.427 . S
C992 H983 0.930 . S
C992 C990 1.378 . S
C992 C993 1.367 . S
C993 C992 1.367 . S
C993 C995 1.433 . S
C994 C990 1.350 . S
C994 C991 1.463 . S
C994 N998 1.427 . S
C995 H985 0.929 . S
C995 C993 1.433 . S
C995 N998 1.384 . S
C996 H987 0.929 . S
C996 C988 1.378 . S
C996 C991 1.350 . S
C997 H984 0.929 . S
C997 C989 1.433 . S
C997 N999 1.384 . S
N998 C994 1.427 . S
N998 C995 1.384 . S
N999 C991 1.427 . S
N999 C997 1.384 . S
H1000 C1006 0.930 . S
H1001 C1010 0.930 . S
H1002 C1015 0.929 . S
H1003 C1013 0.929 . S
H1004 C1008 0.929 . S
H1005 C1014 0.929 . S
C1006 H1000 0.930 . S
C1006 C1007 1.367 . S
C1006 C1014 1.378 . S
C1007 C1006 1.367 . S
C1007 C1015 1.433 . S
C1008 H1004 0.929 . S
C1008 C1010 1.378 . S
C1008 C1012 1.350 . S
C1009 C1012 1.463 . S
C1009 C1014 1.350 . S
C1009 N1017 1.427 . S
C1010 H1001 0.930 . S
C1010 C1008 1.378 . S
C1010 C1011 1.367 . S
C1011 C1010 1.367 . S
C1011 C1013 1.433 . S
C1012 C1008 1.350 . S
C1012 C1009 1.463 . S
C1012 N1016 1.427 . S
C1013 H1003 0.929 . S
C1013 C1011 1.433 . S
C1013 N1016 1.384 . S
C1014 H1005 0.929 . S
C1014 C1006 1.378 . S
C1014 C1009 1.350 . S
C1015 H1002 0.929 . S
C1015 C1007 1.433 . S
C1015 N1017 1.384 . S
N1016 C1012 1.427 . S
N1016 C1013 1.384 . S
N1017 C1009 1.427 . S
N1017 C1015 1.384 . S
H1018 C1024 0.930 . S
H1019 C1028 0.930 . S
H1020 C1033 0.929 . S
H1021 C1031 0.929 . S
H1022 C1026 0.929 . S
H1023 C1032 0.929 . S
C1024 H1018 0.930 . S
C1024 C1025 1.367 . S
C1024 C1032 1.378 . S
C1025 C1024 1.367 . S
C1025 C1033 1.433 . S
C1026 H1022 0.929 . S
C1026 C1028 1.378 . S
C1026 C1030 1.350 . S
C1027 C1030 1.463 . S
C1027 C1032 1.350 . S
C1027 N1035 1.427 . S
C1028 H1019 0.930 . S
C1028 C1026 1.378 . S
C1028 C1029 1.367 . S
C1029 C1028 1.367 . S
C1029 C1031 1.433 . S
C1030 C1026 1.350 . S
C1030 C1027 1.463 . S
C1030 N1034 1.427 . S
C1031 H1021 0.929 . S
C1031 C1029 1.433 . S
C1031 N1034 1.384 . S
C1032 H1023 0.929 . S
C1032 C1024 1.378 . S
C1032 C1027 1.350 . S
C1033 H1020 0.929 . S
C1033 C1025 1.433 . S
C1033 N1035 1.384 . S
N1034 C1030 1.427 . S
N1034 C1031 1.384 . S
N1035 C1027 1.427 . S
N1035 C1033 1.384 . S
H1036 C1042 0.930 . S
H1037 C1046 0.930 . S
H1038 C1051 0.929 . S
H1039 C1049 0.929 . S
H1040 C1044 0.929 . S
H1041 C1050 0.929 . S
C1042 H1036 0.930 . S
C1042 C1043 1.367 . S
C1042 C1050 1.378 . S
C1043 C1042 1.367 . S
C1043 C1051 1.433 . S
C1044 H1040 0.929 . S
C1044 C1046 1.378 . S
C1044 C1048 1.350 . S
C1045 C1048 1.463 . S
C1045 C1050 1.350 . S
C1045 N1053 1.427 . S
C1046 H1037 0.930 . S
C1046 C1044 1.378 . S
C1046 C1047 1.367 . S
C1047 C1046 1.367 . S
C1047 C1049 1.433 . S
C1048 C1044 1.350 . S
C1048 C1045 1.463 . S
C1048 N1052 1.427 . S
C1049 H1039 0.929 . S
C1049 C1047 1.433 . S
C1049 N1052 1.384 . S
C1050 H1041 0.929 . S
C1050 C1042 1.378 . S
C1050 C1045 1.350 . S
C1051 H1038 0.929 . S
C1051 C1043 1.433 . S
C1051 N1053 1.384 . S
N1052 C1048 1.427 . S
N1052 C1049 1.384 . S
N1053 C1045 1.427 . S
N1053 C1051 1.384 . S
H1054 C1060 0.930 . S
H1055 C1064 0.930 . S
H1056 C1069 0.929 . S
H1057 C1067 0.929 . S
H1058 C1062 0.929 . S
H1059 C1068 0.929 . S
C1060 H1054 0.930 . S
C1060 C1061 1.367 . S
C1060 C1068 1.378 . S
C1061 C1060 1.367 . S
C1061 C1069 1.433 . S
C1062 H1058 0.929 . S
C1062 C1064 1.378 . S
C1062 C1066 1.331 1_655 S
C1063 C1066 1.495 . S
C1063 C1068 1.350 . S
C1063 N1071 1.427 . S
C1064 H1055 0.930 . S
C1064 C1062 1.378 . S
C1064 C1065 1.367 . S
C1065 C1064 1.367 . S
C1065 C1067 1.433 . S
C1066 C1062 1.331 1_455 S
C1066 C1063 1.495 . S
C1066 N1070 1.416 1_455 S
C1067 H1057 0.929 . S
C1067 C1065 1.433 . S
C1067 N1070 1.384 . S
C1068 H1059 0.929 . S
C1068 C1060 1.378 . S
C1068 C1063 1.350 . S
C1069 H1056 0.929 . S
C1069 C1061 1.433 . S
C1069 N1071 1.384 . S
N1070 C1066 1.416 1_655 S
N1070 C1067 1.384 . S
N1071 C1063 1.427 . S
N1071 C1069 1.384 . S
H1072 C1078 0.930 . S
H1073 C1082 0.930 . S
H1074 C1087 0.929 1_565 S
H1075 C1085 0.929 1_545 S
H1076 C1080 0.929 . S
H1077 C1086 0.929 . S
C1078 H1072 0.930 . S
C1078 C1079 1.367 . S
C1078 C1086 1.378 . S
C1079 C1078 1.367 . S
C1079 C1087 1.433 1_455 S
C1080 H1076 0.929 . S
C1080 C1082 1.378 . S
C1080 C1084 1.350 . S
C1081 C1084 1.463 1_544 S
C1081 C1086 1.350 . S
C1081 N1089 1.427 1_545 S
C1082 H1073 0.930 . S
C1082 C1080 1.378 . S
C1082 C1083 1.367 . S
C1083 C1082 1.367 . S
C1083 C1085 1.433 . S
C1084 C1080 1.350 . S
C1084 C1081 1.463 1_566 S
C1084 N1088 1.427 1_565 S
C1085 H1075 0.929 1_565 S
C1085 C1083 1.433 . S
C1085 N1088 1.384 1_565 S
C1086 H1077 0.929 . S
C1086 C1078 1.378 . S
C1086 C1081 1.350 . S
C1087 H1074 0.929 1_545 S
C1087 C1079 1.433 1_655 S
C1087 N1089 1.384 1_645 S
N1088 C1084 1.427 1_545 S
N1088 C1085 1.384 1_545 S
N1089 C1081 1.427 1_565 S
N1089 C1087 1.384 1_465 S
H1090 C1096 0.930 . S
H1091 C1100 0.930 . S
H1092 C1105 0.929 . S
H1093 C1103 0.929 . S
H1094 C1098 0.929 . S
H1095 C1104 0.929 . S
C1096 H1090 0.930 . S
C1096 C1097 1.367 . S
C1096 C1104 1.378 . S
C1097 C1096 1.367 . S
C1097 C1105 1.433 . S
C1098 H1094 0.929 . S
C1098 C1100 1.378 . S
C1098 C1102 1.350 . S
C1099 C1102 1.463 . S
C1099 C1104 1.350 . S
C1099 N1107 1.427 . S
C1100 H1091 0.930 . S
C1100 C1098 1.378 . S
C1100 C1101 1.367 . S
C1101 C1100 1.367 . S
C1101 C1103 1.433 . S
C1102 C1098 1.350 . S
C1102 C1099 1.463 . S
C1102 N1106 1.427 . S
C1103 H1093 0.929 . S
C1103 C1101 1.433 . S
C1103 N1106 1.384 . S
C1104 H1095 0.929 . S
C1104 C1096 1.378 . S
C1104 C1099 1.350 . S
C1105 H1092 0.929 . S
C1105 C1097 1.433 . S
C1105 N1107 1.384 . S
N1106 C1102 1.427 . S
N1106 C1103 1.384 . S
N1107 C1099 1.427 . S
N1107 C1105 1.384 . S
H1108 C1114 0.930 . S
H1109 C1118 0.930 . S
H1110 C1123 0.929 . S
H1111 C1121 0.929 . S
H1112 C1116 0.929 . S
H1113 C1122 0.929 . S
C1114 H1108 0.930 . S
C1114 C1115 1.367 . S
C1114 C1122 1.378 . S
C1115 C1114 1.367 . S
C1115 C1123 1.433 . S
C1116 H1112 0.929 . S
C1116 C1118 1.378 . S
C1116 C1120 1.350 . S
C1117 C1120 1.463 1_545 S
C1117 C1122 1.350 . S
C1117 N1125 1.427 . S
C1118 H1109 0.930 . S
C1118 C1116 1.378 . S
C1118 C1119 1.367 . S
C1119 C1118 1.367 . S
C1119 C1121 1.433 . S
C1120 C1116 1.350 . S
C1120 C1117 1.463 1_565 S
C1120 N1124 1.427 . S
C1121 H1111 0.929 . S
C1121 C1119 1.433 . S
C1121 N1124 1.384 . S
C1122 H1113 0.929 . S
C1122 C1114 1.378 . S
C1122 C1117 1.350 . S
C1123 H1110 0.929 . S
C1123 C1115 1.433 . S
C1123 N1125 1.384 . S
N1124 C1120 1.427 . S
N1124 C1121 1.384 . S
N1125 C1117 1.427 . S
N1125 C1123 1.384 . S
H1126 C1132 0.930 . S
H1127 C1136 0.930 . S
H1128 C1141 0.929 . S
H1129 C1139 0.929 . S
H1130 C1134 0.929 . S
H1131 C1140 0.929 . S
C1132 H1126 0.930 . S
C1132 C1133 1.367 . S
C1132 C1140 1.378 . S
C1133 C1132 1.367 . S
C1133 C1141 1.433 . S
C1134 H1130 0.929 . S
C1134 C1136 1.378 . S
C1134 C1138 1.350 . S
C1135 C1138 1.463 . S
C1135 C1140 1.350 . S
C1135 N1143 1.427 . S
C1136 H1127 0.930 . S
C1136 C1134 1.378 . S
C1136 C1137 1.367 . S
C1137 C1136 1.367 . S
C1137 C1139 1.433 . S
C1138 C1134 1.350 . S
C1138 C1135 1.463 . S
C1138 N1142 1.427 . S
C1139 H1129 0.929 . S
C1139 C1137 1.433 . S
C1139 N1142 1.384 . S
C1140 H1131 0.929 . S
C1140 C1132 1.378 . S
C1140 C1135 1.350 . S
C1141 H1128 0.929 . S
C1141 C1133 1.433 . S
C1141 N1143 1.384 . S
N1142 C1138 1.427 . S
N1142 C1139 1.384 . S
N1143 C1135 1.427 . S
N1143 C1141 1.384 . S
H1144 C1150 0.930 . S
H1145 C1154 0.930 . S
H1146 C1159 0.929 . S
H1147 C1157 0.929 . S
H1148 C1152 0.929 . S
H1149 C1158 0.929 . S
C1150 H1144 0.930 . S
C1150 C1151 1.367 . S
C1150 C1158 1.378 . S
C1151 C1150 1.367 . S
C1151 C1159 1.433 . S
C1152 H1148 0.929 . S
C1152 C1154 1.378 . S
C1152 C1156 1.350 . S
C1153 C1156 1.463 . S
C1153 C1158 1.350 . S
C1153 N1161 1.427 . S
C1154 H1145 0.930 . S
C1154 C1152 1.378 . S
C1154 C1155 1.367 . S
C1155 C1154 1.367 . S
C1155 C1157 1.433 . S
C1156 C1152 1.350 . S
C1156 C1153 1.463 . S
C1156 N1160 1.427 . S
C1157 H1147 0.929 . S
C1157 C1155 1.433 . S
C1157 N1160 1.384 . S
C1158 H1149 0.929 . S
C1158 C1150 1.378 . S
C1158 C1153 1.350 . S
C1159 H1146 0.929 . S
C1159 C1151 1.433 . S
C1159 N1161 1.384 . S
N1160 C1156 1.427 . S
N1160 C1157 1.384 . S
N1161 C1153 1.427 . S
N1161 C1159 1.384 . S
H1162 C1168 0.930 . S
H1163 C1172 0.930 . S
H1164 C1177 0.929 . S
H1165 C1175 0.929 . S
H1166 C1170 0.929 . S
H1167 C1176 0.929 . S
C1168 H1162 0.930 . S
C1168 C1169 1.367 . S
C1168 C1176 1.378 . S
C1169 C1168 1.367 . S
C1169 C1177 1.433 . S
C1170 H1166 0.929 . S
C1170 C1172 1.378 . S
C1170 C1174 1.350 . S
C1171 C1174 1.463 . S
C1171 C1176 1.350 . S
C1171 N1179 1.427 . S
C1172 H1163 0.930 . S
C1172 C1170 1.378 . S
C1172 C1173 1.367 . S
C1173 C1172 1.367 . S
C1173 C1175 1.433 . S
C1174 C1170 1.350 . S
C1174 C1171 1.463 . S
C1174 N1178 1.427 . S
C1175 H1165 0.929 . S
C1175 C1173 1.433 . S
C1175 N1178 1.384 . S
C1176 H1167 0.929 . S
C1176 C1168 1.378 . S
C1176 C1171 1.350 . S
C1177 H1164 0.929 . S
C1177 C1169 1.433 . S
C1177 N1179 1.384 . S
N1178 C1174 1.427 . S
N1178 C1175 1.384 . S
N1179 C1171 1.427 . S
N1179 C1177 1.384 . S
H1180 C1186 0.930 . S
H1181 C1190 0.930 . S
H1182 C1195 0.929 . S
H1183 C1193 0.929 . S
H1184 C1188 0.929 . S
H1185 C1194 0.929 . S
C1186 H1180 0.930 . S
C1186 C1187 1.367 . S
C1186 C1194 1.378 . S
C1187 C1186 1.367 . S
C1187 C1195 1.433 . S
C1188 H1184 0.929 . S
C1188 C1190 1.378 . S
C1188 C1192 1.350 . S
C1189 C1192 1.463 . S
C1189 C1194 1.350 . S
C1189 N1197 1.427 . S
C1190 H1181 0.930 . S
C1190 C1188 1.378 . S
C1190 C1191 1.367 . S
C1191 C1190 1.367 . S
C1191 C1193 1.433 . S
C1192 C1188 1.350 . S
C1192 C1189 1.463 . S
C1192 N1196 1.427 . S
C1193 H1183 0.929 . S
C1193 C1191 1.433 . S
C1193 N1196 1.384 . S
C1194 H1185 0.929 . S
C1194 C1186 1.378 . S
C1194 C1189 1.350 . S
C1195 H1182 0.929 . S
C1195 C1187 1.433 . S
C1195 N1197 1.384 . S
N1196 C1192 1.427 . S
N1196 C1193 1.384 . S
N1197 C1189 1.427 . S
N1197 C1195 1.384 . S
H1198 C1204 0.930 . S
H1199 C1208 0.930 . S
H1200 C1213 0.929 . S
H1201 C1211 0.929 1_655 S
H1202 C1206 0.930 . S
H1203 C1212 0.931 . S
C1204 H1198 0.930 . S
C1204 C1205 1.367 . S
C1204 C1212 1.378 . S
C1205 C1204 1.367 . S
C1205 C1213 1.433 . S
C1206 H1202 0.930 . S
C1206 C1208 1.378 . S
C1206 C1210 1.350 . S
C1207 C1210 1.463 1_556 S
C1207 C1212 1.350 . S
C1207 N1215 1.427 . S
C1208 H1199 0.930 . S
C1208 C1206 1.378 . S
C1208 C1209 1.367 . S
C1209 C1208 1.367 . S
C1209 C1211 1.433 . S
C1210 C1206 1.350 . S
C1210 C1207 1.463 1_554 S
C1210 N1214 1.427 . S
C1211 H1201 0.929 1_455 S
C1211 C1209 1.433 . S
C1211 N1214 1.384 . S
C1212 H1203 0.931 . S
C1212 C1204 1.378 . S
C1212 C1207 1.350 . S
C1213 H1200 0.929 . S
C1213 C1205 1.433 . S
C1213 N1215 1.384 . S
N1214 C1210 1.427 . S
N1214 C1211 1.384 . S
N1215 C1207 1.427 . S
N1215 C1213 1.384 . S
H1216 C1222 0.930 . S
H1217 C1226 0.930 . S
H1218 C1231 0.929 . S
H1219 C1229 0.929 . S
H1220 C1224 0.929 . S
H1221 C1230 0.929 . S
C1222 H1216 0.930 . S
C1222 C1223 1.367 . S
C1222 C1230 1.378 . S
C1223 C1222 1.367 . S
C1223 C1231 1.433 . S
C1224 H1220 0.929 . S
C1224 C1226 1.378 . S
C1224 C1228 1.350 . S
C1225 C1228 1.463 . S
C1225 C1230 1.350 . S
C1225 N1233 1.427 . S
C1226 H1217 0.930 . S
C1226 C1224 1.378 . S
C1226 C1227 1.367 . S
C1227 C1226 1.367 . S
C1227 C1229 1.433 . S
C1228 C1224 1.350 . S
C1228 C1225 1.463 . S
C1228 N1232 1.427 . S
C1229 H1219 0.929 . S
C1229 C1227 1.433 . S
C1229 N1232 1.384 . S
C1230 H1221 0.929 . S
C1230 C1222 1.378 . S
C1230 C1225 1.350 . S
C1231 H1218 0.929 . S
C1231 C1223 1.433 . S
C1231 N1233 1.384 . S
N1232 C1228 1.427 . S
N1232 C1229 1.384 . S
N1233 C1225 1.427 . S
N1233 C1231 1.384 . S
H1234 C1240 0.930 . S
H1235 C1244 0.930 . S
H1236 C1249 0.929 . S
H1237 C1247 0.929 . S
H1238 C1242 0.929 . S
H1239 C1248 0.929 . S
C1240 H1234 0.930 . S
C1240 C1241 1.367 . S
C1240 C1248 1.378 . S
C1241 C1240 1.367 . S
C1241 C1249 1.433 . S
C1242 H1238 0.929 . S
C1242 C1244 1.378 . S
C1242 C1246 1.350 . S
C1243 C1246 1.463 . S
C1243 C1248 1.350 . S
C1243 N1251 1.427 . S
C1244 H1235 0.930 . S
C1244 C1242 1.378 . S
C1244 C1245 1.367 . S
C1245 C1244 1.367 . S
C1245 C1247 1.433 . S
C1246 C1242 1.350 . S
C1246 C1243 1.463 . S
C1246 N1250 1.427 . S
C1247 H1237 0.929 . S
C1247 C1245 1.433 . S
C1247 N1250 1.384 . S
C1248 H1239 0.929 . S
C1248 C1240 1.378 . S
C1248 C1243 1.350 . S
C1249 H1236 0.929 . S
C1249 C1241 1.433 . S
C1249 N1251 1.384 . S
N1250 C1246 1.427 . S
N1250 C1247 1.384 . S
N1251 C1243 1.427 . S
N1251 C1249 1.384 . S
H1252 C1258 0.937 . S
H1253 C1262 0.930 . S
H1254 C1267 0.929 . S
H1255 C1265 0.929 . S
H1256 C1260 0.929 . S
H1257 C1266 0.929 . S
C1258 H1252 0.937 . S
C1258 C1259 1.367 1_556 S
C1258 C1266 1.378 . S
C1259 C1258 1.367 1_554 S
C1259 C1267 1.433 . S
C1260 H1256 0.929 . S
C1260 C1262 1.378 . S
C1260 C1264 1.350 . S
C1261 C1264 1.463 . S
C1261 C1266 1.350 . S
C1261 N1269 1.440 . S
C1262 H1253 0.930 . S
C1262 C1260 1.378 . S
C1262 C1263 1.367 . S
C1263 C1262 1.367 . S
C1263 C1265 1.433 . S
C1264 C1260 1.350 . S
C1264 C1261 1.463 . S
C1264 N1268 1.427 . S
C1265 H1255 0.929 . S
C1265 C1263 1.433 . S
C1265 N1268 1.384 . S
C1266 H1257 0.929 . S
C1266 C1258 1.378 . S
C1266 C1261 1.350 . S
C1267 H1254 0.929 . S
C1267 C1259 1.433 . S
C1267 N1269 1.367 1_554 S
N1268 C1264 1.427 . S
N1268 C1265 1.384 . S
N1269 C1261 1.440 . S
N1269 C1267 1.367 1_556 S
H1270 C1276 0.930 . S
H1271 C1280 0.930 . S
H1272 C1285 0.929 . S
H1273 C1283 0.929 . S
H1274 C1278 0.929 . S
H1275 C1284 0.929 . S
C1276 H1270 0.930 . S
C1276 C1277 1.367 . S
C1276 C1284 1.378 . S
C1277 C1276 1.367 . S
C1277 C1285 1.433 . S
C1278 H1274 0.929 . S
C1278 C1280 1.378 . S
C1278 C1282 1.350 . S
C1279 C1282 1.463 . S
C1279 C1284 1.350 . S
C1279 N1287 1.427 . S
C1280 H1271 0.930 . S
C1280 C1278 1.378 . S
C1280 C1281 1.367 . S
C1281 C1280 1.367 . S
C1281 C1283 1.433 . S
C1282 C1278 1.350 . S
C1282 C1279 1.463 . S
C1282 N1286 1.427 . S
C1283 H1273 0.929 . S
C1283 C1281 1.433 . S
C1283 N1286 1.384 . S
C1284 H1275 0.929 . S
C1284 C1276 1.378 . S
C1284 C1279 1.350 . S
C1285 H1272 0.929 . S
C1285 C1277 1.433 . S
C1285 N1287 1.384 . S
N1286 C1282 1.427 . S
N1286 C1283 1.384 . S
N1287 C1279 1.427 . S
N1287 C1285 1.384 . S
H1288 C1294 0.930 . S
H1289 C1298 0.930 . S
H1290 C1303 0.929 . S
H1291 C1301 0.929 . S
H1292 C1296 0.929 . S
H1293 C1302 0.929 . S
C1294 H1288 0.930 . S
C1294 C1295 1.367 . S
C1294 C1302 1.378 . S
C1295 C1294 1.367 . S
C1295 C1303 1.433 . S
C1296 H1292 0.929 . S
C1296 C1298 1.378 . S
C1296 C1300 1.350 . S
C1297 C1300 1.463 . S
C1297 C1302 1.350 . S
C1297 N1305 1.427 . S
C1298 H1289 0.930 . S
C1298 C1296 1.378 . S
C1298 C1299 1.367 . S
C1299 C1298 1.367 . S
C1299 C1301 1.433 . S
C1300 C1296 1.350 . S
C1300 C1297 1.463 . S
C1300 N1304 1.427 . S
C1301 H1291 0.929 . S
C1301 C1299 1.433 . S
C1301 N1304 1.384 . S
C1302 H1293 0.929 . S
C1302 C1294 1.378 . S
C1302 C1297 1.350 . S
C1303 H1290 0.929 . S
C1303 C1295 1.433 . S
C1303 N1305 1.384 . S
N1304 C1300 1.427 . S
N1304 C1301 1.384 . S
N1305 C1297 1.427 . S
N1305 C1303 1.384 . S
H1306 C1312 0.930 . S
H1307 C1316 0.930 . S
H1308 C1321 0.929 . S
H1309 C1319 0.929 . S
H1310 C1314 0.929 . S
H1311 C1320 0.929 . S
C1312 H1306 0.930 . S
C1312 C1313 1.367 . S
C1312 C1320 1.378 . S
C1313 C1312 1.367 . S
C1313 C1321 1.433 . S
C1314 H1310 0.929 . S
C1314 C1316 1.378 . S
C1314 C1318 1.350 . S
C1315 C1318 1.463 . S
C1315 C1320 1.350 . S
C1315 N1323 1.427 . S
C1316 H1307 0.930 . S
C1316 C1314 1.378 . S
C1316 C1317 1.367 . S
C1317 C1316 1.367 . S
C1317 C1319 1.433 . S
C1318 C1314 1.350 . S
C1318 C1315 1.463 . S
C1318 N1322 1.427 . S
C1319 H1309 0.929 . S
C1319 C1317 1.433 . S
C1319 N1322 1.384 . S
C1320 H1311 0.929 . S
C1320 C1312 1.378 . S
C1320 C1315 1.350 . S
C1321 H1308 0.929 . S
C1321 C1313 1.433 . S
C1321 N1323 1.384 . S
N1322 C1318 1.427 . S
N1322 C1319 1.384 . S
N1323 C1315 1.427 . S
N1323 C1321 1.384 . S
H1324 C1330 0.930 . S
H1325 C1334 0.930 . S
H1326 C1339 0.929 . S
H1327 C1337 0.929 . S
H1328 C1332 0.929 . S
H1329 C1338 0.929 . S
C1330 H1324 0.930 . S
C1330 C1331 1.367 . S
C1330 C1338 1.378 1_556 S
C1331 C1330 1.367 . S
C1331 C1339 1.434 . S
C1332 H1328 0.929 . S
C1332 C1334 1.378 . S
C1332 C1336 1.350 . S
C1333 C1336 1.463 . S
C1333 C1338 1.350 . S
C1333 N1341 1.427 . S
C1334 H1325 0.930 . S
C1334 C1332 1.378 . S
C1334 C1335 1.367 . S
C1335 C1334 1.367 . S
C1335 C1337 1.433 . S
C1336 C1332 1.350 . S
C1336 C1333 1.463 . S
C1336 N1340 1.427 . S
C1337 H1327 0.929 . S
C1337 C1335 1.433 . S
C1337 N1340 1.384 . S
C1338 H1329 0.929 . S
C1338 C1330 1.378 1_554 S
C1338 C1333 1.350 . S
C1339 H1326 0.929 . S
C1339 C1331 1.434 . S
C1339 N1341 1.383 1_556 S
N1340 C1336 1.427 . S
N1340 C1337 1.384 . S
N1341 C1333 1.427 . S
N1341 C1339 1.383 1_554 S
H1342 C1348 0.930 . S
H1343 C1352 0.930 . S
H1344 C1357 0.929 . S
H1345 C1355 0.929 . S
H1346 C1350 0.929 . S
H1347 C1356 0.929 . S
C1348 H1342 0.930 . S
C1348 C1349 1.367 . S
C1348 C1356 1.378 . S
C1349 C1348 1.367 . S
C1349 C1357 1.433 . S
C1350 H1346 0.929 . S
C1350 C1352 1.378 . S
C1350 C1354 1.350 . S
C1351 C1354 1.463 . S
C1351 C1356 1.350 . S
C1351 N1359 1.427 . S
C1352 H1343 0.930 . S
C1352 C1350 1.378 . S
C1352 C1353 1.367 . S
C1353 C1352 1.367 . S
C1353 C1355 1.433 . S
C1354 C1350 1.350 . S
C1354 C1351 1.463 . S
C1354 N1358 1.427 . S
C1355 H1345 0.929 . S
C1355 C1353 1.433 . S
C1355 N1358 1.384 . S
C1356 H1347 0.929 . S
C1356 C1348 1.378 . S
C1356 C1351 1.350 . S
C1357 H1344 0.929 . S
C1357 C1349 1.433 . S
C1357 N1359 1.384 . S
N1358 C1354 1.427 . S
N1358 C1355 1.384 . S
N1359 C1351 1.427 . S
N1359 C1357 1.384 . S
H1360 C1366 0.930 . S
H1361 C1370 0.930 . S
H1362 C1375 0.929 . S
H1363 C1373 0.929 . S
H1364 C1368 0.929 . S
H1365 C1374 0.929 . S
C1366 H1360 0.930 . S
C1366 C1367 1.367 . S
C1366 C1374 1.378 . S
C1367 C1366 1.367 . S
C1367 C1375 1.433 . S
C1368 H1364 0.929 . S
C1368 C1370 1.378 . S
C1368 C1372 1.350 . S
C1369 C1372 1.463 . S
C1369 C1374 1.350 . S
C1369 N1377 1.427 . S
C1370 H1361 0.930 . S
C1370 C1368 1.378 . S
C1370 C1371 1.367 . S
C1371 C1370 1.367 . S
C1371 C1373 1.433 . S
C1372 C1368 1.350 . S
C1372 C1369 1.463 . S
C1372 N1376 1.427 . S
C1373 H1363 0.929 . S
C1373 C1371 1.433 . S
C1373 N1376 1.384 . S
C1374 H1365 0.929 . S
C1374 C1366 1.378 . S
C1374 C1369 1.350 . S
C1375 H1362 0.929 . S
C1375 C1367 1.433 . S
C1375 N1377 1.384 . S
N1376 C1372 1.427 . S
N1376 C1373 1.384 . S
N1377 C1369 1.427 . S
N1377 C1375 1.384 . S
H1378 C1384 0.930 . S
H1379 C1388 0.930 . S
H1380 C1393 0.929 . S
H1381 C1391 0.929 . S
H1382 C1386 0.929 . S
H1383 C1392 0.929 . S
C1384 H1378 0.930 . S
C1384 C1385 1.367 . S
C1384 C1392 1.378 . S
C1385 C1384 1.367 . S
C1385 C1393 1.433 . S
C1386 H1382 0.929 . S
C1386 C1388 1.378 . S
C1386 C1390 1.350 . S
C1387 C1390 1.463 . S
C1387 C1392 1.350 . S
C1387 N1395 1.427 . S
C1388 H1379 0.930 . S
C1388 C1386 1.378 . S
C1388 C1389 1.367 . S
C1389 C1388 1.367 . S
C1389 C1391 1.433 . S
C1390 C1386 1.350 . S
C1390 C1387 1.463 . S
C1390 N1394 1.427 . S
C1391 H1381 0.929 . S
C1391 C1389 1.433 . S
C1391 N1394 1.384 . S
C1392 H1383 0.929 . S
C1392 C1384 1.378 . S
C1392 C1387 1.350 . S
C1393 H1380 0.929 . S
C1393 C1385 1.433 . S
C1393 N1395 1.384 . S
N1394 C1390 1.427 . S
N1394 C1391 1.384 . S
N1395 C1387 1.427 . S
N1395 C1393 1.384 . S
H1396 C1402 0.930 . S
H1397 C1406 0.930 . S
H1398 C1411 0.929 . S
H1399 C1409 0.929 . S
H1400 C1404 0.929 . S
H1401 C1410 0.929 . S
C1402 H1396 0.930 . S
C1402 C1403 1.367 . S
C1402 C1410 1.378 . S
C1403 C1402 1.367 . S
C1403 C1411 1.433 . S
C1404 H1400 0.929 . S
C1404 C1406 1.378 . S
C1404 C1408 1.350 . S
C1405 C1408 1.463 . S
C1405 C1410 1.350 . S
C1405 N1413 1.427 . S
C1406 H1397 0.930 . S
C1406 C1404 1.378 . S
C1406 C1407 1.367 . S
C1407 C1406 1.367 . S
C1407 C1409 1.433 . S
C1408 C1404 1.350 . S
C1408 C1405 1.463 . S
C1408 N1412 1.427 . S
C1409 H1399 0.929 . S
C1409 C1407 1.433 . S
C1409 N1412 1.384 . S
C1410 H1401 0.929 . S
C1410 C1402 1.378 . S
C1410 C1405 1.350 . S
C1411 H1398 0.929 . S
C1411 C1403 1.433 . S
C1411 N1413 1.384 . S
N1412 C1408 1.427 . S
N1412 C1409 1.384 . S
N1413 C1405 1.427 . S
N1413 C1411 1.384 . S
H1414 C1420 0.929 . S
H1415 C1424 0.930 . S
H1416 C1429 0.929 . S
H1417 C1427 0.929 . S
H1418 C1422 0.929 . S
H1419 C1428 0.929 . S
C1420 H1414 0.929 . S
C1420 C1421 1.367 . S
C1420 C1428 1.378 . S
C1421 C1420 1.367 . S
C1421 C1429 1.433 . S
C1422 H1418 0.929 . S
C1422 C1424 1.378 . S
C1422 C1426 1.350 . S
C1423 C1426 1.463 . S
C1423 C1428 1.350 . S
C1423 N1431 1.427 . S
C1424 H1415 0.930 . S
C1424 C1422 1.378 . S
C1424 C1425 1.367 . S
C1425 C1424 1.367 . S
C1425 C1427 1.433 . S
C1426 C1422 1.350 . S
C1426 C1423 1.463 . S
C1426 N1430 1.427 . S
C1427 H1417 0.929 . S
C1427 C1425 1.433 . S
C1427 N1430 1.384 . S
C1428 H1419 0.929 . S
C1428 C1420 1.378 . S
C1428 C1423 1.350 . S
C1429 H1416 0.929 . S
C1429 C1421 1.433 . S
C1429 N1431 1.384 . S
N1430 C1426 1.427 . S
N1430 C1427 1.384 . S
N1431 C1423 1.427 . S
N1431 C1429 1.384 . S
H1432 C1438 0.930 . S
H1433 C1442 0.930 . S
H1434 C1447 0.929 . S
H1435 C1445 0.929 . S
H1436 C1440 0.929 . S
H1437 C1446 0.929 . S
C1438 H1432 0.930 . S
C1438 C1439 1.367 . S
C1438 C1446 1.378 . S
C1439 C1438 1.367 . S
C1439 C1447 1.433 . S
C1440 H1436 0.929 . S
C1440 C1442 1.378 . S
C1440 C1444 1.350 . S
C1441 C1444 1.463 . S
C1441 C1446 1.350 . S
C1441 N1449 1.427 . S
C1442 H1433 0.930 . S
C1442 C1440 1.378 . S
C1442 C1443 1.367 . S
C1443 C1442 1.367 . S
C1443 C1445 1.433 . S
C1444 C1440 1.350 . S
C1444 C1441 1.463 . S
C1444 N1448 1.427 . S
C1445 H1435 0.929 . S
C1445 C1443 1.433 . S
C1445 N1448 1.384 . S
C1446 H1437 0.929 . S
C1446 C1438 1.378 . S
C1446 C1441 1.350 . S
C1447 H1434 0.929 . S
C1447 C1439 1.433 . S
C1447 N1449 1.384 . S
N1448 C1444 1.427 . S
N1448 C1445 1.384 . S
N1449 C1441 1.427 . S
N1449 C1447 1.384 . S
H1450 C1456 0.930 . S
H1451 C1460 0.930 . S
H1452 C1465 0.929 . S
H1453 C1463 0.929 . S
H1454 C1458 0.929 . S
H1455 C1464 0.929 . S
C1456 H1450 0.930 . S
C1456 C1457 1.367 . S
C1456 C1464 1.378 . S
C1457 C1456 1.367 . S
C1457 C1465 1.433 . S
C1458 H1454 0.929 . S
C1458 C1460 1.378 . S
C1458 C1462 1.350 . S
C1459 C1462 1.463 . S
C1459 C1464 1.350 . S
C1459 N1467 1.427 . S
C1460 H1451 0.930 . S
C1460 C1458 1.378 . S
C1460 C1461 1.367 . S
C1461 C1460 1.367 . S
C1461 C1463 1.433 . S
C1462 C1458 1.350 . S
C1462 C1459 1.463 . S
C1462 N1466 1.427 . S
C1463 H1453 0.929 . S
C1463 C1461 1.433 . S
C1463 N1466 1.384 . S
C1464 H1455 0.929 . S
C1464 C1456 1.378 . S
C1464 C1459 1.350 . S
C1465 H1452 0.929 . S
C1465 C1457 1.433 . S
C1465 N1467 1.384 . S
N1466 C1462 1.427 . S
N1466 C1463 1.384 . S
N1467 C1459 1.427 . S
N1467 C1465 1.384 . S
H1468 C1474 0.930 . S
H1469 C1478 0.930 . S
H1470 C1483 0.929 . S
H1471 C1481 0.929 . S
H1472 C1476 0.929 . S
H1473 C1482 0.929 . S
C1474 H1468 0.930 . S
C1474 C1475 1.367 . S
C1474 C1482 1.378 . S
C1475 C1474 1.367 . S
C1475 C1483 1.433 . S
C1476 H1472 0.929 . S
C1476 C1478 1.378 . S
C1476 C1480 1.350 . S
C1477 C1480 1.463 . S
C1477 C1482 1.350 . S
C1477 N1485 1.427 . S
C1478 H1469 0.930 . S
C1478 C1476 1.378 . S
C1478 C1479 1.367 . S
C1479 C1478 1.367 . S
C1479 C1481 1.433 . S
C1480 C1476 1.350 . S
C1480 C1477 1.463 . S
C1480 N1484 1.427 . S
C1481 H1471 0.929 . S
C1481 C1479 1.433 . S
C1481 N1484 1.384 . S
C1482 H1473 0.929 . S
C1482 C1474 1.378 . S
C1482 C1477 1.350 . S
C1483 H1470 0.929 . S
C1483 C1475 1.433 . S
C1483 N1485 1.384 . S
N1484 C1480 1.427 . S
N1484 C1481 1.384 . S
N1485 C1477 1.427 . S
N1485 C1483 1.384 . S
H1486 C1492 0.930 . S
H1487 C1496 0.930 . S
H1488 C1501 0.929 . S
H1489 C1499 0.929 . S
H1490 C1494 0.929 . S
H1491 C1500 0.929 . S
C1492 H1486 0.930 . S
C1492 C1493 1.367 . S
C1492 C1500 1.378 . S
C1493 C1492 1.367 . S
C1493 C1501 1.433 . S
C1494 H1490 0.929 . S
C1494 C1496 1.378 . S
C1494 C1498 1.350 . S
C1495 C1498 1.463 . S
C1495 C1500 1.350 . S
C1495 N1503 1.427 . S
C1496 H1487 0.930 . S
C1496 C1494 1.378 . S
C1496 C1497 1.367 . S
C1497 C1496 1.367 . S
C1497 C1499 1.433 . S
C1498 C1494 1.350 . S
C1498 C1495 1.463 . S
C1498 N1502 1.427 . S
C1499 H1489 0.929 . S
C1499 C1497 1.433 . S
C1499 N1502 1.384 . S
C1500 H1491 0.929 . S
C1500 C1492 1.378 . S
C1500 C1495 1.350 . S
C1501 H1488 0.929 . S
C1501 C1493 1.433 . S
C1501 N1503 1.384 . S
N1502 C1498 1.427 . S
N1502 C1499 1.384 . S
N1503 C1495 1.427 . S
N1503 C1501 1.384 . S
C647 C6 0.846 . S
C651 C286 0.963 . S
C665 C59 2.783 . S
C669 C179 2.720 1_554 S
C683 C206 0.502 . S
C687 C99 0.468 . S
C701 C139 1.951 . S
C705 C246 1.984 . S
C719 C455 0.961 . S
C723 C175 0.855 . S
C737 C330 2.781 . S
C741 C10 2.724 1_556 S
C755 C415 0.485 . S
C759 C250 0.492 . S
C773 C95 1.983 . S
C777 C370 1.956 . S
C791 C366 0.946 . S
C795 C486 0.851 . S
C809 C419 2.781 . S
C813 C579 2.724 . S
C827 C539 0.491 . S
C831 C326 0.478 . S
C845 C459 1.956 . S
C849 C606 1.983 . S
C863 C575 0.842 . S
C867 C135 0.943 . S
C881 C490 2.722 . S
C885 C210 2.777 . S
C899 C55 0.490 . S
C903 C610 0.490 . S
C917 C290 1.958 . S
C921 C535 1.989 . S
C935 C538 0.426 . S
C939 C9 0.497 . S
C953 C458 0.756 . S
C957 C58 0.722 . S
C971 C489 0.460 . S
C975 C98 0.463 . S
C989 C418 0.725 . S
C993 C138 0.733 . S
C1007 C178 0.452 . S
C1011 C609 0.471 . S
C1025 C369 0.738 . S
C1029 C209 0.709 . S
C1043 C249 0.445 . S
C1047 C578 0.479 . S
C1061 C289 0.739 . S
C1065 C329 0.728 . S
C1079 C18 1.508 1_455 S
C1083 C169 1.508 . S
C1097 C49 1.235 . S
C1101 C218 1.235 . S
C1115 C258 1.586 . S
C1119 C89 1.586 . S
C1133 C129 1.959 . S
C1137 C298 1.959 . S
C1151 C409 1.244 . S
C1155 C338 1.244 . S
C1169 C449 1.949 . S
C1173 C378 1.949 . S
C1187 C498 1.506 . S
C1191 C569 1.506 . S
C1205 C618 1.582 . S
C1209 C529 1.582 . S
C1223 C19 3.694 . S
C1227 C299 3.704 . S
C1241 C46 0.630 . S
C1245 C166 0.607 . S
C1259 C219 2.949 . S
C1263 C86 2.882 . S
C1277 C259 1.010 . S
C1281 C126 0.983 . S
C1295 C450 3.705 . S
C1299 C170 3.697 1_655 S
C1313 C335 0.626 . S
C1317 C15 0.606 . S
C1331 C410 2.947 . S
C1335 C255 2.883 . S
C1349 C90 1.002 . S
C1353 C375 0.969 . S
C1367 C499 3.694 . S
C1371 C379 3.704 1_556 S
C1385 C566 0.642 . S
C1389 C406 0.621 . S
C1403 C526 2.878 . S
C1407 C339 2.947 . S
C1421 C619 1.006 . S
C1425 C446 0.978 . S
C1439 C570 3.695 . S
C1443 C130 3.705 1_554 S
C1457 C215 0.606 . S
C1461 C495 0.624 . S
C1475 C50 2.948 . S
C1479 C615 2.885 . S
C1493 C530 1.003 . S
C1497 C295 0.972 . S
