# Generated by pormake.
# Topology wkj, (6)-cn, num edge types: 1
# Building blocks:
#     Node 0, Type 0, BuildingBlock: CUWYAW_clean_sbu_0, # of connection points: 6
#     Node 1, Type 0, BuildingBlock: CUWYAW_clean_sbu_0, # of connection points: 6
#     Node 2, Type 0, BuildingBlock: CUWYAW_clean_sbu_0, # of connection points: 6
#     Node 3, Type 0, BuildingBlock: CUWYAW_clean_sbu_0, # of connection points: 6
#     Node 4, Type 0, BuildingBlock: CUWYAW_clean_sbu_0, # of connection points: 6
#     Node 5, Type 0, BuildingBlock: CUWYAW_clean_sbu_0, # of connection points: 6
#     Node 6, Type 0, BuildingBlock: CUWYAW_clean_sbu_0, # of connection points: 6
#     Node 7, Type 0, BuildingBlock: CUWYAW_clean_sbu_0, # of connection points: 6
#     Node 8, Type 0, BuildingBlock: CUWYAW_clean_sbu_0, # of connection points: 6
#     Node 9, Type 0, BuildingBlock: CUWYAW_clean_sbu_0, # of connection points: 6
#     Node 10, Type 0, BuildingBlock: CUWYAW_clean_sbu_0, # of connection points: 6
#     Node 11, Type 0, BuildingBlock: CUWYAW_clean_sbu_0, # of connection points: 6
#     Edge 12, Type (0, 0), BuildingBlock: AJUNOK_clean_linker_0, # of connection points: 2
#     Edge 13, Type (0, 0), BuildingBlock: AJUNOK_clean_linker_0, # of connection points: 2
#     Edge 14, Type (0, 0), BuildingBlock: AJUNOK_clean_linker_0, # of connection points: 2
#     Edge 15, Type (0, 0), BuildingBlock: AJUNOK_clean_linker_0, # of connection points: 2
#     Edge 16, Type (0, 0), BuildingBlock: AJUNOK_clean_linker_0, # of connection points: 2
#     Edge 17, Type (0, 0), BuildingBlock: AJUNOK_clean_linker_0, # of connection points: 2
#     Edge 18, Type (0, 0), BuildingBlock: AJUNOK_clean_linker_0, # of connection points: 2
#     Edge 19, Type (0, 0), BuildingBlock: AJUNOK_clean_linker_0, # of connection points: 2
#     Edge 20, Type (0, 0), BuildingBlock: AJUNOK_clean_linker_0, # of connection points: 2
#     Edge 21, Type (0, 0), BuildingBlock: AJUNOK_clean_linker_0, # of connection points: 2
#     Edge 22, Type (0, 0), BuildingBlock: AJUNOK_clean_linker_0, # of connection points: 2
#     Edge 23, Type (0, 0), BuildingBlock: AJUNOK_clean_linker_0, # of connection points: 2
#     Edge 24, Type (0, 0), BuildingBlock: AJUNOK_clean_linker_0, # of connection points: 2
#     Edge 25, Type (0, 0), BuildingBlock: AJUNOK_clean_linker_0, # of connection points: 2
#     Edge 26, Type (0, 0), BuildingBlock: AJUNOK_clean_linker_0, # of connection points: 2
#     Edge 27, Type (0, 0), BuildingBlock: AJUNOK_clean_linker_0, # of connection points: 2
#     Edge 28, Type (0, 0), BuildingBlock: AJUNOK_clean_linker_0, # of connection points: 2
#     Edge 29, Type (0, 0), BuildingBlock: AJUNOK_clean_linker_0, # of connection points: 2
#     Edge 30, Type (0, 0), BuildingBlock: AJUNOK_clean_linker_0, # of connection points: 2
#     Edge 31, Type (0, 0), BuildingBlock: AJUNOK_clean_linker_0, # of connection points: 2
#     Edge 32, Type (0, 0), BuildingBlock: AJUNOK_clean_linker_0, # of connection points: 2
#     Edge 33, Type (0, 0), BuildingBlock: AJUNOK_clean_linker_0, # of connection points: 2
#     Edge 34, Type (0, 0), BuildingBlock: AJUNOK_clean_linker_0, # of connection points: 2
#     Edge 35, Type (0, 0), BuildingBlock: AJUNOK_clean_linker_0, # of connection points: 2
#     Edge 36, Type (0, 0), BuildingBlock: AJUNOK_clean_linker_0, # of connection points: 2
#     Edge 37, Type (0, 0), BuildingBlock: AJUNOK_clean_linker_0, # of connection points: 2
#     Edge 38, Type (0, 0), BuildingBlock: AJUNOK_clean_linker_0, # of connection points: 2
#     Edge 39, Type (0, 0), BuildingBlock: AJUNOK_clean_linker_0, # of connection points: 2
#     Edge 40, Type (0, 0), BuildingBlock: AJUNOK_clean_linker_0, # of connection points: 2
#     Edge 41, Type (0, 0), BuildingBlock: AJUNOK_clean_linker_0, # of connection points: 2
#     Edge 42, Type (0, 0), BuildingBlock: AJUNOK_clean_linker_0, # of connection points: 2
#     Edge 43, Type (0, 0), BuildingBlock: AJUNOK_clean_linker_0, # of connection points: 2
#     Edge 44, Type (0, 0), BuildingBlock: AJUNOK_clean_linker_0, # of connection points: 2
#     Edge 45, Type (0, 0), BuildingBlock: AJUNOK_clean_linker_0, # of connection points: 2
#     Edge 46, Type (0, 0), BuildingBlock: AJUNOK_clean_linker_0, # of connection points: 2
#     Edge 47, Type (0, 0), BuildingBlock: AJUNOK_clean_linker_0, # of connection points: 2
# Relax obj value: 1.141
# Max RMSD: 0.183
# Mean RMSD: 0.183
data_MOF--net-wkj--node1-CUWYAW_clean_sbu_0--edge1-AJUNOK_clean_linker_0
_symmetry_space_group_name_H-M    P1
_symmetry_Int_Tables_number       1
_symmetry_cell_setting            triclinic
loop_
_symmetry_equiv_pos_as_xyz
'x, y, z'
_cell_length_a     38.249945
_cell_length_b     38.578331
_cell_length_c     20.856871
_cell_angle_alpha  90.404046
_cell_angle_beta   89.002295
_cell_angle_gamma 120.32993
loop_
_atom_site_label
_atom_site_type_symbol
_atom_site_fract_x
_atom_site_fract_y
_atom_site_fract_z
_atom_type_partial_charge
C0 C 0.54529 0.17374 0.35378 0.0
Eu1 Eu 0.50165 0.1207 0.43817 0.0
C2 C 0.52696 0.18263 0.29968 0.0
C3 C 0.49287 0.14116 0.24502 0.0
C4 C 0.46304 0.14823 1.18373 0.0
C5 C 0.46622 0.20121 1.18048 0.0
C6 C 0.50555 0.24523 1.2353 0.0
C7 C 0.53334 0.23328 0.2938 0.0
C8 C 0.49726 0.05673 0.4872 0.0
C9 C 0.43005 0.03894 0.35461 0.0
C10 C 0.35628 0.01988 0.56244 0.0
Eu11 Eu 0.42232 0.06808 0.49912 0.0
C12 C 0.31724 0.01521 0.58201 0.0
C13 C 0.28584 -0.02325 0.59785 0.0
C14 C 0.25086 0.97163 0.62805 0.0
C15 C 0.24675 0.00507 0.64334 0.0
C16 C 0.27617 0.04308 0.61966 0.0
C17 C 0.31153 0.04822 0.5896 0.0
C18 C 0.42958 0.13835 0.44906 0.0
C19 C 0.50401 0.11107 0.59708 0.0
O20 O 0.53757 0.18376 0.41001 0.0
O21 O 0.54128 0.13803 0.35356 0.0
O22 O 0.53228 0.09004 0.48224 0.0
O23 O 0.46963 0.0586 0.45887 0.0
O24 O 0.46246 0.07643 0.35258 0.0
O25 O 0.41152 0.02643 0.41122 0.0
O26 O 0.3887 0.04861 0.58961 0.0
O27 O 0.36136 0.01611 0.50134 0.0
O28 O 0.39747 0.10323 0.44731 0.0
O29 O 0.45603 0.13485 0.47917 0.0
O30 O 0.46456 0.08427 0.58902 0.0
O31 O 0.52555 0.13316 0.54556 0.0
H32 H 0.48966 0.11184 0.24966 0.0
H33 H 0.44136 0.12331 1.15543 0.0
H34 H 0.50697 0.27395 1.23677 0.0
H35 H 0.55273 0.25616 0.32743 0.0
H36 H 0.28955 0.95089 0.59109 0.0
H37 H 0.22912 0.94184 0.6454 0.0
H38 H 0.27346 0.06926 0.62921 0.0
H39 H 0.33528 0.07809 0.57586 0.0
C40 C 0.34112 0.55671 0.69944 0.0
Eu41 Eu 0.35348 0.51775 0.78632 0.0
C42 C 0.31628 0.53677 0.64295 0.0
C43 C 0.33548 0.51492 0.58167 0.0
C44 C 0.30579 0.48813 0.51135 0.0
C45 C 0.25057 0.48053 0.50458 0.0
C46 C 0.23267 0.50667 0.56847 0.0
C47 C 0.26635 0.53288 0.63581 0.0
C48 C 0.41672 0.52103 0.83715 0.0
C49 C 0.36602 0.44787 0.70442 0.0
C50 C 0.31353 0.37953 0.91696 0.0
Eu51 Eu 0.33069 0.44289 0.84971 0.0
C52 C 0.27797 0.34227 0.94091 0.0
C53 C 0.25671 0.30829 0.90152 0.0
C54 C 0.22735 0.27143 0.92803 0.0
C55 C 0.21911 0.26793 0.99436 0.0
C56 C 0.23857 0.30286 1.03239 0.0
C57 C 0.26761 0.33939 1.00606 0.0
C58 C 0.26446 0.44597 0.80242 0.0
C59 C 0.36609 0.52472 0.94496 0.0
O60 O 0.32153 0.54782 0.75426 0.0
O61 O 0.37531 0.55684 0.70232 0.0
O62 O 0.41495 0.55365 0.82857 0.0
O63 O 0.38844 0.4905 0.81024 0.0
O64 O 0.35788 0.47785 0.7014 0.0
O65 O 0.36264 0.43191 0.76203 0.0
O66 O 0.32013 0.41335 0.94252 0.0
O67 O 0.3211 0.38242 0.85534 0.0
O68 O 0.26953 0.41536 0.79904 0.0
O69 O 0.29455 0.47344 0.83115 0.0
O70 O 0.35414 0.48581 0.93866 0.0
O71 O 0.36507 0.54453 0.89239 0.0
H72 H 0.36454 0.51711 0.58801 0.0
H73 H 0.31634 0.47349 0.47848 0.0
H74 H 0.20214 0.50159 0.56851 0.0
H75 H 0.25655 0.54625 0.67233 0.0
H76 H 0.26393 0.30965 0.85083 0.0
H77 H 0.21265 0.24539 0.89722 0.0
H78 H 0.23391 0.30163 1.08388 0.0
H79 H 0.28357 0.36492 1.03765 0.0
C80 C 0.73718 0.31322 1.07299 0.0
Eu81 Eu 0.80779 0.34263 1.12731 0.0
C82 C 0.72414 0.30871 1.00632 0.0
C83 C 0.75711 0.32627 0.96395 0.0
C84 C 0.76918 0.36492 0.94352 0.0
C85 C 0.7427 0.38041 0.95212 0.0
C86 C 0.70199 0.35295 0.96868 0.0
C87 C 0.69242 0.31609 0.99545 0.0
C88 C 0.86018 0.41076 1.18198 0.0
C89 C 0.89311 0.37582 1.03019 0.0
C90 C 0.93068 0.32836 1.22846 0.0
Eu91 Eu 0.875 0.33749 1.17423 0.0
C92 C 0.93198 0.29516 0.26116 0.0
C93 C 0.94396 0.27079 1.22805 0.0
C94 C 0.94758 0.2411 0.2606 0.0
C95 C 0.93953 0.23551 0.32687 0.0
C96 C 0.92612 0.25905 0.35902 0.0
C97 C 0.92245 0.2884 0.32673 0.0
C98 C 0.81161 0.26666 1.12839 0.0
C99 C 0.81762 0.3507 0.28506 0.0
O100 O 0.75268 0.29147 1.08996 0.0
O101 O 0.75916 0.35054 1.09227 0.0
O102 O 0.82208 0.39979 1.17704 0.0
O103 O 0.87028 0.38988 1.14735 0.0
O104 O 0.85243 0.36147 1.03298 0.0
O105 O 0.9102 0.37517 1.08485 0.0
O106 O 0.9108 0.34334 0.25765 0.0
O107 O 0.92434 0.32465 1.16693 0.0
O108 O 0.84869 0.28164 1.1097 0.0
O109 O 0.80977 0.29095 1.16682 0.0
O110 O 0.85026 0.34741 0.27274 0.0
O111 O 0.79302 0.34528 1.23639 0.0
H112 H 0.77982 0.31736 0.96505 0.0
H113 H 0.8005 0.38269 0.92955 0.0
H114 H 0.6799 0.36262 0.97182 0.0
H115 H 0.66339 0.29861 1.01929 0.0
H116 H 0.95146 0.27529 1.17733 0.0
H117 H 0.95773 0.22341 1.23433 0.0
H118 H 0.92057 0.25648 0.41035 0.0
H119 H 0.91332 0.30665 0.35388 0.0
C120 C 0.38304 0.81529 0.39201 0.0
Eu121 Eu 0.44327 0.86722 0.45928 0.0
C122 C 0.36351 0.77143 0.38442 0.0
C123 C 0.3253 0.7461 0.4124 0.0
C124 C 0.30392 0.70544 0.39665 0.0
C125 C 0.32017 0.6899 0.35161 0.0
C126 C 0.36025 0.71409 0.32982 0.0
C127 C 0.38174 0.75462 0.34591 0.0
C128 C 0.45382 0.92622 0.53465 0.0
C129 C 0.51015 0.94651 0.36729 0.0
C130 C 0.5939 0.93727 0.54779 0.0
Eu131 Eu 0.52188 0.9071 0.49886 0.0
C132 C 0.61569 0.92081 0.58197 0.0
C133 C 0.65515 0.9311 0.563 0.0
C134 C 0.67809 0.92057 0.60137 0.0
C135 C 0.66219 0.90041 0.66017 0.0
C136 C 0.62116 0.88709 0.67529 0.0
C137 C 0.5982 0.8968 0.63645 0.0
C138 C 0.50079 0.83616 0.43541 0.0
C139 C 0.44891 0.86065 0.61421 0.0
O140 O 0.37803 0.82866 0.44707 0.0
O141 O 0.41999 0.83641 0.36927 0.0
O142 O 0.41827 0.89534 0.5245 0.0
O143 O 0.48004 0.9298 0.49289 0.0
O144 O 0.47368 0.91297 0.37141 0.0
O145 O 0.53412 0.95408 0.4175 0.0
O146 O 0.56288 0.93539 0.57778 0.0
O147 O 0.5867 0.92805 0.48752 0.0
O148 O 0.52988 0.87099 0.41843 0.0
O149 O 0.4816 0.84072 0.48133 0.0
O150 O 0.4883 0.88621 0.60092 0.0
O151 O 0.42491 0.84347 0.56418 0.0
H152 H 0.31087 0.75815 0.44311 0.0
H153 H 0.273 0.68714 0.4141 0.0
H154 H 0.3734 0.70294 0.29474 0.0
H155 H 0.41155 0.77316 0.32456 0.0
H156 H 0.66892 0.94897 0.52023 0.0
H157 H 0.70915 0.93074 0.58722 0.0
H158 H 0.60723 0.87231 0.72015 0.0
H159 H 0.56749 0.88762 0.65166 0.0
C160 C 0.51281 0.38817 0.72529 0.0
Eu161 Eu 0.54287 0.45488 0.78919 0.0
C162 C 0.52833 0.37738 0.66925 0.0
C163 C 0.50942 0.33747 0.64929 0.0
C164 C 0.52917 0.32542 0.60573 0.0
C165 C 0.56817 0.35319 0.5816 0.0
C166 C 0.58638 0.39352 0.60082 0.0
C167 C 0.56611 0.40567 0.64314 0.0
C168 C 0.50562 0.47985 0.86994 0.0
C169 C 0.54455 0.52796 0.69926 0.0
C170 C 0.63844 0.60302 0.88529 0.0
Eu171 Eu 0.59519 0.53307 0.83194 0.0
C172 C 0.67889 0.63846 0.8914 0.0
C173 C 0.68103 0.67507 0.90415 0.0
C174 C 0.71411 0.70507 0.93652 0.0
C175 C 0.74496 0.6982 0.95752 0.0
C176 C 0.74723 0.66587 0.9301 0.0
C177 C 0.71354 0.63524 0.89884 0.0
C178 C 0.63894 0.50761 0.7573 0.0
C179 C 0.55522 0.45804 0.94569 0.0
O180 O 0.53522 0.39574 0.77576 0.0
O181 O 0.50195 0.41483 0.71619 0.0
O182 O 0.49408 0.44218 0.8628 0.0
O183 O 0.53022 0.50082 0.82651 0.0
O184 O 0.536 0.48977 0.7011 0.0
O185 O 0.56537 0.55091 0.74893 0.0
O186 O 0.6319 0.56943 0.911 0.0
O187 O 0.61943 0.59793 0.83175 0.0
O188 O 0.64138 0.54208 0.7548 0.0
O189 O 0.61139 0.48638 0.79846 0.0
O190 O 0.57672 0.49785 0.93338 0.0
O191 O 0.54129 0.43384 0.89482 0.0
H192 H 0.48053 0.31526 0.67002 0.0
H193 H 0.51497 0.2939 0.59341 0.0
H194 H 0.61688 0.41535 0.58577 0.0
H195 H 0.5812 0.4366 0.6592 0.0
H196 H 0.65496 0.67852 0.89683 0.0
H197 H 0.71169 0.73027 0.95402 0.0
H198 H 0.772 0.6611 0.94148 0.0
H199 H 0.713 0.60759 0.88689 0.0
C200 C 0.13534 0.53619 1.04802 0.0
Eu201 Eu 0.08509 0.55424 1.1032 0.0
C202 C 0.18006 0.55547 1.04796 0.0
C203 C 0.20383 0.59264 1.01774 0.0
C204 C 0.24544 0.60945 1.01111 0.0
C205 C 0.26459 0.58818 1.03053 0.0
C206 C 0.2414 0.55301 1.06747 0.0
C207 C 0.19945 0.5367 1.07579 0.0
C208 C 0.0105 0.50952 1.15093 0.0
C209 C 0.01605 0.55696 1.00163 0.0
C210 C 0.01319 0.63565 1.19548 0.0
Eu211 Eu 0.04852 0.59923 1.14394 0.0
C212 C 0.02237 0.67142 1.23386 0.0
C213 C 0.0177 0.70217 1.20709 0.0
C214 C 0.01831 0.73214 0.24611 0.0
C215 C 0.02266 0.73125 0.31277 0.0
C216 C 0.03141 0.70262 0.33794 0.0
C217 C 0.0313 0.67315 0.299 0.0
C218 C 0.12428 0.64831 1.08877 0.0
C219 C 0.08027 0.55949 0.26019 0.0
O220 O 0.11609 0.51949 1.10148 0.0
O221 O 0.12058 0.55608 1.0197 0.0
O222 O 0.03755 0.49914 1.15872 0.0
O223 O 0.02281 0.53833 1.11391 0.0
O224 O 0.04523 0.54719 1.00899 0.0
O225 O 0.00947 0.57454 1.05198 0.0
O226 O 0.0152 0.60651 1.22347 0.0
O227 O 0.02713 0.64179 1.13677 0.0
O228 O 0.09175 0.64922 1.07837 0.0
O229 O 0.11549 0.62023 1.12913 0.0
O230 O 0.05705 0.5752 0.24502 0.0
O231 O 0.10027 0.55414 1.21167 0.0
H232 H 0.19 0.60765 0.99492 0.0
H233 H 0.26115 0.63691 0.98355 0.0
H234 H 0.25498 0.53624 1.08507 0.0
H235 H 0.18193 0.50833 1.10074 0.0
H236 H 0.01129 0.70175 1.15661 0.0
H237 H 0.01275 0.75433 1.22464 0.0
H238 H 0.03475 0.7004 0.38894 0.0
H239 H 0.03553 0.6502 0.32103 0.0
C240 C 0.76778 0.40077 0.79562 0.0
Eu241 Eu 0.81332 0.43569 0.69873 0.0
C242 C 0.76977 0.42483 0.85216 0.0
C243 C 0.81682 0.44977 0.90005 0.0
C244 C 0.82174 0.48067 0.97042 0.0
C245 C 0.77578 0.4891 0.99188 0.0
C246 C 0.72534 0.45987 0.94202 0.0
C247 C 0.72534 0.42981 0.87311 0.0
C248 C 0.87424 0.43956 0.63618 0.0
C249 C 0.89735 0.50721 0.77481 0.0
C250 C 0.9049 0.57628 0.56408 0.0
Eu251 Eu 0.86091 0.51262 0.6336 0.0
C252 C 0.90794 0.61483 0.54739 0.0
C253 C 0.9282 0.64876 0.58711 0.0
C254 C 0.93939 0.68701 0.56389 0.0
C255 C 0.93123 0.69203 0.50017 0.0
C256 C 0.90679 0.65726 0.46365 0.0
C257 C 0.89546 0.61927 0.48694 0.0
C258 C 0.78949 0.50361 0.68724 0.0
C259 C 0.81396 0.42779 0.54178 0.0
O260 O 0.75358 0.40811 0.74434 0.0
O261 O 0.79982 0.39773 0.78357 0.0
O262 O 0.84172 0.40452 0.64775 0.0
O263 O 0.87477 0.46811 0.66689 0.0
O264 O 0.86245 0.47233 0.77745 0.0
O265 O 0.90517 0.52843 0.72079 0.0
O266 O 0.87446 0.54335 0.5413 0.0
O267 O 0.91375 0.57212 0.6226 0.0
O268 O 0.82436 0.5363 0.68689 0.0
O269 O 0.79415 0.47722 0.65836 0.0
O270 O 0.84025 0.46754 0.54584 0.0
O271 O 0.79532 0.4073 0.59588 0.0
H272 H 0.84219 0.44606 0.887 0.0
H273 H 0.85035 0.49718 0.99465 0.0
H274 H 0.70052 0.46539 0.94967 0.0
H275 H 0.69881 0.41519 0.84352 0.0
H276 H 0.93791 0.64625 0.63446 0.0
H277 H 0.95762 0.71287 0.59373 0.0
H278 H 0.90002 0.65909 0.41408 0.0
H279 H 0.87974 0.59372 0.45531 0.0
C280 C 0.37146 0.78719 1.11445 0.0
Eu281 Eu 0.3676 0.84052 1.0425 0.0
C282 C 0.34405 0.74404 1.13161 0.0
C283 C 0.3087 0.73132 1.16994 0.0
C284 C 0.28035 0.68941 1.18336 0.0
C285 C 0.29303 0.66194 1.16004 0.0
C286 C 0.32938 0.67508 1.12609 0.0
C287 C 0.35414 0.71556 1.11091 0.0
C288 C 0.41792 0.91092 0.98897 0.0
C289 C 0.37071 0.91612 1.13316 0.0
C290 C 0.29399 0.91691 0.93508 0.0
Eu291 Eu 0.32612 0.87993 0.99162 0.0
C292 C 0.25577 0.91455 0.91656 0.0
C293 C 0.24109 0.93592 0.95181 0.0
C294 C 0.21424 0.94579 0.92394 0.0
C295 C 0.2029 0.93554 0.8598 0.0
C296 C 0.2123 0.90854 0.82903 0.0
C297 C 0.23872 0.89835 0.85701 0.0
C298 C 0.27313 0.80585 1.04544 0.0
C299 C 0.37388 0.84984 0.88444 0.0
O300 O 0.38609 0.79561 1.05574 0.0
O301 O 0.36097 0.81262 1.13568 0.0
O302 O 0.42831 0.88364 0.99539 0.0
O303 O 0.38701 0.90233 1.02147 0.0
O304 O 0.37808 0.88545 1.12986 0.0
O305 O 0.35298 0.92136 1.08228 0.0
O306 O 0.30565 0.89464 0.90452 0.0
O307 O 0.30281 0.92101 0.99581 0.0
O308 O 0.27136 0.83812 1.05232 0.0
O309 O 0.30341 0.81393 1.00949 0.0
O310 O 0.3553 0.87106 0.8957 0.0
O311 O 0.37857 0.83072 0.93421 0.0
H312 H 0.30313 0.75424 1.18921 0.0
H313 H 0.2149 0.6539 0.24719 0.0
H314 H 0.33876 0.65387 1.11207 0.0
H315 H 0.38189 0.72482 1.08373 0.0
H316 H 0.25329 0.94835 0.99836 0.0
H317 H 0.20652 0.96558 0.94961 0.0
H318 H 0.20388 0.89957 0.77976 0.0
H319 H 0.24894 0.88131 0.82895 0.0
C320 C 0.55759 0.39297 0.44352 0.0
Eu321 Eu 0.49547 0.38317 0.37713 0.0
C322 C 0.57505 0.36805 0.46039 0.0
C323 C 0.54088 0.31323 0.467 0.0
C324 C 0.55977 0.279 0.48579 0.0
C325 C 0.61918 0.30321 0.49487 0.0
C326 C 0.65399 0.36259 0.49386 0.0
C327 C 0.62986 0.39197 0.47462 0.0
C328 C 0.47836 0.43566 0.32587 0.0
C329 C 0.42511 0.38894 0.4728 0.0
C330 C 0.34537 0.31433 0.27342 0.0
Eu331 Eu 0.41484 0.34557 0.33043 0.0
C332 C 0.31425 0.27535 0.24721 0.0
C333 C 0.27579 0.25396 0.27668 0.0
C334 C 0.24341 0.22257 0.24421 0.0
C335 C 0.24866 0.21307 1.18069 0.0
C336 C 0.28862 0.2312 1.15543 0.0
C337 C 0.32089 0.26184 1.18827 0.0
C338 C 0.43008 0.289 0.38326 0.0
C339 C 0.49122 0.38784 1.21901 0.0
O340 O 0.56018 0.40309 0.38337 0.0
O341 O 0.52176 0.38138 0.46798 0.0
O342 O 0.5154 0.44294 0.3285 0.0
O343 O 0.45521 0.40628 0.35994 0.0
O344 O 0.46239 0.39341 0.4683 0.0
O345 O 0.40201 0.37411 0.42106 0.0
O346 O 0.38032 0.33313 0.24319 0.0
O347 O 0.34891 0.31743 0.33556 0.0
O348 O 0.398 0.29134 0.39142 0.0
O349 O 0.45482 0.31816 0.34734 0.0
O350 O 0.45145 0.37067 1.23235 0.0
O351 O 0.51547 0.39228 0.26791 0.0
H352 H 0.5089 0.30209 0.46552 0.0
H353 H 0.53973 0.2469 0.48831 0.0
H354 H 0.68657 0.37697 0.49756 0.0
H355 H 0.64854 0.42425 0.47037 0.0
H356 H 0.27002 0.2633 0.32285 0.0
H357 H 0.21358 0.20858 0.26645 0.0
H358 H 0.29502 0.22553 1.10708 0.0
H359 H 0.35035 0.27711 1.16467 0.0
C360 C 0.14547 0.56828 0.74857 0.0
Eu361 Eu 0.08782 0.5047 0.69373 0.0
C362 C 0.18295 0.57476 0.77897 0.0
C363 C 0.22082 0.59841 0.7481 0.0
C364 C 0.25601 0.60145 0.77326 0.0
C365 C 0.25382 0.58071 0.82954 0.0
C366 C 0.21583 0.55717 0.86021 0.0
C367 C 0.18094 0.55429 0.83542 0.0
C368 C 0.02041 0.48888 0.636 0.0
C369 C 0.00942 0.43698 0.79035 0.0
C370 C 0.00945 0.35242 0.59947 0.0
Eu371 Eu 0.04393 0.42331 0.65187 0.0
C372 C 0.01636 0.31863 0.58657 0.0
C373 C -0.00901 0.28099 0.61491 0.0
C374 C -0.01177 0.24633 0.58805 0.0
C375 C 0.00902 0.24866 0.53017 0.0
C376 C 0.03983 0.28722 0.50983 0.0
C377 C 0.04333 0.32171 0.53763 0.0
C378 C 0.11376 0.44041 0.71649 0.0
C379 C 0.07992 0.49528 0.53494 0.0
O380 O 0.14404 0.56213 0.68699 0.0
O381 O 0.11093 0.544 0.77735 0.0
O382 O 0.05101 0.5253 0.63871 0.0
O383 O 0.02426 0.46581 0.67308 0.0
O384 O 0.0451 0.47223 0.78705 0.0
O385 O -0.00063 0.41407 0.73771 0.0
O386 O 0.03201 0.38581 0.56778 0.0
O387 O 0.00188 0.35845 0.65849 0.0
O388 O 0.07867 0.40894 0.72378 0.0
O389 O 0.11091 0.46253 0.67452 0.0
O390 O 0.05473 0.45661 0.55073 0.0
O391 O 0.10067 0.52004 0.58298 0.0
H392 H 0.22314 0.61425 0.70411 0.0
H393 H 0.28485 0.62019 0.74915 0.0
H394 H 0.21307 0.54169 0.90479 0.0
H395 H 0.15238 0.53563 0.86035 0.0
H396 H -0.0293 0.27788 0.65421 0.0
H397 H -0.03394 0.21755 0.60815 0.0
H398 H 0.05796 0.29171 0.4671 0.0
H399 H 0.06436 0.35047 0.51604 0.0
C400 C 0.62772 0.20199 1.0629 0.0
Eu401 Eu 0.59719 0.13075 1.01186 0.0
C402 C 0.63446 0.21501 1.12998 0.0
C403 C 0.61402 0.18317 1.17259 0.0
C404 C 0.57825 0.178 1.19919 0.0
C405 C 0.56982 0.20988 1.19669 0.0
C406 C 0.60239 0.24823 1.18007 0.0
C407 C 0.63485 0.25065 1.14464 0.0
C408 C 0.5277 0.06782 0.97811 0.0
C409 C 0.5713 0.05187 1.11963 0.0
C410 C 0.61018 0.0013 0.92009 0.0
Eu411 Eu 0.60391 0.05993 0.96987 0.0
C412 C 0.64252 -0.00829 0.90799 0.0
C413 C 0.64521 0.96308 0.94561 0.0
C414 C 0.67119 0.94894 0.92716 0.0
C415 C 0.69388 0.9622 0.86951 0.0
C416 C 0.69428 -0.00572 0.83648 0.0
C417 C 0.66895 0.00869 0.85535 0.0
C418 C 0.6748 0.12575 1.00916 0.0
C419 C 0.58009 0.10871 0.85727 0.0
O420 O 0.64958 0.1871 1.04169 0.0
O421 O 0.58942 0.17971 1.04707 0.0
O422 O 0.53337 0.10407 0.97192 0.0
O423 O 0.55567 0.06777 1.00806 0.0
O424 O 0.5824 0.09127 1.1109 0.0
O425 O 0.57243 0.03191 1.06779 0.0
O426 O 0.61151 0.0304 0.88619 0.0
O427 O 0.5993 0.00146 0.97975 0.0
O428 O 0.66344 0.08928 1.02479 0.0
O429 O 0.64838 0.12538 0.97343 0.0
O430 O 0.58094 0.07562 0.87471 0.0
O431 O 0.59095 0.13802 0.90098 0.0
H432 H 0.61762 0.15719 1.16857 0.0
H433 H 0.55701 0.1479 1.21425 0.0
H434 H 0.59883 0.27435 1.18235 0.0
H435 H 0.65495 0.27815 1.11967 0.0
H436 H 0.62578 0.95013 0.9875 0.0
H437 H 0.67141 0.92588 0.95601 0.0
H438 H 0.71117 0.00612 0.79209 0.0
H439 H 0.66834 0.03138 0.82589 0.0
C440 C 0.39074 0.63974 0.41165 0.0
Eu441 Eu 0.43636 0.6139 0.36171 0.0
C442 C 0.38405 0.64916 0.47707 0.0
C443 C 0.39999 0.63555 0.52341 0.0
C444 C 0.37253 0.60205 0.55827 0.0
C445 C 0.33033 0.58747 0.55264 0.0
C446 C 0.31991 0.61606 0.53291 0.0
C447 C 0.34669 0.64624 0.49075 0.0
C448 C 0.43583 0.54923 0.32097 0.0
C449 C 0.49625 0.59469 0.46394 0.0
C450 C 0.58456 0.64209 0.26096 0.0
Eu451 Eu 0.51747 0.6301 0.31466 0.0
C452 C 0.62587 0.67475 0.24427 0.0
C453 C 0.65921 0.67823 0.27734 0.0
C454 C 0.69834 0.70076 0.25126 0.0
C455 C 0.70435 0.719 1.19085 0.0
C456 C 0.67183 0.72039 1.16298 0.0
C457 C 0.63288 0.69831 1.18932 0.0
C458 C 0.51329 0.69642 0.35312 0.0
C459 C 0.44253 0.59993 1.20553 0.0
O460 O 0.42703 0.66324 0.38857 0.0
O461 O 0.37797 0.60153 0.40052 0.0
O462 O 0.40271 0.55136 0.31935 0.0
O463 O 0.46372 0.57768 0.35139 0.0
O464 O 0.46373 0.60021 0.4581 0.0
O465 O 0.51929 0.60137 0.4114 0.0
O466 O 0.55437 0.63979 1.22886 0.0
O467 O 0.57579 0.63319 0.3216 0.0
O468 O 0.5425 0.69053 0.36779 0.0
O469 O 0.48875 0.66755 0.31921 0.0
O470 O 0.47856 0.6042 1.22045 0.0
O471 O 0.42178 0.60678 0.25154 0.0
H472 H 0.43086 0.64166 0.51874 0.0
H473 H 0.38527 0.58602 0.58049 0.0
H474 H 0.28847 0.60841 0.53361 0.0
H475 H 0.3349 0.65993 0.45947 0.0
H476 H 0.65473 0.66084 0.32043 0.0
H477 H 0.72303 0.69998 0.27454 0.0
H478 H 0.67535 0.73432 1.11657 0.0
H479 H 0.60795 0.69692 1.16326 0.0
C480 C 0.46518 0.2124 0.41448 0.0
C481 C 0.42988 0.17728 0.43557 0.0
C482 C 0.46433 0.24647 0.39116 0.0
C483 C 0.42975 0.25019 0.39818 0.0
H484 H 0.49316 0.21232 0.41079 0.0
H485 H 0.49148 0.27069 0.36925 0.0
S486 S 0.32875 0.16782 0.4547 0.0
N487 N 0.35816 0.14809 0.45905 0.0
N488 N 0.35813 0.2142 0.42848 0.0
C489 C 0.39429 0.21571 0.42181 0.0
C490 C 0.3942 0.17942 0.43868 0.0
C491 C 0.22413 0.48005 0.77001 0.0
C492 C 0.22524 0.44505 0.78607 0.0
C493 C 0.18883 0.47864 0.74614 0.0
C494 C 0.15209 0.44216 0.73952 0.0
H495 H 0.25096 0.50892 0.77389 0.0
H496 H 0.19031 0.50642 0.73304 0.0
S497 S 0.1368 0.34139 0.77899 0.0
N498 N 0.18485 0.37252 0.79533 0.0
N499 N 0.11888 0.36977 0.75378 0.0
C500 C 0.15223 0.40696 0.75783 0.0
C501 C 0.18838 0.40841 0.78051 0.0
C502 C 0.77388 0.2257 1.03165 0.0
C503 C 0.77614 0.23091 1.09882 0.0
C504 C 0.74055 0.19235 1.00274 0.0
C505 C 0.70895 0.16202 1.03995 0.0
H506 H 0.79777 0.24795 1.00108 0.0
H507 H 0.73997 0.18985 0.95097 0.0
S508 S 0.69983 0.16159 1.21741 0.0
N509 N 0.74266 0.2036 1.2012 0.0
N510 N 0.68188 0.13987 1.14757 0.0
C511 C 0.71097 0.16684 1.10706 0.0
C512 C 0.74399 0.20153 1.13625 0.0
C513 C 0.50647 0.7571 0.33052 0.0
C514 C 0.50842 0.73094 0.37522 0.0
C515 C 0.50307 0.79042 0.35047 0.0
C516 C 0.49955 0.79802 0.41586 0.0
H517 H 0.50879 0.75246 0.27971 0.0
H518 H 0.50337 0.81058 0.31429 0.0
S519 S 0.49944 0.73659 0.55195 0.0
N520 N 0.50524 0.71431 0.48799 0.0
N521 N 0.49626 0.77508 0.52503 0.0
C522 C 0.49962 0.77102 0.46086 0.0
C523 C 0.50473 0.73805 0.44069 0.0
C524 C 0.71446 0.53954 0.73322 0.0
C525 C 0.67612 0.50425 0.74027 0.0
C526 C 0.74997 0.53862 0.71595 0.0
C527 C 0.74958 0.50244 0.70279 0.0
H528 H 0.7174 0.5686 0.74195 0.0
H529 H 0.77822 0.56695 0.71275 0.0
S530 S 0.657 0.4014 0.71018 0.0
N531 N 0.64048 0.43172 0.73317 0.0
N532 N 0.7057 0.43028 0.69329 0.0
C533 C 0.71116 0.46698 0.70726 0.0
C534 C 0.67511 0.46779 0.72797 0.0
C535 C 0.23286 0.72888 1.03463 0.0
C536 C 0.23681 0.7648 1.05979 0.0
C537 C 0.19714 0.69101 1.04532 0.0
C538 C 0.16416 0.68718 1.08265 0.0
H539 H 0.25711 0.73004 1.00538 0.0
H540 H 0.19507 0.6648 1.0232 0.0
S541 S 0.15887 0.7714 1.16009 0.0
N542 N 0.20383 0.79324 1.12435 0.0
N543 N 0.13813 0.72309 1.14415 0.0
C544 C 0.16792 0.72284 1.10793 0.0
C545 C 0.20384 0.76114 1.09703 0.0
C546 C 0.46819 0.18192 0.27631 0.0
C547 C 0.52628 0.20316 1.19468 0.0
C548 C 0.43482 0.18704 1.23687 0.0
C549 C 0.43936 0.20206 1.16368 0.0
H550 H 0.46072 0.16804 0.32351 0.0
H551 H 0.40657 0.17895 0.26219 0.0
S552 S 0.5218 0.23431 1.022 0.0
N553 N 0.54878 0.2262 1.07507 0.0
N554 N 0.47826 0.22523 1.05631 0.0
C555 C 0.47969 0.21396 1.11765 0.0
C556 C 0.52306 0.21541 1.12601 0.0
C557 C 0.28795 0.54367 0.46824 0.0
C558 C 0.29956 0.54237 0.53825 0.0
C559 C 0.25234 0.49791 0.44952 0.0
C560 C 0.22714 0.45196 0.48268 0.0
H561 H 0.29946 0.56884 0.43544 0.0
H562 H 0.24283 0.498 0.39956 0.0
S563 S 0.23886 0.41248 0.64773 0.0
N564 N 0.27142 0.46135 0.65821 0.0
N565 N 0.21708 0.40517 0.57667 0.0
C566 C 0.23511 0.443 0.55315 0.0
C567 C 0.267 0.4762 0.60161 0.0
C568 C 0.75183 0.42772 1.0342 0.0
C569 C 0.75836 0.42556 0.96194 0.0
C570 C 0.76509 0.47459 1.05035 0.0
C571 C 0.78349 0.51877 1.01202 0.0
H572 H 0.73991 0.40376 1.06932 0.0
H573 H 0.76035 0.47718 1.10245 0.0
S574 S 0.81506 0.54807 0.83299 0.0
N575 N 0.79824 0.49895 0.82777 0.0
N576 N 0.80958 0.55979 0.90801 0.0
C577 C 0.79316 0.52368 0.93749 0.0
C578 C 0.78638 0.48777 0.88994 0.0
C579 C 0.28946 0.60884 1.22708 0.0
C580 C 0.26858 0.62036 1.18501 0.0
C581 C 0.30323 0.62774 0.28752 0.0
C582 C 0.29255 0.65532 0.31242 0.0
H583 H 0.30176 0.59096 1.20805 0.0
H584 H 0.32583 0.62384 0.31173 0.0
S585 S 0.2248 0.70071 1.19581 0.0
N586 N 0.21638 0.64351 1.16167 0.0
N587 N 0.25865 0.69977 0.27809 0.0
C588 C 0.26226 0.65778 0.2814 0.0
C589 C 0.23775 0.6242 1.21091 0.0
C590 C 0.62361 0.30289 0.42337 0.0
C591 C 0.63323 0.28447 0.4865 0.0
C592 C 0.60311 0.33145 0.42194 0.0
C593 C 0.59169 0.33765 0.54205 0.0
H594 H 0.63122 0.29519 0.37676 0.0
H595 H 0.59634 0.34082 0.37653 0.0
S596 S 0.61624 0.28548 0.67482 0.0
N597 N 0.63146 0.27344 0.60723 0.0
N598 N 0.59787 0.31507 0.65724 0.0
C599 C 0.60395 0.31753 0.59295 0.0
C600 C 0.62323 0.29239 0.56 0.0
C601 C 0.29682 0.56009 0.96404 0.0
C602 C 0.30209 0.595 0.99493 0.0
C603 C 0.2886 0.55581 0.89826 0.0
C604 C 0.29066 0.58814 0.86377 0.0
H605 H 0.28789 0.53301 0.99128 0.0
H606 H 0.27292 0.52576 0.87891 0.0
S607 S 0.34688 0.69411 0.91604 0.0
N608 N 0.34048 0.6676 0.9816 0.0
N609 N 0.32663 0.66114 0.85735 0.0
C610 C 0.31489 0.62651 0.88991 0.0
C611 C 0.32241 0.62997 0.95694 0.0
C612 C 0.40216 0.94263 0.24785 0.0
C613 C 0.3866 0.94793 1.1894 0.0
C614 C 0.41609 0.97161 0.29943 0.0
C615 C 0.41682 0.00894 0.29637 0.0
H616 H 0.4032 0.91536 0.25452 0.0
H617 H 0.42671 0.96461 0.34252 0.0
S618 S 0.37952 0.03911 1.1559 0.0
N619 N 0.37289 -0.00503 1.13428 0.0
N620 N 0.39957 0.04831 1.22795 0.0
C621 C 0.40195 0.01487 1.23809 0.0
C622 C 0.38695 -0.01494 1.18619 0.0
C623 C 0.4319 0.41837 0.59049 0.0
C624 C 0.41021 0.40425 0.53212 0.0
C625 C 0.41775 0.43191 0.64466 0.0
C626 C 0.38131 0.43364 0.64458 0.0
H627 H 0.46021 0.41867 0.59496 0.0
H628 H 0.43612 0.44166 0.68721 0.0
S629 S 0.31085 0.39822 0.50708 0.0
N630 N 0.34815 0.39164 0.4814 0.0
N631 N 0.32335 0.41777 0.57957 0.0
C632 C 0.35952 0.41979 0.58669 0.0
C633 C 0.37333 0.40514 0.5322 0.0
C634 C -0.00773 0.43011 0.91599 0.0
C635 C -0.0208 0.42324 0.85111 0.0
C636 C -0.03515 0.41544 0.97112 0.0
C637 C 0.92147 0.39319 0.96738 0.0
H638 H 0.0245 0.44644 0.92474 0.0
H639 H -0.02169 0.42177 1.0181 0.0
S640 S 0.86942 0.36933 0.80996 0.0
N641 N 0.91783 0.39327 0.78852 0.0
N642 N 0.86791 0.36774 0.8892 0.0
C643 C 0.90796 0.38737 0.90276 0.0
C644 C 0.93594 0.40156 0.84644 0.0
C645 C 0.51233 0.96 1.24227 0.0
C646 C 0.52446 -0.02496 0.30559 0.0
C647 C 0.52701 -0.01533 1.18501 0.0
C648 C 0.55421 0.02722 1.18505 0.0
H649 H 0.49181 0.92809 1.23628 0.0
H650 H 0.51656 0.96974 1.13933 0.0
S651 S 0.59345 0.08438 0.33724 0.0
N652 N 0.56518 0.03759 0.36284 0.0
N653 N 0.5904 0.0829 0.2582 0.0
C654 C 0.56529 0.04306 0.24823 0.0
C655 C 0.55127 0.01765 0.30671 0.0
C656 C 0.49241 0.54122 0.63342 0.0
C657 C 0.53166 0.54539 0.64043 0.0
C658 C 0.48105 0.55727 0.57939 0.0
C659 C 0.50778 0.57872 0.52671 0.0
H660 H 0.46977 0.52522 0.67049 0.0
H661 H 0.45047 0.55207 0.5787 0.0
S662 S 0.61439 0.59881 0.51913 0.0
N663 N 0.59696 0.57377 0.58713 0.0
N664 N 0.57675 0.60244 0.48889 0.0
C665 C 0.547 0.58285 0.5337 0.0
C666 C 0.55847 0.56692 0.5887 0.0
C667 C -0.013 0.5214 0.88871 0.0
C668 C -0.01327 0.54472 0.94203 0.0
C669 C 0.95901 0.50977 0.83587 0.0
C670 C 0.92858 0.52078 0.83137 0.0
H671 H 0.0091 0.51176 0.88762 0.0
H672 H -0.03867 0.49174 0.79786 0.0
S673 S 0.91382 0.58228 0.95523 0.0
N674 N 0.95163 0.57823 0.98362 0.0
N675 N 0.90136 0.55732 0.88692 0.0
C676 C 0.9282 0.54415 0.88381 0.0
C677 C 0.9563 0.55575 0.93759 0.0
C678 C 0.44561 0.00173 0.55299 0.0
C679 C 0.48694 0.02704 0.53638 0.0
C680 C 0.43354 0.96654 0.5868 0.0
C681 C 0.46146 0.9536 0.58842 0.0
H682 H 0.42241 0.00717 0.53579 0.0
H683 H 0.40135 0.94524 0.59153 0.0
S684 S 0.57112 0.02135 0.60875 0.0
N685 N 0.55605 0.04749 0.56664 0.0
N686 N 0.53003 -0.02242 0.62473 0.0
C687 C 0.50193 -0.01655 0.59623 0.0
C688 C 0.51568 0.02071 0.5658 0.0
C689 C 0.4265 0.47941 0.9151 0.0
C690 C 0.44051 0.51731 0.88655 0.0
C691 C 0.454 0.47062 0.94221 0.0
C692 C 0.49446 0.49605 0.92514 0.0
H693 H 0.39579 0.45513 0.9095 0.0
H694 H 0.44331 0.43969 0.95545 0.0
S695 S 0.54351 0.60507 0.89846 0.0
N696 N 0.49534 0.58703 0.88109 0.0
N697 N 0.54708 0.56643 0.92373 0.0
C698 C 0.50768 0.53704 0.92087 0.0
C699 C 0.48013 0.54798 0.89775 0.0
C700 C 0.90281 0.481 1.17402 0.0
C701 C 0.88972 0.44743 1.21301 0.0
C702 C 0.94349 0.50313 1.15692 0.0
C703 C -0.02874 0.49301 1.18175 0.0
H704 H 0.88131 0.48496 1.14637 0.0
H705 H 0.952 0.52525 1.11946 0.0
S706 S 0.95367 0.42877 0.32268 0.0
N707 N 0.90843 0.42071 0.30331 0.0
N708 N -0.01433 0.46109 0.26915 0.0
C709 C 0.95964 0.46706 1.23388 0.0
C710 C 0.91824 0.44518 0.25162 0.0
C711 C -0.02668 0.5019 0.57803 0.0
C712 C -0.014 0.47504 0.59455 0.0
C713 C 0.93209 0.48744 0.57272 0.0
C714 C 0.90463 0.44691 0.58757 0.0
H715 H -0.00611 0.53406 0.57989 0.0
H716 H 0.92212 0.50912 0.57151 0.0
S717 S 0.92527 0.36385 0.59124 0.0
N718 N -0.02994 0.4053 0.59314 0.0
N719 N 0.892 0.37885 0.58546 0.0
C720 C 0.91745 0.41925 0.58273 0.0
C721 C 0.9592 0.43355 0.58737 0.0
C722 C 0.48093 0.96177 0.93813 0.0
C723 C 0.44137 0.94947 0.95703 0.0
C724 C 0.5087 0.00236 0.93332 0.0
C725 C 0.49745 0.03124 0.94747 0.0
H726 H 0.49175 0.94068 0.93534 0.0
H727 H 0.53994 0.01066 0.92781 0.0
S728 S 0.39362 0.01259 0.96927 0.0
N729 N 0.38884 0.96757 0.96664 0.0
N730 N 0.44252 0.04494 0.95988 0.0
C731 C 0.45661 0.0191 0.95247 0.0
C732 C 0.42795 -0.0225 0.95688 0.0
C733 C 0.48276 0.52938 0.27841 0.0
C734 C 0.44236 0.51892 0.29145 0.0
C735 C 0.49424 0.50062 0.28122 0.0
C736 C 0.46529 0.46113 0.29676 0.0
H737 H 0.50646 0.5605 0.27442 0.0
H738 H 0.52621 0.51025 0.27908 0.0
S739 S 0.35379 0.41692 0.30747 0.0
N740 N 0.37217 0.46576 0.30073 0.0
N741 N 0.39341 0.41063 0.304 0.0
C742 C 0.42387 0.44919 0.29623 0.0
C743 C 0.4123 0.47865 0.29383 0.0
C744 C 0.17024 0.94504 0.76454 0.0
C745 C 0.19494 0.96198 0.81837 0.0
C746 C 0.18226 0.96446 0.70482 0.0
C747 C 0.21938 0.00082 0.6981 0.0
H748 H 0.14598 0.91398 0.76589 0.0
H749 H 0.1667 0.94755 0.66257 0.0
S750 S 0.28126 0.06632 0.83087 0.0
N751 N 0.24752 0.02403 0.86593 0.0
N752 N 0.27031 0.06005 0.754 0.0
C753 C 0.23719 0.02251 0.75433 0.0
C754 C 0.22482 0.00296 0.81502 0.0
C755 C 0.18649 0.21003 1.14042 0.0
C756 C 0.21387 0.19568 1.13531 0.0
C757 C 0.17809 0.22578 1.08636 0.0
C758 C 0.19789 0.22827 1.02756 0.0
H759 H 0.17792 0.21658 1.18665 0.0
H760 H 0.16354 0.24342 1.0938 0.0
S761 S 0.2432 0.16584 0.98408 0.0
N762 N 0.23715 0.16161 1.06284 0.0
N763 N 0.22557 0.19506 0.96162 0.0
C764 C 0.21266 0.2017 1.01899 0.0
C765 C 0.21925 0.18391 1.07367 0.0
C766 C 0.92792 0.19227 0.42181 0.0
C767 C 0.95109 0.21095 0.36622 0.0
C768 C 0.9472 0.19411 0.47925 0.0
C769 C -0.01003 0.21536 0.48165 0.0
H770 H 0.89602 0.18295 0.42385 0.0
H771 H 0.92877 0.18603 0.52253 0.0
S772 S 0.05809 0.238 0.34052 0.0
N773 N 0.0149 0.23004 0.31069 0.0
N774 N 0.04992 0.22964 0.41846 0.0
C775 C 0.01029 0.21916 0.42284 0.0
C776 C -0.00877 0.21886 0.36452 0.0
C777 C 0.73609 0.95586 0.78332 0.0
C778 C 0.70824 0.93746 0.8346 0.0
C779 C 0.72578 0.93933 0.72166 0.0
C780 C 0.68954 0.90254 0.71244 0.0
H781 H 0.76027 -0.0132 0.78742 0.0
H782 H 0.74231 0.95869 0.68156 0.0
S783 S 0.63107 0.82883 0.84023 0.0
N784 N 0.65928 0.87155 0.87839 0.0
N785 N 0.64376 0.8385 0.76359 0.0
C786 C 0.67286 0.87791 0.76683 0.0
C787 C 0.68144 0.89577 0.82883 0.0
C788 C 0.75511 0.7562 1.1035 0.0
C789 C 0.73796 0.72419 1.14767 0.0
C790 C 0.76747 0.7511 1.04209 0.0
C791 C 0.76139 0.71335 1.02272 0.0
H792 H 0.75364 0.78308 1.11305 0.0
H793 H 0.77504 0.77435 1.00666 0.0
S794 S 0.7339 0.62647 1.13011 0.0
N795 N 0.72855 0.65882 1.17511 0.0
N796 N 0.75075 0.64889 1.06014 0.0
C797 C 0.75346 0.68494 1.07139 0.0
C798 C 0.7415 0.69033 1.13397 0.0
C799 C 0.02523 0.76073 0.42013 0.0
C800 C 0.00894 0.75225 0.3581 0.0
C801 C -0.00073 0.7494 0.4739 0.0
C802 C 0.95705 0.73087 0.46577 0.0
H803 H 0.05621 0.768 0.42715 0.0
H804 H 0.01164 0.7481 0.51951 0.0
S805 S 0.90644 0.73291 0.31785 0.0
N806 N 0.95276 0.74517 0.29436 0.0
N807 N 0.90528 0.72795 0.39657 0.0
C808 C 0.94407 0.73731 0.4068 0.0
C809 C -0.03015 0.74681 0.35168 0.0
C810 C 0.55958 0.14546 0.68891 0.0
C811 C 0.52418 0.11161 0.66357 0.0
C812 C 0.57698 0.14503 0.75024 0.0
C813 C 0.56172 0.11017 0.79021 0.0
H814 H 0.57382 0.17315 0.66161 0.0
H815 H 0.60333 0.17245 0.76589 0.0
S816 S 0.46996 0.01286 0.74908 0.0
N817 N 0.47437 0.04224 0.6886 0.0
N818 N 0.50818 0.04061 0.7966 0.0
C819 C 0.52696 0.07618 0.76471 0.0
C820 C 0.50822 0.0771 0.70425 0.0
C821 C 0.39153 0.52428 1.06082 0.0
C822 C 0.38496 0.54567 1.01123 0.0
C823 C 0.40994 0.54175 1.12126 0.0
C824 C 0.42289 0.58213 1.13857 0.0
H825 H 0.38271 0.49318 1.05277 0.0
H826 H 0.41375 0.52293 1.15535 0.0
S827 S 0.41614 0.65382 1.02787 0.0
N828 N 0.39641 0.61195 0.98542 0.0
N829 N 0.42832 0.64338 1.09783 0.0
C830 C 0.41668 0.60409 1.08986 0.0
C831 C 0.39872 0.58652 1.02736 0.0
C832 C 0.81674 0.35343 0.41167 0.0
C833 C 0.81291 0.36797 0.35112 0.0
C834 C 0.81487 0.37109 0.47205 0.0
C835 C 0.81088 0.40583 0.47669 0.0
H836 H 0.82125 0.3279 0.41264 0.0
H837 H 0.81813 0.35807 0.51573 0.0
S838 S 0.80224 0.45838 0.33415 0.0
N839 N 0.80501 0.4205 0.30232 0.0
N840 N 0.80464 0.45444 0.41254 0.0
C841 C 0.80791 0.42108 0.4166 0.0
C842 C 0.8081 0.40219 0.35546 0.0
C843 C 0.38937 0.84711 0.69484 0.0
C844 C 0.43009 0.85599 0.68415 0.0
C845 C 0.37189 0.84533 0.75769 0.0
C846 C 0.39299 0.8508 0.81596 0.0
H847 H 0.37068 0.84241 0.6536 0.0
H848 H 0.34099 0.83923 0.76046 0.0
S849 S 0.50091 0.8761 0.81853 0.0
N850 N 0.49123 0.87209 0.74105 0.0
N851 N 0.45856 0.86655 0.85618 0.0
C852 C 0.43362 0.85936 0.80611 0.0
C853 C 0.45187 0.86252 0.74195 0.0
C854 C 0.56231 0.45652 1.0732 0.0
C855 C 0.53995 0.43989 1.01586 0.0
C856 C 0.54756 0.43938 1.1367 0.0
C857 C 0.50854 0.40486 1.14906 0.0
H858 H 0.59202 0.48312 1.0692 0.0
H859 H 0.56692 0.45424 1.17706 0.0
S860 S 0.43583 0.34971 1.01827 0.0
N861 N 0.47533 0.38562 0.97915 0.0
N862 N 0.44785 0.35591 1.09482 0.0
C863 C 0.48574 0.38854 1.09232 0.0
C864 C 0.50116 0.40512 1.02774 0.0
C865 C 0.04665 0.511 0.43658 0.0
C866 C 0.08103 0.51198 0.46454 0.0
C867 C 0.04712 0.52731 0.37378 0.0
C868 C 0.08152 0.5447 0.33122 0.0
H869 H 0.01862 0.49777 0.46406 0.0
H870 H 0.01939 0.52534 0.35783 0.0
S871 S 0.18062 0.55582 0.37775 0.0
N872 N 0.15167 0.53418 0.44175 0.0
N873 N 0.15181 0.5614 0.32545 0.0
C874 C 0.11605 0.54549 0.35827 0.0
C875 C 0.116 0.53029 0.42335 0.0
loop_
_geom_bond_atom_site_label_1
_geom_bond_atom_site_label_2
_geom_bond_distance
_geom_bond_site_symmetry_2
_ccdc_geom_bond_type
C0 Eu1 2.835 . S
C0 C2 1.500 . S
C0 O20 1.257 . S
C0 O21 1.260 . S
Eu1 C0 2.835 . S
Eu1 O20 2.473 . S
Eu1 O21 2.480 . S
Eu1 O22 2.430 . S
Eu1 O23 2.670 . S
Eu1 O24 2.394 . S
Eu1 O29 2.355 . S
Eu1 O31 2.374 . S
C2 C0 1.500 . S
C2 C3 1.377 . S
C2 C7 1.377 . S
C3 C2 1.377 . S
C3 C4 1.395 . S
C3 H32 0.931 . S
C4 C3 1.395 . S
C4 C5 1.383 1_554 S
C4 H33 0.931 . S
C5 C4 1.383 1_556 S
C5 C6 1.394 1_556 S
C6 C5 1.394 1_554 S
C6 C7 1.378 . S
C6 H34 0.920 1_554 S
C7 C2 1.377 . S
C7 C6 1.378 . S
C7 H35 0.931 . S
C8 O22 1.259 . S
C8 O23 1.270 . S
C9 O24 1.251 . S
C9 O25 1.251 . S
C10 Eu11 2.835 . S
C10 C12 1.500 . S
C10 O26 1.257 . S
C10 O27 1.260 . S
Eu11 C10 2.835 . S
Eu11 O23 2.355 . S
Eu11 O25 2.374 . S
Eu11 O26 2.473 . S
Eu11 O27 2.480 . S
Eu11 O28 2.430 . S
Eu11 O29 2.670 . S
Eu11 O30 2.394 . S
C12 C10 1.500 . S
C12 C13 1.377 . S
C12 C17 1.377 . S
C13 C12 1.377 . S
C13 C14 1.395 . S
C13 H36 0.931 . S
C14 C13 1.395 . S
C14 C15 1.383 . S
C14 H37 0.931 . S
C15 C14 1.383 . S
C15 C16 1.394 . S
C16 C15 1.394 . S
C16 C17 1.378 . S
C16 H38 0.931 . S
C17 C12 1.377 . S
C17 C16 1.378 . S
C17 H39 0.931 . S
C18 O28 1.259 . S
C18 O29 1.270 . S
C19 O30 1.251 . S
C19 O31 1.251 . S
O20 C0 1.257 . S
O20 Eu1 2.473 . S
O21 C0 1.260 . S
O21 Eu1 2.480 . S
O22 Eu1 2.430 . S
O22 C8 1.259 . S
O23 Eu1 2.670 . S
O23 C8 1.270 . S
O23 Eu11 2.355 . S
O24 Eu1 2.394 . S
O24 C9 1.251 . S
O25 C9 1.251 . S
O25 Eu11 2.374 . S
O26 C10 1.257 . S
O26 Eu11 2.473 . S
O27 C10 1.260 . S
O27 Eu11 2.480 . S
O28 Eu11 2.430 . S
O28 C18 1.259 . S
O29 Eu1 2.355 . S
O29 Eu11 2.670 . S
O29 C18 1.270 . S
O30 Eu11 2.394 . S
O30 C19 1.251 . S
O31 Eu1 2.374 . S
O31 C19 1.251 . S
H32 C3 0.931 . S
H33 C4 0.931 . S
H34 C6 0.920 1_556 S
H35 C7 0.931 . S
H36 C13 0.931 . S
H37 C14 0.931 . S
H38 C16 0.931 . S
H39 C17 0.931 . S
C40 Eu41 2.835 . S
C40 C42 1.500 . S
C40 O60 1.257 . S
C40 O61 1.260 . S
Eu41 C40 2.835 . S
Eu41 O60 2.473 . S
Eu41 O61 2.480 . S
Eu41 O62 2.430 . S
Eu41 O63 2.670 . S
Eu41 O64 2.394 . S
Eu41 O69 2.355 . S
Eu41 O71 2.374 . S
C42 C40 1.500 . S
C42 C43 1.377 . S
C42 C47 1.377 . S
C43 C42 1.377 . S
C43 C44 1.395 . S
C43 H72 0.931 . S
C44 C43 1.395 . S
C44 C45 1.383 . S
C44 H73 0.931 . S
C45 C44 1.383 . S
C45 C46 1.394 . S
C46 C45 1.394 . S
C46 C47 1.378 . S
C46 H74 0.931 . S
C47 C42 1.377 . S
C47 C46 1.378 . S
C47 H75 0.931 . S
C48 O62 1.259 . S
C48 O63 1.270 . S
C49 O64 1.251 . S
C49 O65 1.251 . S
C50 Eu51 2.835 . S
C50 C52 1.500 . S
C50 O66 1.257 . S
C50 O67 1.260 . S
Eu51 C50 2.835 . S
Eu51 O63 2.355 . S
Eu51 O65 2.374 . S
Eu51 O66 2.473 . S
Eu51 O67 2.480 . S
Eu51 O68 2.430 . S
Eu51 O69 2.670 . S
Eu51 O70 2.394 . S
C52 C50 1.500 . S
C52 C53 1.377 . S
C52 C57 1.377 . S
C53 C52 1.377 . S
C53 C54 1.395 . S
C53 H76 0.931 . S
C54 C53 1.395 . S
C54 C55 1.383 . S
C54 H77 0.931 . S
C55 C54 1.383 . S
C55 C56 1.394 . S
C56 C55 1.394 . S
C56 C57 1.378 . S
C56 H78 0.931 . S
C57 C52 1.377 . S
C57 C56 1.378 . S
C57 H79 0.931 . S
C58 O68 1.259 . S
C58 O69 1.270 . S
C59 O70 1.251 . S
C59 O71 1.251 . S
O60 C40 1.257 . S
O60 Eu41 2.473 . S
O61 C40 1.260 . S
O61 Eu41 2.480 . S
O62 Eu41 2.430 . S
O62 C48 1.259 . S
O63 Eu41 2.670 . S
O63 C48 1.270 . S
O63 Eu51 2.355 . S
O64 Eu41 2.394 . S
O64 C49 1.251 . S
O65 C49 1.251 . S
O65 Eu51 2.374 . S
O66 C50 1.257 . S
O66 Eu51 2.473 . S
O67 C50 1.260 . S
O67 Eu51 2.480 . S
O68 Eu51 2.430 . S
O68 C58 1.259 . S
O69 Eu41 2.355 . S
O69 Eu51 2.670 . S
O69 C58 1.270 . S
O70 Eu51 2.394 . S
O70 C59 1.251 . S
O71 Eu41 2.374 . S
O71 C59 1.251 . S
H72 C43 0.931 . S
H73 C44 0.931 . S
H74 C46 0.931 . S
H75 C47 0.931 . S
H76 C53 0.931 . S
H77 C54 0.931 . S
H78 C56 0.931 . S
H79 C57 0.931 . S
C80 Eu81 2.835 . S
C80 C82 1.500 . S
C80 O100 1.257 . S
C80 O101 1.260 . S
Eu81 C80 2.835 . S
Eu81 O100 2.473 . S
Eu81 O101 2.480 . S
Eu81 O102 2.430 . S
Eu81 O103 2.670 . S
Eu81 O104 2.394 . S
Eu81 O109 2.355 . S
Eu81 O111 2.374 . S
C82 C80 1.500 . S
C82 C83 1.377 . S
C82 C87 1.377 . S
C83 C82 1.377 . S
C83 C84 1.395 . S
C83 H112 0.931 . S
C84 C83 1.395 . S
C84 C85 1.383 . S
C84 H113 0.931 . S
C85 C84 1.383 . S
C85 C86 1.394 . S
C86 C85 1.394 . S
C86 C87 1.378 . S
C86 H114 0.931 . S
C87 C82 1.377 . S
C87 C86 1.378 . S
C87 H115 0.931 . S
C88 O102 1.259 . S
C88 O103 1.270 . S
C89 O104 1.251 . S
C89 O105 1.251 . S
C90 Eu91 2.835 1_554 S
C90 C92 1.500 . S
C90 O106 1.257 . S
C90 O107 1.260 . S
Eu91 C90 2.835 1_556 S
Eu91 O103 2.355 . S
Eu91 O105 2.374 . S
Eu91 O106 2.473 1_556 S
Eu91 O107 2.480 1_556 S
Eu91 O108 2.430 . S
Eu91 O109 2.670 . S
Eu91 O110 2.394 . S
C92 C90 1.500 . S
C92 C93 1.377 . S
C92 C97 1.377 . S
C93 C92 1.377 . S
C93 C94 1.395 . S
C93 H116 0.931 . S
C94 C93 1.395 . S
C94 C95 1.383 . S
C94 H117 0.931 . S
C95 C94 1.383 . S
C95 C96 1.394 . S
C96 C95 1.394 . S
C96 C97 1.378 . S
C96 H118 0.931 . S
C97 C92 1.377 . S
C97 C96 1.378 . S
C97 H119 0.931 . S
C98 O108 1.259 . S
C98 O109 1.270 . S
C99 O110 1.251 . S
C99 O111 1.251 . S
O100 C80 1.257 . S
O100 Eu81 2.473 . S
O101 C80 1.260 . S
O101 Eu81 2.480 . S
O102 Eu81 2.430 . S
O102 C88 1.259 . S
O103 Eu81 2.670 . S
O103 C88 1.270 . S
O103 Eu91 2.355 . S
O104 Eu81 2.394 . S
O104 C89 1.251 . S
O105 C89 1.251 . S
O105 Eu91 2.374 . S
O106 C90 1.257 . S
O106 Eu91 2.473 1_554 S
O107 C90 1.260 . S
O107 Eu91 2.480 1_554 S
O108 Eu91 2.430 . S
O108 C98 1.259 . S
O109 Eu81 2.355 . S
O109 Eu91 2.670 . S
O109 C98 1.270 . S
O110 Eu91 2.394 . S
O110 C99 1.251 . S
O111 Eu81 2.374 . S
O111 C99 1.251 . S
H112 C83 0.931 . S
H113 C84 0.931 . S
H114 C86 0.931 . S
H115 C87 0.931 . S
H116 C93 0.931 . S
H117 C94 0.931 . S
H118 C96 0.931 . S
H119 C97 0.931 . S
C120 Eu121 2.835 . S
C120 C122 1.500 . S
C120 O140 1.257 . S
C120 O141 1.260 . S
Eu121 C120 2.835 . S
Eu121 O140 2.473 . S
Eu121 O141 2.480 . S
Eu121 O142 2.430 . S
Eu121 O143 2.670 . S
Eu121 O144 2.394 . S
Eu121 O149 2.355 . S
Eu121 O151 2.374 . S
C122 C120 1.500 . S
C122 C123 1.377 . S
C122 C127 1.377 . S
C123 C122 1.377 . S
C123 C124 1.395 . S
C123 H152 0.931 . S
C124 C123 1.395 . S
C124 C125 1.383 1_554 S
C124 H153 0.931 . S
C125 C124 1.383 1_556 S
C125 C126 1.394 1_556 S
C126 C125 1.394 1_554 S
C126 C127 1.378 . S
C126 H154 0.920 1_554 S
C127 C122 1.377 . S
C127 C126 1.378 . S
C127 H155 0.931 . S
C128 O142 1.259 . S
C128 O143 1.270 . S
C129 O144 1.251 . S
C129 O145 1.251 . S
C130 Eu131 2.835 . S
C130 C132 1.500 . S
C130 O146 1.257 . S
C130 O147 1.260 . S
Eu131 C130 2.835 . S
Eu131 O143 2.355 . S
Eu131 O145 2.374 . S
Eu131 O146 2.473 . S
Eu131 O147 2.480 . S
Eu131 O148 2.430 . S
Eu131 O149 2.670 . S
Eu131 O150 2.394 . S
C132 C130 1.500 . S
C132 C133 1.377 . S
C132 C137 1.377 . S
C133 C132 1.377 . S
C133 C134 1.395 . S
C133 H156 0.931 . S
C134 C133 1.395 . S
C134 C135 1.383 . S
C134 H157 0.931 . S
C135 C134 1.383 . S
C135 C136 1.394 . S
C136 C135 1.394 . S
C136 C137 1.378 . S
C136 H158 0.931 . S
C137 C132 1.377 . S
C137 C136 1.378 . S
C137 H159 0.931 . S
C138 O148 1.259 . S
C138 O149 1.270 . S
C139 O150 1.251 . S
C139 O151 1.251 . S
O140 C120 1.257 . S
O140 Eu121 2.473 . S
O141 C120 1.260 . S
O141 Eu121 2.480 . S
O142 Eu121 2.430 . S
O142 C128 1.259 . S
O143 Eu121 2.670 . S
O143 C128 1.270 . S
O143 Eu131 2.355 . S
O144 Eu121 2.394 . S
O144 C129 1.251 . S
O145 C129 1.251 . S
O145 Eu131 2.374 . S
O146 C130 1.257 . S
O146 Eu131 2.473 . S
O147 C130 1.260 . S
O147 Eu131 2.480 . S
O148 Eu131 2.430 . S
O148 C138 1.259 . S
O149 Eu121 2.355 . S
O149 Eu131 2.670 . S
O149 C138 1.270 . S
O150 Eu131 2.394 . S
O150 C139 1.251 . S
O151 Eu121 2.374 . S
O151 C139 1.251 . S
H152 C123 0.931 . S
H153 C124 0.931 . S
H154 C126 0.920 1_556 S
H155 C127 0.931 . S
H156 C133 0.931 . S
H157 C134 0.931 . S
H158 C136 0.931 . S
H159 C137 0.931 . S
C160 Eu161 2.835 . S
C160 C162 1.500 . S
C160 O180 1.257 . S
C160 O181 1.260 . S
Eu161 C160 2.835 . S
Eu161 O180 2.473 . S
Eu161 O181 2.480 . S
Eu161 O182 2.430 . S
Eu161 O183 2.670 . S
Eu161 O184 2.394 . S
Eu161 O189 2.355 . S
Eu161 O191 2.374 . S
C162 C160 1.500 . S
C162 C163 1.377 . S
C162 C167 1.377 . S
C163 C162 1.377 . S
C163 C164 1.395 . S
C163 H192 0.931 . S
C164 C163 1.395 . S
C164 C165 1.383 . S
C164 H193 0.931 . S
C165 C164 1.383 . S
C165 C166 1.394 . S
C166 C165 1.394 . S
C166 C167 1.378 . S
C166 H194 0.931 . S
C167 C162 1.377 . S
C167 C166 1.378 . S
C167 H195 0.931 . S
C168 O182 1.259 . S
C168 O183 1.270 . S
C169 O184 1.251 . S
C169 O185 1.251 . S
C170 Eu171 2.835 . S
C170 C172 1.500 . S
C170 O186 1.257 . S
C170 O187 1.260 . S
Eu171 C170 2.835 . S
Eu171 O183 2.355 . S
Eu171 O185 2.374 . S
Eu171 O186 2.473 . S
Eu171 O187 2.480 . S
Eu171 O188 2.430 . S
Eu171 O189 2.670 . S
Eu171 O190 2.394 . S
C172 C170 1.500 . S
C172 C173 1.377 . S
C172 C177 1.377 . S
C173 C172 1.377 . S
C173 C174 1.395 . S
C173 H196 0.931 . S
C174 C173 1.395 . S
C174 C175 1.383 . S
C174 H197 0.931 . S
C175 C174 1.383 . S
C175 C176 1.394 . S
C176 C175 1.394 . S
C176 C177 1.378 . S
C176 H198 0.931 . S
C177 C172 1.377 . S
C177 C176 1.378 . S
C177 H199 0.931 . S
C178 O188 1.259 . S
C178 O189 1.270 . S
C179 O190 1.251 . S
C179 O191 1.251 . S
O180 C160 1.257 . S
O180 Eu161 2.473 . S
O181 C160 1.260 . S
O181 Eu161 2.480 . S
O182 Eu161 2.430 . S
O182 C168 1.259 . S
O183 Eu161 2.670 . S
O183 C168 1.270 . S
O183 Eu171 2.355 . S
O184 Eu161 2.394 . S
O184 C169 1.251 . S
O185 C169 1.251 . S
O185 Eu171 2.374 . S
O186 C170 1.257 . S
O186 Eu171 2.473 . S
O187 C170 1.260 . S
O187 Eu171 2.480 . S
O188 Eu171 2.430 . S
O188 C178 1.259 . S
O189 Eu161 2.355 . S
O189 Eu171 2.670 . S
O189 C178 1.270 . S
O190 Eu171 2.394 . S
O190 C179 1.251 . S
O191 Eu161 2.374 . S
O191 C179 1.251 . S
H192 C163 0.931 . S
H193 C164 0.931 . S
H194 C166 0.931 . S
H195 C167 0.931 . S
H196 C173 0.931 . S
H197 C174 0.931 . S
H198 C176 0.931 . S
H199 C177 0.931 . S
C200 Eu201 2.835 . S
C200 C202 1.500 . S
C200 O220 1.257 . S
C200 O221 1.260 . S
Eu201 C200 2.835 . S
Eu201 O220 2.473 . S
Eu201 O221 2.480 . S
Eu201 O222 2.430 . S
Eu201 O223 2.670 . S
Eu201 O224 2.394 . S
Eu201 O229 2.355 . S
Eu201 O231 2.374 . S
C202 C200 1.500 . S
C202 C203 1.377 . S
C202 C207 1.377 . S
C203 C202 1.377 . S
C203 C204 1.395 . S
C203 H232 0.931 . S
C204 C203 1.395 . S
C204 C205 1.383 . S
C204 H233 0.931 . S
C205 C204 1.383 . S
C205 C206 1.394 . S
C206 C205 1.394 . S
C206 C207 1.378 . S
C206 H234 0.931 . S
C207 C202 1.377 . S
C207 C206 1.378 . S
C207 H235 0.931 . S
C208 O222 1.259 . S
C208 O223 1.270 . S
C209 O224 1.251 . S
C209 O225 1.251 . S
C210 Eu211 2.835 1_554 S
C210 C212 1.500 . S
C210 O226 1.257 . S
C210 O227 1.260 . S
Eu211 C210 2.835 1_556 S
Eu211 O223 2.355 . S
Eu211 O225 2.374 . S
Eu211 O226 2.473 1_556 S
Eu211 O227 2.480 1_556 S
Eu211 O228 2.430 . S
Eu211 O229 2.670 . S
Eu211 O230 2.394 . S
C212 C210 1.500 . S
C212 C213 1.377 . S
C212 C217 1.377 . S
C213 C212 1.377 . S
C213 C214 1.395 . S
C213 H236 0.931 . S
C214 C213 1.395 . S
C214 C215 1.383 . S
C214 H237 0.931 . S
C215 C214 1.383 . S
C215 C216 1.394 . S
C216 C215 1.394 . S
C216 C217 1.378 . S
C216 H238 0.931 . S
C217 C212 1.377 . S
C217 C216 1.378 . S
C217 H239 0.931 . S
C218 O228 1.259 . S
C218 O229 1.270 . S
C219 O230 1.251 . S
C219 O231 1.251 . S
O220 C200 1.257 . S
O220 Eu201 2.473 . S
O221 C200 1.260 . S
O221 Eu201 2.480 . S
O222 Eu201 2.430 . S
O222 C208 1.259 . S
O223 Eu201 2.670 . S
O223 C208 1.270 . S
O223 Eu211 2.355 . S
O224 Eu201 2.394 . S
O224 C209 1.251 . S
O225 C209 1.251 . S
O225 Eu211 2.374 . S
O226 C210 1.257 . S
O226 Eu211 2.473 1_554 S
O227 C210 1.260 . S
O227 Eu211 2.480 1_554 S
O228 Eu211 2.430 . S
O228 C218 1.259 . S
O229 Eu201 2.355 . S
O229 Eu211 2.670 . S
O229 C218 1.270 . S
O230 Eu211 2.394 . S
O230 C219 1.251 . S
O231 Eu201 2.374 . S
O231 C219 1.251 . S
H232 C203 0.931 . S
H233 C204 0.931 . S
H234 C206 0.931 . S
H235 C207 0.931 . S
H236 C213 0.931 . S
H237 C214 0.931 . S
H238 C216 0.931 . S
H239 C217 0.931 . S
C240 Eu241 2.835 . S
C240 C242 1.500 . S
C240 O260 1.257 . S
C240 O261 1.260 . S
Eu241 C240 2.835 . S
Eu241 O260 2.473 . S
Eu241 O261 2.480 . S
Eu241 O262 2.430 . S
Eu241 O263 2.670 . S
Eu241 O264 2.394 . S
Eu241 O269 2.355 . S
Eu241 O271 2.374 . S
C242 C240 1.500 . S
C242 C243 1.377 . S
C242 C247 1.377 . S
C243 C242 1.377 . S
C243 C244 1.395 . S
C243 H272 0.931 . S
C244 C243 1.395 . S
C244 C245 1.383 . S
C244 H273 0.931 . S
C245 C244 1.383 . S
C245 C246 1.394 . S
C246 C245 1.394 . S
C246 C247 1.378 . S
C246 H274 0.931 . S
C247 C242 1.377 . S
C247 C246 1.378 . S
C247 H275 0.931 . S
C248 O262 1.259 . S
C248 O263 1.270 . S
C249 O264 1.251 . S
C249 O265 1.251 . S
C250 Eu251 2.835 . S
C250 C252 1.500 . S
C250 O266 1.257 . S
C250 O267 1.260 . S
Eu251 C250 2.835 . S
Eu251 O263 2.355 . S
Eu251 O265 2.374 . S
Eu251 O266 2.473 . S
Eu251 O267 2.480 . S
Eu251 O268 2.430 . S
Eu251 O269 2.670 . S
Eu251 O270 2.394 . S
C252 C250 1.500 . S
C252 C253 1.377 . S
C252 C257 1.377 . S
C253 C252 1.377 . S
C253 C254 1.395 . S
C253 H276 0.931 . S
C254 C253 1.395 . S
C254 C255 1.383 . S
C254 H277 0.931 . S
C255 C254 1.383 . S
C255 C256 1.394 . S
C256 C255 1.394 . S
C256 C257 1.378 . S
C256 H278 0.931 . S
C257 C252 1.377 . S
C257 C256 1.378 . S
C257 H279 0.931 . S
C258 O268 1.259 . S
C258 O269 1.270 . S
C259 O270 1.251 . S
C259 O271 1.251 . S
O260 C240 1.257 . S
O260 Eu241 2.473 . S
O261 C240 1.260 . S
O261 Eu241 2.480 . S
O262 Eu241 2.430 . S
O262 C248 1.259 . S
O263 Eu241 2.670 . S
O263 C248 1.270 . S
O263 Eu251 2.355 . S
O264 Eu241 2.394 . S
O264 C249 1.251 . S
O265 C249 1.251 . S
O265 Eu251 2.374 . S
O266 C250 1.257 . S
O266 Eu251 2.473 . S
O267 C250 1.260 . S
O267 Eu251 2.480 . S
O268 Eu251 2.430 . S
O268 C258 1.259 . S
O269 Eu241 2.355 . S
O269 Eu251 2.670 . S
O269 C258 1.270 . S
O270 Eu251 2.394 . S
O270 C259 1.251 . S
O271 Eu241 2.374 . S
O271 C259 1.251 . S
H272 C243 0.931 . S
H273 C244 0.931 . S
H274 C246 0.931 . S
H275 C247 0.931 . S
H276 C253 0.931 . S
H277 C254 0.931 . S
H278 C256 0.931 . S
H279 C257 0.931 . S
C280 Eu281 2.835 . S
C280 C282 1.500 . S
C280 O300 1.257 . S
C280 O301 1.260 . S
Eu281 C280 2.835 . S
Eu281 O300 2.473 . S
Eu281 O301 2.480 . S
Eu281 O302 2.430 . S
Eu281 O303 2.670 . S
Eu281 O304 2.394 . S
Eu281 O309 2.355 . S
Eu281 O311 2.374 . S
C282 C280 1.500 . S
C282 C283 1.377 . S
C282 C287 1.377 . S
C283 C282 1.377 . S
C283 C284 1.395 . S
C283 H312 0.931 . S
C284 C283 1.395 . S
C284 C285 1.383 1_556 S
C284 H313 0.931 . S
C285 C284 1.383 1_554 S
C285 C286 1.394 1_554 S
C286 C285 1.394 1_556 S
C286 C287 1.378 . S
C286 H314 0.920 1_556 S
C287 C282 1.377 . S
C287 C286 1.378 . S
C287 H315 0.931 . S
C288 O302 1.259 . S
C288 O303 1.270 . S
C289 O304 1.251 . S
C289 O305 1.251 . S
C290 Eu291 2.835 . S
C290 C292 1.500 . S
C290 O306 1.257 . S
C290 O307 1.260 . S
Eu291 C290 2.835 . S
Eu291 O303 2.355 . S
Eu291 O305 2.374 . S
Eu291 O306 2.473 . S
Eu291 O307 2.480 . S
Eu291 O308 2.430 . S
Eu291 O309 2.670 . S
Eu291 O310 2.394 . S
C292 C290 1.500 . S
C292 C293 1.377 . S
C292 C297 1.377 . S
C293 C292 1.377 . S
C293 C294 1.395 . S
C293 H316 0.931 . S
C294 C293 1.395 . S
C294 C295 1.383 . S
C294 H317 0.931 . S
C295 C294 1.383 . S
C295 C296 1.394 . S
C296 C295 1.394 . S
C296 C297 1.378 . S
C296 H318 0.931 . S
C297 C292 1.377 . S
C297 C296 1.378 . S
C297 H319 0.931 . S
C298 O308 1.259 . S
C298 O309 1.270 . S
C299 O310 1.251 . S
C299 O311 1.251 . S
O300 C280 1.257 . S
O300 Eu281 2.473 . S
O301 C280 1.260 . S
O301 Eu281 2.480 . S
O302 Eu281 2.430 . S
O302 C288 1.259 . S
O303 Eu281 2.670 . S
O303 C288 1.270 . S
O303 Eu291 2.355 . S
O304 Eu281 2.394 . S
O304 C289 1.251 . S
O305 C289 1.251 . S
O305 Eu291 2.374 . S
O306 C290 1.257 . S
O306 Eu291 2.473 . S
O307 C290 1.260 . S
O307 Eu291 2.480 . S
O308 Eu291 2.430 . S
O308 C298 1.259 . S
O309 Eu281 2.355 . S
O309 Eu291 2.670 . S
O309 C298 1.270 . S
O310 Eu291 2.394 . S
O310 C299 1.251 . S
O311 Eu281 2.374 . S
O311 C299 1.251 . S
H312 C283 0.931 . S
H313 C284 0.931 . S
H314 C286 0.920 1_554 S
H315 C287 0.931 . S
H316 C293 0.931 . S
H317 C294 0.931 . S
H318 C296 0.931 . S
H319 C297 0.931 . S
C320 Eu321 2.835 . S
C320 C322 1.500 . S
C320 O340 1.257 . S
C320 O341 1.260 . S
Eu321 C320 2.835 . S
Eu321 O340 2.473 . S
Eu321 O341 2.480 . S
Eu321 O342 2.430 . S
Eu321 O343 2.670 . S
Eu321 O344 2.394 . S
Eu321 O349 2.355 . S
Eu321 O351 2.374 . S
C322 C320 1.500 . S
C322 C323 1.377 . S
C322 C327 1.377 . S
C323 C322 1.377 . S
C323 C324 1.395 . S
C323 H352 0.931 . S
C324 C323 1.395 . S
C324 C325 1.383 . S
C324 H353 0.931 . S
C325 C324 1.383 . S
C325 C326 1.394 . S
C326 C325 1.394 . S
C326 C327 1.378 . S
C326 H354 0.931 . S
C327 C322 1.377 . S
C327 C326 1.378 . S
C327 H355 0.931 . S
C328 O342 1.259 . S
C328 O343 1.270 . S
C329 O344 1.251 . S
C329 O345 1.251 . S
C330 Eu331 2.835 1_556 S
C330 C332 1.500 . S
C330 O346 1.257 . S
C330 O347 1.260 . S
Eu331 C330 2.835 1_554 S
Eu331 O343 2.355 . S
Eu331 O345 2.374 . S
Eu331 O346 2.473 1_554 S
Eu331 O347 2.480 1_554 S
Eu331 O348 2.430 . S
Eu331 O349 2.670 . S
Eu331 O350 2.394 . S
C332 C330 1.500 . S
C332 C333 1.377 . S
C332 C337 1.377 . S
C333 C332 1.377 . S
C333 C334 1.395 . S
C333 H356 0.931 . S
C334 C333 1.395 . S
C334 C335 1.383 . S
C334 H357 0.931 . S
C335 C334 1.383 . S
C335 C336 1.394 . S
C336 C335 1.394 . S
C336 C337 1.378 . S
C336 H358 0.931 . S
C337 C332 1.377 . S
C337 C336 1.378 . S
C337 H359 0.931 . S
C338 O348 1.259 . S
C338 O349 1.270 . S
C339 O350 1.251 . S
C339 O351 1.251 . S
O340 C320 1.257 . S
O340 Eu321 2.473 . S
O341 C320 1.260 . S
O341 Eu321 2.480 . S
O342 Eu321 2.430 . S
O342 C328 1.259 . S
O343 Eu321 2.670 . S
O343 C328 1.270 . S
O343 Eu331 2.355 . S
O344 Eu321 2.394 . S
O344 C329 1.251 . S
O345 C329 1.251 . S
O345 Eu331 2.374 . S
O346 C330 1.257 . S
O346 Eu331 2.473 1_556 S
O347 C330 1.260 . S
O347 Eu331 2.480 1_556 S
O348 Eu331 2.430 . S
O348 C338 1.259 . S
O349 Eu321 2.355 . S
O349 Eu331 2.670 . S
O349 C338 1.270 . S
O350 Eu331 2.394 . S
O350 C339 1.251 . S
O351 Eu321 2.374 . S
O351 C339 1.251 . S
H352 C323 0.931 . S
H353 C324 0.931 . S
H354 C326 0.931 . S
H355 C327 0.931 . S
H356 C333 0.931 . S
H357 C334 0.931 . S
H358 C336 0.931 . S
H359 C337 0.931 . S
C360 Eu361 2.835 . S
C360 C362 1.500 . S
C360 O380 1.257 . S
C360 O381 1.260 . S
Eu361 C360 2.835 . S
Eu361 O380 2.473 . S
Eu361 O381 2.480 . S
Eu361 O382 2.430 . S
Eu361 O383 2.670 . S
Eu361 O384 2.394 . S
Eu361 O389 2.355 . S
Eu361 O391 2.374 . S
C362 C360 1.500 . S
C362 C363 1.377 . S
C362 C367 1.377 . S
C363 C362 1.377 . S
C363 C364 1.395 . S
C363 H392 0.931 . S
C364 C363 1.395 . S
C364 C365 1.383 . S
C364 H393 0.931 . S
C365 C364 1.383 . S
C365 C366 1.394 . S
C366 C365 1.394 . S
C366 C367 1.378 . S
C366 H394 0.931 . S
C367 C362 1.377 . S
C367 C366 1.378 . S
C367 H395 0.931 . S
C368 O382 1.259 . S
C368 O383 1.270 . S
C369 O384 1.251 . S
C369 O385 1.251 . S
C370 Eu371 2.835 . S
C370 C372 1.500 . S
C370 O386 1.257 . S
C370 O387 1.260 . S
Eu371 C370 2.835 . S
Eu371 O383 2.355 . S
Eu371 O385 2.374 . S
Eu371 O386 2.473 . S
Eu371 O387 2.480 . S
Eu371 O388 2.430 . S
Eu371 O389 2.670 . S
Eu371 O390 2.394 . S
C372 C370 1.500 . S
C372 C373 1.377 . S
C372 C377 1.377 . S
C373 C372 1.377 . S
C373 C374 1.395 . S
C373 H396 0.931 . S
C374 C373 1.395 . S
C374 C375 1.383 . S
C374 H397 0.931 . S
C375 C374 1.383 . S
C375 C376 1.394 . S
C376 C375 1.394 . S
C376 C377 1.378 . S
C376 H398 0.931 . S
C377 C372 1.377 . S
C377 C376 1.378 . S
C377 H399 0.931 . S
C378 O388 1.259 . S
C378 O389 1.270 . S
C379 O390 1.251 . S
C379 O391 1.251 . S
O380 C360 1.257 . S
O380 Eu361 2.473 . S
O381 C360 1.260 . S
O381 Eu361 2.480 . S
O382 Eu361 2.430 . S
O382 C368 1.259 . S
O383 Eu361 2.670 . S
O383 C368 1.270 . S
O383 Eu371 2.355 . S
O384 Eu361 2.394 . S
O384 C369 1.251 . S
O385 C369 1.251 . S
O385 Eu371 2.374 . S
O386 C370 1.257 . S
O386 Eu371 2.473 . S
O387 C370 1.260 . S
O387 Eu371 2.480 . S
O388 Eu371 2.430 . S
O388 C378 1.259 . S
O389 Eu361 2.355 . S
O389 Eu371 2.670 . S
O389 C378 1.270 . S
O390 Eu371 2.394 . S
O390 C379 1.251 . S
O391 Eu361 2.374 . S
O391 C379 1.251 . S
H392 C363 0.931 . S
H393 C364 0.931 . S
H394 C366 0.931 . S
H395 C367 0.931 . S
H396 C373 0.931 . S
H397 C374 0.931 . S
H398 C376 0.931 . S
H399 C377 0.931 . S
C400 Eu401 2.835 . S
C400 C402 1.500 . S
C400 O420 1.257 . S
C400 O421 1.260 . S
Eu401 C400 2.835 . S
Eu401 O420 2.473 . S
Eu401 O421 2.480 . S
Eu401 O422 2.430 . S
Eu401 O423 2.670 . S
Eu401 O424 2.394 . S
Eu401 O429 2.355 . S
Eu401 O431 2.374 . S
C402 C400 1.500 . S
C402 C403 1.377 . S
C402 C407 1.377 . S
C403 C402 1.377 . S
C403 C404 1.395 . S
C403 H432 0.931 . S
C404 C403 1.395 . S
C404 C405 1.383 1_556 S
C404 H433 0.931 . S
C405 C404 1.383 1_554 S
C405 C406 1.394 1_554 S
C406 C405 1.394 1_556 S
C406 C407 1.378 . S
C406 H434 0.920 1_556 S
C407 C402 1.377 . S
C407 C406 1.378 . S
C407 H435 0.931 . S
C408 O422 1.259 . S
C408 O423 1.270 . S
C409 O424 1.251 . S
C409 O425 1.251 . S
C410 Eu411 2.835 . S
C410 C412 1.500 . S
C410 O426 1.257 . S
C410 O427 1.260 . S
Eu411 C410 2.835 . S
Eu411 O423 2.355 . S
Eu411 O425 2.374 . S
Eu411 O426 2.473 . S
Eu411 O427 2.480 . S
Eu411 O428 2.430 . S
Eu411 O429 2.670 . S
Eu411 O430 2.394 . S
C412 C410 1.500 . S
C412 C413 1.377 . S
C412 C417 1.377 . S
C413 C412 1.377 . S
C413 C414 1.395 . S
C413 H436 0.931 . S
C414 C413 1.395 . S
C414 C415 1.383 . S
C414 H437 0.931 . S
C415 C414 1.383 . S
C415 C416 1.394 . S
C416 C415 1.394 . S
C416 C417 1.378 . S
C416 H438 0.931 . S
C417 C412 1.377 . S
C417 C416 1.378 . S
C417 H439 0.931 . S
C418 O428 1.259 . S
C418 O429 1.270 . S
C419 O430 1.251 . S
C419 O431 1.251 . S
O420 C400 1.257 . S
O420 Eu401 2.473 . S
O421 C400 1.260 . S
O421 Eu401 2.480 . S
O422 Eu401 2.430 . S
O422 C408 1.259 . S
O423 Eu401 2.670 . S
O423 C408 1.270 . S
O423 Eu411 2.355 . S
O424 Eu401 2.394 . S
O424 C409 1.251 . S
O425 C409 1.251 . S
O425 Eu411 2.374 . S
O426 C410 1.257 . S
O426 Eu411 2.473 . S
O427 C410 1.260 . S
O427 Eu411 2.480 . S
O428 Eu411 2.430 . S
O428 C418 1.259 . S
O429 Eu401 2.355 . S
O429 Eu411 2.670 . S
O429 C418 1.270 . S
O430 Eu411 2.394 . S
O430 C419 1.251 . S
O431 Eu401 2.374 . S
O431 C419 1.251 . S
H432 C403 0.931 . S
H433 C404 0.931 . S
H434 C406 0.920 1_554 S
H435 C407 0.931 . S
H436 C413 0.931 . S
H437 C414 0.931 . S
H438 C416 0.931 . S
H439 C417 0.931 . S
C440 Eu441 2.835 . S
C440 C442 1.500 . S
C440 O460 1.257 . S
C440 O461 1.260 . S
Eu441 C440 2.835 . S
Eu441 O460 2.473 . S
Eu441 O461 2.480 . S
Eu441 O462 2.430 . S
Eu441 O463 2.670 . S
Eu441 O464 2.394 . S
Eu441 O469 2.355 . S
Eu441 O471 2.374 . S
C442 C440 1.500 . S
C442 C443 1.377 . S
C442 C447 1.377 . S
C443 C442 1.377 . S
C443 C444 1.395 . S
C443 H472 0.931 . S
C444 C443 1.395 . S
C444 C445 1.383 . S
C444 H473 0.931 . S
C445 C444 1.383 . S
C445 C446 1.394 . S
C446 C445 1.394 . S
C446 C447 1.378 . S
C446 H474 0.931 . S
C447 C442 1.377 . S
C447 C446 1.378 . S
C447 H475 0.931 . S
C448 O462 1.259 . S
C448 O463 1.270 . S
C449 O464 1.251 . S
C449 O465 1.251 . S
C450 Eu451 2.835 1_556 S
C450 C452 1.500 . S
C450 O466 1.257 . S
C450 O467 1.260 . S
Eu451 C450 2.835 1_554 S
Eu451 O463 2.355 . S
Eu451 O465 2.374 . S
Eu451 O466 2.473 1_554 S
Eu451 O467 2.480 1_554 S
Eu451 O468 2.430 . S
Eu451 O469 2.670 . S
Eu451 O470 2.394 . S
C452 C450 1.500 . S
C452 C453 1.377 . S
C452 C457 1.377 . S
C453 C452 1.377 . S
C453 C454 1.395 . S
C453 H476 0.931 . S
C454 C453 1.395 . S
C454 C455 1.383 . S
C454 H477 0.931 . S
C455 C454 1.383 . S
C455 C456 1.394 . S
C456 C455 1.394 . S
C456 C457 1.378 . S
C456 H478 0.931 . S
C457 C452 1.377 . S
C457 C456 1.378 . S
C457 H479 0.931 . S
C458 O468 1.259 . S
C458 O469 1.270 . S
C459 O470 1.251 . S
C459 O471 1.251 . S
O460 C440 1.257 . S
O460 Eu441 2.473 . S
O461 C440 1.260 . S
O461 Eu441 2.480 . S
O462 Eu441 2.430 . S
O462 C448 1.259 . S
O463 Eu441 2.670 . S
O463 C448 1.270 . S
O463 Eu451 2.355 . S
O464 Eu441 2.394 . S
O464 C449 1.251 . S
O465 C449 1.251 . S
O465 Eu451 2.374 . S
O466 C450 1.257 . S
O466 Eu451 2.473 1_556 S
O467 C450 1.260 . S
O467 Eu451 2.480 1_556 S
O468 Eu451 2.430 . S
O468 C458 1.259 . S
O469 Eu441 2.355 . S
O469 Eu451 2.670 . S
O469 C458 1.270 . S
O470 Eu451 2.394 . S
O470 C459 1.251 . S
O471 Eu441 2.374 . S
O471 C459 1.251 . S
H472 C443 0.931 . S
H473 C444 0.931 . S
H474 C446 0.931 . S
H475 C447 0.931 . S
H476 C453 0.931 . S
H477 C454 0.931 . S
H478 C456 0.931 . S
H479 C457 0.931 . S
C480 C481 1.369 . S
C480 C482 1.419 . S
C480 H484 0.930 . S
C481 C480 1.369 . S
C481 C490 1.429 . S
C482 C480 1.419 . S
C482 C483 1.363 . S
C482 H485 0.929 . S
C483 C482 1.363 . S
C483 C489 1.428 . S
H484 C480 0.930 . S
H485 C482 0.929 . S
S486 N487 1.613 . S
S486 N488 1.610 . S
N487 S486 1.613 . S
N487 C490 1.350 . S
N488 S486 1.610 . S
N488 C489 1.351 . S
C489 C483 1.428 . S
C489 N488 1.351 . S
C489 C490 1.434 . S
C490 C481 1.429 . S
C490 N487 1.350 . S
C490 C489 1.434 . S
C491 C492 1.369 . S
C491 C493 1.419 . S
C491 H495 0.930 . S
C492 C491 1.369 . S
C492 C501 1.429 . S
C493 C491 1.419 . S
C493 C494 1.363 . S
C493 H496 0.929 . S
C494 C493 1.363 . S
C494 C500 1.428 . S
H495 C491 0.930 . S
H496 C493 0.929 . S
S497 N498 1.613 . S
S497 N499 1.610 . S
N498 S497 1.613 . S
N498 C501 1.350 . S
N499 S497 1.610 . S
N499 C500 1.351 . S
C500 C494 1.428 . S
C500 N499 1.351 . S
C500 C501 1.434 . S
C501 C492 1.429 . S
C501 N498 1.350 . S
C501 C500 1.434 . S
C502 C503 1.369 . S
C502 C504 1.419 . S
C502 H506 0.930 . S
C503 C502 1.369 . S
C503 C512 1.429 . S
C504 C502 1.419 . S
C504 C505 1.363 . S
C504 H507 0.929 . S
C505 C504 1.363 . S
C505 C511 1.428 . S
H506 C502 0.930 . S
H507 C504 0.929 . S
S508 N509 1.613 . S
S508 N510 1.610 . S
N509 S508 1.613 . S
N509 C512 1.350 . S
N510 S508 1.610 . S
N510 C511 1.351 . S
C511 C505 1.428 . S
C511 N510 1.351 . S
C511 C512 1.434 . S
C512 C503 1.429 . S
C512 N509 1.350 . S
C512 C511 1.434 . S
C513 C514 1.369 . S
C513 C515 1.419 . S
C513 H517 0.930 . S
C514 C513 1.369 . S
C514 C523 1.429 . S
C515 C513 1.419 . S
C515 C516 1.363 . S
C515 H518 0.929 . S
C516 C515 1.363 . S
C516 C522 1.428 . S
H517 C513 0.930 . S
H518 C515 0.929 . S
S519 N520 1.613 . S
S519 N521 1.610 . S
N520 S519 1.613 . S
N520 C523 1.350 . S
N521 S519 1.610 . S
N521 C522 1.351 . S
C522 C516 1.428 . S
C522 N521 1.351 . S
C522 C523 1.434 . S
C523 C514 1.429 . S
C523 N520 1.350 . S
C523 C522 1.434 . S
C524 C525 1.369 . S
C524 C526 1.419 . S
C524 H528 0.930 . S
C525 C524 1.369 . S
C525 C534 1.429 . S
C526 C524 1.419 . S
C526 C527 1.363 . S
C526 H529 0.929 . S
C527 C526 1.363 . S
C527 C533 1.428 . S
H528 C524 0.930 . S
H529 C526 0.929 . S
S530 N531 1.613 . S
S530 N532 1.610 . S
N531 S530 1.613 . S
N531 C534 1.350 . S
N532 S530 1.610 . S
N532 C533 1.351 . S
C533 C527 1.428 . S
C533 N532 1.351 . S
C533 C534 1.434 . S
C534 C525 1.429 . S
C534 N531 1.350 . S
C534 C533 1.434 . S
C535 C536 1.369 . S
C535 C537 1.419 . S
C535 H539 0.930 . S
C536 C535 1.369 . S
C536 C545 1.429 . S
C537 C535 1.419 . S
C537 C538 1.363 . S
C537 H540 0.929 . S
C538 C537 1.363 . S
C538 C544 1.428 . S
H539 C535 0.930 . S
H540 C537 0.929 . S
S541 N542 1.613 . S
S541 N543 1.610 . S
N542 S541 1.613 . S
N542 C545 1.350 . S
N543 S541 1.610 . S
N543 C544 1.351 . S
C544 C538 1.428 . S
C544 N543 1.351 . S
C544 C545 1.434 . S
C545 C536 1.429 . S
C545 N542 1.350 . S
C545 C544 1.434 . S
C546 C547 1.369 . S
C546 C548 1.419 1_554 S
C546 H550 0.930 . S
C547 C546 1.369 . S
C547 C556 1.429 . S
C548 C546 1.419 1_556 S
C548 C549 1.363 . S
C548 H551 0.929 . S
C549 C548 1.363 . S
C549 C555 1.428 . S
H550 C546 0.930 . S
H551 C548 0.929 . S
S552 N553 1.613 1_556 S
S552 N554 1.610 . S
N553 S552 1.613 1_554 S
N553 C556 1.350 . S
N554 S552 1.610 . S
N554 C555 1.351 . S
C555 C549 1.428 . S
C555 N554 1.351 . S
C555 C556 1.434 1_556 S
C556 C547 1.429 . S
C556 N553 1.350 . S
C556 C555 1.434 1_554 S
C557 C558 1.369 . S
C557 C559 1.419 . S
C557 H561 0.930 . S
C558 C557 1.369 . S
C558 C567 1.429 . S
C559 C557 1.419 . S
C559 C560 1.363 . S
C559 H562 0.929 . S
C560 C559 1.363 . S
C560 C566 1.428 . S
H561 C557 0.930 . S
H562 C559 0.929 . S
S563 N564 1.613 . S
S563 N565 1.610 . S
N564 S563 1.613 . S
N564 C567 1.350 . S
N565 S563 1.610 . S
N565 C566 1.351 . S
C566 C560 1.428 . S
C566 N565 1.351 . S
C566 C567 1.434 . S
C567 C558 1.429 . S
C567 N564 1.350 . S
C567 C566 1.434 . S
C568 C569 1.369 . S
C568 C570 1.419 . S
C568 H572 0.930 . S
C569 C568 1.369 . S
C569 C578 1.429 . S
C570 C568 1.419 . S
C570 C571 1.363 . S
C570 H573 0.929 . S
C571 C570 1.363 . S
C571 C577 1.428 . S
H572 C568 0.930 . S
H573 C570 0.929 . S
S574 N575 1.613 . S
S574 N576 1.610 . S
N575 S574 1.613 . S
N575 C578 1.350 . S
N576 S574 1.610 . S
N576 C577 1.351 . S
C577 C571 1.428 . S
C577 N576 1.351 . S
C577 C578 1.434 . S
C578 C569 1.429 . S
C578 N575 1.350 . S
C578 C577 1.434 . S
C579 C580 1.369 . S
C579 C581 1.419 1_554 S
C579 H583 0.930 . S
C580 C579 1.369 . S
C580 C589 1.429 . S
C581 C579 1.419 1_556 S
C581 C582 1.363 . S
C581 H584 0.929 . S
C582 C581 1.363 . S
C582 C588 1.428 . S
H583 C579 0.930 . S
H584 C581 0.929 . S
S585 N586 1.613 . S
S585 N587 1.610 1_554 S
N586 S585 1.613 . S
N586 C589 1.350 . S
N587 S585 1.610 1_556 S
N587 C588 1.351 . S
C588 C582 1.428 . S
C588 N587 1.351 . S
C588 C589 1.434 1_556 S
C589 C580 1.429 . S
C589 N586 1.350 . S
C589 C588 1.434 1_554 S
C590 C591 1.369 . S
C590 C592 1.419 . S
C590 H594 0.930 . S
C591 C590 1.369 . S
C591 C600 1.429 . S
C592 C590 1.419 . S
C592 C593 1.363 . S
C592 H595 0.929 . S
C593 C592 1.363 . S
C593 C599 1.428 . S
H594 C590 0.930 . S
H595 C592 0.929 . S
S596 N597 1.613 . S
S596 N598 1.610 . S
N597 S596 1.613 . S
N597 C600 1.350 . S
N598 S596 1.610 . S
N598 C599 1.351 . S
C599 C593 1.428 . S
C599 N598 1.351 . S
C599 C600 1.434 . S
C600 C591 1.429 . S
C600 N597 1.350 . S
C600 C599 1.434 . S
C601 C602 1.369 . S
C601 C603 1.419 . S
C601 H605 0.930 . S
C602 C601 1.369 . S
C602 C611 1.429 . S
C603 C601 1.419 . S
C603 C604 1.363 . S
C603 H606 0.929 . S
C604 C603 1.363 . S
C604 C610 1.428 . S
H605 C601 0.930 . S
H606 C603 0.929 . S
S607 N608 1.613 . S
S607 N609 1.610 . S
N608 S607 1.613 . S
N608 C611 1.350 . S
N609 S607 1.610 . S
N609 C610 1.351 . S
C610 C604 1.428 . S
C610 N609 1.351 . S
C610 C611 1.434 . S
C611 C602 1.429 . S
C611 N608 1.350 . S
C611 C610 1.434 . S
C612 C613 1.369 . S
C612 C614 1.419 1_556 S
C612 H616 0.930 . S
C613 C612 1.369 . S
C613 C622 1.429 1_565 S
C614 C612 1.419 1_554 S
C614 C615 1.363 1_565 S
C614 H617 0.929 . S
C615 C614 1.363 1_545 S
C615 C621 1.428 . S
H616 C612 0.930 . S
H617 C614 0.929 . S
S618 N619 1.613 . S
S618 N620 1.610 . S
N619 S618 1.613 . S
N619 C622 1.350 . S
N620 S618 1.610 . S
N620 C621 1.351 1_556 S
C621 C615 1.428 . S
C621 N620 1.351 1_554 S
C621 C622 1.434 1_554 S
C622 C613 1.429 1_545 S
C622 N619 1.350 . S
C622 C621 1.434 1_556 S
C623 C624 1.369 . S
C623 C625 1.419 . S
C623 H627 0.930 . S
C624 C623 1.369 . S
C624 C633 1.429 . S
C625 C623 1.419 . S
C625 C626 1.363 . S
C625 H628 0.929 . S
C626 C625 1.363 . S
C626 C632 1.428 . S
H627 C623 0.930 . S
H628 C625 0.929 . S
S629 N630 1.613 . S
S629 N631 1.610 . S
N630 S629 1.613 . S
N630 C633 1.350 . S
N631 S629 1.610 . S
N631 C632 1.351 . S
C632 C626 1.428 . S
C632 N631 1.351 . S
C632 C633 1.434 . S
C633 C624 1.429 . S
C633 N630 1.350 . S
C633 C632 1.434 . S
C634 C635 1.369 . S
C634 C636 1.419 . S
C634 H638 0.930 . S
C635 C634 1.369 . S
C635 C644 1.429 1_455 S
C636 C634 1.419 . S
C636 C637 1.363 1_455 S
C636 H639 0.929 . S
C637 C636 1.363 1_655 S
C637 C643 1.428 . S
H638 C634 0.930 . S
H639 C636 0.929 . S
S640 N641 1.613 . S
S640 N642 1.610 . S
N641 S640 1.613 . S
N641 C644 1.350 . S
N642 S640 1.610 . S
N642 C643 1.351 . S
C643 C637 1.428 . S
C643 N642 1.351 . S
C643 C644 1.434 . S
C644 C635 1.429 1_655 S
C644 N641 1.350 . S
C644 C643 1.434 . S
C645 C646 1.369 . S
C645 C647 1.419 1_564 S
C645 H649 0.930 . S
C646 C645 1.369 . S
C646 C655 1.429 . S
C647 C645 1.419 1_546 S
C647 C648 1.363 . S
C647 H650 0.929 . S
C648 C647 1.363 . S
C648 C654 1.428 . S
H649 C645 0.930 . S
H650 C647 0.929 . S
S651 N652 1.613 1_545 S
S651 N653 1.610 1_554 S
N652 S651 1.613 1_565 S
N652 C655 1.350 . S
N653 S651 1.610 1_556 S
N653 C654 1.351 . S
C654 C648 1.428 . S
C654 N653 1.351 . S
C654 C655 1.434 1_546 S
C655 C646 1.429 . S
C655 N652 1.350 . S
C655 C654 1.434 1_564 S
C656 C657 1.369 . S
C656 C658 1.419 . S
C656 H660 0.930 . S
C657 C656 1.369 . S
C657 C666 1.429 . S
C658 C656 1.419 . S
C658 C659 1.363 . S
C658 H661 0.929 . S
C659 C658 1.363 . S
C659 C665 1.428 . S
H660 C656 0.930 . S
H661 C658 0.929 . S
S662 N663 1.613 . S
S662 N664 1.610 . S
N663 S662 1.613 . S
N663 C666 1.350 . S
N664 S662 1.610 . S
N664 C665 1.351 . S
C665 C659 1.428 . S
C665 N664 1.351 . S
C665 C666 1.434 . S
C666 C657 1.429 . S
C666 N663 1.350 . S
C666 C665 1.434 . S
C667 C668 1.369 . S
C667 C669 1.419 . S
C667 H671 0.930 . S
C668 C667 1.369 . S
C668 C677 1.429 1_455 S
C669 C667 1.419 . S
C669 C670 1.363 1_455 S
C669 H672 0.929 . S
C670 C669 1.363 1_655 S
C670 C676 1.428 . S
H671 C667 0.930 . S
H672 C669 0.929 . S
S673 N674 1.613 . S
S673 N675 1.610 . S
N674 S673 1.613 . S
N674 C677 1.350 . S
N675 S673 1.610 . S
N675 C676 1.351 . S
C676 C670 1.428 . S
C676 N675 1.351 . S
C676 C677 1.434 . S
C677 C668 1.429 1_655 S
C677 N674 1.350 . S
C677 C676 1.434 . S
C678 C679 1.355 1_565 S
C678 C680 1.438 . S
C678 H682 0.924 . S
C679 C678 1.355 1_545 S
C679 C688 1.429 . S
C680 C678 1.438 . S
C680 C681 1.363 . S
C680 H683 0.929 . S
C681 C680 1.363 . S
C681 C687 1.428 1_565 S
H682 C678 0.924 . S
H683 C680 0.929 . S
S684 N685 1.613 . S
S684 N686 1.610 . S
N685 S684 1.613 . S
N685 C688 1.350 . S
N686 S684 1.610 . S
N686 C687 1.351 . S
C687 C681 1.428 1_545 S
C687 N686 1.351 . S
C687 C688 1.434 . S
C688 C679 1.429 . S
C688 N685 1.350 . S
C688 C687 1.434 . S
C689 C690 1.369 . S
C689 C691 1.419 . S
C689 H693 0.930 . S
C690 C689 1.369 . S
C690 C699 1.429 . S
C691 C689 1.419 . S
C691 C692 1.363 . S
C691 H694 0.929 . S
C692 C691 1.363 . S
C692 C698 1.428 . S
H693 C689 0.930 . S
H694 C691 0.929 . S
S695 N696 1.613 . S
S695 N697 1.610 . S
N696 S695 1.613 . S
N696 C699 1.350 . S
N697 S695 1.610 . S
N697 C698 1.351 . S
C698 C692 1.428 . S
C698 N697 1.351 . S
C698 C699 1.434 . S
C699 C690 1.429 . S
C699 N696 1.350 . S
C699 C698 1.434 . S
C700 C701 1.369 . S
C700 C702 1.419 . S
C700 H704 0.930 . S
C701 C700 1.369 . S
C701 C710 1.429 1_655 S
C702 C700 1.419 . S
C702 C703 1.363 1_655 S
C702 H705 0.929 . S
C703 C702 1.363 1_455 S
C703 C709 1.428 . S
H704 C700 0.930 . S
H705 C702 0.929 . S
S706 N707 1.613 . S
S706 N708 1.610 . S
N707 S706 1.613 . S
N707 C710 1.350 . S
N708 S706 1.610 . S
N708 C709 1.351 . S
C709 C703 1.428 . S
C709 N708 1.351 . S
C709 C710 1.434 . S
C710 C701 1.429 1_455 S
C710 N707 1.350 . S
C710 C709 1.434 . S
C711 C712 1.369 . S
C711 C713 1.419 . S
C711 H715 0.930 . S
C712 C711 1.369 . S
C712 C721 1.429 1_455 S
C713 C711 1.419 . S
C713 C714 1.363 1_455 S
C713 H716 0.929 . S
C714 C713 1.363 1_655 S
C714 C720 1.428 . S
H715 C711 0.930 . S
H716 C713 0.929 . S
S717 N718 1.613 . S
S717 N719 1.610 . S
N718 S717 1.613 . S
N718 C721 1.350 . S
N719 S717 1.610 . S
N719 C720 1.351 . S
C720 C714 1.428 . S
C720 N719 1.351 . S
C720 C721 1.434 . S
C721 C712 1.429 1_655 S
C721 N718 1.350 . S
C721 C720 1.434 . S
C722 C723 1.369 . S
C722 C724 1.419 1_565 S
C722 H726 0.930 . S
C723 C722 1.369 . S
C723 C732 1.424 1_565 S
C724 C722 1.419 1_545 S
C724 C725 1.363 . S
C724 H727 0.929 . S
C725 C724 1.363 . S
C725 C731 1.428 . S
H726 C722 0.930 . S
H727 C724 0.929 . S
S728 N729 1.613 . S
S728 N730 1.610 . S
N729 S728 1.613 . S
N729 C732 1.353 . S
N730 S728 1.610 . S
N730 C731 1.351 . S
C731 C725 1.428 . S
C731 N730 1.351 . S
C731 C732 1.436 . S
C732 C723 1.424 1_545 S
C732 N729 1.353 . S
C732 C731 1.436 . S
C733 C734 1.369 . S
C733 C735 1.419 . S
C733 H737 0.930 . S
C734 C733 1.369 . S
C734 C743 1.429 . S
C735 C733 1.419 . S
C735 C736 1.363 . S
C735 H738 0.929 . S
C736 C735 1.363 . S
C736 C742 1.428 . S
H737 C733 0.930 . S
H738 C735 0.929 . S
S739 N740 1.613 1_556 S
S739 N741 1.610 1_556 S
N740 S739 1.613 1_554 S
N740 C743 1.350 . S
N741 S739 1.610 1_554 S
N741 C742 1.351 . S
C742 C736 1.428 . S
C742 N741 1.351 . S
C742 C743 1.434 . S
C743 C734 1.429 . S
C743 N740 1.350 . S
C743 C742 1.434 . S
C744 C745 1.369 . S
C744 C746 1.419 1_565 S
C744 H748 0.930 . S
C745 C744 1.369 . S
C745 C754 1.429 . S
C746 C744 1.419 1_545 S
C746 C747 1.363 . S
C746 H749 0.929 . S
C747 C746 1.363 . S
C747 C753 1.428 . S
H748 C744 0.930 . S
H749 C746 0.929 . S
S750 N751 1.613 . S
S750 N752 1.610 1_565 S
N751 S750 1.613 . S
N751 C754 1.350 . S
N752 S750 1.610 1_545 S
N752 C753 1.351 . S
C753 C747 1.428 . S
C753 N752 1.351 . S
C753 C754 1.434 1_545 S
C754 C745 1.429 . S
C754 N751 1.350 . S
C754 C753 1.434 1_565 S
C755 C756 1.369 . S
C755 C757 1.419 . S
C755 H759 0.930 . S
C756 C755 1.369 . S
C756 C765 1.429 . S
C757 C755 1.419 . S
C757 C758 1.363 . S
C757 H760 0.929 . S
C758 C757 1.363 . S
C758 C764 1.428 . S
H759 C755 0.930 . S
H760 C757 0.929 . S
S761 N762 1.613 . S
S761 N763 1.610 . S
N762 S761 1.613 . S
N762 C765 1.350 . S
N763 S761 1.610 . S
N763 C764 1.351 . S
C764 C758 1.428 . S
C764 N763 1.351 . S
C764 C765 1.434 . S
C765 C756 1.429 . S
C765 N762 1.350 . S
C765 C764 1.434 . S
C766 C767 1.369 . S
C766 C768 1.419 1_655 S
C766 H770 0.930 . S
C767 C766 1.369 . S
C767 C776 1.429 . S
C768 C766 1.419 1_455 S
C768 C769 1.363 . S
C768 H771 0.929 . S
C769 C768 1.363 . S
C769 C775 1.428 . S
H770 C766 0.930 . S
H771 C768 0.929 . S
S772 N773 1.613 . S
S772 N774 1.610 1_655 S
N773 S772 1.613 . S
N773 C776 1.350 . S
N774 S772 1.610 1_455 S
N774 C775 1.351 . S
C775 C769 1.428 . S
C775 N774 1.351 . S
C775 C776 1.434 1_455 S
C776 C767 1.429 . S
C776 N773 1.350 . S
C776 C775 1.434 1_655 S
C777 C778 1.369 . S
C777 C779 1.419 1_545 S
C777 H781 0.930 . S
C778 C777 1.369 . S
C778 C787 1.429 . S
C779 C777 1.419 1_565 S
C779 C780 1.363 . S
C779 H782 0.929 . S
C780 C779 1.363 . S
C780 C786 1.428 . S
H781 C777 0.930 . S
H782 C779 0.929 . S
S783 N784 1.613 . S
S783 N785 1.610 1_545 S
N784 S783 1.613 . S
N784 C787 1.350 . S
N785 S783 1.610 1_565 S
N785 C786 1.351 . S
C786 C780 1.428 . S
C786 N785 1.351 . S
C786 C787 1.434 1_565 S
C787 C778 1.429 . S
C787 N784 1.350 . S
C787 C786 1.434 1_545 S
C788 C789 1.369 . S
C788 C790 1.419 . S
C788 H792 0.930 . S
C789 C788 1.369 . S
C789 C798 1.429 . S
C790 C788 1.419 . S
C790 C791 1.363 . S
C790 H793 0.929 . S
C791 C790 1.363 . S
C791 C797 1.428 . S
H792 C788 0.930 . S
H793 C790 0.929 . S
S794 N795 1.613 . S
S794 N796 1.610 . S
N795 S794 1.613 . S
N795 C798 1.350 . S
N796 S794 1.610 . S
N796 C797 1.351 . S
C797 C791 1.428 . S
C797 N796 1.351 . S
C797 C798 1.434 . S
C798 C789 1.429 . S
C798 N795 1.350 . S
C798 C797 1.434 . S
C799 C800 1.369 . S
C799 C801 1.419 1_455 S
C799 H803 0.930 . S
C800 C799 1.369 . S
C800 C809 1.429 . S
C801 C799 1.419 1_655 S
C801 C802 1.363 . S
C801 H804 0.929 . S
C802 C801 1.363 . S
C802 C808 1.428 . S
H803 C799 0.930 . S
H804 C801 0.929 . S
S805 N806 1.613 . S
S805 N807 1.610 1_455 S
N806 S805 1.613 . S
N806 C809 1.350 . S
N807 S805 1.610 1_655 S
N807 C808 1.351 . S
C808 C802 1.428 . S
C808 N807 1.351 . S
C808 C809 1.434 1_655 S
C809 C800 1.429 . S
C809 N806 1.350 . S
C809 C808 1.434 1_455 S
C810 C811 1.369 . S
C810 C812 1.419 . S
C810 H814 0.930 . S
C811 C810 1.369 . S
C811 C820 1.429 . S
C812 C810 1.419 . S
C812 C813 1.363 . S
C812 H815 0.929 . S
C813 C812 1.363 . S
C813 C819 1.428 . S
H814 C810 0.930 . S
H815 C812 0.929 . S
S816 N817 1.613 . S
S816 N818 1.610 . S
N817 S816 1.613 . S
N817 C820 1.350 . S
N818 S816 1.610 . S
N818 C819 1.351 . S
C819 C813 1.428 . S
C819 N818 1.351 . S
C819 C820 1.434 . S
C820 C811 1.429 . S
C820 N817 1.350 . S
C820 C819 1.434 . S
C821 C822 1.369 . S
C821 C823 1.419 . S
C821 H825 0.930 . S
C822 C821 1.369 . S
C822 C831 1.429 . S
C823 C821 1.419 . S
C823 C824 1.363 . S
C823 H826 0.929 . S
C824 C823 1.363 . S
C824 C830 1.428 . S
H825 C821 0.930 . S
H826 C823 0.929 . S
S827 N828 1.613 . S
S827 N829 1.610 . S
N828 S827 1.613 . S
N828 C831 1.350 . S
N829 S827 1.610 . S
N829 C830 1.351 . S
C830 C824 1.428 . S
C830 N829 1.351 . S
C830 C831 1.434 . S
C831 C822 1.429 . S
C831 N828 1.350 . S
C831 C830 1.434 . S
C832 C833 1.369 . S
C832 C834 1.419 . S
C832 H836 0.930 . S
C833 C832 1.369 . S
C833 C842 1.429 . S
C834 C832 1.419 . S
C834 C835 1.363 . S
C834 H837 0.929 . S
C835 C834 1.363 . S
C835 C841 1.428 . S
H836 C832 0.930 . S
H837 C834 0.929 . S
S838 N839 1.613 . S
S838 N840 1.610 . S
N839 S838 1.613 . S
N839 C842 1.350 . S
N840 S838 1.610 . S
N840 C841 1.351 . S
C841 C835 1.428 . S
C841 N840 1.351 . S
C841 C842 1.434 . S
C842 C833 1.429 . S
C842 N839 1.350 . S
C842 C841 1.434 . S
C843 C844 1.369 . S
C843 C845 1.419 . S
C843 H847 0.930 . S
C844 C843 1.369 . S
C844 C853 1.429 . S
C845 C843 1.419 . S
C845 C846 1.363 . S
C845 H848 0.929 . S
C846 C845 1.363 . S
C846 C852 1.428 . S
H847 C843 0.930 . S
H848 C845 0.929 . S
S849 N850 1.613 . S
S849 N851 1.610 . S
N850 S849 1.613 . S
N850 C853 1.350 . S
N851 S849 1.610 . S
N851 C852 1.351 . S
C852 C846 1.428 . S
C852 N851 1.351 . S
C852 C853 1.434 . S
C853 C844 1.429 . S
C853 N850 1.350 . S
C853 C852 1.434 . S
C854 C855 1.369 . S
C854 C856 1.419 . S
C854 H858 0.930 . S
C855 C854 1.369 . S
C855 C864 1.429 . S
C856 C854 1.419 . S
C856 C857 1.363 . S
C856 H859 0.929 . S
C857 C856 1.363 . S
C857 C863 1.428 . S
H858 C854 0.930 . S
H859 C856 0.929 . S
S860 N861 1.613 . S
S860 N862 1.610 . S
N861 S860 1.613 . S
N861 C864 1.350 . S
N862 S860 1.610 . S
N862 C863 1.351 . S
C863 C857 1.428 . S
C863 N862 1.351 . S
C863 C864 1.434 . S
C864 C855 1.429 . S
C864 N861 1.350 . S
C864 C863 1.434 . S
C865 C866 1.369 . S
C865 C867 1.419 . S
C865 H869 0.930 . S
C866 C865 1.369 . S
C866 C875 1.429 . S
C867 C865 1.419 . S
C867 C868 1.363 . S
C867 H870 0.929 . S
C868 C867 1.363 . S
C868 C874 1.428 . S
H869 C865 0.930 . S
H870 C867 0.929 . S
S871 N872 1.613 . S
S871 N873 1.610 . S
N872 S871 1.613 . S
N872 C875 1.350 . S
N873 S871 1.610 . S
N873 C874 1.351 . S
C874 C868 1.428 . S
C874 N873 1.351 . S
C874 C875 1.434 . S
C875 C866 1.429 . S
C875 N872 1.350 . S
C875 C874 1.434 . S
C481 C18 1.297 . S
C483 C338 1.290 . S
C492 C58 1.292 . S
C494 C378 1.293 . S
C503 C98 1.300 . S
C505 C418 1.289 . S
C514 C458 1.288 . S
C516 C138 1.301 . S
C525 C178 1.296 . S
C527 C258 1.301 . S
C536 C298 1.288 . S
C538 C218 1.297 . S
C547 C405 1.368 . S
C549 C5 1.369 . S
C558 C445 1.364 . S
C560 C45 1.363 . S
C569 C85 1.363 . S
C571 C245 1.363 . S
C580 C285 1.364 . S
C582 C125 1.363 . S
C591 C325 1.371 . S
C593 C165 1.364 . S
C602 C205 1.370 . S
C604 C365 1.363 . S
C613 C289 4.407 . S
C615 C9 4.409 . S
C624 C329 4.408 . S
C626 C49 4.409 . S
C635 C369 4.407 . S
C637 C89 4.409 . S
C646 C129 4.409 . S
C648 C409 4.410 . S
C657 C169 4.410 . S
C659 C449 4.410 . S
C668 C209 4.408 . S
C670 C249 4.410 . S
C679 C8 1.258 . S
C681 C128 1.268 . S
C690 C48 1.257 . S
C692 C168 1.263 . S
C701 C88 1.268 . S
C703 C208 1.262 . S
C712 C368 1.267 . S
C714 C248 1.257 . S
C723 C288 1.266 . S
C725 C408 1.258 . S
C734 C448 1.259 . S
C736 C328 1.267 . S
C745 C295 0.801 . S
C747 C15 0.825 . S
C756 C335 0.828 . S
C758 C55 0.805 . S
C767 C95 0.806 . S
C769 C375 0.829 . S
C778 C415 0.805 . S
C780 C135 0.818 . S
C789 C455 0.801 . S
C791 C175 0.824 . S
C800 C215 0.813 . S
C802 C255 0.827 . S
C811 C19 4.777 . S
C813 C419 4.777 . S
C822 C59 4.777 . S
C824 C459 4.777 1_556 S
C833 C99 4.777 1_554 S
C835 C259 4.777 . S
C844 C139 4.777 . S
C846 C299 4.777 . S
C855 C179 4.777 . S
C857 C339 4.777 1_556 S
C866 C379 4.777 . S
C868 C219 4.777 1_554 S
