# Generated by pormake.
# Topology wgd, (5)-cn, num edge types: 1
# Building blocks:
#     Node 0, Type 0, BuildingBlock: XOMCOT_clean_sbu_1, # of connection points: 5
#     Node 1, Type 0, BuildingBlock: XOMCOT_clean_sbu_1, # of connection points: 5
#     Node 2, Type 0, BuildingBlock: XOMCOT_clean_sbu_1, # of connection points: 5
#     Node 3, Type 0, BuildingBlock: XOMCOT_clean_sbu_1, # of connection points: 5
#     Node 4, Type 0, BuildingBlock: XOMCOT_clean_sbu_1, # of connection points: 5
#     Node 5, Type 0, BuildingBlock: XOMCOT_clean_sbu_1, # of connection points: 5
#     Node 6, Type 0, BuildingBlock: XOMCOT_clean_sbu_1, # of connection points: 5
#     Node 7, Type 0, BuildingBlock: XOMCOT_clean_sbu_1, # of connection points: 5
#     Node 8, Type 0, BuildingBlock: XOMCOT_clean_sbu_1, # of connection points: 5
#     Node 9, Type 0, BuildingBlock: XOMCOT_clean_sbu_1, # of connection points: 5
#     Node 10, Type 0, BuildingBlock: XOMCOT_clean_sbu_1, # of connection points: 5
#     Node 11, Type 0, BuildingBlock: XOMCOT_clean_sbu_1, # of connection points: 5
#     Node 12, Type 0, BuildingBlock: XOMCOT_clean_sbu_1, # of connection points: 5
#     Node 13, Type 0, BuildingBlock: XOMCOT_clean_sbu_1, # of connection points: 5
#     Node 14, Type 0, BuildingBlock: XOMCOT_clean_sbu_1, # of connection points: 5
#     Node 15, Type 0, BuildingBlock: XOMCOT_clean_sbu_1, # of connection points: 5
#     Node 16, Type 0, BuildingBlock: XOMCOT_clean_sbu_1, # of connection points: 5
#     Node 17, Type 0, BuildingBlock: XOMCOT_clean_sbu_1, # of connection points: 5
#     Node 18, Type 0, BuildingBlock: XOMCOT_clean_sbu_1, # of connection points: 5
#     Node 19, Type 0, BuildingBlock: XOMCOT_clean_sbu_1, # of connection points: 5
#     Node 20, Type 0, BuildingBlock: XOMCOT_clean_sbu_1, # of connection points: 5
#     Node 21, Type 0, BuildingBlock: XOMCOT_clean_sbu_1, # of connection points: 5
#     Node 22, Type 0, BuildingBlock: XOMCOT_clean_sbu_1, # of connection points: 5
#     Node 23, Type 0, BuildingBlock: XOMCOT_clean_sbu_1, # of connection points: 5
#     Node 24, Type 0, BuildingBlock: XOMCOT_clean_sbu_1, # of connection points: 5
#     Node 25, Type 0, BuildingBlock: XOMCOT_clean_sbu_1, # of connection points: 5
#     Node 26, Type 0, BuildingBlock: XOMCOT_clean_sbu_1, # of connection points: 5
#     Node 27, Type 0, BuildingBlock: XOMCOT_clean_sbu_1, # of connection points: 5
#     Node 28, Type 0, BuildingBlock: XOMCOT_clean_sbu_1, # of connection points: 5
#     Node 29, Type 0, BuildingBlock: XOMCOT_clean_sbu_1, # of connection points: 5
#     Node 30, Type 0, BuildingBlock: XOMCOT_clean_sbu_1, # of connection points: 5
#     Node 31, Type 0, BuildingBlock: XOMCOT_clean_sbu_1, # of connection points: 5
#     Edge 32, Type (0, 0), BuildingBlock: CIFDUS_clean_linker_0, # of connection points: 2
#     Edge 33, Type (0, 0), BuildingBlock: CIFDUS_clean_linker_0, # of connection points: 2
#     Edge 34, Type (0, 0), BuildingBlock: CIFDUS_clean_linker_0, # of connection points: 2
#     Edge 35, Type (0, 0), BuildingBlock: CIFDUS_clean_linker_0, # of connection points: 2
#     Edge 36, Type (0, 0), BuildingBlock: CIFDUS_clean_linker_0, # of connection points: 2
#     Edge 37, Type (0, 0), BuildingBlock: CIFDUS_clean_linker_0, # of connection points: 2
#     Edge 38, Type (0, 0), BuildingBlock: CIFDUS_clean_linker_0, # of connection points: 2
#     Edge 39, Type (0, 0), BuildingBlock: CIFDUS_clean_linker_0, # of connection points: 2
#     Edge 40, Type (0, 0), BuildingBlock: CIFDUS_clean_linker_0, # of connection points: 2
#     Edge 41, Type (0, 0), BuildingBlock: CIFDUS_clean_linker_0, # of connection points: 2
#     Edge 42, Type (0, 0), BuildingBlock: CIFDUS_clean_linker_0, # of connection points: 2
#     Edge 43, Type (0, 0), BuildingBlock: CIFDUS_clean_linker_0, # of connection points: 2
#     Edge 44, Type (0, 0), BuildingBlock: CIFDUS_clean_linker_0, # of connection points: 2
#     Edge 45, Type (0, 0), BuildingBlock: CIFDUS_clean_linker_0, # of connection points: 2
#     Edge 46, Type (0, 0), BuildingBlock: CIFDUS_clean_linker_0, # of connection points: 2
#     Edge 47, Type (0, 0), BuildingBlock: CIFDUS_clean_linker_0, # of connection points: 2
#     Edge 48, Type (0, 0), BuildingBlock: CIFDUS_clean_linker_0, # of connection points: 2
#     Edge 49, Type (0, 0), BuildingBlock: CIFDUS_clean_linker_0, # of connection points: 2
#     Edge 50, Type (0, 0), BuildingBlock: CIFDUS_clean_linker_0, # of connection points: 2
#     Edge 51, Type (0, 0), BuildingBlock: CIFDUS_clean_linker_0, # of connection points: 2
#     Edge 52, Type (0, 0), BuildingBlock: CIFDUS_clean_linker_0, # of connection points: 2
#     Edge 53, Type (0, 0), BuildingBlock: CIFDUS_clean_linker_0, # of connection points: 2
#     Edge 54, Type (0, 0), BuildingBlock: CIFDUS_clean_linker_0, # of connection points: 2
#     Edge 55, Type (0, 0), BuildingBlock: CIFDUS_clean_linker_0, # of connection points: 2
#     Edge 56, Type (0, 0), BuildingBlock: CIFDUS_clean_linker_0, # of connection points: 2
#     Edge 57, Type (0, 0), BuildingBlock: CIFDUS_clean_linker_0, # of connection points: 2
#     Edge 58, Type (0, 0), BuildingBlock: CIFDUS_clean_linker_0, # of connection points: 2
#     Edge 59, Type (0, 0), BuildingBlock: CIFDUS_clean_linker_0, # of connection points: 2
#     Edge 60, Type (0, 0), BuildingBlock: CIFDUS_clean_linker_0, # of connection points: 2
#     Edge 61, Type (0, 0), BuildingBlock: CIFDUS_clean_linker_0, # of connection points: 2
#     Edge 62, Type (0, 0), BuildingBlock: CIFDUS_clean_linker_0, # of connection points: 2
#     Edge 63, Type (0, 0), BuildingBlock: CIFDUS_clean_linker_0, # of connection points: 2
#     Edge 64, Type (0, 0), BuildingBlock: CIFDUS_clean_linker_0, # of connection points: 2
#     Edge 65, Type (0, 0), BuildingBlock: CIFDUS_clean_linker_0, # of connection points: 2
#     Edge 66, Type (0, 0), BuildingBlock: CIFDUS_clean_linker_0, # of connection points: 2
#     Edge 67, Type (0, 0), BuildingBlock: CIFDUS_clean_linker_0, # of connection points: 2
#     Edge 68, Type (0, 0), BuildingBlock: CIFDUS_clean_linker_0, # of connection points: 2
#     Edge 69, Type (0, 0), BuildingBlock: CIFDUS_clean_linker_0, # of connection points: 2
#     Edge 70, Type (0, 0), BuildingBlock: CIFDUS_clean_linker_0, # of connection points: 2
#     Edge 71, Type (0, 0), BuildingBlock: CIFDUS_clean_linker_0, # of connection points: 2
#     Edge 72, Type (0, 0), BuildingBlock: CIFDUS_clean_linker_0, # of connection points: 2
#     Edge 73, Type (0, 0), BuildingBlock: CIFDUS_clean_linker_0, # of connection points: 2
#     Edge 74, Type (0, 0), BuildingBlock: CIFDUS_clean_linker_0, # of connection points: 2
#     Edge 75, Type (0, 0), BuildingBlock: CIFDUS_clean_linker_0, # of connection points: 2
#     Edge 76, Type (0, 0), BuildingBlock: CIFDUS_clean_linker_0, # of connection points: 2
#     Edge 77, Type (0, 0), BuildingBlock: CIFDUS_clean_linker_0, # of connection points: 2
#     Edge 78, Type (0, 0), BuildingBlock: CIFDUS_clean_linker_0, # of connection points: 2
#     Edge 79, Type (0, 0), BuildingBlock: CIFDUS_clean_linker_0, # of connection points: 2
#     Edge 80, Type (0, 0), BuildingBlock: CIFDUS_clean_linker_0, # of connection points: 2
#     Edge 81, Type (0, 0), BuildingBlock: CIFDUS_clean_linker_0, # of connection points: 2
#     Edge 82, Type (0, 0), BuildingBlock: CIFDUS_clean_linker_0, # of connection points: 2
#     Edge 83, Type (0, 0), BuildingBlock: CIFDUS_clean_linker_0, # of connection points: 2
#     Edge 84, Type (0, 0), BuildingBlock: CIFDUS_clean_linker_0, # of connection points: 2
#     Edge 85, Type (0, 0), BuildingBlock: CIFDUS_clean_linker_0, # of connection points: 2
#     Edge 86, Type (0, 0), BuildingBlock: CIFDUS_clean_linker_0, # of connection points: 2
#     Edge 87, Type (0, 0), BuildingBlock: CIFDUS_clean_linker_0, # of connection points: 2
#     Edge 88, Type (0, 0), BuildingBlock: CIFDUS_clean_linker_0, # of connection points: 2
#     Edge 89, Type (0, 0), BuildingBlock: CIFDUS_clean_linker_0, # of connection points: 2
#     Edge 90, Type (0, 0), BuildingBlock: CIFDUS_clean_linker_0, # of connection points: 2
#     Edge 91, Type (0, 0), BuildingBlock: CIFDUS_clean_linker_0, # of connection points: 2
#     Edge 92, Type (0, 0), BuildingBlock: CIFDUS_clean_linker_0, # of connection points: 2
#     Edge 93, Type (0, 0), BuildingBlock: CIFDUS_clean_linker_0, # of connection points: 2
#     Edge 94, Type (0, 0), BuildingBlock: CIFDUS_clean_linker_0, # of connection points: 2
#     Edge 95, Type (0, 0), BuildingBlock: CIFDUS_clean_linker_0, # of connection points: 2
#     Edge 96, Type (0, 0), BuildingBlock: CIFDUS_clean_linker_0, # of connection points: 2
#     Edge 97, Type (0, 0), BuildingBlock: CIFDUS_clean_linker_0, # of connection points: 2
#     Edge 98, Type (0, 0), BuildingBlock: CIFDUS_clean_linker_0, # of connection points: 2
#     Edge 99, Type (0, 0), BuildingBlock: CIFDUS_clean_linker_0, # of connection points: 2
#     Edge 100, Type (0, 0), BuildingBlock: CIFDUS_clean_linker_0, # of connection points: 2
#     Edge 101, Type (0, 0), BuildingBlock: CIFDUS_clean_linker_0, # of connection points: 2
#     Edge 102, Type (0, 0), BuildingBlock: CIFDUS_clean_linker_0, # of connection points: 2
#     Edge 103, Type (0, 0), BuildingBlock: CIFDUS_clean_linker_0, # of connection points: 2
#     Edge 104, Type (0, 0), BuildingBlock: CIFDUS_clean_linker_0, # of connection points: 2
#     Edge 105, Type (0, 0), BuildingBlock: CIFDUS_clean_linker_0, # of connection points: 2
#     Edge 106, Type (0, 0), BuildingBlock: CIFDUS_clean_linker_0, # of connection points: 2
#     Edge 107, Type (0, 0), BuildingBlock: CIFDUS_clean_linker_0, # of connection points: 2
#     Edge 108, Type (0, 0), BuildingBlock: CIFDUS_clean_linker_0, # of connection points: 2
#     Edge 109, Type (0, 0), BuildingBlock: CIFDUS_clean_linker_0, # of connection points: 2
#     Edge 110, Type (0, 0), BuildingBlock: CIFDUS_clean_linker_0, # of connection points: 2
#     Edge 111, Type (0, 0), BuildingBlock: CIFDUS_clean_linker_0, # of connection points: 2
# Relax obj value: 0.189
# Max RMSD: 0.167
# Mean RMSD: 0.167
data_MOF--net-wgd--node1-XOMCOT_clean_sbu_1--edge1-CIFDUS_clean_linker_0
_symmetry_space_group_name_H-M    P1
_symmetry_Int_Tables_number       1
_symmetry_cell_setting            triclinic
loop_
_symmetry_equiv_pos_as_xyz
'x, y, z'
_cell_length_a     90.692839
_cell_length_b     90.663179
_cell_length_c     15.536701
_cell_angle_alpha  90.008794
_cell_angle_beta   89.983312
_cell_angle_gamma 90.082269
loop_
_atom_site_label
_atom_site_type_symbol
_atom_site_fract_x
_atom_site_fract_y
_atom_site_fract_z
_atom_type_partial_charge
C0 C 0.16518 0.16787 0.17887 0.0
C1 C 0.16256 0.16796 0.26627 0.0
N2 N 0.17244 0.15909 0.30535 0.0
N3 N 0.17672 0.15901 0.16173 0.0
C4 C 0.18075 0.15363 0.23999 0.0
H5 H 0.15947 0.17439 0.13111 0.0
Co6 Co 0.18583 0.15743 0.05219 0.0
C7 C 0.21458 0.14295 0.11509 0.0
O8 O 0.21558 0.13214 0.0591 0.0
N9 N 0.19477 0.15604 0.94187 0.0
C10 C 0.21091 0.15794 0.8345 0.0
C11 C 0.209 0.15877 0.92229 0.0
C12 C 0.18821 0.1538 0.86417 0.0
N13 N 0.19783 0.15481 0.79729 0.0
O14 O 0.17977 0.13717 0.04412 0.0
H15 H 0.21739 0.16179 0.96847 0.0
H16 H 0.17654 0.15173 0.85672 0.0
O17 O 0.20393 0.15207 0.11073 0.0
C18 C 0.16677 0.1361 0.01363 0.0
O19 O 0.1594 0.1482 0.99644 0.0
N20 N 0.19088 0.17754 0.05704 0.0
C21 C 0.19602 0.20797 0.05633 0.0
C22 C 0.20321 0.19875 0.11546 0.0
C23 C 0.20041 0.1836 0.11518 0.0
C24 C 0.18369 0.18628 0.99949 0.0
C25 C 0.18613 0.20151 0.99775 0.0
H26 H 0.20581 0.17689 0.1626 0.0
H27 H 0.1759 0.1814 0.9551 0.0
H28 H 0.18975 0.146 0.24915 0.0
H29 H 0.15441 0.17468 0.29869 0.0
H30 H 0.22111 0.16012 0.80065 0.0
H31 H 0.21098 0.20318 0.16165 0.0
H32 H 0.18006 0.20818 0.9521 0.0
C33 C 0.08911 0.92389 0.39499 0.0
C34 C 0.08969 0.92243 0.48325 0.0
N35 N 0.09999 0.93181 0.51346 0.0
N36 N 0.09881 0.93435 0.37008 0.0
C37 C 0.10554 0.93864 0.44349 0.0
H38 H 0.08158 0.9182 0.35244 0.0
Co39 Co 0.1006 0.94307 0.26192 0.0
C40 C 0.10513 0.9754 0.30626 0.0
O41 O 0.099 0.98032 0.23529 0.0
N42 N 0.10275 0.95162 0.15192 0.0
C43 C 0.11412 0.96125 0.03784 0.0
C44 C 0.11418 0.96011 0.12607 0.0
C45 C 0.09614 0.94747 0.07766 0.0
N46 N 0.10281 0.95317 0.00735 0.0
O47 O 0.1208 0.93665 0.25489 0.0
H48 H 0.12267 0.96437 0.16821 0.0
H49 H 0.08756 0.93927 0.07398 0.0
O50 O 0.10624 0.96153 0.3194 0.0
C51 C 0.1209 0.92524 0.20678 0.0
O52 O 0.10821 0.92 0.17961 0.0
N53 N 0.08036 0.94782 0.26543 0.0
C54 C 0.04954 0.94804 0.274 0.0
C55 C 0.05789 0.95864 0.31852 0.0
C56 C 0.07335 0.95819 0.31459 0.0
C57 C 0.07234 0.93747 0.22247 0.0
C58 C 0.05701 0.93752 0.22457 0.0
H59 H 0.07947 0.96566 0.35489 0.0
H60 H 0.07792 0.92854 0.18999 0.0
H61 H 0.11379 0.94725 0.44646 0.0
H62 H 0.08276 0.91537 0.5223 0.0
H63 H 0.12224 0.96697 0.9992 0.0
H64 H 0.05256 0.9667 0.35942 0.0
H65 H 0.05107 0.92906 0.18949 0.0
C66 C 0.33545 0.84667 0.67086 0.0
C67 C 0.33778 0.84661 0.7584 0.0
N68 N 0.32482 0.84413 0.79866 0.0
N69 N 0.32104 0.84437 0.6547 0.0
C70 C 0.31487 0.84279 0.7339 0.0
H71 H 0.34382 0.84826 0.62234 0.0
Co72 Co 0.31211 0.84338 0.54491 0.0
C73 C 0.28486 0.86059 0.57636 0.0
O74 O 0.28659 0.86817 0.505 0.0
N75 N 0.3031 0.84211 0.4343 0.0
C76 C 0.28675 0.83728 0.33087 0.0
C77 C 0.28914 0.83767 0.41832 0.0
C78 C 0.30901 0.84407 0.35471 0.0
N79 N 0.29927 0.84132 0.29048 0.0
O80 O 0.31843 0.86327 0.52096 0.0
H81 H 0.28121 0.83463 0.4672 0.0
H82 H 0.32026 0.84736 0.34337 0.0
O83 O 0.29404 0.85055 0.59647 0.0
C84 C 0.33061 0.86388 0.48015 0.0
O85 O 0.33754 0.85157 0.46168 0.0
N86 N 0.30707 0.82375 0.56518 0.0
C87 C 0.30284 0.79335 0.57576 0.0
C88 C 0.29311 0.80308 0.61721 0.0
C89 C 0.29538 0.81834 0.61083 0.0
C90 C 0.31677 0.81447 0.52624 0.0
C91 C 0.31484 0.79925 0.53039 0.0
H92 H 0.28768 0.82568 0.64197 0.0
H93 H 0.326 0.819 0.49086 0.0
H94 H 0.30332 0.84041 0.74375 0.0
H95 H 0.34829 0.84842 0.7895 0.0
H96 H 0.27664 0.83389 0.29966 0.0
H97 H 0.28369 0.79896 0.65274 0.0
H98 H 0.32277 0.79215 0.49876 0.0
C99 C 0.42167 0.07863 0.89353 0.0
C100 C 0.42269 0.08123 0.98076 0.0
N101 N 0.41539 0.07045 0.02268 0.0
N102 N 0.41376 0.06627 0.87991 0.0
C103 C 0.40995 0.06162 0.95985 0.0
H104 H 0.42668 0.08515 0.84307 0.0
Co105 Co 0.41071 0.05794 0.77055 0.0
C106 C 0.40541 0.02587 0.80549 0.0
O107 O 0.41316 0.0223 0.73713 0.0
N108 N 0.40741 0.05003 0.65774 0.0
C109 C 0.3954 0.03965 0.54764 0.0
C110 C 0.39567 0.04162 0.63536 0.0
C111 C 0.41364 0.05363 0.58085 0.0
N112 N 0.40665 0.0473 0.51339 0.0
O113 O 0.39102 0.0657 0.76864 0.0
H114 H 0.38735 0.0377 0.67968 0.0
H115 H 0.42264 0.06129 0.57312 0.0
O116 O 0.40366 0.0395 0.82508 0.0
C117 C 0.38956 0.07624 0.71497 0.0
O118 O 0.40113 0.08074 0.67136 0.0
N119 N 0.43049 0.05158 0.77145 0.0
C120 C 0.46105 0.04754 0.77808 0.0
C121 C 0.45164 0.03933 0.83147 0.0
C122 C 0.43641 0.04169 0.82829 0.0
C123 C 0.43956 0.06009 0.72225 0.0
C124 C 0.45479 0.05806 0.72303 0.0
H125 H 0.42958 0.03611 0.87485 0.0
H126 H 0.43502 0.06915 0.68583 0.0
H127 H 0.4032 0.05208 0.97206 0.0
H128 H 0.42872 0.09015 0.01096 0.0
H129 H 0.38709 0.03374 0.5113 0.0
H130 H 0.45603 0.03139 0.8768 0.0
H131 H 0.46166 0.06519 0.68397 0.0
C132 C 0.17357 0.83719 0.8235 0.0
C133 C 0.17258 0.83801 0.73524 0.0
N134 N 0.18294 0.84754 0.70728 0.0
N135 N 0.18455 0.84611 0.85028 0.0
C136 C 0.18972 0.85256 0.77849 0.0
H137 H 0.16743 0.8298 0.86483 0.0
Co138 Co 0.19273 0.84652 0.95873 0.0
C139 C 0.22115 0.86229 0.92898 0.0
O140 O 0.21956 0.8705 0.99798 0.0
N141 N 0.20054 0.84664 0.06747 0.0
C142 C 0.21353 0.84233 0.18543 0.0
C143 C 0.21372 0.84199 0.09688 0.0
C144 C 0.19252 0.84956 0.13807 0.0
N145 N 0.20011 0.84703 0.21089 0.0
O146 O 0.18672 0.86679 0.97262 0.0
H147 H 0.22261 0.83799 0.05679 0.0
H148 H 0.18113 0.85301 0.13586 0.0
O149 O 0.21154 0.85257 0.90975 0.0
C150 C 0.17293 0.86808 0.98662 0.0
O151 O 0.16465 0.85618 0.98673 0.0
N152 N 0.19757 0.82655 0.94785 0.0
C153 C 0.20079 0.79599 0.93793 0.0
C154 C 0.20974 0.80536 0.88829 0.0
C155 C 0.20787 0.82068 0.89356 0.0
C156 C 0.1889 0.81763 0.9969 0.0
C157 C 0.19034 0.80234 0.99318 0.0
H158 H 0.21445 0.82772 0.85264 0.0
H159 H 0.18064 0.82246 0.03847 0.0
H160 H 0.1988 0.86025 0.77775 0.0
H161 H 0.16564 0.83123 0.69459 0.0
H162 H 0.22229 0.83867 0.22754 0.0
H163 H 0.21781 0.80088 0.84404 0.0
H164 H 0.1833 0.79555 0.03326 0.0
C165 C 0.41974 0.91765 0.09264 0.0
C166 C 0.42061 0.91659 0.00421 0.0
N167 N 0.41194 0.92713 0.97051 0.0
N168 N 0.41063 0.92885 0.11344 0.0
C169 C 0.40576 0.93409 0.0378 0.0
H170 H 0.42608 0.91135 0.13868 0.0
Co171 Co 0.40821 0.93691 0.22127 0.0
C172 C 0.40347 0.96922 0.19033 0.0
O173 O 0.41177 0.97228 0.25735 0.0
N174 N 0.40555 0.94435 0.33239 0.0
C175 C 0.39429 0.95304 0.44938 0.0
C176 C 0.39456 0.95319 0.36094 0.0
C177 C 0.41126 0.93845 0.40472 0.0
N178 N 0.40473 0.94362 0.47609 0.0
O179 O 0.38845 0.92929 0.22623 0.0
H180 H 0.38643 0.95843 0.3204 0.0
H181 H 0.41902 0.92946 0.40583 0.0
O182 O 0.40107 0.95571 0.17 0.0
C183 C 0.38742 0.91781 0.27325 0.0
O184 O 0.39941 0.9123 0.30788 0.0
N185 N 0.42815 0.94336 0.21683 0.0
C186 C 0.45852 0.94888 0.20608 0.0
C187 C 0.44856 0.95645 0.15312 0.0
C188 C 0.43348 0.95329 0.15811 0.0
C189 C 0.43782 0.93526 0.26451 0.0
C190 C 0.45295 0.93806 0.26177 0.0
H191 H 0.42629 0.95841 0.11168 0.0
H192 H 0.43395 0.92594 0.30104 0.0
H193 H 0.39825 0.94321 0.03148 0.0
H194 H 0.42782 0.90941 0.96783 0.0
H195 H 0.38625 0.95837 0.49044 0.0
H196 H 0.45238 0.96455 0.10701 0.0
H197 H 0.46029 0.93131 0.30011 0.0
C198 C 0.33299 0.16544 0.351 0.0
C199 C 0.33375 0.16503 0.26243 0.0
N200 N 0.32402 0.15487 0.23422 0.0
N201 N 0.32271 0.1557 0.37768 0.0
C202 C 0.3179 0.14909 0.30548 0.0
H203 H 0.33877 0.17307 0.39251 0.0
Co204 Co 0.31425 0.15392 0.48516 0.0
C205 C 0.28198 0.15044 0.4455 0.0
O206 O 0.27831 0.15896 0.51053 0.0
N207 N 0.30598 0.15177 0.59462 0.0
C208 C 0.29693 0.14014 0.70924 0.0
C209 C 0.29705 0.14069 0.62087 0.0
C210 C 0.31127 0.15761 0.66821 0.0
N211 N 0.30609 0.15068 0.73854 0.0
O212 O 0.32081 0.13382 0.49135 0.0
H213 H 0.29212 0.13257 0.57879 0.0
H214 H 0.31986 0.16581 0.67082 0.0
O215 O 0.29559 0.14775 0.43101 0.0
C216 C 0.33183 0.13261 0.54186 0.0
O217 O 0.3372 0.14452 0.5784 0.0
N218 N 0.3093 0.17417 0.48094 0.0
C219 C 0.30842 0.20501 0.47224 0.0
C220 C 0.29847 0.19641 0.42444 0.0
C221 C 0.29934 0.18097 0.42801 0.0
C222 C 0.31928 0.18245 0.52531 0.0
C223 C 0.31885 0.19778 0.52345 0.0
H224 H 0.29257 0.17467 0.38441 0.0
H225 H 0.32829 0.17711 0.55813 0.0
H226 H 0.30953 0.14063 0.30468 0.0
H227 H 0.34009 0.1724 0.22202 0.0
H228 H 0.2917 0.13175 0.74833 0.0
H229 H 0.29064 0.20155 0.3813 0.0
H230 H 0.32696 0.20392 0.5601 0.0
C231 C 0.08216 0.07699 0.62818 0.0
C232 C 0.08183 0.07793 0.5396 0.0
N233 N 0.09136 0.06793 0.50812 0.0
N234 N 0.09177 0.06638 0.65136 0.0
C235 C 0.09753 0.06146 0.57707 0.0
H236 H 0.07505 0.08284 0.67242 0.0
Co237 Co 0.09375 0.05799 0.75876 0.0
C238 C 0.09818 0.02574 0.72191 0.0
O239 O 0.08948 0.02238 0.78675 0.0
N240 N 0.09602 0.0501 0.86908 0.0
C241 C 0.10714 0.041 0.98533 0.0
C242 C 0.10676 0.04092 0.89692 0.0
C243 C 0.09049 0.05604 0.94183 0.0
N244 N 0.09699 0.05068 0.01291 0.0
O245 O 0.11353 0.0657 0.7677 0.0
H246 H 0.11477 0.03556 0.85602 0.0
H247 H 0.08291 0.06517 0.94335 0.0
O248 O 0.10096 0.03934 0.70573 0.0
C249 C 0.11346 0.0774 0.81341 0.0
O250 O 0.10072 0.08258 0.83994 0.0
N251 N 0.07378 0.05175 0.75164 0.0
C252 C 0.04322 0.04762 0.73725 0.0
C253 C 0.05301 0.03963 0.68523 0.0
C254 C 0.06822 0.04212 0.69188 0.0
C255 C 0.06432 0.06006 0.79941 0.0
C256 C 0.04911 0.05795 0.79494 0.0
H257 H 0.07534 0.03686 0.64556 0.0
H258 H 0.06846 0.0691 0.83731 0.0
H259 H 0.10558 0.05277 0.57287 0.0
H260 H 0.07435 0.08455 0.5015 0.0
H261 H 0.11513 0.03547 0.02571 0.0
H262 H 0.04893 0.03204 0.63691 0.0
H263 H 0.04202 0.06466 0.83508 0.0
C264 C 0.83384 0.82616 0.86775 0.0
C265 C 0.83601 0.82499 0.78024 0.0
N266 N 0.82839 0.83579 0.74043 0.0
N267 N 0.82478 0.83759 0.88412 0.0
C268 C 0.82187 0.8434 0.80531 0.0
H269 H 0.83829 0.81887 0.91624 0.0
Co270 Co 0.81723 0.84287 0.99362 0.0
C271 C 0.78588 0.85274 0.94222 0.0
O272 O 0.77937 0.85087 0.01692 0.0
N273 N 0.81006 0.84844 0.10437 0.0
C274 C 0.80164 0.86287 0.20981 0.0
C275 C 0.80325 0.86132 0.12221 0.0
C276 C 0.81301 0.84267 0.18344 0.0
N277 N 0.80784 0.85115 0.24874 0.0
O278 O 0.82664 0.86181 0.9857 0.0
H279 H 0.8003 0.8695 0.07466 0.0
H280 H 0.8193 0.83274 0.19373 0.0
O281 O 0.79966 0.85014 0.93405 0.0
C282 C 0.84003 0.86059 0.00924 0.0
O283 O 0.84515 0.8474 0.02722 0.0
N284 N 0.80914 0.82375 0.00475 0.0
C285 C 0.80171 0.79395 0.02422 0.0
C286 C 0.7933 0.80322 0.97123 0.0
C287 C 0.79725 0.81807 0.96179 0.0
C288 C 0.81771 0.81474 0.05389 0.0
C289 C 0.81408 0.79991 0.06569 0.0
H290 H 0.79099 0.82467 0.91754 0.0
H291 H 0.82775 0.819 0.08197 0.0
H292 H 0.81502 0.853 0.79564 0.0
H293 H 0.84233 0.81647 0.74847 0.0
H294 H 0.79697 0.87232 0.24245 0.0
H295 H 0.78381 0.799 0.93675 0.0
H296 H 0.82123 0.79306 0.1046 0.0
C297 C 0.91399 0.07515 0.60565 0.0
C298 C 0.91318 0.07612 0.51724 0.0
N299 N 0.90365 0.06574 0.48959 0.0
N300 N 0.90509 0.06414 0.6324 0.0
C301 C 0.89866 0.05895 0.56066 0.0
H302 H 0.92123 0.08142 0.64718 0.0
Co303 Co 0.90348 0.05608 0.74077 0.0
C304 C 0.90492 0.02387 0.70152 0.0
O305 O 0.9143 0.02211 0.7652 0.0
N306 N 0.90126 0.04841 0.85091 0.0
C307 C 0.89147 0.0372 0.96484 0.0
C308 C 0.89323 0.03666 0.87718 0.0
C309 C 0.90345 0.05632 0.92322 0.0
N310 N 0.89787 0.04965 0.99342 0.0
O311 O 0.8829 0.06102 0.74454 0.0
H312 H 0.88777 0.02885 0.83544 0.0
H313 H 0.90801 0.06731 0.92374 0.0
O314 O 0.89934 0.03662 0.68797 0.0
C315 C 0.88165 0.07464 0.76342 0.0
O316 O 0.89367 0.08269 0.7689 0.0
N317 N 0.92422 0.05262 0.73985 0.0
C318 C 0.95512 0.05295 0.73358 0.0
C319 C 0.94697 0.04464 0.6741 0.0
C320 C 0.93151 0.04494 0.67691 0.0
C321 C 0.93209 0.06102 0.7963 0.0
C322 C 0.94745 0.06113 0.79544 0.0
H323 H 0.9255 0.03959 0.6257 0.0
H324 H 0.92656 0.06852 0.83885 0.0
H325 H 0.89088 0.04992 0.55987 0.0
H326 H 0.91981 0.08315 0.4763 0.0
H327 H 0.88508 0.02959 0.00349 0.0
H328 H 0.95246 0.03863 0.62311 0.0
H329 H 0.95327 0.06799 0.84137 0.0
C330 C 0.67229 0.17049 0.33648 0.0
C331 C 0.67113 0.17087 0.24797 0.0
N332 N 0.68147 0.16185 0.21542 0.0
N333 N 0.68333 0.16128 0.35882 0.0
C334 C 0.68852 0.15605 0.28344 0.0
H335 H 0.66622 0.17729 0.38134 0.0
Co336 Co 0.69167 0.15932 0.46789 0.0
C337 C 0.71787 0.14123 0.4088 0.0
O338 O 0.7144 0.12942 0.45343 0.0
N339 N 0.69982 0.15749 0.57663 0.0
C340 C 0.71397 0.15589 0.69271 0.0
C341 C 0.7139 0.15694 0.60417 0.0
C342 C 0.69161 0.15695 0.64869 0.0
N343 N 0.69986 0.15587 0.7204 0.0
O344 O 0.68393 0.13947 0.47898 0.0
H345 H 0.72351 0.1575 0.56311 0.0
H346 H 0.67975 0.15796 0.6485 0.0
O347 O 0.70996 0.15282 0.41451 0.0
C348 C 0.67066 0.14101 0.50505 0.0
O349 O 0.66489 0.15429 0.50119 0.0
N350 N 0.69782 0.17904 0.46337 0.0
C351 C 0.70383 0.2092 0.46985 0.0
C352 C 0.71056 0.20023 0.40758 0.0
C353 C 0.7074 0.1851 0.40547 0.0
C354 C 0.69081 0.18772 0.52205 0.0
C355 C 0.6938 0.20275 0.52724 0.0
H356 H 0.7124 0.17839 0.35648 0.0
H357 H 0.68272 0.18294 0.56486 0.0
H358 H 0.6979 0.1488 0.27722 0.0
H359 H 0.66414 0.1781 0.21053 0.0
H360 H 0.72364 0.15523 0.73322 0.0
H361 H 0.71822 0.20485 0.36133 0.0
H362 H 0.68804 0.20935 0.57465 0.0
C363 C 0.5944 0.92319 0.11528 0.0
C364 C 0.59342 0.92084 0.02776 0.0
N365 N 0.59342 0.93401 0.98721 0.0
N366 N 0.59505 0.93778 0.13071 0.0
C367 C 0.59439 0.94408 0.05151 0.0
H368 H 0.59488 0.91478 0.16461 0.0
Co369 Co 0.59728 0.94642 0.24007 0.0
C370 C 0.59942 0.97839 0.19792 0.0
O371 O 0.59133 0.98155 0.26567 0.0
N372 N 0.6 0.95503 0.35205 0.0
C373 C 0.6119 0.96651 0.45853 0.0
C374 C 0.61126 0.96424 0.37124 0.0
C375 C 0.59425 0.95152 0.43047 0.0
N376 N 0.60124 0.95845 0.49634 0.0
O377 O 0.6175 0.94005 0.24298 0.0
H378 H 0.61914 0.96841 0.32501 0.0
H379 H 0.58564 0.94348 0.44014 0.0
O380 O 0.60288 0.96497 0.18307 0.0
C381 C 0.61907 0.92959 0.29718 0.0
O382 O 0.60743 0.92475 0.33889 0.0
N383 N 0.57703 0.95105 0.2398 0.0
C384 C 0.54628 0.95296 0.24864 0.0
C385 C 0.55428 0.96185 0.1912 0.0
C386 C 0.56966 0.96055 0.18663 0.0
C387 C 0.56929 0.94167 0.29127 0.0
C388 C 0.55401 0.94263 0.29818 0.0
H389 H 0.57543 0.96687 0.13851 0.0
H390 H 0.57503 0.93304 0.32547 0.0
H391 H 0.59455 0.95585 0.04102 0.0
H392 H 0.59311 0.91016 0.9967 0.0
H393 H 0.62022 0.97288 0.49192 0.0
H394 H 0.54872 0.96967 0.14976 0.0
H395 H 0.54825 0.935 0.34007 0.0
C396 C 0.83355 0.14947 0.14916 0.0
C397 C 0.83578 0.14924 0.23674 0.0
N398 N 0.82277 0.15149 0.2768 0.0
N399 N 0.81915 0.15178 0.13248 0.0
C400 C 0.81293 0.15323 0.21179 0.0
H401 H 0.84204 0.14805 0.10122 0.0
Co402 Co 0.81007 0.15295 0.0221 0.0
C403 C 0.78996 0.13287 0.11414 0.0
O404 O 0.80083 0.1234 0.12199 0.0
N405 N 0.80092 0.15437 0.91216 0.0
C406 C 0.78413 0.15556 0.80763 0.0
C407 C 0.78633 0.15451 0.8952 0.0
C408 C 0.80733 0.15554 0.83335 0.0
N409 N 0.79738 0.15614 0.76842 0.0
O410 O 0.81736 0.1336 0.99056 0.0
H411 H 0.77772 0.15388 0.94322 0.0
H412 H 0.81909 0.1562 0.82332 0.0
O413 O 0.79204 0.14484 0.0723 0.0
C414 C 0.82938 0.13554 0.94938 0.0
O415 O 0.83488 0.14895 0.94626 0.0
N416 N 0.80442 0.17226 0.04588 0.0
C417 C 0.80007 0.20271 0.05632 0.0
C418 C 0.789 0.19282 0.083 0.0
C419 C 0.79139 0.17754 0.07718 0.0
C420 C 0.8153 0.18166 0.0209 0.0
C421 C 0.81337 0.19686 0.02524 0.0
H422 H 0.78272 0.1701 0.09644 0.0
H423 H 0.82546 0.17724 0.99522 0.0
H424 H 0.80132 0.15532 0.22159 0.0
H425 H 0.84631 0.14766 0.26806 0.0
H426 H 0.77356 0.15563 0.77536 0.0
H427 H 0.77859 0.19682 0.10781 0.0
H428 H 0.82212 0.20394 0.00185 0.0
C429 C 0.58836 0.07942 0.86713 0.0
C430 C 0.588 0.081 0.95533 0.0
N431 N 0.59731 0.07111 0.98989 0.0
N432 N 0.59764 0.06836 0.8464 0.0
C433 C 0.60306 0.06367 0.9227 0.0
H434 H 0.58145 0.08518 0.82146 0.0
Co435 Co 0.59932 0.05974 0.73715 0.0
C436 C 0.61358 0.03064 0.78956 0.0
O437 O 0.62379 0.03033 0.72962 0.0
N438 N 0.6008 0.05142 0.62793 0.0
C439 C 0.59808 0.03735 0.51194 0.0
C440 C 0.59706 0.03781 0.60045 0.0
C441 C 0.60402 0.05901 0.55555 0.0
N442 N 0.60246 0.05073 0.48391 0.0
O443 O 0.61967 0.06579 0.72939 0.0
H444 H 0.59318 0.029 0.64161 0.0
H445 H 0.60661 0.07066 0.55502 0.0
O446 O 0.6044 0.04126 0.79229 0.0
C447 C 0.62022 0.07952 0.71179 0.0
O448 O 0.6078 0.08696 0.70921 0.0
N449 N 0.57924 0.05492 0.74019 0.0
C450 C 0.54879 0.05054 0.73166 0.0
C451 C 0.5574 0.04278 0.79161 0.0
C452 C 0.57264 0.04518 0.79512 0.0
C453 C 0.57103 0.06278 0.683 0.0
C454 C 0.55583 0.06072 0.67732 0.0
H455 H 0.57902 0.0393 0.84249 0.0
H456 H 0.57636 0.07077 0.64167 0.0
H457 H 0.61032 0.05431 0.92988 0.0
H458 H 0.58058 0.08799 0.99155 0.0
H459 H 0.59547 0.028 0.47132 0.0
H460 H 0.55243 0.03486 0.83501 0.0
H461 H 0.54962 0.06725 0.63164 0.0
C462 C 0.67252 0.83863 0.67127 0.0
C463 C 0.67175 0.83872 0.75989 0.0
N464 N 0.68163 0.84862 0.78939 0.0
N465 N 0.68295 0.8483 0.64573 0.0
C466 C 0.68782 0.85458 0.71881 0.0
H467 H 0.66664 0.83122 0.62887 0.0
Co468 Co 0.69157 0.85006 0.53828 0.0
C469 C 0.72391 0.85443 0.57872 0.0
O470 O 0.72804 0.84652 0.51204 0.0
N471 N 0.69988 0.85206 0.42904 0.0
C472 C 0.7087 0.86344 0.31305 0.0
C473 C 0.70856 0.86325 0.40146 0.0
C474 C 0.69474 0.84581 0.35625 0.0
N475 N 0.6998 0.85258 0.28505 0.0
O476 O 0.68492 0.87017 0.53092 0.0
H477 H 0.71328 0.87164 0.44255 0.0
H478 H 0.68631 0.83743 0.35483 0.0
O479 O 0.71016 0.85645 0.59299 0.0
C480 C 0.67422 0.87166 0.47832 0.0
O481 O 0.66885 0.8599 0.44014 0.0
N482 N 0.69674 0.82986 0.54365 0.0
C483 C 0.69833 0.79914 0.55489 0.0
C484 C 0.70849 0.80801 0.59888 0.0
C485 C 0.70725 0.8234 0.59446 0.0
C486 C 0.68664 0.82127 0.50221 0.0
C487 C 0.68729 0.80594 0.50632 0.0
H488 H 0.71421 0.82989 0.63589 0.0
H489 H 0.67741 0.82638 0.47 0.0
H490 H 0.69628 0.86293 0.72074 0.0
H491 H 0.66531 0.83128 0.79937 0.0
H492 H 0.71373 0.87181 0.27289 0.0
H493 H 0.71679 0.80309 0.63997 0.0
H494 H 0.67896 0.79944 0.47364 0.0
C495 C 0.92311 0.92411 0.38352 0.0
C496 C 0.92213 0.92279 0.4715 0.0
N497 N 0.91097 0.9314 0.49965 0.0
N498 N 0.91274 0.93361 0.3562 0.0
C499 C 0.90522 0.93743 0.42762 0.0
H500 H 0.93151 0.91929 0.34298 0.0
Co501 Co 0.91157 0.9422 0.24809 0.0
C502 C 0.89387 0.96915 0.3022 0.0
O503 O 0.88302 0.96762 0.24689 0.0
N504 N 0.91059 0.9505 0.13977 0.0
C505 C 0.91043 0.96449 0.02247 0.0
C506 C 0.91035 0.96456 0.11133 0.0
C507 C 0.91107 0.94219 0.06815 0.0
N508 N 0.91097 0.95035 0.99595 0.0
O509 O 0.89184 0.9346 0.23359 0.0
H510 H 0.91055 0.97423 0.15202 0.0
H511 H 0.91168 0.93029 0.06895 0.0
O512 O 0.9046 0.9601 0.30194 0.0
C513 C 0.89276 0.92132 0.20678 0.0
O514 O 0.90587 0.91516 0.20439 0.0
N515 N 0.9312 0.9485 0.25793 0.0
C516 C 0.96154 0.95345 0.26726 0.0
C517 C 0.9517 0.96234 0.31377 0.0
C518 C 0.93651 0.95961 0.30879 0.0
C519 C 0.9406 0.93999 0.21106 0.0
C520 C 0.95578 0.94226 0.21472 0.0
H521 H 0.92918 0.96623 0.34736 0.0
H522 H 0.93625 0.93113 0.17196 0.0
H523 H 0.89616 0.94512 0.42689 0.0
H524 H 0.92983 0.91682 0.5115 0.0
H525 H 0.91061 0.97406 0.98083 0.0
H526 H 0.95572 0.971 0.35569 0.0
H527 H 0.96297 0.93524 0.17703 0.0
C528 C 0.67237 0.65684 0.62068 0.0
C529 C 0.67209 0.65783 0.70931 0.0
N530 N 0.68533 0.66281 0.73564 0.0
N531 N 0.68577 0.66113 0.59214 0.0
C532 C 0.69322 0.66495 0.66367 0.0
H533 H 0.66347 0.65292 0.58056 0.0
Co534 Co 0.69391 0.66189 0.48246 0.0
C535 C 0.71465 0.6426 0.57467 0.0
O536 O 0.70368 0.63362 0.59258 0.0
N537 N 0.70201 0.66302 0.37433 0.0
C538 C 0.71656 0.66396 0.26008 0.0
C539 C 0.71609 0.66176 0.34759 0.0
C540 C 0.69424 0.66618 0.30315 0.0
N541 N 0.70273 0.66666 0.23201 0.0
O542 O 0.68653 0.64235 0.45622 0.0
H543 H 0.72544 0.65952 0.38865 0.0
H544 H 0.68251 0.66799 0.30396 0.0
O545 O 0.71231 0.65396 0.52814 0.0
C546 C 0.67385 0.64306 0.42093 0.0
O547 O 0.66746 0.65603 0.41537 0.0
N548 N 0.69988 0.6813 0.5027 0.0
C549 C 0.7045 0.71154 0.52403 0.0
C550 C 0.71617 0.70148 0.53444 0.0
C551 C 0.71366 0.68634 0.5228 0.0
C552 C 0.68852 0.69086 0.49129 0.0
C553 C 0.69057 0.70598 0.50132 0.0
H554 H 0.72276 0.67878 0.53016 0.0
H555 H 0.67778 0.68664 0.47358 0.0
H556 H 0.70445 0.66896 0.66315 0.0
H557 H 0.66311 0.65456 0.7511 0.0
H558 H 0.7264 0.66357 0.22088 0.0
H559 H 0.7271 0.70522 0.55201 0.0
H560 H 0.68131 0.71325 0.48987 0.0
C561 C 0.57842 0.42238 0.91006 0.0
C562 C 0.57865 0.42122 0.99855 0.0
N563 N 0.59024 0.42907 0.02765 0.0
N564 N 0.58974 0.43101 0.88466 0.0
C565 C 0.59695 0.4345 0.95737 0.0
H566 H 0.57003 0.41804 0.86756 0.0
Co567 Co 0.5933 0.43867 0.77659 0.0
C568 C 0.60026 0.47035 0.81819 0.0
O569 O 0.59177 0.47492 0.75502 0.0
N570 N 0.59723 0.4457 0.66665 0.0
C571 C 0.60897 0.45442 0.55158 0.0
C572 C 0.60769 0.45528 0.63951 0.0
C573 C 0.59299 0.4386 0.59457 0.0
N574 N 0.59973 0.44383 0.52374 0.0
O575 O 0.61216 0.42916 0.77317 0.0
H576 H 0.61493 0.46157 0.68068 0.0
H577 H 0.58593 0.42903 0.59447 0.0
O578 O 0.60199 0.45649 0.83025 0.0
C579 C 0.61063 0.41561 0.75342 0.0
O580 O 0.59723 0.41022 0.74571 0.0
N581 N 0.57403 0.44694 0.77763 0.0
C582 C 0.54393 0.45405 0.7846 0.0
C583 C 0.55397 0.46032 0.84296 0.0
C584 C 0.5689 0.45638 0.83958 0.0
C585 C 0.56428 0.44037 0.72295 0.0
C586 C 0.54934 0.44392 0.72425 0.0
H587 H 0.5761 0.46037 0.88975 0.0
H588 H 0.56779 0.43151 0.68194 0.0
H589 H 0.60662 0.44142 0.95944 0.0
H590 H 0.57038 0.41599 0.03852 0.0
H591 H 0.61682 0.46035 0.51209 0.0
H592 H 0.5503 0.4679 0.89232 0.0
H593 H 0.54196 0.4381 0.68116 0.0
C594 C 0.832 0.32908 0.12453 0.0
C595 C 0.83358 0.32958 0.21276 0.0
N596 N 0.82462 0.34018 0.24354 0.0
N597 N 0.82184 0.3391 0.09996 0.0
C598 C 0.81796 0.34599 0.17375 0.0
H599 H 0.83743 0.3214 0.08187 0.0
Co600 Co 0.81283 0.34116 0.99194 0.0
C601 C 0.78096 0.34961 0.04777 0.0
O602 O 0.7739 0.34795 0.97468 0.0
N603 N 0.80408 0.34347 0.88281 0.0
C604 C 0.79558 0.35529 0.7675 0.0
C605 C 0.79647 0.35539 0.85578 0.0
C606 C 0.80791 0.33645 0.8092 0.0
N607 N 0.80297 0.34345 0.73793 0.0
O608 O 0.81978 0.36127 0.9855 0.0
H609 H 0.79301 0.36437 0.89685 0.0
H610 H 0.81555 0.32734 0.80721 0.0
O611 O 0.79482 0.34717 0.05211 0.0
C612 C 0.83004 0.3628 0.92991 0.0
O613 O 0.83475 0.35112 0.88822 0.0
N614 N 0.80731 0.32106 0.99569 0.0
C615 C 0.80586 0.29044 0.01554 0.0
C616 C 0.79472 0.29951 0.04884 0.0
C617 C 0.79571 0.31485 0.03895 0.0
C618 C 0.81781 0.3123 0.9595 0.0
C619 C 0.81731 0.29701 0.96854 0.0
H620 H 0.78749 0.32154 0.06992 0.0
H621 H 0.82719 0.31731 0.9279 0.0
H622 H 0.8097 0.35457 0.17718 0.0
H623 H 0.84044 0.32242 0.25142 0.0
H624 H 0.79064 0.36381 0.72827 0.0
H625 H 0.78577 0.29486 0.08623 0.0
H626 H 0.82611 0.29042 0.94135 0.0
C627 C 0.89588 0.59021 0.44469 0.0
C628 C 0.89489 0.58959 0.53336 0.0
N629 N 0.89916 0.57604 0.55871 0.0
N630 N 0.90066 0.57706 0.41518 0.0
C631 C 0.90248 0.56875 0.48606 0.0
H632 H 0.89358 0.59972 0.40496 0.0
Co633 Co 0.90509 0.57041 0.3054 0.0
C634 C 0.89269 0.53895 0.31075 0.0
O635 O 0.89618 0.53502 0.23197 0.0
N636 N 0.90966 0.56371 0.19417 0.0
C637 C 0.922 0.56026 0.07228 0.0
C638 C 0.92325 0.56246 0.15908 0.0
C639 C 0.90036 0.56224 0.12669 0.0
N640 N 0.9076 0.56034 0.05176 0.0
O641 O 0.8869 0.57879 0.26276 0.0
H642 H 0.93355 0.56428 0.1922 0.0
H643 H 0.88853 0.56345 0.1313 0.0
O644 O 0.89561 0.55195 0.33691 0.0
C645 C 0.89063 0.59117 0.23006 0.0
O646 O 0.90455 0.59512 0.23627 0.0
N647 N 0.92348 0.5638 0.34547 0.0
C648 C 0.95345 0.55855 0.37124 0.0
C649 C 0.9435 0.54676 0.36189 0.0
C650 C 0.9285 0.54961 0.34899 0.0
C651 C 0.93281 0.57531 0.36026 0.0
C652 C 0.94781 0.57295 0.37332 0.0
H653 H 0.92126 0.54045 0.33617 0.0
H654 H 0.92869 0.58648 0.35619 0.0
H655 H 0.90642 0.5575 0.48434 0.0
H656 H 0.89183 0.59854 0.5758 0.0
H657 H 0.93105 0.56013 0.02678 0.0
H658 H 0.94736 0.53546 0.36078 0.0
H659 H 0.95503 0.58243 0.37908 0.0
C660 C 0.67074 0.33434 0.33612 0.0
C661 C 0.6695 0.33469 0.24765 0.0
N662 N 0.67853 0.34534 0.21792 0.0
N663 N 0.6806 0.34464 0.36106 0.0
C664 C 0.6847 0.35146 0.28804 0.0
H665 H 0.66577 0.32631 0.37871 0.0
Co666 Co 0.68933 0.34643 0.46818 0.0
C667 C 0.72098 0.35127 0.42107 0.0
O668 O 0.725 0.34174 0.48034 0.0
N669 N 0.69744 0.3486 0.57814 0.0
C670 C 0.70735 0.35896 0.69457 0.0
C671 C 0.70791 0.35808 0.60633 0.0
C672 C 0.69027 0.34448 0.6504 0.0
N673 N 0.69613 0.35047 0.72189 0.0
O674 O 0.68089 0.3657 0.48207 0.0
H675 H 0.71455 0.36515 0.56596 0.0
H676 H 0.68013 0.33824 0.65026 0.0
O677 O 0.70731 0.35462 0.41339 0.0
C678 C 0.66845 0.36413 0.51924 0.0
O679 O 0.6633 0.35068 0.52917 0.0
N680 N 0.69655 0.3268 0.4568 0.0
C681 C 0.70294 0.29674 0.43691 0.0
C682 C 0.70796 0.3071 0.3766 0.0
C683 C 0.70443 0.32203 0.38691 0.0
C684 C 0.69111 0.31672 0.5137 0.0
C685 C 0.69437 0.30176 0.50597 0.0
H686 H 0.7076 0.32963 0.33665 0.0
H687 H 0.68346 0.32002 0.56276 0.0
H688 H 0.6928 0.36016 0.28533 0.0
H689 H 0.6635 0.32689 0.20808 0.0
H690 H 0.71385 0.36626 0.73465 0.0
H691 H 0.7143 0.3037 0.32101 0.0
H692 H 0.68957 0.29411 0.55163 0.0
C693 C 0.91932 0.42215 0.56805 0.0
C694 C 0.92028 0.41981 0.48056 0.0
N695 N 0.91043 0.42857 0.44036 0.0
N696 N 0.90898 0.43244 0.58404 0.0
C697 C 0.90357 0.43593 0.50507 0.0
H698 H 0.92614 0.41705 0.61676 0.0
Co699 Co 0.90506 0.44086 0.69308 0.0
C700 C 0.8984 0.47272 0.64529 0.0
O701 O 0.90383 0.47817 0.71694 0.0
N702 N 0.90079 0.44906 0.8044 0.0
C703 C 0.88724 0.45877 0.91014 0.0
C704 C 0.88859 0.45701 0.82259 0.0
C705 C 0.90636 0.4457 0.88349 0.0
N706 N 0.89837 0.45157 0.94891 0.0
O707 O 0.88554 0.43244 0.69183 0.0
H708 H 0.88059 0.46056 0.77541 0.0
H709 H 0.91561 0.43844 0.89379 0.0
O710 O 0.89823 0.45875 0.63321 0.0
C711 C 0.88467 0.42181 0.7455 0.0
O712 O 0.89655 0.41791 0.78811 0.0
N713 N 0.92469 0.44773 0.69712 0.0
C714 C 0.95528 0.45197 0.70066 0.0
C715 C 0.94628 0.46064 0.64731 0.0
C716 C 0.93102 0.45815 0.64522 0.0
C717 C 0.93333 0.43907 0.74788 0.0
C718 C 0.94855 0.44115 0.75185 0.0
H719 H 0.9246 0.46407 0.59833 0.0
H720 H 0.92847 0.42993 0.78226 0.0
H721 H 0.89477 0.44376 0.49519 0.0
H722 H 0.92812 0.41261 0.4491 0.0
H723 H 0.87819 0.46416 0.94287 0.0
H724 H 0.95106 0.46876 0.60445 0.0
H725 H 0.95501 0.43408 0.79338 0.0
C726 C 0.82324 0.67246 0.85744 0.0
C727 C 0.82477 0.67448 0.77001 0.0
N728 N 0.81552 0.66515 0.72919 0.0
N729 N 0.81302 0.66197 0.87234 0.0
C730 C 0.80867 0.65757 0.79284 0.0
H731 H 0.82889 0.67861 0.90719 0.0
Co732 Co 0.8057 0.65694 0.98195 0.0
C733 C 0.77419 0.64912 0.94516 0.0
O734 O 0.7697 0.6554 0.01671 0.0
N735 N 0.79874 0.65151 0.0935 0.0
C736 C 0.79032 0.63662 0.19659 0.0
C737 C 0.79143 0.63882 0.10958 0.0
C738 C 0.80252 0.65646 0.17321 0.0
N739 N 0.79744 0.64763 0.23742 0.0
O740 O 0.81542 0.63816 0.9769 0.0
H741 H 0.78781 0.63109 0.06099 0.0
H742 H 0.8098 0.66568 0.1842 0.0
O743 O 0.78791 0.64893 0.92623 0.0
C744 C 0.82827 0.64018 0.00796 0.0
O745 O 0.83229 0.65378 0.02592 0.0
N746 N 0.79757 0.67601 0.99013 0.0
C747 C 0.79268 0.70654 0.98995 0.0
C748 C 0.78438 0.69714 0.93674 0.0
C749 C 0.78718 0.68194 0.93657 0.0
C750 C 0.80577 0.68502 0.0415 0.0
C751 C 0.80339 0.7002 0.04345 0.0
H752 H 0.78167 0.67524 0.8891 0.0
H753 H 0.81508 0.68057 0.07602 0.0
H754 H 0.80025 0.64935 0.78163 0.0
H755 H 0.83202 0.68234 0.73905 0.0
H756 H 0.78507 0.62724 0.22673 0.0
H757 H 0.77618 0.70152 0.89307 0.0
H758 H 0.81059 0.70699 0.0825 0.0
C759 C 0.5803 0.58199 0.07984 0.0
C760 C 0.58077 0.58366 0.99175 0.0
N761 N 0.59293 0.57681 0.96218 0.0
N762 N 0.59196 0.57386 0.10533 0.0
C763 C 0.59966 0.57129 0.03247 0.0
H764 H 0.5717 0.586 0.12181 0.0
Co765 Co 0.59597 0.56598 0.21389 0.0
C766 C 0.60577 0.53449 0.16604 0.0
O767 O 0.60377 0.52837 0.24173 0.0
N768 N 0.60028 0.55848 0.32334 0.0
C769 C 0.61338 0.55134 0.43714 0.0
C770 C 0.61309 0.55228 0.34872 0.0
C771 C 0.59317 0.56151 0.3977 0.0
N772 N 0.60082 0.55723 0.46783 0.0
O773 O 0.61518 0.57495 0.21205 0.0
H774 H 0.62208 0.54947 0.30599 0.0
H775 H 0.58319 0.56793 0.40145 0.0
O776 O 0.60325 0.54825 0.15574 0.0
C777 C 0.61392 0.58838 0.23506 0.0
O778 O 0.60067 0.59358 0.25067 0.0
N779 N 0.57652 0.5584 0.21848 0.0
C780 C 0.54619 0.55253 0.22271 0.0
C781 C 0.55592 0.54297 0.18007 0.0
C782 C 0.57103 0.54618 0.17779 0.0
C783 C 0.56716 0.56781 0.25952 0.0
C784 C 0.55207 0.56501 0.26354 0.0
H785 H 0.57798 0.53912 0.13995 0.0
H786 H 0.57142 0.57793 0.28675 0.0
H787 H 0.60962 0.56475 0.03031 0.0
H788 H 0.57261 0.58914 0.95235 0.0
H789 H 0.62241 0.54721 0.47571 0.0
H790 H 0.55183 0.53341 0.14569 0.0
H791 H 0.54504 0.57273 0.29733 0.0
C792 C 0.3275 0.33199 0.36382 0.0
C793 C 0.32825 0.33138 0.27521 0.0
N794 N 0.31789 0.34049 0.24346 0.0
N795 N 0.31663 0.34135 0.38677 0.0
C796 C 0.31139 0.34668 0.31221 0.0
H797 H 0.33372 0.32527 0.40835 0.0
Co798 Co 0.30842 0.34362 0.49446 0.0
C799 C 0.27596 0.34776 0.46034 0.0
O800 O 0.27265 0.33982 0.52844 0.0
N801 N 0.30063 0.34611 0.6047 0.0
C802 C 0.29182 0.35739 0.72114 0.0
C803 C 0.29197 0.35726 0.63266 0.0
C804 C 0.30593 0.33995 0.67732 0.0
N805 N 0.30079 0.34659 0.74852 0.0
O806 O 0.31557 0.36369 0.49861 0.0
H807 H 0.28709 0.36557 0.59172 0.0
H808 H 0.31449 0.33174 0.67892 0.0
O809 O 0.28954 0.35013 0.44191 0.0
C810 C 0.32635 0.3656 0.55028 0.0
O811 O 0.33155 0.35422 0.59276 0.0
N812 N 0.30274 0.32348 0.49103 0.0
C813 C 0.29956 0.29278 0.48126 0.0
C814 C 0.29039 0.3021 0.43323 0.0
C815 C 0.29243 0.31741 0.43714 0.0
C816 C 0.31212 0.31447 0.5349 0.0
C817 C 0.31056 0.29918 0.53242 0.0
H818 H 0.28626 0.32413 0.3929 0.0
H819 H 0.32148 0.31912 0.56807 0.0
H820 H 0.30252 0.35452 0.30779 0.0
H821 H 0.33508 0.32404 0.23743 0.0
H822 H 0.28668 0.3656 0.76187 0.0
H823 H 0.28222 0.29759 0.38969 0.0
H824 H 0.31816 0.29241 0.56884 0.0
C825 C 0.41817 0.57688 0.11537 0.0
C826 C 0.41747 0.57829 0.02715 0.0
N827 N 0.40702 0.569 0.99755 0.0
N828 N 0.4084 0.56654 0.14097 0.0
C829 C 0.40147 0.56234 0.06809 0.0
H830 H 0.42587 0.58247 0.15734 0.0
Co831 Co 0.4068 0.55775 0.24905 0.0
C832 C 0.40457 0.52541 0.207 0.0
O833 O 0.41225 0.52187 0.27568 0.0
N834 N 0.40483 0.54908 0.3593 0.0
C835 C 0.39381 0.53879 0.47271 0.0
C836 C 0.39377 0.54005 0.38446 0.0
C837 C 0.41125 0.55332 0.43396 0.0
N838 N 0.40478 0.54726 0.50383 0.0
O839 O 0.38639 0.56355 0.25457 0.0
H840 H 0.38553 0.53546 0.34183 0.0
H841 H 0.41952 0.56183 0.43844 0.0
O842 O 0.40166 0.53898 0.19199 0.0
C843 C 0.38461 0.57406 0.30825 0.0
O844 O 0.39617 0.57931 0.34897 0.0
N845 N 0.42722 0.55365 0.24574 0.0
C846 C 0.458 0.55447 0.23527 0.0
C847 C 0.44991 0.54405 0.18804 0.0
C848 C 0.43446 0.54404 0.19253 0.0
C849 C 0.43499 0.56393 0.29081 0.0
C850 C 0.45032 0.56439 0.28772 0.0
H851 H 0.42851 0.53697 0.14896 0.0
H852 H 0.4292 0.57254 0.32489 0.0
H853 H 0.39301 0.55396 0.06619 0.0
H854 H 0.42446 0.58522 0.9877 0.0
H855 H 0.38591 0.53269 0.51098 0.0
H856 H 0.45542 0.53657 0.14422 0.0
H857 H 0.4561 0.57283 0.32387 0.0
C858 C 0.16657 0.66627 0.83218 0.0
C859 C 0.16553 0.66708 0.74373 0.0
N860 N 0.17701 0.65965 0.71024 0.0
N861 N 0.17867 0.65843 0.85329 0.0
C862 C 0.1845 0.65421 0.77772 0.0
H863 H 0.15953 0.67183 0.87804 0.0
Co864 Co 0.18698 0.6569 0.9612 0.0
C865 C 0.21963 0.65445 0.92943 0.0
O866 O 0.22236 0.66292 0.99623 0.0
N867 N 0.19475 0.6551 0.07199 0.0
C868 C 0.20416 0.64452 0.1891 0.0
C869 C 0.2042 0.64466 0.10068 0.0
C870 C 0.18869 0.66069 0.14426 0.0
N871 N 0.19425 0.65451 0.21572 0.0
O872 O 0.18105 0.63657 0.96796 0.0
H873 H 0.20979 0.63673 0.06027 0.0
H874 H 0.17939 0.66806 0.14538 0.0
O875 O 0.20626 0.65135 0.90959 0.0
C876 C 0.16945 0.63548 0.01394 0.0
O877 O 0.16323 0.64758 0.04285 0.0
N878 N 0.19141 0.6773 0.95634 0.0
C879 C 0.19197 0.70814 0.944 0.0
C880 C 0.202 0.6995 0.89727 0.0
C881 C 0.20132 0.68407 0.90277 0.0
C882 C 0.18131 0.68558 0.99955 0.0
C883 C 0.18159 0.70093 0.996 0.0
H884 H 0.2082 0.67773 0.86005 0.0
H885 H 0.17234 0.68025 0.03292 0.0
H886 H 0.19436 0.6477 0.77157 0.0
H887 H 0.15764 0.67348 0.70724 0.0
H888 H 0.20988 0.63678 0.23027 0.0
H889 H 0.20979 0.70457 0.8535 0.0
H890 H 0.17343 0.70707 0.03208 0.0
C891 C 0.08551 0.42133 0.62046 0.0
C892 C 0.08626 0.41968 0.53236 0.0
N893 N 0.09517 0.4303 0.50096 0.0
N894 N 0.09372 0.43307 0.64387 0.0
C895 C 0.09967 0.43812 0.56987 0.0
H896 H 0.07886 0.41484 0.66414 0.0
Co897 Co 0.09448 0.44164 0.75216 0.0
C898 C 0.09578 0.47379 0.71123 0.0
O899 O 0.08573 0.47669 0.76979 0.0
N900 N 0.09557 0.45012 0.86304 0.0
C901 C 0.10531 0.46129 0.97754 0.0
C902 C 0.10559 0.46022 0.88932 0.0
C903 C 0.08959 0.44502 0.9371 0.0
N904 N 0.09529 0.45161 0.00753 0.0
O905 O 0.11489 0.43615 0.76142 0.0
H906 H 0.11344 0.46569 0.84777 0.0
H907 H 0.08241 0.43557 0.94075 0.0
O908 O 0.10009 0.46053 0.69951 0.0
C909 C 0.11742 0.42587 0.81547 0.0
O910 O 0.10634 0.42021 0.85888 0.0
N911 N 0.07401 0.44558 0.74348 0.0
C912 C 0.04323 0.44536 0.72714 0.0
C913 C 0.0519 0.45478 0.67635 0.0
C914 C 0.06731 0.45442 0.68376 0.0
C915 C 0.06571 0.43595 0.79035 0.0
C916 C 0.05038 0.43588 0.7848 0.0
H917 H 0.07374 0.46066 0.63806 0.0
H918 H 0.07104 0.42754 0.82818 0.0
H919 H 0.10652 0.44786 0.56554 0.0
H920 H 0.0804 0.41158 0.4942 0.0
H921 H 0.11249 0.46809 0.01656 0.0
H922 H 0.04687 0.46178 0.62813 0.0
H923 H 0.04421 0.42811 0.82368 0.0
C924 C 0.33136 0.66528 0.65464 0.0
C925 C 0.33235 0.66635 0.74303 0.0
N926 N 0.32095 0.65884 0.77698 0.0
N927 N 0.31936 0.65719 0.63408 0.0
C928 C 0.31353 0.65312 0.70994 0.0
H929 H 0.33842 0.67071 0.60833 0.0
Co930 Co 0.31145 0.65474 0.52588 0.0
C931 C 0.27871 0.6516 0.55373 0.0
O932 O 0.27608 0.6592 0.48339 0.0
N933 N 0.30407 0.65205 0.41476 0.0
C934 C 0.29528 0.64075 0.29818 0.0
C935 C 0.29523 0.64101 0.38666 0.0
C936 C 0.30977 0.65791 0.34223 0.0
N937 N 0.30456 0.65132 0.27114 0.0
O938 O 0.31781 0.63448 0.52501 0.0
H939 H 0.29 0.63291 0.42769 0.0
H940 H 0.31858 0.66589 0.34063 0.0
O941 O 0.29208 0.64912 0.57663 0.0
C942 C 0.32895 0.63259 0.47606 0.0
O943 O 0.33481 0.64408 0.43752 0.0
N944 N 0.30654 0.67502 0.52553 0.0
C945 C 0.30362 0.70574 0.52141 0.0
C946 C 0.29414 0.6971 0.57199 0.0
C947 C 0.29598 0.68176 0.57463 0.0
C948 C 0.31651 0.6834 0.48178 0.0
C949 C 0.31509 0.69868 0.47725 0.0
H950 H 0.28923 0.67554 0.61868 0.0
H951 H 0.32602 0.67825 0.45289 0.0
H952 H 0.30382 0.64637 0.71657 0.0
H953 H 0.34023 0.67286 0.77914 0.0
H954 H 0.28996 0.63267 0.25727 0.0
H955 H 0.28545 0.70212 0.60969 0.0
H956 H 0.32322 0.70495 0.44154 0.0
C957 C 0.09843 0.59007 0.43907 0.0
C958 C 0.09683 0.59132 0.52703 0.0
N959 N 0.09047 0.57885 0.55685 0.0
N960 N 0.09322 0.57684 0.41389 0.0
C961 C 0.08836 0.57041 0.48663 0.0
H962 H 0.10303 0.59832 0.39659 0.0
Co963 Co 0.09181 0.56862 0.30479 0.0
C964 C 0.10539 0.54162 0.38703 0.0
O965 O 0.11908 0.54628 0.38202 0.0
N966 N 0.09036 0.56061 0.19627 0.0
C967 C 0.09191 0.54702 0.0778 0.0
C968 C 0.09282 0.54684 0.16636 0.0
C969 C 0.08783 0.56883 0.12588 0.0
N970 N 0.08894 0.56093 0.05307 0.0
O971 O 0.11259 0.57182 0.28619 0.0
H972 H 0.0957 0.53743 0.20555 0.0
H973 H 0.08567 0.58056 0.12764 0.0
O974 O 0.09498 0.54936 0.3556 0.0
C975 C 0.11495 0.58383 0.24566 0.0
O976 O 0.10376 0.59246 0.22775 0.0
N977 N 0.07141 0.5664 0.31953 0.0
C978 C 0.04117 0.56511 0.35212 0.0
C979 C 0.04921 0.55221 0.33511 0.0
C980 C 0.06431 0.55311 0.31812 0.0
C981 C 0.0637 0.5791 0.332 0.0
C982 C 0.04859 0.57871 0.34901 0.0
H983 H 0.07029 0.54308 0.30454 0.0
H984 H 0.06938 0.58959 0.33024 0.0
H985 H 0.08337 0.55963 0.48755 0.0
H986 H 0.10006 0.60074 0.56539 0.0
H987 H 0.09413 0.53789 0.03483 0.0
H988 H 0.04396 0.54148 0.33636 0.0
H989 H 0.04277 0.58899 0.35921 0.0
C990 C 0.17696 0.33235 0.127 0.0
C991 C 0.17576 0.33282 0.21544 0.0
N992 N 0.18418 0.34401 0.24461 0.0
N993 N 0.18633 0.34303 0.10088 0.0
C994 C 0.19017 0.35017 0.17382 0.0
H995 H 0.17192 0.32426 0.08519 0.0
Co996 Co 0.19475 0.34585 0.99257 0.0
C997 C 0.22694 0.35176 0.03772 0.0
O998 O 0.2324 0.34698 0.96456 0.0
N999 N 0.20315 0.34903 0.88262 0.0
C1000 C 0.21237 0.36107 0.76963 0.0
C1001 C 0.21091 0.36103 0.85782 0.0
C1002 C 0.19984 0.34212 0.80785 0.0
N1003 N 0.20531 0.34916 0.73826 0.0
O1004 O 0.18788 0.36593 0.99311 0.0
H1005 H 0.21451 0.36972 0.90068 0.0
H1006 H 0.19238 0.3329 0.80298 0.0
O1007 O 0.21304 0.3516 0.0505 0.0
C1008 C 0.17767 0.36833 0.93842 0.0
O1009 O 0.17315 0.35745 0.88917 0.0
N1010 N 0.20009 0.32577 0.99028 0.0
C1011 C 0.20247 0.29506 0.98529 0.0
C1012 C 0.21236 0.30351 0.03437 0.0
C1013 C 0.21094 0.31891 0.03643 0.0
C1014 C 0.19005 0.31759 0.94574 0.0
C1015 C 0.19121 0.30231 0.9407 0.0
H1016 H 0.21818 0.32506 0.078 0.0
H1017 H 0.1807 0.32299 0.9163 0.0
H1018 H 0.19796 0.35921 0.17571 0.0
H1019 H 0.16955 0.32523 0.25529 0.0
H1020 H 0.21765 0.36956 0.73156 0.0
H1021 H 0.22097 0.29824 0.07158 0.0
H1022 H 0.18299 0.29616 0.90496 0.0
C1023 C 0.41972 0.42651 0.87833 0.0
C1024 C 0.41846 0.42507 0.96623 0.0
N1025 N 0.40654 0.43276 0.9928 0.0
N1026 N 0.40877 0.43524 0.84984 0.0
C1027 C 0.40071 0.43842 0.92014 0.0
H1028 H 0.42851 0.42217 0.83882 0.0
Co1029 Co 0.40596 0.44359 0.74275 0.0
C1030 C 0.39997 0.4757 0.78386 0.0
O1031 O 0.40529 0.48042 0.71016 0.0
N1032 N 0.40267 0.45174 0.63367 0.0
C1033 C 0.38931 0.45834 0.52003 0.0
C1034 C 0.39021 0.45862 0.60832 0.0
C1035 C 0.40913 0.44747 0.55958 0.0
N1036 N 0.40115 0.45107 0.48944 0.0
O1037 O 0.38605 0.4359 0.74145 0.0
H1038 H 0.38155 0.46222 0.65135 0.0
H1039 H 0.41875 0.4406 0.55712 0.0
O1040 O 0.39957 0.46187 0.79989 0.0
C1041 C 0.38425 0.42529 0.68839 0.0
O1042 O 0.39556 0.42079 0.64263 0.0
N1043 N 0.42596 0.44976 0.74238 0.0
C1044 C 0.45643 0.45449 0.73623 0.0
C1045 C 0.4474 0.46339 0.78786 0.0
C1046 C 0.43218 0.46074 0.79083 0.0
C1047 C 0.4348 0.4404 0.69721 0.0
C1048 C 0.44995 0.44277 0.69136 0.0
H1049 H 0.42568 0.46719 0.83484 0.0
H1050 H 0.4301 0.43068 0.66762 0.0
H1051 H 0.39103 0.44533 0.91778 0.0
H1052 H 0.42632 0.41952 0.00722 0.0
H1053 H 0.37994 0.46194 0.48246 0.0
H1054 H 0.45207 0.47224 0.82596 0.0
H1055 H 0.45662 0.43517 0.65419 0.0
H1056 H 0.20417 0.27646 0.12219 0.0
H1057 H 0.20175 0.27709 0.84512 0.0
H1058 H 0.20011 0.25017 0.84224 0.0
H1059 H 0.19827 0.22656 0.91873 0.0
H1060 H 0.19938 0.22602 0.1965 0.0
H1061 H 0.20289 0.25269 0.19875 0.0
C1062 C 0.20354 0.27066 0.06125 0.0
C1063 C 0.20311 0.27871 0.98398 0.0
C1064 C 0.20229 0.25519 0.0602 0.0
C1065 C 0.20204 0.2711 0.90542 0.0
C1066 C 0.20109 0.25572 0.90376 0.0
C1067 C 0.19919 0.23227 0.97983 0.0
C1068 C 0.19853 0.22422 0.05725 0.0
C1069 C 0.20095 0.24767 0.98082 0.0
C1070 C 0.20003 0.23184 0.13575 0.0
C1071 C 0.20195 0.24714 0.13721 0.0
H1072 H 0.02934 0.97055 0.26964 0.0
H1073 H 0.03306 0.92337 0.29967 0.0
H1074 H 0.00634 0.92103 0.30256 0.0
H1075 H 0.9819 0.93208 0.29085 0.0
H1076 H 0.97755 0.97916 0.26197 0.0
H1077 H 0.00445 0.98189 0.26616 0.0
C1078 C 0.02428 0.9598 0.27776 0.0
C1079 C 0.03322 0.94713 0.2828 0.0
C1080 C 0.00879 0.9585 0.27952 0.0
C1081 C 0.02647 0.93327 0.29346 0.0
C1082 C 0.01117 0.93191 0.2956 0.0
C1083 C 0.98684 0.94294 0.28518 0.0
C1084 C 0.97777 0.95537 0.27501 0.0
C1085 C 0.00223 0.9444 0.28729 0.0
C1086 C 0.98431 0.96941 0.26989 0.0
C1087 C 0.99969 0.97097 0.2719 0.0
H1088 H 0.30477 0.77401 0.44331 0.0
H1089 H 0.296 0.77627 0.71577 0.0
H1090 H 0.29452 0.74931 0.72254 0.0
H1091 H 0.29755 0.72504 0.65236 0.0
H1092 H 0.30636 0.72316 0.37951 0.0
H1093 H 0.3062 0.75001 0.37188 0.0
C1094 C 0.30254 0.7686 0.50421 0.0
C1095 C 0.30066 0.77711 0.57908 0.0
C1096 C 0.30184 0.75315 0.50768 0.0
C1097 C 0.29745 0.76996 0.65716 0.0
C1098 C 0.29669 0.75455 0.66112 0.0
C1099 C 0.29919 0.7305 0.59101 0.0
C1100 C 0.30212 0.72207 0.51678 0.0
C1101 C 0.29909 0.74601 0.58698 0.0
C1102 C 0.30436 0.72936 0.43793 0.0
C1103 C 0.3042 0.74472 0.43338 0.0
H1104 H 0.48078 0.04683 0.64638 0.0
H1105 H 0.47797 0.04522 0.92339 0.0
H1106 H 0.50485 0.04509 0.93354 0.0
H1107 H 0.52917 0.04726 0.86395 0.0
H1108 H 0.53183 0.04893 0.58671 0.0
H1109 H 0.50504 0.04746 0.57665 0.0
C1110 C 0.48606 0.04642 0.70897 0.0
C1111 C 0.47736 0.0461 0.78394 0.0
C1112 C 0.50151 0.04652 0.71439 0.0
C1113 C 0.48437 0.04533 0.86456 0.0
C1114 C 0.49976 0.04537 0.87047 0.0
C1115 C 0.52391 0.04706 0.80129 0.0
C1116 C 0.53253 0.04837 0.72626 0.0
C1117 C 0.50845 0.04619 0.79585 0.0
C1118 C 0.52548 0.04823 0.64561 0.0
C1119 C 0.51015 0.04731 0.63971 0.0
H1120 H 0.21515 0.72759 0.93845 0.0
H1121 H 0.16763 0.72547 0.927 0.0
H1122 H 0.16629 0.75225 0.92169 0.0
H1123 H 0.17839 0.77633 0.92515 0.0
H1124 H 0.22582 0.77901 0.93547 0.0
H1125 H 0.22743 0.75202 0.93417 0.0
C1126 C 0.20452 0.733 0.93389 0.0
C1127 C 0.1915 0.72449 0.93474 0.0
C1128 C 0.2038 0.74852 0.93049 0.0
C1129 C 0.17782 0.73171 0.92875 0.0
C1130 C 0.17702 0.74705 0.92512 0.0
C1131 C 0.18909 0.77101 0.92742 0.0
C1132 C 0.20195 0.77966 0.93141 0.0
C1133 C 0.18991 0.75556 0.92719 0.0
C1134 C 0.21574 0.7726 0.9322 0.0
C1135 C 0.21667 0.75717 0.93192 0.0
H1136 H 0.52633 0.95522 0.11753 0.0
H1137 H 0.52951 0.95249 0.39419 0.0
H1138 H 0.50268 0.95164 0.40556 0.0
H1139 H 0.47836 0.95054 0.33691 0.0
H1140 H 0.47507 0.95284 0.06022 0.0
H1141 H 0.50182 0.95537 0.0491 0.0
C1142 C 0.52115 0.95469 0.18035 0.0
C1143 C 0.52994 0.95381 0.25485 0.0
C1144 C 0.50567 0.95412 0.18648 0.0
C1145 C 0.52302 0.95295 0.33574 0.0
C1146 C 0.50767 0.95251 0.34236 0.0
C1147 C 0.4835 0.95159 0.27415 0.0
C1148 C 0.4747 0.95144 0.19959 0.0
C1149 C 0.4989 0.95284 0.26812 0.0
C1150 C 0.48153 0.95307 0.11881 0.0
C1151 C 0.49686 0.95441 0.11231 0.0
H1152 H 0.2852 0.22432 0.47464 0.0
H1153 H 0.3326 0.22243 0.452 0.0
H1154 H 0.33393 0.24925 0.45087 0.0
H1155 H 0.32188 0.27324 0.46115 0.0
H1156 H 0.27456 0.27571 0.48373 0.0
H1157 H 0.27291 0.24873 0.47825 0.0
C1158 C 0.29578 0.22981 0.46856 0.0
C1159 C 0.30879 0.22136 0.46484 0.0
C1160 C 0.2965 0.24534 0.46802 0.0
C1161 C 0.32244 0.22864 0.45696 0.0
C1162 C 0.32322 0.24399 0.45587 0.0
C1163 C 0.3112 0.26788 0.46545 0.0
C1164 C 0.29838 0.27646 0.47404 0.0
C1165 C 0.31036 0.25244 0.46267 0.0
C1166 C 0.2846 0.26935 0.47711 0.0
C1167 C 0.28366 0.25393 0.47431 0.0
H1168 H 0.97536 0.03076 0.7154 0.0
H1169 H 0.97147 0.07803 0.73784 0.0
H1170 H 0.99822 0.08052 0.73768 0.0
H1171 H 0.02267 0.06939 0.73571 0.0
H1172 H 0.02715 0.02214 0.71718 0.0
H1173 H 1.00029 0.01954 0.70919 0.0
C1174 C 0.98041 0.04159 0.71948 0.0
C1175 C 0.97143 0.05418 0.72774 0.0
C1176 C 0.9959 0.04295 0.72001 0.0
C1177 C 0.97812 0.06815 0.73308 0.0
C1178 C 0.99342 0.0696 0.73263 0.0
C1179 C 0.0178 0.05849 0.73074 0.0
C1180 C 0.02694 0.04596 0.72827 0.0
C1181 C 0.00241 0.05708 0.72736 0.0
C1182 C 0.02039 0.03197 0.71909 0.0
C1183 C 0.00503 0.03048 0.71496 0.0
H1184 H 0.79441 0.72669 0.12014 0.0
H1185 H 0.7885 0.72334 0.84513 0.0
H1186 H 0.78943 0.75014 0.83255 0.0
H1187 H 0.79428 0.77444 0.89769 0.0
H1188 H 0.80141 0.77761 0.17158 0.0
H1189 H 0.79794 0.75101 0.18615 0.0
C1190 C 0.7933 0.7318 0.05739 0.0
C1191 C 0.79144 0.72292 0.98377 0.0
C1192 C 0.79426 0.74722 0.05019 0.0
C1193 C 0.78974 0.72982 0.90322 0.0
C1194 C 0.79043 0.74518 0.89576 0.0
C1195 C 0.79482 0.76934 0.96074 0.0
C1196 C 0.79819 0.778 0.03338 0.0
C1197 C 0.79299 0.75398 0.96854 0.0
C1198 C 0.79903 0.77118 0.1145 0.0
C1199 C 0.797 0.75597 0.12293 0.0
H1200 H 0.70964 0.2766 0.5603 0.0
H1201 H 0.70178 0.28065 0.28746 0.0
H1202 H 0.70297 0.25386 0.27184 0.0
H1203 H 0.70368 0.22912 0.33843 0.0
H1204 H 0.71028 0.22532 0.61242 0.0
H1205 H 0.712 0.25211 0.625 0.0
C1206 C 0.70822 0.27163 0.49732 0.0
C1207 C 0.70549 0.28064 0.42539 0.0
C1208 C 0.70855 0.25622 0.48916 0.0
C1209 C 0.704 0.27402 0.34393 0.0
C1210 C 0.70456 0.25867 0.33503 0.0
C1211 C 0.70577 0.23418 0.40051 0.0
C1212 C 0.70674 0.22528 0.4745 0.0
C1213 C 0.70649 0.24964 0.40752 0.0
C1214 C 0.70932 0.23197 0.55474 0.0
C1215 C 0.71031 0.24727 0.56197 0.0
H1216 H 0.82012 0.22391 0.09772 0.0
H1217 H 0.775 0.21831 0.01593 0.0
H1218 H 0.77239 0.24506 0.00167 0.0
H1219 H 0.78365 0.27004 0.00117 0.0
H1220 H 0.82925 0.27492 0.07516 0.0
H1221 H 0.83102 0.24849 0.10167 0.0
C1222 C 0.80971 0.22849 0.07636 0.0
C1223 C 0.79784 0.21902 0.057 0.0
C1224 C 0.80843 0.2438 0.06573 0.0
C1225 C 0.78431 0.22528 0.03188 0.0
C1226 C 0.78285 0.24059 0.02288 0.0
C1227 C 0.79392 0.26528 0.02373 0.0
C1228 C 0.80636 0.2744 0.03506 0.0
C1229 C 0.79493 0.24996 0.03797 0.0
C1230 C 0.8196 0.26811 0.06434 0.0
C1231 C 0.82061 0.253 0.07999 0.0
H1232 H 0.68543 0.73133 0.59429 0.0
H1233 H 0.72854 0.72835 0.47782 0.0
H1234 H 0.73108 0.75517 0.48478 0.0
H1235 H 0.72013 0.77975 0.51327 0.0
H1236 H 0.67621 0.78235 0.61814 0.0
H1237 H 0.6748 0.75545 0.62512 0.0
C1238 C 0.69536 0.7365 0.56971 0.0
C1239 C 0.70669 0.72776 0.53465 0.0
C1240 C 0.69655 0.75193 0.5713 0.0
C1241 C 0.71966 0.73473 0.50573 0.0
C1242 C 0.72108 0.7501 0.509 0.0
C1243 C 0.71035 0.77436 0.53845 0.0
C1244 C 0.69827 0.78292 0.56496 0.0
C1245 C 0.70948 0.75884 0.54022 0.0
C1246 C 0.68559 0.77591 0.59697 0.0
C1247 C 0.68479 0.76056 0.60096 0.0
H1248 H 0.47578 0.45809 0.86901 0.0
H1249 H 0.47334 0.45582 0.59215 0.0
H1250 H 0.50021 0.45698 0.58249 0.0
H1251 H 0.52435 0.45687 0.65268 0.0
H1252 H 0.527 0.45743 0.93006 0.0
H1253 H 0.50019 0.45919 0.93943 0.0
C1254 C 0.48115 0.4581 0.80664 0.0
C1255 C 0.47261 0.45681 0.73138 0.0
C1256 C 0.49665 0.45846 0.80164 0.0
C1257 C 0.4797 0.45667 0.65095 0.0
C1258 C 0.49505 0.45735 0.6454 0.0
C1259 C 0.51909 0.45737 0.71531 0.0
C1260 C 0.52776 0.4569 0.79045 0.0
C1261 C 0.50364 0.45792 0.72035 0.0
C1262 C 0.5207 0.45791 0.87095 0.0
C1263 C 0.50532 0.45878 0.87646 0.0
H1264 H 0.0202 0.54752 0.27866 0.0
H1265 H 0.02608 0.58123 0.47196 0.0
H1266 H 0.99961 0.5813 0.50011 0.0
H1267 H 0.97466 0.57267 0.46502 0.0
H1268 H 0.96878 0.53931 0.26971 0.0
H1269 H 0.99541 0.53777 0.25014 0.0
C1270 C 0.01574 0.55472 0.32792 0.0
C1271 C 0.02514 0.56447 0.37239 0.0
C1272 C 1.0005 0.55468 0.34407 0.0
C1273 C 0.01909 0.57383 0.43539 0.0
C1274 C 0.00396 0.5738 0.45204 0.0
C1275 C 0.9792 0.56501 0.41843 0.0
C1276 C 0.96968 0.55617 0.36879 0.0
C1277 C 0.99453 0.56444 0.40586 0.0
C1278 C 0.9758 0.54612 0.30972 0.0
C1279 C 0.99105 0.54535 0.2977 0.0
H1280 H 0.02339 0.468 0.71318 0.0
H1281 H 0.02653 0.42051 0.71469 0.0
H1282 H 0.99981 0.41846 0.70462 0.0
H1283 H 0.97554 0.42998 0.69882 0.0
H1284 H 0.97181 0.4774 0.69878 0.0
H1285 H 0.99873 0.47966 0.70274 0.0
C1286 C 0.01821 0.45723 0.71057 0.0
C1287 C 0.02696 0.44443 0.71596 0.0
C1288 C 0.00273 0.4561 0.70491 0.0
C1289 C 0.02006 0.43054 0.71256 0.0
C1290 C 0.00478 0.42934 0.70632 0.0
C1291 C 0.98058 0.44083 0.70047 0.0
C1292 C 0.97164 0.4535 0.69965 0.0
C1293 C 0.996 0.44203 0.70353 0.0
C1294 C 0.97842 0.46746 0.69923 0.0
C1295 C 0.99382 0.46876 0.70191 0.0
H1296 H 0.47905 0.53288 0.24109 0.0
H1297 H 0.47324 0.57968 0.20469 0.0
H1298 H 0.49984 0.58306 0.19489 0.0
H1299 H 0.52472 0.57297 0.2003 0.0
H1300 H 0.53114 0.52636 0.24087 0.0
H1301 H 0.5044 0.52259 0.24344 0.0
C1302 C 0.48365 0.54377 0.23036 0.0
C1303 C 0.4742 0.55603 0.22468 0.0
C1304 C 0.49906 0.54567 0.22547 0.0
C1305 C 0.48029 0.57011 0.21084 0.0
C1306 C 0.4955 0.57205 0.20488 0.0
C1307 C 0.52031 0.56199 0.21063 0.0
C1308 C 0.52996 0.55 0.22145 0.0
C1309 C 0.50498 0.55995 0.2132 0.0
C1310 C 0.52399 0.53579 0.23211 0.0
C1311 C 0.50868 0.53364 0.23403 0.0
H1312 H 0.19756 0.15154 0.39106 0.0
H1313 H 0.15183 0.16261 0.43069 0.0
H1314 H 0.15542 0.16185 0.58616 0.0
H1315 H 0.17182 0.1592 0.71246 0.0
H1316 H 0.21746 0.14775 0.67192 0.0
H1317 H 0.21359 0.14754 0.51689 0.0
C1318 C 0.18831 0.15362 0.43332 0.0
C1319 C 0.17445 0.15729 0.39785 0.0
C1320 C 0.19045 0.15322 0.52355 0.0
C1321 C 0.16269 0.16001 0.45506 0.0
C1322 C 0.16471 0.15953 0.54453 0.0
C1323 C 0.18089 0.15647 0.67004 0.0
C1324 C 0.19498 0.15367 0.70516 0.0
C1325 C 0.1786 0.15633 0.57979 0.0
C1326 C 0.20656 0.15026 0.64785 0.0
C1327 C 0.20434 0.15004 0.55859 0.0
H1328 H 0.08055 0.93217 0.64446 0.0
H1329 H 0.12605 0.94047 0.58036 0.0
H1330 H 0.13093 0.94835 0.72818 0.0
H1331 H 0.1223 0.95256 0.87567 0.0
H1332 H 0.07662 0.94487 0.93923 0.0
H1333 H 0.0718 0.93689 0.79178 0.0
C1334 C 0.09157 0.9355 0.66325 0.0
C1335 C 0.10296 0.93561 0.6018 0.0
C1336 C 0.09424 0.94016 0.74809 0.0
C1337 C 0.11711 0.94032 0.62652 0.0
C1338 C 0.1199 0.94482 0.71096 0.0
C1339 C 0.11124 0.94936 0.85722 0.0
C1340 C 0.09985 0.94931 0.91884 0.0
C1341 C 0.10853 0.94483 0.77222 0.0
C1342 C 0.08563 0.94485 0.89358 0.0
C1343 C 0.08285 0.94032 0.80916 0.0
H1344 H 0.29872 0.84634 0.88531 0.0
H1345 H 0.34537 0.83933 0.92345 0.0
H1346 H 0.34167 0.8383 0.07807 0.0
H1347 H 0.32527 0.83907 0.20416 0.0
H1348 H 0.2786 0.84558 0.16663 0.0
H1349 H 0.28223 0.84655 0.01168 0.0
C1350 C 0.3081 0.84446 0.92693 0.0
C1351 C 0.32235 0.84307 0.8911 0.0
C1352 C 0.3059 0.84368 0.01692 0.0
C1353 C 0.33429 0.84075 0.94771 0.0
C1354 C 0.33219 0.84005 0.03687 0.0
C1355 C 0.3159 0.84088 0.16236 0.0
C1356 C 0.30166 0.84223 0.19814 0.0
C1357 C 0.31806 0.84156 0.07241 0.0
C1358 C 0.28967 0.84432 0.14182 0.0
C1359 C 0.29175 0.84501 0.05262 0.0
H1360 H 0.4133 0.04474 0.11088 0.0
H1361 H 0.41507 0.09193 0.14379 0.0
H1362 H 0.41349 0.08899 0.29987 0.0
H1363 H 0.41087 0.07294 0.42834 0.0
H1364 H 0.40847 0.02589 0.39486 0.0
H1365 H 0.41164 0.02874 0.23956 0.0
C1366 C 0.41322 0.05438 0.15211 0.0
C1367 C 0.41422 0.06855 0.11513 0.0
C1368 C 0.41233 0.05261 0.24226 0.0
C1369 C 0.4144 0.0809 0.17013 0.0
C1370 C 0.41346 0.07923 0.25961 0.0
C1371 C 0.41112 0.06336 0.38661 0.0
C1372 C 0.40947 0.04921 0.42268 0.0
C1373 C 0.41237 0.06514 0.29655 0.0
C1374 C 0.40963 0.03687 0.36819 0.0
C1375 C 0.41129 0.03852 0.27923 0.0
H1376 H 0.16661 0.8463 0.56351 0.0
H1377 H 0.21109 0.85191 0.65607 0.0
H1378 H 0.22024 0.85322 0.50934 0.0
H1379 H 0.21582 0.85156 0.35468 0.0
H1380 H 0.17161 0.84413 0.2614 0.0
H1381 H 0.16216 0.84479 0.40785 0.0
C1382 C 0.17828 0.84787 0.55126 0.0
C1383 C 0.18809 0.84924 0.62049 0.0
C1384 C 0.18354 0.84822 0.46653 0.0
C1385 C 0.20321 0.8513 0.60405 0.0
C1386 C 0.20851 0.85185 0.52006 0.0
C1387 C 0.20414 0.85001 0.36646 0.0
C1388 C 0.19449 0.8478 0.2972 0.0
C1389 C 0.1988 0.85015 0.45089 0.0
C1390 C 0.17931 0.84606 0.31333 0.0
C1391 C 0.17388 0.84633 0.39721 0.0
H1392 H 0.4104 0.91044 0.82809 0.0
H1393 H 0.41361 0.95525 0.9181 0.0
H1394 H 0.41181 0.96442 0.7707 0.0
H1395 H 0.40791 0.95978 0.61728 0.0
H1396 H 0.40576 0.91513 0.52441 0.0
H1397 H 0.40833 0.9057 0.6716 0.0
C1398 C 0.41071 0.92218 0.81485 0.0
C1399 C 0.41167 0.93221 0.88325 0.0
C1400 C 0.40964 0.92737 0.73 0.0
C1401 C 0.41228 0.94741 0.86619 0.0
C1402 C 0.41132 0.95265 0.78226 0.0
C1403 C 0.40804 0.94801 0.62995 0.0
C1404 C 0.40663 0.93813 0.56152 0.0
C1405 C 0.40969 0.94275 0.71397 0.0
C1406 C 0.40694 0.92287 0.57706 0.0
C1407 C 0.40835 0.91751 0.66088 0.0
H1408 H 0.29098 0.14622 0.88399 0.0
H1409 H 0.33391 0.15796 0.78603 0.0
H1410 H 0.34341 0.16012 0.93212 0.0
H1411 H 0.33953 0.15856 0.08833 0.0
H1412 H 0.29641 0.14715 0.18533 0.0
H1413 H 0.28713 0.14455 0.0397 0.0
C1414 C 0.30241 0.14919 0.89493 0.0
C1415 C 0.31164 0.15211 0.82464 0.0
C1416 C 0.30784 0.15029 0.97899 0.0
C1417 C 0.32645 0.15601 0.83921 0.0
C1418 C 0.33195 0.15711 0.92272 0.0
C1419 C 0.32812 0.15552 0.07738 0.0
C1420 C 0.31879 0.15286 0.14768 0.0
C1421 C 0.32273 0.15431 0.99313 0.0
C1422 C 0.30399 0.14887 0.13264 0.0
C1423 C 0.29859 0.14754 0.04919 0.0
H1424 H 0.09055 0.08419 0.36378 0.0
H1425 H 0.09357 0.03962 0.45825 0.0
H1426 H 0.09569 0.03028 0.31177 0.0
H1427 H 0.09716 0.03477 0.15683 0.0
H1428 H 0.0934 0.07912 0.06022 0.0
H1429 H 0.09107 0.08862 0.20693 0.0
C1430 C 0.09168 0.07247 0.3518 0.0
C1431 C 0.09231 0.06264 0.42132 0.0
C1432 C 0.09279 0.06715 0.26724 0.0
C1433 C 0.09362 0.04743 0.40564 0.0
C1434 C 0.09472 0.04206 0.32204 0.0
C1435 C 0.09585 0.0465 0.16842 0.0
C1436 C 0.09539 0.05623 0.09868 0.0
C1437 C 0.09447 0.05183 0.25249 0.0
C1438 C 0.09357 0.07142 0.11342 0.0
C1439 C 0.09233 0.07685 0.19712 0.0
H1440 H 0.80597 0.84932 0.65466 0.0
H1441 H 0.84743 0.82703 0.61547 0.0
H1442 H 0.8445 0.82921 0.4601 0.0
H1443 H 0.83024 0.83757 0.33362 0.0
H1444 H 0.78894 0.86006 0.37295 0.0
H1445 H 0.79175 0.85771 0.5287 0.0
C1446 C 0.81443 0.84502 0.6125 0.0
C1447 C 0.82687 0.83791 0.64798 0.0
C1448 C 0.81269 0.84631 0.52237 0.0
C1449 C 0.83762 0.83236 0.59102 0.0
C1450 C 0.83599 0.83364 0.50165 0.0
C1451 C 0.82179 0.84182 0.37616 0.0
C1452 C 0.80939 0.84901 0.34096 0.0
C1453 C 0.82353 0.84053 0.46634 0.0
C1454 C 0.79867 0.85463 0.39778 0.0
C1455 C 0.80026 0.85326 0.48713 0.0
H1456 H 0.8972 0.03346 0.1371 0.0
H1457 H 0.89882 0.0783 0.04458 0.0
H1458 H 0.9007 0.08738 0.19184 0.0
H1459 H 0.90246 0.08247 0.3475 0.0
H1460 H 0.90057 0.03755 0.43801 0.0
H1461 H 0.89782 0.02862 0.29132 0.0
C1462 C 0.89774 0.04522 0.14921 0.0
C1463 C 0.89803 0.05514 0.08007 0.0
C1464 C 0.89871 0.05036 0.23377 0.0
C1465 C 0.89892 0.07038 0.09661 0.0
C1466 C 0.89989 0.0756 0.18083 0.0
C1467 C 0.90142 0.07076 0.33459 0.0
C1468 C 0.90157 0.06071 0.40306 0.0
C1469 C 0.89996 0.06568 0.24987 0.0
C1470 C 0.90016 0.04553 0.38631 0.0
C1471 C 0.89872 0.04039 0.30244 0.0
H1472 H 0.66648 0.15362 0.07509 0.0
H1473 H 0.70842 0.16982 0.16335 0.0
H1474 H 0.71821 0.16905 0.01668 0.0
H1475 H 0.71459 0.16416 0.86328 0.0
H1476 H 0.67292 0.14679 0.77495 0.0
H1477 H 0.66319 0.14774 0.92082 0.0
C1478 C 0.67772 0.15699 0.06136 0.0
C1479 C 0.68681 0.16167 0.1288 0.0
C1480 C 0.68327 0.15636 0.97704 0.0
C1481 C 0.70139 0.16598 0.11173 0.0
C1482 C 0.70693 0.1656 0.02812 0.0
C1483 C 0.70345 0.1604 0.87589 0.0
C1484 C 0.69449 0.15558 0.80772 0.0
C1485 C 0.69797 0.16078 0.96025 0.0
C1486 C 0.68 0.15088 0.8256 0.0
C1487 C 0.67442 0.15133 0.90926 0.0
H1488 H 0.60159 0.95896 0.90143 0.0
H1489 H 0.58422 0.91509 0.86194 0.0
H1490 H 0.58461 0.9189 0.70689 0.0
H1491 H 0.59069 0.93433 0.58076 0.0
H1492 H 0.60733 0.97839 0.62101 0.0
H1493 H 0.6062 0.97487 0.77642 0.0
C1494 C 0.59769 0.95025 0.8595 0.0
C1495 C 0.593 0.93667 0.89483 0.0
C1496 C 0.59782 0.95253 0.76959 0.0
C1497 C 0.58817 0.92556 0.83782 0.0
C1498 C 0.58829 0.92776 0.74854 0.0
C1499 C 0.59386 0.94325 0.62337 0.0
C1500 C 0.59921 0.95659 0.58842 0.0
C1501 C 0.59321 0.94115 0.71346 0.0
C1502 C 0.60341 0.96792 0.64548 0.0
C1503 C 0.60272 0.96594 0.73471 0.0
H1504 H 0.79921 0.16286 0.36386 0.0
H1505 H 0.84025 0.13961 0.40115 0.0
H1506 H 0.83631 0.13954 0.55566 0.0
H1507 H 0.82109 0.14557 0.68198 0.0
H1508 H 0.7798 0.16825 0.646 0.0
H1509 H 0.78387 0.16878 0.49061 0.0
C1510 C 0.80728 0.1577 0.40536 0.0
C1511 C 0.82012 0.15139 0.36929 0.0
C1512 C 0.80488 0.15751 0.49538 0.0
C1513 C 0.83041 0.14485 0.42564 0.0
C1514 C 0.82813 0.1447 0.51473 0.0
C1515 C 0.81305 0.15078 0.64038 0.0
C1516 C 0.80015 0.15687 0.67642 0.0
C1517 C 0.81543 0.151 0.55052 0.0
C1518 C 0.78976 0.16333 0.62061 0.0
C1519 C 0.79211 0.1637 0.53142 0.0
H1520 H 0.58653 0.04143 0.34807 0.0
H1521 H 0.62115 0.07147 0.4221 0.0
H1522 H 0.62278 0.0806 0.27409 0.0
H1523 H 0.61409 0.08014 0.12232 0.0
H1524 H 0.57918 0.05047 0.05074 0.0
H1525 H 0.57783 0.04104 0.19862 0.0
C1526 C 0.59454 0.04984 0.33162 0.0
C1527 C 0.60374 0.05571 0.39597 0.0
C1528 C 0.59529 0.05514 0.24672 0.0
C1529 C 0.61388 0.06684 0.37384 0.0
C1530 C 0.61484 0.07204 0.28919 0.0
C1531 C 0.60626 0.0716 0.13984 0.0
C1532 C 0.59677 0.06586 0.07685 0.0
C1533 C 0.60556 0.06632 0.22505 0.0
C1534 C 0.58656 0.05489 0.09909 0.0
C1535 C 0.58582 0.04955 0.18325 0.0
H1536 H 0.66615 0.84473 0.93561 0.0
H1537 H 0.70942 0.85534 0.83833 0.0
H1538 H 0.71884 0.85771 0.98372 0.0
H1539 H 0.71496 0.85639 0.13943 0.0
H1540 H 0.67198 0.84516 0.23831 0.0
H1541 H 0.66238 0.84298 0.09222 0.0
C1542 C 0.67762 0.84753 0.94648 0.0
C1543 C 0.68695 0.85017 0.87609 0.0
C1544 C 0.68309 0.84856 0.03075 0.0
C1545 C 0.70184 0.85377 0.89108 0.0
C1546 C 0.70731 0.85493 0.97441 0.0
C1547 C 0.70351 0.85349 0.12865 0.0
C1548 C 0.69427 0.85081 0.19914 0.0
C1549 C 0.69804 0.85236 0.04469 0.0
C1550 C 0.67943 0.84697 0.18489 0.0
C1551 C 0.67388 0.84586 0.10141 0.0
H1552 H 0.89863 0.9622 0.85466 0.0
H1553 H 0.9254 0.92597 0.94303 0.0
H1554 H 0.92665 0.91612 0.79733 0.0
H1555 H 0.92071 0.91811 0.64495 0.0
H1556 H 0.89425 0.95467 0.55567 0.0
H1557 H 0.89213 0.96381 0.70123 0.0
C1558 C 0.90481 0.95221 0.84166 0.0
C1559 C 0.9119 0.94484 0.90938 0.0
C1560 C 0.90548 0.94658 0.7576 0.0
C1561 C 0.91969 0.93177 0.89212 0.0
C1562 C 0.92046 0.92614 0.80877 0.0
C1563 C 0.91453 0.92811 0.6566 0.0
C1564 C 0.90803 0.93577 0.58761 0.0
C1565 C 0.91344 0.93349 0.74096 0.0
C1566 C 0.89962 0.94848 0.6059 0.0
C1567 C 0.89839 0.95383 0.68979 0.0
H1568 H 0.71838 0.66165 0.08679 0.0
H1569 H 0.6755 0.67564 0.17718 0.0
H1570 H 0.66625 0.67545 0.03104 0.0
H1571 H 0.66998 0.67035 0.87689 0.0
H1572 H 0.71324 0.65805 0.78771 0.0
H1573 H 0.7227 0.65881 0.93384 0.0
C1574 C 0.70707 0.66487 0.07533 0.0
C1575 C 0.69769 0.66829 0.14441 0.0
C1576 C 0.70181 0.66499 0.99077 0.0
C1577 C 0.68302 0.67249 0.12655 0.0
C1578 C 0.67766 0.67248 0.04247 0.0
C1579 C 0.68144 0.66781 0.88987 0.0
C1580 C 0.69083 0.66392 0.82195 0.0
C1581 C 0.68689 0.66849 0.97423 0.0
C1582 C 0.70577 0.66097 0.83896 0.0
C1583 C 0.71119 0.66139 0.92257 0.0
H1584 H 0.58787 0.41253 0.17023 0.0
H1585 H 0.59823 0.4562 0.07907 0.0
H1586 H 0.60278 0.46453 0.22555 0.0
H1587 H 0.60301 0.45962 0.37988 0.0
H1588 H 0.5927 0.41602 0.47335 0.0
H1589 H 0.58869 0.40746 0.32632 0.0
C1590 C 0.59114 0.42383 0.18303 0.0
C1591 C 0.59298 0.43368 0.11438 0.0
C1592 C 0.59362 0.42857 0.26773 0.0
C1593 C 0.59718 0.44833 0.13096 0.0
C1594 C 0.59964 0.45313 0.21469 0.0
C1595 C 0.60007 0.44821 0.36792 0.0
C1596 C 0.59806 0.43853 0.43723 0.0
C1597 C 0.59787 0.44335 0.28351 0.0
C1598 C 0.59405 0.42379 0.42109 0.0
C1599 C 0.59184 0.41885 0.33702 0.0
H1600 H 0.8048 0.36301 0.6065 0.0
H1601 H 0.81072 0.31705 0.66968 0.0
H1602 H 0.81875 0.31205 0.5224 0.0
H1603 H 0.82373 0.3207 0.37474 0.0
H1604 H 0.81701 0.36649 0.31143 0.0
H1605 H 0.80942 0.37156 0.45951 0.0
C1606 C 0.80762 0.35184 0.58818 0.0
C1607 C 0.80709 0.34042 0.64969 0.0
C1608 C 0.81213 0.34903 0.5032 0.0
C1609 C 0.81114 0.32609 0.62428 0.0
C1610 C 0.81569 0.32321 0.53988 0.0
C1611 C 0.82081 0.33182 0.39373 0.0
C1612 C 0.82104 0.34323 0.33225 0.0
C1613 C 0.81628 0.33461 0.47883 0.0
C1614 C 0.81688 0.35752 0.35743 0.0
C1615 C 0.81255 0.36042 0.44208 0.0
H1616 H 0.91821 0.54815 0.9087 0.0
H1617 H 0.88439 0.5773 0.00319 0.0
H1618 H 0.87803 0.58424 0.8559 0.0
H1619 H 0.88394 0.58387 0.70061 0.0
H1620 H 0.91913 0.55583 0.61022 0.0
H1621 H 0.92315 0.54671 0.75494 0.0
C1622 C 0.90935 0.55589 0.89675 0.0
C1623 C 0.90189 0.56226 0.96635 0.0
C1624 C 0.90613 0.5602 0.81254 0.0
C1625 C 0.89023 0.57212 0.95052 0.0
C1626 C 0.88672 0.57625 0.86636 0.0
C1627 C 0.89247 0.57579 0.7129 0.0
C1628 C 0.90119 0.57057 0.64468 0.0
C1629 C 0.89492 0.5707 0.79701 0.0
C1630 C 0.91209 0.55991 0.66114 0.0
C1631 C 0.91448 0.55471 0.74409 0.0
H1632 H 0.71169 0.35233 0.86755 0.0
H1633 H 0.66757 0.34658 0.76964 0.0
H1634 H 0.65806 0.34441 0.91598 0.0
H1635 H 0.66237 0.34406 0.07307 0.0
H1636 H 0.70659 0.3498 0.16871 0.0
H1637 H 0.71594 0.35241 0.02278 0.0
C1638 C 0.69998 0.35074 0.87839 0.0
C1639 C 0.69041 0.34949 0.80799 0.0
C1640 C 0.69459 0.34962 0.96251 0.0
C1641 C 0.67525 0.34727 0.82272 0.0
C1642 C 0.66977 0.34614 0.90644 0.0
C1643 C 0.67402 0.34592 0.0614 0.0
C1644 C 0.68373 0.34707 0.13127 0.0
C1645 C 0.67935 0.34723 0.9769 0.0
C1646 C 0.69884 0.34939 0.11595 0.0
C1647 C 0.70422 0.3507 0.03248 0.0
H1648 H 0.90973 0.4278 0.03293 0.0
H1649 H 0.89084 0.47083 0.07407 0.0
H1650 H 0.89233 0.46737 0.22957 0.0
H1651 H 0.89904 0.4522 0.35474 0.0
H1652 H 0.91782 0.40906 0.31446 0.0
H1653 H 0.91639 0.41253 0.15915 0.0
C1654 C 0.90611 0.43649 0.07585 0.0
C1655 C 0.90017 0.44958 0.04113 0.0
C1656 C 0.90694 0.4344 0.16602 0.0
C1657 C 0.89532 0.4606 0.09844 0.0
C1658 C 0.8962 0.45864 0.1877 0.0
C1659 C 0.90276 0.44349 0.31249 0.0
C1660 C 0.90867 0.43042 0.34775 0.0
C1661 C 0.90192 0.44556 0.22243 0.0
C1662 C 0.91344 0.41935 0.29038 0.0
C1663 C 0.91258 0.4213 0.20098 0.0
H1664 H 0.80643 0.67174 0.32847 0.0
H1665 H 0.79498 0.62571 0.35689 0.0
H1666 H 0.79906 0.62726 0.51053 0.0
H1667 H 0.80629 0.64138 0.63872 0.0
H1668 H 0.81856 0.6871 0.61165 0.0
H1669 H 0.8141 0.68581 0.45692 0.0
C1670 C 0.80492 0.662 0.36781 0.0
C1671 C 0.80022 0.64867 0.32947 0.0
C1672 C 0.80755 0.66283 0.45734 0.0
C1673 C 0.79827 0.63625 0.38306 0.0
C1674 C 0.80072 0.63706 0.47172 0.0
C1675 C 0.8079 0.65109 0.59915 0.0
C1676 C 0.81282 0.66429 0.63736 0.0
C1677 C 0.80535 0.65027 0.50974 0.0
C1678 C 0.815 0.67671 0.58435 0.0
C1679 C 0.81236 0.67601 0.4956 0.0
H1680 H 0.61965 0.56171 0.60026 0.0
H1681 H 0.57345 0.55977 0.53497 0.0
H1682 H 0.56689 0.56637 0.68234 0.0
H1683 H 0.57426 0.57256 0.83002 0.0
H1684 H 0.62036 0.57398 0.89661 0.0
H1685 H 0.62701 0.56753 0.74868 0.0
C1686 C 0.60815 0.56253 0.61841 0.0
C1687 C 0.59706 0.56028 0.55632 0.0
C1688 C 0.60444 0.5663 0.70346 0.0
C1689 C 0.58221 0.56163 0.58103 0.0
C1690 C 0.57844 0.56537 0.6654 0.0
C1691 C 0.58575 0.57167 0.8118 0.0
C1692 C 0.59681 0.57387 0.87394 0.0
C1693 C 0.58946 0.56782 0.72699 0.0
C1694 C 0.61166 0.57231 0.8499 0.0
C1695 C 0.61546 0.56863 0.76539 0.0
H1696 H 0.28481 0.34665 0.89217 0.0
H1697 H 0.32908 0.3423 0.79557 0.0
H1698 H 0.33853 0.33965 0.94222 0.0
H1699 H 0.33411 0.33929 0.09896 0.0
H1700 H 0.28957 0.34272 0.19359 0.0
H1701 H 0.28027 0.3449 0.04708 0.0
C1702 C 0.2965 0.34511 0.9038 0.0
C1703 C 0.30624 0.34462 0.83416 0.0
C1704 C 0.30179 0.34352 0.98782 0.0
C1705 C 0.32138 0.34251 0.84881 0.0
C1706 C 0.32679 0.34108 0.93244 0.0
C1707 C 0.32239 0.3405 0.08707 0.0
C1708 C 0.31259 0.34127 0.15664 0.0
C1709 C 0.31709 0.34165 0.00255 0.0
C1710 C 0.29738 0.34268 0.14097 0.0
C1711 C 0.29203 0.34381 0.05737 0.0
H1712 H 0.38523 0.54727 0.63553 0.0
H1713 H 0.43073 0.55608 0.57232 0.0
H1714 H 0.43532 0.56425 0.7196 0.0
H1715 H 0.42644 0.56888 0.86636 0.0
H1716 H 0.38113 0.55963 0.93078 0.0
H1717 H 0.37647 0.55143 0.78326 0.0
C1718 C 0.3962 0.55077 0.6541 0.0
C1719 C 0.40761 0.55109 0.59254 0.0
C1720 C 0.39878 0.55544 0.73909 0.0
C1721 C 0.42171 0.5559 0.6179 0.0
C1722 C 0.42435 0.56054 0.70223 0.0
C1723 C 0.41549 0.56529 0.84781 0.0
C1724 C 0.40411 0.56501 0.90931 0.0
C1725 C 0.41295 0.56047 0.76316 0.0
C1726 C 0.39007 0.55994 0.88469 0.0
C1727 C 0.38741 0.55526 0.80037 0.0
H1728 H 0.16054 0.65743 0.5671 0.0
H1729 H 0.20501 0.6632 0.65835 0.0
H1730 H 0.21439 0.66211 0.51144 0.0
H1731 H 0.21008 0.65839 0.3575 0.0
H1732 H 0.16571 0.65391 0.26324 0.0
H1733 H 0.15604 0.65554 0.41037 0.0
C1734 C 0.17225 0.65847 0.55426 0.0
C1735 C 0.18215 0.65988 0.62304 0.0
C1736 C 0.17755 0.65795 0.46946 0.0
C1737 C 0.1973 0.66145 0.60632 0.0
C1738 C 0.20265 0.66095 0.52253 0.0
C1739 C 0.19832 0.65782 0.36985 0.0
C1740 C 0.18859 0.65603 0.30104 0.0
C1741 C 0.19292 0.65894 0.45385 0.0
C1742 C 0.17333 0.65542 0.31618 0.0
C1743 C 0.16784 0.65629 0.39996 0.0
H1744 H 0.11487 0.45307 0.13814 0.0
H1745 H 0.0704 0.44002 0.07535 0.0
H1746 H 0.06665 0.43136 0.22265 0.0
H1747 H 0.07592 0.42787 0.37006 0.0
H1748 H 0.12013 0.44156 0.43339 0.0
H1749 H 0.12407 0.44973 0.28514 0.0
C1750 C 0.10429 0.44853 0.15681 0.0
C1751 C 0.09292 0.44723 0.09568 0.0
C1752 C 0.1022 0.44362 0.24162 0.0
C1753 C 0.07937 0.44102 0.12089 0.0
C1754 C 0.07721 0.4361 0.20514 0.0
C1755 C 0.08647 0.43244 0.35094 0.0
C1756 C 0.09775 0.43405 0.41226 0.0
C1757 C 0.08857 0.4373 0.26597 0.0
C1758 C 0.11128 0.44028 0.38721 0.0
C1759 C 0.11353 0.44495 0.30259 0.0
H1760 H 0.28848 0.65577 0.1311 0.0
H1761 H 0.33299 0.65111 0.22219 0.0
H1762 H 0.34245 0.65362 0.07487 0.0
H1763 H 0.33768 0.65625 0.91874 0.0
H1764 H 0.29307 0.6622 0.83077 0.0
H1765 H 0.28394 0.66047 0.97833 0.0
C1766 C 0.30022 0.65534 0.11796 0.0
C1767 C 0.31006 0.65321 0.18578 0.0
C1768 C 0.30549 0.65701 0.03397 0.0
C1769 C 0.3253 0.65282 0.16983 0.0
C1770 C 0.33066 0.65421 0.086 0.0
C1771 C 0.326 0.6572 0.93243 0.0
C1772 C 0.31598 0.65887 0.86448 0.0
C1773 C 0.32083 0.65621 0.01738 0.0
C1774 C 0.30086 0.6603 0.88224 0.0
C1775 C 0.29565 0.65939 0.96625 0.0
H1776 H 0.07675 0.54906 0.91263 0.0
H1777 H 0.10253 0.58586 0.00272 0.0
H1778 H 0.10491 0.59517 0.85576 0.0
H1779 H 0.10065 0.59206 0.70154 0.0
H1780 H 0.07317 0.55611 0.61289 0.0
H1781 H 0.07054 0.54727 0.75891 0.0
C1782 C 0.08282 0.55913 0.89952 0.0
C1783 C 0.08954 0.56673 0.96744 0.0
C1784 C 0.08391 0.56453 0.81525 0.0
C1785 C 0.09724 0.57988 0.95089 0.0
C1786 C 0.09863 0.58517 0.86704 0.0
C1787 C 0.0939 0.58243 0.71368 0.0
C1788 C 0.08748 0.57466 0.64485 0.0
C1789 C 0.09211 0.5775 0.79857 0.0
C1790 C 0.07872 0.56217 0.6632 0.0
C1791 C 0.07707 0.5571 0.74727 0.0
H1792 H 0.18671 0.32476 0.37579 0.0
H1793 H 0.1907 0.37079 0.31042 0.0
H1794 H 0.19837 0.37647 0.45764 0.0
H1795 H 0.20336 0.3684 0.60568 0.0
H1796 H 0.19981 0.32225 0.67031 0.0
H1797 H 0.19241 0.31658 0.52289 0.0
C1798 C 0.18907 0.33605 0.39413 0.0
C1799 C 0.18798 0.34736 0.33253 0.0
C1800 C 0.19359 0.3392 0.47867 0.0
C1801 C 0.19146 0.3619 0.3567 0.0
C1802 C 0.19584 0.36515 0.44082 0.0
C1803 C 0.20119 0.35707 0.58738 0.0
C1804 C 0.20208 0.34578 0.64939 0.0
C1805 C 0.19695 0.35388 0.50238 0.0
C1806 C 0.19901 0.33119 0.62436 0.0
C1807 C 0.19481 0.32793 0.53996 0.0
H1808 H 0.4169 0.42047 0.13979 0.0
H1809 H 0.38683 0.4538 0.04592 0.0
H1810 H 0.38263 0.46225 0.19099 0.0
H1811 H 0.38877 0.46162 0.34399 0.0
H1812 H 0.41817 0.42779 0.43837 0.0
H1813 H 0.42175 0.41875 0.29355 0.0
C1814 C 0.40947 0.42962 0.15032 0.0
C1815 C 0.40257 0.43658 0.08019 0.0
C1816 C 0.40717 0.43468 0.2345 0.0
C1817 C 0.39254 0.44812 0.097 0.0
C1818 C 0.39012 0.45311 0.18067 0.0
C1819 C 0.39585 0.45219 0.33338 0.0
C1820 C 0.40332 0.44567 0.40291 0.0
C1821 C 0.39763 0.44669 0.24966 0.0
C1822 C 0.41254 0.43345 0.38691 0.0
C1823 C 0.41449 0.42808 0.30369 0.0
H1824 H 0.25363 0.15974 0.43677 0.0
H1825 H 0.28476 0.13119 0.30958 0.0
H1826 H 0.26671 0.126 0.19656 0.0
H1827 H 0.24213 0.13041 0.13055 0.0
H1828 H 0.2117 0.15942 0.26077 0.0
H1829 H 0.22924 0.16336 0.37527 0.0
C1830 C 0.25647 0.15226 0.38492 0.0
C1831 C 0.27063 0.14602 0.38144 0.0
C1832 C 0.24609 0.1494 0.31999 0.0
C1833 C 0.27403 0.13634 0.31345 0.0
C1834 C 0.26368 0.13333 0.24874 0.0
C1835 C 0.23933 0.13754 0.18415 0.0
C1836 C 0.22554 0.14468 0.18583 0.0
C1837 C 0.24969 0.13995 0.25065 0.0
C1838 C 0.22218 0.15387 0.2562 0.0
C1839 C 0.23225 0.15614 0.32248 0.0
H1840 H 0.1112 0.02875 0.56337 0.0
H1841 H 0.09428 0.996 0.73905 0.0
H1842 H 0.09675 0.97709 0.62837 0.0
H1843 H 0.10057 0.97053 0.47658 0.0
H1844 H 0.1151 0.00374 0.29688 0.0
H1845 H 0.11671 0.02179 0.4139 0.0
C1846 C 0.10804 0.01753 0.57767 0.0
C1847 C 0.10217 0.01399 0.65904 0.0
C1848 C 0.10891 0.00678 0.51243 0.0
C1849 C 0.0986 0.99917 0.67675 0.0
C1850 C 0.09996 0.98832 0.61328 0.0
C1851 C 0.10437 0.98163 0.46327 0.0
C1852 C 0.10779 0.98578 0.37824 0.0
C1853 C 0.10462 0.9921 0.53006 0.0
C1854 C 0.11238 1.00031 0.36178 0.0
C1855 C 0.11324 0.01063 0.42858 0.0
H1856 H 0.28337 0.85861 0.7501 0.0
H1857 H 0.25704 0.86794 0.5257 0.0
H1858 H 0.23495 0.86989 0.61586 0.0
H1859 H 0.22302 0.86772 0.75813 0.0
H1860 H 0.24948 0.85951 0.98298 0.0
H1861 H 0.27177 0.85872 0.89321 0.0
C1862 C 0.27279 0.86107 0.72106 0.0
C1863 C 0.27177 0.86293 0.63138 0.0
C1864 C 0.26021 0.86237 0.77337 0.0
C1865 C 0.25807 0.86645 0.59462 0.0
C1866 C 0.24545 0.86749 0.64606 0.0
C1867 C 0.23365 0.86564 0.78715 0.0
C1868 C 0.23464 0.86338 0.87642 0.0
C1869 C 0.24635 0.86525 0.73534 0.0
C1870 C 0.24852 0.86124 0.91421 0.0
C1871 C 0.2612 0.86067 0.863 0.0
H1872 H 0.39727 0.96757 0.01822 0.0
H1873 H 0.40087 0.99844 0.22817 0.0
H1874 H 0.39909 0.01898 0.12643 0.0
H1875 H 0.40123 0.0279 0.97884 0.0
H1876 H 0.39955 0.99707 0.76803 0.0
H1877 H 0.39577 0.9768 0.86972 0.0
C1878 C 0.39754 0.97873 0.04212 0.0
C1879 C 0.39953 0.98138 0.13061 0.0
C1880 C 0.39731 0.99051 0.98321 0.0
C1881 C 0.39962 0.99604 0.16024 0.0
C1882 C 0.39876 0.0078 0.1023 0.0
C1883 C 0.3998 0.01683 0.95474 0.0
C1884 C 0.40085 0.01405 0.86594 0.0
C1885 C 0.39833 0.00515 0.01353 0.0
C1886 C 0.39903 0.99952 0.83621 0.0
C1887 C 0.39699 0.98789 0.89426 0.0
H1888 H 0.75936 0.86675 0.9217 0.0
H1889 H 0.79161 0.84074 0.78563 0.0
H1890 H 0.77614 0.84047 0.65828 0.0
H1891 H 0.75247 0.84548 0.58943 0.0
H1892 H 0.72008 0.8719 0.72152 0.0
H1893 H 0.73642 0.87406 0.84581 0.0
C1894 C 0.76305 0.8612 0.86373 0.0
C1895 C 0.77678 0.85399 0.86311 0.0
C1896 C 0.75394 0.86094 0.79013 0.0
C1897 C 0.78136 0.8468 0.78747 0.0
C1898 C 0.7724 0.84645 0.71462 0.0
C1899 C 0.74903 0.85191 0.64474 0.0
C1900 C 0.73482 0.85809 0.64702 0.0
C1901 C 0.75856 0.85324 0.71566 0.0
C1902 C 0.73073 0.86657 0.719 0.0
C1903 C 0.74012 0.86789 0.79011 0.0
H1904 H 0.88702 0.02325 0.55848 0.0
H1905 H 0.91848 0.99715 0.70097 0.0
H1906 H 0.91785 0.9783 0.58996 0.0
H1907 H 0.90942 0.96963 0.45058 0.0
H1908 H 0.87744 0.9947 0.3067 0.0
H1909 H 0.87745 0.0137 0.41943 0.0
C1910 C 0.89369 0.01342 0.56539 0.0
C1911 C 0.90293 0.01179 0.63785 0.0
C1912 C 0.89332 0.00251 0.50067 0.0
C1913 C 0.91131 0.99882 0.6461 0.0
C1914 C 0.91102 0.98801 0.58233 0.0
C1915 C 0.90239 0.97921 0.44347 0.0
C1916 C 0.89349 0.98074 0.36984 0.0
C1917 C 0.90225 0.98984 0.50893 0.0
C1918 C 0.88439 0.99322 0.36268 0.0
C1919 C 0.88439 0.00407 0.4272 0.0
H1920 H 0.74037 0.12101 0.39373 0.0
H1921 H 0.72313 0.16074 0.27936 0.0
H1922 H 0.74301 0.16107 0.17547 0.0
H1923 H 0.76574 0.15059 0.11824 0.0
H1924 H 0.7839 0.11126 0.23265 0.0
H1925 H 0.76317 0.11006 0.33302 0.0
C1926 C 0.74097 0.12973 0.3461 0.0
C1927 C 0.73027 0.14099 0.34584 0.0
C1928 C 0.75262 0.12987 0.28567 0.0
C1929 C 0.73126 0.15212 0.28299 0.0
C1930 C 0.74263 0.15226 0.22266 0.0
C1931 C 0.76521 0.14174 0.16497 0.0
C1932 C 0.77649 0.13114 0.16803 0.0
C1933 C 0.75344 0.14128 0.22377 0.0
C1934 C 0.7754 0.11961 0.22848 0.0
C1935 C 0.76357 0.11895 0.28644 0.0
H1936 H 0.59793 0.03154 0.93826 0.0
H1937 H 0.62757 0.00363 0.79485 0.0
H1938 H 0.62615 0.98497 0.90907 0.0
H1939 H 0.61623 0.97664 0.0505 0.0
H1940 H 0.58742 0.00579 0.1924 0.0
H1941 H 0.58878 0.02377 0.07721 0.0
C1942 C 0.60417 0.02145 0.93141 0.0
C1943 C 0.61287 0.01909 0.85766 0.0
C1944 C 0.60352 0.01097 0.99764 0.0
C1945 C 0.62082 0.00582 0.85093 0.0
C1946 C 0.62003 0.99514 0.91635 0.0
C1947 C 0.61042 0.98703 0.05673 0.0
C1948 C 0.60176 0.9898 0.1306 0.0
C1949 C 0.61142 0.99762 0.99032 0.0
C1950 C 0.59427 0.00332 0.13714 0.0
C1951 C 0.59503 0.01368 0.07115 0.0
H1952 H 0.77401 0.65439 0.77329 0.0
H1953 H 0.74926 0.63344 0.97619 0.0
H1954 H 0.72955 0.62735 0.87443 0.0
H1955 H 0.71839 0.6301 0.73167 0.0
H1956 H 0.74164 0.65406 0.53381 0.0
H1957 H 0.76309 0.6565 0.62849 0.0
C1958 C 0.76445 0.64818 0.79455 0.0
C1959 C 0.76314 0.64416 0.88167 0.0
C1960 C 0.7529 0.6453 0.73645 0.0
C1961 C 0.75051 0.63655 0.90924 0.0
C1962 C 0.73926 0.63308 0.85111 0.0
C1963 C 0.72827 0.63556 0.7085 0.0
C1964 C 0.72844 0.64186 0.6257 0.0
C1965 C 0.7402 0.63766 0.76498 0.0
C1966 C 0.74124 0.64914 0.59731 0.0
C1967 C 0.75346 0.65061 0.65161 0.0
H1968 H 0.59651 0.50012 0.81843 0.0
H1969 H 0.61594 0.46492 0.96633 0.0
H1970 H 0.62003 0.48175 0.08656 0.0
H1971 H 0.61596 0.50613 0.15468 0.0
H1972 H 0.5973 0.54126 0.00234 0.0
H1973 H 0.59546 0.52499 0.87903 0.0
C1974 C 0.60184 0.49613 0.87639 0.0
C1975 C 0.6054 0.48109 0.8842 0.0
C1976 C 0.60436 0.50594 0.94489 0.0
C1977 C 0.6126 0.47628 0.95933 0.0
C1978 C 0.61502 0.48595 0.02819 0.0
C1979 C 0.61171 0.51026 0.09409 0.0
C1980 C 0.60682 0.52497 0.08833 0.0
C1981 C 0.61056 0.50073 0.02264 0.0
C1982 C 0.6014 0.53014 0.00895 0.0
C1983 C 0.60018 0.52075 0.93818 0.0
H1984 H 0.74971 0.343 0.40739 0.0
H1985 H 0.71648 0.36902 0.27973 0.0
H1986 H 0.7322 0.37112 0.15278 0.0
H1987 H 0.75461 0.36355 0.07283 0.0
H1988 H 0.78806 0.33847 0.20504 0.0
H1989 H 0.77322 0.33831 0.33534 0.0
C1990 C 0.74594 0.34934 0.35247 0.0
C1991 C 0.73164 0.35536 0.35221 0.0
C1992 C 0.75513 0.35067 0.28003 0.0
C1993 C 0.72719 0.36382 0.28092 0.0
C1994 C 0.73622 0.36508 0.20817 0.0
C1995 C 0.75869 0.35821 0.13054 0.0
C1996 C 0.77245 0.35106 0.12892 0.0
C1997 C 0.75005 0.35816 0.20597 0.0
C1998 C 0.77765 0.34427 0.20448 0.0
C1999 C 0.76909 0.34405 0.2791 0.0
H2000 H 0.88777 0.50088 0.64938 0.0
H2001 H 0.90369 0.46742 0.47621 0.0
H2002 H 0.90125 0.4842 0.3548 0.0
H2003 H 0.89694 0.50919 0.29958 0.0
H2004 H 0.88182 0.54314 0.47292 0.0
H2005 H 0.88154 0.52551 0.59159 0.0
C2006 C 0.89048 0.49723 0.58479 0.0
C2007 C 0.89555 0.48274 0.57162 0.0
C2008 C 0.88931 0.50713 0.5151 0.0
C2009 C 0.89917 0.47824 0.48769 0.0
C2010 C 0.89799 0.48795 0.41824 0.0
C2011 C 0.89325 0.51267 0.36277 0.0
C2012 C 0.88957 0.52754 0.37719 0.0
C2013 C 0.89329 0.5025 0.43127 0.0
C2014 C 0.88489 0.53182 0.45996 0.0
C2015 C 0.88475 0.52173 0.52811 0.0
H2016 H 0.27873 0.36102 0.30242 0.0
H2017 H 0.24645 0.34189 0.47338 0.0
H2018 H 0.22794 0.34303 0.35982 0.0
H2019 H 0.22182 0.34638 0.20705 0.0
H2020 H 0.25467 0.3634 0.03251 0.0
H2021 H 0.27208 0.36608 0.15205 0.0
C2022 C 0.26771 0.35704 0.31501 0.0
C2023 C 0.26422 0.35095 0.39591 0.0
C2024 C 0.25724 0.35718 0.24821 0.0
C2025 C 0.24961 0.34642 0.41153 0.0
C2026 C 0.23899 0.34699 0.34637 0.0
C2027 C 0.2327 0.35092 0.19534 0.0
C2028 C 0.23696 0.35471 0.11101 0.0
C2029 C 0.24282 0.35187 0.26366 0.0
C2030 C 0.25118 0.36033 0.09676 0.0
C2031 C 0.26114 0.36182 0.16503 0.0
H2032 H 0.40309 0.47075 0.95537 0.0
H2033 H 0.39275 0.50487 0.77179 0.0
H2034 H 0.39195 0.52312 0.88785 0.0
H2035 H 0.39593 0.52956 0.03969 0.0
H2036 H 0.40767 0.49558 0.22151 0.0
H2037 H 0.40637 0.47715 0.10761 0.0
C2038 C 0.4003 0.4821 0.94094 0.0
C2039 C 0.39778 0.48639 0.85507 0.0
C2040 C 0.40025 0.49258 0.00765 0.0
C2041 C 0.39465 0.50126 0.83732 0.0
C2042 C 0.39422 0.5117 0.90368 0.0
C2043 C 0.39789 0.51812 0.05513 0.0
C2044 C 0.40186 0.51405 0.1396 0.0
C2045 C 0.39723 0.50753 0.98895 0.0
C2046 C 0.40456 0.49909 0.1574 0.0
C2047 C 0.40376 0.48849 0.09225 0.0
H2048 H 0.21875 0.64902 0.75658 0.0
H2049 H 0.24851 0.65091 0.97222 0.0
H2050 H 0.26946 0.64765 0.87503 0.0
H2051 H 0.27942 0.64801 0.72823 0.0
H2052 H 0.24972 0.64826 0.51194 0.0
H2053 H 0.22867 0.64683 0.60988 0.0
C2054 C 0.22976 0.64858 0.78251 0.0
C2055 C 0.232 0.6504 0.87148 0.0
C2056 C 0.24182 0.64742 0.72593 0.0
C2057 C 0.24645 0.64975 0.90387 0.0
C2058 C 0.25846 0.64799 0.84835 0.0
C2059 C 0.26841 0.64754 0.70231 0.0
C2060 C 0.26623 0.64839 0.61282 0.0
C2061 C 0.25632 0.64739 0.75905 0.0
C2062 C 0.25175 0.6478 0.5806 0.0
C2063 C 0.23968 0.64708 0.63655 0.0
H2064 H 0.12344 0.51972 0.44946 0.0
H2065 H 0.07825 0.53473 0.45047 0.0
H2066 H 0.07168 0.51575 0.55307 0.0
H2067 H 0.07858 0.49513 0.64567 0.0
H2068 H 0.12282 0.478 0.63686 0.0
H2069 H 0.12993 0.49742 0.53457 0.0
C2070 C 0.11215 0.51876 0.47171 0.0
C2071 C 0.10145 0.52886 0.44263 0.0
C2072 C 0.10827 0.50745 0.52996 0.0
C2073 C 0.08681 0.52727 0.47153 0.0
C2074 C 0.08299 0.51639 0.53074 0.0
C2075 C 0.08981 0.49573 0.62175 0.0
C2076 C 0.10025 0.4854 0.64984 0.0
C2077 C 0.09363 0.50653 0.56107 0.0
C2078 C 0.11464 0.48598 0.61656 0.0
C2079 C 0.11869 0.49705 0.55808 0.0
H2080 H 0.16818 0.11899 0.87064 0.0
H2081 H 0.14802 0.1223 0.12089 0.0
H2082 H 0.1305 0.10279 0.08315 0.0
H2083 H 0.11878 0.08757 0.97225 0.0
H2084 H 0.13839 0.08405 0.72059 0.0
H2085 H 0.15844 0.10067 0.76529 0.0
C2086 C 0.16028 0.11499 0.91765 0.0
C2087 C 0.15946 0.12182 0.9989 0.0
C2088 C 0.15003 0.10396 0.89456 0.0
C2089 C 0.14896 0.11695 0.05874 0.0
C2090 C 0.13887 0.10593 0.03679 0.0
C2091 C 0.12762 0.09023 0.92773 0.0
C2092 C 0.12708 0.08479 0.84303 0.0
C2093 C 0.13897 0.09977 0.9539 0.0
C2094 C 0.13862 0.08813 0.78612 0.0
C2095 C 0.15001 0.0977 0.8116 0.0
H2096 H 0.17573 0.8849 0.13086 0.0
H2097 H 0.15346 0.88217 0.88645 0.0
H2098 H 0.13643 0.90162 0.93034 0.0
H2099 H 0.12555 0.91632 0.04537 0.0
H2100 H 0.14656 0.91869 0.29351 0.0
H2101 H 0.16656 0.90266 0.2414 0.0
C2102 C 0.16748 0.88902 0.08644 0.0
C2103 C 0.1659 0.88234 0.0051 0.0
C2104 C 0.15736 0.8999 0.11355 0.0
C2105 C 0.15495 0.88736 0.94871 0.0
C2106 C 0.14514 0.89836 0.97414 0.0
C2107 C 0.13468 0.91355 0.08755 0.0
C2108 C 0.13456 0.91847 0.17331 0.0
C2109 C 0.14588 0.90424 0.0575 0.0
C2110 C 0.14648 0.91501 0.22718 0.0
C2111 C 0.15783 0.90577 0.19747 0.0
H2112 H 0.33573 0.87303 0.31826 0.0
H2113 H 0.34151 0.88537 0.58377 0.0
H2114 H 0.35874 0.90494 0.54109 0.0
H2115 H 0.37495 0.91571 0.42959 0.0
H2116 H 0.3687 0.90385 0.16369 0.0
H2117 H 0.34862 0.88704 0.20427 0.0
C2118 C 0.34041 0.88037 0.36624 0.0
C2119 C 0.33741 0.87791 0.45384 0.0
C2120 C 0.35029 0.89152 0.34102 0.0
C2121 C 0.34357 0.88727 0.51597 0.0
C2122 C 0.35351 0.89833 0.49156 0.0
C2123 C 0.36884 0.90976 0.38055 0.0
C2124 C 0.37318 0.91091 0.29394 0.0
C2125 C 0.35736 0.90017 0.40458 0.0
C2126 C 0.36536 0.90317 0.23055 0.0
C2127 C 0.35401 0.8935 0.25392 0.0
H2128 H 0.37655 0.08059 0.56173 0.0
H2129 H 0.37124 0.08863 0.83322 0.0
H2130 H 0.35105 0.10588 0.80318 0.0
H2131 H 0.33776 0.12134 0.69788 0.0
H2132 H 0.34239 0.11263 0.42666 0.0
H2133 H 0.35985 0.09268 0.45784 0.0
C2134 C 0.37066 0.08584 0.61422 0.0
C2135 C 0.37533 0.08353 0.69943 0.0
C2136 C 0.35908 0.09564 0.59626 0.0
C2137 C 0.3677 0.09026 0.76729 0.0
C2138 C 0.35627 0.10018 0.74999 0.0
C2139 C 0.3423 0.11475 0.64594 0.0
C2140 C 0.33896 0.11839 0.56017 0.0
C2141 C 0.35226 0.10335 0.66458 0.0
C2142 C 0.34478 0.10987 0.49306 0.0
C2143 C 0.35485 0.09859 0.51094 0.0
H2144 H 0.83512 0.88597 0.10106 0.0
H2145 H 0.86745 0.86317 0.9473 0.0
H2146 H 0.88631 0.88089 0.99016 0.0
H2147 H 0.89429 0.90085 0.08307 0.0
H2148 H 0.86295 0.92381 0.24265 0.0
H2149 H 0.84297 0.90815 0.18584 0.0
C2150 C 0.8462 0.88522 0.07519 0.0
C2151 C 0.84993 0.87338 0.02053 0.0
C2152 C 0.85719 0.89526 0.1026 0.0
C2153 C 0.86437 0.87226 0.98891 0.0
C2154 C 0.87517 0.88231 0.0139 0.0
C2155 C 0.88307 0.90251 0.10542 0.0
C2156 C 0.88014 0.91326 0.1683 0.0
C2157 C 0.87182 0.89351 0.07285 0.0
C2158 C 0.8655 0.91551 0.19478 0.0
C2159 C 0.85411 0.90653 0.16236 0.0
H2160 H 0.83188 0.10543 0.97768 0.0
H2161 H 0.84251 0.14008 0.79735 0.0
H2162 H 0.85763 0.12326 0.71437 0.0
H2163 H 0.87094 0.10006 0.70478 0.0
H2164 H 0.8617 0.06504 0.88365 0.0
H2165 H 0.84287 0.08037 0.95432 0.0
C2166 C 0.83728 0.10913 0.91929 0.0
C2167 C 0.83629 0.12407 0.89476 0.0
C2168 C 0.84632 0.09934 0.8718 0.0
C2169 C 0.84332 0.12873 0.81875 0.0
C2170 C 0.85197 0.11911 0.7709 0.0
C2171 C 0.86443 0.09563 0.75746 0.0
C2172 C 0.86757 0.08149 0.78877 0.0
C2173 C 0.854 0.10459 0.79854 0.0
C2174 C 0.85924 0.07585 0.85758 0.0
C2175 C 0.84864 0.0847 0.89869 0.0
H2176 H 0.67023 0.11028 0.494 0.0
H2177 H 0.65404 0.14716 0.64252 0.0
H2178 H 0.63912 0.13085 0.72919 0.0
H2179 H 0.62805 0.10691 0.75227 0.0
H2180 H 0.64215 0.06947 0.60356 0.0
H2181 H 0.66053 0.08493 0.52916 0.0
C2182 C 0.66357 0.11463 0.54604 0.0
C2183 C 0.66311 0.12999 0.56047 0.0
C2184 C 0.65454 0.10507 0.5957 0.0
C2185 C 0.65444 0.13546 0.6285 0.0
C2186 C 0.64589 0.12613 0.67871 0.0
C2187 C 0.63542 0.10204 0.70508 0.0
C2188 C 0.63382 0.08713 0.68353 0.0
C2189 C 0.64549 0.11104 0.66127 0.0
C2190 C 0.64336 0.08092 0.62215 0.0
C2191 C 0.65372 0.08982 0.57879 0.0
H2192 H 0.63199 0.92571 0.45098 0.0
H2193 H 0.63729 0.91662 0.18065 0.0
H2194 H 0.6567 0.89863 0.21341 0.0
H2195 H 0.66899 0.88278 0.32092 0.0
H2196 H 0.66426 0.89238 0.59108 0.0
H2197 H 0.64792 0.91313 0.55698 0.0
C2198 C 0.63778 0.92011 0.39929 0.0
C2199 C 0.6333 0.92237 0.31363 0.0
C2200 C 0.64883 0.90981 0.41887 0.0
C2201 C 0.64073 0.91511 0.24685 0.0
C2202 C 0.65168 0.90474 0.26575 0.0
C2203 C 0.66468 0.88971 0.37201 0.0
C2204 C 0.66764 0.88609 0.45833 0.0
C2205 C 0.65537 0.90158 0.3517 0.0
C2206 C 0.66213 0.89507 0.52429 0.0
C2207 C 0.65272 0.90683 0.50474 0.0
H2208 H 0.63922 0.58437 0.32901 0.0
H2209 H 0.6164 0.61526 0.16571 0.0
H2210 H 0.634 0.63455 0.2033 0.0
H2211 H 0.65383 0.64342 0.2944 0.0
H2212 H 0.67665 0.61359 0.46412 0.0
H2213 H 0.66126 0.59305 0.41204 0.0
C2214 C 0.63844 0.59521 0.29998 0.0
C2215 C 0.62662 0.59843 0.24417 0.0
C2216 C 0.64841 0.60648 0.3243 0.0
C2217 C 0.62546 0.61258 0.20833 0.0
C2218 C 0.63546 0.62362 0.23025 0.0
C2219 C 0.65554 0.6324 0.31979 0.0
C2220 C 0.66617 0.63006 0.38411 0.0
C2221 C 0.64663 0.62083 0.29025 0.0
C2222 C 0.66846 0.61568 0.41488 0.0
C2223 C 0.65963 0.60396 0.38525 0.0
H2224 H 0.65031 0.36217 0.65481 0.0
H2225 H 0.66917 0.39386 0.47959 0.0
H2226 H 0.65418 0.41349 0.54539 0.0
H2227 H 0.63375 0.42091 0.64447 0.0
H2228 H 0.6149 0.38827 0.81386 0.0
H2229 H 0.63207 0.36976 0.75995 0.0
C2230 C 0.6512 0.37338 0.63085 0.0
C2231 C 0.66059 0.37652 0.5612 0.0
C2232 C 0.64261 0.38444 0.66867 0.0
C2233 C 0.66189 0.39116 0.53262 0.0
C2234 C 0.65332 0.40235 0.57024 0.0
C2235 C 0.63377 0.40985 0.67103 0.0
C2236 C 0.6232 0.40592 0.73354 0.0
C2237 C 0.6434 0.39906 0.63735 0.0
C2238 C 0.62301 0.3915 0.76619 0.0
C2239 C 0.63274 0.38091 0.73493 0.0
H2240 H 0.87263 0.41688 0.90097 0.0
H2241 H 0.86625 0.40847 0.63064 0.0
H2242 H 0.8471 0.3902 0.66468 0.0
H2243 H 0.83503 0.37419 0.77257 0.0
H2244 H 0.84073 0.38322 0.04278 0.0
H2245 H 0.85716 0.40393 0.0081 0.0
C2246 C 0.86672 0.41131 0.84961 0.0
C2247 C 0.87081 0.41387 0.76349 0.0
C2248 C 0.85577 0.40089 0.86989 0.0
C2249 C 0.86316 0.4067 0.69722 0.0
C2250 C 0.85233 0.39618 0.71682 0.0
C2251 C 0.83961 0.38096 0.82364 0.0
C2252 C 0.83685 0.37719 0.91009 0.0
C2253 C 0.84895 0.39282 0.80299 0.0
C2254 C 0.84268 0.38601 0.97593 0.0
C2255 C 0.85216 0.39774 0.95601 0.0
H2256 H 0.86153 0.58623 0.18097 0.0
H2257 H 0.89664 0.61853 0.17255 0.0
H2258 H 0.88095 0.63546 0.09547 0.0
H2259 H 0.85728 0.64197 0.03622 0.0
H2260 H 0.82113 0.61112 0.04456 0.0
H2261 H 0.83722 0.59273 0.11354 0.0
C2262 C 0.86568 0.59698 0.16232 0.0
C2263 C 0.88028 0.60105 0.18353 0.0
C2264 C 0.85647 0.60694 0.11716 0.0
C2265 C 0.88551 0.615 0.15784 0.0
C2266 C 0.87654 0.62477 0.11332 0.0
C2267 C 0.85289 0.63117 0.05228 0.0
C2268 C 0.83803 0.62795 0.03555 0.0
C2269 C 0.86202 0.62093 0.09336 0.0
C2270 C 0.83259 0.61385 0.05614 0.0
C2271 C 0.84176 0.6034 0.09642 0.0
H2272 H 0.33346 0.37868 0.70039 0.0
H2273 H 0.33611 0.38433 0.42551 0.0
H2274 H 0.35341 0.40491 0.44483 0.0
H2275 H 0.37042 0.41868 0.53989 0.0
H2276 H 0.36689 0.41386 0.81497 0.0
H2277 H 0.34706 0.3957 0.79626 0.0
C2278 C 0.33755 0.38471 0.64495 0.0
C2279 C 0.33367 0.38001 0.56162 0.0
C2280 C 0.34739 0.39654 0.6568 0.0
C2281 C 0.33892 0.38786 0.49011 0.0
C2282 C 0.34889 0.39951 0.50123 0.0
C2283 C 0.365 0.41392 0.59564 0.0
C2284 C 0.3701 0.41745 0.67868 0.0
C2285 C 0.35359 0.40358 0.58416 0.0
C2286 C 0.36304 0.41133 0.75062 0.0
C2287 C 0.35181 0.40087 0.73979 0.0
H2288 H 0.37194 0.5791 0.46188 0.0
H2289 H 0.36575 0.58551 0.18958 0.0
H2290 H 0.34603 0.60334 0.21846 0.0
H2291 H 0.33373 0.61999 0.32198 0.0
H2292 H 0.33937 0.61306 0.59424 0.0
H2293 H 0.35599 0.59231 0.56522 0.0
C2294 C 0.3659 0.58407 0.40903 0.0
C2295 C 0.37024 0.58112 0.32379 0.0
C2296 C 0.35466 0.5943 0.42636 0.0
C2297 C 0.36245 0.58756 0.25555 0.0
C2298 C 0.35131 0.59785 0.27218 0.0
C2299 C 0.33827 0.61361 0.37474 0.0
C2300 C 0.33548 0.61799 0.46007 0.0
C2301 C 0.34777 0.60174 0.35733 0.0
C2302 C 0.34133 0.60975 0.52822 0.0
C2303 C 0.35092 0.598 0.51152 0.0
H2304 H 0.12621 0.58365 0.0856 0.0
H2305 H 0.1358 0.59628 0.34673 0.0
H2306 H 0.15588 0.61223 0.29653 0.0
H2307 H 0.16721 0.62598 0.17665 0.0
H2308 H 0.15736 0.61381 0.91502 0.0
H2309 H 0.141 0.59407 0.9663 0.0
C2310 C 0.13314 0.58944 0.13141 0.0
C2311 C 0.12973 0.58875 0.21962 0.0
C2312 C 0.14441 0.59882 0.10163 0.0
C2313 C 0.13849 0.59647 0.27877 0.0
C2314 C 0.14981 0.60572 0.24989 0.0
C2315 C 0.16186 0.61862 0.13115 0.0
C2316 C 0.1634 0.62123 0.0424 0.0
C2317 C 0.15239 0.60749 0.1613 0.0
C2318 C 0.1564 0.61183 0.98356 0.0
C2319 C 0.14696 0.60066 0.01297 0.0
H2320 H 0.17121 0.38329 0.79371 0.0
H2321 H 0.16646 0.38477 0.06947 0.0
H2322 H 0.1482 0.40458 0.05596 0.0
H2323 H 0.13088 0.41842 0.96373 0.0
H2324 H 0.13633 0.41766 0.68825 0.0
H2325 H 0.15728 0.40079 0.70312 0.0
C2326 C 0.16646 0.38829 0.85081 0.0
C2327 C 0.16999 0.38259 0.93241 0.0
C2328 C 0.15605 0.39964 0.84232 0.0
C2329 C 0.16391 0.38909 0.00618 0.0
C2330 C 0.15339 0.4003 0.99831 0.0
C2331 C 0.13695 0.41485 0.90726 0.0
C2332 C 0.13207 0.41909 0.82498 0.0
C2333 C 0.14897 0.40522 0.91653 0.0
C2334 C 0.13999 0.41455 0.75211 0.0
C2335 C 0.15186 0.40482 0.76065 0.0
loop_
_geom_bond_atom_site_label_1
_geom_bond_atom_site_label_2
_geom_bond_distance
_geom_bond_site_symmetry_2
_ccdc_geom_bond_type
C0 C1 1.351 . S
C0 N3 1.368 . S
C0 H5 0.931 . S
C1 C0 1.351 . S
C1 N2 1.373 . S
C1 H29 0.930 . S
N2 C1 1.373 . S
N2 C4 1.340 . S
N3 C0 1.368 . S
N3 C4 1.321 . S
N3 Co6 2.135 . S
C4 N2 1.340 . S
C4 N3 1.321 . S
C4 H28 0.930 . S
H5 C0 0.931 . S
Co6 N3 2.135 . S
Co6 N9 2.121 1_554 S
Co6 O14 2.055 . S
Co6 O17 2.039 . S
Co6 N20 2.140 . S
C7 O8 1.227 . S
C7 O17 1.265 . S
O8 C7 1.227 . S
N9 Co6 2.121 1_556 S
N9 C11 1.375 . S
N9 C12 1.313 . S
C10 C11 1.338 . S
C10 N13 1.377 . S
C10 H30 0.930 . S
C11 N9 1.375 . S
C11 C10 1.338 . S
C11 H15 0.931 . S
C12 N9 1.313 . S
C12 N13 1.344 . S
C12 H16 0.930 . S
N13 C10 1.377 . S
N13 C12 1.344 . S
O14 Co6 2.055 . S
O14 C18 1.253 . S
H15 C11 0.931 . S
H16 C12 0.930 . S
O17 Co6 2.039 . S
O17 C7 1.265 . S
C18 O14 1.253 . S
C18 O19 1.227 . S
O19 C18 1.227 . S
N20 Co6 2.140 . S
N20 C23 1.346 . S
N20 C24 1.345 . S
C21 C22 1.387 . S
C21 C25 1.391 . S
C22 C21 1.387 . S
C22 C23 1.369 . S
C22 H31 0.929 . S
C23 N20 1.346 . S
C23 C22 1.369 . S
C23 H26 0.928 . S
C24 N20 1.345 . S
C24 C25 1.371 . S
C24 H27 0.931 1_554 S
C25 C21 1.391 . S
C25 C24 1.371 . S
C25 H32 0.930 1_554 S
H26 C23 0.928 . S
H27 C24 0.931 1_556 S
H28 C4 0.930 . S
H29 C1 0.930 . S
H30 C10 0.930 . S
H31 C22 0.929 . S
H32 C25 0.930 1_556 S
C33 C34 1.351 . S
C33 N36 1.368 . S
C33 H38 0.931 . S
C34 C33 1.351 . S
C34 N35 1.373 . S
C34 H62 0.930 . S
N35 C34 1.373 . S
N35 C37 1.340 . S
N36 C33 1.368 . S
N36 C37 1.321 . S
N36 Co39 2.135 . S
C37 N35 1.340 . S
C37 N36 1.321 . S
C37 H61 0.930 . S
H38 C33 0.931 . S
Co39 N36 2.135 . S
Co39 N42 2.121 . S
Co39 O47 2.055 . S
Co39 O50 2.039 . S
Co39 N53 2.140 . S
C40 O41 1.227 . S
C40 O50 1.265 . S
O41 C40 1.227 . S
N42 Co39 2.121 . S
N42 C44 1.375 . S
N42 C45 1.313 . S
C43 C44 1.338 . S
C43 N46 1.377 . S
C43 H63 0.930 . S
C44 N42 1.375 . S
C44 C43 1.338 . S
C44 H48 0.931 . S
C45 N42 1.313 . S
C45 N46 1.344 . S
C45 H49 0.930 . S
N46 C43 1.377 . S
N46 C45 1.344 . S
O47 Co39 2.055 . S
O47 C51 1.253 . S
H48 C44 0.931 . S
H49 C45 0.930 . S
O50 Co39 2.039 . S
O50 C40 1.265 . S
C51 O47 1.253 . S
C51 O52 1.227 . S
O52 C51 1.227 . S
N53 Co39 2.140 . S
N53 C56 1.346 . S
N53 C57 1.345 . S
C54 C55 1.387 . S
C54 C58 1.391 . S
C55 C54 1.387 . S
C55 C56 1.369 . S
C55 H64 0.929 . S
C56 N53 1.346 . S
C56 C55 1.369 . S
C56 H59 0.928 . S
C57 N53 1.345 . S
C57 C58 1.371 . S
C57 H60 0.931 . S
C58 C54 1.391 . S
C58 C57 1.371 . S
C58 H65 0.930 . S
H59 C56 0.928 . S
H60 C57 0.931 . S
H61 C37 0.930 . S
H62 C34 0.930 . S
H63 C43 0.930 . S
H64 C55 0.929 . S
H65 C58 0.930 . S
C66 C67 1.351 . S
C66 N69 1.368 . S
C66 H71 0.931 . S
C67 C66 1.351 . S
C67 N68 1.373 . S
C67 H95 0.930 . S
N68 C67 1.373 . S
N68 C70 1.340 . S
N69 C66 1.368 . S
N69 C70 1.321 . S
N69 Co72 2.135 . S
C70 N68 1.340 . S
C70 N69 1.321 . S
C70 H94 0.930 . S
H71 C66 0.931 . S
Co72 N69 2.135 . S
Co72 N75 2.121 . S
Co72 O80 2.055 . S
Co72 O83 2.039 . S
Co72 N86 2.140 . S
C73 O74 1.227 . S
C73 O83 1.265 . S
O74 C73 1.227 . S
N75 Co72 2.121 . S
N75 C77 1.375 . S
N75 C78 1.313 . S
C76 C77 1.338 . S
C76 N79 1.377 . S
C76 H96 0.930 . S
C77 N75 1.375 . S
C77 C76 1.338 . S
C77 H81 0.931 . S
C78 N75 1.313 . S
C78 N79 1.344 . S
C78 H82 0.930 . S
N79 C76 1.377 . S
N79 C78 1.344 . S
O80 Co72 2.055 . S
O80 C84 1.253 . S
H81 C77 0.931 . S
H82 C78 0.930 . S
O83 Co72 2.039 . S
O83 C73 1.265 . S
C84 O80 1.253 . S
C84 O85 1.227 . S
O85 C84 1.227 . S
N86 Co72 2.140 . S
N86 C89 1.346 . S
N86 C90 1.345 . S
C87 C88 1.387 . S
C87 C91 1.391 . S
C88 C87 1.387 . S
C88 C89 1.369 . S
C88 H97 0.929 . S
C89 N86 1.346 . S
C89 C88 1.369 . S
C89 H92 0.928 . S
C90 N86 1.345 . S
C90 C91 1.371 . S
C90 H93 0.931 . S
C91 C87 1.391 . S
C91 C90 1.371 . S
C91 H98 0.930 . S
H92 C89 0.928 . S
H93 C90 0.931 . S
H94 C70 0.930 . S
H95 C67 0.930 . S
H96 C76 0.930 . S
H97 C88 0.929 . S
H98 C91 0.930 . S
C99 C100 1.351 1_556 S
C99 N102 1.368 . S
C99 H104 0.931 . S
C100 C99 1.351 1_554 S
C100 N101 1.373 . S
C100 H128 0.930 . S
N101 C100 1.373 . S
N101 C103 1.340 . S
N102 C99 1.368 . S
N102 C103 1.321 1_556 S
N102 Co105 2.135 . S
C103 N101 1.340 . S
C103 N102 1.321 1_554 S
C103 H127 0.930 . S
H104 C99 0.931 . S
Co105 N102 2.135 . S
Co105 N108 2.121 . S
Co105 O113 2.055 . S
Co105 O116 2.039 . S
Co105 N119 2.140 . S
C106 O107 1.227 . S
C106 O116 1.265 . S
O107 C106 1.227 . S
N108 Co105 2.121 . S
N108 C110 1.375 . S
N108 C111 1.313 . S
C109 C110 1.338 . S
C109 N112 1.377 . S
C109 H129 0.930 . S
C110 N108 1.375 . S
C110 C109 1.338 . S
C110 H114 0.931 . S
C111 N108 1.313 . S
C111 N112 1.344 . S
C111 H115 0.930 . S
N112 C109 1.377 . S
N112 C111 1.344 . S
O113 Co105 2.055 . S
O113 C117 1.253 . S
H114 C110 0.931 . S
H115 C111 0.930 . S
O116 Co105 2.039 . S
O116 C106 1.265 . S
C117 O113 1.253 . S
C117 O118 1.227 . S
O118 C117 1.227 . S
N119 Co105 2.140 . S
N119 C122 1.346 . S
N119 C123 1.345 . S
C120 C121 1.387 . S
C120 C124 1.391 . S
C121 C120 1.387 . S
C121 C122 1.369 . S
C121 H130 0.929 . S
C122 N119 1.346 . S
C122 C121 1.369 . S
C122 H125 0.928 . S
C123 N119 1.345 . S
C123 C124 1.371 . S
C123 H126 0.931 . S
C124 C120 1.391 . S
C124 C123 1.371 . S
C124 H131 0.930 . S
H125 C122 0.928 . S
H126 C123 0.931 . S
H127 C103 0.930 . S
H128 C100 0.930 . S
H129 C109 0.930 . S
H130 C121 0.929 . S
H131 C124 0.930 . S
C132 C133 1.351 . S
C132 N135 1.368 . S
C132 H137 0.931 . S
C133 C132 1.351 . S
C133 N134 1.373 . S
C133 H161 0.930 . S
N134 C133 1.373 . S
N134 C136 1.340 . S
N135 C132 1.368 . S
N135 C136 1.321 . S
N135 Co138 2.135 . S
C136 N134 1.340 . S
C136 N135 1.321 . S
C136 H160 0.930 . S
H137 C132 0.931 . S
Co138 N135 2.135 . S
Co138 N141 2.121 1_556 S
Co138 O146 2.055 . S
Co138 O149 2.039 . S
Co138 N152 2.140 . S
C139 O140 1.227 . S
C139 O149 1.265 . S
O140 C139 1.227 . S
N141 Co138 2.121 1_554 S
N141 C143 1.375 . S
N141 C144 1.313 . S
C142 C143 1.338 . S
C142 N145 1.377 . S
C142 H162 0.930 . S
C143 N141 1.375 . S
C143 C142 1.338 . S
C143 H147 0.931 . S
C144 N141 1.313 . S
C144 N145 1.344 . S
C144 H148 0.930 . S
N145 C142 1.377 . S
N145 C144 1.344 . S
O146 Co138 2.055 . S
O146 C150 1.253 . S
H147 C143 0.931 . S
H148 C144 0.930 . S
O149 Co138 2.039 . S
O149 C139 1.265 . S
C150 O146 1.253 . S
C150 O151 1.227 . S
O151 C150 1.227 . S
N152 Co138 2.140 . S
N152 C155 1.346 . S
N152 C156 1.345 . S
C153 C154 1.387 . S
C153 C157 1.391 . S
C154 C153 1.387 . S
C154 C155 1.369 . S
C154 H163 0.929 . S
C155 N152 1.346 . S
C155 C154 1.369 . S
C155 H158 0.928 . S
C156 N152 1.345 . S
C156 C157 1.371 . S
C156 H159 0.931 1_556 S
C157 C153 1.391 . S
C157 C156 1.371 . S
C157 H164 0.930 1_556 S
H158 C155 0.928 . S
H159 C156 0.931 1_554 S
H160 C136 0.930 . S
H161 C133 0.930 . S
H162 C142 0.930 . S
H163 C154 0.929 . S
H164 C157 0.930 1_554 S
C165 C166 1.351 1_554 S
C165 N168 1.368 . S
C165 H170 0.931 . S
C166 C165 1.351 1_556 S
C166 N167 1.373 . S
C166 H194 0.930 . S
N167 C166 1.373 . S
N167 C169 1.340 . S
N168 C165 1.368 . S
N168 C169 1.321 1_554 S
N168 Co171 2.135 . S
C169 N167 1.340 . S
C169 N168 1.321 1_556 S
C169 H193 0.930 . S
H170 C165 0.931 . S
Co171 N168 2.135 . S
Co171 N174 2.121 . S
Co171 O179 2.055 . S
Co171 O182 2.039 . S
Co171 N185 2.140 . S
C172 O173 1.227 . S
C172 O182 1.265 . S
O173 C172 1.227 . S
N174 Co171 2.121 . S
N174 C176 1.375 . S
N174 C177 1.313 . S
C175 C176 1.338 . S
C175 N178 1.377 . S
C175 H195 0.930 . S
C176 N174 1.375 . S
C176 C175 1.338 . S
C176 H180 0.931 . S
C177 N174 1.313 . S
C177 N178 1.344 . S
C177 H181 0.930 . S
N178 C175 1.377 . S
N178 C177 1.344 . S
O179 Co171 2.055 . S
O179 C183 1.253 . S
H180 C176 0.931 . S
H181 C177 0.930 . S
O182 Co171 2.039 . S
O182 C172 1.265 . S
C183 O179 1.253 . S
C183 O184 1.227 . S
O184 C183 1.227 . S
N185 Co171 2.140 . S
N185 C188 1.346 . S
N185 C189 1.345 . S
C186 C187 1.387 . S
C186 C190 1.391 . S
C187 C186 1.387 . S
C187 C188 1.369 . S
C187 H196 0.929 . S
C188 N185 1.346 . S
C188 C187 1.369 . S
C188 H191 0.928 . S
C189 N185 1.345 . S
C189 C190 1.371 . S
C189 H192 0.931 . S
C190 C186 1.391 . S
C190 C189 1.371 . S
C190 H197 0.930 . S
H191 C188 0.928 . S
H192 C189 0.931 . S
H193 C169 0.930 . S
H194 C166 0.930 . S
H195 C175 0.930 . S
H196 C187 0.929 . S
H197 C190 0.930 . S
C198 C199 1.351 . S
C198 N201 1.368 . S
C198 H203 0.931 . S
C199 C198 1.351 . S
C199 N200 1.373 . S
C199 H227 0.930 . S
N200 C199 1.373 . S
N200 C202 1.340 . S
N201 C198 1.368 . S
N201 C202 1.321 . S
N201 Co204 2.135 . S
C202 N200 1.340 . S
C202 N201 1.321 . S
C202 H226 0.930 . S
H203 C198 0.931 . S
Co204 N201 2.135 . S
Co204 N207 2.121 . S
Co204 O212 2.055 . S
Co204 O215 2.039 . S
Co204 N218 2.140 . S
C205 O206 1.227 . S
C205 O215 1.265 . S
O206 C205 1.227 . S
N207 Co204 2.121 . S
N207 C209 1.375 . S
N207 C210 1.313 . S
C208 C209 1.338 . S
C208 N211 1.377 . S
C208 H228 0.930 . S
C209 N207 1.375 . S
C209 C208 1.338 . S
C209 H213 0.931 . S
C210 N207 1.313 . S
C210 N211 1.344 . S
C210 H214 0.930 . S
N211 C208 1.377 . S
N211 C210 1.344 . S
O212 Co204 2.055 . S
O212 C216 1.253 . S
H213 C209 0.931 . S
H214 C210 0.930 . S
O215 Co204 2.039 . S
O215 C205 1.265 . S
C216 O212 1.253 . S
C216 O217 1.227 . S
O217 C216 1.227 . S
N218 Co204 2.140 . S
N218 C221 1.346 . S
N218 C222 1.345 . S
C219 C220 1.387 . S
C219 C223 1.391 . S
C220 C219 1.387 . S
C220 C221 1.369 . S
C220 H229 0.929 . S
C221 N218 1.346 . S
C221 C220 1.369 . S
C221 H224 0.928 . S
C222 N218 1.345 . S
C222 C223 1.371 . S
C222 H225 0.931 . S
C223 C219 1.391 . S
C223 C222 1.371 . S
C223 H230 0.930 . S
H224 C221 0.928 . S
H225 C222 0.931 . S
H226 C202 0.930 . S
H227 C199 0.930 . S
H228 C208 0.930 . S
H229 C220 0.929 . S
H230 C223 0.930 . S
C231 C232 1.351 . S
C231 N234 1.368 . S
C231 H236 0.931 . S
C232 C231 1.351 . S
C232 N233 1.373 . S
C232 H260 0.930 . S
N233 C232 1.373 . S
N233 C235 1.340 . S
N234 C231 1.368 . S
N234 C235 1.321 . S
N234 Co237 2.135 . S
C235 N233 1.340 . S
C235 N234 1.321 . S
C235 H259 0.930 . S
H236 C231 0.931 . S
Co237 N234 2.135 . S
Co237 N240 2.121 . S
Co237 O245 2.055 . S
Co237 O248 2.039 . S
Co237 N251 2.140 . S
C238 O239 1.227 . S
C238 O248 1.265 . S
O239 C238 1.227 . S
N240 Co237 2.121 . S
N240 C242 1.375 . S
N240 C243 1.313 . S
C241 C242 1.338 . S
C241 N244 1.377 . S
C241 H261 0.930 . S
C242 N240 1.375 . S
C242 C241 1.338 . S
C242 H246 0.931 . S
C243 N240 1.313 . S
C243 N244 1.344 . S
C243 H247 0.930 . S
N244 C241 1.377 . S
N244 C243 1.344 . S
O245 Co237 2.055 . S
O245 C249 1.253 . S
H246 C242 0.931 . S
H247 C243 0.930 . S
O248 Co237 2.039 . S
O248 C238 1.265 . S
C249 O245 1.253 . S
C249 O250 1.227 . S
O250 C249 1.227 . S
N251 Co237 2.140 . S
N251 C254 1.346 . S
N251 C255 1.345 . S
C252 C253 1.387 . S
C252 C256 1.391 . S
C253 C252 1.387 . S
C253 C254 1.369 . S
C253 H262 0.929 . S
C254 N251 1.346 . S
C254 C253 1.369 . S
C254 H257 0.928 . S
C255 N251 1.345 . S
C255 C256 1.371 . S
C255 H258 0.931 . S
C256 C252 1.391 . S
C256 C255 1.371 . S
C256 H263 0.930 . S
H257 C254 0.928 . S
H258 C255 0.931 . S
H259 C235 0.930 . S
H260 C232 0.930 . S
H261 C241 0.930 . S
H262 C253 0.929 . S
H263 C256 0.930 . S
C264 C265 1.351 . S
C264 N267 1.368 . S
C264 H269 0.931 . S
C265 C264 1.351 . S
C265 N266 1.373 . S
C265 H293 0.930 . S
N266 C265 1.373 . S
N266 C268 1.340 . S
N267 C264 1.368 . S
N267 C268 1.321 . S
N267 Co270 2.135 . S
C268 N266 1.340 . S
C268 N267 1.321 . S
C268 H292 0.930 . S
H269 C264 0.931 . S
Co270 N267 2.135 . S
Co270 N273 2.121 1_556 S
Co270 O278 2.055 . S
Co270 O281 2.039 . S
Co270 N284 2.140 . S
C271 O272 1.227 . S
C271 O281 1.265 . S
O272 C271 1.227 . S
N273 Co270 2.121 1_554 S
N273 C275 1.375 . S
N273 C276 1.313 . S
C274 C275 1.338 . S
C274 N277 1.377 . S
C274 H294 0.930 . S
C275 N273 1.375 . S
C275 C274 1.338 . S
C275 H279 0.931 . S
C276 N273 1.313 . S
C276 N277 1.344 . S
C276 H280 0.930 . S
N277 C274 1.377 . S
N277 C276 1.344 . S
O278 Co270 2.055 . S
O278 C282 1.253 . S
H279 C275 0.931 . S
H280 C276 0.930 . S
O281 Co270 2.039 . S
O281 C271 1.265 . S
C282 O278 1.253 . S
C282 O283 1.227 . S
O283 C282 1.227 . S
N284 Co270 2.140 . S
N284 C287 1.346 . S
N284 C288 1.345 . S
C285 C286 1.387 . S
C285 C289 1.391 . S
C286 C285 1.387 . S
C286 C287 1.369 . S
C286 H295 0.929 . S
C287 N284 1.346 . S
C287 C286 1.369 . S
C287 H290 0.928 . S
C288 N284 1.345 . S
C288 C289 1.371 . S
C288 H291 0.931 1_556 S
C289 C285 1.391 . S
C289 C288 1.371 . S
C289 H296 0.930 1_556 S
H290 C287 0.928 . S
H291 C288 0.931 1_554 S
H292 C268 0.930 . S
H293 C265 0.930 . S
H294 C274 0.930 . S
H295 C286 0.929 . S
H296 C289 0.930 1_554 S
C297 C298 1.351 . S
C297 N300 1.368 . S
C297 H302 0.931 . S
C298 C297 1.351 . S
C298 N299 1.373 . S
C298 H326 0.930 . S
N299 C298 1.373 . S
N299 C301 1.340 . S
N300 C297 1.368 . S
N300 C301 1.321 . S
N300 Co303 2.135 . S
C301 N299 1.340 . S
C301 N300 1.321 . S
C301 H325 0.930 . S
H302 C297 0.931 . S
Co303 N300 2.135 . S
Co303 N306 2.121 . S
Co303 O311 2.055 . S
Co303 O314 2.039 . S
Co303 N317 2.140 . S
C304 O305 1.227 . S
C304 O314 1.265 . S
O305 C304 1.227 . S
N306 Co303 2.121 . S
N306 C308 1.375 . S
N306 C309 1.313 . S
C307 C308 1.338 . S
C307 N310 1.377 . S
C307 H327 0.930 . S
C308 N306 1.375 . S
C308 C307 1.338 . S
C308 H312 0.931 . S
C309 N306 1.313 . S
C309 N310 1.344 . S
C309 H313 0.930 . S
N310 C307 1.377 . S
N310 C309 1.344 . S
O311 Co303 2.055 . S
O311 C315 1.253 . S
H312 C308 0.931 . S
H313 C309 0.930 . S
O314 Co303 2.039 . S
O314 C304 1.265 . S
C315 O311 1.253 . S
C315 O316 1.227 . S
O316 C315 1.227 . S
N317 Co303 2.140 . S
N317 C320 1.346 . S
N317 C321 1.345 . S
C318 C319 1.387 . S
C318 C322 1.391 . S
C319 C318 1.387 . S
C319 C320 1.369 . S
C319 H328 0.929 . S
C320 N317 1.346 . S
C320 C319 1.369 . S
C320 H323 0.928 . S
C321 N317 1.345 . S
C321 C322 1.371 . S
C321 H324 0.931 . S
C322 C318 1.391 . S
C322 C321 1.371 . S
C322 H329 0.930 . S
H323 C320 0.928 . S
H324 C321 0.931 . S
H325 C301 0.930 . S
H326 C298 0.930 . S
H327 C307 0.930 . S
H328 C319 0.929 . S
H329 C322 0.930 . S
C330 C331 1.351 . S
C330 N333 1.368 . S
C330 H335 0.931 . S
C331 C330 1.351 . S
C331 N332 1.373 . S
C331 H359 0.930 . S
N332 C331 1.373 . S
N332 C334 1.340 . S
N333 C330 1.368 . S
N333 C334 1.321 . S
N333 Co336 2.135 . S
C334 N332 1.340 . S
C334 N333 1.321 . S
C334 H358 0.930 . S
H335 C330 0.931 . S
Co336 N333 2.135 . S
Co336 N339 2.121 . S
Co336 O344 2.055 . S
Co336 O347 2.039 . S
Co336 N350 2.140 . S
C337 O338 1.227 . S
C337 O347 1.265 . S
O338 C337 1.227 . S
N339 Co336 2.121 . S
N339 C341 1.375 . S
N339 C342 1.313 . S
C340 C341 1.338 . S
C340 N343 1.377 . S
C340 H360 0.930 . S
C341 N339 1.375 . S
C341 C340 1.338 . S
C341 H345 0.931 . S
C342 N339 1.313 . S
C342 N343 1.344 . S
C342 H346 0.930 . S
N343 C340 1.377 . S
N343 C342 1.344 . S
O344 Co336 2.055 . S
O344 C348 1.253 . S
H345 C341 0.931 . S
H346 C342 0.930 . S
O347 Co336 2.039 . S
O347 C337 1.265 . S
C348 O344 1.253 . S
C348 O349 1.227 . S
O349 C348 1.227 . S
N350 Co336 2.140 . S
N350 C353 1.346 . S
N350 C354 1.345 . S
C351 C352 1.387 . S
C351 C355 1.391 . S
C352 C351 1.387 . S
C352 C353 1.369 . S
C352 H361 0.929 . S
C353 N350 1.346 . S
C353 C352 1.369 . S
C353 H356 0.928 . S
C354 N350 1.345 . S
C354 C355 1.371 . S
C354 H357 0.931 . S
C355 C351 1.391 . S
C355 C354 1.371 . S
C355 H362 0.930 . S
H356 C353 0.928 . S
H357 C354 0.931 . S
H358 C334 0.930 . S
H359 C331 0.930 . S
H360 C340 0.930 . S
H361 C352 0.929 . S
H362 C355 0.930 . S
C363 C364 1.351 1_554 S
C363 N366 1.368 . S
C363 H368 0.931 . S
C364 C363 1.351 1_556 S
C364 N365 1.373 . S
C364 H392 0.930 . S
N365 C364 1.373 . S
N365 C367 1.340 . S
N366 C363 1.368 . S
N366 C367 1.321 1_554 S
N366 Co369 2.135 . S
C367 N365 1.340 . S
C367 N366 1.321 1_556 S
C367 H391 0.930 . S
H368 C363 0.931 . S
Co369 N366 2.135 . S
Co369 N372 2.121 . S
Co369 O377 2.055 . S
Co369 O380 2.039 . S
Co369 N383 2.140 . S
C370 O371 1.227 . S
C370 O380 1.265 . S
O371 C370 1.227 . S
N372 Co369 2.121 . S
N372 C374 1.375 . S
N372 C375 1.313 . S
C373 C374 1.338 . S
C373 N376 1.377 . S
C373 H393 0.930 . S
C374 N372 1.375 . S
C374 C373 1.338 . S
C374 H378 0.931 . S
C375 N372 1.313 . S
C375 N376 1.344 . S
C375 H379 0.930 . S
N376 C373 1.377 . S
N376 C375 1.344 . S
O377 Co369 2.055 . S
O377 C381 1.253 . S
H378 C374 0.931 . S
H379 C375 0.930 . S
O380 Co369 2.039 . S
O380 C370 1.265 . S
C381 O377 1.253 . S
C381 O382 1.227 . S
O382 C381 1.227 . S
N383 Co369 2.140 . S
N383 C386 1.346 . S
N383 C387 1.345 . S
C384 C385 1.387 . S
C384 C388 1.391 . S
C385 C384 1.387 . S
C385 C386 1.369 . S
C385 H394 0.929 . S
C386 N383 1.346 . S
C386 C385 1.369 . S
C386 H389 0.928 . S
C387 N383 1.345 . S
C387 C388 1.371 . S
C387 H390 0.931 . S
C388 C384 1.391 . S
C388 C387 1.371 . S
C388 H395 0.930 . S
H389 C386 0.928 . S
H390 C387 0.931 . S
H391 C367 0.930 . S
H392 C364 0.930 . S
H393 C373 0.930 . S
H394 C385 0.929 . S
H395 C388 0.930 . S
C396 C397 1.351 . S
C396 N399 1.368 . S
C396 H401 0.931 . S
C397 C396 1.351 . S
C397 N398 1.373 . S
C397 H425 0.930 . S
N398 C397 1.373 . S
N398 C400 1.340 . S
N399 C396 1.368 . S
N399 C400 1.321 . S
N399 Co402 2.135 . S
C400 N398 1.340 . S
C400 N399 1.321 . S
C400 H424 0.930 . S
H401 C396 0.931 . S
Co402 N399 2.135 . S
Co402 N405 2.121 1_554 S
Co402 O410 2.055 . S
Co402 O413 2.039 . S
Co402 N416 2.140 . S
C403 O404 1.227 . S
C403 O413 1.265 . S
O404 C403 1.227 . S
N405 Co402 2.121 1_556 S
N405 C407 1.375 . S
N405 C408 1.313 . S
C406 C407 1.338 . S
C406 N409 1.377 . S
C406 H426 0.930 . S
C407 N405 1.375 . S
C407 C406 1.338 . S
C407 H411 0.931 . S
C408 N405 1.313 . S
C408 N409 1.344 . S
C408 H412 0.930 . S
N409 C406 1.377 . S
N409 C408 1.344 . S
O410 Co402 2.055 . S
O410 C414 1.253 . S
H411 C407 0.931 . S
H412 C408 0.930 . S
O413 Co402 2.039 . S
O413 C403 1.265 . S
C414 O410 1.253 . S
C414 O415 1.227 . S
O415 C414 1.227 . S
N416 Co402 2.140 . S
N416 C419 1.346 . S
N416 C420 1.345 . S
C417 C418 1.387 . S
C417 C421 1.391 . S
C418 C417 1.387 . S
C418 C419 1.369 . S
C418 H427 0.929 . S
C419 N416 1.346 . S
C419 C418 1.369 . S
C419 H422 0.928 . S
C420 N416 1.345 . S
C420 C421 1.371 . S
C420 H423 0.931 1_554 S
C421 C417 1.391 . S
C421 C420 1.371 . S
C421 H428 0.930 1_554 S
H422 C419 0.928 . S
H423 C420 0.931 1_556 S
H424 C400 0.930 . S
H425 C397 0.930 . S
H426 C406 0.930 . S
H427 C418 0.929 . S
H428 C421 0.930 1_556 S
C429 C430 1.351 1_556 S
C429 N432 1.368 . S
C429 H434 0.931 . S
C430 C429 1.351 1_554 S
C430 N431 1.373 . S
C430 H458 0.930 . S
N431 C430 1.373 . S
N431 C433 1.340 . S
N432 C429 1.368 . S
N432 C433 1.321 1_556 S
N432 Co435 2.135 . S
C433 N431 1.340 . S
C433 N432 1.321 1_554 S
C433 H457 0.930 . S
H434 C429 0.931 . S
Co435 N432 2.135 . S
Co435 N438 2.121 . S
Co435 O443 2.055 . S
Co435 O446 2.039 . S
Co435 N449 2.140 . S
C436 O437 1.227 . S
C436 O446 1.265 . S
O437 C436 1.227 . S
N438 Co435 2.121 . S
N438 C440 1.375 . S
N438 C441 1.313 . S
C439 C440 1.338 . S
C439 N442 1.377 . S
C439 H459 0.930 . S
C440 N438 1.375 . S
C440 C439 1.338 . S
C440 H444 0.931 . S
C441 N438 1.313 . S
C441 N442 1.344 . S
C441 H445 0.930 . S
N442 C439 1.377 . S
N442 C441 1.344 . S
O443 Co435 2.055 . S
O443 C447 1.253 . S
H444 C440 0.931 . S
H445 C441 0.930 . S
O446 Co435 2.039 . S
O446 C436 1.265 . S
C447 O443 1.253 . S
C447 O448 1.227 . S
O448 C447 1.227 . S
N449 Co435 2.140 . S
N449 C452 1.346 . S
N449 C453 1.345 . S
C450 C451 1.387 . S
C450 C454 1.391 . S
C451 C450 1.387 . S
C451 C452 1.369 . S
C451 H460 0.929 . S
C452 N449 1.346 . S
C452 C451 1.369 . S
C452 H455 0.928 . S
C453 N449 1.345 . S
C453 C454 1.371 . S
C453 H456 0.931 . S
C454 C450 1.391 . S
C454 C453 1.371 . S
C454 H461 0.930 . S
H455 C452 0.928 . S
H456 C453 0.931 . S
H457 C433 0.930 . S
H458 C430 0.930 . S
H459 C439 0.930 . S
H460 C451 0.929 . S
H461 C454 0.930 . S
C462 C463 1.351 . S
C462 N465 1.368 . S
C462 H467 0.931 . S
C463 C462 1.351 . S
C463 N464 1.373 . S
C463 H491 0.930 . S
N464 C463 1.373 . S
N464 C466 1.340 . S
N465 C462 1.368 . S
N465 C466 1.321 . S
N465 Co468 2.135 . S
C466 N464 1.340 . S
C466 N465 1.321 . S
C466 H490 0.930 . S
H467 C462 0.931 . S
Co468 N465 2.135 . S
Co468 N471 2.121 . S
Co468 O476 2.055 . S
Co468 O479 2.039 . S
Co468 N482 2.140 . S
C469 O470 1.227 . S
C469 O479 1.265 . S
O470 C469 1.227 . S
N471 Co468 2.121 . S
N471 C473 1.375 . S
N471 C474 1.313 . S
C472 C473 1.338 . S
C472 N475 1.377 . S
C472 H492 0.930 . S
C473 N471 1.375 . S
C473 C472 1.338 . S
C473 H477 0.931 . S
C474 N471 1.313 . S
C474 N475 1.344 . S
C474 H478 0.930 . S
N475 C472 1.377 . S
N475 C474 1.344 . S
O476 Co468 2.055 . S
O476 C480 1.253 . S
H477 C473 0.931 . S
H478 C474 0.930 . S
O479 Co468 2.039 . S
O479 C469 1.265 . S
C480 O476 1.253 . S
C480 O481 1.227 . S
O481 C480 1.227 . S
N482 Co468 2.140 . S
N482 C485 1.346 . S
N482 C486 1.345 . S
C483 C484 1.387 . S
C483 C487 1.391 . S
C484 C483 1.387 . S
C484 C485 1.369 . S
C484 H493 0.929 . S
C485 N482 1.346 . S
C485 C484 1.369 . S
C485 H488 0.928 . S
C486 N482 1.345 . S
C486 C487 1.371 . S
C486 H489 0.931 . S
C487 C483 1.391 . S
C487 C486 1.371 . S
C487 H494 0.930 . S
H488 C485 0.928 . S
H489 C486 0.931 . S
H490 C466 0.930 . S
H491 C463 0.930 . S
H492 C472 0.930 . S
H493 C484 0.929 . S
H494 C487 0.930 . S
C495 C496 1.351 . S
C495 N498 1.368 . S
C495 H500 0.931 . S
C496 C495 1.351 . S
C496 N497 1.373 . S
C496 H524 0.930 . S
N497 C496 1.373 . S
N497 C499 1.340 . S
N498 C495 1.368 . S
N498 C499 1.321 . S
N498 Co501 2.135 . S
C499 N497 1.340 . S
C499 N498 1.321 . S
C499 H523 0.930 . S
H500 C495 0.931 . S
Co501 N498 2.135 . S
Co501 N504 2.121 . S
Co501 O509 2.055 . S
Co501 O512 2.039 . S
Co501 N515 2.140 . S
C502 O503 1.227 . S
C502 O512 1.265 . S
O503 C502 1.227 . S
N504 Co501 2.121 . S
N504 C506 1.375 . S
N504 C507 1.313 . S
C505 C506 1.338 . S
C505 N508 1.377 . S
C505 H525 0.930 . S
C506 N504 1.375 . S
C506 C505 1.338 . S
C506 H510 0.931 . S
C507 N504 1.313 . S
C507 N508 1.344 . S
C507 H511 0.930 . S
N508 C505 1.377 . S
N508 C507 1.344 . S
O509 Co501 2.055 . S
O509 C513 1.253 . S
H510 C506 0.931 . S
H511 C507 0.930 . S
O512 Co501 2.039 . S
O512 C502 1.265 . S
C513 O509 1.253 . S
C513 O514 1.227 . S
O514 C513 1.227 . S
N515 Co501 2.140 . S
N515 C518 1.346 . S
N515 C519 1.345 . S
C516 C517 1.387 . S
C516 C520 1.391 . S
C517 C516 1.387 . S
C517 C518 1.369 . S
C517 H526 0.929 . S
C518 N515 1.346 . S
C518 C517 1.369 . S
C518 H521 0.928 . S
C519 N515 1.345 . S
C519 C520 1.371 . S
C519 H522 0.931 . S
C520 C516 1.391 . S
C520 C519 1.371 . S
C520 H527 0.930 . S
H521 C518 0.928 . S
H522 C519 0.931 . S
H523 C499 0.930 . S
H524 C496 0.930 . S
H525 C505 0.930 . S
H526 C517 0.929 . S
H527 C520 0.930 . S
C528 C529 1.351 . S
C528 N531 1.368 . S
C528 H533 0.931 . S
C529 C528 1.351 . S
C529 N530 1.373 . S
C529 H557 0.930 . S
N530 C529 1.373 . S
N530 C532 1.340 . S
N531 C528 1.368 . S
N531 C532 1.321 . S
N531 Co534 2.135 . S
C532 N530 1.340 . S
C532 N531 1.321 . S
C532 H556 0.930 . S
H533 C528 0.931 . S
Co534 N531 2.135 . S
Co534 N537 2.121 . S
Co534 O542 2.055 . S
Co534 O545 2.039 . S
Co534 N548 2.140 . S
C535 O536 1.227 . S
C535 O545 1.265 . S
O536 C535 1.227 . S
N537 Co534 2.121 . S
N537 C539 1.375 . S
N537 C540 1.313 . S
C538 C539 1.338 . S
C538 N541 1.377 . S
C538 H558 0.930 . S
C539 N537 1.375 . S
C539 C538 1.338 . S
C539 H543 0.931 . S
C540 N537 1.313 . S
C540 N541 1.344 . S
C540 H544 0.930 . S
N541 C538 1.377 . S
N541 C540 1.344 . S
O542 Co534 2.055 . S
O542 C546 1.253 . S
H543 C539 0.931 . S
H544 C540 0.930 . S
O545 Co534 2.039 . S
O545 C535 1.265 . S
C546 O542 1.253 . S
C546 O547 1.227 . S
O547 C546 1.227 . S
N548 Co534 2.140 . S
N548 C551 1.346 . S
N548 C552 1.345 . S
C549 C550 1.387 . S
C549 C553 1.391 . S
C550 C549 1.387 . S
C550 C551 1.369 . S
C550 H559 0.929 . S
C551 N548 1.346 . S
C551 C550 1.369 . S
C551 H554 0.928 . S
C552 N548 1.345 . S
C552 C553 1.371 . S
C552 H555 0.931 . S
C553 C549 1.391 . S
C553 C552 1.371 . S
C553 H560 0.930 . S
H554 C551 0.928 . S
H555 C552 0.931 . S
H556 C532 0.930 . S
H557 C529 0.930 . S
H558 C538 0.930 . S
H559 C550 0.929 . S
H560 C553 0.930 . S
C561 C562 1.351 1_556 S
C561 N564 1.368 . S
C561 H566 0.931 . S
C562 C561 1.351 1_554 S
C562 N563 1.373 . S
C562 H590 0.930 . S
N563 C562 1.373 . S
N563 C565 1.340 . S
N564 C561 1.368 . S
N564 C565 1.321 1_556 S
N564 Co567 2.135 . S
C565 N563 1.340 . S
C565 N564 1.321 1_554 S
C565 H589 0.930 . S
H566 C561 0.931 . S
Co567 N564 2.135 . S
Co567 N570 2.121 . S
Co567 O575 2.055 . S
Co567 O578 2.039 . S
Co567 N581 2.140 . S
C568 O569 1.227 . S
C568 O578 1.265 . S
O569 C568 1.227 . S
N570 Co567 2.121 . S
N570 C572 1.375 . S
N570 C573 1.313 . S
C571 C572 1.338 . S
C571 N574 1.377 . S
C571 H591 0.930 . S
C572 N570 1.375 . S
C572 C571 1.338 . S
C572 H576 0.931 . S
C573 N570 1.313 . S
C573 N574 1.344 . S
C573 H577 0.930 . S
N574 C571 1.377 . S
N574 C573 1.344 . S
O575 Co567 2.055 . S
O575 C579 1.253 . S
H576 C572 0.931 . S
H577 C573 0.930 . S
O578 Co567 2.039 . S
O578 C568 1.265 . S
C579 O575 1.253 . S
C579 O580 1.227 . S
O580 C579 1.227 . S
N581 Co567 2.140 . S
N581 C584 1.346 . S
N581 C585 1.345 . S
C582 C583 1.387 . S
C582 C586 1.391 . S
C583 C582 1.387 . S
C583 C584 1.369 . S
C583 H592 0.929 . S
C584 N581 1.346 . S
C584 C583 1.369 . S
C584 H587 0.928 . S
C585 N581 1.345 . S
C585 C586 1.371 . S
C585 H588 0.931 . S
C586 C582 1.391 . S
C586 C585 1.371 . S
C586 H593 0.930 . S
H587 C584 0.928 . S
H588 C585 0.931 . S
H589 C565 0.930 . S
H590 C562 0.930 . S
H591 C571 0.930 . S
H592 C583 0.929 . S
H593 C586 0.930 . S
C594 C595 1.351 . S
C594 N597 1.368 . S
C594 H599 0.931 . S
C595 C594 1.351 . S
C595 N596 1.373 . S
C595 H623 0.930 . S
N596 C595 1.373 . S
N596 C598 1.340 . S
N597 C594 1.368 . S
N597 C598 1.321 . S
N597 Co600 2.135 . S
C598 N596 1.340 . S
C598 N597 1.321 . S
C598 H622 0.930 . S
H599 C594 0.931 . S
Co600 N597 2.135 . S
Co600 N603 2.121 1_554 S
Co600 O608 2.055 . S
Co600 O611 2.039 . S
Co600 N614 2.140 . S
C601 O602 1.227 . S
C601 O611 1.265 . S
O602 C601 1.227 . S
N603 Co600 2.121 1_556 S
N603 C605 1.375 . S
N603 C606 1.313 . S
C604 C605 1.338 . S
C604 N607 1.377 . S
C604 H624 0.930 . S
C605 N603 1.375 . S
C605 C604 1.338 . S
C605 H609 0.931 . S
C606 N603 1.313 . S
C606 N607 1.344 . S
C606 H610 0.930 . S
N607 C604 1.377 . S
N607 C606 1.344 . S
O608 Co600 2.055 . S
O608 C612 1.253 . S
H609 C605 0.931 . S
H610 C606 0.930 . S
O611 Co600 2.039 . S
O611 C601 1.265 . S
C612 O608 1.253 . S
C612 O613 1.227 . S
O613 C612 1.227 . S
N614 Co600 2.140 . S
N614 C617 1.346 . S
N614 C618 1.345 . S
C615 C616 1.387 . S
C615 C619 1.391 . S
C616 C615 1.387 . S
C616 C617 1.369 . S
C616 H625 0.929 . S
C617 N614 1.346 . S
C617 C616 1.369 . S
C617 H620 0.928 . S
C618 N614 1.345 . S
C618 C619 1.371 . S
C618 H621 0.931 1_554 S
C619 C615 1.391 . S
C619 C618 1.371 . S
C619 H626 0.930 1_554 S
H620 C617 0.928 . S
H621 C618 0.931 1_556 S
H622 C598 0.930 . S
H623 C595 0.930 . S
H624 C604 0.930 . S
H625 C616 0.929 . S
H626 C619 0.930 1_556 S
C627 C628 1.351 . S
C627 N630 1.368 . S
C627 H632 0.931 . S
C628 C627 1.351 . S
C628 N629 1.373 . S
C628 H656 0.930 . S
N629 C628 1.373 . S
N629 C631 1.340 . S
N630 C627 1.368 . S
N630 C631 1.321 . S
N630 Co633 2.135 . S
C631 N629 1.340 . S
C631 N630 1.321 . S
C631 H655 0.930 . S
H632 C627 0.931 . S
Co633 N630 2.135 . S
Co633 N636 2.121 . S
Co633 O641 2.055 . S
Co633 O644 2.039 . S
Co633 N647 2.140 . S
C634 O635 1.227 . S
C634 O644 1.265 . S
O635 C634 1.227 . S
N636 Co633 2.121 . S
N636 C638 1.375 . S
N636 C639 1.313 . S
C637 C638 1.338 . S
C637 N640 1.377 . S
C637 H657 0.930 . S
C638 N636 1.375 . S
C638 C637 1.338 . S
C638 H642 0.931 . S
C639 N636 1.313 . S
C639 N640 1.344 . S
C639 H643 0.930 . S
N640 C637 1.377 . S
N640 C639 1.344 . S
O641 Co633 2.055 . S
O641 C645 1.253 . S
H642 C638 0.931 . S
H643 C639 0.930 . S
O644 Co633 2.039 . S
O644 C634 1.265 . S
C645 O641 1.253 . S
C645 O646 1.227 . S
O646 C645 1.227 . S
N647 Co633 2.140 . S
N647 C650 1.346 . S
N647 C651 1.345 . S
C648 C649 1.387 . S
C648 C652 1.391 . S
C649 C648 1.387 . S
C649 C650 1.369 . S
C649 H658 0.929 . S
C650 N647 1.346 . S
C650 C649 1.369 . S
C650 H653 0.928 . S
C651 N647 1.345 . S
C651 C652 1.371 . S
C651 H654 0.931 . S
C652 C648 1.391 . S
C652 C651 1.371 . S
C652 H659 0.930 . S
H653 C650 0.928 . S
H654 C651 0.931 . S
H655 C631 0.930 . S
H656 C628 0.930 . S
H657 C637 0.930 . S
H658 C649 0.929 . S
H659 C652 0.930 . S
C660 C661 1.351 . S
C660 N663 1.368 . S
C660 H665 0.931 . S
C661 C660 1.351 . S
C661 N662 1.373 . S
C661 H689 0.930 . S
N662 C661 1.373 . S
N662 C664 1.340 . S
N663 C660 1.368 . S
N663 C664 1.321 . S
N663 Co666 2.135 . S
C664 N662 1.340 . S
C664 N663 1.321 . S
C664 H688 0.930 . S
H665 C660 0.931 . S
Co666 N663 2.135 . S
Co666 N669 2.121 . S
Co666 O674 2.055 . S
Co666 O677 2.039 . S
Co666 N680 2.140 . S
C667 O668 1.227 . S
C667 O677 1.265 . S
O668 C667 1.227 . S
N669 Co666 2.121 . S
N669 C671 1.375 . S
N669 C672 1.313 . S
C670 C671 1.338 . S
C670 N673 1.377 . S
C670 H690 0.930 . S
C671 N669 1.375 . S
C671 C670 1.338 . S
C671 H675 0.931 . S
C672 N669 1.313 . S
C672 N673 1.344 . S
C672 H676 0.930 . S
N673 C670 1.377 . S
N673 C672 1.344 . S
O674 Co666 2.055 . S
O674 C678 1.253 . S
H675 C671 0.931 . S
H676 C672 0.930 . S
O677 Co666 2.039 . S
O677 C667 1.265 . S
C678 O674 1.253 . S
C678 O679 1.227 . S
O679 C678 1.227 . S
N680 Co666 2.140 . S
N680 C683 1.346 . S
N680 C684 1.345 . S
C681 C682 1.387 . S
C681 C685 1.391 . S
C682 C681 1.387 . S
C682 C683 1.369 . S
C682 H691 0.929 . S
C683 N680 1.346 . S
C683 C682 1.369 . S
C683 H686 0.928 . S
C684 N680 1.345 . S
C684 C685 1.371 . S
C684 H687 0.931 . S
C685 C681 1.391 . S
C685 C684 1.371 . S
C685 H692 0.930 . S
H686 C683 0.928 . S
H687 C684 0.931 . S
H688 C664 0.930 . S
H689 C661 0.930 . S
H690 C670 0.930 . S
H691 C682 0.929 . S
H692 C685 0.930 . S
C693 C694 1.351 . S
C693 N696 1.368 . S
C693 H698 0.931 . S
C694 C693 1.351 . S
C694 N695 1.373 . S
C694 H722 0.930 . S
N695 C694 1.373 . S
N695 C697 1.340 . S
N696 C693 1.368 . S
N696 C697 1.321 . S
N696 Co699 2.135 . S
C697 N695 1.340 . S
C697 N696 1.321 . S
C697 H721 0.930 . S
H698 C693 0.931 . S
Co699 N696 2.135 . S
Co699 N702 2.121 . S
Co699 O707 2.055 . S
Co699 O710 2.039 . S
Co699 N713 2.140 . S
C700 O701 1.227 . S
C700 O710 1.265 . S
O701 C700 1.227 . S
N702 Co699 2.121 . S
N702 C704 1.375 . S
N702 C705 1.313 . S
C703 C704 1.338 . S
C703 N706 1.377 . S
C703 H723 0.930 . S
C704 N702 1.375 . S
C704 C703 1.338 . S
C704 H708 0.931 . S
C705 N702 1.313 . S
C705 N706 1.344 . S
C705 H709 0.930 . S
N706 C703 1.377 . S
N706 C705 1.344 . S
O707 Co699 2.055 . S
O707 C711 1.253 . S
H708 C704 0.931 . S
H709 C705 0.930 . S
O710 Co699 2.039 . S
O710 C700 1.265 . S
C711 O707 1.253 . S
C711 O712 1.227 . S
O712 C711 1.227 . S
N713 Co699 2.140 . S
N713 C716 1.346 . S
N713 C717 1.345 . S
C714 C715 1.387 . S
C714 C718 1.391 . S
C715 C714 1.387 . S
C715 C716 1.369 . S
C715 H724 0.929 . S
C716 N713 1.346 . S
C716 C715 1.369 . S
C716 H719 0.928 . S
C717 N713 1.345 . S
C717 C718 1.371 . S
C717 H720 0.931 . S
C718 C714 1.391 . S
C718 C717 1.371 . S
C718 H725 0.930 . S
H719 C716 0.928 . S
H720 C717 0.931 . S
H721 C697 0.930 . S
H722 C694 0.930 . S
H723 C703 0.930 . S
H724 C715 0.929 . S
H725 C718 0.930 . S
C726 C727 1.351 . S
C726 N729 1.368 . S
C726 H731 0.931 . S
C727 C726 1.351 . S
C727 N728 1.373 . S
C727 H755 0.930 . S
N728 C727 1.373 . S
N728 C730 1.340 . S
N729 C726 1.368 . S
N729 C730 1.321 . S
N729 Co732 2.135 . S
C730 N728 1.340 . S
C730 N729 1.321 . S
C730 H754 0.930 . S
H731 C726 0.931 . S
Co732 N729 2.135 . S
Co732 N735 2.121 1_556 S
Co732 O740 2.055 . S
Co732 O743 2.039 . S
Co732 N746 2.140 . S
C733 O734 1.227 . S
C733 O743 1.265 . S
O734 C733 1.227 . S
N735 Co732 2.121 1_554 S
N735 C737 1.375 . S
N735 C738 1.313 . S
C736 C737 1.338 . S
C736 N739 1.377 . S
C736 H756 0.930 . S
C737 N735 1.375 . S
C737 C736 1.338 . S
C737 H741 0.931 . S
C738 N735 1.313 . S
C738 N739 1.344 . S
C738 H742 0.930 . S
N739 C736 1.377 . S
N739 C738 1.344 . S
O740 Co732 2.055 . S
O740 C744 1.253 . S
H741 C737 0.931 . S
H742 C738 0.930 . S
O743 Co732 2.039 . S
O743 C733 1.265 . S
C744 O740 1.253 . S
C744 O745 1.227 . S
O745 C744 1.227 . S
N746 Co732 2.140 . S
N746 C749 1.346 . S
N746 C750 1.345 . S
C747 C748 1.387 . S
C747 C751 1.391 . S
C748 C747 1.387 . S
C748 C749 1.369 . S
C748 H757 0.929 . S
C749 N746 1.346 . S
C749 C748 1.369 . S
C749 H752 0.928 . S
C750 N746 1.345 . S
C750 C751 1.371 . S
C750 H753 0.931 1_556 S
C751 C747 1.391 . S
C751 C750 1.371 . S
C751 H758 0.930 1_556 S
H752 C749 0.928 . S
H753 C750 0.931 1_554 S
H754 C730 0.930 . S
H755 C727 0.930 . S
H756 C736 0.930 . S
H757 C748 0.929 . S
H758 C751 0.930 1_554 S
C759 C760 1.351 1_554 S
C759 N762 1.368 . S
C759 H764 0.931 . S
C760 C759 1.351 1_556 S
C760 N761 1.373 . S
C760 H788 0.930 . S
N761 C760 1.373 . S
N761 C763 1.340 . S
N762 C759 1.368 . S
N762 C763 1.321 1_554 S
N762 Co765 2.135 . S
C763 N761 1.340 . S
C763 N762 1.321 1_556 S
C763 H787 0.930 . S
H764 C759 0.931 . S
Co765 N762 2.135 . S
Co765 N768 2.121 . S
Co765 O773 2.055 . S
Co765 O776 2.039 . S
Co765 N779 2.140 . S
C766 O767 1.227 . S
C766 O776 1.265 . S
O767 C766 1.227 . S
N768 Co765 2.121 . S
N768 C770 1.375 . S
N768 C771 1.313 . S
C769 C770 1.338 . S
C769 N772 1.377 . S
C769 H789 0.930 . S
C770 N768 1.375 . S
C770 C769 1.338 . S
C770 H774 0.931 . S
C771 N768 1.313 . S
C771 N772 1.344 . S
C771 H775 0.930 . S
N772 C769 1.377 . S
N772 C771 1.344 . S
O773 Co765 2.055 . S
O773 C777 1.253 . S
H774 C770 0.931 . S
H775 C771 0.930 . S
O776 Co765 2.039 . S
O776 C766 1.265 . S
C777 O773 1.253 . S
C777 O778 1.227 . S
O778 C777 1.227 . S
N779 Co765 2.140 . S
N779 C782 1.346 . S
N779 C783 1.345 . S
C780 C781 1.387 . S
C780 C784 1.391 . S
C781 C780 1.387 . S
C781 C782 1.369 . S
C781 H790 0.929 . S
C782 N779 1.346 . S
C782 C781 1.369 . S
C782 H785 0.928 . S
C783 N779 1.345 . S
C783 C784 1.371 . S
C783 H786 0.931 . S
C784 C780 1.391 . S
C784 C783 1.371 . S
C784 H791 0.930 . S
H785 C782 0.928 . S
H786 C783 0.931 . S
H787 C763 0.930 . S
H788 C760 0.930 . S
H789 C769 0.930 . S
H790 C781 0.929 . S
H791 C784 0.930 . S
C792 C793 1.351 . S
C792 N795 1.368 . S
C792 H797 0.931 . S
C793 C792 1.351 . S
C793 N794 1.373 . S
C793 H821 0.930 . S
N794 C793 1.373 . S
N794 C796 1.340 . S
N795 C792 1.368 . S
N795 C796 1.321 . S
N795 Co798 2.135 . S
C796 N794 1.340 . S
C796 N795 1.321 . S
C796 H820 0.930 . S
H797 C792 0.931 . S
Co798 N795 2.135 . S
Co798 N801 2.121 . S
Co798 O806 2.055 . S
Co798 O809 2.039 . S
Co798 N812 2.140 . S
C799 O800 1.227 . S
C799 O809 1.265 . S
O800 C799 1.227 . S
N801 Co798 2.121 . S
N801 C803 1.375 . S
N801 C804 1.313 . S
C802 C803 1.338 . S
C802 N805 1.377 . S
C802 H822 0.930 . S
C803 N801 1.375 . S
C803 C802 1.338 . S
C803 H807 0.931 . S
C804 N801 1.313 . S
C804 N805 1.344 . S
C804 H808 0.930 . S
N805 C802 1.377 . S
N805 C804 1.344 . S
O806 Co798 2.055 . S
O806 C810 1.253 . S
H807 C803 0.931 . S
H808 C804 0.930 . S
O809 Co798 2.039 . S
O809 C799 1.265 . S
C810 O806 1.253 . S
C810 O811 1.227 . S
O811 C810 1.227 . S
N812 Co798 2.140 . S
N812 C815 1.346 . S
N812 C816 1.345 . S
C813 C814 1.387 . S
C813 C817 1.391 . S
C814 C813 1.387 . S
C814 C815 1.369 . S
C814 H823 0.929 . S
C815 N812 1.346 . S
C815 C814 1.369 . S
C815 H818 0.928 . S
C816 N812 1.345 . S
C816 C817 1.371 . S
C816 H819 0.931 . S
C817 C813 1.391 . S
C817 C816 1.371 . S
C817 H824 0.930 . S
H818 C815 0.928 . S
H819 C816 0.931 . S
H820 C796 0.930 . S
H821 C793 0.930 . S
H822 C802 0.930 . S
H823 C814 0.929 . S
H824 C817 0.930 . S
C825 C826 1.351 1_554 S
C825 N828 1.368 . S
C825 H830 0.931 . S
C826 C825 1.351 1_556 S
C826 N827 1.373 . S
C826 H854 0.930 . S
N827 C826 1.373 . S
N827 C829 1.340 . S
N828 C825 1.368 . S
N828 C829 1.321 1_554 S
N828 Co831 2.135 . S
C829 N827 1.340 . S
C829 N828 1.321 1_556 S
C829 H853 0.930 . S
H830 C825 0.931 . S
Co831 N828 2.135 . S
Co831 N834 2.121 . S
Co831 O839 2.055 . S
Co831 O842 2.039 . S
Co831 N845 2.140 . S
C832 O833 1.227 . S
C832 O842 1.265 . S
O833 C832 1.227 . S
N834 Co831 2.121 . S
N834 C836 1.375 . S
N834 C837 1.313 . S
C835 C836 1.338 . S
C835 N838 1.377 . S
C835 H855 0.930 . S
C836 N834 1.375 . S
C836 C835 1.338 . S
C836 H840 0.931 . S
C837 N834 1.313 . S
C837 N838 1.344 . S
C837 H841 0.930 . S
N838 C835 1.377 . S
N838 C837 1.344 . S
O839 Co831 2.055 . S
O839 C843 1.253 . S
H840 C836 0.931 . S
H841 C837 0.930 . S
O842 Co831 2.039 . S
O842 C832 1.265 . S
C843 O839 1.253 . S
C843 O844 1.227 . S
O844 C843 1.227 . S
N845 Co831 2.140 . S
N845 C848 1.346 . S
N845 C849 1.345 . S
C846 C847 1.387 . S
C846 C850 1.391 . S
C847 C846 1.387 . S
C847 C848 1.369 . S
C847 H856 0.929 . S
C848 N845 1.346 . S
C848 C847 1.369 . S
C848 H851 0.928 . S
C849 N845 1.345 . S
C849 C850 1.371 . S
C849 H852 0.931 . S
C850 C846 1.391 . S
C850 C849 1.371 . S
C850 H857 0.930 . S
H851 C848 0.928 . S
H852 C849 0.931 . S
H853 C829 0.930 . S
H854 C826 0.930 . S
H855 C835 0.930 . S
H856 C847 0.929 . S
H857 C850 0.930 . S
C858 C859 1.351 . S
C858 N861 1.368 . S
C858 H863 0.931 . S
C859 C858 1.351 . S
C859 N860 1.373 . S
C859 H887 0.930 . S
N860 C859 1.373 . S
N860 C862 1.340 . S
N861 C858 1.368 . S
N861 C862 1.321 . S
N861 Co864 2.135 . S
C862 N860 1.340 . S
C862 N861 1.321 . S
C862 H886 0.930 . S
H863 C858 0.931 . S
Co864 N861 2.135 . S
Co864 N867 2.121 1_556 S
Co864 O872 2.055 . S
Co864 O875 2.039 . S
Co864 N878 2.140 . S
C865 O866 1.227 . S
C865 O875 1.265 . S
O866 C865 1.227 . S
N867 Co864 2.121 1_554 S
N867 C869 1.375 . S
N867 C870 1.313 . S
C868 C869 1.338 . S
C868 N871 1.377 . S
C868 H888 0.930 . S
C869 N867 1.375 . S
C869 C868 1.338 . S
C869 H873 0.931 . S
C870 N867 1.313 . S
C870 N871 1.344 . S
C870 H874 0.930 . S
N871 C868 1.377 . S
N871 C870 1.344 . S
O872 Co864 2.055 . S
O872 C876 1.253 . S
H873 C869 0.931 . S
H874 C870 0.930 . S
O875 Co864 2.039 . S
O875 C865 1.265 . S
C876 O872 1.253 . S
C876 O877 1.227 . S
O877 C876 1.227 . S
N878 Co864 2.140 . S
N878 C881 1.346 . S
N878 C882 1.345 . S
C879 C880 1.387 . S
C879 C883 1.391 . S
C880 C879 1.387 . S
C880 C881 1.369 . S
C880 H889 0.929 . S
C881 N878 1.346 . S
C881 C880 1.369 . S
C881 H884 0.928 . S
C882 N878 1.345 . S
C882 C883 1.371 . S
C882 H885 0.931 1_556 S
C883 C879 1.391 . S
C883 C882 1.371 . S
C883 H890 0.930 1_556 S
H884 C881 0.928 . S
H885 C882 0.931 1_554 S
H886 C862 0.930 . S
H887 C859 0.930 . S
H888 C868 0.930 . S
H889 C880 0.929 . S
H890 C883 0.930 1_554 S
C891 C892 1.351 . S
C891 N894 1.368 . S
C891 H896 0.931 . S
C892 C891 1.351 . S
C892 N893 1.373 . S
C892 H920 0.930 . S
N893 C892 1.373 . S
N893 C895 1.340 . S
N894 C891 1.368 . S
N894 C895 1.321 . S
N894 Co897 2.135 . S
C895 N893 1.340 . S
C895 N894 1.321 . S
C895 H919 0.930 . S
H896 C891 0.931 . S
Co897 N894 2.135 . S
Co897 N900 2.121 . S
Co897 O905 2.055 . S
Co897 O908 2.039 . S
Co897 N911 2.140 . S
C898 O899 1.227 . S
C898 O908 1.265 . S
O899 C898 1.227 . S
N900 Co897 2.121 . S
N900 C902 1.375 . S
N900 C903 1.313 . S
C901 C902 1.338 . S
C901 N904 1.377 . S
C901 H921 0.930 . S
C902 N900 1.375 . S
C902 C901 1.338 . S
C902 H906 0.931 . S
C903 N900 1.313 . S
C903 N904 1.344 . S
C903 H907 0.930 . S
N904 C901 1.377 . S
N904 C903 1.344 . S
O905 Co897 2.055 . S
O905 C909 1.253 . S
H906 C902 0.931 . S
H907 C903 0.930 . S
O908 Co897 2.039 . S
O908 C898 1.265 . S
C909 O905 1.253 . S
C909 O910 1.227 . S
O910 C909 1.227 . S
N911 Co897 2.140 . S
N911 C914 1.346 . S
N911 C915 1.345 . S
C912 C913 1.387 . S
C912 C916 1.391 . S
C913 C912 1.387 . S
C913 C914 1.369 . S
C913 H922 0.929 . S
C914 N911 1.346 . S
C914 C913 1.369 . S
C914 H917 0.928 . S
C915 N911 1.345 . S
C915 C916 1.371 . S
C915 H918 0.931 . S
C916 C912 1.391 . S
C916 C915 1.371 . S
C916 H923 0.930 . S
H917 C914 0.928 . S
H918 C915 0.931 . S
H919 C895 0.930 . S
H920 C892 0.930 . S
H921 C901 0.930 . S
H922 C913 0.929 . S
H923 C916 0.930 . S
C924 C925 1.351 . S
C924 N927 1.368 . S
C924 H929 0.931 . S
C925 C924 1.351 . S
C925 N926 1.373 . S
C925 H953 0.930 . S
N926 C925 1.373 . S
N926 C928 1.340 . S
N927 C924 1.368 . S
N927 C928 1.321 . S
N927 Co930 2.135 . S
C928 N926 1.340 . S
C928 N927 1.321 . S
C928 H952 0.930 . S
H929 C924 0.931 . S
Co930 N927 2.135 . S
Co930 N933 2.121 . S
Co930 O938 2.055 . S
Co930 O941 2.039 . S
Co930 N944 2.140 . S
C931 O932 1.227 . S
C931 O941 1.265 . S
O932 C931 1.227 . S
N933 Co930 2.121 . S
N933 C935 1.375 . S
N933 C936 1.313 . S
C934 C935 1.338 . S
C934 N937 1.377 . S
C934 H954 0.930 . S
C935 N933 1.375 . S
C935 C934 1.338 . S
C935 H939 0.931 . S
C936 N933 1.313 . S
C936 N937 1.344 . S
C936 H940 0.930 . S
N937 C934 1.377 . S
N937 C936 1.344 . S
O938 Co930 2.055 . S
O938 C942 1.253 . S
H939 C935 0.931 . S
H940 C936 0.930 . S
O941 Co930 2.039 . S
O941 C931 1.265 . S
C942 O938 1.253 . S
C942 O943 1.227 . S
O943 C942 1.227 . S
N944 Co930 2.140 . S
N944 C947 1.346 . S
N944 C948 1.345 . S
C945 C946 1.387 . S
C945 C949 1.391 . S
C946 C945 1.387 . S
C946 C947 1.369 . S
C946 H955 0.929 . S
C947 N944 1.346 . S
C947 C946 1.369 . S
C947 H950 0.928 . S
C948 N944 1.345 . S
C948 C949 1.371 . S
C948 H951 0.931 . S
C949 C945 1.391 . S
C949 C948 1.371 . S
C949 H956 0.930 . S
H950 C947 0.928 . S
H951 C948 0.931 . S
H952 C928 0.930 . S
H953 C925 0.930 . S
H954 C934 0.930 . S
H955 C946 0.929 . S
H956 C949 0.930 . S
C957 C958 1.351 . S
C957 N960 1.368 . S
C957 H962 0.931 . S
C958 C957 1.351 . S
C958 N959 1.373 . S
C958 H986 0.930 . S
N959 C958 1.373 . S
N959 C961 1.340 . S
N960 C957 1.368 . S
N960 C961 1.321 . S
N960 Co963 2.135 . S
C961 N959 1.340 . S
C961 N960 1.321 . S
C961 H985 0.930 . S
H962 C957 0.931 . S
Co963 N960 2.135 . S
Co963 N966 2.121 . S
Co963 O971 2.055 . S
Co963 O974 2.039 . S
Co963 N977 2.140 . S
C964 O965 1.227 . S
C964 O974 1.265 . S
O965 C964 1.227 . S
N966 Co963 2.121 . S
N966 C968 1.375 . S
N966 C969 1.313 . S
C967 C968 1.338 . S
C967 N970 1.377 . S
C967 H987 0.930 . S
C968 N966 1.375 . S
C968 C967 1.338 . S
C968 H972 0.931 . S
C969 N966 1.313 . S
C969 N970 1.344 . S
C969 H973 0.930 . S
N970 C967 1.377 . S
N970 C969 1.344 . S
O971 Co963 2.055 . S
O971 C975 1.253 . S
H972 C968 0.931 . S
H973 C969 0.930 . S
O974 Co963 2.039 . S
O974 C964 1.265 . S
C975 O971 1.253 . S
C975 O976 1.227 . S
O976 C975 1.227 . S
N977 Co963 2.140 . S
N977 C980 1.346 . S
N977 C981 1.345 . S
C978 C979 1.387 . S
C978 C982 1.391 . S
C979 C978 1.387 . S
C979 C980 1.369 . S
C979 H988 0.929 . S
C980 N977 1.346 . S
C980 C979 1.369 . S
C980 H983 0.928 . S
C981 N977 1.345 . S
C981 C982 1.371 . S
C981 H984 0.931 . S
C982 C978 1.391 . S
C982 C981 1.371 . S
C982 H989 0.930 . S
H983 C980 0.928 . S
H984 C981 0.931 . S
H985 C961 0.930 . S
H986 C958 0.930 . S
H987 C967 0.930 . S
H988 C979 0.929 . S
H989 C982 0.930 . S
C990 C991 1.351 . S
C990 N993 1.368 . S
C990 H995 0.931 . S
C991 C990 1.351 . S
C991 N992 1.373 . S
C991 H1019 0.930 . S
N992 C991 1.373 . S
N992 C994 1.340 . S
N993 C990 1.368 . S
N993 C994 1.321 . S
N993 Co996 2.135 . S
C994 N992 1.340 . S
C994 N993 1.321 . S
C994 H1018 0.930 . S
H995 C990 0.931 . S
Co996 N993 2.135 . S
Co996 N999 2.121 1_554 S
Co996 O1004 2.055 . S
Co996 O1007 2.039 . S
Co996 N1010 2.140 . S
C997 O998 1.227 . S
C997 O1007 1.265 . S
O998 C997 1.227 . S
N999 Co996 2.121 1_556 S
N999 C1001 1.375 . S
N999 C1002 1.313 . S
C1000 C1001 1.338 . S
C1000 N1003 1.377 . S
C1000 H1020 0.930 . S
C1001 N999 1.375 . S
C1001 C1000 1.338 . S
C1001 H1005 0.931 . S
C1002 N999 1.313 . S
C1002 N1003 1.344 . S
C1002 H1006 0.930 . S
N1003 C1000 1.377 . S
N1003 C1002 1.344 . S
O1004 Co996 2.055 . S
O1004 C1008 1.253 . S
H1005 C1001 0.931 . S
H1006 C1002 0.930 . S
O1007 Co996 2.039 . S
O1007 C997 1.265 . S
C1008 O1004 1.253 . S
C1008 O1009 1.227 . S
O1009 C1008 1.227 . S
N1010 Co996 2.140 . S
N1010 C1013 1.346 . S
N1010 C1014 1.345 . S
C1011 C1012 1.387 . S
C1011 C1015 1.391 . S
C1012 C1011 1.387 . S
C1012 C1013 1.369 . S
C1012 H1021 0.929 . S
C1013 N1010 1.346 . S
C1013 C1012 1.369 . S
C1013 H1016 0.928 . S
C1014 N1010 1.345 . S
C1014 C1015 1.371 . S
C1014 H1017 0.931 1_554 S
C1015 C1011 1.391 . S
C1015 C1014 1.371 . S
C1015 H1022 0.930 1_554 S
H1016 C1013 0.928 . S
H1017 C1014 0.931 1_556 S
H1018 C994 0.930 . S
H1019 C991 0.930 . S
H1020 C1000 0.930 . S
H1021 C1012 0.929 . S
H1022 C1015 0.930 1_556 S
C1023 C1024 1.351 1_556 S
C1023 N1026 1.368 . S
C1023 H1028 0.931 . S
C1024 C1023 1.351 1_554 S
C1024 N1025 1.373 . S
C1024 H1052 0.930 . S
N1025 C1024 1.373 . S
N1025 C1027 1.340 . S
N1026 C1023 1.368 . S
N1026 C1027 1.321 1_556 S
N1026 Co1029 2.135 . S
C1027 N1025 1.340 . S
C1027 N1026 1.321 1_554 S
C1027 H1051 0.930 . S
H1028 C1023 0.931 . S
Co1029 N1026 2.135 . S
Co1029 N1032 2.121 . S
Co1029 O1037 2.055 . S
Co1029 O1040 2.039 . S
Co1029 N1043 2.140 . S
C1030 O1031 1.227 . S
C1030 O1040 1.265 . S
O1031 C1030 1.227 . S
N1032 Co1029 2.121 . S
N1032 C1034 1.375 . S
N1032 C1035 1.313 . S
C1033 C1034 1.338 . S
C1033 N1036 1.377 . S
C1033 H1053 0.930 . S
C1034 N1032 1.375 . S
C1034 C1033 1.338 . S
C1034 H1038 0.931 . S
C1035 N1032 1.313 . S
C1035 N1036 1.344 . S
C1035 H1039 0.930 . S
N1036 C1033 1.377 . S
N1036 C1035 1.344 . S
O1037 Co1029 2.055 . S
O1037 C1041 1.253 . S
H1038 C1034 0.931 . S
H1039 C1035 0.930 . S
O1040 Co1029 2.039 . S
O1040 C1030 1.265 . S
C1041 O1037 1.253 . S
C1041 O1042 1.227 . S
O1042 C1041 1.227 . S
N1043 Co1029 2.140 . S
N1043 C1046 1.346 . S
N1043 C1047 1.345 . S
C1044 C1045 1.387 . S
C1044 C1048 1.391 . S
C1045 C1044 1.387 . S
C1045 C1046 1.369 . S
C1045 H1054 0.929 . S
C1046 N1043 1.346 . S
C1046 C1045 1.369 . S
C1046 H1049 0.928 . S
C1047 N1043 1.345 . S
C1047 C1048 1.371 . S
C1047 H1050 0.931 . S
C1048 C1044 1.391 . S
C1048 C1047 1.371 . S
C1048 H1055 0.930 . S
H1049 C1046 0.928 . S
H1050 C1047 0.931 . S
H1051 C1027 0.930 . S
H1052 C1024 0.930 . S
H1053 C1033 0.930 . S
H1054 C1045 0.929 . S
H1055 C1048 0.930 . S
H1056 C1062 0.930 . S
H1057 C1065 0.930 . S
H1058 C1066 0.930 . S
H1059 C1067 0.930 1_556 S
H1060 C1070 0.930 . S
H1061 C1071 0.930 . S
C1062 H1056 0.930 . S
C1062 C1063 1.355 . S
C1062 C1064 1.415 . S
C1063 C1062 1.355 . S
C1063 C1065 1.419 1_554 S
C1064 C1062 1.415 . S
C1064 C1069 1.425 . S
C1064 C1071 1.409 . S
C1065 H1057 0.930 . S
C1065 C1063 1.419 1_556 S
C1065 C1066 1.362 . S
C1066 H1058 0.930 . S
C1066 C1065 1.362 . S
C1066 C1069 1.409 1_556 S
C1067 H1059 0.930 1_554 S
C1067 C1068 1.355 . S
C1067 C1069 1.415 . S
C1068 C1067 1.355 . S
C1068 C1070 1.419 . S
C1069 C1064 1.425 . S
C1069 C1066 1.409 1_554 S
C1069 C1067 1.415 . S
C1070 H1060 0.930 . S
C1070 C1068 1.419 . S
C1070 C1071 1.362 . S
C1071 H1061 0.930 . S
C1071 C1064 1.409 . S
C1071 C1070 1.362 . S
H1072 C1078 0.930 . S
H1073 C1081 0.930 . S
H1074 C1082 0.930 . S
H1075 C1083 0.930 . S
H1076 C1086 0.930 . S
H1077 C1087 0.930 . S
C1078 H1072 0.930 . S
C1078 C1079 1.355 . S
C1078 C1080 1.415 . S
C1079 C1078 1.355 . S
C1079 C1081 1.419 . S
C1080 C1078 1.415 . S
C1080 C1085 1.425 1_455 S
C1080 C1087 1.409 1_455 S
C1081 H1073 0.930 . S
C1081 C1079 1.419 . S
C1081 C1082 1.362 . S
C1082 H1074 0.930 . S
C1082 C1081 1.362 . S
C1082 C1085 1.409 1_455 S
C1083 H1075 0.930 . S
C1083 C1084 1.355 . S
C1083 C1085 1.415 . S
C1084 C1083 1.355 . S
C1084 C1086 1.419 . S
C1085 C1080 1.425 1_655 S
C1085 C1082 1.409 1_655 S
C1085 C1083 1.415 . S
C1086 H1076 0.930 . S
C1086 C1084 1.419 . S
C1086 C1087 1.362 . S
C1087 H1077 0.930 . S
C1087 C1080 1.409 1_655 S
C1087 C1086 1.362 . S
H1088 C1094 0.930 . S
H1089 C1097 0.930 . S
H1090 C1098 0.930 . S
H1091 C1099 0.930 . S
H1092 C1102 0.930 . S
H1093 C1103 0.930 . S
C1094 H1088 0.930 . S
C1094 C1095 1.355 . S
C1094 C1096 1.415 . S
C1095 C1094 1.355 . S
C1095 C1097 1.419 . S
C1096 C1094 1.415 . S
C1096 C1101 1.425 . S
C1096 C1103 1.409 . S
C1097 H1089 0.930 . S
C1097 C1095 1.419 . S
C1097 C1098 1.362 . S
C1098 H1090 0.930 . S
C1098 C1097 1.362 . S
C1098 C1101 1.409 . S
C1099 H1091 0.930 . S
C1099 C1100 1.355 . S
C1099 C1101 1.415 . S
C1100 C1099 1.355 . S
C1100 C1102 1.419 . S
C1101 C1096 1.425 . S
C1101 C1098 1.409 . S
C1101 C1099 1.415 . S
C1102 H1092 0.930 . S
C1102 C1100 1.419 . S
C1102 C1103 1.362 . S
C1103 H1093 0.930 . S
C1103 C1096 1.409 . S
C1103 C1102 1.362 . S
H1104 C1110 0.930 . S
H1105 C1113 0.930 . S
H1106 C1114 0.930 . S
H1107 C1115 0.930 . S
H1108 C1118 0.930 . S
H1109 C1119 0.930 . S
C1110 H1104 0.930 . S
C1110 C1111 1.355 . S
C1110 C1112 1.415 . S
C1111 C1110 1.355 . S
C1111 C1113 1.419 . S
C1112 C1110 1.415 . S
C1112 C1117 1.425 . S
C1112 C1119 1.409 . S
C1113 H1105 0.930 . S
C1113 C1111 1.419 . S
C1113 C1114 1.362 . S
C1114 H1106 0.930 . S
C1114 C1113 1.362 . S
C1114 C1117 1.409 . S
C1115 H1107 0.930 . S
C1115 C1116 1.355 . S
C1115 C1117 1.415 . S
C1116 C1115 1.355 . S
C1116 C1118 1.419 . S
C1117 C1112 1.425 . S
C1117 C1114 1.409 . S
C1117 C1115 1.415 . S
C1118 H1108 0.930 . S
C1118 C1116 1.419 . S
C1118 C1119 1.362 . S
C1119 H1109 0.930 . S
C1119 C1112 1.409 . S
C1119 C1118 1.362 . S
H1120 C1126 0.930 . S
H1121 C1129 0.930 1_554 S
H1122 C1130 0.930 1_554 S
H1123 C1131 0.930 . S
H1124 C1134 0.930 . S
H1125 C1135 0.930 . S
C1126 H1120 0.930 . S
C1126 C1127 1.355 . S
C1126 C1128 1.415 . S
C1127 C1126 1.355 . S
C1127 C1129 1.419 . S
C1128 C1126 1.415 . S
C1128 C1133 1.425 . S
C1128 C1135 1.409 . S
C1129 H1121 0.930 1_556 S
C1129 C1127 1.419 . S
C1129 C1130 1.362 . S
C1130 H1122 0.930 1_556 S
C1130 C1129 1.362 . S
C1130 C1133 1.409 . S
C1131 H1123 0.930 . S
C1131 C1132 1.355 . S
C1131 C1133 1.415 . S
C1132 C1131 1.355 . S
C1132 C1134 1.419 . S
C1133 C1128 1.425 . S
C1133 C1130 1.409 . S
C1133 C1131 1.415 . S
C1134 H1124 0.930 . S
C1134 C1132 1.419 . S
C1134 C1135 1.362 . S
C1135 H1125 0.930 . S
C1135 C1128 1.409 . S
C1135 C1134 1.362 . S
H1136 C1142 0.930 . S
H1137 C1145 0.930 . S
H1138 C1146 0.930 . S
H1139 C1147 0.930 . S
H1140 C1150 0.930 . S
H1141 C1151 0.930 . S
C1142 H1136 0.930 . S
C1142 C1143 1.355 . S
C1142 C1144 1.415 . S
C1143 C1142 1.355 . S
C1143 C1145 1.419 . S
C1144 C1142 1.415 . S
C1144 C1149 1.425 . S
C1144 C1151 1.409 . S
C1145 H1137 0.930 . S
C1145 C1143 1.419 . S
C1145 C1146 1.362 . S
C1146 H1138 0.930 . S
C1146 C1145 1.362 . S
C1146 C1149 1.409 . S
C1147 H1139 0.930 . S
C1147 C1148 1.355 . S
C1147 C1149 1.415 . S
C1148 C1147 1.355 . S
C1148 C1150 1.419 . S
C1149 C1144 1.425 . S
C1149 C1146 1.409 . S
C1149 C1147 1.415 . S
C1150 H1140 0.930 . S
C1150 C1148 1.419 . S
C1150 C1151 1.362 . S
C1151 H1141 0.930 . S
C1151 C1144 1.409 . S
C1151 C1150 1.362 . S
H1152 C1158 0.930 . S
H1153 C1161 0.930 . S
H1154 C1162 0.930 . S
H1155 C1163 0.930 . S
H1156 C1166 0.930 . S
H1157 C1167 0.930 . S
C1158 H1152 0.930 . S
C1158 C1159 1.355 . S
C1158 C1160 1.415 . S
C1159 C1158 1.355 . S
C1159 C1161 1.419 . S
C1160 C1158 1.415 . S
C1160 C1165 1.425 . S
C1160 C1167 1.409 . S
C1161 H1153 0.930 . S
C1161 C1159 1.419 . S
C1161 C1162 1.362 . S
C1162 H1154 0.930 . S
C1162 C1161 1.362 . S
C1162 C1165 1.409 . S
C1163 H1155 0.930 . S
C1163 C1164 1.355 . S
C1163 C1165 1.415 . S
C1164 C1163 1.355 . S
C1164 C1166 1.419 . S
C1165 C1160 1.425 . S
C1165 C1162 1.409 . S
C1165 C1163 1.415 . S
C1166 H1156 0.930 . S
C1166 C1164 1.419 . S
C1166 C1167 1.362 . S
C1167 H1157 0.930 . S
C1167 C1160 1.409 . S
C1167 C1166 1.362 . S
H1168 C1174 0.930 . S
H1169 C1177 0.930 . S
H1170 C1178 0.930 . S
H1171 C1179 0.930 . S
H1172 C1182 0.930 . S
H1173 C1183 0.930 . S
C1174 H1168 0.930 . S
C1174 C1175 1.355 . S
C1174 C1176 1.415 . S
C1175 C1174 1.355 . S
C1175 C1177 1.419 . S
C1176 C1174 1.415 . S
C1176 C1181 1.425 1_655 S
C1176 C1183 1.409 1_655 S
C1177 H1169 0.930 . S
C1177 C1175 1.419 . S
C1177 C1178 1.362 . S
C1178 H1170 0.930 . S
C1178 C1177 1.362 . S
C1178 C1181 1.409 1_655 S
C1179 H1171 0.930 . S
C1179 C1180 1.355 . S
C1179 C1181 1.415 . S
C1180 C1179 1.355 . S
C1180 C1182 1.419 . S
C1181 C1176 1.425 1_455 S
C1181 C1178 1.409 1_455 S
C1181 C1179 1.415 . S
C1182 H1172 0.930 . S
C1182 C1180 1.419 . S
C1182 C1183 1.362 . S
C1183 H1173 0.930 . S
C1183 C1176 1.409 1_455 S
C1183 C1182 1.362 . S
H1184 C1190 0.930 . S
H1185 C1193 0.930 . S
H1186 C1194 0.930 . S
H1187 C1195 0.930 . S
H1188 C1198 0.930 1_554 S
H1189 C1199 0.930 1_554 S
C1190 H1184 0.930 . S
C1190 C1191 1.355 . S
C1190 C1192 1.415 . S
C1191 C1190 1.355 . S
C1191 C1193 1.419 . S
C1192 C1190 1.415 . S
C1192 C1197 1.425 . S
C1192 C1199 1.409 . S
C1193 H1185 0.930 . S
C1193 C1191 1.419 . S
C1193 C1194 1.362 . S
C1194 H1186 0.930 . S
C1194 C1193 1.362 . S
C1194 C1197 1.409 . S
C1195 H1187 0.930 . S
C1195 C1196 1.355 . S
C1195 C1197 1.415 . S
C1196 C1195 1.355 . S
C1196 C1198 1.419 . S
C1197 C1192 1.425 . S
C1197 C1194 1.409 . S
C1197 C1195 1.415 . S
C1198 H1188 0.930 1_556 S
C1198 C1196 1.419 . S
C1198 C1199 1.362 . S
C1199 H1189 0.930 1_556 S
C1199 C1192 1.409 . S
C1199 C1198 1.362 . S
H1200 C1206 0.930 . S
H1201 C1209 0.930 . S
H1202 C1210 0.930 . S
H1203 C1211 0.930 . S
H1204 C1214 0.930 . S
H1205 C1215 0.930 . S
C1206 H1200 0.930 . S
C1206 C1207 1.355 . S
C1206 C1208 1.415 . S
C1207 C1206 1.355 . S
C1207 C1209 1.419 . S
C1208 C1206 1.415 . S
C1208 C1213 1.425 . S
C1208 C1215 1.409 . S
C1209 H1201 0.930 . S
C1209 C1207 1.419 . S
C1209 C1210 1.362 . S
C1210 H1202 0.930 . S
C1210 C1209 1.362 . S
C1210 C1213 1.409 . S
C1211 H1203 0.930 . S
C1211 C1212 1.355 . S
C1211 C1213 1.415 . S
C1212 C1211 1.355 . S
C1212 C1214 1.419 . S
C1213 C1208 1.425 . S
C1213 C1210 1.409 . S
C1213 C1211 1.415 . S
C1214 H1204 0.930 . S
C1214 C1212 1.419 . S
C1214 C1215 1.362 . S
C1215 H1205 0.930 . S
C1215 C1208 1.409 . S
C1215 C1214 1.362 . S
H1216 C1222 0.930 . S
H1217 C1225 0.930 . S
H1218 C1226 0.930 . S
H1219 C1227 0.930 . S
H1220 C1230 0.930 . S
H1221 C1231 0.930 . S
C1222 H1216 0.930 . S
C1222 C1223 1.355 . S
C1222 C1224 1.415 . S
C1223 C1222 1.355 . S
C1223 C1225 1.419 . S
C1224 C1222 1.415 . S
C1224 C1229 1.425 . S
C1224 C1231 1.409 . S
C1225 H1217 0.930 . S
C1225 C1223 1.419 . S
C1225 C1226 1.362 . S
C1226 H1218 0.930 . S
C1226 C1225 1.362 . S
C1226 C1229 1.409 . S
C1227 H1219 0.930 . S
C1227 C1228 1.355 . S
C1227 C1229 1.415 . S
C1228 C1227 1.355 . S
C1228 C1230 1.419 . S
C1229 C1224 1.425 . S
C1229 C1226 1.409 . S
C1229 C1227 1.415 . S
C1230 H1220 0.930 . S
C1230 C1228 1.419 . S
C1230 C1231 1.362 . S
C1231 H1221 0.930 . S
C1231 C1224 1.409 . S
C1231 C1230 1.362 . S
H1232 C1238 0.930 . S
H1233 C1241 0.930 . S
H1234 C1242 0.930 . S
H1235 C1243 0.930 . S
H1236 C1246 0.930 . S
H1237 C1247 0.930 . S
C1238 H1232 0.930 . S
C1238 C1239 1.355 . S
C1238 C1240 1.415 . S
C1239 C1238 1.355 . S
C1239 C1241 1.419 . S
C1240 C1238 1.415 . S
C1240 C1245 1.425 . S
C1240 C1247 1.409 . S
C1241 H1233 0.930 . S
C1241 C1239 1.419 . S
C1241 C1242 1.362 . S
C1242 H1234 0.930 . S
C1242 C1241 1.362 . S
C1242 C1245 1.409 . S
C1243 H1235 0.930 . S
C1243 C1244 1.355 . S
C1243 C1245 1.415 . S
C1244 C1243 1.355 . S
C1244 C1246 1.419 . S
C1245 C1240 1.425 . S
C1245 C1242 1.409 . S
C1245 C1243 1.415 . S
C1246 H1236 0.930 . S
C1246 C1244 1.419 . S
C1246 C1247 1.362 . S
C1247 H1237 0.930 . S
C1247 C1240 1.409 . S
C1247 C1246 1.362 . S
H1248 C1254 0.930 . S
H1249 C1257 0.930 . S
H1250 C1258 0.930 . S
H1251 C1259 0.930 . S
H1252 C1262 0.930 . S
H1253 C1263 0.930 . S
C1254 H1248 0.930 . S
C1254 C1255 1.355 . S
C1254 C1256 1.415 . S
C1255 C1254 1.355 . S
C1255 C1257 1.419 . S
C1256 C1254 1.415 . S
C1256 C1261 1.425 . S
C1256 C1263 1.409 . S
C1257 H1249 0.930 . S
C1257 C1255 1.419 . S
C1257 C1258 1.362 . S
C1258 H1250 0.930 . S
C1258 C1257 1.362 . S
C1258 C1261 1.409 . S
C1259 H1251 0.930 . S
C1259 C1260 1.355 . S
C1259 C1261 1.415 . S
C1260 C1259 1.355 . S
C1260 C1262 1.419 . S
C1261 C1256 1.425 . S
C1261 C1258 1.409 . S
C1261 C1259 1.415 . S
C1262 H1252 0.930 . S
C1262 C1260 1.419 . S
C1262 C1263 1.362 . S
C1263 H1253 0.930 . S
C1263 C1256 1.409 . S
C1263 C1262 1.362 . S
H1264 C1270 0.930 . S
H1265 C1273 0.930 . S
H1266 C1274 0.930 . S
H1267 C1275 0.930 . S
H1268 C1278 0.930 . S
H1269 C1279 0.930 . S
C1270 H1264 0.930 . S
C1270 C1271 1.355 . S
C1270 C1272 1.415 . S
C1271 C1270 1.355 . S
C1271 C1273 1.419 . S
C1272 C1270 1.415 . S
C1272 C1277 1.425 1_455 S
C1272 C1279 1.409 1_455 S
C1273 H1265 0.930 . S
C1273 C1271 1.419 . S
C1273 C1274 1.362 . S
C1274 H1266 0.930 . S
C1274 C1273 1.362 . S
C1274 C1277 1.409 1_455 S
C1275 H1267 0.930 . S
C1275 C1276 1.355 . S
C1275 C1277 1.415 . S
C1276 C1275 1.355 . S
C1276 C1278 1.419 . S
C1277 C1272 1.425 1_655 S
C1277 C1274 1.409 1_655 S
C1277 C1275 1.415 . S
C1278 H1268 0.930 . S
C1278 C1276 1.419 . S
C1278 C1279 1.362 . S
C1279 H1269 0.930 . S
C1279 C1272 1.409 1_655 S
C1279 C1278 1.362 . S
H1280 C1286 0.930 . S
H1281 C1289 0.930 . S
H1282 C1290 0.930 . S
H1283 C1291 0.930 . S
H1284 C1294 0.930 . S
H1285 C1295 0.930 . S
C1286 H1280 0.930 . S
C1286 C1287 1.355 . S
C1286 C1288 1.415 . S
C1287 C1286 1.355 . S
C1287 C1289 1.419 . S
C1288 C1286 1.415 . S
C1288 C1293 1.425 1_455 S
C1288 C1295 1.409 1_455 S
C1289 H1281 0.930 . S
C1289 C1287 1.419 . S
C1289 C1290 1.362 . S
C1290 H1282 0.930 . S
C1290 C1289 1.362 . S
C1290 C1293 1.409 1_455 S
C1291 H1283 0.930 . S
C1291 C1292 1.355 . S
C1291 C1293 1.415 . S
C1292 C1291 1.355 . S
C1292 C1294 1.419 . S
C1293 C1288 1.425 1_655 S
C1293 C1290 1.409 1_655 S
C1293 C1291 1.415 . S
C1294 H1284 0.930 . S
C1294 C1292 1.419 . S
C1294 C1295 1.362 . S
C1295 H1285 0.930 . S
C1295 C1288 1.409 1_655 S
C1295 C1294 1.362 . S
H1296 C1302 0.930 . S
H1297 C1305 0.930 . S
H1298 C1306 0.930 . S
H1299 C1307 0.930 . S
H1300 C1310 0.930 . S
H1301 C1311 0.930 . S
C1302 H1296 0.930 . S
C1302 C1303 1.355 . S
C1302 C1304 1.415 . S
C1303 C1302 1.355 . S
C1303 C1305 1.419 . S
C1304 C1302 1.415 . S
C1304 C1309 1.425 . S
C1304 C1311 1.409 . S
C1305 H1297 0.930 . S
C1305 C1303 1.419 . S
C1305 C1306 1.362 . S
C1306 H1298 0.930 . S
C1306 C1305 1.362 . S
C1306 C1309 1.409 . S
C1307 H1299 0.930 . S
C1307 C1308 1.355 . S
C1307 C1309 1.415 . S
C1308 C1307 1.355 . S
C1308 C1310 1.419 . S
C1309 C1304 1.425 . S
C1309 C1306 1.409 . S
C1309 C1307 1.415 . S
C1310 H1300 0.930 . S
C1310 C1308 1.419 . S
C1310 C1311 1.362 . S
C1311 H1301 0.930 . S
C1311 C1304 1.409 . S
C1311 C1310 1.362 . S
H1312 C1318 0.930 . S
H1313 C1321 0.930 . S
H1314 C1322 0.930 . S
H1315 C1323 0.930 . S
H1316 C1326 0.930 . S
H1317 C1327 0.930 . S
C1318 H1312 0.930 . S
C1318 C1319 1.355 . S
C1318 C1320 1.415 . S
C1319 C1318 1.355 . S
C1319 C1321 1.419 . S
C1320 C1318 1.415 . S
C1320 C1325 1.425 . S
C1320 C1327 1.409 . S
C1321 H1313 0.930 . S
C1321 C1319 1.419 . S
C1321 C1322 1.362 . S
C1322 H1314 0.930 . S
C1322 C1321 1.362 . S
C1322 C1325 1.409 . S
C1323 H1315 0.930 . S
C1323 C1324 1.355 . S
C1323 C1325 1.415 . S
C1324 C1323 1.355 . S
C1324 C1326 1.419 . S
C1325 C1320 1.425 . S
C1325 C1322 1.409 . S
C1325 C1323 1.415 . S
C1326 H1316 0.930 . S
C1326 C1324 1.419 . S
C1326 C1327 1.362 . S
C1327 H1317 0.930 . S
C1327 C1320 1.409 . S
C1327 C1326 1.362 . S
H1328 C1334 0.930 . S
H1329 C1337 0.930 . S
H1330 C1338 0.930 . S
H1331 C1339 0.930 . S
H1332 C1342 0.930 1_554 S
H1333 C1343 0.930 . S
C1334 H1328 0.930 . S
C1334 C1335 1.355 . S
C1334 C1336 1.415 . S
C1335 C1334 1.355 . S
C1335 C1337 1.419 . S
C1336 C1334 1.415 . S
C1336 C1341 1.425 . S
C1336 C1343 1.409 . S
C1337 H1329 0.930 . S
C1337 C1335 1.419 . S
C1337 C1338 1.362 . S
C1338 H1330 0.930 . S
C1338 C1337 1.362 . S
C1338 C1341 1.409 . S
C1339 H1331 0.930 . S
C1339 C1340 1.355 . S
C1339 C1341 1.415 . S
C1340 C1339 1.355 . S
C1340 C1342 1.419 . S
C1341 C1336 1.425 . S
C1341 C1338 1.409 . S
C1341 C1339 1.415 . S
C1342 H1332 0.930 1_556 S
C1342 C1340 1.419 . S
C1342 C1343 1.362 . S
C1343 H1333 0.930 . S
C1343 C1336 1.409 . S
C1343 C1342 1.362 . S
H1344 C1350 0.930 . S
H1345 C1353 0.930 . S
H1346 C1354 0.930 . S
H1347 C1355 0.930 . S
H1348 C1358 0.930 . S
H1349 C1359 0.930 . S
C1350 H1344 0.930 . S
C1350 C1351 1.355 . S
C1350 C1352 1.415 1_556 S
C1351 C1350 1.355 . S
C1351 C1353 1.419 . S
C1352 C1350 1.415 1_554 S
C1352 C1357 1.425 . S
C1352 C1359 1.409 . S
C1353 H1345 0.930 . S
C1353 C1351 1.419 . S
C1353 C1354 1.362 1_556 S
C1354 H1346 0.930 . S
C1354 C1353 1.362 1_554 S
C1354 C1357 1.409 . S
C1355 H1347 0.930 . S
C1355 C1356 1.355 . S
C1355 C1357 1.415 . S
C1356 C1355 1.355 . S
C1356 C1358 1.419 . S
C1357 C1352 1.425 . S
C1357 C1354 1.409 . S
C1357 C1355 1.415 . S
C1358 H1348 0.930 . S
C1358 C1356 1.419 . S
C1358 C1359 1.362 . S
C1359 H1349 0.930 . S
C1359 C1352 1.409 . S
C1359 C1358 1.362 . S
H1360 C1366 0.930 . S
H1361 C1369 0.930 . S
H1362 C1370 0.930 . S
H1363 C1371 0.930 . S
H1364 C1374 0.930 . S
H1365 C1375 0.930 . S
C1366 H1360 0.930 . S
C1366 C1367 1.355 . S
C1366 C1368 1.415 . S
C1367 C1366 1.355 . S
C1367 C1369 1.419 . S
C1368 C1366 1.415 . S
C1368 C1373 1.425 . S
C1368 C1375 1.409 . S
C1369 H1361 0.930 . S
C1369 C1367 1.419 . S
C1369 C1370 1.362 . S
C1370 H1362 0.930 . S
C1370 C1369 1.362 . S
C1370 C1373 1.409 . S
C1371 H1363 0.930 . S
C1371 C1372 1.355 . S
C1371 C1373 1.415 . S
C1372 C1371 1.355 . S
C1372 C1374 1.419 . S
C1373 C1368 1.425 . S
C1373 C1370 1.409 . S
C1373 C1371 1.415 . S
C1374 H1364 0.930 . S
C1374 C1372 1.419 . S
C1374 C1375 1.362 . S
C1375 H1365 0.930 . S
C1375 C1368 1.409 . S
C1375 C1374 1.362 . S
H1376 C1382 0.930 . S
H1377 C1385 0.930 . S
H1378 C1386 0.930 . S
H1379 C1387 0.930 . S
H1380 C1390 0.930 . S
H1381 C1391 0.930 . S
C1382 H1376 0.930 . S
C1382 C1383 1.355 . S
C1382 C1384 1.415 . S
C1383 C1382 1.355 . S
C1383 C1385 1.419 . S
C1384 C1382 1.415 . S
C1384 C1389 1.425 . S
C1384 C1391 1.409 . S
C1385 H1377 0.930 . S
C1385 C1383 1.419 . S
C1385 C1386 1.362 . S
C1386 H1378 0.930 . S
C1386 C1385 1.362 . S
C1386 C1389 1.409 . S
C1387 H1379 0.930 . S
C1387 C1388 1.355 . S
C1387 C1389 1.415 . S
C1388 C1387 1.355 . S
C1388 C1390 1.419 . S
C1389 C1384 1.425 . S
C1389 C1386 1.409 . S
C1389 C1387 1.415 . S
C1390 H1380 0.930 . S
C1390 C1388 1.419 . S
C1390 C1391 1.362 . S
C1391 H1381 0.930 . S
C1391 C1384 1.409 . S
C1391 C1390 1.362 . S
H1392 C1398 0.930 . S
H1393 C1401 0.930 . S
H1394 C1402 0.930 . S
H1395 C1403 0.930 . S
H1396 C1406 0.930 . S
H1397 C1407 0.930 . S
C1398 H1392 0.930 . S
C1398 C1399 1.355 . S
C1398 C1400 1.415 . S
C1399 C1398 1.355 . S
C1399 C1401 1.419 . S
C1400 C1398 1.415 . S
C1400 C1405 1.425 . S
C1400 C1407 1.409 . S
C1401 H1393 0.930 . S
C1401 C1399 1.419 . S
C1401 C1402 1.362 . S
C1402 H1394 0.930 . S
C1402 C1401 1.362 . S
C1402 C1405 1.409 . S
C1403 H1395 0.930 . S
C1403 C1404 1.355 . S
C1403 C1405 1.415 . S
C1404 C1403 1.355 . S
C1404 C1406 1.419 . S
C1405 C1400 1.425 . S
C1405 C1402 1.409 . S
C1405 C1403 1.415 . S
C1406 H1396 0.930 . S
C1406 C1404 1.419 . S
C1406 C1407 1.362 . S
C1407 H1397 0.930 . S
C1407 C1400 1.409 . S
C1407 C1406 1.362 . S
H1408 C1414 0.930 . S
H1409 C1417 0.930 . S
H1410 C1418 0.930 . S
H1411 C1419 0.930 . S
H1412 C1422 0.930 . S
H1413 C1423 0.930 . S
C1414 H1408 0.930 . S
C1414 C1415 1.355 . S
C1414 C1416 1.415 . S
C1415 C1414 1.355 . S
C1415 C1417 1.419 . S
C1416 C1414 1.415 . S
C1416 C1421 1.425 . S
C1416 C1423 1.409 . S
C1417 H1409 0.930 . S
C1417 C1415 1.419 . S
C1417 C1418 1.362 . S
C1418 H1410 0.930 . S
C1418 C1417 1.362 . S
C1418 C1421 1.409 . S
C1419 H1411 0.930 . S
C1419 C1420 1.355 . S
C1419 C1421 1.415 1_554 S
C1420 C1419 1.355 . S
C1420 C1422 1.419 . S
C1421 C1416 1.425 . S
C1421 C1418 1.409 . S
C1421 C1419 1.415 1_556 S
C1422 H1412 0.930 . S
C1422 C1420 1.419 . S
C1422 C1423 1.362 1_554 S
C1423 H1413 0.930 . S
C1423 C1416 1.409 . S
C1423 C1422 1.362 1_556 S
H1424 C1430 0.930 . S
H1425 C1433 0.930 . S
H1426 C1434 0.930 . S
H1427 C1435 0.930 . S
H1428 C1438 0.930 1_556 S
H1429 C1439 0.930 . S
C1430 H1424 0.930 . S
C1430 C1431 1.355 . S
C1430 C1432 1.415 . S
C1431 C1430 1.355 . S
C1431 C1433 1.419 . S
C1432 C1430 1.415 . S
C1432 C1437 1.425 . S
C1432 C1439 1.409 . S
C1433 H1425 0.930 . S
C1433 C1431 1.419 . S
C1433 C1434 1.362 . S
C1434 H1426 0.930 . S
C1434 C1433 1.362 . S
C1434 C1437 1.409 . S
C1435 H1427 0.930 . S
C1435 C1436 1.355 . S
C1435 C1437 1.415 . S
C1436 C1435 1.355 . S
C1436 C1438 1.419 . S
C1437 C1432 1.425 . S
C1437 C1434 1.409 . S
C1437 C1435 1.415 . S
C1438 H1428 0.930 1_554 S
C1438 C1436 1.419 . S
C1438 C1439 1.362 . S
C1439 H1429 0.930 . S
C1439 C1432 1.409 . S
C1439 C1438 1.362 . S
H1440 C1446 0.930 . S
H1441 C1449 0.930 . S
H1442 C1450 0.930 . S
H1443 C1451 0.930 . S
H1444 C1454 0.930 . S
H1445 C1455 0.930 . S
C1446 H1440 0.930 . S
C1446 C1447 1.355 . S
C1446 C1448 1.415 . S
C1447 C1446 1.355 . S
C1447 C1449 1.419 . S
C1448 C1446 1.415 . S
C1448 C1453 1.425 . S
C1448 C1455 1.409 . S
C1449 H1441 0.930 . S
C1449 C1447 1.419 . S
C1449 C1450 1.362 . S
C1450 H1442 0.930 . S
C1450 C1449 1.362 . S
C1450 C1453 1.409 . S
C1451 H1443 0.930 . S
C1451 C1452 1.355 . S
C1451 C1453 1.415 . S
C1452 C1451 1.355 . S
C1452 C1454 1.419 . S
C1453 C1448 1.425 . S
C1453 C1450 1.409 . S
C1453 C1451 1.415 . S
C1454 H1444 0.930 . S
C1454 C1452 1.419 . S
C1454 C1455 1.362 . S
C1455 H1445 0.930 . S
C1455 C1448 1.409 . S
C1455 C1454 1.362 . S
H1456 C1462 0.930 . S
H1457 C1465 0.930 1_556 S
H1458 C1466 0.930 . S
H1459 C1467 0.930 . S
H1460 C1470 0.930 . S
H1461 C1471 0.930 . S
C1462 H1456 0.930 . S
C1462 C1463 1.355 . S
C1462 C1464 1.415 . S
C1463 C1462 1.355 . S
C1463 C1465 1.419 . S
C1464 C1462 1.415 . S
C1464 C1469 1.425 . S
C1464 C1471 1.409 . S
C1465 H1457 0.930 1_554 S
C1465 C1463 1.419 . S
C1465 C1466 1.362 . S
C1466 H1458 0.930 . S
C1466 C1465 1.362 . S
C1466 C1469 1.409 . S
C1467 H1459 0.930 . S
C1467 C1468 1.355 . S
C1467 C1469 1.415 . S
C1468 C1467 1.355 . S
C1468 C1470 1.419 . S
C1469 C1464 1.425 . S
C1469 C1466 1.409 . S
C1469 C1467 1.415 . S
C1470 H1460 0.930 . S
C1470 C1468 1.419 . S
C1470 C1471 1.362 . S
C1471 H1461 0.930 . S
C1471 C1464 1.409 . S
C1471 C1470 1.362 . S
H1472 C1478 0.930 . S
H1473 C1481 0.930 . S
H1474 C1482 0.930 . S
H1475 C1483 0.930 . S
H1476 C1486 0.930 . S
H1477 C1487 0.930 . S
C1478 H1472 0.930 . S
C1478 C1479 1.355 . S
C1478 C1480 1.415 1_554 S
C1479 C1478 1.355 . S
C1479 C1481 1.419 . S
C1480 C1478 1.415 1_556 S
C1480 C1485 1.425 . S
C1480 C1487 1.409 . S
C1481 H1473 0.930 . S
C1481 C1479 1.419 . S
C1481 C1482 1.362 1_554 S
C1482 H1474 0.930 . S
C1482 C1481 1.362 1_556 S
C1482 C1485 1.409 . S
C1483 H1475 0.930 . S
C1483 C1484 1.355 . S
C1483 C1485 1.415 . S
C1484 C1483 1.355 . S
C1484 C1486 1.419 . S
C1485 C1480 1.425 . S
C1485 C1482 1.409 . S
C1485 C1483 1.415 . S
C1486 H1476 0.930 . S
C1486 C1484 1.419 . S
C1486 C1487 1.362 . S
C1487 H1477 0.930 . S
C1487 C1480 1.409 . S
C1487 C1486 1.362 . S
H1488 C1494 0.930 . S
H1489 C1497 0.930 . S
H1490 C1498 0.930 . S
H1491 C1499 0.930 . S
H1492 C1502 0.930 . S
H1493 C1503 0.930 . S
C1494 H1488 0.930 . S
C1494 C1495 1.355 . S
C1494 C1496 1.415 . S
C1495 C1494 1.355 . S
C1495 C1497 1.419 . S
C1496 C1494 1.415 . S
C1496 C1501 1.425 . S
C1496 C1503 1.409 . S
C1497 H1489 0.930 . S
C1497 C1495 1.419 . S
C1497 C1498 1.362 . S
C1498 H1490 0.930 . S
C1498 C1497 1.362 . S
C1498 C1501 1.409 . S
C1499 H1491 0.930 . S
C1499 C1500 1.355 . S
C1499 C1501 1.415 . S
C1500 C1499 1.355 . S
C1500 C1502 1.419 . S
C1501 C1496 1.425 . S
C1501 C1498 1.409 . S
C1501 C1499 1.415 . S
C1502 H1492 0.930 . S
C1502 C1500 1.419 . S
C1502 C1503 1.362 . S
C1503 H1493 0.930 . S
C1503 C1496 1.409 . S
C1503 C1502 1.362 . S
H1504 C1510 0.930 . S
H1505 C1513 0.930 . S
H1506 C1514 0.930 . S
H1507 C1515 0.930 . S
H1508 C1518 0.930 . S
H1509 C1519 0.930 . S
C1510 H1504 0.930 . S
C1510 C1511 1.355 . S
C1510 C1512 1.415 . S
C1511 C1510 1.355 . S
C1511 C1513 1.419 . S
C1512 C1510 1.415 . S
C1512 C1517 1.425 . S
C1512 C1519 1.409 . S
C1513 H1505 0.930 . S
C1513 C1511 1.419 . S
C1513 C1514 1.362 . S
C1514 H1506 0.930 . S
C1514 C1513 1.362 . S
C1514 C1517 1.409 . S
C1515 H1507 0.930 . S
C1515 C1516 1.355 . S
C1515 C1517 1.415 . S
C1516 C1515 1.355 . S
C1516 C1518 1.419 . S
C1517 C1512 1.425 . S
C1517 C1514 1.409 . S
C1517 C1515 1.415 . S
C1518 H1508 0.930 . S
C1518 C1516 1.419 . S
C1518 C1519 1.362 . S
C1519 H1509 0.930 . S
C1519 C1512 1.409 . S
C1519 C1518 1.362 . S
H1520 C1526 0.930 . S
H1521 C1529 0.930 . S
H1522 C1530 0.930 . S
H1523 C1531 0.930 . S
H1524 C1534 0.930 . S
H1525 C1535 0.930 . S
C1526 H1520 0.930 . S
C1526 C1527 1.355 . S
C1526 C1528 1.415 . S
C1527 C1526 1.355 . S
C1527 C1529 1.419 . S
C1528 C1526 1.415 . S
C1528 C1533 1.425 . S
C1528 C1535 1.409 . S
C1529 H1521 0.930 . S
C1529 C1527 1.419 . S
C1529 C1530 1.362 . S
C1530 H1522 0.930 . S
C1530 C1529 1.362 . S
C1530 C1533 1.409 . S
C1531 H1523 0.930 . S
C1531 C1532 1.355 . S
C1531 C1533 1.415 . S
C1532 C1531 1.355 . S
C1532 C1534 1.419 . S
C1533 C1528 1.425 . S
C1533 C1530 1.409 . S
C1533 C1531 1.415 . S
C1534 H1524 0.930 . S
C1534 C1532 1.419 . S
C1534 C1535 1.362 . S
C1535 H1525 0.930 . S
C1535 C1528 1.409 . S
C1535 C1534 1.362 . S
H1536 C1542 0.930 . S
H1537 C1545 0.930 . S
H1538 C1546 0.930 . S
H1539 C1547 0.930 . S
H1540 C1550 0.930 . S
H1541 C1551 0.930 . S
C1542 H1536 0.930 . S
C1542 C1543 1.355 . S
C1542 C1544 1.415 1_556 S
C1543 C1542 1.355 . S
C1543 C1545 1.419 . S
C1544 C1542 1.415 1_554 S
C1544 C1549 1.425 . S
C1544 C1551 1.409 . S
C1545 H1537 0.930 . S
C1545 C1543 1.419 . S
C1545 C1546 1.362 1_556 S
C1546 H1538 0.930 . S
C1546 C1545 1.362 1_554 S
C1546 C1549 1.409 . S
C1547 H1539 0.930 . S
C1547 C1548 1.355 . S
C1547 C1549 1.415 . S
C1548 C1547 1.355 . S
C1548 C1550 1.419 . S
C1549 C1544 1.425 . S
C1549 C1546 1.409 . S
C1549 C1547 1.415 . S
C1550 H1540 0.930 . S
C1550 C1548 1.419 . S
C1550 C1551 1.362 . S
C1551 H1541 0.930 . S
C1551 C1544 1.409 . S
C1551 C1550 1.362 . S
H1552 C1558 0.930 . S
H1553 C1561 0.930 1_554 S
H1554 C1562 0.930 . S
H1555 C1563 0.930 . S
H1556 C1566 0.930 . S
H1557 C1567 0.930 . S
C1558 H1552 0.930 . S
C1558 C1559 1.355 . S
C1558 C1560 1.415 . S
C1559 C1558 1.355 . S
C1559 C1561 1.419 . S
C1560 C1558 1.415 . S
C1560 C1565 1.425 . S
C1560 C1567 1.409 . S
C1561 H1553 0.930 1_556 S
C1561 C1559 1.419 . S
C1561 C1562 1.362 . S
C1562 H1554 0.930 . S
C1562 C1561 1.362 . S
C1562 C1565 1.409 . S
C1563 H1555 0.930 . S
C1563 C1564 1.355 . S
C1563 C1565 1.415 . S
C1564 C1563 1.355 . S
C1564 C1566 1.419 . S
C1565 C1560 1.425 . S
C1565 C1562 1.409 . S
C1565 C1563 1.415 . S
C1566 H1556 0.930 . S
C1566 C1564 1.419 . S
C1566 C1567 1.362 . S
C1567 H1557 0.930 . S
C1567 C1560 1.409 . S
C1567 C1566 1.362 . S
H1568 C1574 0.930 . S
H1569 C1577 0.930 . S
H1570 C1578 0.930 . S
H1571 C1579 0.930 . S
H1572 C1582 0.930 . S
H1573 C1583 0.930 . S
C1574 H1568 0.930 . S
C1574 C1575 1.355 . S
C1574 C1576 1.415 . S
C1575 C1574 1.355 . S
C1575 C1577 1.419 . S
C1576 C1574 1.415 . S
C1576 C1581 1.425 . S
C1576 C1583 1.409 . S
C1577 H1569 0.930 . S
C1577 C1575 1.419 . S
C1577 C1578 1.362 . S
C1578 H1570 0.930 . S
C1578 C1577 1.362 . S
C1578 C1581 1.409 . S
C1579 H1571 0.930 . S
C1579 C1580 1.355 . S
C1579 C1581 1.415 1_556 S
C1580 C1579 1.355 . S
C1580 C1582 1.419 . S
C1581 C1576 1.425 . S
C1581 C1578 1.409 . S
C1581 C1579 1.415 1_554 S
C1582 H1572 0.930 . S
C1582 C1580 1.419 . S
C1582 C1583 1.362 1_556 S
C1583 H1573 0.930 . S
C1583 C1576 1.409 . S
C1583 C1582 1.362 1_554 S
H1584 C1590 0.930 . S
H1585 C1593 0.930 . S
H1586 C1594 0.930 . S
H1587 C1595 0.930 . S
H1588 C1598 0.930 . S
H1589 C1599 0.930 . S
C1590 H1584 0.930 . S
C1590 C1591 1.355 . S
C1590 C1592 1.415 . S
C1591 C1590 1.355 . S
C1591 C1593 1.419 . S
C1592 C1590 1.415 . S
C1592 C1597 1.425 . S
C1592 C1599 1.409 . S
C1593 H1585 0.930 . S
C1593 C1591 1.419 . S
C1593 C1594 1.362 . S
C1594 H1586 0.930 . S
C1594 C1593 1.362 . S
C1594 C1597 1.409 . S
C1595 H1587 0.930 . S
C1595 C1596 1.355 . S
C1595 C1597 1.415 . S
C1596 C1595 1.355 . S
C1596 C1598 1.419 . S
C1597 C1592 1.425 . S
C1597 C1594 1.409 . S
C1597 C1595 1.415 . S
C1598 H1588 0.930 . S
C1598 C1596 1.419 . S
C1598 C1599 1.362 . S
C1599 H1589 0.930 . S
C1599 C1592 1.409 . S
C1599 C1598 1.362 . S
H1600 C1606 0.930 . S
H1601 C1609 0.930 . S
H1602 C1610 0.930 . S
H1603 C1611 0.930 . S
H1604 C1614 0.930 . S
H1605 C1615 0.930 . S
C1606 H1600 0.930 . S
C1606 C1607 1.355 . S
C1606 C1608 1.415 . S
C1607 C1606 1.355 . S
C1607 C1609 1.419 . S
C1608 C1606 1.415 . S
C1608 C1613 1.425 . S
C1608 C1615 1.409 . S
C1609 H1601 0.930 . S
C1609 C1607 1.419 . S
C1609 C1610 1.362 . S
C1610 H1602 0.930 . S
C1610 C1609 1.362 . S
C1610 C1613 1.409 . S
C1611 H1603 0.930 . S
C1611 C1612 1.355 . S
C1611 C1613 1.415 . S
C1612 C1611 1.355 . S
C1612 C1614 1.419 . S
C1613 C1608 1.425 . S
C1613 C1610 1.409 . S
C1613 C1611 1.415 . S
C1614 H1604 0.930 . S
C1614 C1612 1.419 . S
C1614 C1615 1.362 . S
C1615 H1605 0.930 . S
C1615 C1608 1.409 . S
C1615 C1614 1.362 . S
H1616 C1622 0.930 . S
H1617 C1625 0.930 1_554 S
H1618 C1626 0.930 . S
H1619 C1627 0.930 . S
H1620 C1630 0.930 . S
H1621 C1631 0.930 . S
C1622 H1616 0.930 . S
C1622 C1623 1.355 . S
C1622 C1624 1.415 . S
C1623 C1622 1.355 . S
C1623 C1625 1.419 . S
C1624 C1622 1.415 . S
C1624 C1629 1.425 . S
C1624 C1631 1.409 . S
C1625 H1617 0.930 1_556 S
C1625 C1623 1.419 . S
C1625 C1626 1.362 . S
C1626 H1618 0.930 . S
C1626 C1625 1.362 . S
C1626 C1629 1.409 . S
C1627 H1619 0.930 . S
C1627 C1628 1.355 . S
C1627 C1629 1.415 . S
C1628 C1627 1.355 . S
C1628 C1630 1.419 . S
C1629 C1624 1.425 . S
C1629 C1626 1.409 . S
C1629 C1627 1.415 . S
C1630 H1620 0.930 . S
C1630 C1628 1.419 . S
C1630 C1631 1.362 . S
C1631 H1621 0.930 . S
C1631 C1624 1.409 . S
C1631 C1630 1.362 . S
H1632 C1638 0.930 . S
H1633 C1641 0.930 . S
H1634 C1642 0.930 . S
H1635 C1643 0.930 . S
H1636 C1646 0.930 . S
H1637 C1647 0.930 . S
C1638 H1632 0.930 . S
C1638 C1639 1.355 . S
C1638 C1640 1.415 . S
C1639 C1638 1.355 . S
C1639 C1641 1.419 . S
C1640 C1638 1.415 . S
C1640 C1645 1.425 . S
C1640 C1647 1.409 . S
C1641 H1633 0.930 . S
C1641 C1639 1.419 . S
C1641 C1642 1.362 . S
C1642 H1634 0.930 . S
C1642 C1641 1.362 . S
C1642 C1645 1.409 . S
C1643 H1635 0.930 . S
C1643 C1644 1.355 . S
C1643 C1645 1.415 1_554 S
C1644 C1643 1.355 . S
C1644 C1646 1.419 . S
C1645 C1640 1.425 . S
C1645 C1642 1.409 . S
C1645 C1643 1.415 1_556 S
C1646 H1636 0.930 . S
C1646 C1644 1.419 . S
C1646 C1647 1.362 1_554 S
C1647 H1637 0.930 . S
C1647 C1640 1.409 . S
C1647 C1646 1.362 1_556 S
H1648 C1654 0.930 . S
H1649 C1657 0.930 . S
H1650 C1658 0.930 . S
H1651 C1659 0.930 . S
H1652 C1662 0.930 . S
H1653 C1663 0.930 . S
C1654 H1648 0.930 . S
C1654 C1655 1.355 . S
C1654 C1656 1.415 . S
C1655 C1654 1.355 . S
C1655 C1657 1.419 . S
C1656 C1654 1.415 . S
C1656 C1661 1.425 . S
C1656 C1663 1.409 . S
C1657 H1649 0.930 . S
C1657 C1655 1.419 . S
C1657 C1658 1.362 . S
C1658 H1650 0.930 . S
C1658 C1657 1.362 . S
C1658 C1661 1.409 . S
C1659 H1651 0.930 . S
C1659 C1660 1.355 . S
C1659 C1661 1.415 . S
C1660 C1659 1.355 . S
C1660 C1662 1.419 . S
C1661 C1656 1.425 . S
C1661 C1658 1.409 . S
C1661 C1659 1.415 . S
C1662 H1652 0.930 . S
C1662 C1660 1.419 . S
C1662 C1663 1.362 . S
C1663 H1653 0.930 . S
C1663 C1656 1.409 . S
C1663 C1662 1.362 . S
H1664 C1670 0.930 . S
H1665 C1673 0.930 . S
H1666 C1674 0.930 . S
H1667 C1675 0.930 . S
H1668 C1678 0.930 . S
H1669 C1679 0.930 . S
C1670 H1664 0.930 . S
C1670 C1671 1.355 . S
C1670 C1672 1.415 . S
C1671 C1670 1.355 . S
C1671 C1673 1.419 . S
C1672 C1670 1.415 . S
C1672 C1677 1.425 . S
C1672 C1679 1.409 . S
C1673 H1665 0.930 . S
C1673 C1671 1.419 . S
C1673 C1674 1.362 . S
C1674 H1666 0.930 . S
C1674 C1673 1.362 . S
C1674 C1677 1.409 . S
C1675 H1667 0.930 . S
C1675 C1676 1.355 . S
C1675 C1677 1.415 . S
C1676 C1675 1.355 . S
C1676 C1678 1.419 . S
C1677 C1672 1.425 . S
C1677 C1674 1.409 . S
C1677 C1675 1.415 . S
C1678 H1668 0.930 . S
C1678 C1676 1.419 . S
C1678 C1679 1.362 . S
C1679 H1669 0.930 . S
C1679 C1672 1.409 . S
C1679 C1678 1.362 . S
H1680 C1686 0.930 . S
H1681 C1689 0.930 . S
H1682 C1690 0.930 . S
H1683 C1691 0.930 . S
H1684 C1694 0.930 . S
H1685 C1695 0.930 . S
C1686 H1680 0.930 . S
C1686 C1687 1.355 . S
C1686 C1688 1.415 . S
C1687 C1686 1.355 . S
C1687 C1689 1.419 . S
C1688 C1686 1.415 . S
C1688 C1693 1.425 . S
C1688 C1695 1.409 . S
C1689 H1681 0.930 . S
C1689 C1687 1.419 . S
C1689 C1690 1.362 . S
C1690 H1682 0.930 . S
C1690 C1689 1.362 . S
C1690 C1693 1.409 . S
C1691 H1683 0.930 . S
C1691 C1692 1.355 . S
C1691 C1693 1.415 . S
C1692 C1691 1.355 . S
C1692 C1694 1.419 . S
C1693 C1688 1.425 . S
C1693 C1690 1.409 . S
C1693 C1691 1.415 . S
C1694 H1684 0.930 . S
C1694 C1692 1.419 . S
C1694 C1695 1.362 . S
C1695 H1685 0.930 . S
C1695 C1688 1.409 . S
C1695 C1694 1.362 . S
H1696 C1702 0.930 . S
H1697 C1705 0.930 . S
H1698 C1706 0.930 . S
H1699 C1707 0.930 . S
H1700 C1710 0.930 . S
H1701 C1711 0.930 . S
C1702 H1696 0.930 . S
C1702 C1703 1.355 . S
C1702 C1704 1.415 . S
C1703 C1702 1.355 . S
C1703 C1705 1.419 . S
C1704 C1702 1.415 . S
C1704 C1709 1.425 . S
C1704 C1711 1.409 . S
C1705 H1697 0.930 . S
C1705 C1703 1.419 . S
C1705 C1706 1.362 . S
C1706 H1698 0.930 . S
C1706 C1705 1.362 . S
C1706 C1709 1.409 . S
C1707 H1699 0.930 . S
C1707 C1708 1.355 . S
C1707 C1709 1.415 1_554 S
C1708 C1707 1.355 . S
C1708 C1710 1.419 . S
C1709 C1704 1.425 . S
C1709 C1706 1.409 . S
C1709 C1707 1.415 1_556 S
C1710 H1700 0.930 . S
C1710 C1708 1.419 . S
C1710 C1711 1.362 1_554 S
C1711 H1701 0.930 . S
C1711 C1704 1.409 . S
C1711 C1710 1.362 1_556 S
H1712 C1718 0.930 . S
H1713 C1721 0.930 . S
H1714 C1722 0.930 . S
H1715 C1723 0.930 . S
H1716 C1726 0.930 . S
H1717 C1727 0.930 . S
C1718 H1712 0.930 . S
C1718 C1719 1.355 . S
C1718 C1720 1.415 . S
C1719 C1718 1.355 . S
C1719 C1721 1.419 . S
C1720 C1718 1.415 . S
C1720 C1725 1.425 . S
C1720 C1727 1.409 . S
C1721 H1713 0.930 . S
C1721 C1719 1.419 . S
C1721 C1722 1.362 . S
C1722 H1714 0.930 . S
C1722 C1721 1.362 . S
C1722 C1725 1.409 . S
C1723 H1715 0.930 . S
C1723 C1724 1.355 . S
C1723 C1725 1.415 . S
C1724 C1723 1.355 . S
C1724 C1726 1.419 . S
C1725 C1720 1.425 . S
C1725 C1722 1.409 . S
C1725 C1723 1.415 . S
C1726 H1716 0.930 . S
C1726 C1724 1.419 . S
C1726 C1727 1.362 . S
C1727 H1717 0.930 . S
C1727 C1720 1.409 . S
C1727 C1726 1.362 . S
H1728 C1734 0.930 . S
H1729 C1737 0.930 . S
H1730 C1738 0.930 . S
H1731 C1739 0.930 . S
H1732 C1742 0.930 . S
H1733 C1743 0.930 . S
C1734 H1728 0.930 . S
C1734 C1735 1.355 . S
C1734 C1736 1.415 . S
C1735 C1734 1.355 . S
C1735 C1737 1.419 . S
C1736 C1734 1.415 . S
C1736 C1741 1.425 . S
C1736 C1743 1.409 . S
C1737 H1729 0.930 . S
C1737 C1735 1.419 . S
C1737 C1738 1.362 . S
C1738 H1730 0.930 . S
C1738 C1737 1.362 . S
C1738 C1741 1.409 . S
C1739 H1731 0.930 . S
C1739 C1740 1.355 . S
C1739 C1741 1.415 . S
C1740 C1739 1.355 . S
C1740 C1742 1.419 . S
C1741 C1736 1.425 . S
C1741 C1738 1.409 . S
C1741 C1739 1.415 . S
C1742 H1732 0.930 . S
C1742 C1740 1.419 . S
C1742 C1743 1.362 . S
C1743 H1733 0.930 . S
C1743 C1736 1.409 . S
C1743 C1742 1.362 . S
H1744 C1750 0.930 . S
H1745 C1753 0.930 1_556 S
H1746 C1754 0.930 . S
H1747 C1755 0.930 . S
H1748 C1758 0.930 . S
H1749 C1759 0.930 . S
C1750 H1744 0.930 . S
C1750 C1751 1.355 . S
C1750 C1752 1.415 . S
C1751 C1750 1.355 . S
C1751 C1753 1.419 . S
C1752 C1750 1.415 . S
C1752 C1757 1.425 . S
C1752 C1759 1.409 . S
C1753 H1745 0.930 1_554 S
C1753 C1751 1.419 . S
C1753 C1754 1.362 . S
C1754 H1746 0.930 . S
C1754 C1753 1.362 . S
C1754 C1757 1.409 . S
C1755 H1747 0.930 . S
C1755 C1756 1.355 . S
C1755 C1757 1.415 . S
C1756 C1755 1.355 . S
C1756 C1758 1.419 . S
C1757 C1752 1.425 . S
C1757 C1754 1.409 . S
C1757 C1755 1.415 . S
C1758 H1748 0.930 . S
C1758 C1756 1.419 . S
C1758 C1759 1.362 . S
C1759 H1749 0.930 . S
C1759 C1752 1.409 . S
C1759 C1758 1.362 . S
H1760 C1766 0.930 . S
H1761 C1769 0.930 . S
H1762 C1770 0.930 . S
H1763 C1771 0.930 . S
H1764 C1774 0.930 . S
H1765 C1775 0.930 . S
C1766 H1760 0.930 . S
C1766 C1767 1.355 . S
C1766 C1768 1.415 . S
C1767 C1766 1.355 . S
C1767 C1769 1.419 . S
C1768 C1766 1.415 . S
C1768 C1773 1.425 . S
C1768 C1775 1.409 . S
C1769 H1761 0.930 . S
C1769 C1767 1.419 . S
C1769 C1770 1.362 . S
C1770 H1762 0.930 . S
C1770 C1769 1.362 . S
C1770 C1773 1.409 . S
C1771 H1763 0.930 . S
C1771 C1772 1.355 . S
C1771 C1773 1.415 1_556 S
C1772 C1771 1.355 . S
C1772 C1774 1.419 . S
C1773 C1768 1.425 . S
C1773 C1770 1.409 . S
C1773 C1771 1.415 1_554 S
C1774 H1764 0.930 . S
C1774 C1772 1.419 . S
C1774 C1775 1.362 1_556 S
C1775 H1765 0.930 . S
C1775 C1768 1.409 . S
C1775 C1774 1.362 1_554 S
H1776 C1782 0.930 . S
H1777 C1785 0.930 1_554 S
H1778 C1786 0.930 . S
H1779 C1787 0.930 . S
H1780 C1790 0.930 . S
H1781 C1791 0.930 . S
C1782 H1776 0.930 . S
C1782 C1783 1.355 . S
C1782 C1784 1.415 . S
C1783 C1782 1.355 . S
C1783 C1785 1.419 . S
C1784 C1782 1.415 . S
C1784 C1789 1.425 . S
C1784 C1791 1.409 . S
C1785 H1777 0.930 1_556 S
C1785 C1783 1.419 . S
C1785 C1786 1.362 . S
C1786 H1778 0.930 . S
C1786 C1785 1.362 . S
C1786 C1789 1.409 . S
C1787 H1779 0.930 . S
C1787 C1788 1.355 . S
C1787 C1789 1.415 . S
C1788 C1787 1.355 . S
C1788 C1790 1.419 . S
C1789 C1784 1.425 . S
C1789 C1786 1.409 . S
C1789 C1787 1.415 . S
C1790 H1780 0.930 . S
C1790 C1788 1.419 . S
C1790 C1791 1.362 . S
C1791 H1781 0.930 . S
C1791 C1784 1.409 . S
C1791 C1790 1.362 . S
H1792 C1798 0.930 . S
H1793 C1801 0.930 . S
H1794 C1802 0.930 . S
H1795 C1803 0.930 . S
H1796 C1806 0.930 . S
H1797 C1807 0.930 . S
C1798 H1792 0.930 . S
C1798 C1799 1.355 . S
C1798 C1800 1.415 . S
C1799 C1798 1.355 . S
C1799 C1801 1.419 . S
C1800 C1798 1.415 . S
C1800 C1805 1.425 . S
C1800 C1807 1.409 . S
C1801 H1793 0.930 . S
C1801 C1799 1.419 . S
C1801 C1802 1.362 . S
C1802 H1794 0.930 . S
C1802 C1801 1.362 . S
C1802 C1805 1.409 . S
C1803 H1795 0.930 . S
C1803 C1804 1.355 . S
C1803 C1805 1.415 . S
C1804 C1803 1.355 . S
C1804 C1806 1.419 . S
C1805 C1800 1.425 . S
C1805 C1802 1.409 . S
C1805 C1803 1.415 . S
C1806 H1796 0.930 . S
C1806 C1804 1.419 . S
C1806 C1807 1.362 . S
C1807 H1797 0.930 . S
C1807 C1800 1.409 . S
C1807 C1806 1.362 . S
H1808 C1814 0.930 . S
H1809 C1817 0.930 . S
H1810 C1818 0.930 . S
H1811 C1819 0.930 . S
H1812 C1822 0.930 . S
H1813 C1823 0.930 . S
C1814 H1808 0.930 . S
C1814 C1815 1.355 . S
C1814 C1816 1.415 . S
C1815 C1814 1.355 . S
C1815 C1817 1.419 . S
C1816 C1814 1.415 . S
C1816 C1821 1.425 . S
C1816 C1823 1.409 . S
C1817 H1809 0.930 . S
C1817 C1815 1.419 . S
C1817 C1818 1.362 . S
C1818 H1810 0.930 . S
C1818 C1817 1.362 . S
C1818 C1821 1.409 . S
C1819 H1811 0.930 . S
C1819 C1820 1.355 . S
C1819 C1821 1.415 . S
C1820 C1819 1.355 . S
C1820 C1822 1.419 . S
C1821 C1816 1.425 . S
C1821 C1818 1.409 . S
C1821 C1819 1.415 . S
C1822 H1812 0.930 . S
C1822 C1820 1.419 . S
C1822 C1823 1.362 . S
C1823 H1813 0.930 . S
C1823 C1816 1.409 . S
C1823 C1822 1.362 . S
H1824 C1830 0.930 . S
H1825 C1833 0.930 . S
H1826 C1834 0.930 . S
H1827 C1835 0.930 . S
H1828 C1838 0.930 . S
H1829 C1839 0.930 . S
C1830 H1824 0.930 . S
C1830 C1831 1.355 . S
C1830 C1832 1.415 . S
C1831 C1830 1.355 . S
C1831 C1833 1.419 . S
C1832 C1830 1.415 . S
C1832 C1837 1.425 . S
C1832 C1839 1.409 . S
C1833 H1825 0.930 . S
C1833 C1831 1.419 . S
C1833 C1834 1.362 . S
C1834 H1826 0.930 . S
C1834 C1833 1.362 . S
C1834 C1837 1.409 . S
C1835 H1827 0.930 . S
C1835 C1836 1.355 . S
C1835 C1837 1.415 . S
C1836 C1835 1.355 . S
C1836 C1838 1.419 . S
C1837 C1832 1.425 . S
C1837 C1834 1.409 . S
C1837 C1835 1.415 . S
C1838 H1828 0.930 . S
C1838 C1836 1.419 . S
C1838 C1839 1.362 . S
C1839 H1829 0.930 . S
C1839 C1832 1.409 . S
C1839 C1838 1.362 . S
H1840 C1846 0.930 . S
H1841 C1849 0.930 . S
H1842 C1850 0.930 . S
H1843 C1851 0.930 . S
H1844 C1854 0.930 . S
H1845 C1855 0.930 . S
C1846 H1840 0.930 . S
C1846 C1847 1.355 . S
C1846 C1848 1.415 . S
C1847 C1846 1.355 . S
C1847 C1849 1.419 . S
C1848 C1846 1.415 . S
C1848 C1853 1.425 1_545 S
C1848 C1855 1.409 . S
C1849 H1841 0.930 . S
C1849 C1847 1.419 . S
C1849 C1850 1.362 1_545 S
C1850 H1842 0.930 . S
C1850 C1849 1.362 1_565 S
C1850 C1853 1.409 . S
C1851 H1843 0.930 . S
C1851 C1852 1.355 . S
C1851 C1853 1.415 . S
C1852 C1851 1.355 . S
C1852 C1854 1.419 . S
C1853 C1848 1.425 1_565 S
C1853 C1850 1.409 . S
C1853 C1851 1.415 . S
C1854 H1844 0.930 . S
C1854 C1852 1.419 . S
C1854 C1855 1.362 1_565 S
C1855 H1845 0.930 . S
C1855 C1848 1.409 . S
C1855 C1854 1.362 1_545 S
H1856 C1862 0.930 . S
H1857 C1865 0.930 . S
H1858 C1866 0.930 . S
H1859 C1867 0.930 . S
H1860 C1870 0.930 . S
H1861 C1871 0.930 . S
C1862 H1856 0.930 . S
C1862 C1863 1.355 . S
C1862 C1864 1.415 . S
C1863 C1862 1.355 . S
C1863 C1865 1.419 . S
C1864 C1862 1.415 . S
C1864 C1869 1.425 . S
C1864 C1871 1.409 . S
C1865 H1857 0.930 . S
C1865 C1863 1.419 . S
C1865 C1866 1.362 . S
C1866 H1858 0.930 . S
C1866 C1865 1.362 . S
C1866 C1869 1.409 . S
C1867 H1859 0.930 . S
C1867 C1868 1.355 . S
C1867 C1869 1.415 . S
C1868 C1867 1.355 . S
C1868 C1870 1.419 . S
C1869 C1864 1.425 . S
C1869 C1866 1.409 . S
C1869 C1867 1.415 . S
C1870 H1860 0.930 . S
C1870 C1868 1.419 . S
C1870 C1871 1.362 . S
C1871 H1861 0.930 . S
C1871 C1864 1.409 . S
C1871 C1870 1.362 . S
H1872 C1878 0.930 1_556 S
H1873 C1881 0.930 . S
H1874 C1882 0.930 . S
H1875 C1883 0.930 1_554 S
H1876 C1886 0.930 . S
H1877 C1887 0.930 . S
C1878 H1872 0.930 1_554 S
C1878 C1879 1.355 . S
C1878 C1880 1.415 1_554 S
C1879 C1878 1.355 . S
C1879 C1881 1.419 . S
C1880 C1878 1.415 1_556 S
C1880 C1885 1.425 1_566 S
C1880 C1887 1.409 . S
C1881 H1873 0.930 . S
C1881 C1879 1.419 . S
C1881 C1882 1.362 1_565 S
C1882 H1874 0.930 . S
C1882 C1881 1.362 1_545 S
C1882 C1885 1.409 . S
C1883 H1875 0.930 1_556 S
C1883 C1884 1.355 . S
C1883 C1885 1.415 1_556 S
C1884 C1883 1.355 . S
C1884 C1886 1.419 . S
C1885 C1880 1.425 1_544 S
C1885 C1882 1.409 . S
C1885 C1883 1.415 1_554 S
C1886 H1876 0.930 . S
C1886 C1884 1.419 . S
C1886 C1887 1.362 1_545 S
C1887 H1877 0.930 . S
C1887 C1880 1.409 . S
C1887 C1886 1.362 1_565 S
H1888 C1894 0.930 . S
H1889 C1897 0.930 . S
H1890 C1898 0.930 . S
H1891 C1899 0.930 . S
H1892 C1902 0.930 . S
H1893 C1903 0.930 . S
C1894 H1888 0.930 . S
C1894 C1895 1.355 . S
C1894 C1896 1.415 . S
C1895 C1894 1.355 . S
C1895 C1897 1.419 . S
C1896 C1894 1.415 . S
C1896 C1901 1.425 . S
C1896 C1903 1.409 . S
C1897 H1889 0.930 . S
C1897 C1895 1.419 . S
C1897 C1898 1.362 . S
C1898 H1890 0.930 . S
C1898 C1897 1.362 . S
C1898 C1901 1.409 . S
C1899 H1891 0.930 . S
C1899 C1900 1.355 . S
C1899 C1901 1.415 . S
C1900 C1899 1.355 . S
C1900 C1902 1.419 . S
C1901 C1896 1.425 . S
C1901 C1898 1.409 . S
C1901 C1899 1.415 . S
C1902 H1892 0.930 . S
C1902 C1900 1.419 . S
C1902 C1903 1.362 . S
C1903 H1893 0.930 . S
C1903 C1896 1.409 . S
C1903 C1902 1.362 . S
H1904 C1910 0.930 . S
H1905 C1913 0.930 . S
H1906 C1914 0.930 . S
H1907 C1915 0.930 . S
H1908 C1918 0.930 . S
H1909 C1919 0.930 . S
C1910 H1904 0.930 . S
C1910 C1911 1.355 . S
C1910 C1912 1.415 . S
C1911 C1910 1.355 . S
C1911 C1913 1.419 . S
C1912 C1910 1.415 . S
C1912 C1917 1.425 1_545 S
C1912 C1919 1.409 . S
C1913 H1905 0.930 . S
C1913 C1911 1.419 . S
C1913 C1914 1.362 1_545 S
C1914 H1906 0.930 . S
C1914 C1913 1.362 1_565 S
C1914 C1917 1.409 . S
C1915 H1907 0.930 . S
C1915 C1916 1.355 . S
C1915 C1917 1.415 . S
C1916 C1915 1.355 . S
C1916 C1918 1.419 . S
C1917 C1912 1.425 1_565 S
C1917 C1914 1.409 . S
C1917 C1915 1.415 . S
C1918 H1908 0.930 . S
C1918 C1916 1.419 . S
C1918 C1919 1.362 1_565 S
C1919 H1909 0.930 . S
C1919 C1912 1.409 . S
C1919 C1918 1.362 1_545 S
H1920 C1926 0.930 . S
H1921 C1929 0.930 . S
H1922 C1930 0.930 . S
H1923 C1931 0.930 . S
H1924 C1934 0.930 . S
H1925 C1935 0.930 . S
C1926 H1920 0.930 . S
C1926 C1927 1.355 . S
C1926 C1928 1.415 . S
C1927 C1926 1.355 . S
C1927 C1929 1.419 . S
C1928 C1926 1.415 . S
C1928 C1933 1.425 . S
C1928 C1935 1.409 . S
C1929 H1921 0.930 . S
C1929 C1927 1.419 . S
C1929 C1930 1.362 . S
C1930 H1922 0.930 . S
C1930 C1929 1.362 . S
C1930 C1933 1.409 . S
C1931 H1923 0.930 . S
C1931 C1932 1.355 . S
C1931 C1933 1.415 . S
C1932 C1931 1.355 . S
C1932 C1934 1.419 . S
C1933 C1928 1.425 . S
C1933 C1930 1.409 . S
C1933 C1931 1.415 . S
C1934 H1924 0.930 . S
C1934 C1932 1.419 . S
C1934 C1935 1.362 . S
C1935 H1925 0.930 . S
C1935 C1928 1.409 . S
C1935 C1934 1.362 . S
H1936 C1942 0.930 . S
H1937 C1945 0.930 . S
H1938 C1946 0.930 1_565 S
H1939 C1947 0.930 . S
H1940 C1950 0.930 . S
H1941 C1951 0.930 1_545 S
C1942 H1936 0.930 . S
C1942 C1943 1.355 . S
C1942 C1944 1.415 1_556 S
C1943 C1942 1.355 . S
C1943 C1945 1.419 . S
C1944 C1942 1.415 1_554 S
C1944 C1949 1.425 1_544 S
C1944 C1951 1.409 1_545 S
C1945 H1937 0.930 . S
C1945 C1943 1.419 . S
C1945 C1946 1.362 . S
C1946 H1938 0.930 1_545 S
C1946 C1945 1.362 . S
C1946 C1949 1.409 1_545 S
C1947 H1939 0.930 . S
C1947 C1948 1.355 . S
C1947 C1949 1.415 1_554 S
C1948 C1947 1.355 . S
C1948 C1950 1.419 . S
C1949 C1944 1.425 1_566 S
C1949 C1946 1.409 1_565 S
C1949 C1947 1.415 1_556 S
C1950 H1940 0.930 . S
C1950 C1948 1.419 . S
C1950 C1951 1.362 . S
C1951 H1941 0.930 1_565 S
C1951 C1944 1.409 1_565 S
C1951 C1950 1.362 . S
H1952 C1958 0.930 . S
H1953 C1961 0.930 . S
H1954 C1962 0.930 . S
H1955 C1963 0.930 . S
H1956 C1966 0.930 . S
H1957 C1967 0.930 . S
C1958 H1952 0.930 . S
C1958 C1959 1.355 . S
C1958 C1960 1.415 . S
C1959 C1958 1.355 . S
C1959 C1961 1.419 . S
C1960 C1958 1.415 . S
C1960 C1965 1.425 . S
C1960 C1967 1.409 . S
C1961 H1953 0.930 . S
C1961 C1959 1.419 . S
C1961 C1962 1.362 . S
C1962 H1954 0.930 . S
C1962 C1961 1.362 . S
C1962 C1965 1.409 . S
C1963 H1955 0.930 . S
C1963 C1964 1.355 . S
C1963 C1965 1.415 . S
C1964 C1963 1.355 . S
C1964 C1966 1.419 . S
C1965 C1960 1.425 . S
C1965 C1962 1.409 . S
C1965 C1963 1.415 . S
C1966 H1956 0.930 . S
C1966 C1964 1.419 . S
C1966 C1967 1.362 . S
C1967 H1957 0.930 . S
C1967 C1960 1.409 . S
C1967 C1966 1.362 . S
H1968 C1974 0.930 . S
H1969 C1977 0.930 . S
H1970 C1978 0.930 . S
H1971 C1979 0.930 . S
H1972 C1982 0.930 . S
H1973 C1983 0.930 . S
C1974 H1968 0.930 . S
C1974 C1975 1.355 . S
C1974 C1976 1.415 . S
C1975 C1974 1.355 . S
C1975 C1977 1.419 1_556 S
C1976 C1974 1.415 . S
C1976 C1981 1.425 1_556 S
C1976 C1983 1.409 . S
C1977 H1969 0.930 . S
C1977 C1975 1.419 1_554 S
C1977 C1978 1.362 . S
C1978 H1970 0.930 . S
C1978 C1977 1.362 . S
C1978 C1981 1.409 . S
C1979 H1971 0.930 . S
C1979 C1980 1.355 . S
C1979 C1981 1.415 . S
C1980 C1979 1.355 . S
C1980 C1982 1.419 1_554 S
C1981 C1976 1.425 1_554 S
C1981 C1978 1.409 . S
C1981 C1979 1.415 . S
C1982 H1972 0.930 . S
C1982 C1980 1.419 1_556 S
C1982 C1983 1.362 . S
C1983 H1973 0.930 . S
C1983 C1976 1.409 . S
C1983 C1982 1.362 . S
H1984 C1990 0.930 . S
H1985 C1993 0.930 . S
H1986 C1994 0.930 . S
H1987 C1995 0.930 . S
H1988 C1998 0.930 . S
H1989 C1999 0.930 . S
C1990 H1984 0.930 . S
C1990 C1991 1.355 . S
C1990 C1992 1.415 . S
C1991 C1990 1.355 . S
C1991 C1993 1.419 . S
C1992 C1990 1.415 . S
C1992 C1997 1.425 . S
C1992 C1999 1.409 . S
C1993 H1985 0.930 . S
C1993 C1991 1.419 . S
C1993 C1994 1.362 . S
C1994 H1986 0.930 . S
C1994 C1993 1.362 . S
C1994 C1997 1.409 . S
C1995 H1987 0.930 . S
C1995 C1996 1.355 . S
C1995 C1997 1.415 . S
C1996 C1995 1.355 . S
C1996 C1998 1.419 . S
C1997 C1992 1.425 . S
C1997 C1994 1.409 . S
C1997 C1995 1.415 . S
C1998 H1988 0.930 . S
C1998 C1996 1.419 . S
C1998 C1999 1.362 . S
C1999 H1989 0.930 . S
C1999 C1992 1.409 . S
C1999 C1998 1.362 . S
H2000 C2006 0.930 . S
H2001 C2009 0.930 . S
H2002 C2010 0.930 . S
H2003 C2011 0.930 . S
H2004 C2014 0.930 . S
H2005 C2015 0.930 . S
C2006 H2000 0.930 . S
C2006 C2007 1.355 . S
C2006 C2008 1.415 . S
C2007 C2006 1.355 . S
C2007 C2009 1.419 . S
C2008 C2006 1.415 . S
C2008 C2013 1.425 . S
C2008 C2015 1.409 . S
C2009 H2001 0.930 . S
C2009 C2007 1.419 . S
C2009 C2010 1.362 . S
C2010 H2002 0.930 . S
C2010 C2009 1.362 . S
C2010 C2013 1.409 . S
C2011 H2003 0.930 . S
C2011 C2012 1.355 . S
C2011 C2013 1.415 . S
C2012 C2011 1.355 . S
C2012 C2014 1.419 . S
C2013 C2008 1.425 . S
C2013 C2010 1.409 . S
C2013 C2011 1.415 . S
C2014 H2004 0.930 . S
C2014 C2012 1.419 . S
C2014 C2015 1.362 . S
C2015 H2005 0.930 . S
C2015 C2008 1.409 . S
C2015 C2014 1.362 . S
H2016 C2022 0.930 . S
H2017 C2025 0.930 . S
H2018 C2026 0.930 . S
H2019 C2027 0.930 . S
H2020 C2030 0.930 . S
H2021 C2031 0.930 . S
C2022 H2016 0.930 . S
C2022 C2023 1.355 . S
C2022 C2024 1.415 . S
C2023 C2022 1.355 . S
C2023 C2025 1.419 . S
C2024 C2022 1.415 . S
C2024 C2029 1.425 . S
C2024 C2031 1.409 . S
C2025 H2017 0.930 . S
C2025 C2023 1.419 . S
C2025 C2026 1.362 . S
C2026 H2018 0.930 . S
C2026 C2025 1.362 . S
C2026 C2029 1.409 . S
C2027 H2019 0.930 . S
C2027 C2028 1.355 . S
C2027 C2029 1.415 . S
C2028 C2027 1.355 . S
C2028 C2030 1.419 . S
C2029 C2024 1.425 . S
C2029 C2026 1.409 . S
C2029 C2027 1.415 . S
C2030 H2020 0.930 . S
C2030 C2028 1.419 . S
C2030 C2031 1.362 . S
C2031 H2021 0.930 . S
C2031 C2024 1.409 . S
C2031 C2030 1.362 . S
H2032 C2038 0.930 . S
H2033 C2041 0.930 . S
H2034 C2042 0.930 . S
H2035 C2043 0.930 . S
H2036 C2046 0.930 . S
H2037 C2047 0.930 . S
C2038 H2032 0.930 . S
C2038 C2039 1.355 . S
C2038 C2040 1.415 1_556 S
C2039 C2038 1.355 . S
C2039 C2041 1.419 . S
C2040 C2038 1.415 1_554 S
C2040 C2045 1.425 1_554 S
C2040 C2047 1.409 . S
C2041 H2033 0.930 . S
C2041 C2039 1.419 . S
C2041 C2042 1.362 . S
C2042 H2034 0.930 . S
C2042 C2041 1.362 . S
C2042 C2045 1.409 . S
C2043 H2035 0.930 . S
C2043 C2044 1.355 . S
C2043 C2045 1.415 1_554 S
C2044 C2043 1.355 . S
C2044 C2046 1.419 . S
C2045 C2040 1.425 1_556 S
C2045 C2042 1.409 . S
C2045 C2043 1.415 1_556 S
C2046 H2036 0.930 . S
C2046 C2044 1.419 . S
C2046 C2047 1.362 . S
C2047 H2037 0.930 . S
C2047 C2040 1.409 . S
C2047 C2046 1.362 . S
H2048 C2054 0.930 . S
H2049 C2057 0.930 . S
H2050 C2058 0.930 . S
H2051 C2059 0.930 . S
H2052 C2062 0.930 . S
H2053 C2063 0.930 . S
C2054 H2048 0.930 . S
C2054 C2055 1.355 . S
C2054 C2056 1.415 . S
C2055 C2054 1.355 . S
C2055 C2057 1.419 . S
C2056 C2054 1.415 . S
C2056 C2061 1.425 . S
C2056 C2063 1.409 . S
C2057 H2049 0.930 . S
C2057 C2055 1.419 . S
C2057 C2058 1.362 . S
C2058 H2050 0.930 . S
C2058 C2057 1.362 . S
C2058 C2061 1.409 . S
C2059 H2051 0.930 . S
C2059 C2060 1.355 . S
C2059 C2061 1.415 . S
C2060 C2059 1.355 . S
C2060 C2062 1.419 . S
C2061 C2056 1.425 . S
C2061 C2058 1.409 . S
C2061 C2059 1.415 . S
C2062 H2052 0.930 . S
C2062 C2060 1.419 . S
C2062 C2063 1.362 . S
C2063 H2053 0.930 . S
C2063 C2056 1.409 . S
C2063 C2062 1.362 . S
H2064 C2070 0.930 . S
H2065 C2073 0.930 . S
H2066 C2074 0.930 . S
H2067 C2075 0.930 . S
H2068 C2078 0.930 . S
H2069 C2079 0.930 . S
C2070 H2064 0.930 . S
C2070 C2071 1.355 . S
C2070 C2072 1.415 . S
C2071 C2070 1.355 . S
C2071 C2073 1.419 . S
C2072 C2070 1.415 . S
C2072 C2077 1.425 . S
C2072 C2079 1.409 . S
C2073 H2065 0.930 . S
C2073 C2071 1.419 . S
C2073 C2074 1.362 . S
C2074 H2066 0.930 . S
C2074 C2073 1.362 . S
C2074 C2077 1.409 . S
C2075 H2067 0.930 . S
C2075 C2076 1.355 . S
C2075 C2077 1.415 . S
C2076 C2075 1.355 . S
C2076 C2078 1.419 . S
C2077 C2072 1.425 . S
C2077 C2074 1.409 . S
C2077 C2075 1.415 . S
C2078 H2068 0.930 . S
C2078 C2076 1.419 . S
C2078 C2079 1.362 . S
C2079 H2069 0.930 . S
C2079 C2072 1.409 . S
C2079 C2078 1.362 . S
H2080 C2086 0.930 . S
H2081 C2089 0.930 1_554 S
H2082 C2090 0.930 . S
H2083 C2091 0.930 . S
H2084 C2094 0.930 . S
H2085 C2095 0.930 . S
C2086 H2080 0.930 . S
C2086 C2087 1.355 . S
C2086 C2088 1.415 . S
C2087 C2086 1.355 . S
C2087 C2089 1.419 . S
C2088 C2086 1.415 . S
C2088 C2093 1.425 . S
C2088 C2095 1.409 . S
C2089 H2081 0.930 1_556 S
C2089 C2087 1.419 . S
C2089 C2090 1.362 . S
C2090 H2082 0.930 . S
C2090 C2089 1.362 . S
C2090 C2093 1.409 . S
C2091 H2083 0.930 . S
C2091 C2092 1.355 . S
C2091 C2093 1.415 . S
C2092 C2091 1.355 . S
C2092 C2094 1.419 . S
C2093 C2088 1.425 . S
C2093 C2090 1.409 . S
C2093 C2091 1.415 . S
C2094 H2084 0.930 . S
C2094 C2092 1.419 . S
C2094 C2095 1.362 . S
C2095 H2085 0.930 . S
C2095 C2088 1.409 . S
C2095 C2094 1.362 . S
H2096 C2102 0.930 . S
H2097 C2105 0.930 1_556 S
H2098 C2106 0.930 . S
H2099 C2107 0.930 . S
H2100 C2110 0.930 . S
H2101 C2111 0.930 . S
C2102 H2096 0.930 . S
C2102 C2103 1.355 . S
C2102 C2104 1.415 . S
C2103 C2102 1.355 . S
C2103 C2105 1.419 . S
C2104 C2102 1.415 . S
C2104 C2109 1.425 . S
C2104 C2111 1.409 . S
C2105 H2097 0.930 1_554 S
C2105 C2103 1.419 . S
C2105 C2106 1.362 . S
C2106 H2098 0.930 . S
C2106 C2105 1.362 . S
C2106 C2109 1.409 . S
C2107 H2099 0.930 . S
C2107 C2108 1.355 . S
C2107 C2109 1.415 . S
C2108 C2107 1.355 . S
C2108 C2110 1.419 . S
C2109 C2104 1.425 . S
C2109 C2106 1.409 . S
C2109 C2107 1.415 . S
C2110 H2100 0.930 . S
C2110 C2108 1.419 . S
C2110 C2111 1.362 . S
C2111 H2101 0.930 . S
C2111 C2104 1.409 . S
C2111 C2110 1.362 . S
H2112 C2118 0.930 . S
H2113 C2121 0.930 . S
H2114 C2122 0.930 . S
H2115 C2123 0.930 . S
H2116 C2126 0.930 . S
H2117 C2127 0.930 . S
C2118 H2112 0.930 . S
C2118 C2119 1.355 . S
C2118 C2120 1.415 . S
C2119 C2118 1.355 . S
C2119 C2121 1.419 . S
C2120 C2118 1.415 . S
C2120 C2125 1.425 . S
C2120 C2127 1.409 . S
C2121 H2113 0.930 . S
C2121 C2119 1.419 . S
C2121 C2122 1.362 . S
C2122 H2114 0.930 . S
C2122 C2121 1.362 . S
C2122 C2125 1.409 . S
C2123 H2115 0.930 . S
C2123 C2124 1.355 . S
C2123 C2125 1.415 . S
C2124 C2123 1.355 . S
C2124 C2126 1.419 . S
C2125 C2120 1.425 . S
C2125 C2122 1.409 . S
C2125 C2123 1.415 . S
C2126 H2116 0.930 . S
C2126 C2124 1.419 . S
C2126 C2127 1.362 . S
C2127 H2117 0.930 . S
C2127 C2120 1.409 . S
C2127 C2126 1.362 . S
H2128 C2134 0.930 . S
H2129 C2137 0.930 . S
H2130 C2138 0.930 . S
H2131 C2139 0.930 . S
H2132 C2142 0.930 . S
H2133 C2143 0.930 . S
C2134 H2128 0.930 . S
C2134 C2135 1.355 . S
C2134 C2136 1.415 . S
C2135 C2134 1.355 . S
C2135 C2137 1.419 . S
C2136 C2134 1.415 . S
C2136 C2141 1.425 . S
C2136 C2143 1.409 . S
C2137 H2129 0.930 . S
C2137 C2135 1.419 . S
C2137 C2138 1.362 . S
C2138 H2130 0.930 . S
C2138 C2137 1.362 . S
C2138 C2141 1.409 . S
C2139 H2131 0.930 . S
C2139 C2140 1.355 . S
C2139 C2141 1.415 . S
C2140 C2139 1.355 . S
C2140 C2142 1.419 . S
C2141 C2136 1.425 . S
C2141 C2138 1.409 . S
C2141 C2139 1.415 . S
C2142 H2132 0.930 . S
C2142 C2140 1.419 . S
C2142 C2143 1.362 . S
C2143 H2133 0.930 . S
C2143 C2136 1.409 . S
C2143 C2142 1.362 . S
H2144 C2150 0.930 1_556 S
H2145 C2153 0.930 . S
H2146 C2154 0.930 . S
H2147 C2155 0.930 . S
H2148 C2158 0.930 . S
H2149 C2159 0.930 . S
C2150 H2144 0.930 1_554 S
C2150 C2151 1.355 . S
C2150 C2152 1.415 . S
C2151 C2150 1.355 . S
C2151 C2153 1.419 . S
C2152 C2150 1.415 . S
C2152 C2157 1.425 . S
C2152 C2159 1.409 . S
C2153 H2145 0.930 . S
C2153 C2151 1.419 . S
C2153 C2154 1.362 . S
C2154 H2146 0.930 . S
C2154 C2153 1.362 . S
C2154 C2157 1.409 . S
C2155 H2147 0.930 . S
C2155 C2156 1.355 . S
C2155 C2157 1.415 . S
C2156 C2155 1.355 . S
C2156 C2158 1.419 . S
C2157 C2152 1.425 . S
C2157 C2154 1.409 . S
C2157 C2155 1.415 . S
C2158 H2148 0.930 . S
C2158 C2156 1.419 . S
C2158 C2159 1.362 . S
C2159 H2149 0.930 . S
C2159 C2152 1.409 . S
C2159 C2158 1.362 . S
H2160 C2166 0.930 1_554 S
H2161 C2169 0.930 . S
H2162 C2170 0.930 . S
H2163 C2171 0.930 . S
H2164 C2174 0.930 . S
H2165 C2175 0.930 . S
C2166 H2160 0.930 1_556 S
C2166 C2167 1.355 . S
C2166 C2168 1.415 . S
C2167 C2166 1.355 . S
C2167 C2169 1.419 . S
C2168 C2166 1.415 . S
C2168 C2173 1.425 . S
C2168 C2175 1.409 . S
C2169 H2161 0.930 . S
C2169 C2167 1.419 . S
C2169 C2170 1.362 . S
C2170 H2162 0.930 . S
C2170 C2169 1.362 . S
C2170 C2173 1.409 . S
C2171 H2163 0.930 . S
C2171 C2172 1.355 . S
C2171 C2173 1.415 . S
C2172 C2171 1.355 . S
C2172 C2174 1.419 . S
C2173 C2168 1.425 . S
C2173 C2170 1.409 . S
C2173 C2171 1.415 . S
C2174 H2164 0.930 . S
C2174 C2172 1.419 . S
C2174 C2175 1.362 . S
C2175 H2165 0.930 . S
C2175 C2168 1.409 . S
C2175 C2174 1.362 . S
H2176 C2182 0.930 . S
H2177 C2185 0.930 . S
H2178 C2186 0.930 . S
H2179 C2187 0.930 . S
H2180 C2190 0.930 . S
H2181 C2191 0.930 . S
C2182 H2176 0.930 . S
C2182 C2183 1.355 . S
C2182 C2184 1.415 . S
C2183 C2182 1.355 . S
C2183 C2185 1.419 . S
C2184 C2182 1.415 . S
C2184 C2189 1.425 . S
C2184 C2191 1.409 . S
C2185 H2177 0.930 . S
C2185 C2183 1.419 . S
C2185 C2186 1.362 . S
C2186 H2178 0.930 . S
C2186 C2185 1.362 . S
C2186 C2189 1.409 . S
C2187 H2179 0.930 . S
C2187 C2188 1.355 . S
C2187 C2189 1.415 . S
C2188 C2187 1.355 . S
C2188 C2190 1.419 . S
C2189 C2184 1.425 . S
C2189 C2186 1.409 . S
C2189 C2187 1.415 . S
C2190 H2180 0.930 . S
C2190 C2188 1.419 . S
C2190 C2191 1.362 . S
C2191 H2181 0.930 . S
C2191 C2184 1.409 . S
C2191 C2190 1.362 . S
H2192 C2198 0.930 . S
H2193 C2201 0.930 . S
H2194 C2202 0.930 . S
H2195 C2203 0.930 . S
H2196 C2206 0.930 . S
H2197 C2207 0.930 . S
C2198 H2192 0.930 . S
C2198 C2199 1.355 . S
C2198 C2200 1.415 . S
C2199 C2198 1.355 . S
C2199 C2201 1.419 . S
C2200 C2198 1.415 . S
C2200 C2205 1.425 . S
C2200 C2207 1.409 . S
C2201 H2193 0.930 . S
C2201 C2199 1.419 . S
C2201 C2202 1.362 . S
C2202 H2194 0.930 . S
C2202 C2201 1.362 . S
C2202 C2205 1.409 . S
C2203 H2195 0.930 . S
C2203 C2204 1.355 . S
C2203 C2205 1.415 . S
C2204 C2203 1.355 . S
C2204 C2206 1.419 . S
C2205 C2200 1.425 . S
C2205 C2202 1.409 . S
C2205 C2203 1.415 . S
C2206 H2196 0.930 . S
C2206 C2204 1.419 . S
C2206 C2207 1.362 . S
C2207 H2197 0.930 . S
C2207 C2200 1.409 . S
C2207 C2206 1.362 . S
H2208 C2214 0.930 . S
H2209 C2217 0.930 . S
H2210 C2218 0.930 . S
H2211 C2219 0.930 . S
H2212 C2222 0.930 . S
H2213 C2223 0.930 . S
C2214 H2208 0.930 . S
C2214 C2215 1.355 . S
C2214 C2216 1.415 . S
C2215 C2214 1.355 . S
C2215 C2217 1.419 . S
C2216 C2214 1.415 . S
C2216 C2221 1.425 . S
C2216 C2223 1.409 . S
C2217 H2209 0.930 . S
C2217 C2215 1.419 . S
C2217 C2218 1.362 . S
C2218 H2210 0.930 . S
C2218 C2217 1.362 . S
C2218 C2221 1.409 . S
C2219 H2211 0.930 . S
C2219 C2220 1.355 . S
C2219 C2221 1.415 . S
C2220 C2219 1.355 . S
C2220 C2222 1.419 . S
C2221 C2216 1.425 . S
C2221 C2218 1.409 . S
C2221 C2219 1.415 . S
C2222 H2212 0.930 . S
C2222 C2220 1.419 . S
C2222 C2223 1.362 . S
C2223 H2213 0.930 . S
C2223 C2216 1.409 . S
C2223 C2222 1.362 . S
H2224 C2230 0.930 . S
H2225 C2233 0.930 . S
H2226 C2234 0.930 . S
H2227 C2235 0.930 . S
H2228 C2238 0.930 . S
H2229 C2239 0.930 . S
C2230 H2224 0.930 . S
C2230 C2231 1.355 . S
C2230 C2232 1.415 . S
C2231 C2230 1.355 . S
C2231 C2233 1.419 . S
C2232 C2230 1.415 . S
C2232 C2237 1.425 . S
C2232 C2239 1.409 . S
C2233 H2225 0.930 . S
C2233 C2231 1.419 . S
C2233 C2234 1.362 . S
C2234 H2226 0.930 . S
C2234 C2233 1.362 . S
C2234 C2237 1.409 . S
C2235 H2227 0.930 . S
C2235 C2236 1.355 . S
C2235 C2237 1.415 . S
C2236 C2235 1.355 . S
C2236 C2238 1.419 . S
C2237 C2232 1.425 . S
C2237 C2234 1.409 . S
C2237 C2235 1.415 . S
C2238 H2228 0.930 . S
C2238 C2236 1.419 . S
C2238 C2239 1.362 . S
C2239 H2229 0.930 . S
C2239 C2232 1.409 . S
C2239 C2238 1.362 . S
H2240 C2246 0.930 . S
H2241 C2249 0.930 . S
H2242 C2250 0.930 . S
H2243 C2251 0.930 . S
H2244 C2254 0.930 1_554 S
H2245 C2255 0.930 . S
C2246 H2240 0.930 . S
C2246 C2247 1.355 . S
C2246 C2248 1.415 . S
C2247 C2246 1.355 . S
C2247 C2249 1.419 . S
C2248 C2246 1.415 . S
C2248 C2253 1.425 . S
C2248 C2255 1.409 . S
C2249 H2241 0.930 . S
C2249 C2247 1.419 . S
C2249 C2250 1.362 . S
C2250 H2242 0.930 . S
C2250 C2249 1.362 . S
C2250 C2253 1.409 . S
C2251 H2243 0.930 . S
C2251 C2252 1.355 . S
C2251 C2253 1.415 . S
C2252 C2251 1.355 . S
C2252 C2254 1.419 . S
C2253 C2248 1.425 . S
C2253 C2250 1.409 . S
C2253 C2251 1.415 . S
C2254 H2244 0.930 1_556 S
C2254 C2252 1.419 . S
C2254 C2255 1.362 . S
C2255 H2245 0.930 . S
C2255 C2248 1.409 . S
C2255 C2254 1.362 . S
H2256 C2262 0.930 . S
H2257 C2265 0.930 . S
H2258 C2266 0.930 . S
H2259 C2267 0.930 1_556 S
H2260 C2270 0.930 . S
H2261 C2271 0.930 . S
C2262 H2256 0.930 . S
C2262 C2263 1.355 . S
C2262 C2264 1.415 . S
C2263 C2262 1.355 . S
C2263 C2265 1.419 . S
C2264 C2262 1.415 . S
C2264 C2269 1.425 . S
C2264 C2271 1.409 . S
C2265 H2257 0.930 . S
C2265 C2263 1.419 . S
C2265 C2266 1.362 . S
C2266 H2258 0.930 . S
C2266 C2265 1.362 . S
C2266 C2269 1.409 . S
C2267 H2259 0.930 1_554 S
C2267 C2268 1.355 . S
C2267 C2269 1.415 . S
C2268 C2267 1.355 . S
C2268 C2270 1.419 . S
C2269 C2264 1.425 . S
C2269 C2266 1.409 . S
C2269 C2267 1.415 . S
C2270 H2260 0.930 . S
C2270 C2268 1.419 . S
C2270 C2271 1.362 . S
C2271 H2261 0.930 . S
C2271 C2264 1.409 . S
C2271 C2270 1.362 . S
H2272 C2278 0.930 . S
H2273 C2281 0.930 . S
H2274 C2282 0.930 . S
H2275 C2283 0.930 . S
H2276 C2286 0.930 . S
H2277 C2287 0.930 . S
C2278 H2272 0.930 . S
C2278 C2279 1.355 . S
C2278 C2280 1.415 . S
C2279 C2278 1.355 . S
C2279 C2281 1.419 . S
C2280 C2278 1.415 . S
C2280 C2285 1.425 . S
C2280 C2287 1.409 . S
C2281 H2273 0.930 . S
C2281 C2279 1.419 . S
C2281 C2282 1.362 . S
C2282 H2274 0.930 . S
C2282 C2281 1.362 . S
C2282 C2285 1.409 . S
C2283 H2275 0.930 . S
C2283 C2284 1.355 . S
C2283 C2285 1.415 . S
C2284 C2283 1.355 . S
C2284 C2286 1.419 . S
C2285 C2280 1.425 . S
C2285 C2282 1.409 . S
C2285 C2283 1.415 . S
C2286 H2276 0.930 . S
C2286 C2284 1.419 . S
C2286 C2287 1.362 . S
C2287 H2277 0.930 . S
C2287 C2280 1.409 . S
C2287 C2286 1.362 . S
H2288 C2294 0.930 . S
H2289 C2297 0.930 . S
H2290 C2298 0.930 . S
H2291 C2299 0.930 . S
H2292 C2302 0.930 . S
H2293 C2303 0.930 . S
C2294 H2288 0.930 . S
C2294 C2295 1.355 . S
C2294 C2296 1.415 . S
C2295 C2294 1.355 . S
C2295 C2297 1.419 . S
C2296 C2294 1.415 . S
C2296 C2301 1.425 . S
C2296 C2303 1.409 . S
C2297 H2289 0.930 . S
C2297 C2295 1.419 . S
C2297 C2298 1.362 . S
C2298 H2290 0.930 . S
C2298 C2297 1.362 . S
C2298 C2301 1.409 . S
C2299 H2291 0.930 . S
C2299 C2300 1.355 . S
C2299 C2301 1.415 . S
C2300 C2299 1.355 . S
C2300 C2302 1.419 . S
C2301 C2296 1.425 . S
C2301 C2298 1.409 . S
C2301 C2299 1.415 . S
C2302 H2292 0.930 . S
C2302 C2300 1.419 . S
C2302 C2303 1.362 . S
C2303 H2293 0.930 . S
C2303 C2296 1.409 . S
C2303 C2302 1.362 . S
H2304 C2310 0.930 . S
H2305 C2313 0.930 . S
H2306 C2314 0.930 . S
H2307 C2315 0.930 . S
H2308 C2318 0.930 1_556 S
H2309 C2319 0.930 . S
C2310 H2304 0.930 . S
C2310 C2311 1.355 . S
C2310 C2312 1.415 . S
C2311 C2310 1.355 . S
C2311 C2313 1.419 . S
C2312 C2310 1.415 . S
C2312 C2317 1.425 . S
C2312 C2319 1.409 . S
C2313 H2305 0.930 . S
C2313 C2311 1.419 . S
C2313 C2314 1.362 . S
C2314 H2306 0.930 . S
C2314 C2313 1.362 . S
C2314 C2317 1.409 . S
C2315 H2307 0.930 . S
C2315 C2316 1.355 . S
C2315 C2317 1.415 . S
C2316 C2315 1.355 . S
C2316 C2318 1.419 . S
C2317 C2312 1.425 . S
C2317 C2314 1.409 . S
C2317 C2315 1.415 . S
C2318 H2308 0.930 1_554 S
C2318 C2316 1.419 . S
C2318 C2319 1.362 . S
C2319 H2309 0.930 . S
C2319 C2312 1.409 . S
C2319 C2318 1.362 . S
H2320 C2326 0.930 . S
H2321 C2329 0.930 . S
H2322 C2330 0.930 1_554 S
H2323 C2331 0.930 . S
H2324 C2334 0.930 . S
H2325 C2335 0.930 . S
C2326 H2320 0.930 . S
C2326 C2327 1.355 . S
C2326 C2328 1.415 . S
C2327 C2326 1.355 . S
C2327 C2329 1.419 1_556 S
C2328 C2326 1.415 . S
C2328 C2333 1.425 . S
C2328 C2335 1.409 . S
C2329 H2321 0.930 . S
C2329 C2327 1.419 1_554 S
C2329 C2330 1.362 1_554 S
C2330 H2322 0.930 1_556 S
C2330 C2329 1.362 1_556 S
C2330 C2333 1.409 . S
C2331 H2323 0.930 . S
C2331 C2332 1.355 . S
C2331 C2333 1.415 . S
C2332 C2331 1.355 . S
C2332 C2334 1.419 . S
C2333 C2328 1.425 . S
C2333 C2330 1.409 . S
C2333 C2331 1.415 . S
C2334 H2324 0.930 . S
C2334 C2332 1.419 . S
C2334 C2335 1.362 . S
C2335 H2325 0.930 . S
C2335 C2328 1.409 . S
C2335 C2334 1.362 . S
C1063 C1011 1.524 . S
C1068 C21 1.529 . S
C1079 C54 1.539 . S
C1084 C516 1.513 . S
C1095 C87 1.524 . S
C1100 C945 1.529 . S
C1111 C120 1.531 . S
C1116 C450 1.522 . S
C1127 C879 1.532 . S
C1132 C153 1.521 . S
C1143 C384 1.513 . S
C1148 C186 1.540 . S
C1159 C219 1.540 . S
C1164 C813 1.513 . S
C1175 C318 1.538 . S
C1180 C252 1.515 . S
C1191 C747 1.534 . S
C1196 C285 1.519 . S
C1207 C681 1.533 . S
C1212 C351 1.520 . S
C1223 C417 1.516 . S
C1228 C615 1.537 . S
C1239 C549 1.514 . S
C1244 C483 1.539 . S
C1255 C1044 1.513 . S
C1260 C582 1.540 . S
C1271 C978 1.538 . S
C1276 C648 1.515 . S
C1287 C912 1.540 . S
C1292 C714 1.513 . S
C1303 C846 1.534 . S
C1308 C780 1.519 . S
C1319 N2 1.185 . S
C1324 N13 1.186 . S
C1335 N35 1.174 . S
C1340 N46 1.174 1_556 S
C1351 N68 1.178 . S
C1356 N79 1.179 . S
C1367 N101 1.176 . S
C1372 N112 1.178 . S
C1383 N134 1.194 . S
C1388 N145 1.194 . S
C1399 N167 1.192 . S
C1404 N178 1.191 . S
C1415 N211 1.184 . S
C1420 N200 1.185 . S
C1431 N233 1.193 . S
C1436 N244 1.192 1_554 S
C1447 N266 1.192 . S
C1452 N277 1.192 . S
C1463 N310 1.193 1_554 S
C1468 N299 1.193 . S
C1479 N332 1.194 . S
C1484 N343 1.194 . S
C1495 N365 1.189 . S
C1500 N376 1.190 . S
C1511 N398 1.183 . S
C1516 N409 1.184 . S
C1527 N442 1.191 . S
C1532 N431 1.190 . S
C1543 N464 1.190 . S
C1548 N475 1.189 . S
C1559 N508 1.189 1_556 S
C1564 N497 1.190 . S
C1575 N541 1.170 . S
C1580 N530 1.169 . S
C1591 N563 1.193 . S
C1596 N574 1.193 . S
C1607 N607 1.171 . S
C1612 N596 1.169 . S
C1623 N640 1.188 1_556 S
C1628 N629 1.189 . S
C1639 N673 1.192 . S
C1644 N662 1.193 . S
C1655 N706 1.174 1_554 S
C1660 N695 1.172 . S
C1671 N739 1.191 . S
C1676 N728 1.191 . S
C1687 N772 1.170 . S
C1692 N761 1.169 . S
C1703 N805 1.193 . S
C1708 N794 1.194 . S
C1719 N838 1.185 . S
C1724 N827 1.185 . S
C1735 N860 1.193 . S
C1740 N871 1.192 . S
C1751 N904 1.177 1_554 S
C1756 N893 1.177 . S
C1767 N937 1.193 . S
C1772 N926 1.194 . S
C1783 N970 1.189 1_556 S
C1788 N959 1.190 . S
C1799 N992 1.179 . S
C1804 N1003 1.178 . S
C1815 N1025 1.180 . S
C1820 N1036 1.179 . S
C1831 C205 1.437 . S
C1836 C7 1.396 . S
C1847 C238 1.456 . S
C1852 C40 1.463 . S
C1863 C73 1.451 . S
C1868 C139 1.465 . S
C1879 C172 1.461 . S
C1884 C106 1.458 . S
C1895 C271 1.393 . S
C1900 C469 1.425 . S
C1911 C304 1.459 . S
C1916 C502 1.460 . S
C1927 C337 1.396 . S
C1932 C403 1.410 . S
C1943 C436 1.439 . S
C1948 C370 1.468 . S
C1959 C733 1.464 . S
C1964 C535 1.422 . S
C1975 C568 1.405 . S
C1980 C766 1.399 . S
C1991 C667 1.421 . S
C1996 C601 1.393 . S
C2007 C700 1.408 . S
C2012 C634 1.397 . S
C2023 C799 1.467 . S
C2028 C997 1.435 . S
C2039 C1030 1.439 . S
C2044 C832 1.468 . S
C2055 C865 1.467 . S
C2060 C931 1.432 . S
C2071 C964 1.393 . S
C2076 C898 1.420 . S
C2087 C18 1.290 1_556 S
C2092 C249 1.288 . S
C2103 C150 1.289 1_554 S
C2108 C51 1.287 . S
C2119 C84 1.310 . S
C2124 C183 1.308 . S
C2135 C117 1.330 . S
C2140 C216 1.330 . S
C2151 C282 1.285 1_554 S
C2156 C513 1.284 . S
C2167 C414 1.279 1_556 S
C2172 C315 1.277 . S
C2183 C348 1.287 . S
C2188 C447 1.285 . S
C2199 C381 1.287 . S
C2204 C480 1.289 . S
C2215 C777 1.256 . S
C2220 C546 1.255 . S
C2231 C678 1.270 . S
C2236 C579 1.272 . S
C2247 C711 1.307 . S
C2252 C612 1.309 1_556 S
C2263 C645 1.253 . S
C2268 C744 1.253 1_554 S
C2279 C810 1.314 . S
C2284 C1041 1.313 . S
C2295 C843 1.298 . S
C2300 C942 1.300 . S
C2311 C975 1.311 . S
C2316 C876 1.310 1_554 S
C2327 C1008 1.329 1_556 S
C2332 C909 1.330 . S
