# Generated by pormake.
# Topology wna, (6)-cn, num edge types: 1
# Building blocks:
#     Node 0, Type 0, BuildingBlock: CUKXOW_clean_sbu_0, # of connection points: 6
#     Node 1, Type 0, BuildingBlock: CUKXOW_clean_sbu_0, # of connection points: 6
#     Node 2, Type 0, BuildingBlock: CUKXOW_clean_sbu_0, # of connection points: 6
#     Node 3, Type 0, BuildingBlock: CUKXOW_clean_sbu_0, # of connection points: 6
#     Node 4, Type 0, BuildingBlock: CUKXOW_clean_sbu_0, # of connection points: 6
#     Node 5, Type 0, BuildingBlock: CUKXOW_clean_sbu_0, # of connection points: 6
#     Node 6, Type 0, BuildingBlock: CUKXOW_clean_sbu_0, # of connection points: 6
#     Node 7, Type 0, BuildingBlock: CUKXOW_clean_sbu_0, # of connection points: 6
#     Node 8, Type 0, BuildingBlock: CUKXOW_clean_sbu_0, # of connection points: 6
#     Node 9, Type 0, BuildingBlock: CUKXOW_clean_sbu_0, # of connection points: 6
#     Node 10, Type 0, BuildingBlock: CUKXOW_clean_sbu_0, # of connection points: 6
#     Node 11, Type 0, BuildingBlock: CUKXOW_clean_sbu_0, # of connection points: 6
#     Node 12, Type 0, BuildingBlock: CUKXOW_clean_sbu_0, # of connection points: 6
#     Node 13, Type 0, BuildingBlock: CUKXOW_clean_sbu_0, # of connection points: 6
#     Node 14, Type 0, BuildingBlock: CUKXOW_clean_sbu_0, # of connection points: 6
#     Node 15, Type 0, BuildingBlock: CUKXOW_clean_sbu_0, # of connection points: 6
#     Node 16, Type 0, BuildingBlock: CUKXOW_clean_sbu_0, # of connection points: 6
#     Node 17, Type 0, BuildingBlock: CUKXOW_clean_sbu_0, # of connection points: 6
#     Node 18, Type 0, BuildingBlock: CUKXOW_clean_sbu_0, # of connection points: 6
#     Node 19, Type 0, BuildingBlock: CUKXOW_clean_sbu_0, # of connection points: 6
#     Node 20, Type 0, BuildingBlock: CUKXOW_clean_sbu_0, # of connection points: 6
#     Node 21, Type 0, BuildingBlock: CUKXOW_clean_sbu_0, # of connection points: 6
#     Node 22, Type 0, BuildingBlock: CUKXOW_clean_sbu_0, # of connection points: 6
#     Node 23, Type 0, BuildingBlock: CUKXOW_clean_sbu_0, # of connection points: 6
#     Node 24, Type 0, BuildingBlock: CUKXOW_clean_sbu_0, # of connection points: 6
#     Node 25, Type 0, BuildingBlock: CUKXOW_clean_sbu_0, # of connection points: 6
#     Node 26, Type 0, BuildingBlock: CUKXOW_clean_sbu_0, # of connection points: 6
#     Node 27, Type 0, BuildingBlock: CUKXOW_clean_sbu_0, # of connection points: 6
#     Node 28, Type 0, BuildingBlock: CUKXOW_clean_sbu_0, # of connection points: 6
#     Node 29, Type 0, BuildingBlock: CUKXOW_clean_sbu_0, # of connection points: 6
#     Node 30, Type 0, BuildingBlock: CUKXOW_clean_sbu_0, # of connection points: 6
#     Node 31, Type 0, BuildingBlock: CUKXOW_clean_sbu_0, # of connection points: 6
#     Node 32, Type 0, BuildingBlock: CUKXOW_clean_sbu_0, # of connection points: 6
#     Node 33, Type 0, BuildingBlock: CUKXOW_clean_sbu_0, # of connection points: 6
#     Node 34, Type 0, BuildingBlock: CUKXOW_clean_sbu_0, # of connection points: 6
#     Node 35, Type 0, BuildingBlock: CUKXOW_clean_sbu_0, # of connection points: 6
#     Edge 36, Type (0, 0), BuildingBlock: XUDNAN_clean_linker_2, # of connection points: 2
#     Edge 37, Type (0, 0), BuildingBlock: XUDNAN_clean_linker_2, # of connection points: 2
#     Edge 38, Type (0, 0), BuildingBlock: XUDNAN_clean_linker_2, # of connection points: 2
#     Edge 39, Type (0, 0), BuildingBlock: XUDNAN_clean_linker_2, # of connection points: 2
#     Edge 40, Type (0, 0), BuildingBlock: XUDNAN_clean_linker_2, # of connection points: 2
#     Edge 41, Type (0, 0), BuildingBlock: XUDNAN_clean_linker_2, # of connection points: 2
#     Edge 42, Type (0, 0), BuildingBlock: XUDNAN_clean_linker_2, # of connection points: 2
#     Edge 43, Type (0, 0), BuildingBlock: XUDNAN_clean_linker_2, # of connection points: 2
#     Edge 44, Type (0, 0), BuildingBlock: XUDNAN_clean_linker_2, # of connection points: 2
#     Edge 45, Type (0, 0), BuildingBlock: XUDNAN_clean_linker_2, # of connection points: 2
#     Edge 46, Type (0, 0), BuildingBlock: XUDNAN_clean_linker_2, # of connection points: 2
#     Edge 47, Type (0, 0), BuildingBlock: XUDNAN_clean_linker_2, # of connection points: 2
#     Edge 48, Type (0, 0), BuildingBlock: XUDNAN_clean_linker_2, # of connection points: 2
#     Edge 49, Type (0, 0), BuildingBlock: XUDNAN_clean_linker_2, # of connection points: 2
#     Edge 50, Type (0, 0), BuildingBlock: XUDNAN_clean_linker_2, # of connection points: 2
#     Edge 51, Type (0, 0), BuildingBlock: XUDNAN_clean_linker_2, # of connection points: 2
#     Edge 52, Type (0, 0), BuildingBlock: XUDNAN_clean_linker_2, # of connection points: 2
#     Edge 53, Type (0, 0), BuildingBlock: XUDNAN_clean_linker_2, # of connection points: 2
#     Edge 54, Type (0, 0), BuildingBlock: XUDNAN_clean_linker_2, # of connection points: 2
#     Edge 55, Type (0, 0), BuildingBlock: XUDNAN_clean_linker_2, # of connection points: 2
#     Edge 56, Type (0, 0), BuildingBlock: XUDNAN_clean_linker_2, # of connection points: 2
#     Edge 57, Type (0, 0), BuildingBlock: XUDNAN_clean_linker_2, # of connection points: 2
#     Edge 58, Type (0, 0), BuildingBlock: XUDNAN_clean_linker_2, # of connection points: 2
#     Edge 59, Type (0, 0), BuildingBlock: XUDNAN_clean_linker_2, # of connection points: 2
#     Edge 60, Type (0, 0), BuildingBlock: XUDNAN_clean_linker_2, # of connection points: 2
#     Edge 61, Type (0, 0), BuildingBlock: XUDNAN_clean_linker_2, # of connection points: 2
#     Edge 62, Type (0, 0), BuildingBlock: XUDNAN_clean_linker_2, # of connection points: 2
#     Edge 63, Type (0, 0), BuildingBlock: XUDNAN_clean_linker_2, # of connection points: 2
#     Edge 64, Type (0, 0), BuildingBlock: XUDNAN_clean_linker_2, # of connection points: 2
#     Edge 65, Type (0, 0), BuildingBlock: XUDNAN_clean_linker_2, # of connection points: 2
#     Edge 66, Type (0, 0), BuildingBlock: XUDNAN_clean_linker_2, # of connection points: 2
#     Edge 67, Type (0, 0), BuildingBlock: XUDNAN_clean_linker_2, # of connection points: 2
#     Edge 68, Type (0, 0), BuildingBlock: XUDNAN_clean_linker_2, # of connection points: 2
#     Edge 69, Type (0, 0), BuildingBlock: XUDNAN_clean_linker_2, # of connection points: 2
#     Edge 70, Type (0, 0), BuildingBlock: XUDNAN_clean_linker_2, # of connection points: 2
#     Edge 71, Type (0, 0), BuildingBlock: XUDNAN_clean_linker_2, # of connection points: 2
#     Edge 72, Type (0, 0), BuildingBlock: XUDNAN_clean_linker_2, # of connection points: 2
#     Edge 73, Type (0, 0), BuildingBlock: XUDNAN_clean_linker_2, # of connection points: 2
#     Edge 74, Type (0, 0), BuildingBlock: XUDNAN_clean_linker_2, # of connection points: 2
#     Edge 75, Type (0, 0), BuildingBlock: XUDNAN_clean_linker_2, # of connection points: 2
#     Edge 76, Type (0, 0), BuildingBlock: XUDNAN_clean_linker_2, # of connection points: 2
#     Edge 77, Type (0, 0), BuildingBlock: XUDNAN_clean_linker_2, # of connection points: 2
#     Edge 78, Type (0, 0), BuildingBlock: XUDNAN_clean_linker_2, # of connection points: 2
#     Edge 79, Type (0, 0), BuildingBlock: XUDNAN_clean_linker_2, # of connection points: 2
#     Edge 80, Type (0, 0), BuildingBlock: XUDNAN_clean_linker_2, # of connection points: 2
#     Edge 81, Type (0, 0), BuildingBlock: XUDNAN_clean_linker_2, # of connection points: 2
#     Edge 82, Type (0, 0), BuildingBlock: XUDNAN_clean_linker_2, # of connection points: 2
#     Edge 83, Type (0, 0), BuildingBlock: XUDNAN_clean_linker_2, # of connection points: 2
#     Edge 84, Type (0, 0), BuildingBlock: XUDNAN_clean_linker_2, # of connection points: 2
#     Edge 85, Type (0, 0), BuildingBlock: XUDNAN_clean_linker_2, # of connection points: 2
#     Edge 86, Type (0, 0), BuildingBlock: XUDNAN_clean_linker_2, # of connection points: 2
#     Edge 87, Type (0, 0), BuildingBlock: XUDNAN_clean_linker_2, # of connection points: 2
#     Edge 88, Type (0, 0), BuildingBlock: XUDNAN_clean_linker_2, # of connection points: 2
#     Edge 89, Type (0, 0), BuildingBlock: XUDNAN_clean_linker_2, # of connection points: 2
#     Edge 90, Type (0, 0), BuildingBlock: XUDNAN_clean_linker_2, # of connection points: 2
#     Edge 91, Type (0, 0), BuildingBlock: XUDNAN_clean_linker_2, # of connection points: 2
#     Edge 92, Type (0, 0), BuildingBlock: XUDNAN_clean_linker_2, # of connection points: 2
#     Edge 93, Type (0, 0), BuildingBlock: XUDNAN_clean_linker_2, # of connection points: 2
#     Edge 94, Type (0, 0), BuildingBlock: XUDNAN_clean_linker_2, # of connection points: 2
#     Edge 95, Type (0, 0), BuildingBlock: XUDNAN_clean_linker_2, # of connection points: 2
#     Edge 96, Type (0, 0), BuildingBlock: XUDNAN_clean_linker_2, # of connection points: 2
#     Edge 97, Type (0, 0), BuildingBlock: XUDNAN_clean_linker_2, # of connection points: 2
#     Edge 98, Type (0, 0), BuildingBlock: XUDNAN_clean_linker_2, # of connection points: 2
#     Edge 99, Type (0, 0), BuildingBlock: XUDNAN_clean_linker_2, # of connection points: 2
#     Edge 100, Type (0, 0), BuildingBlock: XUDNAN_clean_linker_2, # of connection points: 2
#     Edge 101, Type (0, 0), BuildingBlock: XUDNAN_clean_linker_2, # of connection points: 2
#     Edge 102, Type (0, 0), BuildingBlock: XUDNAN_clean_linker_2, # of connection points: 2
#     Edge 103, Type (0, 0), BuildingBlock: XUDNAN_clean_linker_2, # of connection points: 2
#     Edge 104, Type (0, 0), BuildingBlock: XUDNAN_clean_linker_2, # of connection points: 2
#     Edge 105, Type (0, 0), BuildingBlock: XUDNAN_clean_linker_2, # of connection points: 2
#     Edge 106, Type (0, 0), BuildingBlock: XUDNAN_clean_linker_2, # of connection points: 2
#     Edge 107, Type (0, 0), BuildingBlock: XUDNAN_clean_linker_2, # of connection points: 2
#     Edge 108, Type (0, 0), BuildingBlock: XUDNAN_clean_linker_2, # of connection points: 2
#     Edge 109, Type (0, 0), BuildingBlock: XUDNAN_clean_linker_2, # of connection points: 2
#     Edge 110, Type (0, 0), BuildingBlock: XUDNAN_clean_linker_2, # of connection points: 2
#     Edge 111, Type (0, 0), BuildingBlock: XUDNAN_clean_linker_2, # of connection points: 2
#     Edge 112, Type (0, 0), BuildingBlock: XUDNAN_clean_linker_2, # of connection points: 2
#     Edge 113, Type (0, 0), BuildingBlock: XUDNAN_clean_linker_2, # of connection points: 2
#     Edge 114, Type (0, 0), BuildingBlock: XUDNAN_clean_linker_2, # of connection points: 2
#     Edge 115, Type (0, 0), BuildingBlock: XUDNAN_clean_linker_2, # of connection points: 2
#     Edge 116, Type (0, 0), BuildingBlock: XUDNAN_clean_linker_2, # of connection points: 2
#     Edge 117, Type (0, 0), BuildingBlock: XUDNAN_clean_linker_2, # of connection points: 2
#     Edge 118, Type (0, 0), BuildingBlock: XUDNAN_clean_linker_2, # of connection points: 2
#     Edge 119, Type (0, 0), BuildingBlock: XUDNAN_clean_linker_2, # of connection points: 2
#     Edge 120, Type (0, 0), BuildingBlock: XUDNAN_clean_linker_2, # of connection points: 2
#     Edge 121, Type (0, 0), BuildingBlock: XUDNAN_clean_linker_2, # of connection points: 2
#     Edge 122, Type (0, 0), BuildingBlock: XUDNAN_clean_linker_2, # of connection points: 2
#     Edge 123, Type (0, 0), BuildingBlock: XUDNAN_clean_linker_2, # of connection points: 2
#     Edge 124, Type (0, 0), BuildingBlock: XUDNAN_clean_linker_2, # of connection points: 2
#     Edge 125, Type (0, 0), BuildingBlock: XUDNAN_clean_linker_2, # of connection points: 2
#     Edge 126, Type (0, 0), BuildingBlock: XUDNAN_clean_linker_2, # of connection points: 2
#     Edge 127, Type (0, 0), BuildingBlock: XUDNAN_clean_linker_2, # of connection points: 2
#     Edge 128, Type (0, 0), BuildingBlock: XUDNAN_clean_linker_2, # of connection points: 2
#     Edge 129, Type (0, 0), BuildingBlock: XUDNAN_clean_linker_2, # of connection points: 2
#     Edge 130, Type (0, 0), BuildingBlock: XUDNAN_clean_linker_2, # of connection points: 2
#     Edge 131, Type (0, 0), BuildingBlock: XUDNAN_clean_linker_2, # of connection points: 2
#     Edge 132, Type (0, 0), BuildingBlock: XUDNAN_clean_linker_2, # of connection points: 2
#     Edge 133, Type (0, 0), BuildingBlock: XUDNAN_clean_linker_2, # of connection points: 2
#     Edge 134, Type (0, 0), BuildingBlock: XUDNAN_clean_linker_2, # of connection points: 2
#     Edge 135, Type (0, 0), BuildingBlock: XUDNAN_clean_linker_2, # of connection points: 2
#     Edge 136, Type (0, 0), BuildingBlock: XUDNAN_clean_linker_2, # of connection points: 2
#     Edge 137, Type (0, 0), BuildingBlock: XUDNAN_clean_linker_2, # of connection points: 2
#     Edge 138, Type (0, 0), BuildingBlock: XUDNAN_clean_linker_2, # of connection points: 2
#     Edge 139, Type (0, 0), BuildingBlock: XUDNAN_clean_linker_2, # of connection points: 2
#     Edge 140, Type (0, 0), BuildingBlock: XUDNAN_clean_linker_2, # of connection points: 2
#     Edge 141, Type (0, 0), BuildingBlock: XUDNAN_clean_linker_2, # of connection points: 2
#     Edge 142, Type (0, 0), BuildingBlock: XUDNAN_clean_linker_2, # of connection points: 2
#     Edge 143, Type (0, 0), BuildingBlock: XUDNAN_clean_linker_2, # of connection points: 2
# Relax obj value: 0.209
# Max RMSD: 0.246
# Mean RMSD: 0.232
data_MOF--net-wna--node1-CUKXOW_clean_sbu_0--edge1-XUDNAN_clean_linker_2
_symmetry_space_group_name_H-M    P1
_symmetry_Int_Tables_number       1
_symmetry_cell_setting            triclinic
loop_
_symmetry_equiv_pos_as_xyz
'x, y, z'
_cell_length_a     44.220078
_cell_length_b     44.248472
_cell_length_c     73.982855
_cell_angle_alpha  90.015496
_cell_angle_beta   90.011695
_cell_angle_gamma 119.97193
loop_
_atom_site_label
_atom_site_type_symbol
_atom_site_fract_x
_atom_site_fract_y
_atom_site_fract_z
_atom_type_partial_charge
Tb0 Tb 0.12687 0.27725 0.19604 0.0
C1 C 0.12006 0.2022 0.19382 0.0
Tb2 Tb 0.05694 0.21504 0.18651 0.0
O3 O 0.1039 0.2835 0.22124 0.0
O4 O 0.08685 0.23433 0.21018 0.0
O5 O 0.14021 0.23584 0.1977 0.0
C6 C -0.00449 0.15754 0.18891 0.0
O7 O 0.08685 0.18838 0.18899 0.0
C8 C 0.08961 0.25424 0.15882 0.0
C9 C 0.06573 0.29025 0.18749 0.0
O10 O 0.01922 0.16305 0.17694 0.0
O11 O 0.0063 0.18439 0.1995 0.0
O12 O 0.0559 0.23498 0.1598 0.0
O13 O 0.10347 0.24793 0.17217 0.0
O14 O 0.04419 0.25647 0.19042 0.0
O15 O 0.10007 0.30418 0.18685 0.0
C16 C 0.19466 0.32423 0.19617 0.0
O17 O 0.17524 0.312 0.21043 0.0
O18 O 0.1758 0.31059 0.18185 0.0
C19 C 0.08153 0.25037 0.22264 0.0
Tb20 Tb 0.72347 0.85466 0.1969 0.0
C21 C 0.79961 0.91908 0.1928 0.0
Tb22 Tb 0.78257 0.84141 0.18673 0.0
O23 O 0.71517 0.82338 0.22152 0.0
O24 O 0.76472 0.85315 0.21057 0.0
O25 O 0.766 0.90809 0.19502 0.0
C26 C 0.8401 0.83666 0.18865 0.0
O27 O 0.81209 0.89777 0.18997 0.0
C28 C 0.7448 0.83965 0.15927 0.0
C29 C 0.70458 0.77969 0.18721 0.0
O30 O 0.83436 0.8549 0.17682 0.0
O31 O 0.81304 0.82033 0.19912 0.0
O32 O 0.76201 0.82293 0.15982 0.0
O33 O 0.7523 0.85923 0.17298 0.0
O34 O 0.73762 0.7886 0.19066 0.0
O35 O 0.69393 0.80274 0.18636 0.0
C36 C 0.68027 0.87944 0.20192 0.0
O37 O 0.70235 0.8801 0.21364 0.0
O38 O 0.68194 0.86409 0.18727 0.0
C39 C 0.7477 0.83174 0.2228 0.0
Tb40 Tb 0.14412 0.87209 0.19869 0.0
C41 C 0.08296 0.88913 0.19694 0.0
Tb42 Tb 0.16246 0.94619 0.19075 0.0
O43 O 0.17581 0.88915 0.22315 0.0
O44 O 0.15035 0.91545 0.21444 0.0
O45 O 0.0921 0.86503 0.19845 0.0
C46 C 0.17038 0.01001 0.19227 0.0
O47 O 0.10589 0.92258 0.19421 0.0
C48 C 0.16223 0.91127 0.16214 0.0
C49 C 0.22141 0.92568 0.1908 0.0
O50 O 0.15183 0.98616 0.18047 0.0
O51 O 0.18528 -0.00177 0.20311 0.0
O52 O 0.1815 0.94485 0.16383 0.0
O53 O 0.14164 0.89913 0.17548 0.0
O54 O 0.21426 0.95112 0.19404 0.0
O55 O 0.19686 0.89255 0.18922 0.0
C56 C 0.11513 0.80305 0.20137 0.0
O57 O 0.11553 0.8238 0.21384 0.0
O58 O 0.13174 0.82127 0.18724 0.0
C59 C 0.17136 0.91557 0.22603 0.0
Tb60 Tb 0.26692 0.12566 0.35367 0.0
C61 C 0.19078 0.11509 0.35656 0.0
Tb62 Tb 0.20781 0.05577 0.36573 0.0
O63 O 0.27096 0.10479 0.32771 0.0
O64 O 0.22276 0.08347 0.34092 0.0
O65 O 0.22465 0.13726 0.35532 0.0
C66 C 0.1555 0.99006 0.36757 0.0
O67 O 0.1779 0.08103 0.35839 0.0
C68 C 0.24057 0.1013 0.39233 0.0
C69 C 0.28515 0.06825 0.3642 0.0
O70 O 0.15992 0.01524 0.37815 0.0
O71 O 0.1811 0.0016 0.3561 0.0
O72 O 0.20893 0.07521 0.39332 0.0
O73 O 0.2527 0.09709 0.37789 0.0
O74 O 0.25117 0.0447 0.36364 0.0
O75 O 0.29688 0.10236 0.36351 0.0
C76 C 0.3116 0.19371 0.35242 0.0
O77 O 0.31038 0.1711 0.34082 0.0
O78 O 0.28826 0.17788 0.36483 0.0
C79 C 0.23859 0.08002 0.32753 0.0
Tb80 Tb 0.86806 0.14168 0.3485 0.0
C81 C 0.87953 0.08035 0.35966 0.0
Tb82 Tb 0.93809 0.15787 0.3627 0.0
O83 O 0.89055 0.1634 0.32212 0.0
O84 O 0.91143 0.13907 0.33793 0.0
O85 O 0.85726 0.09197 0.35974 0.0
C86 C 0.00443 0.17274 0.36484 0.0
O87 O 0.91346 0.10187 0.35769 0.0
C88 C 0.89182 0.14735 0.38817 0.0
C89 C 0.9234 0.22002 0.35301 0.0
O90 O 0.97979 0.15349 0.37608 0.0
O91 O 0.99202 0.18478 0.35269 0.0
O92 O 0.91816 0.14245 0.39034 0.0
O93 O 0.89548 0.16189 0.37311 0.0
O94 O 0.94724 0.21106 0.3573 0.0
O95 O 0.88992 0.19701 0.35079 0.0
C96 C 0.80058 0.1174 0.34267 0.0
O97 O 0.81947 0.10673 0.33453 0.0
O98 O 0.81967 0.14199 0.35401 0.0
C99 C 0.91575 0.15662 0.32375 0.0
Tb100 Tb 0.84956 0.72505 0.35141 0.0
C101 C 0.914 0.79934 0.35991 0.0
Tb102 Tb 0.8356 0.78164 0.36466 0.0
O103 O 0.82035 0.72125 0.32665 0.0
O104 O 0.84941 0.76884 0.33982 0.0
O105 O 0.9027 0.76624 0.35601 0.0
C106 C 0.82972 0.83857 0.36597 0.0
O107 O 0.89264 0.81165 0.36322 0.0
C108 C 0.82928 0.73772 0.38986 0.0
C109 C 0.77353 0.70432 0.35845 0.0
O110 O 0.84877 0.83185 0.37677 0.0
O111 O 0.8135 0.81297 0.35464 0.0
O112 O 0.81312 0.75545 0.39002 0.0
O113 O 0.85112 0.74809 0.37702 0.0
O114 O 0.78317 0.73809 0.35783 0.0
O115 O 0.79616 0.69315 0.35932 0.0
C116 C 0.87551 0.68433 0.34249 0.0
O117 O 0.87651 0.709 0.33268 0.0
O118 O 0.85917 0.68193 0.35753 0.0
C119 C 0.82895 0.75385 0.32686 0.0
Tb120 Tb 0.93917 0.77585 0.84947 0.0
C121 C 0.92816 0.70126 0.83767 0.0
Tb122 Tb 0.86772 0.7181 0.83704 0.0
O123 O 0.91983 0.77328 0.87701 0.0
O124 O 0.8985 0.72906 0.86073 0.0
O125 O 0.95079 0.73492 0.84081 0.0
C126 C 0.79974 0.6715 0.83711 0.0
O127 O 0.89387 0.68802 0.83711 0.0
C128 C 0.91136 0.75256 0.81086 0.0
C129 C 0.87747 0.79137 0.84917 0.0
O130 O 0.81504 0.69787 0.82619 0.0
O131 O 0.82293 0.67076 0.84756 0.0
O132 O 0.8862 0.7204 0.80925 0.0
O133 O 0.90844 0.76448 0.82585 0.0
O134 O 0.85587 0.75752 0.84698 0.0
O135 O 0.91182 0.80524 0.84901 0.0
C136 C 0.00384 0.83049 0.85037 0.0
O137 O 0.9915 0.80471 0.86178 0.0
O138 O 0.98022 0.8248 0.83847 0.0
C139 C 0.89518 0.74095 0.8756 0.0
Tb140 Tb 0.21469 0.15221 0.85158 0.0
C141 C 0.29423 0.21131 0.85096 0.0
Tb142 Tb 0.27087 0.13492 0.84186 0.0
O143 O 0.23513 0.17088 0.87867 0.0
O144 O 0.24396 0.13375 0.86596 0.0
O145 O 0.26144 0.204 0.84806 0.0
C146 C 0.30881 0.10472 0.83522 0.0
O147 O 0.30316 0.18691 0.85196 0.0
C148 C 0.25132 0.1615 0.81544 0.0
C149 C 0.19456 0.07309 0.84901 0.0
O150 O 0.31413 0.12591 0.8486 0.0
O151 O 0.28288 0.10142 0.82557 0.0
O152 O 0.28266 0.16686 0.81755 0.0
O153 O 0.23181 0.14018 0.82732 0.0
O154 O 0.22809 0.08317 0.84792 0.0
O155 O 0.18287 0.09544 0.84896 0.0
C156 C 0.15824 0.15916 0.8501 0.0
O157 O 0.16347 0.14023 0.86168 0.0
O158 O 0.18533 0.17509 0.83959 0.0
C159 C 0.25198 0.15385 0.87954 0.0
Tb160 Tb 0.83629 0.04781 0.84804 0.0
C161 C 0.7744 0.06306 0.84125 0.0
Tb162 Tb 0.85135 0.11898 0.83442 0.0
O163 O 0.8146 0.05266 0.8734 0.0
O164 O 0.85244 0.09743 0.86009 0.0
O165 O 0.78388 0.03881 0.84111 0.0
C166 C 0.87591 0.18708 0.82954 0.0
O167 O 0.79717 0.09687 0.84135 0.0
C168 C 0.83172 0.06959 0.8096 0.0
C169 C 0.91518 0.10727 0.842 0.0
O170 O 0.8789 0.16627 0.81827 0.0
O171 O 0.85835 0.16936 0.84357 0.0
O172 O 0.82514 0.09507 0.80858 0.0
O173 O 0.85057 0.07447 0.82324 0.0
O174 O 0.90443 0.12956 0.83804 0.0
O175 O 0.89334 0.0739 0.8458 0.0
C176 C 0.82974 0.98481 0.85095 0.0
O177 O 0.85027 0.01178 0.86069 0.0
O178 O 0.8125 0.99313 0.83971 0.0
C179 C 0.83078 0.08649 0.87303 0.0
Tb180 Tb 0.77654 0.94773 0.67003 0.0
C181 C 0.69697 0.92196 0.67231 0.0
Tb182 Tb 0.72705 0.8708 0.67647 0.0
O183 O 0.75514 0.94636 0.64331 0.0
O184 O 0.75419 0.90185 0.65369 0.0
O185 O 0.72875 0.94897 0.67526 0.0
C186 C 0.68086 0.80257 0.67664 0.0
O187 O 0.69108 0.88968 0.66977 0.0
C188 C 0.75832 0.9083 0.70564 0.0
C189 C 0.80552 0.89537 0.67522 0.0
O190 O 0.68055 0.82549 0.68747 0.0
O191 O 0.7065 0.81826 0.66535 0.0
O192 O 0.74904 0.87566 0.70385 0.0
O193 O 0.74747 0.91716 0.69215 0.0
O194 O 0.77431 0.86885 0.6715 0.0
O195 O 0.81095 0.92735 0.67771 0.0
C196 C 0.83085 0.01244 0.67251 0.0
O197 O 0.80366 -0.00075 0.68299 0.0
O198 O 0.82671 0.98963 0.66031 0.0
C199 C 0.74344 0.91323 0.64095 0.0
Tb200 Tb 0.04655 0.83046 0.67569 0.0
C201 C 0.06358 0.77007 0.67516 0.0
Tb202 Tb 0.12141 0.84751 0.68325 0.0
O203 O 0.0476 0.81501 0.64795 0.0
O204 O 0.09391 0.8521 0.66079 0.0
O205 O 0.03891 0.778 0.67906 0.0
C206 C 0.18819 0.86373 0.68322 0.0
O207 O 0.0972 0.79384 0.67384 0.0
C208 C 0.0823 0.84058 0.71162 0.0
C209 C 0.10766 0.90983 0.68126 0.0
O210 O 0.16478 0.84309 0.69475 0.0
O211 O 0.17347 0.87375 0.67135 0.0
O212 O 0.11575 0.86156 0.71118 0.0
O213 O 0.07318 0.82327 0.69727 0.0
O214 O 0.13141 0.90016 0.68167 0.0
O215 O 0.07379 0.88747 0.67922 0.0
C216 C 0.98608 0.82863 0.68214 0.0
O217 O 0.00996 0.83435 0.69398 0.0
O218 O -0.00432 0.82262 0.66655 0.0
C219 C 0.08153 0.8331 0.64683 0.0
Tb220 Tb 0.15279 0.20919 0.68064 0.0
C221 C 0.21502 0.2863 0.67844 0.0
Tb222 Tb 0.14081 0.26827 0.68925 0.0
O223 O 0.17105 0.22753 0.65337 0.0
O224 O 0.13461 0.23806 0.66567 0.0
O225 O 0.20617 0.25378 0.68296 0.0
C226 C 0.11813 0.31356 0.69154 0.0
O227 O 0.19184 0.29676 0.67718 0.0
C228 C 0.16878 0.25039 0.71558 0.0
C229 C 0.07561 0.19254 0.68917 0.0
O230 O 0.1278 0.30182 0.70505 0.0
O231 O 0.12151 0.30012 0.67665 0.0
O232 O 0.17642 0.28216 0.71213 0.0
O233 O 0.14508 0.22982 0.70489 0.0
O234 O 0.08762 0.22594 0.69263 0.0
O235 O 0.09616 0.18015 0.68422 0.0
C236 C 0.15672 0.1513 0.68213 0.0
O237 O 0.13787 0.15718 0.67082 0.0
O238 O 0.17399 0.17832 0.69249 0.0
C239 C 0.154 0.24425 0.65191 0.0
Tb240 Tb 0.79476 0.60353 0.53005 0.0
C241 C 0.78476 0.52835 0.52784 0.0
Tb242 Tb 0.72134 0.54298 0.52287 0.0
O243 O 0.78212 0.61251 0.55734 0.0
O244 O 0.75454 0.5629 0.54562 0.0
O245 O 0.80721 0.56222 0.5284 0.0
C246 C 0.66503 0.48087 0.51776 0.0
O247 O 0.75042 0.51528 0.52702 0.0
C248 C 0.75343 0.58305 0.4951 0.0
C249 C 0.73171 0.61713 0.52904 0.0
O250 O 0.69142 0.49639 0.50695 0.0
O251 O 0.6697 0.50078 0.53171 0.0
O252 O 0.72004 0.56798 0.49762 0.0
O253 O 0.76681 0.57373 0.50735 0.0
O254 O 0.70925 0.58319 0.53087 0.0
O255 O 0.76547 0.63019 0.52578 0.0
C256 C 0.86041 0.6516 0.52324 0.0
O257 O 0.83404 0.6436 0.51269 0.0
O258 O 0.84959 0.6333 0.53801 0.0
C259 C 0.75508 0.58136 0.55878 0.0
Tb260 Tb 0.39726 0.18384 0.5259 0.0
C261 C 0.47686 0.23709 0.52096 0.0
Tb262 Tb 0.44553 0.15482 0.51816 0.0
O263 O 0.38308 0.15864 0.55223 0.0
O264 O 0.43205 0.17364 0.54141 0.0
O265 O 0.44534 0.23326 0.52267 0.0
C266 C 0.49964 0.14394 0.51845 0.0
O267 O 0.48267 0.2105 0.51998 0.0
C268 C 0.4104 0.15731 0.4901 0.0
C269 C 0.36589 0.10352 0.52129 0.0
O270 O 0.47437 0.13131 0.53019 0.0
O271 O 0.49352 0.1613 0.50631 0.0
O272 O 0.42029 0.13431 0.49193 0.0
O273 O 0.42281 0.17886 0.50294 0.0
O274 O 0.39706 0.10726 0.5248 0.0
O275 O 0.36114 0.13035 0.51838 0.0
C276 C 0.35574 0.21085 0.52382 0.0
O277 O 0.35404 0.18649 0.51341 0.0
O278 O 0.38104 0.22031 0.53537 0.0
C279 C 0.4114 0.15708 0.55416 0.0
Tb280 Tb 0.80957 0.19494 0.5264 0.0
C281 C 0.74651 0.21055 0.5263 0.0
Tb282 Tb 0.82474 0.27194 0.52016 0.0
O283 O 0.82579 0.2014 0.55519 0.0
O284 O 0.8257 0.24081 0.54101 0.0
O285 O 0.7571 0.18732 0.5266 0.0
C286 C 0.83188 0.33471 0.52572 0.0
O287 O 0.76787 0.24459 0.52384 0.0
C288 C 0.81753 0.23578 0.49065 0.0
C289 C 0.88515 0.25429 0.51845 0.0
O290 O 0.80884 0.30603 0.53338 0.0
O291 O 0.8511 0.32817 0.51497 0.0
O292 O 0.83328 0.26968 0.49107 0.0
O293 O 0.80287 0.22438 0.50571 0.0
O294 O 0.87645 0.27745 0.52433 0.0
O295 O 0.86199 0.22093 0.51569 0.0
C296 C 0.78631 0.12737 0.52208 0.0
O297 O 0.77395 0.14091 0.53334 0.0
O298 O 0.8128 0.15205 0.51348 0.0
C299 C 0.83212 0.23337 0.55632 0.0
Tb300 Tb 0.93578 0.45351 0.68093 0.0
C301 C 0.8605 0.44481 0.6825 0.0
Tb302 Tb 0.87419 0.3822 0.69077 0.0
O303 O 0.94631 0.42973 0.6574 0.0
O304 O 0.89546 0.41028 0.66669 0.0
O305 O 0.89431 0.46613 0.68 0.0
C306 C 0.81558 0.32095 0.68841 0.0
O307 O 0.84686 0.41111 0.68614 0.0
C308 C 0.91029 0.41826 0.71875 0.0
C309 C 0.95173 0.3966 0.6932 0.0
O310 O 0.84328 0.3305 0.67859 0.0
O311 O 0.82127 0.34551 0.69984 0.0
O312 O 0.8918 0.38438 0.71847 0.0
O313 O 0.90473 0.43024 0.70434 0.0
O314 O 0.91863 0.37293 0.68966 0.0
O315 O 0.96337 0.43052 0.69337 0.0
C316 C 0.982 0.52093 0.67738 0.0
O317 O 0.96616 0.49953 0.66418 0.0
O318 O 0.97214 0.50437 0.69264 0.0
C319 C 0.91395 0.40578 0.65525 0.0
Tb320 Tb 0.53359 0.47707 0.68193 0.0
C321 C 0.54487 0.41223 0.68807 0.0
Tb322 Tb 0.60708 0.48985 0.69523 0.0
O323 O 0.55478 0.49935 0.65501 0.0
O324 O 0.57825 0.47838 0.67103 0.0
O325 O 0.52469 0.42418 0.6818 0.0
C326 C 0.66919 0.49423 0.69286 0.0
O327 O 0.57703 0.43271 0.69439 0.0
C328 C 0.56669 0.48377 0.72276 0.0
C329 C 0.59131 0.55196 0.69126 0.0
O330 O 0.63984 0.4683 0.68746 0.0
O331 O 0.66394 0.5184 0.69958 0.0
O332 O 0.5978 0.48783 0.72469 0.0
O333 O 0.56088 0.48288 0.7061 0.0
O334 O 0.61514 0.54216 0.68883 0.0
O335 O 0.55738 0.52937 0.69247 0.0
C336 C 0.46513 0.45217 0.68089 0.0
O337 O 0.48742 0.47423 0.66938 0.0
O338 O 0.48153 0.44493 0.69312 0.0
C339 C 0.58198 0.49561 0.65688 0.0
Tb340 Tb 0.51289 0.05448 0.68594 0.0
C341 C 0.57261 0.13176 0.68368 0.0
Tb342 Tb 0.49552 0.11172 0.69636 0.0
O343 O 0.51737 0.07039 0.65706 0.0
O344 O 0.48582 0.07773 0.67471 0.0
O345 O 0.56473 0.09884 0.68456 0.0
C346 C 0.48826 0.16803 0.69572 0.0
O347 O 0.54934 0.14199 0.6862 0.0
C348 C 0.50317 0.07935 0.7237 0.0
C349 C 0.43612 0.03286 0.69801 0.0
O350 O 0.4732 0.1418 0.68465 0.0
O351 O 0.50662 0.16209 0.70736 0.0
O352 O 0.48442 0.09451 0.72414 0.0
O353 O 0.51995 0.08642 0.70892 0.0
O354 O 0.44311 0.06571 0.69585 0.0
O355 O 0.46038 0.0235 0.69705 0.0
C356 C 0.53135 0.00558 0.68585 0.0
O357 O 0.50889 0.00656 0.67487 0.0
O358 O 0.54241 0.03146 0.69708 0.0
C359 C 0.49774 0.08433 0.65901 0.0
Tb360 Tb 0.608 0.11925 0.18267 0.0
C361 C 0.59699 0.04239 0.18171 0.0
Tb362 Tb 0.53587 0.05472 0.16967 0.0
O363 O 0.59826 0.1118 0.21214 0.0
O364 O 0.56233 0.07918 0.19347 0.0
O365 O 0.61943 0.0766 0.18187 0.0
C366 C 0.46827 0.00729 0.16862 0.0
O367 O 0.56302 0.02796 0.17845 0.0
C368 C 0.58405 0.08722 0.14475 0.0
C369 C 0.54314 0.129 0.17622 0.0
O370 O 0.48392 0.03387 0.15783 0.0
O371 O 0.49099 0.00677 0.17957 0.0
O372 O 0.55915 0.05483 0.14323 0.0
O373 O 0.5784 0.09998 0.15865 0.0
O374 O 0.52209 0.09468 0.17558 0.0
O375 O 0.57771 0.14423 0.17658 0.0
C376 C 0.67136 0.17499 0.18076 0.0
O377 O 0.64508 0.17321 0.18954 0.0
O378 O 0.66217 0.14507 0.1732 0.0
C379 C 0.56761 0.0842 0.21014 0.0
Tb380 Tb 0.87985 0.48738 0.18082 0.0
C381 C 0.9563 0.55466 0.181 0.0
Tb382 Tb 0.94175 0.48046 0.16917 0.0
O383 O 0.87807 0.46377 0.20741 0.0
O384 O 0.92431 0.4908 0.19373 0.0
O385 O 0.92189 0.54202 0.182 0.0
C386 C 0.98602 0.4566 0.1643 0.0
O387 O 0.97061 0.53494 0.17761 0.0
C388 C 0.91589 0.50211 0.14386 0.0
C389 C 0.86667 0.41398 0.17153 0.0
O390 O 0.96534 0.45761 0.15221 0.0
O391 O 0.98289 0.47057 0.17913 0.0
O392 O 0.94862 0.51105 0.14504 0.0
O393 O 0.89851 0.47951 0.15584 0.0
O394 O 0.90055 0.42639 0.17358 0.0
O395 O 0.85344 0.43479 0.17042 0.0
C396 C 0.82443 0.49645 0.18146 0.0
O397 O 0.82947 0.47601 0.19201 0.0
O398 O 0.85142 0.51307 0.171 0.0
C399 C 0.9107 0.4721 0.20741 0.0
Tb400 Tb 0.50137 0.38313 0.18567 0.0
C401 C 0.44365 0.40436 0.18666 0.0
Tb402 Tb 0.52131 0.46088 0.17887 0.0
O403 O 0.48511 0.38443 0.21337 0.0
O404 O 0.52251 0.4302 0.20082 0.0
O405 O 0.45027 0.37907 0.18214 0.0
C406 C 0.545 0.52833 0.18414 0.0
O407 O 0.46834 0.43737 0.18885 0.0
C408 C 0.50612 0.42475 0.14811 0.0
C409 C 0.58034 0.4414 0.17578 0.0
O410 O 0.51725 0.50766 0.17489 0.0
O411 O 0.5589 0.51086 0.19059 0.0
O412 O 0.51566 0.45767 0.14899 0.0
O413 O 0.50618 0.41528 0.16407 0.0
O414 O 0.57234 0.4665 0.17593 0.0
O415 O 0.55712 0.40781 0.17844 0.0
C416 C 0.49295 0.3195 0.18397 0.0
O417 O 0.51461 0.34435 0.19451 0.0
O418 O 0.47549 0.33025 0.17442 0.0
C419 C 0.50358 0.41815 0.21476 0.0
Tb420 Tb 0.44695 0.28095 1.00868 0.0
C421 C 0.36964 0.26315 0.01788 0.0
Tb422 Tb 0.39352 0.2077 0.02224 0.0
O423 O 0.44375 0.26323 0.98063 0.0
O424 O 0.4022 0.23684 0.9981 0.0
O425 O 0.40296 0.28829 1.01647 0.0
C426 C 0.34967 0.1394 0.02424 0.0
O427 O 0.35969 0.22944 0.01858 0.0
C428 C 0.42371 0.25478 0.04767 0.0
C429 C 0.46694 0.22218 1.00737 0.0
O430 O 0.37643 0.15687 0.03472 0.0
O431 O 0.34722 0.16053 1.01298 0.0
O432 O 0.3934 0.22685 0.0497 0.0
O433 O 0.43689 0.25252 0.03293 0.0
O434 O 0.43478 0.19877 1.01212 0.0
O435 O 0.47821 0.25595 1.00629 0.0
C436 C 0.5016 0.34513 1.00987 0.0
O437 O 0.49798 0.31855 0.01895 0.0
O438 O 0.47379 0.336 1.0001 0.0
C439 C 0.41362 0.23506 0.98278 0.0
Tb440 Tb 0.71277 0.16853 1.0027 0.0
C441 C 0.72847 0.1085 1.0125 0.0
Tb442 Tb 0.78475 0.18903 1.01467 0.0
O443 O 0.71814 0.1444 0.97849 0.0
O444 O 0.76201 0.18853 0.98926 0.0
O445 O 0.70342 0.11646 1.00982 0.0
C446 C 0.85121 0.20532 0.0186 0.0
O447 O 0.76199 0.1326 1.01386 0.0
C448 C 0.74247 0.18673 0.0407 0.0
C449 C 0.7709 0.24841 1.00558 0.0
O450 O 0.83446 0.21551 0.02895 0.0
O451 O 0.83021 0.18496 1.00615 0.0
O452 O 0.77583 0.20801 0.0405 0.0
O453 O 0.73503 0.16645 0.02751 0.0
O454 O 0.79419 0.23829 1.00414 0.0
O455 O 0.73718 0.22534 1.00723 0.0
C456 C 0.6504 0.16287 0.9972 0.0
O457 O 0.66111 0.15715 1.0125 0.0
O458 O 0.67452 0.17112 0.98516 0.0
C459 C 0.75163 0.16487 0.97729 0.0
Tb460 Tb 0.81843 0.55047 1.00933 0.0
C461 C 0.88163 0.62719 1.00616 0.0
Tb462 Tb 0.80895 0.61199 0.018 0.0
O463 O 0.83319 0.56656 0.98126 0.0
O464 O 0.80039 0.58 0.99499 0.0
O465 O 0.87216 0.59463 1.011 0.0
C466 C 0.78478 0.65487 0.02573 0.0
O467 O 0.85928 0.63878 1.005 0.0
C468 C 0.83715 0.59336 0.04402 0.0
C469 C 0.74233 0.53727 1.01587 0.0
O470 O 0.78381 0.63103 0.03624 0.0
O471 O 0.80018 0.65526 1.01066 0.0
O472 O 0.84485 0.62509 0.0406 0.0
O473 O 0.81285 0.57294 0.03357 0.0
O474 O 0.75486 0.57131 1.01541 0.0
O475 O 0.76272 0.52327 1.01554 0.0
C476 C 0.81977 0.49085 1.01004 0.0
O477 O 0.79914 0.49694 1.00021 0.0
O478 O 0.84028 0.51863 0.01935 0.0
C479 C 0.81753 0.58472 0.98056 0.0
Tb480 Tb 0.46023 0.93396 0.86267 0.0
C481 C 0.4556 0.86062 0.85819 0.0
Tb482 Tb 0.39151 0.87185 0.85068 0.0
O483 O 0.43697 0.93837 0.88802 0.0
O484 O 0.41854 0.88988 0.87552 0.0
O485 O 0.47585 0.89442 0.86134 0.0
C486 C 0.33493 0.81037 0.8445 0.0
O487 O 0.42186 0.84613 0.85458 0.0
C488 C 0.42765 0.9155 0.82487 0.0
C489 C 0.39631 0.94411 0.85469 0.0
O490 O 0.36252 0.82528 0.83442 0.0
O491 O 0.33889 0.83022 0.85836 0.0
O492 O 0.3939 0.8973 0.82512 0.0
O493 O 0.43976 0.90681 0.83806 0.0
O494 O 0.37543 0.90991 0.85648 0.0
O495 O 0.43087 0.95921 0.85456 0.0
C496 C 0.52739 0.98309 0.86254 0.0
O497 O 0.5124 0.95884 0.87469 0.0
O498 O 0.50412 0.98056 0.851 0.0
C499 C 0.41303 0.90555 0.88821 0.0
Tb500 Tb 0.06041 0.51559 0.85348 0.0
C501 C 0.13882 0.5719 0.84614 0.0
Tb502 Tb 0.11251 0.49069 0.84704 0.0
O503 O 0.08059 0.53243 0.88092 0.0
O504 O 0.08235 0.49076 0.86915 0.0
O505 O 0.1061 0.56529 0.8462 0.0
C506 C 0.16787 0.48228 0.85104 0.0
O507 O 0.1471 0.54705 0.84716 0.0
C508 C 0.08014 0.49371 0.818 0.0
C509 C 0.03437 0.43421 0.85128 0.0
O510 O 0.16023 0.50134 0.86126 0.0
O511 O 0.14388 0.46725 0.83877 0.0
O512 O 0.0928 0.47295 0.81971 0.0
O513 O 0.08979 0.51428 0.8313 0.0
O514 O 0.06698 0.44135 0.85402 0.0
O515 O 0.02567 0.45895 0.84984 0.0
C516 C 0.01292 0.53585 0.84979 0.0
O517 O 0.0194 0.51811 0.83801 0.0
O518 O 0.03213 0.54081 0.86394 0.0
C519 C 0.09219 0.51085 0.88259 0.0
Tb520 Tb 0.47411 0.52808 0.86672 0.0
C521 C 0.41267 0.54008 0.8545 0.0
Tb522 Tb 0.49031 0.60197 0.85322 0.0
O523 O 0.49548 0.55028 0.89342 0.0
O524 O 0.47275 0.57202 0.87733 0.0
O525 O 0.42435 0.51776 0.85549 0.0
C526 C 0.50107 0.66656 0.85397 0.0
O527 O 0.43348 0.57438 0.85598 0.0
C528 C 0.48926 0.56249 0.82602 0.0
C529 C 0.55149 0.58472 0.85891 0.0
O530 O 0.51676 0.65494 0.86437 0.0
O531 O 0.47985 0.64197 0.84313 0.0
O532 O 0.49612 0.59453 0.82402 0.0
O533 O 0.48342 0.55562 0.84254 0.0
O534 O 0.5427 0.60952 0.85837 0.0
O535 O 0.52845 0.5509 0.85971 0.0
C536 C 0.45 0.46024 0.87101 0.0
O537 O 0.43534 0.47718 0.8773 0.0
O538 O 0.47859 0.48164 0.86263 0.0
C539 C 0.48978 0.57619 0.89162 0.0
Tb540 Tb 0.5905 0.78723 0.01908 0.0
C541 C 0.51621 0.77357 0.03142 0.0
Tb542 Tb 0.53768 0.7154 0.03228 0.0
O543 O 0.59316 0.76597 0.99278 0.0
O544 O 0.54673 0.74283 1.0076 0.0
O545 O 0.54763 0.79671 0.02541 0.0
C546 C 0.48037 0.65436 0.03844 0.0
O547 O 0.50658 0.74058 0.0346 0.0
C548 C 0.5843 0.75395 0.05645 0.0
C549 C 0.61251 0.73037 0.02291 0.0
O550 O 0.4975 0.66321 0.02325 0.0
O551 O 0.49599 0.6795 0.04998 0.0
O552 O 0.56949 0.72022 0.05566 0.0
O553 O 0.57078 0.76451 0.04479 0.0
O554 O 0.57898 0.70604 0.02293 0.0
O555 O 0.62331 0.7642 0.02389 0.0
C556 C 0.63402 0.85555 1.0159 0.0
O557 O 0.60661 0.83728 1.00595 0.0
O558 O 0.63737 0.83521 0.02738 0.0
C559 C 0.56151 0.73986 0.9937 0.0
Tb560 Tb 0.19846 0.81284 1.01421 0.0
C561 C 0.20368 0.7456 0.02121 0.0
Tb562 Tb 0.26592 0.8227 0.02878 0.0
O563 O 0.22515 0.84002 0.98931 0.0
O564 O 0.24122 0.80946 1.0033 0.0
O565 O 0.18469 0.75868 1.0149 0.0
C566 C 0.32502 0.82257 0.03555 0.0
O567 O 0.23582 0.76546 0.0276 0.0
C568 C 0.22897 0.83367 0.05276 0.0
C569 C 0.25785 0.88793 0.02014 0.0
O570 O 0.29823 0.8108 0.04621 0.0
O571 O 0.31871 0.83471 0.0209 0.0
O572 O 0.26277 0.84969 0.05252 0.0
O573 O 0.217 0.81039 0.04057 0.0
O574 O 0.2801 0.8759 0.02034 0.0
O575 O 0.22367 0.8672 0.02105 0.0
C576 C 0.13145 0.79264 1.00871 0.0
O577 O 0.15403 0.79789 0.9962 0.0
O578 O 0.1467 0.79935 0.02435 0.0
C579 C 0.24796 0.82974 0.99005 0.0
Tb580 Tb 0.18225 0.39799 1.01378 0.0
C581 C 0.23618 0.47414 0.02692 0.0
Tb582 Tb 0.15424 0.44761 0.02655 0.0
O583 O 0.16969 0.40208 0.98547 0.0
O584 O 0.18001 0.44178 1.00373 0.0
O585 O 0.2315 0.4443 0.02025 0.0
C586 C 0.14176 0.50047 0.02679 0.0
O587 O 0.21059 0.48109 0.02972 0.0
C588 C 0.15182 0.40631 0.05297 0.0
C589 C 0.10171 0.36901 1.01717 0.0
O590 O 0.16044 0.49523 0.03851 0.0
O591 O 0.12895 0.47513 1.01505 0.0
O592 O 0.13937 0.42737 0.05437 0.0
O593 O 0.16372 0.40975 0.03722 0.0
O594 O 0.10676 0.40135 1.01725 0.0
O595 O 0.12738 0.36179 0.01888 0.0
C596 C 0.21242 0.35891 1.01338 0.0
O597 O 0.18786 0.35533 1.00246 0.0
O598 O 0.21975 0.3842 0.02455 0.0
C599 C 0.16912 0.43085 0.98801 0.0
Tb600 Tb 0.28254 0.44171 0.52113 0.0
C601 C 0.25631 0.36267 0.51634 0.0
Tb602 Tb 0.20592 0.39416 0.51234 0.0
O603 O 0.27878 0.41695 0.54703 0.0
O604 O 0.23524 0.41778 0.53619 0.0
O605 O 0.28409 0.39447 0.51601 0.0
C606 C 0.13765 0.34866 0.51258 0.0
O607 O 0.22362 0.3565 0.5165 0.0
C608 C 0.24597 0.42956 0.4848 0.0
C609 C 0.23128 0.47252 0.51845 0.0
O610 O 0.15902 0.35173 0.49974 0.0
O611 O 0.15488 0.37057 0.52538 0.0
O612 O 0.21316 0.4202 0.48604 0.0
O613 O 0.25361 0.4164 0.49781 0.0
O614 O 0.20368 0.4409 0.5182 0.0
O615 O 0.26364 0.47836 0.51763 0.0
C616 C 0.34776 0.49487 0.5193 0.0
O617 O 0.33305 0.47006 0.50743 0.0
O618 O 0.32617 0.48895 0.53247 0.0
C619 C 0.24543 0.40522 0.54864 0.0
Tb620 Tb 0.54543 0.81914 0.508 0.0
C621 C 0.62269 0.88014 0.50362 0.0
Tb622 Tb 0.60348 0.80253 0.50186 0.0
O623 O 0.56766 0.84367 0.53407 0.0
O624 O 0.57437 0.80314 0.52445 0.0
O625 O 0.58931 0.87055 0.5011 0.0
C626 C 0.64793 0.77957 0.50701 0.0
O627 O 0.63356 0.8578 0.50705 0.0
C628 C 0.58477 0.82281 0.47266 0.0
C629 C 0.52668 0.73985 0.50433 0.0
O630 O 0.62598 0.77061 0.49369 0.0
O631 O 0.6456 0.80231 0.5171 0.0
O632 O 0.61562 0.82668 0.47519 0.0
O633 O 0.56491 0.80463 0.4854 0.0
O634 O 0.56017 0.74992 0.50312 0.0
O635 O 0.51478 0.76199 0.50595 0.0
C636 C 0.48756 0.82361 0.50616 0.0
O637 O 0.49386 0.80599 0.5181 0.0
O638 O 0.51417 0.83934 0.49537 0.0
C639 C 0.58321 0.82578 0.53678 0.0
Tb640 Tb 0.16853 0.71564 0.51693 0.0
C641 C 0.10608 0.72673 0.50889 0.0
Tb642 Tb 0.18274 0.79046 0.50765 0.0
O643 O 0.14298 0.71678 0.54204 0.0
O644 O 0.18316 0.76285 0.53109 0.0
O645 O 0.11747 0.70413 0.50725 0.0
C646 C 0.19983 0.85606 0.51417 0.0
O647 O 0.12666 0.76047 0.51247 0.0
C648 C 0.17671 0.75478 0.47785 0.0
C649 C 0.24626 0.77768 0.50757 0.0
O650 O 0.17698 0.83607 0.50222 0.0
O651 O 0.21249 0.83896 0.52233 0.0
O652 O 0.18338 0.78699 0.47784 0.0
O653 O 0.17489 0.74583 0.4941 0.0
O654 O 0.23594 0.801 0.50645 0.0
O655 O 0.22463 0.74393 0.51067 0.0
C656 C 0.17425 0.65958 0.52292 0.0
O657 O 0.18625 0.68692 0.53315 0.0
O658 O 0.15782 0.66312 0.50916 0.0
C659 C 0.16067 0.75048 0.54356 0.0
Tb660 Tb 0.11134 0.60525 0.3368 0.0
C661 C 0.03817 0.59683 0.34584 0.0
Tb662 Tb 0.05151 0.53523 0.35353 0.0
O663 O 0.08735 0.59608 0.31028 0.0
O664 O 0.07502 0.55391 0.32743 0.0
O665 O 0.07251 0.61865 0.34564 0.0
C666 C 0.00354 0.46881 0.35846 0.0
O667 O 0.02359 0.56237 0.34682 0.0
C668 C 0.08645 0.58426 0.3784 0.0
C669 C 0.1247 0.54197 0.34249 0.0
O670 O 0.03329 0.48524 0.36674 0.0
O671 O 0.00018 0.49022 0.3477 0.0
O672 O 0.05961 0.55404 0.38219 0.0
O673 O 0.09081 0.58375 0.36175 0.0
O674 O 0.09207 0.52193 0.34815 0.0
O675 O 0.13759 0.57487 0.33733 0.0
C676 C 0.1715 0.66501 0.33443 0.0
O677 O 0.16652 0.6378 0.34343 0.0
O678 O 0.14251 0.6588 0.3268 0.0
C679 C 0.06614 0.56298 0.31296 0.0
Tb680 Tb 0.38378 0.50578 0.34224 0.0
C681 C 0.39848 0.4439 0.34734 0.0
Tb682 Tb 0.45479 0.51974 0.35531 0.0
O683 O 0.38799 0.48399 0.31661 0.0
O684 O 0.43297 0.5216 0.32986 0.0
O685 O 0.37464 0.4536 0.34924 0.0
C686 C 0.52244 0.54194 0.35902 0.0
O687 O 0.43224 0.46645 0.34679 0.0
C688 C 0.40625 0.50094 0.38052 0.0
C689 C 0.44475 0.58405 0.34715 0.0
O690 O 0.50213 0.51985 0.34693 0.0
O691 O 0.50447 0.55095 0.36928 0.0
O692 O 0.43151 0.49402 0.38135 0.0
O693 O 0.41102 0.51975 0.36691 0.0
O694 O 0.46681 0.57271 0.3504 0.0
O695 O 0.41082 0.5628 0.34433 0.0
C696 C 0.32021 0.49799 0.34045 0.0
O697 O 0.3299 0.48199 0.35173 0.0
O698 O 0.34624 0.51822 0.33006 0.0
C699 C 0.42186 0.50032 0.31677 0.0
Tb700 Tb 0.49124 0.88048 0.33606 0.0
C701 C 0.54885 0.96001 0.34076 0.0
Tb702 Tb 0.47177 0.93526 0.35125 0.0
O703 O 0.49655 0.89571 0.3072 0.0
O704 O 0.48191 0.91915 0.32652 0.0
O705 O 0.54228 0.92708 0.34084 0.0
C706 C 0.44371 0.97572 0.35563 0.0
O707 O 0.52399 0.9685 0.34125 0.0
C708 C 0.48939 0.90307 0.37558 0.0
C709 C 0.41146 0.85908 0.34162 0.0
O710 O 0.47023 0.97863 0.36465 0.0
O711 O 0.43358 0.95062 0.34401 0.0
O712 O 0.49221 0.93337 0.37811 0.0
O713 O 0.47405 0.89116 0.36074 0.0
O714 O 0.42021 0.89109 0.34677 0.0
O715 O 0.43439 0.84866 0.33831 0.0
C716 C 0.50262 0.8271 0.33555 0.0
O717 O 0.48152 0.83102 0.3249 0.0
O718 O 0.5183 0.8539 0.34628 0.0
C719 C 0.48811 0.91965 0.30991 0.0
H720 H 0.09521 0.13809 0.17821 0.0
H721 H 0.17832 0.21326 0.21264 0.0
H722 H 0.2014 0.17279 0.21575 0.0
H723 H 0.08016 0.06132 0.20137 0.0
H724 H 0.07242 0.03603 0.18104 0.0
H725 H 0.06283 0.07105 0.18156 0.0
H726 H 0.10293 0.09948 0.15379 0.0
H727 H 0.11265 0.06453 0.15318 0.0
H728 H 0.14764 0.10914 0.15461 0.0
H729 H 0.21305 0.1218 0.21647 0.0
H730 H 0.2146 0.06681 0.21281 0.0
H731 H 0.12606 0.02768 0.17642 0.0
C732 C 0.11828 0.14611 0.18642 0.0
C733 C 0.13484 0.17876 0.19528 0.0
C734 C 0.16521 0.18838 0.20571 0.0
C735 C 0.17846 0.16553 0.20759 0.0
C736 C 0.1613 0.1334 0.19876 0.0
C737 C 0.13209 0.12393 0.18821 0.0
C738 C 0.11865 0.08824 0.17989 0.0
C739 C 0.08131 0.06266 0.18636 0.0
C740 C 0.1206 0.0905 0.15914 0.0
C741 C 0.14465 0.07889 0.18751 0.0
C742 C 0.16892 0.10506 0.1985 0.0
C743 C 0.19447 0.10137 0.2077 0.0
C744 C 0.19519 0.07014 0.20555 0.0
C745 C 0.17081 0.04339 0.19413 0.0
C746 C 0.14542 0.04801 0.18499 0.0
H747 H 0.97872 0.09419 0.17518 0.0
H748 H 0.93809 0.14804 0.20725 0.0
H749 H 0.88223 0.0927 0.21098 0.0
H750 H 0.89859 0.03385 0.15248 0.0
H751 H 0.9071 -0.00191 0.15368 0.0
H752 H 0.94292 0.04229 0.1527 0.0
H753 H 0.96838 0.03225 0.1822 0.0
H754 H 0.93262 0.98806 0.18328 0.0
H755 H 0.94146 0.01708 0.20215 0.0
H756 H 0.83117 0.0319 0.21092 0.0
H757 H 0.78935 0.96869 0.20896 0.0
H758 H 0.86522 0.95437 0.17851 0.0
C759 C 0.95787 0.09431 0.18281 0.0
C760 C 0.9622 0.12512 0.19078 0.0
C761 C 0.93488 0.12448 0.201 0.0
C762 C 0.90319 0.0933 0.20314 0.0
C763 C 0.89973 0.0632 0.19517 0.0
C764 C 0.92642 0.06337 0.18537 0.0
C765 C 0.91673 0.02718 0.179 0.0
C766 C 0.9163 0.02525 0.15823 0.0
C767 C 0.94125 0.01546 0.18715 0.0
C768 C 0.88036 0.00662 0.18673 0.0
C769 C 0.87089 0.02791 0.19584 0.0
C770 C 0.83828 0.01491 0.20388 0.0
C771 C 0.81473 0.97906 0.20266 0.0
C772 C 0.82422 0.95676 0.19366 0.0
C773 C 0.85743 0.9708 0.18561 0.0
H774 H 0.04685 0.91884 0.18193 0.0
H775 H 0.03421 0.83239 0.21515 0.0
H776 H 0.97086 0.80976 0.2166 0.0
H777 H 0.97952 0.93079 0.20369 0.0
H778 H 0.96477 0.94005 0.1828 0.0
H779 H 0.0096 0.95077 0.18519 0.0
H780 H 0.00353 0.91417 0.15666 0.0
H781 H 0.95861 0.9031 0.15427 0.0
H782 H 0.96958 0.86903 0.15574 0.0
H783 H 0.90916 0.79621 0.2146 0.0
H784 H 0.85218 0.7921 0.20858 0.0
H785 H 0.90371 0.88499 0.17524 0.0
C786 C 0.03074 0.89543 0.18969 0.0
C787 C 0.04542 0.87743 0.19848 0.0
C788 C 0.02349 0.84654 0.20826 0.0
C789 C 0.98747 0.83349 0.20921 0.0
C790 C 0.97369 0.85143 0.20016 0.0
C791 C 0.99451 0.88167 0.19055 0.0
C792 C 0.97267 0.895 0.1815 0.0
C793 C 0.98221 0.9313 0.18873 0.0
C794 C 0.97632 0.89533 0.16081 0.0
C795 C 0.93644 0.86747 0.18752 0.0
C796 C 0.9377 0.84277 0.19841 0.0
C797 C 0.90774 0.81525 0.20601 0.0
C798 C 0.87556 0.81306 0.2025 0.0
C799 C 0.87367 0.83794 0.1913 0.0
C800 C 0.90445 0.86531 0.18363 0.0
H801 H 0.12572 0.08801 0.37161 0.0
H802 H 0.20255 0.17483 0.33973 0.0
H803 H 0.16418 0.20051 0.33926 0.0
H804 H 0.04881 0.08069 0.35064 0.0
H805 H 0.02473 0.07107 0.37152 0.0
H806 H 0.05785 0.05911 0.36877 0.0
H807 H 0.08882 0.09389 0.3977 0.0
H808 H 0.05598 0.10628 0.40043 0.0
H809 H 0.10143 0.13936 0.39926 0.0
H810 H 0.11621 0.21541 0.34115 0.0
H811 H 0.06283 0.21925 0.34634 0.0
H812 H 0.01999 0.12563 0.37913 0.0
C813 C 0.13425 0.11222 0.36438 0.0
C814 C 0.16689 0.12928 0.35556 0.0
C815 C 0.17754 0.16129 0.34654 0.0
C816 C 0.15596 0.1761 0.3462 0.0
C817 C 0.12409 0.15885 0.3552 0.0
C818 C 0.11334 0.12773 0.36421 0.0
C819 C 0.0783 0.115 0.37323 0.0
C820 C 0.0508 0.07937 0.36558 0.0
C821 C 0.08133 0.11357 0.39388 0.0
C822 C 0.07087 0.14361 0.36769 0.0
C823 C 0.09746 0.16854 0.35718 0.0
C824 C 0.09545 0.19635 0.34959 0.0
C825 C 0.06519 0.19842 0.35263 0.0
C826 C 0.03782 0.17318 0.36341 0.0
C827 C 0.04099 0.14579 0.37122 0.0
H828 H 0.88172 0.90282 0.37644 0.0
H829 H 0.77774 0.84865 0.35332 0.0
H830 H 0.77833 0.90471 0.35066 0.0
H831 H 0.87383 0.96988 0.40126 0.0
H832 H 0.91755 0.00376 0.39587 0.0
H833 H 0.90765 0.95911 0.39757 0.0
H834 H 0.93162 0.96267 0.36522 0.0
H835 H 0.94147 0.00726 0.3634 0.0
H836 H 0.91401 0.97566 0.34675 0.0
H837 H 0.79025 0.96607 0.35042 0.0
H838 H 0.81426 0.0297 0.35011 0.0
H839 H 0.91281 0.04511 0.37094 0.0
C840 C 0.85889 0.90282 0.37113 0.0
C841 C 0.82938 0.87158 0.36536 0.0
C842 C 0.80037 0.87243 0.35795 0.0
C843 C 0.80049 0.90406 0.35643 0.0
C844 C 0.83011 0.93454 0.36207 0.0
C845 C 0.85896 0.9343 0.36909 0.0
C846 C 0.88843 0.97104 0.37283 0.0
C847 C 0.89738 0.97624 0.39309 0.0
C848 C 0.92079 0.97965 0.36136 0.0
C849 C 0.87163 0.99196 0.3668 0.0
C850 C 0.83781 0.97029 0.36092 0.0
C851 C 0.81671 0.98333 0.35494 0.0
C852 C 0.83059 0.01951 0.35487 0.0
C853 C 0.86543 0.0423 0.36045 0.0
C854 C 0.88618 0.02829 0.36648 0.0
H855 H 0.95065 0.86406 0.37585 0.0
H856 H 0.96359 0.78822 0.34455 0.0
H857 H 0.02727 0.8274 0.34455 0.0
H858 H 0.01765 0.94006 0.35437 0.0
H859 H 0.03214 0.96561 0.37481 0.0
H860 H 0.98747 0.93118 0.3727 0.0
H861 H 0.9937 0.90283 0.40208 0.0
H862 H 0.03848 0.93711 0.40423 0.0
H863 H 0.02797 0.89216 0.4038 0.0
H864 H 0.08913 0.8763 0.34604 0.0
H865 H 0.14533 0.93131 0.35008 0.0
H866 H 0.09267 0.97344 0.382 0.0
C867 C 0.9669 0.85571 0.36903 0.0
C868 C 0.95214 0.82312 0.3602 0.0
C869 C 0.9743 0.81302 0.3515 0.0
C870 C 0.01054 0.83508 0.3514 0.0
C871 C 0.02429 0.86698 0.36025 0.0
C872 C 0.00324 0.87722 0.36902 0.0
C873 C 0.02474 0.91298 0.37742 0.0
C874 C 0.01491 0.93898 0.36933 0.0
C875 C 0.02099 0.91114 0.39811 0.0
C876 C 0.06101 0.92141 0.37171 0.0
C877 C 0.0602 0.89458 0.36177 0.0
C878 C 0.09025 0.8973 0.35405 0.0
C879 C 0.12196 0.9285 0.3564 0.0
C880 C 0.12322 0.95614 0.36657 0.0
C881 C 0.09248 0.95231 0.3745 0.0
H882 H 0.90998 0.85972 0.86052 0.0
H883 H 0.81102 0.77562 0.84072 0.0
H884 H 0.78708 0.81535 0.84045 0.0
H885 H 0.872 0.8993 0.88985 0.0
H886 H 0.9064 0.94311 0.88512 0.0
H887 H 0.9153 0.90757 0.88461 0.0
H888 H 0.93884 0.92438 0.85193 0.0
H889 H 0.92989 0.95984 0.8523 0.0
H890 H 0.91148 0.92729 0.83475 0.0
H891 H 0.77592 0.86557 0.83911 0.0
H892 H 0.77669 0.92192 0.83969 0.0
H893 H 0.88097 0.97222 0.86245 0.0
C894 C 0.88316 0.84956 0.85633 0.0
C895 C 0.86243 0.81457 0.85062 0.0
C896 C 0.82741 0.80228 0.84525 0.0
C897 C 0.81355 0.82466 0.84499 0.0
C898 C 0.83484 0.85913 0.85042 0.0
C899 C 0.8687 0.87142 0.85626 0.0
C900 C 0.88615 0.90974 0.86119 0.0
C901 C 0.8955 0.91524 0.8814 0.0
C902 C 0.91849 0.93159 0.84933 0.0
C903 C 0.85703 0.91721 0.85682 0.0
C904 C 0.82773 0.8877 0.85052 0.0
C905 C 0.79842 0.8887 0.84437 0.0
C906 C 0.79909 0.92073 0.8447 0.0
C907 C 0.8286 0.95102 0.8514 0.0
C908 C 0.85777 0.94915 0.85766 0.0
H909 H 0.12691 0.03505 0.83696 0.0
H910 H 0.20716 0.02647 0.8664 0.0
H911 H 0.16708 0.96329 0.87035 0.0
H912 H 0.05258 0.97115 0.86244 0.0
H913 H 0.02487 0.95387 0.84285 0.0
H914 H 0.0593 -0.00123 0.84318 0.0
H915 H 0.08457 0.9888 0.81361 0.0
H916 H 0.05031 0.94383 0.81324 0.0
H917 H 0.09535 0.95454 0.8127 0.0
H918 H 0.11746 0.90111 0.87192 0.0
H919 H 0.06311 0.84378 0.86882 0.0
H920 H 0.01777 0.89239 0.83613 0.0
C921 C 0.13584 0.01985 0.84436 0.0
C922 C 0.16995 0.03554 0.85148 0.0
C923 C 0.18106 0.01483 0.86081 0.0
C924 C 0.15849 0.97898 0.86318 0.0
C925 C 0.12508 0.96415 0.85589 0.0
C926 C 0.11389 0.98383 0.84649 0.0
C927 C 0.0773 0.96118 0.83925 0.0
C928 C 0.05203 0.97188 0.84742 0.0
C929 C 0.07688 0.96215 0.81847 0.0
C930 C 0.06971 0.92583 0.84611 0.0
C931 C 0.09736 0.92808 0.85588 0.0
C932 C 0.09573 0.89892 0.86414 0.0
C933 C 0.06492 0.86656 0.86232 0.0
C934 C 0.03671 0.86379 0.85206 0.0
C935 C 0.03929 0.89376 0.84381 0.0
H936 H 0.95199 0.07892 0.8578 0.0
H937 H 0.96462 0.16601 0.8251 0.0
H938 H 0.02806 0.18914 0.82402 0.0
H939 H 0.03013 0.12868 0.88434 0.0
H940 H 0.04053 0.09418 0.88537 0.0
H941 H -0.00426 0.08374 0.88333 0.0
H942 H 0.98869 0.04738 0.85456 0.0
H943 H 0.03341 0.0576 0.85653 0.0
H944 H 0.01836 0.06742 0.83591 0.0
H945 H 0.08991 0.20189 0.82536 0.0
H946 H 0.14658 0.20463 0.83052 0.0
H947 H 0.09473 0.11173 0.86381 0.0
C948 C 0.96811 0.10278 0.85038 0.0
C949 C 0.95327 0.12059 0.84152 0.0
C950 C 0.97532 0.15193 0.83208 0.0
C951 C 0.01144 0.16529 0.83133 0.0
C952 C 0.02528 0.14726 0.84024 0.0
C953 C 0.00441 0.11683 0.8497 0.0
C954 C 0.02614 0.103 0.85837 0.0
C955 C 0.02294 0.10238 0.87908 0.0
C956 C 0.01605 0.06671 0.85089 0.0
C957 C 0.06237 0.13034 0.85224 0.0
C958 C 0.06124 0.15548 0.84166 0.0
C959 C 0.09122 0.1826 0.8338 0.0
C960 C 0.12324 0.18401 0.8368 0.0
C961 C 0.12496 0.15876 0.84776 0.0
C962 C 0.09417 0.13176 0.85564 0.0
H963 H 0.82415 0.85401 0.65599 0.0
H964 H 0.85102 0.9208 0.70315 0.0
H965 H 0.89694 0.90682 0.71114 0.0
H966 H 0.84012 0.78787 0.67483 0.0
H967 H 0.85989 0.78281 0.65461 0.0
H968 H 0.82762 0.79622 0.65302 0.0
H969 H 0.87107 0.85132 0.63511 0.0
H970 H 0.9033 0.83788 0.63647 0.0
H971 H 0.91349 0.88036 0.64457 0.0
H972 H 0.93792 0.88394 0.71472 0.0
H973 H 0.97894 0.86197 0.71106 0.0
H974 H 0.93035 0.81457 0.65989 0.0
C975 C 0.83977 0.86557 0.66799 0.0
C976 C 0.83412 0.88832 0.67905 0.0
C977 C 0.8552 0.90346 0.6945 0.0
C978 C 0.88108 0.89543 0.69921 0.0
C979 C 0.88595 0.87275 0.68812 0.0
C980 C 0.86649 0.85863 0.67261 0.0
C981 C 0.87895 0.83713 0.66238 0.0
C982 C 0.84991 0.79873 0.66114 0.0
C983 C 0.89252 0.85261 0.64352 0.0
C984 C 0.9084 0.84134 0.67459 0.0
C985 C 0.91135 0.86136 0.68956 0.0
C986 C 0.93608 0.86848 0.70299 0.0
C987 C 0.95914 0.85572 0.70083 0.0
C988 C 0.95786 0.8367 0.68517 0.0
C989 C 0.93184 0.82902 0.672 0.0
H990 H 0.10833 0.089 0.66803 0.0
H991 H 0.20266 0.13845 0.70046 0.0
H992 H 0.20025 0.08154 0.70366 0.0
H993 H 0.0653 0.0101 0.6942 0.0
H994 H 0.04472 0.98243 0.67491 0.0
H995 H 0.05466 0.02718 0.6746 0.0
H996 H 0.09024 0.03783 0.64512 0.0
H997 H 0.08035 0.99311 0.6453 0.0
H998 H 0.12513 0.02791 0.64453 0.0
H999 H 0.18843 0.02017 0.70247 0.0
H1000 H 0.16632 0.95723 0.69874 0.0
H1001 H 0.07723 0.94689 0.66873 0.0
C1002 C 0.12861 0.08783 0.67569 0.0
C1003 C 0.15596 0.11793 0.68384 0.0
C1004 C 0.18169 0.11554 0.69404 0.0
C1005 C 0.18049 0.08343 0.69592 0.0
C1006 C 0.1531 0.05415 0.68772 0.0
C1007 C 0.12742 0.05596 0.67796 0.0
C1008 C 0.10015 0.02043 0.67105 0.0
C1009 C 0.06408 0.00939 0.67918 0.0
C1010 C 0.09892 0.0198 0.65026 0.0
C1011 C 0.11469 -0.00168 0.67829 0.0
C1012 C 0.14538 0.01838 0.68774 0.0
C1013 C 0.16433 0.00414 0.69521 0.0
C1014 C 0.15161 0.96842 0.69295 0.0
C1015 C 0.12004 0.94728 0.68348 0.0
C1016 C 0.10124 0.96242 0.67618 0.0
H1017 H 0.89444 0.0299 0.65876 0.0
H1018 H 0.84254 0.06589 0.69538 0.0
H1019 H 0.89988 0.11648 0.70378 0.0
H1020 H 0.96601 0.04995 0.68765 0.0
H1021 H -0.00247 0.06281 0.66965 0.0
H1022 H 0.95241 0.03133 0.66542 0.0
H1023 H 0.95059 0.06962 0.63939 0.0
H1024 H -0.00416 0.101 0.64339 0.0
H1025 H 0.96362 0.1146 0.64375 0.0
H1026 H 0.96332 0.16294 0.70808 0.0
H1027 H 0.02753 0.20072 0.70861 0.0
H1028 H 0.03746 0.13119 0.6708 0.0
C1029 C 0.89509 0.04881 0.66828 0.0
C1030 C 0.86417 0.04448 0.67623 0.0
C1031 C 0.86602 0.06914 0.689 0.0
C1032 C 0.89843 0.09781 0.69387 0.0
C1033 C 0.92858 0.10099 0.686 0.0
C1034 C 0.92715 0.07706 0.67352 0.0
C1035 C 0.9633 0.08527 0.66773 0.0
C1036 C 0.9702 0.05558 0.67293 0.0
C1037 C 0.96864 0.0931 0.64736 0.0
C1038 C 0.98542 0.11767 0.67885 0.0
C1039 C 0.96494 0.12653 0.68919 0.0
C1040 C 0.97958 0.15612 0.70013 0.0
C1041 C 0.01605 0.17738 0.70035 0.0
C1042 C 0.03746 0.16866 0.6899 0.0
C1043 C 0.02182 0.1382 0.67918 0.0
H1044 H 0.77992 0.34617 0.5371 0.0
H1045 H 0.88637 0.39874 0.51721 0.0
H1046 H 0.88695 0.45497 0.51749 0.0
H1047 H 0.75157 0.39227 0.50981 0.0
H1048 H 0.7227 0.39404 0.52643 0.0
H1049 H 0.73196 0.35879 0.52683 0.0
H1050 H 0.75298 0.37352 0.56003 0.0
H1051 H 0.74354 0.4087 0.55979 0.0
H1052 H 0.7866 0.41715 0.56577 0.0
H1053 H 0.87506 0.5045 0.51869 0.0
H1054 H 0.85104 0.54415 0.51933 0.0
H1055 H 0.75073 0.45856 0.53658 0.0
C1056 C 0.80355 0.3697 0.53317 0.0
C1057 C 0.83329 0.36847 0.52732 0.0
C1058 C 0.86348 0.39942 0.52183 0.0
C1059 C 0.86403 0.43137 0.52198 0.0
C1060 C 0.83402 0.43166 0.52748 0.0
C1061 C 0.80428 0.40164 0.5329 0.0
C1062 C 0.77467 0.40861 0.5368 0.0
C1063 C 0.74339 0.38716 0.52421 0.0
C1064 C 0.76382 0.40159 0.55679 0.0
C1065 C 0.79228 0.44717 0.53249 0.0
C1066 C 0.82665 0.46001 0.52742 0.0
C1067 C 0.84823 0.49481 0.5227 0.0
C1068 C 0.83431 0.5171 0.52312 0.0
C1069 C 0.79899 0.50442 0.52799 0.0
C1070 C 0.77777 0.46897 0.53274 0.0
H1071 H 0.49094 0.29843 0.53776 0.0
H1072 H 0.53039 0.25437 0.49809 0.0
H1073 H 0.58072 0.31266 0.49232 0.0
H1074 H 0.51864 0.38114 0.51548 0.0
H1075 H 0.53208 0.40652 0.536 0.0
H1076 H 0.4977 0.36157 0.53661 0.0
H1077 H 0.53173 0.34823 0.56083 0.0
H1078 H 0.56614 0.39316 0.56034 0.0
H1079 H 0.57603 0.35884 0.55629 0.0
H1080 H 0.6248 0.37406 0.4899 0.0
H1081 H 0.66631 0.43648 0.49347 0.0
H1082 H 0.60295 0.44254 0.53665 0.0
C1083 C 0.51019 0.30131 0.52782 0.0
C1084 C 0.50687 0.27216 0.51824 0.0
C1085 C 0.53265 0.27648 0.50557 0.0
C1086 C 0.56116 0.30944 0.50212 0.0
C1087 C 0.56378 0.33768 0.51171 0.0
C1088 C 0.5395 0.3341 0.52454 0.0
C1089 C 0.5502 0.36882 0.53364 0.0
C1090 C 0.52303 0.38018 0.53022 0.0
C1091 C 0.5564 0.36715 0.55398 0.0
C1092 C 0.58413 0.3923 0.52379 0.0
C1093 C 0.59089 0.37361 0.51103 0.0
C1094 C 0.62002 0.38904 0.4999 0.0
C1095 C 0.64337 0.42456 0.50202 0.0
C1096 C 0.63782 0.44423 0.51536 0.0
C1097 C 0.60772 0.42799 0.52637 0.0
H1098 H 0.56153 0.19236 0.50405 0.0
H1099 H 0.51454 0.10139 0.53884 0.0
H1100 H 0.57317 0.10918 0.545 0.0
H1101 H 0.63006 0.17996 0.48512 0.0
H1102 H 0.66175 0.2259 0.48527 0.0
H1103 H 0.61602 0.21166 0.48292 0.0
H1104 H 0.61983 0.2493 0.51061 0.0
H1105 H 0.66548 0.26334 0.51319 0.0
H1106 H 0.6359 0.24291 0.53182 0.0
H1107 H 0.63671 0.12686 0.54699 0.0
H1108 H 0.70073 0.15351 0.54541 0.0
H1109 H 0.70662 0.23553 0.51087 0.0
C1110 C 0.56354 0.17371 0.51271 0.0
C1111 C 0.53365 0.14599 0.52084 0.0
C1112 C 0.53725 0.12263 0.53245 0.0
C1113 C 0.57037 0.12692 0.53601 0.0
C1114 C 0.59946 0.15494 0.52801 0.0
C1115 C 0.59637 0.17801 0.51665 0.0
C1116 C 0.63176 0.2068 0.51036 0.0
C1117 C 0.63508 0.20601 0.48969 0.0
C1118 C 0.63863 0.24271 0.51689 0.0
C1119 C 0.65537 0.19622 0.51984 0.0
C1120 C 0.63616 0.1661 0.52985 0.0
C1121 C 0.652 0.15053 0.53929 0.0
C1122 C 0.68836 0.16587 0.53829 0.0
C1123 C 0.70858 0.1967 0.52812 0.0
C1124 C 0.69185 0.21229 0.51897 0.0
H1125 H 0.7892 0.40988 0.68005 0.0
H1126 H 0.87942 0.51376 0.68521 0.0
H1127 H 0.8404 0.53841 0.68793 0.0
H1128 H 0.73652 0.43593 0.65342 0.0
H1129 H 0.69645 0.40463 0.66426 0.0
H1130 H 0.73172 0.3956 0.66196 0.0
H1131 H 0.73085 0.38605 0.69655 0.0
H1132 H 0.69583 0.39535 0.699 0.0
H1133 H 0.73561 0.42009 0.71169 0.0
H1134 H 0.7911 0.55111 0.69249 0.0
H1135 H 0.73512 0.55092 0.69588 0.0
H1136 H 0.67833 0.43927 0.68644 0.0
C1137 C 0.80079 0.43784 0.68157 0.0
C1138 C 0.83731 0.45986 0.68244 0.0
C1139 C 0.85146 0.49636 0.6844 0.0
C1140 C 0.82954 0.51063 0.68603 0.0
C1141 C 0.79361 0.4881 0.68544 0.0
C1142 C 0.77936 0.45255 0.68301 0.0
C1143 C 0.73995 0.43392 0.68295 0.0
C1144 C 0.72531 0.41651 0.66455 0.0
C1145 C 0.72469 0.4073 0.69847 0.0
C1146 C 0.73425 0.46447 0.68604 0.0
C1147 C 0.76543 0.49552 0.68753 0.0
C1148 C 0.7665 0.52702 0.69114 0.0
C1149 C 0.73474 0.5267 0.69313 0.0
C1150 C 0.70271 0.49516 0.69131 0.0
C1151 C 0.70257 0.46381 0.68772 0.0
H1152 H 0.53484 0.2306 0.71066 0.0
H1153 H 0.44391 0.1808 0.67582 0.0
H1154 H 0.44761 0.2379 0.67082 0.0
H1155 H 0.51732 0.29536 0.7309 0.0
H1156 H 0.56259 0.32908 0.73078 0.0
H1157 H 0.55108 0.28398 0.73267 0.0
H1158 H 0.58938 0.29097 0.70471 0.0
H1159 H 0.60082 0.336 0.70267 0.0
H1160 H 0.58153 0.30677 0.68378 0.0
H1161 H 0.46196 0.30021 0.66921 0.0
H1162 H 0.48657 0.36382 0.67013 0.0
H1163 H 0.57033 0.37382 0.70489 0.0
C1164 C 0.51537 0.23168 0.70223 0.0
C1165 C 0.48876 0.20138 0.69379 0.0
C1166 C 0.46425 0.20378 0.6825 0.0
C1167 C 0.46619 0.23604 0.6796 0.0
C1168 C 0.49305 0.26556 0.68793 0.0
C1169 C 0.5173 0.26373 0.69896 0.0
C1170 C 0.54469 0.29962 0.70548 0.0
C1171 C 0.54385 0.30215 0.72619 0.0
C1172 C 0.58126 0.30887 0.69876 0.0
C1173 C 0.53204 0.32196 0.6964 0.0
C1174 C 0.50208 0.30172 0.68646 0.0
C1175 C 0.4854 0.31632 0.67693 0.0
C1176 C 0.49966 0.35256 0.67758 0.0
C1177 C 0.53051 0.37397 0.68757 0.0
C1178 C 0.54688 0.3583 0.69706 0.0
H1179 H 0.7523 0.30721 0.70152 0.0
H1180 H 0.80238 0.26407 0.66827 0.0
H1181 H 0.74483 0.21198 0.66222 0.0
H1182 H 0.6871 0.22704 0.72133 0.0
H1183 H 0.65343 0.23869 0.72075 0.0
H1184 H 0.69854 0.27224 0.7225 0.0
H1185 H 0.69161 0.30231 0.694 0.0
H1186 H 0.64652 0.26864 0.69209 0.0
H1187 H 0.6758 0.2778 0.67331 0.0
H1188 H 0.68266 0.164 0.66087 0.0
H1189 H 0.61945 0.12302 0.66394 0.0
H1190 H 0.60906 0.19882 0.69657 0.0
C1191 C 0.75111 0.28664 0.69307 0.0
C1192 C 0.78163 0.28927 0.68549 0.0
C1193 C 0.77919 0.26226 0.67428 0.0
C1194 C 0.74668 0.23273 0.67073 0.0
C1195 C 0.71698 0.23101 0.67829 0.0
C1196 C 0.71883 0.25728 0.68916 0.0
C1197 C 0.68292 0.24908 0.69551 0.0
C1198 C 0.68036 0.2466 0.71625 0.0
C1199 C 0.67368 0.27606 0.68829 0.0
C1200 C 0.66061 0.21377 0.68675 0.0
C1201 C 0.68083 0.20388 0.6769 0.0
C1202 C 0.6665 0.17158 0.66837 0.0
C1203 C 0.63062 0.1485 0.67021 0.0
C1204 C 0.60944 0.15796 0.68034 0.0
C1205 C 0.62457 0.19125 0.68845 0.0
H1206 H 0.57137 0.19394 0.19059 0.0
H1207 H 0.4798 0.11479 0.16243 0.0
H1208 H 0.45536 0.15444 0.16184 0.0
H1209 H 0.52526 0.22452 0.21872 0.0
H1210 H 0.56014 0.26925 0.21793 0.0
H1211 H 0.56981 0.23437 0.21612 0.0
H1212 H 0.60195 0.26003 0.18581 0.0
H1213 H 0.59237 0.29496 0.18751 0.0
H1214 H 0.5793 0.26763 0.16768 0.0
H1215 H 0.44356 0.20524 0.16245 0.0
H1216 H 0.44322 0.26078 0.16658 0.0
H1217 H 0.5407 0.3035 0.19618 0.0
C1218 C 0.54616 0.18492 0.1843 0.0
C1219 C 0.52755 0.15156 0.17641 0.0
C1220 C 0.49441 0.14038 0.16855 0.0
C1221 C 0.4804 0.1627 0.16812 0.0
C1222 C 0.49967 0.19568 0.17589 0.0
C1223 C 0.53161 0.20649 0.18405 0.0
C1224 C 0.54707 0.24286 0.19166 0.0
C1225 C 0.55077 0.24272 0.21233 0.0
C1226 C 0.58224 0.26783 0.18262 0.0
C1227 C 0.51913 0.25118 0.18628 0.0
C1228 C 0.49206 0.22386 0.17707 0.0
C1229 C 0.46431 0.22657 0.1699 0.0
C1230 C 0.46431 0.25807 0.17228 0.0
C1231 C 0.49164 0.28593 0.18192 0.0
C1232 C 0.51915 0.28227 0.18905 0.0
H1233 H 0.79788 0.37983 0.18039 0.0
H1234 H 0.8814 0.3625 0.16242 0.0
H1235 H 0.84034 0.29866 0.16249 0.0
H1236 H 0.75961 0.30801 0.21098 0.0
H1237 H 0.71553 0.29816 0.20649 0.0
H1238 H 0.75113 0.3422 0.20413 0.0
H1239 H 0.73245 0.34391 0.17113 0.0
H1240 H 0.69671 0.29991 0.17337 0.0
H1241 H 0.72798 0.31081 0.15539 0.0
H1242 H 0.78883 0.23645 0.16379 0.0
H1243 H 0.73264 0.18144 0.16825 0.0
H1244 H 0.68537 0.24093 0.18736 0.0
C1245 C 0.80751 0.36266 0.17629 0.0
C1246 C 0.84265 0.37598 0.17119 0.0
C1247 C 0.85447 0.35269 0.16631 0.0
C1248 C 0.83135 0.31648 0.16627 0.0
C1249 C 0.79679 0.3042 0.17142 0.0
C1250 C 0.78508 0.32666 0.1765 0.0
C1251 C 0.74722 0.30712 0.18218 0.0
C1252 C 0.74316 0.3143 0.20213 0.0
C1253 C 0.72478 0.31596 0.16977 0.0
C1254 C 0.73926 0.27004 0.17943 0.0
C1255 C 0.76798 0.26876 0.17304 0.0
C1256 C 0.76629 0.23716 0.16895 0.0
C1257 C 0.7344 0.20613 0.17152 0.0
C1258 C 0.70506 0.20714 0.17835 0.0
C1259 C 0.70764 0.23946 0.18238 0.0
H1260 H 0.76139 0.44822 0.19542 0.0
H1261 H 0.81115 0.54064 0.16168 0.0
H1262 H 0.75349 0.53515 0.1557 0.0
H1263 H 0.68572 0.40069 0.1674 0.0
H1264 H 0.65608 0.3806 0.18605 0.0
H1265 H 0.70127 0.39255 0.18834 0.0
H1266 H 0.70719 0.4299 0.21653 0.0
H1267 H 0.66193 0.41772 0.21445 0.0
H1268 H 0.69511 0.46316 0.21495 0.0
H1269 H 0.69089 0.51997 0.15374 0.0
H1270 H 0.62742 0.49671 0.15601 0.0
H1271 H 0.61752 0.41194 0.18968 0.0
C1272 C 0.76017 0.46758 0.18698 0.0
C1273 C 0.79068 0.49519 0.17918 0.0
C1274 C 0.78806 0.51957 0.16791 0.0
C1275 C 0.75545 0.51653 0.16439 0.0
C1276 C 0.72578 0.48869 0.17206 0.0
C1277 C 0.7278 0.4646 0.18311 0.0
C1278 C 0.69185 0.43669 0.18934 0.0
C1279 C 0.68323 0.4005 0.18236 0.0
C1280 C 0.68885 0.4369 0.21005 0.0
C1281 C 0.66927 0.44909 0.18025 0.0
C1282 C 0.68945 0.47915 0.17037 0.0
C1283 C 0.67482 0.49635 0.16134 0.0
C1284 C 0.63874 0.48292 0.16271 0.0
C1285 C 0.61754 0.45239 0.17291 0.0
C1286 C 0.63299 0.43494 0.18153 0.0
H1287 H 0.59916 0.15159 0.02183 0.0
H1288 H 0.63174 0.18208 0.96632 0.0
H1289 H 0.58461 0.19578 0.96223 0.0
H1290 H 0.50316 0.11315 1.01299 0.0
H1291 H 0.49628 0.12875 0.03423 0.0
H1292 H 0.52998 0.11733 0.03225 0.0
H1293 H 0.57564 0.17885 0.04368 0.0
H1294 H 0.54225 0.1906 0.04554 0.0
H1295 H 0.58051 0.21681 0.03201 0.0
H1296 H 0.54093 0.21481 0.96542 0.0
H1297 H 0.49824 0.23236 0.9749 0.0
H1298 H 0.49021 0.18612 0.02757 0.0
C1299 C 0.59568 0.16025 1.00871 0.0
C1300 C 0.61896 0.16575 0.99437 0.0
C1301 C 0.61406 0.17757 0.97745 0.0
C1302 C 0.58737 0.18543 0.97499 0.0
C1303 C 0.56546 0.18078 0.9895 0.0
C1304 C 0.56879 0.16785 1.00595 0.0
C1305 C 0.54273 0.16701 0.01956 0.0
C1306 C 0.51648 0.12932 0.02508 0.0
C1307 C 0.56141 0.18967 0.03617 0.0
C1308 C 0.5253 0.18278 1.0084 0.0
C1309 C 0.53887 0.19048 0.99109 0.0
C1310 C 0.52943 0.20814 0.97876 0.0
C1311 C 0.50542 0.21816 0.98426 0.0
C1312 C 0.49088 0.21006 1.00179 0.0
C1313 C 0.50055 0.19181 1.01395 0.0
H1314 H 0.73626 0.28454 0.99777 0.0
H1315 H 0.83514 0.29797 1.01683 0.0
H1316 H 0.85782 0.36092 0.02048 0.0
H1317 H 0.77448 0.36472 0.97181 0.0
H1318 H 0.74015 0.37407 0.97697 0.0
H1319 H 0.73091 0.32955 0.97633 0.0
H1320 H 0.70654 0.3201 1.00895 0.0
H1321 H 0.71579 0.36462 1.0097 0.0
H1322 H 0.73349 0.34873 0.02675 0.0
H1323 H 0.86933 0.42196 0.02347 0.0
H1324 H 0.87059 0.47854 0.02265 0.0
H1325 H 0.76651 0.42719 0.99955 0.0
C1326 C 0.76264 0.3008 1.00271 0.0
C1327 C 0.78389 0.28631 1.00701 0.0
C1328 C 0.81841 0.30846 1.0133 0.0
C1329 C 0.83154 0.34428 1.01553 0.0
C1330 C 0.81005 0.35781 1.01119 0.0
C1331 C 0.77651 0.33694 1.00469 0.0
C1332 C 0.75952 0.35859 1.00041 0.0
C1333 C 0.75076 0.35662 0.98018 0.0
C1334 C 0.72691 0.34734 1.01216 0.0
C1335 C 0.78869 0.39468 1.00563 0.0
C1336 C 0.81743 0.39353 1.01205 0.0
C1337 C 0.84715 0.42332 0.01829 0.0
C1338 C 0.84765 0.45526 0.01781 0.0
C1339 C 0.81889 0.45715 1.01085 0.0
C1340 C 0.78907 0.42646 1.00471 0.0
H1341 H 0.56411 0.35746 0.02197 0.0
H1342 H 0.51214 0.40856 0.99773 0.0
H1343 H 0.56822 0.46489 0.99817 0.0
H1344 H 0.62337 0.42763 0.05096 0.0
H1345 H 0.65876 0.41919 0.04721 0.0
H1346 H 0.61426 0.38399 0.04596 0.0
H1347 H 0.62539 0.36909 1.01362 0.0
H1348 H 0.66991 0.40415 1.01478 0.0
H1349 H 0.64217 0.4026 0.99652 0.0
H1350 H 0.63034 0.51517 1.00152 0.0
H1351 H 0.69386 0.55443 1.0048 0.0
H1352 H 0.70459 0.46824 0.02516 0.0
C1353 C 0.5644 0.38057 1.0169 0.0
C1354 C 0.53396 0.37903 1.00997 0.0
C1355 C 0.53536 0.40951 1.00314 0.0
C1356 C 0.56696 0.44146 1.00341 0.0
C1357 C 0.59664 0.44202 1.01035 0.0
C1358 C 0.5956 0.41223 1.01678 0.0
C1359 C 0.63125 0.41901 0.02255 0.0
C1360 C 0.63194 0.41205 0.04288 0.0
C1361 C 0.64286 0.39744 1.01119 0.0
C1362 C 0.6528 0.45741 0.01832 0.0
C1363 C 0.63235 0.47036 1.01155 0.0
C1364 C 0.64656 0.50527 1.00678 0.0
C1365 C 0.68265 0.52736 1.00876 0.0
C1366 C 0.70413 0.51429 1.0152 0.0
C1367 C 0.68886 0.47891 0.02013 0.0
H1368 H 0.42997 0.79739 0.84199 0.0
H1369 H 0.51581 0.87222 0.87517 0.0
H1370 H 0.53921 0.83173 0.87674 0.0
H1371 H 0.41596 0.72138 0.86429 0.0
H1372 H 0.40628 0.69575 0.84395 0.0
H1373 H 0.39758 0.73132 0.84499 0.0
H1374 H 0.43585 0.75893 0.81653 0.0
H1375 H 0.44469 0.72341 0.81539 0.0
H1376 H 0.48031 0.76777 0.81636 0.0
H1377 H 0.54994 0.78011 0.87658 0.0
H1378 H 0.54897 0.7238 0.87308 0.0
H1379 H 0.45783 0.68579 0.8386 0.0
C1380 C 0.45377 0.80539 0.84956 0.0
C1381 C 0.47096 0.83776 0.85859 0.0
C1382 C 0.50226 0.84746 0.86815 0.0
C1383 C 0.51569 0.82465 0.86913 0.0
C1384 C 0.49776 0.79265 0.86021 0.0
C1385 C 0.4677 0.78332 0.85043 0.0
C1386 C 0.45303 0.74753 0.84213 0.0
C1387 C 0.41604 0.72253 0.84928 0.0
C1388 C 0.45352 0.74955 0.82137 0.0
C1389 C 0.47909 0.73774 0.84905 0.0
C1390 C 0.5047 0.76394 0.8595 0.0
C1391 C 0.53034 0.75966 0.86819 0.0
C1392 C 0.5296 0.72771 0.86616 0.0
C1393 C 0.5036 0.70085 0.8554 0.0
C1394 C 0.47836 0.70617 0.84665 0.0
H1395 H 0.15634 0.63291 0.86397 0.0
H1396 H 0.18518 0.58932 0.81915 0.0
H1397 H 0.23552 0.64737 0.81245 0.0
H1398 H 0.18522 0.71998 0.84403 0.0
H1399 H 0.20246 0.74251 0.86512 0.0
H1400 H 0.16596 0.69857 0.86511 0.0
H1401 H 0.20009 0.67925 0.88611 0.0
H1402 H 0.23669 0.72304 0.88615 0.0
H1403 H 0.24262 0.68724 0.87932 0.0
H1404 H 0.28349 0.70778 0.81142 0.0
H1405 H 0.33007 0.76799 0.81712 0.0
H1406 H 0.27364 0.77353 0.86386 0.0
C1407 C 0.17296 0.63601 0.85254 0.0
C1408 C 0.16697 0.60712 0.84186 0.0
C1409 C 0.18952 0.61145 0.82734 0.0
C1410 C 0.21798 0.64423 0.82341 0.0
C1411 C 0.22367 0.67224 0.8343 0.0
C1412 C 0.2021 0.6686 0.84866 0.0
C1413 C 0.21631 0.70247 0.85918 0.0
C1414 C 0.19097 0.71672 0.8583 0.0
C1415 C 0.22441 0.6977 0.87885 0.0
C1416 C 0.24946 0.72539 0.84862 0.0
C1417 C 0.25268 0.70739 0.83417 0.0
C1418 C 0.28126 0.72229 0.82261 0.0
C1419 C 0.30758 0.75649 0.82599 0.0
C1420 C 0.30536 0.7753 0.84092 0.0
C1421 C 0.2758 0.75969 0.85231 0.0
H1422 H 0.37309 0.56865 0.86554 0.0
H1423 H 0.36651 0.47845 0.83856 0.0
H1424 H 0.30272 0.45281 0.83551 0.0
H1425 H 0.29363 0.5204 0.89114 0.0
H1426 H 0.2816 0.55367 0.88942 0.0
H1427 H 0.32696 0.56559 0.88901 0.0
H1428 H 0.33501 0.59726 0.85841 0.0
H1429 H 0.28976 0.58569 0.85881 0.0
H1430 H 0.30689 0.57381 0.83969 0.0
H1431 H 0.23996 0.43813 0.83425 0.0
H1432 H 0.1823 0.43456 0.83604 0.0
H1433 H 0.22908 0.53187 0.86591 0.0
C1434 C 0.35823 0.54366 0.85885 0.0
C1435 C 0.37472 0.52565 0.85215 0.0
C1436 C 0.35436 0.4927 0.84377 0.0
C1437 C 0.31813 0.47793 0.84197 0.0
C1438 C 0.30259 0.49618 0.84887 0.0
C1439 C 0.32192 0.5282 0.85725 0.0
C1440 C 0.29866 0.54196 0.86389 0.0
C1441 C 0.30032 0.54561 0.8846 0.0
C1442 C 0.30815 0.57674 0.85464 0.0
C1443 C 0.26333 0.51288 0.85773 0.0
C1444 C 0.26618 0.48682 0.84898 0.0
C1445 C 0.23732 0.45814 0.84127 0.0
C1446 C 0.20474 0.45628 0.84236 0.0
C1447 C 0.20133 0.48263 0.85133 0.0
C1448 C 0.23091 0.511 0.8593 0.0
H1449 H 0.49519 0.81169 1.01098 0.0
H1450 H 0.48012 0.75936 0.06249 0.0
H1451 H 0.43405 0.77294 0.07041 0.0
H1452 H 0.47488 0.88009 0.02636 0.0
H1453 H 0.45143 0.8773 1.00592 0.0
H1454 H 0.48712 0.86856 1.00532 0.0
H1455 H 0.44636 0.80805 0.99102 0.0
H1456 H 0.4106 0.81654 0.99162 0.0
H1457 H 0.40637 0.77807 1.00238 0.0
H1458 H 0.38698 0.78699 0.07185 0.0
H1459 H 0.33854 0.7981 0.06616 0.0
H1460 H 0.38086 0.83918 1.01308 0.0
C1461 C 0.48271 0.80404 0.02409 0.0
C1462 C 0.49128 0.78495 0.03629 0.0
C1463 C 0.47387 0.7742 0.05308 0.0
C1464 C 0.44786 0.78194 0.05772 0.0
C1465 C 0.43936 0.80015 0.04531 0.0
C1466 C 0.45603 0.81097 0.0288 0.0
C1467 C 0.43903 0.82669 1.01722 0.0
C1468 C 0.46465 0.86547 1.01349 0.0
C1469 C 0.42474 0.8061 0.99952 0.0
C1470 C 0.40973 0.8221 0.02965 0.0
C1471 C 0.41096 0.80734 0.0459 0.0
C1472 C 0.38589 0.79891 0.05928 0.0
C1473 C 0.35846 0.80525 0.0559 0.0
C1474 C 0.35612 0.81956 0.03922 0.0
C1475 C 0.38234 0.82857 0.02602 0.0
H1476 H 0.22298 0.70454 0.04035 0.0
H1477 H 0.14924 0.70007 1.00016 0.0
H1478 H 0.12291 0.63626 0.9984 0.0
H1479 H 0.23663 0.6384 0.02129 0.0
H1480 H 0.23882 0.62038 0.04278 0.0
H1481 H 0.25145 0.66577 0.04111 0.0
H1482 H 0.20699 0.65733 0.0662 0.0
H1483 H 0.19405 0.61182 0.06786 0.0
H1484 H 0.16176 0.62441 0.06348 0.0
H1485 H 0.10698 0.57325 0.99945 0.0
H1486 H 0.10183 0.51538 1.00421 0.0
H1487 H 0.18311 0.56048 0.04496 0.0
C1488 C 0.2013 0.69012 0.03119 0.0
C1489 C 0.18825 0.70732 0.02038 0.0
C1490 C 0.15965 0.68748 1.00865 0.0
C1491 C 0.14446 0.65118 1.00753 0.0
C1492 C 0.15784 0.63499 0.01839 0.0
C1493 C 0.18544 0.65374 0.03009 0.0
C1494 C 0.19491 0.62993 0.04023 0.0
C1495 C 0.23269 0.63917 0.03609 0.0
C1496 C 0.18907 0.63094 0.06066 0.0
C1497 C 0.16877 0.59505 0.03214 0.0
C1498 C 0.14764 0.59848 0.01954 0.0
C1499 C 0.12297 0.5701 1.0095 0.0
C1500 C 0.12015 0.5374 1.01229 0.0
C1501 C 0.14163 0.53351 0.02513 0.0
C1502 C 0.16582 0.56261 0.03532 0.0
H1503 H 0.29703 0.49365 1.00861 0.0
H1504 H 0.2548 0.51457 0.05685 0.0
H1505 H 0.31436 0.55828 0.06655 0.0
H1506 H 0.3788 0.50665 0.02806 0.0
H1507 H 0.40432 0.52878 1.00838 0.0
H1508 H 0.35883 0.49642 1.00599 0.0
H1509 H 0.34731 0.54142 0.98953 0.0
H1510 H 0.39276 0.57374 0.99171 0.0
H1511 H 0.35981 0.58259 1.00029 0.0
H1512 H 0.37726 0.59932 0.07095 0.0
H1513 H 0.43954 0.64284 0.06771 0.0
H1514 H 0.44145 0.59961 1.01533 0.0
C1515 C 0.30054 0.50729 0.02128 0.0
C1516 C 0.27165 0.50077 0.03212 0.0
C1517 C 0.2768 0.51942 0.04841 0.0
C1518 C 0.31046 0.54397 0.05409 0.0
C1519 C 0.3385 0.54982 0.04315 0.0
C1520 C 0.33396 0.53259 0.02692 0.0
C1521 C 0.36828 0.54642 1.01692 0.0
C1522 C 0.37813 0.51786 1.01471 0.0
C1523 C 0.36695 0.56197 0.99853 0.0
C1524 C 0.39268 0.57447 0.02997 0.0
C1525 C 0.37497 0.57523 0.0452 0.0
C1526 C 0.39148 0.59905 0.05911 0.0
C1527 C 0.42687 0.62358 0.05715 0.0
C1528 C 0.44514 0.62452 0.04126 0.0
C1529 C 0.42805 0.59923 0.02765 0.0
H1530 H 0.18117 0.48465 0.5037 0.0
H1531 H 0.27101 0.52822 0.53947 0.0
H1532 H 0.26341 0.5788 0.54543 0.0
H1533 H 0.20195 0.56761 0.48389 0.0
H1534 H 0.15711 0.55702 0.48172 0.0
H1535 H 0.16799 0.52287 0.48095 0.0
H1536 H 0.12484 0.49097 0.50719 0.0
H1537 H 0.11394 0.52513 0.5081 0.0
H1538 H 0.12942 0.51382 0.5281 0.0
H1539 H 0.24573 0.62276 0.54848 0.0
H1540 H 0.22369 0.66355 0.54551 0.0
H1541 H 0.14804 0.59578 0.50559 0.0
C1542 C 0.199 0.50485 0.51284 0.0
C1543 C 0.22648 0.50265 0.52129 0.0
C1544 C 0.24984 0.52964 0.5329 0.0
C1545 C 0.24562 0.55829 0.53644 0.0
C1546 C 0.21829 0.55977 0.52799 0.0
C1547 C 0.19573 0.53426 0.51617 0.0
C1548 C 0.17006 0.54382 0.50805 0.0
C1549 C 0.17456 0.54809 0.48743 0.0
C1550 C 0.13233 0.51682 0.51317 0.0
C1551 C 0.18173 0.57855 0.51729 0.0
C1552 C 0.20922 0.58671 0.52894 0.0
C1553 C 0.22436 0.61687 0.53934 0.0
C1554 C 0.21152 0.63977 0.53759 0.0
C1555 C 0.18422 0.63275 0.52531 0.0
C1556 C 0.16894 0.60166 0.51507 0.0
H1557 H 0.46533 0.70182 0.52307 0.0
H1558 H 0.53371 0.69273 0.48414 0.0
H1559 H 0.49606 0.6287 0.48418 0.0
H1560 H 0.4498 0.62751 0.54921 0.0
H1561 H 0.40483 0.61385 0.55408 0.0
H1562 H 0.43565 0.65927 0.55015 0.0
H1563 H 0.39656 0.66102 0.52453 0.0
H1564 H 0.3654 0.61574 0.52855 0.0
H1565 H 0.38342 0.62999 0.50627 0.0
H1566 H 0.45068 0.5659 0.48797 0.0
H1567 H 0.40077 0.50803 0.49604 0.0
H1568 H 0.36485 0.55742 0.53437 0.0
C1569 C 0.47194 0.68628 0.51437 0.0
C1570 C 0.50214 0.70204 0.50349 0.0
C1571 C 0.51056 0.681 0.49255 0.0
C1572 C 0.48939 0.64467 0.49247 0.0
C1573 C 0.46016 0.62977 0.50362 0.0
C1574 C 0.45143 0.64981 0.51441 0.0
C1575 C 0.41939 0.62704 0.52568 0.0
C1576 C 0.42795 0.63223 0.54598 0.0
C1577 C 0.38942 0.63385 0.52097 0.0
C1578 C 0.4115 0.59119 0.51946 0.0
C1579 C 0.43515 0.59336 0.5066 0.0
C1580 C 0.43221 0.56379 0.49819 0.0
C1581 C 0.40398 0.5311 0.50288 0.0
C1582 C 0.37961 0.52841 0.51605 0.0
C1583 C 0.38372 0.55877 0.52459 0.0
H1584 H 0.42455 0.77546 0.51988 0.0
H1585 H 0.47547 0.87044 0.48813 0.0
H1586 H 0.41896 0.86897 0.48487 0.0
H1587 H 0.34538 0.73408 0.49344 0.0
H1588 H 0.31759 0.71337 0.51266 0.0
H1589 H 0.36213 0.72254 0.51285 0.0
H1590 H 0.37333 0.75746 0.54262 0.0
H1591 H 0.32882 0.74832 0.54253 0.0
H1592 H 0.36416 0.79281 0.54358 0.0
H1593 H 0.35727 0.85802 0.48615 0.0
H1594 H 0.29436 0.83672 0.4901 0.0
H1595 H 0.28316 0.74675 0.51946 0.0
C1596 C 0.42378 0.79606 0.51234 0.0
C1597 C 0.45424 0.82328 0.50437 0.0
C1598 C 0.45231 0.84946 0.49435 0.0
C1599 C 0.4204 0.84882 0.49246 0.0
C1600 C 0.39073 0.82153 0.50047 0.0
C1601 C 0.39209 0.79544 0.51005 0.0
C1602 C 0.35631 0.76846 0.51686 0.0
C1603 C 0.34467 0.73249 0.50845 0.0
C1604 C 0.35563 0.76668 0.53763 0.0
C1605 C 0.33462 0.78371 0.50984 0.0
C1606 C 0.35501 0.81443 0.50051 0.0
C1607 C 0.34102 0.83387 0.4933 0.0
C1608 C 0.30528 0.8216 0.49566 0.0
C1609 C 0.28382 0.78998 0.50501 0.0
C1610 C 0.29879 0.77078 0.51207 0.0
H1611 H 0.1897 0.5703 0.32711 0.0
H1612 H 0.11251 0.47979 0.35685 0.0
H1613 H 0.15299 0.45671 0.35789 0.0
H1614 H 0.22371 0.52398 0.30038 0.0
H1615 H 0.26793 0.55989 0.30134 0.0
H1616 H 0.23195 0.56813 0.30194 0.0
H1617 H 0.25557 0.60241 0.33189 0.0
H1618 H 0.29153 0.59422 0.33143 0.0
H1619 H 0.26325 0.58158 0.35087 0.0
H1620 H 0.2039 0.44647 0.35831 0.0
H1621 H 0.26062 0.44817 0.35649 0.0
H1622 H 0.30333 0.5437 0.32526 0.0
C1623 C 0.18107 0.54539 0.33367 0.0
C1624 C 0.14789 0.52687 0.34192 0.0
C1625 C 0.1377 0.49441 0.35038 0.0
C1626 C 0.16055 0.4811 0.35104 0.0
C1627 C 0.19326 0.50031 0.34302 0.0
C1628 C 0.20338 0.53158 0.33432 0.0
C1629 C 0.24033 0.54763 0.32723 0.0
C1630 C 0.241 0.55003 0.30649 0.0
C1631 C 0.26405 0.58358 0.33588 0.0
C1632 C 0.24969 0.52087 0.33365 0.0
C1633 C 0.2222 0.49379 0.34274 0.0
C1634 C 0.22541 0.46718 0.35095 0.0
C1635 C 0.25765 0.46838 0.34988 0.0
C1636 C 0.28595 0.49578 0.34053 0.0
C1637 C 0.28179 0.5221 0.33217 0.0
H1638 H 0.41789 0.62126 0.33065 0.0
H1639 H 0.50487 0.63287 0.36317 0.0
H1640 H 0.53072 0.69669 0.36262 0.0
H1641 H 0.46914 0.69634 0.30224 0.0
H1642 H 0.43585 0.70843 0.30093 0.0
H1643 H 0.42372 0.66337 0.30395 0.0
H1644 H 0.38903 0.6601 0.33284 0.0
H1645 H 0.40081 0.70504 0.32982 0.0
H1646 H 0.41067 0.69112 0.3508 0.0
H1647 H 0.54584 0.75904 0.35989 0.0
H1648 H 0.54953 0.81602 0.35426 0.0
H1649 H 0.45513 0.76409 0.32198 0.0
C1650 C 0.44228 0.63726 0.3377 0.0
C1651 C 0.45932 0.62214 0.34696 0.0
C1652 C 0.4914 0.64392 0.3559 0.0
C1653 C 0.50633 0.68021 0.35569 0.0
C1654 C 0.48908 0.69435 0.34632 0.0
C1655 C 0.45787 0.67364 0.33741 0.0
C1656 C 0.4449 0.69557 0.32824 0.0
C1657 C 0.44333 0.69063 0.30761 0.0
C1658 C 0.40925 0.68748 0.33589 0.0
C1659 C 0.47347 0.73171 0.33359 0.0
C1660 C 0.49865 0.73047 0.34409 0.0
C1661 C 0.52658 0.76047 0.35147 0.0
C1662 C 0.52854 0.79262 0.3482 0.0
C1663 C 0.50297 0.79429 0.33747 0.0
C1664 C 0.47545 0.76354 0.32991 0.0
H1665 H 0.23575 0.67479 0.3425 0.0
H1666 H 0.18212 0.72858 0.32393 0.0
H1667 H 0.23833 0.78425 0.32338 0.0
H1668 H 0.29722 0.7415 0.37125 0.0
H1669 H 0.33287 0.73449 0.36554 0.0
H1670 H 0.2886 0.69889 0.36423 0.0
H1671 H 0.29812 0.68854 0.33076 0.0
H1672 H 0.34249 0.72403 0.33198 0.0
H1673 H 0.31348 0.72412 0.31489 0.0
H1674 H 0.29906 0.83396 0.32688 0.0
H1675 H 0.36184 0.87466 0.33157 0.0
H1676 H 0.37685 0.7879 0.34591 0.0
C1677 C 0.23596 0.69832 0.33826 0.0
C1678 C 0.20485 0.69775 0.33335 0.0
C1679 C 0.20587 0.72875 0.32772 0.0
C1680 C 0.23756 0.76036 0.3274 0.0
C1681 C 0.26783 0.76015 0.33246 0.0
C1682 C 0.26741 0.7299 0.33754 0.0
C1683 C 0.30368 0.73678 0.34216 0.0
C1684 C 0.30569 0.72736 0.36198 0.0
C1685 C 0.31511 0.71721 0.32917 0.0
C1686 C 0.32452 0.77578 0.33915 0.0
C1687 C 0.30324 0.78871 0.3337 0.0
C1688 C 0.31607 0.82415 0.33094 0.0
C1689 C 0.35169 0.84702 0.33374 0.0
C1690 C 0.37407 0.8343 0.33903 0.0
C1691 C 0.36033 0.7982 0.34166 0.0
H1692 H 0.23799 0.31778 0.17256 0.0
H1693 H 0.23666 0.37209 0.22106 0.0
H1694 H 0.30099 0.39975 0.22333 0.0
H1695 H 0.3004 0.2969 0.18901 0.0
H1696 H 0.32145 0.30138 0.16752 0.0
H1697 H 0.27606 0.2892 0.16832 0.0
H1698 H 0.28836 0.34149 0.14772 0.0
H1699 H 0.33374 0.35358 0.14666 0.0
H1700 H 0.32163 0.38486 0.15413 0.0
H1701 H 0.36453 0.42087 0.22032 0.0
H1702 H 0.42381 0.43187 0.2136 0.0
H1703 H 0.38323 0.35878 0.16887 0.0
C1704 C 0.25146 0.33621 0.18337 0.0
C1705 C 0.23287 0.34364 0.19644 0.0
C1706 C 0.25084 0.3667 0.21082 0.0
C1707 C 0.28721 0.38238 0.2122 0.0
C1708 C 0.30481 0.374 0.1993 0.0
C1709 C 0.28758 0.35125 0.18524 0.0
C1710 C 0.31229 0.34442 0.17408 0.0
C1711 C 0.30192 0.30567 0.17478 0.0
C1712 C 0.31411 0.35684 0.15449 0.0
C1713 C 0.34617 0.36697 0.18404 0.0
C1714 C 0.34125 0.38415 0.19838 0.0
C1715 C 0.36872 0.40738 0.20926 0.0
C1716 C 0.4022 0.41342 0.20533 0.0
C1717 C 0.40779 0.39583 0.19086 0.0
C1718 C 0.3794 0.37205 0.18019 0.0
H1719 H 0.59053 0.98438 0.16489 0.0
H1720 H 0.63097 0.04856 0.21288 0.0
H1721 H 0.64948 0.0083 0.22504 0.0
H1722 H 0.56125 0.89947 0.18631 0.0
H1723 H 0.57555 0.88311 0.16784 0.0
H1724 H 0.56193 0.91467 0.16363 0.0
H1725 H 0.6213 0.9558 0.14828 0.0
H1726 H 0.63484 0.92419 0.15222 0.0
H1727 H 0.66121 0.96821 0.1604 0.0
H1728 H 0.6648 0.96282 0.2316 0.0
H1729 H 0.68436 0.91962 0.23043 0.0
H1730 H 0.63798 0.88666 0.17722 0.0
C1731 C 0.6032 0.98969 0.17796 0.0
C1732 C 0.60959 0.01935 0.18802 0.0
C1733 C 0.62639 0.02602 0.20498 0.0
C1734 C 0.63654 0.00314 0.21206 0.0
C1735 C 0.63 0.97405 0.20185 0.0
C1736 C 0.61432 0.96753 0.18503 0.0
C1737 C 0.61355 0.93632 0.17612 0.0
C1738 C 0.57582 0.90663 0.17331 0.0
C1739 C 0.63395 0.94677 0.1582 0.0
C1740 C 0.63198 0.92686 0.1904 0.0
C1741 C 0.64033 0.94843 0.20531 0.0
C1742 C 0.65833 0.94567 0.22005 0.0
C1743 C 0.66924 0.921 0.21927 0.0
C1744 C 0.66262 0.89993 0.20374 0.0
C1745 C 0.64302 0.90228 0.18931 0.0
H1746 H 0.10687 0.75449 0.17558 0.0
H1747 H 0.07463 0.76565 0.22942 0.0
H1748 H 0.03249 0.70269 0.23033 0.0
H1749 H 0.02435 0.6936 0.15933 0.0
H1750 H 0.03795 0.66758 0.14672 0.0
H1751 H 0.06822 0.71313 0.15062 0.0
H1752 H 0.112 0.69772 0.16531 0.0
H1753 H 0.08204 0.6521 0.16123 0.0
H1754 H 0.09789 0.66709 0.18378 0.0
H1755 H 0.98898 0.64136 0.22411 0.0
H1756 H 0.95064 0.58182 0.21244 0.0
H1757 H 0.01274 0.60761 0.16356 0.0
C1758 C 0.09146 0.74342 0.18768 0.0
C1759 C 0.09392 0.76481 0.20243 0.0
C1760 C 0.07317 0.74965 0.21799 0.0
C1761 C 0.04912 0.71394 0.21864 0.0
C1762 C 0.04653 0.69366 0.20372 0.0
C1763 C 0.06751 0.70754 0.18866 0.0
C1764 C 0.05851 0.67976 0.17433 0.0
C1765 C 0.04655 0.68909 0.15671 0.0
C1766 C 0.08945 0.67382 0.17097 0.0
C1767 C 0.02856 0.6485 0.18353 0.0
C1768 C 0.02207 0.65732 0.20044 0.0
C1769 C 0.99414 0.63389 0.21104 0.0
C1770 C 0.97239 0.60033 0.20427 0.0
C1771 C 0.97907 0.59047 0.18723 0.0
C1772 C 0.00759 0.61467 0.17675 0.0
H1773 H 0.30022 0.24117 0.36968 0.0
H1774 H 0.36551 0.23094 0.32918 0.0
H1775 H 0.39405 0.29435 0.32303 0.0
H1776 H 0.28556 0.30165 0.345 0.0
H1777 H 0.2861 0.32611 0.3646 0.0
H1778 H 0.27238 0.28048 0.3667 0.0
H1779 H 0.31912 0.2947 0.39146 0.0
H1780 H 0.33265 0.34031 0.38963 0.0
H1781 H 0.36414 0.32613 0.3868 0.0
H1782 H 0.41501 0.35797 0.32139 0.0
H1783 H 0.42806 0.4188 0.32443 0.0
H1784 H 0.34623 0.38691 0.3646 0.0
C1785 C 0.32095 0.25243 0.35973 0.0
C1786 C 0.33113 0.23158 0.35 0.0
C1787 C 0.35772 0.24681 0.33683 0.0
C1788 C 0.3739 0.28263 0.33323 0.0
C1789 C 0.36271 0.3024 0.3428 0.0
C1790 C 0.33689 0.28791 0.35578 0.0
C1791 C 0.32889 0.31468 0.36371 0.0
C1792 C 0.29098 0.30515 0.35976 0.0
C1793 C 0.33668 0.31922 0.38411 0.0
C1794 C 0.3545 0.34666 0.35324 0.0
C1795 C 0.3738 0.33894 0.3413 0.0
C1796 C 0.4 0.36433 0.33061 0.0
C1797 C 0.40717 0.3987 0.33243 0.0
C1798 C 0.38791 0.40717 0.34466 0.0
C1799 C 0.36085 0.38081 0.35497 0.0
H1800 H 0.60805 0.95788 0.33139 0.0
H1801 H 0.57168 0.02776 0.3494 0.0
H1802 H 0.63204 0.07654 0.34982 0.0
H1803 H 0.68462 0.99387 0.35801 0.0
H1804 H 0.71131 0.98938 0.34101 0.0
H1805 H 0.66489 0.95995 0.34121 0.0
H1806 H 0.66086 0.97649 0.30804 0.0
H1807 H 0.70732 0.00606 0.30775 0.0
H1808 H 0.67783 0.02167 0.30217 0.0
H1809 H 0.69598 0.11643 0.35111 0.0
H1810 H 0.7605 0.14585 0.35156 0.0
H1811 H 0.75566 0.05179 0.3309 0.0
C1812 C 0.61282 0.9835 0.3353 0.0
C1813 C 0.58517 0.989 0.34034 0.0
C1814 C 0.5924 0.02291 0.34536 0.0
C1815 C 0.62662 0.05085 0.34566 0.0
C1816 C 0.65328 0.0446 0.34069 0.0
C1817 C 0.64688 0.01191 0.33544 0.0
C1818 C 0.68051 0.01231 0.33109 0.0
C1819 C 0.68562 0.98741 0.34358 0.0
C1820 C 0.68169 0.00362 0.31107 0.0
C1821 C 0.70671 0.0501 0.33514 0.0
C1822 C 0.69042 0.06823 0.34068 0.0
C1823 C 0.70914 0.10279 0.34647 0.0
C1824 C 0.74561 0.11923 0.34672 0.0
C1825 C 0.76267 0.10112 0.341 0.0
C1826 C 0.74305 0.06636 0.33492 0.0
H1827 H 0.88408 0.63755 0.36333 0.0
H1828 H 0.91478 0.69487 0.31274 0.0
H1829 H 0.95816 0.67646 0.30777 0.0
H1830 H 0.96661 0.65744 0.37752 0.0
H1831 H 0.95467 0.61526 0.38678 0.0
H1832 H 0.92292 0.62934 0.38576 0.0
H1833 H 0.8809 0.57409 0.36752 0.0
H1834 H 0.91226 0.55944 0.36876 0.0
H1835 H 0.89613 0.56378 0.34711 0.0
H1836 H 0.00378 0.66048 0.31046 0.0
H1837 H 0.04379 0.63863 0.3182 0.0
H1838 H 0.98158 0.58711 0.36559 0.0
C1839 C 0.89928 0.6453 0.35099 0.0
C1840 C 0.89624 0.66763 0.33843 0.0
C1841 C 0.91674 0.67771 0.32252 0.0
C1842 C 0.9415 0.66747 0.31958 0.0
C1843 C 0.94493 0.64663 0.33252 0.0
C1844 C 0.92389 0.63482 0.34768 0.0
C1845 C 0.93395 0.61342 0.35965 0.0
C1846 C 0.9452 0.62986 0.37854 0.0
C1847 C 0.90403 0.57542 0.36082 0.0
C1848 C 0.96462 0.61618 0.34911 0.0
C1849 C 0.97056 0.63573 0.33358 0.0
C1850 C -0.00098 0.64448 0.32235 0.0
C1851 C 0.02174 0.63234 0.32693 0.0
C1852 C 0.01543 0.61132 0.34239 0.0
C1853 C 0.98652 0.60295 0.3536 0.0
H1854 H 0.60588 0.64012 0.8413 0.0
H1855 H 0.58017 0.54985 0.87475 0.0
H1856 H 0.64031 0.56094 0.87167 0.0
H1857 H 0.66047 0.62698 0.81031 0.0
H1858 H 0.69178 0.67268 0.80761 0.0
H1859 H 0.64704 0.65906 0.81303 0.0
H1860 H 0.66705 0.69895 0.84133 0.0
H1861 H 0.71186 0.71309 0.83584 0.0
H1862 H 0.6948 0.69465 0.85775 0.0
H1863 H 0.70263 0.58129 0.86521 0.0
H1864 H 0.76481 0.61138 0.8563 0.0
H1865 H 0.75009 0.68674 0.82576 0.0
C1866 C 0.61318 0.62311 0.84818 0.0
C1867 C 0.58851 0.59423 0.85831 0.0
C1868 C 0.59872 0.57209 0.86688 0.0
C1869 C 0.63278 0.57812 0.86521 0.0
C1870 C 0.65628 0.60623 0.85478 0.0
C1871 C 0.64711 0.62849 0.84645 0.0
C1872 C 0.67746 0.65636 0.83573 0.0
C1873 C 0.66865 0.65358 0.81547 0.0
C1874 C 0.68844 0.69292 0.84311 0.0
C1875 C 0.70501 0.64631 0.83947 0.0
C1876 C 0.69218 0.61733 0.85051 0.0
C1877 C 0.71298 0.60385 0.85644 0.0
C1878 C 0.74814 0.62096 0.85127 0.0
C1879 C 0.7619 0.65092 0.84017 0.0
C1880 C 0.73993 0.66338 0.83395 0.0
H1881 H 0.36003 0.10372 0.85593 0.0
H1882 H 0.29034 0.0533 0.8106 0.0
H1883 H 0.30704 0.00795 0.81022 0.0
H1884 H 0.42877 0.08341 0.84044 0.0
H1885 H 0.43863 0.07676 0.86324 0.0
H1886 H 0.42385 0.10735 0.85883 0.0
H1887 H 0.37372 0.07485 0.88191 0.0
H1888 H 0.38789 0.04379 0.88613 0.0
H1889 H 0.34368 0.02886 0.87896 0.0
H1890 H 0.32379 0.96391 0.81746 0.0
H1891 H 0.34749 0.92756 0.82893 0.0
H1892 H 0.41041 0.0078 0.86796 0.0
C1893 C 0.3491 0.08364 0.84565 0.0
C1894 C 0.32391 0.08189 0.8333 0.0
C1895 C 0.30977 0.05511 0.82014 0.0
C1896 C 0.319 0.02918 0.81984 0.0
C1897 C 0.34288 0.03081 0.83258 0.0
C1898 C 0.35848 0.05773 0.84496 0.0
C1899 C 0.38275 0.05252 0.85742 0.0
C1900 C 0.42076 0.08175 0.85482 0.0
C1901 C 0.37131 0.04985 0.87728 0.0
C1902 C 0.37727 0.01789 0.8505 0.0
C1903 C 0.35397 0.00583 0.83623 0.0
C1904 C 0.34258 0.9733 0.82839 0.0
C1905 C 0.35583 0.95272 0.83511 0.0
C1906 C 0.38057 0.96504 0.84928 0.0
C1907 C 0.39161 -0.00194 0.85703 0.0
H1908 H 0.87869 0.23588 0.85378 0.0
H1909 H 0.91865 0.22445 0.80217 0.0
H1910 H 0.95991 0.28757 0.80144 0.0
H1911 H 0.88891 0.32437 0.84318 0.0
H1912 H 0.90129 0.33933 0.8661 0.0
H1913 H 0.87152 0.29378 0.86164 0.0
H1914 H 0.91213 0.27768 0.87922 0.0
H1915 H 0.94226 0.3231 0.88351 0.0
H1916 H 0.95717 0.29659 0.87248 0.0
H1917 H 0.00387 0.34719 0.80898 0.0
H1918 H 0.04299 0.40512 0.82179 0.0
H1919 H 0.97227 0.38316 0.86677 0.0
C1920 C 0.89543 0.24696 0.8421 0.0
C1921 C 0.89557 0.22539 0.82801 0.0
C1922 C 0.91809 0.24054 0.81306 0.0
C1923 C 0.94164 0.27636 0.81253 0.0
C1924 C 0.94188 0.29678 0.82689 0.0
C1925 C 0.91887 0.28303 0.84119 0.0
C1926 C 0.92607 0.31104 0.8552 0.0
C1927 C 0.8951 0.31751 0.85661 0.0
C1928 C 0.93494 0.30152 0.87369 0.0
C1929 C 0.9577 0.34215 0.84685 0.0
C1930 C 0.96626 0.33295 0.83056 0.0
C1931 C -0.0033 0.35525 0.8213 0.0
C1932 C 0.01871 0.38811 0.82864 0.0
C1933 C 0.00982 0.39892 0.84477 0.0
C1934 C 0.97889 0.37576 0.85407 0.0
H1935 H 0.64671 0.60751 0.67432 0.0
H1936 H 0.55857 0.58016 0.7098 0.0
H1937 H 0.5713 0.64098 0.70938 0.0
H1938 H 0.70401 0.69478 0.69268 0.0
H1939 H 0.7212 0.71358 0.67084 0.0
H1940 H 0.70661 0.66821 0.67495 0.0
H1941 H 0.66493 0.65132 0.64745 0.0
H1942 H 0.67899 0.6966 0.64344 0.0
H1943 H 0.63329 0.66565 0.64659 0.0
H1944 H 0.59247 0.70407 0.70489 0.0
H1945 H 0.6224 0.76678 0.6971 0.0
H1946 H 0.69479 0.75332 0.66314 0.0
C1947 C 0.6306 0.61458 0.68226 0.0
C1948 C 0.60189 0.58925 0.69225 0.0
C1949 C 0.58082 0.5992 0.70214 0.0
C1950 C 0.58776 0.63368 0.70195 0.0
C1951 C 0.61563 0.65788 0.69162 0.0
C1952 C 0.63683 0.64894 0.68198 0.0
C1953 C 0.66434 0.67997 0.6715 0.0
C1954 C 0.70122 0.68971 0.67788 0.0
C1955 C 0.66012 0.67295 0.65103 0.0
C1956 C 0.65524 0.70759 0.67681 0.0
C1957 C 0.62712 0.69425 0.68848 0.0
C1958 C 0.61442 0.71486 0.69569 0.0
C1959 C 0.63143 0.75033 0.69115 0.0
C1960 C 0.6605 0.76461 0.67939 0.0
C1961 C 0.67219 0.74284 0.67192 0.0
H1962 H 0.37964 0.0276 0.68039 0.0
H1963 H 0.41107 0.974 0.71847 0.0
H1964 H 0.35092 0.92338 0.71841 0.0
H1965 H 0.29143 0.99529 0.69714 0.0
H1966 H 0.27349 0.99099 0.67479 0.0
H1967 H 0.31814 0.02364 0.6792 0.0
H1968 H 0.33826 -0.00167 0.65327 0.0
H1969 H 0.29372 0.96519 0.649 0.0
H1970 H 0.32612 0.95291 0.65375 0.0
H1971 H 0.28688 0.8786 0.714 0.0
H1972 H 0.22425 0.84369 0.70571 0.0
H1973 H 0.23711 0.92493 0.66847 0.0
C1974 C 0.37359 0.00549 0.68901 0.0
C1975 C 0.39961 0.00472 0.69966 0.0
C1976 C 0.3912 0.97501 0.71034 0.0
C1977 C 0.35723 0.94618 0.71034 0.0
C1978 C 0.33227 0.94732 0.69929 0.0
C1979 C 0.34009 0.97621 0.68881 0.0
C1980 C 0.30913 0.97031 0.67747 0.0
C1981 C 0.29735 -0.00339 0.68246 0.0
C1982 C 0.31731 0.97177 0.65717 0.0
C1983 C 0.28258 0.93369 0.68329 0.0
C1984 C 0.29627 0.9209 0.69597 0.0
C1985 C 0.27598 0.88821 0.70394 0.0
C1986 C 0.24057 0.8685 0.69911 0.0
C1987 C 0.22616 0.8814 0.68626 0.0
C1988 C 0.24767 0.91408 0.67804 0.0
H1989 H 0.96013 0.34734 0.6752 0.0
H1990 H 0.00242 0.42341 0.7185 0.0
H1991 H 0.05037 0.4107 0.72271 0.0
H1992 H 0.98368 0.28499 0.6932 0.0
H1993 H -0.00444 0.2762 0.67133 0.0
H1994 H 0.96261 0.28863 0.67312 0.0
H1995 H -0.00236 0.33956 0.65081 0.0
H1996 H 0.03103 0.3277 0.6492 0.0
H1997 H 0.04238 0.37129 0.65588 0.0
H1998 H 0.09282 0.38939 0.72252 0.0
H1999 H 0.12926 0.36233 0.71685 0.0
H2000 H 0.0635 0.30566 0.67133 0.0
C2001 C 0.97898 0.36055 0.68586 0.0
C2002 C 0.97732 0.38564 0.69687 0.0
C2003 C 0.0031 0.40358 0.71022 0.0
C2004 C 0.0304 0.39666 0.71265 0.0
C2005 C 0.03181 0.37229 0.70135 0.0
C2006 C 0.00698 0.35466 0.68813 0.0
C2007 C 0.01609 0.3317 0.67694 0.0
C2008 C 0.98781 0.29309 0.67876 0.0
C2009 C 0.02215 0.34327 0.65703 0.0
C2010 C 0.04976 0.33908 0.68603 0.0
C2011 C 0.0581 0.36225 0.70021 0.0
C2012 C 0.08691 0.37158 0.71131 0.0
C2013 C 0.10746 0.35629 0.70798 0.0
C2014 C 0.09941 0.33275 0.69346 0.0
C2015 C 0.07062 0.32445 0.68219 0.0
H2016 H 0.91895 0.68156 0.54414 0.0
H2017 H 0.88317 0.65944 0.48859 0.0
H2018 H 0.94296 0.67687 0.47853 0.0
H2019 H 0.0038 0.75872 0.53263 0.0
H2020 H 0.02784 0.75068 0.54966 0.0
H2021 H 0.98282 0.7381 0.55358 0.0
H2022 H 0.96607 0.6748 0.55976 0.0
H2023 H 0.0104 0.6847 0.55645 0.0
H2024 H 0.97586 0.65085 0.5433 0.0
H2025 H 0.00442 0.68779 0.47537 0.0
H2026 H 0.0664 0.70305 0.47857 0.0
H2027 H 0.06294 0.72327 0.53559 0.0
C2028 C 0.92402 0.68139 0.52982 0.0
C2029 C 0.89676 0.66925 0.51711 0.0
C2030 C 0.90398 0.66904 0.49849 0.0
C2031 C 0.93774 0.67862 0.49267 0.0
C2032 C 0.96392 0.68916 0.50564 0.0
C2033 C 0.9577 0.69174 0.52375 0.0
C2034 C 0.99038 0.70397 0.53492 0.0
C2035 C 0.00185 0.73997 0.54321 0.0
C2036 C 0.98536 0.67699 0.54947 0.0
C2037 C 0.01551 0.70628 0.52043 0.0
C2038 C -0.00025 0.69741 0.50363 0.0
C2039 C 0.01726 0.69549 0.48838 0.0
C2040 C 0.05215 0.70379 0.49031 0.0
C2041 C 0.06882 0.71418 0.50729 0.0
C2042 C 0.0504 0.71541 0.52249 0.0
H2043 H 0.36535 0.27041 0.53963 0.0
H2044 H 0.29579 0.18581 0.50427 0.0
H2045 H 0.25898 0.213 0.50066 0.0
H2046 H 0.29876 0.28552 0.56111 0.0
H2047 H 0.32717 0.33216 0.56137 0.0
H2048 H 0.34533 0.30374 0.56302 0.0
H2049 H 0.38483 0.33427 0.53528 0.0
H2050 H 0.36683 0.3627 0.53353 0.0
H2051 H 0.36514 0.3367 0.51439 0.0
H2052 H 0.23134 0.25083 0.49998 0.0
H2053 H 0.21797 0.299 0.50019 0.0
H2054 H 0.30817 0.36001 0.53431 0.0
C2055 C 0.342 0.25734 0.53141 0.0
C2056 C 0.33302 0.22599 0.52236 0.0
C2057 C 0.30282 0.20985 0.51138 0.0
C2058 C 0.28174 0.22497 0.50932 0.0
C2059 C 0.29149 0.25621 0.51828 0.0
C2060 C 0.32102 0.27231 0.52903 0.0
C2061 C 0.32759 0.30725 0.53586 0.0
C2062 C 0.32452 0.30714 0.55657 0.0
C2063 C 0.3632 0.33697 0.52937 0.0
C2064 C 0.29774 0.30875 0.52686 0.0
C2065 C 0.27667 0.27876 0.51714 0.0
C2066 C 0.24759 0.27442 0.50757 0.0
C2067 C 0.24019 0.30176 0.50776 0.0
C2068 C 0.26234 0.33306 0.51709 0.0
C2069 C 0.29114 0.33638 0.52689 0.0
H2070 H 0.62379 0.93511 0.52075 0.0
H2071 H 0.68251 0.90688 0.48441 0.0
H2072 H 0.73148 0.96781 0.48475 0.0
H2073 H 0.65439 0.02323 0.50365 0.0
H2074 H 0.65685 0.04095 0.5259 0.0
H2075 H 0.62538 0.996 0.52126 0.0
H2076 H 0.65029 0.97665 0.54786 0.0
H2077 H 0.68174 0.0216 0.55244 0.0
H2078 H 0.69625 0.99076 0.54825 0.0
H2079 H 0.77438 0.03158 0.48963 0.0
H2080 H 0.80829 0.09359 0.49912 0.0
H2081 H 0.72286 0.07807 0.53402 0.0
C2082 C 0.64666 0.94213 0.51255 0.0
C2083 C 0.6495 0.9169 0.50231 0.0
C2084 C 0.68007 0.92631 0.49219 0.0
C2085 C 0.7079 0.9607 0.49231 0.0
C2086 C 0.70477 0.98501 0.50288 0.0
C2087 C 0.67498 0.97616 0.51286 0.0
C2088 C 0.67915 0.0066 0.52401 0.0
C2089 C 0.65236 0.01733 0.51836 0.0
C2090 C 0.67671 -0.00161 0.54435 0.0
C2091 C 0.71581 0.03387 0.51872 0.0
C2092 C 0.73012 0.02109 0.50642 0.0
C2093 C 0.76355 0.04188 0.49933 0.0
C2094 C 0.78266 0.07688 0.50484 0.0
C2095 C 0.76827 0.09022 0.51744 0.0
C2096 C 0.73465 0.06833 0.52456 0.0
H2097 H 0.0197 0.71348 0.69554 0.0
H2098 H 0.08768 0.74563 0.64872 0.0
H2099 H 0.07552 0.68514 0.64457 0.0
H2100 H 0.04764 0.65564 0.71283 0.0
H2101 H 0.00521 0.62382 0.72121 0.0
H2102 H 0.01706 0.66907 0.71983 0.0
H2103 H 0.96258 0.6527 0.70009 0.0
H2104 H 0.95027 0.60737 0.70163 0.0
H2105 H 0.95552 0.62746 0.67979 0.0
H2106 H 0.05406 0.62119 0.64478 0.0
H2107 H 0.02683 0.55768 0.65037 0.0
H2108 H 0.97871 0.56853 0.6991 0.0
C2109 C 0.03148 0.70748 0.68429 0.0
C2110 C 0.05406 0.73369 0.67222 0.0
C2111 C 0.06998 0.72551 0.65793 0.0
C2112 C 0.06332 0.69138 0.65551 0.0
C2113 C 0.04137 0.66609 0.66779 0.0
C2114 C 0.02591 0.6737 0.68199 0.0
C2115 C 0.00474 0.64198 0.69374 0.0
C2116 C 0.01956 0.648 0.71304 0.0
C2117 C 0.96598 0.63178 0.69381 0.0
C2118 C 0.0104 0.61533 0.68379 0.0
C2119 C 0.03131 0.62971 0.66875 0.0
C2120 C 0.03818 0.60969 0.65668 0.0
C2121 C 0.02278 0.57383 0.65996 0.0
C2122 C 0.00163 0.55882 0.67535 0.0
C2123 C -0.0042 0.57983 0.68756 0.0
H2124 H 0.27287 0.29329 0.69561 0.0
H2125 H 0.2389 0.33855 0.65386 0.0
H2126 H 0.29955 0.38651 0.64991 0.0
H2127 H 0.33298 0.37341 0.71604 0.0
H2128 H 0.36488 0.36073 0.72137 0.0
H2129 H 0.31936 0.32813 0.71984 0.0
H2130 H 0.33366 0.29438 0.69584 0.0
H2131 H 0.37928 0.32661 0.6975 0.0
H2132 H 0.35773 0.3168 0.67585 0.0
H2133 H 0.36335 0.43025 0.6511 0.0
H2134 H 0.42682 0.46631 0.65697 0.0
H2135 H 0.4183 0.39432 0.69912 0.0
C2136 C 0.27846 0.31294 0.6854 0.0
C2137 C 0.25157 0.31229 0.67492 0.0
C2138 C 0.25941 0.33877 0.66198 0.0
C2139 C 0.29368 0.36605 0.65965 0.0
C2140 C 0.31959 0.36658 0.67053 0.0
C2141 C 0.31247 0.34073 0.68312 0.0
C2142 C 0.34481 0.34838 0.69368 0.0
C2143 C 0.34022 0.35294 0.71393 0.0
C2144 C 0.35444 0.31985 0.69052 0.0
C2145 C 0.37113 0.38256 0.68507 0.0
C2146 C 0.35612 0.39252 0.67169 0.0
C2147 C 0.37545 0.42282 0.66158 0.0
C2148 C 0.41132 0.44318 0.66503 0.0
C2149 C 0.42712 0.43316 0.67857 0.0
C2150 C 0.40668 0.40277 0.68885 0.0
H2151 H 0.6905 0.97111 0.69139 0.0
H2152 H 0.6357 0.88565 0.65363 0.0
H2153 H 0.58505 0.89516 0.65421 0.0
H2154 H 0.61488 0.95256 0.71838 0.0
H2155 H 0.62914 -0.00205 0.72229 0.0
H2156 H 0.66084 0.98425 0.71885 0.0
H2157 H 0.68825 0.02815 0.69242 0.0
H2158 H 0.65689 0.04221 0.69587 0.0
H2159 H 0.66093 0.02674 0.67397 0.0
H2160 H 0.54178 0.91668 0.65775 0.0
H2161 H 0.50941 0.94782 0.66437 0.0
H2162 H 0.59143 0.0161 0.70132 0.0
C2163 C 0.66786 0.95447 0.68321 0.0
C2164 C 0.66692 0.92776 0.67241 0.0
C2165 C 0.63675 0.90618 0.66206 0.0
C2166 C 0.60793 0.9114 0.6623 0.0
C2167 C 0.60956 0.93787 0.67323 0.0
C2168 C 0.6387 0.95888 0.68357 0.0
C2169 C 0.63403 0.98547 0.69418 0.0
C2170 C 0.63476 0.97969 0.71464 0.0
C2171 C 0.66166 0.02285 0.68878 0.0
C2172 C 0.59795 0.97663 0.68794 0.0
C2173 C 0.58421 0.94915 0.67584 0.0
C2174 C 0.55206 0.93788 0.66742 0.0
C2175 C 0.53383 0.9556 0.67126 0.0
C2176 C 0.54775 0.98393 0.68352 0.0
C2177 C 0.57985 0.99404 0.69216 0.0
H2178 H 0.27602 0.9796 0.17266 0.0
H2179 H 0.24793 0.88807 0.20543 0.0
H2180 H 0.3073 0.89697 0.20178 0.0
H2181 H 0.32921 0.96374 0.14087 0.0
H2182 H 0.36084 0.00932 0.1381 0.0
H2183 H 0.31623 0.99616 0.14357 0.0
H2184 H 0.33731 0.0366 0.17176 0.0
H2185 H 0.38188 0.04981 0.16623 0.0
H2186 H 0.3647 0.03171 0.18818 0.0
H2187 H 0.36977 0.91667 0.19564 0.0
H2188 H 0.43228 0.94658 0.18734 0.0
H2189 H 0.41928 0.02292 0.15673 0.0
C2190 C 0.28268 0.96182 0.17921 0.0
C2191 C 0.25775 0.93339 0.18948 0.0
C2192 C 0.26688 0.91006 0.19756 0.0
C2193 C 0.30043 0.91483 0.19553 0.0
C2194 C 0.32435 0.94272 0.18509 0.0
C2195 C 0.31598 0.96579 0.177 0.0
C2196 C 0.34657 0.99322 0.16624 0.0
C2197 C 0.33767 0.99043 0.146 0.0
C2198 C 0.35831 0.03001 0.17355 0.0
C2199 C 0.37357 0.98241 0.16996 0.0
C2200 C 0.36013 0.95315 0.18083 0.0
C2201 C 0.38054 0.93933 0.18693 0.0
C2202 C 0.4159 0.95635 0.18211 0.0
C2203 C 0.43026 0.98656 0.17117 0.0
C2204 C 0.40867 -0.00068 0.16474 0.0
H2205 H 0.03383 0.45309 0.18691 0.0
H2206 H 0.96983 0.40627 0.1393 0.0
H2207 H 0.98401 0.35914 0.14014 0.0
H2208 H 0.1023 0.43065 0.17356 0.0
H2209 H 0.10973 0.42311 0.19665 0.0
H2210 H 0.0965 0.45467 0.19161 0.0
H2211 H 0.04417 0.42265 0.2135 0.0
H2212 H 0.05677 0.39058 0.21831 0.0
H2213 H 0.01349 0.37697 0.21003 0.0
H2214 H -0.00377 0.31233 0.1491 0.0
H2215 H 0.01737 0.27443 0.16153 0.0
H2216 H 0.08037 0.35425 0.2007 0.0
C2217 C 0.02365 0.4334 0.17641 0.0
C2218 C 0.0007 0.43322 0.16307 0.0
C2219 C 0.98763 0.40699 0.14959 0.0
C2220 C -0.00467 0.37997 0.15 0.0
C2221 C 0.01694 0.38008 0.16369 0.0
C2222 C 0.03197 0.40665 0.17629 0.0
C2223 C 0.05457 0.4003 0.18945 0.0
C2224 C 0.09306 0.42888 0.18771 0.0
C2225 C 0.04145 0.39746 0.20897 0.0
C2226 C 0.04877 0.36546 0.18263 0.0
C2227 C 0.02648 0.3541 0.16794 0.0
C2228 C 0.01446 0.3213 0.16028 0.0
C2229 C 0.02634 0.29988 0.1675 0.0
C2230 C 0.05072 0.31177 0.18183 0.0
C2231 C 0.06207 0.34493 0.18954 0.0
H2232 H 0.60616 0.57355 0.20061 0.0
H2233 H 0.52255 0.56863 0.1677 0.0
H2234 H 0.55531 0.63285 0.16464 0.0
H2235 H 0.62835 0.65503 0.22406 0.0
H2236 H 0.67445 0.66986 0.22404 0.0
H2237 H 0.64326 0.62383 0.22457 0.0
H2238 H 0.67199 0.61508 0.19601 0.0
H2239 H 0.70286 0.66115 0.1952 0.0
H2240 H 0.67585 0.6396 0.17583 0.0
H2241 H 0.59812 0.69616 0.16356 0.0
H2242 H 0.64633 0.75652 0.16683 0.0
H2243 H 0.70277 0.72071 0.20041 0.0
C2244 C 0.59451 0.58611 0.19304 0.0
C2245 C 0.5619 0.56644 0.18441 0.0
C2246 C 0.54747 0.58348 0.17447 0.0
C2247 C 0.56593 0.61981 0.1726 0.0
C2248 C 0.59856 0.63841 0.18081 0.0
C2249 C 0.61257 0.62229 0.19103 0.0
C2250 C 0.64845 0.64834 0.19815 0.0
C2251 C 0.64862 0.64933 0.21894 0.0
C2252 C 0.67643 0.64056 0.19085 0.0
C2253 C 0.65252 0.68164 0.19019 0.0
C2254 C 0.62341 0.67519 0.18022 0.0
C2255 C 0.62087 0.70162 0.17148 0.0
C2256 C 0.64839 0.73577 0.17343 0.0
C2257 C 0.67804 0.74314 0.184 0.0
C2258 C 0.68045 0.71567 0.1922 0.0
H2259 H 0.31217 0.94441 0.03707 0.0
H2260 H 0.22975 0.9143 0.99739 0.0
H2261 H 0.24352 0.97536 0.99485 0.0
H2262 H 0.29671 0.00634 0.05982 0.0
H2263 H 0.34202 0.03729 0.06413 0.0
H2264 H 0.32779 0.99153 0.0621 0.0
H2265 H 0.37298 0.00477 0.03663 0.0
H2266 H 0.38778 0.05063 0.03879 0.0
H2267 H 0.37337 0.02944 1.01715 0.0
H2268 H 0.26392 0.03805 0.99721 0.0
H2269 H 0.29327 0.10139 1.00294 0.0
H2270 H 0.36177 0.09193 0.04172 0.0
C2271 C 0.2977 0.95102 0.02759 0.0
C2272 C 0.27011 0.92502 1.01733 0.0
C2273 C 0.25101 0.93411 1.00534 0.0
C2274 C 0.25856 0.96861 1.00382 0.0
C2275 C 0.28513 0.9936 1.01451 0.0
C2276 C 0.30466 0.98549 0.02606 0.0
C2277 C 0.33106 0.01751 0.03636 0.0
C2278 C 0.32396 0.01288 0.05681 0.0
C2279 C 0.36852 0.0261 0.03196 0.0
C2280 C 0.32331 0.04469 0.02866 0.0
C2281 C 0.29661 0.03017 1.01613 0.0
C2282 C 0.28489 0.04985 1.00698 0.0
C2283 C 0.30156 0.08569 1.01038 0.0
C2284 C 0.3295 0.10128 0.02282 0.0
C2285 C 0.34015 0.08047 0.03229 0.0
H2286 H 0.04291 0.36364 0.03222 0.0
H2287 H 0.08032 0.30749 0.99971 0.0
H2288 H 0.02026 0.25707 0.99791 0.0
H2289 H 0.9806 0.28791 0.05802 0.0
H2290 H 0.94902 0.30229 0.0592 0.0
H2291 H 0.99491 0.33386 0.05784 0.0
H2292 H 0.98378 0.36128 0.02943 0.0
H2293 H 0.93789 0.33003 0.0308 0.0
H2294 H 0.96151 0.33392 1.01027 0.0
H2295 H 0.9552 0.21479 0.99774 0.0
H2296 H 0.89065 0.183 1.00059 0.0
H2297 H 0.89749 0.26485 0.03555 0.0
C2298 C 0.03833 0.34076 0.02466 0.0
C2299 C 0.06591 0.3394 1.01592 0.0
C2300 C 0.0593 0.30889 1.00645 0.0
C2301 C 0.02537 0.28018 1.00538 0.0
C2302 C -0.00136 0.28223 1.01421 0.0
C2303 C 0.00483 0.3116 0.02384 0.0
C2304 C 0.97173 0.30705 0.03233 0.0
C2305 C 0.97422 0.30782 0.05307 0.0
C2306 C 0.96323 0.3347 0.02528 0.0
C2307 C 0.94578 0.27099 0.02551 0.0
C2308 C 0.9617 0.25706 1.01505 0.0
C2309 C 0.94249 0.22511 1.00619 0.0
C2310 C 0.90597 0.20723 1.00788 0.0
C2311 C 0.88939 0.22126 0.01852 0.0
C2312 C 0.90963 0.25315 0.02768 0.0
H2313 H 0.76791 0.69247 1.00209 0.0
H2314 H 0.75523 0.65552 0.05744 0.0
H2315 H 0.71191 0.67386 0.0628 0.0
H2316 H 0.75556 0.76922 1.0125 0.0
H2317 H 0.73223 0.76403 0.99169 0.0
H2318 H 0.76571 0.75215 0.99272 0.0
H2319 H 0.72124 0.69026 0.98123 0.0
H2320 H 0.68746 0.70164 0.98051 0.0
H2321 H 0.68114 0.66449 0.99352 0.0
H2322 H 0.66359 0.6858 0.06087 0.0
H2323 H 0.61829 0.70059 0.0532 0.0
H2324 H 0.66391 0.73516 1.00008 0.0
C2325 C 0.75683 0.68941 1.01547 0.0
C2326 C 0.76484 0.67265 0.02938 0.0
C2327 C 0.74943 0.66837 0.04663 0.0
C2328 C 0.72476 0.67863 0.04981 0.0
C2329 C 0.71617 0.69362 0.03566 0.0
C2330 C 0.73222 0.6999 0.01896 0.0
C2331 C 0.71672 0.71509 1.00595 0.0
C2332 C 0.7442 0.75234 1.00039 0.0
C2333 C 0.7007 0.69145 0.98933 0.0
C2334 C 0.68872 0.71508 0.01781 0.0
C2335 C 0.68889 0.70235 0.03486 0.0
C2336 C 0.66373 0.69672 0.04777 0.0
C2337 C 0.63804 0.70499 0.04328 0.0
C2338 C 0.63817 0.71935 0.02623 0.0
C2339 C 0.66377 0.72457 1.0133 0.0
H2340 H 0.72055 0.01195 0.8612 0.0
H2341 H 0.74545 0.0935 0.82171 0.0
H2342 H 0.6855 0.08358 0.82389 0.0
H2343 H 0.63039 0.95415 0.84695 0.0
H2344 H 0.61447 0.94155 0.86971 0.0
H2345 H 0.65885 0.95374 0.86429 0.0
H2346 H 0.68117 0.00101 0.88955 0.0
H2347 H 0.63666 0.98848 0.8949 0.0
H2348 H 0.66746 0.03317 0.88935 0.0
H2349 H 0.62359 0.0656 0.83037 0.0
H2350 H 0.56194 0.03847 0.83999 0.0
H2351 H 0.57738 0.97073 0.87655 0.0
C2352 C 0.71299 0.02707 0.85276 0.0
C2353 C 0.7373 0.05317 0.84111 0.0
C2354 C 0.72699 0.07324 0.83062 0.0
C2355 C 0.6931 0.0679 0.83181 0.0
C2356 C 0.66993 0.04266 0.84374 0.0
C2357 C 0.67925 0.02244 0.854 0.0
C2358 C 0.64936 -0.00226 0.8661 0.0
C2359 C 0.63757 0.95953 0.86148 0.0
C2360 C 0.65928 0.00557 0.88617 0.0
C2361 C 0.62188 0.00713 0.86091 0.0
C2362 C 0.63436 0.03312 0.84799 0.0
C2363 C 0.61354 0.04541 0.84058 0.0
C2364 C 0.57869 0.03005 0.84619 0.0
C2365 C 0.56523 0.00304 0.8592 0.0
C2366 C 0.5873 0.99193 0.86689 0.0
H2367 H 0.9729 0.69217 0.85954 0.0
H2368 H 0.90966 0.65305 0.81117 0.0
H2369 H 0.92365 0.60555 0.80919 0.0
H2370 H 0.04029 0.67089 0.84709 0.0
H2371 H 0.04371 0.65773 0.8697 0.0
H2372 H 0.03118 0.69028 0.86624 0.0
H2373 H 0.97512 0.65315 0.88508 0.0
H2374 H 0.98715 0.62018 0.88832 0.0
H2375 H 0.94544 0.60868 0.87851 0.0
H2376 H 0.94372 0.56186 0.81274 0.0
H2377 H 0.96925 0.52532 0.82146 0.0
H2378 H 0.01579 0.59017 0.86877 0.0
C2379 C 0.96286 0.67409 0.84829 0.0
C2380 C 0.94084 0.67647 0.83527 0.0
C2381 C 0.92698 0.65173 0.82111 0.0
C2382 C 0.93466 0.62466 0.81992 0.0
C2383 C 0.95574 0.62239 0.83321 0.0
C2384 C 0.96967 0.64641 0.84714 0.0
C2385 C 0.98997 0.63687 0.8602 0.0
C2386 C 0.02858 0.66565 0.86084 0.0
C2387 C 0.97343 0.62927 0.87915 0.0
C2388 C 0.98552 0.60397 0.85137 0.0
C2389 C 0.96579 0.59614 0.83578 0.0
C2390 C 0.95902 0.56758 0.82499 0.0
C2391 C 0.97343 0.54688 0.83007 0.0
C2392 C 0.99397 0.55466 0.84589 0.0
C2393 C -0.00039 0.58325 0.85678 0.0
H2394 H 0.28887 0.26755 0.86261 0.0
H2395 H 0.36323 0.23677 0.8449 0.0
H2396 H 0.41155 0.29634 0.85032 0.0
H2397 H 0.33238 0.3532 0.84316 0.0
H2398 H 0.3227 0.37331 0.86176 0.0
H2399 H 0.29381 0.32796 0.85666 0.0
H2400 H 0.30028 0.31171 0.88954 0.0
H2401 H 0.3296 0.35702 0.89469 0.0
H2402 H 0.34317 0.32528 0.8984 0.0
H2403 H 0.45152 0.35906 0.85628 0.0
H2404 H 0.48087 0.42254 0.86196 0.0
H2405 H 0.38161 0.41272 0.8772 0.0
C2406 C 0.31531 0.2735 0.85978 0.0
C2407 C 0.32235 0.24764 0.85333 0.0
C2408 C 0.35728 0.2562 0.84994 0.0
C2409 C 0.38493 0.28992 0.853 0.0
C2410 C 0.37726 0.31471 0.85962 0.0
C2411 C 0.3434 0.30706 0.86298 0.0
C2412 C 0.34256 0.33882 0.86993 0.0
C2413 C 0.32163 0.34892 0.85711 0.0
C2414 C 0.32804 0.33284 0.88929 0.0
C2415 C 0.38115 0.36556 0.86954 0.0
C2416 C 0.40067 0.35099 0.86363 0.0
C2417 C 0.43666 0.37078 0.86115 0.0
C2418 C 0.45309 0.40669 0.86443 0.0
C2419 C 0.43349 0.42216 0.87022 0.0
C2420 C 0.39723 0.40127 0.87315 0.0
H2421 H 0.61831 0.90143 0.99965 0.0
H2422 H 0.69617 0.89571 0.03285 0.0
H2423 H 0.72915 0.96008 0.0351 0.0
H2424 H 0.67761 0.98161 0.97546 0.0
H2425 H 0.64726 -0.00242 0.97568 0.0
H2426 H 0.63128 0.9513 0.97555 0.0
H2427 H 0.59543 0.94448 1.00452 0.0
H2428 H 0.61158 0.99076 1.00484 0.0
H2429 H 0.61739 0.96973 0.02432 0.0
H2430 H 0.75279 0.02425 0.03427 0.0
H2431 H 0.76578 0.08492 0.03086 0.0
H2432 H 0.67098 0.04935 0.99944 0.0
C2433 C 0.64263 0.91384 1.00712 0.0
C2434 C 0.65506 0.89385 1.01592 0.0
C2435 C 0.68649 0.91074 0.02591 0.0
C2436 C 0.70531 0.9472 0.02727 0.0
C2437 C 0.69209 0.96619 0.01869 0.0
C2438 C 0.66148 0.95018 1.00882 0.0
C2439 C 0.65222 0.97665 1.00164 0.0
C2440 C 0.65209 0.97679 0.98085 0.0
C2441 C 0.61707 0.97 1.00929 0.0
C2442 C 0.68233 0.01003 1.0091 0.0
C2443 C 0.70513 0.00333 0.01875 0.0
C2444 C 0.73516 0.02985 0.02675 0.0
C2445 C 0.74229 0.06422 0.02472 0.0
C2446 C 0.71932 0.0718 1.01493 0.0
C2447 C 0.6888 0.04427 1.00715 0.0
H2448 H 0.93659 0.64414 0.02848 0.0
H2449 H 0.90823 0.66756 0.97642 0.0
H2450 H 0.96946 0.71426 0.97157 0.0
H2451 H 0.99396 0.73293 0.04078 0.0
H2452 H 0.02477 0.7244 0.05238 0.0
H2453 H 0.97948 0.69103 0.05115 0.0
H2454 H -0.00342 0.64829 0.03672 0.0
H2455 H 0.04195 0.68133 0.03818 0.0
H2456 H 0.02346 0.6613 1.01672 0.0
H2457 H 0.03384 0.75705 0.97221 0.0
H2458 H 0.09693 0.79447 0.9787 0.0
H2459 H 0.08161 0.74729 0.03171 0.0
C2460 C 0.94363 0.65875 1.01594 0.0
C2461 C 0.91834 0.65219 1.00262 0.0
C2462 C 0.92772 0.67227 0.98661 0.0
C2463 C 0.96226 0.69878 0.98379 0.0
C2464 C 0.98664 0.70519 0.99734 0.0
C2465 C 0.97776 0.6859 1.01314 0.0
C2466 C 0.00851 0.69918 0.02591 0.0
C2467 C 0.00123 0.71269 0.0436 0.0
C2468 C 0.0182 0.67084 0.02959 0.0
C2469 C 0.03617 0.72873 1.01475 0.0
C2470 C 0.02311 0.73155 0.99825 0.0
C2471 C 0.04428 0.75548 0.98518 0.0
C2472 C 0.07992 0.77664 0.98898 0.0
C2473 C 0.09363 0.77411 1.0058 0.0
C2474 C 0.07141 0.75033 0.01894 0.0
H2475 H 0.27551 0.37642 0.02818 0.0
H2476 H 0.19028 0.29657 0.99665 0.0
H2477 H 0.22118 0.26297 0.99504 0.0
H2478 H 0.34379 0.37379 1.00323 0.0
H2479 H 0.37117 0.38134 0.02271 0.0
H2480 H 0.34164 0.39826 0.02218 0.0
H2481 H 0.31354 0.36618 0.05215 0.0
H2482 H 0.343 0.34917 0.05278 0.0
H2483 H 0.29652 0.31979 0.0537 0.0
H2484 H 0.26035 0.23797 0.99728 0.0
H2485 H 0.3073 0.22411 1.00145 0.0
H2486 H 0.36948 0.32206 0.02986 0.0
C2487 C 0.26331 0.35171 0.02107 0.0
C2488 C 0.23047 0.33872 1.01266 0.0
C2489 C 0.21541 0.30672 1.0032 0.0
C2490 C 0.23272 0.28752 1.00225 0.0
C2491 C 0.26517 0.30107 1.01063 0.0
C2492 C 0.28053 0.33256 0.01971 0.0
C2493 C 0.31629 0.34189 0.02686 0.0
C2494 C 0.34491 0.37583 0.01822 0.0
C2495 C 0.31738 0.34439 0.0476 0.0
C2496 C 0.31856 0.31059 0.02044 0.0
C2497 C 0.28858 0.28726 1.01128 0.0
C2498 C 0.28396 0.25601 1.00439 0.0
C2499 C 0.31071 0.24833 1.00693 0.0
C2500 C 0.34186 0.272 1.01605 0.0
C2501 C 0.34594 0.30364 0.02279 0.0
H2502 H 0.09112 0.35461 0.53418 0.0
H2503 H 0.09832 0.29787 0.48812 0.0
H2504 H 0.03405 0.26753 0.48466 0.0
H2505 H 0.00945 0.28509 0.55243 0.0
H2506 H 0.99406 0.31435 0.5589 0.0
H2507 H 0.04021 0.32964 0.55838 0.0
H2508 H 0.04928 0.3795 0.5367 0.0
H2509 H 0.00312 0.36412 0.53698 0.0
H2510 H 0.02519 0.36898 0.51578 0.0
H2511 H 0.96969 0.24438 0.48598 0.0
H2512 H 0.90885 0.22932 0.49194 0.0
H2513 H 0.94377 0.30361 0.5362 0.0
C2514 C 0.07906 0.33537 0.52356 0.0
C2515 C 0.0994 0.32817 0.5115 0.0
C2516 C 0.08298 0.30342 0.49754 0.0
C2517 C 0.04661 0.2862 0.49547 0.0
C2518 C 0.02731 0.29438 0.50738 0.0
C2519 C 0.04292 0.31836 0.52115 0.0
C2520 C 0.01637 0.32342 0.53167 0.0
C2521 C 0.01494 0.31246 0.55152 0.0
C2522 C 0.02395 0.36125 0.53019 0.0
C2523 C 0.98333 0.29851 0.52165 0.0
C2524 C 0.99026 0.2819 0.50776 0.0
C2525 C 0.96394 0.25718 0.4968 0.0
C2526 C 0.92953 0.2488 0.50031 0.0
C2527 C 0.92183 0.26538 0.51451 0.0
C2528 C 0.94911 0.29088 0.52515 0.0
H2529 H 0.6383 0.71849 0.49315 0.0
H2530 H 0.69761 0.79832 0.53309 0.0
H2531 H 0.72359 0.76354 0.54418 0.0
H2532 H 0.61778 0.64582 0.52173 0.0
H2533 H 0.62134 0.61972 0.50406 0.0
H2534 H 0.6088 0.65163 0.49862 0.0
H2535 H 0.65969 0.68075 0.47576 0.0
H2536 H 0.67271 0.64914 0.48099 0.0
H2537 H 0.70362 0.6951 0.4832 0.0
H2538 H 0.74342 0.72069 0.55048 0.0
H2539 H 0.75685 0.6727 0.5513 0.0
H2540 H 0.68136 0.61895 0.50875 0.0
C2541 C 0.65721 0.72888 0.50403 0.0
C2542 C 0.66646 0.76117 0.51217 0.0
C2543 C 0.69064 0.77373 0.5266 0.0
C2544 C 0.70529 0.75411 0.53303 0.0
C2545 C 0.69502 0.72192 0.52498 0.0
C2546 C 0.67159 0.70939 0.51079 0.0
C2547 C 0.66441 0.67373 0.50475 0.0
C2548 C 0.62579 0.6461 0.50746 0.0
C2549 C 0.67579 0.67474 0.485 0.0
C2550 C 0.68766 0.66821 0.51769 0.0
C2551 C 0.70516 0.6964 0.52922 0.0
C2552 C 0.72959 0.69829 0.54171 0.0
C2553 C 0.73693 0.67099 0.54214 0.0
C2554 C 0.71945 0.64214 0.53038 0.0
C2555 C 0.69413 0.64037 0.51823 0.0
H2556 H 0.25365 0.89913 0.5356 0.0
H2557 H 0.1807 0.89785 0.49599 0.0
H2558 H 0.21318 0.9625 0.4955 0.0
H2559 H 0.27184 0.98048 0.5596 0.0
H2560 H 0.31723 0.99352 0.56243 0.0
H2561 H 0.28465 0.94787 0.56194 0.0
H2562 H 0.3182 0.93833 0.5359 0.0
H2563 H 0.35048 0.98394 0.53603 0.0
H2564 H 0.32731 0.96366 0.51547 0.0
H2565 H 0.25726 0.02626 0.49684 0.0
H2566 H 0.30883 0.08487 0.50029 0.0
H2567 H 0.35439 0.04351 0.53791 0.0
C2568 C 0.24389 0.91248 0.52722 0.0
C2569 C 0.21464 0.89382 0.51592 0.0
C2570 C 0.20293 0.91194 0.50486 0.0
C2571 C 0.22121 0.94853 0.5045 0.0
C2572 C 0.2509 0.96619 0.5153 0.0
C2573 C 0.26199 0.94875 0.52656 0.0
C2574 C 0.29648 0.97339 0.53547 0.0
C2575 C 0.29229 0.97384 0.55608 0.0
C2576 C 0.32477 0.96427 0.5304 0.0
C2577 C 0.3037 0.0074 0.52704 0.0
C2578 C 0.27684 0.00279 0.51568 0.0
C2579 C 0.27815 0.03026 0.5059 0.0
C2580 C 0.30754 0.06339 0.50795 0.0
C2581 C 0.33536 0.06852 0.51945 0.0
C2582 C 0.33343 0.04017 0.52905 0.0
H2583 H 0.014 0.42228 0.37749 0.0
H2584 H 0.94704 0.42979 0.337 0.0
H2585 H 0.9193 0.36634 0.33147 0.0
H2586 H 0.03095 0.3644 0.35423 0.0
H2587 H 0.03035 0.33939 0.37359 0.0
H2588 H 0.04205 0.38438 0.37628 0.0
H2589 H 0.99325 0.36713 0.4002 0.0
H2590 H 0.98197 0.32214 0.39792 0.0
H2591 H 0.94909 0.33435 0.39473 0.0
H2592 H 0.90312 0.30436 0.32832 0.0
H2593 H 0.89445 0.245 0.32971 0.0
H2594 H 0.97276 0.27733 0.37193 0.0
C2595 C 0.99279 0.41035 0.36784 0.0
C2596 C 0.98233 0.43065 0.35774 0.0
C2597 C 0.95501 0.41446 0.345 0.0
C2598 C 0.93932 0.37857 0.3417 0.0
C2599 C 0.95127 0.35951 0.35135 0.0
C2600 C 0.97694 0.37463 0.36438 0.0
C2601 C 0.98607 0.34852 0.37223 0.0
C2602 C 0.02464 0.35987 0.36887 0.0
C2603 C 0.97705 0.34269 0.39247 0.0
C2604 C 0.96207 0.31652 0.36125 0.0
C2605 C 0.94218 0.32355 0.34937 0.0
C2606 C 0.91824 0.29843 0.33768 0.0
C2607 C 0.91364 0.26488 0.33854 0.0
C2608 C 0.93297 0.25675 0.35094 0.0
C2609 C 0.95799 0.28304 0.36221 0.0
H2610 H 0.71561 0.69967 0.37506 0.0
H2611 H 0.74952 0.64801 0.337 0.0
H2612 H 0.68917 0.5992 0.33433 0.0
H2613 H 0.65312 0.62072 0.39799 0.0
H2614 H 0.62161 0.6347 0.40144 0.0
H2615 H 0.66745 0.6665 0.40016 0.0
H2616 H 0.65538 0.69828 0.37411 0.0
H2617 H 0.60948 0.66688 0.37549 0.0
H2618 H 0.63219 0.67401 0.3543 0.0
H2619 H 0.62609 0.55673 0.33528 0.0
H2620 H 0.56208 0.52328 0.33912 0.0
H2621 H 0.56848 0.60035 0.37758 0.0
C2622 C 0.71003 0.67823 0.36603 0.0
C2623 C 0.73687 0.67742 0.35616 0.0
C2624 C 0.72908 0.64884 0.34469 0.0
C2625 C 0.695 0.62103 0.3431 0.0
C2626 C 0.66912 0.62205 0.35327 0.0
C2627 C 0.67604 0.6498 0.3645 0.0
C2628 C 0.64323 0.64382 0.37407 0.0
C2629 C 0.64656 0.64128 0.39463 0.0
C2630 C 0.63456 0.67245 0.36919 0.0
C2631 C 0.61684 0.60885 0.3661 0.0
C2632 C 0.63247 0.59673 0.35423 0.0
C2633 C 0.61346 0.56571 0.34464 0.0
C2634 C 0.57723 0.54687 0.34694 0.0
C2635 C 0.56064 0.55916 0.35875 0.0
C2636 C 0.58072 0.59016 0.36869 0.0
H2637 H 0.28347 0.00962 0.35111 0.0
H2638 H 0.34517 0.10238 0.38345 0.0
H2639 H 0.39184 0.08746 0.38595 0.0
H2640 H 0.31108 0.95299 0.37337 0.0
H2641 H 0.31253 0.93305 0.35238 0.0
H2642 H 0.28225 0.94877 0.35509 0.0
H2643 H 0.30765 0.98702 0.32645 0.0
H2644 H 0.33823 0.97172 0.32377 0.0
H2645 H 0.35379 0.01785 0.32529 0.0
H2646 H 0.43294 0.06422 0.38363 0.0
H2647 H 0.46593 0.03407 0.37638 0.0
H2648 H 0.37916 0.95913 0.34376 0.0
C2649 C 0.30654 0.02636 0.35898 0.0
C2650 C 0.31087 0.05703 0.36712 0.0
C2651 C 0.34158 0.07876 0.37707 0.0
C2652 C 0.36813 0.07048 0.3786 0.0
C2653 C 0.36366 0.04063 0.36992 0.0
C2654 C 0.33367 0.01889 0.36029 0.0
C2655 C 0.33655 0.9899 0.3511 0.0
C2656 C 0.30897 0.95406 0.35843 0.0
C2657 C 0.33391 0.99176 0.33043 0.0
C2658 C 0.37295 -0.00097 0.3569 0.0
C2659 C 0.38798 0.02809 0.36794 0.0
C2660 C 0.42148 0.04139 0.37502 0.0
C2661 C 0.44003 0.02427 0.3708 0.0
C2662 C 0.42508 0.99464 0.35944 0.0
C2663 C 0.39126 0.98201 0.35235 0.0
H2664 H 0.10041 0.37611 0.07768 0.0
H2665 H 0.19594 0.38062 0.06002 0.0
H2666 H 0.19251 0.34362 0.08616 0.0
H2667 H 0.11465 0.37916 0.12495 0.0
H2668 H 0.0698 0.34853 0.13037 0.0
H2669 H 0.08009 0.37519 0.11043 0.0
H2670 H 0.04629 0.31996 0.09049 0.0
H2671 H 0.03531 0.29323 0.11045 0.0
H2672 H 0.05704 0.28572 0.09183 0.0
H2673 H 0.17983 0.30939 0.11637 0.0
H2674 H 0.15422 0.27363 0.1441 0.0
H2675 H 0.06494 0.28852 0.13928 0.0
C2676 C 0.12047 0.36906 0.07925 0.0
C2677 C 0.14849 0.38113 0.06697 0.0
C2678 C 0.17413 0.37127 0.06928 0.0
C2679 C 0.17251 0.35058 0.08415 0.0
C2680 C 0.14474 0.33962 0.0963 0.0
C2681 C 0.11879 0.34797 0.09368 0.0
C2682 C 0.09088 0.33205 0.10806 0.0
C2683 C 0.08876 0.36043 0.1191 0.0
C2684 C 0.05529 0.3062 0.09971 0.0
C2685 C 0.10515 0.31353 0.11933 0.0
C2686 C 0.13655 0.31861 0.11266 0.0
C2687 C 0.15503 0.30493 0.12152 0.0
C2688 C 0.1405 0.28489 0.13729 0.0
C2689 C 0.10759 0.27827 0.14367 0.0
C2690 C 0.09005 0.29305 0.13462 0.0
H2691 H 0.61781 0.73287 0.07917 0.0
H2692 H 0.605 0.82159 0.06691 0.0
H2693 H 0.64319 0.85362 0.09302 0.0
H2694 H 0.6185 0.73877 0.12729 0.0
H2695 H 0.65125 0.72623 0.12994 0.0
H2696 H 0.62226 0.71082 0.11079 0.0
H2697 H 0.67553 0.73664 0.08909 0.0
H2698 H 0.70454 0.75191 0.10822 0.0
H2699 H 0.70816 0.78213 0.09087 0.0
H2700 H 0.68167 0.87435 0.12202 0.0
H2701 H 0.72149 0.88402 0.14794 0.0
H2702 H 0.71026 0.78223 0.13868 0.0
C2703 C 0.62311 0.75911 0.08187 0.0
C2704 C 0.60846 0.77478 0.0711 0.0
C2705 C 0.61608 0.80918 0.07505 0.0
C2706 C 0.63756 0.82742 0.08988 0.0
C2707 C 0.65133 0.8109 0.1004 0.0
C2708 C 0.64466 0.77761 0.09632 0.0
C2709 C 0.66336 0.76572 0.10902 0.0
C2710 C 0.63727 0.73349 0.1199 0.0
C2711 C 0.68945 0.75871 0.09868 0.0
C2712 C 0.68178 0.79747 0.12098 0.0
C2713 C 0.67426 0.82318 0.11611 0.0
C2714 C 0.68792 0.85447 0.12578 0.0
C2715 C 0.71033 0.85972 0.14049 0.0
C2716 C 0.71915 0.83403 0.14506 0.0
C2717 C 0.70433 0.80253 0.13528 0.0
H2718 H 0.21444 0.93457 0.13772 0.0
H2719 H 0.11475 0.84418 0.15094 0.0
H2720 H 0.11869 0.81429 0.12326 0.0
H2721 H 0.20413 0.93217 0.08973 0.0
H2722 H 0.24914 0.94537 0.08527 0.0
H2723 H 0.23756 0.95914 0.10576 0.0
H2724 H 0.26742 0.93229 0.12486 0.0
H2725 H 0.27954 0.91894 0.10442 0.0
H2726 H 0.25497 0.88717 0.12162 0.0
H2727 H 0.13426 0.79551 0.09279 0.0
H2728 H 0.16234 0.78779 0.06535 0.0
H2729 H 0.25208 0.89044 0.07395 0.0
C2730 C 0.19331 0.9085 0.13479 0.0
C2731 C 0.16411 0.89175 0.14633 0.0
C2732 C 0.13731 0.85745 0.1422 0.0
C2733 C 0.1393 0.84042 0.12648 0.0
C2734 C 0.16842 0.858 0.1152 0.0
C2735 C 0.19509 0.8912 0.11939 0.0
C2736 C 0.22434 0.90433 0.10572 0.0
C2737 C 0.22904 0.93719 0.09605 0.0
C2738 C 0.25858 0.91105 0.11469 0.0
C2739 C 0.21011 0.87347 0.09303 0.0
C2740 C 0.17768 0.84701 0.09848 0.0
C2741 C 0.15969 0.81608 0.08852 0.0
C2742 C 0.17567 0.81195 0.07291 0.0
C2743 C 0.20937 0.83845 0.06763 0.0
C2744 C 0.22634 0.86963 0.07773 0.0
H2745 H 0.36999 0.10299 0.46759 0.0
H2746 H 0.39352 0.2075 0.48198 0.0
H2747 H 0.35022 0.2038 0.45949 0.0
H2748 H 0.35972 0.10969 0.42005 0.0
H2749 H 0.32437 0.06539 0.4179 0.0
H2750 H 0.35661 0.07655 0.43535 0.0
H2751 H 0.30744 0.05123 0.45947 0.0
H2752 H 0.27514 0.04036 0.44204 0.0
H2753 H 0.27735 0.06742 0.4608 0.0
H2754 H 0.30543 0.18899 0.43434 0.0
H2755 H 0.26337 0.16429 0.40882 0.0
H2756 H 0.26927 0.06962 0.41134 0.0
C2757 C 0.36608 0.12513 0.46596 0.0
C2758 C 0.38499 0.15554 0.47651 0.0
C2759 C 0.37907 0.18389 0.47409 0.0
C2760 C 0.35458 0.18201 0.46134 0.0
C2761 C 0.33622 0.15155 0.45116 0.0
C2762 C 0.34172 0.12363 0.45336 0.0
C2763 C 0.31893 0.09396 0.44069 0.0
C2764 C 0.34125 0.08595 0.42773 0.0
C2765 C 0.29319 0.06132 0.45139 0.0
C2766 C 0.30017 0.10973 0.43075 0.0
C2767 C 0.31029 0.14291 0.43702 0.0
C2768 C 0.29709 0.16292 0.42947 0.0
C2769 C 0.27321 0.14876 0.41506 0.0
C2770 C 0.26283 0.115 0.40848 0.0
C2771 C 0.2764 0.09529 0.41645 0.0
H2772 H 0.90105 0.20938 0.40051 0.0
H2773 H 0.84435 0.09826 0.41097 0.0
H2774 H 0.81634 0.1081 0.43771 0.0
H2775 H 0.91958 0.23419 0.44713 0.0
H2776 H 0.91625 0.27294 0.44462 0.0
H2777 H 0.92947 0.25662 0.42571 0.0
H2778 H 0.87932 0.25407 0.40647 0.0
H2779 H 0.86583 0.27027 0.42533 0.0
H2780 H 0.83506 0.22978 0.41465 0.0
H2781 H 0.79407 0.13081 0.46324 0.0
H2782 H 0.78359 0.16456 0.48672 0.0
H2783 H 0.85934 0.2609 0.46093 0.0
C2784 C 0.88235 0.18715 0.40833 0.0
C2785 C 0.87419 0.15299 0.40363 0.0
C2786 C 0.85047 0.12453 0.41436 0.0
C2787 C 0.83449 0.12993 0.4295 0.0
C2788 C 0.84313 0.16402 0.43388 0.0
C2789 C 0.86689 0.19219 0.42371 0.0
C2790 C 0.87357 0.22636 0.43192 0.0
C2791 C 0.91199 0.24883 0.43768 0.0
C2792 C 0.86279 0.24628 0.41881 0.0
C2793 C 0.8496 0.2131 0.44819 0.0
C2794 C 0.83199 0.17708 0.44903 0.0
C2795 C 0.80808 0.15903 0.46281 0.0
C2796 C 0.80249 0.17835 0.47617 0.0
C2797 C 0.82129 0.21524 0.47591 0.0
C2798 C 0.84475 0.23268 0.46157 0.0
H2799 H 0.7737 0.70483 0.41192 0.0
H2800 H 0.87338 0.71307 0.39965 0.0
H2801 H 0.8653 0.67371 0.42549 0.0
H2802 H 0.77986 0.70544 0.45933 0.0
H2803 H 0.73447 0.67402 0.46293 0.0
H2804 H 0.74746 0.70151 0.44322 0.0
H2805 H 0.71777 0.64731 0.4224 0.0
H2806 H 0.70387 0.61957 0.44204 0.0
H2807 H 0.72888 0.61344 0.42466 0.0
H2808 H 0.84699 0.63627 0.45449 0.0
H2809 H 0.81804 0.6002 0.48161 0.0
H2810 H 0.72989 0.61601 0.4733 0.0
C2811 C 0.79378 0.6982 0.41459 0.0
C2812 C 0.82429 0.71208 0.40396 0.0
C2813 C 0.84982 0.70259 0.4077 0.0
C2814 C 0.84546 0.68041 0.42236 0.0
C2815 C 0.81522 0.66771 0.43286 0.0
C2816 C 0.78963 0.67594 0.4289 0.0
C2817 C 0.75944 0.65906 0.442 0.0
C2818 C 0.75509 0.68669 0.45248 0.0
C2819 C 0.72549 0.63331 0.43219 0.0
C2820 C 0.77207 0.64029 0.4542 0.0
C2821 C 0.80437 0.64565 0.44887 0.0
C2822 C 0.82157 0.63168 0.45863 0.0
C2823 C 0.80508 0.61145 0.47405 0.0
C2824 C 0.77179 0.60536 0.47944 0.0
C2825 C 0.75525 0.62004 0.46937 0.0
H2826 H 0.89283 0.68076 0.88619 0.0
H2827 H 0.85813 0.75323 0.90101 0.0
H2828 H 0.83029 0.71855 0.92864 0.0
H2829 H 0.8192 0.60093 0.90386 0.0
H2830 H 0.84638 0.58441 0.91232 0.0
H2831 H 0.85999 0.61266 0.89286 0.0
H2832 H 0.91822 0.65487 0.90885 0.0
H2833 H 0.90485 0.6268 0.92834 0.0
H2834 H 0.91726 0.67206 0.93082 0.0
H2835 H 0.80624 0.6753 0.95481 0.0
H2836 H 0.79394 0.6315 0.97877 0.0
H2837 H 0.85046 0.59187 0.94836 0.0
C2838 C 0.87873 0.68883 0.89511 0.0
C2839 C 0.87682 0.71912 0.8914 0.0
C2840 C 0.85935 0.72977 0.90361 0.0
C2841 C 0.84347 0.71022 0.91927 0.0
C2842 C 0.84606 0.68056 0.92269 0.0
C2843 C 0.86371 0.67023 0.91106 0.0
C2844 C 0.86562 0.63941 0.91862 0.0
C2845 C 0.84666 0.60746 0.90617 0.0
C2846 C 0.90375 0.64887 0.92185 0.0
C2847 C 0.84624 0.6339 0.93631 0.0
C2848 C 0.83461 0.65747 0.93829 0.0
C2849 C 0.81559 0.65699 0.95346 0.0
C2850 C 0.80884 0.63218 0.96706 0.0
C2851 C 0.82182 0.60884 0.96561 0.0
C2852 C 0.84041 0.60959 0.94992 0.0
H2853 H 0.26256 0.19007 0.91092 0.0
H2854 H 0.29727 0.12816 0.88162 0.0
H2855 H 0.34187 0.1408 0.90526 0.0
H2856 H 0.34489 0.25611 0.92649 0.0
H2857 H 0.32941 0.26021 0.94839 0.0
H2858 H 0.30023 0.24576 0.92931 0.0
H2859 H 0.2571 0.18983 0.94678 0.0
H2860 H 0.28616 0.20429 0.96593 0.0
H2861 H 0.27234 0.16213 0.95603 0.0
H2862 H 0.38642 0.16532 0.93115 0.0
H2863 H 0.42268 0.19431 0.95825 0.0
H2864 H 0.35455 0.23492 0.97197 0.0
C2865 C 0.27935 0.1789 0.90954 0.0
C2866 C 0.27683 0.1585 0.89426 0.0
C2867 C 0.2991 0.14421 0.89304 0.0
C2868 C 0.32441 0.15121 0.90645 0.0
C2869 C 0.32657 0.17191 0.92122 0.0
C2870 C 0.30413 0.185 0.92297 0.0
C2871 C 0.31145 0.20627 0.94016 0.0
C2872 C 0.32214 0.24434 0.93582 0.0
C2873 C 0.27988 0.18962 0.95299 0.0
C2874 C 0.34185 0.20359 0.94775 0.0
C2875 C 0.3505 0.18398 0.93656 0.0
C2876 C 0.37938 0.18007 0.94016 0.0
C2877 C 0.39982 0.19658 0.95554 0.0
C2878 C 0.39085 0.21605 0.9673 0.0
C2879 C 0.36137 0.21935 0.9634 0.0
H2880 H 0.77758 0.06317 0.89655 0.0
H2881 H 0.8738 0.15643 0.8819 0.0
H2882 H 0.86598 0.18786 0.90784 0.0
H2883 H 0.73018 0.10568 0.90951 0.0
H2884 H 0.70748 0.07503 0.92746 0.0
H2885 H 0.7219 0.06154 0.9079 0.0
H2886 H 0.75553 0.04131 0.92866 0.0
H2887 H 0.74179 0.05533 0.9483 0.0
H2888 H 0.78761 0.07193 0.94422 0.0
H2889 H 0.84698 0.20754 0.93724 0.0
H2890 H 0.81658 0.21438 0.96399 0.0
H2891 H 0.73317 0.10756 0.95732 0.0
C2892 C 0.7971 0.09026 0.89874 0.0
C2893 C 0.82643 0.10736 0.88735 0.0
C2894 C 0.85112 0.1429 0.89052 0.0
C2895 C 0.84692 0.16081 0.90527 0.0
C2896 C 0.81781 0.14276 0.91652 0.0
C2897 C 0.79321 0.1083 0.91317 0.0
C2898 C 0.76379 0.09438 0.92671 0.0
C2899 C 0.72876 0.08356 0.91734 0.0
C2900 C 0.76211 0.06395 0.93762 0.0
C2901 C 0.7754 0.12626 0.93837 0.0
C2902 C 0.80674 0.154 0.93256 0.0
C2903 C 0.82234 0.18595 0.94175 0.0
C2904 C 0.80507 0.18961 0.95696 0.0
C2905 C 0.77246 0.16158 0.96258 0.0
C2906 C 0.75793 0.12958 0.95324 0.0
H2907 H 0.613 0.88183 0.55938 0.0
H2908 H 0.60756 0.78288 0.54889 0.0
H2909 H 0.64737 0.79332 0.57479 0.0
H2910 H 0.70332 0.92929 0.5712 0.0
H2911 H 0.69752 0.95477 0.58843 0.0
H2912 H 0.66802 0.93845 0.56951 0.0
H2913 H 0.61562 0.90834 0.59145 0.0
H2914 H 0.64491 0.9243 0.61048 0.0
H2915 H 0.61483 0.87823 0.60811 0.0
H2916 H 0.68741 0.81505 0.60302 0.0
H2917 H 0.72629 0.84748 0.62881 0.0
H2918 H 0.7062 0.93254 0.61946 0.0
C2919 C 0.62005 0.86225 0.56257 0.0
C2920 C 0.60719 0.83151 0.55213 0.0
C2921 C 0.61729 0.80671 0.55665 0.0
C2922 C 0.63974 0.81237 0.5714 0.0
C2923 C 0.65193 0.84303 0.58148 0.0
C2924 C 0.64249 0.8676 0.57713 0.0
C2925 C 0.65964 0.8988 0.58966 0.0
C2926 C 0.68357 0.93232 0.57907 0.0
C2927 C 0.6321 0.90262 0.60057 0.0
C2928 C 0.68046 0.88823 0.60173 0.0
C2929 C 0.67545 0.85581 0.59702 0.0
C2930 C 0.69159 0.84054 0.60669 0.0
C2931 C 0.71356 0.85905 0.62134 0.0
C2932 C 0.71951 0.89261 0.62602 0.0
C2933 C 0.70251 0.90709 0.61608 0.0
H2934 H 0.10409 0.7284 0.56541 0.0
H2935 H 0.20726 0.81662 0.5558 0.0
H2936 H 0.19957 0.84781 0.58171 0.0
H2937 H 0.06293 0.7778 0.57759 0.0
H2938 H 0.03539 0.74683 0.59445 0.0
H2939 H 0.05004 0.73232 0.57539 0.0
H2940 H 0.0763 0.70535 0.59705 0.0
H2941 H 0.06141 0.71986 0.61602 0.0
H2942 H 0.10687 0.73248 0.61418 0.0
H2943 H 0.18019 0.86832 0.61002 0.0
H2944 H 0.14925 0.87763 0.63563 0.0
H2945 H 0.05868 0.77633 0.62532 0.0
C2946 C 0.12508 0.75432 0.56875 0.0
C2947 C 0.15619 0.77024 0.55852 0.0
C2948 C 0.18298 0.8042 0.56326 0.0
C2949 C 0.17894 0.82194 0.57808 0.0
C2950 C 0.14791 0.80535 0.58798 0.0
C2951 C 0.12137 0.77235 0.58336 0.0
C2952 C 0.09024 0.76032 0.59578 0.0
C2953 C 0.05772 0.75397 0.58516 0.0
C2954 C 0.08334 0.72758 0.60639 0.0
C2955 C 0.10313 0.79169 0.60807 0.0
C2956 C 0.13662 0.81733 0.60362 0.0
C2957 C 0.15389 0.84843 0.61349 0.0
C2958 C 0.13623 0.8535 0.62803 0.0
C2959 C 0.10154 0.82787 0.63231 0.0
C2960 C 0.08507 0.79662 0.62222 0.0
H2961 H 0.26237 0.36598 0.56974 0.0
H2962 H 0.18045 0.39097 0.56094 0.0
H2963 H 0.14729 0.35282 0.58682 0.0
H2964 H 0.20621 0.27585 0.58107 0.0
H2965 H 0.23602 0.27559 0.59761 0.0
H2966 H 0.25252 0.30495 0.57865 0.0
H2967 H 0.28433 0.35726 0.60062 0.0
H2968 H 0.26778 0.32807 0.61963 0.0
H2969 H 0.25972 0.36407 0.61797 0.0
H2970 H 0.1247 0.3129 0.61532 0.0
H2971 H 0.11313 0.27226 0.64105 0.0
H2972 H 0.20951 0.27302 0.62933 0.0
C2973 C 0.23744 0.36348 0.57324 0.0
C2974 C 0.224 0.38153 0.56342 0.0
C2975 C 0.19112 0.37724 0.56828 0.0
C2976 C 0.17225 0.35578 0.58301 0.0
C2977 C 0.18653 0.33858 0.59258 0.0
C2978 C 0.21829 0.34203 0.58767 0.0
C2979 C 0.22799 0.32049 0.59966 0.0
C2980 C 0.23083 0.29256 0.58859 0.0
C2981 C 0.26196 0.34388 0.61008 0.0
C2982 C 0.19683 0.30431 0.6122 0.0
C2983 C 0.17323 0.31518 0.60815 0.0
C2984 C 0.14295 0.30411 0.61846 0.0
C2985 C 0.13661 0.28116 0.63308 0.0
C2986 C 0.16025 0.2693 0.63708 0.0
C2987 C 0.19067 0.28125 0.62648 0.0
H2988 H 0.93942 0.39233 0.74151 0.0
H2989 H 0.94099 0.48824 0.72768 0.0
H2990 H 0.98404 0.51895 0.75231 0.0
H2991 H 0.94704 0.40428 0.78955 0.0
H2992 H 0.97479 0.38554 0.79201 0.0
H2993 H 0.94365 0.3716 0.77381 0.0
H2994 H 0.99328 0.38747 0.75056 0.0
H2995 H 0.02428 0.40091 0.76878 0.0
H2996 H 0.03086 0.43086 0.75071 0.0
H2997 H 0.02564 0.53776 0.78027 0.0
H2998 H 0.06574 0.54398 0.80545 0.0
H2999 H 0.03939 0.43654 0.79779 0.0
C3000 C 0.94869 0.4198 0.74368 0.0
C3001 C 0.93676 0.43794 0.73282 0.0
C3002 C 0.94992 0.47395 0.73588 0.0
C3003 C 0.9742 0.49148 0.74988 0.0
C3004 C 0.9853 0.47262 0.76046 0.0
C3005 C 0.97323 0.43763 0.75724 0.0
C3006 C 0.98981 0.42318 0.76986 0.0
C3007 C 0.96217 0.39446 0.78202 0.0
C3008 C 0.0108 0.40983 0.75933 0.0
C3009 C 0.01348 0.4555 0.78063 0.0
C3010 C 0.01014 0.48369 0.77541 0.0
C3011 C 0.02864 0.51586 0.78424 0.0
C3012 C 0.05128 0.51919 0.79852 0.0
C3013 C 0.05571 0.49075 0.80351 0.0
C3014 C 0.0366 0.45873 0.79434 0.0
H3015 H 0.54236 0.52867 0.72845 0.0
H3016 H 0.54541 0.44053 0.75166 0.0
H3017 H 0.51866 0.44674 0.77979 0.0
H3018 H 0.57106 0.57884 0.76715 0.0
H3019 H 0.54547 0.59994 0.76441 0.0
H3020 H 0.55782 0.58433 0.74492 0.0
H3021 H 0.49295 0.54711 0.73551 0.0
H3022 H 0.48032 0.56285 0.75493 0.0
H3023 H 0.46164 0.51661 0.75138 0.0
H3024 H 0.4973 0.46629 0.80643 0.0
H3025 H 0.48593 0.49935 0.82981 0.0
H3026 H 0.50115 0.57755 0.79008 0.0
C3027 C 0.53589 0.50983 0.73918 0.0
C3028 C 0.54464 0.48334 0.73776 0.0
C3029 C 0.53788 0.46034 0.75241 0.0
C3030 C 0.52278 0.46374 0.76842 0.0
C3031 C 0.51527 0.49076 0.76965 0.0
C3032 C 0.52171 0.51353 0.75543 0.0
C3033 C 0.51577 0.54312 0.76103 0.0
C3034 C 0.54953 0.57864 0.75927 0.0
C3035 C 0.48588 0.54236 0.75006 0.0
C3036 C 0.50555 0.53379 0.78067 0.0
C3037 C 0.50482 0.50318 0.7853 0.0
C3038 C 0.49749 0.49013 0.8029 0.0
C3039 C 0.49113 0.50905 0.81614 0.0
C3040 C 0.49269 0.54089 0.81179 0.0
C3041 C 0.49958 0.5531 0.79377 0.0
H3042 H 0.44665 0.04098 0.74424 0.0
H3043 H 0.55125 0.05997 0.73422 0.0
H3044 H 0.54472 0.02057 0.75985 0.0
H3045 H 0.44828 0.03893 0.79195 0.0
H3046 H 0.40355 0.00445 0.79399 0.0
H3047 H 0.41684 0.03348 0.77489 0.0
H3048 H 0.39333 0.98079 0.75307 0.0
H3049 H 0.37981 0.9514 0.77202 0.0
H3050 H 0.40852 0.94997 0.75517 0.0
H3051 H 0.52658 0.98154 0.78875 0.0
H3052 H 0.49639 0.94148 0.81455 0.0
H3053 H 0.40346 0.94764 0.8033 0.0
C3054 C 0.46822 0.03679 0.74737 0.0
C3055 C 0.49957 0.05361 0.73744 0.0
C3056 C 0.52699 0.04713 0.74172 0.0
C3057 C 0.52352 0.02503 0.7563 0.0
C3058 C 0.49232 0.00941 0.76614 0.0
C3059 C 0.46498 0.01467 0.76155 0.0
C3060 C 0.43375 0.9946 0.77371 0.0
C3061 C 0.42512 0.01935 0.78425 0.0
C3062 C 0.402 0.96758 0.76284 0.0
C3063 C 0.44767 0.9773 0.78608 0.0
C3064 C 0.4816 0.9863 0.78179 0.0
C3065 C 0.49989 0.97407 0.79202 0.0
C3066 C 0.4827 0.95155 0.80668 0.0
C3067 C 0.44758 0.94132 0.81071 0.0
C3068 C 0.43021 0.95471 0.80036 0.0
H3069 H 0.54305 0.01443 0.21431 0.0
H3070 H 0.54742 0.10431 0.24013 0.0
H3071 H 0.5203 0.06929 0.26765 0.0
H3072 H 0.46172 0.94507 0.23628 0.0
H3073 H 0.47961 0.91654 0.23875 0.0
H3074 H 0.49284 0.9466 0.22004 0.0
H3075 H 0.55748 0.97217 0.22938 0.0
H3076 H 0.54463 0.94265 0.24823 0.0
H3077 H 0.5709 0.98899 0.25194 0.0
H3078 H 0.49763 0.02602 0.29329 0.0
H3079 H 0.48506 0.97941 0.31555 0.0
H3080 H 0.50005 0.91931 0.27382 0.0
C3081 C 0.5369 0.02618 0.22551 0.0
C3082 C 0.54611 0.06162 0.22501 0.0
C3083 C 0.53964 0.07688 0.24022 0.0
C3084 C 0.5243 0.05721 0.25587 0.0
C3085 C 0.51622 0.02245 0.25619 0.0
C3086 C 0.52247 0.0071 0.24143 0.0
C3087 C 0.51578 0.9709 0.24605 0.0
C3088 C 0.48569 0.94313 0.2346 0.0
C3089 C 0.54918 0.96857 0.24377 0.0
C3090 C 0.50542 0.96854 0.26578 0.0
C3091 C 0.50515 -0.00175 0.27128 0.0
C3092 C 0.4975 0.00252 0.28909 0.0
C3093 C 0.4904 0.97596 0.30166 0.0
C3094 C 0.49163 0.94586 0.29641 0.0
C3095 C 0.49877 0.94202 0.27819 0.0
H3096 H 0.05963 0.58199 0.27908 0.0
H3097 H 0.01528 0.49268 0.31491 0.0
H3098 H 0.97017 0.45837 0.29178 0.0
H3099 H 0.98191 0.57082 0.2598 0.0
H3100 H 0.00012 0.58403 0.23748 0.0
H3101 H 0.028 0.60065 0.25697 0.0
H3102 H 0.06732 0.57779 0.24398 0.0
H3103 H 0.0394 0.56118 0.22445 0.0
H3104 H 0.0481 0.53241 0.2379 0.0
H3105 H 0.92646 0.43606 0.26464 0.0
H3106 H 0.89365 0.42638 0.23587 0.0
H3107 H 0.97204 0.52896 0.21744 0.0
C3108 C 0.04057 0.55512 0.28212 0.0
C3109 C 0.04043 0.54026 0.29906 0.0
C3110 C 0.01533 0.50489 0.30227 0.0
C3111 C 0.98977 0.4852 0.28912 0.0
C3112 C 0.99033 0.50104 0.27264 0.0
C3113 C 0.01569 0.53508 0.26906 0.0
C3114 C 0.0116 0.54628 0.2503 0.0
C3115 C 0.005 0.57727 0.25121 0.0
C3116 C 0.0435 0.55491 0.23846 0.0
C3117 C 0.97955 0.51348 0.24386 0.0
C3118 C 0.96724 0.48766 0.25692 0.0
C3119 C 0.93638 0.45594 0.25426 0.0
C3120 C 0.91787 0.45063 0.23791 0.0
C3121 C 0.93064 0.47659 0.22431 0.0
C3122 C 0.96202 0.50823 0.22738 0.0
H3123 H 0.4486 0.39504 0.23752 0.0
H3124 H 0.5486 0.48608 0.22559 0.0
H3125 H 0.54057 0.51725 0.25151 0.0
H3126 H 0.40461 0.44158 0.24878 0.0
H3127 H 0.37836 0.41128 0.26617 0.0
H3128 H 0.39326 0.39642 0.24736 0.0
H3129 H 0.42204 0.3727 0.26946 0.0
H3130 H 0.40704 0.38743 0.28831 0.0
H3131 H 0.45279 0.40158 0.28605 0.0
H3132 H 0.52113 0.53713 0.28026 0.0
H3133 H 0.48948 0.54592 0.30572 0.0
H3134 H 0.4013 0.44258 0.29649 0.0
C3135 C 0.46895 0.42151 0.24039 0.0
C3136 C 0.49935 0.43815 0.22965 0.0
C3137 C 0.52507 0.47295 0.23365 0.0
C3138 C 0.52078 0.4907 0.24841 0.0
C3139 C 0.49045 0.47332 0.25886 0.0
C3140 C 0.46481 0.43959 0.25479 0.0
C3141 C 0.43382 0.42694 0.26734 0.0
C3142 C 0.40056 0.41858 0.25678 0.0
C3143 C 0.42865 0.3953 0.27844 0.0
C3144 C 0.4458 0.45875 0.27917 0.0
C3145 C 0.47875 0.48515 0.2744 0.0
C3146 C 0.49521 0.51667 0.28394 0.0
C3147 C 0.47719 0.52143 0.29842 0.0
C3148 C 0.4429 0.49506 0.30289 0.0
C3149 C 0.42737 0.46335 0.29322 0.0
H3150 H 0.94196 0.21232 0.30086 0.0
H3151 H 0.95376 0.12455 0.31688 0.0
H3152 H -0.0015 0.13979 0.29303 0.0
H3153 H 0.95205 0.20815 0.25364 0.0
H3154 H 0.97744 0.25468 0.25038 0.0
H3155 H 0.94681 0.23715 0.26879 0.0
H3156 H -0.00392 0.27445 0.29155 0.0
H3157 H 0.02685 0.29228 0.27319 0.0
H3158 H 0.03515 0.27125 0.29186 0.0
H3159 H 0.03685 0.16095 0.26527 0.0
H3160 H 0.07274 0.19133 0.23851 0.0
H3161 H 0.04136 0.26951 0.24265 0.0
C3162 C 0.95414 0.19645 0.29936 0.0
C3163 C 0.94421 0.16699 0.31048 0.0
C3164 C 0.96098 0.14711 0.30841 0.0
C3165 C 0.98631 0.15555 0.29489 0.0
C3166 C 0.99513 0.18446 0.28391 0.0
C3167 C 0.98013 0.20509 0.28628 0.0
C3168 C 0.99493 0.23529 0.273 0.0
C3169 C 0.96609 0.2337 0.26073 0.0
C3170 C 0.01441 0.2704 0.283 0.0
C3171 C 0.01997 0.22796 0.26245 0.0
C3172 C 0.01933 0.19824 0.26884 0.0
C3173 C 0.03814 0.18465 0.26042 0.0
C3174 C 0.05832 0.20198 0.24521 0.0
C3175 C 0.06021 0.23301 0.23879 0.0
C3176 C 0.04093 0.24626 0.24758 0.0
H3177 H 0.77317 0.72574 0.30356 0.0
H3178 H 0.86619 0.82251 0.31813 0.0
H3179 H 0.85512 0.85265 0.29308 0.0
H3180 H 0.77901 0.73682 0.25566 0.0
H3181 H 0.73287 0.71927 0.25216 0.0
H3182 H 0.74799 0.70497 0.27115 0.0
H3183 H 0.71379 0.72278 0.293 0.0
H3184 H 0.69842 0.73696 0.27405 0.0
H3185 H 0.72117 0.76669 0.29234 0.0
H3186 H 0.83731 0.87078 0.265 0.0
H3187 H 0.80903 0.87854 0.23803 0.0
H3188 H 0.72367 0.77215 0.24326 0.0
C3189 C 0.79107 0.75329 0.30144 0.0
C3190 C 0.82076 0.77184 0.31257 0.0
C3191 C 0.84339 0.80791 0.30967 0.0
C3192 C 0.83737 0.82519 0.29547 0.0
C3193 C 0.80815 0.80615 0.28456 0.0
C3194 C 0.78492 0.7712 0.28758 0.0
C3195 C 0.75486 0.75732 0.2742 0.0
C3196 C 0.75363 0.72785 0.26261 0.0
C3197 C 0.72 0.74523 0.28399 0.0
C3198 C 0.76525 0.78978 0.26299 0.0
C3199 C 0.79637 0.81745 0.26909 0.0
C3200 C 0.81261 0.84955 0.2603 0.0
C3201 C 0.79645 0.85366 0.24497 0.0
C3202 C 0.76402 0.82612 0.23883 0.0
C3203 C 0.74814 0.79378 0.24797 0.0
H3204 H 0.1916 0.05936 0.29938 0.0
H3205 H 0.26078 0.03349 0.3283 0.0
H3206 H 0.24865 0.98703 0.30622 0.0
H3207 H 0.12756 0.96968 0.28391 0.0
H3208 H 0.12236 0.98427 0.26198 0.0
H3209 H 0.13283 0.01257 0.28132 0.0
H3210 H 0.18697 0.06039 0.26443 0.0
H3211 H 0.17685 0.03205 0.24516 0.0
H3212 H 0.21908 0.05038 0.25578 0.0
H3213 H 0.23325 0.94702 0.28013 0.0
H3214 H 0.21397 0.9138 0.2517 0.0
H3215 H 0.15578 0.96578 0.23806 0.0
C3216 C 0.20312 0.043 0.30131 0.0
C3217 C 0.2261 0.04894 0.31591 0.0
C3218 C 0.24217 0.02838 0.31759 0.0
C3219 C 0.23565 0.00216 0.30501 0.0
C3220 C 0.21342 -0.00277 0.29057 0.0
C3221 C 0.19729 0.01693 0.28858 0.0
C3222 C 0.17663 0.00775 0.271 0.0
C3223 C 0.13752 0.99266 0.27478 0.0
C3224 C 0.19074 0.03954 0.25835 0.0
C3225 C 0.18394 0.98006 0.26344 0.0
C3226 C 0.20516 0.97447 0.27505 0.0
C3227 C 0.21637 0.95092 0.271 0.0
C3228 C 0.20534 0.93223 0.25477 0.0
C3229 C 0.18331 0.93708 0.24268 0.0
C3230 C 0.17259 0.96149 0.24705 0.0
H3231 H 0.92616 0.7274 0.7802 0.0
H3232 H 0.95429 0.82328 0.80884 0.0
H3233 H 0.00196 0.85631 0.78704 0.0
H3234 H 0.01066 0.74575 0.76682 0.0
H3235 H -0.00215 0.72739 0.74449 0.0
H3236 H 0.96661 0.71119 0.76266 0.0
H3237 H 0.9248 0.72418 0.74395 0.0
H3238 H 0.95594 0.74024 0.7257 0.0
H3239 H 0.94041 0.76752 0.73519 0.0
H3240 H 0.04956 0.87801 0.76325 0.0
H3241 H 0.08847 0.88796 0.73705 0.0
H3242 H 0.02452 0.77951 0.72153 0.0
C3243 C 0.94232 0.75536 0.78183 0.0
C3244 C 0.93773 0.77262 0.79677 0.0
C3245 C 0.95878 0.8093 0.79817 0.0
C3246 C 0.98554 0.82834 0.78566 0.0
C3247 C 0.99014 0.81044 0.77139 0.0
C3248 C 0.96855 0.77489 0.76914 0.0
C3249 C 0.97814 0.7622 0.7522 0.0
C3250 C 0.98896 0.73503 0.75683 0.0
C3251 C 0.94803 0.74768 0.73845 0.0
C3252 C 0.00899 0.79598 0.74554 0.0
C3253 C 0.01571 0.82346 0.75689 0.0
C3254 C 0.04419 0.8568 0.7541 0.0
C3255 C 0.06622 0.86221 0.73928 0.0
C3256 C 0.05922 0.83462 0.72727 0.0
C3257 C 0.03012 0.80118 0.7304 0.0
H3258 H 0.14323 0.18835 0.735 0.0
H3259 H 0.23328 0.29191 0.72892 0.0
H3260 H 0.2626 0.28037 0.75407 0.0
H3261 H 0.14556 0.18739 0.78398 0.0
H3262 H 0.13272 0.14192 0.78576 0.0
H3263 H 0.1187 0.15714 0.76668 0.0
H3264 H 0.14586 0.13155 0.74475 0.0
H3265 H 0.15968 0.11598 0.76377 0.0
H3266 H 0.19116 0.14397 0.74722 0.0
H3267 H 0.28275 0.25852 0.77939 0.0
H3268 H 0.29316 0.22705 0.80385 0.0
H3269 H 0.18953 0.13806 0.79594 0.0
C3270 C 0.16923 0.20835 0.73892 0.0
C3271 C 0.18608 0.24107 0.72997 0.0
C3272 C 0.21989 0.26676 0.7356 0.0
C3273 C 0.23677 0.26046 0.74989 0.0
C3274 C 0.21938 0.22839 0.75869 0.0
C3275 C 0.18638 0.20268 0.75352 0.0
C3276 C 0.17362 0.17083 0.76573 0.0
C3277 C 0.14069 0.16392 0.77615 0.0
C3278 C 0.16721 0.13868 0.75471 0.0
C3279 C 0.20469 0.18273 0.77843 0.0
C3280 C 0.23074 0.21602 0.77395 0.0
C3281 C 0.26249 0.23254 0.7831 0.0
C3282 C 0.26815 0.21446 0.797 0.0
C3283 C 0.2421 0.18033 0.80191 0.0
C3284 C 0.20966 0.16439 0.79267 0.0
H3285 H 0.79822 0.06078 0.77684 0.0
H3286 H 0.84885 0.01843 0.8102 0.0
H3287 H 0.83564 0.97281 0.78737 0.0
H3288 H 0.72959 0.97988 0.75903 0.0
H3289 H 0.73142 0.99654 0.73658 0.0
H3290 H 0.74406 0.02548 0.75574 0.0
H3291 H 0.80433 0.06549 0.74093 0.0
H3292 H 0.79173 0.03657 0.72175 0.0
H3293 H 0.83096 0.0472 0.73409 0.0
H3294 H 0.81537 0.93049 0.76132 0.0
H3295 H 0.79186 0.89626 0.73318 0.0
H3296 H 0.75797 0.96804 0.7155 0.0
C3297 C 0.8064 0.04181 0.77933 0.0
C3298 C 0.82385 0.04265 0.79554 0.0
C3299 C 0.83466 0.01775 0.79815 0.0
C3300 C 0.8275 0.99187 0.78517 0.0
C3301 C 0.8101 0.99156 0.76941 0.0
C3302 C 0.80002 0.01609 0.7663 0.0
C3303 C 0.78249 0.01035 0.74795 0.0
C3304 C 0.74464 0.00259 0.74995 0.0
C3305 C 0.80365 0.04178 0.73545 0.0
C3306 C 0.78375 0.97846 0.74142 0.0
C3307 C 0.79973 0.96801 0.75403 0.0
C3308 C 0.80304 0.93859 0.7513 0.0
C3309 C 0.78957 0.91926 0.73531 0.0
C3310 C 0.77328 0.92957 0.72217 0.0
C3311 C 0.77063 0.95974 0.72524 0.0
H3312 H 0.58203 0.49726 0.61968 0.0
H3313 H 0.65012 0.52513 0.66621 0.0
H3314 H 0.70149 0.54811 0.64622 0.0
H3315 H 0.63144 0.4689 0.59175 0.0
H3316 H 0.62391 0.48556 0.57103 0.0
H3317 H 0.59224 0.4714 0.58901 0.0
H3318 H 0.59622 0.53185 0.58912 0.0
H3319 H 0.62781 0.54612 0.57112 0.0
H3320 H 0.63817 0.57068 0.59187 0.0
H3321 H 0.74552 0.5721 0.62138 0.0
H3322 H 0.77961 0.59111 0.59301 0.0
H3323 H 0.68366 0.54317 0.56198 0.0
C3324 C 0.60782 0.50823 0.62557 0.0
C3325 C 0.61229 0.50931 0.64454 0.0
C3326 C 0.64623 0.52354 0.65179 0.0
C3327 C 0.67555 0.53687 0.6405 0.0
C3328 C 0.6704 0.53526 0.62188 0.0
C3329 C 0.63741 0.52092 0.61439 0.0
C3330 C 0.63934 0.52182 0.59387 0.0
C3331 C 0.62062 0.48471 0.58595 0.0
C3332 C 0.62451 0.54394 0.58604 0.0
C3333 C 0.67855 0.53939 0.59106 0.0
C3334 C 0.69591 0.54723 0.60744 0.0
C3335 C 0.73224 0.56557 0.60846 0.0
C3336 C 0.75137 0.57628 0.59233 0.0
C3337 C 0.7342 0.56795 0.57541 0.0
C3338 C 0.69735 0.54902 0.57476 0.0
H3339 H 0.52256 0.11124 0.62461 0.0
H3340 H 0.43358 0.07701 0.66047 0.0
H3341 H 0.40255 0.0903 0.63722 0.0
H3342 H 0.51675 0.18403 0.60589 0.0
H3343 H 0.52911 0.17928 0.5833 0.0
H3344 H 0.54465 0.16565 0.6024 0.0
H3345 H 0.51881 0.10398 0.58845 0.0
H3346 H 0.50304 0.11752 0.56941 0.0
H3347 H 0.47316 0.08003 0.5825 0.0
H3348 H 0.38016 0.10579 0.61082 0.0
H3349 H 0.36861 0.12734 0.58257 0.0
H3350 H 0.47218 0.15603 0.56309 0.0
C3351 C 0.4965 0.10644 0.62742 0.0
C3352 C 0.48046 0.09292 0.64436 0.0
C3353 C 0.4465 0.0874 0.64767 0.0
C3354 C 0.42851 0.09473 0.6345 0.0
C3355 C 0.44484 0.10804 0.61803 0.0
C3356 C 0.47814 0.11428 0.61438 0.0
C3357 C 0.48971 0.13033 0.59566 0.0
C3358 C 0.52197 0.16701 0.59689 0.0
C3359 C 0.49658 0.10652 0.58328 0.0
C3360 C 0.45764 0.13191 0.58951 0.0
C3361 C 0.4321 0.11849 0.60268 0.0
C3362 C 0.39996 0.11653 0.6004 0.0
C3363 C 0.39367 0.12888 0.58428 0.0
C3364 C 0.41945 0.1434 0.57062 0.0
C3365 C 0.45192 0.14489 0.57326 0.0
H3366 H 0.89264 0.40216 0.61996 0.0
H3367 H 0.90843 0.34255 0.66161 0.0
H3368 H 0.88948 0.29333 0.64082 0.0
H3369 H 0.8156 0.32938 0.59964 0.0
H3370 H 0.82799 0.3444 0.57674 0.0
H3371 H 0.84218 0.37538 0.59504 0.0
H3372 H 0.90644 0.40019 0.58505 0.0
H3373 H 0.89224 0.36914 0.56677 0.0
H3374 H 0.92381 0.37116 0.58287 0.0
H3375 H 0.8692 0.25049 0.61605 0.0
H3376 H 0.84838 0.21564 0.58819 0.0
H3377 H 0.84617 0.30153 0.56115 0.0
C3378 C 0.89182 0.37858 0.62464 0.0
C3379 C 0.90155 0.37604 0.64257 0.0
C3380 C 0.9007 0.3451 0.64817 0.0
C3381 C 0.89003 0.31689 0.63636 0.0
C3382 C 0.88053 0.32004 0.61884 0.0
C3383 C 0.88132 0.35001 0.61287 0.0
C3384 C 0.87015 0.34628 0.59313 0.0
C3385 C 0.837 0.34901 0.59102 0.0
C3386 C 0.89995 0.3733 0.58126 0.0
C3387 C 0.86286 0.3095 0.5891 0.0
C3388 C 0.86911 0.29506 0.6042 0.0
C3389 C 0.86423 0.26147 0.60411 0.0
C3390 C 0.85242 0.2419 0.5882 0.0
C3391 C 0.84563 0.25584 0.57253 0.0
C3392 C 0.85111 0.29023 0.57294 0.0
H3393 H 0.68476 0.12465 0.05002 0.0
H3394 H 0.75148 0.23091 0.06843 0.0
H3395 H 0.71721 0.21726 0.09674 0.0
H3396 H 0.60333 0.11132 0.06955 0.0
H3397 H 0.58864 0.06675 0.07586 0.0
H3398 H 0.61684 0.08561 0.05658 0.0
H3399 H 0.66083 0.06966 0.07044 0.0
H3400 H 0.63293 0.05093 0.08981 0.0
H3401 H 0.6777 0.08474 0.09285 0.0
H3402 H 0.67566 0.19207 0.12292 0.0
H3403 H 0.63149 0.15665 0.1458 0.0
H3404 H 0.59465 0.06518 0.11169 0.0
C3405 C 0.69181 0.14514 0.05992 0.0
C3406 C 0.72054 0.17898 0.05703 0.0
C3407 C 0.72944 0.20492 0.0704 0.0
C3408 C 0.71013 0.19739 0.08649 0.0
C3409 C 0.68226 0.16364 0.08907 0.0
C3410 C 0.67319 0.13787 0.0762 0.0
C3411 C 0.64321 0.10329 0.08273 0.0
C3412 C 0.6111 0.09103 0.07045 0.0
C3413 C 0.65435 0.07552 0.08404 0.0
C3414 C 0.63687 0.11361 0.1013 0.0
C3415 C 0.65946 0.14865 0.10458 0.0
C3416 C 0.65814 0.16453 0.12058 0.0
C3417 C 0.63317 0.1441 0.13359 0.0
C3418 C 0.6103 0.10798 0.13077 0.0
C3419 C 0.61215 0.09262 0.11434 0.0
H3420 H 0.85867 0.47484 0.12068 0.0
H3421 H 0.94739 0.57132 0.13947 0.0
H3422 H 0.9353 0.60417 0.11651 0.0
H3423 H 0.87272 0.49555 0.07404 0.0
H3424 H 0.8274 0.47612 0.06777 0.0
H3425 H 0.83976 0.45965 0.08698 0.0
H3426 H 0.79824 0.46972 0.10754 0.0
H3427 H 0.78532 0.48575 0.08835 0.0
H3428 H 0.80221 0.51227 0.10836 0.0
H3429 H 0.91774 0.62631 0.09061 0.0
H3430 H 0.893 0.63798 0.06359 0.0
H3431 H 0.81529 0.52801 0.05971 0.0
C3432 C 0.87475 0.50298 0.12023 0.0
C3433 C 0.90367 0.52075 0.13202 0.0
C3434 C 0.92495 0.55738 0.13069 0.0
C3435 C 0.91834 0.57624 0.11765 0.0
C3436 C 0.89047 0.55809 0.10585 0.0
C3437 C 0.86876 0.52236 0.10698 0.0
C3438 C 0.84186 0.50955 0.09176 0.0
C3439 C 0.84567 0.48368 0.07941 0.0
C3440 C 0.8047 0.49337 0.09946 0.0
C3441 C 0.85225 0.54361 0.0819 0.0
C3442 C 0.88035 0.57112 0.09042 0.0
C3443 C 0.89549 0.60508 0.08392 0.0
C3444 C 0.88124 0.61142 0.0685 0.0
C3445 C 0.85207 0.58402 0.05959 0.0
C3446 C 0.83755 0.54949 0.06627 0.0
H3447 H 0.47264 0.35277 0.14393 0.0
H3448 H 0.51945 0.44984 0.11398 0.0
H3449 H 0.50442 0.41701 0.08532 0.0
H3450 H 0.49985 0.30568 0.1134 0.0
H3451 H 0.45973 0.26478 0.1159 0.0
H3452 H 0.47528 0.296 0.13412 0.0
H3453 H 0.41635 0.29514 0.13433 0.0
H3454 H 0.40075 0.26422 0.11599 0.0
H3455 H 0.40078 0.30481 0.11383 0.0
H3456 H 0.48281 0.37423 0.05989 0.0
H3457 H 0.456 0.32378 0.03926 0.0
H3458 H 0.42379 0.25333 0.08491 0.0
C3459 C 0.48018 0.367 0.13136 0.0
C3460 C 0.4976 0.4039 0.13123 0.0
C3461 C 0.50623 0.42161 0.11444 0.0
C3462 C 0.49782 0.40318 0.09807 0.0
C3463 C 0.48059 0.36688 0.09863 0.0
C3464 C 0.4718 0.34886 0.11481 0.0
C3465 C 0.45248 0.30969 0.11147 0.0
C3466 C 0.47307 0.29306 0.11918 0.0
C3467 C 0.41538 0.29246 0.11937 0.0
C3468 C 0.45174 0.30862 0.0909 0.0
C3469 C 0.46825 0.342 0.08384 0.0
C3470 C 0.47044 0.34799 0.06526 0.0
C3471 C 0.4557 0.31917 0.05358 0.0
C3472 C 0.43925 0.28475 0.06037 0.0
C3473 C 0.43676 0.27944 0.07932 0.0
H3474 H 0.38061 0.93209 0.90912 0.0
H3475 H 0.38898 0.83958 0.90078 0.0
H3476 H 0.3494 0.81097 0.92669 0.0
H3477 H 0.37525 0.92943 0.95767 0.0
H3478 H 0.34272 0.94257 0.95876 0.0
H3479 H 0.37293 0.95647 0.94012 0.0
H3480 H 0.32131 0.92975 0.91749 0.0
H3481 H 0.29096 0.91599 0.93606 0.0
H3482 H 0.28814 0.88452 0.91968 0.0
H3483 H 0.31197 0.79405 0.9548 0.0
H3484 H 0.27181 0.78615 0.97999 0.0
H3485 H 0.28203 0.88671 0.96795 0.0
C3486 C 0.3741 0.90585 0.91283 0.0
C3487 C 0.38812 0.88812 0.90317 0.0
C3488 C 0.37857 0.85358 0.90809 0.0
C3489 C 0.35626 0.83722 0.92282 0.0
C3490 C 0.34306 0.85546 0.93221 0.0
C3491 C 0.35099 0.88873 0.92718 0.0
C3492 C 0.33154 0.90168 0.93884 0.0
C3493 C 0.35715 0.93448 0.94947 0.0
C3494 C 0.3065 0.90837 0.92733 0.0
C3495 C 0.31171 0.87067 0.95131 0.0
C3496 C 0.31928 0.84458 0.94749 0.0
C3497 C 0.30545 0.81408 0.95774 0.0
C3498 C 0.2828 0.80987 0.97205 0.0
C3499 C 0.27357 0.83561 0.9757 0.0
C3500 C 0.28833 0.86642 0.96523 0.0
H3501 H 0.14399 0.40814 0.95388 0.0
H3502 H 0.17704 0.4962 0.99008 0.0
H3503 H 0.16172 0.52662 0.96691 0.0
H3504 H 0.17799 0.46006 0.91285 0.0
H3505 H 0.14249 0.42915 0.89895 0.0
H3506 H 0.15589 0.41428 0.91841 0.0
H3507 H 0.09274 0.38469 0.93094 0.0
H3508 H 0.07916 0.39941 0.91151 0.0
H3509 H 0.07168 0.41027 0.93393 0.0
H3510 H 0.14084 0.54646 0.94004 0.0
H3511 H 0.11754 0.55507 0.9113 0.0
H3512 H 0.10104 0.45549 0.89184 0.0
C3513 C 0.14807 0.43389 0.9569 0.0
C3514 C 0.16099 0.44957 0.97394 0.0
C3515 C 0.16631 0.48336 0.97732 0.0
C3516 C 0.15797 0.50093 0.96416 0.0
C3517 C 0.14493 0.48461 0.94755 0.0
C3518 C 0.14032 0.45196 0.94381 0.0
C3519 C 0.12609 0.44028 0.92485 0.0
C3520 C 0.15217 0.43567 0.91307 0.0
C3521 C 0.09029 0.40668 0.92534 0.0
C3522 C 0.12288 0.47119 0.9186 0.0
C3523 C 0.13391 0.49648 0.9319 0.0
C3524 C 0.1324 0.52695 0.9295 0.0
C3525 C 0.11909 0.53158 0.91315 0.0
C3526 C 0.10761 0.50602 0.89935 0.0
C3527 C 0.10987 0.47559 0.90209 0.0
H3528 H 0.54531 0.60917 0.91464 0.0
H3529 H 0.44581 0.60003 0.90087 0.0
H3530 H 0.45219 0.6392 0.92632 0.0
H3531 H 0.54061 0.61407 0.96279 0.0
H3532 H 0.5858 0.64702 0.96557 0.0
H3533 H 0.5728 0.61715 0.9468 0.0
H3534 H 0.60046 0.66911 0.92443 0.0
H3535 H 0.61379 0.69911 0.94315 0.0
H3536 H 0.58751 0.7018 0.92528 0.0
H3537 H 0.46748 0.67548 0.95496 0.0
H3538 H 0.49537 0.71509 0.98104 0.0
H3539 H 0.58829 0.70707 0.97358 0.0
C3540 C 0.52495 0.61551 0.91705 0.0
C3541 C 0.49485 0.60134 0.90604 0.0
C3542 C 0.46898 0.61061 0.90925 0.0
C3543 C 0.47232 0.63265 0.92371 0.0
C3544 C 0.50213 0.64593 0.9345 0.0
C3545 C 0.52844 0.63844 0.93104 0.0
C3546 C 0.55886 0.65799 0.94392 0.0
C3547 C 0.56485 0.63253 0.95545 0.0
C3548 C 0.59212 0.68352 0.93357 0.0
C3549 C 0.54537 0.67723 0.95532 0.0
C3550 C 0.51226 0.66931 0.94992 0.0
C3551 C 0.49362 0.68234 0.9591 0.0
C3552 C 0.50952 0.70462 0.97392 0.0
C3553 C 0.544 0.71433 0.97906 0.0
C3554 C 0.56205 0.70037 0.96968 0.0
H3555 H 0.3047 0.42732 0.47461 0.0
H3556 H 0.2358 0.46548 0.45789 0.0
H3557 H 0.27018 0.48897 0.42983 0.0
H3558 H 0.3852 0.49898 0.45637 0.0
H3559 H 0.40185 0.47117 0.44911 0.0
H3560 H 0.37299 0.45899 0.46829 0.0
H3561 H 0.33112 0.39981 0.45309 0.0
H3562 H 0.35972 0.41174 0.43382 0.0
H3563 H 0.31452 0.39928 0.43076 0.0
H3564 H 0.31199 0.5084 0.40367 0.0
H3565 H 0.35683 0.52045 0.38057 0.0
H3566 H 0.39673 0.46636 0.41299 0.0
C3567 C 0.29714 0.44099 0.46512 0.0
C3568 C 0.26773 0.44487 0.46845 0.0
C3569 C 0.25828 0.46236 0.4556 0.0
C3570 C 0.27768 0.4758 0.43965 0.0
C3571 C 0.30631 0.47126 0.43665 0.0
C3572 C 0.31597 0.45416 0.44898 0.0
C3573 C 0.34703 0.45164 0.44211 0.0
C3574 C 0.37864 0.47137 0.45472 0.0
C3575 C 0.33751 0.41334 0.43981 0.0
C3576 C 0.3532 0.46981 0.42395 0.0
C3577 C 0.32959 0.48122 0.42119 0.0
C3578 C 0.33037 0.49928 0.40562 0.0
C3579 C 0.35579 0.50577 0.39249 0.0
C3580 C 0.37979 0.49369 0.39476 0.0
C3581 C 0.37848 0.47557 0.41077 0.0
H3582 H 0.46364 0.85942 0.40492 0.0
H3583 H 0.55667 0.91828 0.3725 0.0
H3584 H 0.58951 0.90119 0.39294 0.0
H3585 H 0.50677 0.88336 0.44742 0.0
H3586 H 0.47997 0.84166 0.4581 0.0
H3587 H 0.46242 0.85545 0.44 0.0
H3588 H 0.44668 0.79885 0.42237 0.0
H3589 H 0.46411 0.78503 0.44055 0.0
H3590 H 0.48016 0.78795 0.41785 0.0
H3591 H 0.61354 0.88181 0.41774 0.0
H3592 H 0.62756 0.86014 0.44528 0.0
H3593 H 0.51978 0.81352 0.46284 0.0
C3594 C 0.49069 0.86784 0.40194 0.0
C3595 C 0.50738 0.88912 0.38673 0.0
C3596 C 0.54308 0.90091 0.38361 0.0
C3597 C 0.56203 0.89156 0.39528 0.0
C3598 C 0.54503 0.87076 0.41021 0.0
C3599 C 0.51015 0.85891 0.41363 0.0
C3600 C 0.49893 0.83843 0.43126 0.0
C3601 C 0.48629 0.85579 0.445 0.0
C3602 C 0.4708 0.8003 0.4278 0.0
C3603 C 0.53309 0.84112 0.4373 0.0
C3604 C 0.55919 0.85983 0.42485 0.0
C3605 C 0.59326 0.86687 0.4275 0.0
C3606 C 0.60096 0.85445 0.44324 0.0
C3607 C 0.57482 0.8351 0.45624 0.0
C3608 C 0.54033 0.82827 0.45318 0.0
H3609 H 0.1378 0.68295 0.47424 0.0
H3610 H 0.20056 0.77857 0.44427 0.0
H3611 H 0.18684 0.74498 0.41587 0.0
H3612 H 0.15743 0.62565 0.44632 0.0
H3613 H 0.11347 0.58937 0.44769 0.0
H3614 H 0.13109 0.62044 0.46594 0.0
H3615 H 0.07901 0.63149 0.46322 0.0
H3616 H 0.06134 0.60066 0.4449 0.0
H3617 H 0.06996 0.64467 0.44178 0.0
H3618 H 0.16426 0.70185 0.39049 0.0
H3619 H 0.13299 0.65185 0.36973 0.0
H3620 H 0.08252 0.58382 0.41547 0.0
C3621 C 0.14921 0.69659 0.46173 0.0
C3622 C 0.17065 0.73332 0.46144 0.0
C3623 C 0.18431 0.75043 0.44478 0.0
C3624 C 0.17668 0.73157 0.42857 0.0
C3625 C 0.15498 0.69551 0.42918 0.0
C3626 C 0.14134 0.67811 0.44529 0.0
C3627 C 0.11676 0.63947 0.44192 0.0
C3628 C 0.13052 0.61743 0.451 0.0
C3629 C 0.07957 0.62843 0.44833 0.0
C3630 C 0.11855 0.63804 0.42143 0.0
C3631 C 0.14107 0.67064 0.4144 0.0
C3632 C 0.14674 0.67614 0.39584 0.0
C3633 C 0.12894 0.64759 0.38413 0.0
C3634 C 0.10556 0.614 0.39097 0.0
C3635 C 0.10034 0.60925 0.40987 0.0
loop_
_geom_bond_atom_site_label_1
_geom_bond_atom_site_label_2
_geom_bond_distance
_geom_bond_site_symmetry_2
_ccdc_geom_bond_type
Tb0 O3 2.453 . S
Tb0 O4 2.596 . S
Tb0 O5 2.374 . S
Tb0 O13 2.343 . S
Tb0 O15 2.353 . S
Tb0 O17 2.427 . S
Tb0 O18 2.513 . S
C1 O5 1.251 . S
C1 O7 1.263 . S
Tb2 O4 2.343 . S
Tb2 O7 2.353 . S
Tb2 O10 2.427 . S
Tb2 O11 2.513 . S
Tb2 O12 2.453 . S
Tb2 O13 2.596 . S
Tb2 O14 2.374 . S
O3 Tb0 2.453 . S
O3 C19 1.245 . S
O4 Tb0 2.596 . S
O4 Tb2 2.343 . S
O4 C19 1.259 . S
O5 Tb0 2.374 . S
O5 C1 1.251 . S
C6 O10 1.275 . S
C6 O11 1.246 . S
O7 C1 1.263 . S
O7 Tb2 2.353 . S
C8 O12 1.245 . S
C8 O13 1.259 . S
C9 O14 1.250 . S
C9 O15 1.263 . S
O10 Tb2 2.427 . S
O10 C6 1.275 . S
O11 Tb2 2.513 . S
O11 C6 1.246 . S
O12 Tb2 2.453 . S
O12 C8 1.245 . S
O13 Tb0 2.343 . S
O13 Tb2 2.596 . S
O13 C8 1.259 . S
O14 Tb2 2.374 . S
O14 C9 1.250 . S
O15 Tb0 2.353 . S
O15 C9 1.263 . S
C16 O17 1.275 . S
C16 O18 1.246 . S
O17 Tb0 2.427 . S
O17 C16 1.275 . S
O18 Tb0 2.513 . S
O18 C16 1.246 . S
C19 O3 1.245 . S
C19 O4 1.259 . S
Tb20 O23 2.453 . S
Tb20 O24 2.596 . S
Tb20 O25 2.374 . S
Tb20 O33 2.343 . S
Tb20 O35 2.353 . S
Tb20 O37 2.427 . S
Tb20 O38 2.513 . S
C21 O25 1.251 . S
C21 O27 1.263 . S
Tb22 O24 2.343 . S
Tb22 O27 2.353 . S
Tb22 O30 2.427 . S
Tb22 O31 2.513 . S
Tb22 O32 2.453 . S
Tb22 O33 2.596 . S
Tb22 O34 2.374 . S
O23 Tb20 2.453 . S
O23 C39 1.245 . S
O24 Tb20 2.596 . S
O24 Tb22 2.343 . S
O24 C39 1.259 . S
O25 Tb20 2.374 . S
O25 C21 1.251 . S
C26 O30 1.275 . S
C26 O31 1.246 . S
O27 C21 1.263 . S
O27 Tb22 2.353 . S
C28 O32 1.245 . S
C28 O33 1.259 . S
C29 O34 1.250 . S
C29 O35 1.263 . S
O30 Tb22 2.427 . S
O30 C26 1.275 . S
O31 Tb22 2.513 . S
O31 C26 1.246 . S
O32 Tb22 2.453 . S
O32 C28 1.245 . S
O33 Tb20 2.343 . S
O33 Tb22 2.596 . S
O33 C28 1.259 . S
O34 Tb22 2.374 . S
O34 C29 1.250 . S
O35 Tb20 2.353 . S
O35 C29 1.263 . S
C36 O37 1.275 . S
C36 O38 1.246 . S
O37 Tb20 2.427 . S
O37 C36 1.275 . S
O38 Tb20 2.513 . S
O38 C36 1.246 . S
C39 O23 1.245 . S
C39 O24 1.259 . S
Tb40 O43 2.453 . S
Tb40 O44 2.596 . S
Tb40 O45 2.374 . S
Tb40 O53 2.343 . S
Tb40 O55 2.353 . S
Tb40 O57 2.427 . S
Tb40 O58 2.513 . S
C41 O45 1.251 . S
C41 O47 1.263 . S
Tb42 O44 2.343 . S
Tb42 O47 2.353 . S
Tb42 O50 2.427 . S
Tb42 O51 2.513 . S
Tb42 O52 2.453 . S
Tb42 O53 2.596 . S
Tb42 O54 2.374 . S
O43 Tb40 2.453 . S
O43 C59 1.245 . S
O44 Tb40 2.596 . S
O44 Tb42 2.343 . S
O44 C59 1.259 . S
O45 Tb40 2.374 . S
O45 C41 1.251 . S
C46 O50 1.275 . S
C46 O51 1.246 . S
O47 C41 1.263 . S
O47 Tb42 2.353 . S
C48 O52 1.245 . S
C48 O53 1.259 . S
C49 O54 1.250 . S
C49 O55 1.263 . S
O50 Tb42 2.427 . S
O50 C46 1.275 . S
O51 Tb42 2.513 . S
O51 C46 1.246 . S
O52 Tb42 2.453 . S
O52 C48 1.245 . S
O53 Tb40 2.343 . S
O53 Tb42 2.596 . S
O53 C48 1.259 . S
O54 Tb42 2.374 . S
O54 C49 1.250 . S
O55 Tb40 2.353 . S
O55 C49 1.263 . S
C56 O57 1.275 . S
C56 O58 1.246 . S
O57 Tb40 2.427 . S
O57 C56 1.275 . S
O58 Tb40 2.513 . S
O58 C56 1.246 . S
C59 O43 1.245 . S
C59 O44 1.259 . S
Tb60 O63 2.453 . S
Tb60 O64 2.596 . S
Tb60 O65 2.374 . S
Tb60 O73 2.343 . S
Tb60 O75 2.353 . S
Tb60 O77 2.427 . S
Tb60 O78 2.513 . S
C61 O65 1.251 . S
C61 O67 1.263 . S
Tb62 O64 2.343 . S
Tb62 O67 2.353 . S
Tb62 O70 2.427 . S
Tb62 O71 2.513 . S
Tb62 O72 2.453 . S
Tb62 O73 2.596 . S
Tb62 O74 2.374 . S
O63 Tb60 2.453 . S
O63 C79 1.245 . S
O64 Tb60 2.596 . S
O64 Tb62 2.343 . S
O64 C79 1.259 . S
O65 Tb60 2.374 . S
O65 C61 1.251 . S
C66 O70 1.275 . S
C66 O71 1.246 . S
O67 C61 1.263 . S
O67 Tb62 2.353 . S
C68 O72 1.245 . S
C68 O73 1.259 . S
C69 O74 1.250 . S
C69 O75 1.263 . S
O70 Tb62 2.427 . S
O70 C66 1.275 . S
O71 Tb62 2.513 . S
O71 C66 1.246 . S
O72 Tb62 2.453 . S
O72 C68 1.245 . S
O73 Tb60 2.343 . S
O73 Tb62 2.596 . S
O73 C68 1.259 . S
O74 Tb62 2.374 . S
O74 C69 1.250 . S
O75 Tb60 2.353 . S
O75 C69 1.263 . S
C76 O77 1.275 . S
C76 O78 1.246 . S
O77 Tb60 2.427 . S
O77 C76 1.275 . S
O78 Tb60 2.513 . S
O78 C76 1.246 . S
C79 O63 1.245 . S
C79 O64 1.259 . S
Tb80 O83 2.453 . S
Tb80 O84 2.596 . S
Tb80 O85 2.374 . S
Tb80 O93 2.343 . S
Tb80 O95 2.353 . S
Tb80 O97 2.427 . S
Tb80 O98 2.513 . S
C81 O85 1.251 . S
C81 O87 1.263 . S
Tb82 O84 2.343 . S
Tb82 O87 2.353 . S
Tb82 O90 2.427 . S
Tb82 O91 2.513 . S
Tb82 O92 2.453 . S
Tb82 O93 2.596 . S
Tb82 O94 2.374 . S
O83 Tb80 2.453 . S
O83 C99 1.245 . S
O84 Tb80 2.596 . S
O84 Tb82 2.343 . S
O84 C99 1.259 . S
O85 Tb80 2.374 . S
O85 C81 1.251 . S
C86 O90 1.275 . S
C86 O91 1.246 . S
O87 C81 1.263 . S
O87 Tb82 2.353 . S
C88 O92 1.245 . S
C88 O93 1.259 . S
C89 O94 1.250 . S
C89 O95 1.263 . S
O90 Tb82 2.427 . S
O90 C86 1.275 . S
O91 Tb82 2.513 . S
O91 C86 1.246 . S
O92 Tb82 2.453 . S
O92 C88 1.245 . S
O93 Tb80 2.343 . S
O93 Tb82 2.596 . S
O93 C88 1.259 . S
O94 Tb82 2.374 . S
O94 C89 1.250 . S
O95 Tb80 2.353 . S
O95 C89 1.263 . S
C96 O97 1.275 . S
C96 O98 1.246 . S
O97 Tb80 2.427 . S
O97 C96 1.275 . S
O98 Tb80 2.513 . S
O98 C96 1.246 . S
C99 O83 1.245 . S
C99 O84 1.259 . S
Tb100 O103 2.453 . S
Tb100 O104 2.596 . S
Tb100 O105 2.374 . S
Tb100 O113 2.343 . S
Tb100 O115 2.353 . S
Tb100 O117 2.427 . S
Tb100 O118 2.513 . S
C101 O105 1.251 . S
C101 O107 1.263 . S
Tb102 O104 2.343 . S
Tb102 O107 2.353 . S
Tb102 O110 2.427 . S
Tb102 O111 2.513 . S
Tb102 O112 2.453 . S
Tb102 O113 2.596 . S
Tb102 O114 2.374 . S
O103 Tb100 2.453 . S
O103 C119 1.245 . S
O104 Tb100 2.596 . S
O104 Tb102 2.343 . S
O104 C119 1.259 . S
O105 Tb100 2.374 . S
O105 C101 1.251 . S
C106 O110 1.275 . S
C106 O111 1.246 . S
O107 C101 1.263 . S
O107 Tb102 2.353 . S
C108 O112 1.245 . S
C108 O113 1.259 . S
C109 O114 1.250 . S
C109 O115 1.263 . S
O110 Tb102 2.427 . S
O110 C106 1.275 . S
O111 Tb102 2.513 . S
O111 C106 1.246 . S
O112 Tb102 2.453 . S
O112 C108 1.245 . S
O113 Tb100 2.343 . S
O113 Tb102 2.596 . S
O113 C108 1.259 . S
O114 Tb102 2.374 . S
O114 C109 1.250 . S
O115 Tb100 2.353 . S
O115 C109 1.263 . S
C116 O117 1.275 . S
C116 O118 1.246 . S
O117 Tb100 2.427 . S
O117 C116 1.275 . S
O118 Tb100 2.513 . S
O118 C116 1.246 . S
C119 O103 1.245 . S
C119 O104 1.259 . S
Tb120 O123 2.453 . S
Tb120 O124 2.596 . S
Tb120 O125 2.374 . S
Tb120 O133 2.343 . S
Tb120 O135 2.353 . S
Tb120 O137 2.427 . S
Tb120 O138 2.513 . S
C121 O125 1.251 . S
C121 O127 1.263 . S
Tb122 O124 2.343 . S
Tb122 O127 2.353 . S
Tb122 O130 2.427 . S
Tb122 O131 2.513 . S
Tb122 O132 2.453 . S
Tb122 O133 2.596 . S
Tb122 O134 2.374 . S
O123 Tb120 2.453 . S
O123 C139 1.245 . S
O124 Tb120 2.596 . S
O124 Tb122 2.343 . S
O124 C139 1.259 . S
O125 Tb120 2.374 . S
O125 C121 1.251 . S
C126 O130 1.275 . S
C126 O131 1.246 . S
O127 C121 1.263 . S
O127 Tb122 2.353 . S
C128 O132 1.245 . S
C128 O133 1.259 . S
C129 O134 1.250 . S
C129 O135 1.263 . S
O130 Tb122 2.427 . S
O130 C126 1.275 . S
O131 Tb122 2.513 . S
O131 C126 1.246 . S
O132 Tb122 2.453 . S
O132 C128 1.245 . S
O133 Tb120 2.343 . S
O133 Tb122 2.596 . S
O133 C128 1.259 . S
O134 Tb122 2.374 . S
O134 C129 1.250 . S
O135 Tb120 2.353 . S
O135 C129 1.263 . S
C136 O137 1.275 . S
C136 O138 1.246 . S
O137 Tb120 2.427 . S
O137 C136 1.275 . S
O138 Tb120 2.513 . S
O138 C136 1.246 . S
C139 O123 1.245 . S
C139 O124 1.259 . S
Tb140 O143 2.453 . S
Tb140 O144 2.596 . S
Tb140 O145 2.374 . S
Tb140 O153 2.343 . S
Tb140 O155 2.353 . S
Tb140 O157 2.427 . S
Tb140 O158 2.513 . S
C141 O145 1.251 . S
C141 O147 1.263 . S
Tb142 O144 2.343 . S
Tb142 O147 2.353 . S
Tb142 O150 2.427 . S
Tb142 O151 2.513 . S
Tb142 O152 2.453 . S
Tb142 O153 2.596 . S
Tb142 O154 2.374 . S
O143 Tb140 2.453 . S
O143 C159 1.245 . S
O144 Tb140 2.596 . S
O144 Tb142 2.343 . S
O144 C159 1.259 . S
O145 Tb140 2.374 . S
O145 C141 1.251 . S
C146 O150 1.275 . S
C146 O151 1.246 . S
O147 C141 1.263 . S
O147 Tb142 2.353 . S
C148 O152 1.245 . S
C148 O153 1.259 . S
C149 O154 1.250 . S
C149 O155 1.263 . S
O150 Tb142 2.427 . S
O150 C146 1.275 . S
O151 Tb142 2.513 . S
O151 C146 1.246 . S
O152 Tb142 2.453 . S
O152 C148 1.245 . S
O153 Tb140 2.343 . S
O153 Tb142 2.596 . S
O153 C148 1.259 . S
O154 Tb142 2.374 . S
O154 C149 1.250 . S
O155 Tb140 2.353 . S
O155 C149 1.263 . S
C156 O157 1.275 . S
C156 O158 1.246 . S
O157 Tb140 2.427 . S
O157 C156 1.275 . S
O158 Tb140 2.513 . S
O158 C156 1.246 . S
C159 O143 1.245 . S
C159 O144 1.259 . S
Tb160 O163 2.453 . S
Tb160 O164 2.596 . S
Tb160 O165 2.374 . S
Tb160 O173 2.343 . S
Tb160 O175 2.353 . S
Tb160 O177 2.427 . S
Tb160 O178 2.513 . S
C161 O165 1.251 . S
C161 O167 1.263 . S
Tb162 O164 2.343 . S
Tb162 O167 2.353 . S
Tb162 O170 2.427 . S
Tb162 O171 2.513 . S
Tb162 O172 2.453 . S
Tb162 O173 2.596 . S
Tb162 O174 2.374 . S
O163 Tb160 2.453 . S
O163 C179 1.245 . S
O164 Tb160 2.596 . S
O164 Tb162 2.343 . S
O164 C179 1.259 . S
O165 Tb160 2.374 . S
O165 C161 1.251 . S
C166 O170 1.275 . S
C166 O171 1.246 . S
O167 C161 1.263 . S
O167 Tb162 2.353 . S
C168 O172 1.245 . S
C168 O173 1.259 . S
C169 O174 1.250 . S
C169 O175 1.263 . S
O170 Tb162 2.427 . S
O170 C166 1.275 . S
O171 Tb162 2.513 . S
O171 C166 1.246 . S
O172 Tb162 2.453 . S
O172 C168 1.245 . S
O173 Tb160 2.343 . S
O173 Tb162 2.596 . S
O173 C168 1.259 . S
O174 Tb162 2.374 . S
O174 C169 1.250 . S
O175 Tb160 2.353 . S
O175 C169 1.263 . S
C176 O177 1.275 . S
C176 O178 1.246 . S
O177 Tb160 2.427 . S
O177 C176 1.275 . S
O178 Tb160 2.513 . S
O178 C176 1.246 . S
C179 O163 1.245 . S
C179 O164 1.259 . S
Tb180 O183 2.453 . S
Tb180 O184 2.596 . S
Tb180 O185 2.374 . S
Tb180 O193 2.343 . S
Tb180 O195 2.353 . S
Tb180 O197 2.427 . S
Tb180 O198 2.513 . S
C181 O185 1.251 . S
C181 O187 1.263 . S
Tb182 O184 2.343 . S
Tb182 O187 2.353 . S
Tb182 O190 2.427 . S
Tb182 O191 2.513 . S
Tb182 O192 2.453 . S
Tb182 O193 2.596 . S
Tb182 O194 2.374 . S
O183 Tb180 2.453 . S
O183 C199 1.245 . S
O184 Tb180 2.596 . S
O184 Tb182 2.343 . S
O184 C199 1.259 . S
O185 Tb180 2.374 . S
O185 C181 1.251 . S
C186 O190 1.275 . S
C186 O191 1.246 . S
O187 C181 1.263 . S
O187 Tb182 2.353 . S
C188 O192 1.245 . S
C188 O193 1.259 . S
C189 O194 1.250 . S
C189 O195 1.263 . S
O190 Tb182 2.427 . S
O190 C186 1.275 . S
O191 Tb182 2.513 . S
O191 C186 1.246 . S
O192 Tb182 2.453 . S
O192 C188 1.245 . S
O193 Tb180 2.343 . S
O193 Tb182 2.596 . S
O193 C188 1.259 . S
O194 Tb182 2.374 . S
O194 C189 1.250 . S
O195 Tb180 2.353 . S
O195 C189 1.263 . S
C196 O197 1.275 . S
C196 O198 1.246 . S
O197 Tb180 2.427 . S
O197 C196 1.275 . S
O198 Tb180 2.513 . S
O198 C196 1.246 . S
C199 O183 1.245 . S
C199 O184 1.259 . S
Tb200 O203 2.453 . S
Tb200 O204 2.596 . S
Tb200 O205 2.374 . S
Tb200 O213 2.343 . S
Tb200 O215 2.353 . S
Tb200 O217 2.427 . S
Tb200 O218 2.513 . S
C201 O205 1.251 . S
C201 O207 1.263 . S
Tb202 O204 2.343 . S
Tb202 O207 2.353 . S
Tb202 O210 2.427 . S
Tb202 O211 2.513 . S
Tb202 O212 2.453 . S
Tb202 O213 2.596 . S
Tb202 O214 2.374 . S
O203 Tb200 2.453 . S
O203 C219 1.245 . S
O204 Tb200 2.596 . S
O204 Tb202 2.343 . S
O204 C219 1.259 . S
O205 Tb200 2.374 . S
O205 C201 1.251 . S
C206 O210 1.275 . S
C206 O211 1.246 . S
O207 C201 1.263 . S
O207 Tb202 2.353 . S
C208 O212 1.245 . S
C208 O213 1.259 . S
C209 O214 1.250 . S
C209 O215 1.263 . S
O210 Tb202 2.427 . S
O210 C206 1.275 . S
O211 Tb202 2.513 . S
O211 C206 1.246 . S
O212 Tb202 2.453 . S
O212 C208 1.245 . S
O213 Tb200 2.343 . S
O213 Tb202 2.596 . S
O213 C208 1.259 . S
O214 Tb202 2.374 . S
O214 C209 1.250 . S
O215 Tb200 2.353 . S
O215 C209 1.263 . S
C216 O217 1.275 . S
C216 O218 1.246 . S
O217 Tb200 2.427 . S
O217 C216 1.275 . S
O218 Tb200 2.513 . S
O218 C216 1.246 . S
C219 O203 1.245 . S
C219 O204 1.259 . S
Tb220 O223 2.453 . S
Tb220 O224 2.596 . S
Tb220 O225 2.374 . S
Tb220 O233 2.343 . S
Tb220 O235 2.353 . S
Tb220 O237 2.427 . S
Tb220 O238 2.513 . S
C221 O225 1.251 . S
C221 O227 1.263 . S
Tb222 O224 2.343 . S
Tb222 O227 2.353 . S
Tb222 O230 2.427 . S
Tb222 O231 2.513 . S
Tb222 O232 2.453 . S
Tb222 O233 2.596 . S
Tb222 O234 2.374 . S
O223 Tb220 2.453 . S
O223 C239 1.245 . S
O224 Tb220 2.596 . S
O224 Tb222 2.343 . S
O224 C239 1.259 . S
O225 Tb220 2.374 . S
O225 C221 1.251 . S
C226 O230 1.275 . S
C226 O231 1.246 . S
O227 C221 1.263 . S
O227 Tb222 2.353 . S
C228 O232 1.245 . S
C228 O233 1.259 . S
C229 O234 1.250 . S
C229 O235 1.263 . S
O230 Tb222 2.427 . S
O230 C226 1.275 . S
O231 Tb222 2.513 . S
O231 C226 1.246 . S
O232 Tb222 2.453 . S
O232 C228 1.245 . S
O233 Tb220 2.343 . S
O233 Tb222 2.596 . S
O233 C228 1.259 . S
O234 Tb222 2.374 . S
O234 C229 1.250 . S
O235 Tb220 2.353 . S
O235 C229 1.263 . S
C236 O237 1.275 . S
C236 O238 1.246 . S
O237 Tb220 2.427 . S
O237 C236 1.275 . S
O238 Tb220 2.513 . S
O238 C236 1.246 . S
C239 O223 1.245 . S
C239 O224 1.259 . S
Tb240 O243 2.453 . S
Tb240 O244 2.596 . S
Tb240 O245 2.374 . S
Tb240 O253 2.343 . S
Tb240 O255 2.353 . S
Tb240 O257 2.427 . S
Tb240 O258 2.513 . S
C241 O245 1.251 . S
C241 O247 1.263 . S
Tb242 O244 2.343 . S
Tb242 O247 2.353 . S
Tb242 O250 2.427 . S
Tb242 O251 2.513 . S
Tb242 O252 2.453 . S
Tb242 O253 2.596 . S
Tb242 O254 2.374 . S
O243 Tb240 2.453 . S
O243 C259 1.245 . S
O244 Tb240 2.596 . S
O244 Tb242 2.343 . S
O244 C259 1.259 . S
O245 Tb240 2.374 . S
O245 C241 1.251 . S
C246 O250 1.275 . S
C246 O251 1.246 . S
O247 C241 1.263 . S
O247 Tb242 2.353 . S
C248 O252 1.245 . S
C248 O253 1.259 . S
C249 O254 1.250 . S
C249 O255 1.263 . S
O250 Tb242 2.427 . S
O250 C246 1.275 . S
O251 Tb242 2.513 . S
O251 C246 1.246 . S
O252 Tb242 2.453 . S
O252 C248 1.245 . S
O253 Tb240 2.343 . S
O253 Tb242 2.596 . S
O253 C248 1.259 . S
O254 Tb242 2.374 . S
O254 C249 1.250 . S
O255 Tb240 2.353 . S
O255 C249 1.263 . S
C256 O257 1.275 . S
C256 O258 1.246 . S
O257 Tb240 2.427 . S
O257 C256 1.275 . S
O258 Tb240 2.513 . S
O258 C256 1.246 . S
C259 O243 1.245 . S
C259 O244 1.259 . S
Tb260 O263 2.453 . S
Tb260 O264 2.596 . S
Tb260 O265 2.374 . S
Tb260 O273 2.343 . S
Tb260 O275 2.353 . S
Tb260 O277 2.427 . S
Tb260 O278 2.513 . S
C261 O265 1.251 . S
C261 O267 1.263 . S
Tb262 O264 2.343 . S
Tb262 O267 2.353 . S
Tb262 O270 2.427 . S
Tb262 O271 2.513 . S
Tb262 O272 2.453 . S
Tb262 O273 2.596 . S
Tb262 O274 2.374 . S
O263 Tb260 2.453 . S
O263 C279 1.245 . S
O264 Tb260 2.596 . S
O264 Tb262 2.343 . S
O264 C279 1.259 . S
O265 Tb260 2.374 . S
O265 C261 1.251 . S
C266 O270 1.275 . S
C266 O271 1.246 . S
O267 C261 1.263 . S
O267 Tb262 2.353 . S
C268 O272 1.245 . S
C268 O273 1.259 . S
C269 O274 1.250 . S
C269 O275 1.263 . S
O270 Tb262 2.427 . S
O270 C266 1.275 . S
O271 Tb262 2.513 . S
O271 C266 1.246 . S
O272 Tb262 2.453 . S
O272 C268 1.245 . S
O273 Tb260 2.343 . S
O273 Tb262 2.596 . S
O273 C268 1.259 . S
O274 Tb262 2.374 . S
O274 C269 1.250 . S
O275 Tb260 2.353 . S
O275 C269 1.263 . S
C276 O277 1.275 . S
C276 O278 1.246 . S
O277 Tb260 2.427 . S
O277 C276 1.275 . S
O278 Tb260 2.513 . S
O278 C276 1.246 . S
C279 O263 1.245 . S
C279 O264 1.259 . S
Tb280 O283 2.453 . S
Tb280 O284 2.596 . S
Tb280 O285 2.374 . S
Tb280 O293 2.343 . S
Tb280 O295 2.353 . S
Tb280 O297 2.427 . S
Tb280 O298 2.513 . S
C281 O285 1.251 . S
C281 O287 1.263 . S
Tb282 O284 2.343 . S
Tb282 O287 2.353 . S
Tb282 O290 2.427 . S
Tb282 O291 2.513 . S
Tb282 O292 2.453 . S
Tb282 O293 2.596 . S
Tb282 O294 2.374 . S
O283 Tb280 2.453 . S
O283 C299 1.245 . S
O284 Tb280 2.596 . S
O284 Tb282 2.343 . S
O284 C299 1.259 . S
O285 Tb280 2.374 . S
O285 C281 1.251 . S
C286 O290 1.275 . S
C286 O291 1.246 . S
O287 C281 1.263 . S
O287 Tb282 2.353 . S
C288 O292 1.245 . S
C288 O293 1.259 . S
C289 O294 1.250 . S
C289 O295 1.263 . S
O290 Tb282 2.427 . S
O290 C286 1.275 . S
O291 Tb282 2.513 . S
O291 C286 1.246 . S
O292 Tb282 2.453 . S
O292 C288 1.245 . S
O293 Tb280 2.343 . S
O293 Tb282 2.596 . S
O293 C288 1.259 . S
O294 Tb282 2.374 . S
O294 C289 1.250 . S
O295 Tb280 2.353 . S
O295 C289 1.263 . S
C296 O297 1.275 . S
C296 O298 1.246 . S
O297 Tb280 2.427 . S
O297 C296 1.275 . S
O298 Tb280 2.513 . S
O298 C296 1.246 . S
C299 O283 1.245 . S
C299 O284 1.259 . S
Tb300 O303 2.453 . S
Tb300 O304 2.596 . S
Tb300 O305 2.374 . S
Tb300 O313 2.343 . S
Tb300 O315 2.353 . S
Tb300 O317 2.427 1_655 S
Tb300 O318 2.513 . S
C301 O305 1.251 . S
C301 O307 1.263 . S
Tb302 O304 2.343 . S
Tb302 O307 2.353 . S
Tb302 O310 2.427 . S
Tb302 O311 2.513 . S
Tb302 O312 2.453 . S
Tb302 O313 2.596 . S
Tb302 O314 2.374 . S
O303 Tb300 2.453 . S
O303 C319 1.245 . S
O304 Tb300 2.596 . S
O304 Tb302 2.343 . S
O304 C319 1.259 . S
O305 Tb300 2.374 . S
O305 C301 1.251 . S
C306 O310 1.275 . S
C306 O311 1.246 . S
O307 C301 1.263 . S
O307 Tb302 2.353 . S
C308 O312 1.245 . S
C308 O313 1.259 . S
C309 O314 1.250 . S
C309 O315 1.263 . S
O310 Tb302 2.427 . S
O310 C306 1.275 . S
O311 Tb302 2.513 . S
O311 C306 1.246 . S
O312 Tb302 2.453 . S
O312 C308 1.245 . S
O313 Tb300 2.343 . S
O313 Tb302 2.596 . S
O313 C308 1.259 . S
O314 Tb302 2.374 . S
O314 C309 1.250 . S
O315 Tb300 2.353 . S
O315 C309 1.263 . S
C316 O317 1.275 1_655 S
C316 O318 1.246 . S
O317 Tb300 2.427 1_455 S
O317 C316 1.275 1_455 S
O318 Tb300 2.513 . S
O318 C316 1.246 . S
C319 O303 1.245 . S
C319 O304 1.259 . S
Tb320 O323 2.453 . S
Tb320 O324 2.596 . S
Tb320 O325 2.374 . S
Tb320 O333 2.343 . S
Tb320 O335 2.353 . S
Tb320 O337 2.427 . S
Tb320 O338 2.513 . S
C321 O325 1.251 . S
C321 O327 1.263 . S
Tb322 O324 2.343 . S
Tb322 O327 2.353 . S
Tb322 O330 2.427 . S
Tb322 O331 2.513 . S
Tb322 O332 2.453 . S
Tb322 O333 2.596 . S
Tb322 O334 2.374 . S
O323 Tb320 2.453 . S
O323 C339 1.245 . S
O324 Tb320 2.596 . S
O324 Tb322 2.343 . S
O324 C339 1.259 . S
O325 Tb320 2.374 . S
O325 C321 1.251 . S
C326 O330 1.275 . S
C326 O331 1.246 . S
O327 C321 1.263 . S
O327 Tb322 2.353 . S
C328 O332 1.245 . S
C328 O333 1.259 . S
C329 O334 1.250 . S
C329 O335 1.263 . S
O330 Tb322 2.427 . S
O330 C326 1.275 . S
O331 Tb322 2.513 . S
O331 C326 1.246 . S
O332 Tb322 2.453 . S
O332 C328 1.245 . S
O333 Tb320 2.343 . S
O333 Tb322 2.596 . S
O333 C328 1.259 . S
O334 Tb322 2.374 . S
O334 C329 1.250 . S
O335 Tb320 2.353 . S
O335 C329 1.263 . S
C336 O337 1.275 . S
C336 O338 1.246 . S
O337 Tb320 2.427 . S
O337 C336 1.275 . S
O338 Tb320 2.513 . S
O338 C336 1.246 . S
C339 O323 1.245 . S
C339 O324 1.259 . S
Tb340 O343 2.453 . S
Tb340 O344 2.596 . S
Tb340 O345 2.374 . S
Tb340 O353 2.343 . S
Tb340 O355 2.353 . S
Tb340 O357 2.427 1_545 S
Tb340 O358 2.513 . S
C341 O345 1.251 . S
C341 O347 1.263 . S
Tb342 O344 2.343 . S
Tb342 O347 2.353 . S
Tb342 O350 2.427 . S
Tb342 O351 2.513 . S
Tb342 O352 2.453 . S
Tb342 O353 2.596 . S
Tb342 O354 2.374 . S
O343 Tb340 2.453 . S
O343 C359 1.245 . S
O344 Tb340 2.596 . S
O344 Tb342 2.343 . S
O344 C359 1.259 . S
O345 Tb340 2.374 . S
O345 C341 1.251 . S
C346 O350 1.275 . S
C346 O351 1.246 . S
O347 C341 1.263 . S
O347 Tb342 2.353 . S
C348 O352 1.245 . S
C348 O353 1.259 . S
C349 O354 1.250 . S
C349 O355 1.263 . S
O350 Tb342 2.427 . S
O350 C346 1.275 . S
O351 Tb342 2.513 . S
O351 C346 1.246 . S
O352 Tb342 2.453 . S
O352 C348 1.245 . S
O353 Tb340 2.343 . S
O353 Tb342 2.596 . S
O353 C348 1.259 . S
O354 Tb342 2.374 . S
O354 C349 1.250 . S
O355 Tb340 2.353 . S
O355 C349 1.263 . S
C356 O357 1.275 1_545 S
C356 O358 1.246 . S
O357 Tb340 2.427 1_565 S
O357 C356 1.275 1_565 S
O358 Tb340 2.513 . S
O358 C356 1.246 . S
C359 O343 1.245 . S
C359 O344 1.259 . S
Tb360 O363 2.453 . S
Tb360 O364 2.596 . S
Tb360 O365 2.374 . S
Tb360 O373 2.343 . S
Tb360 O375 2.353 . S
Tb360 O377 2.427 . S
Tb360 O378 2.513 . S
C361 O365 1.251 . S
C361 O367 1.263 . S
Tb362 O364 2.343 . S
Tb362 O367 2.353 . S
Tb362 O370 2.427 1_545 S
Tb362 O371 2.513 . S
Tb362 O372 2.453 . S
Tb362 O373 2.596 . S
Tb362 O374 2.374 . S
O363 Tb360 2.453 . S
O363 C379 1.245 . S
O364 Tb360 2.596 . S
O364 Tb362 2.343 . S
O364 C379 1.259 . S
O365 Tb360 2.374 . S
O365 C361 1.251 . S
C366 O370 1.275 1_545 S
C366 O371 1.246 . S
O367 C361 1.263 . S
O367 Tb362 2.353 . S
C368 O372 1.245 . S
C368 O373 1.259 . S
C369 O374 1.250 . S
C369 O375 1.263 . S
O370 Tb362 2.427 1_565 S
O370 C366 1.275 1_565 S
O371 Tb362 2.513 . S
O371 C366 1.246 . S
O372 Tb362 2.453 . S
O372 C368 1.245 . S
O373 Tb360 2.343 . S
O373 Tb362 2.596 . S
O373 C368 1.259 . S
O374 Tb362 2.374 . S
O374 C369 1.250 . S
O375 Tb360 2.353 . S
O375 C369 1.263 . S
C376 O377 1.275 . S
C376 O378 1.246 . S
O377 Tb360 2.427 . S
O377 C376 1.275 . S
O378 Tb360 2.513 . S
O378 C376 1.246 . S
C379 O363 1.245 . S
C379 O364 1.259 . S
Tb380 O383 2.453 . S
Tb380 O384 2.596 . S
Tb380 O385 2.374 . S
Tb380 O393 2.343 . S
Tb380 O395 2.353 . S
Tb380 O397 2.427 . S
Tb380 O398 2.513 . S
C381 O385 1.251 . S
C381 O387 1.263 . S
Tb382 O384 2.343 . S
Tb382 O387 2.353 . S
Tb382 O390 2.427 1_655 S
Tb382 O391 2.513 . S
Tb382 O392 2.453 . S
Tb382 O393 2.596 . S
Tb382 O394 2.374 . S
O383 Tb380 2.453 . S
O383 C399 1.245 . S
O384 Tb380 2.596 . S
O384 Tb382 2.343 . S
O384 C399 1.259 . S
O385 Tb380 2.374 . S
O385 C381 1.251 . S
C386 O390 1.275 1_655 S
C386 O391 1.246 . S
O387 C381 1.263 . S
O387 Tb382 2.353 . S
C388 O392 1.245 . S
C388 O393 1.259 . S
C389 O394 1.250 . S
C389 O395 1.263 . S
O390 Tb382 2.427 1_455 S
O390 C386 1.275 1_455 S
O391 Tb382 2.513 . S
O391 C386 1.246 . S
O392 Tb382 2.453 . S
O392 C388 1.245 . S
O393 Tb380 2.343 . S
O393 Tb382 2.596 . S
O393 C388 1.259 . S
O394 Tb382 2.374 . S
O394 C389 1.250 . S
O395 Tb380 2.353 . S
O395 C389 1.263 . S
C396 O397 1.275 . S
C396 O398 1.246 . S
O397 Tb380 2.427 . S
O397 C396 1.275 . S
O398 Tb380 2.513 . S
O398 C396 1.246 . S
C399 O383 1.245 . S
C399 O384 1.259 . S
Tb400 O403 2.453 . S
Tb400 O404 2.596 . S
Tb400 O405 2.374 . S
Tb400 O413 2.343 . S
Tb400 O415 2.353 . S
Tb400 O417 2.427 . S
Tb400 O418 2.513 . S
C401 O405 1.251 . S
C401 O407 1.263 . S
Tb402 O404 2.343 . S
Tb402 O407 2.353 . S
Tb402 O410 2.427 . S
Tb402 O411 2.513 . S
Tb402 O412 2.453 . S
Tb402 O413 2.596 . S
Tb402 O414 2.374 . S
O403 Tb400 2.453 . S
O403 C419 1.245 . S
O404 Tb400 2.596 . S
O404 Tb402 2.343 . S
O404 C419 1.259 . S
O405 Tb400 2.374 . S
O405 C401 1.251 . S
C406 O410 1.275 . S
C406 O411 1.246 . S
O407 C401 1.263 . S
O407 Tb402 2.353 . S
C408 O412 1.245 . S
C408 O413 1.259 . S
C409 O414 1.250 . S
C409 O415 1.263 . S
O410 Tb402 2.427 . S
O410 C406 1.275 . S
O411 Tb402 2.513 . S
O411 C406 1.246 . S
O412 Tb402 2.453 . S
O412 C408 1.245 . S
O413 Tb400 2.343 . S
O413 Tb402 2.596 . S
O413 C408 1.259 . S
O414 Tb402 2.374 . S
O414 C409 1.250 . S
O415 Tb400 2.353 . S
O415 C409 1.263 . S
C416 O417 1.275 . S
C416 O418 1.246 . S
O417 Tb400 2.427 . S
O417 C416 1.275 . S
O418 Tb400 2.513 . S
O418 C416 1.246 . S
C419 O403 1.245 . S
C419 O404 1.259 . S
Tb420 O423 2.453 . S
Tb420 O424 2.596 . S
Tb420 O425 2.374 . S
Tb420 O433 2.343 1_556 S
Tb420 O435 2.353 . S
Tb420 O437 2.427 . S
Tb420 O438 2.532 . S
C421 O425 1.251 . S
C421 O427 1.263 1_556 S
Tb422 O424 2.343 1_554 S
Tb422 O427 2.353 . S
Tb422 O430 2.427 . S
Tb422 O431 2.525 . S
Tb422 O432 2.453 . S
Tb422 O433 2.596 . S
Tb422 O434 2.374 . S
O423 Tb420 2.453 . S
O423 C439 1.245 . S
O424 Tb420 2.596 . S
O424 Tb422 2.343 1_556 S
O424 C439 1.259 . S
O425 Tb420 2.374 . S
O425 C421 1.251 . S
C426 O430 1.269 1_556 S
C426 O431 1.245 1_556 S
O427 C421 1.263 1_554 S
O427 Tb422 2.353 . S
C428 O432 1.245 . S
C428 O433 1.259 . S
C429 O434 1.250 . S
C429 O435 1.263 1_554 S
O430 Tb422 2.427 . S
O430 C426 1.269 1_554 S
O431 Tb422 2.525 . S
O431 C426 1.245 1_554 S
O432 Tb422 2.453 . S
O432 C428 1.245 . S
O433 Tb420 2.343 1_554 S
O433 Tb422 2.596 . S
O433 C428 1.259 . S
O434 Tb422 2.374 . S
O434 C429 1.250 . S
O435 Tb420 2.353 . S
O435 C429 1.263 1_556 S
C436 O437 1.274 1_554 S
C436 O438 1.245 1_554 S
O437 Tb420 2.427 . S
O437 C436 1.274 1_556 S
O438 Tb420 2.532 . S
O438 C436 1.245 1_556 S
C439 O423 1.245 . S
C439 O424 1.259 . S
Tb440 O443 2.453 . S
Tb440 O444 2.596 . S
Tb440 O445 2.374 . S
Tb440 O453 2.343 1_556 S
Tb440 O455 2.353 . S
Tb440 O457 2.427 . S
Tb440 O458 2.532 . S
C441 O445 1.251 . S
C441 O447 1.263 1_556 S
Tb442 O444 2.343 1_554 S
Tb442 O447 2.353 . S
Tb442 O450 2.427 . S
Tb442 O451 2.525 . S
Tb442 O452 2.453 . S
Tb442 O453 2.596 . S
Tb442 O454 2.374 . S
O443 Tb440 2.453 . S
O443 C459 1.245 . S
O444 Tb440 2.596 . S
O444 Tb442 2.343 1_556 S
O444 C459 1.259 . S
O445 Tb440 2.374 . S
O445 C441 1.251 . S
C446 O450 1.269 1_556 S
C446 O451 1.245 1_556 S
O447 C441 1.263 1_554 S
O447 Tb442 2.353 . S
C448 O452 1.245 . S
C448 O453 1.259 . S
C449 O454 1.250 . S
C449 O455 1.263 1_554 S
O450 Tb442 2.427 . S
O450 C446 1.269 1_554 S
O451 Tb442 2.525 . S
O451 C446 1.245 1_554 S
O452 Tb442 2.453 . S
O452 C448 1.245 . S
O453 Tb440 2.343 1_554 S
O453 Tb442 2.596 . S
O453 C448 1.259 . S
O454 Tb442 2.374 . S
O454 C449 1.250 . S
O455 Tb440 2.353 . S
O455 C449 1.263 1_556 S
C456 O457 1.274 1_554 S
C456 O458 1.245 1_554 S
O457 Tb440 2.427 . S
O457 C456 1.274 1_556 S
O458 Tb440 2.532 . S
O458 C456 1.245 1_556 S
C459 O443 1.245 . S
C459 O444 1.259 . S
Tb460 O463 2.453 . S
Tb460 O464 2.596 . S
Tb460 O465 2.374 . S
Tb460 O473 2.343 1_556 S
Tb460 O475 2.353 . S
Tb460 O477 2.427 . S
Tb460 O478 2.532 . S
C461 O465 1.251 . S
C461 O467 1.263 1_556 S
Tb462 O464 2.343 1_554 S
Tb462 O467 2.353 . S
Tb462 O470 2.427 . S
Tb462 O471 2.525 . S
Tb462 O472 2.453 . S
Tb462 O473 2.596 . S
Tb462 O474 2.374 . S
O463 Tb460 2.453 . S
O463 C479 1.245 . S
O464 Tb460 2.596 . S
O464 Tb462 2.343 1_556 S
O464 C479 1.259 . S
O465 Tb460 2.374 . S
O465 C461 1.251 . S
C466 O470 1.269 1_556 S
C466 O471 1.245 1_556 S
O467 C461 1.263 1_554 S
O467 Tb462 2.353 . S
C468 O472 1.245 . S
C468 O473 1.259 . S
C469 O474 1.250 . S
C469 O475 1.263 1_554 S
O470 Tb462 2.427 . S
O470 C466 1.269 1_554 S
O471 Tb462 2.525 . S
O471 C466 1.245 1_554 S
O472 Tb462 2.453 . S
O472 C468 1.245 . S
O473 Tb460 2.343 1_554 S
O473 Tb462 2.596 . S
O473 C468 1.259 . S
O474 Tb462 2.374 . S
O474 C469 1.250 . S
O475 Tb460 2.353 . S
O475 C469 1.263 1_556 S
C476 O477 1.274 1_554 S
C476 O478 1.245 1_554 S
O477 Tb460 2.427 . S
O477 C476 1.274 1_556 S
O478 Tb460 2.532 . S
O478 C476 1.245 1_556 S
C479 O463 1.245 . S
C479 O464 1.259 . S
Tb480 O483 2.453 . S
Tb480 O484 2.596 . S
Tb480 O485 2.374 . S
Tb480 O493 2.343 . S
Tb480 O495 2.353 . S
Tb480 O497 2.427 1_565 S
Tb480 O498 2.513 . S
C481 O485 1.251 . S
C481 O487 1.263 . S
Tb482 O484 2.343 . S
Tb482 O487 2.353 . S
Tb482 O490 2.427 . S
Tb482 O491 2.513 . S
Tb482 O492 2.453 . S
Tb482 O493 2.596 . S
Tb482 O494 2.374 . S
O483 Tb480 2.453 . S
O483 C499 1.245 . S
O484 Tb480 2.596 . S
O484 Tb482 2.343 . S
O484 C499 1.259 . S
O485 Tb480 2.374 . S
O485 C481 1.251 . S
C486 O490 1.275 . S
C486 O491 1.246 . S
O487 C481 1.263 . S
O487 Tb482 2.353 . S
C488 O492 1.245 . S
C488 O493 1.259 . S
C489 O494 1.250 . S
C489 O495 1.263 . S
O490 Tb482 2.427 . S
O490 C486 1.275 . S
O491 Tb482 2.513 . S
O491 C486 1.246 . S
O492 Tb482 2.453 . S
O492 C488 1.245 . S
O493 Tb480 2.343 . S
O493 Tb482 2.596 . S
O493 C488 1.259 . S
O494 Tb482 2.374 . S
O494 C489 1.250 . S
O495 Tb480 2.353 . S
O495 C489 1.263 . S
C496 O497 1.275 1_565 S
C496 O498 1.246 . S
O497 Tb480 2.427 1_545 S
O497 C496 1.275 1_545 S
O498 Tb480 2.513 . S
O498 C496 1.246 . S
C499 O483 1.245 . S
C499 O484 1.259 . S
Tb500 O503 2.453 . S
Tb500 O504 2.596 . S
Tb500 O505 2.374 . S
Tb500 O513 2.343 . S
Tb500 O515 2.353 . S
Tb500 O517 2.427 1_455 S
Tb500 O518 2.513 . S
C501 O505 1.251 . S
C501 O507 1.263 . S
Tb502 O504 2.343 . S
Tb502 O507 2.353 . S
Tb502 O510 2.427 . S
Tb502 O511 2.513 . S
Tb502 O512 2.453 . S
Tb502 O513 2.596 . S
Tb502 O514 2.374 . S
O503 Tb500 2.453 . S
O503 C519 1.245 . S
O504 Tb500 2.596 . S
O504 Tb502 2.343 . S
O504 C519 1.259 . S
O505 Tb500 2.374 . S
O505 C501 1.251 . S
C506 O510 1.275 . S
C506 O511 1.246 . S
O507 C501 1.263 . S
O507 Tb502 2.353 . S
C508 O512 1.245 . S
C508 O513 1.259 . S
C509 O514 1.250 . S
C509 O515 1.263 . S
O510 Tb502 2.427 . S
O510 C506 1.275 . S
O511 Tb502 2.513 . S
O511 C506 1.246 . S
O512 Tb502 2.453 . S
O512 C508 1.245 . S
O513 Tb500 2.343 . S
O513 Tb502 2.596 . S
O513 C508 1.259 . S
O514 Tb502 2.374 . S
O514 C509 1.250 . S
O515 Tb500 2.353 . S
O515 C509 1.263 . S
C516 O517 1.275 1_455 S
C516 O518 1.246 . S
O517 Tb500 2.427 1_655 S
O517 C516 1.275 1_655 S
O518 Tb500 2.513 . S
O518 C516 1.246 . S
C519 O503 1.245 . S
C519 O504 1.259 . S
Tb520 O523 2.453 . S
Tb520 O524 2.596 . S
Tb520 O525 2.374 . S
Tb520 O533 2.343 . S
Tb520 O535 2.353 . S
Tb520 O537 2.427 . S
Tb520 O538 2.513 . S
C521 O525 1.251 . S
C521 O527 1.263 . S
Tb522 O524 2.343 . S
Tb522 O527 2.353 . S
Tb522 O530 2.427 . S
Tb522 O531 2.513 . S
Tb522 O532 2.453 . S
Tb522 O533 2.596 . S
Tb522 O534 2.374 . S
O523 Tb520 2.453 . S
O523 C539 1.245 . S
O524 Tb520 2.596 . S
O524 Tb522 2.343 . S
O524 C539 1.259 . S
O525 Tb520 2.374 . S
O525 C521 1.251 . S
C526 O530 1.275 . S
C526 O531 1.246 . S
O527 C521 1.263 . S
O527 Tb522 2.353 . S
C528 O532 1.245 . S
C528 O533 1.259 . S
C529 O534 1.250 . S
C529 O535 1.263 . S
O530 Tb522 2.427 . S
O530 C526 1.275 . S
O531 Tb522 2.513 . S
O531 C526 1.246 . S
O532 Tb522 2.453 . S
O532 C528 1.245 . S
O533 Tb520 2.343 . S
O533 Tb522 2.596 . S
O533 C528 1.259 . S
O534 Tb522 2.374 . S
O534 C529 1.250 . S
O535 Tb520 2.353 . S
O535 C529 1.263 . S
C536 O537 1.275 . S
C536 O538 1.246 . S
O537 Tb520 2.427 . S
O537 C536 1.275 . S
O538 Tb520 2.513 . S
O538 C536 1.246 . S
C539 O523 1.245 . S
C539 O524 1.259 . S
Tb540 O543 2.453 . S
Tb540 O544 2.596 . S
Tb540 O545 2.374 . S
Tb540 O553 2.343 1_556 S
Tb540 O555 2.353 . S
Tb540 O557 2.427 . S
Tb540 O558 2.525 . S
C541 O545 1.251 . S
C541 O547 1.263 1_556 S
Tb542 O544 2.343 1_554 S
Tb542 O547 2.353 . S
Tb542 O550 2.427 . S
Tb542 O551 2.532 . S
Tb542 O552 2.453 . S
Tb542 O553 2.596 . S
Tb542 O554 2.374 . S
O543 Tb540 2.453 . S
O543 C559 1.245 . S
O544 Tb540 2.596 . S
O544 Tb542 2.343 1_556 S
O544 C559 1.259 . S
O545 Tb540 2.374 . S
O545 C541 1.251 . S
C546 O550 1.274 1_556 S
C546 O551 1.245 1_556 S
O547 C541 1.263 1_554 S
O547 Tb542 2.353 . S
C548 O552 1.245 . S
C548 O553 1.259 . S
C549 O554 1.250 . S
C549 O555 1.263 1_554 S
O550 Tb542 2.427 . S
O550 C546 1.274 1_554 S
O551 Tb542 2.532 . S
O551 C546 1.245 1_554 S
O552 Tb542 2.453 . S
O552 C548 1.245 . S
O553 Tb540 2.343 1_554 S
O553 Tb542 2.596 . S
O553 C548 1.259 . S
O554 Tb542 2.374 . S
O554 C549 1.250 . S
O555 Tb540 2.353 . S
O555 C549 1.263 1_556 S
C556 O557 1.269 1_554 S
C556 O558 1.245 1_554 S
O557 Tb540 2.427 . S
O557 C556 1.269 1_556 S
O558 Tb540 2.525 . S
O558 C556 1.245 1_556 S
C559 O543 1.245 . S
C559 O544 1.259 . S
Tb560 O563 2.453 . S
Tb560 O564 2.596 . S
Tb560 O565 2.374 . S
Tb560 O573 2.343 1_556 S
Tb560 O575 2.353 . S
Tb560 O577 2.427 . S
Tb560 O578 2.525 . S
C561 O565 1.251 . S
C561 O567 1.263 1_556 S
Tb562 O564 2.343 1_554 S
Tb562 O567 2.353 . S
Tb562 O570 2.427 . S
Tb562 O571 2.532 . S
Tb562 O572 2.453 . S
Tb562 O573 2.596 . S
Tb562 O574 2.374 . S
O563 Tb560 2.453 . S
O563 C579 1.245 . S
O564 Tb560 2.596 . S
O564 Tb562 2.343 1_556 S
O564 C579 1.259 . S
O565 Tb560 2.374 . S
O565 C561 1.251 . S
C566 O570 1.274 1_556 S
C566 O571 1.245 1_556 S
O567 C561 1.263 1_554 S
O567 Tb562 2.353 . S
C568 O572 1.245 . S
C568 O573 1.259 . S
C569 O574 1.250 . S
C569 O575 1.263 1_554 S
O570 Tb562 2.427 . S
O570 C566 1.274 1_554 S
O571 Tb562 2.532 . S
O571 C566 1.245 1_554 S
O572 Tb562 2.453 . S
O572 C568 1.245 . S
O573 Tb560 2.343 1_554 S
O573 Tb562 2.596 . S
O573 C568 1.259 . S
O574 Tb562 2.374 . S
O574 C569 1.250 . S
O575 Tb560 2.353 . S
O575 C569 1.263 1_556 S
C576 O577 1.269 1_554 S
C576 O578 1.245 1_554 S
O577 Tb560 2.427 . S
O577 C576 1.269 1_556 S
O578 Tb560 2.525 . S
O578 C576 1.245 1_556 S
C579 O563 1.245 . S
C579 O564 1.259 . S
Tb580 O583 2.453 . S
Tb580 O584 2.596 . S
Tb580 O585 2.374 . S
Tb580 O593 2.343 1_556 S
Tb580 O595 2.353 . S
Tb580 O597 2.427 . S
Tb580 O598 2.525 . S
C581 O585 1.251 . S
C581 O587 1.263 1_556 S
Tb582 O584 2.343 1_554 S
Tb582 O587 2.353 . S
Tb582 O590 2.427 . S
Tb582 O591 2.532 . S
Tb582 O592 2.453 . S
Tb582 O593 2.596 . S
Tb582 O594 2.374 . S
O583 Tb580 2.453 . S
O583 C599 1.245 . S
O584 Tb580 2.596 . S
O584 Tb582 2.343 1_556 S
O584 C599 1.259 . S
O585 Tb580 2.374 . S
O585 C581 1.251 . S
C586 O590 1.274 1_556 S
C586 O591 1.245 1_556 S
O587 C581 1.263 1_554 S
O587 Tb582 2.353 . S
C588 O592 1.245 . S
C588 O593 1.259 . S
C589 O594 1.250 . S
C589 O595 1.263 1_554 S
O590 Tb582 2.427 . S
O590 C586 1.274 1_554 S
O591 Tb582 2.532 . S
O591 C586 1.245 1_554 S
O592 Tb582 2.453 . S
O592 C588 1.245 . S
O593 Tb580 2.343 1_554 S
O593 Tb582 2.596 . S
O593 C588 1.259 . S
O594 Tb582 2.374 . S
O594 C589 1.250 . S
O595 Tb580 2.353 . S
O595 C589 1.263 1_556 S
C596 O597 1.269 1_554 S
C596 O598 1.245 1_554 S
O597 Tb580 2.427 . S
O597 C596 1.269 1_556 S
O598 Tb580 2.525 . S
O598 C596 1.245 1_556 S
C599 O583 1.245 . S
C599 O584 1.259 . S
Tb600 O603 2.453 . S
Tb600 O604 2.596 . S
Tb600 O605 2.374 . S
Tb600 O613 2.343 . S
Tb600 O615 2.353 . S
Tb600 O617 2.427 . S
Tb600 O618 2.513 . S
C601 O605 1.251 . S
C601 O607 1.263 . S
Tb602 O604 2.343 . S
Tb602 O607 2.353 . S
Tb602 O610 2.427 . S
Tb602 O611 2.513 . S
Tb602 O612 2.453 . S
Tb602 O613 2.596 . S
Tb602 O614 2.374 . S
O603 Tb600 2.453 . S
O603 C619 1.245 . S
O604 Tb600 2.596 . S
O604 Tb602 2.343 . S
O604 C619 1.259 . S
O605 Tb600 2.374 . S
O605 C601 1.251 . S
C606 O610 1.275 . S
C606 O611 1.246 . S
O607 C601 1.263 . S
O607 Tb602 2.353 . S
C608 O612 1.245 . S
C608 O613 1.259 . S
C609 O614 1.250 . S
C609 O615 1.263 . S
O610 Tb602 2.427 . S
O610 C606 1.275 . S
O611 Tb602 2.513 . S
O611 C606 1.246 . S
O612 Tb602 2.453 . S
O612 C608 1.245 . S
O613 Tb600 2.343 . S
O613 Tb602 2.596 . S
O613 C608 1.259 . S
O614 Tb602 2.374 . S
O614 C609 1.250 . S
O615 Tb600 2.353 . S
O615 C609 1.263 . S
C616 O617 1.275 . S
C616 O618 1.246 . S
O617 Tb600 2.427 . S
O617 C616 1.275 . S
O618 Tb600 2.513 . S
O618 C616 1.246 . S
C619 O603 1.245 . S
C619 O604 1.259 . S
Tb620 O623 2.453 . S
Tb620 O624 2.596 . S
Tb620 O625 2.374 . S
Tb620 O633 2.343 . S
Tb620 O635 2.353 . S
Tb620 O637 2.427 . S
Tb620 O638 2.513 . S
C621 O625 1.251 . S
C621 O627 1.263 . S
Tb622 O624 2.343 . S
Tb622 O627 2.353 . S
Tb622 O630 2.427 . S
Tb622 O631 2.513 . S
Tb622 O632 2.453 . S
Tb622 O633 2.596 . S
Tb622 O634 2.374 . S
O623 Tb620 2.453 . S
O623 C639 1.245 . S
O624 Tb620 2.596 . S
O624 Tb622 2.343 . S
O624 C639 1.259 . S
O625 Tb620 2.374 . S
O625 C621 1.251 . S
C626 O630 1.275 . S
C626 O631 1.246 . S
O627 C621 1.263 . S
O627 Tb622 2.353 . S
C628 O632 1.245 . S
C628 O633 1.259 . S
C629 O634 1.250 . S
C629 O635 1.263 . S
O630 Tb622 2.427 . S
O630 C626 1.275 . S
O631 Tb622 2.513 . S
O631 C626 1.246 . S
O632 Tb622 2.453 . S
O632 C628 1.245 . S
O633 Tb620 2.343 . S
O633 Tb622 2.596 . S
O633 C628 1.259 . S
O634 Tb622 2.374 . S
O634 C629 1.250 . S
O635 Tb620 2.353 . S
O635 C629 1.263 . S
C636 O637 1.275 . S
C636 O638 1.246 . S
O637 Tb620 2.427 . S
O637 C636 1.275 . S
O638 Tb620 2.513 . S
O638 C636 1.246 . S
C639 O623 1.245 . S
C639 O624 1.259 . S
Tb640 O643 2.453 . S
Tb640 O644 2.596 . S
Tb640 O645 2.374 . S
Tb640 O653 2.343 . S
Tb640 O655 2.353 . S
Tb640 O657 2.427 . S
Tb640 O658 2.513 . S
C641 O645 1.251 . S
C641 O647 1.263 . S
Tb642 O644 2.343 . S
Tb642 O647 2.353 . S
Tb642 O650 2.427 . S
Tb642 O651 2.513 . S
Tb642 O652 2.453 . S
Tb642 O653 2.596 . S
Tb642 O654 2.374 . S
O643 Tb640 2.453 . S
O643 C659 1.245 . S
O644 Tb640 2.596 . S
O644 Tb642 2.343 . S
O644 C659 1.259 . S
O645 Tb640 2.374 . S
O645 C641 1.251 . S
C646 O650 1.275 . S
C646 O651 1.246 . S
O647 C641 1.263 . S
O647 Tb642 2.353 . S
C648 O652 1.245 . S
C648 O653 1.259 . S
C649 O654 1.250 . S
C649 O655 1.263 . S
O650 Tb642 2.427 . S
O650 C646 1.275 . S
O651 Tb642 2.513 . S
O651 C646 1.246 . S
O652 Tb642 2.453 . S
O652 C648 1.245 . S
O653 Tb640 2.343 . S
O653 Tb642 2.596 . S
O653 C648 1.259 . S
O654 Tb642 2.374 . S
O654 C649 1.250 . S
O655 Tb640 2.353 . S
O655 C649 1.263 . S
C656 O657 1.275 . S
C656 O658 1.246 . S
O657 Tb640 2.427 . S
O657 C656 1.275 . S
O658 Tb640 2.513 . S
O658 C656 1.246 . S
C659 O643 1.245 . S
C659 O644 1.259 . S
Tb660 O663 2.453 . S
Tb660 O664 2.596 . S
Tb660 O665 2.374 . S
Tb660 O673 2.343 . S
Tb660 O675 2.353 . S
Tb660 O677 2.427 . S
Tb660 O678 2.513 . S
C661 O665 1.251 . S
C661 O667 1.263 . S
Tb662 O664 2.343 . S
Tb662 O667 2.353 . S
Tb662 O670 2.427 1_455 S
Tb662 O671 2.513 . S
Tb662 O672 2.453 . S
Tb662 O673 2.596 . S
Tb662 O674 2.374 . S
O663 Tb660 2.453 . S
O663 C679 1.245 . S
O664 Tb660 2.596 . S
O664 Tb662 2.343 . S
O664 C679 1.259 . S
O665 Tb660 2.374 . S
O665 C661 1.251 . S
C666 O670 1.275 1_455 S
C666 O671 1.246 . S
O667 C661 1.263 . S
O667 Tb662 2.353 . S
C668 O672 1.245 . S
C668 O673 1.259 . S
C669 O674 1.250 . S
C669 O675 1.263 . S
O670 Tb662 2.427 1_655 S
O670 C666 1.275 1_655 S
O671 Tb662 2.513 . S
O671 C666 1.246 . S
O672 Tb662 2.453 . S
O672 C668 1.245 . S
O673 Tb660 2.343 . S
O673 Tb662 2.596 . S
O673 C668 1.259 . S
O674 Tb662 2.374 . S
O674 C669 1.250 . S
O675 Tb660 2.353 . S
O675 C669 1.263 . S
C676 O677 1.275 . S
C676 O678 1.246 . S
O677 Tb660 2.427 . S
O677 C676 1.275 . S
O678 Tb660 2.513 . S
O678 C676 1.246 . S
C679 O663 1.245 . S
C679 O664 1.259 . S
Tb680 O683 2.453 . S
Tb680 O684 2.596 . S
Tb680 O685 2.374 . S
Tb680 O693 2.343 . S
Tb680 O695 2.353 . S
Tb680 O697 2.427 . S
Tb680 O698 2.513 . S
C681 O685 1.251 . S
C681 O687 1.263 . S
Tb682 O684 2.343 . S
Tb682 O687 2.353 . S
Tb682 O690 2.427 . S
Tb682 O691 2.513 . S
Tb682 O692 2.453 . S
Tb682 O693 2.596 . S
Tb682 O694 2.374 . S
O683 Tb680 2.453 . S
O683 C699 1.245 . S
O684 Tb680 2.596 . S
O684 Tb682 2.343 . S
O684 C699 1.259 . S
O685 Tb680 2.374 . S
O685 C681 1.251 . S
C686 O690 1.275 . S
C686 O691 1.246 . S
O687 C681 1.263 . S
O687 Tb682 2.353 . S
C688 O692 1.245 . S
C688 O693 1.259 . S
C689 O694 1.250 . S
C689 O695 1.263 . S
O690 Tb682 2.427 . S
O690 C686 1.275 . S
O691 Tb682 2.513 . S
O691 C686 1.246 . S
O692 Tb682 2.453 . S
O692 C688 1.245 . S
O693 Tb680 2.343 . S
O693 Tb682 2.596 . S
O693 C688 1.259 . S
O694 Tb682 2.374 . S
O694 C689 1.250 . S
O695 Tb680 2.353 . S
O695 C689 1.263 . S
C696 O697 1.275 . S
C696 O698 1.246 . S
O697 Tb680 2.427 . S
O697 C696 1.275 . S
O698 Tb680 2.513 . S
O698 C696 1.246 . S
C699 O683 1.245 . S
C699 O684 1.259 . S
Tb700 O703 2.453 . S
Tb700 O704 2.596 . S
Tb700 O705 2.374 . S
Tb700 O713 2.343 . S
Tb700 O715 2.353 . S
Tb700 O717 2.427 . S
Tb700 O718 2.513 . S
C701 O705 1.251 . S
C701 O707 1.263 . S
Tb702 O704 2.343 . S
Tb702 O707 2.353 . S
Tb702 O710 2.427 1_565 S
Tb702 O711 2.513 . S
Tb702 O712 2.453 . S
Tb702 O713 2.596 . S
Tb702 O714 2.374 . S
O703 Tb700 2.453 . S
O703 C719 1.245 . S
O704 Tb700 2.596 . S
O704 Tb702 2.343 . S
O704 C719 1.259 . S
O705 Tb700 2.374 . S
O705 C701 1.251 . S
C706 O710 1.275 1_565 S
C706 O711 1.246 . S
O707 C701 1.263 . S
O707 Tb702 2.353 . S
C708 O712 1.245 . S
C708 O713 1.259 . S
C709 O714 1.250 . S
C709 O715 1.263 . S
O710 Tb702 2.427 1_545 S
O710 C706 1.275 1_545 S
O711 Tb702 2.513 . S
O711 C706 1.246 . S
O712 Tb702 2.453 . S
O712 C708 1.245 . S
O713 Tb700 2.343 . S
O713 Tb702 2.596 . S
O713 C708 1.259 . S
O714 Tb702 2.374 . S
O714 C709 1.250 . S
O715 Tb700 2.353 . S
O715 C709 1.263 . S
C716 O717 1.275 . S
C716 O718 1.246 . S
O717 Tb700 2.427 . S
O717 C716 1.275 . S
O718 Tb700 2.513 . S
O718 C716 1.246 . S
C719 O703 1.245 . S
C719 O704 1.259 . S
H720 C732 0.930 . S
H721 C734 0.930 . S
H722 C735 0.930 . S
H723 C739 0.959 . S
H724 C739 0.959 . S
H725 C739 0.961 . S
H726 C740 0.960 . S
H727 C740 0.961 . S
H728 C740 0.959 . S
H729 C743 0.929 . S
H730 C744 0.931 . S
H731 C746 0.930 . S
C732 H720 0.930 . S
C732 C733 1.399 . S
C732 C737 1.399 . S
C733 C732 1.399 . S
C733 C734 1.376 . S
C734 H721 0.930 . S
C734 C733 1.376 . S
C734 C735 1.388 . S
C735 H722 0.930 . S
C735 C734 1.388 . S
C735 C736 1.390 . S
C736 C735 1.390 . S
C736 C737 1.394 . S
C736 C742 1.465 . S
C737 C732 1.399 . S
C737 C736 1.394 . S
C737 C738 1.516 . S
C738 C737 1.516 . S
C738 C739 1.502 . S
C738 C740 1.561 . S
C738 C741 1.526 . S
C739 H723 0.959 . S
C739 H724 0.959 . S
C739 H725 0.961 . S
C739 C738 1.502 . S
C740 H726 0.960 . S
C740 H727 0.961 . S
C740 H728 0.959 . S
C740 C738 1.561 . S
C741 C738 1.526 . S
C741 C742 1.396 . S
C741 C746 1.390 . S
C742 C736 1.465 . S
C742 C741 1.396 . S
C742 C743 1.399 . S
C743 H729 0.929 . S
C743 C742 1.399 . S
C743 C744 1.385 . S
C744 H730 0.931 . S
C744 C743 1.385 . S
C744 C745 1.389 . S
C745 C744 1.389 . S
C745 C746 1.387 . S
C746 H731 0.930 . S
C746 C741 1.390 . S
C746 C745 1.387 . S
H747 C759 0.930 . S
H748 C761 0.930 . S
H749 C762 0.930 . S
H750 C766 0.959 . S
H751 C766 0.959 . S
H752 C766 0.961 . S
H753 C767 0.960 . S
H754 C767 0.961 . S
H755 C767 0.959 . S
H756 C770 0.929 . S
H757 C771 0.931 . S
H758 C773 0.930 . S
C759 H747 0.930 . S
C759 C760 1.399 . S
C759 C764 1.399 . S
C760 C759 1.399 . S
C760 C761 1.376 . S
C761 H748 0.930 . S
C761 C760 1.376 . S
C761 C762 1.388 . S
C762 H749 0.930 . S
C762 C761 1.388 . S
C762 C763 1.390 . S
C763 C762 1.390 . S
C763 C764 1.394 . S
C763 C769 1.465 . S
C764 C759 1.399 . S
C764 C763 1.394 . S
C764 C765 1.516 . S
C765 C764 1.516 . S
C765 C766 1.502 . S
C765 C767 1.561 . S
C765 C768 1.526 . S
C766 H750 0.959 . S
C766 H751 0.959 . S
C766 H752 0.961 . S
C766 C765 1.502 . S
C767 H753 0.960 . S
C767 H754 0.961 . S
C767 H755 0.959 . S
C767 C765 1.561 . S
C768 C765 1.526 . S
C768 C769 1.396 . S
C768 C773 1.390 1_545 S
C769 C763 1.465 . S
C769 C768 1.396 . S
C769 C770 1.399 . S
C770 H756 0.929 . S
C770 C769 1.399 . S
C770 C771 1.385 1_545 S
C771 H757 0.931 . S
C771 C770 1.385 1_565 S
C771 C772 1.389 . S
C772 C771 1.389 . S
C772 C773 1.387 . S
C773 H758 0.930 . S
C773 C768 1.390 1_565 S
C773 C772 1.387 . S
H774 C786 0.930 . S
H775 C788 0.930 . S
H776 C789 0.930 . S
H777 C793 0.959 . S
H778 C793 0.959 . S
H779 C793 0.961 . S
H780 C794 0.960 . S
H781 C794 0.961 . S
H782 C794 0.959 . S
H783 C797 0.929 . S
H784 C798 0.931 . S
H785 C800 0.930 . S
C786 H774 0.930 . S
C786 C787 1.399 . S
C786 C791 1.399 1_455 S
C787 C786 1.399 . S
C787 C788 1.376 . S
C788 H775 0.930 . S
C788 C787 1.376 . S
C788 C789 1.388 1_455 S
C789 H776 0.930 . S
C789 C788 1.388 1_655 S
C789 C790 1.390 . S
C790 C789 1.390 . S
C790 C791 1.394 . S
C790 C796 1.465 . S
C791 C786 1.399 1_655 S
C791 C790 1.394 . S
C791 C792 1.516 . S
C792 C791 1.516 . S
C792 C793 1.502 . S
C792 C794 1.561 . S
C792 C795 1.526 . S
C793 H777 0.959 . S
C793 H778 0.959 . S
C793 H779 0.961 . S
C793 C792 1.502 . S
C794 H780 0.960 . S
C794 H781 0.961 . S
C794 H782 0.959 . S
C794 C792 1.561 . S
C795 C792 1.526 . S
C795 C796 1.396 . S
C795 C800 1.390 . S
C796 C790 1.465 . S
C796 C795 1.396 . S
C796 C797 1.399 . S
C797 H783 0.929 . S
C797 C796 1.399 . S
C797 C798 1.385 . S
C798 H784 0.931 . S
C798 C797 1.385 . S
C798 C799 1.389 . S
C799 C798 1.389 . S
C799 C800 1.387 . S
C800 H785 0.930 . S
C800 C795 1.390 . S
C800 C799 1.387 . S
H801 C813 0.930 . S
H802 C815 0.930 . S
H803 C816 0.930 . S
H804 C820 0.959 . S
H805 C820 0.959 . S
H806 C820 0.961 . S
H807 C821 0.960 . S
H808 C821 0.961 . S
H809 C821 0.959 . S
H810 C824 0.929 . S
H811 C825 0.931 . S
H812 C827 0.930 . S
C813 H801 0.930 . S
C813 C814 1.399 . S
C813 C818 1.399 . S
C814 C813 1.399 . S
C814 C815 1.376 . S
C815 H802 0.930 . S
C815 C814 1.376 . S
C815 C816 1.388 . S
C816 H803 0.930 . S
C816 C815 1.388 . S
C816 C817 1.390 . S
C817 C816 1.390 . S
C817 C818 1.394 . S
C817 C823 1.465 . S
C818 C813 1.399 . S
C818 C817 1.394 . S
C818 C819 1.516 . S
C819 C818 1.516 . S
C819 C820 1.502 . S
C819 C821 1.561 . S
C819 C822 1.526 . S
C820 H804 0.959 . S
C820 H805 0.959 . S
C820 H806 0.961 . S
C820 C819 1.502 . S
C821 H807 0.960 . S
C821 H808 0.961 . S
C821 H809 0.959 . S
C821 C819 1.561 . S
C822 C819 1.526 . S
C822 C823 1.396 . S
C822 C827 1.390 . S
C823 C817 1.465 . S
C823 C822 1.396 . S
C823 C824 1.399 . S
C824 H810 0.929 . S
C824 C823 1.399 . S
C824 C825 1.385 . S
C825 H811 0.931 . S
C825 C824 1.385 . S
C825 C826 1.389 . S
C826 C825 1.389 . S
C826 C827 1.387 . S
C827 H812 0.930 . S
C827 C822 1.390 . S
C827 C826 1.387 . S
H828 C840 0.930 . S
H829 C842 0.930 . S
H830 C843 0.930 . S
H831 C847 0.959 . S
H832 C847 0.959 . S
H833 C847 0.961 . S
H834 C848 0.960 . S
H835 C848 0.961 . S
H836 C848 0.959 . S
H837 C851 0.929 . S
H838 C852 0.931 . S
H839 C854 0.921 1_545 S
C840 H828 0.930 . S
C840 C841 1.399 . S
C840 C845 1.399 . S
C841 C840 1.399 . S
C841 C842 1.376 . S
C842 H829 0.930 . S
C842 C841 1.376 . S
C842 C843 1.388 . S
C843 H830 0.930 . S
C843 C842 1.388 . S
C843 C844 1.390 . S
C844 C843 1.390 . S
C844 C845 1.394 . S
C844 C850 1.465 . S
C845 C840 1.399 . S
C845 C844 1.394 . S
C845 C846 1.516 . S
C846 C845 1.516 . S
C846 C847 1.502 . S
C846 C848 1.561 . S
C846 C849 1.526 . S
C847 H831 0.959 . S
C847 H832 0.959 . S
C847 H833 0.961 . S
C847 C846 1.502 . S
C848 H834 0.960 . S
C848 H835 0.961 . S
C848 H836 0.959 . S
C848 C846 1.561 . S
C849 C846 1.526 . S
C849 C850 1.396 . S
C849 C854 1.416 . S
C850 C844 1.465 . S
C850 C849 1.396 . S
C850 C851 1.399 . S
C851 H837 0.929 . S
C851 C850 1.399 . S
C851 C852 1.385 1_565 S
C852 H838 0.931 . S
C852 C851 1.385 1_545 S
C852 C853 1.389 . S
C853 C852 1.389 . S
C853 C854 1.370 1_545 S
C854 H839 0.921 1_565 S
C854 C849 1.416 . S
C854 C853 1.370 1_565 S
H855 C867 0.930 1_655 S
H856 C869 0.930 . S
H857 C870 0.930 . S
H858 C874 0.959 . S
H859 C874 0.959 . S
H860 C874 0.961 . S
H861 C875 0.960 . S
H862 C875 0.961 . S
H863 C875 0.959 . S
H864 C878 0.929 . S
H865 C879 0.918 1_545 S
H866 C881 0.930 . S
C867 H855 0.930 1_455 S
C867 C868 1.399 1_455 S
C867 C872 1.399 . S
C868 C867 1.399 1_655 S
C868 C869 1.376 . S
C869 H856 0.930 . S
C869 C868 1.376 . S
C869 C870 1.388 1_655 S
C870 H857 0.930 . S
C870 C869 1.388 1_455 S
C870 C871 1.390 . S
C871 C870 1.390 . S
C871 C872 1.394 . S
C871 C877 1.465 . S
C872 C867 1.399 . S
C872 C871 1.394 . S
C872 C873 1.516 . S
C873 C872 1.516 . S
C873 C874 1.502 . S
C873 C875 1.561 . S
C873 C876 1.526 . S
C874 H858 0.959 . S
C874 H859 0.959 . S
C874 H860 0.961 . S
C874 C873 1.502 . S
C875 H861 0.960 . S
C875 H862 0.961 . S
C875 H863 0.959 . S
C875 C873 1.561 . S
C876 C873 1.526 . S
C876 C877 1.396 . S
C876 C881 1.390 . S
C877 C871 1.465 . S
C877 C876 1.396 . S
C877 C878 1.399 . S
C878 H864 0.929 . S
C878 C877 1.399 . S
C878 C879 1.385 . S
C879 H865 0.918 1_565 S
C879 C878 1.385 . S
C879 C880 1.389 . S
C880 C879 1.389 . S
C880 C881 1.387 . S
C881 H866 0.930 . S
C881 C876 1.390 . S
C881 C880 1.387 . S
H882 C894 0.930 . S
H883 C896 0.930 . S
H884 C897 0.930 . S
H885 C901 0.959 . S
H886 C901 0.959 . S
H887 C901 0.961 . S
H888 C902 0.960 . S
H889 C902 0.961 . S
H890 C902 0.959 . S
H891 C905 0.929 . S
H892 C906 0.931 . S
H893 C908 0.930 . S
C894 H882 0.930 . S
C894 C895 1.399 . S
C894 C899 1.399 . S
C895 C894 1.399 . S
C895 C896 1.376 . S
C896 H883 0.930 . S
C896 C895 1.376 . S
C896 C897 1.388 . S
C897 H884 0.930 . S
C897 C896 1.388 . S
C897 C898 1.390 . S
C898 C897 1.390 . S
C898 C899 1.394 . S
C898 C904 1.465 . S
C899 C894 1.399 . S
C899 C898 1.394 . S
C899 C900 1.516 . S
C900 C899 1.516 . S
C900 C901 1.502 . S
C900 C902 1.561 . S
C900 C903 1.526 . S
C901 H885 0.959 . S
C901 H886 0.959 . S
C901 H887 0.961 . S
C901 C900 1.502 . S
C902 H888 0.960 . S
C902 H889 0.961 . S
C902 H890 0.959 . S
C902 C900 1.561 . S
C903 C900 1.526 . S
C903 C904 1.396 . S
C903 C908 1.390 . S
C904 C898 1.465 . S
C904 C903 1.396 . S
C904 C905 1.399 . S
C905 H891 0.929 . S
C905 C904 1.399 . S
C905 C906 1.385 . S
C906 H892 0.931 . S
C906 C905 1.385 . S
C906 C907 1.389 . S
C907 C906 1.389 . S
C907 C908 1.387 . S
C908 H893 0.930 . S
C908 C903 1.390 . S
C908 C907 1.387 . S
H909 C921 0.930 . S
H910 C923 0.930 . S
H911 C924 0.930 . S
H912 C928 0.959 . S
H913 C928 0.959 . S
H914 C928 0.961 . S
H915 C929 0.960 . S
H916 C929 0.961 . S
H917 C929 0.959 . S
H918 C932 0.929 . S
H919 C933 0.931 . S
H920 C935 0.930 . S
C921 H909 0.930 . S
C921 C922 1.399 . S
C921 C926 1.399 1_545 S
C922 C921 1.399 . S
C922 C923 1.376 . S
C923 H910 0.930 . S
C923 C922 1.376 . S
C923 C924 1.388 1_545 S
C924 H911 0.930 . S
C924 C923 1.388 1_565 S
C924 C925 1.390 . S
C925 C924 1.390 . S
C925 C926 1.394 . S
C925 C931 1.465 . S
C926 C921 1.399 1_565 S
C926 C925 1.394 . S
C926 C927 1.516 . S
C927 C926 1.516 . S
C927 C928 1.502 . S
C927 C929 1.561 . S
C927 C930 1.526 . S
C928 H912 0.959 . S
C928 H913 0.959 . S
C928 H914 0.961 . S
C928 C927 1.502 . S
C929 H915 0.960 . S
C929 H916 0.961 . S
C929 H917 0.959 . S
C929 C927 1.561 . S
C930 C927 1.526 . S
C930 C931 1.396 . S
C930 C935 1.390 . S
C931 C925 1.465 . S
C931 C930 1.396 . S
C931 C932 1.399 . S
C932 H918 0.929 . S
C932 C931 1.399 . S
C932 C933 1.385 . S
C933 H919 0.931 . S
C933 C932 1.385 . S
C933 C934 1.389 . S
C934 C933 1.389 . S
C934 C935 1.387 . S
C935 H920 0.930 . S
C935 C930 1.390 . S
C935 C934 1.387 . S
H936 C948 0.932 . S
H937 C950 0.930 . S
H938 C951 0.930 . S
H939 C955 0.959 . S
H940 C955 0.959 . S
H941 C955 0.961 . S
H942 C956 0.960 . S
H943 C956 0.961 . S
H944 C956 0.959 . S
H945 C959 0.929 . S
H946 C960 0.931 . S
H947 C962 0.930 . S
C948 H936 0.932 . S
C948 C949 1.403 . S
C948 C953 1.392 1_655 S
C949 C948 1.403 . S
C949 C950 1.376 . S
C950 H937 0.930 . S
C950 C949 1.376 . S
C950 C951 1.388 1_655 S
C951 H938 0.930 . S
C951 C950 1.388 1_455 S
C951 C952 1.390 . S
C952 C951 1.390 . S
C952 C953 1.394 . S
C952 C958 1.465 . S
C953 C948 1.392 1_455 S
C953 C952 1.394 . S
C953 C954 1.516 . S
C954 C953 1.516 . S
C954 C955 1.502 . S
C954 C956 1.561 . S
C954 C957 1.526 . S
C955 H939 0.959 . S
C955 H940 0.959 . S
C955 H941 0.961 . S
C955 C954 1.502 . S
C956 H942 0.960 . S
C956 H943 0.961 . S
C956 H944 0.959 . S
C956 C954 1.561 . S
C957 C954 1.526 . S
C957 C958 1.396 . S
C957 C962 1.390 . S
C958 C952 1.465 . S
C958 C957 1.396 . S
C958 C959 1.399 . S
C959 H945 0.929 . S
C959 C958 1.399 . S
C959 C960 1.385 . S
C960 H946 0.931 . S
C960 C959 1.385 . S
C960 C961 1.389 . S
C961 C960 1.389 . S
C961 C962 1.387 . S
C962 H947 0.930 . S
C962 C957 1.390 . S
C962 C961 1.387 . S
H963 C975 0.930 . S
H964 C977 0.930 . S
H965 C978 0.930 . S
H966 C982 0.959 . S
H967 C982 0.959 . S
H968 C982 0.961 . S
H969 C983 0.960 . S
H970 C983 0.961 . S
H971 C983 0.959 . S
H972 C986 0.929 . S
H973 C987 0.931 1_455 S
H974 C989 0.930 . S
C975 H963 0.930 . S
C975 C976 1.399 . S
C975 C980 1.399 . S
C976 C975 1.399 . S
C976 C977 1.376 . S
C977 H964 0.930 . S
C977 C976 1.376 . S
C977 C978 1.388 . S
C978 H965 0.930 . S
C978 C977 1.388 . S
C978 C979 1.390 . S
C979 C978 1.390 . S
C979 C980 1.394 . S
C979 C985 1.465 . S
C980 C975 1.399 . S
C980 C979 1.394 . S
C980 C981 1.516 . S
C981 C980 1.516 . S
C981 C982 1.502 . S
C981 C983 1.561 . S
C981 C984 1.526 . S
C982 H966 0.959 . S
C982 H967 0.959 . S
C982 H968 0.961 . S
C982 C981 1.502 . S
C983 H969 0.960 . S
C983 H970 0.961 . S
C983 H971 0.959 . S
C983 C981 1.561 . S
C984 C981 1.526 . S
C984 C985 1.396 . S
C984 C989 1.390 . S
C985 C979 1.465 . S
C985 C984 1.396 . S
C985 C986 1.399 . S
C986 H972 0.929 . S
C986 C985 1.399 . S
C986 C987 1.385 . S
C987 H973 0.931 1_655 S
C987 C986 1.385 . S
C987 C988 1.389 . S
C988 C987 1.389 . S
C988 C989 1.387 . S
C989 H974 0.930 . S
C989 C984 1.390 . S
C989 C988 1.387 . S
H990 C1002 0.930 . S
H991 C1004 0.930 . S
H992 C1005 0.930 . S
H993 C1009 0.959 . S
H994 C1009 0.959 . S
H995 C1009 0.961 . S
H996 C1010 0.960 . S
H997 C1010 0.961 . S
H998 C1010 0.959 . S
H999 C1013 0.929 . S
H1000 C1014 0.931 . S
H1001 C1016 0.930 . S
C1002 H990 0.930 . S
C1002 C1003 1.399 . S
C1002 C1007 1.399 . S
C1003 C1002 1.399 . S
C1003 C1004 1.376 . S
C1004 H991 0.930 . S
C1004 C1003 1.376 . S
C1004 C1005 1.388 . S
C1005 H992 0.930 . S
C1005 C1004 1.388 . S
C1005 C1006 1.390 . S
C1006 C1005 1.390 . S
C1006 C1007 1.394 . S
C1006 C1012 1.465 . S
C1007 C1002 1.399 . S
C1007 C1006 1.394 . S
C1007 C1008 1.516 . S
C1008 C1007 1.516 . S
C1008 C1009 1.502 . S
C1008 C1010 1.561 . S
C1008 C1011 1.526 . S
C1009 H993 0.959 . S
C1009 H994 0.959 . S
C1009 H995 0.961 . S
C1009 C1008 1.502 . S
C1010 H996 0.960 . S
C1010 H997 0.961 . S
C1010 H998 0.959 . S
C1010 C1008 1.561 . S
C1011 C1008 1.526 . S
C1011 C1012 1.396 . S
C1011 C1016 1.390 1_545 S
C1012 C1006 1.465 . S
C1012 C1011 1.396 . S
C1012 C1013 1.399 . S
C1013 H999 0.929 . S
C1013 C1012 1.399 . S
C1013 C1014 1.385 1_545 S
C1014 H1000 0.931 . S
C1014 C1013 1.385 1_565 S
C1014 C1015 1.389 . S
C1015 C1014 1.389 . S
C1015 C1016 1.387 . S
C1016 H1001 0.930 . S
C1016 C1011 1.390 1_565 S
C1016 C1015 1.387 . S
H1017 C1029 0.930 . S
H1018 C1031 0.930 . S
H1019 C1032 0.930 . S
H1020 C1036 0.959 . S
H1021 C1036 0.959 . S
H1022 C1036 0.961 . S
H1023 C1037 0.960 . S
H1024 C1037 0.961 . S
H1025 C1037 0.959 . S
H1026 C1040 0.929 . S
H1027 C1041 0.931 . S
H1028 C1043 0.930 . S
C1029 H1017 0.930 . S
C1029 C1030 1.399 . S
C1029 C1034 1.399 . S
C1030 C1029 1.399 . S
C1030 C1031 1.376 . S
C1031 H1018 0.930 . S
C1031 C1030 1.376 . S
C1031 C1032 1.388 . S
C1032 H1019 0.930 . S
C1032 C1031 1.388 . S
C1032 C1033 1.390 . S
C1033 C1032 1.390 . S
C1033 C1034 1.394 . S
C1033 C1039 1.465 . S
C1034 C1029 1.399 . S
C1034 C1033 1.394 . S
C1034 C1035 1.516 . S
C1035 C1034 1.516 . S
C1035 C1036 1.502 . S
C1035 C1037 1.561 . S
C1035 C1038 1.526 . S
C1036 H1020 0.959 . S
C1036 H1021 0.959 . S
C1036 H1022 0.961 . S
C1036 C1035 1.502 . S
C1037 H1023 0.960 . S
C1037 H1024 0.961 . S
C1037 H1025 0.959 . S
C1037 C1035 1.561 . S
C1038 C1035 1.526 . S
C1038 C1039 1.396 . S
C1038 C1043 1.390 1_655 S
C1039 C1033 1.465 . S
C1039 C1038 1.396 . S
C1039 C1040 1.399 . S
C1040 H1026 0.929 . S
C1040 C1039 1.399 . S
C1040 C1041 1.385 1_655 S
C1041 H1027 0.931 . S
C1041 C1040 1.385 1_455 S
C1041 C1042 1.389 . S
C1042 C1041 1.389 . S
C1042 C1043 1.387 . S
C1043 H1028 0.930 . S
C1043 C1038 1.390 1_455 S
C1043 C1042 1.387 . S
H1044 C1056 0.930 . S
H1045 C1058 0.930 . S
H1046 C1059 0.930 . S
H1047 C1063 0.959 . S
H1048 C1063 0.959 . S
H1049 C1063 0.961 . S
H1050 C1064 0.960 . S
H1051 C1064 0.961 . S
H1052 C1064 0.959 . S
H1053 C1067 0.929 . S
H1054 C1068 0.931 . S
H1055 C1070 0.930 . S
C1056 H1044 0.930 . S
C1056 C1057 1.399 . S
C1056 C1061 1.399 . S
C1057 C1056 1.399 . S
C1057 C1058 1.376 . S
C1058 H1045 0.930 . S
C1058 C1057 1.376 . S
C1058 C1059 1.388 . S
C1059 H1046 0.930 . S
C1059 C1058 1.388 . S
C1059 C1060 1.390 . S
C1060 C1059 1.390 . S
C1060 C1061 1.394 . S
C1060 C1066 1.465 . S
C1061 C1056 1.399 . S
C1061 C1060 1.394 . S
C1061 C1062 1.516 . S
C1062 C1061 1.516 . S
C1062 C1063 1.502 . S
C1062 C1064 1.561 . S
C1062 C1065 1.526 . S
C1063 H1047 0.959 . S
C1063 H1048 0.959 . S
C1063 H1049 0.961 . S
C1063 C1062 1.502 . S
C1064 H1050 0.960 . S
C1064 H1051 0.961 . S
C1064 H1052 0.959 . S
C1064 C1062 1.561 . S
C1065 C1062 1.526 . S
C1065 C1066 1.396 . S
C1065 C1070 1.390 . S
C1066 C1060 1.465 . S
C1066 C1065 1.396 . S
C1066 C1067 1.399 . S
C1067 H1053 0.929 . S
C1067 C1066 1.399 . S
C1067 C1068 1.385 . S
C1068 H1054 0.931 . S
C1068 C1067 1.385 . S
C1068 C1069 1.389 . S
C1069 C1068 1.389 . S
C1069 C1070 1.387 . S
C1070 H1055 0.930 . S
C1070 C1065 1.390 . S
C1070 C1069 1.387 . S
H1071 C1083 0.930 . S
H1072 C1085 0.930 . S
H1073 C1086 0.930 . S
H1074 C1090 0.959 . S
H1075 C1090 0.959 . S
H1076 C1090 0.961 . S
H1077 C1091 0.960 . S
H1078 C1091 0.961 . S
H1079 C1091 0.959 . S
H1080 C1094 0.929 . S
H1081 C1095 0.931 . S
H1082 C1097 0.930 . S
C1083 H1071 0.930 . S
C1083 C1084 1.399 . S
C1083 C1088 1.399 . S
C1084 C1083 1.399 . S
C1084 C1085 1.376 . S
C1085 H1072 0.930 . S
C1085 C1084 1.376 . S
C1085 C1086 1.388 . S
C1086 H1073 0.930 . S
C1086 C1085 1.388 . S
C1086 C1087 1.390 . S
C1087 C1086 1.390 . S
C1087 C1088 1.394 . S
C1087 C1093 1.465 . S
C1088 C1083 1.399 . S
C1088 C1087 1.394 . S
C1088 C1089 1.516 . S
C1089 C1088 1.516 . S
C1089 C1090 1.502 . S
C1089 C1091 1.561 . S
C1089 C1092 1.526 . S
C1090 H1074 0.959 . S
C1090 H1075 0.959 . S
C1090 H1076 0.961 . S
C1090 C1089 1.502 . S
C1091 H1077 0.960 . S
C1091 H1078 0.961 . S
C1091 H1079 0.959 . S
C1091 C1089 1.561 . S
C1092 C1089 1.526 . S
C1092 C1093 1.396 . S
C1092 C1097 1.390 . S
C1093 C1087 1.465 . S
C1093 C1092 1.396 . S
C1093 C1094 1.399 . S
C1094 H1080 0.929 . S
C1094 C1093 1.399 . S
C1094 C1095 1.385 . S
C1095 H1081 0.931 . S
C1095 C1094 1.385 . S
C1095 C1096 1.389 . S
C1096 C1095 1.389 . S
C1096 C1097 1.387 . S
C1097 H1082 0.930 . S
C1097 C1092 1.390 . S
C1097 C1096 1.387 . S
H1098 C1110 0.930 . S
H1099 C1112 0.930 . S
H1100 C1113 0.930 . S
H1101 C1117 0.959 . S
H1102 C1117 0.959 . S
H1103 C1117 0.961 . S
H1104 C1118 0.960 . S
H1105 C1118 0.961 . S
H1106 C1118 0.959 . S
H1107 C1121 0.929 . S
H1108 C1122 0.931 . S
H1109 C1124 0.930 . S
C1110 H1098 0.930 . S
C1110 C1111 1.399 . S
C1110 C1115 1.399 . S
C1111 C1110 1.399 . S
C1111 C1112 1.376 . S
C1112 H1099 0.930 . S
C1112 C1111 1.376 . S
C1112 C1113 1.388 . S
C1113 H1100 0.930 . S
C1113 C1112 1.388 . S
C1113 C1114 1.390 . S
C1114 C1113 1.390 . S
C1114 C1115 1.394 . S
C1114 C1120 1.465 . S
C1115 C1110 1.399 . S
C1115 C1114 1.394 . S
C1115 C1116 1.516 . S
C1116 C1115 1.516 . S
C1116 C1117 1.502 . S
C1116 C1118 1.561 . S
C1116 C1119 1.526 . S
C1117 H1101 0.959 . S
C1117 H1102 0.959 . S
C1117 H1103 0.961 . S
C1117 C1116 1.502 . S
C1118 H1104 0.960 . S
C1118 H1105 0.961 . S
C1118 H1106 0.959 . S
C1118 C1116 1.561 . S
C1119 C1116 1.526 . S
C1119 C1120 1.396 . S
C1119 C1124 1.390 . S
C1120 C1114 1.465 . S
C1120 C1119 1.396 . S
C1120 C1121 1.399 . S
C1121 H1107 0.929 . S
C1121 C1120 1.399 . S
C1121 C1122 1.385 . S
C1122 H1108 0.931 . S
C1122 C1121 1.385 . S
C1122 C1123 1.389 . S
C1123 C1122 1.389 . S
C1123 C1124 1.387 . S
C1124 H1109 0.930 . S
C1124 C1119 1.390 . S
C1124 C1123 1.387 . S
H1125 C1137 0.930 . S
H1126 C1139 0.930 . S
H1127 C1140 0.930 . S
H1128 C1144 0.959 . S
H1129 C1144 0.959 . S
H1130 C1144 0.961 . S
H1131 C1145 0.960 . S
H1132 C1145 0.961 . S
H1133 C1145 0.959 . S
H1134 C1148 0.929 . S
H1135 C1149 0.931 . S
H1136 C1151 0.930 . S
C1137 H1125 0.930 . S
C1137 C1138 1.399 . S
C1137 C1142 1.399 . S
C1138 C1137 1.399 . S
C1138 C1139 1.376 . S
C1139 H1126 0.930 . S
C1139 C1138 1.376 . S
C1139 C1140 1.388 . S
C1140 H1127 0.930 . S
C1140 C1139 1.388 . S
C1140 C1141 1.390 . S
C1141 C1140 1.390 . S
C1141 C1142 1.394 . S
C1141 C1147 1.465 . S
C1142 C1137 1.399 . S
C1142 C1141 1.394 . S
C1142 C1143 1.516 . S
C1143 C1142 1.516 . S
C1143 C1144 1.502 . S
C1143 C1145 1.561 . S
C1143 C1146 1.526 . S
C1144 H1128 0.959 . S
C1144 H1129 0.959 . S
C1144 H1130 0.961 . S
C1144 C1143 1.502 . S
C1145 H1131 0.960 . S
C1145 H1132 0.961 . S
C1145 H1133 0.959 . S
C1145 C1143 1.561 . S
C1146 C1143 1.526 . S
C1146 C1147 1.396 . S
C1146 C1151 1.390 . S
C1147 C1141 1.465 . S
C1147 C1146 1.396 . S
C1147 C1148 1.399 . S
C1148 H1134 0.929 . S
C1148 C1147 1.399 . S
C1148 C1149 1.385 . S
C1149 H1135 0.931 . S
C1149 C1148 1.385 . S
C1149 C1150 1.389 . S
C1150 C1149 1.389 . S
C1150 C1151 1.387 . S
C1151 H1136 0.930 . S
C1151 C1146 1.390 . S
C1151 C1150 1.387 . S
H1152 C1164 0.930 . S
H1153 C1166 0.930 . S
H1154 C1167 0.930 . S
H1155 C1171 0.959 . S
H1156 C1171 0.959 . S
H1157 C1171 0.961 . S
H1158 C1172 0.960 . S
H1159 C1172 0.961 . S
H1160 C1172 0.959 . S
H1161 C1175 0.929 . S
H1162 C1176 0.931 . S
H1163 C1178 0.930 . S
C1164 H1152 0.930 . S
C1164 C1165 1.399 . S
C1164 C1169 1.399 . S
C1165 C1164 1.399 . S
C1165 C1166 1.376 . S
C1166 H1153 0.930 . S
C1166 C1165 1.376 . S
C1166 C1167 1.388 . S
C1167 H1154 0.930 . S
C1167 C1166 1.388 . S
C1167 C1168 1.390 . S
C1168 C1167 1.390 . S
C1168 C1169 1.394 . S
C1168 C1174 1.465 . S
C1169 C1164 1.399 . S
C1169 C1168 1.394 . S
C1169 C1170 1.516 . S
C1170 C1169 1.516 . S
C1170 C1171 1.502 . S
C1170 C1172 1.561 . S
C1170 C1173 1.526 . S
C1171 H1155 0.959 . S
C1171 H1156 0.959 . S
C1171 H1157 0.961 . S
C1171 C1170 1.502 . S
C1172 H1158 0.960 . S
C1172 H1159 0.961 . S
C1172 H1160 0.959 . S
C1172 C1170 1.561 . S
C1173 C1170 1.526 . S
C1173 C1174 1.396 . S
C1173 C1178 1.390 . S
C1174 C1168 1.465 . S
C1174 C1173 1.396 . S
C1174 C1175 1.399 . S
C1175 H1161 0.929 . S
C1175 C1174 1.399 . S
C1175 C1176 1.385 . S
C1176 H1162 0.931 . S
C1176 C1175 1.385 . S
C1176 C1177 1.389 . S
C1177 C1176 1.389 . S
C1177 C1178 1.387 . S
C1178 H1163 0.930 . S
C1178 C1173 1.390 . S
C1178 C1177 1.387 . S
H1179 C1191 0.930 . S
H1180 C1193 0.930 . S
H1181 C1194 0.930 . S
H1182 C1198 0.959 . S
H1183 C1198 0.959 . S
H1184 C1198 0.961 . S
H1185 C1199 0.960 . S
H1186 C1199 0.961 . S
H1187 C1199 0.959 . S
H1188 C1202 0.929 . S
H1189 C1203 0.931 . S
H1190 C1205 0.930 . S
C1191 H1179 0.930 . S
C1191 C1192 1.399 . S
C1191 C1196 1.399 . S
C1192 C1191 1.399 . S
C1192 C1193 1.376 . S
C1193 H1180 0.930 . S
C1193 C1192 1.376 . S
C1193 C1194 1.388 . S
C1194 H1181 0.930 . S
C1194 C1193 1.388 . S
C1194 C1195 1.390 . S
C1195 C1194 1.390 . S
C1195 C1196 1.394 . S
C1195 C1201 1.465 . S
C1196 C1191 1.399 . S
C1196 C1195 1.394 . S
C1196 C1197 1.516 . S
C1197 C1196 1.516 . S
C1197 C1198 1.502 . S
C1197 C1199 1.561 . S
C1197 C1200 1.526 . S
C1198 H1182 0.959 . S
C1198 H1183 0.959 . S
C1198 H1184 0.961 . S
C1198 C1197 1.502 . S
C1199 H1185 0.960 . S
C1199 H1186 0.961 . S
C1199 H1187 0.959 . S
C1199 C1197 1.561 . S
C1200 C1197 1.526 . S
C1200 C1201 1.396 . S
C1200 C1205 1.390 . S
C1201 C1195 1.465 . S
C1201 C1200 1.396 . S
C1201 C1202 1.399 . S
C1202 H1188 0.929 . S
C1202 C1201 1.399 . S
C1202 C1203 1.385 . S
C1203 H1189 0.931 . S
C1203 C1202 1.385 . S
C1203 C1204 1.389 . S
C1204 C1203 1.389 . S
C1204 C1205 1.387 . S
C1205 H1190 0.930 . S
C1205 C1200 1.390 . S
C1205 C1204 1.387 . S
H1206 C1218 0.930 . S
H1207 C1220 0.930 . S
H1208 C1221 0.930 . S
H1209 C1225 0.959 . S
H1210 C1225 0.959 . S
H1211 C1225 0.961 . S
H1212 C1226 0.960 . S
H1213 C1226 0.961 . S
H1214 C1226 0.959 . S
H1215 C1229 0.929 . S
H1216 C1230 0.931 . S
H1217 C1232 0.930 . S
C1218 H1206 0.930 . S
C1218 C1219 1.399 . S
C1218 C1223 1.399 . S
C1219 C1218 1.399 . S
C1219 C1220 1.376 . S
C1220 H1207 0.930 . S
C1220 C1219 1.376 . S
C1220 C1221 1.388 . S
C1221 H1208 0.930 . S
C1221 C1220 1.388 . S
C1221 C1222 1.390 . S
C1222 C1221 1.390 . S
C1222 C1223 1.394 . S
C1222 C1228 1.465 . S
C1223 C1218 1.399 . S
C1223 C1222 1.394 . S
C1223 C1224 1.516 . S
C1224 C1223 1.516 . S
C1224 C1225 1.502 . S
C1224 C1226 1.561 . S
C1224 C1227 1.526 . S
C1225 H1209 0.959 . S
C1225 H1210 0.959 . S
C1225 H1211 0.961 . S
C1225 C1224 1.502 . S
C1226 H1212 0.960 . S
C1226 H1213 0.961 . S
C1226 H1214 0.959 . S
C1226 C1224 1.561 . S
C1227 C1224 1.526 . S
C1227 C1228 1.396 . S
C1227 C1232 1.390 . S
C1228 C1222 1.465 . S
C1228 C1227 1.396 . S
C1228 C1229 1.399 . S
C1229 H1215 0.929 . S
C1229 C1228 1.399 . S
C1229 C1230 1.385 . S
C1230 H1216 0.931 . S
C1230 C1229 1.385 . S
C1230 C1231 1.389 . S
C1231 C1230 1.389 . S
C1231 C1232 1.387 . S
C1232 H1217 0.930 . S
C1232 C1227 1.390 . S
C1232 C1231 1.387 . S
H1233 C1245 0.930 . S
H1234 C1247 0.930 . S
H1235 C1248 0.930 . S
H1236 C1252 0.959 . S
H1237 C1252 0.959 . S
H1238 C1252 0.961 . S
H1239 C1253 0.960 . S
H1240 C1253 0.961 . S
H1241 C1253 0.959 . S
H1242 C1256 0.929 . S
H1243 C1257 0.931 . S
H1244 C1259 0.930 . S
C1245 H1233 0.930 . S
C1245 C1246 1.399 . S
C1245 C1250 1.399 . S
C1246 C1245 1.399 . S
C1246 C1247 1.376 . S
C1247 H1234 0.930 . S
C1247 C1246 1.376 . S
C1247 C1248 1.388 . S
C1248 H1235 0.930 . S
C1248 C1247 1.388 . S
C1248 C1249 1.390 . S
C1249 C1248 1.390 . S
C1249 C1250 1.394 . S
C1249 C1255 1.465 . S
C1250 C1245 1.399 . S
C1250 C1249 1.394 . S
C1250 C1251 1.516 . S
C1251 C1250 1.516 . S
C1251 C1252 1.502 . S
C1251 C1253 1.561 . S
C1251 C1254 1.526 . S
C1252 H1236 0.959 . S
C1252 H1237 0.959 . S
C1252 H1238 0.961 . S
C1252 C1251 1.502 . S
C1253 H1239 0.960 . S
C1253 H1240 0.961 . S
C1253 H1241 0.959 . S
C1253 C1251 1.561 . S
C1254 C1251 1.526 . S
C1254 C1255 1.396 . S
C1254 C1259 1.390 . S
C1255 C1249 1.465 . S
C1255 C1254 1.396 . S
C1255 C1256 1.399 . S
C1256 H1242 0.929 . S
C1256 C1255 1.399 . S
C1256 C1257 1.385 . S
C1257 H1243 0.931 . S
C1257 C1256 1.385 . S
C1257 C1258 1.389 . S
C1258 C1257 1.389 . S
C1258 C1259 1.387 . S
C1259 H1244 0.930 . S
C1259 C1254 1.390 . S
C1259 C1258 1.387 . S
H1260 C1272 0.930 . S
H1261 C1274 0.930 . S
H1262 C1275 0.930 . S
H1263 C1279 0.959 . S
H1264 C1279 0.959 . S
H1265 C1279 0.961 . S
H1266 C1280 0.960 . S
H1267 C1280 0.961 . S
H1268 C1280 0.959 . S
H1269 C1283 0.929 . S
H1270 C1284 0.931 . S
H1271 C1286 0.930 . S
C1272 H1260 0.930 . S
C1272 C1273 1.399 . S
C1272 C1277 1.399 . S
C1273 C1272 1.399 . S
C1273 C1274 1.376 . S
C1274 H1261 0.930 . S
C1274 C1273 1.376 . S
C1274 C1275 1.388 . S
C1275 H1262 0.930 . S
C1275 C1274 1.388 . S
C1275 C1276 1.390 . S
C1276 C1275 1.390 . S
C1276 C1277 1.394 . S
C1276 C1282 1.465 . S
C1277 C1272 1.399 . S
C1277 C1276 1.394 . S
C1277 C1278 1.516 . S
C1278 C1277 1.516 . S
C1278 C1279 1.502 . S
C1278 C1280 1.561 . S
C1278 C1281 1.526 . S
C1279 H1263 0.959 . S
C1279 H1264 0.959 . S
C1279 H1265 0.961 . S
C1279 C1278 1.502 . S
C1280 H1266 0.960 . S
C1280 H1267 0.961 . S
C1280 H1268 0.959 . S
C1280 C1278 1.561 . S
C1281 C1278 1.526 . S
C1281 C1282 1.396 . S
C1281 C1286 1.390 . S
C1282 C1276 1.465 . S
C1282 C1281 1.396 . S
C1282 C1283 1.399 . S
C1283 H1269 0.929 . S
C1283 C1282 1.399 . S
C1283 C1284 1.385 . S
C1284 H1270 0.931 . S
C1284 C1283 1.385 . S
C1284 C1285 1.389 . S
C1285 C1284 1.389 . S
C1285 C1286 1.387 . S
C1286 H1271 0.930 . S
C1286 C1281 1.390 . S
C1286 C1285 1.387 . S
H1287 C1299 0.930 . S
H1288 C1301 0.930 . S
H1289 C1302 0.930 . S
H1290 C1306 0.959 . S
H1291 C1306 0.959 . S
H1292 C1306 0.961 . S
H1293 C1307 0.960 . S
H1294 C1307 0.961 . S
H1295 C1307 0.959 . S
H1296 C1310 0.929 . S
H1297 C1311 0.931 . S
H1298 C1313 0.930 . S
C1299 H1287 0.930 . S
C1299 C1300 1.399 . S
C1299 C1304 1.399 . S
C1300 C1299 1.399 . S
C1300 C1301 1.376 1_554 S
C1301 H1288 0.930 . S
C1301 C1300 1.376 1_556 S
C1301 C1302 1.388 . S
C1302 H1289 0.930 . S
C1302 C1301 1.388 . S
C1302 C1303 1.390 . S
C1303 C1302 1.390 . S
C1303 C1304 1.394 1_556 S
C1303 C1309 1.465 . S
C1304 C1299 1.399 . S
C1304 C1303 1.394 1_554 S
C1304 C1305 1.516 . S
C1305 C1304 1.516 . S
C1305 C1306 1.502 . S
C1305 C1307 1.561 . S
C1305 C1308 1.526 . S
C1306 H1290 0.959 . S
C1306 H1291 0.959 . S
C1306 H1292 0.961 . S
C1306 C1305 1.502 . S
C1307 H1293 0.960 . S
C1307 H1294 0.961 . S
C1307 H1295 0.959 . S
C1307 C1305 1.561 . S
C1308 C1305 1.526 . S
C1308 C1309 1.396 1_554 S
C1308 C1313 1.390 . S
C1309 C1303 1.465 . S
C1309 C1308 1.396 1_556 S
C1309 C1310 1.399 . S
C1310 H1296 0.929 . S
C1310 C1309 1.399 . S
C1310 C1311 1.385 . S
C1311 H1297 0.931 . S
C1311 C1310 1.385 . S
C1311 C1312 1.389 1_556 S
C1312 C1311 1.389 1_554 S
C1312 C1313 1.387 . S
C1313 H1298 0.930 . S
C1313 C1308 1.390 . S
C1313 C1312 1.387 . S
H1314 C1326 0.930 . S
H1315 C1328 0.930 . S
H1316 C1329 0.930 . S
H1317 C1333 0.959 . S
H1318 C1333 0.959 . S
H1319 C1333 0.961 . S
H1320 C1334 0.960 . S
H1321 C1334 0.961 . S
H1322 C1334 0.959 . S
H1323 C1337 0.929 . S
H1324 C1338 0.931 . S
H1325 C1340 0.930 . S
C1326 H1314 0.930 . S
C1326 C1327 1.399 1_556 S
C1326 C1331 1.399 . S
C1327 C1326 1.399 1_554 S
C1327 C1328 1.376 . S
C1328 H1315 0.930 . S
C1328 C1327 1.376 . S
C1328 C1329 1.388 . S
C1329 H1316 0.930 . S
C1329 C1328 1.388 . S
C1329 C1330 1.390 . S
C1330 C1329 1.390 . S
C1330 C1331 1.394 1_554 S
C1330 C1336 1.465 . S
C1331 C1326 1.399 . S
C1331 C1330 1.394 1_556 S
C1331 C1332 1.516 . S
C1332 C1331 1.516 . S
C1332 C1333 1.502 . S
C1332 C1334 1.561 . S
C1332 C1335 1.526 . S
C1333 H1317 0.959 . S
C1333 H1318 0.959 . S
C1333 H1319 0.961 . S
C1333 C1332 1.502 . S
C1334 H1320 0.960 . S
C1334 H1321 0.961 . S
C1334 H1322 0.959 . S
C1334 C1332 1.561 . S
C1335 C1332 1.526 . S
C1335 C1336 1.396 1_556 S
C1335 C1340 1.390 . S
C1336 C1330 1.465 . S
C1336 C1335 1.396 1_554 S
C1336 C1337 1.399 . S
C1337 H1323 0.929 . S
C1337 C1336 1.399 . S
C1337 C1338 1.385 . S
C1338 H1324 0.931 . S
C1338 C1337 1.385 . S
C1338 C1339 1.389 . S
C1339 C1338 1.389 . S
C1339 C1340 1.387 1_554 S
C1340 H1325 0.930 . S
C1340 C1335 1.390 . S
C1340 C1339 1.387 1_556 S
H1341 C1353 0.930 . S
H1342 C1355 0.930 . S
H1343 C1356 0.930 . S
H1344 C1360 0.959 . S
H1345 C1360 0.959 . S
H1346 C1360 0.961 . S
H1347 C1361 0.960 . S
H1348 C1361 0.961 . S
H1349 C1361 0.959 . S
H1350 C1364 0.929 . S
H1351 C1365 0.931 . S
H1352 C1367 0.930 . S
C1353 H1341 0.930 . S
C1353 C1354 1.399 . S
C1353 C1358 1.399 . S
C1354 C1353 1.399 . S
C1354 C1355 1.376 1_554 S
C1355 H1342 0.930 . S
C1355 C1354 1.376 1_556 S
C1355 C1356 1.388 . S
C1356 H1343 0.930 . S
C1356 C1355 1.388 . S
C1356 C1357 1.390 . S
C1357 C1356 1.390 . S
C1357 C1358 1.394 1_556 S
C1357 C1363 1.465 . S
C1358 C1353 1.399 . S
C1358 C1357 1.394 1_554 S
C1358 C1359 1.516 . S
C1359 C1358 1.516 . S
C1359 C1360 1.502 . S
C1359 C1361 1.561 . S
C1359 C1362 1.526 . S
C1360 H1344 0.959 . S
C1360 H1345 0.959 . S
C1360 H1346 0.961 . S
C1360 C1359 1.502 . S
C1361 H1347 0.960 . S
C1361 H1348 0.961 . S
C1361 H1349 0.959 . S
C1361 C1359 1.561 . S
C1362 C1359 1.526 . S
C1362 C1363 1.396 1_554 S
C1362 C1367 1.390 . S
C1363 C1357 1.465 . S
C1363 C1362 1.396 1_556 S
C1363 C1364 1.399 . S
C1364 H1350 0.929 . S
C1364 C1363 1.399 . S
C1364 C1365 1.385 . S
C1365 H1351 0.931 . S
C1365 C1364 1.385 . S
C1365 C1366 1.389 1_556 S
C1366 C1365 1.389 1_554 S
C1366 C1367 1.387 . S
C1367 H1352 0.930 . S
C1367 C1362 1.390 . S
C1367 C1366 1.387 . S
H1368 C1380 0.930 . S
H1369 C1382 0.930 . S
H1370 C1383 0.930 . S
H1371 C1387 0.959 . S
H1372 C1387 0.959 . S
H1373 C1387 0.961 . S
H1374 C1388 0.960 . S
H1375 C1388 0.961 . S
H1376 C1388 0.959 . S
H1377 C1391 0.929 . S
H1378 C1392 0.931 . S
H1379 C1394 0.930 . S
C1380 H1368 0.930 . S
C1380 C1381 1.399 . S
C1380 C1385 1.399 . S
C1381 C1380 1.399 . S
C1381 C1382 1.376 . S
C1382 H1369 0.930 . S
C1382 C1381 1.376 . S
C1382 C1383 1.388 . S
C1383 H1370 0.930 . S
C1383 C1382 1.388 . S
C1383 C1384 1.390 . S
C1384 C1383 1.390 . S
C1384 C1385 1.394 . S
C1384 C1390 1.465 . S
C1385 C1380 1.399 . S
C1385 C1384 1.394 . S
C1385 C1386 1.516 . S
C1386 C1385 1.516 . S
C1386 C1387 1.502 . S
C1386 C1388 1.561 . S
C1386 C1389 1.526 . S
C1387 H1371 0.959 . S
C1387 H1372 0.959 . S
C1387 H1373 0.961 . S
C1387 C1386 1.502 . S
C1388 H1374 0.960 . S
C1388 H1375 0.961 . S
C1388 H1376 0.959 . S
C1388 C1386 1.561 . S
C1389 C1386 1.526 . S
C1389 C1390 1.396 . S
C1389 C1394 1.390 . S
C1390 C1384 1.465 . S
C1390 C1389 1.396 . S
C1390 C1391 1.399 . S
C1391 H1377 0.929 . S
C1391 C1390 1.399 . S
C1391 C1392 1.385 . S
C1392 H1378 0.931 . S
C1392 C1391 1.385 . S
C1392 C1393 1.389 . S
C1393 C1392 1.389 . S
C1393 C1394 1.387 . S
C1394 H1379 0.930 . S
C1394 C1389 1.390 . S
C1394 C1393 1.387 . S
H1395 C1407 0.930 . S
H1396 C1409 0.930 . S
H1397 C1410 0.930 . S
H1398 C1414 0.959 . S
H1399 C1414 0.959 . S
H1400 C1414 0.961 . S
H1401 C1415 0.960 . S
H1402 C1415 0.961 . S
H1403 C1415 0.959 . S
H1404 C1418 0.929 . S
H1405 C1419 0.931 . S
H1406 C1421 0.930 . S
C1407 H1395 0.930 . S
C1407 C1408 1.399 . S
C1407 C1412 1.399 . S
C1408 C1407 1.399 . S
C1408 C1409 1.376 . S
C1409 H1396 0.930 . S
C1409 C1408 1.376 . S
C1409 C1410 1.388 . S
C1410 H1397 0.930 . S
C1410 C1409 1.388 . S
C1410 C1411 1.390 . S
C1411 C1410 1.390 . S
C1411 C1412 1.394 . S
C1411 C1417 1.465 . S
C1412 C1407 1.399 . S
C1412 C1411 1.394 . S
C1412 C1413 1.516 . S
C1413 C1412 1.516 . S
C1413 C1414 1.502 . S
C1413 C1415 1.561 . S
C1413 C1416 1.526 . S
C1414 H1398 0.959 . S
C1414 H1399 0.959 . S
C1414 H1400 0.961 . S
C1414 C1413 1.502 . S
C1415 H1401 0.960 . S
C1415 H1402 0.961 . S
C1415 H1403 0.959 . S
C1415 C1413 1.561 . S
C1416 C1413 1.526 . S
C1416 C1417 1.396 . S
C1416 C1421 1.390 . S
C1417 C1411 1.465 . S
C1417 C1416 1.396 . S
C1417 C1418 1.399 . S
C1418 H1404 0.929 . S
C1418 C1417 1.399 . S
C1418 C1419 1.385 . S
C1419 H1405 0.931 . S
C1419 C1418 1.385 . S
C1419 C1420 1.389 . S
C1420 C1419 1.389 . S
C1420 C1421 1.387 . S
C1421 H1406 0.930 . S
C1421 C1416 1.390 . S
C1421 C1420 1.387 . S
H1422 C1434 0.930 . S
H1423 C1436 0.930 . S
H1424 C1437 0.930 . S
H1425 C1441 0.959 . S
H1426 C1441 0.959 . S
H1427 C1441 0.961 . S
H1428 C1442 0.960 . S
H1429 C1442 0.961 . S
H1430 C1442 0.959 . S
H1431 C1445 0.929 . S
H1432 C1446 0.931 . S
H1433 C1448 0.930 . S
C1434 H1422 0.930 . S
C1434 C1435 1.399 . S
C1434 C1439 1.399 . S
C1435 C1434 1.399 . S
C1435 C1436 1.376 . S
C1436 H1423 0.930 . S
C1436 C1435 1.376 . S
C1436 C1437 1.388 . S
C1437 H1424 0.930 . S
C1437 C1436 1.388 . S
C1437 C1438 1.390 . S
C1438 C1437 1.390 . S
C1438 C1439 1.394 . S
C1438 C1444 1.465 . S
C1439 C1434 1.399 . S
C1439 C1438 1.394 . S
C1439 C1440 1.516 . S
C1440 C1439 1.516 . S
C1440 C1441 1.502 . S
C1440 C1442 1.561 . S
C1440 C1443 1.526 . S
C1441 H1425 0.959 . S
C1441 H1426 0.959 . S
C1441 H1427 0.961 . S
C1441 C1440 1.502 . S
C1442 H1428 0.960 . S
C1442 H1429 0.961 . S
C1442 H1430 0.959 . S
C1442 C1440 1.561 . S
C1443 C1440 1.526 . S
C1443 C1444 1.396 . S
C1443 C1448 1.390 . S
C1444 C1438 1.465 . S
C1444 C1443 1.396 . S
C1444 C1445 1.399 . S
C1445 H1431 0.929 . S
C1445 C1444 1.399 . S
C1445 C1446 1.385 . S
C1446 H1432 0.931 . S
C1446 C1445 1.385 . S
C1446 C1447 1.389 . S
C1447 C1446 1.389 . S
C1447 C1448 1.387 . S
C1448 H1433 0.930 . S
C1448 C1443 1.390 . S
C1448 C1447 1.387 . S
H1449 C1461 0.930 . S
H1450 C1463 0.930 . S
H1451 C1464 0.930 . S
H1452 C1468 0.959 . S
H1453 C1468 0.959 . S
H1454 C1468 0.961 . S
H1455 C1469 0.960 . S
H1456 C1469 0.961 . S
H1457 C1469 0.959 . S
H1458 C1472 0.929 . S
H1459 C1473 0.931 . S
H1460 C1475 0.930 . S
C1461 H1449 0.930 . S
C1461 C1462 1.399 . S
C1461 C1466 1.399 . S
C1462 C1461 1.399 . S
C1462 C1463 1.376 1_556 S
C1463 H1450 0.930 . S
C1463 C1462 1.376 1_554 S
C1463 C1464 1.388 . S
C1464 H1451 0.930 . S
C1464 C1463 1.388 . S
C1464 C1465 1.390 . S
C1465 C1464 1.390 . S
C1465 C1466 1.394 1_554 S
C1465 C1471 1.465 . S
C1466 C1461 1.399 . S
C1466 C1465 1.394 1_556 S
C1466 C1467 1.516 . S
C1467 C1466 1.516 . S
C1467 C1468 1.502 . S
C1467 C1469 1.561 . S
C1467 C1470 1.526 . S
C1468 H1452 0.959 . S
C1468 H1453 0.959 . S
C1468 H1454 0.961 . S
C1468 C1467 1.502 . S
C1469 H1455 0.960 . S
C1469 H1456 0.961 . S
C1469 H1457 0.959 . S
C1469 C1467 1.561 . S
C1470 C1467 1.526 . S
C1470 C1471 1.396 1_556 S
C1470 C1475 1.390 . S
C1471 C1465 1.465 . S
C1471 C1470 1.396 1_554 S
C1471 C1472 1.399 . S
C1472 H1458 0.929 . S
C1472 C1471 1.399 . S
C1472 C1473 1.385 . S
C1473 H1459 0.931 . S
C1473 C1472 1.385 . S
C1473 C1474 1.389 1_554 S
C1474 C1473 1.389 1_556 S
C1474 C1475 1.387 . S
C1475 H1460 0.930 . S
C1475 C1470 1.390 . S
C1475 C1474 1.387 . S
H1476 C1488 0.930 . S
H1477 C1490 0.930 . S
H1478 C1491 0.930 . S
H1479 C1495 0.959 . S
H1480 C1495 0.959 . S
H1481 C1495 0.961 . S
H1482 C1496 0.960 . S
H1483 C1496 0.961 . S
H1484 C1496 0.959 . S
H1485 C1499 0.929 . S
H1486 C1500 0.931 . S
H1487 C1502 0.930 . S
C1488 H1476 0.930 . S
C1488 C1489 1.399 1_554 S
C1488 C1493 1.399 . S
C1489 C1488 1.399 1_556 S
C1489 C1490 1.376 . S
C1490 H1477 0.930 . S
C1490 C1489 1.376 . S
C1490 C1491 1.388 . S
C1491 H1478 0.930 . S
C1491 C1490 1.388 . S
C1491 C1492 1.390 . S
C1492 C1491 1.390 . S
C1492 C1493 1.394 1_556 S
C1492 C1498 1.465 . S
C1493 C1488 1.399 . S
C1493 C1492 1.394 1_554 S
C1493 C1494 1.516 . S
C1494 C1493 1.516 . S
C1494 C1495 1.502 . S
C1494 C1496 1.561 . S
C1494 C1497 1.526 . S
C1495 H1479 0.959 . S
C1495 H1480 0.959 . S
C1495 H1481 0.961 . S
C1495 C1494 1.502 . S
C1496 H1482 0.960 . S
C1496 H1483 0.961 . S
C1496 H1484 0.959 . S
C1496 C1494 1.561 . S
C1497 C1494 1.526 . S
C1497 C1498 1.396 1_554 S
C1497 C1502 1.390 . S
C1498 C1492 1.465 . S
C1498 C1497 1.396 1_556 S
C1498 C1499 1.399 . S
C1499 H1485 0.929 . S
C1499 C1498 1.399 . S
C1499 C1500 1.385 . S
C1500 H1486 0.931 . S
C1500 C1499 1.385 . S
C1500 C1501 1.389 . S
C1501 C1500 1.389 . S
C1501 C1502 1.387 1_556 S
C1502 H1487 0.930 . S
C1502 C1497 1.390 . S
C1502 C1501 1.387 1_554 S
H1503 C1515 0.930 . S
H1504 C1517 0.930 . S
H1505 C1518 0.930 . S
H1506 C1522 0.959 . S
H1507 C1522 0.959 . S
H1508 C1522 0.961 . S
H1509 C1523 0.960 . S
H1510 C1523 0.961 . S
H1511 C1523 0.959 . S
H1512 C1526 0.929 . S
H1513 C1527 0.931 . S
H1514 C1529 0.930 . S
C1515 H1503 0.930 . S
C1515 C1516 1.399 . S
C1515 C1520 1.399 . S
C1516 C1515 1.399 . S
C1516 C1517 1.376 1_556 S
C1517 H1504 0.930 . S
C1517 C1516 1.376 1_554 S
C1517 C1518 1.388 . S
C1518 H1505 0.930 . S
C1518 C1517 1.388 . S
C1518 C1519 1.390 . S
C1519 C1518 1.390 . S
C1519 C1520 1.394 1_554 S
C1519 C1525 1.465 . S
C1520 C1515 1.399 . S
C1520 C1519 1.394 1_556 S
C1520 C1521 1.516 . S
C1521 C1520 1.516 . S
C1521 C1522 1.502 . S
C1521 C1523 1.561 . S
C1521 C1524 1.526 . S
C1522 H1506 0.959 . S
C1522 H1507 0.959 . S
C1522 H1508 0.961 . S
C1522 C1521 1.502 . S
C1523 H1509 0.960 . S
C1523 H1510 0.961 . S
C1523 H1511 0.959 . S
C1523 C1521 1.561 . S
C1524 C1521 1.526 . S
C1524 C1525 1.396 1_556 S
C1524 C1529 1.390 . S
C1525 C1519 1.465 . S
C1525 C1524 1.396 1_554 S
C1525 C1526 1.399 . S
C1526 H1512 0.929 . S
C1526 C1525 1.399 . S
C1526 C1527 1.385 . S
C1527 H1513 0.931 . S
C1527 C1526 1.385 . S
C1527 C1528 1.389 1_554 S
C1528 C1527 1.389 1_556 S
C1528 C1529 1.387 . S
C1529 H1514 0.930 . S
C1529 C1524 1.390 . S
C1529 C1528 1.387 . S
H1530 C1542 0.930 . S
H1531 C1544 0.930 . S
H1532 C1545 0.930 . S
H1533 C1549 0.959 . S
H1534 C1549 0.959 . S
H1535 C1549 0.961 . S
H1536 C1550 0.960 . S
H1537 C1550 0.961 . S
H1538 C1550 0.959 . S
H1539 C1553 0.929 . S
H1540 C1554 0.931 . S
H1541 C1556 0.930 . S
C1542 H1530 0.930 . S
C1542 C1543 1.399 . S
C1542 C1547 1.399 . S
C1543 C1542 1.399 . S
C1543 C1544 1.376 . S
C1544 H1531 0.930 . S
C1544 C1543 1.376 . S
C1544 C1545 1.388 . S
C1545 H1532 0.930 . S
C1545 C1544 1.388 . S
C1545 C1546 1.390 . S
C1546 C1545 1.390 . S
C1546 C1547 1.394 . S
C1546 C1552 1.465 . S
C1547 C1542 1.399 . S
C1547 C1546 1.394 . S
C1547 C1548 1.516 . S
C1548 C1547 1.516 . S
C1548 C1549 1.502 . S
C1548 C1550 1.561 . S
C1548 C1551 1.526 . S
C1549 H1533 0.959 . S
C1549 H1534 0.959 . S
C1549 H1535 0.961 . S
C1549 C1548 1.502 . S
C1550 H1536 0.960 . S
C1550 H1537 0.961 . S
C1550 H1538 0.959 . S
C1550 C1548 1.561 . S
C1551 C1548 1.526 . S
C1551 C1552 1.396 . S
C1551 C1556 1.390 . S
C1552 C1546 1.465 . S
C1552 C1551 1.396 . S
C1552 C1553 1.399 . S
C1553 H1539 0.929 . S
C1553 C1552 1.399 . S
C1553 C1554 1.385 . S
C1554 H1540 0.931 . S
C1554 C1553 1.385 . S
C1554 C1555 1.389 . S
C1555 C1554 1.389 . S
C1555 C1556 1.387 . S
C1556 H1541 0.930 . S
C1556 C1551 1.390 . S
C1556 C1555 1.387 . S
H1557 C1569 0.930 . S
H1558 C1571 0.930 . S
H1559 C1572 0.930 . S
H1560 C1576 0.959 . S
H1561 C1576 0.959 . S
H1562 C1576 0.961 . S
H1563 C1577 0.960 . S
H1564 C1577 0.961 . S
H1565 C1577 0.959 . S
H1566 C1580 0.929 . S
H1567 C1581 0.931 . S
H1568 C1583 0.930 . S
C1569 H1557 0.930 . S
C1569 C1570 1.399 . S
C1569 C1574 1.399 . S
C1570 C1569 1.399 . S
C1570 C1571 1.376 . S
C1571 H1558 0.930 . S
C1571 C1570 1.376 . S
C1571 C1572 1.388 . S
C1572 H1559 0.930 . S
C1572 C1571 1.388 . S
C1572 C1573 1.390 . S
C1573 C1572 1.390 . S
C1573 C1574 1.394 . S
C1573 C1579 1.465 . S
C1574 C1569 1.399 . S
C1574 C1573 1.394 . S
C1574 C1575 1.516 . S
C1575 C1574 1.516 . S
C1575 C1576 1.502 . S
C1575 C1577 1.561 . S
C1575 C1578 1.526 . S
C1576 H1560 0.959 . S
C1576 H1561 0.959 . S
C1576 H1562 0.961 . S
C1576 C1575 1.502 . S
C1577 H1563 0.960 . S
C1577 H1564 0.961 . S
C1577 H1565 0.959 . S
C1577 C1575 1.561 . S
C1578 C1575 1.526 . S
C1578 C1579 1.396 . S
C1578 C1583 1.390 . S
C1579 C1573 1.465 . S
C1579 C1578 1.396 . S
C1579 C1580 1.399 . S
C1580 H1566 0.929 . S
C1580 C1579 1.399 . S
C1580 C1581 1.385 . S
C1581 H1567 0.931 . S
C1581 C1580 1.385 . S
C1581 C1582 1.389 . S
C1582 C1581 1.389 . S
C1582 C1583 1.387 . S
C1583 H1568 0.930 . S
C1583 C1578 1.390 . S
C1583 C1582 1.387 . S
H1584 C1596 0.930 . S
H1585 C1598 0.930 . S
H1586 C1599 0.930 . S
H1587 C1603 0.959 . S
H1588 C1603 0.959 . S
H1589 C1603 0.961 . S
H1590 C1604 0.960 . S
H1591 C1604 0.961 . S
H1592 C1604 0.959 . S
H1593 C1607 0.929 . S
H1594 C1608 0.931 . S
H1595 C1610 0.930 . S
C1596 H1584 0.930 . S
C1596 C1597 1.399 . S
C1596 C1601 1.399 . S
C1597 C1596 1.399 . S
C1597 C1598 1.376 . S
C1598 H1585 0.930 . S
C1598 C1597 1.376 . S
C1598 C1599 1.388 . S
C1599 H1586 0.930 . S
C1599 C1598 1.388 . S
C1599 C1600 1.390 . S
C1600 C1599 1.390 . S
C1600 C1601 1.394 . S
C1600 C1606 1.465 . S
C1601 C1596 1.399 . S
C1601 C1600 1.394 . S
C1601 C1602 1.516 . S
C1602 C1601 1.516 . S
C1602 C1603 1.502 . S
C1602 C1604 1.561 . S
C1602 C1605 1.526 . S
C1603 H1587 0.959 . S
C1603 H1588 0.959 . S
C1603 H1589 0.961 . S
C1603 C1602 1.502 . S
C1604 H1590 0.960 . S
C1604 H1591 0.961 . S
C1604 H1592 0.959 . S
C1604 C1602 1.561 . S
C1605 C1602 1.526 . S
C1605 C1606 1.396 . S
C1605 C1610 1.390 . S
C1606 C1600 1.465 . S
C1606 C1605 1.396 . S
C1606 C1607 1.399 . S
C1607 H1593 0.929 . S
C1607 C1606 1.399 . S
C1607 C1608 1.385 . S
C1608 H1594 0.931 . S
C1608 C1607 1.385 . S
C1608 C1609 1.389 . S
C1609 C1608 1.389 . S
C1609 C1610 1.387 . S
C1610 H1595 0.930 . S
C1610 C1605 1.390 . S
C1610 C1609 1.387 . S
H1611 C1623 0.930 . S
H1612 C1625 0.930 . S
H1613 C1626 0.930 . S
H1614 C1630 0.959 . S
H1615 C1630 0.959 . S
H1616 C1630 0.961 . S
H1617 C1631 0.960 . S
H1618 C1631 0.961 . S
H1619 C1631 0.959 . S
H1620 C1634 0.929 . S
H1621 C1635 0.931 . S
H1622 C1637 0.930 . S
C1623 H1611 0.930 . S
C1623 C1624 1.399 . S
C1623 C1628 1.399 . S
C1624 C1623 1.399 . S
C1624 C1625 1.376 . S
C1625 H1612 0.930 . S
C1625 C1624 1.376 . S
C1625 C1626 1.388 . S
C1626 H1613 0.930 . S
C1626 C1625 1.388 . S
C1626 C1627 1.390 . S
C1627 C1626 1.390 . S
C1627 C1628 1.394 . S
C1627 C1633 1.465 . S
C1628 C1623 1.399 . S
C1628 C1627 1.394 . S
C1628 C1629 1.516 . S
C1629 C1628 1.516 . S
C1629 C1630 1.502 . S
C1629 C1631 1.561 . S
C1629 C1632 1.526 . S
C1630 H1614 0.959 . S
C1630 H1615 0.959 . S
C1630 H1616 0.961 . S
C1630 C1629 1.502 . S
C1631 H1617 0.960 . S
C1631 H1618 0.961 . S
C1631 H1619 0.959 . S
C1631 C1629 1.561 . S
C1632 C1629 1.526 . S
C1632 C1633 1.396 . S
C1632 C1637 1.390 . S
C1633 C1627 1.465 . S
C1633 C1632 1.396 . S
C1633 C1634 1.399 . S
C1634 H1620 0.929 . S
C1634 C1633 1.399 . S
C1634 C1635 1.385 . S
C1635 H1621 0.931 . S
C1635 C1634 1.385 . S
C1635 C1636 1.389 . S
C1636 C1635 1.389 . S
C1636 C1637 1.387 . S
C1637 H1622 0.930 . S
C1637 C1632 1.390 . S
C1637 C1636 1.387 . S
H1638 C1650 0.930 . S
H1639 C1652 0.930 . S
H1640 C1653 0.930 . S
H1641 C1657 0.959 . S
H1642 C1657 0.959 . S
H1643 C1657 0.961 . S
H1644 C1658 0.960 . S
H1645 C1658 0.961 . S
H1646 C1658 0.959 . S
H1647 C1661 0.929 . S
H1648 C1662 0.931 . S
H1649 C1664 0.930 . S
C1650 H1638 0.930 . S
C1650 C1651 1.399 . S
C1650 C1655 1.399 . S
C1651 C1650 1.399 . S
C1651 C1652 1.376 . S
C1652 H1639 0.930 . S
C1652 C1651 1.376 . S
C1652 C1653 1.388 . S
C1653 H1640 0.930 . S
C1653 C1652 1.388 . S
C1653 C1654 1.390 . S
C1654 C1653 1.390 . S
C1654 C1655 1.394 . S
C1654 C1660 1.465 . S
C1655 C1650 1.399 . S
C1655 C1654 1.394 . S
C1655 C1656 1.516 . S
C1656 C1655 1.516 . S
C1656 C1657 1.502 . S
C1656 C1658 1.561 . S
C1656 C1659 1.526 . S
C1657 H1641 0.959 . S
C1657 H1642 0.959 . S
C1657 H1643 0.961 . S
C1657 C1656 1.502 . S
C1658 H1644 0.960 . S
C1658 H1645 0.961 . S
C1658 H1646 0.959 . S
C1658 C1656 1.561 . S
C1659 C1656 1.526 . S
C1659 C1660 1.396 . S
C1659 C1664 1.390 . S
C1660 C1654 1.465 . S
C1660 C1659 1.396 . S
C1660 C1661 1.399 . S
C1661 H1647 0.929 . S
C1661 C1660 1.399 . S
C1661 C1662 1.385 . S
C1662 H1648 0.931 . S
C1662 C1661 1.385 . S
C1662 C1663 1.389 . S
C1663 C1662 1.389 . S
C1663 C1664 1.387 . S
C1664 H1649 0.930 . S
C1664 C1659 1.390 . S
C1664 C1663 1.387 . S
H1665 C1677 0.930 . S
H1666 C1679 0.930 . S
H1667 C1680 0.930 . S
H1668 C1684 0.959 . S
H1669 C1684 0.959 . S
H1670 C1684 0.961 . S
H1671 C1685 0.960 . S
H1672 C1685 0.961 . S
H1673 C1685 0.959 . S
H1674 C1688 0.929 . S
H1675 C1689 0.931 . S
H1676 C1691 0.930 . S
C1677 H1665 0.930 . S
C1677 C1678 1.399 . S
C1677 C1682 1.399 . S
C1678 C1677 1.399 . S
C1678 C1679 1.376 . S
C1679 H1666 0.930 . S
C1679 C1678 1.376 . S
C1679 C1680 1.388 . S
C1680 H1667 0.930 . S
C1680 C1679 1.388 . S
C1680 C1681 1.390 . S
C1681 C1680 1.390 . S
C1681 C1682 1.394 . S
C1681 C1687 1.465 . S
C1682 C1677 1.399 . S
C1682 C1681 1.394 . S
C1682 C1683 1.516 . S
C1683 C1682 1.516 . S
C1683 C1684 1.502 . S
C1683 C1685 1.561 . S
C1683 C1686 1.526 . S
C1684 H1668 0.959 . S
C1684 H1669 0.959 . S
C1684 H1670 0.961 . S
C1684 C1683 1.502 . S
C1685 H1671 0.960 . S
C1685 H1672 0.961 . S
C1685 H1673 0.959 . S
C1685 C1683 1.561 . S
C1686 C1683 1.526 . S
C1686 C1687 1.396 . S
C1686 C1691 1.390 . S
C1687 C1681 1.465 . S
C1687 C1686 1.396 . S
C1687 C1688 1.399 . S
C1688 H1674 0.929 . S
C1688 C1687 1.399 . S
C1688 C1689 1.385 . S
C1689 H1675 0.931 . S
C1689 C1688 1.385 . S
C1689 C1690 1.389 . S
C1690 C1689 1.389 . S
C1690 C1691 1.387 . S
C1691 H1676 0.930 . S
C1691 C1686 1.390 . S
C1691 C1690 1.387 . S
H1692 C1704 0.930 . S
H1693 C1706 0.930 . S
H1694 C1707 0.930 . S
H1695 C1711 0.959 . S
H1696 C1711 0.959 . S
H1697 C1711 0.961 . S
H1698 C1712 0.960 . S
H1699 C1712 0.961 . S
H1700 C1712 0.959 . S
H1701 C1715 0.929 . S
H1702 C1716 0.931 . S
H1703 C1718 0.930 . S
C1704 H1692 0.930 . S
C1704 C1705 1.399 . S
C1704 C1709 1.399 . S
C1705 C1704 1.399 . S
C1705 C1706 1.376 . S
C1706 H1693 0.930 . S
C1706 C1705 1.376 . S
C1706 C1707 1.388 . S
C1707 H1694 0.930 . S
C1707 C1706 1.388 . S
C1707 C1708 1.390 . S
C1708 C1707 1.390 . S
C1708 C1709 1.394 . S
C1708 C1714 1.465 . S
C1709 C1704 1.399 . S
C1709 C1708 1.394 . S
C1709 C1710 1.516 . S
C1710 C1709 1.516 . S
C1710 C1711 1.502 . S
C1710 C1712 1.561 . S
C1710 C1713 1.526 . S
C1711 H1695 0.959 . S
C1711 H1696 0.959 . S
C1711 H1697 0.961 . S
C1711 C1710 1.502 . S
C1712 H1698 0.960 . S
C1712 H1699 0.961 . S
C1712 H1700 0.959 . S
C1712 C1710 1.561 . S
C1713 C1710 1.526 . S
C1713 C1714 1.396 . S
C1713 C1718 1.390 . S
C1714 C1708 1.465 . S
C1714 C1713 1.396 . S
C1714 C1715 1.399 . S
C1715 H1701 0.929 . S
C1715 C1714 1.399 . S
C1715 C1716 1.385 . S
C1716 H1702 0.931 . S
C1716 C1715 1.385 . S
C1716 C1717 1.389 . S
C1717 C1716 1.389 . S
C1717 C1718 1.387 . S
C1718 H1703 0.930 . S
C1718 C1713 1.390 . S
C1718 C1717 1.387 . S
H1719 C1731 0.930 . S
H1720 C1733 0.930 . S
H1721 C1734 0.930 . S
H1722 C1738 0.959 . S
H1723 C1738 0.959 . S
H1724 C1738 0.961 . S
H1725 C1739 0.960 . S
H1726 C1739 0.961 . S
H1727 C1739 0.959 . S
H1728 C1742 0.929 . S
H1729 C1743 0.931 . S
H1730 C1745 0.930 . S
C1731 H1719 0.930 . S
C1731 C1732 1.399 1_565 S
C1731 C1736 1.399 . S
C1732 C1731 1.399 1_545 S
C1732 C1733 1.376 . S
C1733 H1720 0.930 . S
C1733 C1732 1.376 . S
C1733 C1734 1.388 . S
C1734 H1721 0.930 . S
C1734 C1733 1.388 . S
C1734 C1735 1.390 1_545 S
C1735 C1734 1.390 1_565 S
C1735 C1736 1.394 . S
C1735 C1741 1.465 . S
C1736 C1731 1.399 . S
C1736 C1735 1.394 . S
C1736 C1737 1.516 . S
C1737 C1736 1.516 . S
C1737 C1738 1.502 . S
C1737 C1739 1.561 . S
C1737 C1740 1.526 . S
C1738 H1722 0.959 . S
C1738 H1723 0.959 . S
C1738 H1724 0.961 . S
C1738 C1737 1.502 . S
C1739 H1725 0.960 . S
C1739 H1726 0.961 . S
C1739 H1727 0.959 . S
C1739 C1737 1.561 . S
C1740 C1737 1.526 . S
C1740 C1741 1.396 . S
C1740 C1745 1.390 . S
C1741 C1735 1.465 . S
C1741 C1740 1.396 . S
C1741 C1742 1.399 . S
C1742 H1728 0.929 . S
C1742 C1741 1.399 . S
C1742 C1743 1.385 . S
C1743 H1729 0.931 . S
C1743 C1742 1.385 . S
C1743 C1744 1.389 . S
C1744 C1743 1.389 . S
C1744 C1745 1.387 . S
C1745 H1730 0.930 . S
C1745 C1740 1.390 . S
C1745 C1744 1.387 . S
H1746 C1758 0.930 . S
H1747 C1760 0.930 . S
H1748 C1761 0.930 . S
H1749 C1765 0.959 1_655 S
H1750 C1765 0.959 . S
H1751 C1765 0.961 . S
H1752 C1766 0.960 . S
H1753 C1766 0.961 . S
H1754 C1766 0.959 . S
H1755 C1769 0.929 . S
H1756 C1770 0.931 1_655 S
H1757 C1772 0.930 1_655 S
C1758 H1746 0.930 . S
C1758 C1759 1.399 . S
C1758 C1763 1.399 . S
C1759 C1758 1.399 . S
C1759 C1760 1.376 . S
C1760 H1747 0.930 . S
C1760 C1759 1.376 . S
C1760 C1761 1.388 . S
C1761 H1748 0.930 . S
C1761 C1760 1.388 . S
C1761 C1762 1.390 . S
C1762 C1761 1.390 . S
C1762 C1763 1.394 . S
C1762 C1768 1.465 . S
C1763 C1758 1.399 . S
C1763 C1762 1.394 . S
C1763 C1764 1.516 . S
C1764 C1763 1.516 . S
C1764 C1765 1.502 . S
C1764 C1766 1.561 . S
C1764 C1767 1.526 . S
C1765 H1749 0.959 1_455 S
C1765 H1750 0.959 . S
C1765 H1751 0.961 . S
C1765 C1764 1.502 . S
C1766 H1752 0.960 . S
C1766 H1753 0.961 . S
C1766 H1754 0.959 . S
C1766 C1764 1.561 . S
C1767 C1764 1.526 . S
C1767 C1768 1.396 . S
C1767 C1772 1.390 . S
C1768 C1762 1.465 . S
C1768 C1767 1.396 . S
C1768 C1769 1.399 . S
C1769 H1755 0.929 . S
C1769 C1768 1.399 . S
C1769 C1770 1.385 . S
C1770 H1756 0.931 1_455 S
C1770 C1769 1.385 . S
C1770 C1771 1.389 1_455 S
C1771 C1770 1.389 1_655 S
C1771 C1772 1.387 1_655 S
C1772 H1757 0.930 1_455 S
C1772 C1767 1.390 . S
C1772 C1771 1.387 1_455 S
H1773 C1785 0.930 . S
H1774 C1787 0.930 . S
H1775 C1788 0.930 . S
H1776 C1792 0.959 . S
H1777 C1792 0.959 . S
H1778 C1792 0.961 . S
H1779 C1793 0.960 . S
H1780 C1793 0.961 . S
H1781 C1793 0.959 . S
H1782 C1796 0.929 . S
H1783 C1797 0.931 . S
H1784 C1799 0.930 . S
C1785 H1773 0.930 . S
C1785 C1786 1.399 . S
C1785 C1790 1.399 . S
C1786 C1785 1.399 . S
C1786 C1787 1.376 . S
C1787 H1774 0.930 . S
C1787 C1786 1.376 . S
C1787 C1788 1.388 . S
C1788 H1775 0.930 . S
C1788 C1787 1.388 . S
C1788 C1789 1.390 . S
C1789 C1788 1.390 . S
C1789 C1790 1.394 . S
C1789 C1795 1.465 . S
C1790 C1785 1.399 . S
C1790 C1789 1.394 . S
C1790 C1791 1.516 . S
C1791 C1790 1.516 . S
C1791 C1792 1.502 . S
C1791 C1793 1.561 . S
C1791 C1794 1.526 . S
C1792 H1776 0.959 . S
C1792 H1777 0.959 . S
C1792 H1778 0.961 . S
C1792 C1791 1.502 . S
C1793 H1779 0.960 . S
C1793 H1780 0.961 . S
C1793 H1781 0.959 . S
C1793 C1791 1.561 . S
C1794 C1791 1.526 . S
C1794 C1795 1.396 . S
C1794 C1799 1.390 . S
C1795 C1789 1.465 . S
C1795 C1794 1.396 . S
C1795 C1796 1.399 . S
C1796 H1782 0.929 . S
C1796 C1795 1.399 . S
C1796 C1797 1.385 . S
C1797 H1783 0.931 . S
C1797 C1796 1.385 . S
C1797 C1798 1.389 . S
C1798 C1797 1.389 . S
C1798 C1799 1.387 . S
C1799 H1784 0.930 . S
C1799 C1794 1.390 . S
C1799 C1798 1.387 . S
H1800 C1812 0.930 . S
H1801 C1814 0.930 . S
H1802 C1815 0.930 . S
H1803 C1819 0.959 . S
H1804 C1819 0.962 1_545 S
H1805 C1819 0.961 . S
H1806 C1820 0.960 . S
H1807 C1820 0.961 . S
H1808 C1820 0.959 . S
H1809 C1823 0.929 . S
H1810 C1824 0.931 . S
H1811 C1826 0.930 . S
C1812 H1800 0.930 . S
C1812 C1813 1.399 . S
C1812 C1817 1.399 1_565 S
C1813 C1812 1.399 . S
C1813 C1814 1.376 1_565 S
C1814 H1801 0.930 . S
C1814 C1813 1.376 1_545 S
C1814 C1815 1.388 . S
C1815 H1802 0.930 . S
C1815 C1814 1.388 . S
C1815 C1816 1.390 . S
C1816 C1815 1.390 . S
C1816 C1817 1.394 . S
C1816 C1822 1.465 . S
C1817 C1812 1.399 1_545 S
C1817 C1816 1.394 . S
C1817 C1818 1.516 . S
C1818 C1817 1.516 . S
C1818 C1819 1.502 1_545 S
C1818 C1820 1.561 . S
C1818 C1821 1.526 . S
C1819 H1803 0.959 . S
C1819 H1804 0.962 1_565 S
C1819 H1805 0.961 . S
C1819 C1818 1.502 1_565 S
C1820 H1806 0.960 . S
C1820 H1807 0.961 . S
C1820 H1808 0.959 . S
C1820 C1818 1.561 . S
C1821 C1818 1.526 . S
C1821 C1822 1.396 . S
C1821 C1826 1.390 . S
C1822 C1816 1.465 . S
C1822 C1821 1.396 . S
C1822 C1823 1.399 . S
C1823 H1809 0.929 . S
C1823 C1822 1.399 . S
C1823 C1824 1.385 . S
C1824 H1810 0.931 . S
C1824 C1823 1.385 . S
C1824 C1825 1.389 . S
C1825 C1824 1.389 . S
C1825 C1826 1.387 . S
C1826 H1811 0.930 . S
C1826 C1821 1.390 . S
C1826 C1825 1.387 . S
H1827 C1839 0.930 . S
H1828 C1841 0.930 . S
H1829 C1842 0.930 . S
H1830 C1846 0.959 . S
H1831 C1846 0.959 . S
H1832 C1846 0.961 . S
H1833 C1847 0.960 . S
H1834 C1847 0.961 . S
H1835 C1847 0.959 . S
H1836 C1850 0.929 . S
H1837 C1851 0.931 . S
H1838 C1853 0.930 . S
C1839 H1827 0.930 . S
C1839 C1840 1.399 . S
C1839 C1844 1.399 . S
C1840 C1839 1.399 . S
C1840 C1841 1.376 . S
C1841 H1828 0.930 . S
C1841 C1840 1.376 . S
C1841 C1842 1.388 . S
C1842 H1829 0.930 . S
C1842 C1841 1.388 . S
C1842 C1843 1.390 . S
C1843 C1842 1.390 . S
C1843 C1844 1.394 . S
C1843 C1849 1.465 . S
C1844 C1839 1.399 . S
C1844 C1843 1.394 . S
C1844 C1845 1.516 . S
C1845 C1844 1.516 . S
C1845 C1846 1.502 . S
C1845 C1847 1.561 . S
C1845 C1848 1.526 . S
C1846 H1830 0.959 . S
C1846 H1831 0.959 . S
C1846 H1832 0.961 . S
C1846 C1845 1.502 . S
C1847 H1833 0.960 . S
C1847 H1834 0.961 . S
C1847 H1835 0.959 . S
C1847 C1845 1.561 . S
C1848 C1845 1.526 . S
C1848 C1849 1.396 . S
C1848 C1853 1.390 . S
C1849 C1843 1.465 . S
C1849 C1848 1.396 . S
C1849 C1850 1.399 1_655 S
C1850 H1836 0.929 . S
C1850 C1849 1.399 1_455 S
C1850 C1851 1.385 . S
C1851 H1837 0.931 . S
C1851 C1850 1.385 . S
C1851 C1852 1.389 . S
C1852 C1851 1.389 . S
C1852 C1853 1.387 1_455 S
C1853 H1838 0.930 . S
C1853 C1848 1.390 . S
C1853 C1852 1.387 1_655 S
H1854 C1866 0.930 . S
H1855 C1868 0.930 . S
H1856 C1869 0.930 . S
H1857 C1873 0.959 . S
H1858 C1873 0.959 . S
H1859 C1873 0.961 . S
H1860 C1874 0.960 . S
H1861 C1874 0.961 . S
H1862 C1874 0.959 . S
H1863 C1877 0.929 . S
H1864 C1878 0.931 . S
H1865 C1880 0.930 . S
C1866 H1854 0.930 . S
C1866 C1867 1.399 . S
C1866 C1871 1.399 . S
C1867 C1866 1.399 . S
C1867 C1868 1.376 . S
C1868 H1855 0.930 . S
C1868 C1867 1.376 . S
C1868 C1869 1.388 . S
C1869 H1856 0.930 . S
C1869 C1868 1.388 . S
C1869 C1870 1.390 . S
C1870 C1869 1.390 . S
C1870 C1871 1.394 . S
C1870 C1876 1.465 . S
C1871 C1866 1.399 . S
C1871 C1870 1.394 . S
C1871 C1872 1.516 . S
C1872 C1871 1.516 . S
C1872 C1873 1.502 . S
C1872 C1874 1.561 . S
C1872 C1875 1.526 . S
C1873 H1857 0.959 . S
C1873 H1858 0.959 . S
C1873 H1859 0.961 . S
C1873 C1872 1.502 . S
C1874 H1860 0.960 . S
C1874 H1861 0.961 . S
C1874 H1862 0.959 . S
C1874 C1872 1.561 . S
C1875 C1872 1.526 . S
C1875 C1876 1.396 . S
C1875 C1880 1.390 . S
C1876 C1870 1.465 . S
C1876 C1875 1.396 . S
C1876 C1877 1.399 . S
C1877 H1863 0.929 . S
C1877 C1876 1.399 . S
C1877 C1878 1.385 . S
C1878 H1864 0.931 . S
C1878 C1877 1.385 . S
C1878 C1879 1.389 . S
C1879 C1878 1.389 . S
C1879 C1880 1.387 . S
C1880 H1865 0.930 . S
C1880 C1875 1.390 . S
C1880 C1879 1.387 . S
H1881 C1893 0.930 . S
H1882 C1895 0.930 . S
H1883 C1896 0.930 . S
H1884 C1900 0.959 . S
H1885 C1900 0.959 . S
H1886 C1900 0.961 . S
H1887 C1901 0.960 . S
H1888 C1901 0.961 . S
H1889 C1901 0.959 . S
H1890 C1904 0.929 . S
H1891 C1905 0.931 . S
H1892 C1907 0.930 . S
C1893 H1881 0.930 . S
C1893 C1894 1.399 . S
C1893 C1898 1.399 . S
C1894 C1893 1.399 . S
C1894 C1895 1.376 . S
C1895 H1882 0.930 . S
C1895 C1894 1.376 . S
C1895 C1896 1.388 . S
C1896 H1883 0.930 . S
C1896 C1895 1.388 . S
C1896 C1897 1.390 . S
C1897 C1896 1.390 . S
C1897 C1898 1.394 . S
C1897 C1903 1.465 . S
C1898 C1893 1.399 . S
C1898 C1897 1.394 . S
C1898 C1899 1.516 . S
C1899 C1898 1.516 . S
C1899 C1900 1.502 . S
C1899 C1901 1.561 . S
C1899 C1902 1.526 . S
C1900 H1884 0.959 . S
C1900 H1885 0.959 . S
C1900 H1886 0.961 . S
C1900 C1899 1.502 . S
C1901 H1887 0.960 . S
C1901 H1888 0.961 . S
C1901 H1889 0.959 . S
C1901 C1899 1.561 . S
C1902 C1899 1.526 . S
C1902 C1903 1.396 . S
C1902 C1907 1.390 . S
C1903 C1897 1.465 . S
C1903 C1902 1.396 . S
C1903 C1904 1.399 1_545 S
C1904 H1890 0.929 . S
C1904 C1903 1.399 1_565 S
C1904 C1905 1.385 . S
C1905 H1891 0.931 . S
C1905 C1904 1.385 . S
C1905 C1906 1.389 . S
C1906 C1905 1.389 . S
C1906 C1907 1.387 1_565 S
C1907 H1892 0.930 . S
C1907 C1902 1.390 . S
C1907 C1906 1.387 1_545 S
H1908 C1920 0.930 . S
H1909 C1922 0.930 . S
H1910 C1923 0.930 . S
H1911 C1927 0.959 . S
H1912 C1927 0.959 . S
H1913 C1927 0.961 . S
H1914 C1928 0.960 . S
H1915 C1928 0.961 . S
H1916 C1928 0.959 . S
H1917 C1931 0.929 . S
H1918 C1932 0.931 . S
H1919 C1934 0.930 . S
C1920 H1908 0.930 . S
C1920 C1921 1.399 . S
C1920 C1925 1.399 . S
C1921 C1920 1.399 . S
C1921 C1922 1.376 . S
C1922 H1909 0.930 . S
C1922 C1921 1.376 . S
C1922 C1923 1.388 . S
C1923 H1910 0.930 . S
C1923 C1922 1.388 . S
C1923 C1924 1.390 . S
C1924 C1923 1.390 . S
C1924 C1925 1.394 . S
C1924 C1930 1.465 . S
C1925 C1920 1.399 . S
C1925 C1924 1.394 . S
C1925 C1926 1.516 . S
C1926 C1925 1.516 . S
C1926 C1927 1.502 . S
C1926 C1928 1.561 . S
C1926 C1929 1.526 . S
C1927 H1911 0.959 . S
C1927 H1912 0.959 . S
C1927 H1913 0.961 . S
C1927 C1926 1.502 . S
C1928 H1914 0.960 . S
C1928 H1915 0.961 . S
C1928 H1916 0.959 . S
C1928 C1926 1.561 . S
C1929 C1926 1.526 . S
C1929 C1930 1.396 . S
C1929 C1934 1.390 . S
C1930 C1924 1.465 . S
C1930 C1929 1.396 . S
C1930 C1931 1.399 . S
C1931 H1917 0.929 . S
C1931 C1930 1.399 . S
C1931 C1932 1.385 1_655 S
C1932 H1918 0.931 . S
C1932 C1931 1.385 1_455 S
C1932 C1933 1.389 . S
C1933 C1932 1.389 . S
C1933 C1934 1.387 1_455 S
C1934 H1919 0.930 . S
C1934 C1929 1.390 . S
C1934 C1933 1.387 1_655 S
H1935 C1947 0.930 . S
H1936 C1949 0.930 . S
H1937 C1950 0.930 . S
H1938 C1954 0.959 . S
H1939 C1954 0.959 . S
H1940 C1954 0.961 . S
H1941 C1955 0.960 . S
H1942 C1955 0.961 . S
H1943 C1955 0.959 . S
H1944 C1958 0.929 . S
H1945 C1959 0.931 . S
H1946 C1961 0.930 . S
C1947 H1935 0.930 . S
C1947 C1948 1.399 . S
C1947 C1952 1.399 . S
C1948 C1947 1.399 . S
C1948 C1949 1.376 . S
C1949 H1936 0.930 . S
C1949 C1948 1.376 . S
C1949 C1950 1.388 . S
C1950 H1937 0.930 . S
C1950 C1949 1.388 . S
C1950 C1951 1.390 . S
C1951 C1950 1.390 . S
C1951 C1952 1.394 . S
C1951 C1957 1.465 . S
C1952 C1947 1.399 . S
C1952 C1951 1.394 . S
C1952 C1953 1.516 . S
C1953 C1952 1.516 . S
C1953 C1954 1.502 . S
C1953 C1955 1.561 . S
C1953 C1956 1.526 . S
C1954 H1938 0.959 . S
C1954 H1939 0.959 . S
C1954 H1940 0.961 . S
C1954 C1953 1.502 . S
C1955 H1941 0.960 . S
C1955 H1942 0.961 . S
C1955 H1943 0.959 . S
C1955 C1953 1.561 . S
C1956 C1953 1.526 . S
C1956 C1957 1.396 . S
C1956 C1961 1.390 . S
C1957 C1951 1.465 . S
C1957 C1956 1.396 . S
C1957 C1958 1.399 . S
C1958 H1944 0.929 . S
C1958 C1957 1.399 . S
C1958 C1959 1.385 . S
C1959 H1945 0.931 . S
C1959 C1958 1.385 . S
C1959 C1960 1.389 . S
C1960 C1959 1.389 . S
C1960 C1961 1.387 . S
C1961 H1946 0.930 . S
C1961 C1956 1.390 . S
C1961 C1960 1.387 . S
H1962 C1974 0.930 . S
H1963 C1976 0.930 . S
H1964 C1977 0.930 . S
H1965 C1981 0.959 . S
H1966 C1981 0.959 . S
H1967 C1981 0.961 . S
H1968 C1982 0.960 . S
H1969 C1982 0.961 . S
H1970 C1982 0.959 . S
H1971 C1985 0.929 . S
H1972 C1986 0.931 . S
H1973 C1988 0.930 . S
C1974 H1962 0.930 . S
C1974 C1975 1.399 1_565 S
C1974 C1979 1.399 . S
C1975 C1974 1.399 1_545 S
C1975 C1976 1.376 . S
C1976 H1963 0.930 . S
C1976 C1975 1.376 . S
C1976 C1977 1.388 . S
C1977 H1964 0.930 . S
C1977 C1976 1.388 . S
C1977 C1978 1.390 1_545 S
C1978 C1977 1.390 1_565 S
C1978 C1979 1.394 . S
C1978 C1984 1.465 . S
C1979 C1974 1.399 . S
C1979 C1978 1.394 . S
C1979 C1980 1.516 . S
C1980 C1979 1.516 . S
C1980 C1981 1.502 . S
C1980 C1982 1.561 . S
C1980 C1983 1.526 . S
C1981 H1965 0.959 . S
C1981 H1966 0.959 . S
C1981 H1967 0.961 . S
C1981 C1980 1.502 . S
C1982 H1968 0.960 . S
C1982 H1969 0.961 . S
C1982 H1970 0.959 . S
C1982 C1980 1.561 . S
C1983 C1980 1.526 . S
C1983 C1984 1.396 . S
C1983 C1988 1.390 . S
C1984 C1978 1.465 . S
C1984 C1983 1.396 . S
C1984 C1985 1.399 . S
C1985 H1971 0.929 . S
C1985 C1984 1.399 . S
C1985 C1986 1.385 . S
C1986 H1972 0.931 . S
C1986 C1985 1.385 . S
C1986 C1987 1.389 . S
C1987 C1986 1.389 . S
C1987 C1988 1.387 . S
C1988 H1973 0.930 . S
C1988 C1983 1.390 . S
C1988 C1987 1.387 . S
H1989 C2001 0.930 . S
H1990 C2003 0.930 . S
H1991 C2004 0.930 . S
H1992 C2008 0.959 . S
H1993 C2008 0.959 . S
H1994 C2008 0.961 . S
H1995 C2009 0.960 . S
H1996 C2009 0.961 . S
H1997 C2009 0.959 . S
H1998 C2012 0.929 . S
H1999 C2013 0.931 . S
H2000 C2015 0.930 . S
C2001 H1989 0.930 . S
C2001 C2002 1.399 . S
C2001 C2006 1.399 1_655 S
C2002 C2001 1.399 . S
C2002 C2003 1.376 1_655 S
C2003 H1990 0.930 . S
C2003 C2002 1.376 1_455 S
C2003 C2004 1.388 . S
C2004 H1991 0.930 . S
C2004 C2003 1.388 . S
C2004 C2005 1.390 . S
C2005 C2004 1.390 . S
C2005 C2006 1.394 . S
C2005 C2011 1.465 . S
C2006 C2001 1.399 1_455 S
C2006 C2005 1.394 . S
C2006 C2007 1.516 . S
C2007 C2006 1.516 . S
C2007 C2008 1.502 1_455 S
C2007 C2009 1.561 . S
C2007 C2010 1.526 . S
C2008 H1992 0.959 . S
C2008 H1993 0.959 . S
C2008 H1994 0.961 . S
C2008 C2007 1.502 1_655 S
C2009 H1995 0.960 . S
C2009 H1996 0.961 . S
C2009 H1997 0.959 . S
C2009 C2007 1.561 . S
C2010 C2007 1.526 . S
C2010 C2011 1.396 . S
C2010 C2015 1.390 . S
C2011 C2005 1.465 . S
C2011 C2010 1.396 . S
C2011 C2012 1.399 . S
C2012 H1998 0.929 . S
C2012 C2011 1.399 . S
C2012 C2013 1.385 . S
C2013 H1999 0.931 . S
C2013 C2012 1.385 . S
C2013 C2014 1.389 . S
C2014 C2013 1.389 . S
C2014 C2015 1.387 . S
C2015 H2000 0.930 . S
C2015 C2010 1.390 . S
C2015 C2014 1.387 . S
H2016 C2028 0.930 . S
H2017 C2030 0.930 . S
H2018 C2031 0.930 . S
H2019 C2035 0.959 . S
H2020 C2035 0.959 . S
H2021 C2035 0.961 . S
H2022 C2036 0.960 . S
H2023 C2036 0.961 . S
H2024 C2036 0.959 . S
H2025 C2039 0.929 . S
H2026 C2040 0.931 . S
H2027 C2042 0.930 . S
C2028 H2016 0.930 . S
C2028 C2029 1.399 . S
C2028 C2033 1.399 . S
C2029 C2028 1.399 . S
C2029 C2030 1.376 . S
C2030 H2017 0.930 . S
C2030 C2029 1.376 . S
C2030 C2031 1.388 . S
C2031 H2018 0.930 . S
C2031 C2030 1.388 . S
C2031 C2032 1.390 . S
C2032 C2031 1.390 . S
C2032 C2033 1.394 . S
C2032 C2038 1.465 1_655 S
C2033 C2028 1.399 . S
C2033 C2032 1.394 . S
C2033 C2034 1.516 1_655 S
C2034 C2033 1.516 1_455 S
C2034 C2035 1.502 . S
C2034 C2036 1.561 . S
C2034 C2037 1.526 . S
C2035 H2019 0.959 . S
C2035 H2020 0.959 . S
C2035 H2021 0.961 . S
C2035 C2034 1.502 . S
C2036 H2022 0.960 . S
C2036 H2023 0.961 . S
C2036 H2024 0.959 . S
C2036 C2034 1.561 . S
C2037 C2034 1.526 . S
C2037 C2038 1.396 . S
C2037 C2042 1.390 . S
C2038 C2032 1.465 1_455 S
C2038 C2037 1.396 . S
C2038 C2039 1.399 . S
C2039 H2025 0.929 . S
C2039 C2038 1.399 . S
C2039 C2040 1.385 . S
C2040 H2026 0.931 . S
C2040 C2039 1.385 . S
C2040 C2041 1.389 . S
C2041 C2040 1.389 . S
C2041 C2042 1.387 . S
C2042 H2027 0.930 . S
C2042 C2037 1.390 . S
C2042 C2041 1.387 . S
H2043 C2055 0.930 . S
H2044 C2057 0.930 . S
H2045 C2058 0.930 . S
H2046 C2062 0.959 . S
H2047 C2062 0.959 . S
H2048 C2062 0.961 . S
H2049 C2063 0.960 . S
H2050 C2063 0.961 . S
H2051 C2063 0.959 . S
H2052 C2066 0.929 . S
H2053 C2067 0.931 . S
H2054 C2069 0.930 . S
C2055 H2043 0.930 . S
C2055 C2056 1.399 . S
C2055 C2060 1.399 . S
C2056 C2055 1.399 . S
C2056 C2057 1.376 . S
C2057 H2044 0.930 . S
C2057 C2056 1.376 . S
C2057 C2058 1.388 . S
C2058 H2045 0.930 . S
C2058 C2057 1.388 . S
C2058 C2059 1.390 . S
C2059 C2058 1.390 . S
C2059 C2060 1.394 . S
C2059 C2065 1.465 . S
C2060 C2055 1.399 . S
C2060 C2059 1.394 . S
C2060 C2061 1.516 . S
C2061 C2060 1.516 . S
C2061 C2062 1.502 . S
C2061 C2063 1.561 . S
C2061 C2064 1.526 . S
C2062 H2046 0.959 . S
C2062 H2047 0.959 . S
C2062 H2048 0.961 . S
C2062 C2061 1.502 . S
C2063 H2049 0.960 . S
C2063 H2050 0.961 . S
C2063 H2051 0.959 . S
C2063 C2061 1.561 . S
C2064 C2061 1.526 . S
C2064 C2065 1.396 . S
C2064 C2069 1.390 . S
C2065 C2059 1.465 . S
C2065 C2064 1.396 . S
C2065 C2066 1.399 . S
C2066 H2052 0.929 . S
C2066 C2065 1.399 . S
C2066 C2067 1.385 . S
C2067 H2053 0.931 . S
C2067 C2066 1.385 . S
C2067 C2068 1.389 . S
C2068 C2067 1.389 . S
C2068 C2069 1.387 . S
C2069 H2054 0.930 . S
C2069 C2064 1.390 . S
C2069 C2068 1.387 . S
H2070 C2082 0.930 . S
H2071 C2084 0.930 . S
H2072 C2085 0.930 . S
H2073 C2089 0.959 . S
H2074 C2089 0.959 . S
H2075 C2089 0.961 . S
H2076 C2090 0.960 . S
H2077 C2090 0.961 . S
H2078 C2090 0.959 . S
H2079 C2093 0.929 . S
H2080 C2094 0.931 . S
H2081 C2096 0.930 . S
C2082 H2070 0.930 . S
C2082 C2083 1.399 . S
C2082 C2087 1.399 . S
C2083 C2082 1.399 . S
C2083 C2084 1.376 . S
C2084 H2071 0.930 . S
C2084 C2083 1.376 . S
C2084 C2085 1.388 . S
C2085 H2072 0.930 . S
C2085 C2084 1.388 . S
C2085 C2086 1.390 . S
C2086 C2085 1.390 . S
C2086 C2087 1.394 . S
C2086 C2092 1.465 1_565 S
C2087 C2082 1.399 . S
C2087 C2086 1.394 . S
C2087 C2088 1.516 . S
C2088 C2087 1.516 . S
C2088 C2089 1.502 . S
C2088 C2090 1.561 . S
C2088 C2091 1.526 1_565 S
C2089 H2073 0.959 . S
C2089 H2074 0.959 . S
C2089 H2075 0.961 . S
C2089 C2088 1.502 . S
C2090 H2076 0.960 . S
C2090 H2077 0.961 . S
C2090 H2078 0.959 . S
C2090 C2088 1.561 . S
C2091 C2088 1.526 1_545 S
C2091 C2092 1.396 . S
C2091 C2096 1.390 . S
C2092 C2086 1.465 1_545 S
C2092 C2091 1.396 . S
C2092 C2093 1.399 . S
C2093 H2079 0.929 . S
C2093 C2092 1.399 . S
C2093 C2094 1.385 . S
C2094 H2080 0.931 . S
C2094 C2093 1.385 . S
C2094 C2095 1.389 . S
C2095 C2094 1.389 . S
C2095 C2096 1.387 . S
C2096 H2081 0.930 . S
C2096 C2091 1.390 . S
C2096 C2095 1.387 . S
H2097 C2109 0.930 . S
H2098 C2111 0.930 . S
H2099 C2112 0.930 . S
H2100 C2116 0.959 . S
H2101 C2116 0.959 . S
H2102 C2116 0.961 . S
H2103 C2117 0.960 . S
H2104 C2117 0.961 . S
H2105 C2117 0.959 1_655 S
H2106 C2120 0.929 . S
H2107 C2121 0.931 . S
H2108 C2123 0.930 . S
C2109 H2097 0.930 . S
C2109 C2110 1.399 . S
C2109 C2114 1.399 . S
C2110 C2109 1.399 . S
C2110 C2111 1.376 . S
C2111 H2098 0.930 . S
C2111 C2110 1.376 . S
C2111 C2112 1.388 . S
C2112 H2099 0.930 . S
C2112 C2111 1.388 . S
C2112 C2113 1.390 . S
C2113 C2112 1.390 . S
C2113 C2114 1.394 . S
C2113 C2119 1.465 . S
C2114 C2109 1.399 . S
C2114 C2113 1.394 . S
C2114 C2115 1.516 . S
C2115 C2114 1.516 . S
C2115 C2116 1.502 . S
C2115 C2117 1.561 . S
C2115 C2118 1.526 . S
C2116 H2100 0.959 . S
C2116 H2101 0.959 . S
C2116 H2102 0.961 . S
C2116 C2115 1.502 . S
C2117 H2103 0.960 . S
C2117 H2104 0.961 . S
C2117 H2105 0.959 1_455 S
C2117 C2115 1.561 . S
C2118 C2115 1.526 . S
C2118 C2119 1.396 . S
C2118 C2123 1.390 . S
C2119 C2113 1.465 . S
C2119 C2118 1.396 . S
C2119 C2120 1.399 . S
C2120 H2106 0.929 . S
C2120 C2119 1.399 . S
C2120 C2121 1.385 . S
C2121 H2107 0.931 . S
C2121 C2120 1.385 . S
C2121 C2122 1.389 . S
C2122 C2121 1.389 . S
C2122 C2123 1.387 . S
C2123 H2108 0.930 . S
C2123 C2118 1.390 . S
C2123 C2122 1.387 . S
H2124 C2136 0.930 . S
H2125 C2138 0.930 . S
H2126 C2139 0.930 . S
H2127 C2143 0.959 . S
H2128 C2143 0.959 . S
H2129 C2143 0.961 . S
H2130 C2144 0.960 . S
H2131 C2144 0.961 . S
H2132 C2144 0.959 . S
H2133 C2147 0.929 . S
H2134 C2148 0.931 . S
H2135 C2150 0.930 . S
C2136 H2124 0.930 . S
C2136 C2137 1.399 . S
C2136 C2141 1.399 . S
C2137 C2136 1.399 . S
C2137 C2138 1.376 . S
C2138 H2125 0.930 . S
C2138 C2137 1.376 . S
C2138 C2139 1.388 . S
C2139 H2126 0.930 . S
C2139 C2138 1.388 . S
C2139 C2140 1.390 . S
C2140 C2139 1.390 . S
C2140 C2141 1.394 . S
C2140 C2146 1.465 . S
C2141 C2136 1.399 . S
C2141 C2140 1.394 . S
C2141 C2142 1.516 . S
C2142 C2141 1.516 . S
C2142 C2143 1.502 . S
C2142 C2144 1.561 . S
C2142 C2145 1.526 . S
C2143 H2127 0.959 . S
C2143 H2128 0.959 . S
C2143 H2129 0.961 . S
C2143 C2142 1.502 . S
C2144 H2130 0.960 . S
C2144 H2131 0.961 . S
C2144 H2132 0.959 . S
C2144 C2142 1.561 . S
C2145 C2142 1.526 . S
C2145 C2146 1.396 . S
C2145 C2150 1.390 . S
C2146 C2140 1.465 . S
C2146 C2145 1.396 . S
C2146 C2147 1.399 . S
C2147 H2133 0.929 . S
C2147 C2146 1.399 . S
C2147 C2148 1.385 . S
C2148 H2134 0.931 . S
C2148 C2147 1.385 . S
C2148 C2149 1.389 . S
C2149 C2148 1.389 . S
C2149 C2150 1.387 . S
C2150 H2135 0.930 . S
C2150 C2145 1.390 . S
C2150 C2149 1.387 . S
H2151 C2163 0.930 . S
H2152 C2165 0.930 . S
H2153 C2166 0.930 . S
H2154 C2170 0.959 . S
H2155 C2170 0.959 . S
H2156 C2170 0.961 . S
H2157 C2171 0.960 . S
H2158 C2171 0.961 . S
H2159 C2171 0.959 . S
H2160 C2174 0.929 . S
H2161 C2175 0.931 . S
H2162 C2177 0.930 . S
C2163 H2151 0.930 . S
C2163 C2164 1.399 . S
C2163 C2168 1.399 . S
C2164 C2163 1.399 . S
C2164 C2165 1.376 . S
C2165 H2152 0.930 . S
C2165 C2164 1.376 . S
C2165 C2166 1.388 . S
C2166 H2153 0.930 . S
C2166 C2165 1.388 . S
C2166 C2167 1.390 . S
C2167 C2166 1.390 . S
C2167 C2168 1.394 . S
C2167 C2173 1.465 . S
C2168 C2163 1.399 . S
C2168 C2167 1.394 . S
C2168 C2169 1.516 . S
C2169 C2168 1.516 . S
C2169 C2170 1.502 . S
C2169 C2171 1.561 . S
C2169 C2172 1.526 . S
C2170 H2154 0.959 . S
C2170 H2155 0.959 . S
C2170 H2156 0.961 . S
C2170 C2169 1.502 . S
C2171 H2157 0.960 . S
C2171 H2158 0.961 . S
C2171 H2159 0.959 . S
C2171 C2169 1.561 . S
C2172 C2169 1.526 . S
C2172 C2173 1.396 . S
C2172 C2177 1.390 . S
C2173 C2167 1.465 . S
C2173 C2172 1.396 . S
C2173 C2174 1.399 . S
C2174 H2160 0.929 . S
C2174 C2173 1.399 . S
C2174 C2175 1.385 . S
C2175 H2161 0.931 . S
C2175 C2174 1.385 . S
C2175 C2176 1.389 . S
C2176 C2175 1.389 . S
C2176 C2177 1.387 . S
C2177 H2162 0.930 . S
C2177 C2172 1.390 . S
C2177 C2176 1.387 . S
H2178 C2190 0.930 . S
H2179 C2192 0.930 . S
H2180 C2193 0.930 . S
H2181 C2197 0.959 . S
H2182 C2197 0.959 . S
H2183 C2197 0.961 . S
H2184 C2198 0.960 . S
H2185 C2198 0.961 . S
H2186 C2198 0.959 . S
H2187 C2201 0.929 1_545 S
H2188 C2202 0.931 . S
H2189 C2204 0.930 . S
C2190 H2178 0.930 . S
C2190 C2191 1.399 . S
C2190 C2195 1.399 . S
C2191 C2190 1.399 . S
C2191 C2192 1.376 . S
C2192 H2179 0.930 . S
C2192 C2191 1.376 . S
C2192 C2193 1.388 . S
C2193 H2180 0.930 . S
C2193 C2192 1.388 . S
C2193 C2194 1.390 . S
C2194 C2193 1.390 . S
C2194 C2195 1.394 . S
C2194 C2200 1.465 . S
C2195 C2190 1.399 . S
C2195 C2194 1.394 . S
C2195 C2196 1.516 . S
C2196 C2195 1.516 . S
C2196 C2197 1.502 . S
C2196 C2198 1.561 . S
C2196 C2199 1.526 . S
C2197 H2181 0.959 . S
C2197 H2182 0.959 . S
C2197 H2183 0.961 . S
C2197 C2196 1.502 . S
C2198 H2184 0.960 . S
C2198 H2185 0.961 . S
C2198 H2186 0.959 . S
C2198 C2196 1.561 . S
C2199 C2196 1.526 . S
C2199 C2200 1.396 . S
C2199 C2204 1.390 . S
C2200 C2194 1.465 . S
C2200 C2199 1.396 . S
C2200 C2201 1.399 . S
C2201 H2187 0.929 1_565 S
C2201 C2200 1.399 . S
C2201 C2202 1.385 1_565 S
C2202 H2188 0.931 . S
C2202 C2201 1.385 1_545 S
C2202 C2203 1.389 1_545 S
C2203 C2202 1.389 1_565 S
C2203 C2204 1.387 . S
C2204 H2189 0.930 . S
C2204 C2199 1.390 . S
C2204 C2203 1.387 . S
H2205 C2217 0.930 . S
H2206 C2219 0.930 1_655 S
H2207 C2220 0.930 . S
H2208 C2224 0.959 . S
H2209 C2224 0.959 . S
H2210 C2224 0.961 . S
H2211 C2225 0.960 . S
H2212 C2225 0.961 . S
H2213 C2225 0.959 . S
H2214 C2228 0.929 . S
H2215 C2229 0.931 . S
H2216 C2231 0.930 . S
C2217 H2205 0.930 . S
C2217 C2218 1.399 . S
C2217 C2222 1.399 . S
C2218 C2217 1.399 . S
C2218 C2219 1.376 . S
C2219 H2206 0.930 1_455 S
C2219 C2218 1.376 . S
C2219 C2220 1.388 . S
C2220 H2207 0.930 . S
C2220 C2219 1.388 . S
C2220 C2221 1.390 . S
C2221 C2220 1.390 . S
C2221 C2222 1.394 . S
C2221 C2227 1.465 . S
C2222 C2217 1.399 . S
C2222 C2221 1.394 . S
C2222 C2223 1.516 . S
C2223 C2222 1.516 . S
C2223 C2224 1.502 . S
C2223 C2225 1.561 . S
C2223 C2226 1.526 . S
C2224 H2208 0.959 . S
C2224 H2209 0.959 . S
C2224 H2210 0.961 . S
C2224 C2223 1.502 . S
C2225 H2211 0.960 . S
C2225 H2212 0.961 . S
C2225 H2213 0.959 . S
C2225 C2223 1.561 . S
C2226 C2223 1.526 . S
C2226 C2227 1.396 . S
C2226 C2231 1.390 . S
C2227 C2221 1.465 . S
C2227 C2226 1.396 . S
C2227 C2228 1.399 . S
C2228 H2214 0.929 . S
C2228 C2227 1.399 . S
C2228 C2229 1.385 . S
C2229 H2215 0.931 . S
C2229 C2228 1.385 . S
C2229 C2230 1.389 . S
C2230 C2229 1.389 . S
C2230 C2231 1.387 . S
C2231 H2216 0.930 . S
C2231 C2226 1.390 . S
C2231 C2230 1.387 . S
H2232 C2244 0.930 . S
H2233 C2246 0.930 . S
H2234 C2247 0.930 . S
H2235 C2251 0.959 . S
H2236 C2251 0.959 . S
H2237 C2251 0.961 . S
H2238 C2252 0.960 . S
H2239 C2252 0.961 . S
H2240 C2252 0.959 . S
H2241 C2255 0.929 . S
H2242 C2256 0.931 . S
H2243 C2258 0.930 . S
C2244 H2232 0.930 . S
C2244 C2245 1.399 . S
C2244 C2249 1.399 . S
C2245 C2244 1.399 . S
C2245 C2246 1.376 . S
C2246 H2233 0.930 . S
C2246 C2245 1.376 . S
C2246 C2247 1.388 . S
C2247 H2234 0.930 . S
C2247 C2246 1.388 . S
C2247 C2248 1.390 . S
C2248 C2247 1.390 . S
C2248 C2249 1.394 . S
C2248 C2254 1.465 . S
C2249 C2244 1.399 . S
C2249 C2248 1.394 . S
C2249 C2250 1.516 . S
C2250 C2249 1.516 . S
C2250 C2251 1.502 . S
C2250 C2252 1.561 . S
C2250 C2253 1.526 . S
C2251 H2235 0.959 . S
C2251 H2236 0.959 . S
C2251 H2237 0.961 . S
C2251 C2250 1.502 . S
C2252 H2238 0.960 . S
C2252 H2239 0.961 . S
C2252 H2240 0.959 . S
C2252 C2250 1.561 . S
C2253 C2250 1.526 . S
C2253 C2254 1.396 . S
C2253 C2258 1.390 . S
C2254 C2248 1.465 . S
C2254 C2253 1.396 . S
C2254 C2255 1.399 . S
C2255 H2241 0.929 . S
C2255 C2254 1.399 . S
C2255 C2256 1.385 . S
C2256 H2242 0.931 . S
C2256 C2255 1.385 . S
C2256 C2257 1.389 . S
C2257 C2256 1.389 . S
C2257 C2258 1.387 . S
C2258 H2243 0.930 . S
C2258 C2253 1.390 . S
C2258 C2257 1.387 . S
H2259 C2271 0.930 . S
H2260 C2273 0.930 . S
H2261 C2274 0.930 . S
H2262 C2278 0.959 . S
H2263 C2278 0.959 1_545 S
H2264 C2278 0.961 . S
H2265 C2279 0.960 . S
H2266 C2279 0.961 1_545 S
H2267 C2279 0.959 . S
H2268 C2282 0.929 . S
H2269 C2283 0.931 . S
H2270 C2285 0.930 . S
C2271 H2259 0.930 . S
C2271 C2272 1.399 . S
C2271 C2276 1.399 . S
C2272 C2271 1.399 . S
C2272 C2273 1.376 1_554 S
C2273 H2260 0.930 . S
C2273 C2272 1.376 1_556 S
C2273 C2274 1.388 . S
C2274 H2261 0.930 . S
C2274 C2273 1.388 . S
C2274 C2275 1.390 . S
C2275 C2274 1.390 . S
C2275 C2276 1.394 1_556 S
C2275 C2281 1.465 1_565 S
C2276 C2271 1.399 . S
C2276 C2275 1.394 1_554 S
C2276 C2277 1.516 . S
C2277 C2276 1.516 . S
C2277 C2278 1.502 . S
C2277 C2279 1.561 . S
C2277 C2280 1.526 1_565 S
C2278 H2262 0.959 . S
C2278 H2263 0.959 1_565 S
C2278 H2264 0.961 . S
C2278 C2277 1.502 . S
C2279 H2265 0.960 . S
C2279 H2266 0.961 1_565 S
C2279 H2267 0.959 . S
C2279 C2277 1.561 . S
C2280 C2277 1.526 1_545 S
C2280 C2281 1.396 1_554 S
C2280 C2285 1.390 . S
C2281 C2275 1.465 1_545 S
C2281 C2280 1.396 1_556 S
C2281 C2282 1.399 . S
C2282 H2268 0.929 . S
C2282 C2281 1.399 . S
C2282 C2283 1.385 . S
C2283 H2269 0.931 . S
C2283 C2282 1.385 . S
C2283 C2284 1.389 . S
C2284 C2283 1.389 . S
C2284 C2285 1.387 1_556 S
C2285 H2270 0.930 . S
C2285 C2280 1.390 . S
C2285 C2284 1.387 1_554 S
H2286 C2298 0.930 . S
H2287 C2300 0.930 . S
H2288 C2301 0.930 . S
H2289 C2305 0.959 . S
H2290 C2305 0.959 1_655 S
H2291 C2305 0.961 . S
H2292 C2306 0.960 . S
H2293 C2306 0.961 1_655 S
H2294 C2306 0.959 . S
H2295 C2309 0.929 . S
H2296 C2310 0.931 . S
H2297 C2312 0.930 . S
C2298 H2286 0.930 . S
C2298 C2299 1.399 . S
C2298 C2303 1.399 . S
C2299 C2298 1.399 . S
C2299 C2300 1.376 1_554 S
C2300 H2287 0.930 . S
C2300 C2299 1.376 1_556 S
C2300 C2301 1.388 . S
C2301 H2288 0.930 . S
C2301 C2300 1.388 . S
C2301 C2302 1.390 . S
C2302 C2301 1.390 . S
C2302 C2303 1.394 1_556 S
C2302 C2308 1.465 1_455 S
C2303 C2298 1.399 . S
C2303 C2302 1.394 1_554 S
C2303 C2304 1.516 . S
C2304 C2303 1.516 . S
C2304 C2305 1.502 . S
C2304 C2306 1.561 . S
C2304 C2307 1.526 1_455 S
C2305 H2289 0.959 . S
C2305 H2290 0.959 1_455 S
C2305 H2291 0.961 . S
C2305 C2304 1.502 . S
C2306 H2292 0.960 . S
C2306 H2293 0.961 1_455 S
C2306 H2294 0.959 . S
C2306 C2304 1.561 . S
C2307 C2304 1.526 1_655 S
C2307 C2308 1.396 1_554 S
C2307 C2312 1.390 . S
C2308 C2302 1.465 1_655 S
C2308 C2307 1.396 1_556 S
C2308 C2309 1.399 . S
C2309 H2295 0.929 . S
C2309 C2308 1.399 . S
C2309 C2310 1.385 . S
C2310 H2296 0.931 . S
C2310 C2309 1.385 . S
C2310 C2311 1.389 . S
C2311 C2310 1.389 . S
C2311 C2312 1.387 1_556 S
C2312 H2297 0.930 . S
C2312 C2307 1.390 . S
C2312 C2311 1.387 1_554 S
H2313 C2325 0.930 . S
H2314 C2327 0.930 . S
H2315 C2328 0.930 . S
H2316 C2332 0.959 1_554 S
H2317 C2332 0.959 . S
H2318 C2332 0.961 . S
H2319 C2333 0.960 . S
H2320 C2333 0.961 . S
H2321 C2333 0.959 . S
H2322 C2336 0.929 . S
H2323 C2337 0.931 . S
H2324 C2339 0.930 . S
C2325 H2313 0.930 . S
C2325 C2326 1.399 . S
C2325 C2330 1.399 . S
C2326 C2325 1.399 . S
C2326 C2327 1.376 1_556 S
C2327 H2314 0.930 . S
C2327 C2326 1.376 1_554 S
C2327 C2328 1.388 . S
C2328 H2315 0.930 . S
C2328 C2327 1.388 . S
C2328 C2329 1.390 . S
C2329 C2328 1.390 . S
C2329 C2330 1.394 1_554 S
C2329 C2335 1.465 . S
C2330 C2325 1.399 . S
C2330 C2329 1.394 1_556 S
C2330 C2331 1.516 . S
C2331 C2330 1.516 . S
C2331 C2332 1.502 . S
C2331 C2333 1.561 . S
C2331 C2334 1.526 . S
C2332 H2316 0.959 1_556 S
C2332 H2317 0.959 . S
C2332 H2318 0.961 . S
C2332 C2331 1.502 . S
C2333 H2319 0.960 . S
C2333 H2320 0.961 . S
C2333 H2321 0.959 . S
C2333 C2331 1.561 . S
C2334 C2331 1.526 . S
C2334 C2335 1.396 1_556 S
C2334 C2339 1.390 . S
C2335 C2329 1.465 . S
C2335 C2334 1.396 1_554 S
C2335 C2336 1.399 . S
C2336 H2322 0.929 . S
C2336 C2335 1.399 . S
C2336 C2337 1.385 . S
C2337 H2323 0.931 . S
C2337 C2336 1.385 . S
C2337 C2338 1.389 . S
C2338 C2337 1.389 . S
C2338 C2339 1.387 1_554 S
C2339 H2324 0.930 . S
C2339 C2334 1.390 . S
C2339 C2338 1.387 1_556 S
H2340 C2352 0.930 . S
H2341 C2354 0.930 . S
H2342 C2355 0.930 . S
H2343 C2359 0.959 . S
H2344 C2359 0.959 . S
H2345 C2359 0.961 . S
H2346 C2360 0.960 . S
H2347 C2360 0.961 . S
H2348 C2360 0.959 . S
H2349 C2363 0.929 . S
H2350 C2364 0.931 . S
H2351 C2366 0.930 . S
C2352 H2340 0.930 . S
C2352 C2353 1.399 . S
C2352 C2357 1.399 . S
C2353 C2352 1.399 . S
C2353 C2354 1.376 . S
C2354 H2341 0.930 . S
C2354 C2353 1.376 . S
C2354 C2355 1.388 . S
C2355 H2342 0.930 . S
C2355 C2354 1.388 . S
C2355 C2356 1.390 . S
C2356 C2355 1.390 . S
C2356 C2357 1.394 . S
C2356 C2362 1.465 . S
C2357 C2352 1.399 . S
C2357 C2356 1.394 . S
C2357 C2358 1.516 . S
C2358 C2357 1.516 . S
C2358 C2359 1.502 . S
C2358 C2360 1.561 . S
C2358 C2361 1.526 . S
C2359 H2343 0.959 . S
C2359 H2344 0.959 . S
C2359 H2345 0.961 . S
C2359 C2358 1.502 . S
C2360 H2346 0.960 . S
C2360 H2347 0.961 . S
C2360 H2348 0.959 . S
C2360 C2358 1.561 . S
C2361 C2358 1.526 . S
C2361 C2362 1.396 . S
C2361 C2366 1.390 . S
C2362 C2356 1.465 . S
C2362 C2361 1.396 . S
C2362 C2363 1.399 . S
C2363 H2349 0.929 . S
C2363 C2362 1.399 . S
C2363 C2364 1.385 . S
C2364 H2350 0.931 . S
C2364 C2363 1.385 . S
C2364 C2365 1.389 . S
C2365 C2364 1.389 . S
C2365 C2366 1.387 . S
C2366 H2351 0.930 . S
C2366 C2361 1.390 . S
C2366 C2365 1.387 . S
H2367 C2379 0.930 . S
H2368 C2381 0.930 . S
H2369 C2382 0.930 . S
H2370 C2386 0.954 1_455 S
H2371 C2386 0.951 1_455 S
H2372 C2386 0.967 . S
H2373 C2387 0.960 . S
H2374 C2387 0.961 . S
H2375 C2387 0.959 . S
H2376 C2390 0.929 . S
H2377 C2391 0.931 . S
H2378 C2393 0.929 . S
C2379 H2367 0.930 . S
C2379 C2380 1.399 . S
C2379 C2384 1.399 . S
C2380 C2379 1.399 . S
C2380 C2381 1.376 . S
C2381 H2368 0.930 . S
C2381 C2380 1.376 . S
C2381 C2382 1.388 . S
C2382 H2369 0.930 . S
C2382 C2381 1.388 . S
C2382 C2383 1.390 . S
C2383 C2382 1.390 . S
C2383 C2384 1.394 . S
C2383 C2389 1.465 . S
C2384 C2379 1.399 . S
C2384 C2383 1.394 . S
C2384 C2385 1.516 . S
C2385 C2384 1.516 . S
C2385 C2386 1.508 . S
C2385 C2387 1.561 . S
C2385 C2388 1.526 . S
C2386 H2370 0.954 1_655 S
C2386 H2371 0.951 1_655 S
C2386 H2372 0.967 . S
C2386 C2385 1.508 . S
C2387 H2373 0.960 . S
C2387 H2374 0.961 . S
C2387 H2375 0.959 . S
C2387 C2385 1.561 . S
C2388 C2385 1.526 . S
C2388 C2389 1.396 . S
C2388 C2393 1.390 . S
C2389 C2383 1.465 . S
C2389 C2388 1.396 . S
C2389 C2390 1.399 . S
C2390 H2376 0.929 . S
C2390 C2389 1.399 . S
C2390 C2391 1.385 . S
C2391 H2377 0.931 . S
C2391 C2390 1.385 . S
C2391 C2392 1.389 . S
C2392 C2391 1.389 . S
C2392 C2393 1.387 . S
C2393 H2378 0.929 . S
C2393 C2388 1.390 . S
C2393 C2392 1.387 . S
H2394 C2406 0.930 . S
H2395 C2408 0.930 . S
H2396 C2409 0.930 . S
H2397 C2413 0.959 . S
H2398 C2413 0.959 . S
H2399 C2413 0.961 . S
H2400 C2414 0.960 . S
H2401 C2414 0.961 . S
H2402 C2414 0.959 . S
H2403 C2417 0.929 . S
H2404 C2418 0.931 . S
H2405 C2420 0.930 . S
C2406 H2394 0.930 . S
C2406 C2407 1.399 . S
C2406 C2411 1.399 . S
C2407 C2406 1.399 . S
C2407 C2408 1.376 . S
C2408 H2395 0.930 . S
C2408 C2407 1.376 . S
C2408 C2409 1.388 . S
C2409 H2396 0.930 . S
C2409 C2408 1.388 . S
C2409 C2410 1.390 . S
C2410 C2409 1.390 . S
C2410 C2411 1.394 . S
C2410 C2416 1.465 . S
C2411 C2406 1.399 . S
C2411 C2410 1.394 . S
C2411 C2412 1.516 . S
C2412 C2411 1.516 . S
C2412 C2413 1.502 . S
C2412 C2414 1.561 . S
C2412 C2415 1.526 . S
C2413 H2397 0.959 . S
C2413 H2398 0.959 . S
C2413 H2399 0.961 . S
C2413 C2412 1.502 . S
C2414 H2400 0.960 . S
C2414 H2401 0.961 . S
C2414 H2402 0.959 . S
C2414 C2412 1.561 . S
C2415 C2412 1.526 . S
C2415 C2416 1.396 . S
C2415 C2420 1.390 . S
C2416 C2410 1.465 . S
C2416 C2415 1.396 . S
C2416 C2417 1.399 . S
C2417 H2403 0.929 . S
C2417 C2416 1.399 . S
C2417 C2418 1.385 . S
C2418 H2404 0.931 . S
C2418 C2417 1.385 . S
C2418 C2419 1.389 . S
C2419 C2418 1.389 . S
C2419 C2420 1.387 . S
C2420 H2405 0.930 . S
C2420 C2415 1.390 . S
C2420 C2419 1.387 . S
H2421 C2433 0.930 . S
H2422 C2435 0.930 . S
H2423 C2436 0.930 . S
H2424 C2440 0.959 . S
H2425 C2440 0.959 . S
H2426 C2440 0.961 1_565 S
H2427 C2441 0.960 1_565 S
H2428 C2441 0.961 . S
H2429 C2441 0.959 . S
H2430 C2444 0.929 . S
H2431 C2445 0.931 . S
H2432 C2447 0.930 . S
C2433 H2421 0.930 . S
C2433 C2434 1.399 1_556 S
C2433 C2438 1.399 . S
C2434 C2433 1.399 1_554 S
C2434 C2435 1.376 . S
C2435 H2422 0.930 . S
C2435 C2434 1.376 . S
C2435 C2436 1.388 . S
C2436 H2423 0.930 . S
C2436 C2435 1.388 . S
C2436 C2437 1.390 . S
C2437 C2436 1.390 . S
C2437 C2438 1.394 1_554 S
C2437 C2443 1.465 1_565 S
C2438 C2433 1.399 . S
C2438 C2437 1.394 1_556 S
C2438 C2439 1.516 1_565 S
C2439 C2438 1.516 1_545 S
C2439 C2440 1.502 . S
C2439 C2441 1.561 . S
C2439 C2442 1.526 . S
C2440 H2424 0.959 . S
C2440 H2425 0.959 . S
C2440 H2426 0.961 1_545 S
C2440 C2439 1.502 . S
C2441 H2427 0.960 1_545 S
C2441 H2428 0.961 . S
C2441 H2429 0.959 . S
C2441 C2439 1.561 . S
C2442 C2439 1.526 . S
C2442 C2443 1.396 1_556 S
C2442 C2447 1.390 . S
C2443 C2437 1.465 1_545 S
C2443 C2442 1.396 1_554 S
C2443 C2444 1.399 . S
C2444 H2430 0.929 . S
C2444 C2443 1.399 . S
C2444 C2445 1.385 . S
C2445 H2431 0.931 . S
C2445 C2444 1.385 . S
C2445 C2446 1.389 1_554 S
C2446 C2445 1.389 1_556 S
C2446 C2447 1.387 . S
C2447 H2432 0.930 . S
C2447 C2442 1.390 . S
C2447 C2446 1.387 . S
H2448 C2460 0.943 . S
H2449 C2462 0.930 . S
H2450 C2463 0.930 . S
H2451 C2467 0.959 . S
H2452 C2467 0.959 1_455 S
H2453 C2467 0.961 . S
H2454 C2468 0.960 . S
H2455 C2468 0.961 1_455 S
H2456 C2468 0.959 . S
H2457 C2471 0.929 . S
H2458 C2472 0.931 . S
H2459 C2474 0.930 . S
C2460 H2448 0.943 . S
C2460 C2461 1.388 1_554 S
C2460 C2465 1.398 . S
C2461 C2460 1.388 1_556 S
C2461 C2462 1.376 . S
C2462 H2449 0.930 . S
C2462 C2461 1.376 . S
C2462 C2463 1.388 . S
C2463 H2450 0.930 . S
C2463 C2462 1.388 . S
C2463 C2464 1.390 . S
C2464 C2463 1.390 . S
C2464 C2465 1.396 1_556 S
C2464 C2470 1.465 1_655 S
C2465 C2460 1.398 . S
C2465 C2464 1.396 1_554 S
C2465 C2466 1.515 . S
C2466 C2465 1.515 . S
C2466 C2467 1.502 . S
C2466 C2468 1.561 1_554 S
C2466 C2469 1.526 1_655 S
C2467 H2451 0.959 . S
C2467 H2452 0.959 1_655 S
C2467 H2453 0.961 . S
C2467 C2466 1.502 . S
C2468 H2454 0.960 . S
C2468 H2455 0.961 1_655 S
C2468 H2456 0.959 . S
C2468 C2466 1.561 1_556 S
C2469 C2466 1.526 1_455 S
C2469 C2470 1.396 1_554 S
C2469 C2474 1.390 . S
C2470 C2464 1.465 1_455 S
C2470 C2469 1.396 1_556 S
C2470 C2471 1.399 . S
C2471 H2457 0.929 . S
C2471 C2470 1.399 . S
C2471 C2472 1.385 . S
C2472 H2458 0.931 . S
C2472 C2471 1.385 . S
C2472 C2473 1.389 1_556 S
C2473 C2472 1.389 1_554 S
C2473 C2474 1.387 . S
C2474 H2459 0.930 . S
C2474 C2469 1.390 . S
C2474 C2473 1.387 . S
H2475 C2487 0.930 . S
H2476 C2489 0.930 . S
H2477 C2490 0.930 . S
H2478 C2494 0.959 . S
H2479 C2494 0.959 . S
H2480 C2494 0.961 . S
H2481 C2495 0.960 . S
H2482 C2495 0.961 . S
H2483 C2495 0.959 . S
H2484 C2498 0.929 . S
H2485 C2499 0.931 . S
H2486 C2501 0.930 . S
C2487 H2475 0.930 . S
C2487 C2488 1.399 . S
C2487 C2492 1.399 . S
C2488 C2487 1.399 . S
C2488 C2489 1.376 1_554 S
C2489 H2476 0.930 . S
C2489 C2488 1.376 1_556 S
C2489 C2490 1.388 . S
C2490 H2477 0.930 . S
C2490 C2489 1.388 . S
C2490 C2491 1.390 . S
C2491 C2490 1.390 . S
C2491 C2492 1.394 1_556 S
C2491 C2497 1.465 . S
C2492 C2487 1.399 . S
C2492 C2491 1.394 1_554 S
C2492 C2493 1.516 . S
C2493 C2492 1.516 . S
C2493 C2494 1.502 . S
C2493 C2495 1.561 . S
C2493 C2496 1.526 . S
C2494 H2478 0.959 . S
C2494 H2479 0.959 . S
C2494 H2480 0.961 . S
C2494 C2493 1.502 . S
C2495 H2481 0.960 . S
C2495 H2482 0.961 . S
C2495 H2483 0.959 . S
C2495 C2493 1.561 . S
C2496 C2493 1.526 . S
C2496 C2497 1.396 1_554 S
C2496 C2501 1.390 . S
C2497 C2491 1.465 . S
C2497 C2496 1.396 1_556 S
C2497 C2498 1.399 . S
C2498 H2484 0.929 . S
C2498 C2497 1.399 . S
C2498 C2499 1.385 . S
C2499 H2485 0.931 . S
C2499 C2498 1.385 . S
C2499 C2500 1.389 . S
C2500 C2499 1.389 . S
C2500 C2501 1.387 1_556 S
C2501 H2486 0.930 . S
C2501 C2496 1.390 . S
C2501 C2500 1.387 1_554 S
H2502 C2514 0.930 . S
H2503 C2516 0.930 . S
H2504 C2517 0.930 . S
H2505 C2521 0.959 . S
H2506 C2521 0.959 . S
H2507 C2521 0.939 1_455 S
H2508 C2522 0.960 1_455 S
H2509 C2522 0.961 . S
H2510 C2522 0.959 . S
H2511 C2525 0.929 . S
H2512 C2526 0.931 . S
H2513 C2528 0.930 . S
C2514 H2502 0.930 . S
C2514 C2515 1.399 . S
C2514 C2519 1.399 . S
C2515 C2514 1.399 . S
C2515 C2516 1.376 . S
C2516 H2503 0.930 . S
C2516 C2515 1.376 . S
C2516 C2517 1.388 . S
C2517 H2504 0.930 . S
C2517 C2516 1.388 . S
C2517 C2518 1.390 . S
C2518 C2517 1.390 . S
C2518 C2519 1.394 . S
C2518 C2524 1.465 1_455 S
C2519 C2514 1.399 . S
C2519 C2518 1.394 . S
C2519 C2520 1.516 1_455 S
C2520 C2519 1.516 1_655 S
C2520 C2521 1.502 . S
C2520 C2522 1.561 . S
C2520 C2523 1.526 . S
C2521 H2505 0.959 . S
C2521 H2506 0.959 . S
C2521 H2507 0.939 1_655 S
C2521 C2520 1.502 . S
C2522 H2508 0.960 1_655 S
C2522 H2509 0.961 . S
C2522 H2510 0.959 . S
C2522 C2520 1.561 . S
C2523 C2520 1.526 . S
C2523 C2524 1.396 . S
C2523 C2528 1.390 . S
C2524 C2518 1.465 1_655 S
C2524 C2523 1.396 . S
C2524 C2525 1.399 . S
C2525 H2511 0.929 . S
C2525 C2524 1.399 . S
C2525 C2526 1.385 . S
C2526 H2512 0.931 . S
C2526 C2525 1.385 . S
C2526 C2527 1.389 . S
C2527 C2526 1.389 . S
C2527 C2528 1.387 . S
C2528 H2513 0.930 . S
C2528 C2523 1.390 . S
C2528 C2527 1.387 . S
H2529 C2541 0.930 . S
H2530 C2543 0.930 . S
H2531 C2544 0.930 . S
H2532 C2548 0.959 . S
H2533 C2548 0.959 . S
H2534 C2548 0.961 . S
H2535 C2549 0.960 . S
H2536 C2549 0.961 . S
H2537 C2549 0.959 . S
H2538 C2552 0.929 . S
H2539 C2553 0.931 . S
H2540 C2555 0.930 . S
C2541 H2529 0.930 . S
C2541 C2542 1.399 . S
C2541 C2546 1.399 . S
C2542 C2541 1.399 . S
C2542 C2543 1.376 . S
C2543 H2530 0.930 . S
C2543 C2542 1.376 . S
C2543 C2544 1.388 . S
C2544 H2531 0.930 . S
C2544 C2543 1.388 . S
C2544 C2545 1.390 . S
C2545 C2544 1.390 . S
C2545 C2546 1.394 . S
C2545 C2551 1.465 . S
C2546 C2541 1.399 . S
C2546 C2545 1.394 . S
C2546 C2547 1.516 . S
C2547 C2546 1.516 . S
C2547 C2548 1.502 . S
C2547 C2549 1.561 . S
C2547 C2550 1.526 . S
C2548 H2532 0.959 . S
C2548 H2533 0.959 . S
C2548 H2534 0.961 . S
C2548 C2547 1.502 . S
C2549 H2535 0.960 . S
C2549 H2536 0.961 . S
C2549 H2537 0.959 . S
C2549 C2547 1.561 . S
C2550 C2547 1.526 . S
C2550 C2551 1.396 . S
C2550 C2555 1.390 . S
C2551 C2545 1.465 . S
C2551 C2550 1.396 . S
C2551 C2552 1.399 . S
C2552 H2538 0.929 . S
C2552 C2551 1.399 . S
C2552 C2553 1.385 . S
C2553 H2539 0.931 . S
C2553 C2552 1.385 . S
C2553 C2554 1.389 . S
C2554 C2553 1.389 . S
C2554 C2555 1.387 . S
C2555 H2540 0.930 . S
C2555 C2550 1.390 . S
C2555 C2554 1.387 . S
H2556 C2568 0.930 . S
H2557 C2570 0.930 . S
H2558 C2571 0.930 . S
H2559 C2575 0.959 . S
H2560 C2575 0.959 . S
H2561 C2575 0.961 1_565 S
H2562 C2576 0.988 . S
H2563 C2576 0.937 1_545 S
H2564 C2576 0.974 1_545 S
H2565 C2579 0.929 . S
H2566 C2580 0.931 . S
H2567 C2582 0.930 . S
C2568 H2556 0.930 . S
C2568 C2569 1.399 . S
C2568 C2573 1.399 . S
C2569 C2568 1.399 . S
C2569 C2570 1.376 . S
C2570 H2557 0.930 . S
C2570 C2569 1.376 . S
C2570 C2571 1.388 . S
C2571 H2558 0.930 . S
C2571 C2570 1.388 . S
C2571 C2572 1.390 . S
C2572 C2571 1.390 . S
C2572 C2573 1.394 . S
C2572 C2578 1.465 1_565 S
C2573 C2568 1.399 . S
C2573 C2572 1.394 . S
C2573 C2574 1.516 1_565 S
C2574 C2573 1.516 1_545 S
C2574 C2575 1.502 . S
C2574 C2576 1.543 1_545 S
C2574 C2577 1.526 . S
C2575 H2559 0.959 . S
C2575 H2560 0.959 . S
C2575 H2561 0.961 1_545 S
C2575 C2574 1.502 . S
C2576 H2562 0.988 . S
C2576 H2563 0.937 1_565 S
C2576 H2564 0.974 1_565 S
C2576 C2574 1.543 1_565 S
C2577 C2574 1.526 . S
C2577 C2578 1.396 . S
C2577 C2582 1.390 . S
C2578 C2572 1.465 1_545 S
C2578 C2577 1.396 . S
C2578 C2579 1.399 . S
C2579 H2565 0.929 . S
C2579 C2578 1.399 . S
C2579 C2580 1.385 . S
C2580 H2566 0.931 . S
C2580 C2579 1.385 . S
C2580 C2581 1.389 . S
C2581 C2580 1.389 . S
C2581 C2582 1.387 . S
C2582 H2567 0.930 . S
C2582 C2577 1.390 . S
C2582 C2581 1.387 . S
H2583 C2595 0.930 . S
H2584 C2597 0.930 . S
H2585 C2598 0.930 . S
H2586 C2602 0.959 . S
H2587 C2602 0.959 . S
H2588 C2602 0.961 . S
H2589 C2603 0.960 . S
H2590 C2603 0.961 . S
H2591 C2603 0.959 . S
H2592 C2606 0.929 . S
H2593 C2607 0.931 . S
H2594 C2609 0.930 . S
C2595 H2583 0.930 . S
C2595 C2596 1.399 . S
C2595 C2600 1.399 . S
C2596 C2595 1.399 . S
C2596 C2597 1.376 . S
C2597 H2584 0.930 . S
C2597 C2596 1.376 . S
C2597 C2598 1.388 . S
C2598 H2585 0.930 . S
C2598 C2597 1.388 . S
C2598 C2599 1.390 . S
C2599 C2598 1.390 . S
C2599 C2600 1.394 . S
C2599 C2605 1.465 . S
C2600 C2595 1.399 . S
C2600 C2599 1.394 . S
C2600 C2601 1.516 . S
C2601 C2600 1.516 . S
C2601 C2602 1.502 . S
C2601 C2603 1.561 . S
C2601 C2604 1.526 . S
C2602 H2586 0.959 . S
C2602 H2587 0.959 . S
C2602 H2588 0.961 . S
C2602 C2601 1.502 . S
C2603 H2589 0.960 . S
C2603 H2590 0.961 . S
C2603 H2591 0.959 . S
C2603 C2601 1.561 . S
C2604 C2601 1.526 . S
C2604 C2605 1.396 . S
C2604 C2609 1.390 . S
C2605 C2599 1.465 . S
C2605 C2604 1.396 . S
C2605 C2606 1.399 . S
C2606 H2592 0.929 . S
C2606 C2605 1.399 . S
C2606 C2607 1.385 . S
C2607 H2593 0.931 . S
C2607 C2606 1.385 . S
C2607 C2608 1.389 . S
C2608 C2607 1.389 . S
C2608 C2609 1.387 . S
C2609 H2594 0.930 . S
C2609 C2604 1.390 . S
C2609 C2608 1.387 . S
H2610 C2622 0.930 . S
H2611 C2624 0.930 . S
H2612 C2625 0.930 . S
H2613 C2629 0.959 . S
H2614 C2629 0.959 . S
H2615 C2629 0.961 . S
H2616 C2630 0.960 . S
H2617 C2630 0.961 . S
H2618 C2630 0.959 . S
H2619 C2633 0.929 . S
H2620 C2634 0.931 . S
H2621 C2636 0.930 . S
C2622 H2610 0.930 . S
C2622 C2623 1.399 . S
C2622 C2627 1.399 . S
C2623 C2622 1.399 . S
C2623 C2624 1.376 . S
C2624 H2611 0.930 . S
C2624 C2623 1.376 . S
C2624 C2625 1.388 . S
C2625 H2612 0.930 . S
C2625 C2624 1.388 . S
C2625 C2626 1.390 . S
C2626 C2625 1.390 . S
C2626 C2627 1.394 . S
C2626 C2632 1.465 . S
C2627 C2622 1.399 . S
C2627 C2626 1.394 . S
C2627 C2628 1.516 . S
C2628 C2627 1.516 . S
C2628 C2629 1.502 . S
C2628 C2630 1.561 . S
C2628 C2631 1.526 . S
C2629 H2613 0.959 . S
C2629 H2614 0.959 . S
C2629 H2615 0.961 . S
C2629 C2628 1.502 . S
C2630 H2616 0.960 . S
C2630 H2617 0.961 . S
C2630 H2618 0.959 . S
C2630 C2628 1.561 . S
C2631 C2628 1.526 . S
C2631 C2632 1.396 . S
C2631 C2636 1.390 . S
C2632 C2626 1.465 . S
C2632 C2631 1.396 . S
C2632 C2633 1.399 . S
C2633 H2619 0.929 . S
C2633 C2632 1.399 . S
C2633 C2634 1.385 . S
C2634 H2620 0.931 . S
C2634 C2633 1.385 . S
C2634 C2635 1.389 . S
C2635 C2634 1.389 . S
C2635 C2636 1.387 . S
C2636 H2621 0.930 . S
C2636 C2631 1.390 . S
C2636 C2635 1.387 . S
H2637 C2649 0.930 . S
H2638 C2651 0.930 . S
H2639 C2652 0.930 . S
H2640 C2656 0.959 . S
H2641 C2656 0.959 . S
H2642 C2656 0.961 . S
H2643 C2657 0.960 . S
H2644 C2657 0.961 . S
H2645 C2657 0.959 . S
H2646 C2660 0.929 . S
H2647 C2661 0.931 . S
H2648 C2663 0.930 1_565 S
C2649 H2637 0.930 . S
C2649 C2650 1.399 . S
C2649 C2654 1.399 . S
C2650 C2649 1.399 . S
C2650 C2651 1.376 . S
C2651 H2638 0.930 . S
C2651 C2650 1.376 . S
C2651 C2652 1.388 . S
C2652 H2639 0.930 . S
C2652 C2651 1.388 . S
C2652 C2653 1.390 . S
C2653 C2652 1.390 . S
C2653 C2654 1.394 . S
C2653 C2659 1.465 . S
C2654 C2649 1.399 . S
C2654 C2653 1.394 . S
C2654 C2655 1.516 . S
C2655 C2654 1.516 . S
C2655 C2656 1.502 1_545 S
C2655 C2657 1.561 . S
C2655 C2658 1.526 . S
C2656 H2640 0.959 . S
C2656 H2641 0.959 . S
C2656 H2642 0.961 . S
C2656 C2655 1.502 1_565 S
C2657 H2643 0.960 . S
C2657 H2644 0.961 . S
C2657 H2645 0.959 . S
C2657 C2655 1.561 . S
C2658 C2655 1.526 . S
C2658 C2659 1.396 . S
C2658 C2663 1.390 . S
C2659 C2653 1.465 . S
C2659 C2658 1.396 . S
C2659 C2660 1.399 . S
C2660 H2646 0.929 . S
C2660 C2659 1.399 . S
C2660 C2661 1.385 . S
C2661 H2647 0.931 . S
C2661 C2660 1.385 . S
C2661 C2662 1.389 . S
C2662 C2661 1.389 . S
C2662 C2663 1.387 . S
C2663 H2648 0.930 1_545 S
C2663 C2658 1.390 . S
C2663 C2662 1.387 . S
H2664 C2676 0.930 . S
H2665 C2678 0.930 . S
H2666 C2679 0.930 . S
H2667 C2683 0.959 . S
H2668 C2683 0.959 . S
H2669 C2683 0.961 . S
H2670 C2684 0.960 . S
H2671 C2684 0.961 . S
H2672 C2684 0.959 . S
H2673 C2687 0.929 . S
H2674 C2688 0.931 . S
H2675 C2690 0.930 . S
C2676 H2664 0.930 . S
C2676 C2677 1.399 . S
C2676 C2681 1.399 . S
C2677 C2676 1.399 . S
C2677 C2678 1.376 . S
C2678 H2665 0.930 . S
C2678 C2677 1.376 . S
C2678 C2679 1.388 . S
C2679 H2666 0.930 . S
C2679 C2678 1.388 . S
C2679 C2680 1.390 . S
C2680 C2679 1.390 . S
C2680 C2681 1.394 . S
C2680 C2686 1.465 . S
C2681 C2676 1.399 . S
C2681 C2680 1.394 . S
C2681 C2682 1.516 . S
C2682 C2681 1.516 . S
C2682 C2683 1.502 . S
C2682 C2684 1.561 . S
C2682 C2685 1.526 . S
C2683 H2667 0.959 . S
C2683 H2668 0.959 . S
C2683 H2669 0.961 . S
C2683 C2682 1.502 . S
C2684 H2670 0.960 . S
C2684 H2671 0.961 . S
C2684 H2672 0.959 . S
C2684 C2682 1.561 . S
C2685 C2682 1.526 . S
C2685 C2686 1.396 . S
C2685 C2690 1.390 . S
C2686 C2680 1.465 . S
C2686 C2685 1.396 . S
C2686 C2687 1.399 . S
C2687 H2673 0.929 . S
C2687 C2686 1.399 . S
C2687 C2688 1.385 . S
C2688 H2674 0.931 . S
C2688 C2687 1.385 . S
C2688 C2689 1.389 . S
C2689 C2688 1.389 . S
C2689 C2690 1.387 . S
C2690 H2675 0.930 . S
C2690 C2685 1.390 . S
C2690 C2689 1.387 . S
H2691 C2703 0.930 . S
H2692 C2705 0.930 . S
H2693 C2706 0.930 . S
H2694 C2710 0.959 . S
H2695 C2710 0.959 . S
H2696 C2710 0.961 . S
H2697 C2711 0.960 . S
H2698 C2711 0.961 . S
H2699 C2711 0.959 . S
H2700 C2714 0.929 . S
H2701 C2715 0.931 . S
H2702 C2717 0.930 . S
C2703 H2691 0.930 . S
C2703 C2704 1.399 . S
C2703 C2708 1.399 . S
C2704 C2703 1.399 . S
C2704 C2705 1.376 . S
C2705 H2692 0.930 . S
C2705 C2704 1.376 . S
C2705 C2706 1.388 . S
C2706 H2693 0.930 . S
C2706 C2705 1.388 . S
C2706 C2707 1.390 . S
C2707 C2706 1.390 . S
C2707 C2708 1.394 . S
C2707 C2713 1.465 . S
C2708 C2703 1.399 . S
C2708 C2707 1.394 . S
C2708 C2709 1.516 . S
C2709 C2708 1.516 . S
C2709 C2710 1.502 . S
C2709 C2711 1.561 . S
C2709 C2712 1.526 . S
C2710 H2694 0.959 . S
C2710 H2695 0.959 . S
C2710 H2696 0.961 . S
C2710 C2709 1.502 . S
C2711 H2697 0.960 . S
C2711 H2698 0.961 . S
C2711 H2699 0.959 . S
C2711 C2709 1.561 . S
C2712 C2709 1.526 . S
C2712 C2713 1.396 . S
C2712 C2717 1.390 . S
C2713 C2707 1.465 . S
C2713 C2712 1.396 . S
C2713 C2714 1.399 . S
C2714 H2700 0.929 . S
C2714 C2713 1.399 . S
C2714 C2715 1.385 . S
C2715 H2701 0.931 . S
C2715 C2714 1.385 . S
C2715 C2716 1.389 . S
C2716 C2715 1.389 . S
C2716 C2717 1.387 . S
C2717 H2702 0.930 . S
C2717 C2712 1.390 . S
C2717 C2716 1.387 . S
H2718 C2730 0.930 . S
H2719 C2732 0.930 . S
H2720 C2733 0.930 . S
H2721 C2737 0.959 . S
H2722 C2737 0.959 . S
H2723 C2737 0.961 . S
H2724 C2738 0.960 . S
H2725 C2738 0.961 . S
H2726 C2738 0.959 . S
H2727 C2741 0.929 . S
H2728 C2742 0.931 . S
H2729 C2744 0.930 . S
C2730 H2718 0.930 . S
C2730 C2731 1.399 . S
C2730 C2735 1.399 . S
C2731 C2730 1.399 . S
C2731 C2732 1.376 . S
C2732 H2719 0.930 . S
C2732 C2731 1.376 . S
C2732 C2733 1.388 . S
C2733 H2720 0.930 . S
C2733 C2732 1.388 . S
C2733 C2734 1.390 . S
C2734 C2733 1.390 . S
C2734 C2735 1.394 . S
C2734 C2740 1.465 . S
C2735 C2730 1.399 . S
C2735 C2734 1.394 . S
C2735 C2736 1.516 . S
C2736 C2735 1.516 . S
C2736 C2737 1.502 . S
C2736 C2738 1.561 . S
C2736 C2739 1.526 . S
C2737 H2721 0.959 . S
C2737 H2722 0.959 . S
C2737 H2723 0.961 . S
C2737 C2736 1.502 . S
C2738 H2724 0.960 . S
C2738 H2725 0.961 . S
C2738 H2726 0.959 . S
C2738 C2736 1.561 . S
C2739 C2736 1.526 . S
C2739 C2740 1.396 . S
C2739 C2744 1.390 . S
C2740 C2734 1.465 . S
C2740 C2739 1.396 . S
C2740 C2741 1.399 . S
C2741 H2727 0.929 . S
C2741 C2740 1.399 . S
C2741 C2742 1.385 . S
C2742 H2728 0.931 . S
C2742 C2741 1.385 . S
C2742 C2743 1.389 . S
C2743 C2742 1.389 . S
C2743 C2744 1.387 . S
C2744 H2729 0.930 . S
C2744 C2739 1.390 . S
C2744 C2743 1.387 . S
H2745 C2757 0.930 . S
H2746 C2759 0.930 . S
H2747 C2760 0.930 . S
H2748 C2764 0.959 . S
H2749 C2764 0.959 . S
H2750 C2764 0.961 . S
H2751 C2765 0.960 . S
H2752 C2765 0.961 . S
H2753 C2765 0.959 . S
H2754 C2768 0.929 . S
H2755 C2769 0.931 . S
H2756 C2771 0.930 . S
C2757 H2745 0.930 . S
C2757 C2758 1.399 . S
C2757 C2762 1.399 . S
C2758 C2757 1.399 . S
C2758 C2759 1.376 . S
C2759 H2746 0.930 . S
C2759 C2758 1.376 . S
C2759 C2760 1.388 . S
C2760 H2747 0.930 . S
C2760 C2759 1.388 . S
C2760 C2761 1.390 . S
C2761 C2760 1.390 . S
C2761 C2762 1.394 . S
C2761 C2767 1.465 . S
C2762 C2757 1.399 . S
C2762 C2761 1.394 . S
C2762 C2763 1.516 . S
C2763 C2762 1.516 . S
C2763 C2764 1.502 . S
C2763 C2765 1.561 . S
C2763 C2766 1.526 . S
C2764 H2748 0.959 . S
C2764 H2749 0.959 . S
C2764 H2750 0.961 . S
C2764 C2763 1.502 . S
C2765 H2751 0.960 . S
C2765 H2752 0.961 . S
C2765 H2753 0.959 . S
C2765 C2763 1.561 . S
C2766 C2763 1.526 . S
C2766 C2767 1.396 . S
C2766 C2771 1.390 . S
C2767 C2761 1.465 . S
C2767 C2766 1.396 . S
C2767 C2768 1.399 . S
C2768 H2754 0.929 . S
C2768 C2767 1.399 . S
C2768 C2769 1.385 . S
C2769 H2755 0.931 . S
C2769 C2768 1.385 . S
C2769 C2770 1.389 . S
C2770 C2769 1.389 . S
C2770 C2771 1.387 . S
C2771 H2756 0.930 . S
C2771 C2766 1.390 . S
C2771 C2770 1.387 . S
H2772 C2784 0.930 . S
H2773 C2786 0.930 . S
H2774 C2787 0.930 . S
H2775 C2791 0.959 . S
H2776 C2791 0.959 . S
H2777 C2791 0.961 . S
H2778 C2792 0.960 . S
H2779 C2792 0.961 . S
H2780 C2792 0.959 . S
H2781 C2795 0.929 . S
H2782 C2796 0.931 . S
H2783 C2798 0.930 . S
C2784 H2772 0.930 . S
C2784 C2785 1.399 . S
C2784 C2789 1.399 . S
C2785 C2784 1.399 . S
C2785 C2786 1.376 . S
C2786 H2773 0.930 . S
C2786 C2785 1.376 . S
C2786 C2787 1.388 . S
C2787 H2774 0.930 . S
C2787 C2786 1.388 . S
C2787 C2788 1.390 . S
C2788 C2787 1.390 . S
C2788 C2789 1.394 . S
C2788 C2794 1.465 . S
C2789 C2784 1.399 . S
C2789 C2788 1.394 . S
C2789 C2790 1.516 . S
C2790 C2789 1.516 . S
C2790 C2791 1.502 . S
C2790 C2792 1.561 . S
C2790 C2793 1.526 . S
C2791 H2775 0.959 . S
C2791 H2776 0.959 . S
C2791 H2777 0.961 . S
C2791 C2790 1.502 . S
C2792 H2778 0.960 . S
C2792 H2779 0.961 . S
C2792 H2780 0.959 . S
C2792 C2790 1.561 . S
C2793 C2790 1.526 . S
C2793 C2794 1.396 . S
C2793 C2798 1.390 . S
C2794 C2788 1.465 . S
C2794 C2793 1.396 . S
C2794 C2795 1.399 . S
C2795 H2781 0.929 . S
C2795 C2794 1.399 . S
C2795 C2796 1.385 . S
C2796 H2782 0.931 . S
C2796 C2795 1.385 . S
C2796 C2797 1.389 . S
C2797 C2796 1.389 . S
C2797 C2798 1.387 . S
C2798 H2783 0.930 . S
C2798 C2793 1.390 . S
C2798 C2797 1.387 . S
H2799 C2811 0.930 . S
H2800 C2813 0.930 . S
H2801 C2814 0.930 . S
H2802 C2818 0.959 . S
H2803 C2818 0.959 . S
H2804 C2818 0.961 . S
H2805 C2819 0.960 . S
H2806 C2819 0.961 . S
H2807 C2819 0.959 . S
H2808 C2822 0.929 . S
H2809 C2823 0.931 . S
H2810 C2825 0.930 . S
C2811 H2799 0.930 . S
C2811 C2812 1.399 . S
C2811 C2816 1.399 . S
C2812 C2811 1.399 . S
C2812 C2813 1.376 . S
C2813 H2800 0.930 . S
C2813 C2812 1.376 . S
C2813 C2814 1.388 . S
C2814 H2801 0.930 . S
C2814 C2813 1.388 . S
C2814 C2815 1.390 . S
C2815 C2814 1.390 . S
C2815 C2816 1.394 . S
C2815 C2821 1.465 . S
C2816 C2811 1.399 . S
C2816 C2815 1.394 . S
C2816 C2817 1.516 . S
C2817 C2816 1.516 . S
C2817 C2818 1.502 . S
C2817 C2819 1.561 . S
C2817 C2820 1.526 . S
C2818 H2802 0.959 . S
C2818 H2803 0.959 . S
C2818 H2804 0.961 . S
C2818 C2817 1.502 . S
C2819 H2805 0.960 . S
C2819 H2806 0.961 . S
C2819 H2807 0.959 . S
C2819 C2817 1.561 . S
C2820 C2817 1.526 . S
C2820 C2821 1.396 . S
C2820 C2825 1.390 . S
C2821 C2815 1.465 . S
C2821 C2820 1.396 . S
C2821 C2822 1.399 . S
C2822 H2808 0.929 . S
C2822 C2821 1.399 . S
C2822 C2823 1.385 . S
C2823 H2809 0.931 . S
C2823 C2822 1.385 . S
C2823 C2824 1.389 . S
C2824 C2823 1.389 . S
C2824 C2825 1.387 . S
C2825 H2810 0.930 . S
C2825 C2820 1.390 . S
C2825 C2824 1.387 . S
H2826 C2838 0.930 . S
H2827 C2840 0.930 . S
H2828 C2841 0.930 . S
H2829 C2845 0.959 . S
H2830 C2845 0.959 . S
H2831 C2845 0.961 . S
H2832 C2846 0.960 . S
H2833 C2846 0.961 . S
H2834 C2846 0.959 . S
H2835 C2849 0.929 . S
H2836 C2850 0.931 . S
H2837 C2852 0.930 . S
C2838 H2826 0.930 . S
C2838 C2839 1.399 . S
C2838 C2843 1.399 . S
C2839 C2838 1.399 . S
C2839 C2840 1.376 . S
C2840 H2827 0.930 . S
C2840 C2839 1.376 . S
C2840 C2841 1.388 . S
C2841 H2828 0.930 . S
C2841 C2840 1.388 . S
C2841 C2842 1.390 . S
C2842 C2841 1.390 . S
C2842 C2843 1.394 . S
C2842 C2848 1.465 . S
C2843 C2838 1.399 . S
C2843 C2842 1.394 . S
C2843 C2844 1.516 . S
C2844 C2843 1.516 . S
C2844 C2845 1.502 . S
C2844 C2846 1.561 . S
C2844 C2847 1.526 . S
C2845 H2829 0.959 . S
C2845 H2830 0.959 . S
C2845 H2831 0.961 . S
C2845 C2844 1.502 . S
C2846 H2832 0.960 . S
C2846 H2833 0.961 . S
C2846 H2834 0.959 . S
C2846 C2844 1.561 . S
C2847 C2844 1.526 . S
C2847 C2848 1.396 . S
C2847 C2852 1.390 . S
C2848 C2842 1.465 . S
C2848 C2847 1.396 . S
C2848 C2849 1.399 . S
C2849 H2835 0.929 . S
C2849 C2848 1.399 . S
C2849 C2850 1.385 . S
C2850 H2836 0.931 . S
C2850 C2849 1.385 . S
C2850 C2851 1.389 . S
C2851 C2850 1.389 . S
C2851 C2852 1.387 . S
C2852 H2837 0.930 . S
C2852 C2847 1.390 . S
C2852 C2851 1.387 . S
H2853 C2865 0.930 . S
H2854 C2867 0.930 . S
H2855 C2868 0.930 . S
H2856 C2872 0.959 . S
H2857 C2872 0.959 . S
H2858 C2872 0.961 . S
H2859 C2873 0.960 . S
H2860 C2873 0.961 . S
H2861 C2873 0.959 . S
H2862 C2876 0.929 . S
H2863 C2877 0.931 . S
H2864 C2879 0.930 . S
C2865 H2853 0.930 . S
C2865 C2866 1.399 . S
C2865 C2870 1.399 . S
C2866 C2865 1.399 . S
C2866 C2867 1.376 . S
C2867 H2854 0.930 . S
C2867 C2866 1.376 . S
C2867 C2868 1.388 . S
C2868 H2855 0.930 . S
C2868 C2867 1.388 . S
C2868 C2869 1.390 . S
C2869 C2868 1.390 . S
C2869 C2870 1.394 . S
C2869 C2875 1.465 . S
C2870 C2865 1.399 . S
C2870 C2869 1.394 . S
C2870 C2871 1.516 . S
C2871 C2870 1.516 . S
C2871 C2872 1.502 . S
C2871 C2873 1.561 . S
C2871 C2874 1.526 . S
C2872 H2856 0.959 . S
C2872 H2857 0.959 . S
C2872 H2858 0.961 . S
C2872 C2871 1.502 . S
C2873 H2859 0.960 . S
C2873 H2860 0.961 . S
C2873 H2861 0.959 . S
C2873 C2871 1.561 . S
C2874 C2871 1.526 . S
C2874 C2875 1.396 . S
C2874 C2879 1.390 . S
C2875 C2869 1.465 . S
C2875 C2874 1.396 . S
C2875 C2876 1.399 . S
C2876 H2862 0.929 . S
C2876 C2875 1.399 . S
C2876 C2877 1.385 . S
C2877 H2863 0.931 . S
C2877 C2876 1.385 . S
C2877 C2878 1.389 . S
C2878 C2877 1.389 . S
C2878 C2879 1.387 . S
C2879 H2864 0.930 . S
C2879 C2874 1.390 . S
C2879 C2878 1.387 . S
H2880 C2892 0.930 . S
H2881 C2894 0.930 . S
H2882 C2895 0.930 . S
H2883 C2899 0.959 . S
H2884 C2899 0.959 . S
H2885 C2899 0.961 . S
H2886 C2900 0.960 . S
H2887 C2900 0.961 . S
H2888 C2900 0.959 . S
H2889 C2903 0.929 . S
H2890 C2904 0.931 . S
H2891 C2906 0.930 . S
C2892 H2880 0.930 . S
C2892 C2893 1.399 . S
C2892 C2897 1.399 . S
C2893 C2892 1.399 . S
C2893 C2894 1.376 . S
C2894 H2881 0.930 . S
C2894 C2893 1.376 . S
C2894 C2895 1.388 . S
C2895 H2882 0.930 . S
C2895 C2894 1.388 . S
C2895 C2896 1.390 . S
C2896 C2895 1.390 . S
C2896 C2897 1.394 . S
C2896 C2902 1.465 . S
C2897 C2892 1.399 . S
C2897 C2896 1.394 . S
C2897 C2898 1.516 . S
C2898 C2897 1.516 . S
C2898 C2899 1.502 . S
C2898 C2900 1.561 . S
C2898 C2901 1.526 . S
C2899 H2883 0.959 . S
C2899 H2884 0.959 . S
C2899 H2885 0.961 . S
C2899 C2898 1.502 . S
C2900 H2886 0.960 . S
C2900 H2887 0.961 . S
C2900 H2888 0.959 . S
C2900 C2898 1.561 . S
C2901 C2898 1.526 . S
C2901 C2902 1.396 . S
C2901 C2906 1.390 . S
C2902 C2896 1.465 . S
C2902 C2901 1.396 . S
C2902 C2903 1.399 . S
C2903 H2889 0.929 . S
C2903 C2902 1.399 . S
C2903 C2904 1.385 . S
C2904 H2890 0.931 . S
C2904 C2903 1.385 . S
C2904 C2905 1.389 . S
C2905 C2904 1.389 . S
C2905 C2906 1.387 . S
C2906 H2891 0.930 . S
C2906 C2901 1.390 . S
C2906 C2905 1.387 . S
H2907 C2919 0.930 . S
H2908 C2921 0.930 . S
H2909 C2922 0.930 . S
H2910 C2926 0.959 . S
H2911 C2926 0.959 . S
H2912 C2926 0.961 . S
H2913 C2927 0.960 . S
H2914 C2927 0.961 . S
H2915 C2927 0.959 . S
H2916 C2930 0.929 . S
H2917 C2931 0.931 . S
H2918 C2933 0.930 . S
C2919 H2907 0.930 . S
C2919 C2920 1.399 . S
C2919 C2924 1.399 . S
C2920 C2919 1.399 . S
C2920 C2921 1.376 . S
C2921 H2908 0.930 . S
C2921 C2920 1.376 . S
C2921 C2922 1.388 . S
C2922 H2909 0.930 . S
C2922 C2921 1.388 . S
C2922 C2923 1.390 . S
C2923 C2922 1.390 . S
C2923 C2924 1.394 . S
C2923 C2929 1.465 . S
C2924 C2919 1.399 . S
C2924 C2923 1.394 . S
C2924 C2925 1.516 . S
C2925 C2924 1.516 . S
C2925 C2926 1.502 . S
C2925 C2927 1.561 . S
C2925 C2928 1.526 . S
C2926 H2910 0.959 . S
C2926 H2911 0.959 . S
C2926 H2912 0.961 . S
C2926 C2925 1.502 . S
C2927 H2913 0.960 . S
C2927 H2914 0.961 . S
C2927 H2915 0.959 . S
C2927 C2925 1.561 . S
C2928 C2925 1.526 . S
C2928 C2929 1.396 . S
C2928 C2933 1.390 . S
C2929 C2923 1.465 . S
C2929 C2928 1.396 . S
C2929 C2930 1.399 . S
C2930 H2916 0.929 . S
C2930 C2929 1.399 . S
C2930 C2931 1.385 . S
C2931 H2917 0.931 . S
C2931 C2930 1.385 . S
C2931 C2932 1.389 . S
C2932 C2931 1.389 . S
C2932 C2933 1.387 . S
C2933 H2918 0.930 . S
C2933 C2928 1.390 . S
C2933 C2932 1.387 . S
H2934 C2946 0.930 . S
H2935 C2948 0.930 . S
H2936 C2949 0.930 . S
H2937 C2953 0.959 . S
H2938 C2953 0.959 . S
H2939 C2953 0.961 . S
H2940 C2954 0.960 . S
H2941 C2954 0.961 . S
H2942 C2954 0.959 . S
H2943 C2957 0.929 . S
H2944 C2958 0.931 . S
H2945 C2960 0.930 . S
C2946 H2934 0.930 . S
C2946 C2947 1.399 . S
C2946 C2951 1.399 . S
C2947 C2946 1.399 . S
C2947 C2948 1.376 . S
C2948 H2935 0.930 . S
C2948 C2947 1.376 . S
C2948 C2949 1.388 . S
C2949 H2936 0.930 . S
C2949 C2948 1.388 . S
C2949 C2950 1.390 . S
C2950 C2949 1.390 . S
C2950 C2951 1.394 . S
C2950 C2956 1.465 . S
C2951 C2946 1.399 . S
C2951 C2950 1.394 . S
C2951 C2952 1.516 . S
C2952 C2951 1.516 . S
C2952 C2953 1.502 . S
C2952 C2954 1.561 . S
C2952 C2955 1.526 . S
C2953 H2937 0.959 . S
C2953 H2938 0.959 . S
C2953 H2939 0.961 . S
C2953 C2952 1.502 . S
C2954 H2940 0.960 . S
C2954 H2941 0.961 . S
C2954 H2942 0.959 . S
C2954 C2952 1.561 . S
C2955 C2952 1.526 . S
C2955 C2956 1.396 . S
C2955 C2960 1.390 . S
C2956 C2950 1.465 . S
C2956 C2955 1.396 . S
C2956 C2957 1.399 . S
C2957 H2943 0.929 . S
C2957 C2956 1.399 . S
C2957 C2958 1.385 . S
C2958 H2944 0.931 . S
C2958 C2957 1.385 . S
C2958 C2959 1.389 . S
C2959 C2958 1.389 . S
C2959 C2960 1.387 . S
C2960 H2945 0.930 . S
C2960 C2955 1.390 . S
C2960 C2959 1.387 . S
H2961 C2973 0.930 . S
H2962 C2975 0.930 . S
H2963 C2976 0.930 . S
H2964 C2980 0.959 . S
H2965 C2980 0.959 . S
H2966 C2980 0.961 . S
H2967 C2981 0.960 . S
H2968 C2981 0.961 . S
H2969 C2981 0.959 . S
H2970 C2984 0.929 . S
H2971 C2985 0.931 . S
H2972 C2987 0.930 . S
C2973 H2961 0.930 . S
C2973 C2974 1.399 . S
C2973 C2978 1.399 . S
C2974 C2973 1.399 . S
C2974 C2975 1.376 . S
C2975 H2962 0.930 . S
C2975 C2974 1.376 . S
C2975 C2976 1.388 . S
C2976 H2963 0.930 . S
C2976 C2975 1.388 . S
C2976 C2977 1.390 . S
C2977 C2976 1.390 . S
C2977 C2978 1.394 . S
C2977 C2983 1.465 . S
C2978 C2973 1.399 . S
C2978 C2977 1.394 . S
C2978 C2979 1.516 . S
C2979 C2978 1.516 . S
C2979 C2980 1.502 . S
C2979 C2981 1.561 . S
C2979 C2982 1.526 . S
C2980 H2964 0.959 . S
C2980 H2965 0.959 . S
C2980 H2966 0.961 . S
C2980 C2979 1.502 . S
C2981 H2967 0.960 . S
C2981 H2968 0.961 . S
C2981 H2969 0.959 . S
C2981 C2979 1.561 . S
C2982 C2979 1.526 . S
C2982 C2983 1.396 . S
C2982 C2987 1.390 . S
C2983 C2977 1.465 . S
C2983 C2982 1.396 . S
C2983 C2984 1.399 . S
C2984 H2970 0.929 . S
C2984 C2983 1.399 . S
C2984 C2985 1.385 . S
C2985 H2971 0.931 . S
C2985 C2984 1.385 . S
C2985 C2986 1.389 . S
C2986 C2985 1.389 . S
C2986 C2987 1.387 . S
C2987 H2972 0.930 . S
C2987 C2982 1.390 . S
C2987 C2986 1.387 . S
H2988 C3000 0.930 . S
H2989 C3002 0.930 . S
H2990 C3003 0.930 . S
H2991 C3007 0.959 . S
H2992 C3007 0.959 . S
H2993 C3007 0.961 . S
H2994 C3008 0.960 . S
H2995 C3008 0.961 . S
H2996 C3008 0.959 1_455 S
H2997 C3011 0.929 . S
H2998 C3012 0.931 . S
H2999 C3014 0.930 1_655 S
C3000 H2988 0.930 . S
C3000 C3001 1.399 . S
C3000 C3005 1.399 . S
C3001 C3000 1.399 . S
C3001 C3002 1.376 1_655 S
C3002 H2989 0.930 . S
C3002 C3001 1.376 1_455 S
C3002 C3003 1.388 . S
C3003 H2990 0.930 . S
C3003 C3002 1.388 . S
C3003 C3004 1.390 . S
C3004 C3003 1.390 . S
C3004 C3005 1.394 1_455 S
C3004 C3010 1.465 . S
C3005 C3000 1.399 . S
C3005 C3004 1.394 1_655 S
C3005 C3006 1.516 . S
C3006 C3005 1.516 . S
C3006 C3007 1.502 . S
C3006 C3008 1.561 . S
C3006 C3009 1.526 1_655 S
C3007 H2991 0.959 . S
C3007 H2992 0.959 . S
C3007 H2993 0.961 . S
C3007 C3006 1.502 . S
C3008 H2994 0.960 . S
C3008 H2995 0.961 . S
C3008 H2996 0.959 1_655 S
C3008 C3006 1.561 . S
C3009 C3006 1.526 1_455 S
C3009 C3010 1.396 . S
C3009 C3014 1.390 . S
C3010 C3004 1.465 . S
C3010 C3009 1.396 . S
C3010 C3011 1.399 . S
C3011 H2997 0.929 . S
C3011 C3010 1.399 . S
C3011 C3012 1.385 . S
C3012 H2998 0.931 . S
C3012 C3011 1.385 . S
C3012 C3013 1.389 . S
C3013 C3012 1.389 . S
C3013 C3014 1.387 . S
C3014 H2999 0.930 1_455 S
C3014 C3009 1.390 . S
C3014 C3013 1.387 . S
H3015 C3027 0.930 . S
H3016 C3029 0.930 . S
H3017 C3030 0.930 . S
H3018 C3034 0.959 . S
H3019 C3034 0.959 . S
H3020 C3034 0.961 . S
H3021 C3035 0.960 . S
H3022 C3035 0.961 . S
H3023 C3035 0.959 . S
H3024 C3038 0.929 . S
H3025 C3039 0.931 . S
H3026 C3041 0.930 . S
C3027 H3015 0.930 . S
C3027 C3028 1.399 . S
C3027 C3032 1.399 . S
C3028 C3027 1.399 . S
C3028 C3029 1.376 . S
C3029 H3016 0.930 . S
C3029 C3028 1.376 . S
C3029 C3030 1.388 . S
C3030 H3017 0.930 . S
C3030 C3029 1.388 . S
C3030 C3031 1.390 . S
C3031 C3030 1.390 . S
C3031 C3032 1.394 . S
C3031 C3037 1.465 . S
C3032 C3027 1.399 . S
C3032 C3031 1.394 . S
C3032 C3033 1.516 . S
C3033 C3032 1.516 . S
C3033 C3034 1.502 . S
C3033 C3035 1.561 . S
C3033 C3036 1.526 . S
C3034 H3018 0.959 . S
C3034 H3019 0.959 . S
C3034 H3020 0.961 . S
C3034 C3033 1.502 . S
C3035 H3021 0.960 . S
C3035 H3022 0.961 . S
C3035 H3023 0.959 . S
C3035 C3033 1.561 . S
C3036 C3033 1.526 . S
C3036 C3037 1.396 . S
C3036 C3041 1.390 . S
C3037 C3031 1.465 . S
C3037 C3036 1.396 . S
C3037 C3038 1.399 . S
C3038 H3024 0.929 . S
C3038 C3037 1.399 . S
C3038 C3039 1.385 . S
C3039 H3025 0.931 . S
C3039 C3038 1.385 . S
C3039 C3040 1.389 . S
C3040 C3039 1.389 . S
C3040 C3041 1.387 . S
C3041 H3026 0.930 . S
C3041 C3036 1.390 . S
C3041 C3040 1.387 . S
H3042 C3054 0.930 . S
H3043 C3056 0.930 . S
H3044 C3057 0.930 . S
H3045 C3061 0.959 . S
H3046 C3061 0.959 . S
H3047 C3061 0.961 . S
H3048 C3062 0.960 . S
H3049 C3062 0.961 . S
H3050 C3062 0.959 . S
H3051 C3065 0.929 . S
H3052 C3066 0.931 . S
H3053 C3068 0.930 1_545 S
C3054 H3042 0.930 . S
C3054 C3055 1.399 . S
C3054 C3059 1.399 . S
C3055 C3054 1.399 . S
C3055 C3056 1.376 1_545 S
C3056 H3043 0.930 . S
C3056 C3055 1.376 1_565 S
C3056 C3057 1.388 . S
C3057 H3044 0.930 . S
C3057 C3056 1.388 . S
C3057 C3058 1.390 . S
C3058 C3057 1.390 . S
C3058 C3059 1.394 1_565 S
C3058 C3064 1.465 . S
C3059 C3054 1.399 . S
C3059 C3058 1.394 1_545 S
C3059 C3060 1.516 . S
C3060 C3059 1.516 . S
C3060 C3061 1.502 . S
C3060 C3062 1.561 . S
C3060 C3063 1.526 . S
C3061 H3045 0.959 . S
C3061 H3046 0.959 . S
C3061 H3047 0.961 . S
C3061 C3060 1.502 . S
C3062 H3048 0.960 . S
C3062 H3049 0.961 . S
C3062 H3050 0.959 . S
C3062 C3060 1.561 . S
C3063 C3060 1.526 . S
C3063 C3064 1.396 1_545 S
C3063 C3068 1.390 1_545 S
C3064 C3058 1.465 . S
C3064 C3063 1.396 1_565 S
C3064 C3065 1.399 . S
C3065 H3051 0.929 . S
C3065 C3064 1.399 . S
C3065 C3066 1.385 . S
C3066 H3052 0.931 . S
C3066 C3065 1.385 . S
C3066 C3067 1.389 . S
C3067 C3066 1.389 . S
C3067 C3068 1.387 . S
C3068 H3053 0.930 1_565 S
C3068 C3063 1.390 1_565 S
C3068 C3067 1.387 . S
H3069 C3081 0.930 . S
H3070 C3083 0.930 . S
H3071 C3084 0.930 . S
H3072 C3088 0.959 1_545 S
H3073 C3088 0.959 . S
H3074 C3088 0.961 . S
H3075 C3089 0.960 . S
H3076 C3089 0.961 . S
H3077 C3089 0.959 . S
H3078 C3092 0.929 . S
H3079 C3093 0.928 . S
H3080 C3095 0.930 . S
C3081 H3069 0.930 . S
C3081 C3082 1.399 . S
C3081 C3086 1.405 . S
C3082 C3081 1.399 . S
C3082 C3083 1.376 . S
C3083 H3070 0.930 . S
C3083 C3082 1.376 . S
C3083 C3084 1.388 . S
C3084 H3071 0.930 . S
C3084 C3083 1.388 . S
C3084 C3085 1.390 . S
C3085 C3084 1.390 . S
C3085 C3086 1.393 . S
C3085 C3091 1.465 . S
C3086 C3081 1.405 . S
C3086 C3085 1.393 . S
C3086 C3087 1.510 1_545 S
C3087 C3086 1.510 1_565 S
C3087 C3088 1.502 . S
C3087 C3089 1.561 . S
C3087 C3090 1.526 . S
C3088 H3072 0.959 1_565 S
C3088 H3073 0.959 . S
C3088 H3074 0.961 . S
C3088 C3087 1.502 . S
C3089 H3075 0.960 . S
C3089 H3076 0.961 . S
C3089 H3077 0.959 . S
C3089 C3087 1.561 . S
C3090 C3087 1.526 . S
C3090 C3091 1.396 1_565 S
C3090 C3095 1.390 . S
C3091 C3085 1.465 . S
C3091 C3090 1.396 1_545 S
C3091 C3092 1.399 . S
C3092 H3078 0.929 . S
C3092 C3091 1.399 . S
C3092 C3093 1.385 1_545 S
C3093 H3079 0.928 . S
C3093 C3092 1.385 1_565 S
C3093 C3094 1.389 . S
C3094 C3093 1.389 . S
C3094 C3095 1.387 . S
C3095 H3080 0.930 . S
C3095 C3090 1.390 . S
C3095 C3094 1.387 . S
H3096 C3108 0.930 . S
H3097 C3110 0.930 . S
H3098 C3111 0.930 . S
H3099 C3115 0.959 . S
H3100 C3115 0.959 . S
H3101 C3115 0.961 . S
H3102 C3116 0.960 . S
H3103 C3116 0.961 . S
H3104 C3116 0.959 . S
H3105 C3119 0.929 . S
H3106 C3120 0.931 . S
H3107 C3122 0.930 . S
C3108 H3096 0.930 . S
C3108 C3109 1.399 . S
C3108 C3113 1.399 . S
C3109 C3108 1.399 . S
C3109 C3110 1.376 . S
C3110 H3097 0.930 . S
C3110 C3109 1.376 . S
C3110 C3111 1.388 . S
C3111 H3098 0.930 . S
C3111 C3110 1.388 . S
C3111 C3112 1.384 . S
C3112 C3111 1.384 . S
C3112 C3113 1.412 . S
C3112 C3118 1.457 1_455 S
C3113 C3108 1.399 . S
C3113 C3112 1.412 . S
C3113 C3114 1.516 1_455 S
C3114 C3113 1.516 1_655 S
C3114 C3115 1.502 1_655 S
C3114 C3116 1.561 . S
C3114 C3117 1.526 . S
C3115 H3099 0.959 . S
C3115 H3100 0.959 . S
C3115 H3101 0.961 . S
C3115 C3114 1.502 1_455 S
C3116 H3102 0.960 . S
C3116 H3103 0.961 . S
C3116 H3104 0.959 . S
C3116 C3114 1.561 . S
C3117 C3114 1.526 . S
C3117 C3118 1.396 . S
C3117 C3122 1.390 . S
C3118 C3112 1.457 1_655 S
C3118 C3117 1.396 . S
C3118 C3119 1.399 . S
C3119 H3105 0.929 . S
C3119 C3118 1.399 . S
C3119 C3120 1.385 . S
C3120 H3106 0.931 . S
C3120 C3119 1.385 . S
C3120 C3121 1.389 . S
C3121 C3120 1.389 . S
C3121 C3122 1.387 . S
C3122 H3107 0.930 . S
C3122 C3117 1.390 . S
C3122 C3121 1.387 . S
H3123 C3135 0.930 . S
H3124 C3137 0.930 . S
H3125 C3138 0.930 . S
H3126 C3142 0.959 . S
H3127 C3142 0.959 . S
H3128 C3142 0.961 . S
H3129 C3143 0.960 . S
H3130 C3143 0.961 . S
H3131 C3143 0.959 . S
H3132 C3146 0.929 . S
H3133 C3147 0.931 . S
H3134 C3149 0.930 . S
C3135 H3123 0.930 . S
C3135 C3136 1.399 . S
C3135 C3140 1.399 . S
C3136 C3135 1.399 . S
C3136 C3137 1.376 . S
C3137 H3124 0.930 . S
C3137 C3136 1.376 . S
C3137 C3138 1.388 . S
C3138 H3125 0.930 . S
C3138 C3137 1.388 . S
C3138 C3139 1.390 . S
C3139 C3138 1.390 . S
C3139 C3140 1.394 . S
C3139 C3145 1.465 . S
C3140 C3135 1.399 . S
C3140 C3139 1.394 . S
C3140 C3141 1.516 . S
C3141 C3140 1.516 . S
C3141 C3142 1.502 . S
C3141 C3143 1.561 . S
C3141 C3144 1.526 . S
C3142 H3126 0.959 . S
C3142 H3127 0.959 . S
C3142 H3128 0.961 . S
C3142 C3141 1.502 . S
C3143 H3129 0.960 . S
C3143 H3130 0.961 . S
C3143 H3131 0.959 . S
C3143 C3141 1.561 . S
C3144 C3141 1.526 . S
C3144 C3145 1.396 . S
C3144 C3149 1.390 . S
C3145 C3139 1.465 . S
C3145 C3144 1.396 . S
C3145 C3146 1.399 . S
C3146 H3132 0.929 . S
C3146 C3145 1.399 . S
C3146 C3147 1.385 . S
C3147 H3133 0.931 . S
C3147 C3146 1.385 . S
C3147 C3148 1.389 . S
C3148 C3147 1.389 . S
C3148 C3149 1.387 . S
C3149 H3134 0.930 . S
C3149 C3144 1.390 . S
C3149 C3148 1.387 . S
H3150 C3162 0.930 . S
H3151 C3164 0.930 . S
H3152 C3165 0.930 . S
H3153 C3169 0.959 . S
H3154 C3169 0.959 . S
H3155 C3169 0.961 . S
H3156 C3170 0.960 . S
H3157 C3170 0.961 . S
H3158 C3170 0.959 . S
H3159 C3173 0.929 1_655 S
H3160 C3174 0.931 . S
H3161 C3176 0.930 . S
C3162 H3150 0.930 . S
C3162 C3163 1.399 . S
C3162 C3167 1.399 . S
C3163 C3162 1.399 . S
C3163 C3164 1.376 . S
C3164 H3151 0.930 . S
C3164 C3163 1.376 . S
C3164 C3165 1.388 . S
C3165 H3152 0.930 . S
C3165 C3164 1.388 . S
C3165 C3166 1.390 . S
C3166 C3165 1.390 . S
C3166 C3167 1.394 . S
C3166 C3172 1.465 1_655 S
C3167 C3162 1.399 . S
C3167 C3166 1.394 . S
C3167 C3168 1.516 1_655 S
C3168 C3167 1.516 1_455 S
C3168 C3169 1.502 . S
C3168 C3170 1.561 . S
C3168 C3171 1.526 . S
C3169 H3153 0.959 . S
C3169 H3154 0.959 . S
C3169 H3155 0.961 . S
C3169 C3168 1.502 . S
C3170 H3156 0.960 . S
C3170 H3157 0.961 . S
C3170 H3158 0.959 . S
C3170 C3168 1.561 . S
C3171 C3168 1.526 . S
C3171 C3172 1.396 . S
C3171 C3176 1.390 . S
C3172 C3166 1.465 1_455 S
C3172 C3171 1.396 . S
C3172 C3173 1.399 . S
C3173 H3159 0.929 1_455 S
C3173 C3172 1.399 . S
C3173 C3174 1.385 . S
C3174 H3160 0.931 . S
C3174 C3173 1.385 . S
C3174 C3175 1.389 . S
C3175 C3174 1.389 . S
C3175 C3176 1.387 . S
C3176 H3161 0.930 . S
C3176 C3171 1.390 . S
C3176 C3175 1.387 . S
H3177 C3189 0.930 . S
H3178 C3191 0.930 . S
H3179 C3192 0.930 . S
H3180 C3196 0.959 . S
H3181 C3196 0.959 . S
H3182 C3196 0.961 . S
H3183 C3197 0.960 . S
H3184 C3197 0.961 . S
H3185 C3197 0.959 . S
H3186 C3200 0.929 . S
H3187 C3201 0.931 . S
H3188 C3203 0.930 . S
C3189 H3177 0.930 . S
C3189 C3190 1.399 . S
C3189 C3194 1.399 . S
C3190 C3189 1.399 . S
C3190 C3191 1.376 . S
C3191 H3178 0.930 . S
C3191 C3190 1.376 . S
C3191 C3192 1.388 . S
C3192 H3179 0.930 . S
C3192 C3191 1.388 . S
C3192 C3193 1.390 . S
C3193 C3192 1.390 . S
C3193 C3194 1.394 . S
C3193 C3199 1.465 . S
C3194 C3189 1.399 . S
C3194 C3193 1.394 . S
C3194 C3195 1.516 . S
C3195 C3194 1.516 . S
C3195 C3196 1.502 . S
C3195 C3197 1.561 . S
C3195 C3198 1.526 . S
C3196 H3180 0.959 . S
C3196 H3181 0.959 . S
C3196 H3182 0.961 . S
C3196 C3195 1.502 . S
C3197 H3183 0.960 . S
C3197 H3184 0.961 . S
C3197 H3185 0.959 . S
C3197 C3195 1.561 . S
C3198 C3195 1.526 . S
C3198 C3199 1.396 . S
C3198 C3203 1.390 . S
C3199 C3193 1.465 . S
C3199 C3198 1.396 . S
C3199 C3200 1.399 . S
C3200 H3186 0.929 . S
C3200 C3199 1.399 . S
C3200 C3201 1.385 . S
C3201 H3187 0.931 . S
C3201 C3200 1.385 . S
C3201 C3202 1.389 . S
C3202 C3201 1.389 . S
C3202 C3203 1.387 . S
C3203 H3188 0.930 . S
C3203 C3198 1.390 . S
C3203 C3202 1.387 . S
H3204 C3216 0.930 . S
H3205 C3218 0.930 . S
H3206 C3219 0.930 . S
H3207 C3223 0.957 1_565 S
H3208 C3223 0.959 . S
H3209 C3223 0.961 . S
H3210 C3224 0.960 . S
H3211 C3224 0.961 . S
H3212 C3224 0.959 . S
H3213 C3227 0.929 . S
H3214 C3228 0.931 . S
H3215 C3230 0.930 . S
C3216 H3204 0.930 . S
C3216 C3217 1.399 . S
C3216 C3221 1.399 . S
C3217 C3216 1.399 . S
C3217 C3218 1.376 . S
C3218 H3205 0.930 . S
C3218 C3217 1.376 . S
C3218 C3219 1.388 . S
C3219 H3206 0.930 . S
C3219 C3218 1.388 . S
C3219 C3220 1.390 . S
C3220 C3219 1.390 . S
C3220 C3221 1.394 . S
C3220 C3226 1.465 1_545 S
C3221 C3216 1.399 . S
C3221 C3220 1.394 . S
C3221 C3222 1.516 . S
C3222 C3221 1.516 . S
C3222 C3223 1.502 . S
C3222 C3224 1.561 . S
C3222 C3225 1.526 1_545 S
C3223 H3207 0.957 1_545 S
C3223 H3208 0.959 . S
C3223 H3209 0.961 . S
C3223 C3222 1.502 . S
C3224 H3210 0.960 . S
C3224 H3211 0.961 . S
C3224 H3212 0.959 . S
C3224 C3222 1.561 . S
C3225 C3222 1.526 1_565 S
C3225 C3226 1.396 . S
C3225 C3230 1.390 . S
C3226 C3220 1.465 1_565 S
C3226 C3225 1.396 . S
C3226 C3227 1.399 . S
C3227 H3213 0.929 . S
C3227 C3226 1.399 . S
C3227 C3228 1.385 . S
C3228 H3214 0.931 . S
C3228 C3227 1.385 . S
C3228 C3229 1.389 . S
C3229 C3228 1.389 . S
C3229 C3230 1.387 . S
C3230 H3215 0.930 . S
C3230 C3225 1.390 . S
C3230 C3229 1.387 . S
H3231 C3243 0.930 . S
H3232 C3245 0.930 . S
H3233 C3246 0.930 . S
H3234 C3250 0.959 . S
H3235 C3250 0.959 . S
H3236 C3250 0.961 1_655 S
H3237 C3251 0.960 . S
H3238 C3251 0.961 . S
H3239 C3251 0.959 . S
H3240 C3254 0.929 . S
H3241 C3255 0.931 . S
H3242 C3257 0.930 . S
C3243 H3231 0.930 . S
C3243 C3244 1.399 . S
C3243 C3248 1.399 . S
C3244 C3243 1.399 . S
C3244 C3245 1.376 . S
C3245 H3232 0.930 . S
C3245 C3244 1.376 . S
C3245 C3246 1.388 . S
C3246 H3233 0.930 . S
C3246 C3245 1.388 . S
C3246 C3247 1.390 . S
C3247 C3246 1.390 . S
C3247 C3248 1.394 . S
C3247 C3253 1.465 1_655 S
C3248 C3243 1.399 . S
C3248 C3247 1.394 . S
C3248 C3249 1.516 . S
C3249 C3248 1.516 . S
C3249 C3250 1.502 1_655 S
C3249 C3251 1.561 . S
C3249 C3252 1.526 1_655 S
C3250 H3234 0.959 . S
C3250 H3235 0.959 . S
C3250 H3236 0.961 1_455 S
C3250 C3249 1.502 1_455 S
C3251 H3237 0.960 . S
C3251 H3238 0.961 . S
C3251 H3239 0.959 . S
C3251 C3249 1.561 . S
C3252 C3249 1.526 1_455 S
C3252 C3253 1.396 . S
C3252 C3257 1.390 . S
C3253 C3247 1.465 1_455 S
C3253 C3252 1.396 . S
C3253 C3254 1.399 . S
C3254 H3240 0.929 . S
C3254 C3253 1.399 . S
C3254 C3255 1.385 . S
C3255 H3241 0.931 . S
C3255 C3254 1.385 . S
C3255 C3256 1.389 . S
C3256 C3255 1.389 . S
C3256 C3257 1.387 . S
C3257 H3242 0.930 . S
C3257 C3252 1.390 . S
C3257 C3256 1.387 . S
H3258 C3270 0.930 . S
H3259 C3272 0.930 . S
H3260 C3273 0.930 . S
H3261 C3277 0.959 . S
H3262 C3277 0.959 . S
H3263 C3277 0.961 . S
H3264 C3278 0.960 . S
H3265 C3278 0.961 . S
H3266 C3278 0.959 . S
H3267 C3281 0.929 . S
H3268 C3282 0.931 . S
H3269 C3284 0.930 . S
C3270 H3258 0.930 . S
C3270 C3271 1.399 . S
C3270 C3275 1.399 . S
C3271 C3270 1.399 . S
C3271 C3272 1.376 . S
C3272 H3259 0.930 . S
C3272 C3271 1.376 . S
C3272 C3273 1.388 . S
C3273 H3260 0.930 . S
C3273 C3272 1.388 . S
C3273 C3274 1.390 . S
C3274 C3273 1.390 . S
C3274 C3275 1.394 . S
C3274 C3280 1.465 . S
C3275 C3270 1.399 . S
C3275 C3274 1.394 . S
C3275 C3276 1.516 . S
C3276 C3275 1.516 . S
C3276 C3277 1.502 . S
C3276 C3278 1.561 . S
C3276 C3279 1.526 . S
C3277 H3261 0.959 . S
C3277 H3262 0.959 . S
C3277 H3263 0.961 . S
C3277 C3276 1.502 . S
C3278 H3264 0.960 . S
C3278 H3265 0.961 . S
C3278 H3266 0.959 . S
C3278 C3276 1.561 . S
C3279 C3276 1.526 . S
C3279 C3280 1.396 . S
C3279 C3284 1.390 . S
C3280 C3274 1.465 . S
C3280 C3279 1.396 . S
C3280 C3281 1.399 . S
C3281 H3267 0.929 . S
C3281 C3280 1.399 . S
C3281 C3282 1.385 . S
C3282 H3268 0.931 . S
C3282 C3281 1.385 . S
C3282 C3283 1.389 . S
C3283 C3282 1.389 . S
C3283 C3284 1.387 . S
C3284 H3269 0.930 . S
C3284 C3279 1.390 . S
C3284 C3283 1.387 . S
H3285 C3297 0.930 . S
H3286 C3299 0.930 . S
H3287 C3300 0.930 1_565 S
H3288 C3304 0.959 . S
H3289 C3304 0.959 . S
H3290 C3304 0.961 . S
H3291 C3305 0.960 . S
H3292 C3305 0.961 . S
H3293 C3305 0.959 . S
H3294 C3308 0.929 . S
H3295 C3309 0.931 . S
H3296 C3311 0.930 . S
C3297 H3285 0.930 . S
C3297 C3298 1.399 . S
C3297 C3302 1.399 . S
C3298 C3297 1.399 . S
C3298 C3299 1.376 . S
C3299 H3286 0.930 . S
C3299 C3298 1.376 . S
C3299 C3300 1.388 . S
C3300 H3287 0.930 1_545 S
C3300 C3299 1.388 . S
C3300 C3301 1.390 . S
C3301 C3300 1.390 . S
C3301 C3302 1.394 . S
C3301 C3307 1.465 1_545 S
C3302 C3297 1.399 . S
C3302 C3301 1.394 . S
C3302 C3303 1.516 . S
C3303 C3302 1.516 . S
C3303 C3304 1.502 . S
C3303 C3305 1.561 . S
C3303 C3306 1.526 1_545 S
C3304 H3288 0.959 . S
C3304 H3289 0.959 . S
C3304 H3290 0.961 . S
C3304 C3303 1.502 . S
C3305 H3291 0.960 . S
C3305 H3292 0.961 . S
C3305 H3293 0.959 . S
C3305 C3303 1.561 . S
C3306 C3303 1.526 1_565 S
C3306 C3307 1.396 . S
C3306 C3311 1.390 . S
C3307 C3301 1.465 1_565 S
C3307 C3306 1.396 . S
C3307 C3308 1.399 . S
C3308 H3294 0.929 . S
C3308 C3307 1.399 . S
C3308 C3309 1.385 . S
C3309 H3295 0.931 . S
C3309 C3308 1.385 . S
C3309 C3310 1.389 . S
C3310 C3309 1.389 . S
C3310 C3311 1.387 . S
C3311 H3296 0.930 . S
C3311 C3306 1.390 . S
C3311 C3310 1.387 . S
H3312 C3324 0.930 . S
H3313 C3326 0.930 . S
H3314 C3327 0.930 . S
H3315 C3331 0.959 . S
H3316 C3331 0.959 . S
H3317 C3331 0.961 . S
H3318 C3332 0.960 . S
H3319 C3332 0.961 . S
H3320 C3332 0.959 . S
H3321 C3335 0.929 . S
H3322 C3336 0.931 . S
H3323 C3338 0.930 . S
C3324 H3312 0.930 . S
C3324 C3325 1.399 . S
C3324 C3329 1.399 . S
C3325 C3324 1.399 . S
C3325 C3326 1.376 . S
C3326 H3313 0.930 . S
C3326 C3325 1.376 . S
C3326 C3327 1.388 . S
C3327 H3314 0.930 . S
C3327 C3326 1.388 . S
C3327 C3328 1.390 . S
C3328 C3327 1.390 . S
C3328 C3329 1.394 . S
C3328 C3334 1.465 . S
C3329 C3324 1.399 . S
C3329 C3328 1.394 . S
C3329 C3330 1.516 . S
C3330 C3329 1.516 . S
C3330 C3331 1.502 . S
C3330 C3332 1.561 . S
C3330 C3333 1.526 . S
C3331 H3315 0.959 . S
C3331 H3316 0.959 . S
C3331 H3317 0.961 . S
C3331 C3330 1.502 . S
C3332 H3318 0.960 . S
C3332 H3319 0.961 . S
C3332 H3320 0.959 . S
C3332 C3330 1.561 . S
C3333 C3330 1.526 . S
C3333 C3334 1.396 . S
C3333 C3338 1.390 . S
C3334 C3328 1.465 . S
C3334 C3333 1.396 . S
C3334 C3335 1.399 . S
C3335 H3321 0.929 . S
C3335 C3334 1.399 . S
C3335 C3336 1.385 . S
C3336 H3322 0.931 . S
C3336 C3335 1.385 . S
C3336 C3337 1.389 . S
C3337 C3336 1.389 . S
C3337 C3338 1.387 . S
C3338 H3323 0.930 . S
C3338 C3333 1.390 . S
C3338 C3337 1.387 . S
H3339 C3351 0.930 . S
H3340 C3353 0.930 . S
H3341 C3354 0.930 . S
H3342 C3358 0.959 . S
H3343 C3358 0.959 . S
H3344 C3358 0.961 . S
H3345 C3359 0.960 . S
H3346 C3359 0.961 . S
H3347 C3359 0.959 . S
H3348 C3362 0.929 . S
H3349 C3363 0.931 . S
H3350 C3365 0.930 . S
C3351 H3339 0.930 . S
C3351 C3352 1.399 . S
C3351 C3356 1.399 . S
C3352 C3351 1.399 . S
C3352 C3353 1.376 . S
C3353 H3340 0.930 . S
C3353 C3352 1.376 . S
C3353 C3354 1.388 . S
C3354 H3341 0.930 . S
C3354 C3353 1.388 . S
C3354 C3355 1.390 . S
C3355 C3354 1.390 . S
C3355 C3356 1.394 . S
C3355 C3361 1.465 . S
C3356 C3351 1.399 . S
C3356 C3355 1.394 . S
C3356 C3357 1.516 . S
C3357 C3356 1.516 . S
C3357 C3358 1.502 . S
C3357 C3359 1.561 . S
C3357 C3360 1.526 . S
C3358 H3342 0.959 . S
C3358 H3343 0.959 . S
C3358 H3344 0.961 . S
C3358 C3357 1.502 . S
C3359 H3345 0.960 . S
C3359 H3346 0.961 . S
C3359 H3347 0.959 . S
C3359 C3357 1.561 . S
C3360 C3357 1.526 . S
C3360 C3361 1.396 . S
C3360 C3365 1.390 . S
C3361 C3355 1.465 . S
C3361 C3360 1.396 . S
C3361 C3362 1.399 . S
C3362 H3348 0.929 . S
C3362 C3361 1.399 . S
C3362 C3363 1.385 . S
C3363 H3349 0.931 . S
C3363 C3362 1.385 . S
C3363 C3364 1.389 . S
C3364 C3363 1.389 . S
C3364 C3365 1.387 . S
C3365 H3350 0.930 . S
C3365 C3360 1.390 . S
C3365 C3364 1.387 . S
H3366 C3378 0.930 . S
H3367 C3380 0.930 . S
H3368 C3381 0.930 . S
H3369 C3385 0.959 . S
H3370 C3385 0.959 . S
H3371 C3385 0.961 . S
H3372 C3386 0.960 . S
H3373 C3386 0.961 . S
H3374 C3386 0.959 . S
H3375 C3389 0.929 . S
H3376 C3390 0.931 . S
H3377 C3392 0.930 . S
C3378 H3366 0.930 . S
C3378 C3379 1.399 . S
C3378 C3383 1.399 . S
C3379 C3378 1.399 . S
C3379 C3380 1.376 . S
C3380 H3367 0.930 . S
C3380 C3379 1.376 . S
C3380 C3381 1.388 . S
C3381 H3368 0.930 . S
C3381 C3380 1.388 . S
C3381 C3382 1.390 . S
C3382 C3381 1.390 . S
C3382 C3383 1.394 . S
C3382 C3388 1.465 . S
C3383 C3378 1.399 . S
C3383 C3382 1.394 . S
C3383 C3384 1.516 . S
C3384 C3383 1.516 . S
C3384 C3385 1.502 . S
C3384 C3386 1.561 . S
C3384 C3387 1.526 . S
C3385 H3369 0.959 . S
C3385 H3370 0.959 . S
C3385 H3371 0.961 . S
C3385 C3384 1.502 . S
C3386 H3372 0.960 . S
C3386 H3373 0.961 . S
C3386 H3374 0.959 . S
C3386 C3384 1.561 . S
C3387 C3384 1.526 . S
C3387 C3388 1.396 . S
C3387 C3392 1.390 . S
C3388 C3382 1.465 . S
C3388 C3387 1.396 . S
C3388 C3389 1.399 . S
C3389 H3375 0.929 . S
C3389 C3388 1.399 . S
C3389 C3390 1.385 . S
C3390 H3376 0.931 . S
C3390 C3389 1.385 . S
C3390 C3391 1.389 . S
C3391 C3390 1.389 . S
C3391 C3392 1.387 . S
C3392 H3377 0.930 . S
C3392 C3387 1.390 . S
C3392 C3391 1.387 . S
H3393 C3405 0.930 . S
H3394 C3407 0.930 . S
H3395 C3408 0.930 . S
H3396 C3412 0.959 . S
H3397 C3412 0.959 . S
H3398 C3412 0.961 . S
H3399 C3413 0.960 . S
H3400 C3413 0.961 . S
H3401 C3413 0.959 . S
H3402 C3416 0.929 . S
H3403 C3417 0.931 . S
H3404 C3419 0.930 . S
C3405 H3393 0.930 . S
C3405 C3406 1.399 . S
C3405 C3410 1.399 . S
C3406 C3405 1.399 . S
C3406 C3407 1.376 . S
C3407 H3394 0.930 . S
C3407 C3406 1.376 . S
C3407 C3408 1.388 . S
C3408 H3395 0.930 . S
C3408 C3407 1.388 . S
C3408 C3409 1.390 . S
C3409 C3408 1.390 . S
C3409 C3410 1.394 . S
C3409 C3415 1.465 . S
C3410 C3405 1.399 . S
C3410 C3409 1.394 . S
C3410 C3411 1.516 . S
C3411 C3410 1.516 . S
C3411 C3412 1.502 . S
C3411 C3413 1.561 . S
C3411 C3414 1.526 . S
C3412 H3396 0.959 . S
C3412 H3397 0.959 . S
C3412 H3398 0.961 . S
C3412 C3411 1.502 . S
C3413 H3399 0.960 . S
C3413 H3400 0.961 . S
C3413 H3401 0.959 . S
C3413 C3411 1.561 . S
C3414 C3411 1.526 . S
C3414 C3415 1.396 . S
C3414 C3419 1.390 . S
C3415 C3409 1.465 . S
C3415 C3414 1.396 . S
C3415 C3416 1.399 . S
C3416 H3402 0.929 . S
C3416 C3415 1.399 . S
C3416 C3417 1.385 . S
C3417 H3403 0.931 . S
C3417 C3416 1.385 . S
C3417 C3418 1.389 . S
C3418 C3417 1.389 . S
C3418 C3419 1.387 . S
C3419 H3404 0.930 . S
C3419 C3414 1.390 . S
C3419 C3418 1.387 . S
H3420 C3432 0.930 . S
H3421 C3434 0.930 . S
H3422 C3435 0.930 . S
H3423 C3439 0.959 . S
H3424 C3439 0.959 . S
H3425 C3439 0.961 . S
H3426 C3440 0.960 . S
H3427 C3440 0.961 . S
H3428 C3440 0.959 . S
H3429 C3443 0.929 . S
H3430 C3444 0.931 . S
H3431 C3446 0.930 . S
C3432 H3420 0.930 . S
C3432 C3433 1.399 . S
C3432 C3437 1.399 . S
C3433 C3432 1.399 . S
C3433 C3434 1.376 . S
C3434 H3421 0.930 . S
C3434 C3433 1.376 . S
C3434 C3435 1.388 . S
C3435 H3422 0.930 . S
C3435 C3434 1.388 . S
C3435 C3436 1.390 . S
C3436 C3435 1.390 . S
C3436 C3437 1.394 . S
C3436 C3442 1.465 . S
C3437 C3432 1.399 . S
C3437 C3436 1.394 . S
C3437 C3438 1.516 . S
C3438 C3437 1.516 . S
C3438 C3439 1.502 . S
C3438 C3440 1.561 . S
C3438 C3441 1.526 . S
C3439 H3423 0.959 . S
C3439 H3424 0.959 . S
C3439 H3425 0.961 . S
C3439 C3438 1.502 . S
C3440 H3426 0.960 . S
C3440 H3427 0.961 . S
C3440 H3428 0.959 . S
C3440 C3438 1.561 . S
C3441 C3438 1.526 . S
C3441 C3442 1.396 . S
C3441 C3446 1.390 . S
C3442 C3436 1.465 . S
C3442 C3441 1.396 . S
C3442 C3443 1.399 . S
C3443 H3429 0.929 . S
C3443 C3442 1.399 . S
C3443 C3444 1.385 . S
C3444 H3430 0.931 . S
C3444 C3443 1.385 . S
C3444 C3445 1.389 . S
C3445 C3444 1.389 . S
C3445 C3446 1.387 . S
C3446 H3431 0.930 . S
C3446 C3441 1.390 . S
C3446 C3445 1.387 . S
H3447 C3459 0.930 . S
H3448 C3461 0.930 . S
H3449 C3462 0.930 . S
H3450 C3466 0.959 . S
H3451 C3466 0.959 . S
H3452 C3466 0.961 . S
H3453 C3467 0.960 . S
H3454 C3467 0.961 . S
H3455 C3467 0.959 . S
H3456 C3470 0.929 . S
H3457 C3471 0.931 . S
H3458 C3473 0.930 . S
C3459 H3447 0.930 . S
C3459 C3460 1.399 . S
C3459 C3464 1.399 . S
C3460 C3459 1.399 . S
C3460 C3461 1.376 . S
C3461 H3448 0.930 . S
C3461 C3460 1.376 . S
C3461 C3462 1.388 . S
C3462 H3449 0.930 . S
C3462 C3461 1.388 . S
C3462 C3463 1.390 . S
C3463 C3462 1.390 . S
C3463 C3464 1.394 . S
C3463 C3469 1.465 . S
C3464 C3459 1.399 . S
C3464 C3463 1.394 . S
C3464 C3465 1.516 . S
C3465 C3464 1.516 . S
C3465 C3466 1.502 . S
C3465 C3467 1.561 . S
C3465 C3468 1.526 . S
C3466 H3450 0.959 . S
C3466 H3451 0.959 . S
C3466 H3452 0.961 . S
C3466 C3465 1.502 . S
C3467 H3453 0.960 . S
C3467 H3454 0.961 . S
C3467 H3455 0.959 . S
C3467 C3465 1.561 . S
C3468 C3465 1.526 . S
C3468 C3469 1.396 . S
C3468 C3473 1.390 . S
C3469 C3463 1.465 . S
C3469 C3468 1.396 . S
C3469 C3470 1.399 . S
C3470 H3456 0.929 . S
C3470 C3469 1.399 . S
C3470 C3471 1.385 . S
C3471 H3457 0.931 . S
C3471 C3470 1.385 . S
C3471 C3472 1.389 . S
C3472 C3471 1.389 . S
C3472 C3473 1.387 . S
C3473 H3458 0.930 . S
C3473 C3468 1.390 . S
C3473 C3472 1.387 . S
H3474 C3486 0.930 . S
H3475 C3488 0.930 . S
H3476 C3489 0.930 . S
H3477 C3493 0.959 . S
H3478 C3493 0.959 . S
H3479 C3493 0.961 . S
H3480 C3494 0.960 . S
H3481 C3494 0.961 . S
H3482 C3494 0.959 . S
H3483 C3497 0.929 . S
H3484 C3498 0.931 . S
H3485 C3500 0.930 . S
C3486 H3474 0.930 . S
C3486 C3487 1.399 . S
C3486 C3491 1.399 . S
C3487 C3486 1.399 . S
C3487 C3488 1.376 . S
C3488 H3475 0.930 . S
C3488 C3487 1.376 . S
C3488 C3489 1.388 . S
C3489 H3476 0.930 . S
C3489 C3488 1.388 . S
C3489 C3490 1.390 . S
C3490 C3489 1.390 . S
C3490 C3491 1.394 . S
C3490 C3496 1.465 . S
C3491 C3486 1.399 . S
C3491 C3490 1.394 . S
C3491 C3492 1.516 . S
C3492 C3491 1.516 . S
C3492 C3493 1.502 . S
C3492 C3494 1.561 . S
C3492 C3495 1.526 . S
C3493 H3477 0.959 . S
C3493 H3478 0.959 . S
C3493 H3479 0.961 . S
C3493 C3492 1.502 . S
C3494 H3480 0.960 . S
C3494 H3481 0.961 . S
C3494 H3482 0.959 . S
C3494 C3492 1.561 . S
C3495 C3492 1.526 . S
C3495 C3496 1.396 . S
C3495 C3500 1.390 . S
C3496 C3490 1.465 . S
C3496 C3495 1.396 . S
C3496 C3497 1.399 . S
C3497 H3483 0.929 . S
C3497 C3496 1.399 . S
C3497 C3498 1.385 . S
C3498 H3484 0.931 . S
C3498 C3497 1.385 . S
C3498 C3499 1.389 . S
C3499 C3498 1.389 . S
C3499 C3500 1.387 . S
C3500 H3485 0.930 . S
C3500 C3495 1.390 . S
C3500 C3499 1.387 . S
H3501 C3513 0.930 . S
H3502 C3515 0.930 . S
H3503 C3516 0.930 . S
H3504 C3520 0.959 . S
H3505 C3520 0.959 . S
H3506 C3520 0.961 . S
H3507 C3521 0.960 . S
H3508 C3521 0.961 . S
H3509 C3521 0.959 . S
H3510 C3524 0.929 . S
H3511 C3525 0.931 . S
H3512 C3527 0.930 . S
C3513 H3501 0.930 . S
C3513 C3514 1.399 . S
C3513 C3518 1.399 . S
C3514 C3513 1.399 . S
C3514 C3515 1.376 . S
C3515 H3502 0.930 . S
C3515 C3514 1.376 . S
C3515 C3516 1.388 . S
C3516 H3503 0.930 . S
C3516 C3515 1.388 . S
C3516 C3517 1.390 . S
C3517 C3516 1.390 . S
C3517 C3518 1.394 . S
C3517 C3523 1.465 . S
C3518 C3513 1.399 . S
C3518 C3517 1.394 . S
C3518 C3519 1.516 . S
C3519 C3518 1.516 . S
C3519 C3520 1.502 . S
C3519 C3521 1.561 . S
C3519 C3522 1.526 . S
C3520 H3504 0.959 . S
C3520 H3505 0.959 . S
C3520 H3506 0.961 . S
C3520 C3519 1.502 . S
C3521 H3507 0.960 . S
C3521 H3508 0.961 . S
C3521 H3509 0.959 . S
C3521 C3519 1.561 . S
C3522 C3519 1.526 . S
C3522 C3523 1.396 . S
C3522 C3527 1.390 . S
C3523 C3517 1.465 . S
C3523 C3522 1.396 . S
C3523 C3524 1.399 . S
C3524 H3510 0.929 . S
C3524 C3523 1.399 . S
C3524 C3525 1.385 . S
C3525 H3511 0.931 . S
C3525 C3524 1.385 . S
C3525 C3526 1.389 . S
C3526 C3525 1.389 . S
C3526 C3527 1.387 . S
C3527 H3512 0.930 . S
C3527 C3522 1.390 . S
C3527 C3526 1.387 . S
H3528 C3540 0.930 . S
H3529 C3542 0.930 . S
H3530 C3543 0.930 . S
H3531 C3547 0.959 . S
H3532 C3547 0.959 . S
H3533 C3547 0.961 . S
H3534 C3548 0.960 . S
H3535 C3548 0.961 . S
H3536 C3548 0.959 . S
H3537 C3551 0.929 . S
H3538 C3552 0.931 . S
H3539 C3554 0.930 . S
C3540 H3528 0.930 . S
C3540 C3541 1.399 . S
C3540 C3545 1.399 . S
C3541 C3540 1.399 . S
C3541 C3542 1.376 . S
C3542 H3529 0.930 . S
C3542 C3541 1.376 . S
C3542 C3543 1.388 . S
C3543 H3530 0.930 . S
C3543 C3542 1.388 . S
C3543 C3544 1.390 . S
C3544 C3543 1.390 . S
C3544 C3545 1.394 . S
C3544 C3550 1.465 . S
C3545 C3540 1.399 . S
C3545 C3544 1.394 . S
C3545 C3546 1.516 . S
C3546 C3545 1.516 . S
C3546 C3547 1.502 . S
C3546 C3548 1.561 . S
C3546 C3549 1.526 . S
C3547 H3531 0.959 . S
C3547 H3532 0.959 . S
C3547 H3533 0.961 . S
C3547 C3546 1.502 . S
C3548 H3534 0.960 . S
C3548 H3535 0.961 . S
C3548 H3536 0.959 . S
C3548 C3546 1.561 . S
C3549 C3546 1.526 . S
C3549 C3550 1.396 . S
C3549 C3554 1.390 . S
C3550 C3544 1.465 . S
C3550 C3549 1.396 . S
C3550 C3551 1.399 . S
C3551 H3537 0.929 . S
C3551 C3550 1.399 . S
C3551 C3552 1.385 . S
C3552 H3538 0.931 . S
C3552 C3551 1.385 . S
C3552 C3553 1.389 . S
C3553 C3552 1.389 . S
C3553 C3554 1.387 . S
C3554 H3539 0.930 . S
C3554 C3549 1.390 . S
C3554 C3553 1.387 . S
H3555 C3567 0.930 . S
H3556 C3569 0.930 . S
H3557 C3570 0.930 . S
H3558 C3574 0.959 . S
H3559 C3574 0.959 . S
H3560 C3574 0.961 . S
H3561 C3575 0.960 . S
H3562 C3575 0.961 . S
H3563 C3575 0.959 . S
H3564 C3578 0.929 . S
H3565 C3579 0.931 . S
H3566 C3581 0.930 . S
C3567 H3555 0.930 . S
C3567 C3568 1.399 . S
C3567 C3572 1.399 . S
C3568 C3567 1.399 . S
C3568 C3569 1.376 . S
C3569 H3556 0.930 . S
C3569 C3568 1.376 . S
C3569 C3570 1.388 . S
C3570 H3557 0.930 . S
C3570 C3569 1.388 . S
C3570 C3571 1.390 . S
C3571 C3570 1.390 . S
C3571 C3572 1.394 . S
C3571 C3577 1.465 . S
C3572 C3567 1.399 . S
C3572 C3571 1.394 . S
C3572 C3573 1.516 . S
C3573 C3572 1.516 . S
C3573 C3574 1.502 . S
C3573 C3575 1.561 . S
C3573 C3576 1.526 . S
C3574 H3558 0.959 . S
C3574 H3559 0.959 . S
C3574 H3560 0.961 . S
C3574 C3573 1.502 . S
C3575 H3561 0.960 . S
C3575 H3562 0.961 . S
C3575 H3563 0.959 . S
C3575 C3573 1.561 . S
C3576 C3573 1.526 . S
C3576 C3577 1.396 . S
C3576 C3581 1.390 . S
C3577 C3571 1.465 . S
C3577 C3576 1.396 . S
C3577 C3578 1.399 . S
C3578 H3564 0.929 . S
C3578 C3577 1.399 . S
C3578 C3579 1.385 . S
C3579 H3565 0.931 . S
C3579 C3578 1.385 . S
C3579 C3580 1.389 . S
C3580 C3579 1.389 . S
C3580 C3581 1.387 . S
C3581 H3566 0.930 . S
C3581 C3576 1.390 . S
C3581 C3580 1.387 . S
H3582 C3594 0.930 . S
H3583 C3596 0.930 . S
H3584 C3597 0.930 . S
H3585 C3601 0.959 . S
H3586 C3601 0.959 . S
H3587 C3601 0.961 . S
H3588 C3602 0.960 . S
H3589 C3602 0.961 . S
H3590 C3602 0.959 . S
H3591 C3605 0.929 . S
H3592 C3606 0.931 . S
H3593 C3608 0.930 . S
C3594 H3582 0.930 . S
C3594 C3595 1.399 . S
C3594 C3599 1.399 . S
C3595 C3594 1.399 . S
C3595 C3596 1.376 . S
C3596 H3583 0.930 . S
C3596 C3595 1.376 . S
C3596 C3597 1.388 . S
C3597 H3584 0.930 . S
C3597 C3596 1.388 . S
C3597 C3598 1.390 . S
C3598 C3597 1.390 . S
C3598 C3599 1.394 . S
C3598 C3604 1.465 . S
C3599 C3594 1.399 . S
C3599 C3598 1.394 . S
C3599 C3600 1.516 . S
C3600 C3599 1.516 . S
C3600 C3601 1.502 . S
C3600 C3602 1.561 . S
C3600 C3603 1.526 . S
C3601 H3585 0.959 . S
C3601 H3586 0.959 . S
C3601 H3587 0.961 . S
C3601 C3600 1.502 . S
C3602 H3588 0.960 . S
C3602 H3589 0.961 . S
C3602 H3590 0.959 . S
C3602 C3600 1.561 . S
C3603 C3600 1.526 . S
C3603 C3604 1.396 . S
C3603 C3608 1.390 . S
C3604 C3598 1.465 . S
C3604 C3603 1.396 . S
C3604 C3605 1.399 . S
C3605 H3591 0.929 . S
C3605 C3604 1.399 . S
C3605 C3606 1.385 . S
C3606 H3592 0.931 . S
C3606 C3605 1.385 . S
C3606 C3607 1.389 . S
C3607 C3606 1.389 . S
C3607 C3608 1.387 . S
C3608 H3593 0.930 . S
C3608 C3603 1.390 . S
C3608 C3607 1.387 . S
H3609 C3621 0.930 . S
H3610 C3623 0.930 . S
H3611 C3624 0.930 . S
H3612 C3628 0.959 . S
H3613 C3628 0.959 . S
H3614 C3628 0.961 . S
H3615 C3629 0.960 . S
H3616 C3629 0.961 . S
H3617 C3629 0.959 . S
H3618 C3632 0.929 . S
H3619 C3633 0.931 . S
H3620 C3635 0.930 . S
C3621 H3609 0.930 . S
C3621 C3622 1.399 . S
C3621 C3626 1.399 . S
C3622 C3621 1.399 . S
C3622 C3623 1.376 . S
C3623 H3610 0.930 . S
C3623 C3622 1.376 . S
C3623 C3624 1.388 . S
C3624 H3611 0.930 . S
C3624 C3623 1.388 . S
C3624 C3625 1.390 . S
C3625 C3624 1.390 . S
C3625 C3626 1.394 . S
C3625 C3631 1.465 . S
C3626 C3621 1.399 . S
C3626 C3625 1.394 . S
C3626 C3627 1.516 . S
C3627 C3626 1.516 . S
C3627 C3628 1.502 . S
C3627 C3629 1.561 . S
C3627 C3630 1.526 . S
C3628 H3612 0.959 . S
C3628 H3613 0.959 . S
C3628 H3614 0.961 . S
C3628 C3627 1.502 . S
C3629 H3615 0.960 . S
C3629 H3616 0.961 . S
C3629 H3617 0.959 . S
C3629 C3627 1.561 . S
C3630 C3627 1.526 . S
C3630 C3631 1.396 . S
C3630 C3635 1.390 . S
C3631 C3625 1.465 . S
C3631 C3630 1.396 . S
C3631 C3632 1.399 . S
C3632 H3618 0.929 . S
C3632 C3631 1.399 . S
C3632 C3633 1.385 . S
C3633 H3619 0.931 . S
C3633 C3632 1.385 . S
C3633 C3634 1.389 . S
C3634 C3633 1.389 . S
C3634 C3635 1.387 . S
C3635 H3620 0.930 . S
C3635 C3630 1.390 . S
C3635 C3634 1.387 . S
C733 C1 1.467 . S
C745 C46 1.464 1_545 S
C760 C6 1.458 1_655 S
C772 C21 1.480 . S
C787 C41 1.475 . S
C799 C26 1.466 . S
C814 C61 1.497 . S
C826 C86 1.491 1_455 S
C841 C106 1.462 . S
C853 C81 1.501 . S
C868 C101 1.505 . S
C880 C66 1.481 1_565 S
C895 C129 1.474 . S
C907 C176 1.454 1_565 S
C922 C149 1.436 . S
C934 C136 1.406 1_455 S
C949 C169 1.473 . S
C961 C156 1.452 . S
C976 C189 1.496 . S
C988 C216 1.470 1_655 S
C1003 C236 1.487 . S
C1015 C209 1.499 . S
C1030 C196 1.490 1_545 S
C1042 C229 1.502 . S
C1057 C286 1.445 . S
C1069 C241 1.464 . S
C1084 C261 1.473 . S
C1096 C246 1.423 . S
C1111 C266 1.471 . S
C1123 C281 1.507 . S
C1138 C301 1.479 . S
C1150 C326 1.434 . S
C1165 C346 1.481 . S
C1177 C321 1.517 . S
C1192 C306 1.480 . S
C1204 C341 1.517 . S
C1219 C369 1.509 . S
C1231 C416 1.486 . S
C1246 C389 1.465 . S
C1258 C376 1.421 . S
C1273 C396 1.492 . S
C1285 C409 1.510 . S
C1300 C456 1.341 . S
C1312 C429 1.383 . S
C1327 C449 1.415 . S
C1339 C476 1.391 . S
C1354 C436 1.345 . S
C1366 C469 1.387 . S
C1381 C481 1.466 . S
C1393 C526 1.426 . S
C1408 C501 1.480 . S
C1420 C486 1.424 . S
C1435 C521 1.466 . S
C1447 C506 1.425 . S
C1462 C541 1.382 . S
C1474 C566 1.341 . S
C1489 C561 1.411 . S
C1501 C586 1.411 . S
C1516 C581 1.392 . S
C1528 C546 1.340 . S
C1543 C609 1.463 . S
C1555 C656 1.429 . S
C1570 C629 1.505 . S
C1582 C616 1.484 . S
C1597 C636 1.421 . S
C1609 C649 1.462 . S
C1624 C669 1.512 . S
C1636 C696 1.487 . S
C1651 C689 1.517 . S
C1663 C716 1.497 . S
C1678 C676 1.433 . S
C1690 C709 1.473 . S
C1705 C16 1.467 . S
C1717 C401 1.474 . S
C1732 C361 1.427 . S
C1744 C36 1.406 . S
C1759 C56 1.443 . S
C1771 C381 1.464 . S
C1786 C76 1.292 . S
C1798 C681 1.327 . S
C1813 C701 1.310 . S
C1825 C96 1.323 . S
C1840 C116 1.239 . S
C1852 C661 1.275 . S
C1867 C529 1.433 . S
C1879 C126 1.456 . S
C1894 C146 1.427 . S
C1906 C489 1.419 . S
C1921 C166 1.407 . S
C1933 C509 1.447 . S
C1948 C329 1.331 . S
C1960 C186 1.282 . S
C1975 C349 1.306 . S
C1987 C206 1.243 . S
C2002 C309 1.330 . S
C2014 C226 1.294 . S
C2029 C256 1.332 . S
C2041 C641 1.345 . S
C2056 C276 1.398 . S
C2068 C601 1.389 . S
C2083 C621 1.376 . S
C2095 C296 1.388 . S
C2110 C201 1.323 . S
C2122 C316 1.275 1_455 S
C2137 C221 1.343 . S
C2149 C336 1.298 . S
C2164 C181 1.313 . S
C2176 C356 1.268 1_565 S
C2191 C49 1.410 . S
C2203 C366 1.420 1_565 S
C2218 C386 1.391 1_455 S
C2230 C9 1.428 . S
C2245 C406 1.409 . S
C2257 C29 1.455 . S
C2272 C569 1.275 . S
C2284 C426 1.309 . S
C2299 C589 1.275 . S
C2311 C446 1.314 . S
C2326 C466 1.258 . S
C2338 C549 1.301 . S
C2353 C161 1.443 . S
C2365 C496 1.449 1_545 S
C2380 C121 1.460 . S
C2392 C516 1.459 1_655 S
C2407 C141 1.455 . S
C2419 C536 1.457 . S
C2434 C556 1.305 . S
C2446 C441 1.278 . S
C2461 C461 1.361 . S
C2473 C576 1.308 . S
C2488 C596 1.292 . S
C2500 C421 1.354 . S
C2515 C606 1.336 . S
C2527 C289 1.350 . S
C2542 C626 1.401 . S
C2554 C249 1.386 . S
C2569 C646 1.327 . S
C2581 C269 1.372 . S
C2596 C666 1.347 1_655 S
C2608 C89 1.317 . S
C2623 C109 1.290 . S
C2635 C686 1.279 . S
C2650 C69 1.354 . S
C2662 C706 1.311 1_545 S
C2677 C588 2.047 . S
C2689 C8 2.031 . S
C2704 C548 2.046 . S
C2716 C28 2.000 . S
C2731 C48 2.062 . S
C2743 C568 1.993 . S
C2758 C268 2.251 . S
C2770 C68 2.241 . S
C2785 C88 2.233 . S
C2797 C288 2.262 . S
C2812 C108 2.263 . S
C2824 C248 2.239 . S
C2839 C139 1.994 . S
C2851 C479 2.021 . S
C2866 C159 2.051 . S
C2878 C439 1.969 . S
C2893 C179 2.010 . S
C2905 C459 2.042 . S
C2920 C639 2.296 . S
C2932 C199 2.231 . S
C2947 C659 2.274 . S
C2959 C219 2.284 . S
C2974 C619 2.295 . S
C2986 C239 2.261 . S
C3001 C308 2.361 . S
C3013 C508 2.329 . S
C3028 C328 2.310 . S
C3040 C528 2.368 . S
C3055 C348 2.335 . S
C3067 C488 2.312 . S
C3082 C379 2.321 . S
C3094 C719 2.330 . S
C3109 C679 2.328 . S
C3121 C399 2.322 . S
C3136 C419 2.364 . S
C3148 C699 2.330 . S
C3163 C99 1.272 . S
C3175 C19 1.266 . S
C3190 C119 1.252 . S
C3202 C39 1.263 . S
C3217 C79 1.188 . S
C3229 C59 1.197 . S
C3244 C128 1.279 . S
C3256 C208 1.277 . S
C3271 C228 1.187 . S
C3283 C148 1.198 . S
C3298 C168 1.268 . S
C3310 C188 1.253 . S
C3325 C339 1.309 . S
C3337 C259 1.317 . S
C3352 C359 1.316 . S
C3364 C279 1.324 . S
C3379 C319 1.318 . S
C3391 C299 1.326 . S
C3406 C448 1.507 . S
C3418 C368 1.557 . S
C3433 C388 1.504 . S
C3445 C468 1.476 . S
C3460 C408 1.498 . S
C3472 C428 1.499 . S
C3487 C499 1.554 . S
C3499 C579 1.537 . S
C3514 C599 1.529 . S
C3526 C519 1.547 . S
C3541 C539 1.500 . S
C3553 C559 1.478 . S
C3568 C608 1.324 . S
C3580 C688 1.343 . S
C3595 C708 1.295 . S
C3607 C628 1.298 . S
C3622 C648 1.307 . S
C3634 C668 1.322 . S
