# Generated by pormake.
# Topology yfd, (5)-cn, num edge types: 1
# Building blocks:
#     Node 0, Type 0, BuildingBlock: BEQFEK_clean_sbu_0, # of connection points: 5
#     Node 1, Type 0, BuildingBlock: BEQFEK_clean_sbu_0, # of connection points: 5
#     Node 2, Type 0, BuildingBlock: BEQFEK_clean_sbu_0, # of connection points: 5
#     Node 3, Type 0, BuildingBlock: BEQFEK_clean_sbu_0, # of connection points: 5
#     Node 4, Type 0, BuildingBlock: BEQFEK_clean_sbu_0, # of connection points: 5
#     Node 5, Type 0, BuildingBlock: BEQFEK_clean_sbu_0, # of connection points: 5
#     Node 6, Type 0, BuildingBlock: BEQFEK_clean_sbu_0, # of connection points: 5
#     Node 7, Type 0, BuildingBlock: BEQFEK_clean_sbu_0, # of connection points: 5
#     Node 8, Type 0, BuildingBlock: BEQFEK_clean_sbu_0, # of connection points: 5
#     Node 9, Type 0, BuildingBlock: BEQFEK_clean_sbu_0, # of connection points: 5
#     Node 10, Type 0, BuildingBlock: BEQFEK_clean_sbu_0, # of connection points: 5
#     Node 11, Type 0, BuildingBlock: BEQFEK_clean_sbu_0, # of connection points: 5
#     Node 12, Type 0, BuildingBlock: BEQFEK_clean_sbu_0, # of connection points: 5
#     Node 13, Type 0, BuildingBlock: BEQFEK_clean_sbu_0, # of connection points: 5
#     Node 14, Type 0, BuildingBlock: BEQFEK_clean_sbu_0, # of connection points: 5
#     Node 15, Type 0, BuildingBlock: BEQFEK_clean_sbu_0, # of connection points: 5
#     Edge 16, Type (0, 0), BuildingBlock: MIFKUJ_clean_linker_0, # of connection points: 2
#     Edge 17, Type (0, 0), BuildingBlock: MIFKUJ_clean_linker_0, # of connection points: 2
#     Edge 18, Type (0, 0), BuildingBlock: MIFKUJ_clean_linker_0, # of connection points: 2
#     Edge 19, Type (0, 0), BuildingBlock: MIFKUJ_clean_linker_0, # of connection points: 2
#     Edge 20, Type (0, 0), BuildingBlock: MIFKUJ_clean_linker_0, # of connection points: 2
#     Edge 21, Type (0, 0), BuildingBlock: MIFKUJ_clean_linker_0, # of connection points: 2
#     Edge 22, Type (0, 0), BuildingBlock: MIFKUJ_clean_linker_0, # of connection points: 2
#     Edge 23, Type (0, 0), BuildingBlock: MIFKUJ_clean_linker_0, # of connection points: 2
#     Edge 24, Type (0, 0), BuildingBlock: MIFKUJ_clean_linker_0, # of connection points: 2
#     Edge 25, Type (0, 0), BuildingBlock: MIFKUJ_clean_linker_0, # of connection points: 2
#     Edge 26, Type (0, 0), BuildingBlock: MIFKUJ_clean_linker_0, # of connection points: 2
#     Edge 27, Type (0, 0), BuildingBlock: MIFKUJ_clean_linker_0, # of connection points: 2
#     Edge 28, Type (0, 0), BuildingBlock: MIFKUJ_clean_linker_0, # of connection points: 2
#     Edge 29, Type (0, 0), BuildingBlock: MIFKUJ_clean_linker_0, # of connection points: 2
#     Edge 30, Type (0, 0), BuildingBlock: MIFKUJ_clean_linker_0, # of connection points: 2
#     Edge 31, Type (0, 0), BuildingBlock: MIFKUJ_clean_linker_0, # of connection points: 2
#     Edge 32, Type (0, 0), BuildingBlock: MIFKUJ_clean_linker_0, # of connection points: 2
#     Edge 33, Type (0, 0), BuildingBlock: MIFKUJ_clean_linker_0, # of connection points: 2
#     Edge 34, Type (0, 0), BuildingBlock: MIFKUJ_clean_linker_0, # of connection points: 2
#     Edge 35, Type (0, 0), BuildingBlock: MIFKUJ_clean_linker_0, # of connection points: 2
#     Edge 36, Type (0, 0), BuildingBlock: MIFKUJ_clean_linker_0, # of connection points: 2
#     Edge 37, Type (0, 0), BuildingBlock: MIFKUJ_clean_linker_0, # of connection points: 2
#     Edge 38, Type (0, 0), BuildingBlock: MIFKUJ_clean_linker_0, # of connection points: 2
#     Edge 39, Type (0, 0), BuildingBlock: MIFKUJ_clean_linker_0, # of connection points: 2
#     Edge 40, Type (0, 0), BuildingBlock: MIFKUJ_clean_linker_0, # of connection points: 2
#     Edge 41, Type (0, 0), BuildingBlock: MIFKUJ_clean_linker_0, # of connection points: 2
#     Edge 42, Type (0, 0), BuildingBlock: MIFKUJ_clean_linker_0, # of connection points: 2
#     Edge 43, Type (0, 0), BuildingBlock: MIFKUJ_clean_linker_0, # of connection points: 2
#     Edge 44, Type (0, 0), BuildingBlock: MIFKUJ_clean_linker_0, # of connection points: 2
#     Edge 45, Type (0, 0), BuildingBlock: MIFKUJ_clean_linker_0, # of connection points: 2
#     Edge 46, Type (0, 0), BuildingBlock: MIFKUJ_clean_linker_0, # of connection points: 2
#     Edge 47, Type (0, 0), BuildingBlock: MIFKUJ_clean_linker_0, # of connection points: 2
#     Edge 48, Type (0, 0), BuildingBlock: MIFKUJ_clean_linker_0, # of connection points: 2
#     Edge 49, Type (0, 0), BuildingBlock: MIFKUJ_clean_linker_0, # of connection points: 2
#     Edge 50, Type (0, 0), BuildingBlock: MIFKUJ_clean_linker_0, # of connection points: 2
#     Edge 51, Type (0, 0), BuildingBlock: MIFKUJ_clean_linker_0, # of connection points: 2
#     Edge 52, Type (0, 0), BuildingBlock: MIFKUJ_clean_linker_0, # of connection points: 2
#     Edge 53, Type (0, 0), BuildingBlock: MIFKUJ_clean_linker_0, # of connection points: 2
#     Edge 54, Type (0, 0), BuildingBlock: MIFKUJ_clean_linker_0, # of connection points: 2
#     Edge 55, Type (0, 0), BuildingBlock: MIFKUJ_clean_linker_0, # of connection points: 2
# Relax obj value: 0.550
# Max RMSD: 0.252
# Mean RMSD: 0.252
data_MOF--net-yfd--node1-BEQFEK_clean_sbu_0--edge1-MIFKUJ_clean_linker_0
_symmetry_space_group_name_H-M    P1
_symmetry_Int_Tables_number       1
_symmetry_cell_setting            triclinic
loop_
_symmetry_equiv_pos_as_xyz
'x, y, z'
_cell_length_a     83.10877
_cell_length_b     82.8874
_cell_length_c     33.212114
_cell_angle_alpha  90.064349
_cell_angle_beta   89.957492
_cell_angle_gamma 89.990873
loop_
_atom_site_label
_atom_site_type_symbol
_atom_site_fract_x
_atom_site_fract_y
_atom_site_fract_z
_atom_type_partial_charge
Co0 Co 0.52371 0.09526 0.15223 0.0
Co1 Co 0.52357 0.13276 0.16641 0.0
C2 C 0.49446 0.11159 0.18385 0.0
O3 O 0.50231 0.09935 0.17219 0.0
O4 O 0.50064 0.12572 0.18258 0.0
C5 C 0.51406 0.06223 0.14399 0.0
O6 O 0.50337 0.06586 0.17168 0.0
C7 C 0.5164 0.16532 0.13592 0.0
C8 C 0.5331 0.1806 0.17072 0.0
C9 C 0.522 0.18111 0.13955 0.0
N10 N 0.52411 0.15598 0.16293 0.0
N11 N 0.53393 0.16526 0.18397 0.0
C12 C 0.50364 0.15911 0.10814 0.0
H13 H 0.49763 0.14844 0.12158 0.0
H14 H 0.50915 0.15525 0.07931 0.0
H15 H 0.49462 0.16865 0.10174 0.0
C16 C 0.53493 0.10479 0.0727 0.0
N17 N 0.52895 0.10874 0.10901 0.0
N18 N 0.53064 0.12432 0.11516 0.0
C19 C 0.53877 0.1306 0.08339 0.0
C20 C 0.54135 0.11845 0.05516 0.0
C21 C 0.53643 0.08784 0.05747 0.0
H22 H 0.54515 0.08118 0.07652 0.0
H23 H 0.52459 0.08172 0.05956 0.0
H24 H 0.54062 0.08745 0.02577 0.0
O25 O 0.53859 0.09841 0.19734 0.0
O26 O 0.53897 0.12487 0.20953 0.0
H27 H 0.54888 0.15131 0.11316 0.0
H28 H 0.55707 0.14729 0.06368 0.0
C29 C 0.54598 0.14714 0.0823 0.0
H30 H 0.53731 0.15566 0.06851 0.0
H31 H 0.54163 0.16103 0.20641 0.0
O32 O 0.52442 0.0727 0.13369 0.0
C33 C 0.5435 0.11047 0.21771 0.0
Co34 Co 0.40691 0.51748 0.65802 0.0
Co35 Co 0.37 0.5246 0.665 0.0
C36 C 0.38407 0.49285 0.69041 0.0
O37 O 0.39788 0.49813 0.68167 0.0
O38 O 0.37151 0.5014 0.68507 0.0
C39 C 0.42998 0.49747 0.62634 0.0
O40 O 0.41683 0.48891 0.62136 0.0
C41 C 0.33765 0.52185 0.63105 0.0
C42 C 0.32431 0.54162 0.66055 0.0
C43 C 0.32279 0.52958 0.63174 0.0
N44 N 0.34751 0.52918 0.65749 0.0
N45 N 0.33941 0.54091 0.67532 0.0
C46 C 0.34237 0.50738 0.60672 0.0
H47 H 0.35214 0.50063 0.62197 0.0
H48 H 0.34695 0.51127 0.57693 0.0
H49 H 0.33185 0.49935 0.60188 0.0
C50 C 0.402 0.5294 0.57601 0.0
N51 N 0.39599 0.52425 0.61142 0.0
N52 N 0.38077 0.52845 0.61431 0.0
C53 C 0.37682 0.53701 0.58095 0.0
C54 C 0.39006 0.5375 0.55532 0.0
C55 C 0.41947 0.52878 0.56479 0.0
H56 H 0.42687 0.53341 0.59003 0.0
H57 H 0.42294 0.51608 0.55884 0.0
H58 H 0.42209 0.53597 0.53742 0.0
O59 O 0.40627 0.53487 0.69838 0.0
O60 O 0.37998 0.53937 0.70681 0.0
H61 H 0.35781 0.55149 0.60589 0.0
H62 H 0.36358 0.55692 0.55516 0.0
C63 C 0.36174 0.54672 0.5763 0.0
H64 H 0.35209 0.53897 0.56389 0.0
H65 H 0.34429 0.54866 0.69689 0.0
O66 O 0.42897 0.5112 0.64328 0.0
C67 C 0.39471 0.54228 0.71571 0.0
Co68 Co 0.98329 0.4084 0.15951 0.0
Co69 Co 0.98062 0.37056 0.16439 0.0
C70 C 0.01123 0.38862 0.18613 0.0
O71 O 0.00438 0.40198 0.17906 0.0
O72 O 0.0039 0.37518 0.18141 0.0
C73 C 0.9968 0.43923 0.14025 0.0
O74 O 0.0106 0.43179 0.14527 0.0
C75 C 0.98511 0.33763 0.13014 0.0
C76 C 0.96526 0.32438 0.1593 0.0
C77 C 0.97728 0.32271 0.13056 0.0
N78 N 0.97785 0.34755 0.15684 0.0
N79 N 0.96617 0.3394 0.17459 0.0
C80 C 0.99821 0.34299 0.10227 0.0
H81 H 0.99896 0.35636 0.10154 0.0
H82 H 0.99612 0.33824 0.07145 0.0
H83 H 0.00988 0.33821 0.11322 0.0
C84 C 0.97237 0.40264 0.07712 0.0
N85 N 0.97747 0.39699 0.11285 0.0
N86 N 0.97488 0.38134 0.11482 0.0
C87 C 0.96732 0.37674 0.08049 0.0
C88 C 0.96584 0.39005 0.05534 0.0
C89 C 0.97206 0.42011 0.06581 0.0
H90 H 0.96425 0.4268 0.08719 0.0
H91 H 0.9844 0.42513 0.06765 0.0
H92 H 0.9674 0.42192 0.03489 0.0
O93 O 0.96715 0.40484 0.20166 0.0
O94 O 0.96546 0.37821 0.2087 0.0
H95 H 0.95558 0.35534 0.1021 0.0
H96 H 0.94996 0.36122 0.05157 0.0
C97 C 0.96004 0.36048 0.07341 0.0
H98 H 0.96928 0.35232 0.0606 0.0
H99 H 0.95834 0.34433 0.19587 0.0
O100 O 0.98378 0.43164 0.14685 0.0
C101 C 0.96122 0.39249 0.21892 0.0
Co102 Co 0.09761 0.98103 0.65077 0.0
Co103 Co 0.13448 0.97802 0.66658 0.0
C104 C 0.11665 0.00971 0.67609 0.0
O105 O 0.10382 0.00273 0.66547 0.0
O106 O 0.12984 1.00189 0.67882 0.0
C107 C 0.07282 0.99506 0.60927 0.0
O108 O 0.08489 0.00457 0.59988 0.0
C109 C 0.16691 0.98296 0.63527 0.0
C110 C 0.18154 0.96541 0.66913 0.0
C111 C 0.18232 0.97646 0.63779 0.0
N112 N 0.15747 0.9758 0.66295 0.0
N113 N 0.16636 0.96547 0.6835 0.0
C114 C 0.16113 0.99592 0.60741 0.0
H115 H 0.15132 0.00293 0.62172 0.0
H116 H 0.15622 0.9904 0.57961 0.0
H117 H 0.17113 0.00414 0.59906 0.0
C118 C 0.106 0.96554 0.5743 0.0
N119 N 0.1103 0.97266 0.60913 0.0
N120 N 0.12572 0.9703 0.6158 0.0
C121 C 0.13159 0.961 0.58545 0.0
C122 C 0.11935 0.9581 0.55785 0.0
C123 C 0.08902 0.96392 0.5597 0.0
H124 H 0.0811 0.96015 0.58485 0.0
H125 H 0.08483 0.97575 0.54824 0.0
H126 H 0.08794 0.95495 0.53503 0.0
O127 O 0.09898 0.96684 0.69793 0.0
O128 O 0.1251 0.96434 0.7117 0.0
H129 H 0.15171 0.9503 0.61605 0.0
H130 H 0.14789 0.94217 0.56643 0.0
C131 C 0.14789 0.95331 0.585 0.0
H132 H 0.15672 0.96176 0.57164 0.0
H133 H 0.16192 0.95802 0.70626 0.0
O134 O 0.07532 0.98315 0.63247 0.0
C135 C 0.11032 0.96111 0.7194 0.0
Co136 Co 0.52013 0.40626 0.83985 0.0
Co137 Co 0.5226 0.36843 0.8434 0.0
C138 C 0.49192 0.38545 0.82019 0.0
O139 O 0.49907 0.39888 0.823 0.0
O140 O 0.49907 0.37219 0.82812 0.0
C141 C 0.506 0.43785 0.84443 0.0
O142 O 0.49278 0.43056 0.83274 0.0
C143 C 0.51824 0.33687 0.8842 0.0
C144 C 0.53533 0.32139 0.85104 0.0
C145 C 0.52442 0.32125 0.88267 0.0
N146 N 0.52533 0.34578 0.85523 0.0
N147 N 0.53548 0.33639 0.83547 0.0
C148 C 0.50511 0.34303 0.91101 0.0
H149 H 0.49974 0.35417 0.89829 0.0
H150 H 0.51008 0.34594 0.94109 0.0
H151 H 0.49571 0.33365 0.91498 0.0
C152 C 0.53261 0.40371 0.9214 0.0
N153 N 0.5265 0.39664 0.88836 0.0
N154 N 0.52904 0.38097 0.88986 0.0
C155 C 0.5375 0.37773 0.92383 0.0
C156 C 0.53986 0.39206 0.94496 0.0
C157 C 0.53267 0.42154 0.92866 0.0
H158 H 0.54087 0.42744 0.9068 0.0
H159 H 0.52038 0.42642 0.92419 0.0
H160 H 0.53666 0.42445 0.95965 0.0
O161 O 0.53611 0.40138 0.79855 0.0
O162 O 0.53705 0.3745 0.79616 0.0
H163 H 0.54859 0.35559 0.90455 0.0
H164 H 0.55637 0.36367 0.95131 0.0
C165 C 0.54538 0.36191 0.93285 0.0
H166 H 0.53696 0.35426 0.95027 0.0
H167 H 0.54264 0.34025 0.81153 0.0
O168 O 0.519 0.42985 0.84719 0.0
C169 C 0.54154 0.38837 0.78343 0.0
Co170 Co 0.09909 0.52805 0.34929 0.0
Co171 Co 0.13652 0.52748 0.34075 0.0
C172 C 0.11658 0.4974 0.32977 0.0
O173 O 0.10409 0.50574 0.33627 0.0
O174 O 0.13053 0.50386 0.33032 0.0
C175 C 0.07228 0.51673 0.38823 0.0
O176 O 0.08329 0.50639 0.40001 0.0
C177 C 0.16877 0.52138 0.37405 0.0
C178 C 0.18405 0.53781 0.33841 0.0
C179 C 0.18443 0.52711 0.37048 0.0
N180 N 0.15955 0.52862 0.34603 0.0
N181 N 0.16882 0.53829 0.32452 0.0
C182 C 0.16271 0.50877 0.40255 0.0
H183 H 0.1589 0.51447 0.43119 0.0
H184 H 0.17233 0.4999 0.40936 0.0
H185 H 0.15211 0.50252 0.3896 0.0
C186 C 0.10651 0.5432 0.42673 0.0
N187 N 0.11126 0.5357 0.39279 0.0
N188 N 0.12704 0.53645 0.38955 0.0
C189 C 0.13274 0.54498 0.42149 0.0
C190 C 0.1199 0.54909 0.44634 0.0
C191 C 0.08935 0.54645 0.4381 0.0
H192 H 0.08244 0.55031 0.41129 0.0
H193 H 0.08396 0.53528 0.45047 0.0
H194 H 0.08836 0.55601 0.46136 0.0
O195 O 0.10267 0.54204 0.30278 0.0
O196 O 0.12922 0.54096 0.29302 0.0
H197 H 0.1552 0.55296 0.39624 0.0
H198 H 0.14994 0.56228 0.44367 0.0
C199 C 0.14965 0.55088 0.42611 0.0
H200 H 0.15681 0.54184 0.44281 0.0
H201 H 0.16467 0.54559 0.30116 0.0
O202 O 0.07625 0.52788 0.36398 0.0
C203 C 0.1152 0.546 0.28307 0.0
Co204 Co 0.98356 0.0984 0.8489 0.0
Co205 Co 0.98012 0.13581 0.83759 0.0
C206 C 0.01152 0.11847 0.8224 0.0
O207 O 0.00479 0.10525 0.83113 0.0
O208 O 0.0038 0.13179 0.82368 0.0
C209 C 0.99839 0.07381 0.88923 0.0
O210 O 0.00727 0.0863 0.89923 0.0
C211 C 0.98446 0.16915 0.86723 0.0
C212 C 0.9641 0.18188 0.83894 0.0
C213 C 0.97651 0.18397 0.86641 0.0
N214 N 0.97694 0.15887 0.84195 0.0
N215 N 0.96497 0.16669 0.82457 0.0
C216 C 0.99772 0.16416 0.89499 0.0
H217 H 0.99848 0.15081 0.89685 0.0
H218 H 0.99582 0.16933 0.92547 0.0
H219 H 0.00932 0.16881 0.88319 0.0
C220 C 0.96891 0.10559 0.92736 0.0
N221 N 0.9757 0.11051 0.89261 0.0
N222 N 0.97344 0.12613 0.88811 0.0
C223 C 0.96475 0.13153 0.92001 0.0
C224 C 0.96194 0.11873 0.94613 0.0
C225 C 0.96694 0.08828 0.93956 0.0
H226 H 0.96354 0.08087 0.91313 0.0
H227 H 0.97849 0.08376 0.95182 0.0
H228 H 0.95759 0.08681 0.96312 0.0
O229 O 0.9684 0.10004 0.80389 0.0
O230 O 0.96615 0.12646 0.79262 0.0
H231 H 0.95309 0.1522 0.89441 0.0
H232 H 0.94811 0.14858 0.94662 0.0
C233 C 0.95786 0.14814 0.92384 0.0
H234 H 0.96745 0.15657 0.93354 0.0
H235 H 0.95686 0.16142 0.80451 0.0
O236 O 0.98657 0.07588 0.86557 0.0
C237 C 0.96257 0.11181 0.78396 0.0
Co238 Co 0.40475 0.98194 0.34713 0.0
Co239 Co 0.3674 0.97777 0.34057 0.0
C240 C 0.38395 0.00863 0.31657 0.0
O241 O 0.3974 1.0022 0.32426 0.0
O242 O 0.37079 1.00108 0.3225 0.0
C243 C 0.43098 0.9989 0.37759 0.0
O244 O 0.41964 0.0098 0.382 0.0
C245 C 0.33494 0.98212 0.37417 0.0
C246 C 0.32086 0.96335 0.34284 0.0
C247 C 0.31975 0.97511 0.37244 0.0
N248 N 0.34461 0.97463 0.34749 0.0
N249 N 0.33606 0.96353 0.32855 0.0
C250 C 0.34006 0.99614 0.39959 0.0
H251 H 0.35065 1.00221 0.38606 0.0
H252 H 0.34349 0.99192 0.43003 0.0
H253 H 0.32999 0.00485 0.40298 0.0
C254 C 0.39901 0.97 0.42882 0.0
N255 N 0.39335 0.97573 0.39363 0.0
N256 N 0.37786 0.97264 0.3908 0.0
C257 C 0.37332 0.96423 0.42391 0.0
C258 C 0.38652 0.96265 0.4494 0.0
C259 C 0.41652 0.96913 0.43943 0.0
H260 H 0.42336 0.96392 0.41387 0.0
H261 H 0.42106 0.98148 0.44535 0.0
H262 H 0.41874 0.96162 0.46646 0.0
O263 O 0.40261 0.96496 0.30631 0.0
O264 O 0.37611 0.96249 0.29786 0.0
H265 H 0.3529 0.95171 0.39944 0.0
H266 H 0.35808 0.94582 0.45016 0.0
C267 C 0.35735 0.9561 0.42892 0.0
H268 H 0.34856 0.96479 0.44141 0.0
H269 H 0.34069 0.9558 0.30661 0.0
O270 O 0.42748 0.98547 0.36129 0.0
C271 C 0.39057 0.9585 0.28883 0.0
Co272 Co 0.47269 0.90707 0.85021 0.0
Co273 Co 0.47672 0.8696 0.84204 0.0
C274 C 0.50343 0.89241 0.81946 0.0
O275 O 0.49411 0.90408 0.8276 0.0
O276 O 0.499 0.87782 0.82532 0.0
C277 C 0.48015 0.94086 0.85279 0.0
O278 O 0.49053 0.93739 0.82426 0.0
C279 C 0.48584 0.83788 0.87522 0.0
C280 C 0.46894 0.82157 0.84411 0.0
C281 C 0.48054 0.82191 0.87413 0.0
N282 N 0.47744 0.84649 0.84799 0.0
N283 N 0.46754 0.83659 0.8291 0.0
C284 C 0.4989 0.84493 0.90082 0.0
H285 H 0.50451 0.85534 0.88526 0.0
H286 H 0.49376 0.84939 0.92954 0.0
H287 H 0.50818 0.8357 0.90768 0.0
C288 C 0.46342 0.89865 0.93207 0.0
N289 N 0.46948 0.89436 0.89607 0.0
N290 N 0.46924 0.87856 0.89243 0.0
C291 C 0.46207 0.87236 0.9257 0.0
C292 C 0.45855 0.8849 0.95212 0.0
C293 C 0.46031 0.91573 0.94463 0.0
H294 H 0.45111 0.92108 0.92447 0.0
H295 H 0.47155 0.92285 0.94166 0.0
H296 H 0.45597 0.91653 0.97616 0.0
O297 O 0.45654 0.90162 0.80946 0.0
O298 O 0.46078 0.87542 0.79816 0.0
H299 H 0.4534 0.85015 0.9001 0.0
H300 H 0.44579 0.85452 0.94992 0.0
C301 C 0.45648 0.85527 0.92994 0.0
H302 H 0.46613 0.84792 0.94375 0.0
H303 H 0.45933 0.84021 0.80713 0.0
O304 O 0.47077 0.92993 0.86569 0.0
C305 C 0.45346 0.88865 0.79042 0.0
Co306 Co 0.59623 0.49017 0.35668 0.0
Co307 Co 0.63279 0.48316 0.34519 0.0
C308 C 0.61821 0.51685 0.33836 0.0
O309 O 0.60451 0.51166 0.34879 0.0
O310 O 0.63016 0.5073 0.33412 0.0
C311 C 0.56176 0.48481 0.35947 0.0
O312 O 0.56393 0.47333 0.33272 0.0
C313 C 0.66485 0.48483 0.38098 0.0
C314 C 0.67907 0.46783 0.3442 0.0
C315 C 0.68 0.4778 0.37774 0.0
N316 N 0.65541 0.47904 0.35137 0.0
N317 N 0.66403 0.46898 0.32926 0.0
C318 C 0.6594 0.49723 0.41082 0.0
H319 H 0.6494 0.5045 0.39817 0.0
H320 H 0.65486 0.49117 0.43831 0.0
H321 H 0.66953 0.50526 0.41942 0.0
C322 C 0.60109 0.47211 0.43124 0.0
N323 N 0.60696 0.47948 0.39829 0.0
N324 N 0.62217 0.47558 0.39338 0.0
C325 C 0.62629 0.46503 0.42281 0.0
C326 C 0.61306 0.46265 0.44782 0.0
C327 C 0.58398 0.47322 0.44509 0.0
H328 H 0.57999 0.48599 0.44465 0.0
H329 H 0.5825 0.4684 0.47603 0.0
H330 H 0.57623 0.46619 0.42431 0.0
O331 O 0.59776 0.47762 0.30634 0.0
O332 O 0.62353 0.4711 0.29775 0.0
H333 H 0.63988 0.4439 0.43979 0.0
H334 H 0.65096 0.46246 0.4398 0.0
C335 C 0.64159 0.4555 0.42367 0.0
H336 H 0.64581 0.45305 0.3926 0.0
H337 H 0.65955 0.46262 0.30457 0.0
O338 O 0.57369 0.49302 0.37159 0.0
C339 C 0.60883 0.47058 0.28635 0.0
Co340 Co 0.01543 0.59581 0.84357 0.0
Co341 Co 0.01996 0.6335 0.83946 0.0
C342 C 0.98752 0.61739 0.82819 0.0
O343 O 0.99394 0.60374 0.83383 0.0
O344 O 0.99583 0.63036 0.8288 0.0
C345 C 1.00056 0.56459 0.85174 0.0
O346 O 0.98783 0.57158 0.83615 0.0
C347 C 0.01755 0.66611 0.87577 0.0
C348 C 0.0368 0.67925 0.84391 0.0
C349 C 0.02552 0.68092 0.87446 0.0
N350 N 0.02396 0.65625 0.84765 0.0
N351 N 0.03531 0.6643 0.82839 0.0
C352 C 0.00522 0.66074 0.90573 0.0
H353 H 0.00453 0.64738 0.90666 0.0
H354 H 0.0081 0.66553 0.93611 0.0
H355 H 0.99327 0.66548 0.89666 0.0
C356 C 0.03197 0.59987 0.92018 0.0
N357 N 0.02465 0.60628 0.88788 0.0
N358 N 0.02749 0.62189 0.88639 0.0
C359 C 0.03724 0.62577 0.91767 0.0
C360 C 0.04035 0.61191 0.94002 0.0
C361 C 0.03162 0.58229 0.93054 0.0
H362 H 0.01902 0.57789 0.92982 0.0
H363 H 0.03666 0.57996 0.9609 0.0
H364 H 0.03864 0.57544 0.90782 0.0
O365 O 0.02912 0.59904 0.79616 0.0
O366 O 0.03282 0.62556 0.79119 0.0
H367 H 0.049 0.64663 0.89329 0.0
H368 H 0.05597 0.64085 0.94281 0.0
C369 C 0.04528 0.64179 0.92295 0.0
H370 H 0.03667 0.65034 0.9369 0.0
H371 H 0.04248 0.65938 0.80567 0.0
O372 O 0.01359 0.57252 0.85513 0.0
C373 C 0.03532 0.61118 0.77846 0.0
Co374 Co 0.90379 0.02337 0.34162 0.0
Co375 Co 0.86655 0.02646 0.33334 0.0
C376 C 0.88393 0.99499 0.31796 0.0
O377 O 0.89706 1.00202 0.3255 0.0
O378 O 0.87057 0.00256 0.3197 0.0
C379 C 0.92873 0.00854 0.37979 0.0
O380 O 0.91652 0.99934 0.39 0.0
C381 C 0.83426 0.02204 0.36771 0.0
C382 C 0.81965 0.03978 0.33435 0.0
C383 C 0.81889 0.02866 0.3655 0.0
N384 N 0.84366 0.02916 0.33985 0.0
N385 N 0.83479 0.03964 0.31973 0.0
C386 C 0.83987 0.00876 0.39481 0.0
H387 H 0.85008 1.00219 0.38087 0.0
H388 H 0.84411 0.01387 0.42373 0.0
H389 H 0.82988 1.00025 0.40124 0.0
C390 C 0.89778 0.03809 0.42026 0.0
N391 N 0.89234 0.03126 0.38611 0.0
N392 N 0.87671 0.03352 0.38304 0.0
C393 C 0.87184 0.04236 0.41533 0.0
C394 C 0.88502 0.04511 0.44023 0.0
C395 C 0.91519 0.03992 0.4311 0.0
H396 H 0.92226 0.0434 0.40419 0.0
H397 H 0.91979 0.0283 0.44289 0.0
H398 H 0.91698 0.04925 0.4546 0.0
O399 O 0.90149 0.03838 0.29674 0.0
O400 O 0.87501 0.04065 0.28775 0.0
H401 H 0.85064 0.05316 0.38991 0.0
H402 H 0.85637 0.06108 0.4386 0.0
C403 C 0.85563 0.05001 0.41981 0.0
H404 H 0.84734 0.04151 0.43501 0.0
H405 H 0.83918 0.04702 0.29676 0.0
O406 O 0.92631 0.02052 0.35676 0.0
C407 C 0.8895 0.04428 0.27794 0.0
Co408 Co 0.48602 0.59758 0.14631 0.0
Co409 Co 0.48162 0.63477 0.16148 0.0
C410 C 0.51368 0.61771 0.17204 0.0
O411 O 0.50745 0.60447 0.1613 0.0
O412 O 0.50533 0.63062 0.17439 0.0
C413 C 0.50068 0.56763 0.12336 0.0
O414 O 0.51412 0.57488 0.13362 0.0
C415 C 0.48564 0.66755 0.12977 0.0
C416 C 0.46924 0.68209 0.16738 0.0
C417 C 0.4796 0.68307 0.1347 0.0
N418 N 0.47894 0.65783 0.15763 0.0
N419 N 0.46923 0.66665 0.18024 0.0
C420 C 0.49811 0.66208 0.10018 0.0
H421 H 0.50424 0.65105 0.11121 0.0
H422 H 0.49234 0.65915 0.07102 0.0
H423 H 0.50706 0.67179 0.09488 0.0
C424 C 0.47224 0.60565 0.06819 0.0
N425 N 0.47817 0.61021 0.1041 0.0
N426 N 0.47474 0.62548 0.11079 0.0
C427 C 0.46563 0.63086 0.0797 0.0
C428 C 0.46414 0.61856 0.05139 0.0
C429 C 0.47261 0.58867 0.05272 0.0
H430 H 0.4655 0.58085 0.07317 0.0
H431 H 0.4852 0.58424 0.05246 0.0
H432 H 0.46755 0.58768 0.02193 0.0
O433 O 0.47126 0.59913 0.19268 0.0
O434 O 0.468 0.62528 0.20624 0.0
H435 H 0.45429 0.6508 0.11009 0.0
H436 H 0.44545 0.6456 0.06206 0.0
C437 C 0.45689 0.64665 0.07903 0.0
H438 H 0.46438 0.65581 0.0636 0.0
H439 H 0.46235 0.66208 0.20391 0.0
O440 O 0.48734 0.57488 0.12832 0.0
C441 C 0.46506 0.61041 0.21373 0.0
Co442 Co 0.90365 0.48556 0.64525 0.0
Co443 Co 0.86732 0.47876 0.66221 0.0
C444 C 0.88225 0.51151 0.67638 0.0
O445 O 0.89555 0.50607 0.66404 0.0
O446 O 0.86982 0.50251 0.6781 0.0
C447 C 0.92605 0.50334 0.60439 0.0
O448 O 0.9127 0.51108 0.59576 0.0
C449 C 0.83446 0.48111 0.63232 0.0
C450 C 0.82115 0.4631 0.66809 0.0
C451 C 0.81945 0.47393 0.63654 0.0
N452 N 0.8446 0.4746 0.65938 0.0
N453 N 0.83653 0.46394 0.68099 0.0
C454 C 0.83911 0.4943 0.60379 0.0
H455 H 0.84931 0.50136 0.61614 0.0
H456 H 0.84304 0.489 0.57475 0.0
H457 H 0.82872 0.50238 0.59792 0.0
C458 C 0.89629 0.47033 0.56803 0.0
N459 N 0.89145 0.47688 0.60312 0.0
N460 N 0.87643 0.4728 0.61042 0.0
C461 C 0.87145 0.46289 0.58035 0.0
C462 C 0.88376 0.46138 0.55214 0.0
C463 C 0.91335 0.47038 0.55336 0.0
H464 H 0.92156 0.46717 0.57839 0.0
H465 H 0.91646 0.48265 0.54264 0.0
H466 H 0.91526 0.46176 0.52826 0.0
O467 O 0.90405 0.47018 0.69042 0.0
O468 O 0.87827 0.46531 0.70496 0.0
H469 H 0.85309 0.4499 0.6124 0.0
H470 H 0.85727 0.44221 0.56249 0.0
C471 C 0.85619 0.45329 0.58107 0.0
H472 H 0.84627 0.46062 0.56842 0.0
H473 H 0.8416 0.45695 0.7038 0.0
O474 O 0.92536 0.4908 0.62634 0.0
C475 C 0.89331 0.46316 0.71161 0.0
Co476 Co 0.02017 0.90516 0.16272 0.0
Co477 Co 0.0237 0.86758 0.1699 0.0
C478 C 0.9925 0.88458 0.18892 0.0
O479 O 0.9992 0.89792 0.18125 0.0
O480 O 1.00016 0.87126 0.18583 0.0
C481 C 0.00469 0.93063 0.12631 0.0
O482 O 0.99515 0.91854 0.11702 0.0
C483 C 0.0196 0.83435 0.13884 0.0
C484 C 0.04059 0.82194 0.16511 0.0
C485 C 0.02791 0.81972 0.13851 0.0
N486 N 0.0272 0.84466 0.16389 0.0
N487 N 0.03956 0.83702 0.18005 0.0
C488 C 0.0058 0.83917 0.11256 0.0
H489 H 0.00475 0.85251 0.11113 0.0
H490 H 0.0073 0.83415 0.08179 0.0
H491 H 0.9945 0.83426 0.12544 0.0
C492 C 0.03337 0.89915 0.08211 0.0
N493 N 0.02736 0.89369 0.11723 0.0
N494 N 0.02959 0.87799 0.11972 0.0
C495 C 0.03747 0.87308 0.08605 0.0
C496 C 0.03976 0.8863 0.06098 0.0
C497 C 0.03504 0.91662 0.0712 0.0
H498 H 0.03885 0.9237 0.09785 0.0
H499 H 0.02327 0.92122 0.06048 0.0
H500 H 0.044 0.91847 0.04687 0.0
O501 O 0.03607 0.90297 0.20608 0.0
O502 O 0.03834 0.87637 0.21404 0.0
H503 H 0.04927 0.85174 0.10754 0.0
H504 H 0.0534 0.85646 0.05541 0.0
C505 C 0.04404 0.85649 0.07926 0.0
H506 H 0.03418 0.84841 0.06948 0.0
H507 H 0.04778 0.84236 0.19971 0.0
O508 O 0.01695 0.92792 0.14812 0.0
C509 C 0.04218 0.89082 0.22394 0.0
Co510 Co 0.59743 0.0218 0.65886 0.0
Co511 Co 0.6348 0.02547 0.66789 0.0
C512 C 0.61739 0.99446 0.68834 0.0
O513 O 0.60408 1.00108 0.68012 0.0
O514 O 0.63068 1.002 0.68414 0.0
C515 C 0.56985 0.00621 0.62979 0.0
O516 O 0.58007 0.99414 0.62793 0.0
C517 C 0.66663 0.02145 0.63127 0.0
C518 C 0.68196 0.0379 0.66668 0.0
C519 C 0.68217 0.02763 0.63365 0.0
N520 N 0.65766 0.02801 0.66085 0.0
N521 N 0.66695 0.03773 0.68217 0.0
C522 C 0.66037 0.00911 0.6023 0.0
H523 H 0.65005 0.00253 0.61571 0.0
H524 H 0.65606 0.01516 0.57458 0.0
H525 H 0.67001 1.00047 0.59386 0.0
C526 C 0.60396 0.03481 0.57897 0.0
N527 N 0.60935 0.02825 0.61345 0.0
N528 N 0.62466 0.03176 0.61814 0.0
C529 C 0.62926 0.0415 0.58742 0.0
C530 C 0.61626 0.04369 0.56157 0.0
C531 C 0.58703 0.0333 0.564 0.0
H532 H 0.57886 0.04037 0.58371 0.0
H533 H 0.58335 0.02048 0.5649 0.0
H534 H 0.58581 0.03758 0.53252 0.0
O535 O 0.59992 0.03819 0.70143 0.0
O536 O 0.62636 0.04022 0.71172 0.0
H537 H 0.64884 0.05336 0.61777 0.0
H538 H 0.64293 0.06264 0.57083 0.0
C539 C 0.6446 0.05098 0.5867 0.0
H540 H 0.65395 0.04405 0.57033 0.0
H541 H 0.66296 0.04456 0.70662 0.0
O542 O 0.57457 0.01967 0.64383 0.0
C543 C 0.61186 0.04424 0.72024 0.0
H544 H 0.48875 0.04123 0.14367 0.0
H545 H 0.4832 0.02037 0.09374 0.0
H546 H 0.52915 0.02944 0.03752 0.0
H547 H 0.53467 0.05056 0.08689 0.0
H548 H 0.50569 0.03017 0.98358 0.0
H549 H 0.5215 0.99427 0.0896 0.0
H550 H 0.52114 0.98278 0.15805 0.0
H551 H 0.47131 0.97028 0.14415 0.0
H552 H 0.47131 0.9819 0.0758 0.0
H553 H 0.50488 0.96252 0.85072 0.0
H554 H 0.51016 0.98394 0.89938 0.0
H555 H 0.46446 0.97461 0.9566 0.0
H556 H 0.45927 0.9529 0.90862 0.0
H557 H 0.48785 0.97408 0.00995 0.0
H558 H 0.47205 0.0099 0.90375 0.0
H559 H 0.47244 0.02137 0.83529 0.0
H560 H 0.52222 0.034 0.84942 0.0
H561 H 0.5222 0.0224 0.91779 0.0
C562 C 0.49783 0.03855 0.12125 0.0
C563 C 0.51209 0.04763 0.11903 0.0
C564 C 0.49465 0.0266 0.09272 0.0
C565 C 0.50576 0.02336 0.0619 0.0
C566 C 0.52038 0.03182 0.06093 0.0
C567 C 0.52353 0.04383 0.08927 0.0
C568 C 0.50163 0.01205 0.029 0.0
C569 C 0.50203 0.01781 0.98926 0.0
C570 C 0.49639 0.99612 0.0366 0.0
C571 C 0.49637 0.9891 0.0777 0.0
C572 C 0.51043 0.98919 0.10125 0.0
C573 C 0.5103 0.98263 0.14002 0.0
C574 C 0.4962 0.97585 0.15548 0.0
C575 C 0.48222 0.97556 0.13216 0.0
C576 C 0.48228 0.98212 0.09339 0.0
C577 C 0.49577 0.96529 0.87301 0.0
C578 C 0.48172 0.95593 0.8761 0.0
C579 C 0.4988 0.97756 0.90082 0.0
C580 C 0.48771 0.98084 0.93168 0.0
C581 C 0.47322 0.97219 0.93318 0.0
C582 C 0.47024 0.95984 0.90564 0.0
C583 C 0.49186 0.9922 0.96449 0.0
C584 C 0.49149 0.98644 0.00424 0.0
C585 C 0.49712 0.00813 0.95688 0.0
C586 C 0.49715 0.01514 0.91577 0.0
C587 C 0.48312 0.015 0.89215 0.0
C588 C 0.48327 0.02155 0.85337 0.0
C589 C 0.49736 0.02837 0.83798 0.0
C590 C 0.51132 0.0287 0.86137 0.0
C591 C 0.51124 0.02215 0.90015 0.0
H592 H 0.49744 0.03344 0.80795 0.0
H593 H 0.49613 0.97077 0.18549 0.0
H594 H 0.5348 0.46583 0.35318 0.0
H595 H 0.51146 0.46607 0.39846 0.0
H596 H 0.53102 0.50731 0.46075 0.0
H597 H 0.55414 0.50732 0.41583 0.0
H598 H 0.52429 0.48137 0.51109 0.0
H599 H 0.4991 0.513 0.40815 0.0
H600 H 0.48917 0.5199 0.34039 0.0
H601 H 0.45906 0.47781 0.34054 0.0
H602 H 0.46895 0.47057 0.4082 0.0
H603 H 0.45909 0.51285 0.62653 0.0
H604 H 0.48209 0.5069 0.583 0.0
H605 H 0.45742 0.46515 0.53608 0.0
H606 H 0.43447 0.47086 0.57962 0.0
H607 H 0.46648 0.48757 0.47791 0.0
H608 H 0.48981 0.45869 0.58697 0.0
H609 H 0.49879 0.45416 0.65677 0.0
H610 H 0.53206 0.49356 0.64675 0.0
H611 H 0.52312 0.49851 0.57704 0.0
C612 C 0.53394 0.47515 0.37597 0.0
C613 C 0.5464 0.48641 0.38129 0.0
C614 C 0.52064 0.47525 0.40177 0.0
C615 C 0.51971 0.4866 0.43309 0.0
C616 C 0.53166 0.49838 0.43695 0.0
C617 C 0.54483 0.49836 0.41115 0.0
C618 C 0.50699 0.48555 0.46387 0.0
C619 C 0.51164 0.48288 0.50397 0.0
C620 C 0.49054 0.48708 0.45415 0.0
C621 C 0.48499 0.49108 0.41293 0.0
C622 C 0.49055 0.50508 0.39349 0.0
C623 C 0.48487 0.5091 0.35518 0.0
C624 C 0.47356 0.49925 0.33607 0.0
C625 C 0.46788 0.48539 0.35529 0.0
C626 C 0.47351 0.48132 0.39363 0.0
C627 C 0.45872 0.50219 0.60767 0.0
C628 C 0.44491 0.49245 0.60605 0.0
C629 C 0.47187 0.49878 0.58297 0.0
C630 C 0.47135 0.48562 0.55641 0.0
C631 C 0.45798 0.47536 0.55645 0.0
C632 C 0.4449 0.47866 0.58134 0.0
C633 C 0.48379 0.48385 0.52518 0.0
C634 C 0.47911 0.48592 0.48496 0.0
C635 C 0.50021 0.48202 0.5349 0.0
C636 C 0.50567 0.47907 0.57684 0.0
C637 C 0.49894 0.4665 0.59974 0.0
C638 C 0.50404 0.46383 0.63928 0.0
C639 C 0.51593 0.47361 0.65623 0.0
C640 C 0.52282 0.48601 0.63359 0.0
C641 C 0.51775 0.48875 0.59404 0.0
H642 H 0.5198 0.47158 0.6869 0.0
H643 H 0.46915 0.5024 0.30646 0.0
H644 H 0.02206 0.45672 0.11096 0.0
H645 H 0.02069 0.47951 0.06478 0.0
H646 H 0.96892 0.47985 0.07486 0.0
H647 H 0.97016 0.45686 0.12058 0.0
H648 H 0.97748 0.47863 0.99955 0.0
H649 H 0.99236 0.51045 0.11148 0.0
H650 H 0.00768 0.51977 0.17058 0.0
H651 H 0.04926 0.52745 0.09625 0.0
H652 H 0.03447 0.51755 0.03712 0.0
H653 H 0.97284 0.54921 0.87401 0.0
H654 H 0.97048 0.52738 0.92299 0.0
H655 H 0.02222 0.52322 0.9271 0.0
H656 H 0.02469 0.5453 0.87905 0.0
H657 H 0.01052 0.52829 0.99918 0.0
H658 H 0.99725 0.49335 0.88877 0.0
H659 H 0.98251 0.48308 0.82971 0.0
H660 H 0.93915 0.48022 0.89966 0.0
H661 H 0.95354 0.49081 0.95898 0.0
C662 C 0.0104 0.46187 0.10412 0.0
C663 C 0.99621 0.45488 0.1191 0.0
C664 C 0.00964 0.47496 0.07782 0.0
C665 C 0.9947 0.4814 0.06643 0.0
C666 C 0.98057 0.47504 0.08322 0.0
C667 C 0.98131 0.46193 0.10944 0.0
C668 C 0.99379 0.49343 0.03362 0.0
C669 C 0.98461 0.48955 0.99949 0.0
C670 C 0.00316 0.50765 0.03374 0.0
C671 C 0.0123 0.51307 0.06979 0.0
C672 C 0.00486 0.51384 0.10782 0.0
C673 C 0.01347 0.51923 0.1414 0.0
C674 C 0.02949 0.52408 0.13729 0.0
C675 C 0.03693 0.52353 0.09959 0.0
C676 C 0.02843 0.518 0.06602 0.0
C677 C 0.98371 0.54336 0.88453 0.0
C678 C 0.99897 0.54912 0.87322 0.0
C679 C 0.98233 0.53084 0.91248 0.0
C680 C 0.99618 0.52377 0.92894 0.0
C681 C 0.01138 0.52863 0.91505 0.0
C682 C 0.01277 0.54122 0.88752 0.0
C683 C 0.99506 0.51287 0.96407 0.0
C684 C 0.0036 0.51719 0.99895 0.0
C685 C 0.98529 0.4989 0.96439 0.0
C686 C 0.97644 0.49318 0.92821 0.0
C687 C 0.98451 0.49082 0.89142 0.0
C688 C 0.97622 0.48488 0.85791 0.0
C689 C 0.95988 0.48109 0.86086 0.0
C690 C 0.95179 0.48325 0.89735 0.0
C691 C 0.96 0.48924 0.93091 0.0
H692 H 0.95351 0.47641 0.83496 0.0
H693 H 0.0361 0.52835 0.16326 0.0
H694 H 0.06409 0.01911 0.55819 0.0
H695 H 0.03927 0.02117 0.51957 0.0
H696 H 0.02158 0.97763 0.57529 0.0
H697 H 0.04656 0.9753 0.61378 0.0
H698 H 0.01867 0.97718 0.4934 0.0
H699 H 0.00612 0.01357 0.60183 0.0
H700 H 0.01082 0.03654 0.64757 0.0
H701 H 0.01216 0.06887 0.54669 0.0
H702 H 0.00769 0.04605 0.50027 0.0
H703 H 0.93756 0.98404 0.42943 0.0
H704 H 0.96271 0.98142 0.46658 0.0
H705 H 0.98038 0.02516 0.4118 0.0
H706 H 0.95514 0.02799 0.3747 0.0
H707 H 0.98326 0.02539 0.49313 0.0
H708 H 0.99694 0.98978 0.38454 0.0
H709 H 0.99321 0.96717 0.3371 0.0
H710 H 0.99015 0.934 0.43601 0.0
H711 H 0.99385 0.95643 0.48408 0.0
C712 C 0.05487 0.01005 0.56256 0.0
C713 C 0.05725 0.99703 0.58894 0.0
C714 C 0.04068 0.01129 0.54059 0.0
C715 C 0.02861 0.99961 0.5449 0.0
C716 C 0.03081 0.98675 0.57172 0.0
C717 C 0.04502 0.98549 0.59374 0.0
C718 C 0.01403 1.00048 0.51991 0.0
C719 C 0.01076 0.9876 0.49375 0.0
C720 C 0.0041 0.01432 0.51963 0.0
C721 C 0.00671 0.02807 0.54755 0.0
C722 C 0.00754 0.02556 0.58937 0.0
C723 C 0.01014 0.03856 0.61542 0.0
C724 C 0.01183 0.05415 0.60004 0.0
C725 C 0.01087 0.05678 0.55856 0.0
C726 C 0.00828 0.04383 0.53238 0.0
C727 C 0.94685 0.99303 0.425 0.0
C728 C 0.9444 0.00626 0.39933 0.0
C729 C 0.96123 0.99145 0.44603 0.0
C730 C 0.97336 0.00304 0.4416 0.0
C731 C 0.9711 0.01609 0.41541 0.0
C732 C 0.95673 0.01766 0.39425 0.0
C733 C 0.98793 1.00212 0.46657 0.0
C734 C 0.99117 0.01498 0.49279 0.0
C735 C 0.99789 0.98831 0.46669 0.0
C736 C 0.99553 0.97481 0.43791 0.0
C737 C 0.99537 0.97768 0.39619 0.0
C738 C 0.99335 0.96489 0.36918 0.0
C739 C 0.9914 0.94917 0.38353 0.0
C740 C 0.99162 0.94619 0.42493 0.0
C741 C 0.99374 0.95893 0.45207 0.0
H742 H 0.98974 0.9393 0.36258 0.0
H743 H 0.01385 0.0642 0.62026 0.0
H744 H 0.4791 0.45449 0.86692 0.0
H745 H 0.47812 0.47793 0.91125 0.0
H746 H 0.52992 0.4813 0.9077 0.0
H747 H 0.53105 0.45747 0.86459 0.0
H748 H 0.51978 0.47948 0.98209 0.0
H749 H 0.50473 0.51062 0.86648 0.0
H750 H 0.48896 0.51797 0.80637 0.0
H751 H 0.44623 0.5217 0.87849 0.0
H752 H 0.46168 0.51414 0.93898 0.0
H753 H 0.52725 0.55212 0.09444 0.0
H754 H 0.52788 0.52999 0.04609 0.0
H755 H 0.47606 0.5269 0.05031 0.0
H756 H 0.47529 0.54937 0.09789 0.0
H757 H 0.48594 0.52862 0.97552 0.0
H758 H 0.50107 0.49686 0.09068 0.0
H759 H 0.51682 0.48891 0.15039 0.0
H760 H 0.55962 0.48603 0.07823 0.0
H761 H 0.54421 0.4944 0.01834 0.0
C762 C 0.49027 0.46045 0.87475 0.0
C763 C 0.50518 0.45401 0.8628 0.0
C764 C 0.48968 0.4739 0.90002 0.0
C765 C 0.50396 0.48129 0.91299 0.0
C766 C 0.51878 0.47565 0.89839 0.0
C767 C 0.5194 0.46208 0.87362 0.0
C768 C 0.50362 0.49351 0.94546 0.0
C769 C 0.51265 0.49041 0.98031 0.0
C770 C 0.49375 0.50739 0.94375 0.0
C771 C 0.48436 0.51168 0.90725 0.0
C772 C 0.49194 0.51284 0.86948 0.0
C773 C 0.48306 0.51708 0.83535 0.0
C774 C 0.46661 0.5203 0.83862 0.0
C775 C 0.45898 0.51922 0.87601 0.0
C776 C 0.4678 0.51496 0.91024 0.0
C777 C 0.51599 0.54654 0.08569 0.0
C778 C 0.50121 0.55256 0.09975 0.0
C779 C 0.51638 0.53384 0.05813 0.0
C780 C 0.50201 0.52677 0.04468 0.0
C781 C 0.48728 0.53224 0.0602 0.0
C782 C 0.48687 0.54503 0.08751 0.0
C783 C 0.50227 0.51465 0.01196 0.0
C784 C 0.49316 0.51773 0.97716 0.0
C785 C 0.5121 0.50075 0.01363 0.0
C786 C 0.52149 0.49633 0.05004 0.0
C787 C 0.51388 0.49473 0.08764 0.0
C788 C 0.52274 0.49013 0.12153 0.0
C789 C 0.53921 0.48699 0.11813 0.0
C790 C 0.54687 0.4885 0.08087 0.0
C791 C 0.53807 0.49318 0.04696 0.0
H792 H 0.54604 0.48337 0.14436 0.0
H793 H 0.45979 0.5237 0.81222 0.0
H794 H 0.95573 0.4899 0.61485 0.0
H795 H 0.98049 0.49685 0.57927 0.0
H796 H 0.95557 0.53482 0.51602 0.0
H797 H 0.93072 0.52792 0.55129 0.0
H798 H 0.97188 0.51488 0.46554 0.0
H799 H 0.98288 0.54491 0.58405 0.0
H800 H 0.98543 0.55033 0.65674 0.0
H801 H 0.02185 0.5138 0.66627 0.0
H802 H 0.01935 0.50796 0.59371 0.0
H803 H 0.04713 0.53723 0.37392 0.0
H804 H 0.02179 0.53884 0.41142 0.0
H805 H 0.03667 0.49876 0.48534 0.0
H806 H 0.06192 0.49702 0.44822 0.0
H807 H 0.02488 0.52491 0.52954 0.0
H808 H 0.01056 0.49239 0.41333 0.0
H809 H 0.008 0.48693 0.3406 0.0
H810 H 0.97764 0.52851 0.32737 0.0
H811 H 0.9802 0.53433 0.4 0.0
C812 C 0.95556 0.49985 0.59372 0.0
C813 C 0.94129 0.5083 0.58565 0.0
C814 C 0.96972 0.50386 0.57362 0.0
C815 C 0.96981 0.51641 0.54531 0.0
C816 C 0.95569 0.52512 0.53788 0.0
C817 C 0.94153 0.52115 0.55806 0.0
C818 C 0.98437 0.51949 0.52126 0.0
C819 C 0.98342 0.51744 0.4794 0.0
C820 C 0.99939 0.5226 0.53961 0.0
C821 C 1.00083 0.52592 0.58342 0.0
C822 C 0.99131 0.5379 0.6017 0.0
C823 C 0.99277 0.54107 0.64289 0.0
C824 C 0.00377 0.53239 0.66613 0.0
C825 C 0.01333 0.52051 0.64823 0.0
C826 C 0.0119 0.51727 0.60705 0.0
C827 C 0.04493 0.52868 0.39793 0.0
C828 C 0.05648 0.51698 0.40813 0.0
C829 C 0.03051 0.52965 0.41932 0.0
C830 C 0.02749 0.51896 0.45111 0.0
C831 C 0.0389 0.50718 0.46102 0.0
C832 C 0.05325 0.50614 0.43959 0.0
C833 C 0.01239 0.51982 0.47413 0.0
C834 C 0.01327 0.52264 0.51571 0.0
C835 C 0.9973 0.51742 0.45557 0.0
C836 C 0.99574 0.51391 0.41196 0.0
C837 C 0.00346 0.50045 0.39484 0.0
C838 C 0.00198 0.49727 0.35366 0.0
C839 C 0.99271 0.5074 0.32935 0.0
C840 C 0.98485 0.5207 0.34621 0.0
C841 C 0.9863 0.52394 0.38738 0.0
H842 H 0.99158 0.50492 0.29748 0.0
H843 H 0.00491 0.5349 0.69798 0.0
H844 H 0.98463 0.93756 0.06399 0.0
H845 H 0.98412 0.96213 0.02363 0.0
H846 H 0.02008 0.98345 0.10063 0.0
H847 H 0.02087 0.95875 0.14111 0.0
H848 H 0.99291 0.00427 0.07746 0.0
H849 H 0.03321 0.96886 0.02085 0.0
H850 H 0.04289 0.94279 0.9944 0.0
H851 H 0.00795 0.94488 0.89943 0.0
H852 H 0.99785 0.97083 0.92572 0.0
H853 H 0.01724 0.06799 0.95435 0.0
H854 H 0.01915 0.04308 0.99297 0.0
H855 H 0.98646 0.01977 0.91055 0.0
H856 H 0.98459 0.04472 0.87121 0.0
H857 H 0.01216 0.99979 0.93621 0.0
H858 H 0.97171 0.0344 0.99043 0.0
H859 H 0.96128 0.06041 0.01475 0.0
H860 H 0.99461 0.05945 0.1134 0.0
H861 H 0.00573 0.03366 0.08868 0.0
C862 C 0.99227 0.94754 0.07277 0.0
C863 C 0.00287 0.94621 0.10557 0.0
C864 C 0.992 0.96152 0.04958 0.0
C865 C 0.00219 0.97442 0.05905 0.0
C866 C 0.01217 0.97352 0.09296 0.0
C867 C 0.01262 0.95943 0.11594 0.0
C868 C 0.00292 0.98854 0.03229 0.0
C869 C 0.99732 0.00339 0.04678 0.0
C870 C 0.0083 0.98713 0.992 0.0
C871 C 0.01462 0.97169 0.97561 0.0
C872 C 0.02748 0.96369 0.99455 0.0
C873 C 0.03305 0.94894 0.97958 0.0
C874 C 0.02594 0.94212 0.94549 0.0
C875 C 0.01337 0.95013 0.92601 0.0
C876 C 0.00773 0.96487 0.9409 0.0
C877 C 0.01064 0.05751 0.94401 0.0
C878 C 1.00068 0.0583 0.90992 0.0
C879 C 0.01175 0.04331 0.96613 0.0
C880 C 0.00281 0.02973 0.95474 0.0
C881 C 0.99344 0.03019 0.91968 0.0
C882 C 0.99231 0.04444 0.89746 0.0
C883 C 0.00224 0.01556 0.98144 0.0
C884 C 0.00781 1.0007 0.96694 0.0
C885 C 0.99668 0.01691 0.02161 0.0
C886 C 0.98968 0.03216 0.03743 0.0
C887 C 0.97692 0.03978 0.01713 0.0
C888 C 0.97087 0.0545 0.031 0.0
C889 C 0.97724 0.06159 0.06567 0.0
C890 C 0.98969 0.05395 0.08652 0.0
C891 C 0.99591 0.03929 0.07253 0.0
H892 H 0.97251 0.07299 0.07636 0.0
H893 H 0.03021 0.93068 0.934 0.0
H894 H 0.44091 0.02484 0.42161 0.0
H895 H 0.46483 0.02669 0.46376 0.0
H896 H 0.48026 0.97982 0.42218 0.0
H897 H 0.45613 0.9777 0.38054 0.0
H898 H 0.4806 0.98153 0.50228 0.0
H899 H 0.4998 0.01454 0.39345 0.0
H900 H 0.49857 0.03682 0.34441 0.0
H901 H 0.49626 0.07121 0.441 0.0
H902 H 0.49728 0.04911 0.49066 0.0
H903 H 0.55887 0.98117 0.58434 0.0
H904 H 0.53502 0.98068 0.54191 0.0
H905 H 0.52171 0.02803 0.58462 0.0
H906 H 0.54595 0.02886 0.62633 0.0
H907 H 0.51982 0.02663 0.50522 0.0
H908 H 0.50126 0.99354 0.61417 0.0
H909 H 0.50345 0.97121 0.6629 0.0
H910 H 0.5045 0.93694 0.56595 0.0
H911 H 0.50258 0.95906 0.51655 0.0
C912 C 0.44951 0.01502 0.4209 0.0
C913 C 0.44659 1.00107 0.39794 0.0
C914 C 0.46321 0.01613 0.44493 0.0
C915 C 0.47432 0.00341 0.446 0.0
C916 C 0.47178 0.98975 0.42182 0.0
C917 C 0.45804 0.98859 0.39791 0.0
C918 C 0.48796 0.00383 0.47448 0.0
C919 C 0.48933 0.99127 0.50257 0.0
C920 C 0.49898 0.01683 0.47561 0.0
C921 C 0.49848 0.03015 0.44578 0.0
C922 C 0.49892 0.02684 0.40424 0.0
C923 C 0.49829 0.03944 0.37633 0.0
C924 C 0.49733 0.05542 0.38958 0.0
C925 C 0.49703 0.05883 0.43079 0.0
C926 C 0.49765 0.04627 0.45883 0.0
C927 C 0.55077 0.9914 0.58521 0.0
C928 C 0.55429 0.00507 0.60867 0.0
C929 C 0.5371 0.99108 0.56098 0.0
C930 C 0.52652 0.00427 0.56036 0.0
C931 C 0.52975 0.01774 0.58466 0.0
C932 C 0.54353 0.01815 0.60863 0.0
C933 C 0.51254 0.00426 0.53283 0.0
C934 C 0.51108 0.01691 0.505 0.0
C935 C 0.5014 0.99136 0.53194 0.0
C936 C 0.50194 0.97799 0.56164 0.0
C937 C 0.50202 0.98125 0.60322 0.0
C938 C 0.50321 0.96863 0.63095 0.0
C939 C 0.50419 0.95269 0.61747 0.0
C940 C 0.50376 0.9493 0.57628 0.0
C941 C 0.50262 0.96188 0.54841 0.0
H942 H 0.5054 0.94297 0.63891 0.0
H943 H 0.49681 0.06516 0.36793 0.0
H944 H 0.51677 0.182 0.05761 0.0
H945 H 0.51446 0.20576 0.01471 0.0
H946 H 0.51945 0.23656 0.11863 0.0
H947 H 0.52135 0.21274 0.16202 0.0
H948 H 0.49674 0.24832 0.06546 0.0
H949 H 0.55137 0.22895 0.05989 0.0
H950 H 0.57245 0.20843 0.04921 0.0
H951 H 0.55693 0.20213 0.92692 0.0
H952 H 0.53559 0.22246 0.93705 0.0
H953 H 0.52025 0.32075 0.96489 0.0
H954 H 0.51746 0.29712 0.00828 0.0
H955 H 0.51911 0.26611 0.90391 0.0
H956 H 0.52228 0.28974 0.86058 0.0
H957 H 0.53762 0.25421 0.95758 0.0
H958 H 0.4834 0.27376 0.96135 0.0
H959 H 0.46182 0.29379 0.97136 0.0
H960 H 0.47566 0.29936 0.09513 0.0
H961 H 0.49748 0.27951 0.08572 0.0
C962 C 0.51685 0.19377 0.07165 0.0
C963 C 0.51893 0.19541 0.1135 0.0
C964 C 0.51576 0.2074 0.0469 0.0
C965 C 0.5169 0.223 0.06332 0.0
C966 C 0.5185 0.22468 0.10521 0.0
C967 C 0.51964 0.21105 0.12997 0.0
C968 C 0.51729 0.23749 0.03669 0.0
C969 C 0.50577 0.24971 0.04211 0.0
C970 C 0.52885 0.23918 0.00563 0.0
C971 C 0.54179 0.22711 0.99935 0.0
C972 C 0.55239 0.22311 0.0308 0.0
C973 C 0.56439 0.21153 0.02484 0.0
C974 C 0.566 0.20395 0.98744 0.0
C975 C 0.55565 0.20799 0.95588 0.0
C976 C 0.54361 0.21955 0.96171 0.0
C977 C 0.51958 0.30894 0.95107 0.0
C978 C 0.52116 0.30716 0.90915 0.0
C979 C 0.51804 0.29537 0.976 0.0
C980 C 0.51782 0.27972 0.95953 0.0
C981 C 0.51922 0.27799 0.91755 0.0
C982 C 0.52097 0.29152 0.89274 0.0
C983 C 0.51696 0.26511 0.98595 0.0
C984 C 0.52848 0.25286 0.98067 0.0
C985 C 0.50532 0.26337 0.01692 0.0
C986 C 0.49217 0.27526 0.02272 0.0
C987 C 0.48192 0.27934 0.99062 0.0
C988 C 0.46963 0.29065 0.9962 0.0
C989 C 0.4674 0.29787 0.03382 0.0
C990 C 0.47742 0.29377 0.06599 0.0
C991 C 0.48974 0.28248 0.06056 0.0
H992 H 0.45788 0.30663 0.03808 0.0
H993 H 0.57529 0.19499 0.98289 0.0
H994 H 0.32221 0.52221 0.55107 0.0
H995 H 0.29872 0.51954 0.50749 0.0
H996 H 0.26757 0.52959 0.60832 0.0
H997 H 0.29113 0.53197 0.65243 0.0
H998 H 0.25599 0.50457 0.55965 0.0
H999 H 0.27595 0.5588 0.54369 0.0
H1000 H 0.29669 0.5793 0.52957 0.0
H1001 H 0.30364 0.55953 0.41127 0.0
H1002 H 0.28309 0.53875 0.42491 0.0
H1003 H 0.18479 0.52541 0.45291 0.0
H1004 H 0.2082 0.52375 0.49698 0.0
H1005 H 0.23936 0.52182 0.39306 0.0
H1006 H 0.21587 0.52394 0.34887 0.0
H1007 H 0.25132 0.54179 0.44338 0.0
H1008 H 0.23134 0.48797 0.457 0.0
H1009 H 0.21116 0.46682 0.47018 0.0
H1010 H 0.20486 0.48454 0.5907 0.0
H1011 H 0.22485 0.50595 0.57807 0.0
C1012 C 0.31039 0.52341 0.56432 0.0
C1013 C 0.30854 0.52697 0.60548 0.0
C1014 C 0.29694 0.52209 0.53918 0.0
C1015 C 0.28136 0.52442 0.55456 0.0
C1016 C 0.27946 0.52769 0.59579 0.0
C1017 C 0.29293 0.52911 0.62092 0.0
C1018 C 0.26713 0.52408 0.52733 0.0
C1019 C 0.25485 0.51281 0.53445 0.0
C1020 C 0.26584 0.53456 0.49385 0.0
C1021 C 0.27809 0.54713 0.48547 0.0
C1022 C 0.28199 0.55875 0.51477 0.0
C1023 C 0.2937 0.57043 0.50684 0.0
C1024 C 0.30151 0.57069 0.46958 0.0
C1025 C 0.2976 0.5593 0.44013 0.0
C1026 C 0.28591 0.54758 0.44794 0.0
C1027 C 0.19657 0.52419 0.43941 0.0
C1028 C 0.19845 0.52443 0.39734 0.0
C1029 C 0.21002 0.52329 0.46471 0.0
C1030 C 0.22564 0.52237 0.44854 0.0
C1031 C 0.22748 0.52247 0.40644 0.0
C1032 C 0.21405 0.52361 0.38116 0.0
C1033 C 0.24007 0.52218 0.47539 0.0
C1034 C 0.25241 0.53343 0.46834 0.0
C1035 C 0.24146 0.51156 0.50869 0.0
C1036 C 0.22949 0.49866 0.51645 0.0
C1037 C 0.22557 0.48743 0.48622 0.0
C1038 C 0.21417 0.47538 0.49361 0.0
C1039 C 0.2067 0.47436 0.53122 0.0
C1040 C 0.21064 0.48536 0.56157 0.0
C1041 C 0.22202 0.49744 0.55432 0.0
H1042 H 0.19788 0.46503 0.53688 0.0
H1043 H 0.31058 0.57974 0.4635 0.0
H1044 H 0.00501 0.30996 0.09634 0.0
H1045 H 0.00719 0.28638 0.05215 0.0
H1046 H 0.95586 0.27936 0.05975 0.0
H1047 H 0.95364 0.30277 0.10385 0.0
H1048 H 0.96999 0.25157 0.06729 0.0
H1049 H 0.97518 0.29602 0.97497 0.0
H1050 H 0.98711 0.32106 0.9483 0.0
H1051 H 0.03255 0.29709 0.93351 0.0
H1052 H 0.02093 0.27195 0.96066 0.0
H1053 H 0.95287 0.20253 0.89893 0.0
H1054 H 0.95552 0.22563 0.94424 0.0
H1055 H 0.00717 0.22116 0.93999 0.0
H1056 H 0.00459 0.19797 0.89427 0.0
H1057 H 0.99584 0.25366 0.93271 0.0
H1058 H 0.98928 0.20838 0.02033 0.0
H1059 H 0.97642 0.18346 0.04492 0.0
H1060 H 0.93255 0.20938 0.06702 0.0
H1061 H 0.94506 0.23442 0.04188 0.0
C1062 C 0.99416 0.30359 0.08807 0.0
C1063 C 0.97911 0.3085 0.10322 0.0
C1064 C 0.99542 0.29001 0.06287 0.0
C1065 C 0.98166 0.28109 0.05204 0.0
C1066 C 0.96669 0.28593 0.06754 0.0
C1067 C 0.96544 0.29939 0.09281 0.0
C1068 C 0.98266 0.26665 0.02501 0.0
C1069 C 0.97554 0.25213 0.03775 0.0
C1070 C 0.99026 0.26709 0.98674 0.0
C1071 C 0.99724 0.28216 0.97028 0.0
C1072 C 0.98775 0.29613 0.96633 0.0
C1073 C 0.99445 0.31033 0.95108 0.0
C1074 C 0.01059 0.31068 0.93933 0.0
C1075 C 0.02006 0.29681 0.9427 0.0
C1076 C 0.01342 0.28258 0.958 0.0
C1077 C 0.96482 0.20646 0.90749 0.0
C1078 C 0.97851 0.19821 0.89341 0.0
C1079 C 0.96631 0.21965 0.93356 0.0
C1080 C 0.98154 0.22506 0.94593 0.0
C1081 C 0.99529 0.21716 0.93107 0.0
C1082 C 0.99379 0.20379 0.90526 0.0
C1083 C 0.98289 0.23881 0.97481 0.0
C1084 C 0.99045 0.25313 0.96243 0.0
C1085 C 0.97559 0.23825 0.01332 0.0
C1086 C 0.96808 0.22326 0.0289 0.0
C1087 C 0.97685 0.20875 0.03014 0.0
C1088 C 0.96963 0.1946 0.04421 0.0
C1089 C 0.95367 0.19483 0.05745 0.0
C1090 C 0.94491 0.20922 0.05672 0.0
C1091 C 0.95206 0.2234 0.04259 0.0
H1092 H 0.9481 0.18387 0.06833 0.0
H1093 H 0.01576 0.32169 0.92752 0.0
H1094 H 0.18218 0.98109 0.55575 0.0
H1095 H 0.20525 0.98321 0.51075 0.0
H1096 H 0.23735 0.97754 0.61169 0.0
H1097 H 0.21418 0.97596 0.65731 0.0
H1098 H 0.2481 1.00078 0.55867 0.0
H1099 H 0.22864 0.94581 0.5509 0.0
H1100 H 0.20777 0.9251 0.54012 0.0
H1101 H 0.20014 0.94246 0.41988 0.0
H1102 H 0.22085 0.96341 0.43012 0.0
H1103 H 0.31935 0.97894 0.45431 0.0
H1104 H 0.29591 0.98103 0.49829 0.0
H1105 H 0.26466 0.979 0.39467 0.0
H1106 H 0.2882 0.97632 0.35068 0.0
H1107 H 0.25286 0.96072 0.44823 0.0
H1108 H 0.27199 0.01497 0.45262 0.0
H1109 H 0.29177 0.03685 0.4616 0.0
H1110 H 0.29883 0.02271 0.58467 0.0
H1111 H 0.27925 1.0006 0.57627 0.0
C1112 C 0.1941 0.98081 0.56871 0.0
C1113 C 0.1963 0.97876 0.6104 0.0
C1114 C 0.20733 0.98176 0.54274 0.0
C1115 C 0.22307 0.98042 0.55773 0.0
C1116 C 0.22533 0.97864 0.5994 0.0
C1117 C 0.21208 0.97768 0.62542 0.0
C1118 C 0.23713 0.9803 0.52982 0.0
C1119 C 0.24926 0.99192 0.53478 0.0
C1120 C 0.23841 0.96906 0.49784 0.0
C1121 C 0.22619 0.95625 0.4914 0.0
C1122 C 0.22245 0.94526 0.52223 0.0
C1123 C 0.21066 0.93347 0.51621 0.0
C1124 C 0.20261 0.93249 0.47937 0.0
C1125 C 0.20638 0.94324 0.4484 0.0
C1126 C 0.21816 0.95506 0.45428 0.0
C1127 C 0.30751 0.97935 0.4408 0.0
C1128 C 0.30562 0.97785 0.39893 0.0
C1129 C 0.29406 0.9805 0.46605 0.0
C1130 C 0.2784 0.98051 0.44996 0.0
C1131 C 0.27655 0.97909 0.408 0.0
C1132 C 0.29 0.97764 0.38282 0.0
C1133 C 0.26399 0.98123 0.47692 0.0
C1134 C 0.25176 0.96968 0.4719 0.0
C1135 C 0.26252 0.9927 0.50846 0.0
C1136 C 0.27425 0.00604 0.5137 0.0
C1137 C 0.27784 0.01646 0.48152 0.0
C1138 C 0.28901 0.02891 0.48652 0.0
C1139 C 0.29658 0.03115 0.52365 0.0
C1140 C 0.29297 0.02096 0.55591 0.0
C1141 C 0.28182 0.00847 0.55106 0.0
H1142 H 0.30522 0.04079 0.52746 0.0
H1143 H 0.19346 0.92337 0.47478 0.0
H1144 H 0.4808 0.68476 0.05237 0.0
H1145 H 0.48344 0.70879 0.01055 0.0
H1146 H 0.48627 0.7384 0.11727 0.0
H1147 H 0.48315 0.71428 0.15926 0.0
H1148 H 0.46784 0.75259 0.06695 0.0
H1149 H 0.52015 0.72942 0.05429 0.0
H1150 H 0.54013 0.70805 0.04116 0.0
H1151 H 0.52315 0.70361 0.91959 0.0
H1152 H 0.5029 0.72479 0.93214 0.0
H1153 H 0.48785 0.82273 0.95531 0.0
H1154 H 0.49078 0.79988 1.00094 0.0
H1155 H 0.48258 0.76705 0.90224 0.0
H1156 H 0.48027 0.7899 0.85605 0.0
H1157 H 0.50567 0.75558 0.95159 0.0
H1158 H 0.45219 0.77813 0.9678 0.0
H1159 H 0.43306 0.80018 0.98201 0.0
H1160 H 0.45376 0.80656 0.09936 0.0
H1161 H 0.47316 0.78466 0.08564 0.0
C1162 C 0.48238 0.69633 0.06698 0.0
C1163 C 0.48219 0.69757 0.10918 0.0
C1164 C 0.48384 0.71013 0.04297 0.0
C1165 C 0.48544 0.7255 0.06055 0.0
C1166 C 0.48516 0.72674 0.1028 0.0
C1167 C 0.48344 0.71294 0.12682 0.0
C1168 C 0.48678 0.74027 0.03486 0.0
C1169 C 0.47634 0.7533 0.04221 0.0
C1170 C 0.49768 0.74128 0.00205 0.0
C1171 C 0.50992 0.72861 0.99427 0.0
C1172 C 0.52061 0.72381 0.02483 0.0
C1173 C 0.53199 0.71174 0.01748 0.0
C1174 C 0.53289 0.70445 0.97959 0.0
C1175 C 0.52243 0.70925 0.94893 0.0
C1176 C 0.51101 0.72131 0.95614 0.0
C1177 C 0.48723 0.81069 0.94289 0.0
C1178 C 0.48413 0.8082 0.90169 0.0
C1179 C 0.48863 0.79758 0.96928 0.0
C1180 C 0.48671 0.78169 0.95522 0.0
C1181 C 0.48412 0.77917 0.91391 0.0
C1182 C 0.48275 0.79226 0.88753 0.0
C1183 C 0.48666 0.76771 0.98355 0.0
C1184 C 0.49731 0.75485 0.97663 0.0
C1185 C 0.47609 0.76693 0.017 0.0
C1186 C 0.46422 0.77987 0.02555 0.0
C1187 C 0.45271 0.78429 0.99656 0.0
C1188 C 0.44182 0.79675 0.00453 0.0
C1189 C 0.44222 0.80479 0.04152 0.0
C1190 C 0.45348 0.80033 0.0707 0.0
C1191 C 0.46441 0.78789 0.06286 0.0
H1192 H 0.4338 0.81445 0.04761 0.0
H1193 H 0.54171 0.69511 0.97396 0.0
H1194 H 0.818 0.47653 0.55442 0.0
H1195 H 0.79409 0.47859 0.51223 0.0
H1196 H 0.76401 0.47698 0.61811 0.0
H1197 H 0.78806 0.4746 0.6605 0.0
H1198 H 0.75168 0.45849 0.56331 0.0
H1199 H 0.77097 0.5128 0.56267 0.0
H1200 H 0.79092 0.53457 0.55439 0.0
H1201 H 0.79683 0.52187 0.42987 0.0
H1202 H 0.77707 0.49987 0.43754 0.0
H1203 H 0.68019 0.48049 0.46036 0.0
H1204 H 0.70349 0.48152 0.50494 0.0
H1205 H 0.73512 0.47786 0.40234 0.0
H1206 H 0.71175 0.47731 0.35733 0.0
H1207 H 0.74604 0.5001 0.45699 0.0
H1208 H 0.72701 0.44516 0.4596 0.0
H1209 H 0.70667 0.42382 0.46884 0.0
H1210 H 0.69977 0.4386 0.5916 0.0
H1211 H 0.71992 0.46019 0.58291 0.0
C1212 C 0.80634 0.47701 0.56885 0.0
C1213 C 0.80494 0.47587 0.61093 0.0
C1214 C 0.79262 0.47812 0.54461 0.0
C1215 C 0.77717 0.47831 0.56189 0.0
C1216 C 0.77576 0.47696 0.60396 0.0
C1217 C 0.7895 0.47566 0.62819 0.0
C1218 C 0.76253 0.4794 0.53596 0.0
C1219 C 0.75036 0.46777 0.54056 0.0
C1220 C 0.76084 0.4913 0.50559 0.0
C1221 C 0.77264 0.5046 0.50078 0.0
C1222 C 0.7766 0.51458 0.53358 0.0
C1223 C 0.78787 0.52697 0.52899 0.0
C1224 C 0.79516 0.52958 0.49165 0.0
C1225 C 0.79118 0.51983 0.45879 0.0
C1226 C 0.77993 0.50741 0.46323 0.0
C1227 C 0.69206 0.48037 0.44708 0.0
C1228 C 0.69409 0.4792 0.40512 0.0
C1229 C 0.70542 0.4807 0.47274 0.0
C1230 C 0.72109 0.47968 0.45707 0.0
C1231 C 0.72316 0.47871 0.41516 0.0
C1232 C 0.7098 0.47834 0.38949 0.0
C1233 C 0.73531 0.47919 0.48438 0.0
C1234 C 0.74737 0.4909 0.47996 0.0
C1235 C 0.73685 0.46746 0.51512 0.0
C1236 C 0.72485 0.45439 0.52048 0.0
C1237 C 0.72107 0.44393 0.48848 0.0
C1238 C 0.70959 0.43178 0.49363 0.0
C1239 C 0.7019 0.42988 0.53075 0.0
C1240 C 0.70572 0.4401 0.56284 0.0
C1241 C 0.71717 0.45229 0.55784 0.0
H1242 H 0.69301 0.42047 0.53467 0.0
H1243 H 0.80388 0.53917 0.48816 0.0
H1244 H 0.05159 0.8015 0.10507 0.0
H1245 H 0.049 0.77842 0.0598 0.0
H1246 H 0.99733 0.78234 0.06531 0.0
H1247 H 0.99984 0.80546 0.11124 0.0
H1248 H 0.00854 0.75028 0.07215 0.0
H1249 H 0.01572 0.7954 0.98404 0.0
H1250 H 0.02895 0.82013 0.95948 0.0
H1251 H 0.07254 0.79364 0.93819 0.0
H1252 H 0.05965 0.76879 0.96327 0.0
H1253 H 0.99831 0.694 0.90985 0.0
H1254 H 0.99673 0.71766 0.95387 0.0
H1255 H 0.04811 0.72397 0.94416 0.0
H1256 H 0.04969 0.70051 0.8999 0.0
H1257 H 0.03452 0.7519 0.93769 0.0
H1258 H 0.02887 0.70765 0.03016 0.0
H1259 H 0.01674 0.68276 0.05717 0.0
H1260 H 0.97156 0.70718 0.07225 0.0
H1261 H 0.98337 0.73218 0.04478 0.0
C1262 C 0.03965 0.79747 0.09679 0.0
C1263 C 0.02592 0.80554 0.11132 0.0
C1264 C 0.03819 0.78429 0.0707 0.0
C1265 C 0.02298 0.77874 0.05866 0.0
C1266 C 0.0092 0.78648 0.07392 0.0
C1267 C 0.01066 0.79981 0.09984 0.0
C1268 C 0.02164 0.76494 0.02994 0.0
C1269 C 0.01396 0.75071 0.04245 0.0
C1270 C 0.02902 0.76536 0.99151 0.0
C1271 C 0.03675 0.78025 0.97585 0.0
C1272 C 0.02816 0.79487 0.97439 0.0
C1273 C 0.0356 0.80891 0.96034 0.0
C1274 C 0.05158 0.80846 0.94736 0.0
C1275 C 0.06016 0.79396 0.94829 0.0
C1276 C 0.05279 0.77989 0.96238 0.0
C1277 C 0.0093 0.70024 0.91762 0.0
C1278 C 0.02417 0.69513 0.90185 0.0
C1279 C 0.00838 0.71386 0.94275 0.0
C1280 C 0.02234 0.72258 0.95299 0.0
C1281 C 0.03715 0.71754 0.93686 0.0
C1282 C 0.03804 0.70406 0.91154 0.0
C1283 C 0.02165 0.73703 0.98005 0.0
C1284 C 0.02895 0.75144 0.96722 0.0
C1285 C 0.01406 0.73671 0.01832 0.0
C1286 C 0.00695 0.72173 0.03499 0.0
C1287 C 0.01631 0.70768 0.03895 0.0
C1288 C 0.0095 0.69356 0.05438 0.0
C1289 C 0.99338 0.69338 0.06631 0.0
C1290 C 0.98404 0.70733 0.06293 0.0
C1291 C 0.99079 0.72148 0.04744 0.0
H1292 H 0.98812 0.68243 0.07826 0.0
H1293 H 0.05732 0.81935 0.93651 0.0
H1294 H 0.78722 0.02808 0.34455 0.0
H1295 H 0.76379 0.02596 0.38898 0.0
H1296 H 0.79524 0.02251 0.49189 0.0
H1297 H 0.81863 0.02438 0.44756 0.0
H1298 H 0.77107 0.00256 0.50168 0.0
H1299 H 0.77572 0.0583 0.46521 0.0
H1300 H 0.77785 0.08149 0.41904 0.0
H1301 H 0.73205 0.06948 0.3673 0.0
H1302 H 0.72975 0.04608 0.41282 0.0
H1303 H 0.71404 0.02614 0.65248 0.0
H1304 H 0.737 0.02439 0.60629 0.0
H1305 H 0.70449 0.02316 0.50521 0.0
H1306 H 0.68158 0.0252 0.5511 0.0
H1307 H 0.72881 0.04472 0.49397 0.0
H1308 H 0.72408 0.9893 0.5341 0.0
H1309 H 0.72228 0.96681 0.58241 0.0
H1310 H 0.76869 0.97917 0.63004 0.0
H1311 H 0.77068 1.00189 0.58236 0.0
C1312 C 0.78912 0.02669 0.37663 0.0
C1313 C 0.8048 0.02612 0.39239 0.0
C1314 C 0.77572 0.02558 0.40206 0.0
C1315 C 0.77768 0.02428 0.444 0.0
C1316 C 0.79335 0.02341 0.4597 0.0
C1317 C 0.80676 0.02435 0.43421 0.0
C1318 C 0.76345 0.02427 0.47156 0.0
C1319 C 0.76193 0.01189 0.50024 0.0
C1320 C 0.75131 0.03627 0.46947 0.0
C1321 C 0.75264 0.05035 0.44213 0.0
C1322 C 0.76616 0.06054 0.44378 0.0
C1323 C 0.76739 0.07373 0.41776 0.0
C1324 C 0.75511 0.07693 0.39018 0.0
C1325 C 0.74156 0.06697 0.38863 0.0
C1326 C 0.74028 0.05375 0.41455 0.0
C1327 C 0.7118 0.02531 0.62042 0.0
C1328 C 0.69595 0.0254 0.6056 0.0
C1329 C 0.72492 0.02425 0.59405 0.0
C1330 C 0.7225 0.02343 0.55223 0.0
C1331 C 0.70668 0.02362 0.53735 0.0
C1332 C 0.69355 0.02456 0.56372 0.0
C1333 C 0.73644 0.02302 0.52395 0.0
C1334 C 0.73791 0.03535 0.49524 0.0
C1335 C 0.74859 0.01108 0.52631 0.0
C1336 C 0.74746 0.99739 0.5549 0.0
C1337 C 0.73385 0.9873 0.55509 0.0
C1338 C 0.7328 0.9745 0.58232 0.0
C1339 C 0.74535 0.97158 0.60935 0.0
C1340 C 0.75898 0.98145 0.60912 0.0
C1341 C 0.76007 0.99428 0.58197 0.0
H1342 H 0.74452 0.96166 0.6304 0.0
H1343 H 0.75608 0.08715 0.37006 0.0
H1344 H 0.46546 0.12842 0.17942 0.0
H1345 H 0.43921 0.11927 0.20637 0.0
H1346 H 0.46238 0.07757 0.25801 0.0
H1347 H 0.48807 0.08663 0.23235 0.0
H1348 H 0.42279 0.09191 0.18889 0.0
H1349 H 0.44597 0.06484 0.34096 0.0
H1350 H 0.46483 0.07213 0.39511 0.0
H1351 H 0.46086 0.12214 0.3631 0.0
H1352 H 0.44162 0.11523 0.30933 0.0
H1353 H 0.39461 0.01616 0.24273 0.0
H1354 H 0.40547 0.04211 0.22203 0.0
H1355 H 0.38721 0.06381 0.33107 0.0
H1356 H 0.37662 0.03745 0.35222 0.0
H1357 H 0.41708 0.0696 0.32665 0.0
H1358 H 0.3757 0.07773 0.23313 0.0
H1359 H 0.35605 0.07119 0.18 0.0
H1360 H 0.39455 0.06113 0.09746 0.0
H1361 H 0.41445 0.06737 0.1502 0.0
C1362 C 0.46489 0.11754 0.19737 0.0
C1363 C 0.4788 0.10822 0.20365 0.0
C1364 C 0.44991 0.11225 0.21251 0.0
C1365 C 0.44879 0.09779 0.23474 0.0
C1366 C 0.46285 0.0889 0.24183 0.0
C1367 C 0.47758 0.09406 0.22674 0.0
C1368 C 0.43309 0.09089 0.24825 0.0
C1369 C 0.42137 0.08724 0.21917 0.0
C1370 C 0.43092 0.0852 0.28813 0.0
C1371 C 0.44232 0.08949 0.32095 0.0
C1372 C 0.44897 0.07742 0.34565 0.0
C1373 C 0.45979 0.08148 0.37624 0.0
C1374 C 0.4641 0.09758 0.38245 0.0
C1375 C 0.45754 0.10966 0.35818 0.0
C1376 C 0.44667 0.10568 0.32763 0.0
C1377 C 0.39219 0.02665 0.26128 0.0
C1378 C 0.38451 0.02489 0.29866 0.0
C1379 C 0.39844 0.04156 0.24945 0.0
C1380 C 0.39714 0.05512 0.27474 0.0
C1381 C 0.38834 0.05362 0.31085 0.0
C1382 C 0.38209 0.0386 0.32275 0.0
C1383 C 0.40734 0.06964 0.26658 0.0
C1384 C 0.4181 0.07467 0.29668 0.0
C1385 C 0.40848 0.07673 0.22783 0.0
C1386 C 0.39659 0.07302 0.19574 0.0
C1387 C 0.37999 0.07405 0.20372 0.0
C1388 C 0.3688 0.07039 0.17365 0.0
C1389 C 0.37405 0.06575 0.13538 0.0
C1390 C 0.3905 0.06476 0.12709 0.0
C1391 C 0.40175 0.0684 0.15706 0.0
H1392 H 0.36537 0.06292 0.11215 0.0
H1393 H 0.47251 0.10068 0.40609 0.0
H1394 H 0.46449 0.38419 0.86499 0.0
H1395 H 0.43883 0.39677 0.84548 0.0
H1396 H 0.45686 0.40343 0.72501 0.0
H1397 H 0.48229 0.39075 0.74423 0.0
H1398 H 0.44833 0.43269 0.78819 0.0
H1399 H 0.4307 0.38492 0.71297 0.0
H1400 H 0.42317 0.3562 0.70833 0.0
H1401 H 0.38613 0.36345 0.79675 0.0
H1402 H 0.39363 0.39218 0.80233 0.0
H1403 H 0.38582 0.46443 0.65085 0.0
H1404 H 0.39773 0.43987 0.6788 0.0
H1405 H 0.39569 0.46071 0.79768 0.0
H1406 H 0.38374 0.48527 0.76961 0.0
H1407 H 0.39413 0.4161 0.74113 0.0
H1408 H 0.43476 0.45747 0.83462 0.0
H1409 H 0.44293 0.48607 0.83872 0.0
H1410 H 0.43514 0.49143 0.71172 0.0
H1411 H 0.4272 0.46283 0.70667 0.0
C1412 C 0.46255 0.38742 0.83377 0.0
C1413 C 0.47518 0.38613 0.8058 0.0
C1414 C 0.44797 0.39475 0.82275 0.0
C1415 C 0.44592 0.40094 0.78373 0.0
C1416 C 0.45809 0.39852 0.75507 0.0
C1417 C 0.47256 0.39113 0.76597 0.0
C1418 C 0.43284 0.41259 0.77485 0.0
C1419 C 0.43641 0.42906 0.77837 0.0
C1420 C 0.41736 0.40784 0.76189 0.0
C1421 C 0.41288 0.39062 0.7585 0.0
C1422 C 0.42109 0.38034 0.7318 0.0
C1423 C 0.41679 0.36407 0.72888 0.0
C1424 C 0.40422 0.35798 0.75235 0.0
C1425 C 0.39589 0.36817 0.77867 0.0
C1426 C 0.40016 0.38444 0.7817 0.0
C1427 C 0.38697 0.46334 0.68323 0.0
C1428 C 0.38356 0.4766 0.70819 0.0
C1429 C 0.39391 0.44934 0.69919 0.0
C1430 C 0.39782 0.44852 0.74027 0.0
C1431 C 0.39282 0.46108 0.76588 0.0
C1432 C 0.38579 0.47505 0.74991 0.0
C1433 C 0.40965 0.43626 0.75437 0.0
C1434 C 0.40592 0.41974 0.75176 0.0
C1435 C 0.42512 0.44093 0.76807 0.0
C1436 C 0.43012 0.45808 0.77045 0.0
C1437 C 0.43481 0.46476 0.80756 0.0
C1438 C 0.43941 0.48096 0.81003 0.0
C1439 C 0.43943 0.49058 0.77551 0.0
C1440 C 0.435 0.48398 0.73841 0.0
C1441 C 0.43045 0.46778 0.73574 0.0
H1442 H 0.44291 0.50313 0.77744 0.0
H1443 H 0.40091 0.34539 0.75004 0.0
H1444 H 0.131 0.47844 0.27147 0.0
H1445 H 0.1208 0.45234 0.24661 0.0
H1446 H 0.08529 0.45195 0.34144 0.0
H1447 H 0.09554 0.47753 0.36638 0.0
H1448 H 0.09462 0.42177 0.3254 0.0
H1449 H 0.07856 0.46944 0.246 0.0
H1450 H 0.08561 0.49274 0.20331 0.0
H1451 H 0.10862 0.46109 0.11847 0.0
H1452 H 0.10194 0.43764 0.16111 0.0
H1453 H 0.01894 0.39449 0.2633 0.0
H1454 H 0.04414 0.406 0.28735 0.0
H1455 H 0.06547 0.39839 0.17031 0.0
H1456 H 0.03982 0.38735 0.14594 0.0
H1457 H 0.07019 0.4276 0.19003 0.0
H1458 H 0.08005 0.37921 0.26063 0.0
H1459 H 0.07428 0.35567 0.30357 0.0
H1460 H 0.06441 0.38702 0.40357 0.0
H1461 H 0.06989 0.41077 0.36112 0.0
C1462 C 0.12143 0.47243 0.28778 0.0
C1463 C 0.11399 0.48007 0.32068 0.0
C1464 C 0.11549 0.4576 0.27336 0.0
C1465 C 0.10201 0.45027 0.29163 0.0
C1466 C 0.09562 0.45728 0.32662 0.0
C1467 C 0.10148 0.47198 0.34083 0.0
C1468 C 0.09308 0.43661 0.27246 0.0
C1469 C 0.08932 0.42297 0.29572 0.0
C1470 C 0.08656 0.43783 0.23318 0.0
C1471 C 0.08993 0.45185 0.20689 0.0
C1472 C 0.08514 0.46748 0.21826 0.0
C1473 C 0.0891 0.4807 0.19411 0.0
C1474 C 0.09762 0.47839 0.15826 0.0
C1475 C 0.10207 0.46285 0.14631 0.0
C1476 C 0.09822 0.4496 0.17046 0.0
C1477 C 0.02926 0.39454 0.24333 0.0
C1478 C 0.02759 0.3896 0.20313 0.0
C1479 C 0.04372 0.4012 0.25704 0.0
C1480 C 0.05694 0.40299 0.23091 0.0
C1481 C 0.05555 0.39711 0.19125 0.0
C1482 C 0.04098 0.39056 0.17743 0.0
C1483 C 0.07114 0.41293 0.24361 0.0
C1484 C 0.07582 0.42598 0.21921 0.0
C1485 C 0.07859 0.41105 0.28174 0.0
C1486 C 0.07534 0.3968 0.30757 0.0
C1487 C 0.07656 0.3811 0.29171 0.0
C1488 C 0.07335 0.36771 0.31598 0.0
C1489 C 0.06897 0.36985 0.35626 0.0
C1490 C 0.06781 0.38538 0.37237 0.0
C1491 C 0.07101 0.39881 0.34823 0.0
H1492 H 0.06648 0.35946 0.37499 0.0
H1493 H 0.10079 0.48864 0.1397 0.0
H1494 H 0.10003 0.03241 0.63575 0.0
H1495 H 0.08985 0.05771 0.66243 0.0
H1496 H 0.11856 0.05133 0.76944 0.0
H1497 H 0.1286 0.02551 0.74268 0.0
H1498 H 0.08856 0.05554 0.78907 0.0
H1499 H 0.12352 0.08494 0.70375 0.0
H1500 H 0.13755 0.09206 0.64082 0.0
H1501 H 0.0923 0.1024 0.58416 0.0
H1502 H 0.07795 0.09512 0.64653 0.0
H1503 H 0.03901 0.11674 0.8665 0.0
H1504 H 0.0645 0.10493 0.84365 0.0
H1505 H 0.04604 0.10287 0.72232 0.0
H1506 H 0.02096 0.11535 0.74503 0.0
H1507 H 0.07684 0.1067 0.71768 0.0
H1508 H 0.04274 0.06986 0.79462 0.0
H1509 H 0.02831 0.05933 0.85395 0.0
H1510 H 0.07178 0.06168 0.92355 0.0
H1511 H 0.08648 0.07212 0.86446 0.0
C1512 C 0.10468 0.03668 0.66431 0.0
C1513 C 0.11515 0.02698 0.68708 0.0
C1514 C 0.09887 0.05126 0.67957 0.0
C1515 C 0.10343 0.05663 0.718 0.0
C1516 C 0.11487 0.04753 0.73963 0.0
C1517 C 0.12076 0.03285 0.72419 0.0
C1518 C 0.09429 0.07012 0.73744 0.0
C1519 C 0.08643 0.06695 0.77399 0.0
C1520 C 0.09108 0.08489 0.71746 0.0
C1521 C 0.09965 0.08943 0.67989 0.0
C1522 C 0.11654 0.08864 0.67782 0.0
C1523 C 0.12456 0.09272 0.64223 0.0
C1524 C 0.11582 0.09767 0.60851 0.0
C1525 C 0.09905 0.09858 0.61032 0.0
C1526 C 0.09097 0.09451 0.64583 0.0
C1527 C 0.04078 0.11453 0.83464 0.0
C1528 C 0.02819 0.11732 0.80734 0.0
C1529 C 0.05523 0.10746 0.82165 0.0
C1530 C 0.05714 0.10253 0.78134 0.0
C1531 C 0.04499 0.1065 0.75356 0.0
C1532 C 0.03066 0.11379 0.76646 0.0
C1533 C 0.0708 0.09184 0.76862 0.0
C1534 C 0.0794 0.09551 0.7333 0.0
C1535 C 0.07464 0.07741 0.78946 0.0
C1536 C 0.06562 0.07196 0.82539 0.0
C1537 C 0.04915 0.0683 0.82273 0.0
C1538 C 0.04095 0.0623 0.85628 0.0
C1539 C 0.04911 0.05992 0.89258 0.0
C1540 C 0.06547 0.06357 0.89545 0.0
C1541 C 0.07375 0.0695 0.86195 0.0
H1542 H 0.04283 0.05512 0.91843 0.0
H1543 H 0.12205 0.10081 0.58098 0.0
H1544 H 0.60778 0.98709 0.76314 0.0
H1545 H 0.59566 0.96172 0.78392 0.0
H1546 H 0.61094 0.93969 0.67242 0.0
H1547 H 0.62262 0.96553 0.65108 0.0
H1548 H 0.58135 0.93519 0.67887 0.0
H1549 H 0.62292 0.92482 0.77026 0.0
H1550 H 0.64326 0.93008 0.82261 0.0
H1551 H 0.60594 0.94163 0.90732 0.0
H1552 H 0.58537 0.93669 0.85537 0.0
H1553 H 0.53264 0.87609 0.82372 0.0
H1554 H 0.55887 0.88563 0.79785 0.0
H1555 H 0.53573 0.92793 0.74929 0.0
H1556 H 0.50999 0.91851 0.77397 0.0
H1557 H 0.57564 0.91266 0.81639 0.0
H1558 H 0.55291 0.94068 0.66412 0.0
H1559 H 0.53412 0.93382 0.60953 0.0
H1560 H 0.53598 0.88388 0.64325 0.0
H1561 H 0.55536 0.89029 0.69705 0.0
C1562 C 0.60929 0.97659 0.74401 0.0
C1563 C 0.61644 0.97817 0.70592 0.0
C1564 C 0.60231 0.96201 0.75588 0.0
C1565 C 0.60238 0.94857 0.72998 0.0
C1566 C 0.61071 0.9498 0.69311 0.0
C1567 C 0.61761 0.9645 0.68109 0.0
C1568 C 0.59145 0.9346 0.73854 0.0
C1569 C 0.58029 0.93011 0.70882 0.0
C1570 C 0.59027 0.92743 0.77721 0.0
C1571 C 0.60258 0.9304 0.80878 0.0
C1572 C 0.61904 0.92857 0.79998 0.0
C1573 C 0.63062 0.93149 0.82961 0.0
C1574 C 0.6259 0.93619 0.86826 0.0
C1575 C 0.60958 0.93797 0.87737 0.0
C1576 C 0.59795 0.93507 0.84785 0.0
C1577 C 0.5332 0.88726 0.80691 0.0
C1578 C 0.51924 0.89658 0.80118 0.0
C1579 C 0.54818 0.89275 0.79235 0.0
C1580 C 0.5493 0.90745 0.7712 0.0
C1581 C 0.53525 0.91645 0.76481 0.0
C1582 C 0.52049 0.91108 0.77938 0.0
C1583 C 0.56502 0.91426 0.75747 0.0
C1584 C 0.57702 0.91742 0.78619 0.0
C1585 C 0.56715 0.92 0.71762 0.0
C1586 C 0.55557 0.91601 0.68494 0.0
C1587 C 0.54944 0.9282 0.65977 0.0
C1588 C 0.53865 0.92439 0.62895 0.0
C1589 C 0.53373 0.90845 0.62314 0.0
C1590 C 0.53973 0.89625 0.64791 0.0
C1591 C 0.55067 0.89996 0.67853 0.0
H1592 H 0.52531 0.90556 0.59935 0.0
H1593 H 0.63489 0.93845 0.89115 0.0
H1594 H 0.52677 0.62481 0.24532 0.0
H1595 H 0.55226 0.6139 0.27074 0.0
H1596 H 0.56407 0.597 0.15138 0.0
H1597 H 0.53847 0.60744 0.12649 0.0
H1598 H 0.5639 0.57296 0.20126 0.0
H1599 H 0.58772 0.62536 0.20283 0.0
H1600 H 0.58968 0.65437 0.21842 0.0
H1601 H 0.5883 0.64389 0.34496 0.0
H1602 H 0.5861 0.61481 0.33014 0.0
H1603 H 0.62886 0.52822 0.26628 0.0
H1604 H 0.61853 0.55268 0.23388 0.0
H1605 H 0.59702 0.56753 0.34612 0.0
H1606 H 0.60715 0.54307 0.3783 0.0
H1607 H 0.60533 0.5942 0.29481 0.0
H1608 H 0.57651 0.54335 0.29301 0.0
H1609 H 0.57403 0.51417 0.2798 0.0
H1610 H 0.5838 0.52216 0.15441 0.0
H1611 H 0.5867 0.55139 0.16711 0.0
C1612 C 0.5352 0.61948 0.22426 0.0
C1613 C 0.53077 0.6171 0.1839 0.0
C1614 C 0.54975 0.61315 0.2388 0.0
C1615 C 0.56013 0.60451 0.21304 0.0
C1616 C 0.55629 0.60352 0.17193 0.0
C1617 C 0.54173 0.60965 0.1576 0.0
C1618 C 0.57341 0.59437 0.22961 0.0
C1619 C 0.5732 0.57777 0.22082 0.0
C1620 C 0.58528 0.60042 0.25627 0.0
C1621 C 0.58662 0.6179 0.26534 0.0
C1622 C 0.5877 0.62924 0.23399 0.0
C1623 C 0.58888 0.6457 0.24269 0.0
C1624 C 0.58908 0.65098 0.28265 0.0
C1625 C 0.58814 0.63979 0.31401 0.0
C1626 C 0.58695 0.62331 0.30547 0.0
C1627 C 0.62276 0.53717 0.28455 0.0
C1628 C 0.61878 0.53377 0.32475 0.0
C1629 C 0.61673 0.55109 0.26594 0.0
C1630 C 0.60675 0.56178 0.28744 0.0
C1631 C 0.60467 0.55947 0.32894 0.0
C1632 C 0.61051 0.54549 0.34736 0.0
C1633 C 0.59582 0.57303 0.26582 0.0
C1634 C 0.59628 0.58964 0.27422 0.0
C1635 C 0.58403 0.56705 0.23891 0.0
C1636 C 0.58206 0.54952 0.2311 0.0
C1637 C 0.57828 0.53887 0.26269 0.0
C1638 C 0.57679 0.52233 0.2553 0.0
C1639 C 0.57882 0.51631 0.21631 0.0
C1640 C 0.58229 0.52684 0.18462 0.0
C1641 C 0.58388 0.54339 0.1919 0.0
H1642 H 0.57765 0.5035 0.21063 0.0
H1643 H 0.59 0.66373 0.28933 0.0
H1644 H 0.97347 0.62246 0.75544 0.0
H1645 H 0.94805 0.61016 0.73414 0.0
H1646 H 0.9378 0.59731 0.85734 0.0
H1647 H 0.96333 0.60929 0.87829 0.0
H1648 H 0.93864 0.57147 0.81181 0.0
H1649 H 0.91255 0.62271 0.80173 0.0
H1650 H 0.90938 0.65103 0.78053 0.0
H1651 H 0.91043 0.63647 0.65644 0.0
H1652 H 0.91383 0.60808 0.67686 0.0
H1653 H 0.87498 0.52164 0.75249 0.0
H1654 H 0.88612 0.54595 0.78439 0.0
H1655 H 0.90314 0.56239 0.6688 0.0
H1656 H 0.89209 0.53821 0.63717 0.0
H1657 H 0.89566 0.58802 0.71698 0.0
H1658 H 0.92601 0.5387 0.72489 0.0
H1659 H 0.93138 0.51034 0.74267 0.0
H1660 H 0.92465 0.52143 0.86787 0.0
H1661 H 0.91888 0.54983 0.85072 0.0
C1662 C 0.96532 0.61786 0.77818 0.0
C1663 C 0.9702 0.61712 0.81861 0.0
C1664 C 0.95082 0.61067 0.76598 0.0
C1665 C 0.94095 0.60269 0.79409 0.0
C1666 C 0.94516 0.60334 0.83503 0.0
C1667 C 0.95966 0.61041 0.84711 0.0
C1668 C 0.92794 0.59151 0.78038 0.0
C1669 C 0.92897 0.57524 0.792 0.0
C1670 C 0.91565 0.5962 0.75328 0.0
C1671 C 0.91356 0.61326 0.74086 0.0
C1672 C 0.91223 0.62555 0.76991 0.0
C1673 C 0.91037 0.64162 0.75803 0.0
C1674 C 0.90973 0.64555 0.71716 0.0
C1675 C 0.91093 0.63341 0.68809 0.0
C1676 C 0.9128 0.61733 0.6998 0.0
C1677 C 0.88032 0.53088 0.73369 0.0
C1678 C 0.88254 0.52814 0.69232 0.0
C1679 C 0.88689 0.54467 0.75198 0.0
C1680 C 0.89576 0.55588 0.7291 0.0
C1681 C 0.8964 0.55397 0.68715 0.0
C1682 C 0.88997 0.54017 0.66901 0.0
C1683 C 0.90634 0.56811 0.7488 0.0
C1684 C 0.90503 0.58444 0.73784 0.0
C1685 C 0.91858 0.56348 0.77616 0.0
C1686 C 0.92172 0.54633 0.78646 0.0
C1687 C 0.92545 0.53505 0.75616 0.0
C1688 C 0.92861 0.51897 0.76613 0.0
C1689 C 0.92829 0.51407 0.80637 0.0
C1690 C 0.92482 0.52524 0.83671 0.0
C1691 C 0.92157 0.54132 0.82687 0.0
H1692 H 0.93079 0.50163 0.81405 0.0
H1693 H 0.90829 0.658 0.70803 0.0
H1694 H 0.89389 0.97134 0.36715 0.0
H1695 H 0.90704 0.9464 0.34582 0.0
H1696 H 0.89224 0.9552 0.22347 0.0
H1697 H 0.87907 0.9804 0.24495 0.0
H1698 H 0.89446 0.92014 0.24771 0.0
H1699 H 0.92563 0.96848 0.23942 0.0
H1700 H 0.93751 0.99431 0.26114 0.0
H1701 H 0.95979 0.97073 0.36168 0.0
H1702 H 0.94805 0.94472 0.34055 0.0
H1703 H 0.96555 0.88958 0.14489 0.0
H1704 H 0.94084 0.90226 0.17 0.0
H1705 H 0.95804 0.89713 0.29173 0.0
H1706 H 0.98263 0.88423 0.26656 0.0
H1707 H 0.95297 0.92892 0.26796 0.0
H1708 H 0.924 0.87903 0.26608 0.0
H1709 H 0.91366 0.85383 0.23633 0.0
H1710 H 0.88785 0.88101 0.14734 0.0
H1711 H 0.89822 0.90639 0.17619 0.0
C1712 C 0.89267 0.96752 0.33608 0.0
C1713 C 0.8852 0.97767 0.30784 0.0
C1714 C 0.90034 0.95333 0.32383 0.0
C1715 C 0.90078 0.94899 0.28298 0.0
C1716 C 0.89196 0.95825 0.25519 0.0
C1717 C 0.8843 0.97257 0.26752 0.0
C1718 C 0.91257 0.93659 0.26916 0.0
C1719 C 0.90726 0.92207 0.25177 0.0
C1720 C 0.92928 0.93903 0.27468 0.0
C1721 C 0.93584 0.9547 0.28862 0.0
C1722 C 0.93292 0.96884 0.26642 0.0
C1723 C 0.93972 0.98348 0.27846 0.0
C1724 C 0.94954 0.98412 0.31252 0.0
C1725 C 0.95235 0.97017 0.33503 0.0
C1726 C 0.94563 0.95547 0.32305 0.0
C1727 C 0.96359 0.89028 0.1771 0.0
C1728 C 0.9758 0.88552 0.20385 0.0
C1729 C 0.94952 0.89767 0.19146 0.0
C1730 C 0.94755 0.90069 0.23281 0.0
C1731 C 0.95922 0.89485 0.25974 0.0
C1732 C 0.97319 0.88728 0.2454 0.0
C1733 C 0.93496 0.91223 0.24705 0.0
C1734 C 0.94017 0.92678 0.26431 0.0
C1735 C 0.91827 0.90985 0.24056 0.0
C1736 C 0.91202 0.89462 0.22309 0.0
C1737 C 0.91624 0.87964 0.23992 0.0
C1738 C 0.91035 0.86532 0.22328 0.0
C1739 C 0.90014 0.86582 0.1899 0.0
C1740 C 0.89577 0.88064 0.17317 0.0
C1741 C 0.90164 0.895 0.18969 0.0
H1742 H 0.89558 0.85472 0.17707 0.0
H1743 H 0.955 0.99542 0.32136 0.0
H1744 H 0.58405 0.06082 0.7325 0.0
H1745 H 0.57704 0.07835 0.78852 0.0
H1746 H 0.62441 0.07191 0.83893 0.0
H1747 H 0.63162 0.05411 0.78236 0.0
H1748 H 0.60008 0.06697 0.89447 0.0
H1749 H 0.61439 0.10805 0.80109 0.0
H1750 H 0.61473 0.12213 0.73575 0.0
H1751 H 0.56371 0.12969 0.74355 0.0
H1752 H 0.56301 0.11545 0.80866 0.0
H1753 H 0.57398 0.11732 0.05326 0.0
H1754 H 0.59071 0.10974 0.99522 0.0
H1755 H 0.54864 0.11034 0.91916 0.0
H1756 H 0.53202 0.11798 0.97716 0.0
H1757 H 0.57542 0.12113 0.87869 0.0
H1758 H 0.56017 0.0754 0.9611 0.0
H1759 H 0.55829 0.0599 0.02433 0.0
H1760 H 0.60976 0.06049 0.03543 0.0
H1761 H 0.61193 0.07599 0.97219 0.0
C1762 C 0.5931 0.06319 0.75522 0.0
C1763 C 0.6084 0.05598 0.75297 0.0
C1764 C 0.58908 0.07336 0.78717 0.0
C1765 C 0.60023 0.0766 0.81776 0.0
C1766 C 0.61564 0.06964 0.81549 0.0
C1767 C 0.61976 0.05952 0.78313 0.0
C1768 C 0.59517 0.08637 0.85319 0.0
C1769 C 0.59512 0.079 0.89121 0.0
C1770 C 0.58829 0.10191 0.8488 0.0
C1771 C 0.58865 0.1106 0.80973 0.0
C1772 C 0.60322 0.11262 0.78876 0.0
C1773 C 0.60348 0.12065 0.75177 0.0
C1774 C 0.58924 0.12679 0.73549 0.0
C1775 C 0.57473 0.12494 0.75621 0.0
C1776 C 0.5744 0.11691 0.7932 0.0
C1777 C 0.5685 0.11644 0.02376 0.0
C1778 C 0.55183 0.11843 0.01928 0.0
C1779 C 0.57799 0.11195 0.99076 0.0
C1780 C 0.57089 0.10927 0.95293 0.0
C1781 C 0.55439 0.11238 0.94798 0.0
C1782 C 0.54491 0.11682 0.98099 0.0
C1783 C 0.58013 0.10161 0.91965 0.0
C1784 C 0.58083 0.1093 0.88208 0.0
C1785 C 0.58747 0.08629 0.92427 0.0
C1786 C 0.5862 0.07701 0.96225 0.0
C1787 C 0.57107 0.07231 0.97719 0.0
C1788 C 0.56995 0.06351 0.01297 0.0
C1789 C 0.58389 0.05931 0.03401 0.0
C1790 C 0.59897 0.0638 0.01916 0.0
C1791 C 0.60016 0.07256 0.98331 0.0
H1792 H 0.58299 0.05251 0.06173 0.0
H1793 H 0.58947 0.13299 0.70684 0.0
H1794 H 0.38904 0.52769 0.47754 0.0
H1795 H 0.39914 0.54239 0.41864 0.0
H1796 H 0.40867 0.58388 0.49356 0.0
H1797 H 0.39813 0.56923 0.55221 0.0
H1798 H 0.3987 0.59337 0.4202 0.0
H1799 H 0.43811 0.55613 0.47165 0.0
H1800 H 0.44891 0.5297 0.49257 0.0
H1801 H 0.44088 0.51092 0.37376 0.0
H1802 H 0.42986 0.53715 0.35223 0.0
H1803 H 0.45784 0.62722 0.28337 0.0
H1804 H 0.44263 0.6172 0.34178 0.0
H1805 H 0.43282 0.57287 0.27809 0.0
H1806 H 0.44822 0.58255 0.22076 0.0
H1807 H 0.44357 0.5661 0.34895 0.0
H1808 H 0.40349 0.6028 0.29751 0.0
H1809 H 0.39303 0.62921 0.27561 0.0
H1810 H 0.40252 0.64896 0.3928 0.0
H1811 H 0.41323 0.6227 0.41525 0.0
C1812 C 0.39281 0.54012 0.48099 0.0
C1813 C 0.39264 0.54746 0.51902 0.0
C1814 C 0.39876 0.54846 0.44753 0.0
C1815 C 0.40499 0.56416 0.45176 0.0
C1816 C 0.40397 0.5718 0.48948 0.0
C1817 C 0.39789 0.56348 0.5229 0.0
C1818 C 0.41356 0.5721 0.41766 0.0
C1819 C 0.40862 0.58748 0.40484 0.0
C1820 C 0.42645 0.5644 0.39733 0.0
C1821 C 0.43301 0.54858 0.41043 0.0
C1822 C 0.43853 0.54633 0.45006 0.0
C1823 C 0.44472 0.53139 0.46201 0.0
C1824 C 0.44555 0.51865 0.43451 0.0
C1825 C 0.44023 0.52081 0.39501 0.0
C1826 C 0.43402 0.5357 0.38292 0.0
C1827 C 0.45224 0.61544 0.28175 0.0
C1828 C 0.45438 0.60563 0.24757 0.0
C1829 C 0.44351 0.60972 0.31511 0.0
C1830 C 0.43656 0.59422 0.31449 0.0
C1831 C 0.43817 0.58478 0.27963 0.0
C1832 C 0.44699 0.59036 0.24675 0.0
C1833 C 0.42844 0.58719 0.35055 0.0
C1834 C 0.43361 0.57201 0.36411 0.0
C1835 C 0.41578 0.59506 0.37135 0.0
C1836 C 0.40932 0.61083 0.35791 0.0
C1837 C 0.40346 0.61281 0.31851 0.0
C1838 C 0.39747 0.62775 0.30601 0.0
C1839 C 0.39716 0.64077 0.33276 0.0
C1840 C 0.40279 0.63887 0.37209 0.0
C1841 C 0.40882 0.62396 0.38473 0.0
H1842 H 0.39251 0.65232 0.32303 0.0
H1843 H 0.45031 0.5071 0.44377 0.0
H1844 H 0.97795 0.39206 0.97986 0.0
H1845 H 0.96385 0.40175 0.91972 0.0
H1846 H 0.91941 0.40351 0.98688 0.0
H1847 H 0.93354 0.39343 0.04676 0.0
H1848 H 0.91395 0.3943 0.90981 0.0
H1849 H 0.94315 0.43707 0.97624 0.0
H1850 H 0.96715 0.45028 0.00489 0.0
H1851 H 0.99047 0.44852 0.8896 0.0
H1852 H 0.96669 0.43512 0.86033 0.0
H1853 H 0.87609 0.45214 0.77714 0.0
H1854 H 0.88658 0.43704 0.83507 0.0
H1855 H 0.93343 0.43538 0.77917 0.0
H1856 H 0.92323 0.45061 0.72218 0.0
H1857 H 0.9363 0.44495 0.85332 0.0
H1858 H 0.90819 0.40171 0.78653 0.0
H1859 H 0.88468 0.38815 0.75644 0.0
H1860 H 0.85979 0.39064 0.86963 0.0
H1861 H 0.88309 0.40442 0.90026 0.0
C1862 C 0.96507 0.39398 0.9812 0.0
C1863 C 0.95672 0.39182 0.01748 0.0
C1864 C 0.95705 0.39971 0.94708 0.0
C1865 C 0.94062 0.4037 0.94899 0.0
C1866 C 0.93208 0.40057 0.98468 0.0
C1867 C 0.9401 0.39473 0.01876 0.0
C1868 C 0.93267 0.41216 0.91484 0.0
C1869 C 0.91873 0.40546 0.89769 0.0
C1870 C 0.93898 0.42666 0.89867 0.0
C1871 C 0.95322 0.43487 0.91624 0.0
C1872 C 0.95344 0.43938 0.95707 0.0
C1873 C 0.967 0.44691 0.97339 0.0
C1874 C 0.98038 0.45008 0.94916 0.0
C1875 C 0.98015 0.44592 0.90841 0.0
C1876 C 0.96663 0.43838 0.89193 0.0
C1877 C 0.88857 0.44838 0.77707 0.0
C1878 C 0.89883 0.4527 0.74514 0.0
C1879 C 0.89455 0.43972 0.81015 0.0
C1880 C 0.91082 0.43504 0.81154 0.0
C1881 C 0.92088 0.43893 0.77904 0.0
C1882 C 0.91499 0.44765 0.74635 0.0
C1883 C 0.91781 0.42688 0.84743 0.0
C1884 C 0.9315 0.43375 0.86527 0.0
C1885 C 0.91132 0.41253 0.86392 0.0
C1886 C 0.89731 0.40426 0.84556 0.0
C1887 C 0.89765 0.39949 0.80491 0.0
C1888 C 0.88438 0.39174 0.78778 0.0
C1889 C 0.87073 0.38858 0.81107 0.0
C1890 C 0.87036 0.39312 0.85159 0.0
C1891 C 0.8836 0.40089 0.86887 0.0
H1892 H 0.86047 0.38257 0.79776 0.0
H1893 H 0.99091 0.45584 0.96187 0.0
H1894 H 0.05356 0.86986 0.28212 0.0
H1895 H 0.07185 0.87628 0.33812 0.0
H1896 H 0.07567 0.92525 0.29553 0.0
H1897 H 0.05764 0.91903 0.24006 0.0
H1898 H 0.10484 0.91377 0.31956 0.0
H1899 H 0.05 0.91581 0.37127 0.0
H1900 H 0.02331 0.90428 0.38641 0.0
H1901 H 0.04543 0.8673 0.45797 0.0
H1902 H 0.07228 0.87855 0.44289 0.0
H1903 H 0.11751 0.96759 0.48036 0.0
H1904 H 0.10993 0.95098 0.42249 0.0
H1905 H 0.11148 0.90843 0.49714 0.0
H1906 H 0.11902 0.92522 0.55528 0.0
H1907 H 0.08339 0.91062 0.45872 0.0
H1908 H 0.13799 0.91291 0.41878 0.0
H1909 H 0.16434 0.92541 0.40501 0.0
H1910 H 0.1432 0.95436 0.31189 0.0
H1911 H 0.11666 0.94225 0.32553 0.0
C1912 C 0.05842 0.88195 0.28455 0.0
C1913 C 0.05398 0.89395 0.25674 0.0
C1914 C 0.06885 0.88561 0.31659 0.0
C1915 C 0.07509 0.90129 0.32118 0.0
C1916 C 0.07108 0.91307 0.29265 0.0
C1917 C 0.06063 0.90949 0.26101 0.0
C1918 C 0.08506 0.90596 0.35661 0.0
C1919 C 0.10019 0.91307 0.35003 0.0
C1920 C 0.07923 0.90463 0.39651 0.0
C1921 C 0.06312 0.89788 0.40554 0.0
C1922 C 0.04917 0.90514 0.38996 0.0
C1923 C 0.03402 0.89868 0.39859 0.0
C1924 C 0.03268 0.88502 0.42301 0.0
C1925 C 0.04649 0.87784 0.43898 0.0
C1926 C 0.06167 0.88426 0.43042 0.0
C1927 C 0.11686 0.95461 0.48391 0.0
C1928 C 0.11916 0.94759 0.52186 0.0
C1929 C 0.11247 0.94511 0.4509 0.0
C1930 C 0.11023 0.92839 0.45525 0.0
C1931 C 0.11323 0.92127 0.49294 0.0
C1932 C 0.1177 0.93081 0.52599 0.0
C1933 C 0.10302 0.91889 0.42165 0.0
C1934 C 0.08834 0.91093 0.4285 0.0
C1935 C 0.1093 0.91946 0.38201 0.0
C1936 C 0.12529 0.9267 0.37334 0.0
C1937 C 0.13892 0.92201 0.39553 0.0
C1938 C 0.1539 0.92902 0.38773 0.0
C1939 C 0.15544 0.94068 0.35762 0.0
C1940 C 0.142 0.94532 0.33519 0.0
C1941 C 0.12698 0.93837 0.34291 0.0
H1942 H 0.16704 0.9461 0.35164 0.0
H1943 H 0.02094 0.88003 0.42967 0.0
H1944 H 0.53497 0.38442 0.02389 0.0
H1945 H 0.54955 0.39565 0.08201 0.0
H1946 H 0.58298 0.41888 1.0013 0.0
H1947 H 0.56831 0.40787 0.94354 0.0
H1948 H 0.58049 0.39591 0.11299 0.0
H1949 H 0.589 0.45633 0.0319 0.0
H1950 H 0.5766 0.47211 0.97707 0.0
H1951 H 0.53071 0.45068 0.00276 0.0
H1952 H 0.54286 0.43472 0.05759 0.0
H1953 H 0.62655 0.44873 0.2417 0.0
H1954 H 0.61747 0.43333 0.18259 0.0
H1955 H 0.57119 0.45674 0.18928 0.0
H1956 H 0.58009 0.47212 0.2474 0.0
H1957 H 0.58117 0.45579 0.11399 0.0
H1958 H 0.57673 0.41839 0.22437 0.0
H1959 H 0.58676 0.40252 0.28188 0.0
H1960 H 0.62036 0.37829 0.20433 0.0
H1961 H 0.61066 0.39419 0.14643 0.0
C1962 C 0.54572 0.39153 0.01882 0.0
C1963 C 0.55058 0.39533 0.97952 0.0
C1964 C 0.55401 0.39798 0.05191 0.0
C1965 C 0.56719 0.40835 0.04598 0.0
C1966 C 0.57271 0.41112 0.00662 0.0
C1967 C 0.56442 0.40474 0.97369 0.0
C1968 C 0.57423 0.41745 0.08036 0.0
C1969 C 0.58074 0.40899 0.11314 0.0
C1970 C 0.57436 0.43453 0.08092 0.0
C1971 C 0.56688 0.44422 0.04844 0.0
C1972 C 0.57626 0.455 0.02581 0.0
C1973 C 0.56929 0.46392 0.99467 0.0
C1974 C 0.55292 0.46225 0.98616 0.0
C1975 C 0.54342 0.45183 0.00913 0.0
C1976 C 0.55036 0.4428 0.04012 0.0
C1977 C 0.61448 0.45063 0.23037 0.0
C1978 C 0.60404 0.4616 0.24951 0.0
C1979 C 0.60928 0.44177 0.19675 0.0
C1980 C 0.59358 0.44377 0.18169 0.0
C1981 C 0.58333 0.45496 0.20029 0.0
C1982 C 0.58846 0.46371 0.23375 0.0
C1983 C 0.58757 0.43429 0.14671 0.0
C1984 C 0.58117 0.44269 0.11373 0.0
C1985 C 0.58729 0.41719 0.14647 0.0
C1986 C 0.5931 0.40761 0.18118 0.0
C1987 C 0.58634 0.40977 0.21965 0.0
C1988 C 0.59196 0.40076 0.25231 0.0
C1989 C 0.60423 0.38944 0.24679 0.0
C1990 C 0.61088 0.38709 0.20857 0.0
C1991 C 0.60532 0.39609 0.17583 0.0
H1992 H 0.60855 0.38247 0.2721 0.0
H1993 H 0.54757 0.46914 0.96198 0.0
H1994 H 0.12206 0.58173 0.45661 0.0
H1995 H 0.11131 0.59676 0.51476 0.0
H1996 H 0.10387 0.55194 0.5778 0.0
H1997 H 0.1147 0.53705 0.52023 0.0
H1998 H 0.07533 0.57184 0.55772 0.0
H1999 H 0.12862 0.57493 0.61722 0.0
H2000 H 0.15718 0.58294 0.61815 0.0
H2001 H 0.14364 0.63271 0.60642 0.0
H2002 H 0.11498 0.62496 0.60481 0.0
H2003 H 0.0434 0.58192 0.74729 0.0
H2004 H 0.06058 0.5759 0.69035 0.0
H2005 H 0.06869 0.62669 0.6712 0.0
H2006 H 0.05145 0.63298 0.72956 0.0
H2007 H 0.0967 0.60896 0.66202 0.0
H2008 H 0.04377 0.60692 0.60999 0.0
H2009 H 0.01502 0.59983 0.60575 0.0
H2010 H 0.02728 0.54962 0.59767 0.0
H2011 H 0.05604 0.55633 0.60292 0.0
C2012 C 0.11893 0.57523 0.4838 0.0
C2013 C 0.11943 0.55829 0.48443 0.0
C2014 C 0.11267 0.58379 0.5168 0.0
C2015 C 0.10674 0.57544 0.55048 0.0
C2016 C 0.10844 0.55861 0.55219 0.0
C2017 C 0.11476 0.55012 0.51949 0.0
C2018 C 0.09644 0.58362 0.58079 0.0
C2019 C 0.08 0.57987 0.58074 0.0
C2020 C 0.10245 0.59472 0.60941 0.0
C2021 C 0.11966 0.59935 0.61033 0.0
C2022 C 0.13173 0.58757 0.61435 0.0
C2023 C 0.14794 0.59206 0.61513 0.0
C2024 C 0.15223 0.60832 0.61219 0.0
C2025 C 0.14031 0.62012 0.6086 0.0
C2026 C 0.12408 0.61568 0.60778 0.0
C2027 C 0.04874 0.59193 0.73117 0.0
C2028 C 0.04586 0.608 0.74302 0.0
C2029 C 0.05859 0.58842 0.69837 0.0
C2030 C 0.06574 0.60082 0.67598 0.0
C2031 C 0.06322 0.61692 0.68793 0.0
C2032 C 0.05331 0.62049 0.72114 0.0
C2033 C 0.07564 0.59657 0.64009 0.0
C2034 C 0.09194 0.60111 0.63875 0.0
C2035 C 0.06949 0.5863 0.60963 0.0
C2036 C 0.05211 0.58215 0.60713 0.0
C2037 C 0.04034 0.59435 0.60778 0.0
C2038 C 0.02402 0.59039 0.60518 0.0
C2039 C 0.01931 0.57427 0.60157 0.0
C2040 C 0.03091 0.56208 0.60061 0.0
C2041 C 0.04723 0.56596 0.60339 0.0
H2042 H 0.00667 0.57126 0.59938 0.0
H2043 H 0.16478 0.61178 0.61283 0.0
H2044 H 0.91822 0.05826 0.26061 0.0
H2045 H 0.92507 0.07584 0.20503 0.0
H2046 H 0.87604 0.07412 0.16284 0.0
H2047 H 0.86895 0.0561 0.21916 0.0
H2048 H 0.89813 0.06929 0.10172 0.0
H2049 H 0.88987 0.10874 0.20291 0.0
H2050 H 0.8919 0.12113 0.27022 0.0
H2051 H 0.94323 0.12419 0.25769 0.0
H2052 H 0.94155 0.1116 0.19054 0.0
H2053 H 0.9293 0.12173 0.9499 0.0
H2054 H 0.91193 0.11424 0.00694 0.0
H2055 H 0.95403 0.10524 0.07943 0.0
H2056 H 0.97129 0.11262 0.02249 0.0
H2057 H 0.92908 0.11979 0.12317 0.0
H2058 H 0.93736 0.07544 0.03043 0.0
H2059 H 0.93619 0.06212 0.96399 0.0
H2060 H 0.88487 0.06814 0.96177 0.0
H2061 H 0.88582 0.08167 0.02802 0.0
C2062 C 0.90876 0.0616 0.2398 0.0
C2063 C 0.89299 0.05568 0.24446 0.0
C2064 C 0.91272 0.07182 0.20806 0.0
C2065 C 0.90104 0.07654 0.18003 0.0
C2066 C 0.88522 0.07073 0.18434 0.0
C2067 C 0.88118 0.06047 0.21654 0.0
C2068 C 0.90596 0.08682 0.14542 0.0
C2069 C 0.90445 0.0806 0.10629 0.0
C2070 C 0.91447 0.10145 0.15135 0.0
C2071 C 0.91558 0.10916 0.19167 0.0
C2072 C 0.90161 0.11196 0.21458 0.0
C2073 C 0.9027 0.11904 0.25271 0.0
C2074 C 0.91769 0.12343 0.26823 0.0
C2075 C 0.93162 0.12079 0.24561 0.0
C2076 C 0.93061 0.11371 0.20747 0.0
C2077 C 0.93475 0.11868 0.97851 0.0
C2078 C 0.95156 0.11797 0.98225 0.0
C2079 C 0.92486 0.11428 0.0109 0.0
C2080 C 0.93169 0.10911 0.0474 0.0
C2081 C 0.9485 0.1093 0.0517 0.0
C2082 C 0.95835 0.11355 0.01929 0.0
C2083 C 0.92161 0.102 0.07987 0.0
C2084 C 0.92226 0.10878 0.11853 0.0
C2085 C 0.91232 0.08789 0.07354 0.0
C2086 C 0.9117 0.07973 0.03384 0.0
C2087 C 0.92587 0.07402 0.01557 0.0
C2088 C 0.92524 0.06642 0.97801 0.0
C2089 C 0.91047 0.06434 0.9586 0.0
C2090 C 0.89631 0.0698 0.97679 0.0
C2091 C 0.89689 0.07743 0.01435 0.0
H2092 H 0.91 0.05846 0.92952 0.0
H2093 H 0.91851 0.1289 0.29777 0.0
H2094 H 0.38352 0.92999 0.458 0.0
H2095 H 0.39138 0.91383 0.51678 0.0
H2096 H 0.40263 0.95746 0.58188 0.0
H2097 H 0.39473 0.97355 0.52325 0.0
H2098 H 0.42727 0.93635 0.58429 0.0
H2099 H 0.37008 0.93511 0.60675 0.0
H2100 H 0.34174 0.93005 0.58877 0.0
H2101 H 0.3522 0.87982 0.57084 0.0
H2102 H 0.38067 0.88463 0.58816 0.0
H2103 H 0.42488 0.90435 0.7899 0.0
H2104 H 0.4092 0.9121 0.73065 0.0
H2105 H 0.44117 0.88449 0.65503 0.0
H2106 H 0.45665 0.87626 0.71462 0.0
H2107 H 0.39432 0.8958 0.65711 0.0
H2108 H 0.45464 0.91373 0.5913 0.0
H2109 H 0.48235 0.91855 0.61553 0.0
H2110 H 0.46379 0.93756 0.72658 0.0
H2111 H 0.43605 0.93312 0.70269 0.0
C2112 C 0.38716 0.93608 0.48539 0.0
C2113 C 0.38825 0.95298 0.48657 0.0
C2114 C 0.39176 0.92686 0.51881 0.0
C2115 C 0.3976 0.93443 0.55377 0.0
C2116 C 0.39819 0.95136 0.55524 0.0
C2117 C 0.39355 0.96054 0.52197 0.0
C2118 C 0.40403 0.92481 0.58795 0.0
C2119 C 0.42003 0.92745 0.59994 0.0
C2120 C 0.39465 0.91318 0.60862 0.0
C2121 C 0.37754 0.91026 0.59832 0.0
C2122 C 0.36637 0.92301 0.59863 0.0
C2123 C 0.35028 0.92018 0.58863 0.0
C2124 C 0.34518 0.90463 0.57856 0.0
C2125 C 0.35617 0.89186 0.57858 0.0
C2126 C 0.37228 0.89463 0.58852 0.0
C2127 C 0.42817 0.89942 0.7608 0.0
C2128 C 0.44196 0.88973 0.7567 0.0
C2129 C 0.41916 0.90379 0.72704 0.0
C2130 C 0.42405 0.8989 0.68852 0.0
C2131 C 0.43715 0.88827 0.6846 0.0
C2132 C 0.44597 0.88357 0.71859 0.0
C2133 C 0.41745 0.90732 0.65281 0.0
C2134 C 0.40152 0.90452 0.64076 0.0
C2135 C 0.42675 0.91899 0.63233 0.0
C2136 C 0.44333 0.92292 0.64539 0.0
C2137 C 0.45651 0.91909 0.62069 0.0
C2138 C 0.4722 0.92173 0.6344 0.0
C2139 C 0.47481 0.92825 0.67269 0.0
C2140 C 0.46175 0.93244 0.69703 0.0
C2141 C 0.44605 0.92988 0.68341 0.0
H2142 H 0.48694 0.93003 0.68362 0.0
H2143 H 0.33272 0.90246 0.57083 0.0
H2144 H 0.46898 0.88811 0.02873 0.0
H2145 H 0.45259 0.89447 0.08796 0.0
H2146 H 0.40946 0.88912 0.01688 0.0
H2147 H 0.426 0.88283 0.95746 0.0
H2148 H 0.41 0.91755 0.05489 0.0
H2149 H 0.41709 0.86311 0.09402 0.0
H2150 H 0.43194 0.83785 0.10644 0.0
H2151 H 0.45996 0.86136 0.19783 0.0
H2152 H 0.44548 0.88685 0.18552 0.0
H2153 H 0.36966 0.94556 0.23273 0.0
H2154 H 0.3764 0.9271 0.17722 0.0
H2155 H 0.42571 0.92572 0.2175 0.0
H2156 H 0.41913 0.94379 0.27268 0.0
H2157 H 0.4162 0.89626 0.19352 0.0
H2158 H 0.41352 0.95129 0.14225 0.0
H2159 H 0.39984 0.9771 0.12822 0.0
H2160 H 0.36403 0.95219 0.05873 0.0
H2161 H 0.37743 0.92621 0.07278 0.0
C2162 C 0.45599 0.88771 0.02628 0.0
C2163 C 0.44867 0.88471 0.98903 0.0
C2164 C 0.44661 0.89137 0.06004 0.0
C2165 C 0.42975 0.89215 0.05702 0.0
C2166 C 0.42242 0.88849 0.02 0.0
C2167 C 0.43182 0.88476 0.98624 0.0
C2168 C 0.42013 0.89858 0.09126 0.0
C2169 C 0.41099 0.91262 0.08504 0.0
C2170 C 0.42159 0.89231 0.13071 0.0
C2171 C 0.43022 0.87694 0.13869 0.0
C2172 C 0.42648 0.86293 0.11661 0.0
C2173 C 0.43483 0.84856 0.12364 0.0
C2174 C 0.44689 0.84801 0.15287 0.0
C2175 C 0.45061 0.86181 0.1752 0.0
C2176 C 0.44231 0.87622 0.16825 0.0
C2177 C 0.38188 0.94115 0.22997 0.0
C2178 C 0.39387 0.94633 0.25694 0.0
C2179 C 0.38573 0.93063 0.19821 0.0
C2180 C 0.40161 0.92511 0.19297 0.0
C2181 C 0.41338 0.92975 0.22088 0.0
C2182 C 0.40958 0.94024 0.25234 0.0
C2183 C 0.40652 0.91546 0.15719 0.0
C2184 C 0.41482 0.90087 0.16317 0.0
C2185 C 0.40435 0.92122 0.11747 0.0
C2186 C 0.39633 0.93682 0.10899 0.0
C2187 C 0.40266 0.95132 0.12424 0.0
C2188 C 0.39497 0.96597 0.11624 0.0
C2189 C 0.38104 0.96628 0.09272 0.0
C2190 C 0.3748 0.95193 0.07704 0.0
C2191 C 0.38243 0.93724 0.08499 0.0
H2192 H 0.37511 0.97763 0.08655 0.0
H2193 H 0.45335 0.83687 0.15824 0.0
H2194 H 0.56841 0.40645 0.78444 0.0
H2195 H 0.58454 0.41485 0.72671 0.0
H2196 H 0.5566 0.38376 0.64942 0.0
H2197 H 0.54073 0.37482 0.708 0.0
H2198 H 0.58779 0.38586 0.62306 0.0
H2199 H 0.54609 0.42269 0.65924 0.0
H2200 H 0.53005 0.43986 0.70476 0.0
H2201 H 0.57183 0.4685 0.73074 0.0
H2202 H 0.58819 0.45133 0.6858 0.0
H2203 H 0.59457 0.43575 0.44588 0.0
H2204 H 0.58655 0.41892 0.50319 0.0
H2205 H 0.61768 0.4466 0.58086 0.0
H2206 H 0.62584 0.46334 0.5232 0.0
H2207 H 0.58557 0.44532 0.6063 0.0
H2208 H 0.62655 0.40828 0.56273 0.0
H2209 H 0.64073 0.39107 0.51359 0.0
H2210 H 0.59785 0.36305 0.49615 0.0
H2211 H 0.58333 0.38024 0.54477 0.0
C2212 C 0.56605 0.40102 0.75534 0.0
C2213 C 0.55335 0.39003 0.75053 0.0
C2214 C 0.5752 0.4059 0.72231 0.0
C2215 C 0.57151 0.40028 0.68352 0.0
C2216 C 0.55961 0.38833 0.67904 0.0
C2217 C 0.55059 0.38318 0.71245 0.0
C2218 C 0.57894 0.40819 0.6478 0.0
C2219 C 0.58719 0.39883 0.61917 0.0
C2220 C 0.57822 0.42516 0.6427 0.0
C2221 C 0.5684 0.43561 0.6695 0.0
C2222 C 0.55189 0.43257 0.6749 0.0
C2223 C 0.54274 0.44231 0.70058 0.0
C2224 C 0.54994 0.45522 0.72076 0.0
C2225 C 0.56629 0.45846 0.71516 0.0
C2226 C 0.5755 0.44874 0.68957 0.0
C2227 C 0.60003 0.43788 0.47502 0.0
C2228 C 0.61085 0.45071 0.48036 0.0
C2229 C 0.59546 0.42829 0.50769 0.0
C2230 C 0.60154 0.43147 0.54631 0.0
C2231 C 0.6129 0.4439 0.55129 0.0
C2232 C 0.61762 0.45338 0.51844 0.0
C2233 C 0.59471 0.42306 0.58193 0.0
C2234 C 0.58636 0.43235 0.61038 0.0
C2235 C 0.59507 0.40606 0.58621 0.0
C2236 C 0.60381 0.39564 0.55716 0.0
C2237 C 0.6201 0.39853 0.54818 0.0
C2238 C 0.62821 0.38876 0.52046 0.0
C2239 C 0.62019 0.376 0.50169 0.0
C2240 C 0.60404 0.37295 0.51069 0.0
C2241 C 0.59588 0.38269 0.53837 0.0
H2242 H 0.62648 0.36845 0.48023 0.0
H2243 H 0.54284 0.46274 0.74064 0.0
H2244 H 0.04085 0.62516 0.0154 0.0
H2245 H 0.05824 0.61713 0.07183 0.0
H2246 H 0.08411 0.5848 0.99298 0.0
H2247 H 0.06666 0.59268 0.93706 0.0
H2248 H 0.07404 0.5694 0.05797 0.0
H2249 H 0.10184 0.61894 0.03234 0.0
H2250 H 0.10441 0.64826 0.02172 0.0
H2251 H 0.08558 0.65714 0.14012 0.0
H2252 H 0.08268 0.62786 0.15125 0.0
H2253 H 0.129 0.54328 0.20835 0.0
H2254 H 0.12065 0.55763 0.14692 0.0
H2255 H 0.08764 0.58643 0.21686 0.0
H2256 H 0.0956 0.57191 0.27774 0.0
H2257 H 0.10383 0.60407 0.15425 0.0
H2258 H 0.07287 0.55592 0.17674 0.0
H2259 H 0.06817 0.52691 0.18791 0.0
H2260 H 0.09134 0.51588 0.07563 0.0
H2261 H 0.09649 0.54486 0.06418 0.0
C2262 C 0.05051 0.61663 0.01014 0.0
C2263 C 0.05239 0.60941 0.97222 0.0
C2264 C 0.06045 0.61205 0.04227 0.0
C2265 C 0.0725 0.60032 0.03669 0.0
C2266 C 0.07487 0.59379 0.99812 0.0
C2267 C 0.06493 0.59832 0.9662 0.0
C2268 C 0.08161 0.59368 0.07152 0.0
C2269 C 0.08087 0.57698 0.07842 0.0
C2270 C 0.09012 0.60358 0.09901 0.0
C2271 C 0.09192 0.62119 0.09249 0.0
C2272 C 0.09813 0.62714 0.056 0.0
C2273 C 0.09967 0.64375 0.04991 0.0
C2274 C 0.09513 0.65455 0.08019 0.0
C2275 C 0.08908 0.64876 0.11667 0.0
C2276 C 0.0875 0.63215 0.12291 0.0
C2277 C 0.12029 0.55296 0.21062 0.0
C2278 C 0.11289 0.55648 0.24762 0.0
C2279 C 0.11548 0.56109 0.1756 0.0
C2280 C 0.10347 0.57304 0.17739 0.0
C2281 C 0.09695 0.57731 0.21483 0.0
C2282 C 0.10147 0.56897 0.24952 0.0
C2283 C 0.09635 0.57986 0.14013 0.0
C2284 C 0.09731 0.59654 0.13311 0.0
C2285 C 0.08792 0.56999 0.11256 0.0
C2286 C 0.0853 0.55254 0.11992 0.0
C2287 C 0.07721 0.5473 0.15476 0.0
C2288 C 0.07445 0.53087 0.16112 0.0
C2289 C 0.07951 0.51957 0.13257 0.0
C2290 C 0.08748 0.52466 0.09777 0.0
C2291 C 0.09035 0.54108 0.09136 0.0
H2292 H 0.07702 0.50691 0.1371 0.0
H2293 H 0.09633 0.66741 0.07541 0.0
H2294 H 0.95341 0.13099 0.71965 0.0
H2295 H 0.93762 0.12266 0.66048 0.0
H2296 H 0.93134 0.07541 0.71242 0.0
H2297 H 0.94709 0.08345 0.7706 0.0
H2298 H 0.9418 0.07302 0.63734 0.0
H2299 H 0.90039 0.10366 0.70668 0.0
H2300 H 0.88888 0.12818 0.73745 0.0
H2301 H 0.89342 0.15326 0.62496 0.0
H2302 H 0.90516 0.12894 0.59365 0.0
H2303 H 0.88612 0.034 0.51643 0.0
H2304 H 0.89688 0.04832 0.57506 0.0
H2305 H 0.90004 0.09203 0.5051 0.0
H2306 H 0.88899 0.07764 0.44648 0.0
H2307 H 0.89225 0.09861 0.58402 0.0
H2308 H 0.93341 0.06924 0.51426 0.0
H2309 H 0.94669 0.04588 0.48218 0.0
H2310 H 0.94386 0.01951 0.59312 0.0
H2311 H 0.93064 0.04274 0.62593 0.0
C2312 C 0.94848 0.1189 0.71858 0.0
C2313 C 0.95169 0.10786 0.74974 0.0
C2314 C 0.93944 0.11415 0.68478 0.0
C2315 C 0.93331 0.09835 0.68185 0.0
C2316 C 0.93603 0.08759 0.71367 0.0
C2317 C 0.94507 0.09225 0.74706 0.0
C2318 C 0.92483 0.09243 0.64509 0.0
C2319 C 0.93086 0.07854 0.62605 0.0
C2320 C 0.91092 0.09996 0.62917 0.0
C2321 C 0.90382 0.11454 0.64796 0.0
C2322 C 0.89906 0.11445 0.6886 0.0
C2323 C 0.89246 0.1283 0.70612 0.0
C2324 C 0.89046 0.14228 0.68321 0.0
C2325 C 0.895 0.14243 0.64269 0.0
C2326 C 0.90161 0.12861 0.62504 0.0
C2327 C 0.88848 0.04682 0.51418 0.0
C2328 C 0.88646 0.05483 0.47737 0.0
C2329 C 0.89485 0.05495 0.54744 0.0
C2330 C 0.8996 0.07118 0.54428 0.0
C2331 C 0.8965 0.07952 0.50827 0.0
C2332 C 0.89005 0.07136 0.47494 0.0
C2333 C 0.90893 0.07889 0.57742 0.0
C2334 C 0.90319 0.09313 0.59542 0.0
C2335 C 0.92325 0.07181 0.59229 0.0
C2336 C 0.9309 0.05768 0.57245 0.0
C2337 C 0.93552 0.05842 0.53174 0.0
C2338 C 0.94309 0.04522 0.51346 0.0
C2339 C 0.94604 0.0312 0.53553 0.0
C2340 C 0.94153 0.03037 0.57602 0.0
C2341 C 0.93406 0.04356 0.59451 0.0
H2342 H 0.95187 0.02099 0.52128 0.0
H2343 H 0.88536 0.153 0.69682 0.0
H2344 H 0.47431 0.61711 0.97421 0.0
H2345 H 0.45843 0.60917 0.91539 0.0
H2346 H 0.41543 0.60895 0.98836 0.0
H2347 H 0.43149 0.61673 0.04742 0.0
H2348 H 0.419 0.58105 0.94907 0.0
H2349 H 0.42024 0.63653 0.9115 0.0
H2350 H 0.43256 0.66307 0.89848 0.0
H2351 H 0.46178 0.64238 0.80508 0.0
H2352 H 0.44981 0.61565 0.81791 0.0
H2353 H 0.37522 0.55443 0.77562 0.0
H2354 H 0.38323 0.57212 0.83155 0.0
H2355 H 0.43141 0.57451 0.78369 0.0
H2356 H 0.42361 0.55693 0.7282 0.0
H2357 H 0.42087 0.60417 0.81144 0.0
H2358 H 0.42413 0.54892 0.85729 0.0
H2359 H 0.41345 0.52166 0.87029 0.0
H2360 H 0.37719 0.54163 0.9479 0.0
H2361 H 0.38756 0.56906 0.93494 0.0
C2362 C 0.46138 0.61592 0.9772 0.0
C2363 C 0.45402 0.61777 0.01493 0.0
C2364 C 0.4523 0.61137 0.94367 0.0
C2365 C 0.43568 0.60857 0.94729 0.0
C2366 C 0.42821 0.61112 0.98476 0.0
C2367 C 0.43732 0.61571 0.01835 0.0
C2368 C 0.42661 0.60131 0.91313 0.0
C2369 C 0.41904 0.58635 0.91921 0.0
C2370 C 0.42701 0.60796 0.87388 0.0
C2371 C 0.43417 0.62405 0.86584 0.0
C2372 C 0.42937 0.63761 0.88836 0.0
C2373 C 0.43628 0.6527 0.88098 0.0
C2374 C 0.44796 0.65441 0.85101 0.0
C2375 C 0.45273 0.64104 0.82829 0.0
C2376 C 0.44586 0.62592 0.83555 0.0
C2377 C 0.38746 0.5589 0.77678 0.0
C2378 C 0.39879 0.55416 0.74761 0.0
C2379 C 0.39203 0.56896 0.80879 0.0
C2380 C 0.40795 0.57456 0.81189 0.0
C2381 C 0.41906 0.57038 0.78188 0.0
C2382 C 0.41458 0.56023 0.75027 0.0
C2383 C 0.41348 0.58392 0.84749 0.0
C2384 C 0.42047 0.59915 0.84158 0.0
C2385 C 0.4127 0.57748 0.88687 0.0
C2386 C 0.40647 0.56103 0.89474 0.0
C2387 C 0.41379 0.54751 0.87684 0.0
C2388 C 0.40782 0.53203 0.88426 0.0
C2389 C 0.39461 0.52992 0.90979 0.0
C2390 C 0.38739 0.54329 0.92806 0.0
C2391 C 0.39331 0.5588 0.92071 0.0
H2392 H 0.39 0.51793 0.91551 0.0
H2393 H 0.4533 0.6661 0.84536 0.0
H2394 H 0.94439 0.41997 0.23347 0.0
H2395 H 0.92678 0.42613 0.2898 0.0
H2396 H 0.93313 0.37788 0.33565 0.0
H2397 H 0.95108 0.37157 0.27875 0.0
H2398 H 0.89867 0.41431 0.3171 0.0
H2399 H 0.93321 0.38139 0.44093 0.0
H2400 H 0.96035 0.37064 0.45476 0.0
H2401 H 0.98112 0.40669 0.37787 0.0
H2402 H 0.95413 0.41776 0.36402 0.0
H2403 H 0.88601 0.42852 0.55213 0.0
H2404 H 0.8941 0.41128 0.49523 0.0
H2405 H 0.89413 0.45291 0.4173 0.0
H2406 H 0.88597 0.46996 0.47393 0.0
H2407 H 0.92182 0.41346 0.45467 0.0
H2408 H 0.88665 0.44284 0.32175 0.0
H2409 H 0.85977 0.45429 0.30877 0.0
H2410 H 0.84 0.42605 0.40513 0.0
H2411 H 0.8667 0.41424 0.41834 0.0
C2412 C 0.94202 0.41056 0.25529 0.0
C2413 C 0.94932 0.3953 0.25172 0.0
C2414 C 0.93182 0.4141 0.28745 0.0
C2415 C 0.92868 0.40255 0.31722 0.0
C2416 C 0.93548 0.38706 0.31321 0.0
C2417 C 0.94569 0.38344 0.28063 0.0
C2418 C 0.91903 0.40734 0.35315 0.0
C2419 C 0.90371 0.4141 0.34722 0.0
C2420 C 0.92536 0.40666 0.39268 0.0
C2421 C 0.94165 0.40023 0.40103 0.0
C2422 C 0.94358 0.38702 0.42704 0.0
C2423 C 0.95893 0.38088 0.43489 0.0
C2424 C 0.97245 0.38793 0.41707 0.0
C2425 C 0.97064 0.40119 0.39151 0.0
C2426 C 0.95532 0.40739 0.38362 0.0
C2427 C 0.88719 0.4338 0.52244 0.0
C2428 C 0.88505 0.45046 0.517 0.0
C2429 C 0.89197 0.42401 0.49009 0.0
C2430 C 0.8946 0.43073 0.45178 0.0
C2431 C 0.89187 0.44732 0.44623 0.0
C2432 C 0.88717 0.45708 0.47853 0.0
C2433 C 0.90165 0.42094 0.41845 0.0
C2434 C 0.91652 0.41328 0.42483 0.0
C2435 C 0.89491 0.42083 0.37931 0.0
C2436 C 0.87873 0.42772 0.37118 0.0
C2437 C 0.87656 0.43899 0.34002 0.0
C2438 C 0.86135 0.44557 0.33266 0.0
C2439 C 0.8482 0.44093 0.35616 0.0
C2440 C 0.85021 0.42967 0.38702 0.0
C2441 C 0.86539 0.42305 0.3945 0.0
H2442 H 0.83644 0.44604 0.35043 0.0
H2443 H 0.98432 0.38315 0.42315 0.0
H2444 H 0.08049 0.94966 0.73708 0.0
H2445 H 0.07187 0.93445 0.79553 0.0
H2446 H 0.12059 0.93354 0.83996 0.0
H2447 H 0.12953 0.94897 0.78059 0.0
H2448 H 0.10358 0.90353 0.84962 0.0
H2449 H 0.09607 0.95944 0.88119 0.0
H2450 H 0.08699 0.98749 0.87135 0.0
H2451 H 0.03798 0.9714 0.86349 0.0
H2452 H 0.04682 0.94322 0.8721 0.0
H2453 H 0.07216 0.88362 0.04921 0.0
H2454 H 0.0872 0.89321 0.99007 0.0
H2455 H 0.04242 0.90265 0.92884 0.0
H2456 H 0.02751 0.89343 0.98806 0.0
H2457 H 0.06103 0.92903 0.93293 0.0
H2458 H 0.06816 0.87319 0.89707 0.0
H2459 H 0.07662 0.84505 0.90849 0.0
H2460 H 0.12543 0.86063 0.92529 0.0
H2461 H 0.11721 0.88891 0.91458 0.0
C2462 C 0.0895 0.94625 0.75902 0.0
C2463 C 0.10573 0.95077 0.75421 0.0
C2464 C 0.0845 0.93751 0.79255 0.0
C2465 C 0.09551 0.93307 0.82246 0.0
C2466 C 0.11187 0.93693 0.81727 0.0
C2467 C 0.11694 0.94576 0.78341 0.0
C2468 C 0.08949 0.925 0.85949 0.0
C2469 C 0.09448 0.90918 0.86833 0.0
C2470 C 0.07741 0.93227 0.8835 0.0
C2471 C 0.07212 0.9492 0.87719 0.0
C2472 C 0.08338 0.96186 0.87692 0.0
C2473 C 0.07828 0.97779 0.87156 0.0
C2474 C 0.06193 0.98123 0.86676 0.0
C2475 C 0.05065 0.96873 0.86718 0.0
C2476 C 0.0557 0.95278 0.87228 0.0
C2477 C 0.06562 0.88718 0.02245 0.0
C2478 C 0.04873 0.88761 0.02271 0.0
C2479 C 0.07419 0.89272 0.9888 0.0
C2480 C 0.06594 0.89873 0.95505 0.0
C2481 C 0.04904 0.89817 0.95458 0.0
C2482 C 0.04053 0.89274 0.98816 0.0
C2483 C 0.07459 0.90733 0.92221 0.0
C2484 C 0.07017 0.92335 0.91439 0.0
C2485 C 0.08707 0.90019 0.89923 0.0
C2486 C 0.09203 0.88319 0.90549 0.0
C2487 C 0.08067 0.87063 0.90357 0.0
C2488 C 0.08542 0.85465 0.90984 0.0
C2489 C 0.10154 0.85106 0.91774 0.0
C2490 C 0.11294 0.86343 0.91925 0.0
C2491 C 0.10825 0.87944 0.91305 0.0
H2492 H 0.1052 0.83868 0.92258 0.0
H2493 H 0.058 0.99357 0.86276 0.0
H2494 H 0.54227 0.08401 0.26463 0.0
H2495 H 0.55913 0.077 0.32152 0.0
H2496 H 0.58542 0.12158 0.3075 0.0
H2497 H 0.56774 0.12907 0.251 0.0
H2498 H 0.5883 0.07013 0.32683 0.0
H2499 H 0.60296 0.13152 0.39877 0.0
H2500 H 0.59141 0.15885 0.40509 0.0
H2501 H 0.54382 0.1394 0.39167 0.0
H2502 H 0.55509 0.11196 0.38573 0.0
H2503 H 0.63469 0.04686 0.49355 0.0
H2504 H 0.62833 0.06319 0.43384 0.0
H2505 H 0.58691 0.0828 0.49534 0.0
H2506 H 0.59381 0.06733 0.55522 0.0
H2507 H 0.597 0.10446 0.44718 0.0
H2508 H 0.58535 0.04756 0.4345 0.0
H2509 H 0.59198 0.01856 0.43359 0.0
H2510 H 0.62511 0.02636 0.33622 0.0
H2511 H 0.6188 0.05548 0.33694 0.0
C2512 C 0.5516 0.09239 0.27366 0.0
C2513 C 0.55373 0.10706 0.2532 0.0
C2514 C 0.56132 0.08833 0.30621 0.0
C2515 C 0.57369 0.09866 0.31894 0.0
C2516 C 0.57586 0.11344 0.29868 0.0
C2517 C 0.5658 0.11772 0.26636 0.0
C2518 C 0.58411 0.09354 0.35326 0.0
C2519 C 0.59031 0.07776 0.35293 0.0
C2520 C 0.5868 0.10335 0.38757 0.0
C2521 C 0.57989 0.11975 0.39124 0.0
C2522 C 0.59003 0.1331 0.3972 0.0
C2523 C 0.58354 0.1486 0.40073 0.0
C2524 C 0.5669 0.15087 0.3986 0.0
C2525 C 0.55671 0.13764 0.39312 0.0
C2526 C 0.56315 0.12212 0.38963 0.0
C2527 C 0.62451 0.05502 0.49446 0.0
C2528 C 0.61444 0.05551 0.52837 0.0
C2529 C 0.6208 0.06426 0.46034 0.0
C2530 C 0.60683 0.0739 0.45952 0.0
C2531 C 0.59766 0.07541 0.49484 0.0
C2532 C 0.6015 0.06641 0.52897 0.0
C2533 C 0.60053 0.08087 0.42124 0.0
C2534 C 0.59527 0.09701 0.42066 0.0
C2535 C 0.59798 0.07116 0.38671 0.0
C2536 C 0.60177 0.05369 0.38612 0.0
C2537 C 0.59412 0.04309 0.41307 0.0
C2538 C 0.59781 0.02664 0.41258 0.0
C2539 C 0.609 0.02063 0.38495 0.0
C2540 C 0.61648 0.03105 0.35768 0.0
C2541 C 0.61286 0.04752 0.35812 0.0
H2542 H 0.61184 0.00788 0.3846 0.0
H2543 H 0.56189 0.16288 0.40132 0.0
loop_
_geom_bond_atom_site_label_1
_geom_bond_atom_site_label_2
_geom_bond_distance
_geom_bond_site_symmetry_2
_ccdc_geom_bond_type
Co0 O3 1.970 . S
Co0 N17 1.989 . S
Co0 O25 1.967 . S
Co0 O32 1.920 . S
Co1 O4 1.966 . S
Co1 N10 2.022 . S
Co1 N18 1.993 . S
Co1 O26 1.941 . S
C2 O3 1.258 . S
C2 O4 1.263 . S
O3 Co0 1.970 . S
O3 C2 1.258 . S
O4 Co1 1.966 . S
O4 C2 1.263 . S
C5 O6 1.235 . S
C5 O32 1.289 . S
O6 C5 1.235 . S
C7 C9 1.400 . S
C7 N10 1.351 . S
C7 C12 1.501 . S
C8 C9 1.387 . S
C8 N11 1.341 . S
C9 C7 1.400 . S
C9 C8 1.387 . S
N10 Co1 2.022 . S
N10 C7 1.351 . S
N10 N11 1.365 . S
N11 C8 1.341 . S
N11 N10 1.365 . S
N11 H31 0.862 . S
C12 C7 1.501 . S
C12 H13 0.961 . S
C12 H14 0.961 . S
C12 H15 0.960 . S
H13 C12 0.961 . S
H14 C12 0.961 . S
H15 C12 0.960 . S
C16 N17 1.342 1_556 S
C16 C20 1.401 . S
C16 C21 1.499 . S
N17 Co0 1.989 . S
N17 C16 1.342 1_554 S
N17 N18 1.388 . S
N18 Co1 1.993 . S
N18 N17 1.388 . S
N18 C19 1.346 1_554 S
C19 N18 1.346 1_556 S
C19 C20 1.396 . S
C19 C29 1.510 . S
C20 C16 1.401 . S
C20 C19 1.396 . S
C21 C16 1.499 . S
C21 H22 0.959 . S
C21 H23 0.960 . S
C21 H24 0.961 . S
H22 C21 0.959 . S
H23 C21 0.960 . S
H24 C21 0.961 . S
O25 Co0 1.967 . S
O25 C33 1.258 . S
O26 Co1 1.941 . S
O26 C33 1.266 . S
H27 C29 0.959 . S
H28 C29 0.961 . S
C29 C19 1.510 . S
C29 H27 0.959 . S
C29 H28 0.961 . S
C29 H30 0.960 . S
H30 C29 0.960 . S
H31 N11 0.862 . S
O32 Co0 1.920 . S
O32 C5 1.289 . S
C33 O25 1.258 . S
C33 O26 1.266 . S
Co34 O37 1.970 . S
Co34 N51 1.989 . S
Co34 O59 1.967 . S
Co34 O66 1.920 . S
Co35 O38 1.966 . S
Co35 N44 2.022 . S
Co35 N52 1.993 . S
Co35 O60 1.941 . S
C36 O37 1.258 . S
C36 O38 1.263 . S
O37 Co34 1.970 . S
O37 C36 1.258 . S
O38 Co35 1.966 . S
O38 C36 1.263 . S
C39 O40 1.235 . S
C39 O66 1.289 . S
O40 C39 1.235 . S
C41 C43 1.400 . S
C41 N44 1.351 . S
C41 C46 1.501 . S
C42 C43 1.387 . S
C42 N45 1.341 . S
C43 C41 1.400 . S
C43 C42 1.387 . S
N44 Co35 2.022 . S
N44 C41 1.351 . S
N44 N45 1.365 . S
N45 C42 1.341 . S
N45 N44 1.365 . S
N45 H65 0.862 . S
C46 C41 1.501 . S
C46 H47 0.961 . S
C46 H48 0.961 . S
C46 H49 0.960 . S
H47 C46 0.961 . S
H48 C46 0.961 . S
H49 C46 0.960 . S
C50 N51 1.342 . S
C50 C54 1.401 . S
C50 C55 1.499 . S
N51 Co34 1.989 . S
N51 C50 1.342 . S
N51 N52 1.388 . S
N52 Co35 1.993 . S
N52 N51 1.388 . S
N52 C53 1.346 . S
C53 N52 1.346 . S
C53 C54 1.396 . S
C53 C63 1.510 . S
C54 C50 1.401 . S
C54 C53 1.396 . S
C55 C50 1.499 . S
C55 H56 0.959 . S
C55 H57 0.960 . S
C55 H58 0.961 . S
H56 C55 0.959 . S
H57 C55 0.960 . S
H58 C55 0.961 . S
O59 Co34 1.967 . S
O59 C67 1.258 . S
O60 Co35 1.941 . S
O60 C67 1.266 . S
H61 C63 0.959 . S
H62 C63 0.961 . S
C63 C53 1.510 . S
C63 H61 0.959 . S
C63 H62 0.961 . S
C63 H64 0.960 . S
H64 C63 0.960 . S
H65 N45 0.862 . S
O66 Co34 1.920 . S
O66 C39 1.289 . S
C67 O59 1.258 . S
C67 O60 1.266 . S
Co68 O71 1.970 1_655 S
Co68 N85 1.989 . S
Co68 O93 1.967 . S
Co68 O100 1.920 . S
Co69 O72 2.016 . S
Co69 N78 2.022 . S
Co69 N86 1.993 . S
Co69 O94 1.941 . S
C70 O71 1.258 . S
C70 O72 1.234 1_455 S
O71 Co68 1.970 1_455 S
O71 C70 1.258 . S
O72 Co69 2.016 . S
O72 C70 1.234 1_655 S
C73 O74 1.235 1_655 S
C73 O100 1.289 . S
O74 C73 1.235 1_455 S
C75 C77 1.400 . S
C75 N78 1.351 . S
C75 C80 1.501 1_655 S
C76 C77 1.387 . S
C76 N79 1.341 . S
C77 C75 1.400 . S
C77 C76 1.387 . S
N78 Co69 2.022 . S
N78 C75 1.351 . S
N78 N79 1.365 . S
N79 C76 1.341 . S
N79 N78 1.365 . S
N79 H99 0.862 . S
C80 C75 1.501 1_455 S
C80 H81 0.961 . S
C80 H82 0.961 . S
C80 H83 0.960 . S
H81 C80 0.961 . S
H82 C80 0.961 . S
H83 C80 0.960 . S
C84 N85 1.342 1_556 S
C84 C88 1.401 . S
C84 C89 1.499 . S
N85 Co68 1.989 . S
N85 C84 1.342 1_554 S
N85 N86 1.388 . S
N86 Co69 1.993 . S
N86 N85 1.388 . S
N86 C87 1.346 1_554 S
C87 N86 1.346 1_556 S
C87 C88 1.396 . S
C87 C97 1.510 . S
C88 C84 1.401 . S
C88 C87 1.396 . S
C89 C84 1.499 . S
C89 H90 0.959 . S
C89 H91 0.960 . S
C89 H92 0.961 . S
H90 C89 0.959 . S
H91 C89 0.960 . S
H92 C89 0.961 . S
O93 Co68 1.967 . S
O93 C101 1.258 . S
O94 Co69 1.941 . S
O94 C101 1.266 . S
H95 C97 0.959 . S
H96 C97 0.961 . S
C97 C87 1.510 . S
C97 H95 0.959 . S
C97 H96 0.961 . S
C97 H98 0.960 . S
H98 C97 0.960 . S
H99 N79 0.862 . S
O100 Co68 1.920 . S
O100 C73 1.289 . S
C101 O93 1.258 . S
C101 O94 1.266 . S
Co102 O105 1.970 1_565 S
Co102 N119 1.989 . S
Co102 O127 1.967 . S
Co102 O134 1.920 . S
Co103 O106 2.016 . S
Co103 N112 2.022 . S
Co103 N120 1.993 . S
Co103 O128 1.941 . S
C104 O105 1.258 . S
C104 O106 1.234 1_545 S
O105 Co102 1.970 1_545 S
O105 C104 1.258 . S
O106 Co103 2.016 . S
O106 C104 1.234 1_565 S
C107 O108 1.235 1_565 S
C107 O134 1.289 . S
O108 C107 1.235 1_545 S
C109 C111 1.400 . S
C109 N112 1.351 . S
C109 C114 1.501 1_565 S
C110 C111 1.387 . S
C110 N113 1.341 . S
C111 C109 1.400 . S
C111 C110 1.387 . S
N112 Co103 2.022 . S
N112 C109 1.351 . S
N112 N113 1.365 . S
N113 C110 1.341 . S
N113 N112 1.365 . S
N113 H133 0.862 . S
C114 C109 1.501 1_545 S
C114 H115 0.961 . S
C114 H116 0.961 . S
C114 H117 0.960 . S
H115 C114 0.961 . S
H116 C114 0.961 . S
H117 C114 0.960 . S
C118 N119 1.342 . S
C118 C122 1.401 . S
C118 C123 1.499 . S
N119 Co102 1.989 . S
N119 C118 1.342 . S
N119 N120 1.388 . S
N120 Co103 1.993 . S
N120 N119 1.388 . S
N120 C121 1.346 . S
C121 N120 1.346 . S
C121 C122 1.396 . S
C121 C131 1.510 . S
C122 C118 1.401 . S
C122 C121 1.396 . S
C123 C118 1.499 . S
C123 H124 0.959 . S
C123 H125 0.960 . S
C123 H126 0.961 . S
H124 C123 0.959 . S
H125 C123 0.960 . S
H126 C123 0.961 . S
O127 Co102 1.967 . S
O127 C135 1.258 . S
O128 Co103 1.941 . S
O128 C135 1.266 . S
H129 C131 0.959 . S
H130 C131 0.961 . S
C131 C121 1.510 . S
C131 H129 0.959 . S
C131 H130 0.961 . S
C131 H132 0.960 . S
H132 C131 0.960 . S
H133 N113 0.862 . S
O134 Co102 1.920 . S
O134 C107 1.289 . S
C135 O127 1.258 . S
C135 O128 1.266 . S
Co136 O139 1.970 . S
Co136 N153 1.989 . S
Co136 O161 1.967 . S
Co136 O168 1.920 . S
Co137 O140 1.966 . S
Co137 N146 2.022 . S
Co137 N154 1.993 . S
Co137 O162 1.941 . S
C138 O139 1.258 . S
C138 O140 1.263 . S
O139 Co136 1.970 . S
O139 C138 1.258 . S
O140 Co137 1.966 . S
O140 C138 1.263 . S
C141 O142 1.235 . S
C141 O168 1.289 . S
O142 C141 1.235 . S
C143 C145 1.400 . S
C143 N146 1.351 . S
C143 C148 1.501 . S
C144 C145 1.387 . S
C144 N147 1.341 . S
C145 C143 1.400 . S
C145 C144 1.387 . S
N146 Co137 2.022 . S
N146 C143 1.351 . S
N146 N147 1.365 . S
N147 C144 1.341 . S
N147 N146 1.365 . S
N147 H167 0.862 . S
C148 C143 1.501 . S
C148 H149 0.961 . S
C148 H150 0.961 . S
C148 H151 0.960 . S
H149 C148 0.961 . S
H150 C148 0.961 . S
H151 C148 0.960 . S
C152 N153 1.342 1_554 S
C152 C156 1.401 . S
C152 C157 1.499 . S
N153 Co136 1.989 . S
N153 C152 1.342 1_556 S
N153 N154 1.388 . S
N154 Co137 1.993 . S
N154 N153 1.388 . S
N154 C155 1.346 1_556 S
C155 N154 1.346 1_554 S
C155 C156 1.396 . S
C155 C165 1.510 . S
C156 C152 1.401 . S
C156 C155 1.396 . S
C157 C152 1.499 . S
C157 H158 0.959 . S
C157 H159 0.960 . S
C157 H160 0.961 . S
H158 C157 0.959 . S
H159 C157 0.960 . S
H160 C157 0.961 . S
O161 Co136 1.967 . S
O161 C169 1.258 . S
O162 Co137 1.941 . S
O162 C169 1.266 . S
H163 C165 0.959 . S
H164 C165 0.961 . S
C165 C155 1.510 . S
C165 H163 0.959 . S
C165 H164 0.961 . S
C165 H166 0.960 . S
H166 C165 0.960 . S
H167 N147 0.862 . S
O168 Co136 1.920 . S
O168 C141 1.289 . S
C169 O161 1.258 . S
C169 O162 1.266 . S
Co170 O173 1.970 . S
Co170 N187 1.989 . S
Co170 O195 1.967 . S
Co170 O202 1.920 . S
Co171 O174 1.966 . S
Co171 N180 2.022 . S
Co171 N188 1.993 . S
Co171 O196 1.941 . S
C172 O173 1.258 . S
C172 O174 1.263 . S
O173 Co170 1.970 . S
O173 C172 1.258 . S
O174 Co171 1.966 . S
O174 C172 1.263 . S
C175 O176 1.235 . S
C175 O202 1.289 . S
O176 C175 1.235 . S
C177 C179 1.400 . S
C177 N180 1.351 . S
C177 C182 1.501 . S
C178 C179 1.387 . S
C178 N181 1.341 . S
C179 C177 1.400 . S
C179 C178 1.387 . S
N180 Co171 2.022 . S
N180 C177 1.351 . S
N180 N181 1.365 . S
N181 C178 1.341 . S
N181 N180 1.365 . S
N181 H201 0.862 . S
C182 C177 1.501 . S
C182 H183 0.961 . S
C182 H184 0.961 . S
C182 H185 0.960 . S
H183 C182 0.961 . S
H184 C182 0.961 . S
H185 C182 0.960 . S
C186 N187 1.342 . S
C186 C190 1.401 . S
C186 C191 1.499 . S
N187 Co170 1.989 . S
N187 C186 1.342 . S
N187 N188 1.388 . S
N188 Co171 1.993 . S
N188 N187 1.388 . S
N188 C189 1.346 . S
C189 N188 1.346 . S
C189 C190 1.396 . S
C189 C199 1.510 . S
C190 C186 1.401 . S
C190 C189 1.396 . S
C191 C186 1.499 . S
C191 H192 0.959 . S
C191 H193 0.960 . S
C191 H194 0.961 . S
H192 C191 0.959 . S
H193 C191 0.960 . S
H194 C191 0.961 . S
O195 Co170 1.967 . S
O195 C203 1.258 . S
O196 Co171 1.941 . S
O196 C203 1.266 . S
H197 C199 0.959 . S
H198 C199 0.961 . S
C199 C189 1.510 . S
C199 H197 0.959 . S
C199 H198 0.961 . S
C199 H200 0.960 . S
H200 C199 0.960 . S
H201 N181 0.862 . S
O202 Co170 1.920 . S
O202 C175 1.289 . S
C203 O195 1.258 . S
C203 O196 1.266 . S
Co204 O207 1.970 1_655 S
Co204 N221 1.989 . S
Co204 O229 1.967 . S
Co204 O236 1.920 . S
Co205 O208 2.016 . S
Co205 N214 2.022 . S
Co205 N222 1.993 . S
Co205 O230 1.941 . S
C206 O207 1.258 . S
C206 O208 1.234 1_455 S
O207 Co204 1.970 1_455 S
O207 C206 1.258 . S
O208 Co205 2.016 . S
O208 C206 1.234 1_655 S
C209 O210 1.235 1_655 S
C209 O236 1.289 . S
O210 C209 1.235 1_455 S
C211 C213 1.400 . S
C211 N214 1.351 . S
C211 C216 1.501 1_655 S
C212 C213 1.387 . S
C212 N215 1.341 . S
C213 C211 1.400 . S
C213 C212 1.387 . S
N214 Co205 2.022 . S
N214 C211 1.351 . S
N214 N215 1.365 . S
N215 C212 1.341 . S
N215 N214 1.365 . S
N215 H235 0.862 . S
C216 C211 1.501 1_455 S
C216 H217 0.961 . S
C216 H218 0.961 . S
C216 H219 0.960 . S
H217 C216 0.961 . S
H218 C216 0.961 . S
H219 C216 0.960 . S
C220 N221 1.342 1_554 S
C220 C224 1.401 . S
C220 C225 1.499 . S
N221 Co204 1.989 . S
N221 C220 1.342 1_556 S
N221 N222 1.388 . S
N222 Co205 1.993 . S
N222 N221 1.388 . S
N222 C223 1.346 1_556 S
C223 N222 1.346 1_554 S
C223 C224 1.396 . S
C223 C233 1.510 . S
C224 C220 1.401 . S
C224 C223 1.396 . S
C225 C220 1.499 . S
C225 H226 0.959 . S
C225 H227 0.960 . S
C225 H228 0.961 . S
H226 C225 0.959 . S
H227 C225 0.960 . S
H228 C225 0.961 . S
O229 Co204 1.967 . S
O229 C237 1.258 . S
O230 Co205 1.941 . S
O230 C237 1.266 . S
H231 C233 0.959 . S
H232 C233 0.961 . S
C233 C223 1.510 . S
C233 H231 0.959 . S
C233 H232 0.961 . S
C233 H234 0.960 . S
H234 C233 0.960 . S
H235 N215 0.862 . S
O236 Co204 1.920 . S
O236 C209 1.289 . S
C237 O229 1.258 . S
C237 O230 1.266 . S
Co238 O241 1.970 1_565 S
Co238 N255 1.989 . S
Co238 O263 1.967 . S
Co238 O270 1.920 . S
Co239 O242 2.016 . S
Co239 N248 2.022 . S
Co239 N256 1.993 . S
Co239 O264 1.941 . S
C240 O241 1.258 . S
C240 O242 1.234 1_545 S
O241 Co238 1.970 1_545 S
O241 C240 1.258 . S
O242 Co239 2.016 . S
O242 C240 1.234 1_565 S
C243 O244 1.235 1_565 S
C243 O270 1.289 . S
O244 C243 1.235 1_545 S
C245 C247 1.400 . S
C245 N248 1.351 . S
C245 C250 1.501 1_565 S
C246 C247 1.387 . S
C246 N249 1.341 . S
C247 C245 1.400 . S
C247 C246 1.387 . S
N248 Co239 2.022 . S
N248 C245 1.351 . S
N248 N249 1.365 . S
N249 C246 1.341 . S
N249 N248 1.365 . S
N249 H269 0.862 . S
C250 C245 1.501 1_545 S
C250 H251 0.961 . S
C250 H252 0.961 . S
C250 H253 0.960 . S
H251 C250 0.961 . S
H252 C250 0.961 . S
H253 C250 0.960 . S
C254 N255 1.342 . S
C254 C258 1.401 . S
C254 C259 1.499 . S
N255 Co238 1.989 . S
N255 C254 1.342 . S
N255 N256 1.388 . S
N256 Co239 1.993 . S
N256 N255 1.388 . S
N256 C257 1.346 . S
C257 N256 1.346 . S
C257 C258 1.396 . S
C257 C267 1.510 . S
C258 C254 1.401 . S
C258 C257 1.396 . S
C259 C254 1.499 . S
C259 H260 0.959 . S
C259 H261 0.960 . S
C259 H262 0.961 . S
H260 C259 0.959 . S
H261 C259 0.960 . S
H262 C259 0.961 . S
O263 Co238 1.967 . S
O263 C271 1.258 . S
O264 Co239 1.941 . S
O264 C271 1.266 . S
H265 C267 0.959 . S
H266 C267 0.961 . S
C267 C257 1.510 . S
C267 H265 0.959 . S
C267 H266 0.961 . S
C267 H268 0.960 . S
H268 C267 0.960 . S
H269 N249 0.862 . S
O270 Co238 1.920 . S
O270 C243 1.289 . S
C271 O263 1.258 . S
C271 O264 1.266 . S
Co272 O275 1.970 . S
Co272 N289 1.989 . S
Co272 O297 1.967 . S
Co272 O304 1.920 . S
Co273 O276 1.966 . S
Co273 N282 2.022 . S
Co273 N290 1.993 . S
Co273 O298 1.941 . S
C274 O275 1.258 . S
C274 O276 1.263 . S
O275 Co272 1.970 . S
O275 C274 1.258 . S
O276 Co273 1.966 . S
O276 C274 1.263 . S
C277 O278 1.235 . S
C277 O304 1.289 . S
O278 C277 1.235 . S
C279 C281 1.400 . S
C279 N282 1.351 . S
C279 C284 1.501 . S
C280 C281 1.387 . S
C280 N283 1.341 . S
C281 C279 1.400 . S
C281 C280 1.387 . S
N282 Co273 2.022 . S
N282 C279 1.351 . S
N282 N283 1.365 . S
N283 C280 1.341 . S
N283 N282 1.365 . S
N283 H303 0.862 . S
C284 C279 1.501 . S
C284 H285 0.961 . S
C284 H286 0.961 . S
C284 H287 0.960 . S
H285 C284 0.961 . S
H286 C284 0.961 . S
H287 C284 0.960 . S
C288 N289 1.342 1_554 S
C288 C292 1.401 . S
C288 C293 1.499 . S
N289 Co272 1.989 . S
N289 C288 1.342 1_556 S
N289 N290 1.388 . S
N290 Co273 1.993 . S
N290 N289 1.388 . S
N290 C291 1.346 1_556 S
C291 N290 1.346 1_554 S
C291 C292 1.396 . S
C291 C301 1.510 . S
C292 C288 1.401 . S
C292 C291 1.396 . S
C293 C288 1.499 . S
C293 H294 0.959 . S
C293 H295 0.960 . S
C293 H296 0.961 . S
H294 C293 0.959 . S
H295 C293 0.960 . S
H296 C293 0.961 . S
O297 Co272 1.967 . S
O297 C305 1.258 . S
O298 Co273 1.941 . S
O298 C305 1.266 . S
H299 C301 0.959 . S
H300 C301 0.961 . S
C301 C291 1.510 . S
C301 H299 0.959 . S
C301 H300 0.961 . S
C301 H302 0.960 . S
H302 C301 0.960 . S
H303 N283 0.862 . S
O304 Co272 1.920 . S
O304 C277 1.289 . S
C305 O297 1.258 . S
C305 O298 1.266 . S
Co306 O309 1.970 . S
Co306 N323 1.989 . S
Co306 O331 1.967 . S
Co306 O338 1.920 . S
Co307 O310 1.966 . S
Co307 N316 2.022 . S
Co307 N324 1.993 . S
Co307 O332 1.941 . S
C308 O309 1.258 . S
C308 O310 1.263 . S
O309 Co306 1.970 . S
O309 C308 1.258 . S
O310 Co307 1.966 . S
O310 C308 1.263 . S
C311 O312 1.235 . S
C311 O338 1.289 . S
O312 C311 1.235 . S
C313 C315 1.400 . S
C313 N316 1.351 . S
C313 C318 1.501 . S
C314 C315 1.387 . S
C314 N317 1.341 . S
C315 C313 1.400 . S
C315 C314 1.387 . S
N316 Co307 2.022 . S
N316 C313 1.351 . S
N316 N317 1.365 . S
N317 C314 1.341 . S
N317 N316 1.365 . S
N317 H337 0.862 . S
C318 C313 1.501 . S
C318 H319 0.961 . S
C318 H320 0.961 . S
C318 H321 0.960 . S
H319 C318 0.961 . S
H320 C318 0.961 . S
H321 C318 0.960 . S
C322 N323 1.342 . S
C322 C326 1.401 . S
C322 C327 1.499 . S
N323 Co306 1.989 . S
N323 C322 1.342 . S
N323 N324 1.388 . S
N324 Co307 1.993 . S
N324 N323 1.388 . S
N324 C325 1.346 . S
C325 N324 1.346 . S
C325 C326 1.396 . S
C325 C335 1.510 . S
C326 C322 1.401 . S
C326 C325 1.396 . S
C327 C322 1.499 . S
C327 H328 0.959 . S
C327 H329 0.960 . S
C327 H330 0.961 . S
H328 C327 0.959 . S
H329 C327 0.960 . S
H330 C327 0.961 . S
O331 Co306 1.967 . S
O331 C339 1.258 . S
O332 Co307 1.941 . S
O332 C339 1.266 . S
H333 C335 0.959 . S
H334 C335 0.961 . S
C335 C325 1.510 . S
C335 H333 0.959 . S
C335 H334 0.961 . S
C335 H336 0.960 . S
H336 C335 0.960 . S
H337 N317 0.862 . S
O338 Co306 1.920 . S
O338 C311 1.289 . S
C339 O331 1.258 . S
C339 O332 1.266 . S
Co340 O343 1.970 1_455 S
Co340 N357 1.989 . S
Co340 O365 1.967 . S
Co340 O372 1.920 . S
Co341 O344 2.016 . S
Co341 N350 2.022 . S
Co341 N358 1.993 . S
Co341 O366 1.941 . S
C342 O343 1.258 . S
C342 O344 1.234 1_655 S
O343 Co340 1.970 1_655 S
O343 C342 1.258 . S
O344 Co341 2.016 . S
O344 C342 1.234 1_455 S
C345 O346 1.235 1_455 S
C345 O372 1.289 . S
O346 C345 1.235 1_655 S
C347 C349 1.400 . S
C347 N350 1.351 . S
C347 C352 1.501 1_455 S
C348 C349 1.387 . S
C348 N351 1.341 . S
C349 C347 1.400 . S
C349 C348 1.387 . S
N350 Co341 2.022 . S
N350 C347 1.351 . S
N350 N351 1.365 . S
N351 C348 1.341 . S
N351 N350 1.365 . S
N351 H371 0.862 . S
C352 C347 1.501 1_655 S
C352 H353 0.961 . S
C352 H354 0.961 . S
C352 H355 0.960 . S
H353 C352 0.961 . S
H354 C352 0.961 . S
H355 C352 0.960 . S
C356 N357 1.342 1_554 S
C356 C360 1.401 . S
C356 C361 1.499 . S
N357 Co340 1.989 . S
N357 C356 1.342 1_556 S
N357 N358 1.388 . S
N358 Co341 1.993 . S
N358 N357 1.388 . S
N358 C359 1.346 1_556 S
C359 N358 1.346 1_554 S
C359 C360 1.396 . S
C359 C369 1.510 . S
C360 C356 1.401 . S
C360 C359 1.396 . S
C361 C356 1.499 . S
C361 H362 0.959 . S
C361 H363 0.960 . S
C361 H364 0.961 . S
H362 C361 0.959 . S
H363 C361 0.960 . S
H364 C361 0.961 . S
O365 Co340 1.967 . S
O365 C373 1.258 . S
O366 Co341 1.941 . S
O366 C373 1.266 . S
H367 C369 0.959 . S
H368 C369 0.961 . S
C369 C359 1.510 . S
C369 H367 0.959 . S
C369 H368 0.961 . S
C369 H370 0.960 . S
H370 C369 0.960 . S
H371 N351 0.862 . S
O372 Co340 1.920 . S
O372 C345 1.289 . S
C373 O365 1.258 . S
C373 O366 1.266 . S
Co374 O377 1.970 1_545 S
Co374 N391 1.989 . S
Co374 O399 1.967 . S
Co374 O406 1.920 . S
Co375 O378 2.016 . S
Co375 N384 2.022 . S
Co375 N392 1.993 . S
Co375 O400 1.941 . S
C376 O377 1.258 . S
C376 O378 1.234 1_565 S
O377 Co374 1.970 1_565 S
O377 C376 1.258 . S
O378 Co375 2.016 . S
O378 C376 1.234 1_545 S
C379 O380 1.235 1_545 S
C379 O406 1.289 . S
O380 C379 1.235 1_565 S
C381 C383 1.400 . S
C381 N384 1.351 . S
C381 C386 1.501 1_545 S
C382 C383 1.387 . S
C382 N385 1.341 . S
C383 C381 1.400 . S
C383 C382 1.387 . S
N384 Co375 2.022 . S
N384 C381 1.351 . S
N384 N385 1.365 . S
N385 C382 1.341 . S
N385 N384 1.365 . S
N385 H405 0.862 . S
C386 C381 1.501 1_565 S
C386 H387 0.961 . S
C386 H388 0.961 . S
C386 H389 0.960 . S
H387 C386 0.961 . S
H388 C386 0.961 . S
H389 C386 0.960 . S
C390 N391 1.342 . S
C390 C394 1.401 . S
C390 C395 1.499 . S
N391 Co374 1.989 . S
N391 C390 1.342 . S
N391 N392 1.388 . S
N392 Co375 1.993 . S
N392 N391 1.388 . S
N392 C393 1.346 . S
C393 N392 1.346 . S
C393 C394 1.396 . S
C393 C403 1.510 . S
C394 C390 1.401 . S
C394 C393 1.396 . S
C395 C390 1.499 . S
C395 H396 0.959 . S
C395 H397 0.960 . S
C395 H398 0.961 . S
H396 C395 0.959 . S
H397 C395 0.960 . S
H398 C395 0.961 . S
O399 Co374 1.967 . S
O399 C407 1.258 . S
O400 Co375 1.941 . S
O400 C407 1.266 . S
H401 C403 0.959 . S
H402 C403 0.961 . S
C403 C393 1.510 . S
C403 H401 0.959 . S
C403 H402 0.961 . S
C403 H404 0.960 . S
H404 C403 0.960 . S
H405 N385 0.862 . S
O406 Co374 1.920 . S
O406 C379 1.289 . S
C407 O399 1.258 . S
C407 O400 1.266 . S
Co408 O411 1.970 . S
Co408 N425 1.989 . S
Co408 O433 1.967 . S
Co408 O440 1.920 . S
Co409 O412 1.966 . S
Co409 N418 2.022 . S
Co409 N426 1.993 . S
Co409 O434 1.941 . S
C410 O411 1.258 . S
C410 O412 1.263 . S
O411 Co408 1.970 . S
O411 C410 1.258 . S
O412 Co409 1.966 . S
O412 C410 1.263 . S
C413 O414 1.235 . S
C413 O440 1.289 . S
O414 C413 1.235 . S
C415 C417 1.400 . S
C415 N418 1.351 . S
C415 C420 1.501 . S
C416 C417 1.387 . S
C416 N419 1.341 . S
C417 C415 1.400 . S
C417 C416 1.387 . S
N418 Co409 2.022 . S
N418 C415 1.351 . S
N418 N419 1.365 . S
N419 C416 1.341 . S
N419 N418 1.365 . S
N419 H439 0.862 . S
C420 C415 1.501 . S
C420 H421 0.961 . S
C420 H422 0.961 . S
C420 H423 0.960 . S
H421 C420 0.961 . S
H422 C420 0.961 . S
H423 C420 0.960 . S
C424 N425 1.342 1_556 S
C424 C428 1.401 . S
C424 C429 1.499 . S
N425 Co408 1.989 . S
N425 C424 1.342 1_554 S
N425 N426 1.388 . S
N426 Co409 1.993 . S
N426 N425 1.388 . S
N426 C427 1.346 1_554 S
C427 N426 1.346 1_556 S
C427 C428 1.396 . S
C427 C437 1.510 . S
C428 C424 1.401 . S
C428 C427 1.396 . S
C429 C424 1.499 . S
C429 H430 0.959 . S
C429 H431 0.960 . S
C429 H432 0.961 . S
H430 C429 0.959 . S
H431 C429 0.960 . S
H432 C429 0.961 . S
O433 Co408 1.967 . S
O433 C441 1.258 . S
O434 Co409 1.941 . S
O434 C441 1.266 . S
H435 C437 0.959 . S
H436 C437 0.961 . S
C437 C427 1.510 . S
C437 H435 0.959 . S
C437 H436 0.961 . S
C437 H438 0.960 . S
H438 C437 0.960 . S
H439 N419 0.862 . S
O440 Co408 1.920 . S
O440 C413 1.289 . S
C441 O433 1.258 . S
C441 O434 1.266 . S
Co442 O445 1.970 . S
Co442 N459 1.989 . S
Co442 O467 1.967 . S
Co442 O474 1.920 . S
Co443 O446 1.966 . S
Co443 N452 2.022 . S
Co443 N460 1.993 . S
Co443 O468 1.941 . S
C444 O445 1.258 . S
C444 O446 1.263 . S
O445 Co442 1.970 . S
O445 C444 1.258 . S
O446 Co443 1.966 . S
O446 C444 1.263 . S
C447 O448 1.235 . S
C447 O474 1.289 . S
O448 C447 1.235 . S
C449 C451 1.400 . S
C449 N452 1.351 . S
C449 C454 1.501 . S
C450 C451 1.387 . S
C450 N453 1.341 . S
C451 C449 1.400 . S
C451 C450 1.387 . S
N452 Co443 2.022 . S
N452 C449 1.351 . S
N452 N453 1.365 . S
N453 C450 1.341 . S
N453 N452 1.365 . S
N453 H473 0.862 . S
C454 C449 1.501 . S
C454 H455 0.961 . S
C454 H456 0.961 . S
C454 H457 0.960 . S
H455 C454 0.961 . S
H456 C454 0.961 . S
H457 C454 0.960 . S
C458 N459 1.342 . S
C458 C462 1.401 . S
C458 C463 1.499 . S
N459 Co442 1.989 . S
N459 C458 1.342 . S
N459 N460 1.388 . S
N460 Co443 1.993 . S
N460 N459 1.388 . S
N460 C461 1.346 . S
C461 N460 1.346 . S
C461 C462 1.396 . S
C461 C471 1.510 . S
C462 C458 1.401 . S
C462 C461 1.396 . S
C463 C458 1.499 . S
C463 H464 0.959 . S
C463 H465 0.960 . S
C463 H466 0.961 . S
H464 C463 0.959 . S
H465 C463 0.960 . S
H466 C463 0.961 . S
O467 Co442 1.967 . S
O467 C475 1.258 . S
O468 Co443 1.941 . S
O468 C475 1.266 . S
H469 C471 0.959 . S
H470 C471 0.961 . S
C471 C461 1.510 . S
C471 H469 0.959 . S
C471 H470 0.961 . S
C471 H472 0.960 . S
H472 C471 0.960 . S
H473 N453 0.862 . S
O474 Co442 1.920 . S
O474 C447 1.289 . S
C475 O467 1.258 . S
C475 O468 1.266 . S
Co476 O479 1.970 1_455 S
Co476 N493 1.989 . S
Co476 O501 1.967 . S
Co476 O508 1.920 . S
Co477 O480 2.016 . S
Co477 N486 2.022 . S
Co477 N494 1.993 . S
Co477 O502 1.941 . S
C478 O479 1.258 . S
C478 O480 1.234 1_655 S
O479 Co476 1.970 1_655 S
O479 C478 1.258 . S
O480 Co477 2.016 . S
O480 C478 1.234 1_455 S
C481 O482 1.235 1_455 S
C481 O508 1.289 . S
O482 C481 1.235 1_655 S
C483 C485 1.400 . S
C483 N486 1.351 . S
C483 C488 1.501 1_455 S
C484 C485 1.387 . S
C484 N487 1.341 . S
C485 C483 1.400 . S
C485 C484 1.387 . S
N486 Co477 2.022 . S
N486 C483 1.351 . S
N486 N487 1.365 . S
N487 C484 1.341 . S
N487 N486 1.365 . S
N487 H507 0.862 . S
C488 C483 1.501 1_655 S
C488 H489 0.961 . S
C488 H490 0.961 . S
C488 H491 0.960 . S
H489 C488 0.961 . S
H490 C488 0.961 . S
H491 C488 0.960 . S
C492 N493 1.342 1_556 S
C492 C496 1.401 . S
C492 C497 1.499 . S
N493 Co476 1.989 . S
N493 C492 1.342 1_554 S
N493 N494 1.388 . S
N494 Co477 1.993 . S
N494 N493 1.388 . S
N494 C495 1.346 1_554 S
C495 N494 1.346 1_556 S
C495 C496 1.396 . S
C495 C505 1.510 . S
C496 C492 1.401 . S
C496 C495 1.396 . S
C497 C492 1.499 . S
C497 H498 0.959 . S
C497 H499 0.960 . S
C497 H500 0.961 . S
H498 C497 0.959 . S
H499 C497 0.960 . S
H500 C497 0.961 . S
O501 Co476 1.967 . S
O501 C509 1.258 . S
O502 Co477 1.941 . S
O502 C509 1.266 . S
H503 C505 0.959 . S
H504 C505 0.961 . S
C505 C495 1.510 . S
C505 H503 0.959 . S
C505 H504 0.961 . S
C505 H506 0.960 . S
H506 C505 0.960 . S
H507 N487 0.862 . S
O508 Co476 1.920 . S
O508 C481 1.289 . S
C509 O501 1.258 . S
C509 O502 1.266 . S
Co510 O513 1.970 1_545 S
Co510 N527 1.989 . S
Co510 O535 1.967 . S
Co510 O542 1.920 . S
Co511 O514 2.016 . S
Co511 N520 2.022 . S
Co511 N528 1.993 . S
Co511 O536 1.941 . S
C512 O513 1.258 . S
C512 O514 1.234 1_565 S
O513 Co510 1.970 1_565 S
O513 C512 1.258 . S
O514 Co511 2.016 . S
O514 C512 1.234 1_545 S
C515 O516 1.235 1_545 S
C515 O542 1.289 . S
O516 C515 1.235 1_565 S
C517 C519 1.400 . S
C517 N520 1.351 . S
C517 C522 1.501 1_545 S
C518 C519 1.387 . S
C518 N521 1.341 . S
C519 C517 1.400 . S
C519 C518 1.387 . S
N520 Co511 2.022 . S
N520 C517 1.351 . S
N520 N521 1.365 . S
N521 C518 1.341 . S
N521 N520 1.365 . S
N521 H541 0.862 . S
C522 C517 1.501 1_565 S
C522 H523 0.961 . S
C522 H524 0.961 . S
C522 H525 0.960 . S
H523 C522 0.961 . S
H524 C522 0.961 . S
H525 C522 0.960 . S
C526 N527 1.342 . S
C526 C530 1.401 . S
C526 C531 1.499 . S
N527 Co510 1.989 . S
N527 C526 1.342 . S
N527 N528 1.388 . S
N528 Co511 1.993 . S
N528 N527 1.388 . S
N528 C529 1.346 . S
C529 N528 1.346 . S
C529 C530 1.396 . S
C529 C539 1.510 . S
C530 C526 1.401 . S
C530 C529 1.396 . S
C531 C526 1.499 . S
C531 H532 0.959 . S
C531 H533 0.960 . S
C531 H534 0.961 . S
H532 C531 0.959 . S
H533 C531 0.960 . S
H534 C531 0.961 . S
O535 Co510 1.967 . S
O535 C543 1.258 . S
O536 Co511 1.941 . S
O536 C543 1.266 . S
H537 C539 0.959 . S
H538 C539 0.961 . S
C539 C529 1.510 . S
C539 H537 0.959 . S
C539 H538 0.961 . S
C539 H540 0.960 . S
H540 C539 0.960 . S
H541 N521 0.862 . S
O542 Co510 1.920 . S
O542 C515 1.289 . S
C543 O535 1.258 . S
C543 O536 1.266 . S
H544 C562 0.951 . S
H545 C564 0.951 . S
H546 C566 0.950 1_556 S
H547 C567 0.950 . S
H548 C569 0.950 . S
H549 C572 0.950 . S
H550 C573 0.950 . S
H551 C575 0.949 . S
H552 C576 0.950 1_565 S
H553 C577 0.951 . S
H554 C579 0.951 . S
H555 C581 0.950 1_554 S
H556 C582 0.950 . S
H557 C584 0.950 . S
H558 C587 0.950 . S
H559 C588 0.950 . S
H560 C590 0.949 . S
H561 C591 0.950 1_545 S
C562 H544 0.951 . S
C562 C563 1.366 . S
C562 C564 1.388 . S
C563 C562 1.366 . S
C563 C567 1.385 . S
C564 H545 0.951 . S
C564 C562 1.388 . S
C564 C565 1.366 . S
C565 C564 1.366 . S
C565 C566 1.414 . S
C565 C568 1.499 . S
C566 H546 0.950 1_554 S
C566 C565 1.414 . S
C566 C567 1.374 . S
C567 H547 0.950 . S
C567 C563 1.385 . S
C567 C566 1.374 . S
C568 C565 1.499 . S
C568 C569 1.373 1_554 S
C568 C570 1.389 . S
C569 H548 0.950 . S
C569 C568 1.373 1_556 S
C569 C585 1.377 1_545 S
C570 C568 1.389 . S
C570 C571 1.524 . S
C570 C584 1.377 1_545 S
C571 C570 1.524 . S
C571 C572 1.397 . S
C571 C576 1.363 . S
C572 H549 0.950 . S
C572 C571 1.397 . S
C572 C573 1.334 . S
C573 H550 0.950 . S
C573 C572 1.334 . S
C573 C574 1.287 . S
C574 C573 1.287 . S
C574 C575 1.524 . S
C574 H593 0.913 . S
C575 H551 0.949 . S
C575 C574 1.524 . S
C575 C576 1.415 . S
C576 H552 0.950 1_545 S
C576 C571 1.363 . S
C576 C575 1.415 . S
C577 H553 0.951 . S
C577 C578 1.366 . S
C577 C579 1.388 . S
C578 C577 1.366 . S
C578 C582 1.385 . S
C579 H554 0.951 . S
C579 C577 1.388 . S
C579 C580 1.366 . S
C580 C579 1.366 . S
C580 C581 1.414 . S
C580 C583 1.499 . S
C581 H555 0.950 1_556 S
C581 C580 1.414 . S
C581 C582 1.374 . S
C582 H556 0.950 . S
C582 C578 1.385 . S
C582 C581 1.374 . S
C583 C580 1.499 . S
C583 C584 1.373 1_556 S
C583 C585 1.389 . S
C584 H557 0.950 . S
C584 C570 1.377 1_565 S
C584 C583 1.373 1_554 S
C585 C569 1.377 1_565 S
C585 C583 1.389 . S
C585 C586 1.524 . S
C586 C585 1.524 . S
C586 C587 1.397 . S
C586 C591 1.363 . S
C587 H558 0.950 . S
C587 C586 1.397 . S
C587 C588 1.334 . S
C588 H559 0.950 . S
C588 C587 1.334 . S
C588 C589 1.287 . S
C589 C588 1.287 . S
C589 C590 1.524 . S
C589 H592 0.999 . S
C590 H560 0.949 . S
C590 C589 1.524 . S
C590 C591 1.415 . S
C591 H561 0.950 1_565 S
C591 C586 1.363 . S
C591 C590 1.415 . S
H592 C589 0.999 . S
H593 C574 0.913 . S
H594 C612 0.951 . S
H595 C614 0.951 . S
H596 C616 0.950 . S
H597 C617 0.950 . S
H598 C619 0.950 . S
H599 C622 0.950 . S
H600 C623 0.950 . S
H601 C625 0.950 . S
H602 C626 0.950 . S
H603 C627 0.951 . S
H604 C629 0.951 . S
H605 C631 0.950 . S
H606 C632 0.950 . S
H607 C634 0.950 . S
H608 C637 0.950 . S
H609 C638 0.950 . S
H610 C640 0.950 . S
H611 C641 0.950 . S
C612 H594 0.951 . S
C612 C613 1.366 . S
C612 C614 1.388 . S
C613 C612 1.366 . S
C613 C617 1.385 . S
C614 H595 0.951 . S
C614 C612 1.388 . S
C614 C615 1.366 . S
C615 C614 1.366 . S
C615 C616 1.414 . S
C615 C618 1.499 . S
C616 H596 0.950 . S
C616 C615 1.414 . S
C616 C617 1.374 . S
C617 H597 0.950 . S
C617 C613 1.385 . S
C617 C616 1.374 . S
C618 C615 1.499 . S
C618 C619 1.373 . S
C618 C620 1.389 . S
C619 H598 0.950 . S
C619 C618 1.373 . S
C619 C635 1.377 . S
C620 C618 1.389 . S
C620 C621 1.524 . S
C620 C634 1.377 . S
C621 C620 1.524 . S
C621 C622 1.397 . S
C621 C626 1.363 . S
C622 H599 0.950 . S
C622 C621 1.397 . S
C622 C623 1.334 . S
C623 H600 0.950 . S
C623 C622 1.334 . S
C623 C624 1.287 . S
C624 C623 1.287 . S
C624 C625 1.524 . S
C624 H643 0.913 . S
C625 H601 0.950 . S
C625 C624 1.524 . S
C625 C626 1.415 . S
C626 H602 0.950 . S
C626 C621 1.363 . S
C626 C625 1.415 . S
C627 H603 0.951 . S
C627 C628 1.366 . S
C627 C629 1.388 . S
C628 C627 1.366 . S
C628 C632 1.385 . S
C629 H604 0.951 . S
C629 C627 1.388 . S
C629 C630 1.366 . S
C630 C629 1.366 . S
C630 C631 1.414 . S
C630 C633 1.499 . S
C631 H605 0.950 . S
C631 C630 1.414 . S
C631 C632 1.374 . S
C632 H606 0.950 . S
C632 C628 1.385 . S
C632 C631 1.374 . S
C633 C630 1.499 . S
C633 C634 1.373 . S
C633 C635 1.389 . S
C634 H607 0.950 . S
C634 C620 1.377 . S
C634 C633 1.373 . S
C635 C619 1.377 . S
C635 C633 1.389 . S
C635 C636 1.524 . S
C636 C635 1.524 . S
C636 C637 1.397 . S
C636 C641 1.363 . S
C637 H608 0.950 . S
C637 C636 1.397 . S
C637 C638 1.334 . S
C638 H609 0.950 . S
C638 C637 1.334 . S
C638 C639 1.287 . S
C639 C638 1.287 . S
C639 C640 1.524 . S
C639 H642 0.999 . S
C640 H610 0.950 . S
C640 C639 1.524 . S
C640 C641 1.415 . S
C641 H611 0.950 . S
C641 C636 1.363 . S
C641 C640 1.415 . S
H642 C639 0.999 . S
H643 C624 0.913 . S
H644 C662 0.951 . S
H645 C664 0.951 . S
H646 C666 0.950 . S
H647 C667 0.950 . S
H648 C669 0.950 . S
H649 C672 0.953 1_655 S
H650 C673 0.950 1_655 S
H651 C675 0.950 . S
H652 C676 0.950 . S
H653 C677 0.951 . S
H654 C679 0.951 . S
H655 C681 0.950 . S
H656 C682 0.950 . S
H657 C684 0.950 . S
H658 C687 0.953 1_455 S
H659 C688 0.950 1_455 S
H660 C690 0.950 . S
H661 C691 0.950 . S
C662 H644 0.951 . S
C662 C663 1.366 1_455 S
C662 C664 1.388 . S
C663 C662 1.366 1_655 S
C663 C667 1.385 . S
C664 H645 0.951 . S
C664 C662 1.388 . S
C664 C665 1.366 1_455 S
C665 C664 1.366 1_655 S
C665 C666 1.414 . S
C665 C668 1.499 . S
C666 H646 0.950 . S
C666 C665 1.414 . S
C666 C667 1.374 . S
C667 H647 0.950 . S
C667 C663 1.385 . S
C667 C666 1.374 . S
C668 C665 1.499 . S
C668 C669 1.373 1_554 S
C668 C670 1.389 1_655 S
C669 H648 0.950 . S
C669 C668 1.373 1_556 S
C669 C685 1.377 . S
C670 C668 1.389 1_455 S
C670 C671 1.524 . S
C670 C684 1.377 . S
C671 C670 1.524 . S
C671 C672 1.394 . S
C671 C676 1.363 . S
C672 H649 0.953 1_455 S
C672 C671 1.394 . S
C672 C673 1.333 . S
C673 H650 0.950 1_455 S
C673 C672 1.333 . S
C673 C674 1.287 . S
C674 C673 1.287 . S
C674 C675 1.524 . S
C674 H693 0.913 . S
C675 H651 0.950 . S
C675 C674 1.524 . S
C675 C676 1.415 . S
C676 H652 0.950 . S
C676 C671 1.363 . S
C676 C675 1.415 . S
C677 H653 0.951 . S
C677 C678 1.366 1_655 S
C677 C679 1.388 . S
C678 C677 1.366 1_455 S
C678 C682 1.385 . S
C679 H654 0.951 . S
C679 C677 1.388 . S
C679 C680 1.366 1_655 S
C680 C679 1.366 1_455 S
C680 C681 1.414 . S
C680 C683 1.499 . S
C681 H655 0.950 . S
C681 C680 1.414 . S
C681 C682 1.374 . S
C682 H656 0.950 . S
C682 C678 1.385 . S
C682 C681 1.374 . S
C683 C680 1.499 . S
C683 C684 1.373 1_556 S
C683 C685 1.389 1_455 S
C684 H657 0.950 . S
C684 C670 1.377 . S
C684 C683 1.373 1_554 S
C685 C669 1.377 . S
C685 C683 1.389 1_655 S
C685 C686 1.524 . S
C686 C685 1.524 . S
C686 C687 1.394 . S
C686 C691 1.363 . S
C687 H658 0.953 1_655 S
C687 C686 1.394 . S
C687 C688 1.333 . S
C688 H659 0.950 1_655 S
C688 C687 1.333 . S
C688 C689 1.287 . S
C689 C688 1.287 . S
C689 C690 1.524 . S
C689 H692 0.999 . S
C690 H660 0.950 . S
C690 C689 1.524 . S
C690 C691 1.415 . S
C691 H661 0.950 . S
C691 C686 1.363 . S
C691 C690 1.415 . S
H692 C689 0.999 . S
H693 C674 0.913 . S
H694 C712 0.951 . S
H695 C714 0.951 1_545 S
H696 C716 0.950 . S
H697 C717 0.950 . S
H698 C719 0.950 . S
H699 C722 0.950 . S
H700 C723 0.950 . S
H701 C725 0.950 . S
H702 C726 0.950 . S
H703 C727 0.951 . S
H704 C729 0.951 1_565 S
H705 C731 0.950 . S
H706 C732 0.950 . S
H707 C734 0.950 . S
H708 C737 0.950 . S
H709 C738 0.950 . S
H710 C740 0.950 . S
H711 C741 0.950 . S
C712 H694 0.951 . S
C712 C713 1.366 . S
C712 C714 1.388 . S
C713 C712 1.366 . S
C713 C717 1.385 . S
C714 H695 0.951 1_565 S
C714 C712 1.388 . S
C714 C715 1.366 . S
C715 C714 1.366 . S
C715 C716 1.414 . S
C715 C718 1.499 . S
C716 H696 0.950 . S
C716 C715 1.414 . S
C716 C717 1.374 . S
C717 H697 0.950 . S
C717 C713 1.385 . S
C717 C716 1.374 . S
C718 C715 1.499 . S
C718 C719 1.373 . S
C718 C720 1.389 1_565 S
C719 H698 0.950 . S
C719 C718 1.373 . S
C719 C735 1.377 1_455 S
C720 C718 1.389 1_545 S
C720 C721 1.524 . S
C720 C734 1.377 1_455 S
C721 C720 1.524 . S
C721 C722 1.397 . S
C721 C726 1.363 . S
C722 H699 0.950 . S
C722 C721 1.397 . S
C722 C723 1.334 . S
C723 H700 0.950 . S
C723 C722 1.334 . S
C723 C724 1.287 . S
C724 C723 1.287 . S
C724 C725 1.524 . S
C724 H743 0.913 . S
C725 H701 0.950 . S
C725 C724 1.524 . S
C725 C726 1.415 . S
C726 H702 0.950 . S
C726 C721 1.363 . S
C726 C725 1.415 . S
C727 H703 0.951 . S
C727 C728 1.366 . S
C727 C729 1.388 . S
C728 C727 1.366 . S
C728 C732 1.385 . S
C729 H704 0.951 1_545 S
C729 C727 1.388 . S
C729 C730 1.366 . S
C730 C729 1.366 . S
C730 C731 1.414 . S
C730 C733 1.499 . S
C731 H705 0.950 . S
C731 C730 1.414 . S
C731 C732 1.374 . S
C732 H706 0.950 . S
C732 C728 1.385 . S
C732 C731 1.374 . S
C733 C730 1.499 . S
C733 C734 1.373 . S
C733 C735 1.389 1_545 S
C734 H707 0.950 . S
C734 C720 1.377 1_655 S
C734 C733 1.373 . S
C735 C719 1.377 1_655 S
C735 C733 1.389 1_565 S
C735 C736 1.524 . S
C736 C735 1.524 . S
C736 C737 1.397 . S
C736 C741 1.363 . S
C737 H708 0.950 . S
C737 C736 1.397 . S
C737 C738 1.334 . S
C738 H709 0.950 . S
C738 C737 1.334 . S
C738 C739 1.287 . S
C739 C738 1.287 . S
C739 C740 1.524 . S
C739 H742 0.999 . S
C740 H710 0.950 . S
C740 C739 1.524 . S
C740 C741 1.415 . S
C741 H711 0.950 . S
C741 C736 1.363 . S
C741 C740 1.415 . S
H742 C739 0.999 . S
H743 C724 0.913 . S
H744 C762 0.951 . S
H745 C764 0.951 . S
H746 C766 0.950 1_554 S
H747 C767 0.950 . S
H748 C769 0.950 . S
H749 C772 0.950 . S
H750 C773 0.950 . S
H751 C775 0.950 . S
H752 C776 0.950 . S
H753 C777 0.951 . S
H754 C779 0.951 . S
H755 C781 0.950 1_556 S
H756 C782 0.950 . S
H757 C784 0.950 . S
H758 C787 0.950 . S
H759 C788 0.950 . S
H760 C790 0.950 . S
H761 C791 0.950 . S
C762 H744 0.951 . S
C762 C763 1.366 . S
C762 C764 1.388 . S
C763 C762 1.366 . S
C763 C767 1.385 . S
C764 H745 0.951 . S
C764 C762 1.388 . S
C764 C765 1.366 . S
C765 C764 1.366 . S
C765 C766 1.414 . S
C765 C768 1.499 . S
C766 H746 0.950 1_556 S
C766 C765 1.414 . S
C766 C767 1.374 . S
C767 H747 0.950 . S
C767 C763 1.385 . S
C767 C766 1.374 . S
C768 C765 1.499 . S
C768 C769 1.373 1_556 S
C768 C770 1.389 . S
C769 H748 0.950 . S
C769 C768 1.373 1_554 S
C769 C785 1.377 . S
C770 C768 1.389 . S
C770 C771 1.524 . S
C770 C784 1.377 . S
C771 C770 1.524 . S
C771 C772 1.397 . S
C771 C776 1.363 . S
C772 H749 0.950 . S
C772 C771 1.397 . S
C772 C773 1.334 . S
C773 H750 0.950 . S
C773 C772 1.334 . S
C773 C774 1.287 . S
C774 C773 1.287 . S
C774 C775 1.524 . S
C774 H793 0.913 . S
C775 H751 0.950 . S
C775 C774 1.524 . S
C775 C776 1.415 . S
C776 H752 0.950 . S
C776 C771 1.363 . S
C776 C775 1.415 . S
C777 H753 0.951 . S
C777 C778 1.366 . S
C777 C779 1.388 . S
C778 C777 1.366 . S
C778 C782 1.385 . S
C779 H754 0.951 . S
C779 C777 1.388 . S
C779 C780 1.366 . S
C780 C779 1.366 . S
C780 C781 1.414 . S
C780 C783 1.499 . S
C781 H755 0.950 1_554 S
C781 C780 1.414 . S
C781 C782 1.374 . S
C782 H756 0.950 . S
C782 C778 1.385 . S
C782 C781 1.374 . S
C783 C780 1.499 . S
C783 C784 1.373 1_554 S
C783 C785 1.389 . S
C784 H757 0.950 . S
C784 C770 1.377 . S
C784 C783 1.373 1_556 S
C785 C769 1.377 . S
C785 C783 1.389 . S
C785 C786 1.524 . S
C786 C785 1.524 . S
C786 C787 1.397 . S
C786 C791 1.363 . S
C787 H758 0.950 . S
C787 C786 1.397 . S
C787 C788 1.334 . S
C788 H759 0.950 . S
C788 C787 1.334 . S
C788 C789 1.287 . S
C789 C788 1.287 . S
C789 C790 1.524 . S
C789 H792 0.999 . S
C790 H760 0.950 . S
C790 C789 1.524 . S
C790 C791 1.415 . S
C791 H761 0.950 . S
C791 C786 1.363 . S
C791 C790 1.415 . S
H792 C789 0.999 . S
H793 C774 0.913 . S
H794 C812 0.951 . S
H795 C814 0.951 . S
H796 C816 0.950 . S
H797 C817 0.950 . S
H798 C819 0.950 . S
H799 C822 0.950 . S
H800 C823 0.950 . S
H801 C825 0.929 1_455 S
H802 C826 0.950 . S
H803 C827 0.951 . S
H804 C829 0.951 . S
H805 C831 0.950 . S
H806 C832 0.950 . S
H807 C834 0.950 . S
H808 C837 0.950 . S
H809 C838 0.950 . S
H810 C840 0.929 1_655 S
H811 C841 0.950 . S
C812 H794 0.951 . S
C812 C813 1.366 . S
C812 C814 1.388 . S
C813 C812 1.366 . S
C813 C817 1.385 . S
C814 H795 0.951 . S
C814 C812 1.388 . S
C814 C815 1.366 . S
C815 C814 1.366 . S
C815 C816 1.414 . S
C815 C818 1.499 . S
C816 H796 0.950 . S
C816 C815 1.414 . S
C816 C817 1.374 . S
C817 H797 0.950 . S
C817 C813 1.385 . S
C817 C816 1.374 . S
C818 C815 1.499 . S
C818 C819 1.373 . S
C818 C820 1.389 . S
C819 H798 0.950 . S
C819 C818 1.373 . S
C819 C835 1.377 1_655 S
C820 C818 1.389 . S
C820 C821 1.524 . S
C820 C834 1.377 1_655 S
C821 C820 1.524 . S
C821 C822 1.397 . S
C821 C826 1.363 1_655 S
C822 H799 0.950 . S
C822 C821 1.397 . S
C822 C823 1.334 . S
C823 H800 0.950 . S
C823 C822 1.334 . S
C823 C824 1.287 . S
C824 C823 1.287 . S
C824 C825 1.555 . S
C824 H843 0.913 . S
C825 H801 0.929 1_655 S
C825 C824 1.555 . S
C825 C826 1.409 1_655 S
C826 H802 0.950 . S
C826 C821 1.363 1_455 S
C826 C825 1.409 1_455 S
C827 H803 0.951 . S
C827 C828 1.366 . S
C827 C829 1.388 . S
C828 C827 1.366 . S
C828 C832 1.385 . S
C829 H804 0.951 . S
C829 C827 1.388 . S
C829 C830 1.366 . S
C830 C829 1.366 . S
C830 C831 1.414 . S
C830 C833 1.499 . S
C831 H805 0.950 . S
C831 C830 1.414 . S
C831 C832 1.374 . S
C832 H806 0.950 . S
C832 C828 1.385 . S
C832 C831 1.374 . S
C833 C830 1.499 . S
C833 C834 1.373 . S
C833 C835 1.389 . S
C834 H807 0.950 . S
C834 C820 1.377 1_455 S
C834 C833 1.373 . S
C835 C819 1.377 1_455 S
C835 C833 1.389 . S
C835 C836 1.524 . S
C836 C835 1.524 . S
C836 C837 1.397 . S
C836 C841 1.363 1_455 S
C837 H808 0.950 . S
C837 C836 1.397 . S
C837 C838 1.334 . S
C838 H809 0.950 . S
C838 C837 1.334 . S
C838 C839 1.287 . S
C839 C838 1.287 . S
C839 C840 1.555 . S
C839 H842 0.999 . S
C840 H810 0.929 1_455 S
C840 C839 1.555 . S
C840 C841 1.409 1_455 S
C841 H811 0.950 . S
C841 C836 1.363 1_655 S
C841 C840 1.409 1_655 S
H842 C839 0.999 . S
H843 C824 0.913 . S
H844 C862 0.979 . S
H845 C864 0.951 . S
H846 C866 0.950 . S
H847 C867 0.950 . S
H848 C869 0.950 . S
H849 C872 0.950 . S
H850 C873 0.950 . S
H851 C875 0.950 . S
H852 C876 0.950 . S
H853 C877 0.979 . S
H854 C879 0.951 . S
H855 C881 0.950 . S
H856 C882 0.950 . S
H857 C884 0.950 . S
H858 C887 0.950 . S
H859 C888 0.950 . S
H860 C890 0.950 . S
H861 C891 0.950 . S
C862 H844 0.979 . S
C862 C863 1.331 1_655 S
C862 C864 1.396 . S
C863 C862 1.331 1_455 S
C863 C867 1.385 . S
C864 H845 0.951 . S
C864 C862 1.396 . S
C864 C865 1.366 1_655 S
C865 C864 1.366 1_455 S
C865 C866 1.414 . S
C865 C868 1.499 . S
C866 H846 0.950 . S
C866 C865 1.414 . S
C866 C867 1.374 . S
C867 H847 0.950 . S
C867 C863 1.385 . S
C867 C866 1.374 . S
C868 C865 1.499 . S
C868 C869 1.373 . S
C868 C870 1.389 1_454 S
C869 H848 0.950 . S
C869 C868 1.373 . S
C869 C885 1.377 1_565 S
C870 C868 1.389 1_656 S
C870 C871 1.524 . S
C870 C884 1.377 1_565 S
C871 C870 1.524 . S
C871 C872 1.397 1_655 S
C871 C876 1.363 . S
C872 H849 0.950 . S
C872 C871 1.397 1_455 S
C872 C873 1.334 . S
C873 H850 0.950 . S
C873 C872 1.334 . S
C873 C874 1.258 1_455 S
C874 C873 1.258 1_655 S
C874 C875 1.556 . S
C874 H893 0.913 . S
C875 H851 0.950 . S
C875 C874 1.556 . S
C875 C876 1.415 . S
C876 H852 0.950 . S
C876 C871 1.363 . S
C876 C875 1.415 . S
C877 H853 0.979 . S
C877 C878 1.331 1_455 S
C877 C879 1.396 . S
C878 C877 1.331 1_655 S
C878 C882 1.385 . S
C879 H854 0.951 . S
C879 C877 1.396 . S
C879 C880 1.366 1_455 S
C880 C879 1.366 1_655 S
C880 C881 1.414 . S
C880 C883 1.499 . S
C881 H855 0.950 . S
C881 C880 1.414 . S
C881 C882 1.374 . S
C882 H856 0.950 . S
C882 C878 1.385 . S
C882 C881 1.374 . S
C883 C880 1.499 . S
C883 C884 1.373 . S
C883 C885 1.389 1_656 S
C884 H857 0.950 . S
C884 C870 1.377 1_545 S
C884 C883 1.373 . S
C885 C869 1.377 1_545 S
C885 C883 1.389 1_454 S
C885 C886 1.524 . S
C886 C885 1.524 . S
C886 C887 1.397 1_455 S
C886 C891 1.363 . S
C887 H858 0.950 . S
C887 C886 1.397 1_655 S
C887 C888 1.334 . S
C888 H859 0.950 . S
C888 C887 1.334 . S
C888 C889 1.258 1_655 S
C889 C888 1.258 1_455 S
C889 C890 1.556 . S
C889 H892 0.998 . S
C890 H860 0.950 . S
C890 C889 1.556 . S
C890 C891 1.415 . S
C891 H861 0.950 . S
C891 C886 1.363 . S
C891 C890 1.415 . S
H892 C889 0.998 . S
H893 C874 0.913 . S
H894 C912 0.951 1_545 S
H895 C914 0.933 1_545 S
H896 C916 0.950 . S
H897 C917 0.950 . S
H898 C919 0.950 . S
H899 C922 0.950 . S
H900 C923 0.950 . S
H901 C925 0.950 . S
H902 C926 0.950 . S
H903 C927 0.951 1_565 S
H904 C929 0.933 1_565 S
H905 C931 0.950 . S
H906 C932 0.950 . S
H907 C934 0.950 . S
H908 C937 0.950 . S
H909 C938 0.950 . S
H910 C940 0.950 . S
H911 C941 0.950 . S
C912 H894 0.951 1_565 S
C912 C913 1.366 . S
C912 C914 1.395 . S
C913 C912 1.366 . S
C913 C917 1.385 . S
C914 H895 0.933 1_565 S
C914 C912 1.395 . S
C914 C915 1.377 . S
C915 C914 1.377 . S
C915 C916 1.414 . S
C915 C918 1.499 . S
C916 H896 0.950 . S
C916 C915 1.414 . S
C916 C917 1.374 . S
C917 H897 0.950 . S
C917 C913 1.385 . S
C917 C916 1.374 . S
C918 C915 1.499 . S
C918 C919 1.373 . S
C918 C920 1.389 1_565 S
C919 H898 0.950 . S
C919 C918 1.373 . S
C919 C935 1.377 . S
C920 C918 1.389 1_545 S
C920 C921 1.524 . S
C920 C934 1.377 . S
C921 C920 1.524 . S
C921 C922 1.397 . S
C921 C926 1.363 . S
C922 H899 0.950 . S
C922 C921 1.397 . S
C922 C923 1.334 . S
C923 H900 0.950 . S
C923 C922 1.334 . S
C923 C924 1.287 . S
C924 C923 1.287 . S
C924 C925 1.524 . S
C924 H943 0.913 . S
C925 H901 0.950 . S
C925 C924 1.524 . S
C925 C926 1.415 . S
C926 H902 0.950 . S
C926 C921 1.363 . S
C926 C925 1.415 . S
C927 H903 0.951 1_545 S
C927 C928 1.366 . S
C927 C929 1.395 . S
C928 C927 1.366 . S
C928 C932 1.385 . S
C929 H904 0.933 1_545 S
C929 C927 1.395 . S
C929 C930 1.377 . S
C930 C929 1.377 . S
C930 C931 1.414 . S
C930 C933 1.499 . S
C931 H905 0.950 . S
C931 C930 1.414 . S
C931 C932 1.374 . S
C932 H906 0.950 . S
C932 C928 1.385 . S
C932 C931 1.374 . S
C933 C930 1.499 . S
C933 C934 1.373 . S
C933 C935 1.389 1_545 S
C934 H907 0.950 . S
C934 C920 1.377 . S
C934 C933 1.373 . S
C935 C919 1.377 . S
C935 C933 1.389 1_565 S
C935 C936 1.524 . S
C936 C935 1.524 . S
C936 C937 1.397 . S
C936 C941 1.363 . S
C937 H908 0.950 . S
C937 C936 1.397 . S
C937 C938 1.334 . S
C938 H909 0.950 . S
C938 C937 1.334 . S
C938 C939 1.287 . S
C939 C938 1.287 . S
C939 C940 1.524 . S
C939 H942 0.999 . S
C940 H910 0.950 . S
C940 C939 1.524 . S
C940 C941 1.415 . S
C941 H911 0.950 . S
C941 C936 1.363 . S
C941 C940 1.415 . S
H942 C939 0.999 . S
H943 C924 0.913 . S
H944 C962 0.951 1_556 S
H945 C964 0.951 . S
H946 C966 0.950 . S
H947 C967 0.950 . S
H948 C969 0.950 . S
H949 C972 0.950 1_554 S
H950 C973 0.950 . S
H951 C975 0.950 . S
H952 C976 0.950 . S
H953 C977 0.951 1_554 S
H954 C979 0.951 . S
H955 C981 0.950 . S
H956 C982 0.950 . S
H957 C984 0.950 . S
H958 C987 0.950 1_556 S
H959 C988 0.950 . S
H960 C990 0.950 . S
H961 C991 0.950 . S
C962 H944 0.951 1_554 S
C962 C963 1.366 . S
C962 C964 1.388 1_554 S
C963 C962 1.366 . S
C963 C967 1.385 . S
C964 H945 0.951 . S
C964 C962 1.388 1_556 S
C964 C965 1.366 1_556 S
C965 C964 1.366 1_554 S
C965 C966 1.414 . S
C965 C968 1.499 . S
C966 H946 0.950 . S
C966 C965 1.414 . S
C966 C967 1.374 . S
C967 H947 0.950 . S
C967 C963 1.385 . S
C967 C966 1.374 . S
C968 C965 1.499 . S
C968 C969 1.373 . S
C968 C970 1.389 1_554 S
C969 H948 0.950 . S
C969 C968 1.373 . S
C969 C985 1.377 . S
C970 C968 1.389 1_556 S
C970 C971 1.524 . S
C970 C984 1.377 . S
C971 C970 1.524 . S
C971 C972 1.397 . S
C971 C976 1.363 . S
C972 H949 0.950 1_556 S
C972 C971 1.397 . S
C972 C973 1.334 . S
C973 H950 0.950 . S
C973 C972 1.334 . S
C973 C974 1.287 . S
C974 C973 1.287 . S
C974 C975 1.524 . S
C974 H993 0.913 . S
C975 H951 0.950 . S
C975 C974 1.524 . S
C975 C976 1.415 . S
C976 H952 0.950 . S
C976 C971 1.363 . S
C976 C975 1.415 . S
C977 H953 0.951 1_556 S
C977 C978 1.366 . S
C977 C979 1.388 1_556 S
C978 C977 1.366 . S
C978 C982 1.385 . S
C979 H954 0.951 . S
C979 C977 1.388 1_554 S
C979 C980 1.366 1_554 S
C980 C979 1.366 1_556 S
C980 C981 1.414 . S
C980 C983 1.499 . S
C981 H955 0.950 . S
C981 C980 1.414 . S
C981 C982 1.374 . S
C982 H956 0.950 . S
C982 C978 1.385 . S
C982 C981 1.374 . S
C983 C980 1.499 . S
C983 C984 1.373 . S
C983 C985 1.389 1_556 S
C984 H957 0.950 . S
C984 C970 1.377 . S
C984 C983 1.373 . S
C985 C969 1.377 . S
C985 C983 1.389 1_554 S
C985 C986 1.524 . S
C986 C985 1.524 . S
C986 C987 1.397 . S
C986 C991 1.363 . S
C987 H958 0.950 1_554 S
C987 C986 1.397 . S
C987 C988 1.334 . S
C988 H959 0.950 . S
C988 C987 1.334 . S
C988 C989 1.287 . S
C989 C988 1.287 . S
C989 C990 1.524 . S
C989 H992 0.999 . S
C990 H960 0.950 . S
C990 C989 1.524 . S
C990 C991 1.415 . S
C991 H961 0.950 . S
C991 C986 1.363 . S
C991 C990 1.415 . S
H992 C989 0.999 . S
H993 C974 0.913 . S
H994 C1012 0.951 . S
H995 C1014 0.951 . S
H996 C1016 0.950 . S
H997 C1017 0.950 . S
H998 C1019 0.950 . S
H999 C1022 0.950 . S
H1000 C1023 0.950 . S
H1001 C1025 0.950 . S
H1002 C1026 0.950 . S
H1003 C1027 0.951 . S
H1004 C1029 0.951 . S
H1005 C1031 0.950 . S
H1006 C1032 0.950 . S
H1007 C1034 0.950 . S
H1008 C1037 0.950 . S
H1009 C1038 0.950 . S
H1010 C1040 0.950 . S
H1011 C1041 0.950 . S
C1012 H994 0.951 . S
C1012 C1013 1.366 . S
C1012 C1014 1.388 . S
C1013 C1012 1.366 . S
C1013 C1017 1.385 . S
C1014 H995 0.951 . S
C1014 C1012 1.388 . S
C1014 C1015 1.366 . S
C1015 C1014 1.366 . S
C1015 C1016 1.414 . S
C1015 C1018 1.499 . S
C1016 H996 0.950 . S
C1016 C1015 1.414 . S
C1016 C1017 1.374 . S
C1017 H997 0.950 . S
C1017 C1013 1.385 . S
C1017 C1016 1.374 . S
C1018 C1015 1.499 . S
C1018 C1019 1.373 . S
C1018 C1020 1.389 . S
C1019 H998 0.950 . S
C1019 C1018 1.373 . S
C1019 C1035 1.377 . S
C1020 C1018 1.389 . S
C1020 C1021 1.524 . S
C1020 C1034 1.377 . S
C1021 C1020 1.524 . S
C1021 C1022 1.397 . S
C1021 C1026 1.363 . S
C1022 H999 0.950 . S
C1022 C1021 1.397 . S
C1022 C1023 1.334 . S
C1023 H1000 0.950 . S
C1023 C1022 1.334 . S
C1023 C1024 1.287 . S
C1024 C1023 1.287 . S
C1024 C1025 1.524 . S
C1024 H1043 0.913 . S
C1025 H1001 0.950 . S
C1025 C1024 1.524 . S
C1025 C1026 1.415 . S
C1026 H1002 0.950 . S
C1026 C1021 1.363 . S
C1026 C1025 1.415 . S
C1027 H1003 0.951 . S
C1027 C1028 1.366 . S
C1027 C1029 1.388 . S
C1028 C1027 1.366 . S
C1028 C1032 1.385 . S
C1029 H1004 0.951 . S
C1029 C1027 1.388 . S
C1029 C1030 1.366 . S
C1030 C1029 1.366 . S
C1030 C1031 1.414 . S
C1030 C1033 1.499 . S
C1031 H1005 0.950 . S
C1031 C1030 1.414 . S
C1031 C1032 1.374 . S
C1032 H1006 0.950 . S
C1032 C1028 1.385 . S
C1032 C1031 1.374 . S
C1033 C1030 1.499 . S
C1033 C1034 1.373 . S
C1033 C1035 1.389 . S
C1034 H1007 0.950 . S
C1034 C1020 1.377 . S
C1034 C1033 1.373 . S
C1035 C1019 1.377 . S
C1035 C1033 1.389 . S
C1035 C1036 1.524 . S
C1036 C1035 1.524 . S
C1036 C1037 1.397 . S
C1036 C1041 1.363 . S
C1037 H1008 0.950 . S
C1037 C1036 1.397 . S
C1037 C1038 1.334 . S
C1038 H1009 0.950 . S
C1038 C1037 1.334 . S
C1038 C1039 1.287 . S
C1039 C1038 1.287 . S
C1039 C1040 1.524 . S
C1039 H1042 0.999 . S
C1040 H1010 0.950 . S
C1040 C1039 1.524 . S
C1040 C1041 1.415 . S
C1041 H1011 0.950 . S
C1041 C1036 1.363 . S
C1041 C1040 1.415 . S
H1042 C1039 0.999 . S
H1043 C1024 0.913 . S
H1044 C1062 0.951 1_455 S
H1045 C1064 0.951 1_456 S
H1046 C1066 0.950 . S
H1047 C1067 0.950 . S
H1048 C1069 0.950 . S
H1049 C1072 0.950 . S
H1050 C1073 0.950 . S
H1051 C1075 0.950 1_455 S
H1052 C1076 0.950 1_455 S
H1053 C1077 0.951 . S
H1054 C1079 0.951 1_554 S
H1055 C1081 0.924 1_455 S
H1056 C1082 0.908 1_455 S
H1057 C1084 0.950 . S
H1058 C1087 0.984 . S
H1059 C1088 0.950 . S
H1060 C1090 0.950 . S
H1061 C1091 0.950 . S
C1062 H1044 0.951 1_655 S
C1062 C1063 1.366 . S
C1062 C1064 1.388 . S
C1063 C1062 1.366 . S
C1063 C1067 1.385 . S
C1064 H1045 0.951 1_654 S
C1064 C1062 1.388 . S
C1064 C1065 1.366 . S
C1065 C1064 1.366 . S
C1065 C1066 1.414 . S
C1065 C1068 1.499 . S
C1066 H1046 0.950 . S
C1066 C1065 1.414 . S
C1066 C1067 1.374 . S
C1067 H1047 0.950 . S
C1067 C1063 1.385 . S
C1067 C1066 1.374 . S
C1068 C1065 1.499 . S
C1068 C1069 1.373 . S
C1068 C1070 1.389 1_554 S
C1069 H1048 0.950 . S
C1069 C1068 1.373 . S
C1069 C1085 1.377 . S
C1070 C1068 1.389 1_556 S
C1070 C1071 1.524 . S
C1070 C1084 1.377 . S
C1071 C1070 1.524 . S
C1071 C1072 1.397 . S
C1071 C1076 1.363 . S
C1072 H1049 0.950 . S
C1072 C1071 1.397 . S
C1072 C1073 1.334 . S
C1073 H1050 0.950 . S
C1073 C1072 1.334 . S
C1073 C1074 1.287 . S
C1074 C1073 1.287 . S
C1074 C1075 1.524 . S
C1074 H1093 0.913 . S
C1075 H1051 0.950 1_655 S
C1075 C1074 1.524 . S
C1075 C1076 1.415 . S
C1076 H1052 0.950 1_655 S
C1076 C1071 1.363 . S
C1076 C1075 1.415 . S
C1077 H1053 0.951 . S
C1077 C1078 1.366 . S
C1077 C1079 1.388 . S
C1078 C1077 1.366 . S
C1078 C1082 1.429 . S
C1079 H1054 0.951 1_556 S
C1079 C1077 1.388 . S
C1079 C1080 1.366 . S
C1080 C1079 1.366 . S
C1080 C1081 1.440 . S
C1080 C1083 1.499 . S
C1081 H1055 0.924 1_655 S
C1081 C1080 1.440 . S
C1081 C1082 1.374 . S
C1082 H1056 0.908 1_655 S
C1082 C1078 1.429 . S
C1082 C1081 1.374 . S
C1083 C1080 1.499 . S
C1083 C1084 1.373 . S
C1083 C1085 1.389 1_556 S
C1084 H1057 0.950 . S
C1084 C1070 1.377 . S
C1084 C1083 1.373 . S
C1085 C1069 1.377 . S
C1085 C1083 1.389 1_554 S
C1085 C1086 1.524 . S
C1086 C1085 1.524 . S
C1086 C1087 1.358 1_655 S
C1086 C1091 1.363 . S
C1087 H1058 0.984 . S
C1087 C1086 1.358 1_455 S
C1087 C1088 1.341 . S
C1088 H1059 0.950 . S
C1088 C1087 1.341 . S
C1088 C1089 1.287 1_455 S
C1089 C1088 1.287 1_655 S
C1089 C1090 1.524 . S
C1089 H1092 0.999 . S
C1090 H1060 0.950 . S
C1090 C1089 1.524 . S
C1090 C1091 1.415 . S
C1091 H1061 0.950 . S
C1091 C1086 1.363 . S
C1091 C1090 1.415 . S
H1092 C1089 0.999 . S
H1093 C1074 0.913 . S
H1094 C1112 0.951 . S
H1095 C1114 0.951 . S
H1096 C1116 0.950 . S
H1097 C1117 0.950 . S
H1098 C1119 0.950 1_545 S
H1099 C1122 0.950 . S
H1100 C1123 0.950 . S
H1101 C1125 0.950 . S
H1102 C1126 0.950 . S
H1103 C1127 0.951 . S
H1104 C1129 0.951 . S
H1105 C1131 0.950 . S
H1106 C1132 0.950 . S
H1107 C1134 0.950 . S
H1108 C1137 0.950 . S
H1109 C1138 0.950 . S
H1110 C1140 0.950 . S
H1111 C1141 0.950 . S
C1112 H1094 0.951 . S
C1112 C1113 1.366 . S
C1112 C1114 1.388 . S
C1113 C1112 1.366 . S
C1113 C1117 1.385 . S
C1114 H1095 0.951 . S
C1114 C1112 1.388 . S
C1114 C1115 1.366 . S
C1115 C1114 1.366 . S
C1115 C1116 1.414 . S
C1115 C1118 1.499 . S
C1116 H1096 0.950 . S
C1116 C1115 1.414 . S
C1116 C1117 1.374 . S
C1117 H1097 0.950 . S
C1117 C1113 1.385 . S
C1117 C1116 1.374 . S
C1118 C1115 1.499 . S
C1118 C1119 1.373 . S
C1118 C1120 1.389 . S
C1119 H1098 0.950 1_565 S
C1119 C1118 1.373 . S
C1119 C1135 1.377 . S
C1120 C1118 1.389 . S
C1120 C1121 1.524 . S
C1120 C1134 1.377 . S
C1121 C1120 1.524 . S
C1121 C1122 1.397 . S
C1121 C1126 1.363 . S
C1122 H1099 0.950 . S
C1122 C1121 1.397 . S
C1122 C1123 1.334 . S
C1123 H1100 0.950 . S
C1123 C1122 1.334 . S
C1123 C1124 1.287 . S
C1124 C1123 1.287 . S
C1124 C1125 1.524 . S
C1124 H1143 0.913 . S
C1125 H1101 0.950 . S
C1125 C1124 1.524 . S
C1125 C1126 1.415 . S
C1126 H1102 0.950 . S
C1126 C1121 1.363 . S
C1126 C1125 1.415 . S
C1127 H1103 0.951 . S
C1127 C1128 1.366 . S
C1127 C1129 1.388 . S
C1128 C1127 1.366 . S
C1128 C1132 1.385 . S
C1129 H1104 0.951 . S
C1129 C1127 1.388 . S
C1129 C1130 1.366 . S
C1130 C1129 1.366 . S
C1130 C1131 1.414 . S
C1130 C1133 1.499 . S
C1131 H1105 0.950 . S
C1131 C1130 1.414 . S
C1131 C1132 1.374 . S
C1132 H1106 0.950 . S
C1132 C1128 1.385 . S
C1132 C1131 1.374 . S
C1133 C1130 1.499 . S
C1133 C1134 1.373 . S
C1133 C1135 1.389 . S
C1134 H1107 0.950 . S
C1134 C1120 1.377 . S
C1134 C1133 1.373 . S
C1135 C1119 1.377 . S
C1135 C1133 1.389 . S
C1135 C1136 1.524 1_565 S
C1136 C1135 1.524 1_545 S
C1136 C1137 1.397 . S
C1136 C1141 1.363 . S
C1137 H1108 0.950 . S
C1137 C1136 1.397 . S
C1137 C1138 1.334 . S
C1138 H1109 0.950 . S
C1138 C1137 1.334 . S
C1138 C1139 1.287 . S
C1139 C1138 1.287 . S
C1139 C1140 1.524 . S
C1139 H1142 0.999 . S
C1140 H1110 0.950 . S
C1140 C1139 1.524 . S
C1140 C1141 1.415 . S
C1141 H1111 0.950 . S
C1141 C1136 1.363 . S
C1141 C1140 1.415 . S
H1142 C1139 0.999 . S
H1143 C1124 0.913 . S
H1144 C1162 0.951 1_556 S
H1145 C1164 0.951 . S
H1146 C1166 0.950 . S
H1147 C1167 0.950 . S
H1148 C1169 0.950 . S
H1149 C1172 0.950 . S
H1150 C1173 0.950 . S
H1151 C1175 0.950 . S
H1152 C1176 0.950 . S
H1153 C1177 0.951 1_554 S
H1154 C1179 0.951 . S
H1155 C1181 0.950 . S
H1156 C1182 0.950 . S
H1157 C1184 0.950 . S
H1158 C1187 0.950 . S
H1159 C1188 0.950 . S
H1160 C1190 0.950 . S
H1161 C1191 0.950 . S
C1162 H1144 0.951 1_554 S
C1162 C1163 1.366 . S
C1162 C1164 1.388 1_554 S
C1163 C1162 1.366 . S
C1163 C1167 1.385 . S
C1164 H1145 0.951 . S
C1164 C1162 1.388 1_556 S
C1164 C1165 1.366 1_556 S
C1165 C1164 1.366 1_554 S
C1165 C1166 1.414 . S
C1165 C1168 1.499 . S
C1166 H1146 0.950 . S
C1166 C1165 1.414 . S
C1166 C1167 1.374 . S
C1167 H1147 0.950 . S
C1167 C1163 1.385 . S
C1167 C1166 1.374 . S
C1168 C1165 1.499 . S
C1168 C1169 1.373 . S
C1168 C1170 1.389 1_554 S
C1169 H1148 0.950 . S
C1169 C1168 1.373 . S
C1169 C1185 1.377 . S
C1170 C1168 1.389 1_556 S
C1170 C1171 1.524 . S
C1170 C1184 1.377 . S
C1171 C1170 1.524 . S
C1171 C1172 1.397 . S
C1171 C1176 1.363 . S
C1172 H1149 0.950 . S
C1172 C1171 1.397 . S
C1172 C1173 1.334 . S
C1173 H1150 0.950 . S
C1173 C1172 1.334 . S
C1173 C1174 1.287 . S
C1174 C1173 1.287 . S
C1174 C1175 1.524 . S
C1174 H1193 0.913 . S
C1175 H1151 0.950 . S
C1175 C1174 1.524 . S
C1175 C1176 1.415 . S
C1176 H1152 0.950 . S
C1176 C1171 1.363 . S
C1176 C1175 1.415 . S
C1177 H1153 0.951 1_556 S
C1177 C1178 1.366 . S
C1177 C1179 1.388 1_556 S
C1178 C1177 1.366 . S
C1178 C1182 1.385 . S
C1179 H1154 0.951 . S
C1179 C1177 1.388 1_554 S
C1179 C1180 1.366 1_554 S
C1180 C1179 1.366 1_556 S
C1180 C1181 1.414 . S
C1180 C1183 1.499 . S
C1181 H1155 0.950 . S
C1181 C1180 1.414 . S
C1181 C1182 1.374 . S
C1182 H1156 0.950 . S
C1182 C1178 1.385 . S
C1182 C1181 1.374 . S
C1183 C1180 1.499 . S
C1183 C1184 1.373 . S
C1183 C1185 1.389 1_556 S
C1184 H1157 0.950 . S
C1184 C1170 1.377 . S
C1184 C1183 1.373 . S
C1185 C1169 1.377 . S
C1185 C1183 1.389 1_554 S
C1185 C1186 1.524 . S
C1186 C1185 1.524 . S
C1186 C1187 1.397 . S
C1186 C1191 1.363 . S
C1187 H1158 0.950 . S
C1187 C1186 1.397 . S
C1187 C1188 1.334 . S
C1188 H1159 0.950 . S
C1188 C1187 1.334 . S
C1188 C1189 1.287 . S
C1189 C1188 1.287 . S
C1189 C1190 1.524 . S
C1189 H1192 0.999 . S
C1190 H1160 0.950 . S
C1190 C1189 1.524 . S
C1190 C1191 1.415 . S
C1191 H1161 0.950 . S
C1191 C1186 1.363 . S
C1191 C1190 1.415 . S
H1192 C1189 0.999 . S
H1193 C1174 0.913 . S
H1194 C1212 0.951 . S
H1195 C1214 0.951 . S
H1196 C1216 0.950 . S
H1197 C1217 0.950 . S
H1198 C1219 0.950 . S
H1199 C1222 0.950 . S
H1200 C1223 0.950 . S
H1201 C1225 0.950 . S
H1202 C1226 0.950 . S
H1203 C1227 0.951 . S
H1204 C1229 0.951 . S
H1205 C1231 0.950 . S
H1206 C1232 0.950 . S
H1207 C1234 0.950 . S
H1208 C1237 0.950 . S
H1209 C1238 0.950 . S
H1210 C1240 0.950 . S
H1211 C1241 0.950 . S
C1212 H1194 0.951 . S
C1212 C1213 1.366 . S
C1212 C1214 1.388 . S
C1213 C1212 1.366 . S
C1213 C1217 1.385 . S
C1214 H1195 0.951 . S
C1214 C1212 1.388 . S
C1214 C1215 1.366 . S
C1215 C1214 1.366 . S
C1215 C1216 1.414 . S
C1215 C1218 1.499 . S
C1216 H1196 0.950 . S
C1216 C1215 1.414 . S
C1216 C1217 1.374 . S
C1217 H1197 0.950 . S
C1217 C1213 1.385 . S
C1217 C1216 1.374 . S
C1218 C1215 1.499 . S
C1218 C1219 1.373 . S
C1218 C1220 1.389 . S
C1219 H1198 0.950 . S
C1219 C1218 1.373 . S
C1219 C1235 1.377 . S
C1220 C1218 1.389 . S
C1220 C1221 1.524 . S
C1220 C1234 1.377 . S
C1221 C1220 1.524 . S
C1221 C1222 1.397 . S
C1221 C1226 1.363 . S
C1222 H1199 0.950 . S
C1222 C1221 1.397 . S
C1222 C1223 1.334 . S
C1223 H1200 0.950 . S
C1223 C1222 1.334 . S
C1223 C1224 1.287 . S
C1224 C1223 1.287 . S
C1224 C1225 1.524 . S
C1224 H1243 0.913 . S
C1225 H1201 0.950 . S
C1225 C1224 1.524 . S
C1225 C1226 1.415 . S
C1226 H1202 0.950 . S
C1226 C1221 1.363 . S
C1226 C1225 1.415 . S
C1227 H1203 0.951 . S
C1227 C1228 1.366 . S
C1227 C1229 1.388 . S
C1228 C1227 1.366 . S
C1228 C1232 1.385 . S
C1229 H1204 0.951 . S
C1229 C1227 1.388 . S
C1229 C1230 1.366 . S
C1230 C1229 1.366 . S
C1230 C1231 1.414 . S
C1230 C1233 1.499 . S
C1231 H1205 0.950 . S
C1231 C1230 1.414 . S
C1231 C1232 1.374 . S
C1232 H1206 0.950 . S
C1232 C1228 1.385 . S
C1232 C1231 1.374 . S
C1233 C1230 1.499 . S
C1233 C1234 1.373 . S
C1233 C1235 1.389 . S
C1234 H1207 0.950 . S
C1234 C1220 1.377 . S
C1234 C1233 1.373 . S
C1235 C1219 1.377 . S
C1235 C1233 1.389 . S
C1235 C1236 1.524 . S
C1236 C1235 1.524 . S
C1236 C1237 1.397 . S
C1236 C1241 1.363 . S
C1237 H1208 0.950 . S
C1237 C1236 1.397 . S
C1237 C1238 1.334 . S
C1238 H1209 0.950 . S
C1238 C1237 1.334 . S
C1238 C1239 1.287 . S
C1239 C1238 1.287 . S
C1239 C1240 1.524 . S
C1239 H1242 0.999 . S
C1240 H1210 0.950 . S
C1240 C1239 1.524 . S
C1240 C1241 1.415 . S
C1241 H1211 0.950 . S
C1241 C1236 1.363 . S
C1241 C1240 1.415 . S
H1242 C1239 0.999 . S
H1243 C1224 0.913 . S
H1244 C1262 0.951 . S
H1245 C1264 0.951 . S
H1246 C1266 0.950 . S
H1247 C1267 0.950 . S
H1248 C1269 0.950 . S
H1249 C1272 0.950 . S
H1250 C1273 0.950 . S
H1251 C1275 0.950 . S
H1252 C1276 0.950 . S
H1253 C1277 0.951 . S
H1254 C1279 1.006 . S
H1255 C1281 0.950 . S
H1256 C1282 0.950 . S
H1257 C1284 0.950 . S
H1258 C1287 0.950 . S
H1259 C1288 0.950 . S
H1260 C1290 0.950 . S
H1261 C1291 0.950 . S
C1262 H1244 0.951 . S
C1262 C1263 1.366 . S
C1262 C1264 1.388 . S
C1263 C1262 1.366 . S
C1263 C1267 1.385 1_455 S
C1264 H1245 0.951 . S
C1264 C1262 1.388 . S
C1264 C1265 1.366 . S
C1265 C1264 1.366 . S
C1265 C1266 1.414 1_455 S
C1265 C1268 1.499 . S
C1266 H1246 0.950 . S
C1266 C1265 1.414 1_655 S
C1266 C1267 1.374 . S
C1267 H1247 0.950 . S
C1267 C1263 1.385 1_655 S
C1267 C1266 1.374 . S
C1268 C1265 1.499 . S
C1268 C1269 1.373 . S
C1268 C1270 1.389 1_554 S
C1269 H1248 0.950 . S
C1269 C1268 1.373 . S
C1269 C1285 1.377 . S
C1270 C1268 1.389 1_556 S
C1270 C1271 1.524 . S
C1270 C1284 1.377 . S
C1271 C1270 1.524 . S
C1271 C1272 1.397 . S
C1271 C1276 1.363 . S
C1272 H1249 0.950 . S
C1272 C1271 1.397 . S
C1272 C1273 1.334 . S
C1273 H1250 0.950 . S
C1273 C1272 1.334 . S
C1273 C1274 1.287 . S
C1274 C1273 1.287 . S
C1274 C1275 1.524 . S
C1274 H1293 0.913 . S
C1275 H1251 0.950 . S
C1275 C1274 1.524 . S
C1275 C1276 1.415 . S
C1276 H1252 0.950 . S
C1276 C1271 1.363 . S
C1276 C1275 1.415 . S
C1277 H1253 0.951 . S
C1277 C1278 1.366 1_655 S
C1277 C1279 1.390 . S
C1278 C1277 1.366 1_455 S
C1278 C1282 1.385 . S
C1279 H1254 1.006 . S
C1279 C1277 1.390 . S
C1279 C1280 1.311 1_655 S
C1280 C1279 1.311 1_455 S
C1280 C1281 1.414 . S
C1280 C1283 1.499 . S
C1281 H1255 0.950 . S
C1281 C1280 1.414 . S
C1281 C1282 1.374 . S
C1282 H1256 0.950 . S
C1282 C1278 1.385 . S
C1282 C1281 1.374 . S
C1283 C1280 1.499 . S
C1283 C1284 1.373 . S
C1283 C1285 1.389 1_556 S
C1284 H1257 0.950 . S
C1284 C1270 1.377 . S
C1284 C1283 1.373 . S
C1285 C1269 1.377 . S
C1285 C1283 1.389 1_554 S
C1285 C1286 1.524 . S
C1286 C1285 1.524 . S
C1286 C1287 1.397 . S
C1286 C1291 1.363 1_455 S
C1287 H1258 0.950 . S
C1287 C1286 1.397 . S
C1287 C1288 1.334 . S
C1288 H1259 0.950 . S
C1288 C1287 1.334 . S
C1288 C1289 1.287 1_455 S
C1289 C1288 1.287 1_655 S
C1289 C1290 1.524 . S
C1289 H1292 0.999 . S
C1290 H1260 0.950 . S
C1290 C1289 1.524 . S
C1290 C1291 1.415 . S
C1291 H1261 0.950 . S
C1291 C1286 1.363 1_655 S
C1291 C1290 1.415 . S
H1292 C1289 0.999 . S
H1293 C1274 0.913 . S
H1294 C1312 0.951 . S
H1295 C1314 0.951 . S
H1296 C1316 0.950 . S
H1297 C1317 0.950 . S
H1298 C1319 0.950 1_565 S
H1299 C1322 0.950 . S
H1300 C1323 0.950 . S
H1301 C1325 0.950 . S
H1302 C1326 0.950 . S
H1303 C1327 0.951 . S
H1304 C1329 0.951 . S
H1305 C1331 0.950 . S
H1306 C1332 0.950 . S
H1307 C1334 0.950 . S
H1308 C1337 0.950 . S
H1309 C1338 0.950 . S
H1310 C1340 0.950 . S
H1311 C1341 0.950 . S
C1312 H1294 0.951 . S
C1312 C1313 1.366 . S
C1312 C1314 1.388 . S
C1313 C1312 1.366 . S
C1313 C1317 1.385 . S
C1314 H1295 0.951 . S
C1314 C1312 1.388 . S
C1314 C1315 1.366 . S
C1315 C1314 1.366 . S
C1315 C1316 1.414 . S
C1315 C1318 1.499 . S
C1316 H1296 0.950 . S
C1316 C1315 1.414 . S
C1316 C1317 1.374 . S
C1317 H1297 0.950 . S
C1317 C1313 1.385 . S
C1317 C1316 1.374 . S
C1318 C1315 1.499 . S
C1318 C1319 1.373 . S
C1318 C1320 1.389 . S
C1319 H1298 0.950 1_545 S
C1319 C1318 1.373 . S
C1319 C1335 1.377 . S
C1320 C1318 1.389 . S
C1320 C1321 1.524 . S
C1320 C1334 1.377 . S
C1321 C1320 1.524 . S
C1321 C1322 1.397 . S
C1321 C1326 1.363 . S
C1322 H1299 0.950 . S
C1322 C1321 1.397 . S
C1322 C1323 1.334 . S
C1323 H1300 0.950 . S
C1323 C1322 1.334 . S
C1323 C1324 1.287 . S
C1324 C1323 1.287 . S
C1324 C1325 1.524 . S
C1324 H1343 0.913 . S
C1325 H1301 0.950 . S
C1325 C1324 1.524 . S
C1325 C1326 1.415 . S
C1326 H1302 0.950 . S
C1326 C1321 1.363 . S
C1326 C1325 1.415 . S
C1327 H1303 0.951 . S
C1327 C1328 1.366 . S
C1327 C1329 1.388 . S
C1328 C1327 1.366 . S
C1328 C1332 1.385 . S
C1329 H1304 0.951 . S
C1329 C1327 1.388 . S
C1329 C1330 1.366 . S
C1330 C1329 1.366 . S
C1330 C1331 1.414 . S
C1330 C1333 1.499 . S
C1331 H1305 0.950 . S
C1331 C1330 1.414 . S
C1331 C1332 1.374 . S
C1332 H1306 0.950 . S
C1332 C1328 1.385 . S
C1332 C1331 1.374 . S
C1333 C1330 1.499 . S
C1333 C1334 1.373 . S
C1333 C1335 1.389 . S
C1334 H1307 0.950 . S
C1334 C1320 1.377 . S
C1334 C1333 1.373 . S
C1335 C1319 1.377 . S
C1335 C1333 1.389 . S
C1335 C1336 1.524 1_545 S
C1336 C1335 1.524 1_565 S
C1336 C1337 1.397 . S
C1336 C1341 1.363 . S
C1337 H1308 0.950 . S
C1337 C1336 1.397 . S
C1337 C1338 1.334 . S
C1338 H1309 0.950 . S
C1338 C1337 1.334 . S
C1338 C1339 1.287 . S
C1339 C1338 1.287 . S
C1339 C1340 1.524 . S
C1339 H1342 0.999 . S
C1340 H1310 0.950 . S
C1340 C1339 1.524 . S
C1340 C1341 1.415 . S
C1341 H1311 0.950 . S
C1341 C1336 1.363 . S
C1341 C1340 1.415 . S
H1342 C1339 0.999 . S
H1343 C1324 0.913 . S
H1344 C1362 0.951 . S
H1345 C1364 0.951 . S
H1346 C1366 0.950 . S
H1347 C1367 0.950 . S
H1348 C1369 0.950 . S
H1349 C1372 0.950 . S
H1350 C1373 0.950 . S
H1351 C1375 0.950 . S
H1352 C1376 0.950 . S
H1353 C1377 0.951 . S
H1354 C1379 0.951 . S
H1355 C1381 0.950 . S
H1356 C1382 0.950 . S
H1357 C1384 0.950 . S
H1358 C1387 0.950 . S
H1359 C1388 0.950 . S
H1360 C1390 0.950 1_565 S
H1361 C1391 0.950 . S
C1362 H1344 0.951 . S
C1362 C1363 1.366 . S
C1362 C1364 1.388 . S
C1363 C1362 1.366 . S
C1363 C1367 1.385 . S
C1364 H1345 0.951 . S
C1364 C1362 1.388 . S
C1364 C1365 1.366 . S
C1365 C1364 1.366 . S
C1365 C1366 1.414 . S
C1365 C1368 1.499 . S
C1366 H1346 0.950 . S
C1366 C1365 1.414 . S
C1366 C1367 1.374 . S
C1367 H1347 0.950 . S
C1367 C1363 1.385 . S
C1367 C1366 1.374 . S
C1368 C1365 1.499 . S
C1368 C1369 1.373 . S
C1368 C1370 1.389 . S
C1369 H1348 0.950 . S
C1369 C1368 1.373 . S
C1369 C1385 1.377 . S
C1370 C1368 1.389 . S
C1370 C1371 1.524 . S
C1370 C1384 1.377 . S
C1371 C1370 1.524 . S
C1371 C1372 1.397 . S
C1371 C1376 1.363 . S
C1372 H1349 0.950 . S
C1372 C1371 1.397 . S
C1372 C1373 1.334 . S
C1373 H1350 0.950 . S
C1373 C1372 1.334 . S
C1373 C1374 1.287 . S
C1374 C1373 1.287 . S
C1374 C1375 1.524 . S
C1374 H1393 0.913 . S
C1375 H1351 0.950 . S
C1375 C1374 1.524 . S
C1375 C1376 1.415 . S
C1376 H1352 0.950 . S
C1376 C1371 1.363 . S
C1376 C1375 1.415 . S
C1377 H1353 0.951 . S
C1377 C1378 1.366 . S
C1377 C1379 1.388 . S
C1378 C1377 1.366 . S
C1378 C1382 1.385 . S
C1379 H1354 0.951 . S
C1379 C1377 1.388 . S
C1379 C1380 1.366 . S
C1380 C1379 1.366 . S
C1380 C1381 1.414 . S
C1380 C1383 1.499 . S
C1381 H1355 0.950 . S
C1381 C1380 1.414 . S
C1381 C1382 1.374 . S
C1382 H1356 0.950 . S
C1382 C1378 1.385 . S
C1382 C1381 1.374 . S
C1383 C1380 1.499 . S
C1383 C1384 1.373 . S
C1383 C1385 1.389 . S
C1384 H1357 0.950 . S
C1384 C1370 1.377 . S
C1384 C1383 1.373 . S
C1385 C1369 1.377 . S
C1385 C1383 1.389 . S
C1385 C1386 1.524 . S
C1386 C1385 1.524 . S
C1386 C1387 1.397 . S
C1386 C1391 1.363 . S
C1387 H1358 0.950 . S
C1387 C1386 1.397 . S
C1387 C1388 1.334 . S
C1388 H1359 0.950 . S
C1388 C1387 1.334 . S
C1388 C1389 1.287 . S
C1389 C1388 1.287 . S
C1389 C1390 1.524 . S
C1389 H1392 0.999 1_545 S
C1390 H1360 0.950 1_545 S
C1390 C1389 1.524 . S
C1390 C1391 1.415 . S
C1391 H1361 0.950 . S
C1391 C1386 1.363 . S
C1391 C1390 1.415 . S
H1392 C1389 0.999 1_565 S
H1393 C1374 0.913 . S
H1394 C1412 0.951 . S
H1395 C1414 0.951 . S
H1396 C1416 0.950 . S
H1397 C1417 0.950 . S
H1398 C1419 0.950 . S
H1399 C1422 0.950 . S
H1400 C1423 0.950 . S
H1401 C1425 0.950 . S
H1402 C1426 0.950 . S
H1403 C1427 0.951 . S
H1404 C1429 0.951 . S
H1405 C1431 0.950 . S
H1406 C1432 0.950 . S
H1407 C1434 0.950 . S
H1408 C1437 0.950 . S
H1409 C1438 0.950 . S
H1410 C1440 0.950 . S
H1411 C1441 0.950 . S
C1412 H1394 0.951 . S
C1412 C1413 1.366 . S
C1412 C1414 1.388 . S
C1413 C1412 1.366 . S
C1413 C1417 1.385 . S
C1414 H1395 0.951 . S
C1414 C1412 1.388 . S
C1414 C1415 1.366 . S
C1415 C1414 1.366 . S
C1415 C1416 1.414 . S
C1415 C1418 1.499 . S
C1416 H1396 0.950 . S
C1416 C1415 1.414 . S
C1416 C1417 1.374 . S
C1417 H1397 0.950 . S
C1417 C1413 1.385 . S
C1417 C1416 1.374 . S
C1418 C1415 1.499 . S
C1418 C1419 1.373 . S
C1418 C1420 1.389 . S
C1419 H1398 0.950 . S
C1419 C1418 1.373 . S
C1419 C1435 1.377 . S
C1420 C1418 1.389 . S
C1420 C1421 1.524 . S
C1420 C1434 1.377 . S
C1421 C1420 1.524 . S
C1421 C1422 1.397 . S
C1421 C1426 1.363 . S
C1422 H1399 0.950 . S
C1422 C1421 1.397 . S
C1422 C1423 1.334 . S
C1423 H1400 0.950 . S
C1423 C1422 1.334 . S
C1423 C1424 1.287 . S
C1424 C1423 1.287 . S
C1424 C1425 1.524 . S
C1424 H1443 0.913 . S
C1425 H1401 0.950 . S
C1425 C1424 1.524 . S
C1425 C1426 1.415 . S
C1426 H1402 0.950 . S
C1426 C1421 1.363 . S
C1426 C1425 1.415 . S
C1427 H1403 0.951 . S
C1427 C1428 1.366 . S
C1427 C1429 1.388 . S
C1428 C1427 1.366 . S
C1428 C1432 1.385 . S
C1429 H1404 0.951 . S
C1429 C1427 1.388 . S
C1429 C1430 1.366 . S
C1430 C1429 1.366 . S
C1430 C1431 1.414 . S
C1430 C1433 1.499 . S
C1431 H1405 0.950 . S
C1431 C1430 1.414 . S
C1431 C1432 1.374 . S
C1432 H1406 0.950 . S
C1432 C1428 1.385 . S
C1432 C1431 1.374 . S
C1433 C1430 1.499 . S
C1433 C1434 1.373 . S
C1433 C1435 1.389 . S
C1434 H1407 0.950 . S
C1434 C1420 1.377 . S
C1434 C1433 1.373 . S
C1435 C1419 1.377 . S
C1435 C1433 1.389 . S
C1435 C1436 1.524 . S
C1436 C1435 1.524 . S
C1436 C1437 1.397 . S
C1436 C1441 1.363 . S
C1437 H1408 0.950 . S
C1437 C1436 1.397 . S
C1437 C1438 1.334 . S
C1438 H1409 0.950 . S
C1438 C1437 1.334 . S
C1438 C1439 1.287 . S
C1439 C1438 1.287 . S
C1439 C1440 1.524 . S
C1439 H1442 0.999 . S
C1440 H1410 0.950 . S
C1440 C1439 1.524 . S
C1440 C1441 1.415 . S
C1441 H1411 0.950 . S
C1441 C1436 1.363 . S
C1441 C1440 1.415 . S
H1442 C1439 0.999 . S
H1443 C1424 0.913 . S
H1444 C1462 0.951 . S
H1445 C1464 0.951 . S
H1446 C1466 0.950 . S
H1447 C1467 0.950 . S
H1448 C1469 0.950 . S
H1449 C1472 0.950 . S
H1450 C1473 0.950 . S
H1451 C1475 0.950 . S
H1452 C1476 0.950 . S
H1453 C1477 0.951 . S
H1454 C1479 0.951 . S
H1455 C1481 0.950 . S
H1456 C1482 0.950 . S
H1457 C1484 0.950 . S
H1458 C1487 0.950 . S
H1459 C1488 0.950 . S
H1460 C1490 0.901 1_655 S
H1461 C1491 0.950 . S
C1462 H1444 0.951 . S
C1462 C1463 1.366 . S
C1462 C1464 1.388 . S
C1463 C1462 1.366 . S
C1463 C1467 1.385 . S
C1464 H1445 0.951 . S
C1464 C1462 1.388 . S
C1464 C1465 1.366 . S
C1465 C1464 1.366 . S
C1465 C1466 1.414 . S
C1465 C1468 1.499 . S
C1466 H1446 0.950 . S
C1466 C1465 1.414 . S
C1466 C1467 1.374 . S
C1467 H1447 0.950 . S
C1467 C1463 1.385 . S
C1467 C1466 1.374 . S
C1468 C1465 1.499 . S
C1468 C1469 1.373 . S
C1468 C1470 1.389 . S
C1469 H1448 0.950 . S
C1469 C1468 1.373 . S
C1469 C1485 1.377 . S
C1470 C1468 1.389 . S
C1470 C1471 1.524 . S
C1470 C1484 1.377 . S
C1471 C1470 1.524 . S
C1471 C1472 1.397 . S
C1471 C1476 1.363 . S
C1472 H1449 0.950 . S
C1472 C1471 1.397 . S
C1472 C1473 1.334 . S
C1473 H1450 0.950 . S
C1473 C1472 1.334 . S
C1473 C1474 1.287 . S
C1474 C1473 1.287 . S
C1474 C1475 1.524 . S
C1474 H1493 0.913 . S
C1475 H1451 0.950 . S
C1475 C1474 1.524 . S
C1475 C1476 1.415 . S
C1476 H1452 0.950 . S
C1476 C1471 1.363 . S
C1476 C1475 1.415 . S
C1477 H1453 0.951 . S
C1477 C1478 1.366 . S
C1477 C1479 1.388 . S
C1478 C1477 1.366 . S
C1478 C1482 1.385 . S
C1479 H1454 0.951 . S
C1479 C1477 1.388 . S
C1479 C1480 1.366 . S
C1480 C1479 1.366 . S
C1480 C1481 1.414 . S
C1480 C1483 1.499 . S
C1481 H1455 0.950 . S
C1481 C1480 1.414 . S
C1481 C1482 1.374 . S
C1482 H1456 0.950 . S
C1482 C1478 1.385 . S
C1482 C1481 1.374 . S
C1483 C1480 1.499 . S
C1483 C1484 1.373 . S
C1483 C1485 1.389 . S
C1484 H1457 0.950 . S
C1484 C1470 1.377 . S
C1484 C1483 1.373 . S
C1485 C1469 1.377 . S
C1485 C1483 1.389 . S
C1485 C1486 1.524 . S
C1486 C1485 1.524 . S
C1486 C1487 1.397 . S
C1486 C1491 1.363 . S
C1487 H1458 0.950 . S
C1487 C1486 1.397 . S
C1487 C1488 1.334 . S
C1488 H1459 0.950 . S
C1488 C1487 1.334 . S
C1488 C1489 1.287 . S
C1489 C1488 1.287 . S
C1489 C1490 1.524 . S
C1489 H1492 1.015 . S
C1490 H1460 0.901 1_455 S
C1490 C1489 1.524 . S
C1490 C1491 1.415 . S
C1491 H1461 0.950 . S
C1491 C1486 1.363 . S
C1491 C1490 1.415 . S
H1492 C1489 1.015 . S
H1493 C1474 0.913 . S
H1494 C1512 0.951 . S
H1495 C1514 0.951 . S
H1496 C1516 0.950 . S
H1497 C1517 0.950 . S
H1498 C1519 0.950 . S
H1499 C1522 0.950 . S
H1500 C1523 0.950 . S
H1501 C1525 0.950 . S
H1502 C1526 0.950 . S
H1503 C1527 0.951 . S
H1504 C1529 0.951 . S
H1505 C1531 0.950 . S
H1506 C1532 0.950 . S
H1507 C1534 0.950 . S
H1508 C1537 0.950 . S
H1509 C1538 0.950 . S
H1510 C1540 0.950 . S
H1511 C1541 0.950 . S
C1512 H1494 0.951 . S
C1512 C1513 1.366 . S
C1512 C1514 1.388 . S
C1513 C1512 1.366 . S
C1513 C1517 1.385 . S
C1514 H1495 0.951 . S
C1514 C1512 1.388 . S
C1514 C1515 1.366 . S
C1515 C1514 1.366 . S
C1515 C1516 1.414 . S
C1515 C1518 1.499 . S
C1516 H1496 0.950 . S
C1516 C1515 1.414 . S
C1516 C1517 1.374 . S
C1517 H1497 0.950 . S
C1517 C1513 1.385 . S
C1517 C1516 1.374 . S
C1518 C1515 1.499 . S
C1518 C1519 1.373 . S
C1518 C1520 1.389 . S
C1519 H1498 0.950 . S
C1519 C1518 1.373 . S
C1519 C1535 1.377 . S
C1520 C1518 1.389 . S
C1520 C1521 1.524 . S
C1520 C1534 1.377 . S
C1521 C1520 1.524 . S
C1521 C1522 1.397 . S
C1521 C1526 1.363 . S
C1522 H1499 0.950 . S
C1522 C1521 1.397 . S
C1522 C1523 1.334 . S
C1523 H1500 0.950 . S
C1523 C1522 1.334 . S
C1523 C1524 1.287 . S
C1524 C1523 1.287 . S
C1524 C1525 1.524 . S
C1524 H1543 0.913 . S
C1525 H1501 0.950 . S
C1525 C1524 1.524 . S
C1525 C1526 1.415 . S
C1526 H1502 0.950 . S
C1526 C1521 1.363 . S
C1526 C1525 1.415 . S
C1527 H1503 0.951 . S
C1527 C1528 1.366 . S
C1527 C1529 1.388 . S
C1528 C1527 1.366 . S
C1528 C1532 1.385 . S
C1529 H1504 0.951 . S
C1529 C1527 1.388 . S
C1529 C1530 1.366 . S
C1530 C1529 1.366 . S
C1530 C1531 1.414 . S
C1530 C1533 1.499 . S
C1531 H1505 0.950 . S
C1531 C1530 1.414 . S
C1531 C1532 1.374 . S
C1532 H1506 0.950 . S
C1532 C1528 1.385 . S
C1532 C1531 1.374 . S
C1533 C1530 1.499 . S
C1533 C1534 1.373 . S
C1533 C1535 1.389 . S
C1534 H1507 0.950 . S
C1534 C1520 1.377 . S
C1534 C1533 1.373 . S
C1535 C1519 1.377 . S
C1535 C1533 1.389 . S
C1535 C1536 1.524 . S
C1536 C1535 1.524 . S
C1536 C1537 1.397 . S
C1536 C1541 1.363 . S
C1537 H1508 0.950 . S
C1537 C1536 1.397 . S
C1537 C1538 1.334 . S
C1538 H1509 0.950 . S
C1538 C1537 1.334 . S
C1538 C1539 1.287 . S
C1539 C1538 1.287 . S
C1539 C1540 1.524 . S
C1539 H1542 0.999 . S
C1540 H1510 0.950 . S
C1540 C1539 1.524 . S
C1540 C1541 1.415 . S
C1541 H1511 0.950 . S
C1541 C1536 1.363 . S
C1541 C1540 1.415 . S
H1542 C1539 0.999 . S
H1543 C1524 0.913 . S
H1544 C1562 0.951 . S
H1545 C1564 0.951 . S
H1546 C1566 0.950 . S
H1547 C1567 0.950 . S
H1548 C1569 0.950 . S
H1549 C1572 0.950 . S
H1550 C1573 0.950 . S
H1551 C1575 0.950 1_545 S
H1552 C1576 0.950 . S
H1553 C1577 0.951 . S
H1554 C1579 0.951 . S
H1555 C1581 0.950 . S
H1556 C1582 0.950 . S
H1557 C1584 0.950 . S
H1558 C1587 0.950 . S
H1559 C1588 0.950 . S
H1560 C1590 0.950 . S
H1561 C1591 0.950 . S
C1562 H1544 0.951 . S
C1562 C1563 1.366 . S
C1562 C1564 1.388 . S
C1563 C1562 1.366 . S
C1563 C1567 1.385 . S
C1564 H1545 0.951 . S
C1564 C1562 1.388 . S
C1564 C1565 1.366 . S
C1565 C1564 1.366 . S
C1565 C1566 1.414 . S
C1565 C1568 1.499 . S
C1566 H1546 0.950 . S
C1566 C1565 1.414 . S
C1566 C1567 1.374 . S
C1567 H1547 0.950 . S
C1567 C1563 1.385 . S
C1567 C1566 1.374 . S
C1568 C1565 1.499 . S
C1568 C1569 1.373 . S
C1568 C1570 1.389 . S
C1569 H1548 0.950 . S
C1569 C1568 1.373 . S
C1569 C1585 1.377 . S
C1570 C1568 1.389 . S
C1570 C1571 1.524 . S
C1570 C1584 1.377 . S
C1571 C1570 1.524 . S
C1571 C1572 1.397 . S
C1571 C1576 1.363 . S
C1572 H1549 0.950 . S
C1572 C1571 1.397 . S
C1572 C1573 1.334 . S
C1573 H1550 0.950 . S
C1573 C1572 1.334 . S
C1573 C1574 1.287 . S
C1574 C1573 1.287 . S
C1574 C1575 1.524 . S
C1574 H1593 0.913 1_565 S
C1575 H1551 0.950 1_565 S
C1575 C1574 1.524 . S
C1575 C1576 1.415 . S
C1576 H1552 0.950 . S
C1576 C1571 1.363 . S
C1576 C1575 1.415 . S
C1577 H1553 0.951 . S
C1577 C1578 1.366 . S
C1577 C1579 1.388 . S
C1578 C1577 1.366 . S
C1578 C1582 1.385 . S
C1579 H1554 0.951 . S
C1579 C1577 1.388 . S
C1579 C1580 1.366 . S
C1580 C1579 1.366 . S
C1580 C1581 1.414 . S
C1580 C1583 1.499 . S
C1581 H1555 0.950 . S
C1581 C1580 1.414 . S
C1581 C1582 1.374 . S
C1582 H1556 0.950 . S
C1582 C1578 1.385 . S
C1582 C1581 1.374 . S
C1583 C1580 1.499 . S
C1583 C1584 1.373 . S
C1583 C1585 1.389 . S
C1584 H1557 0.950 . S
C1584 C1570 1.377 . S
C1584 C1583 1.373 . S
C1585 C1569 1.377 . S
C1585 C1583 1.389 . S
C1585 C1586 1.524 . S
C1586 C1585 1.524 . S
C1586 C1587 1.397 . S
C1586 C1591 1.363 . S
C1587 H1558 0.950 . S
C1587 C1586 1.397 . S
C1587 C1588 1.334 . S
C1588 H1559 0.950 . S
C1588 C1587 1.334 . S
C1588 C1589 1.287 . S
C1589 C1588 1.287 . S
C1589 C1590 1.524 . S
C1589 H1592 0.999 . S
C1590 H1560 0.950 . S
C1590 C1589 1.524 . S
C1590 C1591 1.415 . S
C1591 H1561 0.950 . S
C1591 C1586 1.363 . S
C1591 C1590 1.415 . S
H1592 C1589 0.999 . S
H1593 C1574 0.913 1_545 S
H1594 C1612 0.951 . S
H1595 C1614 0.951 . S
H1596 C1616 0.950 . S
H1597 C1617 0.950 . S
H1598 C1619 0.950 . S
H1599 C1622 0.950 . S
H1600 C1623 0.950 . S
H1601 C1625 0.950 . S
H1602 C1626 0.950 . S
H1603 C1627 0.951 . S
H1604 C1629 0.951 . S
H1605 C1631 0.950 . S
H1606 C1632 0.950 . S
H1607 C1634 0.950 . S
H1608 C1637 0.950 . S
H1609 C1638 0.950 . S
H1610 C1640 0.950 . S
H1611 C1641 0.950 . S
C1612 H1594 0.951 . S
C1612 C1613 1.366 . S
C1612 C1614 1.388 . S
C1613 C1612 1.366 . S
C1613 C1617 1.385 . S
C1614 H1595 0.951 . S
C1614 C1612 1.388 . S
C1614 C1615 1.366 . S
C1615 C1614 1.366 . S
C1615 C1616 1.414 . S
C1615 C1618 1.499 . S
C1616 H1596 0.950 . S
C1616 C1615 1.414 . S
C1616 C1617 1.374 . S
C1617 H1597 0.950 . S
C1617 C1613 1.385 . S
C1617 C1616 1.374 . S
C1618 C1615 1.499 . S
C1618 C1619 1.373 . S
C1618 C1620 1.389 . S
C1619 H1598 0.950 . S
C1619 C1618 1.373 . S
C1619 C1635 1.377 . S
C1620 C1618 1.389 . S
C1620 C1621 1.524 . S
C1620 C1634 1.377 . S
C1621 C1620 1.524 . S
C1621 C1622 1.397 . S
C1621 C1626 1.363 . S
C1622 H1599 0.950 . S
C1622 C1621 1.397 . S
C1622 C1623 1.334 . S
C1623 H1600 0.950 . S
C1623 C1622 1.334 . S
C1623 C1624 1.287 . S
C1624 C1623 1.287 . S
C1624 C1625 1.524 . S
C1624 H1643 0.913 . S
C1625 H1601 0.950 . S
C1625 C1624 1.524 . S
C1625 C1626 1.415 . S
C1626 H1602 0.950 . S
C1626 C1621 1.363 . S
C1626 C1625 1.415 . S
C1627 H1603 0.951 . S
C1627 C1628 1.366 . S
C1627 C1629 1.388 . S
C1628 C1627 1.366 . S
C1628 C1632 1.385 . S
C1629 H1604 0.951 . S
C1629 C1627 1.388 . S
C1629 C1630 1.366 . S
C1630 C1629 1.366 . S
C1630 C1631 1.414 . S
C1630 C1633 1.499 . S
C1631 H1605 0.950 . S
C1631 C1630 1.414 . S
C1631 C1632 1.374 . S
C1632 H1606 0.950 . S
C1632 C1628 1.385 . S
C1632 C1631 1.374 . S
C1633 C1630 1.499 . S
C1633 C1634 1.373 . S
C1633 C1635 1.389 . S
C1634 H1607 0.950 . S
C1634 C1620 1.377 . S
C1634 C1633 1.373 . S
C1635 C1619 1.377 . S
C1635 C1633 1.389 . S
C1635 C1636 1.524 . S
C1636 C1635 1.524 . S
C1636 C1637 1.397 . S
C1636 C1641 1.363 . S
C1637 H1608 0.950 . S
C1637 C1636 1.397 . S
C1637 C1638 1.334 . S
C1638 H1609 0.950 . S
C1638 C1637 1.334 . S
C1638 C1639 1.287 . S
C1639 C1638 1.287 . S
C1639 C1640 1.524 . S
C1639 H1642 0.999 . S
C1640 H1610 0.950 . S
C1640 C1639 1.524 . S
C1640 C1641 1.415 . S
C1641 H1611 0.950 . S
C1641 C1636 1.363 . S
C1641 C1640 1.415 . S
H1642 C1639 0.999 . S
H1643 C1624 0.913 . S
H1644 C1662 0.951 . S
H1645 C1664 0.951 . S
H1646 C1666 0.950 . S
H1647 C1667 0.950 . S
H1648 C1669 0.950 . S
H1649 C1672 0.950 . S
H1650 C1673 0.950 . S
H1651 C1675 0.950 . S
H1652 C1676 0.950 . S
H1653 C1677 0.951 . S
H1654 C1679 0.951 . S
H1655 C1681 0.950 . S
H1656 C1682 0.950 . S
H1657 C1684 0.950 . S
H1658 C1687 0.950 . S
H1659 C1688 0.950 . S
H1660 C1690 0.950 . S
H1661 C1691 0.950 . S
C1662 H1644 0.951 . S
C1662 C1663 1.366 . S
C1662 C1664 1.388 . S
C1663 C1662 1.366 . S
C1663 C1667 1.385 . S
C1664 H1645 0.951 . S
C1664 C1662 1.388 . S
C1664 C1665 1.366 . S
C1665 C1664 1.366 . S
C1665 C1666 1.414 . S
C1665 C1668 1.499 . S
C1666 H1646 0.950 . S
C1666 C1665 1.414 . S
C1666 C1667 1.374 . S
C1667 H1647 0.950 . S
C1667 C1663 1.385 . S
C1667 C1666 1.374 . S
C1668 C1665 1.499 . S
C1668 C1669 1.373 . S
C1668 C1670 1.389 . S
C1669 H1648 0.950 . S
C1669 C1668 1.373 . S
C1669 C1685 1.377 . S
C1670 C1668 1.389 . S
C1670 C1671 1.524 . S
C1670 C1684 1.377 . S
C1671 C1670 1.524 . S
C1671 C1672 1.397 . S
C1671 C1676 1.363 . S
C1672 H1649 0.950 . S
C1672 C1671 1.397 . S
C1672 C1673 1.334 . S
C1673 H1650 0.950 . S
C1673 C1672 1.334 . S
C1673 C1674 1.287 . S
C1674 C1673 1.287 . S
C1674 C1675 1.524 . S
C1674 H1693 0.913 . S
C1675 H1651 0.950 . S
C1675 C1674 1.524 . S
C1675 C1676 1.415 . S
C1676 H1652 0.950 . S
C1676 C1671 1.363 . S
C1676 C1675 1.415 . S
C1677 H1653 0.951 . S
C1677 C1678 1.366 . S
C1677 C1679 1.388 . S
C1678 C1677 1.366 . S
C1678 C1682 1.385 . S
C1679 H1654 0.951 . S
C1679 C1677 1.388 . S
C1679 C1680 1.366 . S
C1680 C1679 1.366 . S
C1680 C1681 1.414 . S
C1680 C1683 1.499 . S
C1681 H1655 0.950 . S
C1681 C1680 1.414 . S
C1681 C1682 1.374 . S
C1682 H1656 0.950 . S
C1682 C1678 1.385 . S
C1682 C1681 1.374 . S
C1683 C1680 1.499 . S
C1683 C1684 1.373 . S
C1683 C1685 1.389 . S
C1684 H1657 0.950 . S
C1684 C1670 1.377 . S
C1684 C1683 1.373 . S
C1685 C1669 1.377 . S
C1685 C1683 1.389 . S
C1685 C1686 1.524 . S
C1686 C1685 1.524 . S
C1686 C1687 1.397 . S
C1686 C1691 1.363 . S
C1687 H1658 0.950 . S
C1687 C1686 1.397 . S
C1687 C1688 1.334 . S
C1688 H1659 0.950 . S
C1688 C1687 1.334 . S
C1688 C1689 1.287 . S
C1689 C1688 1.287 . S
C1689 C1690 1.524 . S
C1689 H1692 0.999 . S
C1690 H1660 0.950 . S
C1690 C1689 1.524 . S
C1690 C1691 1.415 . S
C1691 H1661 0.950 . S
C1691 C1686 1.363 . S
C1691 C1690 1.415 . S
H1692 C1689 0.999 . S
H1693 C1674 0.913 . S
H1694 C1712 0.951 . S
H1695 C1714 0.951 . S
H1696 C1716 0.950 . S
H1697 C1717 0.950 . S
H1698 C1719 0.950 . S
H1699 C1722 0.950 . S
H1700 C1723 0.918 1_545 S
H1701 C1725 0.950 1_545 S
H1702 C1726 0.950 . S
H1703 C1727 0.951 . S
H1704 C1729 0.951 . S
H1705 C1731 0.950 . S
H1706 C1732 0.950 . S
H1707 C1734 0.950 . S
H1708 C1737 0.950 . S
H1709 C1738 0.950 . S
H1710 C1740 0.950 . S
H1711 C1741 0.950 . S
C1712 H1694 0.951 . S
C1712 C1713 1.366 . S
C1712 C1714 1.388 . S
C1713 C1712 1.366 . S
C1713 C1717 1.385 . S
C1714 H1695 0.951 . S
C1714 C1712 1.388 . S
C1714 C1715 1.366 . S
C1715 C1714 1.366 . S
C1715 C1716 1.414 . S
C1715 C1718 1.499 . S
C1716 H1696 0.950 . S
C1716 C1715 1.414 . S
C1716 C1717 1.374 . S
C1717 H1697 0.950 . S
C1717 C1713 1.385 . S
C1717 C1716 1.374 . S
C1718 C1715 1.499 . S
C1718 C1719 1.373 . S
C1718 C1720 1.389 . S
C1719 H1698 0.950 . S
C1719 C1718 1.373 . S
C1719 C1735 1.377 . S
C1720 C1718 1.389 . S
C1720 C1721 1.524 . S
C1720 C1734 1.377 . S
C1721 C1720 1.524 . S
C1721 C1722 1.397 . S
C1721 C1726 1.363 . S
C1722 H1699 0.950 . S
C1722 C1721 1.397 . S
C1722 C1723 1.399 . S
C1723 H1700 0.918 1_565 S
C1723 C1722 1.399 . S
C1723 C1724 1.259 1_565 S
C1724 C1723 1.259 1_545 S
C1724 C1725 1.524 1_545 S
C1724 H1743 0.913 . S
C1725 H1701 0.950 1_565 S
C1725 C1724 1.524 1_565 S
C1725 C1726 1.415 . S
C1726 H1702 0.950 . S
C1726 C1721 1.363 . S
C1726 C1725 1.415 . S
C1727 H1703 0.951 . S
C1727 C1728 1.366 . S
C1727 C1729 1.388 . S
C1728 C1727 1.366 . S
C1728 C1732 1.385 . S
C1729 H1704 0.951 . S
C1729 C1727 1.388 . S
C1729 C1730 1.366 . S
C1730 C1729 1.366 . S
C1730 C1731 1.414 . S
C1730 C1733 1.499 . S
C1731 H1705 0.950 . S
C1731 C1730 1.414 . S
C1731 C1732 1.374 . S
C1732 H1706 0.950 . S
C1732 C1728 1.385 . S
C1732 C1731 1.374 . S
C1733 C1730 1.499 . S
C1733 C1734 1.373 . S
C1733 C1735 1.389 . S
C1734 H1707 0.950 . S
C1734 C1720 1.377 . S
C1734 C1733 1.373 . S
C1735 C1719 1.377 . S
C1735 C1733 1.389 . S
C1735 C1736 1.524 . S
C1736 C1735 1.524 . S
C1736 C1737 1.397 . S
C1736 C1741 1.363 . S
C1737 H1708 0.950 . S
C1737 C1736 1.397 . S
C1737 C1738 1.334 . S
C1738 H1709 0.950 . S
C1738 C1737 1.334 . S
C1738 C1739 1.287 . S
C1739 C1738 1.287 . S
C1739 C1740 1.524 . S
C1739 H1742 0.999 . S
C1740 H1710 0.950 . S
C1740 C1739 1.524 . S
C1740 C1741 1.415 . S
C1741 H1711 0.950 . S
C1741 C1736 1.363 . S
C1741 C1740 1.415 . S
H1742 C1739 0.999 . S
H1743 C1724 0.913 . S
H1744 C1762 0.951 . S
H1745 C1764 0.951 . S
H1746 C1766 0.950 . S
H1747 C1767 0.950 . S
H1748 C1769 0.950 . S
H1749 C1772 0.950 . S
H1750 C1773 0.950 . S
H1751 C1775 0.950 . S
H1752 C1776 0.950 . S
H1753 C1777 0.951 . S
H1754 C1779 0.951 . S
H1755 C1781 0.950 . S
H1756 C1782 0.950 . S
H1757 C1784 0.950 . S
H1758 C1787 0.950 . S
H1759 C1788 0.950 . S
H1760 C1790 0.950 . S
H1761 C1791 0.950 . S
C1762 H1744 0.951 . S
C1762 C1763 1.366 . S
C1762 C1764 1.388 . S
C1763 C1762 1.366 . S
C1763 C1767 1.385 . S
C1764 H1745 0.951 . S
C1764 C1762 1.388 . S
C1764 C1765 1.366 . S
C1765 C1764 1.366 . S
C1765 C1766 1.414 . S
C1765 C1768 1.499 . S
C1766 H1746 0.950 . S
C1766 C1765 1.414 . S
C1766 C1767 1.374 . S
C1767 H1747 0.950 . S
C1767 C1763 1.385 . S
C1767 C1766 1.374 . S
C1768 C1765 1.499 . S
C1768 C1769 1.373 . S
C1768 C1770 1.389 . S
C1769 H1748 0.950 . S
C1769 C1768 1.373 . S
C1769 C1785 1.377 . S
C1770 C1768 1.389 . S
C1770 C1771 1.524 . S
C1770 C1784 1.377 . S
C1771 C1770 1.524 . S
C1771 C1772 1.397 . S
C1771 C1776 1.363 . S
C1772 H1749 0.950 . S
C1772 C1771 1.397 . S
C1772 C1773 1.334 . S
C1773 H1750 0.950 . S
C1773 C1772 1.334 . S
C1773 C1774 1.287 . S
C1774 C1773 1.287 . S
C1774 C1775 1.524 . S
C1774 H1793 0.913 . S
C1775 H1751 0.950 . S
C1775 C1774 1.524 . S
C1775 C1776 1.415 . S
C1776 H1752 0.950 . S
C1776 C1771 1.363 . S
C1776 C1775 1.415 . S
C1777 H1753 0.951 . S
C1777 C1778 1.366 . S
C1777 C1779 1.388 . S
C1778 C1777 1.366 . S
C1778 C1782 1.385 . S
C1779 H1754 0.951 . S
C1779 C1777 1.388 . S
C1779 C1780 1.366 . S
C1780 C1779 1.366 . S
C1780 C1781 1.414 . S
C1780 C1783 1.499 . S
C1781 H1755 0.950 . S
C1781 C1780 1.414 . S
C1781 C1782 1.374 . S
C1782 H1756 0.950 . S
C1782 C1778 1.385 . S
C1782 C1781 1.374 . S
C1783 C1780 1.499 . S
C1783 C1784 1.373 . S
C1783 C1785 1.389 . S
C1784 H1757 0.950 . S
C1784 C1770 1.377 . S
C1784 C1783 1.373 . S
C1785 C1769 1.377 . S
C1785 C1783 1.389 . S
C1785 C1786 1.524 . S
C1786 C1785 1.524 . S
C1786 C1787 1.397 . S
C1786 C1791 1.363 . S
C1787 H1758 0.950 . S
C1787 C1786 1.397 . S
C1787 C1788 1.334 . S
C1788 H1759 0.950 . S
C1788 C1787 1.334 . S
C1788 C1789 1.287 . S
C1789 C1788 1.287 . S
C1789 C1790 1.524 . S
C1789 H1792 0.999 . S
C1790 H1760 0.950 . S
C1790 C1789 1.524 . S
C1790 C1791 1.415 . S
C1791 H1761 0.950 . S
C1791 C1786 1.363 . S
C1791 C1790 1.415 . S
H1792 C1789 0.999 . S
H1793 C1774 0.913 . S
H1794 C1812 0.951 . S
H1795 C1814 0.951 . S
H1796 C1816 0.950 . S
H1797 C1817 0.950 . S
H1798 C1819 0.950 . S
H1799 C1822 0.950 . S
H1800 C1823 0.950 . S
H1801 C1825 0.950 . S
H1802 C1826 0.950 . S
H1803 C1827 0.951 . S
H1804 C1829 0.951 . S
H1805 C1831 0.950 . S
H1806 C1832 0.950 . S
H1807 C1834 0.950 . S
H1808 C1837 0.950 . S
H1809 C1838 0.950 . S
H1810 C1840 0.950 . S
H1811 C1841 0.950 . S
C1812 H1794 0.951 . S
C1812 C1813 1.366 . S
C1812 C1814 1.388 . S
C1813 C1812 1.366 . S
C1813 C1817 1.385 . S
C1814 H1795 0.951 . S
C1814 C1812 1.388 . S
C1814 C1815 1.366 . S
C1815 C1814 1.366 . S
C1815 C1816 1.414 . S
C1815 C1818 1.499 . S
C1816 H1796 0.950 . S
C1816 C1815 1.414 . S
C1816 C1817 1.374 . S
C1817 H1797 0.950 . S
C1817 C1813 1.385 . S
C1817 C1816 1.374 . S
C1818 C1815 1.499 . S
C1818 C1819 1.373 . S
C1818 C1820 1.389 . S
C1819 H1798 0.950 . S
C1819 C1818 1.373 . S
C1819 C1835 1.377 . S
C1820 C1818 1.389 . S
C1820 C1821 1.524 . S
C1820 C1834 1.377 . S
C1821 C1820 1.524 . S
C1821 C1822 1.397 . S
C1821 C1826 1.363 . S
C1822 H1799 0.950 . S
C1822 C1821 1.397 . S
C1822 C1823 1.334 . S
C1823 H1800 0.950 . S
C1823 C1822 1.334 . S
C1823 C1824 1.287 . S
C1824 C1823 1.287 . S
C1824 C1825 1.524 . S
C1824 H1843 0.913 . S
C1825 H1801 0.950 . S
C1825 C1824 1.524 . S
C1825 C1826 1.415 . S
C1826 H1802 0.950 . S
C1826 C1821 1.363 . S
C1826 C1825 1.415 . S
C1827 H1803 0.951 . S
C1827 C1828 1.366 . S
C1827 C1829 1.388 . S
C1828 C1827 1.366 . S
C1828 C1832 1.385 . S
C1829 H1804 0.951 . S
C1829 C1827 1.388 . S
C1829 C1830 1.366 . S
C1830 C1829 1.366 . S
C1830 C1831 1.414 . S
C1830 C1833 1.499 . S
C1831 H1805 0.950 . S
C1831 C1830 1.414 . S
C1831 C1832 1.374 . S
C1832 H1806 0.950 . S
C1832 C1828 1.385 . S
C1832 C1831 1.374 . S
C1833 C1830 1.499 . S
C1833 C1834 1.373 . S
C1833 C1835 1.389 . S
C1834 H1807 0.950 . S
C1834 C1820 1.377 . S
C1834 C1833 1.373 . S
C1835 C1819 1.377 . S
C1835 C1833 1.389 . S
C1835 C1836 1.524 . S
C1836 C1835 1.524 . S
C1836 C1837 1.397 . S
C1836 C1841 1.363 . S
C1837 H1808 0.950 . S
C1837 C1836 1.397 . S
C1837 C1838 1.334 . S
C1838 H1809 0.950 . S
C1838 C1837 1.334 . S
C1838 C1839 1.287 . S
C1839 C1838 1.287 . S
C1839 C1840 1.524 . S
C1839 H1842 0.999 . S
C1840 H1810 0.950 . S
C1840 C1839 1.524 . S
C1840 C1841 1.415 . S
C1841 H1811 0.950 . S
C1841 C1836 1.363 . S
C1841 C1840 1.415 . S
H1842 C1839 0.999 . S
H1843 C1824 0.913 . S
H1844 C1862 0.951 . S
H1845 C1864 0.951 . S
H1846 C1866 0.950 . S
H1847 C1867 0.950 . S
H1848 C1869 0.950 . S
H1849 C1872 0.950 . S
H1850 C1873 0.950 . S
H1851 C1875 0.950 . S
H1852 C1876 0.950 . S
H1853 C1877 0.951 . S
H1854 C1879 0.951 . S
H1855 C1881 0.950 . S
H1856 C1882 0.950 . S
H1857 C1884 0.950 . S
H1858 C1887 0.950 . S
H1859 C1888 0.950 . S
H1860 C1890 0.950 . S
H1861 C1891 0.950 . S
C1862 H1844 0.951 . S
C1862 C1863 1.366 . S
C1862 C1864 1.388 . S
C1863 C1862 1.366 . S
C1863 C1867 1.385 . S
C1864 H1845 0.951 . S
C1864 C1862 1.388 . S
C1864 C1865 1.366 . S
C1865 C1864 1.366 . S
C1865 C1866 1.414 . S
C1865 C1868 1.499 . S
C1866 H1846 0.950 . S
C1866 C1865 1.414 . S
C1866 C1867 1.374 . S
C1867 H1847 0.950 . S
C1867 C1863 1.385 . S
C1867 C1866 1.374 . S
C1868 C1865 1.499 . S
C1868 C1869 1.373 . S
C1868 C1870 1.389 . S
C1869 H1848 0.950 . S
C1869 C1868 1.373 . S
C1869 C1885 1.377 . S
C1870 C1868 1.389 . S
C1870 C1871 1.524 . S
C1870 C1884 1.377 . S
C1871 C1870 1.524 . S
C1871 C1872 1.397 . S
C1871 C1876 1.363 . S
C1872 H1849 0.950 . S
C1872 C1871 1.397 . S
C1872 C1873 1.334 . S
C1873 H1850 0.950 . S
C1873 C1872 1.334 . S
C1873 C1874 1.287 . S
C1874 C1873 1.287 . S
C1874 C1875 1.524 . S
C1874 H1893 0.913 . S
C1875 H1851 0.950 . S
C1875 C1874 1.524 . S
C1875 C1876 1.415 . S
C1876 H1852 0.950 . S
C1876 C1871 1.363 . S
C1876 C1875 1.415 . S
C1877 H1853 0.951 . S
C1877 C1878 1.366 . S
C1877 C1879 1.388 . S
C1878 C1877 1.366 . S
C1878 C1882 1.385 . S
C1879 H1854 0.951 . S
C1879 C1877 1.388 . S
C1879 C1880 1.366 . S
C1880 C1879 1.366 . S
C1880 C1881 1.414 . S
C1880 C1883 1.499 . S
C1881 H1855 0.950 . S
C1881 C1880 1.414 . S
C1881 C1882 1.374 . S
C1882 H1856 0.950 . S
C1882 C1878 1.385 . S
C1882 C1881 1.374 . S
C1883 C1880 1.499 . S
C1883 C1884 1.373 . S
C1883 C1885 1.389 . S
C1884 H1857 0.950 . S
C1884 C1870 1.377 . S
C1884 C1883 1.373 . S
C1885 C1869 1.377 . S
C1885 C1883 1.389 . S
C1885 C1886 1.524 . S
C1886 C1885 1.524 . S
C1886 C1887 1.397 . S
C1886 C1891 1.363 . S
C1887 H1858 0.950 . S
C1887 C1886 1.397 . S
C1887 C1888 1.334 . S
C1888 H1859 0.950 . S
C1888 C1887 1.334 . S
C1888 C1889 1.287 . S
C1889 C1888 1.287 . S
C1889 C1890 1.524 . S
C1889 H1892 0.999 . S
C1890 H1860 0.950 . S
C1890 C1889 1.524 . S
C1890 C1891 1.415 . S
C1891 H1861 0.950 . S
C1891 C1886 1.363 . S
C1891 C1890 1.415 . S
H1892 C1889 0.999 . S
H1893 C1874 0.913 . S
H1894 C1912 0.951 . S
H1895 C1914 0.951 . S
H1896 C1916 0.950 . S
H1897 C1917 0.950 . S
H1898 C1919 0.950 . S
H1899 C1922 0.950 . S
H1900 C1923 0.950 . S
H1901 C1925 0.950 . S
H1902 C1926 0.950 . S
H1903 C1927 0.951 . S
H1904 C1929 0.951 . S
H1905 C1931 0.950 . S
H1906 C1932 0.950 . S
H1907 C1934 0.950 . S
H1908 C1937 0.950 . S
H1909 C1938 0.950 . S
H1910 C1940 0.950 1_545 S
H1911 C1941 0.950 . S
C1912 H1894 0.951 . S
C1912 C1913 1.366 . S
C1912 C1914 1.388 . S
C1913 C1912 1.366 . S
C1913 C1917 1.385 . S
C1914 H1895 0.951 . S
C1914 C1912 1.388 . S
C1914 C1915 1.366 . S
C1915 C1914 1.366 . S
C1915 C1916 1.414 . S
C1915 C1918 1.499 . S
C1916 H1896 0.950 . S
C1916 C1915 1.414 . S
C1916 C1917 1.374 . S
C1917 H1897 0.950 . S
C1917 C1913 1.385 . S
C1917 C1916 1.374 . S
C1918 C1915 1.499 . S
C1918 C1919 1.373 . S
C1918 C1920 1.389 . S
C1919 H1898 0.950 . S
C1919 C1918 1.373 . S
C1919 C1935 1.377 . S
C1920 C1918 1.389 . S
C1920 C1921 1.524 . S
C1920 C1934 1.377 . S
C1921 C1920 1.524 . S
C1921 C1922 1.397 . S
C1921 C1926 1.363 . S
C1922 H1899 0.950 . S
C1922 C1921 1.397 . S
C1922 C1923 1.334 . S
C1923 H1900 0.950 . S
C1923 C1922 1.334 . S
C1923 C1924 1.287 . S
C1924 C1923 1.287 . S
C1924 C1925 1.524 . S
C1924 H1943 0.913 . S
C1925 H1901 0.950 . S
C1925 C1924 1.524 . S
C1925 C1926 1.415 . S
C1926 H1902 0.950 . S
C1926 C1921 1.363 . S
C1926 C1925 1.415 . S
C1927 H1903 0.951 . S
C1927 C1928 1.366 . S
C1927 C1929 1.388 . S
C1928 C1927 1.366 . S
C1928 C1932 1.385 . S
C1929 H1904 0.951 . S
C1929 C1927 1.388 . S
C1929 C1930 1.366 . S
C1930 C1929 1.366 . S
C1930 C1931 1.414 . S
C1930 C1933 1.499 . S
C1931 H1905 0.950 . S
C1931 C1930 1.414 . S
C1931 C1932 1.374 . S
C1932 H1906 0.950 . S
C1932 C1928 1.385 . S
C1932 C1931 1.374 . S
C1933 C1930 1.499 . S
C1933 C1934 1.373 . S
C1933 C1935 1.389 . S
C1934 H1907 0.950 . S
C1934 C1920 1.377 . S
C1934 C1933 1.373 . S
C1935 C1919 1.377 . S
C1935 C1933 1.389 . S
C1935 C1936 1.524 . S
C1936 C1935 1.524 . S
C1936 C1937 1.397 . S
C1936 C1941 1.363 . S
C1937 H1908 0.950 . S
C1937 C1936 1.397 . S
C1937 C1938 1.334 . S
C1938 H1909 0.950 . S
C1938 C1937 1.334 . S
C1938 C1939 1.287 . S
C1939 C1938 1.287 . S
C1939 C1940 1.524 . S
C1939 H1942 0.999 1_565 S
C1940 H1910 0.950 1_565 S
C1940 C1939 1.524 . S
C1940 C1941 1.415 . S
C1941 H1911 0.950 . S
C1941 C1936 1.363 . S
C1941 C1940 1.415 . S
H1942 C1939 0.999 1_545 S
H1943 C1924 0.913 . S
H1944 C1962 0.951 . S
H1945 C1964 0.951 . S
H1946 C1966 0.950 . S
H1947 C1967 0.950 . S
H1948 C1969 0.950 . S
H1949 C1972 0.950 . S
H1950 C1973 0.950 . S
H1951 C1975 0.950 . S
H1952 C1976 0.950 . S
H1953 C1977 0.951 . S
H1954 C1979 0.951 . S
H1955 C1981 0.950 . S
H1956 C1982 0.950 . S
H1957 C1984 0.950 . S
H1958 C1987 0.950 . S
H1959 C1988 0.950 . S
H1960 C1990 0.950 . S
H1961 C1991 0.950 . S
C1962 H1944 0.951 . S
C1962 C1963 1.366 . S
C1962 C1964 1.388 . S
C1963 C1962 1.366 . S
C1963 C1967 1.385 . S
C1964 H1945 0.951 . S
C1964 C1962 1.388 . S
C1964 C1965 1.366 . S
C1965 C1964 1.366 . S
C1965 C1966 1.414 . S
C1965 C1968 1.499 . S
C1966 H1946 0.950 . S
C1966 C1965 1.414 . S
C1966 C1967 1.374 . S
C1967 H1947 0.950 . S
C1967 C1963 1.385 . S
C1967 C1966 1.374 . S
C1968 C1965 1.499 . S
C1968 C1969 1.373 . S
C1968 C1970 1.389 . S
C1969 H1948 0.950 . S
C1969 C1968 1.373 . S
C1969 C1985 1.377 . S
C1970 C1968 1.389 . S
C1970 C1971 1.524 . S
C1970 C1984 1.377 . S
C1971 C1970 1.524 . S
C1971 C1972 1.397 . S
C1971 C1976 1.363 . S
C1972 H1949 0.950 . S
C1972 C1971 1.397 . S
C1972 C1973 1.334 . S
C1973 H1950 0.950 . S
C1973 C1972 1.334 . S
C1973 C1974 1.287 . S
C1974 C1973 1.287 . S
C1974 C1975 1.524 . S
C1974 H1993 0.913 . S
C1975 H1951 0.950 . S
C1975 C1974 1.524 . S
C1975 C1976 1.415 . S
C1976 H1952 0.950 . S
C1976 C1971 1.363 . S
C1976 C1975 1.415 . S
C1977 H1953 0.951 . S
C1977 C1978 1.366 . S
C1977 C1979 1.388 . S
C1978 C1977 1.366 . S
C1978 C1982 1.385 . S
C1979 H1954 0.951 . S
C1979 C1977 1.388 . S
C1979 C1980 1.366 . S
C1980 C1979 1.366 . S
C1980 C1981 1.414 . S
C1980 C1983 1.499 . S
C1981 H1955 0.950 . S
C1981 C1980 1.414 . S
C1981 C1982 1.374 . S
C1982 H1956 0.950 . S
C1982 C1978 1.385 . S
C1982 C1981 1.374 . S
C1983 C1980 1.499 . S
C1983 C1984 1.373 . S
C1983 C1985 1.389 . S
C1984 H1957 0.950 . S
C1984 C1970 1.377 . S
C1984 C1983 1.373 . S
C1985 C1969 1.377 . S
C1985 C1983 1.389 . S
C1985 C1986 1.524 . S
C1986 C1985 1.524 . S
C1986 C1987 1.397 . S
C1986 C1991 1.363 . S
C1987 H1958 0.950 . S
C1987 C1986 1.397 . S
C1987 C1988 1.334 . S
C1988 H1959 0.950 . S
C1988 C1987 1.334 . S
C1988 C1989 1.287 . S
C1989 C1988 1.287 . S
C1989 C1990 1.524 . S
C1989 H1992 0.999 . S
C1990 H1960 0.950 . S
C1990 C1989 1.524 . S
C1990 C1991 1.415 . S
C1991 H1961 0.950 . S
C1991 C1986 1.363 . S
C1991 C1990 1.415 . S
H1992 C1989 0.999 . S
H1993 C1974 0.913 . S
H1994 C2012 0.951 . S
H1995 C2014 0.951 . S
H1996 C2016 0.950 . S
H1997 C2017 0.950 . S
H1998 C2019 0.950 . S
H1999 C2022 0.950 . S
H2000 C2023 0.950 . S
H2001 C2025 0.950 . S
H2002 C2026 0.950 . S
H2003 C2027 0.951 . S
H2004 C2029 0.951 . S
H2005 C2031 0.950 . S
H2006 C2032 0.950 . S
H2007 C2034 0.950 . S
H2008 C2037 0.950 . S
H2009 C2038 0.950 . S
H2010 C2040 0.950 . S
H2011 C2041 0.950 . S
C2012 H1994 0.951 . S
C2012 C2013 1.366 . S
C2012 C2014 1.388 . S
C2013 C2012 1.366 . S
C2013 C2017 1.385 . S
C2014 H1995 0.951 . S
C2014 C2012 1.388 . S
C2014 C2015 1.366 . S
C2015 C2014 1.366 . S
C2015 C2016 1.414 . S
C2015 C2018 1.499 . S
C2016 H1996 0.950 . S
C2016 C2015 1.414 . S
C2016 C2017 1.374 . S
C2017 H1997 0.950 . S
C2017 C2013 1.385 . S
C2017 C2016 1.374 . S
C2018 C2015 1.499 . S
C2018 C2019 1.373 . S
C2018 C2020 1.389 . S
C2019 H1998 0.950 . S
C2019 C2018 1.373 . S
C2019 C2035 1.377 . S
C2020 C2018 1.389 . S
C2020 C2021 1.524 . S
C2020 C2034 1.377 . S
C2021 C2020 1.524 . S
C2021 C2022 1.397 . S
C2021 C2026 1.363 . S
C2022 H1999 0.950 . S
C2022 C2021 1.397 . S
C2022 C2023 1.334 . S
C2023 H2000 0.950 . S
C2023 C2022 1.334 . S
C2023 C2024 1.287 . S
C2024 C2023 1.287 . S
C2024 C2025 1.524 . S
C2024 H2043 0.913 . S
C2025 H2001 0.950 . S
C2025 C2024 1.524 . S
C2025 C2026 1.415 . S
C2026 H2002 0.950 . S
C2026 C2021 1.363 . S
C2026 C2025 1.415 . S
C2027 H2003 0.951 . S
C2027 C2028 1.366 . S
C2027 C2029 1.388 . S
C2028 C2027 1.366 . S
C2028 C2032 1.385 . S
C2029 H2004 0.951 . S
C2029 C2027 1.388 . S
C2029 C2030 1.366 . S
C2030 C2029 1.366 . S
C2030 C2031 1.414 . S
C2030 C2033 1.499 . S
C2031 H2005 0.950 . S
C2031 C2030 1.414 . S
C2031 C2032 1.374 . S
C2032 H2006 0.950 . S
C2032 C2028 1.385 . S
C2032 C2031 1.374 . S
C2033 C2030 1.499 . S
C2033 C2034 1.373 . S
C2033 C2035 1.389 . S
C2034 H2007 0.950 . S
C2034 C2020 1.377 . S
C2034 C2033 1.373 . S
C2035 C2019 1.377 . S
C2035 C2033 1.389 . S
C2035 C2036 1.524 . S
C2036 C2035 1.524 . S
C2036 C2037 1.397 . S
C2036 C2041 1.363 . S
C2037 H2008 0.950 . S
C2037 C2036 1.397 . S
C2037 C2038 1.334 . S
C2038 H2009 0.950 . S
C2038 C2037 1.334 . S
C2038 C2039 1.287 . S
C2039 C2038 1.287 . S
C2039 C2040 1.524 . S
C2039 H2042 0.999 . S
C2040 H2010 0.950 . S
C2040 C2039 1.524 . S
C2040 C2041 1.415 . S
C2041 H2011 0.950 . S
C2041 C2036 1.363 . S
C2041 C2040 1.415 . S
H2042 C2039 0.999 . S
H2043 C2024 0.913 . S
H2044 C2062 0.951 . S
H2045 C2064 0.951 . S
H2046 C2066 0.950 . S
H2047 C2067 0.950 . S
H2048 C2069 0.950 . S
H2049 C2072 0.950 . S
H2050 C2073 0.950 . S
H2051 C2075 0.950 . S
H2052 C2076 0.950 . S
H2053 C2077 0.951 . S
H2054 C2079 0.951 . S
H2055 C2081 0.950 . S
H2056 C2082 0.950 . S
H2057 C2084 0.950 . S
H2058 C2087 0.950 . S
H2059 C2088 0.950 . S
H2060 C2090 0.950 . S
H2061 C2091 0.950 . S
C2062 H2044 0.951 . S
C2062 C2063 1.366 . S
C2062 C2064 1.388 . S
C2063 C2062 1.366 . S
C2063 C2067 1.385 . S
C2064 H2045 0.951 . S
C2064 C2062 1.388 . S
C2064 C2065 1.366 . S
C2065 C2064 1.366 . S
C2065 C2066 1.414 . S
C2065 C2068 1.499 . S
C2066 H2046 0.950 . S
C2066 C2065 1.414 . S
C2066 C2067 1.374 . S
C2067 H2047 0.950 . S
C2067 C2063 1.385 . S
C2067 C2066 1.374 . S
C2068 C2065 1.499 . S
C2068 C2069 1.373 . S
C2068 C2070 1.389 . S
C2069 H2048 0.950 . S
C2069 C2068 1.373 . S
C2069 C2085 1.377 . S
C2070 C2068 1.389 . S
C2070 C2071 1.524 . S
C2070 C2084 1.377 . S
C2071 C2070 1.524 . S
C2071 C2072 1.397 . S
C2071 C2076 1.363 . S
C2072 H2049 0.950 . S
C2072 C2071 1.397 . S
C2072 C2073 1.334 . S
C2073 H2050 0.950 . S
C2073 C2072 1.334 . S
C2073 C2074 1.287 . S
C2074 C2073 1.287 . S
C2074 C2075 1.524 . S
C2074 H2093 0.913 . S
C2075 H2051 0.950 . S
C2075 C2074 1.524 . S
C2075 C2076 1.415 . S
C2076 H2052 0.950 . S
C2076 C2071 1.363 . S
C2076 C2075 1.415 . S
C2077 H2053 0.951 . S
C2077 C2078 1.366 . S
C2077 C2079 1.388 . S
C2078 C2077 1.366 . S
C2078 C2082 1.385 . S
C2079 H2054 0.951 . S
C2079 C2077 1.388 . S
C2079 C2080 1.366 . S
C2080 C2079 1.366 . S
C2080 C2081 1.414 . S
C2080 C2083 1.499 . S
C2081 H2055 0.950 . S
C2081 C2080 1.414 . S
C2081 C2082 1.374 . S
C2082 H2056 0.950 . S
C2082 C2078 1.385 . S
C2082 C2081 1.374 . S
C2083 C2080 1.499 . S
C2083 C2084 1.373 . S
C2083 C2085 1.389 . S
C2084 H2057 0.950 . S
C2084 C2070 1.377 . S
C2084 C2083 1.373 . S
C2085 C2069 1.377 . S
C2085 C2083 1.389 . S
C2085 C2086 1.524 . S
C2086 C2085 1.524 . S
C2086 C2087 1.397 . S
C2086 C2091 1.363 . S
C2087 H2058 0.950 . S
C2087 C2086 1.397 . S
C2087 C2088 1.334 . S
C2088 H2059 0.950 . S
C2088 C2087 1.334 . S
C2088 C2089 1.287 . S
C2089 C2088 1.287 . S
C2089 C2090 1.524 . S
C2089 H2092 0.999 . S
C2090 H2060 0.950 . S
C2090 C2089 1.524 . S
C2090 C2091 1.415 . S
C2091 H2061 0.950 . S
C2091 C2086 1.363 . S
C2091 C2090 1.415 . S
H2092 C2089 0.999 . S
H2093 C2074 0.913 . S
H2094 C2112 0.951 . S
H2095 C2114 0.951 . S
H2096 C2116 0.950 . S
H2097 C2117 0.950 . S
H2098 C2119 0.950 . S
H2099 C2122 0.950 . S
H2100 C2123 0.950 . S
H2101 C2125 0.950 . S
H2102 C2126 0.950 . S
H2103 C2127 0.951 . S
H2104 C2129 0.951 . S
H2105 C2131 0.950 . S
H2106 C2132 0.950 . S
H2107 C2134 0.950 . S
H2108 C2137 0.950 . S
H2109 C2138 0.950 . S
H2110 C2140 0.950 . S
H2111 C2141 0.950 . S
C2112 H2094 0.951 . S
C2112 C2113 1.366 . S
C2112 C2114 1.388 . S
C2113 C2112 1.366 . S
C2113 C2117 1.385 . S
C2114 H2095 0.951 . S
C2114 C2112 1.388 . S
C2114 C2115 1.366 . S
C2115 C2114 1.366 . S
C2115 C2116 1.414 . S
C2115 C2118 1.499 . S
C2116 H2096 0.950 . S
C2116 C2115 1.414 . S
C2116 C2117 1.374 . S
C2117 H2097 0.950 . S
C2117 C2113 1.385 . S
C2117 C2116 1.374 . S
C2118 C2115 1.499 . S
C2118 C2119 1.373 . S
C2118 C2120 1.389 . S
C2119 H2098 0.950 . S
C2119 C2118 1.373 . S
C2119 C2135 1.377 . S
C2120 C2118 1.389 . S
C2120 C2121 1.524 . S
C2120 C2134 1.377 . S
C2121 C2120 1.524 . S
C2121 C2122 1.397 . S
C2121 C2126 1.363 . S
C2122 H2099 0.950 . S
C2122 C2121 1.397 . S
C2122 C2123 1.334 . S
C2123 H2100 0.950 . S
C2123 C2122 1.334 . S
C2123 C2124 1.287 . S
C2124 C2123 1.287 . S
C2124 C2125 1.524 . S
C2124 H2143 0.913 . S
C2125 H2101 0.950 . S
C2125 C2124 1.524 . S
C2125 C2126 1.415 . S
C2126 H2102 0.950 . S
C2126 C2121 1.363 . S
C2126 C2125 1.415 . S
C2127 H2103 0.951 . S
C2127 C2128 1.366 . S
C2127 C2129 1.388 . S
C2128 C2127 1.366 . S
C2128 C2132 1.385 . S
C2129 H2104 0.951 . S
C2129 C2127 1.388 . S
C2129 C2130 1.366 . S
C2130 C2129 1.366 . S
C2130 C2131 1.414 . S
C2130 C2133 1.499 . S
C2131 H2105 0.950 . S
C2131 C2130 1.414 . S
C2131 C2132 1.374 . S
C2132 H2106 0.950 . S
C2132 C2128 1.385 . S
C2132 C2131 1.374 . S
C2133 C2130 1.499 . S
C2133 C2134 1.373 . S
C2133 C2135 1.389 . S
C2134 H2107 0.950 . S
C2134 C2120 1.377 . S
C2134 C2133 1.373 . S
C2135 C2119 1.377 . S
C2135 C2133 1.389 . S
C2135 C2136 1.524 . S
C2136 C2135 1.524 . S
C2136 C2137 1.397 . S
C2136 C2141 1.363 . S
C2137 H2108 0.950 . S
C2137 C2136 1.397 . S
C2137 C2138 1.334 . S
C2138 H2109 0.950 . S
C2138 C2137 1.334 . S
C2138 C2139 1.287 . S
C2139 C2138 1.287 . S
C2139 C2140 1.524 . S
C2139 H2142 0.999 . S
C2140 H2110 0.950 . S
C2140 C2139 1.524 . S
C2140 C2141 1.415 . S
C2141 H2111 0.950 . S
C2141 C2136 1.363 . S
C2141 C2140 1.415 . S
H2142 C2139 0.999 . S
H2143 C2124 0.913 . S
H2144 C2162 0.951 . S
H2145 C2164 0.951 . S
H2146 C2166 0.950 . S
H2147 C2167 0.950 . S
H2148 C2169 0.950 . S
H2149 C2172 0.950 . S
H2150 C2173 0.950 . S
H2151 C2175 0.950 . S
H2152 C2176 0.950 . S
H2153 C2177 0.951 . S
H2154 C2179 0.951 . S
H2155 C2181 0.950 . S
H2156 C2182 0.950 . S
H2157 C2184 0.950 . S
H2158 C2187 0.950 . S
H2159 C2188 0.950 . S
H2160 C2190 0.950 . S
H2161 C2191 0.950 . S
C2162 H2144 0.951 . S
C2162 C2163 1.366 . S
C2162 C2164 1.388 . S
C2163 C2162 1.366 . S
C2163 C2167 1.385 . S
C2164 H2145 0.951 . S
C2164 C2162 1.388 . S
C2164 C2165 1.366 . S
C2165 C2164 1.366 . S
C2165 C2166 1.414 . S
C2165 C2168 1.499 . S
C2166 H2146 0.950 . S
C2166 C2165 1.414 . S
C2166 C2167 1.374 . S
C2167 H2147 0.950 . S
C2167 C2163 1.385 . S
C2167 C2166 1.374 . S
C2168 C2165 1.499 . S
C2168 C2169 1.373 . S
C2168 C2170 1.389 . S
C2169 H2148 0.950 . S
C2169 C2168 1.373 . S
C2169 C2185 1.377 . S
C2170 C2168 1.389 . S
C2170 C2171 1.524 . S
C2170 C2184 1.377 . S
C2171 C2170 1.524 . S
C2171 C2172 1.397 . S
C2171 C2176 1.363 . S
C2172 H2149 0.950 . S
C2172 C2171 1.397 . S
C2172 C2173 1.334 . S
C2173 H2150 0.950 . S
C2173 C2172 1.334 . S
C2173 C2174 1.287 . S
C2174 C2173 1.287 . S
C2174 C2175 1.524 . S
C2174 H2193 0.913 . S
C2175 H2151 0.950 . S
C2175 C2174 1.524 . S
C2175 C2176 1.415 . S
C2176 H2152 0.950 . S
C2176 C2171 1.363 . S
C2176 C2175 1.415 . S
C2177 H2153 0.951 . S
C2177 C2178 1.366 . S
C2177 C2179 1.388 . S
C2178 C2177 1.366 . S
C2178 C2182 1.385 . S
C2179 H2154 0.951 . S
C2179 C2177 1.388 . S
C2179 C2180 1.366 . S
C2180 C2179 1.366 . S
C2180 C2181 1.414 . S
C2180 C2183 1.499 . S
C2181 H2155 0.950 . S
C2181 C2180 1.414 . S
C2181 C2182 1.374 . S
C2182 H2156 0.950 . S
C2182 C2178 1.385 . S
C2182 C2181 1.374 . S
C2183 C2180 1.499 . S
C2183 C2184 1.373 . S
C2183 C2185 1.389 . S
C2184 H2157 0.950 . S
C2184 C2170 1.377 . S
C2184 C2183 1.373 . S
C2185 C2169 1.377 . S
C2185 C2183 1.389 . S
C2185 C2186 1.524 . S
C2186 C2185 1.524 . S
C2186 C2187 1.397 . S
C2186 C2191 1.363 . S
C2187 H2158 0.950 . S
C2187 C2186 1.397 . S
C2187 C2188 1.334 . S
C2188 H2159 0.950 . S
C2188 C2187 1.334 . S
C2188 C2189 1.287 . S
C2189 C2188 1.287 . S
C2189 C2190 1.524 . S
C2189 H2192 0.999 . S
C2190 H2160 0.950 . S
C2190 C2189 1.524 . S
C2190 C2191 1.415 . S
C2191 H2161 0.950 . S
C2191 C2186 1.363 . S
C2191 C2190 1.415 . S
H2192 C2189 0.999 . S
H2193 C2174 0.913 . S
H2194 C2212 0.951 . S
H2195 C2214 0.951 . S
H2196 C2216 0.950 . S
H2197 C2217 0.950 . S
H2198 C2219 0.950 . S
H2199 C2222 0.950 . S
H2200 C2223 0.950 . S
H2201 C2225 0.950 . S
H2202 C2226 0.950 . S
H2203 C2227 0.951 . S
H2204 C2229 0.951 . S
H2205 C2231 0.950 . S
H2206 C2232 0.950 . S
H2207 C2234 0.950 . S
H2208 C2237 0.950 . S
H2209 C2238 0.950 . S
H2210 C2240 0.950 . S
H2211 C2241 0.950 . S
C2212 H2194 0.951 . S
C2212 C2213 1.366 . S
C2212 C2214 1.388 . S
C2213 C2212 1.366 . S
C2213 C2217 1.385 . S
C2214 H2195 0.951 . S
C2214 C2212 1.388 . S
C2214 C2215 1.366 . S
C2215 C2214 1.366 . S
C2215 C2216 1.414 . S
C2215 C2218 1.499 . S
C2216 H2196 0.950 . S
C2216 C2215 1.414 . S
C2216 C2217 1.374 . S
C2217 H2197 0.950 . S
C2217 C2213 1.385 . S
C2217 C2216 1.374 . S
C2218 C2215 1.499 . S
C2218 C2219 1.373 . S
C2218 C2220 1.389 . S
C2219 H2198 0.950 . S
C2219 C2218 1.373 . S
C2219 C2235 1.377 . S
C2220 C2218 1.389 . S
C2220 C2221 1.524 . S
C2220 C2234 1.377 . S
C2221 C2220 1.524 . S
C2221 C2222 1.397 . S
C2221 C2226 1.363 . S
C2222 H2199 0.950 . S
C2222 C2221 1.397 . S
C2222 C2223 1.334 . S
C2223 H2200 0.950 . S
C2223 C2222 1.334 . S
C2223 C2224 1.287 . S
C2224 C2223 1.287 . S
C2224 C2225 1.524 . S
C2224 H2243 0.913 . S
C2225 H2201 0.950 . S
C2225 C2224 1.524 . S
C2225 C2226 1.415 . S
C2226 H2202 0.950 . S
C2226 C2221 1.363 . S
C2226 C2225 1.415 . S
C2227 H2203 0.951 . S
C2227 C2228 1.366 . S
C2227 C2229 1.388 . S
C2228 C2227 1.366 . S
C2228 C2232 1.385 . S
C2229 H2204 0.951 . S
C2229 C2227 1.388 . S
C2229 C2230 1.366 . S
C2230 C2229 1.366 . S
C2230 C2231 1.414 . S
C2230 C2233 1.499 . S
C2231 H2205 0.950 . S
C2231 C2230 1.414 . S
C2231 C2232 1.374 . S
C2232 H2206 0.950 . S
C2232 C2228 1.385 . S
C2232 C2231 1.374 . S
C2233 C2230 1.499 . S
C2233 C2234 1.373 . S
C2233 C2235 1.389 . S
C2234 H2207 0.950 . S
C2234 C2220 1.377 . S
C2234 C2233 1.373 . S
C2235 C2219 1.377 . S
C2235 C2233 1.389 . S
C2235 C2236 1.524 . S
C2236 C2235 1.524 . S
C2236 C2237 1.397 . S
C2236 C2241 1.363 . S
C2237 H2208 0.950 . S
C2237 C2236 1.397 . S
C2237 C2238 1.334 . S
C2238 H2209 0.950 . S
C2238 C2237 1.334 . S
C2238 C2239 1.287 . S
C2239 C2238 1.287 . S
C2239 C2240 1.524 . S
C2239 H2242 0.999 . S
C2240 H2210 0.950 . S
C2240 C2239 1.524 . S
C2240 C2241 1.415 . S
C2241 H2211 0.950 . S
C2241 C2236 1.363 . S
C2241 C2240 1.415 . S
H2242 C2239 0.999 . S
H2243 C2224 0.913 . S
H2244 C2262 0.951 . S
H2245 C2264 0.951 . S
H2246 C2266 0.950 . S
H2247 C2267 0.950 . S
H2248 C2269 0.950 . S
H2249 C2272 0.950 . S
H2250 C2273 0.950 . S
H2251 C2275 0.950 . S
H2252 C2276 0.950 . S
H2253 C2277 0.951 . S
H2254 C2279 0.951 . S
H2255 C2281 0.950 . S
H2256 C2282 0.950 . S
H2257 C2284 0.950 . S
H2258 C2287 0.950 . S
H2259 C2288 0.950 . S
H2260 C2290 0.950 . S
H2261 C2291 0.950 . S
C2262 H2244 0.951 . S
C2262 C2263 1.366 . S
C2262 C2264 1.388 . S
C2263 C2262 1.366 . S
C2263 C2267 1.385 . S
C2264 H2245 0.951 . S
C2264 C2262 1.388 . S
C2264 C2265 1.366 . S
C2265 C2264 1.366 . S
C2265 C2266 1.414 . S
C2265 C2268 1.499 . S
C2266 H2246 0.950 . S
C2266 C2265 1.414 . S
C2266 C2267 1.374 . S
C2267 H2247 0.950 . S
C2267 C2263 1.385 . S
C2267 C2266 1.374 . S
C2268 C2265 1.499 . S
C2268 C2269 1.373 . S
C2268 C2270 1.389 . S
C2269 H2248 0.950 . S
C2269 C2268 1.373 . S
C2269 C2285 1.377 . S
C2270 C2268 1.389 . S
C2270 C2271 1.524 . S
C2270 C2284 1.377 . S
C2271 C2270 1.524 . S
C2271 C2272 1.397 . S
C2271 C2276 1.363 . S
C2272 H2249 0.950 . S
C2272 C2271 1.397 . S
C2272 C2273 1.334 . S
C2273 H2250 0.950 . S
C2273 C2272 1.334 . S
C2273 C2274 1.287 . S
C2274 C2273 1.287 . S
C2274 C2275 1.524 . S
C2274 H2293 0.913 . S
C2275 H2251 0.950 . S
C2275 C2274 1.524 . S
C2275 C2276 1.415 . S
C2276 H2252 0.950 . S
C2276 C2271 1.363 . S
C2276 C2275 1.415 . S
C2277 H2253 0.951 . S
C2277 C2278 1.366 . S
C2277 C2279 1.388 . S
C2278 C2277 1.366 . S
C2278 C2282 1.385 . S
C2279 H2254 0.951 . S
C2279 C2277 1.388 . S
C2279 C2280 1.366 . S
C2280 C2279 1.366 . S
C2280 C2281 1.414 . S
C2280 C2283 1.499 . S
C2281 H2255 0.950 . S
C2281 C2280 1.414 . S
C2281 C2282 1.374 . S
C2282 H2256 0.950 . S
C2282 C2278 1.385 . S
C2282 C2281 1.374 . S
C2283 C2280 1.499 . S
C2283 C2284 1.373 . S
C2283 C2285 1.389 . S
C2284 H2257 0.950 . S
C2284 C2270 1.377 . S
C2284 C2283 1.373 . S
C2285 C2269 1.377 . S
C2285 C2283 1.389 . S
C2285 C2286 1.524 . S
C2286 C2285 1.524 . S
C2286 C2287 1.397 . S
C2286 C2291 1.363 . S
C2287 H2258 0.950 . S
C2287 C2286 1.397 . S
C2287 C2288 1.334 . S
C2288 H2259 0.950 . S
C2288 C2287 1.334 . S
C2288 C2289 1.287 . S
C2289 C2288 1.287 . S
C2289 C2290 1.524 . S
C2289 H2292 0.999 . S
C2290 H2260 0.950 . S
C2290 C2289 1.524 . S
C2290 C2291 1.415 . S
C2291 H2261 0.950 . S
C2291 C2286 1.363 . S
C2291 C2290 1.415 . S
H2292 C2289 0.999 . S
H2293 C2274 0.913 . S
H2294 C2312 0.951 . S
H2295 C2314 0.951 . S
H2296 C2316 0.950 . S
H2297 C2317 0.950 . S
H2298 C2319 0.950 . S
H2299 C2322 0.950 . S
H2300 C2323 0.950 . S
H2301 C2325 0.950 . S
H2302 C2326 0.950 . S
H2303 C2327 0.951 . S
H2304 C2329 0.951 . S
H2305 C2331 0.950 . S
H2306 C2332 0.950 . S
H2307 C2334 0.950 . S
H2308 C2337 0.950 . S
H2309 C2338 0.976 . S
H2310 C2340 0.950 . S
H2311 C2341 0.950 . S
C2312 H2294 0.951 . S
C2312 C2313 1.366 . S
C2312 C2314 1.388 . S
C2313 C2312 1.366 . S
C2313 C2317 1.385 . S
C2314 H2295 0.951 . S
C2314 C2312 1.388 . S
C2314 C2315 1.366 . S
C2315 C2314 1.366 . S
C2315 C2316 1.414 . S
C2315 C2318 1.499 . S
C2316 H2296 0.950 . S
C2316 C2315 1.414 . S
C2316 C2317 1.374 . S
C2317 H2297 0.950 . S
C2317 C2313 1.385 . S
C2317 C2316 1.374 . S
C2318 C2315 1.499 . S
C2318 C2319 1.373 . S
C2318 C2320 1.389 . S
C2319 H2298 0.950 . S
C2319 C2318 1.373 . S
C2319 C2335 1.377 . S
C2320 C2318 1.389 . S
C2320 C2321 1.524 . S
C2320 C2334 1.377 . S
C2321 C2320 1.524 . S
C2321 C2322 1.397 . S
C2321 C2326 1.363 . S
C2322 H2299 0.950 . S
C2322 C2321 1.397 . S
C2322 C2323 1.334 . S
C2323 H2300 0.950 . S
C2323 C2322 1.334 . S
C2323 C2324 1.287 . S
C2324 C2323 1.287 . S
C2324 C2325 1.524 . S
C2324 H2343 0.913 . S
C2325 H2301 0.950 . S
C2325 C2324 1.524 . S
C2325 C2326 1.415 . S
C2326 H2302 0.950 . S
C2326 C2321 1.363 . S
C2326 C2325 1.415 . S
C2327 H2303 0.951 . S
C2327 C2328 1.366 . S
C2327 C2329 1.388 . S
C2328 C2327 1.366 . S
C2328 C2332 1.385 . S
C2329 H2304 0.951 . S
C2329 C2327 1.388 . S
C2329 C2330 1.366 . S
C2330 C2329 1.366 . S
C2330 C2331 1.414 . S
C2330 C2333 1.499 . S
C2331 H2305 0.950 . S
C2331 C2330 1.414 . S
C2331 C2332 1.374 . S
C2332 H2306 0.950 . S
C2332 C2328 1.385 . S
C2332 C2331 1.374 . S
C2333 C2330 1.499 . S
C2333 C2334 1.373 . S
C2333 C2335 1.389 . S
C2334 H2307 0.950 . S
C2334 C2320 1.377 . S
C2334 C2333 1.373 . S
C2335 C2319 1.377 . S
C2335 C2333 1.389 . S
C2335 C2336 1.524 . S
C2336 C2335 1.524 . S
C2336 C2337 1.397 . S
C2336 C2341 1.363 . S
C2337 H2308 0.950 . S
C2337 C2336 1.397 . S
C2337 C2338 1.334 . S
C2338 H2309 0.976 . S
C2338 C2337 1.334 . S
C2338 C2339 1.287 . S
C2339 C2338 1.287 . S
C2339 C2340 1.524 . S
C2339 H2342 0.999 1_545 S
C2340 H2310 0.950 . S
C2340 C2339 1.524 . S
C2340 C2341 1.415 . S
C2341 H2311 0.950 . S
C2341 C2336 1.363 . S
C2341 C2340 1.415 . S
H2342 C2339 0.999 1_565 S
H2343 C2324 0.913 . S
H2344 C2362 0.951 . S
H2345 C2364 0.951 . S
H2346 C2366 0.950 . S
H2347 C2367 0.950 . S
H2348 C2369 0.950 . S
H2349 C2372 0.950 . S
H2350 C2373 0.950 . S
H2351 C2375 0.950 . S
H2352 C2376 0.950 . S
H2353 C2377 0.951 . S
H2354 C2379 0.951 . S
H2355 C2381 0.950 . S
H2356 C2382 0.950 . S
H2357 C2384 0.950 . S
H2358 C2387 0.950 . S
H2359 C2388 0.950 . S
H2360 C2390 0.950 . S
H2361 C2391 0.950 . S
C2362 H2344 0.951 . S
C2362 C2363 1.366 . S
C2362 C2364 1.388 . S
C2363 C2362 1.366 . S
C2363 C2367 1.385 . S
C2364 H2345 0.951 . S
C2364 C2362 1.388 . S
C2364 C2365 1.366 . S
C2365 C2364 1.366 . S
C2365 C2366 1.414 . S
C2365 C2368 1.499 . S
C2366 H2346 0.950 . S
C2366 C2365 1.414 . S
C2366 C2367 1.374 . S
C2367 H2347 0.950 . S
C2367 C2363 1.385 . S
C2367 C2366 1.374 . S
C2368 C2365 1.499 . S
C2368 C2369 1.373 . S
C2368 C2370 1.389 . S
C2369 H2348 0.950 . S
C2369 C2368 1.373 . S
C2369 C2385 1.377 . S
C2370 C2368 1.389 . S
C2370 C2371 1.524 . S
C2370 C2384 1.377 . S
C2371 C2370 1.524 . S
C2371 C2372 1.397 . S
C2371 C2376 1.363 . S
C2372 H2349 0.950 . S
C2372 C2371 1.397 . S
C2372 C2373 1.334 . S
C2373 H2350 0.950 . S
C2373 C2372 1.334 . S
C2373 C2374 1.287 . S
C2374 C2373 1.287 . S
C2374 C2375 1.524 . S
C2374 H2393 0.913 . S
C2375 H2351 0.950 . S
C2375 C2374 1.524 . S
C2375 C2376 1.415 . S
C2376 H2352 0.950 . S
C2376 C2371 1.363 . S
C2376 C2375 1.415 . S
C2377 H2353 0.951 . S
C2377 C2378 1.366 . S
C2377 C2379 1.388 . S
C2378 C2377 1.366 . S
C2378 C2382 1.385 . S
C2379 H2354 0.951 . S
C2379 C2377 1.388 . S
C2379 C2380 1.366 . S
C2380 C2379 1.366 . S
C2380 C2381 1.414 . S
C2380 C2383 1.499 . S
C2381 H2355 0.950 . S
C2381 C2380 1.414 . S
C2381 C2382 1.374 . S
C2382 H2356 0.950 . S
C2382 C2378 1.385 . S
C2382 C2381 1.374 . S
C2383 C2380 1.499 . S
C2383 C2384 1.373 . S
C2383 C2385 1.389 . S
C2384 H2357 0.950 . S
C2384 C2370 1.377 . S
C2384 C2383 1.373 . S
C2385 C2369 1.377 . S
C2385 C2383 1.389 . S
C2385 C2386 1.524 . S
C2386 C2385 1.524 . S
C2386 C2387 1.397 . S
C2386 C2391 1.363 . S
C2387 H2358 0.950 . S
C2387 C2386 1.397 . S
C2387 C2388 1.334 . S
C2388 H2359 0.950 . S
C2388 C2387 1.334 . S
C2388 C2389 1.287 . S
C2389 C2388 1.287 . S
C2389 C2390 1.524 . S
C2389 H2392 0.999 . S
C2390 H2360 0.950 . S
C2390 C2389 1.524 . S
C2390 C2391 1.415 . S
C2391 H2361 0.950 . S
C2391 C2386 1.363 . S
C2391 C2390 1.415 . S
H2392 C2389 0.999 . S
H2393 C2374 0.913 . S
H2394 C2412 0.951 . S
H2395 C2414 0.951 . S
H2396 C2416 0.950 . S
H2397 C2417 0.950 . S
H2398 C2419 0.950 . S
H2399 C2422 0.950 . S
H2400 C2423 0.950 . S
H2401 C2425 0.950 . S
H2402 C2426 0.950 . S
H2403 C2427 0.951 . S
H2404 C2429 0.951 . S
H2405 C2431 0.950 . S
H2406 C2432 0.950 . S
H2407 C2434 0.950 . S
H2408 C2437 0.950 . S
H2409 C2438 0.950 . S
H2410 C2440 0.950 . S
H2411 C2441 0.950 . S
C2412 H2394 0.951 . S
C2412 C2413 1.366 . S
C2412 C2414 1.388 . S
C2413 C2412 1.366 . S
C2413 C2417 1.385 . S
C2414 H2395 0.951 . S
C2414 C2412 1.388 . S
C2414 C2415 1.366 . S
C2415 C2414 1.366 . S
C2415 C2416 1.414 . S
C2415 C2418 1.499 . S
C2416 H2396 0.950 . S
C2416 C2415 1.414 . S
C2416 C2417 1.374 . S
C2417 H2397 0.950 . S
C2417 C2413 1.385 . S
C2417 C2416 1.374 . S
C2418 C2415 1.499 . S
C2418 C2419 1.373 . S
C2418 C2420 1.389 . S
C2419 H2398 0.950 . S
C2419 C2418 1.373 . S
C2419 C2435 1.377 . S
C2420 C2418 1.389 . S
C2420 C2421 1.524 . S
C2420 C2434 1.377 . S
C2421 C2420 1.524 . S
C2421 C2422 1.397 . S
C2421 C2426 1.363 . S
C2422 H2399 0.950 . S
C2422 C2421 1.397 . S
C2422 C2423 1.334 . S
C2423 H2400 0.950 . S
C2423 C2422 1.334 . S
C2423 C2424 1.287 . S
C2424 C2423 1.287 . S
C2424 C2425 1.524 . S
C2424 H2443 0.913 . S
C2425 H2401 0.950 . S
C2425 C2424 1.524 . S
C2425 C2426 1.415 . S
C2426 H2402 0.950 . S
C2426 C2421 1.363 . S
C2426 C2425 1.415 . S
C2427 H2403 0.951 . S
C2427 C2428 1.366 . S
C2427 C2429 1.388 . S
C2428 C2427 1.366 . S
C2428 C2432 1.385 . S
C2429 H2404 0.951 . S
C2429 C2427 1.388 . S
C2429 C2430 1.366 . S
C2430 C2429 1.366 . S
C2430 C2431 1.414 . S
C2430 C2433 1.499 . S
C2431 H2405 0.950 . S
C2431 C2430 1.414 . S
C2431 C2432 1.374 . S
C2432 H2406 0.950 . S
C2432 C2428 1.385 . S
C2432 C2431 1.374 . S
C2433 C2430 1.499 . S
C2433 C2434 1.373 . S
C2433 C2435 1.389 . S
C2434 H2407 0.950 . S
C2434 C2420 1.377 . S
C2434 C2433 1.373 . S
C2435 C2419 1.377 . S
C2435 C2433 1.389 . S
C2435 C2436 1.524 . S
C2436 C2435 1.524 . S
C2436 C2437 1.397 . S
C2436 C2441 1.363 . S
C2437 H2408 0.950 . S
C2437 C2436 1.397 . S
C2437 C2438 1.334 . S
C2438 H2409 0.950 . S
C2438 C2437 1.334 . S
C2438 C2439 1.287 . S
C2439 C2438 1.287 . S
C2439 C2440 1.524 . S
C2439 H2442 0.999 . S
C2440 H2410 0.950 . S
C2440 C2439 1.524 . S
C2440 C2441 1.415 . S
C2441 H2411 0.950 . S
C2441 C2436 1.363 . S
C2441 C2440 1.415 . S
H2442 C2439 0.999 . S
H2443 C2424 0.913 . S
H2444 C2462 0.951 . S
H2445 C2464 0.951 . S
H2446 C2466 0.950 . S
H2447 C2467 0.950 . S
H2448 C2469 0.950 . S
H2449 C2472 0.950 . S
H2450 C2473 0.950 . S
H2451 C2475 0.950 . S
H2452 C2476 0.950 . S
H2453 C2477 0.951 . S
H2454 C2479 0.951 . S
H2455 C2481 0.950 . S
H2456 C2482 0.950 . S
H2457 C2484 0.950 . S
H2458 C2487 0.950 . S
H2459 C2488 0.950 . S
H2460 C2490 0.950 . S
H2461 C2491 0.950 . S
C2462 H2444 0.951 . S
C2462 C2463 1.366 . S
C2462 C2464 1.388 . S
C2463 C2462 1.366 . S
C2463 C2467 1.385 . S
C2464 H2445 0.951 . S
C2464 C2462 1.388 . S
C2464 C2465 1.366 . S
C2465 C2464 1.366 . S
C2465 C2466 1.414 . S
C2465 C2468 1.499 . S
C2466 H2446 0.950 . S
C2466 C2465 1.414 . S
C2466 C2467 1.374 . S
C2467 H2447 0.950 . S
C2467 C2463 1.385 . S
C2467 C2466 1.374 . S
C2468 C2465 1.499 . S
C2468 C2469 1.373 . S
C2468 C2470 1.389 . S
C2469 H2448 0.950 . S
C2469 C2468 1.373 . S
C2469 C2485 1.377 . S
C2470 C2468 1.389 . S
C2470 C2471 1.524 . S
C2470 C2484 1.377 . S
C2471 C2470 1.524 . S
C2471 C2472 1.397 . S
C2471 C2476 1.363 . S
C2472 H2449 0.950 . S
C2472 C2471 1.397 . S
C2472 C2473 1.334 . S
C2473 H2450 0.950 . S
C2473 C2472 1.334 . S
C2473 C2474 1.287 . S
C2474 C2473 1.287 . S
C2474 C2475 1.524 . S
C2474 H2493 0.913 . S
C2475 H2451 0.950 . S
C2475 C2474 1.524 . S
C2475 C2476 1.415 . S
C2476 H2452 0.950 . S
C2476 C2471 1.363 . S
C2476 C2475 1.415 . S
C2477 H2453 0.951 . S
C2477 C2478 1.366 . S
C2477 C2479 1.388 . S
C2478 C2477 1.366 . S
C2478 C2482 1.385 . S
C2479 H2454 0.951 . S
C2479 C2477 1.388 . S
C2479 C2480 1.366 . S
C2480 C2479 1.366 . S
C2480 C2481 1.414 . S
C2480 C2483 1.499 . S
C2481 H2455 0.950 . S
C2481 C2480 1.414 . S
C2481 C2482 1.374 . S
C2482 H2456 0.950 . S
C2482 C2478 1.385 . S
C2482 C2481 1.374 . S
C2483 C2480 1.499 . S
C2483 C2484 1.373 . S
C2483 C2485 1.389 . S
C2484 H2457 0.950 . S
C2484 C2470 1.377 . S
C2484 C2483 1.373 . S
C2485 C2469 1.377 . S
C2485 C2483 1.389 . S
C2485 C2486 1.524 . S
C2486 C2485 1.524 . S
C2486 C2487 1.397 . S
C2486 C2491 1.363 . S
C2487 H2458 0.950 . S
C2487 C2486 1.397 . S
C2487 C2488 1.334 . S
C2488 H2459 0.950 . S
C2488 C2487 1.334 . S
C2488 C2489 1.287 . S
C2489 C2488 1.287 . S
C2489 C2490 1.524 . S
C2489 H2492 0.999 . S
C2490 H2460 0.950 . S
C2490 C2489 1.524 . S
C2490 C2491 1.415 . S
C2491 H2461 0.950 . S
C2491 C2486 1.363 . S
C2491 C2490 1.415 . S
H2492 C2489 0.999 . S
H2493 C2474 0.913 . S
H2494 C2512 0.951 . S
H2495 C2514 0.951 . S
H2496 C2516 0.950 . S
H2497 C2517 0.950 . S
H2498 C2519 0.950 . S
H2499 C2522 0.950 . S
H2500 C2523 0.950 . S
H2501 C2525 0.950 . S
H2502 C2526 0.950 . S
H2503 C2527 0.951 . S
H2504 C2529 0.951 . S
H2505 C2531 0.950 . S
H2506 C2532 0.950 . S
H2507 C2534 0.950 . S
H2508 C2537 0.950 . S
H2509 C2538 0.976 . S
H2510 C2540 0.950 . S
H2511 C2541 0.950 . S
C2512 H2494 0.951 . S
C2512 C2513 1.366 . S
C2512 C2514 1.388 . S
C2513 C2512 1.366 . S
C2513 C2517 1.385 . S
C2514 H2495 0.951 . S
C2514 C2512 1.388 . S
C2514 C2515 1.366 . S
C2515 C2514 1.366 . S
C2515 C2516 1.414 . S
C2515 C2518 1.499 . S
C2516 H2496 0.950 . S
C2516 C2515 1.414 . S
C2516 C2517 1.374 . S
C2517 H2497 0.950 . S
C2517 C2513 1.385 . S
C2517 C2516 1.374 . S
C2518 C2515 1.499 . S
C2518 C2519 1.373 . S
C2518 C2520 1.389 . S
C2519 H2498 0.950 . S
C2519 C2518 1.373 . S
C2519 C2535 1.377 . S
C2520 C2518 1.389 . S
C2520 C2521 1.524 . S
C2520 C2534 1.377 . S
C2521 C2520 1.524 . S
C2521 C2522 1.397 . S
C2521 C2526 1.363 . S
C2522 H2499 0.950 . S
C2522 C2521 1.397 . S
C2522 C2523 1.334 . S
C2523 H2500 0.950 . S
C2523 C2522 1.334 . S
C2523 C2524 1.287 . S
C2524 C2523 1.287 . S
C2524 C2525 1.524 . S
C2524 H2543 0.913 . S
C2525 H2501 0.950 . S
C2525 C2524 1.524 . S
C2525 C2526 1.415 . S
C2526 H2502 0.950 . S
C2526 C2521 1.363 . S
C2526 C2525 1.415 . S
C2527 H2503 0.951 . S
C2527 C2528 1.366 . S
C2527 C2529 1.388 . S
C2528 C2527 1.366 . S
C2528 C2532 1.385 . S
C2529 H2504 0.951 . S
C2529 C2527 1.388 . S
C2529 C2530 1.366 . S
C2530 C2529 1.366 . S
C2530 C2531 1.414 . S
C2530 C2533 1.499 . S
C2531 H2505 0.950 . S
C2531 C2530 1.414 . S
C2531 C2532 1.374 . S
C2532 H2506 0.950 . S
C2532 C2528 1.385 . S
C2532 C2531 1.374 . S
C2533 C2530 1.499 . S
C2533 C2534 1.373 . S
C2533 C2535 1.389 . S
C2534 H2507 0.950 . S
C2534 C2520 1.377 . S
C2534 C2533 1.373 . S
C2535 C2519 1.377 . S
C2535 C2533 1.389 . S
C2535 C2536 1.524 . S
C2536 C2535 1.524 . S
C2536 C2537 1.397 . S
C2536 C2541 1.363 . S
C2537 H2508 0.950 . S
C2537 C2536 1.397 . S
C2537 C2538 1.334 . S
C2538 H2509 0.976 . S
C2538 C2537 1.334 . S
C2538 C2539 1.287 . S
C2539 C2538 1.287 . S
C2539 C2540 1.524 . S
C2539 H2542 0.999 1_545 S
C2540 H2510 0.950 . S
C2540 C2539 1.524 . S
C2540 C2541 1.415 . S
C2541 H2511 0.950 . S
C2541 C2536 1.363 . S
C2541 C2540 1.415 . S
H2542 C2539 0.999 1_565 S
H2543 C2524 0.913 . S
C563 C5 1.064 . S
C578 C277 1.064 . S
C613 C311 1.065 . S
C628 C39 1.065 . S
C663 C73 1.064 . S
C678 C345 1.064 . S
C713 C107 1.065 . S
C728 C379 1.065 . S
C763 C141 1.064 . S
C778 C413 1.064 . S
C813 C447 1.065 . S
C828 C175 1.065 . S
C863 C481 1.065 . S
C878 C209 1.065 . S
C913 C243 1.065 . S
C928 C515 1.065 . S
C963 C9 1.139 . S
C978 C145 1.137 . S
C1013 C43 1.139 . S
C1028 C179 1.138 . S
C1063 C77 1.138 . S
C1078 C213 1.138 . S
C1113 C111 1.139 . S
C1128 C247 1.137 . S
C1163 C417 1.137 . S
C1178 C281 1.139 . S
C1213 C451 1.138 . S
C1228 C315 1.139 . S
C1263 C485 1.138 . S
C1278 C349 1.138 . S
C1313 C383 1.139 . S
C1328 C519 1.137 . S
C1363 C2 1.994 . S
C1378 C240 1.994 . S
C1413 C138 1.994 . S
C1428 C36 1.994 . S
C1463 C172 1.994 . S
C1478 C70 1.994 . S
C1513 C104 1.994 . S
C1528 C206 1.994 . S
C1563 C512 1.994 . S
C1578 C274 1.994 . S
C1613 C410 1.994 . S
C1628 C308 1.995 . S
C1663 C342 1.994 . S
C1678 C444 1.995 . S
C1713 C376 1.994 . S
C1728 C478 1.994 . S
C1763 C543 1.219 . S
C1778 C20 1.188 . S
C1813 C54 1.188 . S
C1828 C441 1.219 . S
C1863 C88 1.188 . S
C1878 C475 1.219 . S
C1913 C509 1.219 . S
C1928 C122 1.187 . S
C1963 C156 1.188 . S
C1978 C339 1.219 . S
C2013 C190 1.187 . S
C2028 C373 1.219 . S
C2063 C407 1.219 . S
C2078 C224 1.188 . S
C2113 C258 1.187 . S
C2128 C305 1.219 . S
C2163 C292 1.187 . S
C2178 C271 1.219 . S
C2213 C169 1.219 . S
C2228 C326 1.188 . S
C2263 C360 1.187 . S
C2278 C203 1.219 . S
C2313 C237 1.219 . S
C2328 C394 1.188 . S
C2363 C428 1.187 . S
C2378 C67 1.219 . S
C2413 C101 1.219 . S
C2428 C462 1.187 . S
C2463 C135 1.219 . S
C2478 C496 1.187 . S
C2513 C33 1.219 . S
C2528 C530 1.188 . S
