# Generated by pormake.
# Topology smc, (6)-cn, num edge types: 1
# Building blocks:
#     Node 0, Type 0, BuildingBlock: VOLQOD_clean_sbu_1, # of connection points: 6
#     Node 1, Type 0, BuildingBlock: VOLQOD_clean_sbu_1, # of connection points: 6
#     Node 2, Type 0, BuildingBlock: VOLQOD_clean_sbu_1, # of connection points: 6
#     Node 3, Type 0, BuildingBlock: VOLQOD_clean_sbu_1, # of connection points: 6
#     Node 4, Type 0, BuildingBlock: VOLQOD_clean_sbu_1, # of connection points: 6
#     Node 5, Type 0, BuildingBlock: VOLQOD_clean_sbu_1, # of connection points: 6
#     Node 6, Type 0, BuildingBlock: VOLQOD_clean_sbu_1, # of connection points: 6
#     Node 7, Type 0, BuildingBlock: VOLQOD_clean_sbu_1, # of connection points: 6
#     Node 8, Type 0, BuildingBlock: VOLQOD_clean_sbu_1, # of connection points: 6
#     Edge 9, Type (0, 0), BuildingBlock: UVAHIK_clean_linker_0, # of connection points: 2
#     Edge 10, Type (0, 0), BuildingBlock: UVAHIK_clean_linker_0, # of connection points: 2
#     Edge 11, Type (0, 0), BuildingBlock: UVAHIK_clean_linker_0, # of connection points: 2
#     Edge 12, Type (0, 0), BuildingBlock: UVAHIK_clean_linker_0, # of connection points: 2
#     Edge 13, Type (0, 0), BuildingBlock: UVAHIK_clean_linker_0, # of connection points: 2
#     Edge 14, Type (0, 0), BuildingBlock: UVAHIK_clean_linker_0, # of connection points: 2
#     Edge 15, Type (0, 0), BuildingBlock: UVAHIK_clean_linker_0, # of connection points: 2
#     Edge 16, Type (0, 0), BuildingBlock: UVAHIK_clean_linker_0, # of connection points: 2
#     Edge 17, Type (0, 0), BuildingBlock: UVAHIK_clean_linker_0, # of connection points: 2
#     Edge 18, Type (0, 0), BuildingBlock: UVAHIK_clean_linker_0, # of connection points: 2
#     Edge 19, Type (0, 0), BuildingBlock: UVAHIK_clean_linker_0, # of connection points: 2
#     Edge 20, Type (0, 0), BuildingBlock: UVAHIK_clean_linker_0, # of connection points: 2
#     Edge 21, Type (0, 0), BuildingBlock: UVAHIK_clean_linker_0, # of connection points: 2
#     Edge 22, Type (0, 0), BuildingBlock: UVAHIK_clean_linker_0, # of connection points: 2
#     Edge 23, Type (0, 0), BuildingBlock: UVAHIK_clean_linker_0, # of connection points: 2
#     Edge 24, Type (0, 0), BuildingBlock: UVAHIK_clean_linker_0, # of connection points: 2
#     Edge 25, Type (0, 0), BuildingBlock: UVAHIK_clean_linker_0, # of connection points: 2
#     Edge 26, Type (0, 0), BuildingBlock: UVAHIK_clean_linker_0, # of connection points: 2
#     Edge 27, Type (0, 0), BuildingBlock: UVAHIK_clean_linker_0, # of connection points: 2
#     Edge 28, Type (0, 0), BuildingBlock: UVAHIK_clean_linker_0, # of connection points: 2
#     Edge 29, Type (0, 0), BuildingBlock: UVAHIK_clean_linker_0, # of connection points: 2
#     Edge 30, Type (0, 0), BuildingBlock: UVAHIK_clean_linker_0, # of connection points: 2
#     Edge 31, Type (0, 0), BuildingBlock: UVAHIK_clean_linker_0, # of connection points: 2
#     Edge 32, Type (0, 0), BuildingBlock: UVAHIK_clean_linker_0, # of connection points: 2
#     Edge 33, Type (0, 0), BuildingBlock: UVAHIK_clean_linker_0, # of connection points: 2
#     Edge 34, Type (0, 0), BuildingBlock: UVAHIK_clean_linker_0, # of connection points: 2
#     Edge 35, Type (0, 0), BuildingBlock: UVAHIK_clean_linker_0, # of connection points: 2
# Relax obj value: 0.337
# Max RMSD: 0.273
# Mean RMSD: 0.261
data_MOF--net-smc--node1-VOLQOD_clean_sbu_1--edge1-UVAHIK_clean_linker_0
_symmetry_space_group_name_H-M    P1
_symmetry_Int_Tables_number       1
_symmetry_cell_setting            triclinic
loop_
_symmetry_equiv_pos_as_xyz
'x, y, z'
_cell_length_a     38.503198
_cell_length_b     39.011999
_cell_length_c     61.821714
_cell_angle_alpha  89.878331
_cell_angle_beta   90.424836
_cell_angle_gamma 121.32138
loop_
_atom_site_label
_atom_site_type_symbol
_atom_site_fract_x
_atom_site_fract_y
_atom_site_fract_z
_atom_type_partial_charge
O0 O 0.96168 0.46935 0.99075 0.0
Zn1 Zn -0.001 0.45047 0.98308 0.0
O2 O 0.00373 0.42143 0.00721 0.0
Zn3 Zn -0.00542 0.37061 0.99631 0.0
Zn4 Zn 0.96496 0.41328 0.0295 0.0
Zn5 Zn 0.05754 0.45364 0.01957 0.0
O6 O 0.04717 0.37086 0.99612 0.0
O7 O 0.09061 0.42991 0.01137 0.0
O8 O 0.9778 0.41758 0.95602 0.0
O9 O 0.9736 0.36076 0.96552 0.0
O10 O 0.95105 0.32492 0.01374 0.0
O11 O 0.92369 0.35465 0.0316 0.0
O12 O -0.00853 0.42904 0.05886 0.0
O13 O 0.05127 0.50145 0.97723 0.0
O14 O 0.05687 0.45501 0.05204 0.0
O15 O 0.08381 0.5103 0.00845 0.0
C16 C 0.94082 0.46669 0.0072 0.0
C17 C 0.08279 0.39713 0.00259 0.0
C18 C 0.92359 0.32318 0.02594 0.0
C19 C 0.96876 0.38204 0.95159 0.0
C20 C 0.02805 0.44456 0.06537 0.0
C21 C 0.07955 0.52379 0.99047 0.0
O22 O 0.93881 0.44594 0.02362 0.0
O23 O 0.57081 0.51262 0.99062 0.0
Zn24 Zn 0.57328 0.56171 0.97961 0.0
O25 O 0.60147 0.60625 -0.00035 0.0
Zn26 Zn 0.64746 0.65065 0.98425 0.0
Zn27 Zn 0.6192 0.58822 0.0243 0.0
Zn28 Zn 0.5646 0.62182 0.01076 0.0
O29 O 0.64383 0.70083 0.98488 0.0
O30 O 0.58388 0.67709 0.00091 0.0
O31 O 0.59659 0.57407 0.94977 0.0
O32 O 0.64687 0.63745 0.95246 0.0
O33 O 0.70046 0.65954 0.99678 0.0
O34 O 0.67911 0.61319 0.02266 0.0
O35 O 0.60671 0.60409 0.05266 0.0
O36 O 0.5151 0.54521 0.97716 0.0
O37 O 0.5646 0.62442 0.04348 0.0
O38 O 0.50726 0.58482 -0.00022 0.0
C39 C 0.57588 0.50236 0.00935 0.0
C40 C 0.61524 0.70526 0.99172 0.0
C41 C 0.70761 0.64124 0.01168 0.0
C42 C 0.62535 0.60579 0.94124 0.0
C43 C 0.58384 0.61725 0.05785 0.0
C44 C 0.49275 0.55594 0.98624 0.0
O45 O 0.59213 0.52789 0.02461 0.0
O46 O 0.42859 0.93811 0.00727 0.0
Zn47 Zn 0.43036 0.98658 0.01903 0.0
O48 O 0.40582 0.00653 -0.00096 0.0
Zn49 Zn 0.35933 0.00382 0.01336 0.0
Zn50 Zn 0.38907 0.97362 0.9732 0.0
Zn51 Zn 0.4452 0.06095 0.99031 0.0
O52 O 0.36379 0.05775 0.01286 0.0
O53 O 0.42695 0.09726 0.00068 0.0
O54 O 0.40597 0.97552 0.04864 0.0
O55 O 0.35822 0.99069 0.04493 0.0
O56 O 0.30678 0.95947 0.00017 0.0
O57 O 0.32872 0.93888 0.97276 0.0
O58 O 0.40619 0.00623 0.94612 0.0
O59 O 0.48944 0.02686 0.02265 0.0
O60 O 0.44923 0.06779 0.95794 0.0
O61 O 0.50082 0.07836 0.00208 0.0
C62 C 0.42467 0.92492 0.98805 0.0
C63 C 0.394 0.09229 0.00826 0.0
C64 C 0.29998 0.93635 0.98407 0.0
C65 C 0.37799 0.97963 0.05661 0.0
C66 C 0.43101 0.04325 0.94249 0.0
C67 C 0.51349 0.06143 0.01483 0.0
O68 O 0.41261 0.93805 0.97268 0.0
O69 O 0.62143 0.81417 0.32535 0.0
Zn70 Zn 0.66186 0.80199 0.31318 0.0
O71 O 0.68021 0.77864 0.33491 0.0
Zn72 Zn 0.67086 0.72768 0.32354 0.0
Zn73 Zn 0.64995 0.77061 0.36127 0.0
Zn74 Zn 0.73737 0.81521 0.34193 0.0
O75 O 0.72313 0.72739 0.32281 0.0
O76 O 0.76854 0.7903 0.3326 0.0
O77 O 0.63996 0.76862 0.28605 0.0
O78 O 0.64977 0.71845 0.29284 0.0
O79 O 0.62821 0.68155 0.34125 0.0
O80 O 0.61132 0.71225 0.36562 0.0
O81 O 0.68581 0.7896 0.38752 0.0
O82 O 0.70751 0.85601 0.30498 0.0
O83 O 0.74811 0.82337 0.37428 0.0
O84 O 0.75871 0.86873 0.32703 0.0
C85 C 0.60989 0.81446 0.34455 0.0
C86 C 0.75963 0.75561 0.32628 0.0
C87 C 0.60684 0.68044 0.3572 0.0
C88 C 0.63823 0.73649 0.2802 0.0
C89 C 0.7241 0.81033 0.39034 0.0
C90 C 0.74319 0.87964 0.31225 0.0
O91 O 0.61963 0.79981 0.36022 0.0
O92 O 0.23001 0.86566 0.32949 0.0
Zn93 Zn 0.24362 0.91949 0.31918 0.0
O94 O 0.27245 0.95984 0.34138 0.0
Zn95 Zn 0.32217 0.00405 0.32853 0.0
Zn96 Zn 0.28453 0.93575 0.36561 0.0
Zn97 Zn 0.23739 0.97793 0.35208 0.0
O98 O 0.32085 0.05548 0.3288 0.0
O99 O 0.26051 0.03494 0.34366 0.0
O100 O 0.27405 0.93182 0.29152 0.0
O101 O 0.32719 -0.00708 0.2971 0.0
O102 O 0.3718 0.0093 0.34358 0.0
O103 O 0.34426 0.9587 0.36711 0.0
O104 O 0.26759 0.94705 0.394 0.0
O105 O 0.18946 0.91204 0.3127 0.0
O106 O 0.23305 0.97577 0.38453 0.0
O107 O 0.18088 0.94443 0.3396 0.0
C108 C 0.23498 0.85209 0.34719 0.0
C109 C 0.29339 0.0621 0.3351 0.0
C110 C 0.3752 0.98794 0.35815 0.0
C111 C 0.30636 0.96266 0.28484 0.0
C112 C 0.24687 0.96271 0.39901 0.0
C113 C 0.16717 0.92112 0.32326 0.0
O114 O 0.25528 0.87545 0.36278 0.0
O115 O 0.18226 0.41996 0.33599 0.0
Zn116 Zn 0.12804 0.37832 0.32412 0.0
O117 O 0.08564 0.36198 0.34567 0.0
Zn118 Zn 0.04292 0.36938 0.33372 0.0
Zn119 Zn 0.10884 0.39494 0.37123 0.0
Zn120 Zn 0.06419 0.30641 0.35401 0.0
O121 O -0.01073 0.31688 0.33227 0.0
O122 O 0.00653 0.27367 0.34412 0.0
O123 O 0.11599 0.39727 0.29627 0.0
O124 O 0.05549 0.38865 0.30306 0.0
O125 O 0.03975 0.41269 0.34984 0.0
O126 O 0.091 0.43445 0.37329 0.0
O127 O 0.09209 0.36229 0.39822 0.0
O128 O 0.13636 0.33313 0.31751 0.0
O129 O 0.06331 0.29961 0.38647 0.0
O130 O 0.09677 0.28473 0.34048 0.0
C131 C 0.1945 0.43313 0.35506 0.0
C132 C 0.98045 0.28128 0.33651 0.0
C133 C 0.0626 0.43725 0.36448 0.0
C134 C 0.08514 0.39892 0.29034 0.0
C135 C 0.07501 0.32489 0.4019 0.0
C136 C 0.12377 0.2988 0.32578 0.0
O137 O 0.16959 0.42469 0.37045 0.0
O138 O 0.27626 0.13651 0.66743 0.0
Zn139 Zn 0.31031 0.11736 0.65388 0.0
O140 O 0.32817 0.0924 0.67491 0.0
Zn141 Zn 0.31244 0.03872 0.66453 0.0
Zn142 Zn 0.30228 0.0889 0.70218 0.0
Zn143 Zn 0.38684 0.12535 0.67941 0.0
O144 O 0.36149 0.03327 0.66084 0.0
O145 O 0.41205 0.09494 0.66928 0.0
O146 O 0.28086 0.08146 0.62857 0.0
O147 O 0.28628 0.02848 0.63505 0.0
O148 O 0.27075 -0.00398 0.68432 0.0
O149 O 0.26165 0.03195 0.70899 0.0
O150 O 0.34218 0.11095 0.72639 0.0
O151 O 0.35798 0.16695 0.64231 0.0
O152 O 0.40271 0.13806 0.71103 0.0
O153 O 0.41068 0.17673 0.66217 0.0
C154 C 0.26587 0.13683 0.68687 0.0
C155 C 0.39919 0.05927 0.66298 0.0
C156 C 0.25285 -0.00172 0.70105 0.0
C157 C 0.2749 0.04741 0.623 0.0
C158 C 0.38072 0.12988 0.72777 0.0
C159 C 0.39539 0.18801 0.64747 0.0
O160 O 0.2743 0.12 0.7019 0.0
O161 O 0.8662 0.15773 0.66287 0.0
Zn162 Zn 0.88094 0.21193 0.65259 0.0
O163 O 0.90742 0.25183 0.67522 0.0
Zn164 Zn 0.95881 0.29564 0.66379 0.0
Zn165 Zn 0.91654 0.22649 0.69986 0.0
Zn166 Zn 0.87242 0.27134 0.68453 0.0
O167 O 0.95864 0.3474 0.66253 0.0
O168 O 0.89776 0.32874 0.67598 0.0
O169 O 0.91421 0.22453 0.62576 0.0
O170 O 0.9682 0.2841 0.63333 0.0
O171 O 0.00597 0.30141 0.68137 0.0
O172 O 0.97604 0.24891 0.70359 0.0
O173 O 0.89781 0.23828 0.72716 0.0
O174 O 0.82746 0.20492 0.64501 0.0
O175 O 0.86643 0.27003 0.71721 0.0
O176 O 0.81703 0.23934 0.67006 0.0
C177 C 0.86823 0.14344 0.681 0.0
C178 C 0.93152 0.35515 0.66784 0.0
C179 C 0.00785 0.27937 0.69604 0.0
C180 C 0.94833 0.25468 0.62043 0.0
C181 C 0.87852 0.25553 0.73186 0.0
C182 C 0.80469 0.21528 0.65398 0.0
O183 O 0.88622 0.1662 0.69714 0.0
O184 O 0.78418 0.62117 0.66973 0.0
Zn185 Zn 0.76863 0.65917 0.68082 0.0
O186 O 0.74409 0.67467 0.65843 0.0
Zn187 Zn 0.68937 0.65904 0.66814 0.0
Zn188 Zn 0.74273 0.64762 0.63177 0.0
Zn189 Zn 0.77704 0.73211 0.6531 0.0
O190 O 0.6821 0.70675 0.66829 0.0
O191 O 0.74528 0.75696 0.66167 0.0
O192 O 0.73454 0.63703 0.70736 0.0
O193 O 0.67998 0.63986 0.69925 0.0
O194 O 0.64734 0.61364 0.6494 0.0
O195 O 0.68531 0.60493 0.62563 0.0
O196 O 0.76215 0.68496 0.60625 0.0
O197 O 0.82077 0.7065 0.69038 0.0
O198 O 0.78886 0.74504 0.62131 0.0
O199 O 0.82978 0.75759 0.67022 0.0
C200 C 0.78876 0.61151 0.6508 0.0
C201 C 0.70835 0.744 0.66634 0.0
C202 C 0.65076 0.59511 0.63334 0.0
C203 C 0.70044 0.63226 0.71261 0.0
C204 C 0.78017 0.72295 0.6046 0.0
C205 C 0.84202 0.74309 0.68482 0.0
O206 O 0.77651 0.62168 0.63416 0.0
C207 C 0.4241 0.54837 0.98589 0.0
C208 C 0.4486 0.53217 0.98207 0.0
C209 C 0.38199 0.52464 0.98319 0.0
C210 C 0.29997 0.42456 0.99028 0.0
H211 H 0.23593 0.45817 0.95804 0.0
C212 C 0.12354 0.38257 0.9774 0.0
C213 C 0.11704 0.39175 -0.00164 0.0
C214 C 0.16119 0.38777 0.97202 0.0
C215 C 0.2534 0.4479 0.96672 0.0
H216 H 0.44844 0.47866 0.97221 0.0
H217 H 0.37463 0.43696 0.96824 0.0
H218 H 0.3099 0.49501 0.95393 0.0
H219 H 0.1425 0.40985 0.03057 0.0
H220 H 0.20768 0.41734 0.02143 0.0
H221 H 0.24378 0.37955 0.00442 0.0
C222 C 0.38819 0.46813 0.97292 0.0
C223 C 0.29557 0.46914 0.96451 0.0
C224 C 0.43032 0.49204 0.97516 0.0
C225 C 0.14699 0.40252 0.01434 0.0
C226 C 0.1841 0.40663 0.00912 0.0
C227 C 0.25786 0.40383 0.99283 0.0
C228 C 0.36376 0.48419 0.97706 0.0
C229 C 0.31917 0.45824 0.9767 0.0
C230 C 0.1921 0.40106 0.98773 0.0
C231 C 0.23444 0.41604 0.98148 0.0
H232 H 0.43741 0.57919 0.99118 0.0
H233 H 0.36351 0.53744 0.98667 0.0
H234 H 0.31776 0.41586 -9e-05 0.0
H235 H 0.10085 0.37461 0.96481 0.0
H236 H 0.16695 0.38355 0.9554 0.0
C237 C 0.44334 0.87583 0.00035 0.0
C238 C 0.43901 0.89729 0.98338 0.0
C239 C 0.46289 0.85474 0.99697 0.0
C240 C 0.54163 0.85665 0.96404 0.0
H241 H 0.50635 0.75598 0.99344 0.0
C242 C 0.61394 0.75445 0.96672 0.0
C243 C 0.61564 0.74249 0.98795 0.0
C244 C 0.59788 0.77892 0.96278 0.0
C245 C 0.5165 0.78409 0.98512 0.0
H246 H 0.45021 0.91218 0.9493 0.0
H247 H 0.48471 0.87504 0.94341 0.0
H248 H 0.46094 0.78189 0.99142 0.0
H249 H 0.60677 0.74985 0.02175 0.0
H250 H 0.57969 0.79316 0.01494 0.0
H251 H 0.59767 0.85865 0.95809 0.0
C252 C 0.473 0.87483 0.95932 0.0
C253 C 0.49055 0.79884 0.98394 0.0
C254 C 0.45296 0.8957 0.96266 0.0
C255 C 0.60585 0.75895 0.00528 0.0
C256 C 0.59012 0.7834 0.00137 0.0
C257 C 0.56765 0.8416 0.9651 0.0
C258 C 0.47875 0.85476 0.97657 0.0
C259 C 0.50334 0.83592 0.97407 0.0
C260 C 0.58366 0.79142 0.98008 0.0
C261 C 0.55565 0.80593 0.97633 0.0
H262 H 0.43284 0.87645 0.01647 0.0
H263 H 0.46723 0.83991 0.01064 0.0
H264 H 0.55229 0.88542 0.95641 0.0
H265 H 0.6208 0.7415 0.95314 0.0
H266 H 0.59305 0.78482 0.94624 0.0
C267 C 0.23655 0.87895 -0.00124 0.0
C268 C 0.25929 0.90075 0.98075 0.0
C269 C 0.20639 0.83854 0.99653 0.0
C270 C 0.19003 0.75651 0.96072 0.0
H271 H 0.10634 0.69219 0.00244 0.0
C272 C 0.10334 0.58231 0.96561 0.0
C273 C 0.10265 0.56738 0.98644 0.0
C274 C 0.11829 0.62311 0.96251 0.0
C275 C 0.12961 0.70991 0.99066 0.0
H276 H 0.26447 0.89988 0.94594 0.0
H277 H 0.21009 0.83003 0.94179 0.0
H278 H 0.13244 0.76407 -1e-05 0.0
H279 H 0.11852 0.5837 0.02018 0.0
H280 H 0.14441 0.65495 0.0147 0.0
H281 H 0.18706 0.70214 0.95152 0.0
C282 C 0.21684 0.84326 0.9578 0.0
C283 C 0.14456 0.751 0.98924 0.0
C284 C 0.24764 0.88338 0.96011 0.0
C285 C 0.11887 0.5943 0.00392 0.0
C286 C 0.13316 0.63493 0.00087 0.0
C287 C 0.17457 0.71536 0.96192 0.0
C288 C 0.19804 0.8196 0.97617 0.0
C289 C 0.17594 0.77508 0.97474 0.0
C290 C 0.13215 0.64946 0.98023 0.0
C291 C 0.14521 0.69202 0.97735 0.0
H292 H 0.24504 0.89166 0.01488 0.0
H293 H 0.19265 0.82148 0.01109 0.0
H294 H 0.2147 0.77395 0.94963 0.0
H295 H 0.09101 0.56225 0.95184 0.0
H296 H 0.1175 0.63379 0.94643 0.0
C297 C 0.38822 0.13902 0.03315 0.0
C298 C 0.39211 0.12824 0.01207 0.0
C299 C 0.39701 0.17797 0.03743 0.0
C300 C 0.41643 0.27184 0.01167 0.0
H301 H 0.50992 0.32535 0.05019 0.0
C302 C 0.54202 0.43169 0.99661 0.0
C303 C 0.55664 0.45908 0.0139 0.0
C304 C 0.51657 0.39084 0.0004 0.0
C305 C 0.48334 0.31081 0.03975 0.0
H306 H 0.40513 0.14763 0.97877 0.0
H307 H 0.41908 0.215 0.98599 0.0
H308 H 0.46762 0.25207 0.05012 0.0
H309 H 0.55825 0.46481 0.04887 0.0
H310 H 0.51391 0.39269 0.05548 0.0
H311 H 0.43333 0.33031 0.00043 0.0
C312 C 0.40948 0.19386 -0.00074 0.0
C313 C 0.45901 0.26895 0.03979 0.0
C314 C 0.40163 0.15543 0.9951 0.0
C315 C 0.5475 0.44441 0.03521 0.0
C316 C 0.52196 0.40325 0.03901 0.0
C317 C 0.44064 0.31354 0.01164 0.0
C318 C 0.40886 0.206 0.02056 0.0
C319 C 0.42653 0.24913 0.02501 0.0
C320 C 0.50518 0.37636 0.02155 0.0
C321 C 0.47543 0.33325 0.02492 0.0
H322 H 0.38143 0.11842 0.04647 0.0
H323 H 0.39644 0.18675 0.05397 0.0
H324 H 0.39128 0.25722 0.0003 0.0
H325 H 0.54887 0.44191 0.98001 0.0
H326 H 0.50507 0.37057 0.98667 0.0
C327 C 0.58563 0.11444 0.00763 0.0
C328 C 0.55737 0.08087 0.01957 0.0
C329 C 0.62718 0.13088 0.0109 0.0
C330 C 0.70259 0.14227 0.05038 0.0
H331 H 0.77186 0.17586 -9e-05 0.0
C332 C 0.86008 0.28136 0.0469 0.0
C333 C 0.88852 0.28369 0.03195 0.0
C334 C 0.82281 0.24581 0.04937 0.0
C335 C 0.75311 0.16581 0.01424 0.0
H336 H 0.55051 0.03881 0.04471 0.0
H337 H 0.62342 0.06817 0.05059 0.0
H338 H 0.69854 0.13467 0.99535 0.0
H339 H 0.90215 0.2494 0.00966 0.0
H340 H 0.83676 0.18716 0.01396 0.0
H341 H 0.75724 0.17497 0.06921 0.0
C342 C 0.6132 0.08139 0.03862 0.0
C343 C 0.71109 0.14271 0.01157 0.0
C344 C 0.57155 0.06467 0.03522 0.0
C345 C 0.88061 0.24869 0.0211 0.0
C346 C 0.84319 0.21307 0.02353 0.0
C347 C 0.74474 0.16557 0.05307 0.0
C348 C 0.64132 0.11428 0.02626 0.0
C349 C 0.68546 0.13221 0.02953 0.0
C350 C 0.81323 0.2119 0.0369 0.0
C351 C 0.77029 0.17894 0.03493 0.0
H352 H 0.57574 0.12762 0.99546 0.0
H353 H 0.64833 0.1568 0.00147 0.0
H354 H 0.6834 0.13435 0.0645 0.0
H355 H 0.86553 0.30765 0.05578 0.0
H356 H 0.80035 0.24601 0.05972 0.0
C357 C 0.92623 0.5158 0.98991 0.0
C358 C 0.92202 0.49146 0.00773 0.0
C359 C 0.91195 0.54203 0.99082 0.0
C360 C 0.8812 0.59406 0.02894 0.0
H361 H 0.82098 0.59801 0.97944 0.0
C362 C 0.75793 0.63305 0.03289 0.0
C363 C 0.74871 0.64772 0.01432 0.0
C364 C 0.7908 0.62742 0.03301 0.0
C365 C 0.83869 0.59825 0.9932 0.0
H366 H 0.8989 0.47527 0.0404 0.0
H367 H 0.87292 0.52055 0.04177 0.0
H368 H 0.85232 0.55794 0.97757 0.0
H369 H 0.76971 0.67307 0.98243 0.0
H370 H 0.82759 0.66354 0.98273 0.0
H371 H 0.866 0.63326 0.04483 0.0
C372 C 0.88812 0.5198 0.02726 0.0
C373 C 0.85644 0.57499 0.99217 0.0
C374 C 0.90253 0.49351 0.02638 0.0
C375 C 0.77586 0.66133 0.99689 0.0
C376 C 0.8088 0.65559 0.997 0.0
C377 C 0.86339 0.6174 0.02997 0.0
C378 C 0.89291 0.54449 0.00952 0.0
C379 C 0.87706 0.57189 0.01019 0.0
C380 C 0.81507 0.63636 0.01456 0.0
C381 C 0.84108 0.61893 0.01228 0.0
H382 H 0.94129 0.51523 0.97531 0.0
H383 H 0.91641 0.56089 0.97695 0.0
H384 H 0.89763 0.59286 0.04293 0.0
H385 H 0.73785 0.62288 0.0467 0.0
H386 H 0.79473 0.61258 0.04682 0.0
C387 C 0.80082 0.73721 0.30363 0.0
C388 C 0.79318 0.74867 0.32368 0.0
C389 C 0.83831 0.74054 0.29998 0.0
C390 C 0.93429 0.76268 0.3274 0.0
H391 H 0.98724 0.83853 0.28061 0.0
C392 C 0.09562 0.89463 0.33442 0.0
C393 C 0.12324 0.89904 0.31837 0.0
C394 C 0.05417 0.86753 0.33154 0.0
C395 C 0.97274 0.81676 0.29345 0.0
H396 H 0.81605 0.76899 0.3561 0.0
H397 H 0.88074 0.77411 0.35003 0.0
H398 H 0.91302 0.79867 0.28204 0.0
H399 H 0.12894 0.88062 0.28612 0.0
H400 H 0.05582 0.83404 0.28086 0.0
H401 H -0.00593 0.78336 0.33976 0.0
C402 C 0.85842 0.76259 0.33705 0.0
C403 C 0.93033 0.79369 0.2942 0.0
C404 C 0.82152 0.75996 0.34054 0.0
C405 C 0.10832 0.8777 0.2988 0.0
C406 C 0.06666 0.85101 0.29579 0.0
C407 C 0.97655 0.786 0.32677 0.0
C408 C 0.86796 0.75464 0.31648 0.0
C409 C 0.91079 0.76806 0.31183 0.0
C410 C 0.03953 0.84483 0.31244 0.0
C411 C -0.00407 0.81456 0.31037 0.0
H412 H 0.77924 0.7287 0.29041 0.0
H413 H 0.84495 0.7342 0.28399 0.0
H414 H 0.91997 0.74268 0.34098 0.0
H415 H 0.10613 0.91051 0.34968 0.0
H416 H 0.03351 0.86371 0.34442 0.0
C417 C 0.12801 0.23674 0.3252 0.0
C418 C 0.14468 0.27736 0.31991 0.0
C419 C 0.15038 0.21823 0.32186 0.0
C420 C 0.25289 0.24076 0.32405 0.0
H421 H 0.21194 0.13744 0.29638 0.0
C422 C 0.29848 0.11313 0.30921 0.0
C423 C 0.29685 0.10065 0.33068 0.0
C424 C 0.28906 0.14244 0.30435 0.0
C425 C 0.22406 0.16665 0.30381 0.0
H426 H 0.19739 0.33006 0.30636 0.0
H427 H 0.23659 0.29784 0.30117 0.0
H428 H 0.17295 0.17085 0.29371 0.0
H429 H 0.28743 0.11052 0.36399 0.0
H430 H 0.27296 0.16317 0.35562 0.0
H431 H 0.30252 0.2352 0.33544 0.0
C432 C 0.20614 0.28038 0.30763 0.0
C433 C 0.20164 0.18549 0.30244 0.0
C434 C 0.18355 0.29866 0.31055 0.0
C435 C 0.28934 0.12019 0.34736 0.0
C436 C 0.28104 0.15016 0.34257 0.0
C437 C 0.27486 0.22151 0.32582 0.0
C438 C 0.18999 0.24025 0.31357 0.0
C439 C 0.21556 0.22233 0.31286 0.0
C440 C 0.27899 0.16017 0.32097 0.0
C441 C 0.26026 0.18402 0.316 0.0
H442 H 0.09816 0.21958 0.33239 0.0
H443 H 0.13748 0.18723 0.32668 0.0
H444 H 0.26402 0.26908 0.33234 0.0
H445 H 0.3035 0.09784 0.29611 0.0
H446 H 0.28749 0.14969 0.28758 0.0
C447 C 0.92758 0.24252 0.30872 0.0
C448 C 0.94066 0.24712 0.33034 0.0
C449 C 0.8966 0.20508 0.30124 0.0
C450 C 0.81499 0.10447 0.31599 0.0
H451 H 0.86866 0.06428 0.28016 0.0
C452 C 0.80532 0.94865 0.31076 0.0
C453 C 0.76426 0.92207 0.30544 0.0
C454 C 0.82295 0.98984 0.30738 0.0
C455 C 0.85306 0.0753 0.28978 0.0
H456 H 0.9299 0.21826 0.36155 0.0
H457 H 0.87441 0.15329 0.34873 0.0
H458 H 0.90137 0.13653 0.28679 0.0
H459 H 0.71012 0.91761 0.29133 0.0
H460 H 0.74081 0.98958 0.28615 0.0
H461 H 0.76747 0.04308 0.31973 0.0
C462 C 0.88825 0.17825 0.33753 0.0
C463 C 0.8715 0.11646 0.29343 0.0
C464 C 0.91991 0.21525 0.34486 0.0
C465 C 0.74187 0.93724 0.29561 0.0
C466 C 0.75927 0.97839 0.29265 0.0
C467 C 0.79612 0.0634 0.31194 0.0
C468 C 0.87778 0.17242 0.31549 0.0
C469 C 0.85328 0.13112 0.30721 0.0
C470 C 0.79959 0.005 0.29899 0.0
C471 C 0.81578 0.04847 0.29949 0.0
H472 H 0.9437 0.26672 0.29725 0.0
H473 H 0.88904 0.20099 0.28415 0.0
H474 H 0.80073 0.11523 0.32684 0.0
H475 H 0.82333 0.93785 0.31828 0.0
H476 H 0.85411 0.01003 0.31253 0.0
C477 C 0.2185 0.79115 0.36906 0.0
C478 C 0.21302 0.80814 0.35025 0.0
C479 C 0.19506 0.7497 0.37242 0.0
C480 C 0.13186 0.65439 0.34279 0.0
H481 H 0.0939 0.61064 0.40007 0.0
C482 C 0.04181 0.486 0.35401 0.0
C483 C 0.06112 0.4737 0.36877 0.0
C484 C 0.05029 0.52542 0.35439 0.0
C485 C 0.1041 0.62253 0.38398 0.0
H486 H 0.17845 0.79487 0.32028 0.0
H487 H 0.13743 0.72327 0.32633 0.0
H488 H 0.13188 0.68341 0.39481 0.0
H489 H 0.09994 0.49126 0.39728 0.0
H490 H 0.11479 0.55989 0.39785 0.0
H491 H 0.10482 0.59385 0.33197 0.0
C492 C 0.16031 0.74163 0.3383 0.0
C493 C 0.12614 0.66411 0.38099 0.0
C494 C 0.18389 0.78283 0.33484 0.0
C495 C 0.08508 0.50003 0.38547 0.0
C496 C 0.09342 0.53935 0.3859 0.0
C497 C 0.10964 0.613 0.34574 0.0
C498 C 0.16554 0.72453 0.35711 0.0
C499 C 0.14073 0.68048 0.36039 0.0
C500 C 0.07796 0.553 0.36961 0.0
C501 C 0.096 0.59661 0.36639 0.0
H502 H 0.24064 0.80985 0.38125 0.0
H503 H 0.2003 0.73737 0.38693 0.0
H504 H 0.14323 0.6659 0.32678 0.0
H505 H 0.02284 0.46634 0.34107 0.0
H506 H 0.03737 0.53506 0.34189 0.0
C507 C 0.25322 0.46958 0.38076 0.0
C508 C 0.2385 0.45474 0.35986 0.0
C509 C 0.29438 0.4865 0.38575 0.0
C510 C 0.38727 0.49051 0.36728 0.0
H511 H 0.44343 0.5962 0.39346 0.0
C512 C 0.55151 0.61001 0.34991 0.0
C513 C 0.57263 0.64176 0.3646 0.0
C514 C 0.51291 0.57794 0.35502 0.0
C515 C 0.42831 0.56618 0.38674 0.0
H516 H 0.25558 0.44645 0.32775 0.0
H517 H 0.32731 0.47643 0.33642 0.0
H518 H 0.36987 0.55895 0.39112 0.0
H519 H 0.57304 0.66239 0.39718 0.0
H520 H 0.50624 0.60569 0.40642 0.0
H521 H 0.44594 0.49844 0.36217 0.0
C522 C 0.30689 0.47433 0.34902 0.0
C523 C 0.38605 0.54494 0.3853 0.0
C524 C 0.26588 0.45768 0.34399 0.0
C525 C 0.55689 0.63859 0.38541 0.0
C526 C 0.51862 0.60624 0.39066 0.0
C527 C 0.42962 0.51166 0.36885 0.0
C528 C 0.32146 0.48861 0.36997 0.0
C529 C 0.36529 0.50763 0.37482 0.0
C530 C 0.49516 0.57696 0.37502 0.0
C531 C 0.45068 0.55041 0.37785 0.0
H532 H 0.23288 0.46761 0.39338 0.0
H533 H 0.30495 0.49744 0.40201 0.0
H534 H 0.37179 0.46137 0.35948 0.0
H535 H 0.56307 0.61169 0.33377 0.0
H536 H 0.4957 0.55598 0.34255 0.0
C537 C 0.42202 0.97996 0.38258 0.0
C538 C 0.41493 0.99232 0.36254 0.0
C539 C 0.45313 0.97188 0.38488 0.0
C540 C 0.53783 0.97144 0.35588 0.0
H541 H 0.49007 0.86601 0.38202 0.0
C542 C 0.58388 0.85826 0.33238 0.0
C543 C 0.58884 0.8364 0.34897 0.0
C544 C 0.56812 0.88255 0.33687 0.0
C545 C 0.50422 0.89572 0.37499 0.0
H546 H 0.43721 0.01005 0.3299 0.0
H547 H 0.49074 -0.00518 0.33363 0.0
H548 H 0.45677 0.90399 0.38598 0.0
H549 H 0.58035 0.82237 0.38323 0.0
H550 H 0.55221 0.86447 0.39097 0.0
H551 H 0.58428 0.96186 0.34402 0.0
C552 C 0.47286 0.99188 0.34772 0.0
C553 C 0.48528 0.91771 0.37735 0.0
C554 C 0.44212 0.00063 0.34554 0.0
C555 C 0.57675 0.83866 0.37006 0.0
C556 C 0.56074 0.86282 0.37452 0.0
C557 C 0.55666 0.94925 0.35341 0.0
C558 C 0.47714 0.97522 0.36705 0.0
C559 C 0.50133 0.95547 0.36743 0.0
C560 C 0.55674 0.88537 0.358 0.0
C561 C 0.53948 0.91078 0.36253 0.0
H562 H 0.40174 0.97386 0.39603 0.0
H563 H 0.45648 0.96033 0.4002 0.0
H564 H 0.55126 0.00061 0.34828 0.0
H565 H 0.59294 0.85734 0.31595 0.0
H566 H 0.5646 0.89896 0.32374 0.0
C567 C 0.74453 0.15882 0.63529 0.0
C568 C 0.76174 0.19506 0.64699 0.0
C569 C 0.70287 0.13647 0.63106 0.0
C570 C 0.61053 0.13985 0.62696 0.0
H571 H 0.55583 0.03504 0.65429 0.0
C572 C 0.4565 0.05038 0.6719 0.0
C573 C 0.42972 0.05003 0.65633 0.0
C574 C 0.49366 0.05562 0.66561 0.0
C575 C 0.57076 0.06381 0.64617 0.0
H576 H 0.74916 0.23736 0.66232 0.0
H577 H 0.67614 0.19853 0.65438 0.0
H578 H 0.6302 0.07368 0.65203 0.0
H579 H 0.41875 0.0522 0.62214 0.0
H580 H 0.4845 0.0624 0.61106 0.0
H581 H 0.55134 0.13081 0.62187 0.0
C582 C 0.69511 0.18748 0.64871 0.0
C583 C 0.61312 0.08586 0.64488 0.0
C584 C 0.73675 0.20955 0.65333 0.0
C585 C 0.43886 0.05167 0.63431 0.0
C586 C 0.47642 0.05774 0.62802 0.0
C587 C 0.56818 0.1175 0.62787 0.0
C588 C 0.6778 0.15033 0.63803 0.0
C589 C 0.63328 0.1246 0.63596 0.0
C590 C 0.5048 0.06163 0.64372 0.0
C591 C 0.54806 0.07992 0.63815 0.0
H592 H 0.7629 0.14671 0.63022 0.0
H593 H 0.69007 0.10792 0.62277 0.0
H594 H 0.62556 0.16962 0.61997 0.0
H595 H 0.45013 0.04989 0.68898 0.0
H596 H 0.51523 0.05898 0.67803 0.0
C597 C 0.94992 0.41288 0.64326 0.0
C598 C 0.93776 0.39501 0.66372 0.0
C599 C 0.94736 0.44648 0.63811 0.0
C600 C 0.93568 0.52672 0.66126 0.0
H601 H 0.85389 0.50007 0.61673 0.0
C602 C 0.82352 0.57854 0.66694 0.0
C603 C 0.81161 0.59082 0.64838 0.0
C604 C 0.84793 0.5621 0.66524 0.0
C605 C 0.87751 0.5086 0.62882 0.0
H606 H 0.91635 0.39925 0.69529 0.0
H607 H 0.91334 0.45862 0.68665 0.0
H608 H 0.88598 0.46027 0.62019 0.0
H609 H 0.81539 0.59461 0.61337 0.0
H610 H 0.85813 0.5653 0.61042 0.0
H611 H 0.92604 0.57384 0.67057 0.0
C612 C 0.92443 0.44672 0.67451 0.0
C613 C 0.89594 0.48589 0.63077 0.0
C614 C 0.92597 0.41271 0.67944 0.0
C615 C 0.82397 0.58535 0.62797 0.0
C616 C 0.84851 0.56872 0.62627 0.0
C617 C 0.91756 0.54957 0.65922 0.0
C618 C 0.93374 0.46307 0.6536 0.0
C619 C 0.92369 0.49361 0.64766 0.0
C620 C 0.86119 0.5575 0.64496 0.0
C621 C 0.88676 0.53941 0.64372 0.0
H622 H 0.9587 0.39932 0.63085 0.0
H623 H 0.95452 0.45857 0.62187 0.0
H624 H 0.95729 0.53341 0.67428 0.0
H625 H 0.81435 0.58196 0.68292 0.0
H626 H 0.85614 0.55264 0.67991 0.0
C627 C 0.57971 0.53717 0.63778 0.0
C628 C 0.61476 0.55812 0.62508 0.0
C629 C 0.55004 0.49766 0.6326 0.0
C630 C 0.54872 0.41244 0.60866 0.0
H631 H 0.43437 0.35695 0.62321 0.0
C632 C 0.40238 0.24185 0.62263 0.0
C633 C 0.42033 0.22782 0.63731 0.0
C634 C 0.42415 0.28121 0.61507 0.0
C635 C 0.46609 0.37199 0.61869 0.0
H636 H 0.64378 0.55612 0.59553 0.0
H637 H 0.59178 0.48737 0.58642 0.0
H638 H 0.47252 0.42991 0.61964 0.0
H639 H 0.47598 0.24343 0.65453 0.0
H640 H 0.51399 0.31224 0.64132 0.0
H641 H 0.54269 0.35474 0.60849 0.0
C642 C 0.58776 0.50105 0.60066 0.0
C643 C 0.48794 0.41372 0.61681 0.0
C644 C 0.61747 0.54042 0.60588 0.0
C645 C 0.46123 0.25333 0.64331 0.0
C646 C 0.48307 0.29267 0.63565 0.0
C647 C 0.52694 0.3708 0.61063 0.0
C648 C 0.55489 0.47862 0.61458 0.0
C649 C 0.52974 0.43444 0.61241 0.0
C650 C 0.46438 0.30724 0.62189 0.0
C651 C 0.48576 0.35032 0.61631 0.0
H652 H 0.57665 0.55006 0.65262 0.0
H653 H 0.52508 0.48111 0.64369 0.0
H654 H 0.58101 0.42753 0.60549 0.0
H655 H 0.37099 0.22291 0.61752 0.0
H656 H 0.40922 0.29158 0.60429 0.0
C657 C 0.69004 0.78064 0.69199 0.0
C658 C 0.69732 0.77391 0.67068 0.0
C659 C 0.69285 0.81678 0.69744 0.0
C660 C 0.70568 0.91095 0.67509 0.0
H661 H 0.79689 0.96359 0.71509 0.0
C662 C 0.82799 0.07464 0.66541 0.0
C663 C 0.84489 0.09941 0.68367 0.0
C664 C 0.8013 0.03355 0.66773 0.0
C665 C 0.77082 0.94933 0.7043 0.0
H666 H 0.70966 0.79705 0.63805 0.0
H667 H 0.71328 0.85949 0.64728 0.0
H668 H 0.75798 0.89064 0.71257 0.0
H669 H 0.848 0.10022 0.71875 0.0
H670 H 0.80131 0.02785 0.72278 0.0
H671 H 0.7198 0.96972 0.66602 0.0
C672 C 0.70544 0.83728 0.65984 0.0
C673 C 0.74838 0.90751 0.70293 0.0
C674 C 0.70345 0.80164 0.65452 0.0
C675 C 0.83563 0.08188 0.70435 0.0
C676 C 0.80876 0.04054 0.70668 0.0
C677 C 0.72794 0.95271 0.67655 0.0
C678 C 0.70234 0.8461 0.68152 0.0
C679 C 0.71693 0.88811 0.68754 0.0
C680 C 0.79071 0.01613 0.68837 0.0
C681 C 0.76202 0.97233 0.69036 0.0
H682 H 0.68589 0.7597 0.7047 0.0
H683 H 0.69037 0.82296 0.71424 0.0
H684 H 0.68131 0.89664 0.66326 0.0
H685 H 0.83471 0.08708 0.64923 0.0
H686 H 0.78894 0.01537 0.65327 0.0
C687 C 0.89721 0.75065 0.70952 0.0
C688 C 0.88286 0.76791 0.69462 0.0
C689 C 0.93719 0.77225 0.71709 0.0
C690 C 0.02922 0.81357 0.71415 0.0
H691 H 0.08486 0.927 0.7278 0.0
C692 C 0.19638 0.92698 0.69676 0.0
C693 C 0.21685 0.96181 0.70953 0.0
C694 C 0.15667 0.89701 0.70178 0.0
C695 C 0.06973 0.89512 0.72452 0.0
H696 H 0.89872 0.82209 0.67686 0.0
H697 H 0.96873 0.8599 0.69013 0.0
H698 H 0.01123 0.8891 0.72362 0.0
H699 H 0.21418 0.98995 0.73923 0.0
H700 H 0.14503 0.93744 0.74802 0.0
H701 H 0.08799 0.82001 0.71421 0.0
C702 C 0.94884 0.82962 0.69596 0.0
C703 C 0.02763 0.8736 0.72186 0.0
C704 C 0.90883 0.80792 0.68827 0.0
C705 C 0.19882 0.96383 0.72881 0.0
C706 C 0.15921 0.93383 0.73385 0.0
C707 C 0.07143 0.83517 0.7167 0.0
C708 C 0.96359 0.81164 0.71006 0.0
C709 C 0.00715 0.83295 0.71603 0.0
C710 C 0.13698 0.90135 0.7197 0.0
C711 C 0.09219 0.87641 0.7213 0.0
H712 H 0.87796 0.71996 0.7149 0.0
H713 H 0.9477 0.75789 0.72813 0.0
H714 H 0.01416 0.78223 0.70956 0.0
H715 H 0.20957 0.92439 0.68189 0.0
H716 H 0.14029 0.8723 0.69055 0.0
C717 C 0.2424 0.1837 0.67678 0.0
C718 C 0.24599 0.1594 0.69235 0.0
C719 C 0.22522 0.20638 0.68218 0.0
C720 C 0.15248 0.20642 0.71898 0.0
H721 H 0.19396 0.31393 0.69688 0.0
C722 C 0.0519 0.27161 0.72275 0.0
C723 C 0.04757 0.28572 0.70262 0.0
C724 C 0.08551 0.26806 0.72697 0.0
C725 C 0.18206 0.28398 0.70322 0.0
H726 H 0.23464 0.14009 0.72587 0.0
H727 H 0.20408 0.17936 0.73517 0.0
H728 H 0.23429 0.28238 0.69305 0.0
H729 H 0.0766 0.31095 0.67195 0.0
H730 H 0.13438 0.30324 0.67885 0.0
H731 H 0.09931 0.20654 0.72795 0.0
C732 C 0.2147 0.18084 0.71882 0.0
C733 C 0.20512 0.26597 0.70102 0.0
C734 C 0.23211 0.15833 0.71346 0.0
C735 C 0.07922 0.2999 0.6876 0.0
C736 C 0.11249 0.29562 0.69164 0.0
C737 C 0.12932 0.22422 0.72101 0.0
C738 C 0.21108 0.20505 0.70322 0.0
C739 C 0.18995 0.22658 0.70833 0.0
C740 C 0.11485 0.27764 0.71092 0.0
C741 C 0.14326 0.26275 0.71259 0.0
H742 H 0.253 0.1854 0.6604 0.0
H743 H 0.22215 0.22425 0.66975 0.0
H744 H 0.13985 0.17588 0.72456 0.0
H745 H 0.02817 0.26116 0.73477 0.0
H746 H 0.08709 0.25528 0.74225 0.0
C747 C 0.04781 0.41149 0.26112 0.0
C748 C 0.08261 0.4113 0.268 0.0
C749 C 0.04381 0.4203 0.2397 0.0
C750 C 0.10011 0.46612 0.18946 0.0
H751 H -0.0035 0.39277 0.16199 0.0
C752 C 0.07491 0.45711 0.09673 0.0
C753 C 0.03677 0.44836 0.08889 0.0
C754 C 0.08185 0.45704 0.11895 0.0
C755 C 0.02539 0.414 0.16946 0.0
H756 H 0.14117 0.42168 0.25787 0.0
H757 H 0.134 0.43694 0.22035 0.0
H758 H 0.00644 0.38483 0.20011 0.0
H759 H 0.9767 0.43474 0.09829 0.0
H760 H 0.98909 0.43549 0.13698 0.0
H761 H 0.11908 0.4952 0.15868 0.0
C762 C 0.10994 0.43041 0.23164 0.0
C763 C 0.03111 0.40937 0.19132 0.0
C764 C 0.11393 0.42146 0.2531 0.0
C765 C 0.00629 0.44116 0.10377 0.0
C766 C 0.01332 0.44137 0.12596 0.0
C767 C 0.09432 0.47091 0.16754 0.0
C768 C 0.07451 0.42923 0.22465 0.0
C769 C 0.06854 0.43526 0.20155 0.0
C770 C 0.05088 0.44847 0.13381 0.0
C771 C 0.05691 0.44478 0.15728 0.0
H772 H 0.02319 0.40411 0.27217 0.0
H773 H 0.01643 0.41977 0.23486 0.0
H774 H 0.12917 0.48675 0.19698 0.0
H775 H 0.09904 0.46273 0.08571 0.0
H776 H 0.111 0.46225 0.12441 0.0
C777 C 0.62757 0.68866 0.25026 0.0
C778 C 0.62421 0.72066 0.25801 0.0
C779 C 0.61673 0.67519 0.22897 0.0
C780 C 0.60313 0.70853 0.17522 0.0
H781 H 0.55723 0.59636 0.16062 0.0
C782 C 0.56517 0.64951 0.08701 0.0
C783 C 0.58077 0.6254 0.08094 0.0
C784 C 0.56488 0.65918 0.10878 0.0
C785 C 0.57008 0.62779 0.16446 0.0
H786 H 0.60553 0.76277 0.24953 0.0
H787 H 0.58583 0.7387 0.21248 0.0
H788 H 0.56617 0.61672 0.19851 0.0
H789 H 0.60707 0.59151 0.09306 0.0
H790 H 0.6062 0.60809 0.13092 0.0
H791 H 0.60715 0.71947 0.14108 0.0
C792 C 0.59767 0.72455 0.22277 0.0
C793 C 0.57536 0.63951 0.18617 0.0
C794 C 0.60876 0.73821 0.24407 0.0
C795 C 0.59496 0.61026 0.09715 0.0
C796 C 0.59422 0.61953 0.11888 0.0
C797 C 0.59753 0.69672 0.1535 0.0
C798 C 0.60194 0.69315 0.21487 0.0
C799 C 0.59273 0.68015 0.19183 0.0
C800 C 0.57965 0.64446 0.12492 0.0
C801 C 0.58168 0.65634 0.1479 0.0
H802 H 0.6395 0.67452 0.26049 0.0
H803 H 0.6211 0.65141 0.22339 0.0
H804 H 0.61707 0.74014 0.17892 0.0
H805 H 0.55406 0.66169 0.07491 0.0
H806 H 0.55324 0.67827 0.11299 0.0
C807 C 0.39165 0.962 0.09346 0.0
C808 C 0.37014 0.97406 0.08013 0.0
C809 C 0.38654 0.95983 0.11587 0.0
C810 C 0.35523 0.00104 0.15977 0.0
H811 H 0.34464 0.91186 0.19317 0.0
C812 C 0.3502 -0.00071 0.25298 0.0
C813 C 0.31878 0.96364 0.26215 0.0
C814 C 0.35975 0.00062 0.2311 0.0
C815 C 0.34756 0.93694 0.18403 0.0
H816 H 0.32555 0.99223 0.07992 0.0
H817 H 0.31655 0.98819 0.11898 0.0
H818 H 0.35283 0.91289 0.15397 0.0
H819 H 0.27374 0.90108 0.25567 0.0
H820 H 0.29036 0.90354 0.21762 0.0
H821 H 0.34912 0.02471 0.18972 0.0
C822 C 0.33775 0.98095 0.11208 0.0
C823 C 0.35253 0.93767 0.16164 0.0
C824 C 0.3427 0.98295 0.08969 0.0
C825 C 0.29803 0.92909 0.24914 0.0
C826 C 0.30772 0.93038 0.22734 0.0
C827 C 0.35047 0.00042 0.18215 0.0
C828 C 0.35999 0.96986 0.12543 0.0
C829 C 0.35596 0.96951 0.14926 0.0
C830 C 0.33828 0.96628 0.21802 0.0
C831 C 0.34618 0.96817 0.19449 0.0
H832 H 0.41303 0.95494 0.08664 0.0
H833 H 0.40424 0.95139 0.12577 0.0
H834 H 0.35835 0.02625 0.15067 0.0
H835 H 0.36685 0.02641 0.26256 0.0
H836 H 0.38375 0.0286 0.22438 0.0
C837 C 0.41572 0.03127 0.90295 0.0
C838 C 0.43667 0.05818 0.92 0.0
C839 C 0.41717 0.04539 0.88207 0.0
C840 C 0.47077 0.13042 0.84495 0.0
H841 H 0.36331 0.0854 0.81949 0.0
C842 C 0.43424 0.13769 0.75402 0.0
C843 C 0.39917 0.13908 0.74956 0.0
C844 C 0.44574 0.13686 0.77547 0.0
C845 C 0.39353 0.09871 0.82644 0.0
H846 H 0.4776 0.12095 0.92817 0.0
H847 H 0.47994 0.1456 0.89146 0.0
H848 H 0.37051 0.06415 0.85527 0.0
H849 H 0.3515 0.14553 0.76368 0.0
H850 H 0.37207 0.14508 0.80094 0.0
H851 H 0.4936 0.16479 0.81573 0.0
C852 C 0.46245 0.11358 0.89442 0.0
C853 C 0.39767 0.08609 0.84682 0.0
C854 C 0.46091 0.09944 0.91542 0.0
C855 C 0.37826 0.1437 0.76671 0.0
C856 C 0.38995 0.14334 0.78802 0.0
C857 C 0.46664 0.1429 0.82431 0.0
C858 C 0.43965 0.08671 0.87771 0.0
C859 C 0.43626 0.10147 0.85622 0.0
C860 C 0.42245 0.13776 0.79264 0.0
C861 C 0.42789 0.12708 0.81489 0.0
H862 H 0.39713 -0.00072 0.90581 0.0
H863 H 0.39983 0.02399 0.86938 0.0
H864 H 0.50087 0.1427 0.85189 0.0
H865 H 0.45088 0.13411 0.74105 0.0
H866 H 0.47093 0.13254 0.77857 0.0
C867 C 0.9454 0.38771 0.91449 0.0
C868 C 0.95235 0.36524 0.92986 0.0
C869 C 0.93075 0.37223 0.89383 0.0
C870 C 0.92784 0.29996 0.85505 0.0
H871 H 0.84746 0.31437 0.82505 0.0
C872 C 0.87461 0.23545 0.77041 0.0
C873 C 0.87339 0.26125 0.75496 0.0
C874 C 0.87698 0.24422 0.7924 0.0
C875 C 0.87009 0.31033 0.83318 0.0
H876 H 0.94837 0.30841 0.93567 0.0
H877 H 0.92281 0.28148 0.89963 0.0
H878 H 0.86629 0.33763 0.86243 0.0
H879 H 0.87121 0.31519 0.75042 0.0
H880 H 0.87635 0.33118 0.78898 0.0
H881 H 0.93266 0.27373 0.82587 0.0
C882 C 0.9291 0.31125 0.90353 0.0
C883 C 0.88086 0.32362 0.85457 0.0
C884 C 0.94364 0.32666 0.9242 0.0
C885 C 0.87201 0.29473 0.762 0.0
C886 C 0.8749 0.30382 0.78409 0.0
C887 C 0.91724 0.28686 0.83373 0.0
C888 C 0.92284 0.334 0.88806 0.0
C889 C 0.90996 0.31866 0.86569 0.0
C890 C 0.87881 0.27934 0.79947 0.0
C891 C 0.88829 0.2919 0.8225 0.0
H892 H 0.95166 0.4175 0.9183 0.0
H893 H 0.92665 0.39066 0.88219 0.0
H894 H 0.95094 0.29642 0.86301 0.0
H895 H 0.8751 0.20907 0.76546 0.0
H896 H 0.87876 0.22411 0.80385 0.0
C897 C 0.70723 0.61016 0.74969 0.0
C898 C 0.6865 0.62144 0.73526 0.0
C899 C 0.69751 0.60468 0.77165 0.0
C900 C 0.65499 0.63817 0.8136 0.0
H901 H 0.65282 0.5536 0.84778 0.0
C902 C 0.66 0.64198 0.90703 0.0
C903 C 0.63281 0.60605 0.91771 0.0
C904 C 0.66544 0.64233 0.88466 0.0
C905 C 0.65311 0.57726 0.83844 0.0
H906 H 0.63814 0.63426 0.73255 0.0
H907 H 0.62116 0.62461 0.77093 0.0
H908 H 0.6615 0.55465 0.80862 0.0
H909 H 0.59058 0.54216 0.91322 0.0
H910 H 0.60024 0.54287 0.87429 0.0
H911 H 0.64662 0.6608 0.84339 0.0
C912 C 0.64522 0.6204 0.76521 0.0
C913 C 0.65836 0.57801 0.81604 0.0
C914 C 0.65474 0.6256 0.74319 0.0
C915 C 0.61176 0.5704 0.90555 0.0
C916 C 0.61741 0.57073 0.88323 0.0
C917 C 0.65003 0.63757 0.836 0.0
C918 C 0.66699 0.61058 0.77974 0.0
C919 C 0.65947 0.60854 0.80338 0.0
C920 C 0.64406 0.60673 0.8725 0.0
C921 C 0.64917 0.6072 0.84868 0.0
H922 H 0.73181 0.60662 0.74415 0.0
H923 H 0.71503 0.59739 0.78244 0.0
H924 H 0.65619 0.66235 0.80434 0.0
H925 H 0.67672 0.66998 0.91588 0.0
H926 H 0.68658 0.67047 0.87689 0.0
C927 C 0.71454 0.80718 0.43042 0.0
C928 C 0.74049 0.81597 0.41268 0.0
C929 C 0.72801 0.80699 0.45142 0.0
C930 C 0.80003 0.78874 0.48012 0.0
H931 H 0.7632 0.82064 0.53014 0.0
C932 C 0.78014 0.71749 0.56418 0.0
C933 C 0.78815 0.7413 0.58276 0.0
C934 C 0.7832 0.73354 0.54357 0.0
C935 C 0.77435 0.81211 0.51639 0.0
H936 H 0.80164 0.83325 0.40325 0.0
H937 H 0.82517 0.83282 0.44007 0.0
H938 H 0.75269 0.8389 0.49399 0.0
H939 H 0.80747 0.8013 0.59409 0.0
H940 H 0.81287 0.82929 0.55805 0.0
H941 H 0.8209 0.7612 0.5025 0.0
C942 C 0.79428 0.82586 0.43761 0.0
C943 C 0.76795 0.82225 0.49565 0.0
C944 C 0.78088 0.82638 0.41655 0.0
C945 C 0.80095 0.78203 0.58016 0.0
C946 C 0.80382 0.79805 0.55951 0.0
C947 C 0.80628 0.77846 0.50086 0.0
C948 C 0.76771 0.81536 0.45523 0.0
C949 C 0.77982 0.80984 0.47726 0.0
C950 C 0.79424 0.77378 0.54099 0.0
C951 C 0.79264 0.7892 0.51921 0.0
H952 H 0.68329 0.79916 0.42804 0.0
H953 H 0.70661 0.79837 0.46456 0.0
H954 H 0.80929 0.77847 0.46629 0.0
H955 H 0.7703 0.68603 0.56555 0.0
H956 H 0.77516 0.71387 0.52969 0.0
C957 C 0.2226 0.98922 0.42846 0.0
C958 C 0.23925 0.96618 0.4221 0.0
C959 C 0.21718 -0.00614 0.45035 0.0
C960 C 0.21039 0.9509 0.50454 0.0
H961 H 0.25547 0.06022 0.52457 0.0
C962 C 0.25966 -0.00104 0.59273 0.0
C963 C 0.2577 0.03124 0.60132 0.0
C964 C 0.24856 0.98712 0.57125 0.0
C965 C 0.24186 0.02938 0.51928 0.0
H966 H 0.26207 0.92894 0.43375 0.0
H967 H 0.25262 0.93712 0.47188 0.0
H968 H 0.25227 0.04672 0.486 0.0
H969 H 0.23981 0.07455 0.59451 0.0
H970 H 0.21954 0.05324 0.55716 0.0
H971 H 0.20054 0.93359 0.53784 0.0
C972 C 0.24359 0.95142 0.45993 0.0
C973 C 0.24015 0.02169 0.49714 0.0
C974 C 0.24933 0.94704 0.43808 0.0
C975 C 0.24215 0.04988 0.58832 0.0
C976 C 0.23073 0.03781 0.56687 0.0
C977 C 0.21181 0.95854 0.5267 0.0
C978 C 0.22793 0.97526 0.4663 0.0
C979 C 0.22524 0.98252 0.48957 0.0
C980 C 0.23489 0.00704 0.5579 0.0
C981 C 0.22842 -0.002 0.53436 0.0
H982 H 0.21442 0.00429 0.41656 0.0
H983 H 0.20479 0.01221 0.45483 0.0
H984 H 0.19821 0.92032 0.49911 0.0
H985 H 0.27151 0.98394 0.60228 0.0
H986 H 0.25261 0.96362 0.56485 0.0
C987 C 1e-05 0.29062 0.59145 0.0
C988 C 0.96485 0.2558 0.59873 0.0
C989 C 0.0146 0.29225 0.57064 0.0
C990 C 0.97996 0.24593 0.51693 0.0
H991 H 0.0953 0.30651 0.5044 0.0
C992 C 0.03967 0.2704 0.42954 0.0
C993 C 0.06736 0.31087 0.42457 0.0
C994 C 0.02982 0.25827 0.45106 0.0
C995 C 0.063 0.28942 0.50768 0.0
H996 H 0.91824 0.19486 0.59007 0.0
H997 H 0.94407 0.19759 0.55386 0.0
H998 H 0.07276 0.29502 0.54193 0.0
H999 H 0.10796 0.36991 0.43831 0.0
H1000 H 0.09081 0.34874 0.47568 0.0
H1001 H 0.97023 0.24106 0.48268 0.0
C1002 C 0.95992 0.22388 0.56412 0.0
C1003 C 0.05008 0.28297 0.52915 0.0
C1004 C 0.94521 0.2223 0.58491 0.0
C1005 C 0.0863 0.33855 0.44156 0.0
C1006 C 0.07675 0.32636 0.46302 0.0
C1007 C -0.00711 0.25222 0.49548 0.0
C1008 C -0.00549 0.25903 0.55665 0.0
C1009 C 0.00839 0.26198 0.53401 0.0
C1010 C 0.04785 0.28629 0.46798 0.0
C1011 C 0.03451 0.27485 0.49064 0.0
H1012 H 0.01587 0.31698 0.60166 0.0
H1013 H 0.04095 0.32002 0.5653 0.0
H1014 H 0.94762 0.23006 0.52008 0.0
H1015 H 0.02462 0.24835 0.41681 0.0
H1016 H 0.00765 0.22711 0.45447 0.0
loop_
_geom_bond_atom_site_label_1
_geom_bond_atom_site_label_2
_geom_bond_distance
_geom_bond_site_symmetry_2
_ccdc_geom_bond_type
O0 Zn1 1.953 . S
O0 C16 1.225 1_556 S
Zn1 O0 1.953 . S
Zn1 O2 1.949 1_656 S
Zn1 O8 1.919 . S
Zn1 O13 1.924 1_655 S
O2 Zn1 1.949 1_454 S
O2 Zn3 1.923 1_454 S
O2 Zn4 1.950 1_455 S
O2 Zn5 1.945 . S
Zn3 O2 1.923 1_656 S
Zn3 O6 1.933 1_655 S
Zn3 O9 1.941 . S
Zn3 O10 1.965 1_556 S
Zn4 O2 1.950 1_655 S
Zn4 O11 1.938 . S
Zn4 O12 1.906 . S
Zn4 O22 1.953 . S
Zn5 O2 1.945 . S
Zn5 O7 1.932 . S
Zn5 O14 1.977 . S
Zn5 O15 1.910 . S
O6 Zn3 1.933 1_455 S
O6 C17 1.226 1_556 S
O7 Zn5 1.932 . S
O7 C17 1.307 . S
O8 Zn1 1.919 . S
O8 C19 1.270 . S
O9 Zn3 1.941 . S
O9 C19 1.278 . S
O10 Zn3 1.965 1_554 S
O10 C18 1.303 . S
O11 Zn4 1.938 . S
O11 C18 1.247 . S
O12 Zn4 1.906 . S
O12 C20 1.304 1_655 S
O13 Zn1 1.924 1_455 S
O13 C21 1.311 1_556 S
O14 Zn5 1.977 . S
O14 C20 1.272 . S
O15 Zn5 1.910 . S
O15 C21 1.231 . S
C16 O0 1.225 1_554 S
C16 O22 1.298 . S
C17 O6 1.226 1_554 S
C17 O7 1.307 . S
C18 O10 1.303 . S
C18 O11 1.247 . S
C19 O8 1.270 . S
C19 O9 1.278 . S
C20 O12 1.304 1_455 S
C20 O14 1.272 . S
C21 O13 1.311 1_554 S
C21 O15 1.231 . S
O22 Zn4 1.953 . S
O22 C16 1.298 . S
O23 Zn24 1.953 . S
O23 C39 1.225 1_556 S
Zn24 O23 1.953 . S
Zn24 O25 1.949 1_556 S
Zn24 O31 1.919 . S
Zn24 O36 1.924 . S
O25 Zn24 1.949 1_554 S
O25 Zn26 1.923 1_554 S
O25 Zn27 1.950 . S
O25 Zn28 1.945 . S
Zn26 O25 1.923 1_556 S
Zn26 O29 1.933 . S
Zn26 O32 1.941 . S
Zn26 O33 1.965 1_556 S
Zn27 O25 1.950 . S
Zn27 O34 1.938 . S
Zn27 O35 1.906 . S
Zn27 O45 1.953 . S
Zn28 O25 1.945 . S
Zn28 O30 1.932 . S
Zn28 O37 1.977 . S
Zn28 O38 1.910 . S
O29 Zn26 1.933 . S
O29 C40 1.226 1_556 S
O30 Zn28 1.932 . S
O30 C40 1.307 . S
O31 Zn24 1.919 . S
O31 C42 1.253 . S
O32 Zn26 1.941 . S
O32 C42 1.283 . S
O33 Zn26 1.965 1_554 S
O33 C41 1.303 . S
O34 Zn27 1.938 . S
O34 C41 1.247 . S
O35 Zn27 1.906 . S
O35 C43 1.304 . S
O36 Zn24 1.924 . S
O36 C44 1.311 1_556 S
O37 Zn28 1.977 . S
O37 C43 1.272 . S
O38 Zn28 1.910 . S
O38 C44 1.231 . S
C39 O23 1.225 1_554 S
C39 O45 1.298 . S
C40 O29 1.226 1_554 S
C40 O30 1.307 . S
C41 O33 1.303 . S
C41 O34 1.247 . S
C42 O31 1.253 . S
C42 O32 1.283 . S
C43 O35 1.304 . S
C43 O37 1.272 . S
C44 O36 1.311 1_554 S
C44 O38 1.231 . S
O45 Zn27 1.953 . S
O45 C39 1.298 . S
O46 Zn47 1.953 1_565 S
O46 C62 1.225 . S
Zn47 O46 1.953 1_545 S
Zn47 O48 1.949 . S
Zn47 O54 1.919 . S
Zn47 O59 1.924 . S
O48 Zn47 1.949 . S
O48 Zn49 1.923 . S
O48 Zn50 1.950 1_544 S
O48 Zn51 1.945 1_554 S
Zn49 O48 1.923 . S
Zn49 O52 1.933 . S
Zn49 O55 1.941 . S
Zn49 O56 1.965 1_545 S
Zn50 O48 1.950 1_566 S
Zn50 O57 1.938 . S
Zn50 O58 1.906 1_565 S
Zn50 O68 1.953 . S
Zn51 O48 1.945 1_556 S
Zn51 O53 1.932 . S
Zn51 O60 1.977 . S
Zn51 O61 1.910 . S
O52 Zn49 1.933 . S
O52 C63 1.226 . S
O53 Zn51 1.932 . S
O53 C63 1.307 1_556 S
O54 Zn47 1.919 . S
O54 C65 1.253 . S
O55 Zn49 1.941 . S
O55 C65 1.283 . S
O56 Zn49 1.965 1_565 S
O56 C64 1.303 . S
O57 Zn50 1.938 . S
O57 C64 1.247 1_556 S
O58 Zn50 1.906 1_545 S
O58 C66 1.304 . S
O59 Zn47 1.924 . S
O59 C67 1.311 . S
O60 Zn51 1.977 . S
O60 C66 1.272 . S
O61 Zn51 1.910 . S
O61 C67 1.231 1_556 S
C62 O46 1.225 . S
C62 O68 1.298 1_554 S
C63 O52 1.226 . S
C63 O53 1.307 1_554 S
C64 O56 1.303 . S
C64 O57 1.247 1_554 S
C65 O54 1.253 . S
C65 O55 1.283 . S
C66 O58 1.304 . S
C66 O60 1.272 . S
C67 O59 1.311 . S
C67 O61 1.231 1_554 S
O68 Zn50 1.953 . S
O68 C62 1.298 1_556 S
O69 Zn70 1.953 . S
O69 C85 1.225 . S
Zn70 O69 1.953 . S
Zn70 O71 1.949 . S
Zn70 O77 1.919 . S
Zn70 O82 1.924 . S
O71 Zn70 1.949 . S
O71 Zn72 1.923 . S
O71 Zn73 1.950 . S
O71 Zn74 1.945 . S
Zn72 O71 1.923 . S
Zn72 O75 1.933 . S
Zn72 O78 1.941 . S
Zn72 O79 1.965 . S
Zn73 O71 1.950 . S
Zn73 O80 1.938 . S
Zn73 O81 1.906 . S
Zn73 O91 1.953 . S
Zn74 O71 1.945 . S
Zn74 O76 1.932 . S
Zn74 O83 1.977 . S
Zn74 O84 1.910 . S
O75 Zn72 1.933 . S
O75 C86 1.226 . S
O76 Zn74 1.932 . S
O76 C86 1.307 . S
O77 Zn70 1.919 . S
O77 C88 1.253 . S
O78 Zn72 1.941 . S
O78 C88 1.283 . S
O79 Zn72 1.965 . S
O79 C87 1.303 . S
O80 Zn73 1.938 . S
O80 C87 1.247 . S
O81 Zn73 1.906 . S
O81 C89 1.304 . S
O82 Zn70 1.924 . S
O82 C90 1.311 . S
O83 Zn74 1.977 . S
O83 C89 1.272 . S
O84 Zn74 1.910 . S
O84 C90 1.231 . S
C85 O69 1.225 . S
C85 O91 1.298 . S
C86 O75 1.226 . S
C86 O76 1.307 . S
C87 O79 1.303 . S
C87 O80 1.247 . S
C88 O77 1.253 . S
C88 O78 1.283 . S
C89 O81 1.304 . S
C89 O83 1.272 . S
C90 O82 1.311 . S
C90 O84 1.231 . S
O91 Zn73 1.953 . S
O91 C85 1.298 . S
O92 Zn93 1.953 . S
O92 C108 1.225 . S
Zn93 O92 1.953 . S
Zn93 O94 1.949 . S
Zn93 O100 1.919 . S
Zn93 O105 1.924 . S
O94 Zn93 1.949 . S
O94 Zn95 1.923 . S
O94 Zn96 1.950 . S
O94 Zn97 1.945 . S
Zn95 O94 1.923 . S
Zn95 O98 1.933 1_565 S
Zn95 O101 1.941 . S
Zn95 O102 1.965 . S
Zn96 O94 1.950 . S
Zn96 O103 1.938 . S
Zn96 O104 1.906 . S
Zn96 O114 1.953 . S
Zn97 O94 1.945 . S
Zn97 O99 1.932 1_565 S
Zn97 O106 1.977 . S
Zn97 O107 1.910 . S
O98 Zn95 1.933 1_545 S
O98 C109 1.226 . S
O99 Zn97 1.932 1_545 S
O99 C109 1.307 . S
O100 Zn93 1.919 . S
O100 C111 1.253 . S
O101 Zn95 1.941 . S
O101 C111 1.283 . S
O102 Zn95 1.965 . S
O102 C110 1.303 . S
O103 Zn96 1.938 . S
O103 C110 1.247 . S
O104 Zn96 1.906 . S
O104 C112 1.304 . S
O105 Zn93 1.924 . S
O105 C113 1.311 . S
O106 Zn97 1.977 . S
O106 C112 1.272 . S
O107 Zn97 1.910 . S
O107 C113 1.231 . S
C108 O92 1.225 . S
C108 O114 1.298 . S
C109 O98 1.226 . S
C109 O99 1.307 . S
C110 O102 1.303 . S
C110 O103 1.247 . S
C111 O100 1.253 . S
C111 O101 1.283 . S
C112 O104 1.304 . S
C112 O106 1.272 . S
C113 O105 1.311 . S
C113 O107 1.231 . S
O114 Zn96 1.953 . S
O114 C108 1.298 . S
O115 Zn116 1.953 . S
O115 C131 1.225 . S
Zn116 O115 1.953 . S
Zn116 O117 1.949 . S
Zn116 O123 1.919 . S
Zn116 O128 1.924 . S
O117 Zn116 1.949 . S
O117 Zn118 1.923 . S
O117 Zn119 1.950 . S
O117 Zn120 1.945 . S
Zn118 O117 1.923 . S
Zn118 O121 1.933 . S
Zn118 O124 1.941 . S
Zn118 O125 1.965 . S
Zn119 O117 1.950 . S
Zn119 O126 1.938 . S
Zn119 O127 1.906 . S
Zn119 O137 1.953 . S
Zn120 O117 1.945 . S
Zn120 O122 1.932 . S
Zn120 O129 1.977 . S
Zn120 O130 1.910 . S
O121 Zn118 1.933 . S
O121 C132 1.226 . S
O122 Zn120 1.932 . S
O122 C132 1.307 . S
O123 Zn116 1.919 . S
O123 C134 1.253 . S
O124 Zn118 1.941 . S
O124 C134 1.283 . S
O125 Zn118 1.965 . S
O125 C133 1.303 . S
O126 Zn119 1.938 . S
O126 C133 1.247 . S
O127 Zn119 1.906 . S
O127 C135 1.304 . S
O128 Zn116 1.924 . S
O128 C136 1.311 . S
O129 Zn120 1.977 . S
O129 C135 1.272 . S
O130 Zn120 1.910 . S
O130 C136 1.231 . S
C131 O115 1.225 . S
C131 O137 1.298 . S
C132 O121 1.226 . S
C132 O122 1.307 . S
C133 O125 1.303 . S
C133 O126 1.247 . S
C134 O123 1.253 . S
C134 O124 1.283 . S
C135 O127 1.304 . S
C135 O129 1.272 . S
C136 O128 1.311 . S
C136 O130 1.231 . S
O137 Zn119 1.953 . S
O137 C131 1.298 . S
O138 Zn139 1.953 . S
O138 C154 1.225 . S
Zn139 O138 1.953 . S
Zn139 O140 1.949 . S
Zn139 O146 1.919 . S
Zn139 O151 1.924 . S
O140 Zn139 1.949 . S
O140 Zn141 1.923 . S
O140 Zn142 1.950 . S
O140 Zn143 1.945 . S
Zn141 O140 1.923 . S
Zn141 O144 1.933 . S
Zn141 O147 1.941 . S
Zn141 O148 1.965 . S
Zn142 O140 1.950 . S
Zn142 O149 1.938 . S
Zn142 O150 1.906 . S
Zn142 O160 1.953 . S
Zn143 O140 1.945 . S
Zn143 O145 1.932 . S
Zn143 O152 1.977 . S
Zn143 O153 1.910 . S
O144 Zn141 1.933 . S
O144 C155 1.226 . S
O145 Zn143 1.932 . S
O145 C155 1.307 . S
O146 Zn139 1.919 . S
O146 C157 1.253 . S
O147 Zn141 1.941 . S
O147 C157 1.283 . S
O148 Zn141 1.965 . S
O148 C156 1.303 . S
O149 Zn142 1.938 . S
O149 C156 1.247 . S
O150 Zn142 1.906 . S
O150 C158 1.304 . S
O151 Zn139 1.924 . S
O151 C159 1.311 . S
O152 Zn143 1.977 . S
O152 C158 1.272 . S
O153 Zn143 1.910 . S
O153 C159 1.231 . S
C154 O138 1.225 . S
C154 O160 1.298 . S
C155 O144 1.226 . S
C155 O145 1.307 . S
C156 O148 1.303 . S
C156 O149 1.247 . S
C157 O146 1.253 . S
C157 O147 1.283 . S
C158 O150 1.304 . S
C158 O152 1.272 . S
C159 O151 1.311 . S
C159 O153 1.231 . S
O160 Zn142 1.953 . S
O160 C154 1.298 . S
O161 Zn162 1.953 . S
O161 C177 1.225 . S
Zn162 O161 1.953 . S
Zn162 O163 1.949 . S
Zn162 O169 1.919 . S
Zn162 O174 1.924 . S
O163 Zn162 1.949 . S
O163 Zn164 1.923 . S
O163 Zn165 1.950 . S
O163 Zn166 1.945 . S
Zn164 O163 1.923 . S
Zn164 O167 1.933 . S
Zn164 O170 1.941 . S
Zn164 O171 1.965 1_655 S
Zn165 O163 1.950 . S
Zn165 O172 1.938 . S
Zn165 O173 1.906 . S
Zn165 O183 1.953 . S
Zn166 O163 1.945 . S
Zn166 O168 1.932 . S
Zn166 O175 1.977 . S
Zn166 O176 1.910 . S
O167 Zn164 1.933 . S
O167 C178 1.226 . S
O168 Zn166 1.932 . S
O168 C178 1.307 . S
O169 Zn162 1.919 . S
O169 C180 1.253 . S
O170 Zn164 1.941 . S
O170 C180 1.283 . S
O171 Zn164 1.965 1_455 S
O171 C179 1.303 . S
O172 Zn165 1.938 . S
O172 C179 1.247 1_655 S
O173 Zn165 1.906 . S
O173 C181 1.304 . S
O174 Zn162 1.924 . S
O174 C182 1.311 . S
O175 Zn166 1.977 . S
O175 C181 1.272 . S
O176 Zn166 1.910 . S
O176 C182 1.231 . S
C177 O161 1.225 . S
C177 O183 1.298 . S
C178 O167 1.226 . S
C178 O168 1.307 . S
C179 O171 1.303 . S
C179 O172 1.247 1_455 S
C180 O169 1.253 . S
C180 O170 1.283 . S
C181 O173 1.304 . S
C181 O175 1.272 . S
C182 O174 1.311 . S
C182 O176 1.231 . S
O183 Zn165 1.953 . S
O183 C177 1.298 . S
O184 Zn185 1.953 . S
O184 C200 1.225 . S
Zn185 O184 1.953 . S
Zn185 O186 1.949 . S
Zn185 O192 1.919 . S
Zn185 O197 1.924 . S
O186 Zn185 1.949 . S
O186 Zn187 1.923 . S
O186 Zn188 1.950 . S
O186 Zn189 1.945 . S
Zn187 O186 1.923 . S
Zn187 O190 1.933 . S
Zn187 O193 1.941 . S
Zn187 O194 1.965 . S
Zn188 O186 1.950 . S
Zn188 O195 1.938 . S
Zn188 O196 1.906 . S
Zn188 O206 1.953 . S
Zn189 O186 1.945 . S
Zn189 O191 1.932 . S
Zn189 O198 1.977 . S
Zn189 O199 1.910 . S
O190 Zn187 1.933 . S
O190 C201 1.226 . S
O191 Zn189 1.932 . S
O191 C201 1.307 . S
O192 Zn185 1.919 . S
O192 C203 1.253 . S
O193 Zn187 1.941 . S
O193 C203 1.283 . S
O194 Zn187 1.965 . S
O194 C202 1.303 . S
O195 Zn188 1.938 . S
O195 C202 1.247 . S
O196 Zn188 1.906 . S
O196 C204 1.304 . S
O197 Zn185 1.924 . S
O197 C205 1.311 . S
O198 Zn189 1.977 . S
O198 C204 1.272 . S
O199 Zn189 1.910 . S
O199 C205 1.231 . S
C200 O184 1.225 . S
C200 O206 1.298 . S
C201 O190 1.226 . S
C201 O191 1.307 . S
C202 O194 1.303 . S
C202 O195 1.247 . S
C203 O192 1.253 . S
C203 O193 1.283 . S
C204 O196 1.304 . S
C204 O198 1.272 . S
C205 O197 1.311 . S
C205 O199 1.231 . S
O206 Zn188 1.953 . S
O206 C200 1.298 . S
C207 C208 1.349 . S
C207 C209 1.327 . S
C207 H232 0.950 . S
C208 C207 1.349 . S
C208 C224 1.349 1_554 S
C209 C207 1.327 . S
C209 C228 1.429 . S
C209 H233 0.950 . S
C210 C227 1.574 . S
C210 C229 1.368 1_556 S
C210 H234 0.949 . S
H211 C215 0.949 . S
C212 C213 1.349 1_556 S
C212 C214 1.327 . S
C212 H235 0.950 . S
C213 C212 1.349 1_554 S
C213 C225 1.349 . S
C214 C212 1.327 . S
C214 C230 1.429 1_556 S
C214 H236 0.950 . S
C215 H211 0.949 . S
C215 C223 1.574 . S
C215 C231 1.368 . S
H216 C224 0.950 . S
H217 C222 0.950 . S
H218 C223 0.949 . S
H219 C225 0.950 . S
H220 C226 0.950 . S
H221 C227 0.949 . S
C222 H217 0.950 . S
C222 C224 1.327 . S
C222 C228 1.429 1_556 S
C223 C215 1.574 . S
C223 H218 0.949 . S
C223 C229 1.368 . S
C224 C208 1.349 1_556 S
C224 H216 0.950 . S
C224 C222 1.327 . S
C225 C213 1.349 . S
C225 H219 0.950 . S
C225 C226 1.327 . S
C226 H220 0.950 . S
C226 C225 1.327 . S
C226 C230 1.429 . S
C227 C210 1.574 . S
C227 H221 0.949 . S
C227 C231 1.368 1_556 S
C228 C209 1.429 . S
C228 C222 1.429 1_554 S
C228 C229 1.523 . S
C229 C210 1.368 1_554 S
C229 C223 1.368 . S
C229 C228 1.523 . S
C230 C214 1.429 1_554 S
C230 C226 1.429 . S
C230 C231 1.523 . S
C231 C215 1.368 . S
C231 C227 1.368 1_554 S
C231 C230 1.523 . S
H232 C207 0.950 . S
H233 C209 0.950 . S
H234 C210 0.949 . S
H235 C212 0.950 . S
H236 C214 0.950 . S
C237 C238 1.349 . S
C237 C239 1.327 . S
C237 H262 0.950 . S
C238 C237 1.349 . S
C238 C254 1.349 1_554 S
C239 C237 1.327 . S
C239 C258 1.429 . S
C239 H263 0.950 . S
C240 C257 1.574 . S
C240 C259 1.368 1_556 S
C240 H264 0.949 . S
H241 C245 0.949 . S
C242 C243 1.349 1_556 S
C242 C244 1.327 . S
C242 H265 0.950 . S
C243 C242 1.349 1_554 S
C243 C255 1.349 . S
C244 C242 1.327 . S
C244 C260 1.429 1_556 S
C244 H266 0.950 . S
C245 H241 0.949 . S
C245 C253 1.574 . S
C245 C261 1.368 . S
H246 C254 0.950 . S
H247 C252 0.950 . S
H248 C253 0.949 . S
H249 C255 0.950 . S
H250 C256 0.950 . S
H251 C257 0.949 . S
C252 H247 0.950 . S
C252 C254 1.327 . S
C252 C258 1.429 1_556 S
C253 C245 1.574 . S
C253 H248 0.949 . S
C253 C259 1.368 . S
C254 C238 1.349 1_556 S
C254 H246 0.950 . S
C254 C252 1.327 . S
C255 C243 1.349 . S
C255 H249 0.950 . S
C255 C256 1.327 . S
C256 H250 0.950 . S
C256 C255 1.327 . S
C256 C260 1.429 . S
C257 C240 1.574 . S
C257 H251 0.949 . S
C257 C261 1.368 1_556 S
C258 C239 1.429 . S
C258 C252 1.429 1_554 S
C258 C259 1.523 . S
C259 C240 1.368 1_554 S
C259 C253 1.368 . S
C259 C258 1.523 . S
C260 C244 1.429 1_554 S
C260 C256 1.429 . S
C260 C261 1.523 . S
C261 C245 1.368 . S
C261 C257 1.368 1_554 S
C261 C260 1.523 . S
H262 C237 0.950 . S
H263 C239 0.950 . S
H264 C240 0.949 . S
H265 C242 0.950 . S
H266 C244 0.950 . S
C267 C268 1.349 . S
C267 C269 1.327 . S
C267 H292 0.950 . S
C268 C267 1.349 . S
C268 C284 1.349 1_554 S
C269 C267 1.327 . S
C269 C288 1.429 . S
C269 H293 0.950 . S
C270 C287 1.574 . S
C270 C289 1.368 1_556 S
C270 H294 0.949 . S
H271 C275 0.949 . S
C272 C273 1.349 1_556 S
C272 C274 1.327 . S
C272 H295 0.950 . S
C273 C272 1.349 1_554 S
C273 C285 1.349 . S
C274 C272 1.327 . S
C274 C290 1.429 1_556 S
C274 H296 0.950 . S
C275 H271 0.949 . S
C275 C283 1.574 . S
C275 C291 1.368 . S
H276 C284 0.950 . S
H277 C282 0.950 . S
H278 C283 0.949 . S
H279 C285 0.950 . S
H280 C286 0.950 . S
H281 C287 0.949 . S
C282 H277 0.950 . S
C282 C284 1.327 . S
C282 C288 1.429 1_556 S
C283 C275 1.574 . S
C283 H278 0.949 . S
C283 C289 1.368 . S
C284 C268 1.349 1_556 S
C284 H276 0.950 . S
C284 C282 1.327 . S
C285 C273 1.349 . S
C285 H279 0.950 . S
C285 C286 1.327 . S
C286 H280 0.950 . S
C286 C285 1.327 . S
C286 C290 1.429 . S
C287 C270 1.574 . S
C287 H281 0.949 . S
C287 C291 1.368 1_556 S
C288 C269 1.429 . S
C288 C282 1.429 1_554 S
C288 C289 1.523 . S
C289 C270 1.368 1_554 S
C289 C283 1.368 . S
C289 C288 1.523 . S
C290 C274 1.429 1_554 S
C290 C286 1.429 . S
C290 C291 1.523 . S
C291 C275 1.368 . S
C291 C287 1.368 1_554 S
C291 C290 1.523 . S
H292 C267 0.950 . S
H293 C269 0.950 . S
H294 C270 0.949 . S
H295 C272 0.950 . S
H296 C274 0.950 . S
C297 C298 1.349 . S
C297 C299 1.327 . S
C297 H322 0.950 . S
C298 C297 1.349 . S
C298 C314 1.349 1_554 S
C299 C297 1.327 . S
C299 C318 1.429 . S
C299 H323 0.950 . S
C300 C317 1.574 . S
C300 C319 1.368 1_556 S
C300 H324 0.949 . S
H301 C305 0.949 . S
C302 C303 1.349 1_556 S
C302 C304 1.327 . S
C302 H325 0.950 . S
C303 C302 1.349 1_554 S
C303 C315 1.349 . S
C304 C302 1.327 . S
C304 C320 1.429 1_556 S
C304 H326 0.950 . S
C305 H301 0.949 . S
C305 C313 1.574 . S
C305 C321 1.368 . S
H306 C314 0.950 . S
H307 C312 0.950 . S
H308 C313 0.949 . S
H309 C315 0.950 . S
H310 C316 0.950 . S
H311 C317 0.949 . S
C312 H307 0.950 . S
C312 C314 1.327 . S
C312 C318 1.429 1_556 S
C313 C305 1.574 . S
C313 H308 0.949 . S
C313 C319 1.368 . S
C314 C298 1.349 1_556 S
C314 H306 0.950 . S
C314 C312 1.327 . S
C315 C303 1.349 . S
C315 H309 0.950 . S
C315 C316 1.327 . S
C316 H310 0.950 . S
C316 C315 1.327 . S
C316 C320 1.429 . S
C317 C300 1.574 . S
C317 H311 0.949 . S
C317 C321 1.368 1_556 S
C318 C299 1.429 . S
C318 C312 1.429 1_554 S
C318 C319 1.523 . S
C319 C300 1.368 1_554 S
C319 C313 1.368 . S
C319 C318 1.523 . S
C320 C304 1.429 1_554 S
C320 C316 1.429 . S
C320 C321 1.523 . S
C321 C305 1.368 . S
C321 C317 1.368 1_554 S
C321 C320 1.523 . S
H322 C297 0.950 . S
H323 C299 0.950 . S
H324 C300 0.949 . S
H325 C302 0.950 . S
H326 C304 0.950 . S
C327 C328 1.349 1_556 S
C327 C329 1.327 . S
C327 H352 0.950 . S
C328 C327 1.349 1_554 S
C328 C344 1.349 . S
C329 C327 1.327 . S
C329 C348 1.429 1_556 S
C329 H353 0.950 . S
C330 C347 1.574 . S
C330 C349 1.368 . S
C330 H354 0.949 . S
H331 C335 0.949 . S
C332 C333 1.349 . S
C332 C334 1.327 . S
C332 H355 0.950 . S
C333 C332 1.349 . S
C333 C345 1.349 1_554 S
C334 C332 1.327 . S
C334 C350 1.429 . S
C334 H356 0.950 . S
C335 H331 0.949 . S
C335 C343 1.574 . S
C335 C351 1.368 1_556 S
H336 C344 0.950 . S
H337 C342 0.950 . S
H338 C343 0.949 . S
H339 C345 0.950 . S
H340 C346 0.950 . S
H341 C347 0.949 . S
C342 H337 0.950 . S
C342 C344 1.327 . S
C342 C348 1.429 . S
C343 C335 1.574 . S
C343 H338 0.949 . S
C343 C349 1.368 1_556 S
C344 C328 1.349 . S
C344 H336 0.950 . S
C344 C342 1.327 . S
C345 C333 1.349 1_556 S
C345 H339 0.950 . S
C345 C346 1.327 . S
C346 H340 0.950 . S
C346 C345 1.327 . S
C346 C350 1.429 1_556 S
C347 C330 1.574 . S
C347 H341 0.949 . S
C347 C351 1.368 . S
C348 C329 1.429 1_554 S
C348 C342 1.429 . S
C348 C349 1.523 . S
C349 C330 1.368 . S
C349 C343 1.368 1_554 S
C349 C348 1.523 . S
C350 C334 1.429 . S
C350 C346 1.429 1_554 S
C350 C351 1.523 . S
C351 C335 1.368 1_554 S
C351 C347 1.368 . S
C351 C350 1.523 . S
H352 C327 0.950 . S
H353 C329 0.950 . S
H354 C330 0.949 . S
H355 C332 0.950 . S
H356 C334 0.950 . S
C357 C358 1.349 1_556 S
C357 C359 1.327 . S
C357 H382 0.950 . S
C358 C357 1.349 1_554 S
C358 C374 1.349 . S
C359 C357 1.327 . S
C359 C378 1.429 1_556 S
C359 H383 0.950 . S
C360 C377 1.574 . S
C360 C379 1.368 . S
C360 H384 0.949 . S
H361 C365 0.949 . S
C362 C363 1.349 . S
C362 C364 1.327 . S
C362 H385 0.950 . S
C363 C362 1.349 . S
C363 C375 1.349 1_554 S
C364 C362 1.327 . S
C364 C380 1.429 . S
C364 H386 0.950 . S
C365 H361 0.949 . S
C365 C373 1.574 . S
C365 C381 1.368 1_556 S
H366 C374 0.950 . S
H367 C372 0.950 . S
H368 C373 0.949 . S
H369 C375 0.950 . S
H370 C376 0.950 . S
H371 C377 0.949 . S
C372 H367 0.950 . S
C372 C374 1.327 . S
C372 C378 1.429 . S
C373 C365 1.574 . S
C373 H368 0.949 . S
C373 C379 1.368 1_556 S
C374 C358 1.349 . S
C374 H366 0.950 . S
C374 C372 1.327 . S
C375 C363 1.349 1_556 S
C375 H369 0.950 . S
C375 C376 1.327 . S
C376 H370 0.950 . S
C376 C375 1.327 . S
C376 C380 1.429 1_556 S
C377 C360 1.574 . S
C377 H371 0.949 . S
C377 C381 1.368 . S
C378 C359 1.429 1_554 S
C378 C372 1.429 . S
C378 C379 1.523 . S
C379 C360 1.368 . S
C379 C373 1.368 1_554 S
C379 C378 1.523 . S
C380 C364 1.429 . S
C380 C376 1.429 1_554 S
C380 C381 1.523 . S
C381 C365 1.368 1_554 S
C381 C377 1.368 . S
C381 C380 1.523 . S
H382 C357 0.950 . S
H383 C359 0.950 . S
H384 C360 0.949 . S
H385 C362 0.950 . S
H386 C364 0.950 . S
C387 C388 1.349 . S
C387 C389 1.327 . S
C387 H412 0.950 . S
C388 C387 1.349 . S
C388 C404 1.349 . S
C389 C387 1.327 . S
C389 C408 1.429 . S
C389 H413 0.950 . S
C390 C407 1.574 . S
C390 C409 1.368 . S
C390 H414 0.949 . S
H391 C395 0.949 1_455 S
C392 C393 1.349 . S
C392 C394 1.327 . S
C392 H415 0.950 . S
C393 C392 1.349 . S
C393 C405 1.349 . S
C394 C392 1.327 . S
C394 C410 1.429 . S
C394 H416 0.950 . S
C395 H391 0.949 1_655 S
C395 C403 1.574 . S
C395 C411 1.368 . S
H396 C404 0.950 . S
H397 C402 0.950 . S
H398 C403 0.949 . S
H399 C405 0.950 . S
H400 C406 0.950 . S
H401 C407 0.949 . S
C402 H397 0.950 . S
C402 C404 1.327 . S
C402 C408 1.429 . S
C403 C395 1.574 . S
C403 H398 0.949 . S
C403 C409 1.368 . S
C404 C388 1.349 . S
C404 H396 0.950 . S
C404 C402 1.327 . S
C405 C393 1.349 . S
C405 H399 0.950 . S
C405 C406 1.327 . S
C406 H400 0.950 . S
C406 C405 1.327 . S
C406 C410 1.429 . S
C407 C390 1.574 . S
C407 H401 0.949 . S
C407 C411 1.368 . S
C408 C389 1.429 . S
C408 C402 1.429 . S
C408 C409 1.523 . S
C409 C390 1.368 . S
C409 C403 1.368 . S
C409 C408 1.523 . S
C410 C394 1.429 . S
C410 C406 1.429 . S
C410 C411 1.523 1_455 S
C411 C395 1.368 . S
C411 C407 1.368 . S
C411 C410 1.523 1_655 S
H412 C387 0.950 . S
H413 C389 0.950 . S
H414 C390 0.949 . S
H415 C392 0.950 . S
H416 C394 0.950 . S
C417 C418 1.349 . S
C417 C419 1.327 . S
C417 H442 0.950 . S
C418 C417 1.349 . S
C418 C434 1.349 . S
C419 C417 1.327 . S
C419 C438 1.429 . S
C419 H443 0.950 . S
C420 C437 1.574 . S
C420 C439 1.368 . S
C420 H444 0.949 . S
H421 C425 0.949 . S
C422 C423 1.349 . S
C422 C424 1.327 . S
C422 H445 0.950 . S
C423 C422 1.349 . S
C423 C435 1.349 . S
C424 C422 1.327 . S
C424 C440 1.429 . S
C424 H446 0.950 . S
C425 H421 0.949 . S
C425 C433 1.574 . S
C425 C441 1.368 . S
H426 C434 0.950 . S
H427 C432 0.950 . S
H428 C433 0.949 . S
H429 C435 0.950 . S
H430 C436 0.950 . S
H431 C437 0.949 . S
C432 H427 0.950 . S
C432 C434 1.327 . S
C432 C438 1.429 . S
C433 C425 1.574 . S
C433 H428 0.949 . S
C433 C439 1.368 . S
C434 C418 1.349 . S
C434 H426 0.950 . S
C434 C432 1.327 . S
C435 C423 1.349 . S
C435 H429 0.950 . S
C435 C436 1.327 . S
C436 H430 0.950 . S
C436 C435 1.327 . S
C436 C440 1.429 . S
C437 C420 1.574 . S
C437 H431 0.949 . S
C437 C441 1.368 . S
C438 C419 1.429 . S
C438 C432 1.429 . S
C438 C439 1.523 . S
C439 C420 1.368 . S
C439 C433 1.368 . S
C439 C438 1.523 . S
C440 C424 1.429 . S
C440 C436 1.429 . S
C440 C441 1.523 . S
C441 C425 1.368 . S
C441 C437 1.368 . S
C441 C440 1.523 . S
H442 C417 0.950 . S
H443 C419 0.950 . S
H444 C420 0.949 . S
H445 C422 0.950 . S
H446 C424 0.950 . S
C447 C448 1.349 . S
C447 C449 1.327 . S
C447 H472 0.950 1_655 S
C448 C447 1.349 . S
C448 C464 1.349 . S
C449 C447 1.327 . S
C449 C468 1.429 . S
C449 H473 0.950 . S
C450 C467 1.574 . S
C450 C469 1.368 . S
C450 H474 0.949 . S
H451 C455 0.949 . S
C452 C453 1.349 . S
C452 C454 1.351 . S
C452 H475 0.950 . S
C453 C452 1.349 . S
C453 C465 1.349 . S
C454 C452 1.351 . S
C454 C470 1.425 1_565 S
C454 H476 0.929 1_565 S
C455 H451 0.949 . S
C455 C463 1.574 . S
C455 C471 1.368 . S
H456 C464 0.950 . S
H457 C462 0.950 . S
H458 C463 0.949 . S
H459 C465 0.950 . S
H460 C466 0.950 1_545 S
H461 C467 0.949 . S
C462 H457 0.950 . S
C462 C464 1.327 . S
C462 C468 1.429 . S
C463 C455 1.574 . S
C463 H458 0.949 . S
C463 C469 1.368 . S
C464 C448 1.349 . S
C464 H456 0.950 . S
C464 C462 1.327 . S
C465 C453 1.349 . S
C465 H459 0.950 . S
C465 C466 1.327 . S
C466 H460 0.950 1_565 S
C466 C465 1.327 . S
C466 C470 1.429 1_565 S
C467 C450 1.574 . S
C467 H461 0.949 . S
C467 C471 1.368 . S
C468 C449 1.429 . S
C468 C462 1.429 . S
C468 C469 1.523 . S
C469 C450 1.368 . S
C469 C463 1.368 . S
C469 C468 1.523 . S
C470 C454 1.425 1_545 S
C470 C466 1.429 1_545 S
C470 C471 1.523 . S
C471 C455 1.368 . S
C471 C467 1.368 . S
C471 C470 1.523 . S
H472 C447 0.950 1_455 S
H473 C449 0.950 . S
H474 C450 0.949 . S
H475 C452 0.950 . S
H476 C454 0.929 1_545 S
C477 C478 1.349 . S
C477 C479 1.327 . S
C477 H502 0.950 . S
C478 C477 1.349 . S
C478 C494 1.349 . S
C479 C477 1.327 . S
C479 C498 1.429 . S
C479 H503 0.950 . S
C480 C497 1.574 . S
C480 C499 1.368 . S
C480 H504 0.949 . S
H481 C485 0.949 . S
C482 C483 1.349 . S
C482 C484 1.327 . S
C482 H505 0.950 . S
C483 C482 1.349 . S
C483 C495 1.349 . S
C484 C482 1.327 . S
C484 C500 1.429 . S
C484 H506 0.950 . S
C485 H481 0.949 . S
C485 C493 1.574 . S
C485 C501 1.368 . S
H486 C494 0.950 . S
H487 C492 0.950 . S
H488 C493 0.949 . S
H489 C495 0.950 . S
H490 C496 0.950 . S
H491 C497 0.949 . S
C492 H487 0.950 . S
C492 C494 1.327 . S
C492 C498 1.429 . S
C493 C485 1.574 . S
C493 H488 0.949 . S
C493 C499 1.368 . S
C494 C478 1.349 . S
C494 H486 0.950 . S
C494 C492 1.327 . S
C495 C483 1.349 . S
C495 H489 0.950 . S
C495 C496 1.327 . S
C496 H490 0.950 . S
C496 C495 1.327 . S
C496 C500 1.429 . S
C497 C480 1.574 . S
C497 H491 0.949 . S
C497 C501 1.368 . S
C498 C479 1.429 . S
C498 C492 1.429 . S
C498 C499 1.523 . S
C499 C480 1.368 . S
C499 C493 1.368 . S
C499 C498 1.523 . S
C500 C484 1.429 . S
C500 C496 1.429 . S
C500 C501 1.523 . S
C501 C485 1.368 . S
C501 C497 1.368 . S
C501 C500 1.523 . S
H502 C477 0.950 . S
H503 C479 0.950 . S
H504 C480 0.949 . S
H505 C482 0.950 . S
H506 C484 0.950 . S
C507 C508 1.349 . S
C507 C509 1.327 . S
C507 H532 0.950 . S
C508 C507 1.349 . S
C508 C524 1.349 . S
C509 C507 1.327 . S
C509 C528 1.429 . S
C509 H533 0.950 . S
C510 C527 1.574 . S
C510 C529 1.368 . S
C510 H534 0.949 . S
H511 C515 0.949 . S
C512 C513 1.349 . S
C512 C514 1.327 . S
C512 H535 0.950 . S
C513 C512 1.349 . S
C513 C525 1.349 . S
C514 C512 1.327 . S
C514 C530 1.429 . S
C514 H536 0.950 . S
C515 H511 0.949 . S
C515 C523 1.574 . S
C515 C531 1.368 . S
H516 C524 0.950 . S
H517 C522 0.950 . S
H518 C523 0.949 . S
H519 C525 0.950 . S
H520 C526 0.950 . S
H521 C527 0.949 . S
C522 H517 0.950 . S
C522 C524 1.327 . S
C522 C528 1.429 . S
C523 C515 1.574 . S
C523 H518 0.949 . S
C523 C529 1.368 . S
C524 C508 1.349 . S
C524 H516 0.950 . S
C524 C522 1.327 . S
C525 C513 1.349 . S
C525 H519 0.950 . S
C525 C526 1.327 . S
C526 H520 0.950 . S
C526 C525 1.327 . S
C526 C530 1.429 . S
C527 C510 1.574 . S
C527 H521 0.949 . S
C527 C531 1.368 . S
C528 C509 1.429 . S
C528 C522 1.429 . S
C528 C529 1.523 . S
C529 C510 1.368 . S
C529 C523 1.368 . S
C529 C528 1.523 . S
C530 C514 1.429 . S
C530 C526 1.429 . S
C530 C531 1.523 . S
C531 C515 1.368 . S
C531 C527 1.368 . S
C531 C530 1.523 . S
H532 C507 0.950 . S
H533 C509 0.950 . S
H534 C510 0.949 . S
H535 C512 0.950 . S
H536 C514 0.950 . S
C537 C538 1.349 . S
C537 C539 1.327 . S
C537 H562 0.950 . S
C538 C537 1.349 . S
C538 C554 1.349 . S
C539 C537 1.327 . S
C539 C558 1.429 . S
C539 H563 0.950 . S
C540 C557 1.574 . S
C540 C559 1.368 . S
C540 H564 0.949 . S
H541 C545 0.949 . S
C542 C543 1.349 . S
C542 C544 1.327 . S
C542 H565 0.950 . S
C543 C542 1.349 . S
C543 C555 1.349 . S
C544 C542 1.327 . S
C544 C560 1.429 . S
C544 H566 0.950 . S
C545 H541 0.949 . S
C545 C553 1.574 . S
C545 C561 1.368 . S
H546 C554 0.950 . S
H547 C552 0.950 . S
H548 C553 0.949 . S
H549 C555 0.950 . S
H550 C556 0.950 . S
H551 C557 0.949 . S
C552 H547 0.950 . S
C552 C554 1.327 . S
C552 C558 1.429 . S
C553 C545 1.574 . S
C553 H548 0.949 . S
C553 C559 1.368 . S
C554 C538 1.349 . S
C554 H546 0.950 . S
C554 C552 1.327 . S
C555 C543 1.349 . S
C555 H549 0.950 . S
C555 C556 1.327 . S
C556 H550 0.950 . S
C556 C555 1.327 . S
C556 C560 1.429 . S
C557 C540 1.574 . S
C557 H551 0.949 . S
C557 C561 1.368 . S
C558 C539 1.429 . S
C558 C552 1.429 . S
C558 C559 1.523 . S
C559 C540 1.368 . S
C559 C553 1.368 . S
C559 C558 1.523 . S
C560 C544 1.429 . S
C560 C556 1.429 . S
C560 C561 1.523 . S
C561 C545 1.368 . S
C561 C557 1.368 . S
C561 C560 1.523 . S
H562 C537 0.950 . S
H563 C539 0.950 . S
H564 C540 0.949 . S
H565 C542 0.950 . S
H566 C544 0.950 . S
C567 C568 1.349 . S
C567 C569 1.327 . S
C567 H592 0.950 . S
C568 C567 1.349 . S
C568 C584 1.349 . S
C569 C567 1.327 . S
C569 C588 1.429 . S
C569 H593 0.950 . S
C570 C587 1.574 . S
C570 C589 1.368 . S
C570 H594 0.949 . S
H571 C575 0.949 . S
C572 C573 1.349 . S
C572 C574 1.327 . S
C572 H595 0.950 . S
C573 C572 1.349 . S
C573 C585 1.349 . S
C574 C572 1.327 . S
C574 C590 1.429 . S
C574 H596 0.950 . S
C575 H571 0.949 . S
C575 C583 1.574 . S
C575 C591 1.368 . S
H576 C584 0.950 . S
H577 C582 0.950 . S
H578 C583 0.949 . S
H579 C585 0.950 . S
H580 C586 0.950 . S
H581 C587 0.949 . S
C582 H577 0.950 . S
C582 C584 1.327 . S
C582 C588 1.429 . S
C583 C575 1.574 . S
C583 H578 0.949 . S
C583 C589 1.368 . S
C584 C568 1.349 . S
C584 H576 0.950 . S
C584 C582 1.327 . S
C585 C573 1.349 . S
C585 H579 0.950 . S
C585 C586 1.327 . S
C586 H580 0.950 . S
C586 C585 1.327 . S
C586 C590 1.429 . S
C587 C570 1.574 . S
C587 H581 0.949 . S
C587 C591 1.368 . S
C588 C569 1.429 . S
C588 C582 1.429 . S
C588 C589 1.523 . S
C589 C570 1.368 . S
C589 C583 1.368 . S
C589 C588 1.523 . S
C590 C574 1.429 . S
C590 C586 1.429 . S
C590 C591 1.523 . S
C591 C575 1.368 . S
C591 C587 1.368 . S
C591 C590 1.523 . S
H592 C567 0.950 . S
H593 C569 0.950 . S
H594 C570 0.949 . S
H595 C572 0.950 . S
H596 C574 0.950 . S
C597 C598 1.349 . S
C597 C599 1.327 . S
C597 H622 0.950 . S
C598 C597 1.349 . S
C598 C614 1.349 . S
C599 C597 1.327 . S
C599 C618 1.429 . S
C599 H623 0.950 . S
C600 C617 1.574 . S
C600 C619 1.368 . S
C600 H624 0.949 . S
H601 C605 0.949 . S
C602 C603 1.349 . S
C602 C604 1.327 . S
C602 H625 0.950 . S
C603 C602 1.349 . S
C603 C615 1.349 . S
C604 C602 1.327 . S
C604 C620 1.429 . S
C604 H626 0.950 . S
C605 H601 0.949 . S
C605 C613 1.574 . S
C605 C621 1.368 . S
H606 C614 0.950 . S
H607 C612 0.950 . S
H608 C613 0.949 . S
H609 C615 0.950 . S
H610 C616 0.950 . S
H611 C617 0.949 . S
C612 H607 0.950 . S
C612 C614 1.327 . S
C612 C618 1.429 . S
C613 C605 1.574 . S
C613 H608 0.949 . S
C613 C619 1.368 . S
C614 C598 1.349 . S
C614 H606 0.950 . S
C614 C612 1.327 . S
C615 C603 1.349 . S
C615 H609 0.950 . S
C615 C616 1.327 . S
C616 H610 0.950 . S
C616 C615 1.327 . S
C616 C620 1.429 . S
C617 C600 1.574 . S
C617 H611 0.949 . S
C617 C621 1.368 . S
C618 C599 1.429 . S
C618 C612 1.429 . S
C618 C619 1.523 . S
C619 C600 1.368 . S
C619 C613 1.368 . S
C619 C618 1.523 . S
C620 C604 1.429 . S
C620 C616 1.429 . S
C620 C621 1.523 . S
C621 C605 1.368 . S
C621 C617 1.368 . S
C621 C620 1.523 . S
H622 C597 0.950 . S
H623 C599 0.950 . S
H624 C600 0.949 . S
H625 C602 0.950 . S
H626 C604 0.950 . S
C627 C628 1.349 . S
C627 C629 1.327 . S
C627 H652 0.950 . S
C628 C627 1.349 . S
C628 C644 1.349 . S
C629 C627 1.327 . S
C629 C648 1.429 . S
C629 H653 0.950 . S
C630 C647 1.574 . S
C630 C649 1.368 . S
C630 H654 0.949 . S
H631 C635 0.949 . S
C632 C633 1.349 . S
C632 C634 1.327 . S
C632 H655 0.950 . S
C633 C632 1.349 . S
C633 C645 1.349 . S
C634 C632 1.327 . S
C634 C650 1.429 . S
C634 H656 0.950 . S
C635 H631 0.949 . S
C635 C643 1.574 . S
C635 C651 1.368 . S
H636 C644 0.950 . S
H637 C642 0.950 . S
H638 C643 0.949 . S
H639 C645 0.950 . S
H640 C646 0.950 . S
H641 C647 0.949 . S
C642 H637 0.950 . S
C642 C644 1.327 . S
C642 C648 1.429 . S
C643 C635 1.574 . S
C643 H638 0.949 . S
C643 C649 1.368 . S
C644 C628 1.349 . S
C644 H636 0.950 . S
C644 C642 1.327 . S
C645 C633 1.349 . S
C645 H639 0.950 . S
C645 C646 1.327 . S
C646 H640 0.950 . S
C646 C645 1.327 . S
C646 C650 1.429 . S
C647 C630 1.574 . S
C647 H641 0.949 . S
C647 C651 1.368 . S
C648 C629 1.429 . S
C648 C642 1.429 . S
C648 C649 1.523 . S
C649 C630 1.368 . S
C649 C643 1.368 . S
C649 C648 1.523 . S
C650 C634 1.429 . S
C650 C646 1.429 . S
C650 C651 1.523 . S
C651 C635 1.368 . S
C651 C647 1.368 . S
C651 C650 1.523 . S
H652 C627 0.950 . S
H653 C629 0.950 . S
H654 C630 0.949 . S
H655 C632 0.950 . S
H656 C634 0.950 . S
C657 C658 1.349 . S
C657 C659 1.327 . S
C657 H682 0.950 . S
C658 C657 1.349 . S
C658 C674 1.349 . S
C659 C657 1.327 . S
C659 C678 1.429 . S
C659 H683 0.950 . S
C660 C677 1.574 . S
C660 C679 1.368 . S
C660 H684 0.949 . S
H661 C665 0.949 . S
C662 C663 1.349 . S
C662 C664 1.327 . S
C662 H685 0.950 . S
C663 C662 1.349 . S
C663 C675 1.349 . S
C664 C662 1.327 . S
C664 C680 1.429 . S
C664 H686 0.950 . S
C665 H661 0.949 . S
C665 C673 1.574 . S
C665 C681 1.368 . S
H666 C674 0.950 . S
H667 C672 0.950 . S
H668 C673 0.949 . S
H669 C675 0.950 . S
H670 C676 0.950 . S
H671 C677 0.949 . S
C672 H667 0.950 . S
C672 C674 1.327 . S
C672 C678 1.429 . S
C673 C665 1.574 . S
C673 H668 0.949 . S
C673 C679 1.368 . S
C674 C658 1.349 . S
C674 H666 0.950 . S
C674 C672 1.327 . S
C675 C663 1.349 . S
C675 H669 0.950 . S
C675 C676 1.327 . S
C676 H670 0.950 . S
C676 C675 1.327 . S
C676 C680 1.429 . S
C677 C660 1.574 . S
C677 H671 0.949 . S
C677 C681 1.368 . S
C678 C659 1.429 . S
C678 C672 1.429 . S
C678 C679 1.523 . S
C679 C660 1.368 . S
C679 C673 1.368 . S
C679 C678 1.523 . S
C680 C664 1.429 . S
C680 C676 1.429 . S
C680 C681 1.523 1_545 S
C681 C665 1.368 . S
C681 C677 1.368 . S
C681 C680 1.523 1_565 S
H682 C657 0.950 . S
H683 C659 0.950 . S
H684 C660 0.949 . S
H685 C662 0.950 . S
H686 C664 0.950 . S
C687 C688 1.349 . S
C687 C689 1.327 . S
C687 H712 0.950 . S
C688 C687 1.349 . S
C688 C704 1.349 . S
C689 C687 1.327 . S
C689 C708 1.429 . S
C689 H713 0.950 . S
C690 C707 1.574 . S
C690 C709 1.368 . S
C690 H714 0.949 . S
H691 C695 0.949 . S
C692 C693 1.349 . S
C692 C694 1.327 1_545 S
C692 H715 0.950 . S
C693 C692 1.349 . S
C693 C705 1.349 1_545 S
C694 C692 1.327 1_565 S
C694 C710 1.429 . S
C694 H716 0.950 . S
C695 H691 0.949 . S
C695 C703 1.574 . S
C695 C711 1.368 . S
H696 C704 0.950 . S
H697 C702 0.950 . S
H698 C703 0.949 . S
H699 C705 0.950 . S
H700 C706 0.950 . S
H701 C707 0.949 . S
C702 H697 0.950 . S
C702 C704 1.327 . S
C702 C708 1.429 . S
C703 C695 1.574 . S
C703 H698 0.949 . S
C703 C709 1.368 . S
C704 C688 1.349 . S
C704 H696 0.950 . S
C704 C702 1.327 . S
C705 C693 1.349 1_565 S
C705 H699 0.950 . S
C705 C706 1.327 . S
C706 H700 0.950 . S
C706 C705 1.327 . S
C706 C710 1.429 . S
C707 C690 1.574 . S
C707 H701 0.949 . S
C707 C711 1.368 . S
C708 C689 1.429 . S
C708 C702 1.429 . S
C708 C709 1.523 1_655 S
C709 C690 1.368 . S
C709 C703 1.368 . S
C709 C708 1.523 1_455 S
C710 C694 1.429 . S
C710 C706 1.429 . S
C710 C711 1.523 . S
C711 C695 1.368 . S
C711 C707 1.368 . S
C711 C710 1.523 . S
H712 C687 0.950 . S
H713 C689 0.950 . S
H714 C690 0.949 . S
H715 C692 0.950 . S
H716 C694 0.950 . S
C717 C718 1.349 . S
C717 C719 1.327 . S
C717 H742 0.950 . S
C718 C717 1.349 . S
C718 C734 1.349 . S
C719 C717 1.327 . S
C719 C738 1.429 . S
C719 H743 0.950 . S
C720 C737 1.574 . S
C720 C739 1.368 . S
C720 H744 0.949 . S
H721 C725 0.949 . S
C722 C723 1.349 . S
C722 C724 1.327 . S
C722 H745 0.950 . S
C723 C722 1.349 . S
C723 C735 1.349 . S
C724 C722 1.327 . S
C724 C740 1.429 . S
C724 H746 0.950 . S
C725 H721 0.949 . S
C725 C733 1.574 . S
C725 C741 1.368 . S
H726 C734 0.950 . S
H727 C732 0.950 . S
H728 C733 0.949 . S
H729 C735 0.950 . S
H730 C736 0.950 . S
H731 C737 0.949 . S
C732 H727 0.950 . S
C732 C734 1.327 . S
C732 C738 1.429 . S
C733 C725 1.574 . S
C733 H728 0.949 . S
C733 C739 1.368 . S
C734 C718 1.349 . S
C734 H726 0.950 . S
C734 C732 1.327 . S
C735 C723 1.349 . S
C735 H729 0.950 . S
C735 C736 1.327 . S
C736 H730 0.950 . S
C736 C735 1.327 . S
C736 C740 1.429 . S
C737 C720 1.574 . S
C737 H731 0.949 . S
C737 C741 1.368 . S
C738 C719 1.429 . S
C738 C732 1.429 . S
C738 C739 1.523 . S
C739 C720 1.368 . S
C739 C733 1.368 . S
C739 C738 1.523 . S
C740 C724 1.429 . S
C740 C736 1.429 . S
C740 C741 1.523 . S
C741 C725 1.368 . S
C741 C737 1.368 . S
C741 C740 1.523 . S
H742 C717 0.950 . S
H743 C719 0.950 . S
H744 C720 0.949 . S
H745 C722 0.950 . S
H746 C724 0.950 . S
C747 C748 1.349 . S
C747 C749 1.327 . S
C747 H772 0.950 . S
C748 C747 1.349 . S
C748 C764 1.349 . S
C749 C747 1.327 . S
C749 C768 1.429 . S
C749 H773 0.950 . S
C750 C767 1.574 . S
C750 C769 1.368 . S
C750 H774 0.949 . S
H751 C755 0.949 . S
C752 C753 1.349 . S
C752 C754 1.327 . S
C752 H775 0.950 . S
C753 C752 1.349 . S
C753 C765 1.349 . S
C754 C752 1.327 . S
C754 C770 1.429 . S
C754 H776 0.950 . S
C755 H751 0.949 . S
C755 C763 1.574 . S
C755 C771 1.368 . S
H756 C764 0.950 . S
H757 C762 0.950 . S
H758 C763 0.949 . S
H759 C765 0.950 1_655 S
H760 C766 0.950 1_655 S
H761 C767 0.949 . S
C762 H757 0.950 . S
C762 C764 1.327 . S
C762 C768 1.429 . S
C763 C755 1.574 . S
C763 H758 0.949 . S
C763 C769 1.368 . S
C764 C748 1.349 . S
C764 H756 0.950 . S
C764 C762 1.327 . S
C765 C753 1.349 . S
C765 H759 0.950 1_455 S
C765 C766 1.327 . S
C766 H760 0.950 1_455 S
C766 C765 1.327 . S
C766 C770 1.429 . S
C767 C750 1.574 . S
C767 H761 0.949 . S
C767 C771 1.368 . S
C768 C749 1.429 . S
C768 C762 1.429 . S
C768 C769 1.523 . S
C769 C750 1.368 . S
C769 C763 1.368 . S
C769 C768 1.523 . S
C770 C754 1.429 . S
C770 C766 1.429 . S
C770 C771 1.523 . S
C771 C755 1.368 . S
C771 C767 1.368 . S
C771 C770 1.523 . S
H772 C747 0.950 . S
H773 C749 0.950 . S
H774 C750 0.949 . S
H775 C752 0.950 . S
H776 C754 0.950 . S
C777 C778 1.349 . S
C777 C779 1.327 . S
C777 H802 0.950 . S
C778 C777 1.349 . S
C778 C794 1.349 . S
C779 C777 1.327 . S
C779 C798 1.429 . S
C779 H803 0.950 . S
C780 C797 1.574 . S
C780 C799 1.368 . S
C780 H804 0.949 . S
H781 C785 0.949 . S
C782 C783 1.349 . S
C782 C784 1.327 . S
C782 H805 0.950 . S
C783 C782 1.349 . S
C783 C795 1.349 . S
C784 C782 1.327 . S
C784 C800 1.429 . S
C784 H806 0.950 . S
C785 H781 0.949 . S
C785 C793 1.574 . S
C785 C801 1.368 . S
H786 C794 0.950 . S
H787 C792 0.950 . S
H788 C793 0.949 . S
H789 C795 0.950 . S
H790 C796 0.950 . S
H791 C797 0.949 . S
C792 H787 0.950 . S
C792 C794 1.327 . S
C792 C798 1.429 . S
C793 C785 1.574 . S
C793 H788 0.949 . S
C793 C799 1.368 . S
C794 C778 1.349 . S
C794 H786 0.950 . S
C794 C792 1.327 . S
C795 C783 1.349 . S
C795 H789 0.950 . S
C795 C796 1.327 . S
C796 H790 0.950 . S
C796 C795 1.327 . S
C796 C800 1.429 . S
C797 C780 1.574 . S
C797 H791 0.949 . S
C797 C801 1.368 . S
C798 C779 1.429 . S
C798 C792 1.429 . S
C798 C799 1.523 . S
C799 C780 1.368 . S
C799 C793 1.368 . S
C799 C798 1.523 . S
C800 C784 1.429 . S
C800 C796 1.429 . S
C800 C801 1.523 . S
C801 C785 1.368 . S
C801 C797 1.368 . S
C801 C800 1.523 . S
H802 C777 0.950 . S
H803 C779 0.950 . S
H804 C780 0.949 . S
H805 C782 0.950 . S
H806 C784 0.950 . S
C807 C808 1.349 1_565 S
C807 C809 1.327 . S
C807 H832 0.950 . S
C808 C807 1.349 1_545 S
C808 C824 1.349 . S
C809 C807 1.327 . S
C809 C828 1.429 1_565 S
C809 H833 0.950 . S
C810 C827 1.574 . S
C810 C829 1.368 . S
C810 H834 0.949 . S
H811 C815 0.949 . S
C812 C813 1.349 1_545 S
C812 C814 1.327 . S
C812 H835 0.950 . S
C813 C812 1.349 1_565 S
C813 C825 1.349 . S
C814 C812 1.327 . S
C814 C830 1.429 1_545 S
C814 H836 0.950 . S
C815 H811 0.949 . S
C815 C823 1.574 . S
C815 C831 1.368 . S
H816 C824 0.950 . S
H817 C822 0.950 . S
H818 C823 0.949 . S
H819 C825 0.950 . S
H820 C826 0.950 . S
H821 C827 0.949 . S
C822 H817 0.950 . S
C822 C824 1.327 . S
C822 C828 1.429 . S
C823 C815 1.574 . S
C823 H818 0.949 . S
C823 C829 1.368 1_565 S
C824 C808 1.349 . S
C824 H816 0.950 . S
C824 C822 1.327 . S
C825 C813 1.349 . S
C825 H819 0.950 . S
C825 C826 1.327 . S
C826 H820 0.950 . S
C826 C825 1.327 . S
C826 C830 1.429 . S
C827 C810 1.574 . S
C827 H821 0.949 . S
C827 C831 1.368 1_545 S
C828 C809 1.429 1_545 S
C828 C822 1.429 . S
C828 C829 1.523 . S
C829 C810 1.368 . S
C829 C823 1.368 1_545 S
C829 C828 1.523 . S
C830 C814 1.429 1_565 S
C830 C826 1.429 . S
C830 C831 1.523 . S
C831 C815 1.368 . S
C831 C827 1.368 1_565 S
C831 C830 1.523 . S
H832 C807 0.950 . S
H833 C809 0.950 . S
H834 C810 0.949 . S
H835 C812 0.950 . S
H836 C814 0.950 . S
C837 C838 1.349 . S
C837 C839 1.327 . S
C837 H862 0.956 . S
C838 C837 1.349 . S
C838 C854 1.349 . S
C839 C837 1.327 . S
C839 C858 1.429 . S
C839 H863 0.950 . S
C840 C857 1.574 . S
C840 C859 1.368 . S
C840 H864 0.949 . S
H841 C845 0.949 . S
C842 C843 1.349 . S
C842 C844 1.327 . S
C842 H865 0.950 . S
C843 C842 1.349 . S
C843 C855 1.349 . S
C844 C842 1.327 . S
C844 C860 1.429 . S
C844 H866 0.950 . S
C845 H841 0.949 . S
C845 C853 1.574 . S
C845 C861 1.368 . S
H846 C854 0.950 . S
H847 C852 0.950 . S
H848 C853 0.949 . S
H849 C855 0.950 . S
H850 C856 0.950 . S
H851 C857 0.949 . S
C852 H847 0.950 . S
C852 C854 1.327 . S
C852 C858 1.429 . S
C853 C845 1.574 . S
C853 H848 0.949 . S
C853 C859 1.368 . S
C854 C838 1.349 . S
C854 H846 0.950 . S
C854 C852 1.327 . S
C855 C843 1.349 . S
C855 H849 0.950 . S
C855 C856 1.327 . S
C856 H850 0.950 . S
C856 C855 1.327 . S
C856 C860 1.429 . S
C857 C840 1.574 . S
C857 H851 0.949 . S
C857 C861 1.368 . S
C858 C839 1.429 . S
C858 C852 1.429 . S
C858 C859 1.523 . S
C859 C840 1.368 . S
C859 C853 1.368 . S
C859 C858 1.523 . S
C860 C844 1.429 . S
C860 C856 1.429 . S
C860 C861 1.523 . S
C861 C845 1.368 . S
C861 C857 1.368 . S
C861 C860 1.523 . S
H862 C837 0.956 . S
H863 C839 0.950 . S
H864 C840 0.949 . S
H865 C842 0.950 . S
H866 C844 0.950 . S
C867 C868 1.367 . S
C867 C869 1.327 . S
C867 H892 0.950 . S
C868 C867 1.367 . S
C868 C884 1.332 1_655 S
C869 C867 1.327 . S
C869 C888 1.429 . S
C869 H893 0.950 . S
C870 C887 1.574 . S
C870 C889 1.368 . S
C870 H894 0.949 1_655 S
H871 C875 0.949 . S
C872 C873 1.349 . S
C872 C874 1.327 . S
C872 H895 0.950 . S
C873 C872 1.349 . S
C873 C885 1.349 . S
C874 C872 1.327 . S
C874 C890 1.429 . S
C874 H896 0.950 . S
C875 H871 0.949 . S
C875 C883 1.574 . S
C875 C891 1.368 . S
H876 C884 0.950 . S
H877 C882 0.950 . S
H878 C883 0.949 . S
H879 C885 0.950 . S
H880 C886 0.950 . S
H881 C887 0.949 . S
C882 H877 0.950 . S
C882 C884 1.327 . S
C882 C888 1.429 1_455 S
C883 C875 1.574 . S
C883 H878 0.949 . S
C883 C889 1.368 . S
C884 C868 1.332 1_455 S
C884 H876 0.950 . S
C884 C882 1.327 . S
C885 C873 1.349 . S
C885 H879 0.950 . S
C885 C886 1.327 . S
C886 H880 0.950 . S
C886 C885 1.327 . S
C886 C890 1.429 . S
C887 C870 1.574 . S
C887 H881 0.949 . S
C887 C891 1.368 . S
C888 C869 1.429 . S
C888 C882 1.429 1_655 S
C888 C889 1.523 . S
C889 C870 1.368 . S
C889 C883 1.368 . S
C889 C888 1.523 . S
C890 C874 1.429 . S
C890 C886 1.429 . S
C890 C891 1.523 . S
C891 C875 1.368 . S
C891 C887 1.368 . S
C891 C890 1.523 . S
H892 C867 0.950 . S
H893 C869 0.950 . S
H894 C870 0.949 1_455 S
H895 C872 0.950 . S
H896 C874 0.950 . S
C897 C898 1.349 . S
C897 C899 1.327 . S
C897 H922 0.950 . S
C898 C897 1.349 . S
C898 C914 1.349 . S
C899 C897 1.327 . S
C899 C918 1.429 . S
C899 H923 0.950 . S
C900 C917 1.574 . S
C900 C919 1.368 . S
C900 H924 0.949 . S
H901 C905 0.949 . S
C902 C903 1.349 . S
C902 C904 1.327 . S
C902 H925 0.950 . S
C903 C902 1.349 . S
C903 C915 1.349 . S
C904 C902 1.327 . S
C904 C920 1.429 . S
C904 H926 0.950 . S
C905 H901 0.949 . S
C905 C913 1.574 . S
C905 C921 1.368 . S
H906 C914 0.950 . S
H907 C912 0.950 . S
H908 C913 0.949 . S
H909 C915 0.950 . S
H910 C916 0.950 . S
H911 C917 0.949 . S
C912 H907 0.950 . S
C912 C914 1.327 . S
C912 C918 1.429 . S
C913 C905 1.574 . S
C913 H908 0.949 . S
C913 C919 1.368 . S
C914 C898 1.349 . S
C914 H906 0.950 . S
C914 C912 1.327 . S
C915 C903 1.349 . S
C915 H909 0.950 . S
C915 C916 1.327 . S
C916 H910 0.950 . S
C916 C915 1.327 . S
C916 C920 1.429 . S
C917 C900 1.574 . S
C917 H911 0.949 . S
C917 C921 1.368 . S
C918 C899 1.429 . S
C918 C912 1.429 . S
C918 C919 1.523 . S
C919 C900 1.368 . S
C919 C913 1.368 . S
C919 C918 1.523 . S
C920 C904 1.429 . S
C920 C916 1.429 . S
C920 C921 1.523 . S
C921 C905 1.368 . S
C921 C917 1.368 . S
C921 C920 1.523 . S
H922 C897 0.950 . S
H923 C899 0.950 . S
H924 C900 0.949 . S
H925 C902 0.950 . S
H926 C904 0.950 . S
C927 C928 1.349 . S
C927 C929 1.327 . S
C927 H952 0.950 . S
C928 C927 1.349 . S
C928 C944 1.349 . S
C929 C927 1.327 . S
C929 C948 1.429 . S
C929 H953 0.950 . S
C930 C947 1.574 . S
C930 C949 1.368 . S
C930 H954 0.949 . S
H931 C935 0.949 . S
C932 C933 1.349 . S
C932 C934 1.327 . S
C932 H955 0.950 . S
C933 C932 1.349 . S
C933 C945 1.349 . S
C934 C932 1.327 . S
C934 C950 1.429 . S
C934 H956 0.950 . S
C935 H931 0.949 . S
C935 C943 1.574 . S
C935 C951 1.368 . S
H936 C944 0.950 . S
H937 C942 0.950 . S
H938 C943 0.949 . S
H939 C945 0.950 . S
H940 C946 0.950 . S
H941 C947 0.949 . S
C942 H937 0.950 . S
C942 C944 1.327 . S
C942 C948 1.429 . S
C943 C935 1.574 . S
C943 H938 0.949 . S
C943 C949 1.368 . S
C944 C928 1.349 . S
C944 H936 0.950 . S
C944 C942 1.327 . S
C945 C933 1.349 . S
C945 H939 0.950 . S
C945 C946 1.327 . S
C946 H940 0.950 . S
C946 C945 1.327 . S
C946 C950 1.429 . S
C947 C930 1.574 . S
C947 H941 0.949 . S
C947 C951 1.368 . S
C948 C929 1.429 . S
C948 C942 1.429 . S
C948 C949 1.523 . S
C949 C930 1.368 . S
C949 C943 1.368 . S
C949 C948 1.523 . S
C950 C934 1.429 . S
C950 C946 1.429 . S
C950 C951 1.523 . S
C951 C935 1.368 . S
C951 C947 1.368 . S
C951 C950 1.523 . S
H952 C927 0.950 . S
H953 C929 0.950 . S
H954 C930 0.949 . S
H955 C932 0.950 . S
H956 C934 0.950 . S
C957 C958 1.349 1_545 S
C957 C959 1.327 . S
C957 H982 0.950 . S
C958 C957 1.349 1_565 S
C958 C974 1.349 . S
C959 C957 1.327 . S
C959 C978 1.429 . S
C959 H983 0.950 . S
C960 C977 1.574 . S
C960 C979 1.368 . S
C960 H984 0.949 1_545 S
H961 C965 0.949 . S
C962 C963 1.349 . S
C962 C964 1.327 . S
C962 H985 0.950 . S
C963 C962 1.349 . S
C963 C975 1.349 . S
C964 C962 1.327 . S
C964 C980 1.429 . S
C964 H986 0.950 . S
C965 H961 0.949 . S
C965 C973 1.574 . S
C965 C981 1.368 . S
H966 C974 0.950 . S
H967 C972 0.950 . S
H968 C973 0.949 . S
H969 C975 0.950 . S
H970 C976 0.950 . S
H971 C977 0.949 . S
C972 H967 0.950 . S
C972 C974 1.327 . S
C972 C978 1.429 1_565 S
C973 C965 1.574 . S
C973 H968 0.949 . S
C973 C979 1.368 . S
C974 C958 1.349 . S
C974 H966 0.950 . S
C974 C972 1.327 . S
C975 C963 1.349 . S
C975 H969 0.950 . S
C975 C976 1.327 . S
C976 H970 0.950 . S
C976 C975 1.327 . S
C976 C980 1.429 . S
C977 C960 1.574 . S
C977 H971 0.949 . S
C977 C981 1.368 . S
C978 C959 1.429 . S
C978 C972 1.429 1_545 S
C978 C979 1.523 . S
C979 C960 1.368 . S
C979 C973 1.368 . S
C979 C978 1.523 . S
C980 C964 1.429 . S
C980 C976 1.429 . S
C980 C981 1.523 . S
C981 C965 1.368 . S
C981 C977 1.368 . S
C981 C980 1.523 . S
H982 C957 0.950 . S
H983 C959 0.950 . S
H984 C960 0.949 1_565 S
H985 C962 0.950 . S
H986 C964 0.950 . S
C987 C988 1.349 . S
C987 C989 1.327 . S
C987 H1012 0.950 . S
C988 C987 1.349 . S
C988 C1004 1.349 . S
C989 C987 1.327 . S
C989 C1008 1.429 . S
C989 H1013 0.950 1_655 S
C990 C1007 1.574 . S
C990 C1009 1.368 . S
C990 H1014 0.949 . S
H991 C995 0.949 . S
C992 C993 1.349 . S
C992 C994 1.327 . S
C992 H1015 0.950 . S
C993 C992 1.349 . S
C993 C1005 1.349 . S
C994 C992 1.327 . S
C994 C1010 1.429 . S
C994 H1016 0.950 1_455 S
C995 H991 0.949 . S
C995 C1003 1.574 . S
C995 C1011 1.368 . S
H996 C1004 0.950 . S
H997 C1002 0.950 . S
H998 C1003 0.949 . S
H999 C1005 0.950 . S
H1000 C1006 0.950 . S
H1001 C1007 0.949 . S
C1002 H997 0.950 . S
C1002 C1004 1.327 . S
C1002 C1008 1.429 . S
C1003 C995 1.574 . S
C1003 H998 0.949 . S
C1003 C1009 1.368 1_455 S
C1004 C988 1.349 . S
C1004 H996 0.950 . S
C1004 C1002 1.327 . S
C1005 C993 1.349 . S
C1005 H999 0.950 . S
C1005 C1006 1.327 . S
C1006 H1000 0.950 . S
C1006 C1005 1.327 . S
C1006 C1010 1.429 . S
C1007 C990 1.574 . S
C1007 H1001 0.949 . S
C1007 C1011 1.368 1_655 S
C1008 C989 1.429 . S
C1008 C1002 1.429 . S
C1008 C1009 1.523 . S
C1009 C990 1.368 . S
C1009 C1003 1.368 1_655 S
C1009 C1008 1.523 . S
C1010 C994 1.429 . S
C1010 C1006 1.429 . S
C1010 C1011 1.523 . S
C1011 C995 1.368 . S
C1011 C1007 1.368 1_455 S
C1011 C1010 1.523 . S
H1012 C987 0.950 . S
H1013 C989 0.950 1_455 S
H1014 C990 0.949 . S
H1015 C992 0.950 . S
H1016 C994 0.950 1_655 S
C208 C44 0.868 . S
C213 C17 0.854 . S
C238 C62 1.160 . S
C243 C40 1.111 . S
C268 C64 0.992 . S
C273 C21 0.990 . S
C298 C63 0.912 . S
C303 C39 0.937 . S
C328 C67 0.505 . S
C333 C18 0.494 . S
C358 C16 1.007 . S
C363 C41 0.998 . S
C388 C86 0.986 . S
C393 C113 1.004 . S
C418 C136 1.145 . S
C423 C109 1.111 . S
C448 C132 0.786 1_655 S
C453 C90 0.791 . S
C478 C108 0.948 . S
C483 C133 0.941 . S
C508 C131 0.594 . S
C513 C87 0.602 . S
C538 C110 0.733 . S
C543 C85 0.732 . S
C568 C182 0.734 . S
C573 C155 0.735 . S
C598 C178 1.203 . S
C603 C200 1.252 . S
C628 C202 0.814 . S
C633 C159 0.812 . S
C658 C201 0.746 . S
C663 C177 0.745 . S
C688 C205 0.599 . S
C693 C156 0.593 . S
C718 C154 0.879 . S
C723 C179 0.875 . S
C748 C134 1.571 . S
C753 C20 1.626 . S
C778 C88 1.799 . S
C783 C43 1.883 . S
C808 C65 1.654 . S
C813 C111 1.641 . S
C838 C66 1.586 . S
C843 C158 1.586 . S
C868 C19 1.666 . S
C873 C181 1.739 . S
C898 C203 1.798 . S
C903 C42 1.797 . S
C928 C89 1.752 . S
C933 C204 1.751 . S
C958 C112 1.594 . S
C963 C157 1.535 . S
C988 C180 1.756 . S
C993 C135 1.827 . S
