# Generated by pormake.
# Topology umd, (4)-cn, num edge types: 1
# Building blocks:
#     Node 0, Type 0, BuildingBlock: QUQFOY_clean_sbu_3, # of connection points: 4
#     Node 1, Type 0, BuildingBlock: QUQFOY_clean_sbu_3, # of connection points: 4
#     Node 2, Type 0, BuildingBlock: QUQFOY_clean_sbu_3, # of connection points: 4
#     Node 3, Type 0, BuildingBlock: QUQFOY_clean_sbu_3, # of connection points: 4
#     Node 4, Type 0, BuildingBlock: QUQFOY_clean_sbu_3, # of connection points: 4
#     Node 5, Type 0, BuildingBlock: QUQFOY_clean_sbu_3, # of connection points: 4
#     Node 6, Type 0, BuildingBlock: QUQFOY_clean_sbu_3, # of connection points: 4
#     Node 7, Type 0, BuildingBlock: QUQFOY_clean_sbu_3, # of connection points: 4
#     Node 8, Type 0, BuildingBlock: QUQFOY_clean_sbu_3, # of connection points: 4
#     Node 9, Type 0, BuildingBlock: QUQFOY_clean_sbu_3, # of connection points: 4
#     Node 10, Type 0, BuildingBlock: QUQFOY_clean_sbu_3, # of connection points: 4
#     Node 11, Type 0, BuildingBlock: QUQFOY_clean_sbu_3, # of connection points: 4
#     Node 12, Type 0, BuildingBlock: QUQFOY_clean_sbu_3, # of connection points: 4
#     Node 13, Type 0, BuildingBlock: QUQFOY_clean_sbu_3, # of connection points: 4
#     Node 14, Type 0, BuildingBlock: QUQFOY_clean_sbu_3, # of connection points: 4
#     Node 15, Type 0, BuildingBlock: QUQFOY_clean_sbu_3, # of connection points: 4
#     Edge 16, Type (0, 0), BuildingBlock: KIFKEQ_clean_linker_1, # of connection points: 2
#     Edge 17, Type (0, 0), BuildingBlock: KIFKEQ_clean_linker_1, # of connection points: 2
#     Edge 18, Type (0, 0), BuildingBlock: KIFKEQ_clean_linker_1, # of connection points: 2
#     Edge 19, Type (0, 0), BuildingBlock: KIFKEQ_clean_linker_1, # of connection points: 2
#     Edge 20, Type (0, 0), BuildingBlock: KIFKEQ_clean_linker_1, # of connection points: 2
#     Edge 21, Type (0, 0), BuildingBlock: KIFKEQ_clean_linker_1, # of connection points: 2
#     Edge 22, Type (0, 0), BuildingBlock: KIFKEQ_clean_linker_1, # of connection points: 2
#     Edge 23, Type (0, 0), BuildingBlock: KIFKEQ_clean_linker_1, # of connection points: 2
#     Edge 24, Type (0, 0), BuildingBlock: KIFKEQ_clean_linker_1, # of connection points: 2
#     Edge 25, Type (0, 0), BuildingBlock: KIFKEQ_clean_linker_1, # of connection points: 2
#     Edge 26, Type (0, 0), BuildingBlock: KIFKEQ_clean_linker_1, # of connection points: 2
#     Edge 27, Type (0, 0), BuildingBlock: KIFKEQ_clean_linker_1, # of connection points: 2
#     Edge 28, Type (0, 0), BuildingBlock: KIFKEQ_clean_linker_1, # of connection points: 2
#     Edge 29, Type (0, 0), BuildingBlock: KIFKEQ_clean_linker_1, # of connection points: 2
#     Edge 30, Type (0, 0), BuildingBlock: KIFKEQ_clean_linker_1, # of connection points: 2
#     Edge 31, Type (0, 0), BuildingBlock: KIFKEQ_clean_linker_1, # of connection points: 2
#     Edge 32, Type (0, 0), BuildingBlock: KIFKEQ_clean_linker_1, # of connection points: 2
#     Edge 33, Type (0, 0), BuildingBlock: KIFKEQ_clean_linker_1, # of connection points: 2
#     Edge 34, Type (0, 0), BuildingBlock: KIFKEQ_clean_linker_1, # of connection points: 2
#     Edge 35, Type (0, 0), BuildingBlock: KIFKEQ_clean_linker_1, # of connection points: 2
#     Edge 36, Type (0, 0), BuildingBlock: KIFKEQ_clean_linker_1, # of connection points: 2
#     Edge 37, Type (0, 0), BuildingBlock: KIFKEQ_clean_linker_1, # of connection points: 2
#     Edge 38, Type (0, 0), BuildingBlock: KIFKEQ_clean_linker_1, # of connection points: 2
#     Edge 39, Type (0, 0), BuildingBlock: KIFKEQ_clean_linker_1, # of connection points: 2
#     Edge 40, Type (0, 0), BuildingBlock: KIFKEQ_clean_linker_1, # of connection points: 2
#     Edge 41, Type (0, 0), BuildingBlock: KIFKEQ_clean_linker_1, # of connection points: 2
#     Edge 42, Type (0, 0), BuildingBlock: KIFKEQ_clean_linker_1, # of connection points: 2
#     Edge 43, Type (0, 0), BuildingBlock: KIFKEQ_clean_linker_1, # of connection points: 2
#     Edge 44, Type (0, 0), BuildingBlock: KIFKEQ_clean_linker_1, # of connection points: 2
#     Edge 45, Type (0, 0), BuildingBlock: KIFKEQ_clean_linker_1, # of connection points: 2
#     Edge 46, Type (0, 0), BuildingBlock: KIFKEQ_clean_linker_1, # of connection points: 2
#     Edge 47, Type (0, 0), BuildingBlock: KIFKEQ_clean_linker_1, # of connection points: 2
# Relax obj value: 0.099
# Max RMSD: 0.237
# Mean RMSD: 0.237
data_MOF--net-umd--node1-QUQFOY_clean_sbu_3--edge1-KIFKEQ_clean_linker_1
_symmetry_space_group_name_H-M    P1
_symmetry_Int_Tables_number       1
_symmetry_cell_setting            triclinic
loop_
_symmetry_equiv_pos_as_xyz
'x, y, z'
_cell_length_a     41.608395
_cell_length_b     41.546355
_cell_length_c     60.990823
_cell_angle_alpha  89.906341
_cell_angle_beta   89.677702
_cell_angle_gamma 89.71974
loop_
_atom_site_label
_atom_site_type_symbol
_atom_site_fract_x
_atom_site_fract_y
_atom_site_fract_z
_atom_type_partial_charge
C0 C 0.19431 0.4843 0.1347 0.0
O1 O 0.1928 0.50995 0.1234 0.0
Cd2 Cd 0.17434 0.50771 0.08589 0.0
O3 O 0.18832 0.45727 0.12591 0.0
Cd4 Cd 0.17493 0.43173 0.09071 0.0
C5 C 0.10236 0.46856 0.09445 0.0
O6 O 0.2037 0.46793 0.0649 0.0
O7 O 0.17295 0.43096 0.05136 0.0
O8 O 0.21769 0.39835 0.10424 0.0
C9 C 0.19246 0.4538 0.04812 0.0
O10 O 0.11794 0.49416 0.09025 0.0
C11 C 0.20548 0.37141 0.09937 0.0
O12 O 0.11677 0.44148 0.09614 0.0
O13 O 0.178 0.37189 0.09031 0.0
C14 C 0.48045 0.19551 0.63875 0.0
O15 O 0.45495 0.20131 0.62815 0.0
Cd16 Cd 0.45255 0.17772 0.59216 0.0
O17 O 0.50439 0.18271 0.62904 0.0
Cd18 Cd 0.5229 0.16855 0.59176 0.0
C19 C 0.48277 0.10095 0.60016 0.0
O20 O 0.48991 0.20091 0.56606 0.0
O21 O 0.51181 0.15698 0.55379 0.0
O22 O 0.56001 0.20991 0.60108 0.0
C23 C 0.4969 0.183 0.5498 0.0
O24 O 0.45855 0.11928 0.59713 0.0
C25 C 0.58554 0.19572 0.59499 0.0
O26 O 0.51113 0.1124 0.59997 0.0
O27 O 0.58261 0.16775 0.58674 0.0
C28 C 0.76359 0.48199 0.13224 0.0
O29 O 0.76263 0.45592 0.12148 0.0
Cd30 Cd 0.78908 0.45579 0.08599 0.0
O31 O 0.77383 0.50743 0.12309 0.0
Cd32 Cd 0.79047 0.529 0.0876 0.0
C33 C 0.86123 0.49293 0.09691 0.0
O34 O 0.7678 0.49311 0.05922 0.0
O35 O 0.80754 0.52448 0.0506 0.0
O36 O 0.74253 0.56036 0.08995 0.0
C37 C 0.78641 0.50456 0.04449 0.0
O38 O 0.84555 0.46735 0.09294 0.0
C39 C 0.75531 0.58799 0.08964 0.0
O40 O 0.84722 0.52034 0.09705 0.0
O41 O 0.78586 0.58894 0.08813 0.0
C42 C 0.46486 0.76652 0.64118 0.0
O43 O 0.48981 0.76414 0.62924 0.0
Cd44 Cd 0.48807 0.78881 0.59342 0.0
O45 O 0.43865 0.77655 0.63297 0.0
Cd46 Cd 0.41431 0.78993 0.59747 0.0
C47 C 0.44937 0.86108 0.60486 0.0
O48 O 0.44957 0.76542 0.56893 0.0
O49 O 0.41711 0.80404 0.5597 0.0
O50 O 0.38372 0.74283 0.60548 0.0
C51 C 0.43753 0.78293 0.55386 0.0
O52 O 0.47483 0.84519 0.60039 0.0
C53 C 0.35604 0.75475 0.60223 0.0
O54 O 0.42208 0.84722 0.60579 0.0
O55 O 0.35471 0.7843 0.59668 0.0
C56 C 0.19382 0.48775 0.29911 0.0
O57 O 0.19178 0.46261 0.31086 0.0
Cd58 Cd 0.17044 0.46661 0.34785 0.0
O59 O 0.18711 0.5151 0.30726 0.0
Cd60 Cd 0.17158 0.54067 0.34202 0.0
C61 C 0.09933 0.50587 0.33631 0.0
O62 O 0.19534 0.50596 0.3712 0.0
O63 O 0.15764 0.53981 0.37995 0.0
O64 O 0.21832 0.57208 0.33394 0.0
C65 C 0.17833 0.51926 0.38613 0.0
O66 O 0.11436 0.48077 0.34263 0.0
C67 C 0.20587 0.59964 0.33698 0.0
O68 O 0.11431 0.53222 0.33295 0.0
O69 O 0.17624 0.60051 0.34232 0.0
C70 C 0.48274 0.20001 0.80291 0.0
O71 O 0.50796 0.20163 0.81442 0.0
Cd72 Cd 0.50516 0.17786 0.85087 0.0
O73 O 0.45671 0.19042 0.8116 0.0
Cd74 Cd 0.43316 0.17542 0.84682 0.0
C75 C 0.4705 0.10473 0.83963 0.0
O76 O 0.46616 0.19928 0.87665 0.0
O77 O 0.43463 0.15905 0.88393 0.0
O78 O 0.40142 0.22286 0.84208 0.0
C79 C 0.45328 0.18078 0.8909 0.0
O80 O 0.49509 0.12088 0.84517 0.0
C81 C 0.37399 0.20974 0.84289 0.0
O82 O 0.44324 0.11856 0.83738 0.0
O83 O 0.37339 0.17931 0.84554 0.0
C84 C 0.76085 0.48977 0.29544 0.0
O85 O 0.75794 0.51605 0.30581 0.0
Cd86 Cd 0.78352 0.51868 0.34133 0.0
O87 O 0.77257 0.46527 0.30499 0.0
Cd88 Cd 0.78961 0.44703 0.34117 0.0
C89 C 0.85822 0.48536 0.33115 0.0
O90 O 0.7639 0.48213 0.3691 0.0
O91 O 0.80831 0.45733 0.37741 0.0
O92 O 0.7438 0.41286 0.3403 0.0
C93 C 0.78442 0.47417 0.38356 0.0
O94 O 0.84117 0.51009 0.33562 0.0
C95 C 0.75833 0.38604 0.34151 0.0
O96 O 0.84545 0.45752 0.33033 0.0
O97 O 0.78888 0.38691 0.34291 0.0
C98 C 0.48158 0.76822 0.80476 0.0
O99 O 0.45733 0.76645 0.81739 0.0
Cd100 Cd 0.4622 0.78987 0.8536 0.0
O101 O 0.50825 0.77801 0.81217 0.0
Cd102 Cd 0.53545 0.79334 0.84595 0.0
C103 C 0.4962 0.86339 0.8406 0.0
O104 O 0.50427 0.76686 0.8758 0.0
O105 O 0.53578 0.80645 0.8839 0.0
O106 O 0.56806 0.74856 0.83503 0.0
C107 C 0.51711 0.78436 0.89045 0.0
O108 O 0.47225 0.847 0.8473 0.0
C109 C 0.59521 0.76156 0.83787 0.0
O110 O 0.52338 0.84987 0.83711 0.0
O111 O 0.59529 0.79055 0.84462 0.0
C112 C 0.76009 0.47522 0.79522 0.0
O113 O 0.75907 0.44907 0.80593 0.0
Cd114 Cd 0.78386 0.4479 0.84168 0.0
O115 O 0.76994 0.50069 0.80442 0.0
Cd116 Cd 0.78577 0.52053 0.84053 0.0
C117 C 0.85673 0.48524 0.8322 0.0
O118 O 0.76131 0.48441 0.86828 0.0
O119 O 0.80404 0.51116 0.87709 0.0
O120 O 0.739 0.55401 0.83985 0.0
C121 C 0.78103 0.49314 0.88296 0.0
O122 O 0.84097 0.45982 0.83669 0.0
C123 C 0.75296 0.58103 0.84067 0.0
O124 O 0.84243 0.51239 0.83074 0.0
O125 O 0.78354 0.58055 0.84164 0.0
C126 C 0.48749 0.7634 0.30435 0.0
O127 O 0.51346 0.7604 0.31495 0.0
Cd128 Cd 0.51491 0.78526 0.35088 0.0
O129 O 0.46275 0.77489 0.3138 0.0
Cd130 Cd 0.44383 0.7913 0.35008 0.0
C131 C 0.48225 0.8605 0.34187 0.0
O132 O 0.47799 0.76545 0.37841 0.0
O133 O 0.45274 0.80983 0.38653 0.0
O134 O 0.41043 0.74491 0.35023 0.0
C135 C 0.46932 0.78588 0.39286 0.0
O136 O 0.50678 0.84313 0.34609 0.0
C137 C 0.38337 0.75904 0.3501 0.0
O138 O 0.45442 0.84785 0.34061 0.0
O139 O 0.38366 0.78973 0.35012 0.0
C140 C 0.19353 0.48338 0.79998 0.0
O141 O 0.19196 0.50989 0.81021 0.0
Cd142 Cd 0.17123 0.50871 0.84737 0.0
O143 O 0.18623 0.45738 0.80973 0.0
Cd144 Cd 0.17003 0.43641 0.84581 0.0
C145 C 0.09862 0.47193 0.83884 0.0
O146 O 0.19859 0.47173 0.87195 0.0
O147 O 0.15783 0.44466 0.88417 0.0
O148 O 0.21348 0.40118 0.83611 0.0
C149 C 0.18179 0.46237 0.88823 0.0
O150 O 0.11389 0.49728 0.84402 0.0
C151 C 0.20028 0.37492 0.84153 0.0
O152 O 0.11341 0.44518 0.83656 0.0
O153 O 0.17207 0.37658 0.84965 0.0
C154 C 0.48936 0.19426 0.30571 0.0
O155 O 0.46379 0.19149 0.31701 0.0
Cd156 Cd 0.46622 0.17454 0.35503 0.0
O157 O 0.5166 0.1891 0.31439 0.0
Cd158 Cd 0.54291 0.17502 0.34903 0.0
C159 C 0.50609 0.10221 0.34786 0.0
O160 O 0.50647 0.20476 0.37409 0.0
O161 O 0.54384 0.17507 0.38847 0.0
O162 O 0.57628 0.21687 0.33431 0.0
C163 C 0.52063 0.19452 0.39117 0.0
O164 O 0.48082 0.11796 0.35299 0.0
C165 C 0.60315 0.205 0.33986 0.0
O166 O 0.53258 0.11671 0.34413 0.0
O167 O 0.60267 0.17792 0.34965 0.0
C168 C 0.76005 0.47451 0.63178 0.0
O169 O 0.75984 0.50034 0.62067 0.0
Cd170 Cd 0.78565 0.49965 0.58495 0.0
O171 O 0.7696 0.44844 0.62302 0.0
Cd172 Cd 0.78652 0.42537 0.58801 0.0
C173 C 0.85717 0.46103 0.59732 0.0
O174 O 0.76414 0.46133 0.55946 0.0
O175 O 0.8039 0.4297 0.55087 0.0
O176 O 0.73878 0.39412 0.5911 0.0
C177 C 0.78285 0.44996 0.54476 0.0
O178 O 0.84186 0.48643 0.59188 0.0
C179 C 0.75173 0.36646 0.59018 0.0
O180 O 0.84277 0.43403 0.59879 0.0
O181 O 0.78223 0.36548 0.58816 0.0
C182 C 0.48112 0.76308 0.1407 0.0
O183 O 0.45524 0.76085 0.12995 0.0
Cd184 Cd 0.45534 0.7853 0.09386 0.0
O185 O 0.50625 0.77372 0.13137 0.0
Cd186 Cd 0.52713 0.7899 0.09552 0.0
C187 C 0.48923 0.85931 0.10435 0.0
O188 O 0.4932 0.76282 0.0677 0.0
O189 O 0.51871 0.80624 0.05843 0.0
O190 O 0.56275 0.74602 0.10309 0.0
C191 C 0.50195 0.78231 0.05271 0.0
O192 O 0.46452 0.84304 0.09914 0.0
C193 C 0.58885 0.76016 0.09848 0.0
O194 O 0.51664 0.84568 0.10602 0.0
O195 O 0.5869 0.78921 0.09192 0.0
C196 C 0.19624 0.46747 0.63648 0.0
O197 O 0.19496 0.44113 0.62606 0.0
Cd198 Cd 0.17159 0.44181 0.58969 0.0
O199 O 0.18767 0.49345 0.6272 0.0
Cd200 Cd 0.16897 0.51291 0.59152 0.0
C201 C 0.09853 0.47673 0.60047 0.0
O202 O 0.19283 0.4785 0.56225 0.0
O203 O 0.14917 0.50537 0.5552 0.0
O204 O 0.21495 0.54698 0.59037 0.0
C205 C 0.17251 0.48846 0.54818 0.0
O206 O 0.1144 0.45169 0.595 0.0
C207 C 0.2004 0.57383 0.59104 0.0
O208 O 0.11262 0.5038 0.60237 0.0
O209 O 0.16981 0.57303 0.59185 0.0
C210 C 0.49038 0.19654 0.14158 0.0
O211 O 0.51605 0.19475 0.13035 0.0
Cd212 Cd 0.51353 0.17269 0.09371 0.0
O213 O 0.46365 0.18952 0.13292 0.0
Cd214 Cd 0.44119 0.17398 0.09742 0.0
C215 C 0.47446 0.10146 0.10439 0.0
O216 O 0.47627 0.19731 0.06842 0.0
O217 O 0.44689 0.15596 0.06043 0.0
O218 O 0.40927 0.22179 0.10016 0.0
C219 C 0.46537 0.17826 0.05394 0.0
O220 O 0.49992 0.11624 0.09868 0.0
C221 C 0.38185 0.20867 0.0994 0.0
O222 O 0.44808 0.11681 0.10709 0.0
O223 O 0.38136 0.17813 0.09758 0.0
H224 H 0.05682 0.42212 0.08788 0.0
H225 H 0.06847 0.5209 0.10803 0.0
H226 H -0.00145 0.42843 0.09023 0.0
H227 H 0.01061 0.52686 0.11161 0.0
H228 H 0.9066 0.53918 0.08971 0.0
H229 H 0.96475 0.53264 0.09049 0.0
H230 H 0.95333 0.43437 0.11268 0.0
H231 H 0.89526 0.4406 0.11071 0.0
C232 C 0.0469 0.44499 0.09317 0.0
C233 C 0.06716 0.47107 0.09755 0.0
C234 C 0.01347 0.44865 0.09466 0.0
C235 C -0.00038 0.4783 0.10098 0.0
C236 C 0.02016 0.50394 0.10613 0.0
C237 C 0.05343 0.50046 0.10423 0.0
C238 C 0.91658 0.51633 0.09498 0.0
C239 C 0.89638 0.49039 0.10004 0.0
C240 C 0.94999 0.51253 0.09552 0.0
C241 C 0.964 0.48284 0.10153 0.0
C242 C 0.9436 0.45733 0.10745 0.0
C243 C 0.91024 0.46098 0.10653 0.0
H244 H 0.40424 0.90761 0.59644 0.0
H245 H 0.50095 0.89383 0.62 0.0
H246 H 0.412 0.96579 0.59683 0.0
H247 H 0.5083 0.95176 0.62159 0.0
H248 H 0.52634 0.05217 0.59471 0.0
H249 H 0.51697 -0.00538 0.59776 0.0
H250 H 0.41839 0.01325 0.61696 0.0
H251 H 0.42749 0.07078 0.61277 0.0
C252 C 0.42688 0.91709 0.60219 0.0
C253 C 0.45207 0.89623 0.60799 0.0
C254 C 0.43137 0.95047 0.6025 0.0
C255 C 0.46099 0.96368 0.60898 0.0
C256 C 0.48551 0.94262 0.61588 0.0
C257 C 0.48121 0.90935 0.61517 0.0
C258 C 0.50273 0.04396 0.59969 0.0
C259 C 0.47765 0.06602 0.60341 0.0
C260 C 0.49734 0.01089 0.6016 0.0
C261 C 0.46686 -0.00095 0.60767 0.0
C262 C 0.44199 0.0213 0.61186 0.0
C263 C 0.44727 0.05435 0.6096 0.0
H264 H 0.0607 0.45529 0.34649 0.0
H265 H 0.05801 0.55122 0.31899 0.0
H266 H 0.00309 0.45105 0.34251 0.0
H267 H -0.00016 0.54653 0.31433 0.0
H268 H 0.89366 0.53978 0.33712 0.0
H269 H 0.95172 0.5452 0.33602 0.0
H270 H 0.96083 0.44546 0.31683 0.0
H271 H 0.90258 0.43971 0.31869 0.0
C272 C 0.04786 0.47544 0.33935 0.0
C273 C 0.06408 0.50368 0.33311 0.0
C274 C 0.0147 0.47285 0.33687 0.0
C275 C -0.00329 0.49832 0.32794 0.0
C276 C 0.01291 0.52653 0.32146 0.0
C277 C 0.04625 0.52921 0.32406 0.0
C278 C 0.90797 0.51901 0.33247 0.0
C279 C 0.89341 0.48917 0.32822 0.0
C280 C 0.94136 0.52223 0.33169 0.0
C281 C 0.96108 0.49574 0.3265 0.0
C282 C 0.94643 0.46623 0.32132 0.0
C283 C 0.913 0.46294 0.32227 0.0
H284 H 0.44329 0.8998 0.85031 0.0
H285 H 0.53956 0.90675 0.82377 0.0
H286 H 0.43696 0.95769 0.84741 0.0
H287 H 0.53279 0.96493 0.82019 0.0
H288 H 0.52429 0.06836 0.84617 0.0
H289 H 0.53005 0.01044 0.84386 0.0
H290 H 0.43113 0.00276 0.82334 0.0
H291 H 0.425 0.06112 0.82636 0.0
C292 C 0.46303 0.91363 0.84358 0.0
C293 C 0.49208 0.89857 0.83744 0.0
C294 C 0.45925 0.94692 0.84174 0.0
C295 C 0.48434 0.96609 0.83359 0.0
C296 C 0.51312 0.95096 0.82686 0.0
C297 C 0.51698 0.91758 0.82882 0.0
C298 C 0.50372 0.05445 0.84102 0.0
C299 C 0.47406 0.06947 0.83661 0.0
C300 C 0.50716 0.02112 0.83951 0.0
C301 C 0.48109 0.00181 0.83342 0.0
C302 C 0.45161 0.01686 0.8284 0.0
C303 C 0.44811 0.05033 0.83002 0.0
H304 H 0.89909 0.53279 0.82027 0.0
H305 H 0.89478 0.43268 0.83941 0.0
H306 H 0.95767 0.52946 0.81924 0.0
H307 H 0.95298 0.42968 0.83915 0.0
H308 H 0.05852 0.426 0.82204 0.0
H309 H 0.00042 0.42952 0.81738 0.0
H310 H 0.00091 0.52558 0.84449 0.0
H311 H 0.05887 0.52249 0.84841 0.0
C312 C 0.91059 0.51007 0.82419 0.0
C313 C 0.89219 0.48306 0.83 0.0
C314 C 0.94419 0.50819 0.82375 0.0
C315 C 0.96015 0.47933 0.82924 0.0
C316 C 0.94163 0.45217 0.83451 0.0
C317 C 0.90813 0.45398 0.8348 0.0
C318 C 0.04621 0.44791 0.82691 0.0
C319 C 0.06337 0.4739 0.83566 0.0
C320 C 0.01287 0.44991 0.82431 0.0
C321 C -0.00413 0.47784 0.83058 0.0
C322 C 0.01316 0.50392 0.83911 0.0
C323 C 0.04647 0.50202 0.84154 0.0
H324 H 0.55048 0.05969 0.33065 0.0
H325 H 0.45605 0.06425 0.36041 0.0
H326 H 0.54483 0.00146 0.32647 0.0
H327 H 0.45085 0.00645 0.35685 0.0
H328 H 0.43674 0.90614 0.33153 0.0
H329 H 0.4433 0.96447 0.33088 0.0
H330 H 0.54346 0.95309 0.34774 0.0
H331 H 0.53721 0.89504 0.34767 0.0
C332 C 0.52865 0.04829 0.33643 0.0
C333 C 0.50375 0.0667 0.34584 0.0
C334 C 0.5254 0.0149 0.33407 0.0
C335 C 0.49725 -0.0008 0.34118 0.0
C336 C 0.47254 0.0177 0.35072 0.0
C337 C 0.47569 0.05094 0.35294 0.0
C338 C 0.46022 0.91609 0.33487 0.0
C339 C 0.48636 0.89585 0.33978 0.0
C340 C 0.46397 0.94956 0.33464 0.0
C341 C 0.49388 0.96359 0.33946 0.0
C342 C 0.52018 0.94324 0.34371 0.0
C343 C 0.5165 0.90985 0.34381 0.0
H344 H 0.89555 0.51311 0.59048 0.0
H345 H 0.89836 0.41433 0.61277 0.0
H346 H 0.95335 0.5166 0.59413 0.0
H347 H 0.95652 0.41821 0.61722 0.0
H348 H 0.06098 0.4245 0.5925 0.0
H349 H 0.00296 0.42076 0.59457 0.0
H350 H -0.00226 0.51867 0.61825 0.0
H351 H 0.05613 0.52282 0.61538 0.0
C352 C 0.90844 0.4922 0.59648 0.0
C353 C 0.89226 0.46332 0.60116 0.0
C354 C 0.94171 0.49433 0.59876 0.0
C355 C 0.95975 0.46772 0.60596 0.0
C356 C 0.94347 0.43906 0.6113 0.0
C357 C 0.9101 0.43685 0.60884 0.0
C358 C 0.04757 0.44524 0.59831 0.0
C359 C 0.06327 0.4741 0.60359 0.0
C360 C 0.01417 0.44296 0.59967 0.0
C361 C -0.00449 0.46941 0.60652 0.0
C362 C 0.01129 0.49797 0.61254 0.0
C363 C 0.04479 0.50034 0.61101 0.0
H364 H 0.42676 0.06042 0.11842 0.0
H365 H 0.52574 0.06211 0.09653 0.0
H366 H 0.42974 0.00179 0.12153 0.0
H367 H 0.52835 0.00402 0.09894 0.0
H368 H 0.53413 0.90119 0.1202 0.0
H369 H 0.52959 0.9595 0.12337 0.0
H370 H 0.4328 0.95548 0.0982 0.0
H371 H 0.43693 0.89722 0.09577 0.0
C372 C 0.44912 0.04835 0.1143 0.0
C373 C 0.47596 0.06602 0.1072 0.0
C374 C 0.4508 0.01474 0.11598 0.0
C375 C 0.47932 -0.00189 0.11052 0.0
C376 C 0.50619 0.01594 0.10371 0.0
C377 C 0.50457 0.04938 0.10214 0.0
C378 C 0.51179 0.91273 0.11552 0.0
C379 C 0.486 0.89453 0.10758 0.0
C380 C 0.50922 0.9462 0.11724 0.0
C381 C 0.48091 0.9623 0.11085 0.0
C382 C 0.45481 0.94395 0.10352 0.0
C383 C 0.45729 0.91048 0.10197 0.0
H384 H 0.18599 0.43617 0.2719 0.0
H385 H 0.21827 0.53474 0.27278 0.0
H386 H 0.1906 0.43558 0.2321 0.0
H387 H 0.22459 0.5338 0.2331 0.0
H388 H 0.18752 0.53558 0.1624 0.0
H389 H 0.19214 0.53553 0.20214 0.0
H390 H 0.2223 0.43577 0.20045 0.0
H391 H 0.216 0.43554 0.1608 0.0
C392 C 0.19489 0.45744 0.26361 0.0
C393 C 0.20148 0.48557 0.27544 0.0
C394 C 0.19768 0.45713 0.24073 0.0
C395 C 0.20766 0.48479 0.22919 0.0
C396 C 0.216 0.51231 0.24126 0.0
C397 C 0.21266 0.51279 0.26407 0.0
C398 C 0.1955 0.51378 0.17052 0.0
C399 C 0.20113 0.48553 0.15848 0.0
C400 C 0.19834 0.51373 0.19336 0.0
C401 C 0.20742 0.48555 0.2047 0.0
C402 C 0.21452 0.45772 0.19244 0.0
C403 C 0.21115 0.45764 0.16965 0.0
H404 H 0.52851 0.17873 0.66684 0.0
H405 H 0.43711 0.22842 0.66444 0.0
H406 H 0.5301 0.186 0.7063 0.0
H407 H 0.43926 0.23679 0.70399 0.0
H408 H 0.43202 0.19966 0.77497 0.0
H409 H 0.43288 0.20396 0.73543 0.0
H410 H 0.53517 0.22148 0.73683 0.0
H411 H 0.53449 0.21598 0.77677 0.0
C412 C 0.50895 0.19169 0.67469 0.0
C413 C 0.48245 0.20263 0.6625 0.0
C414 C 0.51003 0.19613 0.69736 0.0
C415 C 0.48475 0.21185 0.70843 0.0
C416 C 0.45889 0.22404 0.69608 0.0
C417 C 0.45768 0.21935 0.67338 0.0
C418 C 0.45473 0.20476 0.76695 0.0
C419 C 0.48329 0.20709 0.77908 0.0
C420 C 0.45515 0.20754 0.74418 0.0
C421 C 0.4841 0.21293 0.73284 0.0
C422 C 0.5125 0.2168 0.74502 0.0
C423 C 0.51211 0.21387 0.76792 0.0
H424 H 0.76698 0.53353 0.15957 0.0
H425 H 0.73999 0.43322 0.15821 0.0
H426 H 0.75907 0.53465 0.19885 0.0
H427 H 0.73069 0.43469 0.19779 0.0
H428 H 0.77077 0.43867 0.26833 0.0
H429 H 0.76413 0.43655 0.22898 0.0
H430 H 0.72448 0.53294 0.22964 0.0
H431 H 0.73247 0.53556 0.26923 0.0
C432 C 0.75873 0.51179 0.1676 0.0
C433 C 0.75459 0.48311 0.15575 0.0
C434 C 0.75384 0.51256 0.19022 0.0
C435 C 0.74439 0.48473 0.20161 0.0
C436 C 0.73854 0.45644 0.18959 0.0
C437 C 0.74371 0.4556 0.1669 0.0
C438 C 0.76029 0.45936 0.26018 0.0
C439 C 0.75262 0.48751 0.27191 0.0
C440 C 0.75617 0.45799 0.23754 0.0
C441 C 0.74397 0.48464 0.22602 0.0
C442 C 0.73454 0.51218 0.23793 0.0
C443 C 0.73897 0.51366 0.26063 0.0
H444 H 0.52839 0.774 0.77368 0.0
H445 H 0.42931 0.74551 0.78219 0.0
H446 H 0.52363 0.7676 0.73443 0.0
H447 H 0.42486 0.73783 0.7426 0.0
H448 H 0.41807 0.77727 0.67179 0.0
H449 H 0.42185 0.77159 0.71125 0.0
H450 H 0.51795 0.73281 0.70411 0.0
H451 H 0.5146 0.73978 0.66446 0.0
C452 C 0.50567 0.76579 0.76721 0.0
C453 C 0.47909 0.76063 0.78111 0.0
C454 C 0.50304 0.76181 0.74461 0.0
C455 C 0.47383 0.75228 0.73524 0.0
C456 C 0.44758 0.74571 0.74922 0.0
C457 C 0.45016 0.74995 0.77192 0.0
C458 C 0.43994 0.76722 0.67857 0.0
C459 C 0.46622 0.75938 0.66496 0.0
C460 C 0.44199 0.76368 0.70128 0.0
C461 C 0.47028 0.75193 0.71097 0.0
C462 C 0.49601 0.74254 0.69725 0.0
C463 C 0.49406 0.74638 0.6745 0.0
H464 H 0.7325 0.42786 0.77034 0.0
H465 H 0.76909 0.52491 0.76672 0.0
H466 H 0.72398 0.42834 0.73078 0.0
H467 H 0.762 0.52492 0.72735 0.0
H468 H 0.73652 0.52452 0.65674 0.0
H469 H 0.72822 0.52506 0.69642 0.0
H470 H 0.75753 0.42517 0.69969 0.0
H471 H 0.76436 0.42428 0.66032 0.0
C472 C 0.73856 0.44933 0.76114 0.0
C473 C 0.7518 0.47618 0.77166 0.0
C474 C 0.73383 0.44959 0.73844 0.0
C475 C 0.7426 0.47656 0.72576 0.0
C476 C 0.75451 0.50387 0.73651 0.0
C477 C 0.75888 0.50375 0.75916 0.0
C478 C 0.74064 0.50258 0.66594 0.0
C479 C 0.75144 0.47449 0.65537 0.0
C480 C 0.73607 0.5029 0.6887 0.0
C481 C 0.7425 0.47523 0.70137 0.0
C482 C 0.75187 0.44682 0.69057 0.0
C483 C 0.7561 0.44642 0.66789 0.0
H484 H 0.53436 0.73648 0.27811 0.0
H485 H 0.43669 0.77235 0.27703 0.0
H486 H 0.53242 0.72839 0.23848 0.0
H487 H 0.43519 0.76555 0.23766 0.0
H488 H 0.43295 0.73905 0.16703 0.0
H489 H 0.43442 0.73116 0.20672 0.0
H490 H 0.5333 0.76262 0.20742 0.0
H491 H 0.53221 0.76921 0.16802 0.0
C492 C 0.51245 0.74244 0.26947 0.0
C493 C 0.48584 0.75539 0.28072 0.0
C494 C 0.51135 0.73796 0.24674 0.0
C495 C 0.48373 0.74658 0.23478 0.0
C496 C 0.45672 0.7582 0.24626 0.0
C497 C 0.45772 0.76241 0.26891 0.0
C498 C 0.4551 0.74378 0.17566 0.0
C499 C 0.48232 0.75509 0.16437 0.0
C500 C 0.45593 0.73942 0.19843 0.0
C501 C 0.48391 0.74651 0.21036 0.0
C502 C 0.51146 0.75647 0.19885 0.0
C503 C 0.51071 0.76058 0.17617 0.0
H504 H 0.18729 0.53138 0.76956 0.0
H505 H 0.21811 0.43264 0.77709 0.0
H506 H 0.19363 0.52684 0.72999 0.0
H507 H 0.22623 0.42843 0.73765 0.0
H508 H 0.19084 0.41895 0.66656 0.0
H509 H 0.19549 0.42334 0.70619 0.0
H510 H 0.22633 0.52213 0.69912 0.0
H511 H 0.21988 0.51805 0.65959 0.0
C512 C 0.19622 0.50895 0.76277 0.0
C513 C 0.20189 0.4823 0.77639 0.0
C514 C 0.20005 0.50631 0.74003 0.0
C515 C 0.21021 0.4771 0.73042 0.0
C516 C 0.21758 0.45104 0.74429 0.0
C517 C 0.21317 0.45352 0.76696 0.0
C518 C 0.19913 0.4414 0.67348 0.0
C519 C 0.20469 0.46821 0.66 0.0
C520 C 0.20194 0.44397 0.69627 0.0
C521 C 0.21094 0.47328 0.70606 0.0
C522 C 0.21848 0.49945 0.69233 0.0
C523 C 0.21509 0.49703 0.66961 0.0
H524 H 0.53676 0.21985 0.28026 0.0
H525 H 0.43916 0.1853 0.27763 0.0
H526 H 0.53701 0.22714 0.24067 0.0
H527 H 0.43979 0.19099 0.23789 0.0
H528 H 0.44119 0.21856 0.16724 0.0
H529 H 0.4404 0.22441 0.20695 0.0
H530 H 0.54025 0.19519 0.20924 0.0
H531 H 0.54129 0.19093 0.16946 0.0
C532 C 0.51529 0.21388 0.27118 0.0
C533 C 0.48799 0.2018 0.28203 0.0
C534 C 0.5155 0.21784 0.24844 0.0
C535 C 0.4886 0.20929 0.23591 0.0
C536 C 0.46086 0.19828 0.24692 0.0
C537 C 0.46048 0.19483 0.26974 0.0
C538 C 0.4631 0.21391 0.17624 0.0
C539 C 0.49127 0.20412 0.16525 0.0
C540 C 0.46259 0.217 0.19905 0.0
C541 C 0.49011 0.20986 0.21147 0.0
C542 C 0.51866 0.20132 0.20031 0.0
C543 C 0.51928 0.19874 0.17745 0.0
H544 H 0.24065 0.46422 0.90792 0.0
H545 H 0.13938 0.47905 0.91999 0.0
H546 H 0.25095 0.4689 0.9475 0.0
H547 H 0.1498 0.48503 0.95917 0.0
H548 H 0.18405 0.51167 0.02789 0.0
H549 H 0.18711 0.52181 -0.01184 0.0
H550 H 0.22351 0.42552 -0.0219 0.0
H551 H 0.21916 0.41504 0.01752 0.0
C552 C 0.22083 0.46954 0.91895 0.0
C553 C 0.18923 0.47117 0.91104 0.0
C554 C 0.22671 0.47217 0.9415 0.0
C555 C 0.20117 0.47755 0.95625 0.0
C556 C 0.16992 0.48131 0.94808 0.0
C557 C 0.16395 0.47772 0.92573 0.0
C558 C 0.19365 0.49314 0.01719 0.0
C559 C 0.20152 0.46266 0.02558 0.0
C560 C 0.19532 0.49888 -0.00544 0.0
C561 C 0.20576 0.47448 -0.0198 0.0
C562 C 0.21585 0.44483 -0.01112 0.0
C563 C 0.21328 0.43882 0.01136 0.0
H564 H 0.46007 0.19469 0.40855 0.0
H565 H 0.5592 0.21377 0.424 0.0
H566 H 0.44599 0.19891 0.44771 0.0
H567 H 0.54499 0.21937 0.46277 0.0
H568 H 0.50325 0.24207 0.53063 0.0
H569 H 0.50264 0.25355 0.49104 0.0
H570 H 0.47402 0.15571 0.47833 0.0
H571 H 0.47593 0.14392 0.51758 0.0
C572 C 0.47852 0.20099 0.42022 0.0
C573 C 0.51067 0.20387 0.41344 0.0
C574 C 0.47051 0.20337 0.44252 0.0
C575 C 0.49441 0.2097 0.4581 0.0
C576 C 0.5261 0.21493 0.45101 0.0
C577 C 0.53423 0.21157 0.42891 0.0
C578 C 0.49595 0.22337 0.51936 0.0
C579 C 0.48977 0.1921 0.527 0.0
C580 C 0.49563 0.22992 0.49681 0.0
C581 C 0.48807 0.20553 0.48178 0.0
C582 C 0.47948 0.17499 0.48964 0.0
C583 C 0.48075 0.16822 0.51203 0.0
H584 H 0.74044 0.46766 0.02398 0.0
H585 H 0.82691 0.52234 0.01197 0.0
H586 H 0.73702 0.45581 -0.01546 0.0
H587 H 0.82324 0.51115 -0.0267 0.0
H588 H 0.82958 0.47264 0.90838 0.0
H589 H 0.82912 0.4667 0.94808 0.0
H590 H 0.72703 0.48632 0.94928 0.0
H591 H 0.7274 0.49072 0.9091 0.0
C592 C 0.75874 0.47694 0.013 0.0
C593 C 0.78396 0.49589 0.02108 0.0
C594 C 0.75672 0.47025 -0.00952 0.0
C595 C 0.7801 0.48215 -0.02414 0.0
C596 C 0.80527 0.50089 -0.01587 0.0
C597 C 0.8072 0.50759 0.00637 0.0
C598 C 0.80689 0.47475 0.91711 0.0
C599 C 0.77862 0.48257 0.90589 0.0
C600 C 0.80662 0.4715 0.93981 0.0
C601 C 0.77821 0.47694 0.95184 0.0
C602 C 0.74928 0.48201 0.94045 0.0
C603 C 0.74947 0.48461 0.91751 0.0
H604 H 0.47963 0.73973 0.5344 0.0
H605 H 0.41728 0.8207 0.52054 0.0
H606 H 0.49549 0.73789 0.49543 0.0
H607 H 0.43275 0.8187 0.48236 0.0
H608 H 0.48304 0.83323 0.42129 0.0
H609 H 0.48231 0.83008 0.46112 0.0
H610 H 0.46884 0.72722 0.45754 0.0
H611 H 0.47068 0.73035 0.41728 0.0
C612 C 0.46937 0.75705 0.52311 0.0
C613 C 0.44734 0.78046 0.53057 0.0
C614 C 0.47839 0.75596 0.50088 0.0
C615 C 0.46579 0.77852 0.48597 0.0
C616 C 0.44352 0.80149 0.49352 0.0
C617 C 0.43444 0.80246 0.51546 0.0
C618 C 0.48082 0.80983 0.42901 0.0
C619 C 0.47642 0.7821 0.41633 0.0
C620 C 0.4803 0.80802 0.45179 0.0
C621 C 0.47468 0.77852 0.46239 0.0
C622 C 0.47316 0.75026 0.44977 0.0
C623 C 0.47417 0.75204 0.42679 0.0
H624 H 0.21742 0.47381 0.40608 0.0
H625 H 0.14476 0.54592 0.4196 0.0
H626 H 0.21822 0.45952 0.44532 0.0
H627 H 0.14578 0.53197 0.45805 0.0
H628 H 0.12443 0.48235 0.51912 0.0
H629 H 0.12823 0.48425 0.47937 0.0
H630 H 0.23181 0.48506 0.48338 0.0
H631 H 0.22792 0.48224 0.52363 0.0
C632 C 0.20178 0.48663 0.41736 0.0
C633 C 0.18081 0.51078 0.40968 0.0
C634 C 0.20229 0.47849 0.43975 0.0
C635 C 0.18161 0.49421 0.45466 0.0
C636 C 0.16141 0.51883 0.44692 0.0
C637 C 0.16099 0.52697 0.42482 0.0
C638 C 0.14805 0.4822 0.51154 0.0
C639 C 0.17587 0.48265 0.52441 0.0
C640 C 0.15024 0.4834 0.48877 0.0
C641 C 0.1803 0.48562 0.4783 0.0
C642 C 0.20832 0.48343 0.49104 0.0
C643 C 0.20611 0.48184 0.51402 0.0
H644 H 0.49656 0.21963 0.91268 0.0
H645 H 0.42225 0.1488 0.92317 0.0
H646 H 0.50619 0.22111 0.95251 0.0
H647 H 0.43145 0.15064 0.96217 0.0
H648 H 0.47288 0.1293 0.02555 0.0
H649 H 0.47569 0.13227 -0.01419 0.0
H650 H 0.47729 0.23609 -0.01088 0.0
H651 H 0.47556 0.23297 0.02944 0.0
C652 C 0.48226 0.20456 0.92342 0.0
C653 C 0.45894 0.1838 0.91474 0.0
C654 C 0.48773 0.20546 0.94615 0.0
C655 C 0.47004 0.18548 0.96038 0.0
C656 C 0.44613 0.16565 0.95161 0.0
C657 C 0.44074 0.16474 0.92918 0.0
C658 C 0.47452 0.15276 0.01784 0.0
C659 C 0.47347 0.18092 0.03046 0.0
C660 C 0.47603 0.15448 -0.00491 0.0
C661 C 0.47585 0.18442 -0.01564 0.0
C662 C 0.47737 0.21269 -0.00302 0.0
C663 C 0.47634 0.21093 0.01998 0.0
H664 H 0.83186 0.49177 0.41077 0.0
H665 H 0.72965 0.47514 0.40869 0.0
H666 H 0.82966 0.49398 0.45061 0.0
H667 H 0.72752 0.47597 0.44895 0.0
H668 H 0.73805 0.48904 0.52453 0.0
H669 H 0.73631 0.50376 0.48546 0.0
H670 H 0.82216 0.44718 0.47399 0.0
H671 H 0.82413 0.43303 0.51236 0.0
C672 C 0.80879 0.4892 0.41891 0.0
C673 C 0.78101 0.48282 0.40682 0.0
C674 C 0.80753 0.49032 0.4417 0.0
C675 C 0.77858 0.48426 0.4529 0.0
C676 C 0.75017 0.48069 0.44075 0.0
C677 C 0.75136 0.48016 0.41776 0.0
C678 C 0.75659 0.48003 0.51359 0.0
C679 C 0.78124 0.45991 0.52152 0.0
C680 C 0.75555 0.48838 0.49129 0.0
C681 C 0.77935 0.47702 0.47672 0.0
C682 C 0.80389 0.45702 0.48482 0.0
C683 C 0.80484 0.44863 0.50686 0.0
H684 H 0.50094 0.72716 0.02795 0.0
H685 H 0.48367 0.82957 0.02532 0.0
H686 H 0.49908 0.72483 -0.01236 0.0
H687 H 0.48069 0.82719 -0.01446 0.0
H688 H 0.53958 0.82163 0.92317 0.0
H689 H 0.52858 0.81792 0.96199 0.0
H690 H 0.46794 0.73548 0.95109 0.0
H691 H 0.47926 0.73906 0.91145 0.0
C692 C 0.49561 0.74887 0.01878 0.0
C693 C 0.49299 0.77864 0.02955 0.0
C694 C 0.49451 0.74756 -0.00421 0.0
C695 C 0.49048 0.77598 -0.01651 0.0
C696 C 0.48461 0.80504 -0.00543 0.0
C697 C 0.4862 0.80641 0.01732 0.0
C698 C 0.52382 0.80266 0.92886 0.0
C699 C 0.51014 0.78075 0.91415 0.0
C700 C 0.51733 0.80069 0.95118 0.0
C701 C 0.49692 0.77678 0.95955 0.0
C702 C 0.48363 0.75426 0.94502 0.0
C703 C 0.49005 0.75636 0.92241 0.0
H704 H 0.24895 0.36064 0.13125 0.0
H705 H 0.20431 0.31524 0.07566 0.0
H706 H 0.28767 0.31676 0.1335 0.0
H707 H 0.24407 0.2714 0.07743 0.0
H708 H 0.31828 0.19014 0.09607 0.0
H709 H 0.27051 0.22519 0.0986 0.0
H710 H 0.3321 0.30736 0.10796 0.0
H711 H 0.37896 0.27301 0.10573 0.0
C712 C 0.24715 0.34094 0.11971 0.0
C713 C 0.22401 0.34154 0.10307 0.0
C714 C 0.26939 0.31587 0.12093 0.0
C715 C 0.26942 0.29106 0.10529 0.0
C716 C 0.24465 0.29022 0.08969 0.0
C717 C 0.22195 0.31529 0.08865 0.0
C718 C 0.32142 0.21568 0.09877 0.0
C719 C 0.35241 0.22875 0.10081 0.0
C720 C 0.29415 0.2357 0.10015 0.0
C721 C 0.29753 0.26895 0.10382 0.0
C722 C 0.32855 0.28177 0.10567 0.0
C723 C 0.35553 0.26201 0.1042 0.0
H724 H 0.68787 0.36468 0.59828 0.0
H725 H 0.76932 0.30249 0.58523 0.0
H726 H 0.65319 0.31838 0.60094 0.0
H727 H 0.73384 0.25527 0.58805 0.0
H728 H 0.63817 0.19343 0.56741 0.0
H729 H 0.68349 0.23135 0.5674 0.0
H730 H 0.64758 0.27302 0.6276 0.0
H731 H 0.60241 0.23616 0.62727 0.0
C732 C 0.69848 0.34105 0.59604 0.0
C733 C 0.73146 0.33732 0.59167 0.0
C734 C 0.67854 0.31442 0.59771 0.0
C735 C 0.69088 0.28316 0.59505 0.0
C736 C 0.72377 0.27914 0.59026 0.0
C737 C 0.74402 0.30608 0.58873 0.0
C738 C 0.64061 0.21016 0.5809 0.0
C739 C 0.6166 0.21236 0.59713 0.0
C740 C 0.66649 0.23178 0.58091 0.0
C741 C 0.66861 0.25554 0.59726 0.0
C742 C 0.64617 0.25544 0.61454 0.0
C743 C 0.62035 0.2343 0.61437 0.0
H744 H 0.77286 0.6522 0.08791 0.0
H745 H 0.69091 0.58948 0.09543 0.0
H746 H 0.73702 0.69929 0.09201 0.0
H747 H 0.65593 0.63564 0.09932 0.0
H748 H 0.60329 0.71498 0.12853 0.0
H749 H 0.64832 0.6775 0.12801 0.0
H750 H 0.68819 0.72639 0.07163 0.0
H751 H 0.64305 0.76494 0.0726 0.0
C752 C 0.74736 0.64846 0.09041 0.0
C753 C 0.73478 0.6171 0.09149 0.0
C754 C 0.72692 0.67533 0.0927 0.0
C755 C 0.6938 0.67109 0.09636 0.0
C756 C 0.68143 0.63974 0.09703 0.0
C757 C 0.70156 0.6132 0.09464 0.0
C758 C 0.62203 0.71821 0.11632 0.0
C759 C 0.6195 0.74245 0.10038 0.0
C760 C 0.64777 0.69673 0.11599 0.0
C761 C 0.67133 0.69857 0.09946 0.0
C762 C 0.67032 0.72443 0.08454 0.0
C763 C 0.64454 0.74639 0.08506 0.0
H764 H 0.26443 0.57978 0.58479 0.0
H765 H 0.17904 0.63611 0.59849 0.0
H766 H 0.29727 0.62724 0.58895 0.0
H767 H 0.21268 0.68439 0.60276 0.0
H768 H 0.29723 0.76196 0.58211 0.0
H769 H 0.25496 0.72082 0.57963 0.0
H770 H 0.3088 0.65972 0.62356 0.0
H771 H 0.35068 0.70005 0.62581 0.0
C772 C 0.25257 0.60238 0.58862 0.0
C773 C 0.21911 0.60405 0.59161 0.0
C774 C 0.27149 0.62959 0.59107 0.0
C775 C 0.25757 0.65933 0.5966 0.0
C776 C 0.22395 0.66164 0.59859 0.0
C777 C 0.2048 0.63409 0.59618 0.0
C778 C 0.29952 0.74003 0.5916 0.0
C779 C 0.32746 0.7339 0.60383 0.0
C780 C 0.27539 0.71657 0.5902 0.0
C781 C 0.27902 0.6869 0.60106 0.0
C782 C 0.30572 0.68212 0.61466 0.0
C783 C 0.32968 0.70524 0.61596 0.0
H784 H 0.32074 0.77931 0.34287 0.0
H785 H 0.3787 0.69468 0.35534 0.0
H786 H 0.27333 0.74467 0.33795 0.0
H787 H 0.33214 0.66088 0.35057 0.0
H788 H 0.26087 0.60598 0.31374 0.0
H789 H 0.30029 0.6487 0.3163 0.0
H790 H 0.23745 0.70154 0.35996 0.0
H791 H 0.19722 0.65847 0.35711 0.0
C792 C 0.3233 0.75351 0.34478 0.0
C793 C 0.35356 0.73972 0.34919 0.0
C794 C 0.29624 0.73376 0.34198 0.0
C795 C 0.29927 0.70008 0.34343 0.0
C796 C 0.32922 0.68669 0.34882 0.0
C797 C 0.35593 0.70617 0.35164 0.0
C798 C 0.2551 0.62694 0.32358 0.0
C799 C 0.22621 0.62866 0.33552 0.0
C800 C 0.27772 0.65138 0.32507 0.0
C801 C 0.27221 0.67807 0.33871 0.0
C802 C 0.24229 0.68116 0.34937 0.0
C803 C 0.21935 0.65656 0.34775 0.0
H804 H 0.37132 0.27292 0.83247 0.0
H805 H 0.31045 0.19235 0.84903 0.0
H806 H 0.3248 0.30766 0.83029 0.0
H807 H 0.26295 0.22777 0.84652 0.0
H808 H 0.19999 0.32119 0.86796 0.0
H809 H 0.23882 0.27639 0.86648 0.0
H810 H 0.27862 0.3155 0.80659 0.0
H811 H 0.24102 0.36036 0.80858 0.0
C812 C 0.34789 0.26249 0.83549 0.0
C813 C 0.34463 0.2298 0.84089 0.0
C814 C 0.32109 0.28245 0.83406 0.0
C815 C 0.29009 0.27041 0.83792 0.0
C816 C 0.28657 0.23769 0.84342 0.0
C817 C 0.31367 0.21744 0.84476 0.0
C818 C 0.21661 0.31963 0.85427 0.0
C819 C 0.21803 0.34442 0.83861 0.0
C820 C 0.23875 0.29402 0.85338 0.0
C821 C 0.26224 0.29286 0.83668 0.0
C822 C 0.2614 0.31617 0.81998 0.0
C823 C 0.23981 0.3418 0.82106 0.0
H824 H 0.65842 0.20429 0.36435 0.0
H825 H 0.61426 0.24874 0.30795 0.0
H826 H 0.701 0.2451 0.36341 0.0
H827 H 0.65679 0.28864 0.3067 0.0
H828 H 0.69403 0.3806 0.33692 0.0
H829 H 0.66217 0.33236 0.33438 0.0
H830 H 0.74749 0.27384 0.34167 0.0
H831 H 0.78013 0.32304 0.34435 0.0
C832 C 0.65844 0.22208 0.35135 0.0
C833 C 0.6328 0.22378 0.33646 0.0
C834 C 0.68277 0.24537 0.3508 0.0
C835 C 0.68176 0.27042 0.33527 0.0
C836 C 0.65778 0.27005 0.31916 0.0
C837 C 0.63348 0.24715 0.31983 0.0
C838 C 0.70627 0.35758 0.33797 0.0
C839 C 0.73973 0.35574 0.34069 0.0
C840 C 0.68793 0.32984 0.33635 0.0
C841 C 0.70239 0.2993 0.33741 0.0
C842 C 0.73578 0.29713 0.34068 0.0
C843 C 0.7544 0.32521 0.34217 0.0
H844 H 0.68821 0.58578 0.83926 0.0
H845 H 0.77386 0.64421 0.84058 0.0
H846 H 0.65532 0.63365 0.83649 0.0
H847 H 0.7402 0.69299 0.83761 0.0
H848 H 0.65235 0.76475 0.86022 0.0
H849 H 0.69527 0.72378 0.85974 0.0
H850 H 0.6469 0.67453 0.80718 0.0
H851 H 0.60409 0.71452 0.80809 0.0
C852 C 0.70012 0.60891 0.83892 0.0
C853 C 0.73374 0.61111 0.83995 0.0
C854 C 0.68118 0.63642 0.83719 0.0
C855 C 0.69521 0.66705 0.83638 0.0
C856 C 0.72881 0.66962 0.83807 0.0
C857 C 0.748 0.64177 0.83973 0.0
C858 C 0.65151 0.7456 0.84821 0.0
C859 C 0.62473 0.74238 0.83445 0.0
C860 C 0.67601 0.72222 0.84792 0.0
C861 C 0.67398 0.69561 0.83376 0.0
C862 C 0.6487 0.69434 0.81863 0.0
C863 C 0.62424 0.7173 0.8191 0.0
loop_
_geom_bond_atom_site_label_1
_geom_bond_atom_site_label_2
_geom_bond_distance
_geom_bond_site_symmetry_2
_ccdc_geom_bond_type
C0 O1 1.306 . S
C0 O3 1.160 . S
O1 C0 1.306 . S
O1 Cd2 2.228 . S
Cd2 O1 2.228 . S
Cd2 O6 2.273 . S
Cd2 O10 2.277 . S
O3 C0 1.160 . S
O3 Cd4 2.203 . S
Cd4 O3 2.203 . S
Cd4 O6 2.411 . S
Cd4 O7 2.333 . S
Cd4 O8 2.352 . S
Cd4 O12 2.277 . S
Cd4 O13 2.356 . S
C5 O10 1.209 . S
C5 O12 1.226 . S
O6 Cd2 2.273 . S
O6 Cd4 2.411 . S
O6 C9 1.320 . S
O7 Cd4 2.333 . S
O7 C9 1.214 . S
O8 Cd4 2.352 . S
O8 C11 1.258 . S
C9 O6 1.320 . S
C9 O7 1.214 . S
O10 Cd2 2.277 . S
O10 C5 1.209 . S
C11 O8 1.258 . S
C11 O13 1.282 . S
O12 Cd4 2.277 . S
O12 C5 1.226 . S
O13 Cd4 2.356 . S
O13 C11 1.282 . S
C14 O15 1.306 . S
C14 O17 1.160 . S
O15 C14 1.306 . S
O15 Cd16 2.228 . S
Cd16 O15 2.228 . S
Cd16 O20 2.273 . S
Cd16 O24 2.277 . S
O17 C14 1.160 . S
O17 Cd18 2.203 . S
Cd18 O17 2.203 . S
Cd18 O20 2.411 . S
Cd18 O21 2.333 . S
Cd18 O22 2.352 . S
Cd18 O26 2.277 . S
Cd18 O27 2.356 . S
C19 O24 1.209 . S
C19 O26 1.226 . S
O20 Cd16 2.273 . S
O20 Cd18 2.411 . S
O20 C23 1.320 . S
O21 Cd18 2.333 . S
O21 C23 1.214 . S
O22 Cd18 2.352 . S
O22 C25 1.258 . S
C23 O20 1.320 . S
C23 O21 1.214 . S
O24 Cd16 2.277 . S
O24 C19 1.209 . S
C25 O22 1.258 . S
C25 O27 1.282 . S
O26 Cd18 2.277 . S
O26 C19 1.226 . S
O27 Cd18 2.356 . S
O27 C25 1.282 . S
C28 O29 1.306 . S
C28 O31 1.160 . S
O29 C28 1.306 . S
O29 Cd30 2.228 . S
Cd30 O29 2.228 . S
Cd30 O34 2.273 . S
Cd30 O38 2.277 . S
O31 C28 1.160 . S
O31 Cd32 2.203 . S
Cd32 O31 2.203 . S
Cd32 O34 2.411 . S
Cd32 O35 2.333 . S
Cd32 O36 2.352 . S
Cd32 O40 2.277 . S
Cd32 O41 2.356 . S
C33 O38 1.209 . S
C33 O40 1.226 . S
O34 Cd30 2.273 . S
O34 Cd32 2.411 . S
O34 C37 1.320 . S
O35 Cd32 2.333 . S
O35 C37 1.214 . S
O36 Cd32 2.352 . S
O36 C39 1.258 . S
C37 O34 1.320 . S
C37 O35 1.214 . S
O38 Cd30 2.277 . S
O38 C33 1.209 . S
C39 O36 1.258 . S
C39 O41 1.282 . S
O40 Cd32 2.277 . S
O40 C33 1.226 . S
O41 Cd32 2.356 . S
O41 C39 1.282 . S
C42 O43 1.306 . S
C42 O45 1.160 . S
O43 C42 1.306 . S
O43 Cd44 2.228 . S
Cd44 O43 2.228 . S
Cd44 O48 2.273 . S
Cd44 O52 2.277 . S
O45 C42 1.160 . S
O45 Cd46 2.203 . S
Cd46 O45 2.203 . S
Cd46 O48 2.411 . S
Cd46 O49 2.333 . S
Cd46 O50 2.352 . S
Cd46 O54 2.277 . S
Cd46 O55 2.356 . S
C47 O52 1.209 . S
C47 O54 1.226 . S
O48 Cd44 2.273 . S
O48 Cd46 2.411 . S
O48 C51 1.320 . S
O49 Cd46 2.333 . S
O49 C51 1.214 . S
O50 Cd46 2.352 . S
O50 C53 1.258 . S
C51 O48 1.320 . S
C51 O49 1.214 . S
O52 Cd44 2.277 . S
O52 C47 1.209 . S
C53 O50 1.258 . S
C53 O55 1.282 . S
O54 Cd46 2.277 . S
O54 C47 1.226 . S
O55 Cd46 2.356 . S
O55 C53 1.282 . S
C56 O57 1.306 . S
C56 O59 1.160 . S
O57 C56 1.306 . S
O57 Cd58 2.228 . S
Cd58 O57 2.228 . S
Cd58 O62 2.273 . S
Cd58 O66 2.277 . S
O59 C56 1.160 . S
O59 Cd60 2.203 . S
Cd60 O59 2.203 . S
Cd60 O62 2.411 . S
Cd60 O63 2.333 . S
Cd60 O64 2.352 . S
Cd60 O68 2.277 . S
Cd60 O69 2.356 . S
C61 O66 1.209 . S
C61 O68 1.226 . S
O62 Cd58 2.273 . S
O62 Cd60 2.411 . S
O62 C65 1.320 . S
O63 Cd60 2.333 . S
O63 C65 1.214 . S
O64 Cd60 2.352 . S
O64 C67 1.258 . S
C65 O62 1.320 . S
C65 O63 1.214 . S
O66 Cd58 2.277 . S
O66 C61 1.209 . S
C67 O64 1.258 . S
C67 O69 1.282 . S
O68 Cd60 2.277 . S
O68 C61 1.226 . S
O69 Cd60 2.356 . S
O69 C67 1.282 . S
C70 O71 1.306 . S
C70 O73 1.160 . S
O71 C70 1.306 . S
O71 Cd72 2.228 . S
Cd72 O71 2.228 . S
Cd72 O76 2.273 . S
Cd72 O80 2.277 . S
O73 C70 1.160 . S
O73 Cd74 2.203 . S
Cd74 O73 2.203 . S
Cd74 O76 2.411 . S
Cd74 O77 2.333 . S
Cd74 O78 2.352 . S
Cd74 O82 2.277 . S
Cd74 O83 2.356 . S
C75 O80 1.209 . S
C75 O82 1.226 . S
O76 Cd72 2.273 . S
O76 Cd74 2.411 . S
O76 C79 1.320 . S
O77 Cd74 2.333 . S
O77 C79 1.214 . S
O78 Cd74 2.352 . S
O78 C81 1.258 . S
C79 O76 1.320 . S
C79 O77 1.214 . S
O80 Cd72 2.277 . S
O80 C75 1.209 . S
C81 O78 1.258 . S
C81 O83 1.282 . S
O82 Cd74 2.277 . S
O82 C75 1.226 . S
O83 Cd74 2.356 . S
O83 C81 1.282 . S
C84 O85 1.306 . S
C84 O87 1.160 . S
O85 C84 1.306 . S
O85 Cd86 2.228 . S
Cd86 O85 2.228 . S
Cd86 O90 2.273 . S
Cd86 O94 2.277 . S
O87 C84 1.160 . S
O87 Cd88 2.203 . S
Cd88 O87 2.203 . S
Cd88 O90 2.411 . S
Cd88 O91 2.333 . S
Cd88 O92 2.352 . S
Cd88 O96 2.277 . S
Cd88 O97 2.356 . S
C89 O94 1.209 . S
C89 O96 1.226 . S
O90 Cd86 2.273 . S
O90 Cd88 2.411 . S
O90 C93 1.320 . S
O91 Cd88 2.333 . S
O91 C93 1.214 . S
O92 Cd88 2.352 . S
O92 C95 1.258 . S
C93 O90 1.320 . S
C93 O91 1.214 . S
O94 Cd86 2.277 . S
O94 C89 1.209 . S
C95 O92 1.258 . S
C95 O97 1.282 . S
O96 Cd88 2.277 . S
O96 C89 1.226 . S
O97 Cd88 2.356 . S
O97 C95 1.282 . S
C98 O99 1.306 . S
C98 O101 1.160 . S
O99 C98 1.306 . S
O99 Cd100 2.228 . S
Cd100 O99 2.228 . S
Cd100 O104 2.273 . S
Cd100 O108 2.277 . S
O101 C98 1.160 . S
O101 Cd102 2.203 . S
Cd102 O101 2.203 . S
Cd102 O104 2.411 . S
Cd102 O105 2.333 . S
Cd102 O106 2.352 . S
Cd102 O110 2.277 . S
Cd102 O111 2.356 . S
C103 O108 1.209 . S
C103 O110 1.226 . S
O104 Cd100 2.273 . S
O104 Cd102 2.411 . S
O104 C107 1.320 . S
O105 Cd102 2.333 . S
O105 C107 1.214 . S
O106 Cd102 2.352 . S
O106 C109 1.258 . S
C107 O104 1.320 . S
C107 O105 1.214 . S
O108 Cd100 2.277 . S
O108 C103 1.209 . S
C109 O106 1.258 . S
C109 O111 1.282 . S
O110 Cd102 2.277 . S
O110 C103 1.226 . S
O111 Cd102 2.356 . S
O111 C109 1.282 . S
C112 O113 1.306 . S
C112 O115 1.160 . S
O113 C112 1.306 . S
O113 Cd114 2.228 . S
Cd114 O113 2.228 . S
Cd114 O118 2.273 . S
Cd114 O122 2.277 . S
O115 C112 1.160 . S
O115 Cd116 2.203 . S
Cd116 O115 2.203 . S
Cd116 O118 2.411 . S
Cd116 O119 2.333 . S
Cd116 O120 2.352 . S
Cd116 O124 2.277 . S
Cd116 O125 2.356 . S
C117 O122 1.209 . S
C117 O124 1.226 . S
O118 Cd114 2.273 . S
O118 Cd116 2.411 . S
O118 C121 1.320 . S
O119 Cd116 2.333 . S
O119 C121 1.214 . S
O120 Cd116 2.352 . S
O120 C123 1.258 . S
C121 O118 1.320 . S
C121 O119 1.214 . S
O122 Cd114 2.277 . S
O122 C117 1.209 . S
C123 O120 1.258 . S
C123 O125 1.282 . S
O124 Cd116 2.277 . S
O124 C117 1.226 . S
O125 Cd116 2.356 . S
O125 C123 1.282 . S
C126 O127 1.306 . S
C126 O129 1.160 . S
O127 C126 1.306 . S
O127 Cd128 2.228 . S
Cd128 O127 2.228 . S
Cd128 O132 2.273 . S
Cd128 O136 2.277 . S
O129 C126 1.160 . S
O129 Cd130 2.203 . S
Cd130 O129 2.203 . S
Cd130 O132 2.411 . S
Cd130 O133 2.333 . S
Cd130 O134 2.352 . S
Cd130 O138 2.277 . S
Cd130 O139 2.356 . S
C131 O136 1.209 . S
C131 O138 1.226 . S
O132 Cd128 2.273 . S
O132 Cd130 2.411 . S
O132 C135 1.320 . S
O133 Cd130 2.333 . S
O133 C135 1.214 . S
O134 Cd130 2.352 . S
O134 C137 1.258 . S
C135 O132 1.320 . S
C135 O133 1.214 . S
O136 Cd128 2.277 . S
O136 C131 1.209 . S
C137 O134 1.258 . S
C137 O139 1.282 . S
O138 Cd130 2.277 . S
O138 C131 1.226 . S
O139 Cd130 2.356 . S
O139 C137 1.282 . S
C140 O141 1.306 . S
C140 O143 1.160 . S
O141 C140 1.306 . S
O141 Cd142 2.228 . S
Cd142 O141 2.228 . S
Cd142 O146 2.273 . S
Cd142 O150 2.277 . S
O143 C140 1.160 . S
O143 Cd144 2.203 . S
Cd144 O143 2.203 . S
Cd144 O146 2.411 . S
Cd144 O147 2.333 . S
Cd144 O148 2.352 . S
Cd144 O152 2.277 . S
Cd144 O153 2.356 . S
C145 O150 1.209 . S
C145 O152 1.226 . S
O146 Cd142 2.273 . S
O146 Cd144 2.411 . S
O146 C149 1.320 . S
O147 Cd144 2.333 . S
O147 C149 1.214 . S
O148 Cd144 2.352 . S
O148 C151 1.258 . S
C149 O146 1.320 . S
C149 O147 1.214 . S
O150 Cd142 2.277 . S
O150 C145 1.209 . S
C151 O148 1.258 . S
C151 O153 1.282 . S
O152 Cd144 2.277 . S
O152 C145 1.226 . S
O153 Cd144 2.356 . S
O153 C151 1.282 . S
C154 O155 1.306 . S
C154 O157 1.160 . S
O155 C154 1.306 . S
O155 Cd156 2.228 . S
Cd156 O155 2.228 . S
Cd156 O160 2.273 . S
Cd156 O164 2.277 . S
O157 C154 1.160 . S
O157 Cd158 2.203 . S
Cd158 O157 2.203 . S
Cd158 O160 2.411 . S
Cd158 O161 2.333 . S
Cd158 O162 2.352 . S
Cd158 O166 2.277 . S
Cd158 O167 2.356 . S
C159 O164 1.209 . S
C159 O166 1.226 . S
O160 Cd156 2.273 . S
O160 Cd158 2.411 . S
O160 C163 1.320 . S
O161 Cd158 2.333 . S
O161 C163 1.214 . S
O162 Cd158 2.352 . S
O162 C165 1.258 . S
C163 O160 1.320 . S
C163 O161 1.214 . S
O164 Cd156 2.277 . S
O164 C159 1.209 . S
C165 O162 1.258 . S
C165 O167 1.282 . S
O166 Cd158 2.277 . S
O166 C159 1.226 . S
O167 Cd158 2.356 . S
O167 C165 1.282 . S
C168 O169 1.306 . S
C168 O171 1.160 . S
O169 C168 1.306 . S
O169 Cd170 2.228 . S
Cd170 O169 2.228 . S
Cd170 O174 2.273 . S
Cd170 O178 2.277 . S
O171 C168 1.160 . S
O171 Cd172 2.203 . S
Cd172 O171 2.203 . S
Cd172 O174 2.411 . S
Cd172 O175 2.333 . S
Cd172 O176 2.352 . S
Cd172 O180 2.277 . S
Cd172 O181 2.356 . S
C173 O178 1.209 . S
C173 O180 1.226 . S
O174 Cd170 2.273 . S
O174 Cd172 2.411 . S
O174 C177 1.320 . S
O175 Cd172 2.333 . S
O175 C177 1.214 . S
O176 Cd172 2.352 . S
O176 C179 1.258 . S
C177 O174 1.320 . S
C177 O175 1.214 . S
O178 Cd170 2.277 . S
O178 C173 1.209 . S
C179 O176 1.258 . S
C179 O181 1.282 . S
O180 Cd172 2.277 . S
O180 C173 1.226 . S
O181 Cd172 2.356 . S
O181 C179 1.282 . S
C182 O183 1.306 . S
C182 O185 1.160 . S
O183 C182 1.306 . S
O183 Cd184 2.228 . S
Cd184 O183 2.228 . S
Cd184 O188 2.273 . S
Cd184 O192 2.277 . S
O185 C182 1.160 . S
O185 Cd186 2.203 . S
Cd186 O185 2.203 . S
Cd186 O188 2.411 . S
Cd186 O189 2.333 . S
Cd186 O190 2.352 . S
Cd186 O194 2.277 . S
Cd186 O195 2.356 . S
C187 O192 1.209 . S
C187 O194 1.226 . S
O188 Cd184 2.273 . S
O188 Cd186 2.411 . S
O188 C191 1.320 . S
O189 Cd186 2.333 . S
O189 C191 1.214 . S
O190 Cd186 2.352 . S
O190 C193 1.258 . S
C191 O188 1.320 . S
C191 O189 1.214 . S
O192 Cd184 2.277 . S
O192 C187 1.209 . S
C193 O190 1.258 . S
C193 O195 1.282 . S
O194 Cd186 2.277 . S
O194 C187 1.226 . S
O195 Cd186 2.356 . S
O195 C193 1.282 . S
C196 O197 1.306 . S
C196 O199 1.160 . S
O197 C196 1.306 . S
O197 Cd198 2.228 . S
Cd198 O197 2.228 . S
Cd198 O202 2.273 . S
Cd198 O206 2.277 . S
O199 C196 1.160 . S
O199 Cd200 2.203 . S
Cd200 O199 2.203 . S
Cd200 O202 2.411 . S
Cd200 O203 2.333 . S
Cd200 O204 2.352 . S
Cd200 O208 2.277 . S
Cd200 O209 2.356 . S
C201 O206 1.209 . S
C201 O208 1.226 . S
O202 Cd198 2.273 . S
O202 Cd200 2.411 . S
O202 C205 1.320 . S
O203 Cd200 2.333 . S
O203 C205 1.214 . S
O204 Cd200 2.352 . S
O204 C207 1.258 . S
C205 O202 1.320 . S
C205 O203 1.214 . S
O206 Cd198 2.277 . S
O206 C201 1.209 . S
C207 O204 1.258 . S
C207 O209 1.282 . S
O208 Cd200 2.277 . S
O208 C201 1.226 . S
O209 Cd200 2.356 . S
O209 C207 1.282 . S
C210 O211 1.306 . S
C210 O213 1.160 . S
O211 C210 1.306 . S
O211 Cd212 2.228 . S
Cd212 O211 2.228 . S
Cd212 O216 2.273 . S
Cd212 O220 2.277 . S
O213 C210 1.160 . S
O213 Cd214 2.203 . S
Cd214 O213 2.203 . S
Cd214 O216 2.411 . S
Cd214 O217 2.333 . S
Cd214 O218 2.352 . S
Cd214 O222 2.277 . S
Cd214 O223 2.356 . S
C215 O220 1.209 . S
C215 O222 1.226 . S
O216 Cd212 2.273 . S
O216 Cd214 2.411 . S
O216 C219 1.320 . S
O217 Cd214 2.333 . S
O217 C219 1.214 . S
O218 Cd214 2.352 . S
O218 C221 1.258 . S
C219 O216 1.320 . S
C219 O217 1.214 . S
O220 Cd212 2.277 . S
O220 C215 1.209 . S
C221 O218 1.258 . S
C221 O223 1.282 . S
O222 Cd214 2.277 . S
O222 C215 1.226 . S
O223 Cd214 2.356 . S
O223 C221 1.282 . S
H224 C232 0.950 . S
H225 C237 0.950 . S
H226 C234 0.950 . S
H227 C236 0.950 . S
H228 C238 0.950 . S
H229 C240 0.950 . S
H230 C242 0.950 . S
H231 C243 0.950 . S
C232 H224 0.950 . S
C232 C233 1.386 . S
C232 C234 1.391 . S
C233 C232 1.386 . S
C233 C237 1.393 . S
C234 H226 0.950 . S
C234 C232 1.391 . S
C234 C235 1.400 . S
C235 C234 1.400 . S
C235 C236 1.398 . S
C235 C241 1.491 1_455 S
C236 H227 0.950 . S
C236 C235 1.398 . S
C236 C237 1.391 . S
C237 H225 0.950 . S
C237 C233 1.393 . S
C237 C236 1.391 . S
C238 H228 0.950 . S
C238 C239 1.386 . S
C238 C240 1.391 . S
C239 C238 1.386 . S
C239 C243 1.393 . S
C240 H229 0.950 . S
C240 C238 1.391 . S
C240 C241 1.400 . S
C241 C235 1.491 1_655 S
C241 C240 1.400 . S
C241 C242 1.398 . S
C242 H230 0.950 . S
C242 C241 1.398 . S
C242 C243 1.391 . S
C243 H231 0.950 . S
C243 C239 1.393 . S
C243 C242 1.391 . S
H244 C252 0.950 . S
H245 C257 0.950 . S
H246 C254 0.950 . S
H247 C256 0.950 . S
H248 C258 0.950 . S
H249 C260 0.950 . S
H250 C262 0.950 . S
H251 C263 0.950 . S
C252 H244 0.950 . S
C252 C253 1.386 . S
C252 C254 1.391 . S
C253 C252 1.386 . S
C253 C257 1.393 . S
C254 H246 0.950 . S
C254 C252 1.391 . S
C254 C255 1.400 . S
C255 C254 1.400 . S
C255 C256 1.398 . S
C255 C261 1.491 1_565 S
C256 H247 0.950 . S
C256 C255 1.398 . S
C256 C257 1.391 . S
C257 H245 0.950 . S
C257 C253 1.393 . S
C257 C256 1.391 . S
C258 H248 0.950 . S
C258 C259 1.386 . S
C258 C260 1.391 . S
C259 C258 1.386 . S
C259 C263 1.393 . S
C260 H249 0.950 . S
C260 C258 1.391 . S
C260 C261 1.400 . S
C261 C255 1.491 1_545 S
C261 C260 1.400 . S
C261 C262 1.398 . S
C262 H250 0.950 . S
C262 C261 1.398 . S
C262 C263 1.391 . S
C263 H251 0.950 . S
C263 C259 1.393 . S
C263 C262 1.391 . S
H264 C272 0.950 . S
H265 C277 0.950 . S
H266 C274 0.950 . S
H267 C276 0.950 . S
H268 C278 0.950 . S
H269 C280 0.950 . S
H270 C282 0.950 . S
H271 C283 0.950 . S
C272 H264 0.950 . S
C272 C273 1.386 . S
C272 C274 1.391 . S
C273 C272 1.386 . S
C273 C277 1.393 . S
C274 H266 0.950 . S
C274 C272 1.391 . S
C274 C275 1.400 . S
C275 C274 1.400 . S
C275 C276 1.398 . S
C275 C281 1.491 1_455 S
C276 H267 0.950 . S
C276 C275 1.398 . S
C276 C277 1.391 . S
C277 H265 0.950 . S
C277 C273 1.393 . S
C277 C276 1.391 . S
C278 H268 0.950 . S
C278 C279 1.386 . S
C278 C280 1.391 . S
C279 C278 1.386 . S
C279 C283 1.393 . S
C280 H269 0.950 . S
C280 C278 1.391 . S
C280 C281 1.400 . S
C281 C275 1.491 1_655 S
C281 C280 1.400 . S
C281 C282 1.398 . S
C282 H270 0.950 . S
C282 C281 1.398 . S
C282 C283 1.391 . S
C283 H271 0.950 . S
C283 C279 1.393 . S
C283 C282 1.391 . S
H284 C292 0.950 . S
H285 C297 0.950 . S
H286 C294 0.950 . S
H287 C296 0.950 . S
H288 C298 0.950 . S
H289 C300 0.950 . S
H290 C302 0.950 . S
H291 C303 0.950 . S
C292 H284 0.950 . S
C292 C293 1.386 . S
C292 C294 1.391 . S
C293 C292 1.386 . S
C293 C297 1.393 . S
C294 H286 0.950 . S
C294 C292 1.391 . S
C294 C295 1.400 . S
C295 C294 1.400 . S
C295 C296 1.398 . S
C295 C301 1.491 1_565 S
C296 H287 0.950 . S
C296 C295 1.398 . S
C296 C297 1.391 . S
C297 H285 0.950 . S
C297 C293 1.393 . S
C297 C296 1.391 . S
C298 H288 0.950 . S
C298 C299 1.386 . S
C298 C300 1.391 . S
C299 C298 1.386 . S
C299 C303 1.393 . S
C300 H289 0.950 . S
C300 C298 1.391 . S
C300 C301 1.400 . S
C301 C295 1.491 1_545 S
C301 C300 1.400 . S
C301 C302 1.398 . S
C302 H290 0.950 . S
C302 C301 1.398 . S
C302 C303 1.391 . S
C303 H291 0.950 . S
C303 C299 1.393 . S
C303 C302 1.391 . S
H304 C312 0.950 . S
H305 C317 0.950 . S
H306 C314 0.950 . S
H307 C316 0.950 . S
H308 C318 0.950 . S
H309 C320 0.950 . S
H310 C322 0.950 . S
H311 C323 0.950 . S
C312 H304 0.950 . S
C312 C313 1.386 . S
C312 C314 1.391 . S
C313 C312 1.386 . S
C313 C317 1.393 . S
C314 H306 0.950 . S
C314 C312 1.391 . S
C314 C315 1.400 . S
C315 C314 1.400 . S
C315 C316 1.398 . S
C315 C321 1.491 1_655 S
C316 H307 0.950 . S
C316 C315 1.398 . S
C316 C317 1.391 . S
C317 H305 0.950 . S
C317 C313 1.393 . S
C317 C316 1.391 . S
C318 H308 0.950 . S
C318 C319 1.386 . S
C318 C320 1.391 . S
C319 C318 1.386 . S
C319 C323 1.393 . S
C320 H309 0.950 . S
C320 C318 1.391 . S
C320 C321 1.400 . S
C321 C315 1.491 1_455 S
C321 C320 1.400 . S
C321 C322 1.398 . S
C322 H310 0.950 . S
C322 C321 1.398 . S
C322 C323 1.391 . S
C323 H311 0.950 . S
C323 C319 1.393 . S
C323 C322 1.391 . S
H324 C332 0.950 . S
H325 C337 0.950 . S
H326 C334 0.950 . S
H327 C336 0.950 . S
H328 C338 0.950 . S
H329 C340 0.950 . S
H330 C342 0.950 . S
H331 C343 0.950 . S
C332 H324 0.950 . S
C332 C333 1.386 . S
C332 C334 1.391 . S
C333 C332 1.386 . S
C333 C337 1.393 . S
C334 H326 0.950 . S
C334 C332 1.391 . S
C334 C335 1.400 . S
C335 C334 1.400 . S
C335 C336 1.398 . S
C335 C341 1.491 1_545 S
C336 H327 0.950 . S
C336 C335 1.398 . S
C336 C337 1.391 . S
C337 H325 0.950 . S
C337 C333 1.393 . S
C337 C336 1.391 . S
C338 H328 0.950 . S
C338 C339 1.386 . S
C338 C340 1.391 . S
C339 C338 1.386 . S
C339 C343 1.393 . S
C340 H329 0.950 . S
C340 C338 1.391 . S
C340 C341 1.400 . S
C341 C335 1.491 1_565 S
C341 C340 1.400 . S
C341 C342 1.398 . S
C342 H330 0.950 . S
C342 C341 1.398 . S
C342 C343 1.391 . S
C343 H331 0.950 . S
C343 C339 1.393 . S
C343 C342 1.391 . S
H344 C352 0.950 . S
H345 C357 0.950 . S
H346 C354 0.950 . S
H347 C356 0.950 . S
H348 C358 0.950 . S
H349 C360 0.950 . S
H350 C362 0.950 . S
H351 C363 0.950 . S
C352 H344 0.950 . S
C352 C353 1.386 . S
C352 C354 1.391 . S
C353 C352 1.386 . S
C353 C357 1.393 . S
C354 H346 0.950 . S
C354 C352 1.391 . S
C354 C355 1.400 . S
C355 C354 1.400 . S
C355 C356 1.398 . S
C355 C361 1.491 1_655 S
C356 H347 0.950 . S
C356 C355 1.398 . S
C356 C357 1.391 . S
C357 H345 0.950 . S
C357 C353 1.393 . S
C357 C356 1.391 . S
C358 H348 0.950 . S
C358 C359 1.386 . S
C358 C360 1.391 . S
C359 C358 1.386 . S
C359 C363 1.393 . S
C360 H349 0.950 . S
C360 C358 1.391 . S
C360 C361 1.400 . S
C361 C355 1.491 1_455 S
C361 C360 1.400 . S
C361 C362 1.398 . S
C362 H350 0.950 . S
C362 C361 1.398 . S
C362 C363 1.391 . S
C363 H351 0.950 . S
C363 C359 1.393 . S
C363 C362 1.391 . S
H364 C372 0.950 . S
H365 C377 0.950 . S
H366 C374 0.950 . S
H367 C376 0.950 . S
H368 C378 0.950 . S
H369 C380 0.950 . S
H370 C382 0.950 . S
H371 C383 0.950 . S
C372 H364 0.950 . S
C372 C373 1.386 . S
C372 C374 1.391 . S
C373 C372 1.386 . S
C373 C377 1.393 . S
C374 H366 0.950 . S
C374 C372 1.391 . S
C374 C375 1.400 . S
C375 C374 1.400 . S
C375 C376 1.398 . S
C375 C381 1.491 1_545 S
C376 H367 0.950 . S
C376 C375 1.398 . S
C376 C377 1.391 . S
C377 H365 0.950 . S
C377 C373 1.393 . S
C377 C376 1.391 . S
C378 H368 0.950 . S
C378 C379 1.386 . S
C378 C380 1.391 . S
C379 C378 1.386 . S
C379 C383 1.393 . S
C380 H369 0.950 . S
C380 C378 1.391 . S
C380 C381 1.400 . S
C381 C375 1.491 1_565 S
C381 C380 1.400 . S
C381 C382 1.398 . S
C382 H370 0.950 . S
C382 C381 1.398 . S
C382 C383 1.391 . S
C383 H371 0.950 . S
C383 C379 1.393 . S
C383 C382 1.391 . S
H384 C392 0.950 . S
H385 C397 0.950 . S
H386 C394 0.950 . S
H387 C396 0.950 . S
H388 C398 0.950 . S
H389 C400 0.950 . S
H390 C402 0.950 . S
H391 C403 0.950 . S
C392 H384 0.950 . S
C392 C393 1.386 . S
C392 C394 1.391 . S
C393 C392 1.386 . S
C393 C397 1.393 . S
C394 H386 0.950 . S
C394 C392 1.391 . S
C394 C395 1.400 . S
C395 C394 1.400 . S
C395 C396 1.398 . S
C395 C401 1.491 . S
C396 H387 0.950 . S
C396 C395 1.398 . S
C396 C397 1.391 . S
C397 H385 0.950 . S
C397 C393 1.393 . S
C397 C396 1.391 . S
C398 H388 0.950 . S
C398 C399 1.386 . S
C398 C400 1.391 . S
C399 C398 1.386 . S
C399 C403 1.393 . S
C400 H389 0.950 . S
C400 C398 1.391 . S
C400 C401 1.400 . S
C401 C395 1.491 . S
C401 C400 1.400 . S
C401 C402 1.398 . S
C402 H390 0.950 . S
C402 C401 1.398 . S
C402 C403 1.391 . S
C403 H391 0.950 . S
C403 C399 1.393 . S
C403 C402 1.391 . S
H404 C412 0.950 . S
H405 C417 0.950 . S
H406 C414 0.950 . S
H407 C416 0.950 . S
H408 C418 0.950 . S
H409 C420 0.950 . S
H410 C422 0.950 . S
H411 C423 0.950 . S
C412 H404 0.950 . S
C412 C413 1.386 . S
C412 C414 1.391 . S
C413 C412 1.386 . S
C413 C417 1.393 . S
C414 H406 0.950 . S
C414 C412 1.391 . S
C414 C415 1.400 . S
C415 C414 1.400 . S
C415 C416 1.398 . S
C415 C421 1.491 . S
C416 H407 0.950 . S
C416 C415 1.398 . S
C416 C417 1.391 . S
C417 H405 0.950 . S
C417 C413 1.393 . S
C417 C416 1.391 . S
C418 H408 0.950 . S
C418 C419 1.386 . S
C418 C420 1.391 . S
C419 C418 1.386 . S
C419 C423 1.393 . S
C420 H409 0.950 . S
C420 C418 1.391 . S
C420 C421 1.400 . S
C421 C415 1.491 . S
C421 C420 1.400 . S
C421 C422 1.398 . S
C422 H410 0.950 . S
C422 C421 1.398 . S
C422 C423 1.391 . S
C423 H411 0.950 . S
C423 C419 1.393 . S
C423 C422 1.391 . S
H424 C432 0.950 . S
H425 C437 0.950 . S
H426 C434 0.950 . S
H427 C436 0.950 . S
H428 C438 0.950 . S
H429 C440 0.950 . S
H430 C442 0.950 . S
H431 C443 0.950 . S
C432 H424 0.950 . S
C432 C433 1.386 . S
C432 C434 1.391 . S
C433 C432 1.386 . S
C433 C437 1.393 . S
C434 H426 0.950 . S
C434 C432 1.391 . S
C434 C435 1.400 . S
C435 C434 1.400 . S
C435 C436 1.398 . S
C435 C441 1.491 . S
C436 H427 0.950 . S
C436 C435 1.398 . S
C436 C437 1.391 . S
C437 H425 0.950 . S
C437 C433 1.393 . S
C437 C436 1.391 . S
C438 H428 0.950 . S
C438 C439 1.386 . S
C438 C440 1.391 . S
C439 C438 1.386 . S
C439 C443 1.393 . S
C440 H429 0.950 . S
C440 C438 1.391 . S
C440 C441 1.400 . S
C441 C435 1.491 . S
C441 C440 1.400 . S
C441 C442 1.398 . S
C442 H430 0.950 . S
C442 C441 1.398 . S
C442 C443 1.391 . S
C443 H431 0.950 . S
C443 C439 1.393 . S
C443 C442 1.391 . S
H444 C452 0.950 . S
H445 C457 0.950 . S
H446 C454 0.950 . S
H447 C456 0.950 . S
H448 C458 0.950 . S
H449 C460 0.950 . S
H450 C462 0.950 . S
H451 C463 0.950 . S
C452 H444 0.950 . S
C452 C453 1.386 . S
C452 C454 1.391 . S
C453 C452 1.386 . S
C453 C457 1.393 . S
C454 H446 0.950 . S
C454 C452 1.391 . S
C454 C455 1.400 . S
C455 C454 1.400 . S
C455 C456 1.398 . S
C455 C461 1.491 . S
C456 H447 0.950 . S
C456 C455 1.398 . S
C456 C457 1.391 . S
C457 H445 0.950 . S
C457 C453 1.393 . S
C457 C456 1.391 . S
C458 H448 0.950 . S
C458 C459 1.386 . S
C458 C460 1.391 . S
C459 C458 1.386 . S
C459 C463 1.393 . S
C460 H449 0.950 . S
C460 C458 1.391 . S
C460 C461 1.400 . S
C461 C455 1.491 . S
C461 C460 1.400 . S
C461 C462 1.398 . S
C462 H450 0.950 . S
C462 C461 1.398 . S
C462 C463 1.391 . S
C463 H451 0.950 . S
C463 C459 1.393 . S
C463 C462 1.391 . S
H464 C472 0.950 . S
H465 C477 0.950 . S
H466 C474 0.950 . S
H467 C476 0.950 . S
H468 C478 0.950 . S
H469 C480 0.950 . S
H470 C482 0.950 . S
H471 C483 0.950 . S
C472 H464 0.950 . S
C472 C473 1.386 . S
C472 C474 1.391 . S
C473 C472 1.386 . S
C473 C477 1.393 . S
C474 H466 0.950 . S
C474 C472 1.391 . S
C474 C475 1.400 . S
C475 C474 1.400 . S
C475 C476 1.398 . S
C475 C481 1.491 . S
C476 H467 0.950 . S
C476 C475 1.398 . S
C476 C477 1.391 . S
C477 H465 0.950 . S
C477 C473 1.393 . S
C477 C476 1.391 . S
C478 H468 0.950 . S
C478 C479 1.386 . S
C478 C480 1.391 . S
C479 C478 1.386 . S
C479 C483 1.393 . S
C480 H469 0.950 . S
C480 C478 1.391 . S
C480 C481 1.400 . S
C481 C475 1.491 . S
C481 C480 1.400 . S
C481 C482 1.398 . S
C482 H470 0.950 . S
C482 C481 1.398 . S
C482 C483 1.391 . S
C483 H471 0.950 . S
C483 C479 1.393 . S
C483 C482 1.391 . S
H484 C492 0.950 . S
H485 C497 0.950 . S
H486 C494 0.950 . S
H487 C496 0.950 . S
H488 C498 0.950 . S
H489 C500 0.950 . S
H490 C502 0.950 . S
H491 C503 0.950 . S
C492 H484 0.950 . S
C492 C493 1.386 . S
C492 C494 1.391 . S
C493 C492 1.386 . S
C493 C497 1.393 . S
C494 H486 0.950 . S
C494 C492 1.391 . S
C494 C495 1.400 . S
C495 C494 1.400 . S
C495 C496 1.398 . S
C495 C501 1.491 . S
C496 H487 0.950 . S
C496 C495 1.398 . S
C496 C497 1.391 . S
C497 H485 0.950 . S
C497 C493 1.393 . S
C497 C496 1.391 . S
C498 H488 0.950 . S
C498 C499 1.386 . S
C498 C500 1.391 . S
C499 C498 1.386 . S
C499 C503 1.393 . S
C500 H489 0.950 . S
C500 C498 1.391 . S
C500 C501 1.400 . S
C501 C495 1.491 . S
C501 C500 1.400 . S
C501 C502 1.398 . S
C502 H490 0.950 . S
C502 C501 1.398 . S
C502 C503 1.391 . S
C503 H491 0.950 . S
C503 C499 1.393 . S
C503 C502 1.391 . S
H504 C512 0.950 . S
H505 C517 0.950 . S
H506 C514 0.950 . S
H507 C516 0.950 . S
H508 C518 0.950 . S
H509 C520 0.950 . S
H510 C522 0.950 . S
H511 C523 0.950 . S
C512 H504 0.950 . S
C512 C513 1.386 . S
C512 C514 1.391 . S
C513 C512 1.386 . S
C513 C517 1.393 . S
C514 H506 0.950 . S
C514 C512 1.391 . S
C514 C515 1.400 . S
C515 C514 1.400 . S
C515 C516 1.398 . S
C515 C521 1.491 . S
C516 H507 0.950 . S
C516 C515 1.398 . S
C516 C517 1.391 . S
C517 H505 0.950 . S
C517 C513 1.393 . S
C517 C516 1.391 . S
C518 H508 0.950 . S
C518 C519 1.386 . S
C518 C520 1.391 . S
C519 C518 1.386 . S
C519 C523 1.393 . S
C520 H509 0.950 . S
C520 C518 1.391 . S
C520 C521 1.400 . S
C521 C515 1.491 . S
C521 C520 1.400 . S
C521 C522 1.398 . S
C522 H510 0.950 . S
C522 C521 1.398 . S
C522 C523 1.391 . S
C523 H511 0.950 . S
C523 C519 1.393 . S
C523 C522 1.391 . S
H524 C532 0.950 . S
H525 C537 0.950 . S
H526 C534 0.950 . S
H527 C536 0.950 . S
H528 C538 0.950 . S
H529 C540 0.950 . S
H530 C542 0.950 . S
H531 C543 0.950 . S
C532 H524 0.950 . S
C532 C533 1.386 . S
C532 C534 1.391 . S
C533 C532 1.386 . S
C533 C537 1.393 . S
C534 H526 0.950 . S
C534 C532 1.391 . S
C534 C535 1.400 . S
C535 C534 1.400 . S
C535 C536 1.398 . S
C535 C541 1.491 . S
C536 H527 0.950 . S
C536 C535 1.398 . S
C536 C537 1.391 . S
C537 H525 0.950 . S
C537 C533 1.393 . S
C537 C536 1.391 . S
C538 H528 0.950 . S
C538 C539 1.386 . S
C538 C540 1.391 . S
C539 C538 1.386 . S
C539 C543 1.393 . S
C540 H529 0.950 . S
C540 C538 1.391 . S
C540 C541 1.400 . S
C541 C535 1.491 . S
C541 C540 1.400 . S
C541 C542 1.398 . S
C542 H530 0.950 . S
C542 C541 1.398 . S
C542 C543 1.391 . S
C543 H531 0.950 . S
C543 C539 1.393 . S
C543 C542 1.391 . S
H544 C552 0.950 . S
H545 C557 0.950 . S
H546 C554 0.950 . S
H547 C556 0.950 . S
H548 C558 0.950 . S
H549 C560 0.950 . S
H550 C562 0.950 . S
H551 C563 0.950 . S
C552 H544 0.950 . S
C552 C553 1.386 . S
C552 C554 1.391 . S
C553 C552 1.386 . S
C553 C557 1.393 . S
C554 H546 0.950 . S
C554 C552 1.391 . S
C554 C555 1.400 . S
C555 C554 1.400 . S
C555 C556 1.398 . S
C555 C561 1.491 1_556 S
C556 H547 0.950 . S
C556 C555 1.398 . S
C556 C557 1.391 . S
C557 H545 0.950 . S
C557 C553 1.393 . S
C557 C556 1.391 . S
C558 H548 0.950 . S
C558 C559 1.386 . S
C558 C560 1.391 . S
C559 C558 1.386 . S
C559 C563 1.393 . S
C560 H549 0.950 . S
C560 C558 1.391 . S
C560 C561 1.400 . S
C561 C555 1.491 1_554 S
C561 C560 1.400 . S
C561 C562 1.398 . S
C562 H550 0.950 . S
C562 C561 1.398 . S
C562 C563 1.391 . S
C563 H551 0.950 . S
C563 C559 1.393 . S
C563 C562 1.391 . S
H564 C572 0.950 . S
H565 C577 0.950 . S
H566 C574 0.950 . S
H567 C576 0.950 . S
H568 C578 0.950 . S
H569 C580 0.950 . S
H570 C582 0.950 . S
H571 C583 0.950 . S
C572 H564 0.950 . S
C572 C573 1.386 . S
C572 C574 1.391 . S
C573 C572 1.386 . S
C573 C577 1.393 . S
C574 H566 0.950 . S
C574 C572 1.391 . S
C574 C575 1.400 . S
C575 C574 1.400 . S
C575 C576 1.398 . S
C575 C581 1.491 . S
C576 H567 0.950 . S
C576 C575 1.398 . S
C576 C577 1.391 . S
C577 H565 0.950 . S
C577 C573 1.393 . S
C577 C576 1.391 . S
C578 H568 0.950 . S
C578 C579 1.386 . S
C578 C580 1.391 . S
C579 C578 1.386 . S
C579 C583 1.393 . S
C580 H569 0.950 . S
C580 C578 1.391 . S
C580 C581 1.400 . S
C581 C575 1.491 . S
C581 C580 1.400 . S
C581 C582 1.398 . S
C582 H570 0.950 . S
C582 C581 1.398 . S
C582 C583 1.391 . S
C583 H571 0.950 . S
C583 C579 1.393 . S
C583 C582 1.391 . S
H584 C592 0.950 . S
H585 C597 0.950 . S
H586 C594 0.950 . S
H587 C596 0.950 . S
H588 C598 0.950 . S
H589 C600 0.950 . S
H590 C602 0.950 . S
H591 C603 0.950 . S
C592 H584 0.950 . S
C592 C593 1.386 . S
C592 C594 1.391 . S
C593 C592 1.386 . S
C593 C597 1.393 . S
C594 H586 0.950 . S
C594 C592 1.391 . S
C594 C595 1.400 . S
C595 C594 1.400 . S
C595 C596 1.398 . S
C595 C601 1.491 1_554 S
C596 H587 0.950 . S
C596 C595 1.398 . S
C596 C597 1.391 . S
C597 H585 0.950 . S
C597 C593 1.393 . S
C597 C596 1.391 . S
C598 H588 0.950 . S
C598 C599 1.386 . S
C598 C600 1.391 . S
C599 C598 1.386 . S
C599 C603 1.393 . S
C600 H589 0.950 . S
C600 C598 1.391 . S
C600 C601 1.400 . S
C601 C595 1.491 1_556 S
C601 C600 1.400 . S
C601 C602 1.398 . S
C602 H590 0.950 . S
C602 C601 1.398 . S
C602 C603 1.391 . S
C603 H591 0.950 . S
C603 C599 1.393 . S
C603 C602 1.391 . S
H604 C612 0.950 . S
H605 C617 0.950 . S
H606 C614 0.950 . S
H607 C616 0.950 . S
H608 C618 0.950 . S
H609 C620 0.950 . S
H610 C622 0.950 . S
H611 C623 0.950 . S
C612 H604 0.950 . S
C612 C613 1.386 . S
C612 C614 1.391 . S
C613 C612 1.386 . S
C613 C617 1.393 . S
C614 H606 0.950 . S
C614 C612 1.391 . S
C614 C615 1.400 . S
C615 C614 1.400 . S
C615 C616 1.398 . S
C615 C621 1.491 . S
C616 H607 0.950 . S
C616 C615 1.398 . S
C616 C617 1.391 . S
C617 H605 0.950 . S
C617 C613 1.393 . S
C617 C616 1.391 . S
C618 H608 0.950 . S
C618 C619 1.386 . S
C618 C620 1.391 . S
C619 C618 1.386 . S
C619 C623 1.393 . S
C620 H609 0.950 . S
C620 C618 1.391 . S
C620 C621 1.400 . S
C621 C615 1.491 . S
C621 C620 1.400 . S
C621 C622 1.398 . S
C622 H610 0.950 . S
C622 C621 1.398 . S
C622 C623 1.391 . S
C623 H611 0.950 . S
C623 C619 1.393 . S
C623 C622 1.391 . S
H624 C632 0.950 . S
H625 C637 0.950 . S
H626 C634 0.950 . S
H627 C636 0.950 . S
H628 C638 0.950 . S
H629 C640 0.950 . S
H630 C642 0.950 . S
H631 C643 0.950 . S
C632 H624 0.950 . S
C632 C633 1.386 . S
C632 C634 1.391 . S
C633 C632 1.386 . S
C633 C637 1.393 . S
C634 H626 0.950 . S
C634 C632 1.391 . S
C634 C635 1.400 . S
C635 C634 1.400 . S
C635 C636 1.398 . S
C635 C641 1.491 . S
C636 H627 0.950 . S
C636 C635 1.398 . S
C636 C637 1.391 . S
C637 H625 0.950 . S
C637 C633 1.393 . S
C637 C636 1.391 . S
C638 H628 0.950 . S
C638 C639 1.386 . S
C638 C640 1.391 . S
C639 C638 1.386 . S
C639 C643 1.393 . S
C640 H629 0.950 . S
C640 C638 1.391 . S
C640 C641 1.400 . S
C641 C635 1.491 . S
C641 C640 1.400 . S
C641 C642 1.398 . S
C642 H630 0.950 . S
C642 C641 1.398 . S
C642 C643 1.391 . S
C643 H631 0.950 . S
C643 C639 1.393 . S
C643 C642 1.391 . S
H644 C652 0.950 . S
H645 C657 0.950 . S
H646 C654 0.950 . S
H647 C656 0.950 . S
H648 C658 0.950 . S
H649 C660 0.950 . S
H650 C662 0.950 . S
H651 C663 0.950 . S
C652 H644 0.950 . S
C652 C653 1.386 . S
C652 C654 1.391 . S
C653 C652 1.386 . S
C653 C657 1.393 . S
C654 H646 0.950 . S
C654 C652 1.391 . S
C654 C655 1.400 . S
C655 C654 1.400 . S
C655 C656 1.398 . S
C655 C661 1.491 1_556 S
C656 H647 0.950 . S
C656 C655 1.398 . S
C656 C657 1.391 . S
C657 H645 0.950 . S
C657 C653 1.393 . S
C657 C656 1.391 . S
C658 H648 0.950 . S
C658 C659 1.386 . S
C658 C660 1.391 . S
C659 C658 1.386 . S
C659 C663 1.393 . S
C660 H649 0.950 . S
C660 C658 1.391 . S
C660 C661 1.400 . S
C661 C655 1.491 1_554 S
C661 C660 1.400 . S
C661 C662 1.398 . S
C662 H650 0.950 . S
C662 C661 1.398 . S
C662 C663 1.391 . S
C663 H651 0.950 . S
C663 C659 1.393 . S
C663 C662 1.391 . S
H664 C672 0.950 . S
H665 C677 0.950 . S
H666 C674 0.950 . S
H667 C676 0.950 . S
H668 C678 0.950 . S
H669 C680 0.950 . S
H670 C682 0.950 . S
H671 C683 0.950 . S
C672 H664 0.950 . S
C672 C673 1.386 . S
C672 C674 1.391 . S
C673 C672 1.386 . S
C673 C677 1.393 . S
C674 H666 0.950 . S
C674 C672 1.391 . S
C674 C675 1.400 . S
C675 C674 1.400 . S
C675 C676 1.398 . S
C675 C681 1.491 . S
C676 H667 0.950 . S
C676 C675 1.398 . S
C676 C677 1.391 . S
C677 H665 0.950 . S
C677 C673 1.393 . S
C677 C676 1.391 . S
C678 H668 0.950 . S
C678 C679 1.386 . S
C678 C680 1.391 . S
C679 C678 1.386 . S
C679 C683 1.393 . S
C680 H669 0.950 . S
C680 C678 1.391 . S
C680 C681 1.400 . S
C681 C675 1.491 . S
C681 C680 1.400 . S
C681 C682 1.398 . S
C682 H670 0.950 . S
C682 C681 1.398 . S
C682 C683 1.391 . S
C683 H671 0.950 . S
C683 C679 1.393 . S
C683 C682 1.391 . S
H684 C692 0.950 . S
H685 C697 0.950 . S
H686 C694 0.950 . S
H687 C696 0.950 . S
H688 C698 0.950 . S
H689 C700 0.950 . S
H690 C702 0.950 . S
H691 C703 0.950 . S
C692 H684 0.950 . S
C692 C693 1.386 . S
C692 C694 1.391 . S
C693 C692 1.386 . S
C693 C697 1.393 . S
C694 H686 0.950 . S
C694 C692 1.391 . S
C694 C695 1.400 . S
C695 C694 1.400 . S
C695 C696 1.398 . S
C695 C701 1.491 1_554 S
C696 H687 0.950 . S
C696 C695 1.398 . S
C696 C697 1.391 . S
C697 H685 0.950 . S
C697 C693 1.393 . S
C697 C696 1.391 . S
C698 H688 0.950 . S
C698 C699 1.386 . S
C698 C700 1.391 . S
C699 C698 1.386 . S
C699 C703 1.393 . S
C700 H689 0.950 . S
C700 C698 1.391 . S
C700 C701 1.400 . S
C701 C695 1.491 1_556 S
C701 C700 1.400 . S
C701 C702 1.398 . S
C702 H690 0.950 . S
C702 C701 1.398 . S
C702 C703 1.391 . S
C703 H691 0.950 . S
C703 C699 1.393 . S
C703 C702 1.391 . S
H704 C712 0.950 . S
H705 C717 0.950 . S
H706 C714 0.950 . S
H707 C716 0.950 . S
H708 C718 0.950 . S
H709 C720 0.950 . S
H710 C722 0.950 . S
H711 C723 0.950 . S
C712 H704 0.950 . S
C712 C713 1.386 . S
C712 C714 1.391 . S
C713 C712 1.386 . S
C713 C717 1.393 . S
C714 H706 0.950 . S
C714 C712 1.391 . S
C714 C715 1.400 . S
C715 C714 1.400 . S
C715 C716 1.398 . S
C715 C721 1.491 . S
C716 H707 0.950 . S
C716 C715 1.398 . S
C716 C717 1.391 . S
C717 H705 0.950 . S
C717 C713 1.393 . S
C717 C716 1.391 . S
C718 H708 0.950 . S
C718 C719 1.386 . S
C718 C720 1.391 . S
C719 C718 1.386 . S
C719 C723 1.393 . S
C720 H709 0.950 . S
C720 C718 1.391 . S
C720 C721 1.400 . S
C721 C715 1.491 . S
C721 C720 1.400 . S
C721 C722 1.398 . S
C722 H710 0.950 . S
C722 C721 1.398 . S
C722 C723 1.391 . S
C723 H711 0.950 . S
C723 C719 1.393 . S
C723 C722 1.391 . S
H724 C732 0.950 . S
H725 C737 0.950 . S
H726 C734 0.950 . S
H727 C736 0.950 . S
H728 C738 0.950 . S
H729 C740 0.950 . S
H730 C742 0.950 . S
H731 C743 0.950 . S
C732 H724 0.950 . S
C732 C733 1.386 . S
C732 C734 1.391 . S
C733 C732 1.386 . S
C733 C737 1.393 . S
C734 H726 0.950 . S
C734 C732 1.391 . S
C734 C735 1.400 . S
C735 C734 1.400 . S
C735 C736 1.398 . S
C735 C741 1.491 . S
C736 H727 0.950 . S
C736 C735 1.398 . S
C736 C737 1.391 . S
C737 H725 0.950 . S
C737 C733 1.393 . S
C737 C736 1.391 . S
C738 H728 0.950 . S
C738 C739 1.386 . S
C738 C740 1.391 . S
C739 C738 1.386 . S
C739 C743 1.393 . S
C740 H729 0.950 . S
C740 C738 1.391 . S
C740 C741 1.400 . S
C741 C735 1.491 . S
C741 C740 1.400 . S
C741 C742 1.398 . S
C742 H730 0.950 . S
C742 C741 1.398 . S
C742 C743 1.391 . S
C743 H731 0.950 . S
C743 C739 1.393 . S
C743 C742 1.391 . S
H744 C752 0.950 . S
H745 C757 0.950 . S
H746 C754 0.950 . S
H747 C756 0.950 . S
H748 C758 0.950 . S
H749 C760 0.950 . S
H750 C762 0.950 . S
H751 C763 0.950 . S
C752 H744 0.950 . S
C752 C753 1.386 . S
C752 C754 1.391 . S
C753 C752 1.386 . S
C753 C757 1.393 . S
C754 H746 0.950 . S
C754 C752 1.391 . S
C754 C755 1.400 . S
C755 C754 1.400 . S
C755 C756 1.398 . S
C755 C761 1.491 . S
C756 H747 0.950 . S
C756 C755 1.398 . S
C756 C757 1.391 . S
C757 H745 0.950 . S
C757 C753 1.393 . S
C757 C756 1.391 . S
C758 H748 0.950 . S
C758 C759 1.386 . S
C758 C760 1.391 . S
C759 C758 1.386 . S
C759 C763 1.393 . S
C760 H749 0.950 . S
C760 C758 1.391 . S
C760 C761 1.400 . S
C761 C755 1.491 . S
C761 C760 1.400 . S
C761 C762 1.398 . S
C762 H750 0.950 . S
C762 C761 1.398 . S
C762 C763 1.391 . S
C763 H751 0.950 . S
C763 C759 1.393 . S
C763 C762 1.391 . S
H764 C772 0.950 . S
H765 C777 0.950 . S
H766 C774 0.950 . S
H767 C776 0.950 . S
H768 C778 0.950 . S
H769 C780 0.950 . S
H770 C782 0.950 . S
H771 C783 0.950 . S
C772 H764 0.950 . S
C772 C773 1.386 . S
C772 C774 1.391 . S
C773 C772 1.386 . S
C773 C777 1.393 . S
C774 H766 0.950 . S
C774 C772 1.391 . S
C774 C775 1.400 . S
C775 C774 1.400 . S
C775 C776 1.398 . S
C775 C781 1.491 . S
C776 H767 0.950 . S
C776 C775 1.398 . S
C776 C777 1.391 . S
C777 H765 0.950 . S
C777 C773 1.393 . S
C777 C776 1.391 . S
C778 H768 0.950 . S
C778 C779 1.386 . S
C778 C780 1.391 . S
C779 C778 1.386 . S
C779 C783 1.393 . S
C780 H769 0.950 . S
C780 C778 1.391 . S
C780 C781 1.400 . S
C781 C775 1.491 . S
C781 C780 1.400 . S
C781 C782 1.398 . S
C782 H770 0.950 . S
C782 C781 1.398 . S
C782 C783 1.391 . S
C783 H771 0.950 . S
C783 C779 1.393 . S
C783 C782 1.391 . S
H784 C792 0.950 . S
H785 C797 0.950 . S
H786 C794 0.950 . S
H787 C796 0.950 . S
H788 C798 0.950 . S
H789 C800 0.950 . S
H790 C802 0.950 . S
H791 C803 0.950 . S
C792 H784 0.950 . S
C792 C793 1.386 . S
C792 C794 1.391 . S
C793 C792 1.386 . S
C793 C797 1.393 . S
C794 H786 0.950 . S
C794 C792 1.391 . S
C794 C795 1.400 . S
C795 C794 1.400 . S
C795 C796 1.398 . S
C795 C801 1.491 . S
C796 H787 0.950 . S
C796 C795 1.398 . S
C796 C797 1.391 . S
C797 H785 0.950 . S
C797 C793 1.393 . S
C797 C796 1.391 . S
C798 H788 0.950 . S
C798 C799 1.386 . S
C798 C800 1.391 . S
C799 C798 1.386 . S
C799 C803 1.393 . S
C800 H789 0.950 . S
C800 C798 1.391 . S
C800 C801 1.400 . S
C801 C795 1.491 . S
C801 C800 1.400 . S
C801 C802 1.398 . S
C802 H790 0.950 . S
C802 C801 1.398 . S
C802 C803 1.391 . S
C803 H791 0.950 . S
C803 C799 1.393 . S
C803 C802 1.391 . S
H804 C812 0.950 . S
H805 C817 0.950 . S
H806 C814 0.950 . S
H807 C816 0.950 . S
H808 C818 0.950 . S
H809 C820 0.950 . S
H810 C822 0.950 . S
H811 C823 0.950 . S
C812 H804 0.950 . S
C812 C813 1.386 . S
C812 C814 1.391 . S
C813 C812 1.386 . S
C813 C817 1.393 . S
C814 H806 0.950 . S
C814 C812 1.391 . S
C814 C815 1.400 . S
C815 C814 1.400 . S
C815 C816 1.398 . S
C815 C821 1.491 . S
C816 H807 0.950 . S
C816 C815 1.398 . S
C816 C817 1.391 . S
C817 H805 0.950 . S
C817 C813 1.393 . S
C817 C816 1.391 . S
C818 H808 0.950 . S
C818 C819 1.386 . S
C818 C820 1.391 . S
C819 C818 1.386 . S
C819 C823 1.393 . S
C820 H809 0.950 . S
C820 C818 1.391 . S
C820 C821 1.400 . S
C821 C815 1.491 . S
C821 C820 1.400 . S
C821 C822 1.398 . S
C822 H810 0.950 . S
C822 C821 1.398 . S
C822 C823 1.391 . S
C823 H811 0.950 . S
C823 C819 1.393 . S
C823 C822 1.391 . S
H824 C832 0.950 . S
H825 C837 0.950 . S
H826 C834 0.950 . S
H827 C836 0.950 . S
H828 C838 0.950 . S
H829 C840 0.950 . S
H830 C842 0.950 . S
H831 C843 0.950 . S
C832 H824 0.950 . S
C832 C833 1.386 . S
C832 C834 1.391 . S
C833 C832 1.386 . S
C833 C837 1.393 . S
C834 H826 0.950 . S
C834 C832 1.391 . S
C834 C835 1.400 . S
C835 C834 1.400 . S
C835 C836 1.398 . S
C835 C841 1.491 . S
C836 H827 0.950 . S
C836 C835 1.398 . S
C836 C837 1.391 . S
C837 H825 0.950 . S
C837 C833 1.393 . S
C837 C836 1.391 . S
C838 H828 0.950 . S
C838 C839 1.386 . S
C838 C840 1.391 . S
C839 C838 1.386 . S
C839 C843 1.393 . S
C840 H829 0.950 . S
C840 C838 1.391 . S
C840 C841 1.400 . S
C841 C835 1.491 . S
C841 C840 1.400 . S
C841 C842 1.398 . S
C842 H830 0.950 . S
C842 C841 1.398 . S
C842 C843 1.391 . S
C843 H831 0.950 . S
C843 C839 1.393 . S
C843 C842 1.391 . S
H844 C852 0.950 . S
H845 C857 0.950 . S
H846 C854 0.950 . S
H847 C856 0.950 . S
H848 C858 0.950 . S
H849 C860 0.950 . S
H850 C862 0.950 . S
H851 C863 0.950 . S
C852 H844 0.950 . S
C852 C853 1.386 . S
C852 C854 1.391 . S
C853 C852 1.386 . S
C853 C857 1.393 . S
C854 H846 0.950 . S
C854 C852 1.391 . S
C854 C855 1.400 . S
C855 C854 1.400 . S
C855 C856 1.398 . S
C855 C861 1.491 . S
C856 H847 0.950 . S
C856 C855 1.398 . S
C856 C857 1.391 . S
C857 H845 0.950 . S
C857 C853 1.393 . S
C857 C856 1.391 . S
C858 H848 0.950 . S
C858 C859 1.386 . S
C858 C860 1.391 . S
C859 C858 1.386 . S
C859 C863 1.393 . S
C860 H849 0.950 . S
C860 C858 1.391 . S
C860 C861 1.400 . S
C861 C855 1.491 . S
C861 C860 1.400 . S
C861 C862 1.398 . S
C862 H850 0.950 . S
C862 C861 1.398 . S
C862 C863 1.391 . S
C863 H851 0.950 . S
C863 C859 1.393 . S
C863 C862 1.391 . S
C233 C5 1.356 . S
C239 C33 1.355 . S
C253 C47 1.356 . S
C259 C19 1.355 . S
C273 C61 1.363 . S
C279 C89 1.364 . S
C293 C103 1.364 . S
C299 C75 1.364 . S
C313 C117 1.351 . S
C319 C145 1.351 . S
C333 C159 1.354 . S
C339 C131 1.355 . S
C353 C173 1.364 . S
C359 C201 1.363 . S
C373 C215 1.353 . S
C379 C187 1.354 . S
C393 C56 1.320 . S
C399 C0 1.333 . S
C413 C14 1.329 . S
C419 C70 1.318 . S
C433 C28 1.345 . S
C439 C84 1.338 . S
C453 C98 1.345 . S
C459 C42 1.333 . S
C473 C112 1.342 . S
C479 C168 1.328 . S
C493 C126 1.324 . S
C499 C182 1.319 . S
C513 C140 1.337 . S
C519 C196 1.322 . S
C533 C154 1.323 . S
C539 C210 1.338 . S
C553 C149 1.222 . S
C559 C9 1.196 . S
C573 C163 1.197 . S
C579 C23 1.221 . S
C593 C37 1.209 . S
C599 C121 1.210 . S
C613 C51 1.204 . S
C619 C135 1.215 . S
C633 C65 1.195 . S
C639 C205 1.223 . S
C653 C79 1.212 . S
C659 C219 1.207 . S
C673 C93 1.216 . S
C679 C177 1.202 . S
C693 C191 1.219 . S
C699 C107 1.200 . S
C713 C11 1.369 . S
C719 C221 1.367 . S
C733 C179 1.367 . S
C739 C25 1.369 . S
C753 C39 1.367 . S
C759 C193 1.369 . S
C773 C207 1.368 . S
C779 C53 1.369 . S
C793 C137 1.370 . S
C799 C67 1.367 . S
C813 C81 1.370 . S
C819 C151 1.366 . S
C833 C165 1.370 . S
C839 C95 1.367 . S
C853 C123 1.366 . S
C859 C109 1.371 . S
