# Generated by pormake.
# Topology qtz-x, (6)-cn, num edge types: 1
# Building blocks:
#     Node 0, Type 0, BuildingBlock: CUWYAW_clean_sbu_0, # of connection points: 6
#     Node 1, Type 0, BuildingBlock: CUWYAW_clean_sbu_0, # of connection points: 6
#     Node 2, Type 0, BuildingBlock: CUWYAW_clean_sbu_0, # of connection points: 6
#     Edge 3, Type (0, 0), BuildingBlock: MIFKUJ_clean_linker_0, # of connection points: 2
#     Edge 4, Type (0, 0), BuildingBlock: MIFKUJ_clean_linker_0, # of connection points: 2
#     Edge 5, Type (0, 0), BuildingBlock: MIFKUJ_clean_linker_0, # of connection points: 2
#     Edge 6, Type (0, 0), BuildingBlock: MIFKUJ_clean_linker_0, # of connection points: 2
#     Edge 7, Type (0, 0), BuildingBlock: MIFKUJ_clean_linker_0, # of connection points: 2
#     Edge 8, Type (0, 0), BuildingBlock: MIFKUJ_clean_linker_0, # of connection points: 2
#     Edge 9, Type (0, 0), BuildingBlock: MIFKUJ_clean_linker_0, # of connection points: 2
#     Edge 10, Type (0, 0), BuildingBlock: MIFKUJ_clean_linker_0, # of connection points: 2
#     Edge 11, Type (0, 0), BuildingBlock: MIFKUJ_clean_linker_0, # of connection points: 2
# Relax obj value: 0.198
# Max RMSD: 0.244
# Mean RMSD: 0.232
data_MOF--net-qtz-x--node1-CUWYAW_clean_sbu_0--edge1-MIFKUJ_clean_linker_0
_symmetry_space_group_name_H-M    P1
_symmetry_Int_Tables_number       1
_symmetry_cell_setting            triclinic
loop_
_symmetry_equiv_pos_as_xyz
'x, y, z'
_cell_length_a     19.119611
_cell_length_b     19.117215
_cell_length_c     65.999245
_cell_angle_alpha  73.666242
_cell_angle_beta   109.20509
_cell_angle_gamma 120.92691
loop_
_atom_site_label
_atom_site_type_symbol
_atom_site_fract_x
_atom_site_fract_y
_atom_site_fract_z
_atom_type_partial_charge
C0 C 0.2758 0.82774 0.15395 0.0
Eu1 Eu 0.15318 0.71527 0.17196 0.0
C2 C 0.2997 0.83166 0.1343 0.0
C3 C 0.32819 0.77789 0.13353 0.0
C4 C 0.34339 0.77689 0.11433 0.0
C5 C 0.33037 0.82946 0.09543 0.0
C6 C 0.30329 0.88424 0.09629 0.0
C7 C 0.28843 0.88552 0.11554 0.0
C8 C 0.11959 0.55459 0.1801 0.0
C9 C 0.9905 0.64467 0.13188 0.0
C10 C 0.86878 0.48185 0.20094 0.0
Eu11 Eu 0.98695 0.59985 0.18178 0.0
C12 C 0.8584 0.45388 0.22374 0.0
C13 C 0.81448 0.47803 0.23137 0.0
C14 C 0.80521 0.45283 0.25284 0.0
C15 C 0.83895 0.40212 0.26725 0.0
C16 C 0.88222 0.37728 0.25957 0.0
C17 C 0.89184 0.4028 0.23812 0.0
C18 C 0.0187 0.75984 0.17276 0.0
C19 C 0.15093 0.67837 0.22079 0.0
O20 O 0.20589 0.83061 0.15064 0.0
O21 O 0.28399 0.77329 0.17048 0.0
O22 O 0.19206 0.61474 0.18662 0.0
O23 O 0.06892 0.58189 0.16897 0.0
O24 O 0.06718 0.70195 0.13861 0.0
O25 O 0.94517 0.58911 0.14583 0.0
O26 O 0.92349 0.47144 0.19601 0.0
O27 O 0.87052 0.55275 0.19178 0.0
O28 O 0.9464 0.69879 0.1664 0.0
O29 O 0.07007 0.73366 0.18426 0.0
O30 O 0.07945 0.6131 0.21482 0.0
O31 O 0.18729 0.73826 0.20614 0.0
H32 H 0.33709 0.73509 0.1476 0.0
H33 H 0.36323 0.73326 0.11417 0.0
H34 H 0.29364 0.92621 0.08207 0.0
H35 H 0.26655 0.9276 0.11566 0.0
H36 H 0.78711 0.51656 0.22072 0.0
H37 H 0.77036 0.47211 0.25806 0.0
H38 H 0.90966 0.33884 0.27023 0.0
H39 H 0.9258 0.38261 0.23285 0.0
C40 C 0.63986 0.83281 0.5116 0.0
Eu41 Eu 0.68016 0.96282 0.52724 0.0
C42 C 0.59727 0.81215 0.48945 0.0
C43 C 0.55621 0.85624 0.47502 0.0
C44 C 0.51947 0.84089 0.45359 0.0
C45 C 0.52269 0.78084 0.44612 0.0
C46 C 0.56271 0.7357 0.46072 0.0
C47 C 0.60009 0.75156 0.48222 0.0
C48 C 0.56137 -0.00322 0.52948 0.0
C49 C 0.70629 0.11104 0.48561 0.0
C50 C 0.7785 0.26586 0.54711 0.0
Eu51 Eu 0.74647 0.13331 0.53418 0.0
C52 C 0.79358 0.2906 0.56793 0.0
C53 C 0.82459 0.25213 0.58749 0.0
C54 C 0.83994 0.2772 0.60714 0.0
C55 C 0.82438 0.34111 0.60758 0.0
C56 C 0.79202 0.37847 0.58791 0.0
C57 C 0.77682 0.35339 0.56827 0.0
C58 C 0.86425 0.10019 0.53095 0.0
C59 C 0.72752 -0.0122 0.57589 0.0
O60 O 0.71444 0.89614 0.51352 0.0
O61 O 0.59451 0.83478 0.52233 0.0
O62 O 0.5647 0.92848 0.538 0.0
O63 O 0.61925 0.04382 0.5194 0.0
O64 O 0.69841 0.03654 0.49389 0.0
O65 O 0.71516 0.16003 0.49788 0.0
O66 O 0.70274 0.21001 0.53989 0.0
O67 O 0.83594 0.253 0.54469 0.0
O68 O 0.86035 0.16842 0.52259 0.0
O69 O 0.8078 0.0528 0.54151 0.0
O70 O 0.72647 0.05872 0.56728 0.0
O71 O 0.72357 0.94131 0.56362 0.0
H72 H 0.5531 0.90318 0.48028 0.0
H73 H 0.48817 0.87592 0.44289 0.0
H74 H 0.56679 0.6895 0.4554 0.0
H75 H 0.63195 0.71729 0.49309 0.0
H76 H 0.83778 0.20331 0.58755 0.0
H77 H 0.86562 0.24764 0.62193 0.0
H78 H 0.77798 0.42685 0.58769 0.0
H79 H 0.75222 0.38325 0.55332 0.0
C80 C 0.98427 0.72679 0.85476 0.0
Eu81 Eu 0.85927 0.74185 0.85681 0.0
C82 C 0.99188 0.68987 0.83929 0.0
C83 C 0.92433 0.61751 0.83149 0.0
C84 C 0.92763 0.58728 0.81509 0.0
C85 C 0.99802 0.6293 0.80594 0.0
C86 C 0.06635 0.70088 0.81403 0.0
C87 C 0.06336 0.73074 0.83066 0.0
C88 C 0.70345 0.61334 0.85613 0.0
C89 C 0.76724 0.78709 0.80676 0.0
C90 C 0.59795 0.80051 0.85117 0.0
Eu91 Eu 0.72629 0.79051 0.84915 0.0
C92 C 0.57011 0.8026 0.86916 0.0
C93 C 0.62733 0.82712 0.88872 0.0
C94 C 0.60008 0.82544 0.90614 0.0
C95 C 0.51477 0.79828 0.90443 0.0
C96 C 0.45779 0.77425 0.88468 0.0
C97 C 0.48543 0.77679 0.86719 0.0
C98 C 0.88168 0.91841 0.84905 0.0
C99 C 0.82167 0.74938 0.89881 0.0
O100 O 0.97644 0.79389 0.84672 0.0
O101 O 0.93279 0.67586 0.86741 0.0
O102 O 0.7706 0.61189 0.86896 0.0
O103 O 0.72163 0.68 0.84343 0.0
O104 O 0.83316 0.78054 0.82017 0.0
O105 O 0.7082 0.78194 0.8142 0.0
O106 O 0.59556 0.73101 0.85107 0.0
O107 O 0.66681 0.86459 0.84682 0.0
O108 O 0.81434 0.9186 0.83583 0.0
O109 O 0.86404 0.85286 0.86225 0.0
O110 O 0.75146 0.74735 0.8857 0.0
O111 O 0.88289 0.76235 0.89085 0.0
H112 H 0.86772 0.58554 0.83757 0.0
H113 H 0.87344 0.53287 0.80893 0.0
H114 H 0.12146 0.73432 0.80729 0.0
H115 H 0.1158 0.78694 0.83636 0.0
H116 H 0.69316 0.84736 0.89058 0.0
H117 H 0.64613 0.84595 0.92089 0.0
H118 H 0.39157 0.75197 0.88282 0.0
H119 H 0.44059 0.75767 0.85218 0.0
H120 H 0.90454 0.81753 0.15429 0.0
H121 H 0.92115 0.9522 0.15535 0.0
H122 H 0.17685 0.02589 0.19086 0.0
H123 H 0.1599 0.89036 0.19017 0.0
H124 H 0.09969 0.06708 0.20892 0.0
H125 H 0.12637 0.09918 0.13661 0.0
H126 H 0.08401 0.06251 0.09996 0.0
H127 H 0.85997 0.08331 0.08756 0.0
H128 H 0.90041 0.11895 0.12427 0.0
H129 H 0.232 0.49476 0.19818 0.0
H130 H 0.21312 0.35949 0.1968 0.0
H131 H 0.95794 0.2895 0.1613 0.0
H132 H 0.97718 0.42575 0.16231 0.0
H133 H 0.03301 0.24576 0.14321 0.0
H134 H 1.00568 0.21401 0.21522 0.0
H135 H 0.04711 0.25063 0.25183 0.0
H136 H 0.27082 0.22865 0.26481 0.0
H137 H 0.23131 0.19304 0.22814 0.0
C138 C 0.9645 0.86265 0.16219 0.0
C139 C 0.03093 0.8434 0.17215 0.0
C140 C 0.97404 0.9398 0.16272 0.0
C141 C 0.05052 -0.00025 0.17303 0.0
C142 C 0.11723 0.98079 0.18282 0.0
C143 C 0.10762 0.90346 0.18234 0.0
C144 C 0.06011 0.08122 0.17412 0.0
C145 C 0.08629 0.10667 0.19451 0.0
C146 C 0.04032 0.13204 0.1554 0.0
C147 C 1.01605 0.11094 0.13328 0.0
C148 C 0.06775 0.0953 0.12613 0.0
C149 C 0.04413 0.0748 0.10534 0.0
C150 C 0.96924 0.07036 0.09146 0.0
C151 C 0.91791 0.08665 0.09834 0.0
C152 C 0.94118 0.10706 0.11913 0.0
C153 C 0.17168 0.45036 0.1902 0.0
C154 C 0.10604 0.4708 0.18036 0.0
C155 C 0.16084 0.37286 0.18949 0.0
C156 C 0.08381 0.31373 0.17912 0.0
C157 C 1.01793 0.33395 0.1694 0.0
C158 C 0.02885 0.41166 0.17006 0.0
C159 C 0.07286 0.23172 0.17801 0.0
C160 C 0.04638 0.20614 0.15762 0.0
C161 C 0.0922 0.18069 0.19673 0.0
C162 C 0.11588 0.20158 0.21885 0.0
C163 C 0.06401 0.21757 0.22582 0.0
C164 C 0.0871 0.23805 0.2466 0.0
C165 C 0.16164 0.24214 0.26062 0.0
C166 C 0.21314 0.22554 0.25392 0.0
C167 C 0.19039 0.20513 0.23315 0.0
H168 H 0.17941 0.25802 0.2767 0.0
H169 H 0.95107 0.05449 0.07537 0.0
H170 H 0.4302 0.89314 0.54855 0.0
H171 H 0.31238 0.91145 0.54804 0.0
H172 H 0.41451 0.14907 0.50939 0.0
H173 H 0.53378 0.13105 0.50997 0.0
H174 H 0.35726 0.15419 0.54139 0.0
H175 H 0.24817 0.98338 0.48642 0.0
H176 H 0.21692 0.86447 0.47093 0.0
H177 H 0.06871 0.69943 0.5173 0.0
H178 H 0.10007 0.81737 0.53328 0.0
H179 H 0.99118 0.20271 0.51026 0.0
H180 H 0.10794 0.18454 0.50972 0.0
H181 H 1.01127 0.94875 0.54951 0.0
H182 H 0.89322 0.96662 0.55 0.0
H183 H 0.06559 0.94349 0.51647 0.0
H184 H 0.17595 0.11403 0.57168 0.0
H185 H 0.20749 0.2328 0.58728 0.0
H186 H 0.35338 0.39822 0.54046 0.0
H187 H 0.32169 0.2804 0.52436 0.0
C188 C 0.42772 0.94937 0.53989 0.0
C189 C 0.49117 0.01045 0.52918 0.0
C190 C 0.35995 0.9596 0.53955 0.0
C191 C 0.35349 0.03108 0.5284 0.0
C192 C 0.41771 0.09315 0.51802 0.0
C193 C 0.48577 0.08279 0.51832 0.0
C194 C 0.27985 0.04058 0.52779 0.0
C195 C 0.29355 0.10876 0.53561 0.0
C196 C 0.19635 0.98031 0.52079 0.0
C197 C 0.17714 0.90922 0.51118 0.0
C198 C 0.20946 0.92171 0.49343 0.0
C199 C 0.19163 0.85449 0.48454 0.0
C200 C 0.14103 0.77444 0.49316 0.0
C201 C 0.10798 0.76147 0.51066 0.0
C202 C 0.1257 0.82849 0.51963 0.0
C203 C 0.99465 0.14687 0.51895 0.0
C204 C 0.9333 0.08639 0.53038 0.0
C205 C 0.06175 0.13674 0.51865 0.0
C206 C 0.06948 0.0659 0.52985 0.0
C207 C 1.00705 0.00422 0.54083 0.0
C208 C 0.9397 0.01447 0.54117 0.0
C209 C 0.14305 0.05701 0.5301 0.0
C210 C 0.12931 -0.01104 0.52222 0.0
C211 C 0.22652 0.11739 0.53704 0.0
C212 C 0.24574 0.1884 0.54668 0.0
C213 C 0.21417 0.17576 0.56459 0.0
C214 C 0.23218 0.2429 0.57355 0.0
C215 C 0.28223 0.32302 0.56483 0.0
C216 C 0.31452 0.33613 0.54717 0.0
C217 C 0.29661 0.26919 0.53814 0.0
H218 H 0.29614 0.37492 0.5718 0.0
H219 H 0.12729 0.72247 0.48625 0.0
H220 H 0.92951 0.05848 0.82014 0.0
H221 H 0.06939 0.17615 0.82148 0.0
H222 H 0.16389 0.05619 0.88144 0.0
H223 H 0.02455 0.93737 0.87978 0.0
H224 H 0.1662 0.28123 0.85012 0.0
H225 H 0.36703 0.11471 0.88625 0.0
H226 H 0.3567 0.97899 0.88816 0.0
H227 H 0.1801 0.94601 0.82679 0.0
H228 H 0.1901 0.08178 0.82449 0.0
H229 H 0.65642 0.47223 0.88457 0.0
H230 H 0.51611 0.35655 0.88405 0.0
H231 H 0.41786 0.48104 0.82591 0.0
H232 H 0.55828 0.59805 0.82673 0.0
H233 H 0.41683 0.25291 0.85688 0.0
H234 H 0.20545 0.41709 0.82445 0.0
H235 H 0.21041 0.54691 0.82587 0.0
H236 H 0.40628 0.58294 0.88356 0.0
H237 H 0.40185 0.45273 0.88263 0.0
C238 C 0.98028 0.05715 0.83355 0.0
C239 C 0.96635 -0.01113 0.84984 0.0
C240 C 0.06011 0.12447 0.83433 0.0
C241 C 0.12751 0.12486 0.85144 0.0
C242 C 0.11337 0.0568 0.86786 0.0
C243 C 0.03366 -0.01092 0.86696 0.0
C244 C 0.2121 0.19706 0.8522 0.0
C245 C 0.22095 0.27546 0.85123 0.0
C246 C 0.28391 0.18893 0.85447 0.0
C247 C 0.27894 0.10811 0.85531 0.0
C248 C 0.32641 0.07861 0.87314 0.0
C249 C 0.32049 0.00163 0.8743 0.0
C250 C 0.26761 0.95378 0.85763 0.0
C251 C 0.22082 0.98298 0.83973 0.0
C252 C 0.22654 0.05992 0.83851 0.0
C253 C 0.60482 0.47504 0.87172 0.0
C254 C 0.61817 0.54404 0.85568 0.0
C255 C 0.52462 0.40881 0.87142 0.0
C256 C 0.45599 0.41004 0.85505 0.0
C257 C 0.46936 0.47904 0.83894 0.0
C258 C 0.54967 0.5457 0.83933 0.0
C259 C 0.37127 0.33793 0.85458 0.0
C260 C 0.36231 0.25929 0.85564 0.0
C261 C 0.29953 0.34592 0.85266 0.0
C262 C 0.3045 0.42569 0.85316 0.0
C263 C 0.25009 0.45293 0.83734 0.0
C264 C 0.25256 0.52648 0.83811 0.0
C265 C 0.3088 0.57325 0.85475 0.0
C266 C 0.36301 0.54679 0.87061 0.0
C267 C 0.36068 0.47315 0.86992 0.0
H268 H 0.30976 0.62961 0.85545 0.0
H269 H 0.26302 0.89416 0.85857 0.0
H270 H 0.39093 0.83245 0.90407 0.0
H271 H 0.34571 0.82869 0.93503 0.0
H272 H 0.52973 0.75643 0.97836 0.0
H273 H 0.5717 0.75499 0.94752 0.0
H274 H 0.40364 0.67996 0.99393 0.0
H275 H 0.55548 0.96616 0.96671 0.0
H276 H 0.5878 0.08925 0.93904 0.0
H277 H 0.34247 0.06278 0.92939 0.0
H278 H 0.30852 0.93914 0.95695 0.0
H279 H 0.45871 0.81661 0.08986 0.0
H280 H 0.47825 0.80563 0.05632 0.0
H281 H 0.25295 0.82385 0.02091 0.0
H282 H 0.23236 0.834 0.05451 0.0
H283 H 0.3865 0.92288 1.00033 0.0
H284 H 0.25003 0.6408 0.03363 0.0
H285 H 0.23482 0.52613 0.06364 0.0
H286 H 0.47292 0.55458 0.06399 0.0
H287 H 0.49057 0.67044 0.03433 0.0
C288 C 0.42115 0.81468 0.92016 0.0
C289 C 0.48581 0.79499 0.92323 0.0
C290 C 0.39597 0.81373 0.93792 0.0
C291 C 0.43614 0.79495 0.95917 0.0
C292 C 0.49876 0.77273 0.9622 0.0
C293 C 0.5233 0.77269 0.94449 0.0
C294 C 0.41431 0.79936 0.97832 0.0
C295 C 0.40075 0.73354 0.99535 0.0
C296 C 0.4089 0.86848 0.98017 0.0
C297 C 0.42927 0.94312 0.96375 0.0
C298 C 0.50834 0.98644 0.95862 0.0
C299 C 0.52696 0.05631 0.94298 0.0
C300 C 0.46722 0.08378 0.93246 0.0
C301 C 0.3887 0.04146 0.93757 0.0
C302 C 0.36978 0.97157 0.95323 0.0
C303 C 0.41297 0.81774 0.07497 0.0
C304 C 0.34382 0.8259 0.07488 0.0
C305 C 0.42431 0.81161 0.05581 0.0
C306 C 0.36654 0.81301 0.03617 0.0
C307 C 0.29825 0.82267 0.0359 0.0
C308 C 0.28681 0.82879 0.05509 0.0
C309 C 0.37775 0.80438 1.01596 0.0
C310 C 0.38892 0.86922 0.99875 0.0
C311 C 0.38325 0.73537 1.01419 0.0
C312 C 0.37183 0.66471 0.03182 0.0
C313 C 0.29939 0.62295 0.04019 0.0
C314 C 0.29029 0.55772 0.05713 0.0
C315 C 0.35279 0.53314 0.06569 0.0
C316 C 0.42454 0.57367 0.05734 0.0
C317 C 0.43412 0.63911 0.04046 0.0
H318 H 0.34559 0.48263 0.0788 0.0
H319 H 0.4819 0.13799 0.92039 0.0
H320 H 0.6862 0.02508 0.45545 0.0
H321 H 0.70831 0.07755 0.41865 0.0
H322 H 0.76331 0.31849 0.4265 0.0
H323 H 0.74023 0.26615 0.46339 0.0
H324 H 0.66793 0.28063 0.38656 0.0
H325 H 0.92027 0.27677 0.43122 0.0
H326 H 1.0043 0.21444 0.45836 0.0
H327 H 0.92237 0.03668 0.41687 0.0
H328 H 0.8366 0.09703 0.38965 0.0
H329 H 0.85193 0.49289 0.29524 0.0
H330 H 0.83047 0.44685 0.33224 0.0
H331 H 0.78031 0.20345 0.32812 0.0
H332 H 0.80205 0.24921 0.29114 0.0
H333 H 0.87722 0.24754 0.36676 0.0
H334 H 0.621 0.24982 0.32263 0.0
H335 H 0.53535 0.31153 0.29604 0.0
H336 H 0.62596 0.49393 0.3369 0.0
H337 H 0.71299 0.4339 0.36362 0.0
C338 C 0.70228 0.08913 0.44936 0.0
C339 C 0.71188 0.14146 0.46252 0.0
C340 C 0.71539 0.11919 0.42829 0.0
C341 C 0.73906 0.20244 0.41988 0.0
C342 C 0.74552 0.25414 0.43264 0.0
C343 C 0.73228 0.22406 0.45376 0.0
C344 C 0.75876 0.23566 0.39799 0.0
C345 C 0.71452 0.2744 0.38233 0.0
C346 C 0.8187 0.22656 0.3923 0.0
C347 C 0.8714 0.191 0.40847 0.0
C348 C 0.91973 0.22405 0.42794 0.0
C349 C 0.96771 0.18911 0.44334 0.0
C350 C 0.96855 0.12156 0.43936 0.0
C351 C 0.92159 0.08897 0.41994 0.0
C352 C 0.87331 0.12355 0.40451 0.0
C353 C 0.83583 0.4294 0.30214 0.0
C354 C 0.82819 0.37468 0.29009 0.0
C355 C 0.82364 0.40312 0.32335 0.0
C356 C 0.8025 0.32121 0.33296 0.0
C357 C 0.79654 0.26692 0.32113 0.0
C358 C 0.80916 0.29326 0.29996 0.0
C359 C 0.78569 0.29179 0.3552 0.0
C360 C 0.8307 0.25392 0.37097 0.0
C361 C 0.72662 0.30191 0.36102 0.0
C362 C 0.67411 0.33786 0.34501 0.0
C363 C 0.62311 0.30345 0.32587 0.0
C364 C 0.57425 0.33806 0.31079 0.0
C365 C 0.57539 0.40674 0.31475 0.0
C366 C 0.62523 0.44081 0.33383 0.0
C367 C 0.67428 0.40648 0.34896 0.0
H368 H 0.5375 0.43344 0.30306 0.0
H369 H 1.00568 0.09455 0.4513 0.0
H370 H 0.88806 0.82606 0.78603 0.0
H371 H 0.88028 0.85384 0.74709 0.0
H372 H 0.62512 0.8076 0.73433 0.0
H373 H 0.63246 0.7803 0.77341 0.0
H374 H 0.64983 0.73384 0.70724 0.0
H375 H 0.77074 -0.00058 0.73006 0.0
H376 H 0.87271 0.11112 0.75216 0.0
H377 H 0.07315 0.13095 0.73123 0.0
H378 H 0.97251 0.01873 0.70921 0.0
H379 H 0.72096 0.06326 0.6042 0.0
H380 H 0.72626 0.02185 0.64279 0.0
H381 H 0.75032 0.81186 0.64066 0.0
H382 H 0.7433 0.85239 0.60155 0.0
H383 H 0.84119 0.01011 0.67559 0.0
H384 H 0.66873 0.65697 0.68183 0.0
H385 H 0.56168 0.54747 0.65952 0.0
H386 H 0.45531 0.70677 0.62134 0.0
H387 H 0.56051 0.81654 0.64373 0.0
C388 C 0.83 0.82143 0.77501 0.0
C389 C 0.76092 0.80121 0.78295 0.0
C390 C 0.82579 0.83751 0.75269 0.0
C391 C 0.75227 0.83325 0.73772 0.0
C392 C 0.68251 0.8112 0.74555 0.0
C393 C 0.68694 0.79597 0.76792 0.0
C394 C 0.74923 0.85425 0.71398 0.0
C395 C 0.69179 0.79417 0.7003 0.0
C396 C 0.80368 0.93297 0.70484 0.0
C397 C 0.86421 9e-05 0.71818 0.0
C398 C 0.83665 0.0271 0.73033 0.0
C399 C 0.89417 0.09062 0.7428 0.0
C400 C 0.97933 0.12787 0.74314 0.0
C401 C 1.00716 0.1019 0.73097 0.0
C402 C 0.94992 0.03842 0.71848 0.0
C403 C 0.72742 0.00816 0.61181 0.0
C404 C 0.73173 0.96125 0.59962 0.0
C405 C 0.73058 0.98455 0.63403 0.0
C406 C 0.73813 0.91329 0.64481 0.0
C407 C 0.74316 0.86641 0.63276 0.0
C408 C 0.73954 0.88987 0.61037 0.0
C409 C 0.74154 0.88979 0.66864 0.0
C410 C 0.79942 0.94946 0.68243 0.0
C411 C 0.68709 0.81083 0.6778 0.0
C412 C 0.62305 0.74521 0.66432 0.0
C413 C 0.62227 0.66849 0.66873 0.0
C414 C 0.56192 0.60639 0.65607 0.0
C415 C 0.50204 0.62032 0.63894 0.0
C416 C 0.50198 0.69619 0.63454 0.0
C417 C 0.56191 0.75836 0.64722 0.0
H418 H 0.45553 0.57223 0.62913 0.0
H419 H 0.02381 0.17692 0.75279 0.0
H420 H 0.70617 0.71223 0.92142 0.0
H421 H 0.7216 0.68613 0.96074 0.0
H422 H 0.97479 0.73168 0.96972 0.0
H423 H 0.95929 0.75619 0.93053 0.0
H424 H 0.90262 0.60271 0.99589 0.0
H425 H 0.92311 0.86949 0.97684 0.0
H426 H 0.88285 0.97898 0.95839 0.0
H427 H 0.67349 0.85765 0.98835 0.0
H428 H 0.70957 0.74468 1.0061 0.0
H429 H 0.08558 0.70292 0.10249 0.0
H430 H 0.04129 0.70914 0.06328 0.0
H431 H 0.78344 0.59128 0.06745 0.0
H432 H 0.82772 0.58354 0.10731 0.0
H433 H 0.84173 0.74469 0.0351 0.0
H434 H 0.83885 0.48019 0.05627 0.0
H435 H 0.89859 0.38555 0.07576 0.0
H436 H 0.10147 0.52645 0.04313 0.0
H437 H 0.04434 0.62313 0.0239 0.0
C438 C 0.76528 0.71698 0.93175 0.0
C439 C 0.83151 0.73638 0.92273 0.0
C440 C 0.7741 0.70222 0.9543 0.0
C441 C 0.84958 0.70723 0.96835 0.0
C442 C 0.91575 0.72695 0.95932 0.0
C443 C 0.90689 0.74136 0.93684 0.0
C444 C 0.85989 0.69095 0.99243 0.0
C445 C 0.88957 0.63426 1.00439 0.0
C446 C 0.84192 0.73107 1.00369 0.0
C447 C 0.81821 0.79755 0.9925 0.0
C448 C 0.86733 0.86499 0.97914 0.0
C449 C 0.84513 0.92765 0.96877 0.0
C450 C 0.7749 0.9246 0.97196 0.0
C451 C 0.72688 0.85898 0.98559 0.0
C452 C 0.748 0.79544 0.99574 0.0
C453 C 0.01921 0.67784 0.09519 0.0
C454 C 0.96007 0.64275 0.1081 0.0
C455 C 0.99407 0.6814 0.0727 0.0
C456 C 0.90913 0.65069 0.06239 0.0
C457 C 0.84941 0.61538 0.07511 0.0
C458 C 0.87463 0.61051 0.09784 0.0
C459 C 0.88451 0.65699 0.03831 0.0
C460 C 0.85285 0.71215 0.02642 0.0
C461 C 0.90288 0.61741 0.0271 0.0
C462 C 0.93748 0.55925 0.03874 0.0
C463 C 0.89669 0.4915 0.05342 0.0
C464 C 0.93013 0.43746 0.06444 0.0
C465 C 1.00402 0.45015 0.06077 0.0
C466 C 0.04455 0.51686 0.04606 0.0
C467 C 1.01161 0.57128 0.03509 0.0
H468 H 0.02974 0.40817 0.06928 0.0
H469 H 0.75807 0.97342 0.96403 0.0
H470 H 0.26276 0.8186 0.23897 0.0
H471 H 0.3243 0.83173 0.27732 0.0
H472 H 0.18859 0.56806 0.2936 0.0
H473 H 0.12337 0.55517 0.2552 0.0
H474 H 0.18381 0.63578 0.32107 0.0
H475 H 0.40851 0.67893 0.29364 0.0
H476 H 0.5059 0.74293 0.26922 0.0
H477 H 0.60279 0.97891 0.2883 0.0
H478 H 0.50525 0.91651 0.31263 0.0
H479 H 0.42716 0.63342 0.42994 0.0
H480 H 0.3634 0.61137 0.39193 0.0
H481 H 0.46866 0.87403 0.37235 0.0
H482 H 0.53393 0.89648 0.41015 0.0
H483 H 0.48978 0.80104 0.34709 0.0
H484 H 0.26332 0.75573 0.37449 0.0
H485 H 0.16473 0.69059 0.39858 0.0
H486 H 0.071 0.45532 0.37952 0.0
H487 H 0.17017 0.51882 0.35559 0.0
C488 C 0.24623 0.76337 0.25072 0.0
C489 C 0.18878 0.68577 0.24406 0.0
C490 C 0.2819 0.77088 0.27267 0.0
C491 C 0.2629 0.70072 0.28844 0.0
C492 C 0.20474 0.62315 0.2818 0.0
C493 C 0.16763 0.61578 0.25984 0.0
C494 C 0.3025 0.70851 0.31183 0.0
C495 C 0.25091 0.67072 0.32678 0.0
C496 C 0.38996 0.75556 0.31935 0.0
C497 C 0.44908 0.79311 0.30483 0.0
C498 C 0.45023 0.74455 0.29253 0.0
C499 C 0.50551 0.78054 0.27872 0.0
C500 C 0.56036 0.86496 0.27718 0.0
C501 C 0.56022 0.91354 0.28949 0.0
C502 C 0.50503 0.87788 0.30332 0.0
C503 C 0.43722 0.68642 0.41751 0.0
C504 C 0.48522 0.76668 0.42308 0.0
C505 C 0.40012 0.67374 0.39582 0.0
C506 C 0.41039 0.74104 0.3793 0.0
C507 C 0.4595 0.82116 0.38481 0.0
C508 C 0.49629 0.83387 0.40645 0.0
C509 C 0.37105 0.72855 0.35622 0.0
C510 C 0.42276 0.76554 0.34135 0.0
C511 C 0.28385 0.6803 0.34883 0.0
C512 C 0.22502 0.64191 0.36346 0.0
C513 C 0.22242 0.68995 0.37562 0.0
C514 C 0.16628 0.65334 0.38922 0.0
C515 C 0.11186 0.56882 0.39064 0.0
C516 C 0.11338 0.52074 0.37845 0.0
C517 C 0.16957 0.55701 0.36488 0.0
H518 H 0.06834 0.54063 0.40114 0.0
H519 H 0.60308 0.89269 0.26647 0.0
H520 H 0.94778 0.47227 0.80056 0.0
H521 H 0.92668 0.42411 0.76735 0.0
H522 H 0.02254 0.67452 0.73515 0.0
H523 H 0.04236 0.72287 0.76822 0.0
H524 H 0.87342 0.57352 0.71206 0.0
H525 H 0.13614 0.57214 0.74701 0.0
H526 H 0.23783 0.53828 0.77652 0.0
H527 H 0.07007 0.28041 0.77509 0.0
H528 H 0.96731 0.31252 0.74543 0.0
H529 H 0.89447 0.49963 0.61535 0.0
H530 H 0.92697 0.54715 0.64956 0.0
H531 H 0.83219 0.29613 0.6813 0.0
H532 H 0.79828 0.24781 0.64702 0.0
H533 H 0.9805 0.39601 0.7049 0.0
H534 H 0.71983 0.39798 0.66885 0.0
H535 H 0.61835 0.43215 0.6394 0.0
H536 H 0.77954 0.68957 0.64382 0.0
H537 H 0.88286 0.65714 0.67302 0.0
C538 C 0.96523 0.51707 0.78646 0.0
C539 C 0.99653 0.60128 0.78695 0.0
C540 C 0.95366 0.48957 0.76755 0.0
C541 C 0.97328 0.54579 0.7488 0.0
C542 C 1.00711 0.63017 0.74946 0.0
C543 C 0.01906 0.65776 0.7684 0.0
C544 C 0.9528 0.51601 0.72812 0.0
C545 C 0.89797 0.53592 0.71035 0.0
C546 C 0.98259 0.4646 0.7262 0.0
C547 C 0.04387 0.4448 0.74407 0.0
C548 C 0.12073 0.50818 0.75304 0.0
C549 C 0.1787 0.48928 0.76971 0.0
C550 C 0.16059 0.4072 0.77752 0.0
C551 C 0.08421 0.34386 0.76881 0.0
C552 C 0.02619 0.36237 0.75204 0.0
C553 C 0.87938 0.45434 0.62952 0.0
C554 C 0.84335 0.36983 0.6284 0.0
C555 C 0.89827 0.48167 0.64909 0.0
C556 C 0.88126 0.42513 0.66793 0.0
C557 C 0.84589 0.34081 0.66695 0.0
C558 C 0.82681 0.31335 0.64736 0.0
C559 C 0.90177 0.45433 0.68872 0.0
C560 C 0.95619 0.43393 0.70656 0.0
C561 C 0.87146 0.50531 0.69072 0.0
C562 C 0.80974 0.52511 0.67295 0.0
C563 C 0.7342 0.46195 0.66337 0.0
C564 C 0.67625 0.48101 0.64674 0.0
C565 C 0.69275 0.56301 0.63965 0.0
C566 C 0.76705 0.62612 0.64925 0.0
C567 C 0.82533 0.60741 0.66585 0.0
H568 H 0.64774 0.57764 0.6268 0.0
H569 H 0.20577 0.39261 0.79029 0.0
loop_
_geom_bond_atom_site_label_1
_geom_bond_atom_site_label_2
_geom_bond_distance
_geom_bond_site_symmetry_2
_ccdc_geom_bond_type
C0 Eu1 2.835 . S
C0 C2 1.500 . S
C0 O20 1.257 . S
C0 O21 1.260 . S
Eu1 C0 2.835 . S
Eu1 O20 2.473 . S
Eu1 O21 2.480 . S
Eu1 O22 2.430 . S
Eu1 O23 2.670 1_455 S
Eu1 O24 2.394 1_455 S
Eu1 O29 2.355 . S
Eu1 O31 2.374 . S
C2 C0 1.500 . S
C2 C3 1.377 . S
C2 C7 1.377 . S
C3 C2 1.377 . S
C3 C4 1.395 . S
C3 H32 0.931 . S
C4 C3 1.395 . S
C4 C5 1.383 . S
C4 H33 0.931 . S
C5 C4 1.383 . S
C5 C6 1.394 . S
C6 C5 1.394 . S
C6 C7 1.378 . S
C6 H34 0.931 . S
C7 C2 1.377 . S
C7 C6 1.378 . S
C7 H35 0.931 . S
C8 O22 1.259 . S
C8 O23 1.270 1_455 S
C9 O24 1.251 . S
C9 O25 1.251 . S
C10 Eu11 2.835 . S
C10 C12 1.500 . S
C10 O26 1.257 . S
C10 O27 1.260 . S
Eu11 C10 2.835 . S
Eu11 O23 2.355 . S
Eu11 O25 2.374 . S
Eu11 O26 2.473 . S
Eu11 O27 2.480 . S
Eu11 O28 2.430 . S
Eu11 O29 2.670 1_655 S
Eu11 O30 2.394 1_655 S
C12 C10 1.500 . S
C12 C13 1.377 . S
C12 C17 1.377 . S
C13 C12 1.377 . S
C13 C14 1.395 . S
C13 H36 0.931 . S
C14 C13 1.395 . S
C14 C15 1.383 . S
C14 H37 0.931 . S
C15 C14 1.383 . S
C15 C16 1.394 . S
C16 C15 1.394 . S
C16 C17 1.378 . S
C16 H38 0.931 . S
C17 C12 1.377 . S
C17 C16 1.378 . S
C17 H39 0.931 . S
C18 O28 1.259 . S
C18 O29 1.270 1_655 S
C19 O30 1.251 . S
C19 O31 1.251 . S
O20 C0 1.257 . S
O20 Eu1 2.473 . S
O21 C0 1.260 . S
O21 Eu1 2.480 . S
O22 Eu1 2.430 . S
O22 C8 1.259 . S
O23 Eu1 2.670 1_655 S
O23 C8 1.270 1_655 S
O23 Eu11 2.355 . S
O24 Eu1 2.394 1_655 S
O24 C9 1.251 . S
O25 C9 1.251 . S
O25 Eu11 2.374 . S
O26 C10 1.257 . S
O26 Eu11 2.473 . S
O27 C10 1.260 . S
O27 Eu11 2.480 . S
O28 Eu11 2.430 . S
O28 C18 1.259 . S
O29 Eu1 2.355 . S
O29 Eu11 2.670 1_455 S
O29 C18 1.270 1_455 S
O30 Eu11 2.394 1_455 S
O30 C19 1.251 . S
O31 Eu1 2.374 . S
O31 C19 1.251 . S
H32 C3 0.931 . S
H33 C4 0.931 . S
H34 C6 0.931 . S
H35 C7 0.931 . S
H36 C13 0.931 . S
H37 C14 0.931 . S
H38 C16 0.931 . S
H39 C17 0.931 . S
C40 Eu41 2.835 . S
C40 C42 1.500 . S
C40 O60 1.257 . S
C40 O61 1.260 . S
Eu41 C40 2.835 . S
Eu41 O60 2.473 . S
Eu41 O61 2.480 . S
Eu41 O62 2.430 . S
Eu41 O63 2.670 1_565 S
Eu41 O64 2.394 1_565 S
Eu41 O69 2.355 . S
Eu41 O71 2.374 . S
C42 C40 1.500 . S
C42 C43 1.377 . S
C42 C47 1.377 . S
C43 C42 1.377 . S
C43 C44 1.395 . S
C43 H72 0.931 . S
C44 C43 1.395 . S
C44 C45 1.383 . S
C44 H73 0.931 . S
C45 C44 1.383 . S
C45 C46 1.394 . S
C46 C45 1.394 . S
C46 C47 1.378 . S
C46 H74 0.931 . S
C47 C42 1.377 . S
C47 C46 1.378 . S
C47 H75 0.931 . S
C48 O62 1.259 . S
C48 O63 1.270 1_565 S
C49 O64 1.251 . S
C49 O65 1.251 . S
C50 Eu51 2.835 . S
C50 C52 1.500 . S
C50 O66 1.257 . S
C50 O67 1.260 . S
Eu51 C50 2.835 . S
Eu51 O63 2.355 . S
Eu51 O65 2.374 . S
Eu51 O66 2.473 . S
Eu51 O67 2.480 . S
Eu51 O68 2.430 . S
Eu51 O69 2.670 1_545 S
Eu51 O70 2.394 . S
C52 C50 1.500 . S
C52 C53 1.377 . S
C52 C57 1.377 . S
C53 C52 1.377 . S
C53 C54 1.395 . S
C53 H76 0.931 . S
C54 C53 1.395 . S
C54 C55 1.383 . S
C54 H77 0.931 . S
C55 C54 1.383 . S
C55 C56 1.394 . S
C56 C55 1.394 . S
C56 C57 1.378 . S
C56 H78 0.931 . S
C57 C52 1.377 . S
C57 C56 1.378 . S
C57 H79 0.931 . S
C58 O68 1.259 . S
C58 O69 1.270 1_545 S
C59 O70 1.251 1_565 S
C59 O71 1.251 . S
O60 C40 1.257 . S
O60 Eu41 2.473 . S
O61 C40 1.260 . S
O61 Eu41 2.480 . S
O62 Eu41 2.430 . S
O62 C48 1.259 . S
O63 Eu41 2.670 1_545 S
O63 C48 1.270 1_545 S
O63 Eu51 2.355 . S
O64 Eu41 2.394 1_545 S
O64 C49 1.251 . S
O65 C49 1.251 . S
O65 Eu51 2.374 . S
O66 C50 1.257 . S
O66 Eu51 2.473 . S
O67 C50 1.260 . S
O67 Eu51 2.480 . S
O68 Eu51 2.430 . S
O68 C58 1.259 . S
O69 Eu41 2.355 . S
O69 Eu51 2.670 1_565 S
O69 C58 1.270 1_565 S
O70 Eu51 2.394 . S
O70 C59 1.251 1_545 S
O71 Eu41 2.374 . S
O71 C59 1.251 . S
H72 C43 0.931 . S
H73 C44 0.931 . S
H74 C46 0.931 . S
H75 C47 0.931 . S
H76 C53 0.931 . S
H77 C54 0.931 . S
H78 C56 0.931 . S
H79 C57 0.931 . S
C80 Eu81 2.835 . S
C80 C82 1.500 . S
C80 O100 1.257 . S
C80 O101 1.260 . S
Eu81 C80 2.835 . S
Eu81 O100 2.473 . S
Eu81 O101 2.480 . S
Eu81 O102 2.430 . S
Eu81 O103 2.670 . S
Eu81 O104 2.394 . S
Eu81 O109 2.355 . S
Eu81 O111 2.374 . S
C82 C80 1.500 . S
C82 C83 1.377 . S
C82 C87 1.377 . S
C83 C82 1.377 . S
C83 C84 1.395 . S
C83 H112 0.931 . S
C84 C83 1.395 . S
C84 C85 1.383 . S
C84 H113 0.931 . S
C85 C84 1.383 . S
C85 C86 1.394 1_655 S
C86 C85 1.394 1_455 S
C86 C87 1.378 1_455 S
C86 H114 0.931 . S
C87 C82 1.377 . S
C87 C86 1.378 1_655 S
C87 H115 0.931 1_655 S
C88 O102 1.259 . S
C88 O103 1.270 . S
C89 O104 1.251 . S
C89 O105 1.251 . S
C90 Eu91 2.835 . S
C90 C92 1.500 . S
C90 O106 1.257 . S
C90 O107 1.260 . S
Eu91 C90 2.835 . S
Eu91 O103 2.355 . S
Eu91 O105 2.374 . S
Eu91 O106 2.473 . S
Eu91 O107 2.480 . S
Eu91 O108 2.430 1_565 S
Eu91 O109 2.670 . S
Eu91 O110 2.394 . S
C92 C90 1.500 . S
C92 C93 1.386 . S
C92 C97 1.377 . S
C93 C92 1.386 . S
C93 C94 1.389 1_565 S
C93 H116 0.927 1_565 S
C94 C93 1.389 1_545 S
C94 C95 1.383 1_545 S
C94 H117 0.931 . S
C95 C94 1.383 1_565 S
C95 C96 1.394 . S
C96 C95 1.394 . S
C96 C97 1.378 . S
C96 H118 0.931 . S
C97 C92 1.377 . S
C97 C96 1.378 . S
C97 H119 0.931 . S
C98 O108 1.259 1_565 S
C98 O109 1.270 . S
C99 O110 1.251 . S
C99 O111 1.251 . S
O100 C80 1.257 . S
O100 Eu81 2.473 . S
O101 C80 1.260 . S
O101 Eu81 2.480 . S
O102 Eu81 2.430 . S
O102 C88 1.259 . S
O103 Eu81 2.670 . S
O103 C88 1.270 . S
O103 Eu91 2.355 . S
O104 Eu81 2.394 . S
O104 C89 1.251 . S
O105 C89 1.251 . S
O105 Eu91 2.374 . S
O106 C90 1.257 . S
O106 Eu91 2.473 . S
O107 C90 1.260 . S
O107 Eu91 2.480 . S
O108 Eu91 2.430 1_545 S
O108 C98 1.259 1_545 S
O109 Eu81 2.355 . S
O109 Eu91 2.670 . S
O109 C98 1.270 . S
O110 Eu91 2.394 . S
O110 C99 1.251 . S
O111 Eu81 2.374 . S
O111 C99 1.251 . S
H112 C83 0.931 . S
H113 C84 0.931 . S
H114 C86 0.931 . S
H115 C87 0.931 1_455 S
H116 C93 0.927 1_545 S
H117 C94 0.931 . S
H118 C96 0.931 . S
H119 C97 0.931 . S
H120 C138 0.951 . S
H121 C140 0.951 . S
H122 C142 0.950 1_545 S
H123 C143 0.950 . S
H124 C145 0.950 . S
H125 C148 0.950 . S
H126 C149 0.950 . S
H127 C151 0.950 1_565 S
H128 C152 0.950 . S
H129 C153 0.951 . S
H130 C155 0.951 . S
H131 C157 0.950 . S
H132 C158 0.950 . S
H133 C160 0.950 . S
H134 C163 0.950 . S
H135 C164 0.950 . S
H136 C166 0.950 . S
H137 C167 0.950 . S
C138 H120 0.951 . S
C138 C139 1.366 1_655 S
C138 C140 1.388 . S
C139 C138 1.366 1_455 S
C139 C143 1.385 . S
C140 H121 0.951 . S
C140 C138 1.388 . S
C140 C141 1.366 1_655 S
C141 C140 1.366 1_455 S
C141 C142 1.414 . S
C141 C144 1.499 1_565 S
C142 H122 0.950 1_565 S
C142 C141 1.414 . S
C142 C143 1.374 . S
C143 H123 0.950 . S
C143 C139 1.385 . S
C143 C142 1.374 . S
C144 C141 1.499 1_545 S
C144 C145 1.373 . S
C144 C146 1.389 1_455 S
C145 H124 0.950 . S
C145 C144 1.373 . S
C145 C161 1.377 . S
C146 C144 1.389 1_655 S
C146 C147 1.524 . S
C146 C160 1.377 . S
C147 C146 1.524 . S
C147 C148 1.397 . S
C147 C152 1.363 . S
C148 H125 0.950 . S
C148 C147 1.397 . S
C148 C149 1.334 . S
C149 H126 0.950 . S
C149 C148 1.334 . S
C149 C150 1.287 . S
C150 C149 1.287 . S
C150 C151 1.524 . S
C150 H169 0.913 1_545 S
C151 H127 0.950 1_545 S
C151 C150 1.524 . S
C151 C152 1.415 . S
C152 H128 0.950 . S
C152 C147 1.363 . S
C152 C151 1.415 . S
C153 H129 0.951 . S
C153 C154 1.366 1_455 S
C153 C155 1.388 . S
C154 C153 1.366 1_655 S
C154 C158 1.385 . S
C155 H130 0.951 . S
C155 C153 1.388 . S
C155 C156 1.366 1_455 S
C156 C155 1.366 1_655 S
C156 C157 1.414 . S
C156 C159 1.499 . S
C157 H131 0.950 . S
C157 C156 1.414 . S
C157 C158 1.374 . S
C158 H132 0.950 . S
C158 C154 1.385 . S
C158 C157 1.374 . S
C159 C156 1.499 . S
C159 C160 1.373 . S
C159 C161 1.389 1_655 S
C160 H133 0.950 . S
C160 C146 1.377 . S
C160 C159 1.373 . S
C161 C145 1.377 . S
C161 C159 1.389 1_455 S
C161 C162 1.524 . S
C162 C161 1.524 . S
C162 C163 1.397 . S
C162 C167 1.363 . S
C163 H134 0.950 . S
C163 C162 1.397 . S
C163 C164 1.334 . S
C164 H135 0.950 . S
C164 C163 1.334 . S
C164 C165 1.287 . S
C165 C164 1.287 . S
C165 C166 1.524 . S
C165 H168 0.999 . S
C166 H136 0.950 . S
C166 C165 1.524 . S
C166 C167 1.415 . S
C167 H137 0.950 . S
C167 C162 1.363 . S
C167 C166 1.415 . S
H168 C165 0.999 . S
H169 C150 0.913 1_565 S
H170 C188 0.951 . S
H171 C190 0.951 . S
H172 C192 0.950 . S
H173 C193 0.950 . S
H174 C195 0.950 . S
H175 C198 0.950 1_545 S
H176 C199 0.950 . S
H177 C201 0.950 . S
H178 C202 0.950 . S
H179 C203 0.951 . S
H180 C205 0.951 . S
H181 C207 0.950 . S
H182 C208 0.950 . S
H183 C210 0.950 . S
H184 C213 0.950 1_565 S
H185 C214 0.950 . S
H186 C216 0.950 . S
H187 C217 0.950 . S
C188 H170 0.951 . S
C188 C189 1.366 1_565 S
C188 C190 1.388 . S
C189 C188 1.366 1_545 S
C189 C193 1.385 . S
C190 H171 0.951 . S
C190 C188 1.388 . S
C190 C191 1.366 1_565 S
C191 C190 1.366 1_545 S
C191 C192 1.414 . S
C191 C194 1.499 . S
C192 H172 0.950 . S
C192 C191 1.414 . S
C192 C193 1.374 . S
C193 H173 0.950 . S
C193 C189 1.385 . S
C193 C192 1.374 . S
C194 C191 1.499 . S
C194 C195 1.373 . S
C194 C196 1.389 1_545 S
C195 H174 0.950 . S
C195 C194 1.373 . S
C195 C211 1.377 . S
C196 C194 1.389 1_565 S
C196 C197 1.524 . S
C196 C210 1.377 . S
C197 C196 1.524 . S
C197 C198 1.397 . S
C197 C202 1.363 . S
C198 H175 0.950 1_565 S
C198 C197 1.397 . S
C198 C199 1.334 . S
C199 H176 0.950 . S
C199 C198 1.334 . S
C199 C200 1.287 . S
C200 C199 1.287 . S
C200 C201 1.524 . S
C200 H219 0.913 . S
C201 H177 0.950 . S
C201 C200 1.524 . S
C201 C202 1.415 . S
C202 H178 0.950 . S
C202 C197 1.363 . S
C202 C201 1.415 . S
C203 H179 0.951 . S
C203 C204 1.366 1_545 S
C203 C205 1.388 1_655 S
C204 C203 1.366 1_565 S
C204 C208 1.385 . S
C205 H180 0.951 . S
C205 C203 1.388 1_455 S
C205 C206 1.366 . S
C206 C205 1.366 . S
C206 C207 1.414 1_445 S
C206 C209 1.498 . S
C207 H181 0.950 . S
C207 C206 1.414 1_665 S
C207 C208 1.374 . S
C208 H182 0.950 . S
C208 C204 1.385 . S
C208 C207 1.374 . S
C209 C206 1.498 . S
C209 C210 1.375 1_545 S
C209 C211 1.389 . S
C210 H183 0.950 . S
C210 C196 1.377 . S
C210 C209 1.375 1_565 S
C211 C195 1.377 . S
C211 C209 1.389 . S
C211 C212 1.524 . S
C212 C211 1.524 . S
C212 C213 1.397 . S
C212 C217 1.363 . S
C213 H184 0.950 1_545 S
C213 C212 1.397 . S
C213 C214 1.334 . S
C214 H185 0.950 . S
C214 C213 1.334 . S
C214 C215 1.287 . S
C215 C214 1.287 . S
C215 C216 1.524 . S
C215 H218 0.999 . S
C216 H186 0.950 . S
C216 C215 1.524 . S
C216 C217 1.415 . S
C217 H187 0.950 . S
C217 C212 1.363 . S
C217 C216 1.415 . S
H218 C215 0.999 . S
H219 C200 0.913 . S
H220 C238 0.951 1_565 S
H221 C240 0.951 . S
H222 C242 0.950 . S
H223 C243 0.950 1_655 S
H224 C245 0.950 . S
H225 C248 0.950 . S
H226 C249 0.950 . S
H227 C251 0.950 . S
H228 C252 0.950 . S
H229 C253 0.951 . S
H230 C255 0.951 . S
H231 C257 0.950 . S
H232 C258 0.950 . S
H233 C260 0.950 . S
H234 C263 0.950 . S
H235 C264 0.950 . S
H236 C266 0.950 . S
H237 C267 0.950 . S
C238 H220 0.951 1_545 S
C238 C239 1.366 . S
C238 C240 1.388 . S
C239 C238 1.366 . S
C239 C243 1.385 . S
C240 H221 0.951 . S
C240 C238 1.388 . S
C240 C241 1.366 . S
C241 C240 1.366 . S
C241 C242 1.414 . S
C241 C244 1.499 . S
C242 H222 0.950 . S
C242 C241 1.414 . S
C242 C243 1.374 . S
C243 H223 0.950 1_455 S
C243 C239 1.385 . S
C243 C242 1.374 . S
C244 C241 1.499 . S
C244 C245 1.373 . S
C244 C246 1.389 . S
C245 H224 0.950 . S
C245 C244 1.373 . S
C245 C261 1.377 . S
C246 C244 1.389 . S
C246 C247 1.524 . S
C246 C260 1.377 . S
C247 C246 1.524 . S
C247 C248 1.397 . S
C247 C252 1.363 . S
C248 H225 0.950 . S
C248 C247 1.397 . S
C248 C249 1.334 . S
C249 H226 0.950 . S
C249 C248 1.334 . S
C249 C250 1.287 . S
C250 C249 1.287 . S
C250 C251 1.524 . S
C250 H269 0.913 . S
C251 H227 0.950 . S
C251 C250 1.524 . S
C251 C252 1.415 . S
C252 H228 0.950 . S
C252 C247 1.363 . S
C252 C251 1.415 . S
C253 H229 0.951 . S
C253 C254 1.366 . S
C253 C255 1.388 . S
C254 C253 1.366 . S
C254 C258 1.385 . S
C255 H230 0.951 . S
C255 C253 1.388 . S
C255 C256 1.366 . S
C256 C255 1.366 . S
C256 C257 1.414 . S
C256 C259 1.499 . S
C257 H231 0.950 . S
C257 C256 1.414 . S
C257 C258 1.374 . S
C258 H232 0.950 . S
C258 C254 1.385 . S
C258 C257 1.374 . S
C259 C256 1.499 . S
C259 C260 1.373 . S
C259 C261 1.389 . S
C260 H233 0.950 . S
C260 C246 1.377 . S
C260 C259 1.373 . S
C261 C245 1.377 . S
C261 C259 1.389 . S
C261 C262 1.524 . S
C262 C261 1.524 . S
C262 C263 1.397 . S
C262 C267 1.363 . S
C263 H234 0.950 . S
C263 C262 1.397 . S
C263 C264 1.334 . S
C264 H235 0.950 . S
C264 C263 1.334 . S
C264 C265 1.287 . S
C265 C264 1.287 . S
C265 C266 1.524 . S
C265 H268 0.999 . S
C266 H236 0.950 . S
C266 C265 1.524 . S
C266 C267 1.415 . S
C267 H237 0.950 . S
C267 C262 1.363 . S
C267 C266 1.415 . S
H268 C265 0.999 . S
H269 C250 0.913 . S
H270 C288 0.951 . S
H271 C290 0.951 . S
H272 C292 0.950 1_545 S
H273 C293 0.950 1_545 S
H274 C295 0.950 . S
H275 C298 0.950 . S
H276 C299 0.950 . S
H277 C301 0.950 . S
H278 C302 0.950 . S
H279 C303 0.951 . S
H280 C305 0.951 . S
H281 C307 0.911 1_556 S
H282 C308 0.950 . S
H283 C310 0.950 . S
H284 C313 0.950 . S
H285 C314 0.950 . S
H286 C316 0.950 . S
H287 C317 0.950 . S
C288 H270 0.951 . S
C288 C289 1.366 . S
C288 C290 1.388 . S
C289 C288 1.366 . S
C289 C293 1.385 . S
C290 H271 0.951 . S
C290 C288 1.388 . S
C290 C291 1.366 . S
C291 C290 1.366 . S
C291 C292 1.414 . S
C291 C294 1.499 . S
C292 H272 0.950 1_565 S
C292 C291 1.414 . S
C292 C293 1.374 . S
C293 H273 0.950 1_565 S
C293 C289 1.385 . S
C293 C292 1.374 . S
C294 C291 1.499 . S
C294 C295 1.373 . S
C294 C296 1.389 . S
C295 H274 0.950 . S
C295 C294 1.373 . S
C295 C311 1.377 1_556 S
C296 C294 1.389 . S
C296 C297 1.524 . S
C296 C310 1.377 . S
C297 C296 1.524 . S
C297 C298 1.397 1_565 S
C297 C302 1.363 . S
C298 H275 0.950 . S
C298 C297 1.397 1_545 S
C298 C299 1.334 . S
C299 H276 0.950 . S
C299 C298 1.334 . S
C299 C300 1.287 . S
C300 C299 1.287 . S
C300 C301 1.524 1_545 S
C300 H319 0.913 . S
C301 H277 0.950 . S
C301 C300 1.524 1_565 S
C301 C302 1.415 . S
C302 H278 0.950 . S
C302 C297 1.363 . S
C302 C301 1.415 . S
C303 H279 0.951 . S
C303 C304 1.366 . S
C303 C305 1.388 . S
C304 C303 1.366 . S
C304 C308 1.385 . S
C305 H280 0.951 . S
C305 C303 1.388 . S
C305 C306 1.366 . S
C306 C305 1.366 . S
C306 C307 1.414 . S
C306 C309 1.499 1_554 S
C307 H281 0.911 1_554 S
C307 C306 1.414 . S
C307 C308 1.374 . S
C308 H282 0.950 . S
C308 C304 1.385 . S
C308 C307 1.374 . S
C309 C306 1.499 1_556 S
C309 C310 1.373 . S
C309 C311 1.389 1_556 S
C310 H283 0.950 . S
C310 C296 1.377 . S
C310 C309 1.373 . S
C311 C295 1.377 1_554 S
C311 C309 1.389 1_554 S
C311 C312 1.524 . S
C312 C311 1.524 . S
C312 C313 1.397 . S
C312 C317 1.363 . S
C313 H284 0.950 . S
C313 C312 1.397 . S
C313 C314 1.334 . S
C314 H285 0.950 . S
C314 C313 1.334 . S
C314 C315 1.287 . S
C315 C314 1.287 . S
C315 C316 1.524 . S
C315 H318 0.999 . S
C316 H286 0.950 . S
C316 C315 1.524 . S
C316 C317 1.415 . S
C317 H287 0.950 . S
C317 C312 1.363 . S
C317 C316 1.415 . S
H318 C315 0.999 . S
H319 C300 0.913 . S
H320 C338 0.951 . S
H321 C340 0.951 . S
H322 C342 0.950 . S
H323 C343 0.950 . S
H324 C345 0.950 . S
H325 C348 0.950 . S
H326 C349 0.950 . S
H327 C351 0.950 . S
H328 C352 0.950 . S
H329 C353 0.951 . S
H330 C355 0.951 . S
H331 C357 0.950 . S
H332 C358 0.950 . S
H333 C360 0.950 . S
H334 C363 0.950 . S
H335 C364 0.950 . S
H336 C366 0.950 . S
H337 C367 0.950 . S
C338 H320 0.951 . S
C338 C339 1.366 . S
C338 C340 1.388 . S
C339 C338 1.366 . S
C339 C343 1.385 . S
C340 H321 0.951 . S
C340 C338 1.388 . S
C340 C341 1.366 . S
C341 C340 1.366 . S
C341 C342 1.414 . S
C341 C344 1.499 . S
C342 H322 0.950 . S
C342 C341 1.414 . S
C342 C343 1.374 . S
C343 H323 0.950 . S
C343 C339 1.385 . S
C343 C342 1.374 . S
C344 C341 1.499 . S
C344 C345 1.373 . S
C344 C346 1.389 . S
C345 H324 0.950 . S
C345 C344 1.373 . S
C345 C361 1.377 . S
C346 C344 1.389 . S
C346 C347 1.524 . S
C346 C360 1.377 . S
C347 C346 1.524 . S
C347 C348 1.397 . S
C347 C352 1.363 . S
C348 H325 0.950 . S
C348 C347 1.397 . S
C348 C349 1.334 . S
C349 H326 0.950 . S
C349 C348 1.334 . S
C349 C350 1.287 . S
C350 C349 1.287 . S
C350 C351 1.524 . S
C350 H369 0.913 . S
C351 H327 0.950 . S
C351 C350 1.524 . S
C351 C352 1.415 . S
C352 H328 0.950 . S
C352 C347 1.363 . S
C352 C351 1.415 . S
C353 H329 0.951 . S
C353 C354 1.366 . S
C353 C355 1.388 . S
C354 C353 1.366 . S
C354 C358 1.385 . S
C355 H330 0.951 . S
C355 C353 1.388 . S
C355 C356 1.366 . S
C356 C355 1.366 . S
C356 C357 1.414 . S
C356 C359 1.499 . S
C357 H331 0.950 . S
C357 C356 1.414 . S
C357 C358 1.374 . S
C358 H332 0.950 . S
C358 C354 1.385 . S
C358 C357 1.374 . S
C359 C356 1.499 . S
C359 C360 1.373 . S
C359 C361 1.389 . S
C360 H333 0.950 . S
C360 C346 1.377 . S
C360 C359 1.373 . S
C361 C345 1.377 . S
C361 C359 1.389 . S
C361 C362 1.524 . S
C362 C361 1.524 . S
C362 C363 1.397 . S
C362 C367 1.363 . S
C363 H334 0.950 . S
C363 C362 1.397 . S
C363 C364 1.334 . S
C364 H335 0.950 . S
C364 C363 1.334 . S
C364 C365 1.287 . S
C365 C364 1.287 . S
C365 C366 1.524 . S
C365 H368 0.999 . S
C366 H336 0.950 . S
C366 C365 1.524 . S
C366 C367 1.415 . S
C367 H337 0.950 . S
C367 C362 1.363 . S
C367 C366 1.415 . S
H368 C365 0.999 . S
H369 C350 0.913 . S
H370 C388 0.951 . S
H371 C390 0.951 . S
H372 C392 0.950 . S
H373 C393 0.950 . S
H374 C395 0.950 . S
H375 C398 0.950 . S
H376 C399 0.950 . S
H377 C401 0.950 . S
H378 C402 0.950 . S
H379 C403 0.951 . S
H380 C405 0.951 . S
H381 C407 0.950 . S
H382 C408 0.950 . S
H383 C410 0.950 . S
H384 C413 0.950 . S
H385 C414 0.950 . S
H386 C416 0.950 . S
H387 C417 0.950 . S
C388 H370 0.951 . S
C388 C389 1.366 . S
C388 C390 1.388 . S
C389 C388 1.366 . S
C389 C393 1.385 . S
C390 H371 0.951 . S
C390 C388 1.388 . S
C390 C391 1.366 . S
C391 C390 1.366 . S
C391 C392 1.414 . S
C391 C394 1.499 . S
C392 H372 0.950 . S
C392 C391 1.414 . S
C392 C393 1.374 . S
C393 H373 0.950 . S
C393 C389 1.385 . S
C393 C392 1.374 . S
C394 C391 1.499 . S
C394 C395 1.373 . S
C394 C396 1.389 . S
C395 H374 0.950 . S
C395 C394 1.373 . S
C395 C411 1.377 . S
C396 C394 1.389 . S
C396 C397 1.524 1_565 S
C396 C410 1.377 . S
C397 C396 1.524 1_545 S
C397 C398 1.397 . S
C397 C402 1.363 . S
C398 H375 0.950 . S
C398 C397 1.397 . S
C398 C399 1.334 . S
C399 H376 0.950 . S
C399 C398 1.334 . S
C399 C400 1.287 . S
C400 C399 1.287 . S
C400 C401 1.524 1_655 S
C400 H419 0.913 1_655 S
C401 H377 0.950 . S
C401 C400 1.524 1_455 S
C401 C402 1.415 1_455 S
C402 H378 0.950 . S
C402 C397 1.363 . S
C402 C401 1.415 1_655 S
C403 H379 0.951 . S
C403 C404 1.366 . S
C403 C405 1.388 . S
C404 C403 1.366 . S
C404 C408 1.385 . S
C405 H380 0.951 . S
C405 C403 1.388 . S
C405 C406 1.366 . S
C406 C405 1.366 . S
C406 C407 1.414 . S
C406 C409 1.499 . S
C407 H381 0.950 . S
C407 C406 1.414 . S
C407 C408 1.374 . S
C408 H382 0.950 . S
C408 C404 1.385 . S
C408 C407 1.374 . S
C409 C406 1.499 . S
C409 C410 1.373 . S
C409 C411 1.389 . S
C410 H383 0.950 . S
C410 C396 1.377 . S
C410 C409 1.373 . S
C411 C395 1.377 . S
C411 C409 1.389 . S
C411 C412 1.524 . S
C412 C411 1.524 . S
C412 C413 1.397 . S
C412 C417 1.363 . S
C413 H384 0.950 . S
C413 C412 1.397 . S
C413 C414 1.334 . S
C414 H385 0.950 . S
C414 C413 1.334 . S
C414 C415 1.287 . S
C415 C414 1.287 . S
C415 C416 1.524 . S
C415 H418 0.999 . S
C416 H386 0.950 . S
C416 C415 1.524 . S
C416 C417 1.415 . S
C417 H387 0.950 . S
C417 C412 1.363 . S
C417 C416 1.415 . S
H418 C415 0.999 . S
H419 C400 0.913 1_455 S
H420 C438 0.951 . S
H421 C440 0.951 . S
H422 C442 0.950 . S
H423 C443 0.950 . S
H424 C445 0.950 . S
H425 C448 0.950 1_455 S
H426 C449 0.950 1_445 S
H427 C451 0.950 1_545 S
H428 C452 0.950 . S
H429 C453 0.951 . S
H430 C455 0.951 . S
H431 C457 0.950 . S
H432 C458 0.950 . S
H433 C460 0.950 . S
H434 C463 0.950 . S
H435 C464 0.950 . S
H436 C466 0.950 . S
H437 C467 0.950 . S
C438 H420 0.951 . S
C438 C439 1.366 . S
C438 C440 1.388 . S
C439 C438 1.366 . S
C439 C443 1.385 . S
C440 H421 0.951 . S
C440 C438 1.388 . S
C440 C441 1.366 . S
C441 C440 1.366 . S
C441 C442 1.414 . S
C441 C444 1.499 . S
C442 H422 0.950 . S
C442 C441 1.414 . S
C442 C443 1.374 . S
C443 H423 0.950 . S
C443 C439 1.385 . S
C443 C442 1.374 . S
C444 C441 1.499 . S
C444 C445 1.373 . S
C444 C446 1.389 . S
C445 H424 0.950 . S
C445 C444 1.373 . S
C445 C461 1.377 1_556 S
C446 C444 1.389 . S
C446 C447 1.524 . S
C446 C460 1.377 1_556 S
C447 C446 1.524 . S
C447 C448 1.397 . S
C447 C452 1.363 . S
C448 H425 0.950 1_655 S
C448 C447 1.397 . S
C448 C449 1.334 . S
C449 H426 0.950 1_665 S
C449 C448 1.334 . S
C449 C450 1.287 1_565 S
C450 C449 1.287 1_545 S
C450 C451 1.524 1_545 S
C450 H469 0.913 . S
C451 H427 0.950 1_565 S
C451 C450 1.524 1_565 S
C451 C452 1.415 . S
C452 H428 0.950 . S
C452 C447 1.363 . S
C452 C451 1.415 . S
C453 H429 0.951 . S
C453 C454 1.366 . S
C453 C455 1.388 . S
C454 C453 1.366 . S
C454 C458 1.385 . S
C455 H430 0.951 . S
C455 C453 1.388 . S
C455 C456 1.366 . S
C456 C455 1.366 . S
C456 C457 1.414 . S
C456 C459 1.499 . S
C457 H431 0.950 . S
C457 C456 1.414 . S
C457 C458 1.374 . S
C458 H432 0.950 . S
C458 C454 1.385 . S
C458 C457 1.374 . S
C459 C456 1.499 . S
C459 C460 1.373 . S
C459 C461 1.389 . S
C460 H433 0.950 . S
C460 C446 1.377 1_554 S
C460 C459 1.373 . S
C461 C445 1.377 1_554 S
C461 C459 1.389 . S
C461 C462 1.524 . S
C462 C461 1.524 . S
C462 C463 1.397 . S
C462 C467 1.363 . S
C463 H434 0.950 . S
C463 C462 1.397 . S
C463 C464 1.334 . S
C464 H435 0.950 . S
C464 C463 1.334 . S
C464 C465 1.287 . S
C465 C464 1.287 . S
C465 C466 1.524 . S
C465 H468 0.999 . S
C466 H436 0.950 . S
C466 C465 1.524 . S
C466 C467 1.415 . S
C467 H437 0.950 . S
C467 C462 1.363 . S
C467 C466 1.415 . S
H468 C465 0.999 . S
H469 C450 0.913 . S
H470 C488 0.951 . S
H471 C490 0.951 . S
H472 C492 0.950 . S
H473 C493 0.950 . S
H474 C495 0.950 . S
H475 C498 0.950 . S
H476 C499 0.950 . S
H477 C501 0.950 1_545 S
H478 C502 0.950 . S
H479 C503 0.951 . S
H480 C505 0.951 . S
H481 C507 0.950 . S
H482 C508 0.950 . S
H483 C510 0.950 . S
H484 C513 0.950 . S
H485 C514 0.950 . S
H486 C516 0.950 . S
H487 C517 0.950 . S
C488 H470 0.951 . S
C488 C489 1.366 . S
C488 C490 1.388 . S
C489 C488 1.366 . S
C489 C493 1.385 . S
C490 H471 0.951 . S
C490 C488 1.388 . S
C490 C491 1.366 . S
C491 C490 1.366 . S
C491 C492 1.414 . S
C491 C494 1.499 . S
C492 H472 0.950 . S
C492 C491 1.414 . S
C492 C493 1.374 . S
C493 H473 0.950 . S
C493 C489 1.385 . S
C493 C492 1.374 . S
C494 C491 1.499 . S
C494 C495 1.373 . S
C494 C496 1.389 . S
C495 H474 0.950 . S
C495 C494 1.373 . S
C495 C511 1.377 . S
C496 C494 1.389 . S
C496 C497 1.524 . S
C496 C510 1.377 . S
C497 C496 1.524 . S
C497 C498 1.397 . S
C497 C502 1.363 . S
C498 H475 0.950 . S
C498 C497 1.397 . S
C498 C499 1.334 . S
C499 H476 0.950 . S
C499 C498 1.334 . S
C499 C500 1.287 . S
C500 C499 1.287 . S
C500 C501 1.524 . S
C500 H519 0.913 1_565 S
C501 H477 0.950 1_565 S
C501 C500 1.524 . S
C501 C502 1.415 . S
C502 H478 0.950 . S
C502 C497 1.363 . S
C502 C501 1.415 . S
C503 H479 0.951 . S
C503 C504 1.366 . S
C503 C505 1.388 . S
C504 C503 1.366 . S
C504 C508 1.385 . S
C505 H480 0.951 . S
C505 C503 1.388 . S
C505 C506 1.366 . S
C506 C505 1.366 . S
C506 C507 1.414 . S
C506 C509 1.499 . S
C507 H481 0.950 . S
C507 C506 1.414 . S
C507 C508 1.374 . S
C508 H482 0.950 . S
C508 C504 1.385 . S
C508 C507 1.374 . S
C509 C506 1.499 . S
C509 C510 1.373 . S
C509 C511 1.389 . S
C510 H483 0.950 . S
C510 C496 1.377 . S
C510 C509 1.373 . S
C511 C495 1.377 . S
C511 C509 1.389 . S
C511 C512 1.524 . S
C512 C511 1.524 . S
C512 C513 1.397 . S
C512 C517 1.363 . S
C513 H484 0.950 . S
C513 C512 1.397 . S
C513 C514 1.334 . S
C514 H485 0.950 . S
C514 C513 1.334 . S
C514 C515 1.287 . S
C515 C514 1.287 . S
C515 C516 1.524 . S
C515 H518 0.999 . S
C516 H486 0.950 . S
C516 C515 1.524 . S
C516 C517 1.415 . S
C517 H487 0.950 . S
C517 C512 1.363 . S
C517 C516 1.415 . S
H518 C515 0.999 . S
H519 C500 0.913 1_545 S
H520 C538 0.951 1_455 S
H521 C540 0.951 . S
H522 C542 0.950 . S
H523 C543 0.950 . S
H524 C545 0.950 . S
H525 C548 0.950 . S
H526 C549 0.950 . S
H527 C551 0.950 . S
H528 C552 0.950 . S
H529 C553 0.951 . S
H530 C555 0.951 . S
H531 C557 0.950 . S
H532 C558 0.950 . S
H533 C560 0.950 1_455 S
H534 C563 0.950 . S
H535 C564 0.950 . S
H536 C566 0.950 . S
H537 C567 0.950 . S
C538 H520 0.951 1_655 S
C538 C539 1.366 . S
C538 C540 1.388 . S
C539 C538 1.366 . S
C539 C543 1.385 . S
C540 H521 0.951 . S
C540 C538 1.388 . S
C540 C541 1.366 . S
C541 C540 1.366 . S
C541 C542 1.414 . S
C541 C544 1.499 . S
C542 H522 0.950 . S
C542 C541 1.414 . S
C542 C543 1.374 . S
C543 H523 0.950 . S
C543 C539 1.385 . S
C543 C542 1.374 . S
C544 C541 1.499 . S
C544 C545 1.373 . S
C544 C546 1.389 1_655 S
C545 H524 0.950 . S
C545 C544 1.373 . S
C545 C561 1.377 . S
C546 C544 1.389 1_455 S
C546 C547 1.524 . S
C546 C560 1.377 1_455 S
C547 C546 1.524 . S
C547 C548 1.397 . S
C547 C552 1.363 . S
C548 H525 0.950 . S
C548 C547 1.397 . S
C548 C549 1.334 . S
C549 H526 0.950 . S
C549 C548 1.334 . S
C549 C550 1.287 . S
C550 C549 1.287 . S
C550 C551 1.524 . S
C550 H569 0.913 . S
C551 H527 0.950 . S
C551 C550 1.524 . S
C551 C552 1.415 . S
C552 H528 0.950 . S
C552 C547 1.363 . S
C552 C551 1.415 . S
C553 H529 0.951 . S
C553 C554 1.366 . S
C553 C555 1.388 . S
C554 C553 1.366 . S
C554 C558 1.385 . S
C555 H530 0.951 . S
C555 C553 1.388 . S
C555 C556 1.366 . S
C556 C555 1.366 . S
C556 C557 1.414 . S
C556 C559 1.499 . S
C557 H531 0.950 . S
C557 C556 1.414 . S
C557 C558 1.374 . S
C558 H532 0.950 . S
C558 C554 1.385 . S
C558 C557 1.374 . S
C559 C556 1.499 . S
C559 C560 1.373 . S
C559 C561 1.389 . S
C560 H533 0.950 1_655 S
C560 C546 1.377 1_655 S
C560 C559 1.373 . S
C561 C545 1.377 . S
C561 C559 1.389 . S
C561 C562 1.524 . S
C562 C561 1.524 . S
C562 C563 1.397 . S
C562 C567 1.363 . S
C563 H534 0.950 . S
C563 C562 1.397 . S
C563 C564 1.334 . S
C564 H535 0.950 . S
C564 C563 1.334 . S
C564 C565 1.287 . S
C565 C564 1.287 . S
C565 C566 1.524 . S
C565 H568 0.999 . S
C566 H536 0.950 . S
C566 C565 1.524 . S
C566 C567 1.415 . S
C567 H537 0.950 . S
C567 C562 1.363 . S
C567 C566 1.415 . S
H568 C565 0.999 . S
H569 C550 0.913 . S
C139 C18 1.387 1_455 S
C154 C8 1.387 1_655 S
C189 C48 1.449 1_545 S
C204 C58 1.449 1_565 S
C239 C98 1.243 1_445 S
C254 C88 1.243 . S
C289 C95 0.869 . S
C304 C5 0.862 . S
C339 C49 1.691 . S
C354 C15 1.654 . S
C389 C89 2.187 . S
C404 C59 2.182 . S
C439 C99 2.141 . S
C454 C9 2.115 . S
C489 C19 1.590 . S
C504 C45 1.505 . S
C539 C85 0.888 . S
C554 C55 0.909 . S
