# Generated by pormake.
# Topology dia, (4)-cn, num edge types: 1
# Building blocks:
#     Node 0, Type 0, BuildingBlock: UXUYUI_clean_sbu_0, # of connection points: 4
#     Node 1, Type 0, BuildingBlock: UXUYUI_clean_sbu_0, # of connection points: 4
#     Node 2, Type 0, BuildingBlock: UXUYUI_clean_sbu_0, # of connection points: 4
#     Node 3, Type 0, BuildingBlock: UXUYUI_clean_sbu_0, # of connection points: 4
#     Node 4, Type 0, BuildingBlock: UXUYUI_clean_sbu_0, # of connection points: 4
#     Node 5, Type 0, BuildingBlock: UXUYUI_clean_sbu_0, # of connection points: 4
#     Node 6, Type 0, BuildingBlock: UXUYUI_clean_sbu_0, # of connection points: 4
#     Node 7, Type 0, BuildingBlock: UXUYUI_clean_sbu_0, # of connection points: 4
#     Edge 8, Type (0, 0), BuildingBlock: EZIPEK_clean_linker_0, # of connection points: 2
#     Edge 9, Type (0, 0), BuildingBlock: EZIPEK_clean_linker_0, # of connection points: 2
#     Edge 10, Type (0, 0), BuildingBlock: EZIPEK_clean_linker_0, # of connection points: 2
#     Edge 11, Type (0, 0), BuildingBlock: EZIPEK_clean_linker_0, # of connection points: 2
#     Edge 12, Type (0, 0), BuildingBlock: EZIPEK_clean_linker_0, # of connection points: 2
#     Edge 13, Type (0, 0), BuildingBlock: EZIPEK_clean_linker_0, # of connection points: 2
#     Edge 14, Type (0, 0), BuildingBlock: EZIPEK_clean_linker_0, # of connection points: 2
#     Edge 15, Type (0, 0), BuildingBlock: EZIPEK_clean_linker_0, # of connection points: 2
#     Edge 16, Type (0, 0), BuildingBlock: EZIPEK_clean_linker_0, # of connection points: 2
#     Edge 17, Type (0, 0), BuildingBlock: EZIPEK_clean_linker_0, # of connection points: 2
#     Edge 18, Type (0, 0), BuildingBlock: EZIPEK_clean_linker_0, # of connection points: 2
#     Edge 19, Type (0, 0), BuildingBlock: EZIPEK_clean_linker_0, # of connection points: 2
#     Edge 20, Type (0, 0), BuildingBlock: EZIPEK_clean_linker_0, # of connection points: 2
#     Edge 21, Type (0, 0), BuildingBlock: EZIPEK_clean_linker_0, # of connection points: 2
#     Edge 22, Type (0, 0), BuildingBlock: EZIPEK_clean_linker_0, # of connection points: 2
#     Edge 23, Type (0, 0), BuildingBlock: EZIPEK_clean_linker_0, # of connection points: 2
# Relax obj value: 0.000
# Max RMSD: 0.003
# Mean RMSD: 0.003
data_MOF--net-dia--node1-UXUYUI_clean_sbu_0--edge1-EZIPEK_clean_linker_0
_symmetry_space_group_name_H-M    P1
_symmetry_Int_Tables_number       1
_symmetry_cell_setting            triclinic
loop_
_symmetry_equiv_pos_as_xyz
'x, y, z'
_cell_length_a     41.811669
_cell_length_b     42.253289
_cell_length_c     42.254737
_cell_angle_alpha  89.894784
_cell_angle_beta   89.883471
_cell_angle_gamma 90.071905
loop_
_atom_site_label
_atom_site_type_symbol
_atom_site_fract_x
_atom_site_fract_y
_atom_site_fract_z
_atom_type_partial_charge
Li0 Li 0.12349 0.15523 0.65502 0.0
Li1 Li 0.16086 0.11429 0.65507 0.0
Li2 Li 0.16487 0.15662 0.61433 0.0
Li3 Li 0.11991 0.11323 0.61415 0.0
C4 C 0.1734 0.18367 0.6817 0.0
N5 N 0.17798 0.2326 0.72476 0.0
C6 C 0.16729 0.17818 0.71378 0.0
C7 C 0.18226 0.21396 0.67157 0.0
C8 C 0.16956 0.20326 0.73515 0.0
C9 C 0.18439 0.2384 0.69371 0.0
C10 C 0.11037 0.08528 0.68084 0.0
C11 C 0.09824 0.03046 0.69149 0.0
N12 N 0.10457 0.03527 0.72268 0.0
C13 C 0.11638 0.08977 0.71305 0.0
C14 C 0.10098 0.05547 0.66996 0.0
C15 C 0.11349 0.06415 0.7338 0.0
C16 C 0.07465 0.1684 0.70007 0.0
N17 N 0.09701 0.18231 0.68115 0.0
C18 C 0.08144 0.23366 0.69952 0.0
C19 C 0.10046 0.21437 0.68039 0.0
C20 C 0.05851 0.2198 0.71941 0.0
C21 C 0.05502 0.18682 0.71954 0.0
H22 H 0.07195 0.14297 0.70001 0.0
H23 H 0.11793 0.22506 0.66487 0.0
C24 C 0.20986 0.10049 0.6996 0.0
N25 N 0.18712 0.08689 0.68103 0.0
C26 C 0.2295 0.08177 0.71874 0.0
C27 C 0.2023 0.03531 0.69915 0.0
C28 C 0.18328 0.05488 0.68032 0.0
C29 C 0.22563 0.04882 0.71865 0.0
H30 H 0.21288 0.12588 0.69946 0.0
H31 H 0.16557 0.04444 0.66501 0.0
C32 C 0.09492 0.18363 0.60694 0.0
N33 N 0.04886 0.23046 0.60694 0.0
C34 C 0.06297 0.17604 0.61314 0.0
C35 C 0.10343 0.215 0.60054 0.0
C36 C 0.04005 0.20007 0.61314 0.0
C37 C 0.07978 0.23834 0.60064 0.0
C38 C 0.19099 0.0873 0.60726 0.0
C39 C 0.22255 0.09642 0.61316 0.0
C40 C 0.18393 0.05548 0.60151 0.0
C41 C 0.24656 0.07345 0.6135 0.0
C42 C 0.20863 0.03325 0.60194 0.0
N43 N 0.23916 0.04261 0.60793 0.0
C44 C 0.2223 0.18858 0.59704 0.0
C45 C 0.18013 0.19303 0.55986 0.0
C46 C 0.24212 0.20745 0.57809 0.0
N47 N 0.19191 0.18187 0.58771 0.0
C48 C 0.19903 0.21223 0.54033 0.0
C49 C 0.23041 0.21962 0.54945 0.0
H50 H 0.23103 0.17952 0.61935 0.0
H51 H 0.15594 0.1872 0.55294 0.0
C52 C 0.06187 0.08371 0.59514 0.0
N53 N 0.09317 0.08808 0.58737 0.0
C54 C 0.04216 0.06495 0.57612 0.0
C55 C 0.08732 0.05516 0.54171 0.0
C56 C 0.10603 0.07452 0.5611 0.0
C57 C 0.05496 0.05025 0.54916 0.0
H58 H 0.05231 0.09454 0.61629 0.0
H59 H 0.13091 0.07858 0.55531 0.0
O60 O 0.17099 0.15948 0.66037 0.0
O61 O 0.11333 0.11001 0.6601 0.0
O62 O 0.11782 0.16056 0.60769 0.0
O63 O 0.16706 0.10933 0.60777 0.0
H64 H 0.16072 0.15484 0.72205 0.0
H65 H 0.18694 0.21869 0.64684 0.0
H66 H 0.16464 0.1994 0.76001 0.0
H67 H 0.19097 0.26201 0.68617 0.0
H68 H 0.09123 1.00721 0.68338 0.0
H69 H 0.12335 0.11274 0.72189 0.0
H70 H 0.09629 0.05153 0.64512 0.0
H71 H 0.11833 0.06722 0.75875 0.0
H72 H 0.08454 0.2591 0.69882 0.0
H73 H 0.03738 0.1755 0.73458 0.0
H74 H 0.24747 0.09282 0.7335 0.0
H75 H 0.19891 0.0099 0.69848 0.0
H76 H 0.05606 0.15194 0.61842 0.0
H77 H 0.1281 0.22137 0.59606 0.0
H78 H 1.01528 0.19458 0.61818 0.0
H79 H 0.08604 0.26274 0.59593 0.0
H80 H 0.22835 0.12089 0.61794 0.0
H81 H 0.15957 0.04793 0.59735 0.0
H82 H 0.27105 0.08013 0.6183 0.0
H83 H 0.2035 1.00851 0.59775 0.0
H84 H 0.26625 0.21272 0.58576 0.0
H85 H 0.18932 0.22124 0.51835 0.0
H86 H 1.01728 0.06164 0.58252 0.0
H87 H 0.09791 0.04418 0.52105 0.0
Li88 Li 0.87466 0.40708 0.86081 0.0
Li89 Li 0.91506 0.40838 0.90382 0.0
Li90 Li 0.91595 0.3666 0.86178 0.0
Li91 Li 0.87517 0.36414 0.9037 0.0
C92 C 0.92817 0.43702 0.8368 0.0
N93 N 0.93982 0.48614 0.79508 0.0
C94 C 0.94179 0.46522 0.84761 0.0
C95 C 0.9206 0.43374 0.80476 0.0
C96 C 0.94748 0.48979 0.82614 0.0
C97 C 0.92662 0.45887 0.78406 0.0
C98 C 0.85122 0.42878 0.92821 0.0
C99 C 0.82623 0.43611 0.97919 0.0
N100 N 0.81702 0.46567 0.9703 0.0
C101 C 0.84127 0.45914 0.9195 0.0
C102 C 0.84345 0.41707 0.95824 0.0
C103 C 0.82412 0.47746 0.94114 0.0
C104 C 0.82079 0.41988 0.82192 0.0
N105 N 0.84722 0.43321 0.83512 0.0
C106 C 0.83465 0.48321 0.81146 0.0
C107 C 0.85405 0.46443 0.8307 0.0
C108 C 0.80723 0.47011 0.79758 0.0
C109 C 0.80017 0.43807 0.80323 0.0
H110 H 0.81565 0.39511 0.82605 0.0
H111 H 0.87451 0.47489 0.84218 0.0
C112 C 0.97153 0.42695 0.93558 0.0
N113 N 0.94053 0.43522 0.93043 0.0
C114 C 0.991 0.44544 0.9551 0.0
C115 C 0.94642 0.48084 0.96343 0.0
C116 C 0.92786 0.46174 0.94369 0.0
C117 C 0.97834 0.47266 0.96931 0.0
H118 H 0.98111 0.40588 0.92458 0.0
H119 H 0.90344 0.46822 0.93892 0.0
C120 C 0.86851 0.33609 0.83586 0.0
N121 N 0.87099 0.28667 0.79326 0.0
C122 C 0.8664 0.30485 0.84658 0.0
C123 C 0.87153 0.34225 0.80349 0.0
C124 C 0.86775 0.28017 0.82465 0.0
C125 C 0.87287 0.31692 0.78233 0.0
C126 C 0.93385 0.35266 0.9372 0.0
C127 C 0.95643 0.32843 0.93965 0.0
C128 C 0.92315 0.36797 0.96451 0.0
C129 C 0.96773 0.31972 0.96952 0.0
C130 C 0.93506 0.35863 0.99393 0.0
N131 N 0.9569 0.33487 0.99581 0.0
C132 C 0.95711 0.35165 0.80968 0.0
C133 C 0.94719 0.30938 0.84535 0.0
C134 C 0.97593 0.33205 0.79064 0.0
N135 N 0.94301 0.34004 0.83633 0.0
C136 C 0.96584 0.28894 0.82701 0.0
C137 C 0.98033 0.30032 0.79928 0.0
H138 H 0.95373 0.37609 0.80311 0.0
H139 H 0.93573 0.30074 0.86666 0.0
C140 C 0.81661 0.34248 0.92938 0.0
N141 N 0.84871 0.33725 0.92952 0.0
C142 C 0.79621 0.32385 0.94799 0.0
C143 C 0.84225 0.29484 0.96665 0.0
C144 C 0.86168 0.31366 0.94731 0.0
C145 C 0.8091 0.29986 0.96711 0.0
H146 H 0.80688 0.36124 0.91485 0.0
H147 H 0.88708 0.30927 0.94652 0.0
O148 O 0.92237 0.4128 0.85755 0.0
O149 O 0.86773 0.41036 0.90716 0.0
O150 O 0.86831 0.36049 0.85703 0.0
O151 O 0.92269 0.36154 0.90811 0.0
H152 H 0.94785 0.46814 0.87231 0.0
H153 H 0.90971 0.41223 0.79607 0.0
H154 H 0.95795 0.51177 0.83417 0.0
H155 H 0.92068 0.45675 0.75925 0.0
H156 H 0.8201 0.42735 1.0025 0.0
H157 H 0.847 0.4686 0.89642 0.0
H158 H 0.85041 0.39347 0.96531 0.0
H159 H 0.81644 0.50106 0.93476 0.0
H160 H 0.84071 0.50789 0.80781 0.0
H161 H 0.77907 0.42725 0.79307 0.0
H162 H 1.01562 0.43862 0.95911 0.0
H163 H 0.93605 0.50183 0.97394 0.0
H164 H 0.86415 0.29973 0.8716 0.0
H165 H 0.87312 0.36633 0.79487 0.0
H166 H 0.86638 0.25586 0.8326 0.0
H167 H 0.87547 0.3213 0.75723 0.0
H168 H 0.9651 0.31646 0.9187 0.0
H169 H 0.90611 0.38707 0.96297 0.0
H170 H 0.98514 0.30094 0.97179 0.0
H171 H 0.92702 0.37033 0.01526 0.0
H172 H 0.98693 0.34148 0.76939 0.0
H173 H 0.96885 0.26453 0.83426 0.0
H174 H 0.77069 0.32822 0.94768 0.0
H175 H 0.85293 0.27636 0.98094 0.0
Li176 Li 0.62015 0.15755 0.15152 0.0
Li177 Li 0.66024 0.11507 0.15383 0.0
Li178 Li 0.66127 0.15776 0.11096 0.0
Li179 Li 0.62045 0.11523 0.10979 0.0
C180 C 0.66812 0.18266 0.18206 0.0
N181 N 0.66682 0.22486 0.23188 0.0
C182 C 0.67149 0.17176 0.21312 0.0
C183 C 0.66446 0.21503 0.17628 0.0
C184 C 0.67072 0.19348 0.238 0.0
C185 C 0.66373 0.23598 0.20181 0.0
C186 C 0.60128 0.08306 0.16775 0.0
C187 C 0.59679 0.02627 0.16414 0.0
N188 N 0.57794 0.02613 0.1904 0.0
C189 C 0.58163 0.0824 0.19455 0.0
C190 C 0.60876 0.05482 0.1523 0.0
C191 C 0.57017 0.05336 0.20571 0.0
C192 C 0.57828 0.20912 0.16554 0.0
N193 N 0.59344 0.18346 0.1779 0.0
C194 C 0.57192 0.19454 0.22925 0.0
C195 C 0.59046 0.17581 0.20907 0.0
C196 C 0.55631 0.22125 0.2171 0.0
C197 C 0.55953 0.22852 0.18487 0.0
H198 H 0.58075 0.21458 0.14069 0.0
H199 H 0.60277 0.1553 0.21832 0.0
C200 C 0.71757 0.08536 0.17335 0.0
N201 N 0.68611 0.08895 0.18082 0.0
C202 C 0.73734 0.06633 0.19207 0.0
C203 C 0.69208 0.05521 0.226 0.0
C204 C 0.67327 0.07467 0.20682 0.0
C205 C 0.7245 0.05086 0.21864 0.0
H206 H 0.72725 0.09721 0.15273 0.0
H207 H 0.64848 0.07846 0.21283 0.0
C208 C 0.60979 0.18218 0.08053 0.0
N209 N 0.60229 0.22347 0.03032 0.0
C210 C 0.59774 0.17127 0.0517 0.0
C211 C 0.61778 0.21413 0.08391 0.0
C212 C 0.59416 0.19252 0.02659 0.0
C213 C 0.61391 0.23461 0.05821 0.0
C214 C 0.68227 0.08815 0.08997 0.0
C215 C 0.69413 0.09502 0.05976 0.0
C216 C 0.68619 0.05774 0.10247 0.0
C217 C 0.70909 0.07119 0.04231 0.0
C218 C 0.70133 0.03457 0.0843 0.0
N219 N 0.71233 0.0417 0.05483 0.0
C220 C 0.71268 0.20023 0.09834 0.0
C221 C 0.68384 0.18441 0.05281 0.0
C222 C 0.73282 0.21926 0.07984 0.0
N223 N 0.68868 0.18338 0.08464 0.0
C224 C 0.70298 0.20355 0.03353 0.0
C225 C 0.72787 0.22119 0.04704 0.0
H226 H 0.71623 0.19885 0.12365 0.0
H227 H 0.66503 0.17041 0.04231 0.0
C228 C 0.56361 0.08356 0.09209 0.0
N229 N 0.59437 0.08913 0.08302 0.0
C230 C 0.54362 0.06462 0.07354 0.0
C231 C 0.58714 0.05778 0.03645 0.0
C232 C 0.60624 0.07693 0.05563 0.0
C233 C 0.55548 0.05144 0.04544 0.0
H234 H 0.55464 0.09381 0.11379 0.0
H235 H 0.63042 0.08221 0.04847 0.0
O236 O 0.66781 0.16167 0.15749 0.0
O237 O 0.6127 0.11133 0.15659 0.0
O238 O 0.61362 0.16165 0.1053 0.0
O239 O 0.66784 0.11136 0.10749 0.0
H240 H 0.67428 0.14676 0.21797 0.0
H241 H 0.66191 0.22382 0.15236 0.0
H242 H 0.67307 0.18538 0.26218 0.0
H243 H 0.66063 0.26107 0.19773 0.0
H244 H 0.60239 1.00425 0.15236 0.0
H245 H 0.57536 0.10406 0.20667 0.0
H246 H 0.62327 0.05496 0.13116 0.0
H247 H 0.55507 0.05248 0.22651 0.0
H248 H 0.56985 0.18836 0.25406 0.0
H249 H 0.54765 0.24897 0.17484 0.0
H250 H 0.76232 0.06357 0.18586 0.0
H251 H 0.68154 0.04378 0.24649 0.0
H252 H 0.59131 0.14666 0.04871 0.0
H253 H 0.62729 0.22293 0.10598 0.0
H254 H 0.58496 0.18439 1.00411 0.0
H255 H 0.62024 0.25934 0.06041 0.0
H256 H 0.69159 0.11841 0.04976 0.0
H257 H 0.67798 0.05206 0.12607 0.0
H258 H 0.71815 0.07615 0.01882 0.0
H259 H 0.70446 0.01094 0.09369 0.0
H260 H 0.75193 0.23247 0.09097 0.0
H261 H 0.6986 0.20441 1.00829 0.0
H262 H 0.51921 0.06026 0.08101 0.0
H263 H 0.59687 0.0481 0.01476 0.0
Li264 Li 0.91007 0.90647 0.40507 0.0
Li265 Li 0.87002 0.90668 0.36172 0.0
Li266 Li 0.87077 0.86333 0.40345 0.0
Li267 Li 0.91155 0.86451 0.36154 0.0
C268 C 0.85444 0.93238 0.42966 0.0
N269 N 0.83904 0.9791 0.47276 0.0
C270 C 0.84192 0.96123 0.41922 0.0
C271 C 0.85873 0.92716 0.46205 0.0
C272 C 0.83436 0.98458 0.44138 0.0
C273 C 0.85093 0.95111 0.48345 0.0
C274 C 0.92808 0.93297 0.33701 0.0
C275 C 0.93919 0.94824 0.28305 0.0
N276 N 0.94946 0.97699 0.29332 0.0
C277 C 0.9391 0.96254 0.34705 0.0
C278 C 0.92843 0.92563 0.30477 0.0
C279 C 0.94967 0.98452 0.3246 0.0
C280 C 0.96313 0.92033 0.44445 0.0
N281 N 0.93606 0.93292 0.43181 0.0
C282 C 0.94685 0.98271 0.45664 0.0
C283 C 0.92792 0.96362 0.43723 0.0
C284 C 0.97486 0.9703 0.46998 0.0
C285 C 0.98307 0.93875 0.4636 0.0
H286 H 0.96937 0.89601 0.43947 0.0
H287 H 0.90697 0.97354 0.42615 0.0
C288 C 0.81484 0.92158 0.32543 0.0
N289 N 0.84339 0.93322 0.33561 0.0
C290 C 0.79482 0.94007 0.3064 0.0
C291 C 0.83376 0.98228 0.3088 0.0
C292 C 0.85285 0.96313 0.32801 0.0
C293 C 0.80438 0.97074 0.29778 0.0
H294 H 0.8076 0.89791 0.33213 0.0
H295 H 0.87499 0.97239 0.33718 0.0
C296 C 0.92217 0.83852 0.4319 0.0
N297 N 0.92829 0.79462 0.48004 0.0
C298 C 0.93005 0.80717 0.42491 0.0
C299 C 0.918 0.84768 0.46339 0.0
C300 C 0.93289 0.78529 0.44958 0.0
C301 C 0.92102 0.82511 0.48738 0.0
C302 C 0.85772 0.84419 0.32927 0.0
C303 C 0.84671 0.81295 0.33009 0.0
C304 C 0.86181 0.85938 0.30015 0.0
C305 C 0.84064 0.7972 0.30168 0.0
C306 C 0.85545 0.84286 0.27226 0.0
N307 N 0.84513 0.81235 0.27359 0.0
C308 C 0.82475 0.8448 0.45094 0.0
C309 C 0.8497 0.80303 0.42285 0.0
C310 C 0.80736 0.82304 0.46924 0.0
N311 N 0.84558 0.83446 0.42841 0.0
C312 C 0.83293 0.78055 0.44058 0.0
C313 C 0.81156 0.79054 0.46409 0.0
H314 H 0.82158 0.86987 0.45471 0.0
H315 H 0.86625 0.79541 0.40473 0.0
C316 C 0.96438 0.851 0.32072 0.0
N317 N 0.93828 0.83839 0.33538 0.0
C318 C 0.98377 0.83214 0.30144 0.0
C319 C 0.94966 0.78744 0.31334 0.0
C320 C 0.93085 0.80718 0.33226 0.0
C321 C 0.97636 0.8 0.29763 0.0
H322 H 0.97026 0.87567 0.32411 0.0
H323 H 0.91044 0.79753 0.3447 0.0
O324 O 0.86213 0.90934 0.40826 0.0
O325 O 0.91758 0.91122 0.35874 0.0
O326 O 0.91845 0.86012 0.40803 0.0
O327 O 0.86422 0.85985 0.35686 0.0
H328 H 0.83819 0.96562 0.3943 0.0
H329 H 0.86804 0.9049 0.47058 0.0
H330 H 0.82481 1.00706 0.43361 0.0
H331 H 0.85431 0.94744 0.50856 0.0
H332 H 0.93949 0.94288 0.25802 0.0
H333 H 0.93928 0.96857 0.37188 0.0
H334 H 0.92082 0.90263 0.29657 0.0
H335 H 0.95805 1.00756 0.33204 0.0
H336 H 0.93998 1.00704 0.46087 0.0
H337 H 1.00465 0.92852 0.47338 0.0
H338 H 0.77216 0.93056 0.29843 0.0
H339 H 0.84167 1.00598 0.30283 0.0
H340 H 0.93359 0.79973 0.40069 0.0
H341 H 0.91247 0.87195 0.46922 0.0
H342 H 0.9387 0.76088 0.44449 0.0
H343 H 0.91761 0.83182 0.51185 0.0
H344 H 0.84306 0.8009 0.3524 0.0
H345 H 0.86957 0.88373 0.29908 0.0
H346 H 0.83233 0.77295 0.30197 0.0
H347 H 0.85862 0.85433 0.24955 0.0
H348 H 0.79091 0.83142 0.48718 0.0
H349 H 0.8366 0.75559 0.43604 0.0
H350 H 1.00443 0.8424 0.28978 0.0
H351 H 0.94351 0.76264 0.31102 0.0
Li352 Li 0.12216 0.65519 0.15643 0.0
Li353 Li 0.16197 0.61463 0.15822 0.0
Li354 Li 0.16423 0.65785 0.11739 0.0
Li355 Li 0.12135 0.61547 0.1155 0.0
C356 C 0.17558 0.66641 0.19527 0.0
N357 N 0.18994 0.67658 0.25823 0.0
C358 C 0.15692 0.65246 0.219 0.0
C359 C 0.20153 0.68551 0.20354 0.0
C360 C 0.16457 0.6579 0.25069 0.0
C361 C 0.20841 0.69037 0.23552 0.0
C362 C 0.10711 0.57811 0.16741 0.0
C363 C 0.11488 0.52263 0.15652 0.0
N364 N 0.09225 0.51532 0.17852 0.0
C365 C 0.08391 0.57006 0.18987 0.0
C366 C 0.12274 0.55422 0.15057 0.0
C367 C 0.07675 0.53818 0.19517 0.0
C368 C 0.06561 0.67104 0.19053 0.0
N369 N 0.09521 0.68158 0.18216 0.0
C370 C 0.08684 0.73 0.21025 0.0
C371 C 0.10605 0.71045 0.19156 0.0
C372 C 0.05625 0.71969 0.21918 0.0
C373 C 0.04554 0.68991 0.20911 0.0
H374 H 0.05757 0.64804 0.18262 0.0
H375 H 0.1296 0.71833 0.18441 0.0
C376 C 0.21962 0.5844 0.17629 0.0
N377 N 0.18833 0.58809 0.18436 0.0
C378 C 0.23964 0.56519 0.19456 0.0
C379 C 0.19507 0.55442 0.22949 0.0
C380 C 0.17593 0.57383 0.21058 0.0
C381 C 0.22727 0.5499 0.22142 0.0
H382 H 0.22899 0.59635 0.15558 0.0
H383 H 0.1512 0.5776 0.21697 0.0
C384 C 0.09499 0.685 0.11001 0.0
N385 N 0.04902 0.73175 0.11354 0.0
C386 C 0.06257 0.67705 0.10879 0.0
C387 C 0.10407 0.71671 0.11285 0.0
C388 C 0.03968 0.70105 0.11067 0.0
C389 C 0.08045 0.74 0.11465 0.0
C390 C 0.18591 0.59663 0.08895 0.0
C391 C 0.18923 0.61108 0.05933 0.0
C392 C 0.2004 0.56736 0.09454 0.0
C393 C 0.20704 0.596 0.03578 0.0
C394 C 0.21799 0.55302 0.07036 0.0
N395 N 0.22094 0.56753 0.04174 0.0
C396 C 0.22346 0.68521 0.09831 0.0
C397 C 0.17864 0.69995 0.06729 0.0
C398 C 0.24374 0.70348 0.0792 0.0
N399 N 0.1916 0.68378 0.09201 0.0
C400 C 0.19799 0.71851 0.04766 0.0
C401 C 0.23092 0.72032 0.05354 0.0
H402 H 0.23312 0.67196 0.11803 0.0
H403 H 0.1533 0.69809 0.0626 0.0
C404 C 0.06474 0.5834 0.09736 0.0
N405 N 0.09538 0.58955 0.08825 0.0
C406 C 0.04493 0.56443 0.07864 0.0
C407 C 0.08852 0.55829 0.04154 0.0
C408 C 0.10741 0.57748 0.06087 0.0
C409 C 0.0569 0.55164 0.05041 0.0
H410 H 0.0557 0.59321 0.11925 0.0
H411 H 0.13162 0.58265 0.05389 0.0
O412 O 0.16877 0.66133 0.16403 0.0
O413 O 0.11419 0.60929 0.16201 0.0
O414 O 0.11773 0.66178 0.10913 0.0
O415 O 0.16903 0.61126 0.11254 0.0
H416 H 0.13674 0.63762 0.21308 0.0
H417 H 0.21623 0.69642 0.18542 0.0
H418 H 0.15034 0.64726 0.26929 0.0
H419 H 0.22844 0.7051 0.24227 0.0
H420 H 0.12676 0.50392 0.14362 0.0
H421 H 0.0716 0.58829 0.2031 0.0
H422 H 0.14062 0.55994 0.13302 0.0
H423 H 0.05886 0.53161 0.21251 0.0
H424 H 0.09569 0.75292 0.21766 0.0
H425 H 0.022 0.68138 0.21566 0.0
H426 H 0.26448 0.56227 0.18785 0.0
H427 H 0.18492 0.54307 0.25021 0.0
H428 H 0.05516 0.65261 0.10673 0.0
H429 H 0.12908 0.72321 0.11417 0.0
H430 H 1.01449 0.69524 0.10994 0.0
H431 H 0.08711 0.76462 0.11708 0.0
H432 H 0.17776 0.63345 0.05439 0.0
H433 H 0.19807 0.55576 0.11728 0.0
H434 H 0.20973 0.6069 0.01274 0.0
H435 H 0.22931 0.53036 0.07436 0.0
H436 H 0.26911 0.70439 0.08425 0.0
H437 H 0.18746 0.73117 0.02795 0.0
H438 H 0.02057 0.55974 0.08608 0.0
H439 H 0.09841 0.54878 0.01984 0.0
Li440 Li 0.37423 0.40515 0.36118 0.0
Li441 Li 0.41795 0.40547 0.40337 0.0
Li442 Li 0.41518 0.36539 0.3639 0.0
Li443 Li 0.37649 0.36307 0.40575 0.0
C444 C 0.44547 0.41194 0.33591 0.0
N445 N 0.4953 0.40987 0.29296 0.0
C446 C 0.47659 0.40588 0.34627 0.0
C447 C 0.4397 0.41722 0.30377 0.0
C448 C 0.50145 0.40482 0.32416 0.0
C449 C 0.46523 0.41604 0.28241 0.0
C450 C 0.35581 0.43267 0.42598 0.0
C451 C 0.33019 0.44996 0.47415 0.0
N452 N 0.3254 0.47897 0.461 0.0
C453 C 0.35037 0.46257 0.41287 0.0
C454 C 0.3454 0.4262 0.4568 0.0
C455 C 0.33508 0.48569 0.43098 0.0
C456 C 0.31583 0.4226 0.33146 0.0
N457 N 0.34697 0.43092 0.33569 0.0
C458 C 0.34008 0.47704 0.30347 0.0
C459 C 0.35932 0.45753 0.32218 0.0
C460 C 0.3079 0.46903 0.29874 0.0
C461 C 0.2957 0.44148 0.31294 0.0
H462 H 0.30666 0.40133 0.34252 0.0
H463 H 0.38411 0.46369 0.32613 0.0
C464 C 0.47429 0.42314 0.43729 0.0
N465 N 0.44552 0.43363 0.42681 0.0
C466 C 0.49577 0.4439 0.45188 0.0
C467 C 0.45722 0.48551 0.44628 0.0
C468 C 0.43647 0.46404 0.43176 0.0
C469 C 0.4889 0.47666 0.45413 0.0
H470 H 0.48079 0.39859 0.43415 0.0
H471 H 0.4132 0.47188 0.42417 0.0
C472 C 0.36557 0.33268 0.34085 0.0
N473 N 0.36206 0.28014 0.30226 0.0
C474 C 0.37536 0.30314 0.35214 0.0
C475 C 0.35363 0.33549 0.31012 0.0
C476 C 0.37353 0.27687 0.33219 0.0
C477 C 0.35211 0.30863 0.29094 0.0
C478 C 0.43119 0.35271 0.44072 0.0
C479 C 0.45048 0.32694 0.44881 0.0
C480 C 0.41878 0.37198 0.46458 0.0
C481 C 0.45698 0.3209 0.48068 0.0
C482 C 0.42584 0.3652 0.49616 0.0
N483 N 0.44463 0.33999 0.5035 0.0
C484 C 0.4649 0.32174 0.34971 0.0
C485 C 0.43562 0.33863 0.30478 0.0
C486 C 0.4842 0.30246 0.33079 0.0
N487 N 0.44106 0.33922 0.33653 0.0
C488 C 0.45427 0.31962 0.28501 0.0
C489 C 0.47881 0.30126 0.29809 0.0
H490 H 0.46899 0.32288 0.37491 0.0
H491 H 0.41685 0.35302 0.29474 0.0
C492 C 0.31942 0.34649 0.43834 0.0
N493 N 0.35002 0.33724 0.4325 0.0
C494 C 0.29935 0.32792 0.45734 0.0
C495 C 0.34254 0.2905 0.46379 0.0
C496 C 0.3617 0.30969 0.44454 0.0
C497 C 0.31096 0.2996 0.47033 0.0
H498 H 0.31058 0.36827 0.42812 0.0
H499 H 0.38583 0.30243 0.439 0.0
O500 O 0.42071 0.41216 0.3571 0.0
O501 O 0.37024 0.40954 0.40835 0.0
O502 O 0.36781 0.35877 0.35976 0.0
O503 O 0.42423 0.35852 0.40958 0.0
H504 H 0.48139 0.40152 0.37104 0.0
H505 H 0.4157 0.42168 0.29533 0.0
H506 H 0.52562 0.39986 0.33179 0.0
H507 H 0.4611 0.41986 0.25743 0.0
H508 H 0.3221 0.44529 0.49804 0.0
H509 H 0.35824 0.46803 0.3891 0.0
H510 H 0.34888 0.40307 0.46723 0.0
H511 H 0.33092 0.50899 0.42118 0.0
H512 H 0.35013 0.49819 0.29285 0.0
H513 H 0.27093 0.43473 0.30971 0.0
H514 H 0.51724 0.43362 0.46151 0.0
H515 H 0.44767 0.50862 0.4514 0.0
H516 H 0.38473 0.30066 0.37587 0.0
H517 H 0.34593 0.35824 0.30111 0.0
H518 H 0.38132 0.2539 0.34047 0.0
H519 H 0.34311 0.31045 0.26702 0.0
H520 H 0.46012 0.31159 0.43071 0.0
H521 H 0.40414 0.39214 0.45881 0.0
H522 H 0.4718 0.30099 0.48726 0.0
H523 H 0.41642 0.38001 0.51483 0.0
H524 H 0.50307 0.28859 0.34151 0.0
H525 H 0.44966 0.31924 0.2598 0.0
H526 H 0.27502 0.33548 0.46183 0.0
H527 H 0.35212 0.26867 0.47331 0.0
Li528 Li 0.37005 0.90415 0.86117 0.0
Li529 Li 0.41089 0.90674 0.90301 0.0
Li530 Li 0.41167 0.86446 0.86036 0.0
Li531 Li 0.3719 0.862 0.90359 0.0
C532 C 0.41761 0.9361 0.8358 0.0
N533 N 0.41638 0.98692 0.7946 0.0
C534 C 0.42314 0.96672 0.847 0.0
C535 C 0.41183 0.93127 0.8036 0.0
C536 C 0.42236 0.99212 0.82579 0.0
C537 C 0.41117 0.95729 0.78317 0.0
C538 C 0.35207 0.92181 0.93491 0.0
C539 C 0.34533 0.92105 0.99163 0.0
N540 N 0.32881 0.94871 0.98993 0.0
C541 C 0.33468 0.95003 0.9337 0.0
C542 C 0.35717 0.90705 0.96409 0.0
C543 C 0.32328 0.96334 0.96178 0.0
C544 C 0.3255 0.917 0.81164 0.0
N545 N 0.34256 0.93014 0.83567 0.0
C546 C 0.32213 0.98153 0.82302 0.0
C547 C 0.34111 0.96174 0.8417 0.0
C548 C 0.30456 0.96858 0.79798 0.0
C549 C 0.30628 0.93595 0.7923 0.0
H550 H 0.32688 0.89184 0.80741 0.0
H551 H 0.35503 0.97164 0.86081 0.0
C552 C 0.46782 0.92567 0.93364 0.0
N553 N 0.43679 0.934 0.92869 0.0
C554 C 0.48762 0.94448 0.95249 0.0
C555 C 0.4434 0.98042 0.96042 0.0
C556 C 0.42449 0.961 0.94132 0.0
C557 C 0.47531 0.97211 0.96622 0.0
H558 H 0.47711 0.90428 0.92304 0.0
H559 H 0.40009 0.96764 0.93642 0.0
C560 C 0.36217 0.83266 0.83677 0.0
N561 N 0.3592 0.78189 0.79576 0.0
C562 C 0.35343 0.80273 0.84798 0.0
C563 C 0.36906 0.83685 0.80464 0.0
C564 C 0.3521 0.77735 0.82687 0.0
C565 C 0.36757 0.81085 0.78431 0.0
C566 C 0.43278 0.84439 0.93148 0.0
C567 C 0.44668 0.81471 0.92666 0.0
C568 C 0.43347 0.8579 0.96165 0.0
C569 C 0.46031 0.79871 0.95225 0.0
C570 C 0.44737 0.84118 0.98663 0.0
N571 N 0.46034 0.81215 0.98147 0.0
C572 C 0.45894 0.85331 0.813 0.0
C573 C 0.43743 0.80682 0.83628 0.0
C574 C 0.47844 0.83521 0.79311 0.0
N575 N 0.43885 0.83893 0.83395 0.0
C576 C 0.45638 0.78783 0.81678 0.0
C577 C 0.47715 0.80208 0.79489 0.0
H578 H 0.45982 0.87885 0.81172 0.0
H579 H 0.42136 0.79591 0.85314 0.0
C580 C 0.31652 0.844 0.93781 0.0
N581 N 0.34677 0.83473 0.93035 0.0
C582 C 0.29748 0.82545 0.9578 0.0
C583 C 0.34071 0.78771 0.96151 0.0
C584 C 0.3589 0.80697 0.94142 0.0
C585 C 0.30969 0.79704 0.96997 0.0
H586 H 0.30726 0.86596 0.92838 0.0
H587 H 0.38261 0.79962 0.93455 0.0
O588 O 0.41748 0.91104 0.85634 0.0
O589 O 0.36342 0.90852 0.90757 0.0
O590 O 0.36405 0.85769 0.85717 0.0
O591 O 0.41948 0.86043 0.90657 0.0
H592 H 0.42767 0.97088 0.87184 0.0
H593 H 0.40754 0.90773 0.79455 0.0
H594 H 0.4264 0.01597 0.83415 0.0
H595 H 0.40643 0.95394 0.75824 0.0
H596 H 0.34913 0.90984 0.01435 0.0
H597 H 0.3301 0.96162 0.91134 0.0
H598 H 0.36964 0.88477 0.96546 0.0
H599 H 0.30996 0.98527 0.96118 0.0
H600 H 0.32128 1.00667 0.8279 0.0
H601 H 0.29289 0.92532 0.77314 0.0
H602 H 0.51223 0.93756 0.95642 0.0
H603 H 0.43332 1.00175 0.9705 0.0
H604 H 0.34789 0.79909 0.87273 0.0
H605 H 0.37592 0.85983 0.79558 0.0
H606 H 0.34551 0.75403 0.83524 0.0
H607 H 0.37315 0.81369 0.75946 0.0
H608 H 0.44682 0.80402 0.90347 0.0
H609 H 0.42383 0.88122 0.96577 0.0
H610 H 0.47092 0.77562 0.94887 0.0
H611 H 0.44799 0.85138 0.01009 0.0
H612 H 0.49433 0.84686 0.77649 0.0
H613 H 0.45489 0.76231 0.81872 0.0
H614 H 0.27353 0.83317 0.96379 0.0
H615 H 0.35067 0.76577 0.97035 0.0
Li616 Li 0.62157 0.6569 0.65264 0.0
Li617 Li 0.66018 0.61375 0.65483 0.0
Li618 Li 0.66425 0.65493 0.61209 0.0
Li619 Li 0.62169 0.61478 0.61163 0.0
C620 C 0.67686 0.66702 0.68967 0.0
N621 N 0.69337 0.67993 0.75161 0.0
C622 C 0.65793 0.65575 0.71456 0.0
C623 C 0.70418 0.68488 0.69627 0.0
C624 C 0.66667 0.66252 0.7457 0.0
C625 C 0.71213 0.69115 0.72775 0.0
C626 C 0.60331 0.58665 0.67673 0.0
C627 C 0.60187 0.53086 0.68891 0.0
N628 N 0.58592 0.5373 0.71623 0.0
C629 C 0.58685 0.59271 0.70492 0.0
C630 C 0.61084 0.55548 0.66864 0.0
C631 C 0.57828 0.56744 0.72457 0.0
C632 C 0.56403 0.6765 0.68225 0.0
N633 N 0.595 0.68489 0.67691 0.0
C634 C 0.58825 0.73216 0.70732 0.0
C635 C 0.60724 0.71229 0.68872 0.0
C636 C 0.55646 0.72369 0.71374 0.0
C637 C 0.54423 0.69561 0.70085 0.0
H638 H 0.55482 0.65474 0.67232 0.0
H639 H 0.63184 0.71862 0.68395 0.0
C640 C 0.71592 0.58035 0.67171 0.0
N641 N 0.68592 0.58734 0.68207 0.0
C642 C 0.73629 0.56159 0.69008 0.0
C643 C 0.69443 0.55708 0.7293 0.0
C644 C 0.67523 0.57662 0.71061 0.0
C645 C 0.72544 0.54945 0.71914 0.0
H646 H 0.72408 0.5895 0.64916 0.0
H647 H 0.65189 0.58328 0.71915 0.0
C648 C 0.61044 0.69219 0.59841 0.0
N649 N 0.59548 0.75436 0.58465 0.0
C650 C 0.58418 0.69919 0.57926 0.0
C651 C 0.62912 0.71678 0.61056 0.0
C652 C 0.577 0.73079 0.57257 0.0
C653 C 0.62115 0.74806 0.60333 0.0
C654 C 0.67366 0.58538 0.58718 0.0
C655 C 0.67768 0.59345 0.55533 0.0
C656 C 0.67457 0.55359 0.59629 0.0
C657 C 0.68162 0.56946 0.53296 0.0
C658 C 0.67857 0.53029 0.57321 0.0
N659 N 0.68192 0.53864 0.54227 0.0
C660 C 0.72214 0.68671 0.59537 0.0
C661 C 0.68276 0.68619 0.55553 0.0
C662 C 0.74372 0.70184 0.57495 0.0
N663 N 0.69264 0.67831 0.58506 0.0
C664 C 0.7036 0.70128 0.53442 0.0
C665 C 0.73597 0.70685 0.54266 0.0
H666 H 0.72897 0.68161 0.61952 0.0
H667 H 0.65861 0.68062 0.54824 0.0
C668 C 0.57624 0.56684 0.59203 0.0
N669 N 0.59621 0.59053 0.58252 0.0
C670 C 0.5593 0.54907 0.56969 0.0
C671 C 0.58292 0.58102 0.5283 0.0
C672 C 0.59923 0.59825 0.55139 0.0
C673 C 0.56288 0.55599 0.53743 0.0
H674 H 0.57333 0.56169 0.61686 0.0
H675 H 0.61461 0.61767 0.54447 0.0
O676 O 0.66888 0.66054 0.65898 0.0
O677 O 0.61228 0.61117 0.65743 0.0
O678 O 0.61755 0.66137 0.60536 0.0
O679 O 0.66916 0.60851 0.60935 0.0
H680 H 0.63669 0.64199 0.70988 0.0
H681 H 0.71908 0.69382 0.67728 0.0
H682 H 0.65221 0.65393 0.76517 0.0
H683 H 0.73322 0.70494 0.73321 0.0
H684 H 0.60761 0.50664 0.68294 0.0
H685 H 0.58098 0.61667 0.71172 0.0
H686 H 0.62348 0.55037 0.64694 0.0
H687 H 0.56564 0.5718 0.74649 0.0
H688 H 0.59832 0.75375 0.71688 0.0
H689 H 0.51974 0.6885 0.70534 0.0
H690 H 0.76019 0.55639 0.68163 0.0
H691 H 0.68538 0.54837 0.75173 0.0
H692 H 0.56949 0.68039 0.56971 0.0
H693 H 0.64952 0.7118 0.62544 0.0
H694 H 0.55673 0.73657 0.55779 0.0
H695 H 0.63537 0.76732 0.6126 0.0
H696 H 0.67735 0.61796 0.54792 0.0
H697 H 0.67239 0.54697 0.62093 0.0
H698 H 0.6844 0.57536 0.50818 0.0
H699 H 0.67912 0.50557 0.5799 0.0
H700 H 0.76588 0.70979 0.58521 0.0
H701 H 0.69366 0.70868 0.51208 0.0
H702 H 0.54374 0.53005 0.57744 0.0
H703 H 0.58596 0.58707 0.50355 0.0
C704 C 0.27901 0.24971 0.47887 0.0
C705 C 0.29003 0.27927 0.49051 0.0
C706 C 0.25922 0.27113 0.53939 0.0
C707 C 0.25094 0.24021 0.5291 0.0
N708 N 0.2576 0.19785 0.49144 0.0
N709 N 0.29522 0.31583 0.53398 0.0
C710 C 0.26212 0.22887 0.49946 0.0
C711 C 0.2814 0.28937 0.52139 0.0
N712 N 0.28379 0.24196 0.44782 0.0
N713 N 0.24505 0.28352 0.56578 0.0
H714 H 0.31169 0.32974 0.52163 0.0
H715 H 0.29256 0.32243 0.55757 0.0
H716 H 0.22845 0.27106 0.57942 0.0
H717 H 0.24753 0.30709 0.57253 0.0
H718 H 0.27334 0.22233 0.43712 0.0
H719 H 0.29584 0.25668 0.43192 0.0
H720 H 0.26818 0.18739 0.47174 0.0
H721 H 0.24564 0.18175 0.506 0.0
C722 C 0.75493 0.53885 0.77015 0.0
C723 C 0.74652 0.52906 0.73911 0.0
C724 C 0.78084 0.48236 0.74516 0.0
C725 C 0.78589 0.4901 0.77748 0.0
N726 N 0.77129 0.52225 0.82246 0.0
N727 N 0.74602 0.48762 0.69979 0.0
C728 C 0.77105 0.51737 0.7905 0.0
C729 C 0.75791 0.49967 0.72736 0.0
N730 N 0.74866 0.56905 0.77987 0.0
N731 N 0.79878 0.45935 0.73102 0.0
H732 H 0.72842 0.49899 0.68654 0.0
H733 H 0.75122 0.46485 0.69186 0.0
H734 H 0.81659 0.44682 0.74287 0.0
H735 H 0.79822 0.45501 0.70676 0.0
H736 H 0.75711 0.57824 0.80114 0.0
H737 H 0.73799 0.58594 0.7653 0.0
H738 H 0.75818 0.54014 0.83338 0.0
H739 H 0.78178 0.50649 0.83837 0.0
C740 C 0.52655 1.00014 0.03541 0.0
C741 C 0.53471 0.03117 0.02527 0.0
C742 C 0.50648 0.0223 0.97519 0.0
C743 C 0.49586 0.99244 0.98656 0.0
N744 N 0.49113 0.95506 0.02954 0.0
N745 N 0.52797 0.074 0.98807 0.0
C746 C 0.5046 0.98193 0.01727 0.0
C747 C 0.52341 0.04289 0.99584 0.0
N748 N 0.5406 0.98766 0.06182 0.0
N749 N 0.50131 0.03056 0.94432 0.0
H750 H 0.54013 0.08986 1.00263 0.0
H751 H 0.51731 0.08478 0.96858 0.0
H752 H 0.48912 0.01607 0.92841 0.0
H753 H 0.51147 0.05045 0.93372 0.0
H754 H 0.53832 0.96401 0.06846 0.0
H755 H 0.55683 1.00022 0.07571 0.0
H756 H 0.49385 0.94807 0.05302 0.0
H757 H 0.4749 0.94112 0.01703 0.0
C758 C 0.99111 0.7777 0.24442 0.0
C759 C 0.99678 0.77937 0.27749 0.0
C760 C 0.03967 0.74 0.27262 0.0
C761 C 0.03555 0.74007 0.23928 0.0
N762 N 1.01048 0.76158 0.19268 0.0
N763 N 0.02866 0.76555 0.3229 0.0
C764 C 1.01208 0.75964 0.22495 0.0
C765 C 0.0217 0.76144 0.29156 0.0
N766 N 0.96517 0.79279 0.23179 0.0
N767 N 0.0602 0.71879 0.28621 0.0
H768 H 1.01556 0.78049 0.33766 0.0
H769 H 0.04873 0.75599 0.33385 0.0
H770 H 0.07418 0.70314 0.27307 0.0
H771 H 0.06175 0.71499 0.3105 0.0
H772 H 0.95753 0.78972 0.20856 0.0
H773 H 0.94972 0.8068 0.24519 0.0
H774 H 0.99644 0.77796 0.18065 0.0
H775 H 0.025 0.74822 0.17771 0.0
C776 C 0.25273 0.9967 0.78733 0.0
C777 C 0.28436 0.98922 0.77767 0.0
C778 C 0.27676 0.01913 0.72836 0.0
C779 C 0.24596 0.02841 0.73905 0.0
N780 N 0.20585 0.02979 0.78006 0.0
N781 N 0.32837 0.99632 0.74141 0.0
C782 C 0.23427 0.01822 0.76894 0.0
C783 C 0.29692 1.00129 0.74882 0.0
N784 N 0.24009 0.98255 0.81368 0.0
N785 N 0.28633 0.02667 0.6983 0.0
H786 H 0.34365 0.98282 0.75549 0.0
H787 H 0.34002 1.00735 0.72259 0.0
H788 H 0.27245 0.04019 0.68288 0.0
H789 H 0.30691 0.0177 0.68774 0.0
H790 H 0.21611 0.98412 0.82011 0.0
H791 H 0.25313 0.96723 0.8281 0.0
H792 H 0.19761 0.02618 0.80304 0.0
H793 H 0.19138 0.04507 0.76699 0.0
C794 C 1.00694 0.48201 0.02085 0.0
C795 C 0.99852 0.49282 0.99015 0.0
C796 C 0.02533 0.54345 1.00047 0.0
C797 C 0.03636 0.53148 0.0299 0.0
N798 N 0.04219 0.48759 0.06601 0.0
N799 N 1.00416 0.53152 0.94847 0.0
C800 C 0.0284 0.50024 0.03955 0.0
C801 C 1.00896 0.52293 0.97931 0.0
N802 N 0.99363 0.45481 0.03255 0.0
N803 N 0.02959 0.57471 0.99317 0.0
H804 H 0.99239 0.5171 0.9322 0.0
H805 H 1.01425 0.55165 0.93827 0.0
H806 H 0.04128 0.59054 1.00813 0.0
H807 H 0.01909 0.5856 0.97366 0.0
H808 H 0.99608 0.44753 0.05598 0.0
H809 H 0.97782 0.44081 0.0196 0.0
H810 H 0.04009 0.46384 0.07232 0.0
H811 H 0.05805 0.50015 0.0803 0.0
C812 C 0.52951 0.29113 0.26767 0.0
C813 C 0.49878 0.28067 0.27752 0.0
C814 C 0.5049 0.23226 0.24603 0.0
C815 C 0.53654 0.24163 0.2381 0.0
N816 N 0.58095 0.27742 0.24476 0.0
N817 N 0.4587 0.23968 0.2801 0.0
C818 C 0.54942 0.27039 0.24988 0.0
C819 C 0.48687 0.25075 0.26781 0.0
N820 N 0.53925 0.32124 0.27456 0.0
N821 N 0.49178 0.20617 0.232 0.0
H822 H 0.44461 0.25275 0.29572 0.0
H823 H 0.45042 0.21669 0.27679 0.0
H824 H 0.5044 0.1918 0.21629 0.0
H825 H 0.46774 0.20004 0.23396 0.0
H826 H 0.55978 0.33157 0.26513 0.0
H827 H 0.5255 0.33694 0.28788 0.0
H828 H 0.59275 0.29621 0.25558 0.0
H829 H 0.59615 0.26299 0.23154 0.0
C830 C 0.80688 0.75502 0.51175 0.0
C831 C 0.79374 0.76659 0.48305 0.0
C832 C 0.75145 0.72661 0.48686 0.0
C833 C 0.75988 0.72086 0.51891 0.0
N834 N 0.80897 0.70976 0.54644 0.0
N835 N 0.75321 0.76287 0.44258 0.0
C836 C 0.79152 0.72948 0.52763 0.0
C837 C 0.76599 0.75214 0.4703 0.0
N838 N 0.83402 0.76823 0.5239 0.0
N839 N 0.73408 0.70462 0.47069 0.0
H840 H 0.76337 0.78127 0.42946 0.0
H841 H 0.7312 0.755 0.43408 0.0
H842 H 0.7284 0.68271 0.48073 0.0
H843 H 0.72967 0.70612 0.44647 0.0
H844 H 0.84259 0.76258 0.54637 0.0
H845 H 0.84658 0.78632 0.5125 0.0
H846 H 0.83312 0.71334 0.55136 0.0
H847 H 0.8005 0.68736 0.55275 0.0
C848 C 0.25656 0.49861 0.23016 0.0
C849 C 0.24802 0.52918 0.24119 0.0
C850 C 0.2761 0.519 0.29115 0.0
C851 C 0.287 0.48962 0.27899 0.0
N852 N 0.29197 0.45346 0.23518 0.0
N853 N 0.25362 0.5707 0.27986 0.0
C854 C 0.27841 0.47995 0.24798 0.0
C855 C 0.25889 0.54001 0.27108 0.0
N856 N 0.24297 0.487 0.20315 0.0
N857 N 0.28136 0.5264 0.3222 0.0
H858 H 0.24107 0.58676 0.26583 0.0
H859 H 0.26393 0.58103 0.29974 0.0
H860 H 0.2939 0.51165 0.33762 0.0
H861 H 0.27105 0.5458 0.33342 0.0
H862 H 0.24545 0.46364 0.19575 0.0
H863 H 0.22697 0.49999 0.18938 0.0
H864 H 0.28947 0.4471 0.21151 0.0
H865 H 0.30796 0.43911 0.24752 0.0
C866 C 0.78528 0.24688 0.98144 0.0
C867 C 0.78799 0.27983 0.98747 0.0
C868 C 0.74864 0.27485 0.03039 0.0
C869 C 0.74882 0.24144 0.02672 0.0
N870 N 0.77248 0.19518 1.00279 0.0
N871 N 0.77701 0.32413 0.02181 0.0
C872 C 0.76862 0.22729 1.00337 0.0
C873 C 0.77099 0.29356 0.01313 0.0
N874 N 0.79761 0.23442 0.95421 0.0
N875 N 0.72635 0.28887 0.04946 0.0
H876 H 0.79366 0.33847 0.01022 0.0
H877 H 0.76777 0.33427 0.04234 0.0
H878 H 0.70911 0.2761 0.06198 0.0
H879 H 0.72301 0.31328 0.05044 0.0
H880 H 0.79346 0.21118 0.94708 0.0
H881 H 0.80932 0.24807 0.93716 0.0
H882 H 0.78916 0.18389 0.98838 0.0
H883 H 0.76133 0.18002 0.01891 0.0
C884 C 0.76901 0.01843 0.29052 0.0
C885 C 0.78356 0.991 0.27753 0.0
C886 C 0.75673 1.00113 0.22688 0.0
C887 C 0.74499 0.03027 0.23888 0.0
N888 N 0.7449 0.06953 0.28028 0.0
N889 N 0.79598 0.95925 0.23172 0.0
C890 C 0.75251 0.03974 0.27022 0.0
C891 C 0.77872 0.98316 0.24523 0.0
N892 N 0.77001 0.02359 0.32243 0.0
N893 N 0.74604 0.99005 0.19842 0.0
H894 H 0.81256 0.94574 0.24424 0.0
H895 H 0.79601 0.9547 0.20751 0.0
H896 H 0.72969 1.00232 0.18441 0.0
H897 H 0.7511 0.96743 0.19005 0.0
H898 H 0.75698 0.04135 0.33363 0.0
H899 H 0.78145 1.00831 0.33816 0.0
H900 H 0.75279 0.07891 0.30167 0.0
H901 H 0.73321 0.08601 0.26601 0.0
C902 C 1.01146 0.01725 0.47694 0.0
C903 C 0.99573 0.99053 0.49024 0.0
C904 C 0.02191 1.00091 0.54113 0.0
C905 C 0.03455 0.02963 0.52883 0.0
N906 N 0.03602 0.06823 0.48665 0.0
N907 N 0.9811 0.96044 0.53669 0.0
C908 C 0.02784 0.03869 0.49715 0.0
C909 C 0.99959 0.98331 0.52284 0.0
N910 N 1.01174 0.02161 0.44488 0.0
N911 N 0.03205 0.98979 0.56979 0.0
H912 H 0.96403 0.94742 0.5243 0.0
H913 H 0.98053 0.95649 0.56103 0.0
H914 H 0.04887 1.0016 0.58364 0.0
H915 H 0.02615 0.9674 0.5784 0.0
H916 H 0.02559 0.03884 0.43369 0.0
H917 H 1.00065 1.00607 0.42918 0.0
H918 H 0.02874 0.07725 0.46487 0.0
H919 H 0.04742 0.08491 0.50089 0.0
C920 C 0.98691 0.26587 0.75125 0.0
C921 C 1.00015 0.27905 0.7792 0.0
C922 C 0.05057 0.25092 0.76943 0.0
C923 C 0.03823 0.23991 0.74017 0.0
N924 N 0.9965 0.23993 0.7009 0.0
N925 N 0.04557 0.2878 0.81313 0.0
C926 C 1.00685 0.24819 0.73044 0.0
C927 C 0.03227 0.27253 0.78785 0.0
N928 N 0.95503 0.26956 0.74508 0.0
N929 N 0.07948 0.24008 0.77992 0.0
H930 H 0.0328 0.30343 0.82744 0.0
H931 H 0.06982 0.2869 0.81859 0.0
H932 H 0.09379 0.22468 0.76683 0.0
H933 H 0.08827 0.24435 0.80255 0.0
H934 H 0.9431 0.25773 0.72702 0.0
H935 H 0.93977 0.28261 0.75962 0.0
H936 H 0.97535 0.24823 0.69095 0.0
H937 H 1.01025 0.22658 0.68521 0.0
C938 C 0.54189 0.74466 0.76757 0.0
C939 C 0.53616 0.74392 0.73446 0.0
C940 C 0.49009 0.77924 0.74137 0.0
C941 C 0.49762 0.78224 0.77398 0.0
N942 N 0.53376 0.77217 0.81724 0.0
N943 N 0.5083 0.7644 0.68892 0.0
C944 C 0.52441 0.76616 0.78685 0.0
C945 C 0.5112 0.76231 0.72108 0.0
N946 N 0.56326 0.72405 0.78075 0.0
N947 N 0.4622 0.79168 0.73 0.0
H948 H 0.52331 0.75236 0.67331 0.0
H949 H 0.49284 0.78009 0.67768 0.0
H950 H 0.44613 0.80421 0.74411 0.0
H951 H 0.45366 0.78733 0.70728 0.0
H952 H 0.56591 0.72103 0.80507 0.0
H953 H 0.57648 0.70788 0.76746 0.0
H954 H 0.55508 0.76387 0.82686 0.0
H955 H 0.52159 0.78776 0.8321 0.0
C956 C 0.25952 0.7284 1.00174 0.0
C957 C 0.25192 0.73959 0.0325 0.0
C958 C 0.28499 0.7868 0.02337 0.0
C959 C 0.28999 0.77709 0.99159 0.0
N960 N 0.27822 0.74117 0.94887 0.0
N961 N 0.25332 0.78141 0.07124 0.0
C962 C 0.27624 0.74853 0.98031 0.0
C963 C 0.26357 0.76934 0.04299 0.0
N964 N 0.25153 0.69817 0.99333 0.0
N965 N 0.30145 0.81218 0.03507 0.0
H966 H 0.23781 0.76927 0.08635 0.0
H967 H 0.25807 0.80446 0.07856 0.0
H968 H 0.31728 0.82559 0.02142 0.0
H969 H 0.30153 0.81836 0.05891 0.0
H970 H 0.2594 0.68744 0.97257 0.0
H971 H 0.23926 0.68274 1.00838 0.0
H972 H 0.26571 0.72255 0.93855 0.0
H973 H 0.2903 0.75528 0.93244 0.0
C974 C 0.5441 0.49131 0.47739 0.0
C975 C 0.51296 0.50044 0.46759 0.0
C976 C 0.51904 0.54987 0.49722 0.0
C977 C 0.54602 0.53705 0.51295 0.0
N978 N 0.58578 0.49577 0.51678 0.0
N979 N 0.48925 0.54874 0.44853 0.0
C980 C 0.55908 0.50782 0.50264 0.0
C981 C 0.50515 0.53286 0.47179 0.0
N982 N 0.5615 0.47112 0.45905 0.0
N983 N 0.50623 0.57801 0.50673 0.0
H984 H 0.48439 0.53815 0.42675 0.0
H985 H 0.48543 0.57311 0.44903 0.0
H986 H 0.51574 0.59136 0.52522 0.0
H987 H 0.48471 0.58663 0.49775 0.0
H988 H 0.58542 0.46574 0.46336 0.0
H989 H 0.5533 0.46377 0.43692 0.0
H990 H 0.5941 0.47296 0.51227 0.0
H991 H 0.59836 0.50774 0.53439 0.0
loop_
_geom_bond_atom_site_label_1
_geom_bond_atom_site_label_2
_geom_bond_distance
_geom_bond_site_symmetry_2
_ccdc_geom_bond_type
Li0 N17 1.990 . S
Li0 O60 1.956 . S
Li0 O61 1.970 . S
Li0 O62 1.961 . S
Li1 N25 1.990 . S
Li1 O60 1.970 . S
Li1 O61 1.956 . S
Li1 O63 1.961 . S
Li2 N47 1.990 . S
Li2 O60 1.961 . S
Li2 O62 1.956 . S
Li2 O63 1.970 . S
Li3 N53 1.990 . S
Li3 O61 1.961 . S
Li3 O62 1.970 . S
Li3 O63 1.956 . S
C4 C6 1.348 . S
C4 C7 1.356 . S
C4 O60 1.325 . S
N5 C8 1.314 . S
N5 C9 1.279 . S
C6 C4 1.348 . S
C6 C8 1.353 . S
C6 H64 0.929 . S
C7 C4 1.356 . S
C7 C9 1.358 . S
C7 H65 0.930 . S
C8 N5 1.314 . S
C8 C6 1.353 . S
C8 H66 0.930 . S
C9 N5 1.279 . S
C9 C7 1.358 . S
C9 H67 0.930 . S
C10 C13 1.348 . S
C10 C14 1.356 . S
C10 O61 1.325 . S
C11 N12 1.279 . S
C11 C14 1.358 . S
C11 H68 0.930 . S
N12 C11 1.279 . S
N12 C15 1.314 . S
C13 C10 1.348 . S
C13 C15 1.353 . S
C13 H69 0.929 . S
C14 C10 1.356 . S
C14 C11 1.358 . S
C14 H70 0.930 . S
C15 N12 1.314 . S
C15 C13 1.353 . S
C15 H71 0.930 . S
C16 N17 1.314 . S
C16 C21 1.353 . S
C16 H22 0.930 . S
N17 Li0 1.990 . S
N17 C16 1.314 . S
N17 C19 1.279 . S
C18 C19 1.358 . S
C18 C20 1.356 . S
C18 H72 0.930 . S
C19 N17 1.279 . S
C19 C18 1.358 . S
C19 H23 0.930 . S
C20 C18 1.356 . S
C20 C21 1.348 . S
C21 C16 1.353 . S
C21 C20 1.348 . S
C21 H73 0.929 . S
H22 C16 0.930 . S
H23 C19 0.930 . S
C24 N25 1.314 . S
C24 C26 1.353 . S
C24 H30 0.930 . S
N25 Li1 1.990 . S
N25 C24 1.314 . S
N25 C28 1.279 . S
C26 C24 1.353 . S
C26 C29 1.348 . S
C26 H74 0.929 . S
C27 C28 1.358 . S
C27 C29 1.356 . S
C27 H75 0.930 . S
C28 N25 1.279 . S
C28 C27 1.358 . S
C28 H31 0.930 . S
C29 C26 1.348 . S
C29 C27 1.356 . S
H30 C24 0.930 . S
H31 C28 0.930 . S
C32 C34 1.348 . S
C32 C35 1.356 . S
C32 O62 1.325 . S
N33 C36 1.314 . S
N33 C37 1.279 . S
C34 C32 1.348 . S
C34 C36 1.353 . S
C34 H76 0.929 . S
C35 C32 1.356 . S
C35 C37 1.358 . S
C35 H77 0.930 . S
C36 N33 1.314 . S
C36 C34 1.353 . S
C36 H78 0.930 . S
C37 N33 1.279 . S
C37 C35 1.358 . S
C37 H79 0.930 . S
C38 C39 1.348 . S
C38 C40 1.356 . S
C38 O63 1.325 . S
C39 C38 1.348 . S
C39 C41 1.353 . S
C39 H80 0.929 . S
C40 C38 1.356 . S
C40 C42 1.358 . S
C40 H81 0.930 . S
C41 C39 1.353 . S
C41 N43 1.314 . S
C41 H82 0.930 . S
C42 C40 1.358 . S
C42 N43 1.279 . S
C42 H83 0.930 . S
N43 C41 1.314 . S
N43 C42 1.279 . S
C44 C46 1.353 . S
C44 N47 1.314 . S
C44 H50 0.930 . S
C45 N47 1.279 . S
C45 C48 1.358 . S
C45 H51 0.930 . S
C46 C44 1.353 . S
C46 C49 1.348 . S
C46 H84 0.929 . S
N47 Li2 1.990 . S
N47 C44 1.314 . S
N47 C45 1.279 . S
C48 C45 1.358 . S
C48 C49 1.356 . S
C48 H85 0.930 . S
C49 C46 1.348 . S
C49 C48 1.356 . S
H50 C44 0.930 . S
H51 C45 0.930 . S
C52 N53 1.314 . S
C52 C54 1.353 . S
C52 H58 0.930 . S
N53 Li3 1.990 . S
N53 C52 1.314 . S
N53 C56 1.279 . S
C54 C52 1.353 . S
C54 C57 1.348 . S
C54 H86 0.929 . S
C55 C56 1.358 . S
C55 C57 1.356 . S
C55 H87 0.930 . S
C56 N53 1.279 . S
C56 C55 1.358 . S
C56 H59 0.930 . S
C57 C54 1.348 . S
C57 C55 1.356 . S
H58 C52 0.930 . S
H59 C56 0.930 . S
O60 Li0 1.956 . S
O60 Li1 1.970 . S
O60 Li2 1.961 . S
O60 C4 1.325 . S
O61 Li0 1.970 . S
O61 Li1 1.956 . S
O61 Li3 1.961 . S
O61 C10 1.325 . S
O62 Li0 1.961 . S
O62 Li2 1.956 . S
O62 Li3 1.970 . S
O62 C32 1.325 . S
O63 Li1 1.961 . S
O63 Li2 1.970 . S
O63 Li3 1.956 . S
O63 C38 1.325 . S
H64 C6 0.929 . S
H65 C7 0.930 . S
H66 C8 0.930 . S
H67 C9 0.930 . S
H68 C11 0.930 . S
H69 C13 0.929 . S
H70 C14 0.930 . S
H71 C15 0.930 . S
H72 C18 0.930 . S
H73 C21 0.929 . S
H74 C26 0.929 . S
H75 C27 0.930 . S
H76 C34 0.929 . S
H77 C35 0.930 . S
H78 C36 0.930 . S
H79 C37 0.930 . S
H80 C39 0.929 . S
H81 C40 0.930 . S
H82 C41 0.930 . S
H83 C42 0.930 . S
H84 C46 0.929 . S
H85 C48 0.930 . S
H86 C54 0.929 . S
H87 C55 0.930 . S
Li88 N105 1.990 . S
Li88 O148 1.956 . S
Li88 O149 1.970 . S
Li88 O150 1.961 . S
Li89 N113 1.990 . S
Li89 O148 1.970 . S
Li89 O149 1.956 . S
Li89 O151 1.961 . S
Li90 N135 1.990 . S
Li90 O148 1.961 . S
Li90 O150 1.956 . S
Li90 O151 1.970 . S
Li91 N141 1.990 . S
Li91 O149 1.961 . S
Li91 O150 1.970 . S
Li91 O151 1.956 . S
C92 C94 1.348 . S
C92 C95 1.356 . S
C92 O148 1.325 . S
N93 C96 1.314 . S
N93 C97 1.279 . S
C94 C92 1.348 . S
C94 C96 1.353 . S
C94 H152 0.929 . S
C95 C92 1.356 . S
C95 C97 1.358 . S
C95 H153 0.930 . S
C96 N93 1.314 . S
C96 C94 1.353 . S
C96 H154 0.930 . S
C97 N93 1.279 . S
C97 C95 1.358 . S
C97 H155 0.930 . S
C98 C101 1.348 . S
C98 C102 1.356 . S
C98 O149 1.325 . S
C99 N100 1.279 . S
C99 C102 1.358 . S
C99 H156 0.930 . S
N100 C99 1.279 . S
N100 C103 1.314 . S
C101 C98 1.348 . S
C101 C103 1.353 . S
C101 H157 0.929 . S
C102 C98 1.356 . S
C102 C99 1.358 . S
C102 H158 0.930 . S
C103 N100 1.314 . S
C103 C101 1.353 . S
C103 H159 0.930 . S
C104 N105 1.314 . S
C104 C109 1.353 . S
C104 H110 0.930 . S
N105 Li88 1.990 . S
N105 C104 1.314 . S
N105 C107 1.279 . S
C106 C107 1.358 . S
C106 C108 1.356 . S
C106 H160 0.930 . S
C107 N105 1.279 . S
C107 C106 1.358 . S
C107 H111 0.930 . S
C108 C106 1.356 . S
C108 C109 1.348 . S
C109 C104 1.353 . S
C109 C108 1.348 . S
C109 H161 0.929 . S
H110 C104 0.930 . S
H111 C107 0.930 . S
C112 N113 1.314 . S
C112 C114 1.353 . S
C112 H118 0.930 . S
N113 Li89 1.990 . S
N113 C112 1.314 . S
N113 C116 1.279 . S
C114 C112 1.353 . S
C114 C117 1.348 . S
C114 H162 0.929 . S
C115 C116 1.358 . S
C115 C117 1.356 . S
C115 H163 0.930 . S
C116 N113 1.279 . S
C116 C115 1.358 . S
C116 H119 0.930 . S
C117 C114 1.348 . S
C117 C115 1.356 . S
H118 C112 0.930 . S
H119 C116 0.930 . S
C120 C122 1.348 . S
C120 C123 1.356 . S
C120 O150 1.325 . S
N121 C124 1.314 . S
N121 C125 1.279 . S
C122 C120 1.348 . S
C122 C124 1.353 . S
C122 H164 0.929 . S
C123 C120 1.356 . S
C123 C125 1.358 . S
C123 H165 0.930 . S
C124 N121 1.314 . S
C124 C122 1.353 . S
C124 H166 0.930 . S
C125 N121 1.279 . S
C125 C123 1.358 . S
C125 H167 0.930 . S
C126 C127 1.348 . S
C126 C128 1.356 . S
C126 O151 1.325 . S
C127 C126 1.348 . S
C127 C129 1.353 . S
C127 H168 0.929 . S
C128 C126 1.356 . S
C128 C130 1.358 . S
C128 H169 0.930 . S
C129 C127 1.353 . S
C129 N131 1.314 . S
C129 H170 0.930 . S
C130 C128 1.358 . S
C130 N131 1.279 . S
C130 H171 0.930 . S
N131 C129 1.314 . S
N131 C130 1.279 . S
C132 C134 1.353 . S
C132 N135 1.314 . S
C132 H138 0.930 . S
C133 N135 1.279 . S
C133 C136 1.358 . S
C133 H139 0.930 . S
C134 C132 1.353 . S
C134 C137 1.348 . S
C134 H172 0.929 . S
N135 Li90 1.990 . S
N135 C132 1.314 . S
N135 C133 1.279 . S
C136 C133 1.358 . S
C136 C137 1.356 . S
C136 H173 0.930 . S
C137 C134 1.348 . S
C137 C136 1.356 . S
H138 C132 0.930 . S
H139 C133 0.930 . S
C140 N141 1.314 . S
C140 C142 1.353 . S
C140 H146 0.930 . S
N141 Li91 1.990 . S
N141 C140 1.314 . S
N141 C144 1.279 . S
C142 C140 1.353 . S
C142 C145 1.348 . S
C142 H174 0.929 . S
C143 C144 1.358 . S
C143 C145 1.356 . S
C143 H175 0.930 . S
C144 N141 1.279 . S
C144 C143 1.358 . S
C144 H147 0.930 . S
C145 C142 1.348 . S
C145 C143 1.356 . S
H146 C140 0.930 . S
H147 C144 0.930 . S
O148 Li88 1.956 . S
O148 Li89 1.970 . S
O148 Li90 1.961 . S
O148 C92 1.325 . S
O149 Li88 1.970 . S
O149 Li89 1.956 . S
O149 Li91 1.961 . S
O149 C98 1.325 . S
O150 Li88 1.961 . S
O150 Li90 1.956 . S
O150 Li91 1.970 . S
O150 C120 1.325 . S
O151 Li89 1.961 . S
O151 Li90 1.970 . S
O151 Li91 1.956 . S
O151 C126 1.325 . S
H152 C94 0.929 . S
H153 C95 0.930 . S
H154 C96 0.930 . S
H155 C97 0.930 . S
H156 C99 0.930 . S
H157 C101 0.929 . S
H158 C102 0.930 . S
H159 C103 0.930 . S
H160 C106 0.930 . S
H161 C109 0.929 . S
H162 C114 0.929 . S
H163 C115 0.930 . S
H164 C122 0.929 . S
H165 C123 0.930 . S
H166 C124 0.930 . S
H167 C125 0.930 . S
H168 C127 0.929 . S
H169 C128 0.930 . S
H170 C129 0.930 . S
H171 C130 0.930 . S
H172 C134 0.929 . S
H173 C136 0.930 . S
H174 C142 0.929 . S
H175 C143 0.930 . S
Li176 N193 1.990 . S
Li176 O236 1.956 . S
Li176 O237 1.970 . S
Li176 O238 1.961 . S
Li177 N201 1.990 . S
Li177 O236 1.970 . S
Li177 O237 1.956 . S
Li177 O239 1.961 . S
Li178 N223 1.990 . S
Li178 O236 1.961 . S
Li178 O238 1.956 . S
Li178 O239 1.970 . S
Li179 N229 1.990 . S
Li179 O237 1.961 . S
Li179 O238 1.970 . S
Li179 O239 1.956 . S
C180 C182 1.348 . S
C180 C183 1.356 . S
C180 O236 1.325 . S
N181 C184 1.314 . S
N181 C185 1.279 . S
C182 C180 1.348 . S
C182 C184 1.353 . S
C182 H240 0.929 . S
C183 C180 1.356 . S
C183 C185 1.358 . S
C183 H241 0.930 . S
C184 N181 1.314 . S
C184 C182 1.353 . S
C184 H242 0.930 . S
C185 N181 1.279 . S
C185 C183 1.358 . S
C185 H243 0.930 . S
C186 C189 1.348 . S
C186 C190 1.356 . S
C186 O237 1.325 . S
C187 N188 1.279 . S
C187 C190 1.358 . S
C187 H244 0.930 . S
N188 C187 1.279 . S
N188 C191 1.314 . S
C189 C186 1.348 . S
C189 C191 1.353 . S
C189 H245 0.929 . S
C190 C186 1.356 . S
C190 C187 1.358 . S
C190 H246 0.930 . S
C191 N188 1.314 . S
C191 C189 1.353 . S
C191 H247 0.930 . S
C192 N193 1.314 . S
C192 C197 1.353 . S
C192 H198 0.930 . S
N193 Li176 1.990 . S
N193 C192 1.314 . S
N193 C195 1.279 . S
C194 C195 1.358 . S
C194 C196 1.356 . S
C194 H248 0.930 . S
C195 N193 1.279 . S
C195 C194 1.358 . S
C195 H199 0.930 . S
C196 C194 1.356 . S
C196 C197 1.348 . S
C197 C192 1.353 . S
C197 C196 1.348 . S
C197 H249 0.929 . S
H198 C192 0.930 . S
H199 C195 0.930 . S
C200 N201 1.314 . S
C200 C202 1.353 . S
C200 H206 0.930 . S
N201 Li177 1.990 . S
N201 C200 1.314 . S
N201 C204 1.279 . S
C202 C200 1.353 . S
C202 C205 1.348 . S
C202 H250 0.929 . S
C203 C204 1.358 . S
C203 C205 1.356 . S
C203 H251 0.930 . S
C204 N201 1.279 . S
C204 C203 1.358 . S
C204 H207 0.930 . S
C205 C202 1.348 . S
C205 C203 1.356 . S
H206 C200 0.930 . S
H207 C204 0.930 . S
C208 C210 1.348 . S
C208 C211 1.356 . S
C208 O238 1.325 . S
N209 C212 1.314 . S
N209 C213 1.279 . S
C210 C208 1.348 . S
C210 C212 1.353 . S
C210 H252 0.929 . S
C211 C208 1.356 . S
C211 C213 1.358 . S
C211 H253 0.930 . S
C212 N209 1.314 . S
C212 C210 1.353 . S
C212 H254 0.930 . S
C213 N209 1.279 . S
C213 C211 1.358 . S
C213 H255 0.930 . S
C214 C215 1.348 . S
C214 C216 1.356 . S
C214 O239 1.325 . S
C215 C214 1.348 . S
C215 C217 1.353 . S
C215 H256 0.929 . S
C216 C214 1.356 . S
C216 C218 1.358 . S
C216 H257 0.930 . S
C217 C215 1.353 . S
C217 N219 1.314 . S
C217 H258 0.930 . S
C218 C216 1.358 . S
C218 N219 1.279 . S
C218 H259 0.930 . S
N219 C217 1.314 . S
N219 C218 1.279 . S
C220 C222 1.353 . S
C220 N223 1.314 . S
C220 H226 0.930 . S
C221 N223 1.279 . S
C221 C224 1.358 . S
C221 H227 0.930 . S
C222 C220 1.353 . S
C222 C225 1.348 . S
C222 H260 0.929 . S
N223 Li178 1.990 . S
N223 C220 1.314 . S
N223 C221 1.279 . S
C224 C221 1.358 . S
C224 C225 1.356 . S
C224 H261 0.930 . S
C225 C222 1.348 . S
C225 C224 1.356 . S
H226 C220 0.930 . S
H227 C221 0.930 . S
C228 N229 1.314 . S
C228 C230 1.353 . S
C228 H234 0.930 . S
N229 Li179 1.990 . S
N229 C228 1.314 . S
N229 C232 1.279 . S
C230 C228 1.353 . S
C230 C233 1.348 . S
C230 H262 0.929 . S
C231 C232 1.358 . S
C231 C233 1.356 . S
C231 H263 0.930 . S
C232 N229 1.279 . S
C232 C231 1.358 . S
C232 H235 0.930 . S
C233 C230 1.348 . S
C233 C231 1.356 . S
H234 C228 0.930 . S
H235 C232 0.930 . S
O236 Li176 1.956 . S
O236 Li177 1.970 . S
O236 Li178 1.961 . S
O236 C180 1.325 . S
O237 Li176 1.970 . S
O237 Li177 1.956 . S
O237 Li179 1.961 . S
O237 C186 1.325 . S
O238 Li176 1.961 . S
O238 Li178 1.956 . S
O238 Li179 1.970 . S
O238 C208 1.325 . S
O239 Li177 1.961 . S
O239 Li178 1.970 . S
O239 Li179 1.956 . S
O239 C214 1.325 . S
H240 C182 0.929 . S
H241 C183 0.930 . S
H242 C184 0.930 . S
H243 C185 0.930 . S
H244 C187 0.930 . S
H245 C189 0.929 . S
H246 C190 0.930 . S
H247 C191 0.930 . S
H248 C194 0.930 . S
H249 C197 0.929 . S
H250 C202 0.929 . S
H251 C203 0.930 . S
H252 C210 0.929 . S
H253 C211 0.930 . S
H254 C212 0.930 . S
H255 C213 0.930 . S
H256 C215 0.929 . S
H257 C216 0.930 . S
H258 C217 0.930 . S
H259 C218 0.930 . S
H260 C222 0.929 . S
H261 C224 0.930 . S
H262 C230 0.929 . S
H263 C231 0.930 . S
Li264 N281 1.990 . S
Li264 O324 1.956 . S
Li264 O325 1.970 . S
Li264 O326 1.961 . S
Li265 N289 1.990 . S
Li265 O324 1.970 . S
Li265 O325 1.956 . S
Li265 O327 1.961 . S
Li266 N311 1.990 . S
Li266 O324 1.961 . S
Li266 O326 1.956 . S
Li266 O327 1.970 . S
Li267 N317 1.990 . S
Li267 O325 1.961 . S
Li267 O326 1.970 . S
Li267 O327 1.956 . S
C268 C270 1.348 . S
C268 C271 1.356 . S
C268 O324 1.325 . S
N269 C272 1.314 . S
N269 C273 1.279 . S
C270 C268 1.348 . S
C270 C272 1.353 . S
C270 H328 0.929 . S
C271 C268 1.356 . S
C271 C273 1.358 . S
C271 H329 0.930 . S
C272 N269 1.314 . S
C272 C270 1.353 . S
C272 H330 0.930 . S
C273 N269 1.279 . S
C273 C271 1.358 . S
C273 H331 0.930 . S
C274 C277 1.348 . S
C274 C278 1.356 . S
C274 O325 1.325 . S
C275 N276 1.279 . S
C275 C278 1.358 . S
C275 H332 0.930 . S
N276 C275 1.279 . S
N276 C279 1.314 . S
C277 C274 1.348 . S
C277 C279 1.353 . S
C277 H333 0.929 . S
C278 C274 1.356 . S
C278 C275 1.358 . S
C278 H334 0.930 . S
C279 N276 1.314 . S
C279 C277 1.353 . S
C279 H335 0.930 . S
C280 N281 1.314 . S
C280 C285 1.353 . S
C280 H286 0.930 . S
N281 Li264 1.990 . S
N281 C280 1.314 . S
N281 C283 1.279 . S
C282 C283 1.358 . S
C282 C284 1.356 . S
C282 H336 0.930 . S
C283 N281 1.279 . S
C283 C282 1.358 . S
C283 H287 0.930 . S
C284 C282 1.356 . S
C284 C285 1.348 . S
C285 C280 1.353 . S
C285 C284 1.348 . S
C285 H337 0.929 . S
H286 C280 0.930 . S
H287 C283 0.930 . S
C288 N289 1.314 . S
C288 C290 1.353 . S
C288 H294 0.930 . S
N289 Li265 1.990 . S
N289 C288 1.314 . S
N289 C292 1.279 . S
C290 C288 1.353 . S
C290 C293 1.348 . S
C290 H338 0.929 . S
C291 C292 1.358 . S
C291 C293 1.356 . S
C291 H339 0.930 . S
C292 N289 1.279 . S
C292 C291 1.358 . S
C292 H295 0.930 . S
C293 C290 1.348 . S
C293 C291 1.356 . S
H294 C288 0.930 . S
H295 C292 0.930 . S
C296 C298 1.348 . S
C296 C299 1.356 . S
C296 O326 1.325 . S
N297 C300 1.314 . S
N297 C301 1.279 . S
C298 C296 1.348 . S
C298 C300 1.353 . S
C298 H340 0.929 . S
C299 C296 1.356 . S
C299 C301 1.358 . S
C299 H341 0.930 . S
C300 N297 1.314 . S
C300 C298 1.353 . S
C300 H342 0.930 . S
C301 N297 1.279 . S
C301 C299 1.358 . S
C301 H343 0.930 . S
C302 C303 1.348 . S
C302 C304 1.356 . S
C302 O327 1.325 . S
C303 C302 1.348 . S
C303 C305 1.353 . S
C303 H344 0.929 . S
C304 C302 1.356 . S
C304 C306 1.358 . S
C304 H345 0.930 . S
C305 C303 1.353 . S
C305 N307 1.314 . S
C305 H346 0.930 . S
C306 C304 1.358 . S
C306 N307 1.279 . S
C306 H347 0.930 . S
N307 C305 1.314 . S
N307 C306 1.279 . S
C308 C310 1.353 . S
C308 N311 1.314 . S
C308 H314 0.930 . S
C309 N311 1.279 . S
C309 C312 1.358 . S
C309 H315 0.930 . S
C310 C308 1.353 . S
C310 C313 1.348 . S
C310 H348 0.929 . S
N311 Li266 1.990 . S
N311 C308 1.314 . S
N311 C309 1.279 . S
C312 C309 1.358 . S
C312 C313 1.356 . S
C312 H349 0.930 . S
C313 C310 1.348 . S
C313 C312 1.356 . S
H314 C308 0.930 . S
H315 C309 0.930 . S
C316 N317 1.314 . S
C316 C318 1.353 . S
C316 H322 0.930 . S
N317 Li267 1.990 . S
N317 C316 1.314 . S
N317 C320 1.279 . S
C318 C316 1.353 . S
C318 C321 1.348 . S
C318 H350 0.929 . S
C319 C320 1.358 . S
C319 C321 1.356 . S
C319 H351 0.930 . S
C320 N317 1.279 . S
C320 C319 1.358 . S
C320 H323 0.930 . S
C321 C318 1.348 . S
C321 C319 1.356 . S
H322 C316 0.930 . S
H323 C320 0.930 . S
O324 Li264 1.956 . S
O324 Li265 1.970 . S
O324 Li266 1.961 . S
O324 C268 1.325 . S
O325 Li264 1.970 . S
O325 Li265 1.956 . S
O325 Li267 1.961 . S
O325 C274 1.325 . S
O326 Li264 1.961 . S
O326 Li266 1.956 . S
O326 Li267 1.970 . S
O326 C296 1.325 . S
O327 Li265 1.961 . S
O327 Li266 1.970 . S
O327 Li267 1.956 . S
O327 C302 1.325 . S
H328 C270 0.929 . S
H329 C271 0.930 . S
H330 C272 0.930 . S
H331 C273 0.930 . S
H332 C275 0.930 . S
H333 C277 0.929 . S
H334 C278 0.930 . S
H335 C279 0.930 . S
H336 C282 0.930 . S
H337 C285 0.929 . S
H338 C290 0.929 . S
H339 C291 0.930 . S
H340 C298 0.929 . S
H341 C299 0.930 . S
H342 C300 0.930 . S
H343 C301 0.930 . S
H344 C303 0.929 . S
H345 C304 0.930 . S
H346 C305 0.930 . S
H347 C306 0.930 . S
H348 C310 0.929 . S
H349 C312 0.930 . S
H350 C318 0.929 . S
H351 C319 0.930 . S
Li352 N369 1.990 . S
Li352 O412 1.956 . S
Li352 O413 1.970 . S
Li352 O414 1.961 . S
Li353 N377 1.990 . S
Li353 O412 1.970 . S
Li353 O413 1.956 . S
Li353 O415 1.961 . S
Li354 N399 1.990 . S
Li354 O412 1.961 . S
Li354 O414 1.956 . S
Li354 O415 1.970 . S
Li355 N405 1.990 . S
Li355 O413 1.961 . S
Li355 O414 1.970 . S
Li355 O415 1.956 . S
C356 C358 1.348 . S
C356 C359 1.356 . S
C356 O412 1.325 . S
N357 C360 1.314 . S
N357 C361 1.279 . S
C358 C356 1.348 . S
C358 C360 1.353 . S
C358 H416 0.929 . S
C359 C356 1.356 . S
C359 C361 1.358 . S
C359 H417 0.930 . S
C360 N357 1.314 . S
C360 C358 1.353 . S
C360 H418 0.930 . S
C361 N357 1.279 . S
C361 C359 1.358 . S
C361 H419 0.930 . S
C362 C365 1.348 . S
C362 C366 1.356 . S
C362 O413 1.325 . S
C363 N364 1.279 . S
C363 C366 1.358 . S
C363 H420 0.930 . S
N364 C363 1.279 . S
N364 C367 1.314 . S
C365 C362 1.348 . S
C365 C367 1.353 . S
C365 H421 0.929 . S
C366 C362 1.356 . S
C366 C363 1.358 . S
C366 H422 0.930 . S
C367 N364 1.314 . S
C367 C365 1.353 . S
C367 H423 0.930 . S
C368 N369 1.314 . S
C368 C373 1.353 . S
C368 H374 0.930 . S
N369 Li352 1.990 . S
N369 C368 1.314 . S
N369 C371 1.279 . S
C370 C371 1.358 . S
C370 C372 1.356 . S
C370 H424 0.930 . S
C371 N369 1.279 . S
C371 C370 1.358 . S
C371 H375 0.930 . S
C372 C370 1.356 . S
C372 C373 1.348 . S
C373 C368 1.353 . S
C373 C372 1.348 . S
C373 H425 0.929 . S
H374 C368 0.930 . S
H375 C371 0.930 . S
C376 N377 1.314 . S
C376 C378 1.353 . S
C376 H382 0.930 . S
N377 Li353 1.990 . S
N377 C376 1.314 . S
N377 C380 1.279 . S
C378 C376 1.353 . S
C378 C381 1.348 . S
C378 H426 0.929 . S
C379 C380 1.358 . S
C379 C381 1.356 . S
C379 H427 0.930 . S
C380 N377 1.279 . S
C380 C379 1.358 . S
C380 H383 0.930 . S
C381 C378 1.348 . S
C381 C379 1.356 . S
H382 C376 0.930 . S
H383 C380 0.930 . S
C384 C386 1.348 . S
C384 C387 1.356 . S
C384 O414 1.325 . S
N385 C388 1.314 . S
N385 C389 1.279 . S
C386 C384 1.348 . S
C386 C388 1.353 . S
C386 H428 0.929 . S
C387 C384 1.356 . S
C387 C389 1.358 . S
C387 H429 0.930 . S
C388 N385 1.314 . S
C388 C386 1.353 . S
C388 H430 0.930 . S
C389 N385 1.279 . S
C389 C387 1.358 . S
C389 H431 0.930 . S
C390 C391 1.348 . S
C390 C392 1.356 . S
C390 O415 1.325 . S
C391 C390 1.348 . S
C391 C393 1.353 . S
C391 H432 0.929 . S
C392 C390 1.356 . S
C392 C394 1.358 . S
C392 H433 0.930 . S
C393 C391 1.353 . S
C393 N395 1.314 . S
C393 H434 0.930 . S
C394 C392 1.358 . S
C394 N395 1.279 . S
C394 H435 0.930 . S
N395 C393 1.314 . S
N395 C394 1.279 . S
C396 C398 1.353 . S
C396 N399 1.314 . S
C396 H402 0.930 . S
C397 N399 1.279 . S
C397 C400 1.358 . S
C397 H403 0.930 . S
C398 C396 1.353 . S
C398 C401 1.348 . S
C398 H436 0.929 . S
N399 Li354 1.990 . S
N399 C396 1.314 . S
N399 C397 1.279 . S
C400 C397 1.358 . S
C400 C401 1.356 . S
C400 H437 0.930 . S
C401 C398 1.348 . S
C401 C400 1.356 . S
H402 C396 0.930 . S
H403 C397 0.930 . S
C404 N405 1.314 . S
C404 C406 1.353 . S
C404 H410 0.930 . S
N405 Li355 1.990 . S
N405 C404 1.314 . S
N405 C408 1.279 . S
C406 C404 1.353 . S
C406 C409 1.348 . S
C406 H438 0.929 . S
C407 C408 1.358 . S
C407 C409 1.356 . S
C407 H439 0.930 . S
C408 N405 1.279 . S
C408 C407 1.358 . S
C408 H411 0.930 . S
C409 C406 1.348 . S
C409 C407 1.356 . S
H410 C404 0.930 . S
H411 C408 0.930 . S
O412 Li352 1.956 . S
O412 Li353 1.970 . S
O412 Li354 1.961 . S
O412 C356 1.325 . S
O413 Li352 1.970 . S
O413 Li353 1.956 . S
O413 Li355 1.961 . S
O413 C362 1.325 . S
O414 Li352 1.961 . S
O414 Li354 1.956 . S
O414 Li355 1.970 . S
O414 C384 1.325 . S
O415 Li353 1.961 . S
O415 Li354 1.970 . S
O415 Li355 1.956 . S
O415 C390 1.325 . S
H416 C358 0.929 . S
H417 C359 0.930 . S
H418 C360 0.930 . S
H419 C361 0.930 . S
H420 C363 0.930 . S
H421 C365 0.929 . S
H422 C366 0.930 . S
H423 C367 0.930 . S
H424 C370 0.930 . S
H425 C373 0.929 . S
H426 C378 0.929 . S
H427 C379 0.930 . S
H428 C386 0.929 . S
H429 C387 0.930 . S
H430 C388 0.930 . S
H431 C389 0.930 . S
H432 C391 0.929 . S
H433 C392 0.930 . S
H434 C393 0.930 . S
H435 C394 0.930 . S
H436 C398 0.929 . S
H437 C400 0.930 . S
H438 C406 0.929 . S
H439 C407 0.930 . S
Li440 N457 1.990 . S
Li440 O500 1.956 . S
Li440 O501 1.970 . S
Li440 O502 1.961 . S
Li441 N465 1.990 . S
Li441 O500 1.970 . S
Li441 O501 1.956 . S
Li441 O503 1.961 . S
Li442 N487 1.990 . S
Li442 O500 1.961 . S
Li442 O502 1.956 . S
Li442 O503 1.970 . S
Li443 N493 1.990 . S
Li443 O501 1.961 . S
Li443 O502 1.970 . S
Li443 O503 1.956 . S
C444 C446 1.348 . S
C444 C447 1.356 . S
C444 O500 1.325 . S
N445 C448 1.314 . S
N445 C449 1.279 . S
C446 C444 1.348 . S
C446 C448 1.353 . S
C446 H504 0.929 . S
C447 C444 1.356 . S
C447 C449 1.358 . S
C447 H505 0.930 . S
C448 N445 1.314 . S
C448 C446 1.353 . S
C448 H506 0.930 . S
C449 N445 1.279 . S
C449 C447 1.358 . S
C449 H507 0.930 . S
C450 C453 1.348 . S
C450 C454 1.356 . S
C450 O501 1.325 . S
C451 N452 1.279 . S
C451 C454 1.358 . S
C451 H508 0.930 . S
N452 C451 1.279 . S
N452 C455 1.314 . S
C453 C450 1.348 . S
C453 C455 1.353 . S
C453 H509 0.929 . S
C454 C450 1.356 . S
C454 C451 1.358 . S
C454 H510 0.930 . S
C455 N452 1.314 . S
C455 C453 1.353 . S
C455 H511 0.930 . S
C456 N457 1.314 . S
C456 C461 1.353 . S
C456 H462 0.930 . S
N457 Li440 1.990 . S
N457 C456 1.314 . S
N457 C459 1.279 . S
C458 C459 1.358 . S
C458 C460 1.356 . S
C458 H512 0.930 . S
C459 N457 1.279 . S
C459 C458 1.358 . S
C459 H463 0.930 . S
C460 C458 1.356 . S
C460 C461 1.348 . S
C461 C456 1.353 . S
C461 C460 1.348 . S
C461 H513 0.929 . S
H462 C456 0.930 . S
H463 C459 0.930 . S
C464 N465 1.314 . S
C464 C466 1.353 . S
C464 H470 0.930 . S
N465 Li441 1.990 . S
N465 C464 1.314 . S
N465 C468 1.279 . S
C466 C464 1.353 . S
C466 C469 1.348 . S
C466 H514 0.929 . S
C467 C468 1.358 . S
C467 C469 1.356 . S
C467 H515 0.930 . S
C468 N465 1.279 . S
C468 C467 1.358 . S
C468 H471 0.930 . S
C469 C466 1.348 . S
C469 C467 1.356 . S
H470 C464 0.930 . S
H471 C468 0.930 . S
C472 C474 1.348 . S
C472 C475 1.356 . S
C472 O502 1.325 . S
N473 C476 1.314 . S
N473 C477 1.279 . S
C474 C472 1.348 . S
C474 C476 1.353 . S
C474 H516 0.929 . S
C475 C472 1.356 . S
C475 C477 1.358 . S
C475 H517 0.930 . S
C476 N473 1.314 . S
C476 C474 1.353 . S
C476 H518 0.930 . S
C477 N473 1.279 . S
C477 C475 1.358 . S
C477 H519 0.930 . S
C478 C479 1.348 . S
C478 C480 1.356 . S
C478 O503 1.325 . S
C479 C478 1.348 . S
C479 C481 1.353 . S
C479 H520 0.929 . S
C480 C478 1.356 . S
C480 C482 1.358 . S
C480 H521 0.930 . S
C481 C479 1.353 . S
C481 N483 1.314 . S
C481 H522 0.930 . S
C482 C480 1.358 . S
C482 N483 1.279 . S
C482 H523 0.930 . S
N483 C481 1.314 . S
N483 C482 1.279 . S
C484 C486 1.353 . S
C484 N487 1.314 . S
C484 H490 0.930 . S
C485 N487 1.279 . S
C485 C488 1.358 . S
C485 H491 0.930 . S
C486 C484 1.353 . S
C486 C489 1.348 . S
C486 H524 0.929 . S
N487 Li442 1.990 . S
N487 C484 1.314 . S
N487 C485 1.279 . S
C488 C485 1.358 . S
C488 C489 1.356 . S
C488 H525 0.930 . S
C489 C486 1.348 . S
C489 C488 1.356 . S
H490 C484 0.930 . S
H491 C485 0.930 . S
C492 N493 1.314 . S
C492 C494 1.353 . S
C492 H498 0.930 . S
N493 Li443 1.990 . S
N493 C492 1.314 . S
N493 C496 1.279 . S
C494 C492 1.353 . S
C494 C497 1.348 . S
C494 H526 0.929 . S
C495 C496 1.358 . S
C495 C497 1.356 . S
C495 H527 0.930 . S
C496 N493 1.279 . S
C496 C495 1.358 . S
C496 H499 0.930 . S
C497 C494 1.348 . S
C497 C495 1.356 . S
H498 C492 0.930 . S
H499 C496 0.930 . S
O500 Li440 1.956 . S
O500 Li441 1.970 . S
O500 Li442 1.961 . S
O500 C444 1.325 . S
O501 Li440 1.970 . S
O501 Li441 1.956 . S
O501 Li443 1.961 . S
O501 C450 1.325 . S
O502 Li440 1.961 . S
O502 Li442 1.956 . S
O502 Li443 1.970 . S
O502 C472 1.325 . S
O503 Li441 1.961 . S
O503 Li442 1.970 . S
O503 Li443 1.956 . S
O503 C478 1.325 . S
H504 C446 0.929 . S
H505 C447 0.930 . S
H506 C448 0.930 . S
H507 C449 0.930 . S
H508 C451 0.930 . S
H509 C453 0.929 . S
H510 C454 0.930 . S
H511 C455 0.930 . S
H512 C458 0.930 . S
H513 C461 0.929 . S
H514 C466 0.929 . S
H515 C467 0.930 . S
H516 C474 0.929 . S
H517 C475 0.930 . S
H518 C476 0.930 . S
H519 C477 0.930 . S
H520 C479 0.929 . S
H521 C480 0.930 . S
H522 C481 0.930 . S
H523 C482 0.930 . S
H524 C486 0.929 . S
H525 C488 0.930 . S
H526 C494 0.929 . S
H527 C495 0.930 . S
Li528 N545 1.990 . S
Li528 O588 1.956 . S
Li528 O589 1.970 . S
Li528 O590 1.961 . S
Li529 N553 1.990 . S
Li529 O588 1.970 . S
Li529 O589 1.956 . S
Li529 O591 1.961 . S
Li530 N575 1.990 . S
Li530 O588 1.961 . S
Li530 O590 1.956 . S
Li530 O591 1.970 . S
Li531 N581 1.990 . S
Li531 O589 1.961 . S
Li531 O590 1.970 . S
Li531 O591 1.956 . S
C532 C534 1.348 . S
C532 C535 1.356 . S
C532 O588 1.325 . S
N533 C536 1.314 . S
N533 C537 1.279 . S
C534 C532 1.348 . S
C534 C536 1.353 . S
C534 H592 0.929 . S
C535 C532 1.356 . S
C535 C537 1.358 . S
C535 H593 0.930 . S
C536 N533 1.314 . S
C536 C534 1.353 . S
C536 H594 0.930 . S
C537 N533 1.279 . S
C537 C535 1.358 . S
C537 H595 0.930 . S
C538 C541 1.348 . S
C538 C542 1.356 . S
C538 O589 1.325 . S
C539 N540 1.279 . S
C539 C542 1.358 . S
C539 H596 0.930 . S
N540 C539 1.279 . S
N540 C543 1.314 . S
C541 C538 1.348 . S
C541 C543 1.353 . S
C541 H597 0.929 . S
C542 C538 1.356 . S
C542 C539 1.358 . S
C542 H598 0.930 . S
C543 N540 1.314 . S
C543 C541 1.353 . S
C543 H599 0.930 . S
C544 N545 1.314 . S
C544 C549 1.353 . S
C544 H550 0.930 . S
N545 Li528 1.990 . S
N545 C544 1.314 . S
N545 C547 1.279 . S
C546 C547 1.358 . S
C546 C548 1.356 . S
C546 H600 0.930 . S
C547 N545 1.279 . S
C547 C546 1.358 . S
C547 H551 0.930 . S
C548 C546 1.356 . S
C548 C549 1.348 . S
C549 C544 1.353 . S
C549 C548 1.348 . S
C549 H601 0.929 . S
H550 C544 0.930 . S
H551 C547 0.930 . S
C552 N553 1.314 . S
C552 C554 1.353 . S
C552 H558 0.930 . S
N553 Li529 1.990 . S
N553 C552 1.314 . S
N553 C556 1.279 . S
C554 C552 1.353 . S
C554 C557 1.348 . S
C554 H602 0.929 . S
C555 C556 1.358 . S
C555 C557 1.356 . S
C555 H603 0.930 . S
C556 N553 1.279 . S
C556 C555 1.358 . S
C556 H559 0.930 . S
C557 C554 1.348 . S
C557 C555 1.356 . S
H558 C552 0.930 . S
H559 C556 0.930 . S
C560 C562 1.348 . S
C560 C563 1.356 . S
C560 O590 1.325 . S
N561 C564 1.314 . S
N561 C565 1.279 . S
C562 C560 1.348 . S
C562 C564 1.353 . S
C562 H604 0.929 . S
C563 C560 1.356 . S
C563 C565 1.358 . S
C563 H605 0.930 . S
C564 N561 1.314 . S
C564 C562 1.353 . S
C564 H606 0.930 . S
C565 N561 1.279 . S
C565 C563 1.358 . S
C565 H607 0.930 . S
C566 C567 1.348 . S
C566 C568 1.356 . S
C566 O591 1.325 . S
C567 C566 1.348 . S
C567 C569 1.353 . S
C567 H608 0.929 . S
C568 C566 1.356 . S
C568 C570 1.358 . S
C568 H609 0.930 . S
C569 C567 1.353 . S
C569 N571 1.314 . S
C569 H610 0.930 . S
C570 C568 1.358 . S
C570 N571 1.279 . S
C570 H611 0.930 . S
N571 C569 1.314 . S
N571 C570 1.279 . S
C572 C574 1.353 . S
C572 N575 1.314 . S
C572 H578 0.930 . S
C573 N575 1.279 . S
C573 C576 1.358 . S
C573 H579 0.930 . S
C574 C572 1.353 . S
C574 C577 1.348 . S
C574 H612 0.929 . S
N575 Li530 1.990 . S
N575 C572 1.314 . S
N575 C573 1.279 . S
C576 C573 1.358 . S
C576 C577 1.356 . S
C576 H613 0.930 . S
C577 C574 1.348 . S
C577 C576 1.356 . S
H578 C572 0.930 . S
H579 C573 0.930 . S
C580 N581 1.314 . S
C580 C582 1.353 . S
C580 H586 0.930 . S
N581 Li531 1.990 . S
N581 C580 1.314 . S
N581 C584 1.279 . S
C582 C580 1.353 . S
C582 C585 1.348 . S
C582 H614 0.929 . S
C583 C584 1.358 . S
C583 C585 1.356 . S
C583 H615 0.930 . S
C584 N581 1.279 . S
C584 C583 1.358 . S
C584 H587 0.930 . S
C585 C582 1.348 . S
C585 C583 1.356 . S
H586 C580 0.930 . S
H587 C584 0.930 . S
O588 Li528 1.956 . S
O588 Li529 1.970 . S
O588 Li530 1.961 . S
O588 C532 1.325 . S
O589 Li528 1.970 . S
O589 Li529 1.956 . S
O589 Li531 1.961 . S
O589 C538 1.325 . S
O590 Li528 1.961 . S
O590 Li530 1.956 . S
O590 Li531 1.970 . S
O590 C560 1.325 . S
O591 Li529 1.961 . S
O591 Li530 1.970 . S
O591 Li531 1.956 . S
O591 C566 1.325 . S
H592 C534 0.929 . S
H593 C535 0.930 . S
H594 C536 0.930 . S
H595 C537 0.930 . S
H596 C539 0.930 . S
H597 C541 0.929 . S
H598 C542 0.930 . S
H599 C543 0.930 . S
H600 C546 0.930 . S
H601 C549 0.929 . S
H602 C554 0.929 . S
H603 C555 0.930 . S
H604 C562 0.929 . S
H605 C563 0.930 . S
H606 C564 0.930 . S
H607 C565 0.930 . S
H608 C567 0.929 . S
H609 C568 0.930 . S
H610 C569 0.930 . S
H611 C570 0.930 . S
H612 C574 0.929 . S
H613 C576 0.930 . S
H614 C582 0.929 . S
H615 C583 0.930 . S
Li616 N633 1.990 . S
Li616 O676 1.956 . S
Li616 O677 1.970 . S
Li616 O678 1.961 . S
Li617 N641 1.990 . S
Li617 O676 1.970 . S
Li617 O677 1.956 . S
Li617 O679 1.961 . S
Li618 N663 1.990 . S
Li618 O676 1.961 . S
Li618 O678 1.956 . S
Li618 O679 1.970 . S
Li619 N669 1.990 . S
Li619 O677 1.961 . S
Li619 O678 1.970 . S
Li619 O679 1.956 . S
C620 C622 1.348 . S
C620 C623 1.356 . S
C620 O676 1.325 . S
N621 C624 1.314 . S
N621 C625 1.279 . S
C622 C620 1.348 . S
C622 C624 1.353 . S
C622 H680 0.929 . S
C623 C620 1.356 . S
C623 C625 1.358 . S
C623 H681 0.930 . S
C624 N621 1.314 . S
C624 C622 1.353 . S
C624 H682 0.930 . S
C625 N621 1.279 . S
C625 C623 1.358 . S
C625 H683 0.930 . S
C626 C629 1.348 . S
C626 C630 1.356 . S
C626 O677 1.325 . S
C627 N628 1.279 . S
C627 C630 1.358 . S
C627 H684 0.930 . S
N628 C627 1.279 . S
N628 C631 1.314 . S
C629 C626 1.348 . S
C629 C631 1.353 . S
C629 H685 0.929 . S
C630 C626 1.356 . S
C630 C627 1.358 . S
C630 H686 0.930 . S
C631 N628 1.314 . S
C631 C629 1.353 . S
C631 H687 0.930 . S
C632 N633 1.314 . S
C632 C637 1.353 . S
C632 H638 0.930 . S
N633 Li616 1.990 . S
N633 C632 1.314 . S
N633 C635 1.279 . S
C634 C635 1.358 . S
C634 C636 1.356 . S
C634 H688 0.930 . S
C635 N633 1.279 . S
C635 C634 1.358 . S
C635 H639 0.930 . S
C636 C634 1.356 . S
C636 C637 1.348 . S
C637 C632 1.353 . S
C637 C636 1.348 . S
C637 H689 0.929 . S
H638 C632 0.930 . S
H639 C635 0.930 . S
C640 N641 1.314 . S
C640 C642 1.353 . S
C640 H646 0.930 . S
N641 Li617 1.990 . S
N641 C640 1.314 . S
N641 C644 1.279 . S
C642 C640 1.353 . S
C642 C645 1.348 . S
C642 H690 0.929 . S
C643 C644 1.358 . S
C643 C645 1.356 . S
C643 H691 0.930 . S
C644 N641 1.279 . S
C644 C643 1.358 . S
C644 H647 0.930 . S
C645 C642 1.348 . S
C645 C643 1.356 . S
H646 C640 0.930 . S
H647 C644 0.930 . S
C648 C650 1.348 . S
C648 C651 1.356 . S
C648 O678 1.325 . S
N649 C652 1.314 . S
N649 C653 1.279 . S
C650 C648 1.348 . S
C650 C652 1.353 . S
C650 H692 0.929 . S
C651 C648 1.356 . S
C651 C653 1.358 . S
C651 H693 0.930 . S
C652 N649 1.314 . S
C652 C650 1.353 . S
C652 H694 0.930 . S
C653 N649 1.279 . S
C653 C651 1.358 . S
C653 H695 0.930 . S
C654 C655 1.348 . S
C654 C656 1.356 . S
C654 O679 1.325 . S
C655 C654 1.348 . S
C655 C657 1.353 . S
C655 H696 0.929 . S
C656 C654 1.356 . S
C656 C658 1.358 . S
C656 H697 0.930 . S
C657 C655 1.353 . S
C657 N659 1.314 . S
C657 H698 0.930 . S
C658 C656 1.358 . S
C658 N659 1.279 . S
C658 H699 0.930 . S
N659 C657 1.314 . S
N659 C658 1.279 . S
C660 C662 1.353 . S
C660 N663 1.314 . S
C660 H666 0.930 . S
C661 N663 1.279 . S
C661 C664 1.358 . S
C661 H667 0.930 . S
C662 C660 1.353 . S
C662 C665 1.348 . S
C662 H700 0.929 . S
N663 Li618 1.990 . S
N663 C660 1.314 . S
N663 C661 1.279 . S
C664 C661 1.358 . S
C664 C665 1.356 . S
C664 H701 0.930 . S
C665 C662 1.348 . S
C665 C664 1.356 . S
H666 C660 0.930 . S
H667 C661 0.930 . S
C668 N669 1.314 . S
C668 C670 1.353 . S
C668 H674 0.930 . S
N669 Li619 1.990 . S
N669 C668 1.314 . S
N669 C672 1.279 . S
C670 C668 1.353 . S
C670 C673 1.348 . S
C670 H702 0.929 . S
C671 C672 1.358 . S
C671 C673 1.356 . S
C671 H703 0.930 . S
C672 N669 1.279 . S
C672 C671 1.358 . S
C672 H675 0.930 . S
C673 C670 1.348 . S
C673 C671 1.356 . S
H674 C668 0.930 . S
H675 C672 0.930 . S
O676 Li616 1.956 . S
O676 Li617 1.970 . S
O676 Li618 1.961 . S
O676 C620 1.325 . S
O677 Li616 1.970 . S
O677 Li617 1.956 . S
O677 Li619 1.961 . S
O677 C626 1.325 . S
O678 Li616 1.961 . S
O678 Li618 1.956 . S
O678 Li619 1.970 . S
O678 C648 1.325 . S
O679 Li617 1.961 . S
O679 Li618 1.970 . S
O679 Li619 1.956 . S
O679 C654 1.325 . S
H680 C622 0.929 . S
H681 C623 0.930 . S
H682 C624 0.930 . S
H683 C625 0.930 . S
H684 C627 0.930 . S
H685 C629 0.929 . S
H686 C630 0.930 . S
H687 C631 0.930 . S
H688 C634 0.930 . S
H689 C637 0.929 . S
H690 C642 0.929 . S
H691 C643 0.930 . S
H692 C650 0.929 . S
H693 C651 0.930 . S
H694 C652 0.930 . S
H695 C653 0.930 . S
H696 C655 0.929 . S
H697 C656 0.930 . S
H698 C657 0.930 . S
H699 C658 0.930 . S
H700 C662 0.929 . S
H701 C664 0.930 . S
H702 C670 0.929 . S
H703 C671 0.930 . S
C704 C705 1.363 . S
C704 C710 1.379 . S
C704 N712 1.356 . S
C705 C704 1.363 . S
C705 C711 1.363 . S
C706 C707 1.363 . S
C706 C711 1.379 . S
C706 N713 1.356 . S
C707 C706 1.363 . S
C707 C710 1.363 . S
N708 C710 1.356 . S
N708 H720 0.984 . S
N708 H721 0.985 . S
N709 C711 1.356 . S
N709 H714 0.984 . S
N709 H715 0.985 . S
C710 C704 1.379 . S
C710 C707 1.363 . S
C710 N708 1.356 . S
C711 C705 1.363 . S
C711 C706 1.379 . S
C711 N709 1.356 . S
N712 C704 1.356 . S
N712 H718 0.984 . S
N712 H719 0.984 . S
N713 C706 1.356 . S
N713 H716 0.984 . S
N713 H717 0.985 . S
H714 N709 0.984 . S
H715 N709 0.985 . S
H716 N713 0.984 . S
H717 N713 0.985 . S
H718 N712 0.984 . S
H719 N712 0.984 . S
H720 N708 0.984 . S
H721 N708 0.985 . S
C722 C723 1.363 . S
C722 C728 1.379 . S
C722 N730 1.356 . S
C723 C722 1.363 . S
C723 C729 1.363 . S
C724 C725 1.363 . S
C724 C729 1.379 . S
C724 N731 1.356 . S
C725 C724 1.363 . S
C725 C728 1.363 . S
N726 C728 1.356 . S
N726 H738 0.984 . S
N726 H739 0.985 . S
N727 C729 1.356 . S
N727 H732 0.984 . S
N727 H733 0.985 . S
C728 C722 1.379 . S
C728 C725 1.363 . S
C728 N726 1.356 . S
C729 C723 1.363 . S
C729 C724 1.379 . S
C729 N727 1.356 . S
N730 C722 1.356 . S
N730 H736 0.984 . S
N730 H737 0.984 . S
N731 C724 1.356 . S
N731 H734 0.984 . S
N731 H735 0.985 . S
H732 N727 0.984 . S
H733 N727 0.985 . S
H734 N731 0.984 . S
H735 N731 0.985 . S
H736 N730 0.984 . S
H737 N730 0.984 . S
H738 N726 0.984 . S
H739 N726 0.985 . S
C740 C741 1.363 1_565 S
C740 C746 1.379 . S
C740 N748 1.356 . S
C741 C740 1.363 1_545 S
C741 C747 1.363 1_554 S
C742 C743 1.363 1_545 S
C742 C747 1.379 . S
C742 N749 1.356 . S
C743 C742 1.363 1_565 S
C743 C746 1.363 1_556 S
N744 C746 1.356 . S
N744 H756 0.984 . S
N744 H757 0.985 1_554 S
N745 C747 1.356 . S
N745 H750 0.984 1_556 S
N745 H751 0.985 . S
C746 C740 1.379 . S
C746 C743 1.363 1_554 S
C746 N744 1.356 . S
C747 C741 1.363 1_556 S
C747 C742 1.379 . S
C747 N745 1.356 . S
N748 C740 1.356 . S
N748 H754 0.984 . S
N748 H755 0.984 1_565 S
N749 C742 1.356 . S
N749 H752 0.984 1_545 S
N749 H753 0.985 . S
H750 N745 0.984 1_554 S
H751 N745 0.985 . S
H752 N749 0.984 1_565 S
H753 N749 0.985 . S
H754 N748 0.984 . S
H755 N748 0.984 1_545 S
H756 N744 0.984 . S
H757 N744 0.985 1_556 S
C758 C759 1.363 . S
C758 C764 1.379 . S
C758 N766 1.356 . S
C759 C758 1.363 . S
C759 C765 1.363 1_655 S
C760 C761 1.363 . S
C760 C765 1.379 . S
C760 N767 1.356 . S
C761 C760 1.363 . S
C761 C764 1.363 1_455 S
N762 C764 1.356 . S
N762 H774 0.984 . S
N762 H775 0.985 1_655 S
N763 C765 1.356 . S
N763 H768 0.984 1_455 S
N763 H769 0.985 . S
C764 C758 1.379 . S
C764 C761 1.363 1_655 S
C764 N762 1.356 . S
C765 C759 1.363 1_455 S
C765 C760 1.379 . S
C765 N763 1.356 . S
N766 C758 1.356 . S
N766 H772 0.984 . S
N766 H773 0.984 . S
N767 C760 1.356 . S
N767 H770 0.984 . S
N767 H771 0.985 . S
H768 N763 0.984 1_655 S
H769 N763 0.985 . S
H770 N767 0.984 . S
H771 N767 0.985 . S
H772 N766 0.984 . S
H773 N766 0.984 . S
H774 N762 0.984 . S
H775 N762 0.985 1_455 S
C776 C777 1.363 . S
C776 C782 1.379 1_565 S
C776 N784 1.356 . S
C777 C776 1.363 . S
C777 C783 1.363 . S
C778 C779 1.363 . S
C778 C783 1.379 1_545 S
C778 N785 1.356 . S
C779 C778 1.363 . S
C779 C782 1.363 . S
N780 C782 1.356 . S
N780 H792 0.984 . S
N780 H793 0.985 . S
N781 C783 1.356 . S
N781 H786 0.984 . S
N781 H787 0.985 . S
C782 C776 1.379 1_545 S
C782 C779 1.363 . S
C782 N780 1.356 . S
C783 C777 1.363 . S
C783 C778 1.379 1_565 S
C783 N781 1.356 . S
N784 C776 1.356 . S
N784 H790 0.984 . S
N784 H791 0.984 . S
N785 C778 1.356 . S
N785 H788 0.984 . S
N785 H789 0.985 . S
H786 N781 0.984 . S
H787 N781 0.985 . S
H788 N785 0.984 . S
H789 N785 0.985 . S
H790 N784 0.984 . S
H791 N784 0.984 . S
H792 N780 0.984 . S
H793 N780 0.985 . S
C794 C795 1.363 1_554 S
C794 C800 1.379 . S
C794 N802 1.356 . S
C795 C794 1.363 1_556 S
C795 C801 1.363 1_655 S
C796 C797 1.363 1_556 S
C796 C801 1.379 . S
C796 N803 1.356 . S
C797 C796 1.363 1_554 S
C797 C800 1.363 1_455 S
N798 C800 1.353 1_455 S
N798 H810 0.969 1_455 S
N798 H811 1.004 . S
N799 C801 1.353 1_655 S
N799 H804 1.004 . S
N799 H805 0.969 1_655 S
C800 C794 1.379 . S
C800 C797 1.363 1_655 S
C800 N798 1.353 1_655 S
C801 C795 1.363 1_455 S
C801 C796 1.379 . S
C801 N799 1.353 1_455 S
N802 C794 1.356 . S
N802 H808 0.984 . S
N802 H809 0.984 1_554 S
N803 C796 1.356 . S
N803 H806 0.984 1_556 S
N803 H807 0.985 . S
H804 N799 1.004 . S
H805 N799 0.969 1_455 S
H806 N803 0.984 1_554 S
H807 N803 0.985 . S
H808 N802 0.984 . S
H809 N802 0.984 1_556 S
H810 N798 0.969 1_655 S
H811 N798 1.004 . S
C812 C813 1.363 . S
C812 C818 1.379 . S
C812 N820 1.356 . S
C813 C812 1.363 . S
C813 C819 1.363 . S
C814 C815 1.363 . S
C814 C819 1.379 . S
C814 N821 1.356 . S
C815 C814 1.363 . S
C815 C818 1.363 . S
N816 C818 1.356 . S
N816 H828 0.984 . S
N816 H829 0.985 . S
N817 C819 1.356 . S
N817 H822 0.984 . S
N817 H823 0.985 . S
C818 C812 1.379 . S
C818 C815 1.363 . S
C818 N816 1.356 . S
C819 C813 1.363 . S
C819 C814 1.379 . S
C819 N817 1.356 . S
N820 C812 1.356 . S
N820 H826 0.984 . S
N820 H827 0.984 . S
N821 C814 1.356 . S
N821 H824 0.984 . S
N821 H825 0.985 . S
H822 N817 0.984 . S
H823 N817 0.985 . S
H824 N821 0.984 . S
H825 N821 0.985 . S
H826 N820 0.984 . S
H827 N820 0.984 . S
H828 N816 0.984 . S
H829 N816 0.985 . S
C830 C831 1.363 . S
C830 C836 1.379 . S
C830 N838 1.356 . S
C831 C830 1.363 . S
C831 C837 1.363 . S
C832 C833 1.363 . S
C832 C837 1.379 . S
C832 N839 1.356 . S
C833 C832 1.363 . S
C833 C836 1.363 . S
N834 C836 1.356 . S
N834 H846 0.984 . S
N834 H847 0.985 . S
N835 C837 1.356 . S
N835 H840 0.984 . S
N835 H841 0.985 . S
C836 C830 1.379 . S
C836 C833 1.363 . S
C836 N834 1.356 . S
C837 C831 1.363 . S
C837 C832 1.379 . S
C837 N835 1.356 . S
N838 C830 1.356 . S
N838 H844 0.984 . S
N838 H845 0.984 . S
N839 C832 1.356 . S
N839 H842 0.984 . S
N839 H843 0.985 . S
H840 N835 0.984 . S
H841 N835 0.985 . S
H842 N839 0.984 . S
H843 N839 0.985 . S
H844 N838 0.984 . S
H845 N838 0.984 . S
H846 N834 0.984 . S
H847 N834 0.985 . S
C848 C849 1.363 . S
C848 C854 1.379 . S
C848 N856 1.356 . S
C849 C848 1.363 . S
C849 C855 1.363 . S
C850 C851 1.363 . S
C850 C855 1.379 . S
C850 N857 1.356 . S
C851 C850 1.363 . S
C851 C854 1.363 . S
N852 C854 1.356 . S
N852 H864 0.984 . S
N852 H865 0.985 . S
N853 C855 1.356 . S
N853 H858 0.984 . S
N853 H859 0.985 . S
C854 C848 1.379 . S
C854 C851 1.363 . S
C854 N852 1.356 . S
C855 C849 1.363 . S
C855 C850 1.379 . S
C855 N853 1.356 . S
N856 C848 1.356 . S
N856 H862 0.984 . S
N856 H863 0.984 . S
N857 C850 1.356 . S
N857 H860 0.984 . S
N857 H861 0.985 . S
H858 N853 0.984 . S
H859 N853 0.985 . S
H860 N857 0.984 . S
H861 N857 0.985 . S
H862 N856 0.984 . S
H863 N856 0.984 . S
H864 N852 0.984 . S
H865 N852 0.985 . S
C866 C867 1.363 . S
C866 C872 1.379 . S
C866 N874 1.356 . S
C867 C866 1.363 . S
C867 C873 1.363 1_556 S
C868 C869 1.363 . S
C868 C873 1.379 . S
C868 N875 1.356 . S
C869 C868 1.363 . S
C869 C872 1.363 1_554 S
N870 C872 1.356 . S
N870 H882 0.984 . S
N870 H883 0.985 1_556 S
N871 C873 1.356 . S
N871 H876 0.984 1_554 S
N871 H877 0.985 . S
C872 C866 1.379 . S
C872 C869 1.363 1_556 S
C872 N870 1.356 . S
C873 C867 1.363 1_554 S
C873 C868 1.379 . S
C873 N871 1.356 . S
N874 C866 1.356 . S
N874 H880 0.984 . S
N874 H881 0.984 . S
N875 C868 1.356 . S
N875 H878 0.984 . S
N875 H879 0.985 . S
H876 N871 0.984 1_556 S
H877 N871 0.985 . S
H878 N875 0.984 . S
H879 N875 0.985 . S
H880 N874 0.984 . S
H881 N874 0.984 . S
H882 N870 0.984 . S
H883 N870 0.985 1_554 S
C884 C885 1.363 1_545 S
C884 C890 1.379 . S
C884 N892 1.356 . S
C885 C884 1.363 1_565 S
C885 C891 1.363 . S
C886 C887 1.363 1_565 S
C886 C891 1.379 . S
C886 N893 1.356 . S
C887 C886 1.363 1_545 S
C887 C890 1.363 . S
N888 C890 1.356 . S
N888 H900 0.984 . S
N888 H901 0.985 . S
N889 C891 1.356 . S
N889 H894 0.984 . S
N889 H895 0.985 . S
C890 C884 1.379 . S
C890 C887 1.363 . S
C890 N888 1.356 . S
C891 C885 1.363 . S
C891 C886 1.379 . S
C891 N889 1.356 . S
N892 C884 1.356 . S
N892 H898 0.984 . S
N892 H899 0.984 1_545 S
N893 C886 1.356 . S
N893 H896 0.984 1_565 S
N893 H897 0.985 . S
H894 N889 0.984 . S
H895 N889 0.985 . S
H896 N893 0.984 1_545 S
H897 N893 0.985 . S
H898 N892 0.984 . S
H899 N892 0.984 1_565 S
H900 N888 0.984 . S
H901 N888 0.985 . S
C902 C903 1.363 1_545 S
C902 C908 1.379 1_655 S
C902 N910 1.356 . S
C903 C902 1.363 1_565 S
C903 C909 1.363 . S
C904 C905 1.363 1_565 S
C904 C909 1.379 1_455 S
C904 N911 1.356 . S
C905 C904 1.363 1_545 S
C905 C908 1.363 . S
N906 C908 1.356 . S
N906 H918 0.984 . S
N906 H919 0.985 . S
N907 C909 1.356 . S
N907 H912 0.984 . S
N907 H913 0.985 . S
C908 C902 1.379 1_455 S
C908 C905 1.363 . S
C908 N906 1.356 . S
C909 C903 1.363 . S
C909 C904 1.379 1_655 S
C909 N907 1.356 . S
N910 C902 1.356 . S
N910 H916 0.984 . S
N910 H917 0.984 1_545 S
N911 C904 1.356 . S
N911 H914 0.984 1_565 S
N911 H915 0.985 . S
H912 N907 0.984 . S
H913 N907 0.985 . S
H914 N911 0.984 1_545 S
H915 N911 0.985 . S
H916 N910 0.984 . S
H917 N910 0.984 1_565 S
H918 N906 0.984 . S
H919 N906 0.985 . S
C920 C921 1.363 . S
C920 C926 1.379 . S
C920 N928 1.356 . S
C921 C920 1.363 . S
C921 C927 1.363 1_655 S
C922 C923 1.363 . S
C922 C927 1.379 . S
C922 N929 1.356 . S
C923 C922 1.363 . S
C923 C926 1.363 1_455 S
N924 C926 1.356 . S
N924 H936 0.984 . S
N924 H937 0.985 1_655 S
N925 C927 1.356 . S
N925 H930 0.984 1_455 S
N925 H931 0.985 . S
C926 C920 1.379 . S
C926 C923 1.363 1_655 S
C926 N924 1.356 . S
C927 C921 1.363 1_455 S
C927 C922 1.379 . S
C927 N925 1.356 . S
N928 C920 1.356 . S
N928 H934 0.984 . S
N928 H935 0.984 . S
N929 C922 1.356 . S
N929 H932 0.984 . S
N929 H933 0.985 . S
H930 N925 0.984 1_655 S
H931 N925 0.985 . S
H932 N929 0.984 . S
H933 N929 0.985 . S
H934 N928 0.984 . S
H935 N928 0.984 . S
H936 N924 0.984 . S
H937 N924 0.985 1_455 S
C938 C939 1.363 . S
C938 C944 1.379 . S
C938 N946 1.356 . S
C939 C938 1.363 . S
C939 C945 1.363 . S
C940 C941 1.363 . S
C940 C945 1.379 . S
C940 N947 1.356 . S
C941 C940 1.363 . S
C941 C944 1.363 . S
N942 C944 1.356 . S
N942 H954 0.984 . S
N942 H955 0.985 . S
N943 C945 1.356 . S
N943 H948 0.984 . S
N943 H949 0.985 . S
C944 C938 1.379 . S
C944 C941 1.363 . S
C944 N942 1.356 . S
C945 C939 1.363 . S
C945 C940 1.379 . S
C945 N943 1.356 . S
N946 C938 1.356 . S
N946 H952 0.984 . S
N946 H953 0.984 . S
N947 C940 1.356 . S
N947 H950 0.984 . S
N947 H951 0.985 . S
H948 N943 0.984 . S
H949 N943 0.985 . S
H950 N947 0.984 . S
H951 N947 0.985 . S
H952 N946 0.984 . S
H953 N946 0.984 . S
H954 N942 0.984 . S
H955 N942 0.985 . S
C956 C957 1.363 1_556 S
C956 C962 1.379 . S
C956 N964 1.356 . S
C957 C956 1.363 1_554 S
C957 C963 1.363 . S
C958 C959 1.363 1_554 S
C958 C963 1.379 . S
C958 N965 1.356 . S
C959 C958 1.363 1_556 S
C959 C962 1.363 . S
N960 C962 1.356 . S
N960 H972 0.984 . S
N960 H973 0.985 . S
N961 C963 1.356 . S
N961 H966 0.984 . S
N961 H967 0.985 . S
C962 C956 1.379 . S
C962 C959 1.363 . S
C962 N960 1.356 . S
C963 C957 1.363 . S
C963 C958 1.379 . S
C963 N961 1.356 . S
N964 C956 1.356 . S
N964 H970 0.984 . S
N964 H971 0.984 1_556 S
N965 C958 1.356 . S
N965 H968 0.984 1_554 S
N965 H969 0.985 . S
H966 N961 0.984 . S
H967 N961 0.985 . S
H968 N965 0.984 1_556 S
H969 N965 0.985 . S
H970 N964 0.984 . S
H971 N964 0.984 1_554 S
H972 N960 0.984 . S
H973 N960 0.985 . S
C974 C975 1.363 . S
C974 C980 1.379 . S
C974 N982 1.356 . S
C975 C974 1.363 . S
C975 C981 1.363 . S
C976 C977 1.363 . S
C976 C981 1.379 . S
C976 N983 1.356 . S
C977 C976 1.363 . S
C977 C980 1.363 . S
N978 C980 1.356 . S
N978 H990 0.984 . S
N978 H991 0.985 . S
N979 C981 1.356 . S
N979 H984 0.984 . S
N979 H985 0.985 . S
C980 C974 1.379 . S
C980 C977 1.363 . S
C980 N978 1.356 . S
C981 C975 1.363 . S
C981 C976 1.379 . S
C981 N979 1.356 . S
N982 C974 1.356 . S
N982 H988 0.984 . S
N982 H989 0.984 . S
N983 C976 1.356 . S
N983 H986 0.984 . S
N983 H987 0.985 . S
H984 N979 0.984 . S
H985 N979 0.985 . S
H986 N983 0.984 . S
H987 N983 0.985 . S
H988 N982 0.984 . S
H989 N982 0.984 . S
H990 N978 0.984 . S
H991 N978 0.985 . S
C705 C497 1.500 . S
C707 C49 1.500 . S
C723 C645 1.500 . S
C725 C108 1.500 . S
C741 C233 1.500 . S
C743 C557 1.500 . S
C759 C321 1.500 . S
C761 C372 1.500 . S
C777 C548 1.500 . S
C779 C29 1.500 . S
C795 C117 1.500 . S
C797 C409 1.500 . S
C813 C489 1.500 . S
C815 C196 1.500 . S
C831 C313 1.500 . S
C833 C665 1.500 . S
C849 C381 1.500 . S
C851 C460 1.500 . S
C867 C145 1.500 . S
C869 C225 1.500 . S
C885 C293 1.500 . S
C887 C205 1.500 . S
C903 C284 1.500 . S
C905 C57 1.500 . S
C921 C137 1.500 . S
C923 C20 1.500 . S
C939 C636 1.500 . S
C941 C577 1.500 . S
C957 C401 1.500 . S
C959 C585 1.500 . S
C975 C469 1.500 . S
C977 C673 1.500 . S
