# Generated by pormake.
# Topology lcy-e, (6)-cn, num edge types: 1
# Building blocks:
#     Node 0, Type 0, BuildingBlock: KUMBUR_clean_sbu_1, # of connection points: 6
#     Node 1, Type 0, BuildingBlock: KUMBUR_clean_sbu_1, # of connection points: 6
#     Node 2, Type 0, BuildingBlock: KUMBUR_clean_sbu_1, # of connection points: 6
#     Node 3, Type 0, BuildingBlock: KUMBUR_clean_sbu_1, # of connection points: 6
#     Node 4, Type 0, BuildingBlock: KUMBUR_clean_sbu_1, # of connection points: 6
#     Node 5, Type 0, BuildingBlock: KUMBUR_clean_sbu_1, # of connection points: 6
#     Node 6, Type 0, BuildingBlock: KUMBUR_clean_sbu_1, # of connection points: 6
#     Node 7, Type 0, BuildingBlock: KUMBUR_clean_sbu_1, # of connection points: 6
#     Node 8, Type 0, BuildingBlock: KUMBUR_clean_sbu_1, # of connection points: 6
#     Node 9, Type 0, BuildingBlock: KUMBUR_clean_sbu_1, # of connection points: 6
#     Node 10, Type 0, BuildingBlock: KUMBUR_clean_sbu_1, # of connection points: 6
#     Node 11, Type 0, BuildingBlock: KUMBUR_clean_sbu_1, # of connection points: 6
#     Edge 12, Type (0, 0), BuildingBlock: OJICUG_clean_linker_0, # of connection points: 2
#     Edge 13, Type (0, 0), BuildingBlock: OJICUG_clean_linker_0, # of connection points: 2
#     Edge 14, Type (0, 0), BuildingBlock: OJICUG_clean_linker_0, # of connection points: 2
#     Edge 15, Type (0, 0), BuildingBlock: OJICUG_clean_linker_0, # of connection points: 2
#     Edge 16, Type (0, 0), BuildingBlock: OJICUG_clean_linker_0, # of connection points: 2
#     Edge 17, Type (0, 0), BuildingBlock: OJICUG_clean_linker_0, # of connection points: 2
#     Edge 18, Type (0, 0), BuildingBlock: OJICUG_clean_linker_0, # of connection points: 2
#     Edge 19, Type (0, 0), BuildingBlock: OJICUG_clean_linker_0, # of connection points: 2
#     Edge 20, Type (0, 0), BuildingBlock: OJICUG_clean_linker_0, # of connection points: 2
#     Edge 21, Type (0, 0), BuildingBlock: OJICUG_clean_linker_0, # of connection points: 2
#     Edge 22, Type (0, 0), BuildingBlock: OJICUG_clean_linker_0, # of connection points: 2
#     Edge 23, Type (0, 0), BuildingBlock: OJICUG_clean_linker_0, # of connection points: 2
#     Edge 24, Type (0, 0), BuildingBlock: OJICUG_clean_linker_0, # of connection points: 2
#     Edge 25, Type (0, 0), BuildingBlock: OJICUG_clean_linker_0, # of connection points: 2
#     Edge 26, Type (0, 0), BuildingBlock: OJICUG_clean_linker_0, # of connection points: 2
#     Edge 27, Type (0, 0), BuildingBlock: OJICUG_clean_linker_0, # of connection points: 2
#     Edge 28, Type (0, 0), BuildingBlock: OJICUG_clean_linker_0, # of connection points: 2
#     Edge 29, Type (0, 0), BuildingBlock: OJICUG_clean_linker_0, # of connection points: 2
#     Edge 30, Type (0, 0), BuildingBlock: OJICUG_clean_linker_0, # of connection points: 2
#     Edge 31, Type (0, 0), BuildingBlock: OJICUG_clean_linker_0, # of connection points: 2
#     Edge 32, Type (0, 0), BuildingBlock: OJICUG_clean_linker_0, # of connection points: 2
#     Edge 33, Type (0, 0), BuildingBlock: OJICUG_clean_linker_0, # of connection points: 2
#     Edge 34, Type (0, 0), BuildingBlock: OJICUG_clean_linker_0, # of connection points: 2
#     Edge 35, Type (0, 0), BuildingBlock: OJICUG_clean_linker_0, # of connection points: 2
#     Edge 36, Type (0, 0), BuildingBlock: OJICUG_clean_linker_0, # of connection points: 2
#     Edge 37, Type (0, 0), BuildingBlock: OJICUG_clean_linker_0, # of connection points: 2
#     Edge 38, Type (0, 0), BuildingBlock: OJICUG_clean_linker_0, # of connection points: 2
#     Edge 39, Type (0, 0), BuildingBlock: OJICUG_clean_linker_0, # of connection points: 2
#     Edge 40, Type (0, 0), BuildingBlock: OJICUG_clean_linker_0, # of connection points: 2
#     Edge 41, Type (0, 0), BuildingBlock: OJICUG_clean_linker_0, # of connection points: 2
#     Edge 42, Type (0, 0), BuildingBlock: OJICUG_clean_linker_0, # of connection points: 2
#     Edge 43, Type (0, 0), BuildingBlock: OJICUG_clean_linker_0, # of connection points: 2
#     Edge 44, Type (0, 0), BuildingBlock: OJICUG_clean_linker_0, # of connection points: 2
#     Edge 45, Type (0, 0), BuildingBlock: OJICUG_clean_linker_0, # of connection points: 2
#     Edge 46, Type (0, 0), BuildingBlock: OJICUG_clean_linker_0, # of connection points: 2
#     Edge 47, Type (0, 0), BuildingBlock: OJICUG_clean_linker_0, # of connection points: 2
# Relax obj value: 0.092
# Max RMSD: 0.252
# Mean RMSD: 0.251
data_MOF--net-lcy-e--node1-KUMBUR_clean_sbu_1--edge1-OJICUG_clean_linker_0
_symmetry_space_group_name_H-M    P1
_symmetry_Int_Tables_number       1
_symmetry_cell_setting            triclinic
loop_
_symmetry_equiv_pos_as_xyz
'x, y, z'
_cell_length_a     33.813837
_cell_length_b     33.753661
_cell_length_c     33.913843
_cell_angle_alpha  89.749892
_cell_angle_beta   89.989724
_cell_angle_gamma 89.533534
loop_
_atom_site_label
_atom_site_type_symbol
_atom_site_fract_x
_atom_site_fract_y
_atom_site_fract_z
_atom_type_partial_charge
Tb0 Tb 0.16557 0.2204 0.54177 0.0
C1 C 0.08128 0.3846 0.48312 0.0
N2 N 0.08059 0.34565 0.4734 0.0
C3 C 1.00972 0.34817 0.46953 0.0
C4 C 0.04606 0.40681 0.48712 0.0
C5 C 0.04551 0.32748 0.46552 0.0
C6 C 1.00996 0.38795 0.48066 0.0
C7 C 0.11996 0.4431 0.49641 0.0
C8 C 0.1176 0.40238 0.48802 0.0
C9 C 0.08495 0.46526 0.50114 0.0
C10 C 0.0481 0.44718 0.49657 0.0
Tb11 Tb 0.14092 0.31503 0.46827 0.0
N12 N 0.15064 0.38014 0.48234 0.0
C13 C 0.15737 0.46047 0.49832 0.0
C14 C 0.18712 0.3972 0.48249 0.0
C15 C 0.19105 0.43755 0.49071 0.0
H16 H 0.04486 0.29689 0.457 0.0
H17 H 0.22001 0.45097 0.49104 0.0
H18 H 0.23327 0.26775 0.59973 0.0
H19 H 0.17915 0.09027 0.45207 0.0
H20 H 0.21309 0.37965 0.47563 0.0
H21 H 0.16062 0.49166 0.50449 0.0
H22 H 0.14379 0.14624 0.48383 0.0
H23 H 0.98199 0.33343 0.46393 0.0
H24 H 0.08594 0.49654 0.5073 0.0
H25 H 0.02139 0.46484 0.49972 0.0
H26 H 0.30481 0.26743 0.60736 0.0
H27 H 0.98221 0.40396 0.48355 0.0
H28 H 0.25167 0.08328 0.45974 0.0
N29 N 0.23258 0.22356 0.5544 0.0
C30 C 0.2546 0.19463 0.53678 0.0
C31 C 0.29116 0.24722 0.58684 0.0
C32 C 0.2959 0.19176 0.5426 0.0
C33 C 0.25019 0.24809 0.58123 0.0
C34 C 0.31422 0.21932 0.56701 0.0
N35 N 0.19609 0.17109 0.50772 0.0
C36 C 0.17552 0.14347 0.48689 0.0
C37 C 0.25692 0.13543 0.4963 0.0
C38 C 0.23557 0.16693 0.51362 0.0
C39 C 0.23632 0.10781 0.47364 0.0
C40 C 0.1954 0.11175 0.4691 0.0
H41 H 0.34588 0.21836 0.57193 0.0
H42 H 0.34918 0.15847 0.52873 0.0
H43 H 0.31501 0.10905 0.48833 0.0
O44 O 0.13028 0.17213 0.55959 0.0
O45 O 0.18087 0.22408 0.47838 0.0
O46 O 0.1997 0.28764 0.47116 0.0
O47 O 0.178 0.19101 0.59568 0.0
O48 O 0.10962 0.21454 0.50879 0.0
O49 O 0.10828 0.26044 0.45651 0.0
O50 O 0.15574 0.35353 0.42137 0.0
O51 O 0.10282 0.31305 0.52272 0.0
O52 O 0.12191 0.26101 0.56549 0.0
O53 O 0.13931 0.29338 0.40996 0.0
O54 O 0.19168 0.31221 0.50739 0.0
O55 O 0.1767 0.2819 0.56543 0.0
C56 C 0.20601 0.24994 0.4643 0.0
C57 C 0.12535 0.15633 0.62754 0.0
C58 C 0.09006 0.10754 0.66903 0.0
C59 C 0.08014 0.13872 0.69487 0.0
C60 C 0.11453 0.18634 0.65386 0.0
C61 C 0.09192 0.17756 0.68708 0.0
C62 C 0.11305 0.11688 0.6352 0.0
C63 C 0.09509 0.22867 0.4752 0.0
C64 C 0.14941 0.16574 0.59209 0.0
C65 C 0.31747 0.161 0.52465 0.0
C66 C 0.298 0.13275 0.50177 0.0
C67 C 0.09977 0.29199 0.55607 0.0
C68 C 0.13379 0.33991 0.35639 0.0
C69 C 0.14179 0.3728 0.29172 0.0
C70 C 0.10252 0.36228 0.28281 0.0
C71 C 0.09469 0.33071 0.34668 0.0
C72 C 0.15733 0.36096 0.32879 0.0
C73 C 0.07932 0.34168 0.31003 0.0
C74 C 0.18822 0.3139 0.5456 0.0
C75 C 0.15105 0.32681 0.3945 0.0
H76 H 0.0636 0.13317 0.72163 0.0
H77 H 0.12368 0.21661 0.64876 0.0
H78 H 0.08354 0.20106 0.70703 0.0
H79 H 0.12106 0.09373 0.61459 0.0
H80 H 0.08959 0.36978 0.25452 0.0
H81 H 0.07613 0.31475 0.36728 0.0
H82 H 0.18745 0.36849 0.33646 0.0
H83 H 0.04921 0.33408 0.30257 0.0
Tb84 Tb 0.07236 0.91109 0.80145 0.0
C85 C 0.94847 0.79232 0.73238 0.0
N86 N 0.97874 0.81252 0.71536 0.0
C87 C 0.99979 0.75303 0.6825 0.0
C88 C 0.94436 0.7511 0.72717 0.0
C89 C 1.00205 0.79398 0.68804 0.0
C90 C 0.97143 0.73128 0.70295 0.0
C91 C 0.88679 0.79412 0.76903 0.0
C92 C 0.91964 0.81354 0.75248 0.0
C93 C 0.88381 0.75279 0.76584 0.0
C94 C 0.91241 0.73136 0.74475 0.0
Tb95 Tb 0.97983 0.87923 0.72855 0.0
N96 N 0.92358 0.85349 0.75519 0.0
C97 C 0.85762 0.81696 0.78766 0.0
C98 C 0.89397 0.87605 0.77088 0.0
C99 C 0.86093 0.85816 0.78796 0.0
H100 H 0.02164 0.81066 0.66944 0.0
H101 H 0.83787 0.87615 0.801 0.0
H102 H 0.03172 0.97589 0.86636 0.0
H103 H 0.20104 0.92599 0.70905 0.0
H104 H 0.89551 0.90785 0.76939 0.0
H105 H 0.83193 0.8032 0.80082 0.0
H106 H 0.14766 0.88965 0.74343 0.0
H107 H 0.01926 0.73845 0.66168 0.0
H108 H 0.85901 0.73725 0.77872 0.0
H109 H 0.90905 0.69964 0.74142 0.0
H110 H 0.03133 0.04787 0.87592 0.0
H111 H 0.96933 0.69964 0.69816 0.0
H112 H 0.2042 0.99908 0.71374 0.0
N113 N 0.07034 0.97752 0.81635 0.0
C114 C 0.09651 1.00023 0.796 0.0
C115 C 0.04913 0.03494 0.8527 0.0
C116 C 0.0985 0.04155 0.80184 0.0
C117 C 0.04878 0.99401 0.84641 0.0
C118 C 0.07341 0.05895 0.8297 0.0
N119 N 0.12062 0.94191 0.76613 0.0
C120 C 0.14902 0.92158 0.74553 0.0
C121 C 0.15303 1.00362 0.75193 0.0
C122 C 0.1233 0.98169 0.77108 0.0
C123 C 0.18093 0.98328 0.72896 0.0
C124 C 0.17918 0.94203 0.72614 0.0
H125 H 0.074 0.09057 0.83504 0.0
H126 H 0.12811 0.09572 0.78475 0.0
H127 H 0.17608 0.06243 0.74127 0.0
O128 O 0.12067 0.87384 0.81619 0.0
O129 O 0.07064 0.92732 0.73806 0.0
O130 O 1.00568 0.93923 0.72454 0.0
O131 O 0.10345 0.92069 0.85469 0.0
O132 O 0.07064 0.85215 0.77351 0.0
O133 O 0.04073 0.86217 0.71331 0.0
O134 O 0.92954 0.9032 0.70019 0.0
O135 O 0.97821 0.85171 0.78977 0.0
O136 O 0.02957 0.87374 0.83109 0.0
O137 O 0.97782 0.87978 0.66634 0.0
O138 O 0.97899 0.93383 0.76225 0.0
O139 O 1.01075 0.9283 0.82161 0.0
C140 C 0.04315 0.94909 0.7211 0.0
C141 C 0.13904 0.86602 0.88321 0.0
C142 C 0.18959 0.82912 0.92151 0.0
C143 C 0.15958 0.81796 0.94809 0.0
C144 C 0.11009 0.85386 0.91008 0.0
C145 C 0.12037 0.83013 0.94234 0.0
C146 C 0.17885 0.85361 0.88903 0.0
C147 C 0.06772 0.84469 0.73556 0.0
C148 C 0.12831 0.89164 0.84906 0.0
C149 C 0.12655 0.0639 0.78102 0.0
C150 C 0.15397 0.04494 0.75637 0.0
C151 C 0.99764 0.85251 0.82421 0.0
C152 C 0.91476 0.88252 0.63534 0.0
C153 C 0.87494 0.8953 0.57603 0.0
C154 C 0.86186 0.85583 0.57777 0.0
C155 C 0.90116 0.84345 0.63641 0.0
C156 C 0.90126 0.90854 0.60537 0.0
C157 C 0.87474 0.83029 0.60778 0.0
C158 C 0.9784 0.93642 0.80056 0.0
C159 C 0.94311 0.89676 0.665 0.0
H160 H 0.16642 0.8002 0.97391 0.0
H161 H 0.07956 0.86289 0.90624 0.0
H162 H 0.09782 0.82124 0.96317 0.0
H163 H 0.20122 0.86269 0.86805 0.0
H164 H 0.84136 0.84474 0.556 0.0
H165 H 0.911 0.82318 0.65927 0.0
H166 H 0.91189 0.93875 0.60443 0.0
H167 H 0.86429 0.80007 0.60873 0.0
Tb168 Tb 0.42447 0.72305 0.96956 0.0
C169 C 0.29981 0.8131 0.08697 0.0
N170 N 0.31998 0.82211 0.05346 0.0
C171 C 0.26408 0.85951 0.02969 0.0
C172 C 0.26033 0.82586 0.09242 0.0
C173 C 0.30368 0.84767 0.02659 0.0
C174 C 0.24201 0.84787 0.06243 0.0
C175 C 0.30154 0.78837 0.15427 0.0
C176 C 0.32006 0.79462 0.11754 0.0
C177 C 0.26205 0.80048 0.15958 0.0
C178 C 0.24132 0.81864 0.12855 0.0
Tb179 Tb 0.38489 0.8027 0.05274 0.0
N180 N 0.35881 0.78533 0.11212 0.0
C181 C 0.32367 0.77124 0.18491 0.0
C182 C 0.38087 0.77037 0.14237 0.0
C183 C 0.36354 0.76214 0.17885 0.0
H184 H 0.3215 0.86031 1.00348 0.0
H185 H 0.38126 0.74995 0.2026 0.0
H186 H 0.49227 0.67218 0.02562 0.0
H187 H 0.44051 0.80715 0.83537 0.0
H188 H 0.41215 0.76687 0.13896 0.0
H189 H 0.31066 0.76604 0.21363 0.0
H190 H 0.40348 0.77655 0.89063 0.0
H191 H 0.25108 0.87882 1.00759 0.0
H192 H 0.24736 0.79629 0.18766 0.0
H193 H 0.21107 0.82834 0.13328 0.0
H194 H 0.56408 0.66874 0.0304 0.0
H195 H 0.2117 0.85808 0.06538 0.0
H196 H 0.5136 0.80306 0.83399 0.0
N197 N 0.49154 0.71448 0.97817 0.0
C198 C 0.51408 0.73191 0.9497 0.0
C199 C 0.55041 0.68721 1.00798 0.0
C200 C 0.55575 0.72874 0.95026 0.0
C201 C 0.50921 0.69034 1.00574 0.0
C202 C 0.57382 0.70696 0.98051 0.0
N203 N 0.45537 0.7564 0.92017 0.0
C204 C 0.43544 0.77485 0.89009 0.0
C205 C 0.51763 0.76945 0.88841 0.0
C206 C 0.49538 0.75238 0.91919 0.0
C207 C 0.49754 0.78949 0.8581 0.0
C208 C 0.45627 0.79203 0.85886 0.0
H209 H 0.60573 0.70403 0.98207 0.0
H210 H 0.61009 0.74467 0.9204 0.0
H211 H 0.5767 0.77992 0.86608 0.0
O212 O 0.399 0.70153 0.91735 0.0
O213 O 0.43911 0.78697 0.96889 0.0
O214 O 0.44676 0.80004 0.03361 0.0
O215 O 0.43925 0.66527 0.95044 0.0
O216 O 0.36409 0.74639 0.96166 0.0
O217 O 0.36862 0.80802 0.98987 0.0
O218 O 0.40475 0.83878 0.099 0.0
O219 O 0.35433 0.74391 0.05825 0.0
O220 O 0.37763 0.7019 1.00773 0.0
O221 O 0.39177 0.86375 0.04182 0.0
O222 O 0.43705 0.76529 0.06218 0.0
O223 O 0.43282 0.70442 0.03267 0.0
C224 C 0.45885 0.80436 0.99716 0.0
C225 C 0.38904 0.63291 0.91303 0.0
C226 C 0.34925 0.59385 0.86664 0.0
C227 C 0.33846 0.56903 0.89832 0.0
C228 C 0.37719 0.60798 0.94391 0.0
C229 C 0.35194 0.57641 0.93649 0.0
C230 C 0.37478 0.6259 0.87455 0.0
C231 C 0.34905 0.78164 0.96924 0.0
C232 C 0.41545 0.66689 0.92028 0.0
C233 C 0.57808 0.74661 0.92021 0.0
C234 C 0.55907 0.76657 0.88919 0.0
C235 C 0.35431 0.71007 0.03788 0.0
C236 C 0.38914 0.90705 0.0969 0.0
C237 C 0.40345 0.9702 0.12898 0.0
C238 C 0.36245 0.97724 0.13205 0.0
C239 C 0.34855 0.91453 0.10094 0.0
C240 C 0.41654 0.93471 0.11136 0.0
C241 C 0.33534 0.94952 0.11839 0.0
C242 C 0.4383 0.72657 0.06447 0.0
C243 C 0.40382 0.87084 0.07765 0.0
H244 H 0.31988 0.54348 0.89377 0.0
H245 H 0.38727 0.61297 0.97379 0.0
H246 H 0.34269 0.55753 0.9605 0.0
H247 H 0.38324 0.64591 0.85101 0.0
H248 H 0.35119 1.00398 0.14558 0.0
H249 H 0.32708 0.89352 0.09062 0.0
H250 H 0.44796 0.92886 0.10829 0.0
H251 H 0.30393 0.95521 0.12134 0.0
Tb252 Tb 0.46901 0.11616 0.2938 0.0
C253 C 0.594 0.23667 0.22689 0.0
N254 N 0.5614 0.22061 0.21027 0.0
C255 C 0.54164 0.28469 0.18607 0.0
C256 C 0.60036 0.2779 0.22606 0.0
C257 C 0.53709 0.24354 0.18737 0.0
C258 C 0.57289 0.3021 0.2064 0.0
C259 C 0.65785 0.22636 0.25757 0.0
C260 C 0.62242 0.21128 0.24225 0.0
C261 C 0.66337 0.26755 0.25917 0.0
C262 C 0.63468 0.2933 0.24335 0.0
Tb263 Tb 0.55505 0.15366 0.21858 0.0
N264 N 0.61609 0.17164 0.24018 0.0
C265 C 0.6872 0.19956 0.26948 0.0
C266 C 0.64563 0.14541 0.24918 0.0
C267 C 0.68156 0.15894 0.2643 0.0
H268 H 0.51446 0.2302 0.16957 0.0
H269 H 0.70482 0.13808 0.27194 0.0
H270 H 0.51037 0.04477 0.34975 0.0
H271 H 0.33743 0.11439 0.20443 0.0
H272 H 0.64158 0.11407 0.24455 0.0
H273 H 0.71471 0.21019 0.28128 0.0
H274 H 0.39276 0.14545 0.24064 0.0
H275 H 0.52142 0.30285 0.16892 0.0
H276 H 0.69027 0.27972 0.27133 0.0
H277 H 0.63994 0.32492 0.24343 0.0
H278 H 0.50733 0.97233 0.35492 0.0
H279 H 0.57662 0.33394 0.20507 0.0
H280 H 0.33217 0.0414 0.20237 0.0
N281 N 0.46962 0.04865 0.30172 0.0
C282 C 0.44235 0.02872 0.28022 0.0
C283 C 0.48956 0.98772 0.33308 0.0
C284 C 0.43898 0.98717 0.28291 0.0
C285 C 0.49173 0.02892 0.32944 0.0
C286 C 0.46382 0.9666 0.30901 0.0
N287 N 0.41917 0.09037 0.25686 0.0
C288 C 0.3907 0.11352 0.23937 0.0
C289 C 0.38488 0.03136 0.23743 0.0
C290 C 0.41573 0.05037 0.25765 0.0
C291 C 0.35672 0.05479 0.21772 0.0
C292 C 0.35949 0.09605 0.21894 0.0
H293 H 0.46207 0.93469 0.31211 0.0
H294 H 0.40693 0.93583 0.2624 0.0
H295 H 0.35934 0.9746 0.22279 0.0
O296 O 0.42321 0.1527 0.31517 0.0
O297 O 0.46889 0.10965 0.23009 0.0
O298 O 0.53167 0.0931 0.21508 0.0
O299 O 0.44107 0.10092 0.34747 0.0
O300 O 0.46802 0.17866 0.27466 0.0
O301 O 0.49411 0.17606 0.2119 0.0
O302 O 0.60097 0.14253 0.17733 0.0
O303 O 0.55319 0.18349 0.2786 0.0
O304 O 0.51713 0.14454 0.32324 0.0
O305 O 0.54053 0.15031 0.15851 0.0
O306 O 0.56794 0.09854 0.25042 0.0
O307 O 0.53158 0.09723 0.30891 0.0
C308 C 0.49378 0.0865 0.21197 0.0
C309 C 0.40978 0.15339 0.38326 0.0
C310 C 0.36297 0.19108 0.42423 0.0
C311 C 0.393 0.19512 0.45275 0.0
C312 C 0.43915 0.15811 0.41195 0.0
C313 C 0.4307 0.17891 0.44651 0.0
C314 C 0.37193 0.17005 0.38943 0.0
C315 C 0.47251 0.19369 0.23905 0.0
C316 C 0.41733 0.13141 0.34648 0.0
C317 C 0.4097 0.96777 0.26101 0.0
C318 C 0.38255 0.98985 0.2385 0.0
C319 C 0.54144 0.17366 0.31508 0.0
C320 C 0.59007 0.15727 0.10885 0.0
C321 C 0.62218 0.1443 0.04478 0.0
C322 C 0.60735 0.18121 0.03144 0.0
C323 C 0.57685 0.1941 0.09475 0.0
C324 C 0.61307 0.1326 0.08393 0.0
C325 C 0.58545 0.20589 0.0563 0.0
C326 C 0.56471 0.09063 0.28827 0.0
C327 C 0.57669 0.14214 0.14761 0.0
H328 H 0.38731 0.21026 0.48027 0.0
H329 H 0.46844 0.14566 0.40772 0.0
H330 H 0.45342 0.18232 0.46869 0.0
H331 H 0.34961 0.16685 0.36676 0.0
H332 H 0.61205 0.1911 1.00143 0.0
H333 H 0.55895 0.21332 0.11303 0.0
H334 H 0.62352 0.10429 0.09511 0.0
H335 H 0.57447 0.2341 0.04542 0.0
Tb336 Tb 0.66228 0.31667 0.48209 0.0
C337 C 0.54234 0.19465 0.56472 0.0
N338 N 0.56636 0.22266 0.58038 0.0
C339 C 0.51447 0.24298 0.62444 0.0
C340 C 0.50252 0.19152 0.57672 0.0
C341 C 0.55378 0.2448 0.6118 0.0
C342 C 0.48846 0.2169 0.60619 0.0
C343 C 0.5353 0.13523 0.52514 0.0
C344 C 0.55859 0.16657 0.53935 0.0
C345 C 0.49492 0.13392 0.53467 0.0
C346 C 0.47856 0.162 0.5604 0.0
Tb347 Tb 0.62924 0.22216 0.55557 0.0
N348 N 0.59784 0.1684 0.53082 0.0
C349 C 0.55367 0.1053 0.50306 0.0
C350 C 0.61641 0.13782 0.512 0.0
C351 C 0.59457 0.1062 0.49717 0.0
H352 H 0.57382 0.26458 0.62668 0.0
H353 H 0.60931 0.0824 0.48156 0.0
H354 H 0.73376 0.27281 0.42605 0.0
H355 H 0.67382 0.44684 0.57341 0.0
H356 H 0.64805 0.13755 0.50919 0.0
H357 H 0.53683 0.08069 0.4917 0.0
H358 H 0.63899 0.39709 0.53305 0.0
H359 H 0.50428 0.26162 0.64833 0.0
H360 H 0.4764 0.11047 0.52346 0.0
H361 H 0.44772 0.15966 0.56869 0.0
H362 H 0.80578 0.26529 0.42872 0.0
H363 H 0.45807 0.21544 0.61618 0.0
H364 H 0.74627 0.44162 0.58279 0.0
N365 N 0.73007 0.30949 0.47736 0.0
C366 C 0.75129 0.33351 0.50144 0.0
C367 C 0.79077 0.28384 0.45005 0.0
C368 C 0.793 0.33151 0.50268 0.0
C369 C 0.74954 0.28743 0.44946 0.0
C370 C 0.81256 0.30517 0.47752 0.0
N371 N 0.69135 0.36418 0.52006 0.0
C372 C 0.67075 0.39513 0.53646 0.0
C373 C 0.75236 0.38976 0.54583 0.0
C374 C 0.7314 0.36245 0.52264 0.0
C375 C 0.73123 0.42008 0.56469 0.0
C376 C 0.69032 0.42312 0.55948 0.0
H377 H 0.84454 0.30275 0.47754 0.0
H378 H 0.84588 0.35553 0.52934 0.0
H379 H 0.81022 0.40645 0.56731 0.0
O380 O 0.63166 0.36792 0.46267 0.0
O381 O 0.66697 0.31776 0.54716 0.0
O382 O 0.68504 0.25442 0.561 0.0
O383 O 0.67796 0.34344 0.42772 0.0
O384 O 0.60062 0.31624 0.50342 0.0
O385 O 0.6036 0.28174 0.56266 0.0
O386 O 0.65479 0.1702 0.57958 0.0
O387 O 0.60476 0.21886 0.49379 0.0
O388 O 0.62088 0.27543 0.45561 0.0
O389 O 0.63823 0.21894 0.61693 0.0
O390 O 0.68399 0.22789 0.52251 0.0
O391 O 0.67832 0.2549 0.46175 0.0
C392 C 0.68705 0.29227 0.56872 0.0
C393 C 0.62837 0.38263 0.39446 0.0
C394 C 0.58915 0.43237 0.35749 0.0
C395 C 0.58474 0.40455 0.32703 0.0
C396 C 0.62407 0.35612 0.36307 0.0
C397 C 0.60206 0.36692 0.32985 0.0
C398 C 0.61116 0.42099 0.39132 0.0
C399 C 0.58389 0.30219 0.53578 0.0
C400 C 0.6514 0.37138 0.43022 0.0
C401 C 0.81391 0.35711 0.52756 0.0
C402 C 0.79363 0.38624 0.54904 0.0
C403 C 0.60236 0.24144 0.46115 0.0
C404 C 0.64034 0.15533 0.6465 0.0
C405 C 0.6539 0.11966 0.70832 0.0
C406 C 0.61492 0.10531 0.70751 0.0
C407 C 0.60188 0.14024 0.64629 0.0
C408 C 0.66652 0.14457 0.67731 0.0
C409 C 0.58934 0.11529 0.67663 0.0
C410 C 0.68649 0.22379 0.48451 0.0
C411 C 0.65324 0.18328 0.61562 0.0
H412 H 0.56867 0.4122 0.3004 0.0
H413 H 0.63803 0.32719 0.364 0.0
H414 H 0.59872 0.34613 0.30591 0.0
H415 H 0.61481 0.44185 0.41522 0.0
H416 H 0.60421 0.08611 0.73075 0.0
H417 H 0.5815 0.14794 0.62288 0.0
H418 H 0.69624 0.15636 0.67765 0.0
H419 H 0.55953 0.10385 0.67637 0.0
Tb420 Tb 0.05488 0.373 0.7995 0.0
C421 C 0.97259 0.50292 0.6979 0.0
N422 N 0.95658 0.4802 0.72684 0.0
C423 C 0.92388 0.53775 0.75314 0.0
C424 C 0.96706 0.54437 0.69697 0.0
C425 C 0.9295 0.4966 0.75195 0.0
C426 C 0.94393 0.56192 0.7264 0.0
C427 C 0.99968 0.50499 0.63185 0.0
C428 C 0.98898 0.48377 0.66599 0.0
C429 C 0.99775 0.54659 0.63213 0.0
C430 C 0.9817 0.56632 0.66486 0.0
Tb431 Tb 0.97016 0.41347 0.72318 0.0
N432 N 0.98951 0.44368 0.66663 0.0
C433 C 1.00924 0.48358 0.59778 0.0
C434 C 0.99527 0.42283 0.63282 0.0
C435 C 1.00632 0.4423 0.5981 0.0
H436 H 0.91196 0.47796 0.77098 0.0
H437 H 1.01175 0.4255 0.57154 0.0
H438 H 0.09653 0.29442 0.75885 0.0
H439 H 0.9708 0.39193 0.935 0.0
H440 H 0.99123 0.39111 0.63281 0.0
H441 H 1.01647 0.49861 0.57052 0.0
H442 H 1.00808 0.41504 0.87782 0.0
H443 H 0.90342 0.55071 0.77406 0.0
H444 H 1.00663 0.5636 0.6065 0.0
H445 H 0.97831 0.59826 0.66388 0.0
H446 H 0.09959 0.22241 0.77177 0.0
H447 H 0.93889 0.59366 0.72685 0.0
H448 H 0.96578 0.32028 0.94916 0.0
N449 N 0.05817 0.30625 0.80719 0.0
C450 C 0.03973 0.29146 0.83959 0.0
C451 C 0.08203 0.24143 0.79058 0.0
C452 C 0.04047 0.25051 0.84789 0.0
C453 C 0.08006 0.28222 0.78326 0.0
C454 C 0.06173 0.22541 0.82271 0.0
N455 N 0.02022 0.35706 0.85557 0.0
C456 C 1.00425 0.38368 0.8815 0.0
C457 C 1.00013 0.30313 0.89807 0.0
C458 C 0.0198 0.31758 0.86432 0.0
C459 C 0.98135 0.33021 0.92303 0.0
C460 C 0.98388 0.37066 0.91497 0.0
H461 H 0.06325 0.19379 0.82821 0.0
H462 H 0.02044 0.20462 0.8879 0.0
H463 H 0.98534 0.25066 0.93192 0.0
O464 O 0.08984 0.37632 0.8507 0.0
O465 O 1.00606 0.3359 0.77879 0.0
O466 O 0.95467 0.3799 0.77689 0.0
O467 O 0.11714 0.3722 0.79381 0.0
O468 O 0.02687 0.43135 0.81224 0.0
O469 O 0.96352 0.42929 0.78629 0.0
O470 O 0.93735 0.36846 0.6954 0.0
O471 O 0.03364 0.42875 0.71003 0.0
O472 O 0.05515 0.43153 0.77301 0.0
O473 O 0.91432 0.42733 0.69902 0.0
O474 O 1.00363 0.36019 0.70552 0.0
O475 O 0.06594 0.35689 0.73623 0.0
C476 C 0.96858 0.34418 0.78474 0.0
C477 C 0.15125 0.40922 0.84394 0.0
C478 C 0.18352 0.44841 0.8964 0.0
C479 C 0.20795 0.46516 0.86709 0.0
C480 C 0.17606 0.42706 0.81601 0.0
C481 C 0.20369 0.45512 0.82749 0.0
C482 C 0.15507 0.42016 0.88421 0.0
C483 C 0.99018 0.44547 0.80954 0.0
C484 C 0.12291 0.37792 0.83144 0.0
C485 C 0.02038 0.23602 0.88112 0.0
C486 C 1.00029 0.26226 0.90614 0.0
C487 C 0.06184 0.43702 0.7357 0.0
C488 C 0.86783 0.37574 0.69941 0.0
C489 C 0.80303 0.34966 0.68059 0.0
C490 C 0.79178 0.35035 0.72049 0.0
C491 C 0.85591 0.37575 0.73903 0.0
C492 C 0.84144 0.36218 0.67021 0.0
C493 C 0.81815 0.36301 0.74944 0.0
C494 C 0.04168 0.35085 0.70567 0.0
C495 C 0.90704 0.39127 0.68835 0.0
H496 H 0.23118 0.48567 0.87451 0.0
H497 H 0.17451 0.41899 0.78522 0.0
H498 H 0.22254 0.46872 0.80555 0.0
H499 H 0.13577 0.40668 0.90581 0.0
H500 H 0.76259 0.3407 0.72932 0.0
H501 H 0.87566 0.38607 0.76187 0.0
H502 H 0.85039 0.36226 0.63951 0.0
H503 H 0.80916 0.3632 0.78007 0.0
Tb504 Tb 0.87026 0.71837 0.9745 0.0
C505 C 0.98184 0.83341 0.05659 0.0
N506 N 0.9627 0.80095 0.07057 0.0
C507 C 0.024 0.77622 0.0973 0.0
C508 C 0.0233 0.83682 0.0595 0.0
C509 C 0.9828 0.77471 0.09411 0.0
C510 C 0.04453 0.8068 0.07883 0.0
C511 C 0.97774 0.89988 0.02943 0.0
C512 C 0.95942 0.86485 0.04237 0.0
C513 C 0.01918 0.90241 0.02985 0.0
C514 C 0.04193 0.87093 0.04489 0.0
Tb515 Tb 0.89539 0.80074 0.06037 0.0
N516 N 0.91943 0.86102 0.04154 0.0
C517 C 0.95381 0.93142 1.01684 0.0
C518 C 0.89591 0.89253 0.03159 0.0
C519 C 0.91271 0.92811 0.01881 0.0
H520 H 0.96726 0.75344 0.11174 0.0
H521 H 0.89395 0.95283 1.01033 0.0
H522 H 0.80737 0.7702 0.9153 0.0
H523 H 0.84869 0.57778 0.04831 0.0
H524 H 0.86415 0.89018 0.03343 0.0
H525 H 0.9669 0.9586 1.00637 0.0
H526 H 0.88784 0.63333 0.02135 0.0
H527 H 0.03974 0.75441 0.11492 0.0
H528 H 0.03384 0.92894 0.01953 0.0
H529 H 0.0738 0.87379 0.04631 0.0
H530 H 0.73594 0.77438 0.90476 0.0
H531 H 0.07639 0.80829 0.08181 0.0
H532 H 0.77573 0.57934 0.04352 0.0
N533 N 0.80385 0.72612 0.96084 0.0
C534 C 0.78004 0.69791 0.97693 0.0
C535 C 0.74782 0.7534 0.92598 0.0
C536 C 0.73875 0.69852 0.97064 0.0
C537 C 0.78852 0.75162 0.93307 0.0
C538 C 0.72266 0.72752 0.94573 0.0
N539 N 0.83727 0.66592 1.00176 0.0
C540 C 0.85595 0.63396 0.01883 0.0
C541 C 0.77388 0.63567 1.01271 0.0
C542 C 0.79731 0.66644 0.99726 0.0
C543 C 0.7927 0.60362 0.03144 0.0
C544 C 0.83391 0.60261 0.03419 0.0
H545 H 0.69115 0.72889 0.93999 0.0
H546 H 0.68328 0.66943 0.98363 0.0
H547 H 0.71405 0.6146 0.0208 0.0
O548 O 0.8907 0.66463 0.95008 0.0
O549 O 0.85133 0.71047 0.03613 0.0
O550 O 0.8367 0.77189 0.06093 0.0
O551 O 0.86901 0.71034 0.91242 0.0
O552 O 0.92523 0.70854 1.00878 0.0
O553 O 0.91307 0.73817 0.06975 0.0
O554 O 0.86796 0.84531 0.09438 0.0
O555 O 0.92023 0.81166 0.99986 0.0
O556 O 0.92698 0.74931 0.97289 0.0
O557 O 0.8978 0.79684 0.12251 0.0
O558 O 0.84211 0.80526 0.02399 0.0
O559 O 0.85603 0.78251 0.96183 0.0
C560 C 0.82932 0.73378 0.05796 0.0
C561 C 0.9128 0.66116 0.88382 0.0
C562 C 0.95067 0.60671 0.85288 0.0
C563 C 0.96414 0.63383 0.82432 0.0
C564 C 0.92588 0.68681 0.85394 0.0
C565 C 0.95198 0.67339 0.82503 0.0
C566 C 0.92498 0.62082 0.88278 0.0
C567 C 0.93128 0.71159 0.0473 0.0
C568 C 0.88372 0.67466 0.91402 0.0
C569 C 0.71507 0.669 0.98766 0.0
C570 C 0.73261 0.63764 1.00864 0.0
C571 C 0.93274 0.78774 0.97136 0.0
C572 C 0.89347 0.85731 0.15793 0.0
C573 C 0.88326 0.89511 0.21899 0.0
C574 C 0.92172 0.91032 0.21464 0.0
C575 C 0.93162 0.87281 0.15464 0.0
C576 C 0.86925 0.86863 0.19005 0.0
C577 C 0.94556 0.89921 0.18283 0.0
C578 C 0.84225 0.81056 0.98573 0.0
C579 C 0.87833 0.8298 0.12786 0.0
H580 H 0.98322 0.62425 0.80048 0.0
H581 H 0.91538 0.71702 0.85214 0.0
H582 H 0.96226 0.6936 0.80248 0.0
H583 H 0.91415 0.60042 0.90497 0.0
H584 H 0.93331 0.93141 0.23557 0.0
H585 H 0.95056 0.86461 0.13025 0.0
H586 H 0.8398 0.85647 0.19265 0.0
H587 H 0.97498 0.91128 0.17995 0.0
Tb588 Tb 0.46881 0.66186 0.31841 0.0
C589 C 0.55361 0.53678 0.20666 0.0
N590 N 0.5688 0.56084 0.23484 0.0
C591 C 0.60909 0.50705 0.25891 0.0
C592 C 0.56342 0.49609 0.20549 0.0
C593 C 0.59872 0.54727 0.25853 0.0
C594 C 0.59044 0.48109 0.2331 0.0
C595 C 0.5181 0.53045 0.14476 0.0
C596 C 0.53145 0.55373 0.17644 0.0
C597 C 0.52529 0.48942 0.14513 0.0
C598 C 0.54788 0.47225 0.17546 0.0
Tb599 Tb 0.54801 0.62545 0.23131 0.0
N600 N 0.52474 0.5935 0.17711 0.0
C601 C 0.49876 0.54933 0.11325 0.0
C602 C 0.50826 0.61231 0.14539 0.0
C603 C 0.49441 0.59054 0.11329 0.0
H604 H 0.61446 0.5673 0.27758 0.0
H605 H 0.48084 0.6056 0.08844 0.0
H606 H 0.40107 0.7204 0.27209 0.0
H607 H 0.55168 0.69063 0.45083 0.0
H608 H 0.50683 0.64412 0.14447 0.0
H609 H 0.48811 0.53253 0.08832 0.0
H610 H 0.52265 0.64879 0.39858 0.0
H611 H 0.63175 0.49618 0.27882 0.0
H612 H 0.51464 0.4709 0.12143 0.0
H613 H 0.55454 0.44081 0.17451 0.0
H614 H 0.38806 0.79176 0.26543 0.0
H615 H 0.59879 0.45002 0.23323 0.0
H616 H 0.54423 0.76358 0.44741 0.0
N617 N 0.45039 0.72731 0.31097 0.0
C618 C 0.46891 0.7529 0.33561 0.0
C619 C 0.41153 0.7813 0.28463 0.0
C620 C 0.46088 0.79401 0.33417 0.0
C621 C 0.41976 0.74074 0.28788 0.0
C622 C 0.43287 0.80817 0.30715 0.0
N623 N 0.50017 0.69783 0.36568 0.0
C624 C 0.5193 0.68066 0.39707 0.0
C625 C 0.50965 0.76254 0.39367 0.0
C626 C 0.49345 0.73755 0.36474 0.0
C627 C 0.53132 0.74538 0.42461 0.0
C628 C 0.53568 0.70422 0.4266 0.0
H629 H 0.42594 0.83951 0.30507 0.0
H630 H 0.47404 0.85107 0.35996 0.0
H631 H 0.51642 0.82343 0.41238 0.0
O632 O 0.45383 0.62746 0.36839 0.0
O633 O 0.53281 0.67694 0.32018 0.0
O634 O 0.55115 0.68566 0.25612 0.0
O635 O 0.41382 0.67165 0.34662 0.0
O636 O 0.49444 0.60154 0.31939 0.0
O637 O 0.55691 0.60923 0.29356 0.0
O638 O 0.57538 0.64841 0.18032 0.0
O639 O 0.48632 0.599 0.22699 0.0
O640 O 0.44181 0.62204 0.27587 0.0
O641 O 0.61022 0.63032 0.23018 0.0
O642 O 0.51367 0.67985 0.22945 0.0
O643 O 0.45197 0.67624 0.25549 0.0
C644 C 0.55196 0.69725 0.29314 0.0
C645 C 0.38627 0.61907 0.38564 0.0
C646 C 0.35217 0.58023 0.43727 0.0
C647 C 0.32117 0.57386 0.41029 0.0
C648 C 0.35476 0.61201 0.35985 0.0
C649 C 0.32262 0.58943 0.37208 0.0
C650 C 0.38482 0.60311 0.42441 0.0
C651 C 0.53132 0.58944 0.31506 0.0
C652 C 0.41981 0.64461 0.37348 0.0
C653 C 0.47941 0.81939 0.36106 0.0
C654 C 0.50343 0.80365 0.391 0.0
C655 C 0.4507 0.59994 0.24485 0.0
C656 C 0.64218 0.63098 0.16769 0.0
C657 C 0.70264 0.64387 0.12957 0.0
C658 C 0.70242 0.60405 0.11735 0.0
C659 C 0.6428 0.59158 0.15494 0.0
C660 C 0.67193 0.65724 0.15462 0.0
C661 C 0.67273 0.5783 0.12982 0.0
C662 C 0.47564 0.68225 0.22485 0.0
C663 C 0.61089 0.64517 0.19466 0.0
H664 H 0.29506 0.55762 0.41893 0.0
H665 H 0.35464 0.62455 0.33046 0.0
H666 H 0.29829 0.58447 0.35198 0.0
H667 H 0.40908 0.60867 0.44446 0.0
H668 H 0.72517 0.5928 0.09781 0.0
H669 H 0.62021 0.57112 0.16443 0.0
H670 H 0.67161 0.68772 0.16456 0.0
H671 H 0.67301 0.54782 0.12003 0.0
Tb672 Tb 0.29522 0.46053 0.10429 0.0
C673 C 0.23183 0.6128 0.19671 0.0
N674 N 0.22317 0.57372 0.19357 0.0
C675 C 0.21747 0.56851 0.26388 0.0
C676 C 0.23481 0.6311 0.23382 0.0
C677 C 0.21434 0.55183 0.22632 0.0
C678 C 0.2282 0.60821 0.26769 0.0
C679 C 0.24326 0.6757 0.16413 0.0
C680 C 0.23641 0.63469 0.16239 0.0
C681 C 0.24711 0.694 0.20105 0.0
C682 C 0.24319 0.67172 0.23581 0.0
Tb683 Tb 0.21932 0.55014 0.13087 0.0
N684 N 0.23182 0.61614 0.12731 0.0
C685 C 0.24462 0.69718 0.12873 0.0
C686 C 0.23205 0.6371 0.09273 0.0
C687 C 0.23854 0.67791 0.09294 0.0
H688 H 0.20541 0.52148 0.22359 0.0
H689 H 0.23888 0.69447 0.06554 0.0
H690 H 0.36604 0.5014 0.04781 0.0
H691 H 0.2064 0.33148 0.08003 0.0
H692 H 0.22657 0.62236 0.06505 0.0
H693 H 0.24937 0.72869 0.12857 0.0
H694 H 0.23585 0.3856 0.11936 0.0
H695 H 0.21131 0.55084 0.28984 0.0
H696 H 0.25209 0.72547 0.20314 0.0
H697 H 0.24566 0.68639 0.26405 0.0
H698 H 0.386 0.49962 0.97833 0.0
H699 H 0.23033 0.62113 0.2968 0.0
H700 H 0.21953 0.32754 1.00829 0.0
N701 N 0.3172 0.46229 0.04027 0.0
C702 C 0.29997 0.43591 1.01558 0.0
C703 C 0.36105 0.48229 0.98819 0.0
C704 C 0.31124 0.4332 0.97562 0.0
C705 C 0.34895 0.48382 0.02757 0.0
C706 C 0.34142 0.45769 0.96183 0.0
N707 N 0.26364 0.41243 0.06991 0.0
C708 C 0.24133 0.38403 0.08798 0.0
C709 C 0.25722 0.37913 1.00761 0.0
C710 C 0.27315 0.40937 0.03118 0.0
C711 C 0.23241 0.35122 0.02538 0.0
C712 C 0.22483 0.35341 0.06586 0.0
H713 H 0.35117 0.45634 0.93147 0.0
H714 H 0.30152 0.40258 0.92044 0.0
H715 H 0.25427 0.35507 0.94853 0.0
O716 O 0.30947 0.4144 0.14408 0.0
O717 O 0.23296 0.46322 0.08378 0.0
O718 O 0.22261 0.52816 0.06998 0.0
O719 O 0.34905 0.429 0.09727 0.0
O720 O 0.26406 0.45632 0.16156 0.0
O721 O 0.20547 0.49078 0.15244 0.0
O722 O 0.17177 0.58969 0.11923 0.0
O723 O 0.27377 0.54564 0.17039 0.0
O724 O 0.32207 0.50627 0.13944 0.0
O725 O 0.16115 0.52834 0.13203 0.0
O726 O 0.25703 0.55492 0.07941 0.0
O727 O 0.31586 0.5229 0.09056 0.0
C728 C 0.21918 0.49077 0.0599 0.0
C729 C 0.37679 0.39818 0.15442 0.0
C730 C 0.41674 0.35068 0.19312 0.0
C731 C 0.44024 0.38246 0.20582 0.0
C732 C 0.40066 0.42908 0.16774 0.0
C733 C 0.43221 0.4212 0.19322 0.0
C734 C 0.38495 0.359 0.16713 0.0
C735 C 0.22687 0.46387 0.17091 0.0
C736 C 0.34311 0.40612 0.12757 0.0
C737 C 0.29358 0.40475 0.95131 0.0
C738 C 0.26681 0.37758 0.96734 0.0
C739 C 0.31102 0.53225 0.16628 0.0
C740 C 0.10643 0.57332 0.13972 0.0
C741 C 0.04097 0.60519 0.13124 0.0
C742 C 0.02913 0.58698 0.16687 0.0
C743 C 0.09389 0.55684 0.17552 0.0
C744 C 0.0801 0.59787 0.11796 0.0
C745 C 0.05545 0.56363 0.18887 0.0
C746 C 0.29548 0.55554 0.08111 0.0
C747 C 0.14525 0.56242 0.12255 0.0
H748 H 0.46538 0.37733 0.22501 0.0
H749 H 0.39494 0.4592 0.15831 0.0
H750 H 0.4507 0.44524 0.20311 0.0
H751 H 0.36627 0.33515 0.15706 0.0
H752 H 0.99924 0.59012 0.17782 0.0
H753 H 0.11348 0.53801 0.19273 0.0
H754 H 0.09031 0.61099 0.09064 0.0
H755 H 0.04572 0.55016 0.21618 0.0
Tb756 Tb 0.7298 0.97327 0.88275 0.0
C757 C 0.8558 0.05554 0.98491 0.0
N758 N 0.81998 0.0667 0.96999 0.0
C759 C 0.80026 0.08915 0.03436 0.0
C760 C 0.86428 0.05871 0.02553 0.0
C761 C 0.79369 0.08618 0.99378 0.0
C762 C 0.83537 0.07453 0.05049 0.0
C763 C 0.92311 0.03313 0.97284 0.0
C764 C 0.88502 0.04327 0.95898 0.0
C765 C 0.93129 0.03532 1.01336 0.0
C766 C 0.90187 0.0478 0.03967 0.0
Tb767 Tb 0.81303 0.05931 0.90284 0.0
N768 N 0.87627 0.04227 0.91993 0.0
C769 C 0.95199 0.0218 0.94544 0.0
C770 C 0.90487 0.03323 0.89307 0.0
C771 C 0.94284 0.02208 0.90531 0.0
H772 H 0.76854 0.10139 0.98184 0.0
H773 H 0.96515 1.01448 0.88373 0.0
H774 H 0.78001 0.91285 0.82002 0.0
H775 H 0.58736 0.04446 0.86269 0.0
H776 H 0.8988 0.03642 0.86222 0.0
H777 H 0.9816 1.01372 0.95483 0.0
H778 H 0.64458 0.01903 0.90094 0.0
H779 H 0.77873 0.10387 0.05297 0.0
H780 H 0.96045 0.02803 0.0246 0.0
H781 H 0.90884 0.04999 0.07077 0.0
H782 H 0.78413 0.90304 0.74867 0.0
H783 H 0.84072 0.07753 0.08183 0.0
H784 H 0.58648 0.03793 0.79008 0.0
N785 N 0.73558 0.95831 0.81656 0.0
C786 C 0.70646 0.97354 0.79307 0.0
C787 C 0.7628 0.92385 0.7606 0.0
C788 C 0.7063 0.96692 0.75197 0.0
C789 C 0.76112 0.93061 0.80122 0.0
C790 C 0.73593 0.94297 0.73569 0.0
N791 N 0.67565 0.99847 0.85028 0.0
C792 C 0.64419 1.0158 0.86923 0.0
C793 C 0.64319 1.00776 0.78761 0.0
C794 C 0.67499 0.99332 0.81055 0.0
C795 C 0.61148 0.02649 0.80669 0.0
C796 C 0.61187 0.03026 0.84769 0.0
H797 H 0.73685 0.93716 0.7043 0.0
H798 H 0.67519 0.9782 0.69711 0.0
H799 H 0.61994 1.01389 0.72832 0.0
O800 O 0.67689 0.94646 0.90207 0.0
O801 O 0.72087 0.03414 0.86101 0.0
O802 O 0.78261 0.05679 0.84496 0.0
O803 O 0.72692 0.91075 0.88787 0.0
O804 O 0.71817 1.01097 0.93504 0.0
O805 O 0.75152 0.07031 0.92248 0.0
O806 O 0.85516 0.09714 0.87629 0.0
O807 O 0.82465 0.99891 0.92877 0.0
O808 O 0.76121 0.98026 0.93865 0.0
O809 O 0.80349 0.121 0.9042 0.0
O810 O 0.8158 0.0224 0.84997 0.0
O811 O 0.79347 0.96048 0.86676 0.0
C812 C 0.74409 0.05598 0.83913 0.0
C813 C 0.67673 0.8813 0.92928 0.0
C814 C 0.62247 0.84774 0.96484 0.0
C815 C 0.65074 0.82124 0.98074 0.0
C816 C 0.70342 0.85343 0.94488 0.0
C817 C 0.69069 0.82449 0.97126 0.0
C818 C 0.63601 0.8781 0.93915 0.0
C819 C 0.72289 0.04979 0.93963 0.0
C820 C 0.69019 0.9107 0.89932 0.0
C821 C 0.67553 0.98266 0.72873 0.0
C822 C 0.64397 1.00288 0.74653 0.0
C823 C 0.79899 0.97321 0.94325 0.0
C824 C 0.85885 0.16378 0.89875 0.0
C825 C 0.89148 0.2269 0.88332 0.0
C826 C 0.89588 0.23349 0.92399 0.0
C827 C 0.86437 0.17087 0.93906 0.0
C828 C 0.87307 0.1916 0.8709 0.0
C829 C 0.88282 0.20552 0.9515 0.0
C830 C 0.82046 0.98377 0.85017 0.0
C831 C 0.83591 0.12922 0.88523 0.0
H832 H 0.64204 0.79697 0.99971 0.0
H833 H 0.73407 0.85338 0.93592 0.0
H834 H 0.7118 0.80374 0.98377 0.0
H835 H 0.615 0.89887 0.9264 0.0
H836 H 0.91002 0.2601 0.93455 0.0
H837 H 0.85383 0.14995 0.9609 0.0
H838 H 0.86884 0.18631 0.83969 0.0
H839 H 0.88675 0.2109 0.98269 0.0
Tb840 Tb 0.72011 0.97193 0.40685 0.0
C841 C 0.806 0.09561 0.30234 0.0
N842 N 0.81671 0.06008 0.31849 0.0
C843 C 0.84351 0.03976 0.256 0.0
C844 C 0.81172 0.10359 0.26184 0.0
C845 C 0.83848 0.03397 0.29651 0.0
C846 C 0.8292 0.07437 0.23835 0.0
C847 C 0.78415 0.16357 0.31221 0.0
C848 C 0.79249 0.12536 0.32712 0.0
C849 C 0.78878 0.17121 0.27174 0.0
C850 C 0.8021 0.14117 0.24655 0.0
Tb851 Tb 0.80673 0.0547 0.38537 0.0
N852 N 0.78916 0.11722 0.36623 0.0
C853 C 0.7724 0.19321 0.33863 0.0
C854 C 0.77883 0.14628 0.39214 0.0
C855 C 0.76971 0.18447 0.37878 0.0
H856 H 0.85421 1.00981 0.31012 0.0
H857 H 0.76157 0.20734 0.39956 0.0
H858 H 0.66005 0.02367 0.4692 0.0
H859 H 0.79229 0.8301 0.43008 0.0
H860 H 0.77971 0.14045 0.42324 0.0
H861 H 0.76623 0.22311 0.3285 0.0
H862 H 0.76615 0.88624 0.39043 0.0
H863 H 0.85987 0.01826 0.23874 0.0
H864 H 0.78281 0.20042 0.25969 0.0
H865 H 0.80627 0.14776 0.21554 0.0
H866 H 0.65139 0.02952 0.54051 0.0
H867 H 0.83409 0.07931 0.20714 0.0
H868 H 0.78712 0.83147 0.50281 0.0
N869 N 0.70573 0.97937 0.47302 0.0
C870 C 0.72164 0.95099 0.49711 0.0
C871 C 0.67208 1.00793 0.52882 0.0
C872 C 0.71582 0.95199 0.53834 0.0
C873 C 0.67814 1.0052 0.48814 0.0
C874 C 0.69187 0.98189 0.55416 0.0
N875 N 0.74611 0.91868 0.44043 0.0
C876 C 0.76326 0.88667 0.4222 0.0
C877 C 0.75668 0.88815 0.50397 0.0
C878 C 0.74148 0.91914 0.48026 0.0
C879 C 0.7752 0.85589 0.48559 0.0
C880 C 0.77819 0.85501 0.44453 0.0
H881 H 0.68667 0.9837 0.58563 0.0
H882 H 0.72874 0.9228 0.59399 0.0
H883 H 0.76474 0.86703 0.56389 0.0
O884 O 0.69476 0.9181 0.38814 0.0
O885 O 0.78147 0.96319 0.42706 0.0
O886 O 0.80424 0.02472 0.44347 0.0
O887 O 0.65772 0.96682 0.40311 0.0
O888 O 0.75614 0.96241 0.35305 0.0
O889 O 0.81682 0.99266 0.36612 0.0
O890 O 0.84331 0.09844 0.41086 0.0
O891 O 0.74669 0.06596 0.35841 0.0
O892 O 0.72519 1.00261 0.35012 0.0
O893 O 0.86861 0.04633 0.38564 0.0
O894 O 0.76887 0.05841 0.43774 0.0
O895 O 0.70703 0.036 0.42118 0.0
C896 C 0.80314 0.98616 0.44927 0.0
C897 C 0.62984 0.91622 0.36123 0.0
C898 C 0.59604 0.8615 0.32647 0.0
C899 C 0.57152 0.89023 0.30829 0.0
C900 C 0.60432 0.94335 0.34269 0.0
C901 C 0.57611 0.93048 0.31585 0.0
C902 C 0.62543 0.87507 0.35315 0.0
C903 C 0.79476 0.96654 0.34719 0.0
C904 C 0.65868 0.93013 0.39142 0.0
C905 C 0.73248 0.92214 0.56226 0.0
C906 C 0.75278 0.89026 0.54512 0.0
C907 C 0.72021 0.04069 0.34453 0.0
C908 C 0.90835 0.10423 0.38479 0.0
C909 C 0.96841 0.14497 0.39181 0.0
C910 C 0.97114 0.14599 0.3503 0.0
C911 C 0.91177 0.10715 0.34371 0.0
C912 C 0.93678 0.12332 0.40892 0.0
C913 C 0.94301 0.12764 0.3267 0.0
C914 C 0.73031 0.06338 0.43695 0.0
C915 C 0.87602 0.0802 0.40225 0.0
H916 H 0.54787 0.88178 0.28862 0.0
H917 H 0.60563 0.97455 0.34948 0.0
H918 H 0.55714 0.95186 0.3012 0.0
H919 H 0.64471 0.85386 0.36776 0.0
H920 H 0.99539 0.16082 0.33572 0.0
H921 H 0.89062 0.09304 0.32461 0.0
H922 H 0.93399 0.12161 0.4407 0.0
H923 H 0.94563 0.1291 0.29491 0.0
Tb924 Tb 0.3169 0.46926 0.67126 0.0
C925 C 0.20215 0.57394 0.55537 0.0
N926 N 0.2367 0.57966 0.57491 0.0
C927 C 0.26158 0.61691 0.51985 0.0
C928 C 0.19666 0.5882 0.51653 0.0
C929 C 0.26493 0.60342 0.55876 0.0
C930 C 0.22761 0.60851 0.49829 0.0
C931 C 0.13346 0.55399 0.55776 0.0
C932 C 0.17092 0.55699 0.57561 0.0
C933 C 0.12808 0.56755 0.51888 0.0
C934 C 0.15976 0.58407 0.49812 0.0
Tb935 Tb 0.23754 0.55795 0.63885 0.0
N936 N 0.17659 0.54586 0.61373 0.0
C937 C 0.10223 0.53863 0.57996 0.0
C938 C 0.14609 0.53159 0.6357 0.0
C939 C 0.10863 0.52714 0.61906 0.0
H940 H 0.28961 0.61323 0.5762 0.0
H941 H 0.08458 0.5159 0.63678 0.0
H942 H 0.26607 0.40069 0.72265 0.0
H943 H 0.45179 0.54418 0.70987 0.0
H944 H 0.15023 0.52532 0.66637 0.0
H945 H 0.07295 0.53654 0.56743 0.0
H946 H 0.40004 0.51986 0.66449 0.0
H947 H 0.28464 0.63488 0.50697 0.0
H948 H 0.0994 0.56599 0.50478 0.0
H949 H 0.15498 0.59497 0.46839 0.0
H950 H 0.25801 0.38177 0.79224 0.0
H951 H 0.22464 0.61983 0.46848 0.0
H952 H 0.44546 0.53273 0.78173 0.0
N953 N 0.30708 0.44701 0.73459 0.0
C954 C 0.33167 0.46262 0.76206 0.0
C955 C 0.27835 0.40507 0.78427 0.0
C956 C 0.3289 0.45167 0.80218 0.0
C957 C 0.28248 0.41656 0.74484 0.0
C958 C 0.30093 0.42344 0.81324 0.0
N959 N 0.36461 0.49589 0.7105 0.0
C960 C 0.39728 0.51466 0.69586 0.0
C961 C 0.39058 0.50054 0.77645 0.0
C962 C 0.36201 0.48698 0.74949 0.0
C963 C 0.42288 0.52185 0.76196 0.0
C964 C 0.42653 0.52843 0.72142 0.0
H965 H 0.29784 0.41427 0.84373 0.0
H966 H 0.35336 0.45998 0.86055 0.0
H967 H 0.4075 0.50271 0.83804 0.0
O968 O 0.36903 0.45214 0.64161 0.0
O969 O 0.32129 0.53249 0.68658 0.0
O970 O 0.2584 0.55171 0.69961 0.0
O971 O 0.33722 0.40991 0.67585 0.0
O972 O 0.32118 0.49295 0.61091 0.0
O973 O 0.29968 0.55707 0.6191 0.0
O974 O 0.19384 0.60058 0.65489 0.0
O975 O 0.22706 0.49983 0.60775 0.0
O976 O 0.27264 0.45058 0.62934 0.0
O977 O 0.25538 0.6158 0.65218 0.0
O978 O 0.2228 0.52104 0.69 0.0
O979 O 0.25252 0.45865 0.68491 0.0
C980 C 0.29571 0.55032 0.70965 0.0
C981 C 0.37525 0.38578 0.62139 0.0
C982 C 0.42291 0.34959 0.57922 0.0
C983 C 0.39036 0.33405 0.55844 0.0
C984 C 0.34396 0.36847 0.60093 0.0
C985 C 0.35154 0.34293 0.5696 0.0
C986 C 0.41465 0.37586 0.61088 0.0
C987 C 0.31628 0.52926 0.59749 0.0
C988 C 0.36736 0.41541 0.65266 0.0
C989 C 0.35547 0.46758 0.82959 0.0
C990 C 0.3864 0.49178 0.81674 0.0
C991 C 0.24277 0.46321 0.60745 0.0
C992 C 0.20924 0.66947 0.64555 0.0
C993 C 0.175 0.73361 0.65597 0.0
C994 C 0.19652 0.74914 0.62391 0.0
C995 C 0.22967 0.68636 0.61372 0.0
C996 C 0.1818 0.69337 0.66676 0.0
C997 C 0.22319 0.72569 0.60296 0.0
C998 C 0.22192 0.48219 0.6939 0.0
C999 C 0.21957 0.62867 0.65931 0.0
H1000 H 0.39443 0.3152 0.53305 0.0
H1001 H 0.31367 0.37501 0.60901 0.0
H1002 H 0.32718 0.3301 0.55354 0.0
H1003 H 0.43854 0.38855 0.62772 0.0
H1004 H 0.19345 0.77992 0.61527 0.0
H1005 H 0.25172 0.66971 0.5978 0.0
H1006 H 0.16612 0.68073 0.6916 0.0
H1007 H 0.23961 0.73836 0.57864 0.0
C1008 C 0.23922 0.36634 0.55344 0.0
C1009 C 0.20235 0.35107 0.56468 0.0
H1010 H 0.27962 0.41492 0.55585 0.0
C1011 C 0.17669 0.37598 0.58604 0.0
H1012 H 0.25928 0.3486 0.5358 0.0
C1013 C 0.18735 0.41519 0.59557 0.0
C1014 C 0.22477 0.42987 0.58531 0.0
H1015 H 0.14832 0.3653 0.59499 0.0
H1016 H 0.1671 0.4333 0.61257 0.0
C1017 C 0.25029 0.4049 0.56374 0.0
C1018 C 0.88042 0.99048 0.80703 0.0
C1019 C 0.8594 0.96833 0.83525 0.0
H1020 H 0.93506 0.99938 0.77629 0.0
C1021 C 0.87859 0.93538 0.85223 0.0
H1022 H 0.86649 1.01554 0.79239 0.0
C1023 C 0.91906 0.92768 0.84508 0.0
C1024 C 0.94043 0.95085 0.81796 0.0
H1025 H 0.86215 0.91512 0.87035 0.0
H1026 H 0.93253 0.90182 0.85838 0.0
C1027 C 0.9202 0.98198 0.79867 0.0
C1028 C 0.31926 0.64743 0.02248 0.0
C1029 C 0.33259 0.67409 0.05142 0.0
H1030 H 0.29841 0.58911 1.00914 0.0
C1031 C 0.33416 0.66069 0.0907 0.0
H1032 H 0.31727 0.65671 0.99191 0.0
C1033 C 0.32576 0.62078 0.10009 0.0
C1034 C 0.31422 0.59385 0.07057 0.0
H1035 H 0.34336 0.68054 0.1139 0.0
H1036 H 0.32669 0.6115 0.13064 0.0
C1037 C 0.30982 0.60821 0.03199 0.0
C1038 C 0.62655 0.10286 0.32719 0.0
C1039 C 0.60156 0.07601 0.30781 0.0
H1040 H 0.68524 0.11495 0.34842 0.0
C1041 C 0.61693 0.03846 0.29854 0.0
H1042 H 0.61663 0.13289 0.33261 0.0
C1043 C 0.65548 0.02737 0.31001 0.0
C1044 C 0.68063 0.05425 0.32927 0.0
H1045 H 0.59921 0.01773 0.28199 0.0
H1046 H 0.66576 0.99769 0.30326 0.0
C1047 C 0.66605 0.09266 0.33615 0.0
C1048 C 0.67752 0.16422 0.43958 0.0
C1049 C 0.69855 0.18384 0.46946 0.0
H1050 H 0.66601 0.1086 0.4111 0.0
C1051 C 0.72685 0.16178 0.49095 0.0
H1052 H 0.65437 0.17954 0.42358 0.0
C1053 C 0.73499 0.12199 0.48202 0.0
C1054 C 0.71471 0.10246 0.45162 0.0
H1055 H 0.74287 0.17545 0.51491 0.0
H1056 H 0.75824 0.10677 0.49821 0.0
C1057 C 0.68438 0.12353 0.43209 0.0
C1058 C 0.12047 0.48098 0.74136 0.0
C1059 C 0.10307 0.44763 0.72418 0.0
H1060 H 0.17187 0.5172 0.7465 0.0
C1061 C 0.12757 0.42191 0.7022 0.0
H1062 H 0.10309 0.50038 0.76008 0.0
C1063 C 0.16769 0.43082 0.6954 0.0
C1064 C 0.18399 0.46606 0.70973 0.0
H1065 H 0.1163 0.39442 0.69106 0.0
H1066 H 0.18553 0.41084 0.67786 0.0
C1067 C 0.16019 0.49014 0.7342 0.0
C1068 C 0.78487 0.90741 0.97583 0.0
C1069 C 0.81146 0.93213 0.95559 0.0
H1070 H 0.77432 0.85029 1.00191 0.0
C1071 C 0.84846 0.91597 0.94517 0.0
H1072 H 0.7564 0.91881 0.98532 0.0
C1073 C 0.85694 0.87528 0.95078 0.0
C1074 C 0.83024 0.85071 0.97108 0.0
H1075 H 0.87088 0.93484 0.93256 0.0
H1076 H 0.88557 0.86388 0.94196 0.0
C1077 C 0.79475 0.86781 0.98464 0.0
C1078 C 0.4182 0.55899 0.19127 0.0
C1079 C 0.415 0.58105 0.22588 0.0
H1080 H 0.38915 0.52852 0.14506 0.0
C1081 C 0.37623 0.58763 0.24102 0.0
H1082 H 0.44675 0.55337 0.17835 0.0
C1083 C 0.3422 0.57252 0.22228 0.0
C1084 C 0.34573 0.55027 0.18765 0.0
H1085 H 0.37188 0.60507 0.26729 0.0
H1086 H 0.31333 0.57816 0.235 0.0
C1087 C 0.38447 0.54434 0.17237 0.0
C1088 C 0.57588 0.22925 0.3518 0.0
C1089 C 0.55835 0.19189 0.35148 0.0
H1090 H 0.60204 0.27455 0.38655 0.0
C1091 C 0.55441 0.17151 0.38797 0.0
H1092 H 0.57927 0.24594 0.32467 0.0
C1093 C 0.56699 0.18798 0.42351 0.0
C1094 C 0.5846 0.2252 0.4241 0.0
H1095 H 0.54157 0.14226 0.38942 0.0
H1096 H 0.56331 0.17123 0.45038 0.0
C1097 C 0.5886 0.24571 0.38764 0.0
C1098 C 0.07471 0.34826 0.59835 0.0
C1099 C 0.07697 0.30753 0.59064 0.0
H1100 H 0.06736 0.39334 0.64209 0.0
C1101 C 0.06597 0.28113 0.62119 0.0
H1102 H 0.08241 0.36958 0.5757 0.0
C1103 C 0.05582 0.29488 0.65896 0.0
C1104 C 0.05717 0.3354 0.66753 0.0
H1105 H 0.0664 0.24948 0.61613 0.0
H1106 H 0.04721 0.27382 0.68152 0.0
C1107 C 0.06646 0.36184 0.63665 0.0
C1108 C 0.95294 0.80383 0.86112 0.0
C1109 C 0.97975 0.83536 0.86122 0.0
H1110 H 0.9167 0.76518 0.89608 0.0
C1111 C 0.98976 0.8519 0.89829 0.0
H1112 H 0.94406 0.79049 0.83361 0.0
C1113 C 0.97449 0.83693 0.93379 0.0
C1114 C 0.94879 0.80469 0.93374 0.0
H1115 H 1.00923 0.87712 0.9001 0.0
H1116 H 0.98335 0.85026 0.96129 0.0
C1117 C 0.9378 0.78881 0.89695 0.0
C1118 C 0.48462 0.72367 0.16518 0.0
C1119 C 0.4619 0.6952 0.18517 0.0
H1120 H 0.49642 0.75421 0.11112 0.0
C1121 C 0.43416 0.67343 0.16335 0.0
H1122 H 0.50707 0.74017 0.18073 0.0
C1123 C 0.42983 0.67995 0.12239 0.0
C1124 C 0.45126 0.70983 0.10308 0.0
H1125 H 0.41755 0.65 0.1773 0.0
H1126 H 0.40955 0.66205 0.1059 0.0
C1127 C 0.47942 0.73086 0.12493 0.0
C1128 C 0.1462 0.42661 0.24011 0.0
C1129 C 0.16522 0.39671 0.26229 0.0
H1130 H 0.14991 0.47013 0.19464 0.0
C1131 C 0.20571 0.38945 0.25474 0.0
H1132 H 0.11542 0.43395 0.24537 0.0
C1133 C 0.22609 0.4109 0.22524 0.0
C1134 C 0.20654 0.44028 0.20264 0.0
H1135 H 0.22144 0.36658 0.27099 0.0
H1136 H 0.25704 0.4043 0.22002 0.0
C1137 C 0.1663 0.44772 0.21085 0.0
C1138 C 0.84602 0.96002 0.55005 0.0
C1139 C 0.86131 0.9217 0.54307 0.0
H1140 H 0.81552 1.01087 0.52565 0.0
C1141 C 0.86127 0.9074 0.50421 0.0
H1142 H 0.84552 0.97186 0.57968 0.0
C1143 C 0.84452 0.9297 0.47356 0.0
C1144 C 0.8271 0.96688 0.48081 0.0
H1145 H 0.87333 0.87834 0.49762 0.0
H1146 H 0.84396 0.91717 0.44421 0.0
C1147 C 0.82901 0.98243 0.51916 0.0
C1148 C 0.34427 0.58364 0.75436 0.0
C1149 C 0.30791 0.5646 0.7491 0.0
H1150 H 0.3864 0.60682 0.79508 0.0
C1151 C 0.2838 0.55808 0.78213 0.0
H1152 H 0.36307 0.58971 0.72924 0.0
C1153 C 0.2967 0.56851 0.81992 0.0
C1154 C 0.33414 0.58578 0.82576 0.0
H1155 H 0.25542 0.54377 0.77891 0.0
H1156 H 0.27723 0.56273 0.84458 0.0
C1157 C 0.35736 0.59392 0.7922 0.0
C1158 C 0.67096 0.13689 0.98873 0.0
C1159 C 0.64704 0.11894 0.01763 0.0
H1160 H 0.71145 0.12972 0.94105 0.0
C1161 C 0.64705 0.07709 0.01952 0.0
H1162 H 0.67298 0.16878 0.98641 0.0
C1163 C 0.6707 0.05424 0.99374 0.0
C1164 C 0.69479 0.07264 0.96529 0.0
H1165 H 0.62867 0.06183 0.04074 0.0
H1166 H 0.67057 0.02227 0.99655 0.0
C1167 C 0.69367 0.11424 0.96268 0.0
C1168 C 0.7189 0.09382 0.73617 0.0
C1169 C 0.68033 0.10881 0.74211 0.0
H1170 H 0.76981 0.06529 0.76247 0.0
C1171 C 0.66567 0.11066 0.78085 0.0
H1172 H 0.73098 0.09185 0.70666 0.0
C1173 C 0.68783 0.09581 0.81248 0.0
C1174 C 0.72525 0.07856 0.80638 0.0
H1175 H 0.63639 0.12253 0.78661 0.0
H1176 H 0.67494 0.09639 0.84172 0.0
C1177 C 0.7412 0.07878 0.76808 0.0
C1178 C 0.2132 0.50772 0.98794 0.0
C1179 C 0.20656 0.48084 0.01889 0.0
H1180 H 0.20971 0.51986 0.92636 0.0
C1181 C 0.18847 0.44462 1.0099 0.0
H1182 H 0.2263 0.5363 0.99373 0.0
C1183 C 0.18025 0.43418 0.97058 0.0
C1184 C 0.18883 0.46027 0.93911 0.0
H1185 H 0.18165 0.42383 0.03326 0.0
H1186 H 0.16844 0.40505 0.96501 0.0
C1187 C 0.2042 0.49781 0.94888 0.0
C1188 C 0.79623 0.93394 0.28038 0.0
C1189 C 0.81465 0.94179 0.31668 0.0
H1190 H 0.80341 0.91358 0.22081 0.0
C1191 C 0.85427 0.93006 0.32182 0.0
H1192 H 0.76579 0.94288 0.27545 0.0
C1193 C 0.87575 0.91325 0.29073 0.0
C1194 C 0.85833 0.90778 0.25343 0.0
H1195 H 0.86919 0.93538 0.34955 0.0
H1196 H 0.90649 0.90548 0.29568 0.0
C1197 C 0.81786 0.91721 0.24903 0.0
C1198 C 0.32103 0.51569 0.52499 0.0
C1199 C 0.33143 0.5392 0.55733 0.0
H1200 H 0.32003 0.50946 0.46223 0.0
C1201 C 0.35335 0.57381 0.55026 0.0
H1202 H 0.30451 0.48866 0.52947 0.0
C1203 C 0.3618 0.58629 0.51151 0.0
C1204 C 0.34881 0.56427 0.47879 0.0
H1205 H 0.36221 0.59229 0.5747 0.0
H1206 H 0.37661 0.6143 0.50728 0.0
C1207 C 0.32956 0.52802 0.48633 0.0
C1208 C 0.2504 0.20246 0.42795 0.0
C1209 C 0.24571 0.23685 0.45064 0.0
H1210 H 0.29067 0.1605 0.40257 0.0
C1211 C 0.27956 0.258 0.46162 0.0
H1212 H 0.22475 0.18588 0.41869 0.0
C1213 C 0.3174 0.24375 0.45219 0.0
C1214 C 0.32243 0.20808 0.43125 0.0
H1215 H 0.2769 0.28481 0.4789 0.0
H1216 H 0.34273 0.26057 0.4618 0.0
C1217 C 0.28828 0.18817 0.41844 0.0
C1218 C 0.03998 0.05952 0.69757 0.0
C1219 C 0.07646 0.06594 0.67832 0.0
H1220 H 1.00114 0.01826 0.72599 0.0
C1221 C 0.10026 0.03244 0.67022 0.0
H1222 H 0.02002 0.08402 0.70345 0.0
C1223 C 0.08887 0.99431 0.68278 0.0
C1224 C 0.05356 0.9886 0.70398 0.0
H1225 H 0.12852 0.03575 0.65564 0.0
H1226 H 0.10826 0.96936 0.67684 0.0
C1227 C 0.02876 0.02156 0.71016 0.0
C1228 C 0.264 0.84078 0.92252 0.0
C1229 C 0.2316 0.81548 0.9288 0.0
H1230 H 0.32655 0.84992 0.92989 0.0
C1231 C 0.23947 0.77748 0.94471 0.0
H1232 H 0.25941 0.87021 0.91046 0.0
C1233 C 0.27787 0.76605 0.95602 0.0
C1234 C 0.30965 0.79226 0.95201 0.0
H1235 H 0.21572 0.75662 0.94916 0.0
H1236 H 0.2824 0.73719 0.9695 0.0
C1237 C 0.30252 0.82926 0.93389 0.0
C1238 C 0.48772 1.01684 0.18706 0.0
C1239 C 0.47777 0.05721 0.18408 0.0
H1240 H 0.47149 0.95727 0.17234 0.0
C1241 C 0.44658 0.06881 0.1592 0.0
H1242 H 0.51117 1.00717 0.20671 0.0
C1243 C 0.42409 0.04061 0.13954 0.0
C1244 C 0.43185 0.99993 0.14466 0.0
H1245 H 0.43827 0.09979 0.15653 0.0
H1246 H 0.39948 0.05067 0.12157 0.0
C1247 C 0.46484 0.98836 0.16754 0.0
C1248 C 0.73604 0.35301 0.64863 0.0
C1249 C 0.77417 0.33607 0.6504 0.0
H1250 H 0.6788 0.35259 0.62115 0.0
C1251 C 0.78347 0.3046 0.62493 0.0
H1252 H 0.72808 0.37734 0.66785 0.0
C1253 C 0.75489 0.28978 0.59894 0.0
C1254 C 0.71685 0.30686 0.59717 0.0
H1255 H 0.81251 0.29085 0.62581 0.0
H1256 H 0.76275 0.26539 0.57973 0.0
C1257 C 0.70784 0.33882 0.62203 0.0
C1258 C 0.94409 0.49405 0.84365 0.0
C1259 C 0.98152 0.48461 0.82796 0.0
H1260 H 0.90475 0.54006 0.86384 0.0
C1261 C 1.01025 0.51441 0.82649 0.0
H1262 H 0.92153 0.47153 0.84567 0.0
C1263 C 1.00082 0.55341 0.837 0.0
C1264 C 0.96239 0.56384 0.84948 0.0
H1265 H 0.03951 0.50811 0.81497 0.0
H1266 H 0.02337 0.5758 0.83385 0.0
C1267 C 0.9346 0.53329 0.85431 0.0
C1268 C 0.75893 0.73041 0.08306 0.0
C1269 C 0.79771 0.71503 0.08201 0.0
H1270 H 0.69813 0.7199 0.09878 0.0
C1271 C 0.80534 0.67833 0.10024 0.0
H1272 H 0.75212 0.75845 0.06884 0.0
C1273 C 0.77475 0.65634 0.11709 0.0
C1274 C 0.73547 0.67038 0.11627 0.0
H1275 H 0.83498 0.66588 0.10022 0.0
H1276 H 0.78172 0.62763 0.1298 0.0
C1277 C 0.72805 0.70827 0.10007 0.0
C1278 C 0.53418 0.47874 0.33538 0.0
C1279 C 0.57185 0.47327 0.35253 0.0
H1280 H 0.49171 0.51964 0.31077 0.0
C1281 C 0.59409 0.50722 0.36132 0.0
H1282 H 0.51594 0.45343 0.32862 0.0
C1283 C 0.58015 0.54524 0.35086 0.0
C1284 C 0.54346 0.55028 0.33179 0.0
H1285 H 0.62326 0.50428 0.37424 0.0
H1286 H 0.59877 0.57061 0.35623 0.0
C1287 C 0.52007 0.51673 0.32542 0.0
C1288 C 0.42506 0.27733 0.17964 0.0
C1289 C 0.42647 0.30918 0.20626 0.0
H1290 H 0.43809 0.21584 0.16926 0.0
C1291 C 0.43953 0.30137 0.24507 0.0
H1292 H 0.41545 0.28206 0.14952 0.0
C1293 C 0.45246 0.26334 0.25635 0.0
C1294 C 0.45307 0.2322 0.22904 0.0
H1295 H 0.44042 0.32489 0.26665 0.0
H1296 H 0.4637 0.25876 0.28595 0.0
C1297 C 0.43819 0.23936 0.1909 0.0
C1298 C 0.91676 0.32594 0.83493 0.0
C1299 C 0.94417 0.31436 0.80598 0.0
H1300 H 0.87901 0.3074 0.88241 0.0
C1301 C 0.95121 0.27361 0.80025 0.0
H1302 H 0.91092 0.35706 0.84027 0.0
C1303 C 0.93254 0.24514 0.82395 0.0
C1304 C 0.9069 0.25674 0.85449 0.0
H1305 H 0.97225 0.26377 0.7782 0.0
H1306 H 0.93977 0.21413 0.81971 0.0
C1307 C 0.89872 0.29748 0.85923 0.0
C1308 C 1.01427 0.63599 0.06724 0.0
C1309 C 1.01239 0.6315 0.10867 0.0
H1310 H 0.99051 0.6645 1.01533 0.0
C1311 C 0.98229 0.65242 0.12872 0.0
H1312 H 0.03621 0.62 0.05023 0.0
C1313 C 0.95524 0.67655 0.10846 0.0
C1314 C 0.95808 0.6823 0.06747 0.0
H1315 H 0.97974 0.65099 0.16048 0.0
H1316 H 0.93257 0.6917 0.12536 0.0
C1317 C 0.98759 0.66115 0.04696 0.0
C1318 C 0.59482 0.78793 0.34596 0.0
C1319 C 0.58951 0.81811 0.31742 0.0
H1320 H 0.58821 0.72602 0.36056 0.0
C1321 C 0.57522 0.8067 0.28006 0.0
H1322 H 0.60586 0.79499 0.37503 0.0
C1323 C 0.56392 0.76764 0.27243 0.0
C1324 C 0.56694 0.73808 0.30159 0.0
H1325 H 0.57213 0.82815 0.25643 0.0
H1326 H 0.55179 0.76087 0.2437 0.0
C1327 C 0.58405 0.74838 0.33795 0.0
C1328 C 0.51104 0.29151 0.53628 0.0
C1329 C 0.54318 0.3157 0.54532 0.0
H1330 H 0.4494 0.28111 0.54197 0.0
C1331 C 0.53605 0.35163 0.56483 0.0
H1332 H 0.51576 0.26374 0.52103 0.0
C1333 C 0.49732 0.36295 0.57548 0.0
C1334 C 0.46475 0.33817 0.56759 0.0
H1335 H 0.56045 0.37094 0.57191 0.0
H1336 H 0.49317 0.39132 0.58963 0.0
C1337 C 0.47263 0.30207 0.54791 0.0
C1338 C 0.14159 0.7593 0.71869 0.0
C1339 C 0.14627 0.76033 0.67734 0.0
H1340 H 0.11357 0.78516 0.76972 0.0
C1341 C 0.12484 0.78935 0.65609 0.0
H1342 H 0.15783 0.73782 0.73625 0.0
C1343 C 0.10066 0.81697 0.67525 0.0
C1344 C 0.09565 0.81596 0.71637 0.0
H1345 H 0.12673 0.79098 0.62426 0.0
H1346 H 0.08558 0.83916 0.6575 0.0
C1347 C 0.11661 0.78683 0.73797 0.0
C1348 C 0.50989 0.83797 0.95391 0.0
C1349 C 0.49949 0.8198 0.98981 0.0
H1350 H 0.55655 0.86042 0.9173 0.0
C1351 C 0.5288 0.81548 0.01889 0.0
H1352 H 0.48773 0.84272 0.9313 0.0
C1353 C 0.56793 0.82649 1.01138 0.0
C1354 C 0.57931 0.84193 0.97437 0.0
H1355 H 0.52183 0.80228 0.0472 0.0
H1356 H 0.58949 0.82207 0.03461 0.0
C1357 C 0.54935 0.84865 0.94613 0.0
C1358 C 1.01436 0.15214 0.45157 0.0
C1359 C 0.99873 0.16702 0.4158 0.0
H1360 H 0.0568 0.15939 0.49841 0.0
C1361 C 1.01422 0.20286 0.40125 0.0
H1362 H 1.00353 0.12459 0.46378 0.0
C1363 C 0.04521 0.22209 0.42036 0.0
C1364 C 0.06147 0.20718 0.45572 0.0
H1365 H 1.00262 0.21621 0.37453 0.0
H1366 H 0.05648 0.24886 0.40691 0.0
C1367 C 0.04525 0.17199 0.47131 0.0
loop_
_geom_bond_atom_site_label_1
_geom_bond_atom_site_label_2
_geom_bond_distance
_geom_bond_site_symmetry_2
_ccdc_geom_bond_type
Tb0 N29 2.617 . S
Tb0 N35 2.572 . S
Tb0 O44 2.465 . S
Tb0 O45 2.387 . S
Tb0 O47 2.428 . S
Tb0 O48 2.308 . S
Tb0 O52 2.349 . S
Tb0 O55 2.393 . S
Tb0 C64 2.802 . S
C1 N2 1.379 . S
C1 C4 1.416 1_455 S
C1 C8 1.424 . S
N2 C1 1.379 . S
N2 C5 1.334 . S
N2 Tb11 2.617 . S
C3 C5 1.390 1_655 S
C3 C6 1.339 . S
C3 H23 0.930 . S
C4 C1 1.416 1_655 S
C4 C6 1.416 . S
C4 C10 1.448 . S
C5 N2 1.334 . S
C5 C3 1.390 1_455 S
C5 H16 0.930 . S
C6 C3 1.339 . S
C6 C4 1.416 . S
C6 H27 0.930 . S
C7 C8 1.413 . S
C7 C9 1.427 1_455 S
C7 C13 1.416 . S
C8 C1 1.424 . S
C8 C7 1.413 . S
C8 N12 1.361 . S
C9 C7 1.427 1_655 S
C9 C10 1.328 . S
C9 H24 0.929 . S
C10 C4 1.448 . S
C10 C9 1.328 . S
C10 H25 0.930 . S
Tb11 N2 2.617 . S
Tb11 N12 2.572 . S
Tb11 O46 2.349 . S
Tb11 O49 2.393 . S
Tb11 O50 2.465 . S
Tb11 O51 2.387 . S
Tb11 O53 2.428 . S
Tb11 O54 2.308 . S
Tb11 C75 2.802 . S
N12 C8 1.361 . S
N12 Tb11 2.572 . S
N12 C14 1.340 . S
C13 C7 1.416 . S
C13 C15 1.332 . S
C13 H21 0.931 . S
C14 N12 1.340 . S
C14 C15 1.407 . S
C14 H20 0.930 . S
C15 C13 1.332 . S
C15 C14 1.407 . S
C15 H17 0.929 . S
H16 C5 0.930 . S
H17 C15 0.929 . S
H18 C33 0.930 . S
H19 C40 0.929 . S
H20 C14 0.930 . S
H21 C13 0.931 . S
H22 C36 0.930 . S
H23 C3 0.930 . S
H24 C9 0.929 . S
H25 C10 0.930 . S
H26 C31 0.930 . S
H27 C6 0.930 . S
H28 C39 0.931 . S
N29 Tb0 2.617 . S
N29 C30 1.379 . S
N29 C33 1.334 . S
C30 N29 1.379 . S
C30 C32 1.416 . S
C30 C38 1.424 . S
C31 H26 0.930 . S
C31 C33 1.390 . S
C31 C34 1.339 . S
C32 C30 1.416 . S
C32 C34 1.416 . S
C32 C65 1.448 . S
C33 H18 0.930 . S
C33 N29 1.334 . S
C33 C31 1.390 . S
C34 C31 1.339 . S
C34 C32 1.416 . S
C34 H41 0.930 . S
N35 Tb0 2.572 . S
N35 C36 1.340 . S
N35 C38 1.361 . S
C36 H22 0.930 . S
C36 N35 1.340 . S
C36 C40 1.407 . S
C37 C38 1.413 . S
C37 C39 1.416 . S
C37 C66 1.427 . S
C38 C30 1.424 . S
C38 N35 1.361 . S
C38 C37 1.413 . S
C39 H28 0.931 . S
C39 C37 1.416 . S
C39 C40 1.332 . S
C40 H19 0.929 . S
C40 C36 1.407 . S
C40 C39 1.332 . S
H41 C34 0.930 . S
H42 C65 0.930 . S
H43 C66 0.929 . S
O44 Tb0 2.465 . S
O44 C64 1.264 . S
O45 Tb0 2.387 . S
O45 C56 1.264 . S
O46 Tb11 2.349 . S
O46 C56 1.243 . S
O47 Tb0 2.428 . S
O47 C64 1.256 . S
O48 Tb0 2.308 . S
O48 C63 1.266 . S
O49 Tb11 2.393 . S
O49 C63 1.248 . S
O50 Tb11 2.465 . S
O50 C75 1.264 . S
O51 Tb11 2.387 . S
O51 C67 1.264 . S
O52 Tb0 2.349 . S
O52 C67 1.243 . S
O53 Tb11 2.428 . S
O53 C75 1.256 . S
O54 Tb11 2.308 . S
O54 C74 1.266 . S
O55 Tb0 2.393 . S
O55 C74 1.248 . S
C56 O45 1.264 . S
C56 O46 1.243 . S
C57 C60 1.399 . S
C57 C62 1.383 . S
C57 C64 1.496 . S
C58 C59 1.399 . S
C58 C62 1.389 . S
C59 C58 1.399 . S
C59 C61 1.380 . S
C59 H76 0.929 . S
C60 C57 1.399 . S
C60 C61 1.392 . S
C60 H77 0.929 . S
C61 C59 1.380 . S
C61 C60 1.392 . S
C61 H78 0.929 . S
C62 C57 1.383 . S
C62 C58 1.389 . S
C62 H79 0.931 . S
C63 O48 1.266 . S
C63 O49 1.248 . S
C64 Tb0 2.802 . S
C64 O44 1.264 . S
C64 O47 1.256 . S
C64 C57 1.496 . S
C65 C32 1.448 . S
C65 H42 0.930 . S
C65 C66 1.328 . S
C66 C37 1.427 . S
C66 H43 0.929 . S
C66 C65 1.328 . S
C67 O51 1.264 . S
C67 O52 1.243 . S
C68 C71 1.399 . S
C68 C72 1.383 . S
C68 C75 1.496 . S
C69 C70 1.399 . S
C69 C72 1.389 . S
C70 C69 1.399 . S
C70 C73 1.380 . S
C70 H80 0.929 . S
C71 C68 1.399 . S
C71 C73 1.392 . S
C71 H81 0.929 . S
C72 C68 1.383 . S
C72 C69 1.389 . S
C72 H82 0.931 . S
C73 C70 1.380 . S
C73 C71 1.392 . S
C73 H83 0.929 . S
C74 O54 1.266 . S
C74 O55 1.248 . S
C75 Tb11 2.802 . S
C75 O50 1.264 . S
C75 O53 1.256 . S
C75 C68 1.496 . S
H76 C59 0.929 . S
H77 C60 0.929 . S
H78 C61 0.929 . S
H79 C62 0.931 . S
H80 C70 0.929 . S
H81 C71 0.929 . S
H82 C72 0.931 . S
H83 C73 0.929 . S
Tb84 N113 2.617 . S
Tb84 N119 2.572 . S
Tb84 O128 2.465 . S
Tb84 O129 2.387 . S
Tb84 O131 2.428 . S
Tb84 O132 2.308 . S
Tb84 O136 2.349 . S
Tb84 O139 2.393 1_455 S
Tb84 C148 2.802 . S
C85 N86 1.379 . S
C85 C88 1.416 . S
C85 C92 1.424 . S
N86 C85 1.379 . S
N86 C89 1.334 . S
N86 Tb95 2.617 . S
C87 C89 1.390 . S
C87 C90 1.339 . S
C87 H107 0.930 . S
C88 C85 1.416 . S
C88 C90 1.416 . S
C88 C94 1.448 . S
C89 N86 1.334 . S
C89 C87 1.390 . S
C89 H100 0.919 1_655 S
C90 C87 1.339 . S
C90 C88 1.416 . S
C90 H111 0.930 . S
C91 C92 1.413 . S
C91 C93 1.427 . S
C91 C97 1.416 . S
C92 C85 1.424 . S
C92 C91 1.413 . S
C92 N96 1.361 . S
C93 C91 1.427 . S
C93 C94 1.328 . S
C93 H108 0.929 . S
C94 C88 1.448 . S
C94 C93 1.328 . S
C94 H109 0.930 . S
Tb95 N86 2.617 . S
Tb95 N96 2.572 . S
Tb95 O130 2.349 1_655 S
Tb95 O133 2.393 1_655 S
Tb95 O134 2.465 . S
Tb95 O135 2.387 . S
Tb95 O137 2.428 . S
Tb95 O138 2.308 . S
Tb95 C159 2.802 . S
N96 C92 1.361 . S
N96 Tb95 2.572 . S
N96 C98 1.340 . S
C97 C91 1.416 . S
C97 C99 1.332 . S
C97 H105 0.931 . S
C98 N96 1.340 . S
C98 C99 1.407 . S
C98 H104 0.930 . S
C99 C97 1.332 . S
C99 C98 1.407 . S
C99 H101 0.929 . S
H100 C89 0.919 1_455 S
H101 C99 0.929 . S
H102 C117 0.930 . S
H103 C124 0.929 . S
H104 C98 0.930 . S
H105 C97 0.931 . S
H106 C120 0.930 . S
H107 C87 0.930 . S
H108 C93 0.929 . S
H109 C94 0.930 . S
H110 C115 0.930 . S
H111 C90 0.930 . S
H112 C123 0.931 . S
N113 Tb84 2.617 . S
N113 C114 1.379 . S
N113 C117 1.334 . S
C114 N113 1.379 . S
C114 C116 1.416 1_565 S
C114 C122 1.424 . S
C115 H110 0.930 . S
C115 C117 1.390 1_545 S
C115 C118 1.339 . S
C116 C114 1.416 1_545 S
C116 C118 1.416 . S
C116 C149 1.448 . S
C117 H102 0.930 . S
C117 N113 1.334 . S
C117 C115 1.390 1_565 S
C118 C115 1.339 . S
C118 C116 1.416 . S
C118 H125 0.930 . S
N119 Tb84 2.572 . S
N119 C120 1.340 . S
N119 C122 1.361 . S
C120 H106 0.930 . S
C120 N119 1.340 . S
C120 C124 1.407 . S
C121 C122 1.413 . S
C121 C123 1.416 . S
C121 C150 1.427 1_565 S
C122 C114 1.424 . S
C122 N119 1.361 . S
C122 C121 1.413 . S
C123 H112 0.931 . S
C123 C121 1.416 . S
C123 C124 1.332 . S
C124 H103 0.929 . S
C124 C120 1.407 . S
C124 C123 1.332 . S
H125 C118 0.930 . S
H126 C149 0.930 . S
H127 C150 0.929 . S
O128 Tb84 2.465 . S
O128 C148 1.264 . S
O129 Tb84 2.387 . S
O129 C140 1.264 . S
O130 Tb95 2.349 1_455 S
O130 C140 1.243 . S
O131 Tb84 2.428 . S
O131 C148 1.256 . S
O132 Tb84 2.308 . S
O132 C147 1.266 . S
O133 Tb95 2.393 1_455 S
O133 C147 1.248 . S
O134 Tb95 2.465 . S
O134 C159 1.264 . S
O135 Tb95 2.387 . S
O135 C151 1.264 . S
O136 Tb84 2.349 . S
O136 C151 1.243 1_455 S
O137 Tb95 2.428 . S
O137 C159 1.256 . S
O138 Tb95 2.308 . S
O138 C158 1.266 . S
O139 Tb84 2.393 1_655 S
O139 C158 1.248 . S
C140 O129 1.264 . S
C140 O130 1.243 . S
C141 C144 1.399 . S
C141 C146 1.383 . S
C141 C148 1.496 . S
C142 C143 1.399 . S
C142 C146 1.389 . S
C143 C142 1.399 . S
C143 C145 1.380 . S
C143 H160 0.929 . S
C144 C141 1.399 . S
C144 C145 1.392 . S
C144 H161 0.929 . S
C145 C143 1.380 . S
C145 C144 1.392 . S
C145 H162 0.929 . S
C146 C141 1.383 . S
C146 C142 1.389 . S
C146 H163 0.931 . S
C147 O132 1.266 . S
C147 O133 1.248 . S
C148 Tb84 2.802 . S
C148 O128 1.264 . S
C148 O131 1.256 . S
C148 C141 1.496 . S
C149 C116 1.448 . S
C149 H126 0.930 . S
C149 C150 1.328 . S
C150 C121 1.427 1_545 S
C150 H127 0.929 . S
C150 C149 1.328 . S
C151 O135 1.264 . S
C151 O136 1.243 1_655 S
C152 C155 1.399 . S
C152 C156 1.383 . S
C152 C159 1.496 . S
C153 C154 1.399 . S
C153 C156 1.389 . S
C154 C153 1.399 . S
C154 C157 1.380 . S
C154 H164 0.929 . S
C155 C152 1.399 . S
C155 C157 1.392 . S
C155 H165 0.929 . S
C156 C152 1.383 . S
C156 C153 1.389 . S
C156 H166 0.931 . S
C157 C154 1.380 . S
C157 C155 1.392 . S
C157 H167 0.929 . S
C158 O138 1.266 . S
C158 O139 1.248 . S
C159 Tb95 2.802 . S
C159 O134 1.264 . S
C159 O137 1.256 . S
C159 C152 1.496 . S
H160 C143 0.929 . S
H161 C144 0.929 . S
H162 C145 0.929 . S
H163 C146 0.931 . S
H164 C154 0.929 . S
H165 C155 0.929 . S
H166 C156 0.931 . S
H167 C157 0.929 . S
Tb168 N197 2.617 . S
Tb168 N203 2.572 . S
Tb168 O212 2.465 . S
Tb168 O213 2.387 . S
Tb168 O215 2.428 . S
Tb168 O216 2.308 . S
Tb168 O220 2.349 . S
Tb168 O223 2.393 1_556 S
Tb168 C232 2.802 . S
C169 N170 1.379 . S
C169 C172 1.416 . S
C169 C176 1.424 . S
N170 C169 1.379 . S
N170 C173 1.334 . S
N170 Tb179 2.617 . S
C171 C173 1.390 . S
C171 C174 1.339 . S
C171 H191 0.930 . S
C172 C169 1.416 . S
C172 C174 1.416 . S
C172 C178 1.448 . S
C173 N170 1.334 . S
C173 C171 1.390 . S
C173 H184 0.930 1_554 S
C174 C171 1.339 . S
C174 C172 1.416 . S
C174 H195 0.930 . S
C175 C176 1.413 . S
C175 C177 1.427 . S
C175 C181 1.416 . S
C176 C169 1.424 . S
C176 C175 1.413 . S
C176 N180 1.361 . S
C177 C175 1.427 . S
C177 C178 1.328 . S
C177 H192 0.929 . S
C178 C172 1.448 . S
C178 C177 1.328 . S
C178 H193 0.930 . S
Tb179 N170 2.617 . S
Tb179 N180 2.572 . S
Tb179 O214 2.349 1_554 S
Tb179 O217 2.393 1_554 S
Tb179 O218 2.465 . S
Tb179 O219 2.387 . S
Tb179 O221 2.428 . S
Tb179 O222 2.308 . S
Tb179 C243 2.802 . S
N180 C176 1.361 . S
N180 Tb179 2.572 . S
N180 C182 1.340 . S
C181 C175 1.416 . S
C181 C183 1.332 . S
C181 H189 0.931 . S
C182 N180 1.340 . S
C182 C183 1.407 . S
C182 H188 0.930 . S
C183 C181 1.332 . S
C183 C182 1.407 . S
C183 H185 0.929 . S
H184 C173 0.930 1_556 S
H185 C183 0.929 . S
H186 C201 0.930 . S
H187 C208 0.929 . S
H188 C182 0.930 . S
H189 C181 0.931 . S
H190 C204 0.930 . S
H191 C171 0.930 . S
H192 C177 0.929 . S
H193 C178 0.930 . S
H194 C199 0.930 . S
H195 C174 0.930 . S
H196 C207 0.931 . S
N197 Tb168 2.617 . S
N197 C198 1.379 . S
N197 C201 1.334 . S
C198 N197 1.379 . S
C198 C200 1.416 . S
C198 C206 1.424 . S
C199 H194 0.930 . S
C199 C201 1.390 . S
C199 C202 1.339 . S
C200 C198 1.416 . S
C200 C202 1.416 . S
C200 C233 1.448 . S
C201 H186 0.930 . S
C201 N197 1.334 . S
C201 C199 1.390 . S
C202 C199 1.339 . S
C202 C200 1.416 . S
C202 H209 0.930 . S
N203 Tb168 2.572 . S
N203 C204 1.340 . S
N203 C206 1.361 . S
C204 H190 0.930 . S
C204 N203 1.340 . S
C204 C208 1.407 . S
C205 C206 1.413 . S
C205 C207 1.416 . S
C205 C234 1.427 . S
C206 C198 1.424 . S
C206 N203 1.361 . S
C206 C205 1.413 . S
C207 H196 0.931 . S
C207 C205 1.416 . S
C207 C208 1.332 . S
C208 H187 0.929 . S
C208 C204 1.407 . S
C208 C207 1.332 . S
H209 C202 0.930 . S
H210 C233 0.930 . S
H211 C234 0.929 . S
O212 Tb168 2.465 . S
O212 C232 1.264 . S
O213 Tb168 2.387 . S
O213 C224 1.264 . S
O214 Tb179 2.349 1_556 S
O214 C224 1.243 . S
O215 Tb168 2.428 . S
O215 C232 1.256 . S
O216 Tb168 2.308 . S
O216 C231 1.266 . S
O217 Tb179 2.393 1_556 S
O217 C231 1.248 . S
O218 Tb179 2.465 . S
O218 C243 1.264 . S
O219 Tb179 2.387 . S
O219 C235 1.264 . S
O220 Tb168 2.349 . S
O220 C235 1.243 1_556 S
O221 Tb179 2.428 . S
O221 C243 1.256 . S
O222 Tb179 2.308 . S
O222 C242 1.266 . S
O223 Tb168 2.393 1_554 S
O223 C242 1.248 . S
C224 O213 1.264 . S
C224 O214 1.243 . S
C225 C228 1.399 . S
C225 C230 1.383 . S
C225 C232 1.496 . S
C226 C227 1.399 . S
C226 C230 1.389 . S
C227 C226 1.399 . S
C227 C229 1.380 . S
C227 H244 0.929 . S
C228 C225 1.399 . S
C228 C229 1.392 . S
C228 H245 0.929 . S
C229 C227 1.380 . S
C229 C228 1.392 . S
C229 H246 0.929 . S
C230 C225 1.383 . S
C230 C226 1.389 . S
C230 H247 0.931 . S
C231 O216 1.266 . S
C231 O217 1.248 . S
C232 Tb168 2.802 . S
C232 O212 1.264 . S
C232 O215 1.256 . S
C232 C225 1.496 . S
C233 C200 1.448 . S
C233 H210 0.930 . S
C233 C234 1.328 . S
C234 C205 1.427 . S
C234 H211 0.929 . S
C234 C233 1.328 . S
C235 O219 1.264 . S
C235 O220 1.243 1_554 S
C236 C239 1.399 . S
C236 C240 1.383 . S
C236 C243 1.496 . S
C237 C238 1.399 . S
C237 C240 1.389 . S
C238 C237 1.399 . S
C238 C241 1.380 . S
C238 H248 0.929 . S
C239 C236 1.399 . S
C239 C241 1.392 . S
C239 H249 0.929 . S
C240 C236 1.383 . S
C240 C237 1.389 . S
C240 H250 0.931 . S
C241 C238 1.380 . S
C241 C239 1.392 . S
C241 H251 0.929 . S
C242 O222 1.266 . S
C242 O223 1.248 . S
C243 Tb179 2.802 . S
C243 O218 1.264 . S
C243 O221 1.256 . S
C243 C236 1.496 . S
H244 C227 0.929 . S
H245 C228 0.929 . S
H246 C229 0.929 . S
H247 C230 0.931 . S
H248 C238 0.929 . S
H249 C239 0.929 . S
H250 C240 0.931 . S
H251 C241 0.929 . S
Tb252 N281 2.617 . S
Tb252 N287 2.572 . S
Tb252 O296 2.465 . S
Tb252 O297 2.387 . S
Tb252 O299 2.428 . S
Tb252 O300 2.308 . S
Tb252 O304 2.349 . S
Tb252 O307 2.393 . S
Tb252 C316 2.802 . S
C253 N254 1.379 . S
C253 C256 1.416 . S
C253 C260 1.424 . S
N254 C253 1.379 . S
N254 C257 1.334 . S
N254 Tb263 2.617 . S
C255 C257 1.390 . S
C255 C258 1.339 . S
C255 H275 0.930 . S
C256 C253 1.416 . S
C256 C258 1.416 . S
C256 C262 1.448 . S
C257 N254 1.334 . S
C257 C255 1.390 . S
C257 H268 0.930 . S
C258 C255 1.339 . S
C258 C256 1.416 . S
C258 H279 0.930 . S
C259 C260 1.413 . S
C259 C261 1.427 . S
C259 C265 1.416 . S
C260 C253 1.424 . S
C260 C259 1.413 . S
C260 N264 1.361 . S
C261 C259 1.427 . S
C261 C262 1.328 . S
C261 H276 0.929 . S
C262 C256 1.448 . S
C262 C261 1.328 . S
C262 H277 0.930 . S
Tb263 N254 2.617 . S
Tb263 N264 2.572 . S
Tb263 O298 2.349 . S
Tb263 O301 2.393 . S
Tb263 O302 2.465 . S
Tb263 O303 2.387 . S
Tb263 O305 2.428 . S
Tb263 O306 2.308 . S
Tb263 C327 2.802 . S
N264 C260 1.361 . S
N264 Tb263 2.572 . S
N264 C266 1.340 . S
C265 C259 1.416 . S
C265 C267 1.332 . S
C265 H273 0.931 . S
C266 N264 1.340 . S
C266 C267 1.407 . S
C266 H272 0.930 . S
C267 C265 1.332 . S
C267 C266 1.407 . S
C267 H269 0.929 . S
H268 C257 0.930 . S
H269 C267 0.929 . S
H270 C285 0.930 . S
H271 C292 0.929 . S
H272 C266 0.930 . S
H273 C265 0.931 . S
H274 C288 0.930 . S
H275 C255 0.930 . S
H276 C261 0.929 . S
H277 C262 0.930 . S
H278 C283 0.930 . S
H279 C258 0.930 . S
H280 C291 0.931 . S
N281 Tb252 2.617 . S
N281 C282 1.379 . S
N281 C285 1.334 . S
C282 N281 1.379 . S
C282 C284 1.416 1_545 S
C282 C290 1.424 . S
C283 H278 0.930 . S
C283 C285 1.390 1_565 S
C283 C286 1.339 . S
C284 C282 1.416 1_565 S
C284 C286 1.416 . S
C284 C317 1.448 . S
C285 H270 0.930 . S
C285 N281 1.334 . S
C285 C283 1.390 1_545 S
C286 C283 1.339 . S
C286 C284 1.416 . S
C286 H293 0.930 . S
N287 Tb252 2.572 . S
N287 C288 1.340 . S
N287 C290 1.361 . S
C288 H274 0.930 . S
C288 N287 1.340 . S
C288 C292 1.407 . S
C289 C290 1.413 . S
C289 C291 1.416 . S
C289 C318 1.427 1_545 S
C290 C282 1.424 . S
C290 N287 1.361 . S
C290 C289 1.413 . S
C291 H280 0.931 . S
C291 C289 1.416 . S
C291 C292 1.332 . S
C292 H271 0.929 . S
C292 C288 1.407 . S
C292 C291 1.332 . S
H293 C286 0.930 . S
H294 C317 0.930 . S
H295 C318 0.929 . S
O296 Tb252 2.465 . S
O296 C316 1.264 . S
O297 Tb252 2.387 . S
O297 C308 1.264 . S
O298 Tb263 2.349 . S
O298 C308 1.243 . S
O299 Tb252 2.428 . S
O299 C316 1.256 . S
O300 Tb252 2.308 . S
O300 C315 1.266 . S
O301 Tb263 2.393 . S
O301 C315 1.248 . S
O302 Tb263 2.465 . S
O302 C327 1.264 . S
O303 Tb263 2.387 . S
O303 C319 1.264 . S
O304 Tb252 2.349 . S
O304 C319 1.243 . S
O305 Tb263 2.428 . S
O305 C327 1.256 . S
O306 Tb263 2.308 . S
O306 C326 1.266 . S
O307 Tb252 2.393 . S
O307 C326 1.248 . S
C308 O297 1.264 . S
C308 O298 1.243 . S
C309 C312 1.399 . S
C309 C314 1.383 . S
C309 C316 1.496 . S
C310 C311 1.399 . S
C310 C314 1.389 . S
C311 C310 1.399 . S
C311 C313 1.380 . S
C311 H328 0.929 . S
C312 C309 1.399 . S
C312 C313 1.392 . S
C312 H329 0.929 . S
C313 C311 1.380 . S
C313 C312 1.392 . S
C313 H330 0.929 . S
C314 C309 1.383 . S
C314 C310 1.389 . S
C314 H331 0.931 . S
C315 O300 1.266 . S
C315 O301 1.248 . S
C316 Tb252 2.802 . S
C316 O296 1.264 . S
C316 O299 1.256 . S
C316 C309 1.496 . S
C317 C284 1.448 . S
C317 H294 0.930 . S
C317 C318 1.328 . S
C318 C289 1.427 1_565 S
C318 H295 0.929 . S
C318 C317 1.328 . S
C319 O303 1.264 . S
C319 O304 1.243 . S
C320 C323 1.399 . S
C320 C324 1.383 . S
C320 C327 1.496 . S
C321 C322 1.399 . S
C321 C324 1.389 . S
C322 C321 1.399 . S
C322 C325 1.380 . S
C322 H332 0.929 . S
C323 C320 1.399 . S
C323 C325 1.392 . S
C323 H333 0.929 . S
C324 C320 1.383 . S
C324 C321 1.389 . S
C324 H334 0.931 . S
C325 C322 1.380 . S
C325 C323 1.392 . S
C325 H335 0.929 . S
C326 O306 1.266 . S
C326 O307 1.248 . S
C327 Tb263 2.802 . S
C327 O302 1.264 . S
C327 O305 1.256 . S
C327 C320 1.496 . S
H328 C311 0.929 . S
H329 C312 0.929 . S
H330 C313 0.929 . S
H331 C314 0.931 . S
H332 C322 0.929 . S
H333 C323 0.929 . S
H334 C324 0.931 . S
H335 C325 0.929 . S
Tb336 N365 2.617 . S
Tb336 N371 2.572 . S
Tb336 O380 2.465 . S
Tb336 O381 2.387 . S
Tb336 O383 2.428 . S
Tb336 O384 2.308 . S
Tb336 O388 2.349 . S
Tb336 O391 2.393 . S
Tb336 C400 2.802 . S
C337 N338 1.379 . S
C337 C340 1.416 . S
C337 C344 1.424 . S
N338 C337 1.379 . S
N338 C341 1.334 . S
N338 Tb347 2.617 . S
C339 C341 1.390 . S
C339 C342 1.339 . S
C339 H359 0.930 . S
C340 C337 1.416 . S
C340 C342 1.416 . S
C340 C346 1.448 . S
C341 N338 1.334 . S
C341 C339 1.390 . S
C341 H352 0.930 . S
C342 C339 1.339 . S
C342 C340 1.416 . S
C342 H363 0.930 . S
C343 C344 1.413 . S
C343 C345 1.427 . S
C343 C349 1.416 . S
C344 C337 1.424 . S
C344 C343 1.413 . S
C344 N348 1.361 . S
C345 C343 1.427 . S
C345 C346 1.328 . S
C345 H360 0.929 . S
C346 C340 1.448 . S
C346 C345 1.328 . S
C346 H361 0.930 . S
Tb347 N338 2.617 . S
Tb347 N348 2.572 . S
Tb347 O382 2.349 . S
Tb347 O385 2.393 . S
Tb347 O386 2.465 . S
Tb347 O387 2.387 . S
Tb347 O389 2.428 . S
Tb347 O390 2.308 . S
Tb347 C411 2.802 . S
N348 C344 1.361 . S
N348 Tb347 2.572 . S
N348 C350 1.340 . S
C349 C343 1.416 . S
C349 C351 1.332 . S
C349 H357 0.931 . S
C350 N348 1.340 . S
C350 C351 1.407 . S
C350 H356 0.930 . S
C351 C349 1.332 . S
C351 C350 1.407 . S
C351 H353 0.929 . S
H352 C341 0.930 . S
H353 C351 0.929 . S
H354 C369 0.930 . S
H355 C376 0.929 . S
H356 C350 0.930 . S
H357 C349 0.931 . S
H358 C372 0.930 . S
H359 C339 0.930 . S
H360 C345 0.929 . S
H361 C346 0.930 . S
H362 C367 0.930 . S
H363 C342 0.930 . S
H364 C375 0.931 . S
N365 Tb336 2.617 . S
N365 C366 1.379 . S
N365 C369 1.334 . S
C366 N365 1.379 . S
C366 C368 1.416 . S
C366 C374 1.424 . S
C367 H362 0.930 . S
C367 C369 1.390 . S
C367 C370 1.339 . S
C368 C366 1.416 . S
C368 C370 1.416 . S
C368 C401 1.448 . S
C369 H354 0.930 . S
C369 N365 1.334 . S
C369 C367 1.390 . S
C370 C367 1.339 . S
C370 C368 1.416 . S
C370 H377 0.930 . S
N371 Tb336 2.572 . S
N371 C372 1.340 . S
N371 C374 1.361 . S
C372 H358 0.930 . S
C372 N371 1.340 . S
C372 C376 1.407 . S
C373 C374 1.413 . S
C373 C375 1.416 . S
C373 C402 1.427 . S
C374 C366 1.424 . S
C374 N371 1.361 . S
C374 C373 1.413 . S
C375 H364 0.931 . S
C375 C373 1.416 . S
C375 C376 1.332 . S
C376 H355 0.929 . S
C376 C372 1.407 . S
C376 C375 1.332 . S
H377 C370 0.930 . S
H378 C401 0.930 . S
H379 C402 0.929 . S
O380 Tb336 2.465 . S
O380 C400 1.264 . S
O381 Tb336 2.387 . S
O381 C392 1.264 . S
O382 Tb347 2.349 . S
O382 C392 1.243 . S
O383 Tb336 2.428 . S
O383 C400 1.256 . S
O384 Tb336 2.308 . S
O384 C399 1.266 . S
O385 Tb347 2.393 . S
O385 C399 1.248 . S
O386 Tb347 2.465 . S
O386 C411 1.264 . S
O387 Tb347 2.387 . S
O387 C403 1.264 . S
O388 Tb336 2.349 . S
O388 C403 1.243 . S
O389 Tb347 2.428 . S
O389 C411 1.256 . S
O390 Tb347 2.308 . S
O390 C410 1.266 . S
O391 Tb336 2.393 . S
O391 C410 1.248 . S
C392 O381 1.264 . S
C392 O382 1.243 . S
C393 C396 1.399 . S
C393 C398 1.383 . S
C393 C400 1.496 . S
C394 C395 1.399 . S
C394 C398 1.389 . S
C395 C394 1.399 . S
C395 C397 1.380 . S
C395 H412 0.929 . S
C396 C393 1.399 . S
C396 C397 1.392 . S
C396 H413 0.929 . S
C397 C395 1.380 . S
C397 C396 1.392 . S
C397 H414 0.929 . S
C398 C393 1.383 . S
C398 C394 1.389 . S
C398 H415 0.931 . S
C399 O384 1.266 . S
C399 O385 1.248 . S
C400 Tb336 2.802 . S
C400 O380 1.264 . S
C400 O383 1.256 . S
C400 C393 1.496 . S
C401 C368 1.448 . S
C401 H378 0.930 . S
C401 C402 1.328 . S
C402 C373 1.427 . S
C402 H379 0.929 . S
C402 C401 1.328 . S
C403 O387 1.264 . S
C403 O388 1.243 . S
C404 C407 1.399 . S
C404 C408 1.383 . S
C404 C411 1.496 . S
C405 C406 1.399 . S
C405 C408 1.389 . S
C406 C405 1.399 . S
C406 C409 1.380 . S
C406 H416 0.929 . S
C407 C404 1.399 . S
C407 C409 1.392 . S
C407 H417 0.929 . S
C408 C404 1.383 . S
C408 C405 1.389 . S
C408 H418 0.931 . S
C409 C406 1.380 . S
C409 C407 1.392 . S
C409 H419 0.929 . S
C410 O390 1.266 . S
C410 O391 1.248 . S
C411 Tb347 2.802 . S
C411 O386 1.264 . S
C411 O389 1.256 . S
C411 C404 1.496 . S
H412 C395 0.929 . S
H413 C396 0.929 . S
H414 C397 0.929 . S
H415 C398 0.931 . S
H416 C406 0.929 . S
H417 C407 0.929 . S
H418 C408 0.931 . S
H419 C409 0.929 . S
Tb420 N449 2.617 . S
Tb420 N455 2.572 . S
Tb420 O464 2.465 . S
Tb420 O465 2.387 1_455 S
Tb420 O467 2.428 . S
Tb420 O468 2.308 1_455 S
Tb420 O472 2.349 . S
Tb420 O475 2.393 . S
Tb420 C484 2.802 . S
C421 N422 1.379 . S
C421 C424 1.416 . S
C421 C428 1.424 . S
N422 C421 1.379 . S
N422 C425 1.334 . S
N422 Tb431 2.617 . S
C423 C425 1.390 . S
C423 C426 1.339 . S
C423 H443 0.930 . S
C424 C421 1.416 . S
C424 C426 1.416 . S
C424 C430 1.448 . S
C425 N422 1.334 . S
C425 C423 1.390 . S
C425 H436 0.930 . S
C426 C423 1.339 . S
C426 C424 1.416 . S
C426 H447 0.930 . S
C427 C428 1.413 . S
C427 C429 1.427 . S
C427 C433 1.416 1_655 S
C428 C421 1.424 . S
C428 C427 1.413 . S
C428 N432 1.361 . S
C429 C427 1.427 . S
C429 C430 1.328 . S
C429 H444 0.929 . S
C430 C424 1.448 . S
C430 C429 1.328 . S
C430 H445 0.930 . S
Tb431 N422 2.617 . S
Tb431 N432 2.572 . S
Tb431 O466 2.349 . S
Tb431 O469 2.393 . S
Tb431 O470 2.465 . S
Tb431 O471 2.387 1_655 S
Tb431 O473 2.428 . S
Tb431 O474 2.304 1_655 S
Tb431 C495 2.802 . S
N432 C428 1.361 . S
N432 Tb431 2.572 . S
N432 C434 1.340 . S
C433 C427 1.416 1_455 S
C433 C435 1.332 . S
C433 H441 0.931 . S
C434 N432 1.340 . S
C434 C435 1.407 1_655 S
C434 H440 0.930 . S
C435 C433 1.332 . S
C435 C434 1.407 1_455 S
C435 H437 0.929 . S
H436 C425 0.930 . S
H437 C435 0.929 . S
H438 C453 0.930 . S
H439 C460 0.929 . S
H440 C434 0.930 . S
H441 C433 0.931 . S
H442 C456 0.930 . S
H443 C423 0.930 . S
H444 C429 0.929 . S
H445 C430 0.930 . S
H446 C451 0.930 . S
H447 C426 0.930 . S
H448 C459 0.931 . S
N449 Tb420 2.617 . S
N449 C450 1.379 . S
N449 C453 1.334 . S
C450 N449 1.379 . S
C450 C452 1.416 . S
C450 C458 1.424 . S
C451 H446 0.930 . S
C451 C453 1.390 . S
C451 C454 1.339 . S
C452 C450 1.416 . S
C452 C454 1.416 . S
C452 C485 1.448 . S
C453 H438 0.930 . S
C453 N449 1.334 . S
C453 C451 1.390 . S
C454 C451 1.339 . S
C454 C452 1.416 . S
C454 H461 0.930 . S
N455 Tb420 2.572 . S
N455 C456 1.340 1_455 S
N455 C458 1.361 . S
C456 H442 0.930 . S
C456 N455 1.340 1_655 S
C456 C460 1.407 . S
C457 C458 1.413 . S
C457 C459 1.416 1_455 S
C457 C486 1.427 . S
C458 C450 1.424 . S
C458 N455 1.361 . S
C458 C457 1.413 . S
C459 H448 0.931 . S
C459 C457 1.416 1_655 S
C459 C460 1.332 . S
C460 H439 0.929 . S
C460 C456 1.407 . S
C460 C459 1.332 . S
H461 C454 0.930 . S
H462 C485 0.930 . S
H463 C486 0.929 1_655 S
O464 Tb420 2.465 . S
O464 C484 1.264 . S
O465 Tb420 2.387 1_655 S
O465 C476 1.264 . S
O466 Tb431 2.349 . S
O466 C476 1.243 . S
O467 Tb420 2.428 . S
O467 C484 1.256 . S
O468 Tb420 2.308 1_655 S
O468 C483 1.266 . S
O469 Tb431 2.393 . S
O469 C483 1.248 . S
O470 Tb431 2.465 . S
O470 C495 1.264 . S
O471 Tb431 2.387 1_455 S
O471 C487 1.264 . S
O472 Tb420 2.349 . S
O472 C487 1.243 . S
O473 Tb431 2.428 . S
O473 C495 1.256 . S
O474 Tb431 2.304 1_455 S
O474 C494 1.270 . S
O475 Tb420 2.393 . S
O475 C494 1.248 . S
C476 O465 1.264 . S
C476 O466 1.243 . S
C477 C480 1.399 . S
C477 C482 1.383 . S
C477 C484 1.496 . S
C478 C479 1.399 . S
C478 C482 1.389 . S
C479 C478 1.399 . S
C479 C481 1.380 . S
C479 H496 0.929 . S
C480 C477 1.399 . S
C480 C481 1.392 . S
C480 H497 0.929 . S
C481 C479 1.380 . S
C481 C480 1.392 . S
C481 H498 0.929 . S
C482 C477 1.383 . S
C482 C478 1.389 . S
C482 H499 0.931 . S
C483 O468 1.266 . S
C483 O469 1.248 . S
C484 Tb420 2.802 . S
C484 O464 1.264 . S
C484 O467 1.256 . S
C484 C477 1.496 . S
C485 C452 1.448 . S
C485 H462 0.930 . S
C485 C486 1.328 . S
C486 C457 1.427 . S
C486 H463 0.929 1_455 S
C486 C485 1.328 . S
C487 O471 1.264 . S
C487 O472 1.243 . S
C488 C491 1.399 . S
C488 C492 1.383 . S
C488 C495 1.496 . S
C489 C490 1.399 . S
C489 C492 1.389 . S
C490 C489 1.399 . S
C490 C493 1.380 . S
C490 H500 0.929 . S
C491 C488 1.399 . S
C491 C493 1.392 . S
C491 H501 0.929 . S
C492 C488 1.383 . S
C492 C489 1.389 . S
C492 H502 0.931 . S
C493 C490 1.380 . S
C493 C491 1.392 . S
C493 H503 0.929 . S
C494 O474 1.270 . S
C494 O475 1.248 . S
C495 Tb431 2.802 . S
C495 O470 1.264 . S
C495 O473 1.256 . S
C495 C488 1.496 . S
H496 C479 0.929 . S
H497 C480 0.929 . S
H498 C481 0.929 . S
H499 C482 0.931 . S
H500 C490 0.929 . S
H501 C491 0.929 . S
H502 C492 0.931 . S
H503 C493 0.929 . S
Tb504 N533 2.617 . S
Tb504 N539 2.572 . S
Tb504 O548 2.465 . S
Tb504 O549 2.387 1_556 S
Tb504 O551 2.428 . S
Tb504 O552 2.308 1_556 S
Tb504 O556 2.349 . S
Tb504 O559 2.393 . S
Tb504 C568 2.802 . S
C505 N506 1.379 . S
C505 C508 1.416 1_655 S
C505 C512 1.424 . S
N506 C505 1.379 . S
N506 C509 1.334 . S
N506 Tb515 2.617 . S
C507 C509 1.390 1_455 S
C507 C510 1.339 . S
C507 H527 0.930 . S
C508 C505 1.416 1_455 S
C508 C510 1.416 . S
C508 C514 1.448 . S
C509 N506 1.334 . S
C509 C507 1.390 1_655 S
C509 H520 0.930 . S
C510 C507 1.339 . S
C510 C508 1.416 . S
C510 H531 0.930 . S
C511 C512 1.413 . S
C511 C513 1.427 1_655 S
C511 C517 1.416 1_554 S
C512 C505 1.424 . S
C512 C511 1.413 . S
C512 N516 1.361 . S
C513 C511 1.427 1_455 S
C513 C514 1.328 . S
C513 H528 0.929 . S
C514 C508 1.448 . S
C514 C513 1.328 . S
C514 H529 0.930 . S
Tb515 N506 2.617 . S
Tb515 N516 2.572 . S
Tb515 O550 2.349 . S
Tb515 O553 2.393 . S
Tb515 O554 2.465 . S
Tb515 O555 2.387 1_554 S
Tb515 O557 2.428 . S
Tb515 O558 2.308 1_554 S
Tb515 C579 2.802 . S
N516 C512 1.361 . S
N516 Tb515 2.572 . S
N516 C518 1.340 . S
C517 C511 1.416 1_556 S
C517 C519 1.332 . S
C517 H525 0.931 . S
C518 N516 1.340 . S
C518 C519 1.407 1_554 S
C518 H524 0.930 . S
C519 C517 1.332 . S
C519 C518 1.407 1_556 S
C519 H521 0.929 . S
H520 C509 0.930 . S
H521 C519 0.929 . S
H522 C537 0.930 . S
H523 C544 0.929 . S
H524 C518 0.930 . S
H525 C517 0.931 . S
H526 C540 0.930 . S
H527 C507 0.930 . S
H528 C513 0.929 . S
H529 C514 0.930 . S
H530 C535 0.930 . S
H531 C510 0.930 . S
H532 C543 0.931 . S
N533 Tb504 2.617 . S
N533 C534 1.379 . S
N533 C537 1.334 . S
C534 N533 1.379 . S
C534 C536 1.416 . S
C534 C542 1.424 . S
C535 H530 0.930 . S
C535 C537 1.390 . S
C535 C538 1.339 . S
C536 C534 1.416 . S
C536 C538 1.416 . S
C536 C569 1.448 . S
C537 H522 0.930 . S
C537 N533 1.334 . S
C537 C535 1.390 . S
C538 C535 1.339 . S
C538 C536 1.416 . S
C538 H545 0.930 . S
N539 Tb504 2.572 . S
N539 C540 1.340 1_556 S
N539 C542 1.361 . S
C540 H526 0.930 . S
C540 N539 1.340 1_554 S
C540 C544 1.407 . S
C541 C542 1.413 . S
C541 C543 1.416 1_556 S
C541 C570 1.427 . S
C542 C534 1.424 . S
C542 N539 1.361 . S
C542 C541 1.413 . S
C543 H532 0.931 . S
C543 C541 1.416 1_554 S
C543 C544 1.332 . S
C544 H523 0.929 . S
C544 C540 1.407 . S
C544 C543 1.332 . S
H545 C538 0.930 . S
H546 C569 0.930 . S
H547 C570 0.929 . S
O548 Tb504 2.465 . S
O548 C568 1.264 . S
O549 Tb504 2.387 1_554 S
O549 C560 1.264 . S
O550 Tb515 2.349 . S
O550 C560 1.243 . S
O551 Tb504 2.428 . S
O551 C568 1.256 . S
O552 Tb504 2.308 1_554 S
O552 C567 1.266 . S
O553 Tb515 2.393 . S
O553 C567 1.248 . S
O554 Tb515 2.465 . S
O554 C579 1.264 . S
O555 Tb515 2.387 1_556 S
O555 C571 1.264 . S
O556 Tb504 2.349 . S
O556 C571 1.243 . S
O557 Tb515 2.428 . S
O557 C579 1.256 . S
O558 Tb515 2.308 1_556 S
O558 C578 1.266 . S
O559 Tb504 2.393 . S
O559 C578 1.248 . S
C560 O549 1.264 . S
C560 O550 1.243 . S
C561 C564 1.399 . S
C561 C566 1.383 . S
C561 C568 1.496 . S
C562 C563 1.399 . S
C562 C566 1.389 . S
C563 C562 1.399 . S
C563 C565 1.380 . S
C563 H580 0.929 . S
C564 C561 1.399 . S
C564 C565 1.392 . S
C564 H581 0.929 . S
C565 C563 1.380 . S
C565 C564 1.392 . S
C565 H582 0.929 . S
C566 C561 1.383 . S
C566 C562 1.389 . S
C566 H583 0.931 . S
C567 O552 1.266 . S
C567 O553 1.248 . S
C568 Tb504 2.802 . S
C568 O548 1.264 . S
C568 O551 1.256 . S
C568 C561 1.496 . S
C569 C536 1.448 . S
C569 H546 0.930 . S
C569 C570 1.328 . S
C570 C541 1.427 . S
C570 H547 0.929 . S
C570 C569 1.328 . S
C571 O555 1.264 . S
C571 O556 1.243 . S
C572 C575 1.399 . S
C572 C576 1.383 . S
C572 C579 1.496 . S
C573 C574 1.399 . S
C573 C576 1.389 . S
C574 C573 1.399 . S
C574 C577 1.380 . S
C574 H584 0.929 . S
C575 C572 1.399 . S
C575 C577 1.392 . S
C575 H585 0.929 . S
C576 C572 1.383 . S
C576 C573 1.389 . S
C576 H586 0.931 . S
C577 C574 1.380 . S
C577 C575 1.392 . S
C577 H587 0.929 . S
C578 O558 1.266 . S
C578 O559 1.248 . S
C579 Tb515 2.802 . S
C579 O554 1.264 . S
C579 O557 1.256 . S
C579 C572 1.496 . S
H580 C563 0.929 . S
H581 C564 0.929 . S
H582 C565 0.929 . S
H583 C566 0.931 . S
H584 C574 0.929 . S
H585 C575 0.929 . S
H586 C576 0.931 . S
H587 C577 0.929 . S
Tb588 N617 2.617 . S
Tb588 N623 2.572 . S
Tb588 O632 2.465 . S
Tb588 O633 2.387 . S
Tb588 O635 2.428 . S
Tb588 O636 2.308 . S
Tb588 O640 2.349 . S
Tb588 O643 2.393 . S
Tb588 C652 2.802 . S
C589 N590 1.379 . S
C589 C592 1.416 . S
C589 C596 1.424 . S
N590 C589 1.379 . S
N590 C593 1.334 . S
N590 Tb599 2.617 . S
C591 C593 1.390 . S
C591 C594 1.339 . S
C591 H611 0.930 . S
C592 C589 1.416 . S
C592 C594 1.416 . S
C592 C598 1.448 . S
C593 N590 1.334 . S
C593 C591 1.390 . S
C593 H604 0.930 . S
C594 C591 1.339 . S
C594 C592 1.416 . S
C594 H615 0.930 . S
C595 C596 1.413 . S
C595 C597 1.427 . S
C595 C601 1.416 . S
C596 C589 1.424 . S
C596 C595 1.413 . S
C596 N600 1.361 . S
C597 C595 1.427 . S
C597 C598 1.328 . S
C597 H612 0.929 . S
C598 C592 1.448 . S
C598 C597 1.328 . S
C598 H613 0.930 . S
Tb599 N590 2.617 . S
Tb599 N600 2.572 . S
Tb599 O634 2.349 . S
Tb599 O637 2.393 . S
Tb599 O638 2.465 . S
Tb599 O639 2.387 . S
Tb599 O641 2.428 . S
Tb599 O642 2.308 . S
Tb599 C663 2.802 . S
N600 C596 1.361 . S
N600 Tb599 2.572 . S
N600 C602 1.340 . S
C601 C595 1.416 . S
C601 C603 1.332 . S
C601 H609 0.931 . S
C602 N600 1.340 . S
C602 C603 1.407 . S
C602 H608 0.930 . S
C603 C601 1.332 . S
C603 C602 1.407 . S
C603 H605 0.929 . S
H604 C593 0.930 . S
H605 C603 0.929 . S
H606 C621 0.930 . S
H607 C628 0.929 . S
H608 C602 0.930 . S
H609 C601 0.931 . S
H610 C624 0.930 . S
H611 C591 0.930 . S
H612 C597 0.929 . S
H613 C598 0.930 . S
H614 C619 0.930 . S
H615 C594 0.930 . S
H616 C627 0.931 . S
N617 Tb588 2.617 . S
N617 C618 1.379 . S
N617 C621 1.334 . S
C618 N617 1.379 . S
C618 C620 1.416 . S
C618 C626 1.424 . S
C619 H614 0.930 . S
C619 C621 1.390 . S
C619 C622 1.339 . S
C620 C618 1.416 . S
C620 C622 1.416 . S
C620 C653 1.448 . S
C621 H606 0.930 . S
C621 N617 1.334 . S
C621 C619 1.390 . S
C622 C619 1.339 . S
C622 C620 1.416 . S
C622 H629 0.930 . S
N623 Tb588 2.572 . S
N623 C624 1.340 . S
N623 C626 1.361 . S
C624 H610 0.930 . S
C624 N623 1.340 . S
C624 C628 1.407 . S
C625 C626 1.413 . S
C625 C627 1.416 . S
C625 C654 1.427 . S
C626 C618 1.424 . S
C626 N623 1.361 . S
C626 C625 1.413 . S
C627 H616 0.931 . S
C627 C625 1.416 . S
C627 C628 1.332 . S
C628 H607 0.929 . S
C628 C624 1.407 . S
C628 C627 1.332 . S
H629 C622 0.930 . S
H630 C653 0.930 . S
H631 C654 0.929 . S
O632 Tb588 2.465 . S
O632 C652 1.264 . S
O633 Tb588 2.387 . S
O633 C644 1.264 . S
O634 Tb599 2.349 . S
O634 C644 1.243 . S
O635 Tb588 2.428 . S
O635 C652 1.256 . S
O636 Tb588 2.308 . S
O636 C651 1.266 . S
O637 Tb599 2.393 . S
O637 C651 1.248 . S
O638 Tb599 2.465 . S
O638 C663 1.264 . S
O639 Tb599 2.387 . S
O639 C655 1.264 . S
O640 Tb588 2.349 . S
O640 C655 1.243 . S
O641 Tb599 2.428 . S
O641 C663 1.256 . S
O642 Tb599 2.308 . S
O642 C662 1.266 . S
O643 Tb588 2.393 . S
O643 C662 1.248 . S
C644 O633 1.264 . S
C644 O634 1.243 . S
C645 C648 1.399 . S
C645 C650 1.383 . S
C645 C652 1.496 . S
C646 C647 1.399 . S
C646 C650 1.389 . S
C647 C646 1.399 . S
C647 C649 1.380 . S
C647 H664 0.929 . S
C648 C645 1.399 . S
C648 C649 1.392 . S
C648 H665 0.929 . S
C649 C647 1.380 . S
C649 C648 1.392 . S
C649 H666 0.929 . S
C650 C645 1.383 . S
C650 C646 1.389 . S
C650 H667 0.931 . S
C651 O636 1.266 . S
C651 O637 1.248 . S
C652 Tb588 2.802 . S
C652 O632 1.264 . S
C652 O635 1.256 . S
C652 C645 1.496 . S
C653 C620 1.448 . S
C653 H630 0.930 . S
C653 C654 1.328 . S
C654 C625 1.427 . S
C654 H631 0.929 . S
C654 C653 1.328 . S
C655 O639 1.264 . S
C655 O640 1.243 . S
C656 C659 1.399 . S
C656 C660 1.383 . S
C656 C663 1.496 . S
C657 C658 1.399 . S
C657 C660 1.389 . S
C658 C657 1.399 . S
C658 C661 1.380 . S
C658 H668 0.929 . S
C659 C656 1.399 . S
C659 C661 1.392 . S
C659 H669 0.929 . S
C660 C656 1.383 . S
C660 C657 1.389 . S
C660 H670 0.931 . S
C661 C658 1.380 . S
C661 C659 1.392 . S
C661 H671 0.929 . S
C662 O642 1.266 . S
C662 O643 1.248 . S
C663 Tb599 2.802 . S
C663 O638 1.264 . S
C663 O641 1.256 . S
C663 C656 1.496 . S
H664 C647 0.929 . S
H665 C648 0.929 . S
H666 C649 0.929 . S
H667 C650 0.931 . S
H668 C658 0.929 . S
H669 C659 0.929 . S
H670 C660 0.931 . S
H671 C661 0.929 . S
Tb672 N701 2.617 . S
Tb672 N707 2.572 . S
Tb672 O716 2.465 . S
Tb672 O717 2.387 . S
Tb672 O719 2.428 . S
Tb672 O720 2.308 . S
Tb672 O724 2.349 . S
Tb672 O727 2.393 . S
Tb672 C736 2.802 . S
C673 N674 1.379 . S
C673 C676 1.416 . S
C673 C680 1.424 . S
N674 C673 1.379 . S
N674 C677 1.334 . S
N674 Tb683 2.617 . S
C675 C677 1.390 . S
C675 C678 1.339 . S
C675 H695 0.930 . S
C676 C673 1.416 . S
C676 C678 1.416 . S
C676 C682 1.448 . S
C677 N674 1.334 . S
C677 C675 1.390 . S
C677 H688 0.930 . S
C678 C675 1.339 . S
C678 C676 1.416 . S
C678 H699 0.930 . S
C679 C680 1.413 . S
C679 C681 1.427 . S
C679 C685 1.416 . S
C680 C673 1.424 . S
C680 C679 1.413 . S
C680 N684 1.361 . S
C681 C679 1.427 . S
C681 C682 1.328 . S
C681 H696 0.929 . S
C682 C676 1.448 . S
C682 C681 1.328 . S
C682 H697 0.930 . S
Tb683 N674 2.617 . S
Tb683 N684 2.572 . S
Tb683 O718 2.349 . S
Tb683 O721 2.393 . S
Tb683 O722 2.465 . S
Tb683 O723 2.387 . S
Tb683 O725 2.428 . S
Tb683 O726 2.308 . S
Tb683 C747 2.802 . S
N684 C680 1.361 . S
N684 Tb683 2.572 . S
N684 C686 1.340 . S
C685 C679 1.416 . S
C685 C687 1.332 . S
C685 H693 0.931 . S
C686 N684 1.340 . S
C686 C687 1.407 . S
C686 H692 0.930 . S
C687 C685 1.332 . S
C687 C686 1.407 . S
C687 H689 0.929 . S
H688 C677 0.930 . S
H689 C687 0.929 . S
H690 C705 0.930 . S
H691 C712 0.929 . S
H692 C686 0.930 . S
H693 C685 0.931 . S
H694 C708 0.930 . S
H695 C675 0.930 . S
H696 C681 0.929 . S
H697 C682 0.930 . S
H698 C703 0.930 . S
H699 C678 0.930 . S
H700 C711 0.931 . S
N701 Tb672 2.617 . S
N701 C702 1.379 . S
N701 C705 1.334 . S
C702 N701 1.379 . S
C702 C704 1.416 1_554 S
C702 C710 1.424 . S
C703 H698 0.930 . S
C703 C705 1.390 1_556 S
C703 C706 1.339 . S
C704 C702 1.416 1_556 S
C704 C706 1.416 . S
C704 C737 1.448 . S
C705 H690 0.930 . S
C705 N701 1.334 . S
C705 C703 1.390 1_554 S
C706 C703 1.339 . S
C706 C704 1.416 . S
C706 H713 0.930 . S
N707 Tb672 2.572 . S
N707 C708 1.340 . S
N707 C710 1.361 . S
C708 H694 0.930 . S
C708 N707 1.340 . S
C708 C712 1.407 . S
C709 C710 1.413 . S
C709 C711 1.416 . S
C709 C738 1.427 1_554 S
C710 C702 1.424 . S
C710 N707 1.361 . S
C710 C709 1.413 . S
C711 H700 0.931 . S
C711 C709 1.416 . S
C711 C712 1.332 . S
C712 H691 0.929 . S
C712 C708 1.407 . S
C712 C711 1.332 . S
H713 C706 0.930 . S
H714 C737 0.930 . S
H715 C738 0.929 . S
O716 Tb672 2.465 . S
O716 C736 1.264 . S
O717 Tb672 2.387 . S
O717 C728 1.264 . S
O718 Tb683 2.349 . S
O718 C728 1.243 . S
O719 Tb672 2.428 . S
O719 C736 1.256 . S
O720 Tb672 2.308 . S
O720 C735 1.266 . S
O721 Tb683 2.393 . S
O721 C735 1.248 . S
O722 Tb683 2.465 . S
O722 C747 1.264 . S
O723 Tb683 2.387 . S
O723 C739 1.264 . S
O724 Tb672 2.349 . S
O724 C739 1.243 . S
O725 Tb683 2.428 . S
O725 C747 1.256 . S
O726 Tb683 2.308 . S
O726 C746 1.266 . S
O727 Tb672 2.393 . S
O727 C746 1.248 . S
C728 O717 1.264 . S
C728 O718 1.243 . S
C729 C732 1.399 . S
C729 C734 1.383 . S
C729 C736 1.496 . S
C730 C731 1.399 . S
C730 C734 1.389 . S
C731 C730 1.399 . S
C731 C733 1.380 . S
C731 H748 0.929 . S
C732 C729 1.399 . S
C732 C733 1.392 . S
C732 H749 0.929 . S
C733 C731 1.380 . S
C733 C732 1.392 . S
C733 H750 0.929 . S
C734 C729 1.383 . S
C734 C730 1.389 . S
C734 H751 0.931 . S
C735 O720 1.266 . S
C735 O721 1.248 . S
C736 Tb672 2.802 . S
C736 O716 1.264 . S
C736 O719 1.256 . S
C736 C729 1.496 . S
C737 C704 1.448 . S
C737 H714 0.930 . S
C737 C738 1.328 . S
C738 C709 1.427 1_556 S
C738 H715 0.929 . S
C738 C737 1.328 . S
C739 O723 1.264 . S
C739 O724 1.243 . S
C740 C743 1.399 . S
C740 C744 1.383 . S
C740 C747 1.496 . S
C741 C742 1.399 . S
C741 C744 1.389 . S
C742 C741 1.399 . S
C742 C745 1.380 . S
C742 H752 0.929 . S
C743 C740 1.399 . S
C743 C745 1.392 . S
C743 H753 0.929 . S
C744 C740 1.383 . S
C744 C741 1.389 . S
C744 H754 0.931 . S
C745 C742 1.380 . S
C745 C743 1.392 . S
C745 H755 0.929 . S
C746 O726 1.266 . S
C746 O727 1.248 . S
C747 Tb683 2.802 . S
C747 O722 1.264 . S
C747 O725 1.256 . S
C747 C740 1.496 . S
H748 C731 0.929 . S
H749 C732 0.929 . S
H750 C733 0.929 . S
H751 C734 0.931 . S
H752 C742 0.929 . S
H753 C743 0.929 . S
H754 C744 0.931 . S
H755 C745 0.929 . S
Tb756 N785 2.617 . S
Tb756 N791 2.572 . S
Tb756 O800 2.465 . S
Tb756 O801 2.387 1_565 S
Tb756 O803 2.428 . S
Tb756 O804 2.308 1_565 S
Tb756 O808 2.349 . S
Tb756 O811 2.393 . S
Tb756 C820 2.802 . S
C757 N758 1.379 . S
C757 C760 1.416 1_556 S
C757 C764 1.424 . S
N758 C757 1.379 . S
N758 C761 1.334 . S
N758 Tb767 2.617 . S
C759 C761 1.390 1_554 S
C759 C762 1.339 . S
C759 H779 0.930 . S
C760 C757 1.416 1_554 S
C760 C762 1.416 . S
C760 C766 1.448 . S
C761 N758 1.334 . S
C761 C759 1.390 1_556 S
C761 H772 0.930 . S
C762 C759 1.339 . S
C762 C760 1.416 . S
C762 H783 0.930 . S
C763 C764 1.413 . S
C763 C765 1.427 1_556 S
C763 C769 1.416 1_545 S
C764 C757 1.424 . S
C764 C763 1.413 . S
C764 N768 1.361 . S
C765 C763 1.427 1_554 S
C765 C766 1.328 . S
C765 H780 0.929 . S
C766 C760 1.448 . S
C766 C765 1.328 . S
C766 H781 0.930 . S
Tb767 N758 2.617 . S
Tb767 N768 2.572 . S
Tb767 O802 2.349 . S
Tb767 O805 2.393 . S
Tb767 O806 2.465 . S
Tb767 O807 2.387 1_545 S
Tb767 O809 2.428 . S
Tb767 O810 2.308 1_545 S
Tb767 C831 2.802 . S
N768 C764 1.361 . S
N768 Tb767 2.572 . S
N768 C770 1.340 . S
C769 C763 1.416 1_565 S
C769 C771 1.332 . S
C769 H777 0.931 . S
C770 N768 1.340 . S
C770 C771 1.407 1_545 S
C770 H776 0.930 . S
C771 C769 1.332 . S
C771 C770 1.407 1_565 S
C771 H773 0.929 . S
H772 C761 0.930 . S
H773 C771 0.929 . S
H774 C789 0.930 . S
H775 C796 0.929 . S
H776 C770 0.930 . S
H777 C769 0.931 . S
H778 C792 0.930 . S
H779 C759 0.930 . S
H780 C765 0.929 . S
H781 C766 0.930 . S
H782 C787 0.930 . S
H783 C762 0.930 . S
H784 C795 0.931 . S
N785 Tb756 2.617 . S
N785 C786 1.379 . S
N785 C789 1.334 . S
C786 N785 1.379 . S
C786 C788 1.416 . S
C786 C794 1.424 . S
C787 H782 0.930 . S
C787 C789 1.390 . S
C787 C790 1.339 . S
C788 C786 1.416 . S
C788 C790 1.416 . S
C788 C821 1.448 . S
C789 H774 0.930 . S
C789 N785 1.334 . S
C789 C787 1.390 . S
C790 C787 1.339 . S
C790 C788 1.416 . S
C790 H797 0.930 . S
N791 Tb756 2.572 . S
N791 C792 1.340 1_565 S
N791 C794 1.361 . S
C792 H778 0.930 . S
C792 N791 1.340 1_545 S
C792 C796 1.407 . S
C793 C794 1.413 . S
C793 C795 1.416 1_565 S
C793 C822 1.427 . S
C794 C786 1.424 . S
C794 N791 1.361 . S
C794 C793 1.413 . S
C795 H784 0.931 . S
C795 C793 1.416 1_545 S
C795 C796 1.332 . S
C796 H775 0.929 . S
C796 C792 1.407 . S
C796 C795 1.332 . S
H797 C790 0.930 . S
H798 C821 0.930 . S
H799 C822 0.929 . S
O800 Tb756 2.465 . S
O800 C820 1.264 . S
O801 Tb756 2.387 1_545 S
O801 C812 1.264 . S
O802 Tb767 2.349 . S
O802 C812 1.243 . S
O803 Tb756 2.428 . S
O803 C820 1.256 . S
O804 Tb756 2.308 1_545 S
O804 C819 1.266 . S
O805 Tb767 2.393 . S
O805 C819 1.248 . S
O806 Tb767 2.465 . S
O806 C831 1.264 . S
O807 Tb767 2.387 1_565 S
O807 C823 1.264 . S
O808 Tb756 2.349 . S
O808 C823 1.243 . S
O809 Tb767 2.428 . S
O809 C831 1.256 . S
O810 Tb767 2.308 1_565 S
O810 C830 1.266 . S
O811 Tb756 2.393 . S
O811 C830 1.248 . S
C812 O801 1.264 . S
C812 O802 1.243 . S
C813 C816 1.399 . S
C813 C818 1.383 . S
C813 C820 1.496 . S
C814 C815 1.399 . S
C814 C818 1.389 . S
C815 C814 1.399 . S
C815 C817 1.380 . S
C815 H832 0.929 . S
C816 C813 1.399 . S
C816 C817 1.392 . S
C816 H833 0.929 . S
C817 C815 1.380 . S
C817 C816 1.392 . S
C817 H834 0.929 . S
C818 C813 1.383 . S
C818 C814 1.389 . S
C818 H835 0.931 . S
C819 O804 1.266 . S
C819 O805 1.248 . S
C820 Tb756 2.802 . S
C820 O800 1.264 . S
C820 O803 1.256 . S
C820 C813 1.496 . S
C821 C788 1.448 . S
C821 H798 0.930 . S
C821 C822 1.328 . S
C822 C793 1.427 . S
C822 H799 0.929 . S
C822 C821 1.328 . S
C823 O807 1.264 . S
C823 O808 1.243 . S
C824 C827 1.399 . S
C824 C828 1.383 . S
C824 C831 1.496 . S
C825 C826 1.399 . S
C825 C828 1.389 . S
C826 C825 1.399 . S
C826 C829 1.380 . S
C826 H836 0.929 . S
C827 C824 1.399 . S
C827 C829 1.392 . S
C827 H837 0.929 . S
C828 C824 1.383 . S
C828 C825 1.389 . S
C828 H838 0.931 . S
C829 C826 1.380 . S
C829 C827 1.392 . S
C829 H839 0.929 . S
C830 O810 1.266 . S
C830 O811 1.248 . S
C831 Tb767 2.802 . S
C831 O806 1.264 . S
C831 O809 1.256 . S
C831 C824 1.496 . S
H832 C815 0.929 . S
H833 C816 0.929 . S
H834 C817 0.929 . S
H835 C818 0.931 . S
H836 C826 0.929 . S
H837 C827 0.929 . S
H838 C828 0.931 . S
H839 C829 0.929 . S
Tb840 N869 2.617 . S
Tb840 N875 2.572 . S
Tb840 O884 2.465 . S
Tb840 O885 2.387 . S
Tb840 O887 2.428 . S
Tb840 O888 2.308 . S
Tb840 O892 2.349 . S
Tb840 O895 2.393 1_565 S
Tb840 C904 2.802 . S
C841 N842 1.379 . S
C841 C844 1.416 . S
C841 C848 1.424 . S
N842 C841 1.379 . S
N842 C845 1.334 . S
N842 Tb851 2.617 . S
C843 C845 1.390 . S
C843 C846 1.339 . S
C843 H863 0.930 . S
C844 C841 1.416 . S
C844 C846 1.416 . S
C844 C850 1.448 . S
C845 N842 1.334 . S
C845 C843 1.390 . S
C845 H856 0.928 . S
C846 C843 1.339 . S
C846 C844 1.416 . S
C846 H867 0.930 . S
C847 C848 1.413 . S
C847 C849 1.427 . S
C847 C853 1.416 . S
C848 C841 1.424 . S
C848 C847 1.413 . S
C848 N852 1.361 . S
C849 C847 1.427 . S
C849 C850 1.328 . S
C849 H864 0.929 . S
C850 C844 1.448 . S
C850 C849 1.328 . S
C850 H865 0.930 . S
Tb851 N842 2.617 . S
Tb851 N852 2.572 . S
Tb851 O886 2.349 1_545 S
Tb851 O889 2.393 1_545 S
Tb851 O890 2.465 . S
Tb851 O891 2.387 . S
Tb851 O893 2.428 . S
Tb851 O894 2.308 . S
Tb851 C915 2.802 . S
N852 C848 1.361 . S
N852 Tb851 2.572 . S
N852 C854 1.340 . S
C853 C847 1.416 . S
C853 C855 1.332 . S
C853 H861 0.931 . S
C854 N852 1.340 . S
C854 C855 1.407 . S
C854 H860 0.930 . S
C855 C853 1.332 . S
C855 C854 1.407 . S
C855 H857 0.929 . S
H856 C845 0.928 . S
H857 C855 0.929 . S
H858 C873 0.930 . S
H859 C880 0.929 . S
H860 C854 0.930 . S
H861 C853 0.931 . S
H862 C876 0.930 . S
H863 C843 0.930 . S
H864 C849 0.929 . S
H865 C850 0.930 . S
H866 C871 0.930 . S
H867 C846 0.930 . S
H868 C879 0.931 . S
N869 Tb840 2.617 . S
N869 C870 1.379 . S
N869 C873 1.334 . S
C870 N869 1.379 . S
C870 C872 1.416 . S
C870 C878 1.424 . S
C871 H866 0.930 . S
C871 C873 1.390 . S
C871 C874 1.339 . S
C872 C870 1.416 . S
C872 C874 1.416 . S
C872 C905 1.448 . S
C873 H858 0.930 . S
C873 N869 1.334 . S
C873 C871 1.390 . S
C874 C871 1.339 . S
C874 C872 1.416 . S
C874 H881 0.930 . S
N875 Tb840 2.572 . S
N875 C876 1.340 . S
N875 C878 1.361 . S
C876 H862 0.930 . S
C876 N875 1.340 . S
C876 C880 1.407 . S
C877 C878 1.413 . S
C877 C879 1.416 . S
C877 C906 1.427 . S
C878 C870 1.424 . S
C878 N875 1.361 . S
C878 C877 1.413 . S
C879 H868 0.931 . S
C879 C877 1.416 . S
C879 C880 1.332 . S
C880 H859 0.929 . S
C880 C876 1.407 . S
C880 C879 1.332 . S
H881 C874 0.930 . S
H882 C905 0.930 . S
H883 C906 0.929 . S
O884 Tb840 2.465 . S
O884 C904 1.264 . S
O885 Tb840 2.387 . S
O885 C896 1.264 . S
O886 Tb851 2.349 1_565 S
O886 C896 1.243 . S
O887 Tb840 2.428 . S
O887 C904 1.256 . S
O888 Tb840 2.308 . S
O888 C903 1.266 . S
O889 Tb851 2.393 1_565 S
O889 C903 1.248 . S
O890 Tb851 2.465 . S
O890 C915 1.264 . S
O891 Tb851 2.387 . S
O891 C907 1.264 . S
O892 Tb840 2.349 . S
O892 C907 1.243 1_565 S
O893 Tb851 2.428 . S
O893 C915 1.256 . S
O894 Tb851 2.308 . S
O894 C914 1.266 . S
O895 Tb840 2.393 1_545 S
O895 C914 1.248 . S
C896 O885 1.264 . S
C896 O886 1.243 . S
C897 C900 1.399 . S
C897 C902 1.383 . S
C897 C904 1.496 . S
C898 C899 1.399 . S
C898 C902 1.389 . S
C899 C898 1.399 . S
C899 C901 1.380 . S
C899 H916 0.929 . S
C900 C897 1.399 . S
C900 C901 1.392 . S
C900 H917 0.929 . S
C901 C899 1.380 . S
C901 C900 1.392 . S
C901 H918 0.929 . S
C902 C897 1.383 . S
C902 C898 1.389 . S
C902 H919 0.931 . S
C903 O888 1.266 . S
C903 O889 1.248 . S
C904 Tb840 2.802 . S
C904 O884 1.264 . S
C904 O887 1.256 . S
C904 C897 1.496 . S
C905 C872 1.448 . S
C905 H882 0.930 . S
C905 C906 1.328 . S
C906 C877 1.427 . S
C906 H883 0.929 . S
C906 C905 1.328 . S
C907 O891 1.264 . S
C907 O892 1.243 1_545 S
C908 C911 1.399 . S
C908 C912 1.383 . S
C908 C915 1.496 . S
C909 C910 1.399 . S
C909 C912 1.389 . S
C910 C909 1.399 . S
C910 C913 1.380 . S
C910 H920 0.929 . S
C911 C908 1.399 . S
C911 C913 1.392 . S
C911 H921 0.929 . S
C912 C908 1.383 . S
C912 C909 1.389 . S
C912 H922 0.931 . S
C913 C910 1.380 . S
C913 C911 1.392 . S
C913 H923 0.929 . S
C914 O894 1.266 . S
C914 O895 1.248 . S
C915 Tb851 2.802 . S
C915 O890 1.264 . S
C915 O893 1.256 . S
C915 C908 1.496 . S
H916 C899 0.929 . S
H917 C900 0.929 . S
H918 C901 0.929 . S
H919 C902 0.931 . S
H920 C910 0.929 . S
H921 C911 0.929 . S
H922 C912 0.931 . S
H923 C913 0.929 . S
Tb924 N953 2.617 . S
Tb924 N959 2.572 . S
Tb924 O968 2.465 . S
Tb924 O969 2.387 . S
Tb924 O971 2.428 . S
Tb924 O972 2.308 . S
Tb924 O976 2.349 . S
Tb924 O979 2.393 . S
Tb924 C988 2.802 . S
C925 N926 1.379 . S
C925 C928 1.416 . S
C925 C932 1.424 . S
N926 C925 1.379 . S
N926 C929 1.334 . S
N926 Tb935 2.617 . S
C927 C929 1.390 . S
C927 C930 1.339 . S
C927 H947 0.930 . S
C928 C925 1.416 . S
C928 C930 1.416 . S
C928 C934 1.448 . S
C929 N926 1.334 . S
C929 C927 1.390 . S
C929 H940 0.930 . S
C930 C927 1.339 . S
C930 C928 1.416 . S
C930 H951 0.930 . S
C931 C932 1.413 . S
C931 C933 1.427 . S
C931 C937 1.416 . S
C932 C925 1.424 . S
C932 C931 1.413 . S
C932 N936 1.361 . S
C933 C931 1.427 . S
C933 C934 1.328 . S
C933 H948 0.929 . S
C934 C928 1.448 . S
C934 C933 1.328 . S
C934 H949 0.930 . S
Tb935 N926 2.617 . S
Tb935 N936 2.572 . S
Tb935 O970 2.349 . S
Tb935 O973 2.393 . S
Tb935 O974 2.465 . S
Tb935 O975 2.387 . S
Tb935 O977 2.428 . S
Tb935 O978 2.308 . S
Tb935 C999 2.802 . S
N936 C932 1.361 . S
N936 Tb935 2.572 . S
N936 C938 1.340 . S
C937 C931 1.416 . S
C937 C939 1.332 . S
C937 H945 0.931 . S
C938 N936 1.340 . S
C938 C939 1.407 . S
C938 H944 0.930 . S
C939 C937 1.332 . S
C939 C938 1.407 . S
C939 H941 0.929 . S
H940 C929 0.930 . S
H941 C939 0.929 . S
H942 C957 0.930 . S
H943 C964 0.929 . S
H944 C938 0.930 . S
H945 C937 0.931 . S
H946 C960 0.930 . S
H947 C927 0.930 . S
H948 C933 0.929 . S
H949 C934 0.930 . S
H950 C955 0.930 . S
H951 C930 0.930 . S
H952 C963 0.931 . S
N953 Tb924 2.617 . S
N953 C954 1.379 . S
N953 C957 1.334 . S
C954 N953 1.379 . S
C954 C956 1.416 . S
C954 C962 1.424 . S
C955 H950 0.930 . S
C955 C957 1.390 . S
C955 C958 1.339 . S
C956 C954 1.416 . S
C956 C958 1.416 . S
C956 C989 1.448 . S
C957 H942 0.930 . S
C957 N953 1.334 . S
C957 C955 1.390 . S
C958 C955 1.339 . S
C958 C956 1.416 . S
C958 H965 0.930 . S
N959 Tb924 2.572 . S
N959 C960 1.340 . S
N959 C962 1.361 . S
C960 H946 0.930 . S
C960 N959 1.340 . S
C960 C964 1.407 . S
C961 C962 1.413 . S
C961 C963 1.416 . S
C961 C990 1.427 . S
C962 C954 1.424 . S
C962 N959 1.361 . S
C962 C961 1.413 . S
C963 H952 0.931 . S
C963 C961 1.416 . S
C963 C964 1.332 . S
C964 H943 0.929 . S
C964 C960 1.407 . S
C964 C963 1.332 . S
H965 C958 0.930 . S
H966 C989 0.930 . S
H967 C990 0.929 . S
O968 Tb924 2.465 . S
O968 C988 1.264 . S
O969 Tb924 2.387 . S
O969 C980 1.264 . S
O970 Tb935 2.349 . S
O970 C980 1.243 . S
O971 Tb924 2.428 . S
O971 C988 1.256 . S
O972 Tb924 2.308 . S
O972 C987 1.266 . S
O973 Tb935 2.393 . S
O973 C987 1.248 . S
O974 Tb935 2.465 . S
O974 C999 1.264 . S
O975 Tb935 2.387 . S
O975 C991 1.264 . S
O976 Tb924 2.349 . S
O976 C991 1.243 . S
O977 Tb935 2.428 . S
O977 C999 1.256 . S
O978 Tb935 2.308 . S
O978 C998 1.266 . S
O979 Tb924 2.393 . S
O979 C998 1.248 . S
C980 O969 1.264 . S
C980 O970 1.243 . S
C981 C984 1.399 . S
C981 C986 1.383 . S
C981 C988 1.496 . S
C982 C983 1.399 . S
C982 C986 1.389 . S
C983 C982 1.399 . S
C983 C985 1.380 . S
C983 H1000 0.929 . S
C984 C981 1.399 . S
C984 C985 1.392 . S
C984 H1001 0.929 . S
C985 C983 1.380 . S
C985 C984 1.392 . S
C985 H1002 0.929 . S
C986 C981 1.383 . S
C986 C982 1.389 . S
C986 H1003 0.931 . S
C987 O972 1.266 . S
C987 O973 1.248 . S
C988 Tb924 2.802 . S
C988 O968 1.264 . S
C988 O971 1.256 . S
C988 C981 1.496 . S
C989 C956 1.448 . S
C989 H966 0.930 . S
C989 C990 1.328 . S
C990 C961 1.427 . S
C990 H967 0.929 . S
C990 C989 1.328 . S
C991 O975 1.264 . S
C991 O976 1.243 . S
C992 C995 1.399 . S
C992 C996 1.383 . S
C992 C999 1.496 . S
C993 C994 1.399 . S
C993 C996 1.389 . S
C994 C993 1.399 . S
C994 C997 1.380 . S
C994 H1004 0.929 . S
C995 C992 1.399 . S
C995 C997 1.392 . S
C995 H1005 0.929 . S
C996 C992 1.383 . S
C996 C993 1.389 . S
C996 H1006 0.931 . S
C997 C994 1.380 . S
C997 C995 1.392 . S
C997 H1007 0.929 . S
C998 O978 1.266 . S
C998 O979 1.248 . S
C999 Tb935 2.802 . S
C999 O974 1.264 . S
C999 O977 1.256 . S
C999 C992 1.496 . S
H1000 C983 0.929 . S
H1001 C984 0.929 . S
H1002 C985 0.929 . S
H1003 C986 0.931 . S
H1004 C994 0.929 . S
H1005 C995 0.929 . S
H1006 C996 0.931 . S
H1007 C997 0.929 . S
C1008 C1009 1.387 . S
C1008 H1012 0.950 . S
C1008 C1017 1.390 . S
C1009 C1008 1.387 . S
C1009 C1011 1.387 . S
H1010 C1017 0.950 . S
C1011 C1009 1.387 . S
C1011 C1013 1.390 . S
C1011 H1015 0.950 . S
H1012 C1008 0.950 . S
C1013 C1011 1.390 . S
C1013 C1014 1.387 . S
C1013 H1016 0.950 . S
C1014 C1013 1.387 . S
C1014 C1017 1.387 . S
H1015 C1011 0.950 . S
H1016 C1013 0.950 . S
C1017 C1008 1.390 . S
C1017 H1010 0.950 . S
C1017 C1014 1.387 . S
C1018 C1019 1.387 . S
C1018 H1022 0.950 1_565 S
C1018 C1027 1.390 . S
C1019 C1018 1.387 . S
C1019 C1021 1.387 . S
H1020 C1027 0.933 1_545 S
C1021 C1019 1.387 . S
C1021 C1023 1.390 . S
C1021 H1025 0.950 . S
H1022 C1018 0.950 1_545 S
C1023 C1021 1.390 . S
C1023 C1024 1.387 . S
C1023 H1026 0.950 . S
C1024 C1023 1.387 . S
C1024 C1027 1.387 . S
H1025 C1021 0.950 . S
H1026 C1023 0.950 . S
C1027 C1018 1.390 . S
C1027 H1020 0.933 1_565 S
C1027 C1024 1.387 . S
C1028 C1029 1.387 . S
C1028 H1032 0.950 1_554 S
C1028 C1037 1.390 . S
C1029 C1028 1.387 . S
C1029 C1031 1.387 . S
H1030 C1037 0.950 1_556 S
C1031 C1029 1.387 . S
C1031 C1033 1.390 . S
C1031 H1035 0.950 . S
H1032 C1028 0.950 1_556 S
C1033 C1031 1.390 . S
C1033 C1034 1.387 . S
C1033 H1036 0.950 . S
C1034 C1033 1.387 . S
C1034 C1037 1.387 . S
H1035 C1031 0.950 . S
H1036 C1033 0.950 . S
C1037 C1028 1.390 . S
C1037 H1030 0.950 1_554 S
C1037 C1034 1.387 . S
C1038 C1039 1.387 . S
C1038 H1042 0.950 . S
C1038 C1047 1.390 . S
C1039 C1038 1.387 . S
C1039 C1041 1.387 . S
H1040 C1047 0.950 . S
C1041 C1039 1.387 . S
C1041 C1043 1.390 . S
C1041 H1045 0.950 1_545 S
H1042 C1038 0.950 . S
C1043 C1041 1.390 . S
C1043 C1044 1.387 . S
C1043 H1046 0.950 1_545 S
C1044 C1043 1.387 . S
C1044 C1047 1.387 . S
H1045 C1041 0.950 1_565 S
H1046 C1043 0.950 1_565 S
C1047 C1038 1.390 . S
C1047 H1040 0.950 . S
C1047 C1044 1.387 . S
C1048 C1049 1.387 . S
C1048 H1052 0.950 . S
C1048 C1057 1.390 . S
C1049 C1048 1.387 . S
C1049 C1051 1.387 . S
H1050 C1057 0.950 . S
C1051 C1049 1.387 . S
C1051 C1053 1.390 . S
C1051 H1055 0.950 . S
H1052 C1048 0.950 . S
C1053 C1051 1.390 . S
C1053 C1054 1.387 . S
C1053 H1056 0.950 . S
C1054 C1053 1.387 . S
C1054 C1057 1.387 . S
H1055 C1051 0.950 . S
H1056 C1053 0.950 . S
C1057 C1048 1.390 . S
C1057 H1050 0.950 . S
C1057 C1054 1.387 . S
C1058 C1059 1.387 . S
C1058 H1062 0.950 . S
C1058 C1067 1.390 . S
C1059 C1058 1.387 . S
C1059 C1061 1.387 . S
H1060 C1067 0.950 . S
C1061 C1059 1.387 . S
C1061 C1063 1.390 . S
C1061 H1065 0.950 . S
H1062 C1058 0.950 . S
C1063 C1061 1.390 . S
C1063 C1064 1.387 . S
C1063 H1066 0.950 . S
C1064 C1063 1.387 . S
C1064 C1067 1.387 . S
H1065 C1061 0.950 . S
H1066 C1063 0.950 . S
C1067 C1058 1.390 . S
C1067 H1060 0.950 . S
C1067 C1064 1.387 . S
C1068 C1069 1.387 . S
C1068 H1072 0.950 . S
C1068 C1077 1.390 . S
C1069 C1068 1.387 . S
C1069 C1071 1.387 . S
H1070 C1077 0.950 . S
C1071 C1069 1.387 . S
C1071 C1073 1.390 . S
C1071 H1075 0.950 . S
H1072 C1068 0.950 . S
C1073 C1071 1.390 . S
C1073 C1074 1.387 . S
C1073 H1076 0.950 . S
C1074 C1073 1.387 . S
C1074 C1077 1.387 . S
H1075 C1071 0.950 . S
H1076 C1073 0.950 . S
C1077 C1068 1.390 . S
C1077 H1070 0.950 . S
C1077 C1074 1.387 . S
C1078 C1079 1.387 . S
C1078 H1082 0.950 . S
C1078 C1087 1.390 . S
C1079 C1078 1.387 . S
C1079 C1081 1.387 . S
H1080 C1087 0.950 . S
C1081 C1079 1.387 . S
C1081 C1083 1.390 . S
C1081 H1085 0.950 . S
H1082 C1078 0.950 . S
C1083 C1081 1.390 . S
C1083 C1084 1.387 . S
C1083 H1086 0.950 . S
C1084 C1083 1.387 . S
C1084 C1087 1.387 . S
H1085 C1081 0.950 . S
H1086 C1083 0.950 . S
C1087 C1078 1.390 . S
C1087 H1080 0.950 . S
C1087 C1084 1.387 . S
C1088 C1089 1.387 . S
C1088 H1092 0.950 . S
C1088 C1097 1.390 . S
C1089 C1088 1.387 . S
C1089 C1091 1.387 . S
H1090 C1097 0.950 . S
C1091 C1089 1.387 . S
C1091 C1093 1.390 . S
C1091 H1095 0.950 . S
H1092 C1088 0.950 . S
C1093 C1091 1.390 . S
C1093 C1094 1.387 . S
C1093 H1096 0.950 . S
C1094 C1093 1.387 . S
C1094 C1097 1.387 . S
H1095 C1091 0.950 . S
H1096 C1093 0.950 . S
C1097 C1088 1.390 . S
C1097 H1090 0.950 . S
C1097 C1094 1.387 . S
C1098 C1099 1.387 . S
C1098 H1102 0.950 . S
C1098 C1107 1.390 . S
C1099 C1098 1.387 . S
C1099 C1101 1.387 . S
H1100 C1107 0.950 . S
C1101 C1099 1.387 . S
C1101 C1103 1.390 . S
C1101 H1105 0.950 . S
H1102 C1098 0.950 . S
C1103 C1101 1.390 . S
C1103 C1104 1.387 . S
C1103 H1106 0.950 . S
C1104 C1103 1.387 . S
C1104 C1107 1.387 . S
H1105 C1101 0.950 . S
H1106 C1103 0.950 . S
C1107 C1098 1.390 . S
C1107 H1100 0.950 . S
C1107 C1104 1.387 . S
C1108 C1109 1.387 . S
C1108 H1112 0.950 . S
C1108 C1117 1.390 . S
C1109 C1108 1.387 . S
C1109 C1111 1.387 . S
H1110 C1117 0.950 . S
C1111 C1109 1.387 . S
C1111 C1113 1.390 . S
C1111 H1115 0.950 . S
H1112 C1108 0.950 . S
C1113 C1111 1.390 . S
C1113 C1114 1.387 . S
C1113 H1116 0.950 . S
C1114 C1113 1.387 . S
C1114 C1117 1.387 . S
H1115 C1111 0.950 . S
H1116 C1113 0.950 . S
C1117 C1108 1.390 . S
C1117 H1110 0.950 . S
C1117 C1114 1.387 . S
C1118 C1119 1.387 . S
C1118 H1122 0.950 . S
C1118 C1127 1.390 . S
C1119 C1118 1.387 . S
C1119 C1121 1.387 . S
H1120 C1127 0.950 . S
C1121 C1119 1.387 . S
C1121 C1123 1.390 . S
C1121 H1125 0.950 . S
H1122 C1118 0.950 . S
C1123 C1121 1.390 . S
C1123 C1124 1.387 . S
C1123 H1126 0.950 . S
C1124 C1123 1.387 . S
C1124 C1127 1.387 . S
H1125 C1121 0.950 . S
H1126 C1123 0.950 . S
C1127 C1118 1.390 . S
C1127 H1120 0.950 . S
C1127 C1124 1.387 . S
C1128 C1129 1.387 . S
C1128 H1132 0.950 . S
C1128 C1137 1.390 . S
C1129 C1128 1.387 . S
C1129 C1131 1.387 . S
H1130 C1137 0.950 . S
C1131 C1129 1.387 . S
C1131 C1133 1.390 . S
C1131 H1135 0.950 . S
H1132 C1128 0.950 . S
C1133 C1131 1.390 . S
C1133 C1134 1.387 . S
C1133 H1136 0.950 . S
C1134 C1133 1.387 . S
C1134 C1137 1.387 . S
H1135 C1131 0.950 . S
H1136 C1133 0.950 . S
C1137 C1128 1.390 . S
C1137 H1130 0.950 . S
C1137 C1134 1.387 . S
C1138 C1139 1.387 . S
C1138 H1142 0.950 . S
C1138 C1147 1.390 . S
C1139 C1138 1.387 . S
C1139 C1141 1.387 . S
H1140 C1147 0.950 . S
C1141 C1139 1.387 . S
C1141 C1143 1.390 . S
C1141 H1145 0.950 . S
H1142 C1138 0.950 . S
C1143 C1141 1.390 . S
C1143 C1144 1.387 . S
C1143 H1146 0.950 . S
C1144 C1143 1.387 . S
C1144 C1147 1.387 . S
H1145 C1141 0.950 . S
H1146 C1143 0.950 . S
C1147 C1138 1.390 . S
C1147 H1140 0.950 . S
C1147 C1144 1.387 . S
C1148 C1149 1.387 . S
C1148 H1152 0.950 . S
C1148 C1157 1.390 . S
C1149 C1148 1.387 . S
C1149 C1151 1.387 . S
H1150 C1157 0.950 . S
C1151 C1149 1.387 . S
C1151 C1153 1.390 . S
C1151 H1155 0.950 . S
H1152 C1148 0.950 . S
C1153 C1151 1.390 . S
C1153 C1154 1.387 . S
C1153 H1156 0.950 . S
C1154 C1153 1.387 . S
C1154 C1157 1.387 . S
H1155 C1151 0.950 . S
H1156 C1153 0.950 . S
C1157 C1148 1.390 . S
C1157 H1150 0.950 . S
C1157 C1154 1.387 . S
C1158 C1159 1.387 . S
C1158 H1162 0.950 . S
C1158 C1167 1.390 1_554 S
C1159 C1158 1.387 . S
C1159 C1161 1.387 . S
H1160 C1167 0.950 . S
C1161 C1159 1.387 . S
C1161 C1163 1.390 1_554 S
C1161 H1165 0.950 1_545 S
H1162 C1158 0.950 . S
C1163 C1161 1.390 1_556 S
C1163 C1164 1.387 . S
C1163 H1166 0.950 1_545 S
C1164 C1163 1.387 . S
C1164 C1167 1.387 . S
H1165 C1161 0.950 1_565 S
H1166 C1163 0.950 1_565 S
C1167 C1158 1.390 1_556 S
C1167 H1160 0.950 . S
C1167 C1164 1.387 . S
C1168 C1169 1.387 . S
C1168 H1172 0.950 . S
C1168 C1177 1.390 . S
C1169 C1168 1.387 . S
C1169 C1171 1.387 . S
H1170 C1177 0.950 . S
C1171 C1169 1.387 . S
C1171 C1173 1.390 . S
C1171 H1175 0.950 . S
H1172 C1168 0.950 . S
C1173 C1171 1.390 . S
C1173 C1174 1.387 . S
C1173 H1176 0.950 . S
C1174 C1173 1.387 . S
C1174 C1177 1.387 . S
H1175 C1171 0.950 . S
H1176 C1173 0.950 . S
C1177 C1168 1.390 . S
C1177 H1170 0.950 . S
C1177 C1174 1.387 . S
C1178 C1179 1.387 . S
C1178 H1182 0.950 . S
C1178 C1187 1.390 1_554 S
C1179 C1178 1.387 . S
C1179 C1181 1.387 . S
H1180 C1187 0.950 . S
C1181 C1179 1.387 . S
C1181 C1183 1.390 1_554 S
C1181 H1185 0.950 . S
H1182 C1178 0.950 . S
C1183 C1181 1.390 1_556 S
C1183 C1184 1.387 . S
C1183 H1186 0.950 . S
C1184 C1183 1.387 . S
C1184 C1187 1.387 . S
H1185 C1181 0.950 . S
H1186 C1183 0.950 . S
C1187 C1178 1.390 1_556 S
C1187 H1180 0.950 . S
C1187 C1184 1.387 . S
C1188 C1189 1.387 . S
C1188 H1192 0.950 . S
C1188 C1197 1.390 . S
C1189 C1188 1.387 . S
C1189 C1191 1.387 . S
H1190 C1197 0.950 . S
C1191 C1189 1.387 . S
C1191 C1193 1.390 . S
C1191 H1195 0.950 . S
H1192 C1188 0.950 . S
C1193 C1191 1.390 . S
C1193 C1194 1.387 . S
C1193 H1196 0.950 . S
C1194 C1193 1.387 . S
C1194 C1197 1.387 . S
H1195 C1191 0.950 . S
H1196 C1193 0.950 . S
C1197 C1188 1.390 . S
C1197 H1190 0.950 . S
C1197 C1194 1.387 . S
C1198 C1199 1.387 . S
C1198 H1202 0.950 . S
C1198 C1207 1.390 . S
C1199 C1198 1.387 . S
C1199 C1201 1.387 . S
H1200 C1207 0.950 . S
C1201 C1199 1.387 . S
C1201 C1203 1.390 . S
C1201 H1205 0.950 . S
H1202 C1198 0.950 . S
C1203 C1201 1.390 . S
C1203 C1204 1.387 . S
C1203 H1206 0.950 . S
C1204 C1203 1.387 . S
C1204 C1207 1.387 . S
H1205 C1201 0.950 . S
H1206 C1203 0.950 . S
C1207 C1198 1.390 . S
C1207 H1200 0.950 . S
C1207 C1204 1.387 . S
C1208 C1209 1.387 . S
C1208 H1212 0.950 . S
C1208 C1217 1.390 . S
C1209 C1208 1.387 . S
C1209 C1211 1.387 . S
H1210 C1217 0.950 . S
C1211 C1209 1.387 . S
C1211 C1213 1.390 . S
C1211 H1215 0.950 . S
H1212 C1208 0.950 . S
C1213 C1211 1.390 . S
C1213 C1214 1.387 . S
C1213 H1216 0.950 . S
C1214 C1213 1.387 . S
C1214 C1217 1.387 . S
H1215 C1211 0.950 . S
H1216 C1213 0.950 . S
C1217 C1208 1.390 . S
C1217 H1210 0.950 . S
C1217 C1214 1.387 . S
C1218 C1219 1.387 . S
C1218 H1222 0.950 . S
C1218 C1227 1.390 1_545 S
C1219 C1218 1.387 . S
C1219 C1221 1.387 . S
H1220 C1227 0.950 . S
C1221 C1219 1.387 . S
C1221 C1223 1.390 1_545 S
C1221 H1225 0.950 . S
H1222 C1218 0.950 . S
C1223 C1221 1.390 1_565 S
C1223 C1224 1.387 . S
C1223 H1226 0.950 . S
C1224 C1223 1.387 . S
C1224 C1227 1.387 . S
H1225 C1221 0.950 . S
H1226 C1223 0.950 . S
C1227 C1218 1.390 1_565 S
C1227 H1220 0.950 . S
C1227 C1224 1.387 . S
C1228 C1229 1.387 . S
C1228 H1232 0.950 . S
C1228 C1237 1.390 . S
C1229 C1228 1.387 . S
C1229 C1231 1.387 . S
H1230 C1237 0.950 . S
C1231 C1229 1.387 . S
C1231 C1233 1.390 . S
C1231 H1235 0.950 . S
H1232 C1228 0.950 . S
C1233 C1231 1.390 . S
C1233 C1234 1.387 . S
C1233 H1236 0.950 . S
C1234 C1233 1.387 . S
C1234 C1237 1.387 . S
H1235 C1231 0.950 . S
H1236 C1233 0.950 . S
C1237 C1228 1.390 . S
C1237 H1230 0.950 . S
C1237 C1234 1.387 . S
C1238 C1239 1.387 . S
C1238 H1242 0.950 . S
C1238 C1247 1.390 1_545 S
C1239 C1238 1.387 . S
C1239 C1241 1.387 . S
H1240 C1247 0.950 . S
C1241 C1239 1.387 . S
C1241 C1243 1.390 1_545 S
C1241 H1245 0.950 . S
H1242 C1238 0.950 . S
C1243 C1241 1.390 1_565 S
C1243 C1244 1.387 . S
C1243 H1246 0.950 . S
C1244 C1243 1.387 . S
C1244 C1247 1.387 . S
H1245 C1241 0.950 . S
H1246 C1243 0.950 . S
C1247 C1238 1.390 1_565 S
C1247 H1240 0.950 . S
C1247 C1244 1.387 . S
C1248 C1249 1.387 . S
C1248 H1252 0.950 . S
C1248 C1257 1.390 . S
C1249 C1248 1.387 . S
C1249 C1251 1.387 . S
H1250 C1257 0.950 . S
C1251 C1249 1.387 . S
C1251 C1253 1.390 . S
C1251 H1255 0.950 . S
H1252 C1248 0.950 . S
C1253 C1251 1.390 . S
C1253 C1254 1.387 . S
C1253 H1256 0.950 . S
C1254 C1253 1.387 . S
C1254 C1257 1.387 . S
H1255 C1251 0.950 . S
H1256 C1253 0.950 . S
C1257 C1248 1.390 . S
C1257 H1250 0.950 . S
C1257 C1254 1.387 . S
C1258 C1259 1.387 . S
C1258 H1262 0.950 . S
C1258 C1267 1.390 . S
C1259 C1258 1.387 . S
C1259 C1261 1.387 . S
H1260 C1267 0.950 . S
C1261 C1259 1.387 . S
C1261 C1263 1.390 . S
C1261 H1265 0.950 . S
H1262 C1258 0.950 . S
C1263 C1261 1.390 . S
C1263 C1264 1.387 . S
C1263 H1266 0.950 . S
C1264 C1263 1.387 . S
C1264 C1267 1.387 . S
H1265 C1261 0.950 . S
H1266 C1263 0.950 . S
C1267 C1258 1.390 . S
C1267 H1260 0.950 . S
C1267 C1264 1.387 . S
C1268 C1269 1.387 . S
C1268 H1272 0.950 . S
C1268 C1277 1.390 . S
C1269 C1268 1.387 . S
C1269 C1271 1.387 . S
H1270 C1277 0.950 . S
C1271 C1269 1.387 . S
C1271 C1273 1.390 . S
C1271 H1275 0.950 . S
H1272 C1268 0.950 . S
C1273 C1271 1.390 . S
C1273 C1274 1.387 . S
C1273 H1276 0.950 . S
C1274 C1273 1.387 . S
C1274 C1277 1.387 . S
H1275 C1271 0.950 . S
H1276 C1273 0.950 . S
C1277 C1268 1.390 . S
C1277 H1270 0.950 . S
C1277 C1274 1.387 . S
C1278 C1279 1.387 . S
C1278 H1282 0.950 . S
C1278 C1287 1.390 . S
C1279 C1278 1.387 . S
C1279 C1281 1.387 . S
H1280 C1287 0.950 . S
C1281 C1279 1.387 . S
C1281 C1283 1.390 . S
C1281 H1285 0.950 . S
H1282 C1278 0.950 . S
C1283 C1281 1.390 . S
C1283 C1284 1.387 . S
C1283 H1286 0.950 . S
C1284 C1283 1.387 . S
C1284 C1287 1.387 . S
H1285 C1281 0.950 . S
H1286 C1283 0.950 . S
C1287 C1278 1.390 . S
C1287 H1280 0.950 . S
C1287 C1284 1.387 . S
C1288 C1289 1.387 . S
C1288 H1292 0.950 . S
C1288 C1297 1.390 . S
C1289 C1288 1.387 . S
C1289 C1291 1.387 . S
H1290 C1297 0.950 . S
C1291 C1289 1.387 . S
C1291 C1293 1.390 . S
C1291 H1295 0.950 . S
H1292 C1288 0.950 . S
C1293 C1291 1.390 . S
C1293 C1294 1.387 . S
C1293 H1296 0.950 . S
C1294 C1293 1.387 . S
C1294 C1297 1.387 . S
H1295 C1291 0.950 . S
H1296 C1293 0.950 . S
C1297 C1288 1.390 . S
C1297 H1290 0.950 . S
C1297 C1294 1.387 . S
C1298 C1299 1.387 . S
C1298 H1302 0.950 . S
C1298 C1307 1.390 . S
C1299 C1298 1.387 . S
C1299 C1301 1.387 . S
H1300 C1307 0.950 . S
C1301 C1299 1.387 . S
C1301 C1303 1.390 . S
C1301 H1305 0.950 . S
H1302 C1298 0.950 . S
C1303 C1301 1.390 . S
C1303 C1304 1.387 . S
C1303 H1306 0.950 . S
C1304 C1303 1.387 . S
C1304 C1307 1.387 . S
H1305 C1301 0.950 . S
H1306 C1303 0.950 . S
C1307 C1298 1.390 . S
C1307 H1300 0.950 . S
C1307 C1304 1.387 . S
C1308 C1309 1.387 . S
C1308 H1312 0.950 . S
C1308 C1317 1.390 1_455 S
C1309 C1308 1.387 . S
C1309 C1311 1.387 . S
H1310 C1317 0.950 1_556 S
C1311 C1309 1.387 . S
C1311 C1313 1.390 1_455 S
C1311 H1315 0.950 . S
H1312 C1308 0.950 . S
C1313 C1311 1.390 1_655 S
C1313 C1314 1.387 . S
C1313 H1316 0.950 . S
C1314 C1313 1.387 . S
C1314 C1317 1.387 . S
H1315 C1311 0.950 . S
H1316 C1313 0.950 . S
C1317 C1308 1.390 1_655 S
C1317 H1310 0.950 1_554 S
C1317 C1314 1.387 . S
C1318 C1319 1.387 . S
C1318 H1322 0.950 . S
C1318 C1327 1.390 . S
C1319 C1318 1.387 . S
C1319 C1321 1.387 . S
H1320 C1327 0.950 . S
C1321 C1319 1.387 . S
C1321 C1323 1.390 . S
C1321 H1325 0.950 . S
H1322 C1318 0.950 . S
C1323 C1321 1.390 . S
C1323 C1324 1.387 . S
C1323 H1326 0.950 . S
C1324 C1323 1.387 . S
C1324 C1327 1.387 . S
H1325 C1321 0.950 . S
H1326 C1323 0.950 . S
C1327 C1318 1.390 . S
C1327 H1320 0.950 . S
C1327 C1324 1.387 . S
C1328 C1329 1.387 . S
C1328 H1332 0.950 . S
C1328 C1337 1.390 . S
C1329 C1328 1.387 . S
C1329 C1331 1.387 . S
H1330 C1337 0.950 . S
C1331 C1329 1.387 . S
C1331 C1333 1.390 . S
C1331 H1335 0.950 . S
H1332 C1328 0.950 . S
C1333 C1331 1.390 . S
C1333 C1334 1.387 . S
C1333 H1336 0.950 . S
C1334 C1333 1.387 . S
C1334 C1337 1.387 . S
H1335 C1331 0.950 . S
H1336 C1333 0.950 . S
C1337 C1328 1.390 . S
C1337 H1330 0.950 . S
C1337 C1334 1.387 . S
C1338 C1339 1.387 . S
C1338 H1342 0.950 . S
C1338 C1347 1.390 . S
C1339 C1338 1.387 . S
C1339 C1341 1.387 . S
H1340 C1347 0.950 . S
C1341 C1339 1.387 . S
C1341 C1343 1.390 . S
C1341 H1345 0.950 . S
H1342 C1338 0.950 . S
C1343 C1341 1.390 . S
C1343 C1344 1.387 . S
C1343 H1346 0.950 . S
C1344 C1343 1.387 . S
C1344 C1347 1.387 . S
H1345 C1341 0.950 . S
H1346 C1343 0.950 . S
C1347 C1338 1.390 . S
C1347 H1340 0.950 . S
C1347 C1344 1.387 . S
C1348 C1349 1.387 . S
C1348 H1352 0.950 . S
C1348 C1357 1.390 . S
C1349 C1348 1.387 . S
C1349 C1351 1.387 . S
H1350 C1357 0.950 . S
C1351 C1349 1.387 . S
C1351 C1353 1.390 . S
C1351 H1355 0.950 . S
H1352 C1348 0.950 . S
C1353 C1351 1.390 . S
C1353 C1354 1.387 . S
C1353 H1356 0.950 . S
C1354 C1353 1.387 . S
C1354 C1357 1.387 . S
H1355 C1351 0.950 . S
H1356 C1353 0.950 . S
C1357 C1348 1.390 . S
C1357 H1350 0.950 . S
C1357 C1354 1.387 . S
C1358 C1359 1.387 . S
C1358 H1362 0.950 . S
C1358 C1367 1.390 1_655 S
C1359 C1358 1.387 . S
C1359 C1361 1.387 . S
H1360 C1367 0.950 . S
C1361 C1359 1.387 . S
C1361 C1363 1.390 1_655 S
C1361 H1365 0.950 . S
H1362 C1358 0.950 . S
C1363 C1361 1.390 1_455 S
C1363 C1364 1.387 . S
C1363 H1366 0.950 . S
C1364 C1363 1.387 . S
C1364 C1367 1.387 . S
H1365 C1361 0.950 . S
H1366 C1363 0.950 . S
C1367 C1358 1.390 1_455 S
C1367 H1360 0.950 . S
C1367 C1364 1.387 . S
C1009 C74 1.705 . S
C1014 C991 1.736 . S
C1019 C830 1.754 . S
C1024 C158 1.750 . S
C1029 C235 1.741 . S
C1034 C746 1.707 . S
C1039 C326 1.720 . S
C1044 C907 1.751 . S
C1049 C410 1.739 . S
C1054 C914 1.740 . S
C1059 C487 1.746 . S
C1064 C998 1.718 . S
C1069 C823 1.749 . S
C1074 C578 1.715 . S
C1079 C655 1.716 . S
C1084 C739 1.716 . S
C1089 C319 1.727 . S
C1094 C403 1.729 . S
C1099 C67 1.758 . S
C1104 C494 1.729 . S
C1109 C151 1.727 . S
C1114 C571 1.727 . S
C1119 C662 1.748 . S
C1124 C242 1.752 . S
C1129 C69 1.435 . S
C1134 C735 1.735 . S
C1139 C153 1.448 . S
C1144 C896 1.722 . S
C1149 C980 1.741 . S
C1154 C226 1.797 . S
C1159 C321 1.417 . S
C1164 C819 1.705 . S
C1169 C405 1.429 . S
C1174 C812 1.701 . S
C1179 C728 1.725 . S
C1184 C478 1.774 . S
C1189 C903 1.715 . S
C1194 C573 1.415 . S
C1199 C987 1.779 . S
C1204 C646 1.803 . S
C1209 C56 1.720 . S
C1214 C310 1.769 . S
C1219 C58 1.748 . S
C1224 C140 1.704 . S
C1229 C142 1.783 . S
C1234 C231 1.760 . S
C1239 C308 1.707 . S
C1244 C237 1.438 . S
C1249 C489 1.424 . S
C1254 C392 1.688 . S
C1259 C483 1.741 . S
C1264 C562 1.755 . S
C1269 C560 1.695 . S
C1274 C657 1.422 . S
C1279 C394 1.774 . S
C1284 C651 1.755 . S
C1289 C730 1.727 . S
C1294 C315 1.713 . S
C1299 C476 1.684 . S
C1304 C825 1.416 . S
C1309 C741 1.413 . S
C1314 C567 1.709 . S
C1319 C898 1.774 . S
C1324 C644 1.731 . S
C1329 C399 1.757 . S
C1334 C982 1.780 . S
C1339 C993 1.435 . S
C1344 C147 1.732 . S
C1349 C224 1.733 . S
C1354 C814 1.784 . S
C1359 C909 1.438 . S
C1364 C63 1.728 . S
