# Generated by pormake.
# Topology tes, (8)-cn, num edge types: 1
# Building blocks:
#     Node 0, Type 0, BuildingBlock: EBIMEJ_clean_sbu_0, # of connection points: 8
#     Node 1, Type 0, BuildingBlock: EBIMEJ_clean_sbu_0, # of connection points: 8
#     Node 2, Type 0, BuildingBlock: EBIMEJ_clean_sbu_0, # of connection points: 8
#     Node 3, Type 0, BuildingBlock: EBIMEJ_clean_sbu_0, # of connection points: 8
#     Node 4, Type 0, BuildingBlock: EBIMEJ_clean_sbu_0, # of connection points: 8
#     Node 5, Type 0, BuildingBlock: EBIMEJ_clean_sbu_0, # of connection points: 8
#     Node 6, Type 0, BuildingBlock: EBIMEJ_clean_sbu_0, # of connection points: 8
#     Node 7, Type 0, BuildingBlock: EBIMEJ_clean_sbu_0, # of connection points: 8
#     Node 8, Type 0, BuildingBlock: EBIMEJ_clean_sbu_0, # of connection points: 8
#     Node 9, Type 0, BuildingBlock: EBIMEJ_clean_sbu_0, # of connection points: 8
#     Node 10, Type 0, BuildingBlock: EBIMEJ_clean_sbu_0, # of connection points: 8
#     Node 11, Type 0, BuildingBlock: EBIMEJ_clean_sbu_0, # of connection points: 8
#     Node 12, Type 0, BuildingBlock: EBIMEJ_clean_sbu_0, # of connection points: 8
#     Node 13, Type 0, BuildingBlock: EBIMEJ_clean_sbu_0, # of connection points: 8
#     Node 14, Type 0, BuildingBlock: EBIMEJ_clean_sbu_0, # of connection points: 8
#     Node 15, Type 0, BuildingBlock: EBIMEJ_clean_sbu_0, # of connection points: 8
#     Node 16, Type 0, BuildingBlock: EBIMEJ_clean_sbu_0, # of connection points: 8
#     Node 17, Type 0, BuildingBlock: EBIMEJ_clean_sbu_0, # of connection points: 8
#     Node 18, Type 0, BuildingBlock: EBIMEJ_clean_sbu_0, # of connection points: 8
#     Node 19, Type 0, BuildingBlock: EBIMEJ_clean_sbu_0, # of connection points: 8
#     Node 20, Type 0, BuildingBlock: EBIMEJ_clean_sbu_0, # of connection points: 8
#     Node 21, Type 0, BuildingBlock: EBIMEJ_clean_sbu_0, # of connection points: 8
#     Node 22, Type 0, BuildingBlock: EBIMEJ_clean_sbu_0, # of connection points: 8
#     Node 23, Type 0, BuildingBlock: EBIMEJ_clean_sbu_0, # of connection points: 8
#     Edge 24, Type (0, 0), BuildingBlock: XIVTED_clean_linker_0, # of connection points: 2
#     Edge 25, Type (0, 0), BuildingBlock: XIVTED_clean_linker_0, # of connection points: 2
#     Edge 26, Type (0, 0), BuildingBlock: XIVTED_clean_linker_0, # of connection points: 2
#     Edge 27, Type (0, 0), BuildingBlock: XIVTED_clean_linker_0, # of connection points: 2
#     Edge 28, Type (0, 0), BuildingBlock: XIVTED_clean_linker_0, # of connection points: 2
#     Edge 29, Type (0, 0), BuildingBlock: XIVTED_clean_linker_0, # of connection points: 2
#     Edge 30, Type (0, 0), BuildingBlock: XIVTED_clean_linker_0, # of connection points: 2
#     Edge 31, Type (0, 0), BuildingBlock: XIVTED_clean_linker_0, # of connection points: 2
#     Edge 32, Type (0, 0), BuildingBlock: XIVTED_clean_linker_0, # of connection points: 2
#     Edge 33, Type (0, 0), BuildingBlock: XIVTED_clean_linker_0, # of connection points: 2
#     Edge 34, Type (0, 0), BuildingBlock: XIVTED_clean_linker_0, # of connection points: 2
#     Edge 35, Type (0, 0), BuildingBlock: XIVTED_clean_linker_0, # of connection points: 2
#     Edge 36, Type (0, 0), BuildingBlock: XIVTED_clean_linker_0, # of connection points: 2
#     Edge 37, Type (0, 0), BuildingBlock: XIVTED_clean_linker_0, # of connection points: 2
#     Edge 38, Type (0, 0), BuildingBlock: XIVTED_clean_linker_0, # of connection points: 2
#     Edge 39, Type (0, 0), BuildingBlock: XIVTED_clean_linker_0, # of connection points: 2
#     Edge 40, Type (0, 0), BuildingBlock: XIVTED_clean_linker_0, # of connection points: 2
#     Edge 41, Type (0, 0), BuildingBlock: XIVTED_clean_linker_0, # of connection points: 2
#     Edge 42, Type (0, 0), BuildingBlock: XIVTED_clean_linker_0, # of connection points: 2
#     Edge 43, Type (0, 0), BuildingBlock: XIVTED_clean_linker_0, # of connection points: 2
#     Edge 44, Type (0, 0), BuildingBlock: XIVTED_clean_linker_0, # of connection points: 2
#     Edge 45, Type (0, 0), BuildingBlock: XIVTED_clean_linker_0, # of connection points: 2
#     Edge 46, Type (0, 0), BuildingBlock: XIVTED_clean_linker_0, # of connection points: 2
#     Edge 47, Type (0, 0), BuildingBlock: XIVTED_clean_linker_0, # of connection points: 2
#     Edge 48, Type (0, 0), BuildingBlock: XIVTED_clean_linker_0, # of connection points: 2
#     Edge 49, Type (0, 0), BuildingBlock: XIVTED_clean_linker_0, # of connection points: 2
#     Edge 50, Type (0, 0), BuildingBlock: XIVTED_clean_linker_0, # of connection points: 2
#     Edge 51, Type (0, 0), BuildingBlock: XIVTED_clean_linker_0, # of connection points: 2
#     Edge 52, Type (0, 0), BuildingBlock: XIVTED_clean_linker_0, # of connection points: 2
#     Edge 53, Type (0, 0), BuildingBlock: XIVTED_clean_linker_0, # of connection points: 2
#     Edge 54, Type (0, 0), BuildingBlock: XIVTED_clean_linker_0, # of connection points: 2
#     Edge 55, Type (0, 0), BuildingBlock: XIVTED_clean_linker_0, # of connection points: 2
#     Edge 56, Type (0, 0), BuildingBlock: XIVTED_clean_linker_0, # of connection points: 2
#     Edge 57, Type (0, 0), BuildingBlock: XIVTED_clean_linker_0, # of connection points: 2
#     Edge 58, Type (0, 0), BuildingBlock: XIVTED_clean_linker_0, # of connection points: 2
#     Edge 59, Type (0, 0), BuildingBlock: XIVTED_clean_linker_0, # of connection points: 2
#     Edge 60, Type (0, 0), BuildingBlock: XIVTED_clean_linker_0, # of connection points: 2
#     Edge 61, Type (0, 0), BuildingBlock: XIVTED_clean_linker_0, # of connection points: 2
#     Edge 62, Type (0, 0), BuildingBlock: XIVTED_clean_linker_0, # of connection points: 2
#     Edge 63, Type (0, 0), BuildingBlock: XIVTED_clean_linker_0, # of connection points: 2
#     Edge 64, Type (0, 0), BuildingBlock: XIVTED_clean_linker_0, # of connection points: 2
#     Edge 65, Type (0, 0), BuildingBlock: XIVTED_clean_linker_0, # of connection points: 2
#     Edge 66, Type (0, 0), BuildingBlock: XIVTED_clean_linker_0, # of connection points: 2
#     Edge 67, Type (0, 0), BuildingBlock: XIVTED_clean_linker_0, # of connection points: 2
#     Edge 68, Type (0, 0), BuildingBlock: XIVTED_clean_linker_0, # of connection points: 2
#     Edge 69, Type (0, 0), BuildingBlock: XIVTED_clean_linker_0, # of connection points: 2
#     Edge 70, Type (0, 0), BuildingBlock: XIVTED_clean_linker_0, # of connection points: 2
#     Edge 71, Type (0, 0), BuildingBlock: XIVTED_clean_linker_0, # of connection points: 2
#     Edge 72, Type (0, 0), BuildingBlock: XIVTED_clean_linker_0, # of connection points: 2
#     Edge 73, Type (0, 0), BuildingBlock: XIVTED_clean_linker_0, # of connection points: 2
#     Edge 74, Type (0, 0), BuildingBlock: XIVTED_clean_linker_0, # of connection points: 2
#     Edge 75, Type (0, 0), BuildingBlock: XIVTED_clean_linker_0, # of connection points: 2
#     Edge 76, Type (0, 0), BuildingBlock: XIVTED_clean_linker_0, # of connection points: 2
#     Edge 77, Type (0, 0), BuildingBlock: XIVTED_clean_linker_0, # of connection points: 2
#     Edge 78, Type (0, 0), BuildingBlock: XIVTED_clean_linker_0, # of connection points: 2
#     Edge 79, Type (0, 0), BuildingBlock: XIVTED_clean_linker_0, # of connection points: 2
#     Edge 80, Type (0, 0), BuildingBlock: XIVTED_clean_linker_0, # of connection points: 2
#     Edge 81, Type (0, 0), BuildingBlock: XIVTED_clean_linker_0, # of connection points: 2
#     Edge 82, Type (0, 0), BuildingBlock: XIVTED_clean_linker_0, # of connection points: 2
#     Edge 83, Type (0, 0), BuildingBlock: XIVTED_clean_linker_0, # of connection points: 2
#     Edge 84, Type (0, 0), BuildingBlock: XIVTED_clean_linker_0, # of connection points: 2
#     Edge 85, Type (0, 0), BuildingBlock: XIVTED_clean_linker_0, # of connection points: 2
#     Edge 86, Type (0, 0), BuildingBlock: XIVTED_clean_linker_0, # of connection points: 2
#     Edge 87, Type (0, 0), BuildingBlock: XIVTED_clean_linker_0, # of connection points: 2
#     Edge 88, Type (0, 0), BuildingBlock: XIVTED_clean_linker_0, # of connection points: 2
#     Edge 89, Type (0, 0), BuildingBlock: XIVTED_clean_linker_0, # of connection points: 2
#     Edge 90, Type (0, 0), BuildingBlock: XIVTED_clean_linker_0, # of connection points: 2
#     Edge 91, Type (0, 0), BuildingBlock: XIVTED_clean_linker_0, # of connection points: 2
#     Edge 92, Type (0, 0), BuildingBlock: XIVTED_clean_linker_0, # of connection points: 2
#     Edge 93, Type (0, 0), BuildingBlock: XIVTED_clean_linker_0, # of connection points: 2
#     Edge 94, Type (0, 0), BuildingBlock: XIVTED_clean_linker_0, # of connection points: 2
#     Edge 95, Type (0, 0), BuildingBlock: XIVTED_clean_linker_0, # of connection points: 2
#     Edge 96, Type (0, 0), BuildingBlock: XIVTED_clean_linker_0, # of connection points: 2
#     Edge 97, Type (0, 0), BuildingBlock: XIVTED_clean_linker_0, # of connection points: 2
#     Edge 98, Type (0, 0), BuildingBlock: XIVTED_clean_linker_0, # of connection points: 2
#     Edge 99, Type (0, 0), BuildingBlock: XIVTED_clean_linker_0, # of connection points: 2
#     Edge 100, Type (0, 0), BuildingBlock: XIVTED_clean_linker_0, # of connection points: 2
#     Edge 101, Type (0, 0), BuildingBlock: XIVTED_clean_linker_0, # of connection points: 2
#     Edge 102, Type (0, 0), BuildingBlock: XIVTED_clean_linker_0, # of connection points: 2
#     Edge 103, Type (0, 0), BuildingBlock: XIVTED_clean_linker_0, # of connection points: 2
#     Edge 104, Type (0, 0), BuildingBlock: XIVTED_clean_linker_0, # of connection points: 2
#     Edge 105, Type (0, 0), BuildingBlock: XIVTED_clean_linker_0, # of connection points: 2
#     Edge 106, Type (0, 0), BuildingBlock: XIVTED_clean_linker_0, # of connection points: 2
#     Edge 107, Type (0, 0), BuildingBlock: XIVTED_clean_linker_0, # of connection points: 2
#     Edge 108, Type (0, 0), BuildingBlock: XIVTED_clean_linker_0, # of connection points: 2
#     Edge 109, Type (0, 0), BuildingBlock: XIVTED_clean_linker_0, # of connection points: 2
#     Edge 110, Type (0, 0), BuildingBlock: XIVTED_clean_linker_0, # of connection points: 2
#     Edge 111, Type (0, 0), BuildingBlock: XIVTED_clean_linker_0, # of connection points: 2
#     Edge 112, Type (0, 0), BuildingBlock: XIVTED_clean_linker_0, # of connection points: 2
#     Edge 113, Type (0, 0), BuildingBlock: XIVTED_clean_linker_0, # of connection points: 2
#     Edge 114, Type (0, 0), BuildingBlock: XIVTED_clean_linker_0, # of connection points: 2
#     Edge 115, Type (0, 0), BuildingBlock: XIVTED_clean_linker_0, # of connection points: 2
#     Edge 116, Type (0, 0), BuildingBlock: XIVTED_clean_linker_0, # of connection points: 2
#     Edge 117, Type (0, 0), BuildingBlock: XIVTED_clean_linker_0, # of connection points: 2
#     Edge 118, Type (0, 0), BuildingBlock: XIVTED_clean_linker_0, # of connection points: 2
#     Edge 119, Type (0, 0), BuildingBlock: XIVTED_clean_linker_0, # of connection points: 2
# Relax obj value: 0.206
# Max RMSD: 0.299
# Mean RMSD: 0.292
data_MOF--net-tes--node1-EBIMEJ_clean_sbu_0--edge1-XIVTED_clean_linker_0
_symmetry_space_group_name_H-M    P1
_symmetry_Int_Tables_number       1
_symmetry_cell_setting            triclinic
loop_
_symmetry_equiv_pos_as_xyz
'x, y, z'
_cell_length_a     49.974068
_cell_length_b     49.587839
_cell_length_c     51.107601
_cell_angle_alpha  90.744702
_cell_angle_beta   91.415103
_cell_angle_gamma 91.136595
loop_
_atom_site_label
_atom_site_type_symbol
_atom_site_fract_x
_atom_site_fract_y
_atom_site_fract_z
_atom_type_partial_charge
Co0 Co 0.09559 0.37714 0.42313 0.0
Co1 Co 0.12665 0.40753 0.37444 0.0
Co2 Co 0.13538 0.3479 0.3863 0.0
H3 H 0.12087 0.36911 0.40374 0.0
O4 O 0.1302 0.38394 0.40575 0.0
H5 H 0.14025 0.38646 0.35643 0.0
O6 O 0.13135 0.37135 0.3549 0.0
Co7 Co 0.1639 0.37986 0.33472 0.0
O8 O 0.14896 0.41088 0.31369 0.0
O9 O 0.12244 0.4308 0.34227 0.0
O10 O 0.17466 0.34044 0.33881 0.0
O11 O 0.14756 0.31741 0.36537 0.0
O12 O 0.05446 0.37737 0.42418 0.0
O13 O 0.07814 0.39711 0.453 0.0
O14 O 0.18755 0.41195 0.34547 0.0
O15 O 0.16519 0.42348 0.38069 0.0
C16 C 0.12496 0.32607 0.44037 0.0
C17 C 0.10677 0.43895 0.41807 0.0
C18 C 0.18939 0.37297 0.29498 0.0
C19 C 0.07559 0.3303 0.39144 0.0
C20 C 0.13306 0.42959 0.31971 0.0
C21 C 0.16581 0.31841 0.34849 0.0
C22 C 0.05479 0.391 0.44508 0.0
C23 C 0.18535 0.42683 0.36567 0.0
O24 O 0.10832 0.34489 0.44447 0.0
O25 O 0.13825 0.32487 0.4191 0.0
O26 O 0.11598 0.43836 0.39521 0.0
O27 O 0.1007 0.41781 0.43093 0.0
O28 O 0.19007 0.39448 0.30823 0.0
O29 O 0.17464 0.35505 0.30462 0.0
O30 O 0.07132 0.34657 0.41014 0.0
O31 O 0.09781 0.33118 0.37932 0.0
Co32 Co 0.88809 0.9325 0.59514 0.0
Co33 Co 0.92378 0.88109 0.62709 0.0
Co34 Co 0.86371 0.8918 0.63386 0.0
H35 H 0.88365 0.91091 0.61961 0.0
O36 O 0.89867 0.91327 0.62835 0.0
H37 H 0.90264 0.86236 0.63992 0.0
O38 O 0.88807 0.86032 0.63054 0.0
Co39 Co 0.89473 0.841 0.66362 0.0
O40 O 0.92589 0.81889 0.65073 0.0
O41 O 0.94738 0.84831 0.62539 0.0
O42 O 0.86287 0.85946 0.68033 0.0
O43 O 0.83516 0.86891 0.64726 0.0
O44 O 0.90248 0.94074 0.55914 0.0
O45 O 0.89138 0.97194 0.5843 0.0
O46 O 0.92751 0.8506 0.68583 0.0
O47 O 0.93723 0.88851 0.66522 0.0
C48 C 0.83965 0.94797 0.62615 0.0
C49 C 0.94401 0.91767 0.59872 0.0
C50 C 0.87186 0.8028 0.68383 0.0
C51 C 0.84155 0.90021 0.57839 0.0
C52 C 0.9453 0.82502 0.63597 0.0
C53 C 0.83912 0.86116 0.67058 0.0
C54 C 0.9004 0.96573 0.56238 0.0
C55 C 0.94117 0.87236 0.68444 0.0
O56 O 0.85803 0.95465 0.61034 0.0
O57 O 0.83918 0.92457 0.63694 0.0
O58 O 0.95418 0.90374 0.61663 0.0
O59 O 0.92072 0.90976 0.59119 0.0
O60 O 0.8766 0.82506 0.69516 0.0
O61 O 0.88027 0.80202 0.6609 0.0
O62 O 0.85381 0.92265 0.57628 0.0
O63 O 0.84778 0.88389 0.59683 0.0
Co64 Co 0.42472 0.62692 0.92245 0.0
Co65 Co 0.38771 0.59143 0.87286 0.0
Co66 Co 0.38084 0.65129 0.88699 0.0
H67 H 0.39721 0.63104 0.90372 0.0
O68 O 0.38878 0.61574 0.90572 0.0
H69 H 0.37227 0.61301 0.85689 0.0
O70 O 0.38152 0.62776 0.85494 0.0
Co71 Co 0.34516 0.62075 0.83904 0.0
O72 O 0.35892 0.59181 0.81441 0.0
O73 O 0.38762 0.5691 0.8396 0.0
O74 O 0.33106 0.65516 0.85616 0.0
O75 O 0.36641 0.68094 0.86695 0.0
O76 O 0.46346 0.61516 0.92001 0.0
O77 O 0.44361 0.61364 0.95552 0.0
O78 O 0.32548 0.58586 0.84584 0.0
O79 O 0.34981 0.57649 0.88118 0.0
C80 C 0.3926 0.67445 0.94181 0.0
C81 C 0.41997 0.56999 0.90524 0.0
C82 C 0.31011 0.63622 0.80869 0.0
C83 C 0.43733 0.67576 0.89528 0.0
C84 C 0.37498 0.57236 0.81781 0.0
C85 C 0.34265 0.67832 0.85801 0.0
C86 C 0.46484 0.60914 0.94373 0.0
C87 C 0.32924 0.57171 0.866 0.0
O88 O 0.41115 0.65741 0.94593 0.0
O89 O 0.37878 0.67426 0.92023 0.0
O90 O 0.40068 0.56011 0.89197 0.0
O91 O 0.42623 0.59404 0.89921 0.0
O92 O 0.30585 0.6206 0.82733 0.0
O93 O 0.33426 0.64364 0.80764 0.0
O94 O 0.44111 0.66333 0.9165 0.0
O95 O 0.41813 0.66832 0.87928 0.0
Co96 Co 0.63459 0.16265 0.18396 0.0
Co97 Co 0.66253 0.13267 0.13187 0.0
Co98 Co 0.60342 0.12562 0.14312 0.0
H99 H 0.62558 0.13855 0.16191 0.0
O100 O 0.63977 0.12887 0.16318 0.0
H101 H 0.64039 0.11845 0.11389 0.0
O102 O 0.62643 0.12834 0.11225 0.0
Co103 Co 0.63018 0.09364 0.09311 0.0
O104 O 0.66307 0.10599 0.07305 0.0
O105 O 0.68425 0.1363 0.09951 0.0
O106 O 0.59065 0.08292 0.0986 0.0
O107 O 0.57208 0.11626 0.12125 0.0
O108 O 0.62182 0.19462 0.20538 0.0
O109 O 0.65979 0.17904 0.2125 0.0
O110 O 0.65597 0.0665 0.10763 0.0
O111 O 0.67724 0.09437 0.13592 0.0
C112 C 0.58329 0.13285 0.19847 0.0
C113 C 0.69565 0.16134 0.17081 0.0
C114 C 0.61541 0.07058 0.05247 0.0
C115 C 0.58863 0.18387 0.15365 0.0
C116 C 0.68216 0.12301 0.07788 0.0
C117 C 0.57021 0.09579 0.10615 0.0
C118 C 0.64295 0.19617 0.21913 0.0
C119 C 0.67444 0.07107 0.12471 0.0
O120 O 0.60397 0.14709 0.20514 0.0
O121 O 0.58006 0.1231 0.17517 0.0
O122 O 0.69416 0.14361 0.1527 0.0
O123 O 0.67511 0.17073 0.18203 0.0
O124 O 0.61132 0.06152 0.07493 0.0
O125 O 0.62769 0.09292 0.0531 0.0
O126 O 0.60268 0.18542 0.17463 0.0
O127 O 0.59175 0.16443 0.13736 0.0
Co128 Co 0.09789 0.6285 0.07956 0.0
Co129 Co 0.12859 0.59879 0.13002 0.0
Co130 Co 0.13482 0.65921 0.12039 0.0
H131 H 0.12223 0.63741 0.10123 0.0
O132 O 0.13206 0.62336 0.09955 0.0
H133 H 0.1413 0.62043 0.14933 0.0
O134 O 0.13158 0.63458 0.15082 0.0
Co135 Co 0.16484 0.62899 0.17204 0.0
O136 O 0.14896 0.59768 0.1924 0.0
O137 O 0.12491 0.57484 0.16163 0.0
O138 O 0.16295 0.67028 0.1771 0.0
O139 O 0.14372 0.6905 0.14268 0.0
O140 O 0.05689 0.62472 0.08242 0.0
O141 O 0.07657 0.60847 0.05058 0.0
O142 O 0.18707 0.59614 0.1641 0.0
O143 O 0.16756 0.58646 0.12572 0.0
C144 C 0.12721 0.68096 0.06535 0.0
C145 C 0.10917 0.56695 0.08478 0.0
C146 C 0.2035 0.64325 0.19981 0.0
C147 C 0.07753 0.67504 0.10818 0.0
C148 C 0.1342 0.57747 0.18519 0.0
C149 C 0.15525 0.69136 0.1651 0.0
C150 C 0.05442 0.61223 0.06096 0.0
C151 C 0.18639 0.58263 0.1428 0.0
O152 O 0.11254 0.66041 0.05868 0.0
O153 O 0.1375 0.68353 0.08861 0.0
O154 O 0.11932 0.56756 0.10778 0.0
O155 O 0.10235 0.58802 0.07222 0.0
O156 O 0.20573 0.63104 0.1783 0.0
O157 O 0.17957 0.64786 0.20493 0.0
O158 O 0.07693 0.66207 0.08664 0.0
O159 O 0.09598 0.67061 0.12537 0.0
Co160 Co 0.6302 0.84309 0.33609 0.0
Co161 Co 0.66507 0.87404 0.38928 0.0
Co162 Co 0.60506 0.8823 0.37583 0.0
H163 H 0.62519 0.86792 0.35778 0.0
O164 O 0.64038 0.87663 0.35676 0.0
H165 H 0.64396 0.88747 0.40677 0.0
O166 O 0.62913 0.87822 0.40761 0.0
Co167 Co 0.63715 0.9119 0.42817 0.0
O168 O 0.67215 0.90418 0.44707 0.0
O169 O 0.68876 0.87145 0.42233 0.0
O170 O 0.60417 0.92856 0.41099 0.0
O171 O 0.57636 0.89553 0.39734 0.0
O172 O 0.6432 0.80504 0.33062 0.0
O173 O 0.64303 0.83273 0.29996 0.0
O174 O 0.6669 0.93741 0.41744 0.0
O175 O 0.67907 0.91275 0.38337 0.0
C176 C 0.58148 0.87537 0.31984 0.0
C177 C 0.68724 0.84592 0.35304 0.0
C178 C 0.62355 0.92418 0.47264 0.0
C179 C 0.5824 0.82553 0.36325 0.0
C180 C 0.68982 0.88656 0.44297 0.0
C181 C 0.58069 0.91786 0.40931 0.0
C182 C 0.64844 0.80929 0.30715 0.0
C183 C 0.68137 0.9343 0.39757 0.0
O184 O 0.59981 0.85887 0.31383 0.0
O185 O 0.58095 0.88641 0.34286 0.0
O186 O 0.69584 0.86376 0.36886 0.0
O187 O 0.66388 0.83681 0.35772 0.0
O188 O 0.64621 0.92925 0.46372 0.0
O189 O 0.60835 0.91207 0.45632 0.0
O190 O 0.59529 0.82401 0.34222 0.0
O191 O 0.58854 0.84397 0.38053 0.0
Co192 Co 0.33587 0.37587 0.66875 0.0
Co193 Co 0.38873 0.34108 0.6365 0.0
Co194 Co 0.3733 0.40015 0.62661 0.0
H195 H 0.35632 0.37999 0.64328 0.0
O196 O 0.35481 0.36425 0.63568 0.0
H197 H 0.40509 0.36276 0.62159 0.0
O198 O 0.40648 0.37802 0.62993 0.0
Co199 Co 0.42453 0.37047 0.59653 0.0
O200 O 0.44923 0.34091 0.60972 0.0
O201 O 0.42267 0.31909 0.63734 0.0
O202 O 0.40269 0.40008 0.57916 0.0
O203 O 0.3933 0.42949 0.61041 0.0
O204 O 0.32709 0.35887 0.70386 0.0
O205 O 0.29653 0.37262 0.67932 0.0
O206 O 0.41577 0.33602 0.57709 0.0
O207 O 0.37946 0.32604 0.59943 0.0
C208 C 0.31833 0.42457 0.63785 0.0
C209 C 0.3556 0.32053 0.66697 0.0
C210 C 0.45837 0.39099 0.56867 0.0
C211 C 0.36796 0.42373 0.68193 0.0
C212 C 0.4449 0.32152 0.62541 0.0
C213 C 0.40071 0.42441 0.58732 0.0
C214 C 0.30235 0.36163 0.70063 0.0
C215 C 0.39468 0.32188 0.57987 0.0
O216 O 0.31432 0.40817 0.65656 0.0
O217 O 0.33912 0.42272 0.62344 0.0
O218 O 0.36945 0.30958 0.64984 0.0
O219 O 0.36131 0.34531 0.6711 0.0
O220 O 0.46287 0.38512 0.59219 0.0
O221 O 0.43479 0.38538 0.56122 0.0
O222 O 0.34656 0.41062 0.68627 0.0
O223 O 0.38247 0.41822 0.66221 0.0
Co224 Co 0.8768 0.16904 0.84087 0.0
Co225 Co 0.84567 0.13311 0.88961 0.0
Co226 Co 0.90447 0.12615 0.87509 0.0
H227 H 0.88307 0.14183 0.85887 0.0
O228 O 0.86806 0.13283 0.85685 0.0
H229 H 0.8679 0.11835 0.90584 0.0
O230 O 0.8826 0.12785 0.90738 0.0
Co231 Co 0.87688 0.09273 0.9251 0.0
O232 O 0.84513 0.10371 0.9471 0.0
O233 O 0.82469 0.13442 0.92248 0.0
O234 O 0.91627 0.08326 0.92005 0.0
O235 O 0.9359 0.11372 0.89442 0.0
O236 O 0.86429 0.20744 0.83606 0.0
O237 O 0.86438 0.18018 0.80441 0.0
O238 O 0.84975 0.06624 0.90901 0.0
O239 O 0.82996 0.0949 0.88202 0.0
C240 C 0.92524 0.13923 0.8214 0.0
C241 C 0.82155 0.16519 0.85781 0.0
C242 C 0.89049 0.06753 0.96405 0.0
C243 C 0.92491 0.18575 0.86984 0.0
C244 C 0.82656 0.12066 0.94339 0.0
C245 C 0.93702 0.0946 0.9106 0.0
C246 C 0.85938 0.20366 0.8121 0.0
C247 C 0.83169 0.07126 0.89195 0.0
O248 O 0.90788 0.15761 0.81833 0.0
O249 O 0.92557 0.12412 0.84165 0.0
O250 O 0.8139 0.14505 0.87042 0.0
O251 O 0.84503 0.17377 0.86389 0.0
O252 O 0.89365 0.05929 0.94096 0.0
O253 O 0.87983 0.09022 0.96499 0.0
O254 O 0.90974 0.1908 0.8504 0.0
O255 O 0.92167 0.16389 0.8829 0.0
Co256 Co 0.42252 0.09048 0.38502 0.0
Co257 Co 0.37111 0.12368 0.41582 0.0
Co258 Co 0.38648 0.13335 0.35901 0.0
H259 H 0.40329 0.11713 0.37935 0.0
O260 O 0.40496 0.12542 0.39437 0.0
H261 H 0.35481 0.13886 0.39439 0.0
O262 O 0.35347 0.12988 0.37981 0.0
Co263 Co 0.33544 0.16455 0.38576 0.0
O264 O 0.31341 0.15445 0.41722 0.0
O265 O 0.33697 0.12153 0.43567 0.0
O266 O 0.35389 0.18221 0.35479 0.0
O267 O 0.36642 0.14807 0.32962 0.0
O268 O 0.42488 0.05115 0.39514 0.0
O269 O 0.45861 0.07694 0.3979 0.0
O270 O 0.34506 0.18671 0.41795 0.0
O271 O 0.3792 0.16172 0.43079 0.0
C272 C 0.44247 0.12305 0.33917 0.0
C273 C 0.40532 0.09338 0.43919 0.0
C274 C 0.29676 0.18337 0.36254 0.0
C275 C 0.39189 0.07531 0.33825 0.0
C276 C 0.31632 0.13634 0.43454 0.0
C277 C 0.35746 0.17164 0.3322 0.0
C278 C 0.44928 0.05354 0.40116 0.0
C279 C 0.36497 0.18286 0.43322 0.0
O280 O 0.44677 0.10548 0.35683 0.0
O281 O 0.42047 0.13608 0.33787 0.0
O282 O 0.39022 0.11143 0.4472 0.0
O283 O 0.39942 0.08476 0.41623 0.0
O284 O 0.31871 0.19575 0.36626 0.0
O285 O 0.29667 0.16015 0.37203 0.0
O286 O 0.41253 0.07046 0.35209 0.0
O287 O 0.37817 0.09654 0.34203 0.0
Co288 Co 0.08006 0.09496 0.63135 0.0
Co289 Co 0.13096 0.12351 0.6017 0.0
Co290 Co 0.11706 0.13934 0.65713 0.0
H291 H 0.09983 0.12195 0.63727 0.0
O292 O 0.09827 0.12916 0.62202 0.0
H293 H 0.14811 0.14137 0.62144 0.0
O294 O 0.14958 0.13398 0.63659 0.0
Co295 Co 0.16815 0.168 0.6283 0.0
O296 O 0.1854 0.15779 0.59402 0.0
O297 O 0.16493 0.1188 0.58202 0.0
O298 O 0.17705 0.16082 0.6671 0.0
O299 O 0.13784 0.15479 0.68677 0.0
O300 O 0.04376 0.0815 0.6435 0.0
O301 O 0.04864 0.09249 0.60469 0.0
O302 O 0.15015 0.19161 0.60174 0.0
O303 O 0.12544 0.15923 0.58184 0.0
C304 C 0.06559 0.12456 0.68153 0.0
C305 C 0.09647 0.08462 0.57458 0.0
C306 C 0.20024 0.20387 0.64129 0.0
C307 C 0.11688 0.07843 0.67292 0.0
C308 C 0.18334 0.13682 0.57926 0.0
C309 C 0.16297 0.1595 0.68764 0.0
C310 C 0.03266 0.08394 0.62139 0.0
C311 C 0.13424 0.18383 0.58329 0.0
O312 O 0.06419 0.10321 0.66719 0.0
O313 O 0.08312 0.14327 0.67756 0.0
O314 O 0.11059 0.10617 0.57286 0.0
O315 O 0.08807 0.07578 0.59648 0.0
O316 O 0.17714 0.20852 0.63234 0.0
O317 O 0.20463 0.17914 0.64309 0.0
O318 O 0.10125 0.07015 0.65444 0.0
O319 O 0.1235 0.10347 0.67532 0.0
Co320 Co 0.17091 0.84594 0.88111 0.0
Co321 Co 0.14042 0.89681 0.84953 0.0
Co322 Co 0.13211 0.88583 0.90766 0.0
H323 H 0.14646 0.86721 0.88774 0.0
O324 O 0.13735 0.86499 0.87317 0.0
H325 H 0.12733 0.91568 0.86992 0.0
O326 O 0.13665 0.91762 0.88436 0.0
Co327 Co 0.10301 0.93709 0.87674 0.0
O328 O 0.115 0.95815 0.84485 0.0
O329 O 0.14325 0.9296 0.82632 0.0
O330 O 0.08508 0.91852 0.90757 0.0
O331 O 0.1179 0.90819 0.93554 0.0
O332 O 0.21148 0.83995 0.88371 0.0
O333 O 0.18588 0.81305 0.86299 0.0
O334 O 0.08078 0.92789 0.84418 0.0
O335 O 0.10166 0.88991 0.83558 0.0
C336 C 0.13884 0.82942 0.929 0.0
C337 C 0.16588 0.85499 0.82012 0.0
C338 C 0.08194 0.97497 0.89893 0.0
C339 C 0.18953 0.8762 0.9285 0.0
C340 C 0.13106 0.95215 0.82667 0.0
C341 C 0.09398 0.91534 0.93103 0.0
C342 C 0.20951 0.81835 0.87063 0.0
C343 C 0.08237 0.90615 0.83096 0.0
O344 O 0.15506 0.82386 0.9108 0.0
O345 O 0.12767 0.85256 0.93045 0.0
O346 O 0.15043 0.87491 0.81952 0.0
O347 O 0.17389 0.84407 0.84126 0.0
O348 O 0.07107 0.95214 0.89553 0.0
O349 O 0.10486 0.97657 0.88949 0.0
O350 O 0.19164 0.85561 0.91387 0.0
O351 O 0.16976 0.89224 0.92515 0.0
Co352 Co 0.33517 0.83764 0.12839 0.0
Co353 Co 0.37072 0.88787 0.16486 0.0
Co354 Co 0.38012 0.87461 0.10699 0.0
H355 H 0.3628 0.85693 0.12555 0.0
O356 O 0.37086 0.85459 0.1406 0.0
H357 H 0.38574 0.9057 0.1447 0.0
O358 O 0.37688 0.90714 0.13004 0.0
Co359 Co 0.41095 0.92706 0.13789 0.0
O360 O 0.40097 0.94794 0.17076 0.0
O361 O 0.36946 0.92113 0.18756 0.0
O362 O 0.42952 0.91283 0.10538 0.0
O363 O 0.39654 0.89572 0.0794 0.0
O364 O 0.29589 0.83968 0.13828 0.0
O365 O 0.31607 0.8033 0.14056 0.0
O366 O 0.43663 0.91163 0.16451 0.0
O367 O 0.40861 0.88076 0.18033 0.0
C368 C 0.36918 0.8188 0.08303 0.0
C369 C 0.3386 0.85358 0.18422 0.0
C370 C 0.42519 0.97201 0.12334 0.0
C371 C 0.32388 0.86701 0.08114 0.0
C372 C 0.38359 0.94292 0.18799 0.0
C373 C 0.41992 0.90594 0.08273 0.0
C374 C 0.2945 0.81523 0.14409 0.0
C375 C 0.43176 0.89276 0.18038 0.0
O376 O 0.34979 0.81457 0.09853 0.0
O377 O 0.38351 0.84067 0.08444 0.0
O378 O 0.3578 0.86698 0.19436 0.0
O379 O 0.33239 0.86039 0.16101 0.0
O380 O 0.42884 0.96358 0.14617 0.0
O381 O 0.4133 0.95497 0.10867 0.0
O382 O 0.31946 0.84509 0.09291 0.0
O383 O 0.34361 0.88273 0.08854 0.0
Co384 Co 0.38533 0.42742 0.09137 0.0
Co385 Co 0.41676 0.37092 0.1226 0.0
Co386 Co 0.35885 0.38916 0.13103 0.0
H387 H 0.38026 0.40599 0.11618 0.0
O388 O 0.39587 0.40644 0.124 0.0
H389 H 0.39468 0.35635 0.13857 0.0
O390 O 0.37962 0.35503 0.12988 0.0
Co391 Co 0.38585 0.33898 0.16482 0.0
O392 O 0.42013 0.31767 0.15857 0.0
O393 O 0.43601 0.33547 0.122 0.0
O394 O 0.34762 0.34824 0.17564 0.0
O395 O 0.32726 0.37007 0.14297 0.0
O396 O 0.40199 0.43731 0.05666 0.0
O397 O 0.39025 0.46746 0.08257 0.0
O398 O 0.4123 0.35782 0.1892 0.0
O399 O 0.43475 0.3795 0.15862 0.0
C400 C 0.33659 0.44597 0.11968 0.0
C401 C 0.43813 0.40289 0.09116 0.0
C402 C 0.37 0.30169 0.19151 0.0
C403 C 0.33835 0.39653 0.07487 0.0
C404 C 0.43687 0.3177 0.13999 0.0
C405 C 0.3266 0.35678 0.16391 0.0
C406 C 0.40048 0.46216 0.06097 0.0
C407 C 0.43175 0.37284 0.18263 0.0
O408 O 0.35383 0.45057 0.10212 0.0
O409 O 0.33732 0.42417 0.13316 0.0
O410 O 0.44856 0.38795 0.10797 0.0
O411 O 0.41307 0.39914 0.08787 0.0
O412 O 0.36722 0.32617 0.19726 0.0
O413 O 0.3816 0.29823 0.17023 0.0
O414 O 0.35143 0.41835 0.07204 0.0
O415 O 0.34353 0.38083 0.09405 0.0
Co416 Co 0.83124 0.87037 0.1635 0.0
Co417 Co 0.88283 0.84145 0.13202 0.0
Co418 Co 0.86746 0.90028 0.12316 0.0
H419 H 0.85081 0.87833 0.13821 0.0
O420 O 0.84931 0.86317 0.1296 0.0
H421 H 0.89878 0.8632 0.11669 0.0
O422 O 0.90062 0.87837 0.1252 0.0
Co423 Co 0.91738 0.87094 0.09106 0.0
O424 O 0.93777 0.83684 0.09961 0.0
O425 O 0.91749 0.82064 0.13468 0.0
O426 O 0.91776 0.91176 0.08665 0.0
O427 O 0.88697 0.93207 0.11071 0.0
O428 O 0.80953 0.88577 0.19343 0.0
O429 O 0.80263 0.84623 0.18013 0.0
O430 O 0.89937 0.84465 0.06568 0.0
O431 O 0.87567 0.82292 0.09527 0.0
C432 C 0.81228 0.92121 0.13511 0.0
C433 C 0.84544 0.80874 0.16179 0.0
C434 C 0.95322 0.87963 0.06034 0.0
C435 C 0.8659 0.91584 0.18278 0.0
C436 C 0.93639 0.81988 0.11812 0.0
C437 C 0.90647 0.93283 0.09522 0.0
C438 C 0.79597 0.86442 0.19591 0.0
C439 C 0.88388 0.82523 0.07155 0.0
O440 O 0.80856 0.90254 0.15178 0.0
O441 O 0.83344 0.92214 0.12135 0.0
O442 O 0.86405 0.81007 0.14538 0.0
O443 O 0.83289 0.82939 0.17002 0.0
O444 O 0.9303 0.87077 0.05354 0.0
O445 O 0.9555 0.88426 0.08453 0.0
O446 O 0.84872 0.89776 0.18835 0.0
O447 O 0.8754 0.91717 0.15966 0.0
Co448 Co 0.13793 0.67159 0.67482 0.0
Co449 Co 0.16976 0.63572 0.62635 0.0
Co450 Co 0.11038 0.62836 0.63877 0.0
H451 H 0.13155 0.64421 0.65623 0.0
O452 O 0.1462 0.63529 0.65847 0.0
H453 H 0.14725 0.62257 0.60833 0.0
O454 O 0.133 0.63213 0.6074 0.0
Co455 Co 0.13749 0.59906 0.58602 0.0
O456 O 0.16902 0.61207 0.56514 0.0
O457 O 0.19221 0.63775 0.5942 0.0
O458 O 0.10253 0.58188 0.59838 0.0
O459 O 0.07989 0.61472 0.61781 0.0
O460 O 0.14905 0.71118 0.6731 0.0
O461 O 0.153 0.69008 0.70814 0.0
O462 O 0.16722 0.57405 0.59637 0.0
O463 O 0.18153 0.59645 0.63216 0.0
C464 C 0.08848 0.63986 0.6924 0.0
C465 C 0.1939 0.66647 0.65976 0.0
C466 C 0.12286 0.58407 0.54184 0.0
C467 C 0.09086 0.68704 0.64586 0.0
C468 C 0.1891 0.62719 0.57136 0.0
C469 C 0.08061 0.59247 0.60539 0.0
C470 C 0.15634 0.71214 0.69673 0.0
C471 C 0.18251 0.57587 0.61657 0.0
O472 O 0.10634 0.65845 0.69663 0.0
O473 O 0.08819 0.62517 0.67144 0.0
O474 O 0.20158 0.64629 0.64715 0.0
O475 O 0.17081 0.67446 0.65295 0.0
O476 O 0.14668 0.58404 0.55015 0.0
O477 O 0.10711 0.59244 0.55869 0.0
O478 O 0.10481 0.69174 0.66646 0.0
O479 O 0.09434 0.66568 0.63189 0.0
Co480 Co 0.59589 0.87703 0.9229 0.0
Co481 Co 0.6254 0.90781 0.8722 0.0
Co482 Co 0.63236 0.84778 0.88343 0.0
H483 H 0.61968 0.86928 0.9017 0.0
O484 O 0.62921 0.88401 0.9034 0.0
H485 H 0.63912 0.88638 0.85442 0.0
O486 O 0.62949 0.87176 0.85238 0.0
Co487 Co 0.66383 0.87839 0.83429 0.0
O488 O 0.65156 0.91143 0.81385 0.0
O489 O 0.62213 0.93083 0.84009 0.0
O490 O 0.66957 0.83731 0.8347 0.0
O491 O 0.64168 0.81675 0.86204 0.0
O492 O 0.55526 0.87686 0.92835 0.0
O493 O 0.58188 0.89481 0.95581 0.0
O494 O 0.69013 0.90671 0.84873 0.0
O495 O 0.66345 0.9239 0.87844 0.0
C496 C 0.62551 0.82643 0.9386 0.0
C497 C 0.60247 0.93931 0.91416 0.0
C498 C 0.69618 0.86894 0.80037 0.0
C499 C 0.57427 0.83011 0.89285 0.0
C500 C 0.63515 0.93017 0.8188 0.0
C501 C 0.65904 0.81606 0.84437 0.0
C502 C 0.55788 0.88886 0.9501 0.0
C503 C 0.68602 0.92369 0.86691 0.0
O504 O 0.61085 0.8463 0.94452 0.0
O505 O 0.63547 0.82404 0.91574 0.0
O506 O 0.61497 0.93914 0.89291 0.0
O507 O 0.59569 0.91803 0.92622 0.0
O508 O 0.70044 0.86475 0.82434 0.0
O509 O 0.67329 0.87797 0.79564 0.0
O510 O 0.57332 0.84423 0.9136 0.0
O511 O 0.59358 0.83363 0.87702 0.0
Co512 Co 0.92482 0.13089 0.42394 0.0
Co513 Co 0.88898 0.09274 0.37324 0.0
Co514 Co 0.87965 0.15277 0.38761 0.0
H515 H 0.89751 0.13366 0.40444 0.0
O516 O 0.88979 0.11792 0.40618 0.0
H517 H 0.87427 0.11389 0.35629 0.0
O518 O 0.88291 0.12916 0.35536 0.0
Co519 Co 0.84903 0.12059 0.33549 0.0
O520 O 0.85916 0.08807 0.31318 0.0
O521 O 0.88866 0.06869 0.3402 0.0
O522 O 0.83053 0.14986 0.35647 0.0
O523 O 0.86186 0.18059 0.36738 0.0
O524 O 0.9632 0.11755 0.42552 0.0
O525 O 0.94068 0.11942 0.45931 0.0
O526 O 0.82671 0.08831 0.34573 0.0
O527 O 0.85076 0.07892 0.38148 0.0
C528 C 0.89138 0.17857 0.44189 0.0
C529 C 0.91992 0.07334 0.40699 0.0
C530 C 0.83222 0.14451 0.29688 0.0
C531 C 0.93752 0.17807 0.39329 0.0
C532 C 0.87546 0.0692 0.31824 0.0
C533 C 0.83856 0.17446 0.35843 0.0
C534 C 0.96255 0.11309 0.44957 0.0
C535 C 0.82978 0.07499 0.36661 0.0
O536 O 0.91137 0.16307 0.44571 0.0
O537 O 0.87622 0.17594 0.4211 0.0
O538 O 0.90202 0.06182 0.39304 0.0
O539 O 0.92434 0.09781 0.40098 0.0
O540 O 0.81883 0.14031 0.3169 0.0
O541 O 0.85516 0.13473 0.29845 0.0
O542 O 0.94379 0.16465 0.41339 0.0
O543 O 0.91548 0.17301 0.38019 0.0
Co544 Co 0.59997 0.12921 0.58147 0.0
Co545 Co 0.63104 0.1018 0.63326 0.0
Co546 Co 0.64259 0.1597 0.61751 0.0
H547 H 0.62633 0.13767 0.60109 0.0
O548 O 0.63467 0.12258 0.60034 0.0
H549 H 0.64665 0.12403 0.65013 0.0
O550 O 0.63818 0.13904 0.65037 0.0
Co551 Co 0.67165 0.13327 0.67127 0.0
O552 O 0.65915 0.10086 0.69283 0.0
O553 O 0.62753 0.08134 0.66677 0.0
O554 O 0.66748 0.17444 0.67572 0.0
O555 O 0.65592 0.19174 0.63666 0.0
O556 O 0.57115 0.14338 0.55649 0.0
O557 O 0.58503 0.10416 0.55223 0.0
O558 O 0.69612 0.10428 0.65842 0.0
O559 O 0.66823 0.08525 0.62872 0.0
C560 C 0.62848 0.18145 0.56446 0.0
C561 C 0.6035 0.06741 0.59396 0.0
C562 C 0.70976 0.14762 0.6999 0.0
C563 C 0.58144 0.17279 0.61531 0.0
C564 C 0.64129 0.08243 0.68825 0.0
C565 C 0.66316 0.19439 0.66061 0.0
C566 C 0.56954 0.12173 0.54347 0.0
C567 C 0.69112 0.08646 0.64081 0.0
O568 O 0.60882 0.16454 0.56242 0.0
O569 O 0.64585 0.18017 0.5834 0.0
O570 O 0.61806 0.06962 0.61457 0.0
O571 O 0.59568 0.08767 0.58065 0.0
O572 O 0.71165 0.13103 0.68128 0.0
O573 O 0.68644 0.15626 0.70187 0.0
O574 O 0.57442 0.1529 0.60068 0.0
O575 O 0.60601 0.17668 0.62241 0.0
Co576 Co 0.13052 0.32901 0.83523 0.0
Co577 Co 0.1669 0.36627 0.88525 0.0
Co578 Co 0.10734 0.37396 0.87042 0.0
H579 H 0.12692 0.35671 0.85395 0.0
O580 O 0.14226 0.365 0.85208 0.0
H581 H 0.14532 0.38101 0.9013 0.0
O582 O 0.13062 0.37168 0.90261 0.0
Co583 Co 0.13712 0.40702 0.92043 0.0
O584 O 0.17064 0.39935 0.94175 0.0
O585 O 0.18956 0.36653 0.91872 0.0
O586 O 0.10512 0.42467 0.90239 0.0
O587 O 0.07855 0.39011 0.88992 0.0
O588 O 0.14473 0.2908 0.83626 0.0
O589 O 0.14373 0.31221 0.80131 0.0
O590 O 0.16883 0.43026 0.91074 0.0
O591 O 0.1807 0.40484 0.87705 0.0
C592 C 0.08199 0.36079 0.81707 0.0
C593 C 0.18805 0.33646 0.85158 0.0
C594 C 0.11561 0.42321 0.96012 0.0
C595 C 0.0836 0.3154 0.86512 0.0
C596 C 0.18892 0.38205 0.93894 0.0
C597 C 0.08178 0.41425 0.89803 0.0
C598 C 0.15018 0.29079 0.81247 0.0
C599 C 0.18358 0.42646 0.89121 0.0
O600 O 0.09781 0.34107 0.81358 0.0
O601 O 0.08445 0.37653 0.8372 0.0
O602 O 0.19851 0.35431 0.86627 0.0
O603 O 0.16403 0.33068 0.85725 0.0
O604 O 0.11532 0.43547 0.93882 0.0
O605 O 0.12839 0.40172 0.9591 0.0
O606 O 0.09689 0.30946 0.8451 0.0
O607 O 0.08865 0.33738 0.87828 0.0
Co608 Co 0.37942 0.6684 0.32849 0.0
Co609 Co 0.3486 0.635 0.38011 0.0
Co610 Co 0.4083 0.6309 0.36793 0.0
H611 H 0.38653 0.64376 0.34968 0.0
O612 O 0.37207 0.63383 0.34804 0.0
H613 H 0.37094 0.62215 0.39754 0.0
O614 O 0.38509 0.63247 0.39923 0.0
Co615 Co 0.38007 0.59791 0.41813 0.0
O616 O 0.35137 0.61377 0.44095 0.0
O617 O 0.32672 0.63711 0.41245 0.0
O618 O 0.42015 0.59032 0.41419 0.0
O619 O 0.4395 0.62169 0.38934 0.0
O620 O 0.36238 0.70416 0.31897 0.0
O621 O 0.37285 0.67679 0.28975 0.0
O622 O 0.34724 0.57416 0.40939 0.0
O623 O 0.33489 0.59569 0.37355 0.0
C624 C 0.42856 0.63849 0.31239 0.0
C625 C 0.32516 0.66504 0.34699 0.0
C626 C 0.39108 0.56585 0.45248 0.0
C627 C 0.4265 0.68909 0.35753 0.0
C628 C 0.33101 0.6279 0.43539 0.0
C629 C 0.44083 0.60243 0.4054 0.0
C630 C 0.36285 0.6992 0.29485 0.0
C631 C 0.33202 0.57572 0.3892 0.0
O632 O 0.40872 0.65312 0.30607 0.0
O633 O 0.43134 0.62871 0.33549 0.0
O634 O 0.3171 0.64513 0.3597 0.0
O635 O 0.34882 0.6732 0.35278 0.0
O636 O 0.39087 0.55996 0.42843 0.0
O637 O 0.38582 0.5901 0.45687 0.0
O638 O 0.41292 0.69008 0.33628 0.0
O639 O 0.42167 0.67036 0.37411 0.0
Co640 Co 0.91961 0.59092 0.87231 0.0
Co641 Co 0.87078 0.62337 0.9018 0.0
Co642 Co 0.88588 0.63519 0.84553 0.0
H643 H 0.90191 0.61827 0.86587 0.0
O644 O 0.904 0.62645 0.88092 0.0
H645 H 0.85453 0.6398 0.88117 0.0
O646 O 0.85282 0.63157 0.86616 0.0
Co647 Co 0.8354 0.66622 0.87432 0.0
O648 O 0.8167 0.65734 0.90814 0.0
O649 O 0.83656 0.61975 0.92137 0.0
O650 O 0.84682 0.68311 0.83982 0.0
O651 O 0.86642 0.65095 0.81616 0.0
O652 O 0.92361 0.54976 0.87092 0.0
O653 O 0.95106 0.57471 0.89178 0.0
O654 O 0.85107 0.69098 0.9028 0.0
O655 O 0.87766 0.66057 0.92078 0.0
C656 C 0.93948 0.62155 0.82441 0.0
C657 C 0.91263 0.59858 0.93275 0.0
C658 C 0.79064 0.68118 0.86038 0.0
C659 C 0.88648 0.57436 0.82635 0.0
C660 C 0.81817 0.63718 0.92334 0.0
C661 C 0.85405 0.673 0.81793 0.0
C662 C 0.9447 0.55102 0.88483 0.0
C663 C 0.86771 0.68445 0.92073 0.0
O664 O 0.94087 0.60156 0.83997 0.0
O665 O 0.9204 0.63848 0.82561 0.0
O666 O 0.88988 0.60939 0.93237 0.0
O667 O 0.92564 0.59326 0.91216 0.0
O668 O 0.79988 0.68336 0.88338 0.0
O669 O 0.80683 0.67062 0.84517 0.0
O670 O 0.90301 0.56717 0.84396 0.0
O671 O 0.87784 0.5987 0.82604 0.0
Co672 Co 0.58887 0.59359 0.12756 0.0
Co673 Co 0.63826 0.62351 0.09656 0.0
Co674 Co 0.62486 0.63973 0.1522 0.0
H675 H 0.60763 0.62132 0.13305 0.0
O676 O 0.6056 0.62831 0.1177 0.0
H677 H 0.65597 0.63999 0.11652 0.0
O678 O 0.65712 0.63275 0.13177 0.0
Co679 Co 0.67735 0.66558 0.12265 0.0
O680 O 0.6935 0.65763 0.08755 0.0
O681 O 0.67198 0.61916 0.0761 0.0
O682 O 0.66166 0.68807 0.15176 0.0
O683 O 0.64619 0.65795 0.17988 0.0
O684 O 0.57943 0.55487 0.11726 0.0
O685 O 0.5496 0.58154 0.12822 0.0
O686 O 0.6601 0.69102 0.09744 0.0
O687 O 0.63252 0.66019 0.07883 0.0
C688 C 0.57072 0.62898 0.17373 0.0
C689 C 0.59995 0.59023 0.06741 0.0
C690 C 0.72353 0.6693 0.14031 0.0
C691 C 0.6239 0.58025 0.17157 0.0
C692 C 0.69059 0.63684 0.07273 0.0
C693 C 0.65847 0.67998 0.17511 0.0
C694 C 0.55488 0.55801 0.12089 0.0
C695 C 0.64246 0.68434 0.08013 0.0
O696 O 0.5676 0.60871 0.1581 0.0
O697 O 0.59125 0.64493 0.17278 0.0
O698 O 0.61798 0.60852 0.0666 0.0
O699 O 0.58934 0.58277 0.08867 0.0
O700 O 0.71659 0.6759 0.11756 0.0
O701 O 0.70429 0.66048 0.15312 0.0
O702 O 0.60917 0.57101 0.15294 0.0
O703 O 0.6307 0.60529 0.173 0.0
Co704 Co 0.66786 0.34466 0.37508 0.0
Co705 Co 0.63528 0.39649 0.34326 0.0
Co706 Co 0.62332 0.37921 0.39935 0.0
H707 H 0.64073 0.36326 0.37966 0.0
O708 O 0.63312 0.36186 0.36424 0.0
H709 H 0.61933 0.41255 0.36408 0.0
O710 O 0.62745 0.41326 0.3792 0.0
Co711 Co 0.59401 0.43279 0.37159 0.0
O712 O 0.60352 0.45421 0.33888 0.0
O713 O 0.63777 0.43107 0.32342 0.0
O714 O 0.57559 0.41892 0.40453 0.0
O715 O 0.607 0.39806 0.42845 0.0
O716 O 0.70604 0.33653 0.36564 0.0
O717 O 0.67646 0.30597 0.36489 0.0
O718 O 0.56879 0.41579 0.34457 0.0
O719 O 0.59825 0.38885 0.3261 0.0
C720 C 0.63678 0.32437 0.42177 0.0
C721 C 0.66713 0.36303 0.32118 0.0
C722 C 0.5808 0.47737 0.3879 0.0
C723 C 0.68231 0.37726 0.42082 0.0
C724 C 0.62232 0.4513 0.32263 0.0
C725 C 0.58471 0.40981 0.42632 0.0
C726 C 0.70065 0.31203 0.36149 0.0
C727 C 0.57461 0.39851 0.32716 0.0
O728 O 0.65653 0.32224 0.40644 0.0
O729 O 0.62031 0.34398 0.41973 0.0
O730 O 0.64907 0.37796 0.31253 0.0
O731 O 0.67487 0.36868 0.34448 0.0
O732 O 0.5802 0.47054 0.36417 0.0
O733 O 0.58901 0.45898 0.4024 0.0
O734 O 0.68941 0.35858 0.40559 0.0
O735 O 0.65903 0.3877 0.41877 0.0
Co736 Co 0.91571 0.41734 0.63385 0.0
Co737 Co 0.8675 0.38586 0.5992 0.0
Co738 Co 0.87663 0.37504 0.6572 0.0
H739 H 0.89553 0.39103 0.63892 0.0
O740 O 0.89823 0.38227 0.62447 0.0
H741 H 0.8474 0.37229 0.61808 0.0
O742 O 0.84582 0.38113 0.63266 0.0
Co743 Co 0.82391 0.34851 0.6231 0.0
O744 O 0.80529 0.36137 0.59 0.0
O745 O 0.8358 0.3901 0.5743 0.0
O746 O 0.83685 0.32811 0.65543 0.0
O747 O 0.85334 0.35962 0.68342 0.0
O748 O 0.91778 0.45856 0.63009 0.0
O749 O 0.94974 0.43407 0.62028 0.0
O750 O 0.83544 0.32418 0.59332 0.0
O751 O 0.87286 0.34697 0.58491 0.0
C752 C 0.93027 0.38518 0.6832 0.0
C753 C 0.91476 0.4052 0.57351 0.0
C754 C 0.77914 0.33716 0.63914 0.0
C755 C 0.88247 0.43545 0.67718 0.0
C756 C 0.81268 0.3784 0.57303 0.0
C757 C 0.84132 0.33715 0.67875 0.0
C758 C 0.94128 0.45767 0.62192 0.0
C759 C 0.85707 0.32636 0.58082 0.0
O760 O 0.93436 0.40475 0.66759 0.0
O761 O 0.90936 0.36965 0.68081 0.0
O762 O 0.89085 0.39639 0.57102 0.0
O763 O 0.92617 0.41113 0.5956 0.0
O764 O 0.78806 0.32851 0.61794 0.0
O765 O 0.79561 0.35233 0.65136 0.0
O766 O 0.90051 0.44165 0.66123 0.0
O767 O 0.87125 0.41177 0.67637 0.0
H768 H 0.20569 0.31244 0.31361 0.0
H769 H 0.24404 0.16992 0.3685 0.0
H770 H 0.15635 0.26712 0.3664 0.0
H771 H 0.29675 0.22556 0.32969 0.0
H772 H 0.20591 0.19767 0.35551 0.0
H773 H 0.2321 0.27288 0.30637 0.0
C774 C 0.19996 0.29401 0.32325 0.0
C775 C 0.179 0.29329 0.34098 0.0
C776 C 0.22578 0.20331 0.34927 0.0
C777 C 0.20995 0.24802 0.33347 0.0
C778 C 0.24744 0.18753 0.35661 0.0
C779 C 0.27344 0.1959 0.35047 0.0
C780 C 0.23046 0.22728 0.33563 0.0
C781 C 0.27701 0.21871 0.33509 0.0
C782 C 0.2152 0.27138 0.31917 0.0
C783 C 0.17268 0.26873 0.35294 0.0
N784 N 0.25577 0.23381 0.32844 0.0
N785 N 0.18854 0.24713 0.34942 0.0
H786 H 0.96718 0.94695 0.56068 0.0
H787 H 0.99473 0.06789 0.65517 0.0
H788 H 0.93408 0.95307 0.63756 0.0
H789 H 0.01145 0.0713 0.57292 0.0
H790 H 0.96238 0.03159 0.6461 0.0
H791 H 0.9766 0.99571 0.56189 0.0
C792 C 0.96199 0.95871 0.57777 0.0
C793 C 0.95034 0.94637 0.59921 0.0
C794 C 0.97254 0.04066 0.62983 0.0
C795 C 0.96039 1.00158 0.6007 0.0
C796 C 0.99091 0.06151 0.63504 0.0
C797 C 0.0066 0.07143 0.61487 0.0
C798 C 0.97063 0.02941 0.60447 0.0
C799 C 1.00047 0.06317 0.58909 0.0
C800 C 0.96692 0.98646 0.57835 0.0
C801 C 0.94339 0.96209 0.6208 0.0
N802 N 0.98358 0.04178 0.58465 0.0
N803 N 0.94873 0.98893 0.62109 0.0
H804 H 0.20848 0.77745 0.83539 0.0
H805 H 0.35564 0.73063 0.87221 0.0
H806 H 0.26128 0.82225 0.88897 0.0
H807 H 0.29288 0.68072 0.83602 0.0
H808 H 0.326 0.76932 0.86956 0.0
H809 H 0.24466 0.74735 0.82562 0.0
C810 C 0.22783 0.78099 0.84499 0.0
C811 C 0.23199 0.80191 0.86332 0.0
C812 C 0.31907 0.74992 0.86178 0.0
C813 C 0.27322 0.76741 0.85261 0.0
C814 C 0.33587 0.72789 0.86329 0.0
C815 C 0.32659 0.7024 0.8544 0.0
C816 C 0.29313 0.74625 0.85107 0.0
C817 C 0.30091 0.69992 0.84302 0.0
C818 C 0.24847 0.76387 0.83937 0.0
C819 C 0.25742 0.80602 0.87493 0.0
N820 N 0.28504 0.72155 0.84181 0.0
N821 N 0.27716 0.78852 0.86967 0.0
H822 H 0.43825 0.98453 0.07342 0.0
H823 H 0.55567 0.05723 0.06951 0.0
H824 H 0.44018 0.0158 0.15263 0.0
H825 H 0.52328 0.10899 0.12888 0.0
H826 H 0.513 0.03284 0.06605 0.0
H827 H 0.46792 0.02183 0.06073 0.0
C828 C 0.44444 0.99965 0.08794 0.0
C829 C 0.4374 0.99702 0.11417 0.0
C830 C 0.51484 0.05014 0.07915 0.0
C831 C 0.47139 0.03895 0.1001 0.0
C832 C 0.53941 0.06378 0.08141 0.0
C833 C 0.54329 0.08455 0.10004 0.0
C834 C 0.49415 0.05734 0.09581 0.0
C835 C 0.52135 0.09274 0.11457 0.0
C836 C 0.46154 0.02069 0.08078 0.0
C837 C 0.44568 0.017 0.13231 0.0
N838 N 0.49789 0.07864 0.11261 0.0
N839 N 0.46254 0.03704 0.12497 0.0
H840 H 0.14628 0.74124 0.14418 0.0
H841 H 0.2929 0.76999 0.1733 0.0
H842 H 0.18769 0.70253 0.20796 0.0
H843 H 0.24321 0.83255 0.14187 0.0
H844 H 0.25319 0.74787 0.1906 0.0
H845 H 0.17758 0.77931 0.14858 0.0
C846 C 0.1614 0.74105 0.15974 0.0
C847 C 0.1654 0.71792 0.1748 0.0
C848 C 0.25096 0.76672 0.18036 0.0
C849 C 0.2014 0.76113 0.17956 0.0
C850 C 0.27356 0.77908 0.1702 0.0
C851 C 0.27103 0.80267 0.15573 0.0
C852 C 0.22565 0.77762 0.17524 0.0
C853 C 0.24575 0.81407 0.15264 0.0
C854 C 0.17932 0.76286 0.16222 0.0
C855 C 0.18474 0.71932 0.19513 0.0
N856 N 0.22382 0.80106 0.16179 0.0
N857 N 0.20275 0.7401 0.19633 0.0
H858 H 0.58322 0.96241 0.44064 0.0
H859 H 0.43488 1.00051 0.40224 0.0
H860 H 0.52718 0.909 0.39884 0.0
H861 H 0.49873 0.05695 0.42401 0.0
H862 H 0.46351 0.96335 0.41535 0.0
H863 H 0.54695 0.99265 0.44986 0.0
C864 C 0.56319 0.95691 0.43361 0.0
C865 C 0.55823 0.93369 0.41819 0.0
C866 C 0.47099 0.98391 0.41771 0.0
C867 C 0.51692 0.96828 0.42843 0.0
C868 C 0.4548 1.00502 0.41014 0.0
C869 C 0.46493 0.03153 0.41148 0.0
C870 C 0.49724 0.98964 0.42668 0.0
C871 C 0.49056 0.0366 0.42214 0.0
C872 C 0.54252 0.97411 0.43902 0.0
C873 C 0.53187 0.92709 0.41027 0.0
N874 N 0.50604 0.01572 0.4291 0.0
N875 N 0.51215 0.94472 0.41499 0.0
H876 H 0.31079 0.33364 0.63951 0.0
H877 H 0.24675 0.19531 0.66729 0.0
H878 H 0.34041 0.28271 0.701 0.0
H879 H 0.19811 0.25871 0.63561 0.0
H880 H 0.28011 0.2286 0.6816 0.0
H881 H 0.2677 0.30939 0.63995 0.0
C882 C 0.30785 0.31773 0.65353 0.0
C883 C 0.32876 0.30985 0.67025 0.0
C884 C 0.26196 0.23541 0.67198 0.0
C885 C 0.28043 0.28188 0.67038 0.0
C886 C 0.24296 0.21638 0.66364 0.0
C887 C 0.21969 0.22442 0.65038 0.0
C888 C 0.25814 0.2626 0.66616 0.0
C889 C 0.21591 0.25187 0.64583 0.0
C890 C 0.28334 0.30403 0.65386 0.0
C891 C 0.32449 0.28911 0.68787 0.0
N892 N 0.2353 0.27012 0.65334 0.0
N893 N 0.30079 0.27545 0.68723 0.0
H894 H 0.04387 0.97174 0.93532 0.0
H895 H 0.98525 0.10753 0.88917 0.0
H896 H 0.08841 0.02859 0.88939 0.0
H897 H 0.94933 0.05772 0.94799 0.0
H898 H 0.02717 0.08411 0.89586 0.0
H899 H 0.01374 0.00735 0.94772 0.0
C900 C 0.04755 0.99197 0.92832 0.0
C901 C 0.06812 0.99735 0.91096 0.0
C902 C 0.01026 0.07864 0.90767 0.0
C903 C 0.03351 0.03795 0.92437 0.0
C904 C 0.98624 0.0919 0.90376 0.0
C905 C 0.96345 0.08379 0.91736 0.0
C906 C 0.01131 0.05701 0.92508 0.0
C907 C 0.96609 0.0639 0.93641 0.0
C908 C 0.03043 0.01233 0.93542 0.0
C909 C 0.07249 0.02379 0.90266 0.0
N910 N 0.98946 0.05082 0.93936 0.0
N911 N 0.05479 0.04311 0.90891 0.0
H912 H 0.33969 0.30683 0.23412 0.0
H913 H 0.36175 0.15651 0.28071 0.0
H914 H 0.37989 0.24787 0.18707 0.0
H915 H 0.34637 0.22495 0.33104 0.0
H916 H 0.35798 0.18596 0.24272 0.0
H917 H 0.3296 0.2722 0.26567 0.0
C918 C 0.34607 0.28643 0.23029 0.0
C919 C 0.36097 0.28009 0.20832 0.0
C920 C 0.35506 0.19425 0.26213 0.0
C921 C 0.35011 0.2407 0.24451 0.0
C922 C 0.35732 0.1776 0.28375 0.0
C923 C 0.3543 0.18836 0.30902 0.0
C924 C 0.34956 0.22158 0.26602 0.0
C925 C 0.34858 0.21572 0.31194 0.0
C926 C 0.34037 0.26673 0.24831 0.0
C927 C 0.36859 0.25342 0.20406 0.0
N928 N 0.34643 0.23139 0.29066 0.0
N929 N 0.36345 0.23459 0.22237 0.0
H930 H 0.10836 0.09738 0.52414 0.0
H931 H 0.95933 0.08868 0.49671 0.0
H932 H 0.05711 0.0454 0.56903 0.0
H933 H 0.0136 0.10534 0.43432 0.0
H934 H 0.99547 0.06702 0.52093 0.0
H935 H 0.07686 0.09295 0.48731 0.0
C936 C 0.09091 0.0843 0.52601 0.0
C937 C 0.08451 0.07302 0.55018 0.0
C938 C 0.99941 0.07497 0.50174 0.0
C939 C 0.04831 0.06828 0.50833 0.0
C940 C 0.9789 0.08769 0.48814 0.0
C941 C 0.98384 0.09932 0.4639 0.0
C942 C 0.02517 0.07472 0.49133 0.0
C943 C 0.00927 0.097 0.45326 0.0
C944 C 0.07289 0.08177 0.50491 0.0
C945 C 0.06219 0.0555 0.55112 0.0
N946 N 0.02924 0.08546 0.46734 0.0
N947 N 0.04426 0.05446 0.53076 0.0
H948 H 0.14002 0.85686 0.7724 0.0
H949 H 0.18634 0.71581 0.74161 0.0
H950 H 0.20963 0.82479 0.81172 0.0
H951 H 0.1505 0.76357 0.6806 0.0
H952 H 0.19899 0.75719 0.76556 0.0
H953 H 0.14725 0.82636 0.73547 0.0
C954 C 0.1572 0.84386 0.77297 0.0
C955 C 0.17357 0.84229 0.7955 0.0
C956 C 0.18892 0.75868 0.74663 0.0
C957 C 0.18175 0.80751 0.75382 0.0
C958 C 0.1815 0.7351 0.73317 0.0
C959 C 0.16697 0.73656 0.70956 0.0
C960 C 0.18093 0.78361 0.73665 0.0
C961 C 0.16144 0.76184 0.69904 0.0
C962 C 0.16137 0.82654 0.7519 0.0
C963 C 0.1958 0.82553 0.79515 0.0
N964 N 0.16785 0.78453 0.71304 0.0
N965 N 0.19888 0.80817 0.77489 0.0
H966 H 0.56071 0.92008 0.99385 0.0
H967 H 0.41171 0.88442 0.03353 0.0
H968 H 0.50514 0.87423 0.94392 0.0
H969 H 0.46737 0.93358 0.08049 0.0
H970 H 0.44342 0.88497 0.99797 0.0
H971 H 0.52468 0.92954 0.02345 0.0
C972 C 0.54079 0.91215 0.98908 0.0
C973 C 0.53577 0.89612 0.96671 0.0
C974 C 0.44851 0.89588 0.01596 0.0
C975 C 0.49453 0.90671 1.00043 0.0
C976 C 0.43045 0.89559 0.03624 0.0
C977 C 0.4372 0.90855 0.06012 0.0
C978 C 0.47338 0.90918 0.01973 0.0
C979 C 0.4616 0.92286 0.06257 0.0
C980 C 0.52021 0.91762 0.00592 0.0
C981 C 0.5097 0.88653 0.96118 0.0
N982 N 0.47894 0.92256 0.04268 0.0
N983 N 0.48997 0.89175 0.97817 0.0
H984 H 0.36814 0.81007 0.17261 0.0
H985 H 0.32976 0.74113 0.30224 0.0
H986 H 0.30142 0.83607 0.21768 0.0
H987 H 0.37234 0.69856 0.24257 0.0
H988 H 0.31619 0.77424 0.26994 0.0
H989 H 0.36732 0.767 0.19541 0.0
C990 C 0.35288 0.80626 0.18687 0.0
C991 C 0.33469 0.8262 0.19337 0.0
C992 C 0.32813 0.75743 0.26376 0.0
C993 C 0.33418 0.77787 0.22001 0.0
C994 C 0.33603 0.73869 0.28222 0.0
C995 C 0.35252 0.71751 0.275 0.0
C996 C 0.33742 0.7553 0.23814 0.0
C997 C 0.35983 0.71489 0.24884 0.0
C998 C 0.35237 0.78179 0.19985 0.0
C999 C 0.3156 0.82089 0.21221 0.0
N1000 N 0.35266 0.73396 0.23136 0.0
N1001 N 0.31608 0.79727 0.22526 0.0
H1002 H 0.55765 0.07414 0.5179 0.0
H1003 H 0.43732 0.13761 0.43627 0.0
H1004 H 0.53787 0.15847 0.5199 0.0
H1005 H 0.43581 0.05531 0.4625 0.0
H1006 H 0.4823 0.14372 0.45545 0.0
H1007 H 0.52065 0.06568 0.48629 0.0
C1008 C 0.54567 0.09086 0.51151 0.0
C1009 C 0.55021 0.11689 0.52191 0.0
C1010 C 0.47229 0.12421 0.45667 0.0
C1011 C 0.50872 0.10751 0.48569 0.0
C1012 C 0.44676 0.12073 0.44577 0.0
C1013 C 0.43317 0.09594 0.44801 0.0
C1014 C 0.48406 0.10283 0.47004 0.0
C1015 C 0.44589 0.07468 0.46056 0.0
C1016 C 0.52471 0.08603 0.4935 0.0
C1017 C 0.53465 0.13803 0.51261 0.0
N1018 N 0.47076 0.07865 0.47138 0.0
N1019 N 0.51439 0.13283 0.49509 0.0
H1020 H 0.21093 0.18604 0.6965 0.0
H1021 H 0.1775 0.29276 0.76726 0.0
H1022 H 0.14327 0.15272 0.73662 0.0
H1023 H 0.15423 0.2392 0.82891 0.0
H1024 H 0.19557 0.25456 0.74353 0.0
H1025 H 0.22103 0.21556 0.73415 0.0
C1026 C 0.19865 0.1844 0.71347 0.0
C1027 C 0.17526 0.16828 0.71285 0.0
C1028 C 0.18743 0.25122 0.76268 0.0
C1029 C 0.18664 0.20158 0.75571 0.0
C1030 C 0.17663 0.27294 0.77593 0.0
C1031 C 0.16381 0.26875 0.79957 0.0
C1032 C 0.18471 0.22519 0.773 0.0
C1033 C 0.16359 0.24296 0.8104 0.0
C1034 C 0.2044 0.20126 0.73492 0.0
C1035 C 0.16077 0.1659 0.73585 0.0
N1036 N 0.17318 0.22189 0.7966 0.0
N1037 N 0.16629 0.183 0.75623 0.0
H1038 H 0.95082 0.87213 0.00778 0.0
H1039 H 0.10307 0.90952 0.98397 0.0
H1040 H 1.00355 0.89945 0.07133 0.0
H1041 H 0.03989 0.91533 0.92506 0.0
H1042 H 0.0689 0.90135 0.01684 0.0
H1043 H 0.98602 0.88218 0.97705 0.0
C1044 C 0.96984 0.88029 0.0152 0.0
C1045 C 0.97441 0.88515 0.04195 0.0
C1046 C 0.06273 0.90466 0.9967 0.0
C1047 C 0.01454 0.89668 0.00714 0.0
C1048 C 0.08212 0.90928 0.978 0.0
C1049 C 0.07431 0.91293 0.95176 0.0
C1050 C 0.03565 0.90334 0.9888 0.0
C1051 C 0.04692 0.91256 0.94502 0.0
C1052 C 0.98984 0.8861 0.99772 0.0
C1053 C 0.99939 0.89553 0.05073 0.0
N1054 N 0.02861 0.90759 0.96339 0.0
N1055 N 0.01871 0.90097 0.03327 0.0
H1056 H 0.30942 0.31712 0.19625 0.0
H1057 H 0.21313 0.41188 0.2665 0.0
H1058 H 0.2862 0.39244 0.16186 0.0
H1059 H 0.19961 0.32572 0.26954 0.0
H1060 H 0.2416 0.40529 0.22893 0.0
H1061 H 0.27046 0.31901 0.22438 0.0
C1062 C 0.29592 0.33382 0.19447 0.0
C1063 C 0.30115 0.3549 0.17727 0.0
C1064 C 0.23211 0.38787 0.23765 0.0
C1065 C 0.25706 0.35719 0.20892 0.0
C1066 C 0.2161 0.39159 0.25913 0.0
C1067 C 0.20458 0.36923 0.27126 0.0
C1068 C 0.237 0.3616 0.22877 0.0
C1069 C 0.20865 0.34338 0.26091 0.0
C1070 C 0.27366 0.33476 0.21023 0.0
C1071 C 0.28286 0.37585 0.17505 0.0
N1072 N 0.22507 0.34016 0.24043 0.0
N1073 N 0.26183 0.37678 0.19117 0.0
H1074 H 0.79429 0.20675 0.83706 0.0
H1075 H 0.75922 0.12537 0.70432 0.0
H1076 H 0.82479 0.1282 0.81878 0.0
H1077 H 0.70941 0.18634 0.73779 0.0
H1078 H 0.79263 0.13433 0.73954 0.0
H1079 H 0.77223 0.20747 0.79358 0.0
C1080 C 0.79651 0.18987 0.82366 0.0
C1081 C 0.81096 0.16732 0.83118 0.0
C1082 C 0.77459 0.14607 0.73875 0.0
C1083 C 0.78619 0.16788 0.78208 0.0
C1084 C 0.75562 0.141 0.71874 0.0
C1085 C 0.73158 0.15506 0.71837 0.0
C1086 C 0.76937 0.16542 0.75817 0.0
C1087 C 0.72772 0.17508 0.73741 0.0
C1088 C 0.78404 0.19025 0.79901 0.0
C1089 C 0.81355 0.14584 0.81344 0.0
N1090 N 0.74638 0.17956 0.75669 0.0
N1091 N 0.8011 0.14656 0.78963 0.0
H1092 H 0.07303 0.45547 0.96447 0.0
H1093 H 0.13613 0.52026 0.0934 0.0
H1094 H 0.13597 0.41849 0.00969 0.0
H1095 H 0.07057 0.55324 0.04872 0.0
H1096 H 0.12974 0.47756 0.06927 0.0
H1097 H 0.0641 0.48497 1.00146 0.0
C1098 C 0.08454 0.45323 0.9825 0.0
C1099 C 0.10557 0.43513 0.98407 0.0
C1100 C 0.11653 0.49405 0.06498 0.0
C1101 C 0.09625 0.46924 0.02608 0.0
C1102 C 0.12027 0.51842 0.07861 0.0
C1103 C 0.10447 0.54053 0.07215 0.0
C1104 C 0.09685 0.492 0.0449 0.0
C1105 C 0.08388 0.53704 0.05334 0.0
C1106 C 0.07951 0.47006 1.00363 0.0
C1107 C 0.1197 0.4325 0.00784 0.0
N1108 N 0.08086 0.51335 0.04012 0.0
N1109 N 0.11527 0.45 0.02784 0.0
H1110 H 0.76887 0.81812 0.20853 0.0
H1111 H 0.68661 0.88883 0.32102 0.0
H1112 H 0.77647 0.90291 0.22812 0.0
H1113 H 0.71195 0.80645 0.32611 0.0
H1114 H 0.70925 0.89289 0.2792 0.0
H1115 H 0.73774 0.81241 0.2445 0.0
C1116 C 0.76391 0.83551 0.22033 0.0
C1117 C 0.77556 0.86091 0.21578 0.0
C1118 C 0.70948 0.87382 0.28929 0.0
C1119 C 0.7398 0.85465 0.25618 0.0
C1120 C 0.69657 0.87149 0.31296 0.0
C1121 C 0.69736 0.84718 0.32656 0.0
C1122 C 0.72323 0.8517 0.27935 0.0
C1123 C 0.71079 0.82536 0.31583 0.0
C1124 C 0.74617 0.83223 0.24072 0.0
C1125 C 0.76811 0.88292 0.23123 0.0
N1126 N 0.72332 0.82811 0.29272 0.0
N1127 N 0.75069 0.87927 0.25084 0.0
H1128 H 0.88093 0.07935 0.01516 0.0
H1129 H 0.94669 0.94288 0.06118 0.0
H1130 H 0.92006 0.0223 0.96514 0.0
H1131 H 0.8834 0.98201 0.10253 0.0
H1132 H 0.95028 0.98184 0.033 0.0
H1133 H 0.89367 0.05234 0.05319 0.0
C1134 C 0.89253 0.06137 0.01228 0.0
C1135 C 0.89933 0.05278 0.98713 0.0
C1136 C 0.93603 0.9821 0.04864 0.0
C1137 C 0.91425 0.02245 0.03014 0.0
C1138 C 0.93395 0.95989 0.06477 0.0
C1139 C 0.91399 0.95879 0.0836 0.0
C1140 C 0.91804 1.00321 0.05138 0.0
C1141 C 0.89858 0.98173 0.08778 0.0
C1142 C 0.89986 0.04613 0.0339 0.0
C1143 C 0.91437 0.02949 0.98427 0.0
N1144 N 0.9005 1.00287 0.07132 0.0
N1145 N 0.92123 0.01501 0.00556 0.0
H1146 H 0.25792 0.61981 0.80648 0.0
H1147 H 0.22706 0.70584 0.67931 0.0
H1148 H 0.3141 0.67557 0.77231 0.0
H1149 H 0.18394 0.63341 0.69999 0.0
H1150 H 0.25132 0.70494 0.72167 0.0
H1151 H 0.22339 0.63448 0.77542 0.0
C1152 C 0.26288 0.63529 0.79254 0.0
C1153 C 0.2889 0.64611 0.79137 0.0
C1154 C 0.23612 0.68961 0.71713 0.0
C1155 C 0.24973 0.66305 0.75625 0.0
C1156 C 0.22234 0.69019 0.69315 0.0
C1157 C 0.20393 0.66954 0.68651 0.0
C1158 C 0.23132 0.66813 0.73415 0.0
C1159 C 0.19825 0.64954 0.70468 0.0
C1160 C 0.2432 0.64372 0.77497 0.0
C1161 C 0.29433 0.66638 0.77334 0.0
N1162 N 0.21216 0.64915 0.7277 0.0
N1163 N 0.2749 0.67404 0.75621 0.0
H1164 H 0.07325 0.56454 0.52725 0.0
H1165 H 0.13451 0.48509 0.40758 0.0
H1166 H 0.15357 0.5761 0.49977 0.0
H1167 H 0.07176 0.4534 0.45561 0.0
H1168 H 0.13206 0.52829 0.43069 0.0
H1169 H 0.06341 0.53397 0.49003 0.0
C1170 C 0.08853 0.56119 0.51298 0.0
C1171 C 0.11445 0.57201 0.51675 0.0
C1172 C 0.11857 0.51195 0.43588 0.0
C1173 C 0.10333 0.53786 0.47446 0.0
C1174 C 0.12 0.48732 0.42283 0.0
C1175 C 0.10384 0.46549 0.4304 0.0
C1176 C 0.10078 0.51469 0.45647 0.0
C1177 C 0.08519 0.4695 0.44997 0.0
C1178 C 0.08293 0.54382 0.49186 0.0
C1179 C 0.1335 0.56754 0.49768 0.0
N1180 N 0.08434 0.49364 0.46263 0.0
N1181 N 0.12767 0.55043 0.47743 0.0
H1182 H 0.38717 0.51519 0.05925 0.0
H1183 H 0.45749 0.5355 0.92212 0.0
H1184 H 0.43435 0.45503 0.02108 0.0
H1185 H 0.3901 0.58113 0.94735 0.0
H1186 H 0.45895 0.51312 0.96467 0.0
H1187 H 0.39808 0.5469 0.02445 0.0
C1188 C 0.40016 0.50887 0.04375 0.0
C1189 C 0.40949 0.48247 0.04253 0.0
C1190 C 0.44416 0.52838 0.96104 0.0
C1191 C 0.4221 0.51829 1.0032 0.0
C1192 C 0.44341 0.54111 0.93693 0.0
C1193 C 0.42377 0.56005 0.93167 0.0
C1194 C 0.42501 0.53472 0.9797 0.0
C1195 C 0.40563 0.56665 0.95104 0.0
C1196 C 0.40633 0.52687 0.02397 0.0
C1197 C 0.42638 0.47514 0.0223 0.0
N1198 N 0.40659 0.55386 0.9743 0.0
N1199 N 0.43199 0.49293 1.00324 0.0
H1200 H 0.64604 0.76711 0.86504 0.0
H1201 H 0.77572 0.69708 0.81135 0.0
H1202 H 0.69781 0.80459 0.80887 0.0
H1203 H 0.74797 0.69126 0.89039 0.0
H1204 H 0.73664 0.72426 0.80005 0.0
H1205 H 0.67249 0.7265 0.86262 0.0
C1206 C 0.66252 0.76664 0.85168 0.0
C1207 C 0.67025 0.78963 0.83774 0.0
C1208 C 0.73888 0.71639 0.81964 0.0
C1209 C 0.70026 0.74314 0.83487 0.0
C1210 C 0.76107 0.70101 0.82611 0.0
C1211 C 0.76515 0.69258 0.85195 0.0
C1212 C 0.72053 0.72255 0.83903 0.0
C1213 C 0.74562 0.69785 0.87035 0.0
C1214 C 0.67756 0.74342 0.85036 0.0
C1215 C 0.69152 0.78756 0.82042 0.0
N1216 N 0.72415 0.71271 0.86357 0.0
N1217 N 0.70618 0.76481 0.81983 0.0
H1218 H 0.47584 0.41757 0.05705 0.0
H1219 H 0.50107 0.56015 0.12752 0.0
H1220 H 0.42824 0.4472 0.1201 0.0
H1221 H 0.56298 0.51106 0.09524 0.0
H1222 H 0.46758 0.52619 0.11245 0.0
H1223 H 0.50112 0.46059 0.05785 0.0
C1224 C 0.47042 0.43346 0.07056 0.0
C1225 C 0.4502 0.42934 0.08847 0.0
C1226 C 0.48851 0.52321 0.10845 0.0
C1227 C 0.4785 0.47759 0.08966 0.0
C1228 C 0.50752 0.54229 0.1172 0.0
C1229 C 0.53464 0.53799 0.11285 0.0
C1230 C 0.49694 0.50011 0.09513 0.0
C1231 C 0.54219 0.51482 0.09923 0.0
C1232 C 0.48465 0.4578 0.07099 0.0
C1233 C 0.44375 0.44998 0.10594 0.0
N1234 N 0.52336 0.49663 0.09083 0.0
N1235 N 0.45804 0.47337 0.10622 0.0
H1236 H 0.69237 0.25956 0.34701 0.0
H1237 H 0.84804 0.22888 0.35588 0.0
H1238 H 0.75416 0.32091 0.35886 0.0
H1239 H 0.78487 0.16808 0.35053 0.0
H1240 H 0.81452 0.26361 0.34968 0.0
H1241 H 0.72685 0.22632 0.3398 0.0
C1242 C 0.71323 0.26598 0.34791 0.0
C1243 C 0.72067 0.29266 0.35411 0.0
C1244 C 0.80812 0.24261 0.34961 0.0
C1245 C 0.75996 0.2551 0.34617 0.0
C1246 C 0.82717 0.22287 0.3533 0.0
C1247 C 0.81914 0.19568 0.35394 0.0
C1248 C 0.781 0.23494 0.34666 0.0
C1249 C 0.79194 0.18884 0.35028 0.0
C1250 C 0.73287 0.2471 0.34376 0.0
C1251 C 0.74779 0.3003 0.35453 0.0
N1252 N 0.77381 0.2084 0.34693 0.0
N1253 N 0.76659 0.28145 0.35099 0.0
H1254 H 0.07297 0.54933 0.57272 0.0
H1255 H 0.93047 0.51135 0.62824 0.0
H1256 H 0.03132 0.60164 0.62565 0.0
H1257 H 0.98795 0.45631 0.59707 0.0
H1258 H 0.95999 0.54934 0.61616 0.0
H1259 H 0.03319 0.52081 0.56837 0.0
C1260 C 0.05531 0.55503 0.58316 0.0
C1261 C 0.05557 0.57747 0.60005 0.0
C1262 C 0.96566 0.52889 0.61155 0.0
C1263 C 0.01035 0.54451 0.59578 0.0
C1264 C 0.94902 0.50737 0.61849 0.0
C1265 C 0.95701 0.48089 0.61367 0.0
C1266 C 0.98995 0.52349 0.59948 0.0
C1267 C 0.98109 0.47648 0.60112 0.0
C1268 C 0.03261 0.53875 0.58067 0.0
C1269 C 0.03202 0.58414 0.61282 0.0
N1270 N 0.99673 0.49759 0.5945 0.0
N1271 N 0.01037 0.56727 0.61091 0.0
H1272 H 0.76841 0.32871 0.69045 0.0
H1273 H 0.69995 0.20988 0.69859 0.0
H1274 H 0.73398 0.32177 0.6124 0.0
H1275 H 0.64279 0.24153 0.64301 0.0
H1276 H 0.72114 0.25429 0.70285 0.0
H1277 H 0.73124 0.30091 0.70659 0.0
C1278 C 0.75256 0.32199 0.67691 0.0
C1279 C 0.75427 0.32688 0.65004 0.0
C1280 C 0.70316 0.25195 0.6907 0.0
C1281 C 0.7123 0.29535 0.66811 0.0
C1282 C 0.69105 0.22645 0.68826 0.0
C1283 C 0.67005 0.22191 0.66997 0.0
C1284 C 0.69424 0.27276 0.67446 0.0
C1285 C 0.65948 0.24408 0.6568 0.0
C1286 C 0.73155 0.30603 0.68607 0.0
C1287 C 0.73344 0.31791 0.6332 0.0
N1288 N 0.67222 0.26842 0.65869 0.0
N1289 N 0.71338 0.30231 0.64249 0.0
H1290 H 0.98595 0.55122 0.91973 0.0
H1291 H 0.02901 0.40145 0.88664 0.0
H1292 H 0.93899 0.49871 0.8676 0.0
H1293 H 0.08162 0.4665 0.91456 0.0
H1294 H 0.99117 0.43209 0.88905 0.0
H1295 H 0.01572 0.51439 0.92906 0.0
C1296 C 0.98178 0.53176 0.91046 0.0
C1297 C 0.96038 0.52791 0.89256 0.0
C1298 C 0.01103 0.43931 0.89496 0.0
C1299 C 0.99461 0.48601 0.90267 0.0
C1300 C 0.03257 0.42198 0.89354 0.0
C1301 C 0.05849 0.43147 0.9004 0.0
C1302 C 0.01565 0.46598 0.90357 0.0
C1303 C 0.06205 0.45819 0.90918 0.0
C1304 C 0.99876 0.51079 0.91577 0.0
C1305 C 0.95559 0.50235 0.88129 0.0
N1306 N 0.04086 0.47448 0.91048 0.0
N1307 N 0.97298 0.48226 0.8862 0.0
H1308 H 0.80845 0.79487 0.1985 0.0
H1309 H 0.77107 0.67132 0.11618 0.0
H1310 H 0.86248 0.76028 0.14324 0.0
H1311 H 0.73443 0.68568 0.19043 0.0
H1312 H 0.81031 0.69743 0.13138 0.0
H1313 H 0.78646 0.75079 0.20245 0.0
C1314 C 0.8159 0.77797 0.18747 0.0
C1315 C 0.83632 0.78158 0.16946 0.0
C1316 C 0.79413 0.69423 0.14478 0.0
C1317 C 0.81169 0.73114 0.17413 0.0
C1318 C 0.77177 0.67932 0.13604 0.0
C1319 C 0.74956 0.67696 0.15196 0.0
C1320 C 0.79359 0.70772 0.16912 0.0
C1321 C 0.75124 0.68743 0.17755 0.0
C1322 C 0.80359 0.7527 0.18998 0.0
C1323 C 0.8461 0.75871 0.15664 0.0
N1324 N 0.7726 0.70323 0.18511 0.0
N1325 N 0.83323 0.73459 0.1587 0.0
H1326 H 0.56052 0.48652 0.43603 0.0
H1327 H 0.48875 0.61796 0.38515 0.0
H1328 H 0.57371 0.52384 0.36152 0.0
H1329 H 0.45366 0.56205 0.43943 0.0
H1330 H 0.53047 0.59359 0.3882 0.0
H1331 H 0.53196 0.5241 0.44815 0.0
C1332 C 0.55803 0.50306 0.42259 0.0
C1333 C 0.56899 0.50213 0.39762 0.0
C1334 C 0.51377 0.58707 0.39985 0.0
C1335 C 0.53691 0.54479 0.41136 0.0
C1336 C 0.48992 0.60091 0.39814 0.0
C1337 C 0.46741 0.5915 0.41145 0.0
C1338 C 0.51511 0.56377 0.41499 0.0
C1339 C 0.47033 0.56959 0.42832 0.0
C1340 C 0.54175 0.52435 0.42948 0.0
C1341 C 0.56523 0.52382 0.38082 0.0
N1342 N 0.49368 0.55611 0.42926 0.0
N1343 N 0.54922 0.54422 0.3879 0.0
H1344 H 0.87562 0.74909 0.67234 0.0
H1345 H 0.8222 0.7166 0.81286 0.0
H1346 H 0.83935 0.80548 0.725 0.0
H1347 H 0.87115 0.66265 0.76835 0.0
H1348 H 0.81529 0.74343 0.77408 0.0
H1349 H 0.86138 0.71208 0.7006 0.0
C1350 C 0.864 0.75354 0.68943 0.0
C1351 C 0.85902 0.78021 0.69683 0.0
C1352 C 0.82728 0.72553 0.77267 0.0
C1353 C 0.84277 0.73859 0.72876 0.0
C1354 C 0.83133 0.71024 0.79485 0.0
C1355 C 0.84783 0.68776 0.79396 0.0
C1356 C 0.84041 0.71872 0.74963 0.0
C1357 C 0.85873 0.68021 0.76998 0.0
C1358 C 0.85594 0.73253 0.7055 0.0
C1359 C 0.8439 0.78518 0.71894 0.0
N1360 N 0.85528 0.69604 0.74879 0.0
N1361 N 0.83657 0.76455 0.73434 0.0
H1362 H 0.56438 0.54813 0.06063 0.0
H1363 H 0.51572 0.60822 0.92599 0.0
H1364 H 0.60891 0.60765 0.01763 0.0
H1365 H 0.4659 0.58042 0.98834 0.0
H1366 H 0.55492 0.59007 0.94915 0.0
H1367 H 0.53504 0.54043 0.02247 0.0
C1368 C 0.56842 0.55908 0.04298 0.0
C1369 C 0.58818 0.57954 0.04269 0.0
C1370 C 0.53525 0.58735 0.95728 0.0
C1371 C 0.55488 0.5708 0.99921 0.0
C1372 C 0.51305 0.59786 0.94431 0.0
C1373 C 0.48792 0.59632 0.9558 0.0
C1374 C 0.53192 0.57498 0.98153 0.0
C1375 C 0.48516 0.5825 0.97925 0.0
C1376 C 0.55177 0.55456 0.02118 0.0
C1377 C 0.59323 0.59238 0.01897 0.0
N1378 N 0.50702 0.5725 0.9915 0.0
N1379 N 0.5761 0.58836 0.99827 0.0
H1380 H 0.68992 0.20892 0.24557 0.0
H1381 H 0.62335 0.33054 0.32155 0.0
H1382 H 0.60647 0.22951 0.23933 0.0
H1383 H 0.70648 0.33253 0.30075 0.0
H1384 H 0.61862 0.2852 0.30286 0.0
H1385 H 0.69751 0.24674 0.2766 0.0
C1386 C 0.67323 0.22127 0.25089 0.0
C1387 C 0.64767 0.21663 0.23961 0.0
C1388 C 0.63799 0.2954 0.30265 0.0
C1389 C 0.65603 0.25893 0.27507 0.0
C1390 C 0.64067 0.32117 0.31326 0.0
C1391 C 0.66528 0.33503 0.31236 0.0
C1392 C 0.65996 0.28367 0.29078 0.0
C1393 C 0.68719 0.32228 0.3015 0.0
C1394 C 0.67756 0.24267 0.26854 0.0
C1395 C 0.62655 0.23273 0.24738 0.0
N1396 N 0.68398 0.29717 0.29081 0.0
N1397 N 0.63124 0.2533 0.26458 0.0
H1398 H 0.05317 0.4245 0.48699 0.0
H1399 H 0.91034 0.37541 0.52815 0.0
H1400 H 1.00298 0.37378 0.43609 0.0
H1401 H 0.95417 0.44184 0.56514 0.0
H1402 H 0.9412 0.37704 0.49163 0.0
H1403 H 0.01497 0.43384 0.51351 0.0
C1404 C 0.0339 0.41573 0.48112 0.0
C1405 C 0.03108 0.39845 0.45935 0.0
C1406 C 0.94378 0.39152 0.50758 0.0
C1407 C 0.98732 0.40833 0.49011 0.0
C1408 C 0.92628 0.39057 0.52837 0.0
C1409 C 0.9305 0.40799 0.54996 0.0
C1410 C 0.96544 0.41001 0.50868 0.0
C1411 C 0.95106 0.42742 0.54933 0.0
C1412 C 0.01204 0.42103 0.4963 0.0
C1413 C 0.00581 0.38724 0.45283 0.0
N1414 N 0.96801 0.42772 0.52916 0.0
N1415 N 0.98482 0.39203 0.46849 0.0
H1416 H 0.81344 0.28934 0.67665 0.0
H1417 H 0.85322 0.25664 0.82384 0.0
H1418 H 0.85243 0.34614 0.73079 0.0
H1419 H 0.83966 0.19694 0.76245 0.0
H1420 H 0.8383 0.29156 0.7938 0.0
H1421 H 0.80788 0.25787 0.71239 0.0
C1422 C 0.82062 0.2953 0.69609 0.0
C1423 C 0.83429 0.31994 0.70067 0.0
C1424 C 0.8382 0.27074 0.7871 0.0
C1425 C 0.82779 0.28426 0.74136 0.0
C1426 C 0.84679 0.25092 0.80411 0.0
C1427 C 0.84824 0.2242 0.7952 0.0
C1428 C 0.83098 0.26356 0.76123 0.0
C1429 C 0.83939 0.21754 0.76973 0.0
C1430 C 0.81729 0.2774 0.71644 0.0
C1431 C 0.84239 0.32703 0.72633 0.0
N1432 N 0.83135 0.23723 0.75344 0.0
N1433 N 0.83943 0.30899 0.74573 0.0
H1434 H 0.94334 0.55608 0.94489 0.0
H1435 H 1.00397 0.62714 0.07416 0.0
H1436 H 0.91084 0.62844 0.97797 0.0
H1437 H 0.04717 0.57905 0.01895 0.0
H1438 H 0.96237 0.61693 0.04882 0.0
H1439 H 0.97306 0.55245 0.98319 0.0
C1440 C 0.94236 0.57102 0.96043 0.0
C1441 C 0.9256 0.59313 0.95802 0.0
C1442 C 0.98093 0.60809 0.04284 0.0
C1443 C 0.95914 0.58915 1.00169 0.0
C1444 C 1.00455 0.61388 0.05717 0.0
C1445 C 0.02887 0.6038 0.04858 0.0
C1446 C 0.98192 0.59181 0.02024 0.0
C1447 C 0.0288 0.58697 0.02641 0.0
C1448 C 0.95908 0.56886 0.98231 0.0
C1449 C 0.924 0.61138 0.97906 0.0
N1450 N 0.00568 0.58158 0.01295 0.0
N1451 N 0.94116 0.60938 0.99993 0.0
H1452 H 0.68777 0.72667 0.17186 0.0
H1453 H 0.66131 0.75814 0.31966 0.0
H1454 H 0.65621 0.66995 0.22736 0.0
H1455 H 0.66708 0.81691 0.25835 0.0
H1456 H 0.67974 0.72435 0.29038 0.0
H1457 H 0.7008 0.75697 0.20799 0.0
C1458 C 0.68376 0.7205 0.19167 0.0
C1459 C 0.66963 0.69648 0.1967 0.0
C1460 C 0.67747 0.7448 0.28358 0.0
C1461 C 0.68473 0.73073 0.23772 0.0
C1462 C 0.66669 0.76391 0.30008 0.0
C1463 C 0.66167 0.78978 0.29078 0.0
C1464 C 0.6829 0.75178 0.25774 0.0
C1465 C 0.66972 0.79674 0.26573 0.0
C1466 C 0.69153 0.73763 0.21222 0.0
C1467 C 0.66607 0.68885 0.22265 0.0
N1468 N 0.67958 0.7776 0.2498 0.0
N1469 N 0.67305 0.70629 0.2423 0.0
H1470 H 0.59647 0.3927 0.47594 0.0
H1471 H 0.44943 0.41486 0.5221 0.0
H1472 H 0.5366 0.43448 0.43037 0.0
H1473 H 0.51277 0.39007 0.57482 0.0
H1474 H 0.4824 0.42625 0.48979 0.0
H1475 H 0.56772 0.395 0.51371 0.0
C1476 C 0.57739 0.40256 0.47392 0.0
C1477 C 0.56866 0.41297 0.44983 0.0
C1478 C 0.48924 0.41876 0.50855 0.0
C1479 C 0.53586 0.4157 0.49292 0.0
C1480 C 0.47039 0.41228 0.52701 0.0
C1481 C 0.4785 0.40142 0.55099 0.0
C1482 C 0.51632 0.4137 0.5139 0.0
C1483 C 0.50585 0.39838 0.55644 0.0
C1484 C 0.56108 0.40398 0.49553 0.0
C1485 C 0.54394 0.42578 0.44842 0.0
N1486 N 0.52388 0.40405 0.53775 0.0
N1487 N 0.52826 0.4265 0.46962 0.0
H1488 H 0.78537 0.86218 0.65812 0.0
H1489 H 0.74511 0.84731 0.80734 0.0
H1490 H 0.84156 0.85615 0.72338 0.0
H1491 H 0.69111 0.87794 0.74806 0.0
H1492 H 0.77879 0.84127 0.77425 0.0
H1493 H 0.74856 0.86002 0.68893 0.0
C1494 C 0.78995 0.86021 0.67883 0.0
C1495 C 0.81651 0.85916 0.68822 0.0
C1496 C 0.75953 0.84921 0.76845 0.0
C1497 C 0.77488 0.85644 0.72314 0.0
C1498 C 0.74036 0.85263 0.78729 0.0
C1499 C 0.71562 0.86346 0.78031 0.0
C1500 C 0.75382 0.85676 0.74257 0.0
C1501 C 0.71018 0.86975 0.7541 0.0
C1502 C 0.76901 0.85894 0.69631 0.0
C1503 C 0.8214 0.85671 0.71519 0.0
N1504 N 0.72932 0.8665 0.73606 0.0
N1505 N 0.80077 0.8554 0.73169 0.0
H1506 H 0.20077 0.67552 0.24248 0.0
H1507 H 0.3312 0.63062 0.30626 0.0
H1508 H 0.25649 0.63091 0.19631 0.0
H1509 H 0.29489 0.70526 0.32871 0.0
H1510 H 0.30722 0.63198 0.26391 0.0
H1511 H 0.23683 0.68872 0.27261 0.0
C1512 C 0.2208 0.66898 0.23838 0.0
C1513 C 0.22582 0.65233 0.21683 0.0
C1514 C 0.30507 0.64844 0.2778 0.0
C1515 C 0.26703 0.66652 0.25183 0.0
C1516 C 0.31846 0.64749 0.3019 0.0
C1517 C 0.31437 0.66767 0.32066 0.0
C1518 C 0.28703 0.66924 0.27314 0.0
C1519 C 0.29804 0.68926 0.31456 0.0
C1520 C 0.24142 0.6766 0.25558 0.0
C1521 C 0.25197 0.64384 0.21279 0.0
N1522 N 0.28448 0.68927 0.29133 0.0
N1523 N 0.27169 0.65059 0.23057 0.0
H1524 H 0.56568 0.05059 0.55707 0.0
H1525 H 0.65493 0.93521 0.51534 0.0
H1526 H 0.62894 0.02142 0.60764 0.0
H1527 H 0.57323 0.93803 0.4865 0.0
H1528 H 0.64323 0.96325 0.55264 0.0
H1529 H 0.56446 0.00709 0.5338 0.0
C1530 C 0.57906 0.03496 0.56343 0.0
C1531 C 0.59815 0.03997 0.58352 0.0
C1532 C 0.62762 0.95721 0.53856 0.0
C1533 C 0.59666 0.99034 0.5575 0.0
C1534 C 0.63435 0.94129 0.51728 0.0
C1535 C 0.61508 0.93491 0.49778 0.0
C1536 C 0.60169 0.96751 0.53974 0.0
C1537 C 0.58866 0.94296 0.5011 0.0
C1538 C 0.57812 0.01005 0.55043 0.0
C1539 C 0.61428 0.01868 0.59182 0.0
N1540 N 0.58283 0.95964 0.52137 0.0
N1541 N 0.6136 0.99499 0.57835 0.0
H1542 H 0.31066 0.32854 0.74171 0.0
H1543 H 0.17306 0.3622 0.80696 0.0
H1544 H 0.24935 0.37401 0.70233 0.0
H1545 H 0.22885 0.30509 0.83816 0.0
H1546 H 0.19793 0.36322 0.7662 0.0
H1547 H 0.27889 0.31637 0.77519 0.0
C1548 C 0.2904 0.33584 0.7401 0.0
C1549 C 0.28263 0.35262 0.71958 0.0
C1550 C 0.20441 0.35 0.78171 0.0
C1551 C 0.24618 0.33892 0.75779 0.0
C1552 C 0.19015 0.34932 0.80482 0.0
C1553 C 0.19882 0.33313 0.82548 0.0
C1554 C 0.22788 0.33502 0.77978 0.0
C1555 C 0.22143 0.31743 0.82234 0.0
C1556 C 0.27221 0.32879 0.75912 0.0
C1557 C 0.2561 0.36122 0.71808 0.0
N1558 N 0.23538 0.31895 0.79997 0.0
N1559 N 0.23884 0.35458 0.73721 0.0
H1560 H 0.40206 0.41858 0.53453 0.0
H1561 H 0.39012 0.57464 0.5051 0.0
H1562 H 0.40043 0.47919 0.59599 0.0
H1563 H 0.40352 0.51324 0.44646 0.0
H1564 H 0.39509 0.54076 0.53913 0.0
H1565 H 0.40359 0.45372 0.50237 0.0
C1566 C 0.40232 0.43936 0.54133 0.0
C1567 C 0.40148 0.446 0.56803 0.0
C1568 C 0.39719 0.5348 0.51884 0.0
C1569 C 0.40255 0.48649 0.53105 0.0
C1570 C 0.39437 0.55405 0.49947 0.0
C1571 C 0.39624 0.54648 0.47309 0.0
C1572 C 0.40178 0.50796 0.51155 0.0
C1573 C 0.40178 0.51974 0.46665 0.0
C1574 C 0.40309 0.45946 0.52287 0.0
C1575 C 0.40114 0.47326 0.57556 0.0
N1576 N 0.40419 0.50135 0.48581 0.0
N1577 N 0.40157 0.49264 0.55706 0.0
H1578 H 0.70918 0.2047 0.20238 0.0
H1579 H 0.84416 0.1351 0.24584 0.0
H1580 H 0.74324 0.13654 0.16274 0.0
H1581 H 0.79468 0.18296 0.29553 0.0
H1582 H 0.81747 0.14942 0.20768 0.0
H1583 H 0.75078 0.21073 0.22802 0.0
C1584 C 0.72552 0.19122 0.19885 0.0
C1585 C 0.72235 0.1693 0.18139 0.0
C1586 C 0.81302 0.15738 0.22688 0.0
C1587 C 0.76992 0.17633 0.21018 0.0
C1588 C 0.82821 0.14928 0.24855 0.0
C1589 C 0.82104 0.15748 0.27369 0.0
C1590 C 0.79089 0.17391 0.23066 0.0
C1591 C 0.80035 0.1758 0.27642 0.0
C1592 C 0.74931 0.19482 0.21329 0.0
C1593 C 0.74457 0.15324 0.17659 0.0
N1594 N 0.78572 0.18315 0.25516 0.0
N1595 N 0.76729 0.15668 0.19141 0.0
H1596 H 0.6303 0.98714 0.91074 0.0
H1597 H 0.5834 0.02602 0.04821 0.0
H1598 H 0.5613 0.95006 0.94587 0.0
H1599 H 0.62799 0.08311 1.00239 0.0
H1600 H 0.57172 1.00059 0.00862 0.0
H1601 H 0.62626 0.02595 0.94037 0.0
C1602 C 0.6139 0.98753 0.92422 0.0
C1603 C 0.5967 0.96512 0.92672 0.0
C1604 C 0.58358 0.01899 0.00703 0.0
C1605 C 0.59208 0.00887 0.96038 0.0
C1606 C 0.59031 0.03345 0.02967 0.0
C1607 C 0.60666 0.05657 0.02841 0.0
C1608 C 0.59402 0.02725 0.98311 0.0
C1609 C 0.61539 0.06521 1.00401 0.0
C1610 C 0.61158 0.00963 0.94106 0.0
C1611 C 0.57559 0.96659 0.94413 0.0
N1612 N 0.60939 0.05017 0.98222 0.0
N1613 N 0.57418 0.9879 0.96073 0.0
H1614 H 0.95691 0.03793 0.42283 0.0
H1615 H 0.89129 0.01977 0.56228 0.0
H1616 H 0.89162 0.08555 0.44982 0.0
H1617 H 0.92916 0.95619 0.51919 0.0
H1618 H 0.90305 0.0514 0.52765 0.0
H1619 H 0.9587 0.01534 0.46526 0.0
C1620 C 0.94344 0.04397 0.43802 0.0
C1621 C 0.92426 0.06351 0.43332 0.0
C1622 C 0.90901 0.03057 0.52606 0.0
C1623 C 0.92583 0.03794 0.4811 0.0
C1624 C 0.90226 0.01259 0.54564 0.0
C1625 C 0.90877 0.98537 0.54306 0.0
C1626 C 0.92258 0.02111 0.50417 0.0
C1627 C 0.92331 0.97698 0.52149 0.0
C1628 C 0.94438 0.03115 0.46204 0.0
C1629 C 0.90681 0.07062 0.45312 0.0
N1630 N 0.92961 0.9948 0.5027 0.0
N1631 N 0.9079 0.05767 0.47628 0.0
H1632 H 0.11543 0.331 0.49279 0.0
H1633 H 0.12597 0.17415 0.52984 0.0
H1634 H 0.1394 0.27191 0.43587 0.0
H1635 H 0.13245 0.23909 0.58659 0.0
H1636 H 0.12464 0.2078 0.49457 0.0
H1637 H 0.11599 0.29634 0.52634 0.0
C1638 C 0.121 0.31075 0.48726 0.0
C1639 C 0.12763 0.30474 0.46121 0.0
C1640 C 0.1261 0.21466 0.51476 0.0
C1641 C 0.12767 0.26411 0.50014 0.0
C1642 C 0.1265 0.19541 0.535 0.0
C1643 C 0.12899 0.20358 0.56151 0.0
C1644 C 0.12773 0.24247 0.5209 0.0
C1645 C 0.1303 0.2316 0.56664 0.0
C1646 C 0.12126 0.29084 0.50658 0.0
C1647 C 0.13448 0.2778 0.45562 0.0
N1648 N 0.12952 0.24978 0.54676 0.0
N1649 N 0.13411 0.25855 0.47476 0.0
H1650 H 0.04932 0.94243 0.80692 0.0
H1651 H 0.96495 0.83596 0.7171 0.0
H1652 H 0.06821 0.85803 0.80415 0.0
H1653 H 0.96696 0.92093 0.70035 0.0
H1654 H 0.99931 0.84361 0.75144 0.0
H1655 H 0.0164 0.93492 0.77117 0.0
C1656 C 0.04651 0.92219 0.79899 0.0
C1657 C 0.06177 0.90082 0.80907 0.0
C1658 C 0.99232 0.86064 0.74032 0.0
C1659 C 0.0233 0.89204 0.7675 0.0
C1660 C 0.97245 0.85635 0.72063 0.0
C1661 C 0.96258 0.87783 0.70555 0.0
C1662 C 1.0025 0.88678 0.74574 0.0
C1663 C 0.97369 0.90367 0.71125 0.0
C1664 C 0.02767 0.91799 0.77833 0.0
C1665 C 0.05709 0.87519 0.79736 0.0
N1666 N 0.99272 0.90741 0.73093 0.0
N1667 N 0.03823 0.87152 0.77752 0.0
H1668 H 0.41577 0.8069 0.05687 0.0
H1669 H 0.34707 0.70364 0.95188 0.0
H1670 H 0.33225 0.78396 0.05956 0.0
H1671 H 0.42924 0.6959 0.97781 0.0
H1672 H 0.3416 0.7391 0.98548 0.0
H1673 H 0.42153 0.77246 0.02226 0.0
C1674 C 0.39863 0.79474 0.05022 0.0
C1675 C 0.37353 0.79828 0.06157 0.0
C1676 C 0.36083 0.72962 0.98379 0.0
C1677 C 0.37989 0.7591 0.02129 0.0
C1678 C 0.36398 0.70936 0.96454 0.0
C1679 C 0.38858 0.69633 0.96205 0.0
C1680 C 0.3826 0.73766 1.00033 0.0
C1681 C 0.40978 0.70496 0.97911 0.0
C1682 C 0.40195 0.77501 0.03047 0.0
C1683 C 0.35207 0.78184 0.05181 0.0
N1684 N 0.40638 0.72507 0.99724 0.0
N1685 N 0.35568 0.76327 0.03227 0.0
H1686 H 0.49663 0.11551 0.34378 0.0
H1687 H 0.52856 0.12328 0.19088 0.0
H1688 H 0.43593 0.13755 0.28707 0.0
H1689 H 0.5887 0.1357 0.25201 0.0
H1690 H 0.49391 0.12228 0.22452 0.0
H1691 H 0.53 0.11722 0.30951 0.0
C1692 C 0.49028 0.12092 0.32415 0.0
C1693 C 0.46329 0.12667 0.31857 0.0
C1694 C 0.51472 0.12511 0.23052 0.0
C1695 C 0.50173 0.12791 0.27862 0.0
C1696 C 0.53459 0.12542 0.21132 0.0
C1697 C 0.56181 0.12942 0.21845 0.0
C1698 C 0.52204 0.1283 0.25721 0.0
C1699 C 0.56813 0.13249 0.24537 0.0
C1700 C 0.50943 0.12184 0.30451 0.0
C1701 C 0.45649 0.13334 0.29252 0.0
N1702 N 0.54859 0.13169 0.26358 0.0
N1703 N 0.47544 0.13351 0.27354 0.0
H1704 H 0.12505 0.83566 0.9813 0.0
H1705 H 0.12345 0.67691 0.01175 0.0
H1706 H 0.14397 0.77458 0.9243 0.0
H1707 H 0.13715 0.73604 0.07341 0.0
H1708 H 0.12511 0.71294 0.97954 0.0
H1709 H 0.12311 0.80041 0.01504 0.0
C1710 C 0.12842 0.81488 0.97572 0.0
C1711 C 0.13459 0.80829 0.94966 0.0
C1712 C 0.1279 0.71814 1.00008 0.0
C1713 C 0.13237 0.76763 0.98842 0.0
C1714 C 0.12699 0.69746 0.01861 0.0
C1715 C 0.13044 0.70313 0.04557 0.0
C1716 C 0.1317 0.74518 0.00824 0.0
C1717 C 0.13475 0.73046 0.05293 0.0
C1718 C 0.12756 0.79476 0.9951 0.0
C1719 C 0.13913 0.78087 0.94396 0.0
N1720 N 0.13502 0.75037 0.0345 0.0
N1721 N 0.13778 0.76178 0.96295 0.0
H1722 H 0.42659 0.87495 0.23161 0.0
H1723 H 0.58464 0.8739 0.26623 0.0
H1724 H 0.48654 0.89846 0.17678 0.0
H1725 H 0.52717 0.88553 0.32657 0.0
H1726 H 0.54856 0.87673 0.23306 0.0
H1727 H 0.4621 0.87186 0.26595 0.0
C1728 C 0.44719 0.87894 0.22655 0.0
C1729 C 0.45331 0.88673 0.20088 0.0
C1730 C 0.54373 0.87882 0.25352 0.0
C1731 C 0.49444 0.88334 0.24054 0.0
C1732 C 0.56446 0.87727 0.27261 0.0
C1733 C 0.55933 0.87981 0.29952 0.0
C1734 C 0.51707 0.88223 0.261 0.0
C1735 C 0.53241 0.88388 0.3062 0.0
C1736 C 0.46749 0.87749 0.24634 0.0
C1737 C 0.48058 0.8922 0.19603 0.0
N1738 N 0.51241 0.88467 0.28722 0.0
N1739 N 0.49987 0.89024 0.21539 0.0
H1740 H 0.41152 0.19267 0.46316 0.0
H1741 H 0.34584 0.29824 0.56312 0.0
H1742 H 0.32984 0.21826 0.4545 0.0
H1743 H 0.43072 0.29521 0.55049 0.0
H1744 H 0.3386 0.26396 0.52797 0.0
H1745 H 0.41815 0.22535 0.49961 0.0
C1746 C 0.39499 0.2051 0.46884 0.0
C1747 C 0.37017 0.20278 0.45534 0.0
C1748 C 0.35881 0.2708 0.53301 0.0
C1749 C 0.37745 0.23994 0.49768 0.0
C1750 C 0.36294 0.29029 0.55318 0.0
C1751 C 0.38891 0.29993 0.55979 0.0
C1752 C 0.38083 0.26034 0.51969 0.0
C1753 C 0.41028 0.28875 0.54602 0.0
C1754 C 0.39878 0.22379 0.48969 0.0
C1755 C 0.34947 0.21947 0.46392 0.0
N1756 N 0.4058 0.26965 0.52688 0.0
N1757 N 0.35351 0.23709 0.48447 0.0
H1758 H 0.94234 0.17777 0.78728 0.0
H1759 H 0.03855 0.08371 0.70583 0.0
H1760 H 0.95751 0.09584 0.80974 0.0
H1761 H 0.04819 0.17034 0.70747 0.0
H1762 H 0.00575 0.08701 0.74047 0.0
H1763 H 0.9774 0.17469 0.75483 0.0
C1764 C 0.9529 0.159 0.78534 0.0
C1765 C 0.94663 0.13694 0.80134 0.0
C1766 C 0.01509 0.10531 0.73337 0.0
C1767 C 0.98708 0.1333 0.76369 0.0
C1768 C 0.03381 0.1035 0.71344 0.0
C1769 C 0.04628 0.12682 0.70349 0.0
C1770 C 0.0081 0.13068 0.74329 0.0
C1771 C 0.03925 0.1518 0.71445 0.0
C1772 C 0.97311 0.15737 0.76684 0.0
C1773 C 0.96146 0.11336 0.79792 0.0
N1774 N 0.02049 0.15307 0.73347 0.0
N1775 N 0.98071 0.11208 0.77936 0.0
H1776 H 0.2169 0.55722 0.18013 0.0
H1777 H 0.31725 0.4828 0.0842 0.0
H1778 H 0.20549 0.55974 0.09637 0.0
H1779 H 0.30344 0.45465 0.16221 0.0
H1780 H 0.28043 0.51451 0.08881 0.0
H1781 H 0.25186 0.52381 0.17459 0.0
C1782 C 0.22174 0.55092 0.16047 0.0
C1783 C 0.20793 0.56177 0.13871 0.0
C1784 C 0.28542 0.50146 0.10496 0.0
C1785 C 0.24899 0.52306 0.13221 0.0
C1786 C 0.30668 0.48333 0.10245 0.0
C1787 C 0.31399 0.46583 0.12291 0.0
C1788 C 0.2713 0.50294 0.12841 0.0
C1789 C 0.29891 0.46758 0.14586 0.0
C1790 C 0.24178 0.5316 0.15737 0.0
C1791 C 0.21535 0.55221 0.11382 0.0
N1792 N 0.27871 0.48585 0.14804 0.0
N1793 N 0.23542 0.5338 0.11128 0.0
H1794 H 0.83725 0.01596 0.89214 0.0
H1795 H 0.6806 0.97607 0.88604 0.0
H1796 H 0.7776 0.07609 0.87883 0.0
H1797 H 0.74072 0.92128 0.86034 0.0
H1798 H 0.71539 0.01201 0.89055 0.0
H1799 H 0.80232 0.98058 0.88683 0.0
C1800 C 0.81687 0.02182 0.88781 0.0
C1801 C 0.81074 0.04935 0.88556 0.0
C1802 C 0.72099 0.99208 0.88409 0.0
C1803 C 0.7699 0.00835 0.88042 0.0
C1804 C 0.70112 0.97135 0.88177 0.0
C1805 C 0.70748 0.94521 0.87296 0.0
C1806 C 0.74782 0.98676 0.87816 0.0
C1807 C 0.7346 0.94087 0.86731 0.0
C1808 C 0.79682 1.00148 0.88487 0.0
C1809 C 0.78361 0.05531 0.8803 0.0
N1810 N 0.75356 0.96114 0.87019 0.0
N1811 N 0.76432 0.03517 0.87824 0.0
H1812 H 0.8156 0.05223 0.41443 0.0
H1813 H 0.70831 0.94462 0.35156 0.0
H1814 H 0.79512 0.04887 0.33202 0.0
H1815 H 0.70462 0.9718 0.43182 0.0
H1816 H 0.74439 0.97819 0.34466 0.0
H1817 H 0.77967 0.0184 0.42199 0.0
C1818 C 0.80372 0.04442 0.39792 0.0
C1819 C 0.80851 0.05385 0.37254 0.0
C1820 C 0.73563 0.97686 0.36378 0.0
C1821 C 0.7674 0.01447 0.38103 0.0
C1822 C 0.71493 0.95763 0.36773 0.0
C1823 C 0.70288 0.95537 0.39225 0.0
C1824 C 0.74512 0.99371 0.38461 0.0
C1825 C 0.71281 0.97288 0.41244 0.0
C1826 C 0.78309 0.02511 0.40225 0.0
C1827 C 0.79222 0.04266 0.35199 0.0
N1828 N 0.73329 0.99098 0.40825 0.0
N1829 N 0.77276 0.02366 0.35663 0.0
H1830 H 0.75816 0.91791 0.14432 0.0
H1831 H 0.72843 0.0763 0.13844 0.0
H1832 H 0.81907 0.97511 0.12174 0.0
H1833 H 0.66751 0.01577 0.12035 0.0
H1834 H 0.76207 0.04052 0.14031 0.0
H1835 H 0.72517 0.95399 0.14299 0.0
C1836 C 0.76467 0.93801 0.13897 0.0
C1837 C 0.79163 0.94312 0.13282 0.0
C1838 C 0.7413 0.03506 0.13615 0.0
C1839 C 0.7536 0.98523 0.1321 0.0
C1840 C 0.72195 0.0555 0.13536 0.0
C1841 C 0.69478 0.04927 0.12946 0.0
C1842 C 0.73357 0.00787 0.13161 0.0
C1843 C 0.68801 0.02177 0.12513 0.0
C1844 C 0.74572 0.95869 0.13824 0.0
C1845 C 0.79858 0.9699 0.12627 0.0
N1846 N 0.70705 1.00229 0.12649 0.0
N1847 N 0.77988 0.98985 0.12635 0.0
H1848 H 0.28501 0.44585 0.67449 0.0
H1849 H 0.20399 0.54334 0.57913 0.0
H1850 H 0.30696 0.45652 0.59421 0.0
H1851 H 0.20882 0.55828 0.66238 0.0
H1852 H 0.23743 0.50821 0.58398 0.0
H1853 H 0.25357 0.48294 0.67018 0.0
C1854 C 0.28321 0.45582 0.65582 0.0
C1855 C 0.29889 0.44756 0.63463 0.0
C1856 C 0.23123 0.51909 0.60123 0.0
C1857 C 0.26202 0.49054 0.62953 0.0
C1858 C 0.21188 0.53918 0.59856 0.0
C1859 C 0.20309 0.55402 0.6204 0.0
C1860 C 0.24188 0.51289 0.62608 0.0
C1861 C 0.21469 0.54757 0.64492 0.0
C1862 C 0.26523 0.47724 0.65348 0.0
C1863 C 0.29549 0.46186 0.61113 0.0
N1864 N 0.23311 0.52741 0.6471 0.0
N1865 N 0.27734 0.48225 0.60916 0.0
H1866 H 0.20068 0.45544 0.4119 0.0
H1867 H 0.3029 0.56036 0.34345 0.0
H1868 H 0.21853 0.45051 0.32996 0.0
H1869 H 0.30989 0.54136 0.42531 0.0
H1870 H 0.26749 0.52505 0.33823 0.0
H1871 H 0.23562 0.49129 0.41745 0.0
C1872 C 0.21179 0.46177 0.39504 0.0
C1873 C 0.20647 0.44928 0.37044 0.0
C1874 C 0.27678 0.5286 0.35736 0.0
C1875 C 0.24658 0.49136 0.3766 0.0
C1876 C 0.29711 0.5489 0.36036 0.0
C1877 C 0.31003 0.55406 0.38484 0.0
C1878 C 0.26841 0.51345 0.37906 0.0
C1879 C 0.30106 0.53823 0.40593 0.0
C1880 C 0.23188 0.48234 0.39824 0.0
C1881 C 0.22182 0.45895 0.34944 0.0
N1882 N 0.28097 0.51908 0.40261 0.0
N1883 N 0.24072 0.47923 0.35294 0.0
H1884 H 0.21089 0.4383 0.8454 0.0
H1885 H 0.3159 0.54604 0.91269 0.0
H1886 H 0.20748 0.46198 0.92667 0.0
H1887 H 0.29595 0.54554 0.83015 0.0
H1888 H 0.28118 0.51056 0.91864 0.0
H1889 H 0.24669 0.47265 0.8397 0.0
C1890 C 0.21758 0.4506 0.86205 0.0
C1891 C 0.20563 0.44719 0.88649 0.0
C1892 C 0.28448 0.51821 0.89921 0.0
C1893 C 0.24743 0.48645 0.88024 0.0
C1894 C 0.30444 0.53847 0.8958 0.0
C1895 C 0.309 0.54922 0.87089 0.0
C1896 C 0.26924 0.50794 0.87751 0.0
C1897 C 0.29322 0.5383 0.84982 0.0
C1898 C 0.23808 0.47031 0.85879 0.0
C1899 C 0.21559 0.46391 0.90732 0.0
N1900 N 0.27439 0.5184 0.85356 0.0
N1901 N 0.23579 0.48247 0.90378 0.0
H1902 H 0.62685 0.67535 0.02813 0.0
H1903 H 0.62376 0.83253 0.99182 0.0
H1904 H 0.6455 0.73964 0.08355 0.0
H1905 H 0.6352 0.77142 0.93262 0.0
H1906 H 0.62613 0.798 0.0254 0.0
H1907 H 0.62355 0.70904 0.99308 0.0
C1908 C 0.62973 0.69653 0.03309 0.0
C1909 C 0.63626 0.70451 0.05909 0.0
C1910 C 0.62827 0.79203 0.00512 0.0
C1911 C 0.63272 0.74334 0.01878 0.0
C1912 C 0.62696 0.81184 0.9858 0.0
C1913 C 0.62951 0.80516 0.95912 0.0
C1914 C 0.63164 0.76483 0.99806 0.0
C1915 C 0.63347 0.77774 0.95285 0.0
C1916 C 0.62817 0.71575 0.01296 0.0
C1917 C 0.64031 0.73234 0.06398 0.0
N1918 N 0.63418 0.75864 0.97207 0.0
N1919 N 0.63837 0.75055 0.04422 0.0
H1920 H 0.58165 0.37966 0.27642 0.0
H1921 H 0.42526 0.37775 0.2356 0.0
H1922 H 0.51991 0.40365 0.32883 0.0
H1923 H 0.48648 0.38233 0.17782 0.0
H1924 H 0.45977 0.3828 0.27021 0.0
H1925 H 0.54759 0.3751 0.2408 0.0
C1926 C 0.56093 0.38354 0.28063 0.0
C1927 C 0.55383 0.39194 0.30595 0.0
C1928 C 0.46575 0.38296 0.24999 0.0
C1929 C 0.51452 0.3869 0.2649 0.0
C1930 C 0.44595 0.38018 0.23009 0.0
C1931 C 0.45271 0.37991 0.20349 0.0
C1932 C 0.49293 0.38494 0.24364 0.0
C1933 C 0.48011 0.38284 0.1979 0.0
C1934 C 0.5415 0.38122 0.26014 0.0
C1935 C 0.52655 0.39707 0.30983 0.0
N1936 N 0.49914 0.38494 0.2177 0.0
N1937 N 0.50809 0.39438 0.28973 0.0
H1938 H 0.92725 0.20223 0.47791 0.0
H1939 H 0.82147 0.29112 0.55554 0.0
H1940 H 0.84468 0.20682 0.45244 0.0
H1941 H 0.90561 0.31192 0.55786 0.0
H1942 H 0.82956 0.25682 0.52183 0.0
H1943 H 0.91987 0.23818 0.51039 0.0
C1944 C 0.90746 0.2106 0.47911 0.0
C1945 C 0.88659 0.20095 0.46206 0.0
C1946 C 0.84634 0.26878 0.52967 0.0
C1947 C 0.87785 0.24266 0.50022 0.0
C1948 C 0.84178 0.28846 0.5492 0.0
C1949 C 0.86284 0.30478 0.56014 0.0
C1950 C 0.87238 0.26442 0.52086 0.0
C1951 C 0.8886 0.30008 0.55039 0.0
C1952 C 0.90332 0.23138 0.49774 0.0
C1953 C 0.86152 0.21325 0.46487 0.0
N1954 N 0.89262 0.28033 0.53172 0.0
N1955 N 0.85786 0.233 0.48357 0.0
H1956 H 0.96941 0.58161 0.80262 0.0
H1957 H 0.07022 0.67794 0.72681 0.0
H1958 H 0.95803 0.66743 0.79917 0.0
H1959 H 0.05527 0.59549 0.70195 0.0
H1960 H 0.03338 0.67395 0.75744 0.0
H1961 H 1.00447 0.58569 0.77007 0.0
C1962 C 0.97428 0.60139 0.79511 0.0
C1963 C 0.96059 0.62423 0.80394 0.0
C1964 C 0.03815 0.65671 0.74533 0.0
C1965 C 1.00144 0.62906 0.76655 0.0
C1966 C 0.05939 0.65886 0.72789 0.0
C1967 C 0.06625 0.63694 0.7117 0.0
C1968 C 0.02373 0.63223 0.74732 0.0
C1969 C 0.05095 0.61294 0.71396 0.0
C1970 C 0.9943 0.60364 0.77636 0.0
C1971 C 0.96786 0.64923 0.79309 0.0
N1972 N 0.03074 0.61115 0.73155 0.0
N1973 N 0.98791 0.651 0.77531 0.0
H1974 H 0.59222 0.30887 0.4505 0.0
H1975 H 0.67252 0.2127 0.54993 0.0
H1976 H 0.67627 0.29317 0.44331 0.0
H1977 H 0.58816 0.20116 0.53274 0.0
H1978 H 0.67416 0.24761 0.51605 0.0
H1979 H 0.59011 0.27498 0.48544 0.0
C1980 C 0.61024 0.29843 0.45619 0.0
C1981 C 0.63439 0.30394 0.44346 0.0
C1982 C 0.65528 0.23745 0.51973 0.0
C1983 C 0.63224 0.26527 0.4842 0.0
C1984 C 0.65431 0.2175 0.5392 0.0
C1985 C 0.63022 0.20354 0.54431 0.0
C1986 C 0.63187 0.24423 0.50548 0.0
C1987 C 0.60731 0.21099 0.52952 0.0
C1988 C 0.60901 0.27899 0.47618 0.0
C1989 C 0.65705 0.28959 0.4521 0.0
N1990 N 0.60867 0.23075 0.51108 0.0
N1991 N 0.65546 0.27127 0.47183 0.0
H1992 H 0.96224 0.42378 0.70756 0.0
H1993 H 0.05879 0.32306 0.78316 0.0
H1994 H 0.94563 0.33817 0.70834 0.0
H1995 H 0.05191 0.40623 0.80723 0.0
H1996 H 0.0207 0.32837 0.75258 0.0
H1997 H 0.99774 0.41804 0.74079 0.0
C1998 C 0.96599 0.4037 0.71472 0.0
C1999 C 0.95076 0.38141 0.70489 0.0
C2000 C 0.0275 0.34547 0.76453 0.0
C2001 C 0.99218 0.37465 0.74303 0.0
C2002 C 0.04947 0.34254 0.78193 0.0
C2003 C 0.05899 0.36429 0.79783 0.0
C2004 C 0.01501 0.37051 0.76237 0.0
C2005 C 0.04554 0.38888 0.79542 0.0
C2006 C 0.9863 0.40049 0.73383 0.0
C2007 C 0.95665 0.35598 0.71527 0.0
N2008 N 0.02456 0.39138 0.77792 0.0
N2009 N 0.97705 0.35326 0.73344 0.0
H2010 H 0.87949 0.8324 0.01834 0.0
H2011 H 0.8842 0.67561 0.97289 0.0
H2012 H 0.87673 0.76883 0.07483 0.0
H2013 H 0.86124 0.73975 0.92151 0.0
H2014 H 0.88626 0.7084 0.00988 0.0
H2015 H 0.87663 0.79856 0.98299 0.0
C2016 C 0.87787 0.81132 0.02347 0.0
C2017 C 0.87787 0.80394 0.05008 0.0
C2018 C 0.88094 0.71535 0.99048 0.0
C2019 C 0.87554 0.76406 0.00864 0.0
C2020 C 0.88005 0.69657 0.96913 0.0
C2021 C 0.8728 0.70457 0.94348 0.0
C2022 C 0.87491 0.74276 0.98649 0.0
C2023 C 0.86712 0.73223 0.94054 0.0
C2024 C 0.87638 0.79182 1.00305 0.0
C2025 C 0.87622 0.77589 0.05488 0.0
N2026 N 0.86844 0.74999 0.96141 0.0
N2027 N 0.87539 0.75719 0.03458 0.0
H2028 H 0.57701 0.64997 0.22419 0.0
H2029 H 0.4221 0.63658 0.25909 0.0
H2030 H 0.51736 0.61509 0.17087 0.0
H2031 H 0.48352 0.63335 0.3196 0.0
H2032 H 0.45664 0.63508 0.226 0.0
H2033 H 0.54324 0.65095 0.25866 0.0
C2034 C 0.55677 0.64293 0.21956 0.0
C2035 C 0.55009 0.63263 0.19437 0.0
C2036 C 0.46263 0.63451 0.24649 0.0
C2037 C 0.51125 0.63372 0.23387 0.0
C2038 C 0.44286 0.63531 0.26547 0.0
C2039 C 0.44972 0.63476 0.29232 0.0
C2040 C 0.48983 0.63387 0.25412 0.0
C2041 C 0.47716 0.63339 0.2992 0.0
C2042 C 0.53757 0.64323 0.23936 0.0
C2043 C 0.52355 0.62332 0.18984 0.0
N2044 N 0.49617 0.63328 0.28029 0.0
N2045 N 0.50522 0.62428 0.20918 0.0
H2046 H 0.84306 1.00322 0.62492 0.0
H2047 H 0.68541 0.03292 0.62366 0.0
H2048 H 0.78526 0.93889 0.63531 0.0
H2049 H 0.74571 0.09191 0.64808 0.0
H2050 H 0.72058 0.99864 0.62122 0.0
H2051 H 0.80711 0.03595 0.62733 0.0
C2052 C 0.82283 0.99588 0.62794 0.0
C2053 C 0.81755 0.96801 0.63028 0.0
C2054 C 0.7261 0.01913 0.62696 0.0
C2055 C 0.77549 0.00598 0.63223 0.0
C2056 C 0.70602 0.03887 0.62809 0.0
C2057 C 0.71237 0.06568 0.63592 0.0
C2058 C 0.75303 0.02618 0.63317 0.0
C2059 C 0.73959 0.07172 0.64184 0.0
C2060 C 0.80219 0.01472 0.62925 0.0
C2061 C 0.79058 0.96007 0.63385 0.0
N2062 N 0.75867 0.05239 0.64018 0.0
N2063 N 0.77066 0.97882 0.63446 0.0
H2064 H 0.12199 0.5235 0.17619 0.0
H2065 H 0.11987 0.48288 0.32812 0.0
H2066 H 0.13677 0.58126 0.23894 0.0
H2067 H 0.13708 0.42626 0.26633 0.0
H2068 H 0.11766 0.51895 0.29551 0.0
H2069 H 0.11909 0.48752 0.20872 0.0
C2070 C 0.12421 0.52873 0.19678 0.0
C2071 C 0.1296 0.5556 0.2047 0.0
C2072 C 0.12166 0.49856 0.28909 0.0
C2073 C 0.12618 0.51432 0.24221 0.0
C2074 C 0.12271 0.47789 0.30769 0.0
C2075 C 0.12856 0.45134 0.30006 0.0
C2076 C 0.12598 0.49267 0.26251 0.0
C2077 C 0.13249 0.44634 0.27323 0.0
C2078 C 0.12274 0.50812 0.21536 0.0
C2079 C 0.13263 0.56093 0.23179 0.0
N2080 N 0.13104 0.46666 0.25553 0.0
N2081 N 0.13081 0.5406 0.24947 0.0
H2082 H 0.72985 0.84797 0.44956 0.0
H2083 H 0.80646 0.93683 0.56114 0.0
H2084 H 0.70195 0.92274 0.48222 0.0
H2085 H 0.82354 0.85233 0.5529 0.0
H2086 H 0.77046 0.93158 0.52867 0.0
H2087 H 0.76634 0.84853 0.48335 0.0
C2088 C 0.73126 0.86442 0.4637 0.0
C2089 C 0.7125 0.88529 0.46284 0.0
C2090 C 0.78186 0.914 0.53387 0.0
C2091 C 0.75431 0.8861 0.50141 0.0
C2092 C 0.80259 0.91702 0.5525 0.0
C2093 C 0.81823 0.89503 0.55988 0.0
C2094 C 0.77649 0.88879 0.52182 0.0
C2095 C 0.81193 0.86982 0.54797 0.0
C2096 C 0.75204 0.86464 0.48306 0.0
C2097 C 0.71555 0.90603 0.48185 0.0
N2098 N 0.79169 0.86741 0.52932 0.0
N2099 N 0.73588 0.90591 0.49998 0.0
H2100 H 0.41318 0.43695 0.71254 0.0
H2101 H 0.3446 0.56839 0.77266 0.0
H2102 H 0.33465 0.46454 0.69074 0.0
H2103 H 0.40975 0.52951 0.81323 0.0
H2104 H 0.34581 0.53416 0.73831 0.0
H2105 H 0.41735 0.47425 0.7452 0.0
C2106 C 0.39713 0.45116 0.71425 0.0
C2107 C 0.37361 0.44783 0.69884 0.0
C2108 C 0.35999 0.5331 0.75461 0.0
C2109 C 0.37809 0.49018 0.73598 0.0
C2110 C 0.3594 0.55281 0.77432 0.0
C2111 C 0.37712 0.55203 0.79609 0.0
C2112 C 0.37856 0.51225 0.75625 0.0
C2113 C 0.39568 0.531 0.79691 0.0
C2114 C 0.39937 0.47223 0.73301 0.0
C2115 C 0.35315 0.46645 0.70216 0.0
N2116 N 0.39592 0.51195 0.7773 0.0
N2117 N 0.35588 0.48672 0.72022 0.0
H2118 H 0.83158 0.11167 0.99621 0.0
H2119 H 0.67652 0.11677 0.02468 0.0
H2120 H 0.77426 0.13596 0.93705 0.0
H2121 H 0.7358 0.1355 0.08529 0.0
H2122 H 0.71175 0.11837 0.99213 0.0
H2123 H 0.7967 0.11481 0.02909 0.0
C2124 C 0.8117 0.11775 0.99013 0.0
C2125 C 0.80593 0.12368 0.96378 0.0
C2126 C 0.71701 0.12236 0.01252 0.0
C2127 C 0.76575 0.12677 1.00133 0.0
C2128 C 0.69692 0.12142 0.03114 0.0
C2129 C 0.70314 0.12619 0.05781 0.0
C2130 C 0.74374 0.12737 0.02058 0.0
C2131 C 0.73001 0.13199 0.06496 0.0
C2132 C 0.79184 0.11962 0.00894 0.0
C2133 C 0.77973 0.13143 0.95712 0.0
N2134 N 0.74935 0.13206 0.04654 0.0
N2135 N 0.76058 0.13242 0.97566 0.0
H2136 H 0.20546 0.17858 0.55321 0.0
H2137 H 0.30748 0.0949 0.46925 0.0
H2138 H 0.20359 0.09159 0.55473 0.0
H2139 H 0.2783 0.17285 0.4468 0.0
H2140 H 0.27401 0.0933 0.50383 0.0
H2141 H 0.23688 0.17704 0.5176 0.0
C2142 C 0.21175 0.15908 0.54609 0.0
C2143 C 0.20195 0.13515 0.55709 0.0
C2144 C 0.2749 0.11059 0.49113 0.0
C2145 C 0.23829 0.1333 0.51617 0.0
C2146 C 0.29403 0.11158 0.47147 0.0
C2147 C 0.29572 0.13401 0.45497 0.0
C2148 C 0.25778 0.13241 0.49463 0.0
C2149 C 0.27774 0.15505 0.45884 0.0
C2150 C 0.22962 0.15824 0.52563 0.0
C2151 C 0.21062 0.1105 0.54678 0.0
N2152 N 0.25979 0.15382 0.47833 0.0
N2153 N 0.22857 0.11018 0.52702 0.0
H2154 H 0.12338 0.00684 0.82667 0.0
H2155 H 0.1166 0.02264 0.67167 0.0
H2156 H 0.1429 0.94106 0.77505 0.0
H2157 H 0.13227 0.09036 0.72398 0.0
H2158 H 0.12293 0.99204 0.70869 0.0
H2159 H 0.12305 0.03725 0.78922 0.0
C2160 C 0.12787 0.99879 0.8075 0.0
C2161 C 0.13346 0.97126 0.80423 0.0
C2162 C 0.1253 0.01358 0.712 0.0
C2163 C 0.13244 0.00615 0.7608 0.0
C2164 C 0.12172 0.03113 0.69083 0.0
C2165 C 0.1241 0.05929 0.69447 0.0
C2166 C 0.13067 0.02412 0.73732 0.0
C2167 C 0.13052 0.06889 0.71997 0.0
C2168 C 0.12768 0.01623 0.78608 0.0
C2169 C 0.13887 0.96212 0.77871 0.0
N2170 N 0.13321 0.05147 0.74033 0.0
N2171 N 0.13792 0.97938 0.75803 0.0
H2172 H 0.23253 0.84435 0.93742 0.0
H2173 H 0.30224 0.91585 0.06361 0.0
H2174 H 0.19578 0.91499 0.96988 0.0
H2175 H 0.30363 0.8308 0.04549 0.0
H2176 H 0.26952 0.9215 0.0267 0.0
H2177 H 0.26494 0.84523 0.97313 0.0
C2178 C 0.23117 0.86037 0.95191 0.0
C2179 C 0.21075 0.87959 0.95019 0.0
C2180 C 0.2771 0.90167 0.03088 0.0
C2181 C 0.24918 0.88057 0.9923 0.0
C2182 C 0.29599 0.89847 0.05179 0.0
C2183 C 0.30591 0.87276 0.0578 0.0
C2184 C 0.26859 0.87913 0.01546 0.0
C2185 C 0.29667 0.851 0.04186 0.0
C2186 C 0.24995 0.86071 0.97259 0.0
C2187 C 0.21091 0.89969 0.9701 0.0
N2188 N 0.27894 0.85471 0.02162 0.0
N2189 N 0.22975 0.89965 0.9903 0.0
H2190 H 0.37407 0.08654 0.28834 0.0
H2191 H 0.36858 0.93292 0.23825 0.0
H2192 H 0.39493 0.02046 0.33835 0.0
H2193 H 0.3925 0.99779 0.18794 0.0
H2194 H 0.36707 0.96525 0.27497 0.0
H2195 H 0.36941 0.05455 0.25107 0.0
C2196 C 0.37702 0.06525 0.29159 0.0
C2197 C 0.38474 0.05611 0.3165 0.0
C2198 C 0.3724 0.9724 0.25582 0.0
C2199 C 0.37937 0.01953 0.27412 0.0
C2200 C 0.37314 0.95401 0.23482 0.0
C2201 C 0.38069 0.96263 0.20994 0.0
C2202 C 0.37861 0.99978 0.25186 0.0
C2203 C 0.38667 0.99023 0.20679 0.0
C2204 C 0.37464 0.04709 0.27031 0.0
C2205 C 0.38887 0.02835 0.3195 0.0
N2206 N 0.38537 0.00783 0.22743 0.0
N2207 N 0.38603 0.01107 0.29865 0.0
H2208 H 0.45465 0.28819 0.18172 0.0
H2209 H 0.56055 0.19717 0.10777 0.0
H2210 H 0.46994 0.30067 0.10005 0.0
H2211 H 0.56655 0.21703 0.19014 0.0
H2212 H 0.5239 0.22968 0.10312 0.0
H2213 H 0.4914 0.25645 0.18377 0.0
C2214 C 0.46555 0.28415 0.16408 0.0
C2215 C 0.4589 0.29733 0.14063 0.0
C2216 C 0.5334 0.22695 0.12214 0.0
C2217 C 0.50146 0.26034 0.14291 0.0
C2218 C 0.55434 0.20836 0.12484 0.0
C2219 C 0.56704 0.20431 0.14937 0.0
C2220 C 0.5245 0.24116 0.14425 0.0
C2221 C 0.55779 0.21945 0.17075 0.0
C2222 C 0.48673 0.26604 0.16534 0.0
C2223 C 0.47421 0.29114 0.11858 0.0
N2224 N 0.53713 0.23681 0.16773 0.0
N2225 N 0.49456 0.27303 0.12019 0.0
H2226 H 0.92503 0.24089 0.86607 0.0
H2227 H 0.08289 0.26015 0.86287 0.0
H2228 H 0.97728 0.17569 0.88553 0.0
H2229 H 0.03255 0.32674 0.88189 0.0
H2230 H 0.04473 0.22895 0.86836 0.0
H2231 H 0.9635 0.27247 0.86912 0.0
C2232 C 0.94453 0.23323 0.87145 0.0
C2233 C 0.94765 0.20546 0.87593 0.0
C2234 C 0.04204 0.25032 0.8717 0.0
C2235 C 0.99238 0.24177 0.87852 0.0
C2236 C 0.06389 0.26823 0.86859 0.0
C2237 C 0.06121 0.29625 0.87223 0.0
C2238 C 0.01676 0.26033 0.8777 0.0
C2239 C 0.03582 0.30536 0.8793 0.0
C2240 C 0.96655 0.25135 0.87313 0.0
C2241 C 0.97366 0.19687 0.8824 0.0
N2242 N 0.01461 0.28759 0.88138 0.0
N2243 N 0.99495 0.21479 0.88308 0.0
H2244 H 0.96731 0.80335 0.07804 0.0
H2245 H 0.06167 0.70059 0.15444 0.0
H2246 H 0.95288 0.78627 0.1591 0.0
H2247 H 0.04484 0.69739 0.07126 0.0
H2248 H 0.02682 0.73512 0.1588 0.0
H2249 H 1.00081 0.76855 0.07748 0.0
C2250 C 0.9712 0.79239 0.09589 0.0
C2251 C 0.95698 0.79806 0.11869 0.0
C2252 C 0.03077 0.72668 0.13967 0.0
C2253 C 0.9962 0.75753 0.11811 0.0
C2254 C 0.05074 0.70702 0.13713 0.0
C2255 C 0.05635 0.69578 0.11242 0.0
C2256 C 0.01672 0.73566 0.11728 0.0
C2257 C 0.04137 0.70511 0.09077 0.0
C2258 C 0.99041 0.77229 0.09547 0.0
C2259 C 0.96315 0.78269 0.14102 0.0
N2260 N 0.02265 0.72443 0.09369 0.0
N2261 N 0.9824 0.76329 0.14024 0.0
H2262 H 0.55378 0.80974 0.40785 0.0
H2263 H 0.44782 0.72158 0.32065 0.0
H2264 H 0.55748 0.7956 0.32457 0.0
H2265 H 0.45741 0.70418 0.40281 0.0
H2266 H 0.4844 0.75414 0.32447 0.0
H2267 H 0.51597 0.77647 0.40915 0.0
C2268 C 0.5468 0.79979 0.38991 0.0
C2269 C 0.55925 0.80567 0.36608 0.0
C2270 C 0.47865 0.74339 0.34182 0.0
C2271 C 0.51568 0.76778 0.3674 0.0
C2272 C 0.45742 0.72466 0.33972 0.0
C2273 C 0.44902 0.70979 0.36144 0.0
C2274 C 0.4921 0.74809 0.36595 0.0
C2275 C 0.46298 0.715 0.38545 0.0
C2276 C 0.52526 0.78068 0.39069 0.0
C2277 C 0.54905 0.79192 0.34353 0.0
N2278 N 0.4837 0.73376 0.3871 0.0
N2279 N 0.5281 0.77406 0.34479 0.0
H2280 H 0.99881 0.83388 0.62622 0.0
H2281 H 0.03962 0.67782 0.62565 0.0
H2282 H 0.94131 0.76976 0.63917 0.0
H2283 H 0.094 0.74191 0.65121 0.0
H2284 H 1.00392 0.71119 0.62051 0.0
H2285 H 0.03443 0.80037 0.62541 0.0
C2286 C 0.99356 0.81275 0.62845 0.0
C2287 C 0.9669 0.80475 0.63273 0.0
C2288 C 0.02379 0.71794 0.62691 0.0
C2289 C 0.00772 0.76611 0.63158 0.0
C2290 C 0.04422 0.69894 0.62961 0.0
C2291 C 0.06994 0.70704 0.63874 0.0
C2292 C 0.02921 0.74538 0.6328 0.0
C2293 C 0.07453 0.73471 0.64407 0.0
C2294 C 0.01396 0.79363 0.62816 0.0
C2295 C 0.96152 0.77697 0.63585 0.0
N2296 N 0.05452 0.75279 0.64092 0.0
N2297 N 0.98163 0.75873 0.63511 0.0
H2298 H 0.08237 0.27818 0.37295 0.0
H2299 H 0.92708 0.23094 0.3796 0.0
H2300 H 0.02093 0.33203 0.39752 0.0
H2301 H 0.99219 0.17667 0.39233 0.0
H2302 H 0.96002 0.26848 0.37582 0.0
H2303 H 0.04859 0.24131 0.36968 0.0
C2304 C 0.06172 0.28248 0.37709 0.0
C2305 C 0.05468 0.30851 0.38541 0.0
C2306 C 0.96708 0.24826 0.37902 0.0
C2307 C 0.01556 0.26607 0.38157 0.0
C2308 C 0.94826 0.22674 0.38088 0.0
C2309 C 0.95675 0.20039 0.386 0.0
C2310 C 0.99475 0.24346 0.38173 0.0
C2311 C 0.9846 0.1965 0.38817 0.0
C2312 C 0.04243 0.2613 0.37544 0.0
C2313 C 0.02747 0.31245 0.39097 0.0
N2314 N 1.00244 0.21758 0.38593 0.0
N2315 N 0.00905 0.29165 0.38888 0.0
H2316 H 0.45148 0.71404 0.9312 0.0
H2317 H 0.56771 0.78992 0.85347 0.0
H2318 H 0.46419 0.69314 0.85046 0.0
H2319 H 0.53069 0.82064 0.92287 0.0
H2320 H 0.53307 0.75338 0.85099 0.0
H2321 H 0.48324 0.75154 0.92794 0.0
C2322 C 0.46083 0.71748 0.9126 0.0
C2323 C 0.45484 0.70031 0.89107 0.0
C2324 C 0.53251 0.76834 0.86657 0.0
C2325 C 0.49237 0.74371 0.88721 0.0
C2326 C 0.55231 0.78929 0.86799 0.0
C2327 C 0.55249 0.80871 0.88845 0.0
C2328 C 0.5129 0.76653 0.88592 0.0
C2329 C 0.53186 0.80643 0.90672 0.0
C2330 C 0.47911 0.73904 0.91073 0.0
C2331 C 0.46787 0.70597 0.86751 0.0
N2332 N 0.51338 0.78589 0.90509 0.0
N2333 N 0.48622 0.72698 0.86627 0.0
H2334 H 0.62405 0.03007 0.67929 0.0
H2335 H 0.62503 0.98375 0.82875 0.0
H2336 H 0.65101 0.08398 0.7418 0.0
H2337 H 0.64096 0.92858 0.76542 0.0
H2338 H 0.62551 0.0212 0.79754 0.0
H2339 H 0.62115 0.99328 0.71085 0.0
C2340 C 0.62902 0.03432 0.6997 0.0
C2341 C 0.6377 0.06036 0.7078 0.0
C2342 C 0.62868 1.00085 0.79048 0.0
C2343 C 0.63411 0.01807 0.74426 0.0
C2344 C 0.62817 0.97941 0.80824 0.0
C2345 C 0.63277 0.95282 0.79975 0.0
C2346 C 0.63313 0.99573 0.76382 0.0
C2347 C 0.63723 0.94864 0.77292 0.0
C2348 C 0.62752 0.0132 0.71769 0.0
C2349 C 0.64422 0.06434 0.73457 0.0
N2350 N 0.63708 0.96972 0.75597 0.0
N2351 N 0.64209 0.04356 0.75181 0.0
H2352 H 0.31636 0.34745 0.05611 0.0
H2353 H 0.20119 0.42145 0.9749 0.0
H2354 H 0.30833 0.43368 0.05062 0.0
H2355 H 0.22637 0.34252 0.9502 0.0
H2356 H 0.23624 0.42249 0.00849 0.0
H2357 H 0.27967 0.34163 0.02279 0.0
C2358 C 0.30686 0.36506 0.04807 0.0
C2359 C 0.31561 0.39109 0.05603 0.0
C2360 C 0.23419 0.40485 0.99582 0.0
C2361 C 0.27377 0.38461 0.01844 0.0
C2362 C 0.214 0.40415 0.97657 0.0
C2363 C 0.21066 0.38183 0.95951 0.0
C2364 C 0.25139 0.38298 0.99854 0.0
C2365 C 0.22826 0.3602 0.96279 0.0
C2366 C 0.28612 0.36174 0.02898 0.0
C2367 C 0.3026 0.41321 0.04492 0.0
N2368 N 0.24786 0.36125 0.98202 0.0
N2369 N 0.28244 0.40945 0.02694 0.0
H2370 H 0.86409 0.9126 0.23664 0.0
H2371 H 0.86764 0.07145 0.26477 0.0
H2372 H 0.88105 0.96944 0.17591 0.0
H2373 H 0.88783 0.01519 0.32532 0.0
H2374 H 0.86848 0.03457 0.23227 0.0
H2375 H 0.86896 0.94929 0.26932 0.0
C2376 C 0.86923 0.9327 0.23011 0.0
C2377 C 0.8725 0.93756 0.20322 0.0
C2378 C 0.87293 0.03026 0.25261 0.0
C2379 C 0.87725 0.98035 0.24099 0.0
C2380 C 0.87243 0.05138 0.27131 0.0
C2381 C 0.87788 0.04675 0.29807 0.0
C2382 C 0.87821 1.00376 0.26049 0.0
C2383 C 0.88379 0.02003 0.30503 0.0
C2384 C 0.87195 0.95373 0.2489 0.0
C2385 C 0.87876 0.96437 0.19628 0.0
N2386 N 0.88346 0.99966 0.28655 0.0
N2387 N 0.88055 0.98462 0.21485 0.0
H2388 H 0.18276 0.62324 0.51819 0.0
H2389 H 0.33796 0.62386 0.48862 0.0
H2390 H 0.24276 0.63986 0.57872 0.0
H2391 H 0.27787 0.64033 0.42919 0.0
H2392 H 0.30368 0.62667 0.52193 0.0
H2393 H 0.21738 0.62636 0.48536 0.0
C2394 C 0.20321 0.62774 0.52459 0.0
C2395 C 0.20982 0.63136 0.55132 0.0
C2396 C 0.29807 0.62996 0.50164 0.0
C2397 C 0.24973 0.63456 0.51366 0.0
C2398 C 0.31761 0.62831 0.48257 0.0
C2399 C 0.31086 0.63197 0.45599 0.0
C2400 C 0.27139 0.63475 0.49412 0.0
C2401 C 0.2841 0.63759 0.4494 0.0
C2402 C 0.22296 0.62959 0.50578 0.0
C2403 C 0.2367 0.63714 0.55836 0.0
N2404 N 0.26532 0.6385 0.46827 0.0
N2405 N 0.25572 0.63825 0.53968 0.0
H2406 H 0.7042 0.59138 0.04405 0.0
H2407 H 0.78668 0.67712 0.94143 0.0
H2408 H 0.7186 0.67738 0.05014 0.0
H2409 H 0.805 0.59354 0.95437 0.0
H2410 H 0.75539 0.67542 0.97699 0.0
H2411 H 0.73534 0.58971 0.00727 0.0
C2412 C 0.71381 0.60984 0.03767 0.0
C2413 C 0.70885 0.63453 0.05032 0.0
C2414 C 0.76618 0.65739 0.97208 0.0
C2415 C 0.74397 0.63278 0.00828 0.0
C2416 C 0.78403 0.65827 0.95162 0.0
C2417 C 0.7986 0.63541 0.94478 0.0
C2418 C 0.76239 0.63339 0.98586 0.0
C2419 C 0.79427 0.61167 0.95901 0.0
C2420 C 0.73163 0.60884 0.01682 0.0
C2421 C 0.7219 0.65783 0.04124 0.0
N2422 N 0.77643 0.61121 0.97885 0.0
N2423 N 0.73862 0.65638 0.02079 0.0
H2424 H 0.60683 0.50437 0.32187 0.0
H2425 H 0.63002 0.52541 0.17018 0.0
H2426 H 0.64481 0.44428 0.27452 0.0
H2427 H 0.62909 0.59293 0.22411 0.0
H2428 H 0.63202 0.49472 0.20739 0.0
H2429 H 0.61082 0.53644 0.28583 0.0
C2430 C 0.61609 0.49791 0.30396 0.0
C2431 C 0.62559 0.47151 0.30137 0.0
C2432 C 0.63177 0.51626 0.21111 0.0
C2433 C 0.6298 0.50814 0.25976 0.0
C2434 C 0.63073 0.53384 0.18985 0.0
C2435 C 0.62975 0.56191 0.19391 0.0
C2436 C 0.63107 0.52662 0.23681 0.0
C2437 C 0.63029 0.57153 0.21996 0.0
C2438 C 0.61845 0.5163 0.28342 0.0
C2439 C 0.63739 0.46441 0.27758 0.0
N2440 N 0.63052 0.55395 0.24036 0.0
N2441 N 0.63887 0.48244 0.25769 0.0
H2442 H 0.82415 0.39422 0.52292 0.0
H2443 H 0.67073 0.39202 0.47139 0.0
H2444 H 0.75797 0.37394 0.57206 0.0
H2445 H 0.73696 0.37813 0.42078 0.0
H2446 H 0.70254 0.39597 0.50889 0.0
H2447 H 0.79243 0.39848 0.48568 0.0
C2448 C 0.80296 0.39108 0.52599 0.0
C2449 C 0.79378 0.38367 0.5507 0.0
C2450 C 0.71009 0.39248 0.48949 0.0
C2451 C 0.75731 0.38876 0.5082 0.0
C2452 C 0.69197 0.39052 0.46805 0.0
C2453 C 0.70117 0.38487 0.44286 0.0
C2454 C 0.73766 0.38923 0.48567 0.0
C2455 C 0.72896 0.38255 0.43983 0.0
C2456 C 0.78487 0.39337 0.5047 0.0
C2457 C 0.76602 0.37957 0.55338 0.0
N2458 N 0.74615 0.38472 0.46089 0.0
N2459 N 0.74884 0.38222 0.53249 0.0
H2460 H 0.88588 0.49082 0.67454 0.0
H2461 H 0.88496 0.51892 0.82902 0.0
H2462 H 0.86754 0.42789 0.72895 0.0
H2463 H 0.8738 0.58258 0.77352 0.0
H2464 H 0.88022 0.48561 0.79321 0.0
H2465 H 0.88309 0.52433 0.71007 0.0
C2466 C 0.88082 0.48396 0.69388 0.0
C2467 C 0.8766 0.45617 0.69836 0.0
C2468 C 0.87844 0.5068 0.7888 0.0
C2469 C 0.87419 0.49507 0.73997 0.0
C2470 C 0.88109 0.526 0.80936 0.0
C2471 C 0.87948 0.55394 0.80467 0.0
C2472 C 0.87478 0.51522 0.76279 0.0
C2473 C 0.87478 0.56146 0.77844 0.0
C2474 C 0.87931 0.50327 0.71428 0.0
C2475 C 0.87051 0.44892 0.72418 0.0
N2476 N 0.87297 0.54239 0.75865 0.0
N2477 N 0.86986 0.46805 0.74388 0.0
H2478 H 0.49912 0.32581 0.6173 0.0
H2479 H 0.52623 0.16778 0.6142 0.0
H2480 H 0.43816 0.26767 0.6378 0.0
H2481 H 0.58978 0.22651 0.62883 0.0
H2482 H 0.49339 0.20362 0.61911 0.0
H2483 H 0.53213 0.2898 0.6176 0.0
C2484 C 0.49265 0.30553 0.62211 0.0
C2485 C 0.46567 0.30002 0.62781 0.0
C2486 C 0.51451 0.20862 0.62153 0.0
C2487 C 0.50362 0.25821 0.62751 0.0
C2488 C 0.53335 0.18811 0.61877 0.0
C2489 C 0.56103 0.19385 0.62134 0.0
C2490 C 0.52318 0.23545 0.62628 0.0
C2491 C 0.56878 0.22085 0.62698 0.0
C2492 C 0.5116 0.28493 0.62227 0.0
C2493 C 0.45868 0.27312 0.63364 0.0
N2494 N 0.55009 0.24054 0.62892 0.0
N2495 N 0.47736 0.25329 0.63303 0.0
loop_
_geom_bond_atom_site_label_1
_geom_bond_atom_site_label_2
_geom_bond_distance
_geom_bond_site_symmetry_2
_ccdc_geom_bond_type
Co0 H3 2.400 . S
Co0 O4 2.009 . S
Co0 O12 2.115 . S
Co0 O13 2.315 . S
Co0 O24 2.053 . S
Co0 O27 2.094 . S
Co0 O30 2.122 . S
Co1 O4 2.126 . S
Co1 H5 2.388 . S
Co1 O6 2.053 . S
Co1 O9 2.047 . S
Co1 O15 2.113 . S
Co1 O26 2.063 . S
Co2 H3 2.388 . S
Co2 O4 2.053 . S
Co2 O6 2.126 . S
Co2 O11 2.063 . S
Co2 O25 2.047 . S
Co2 O31 2.113 . S
H3 Co0 2.400 . S
H3 Co2 2.388 . S
H3 O4 0.760 . S
O4 Co0 2.009 . S
O4 Co1 2.126 . S
O4 Co2 2.053 . S
O4 H3 0.760 . S
H5 Co1 2.388 . S
H5 O6 0.760 . S
H5 Co7 2.400 . S
O6 Co1 2.053 . S
O6 Co2 2.126 . S
O6 H5 0.760 . S
O6 Co7 2.009 . S
Co7 H5 2.400 . S
Co7 O6 2.009 . S
Co7 O8 2.053 . S
Co7 O10 2.094 . S
Co7 O14 2.122 . S
Co7 O28 2.115 . S
Co7 O29 2.315 . S
O8 Co7 2.053 . S
O8 C20 1.259 . S
O9 Co1 2.047 . S
O9 C20 1.257 . S
O10 Co7 2.094 . S
O10 C21 1.253 . S
O11 Co2 2.063 . S
O11 C21 1.268 . S
O12 Co0 2.115 . S
O12 C22 1.281 . S
O13 Co0 2.315 . S
O13 C22 1.252 . S
O14 Co7 2.122 . S
O14 C23 1.272 . S
O15 Co1 2.113 . S
O15 C23 1.245 . S
C16 O24 1.259 . S
C16 O25 1.257 . S
C17 O26 1.268 . S
C17 O27 1.253 . S
C18 O28 1.281 . S
C18 O29 1.252 . S
C19 O30 1.272 . S
C19 O31 1.245 . S
C20 O8 1.259 . S
C20 O9 1.257 . S
C21 O10 1.253 . S
C21 O11 1.268 . S
C22 O12 1.281 . S
C22 O13 1.252 . S
C23 O14 1.272 . S
C23 O15 1.245 . S
O24 Co0 2.053 . S
O24 C16 1.259 . S
O25 Co2 2.047 . S
O25 C16 1.257 . S
O26 Co1 2.063 . S
O26 C17 1.268 . S
O27 Co0 2.094 . S
O27 C17 1.253 . S
O28 Co7 2.115 . S
O28 C18 1.281 . S
O29 Co7 2.315 . S
O29 C18 1.252 . S
O30 Co0 2.122 . S
O30 C19 1.272 . S
O31 Co2 2.113 . S
O31 C19 1.245 . S
Co32 H35 2.400 . S
Co32 O36 2.009 . S
Co32 O44 2.115 . S
Co32 O45 2.315 . S
Co32 O56 2.053 . S
Co32 O59 2.094 . S
Co32 O62 2.122 . S
Co33 O36 2.126 . S
Co33 H37 2.388 . S
Co33 O38 2.053 . S
Co33 O41 2.047 . S
Co33 O47 2.113 . S
Co33 O58 2.063 . S
Co34 H35 2.388 . S
Co34 O36 2.053 . S
Co34 O38 2.126 . S
Co34 O43 2.063 . S
Co34 O57 2.047 . S
Co34 O63 2.113 . S
H35 Co32 2.400 . S
H35 Co34 2.388 . S
H35 O36 0.760 . S
O36 Co32 2.009 . S
O36 Co33 2.126 . S
O36 Co34 2.053 . S
O36 H35 0.760 . S
H37 Co33 2.388 . S
H37 O38 0.760 . S
H37 Co39 2.400 . S
O38 Co33 2.053 . S
O38 Co34 2.126 . S
O38 H37 0.760 . S
O38 Co39 2.009 . S
Co39 H37 2.400 . S
Co39 O38 2.009 . S
Co39 O40 2.053 . S
Co39 O42 2.094 . S
Co39 O46 2.122 . S
Co39 O60 2.115 . S
Co39 O61 2.315 . S
O40 Co39 2.053 . S
O40 C52 1.259 . S
O41 Co33 2.047 . S
O41 C52 1.257 . S
O42 Co39 2.094 . S
O42 C53 1.253 . S
O43 Co34 2.063 . S
O43 C53 1.268 . S
O44 Co32 2.115 . S
O44 C54 1.281 . S
O45 Co32 2.315 . S
O45 C54 1.252 . S
O46 Co39 2.122 . S
O46 C55 1.272 . S
O47 Co33 2.113 . S
O47 C55 1.245 . S
C48 O56 1.259 . S
C48 O57 1.257 . S
C49 O58 1.268 . S
C49 O59 1.253 . S
C50 O60 1.281 . S
C50 O61 1.252 . S
C51 O62 1.272 . S
C51 O63 1.245 . S
C52 O40 1.259 . S
C52 O41 1.257 . S
C53 O42 1.253 . S
C53 O43 1.268 . S
C54 O44 1.281 . S
C54 O45 1.252 . S
C55 O46 1.272 . S
C55 O47 1.245 . S
O56 Co32 2.053 . S
O56 C48 1.259 . S
O57 Co34 2.047 . S
O57 C48 1.257 . S
O58 Co33 2.063 . S
O58 C49 1.268 . S
O59 Co32 2.094 . S
O59 C49 1.253 . S
O60 Co39 2.115 . S
O60 C50 1.281 . S
O61 Co39 2.315 . S
O61 C50 1.252 . S
O62 Co32 2.122 . S
O62 C51 1.272 . S
O63 Co34 2.113 . S
O63 C51 1.245 . S
Co64 H67 2.400 . S
Co64 O68 2.009 . S
Co64 O76 2.115 . S
Co64 O77 2.315 . S
Co64 O88 2.053 . S
Co64 O91 2.094 . S
Co64 O94 2.122 . S
Co65 O68 2.126 . S
Co65 H69 2.388 . S
Co65 O70 2.053 . S
Co65 O73 2.047 . S
Co65 O79 2.113 . S
Co65 O90 2.063 . S
Co66 H67 2.388 . S
Co66 O68 2.053 . S
Co66 O70 2.126 . S
Co66 O75 2.063 . S
Co66 O89 2.047 . S
Co66 O95 2.113 . S
H67 Co64 2.400 . S
H67 Co66 2.388 . S
H67 O68 0.760 . S
O68 Co64 2.009 . S
O68 Co65 2.126 . S
O68 Co66 2.053 . S
O68 H67 0.760 . S
H69 Co65 2.388 . S
H69 O70 0.760 . S
H69 Co71 2.400 . S
O70 Co65 2.053 . S
O70 Co66 2.126 . S
O70 H69 0.760 . S
O70 Co71 2.009 . S
Co71 H69 2.400 . S
Co71 O70 2.009 . S
Co71 O72 2.053 . S
Co71 O74 2.094 . S
Co71 O78 2.122 . S
Co71 O92 2.115 . S
Co71 O93 2.315 . S
O72 Co71 2.053 . S
O72 C84 1.259 . S
O73 Co65 2.047 . S
O73 C84 1.257 . S
O74 Co71 2.094 . S
O74 C85 1.253 . S
O75 Co66 2.063 . S
O75 C85 1.268 . S
O76 Co64 2.115 . S
O76 C86 1.281 . S
O77 Co64 2.315 . S
O77 C86 1.252 . S
O78 Co71 2.122 . S
O78 C87 1.272 . S
O79 Co65 2.113 . S
O79 C87 1.245 . S
C80 O88 1.259 . S
C80 O89 1.257 . S
C81 O90 1.268 . S
C81 O91 1.253 . S
C82 O92 1.281 . S
C82 O93 1.252 . S
C83 O94 1.272 . S
C83 O95 1.245 . S
C84 O72 1.259 . S
C84 O73 1.257 . S
C85 O74 1.253 . S
C85 O75 1.268 . S
C86 O76 1.281 . S
C86 O77 1.252 . S
C87 O78 1.272 . S
C87 O79 1.245 . S
O88 Co64 2.053 . S
O88 C80 1.259 . S
O89 Co66 2.047 . S
O89 C80 1.257 . S
O90 Co65 2.063 . S
O90 C81 1.268 . S
O91 Co64 2.094 . S
O91 C81 1.253 . S
O92 Co71 2.115 . S
O92 C82 1.281 . S
O93 Co71 2.315 . S
O93 C82 1.252 . S
O94 Co64 2.122 . S
O94 C83 1.272 . S
O95 Co66 2.113 . S
O95 C83 1.245 . S
Co96 H99 2.400 . S
Co96 O100 2.009 . S
Co96 O108 2.115 . S
Co96 O109 2.315 . S
Co96 O120 2.053 . S
Co96 O123 2.094 . S
Co96 O126 2.122 . S
Co97 O100 2.126 . S
Co97 H101 2.388 . S
Co97 O102 2.053 . S
Co97 O105 2.047 . S
Co97 O111 2.113 . S
Co97 O122 2.063 . S
Co98 H99 2.388 . S
Co98 O100 2.053 . S
Co98 O102 2.126 . S
Co98 O107 2.063 . S
Co98 O121 2.047 . S
Co98 O127 2.113 . S
H99 Co96 2.400 . S
H99 Co98 2.388 . S
H99 O100 0.760 . S
O100 Co96 2.009 . S
O100 Co97 2.126 . S
O100 Co98 2.053 . S
O100 H99 0.760 . S
H101 Co97 2.388 . S
H101 O102 0.760 . S
H101 Co103 2.400 . S
O102 Co97 2.053 . S
O102 Co98 2.126 . S
O102 H101 0.760 . S
O102 Co103 2.009 . S
Co103 H101 2.400 . S
Co103 O102 2.009 . S
Co103 O104 2.053 . S
Co103 O106 2.094 . S
Co103 O110 2.122 . S
Co103 O124 2.115 . S
Co103 O125 2.315 . S
O104 Co103 2.053 . S
O104 C116 1.259 . S
O105 Co97 2.047 . S
O105 C116 1.257 . S
O106 Co103 2.094 . S
O106 C117 1.253 . S
O107 Co98 2.063 . S
O107 C117 1.268 . S
O108 Co96 2.115 . S
O108 C118 1.281 . S
O109 Co96 2.315 . S
O109 C118 1.252 . S
O110 Co103 2.122 . S
O110 C119 1.272 . S
O111 Co97 2.113 . S
O111 C119 1.245 . S
C112 O120 1.259 . S
C112 O121 1.257 . S
C113 O122 1.268 . S
C113 O123 1.253 . S
C114 O124 1.281 . S
C114 O125 1.252 . S
C115 O126 1.272 . S
C115 O127 1.245 . S
C116 O104 1.259 . S
C116 O105 1.257 . S
C117 O106 1.253 . S
C117 O107 1.268 . S
C118 O108 1.281 . S
C118 O109 1.252 . S
C119 O110 1.272 . S
C119 O111 1.245 . S
O120 Co96 2.053 . S
O120 C112 1.259 . S
O121 Co98 2.047 . S
O121 C112 1.257 . S
O122 Co97 2.063 . S
O122 C113 1.268 . S
O123 Co96 2.094 . S
O123 C113 1.253 . S
O124 Co103 2.115 . S
O124 C114 1.281 . S
O125 Co103 2.315 . S
O125 C114 1.252 . S
O126 Co96 2.122 . S
O126 C115 1.272 . S
O127 Co98 2.113 . S
O127 C115 1.245 . S
Co128 H131 2.400 . S
Co128 O132 2.009 . S
Co128 O140 2.115 . S
Co128 O141 2.315 . S
Co128 O152 2.053 . S
Co128 O155 2.094 . S
Co128 O158 2.122 . S
Co129 O132 2.126 . S
Co129 H133 2.388 . S
Co129 O134 2.053 . S
Co129 O137 2.047 . S
Co129 O143 2.113 . S
Co129 O154 2.063 . S
Co130 H131 2.388 . S
Co130 O132 2.053 . S
Co130 O134 2.126 . S
Co130 O139 2.063 . S
Co130 O153 2.047 . S
Co130 O159 2.113 . S
H131 Co128 2.400 . S
H131 Co130 2.388 . S
H131 O132 0.760 . S
O132 Co128 2.009 . S
O132 Co129 2.126 . S
O132 Co130 2.053 . S
O132 H131 0.760 . S
H133 Co129 2.388 . S
H133 O134 0.760 . S
H133 Co135 2.400 . S
O134 Co129 2.053 . S
O134 Co130 2.126 . S
O134 H133 0.760 . S
O134 Co135 2.009 . S
Co135 H133 2.400 . S
Co135 O134 2.009 . S
Co135 O136 2.053 . S
Co135 O138 2.094 . S
Co135 O142 2.122 . S
Co135 O156 2.115 . S
Co135 O157 2.315 . S
O136 Co135 2.053 . S
O136 C148 1.259 . S
O137 Co129 2.047 . S
O137 C148 1.257 . S
O138 Co135 2.094 . S
O138 C149 1.253 . S
O139 Co130 2.063 . S
O139 C149 1.268 . S
O140 Co128 2.115 . S
O140 C150 1.281 . S
O141 Co128 2.315 . S
O141 C150 1.252 . S
O142 Co135 2.122 . S
O142 C151 1.272 . S
O143 Co129 2.113 . S
O143 C151 1.245 . S
C144 O152 1.259 . S
C144 O153 1.257 . S
C145 O154 1.268 . S
C145 O155 1.253 . S
C146 O156 1.281 . S
C146 O157 1.252 . S
C147 O158 1.272 . S
C147 O159 1.245 . S
C148 O136 1.259 . S
C148 O137 1.257 . S
C149 O138 1.253 . S
C149 O139 1.268 . S
C150 O140 1.281 . S
C150 O141 1.252 . S
C151 O142 1.272 . S
C151 O143 1.245 . S
O152 Co128 2.053 . S
O152 C144 1.259 . S
O153 Co130 2.047 . S
O153 C144 1.257 . S
O154 Co129 2.063 . S
O154 C145 1.268 . S
O155 Co128 2.094 . S
O155 C145 1.253 . S
O156 Co135 2.115 . S
O156 C146 1.281 . S
O157 Co135 2.315 . S
O157 C146 1.252 . S
O158 Co128 2.122 . S
O158 C147 1.272 . S
O159 Co130 2.113 . S
O159 C147 1.245 . S
Co160 H163 2.400 . S
Co160 O164 2.009 . S
Co160 O172 2.115 . S
Co160 O173 2.315 . S
Co160 O184 2.053 . S
Co160 O187 2.094 . S
Co160 O190 2.122 . S
Co161 O164 2.126 . S
Co161 H165 2.388 . S
Co161 O166 2.053 . S
Co161 O169 2.047 . S
Co161 O175 2.113 . S
Co161 O186 2.063 . S
Co162 H163 2.388 . S
Co162 O164 2.053 . S
Co162 O166 2.126 . S
Co162 O171 2.063 . S
Co162 O185 2.047 . S
Co162 O191 2.113 . S
H163 Co160 2.400 . S
H163 Co162 2.388 . S
H163 O164 0.760 . S
O164 Co160 2.009 . S
O164 Co161 2.126 . S
O164 Co162 2.053 . S
O164 H163 0.760 . S
H165 Co161 2.388 . S
H165 O166 0.760 . S
H165 Co167 2.400 . S
O166 Co161 2.053 . S
O166 Co162 2.126 . S
O166 H165 0.760 . S
O166 Co167 2.009 . S
Co167 H165 2.400 . S
Co167 O166 2.009 . S
Co167 O168 2.053 . S
Co167 O170 2.094 . S
Co167 O174 2.122 . S
Co167 O188 2.115 . S
Co167 O189 2.315 . S
O168 Co167 2.053 . S
O168 C180 1.259 . S
O169 Co161 2.047 . S
O169 C180 1.257 . S
O170 Co167 2.094 . S
O170 C181 1.253 . S
O171 Co162 2.063 . S
O171 C181 1.268 . S
O172 Co160 2.115 . S
O172 C182 1.281 . S
O173 Co160 2.315 . S
O173 C182 1.252 . S
O174 Co167 2.122 . S
O174 C183 1.272 . S
O175 Co161 2.113 . S
O175 C183 1.245 . S
C176 O184 1.259 . S
C176 O185 1.257 . S
C177 O186 1.268 . S
C177 O187 1.253 . S
C178 O188 1.281 . S
C178 O189 1.252 . S
C179 O190 1.272 . S
C179 O191 1.245 . S
C180 O168 1.259 . S
C180 O169 1.257 . S
C181 O170 1.253 . S
C181 O171 1.268 . S
C182 O172 1.281 . S
C182 O173 1.252 . S
C183 O174 1.272 . S
C183 O175 1.245 . S
O184 Co160 2.053 . S
O184 C176 1.259 . S
O185 Co162 2.047 . S
O185 C176 1.257 . S
O186 Co161 2.063 . S
O186 C177 1.268 . S
O187 Co160 2.094 . S
O187 C177 1.253 . S
O188 Co167 2.115 . S
O188 C178 1.281 . S
O189 Co167 2.315 . S
O189 C178 1.252 . S
O190 Co160 2.122 . S
O190 C179 1.272 . S
O191 Co162 2.113 . S
O191 C179 1.245 . S
Co192 H195 2.400 . S
Co192 O196 2.009 . S
Co192 O204 2.115 . S
Co192 O205 2.315 . S
Co192 O216 2.053 . S
Co192 O219 2.094 . S
Co192 O222 2.122 . S
Co193 O196 2.126 . S
Co193 H197 2.388 . S
Co193 O198 2.053 . S
Co193 O201 2.047 . S
Co193 O207 2.113 . S
Co193 O218 2.063 . S
Co194 H195 2.388 . S
Co194 O196 2.053 . S
Co194 O198 2.126 . S
Co194 O203 2.063 . S
Co194 O217 2.047 . S
Co194 O223 2.113 . S
H195 Co192 2.400 . S
H195 Co194 2.388 . S
H195 O196 0.760 . S
O196 Co192 2.009 . S
O196 Co193 2.126 . S
O196 Co194 2.053 . S
O196 H195 0.760 . S
H197 Co193 2.388 . S
H197 O198 0.760 . S
H197 Co199 2.400 . S
O198 Co193 2.053 . S
O198 Co194 2.126 . S
O198 H197 0.760 . S
O198 Co199 2.009 . S
Co199 H197 2.400 . S
Co199 O198 2.009 . S
Co199 O200 2.053 . S
Co199 O202 2.094 . S
Co199 O206 2.122 . S
Co199 O220 2.115 . S
Co199 O221 2.315 . S
O200 Co199 2.053 . S
O200 C212 1.259 . S
O201 Co193 2.047 . S
O201 C212 1.257 . S
O202 Co199 2.094 . S
O202 C213 1.253 . S
O203 Co194 2.063 . S
O203 C213 1.268 . S
O204 Co192 2.115 . S
O204 C214 1.281 . S
O205 Co192 2.315 . S
O205 C214 1.252 . S
O206 Co199 2.122 . S
O206 C215 1.272 . S
O207 Co193 2.113 . S
O207 C215 1.245 . S
C208 O216 1.259 . S
C208 O217 1.257 . S
C209 O218 1.268 . S
C209 O219 1.253 . S
C210 O220 1.281 . S
C210 O221 1.252 . S
C211 O222 1.272 . S
C211 O223 1.245 . S
C212 O200 1.259 . S
C212 O201 1.257 . S
C213 O202 1.253 . S
C213 O203 1.268 . S
C214 O204 1.281 . S
C214 O205 1.252 . S
C215 O206 1.272 . S
C215 O207 1.245 . S
O216 Co192 2.053 . S
O216 C208 1.259 . S
O217 Co194 2.047 . S
O217 C208 1.257 . S
O218 Co193 2.063 . S
O218 C209 1.268 . S
O219 Co192 2.094 . S
O219 C209 1.253 . S
O220 Co199 2.115 . S
O220 C210 1.281 . S
O221 Co199 2.315 . S
O221 C210 1.252 . S
O222 Co192 2.122 . S
O222 C211 1.272 . S
O223 Co194 2.113 . S
O223 C211 1.245 . S
Co224 H227 2.400 . S
Co224 O228 2.009 . S
Co224 O236 2.115 . S
Co224 O237 2.315 . S
Co224 O248 2.053 . S
Co224 O251 2.094 . S
Co224 O254 2.122 . S
Co225 O228 2.126 . S
Co225 H229 2.388 . S
Co225 O230 2.053 . S
Co225 O233 2.047 . S
Co225 O239 2.113 . S
Co225 O250 2.063 . S
Co226 H227 2.388 . S
Co226 O228 2.053 . S
Co226 O230 2.126 . S
Co226 O235 2.063 . S
Co226 O249 2.047 . S
Co226 O255 2.113 . S
H227 Co224 2.400 . S
H227 Co226 2.388 . S
H227 O228 0.760 . S
O228 Co224 2.009 . S
O228 Co225 2.126 . S
O228 Co226 2.053 . S
O228 H227 0.760 . S
H229 Co225 2.388 . S
H229 O230 0.760 . S
H229 Co231 2.400 . S
O230 Co225 2.053 . S
O230 Co226 2.126 . S
O230 H229 0.760 . S
O230 Co231 2.009 . S
Co231 H229 2.400 . S
Co231 O230 2.009 . S
Co231 O232 2.053 . S
Co231 O234 2.094 . S
Co231 O238 2.122 . S
Co231 O252 2.115 . S
Co231 O253 2.315 . S
O232 Co231 2.053 . S
O232 C244 1.259 . S
O233 Co225 2.047 . S
O233 C244 1.257 . S
O234 Co231 2.094 . S
O234 C245 1.253 . S
O235 Co226 2.063 . S
O235 C245 1.268 . S
O236 Co224 2.115 . S
O236 C246 1.281 . S
O237 Co224 2.315 . S
O237 C246 1.252 . S
O238 Co231 2.122 . S
O238 C247 1.272 . S
O239 Co225 2.113 . S
O239 C247 1.245 . S
C240 O248 1.259 . S
C240 O249 1.257 . S
C241 O250 1.268 . S
C241 O251 1.253 . S
C242 O252 1.281 . S
C242 O253 1.252 . S
C243 O254 1.272 . S
C243 O255 1.245 . S
C244 O232 1.259 . S
C244 O233 1.257 . S
C245 O234 1.253 . S
C245 O235 1.268 . S
C246 O236 1.281 . S
C246 O237 1.252 . S
C247 O238 1.272 . S
C247 O239 1.245 . S
O248 Co224 2.053 . S
O248 C240 1.259 . S
O249 Co226 2.047 . S
O249 C240 1.257 . S
O250 Co225 2.063 . S
O250 C241 1.268 . S
O251 Co224 2.094 . S
O251 C241 1.253 . S
O252 Co231 2.115 . S
O252 C242 1.281 . S
O253 Co231 2.315 . S
O253 C242 1.252 . S
O254 Co224 2.122 . S
O254 C243 1.272 . S
O255 Co226 2.113 . S
O255 C243 1.245 . S
Co256 H259 2.400 . S
Co256 O260 2.009 . S
Co256 O268 2.115 . S
Co256 O269 2.315 . S
Co256 O280 2.053 . S
Co256 O283 2.094 . S
Co256 O286 2.122 . S
Co257 O260 2.126 . S
Co257 H261 2.388 . S
Co257 O262 2.053 . S
Co257 O265 2.047 . S
Co257 O271 2.113 . S
Co257 O282 2.063 . S
Co258 H259 2.388 . S
Co258 O260 2.053 . S
Co258 O262 2.126 . S
Co258 O267 2.063 . S
Co258 O281 2.047 . S
Co258 O287 2.113 . S
H259 Co256 2.400 . S
H259 Co258 2.388 . S
H259 O260 0.760 . S
O260 Co256 2.009 . S
O260 Co257 2.126 . S
O260 Co258 2.053 . S
O260 H259 0.760 . S
H261 Co257 2.388 . S
H261 O262 0.760 . S
H261 Co263 2.400 . S
O262 Co257 2.053 . S
O262 Co258 2.126 . S
O262 H261 0.760 . S
O262 Co263 2.009 . S
Co263 H261 2.400 . S
Co263 O262 2.009 . S
Co263 O264 2.053 . S
Co263 O266 2.094 . S
Co263 O270 2.122 . S
Co263 O284 2.115 . S
Co263 O285 2.315 . S
O264 Co263 2.053 . S
O264 C276 1.259 . S
O265 Co257 2.047 . S
O265 C276 1.257 . S
O266 Co263 2.094 . S
O266 C277 1.253 . S
O267 Co258 2.063 . S
O267 C277 1.268 . S
O268 Co256 2.115 . S
O268 C278 1.281 . S
O269 Co256 2.315 . S
O269 C278 1.252 . S
O270 Co263 2.122 . S
O270 C279 1.272 . S
O271 Co257 2.113 . S
O271 C279 1.245 . S
C272 O280 1.259 . S
C272 O281 1.257 . S
C273 O282 1.268 . S
C273 O283 1.253 . S
C274 O284 1.281 . S
C274 O285 1.252 . S
C275 O286 1.272 . S
C275 O287 1.245 . S
C276 O264 1.259 . S
C276 O265 1.257 . S
C277 O266 1.253 . S
C277 O267 1.268 . S
C278 O268 1.281 . S
C278 O269 1.252 . S
C279 O270 1.272 . S
C279 O271 1.245 . S
O280 Co256 2.053 . S
O280 C272 1.259 . S
O281 Co258 2.047 . S
O281 C272 1.257 . S
O282 Co257 2.063 . S
O282 C273 1.268 . S
O283 Co256 2.094 . S
O283 C273 1.253 . S
O284 Co263 2.115 . S
O284 C274 1.281 . S
O285 Co263 2.315 . S
O285 C274 1.252 . S
O286 Co256 2.122 . S
O286 C275 1.272 . S
O287 Co258 2.113 . S
O287 C275 1.245 . S
Co288 H291 2.400 . S
Co288 O292 2.009 . S
Co288 O300 2.115 . S
Co288 O301 2.315 . S
Co288 O312 2.053 . S
Co288 O315 2.094 . S
Co288 O318 2.122 . S
Co289 O292 2.126 . S
Co289 H293 2.388 . S
Co289 O294 2.053 . S
Co289 O297 2.047 . S
Co289 O303 2.113 . S
Co289 O314 2.063 . S
Co290 H291 2.388 . S
Co290 O292 2.053 . S
Co290 O294 2.126 . S
Co290 O299 2.063 . S
Co290 O313 2.047 . S
Co290 O319 2.113 . S
H291 Co288 2.400 . S
H291 Co290 2.388 . S
H291 O292 0.760 . S
O292 Co288 2.009 . S
O292 Co289 2.126 . S
O292 Co290 2.053 . S
O292 H291 0.760 . S
H293 Co289 2.388 . S
H293 O294 0.760 . S
H293 Co295 2.400 . S
O294 Co289 2.053 . S
O294 Co290 2.126 . S
O294 H293 0.760 . S
O294 Co295 2.009 . S
Co295 H293 2.400 . S
Co295 O294 2.009 . S
Co295 O296 2.053 . S
Co295 O298 2.094 . S
Co295 O302 2.122 . S
Co295 O316 2.115 . S
Co295 O317 2.315 . S
O296 Co295 2.053 . S
O296 C308 1.259 . S
O297 Co289 2.047 . S
O297 C308 1.257 . S
O298 Co295 2.094 . S
O298 C309 1.253 . S
O299 Co290 2.063 . S
O299 C309 1.268 . S
O300 Co288 2.115 . S
O300 C310 1.281 . S
O301 Co288 2.315 . S
O301 C310 1.252 . S
O302 Co295 2.122 . S
O302 C311 1.272 . S
O303 Co289 2.113 . S
O303 C311 1.245 . S
C304 O312 1.259 . S
C304 O313 1.257 . S
C305 O314 1.268 . S
C305 O315 1.253 . S
C306 O316 1.281 . S
C306 O317 1.252 . S
C307 O318 1.272 . S
C307 O319 1.245 . S
C308 O296 1.259 . S
C308 O297 1.257 . S
C309 O298 1.253 . S
C309 O299 1.268 . S
C310 O300 1.281 . S
C310 O301 1.252 . S
C311 O302 1.272 . S
C311 O303 1.245 . S
O312 Co288 2.053 . S
O312 C304 1.259 . S
O313 Co290 2.047 . S
O313 C304 1.257 . S
O314 Co289 2.063 . S
O314 C305 1.268 . S
O315 Co288 2.094 . S
O315 C305 1.253 . S
O316 Co295 2.115 . S
O316 C306 1.281 . S
O317 Co295 2.315 . S
O317 C306 1.252 . S
O318 Co288 2.122 . S
O318 C307 1.272 . S
O319 Co290 2.113 . S
O319 C307 1.245 . S
Co320 H323 2.400 . S
Co320 O324 2.009 . S
Co320 O332 2.115 . S
Co320 O333 2.315 . S
Co320 O344 2.053 . S
Co320 O347 2.094 . S
Co320 O350 2.122 . S
Co321 O324 2.126 . S
Co321 H325 2.388 . S
Co321 O326 2.053 . S
Co321 O329 2.047 . S
Co321 O335 2.113 . S
Co321 O346 2.063 . S
Co322 H323 2.388 . S
Co322 O324 2.053 . S
Co322 O326 2.126 . S
Co322 O331 2.063 . S
Co322 O345 2.047 . S
Co322 O351 2.113 . S
H323 Co320 2.400 . S
H323 Co322 2.388 . S
H323 O324 0.760 . S
O324 Co320 2.009 . S
O324 Co321 2.126 . S
O324 Co322 2.053 . S
O324 H323 0.760 . S
H325 Co321 2.388 . S
H325 O326 0.760 . S
H325 Co327 2.400 . S
O326 Co321 2.053 . S
O326 Co322 2.126 . S
O326 H325 0.760 . S
O326 Co327 2.009 . S
Co327 H325 2.400 . S
Co327 O326 2.009 . S
Co327 O328 2.053 . S
Co327 O330 2.094 . S
Co327 O334 2.122 . S
Co327 O348 2.115 . S
Co327 O349 2.315 . S
O328 Co327 2.053 . S
O328 C340 1.259 . S
O329 Co321 2.047 . S
O329 C340 1.257 . S
O330 Co327 2.094 . S
O330 C341 1.253 . S
O331 Co322 2.063 . S
O331 C341 1.268 . S
O332 Co320 2.115 . S
O332 C342 1.281 . S
O333 Co320 2.315 . S
O333 C342 1.252 . S
O334 Co327 2.122 . S
O334 C343 1.272 . S
O335 Co321 2.113 . S
O335 C343 1.245 . S
C336 O344 1.259 . S
C336 O345 1.257 . S
C337 O346 1.268 . S
C337 O347 1.253 . S
C338 O348 1.281 . S
C338 O349 1.252 . S
C339 O350 1.272 . S
C339 O351 1.245 . S
C340 O328 1.259 . S
C340 O329 1.257 . S
C341 O330 1.253 . S
C341 O331 1.268 . S
C342 O332 1.281 . S
C342 O333 1.252 . S
C343 O334 1.272 . S
C343 O335 1.245 . S
O344 Co320 2.053 . S
O344 C336 1.259 . S
O345 Co322 2.047 . S
O345 C336 1.257 . S
O346 Co321 2.063 . S
O346 C337 1.268 . S
O347 Co320 2.094 . S
O347 C337 1.253 . S
O348 Co327 2.115 . S
O348 C338 1.281 . S
O349 Co327 2.315 . S
O349 C338 1.252 . S
O350 Co320 2.122 . S
O350 C339 1.272 . S
O351 Co322 2.113 . S
O351 C339 1.245 . S
Co352 H355 2.400 . S
Co352 O356 2.009 . S
Co352 O364 2.115 . S
Co352 O365 2.315 . S
Co352 O376 2.053 . S
Co352 O379 2.094 . S
Co352 O382 2.122 . S
Co353 O356 2.126 . S
Co353 H357 2.388 . S
Co353 O358 2.053 . S
Co353 O361 2.047 . S
Co353 O367 2.113 . S
Co353 O378 2.063 . S
Co354 H355 2.388 . S
Co354 O356 2.053 . S
Co354 O358 2.126 . S
Co354 O363 2.063 . S
Co354 O377 2.047 . S
Co354 O383 2.113 . S
H355 Co352 2.400 . S
H355 Co354 2.388 . S
H355 O356 0.760 . S
O356 Co352 2.009 . S
O356 Co353 2.126 . S
O356 Co354 2.053 . S
O356 H355 0.760 . S
H357 Co353 2.388 . S
H357 O358 0.760 . S
H357 Co359 2.400 . S
O358 Co353 2.053 . S
O358 Co354 2.126 . S
O358 H357 0.760 . S
O358 Co359 2.009 . S
Co359 H357 2.400 . S
Co359 O358 2.009 . S
Co359 O360 2.053 . S
Co359 O362 2.094 . S
Co359 O366 2.122 . S
Co359 O380 2.115 . S
Co359 O381 2.315 . S
O360 Co359 2.053 . S
O360 C372 1.259 . S
O361 Co353 2.047 . S
O361 C372 1.257 . S
O362 Co359 2.094 . S
O362 C373 1.253 . S
O363 Co354 2.063 . S
O363 C373 1.268 . S
O364 Co352 2.115 . S
O364 C374 1.281 . S
O365 Co352 2.315 . S
O365 C374 1.252 . S
O366 Co359 2.122 . S
O366 C375 1.272 . S
O367 Co353 2.113 . S
O367 C375 1.245 . S
C368 O376 1.259 . S
C368 O377 1.257 . S
C369 O378 1.268 . S
C369 O379 1.253 . S
C370 O380 1.281 . S
C370 O381 1.252 . S
C371 O382 1.272 . S
C371 O383 1.245 . S
C372 O360 1.259 . S
C372 O361 1.257 . S
C373 O362 1.253 . S
C373 O363 1.268 . S
C374 O364 1.281 . S
C374 O365 1.252 . S
C375 O366 1.272 . S
C375 O367 1.245 . S
O376 Co352 2.053 . S
O376 C368 1.259 . S
O377 Co354 2.047 . S
O377 C368 1.257 . S
O378 Co353 2.063 . S
O378 C369 1.268 . S
O379 Co352 2.094 . S
O379 C369 1.253 . S
O380 Co359 2.115 . S
O380 C370 1.281 . S
O381 Co359 2.315 . S
O381 C370 1.252 . S
O382 Co352 2.122 . S
O382 C371 1.272 . S
O383 Co354 2.113 . S
O383 C371 1.245 . S
Co384 H387 2.400 . S
Co384 O388 2.009 . S
Co384 O396 2.115 . S
Co384 O397 2.315 . S
Co384 O408 2.053 . S
Co384 O411 2.094 . S
Co384 O414 2.122 . S
Co385 O388 2.126 . S
Co385 H389 2.388 . S
Co385 O390 2.053 . S
Co385 O393 2.047 . S
Co385 O399 2.113 . S
Co385 O410 2.063 . S
Co386 H387 2.388 . S
Co386 O388 2.053 . S
Co386 O390 2.126 . S
Co386 O395 2.063 . S
Co386 O409 2.047 . S
Co386 O415 2.113 . S
H387 Co384 2.400 . S
H387 Co386 2.388 . S
H387 O388 0.760 . S
O388 Co384 2.009 . S
O388 Co385 2.126 . S
O388 Co386 2.053 . S
O388 H387 0.760 . S
H389 Co385 2.388 . S
H389 O390 0.760 . S
H389 Co391 2.400 . S
O390 Co385 2.053 . S
O390 Co386 2.126 . S
O390 H389 0.760 . S
O390 Co391 2.009 . S
Co391 H389 2.400 . S
Co391 O390 2.009 . S
Co391 O392 2.053 . S
Co391 O394 2.094 . S
Co391 O398 2.122 . S
Co391 O412 2.115 . S
Co391 O413 2.315 . S
O392 Co391 2.053 . S
O392 C404 1.259 . S
O393 Co385 2.047 . S
O393 C404 1.257 . S
O394 Co391 2.094 . S
O394 C405 1.253 . S
O395 Co386 2.063 . S
O395 C405 1.268 . S
O396 Co384 2.115 . S
O396 C406 1.281 . S
O397 Co384 2.315 . S
O397 C406 1.252 . S
O398 Co391 2.122 . S
O398 C407 1.272 . S
O399 Co385 2.113 . S
O399 C407 1.245 . S
C400 O408 1.259 . S
C400 O409 1.257 . S
C401 O410 1.268 . S
C401 O411 1.253 . S
C402 O412 1.281 . S
C402 O413 1.252 . S
C403 O414 1.272 . S
C403 O415 1.245 . S
C404 O392 1.259 . S
C404 O393 1.257 . S
C405 O394 1.253 . S
C405 O395 1.268 . S
C406 O396 1.281 . S
C406 O397 1.252 . S
C407 O398 1.272 . S
C407 O399 1.245 . S
O408 Co384 2.053 . S
O408 C400 1.259 . S
O409 Co386 2.047 . S
O409 C400 1.257 . S
O410 Co385 2.063 . S
O410 C401 1.268 . S
O411 Co384 2.094 . S
O411 C401 1.253 . S
O412 Co391 2.115 . S
O412 C402 1.281 . S
O413 Co391 2.315 . S
O413 C402 1.252 . S
O414 Co384 2.122 . S
O414 C403 1.272 . S
O415 Co386 2.113 . S
O415 C403 1.245 . S
Co416 H419 2.400 . S
Co416 O420 2.009 . S
Co416 O428 2.115 . S
Co416 O429 2.315 . S
Co416 O440 2.053 . S
Co416 O443 2.094 . S
Co416 O446 2.122 . S
Co417 O420 2.126 . S
Co417 H421 2.388 . S
Co417 O422 2.053 . S
Co417 O425 2.047 . S
Co417 O431 2.113 . S
Co417 O442 2.063 . S
Co418 H419 2.388 . S
Co418 O420 2.053 . S
Co418 O422 2.126 . S
Co418 O427 2.063 . S
Co418 O441 2.047 . S
Co418 O447 2.113 . S
H419 Co416 2.400 . S
H419 Co418 2.388 . S
H419 O420 0.760 . S
O420 Co416 2.009 . S
O420 Co417 2.126 . S
O420 Co418 2.053 . S
O420 H419 0.760 . S
H421 Co417 2.388 . S
H421 O422 0.760 . S
H421 Co423 2.400 . S
O422 Co417 2.053 . S
O422 Co418 2.126 . S
O422 H421 0.760 . S
O422 Co423 2.009 . S
Co423 H421 2.400 . S
Co423 O422 2.009 . S
Co423 O424 2.053 . S
Co423 O426 2.094 . S
Co423 O430 2.122 . S
Co423 O444 2.115 . S
Co423 O445 2.315 . S
O424 Co423 2.053 . S
O424 C436 1.259 . S
O425 Co417 2.047 . S
O425 C436 1.257 . S
O426 Co423 2.094 . S
O426 C437 1.253 . S
O427 Co418 2.063 . S
O427 C437 1.268 . S
O428 Co416 2.115 . S
O428 C438 1.281 . S
O429 Co416 2.315 . S
O429 C438 1.252 . S
O430 Co423 2.122 . S
O430 C439 1.272 . S
O431 Co417 2.113 . S
O431 C439 1.245 . S
C432 O440 1.259 . S
C432 O441 1.257 . S
C433 O442 1.268 . S
C433 O443 1.253 . S
C434 O444 1.281 . S
C434 O445 1.252 . S
C435 O446 1.272 . S
C435 O447 1.245 . S
C436 O424 1.259 . S
C436 O425 1.257 . S
C437 O426 1.253 . S
C437 O427 1.268 . S
C438 O428 1.281 . S
C438 O429 1.252 . S
C439 O430 1.272 . S
C439 O431 1.245 . S
O440 Co416 2.053 . S
O440 C432 1.259 . S
O441 Co418 2.047 . S
O441 C432 1.257 . S
O442 Co417 2.063 . S
O442 C433 1.268 . S
O443 Co416 2.094 . S
O443 C433 1.253 . S
O444 Co423 2.115 . S
O444 C434 1.281 . S
O445 Co423 2.315 . S
O445 C434 1.252 . S
O446 Co416 2.122 . S
O446 C435 1.272 . S
O447 Co418 2.113 . S
O447 C435 1.245 . S
Co448 H451 2.400 . S
Co448 O452 2.009 . S
Co448 O460 2.115 . S
Co448 O461 2.315 . S
Co448 O472 2.053 . S
Co448 O475 2.094 . S
Co448 O478 2.122 . S
Co449 O452 2.126 . S
Co449 H453 2.388 . S
Co449 O454 2.053 . S
Co449 O457 2.047 . S
Co449 O463 2.113 . S
Co449 O474 2.063 . S
Co450 H451 2.388 . S
Co450 O452 2.053 . S
Co450 O454 2.126 . S
Co450 O459 2.063 . S
Co450 O473 2.047 . S
Co450 O479 2.113 . S
H451 Co448 2.400 . S
H451 Co450 2.388 . S
H451 O452 0.760 . S
O452 Co448 2.009 . S
O452 Co449 2.126 . S
O452 Co450 2.053 . S
O452 H451 0.760 . S
H453 Co449 2.388 . S
H453 O454 0.760 . S
H453 Co455 2.400 . S
O454 Co449 2.053 . S
O454 Co450 2.126 . S
O454 H453 0.760 . S
O454 Co455 2.009 . S
Co455 H453 2.400 . S
Co455 O454 2.009 . S
Co455 O456 2.053 . S
Co455 O458 2.094 . S
Co455 O462 2.122 . S
Co455 O476 2.115 . S
Co455 O477 2.315 . S
O456 Co455 2.053 . S
O456 C468 1.259 . S
O457 Co449 2.047 . S
O457 C468 1.257 . S
O458 Co455 2.094 . S
O458 C469 1.253 . S
O459 Co450 2.063 . S
O459 C469 1.268 . S
O460 Co448 2.115 . S
O460 C470 1.281 . S
O461 Co448 2.315 . S
O461 C470 1.252 . S
O462 Co455 2.122 . S
O462 C471 1.272 . S
O463 Co449 2.113 . S
O463 C471 1.245 . S
C464 O472 1.259 . S
C464 O473 1.257 . S
C465 O474 1.268 . S
C465 O475 1.253 . S
C466 O476 1.281 . S
C466 O477 1.252 . S
C467 O478 1.272 . S
C467 O479 1.245 . S
C468 O456 1.259 . S
C468 O457 1.257 . S
C469 O458 1.253 . S
C469 O459 1.268 . S
C470 O460 1.281 . S
C470 O461 1.252 . S
C471 O462 1.272 . S
C471 O463 1.245 . S
O472 Co448 2.053 . S
O472 C464 1.259 . S
O473 Co450 2.047 . S
O473 C464 1.257 . S
O474 Co449 2.063 . S
O474 C465 1.268 . S
O475 Co448 2.094 . S
O475 C465 1.253 . S
O476 Co455 2.115 . S
O476 C466 1.281 . S
O477 Co455 2.315 . S
O477 C466 1.252 . S
O478 Co448 2.122 . S
O478 C467 1.272 . S
O479 Co450 2.113 . S
O479 C467 1.245 . S
Co480 H483 2.400 . S
Co480 O484 2.009 . S
Co480 O492 2.115 . S
Co480 O493 2.315 . S
Co480 O504 2.053 . S
Co480 O507 2.094 . S
Co480 O510 2.122 . S
Co481 O484 2.126 . S
Co481 H485 2.388 . S
Co481 O486 2.053 . S
Co481 O489 2.047 . S
Co481 O495 2.113 . S
Co481 O506 2.063 . S
Co482 H483 2.388 . S
Co482 O484 2.053 . S
Co482 O486 2.126 . S
Co482 O491 2.063 . S
Co482 O505 2.047 . S
Co482 O511 2.113 . S
H483 Co480 2.400 . S
H483 Co482 2.388 . S
H483 O484 0.760 . S
O484 Co480 2.009 . S
O484 Co481 2.126 . S
O484 Co482 2.053 . S
O484 H483 0.760 . S
H485 Co481 2.388 . S
H485 O486 0.760 . S
H485 Co487 2.400 . S
O486 Co481 2.053 . S
O486 Co482 2.126 . S
O486 H485 0.760 . S
O486 Co487 2.009 . S
Co487 H485 2.400 . S
Co487 O486 2.009 . S
Co487 O488 2.053 . S
Co487 O490 2.094 . S
Co487 O494 2.122 . S
Co487 O508 2.115 . S
Co487 O509 2.315 . S
O488 Co487 2.053 . S
O488 C500 1.259 . S
O489 Co481 2.047 . S
O489 C500 1.257 . S
O490 Co487 2.094 . S
O490 C501 1.253 . S
O491 Co482 2.063 . S
O491 C501 1.268 . S
O492 Co480 2.115 . S
O492 C502 1.281 . S
O493 Co480 2.315 . S
O493 C502 1.252 . S
O494 Co487 2.122 . S
O494 C503 1.272 . S
O495 Co481 2.113 . S
O495 C503 1.245 . S
C496 O504 1.259 . S
C496 O505 1.257 . S
C497 O506 1.268 . S
C497 O507 1.253 . S
C498 O508 1.281 . S
C498 O509 1.252 . S
C499 O510 1.272 . S
C499 O511 1.245 . S
C500 O488 1.259 . S
C500 O489 1.257 . S
C501 O490 1.253 . S
C501 O491 1.268 . S
C502 O492 1.281 . S
C502 O493 1.252 . S
C503 O494 1.272 . S
C503 O495 1.245 . S
O504 Co480 2.053 . S
O504 C496 1.259 . S
O505 Co482 2.047 . S
O505 C496 1.257 . S
O506 Co481 2.063 . S
O506 C497 1.268 . S
O507 Co480 2.094 . S
O507 C497 1.253 . S
O508 Co487 2.115 . S
O508 C498 1.281 . S
O509 Co487 2.315 . S
O509 C498 1.252 . S
O510 Co480 2.122 . S
O510 C499 1.272 . S
O511 Co482 2.113 . S
O511 C499 1.245 . S
Co512 H515 2.400 . S
Co512 O516 2.009 . S
Co512 O524 2.115 . S
Co512 O525 2.315 . S
Co512 O536 2.053 . S
Co512 O539 2.094 . S
Co512 O542 2.122 . S
Co513 O516 2.126 . S
Co513 H517 2.388 . S
Co513 O518 2.053 . S
Co513 O521 2.047 . S
Co513 O527 2.113 . S
Co513 O538 2.063 . S
Co514 H515 2.388 . S
Co514 O516 2.053 . S
Co514 O518 2.126 . S
Co514 O523 2.063 . S
Co514 O537 2.047 . S
Co514 O543 2.113 . S
H515 Co512 2.400 . S
H515 Co514 2.388 . S
H515 O516 0.760 . S
O516 Co512 2.009 . S
O516 Co513 2.126 . S
O516 Co514 2.053 . S
O516 H515 0.760 . S
H517 Co513 2.388 . S
H517 O518 0.760 . S
H517 Co519 2.400 . S
O518 Co513 2.053 . S
O518 Co514 2.126 . S
O518 H517 0.760 . S
O518 Co519 2.009 . S
Co519 H517 2.400 . S
Co519 O518 2.009 . S
Co519 O520 2.053 . S
Co519 O522 2.094 . S
Co519 O526 2.122 . S
Co519 O540 2.115 . S
Co519 O541 2.315 . S
O520 Co519 2.053 . S
O520 C532 1.259 . S
O521 Co513 2.047 . S
O521 C532 1.257 . S
O522 Co519 2.094 . S
O522 C533 1.253 . S
O523 Co514 2.063 . S
O523 C533 1.268 . S
O524 Co512 2.115 . S
O524 C534 1.281 . S
O525 Co512 2.315 . S
O525 C534 1.252 . S
O526 Co519 2.122 . S
O526 C535 1.272 . S
O527 Co513 2.113 . S
O527 C535 1.245 . S
C528 O536 1.259 . S
C528 O537 1.257 . S
C529 O538 1.268 . S
C529 O539 1.253 . S
C530 O540 1.281 . S
C530 O541 1.252 . S
C531 O542 1.272 . S
C531 O543 1.245 . S
C532 O520 1.259 . S
C532 O521 1.257 . S
C533 O522 1.253 . S
C533 O523 1.268 . S
C534 O524 1.281 . S
C534 O525 1.252 . S
C535 O526 1.272 . S
C535 O527 1.245 . S
O536 Co512 2.053 . S
O536 C528 1.259 . S
O537 Co514 2.047 . S
O537 C528 1.257 . S
O538 Co513 2.063 . S
O538 C529 1.268 . S
O539 Co512 2.094 . S
O539 C529 1.253 . S
O540 Co519 2.115 . S
O540 C530 1.281 . S
O541 Co519 2.315 . S
O541 C530 1.252 . S
O542 Co512 2.122 . S
O542 C531 1.272 . S
O543 Co514 2.113 . S
O543 C531 1.245 . S
Co544 H547 2.400 . S
Co544 O548 2.009 . S
Co544 O556 2.115 . S
Co544 O557 2.315 . S
Co544 O568 2.053 . S
Co544 O571 2.094 . S
Co544 O574 2.122 . S
Co545 O548 2.126 . S
Co545 H549 2.388 . S
Co545 O550 2.053 . S
Co545 O553 2.047 . S
Co545 O559 2.113 . S
Co545 O570 2.063 . S
Co546 H547 2.388 . S
Co546 O548 2.053 . S
Co546 O550 2.126 . S
Co546 O555 2.063 . S
Co546 O569 2.047 . S
Co546 O575 2.113 . S
H547 Co544 2.400 . S
H547 Co546 2.388 . S
H547 O548 0.760 . S
O548 Co544 2.009 . S
O548 Co545 2.126 . S
O548 Co546 2.053 . S
O548 H547 0.760 . S
H549 Co545 2.388 . S
H549 O550 0.760 . S
H549 Co551 2.400 . S
O550 Co545 2.053 . S
O550 Co546 2.126 . S
O550 H549 0.760 . S
O550 Co551 2.009 . S
Co551 H549 2.400 . S
Co551 O550 2.009 . S
Co551 O552 2.053 . S
Co551 O554 2.094 . S
Co551 O558 2.122 . S
Co551 O572 2.115 . S
Co551 O573 2.315 . S
O552 Co551 2.053 . S
O552 C564 1.259 . S
O553 Co545 2.047 . S
O553 C564 1.257 . S
O554 Co551 2.094 . S
O554 C565 1.253 . S
O555 Co546 2.063 . S
O555 C565 1.268 . S
O556 Co544 2.115 . S
O556 C566 1.281 . S
O557 Co544 2.315 . S
O557 C566 1.252 . S
O558 Co551 2.122 . S
O558 C567 1.272 . S
O559 Co545 2.113 . S
O559 C567 1.245 . S
C560 O568 1.259 . S
C560 O569 1.257 . S
C561 O570 1.268 . S
C561 O571 1.253 . S
C562 O572 1.281 . S
C562 O573 1.252 . S
C563 O574 1.272 . S
C563 O575 1.245 . S
C564 O552 1.259 . S
C564 O553 1.257 . S
C565 O554 1.253 . S
C565 O555 1.268 . S
C566 O556 1.281 . S
C566 O557 1.252 . S
C567 O558 1.272 . S
C567 O559 1.245 . S
O568 Co544 2.053 . S
O568 C560 1.259 . S
O569 Co546 2.047 . S
O569 C560 1.257 . S
O570 Co545 2.063 . S
O570 C561 1.268 . S
O571 Co544 2.094 . S
O571 C561 1.253 . S
O572 Co551 2.115 . S
O572 C562 1.281 . S
O573 Co551 2.315 . S
O573 C562 1.252 . S
O574 Co544 2.122 . S
O574 C563 1.272 . S
O575 Co546 2.113 . S
O575 C563 1.245 . S
Co576 H579 2.400 . S
Co576 O580 2.009 . S
Co576 O588 2.115 . S
Co576 O589 2.315 . S
Co576 O600 2.053 . S
Co576 O603 2.094 . S
Co576 O606 2.122 . S
Co577 O580 2.126 . S
Co577 H581 2.388 . S
Co577 O582 2.053 . S
Co577 O585 2.047 . S
Co577 O591 2.113 . S
Co577 O602 2.063 . S
Co578 H579 2.388 . S
Co578 O580 2.053 . S
Co578 O582 2.126 . S
Co578 O587 2.063 . S
Co578 O601 2.047 . S
Co578 O607 2.113 . S
H579 Co576 2.400 . S
H579 Co578 2.388 . S
H579 O580 0.760 . S
O580 Co576 2.009 . S
O580 Co577 2.126 . S
O580 Co578 2.053 . S
O580 H579 0.760 . S
H581 Co577 2.388 . S
H581 O582 0.760 . S
H581 Co583 2.400 . S
O582 Co577 2.053 . S
O582 Co578 2.126 . S
O582 H581 0.760 . S
O582 Co583 2.009 . S
Co583 H581 2.400 . S
Co583 O582 2.009 . S
Co583 O584 2.053 . S
Co583 O586 2.094 . S
Co583 O590 2.122 . S
Co583 O604 2.115 . S
Co583 O605 2.315 . S
O584 Co583 2.053 . S
O584 C596 1.259 . S
O585 Co577 2.047 . S
O585 C596 1.257 . S
O586 Co583 2.094 . S
O586 C597 1.253 . S
O587 Co578 2.063 . S
O587 C597 1.268 . S
O588 Co576 2.115 . S
O588 C598 1.281 . S
O589 Co576 2.315 . S
O589 C598 1.252 . S
O590 Co583 2.122 . S
O590 C599 1.272 . S
O591 Co577 2.113 . S
O591 C599 1.245 . S
C592 O600 1.259 . S
C592 O601 1.257 . S
C593 O602 1.268 . S
C593 O603 1.253 . S
C594 O604 1.281 . S
C594 O605 1.252 . S
C595 O606 1.272 . S
C595 O607 1.245 . S
C596 O584 1.259 . S
C596 O585 1.257 . S
C597 O586 1.253 . S
C597 O587 1.268 . S
C598 O588 1.281 . S
C598 O589 1.252 . S
C599 O590 1.272 . S
C599 O591 1.245 . S
O600 Co576 2.053 . S
O600 C592 1.259 . S
O601 Co578 2.047 . S
O601 C592 1.257 . S
O602 Co577 2.063 . S
O602 C593 1.268 . S
O603 Co576 2.094 . S
O603 C593 1.253 . S
O604 Co583 2.115 . S
O604 C594 1.281 . S
O605 Co583 2.315 . S
O605 C594 1.252 . S
O606 Co576 2.122 . S
O606 C595 1.272 . S
O607 Co578 2.113 . S
O607 C595 1.245 . S
Co608 H611 2.400 . S
Co608 O612 2.009 . S
Co608 O620 2.115 . S
Co608 O621 2.315 . S
Co608 O632 2.053 . S
Co608 O635 2.094 . S
Co608 O638 2.122 . S
Co609 O612 2.126 . S
Co609 H613 2.388 . S
Co609 O614 2.053 . S
Co609 O617 2.047 . S
Co609 O623 2.113 . S
Co609 O634 2.063 . S
Co610 H611 2.388 . S
Co610 O612 2.053 . S
Co610 O614 2.126 . S
Co610 O619 2.063 . S
Co610 O633 2.047 . S
Co610 O639 2.113 . S
H611 Co608 2.400 . S
H611 Co610 2.388 . S
H611 O612 0.760 . S
O612 Co608 2.009 . S
O612 Co609 2.126 . S
O612 Co610 2.053 . S
O612 H611 0.760 . S
H613 Co609 2.388 . S
H613 O614 0.760 . S
H613 Co615 2.400 . S
O614 Co609 2.053 . S
O614 Co610 2.126 . S
O614 H613 0.760 . S
O614 Co615 2.009 . S
Co615 H613 2.400 . S
Co615 O614 2.009 . S
Co615 O616 2.053 . S
Co615 O618 2.094 . S
Co615 O622 2.122 . S
Co615 O636 2.115 . S
Co615 O637 2.315 . S
O616 Co615 2.053 . S
O616 C628 1.259 . S
O617 Co609 2.047 . S
O617 C628 1.257 . S
O618 Co615 2.094 . S
O618 C629 1.253 . S
O619 Co610 2.063 . S
O619 C629 1.268 . S
O620 Co608 2.115 . S
O620 C630 1.281 . S
O621 Co608 2.315 . S
O621 C630 1.252 . S
O622 Co615 2.122 . S
O622 C631 1.272 . S
O623 Co609 2.113 . S
O623 C631 1.245 . S
C624 O632 1.259 . S
C624 O633 1.257 . S
C625 O634 1.268 . S
C625 O635 1.253 . S
C626 O636 1.281 . S
C626 O637 1.252 . S
C627 O638 1.272 . S
C627 O639 1.245 . S
C628 O616 1.259 . S
C628 O617 1.257 . S
C629 O618 1.253 . S
C629 O619 1.268 . S
C630 O620 1.281 . S
C630 O621 1.252 . S
C631 O622 1.272 . S
C631 O623 1.245 . S
O632 Co608 2.053 . S
O632 C624 1.259 . S
O633 Co610 2.047 . S
O633 C624 1.257 . S
O634 Co609 2.063 . S
O634 C625 1.268 . S
O635 Co608 2.094 . S
O635 C625 1.253 . S
O636 Co615 2.115 . S
O636 C626 1.281 . S
O637 Co615 2.315 . S
O637 C626 1.252 . S
O638 Co608 2.122 . S
O638 C627 1.272 . S
O639 Co610 2.113 . S
O639 C627 1.245 . S
Co640 H643 2.400 . S
Co640 O644 2.009 . S
Co640 O652 2.115 . S
Co640 O653 2.315 . S
Co640 O664 2.053 . S
Co640 O667 2.094 . S
Co640 O670 2.122 . S
Co641 O644 2.126 . S
Co641 H645 2.388 . S
Co641 O646 2.053 . S
Co641 O649 2.047 . S
Co641 O655 2.113 . S
Co641 O666 2.063 . S
Co642 H643 2.388 . S
Co642 O644 2.053 . S
Co642 O646 2.126 . S
Co642 O651 2.063 . S
Co642 O665 2.047 . S
Co642 O671 2.113 . S
H643 Co640 2.400 . S
H643 Co642 2.388 . S
H643 O644 0.760 . S
O644 Co640 2.009 . S
O644 Co641 2.126 . S
O644 Co642 2.053 . S
O644 H643 0.760 . S
H645 Co641 2.388 . S
H645 O646 0.760 . S
H645 Co647 2.400 . S
O646 Co641 2.053 . S
O646 Co642 2.126 . S
O646 H645 0.760 . S
O646 Co647 2.009 . S
Co647 H645 2.400 . S
Co647 O646 2.009 . S
Co647 O648 2.053 . S
Co647 O650 2.094 . S
Co647 O654 2.122 . S
Co647 O668 2.115 . S
Co647 O669 2.315 . S
O648 Co647 2.053 . S
O648 C660 1.259 . S
O649 Co641 2.047 . S
O649 C660 1.257 . S
O650 Co647 2.094 . S
O650 C661 1.253 . S
O651 Co642 2.063 . S
O651 C661 1.268 . S
O652 Co640 2.115 . S
O652 C662 1.281 . S
O653 Co640 2.315 . S
O653 C662 1.252 . S
O654 Co647 2.122 . S
O654 C663 1.272 . S
O655 Co641 2.113 . S
O655 C663 1.245 . S
C656 O664 1.259 . S
C656 O665 1.257 . S
C657 O666 1.268 . S
C657 O667 1.253 . S
C658 O668 1.281 . S
C658 O669 1.252 . S
C659 O670 1.272 . S
C659 O671 1.245 . S
C660 O648 1.259 . S
C660 O649 1.257 . S
C661 O650 1.253 . S
C661 O651 1.268 . S
C662 O652 1.281 . S
C662 O653 1.252 . S
C663 O654 1.272 . S
C663 O655 1.245 . S
O664 Co640 2.053 . S
O664 C656 1.259 . S
O665 Co642 2.047 . S
O665 C656 1.257 . S
O666 Co641 2.063 . S
O666 C657 1.268 . S
O667 Co640 2.094 . S
O667 C657 1.253 . S
O668 Co647 2.115 . S
O668 C658 1.281 . S
O669 Co647 2.315 . S
O669 C658 1.252 . S
O670 Co640 2.122 . S
O670 C659 1.272 . S
O671 Co642 2.113 . S
O671 C659 1.245 . S
Co672 H675 2.400 . S
Co672 O676 2.009 . S
Co672 O684 2.115 . S
Co672 O685 2.315 . S
Co672 O696 2.053 . S
Co672 O699 2.094 . S
Co672 O702 2.122 . S
Co673 O676 2.126 . S
Co673 H677 2.388 . S
Co673 O678 2.053 . S
Co673 O681 2.047 . S
Co673 O687 2.113 . S
Co673 O698 2.063 . S
Co674 H675 2.388 . S
Co674 O676 2.053 . S
Co674 O678 2.126 . S
Co674 O683 2.063 . S
Co674 O697 2.047 . S
Co674 O703 2.113 . S
H675 Co672 2.400 . S
H675 Co674 2.388 . S
H675 O676 0.760 . S
O676 Co672 2.009 . S
O676 Co673 2.126 . S
O676 Co674 2.053 . S
O676 H675 0.760 . S
H677 Co673 2.388 . S
H677 O678 0.760 . S
H677 Co679 2.400 . S
O678 Co673 2.053 . S
O678 Co674 2.126 . S
O678 H677 0.760 . S
O678 Co679 2.009 . S
Co679 H677 2.400 . S
Co679 O678 2.009 . S
Co679 O680 2.053 . S
Co679 O682 2.094 . S
Co679 O686 2.122 . S
Co679 O700 2.115 . S
Co679 O701 2.315 . S
O680 Co679 2.053 . S
O680 C692 1.259 . S
O681 Co673 2.047 . S
O681 C692 1.257 . S
O682 Co679 2.094 . S
O682 C693 1.253 . S
O683 Co674 2.063 . S
O683 C693 1.268 . S
O684 Co672 2.115 . S
O684 C694 1.281 . S
O685 Co672 2.315 . S
O685 C694 1.252 . S
O686 Co679 2.122 . S
O686 C695 1.272 . S
O687 Co673 2.113 . S
O687 C695 1.245 . S
C688 O696 1.259 . S
C688 O697 1.257 . S
C689 O698 1.268 . S
C689 O699 1.253 . S
C690 O700 1.281 . S
C690 O701 1.252 . S
C691 O702 1.272 . S
C691 O703 1.245 . S
C692 O680 1.259 . S
C692 O681 1.257 . S
C693 O682 1.253 . S
C693 O683 1.268 . S
C694 O684 1.281 . S
C694 O685 1.252 . S
C695 O686 1.272 . S
C695 O687 1.245 . S
O696 Co672 2.053 . S
O696 C688 1.259 . S
O697 Co674 2.047 . S
O697 C688 1.257 . S
O698 Co673 2.063 . S
O698 C689 1.268 . S
O699 Co672 2.094 . S
O699 C689 1.253 . S
O700 Co679 2.115 . S
O700 C690 1.281 . S
O701 Co679 2.315 . S
O701 C690 1.252 . S
O702 Co672 2.122 . S
O702 C691 1.272 . S
O703 Co674 2.113 . S
O703 C691 1.245 . S
Co704 H707 2.400 . S
Co704 O708 2.009 . S
Co704 O716 2.115 . S
Co704 O717 2.315 . S
Co704 O728 2.053 . S
Co704 O731 2.094 . S
Co704 O734 2.122 . S
Co705 O708 2.126 . S
Co705 H709 2.388 . S
Co705 O710 2.053 . S
Co705 O713 2.047 . S
Co705 O719 2.113 . S
Co705 O730 2.063 . S
Co706 H707 2.388 . S
Co706 O708 2.053 . S
Co706 O710 2.126 . S
Co706 O715 2.063 . S
Co706 O729 2.047 . S
Co706 O735 2.113 . S
H707 Co704 2.400 . S
H707 Co706 2.388 . S
H707 O708 0.760 . S
O708 Co704 2.009 . S
O708 Co705 2.126 . S
O708 Co706 2.053 . S
O708 H707 0.760 . S
H709 Co705 2.388 . S
H709 O710 0.760 . S
H709 Co711 2.400 . S
O710 Co705 2.053 . S
O710 Co706 2.126 . S
O710 H709 0.760 . S
O710 Co711 2.009 . S
Co711 H709 2.400 . S
Co711 O710 2.009 . S
Co711 O712 2.053 . S
Co711 O714 2.094 . S
Co711 O718 2.122 . S
Co711 O732 2.115 . S
Co711 O733 2.315 . S
O712 Co711 2.053 . S
O712 C724 1.259 . S
O713 Co705 2.047 . S
O713 C724 1.257 . S
O714 Co711 2.094 . S
O714 C725 1.253 . S
O715 Co706 2.063 . S
O715 C725 1.268 . S
O716 Co704 2.115 . S
O716 C726 1.281 . S
O717 Co704 2.315 . S
O717 C726 1.252 . S
O718 Co711 2.122 . S
O718 C727 1.272 . S
O719 Co705 2.113 . S
O719 C727 1.245 . S
C720 O728 1.259 . S
C720 O729 1.257 . S
C721 O730 1.268 . S
C721 O731 1.253 . S
C722 O732 1.281 . S
C722 O733 1.252 . S
C723 O734 1.272 . S
C723 O735 1.245 . S
C724 O712 1.259 . S
C724 O713 1.257 . S
C725 O714 1.253 . S
C725 O715 1.268 . S
C726 O716 1.281 . S
C726 O717 1.252 . S
C727 O718 1.272 . S
C727 O719 1.245 . S
O728 Co704 2.053 . S
O728 C720 1.259 . S
O729 Co706 2.047 . S
O729 C720 1.257 . S
O730 Co705 2.063 . S
O730 C721 1.268 . S
O731 Co704 2.094 . S
O731 C721 1.253 . S
O732 Co711 2.115 . S
O732 C722 1.281 . S
O733 Co711 2.315 . S
O733 C722 1.252 . S
O734 Co704 2.122 . S
O734 C723 1.272 . S
O735 Co706 2.113 . S
O735 C723 1.245 . S
Co736 H739 2.400 . S
Co736 O740 2.009 . S
Co736 O748 2.115 . S
Co736 O749 2.315 . S
Co736 O760 2.053 . S
Co736 O763 2.094 . S
Co736 O766 2.122 . S
Co737 O740 2.126 . S
Co737 H741 2.388 . S
Co737 O742 2.053 . S
Co737 O745 2.047 . S
Co737 O751 2.113 . S
Co737 O762 2.063 . S
Co738 H739 2.388 . S
Co738 O740 2.053 . S
Co738 O742 2.126 . S
Co738 O747 2.063 . S
Co738 O761 2.047 . S
Co738 O767 2.113 . S
H739 Co736 2.400 . S
H739 Co738 2.388 . S
H739 O740 0.760 . S
O740 Co736 2.009 . S
O740 Co737 2.126 . S
O740 Co738 2.053 . S
O740 H739 0.760 . S
H741 Co737 2.388 . S
H741 O742 0.760 . S
H741 Co743 2.400 . S
O742 Co737 2.053 . S
O742 Co738 2.126 . S
O742 H741 0.760 . S
O742 Co743 2.009 . S
Co743 H741 2.400 . S
Co743 O742 2.009 . S
Co743 O744 2.053 . S
Co743 O746 2.094 . S
Co743 O750 2.122 . S
Co743 O764 2.115 . S
Co743 O765 2.315 . S
O744 Co743 2.053 . S
O744 C756 1.259 . S
O745 Co737 2.047 . S
O745 C756 1.257 . S
O746 Co743 2.094 . S
O746 C757 1.253 . S
O747 Co738 2.063 . S
O747 C757 1.268 . S
O748 Co736 2.115 . S
O748 C758 1.281 . S
O749 Co736 2.315 . S
O749 C758 1.252 . S
O750 Co743 2.122 . S
O750 C759 1.272 . S
O751 Co737 2.113 . S
O751 C759 1.245 . S
C752 O760 1.259 . S
C752 O761 1.257 . S
C753 O762 1.268 . S
C753 O763 1.253 . S
C754 O764 1.281 . S
C754 O765 1.252 . S
C755 O766 1.272 . S
C755 O767 1.245 . S
C756 O744 1.259 . S
C756 O745 1.257 . S
C757 O746 1.253 . S
C757 O747 1.268 . S
C758 O748 1.281 . S
C758 O749 1.252 . S
C759 O750 1.272 . S
C759 O751 1.245 . S
O760 Co736 2.053 . S
O760 C752 1.259 . S
O761 Co738 2.047 . S
O761 C752 1.257 . S
O762 Co737 2.063 . S
O762 C753 1.268 . S
O763 Co736 2.094 . S
O763 C753 1.253 . S
O764 Co743 2.115 . S
O764 C754 1.281 . S
O765 Co743 2.315 . S
O765 C754 1.252 . S
O766 Co736 2.122 . S
O766 C755 1.272 . S
O767 Co738 2.113 . S
O767 C755 1.245 . S
H768 C774 0.930 . S
H769 C778 0.930 . S
H770 C783 0.929 . S
H771 C781 0.929 . S
H772 C776 0.929 . S
H773 C782 0.929 . S
C774 H768 0.930 . S
C774 C775 1.367 . S
C774 C782 1.378 . S
C775 C774 1.367 . S
C775 C783 1.433 . S
C776 H772 0.929 . S
C776 C778 1.378 . S
C776 C780 1.350 . S
C777 C780 1.463 . S
C777 C782 1.350 . S
C777 N785 1.427 . S
C778 H769 0.930 . S
C778 C776 1.378 . S
C778 C779 1.367 . S
C779 C778 1.367 . S
C779 C781 1.433 . S
C780 C776 1.350 . S
C780 C777 1.463 . S
C780 N784 1.427 . S
C781 H771 0.929 . S
C781 C779 1.433 . S
C781 N784 1.384 . S
C782 H773 0.929 . S
C782 C774 1.378 . S
C782 C777 1.350 . S
C783 H770 0.929 . S
C783 C775 1.433 . S
C783 N785 1.384 . S
N784 C780 1.427 . S
N784 C781 1.384 . S
N785 C777 1.427 . S
N785 C783 1.384 . S
H786 C792 0.930 . S
H787 C796 0.930 . S
H788 C801 0.929 . S
H789 C799 0.933 . S
H790 C794 0.929 1_565 S
H791 C800 0.929 . S
C792 H786 0.930 . S
C792 C793 1.367 . S
C792 C800 1.378 . S
C793 C792 1.367 . S
C793 C801 1.433 . S
C794 H790 0.929 1_545 S
C794 C796 1.378 1_655 S
C794 C798 1.350 1_545 S
C795 C798 1.463 . S
C795 C800 1.350 . S
C795 N803 1.427 . S
C796 H787 0.930 . S
C796 C794 1.378 1_455 S
C796 C797 1.367 . S
C797 C796 1.367 . S
C797 C799 1.445 . S
C798 C794 1.350 1_565 S
C798 C795 1.463 . S
C798 N802 1.427 1_565 S
C799 H789 0.933 . S
C799 C797 1.445 . S
C799 N802 1.369 1_455 S
C800 H791 0.929 . S
C800 C792 1.378 . S
C800 C795 1.350 . S
C801 H788 0.929 . S
C801 C793 1.433 . S
C801 N803 1.384 . S
N802 C798 1.427 1_545 S
N802 C799 1.369 1_655 S
N803 C795 1.427 . S
N803 C801 1.384 . S
H804 C810 0.930 . S
H805 C814 0.930 . S
H806 C819 0.929 . S
H807 C817 0.929 . S
H808 C812 0.929 . S
H809 C818 0.929 . S
C810 H804 0.930 . S
C810 C811 1.367 . S
C810 C818 1.378 . S
C811 C810 1.367 . S
C811 C819 1.433 . S
C812 H808 0.929 . S
C812 C814 1.378 . S
C812 C816 1.350 . S
C813 C816 1.463 . S
C813 C818 1.350 . S
C813 N821 1.427 . S
C814 H805 0.930 . S
C814 C812 1.378 . S
C814 C815 1.367 . S
C815 C814 1.367 . S
C815 C817 1.433 . S
C816 C812 1.350 . S
C816 C813 1.463 . S
C816 N820 1.427 . S
C817 H807 0.929 . S
C817 C815 1.433 . S
C817 N820 1.384 . S
C818 H809 0.929 . S
C818 C810 1.378 . S
C818 C813 1.350 . S
C819 H806 0.929 . S
C819 C811 1.433 . S
C819 N821 1.384 . S
N820 C816 1.427 . S
N820 C817 1.384 . S
N821 C813 1.427 . S
N821 C819 1.384 . S
H822 C828 0.933 . S
H823 C832 0.930 . S
H824 C837 0.929 . S
H825 C835 0.929 . S
H826 C830 0.929 . S
H827 C836 0.929 . S
C828 H822 0.933 . S
C828 C829 1.352 1_545 S
C828 C836 1.390 . S
C829 C828 1.352 1_565 S
C829 C837 1.433 . S
C830 H826 0.929 . S
C830 C832 1.378 . S
C830 C834 1.350 . S
C831 C834 1.463 . S
C831 C836 1.350 . S
C831 N839 1.427 1_545 S
C832 H823 0.930 . S
C832 C830 1.378 . S
C832 C833 1.367 . S
C833 C832 1.367 . S
C833 C835 1.433 . S
C834 C830 1.350 . S
C834 C831 1.463 . S
C834 N838 1.427 . S
C835 H825 0.929 . S
C835 C833 1.433 . S
C835 N838 1.384 . S
C836 H827 0.929 . S
C836 C828 1.390 . S
C836 C831 1.350 . S
C837 H824 0.929 . S
C837 C829 1.433 . S
C837 N839 1.384 . S
N838 C834 1.427 . S
N838 C835 1.384 . S
N839 C831 1.427 1_565 S
N839 C837 1.384 . S
H840 C846 0.930 . S
H841 C850 0.930 . S
H842 C855 0.929 . S
H843 C853 0.929 . S
H844 C848 0.929 . S
H845 C854 0.929 . S
C846 H840 0.930 . S
C846 C847 1.367 . S
C846 C854 1.378 . S
C847 C846 1.367 . S
C847 C855 1.433 . S
C848 H844 0.929 . S
C848 C850 1.378 . S
C848 C852 1.350 . S
C849 C852 1.463 . S
C849 C854 1.350 . S
C849 N857 1.427 . S
C850 H841 0.930 . S
C850 C848 1.378 . S
C850 C851 1.367 . S
C851 C850 1.367 . S
C851 C853 1.433 . S
C852 C848 1.350 . S
C852 C849 1.463 . S
C852 N856 1.427 . S
C853 H843 0.929 . S
C853 C851 1.433 . S
C853 N856 1.384 . S
C854 H845 0.929 . S
C854 C846 1.378 . S
C854 C849 1.350 . S
C855 H842 0.929 . S
C855 C847 1.433 . S
C855 N857 1.384 . S
N856 C852 1.427 . S
N856 C853 1.384 . S
N857 C849 1.427 . S
N857 C855 1.384 . S
H858 C864 0.930 . S
H859 C868 0.930 . S
H860 C873 0.929 . S
H861 C871 0.929 . S
H862 C866 0.929 1_565 S
H863 C872 0.929 1_545 S
C864 H858 0.930 . S
C864 C865 1.367 . S
C864 C872 1.378 . S
C865 C864 1.367 . S
C865 C873 1.433 . S
C866 H862 0.929 1_545 S
C866 C868 1.378 . S
C866 C870 1.350 . S
C867 C870 1.463 1_565 S
C867 C872 1.350 . S
C867 N875 1.427 . S
C868 H859 0.930 . S
C868 C866 1.378 . S
C868 C869 1.367 . S
C869 C868 1.367 . S
C869 C871 1.433 . S
C870 C866 1.350 . S
C870 C867 1.463 1_545 S
C870 N874 1.427 . S
C871 H861 0.929 . S
C871 C869 1.433 . S
C871 N874 1.384 . S
C872 H863 0.929 1_565 S
C872 C864 1.378 . S
C872 C867 1.350 . S
C873 H860 0.929 . S
C873 C865 1.433 . S
C873 N875 1.384 . S
N874 C870 1.427 . S
N874 C871 1.384 . S
N875 C867 1.427 . S
N875 C873 1.384 . S
H876 C882 0.930 . S
H877 C886 0.930 . S
H878 C891 0.929 . S
H879 C889 0.929 . S
H880 C884 0.929 . S
H881 C890 0.929 . S
C882 H876 0.930 . S
C882 C883 1.367 . S
C882 C890 1.378 . S
C883 C882 1.367 . S
C883 C891 1.433 . S
C884 H880 0.929 . S
C884 C886 1.378 . S
C884 C888 1.350 . S
C885 C888 1.463 . S
C885 C890 1.350 . S
C885 N893 1.427 . S
C886 H877 0.930 . S
C886 C884 1.378 . S
C886 C887 1.367 . S
C887 C886 1.367 . S
C887 C889 1.433 . S
C888 C884 1.350 . S
C888 C885 1.463 . S
C888 N892 1.427 . S
C889 H879 0.929 . S
C889 C887 1.433 . S
C889 N892 1.384 . S
C890 H881 0.929 . S
C890 C882 1.378 . S
C890 C885 1.350 . S
C891 H878 0.929 . S
C891 C883 1.433 . S
C891 N893 1.384 . S
N892 C888 1.427 . S
N892 C889 1.384 . S
N893 C885 1.427 . S
N893 C891 1.384 . S
H894 C900 0.930 . S
H895 C904 0.930 . S
H896 C909 0.929 . S
H897 C907 0.929 . S
H898 C902 0.929 . S
H899 C908 0.929 . S
C900 H894 0.930 . S
C900 C901 1.367 . S
C900 C908 1.378 . S
C901 C900 1.367 . S
C901 C909 1.433 1_565 S
C902 H898 0.929 . S
C902 C904 1.378 . S
C902 C906 1.350 . S
C903 C906 1.463 1_455 S
C903 C908 1.350 1_545 S
C903 N911 1.427 . S
C904 H895 0.930 . S
C904 C902 1.378 . S
C904 C905 1.367 . S
C905 C904 1.367 . S
C905 C907 1.433 . S
C906 C902 1.350 . S
C906 C903 1.463 1_655 S
C906 N910 1.427 . S
C907 H897 0.929 . S
C907 C905 1.433 . S
C907 N910 1.384 . S
C908 H899 0.929 . S
C908 C900 1.378 . S
C908 C903 1.350 1_565 S
C909 H896 0.929 . S
C909 C901 1.433 1_545 S
C909 N911 1.384 . S
N910 C906 1.427 . S
N910 C907 1.384 . S
N911 C903 1.427 . S
N911 C909 1.384 . S
H912 C918 0.930 . S
H913 C922 0.930 . S
H914 C927 0.929 . S
H915 C925 0.929 . S
H916 C920 0.929 . S
H917 C926 0.929 . S
C918 H912 0.930 . S
C918 C919 1.367 . S
C918 C926 1.378 . S
C919 C918 1.367 . S
C919 C927 1.433 . S
C920 H916 0.929 . S
C920 C922 1.378 . S
C920 C924 1.350 . S
C921 C924 1.463 . S
C921 C926 1.350 . S
C921 N929 1.427 . S
C922 H913 0.930 . S
C922 C920 1.378 . S
C922 C923 1.367 . S
C923 C922 1.367 . S
C923 C925 1.433 . S
C924 C920 1.350 . S
C924 C921 1.463 . S
C924 N928 1.427 . S
C925 H915 0.929 . S
C925 C923 1.433 . S
C925 N928 1.384 . S
C926 H917 0.929 . S
C926 C918 1.378 . S
C926 C921 1.350 . S
C927 H914 0.929 . S
C927 C919 1.433 . S
C927 N929 1.384 . S
N928 C924 1.427 . S
N928 C925 1.384 . S
N929 C921 1.427 . S
N929 C927 1.384 . S
H930 C936 0.930 . S
H931 C940 0.930 . S
H932 C945 0.929 . S
H933 C943 0.929 . S
H934 C938 0.929 . S
H935 C944 0.929 . S
C936 H930 0.930 . S
C936 C937 1.367 . S
C936 C944 1.378 . S
C937 C936 1.367 . S
C937 C945 1.433 . S
C938 H934 0.929 . S
C938 C940 1.378 . S
C938 C942 1.350 1_655 S
C939 C942 1.463 . S
C939 C944 1.350 . S
C939 N947 1.427 . S
C940 H931 0.930 . S
C940 C938 1.378 . S
C940 C941 1.367 . S
C941 C940 1.367 . S
C941 C943 1.433 . S
C942 C938 1.350 1_455 S
C942 C939 1.463 . S
C942 N946 1.427 1_455 S
C943 H933 0.929 . S
C943 C941 1.433 . S
C943 N946 1.384 . S
C944 H935 0.929 . S
C944 C936 1.378 . S
C944 C939 1.350 . S
C945 H932 0.929 . S
C945 C937 1.433 . S
C945 N947 1.384 . S
N946 C942 1.427 1_655 S
N946 C943 1.384 . S
N947 C939 1.427 . S
N947 C945 1.384 . S
H948 C954 0.930 . S
H949 C958 0.930 . S
H950 C963 0.929 . S
H951 C961 0.929 . S
H952 C956 0.929 . S
H953 C962 0.929 . S
C954 H948 0.930 . S
C954 C955 1.367 . S
C954 C962 1.378 . S
C955 C954 1.367 . S
C955 C963 1.433 . S
C956 H952 0.929 . S
C956 C958 1.378 . S
C956 C960 1.350 . S
C957 C960 1.463 . S
C957 C962 1.350 . S
C957 N965 1.427 . S
C958 H949 0.930 . S
C958 C956 1.378 . S
C958 C959 1.367 . S
C959 C958 1.367 . S
C959 C961 1.433 . S
C960 C956 1.350 . S
C960 C957 1.463 . S
C960 N964 1.427 . S
C961 H951 0.929 . S
C961 C959 1.433 . S
C961 N964 1.384 . S
C962 H953 0.929 . S
C962 C954 1.378 . S
C962 C957 1.350 . S
C963 H950 0.929 . S
C963 C955 1.433 . S
C963 N965 1.384 . S
N964 C960 1.427 . S
N964 C961 1.384 . S
N965 C957 1.427 . S
N965 C963 1.384 . S
H966 C972 0.930 . S
H967 C976 0.930 . S
H968 C981 0.929 . S
H969 C979 0.929 . S
H970 C974 0.929 1_556 S
H971 C980 0.929 . S
C972 H966 0.930 . S
C972 C973 1.367 1_554 S
C972 C980 1.378 . S
C973 C972 1.367 1_556 S
C973 C981 1.433 . S
C974 H970 0.929 1_554 S
C974 C976 1.378 . S
C974 C978 1.350 . S
C975 C978 1.463 . S
C975 C980 1.350 . S
C975 N983 1.427 1_554 S
C976 H967 0.930 . S
C976 C974 1.378 . S
C976 C977 1.367 . S
C977 C976 1.367 . S
C977 C979 1.433 . S
C978 C974 1.350 . S
C978 C975 1.463 . S
C978 N982 1.427 . S
C979 H969 0.929 . S
C979 C977 1.433 . S
C979 N982 1.384 . S
C980 H971 0.929 . S
C980 C972 1.378 . S
C980 C975 1.350 . S
C981 H968 0.929 . S
C981 C973 1.433 . S
C981 N983 1.384 . S
N982 C978 1.427 . S
N982 C979 1.384 . S
N983 C975 1.427 1_556 S
N983 C981 1.384 . S
H984 C990 0.930 . S
H985 C994 0.930 . S
H986 C999 0.929 . S
H987 C997 0.929 . S
H988 C992 0.929 . S
H989 C998 0.929 . S
C990 H984 0.930 . S
C990 C991 1.367 . S
C990 C998 1.378 . S
C991 C990 1.367 . S
C991 C999 1.433 . S
C992 H988 0.929 . S
C992 C994 1.378 . S
C992 C996 1.350 . S
C993 C996 1.463 . S
C993 C998 1.350 . S
C993 N1001 1.427 . S
C994 H985 0.930 . S
C994 C992 1.378 . S
C994 C995 1.367 . S
C995 C994 1.367 . S
C995 C997 1.433 . S
C996 C992 1.350 . S
C996 C993 1.463 . S
C996 N1000 1.427 . S
C997 H987 0.929 . S
C997 C995 1.433 . S
C997 N1000 1.384 . S
C998 H989 0.929 . S
C998 C990 1.378 . S
C998 C993 1.350 . S
C999 H986 0.929 . S
C999 C991 1.433 . S
C999 N1001 1.384 . S
N1000 C996 1.427 . S
N1000 C997 1.384 . S
N1001 C993 1.427 . S
N1001 C999 1.384 . S
H1002 C1008 0.930 . S
H1003 C1012 0.930 . S
H1004 C1017 0.929 . S
H1005 C1015 0.929 . S
H1006 C1010 0.929 . S
H1007 C1016 0.929 . S
C1008 H1002 0.930 . S
C1008 C1009 1.367 . S
C1008 C1016 1.378 . S
C1009 C1008 1.367 . S
C1009 C1017 1.433 . S
C1010 H1006 0.929 . S
C1010 C1012 1.378 . S
C1010 C1014 1.350 . S
C1011 C1014 1.463 . S
C1011 C1016 1.350 . S
C1011 N1019 1.427 . S
C1012 H1003 0.930 . S
C1012 C1010 1.378 . S
C1012 C1013 1.367 . S
C1013 C1012 1.367 . S
C1013 C1015 1.433 . S
C1014 C1010 1.350 . S
C1014 C1011 1.463 . S
C1014 N1018 1.427 . S
C1015 H1005 0.929 . S
C1015 C1013 1.433 . S
C1015 N1018 1.384 . S
C1016 H1007 0.929 . S
C1016 C1008 1.378 . S
C1016 C1011 1.350 . S
C1017 H1004 0.929 . S
C1017 C1009 1.433 . S
C1017 N1019 1.384 . S
N1018 C1014 1.427 . S
N1018 C1015 1.384 . S
N1019 C1011 1.427 . S
N1019 C1017 1.384 . S
H1020 C1026 0.930 . S
H1021 C1030 0.930 . S
H1022 C1035 0.929 . S
H1023 C1033 0.929 . S
H1024 C1028 0.929 . S
H1025 C1034 0.929 . S
C1026 H1020 0.930 . S
C1026 C1027 1.367 . S
C1026 C1034 1.378 . S
C1027 C1026 1.367 . S
C1027 C1035 1.433 . S
C1028 H1024 0.929 . S
C1028 C1030 1.378 . S
C1028 C1032 1.350 . S
C1029 C1032 1.463 . S
C1029 C1034 1.350 . S
C1029 N1037 1.427 . S
C1030 H1021 0.930 . S
C1030 C1028 1.378 . S
C1030 C1031 1.367 . S
C1031 C1030 1.367 . S
C1031 C1033 1.433 . S
C1032 C1028 1.350 . S
C1032 C1029 1.463 . S
C1032 N1036 1.427 . S
C1033 H1023 0.929 . S
C1033 C1031 1.433 . S
C1033 N1036 1.384 . S
C1034 H1025 0.929 . S
C1034 C1026 1.378 . S
C1034 C1029 1.350 . S
C1035 H1022 0.929 . S
C1035 C1027 1.433 . S
C1035 N1037 1.384 . S
N1036 C1032 1.427 . S
N1036 C1033 1.384 . S
N1037 C1029 1.427 . S
N1037 C1035 1.384 . S
H1038 C1044 0.930 . S
H1039 C1048 0.930 . S
H1040 C1053 0.929 . S
H1041 C1051 0.929 . S
H1042 C1046 0.929 . S
H1043 C1052 0.929 . S
C1044 H1038 0.930 . S
C1044 C1045 1.367 . S
C1044 C1052 1.378 1_655 S
C1045 C1044 1.367 . S
C1045 C1053 1.433 . S
C1046 H1042 0.929 . S
C1046 C1048 1.378 . S
C1046 C1050 1.350 . S
C1047 C1050 1.463 1_554 S
C1047 C1052 1.350 . S
C1047 N1055 1.427 . S
C1048 H1039 0.930 . S
C1048 C1046 1.378 . S
C1048 C1049 1.367 . S
C1049 C1048 1.367 . S
C1049 C1051 1.433 . S
C1050 C1046 1.350 . S
C1050 C1047 1.463 1_556 S
C1050 N1054 1.427 . S
C1051 H1041 0.929 . S
C1051 C1049 1.433 . S
C1051 N1054 1.384 . S
C1052 H1043 0.929 . S
C1052 C1044 1.378 1_455 S
C1052 C1047 1.350 . S
C1053 H1040 0.929 . S
C1053 C1045 1.433 . S
C1053 N1055 1.384 1_655 S
N1054 C1050 1.427 . S
N1054 C1051 1.384 . S
N1055 C1047 1.427 . S
N1055 C1053 1.384 1_455 S
H1056 C1062 0.930 . S
H1057 C1066 0.930 . S
H1058 C1071 0.929 . S
H1059 C1069 0.929 . S
H1060 C1064 0.929 . S
H1061 C1070 0.929 . S
C1062 H1056 0.930 . S
C1062 C1063 1.367 . S
C1062 C1070 1.378 . S
C1063 C1062 1.367 . S
C1063 C1071 1.433 . S
C1064 H1060 0.929 . S
C1064 C1066 1.378 . S
C1064 C1068 1.350 . S
C1065 C1068 1.463 . S
C1065 C1070 1.350 . S
C1065 N1073 1.427 . S
C1066 H1057 0.930 . S
C1066 C1064 1.378 . S
C1066 C1067 1.367 . S
C1067 C1066 1.367 . S
C1067 C1069 1.433 . S
C1068 C1064 1.350 . S
C1068 C1065 1.463 . S
C1068 N1072 1.427 . S
C1069 H1059 0.929 . S
C1069 C1067 1.433 . S
C1069 N1072 1.384 . S
C1070 H1061 0.929 . S
C1070 C1062 1.378 . S
C1070 C1065 1.350 . S
C1071 H1058 0.929 . S
C1071 C1063 1.433 . S
C1071 N1073 1.384 . S
N1072 C1068 1.427 . S
N1072 C1069 1.384 . S
N1073 C1065 1.427 . S
N1073 C1071 1.384 . S
H1074 C1080 0.930 . S
H1075 C1084 0.930 . S
H1076 C1089 0.929 . S
H1077 C1087 0.929 . S
H1078 C1082 0.929 . S
H1079 C1088 0.929 . S
C1080 H1074 0.930 . S
C1080 C1081 1.367 . S
C1080 C1088 1.378 . S
C1081 C1080 1.367 . S
C1081 C1089 1.433 . S
C1082 H1078 0.929 . S
C1082 C1084 1.378 . S
C1082 C1086 1.350 . S
C1083 C1086 1.463 . S
C1083 C1088 1.350 . S
C1083 N1091 1.427 . S
C1084 H1075 0.930 . S
C1084 C1082 1.378 . S
C1084 C1085 1.367 . S
C1085 C1084 1.367 . S
C1085 C1087 1.433 . S
C1086 C1082 1.350 . S
C1086 C1083 1.463 . S
C1086 N1090 1.427 . S
C1087 H1077 0.929 . S
C1087 C1085 1.433 . S
C1087 N1090 1.384 . S
C1088 H1079 0.929 . S
C1088 C1080 1.378 . S
C1088 C1083 1.350 . S
C1089 H1076 0.929 . S
C1089 C1081 1.433 . S
C1089 N1091 1.384 . S
N1090 C1086 1.427 . S
N1090 C1087 1.384 . S
N1091 C1083 1.427 . S
N1091 C1089 1.384 . S
H1092 C1098 0.930 . S
H1093 C1102 0.930 . S
H1094 C1107 0.929 . S
H1095 C1105 0.929 . S
H1096 C1100 0.929 . S
H1097 C1106 0.929 . S
C1098 H1092 0.930 . S
C1098 C1099 1.367 . S
C1098 C1106 1.378 . S
C1099 C1098 1.367 . S
C1099 C1107 1.433 1_556 S
C1100 H1096 0.929 . S
C1100 C1102 1.378 . S
C1100 C1104 1.350 . S
C1101 C1104 1.463 . S
C1101 C1106 1.350 1_554 S
C1101 N1109 1.427 . S
C1102 H1093 0.930 . S
C1102 C1100 1.378 . S
C1102 C1103 1.367 . S
C1103 C1102 1.367 . S
C1103 C1105 1.433 . S
C1104 C1100 1.350 . S
C1104 C1101 1.463 . S
C1104 N1108 1.427 . S
C1105 H1095 0.929 . S
C1105 C1103 1.433 . S
C1105 N1108 1.384 . S
C1106 H1097 0.929 . S
C1106 C1098 1.378 . S
C1106 C1101 1.350 1_556 S
C1107 H1094 0.929 . S
C1107 C1099 1.433 1_554 S
C1107 N1109 1.384 . S
N1108 C1104 1.427 . S
N1108 C1105 1.384 . S
N1109 C1101 1.427 . S
N1109 C1107 1.384 . S
H1110 C1116 0.930 . S
H1111 C1120 0.930 . S
H1112 C1125 0.929 . S
H1113 C1123 0.929 . S
H1114 C1118 0.929 . S
H1115 C1124 0.929 . S
C1116 H1110 0.930 . S
C1116 C1117 1.367 . S
C1116 C1124 1.378 . S
C1117 C1116 1.367 . S
C1117 C1125 1.433 . S
C1118 H1114 0.929 . S
C1118 C1120 1.378 . S
C1118 C1122 1.350 . S
C1119 C1122 1.463 . S
C1119 C1124 1.350 . S
C1119 N1127 1.427 . S
C1120 H1111 0.930 . S
C1120 C1118 1.378 . S
C1120 C1121 1.367 . S
C1121 C1120 1.367 . S
C1121 C1123 1.433 . S
C1122 C1118 1.350 . S
C1122 C1119 1.463 . S
C1122 N1126 1.427 . S
C1123 H1113 0.929 . S
C1123 C1121 1.433 . S
C1123 N1126 1.384 . S
C1124 H1115 0.929 . S
C1124 C1116 1.378 . S
C1124 C1119 1.350 . S
C1125 H1112 0.929 . S
C1125 C1117 1.433 . S
C1125 N1127 1.384 . S
N1126 C1122 1.427 . S
N1126 C1123 1.384 . S
N1127 C1119 1.427 . S
N1127 C1125 1.384 . S
H1128 C1134 0.930 . S
H1129 C1138 0.930 . S
H1130 C1143 0.929 . S
H1131 C1141 0.929 . S
H1132 C1136 0.929 . S
H1133 C1142 0.929 . S
C1134 H1128 0.930 . S
C1134 C1135 1.367 1_554 S
C1134 C1142 1.378 . S
C1135 C1134 1.367 1_556 S
C1135 C1143 1.433 . S
C1136 H1132 0.929 . S
C1136 C1138 1.378 . S
C1136 C1140 1.350 . S
C1137 C1140 1.463 1_545 S
C1137 C1142 1.350 . S
C1137 N1145 1.427 1_554 S
C1138 H1129 0.930 . S
C1138 C1136 1.378 . S
C1138 C1139 1.367 . S
C1139 C1138 1.367 . S
C1139 C1141 1.433 . S
C1140 C1136 1.350 . S
C1140 C1137 1.463 1_565 S
C1140 N1144 1.427 . S
C1141 H1131 0.929 . S
C1141 C1139 1.433 . S
C1141 N1144 1.384 . S
C1142 H1133 0.929 . S
C1142 C1134 1.378 . S
C1142 C1137 1.350 . S
C1143 H1130 0.929 . S
C1143 C1135 1.433 . S
C1143 N1145 1.384 . S
N1144 C1140 1.427 . S
N1144 C1141 1.384 . S
N1145 C1137 1.427 1_556 S
N1145 C1143 1.384 . S
H1146 C1152 0.930 . S
H1147 C1156 0.930 . S
H1148 C1161 0.929 . S
H1149 C1159 0.929 . S
H1150 C1154 0.929 . S
H1151 C1160 0.929 . S
C1152 H1146 0.930 . S
C1152 C1153 1.367 . S
C1152 C1160 1.378 . S
C1153 C1152 1.367 . S
C1153 C1161 1.433 . S
C1154 H1150 0.929 . S
C1154 C1156 1.378 . S
C1154 C1158 1.350 . S
C1155 C1158 1.463 . S
C1155 C1160 1.350 . S
C1155 N1163 1.427 . S
C1156 H1147 0.930 . S
C1156 C1154 1.378 . S
C1156 C1157 1.367 . S
C1157 C1156 1.367 . S
C1157 C1159 1.433 . S
C1158 C1154 1.350 . S
C1158 C1155 1.463 . S
C1158 N1162 1.427 . S
C1159 H1149 0.929 . S
C1159 C1157 1.433 . S
C1159 N1162 1.384 . S
C1160 H1151 0.929 . S
C1160 C1152 1.378 . S
C1160 C1155 1.350 . S
C1161 H1148 0.929 . S
C1161 C1153 1.433 . S
C1161 N1163 1.384 . S
N1162 C1158 1.427 . S
N1162 C1159 1.384 . S
N1163 C1155 1.427 . S
N1163 C1161 1.384 . S
H1164 C1170 0.930 . S
H1165 C1174 0.930 . S
H1166 C1179 0.929 . S
H1167 C1177 0.929 . S
H1168 C1172 0.929 . S
H1169 C1178 0.929 . S
C1170 H1164 0.930 . S
C1170 C1171 1.367 . S
C1170 C1178 1.378 . S
C1171 C1170 1.367 . S
C1171 C1179 1.433 . S
C1172 H1168 0.929 . S
C1172 C1174 1.378 . S
C1172 C1176 1.350 . S
C1173 C1176 1.463 . S
C1173 C1178 1.350 . S
C1173 N1181 1.427 . S
C1174 H1165 0.930 . S
C1174 C1172 1.378 . S
C1174 C1175 1.367 . S
C1175 C1174 1.367 . S
C1175 C1177 1.433 . S
C1176 C1172 1.350 . S
C1176 C1173 1.463 . S
C1176 N1180 1.427 . S
C1177 H1167 0.929 . S
C1177 C1175 1.433 . S
C1177 N1180 1.384 . S
C1178 H1169 0.929 . S
C1178 C1170 1.378 . S
C1178 C1173 1.350 . S
C1179 H1166 0.929 . S
C1179 C1171 1.433 . S
C1179 N1181 1.384 . S
N1180 C1176 1.427 . S
N1180 C1177 1.384 . S
N1181 C1173 1.427 . S
N1181 C1179 1.384 . S
H1182 C1188 0.930 . S
H1183 C1192 0.930 . S
H1184 C1197 0.929 . S
H1185 C1195 0.929 . S
H1186 C1190 0.929 . S
H1187 C1196 0.929 . S
C1188 H1182 0.930 . S
C1188 C1189 1.367 . S
C1188 C1196 1.378 . S
C1189 C1188 1.367 . S
C1189 C1197 1.433 . S
C1190 H1186 0.929 . S
C1190 C1192 1.378 . S
C1190 C1194 1.350 . S
C1191 C1194 1.463 . S
C1191 C1196 1.350 1_556 S
C1191 N1199 1.427 1_556 S
C1192 H1183 0.930 . S
C1192 C1190 1.378 . S
C1192 C1193 1.367 . S
C1193 C1192 1.367 . S
C1193 C1195 1.433 . S
C1194 C1190 1.350 . S
C1194 C1191 1.463 . S
C1194 N1198 1.427 . S
C1195 H1185 0.929 . S
C1195 C1193 1.433 . S
C1195 N1198 1.384 . S
C1196 H1187 0.929 . S
C1196 C1188 1.378 . S
C1196 C1191 1.350 1_554 S
C1197 H1184 0.929 . S
C1197 C1189 1.433 . S
C1197 N1199 1.384 . S
N1198 C1194 1.427 . S
N1198 C1195 1.384 . S
N1199 C1191 1.427 1_554 S
N1199 C1197 1.384 . S
H1200 C1206 0.930 . S
H1201 C1210 0.930 . S
H1202 C1215 0.929 . S
H1203 C1213 0.929 . S
H1204 C1208 0.929 . S
H1205 C1214 0.929 . S
C1206 H1200 0.930 . S
C1206 C1207 1.367 . S
C1206 C1214 1.378 . S
C1207 C1206 1.367 . S
C1207 C1215 1.433 . S
C1208 H1204 0.929 . S
C1208 C1210 1.378 . S
C1208 C1212 1.350 . S
C1209 C1212 1.463 . S
C1209 C1214 1.350 . S
C1209 N1217 1.427 . S
C1210 H1201 0.930 . S
C1210 C1208 1.378 . S
C1210 C1211 1.367 . S
C1211 C1210 1.367 . S
C1211 C1213 1.433 . S
C1212 C1208 1.350 . S
C1212 C1209 1.463 . S
C1212 N1216 1.427 . S
C1213 H1203 0.929 . S
C1213 C1211 1.433 . S
C1213 N1216 1.384 . S
C1214 H1205 0.929 . S
C1214 C1206 1.378 . S
C1214 C1209 1.350 . S
C1215 H1202 0.929 . S
C1215 C1207 1.433 . S
C1215 N1217 1.384 . S
N1216 C1212 1.427 . S
N1216 C1213 1.384 . S
N1217 C1209 1.427 . S
N1217 C1215 1.384 . S
H1218 C1224 0.930 . S
H1219 C1228 0.930 . S
H1220 C1233 0.929 . S
H1221 C1231 0.929 . S
H1222 C1226 0.929 . S
H1223 C1232 0.929 . S
C1224 H1218 0.930 . S
C1224 C1225 1.367 . S
C1224 C1232 1.378 . S
C1225 C1224 1.367 . S
C1225 C1233 1.433 . S
C1226 H1222 0.929 . S
C1226 C1228 1.378 . S
C1226 C1230 1.350 . S
C1227 C1230 1.463 . S
C1227 C1232 1.350 . S
C1227 N1235 1.427 . S
C1228 H1219 0.930 . S
C1228 C1226 1.378 . S
C1228 C1229 1.367 . S
C1229 C1228 1.367 . S
C1229 C1231 1.433 . S
C1230 C1226 1.350 . S
C1230 C1227 1.463 . S
C1230 N1234 1.427 . S
C1231 H1221 0.929 . S
C1231 C1229 1.433 . S
C1231 N1234 1.384 . S
C1232 H1223 0.929 . S
C1232 C1224 1.378 . S
C1232 C1227 1.350 . S
C1233 H1220 0.929 . S
C1233 C1225 1.433 . S
C1233 N1235 1.384 . S
N1234 C1230 1.427 . S
N1234 C1231 1.384 . S
N1235 C1227 1.427 . S
N1235 C1233 1.384 . S
H1236 C1242 0.930 . S
H1237 C1246 0.930 . S
H1238 C1251 0.929 . S
H1239 C1249 0.929 . S
H1240 C1244 0.929 . S
H1241 C1250 0.929 . S
C1242 H1236 0.930 . S
C1242 C1243 1.367 . S
C1242 C1250 1.378 . S
C1243 C1242 1.367 . S
C1243 C1251 1.433 . S
C1244 H1240 0.929 . S
C1244 C1246 1.378 . S
C1244 C1248 1.350 . S
C1245 C1248 1.463 . S
C1245 C1250 1.350 . S
C1245 N1253 1.427 . S
C1246 H1237 0.930 . S
C1246 C1244 1.378 . S
C1246 C1247 1.367 . S
C1247 C1246 1.367 . S
C1247 C1249 1.433 . S
C1248 C1244 1.350 . S
C1248 C1245 1.463 . S
C1248 N1252 1.427 . S
C1249 H1239 0.929 . S
C1249 C1247 1.433 . S
C1249 N1252 1.384 . S
C1250 H1241 0.929 . S
C1250 C1242 1.378 . S
C1250 C1245 1.350 . S
C1251 H1238 0.929 . S
C1251 C1243 1.433 . S
C1251 N1253 1.384 . S
N1252 C1248 1.427 . S
N1252 C1249 1.384 . S
N1253 C1245 1.427 . S
N1253 C1251 1.384 . S
H1254 C1260 0.930 . S
H1255 C1264 0.930 . S
H1256 C1269 0.929 . S
H1257 C1267 0.929 . S
H1258 C1262 0.929 . S
H1259 C1268 0.929 . S
C1260 H1254 0.930 . S
C1260 C1261 1.367 . S
C1260 C1268 1.378 . S
C1261 C1260 1.367 . S
C1261 C1269 1.433 . S
C1262 H1258 0.929 . S
C1262 C1264 1.378 . S
C1262 C1266 1.350 1_655 S
C1263 C1266 1.463 . S
C1263 C1268 1.350 . S
C1263 N1271 1.427 . S
C1264 H1255 0.930 . S
C1264 C1262 1.378 . S
C1264 C1265 1.367 . S
C1265 C1264 1.367 . S
C1265 C1267 1.433 1_655 S
C1266 C1262 1.350 1_455 S
C1266 C1263 1.463 . S
C1266 N1270 1.427 . S
C1267 H1257 0.929 . S
C1267 C1265 1.433 1_455 S
C1267 N1270 1.384 . S
C1268 H1259 0.929 . S
C1268 C1260 1.378 . S
C1268 C1263 1.350 . S
C1269 H1256 0.929 . S
C1269 C1261 1.433 . S
C1269 N1271 1.384 . S
N1270 C1266 1.427 . S
N1270 C1267 1.384 . S
N1271 C1263 1.427 . S
N1271 C1269 1.384 . S
H1272 C1278 0.930 . S
H1273 C1282 0.930 . S
H1274 C1287 0.929 . S
H1275 C1285 0.929 . S
H1276 C1280 0.929 . S
H1277 C1286 0.929 . S
C1278 H1272 0.930 . S
C1278 C1279 1.367 . S
C1278 C1286 1.378 . S
C1279 C1278 1.367 . S
C1279 C1287 1.433 . S
C1280 H1276 0.929 . S
C1280 C1282 1.378 . S
C1280 C1284 1.350 . S
C1281 C1284 1.463 . S
C1281 C1286 1.350 . S
C1281 N1289 1.427 . S
C1282 H1273 0.930 . S
C1282 C1280 1.378 . S
C1282 C1283 1.367 . S
C1283 C1282 1.367 . S
C1283 C1285 1.433 . S
C1284 C1280 1.350 . S
C1284 C1281 1.463 . S
C1284 N1288 1.427 . S
C1285 H1275 0.929 . S
C1285 C1283 1.433 . S
C1285 N1288 1.384 . S
C1286 H1277 0.929 . S
C1286 C1278 1.378 . S
C1286 C1281 1.350 . S
C1287 H1274 0.929 . S
C1287 C1279 1.433 . S
C1287 N1289 1.384 . S
N1288 C1284 1.427 . S
N1288 C1285 1.384 . S
N1289 C1281 1.427 . S
N1289 C1287 1.384 . S
H1290 C1296 0.930 . S
H1291 C1300 0.930 . S
H1292 C1305 0.929 . S
H1293 C1303 0.929 . S
H1294 C1298 0.929 . S
H1295 C1304 0.929 . S
C1296 H1290 0.930 . S
C1296 C1297 1.367 1_455 S
C1296 C1304 1.378 . S
C1297 C1296 1.367 1_655 S
C1297 C1305 1.433 . S
C1298 H1294 0.929 . S
C1298 C1300 1.378 . S
C1298 C1302 1.350 . S
C1299 C1302 1.463 . S
C1299 C1304 1.350 . S
C1299 N1307 1.427 1_455 S
C1300 H1291 0.930 . S
C1300 C1298 1.378 . S
C1300 C1301 1.367 . S
C1301 C1300 1.367 . S
C1301 C1303 1.433 . S
C1302 C1298 1.350 . S
C1302 C1299 1.463 . S
C1302 N1306 1.427 . S
C1303 H1293 0.929 . S
C1303 C1301 1.433 . S
C1303 N1306 1.384 . S
C1304 H1295 0.929 . S
C1304 C1296 1.378 . S
C1304 C1299 1.350 . S
C1305 H1292 0.929 . S
C1305 C1297 1.433 . S
C1305 N1307 1.384 . S
N1306 C1302 1.427 . S
N1306 C1303 1.384 . S
N1307 C1299 1.427 1_655 S
N1307 C1305 1.384 . S
H1308 C1314 0.930 . S
H1309 C1318 0.930 . S
H1310 C1323 0.929 . S
H1311 C1321 0.929 . S
H1312 C1316 0.929 . S
H1313 C1322 0.929 . S
C1314 H1308 0.930 . S
C1314 C1315 1.367 . S
C1314 C1322 1.378 . S
C1315 C1314 1.367 . S
C1315 C1323 1.433 . S
C1316 H1312 0.929 . S
C1316 C1318 1.378 . S
C1316 C1320 1.350 . S
C1317 C1320 1.463 . S
C1317 C1322 1.350 . S
C1317 N1325 1.427 . S
C1318 H1309 0.930 . S
C1318 C1316 1.378 . S
C1318 C1319 1.367 . S
C1319 C1318 1.367 . S
C1319 C1321 1.433 . S
C1320 C1316 1.350 . S
C1320 C1317 1.463 . S
C1320 N1324 1.427 . S
C1321 H1311 0.929 . S
C1321 C1319 1.433 . S
C1321 N1324 1.384 . S
C1322 H1313 0.929 . S
C1322 C1314 1.378 . S
C1322 C1317 1.350 . S
C1323 H1310 0.929 . S
C1323 C1315 1.433 . S
C1323 N1325 1.384 . S
N1324 C1320 1.427 . S
N1324 C1321 1.384 . S
N1325 C1317 1.427 . S
N1325 C1323 1.384 . S
H1326 C1332 0.930 . S
H1327 C1336 0.930 . S
H1328 C1341 0.929 . S
H1329 C1339 0.929 . S
H1330 C1334 0.929 . S
H1331 C1340 0.929 . S
C1332 H1326 0.930 . S
C1332 C1333 1.367 . S
C1332 C1340 1.378 . S
C1333 C1332 1.367 . S
C1333 C1341 1.433 . S
C1334 H1330 0.929 . S
C1334 C1336 1.378 . S
C1334 C1338 1.350 . S
C1335 C1338 1.463 . S
C1335 C1340 1.350 . S
C1335 N1343 1.427 . S
C1336 H1327 0.930 . S
C1336 C1334 1.378 . S
C1336 C1337 1.367 . S
C1337 C1336 1.367 . S
C1337 C1339 1.433 . S
C1338 C1334 1.350 . S
C1338 C1335 1.463 . S
C1338 N1342 1.427 . S
C1339 H1329 0.929 . S
C1339 C1337 1.433 . S
C1339 N1342 1.384 . S
C1340 H1331 0.929 . S
C1340 C1332 1.378 . S
C1340 C1335 1.350 . S
C1341 H1328 0.929 . S
C1341 C1333 1.433 . S
C1341 N1343 1.384 . S
N1342 C1338 1.427 . S
N1342 C1339 1.384 . S
N1343 C1335 1.427 . S
N1343 C1341 1.384 . S
H1344 C1350 0.930 . S
H1345 C1354 0.930 . S
H1346 C1359 0.929 . S
H1347 C1357 0.929 . S
H1348 C1352 0.929 . S
H1349 C1358 0.929 . S
C1350 H1344 0.930 . S
C1350 C1351 1.367 . S
C1350 C1358 1.378 . S
C1351 C1350 1.367 . S
C1351 C1359 1.433 . S
C1352 H1348 0.929 . S
C1352 C1354 1.378 . S
C1352 C1356 1.350 . S
C1353 C1356 1.463 . S
C1353 C1358 1.350 . S
C1353 N1361 1.427 . S
C1354 H1345 0.930 . S
C1354 C1352 1.378 . S
C1354 C1355 1.367 . S
C1355 C1354 1.367 . S
C1355 C1357 1.433 . S
C1356 C1352 1.350 . S
C1356 C1353 1.463 . S
C1356 N1360 1.427 . S
C1357 H1347 0.929 . S
C1357 C1355 1.433 . S
C1357 N1360 1.384 . S
C1358 H1349 0.929 . S
C1358 C1350 1.378 . S
C1358 C1353 1.350 . S
C1359 H1346 0.929 . S
C1359 C1351 1.433 . S
C1359 N1361 1.384 . S
N1360 C1356 1.427 . S
N1360 C1357 1.384 . S
N1361 C1353 1.427 . S
N1361 C1359 1.384 . S
H1362 C1368 0.930 . S
H1363 C1372 0.930 . S
H1364 C1377 0.929 . S
H1365 C1375 0.929 . S
H1366 C1370 0.929 . S
H1367 C1376 0.929 . S
C1368 H1362 0.930 . S
C1368 C1369 1.367 . S
C1368 C1376 1.378 . S
C1369 C1368 1.367 . S
C1369 C1377 1.433 . S
C1370 H1366 0.929 . S
C1370 C1372 1.378 . S
C1370 C1374 1.350 1_556 S
C1371 C1374 1.463 . S
C1371 C1376 1.350 . S
C1371 N1379 1.427 . S
C1372 H1363 0.930 . S
C1372 C1370 1.378 . S
C1372 C1373 1.367 . S
C1373 C1372 1.367 . S
C1373 C1375 1.433 1_556 S
C1374 C1370 1.350 1_554 S
C1374 C1371 1.463 . S
C1374 N1378 1.427 . S
C1375 H1365 0.929 . S
C1375 C1373 1.433 1_554 S
C1375 N1378 1.384 . S
C1376 H1367 0.929 . S
C1376 C1368 1.378 . S
C1376 C1371 1.350 . S
C1377 H1364 0.929 . S
C1377 C1369 1.433 . S
C1377 N1379 1.384 . S
N1378 C1374 1.427 . S
N1378 C1375 1.384 . S
N1379 C1371 1.427 . S
N1379 C1377 1.384 . S
H1380 C1386 0.930 . S
H1381 C1390 0.930 . S
H1382 C1395 0.929 . S
H1383 C1393 0.929 . S
H1384 C1388 0.929 . S
H1385 C1394 0.929 . S
C1386 H1380 0.930 . S
C1386 C1387 1.367 . S
C1386 C1394 1.378 . S
C1387 C1386 1.367 . S
C1387 C1395 1.433 . S
C1388 H1384 0.929 . S
C1388 C1390 1.378 . S
C1388 C1392 1.350 . S
C1389 C1392 1.463 . S
C1389 C1394 1.350 . S
C1389 N1397 1.427 . S
C1390 H1381 0.930 . S
C1390 C1388 1.378 . S
C1390 C1391 1.367 . S
C1391 C1390 1.367 . S
C1391 C1393 1.433 . S
C1392 C1388 1.350 . S
C1392 C1389 1.463 . S
C1392 N1396 1.427 . S
C1393 H1383 0.929 . S
C1393 C1391 1.433 . S
C1393 N1396 1.384 . S
C1394 H1385 0.929 . S
C1394 C1386 1.378 . S
C1394 C1389 1.350 . S
C1395 H1382 0.929 . S
C1395 C1387 1.433 . S
C1395 N1397 1.384 . S
N1396 C1392 1.427 . S
N1396 C1393 1.384 . S
N1397 C1389 1.427 . S
N1397 C1395 1.384 . S
H1398 C1404 0.930 . S
H1399 C1408 0.930 . S
H1400 C1413 0.929 . S
H1401 C1411 0.929 . S
H1402 C1406 0.929 . S
H1403 C1412 0.929 . S
C1404 H1398 0.930 . S
C1404 C1405 1.367 . S
C1404 C1412 1.378 . S
C1405 C1404 1.367 . S
C1405 C1413 1.433 . S
C1406 H1402 0.929 . S
C1406 C1408 1.378 . S
C1406 C1410 1.350 . S
C1407 C1410 1.463 . S
C1407 C1412 1.350 1_655 S
C1407 N1415 1.429 . S
C1408 H1399 0.930 . S
C1408 C1406 1.378 . S
C1408 C1409 1.367 . S
C1409 C1408 1.367 . S
C1409 C1411 1.433 . S
C1410 C1406 1.350 . S
C1410 C1407 1.463 . S
C1410 N1414 1.427 . S
C1411 H1401 0.929 . S
C1411 C1409 1.433 . S
C1411 N1414 1.384 . S
C1412 H1403 0.929 . S
C1412 C1404 1.378 . S
C1412 C1407 1.350 1_455 S
C1413 H1400 0.929 . S
C1413 C1405 1.433 . S
C1413 N1415 1.376 1_455 S
N1414 C1410 1.427 . S
N1414 C1411 1.384 . S
N1415 C1407 1.429 . S
N1415 C1413 1.376 1_655 S
H1416 C1422 0.930 . S
H1417 C1426 0.930 . S
H1418 C1431 0.929 . S
H1419 C1429 0.929 . S
H1420 C1424 0.929 . S
H1421 C1430 0.929 . S
C1422 H1416 0.930 . S
C1422 C1423 1.367 . S
C1422 C1430 1.378 . S
C1423 C1422 1.367 . S
C1423 C1431 1.433 . S
C1424 H1420 0.929 . S
C1424 C1426 1.378 . S
C1424 C1428 1.350 . S
C1425 C1428 1.463 . S
C1425 C1430 1.350 . S
C1425 N1433 1.427 . S
C1426 H1417 0.930 . S
C1426 C1424 1.378 . S
C1426 C1427 1.367 . S
C1427 C1426 1.367 . S
C1427 C1429 1.433 . S
C1428 C1424 1.350 . S
C1428 C1425 1.463 . S
C1428 N1432 1.427 . S
C1429 H1419 0.929 . S
C1429 C1427 1.433 . S
C1429 N1432 1.384 . S
C1430 H1421 0.929 . S
C1430 C1422 1.378 . S
C1430 C1425 1.350 . S
C1431 H1418 0.929 . S
C1431 C1423 1.433 . S
C1431 N1433 1.384 . S
N1432 C1428 1.427 . S
N1432 C1429 1.384 . S
N1433 C1425 1.427 . S
N1433 C1431 1.384 . S
H1434 C1440 0.930 . S
H1435 C1444 0.930 . S
H1436 C1449 0.929 . S
H1437 C1447 0.929 . S
H1438 C1442 0.937 . S
H1439 C1448 0.929 . S
C1440 H1434 0.930 . S
C1440 C1441 1.367 . S
C1440 C1448 1.378 . S
C1441 C1440 1.367 . S
C1441 C1449 1.433 . S
C1442 H1438 0.937 . S
C1442 C1444 1.388 1_655 S
C1442 C1446 1.332 1_554 S
C1443 C1446 1.463 . S
C1443 C1448 1.350 . S
C1443 N1451 1.427 . S
C1444 H1435 0.930 . S
C1444 C1442 1.388 1_455 S
C1444 C1445 1.367 . S
C1445 C1444 1.367 . S
C1445 C1447 1.433 1_554 S
C1446 C1442 1.332 1_556 S
C1446 C1443 1.463 . S
C1446 N1450 1.427 1_655 S
C1447 H1437 0.929 . S
C1447 C1445 1.433 1_556 S
C1447 N1450 1.384 . S
C1448 H1439 0.929 . S
C1448 C1440 1.378 . S
C1448 C1443 1.350 . S
C1449 H1436 0.929 . S
C1449 C1441 1.433 . S
C1449 N1451 1.384 . S
N1450 C1446 1.427 1_455 S
N1450 C1447 1.384 . S
N1451 C1443 1.427 . S
N1451 C1449 1.384 . S
H1452 C1458 0.930 . S
H1453 C1462 0.930 . S
H1454 C1467 0.929 . S
H1455 C1465 0.929 . S
H1456 C1460 0.929 . S
H1457 C1466 0.929 . S
C1458 H1452 0.930 . S
C1458 C1459 1.367 . S
C1458 C1466 1.378 . S
C1459 C1458 1.367 . S
C1459 C1467 1.433 . S
C1460 H1456 0.929 . S
C1460 C1462 1.378 . S
C1460 C1464 1.350 . S
C1461 C1464 1.463 . S
C1461 C1466 1.350 . S
C1461 N1469 1.427 . S
C1462 H1453 0.930 . S
C1462 C1460 1.378 . S
C1462 C1463 1.367 . S
C1463 C1462 1.367 . S
C1463 C1465 1.433 . S
C1464 C1460 1.350 . S
C1464 C1461 1.463 . S
C1464 N1468 1.427 . S
C1465 H1455 0.929 . S
C1465 C1463 1.433 . S
C1465 N1468 1.384 . S
C1466 H1457 0.929 . S
C1466 C1458 1.378 . S
C1466 C1461 1.350 . S
C1467 H1454 0.929 . S
C1467 C1459 1.433 . S
C1467 N1469 1.384 . S
N1468 C1464 1.427 . S
N1468 C1465 1.384 . S
N1469 C1461 1.427 . S
N1469 C1467 1.384 . S
H1470 C1476 0.930 . S
H1471 C1480 0.930 . S
H1472 C1485 0.929 . S
H1473 C1483 0.929 . S
H1474 C1478 0.929 . S
H1475 C1484 0.929 . S
C1476 H1470 0.930 . S
C1476 C1477 1.367 . S
C1476 C1484 1.378 . S
C1477 C1476 1.367 . S
C1477 C1485 1.433 . S
C1478 H1474 0.929 . S
C1478 C1480 1.378 . S
C1478 C1482 1.350 . S
C1479 C1482 1.463 . S
C1479 C1484 1.350 . S
C1479 N1487 1.427 . S
C1480 H1471 0.930 . S
C1480 C1478 1.378 . S
C1480 C1481 1.367 . S
C1481 C1480 1.367 . S
C1481 C1483 1.433 . S
C1482 C1478 1.350 . S
C1482 C1479 1.463 . S
C1482 N1486 1.427 . S
C1483 H1473 0.929 . S
C1483 C1481 1.433 . S
C1483 N1486 1.384 . S
C1484 H1475 0.929 . S
C1484 C1476 1.378 . S
C1484 C1479 1.350 . S
C1485 H1472 0.929 . S
C1485 C1477 1.433 . S
C1485 N1487 1.384 . S
N1486 C1482 1.427 . S
N1486 C1483 1.384 . S
N1487 C1479 1.427 . S
N1487 C1485 1.384 . S
H1488 C1494 0.930 . S
H1489 C1498 0.930 . S
H1490 C1503 0.929 . S
H1491 C1501 0.929 . S
H1492 C1496 0.929 . S
H1493 C1502 0.929 . S
C1494 H1488 0.930 . S
C1494 C1495 1.367 . S
C1494 C1502 1.378 . S
C1495 C1494 1.367 . S
C1495 C1503 1.433 . S
C1496 H1492 0.929 . S
C1496 C1498 1.378 . S
C1496 C1500 1.350 . S
C1497 C1500 1.463 . S
C1497 C1502 1.350 . S
C1497 N1505 1.427 . S
C1498 H1489 0.930 . S
C1498 C1496 1.378 . S
C1498 C1499 1.367 . S
C1499 C1498 1.367 . S
C1499 C1501 1.433 . S
C1500 C1496 1.350 . S
C1500 C1497 1.463 . S
C1500 N1504 1.427 . S
C1501 H1491 0.929 . S
C1501 C1499 1.433 . S
C1501 N1504 1.384 . S
C1502 H1493 0.929 . S
C1502 C1494 1.378 . S
C1502 C1497 1.350 . S
C1503 H1490 0.929 . S
C1503 C1495 1.433 . S
C1503 N1505 1.384 . S
N1504 C1500 1.427 . S
N1504 C1501 1.384 . S
N1505 C1497 1.427 . S
N1505 C1503 1.384 . S
H1506 C1512 0.930 . S
H1507 C1516 0.930 . S
H1508 C1521 0.929 . S
H1509 C1519 0.929 . S
H1510 C1514 0.929 . S
H1511 C1520 0.929 . S
C1512 H1506 0.930 . S
C1512 C1513 1.367 . S
C1512 C1520 1.378 . S
C1513 C1512 1.367 . S
C1513 C1521 1.433 . S
C1514 H1510 0.929 . S
C1514 C1516 1.378 . S
C1514 C1518 1.350 . S
C1515 C1518 1.463 . S
C1515 C1520 1.350 . S
C1515 N1523 1.427 . S
C1516 H1507 0.930 . S
C1516 C1514 1.378 . S
C1516 C1517 1.367 . S
C1517 C1516 1.367 . S
C1517 C1519 1.433 . S
C1518 C1514 1.350 . S
C1518 C1515 1.463 . S
C1518 N1522 1.427 . S
C1519 H1509 0.929 . S
C1519 C1517 1.433 . S
C1519 N1522 1.384 . S
C1520 H1511 0.929 . S
C1520 C1512 1.378 . S
C1520 C1515 1.350 . S
C1521 H1508 0.929 . S
C1521 C1513 1.433 . S
C1521 N1523 1.384 . S
N1522 C1518 1.427 . S
N1522 C1519 1.384 . S
N1523 C1515 1.427 . S
N1523 C1521 1.384 . S
H1524 C1530 0.930 . S
H1525 C1534 0.930 . S
H1526 C1539 0.929 . S
H1527 C1537 0.929 . S
H1528 C1532 0.929 . S
H1529 C1538 0.929 . S
C1530 H1524 0.930 . S
C1530 C1531 1.367 . S
C1530 C1538 1.378 . S
C1531 C1530 1.367 . S
C1531 C1539 1.433 . S
C1532 H1528 0.929 . S
C1532 C1534 1.378 . S
C1532 C1536 1.350 . S
C1533 C1536 1.463 1_545 S
C1533 C1538 1.350 . S
C1533 N1541 1.427 . S
C1534 H1525 0.930 . S
C1534 C1532 1.378 . S
C1534 C1535 1.367 . S
C1535 C1534 1.367 . S
C1535 C1537 1.433 . S
C1536 C1532 1.350 . S
C1536 C1533 1.463 1_565 S
C1536 N1540 1.427 . S
C1537 H1527 0.929 . S
C1537 C1535 1.433 . S
C1537 N1540 1.384 . S
C1538 H1529 0.929 . S
C1538 C1530 1.378 . S
C1538 C1533 1.350 . S
C1539 H1526 0.929 . S
C1539 C1531 1.433 . S
C1539 N1541 1.384 . S
N1540 C1536 1.427 . S
N1540 C1537 1.384 . S
N1541 C1533 1.427 . S
N1541 C1539 1.384 . S
H1542 C1548 0.930 . S
H1543 C1552 0.930 . S
H1544 C1557 0.929 . S
H1545 C1555 0.929 . S
H1546 C1550 0.929 . S
H1547 C1556 0.929 . S
C1548 H1542 0.930 . S
C1548 C1549 1.367 . S
C1548 C1556 1.378 . S
C1549 C1548 1.367 . S
C1549 C1557 1.433 . S
C1550 H1546 0.929 . S
C1550 C1552 1.378 . S
C1550 C1554 1.350 . S
C1551 C1554 1.463 . S
C1551 C1556 1.350 . S
C1551 N1559 1.427 . S
C1552 H1543 0.930 . S
C1552 C1550 1.378 . S
C1552 C1553 1.367 . S
C1553 C1552 1.367 . S
C1553 C1555 1.433 . S
C1554 C1550 1.350 . S
C1554 C1551 1.463 . S
C1554 N1558 1.427 . S
C1555 H1545 0.929 . S
C1555 C1553 1.433 . S
C1555 N1558 1.384 . S
C1556 H1547 0.929 . S
C1556 C1548 1.378 . S
C1556 C1551 1.350 . S
C1557 H1544 0.929 . S
C1557 C1549 1.433 . S
C1557 N1559 1.384 . S
N1558 C1554 1.427 . S
N1558 C1555 1.384 . S
N1559 C1551 1.427 . S
N1559 C1557 1.384 . S
H1560 C1566 0.930 . S
H1561 C1570 0.930 . S
H1562 C1575 0.929 . S
H1563 C1573 0.929 . S
H1564 C1568 0.929 . S
H1565 C1574 0.929 . S
C1566 H1560 0.930 . S
C1566 C1567 1.367 . S
C1566 C1574 1.378 . S
C1567 C1566 1.367 . S
C1567 C1575 1.433 . S
C1568 H1564 0.929 . S
C1568 C1570 1.378 . S
C1568 C1572 1.350 . S
C1569 C1572 1.463 . S
C1569 C1574 1.350 . S
C1569 N1577 1.427 . S
C1570 H1561 0.930 . S
C1570 C1568 1.378 . S
C1570 C1571 1.367 . S
C1571 C1570 1.367 . S
C1571 C1573 1.433 . S
C1572 C1568 1.350 . S
C1572 C1569 1.463 . S
C1572 N1576 1.427 . S
C1573 H1563 0.929 . S
C1573 C1571 1.433 . S
C1573 N1576 1.384 . S
C1574 H1565 0.929 . S
C1574 C1566 1.378 . S
C1574 C1569 1.350 . S
C1575 H1562 0.929 . S
C1575 C1567 1.433 . S
C1575 N1577 1.384 . S
N1576 C1572 1.427 . S
N1576 C1573 1.384 . S
N1577 C1569 1.427 . S
N1577 C1575 1.384 . S
H1578 C1584 0.930 . S
H1579 C1588 0.930 . S
H1580 C1593 0.929 . S
H1581 C1591 0.929 . S
H1582 C1586 0.929 . S
H1583 C1592 0.929 . S
C1584 H1578 0.930 . S
C1584 C1585 1.367 . S
C1584 C1592 1.378 . S
C1585 C1584 1.367 . S
C1585 C1593 1.433 . S
C1586 H1582 0.929 . S
C1586 C1588 1.378 . S
C1586 C1590 1.350 . S
C1587 C1590 1.463 . S
C1587 C1592 1.350 . S
C1587 N1595 1.427 . S
C1588 H1579 0.930 . S
C1588 C1586 1.378 . S
C1588 C1589 1.367 . S
C1589 C1588 1.367 . S
C1589 C1591 1.433 . S
C1590 C1586 1.350 . S
C1590 C1587 1.463 . S
C1590 N1594 1.427 . S
C1591 H1581 0.929 . S
C1591 C1589 1.433 . S
C1591 N1594 1.384 . S
C1592 H1583 0.929 . S
C1592 C1584 1.378 . S
C1592 C1587 1.350 . S
C1593 H1580 0.929 . S
C1593 C1585 1.433 . S
C1593 N1595 1.384 . S
N1594 C1590 1.427 . S
N1594 C1591 1.384 . S
N1595 C1587 1.427 . S
N1595 C1593 1.384 . S
H1596 C1602 0.930 . S
H1597 C1606 0.930 . S
H1598 C1611 0.929 . S
H1599 C1609 0.929 . S
H1600 C1604 0.896 1_564 S
H1601 C1610 0.929 1_545 S
C1602 H1596 0.930 . S
C1602 C1603 1.367 . S
C1602 C1610 1.378 . S
C1603 C1602 1.367 . S
C1603 C1611 1.433 . S
C1604 H1600 0.896 1_546 S
C1604 C1606 1.400 1_556 S
C1604 C1608 1.358 . S
C1605 C1608 1.463 1_565 S
C1605 C1610 1.350 . S
C1605 N1613 1.427 . S
C1606 H1597 0.930 . S
C1606 C1604 1.400 1_554 S
C1606 C1607 1.367 . S
C1607 C1606 1.367 . S
C1607 C1609 1.433 1_554 S
C1608 C1604 1.358 . S
C1608 C1605 1.463 1_545 S
C1608 N1612 1.427 . S
C1609 H1599 0.929 . S
C1609 C1607 1.433 1_556 S
C1609 N1612 1.384 . S
C1610 H1601 0.929 1_565 S
C1610 C1602 1.378 . S
C1610 C1605 1.350 . S
C1611 H1598 0.929 . S
C1611 C1603 1.433 . S
C1611 N1613 1.384 . S
N1612 C1608 1.427 . S
N1612 C1609 1.384 . S
N1613 C1605 1.427 . S
N1613 C1611 1.384 . S
H1614 C1620 0.930 . S
H1615 C1624 0.930 . S
H1616 C1629 0.929 . S
H1617 C1627 0.929 . S
H1618 C1622 0.929 . S
H1619 C1628 0.929 1_565 S
C1620 H1614 0.930 . S
C1620 C1621 1.367 . S
C1620 C1628 1.378 . S
C1621 C1620 1.367 . S
C1621 C1629 1.433 . S
C1622 H1618 0.929 . S
C1622 C1624 1.378 . S
C1622 C1626 1.350 . S
C1623 C1626 1.463 . S
C1623 C1628 1.350 . S
C1623 N1631 1.427 . S
C1624 H1615 0.930 . S
C1624 C1622 1.378 . S
C1624 C1625 1.367 1_545 S
C1625 C1624 1.367 1_565 S
C1625 C1627 1.433 . S
C1626 C1622 1.350 . S
C1626 C1623 1.463 . S
C1626 N1630 1.427 1_545 S
C1627 H1617 0.929 . S
C1627 C1625 1.433 . S
C1627 N1630 1.384 . S
C1628 H1619 0.929 1_545 S
C1628 C1620 1.378 . S
C1628 C1623 1.350 . S
C1629 H1616 0.929 . S
C1629 C1621 1.433 . S
C1629 N1631 1.384 . S
N1630 C1626 1.427 1_565 S
N1630 C1627 1.384 . S
N1631 C1623 1.427 . S
N1631 C1629 1.384 . S
H1632 C1638 0.930 . S
H1633 C1642 0.930 . S
H1634 C1647 0.929 . S
H1635 C1645 0.929 . S
H1636 C1640 0.929 . S
H1637 C1646 0.929 . S
C1638 H1632 0.930 . S
C1638 C1639 1.367 . S
C1638 C1646 1.378 . S
C1639 C1638 1.367 . S
C1639 C1647 1.433 . S
C1640 H1636 0.929 . S
C1640 C1642 1.378 . S
C1640 C1644 1.350 . S
C1641 C1644 1.463 . S
C1641 C1646 1.350 . S
C1641 N1649 1.427 . S
C1642 H1633 0.930 . S
C1642 C1640 1.378 . S
C1642 C1643 1.367 . S
C1643 C1642 1.367 . S
C1643 C1645 1.433 . S
C1644 C1640 1.350 . S
C1644 C1641 1.463 . S
C1644 N1648 1.427 . S
C1645 H1635 0.929 . S
C1645 C1643 1.433 . S
C1645 N1648 1.384 . S
C1646 H1637 0.929 . S
C1646 C1638 1.378 . S
C1646 C1641 1.350 . S
C1647 H1634 0.929 . S
C1647 C1639 1.433 . S
C1647 N1649 1.384 . S
N1648 C1644 1.427 . S
N1648 C1645 1.384 . S
N1649 C1641 1.427 . S
N1649 C1647 1.384 . S
H1650 C1656 0.930 . S
H1651 C1660 0.930 . S
H1652 C1665 0.929 . S
H1653 C1663 0.929 . S
H1654 C1658 0.929 . S
H1655 C1664 0.929 . S
C1656 H1650 0.930 . S
C1656 C1657 1.367 . S
C1656 C1664 1.378 . S
C1657 C1656 1.367 . S
C1657 C1665 1.433 . S
C1658 H1654 0.929 . S
C1658 C1660 1.378 . S
C1658 C1662 1.350 . S
C1659 C1662 1.463 1_455 S
C1659 C1664 1.350 . S
C1659 N1667 1.427 . S
C1660 H1651 0.930 . S
C1660 C1658 1.378 . S
C1660 C1661 1.367 . S
C1661 C1660 1.367 . S
C1661 C1663 1.433 . S
C1662 C1658 1.350 . S
C1662 C1659 1.463 1_655 S
C1662 N1666 1.427 . S
C1663 H1653 0.929 . S
C1663 C1661 1.433 . S
C1663 N1666 1.384 . S
C1664 H1655 0.929 . S
C1664 C1656 1.378 . S
C1664 C1659 1.350 . S
C1665 H1652 0.929 . S
C1665 C1657 1.433 . S
C1665 N1667 1.384 . S
N1666 C1662 1.427 . S
N1666 C1663 1.384 . S
N1667 C1659 1.427 . S
N1667 C1665 1.384 . S
H1668 C1674 0.930 . S
H1669 C1678 0.930 . S
H1670 C1683 0.929 . S
H1671 C1681 0.929 . S
H1672 C1676 0.929 . S
H1673 C1682 0.929 . S
C1674 H1668 0.930 . S
C1674 C1675 1.367 . S
C1674 C1682 1.378 . S
C1675 C1674 1.367 . S
C1675 C1683 1.433 . S
C1676 H1672 0.929 . S
C1676 C1678 1.378 . S
C1676 C1680 1.350 . S
C1677 C1680 1.463 1_554 S
C1677 C1682 1.350 . S
C1677 N1685 1.427 . S
C1678 H1669 0.930 . S
C1678 C1676 1.378 . S
C1678 C1679 1.367 . S
C1679 C1678 1.367 . S
C1679 C1681 1.433 . S
C1680 C1676 1.350 . S
C1680 C1677 1.463 1_556 S
C1680 N1684 1.427 . S
C1681 H1671 0.929 . S
C1681 C1679 1.433 . S
C1681 N1684 1.384 . S
C1682 H1673 0.929 . S
C1682 C1674 1.378 . S
C1682 C1677 1.350 . S
C1683 H1670 0.929 . S
C1683 C1675 1.433 . S
C1683 N1685 1.384 . S
N1684 C1680 1.427 . S
N1684 C1681 1.384 . S
N1685 C1677 1.427 . S
N1685 C1683 1.384 . S
H1686 C1692 0.930 . S
H1687 C1696 0.930 . S
H1688 C1701 0.929 . S
H1689 C1699 0.929 . S
H1690 C1694 0.929 . S
H1691 C1700 0.929 . S
C1692 H1686 0.930 . S
C1692 C1693 1.367 . S
C1692 C1700 1.378 . S
C1693 C1692 1.367 . S
C1693 C1701 1.433 . S
C1694 H1690 0.929 . S
C1694 C1696 1.378 . S
C1694 C1698 1.350 . S
C1695 C1698 1.463 . S
C1695 C1700 1.350 . S
C1695 N1703 1.427 . S
C1696 H1687 0.930 . S
C1696 C1694 1.378 . S
C1696 C1697 1.367 . S
C1697 C1696 1.367 . S
C1697 C1699 1.433 . S
C1698 C1694 1.350 . S
C1698 C1695 1.463 . S
C1698 N1702 1.427 . S
C1699 H1689 0.929 . S
C1699 C1697 1.433 . S
C1699 N1702 1.384 . S
C1700 H1691 0.929 . S
C1700 C1692 1.378 . S
C1700 C1695 1.350 . S
C1701 H1688 0.929 . S
C1701 C1693 1.433 . S
C1701 N1703 1.384 . S
N1702 C1698 1.427 . S
N1702 C1699 1.384 . S
N1703 C1695 1.427 . S
N1703 C1701 1.384 . S
H1704 C1710 0.930 . S
H1705 C1714 0.930 . S
H1706 C1719 0.929 . S
H1707 C1717 0.929 . S
H1708 C1712 0.929 1_556 S
H1709 C1718 0.929 1_554 S
C1710 H1704 0.930 . S
C1710 C1711 1.367 . S
C1710 C1718 1.378 . S
C1711 C1710 1.367 . S
C1711 C1719 1.433 . S
C1712 H1708 0.929 1_554 S
C1712 C1714 1.378 . S
C1712 C1716 1.350 . S
C1713 C1716 1.463 1_556 S
C1713 C1718 1.350 . S
C1713 N1721 1.427 . S
C1714 H1705 0.930 . S
C1714 C1712 1.378 . S
C1714 C1715 1.367 . S
C1715 C1714 1.367 . S
C1715 C1717 1.433 . S
C1716 C1712 1.350 . S
C1716 C1713 1.463 1_554 S
C1716 N1720 1.427 . S
C1717 H1707 0.929 . S
C1717 C1715 1.433 . S
C1717 N1720 1.384 . S
C1718 H1709 0.929 1_556 S
C1718 C1710 1.378 . S
C1718 C1713 1.350 . S
C1719 H1706 0.929 . S
C1719 C1711 1.433 . S
C1719 N1721 1.384 . S
N1720 C1716 1.427 . S
N1720 C1717 1.384 . S
N1721 C1713 1.427 . S
N1721 C1719 1.384 . S
H1722 C1728 0.930 . S
H1723 C1732 0.930 . S
H1724 C1737 0.929 . S
H1725 C1735 0.929 . S
H1726 C1730 0.929 . S
H1727 C1736 0.929 . S
C1728 H1722 0.930 . S
C1728 C1729 1.367 . S
C1728 C1736 1.378 . S
C1729 C1728 1.367 . S
C1729 C1737 1.433 . S
C1730 H1726 0.929 . S
C1730 C1732 1.378 . S
C1730 C1734 1.350 . S
C1731 C1734 1.463 . S
C1731 C1736 1.350 . S
C1731 N1739 1.427 . S
C1732 H1723 0.930 . S
C1732 C1730 1.378 . S
C1732 C1733 1.367 . S
C1733 C1732 1.367 . S
C1733 C1735 1.433 . S
C1734 C1730 1.350 . S
C1734 C1731 1.463 . S
C1734 N1738 1.427 . S
C1735 H1725 0.929 . S
C1735 C1733 1.433 . S
C1735 N1738 1.384 . S
C1736 H1727 0.929 . S
C1736 C1728 1.378 . S
C1736 C1731 1.350 . S
C1737 H1724 0.929 . S
C1737 C1729 1.433 . S
C1737 N1739 1.384 . S
N1738 C1734 1.427 . S
N1738 C1735 1.384 . S
N1739 C1731 1.427 . S
N1739 C1737 1.384 . S
H1740 C1746 0.930 . S
H1741 C1750 0.930 . S
H1742 C1755 0.929 . S
H1743 C1753 0.929 . S
H1744 C1748 0.929 . S
H1745 C1754 0.929 . S
C1746 H1740 0.930 . S
C1746 C1747 1.367 . S
C1746 C1754 1.378 . S
C1747 C1746 1.367 . S
C1747 C1755 1.433 . S
C1748 H1744 0.929 . S
C1748 C1750 1.378 . S
C1748 C1752 1.350 . S
C1749 C1752 1.463 . S
C1749 C1754 1.350 . S
C1749 N1757 1.427 . S
C1750 H1741 0.930 . S
C1750 C1748 1.378 . S
C1750 C1751 1.367 . S
C1751 C1750 1.367 . S
C1751 C1753 1.433 . S
C1752 C1748 1.350 . S
C1752 C1749 1.463 . S
C1752 N1756 1.427 . S
C1753 H1743 0.929 . S
C1753 C1751 1.433 . S
C1753 N1756 1.384 . S
C1754 H1745 0.929 . S
C1754 C1746 1.378 . S
C1754 C1749 1.350 . S
C1755 H1742 0.929 . S
C1755 C1747 1.433 . S
C1755 N1757 1.384 . S
N1756 C1752 1.427 . S
N1756 C1753 1.384 . S
N1757 C1749 1.427 . S
N1757 C1755 1.384 . S
H1758 C1764 0.930 . S
H1759 C1768 0.930 . S
H1760 C1773 0.929 . S
H1761 C1771 0.929 . S
H1762 C1766 0.929 . S
H1763 C1772 0.929 . S
C1764 H1758 0.930 . S
C1764 C1765 1.367 . S
C1764 C1772 1.378 . S
C1765 C1764 1.367 . S
C1765 C1773 1.433 . S
C1766 H1762 0.929 . S
C1766 C1768 1.378 . S
C1766 C1770 1.350 . S
C1767 C1770 1.463 1_655 S
C1767 C1772 1.350 . S
C1767 N1775 1.427 . S
C1768 H1759 0.930 . S
C1768 C1766 1.378 . S
C1768 C1769 1.367 . S
C1769 C1768 1.367 . S
C1769 C1771 1.433 . S
C1770 C1766 1.350 . S
C1770 C1767 1.463 1_455 S
C1770 N1774 1.427 . S
C1771 H1761 0.929 . S
C1771 C1769 1.433 . S
C1771 N1774 1.384 . S
C1772 H1763 0.929 . S
C1772 C1764 1.378 . S
C1772 C1767 1.350 . S
C1773 H1760 0.929 . S
C1773 C1765 1.433 . S
C1773 N1775 1.384 . S
N1774 C1770 1.427 . S
N1774 C1771 1.384 . S
N1775 C1767 1.427 . S
N1775 C1773 1.384 . S
H1776 C1782 0.930 . S
H1777 C1786 0.930 . S
H1778 C1791 0.929 . S
H1779 C1789 0.929 . S
H1780 C1784 0.929 . S
H1781 C1790 0.929 . S
C1782 H1776 0.930 . S
C1782 C1783 1.367 . S
C1782 C1790 1.378 . S
C1783 C1782 1.367 . S
C1783 C1791 1.433 . S
C1784 H1780 0.929 . S
C1784 C1786 1.378 . S
C1784 C1788 1.350 . S
C1785 C1788 1.463 . S
C1785 C1790 1.350 . S
C1785 N1793 1.427 . S
C1786 H1777 0.930 . S
C1786 C1784 1.378 . S
C1786 C1787 1.367 . S
C1787 C1786 1.367 . S
C1787 C1789 1.433 . S
C1788 C1784 1.350 . S
C1788 C1785 1.463 . S
C1788 N1792 1.427 . S
C1789 H1779 0.929 . S
C1789 C1787 1.433 . S
C1789 N1792 1.384 . S
C1790 H1781 0.929 . S
C1790 C1782 1.378 . S
C1790 C1785 1.350 . S
C1791 H1778 0.929 . S
C1791 C1783 1.433 . S
C1791 N1793 1.384 . S
N1792 C1788 1.427 . S
N1792 C1789 1.384 . S
N1793 C1785 1.427 . S
N1793 C1791 1.384 . S
H1794 C1800 0.930 . S
H1795 C1804 0.930 . S
H1796 C1809 0.929 . S
H1797 C1807 0.929 . S
H1798 C1802 0.929 1_545 S
H1799 C1808 0.929 . S
C1800 H1794 0.930 . S
C1800 C1801 1.367 . S
C1800 C1808 1.378 1_545 S
C1801 C1800 1.367 . S
C1801 C1809 1.433 . S
C1802 H1798 0.929 1_565 S
C1802 C1804 1.378 . S
C1802 C1806 1.350 . S
C1803 C1806 1.463 1_545 S
C1803 C1808 1.350 1_545 S
C1803 N1811 1.427 . S
C1804 H1795 0.930 . S
C1804 C1802 1.378 . S
C1804 C1805 1.367 . S
C1805 C1804 1.367 . S
C1805 C1807 1.433 . S
C1806 C1802 1.350 . S
C1806 C1803 1.463 1_565 S
C1806 N1810 1.427 . S
C1807 H1797 0.929 . S
C1807 C1805 1.433 . S
C1807 N1810 1.384 . S
C1808 H1799 0.929 . S
C1808 C1800 1.378 1_565 S
C1808 C1803 1.350 1_565 S
C1809 H1796 0.929 . S
C1809 C1801 1.433 . S
C1809 N1811 1.384 . S
N1810 C1806 1.427 . S
N1810 C1807 1.384 . S
N1811 C1803 1.427 . S
N1811 C1809 1.384 . S
H1812 C1818 0.930 . S
H1813 C1822 0.930 . S
H1814 C1827 0.929 . S
H1815 C1825 0.929 . S
H1816 C1820 0.929 . S
H1817 C1826 0.929 . S
C1818 H1812 0.930 . S
C1818 C1819 1.367 . S
C1818 C1826 1.378 . S
C1819 C1818 1.367 . S
C1819 C1827 1.433 . S
C1820 H1816 0.929 . S
C1820 C1822 1.378 . S
C1820 C1824 1.350 . S
C1821 C1824 1.463 1_545 S
C1821 C1826 1.350 . S
C1821 N1829 1.427 . S
C1822 H1813 0.930 . S
C1822 C1820 1.378 . S
C1822 C1823 1.367 . S
C1823 C1822 1.367 . S
C1823 C1825 1.433 . S
C1824 C1820 1.350 . S
C1824 C1821 1.463 1_565 S
C1824 N1828 1.427 . S
C1825 H1815 0.929 . S
C1825 C1823 1.433 . S
C1825 N1828 1.384 . S
C1826 H1817 0.929 . S
C1826 C1818 1.378 . S
C1826 C1821 1.350 . S
C1827 H1814 0.929 . S
C1827 C1819 1.433 . S
C1827 N1829 1.384 . S
N1828 C1824 1.427 . S
N1828 C1825 1.384 . S
N1829 C1821 1.427 . S
N1829 C1827 1.384 . S
H1830 C1836 0.930 . S
H1831 C1840 0.930 . S
H1832 C1845 0.929 . S
H1833 C1843 0.929 . S
H1834 C1838 0.929 . S
H1835 C1844 0.929 . S
C1836 H1830 0.930 . S
C1836 C1837 1.367 . S
C1836 C1844 1.378 . S
C1837 C1836 1.367 . S
C1837 C1845 1.433 . S
C1838 H1834 0.929 . S
C1838 C1840 1.378 . S
C1838 C1842 1.350 . S
C1839 C1842 1.463 1_565 S
C1839 C1844 1.350 . S
C1839 N1847 1.427 . S
C1840 H1831 0.930 . S
C1840 C1838 1.378 . S
C1840 C1841 1.367 . S
C1841 C1840 1.367 . S
C1841 C1843 1.433 . S
C1842 C1838 1.350 . S
C1842 C1839 1.463 1_545 S
C1842 N1846 1.427 . S
C1843 H1833 0.929 . S
C1843 C1841 1.433 . S
C1843 N1846 1.384 . S
C1844 H1835 0.929 . S
C1844 C1836 1.378 . S
C1844 C1839 1.350 . S
C1845 H1832 0.929 . S
C1845 C1837 1.433 . S
C1845 N1847 1.384 . S
N1846 C1842 1.427 . S
N1846 C1843 1.384 . S
N1847 C1839 1.427 . S
N1847 C1845 1.384 . S
H1848 C1854 0.930 . S
H1849 C1858 0.930 . S
H1850 C1863 0.929 . S
H1851 C1861 0.929 . S
H1852 C1856 0.929 . S
H1853 C1862 0.929 . S
C1854 H1848 0.930 . S
C1854 C1855 1.367 . S
C1854 C1862 1.378 . S
C1855 C1854 1.367 . S
C1855 C1863 1.433 . S
C1856 H1852 0.929 . S
C1856 C1858 1.378 . S
C1856 C1860 1.350 . S
C1857 C1860 1.463 . S
C1857 C1862 1.350 . S
C1857 N1865 1.427 . S
C1858 H1849 0.930 . S
C1858 C1856 1.378 . S
C1858 C1859 1.367 . S
C1859 C1858 1.367 . S
C1859 C1861 1.433 . S
C1860 C1856 1.350 . S
C1860 C1857 1.463 . S
C1860 N1864 1.427 . S
C1861 H1851 0.929 . S
C1861 C1859 1.433 . S
C1861 N1864 1.384 . S
C1862 H1853 0.929 . S
C1862 C1854 1.378 . S
C1862 C1857 1.350 . S
C1863 H1850 0.929 . S
C1863 C1855 1.433 . S
C1863 N1865 1.384 . S
N1864 C1860 1.427 . S
N1864 C1861 1.384 . S
N1865 C1857 1.427 . S
N1865 C1863 1.384 . S
H1866 C1872 0.930 . S
H1867 C1876 0.930 . S
H1868 C1881 0.929 . S
H1869 C1879 0.929 . S
H1870 C1874 0.929 . S
H1871 C1880 0.929 . S
C1872 H1866 0.930 . S
C1872 C1873 1.367 . S
C1872 C1880 1.378 . S
C1873 C1872 1.367 . S
C1873 C1881 1.433 . S
C1874 H1870 0.929 . S
C1874 C1876 1.378 . S
C1874 C1878 1.350 . S
C1875 C1878 1.463 . S
C1875 C1880 1.350 . S
C1875 N1883 1.427 . S
C1876 H1867 0.930 . S
C1876 C1874 1.378 . S
C1876 C1877 1.367 . S
C1877 C1876 1.367 . S
C1877 C1879 1.433 . S
C1878 C1874 1.350 . S
C1878 C1875 1.463 . S
C1878 N1882 1.427 . S
C1879 H1869 0.929 . S
C1879 C1877 1.433 . S
C1879 N1882 1.384 . S
C1880 H1871 0.929 . S
C1880 C1872 1.378 . S
C1880 C1875 1.350 . S
C1881 H1868 0.929 . S
C1881 C1873 1.433 . S
C1881 N1883 1.384 . S
N1882 C1878 1.427 . S
N1882 C1879 1.384 . S
N1883 C1875 1.427 . S
N1883 C1881 1.384 . S
H1884 C1890 0.930 . S
H1885 C1894 0.930 . S
H1886 C1899 0.929 . S
H1887 C1897 0.929 . S
H1888 C1892 0.929 . S
H1889 C1898 0.929 . S
C1890 H1884 0.930 . S
C1890 C1891 1.367 . S
C1890 C1898 1.378 . S
C1891 C1890 1.367 . S
C1891 C1899 1.433 . S
C1892 H1888 0.929 . S
C1892 C1894 1.378 . S
C1892 C1896 1.350 . S
C1893 C1896 1.463 . S
C1893 C1898 1.350 . S
C1893 N1901 1.427 . S
C1894 H1885 0.930 . S
C1894 C1892 1.378 . S
C1894 C1895 1.367 . S
C1895 C1894 1.367 . S
C1895 C1897 1.433 . S
C1896 C1892 1.350 . S
C1896 C1893 1.463 . S
C1896 N1900 1.427 . S
C1897 H1887 0.929 . S
C1897 C1895 1.433 . S
C1897 N1900 1.384 . S
C1898 H1889 0.929 . S
C1898 C1890 1.378 . S
C1898 C1893 1.350 . S
C1899 H1886 0.929 . S
C1899 C1891 1.433 . S
C1899 N1901 1.384 . S
N1900 C1896 1.427 . S
N1900 C1897 1.384 . S
N1901 C1893 1.427 . S
N1901 C1899 1.384 . S
H1902 C1908 0.930 . S
H1903 C1912 0.930 . S
H1904 C1917 0.929 . S
H1905 C1915 0.929 . S
H1906 C1910 0.929 1_554 S
H1907 C1916 0.956 . S
C1908 H1902 0.930 . S
C1908 C1909 1.367 . S
C1908 C1916 1.378 . S
C1909 C1908 1.367 . S
C1909 C1917 1.433 . S
C1910 H1906 0.929 1_556 S
C1910 C1912 1.378 . S
C1910 C1914 1.350 . S
C1911 C1914 1.463 1_554 S
C1911 C1916 1.350 . S
C1911 N1919 1.427 . S
C1912 H1903 0.930 . S
C1912 C1910 1.378 . S
C1912 C1913 1.367 . S
C1913 C1912 1.367 . S
C1913 C1915 1.433 . S
C1914 C1910 1.350 . S
C1914 C1911 1.463 1_556 S
C1914 N1918 1.427 . S
C1915 H1905 0.929 . S
C1915 C1913 1.433 . S
C1915 N1918 1.384 . S
C1916 H1907 0.956 . S
C1916 C1908 1.378 . S
C1916 C1911 1.350 . S
C1917 H1904 0.929 . S
C1917 C1909 1.433 . S
C1917 N1919 1.384 . S
N1918 C1914 1.427 . S
N1918 C1915 1.384 . S
N1919 C1911 1.427 . S
N1919 C1917 1.384 . S
H1920 C1926 0.930 . S
H1921 C1930 0.930 . S
H1922 C1935 0.929 . S
H1923 C1933 0.929 . S
H1924 C1928 0.929 . S
H1925 C1934 0.929 . S
C1926 H1920 0.930 . S
C1926 C1927 1.367 . S
C1926 C1934 1.378 . S
C1927 C1926 1.367 . S
C1927 C1935 1.433 . S
C1928 H1924 0.929 . S
C1928 C1930 1.378 . S
C1928 C1932 1.350 . S
C1929 C1932 1.463 . S
C1929 C1934 1.350 . S
C1929 N1937 1.427 . S
C1930 H1921 0.930 . S
C1930 C1928 1.378 . S
C1930 C1931 1.367 . S
C1931 C1930 1.367 . S
C1931 C1933 1.433 . S
C1932 C1928 1.350 . S
C1932 C1929 1.463 . S
C1932 N1936 1.427 . S
C1933 H1923 0.929 . S
C1933 C1931 1.433 . S
C1933 N1936 1.384 . S
C1934 H1925 0.929 . S
C1934 C1926 1.378 . S
C1934 C1929 1.350 . S
C1935 H1922 0.929 . S
C1935 C1927 1.433 . S
C1935 N1937 1.384 . S
N1936 C1932 1.427 . S
N1936 C1933 1.384 . S
N1937 C1929 1.427 . S
N1937 C1935 1.384 . S
H1938 C1944 0.930 . S
H1939 C1948 0.930 . S
H1940 C1953 0.929 . S
H1941 C1951 0.929 . S
H1942 C1946 0.929 . S
H1943 C1952 0.929 . S
C1944 H1938 0.930 . S
C1944 C1945 1.367 . S
C1944 C1952 1.378 . S
C1945 C1944 1.367 . S
C1945 C1953 1.433 . S
C1946 H1942 0.929 . S
C1946 C1948 1.378 . S
C1946 C1950 1.350 . S
C1947 C1950 1.463 . S
C1947 C1952 1.350 . S
C1947 N1955 1.427 . S
C1948 H1939 0.930 . S
C1948 C1946 1.378 . S
C1948 C1949 1.367 . S
C1949 C1948 1.367 . S
C1949 C1951 1.433 . S
C1950 C1946 1.350 . S
C1950 C1947 1.463 . S
C1950 N1954 1.427 . S
C1951 H1941 0.929 . S
C1951 C1949 1.433 . S
C1951 N1954 1.384 . S
C1952 H1943 0.929 . S
C1952 C1944 1.378 . S
C1952 C1947 1.350 . S
C1953 H1940 0.929 . S
C1953 C1945 1.433 . S
C1953 N1955 1.384 . S
N1954 C1950 1.427 . S
N1954 C1951 1.384 . S
N1955 C1947 1.427 . S
N1955 C1953 1.384 . S
H1956 C1962 0.930 . S
H1957 C1966 0.930 . S
H1958 C1971 0.929 . S
H1959 C1969 0.929 . S
H1960 C1964 0.929 . S
H1961 C1970 0.929 . S
C1962 H1956 0.930 . S
C1962 C1963 1.367 . S
C1962 C1970 1.378 . S
C1963 C1962 1.367 . S
C1963 C1971 1.433 . S
C1964 H1960 0.929 . S
C1964 C1966 1.378 . S
C1964 C1968 1.350 . S
C1965 C1968 1.463 1_655 S
C1965 C1970 1.350 . S
C1965 N1973 1.427 . S
C1966 H1957 0.930 . S
C1966 C1964 1.378 . S
C1966 C1967 1.367 . S
C1967 C1966 1.367 . S
C1967 C1969 1.433 . S
C1968 C1964 1.350 . S
C1968 C1965 1.463 1_455 S
C1968 N1972 1.427 . S
C1969 H1959 0.929 . S
C1969 C1967 1.433 . S
C1969 N1972 1.384 . S
C1970 H1961 0.929 . S
C1970 C1962 1.378 . S
C1970 C1965 1.350 . S
C1971 H1958 0.929 . S
C1971 C1963 1.433 . S
C1971 N1973 1.384 . S
N1972 C1968 1.427 . S
N1972 C1969 1.384 . S
N1973 C1965 1.427 . S
N1973 C1971 1.384 . S
H1974 C1980 0.930 . S
H1975 C1984 0.930 . S
H1976 C1989 0.929 . S
H1977 C1987 0.929 . S
H1978 C1982 0.929 . S
H1979 C1988 0.929 . S
C1980 H1974 0.930 . S
C1980 C1981 1.367 . S
C1980 C1988 1.378 . S
C1981 C1980 1.367 . S
C1981 C1989 1.433 . S
C1982 H1978 0.929 . S
C1982 C1984 1.378 . S
C1982 C1986 1.350 . S
C1983 C1986 1.463 . S
C1983 C1988 1.350 . S
C1983 N1991 1.427 . S
C1984 H1975 0.930 . S
C1984 C1982 1.378 . S
C1984 C1985 1.367 . S
C1985 C1984 1.367 . S
C1985 C1987 1.433 . S
C1986 C1982 1.350 . S
C1986 C1983 1.463 . S
C1986 N1990 1.427 . S
C1987 H1977 0.929 . S
C1987 C1985 1.433 . S
C1987 N1990 1.384 . S
C1988 H1979 0.929 . S
C1988 C1980 1.378 . S
C1988 C1983 1.350 . S
C1989 H1976 0.929 . S
C1989 C1981 1.433 . S
C1989 N1991 1.384 . S
N1990 C1986 1.427 . S
N1990 C1987 1.384 . S
N1991 C1983 1.427 . S
N1991 C1989 1.384 . S
H1992 C1998 0.930 . S
H1993 C2002 0.930 . S
H1994 C2007 0.929 . S
H1995 C2005 0.929 . S
H1996 C2000 0.929 . S
H1997 C2006 0.929 . S
C1998 H1992 0.930 . S
C1998 C1999 1.367 . S
C1998 C2006 1.378 . S
C1999 C1998 1.367 . S
C1999 C2007 1.433 . S
C2000 H1996 0.929 . S
C2000 C2002 1.378 . S
C2000 C2004 1.350 . S
C2001 C2004 1.463 1_655 S
C2001 C2006 1.350 . S
C2001 N2009 1.427 . S
C2002 H1993 0.930 . S
C2002 C2000 1.378 . S
C2002 C2003 1.367 . S
C2003 C2002 1.367 . S
C2003 C2005 1.433 . S
C2004 C2000 1.350 . S
C2004 C2001 1.463 1_455 S
C2004 N2008 1.427 . S
C2005 H1995 0.929 . S
C2005 C2003 1.433 . S
C2005 N2008 1.384 . S
C2006 H1997 0.929 . S
C2006 C1998 1.378 . S
C2006 C2001 1.350 . S
C2007 H1994 0.929 . S
C2007 C1999 1.433 . S
C2007 N2009 1.384 . S
N2008 C2004 1.427 . S
N2008 C2005 1.384 . S
N2009 C2001 1.427 . S
N2009 C2007 1.384 . S
H2010 C2016 0.930 . S
H2011 C2020 0.930 . S
H2012 C2025 0.929 . S
H2013 C2023 0.929 . S
H2014 C2018 0.929 1_554 S
H2015 C2024 0.929 . S
C2016 H2010 0.930 . S
C2016 C2017 1.367 . S
C2016 C2024 1.378 1_554 S
C2017 C2016 1.367 . S
C2017 C2025 1.433 . S
C2018 H2014 0.929 1_556 S
C2018 C2020 1.378 . S
C2018 C2022 1.350 . S
C2019 C2022 1.463 1_554 S
C2019 C2024 1.350 1_554 S
C2019 N2027 1.427 . S
C2020 H2011 0.930 . S
C2020 C2018 1.378 . S
C2020 C2021 1.367 . S
C2021 C2020 1.367 . S
C2021 C2023 1.433 . S
C2022 C2018 1.350 . S
C2022 C2019 1.463 1_556 S
C2022 N2026 1.427 . S
C2023 H2013 0.929 . S
C2023 C2021 1.433 . S
C2023 N2026 1.384 . S
C2024 H2015 0.929 . S
C2024 C2016 1.378 1_556 S
C2024 C2019 1.350 1_556 S
C2025 H2012 0.929 . S
C2025 C2017 1.433 . S
C2025 N2027 1.384 . S
N2026 C2022 1.427 . S
N2026 C2023 1.384 . S
N2027 C2019 1.427 . S
N2027 C2025 1.384 . S
H2028 C2034 0.930 . S
H2029 C2038 0.930 . S
H2030 C2043 0.929 . S
H2031 C2041 0.929 . S
H2032 C2036 0.929 . S
H2033 C2042 0.929 . S
C2034 H2028 0.930 . S
C2034 C2035 1.367 . S
C2034 C2042 1.378 . S
C2035 C2034 1.367 . S
C2035 C2043 1.433 . S
C2036 H2032 0.929 . S
C2036 C2038 1.378 . S
C2036 C2040 1.350 . S
C2037 C2040 1.463 . S
C2037 C2042 1.350 . S
C2037 N2045 1.427 . S
C2038 H2029 0.930 . S
C2038 C2036 1.378 . S
C2038 C2039 1.367 . S
C2039 C2038 1.367 . S
C2039 C2041 1.433 . S
C2040 C2036 1.350 . S
C2040 C2037 1.463 . S
C2040 N2044 1.427 . S
C2041 H2031 0.929 . S
C2041 C2039 1.433 . S
C2041 N2044 1.384 . S
C2042 H2033 0.929 . S
C2042 C2034 1.378 . S
C2042 C2037 1.350 . S
C2043 H2030 0.929 . S
C2043 C2035 1.433 . S
C2043 N2045 1.384 . S
N2044 C2040 1.427 . S
N2044 C2041 1.384 . S
N2045 C2037 1.427 . S
N2045 C2043 1.384 . S
H2046 C2052 0.930 . S
H2047 C2056 0.930 . S
H2048 C2061 0.929 . S
H2049 C2059 0.929 . S
H2050 C2054 0.929 1_565 S
H2051 C2060 0.929 . S
C2052 H2046 0.930 . S
C2052 C2053 1.367 . S
C2052 C2060 1.378 1_565 S
C2053 C2052 1.367 . S
C2053 C2061 1.433 . S
C2054 H2050 0.929 1_545 S
C2054 C2056 1.378 . S
C2054 C2058 1.350 . S
C2055 C2058 1.463 1_565 S
C2055 C2060 1.350 1_565 S
C2055 N2063 1.427 . S
C2056 H2047 0.930 . S
C2056 C2054 1.378 . S
C2056 C2057 1.367 . S
C2057 C2056 1.367 . S
C2057 C2059 1.433 . S
C2058 C2054 1.350 . S
C2058 C2055 1.463 1_545 S
C2058 N2062 1.427 . S
C2059 H2049 0.929 . S
C2059 C2057 1.433 . S
C2059 N2062 1.384 . S
C2060 H2051 0.929 . S
C2060 C2052 1.378 1_545 S
C2060 C2055 1.350 1_545 S
C2061 H2048 0.929 . S
C2061 C2053 1.433 . S
C2061 N2063 1.384 . S
N2062 C2058 1.427 . S
N2062 C2059 1.384 . S
N2063 C2055 1.427 . S
N2063 C2061 1.384 . S
H2064 C2070 0.930 . S
H2065 C2074 0.930 . S
H2066 C2079 0.929 . S
H2067 C2077 0.929 . S
H2068 C2072 0.929 . S
H2069 C2078 0.929 . S
C2070 H2064 0.930 . S
C2070 C2071 1.367 . S
C2070 C2078 1.378 . S
C2071 C2070 1.367 . S
C2071 C2079 1.433 . S
C2072 H2068 0.929 . S
C2072 C2074 1.378 . S
C2072 C2076 1.350 . S
C2073 C2076 1.463 . S
C2073 C2078 1.350 . S
C2073 N2081 1.427 . S
C2074 H2065 0.930 . S
C2074 C2072 1.378 . S
C2074 C2075 1.367 . S
C2075 C2074 1.367 . S
C2075 C2077 1.433 . S
C2076 C2072 1.350 . S
C2076 C2073 1.463 . S
C2076 N2080 1.427 . S
C2077 H2067 0.929 . S
C2077 C2075 1.433 . S
C2077 N2080 1.384 . S
C2078 H2069 0.929 . S
C2078 C2070 1.378 . S
C2078 C2073 1.350 . S
C2079 H2066 0.929 . S
C2079 C2071 1.433 . S
C2079 N2081 1.384 . S
N2080 C2076 1.427 . S
N2080 C2077 1.384 . S
N2081 C2073 1.427 . S
N2081 C2079 1.384 . S
H2082 C2088 0.930 . S
H2083 C2092 0.930 . S
H2084 C2097 0.929 . S
H2085 C2095 0.929 . S
H2086 C2090 0.929 . S
H2087 C2096 0.929 . S
C2088 H2082 0.930 . S
C2088 C2089 1.367 . S
C2088 C2096 1.378 . S
C2089 C2088 1.367 . S
C2089 C2097 1.433 . S
C2090 H2086 0.929 . S
C2090 C2092 1.378 . S
C2090 C2094 1.350 . S
C2091 C2094 1.463 . S
C2091 C2096 1.350 . S
C2091 N2099 1.427 . S
C2092 H2083 0.930 . S
C2092 C2090 1.378 . S
C2092 C2093 1.367 . S
C2093 C2092 1.367 . S
C2093 C2095 1.433 . S
C2094 C2090 1.350 . S
C2094 C2091 1.463 . S
C2094 N2098 1.427 . S
C2095 H2085 0.929 . S
C2095 C2093 1.433 . S
C2095 N2098 1.384 . S
C2096 H2087 0.929 . S
C2096 C2088 1.378 . S
C2096 C2091 1.350 . S
C2097 H2084 0.929 . S
C2097 C2089 1.433 . S
C2097 N2099 1.384 . S
N2098 C2094 1.427 . S
N2098 C2095 1.384 . S
N2099 C2091 1.427 . S
N2099 C2097 1.384 . S
H2100 C2106 0.930 . S
H2101 C2110 0.930 . S
H2102 C2115 0.929 . S
H2103 C2113 0.929 . S
H2104 C2108 0.929 . S
H2105 C2114 0.929 . S
C2106 H2100 0.930 . S
C2106 C2107 1.367 . S
C2106 C2114 1.378 . S
C2107 C2106 1.367 . S
C2107 C2115 1.433 . S
C2108 H2104 0.929 . S
C2108 C2110 1.378 . S
C2108 C2112 1.350 . S
C2109 C2112 1.463 . S
C2109 C2114 1.350 . S
C2109 N2117 1.427 . S
C2110 H2101 0.930 . S
C2110 C2108 1.378 . S
C2110 C2111 1.367 . S
C2111 C2110 1.367 . S
C2111 C2113 1.433 . S
C2112 C2108 1.350 . S
C2112 C2109 1.463 . S
C2112 N2116 1.427 . S
C2113 H2103 0.929 . S
C2113 C2111 1.433 . S
C2113 N2116 1.384 . S
C2114 H2105 0.929 . S
C2114 C2106 1.378 . S
C2114 C2109 1.350 . S
C2115 H2102 0.929 . S
C2115 C2107 1.433 . S
C2115 N2117 1.384 . S
N2116 C2112 1.427 . S
N2116 C2113 1.384 . S
N2117 C2109 1.427 . S
N2117 C2115 1.384 . S
H2118 C2124 0.930 . S
H2119 C2128 0.930 . S
H2120 C2133 0.929 . S
H2121 C2131 0.929 . S
H2122 C2126 0.929 1_556 S
H2123 C2132 0.929 1_554 S
C2124 H2118 0.930 . S
C2124 C2125 1.367 . S
C2124 C2132 1.378 . S
C2125 C2124 1.367 . S
C2125 C2133 1.433 . S
C2126 H2122 0.929 1_554 S
C2126 C2128 1.378 . S
C2126 C2130 1.350 . S
C2127 C2130 1.463 1_556 S
C2127 C2132 1.350 . S
C2127 N2135 1.427 . S
C2128 H2119 0.930 . S
C2128 C2126 1.378 . S
C2128 C2129 1.367 . S
C2129 C2128 1.367 . S
C2129 C2131 1.433 . S
C2130 C2126 1.350 . S
C2130 C2127 1.463 1_554 S
C2130 N2134 1.427 . S
C2131 H2121 0.929 . S
C2131 C2129 1.433 . S
C2131 N2134 1.384 . S
C2132 H2123 0.929 1_556 S
C2132 C2124 1.378 . S
C2132 C2127 1.350 . S
C2133 H2120 0.929 . S
C2133 C2125 1.433 . S
C2133 N2135 1.384 . S
N2134 C2130 1.427 . S
N2134 C2131 1.384 . S
N2135 C2127 1.427 . S
N2135 C2133 1.384 . S
H2136 C2142 0.930 . S
H2137 C2146 0.930 . S
H2138 C2151 0.929 . S
H2139 C2149 0.929 . S
H2140 C2144 0.929 . S
H2141 C2150 0.929 . S
C2142 H2136 0.930 . S
C2142 C2143 1.367 . S
C2142 C2150 1.378 . S
C2143 C2142 1.367 . S
C2143 C2151 1.433 . S
C2144 H2140 0.929 . S
C2144 C2146 1.378 . S
C2144 C2148 1.350 . S
C2145 C2148 1.463 . S
C2145 C2150 1.350 . S
C2145 N2153 1.427 . S
C2146 H2137 0.930 . S
C2146 C2144 1.378 . S
C2146 C2147 1.367 . S
C2147 C2146 1.367 . S
C2147 C2149 1.433 . S
C2148 C2144 1.350 . S
C2148 C2145 1.463 . S
C2148 N2152 1.427 . S
C2149 H2139 0.929 . S
C2149 C2147 1.433 . S
C2149 N2152 1.384 . S
C2150 H2141 0.929 . S
C2150 C2142 1.378 . S
C2150 C2145 1.350 . S
C2151 H2138 0.929 . S
C2151 C2143 1.433 . S
C2151 N2153 1.384 . S
N2152 C2148 1.427 . S
N2152 C2149 1.384 . S
N2153 C2145 1.427 . S
N2153 C2151 1.384 . S
H2154 C2160 0.930 . S
H2155 C2164 0.930 . S
H2156 C2169 0.929 . S
H2157 C2167 0.929 . S
H2158 C2162 0.929 1_565 S
H2159 C2168 0.929 . S
C2160 H2154 0.930 . S
C2160 C2161 1.367 . S
C2160 C2168 1.378 1_565 S
C2161 C2160 1.367 . S
C2161 C2169 1.433 . S
C2162 H2158 0.929 1_545 S
C2162 C2164 1.378 . S
C2162 C2166 1.350 . S
C2163 C2166 1.463 1_565 S
C2163 C2168 1.350 1_565 S
C2163 N2171 1.427 . S
C2164 H2155 0.930 . S
C2164 C2162 1.378 . S
C2164 C2165 1.367 . S
C2165 C2164 1.367 . S
C2165 C2167 1.433 . S
C2166 C2162 1.350 . S
C2166 C2163 1.463 1_545 S
C2166 N2170 1.427 . S
C2167 H2157 0.929 . S
C2167 C2165 1.433 . S
C2167 N2170 1.384 . S
C2168 H2159 0.929 . S
C2168 C2160 1.378 1_545 S
C2168 C2163 1.350 1_545 S
C2169 H2156 0.929 . S
C2169 C2161 1.433 . S
C2169 N2171 1.384 . S
N2170 C2166 1.427 . S
N2170 C2167 1.384 . S
N2171 C2163 1.427 . S
N2171 C2169 1.384 . S
H2172 C2178 0.930 . S
H2173 C2182 0.930 . S
H2174 C2187 0.929 . S
H2175 C2185 0.929 . S
H2176 C2180 0.929 . S
H2177 C2186 0.929 . S
C2178 H2172 0.930 . S
C2178 C2179 1.367 . S
C2178 C2186 1.378 . S
C2179 C2178 1.367 . S
C2179 C2187 1.433 . S
C2180 H2176 0.929 . S
C2180 C2182 1.378 . S
C2180 C2184 1.350 . S
C2181 C2184 1.463 1_556 S
C2181 C2186 1.350 . S
C2181 N2189 1.427 . S
C2182 H2173 0.930 . S
C2182 C2180 1.378 . S
C2182 C2183 1.367 . S
C2183 C2182 1.367 . S
C2183 C2185 1.433 . S
C2184 C2180 1.350 . S
C2184 C2181 1.463 1_554 S
C2184 N2188 1.427 . S
C2185 H2175 0.929 . S
C2185 C2183 1.433 . S
C2185 N2188 1.384 . S
C2186 H2177 0.929 . S
C2186 C2178 1.378 . S
C2186 C2181 1.350 . S
C2187 H2174 0.929 . S
C2187 C2179 1.433 . S
C2187 N2189 1.384 . S
N2188 C2184 1.427 . S
N2188 C2185 1.384 . S
N2189 C2181 1.427 . S
N2189 C2187 1.384 . S
H2190 C2196 0.930 . S
H2191 C2200 0.930 . S
H2192 C2205 0.929 . S
H2193 C2203 0.929 . S
H2194 C2198 0.929 . S
H2195 C2204 0.929 . S
C2196 H2190 0.930 . S
C2196 C2197 1.367 . S
C2196 C2204 1.378 . S
C2197 C2196 1.367 . S
C2197 C2205 1.433 . S
C2198 H2194 0.929 . S
C2198 C2200 1.378 . S
C2198 C2202 1.350 . S
C2199 C2202 1.463 1_545 S
C2199 C2204 1.350 . S
C2199 N2207 1.427 . S
C2200 H2191 0.930 . S
C2200 C2198 1.378 . S
C2200 C2201 1.367 . S
C2201 C2200 1.367 . S
C2201 C2203 1.433 . S
C2202 C2198 1.350 . S
C2202 C2199 1.463 1_565 S
C2202 N2206 1.427 1_565 S
C2203 H2193 0.929 . S
C2203 C2201 1.433 . S
C2203 N2206 1.384 1_565 S
C2204 H2195 0.929 . S
C2204 C2196 1.378 . S
C2204 C2199 1.350 . S
C2205 H2192 0.929 . S
C2205 C2197 1.433 . S
C2205 N2207 1.384 . S
N2206 C2202 1.427 1_545 S
N2206 C2203 1.384 1_545 S
N2207 C2199 1.427 . S
N2207 C2205 1.384 . S
H2208 C2214 0.930 . S
H2209 C2218 0.930 . S
H2210 C2223 0.929 . S
H2211 C2221 0.929 . S
H2212 C2216 0.929 . S
H2213 C2222 0.929 . S
C2214 H2208 0.930 . S
C2214 C2215 1.367 . S
C2214 C2222 1.378 . S
C2215 C2214 1.367 . S
C2215 C2223 1.433 . S
C2216 H2212 0.929 . S
C2216 C2218 1.378 . S
C2216 C2220 1.350 . S
C2217 C2220 1.463 . S
C2217 C2222 1.350 . S
C2217 N2225 1.427 . S
C2218 H2209 0.930 . S
C2218 C2216 1.378 . S
C2218 C2219 1.367 . S
C2219 C2218 1.367 . S
C2219 C2221 1.433 . S
C2220 C2216 1.350 . S
C2220 C2217 1.463 . S
C2220 N2224 1.427 . S
C2221 H2211 0.929 . S
C2221 C2219 1.433 . S
C2221 N2224 1.384 . S
C2222 H2213 0.929 . S
C2222 C2214 1.378 . S
C2222 C2217 1.350 . S
C2223 H2210 0.929 . S
C2223 C2215 1.433 . S
C2223 N2225 1.384 . S
N2224 C2220 1.427 . S
N2224 C2221 1.384 . S
N2225 C2217 1.427 . S
N2225 C2223 1.384 . S
H2226 C2232 0.930 . S
H2227 C2236 0.930 . S
H2228 C2241 0.929 . S
H2229 C2239 0.929 . S
H2230 C2234 0.929 . S
H2231 C2240 0.929 . S
C2232 H2226 0.930 . S
C2232 C2233 1.367 . S
C2232 C2240 1.378 . S
C2233 C2232 1.367 . S
C2233 C2241 1.433 . S
C2234 H2230 0.929 . S
C2234 C2236 1.378 . S
C2234 C2238 1.350 . S
C2235 C2238 1.463 1_655 S
C2235 C2240 1.350 . S
C2235 N2243 1.427 . S
C2236 H2227 0.930 . S
C2236 C2234 1.378 . S
C2236 C2237 1.367 . S
C2237 C2236 1.367 . S
C2237 C2239 1.433 . S
C2238 C2234 1.350 . S
C2238 C2235 1.463 1_455 S
C2238 N2242 1.427 . S
C2239 H2229 0.929 . S
C2239 C2237 1.433 . S
C2239 N2242 1.384 . S
C2240 H2231 0.929 . S
C2240 C2232 1.378 . S
C2240 C2235 1.350 . S
C2241 H2228 0.929 . S
C2241 C2233 1.433 . S
C2241 N2243 1.384 . S
N2242 C2238 1.427 . S
N2242 C2239 1.384 . S
N2243 C2235 1.427 . S
N2243 C2241 1.384 . S
H2244 C2250 0.930 . S
H2245 C2254 0.930 . S
H2246 C2259 0.929 . S
H2247 C2257 0.929 . S
H2248 C2252 0.929 . S
H2249 C2258 0.929 . S
C2250 H2244 0.930 . S
C2250 C2251 1.367 . S
C2250 C2258 1.378 . S
C2251 C2250 1.367 . S
C2251 C2259 1.433 . S
C2252 H2248 0.929 . S
C2252 C2254 1.378 . S
C2252 C2256 1.350 . S
C2253 C2256 1.463 1_655 S
C2253 C2258 1.350 . S
C2253 N2261 1.427 . S
C2254 H2245 0.930 . S
C2254 C2252 1.378 . S
C2254 C2255 1.367 . S
C2255 C2254 1.367 . S
C2255 C2257 1.433 . S
C2256 C2252 1.350 . S
C2256 C2253 1.463 1_455 S
C2256 N2260 1.427 . S
C2257 H2247 0.929 . S
C2257 C2255 1.433 . S
C2257 N2260 1.384 . S
C2258 H2249 0.929 . S
C2258 C2250 1.378 . S
C2258 C2253 1.350 . S
C2259 H2246 0.929 . S
C2259 C2251 1.433 . S
C2259 N2261 1.384 . S
N2260 C2256 1.427 . S
N2260 C2257 1.384 . S
N2261 C2253 1.427 . S
N2261 C2259 1.384 . S
H2262 C2268 0.930 . S
H2263 C2272 0.930 . S
H2264 C2277 0.929 . S
H2265 C2275 0.929 . S
H2266 C2270 0.929 . S
H2267 C2276 0.929 . S
C2268 H2262 0.930 . S
C2268 C2269 1.367 . S
C2268 C2276 1.378 . S
C2269 C2268 1.367 . S
C2269 C2277 1.433 . S
C2270 H2266 0.929 . S
C2270 C2272 1.378 . S
C2270 C2274 1.350 . S
C2271 C2274 1.463 . S
C2271 C2276 1.350 . S
C2271 N2279 1.427 . S
C2272 H2263 0.930 . S
C2272 C2270 1.378 . S
C2272 C2273 1.367 . S
C2273 C2272 1.367 . S
C2273 C2275 1.433 . S
C2274 C2270 1.350 . S
C2274 C2271 1.463 . S
C2274 N2278 1.427 . S
C2275 H2265 0.929 . S
C2275 C2273 1.433 . S
C2275 N2278 1.384 . S
C2276 H2267 0.929 . S
C2276 C2268 1.378 . S
C2276 C2271 1.350 . S
C2277 H2264 0.929 . S
C2277 C2269 1.433 . S
C2277 N2279 1.384 . S
N2278 C2274 1.427 . S
N2278 C2275 1.384 . S
N2279 C2271 1.427 . S
N2279 C2277 1.384 . S
H2280 C2286 0.930 . S
H2281 C2290 0.930 . S
H2282 C2295 0.929 . S
H2283 C2293 0.929 . S
H2284 C2288 0.955 . S
H2285 C2294 0.929 . S
C2286 H2280 0.930 . S
C2286 C2287 1.367 . S
C2286 C2294 1.378 1_655 S
C2287 C2286 1.367 . S
C2287 C2295 1.433 . S
C2288 H2284 0.955 . S
C2288 C2290 1.378 . S
C2288 C2292 1.350 . S
C2289 C2292 1.462 . S
C2289 C2294 1.350 . S
C2289 N2297 1.428 1_455 S
C2290 H2281 0.930 . S
C2290 C2288 1.378 . S
C2290 C2291 1.367 . S
C2291 C2290 1.367 . S
C2291 C2293 1.433 . S
C2292 C2288 1.350 . S
C2292 C2289 1.462 . S
C2292 N2296 1.427 . S
C2293 H2283 0.929 . S
C2293 C2291 1.433 . S
C2293 N2296 1.384 . S
C2294 H2285 0.929 . S
C2294 C2286 1.378 1_455 S
C2294 C2289 1.350 . S
C2295 H2282 0.929 . S
C2295 C2287 1.433 . S
C2295 N2297 1.384 . S
N2296 C2292 1.427 . S
N2296 C2293 1.384 . S
N2297 C2289 1.428 1_655 S
N2297 C2295 1.384 . S
H2298 C2304 0.930 . S
H2299 C2308 0.930 . S
H2300 C2313 0.929 . S
H2301 C2311 0.929 . S
H2302 C2306 0.929 . S
H2303 C2312 0.929 . S
C2304 H2298 0.930 . S
C2304 C2305 1.367 . S
C2304 C2312 1.378 . S
C2305 C2304 1.367 . S
C2305 C2313 1.433 . S
C2306 H2302 0.929 . S
C2306 C2308 1.378 . S
C2306 C2310 1.350 . S
C2307 C2310 1.463 1_455 S
C2307 C2312 1.350 . S
C2307 N2315 1.431 . S
C2308 H2299 0.930 . S
C2308 C2306 1.378 . S
C2308 C2309 1.367 . S
C2309 C2308 1.367 . S
C2309 C2311 1.433 . S
C2310 C2306 1.350 . S
C2310 C2307 1.463 1_655 S
C2310 N2314 1.427 . S
C2311 H2301 0.929 . S
C2311 C2309 1.433 . S
C2311 N2314 1.384 . S
C2312 H2303 0.929 . S
C2312 C2304 1.378 . S
C2312 C2307 1.350 . S
C2313 H2300 0.929 . S
C2313 C2305 1.433 . S
C2313 N2315 1.390 . S
N2314 C2310 1.427 . S
N2314 C2311 1.384 . S
N2315 C2307 1.431 . S
N2315 C2313 1.390 . S
H2316 C2322 0.930 . S
H2317 C2326 0.930 . S
H2318 C2331 0.929 . S
H2319 C2329 0.929 . S
H2320 C2324 0.929 . S
H2321 C2330 0.929 . S
C2322 H2316 0.930 . S
C2322 C2323 1.367 . S
C2322 C2330 1.378 . S
C2323 C2322 1.367 . S
C2323 C2331 1.433 . S
C2324 H2320 0.929 . S
C2324 C2326 1.378 . S
C2324 C2328 1.350 . S
C2325 C2328 1.463 . S
C2325 C2330 1.350 . S
C2325 N2333 1.427 . S
C2326 H2317 0.930 . S
C2326 C2324 1.378 . S
C2326 C2327 1.367 . S
C2327 C2326 1.367 . S
C2327 C2329 1.433 . S
C2328 C2324 1.350 . S
C2328 C2325 1.463 . S
C2328 N2332 1.427 . S
C2329 H2319 0.929 . S
C2329 C2327 1.433 . S
C2329 N2332 1.384 . S
C2330 H2321 0.929 . S
C2330 C2322 1.378 . S
C2330 C2325 1.350 . S
C2331 H2318 0.929 . S
C2331 C2323 1.433 . S
C2331 N2333 1.384 . S
N2332 C2328 1.427 . S
N2332 C2329 1.384 . S
N2333 C2325 1.427 . S
N2333 C2331 1.384 . S
H2334 C2340 0.930 . S
H2335 C2344 0.930 . S
H2336 C2349 0.929 . S
H2337 C2347 0.929 . S
H2338 C2342 0.929 1_545 S
H2339 C2348 0.914 1_565 S
C2340 H2334 0.930 . S
C2340 C2341 1.367 . S
C2340 C2348 1.389 . S
C2341 C2340 1.367 . S
C2341 C2349 1.433 . S
C2342 H2338 0.929 1_565 S
C2342 C2344 1.378 . S
C2342 C2346 1.350 . S
C2343 C2346 1.463 1_545 S
C2343 C2348 1.354 . S
C2343 N2351 1.427 . S
C2344 H2335 0.930 . S
C2344 C2342 1.378 . S
C2344 C2345 1.367 . S
C2345 C2344 1.367 . S
C2345 C2347 1.433 . S
C2346 C2342 1.350 . S
C2346 C2343 1.463 1_565 S
C2346 N2350 1.427 . S
C2347 H2337 0.929 . S
C2347 C2345 1.433 . S
C2347 N2350 1.384 . S
C2348 H2339 0.914 1_545 S
C2348 C2340 1.389 . S
C2348 C2343 1.354 . S
C2349 H2336 0.929 . S
C2349 C2341 1.433 . S
C2349 N2351 1.384 . S
N2350 C2346 1.427 . S
N2350 C2347 1.384 . S
N2351 C2343 1.427 . S
N2351 C2349 1.384 . S
H2352 C2358 0.930 . S
H2353 C2362 0.930 . S
H2354 C2367 0.929 . S
H2355 C2365 0.929 . S
H2356 C2360 0.929 1_554 S
H2357 C2366 0.929 . S
C2358 H2352 0.930 . S
C2358 C2359 1.367 . S
C2358 C2366 1.378 . S
C2359 C2358 1.367 . S
C2359 C2367 1.433 . S
C2360 H2356 0.929 1_556 S
C2360 C2362 1.378 . S
C2360 C2364 1.350 . S
C2361 C2364 1.463 1_554 S
C2361 C2366 1.350 . S
C2361 N2369 1.427 . S
C2362 H2353 0.930 . S
C2362 C2360 1.378 . S
C2362 C2363 1.367 . S
C2363 C2362 1.367 . S
C2363 C2365 1.433 . S
C2364 C2360 1.350 . S
C2364 C2361 1.463 1_556 S
C2364 N2368 1.427 . S
C2365 H2355 0.929 . S
C2365 C2363 1.433 . S
C2365 N2368 1.384 . S
C2366 H2357 0.929 . S
C2366 C2358 1.378 . S
C2366 C2361 1.350 . S
C2367 H2354 0.929 . S
C2367 C2359 1.433 . S
C2367 N2369 1.384 . S
N2368 C2364 1.427 . S
N2368 C2365 1.384 . S
N2369 C2361 1.427 . S
N2369 C2367 1.384 . S
H2370 C2376 0.930 . S
H2371 C2380 0.930 . S
H2372 C2385 0.929 . S
H2373 C2383 0.929 . S
H2374 C2378 0.929 . S
H2375 C2384 0.929 . S
C2376 H2370 0.930 . S
C2376 C2377 1.367 . S
C2376 C2384 1.378 . S
C2377 C2376 1.367 . S
C2377 C2385 1.433 . S
C2378 H2374 0.929 . S
C2378 C2380 1.378 . S
C2378 C2382 1.366 . S
C2379 C2382 1.448 1_565 S
C2379 C2384 1.350 . S
C2379 N2387 1.427 . S
C2380 H2371 0.930 . S
C2380 C2378 1.378 . S
C2380 C2381 1.367 . S
C2381 C2380 1.367 . S
C2381 C2383 1.433 . S
C2382 C2378 1.366 . S
C2382 C2379 1.448 1_545 S
C2382 N2386 1.425 1_545 S
C2383 H2373 0.929 . S
C2383 C2381 1.433 . S
C2383 N2386 1.384 1_545 S
C2384 H2375 0.929 . S
C2384 C2376 1.378 . S
C2384 C2379 1.350 . S
C2385 H2372 0.929 . S
C2385 C2377 1.433 . S
C2385 N2387 1.384 . S
N2386 C2382 1.425 1_565 S
N2386 C2383 1.384 1_565 S
N2387 C2379 1.427 . S
N2387 C2385 1.384 . S
H2388 C2394 0.930 . S
H2389 C2398 0.930 . S
H2390 C2403 0.929 . S
H2391 C2401 0.929 . S
H2392 C2396 0.929 . S
H2393 C2402 0.929 . S
C2394 H2388 0.930 . S
C2394 C2395 1.367 . S
C2394 C2402 1.378 . S
C2395 C2394 1.367 . S
C2395 C2403 1.433 . S
C2396 H2392 0.929 . S
C2396 C2398 1.378 . S
C2396 C2400 1.350 . S
C2397 C2400 1.463 . S
C2397 C2402 1.350 . S
C2397 N2405 1.427 . S
C2398 H2389 0.930 . S
C2398 C2396 1.378 . S
C2398 C2399 1.367 . S
C2399 C2398 1.367 . S
C2399 C2401 1.433 . S
C2400 C2396 1.350 . S
C2400 C2397 1.463 . S
C2400 N2404 1.427 . S
C2401 H2391 0.929 . S
C2401 C2399 1.433 . S
C2401 N2404 1.384 . S
C2402 H2393 0.929 . S
C2402 C2394 1.378 . S
C2402 C2397 1.350 . S
C2403 H2390 0.929 . S
C2403 C2395 1.433 . S
C2403 N2405 1.384 . S
N2404 C2400 1.427 . S
N2404 C2401 1.384 . S
N2405 C2397 1.427 . S
N2405 C2403 1.384 . S
H2406 C2412 0.930 . S
H2407 C2416 0.930 . S
H2408 C2421 0.929 . S
H2409 C2419 0.929 . S
H2410 C2414 0.929 . S
H2411 C2420 0.929 . S
C2412 H2406 0.930 . S
C2412 C2413 1.367 . S
C2412 C2420 1.378 . S
C2413 C2412 1.367 . S
C2413 C2421 1.433 . S
C2414 H2410 0.929 . S
C2414 C2416 1.378 . S
C2414 C2418 1.350 . S
C2415 C2418 1.463 1_554 S
C2415 C2420 1.350 . S
C2415 N2423 1.427 . S
C2416 H2407 0.930 . S
C2416 C2414 1.378 . S
C2416 C2417 1.367 . S
C2417 C2416 1.367 . S
C2417 C2419 1.433 . S
C2418 C2414 1.350 . S
C2418 C2415 1.463 1_556 S
C2418 N2422 1.427 . S
C2419 H2409 0.929 . S
C2419 C2417 1.433 . S
C2419 N2422 1.384 . S
C2420 H2411 0.929 . S
C2420 C2412 1.378 . S
C2420 C2415 1.350 . S
C2421 H2408 0.929 . S
C2421 C2413 1.433 . S
C2421 N2423 1.384 . S
N2422 C2418 1.427 . S
N2422 C2419 1.384 . S
N2423 C2415 1.427 . S
N2423 C2421 1.384 . S
H2424 C2430 0.930 . S
H2425 C2434 0.930 . S
H2426 C2439 0.929 . S
H2427 C2437 0.929 . S
H2428 C2432 0.929 . S
H2429 C2438 0.929 . S
C2430 H2424 0.930 . S
C2430 C2431 1.367 . S
C2430 C2438 1.378 . S
C2431 C2430 1.367 . S
C2431 C2439 1.433 . S
C2432 H2428 0.929 . S
C2432 C2434 1.378 . S
C2432 C2436 1.350 . S
C2433 C2436 1.463 . S
C2433 C2438 1.350 . S
C2433 N2441 1.427 . S
C2434 H2425 0.930 . S
C2434 C2432 1.378 . S
C2434 C2435 1.367 . S
C2435 C2434 1.367 . S
C2435 C2437 1.433 . S
C2436 C2432 1.350 . S
C2436 C2433 1.463 . S
C2436 N2440 1.427 . S
C2437 H2427 0.929 . S
C2437 C2435 1.433 . S
C2437 N2440 1.384 . S
C2438 H2429 0.929 . S
C2438 C2430 1.378 . S
C2438 C2433 1.350 . S
C2439 H2426 0.929 . S
C2439 C2431 1.433 . S
C2439 N2441 1.384 . S
N2440 C2436 1.427 . S
N2440 C2437 1.384 . S
N2441 C2433 1.427 . S
N2441 C2439 1.384 . S
H2442 C2448 0.930 . S
H2443 C2452 0.930 . S
H2444 C2457 0.929 . S
H2445 C2455 0.929 . S
H2446 C2450 0.929 . S
H2447 C2456 0.929 . S
C2448 H2442 0.930 . S
C2448 C2449 1.367 . S
C2448 C2456 1.378 . S
C2449 C2448 1.367 . S
C2449 C2457 1.433 . S
C2450 H2446 0.929 . S
C2450 C2452 1.378 . S
C2450 C2454 1.350 . S
C2451 C2454 1.463 . S
C2451 C2456 1.350 . S
C2451 N2459 1.427 . S
C2452 H2443 0.930 . S
C2452 C2450 1.378 . S
C2452 C2453 1.367 . S
C2453 C2452 1.367 . S
C2453 C2455 1.433 . S
C2454 C2450 1.350 . S
C2454 C2451 1.463 . S
C2454 N2458 1.427 . S
C2455 H2445 0.929 . S
C2455 C2453 1.433 . S
C2455 N2458 1.384 . S
C2456 H2447 0.929 . S
C2456 C2448 1.378 . S
C2456 C2451 1.350 . S
C2457 H2444 0.929 . S
C2457 C2449 1.433 . S
C2457 N2459 1.384 . S
N2458 C2454 1.427 . S
N2458 C2455 1.384 . S
N2459 C2451 1.427 . S
N2459 C2457 1.384 . S
H2460 C2466 0.930 . S
H2461 C2470 0.930 . S
H2462 C2475 0.929 . S
H2463 C2473 0.929 . S
H2464 C2468 0.929 . S
H2465 C2474 0.929 . S
C2466 H2460 0.930 . S
C2466 C2467 1.367 . S
C2466 C2474 1.378 . S
C2467 C2466 1.367 . S
C2467 C2475 1.433 . S
C2468 H2464 0.929 . S
C2468 C2470 1.378 . S
C2468 C2472 1.350 . S
C2469 C2472 1.463 . S
C2469 C2474 1.350 . S
C2469 N2477 1.427 . S
C2470 H2461 0.930 . S
C2470 C2468 1.378 . S
C2470 C2471 1.367 . S
C2471 C2470 1.367 . S
C2471 C2473 1.433 . S
C2472 C2468 1.350 . S
C2472 C2469 1.463 . S
C2472 N2476 1.427 . S
C2473 H2463 0.929 . S
C2473 C2471 1.433 . S
C2473 N2476 1.384 . S
C2474 H2465 0.929 . S
C2474 C2466 1.378 . S
C2474 C2469 1.350 . S
C2475 H2462 0.929 . S
C2475 C2467 1.433 . S
C2475 N2477 1.384 . S
N2476 C2472 1.427 . S
N2476 C2473 1.384 . S
N2477 C2469 1.427 . S
N2477 C2475 1.384 . S
H2478 C2484 0.930 . S
H2479 C2488 0.930 . S
H2480 C2493 0.929 . S
H2481 C2491 0.929 . S
H2482 C2486 0.929 . S
H2483 C2492 0.929 . S
C2484 H2478 0.930 . S
C2484 C2485 1.367 . S
C2484 C2492 1.378 . S
C2485 C2484 1.367 . S
C2485 C2493 1.433 . S
C2486 H2482 0.929 . S
C2486 C2488 1.378 . S
C2486 C2490 1.350 . S
C2487 C2490 1.463 . S
C2487 C2492 1.350 . S
C2487 N2495 1.427 . S
C2488 H2479 0.930 . S
C2488 C2486 1.378 . S
C2488 C2489 1.367 . S
C2489 C2488 1.367 . S
C2489 C2491 1.433 . S
C2490 C2486 1.350 . S
C2490 C2487 1.463 . S
C2490 N2494 1.427 . S
C2491 H2481 0.929 . S
C2491 C2489 1.433 . S
C2491 N2494 1.384 . S
C2492 H2483 0.929 . S
C2492 C2484 1.378 . S
C2492 C2487 1.350 . S
C2493 H2480 0.929 . S
C2493 C2485 1.433 . S
C2493 N2495 1.384 . S
N2494 C2490 1.427 . S
N2494 C2491 1.384 . S
N2495 C2487 1.427 . S
N2495 C2493 1.384 . S
C775 C21 1.078 . S
C779 C274 1.091 . S
C793 C49 1.451 . S
C797 C310 1.601 . S
C811 C342 1.296 . S
C815 C85 1.270 . S
C829 C370 1.044 . S
C833 C117 1.027 . S
C847 C149 1.066 . S
C851 C374 1.090 . S
C865 C181 1.214 . S
C869 C278 1.214 . S
C883 C209 1.314 . S
C887 C306 1.463 . S
C901 C338 1.092 . S
C905 C245 1.089 . S
C919 C402 1.108 . S
C923 C277 1.118 . S
C937 C305 1.511 . S
C941 C534 1.694 . S
C955 C337 1.625 . S
C959 C470 1.789 . S
C973 C502 1.293 . S
C977 C373 1.280 . S
C991 C369 1.669 . S
C995 C630 1.852 . S
C1009 C566 1.595 . S
C1013 C273 1.439 . S
C1027 C309 1.102 . S
C1031 C598 1.100 . S
C1045 C434 1.280 . S
C1049 C341 1.294 . S
C1063 C405 1.336 . S
C1067 C18 1.322 . S
C1081 C241 1.517 . S
C1085 C562 1.641 . S
C1099 C594 1.529 . S
C1103 C145 1.387 . S
C1117 C438 1.939 . S
C1121 C177 1.755 . S
C1135 C242 1.219 . S
C1139 C437 1.213 . S
C1153 C82 1.537 . S
C1157 C465 1.400 . S
C1171 C466 1.596 . S
C1175 C17 1.437 . S
C1189 C406 1.908 . S
C1193 C81 1.728 . S
C1207 C501 1.049 . S
C1211 C658 1.057 . S
C1225 C401 1.448 . S
C1229 C694 1.596 . S
C1243 C726 1.297 . S
C1247 C533 1.293 . S
C1261 C469 1.048 . S
C1265 C758 1.070 . S
C1279 C754 1.047 . S
C1283 C565 1.028 . S
C1297 C662 1.217 . S
C1301 C597 1.208 . S
C1315 C433 1.347 . S
C1319 C690 1.472 . S
C1333 C722 1.131 . S
C1337 C629 1.114 . S
C1351 C50 1.144 . S
C1355 C661 1.144 . S
C1369 C689 1.518 . S
C1373 C86 1.678 . S
C1387 C118 1.645 . S
C1391 C721 1.482 . S
C1405 C22 1.857 . S
C1409 C753 1.666 . S
C1423 C757 1.281 . S
C1427 C246 1.289 . S
C1441 C657 1.583 . S
C1445 C150 1.732 . S
C1459 C693 1.081 . S
C1463 C182 1.105 . S
C1477 C725 1.262 . S
C1481 C210 1.261 . S
C1495 C53 1.290 . S
C1499 C498 1.277 . S
C1513 C146 1.595 . S
C1517 C625 1.430 . S
C1531 C561 1.465 . S
C1535 C178 1.621 . S
C1549 C214 1.949 . S
C1553 C593 1.767 . S
C1567 C213 1.258 . S
C1571 C626 1.268 . S
C1585 C113 1.473 . S
C1589 C530 1.628 . S
C1603 C497 1.522 . S
C1607 C114 1.645 . S
C1621 C529 1.716 . S
C1625 C54 1.894 . S
C1639 C16 1.814 . S
C1643 C311 1.760 . S
C1657 C343 2.070 . S
C1661 C55 2.067 . S
C1675 C368 1.547 . S
C1679 C80 1.542 . S
C1693 C272 1.569 . S
C1697 C112 1.570 . S
C1711 C336 1.606 . S
C1715 C144 1.601 . S
C1729 C375 1.709 . S
C1733 C176 1.755 . S
C1747 C279 1.953 . S
C1751 C215 1.949 . S
C1765 C240 1.562 . S
C1769 C304 1.566 . S
C1783 C151 1.688 . S
C1787 C400 1.744 . S
C1801 C247 2.048 . S
C1805 C503 2.048 . S
C1819 C535 1.997 . S
C1823 C183 1.998 . S
C1837 C432 1.910 . S
C1841 C119 1.858 . S
C1855 C208 1.832 . S
C1859 C471 1.774 . S
C1873 C23 2.040 . S
C1877 C631 2.041 . S
C1891 C599 1.885 . S
C1895 C87 1.885 . S
C1909 C695 1.721 . S
C1913 C496 1.767 . S
C1927 C727 1.948 . S
C1931 C407 1.945 . S
C1945 C528 1.790 . S
C1949 C759 1.742 . S
C1963 C656 1.566 . S
C1967 C464 1.565 . S
C1981 C720 1.611 . S
C1985 C560 1.603 . S
C1999 C752 1.511 . S
C2003 C592 1.509 . S
C2017 C439 2.068 . S
C2021 C663 2.072 . S
C2035 C688 1.618 . S
C2039 C624 1.611 . S
C2053 C48 1.821 . S
C2057 C567 1.772 . S
C2071 C148 1.609 . S
C2075 C20 1.610 . S
C2089 C180 1.919 . S
C2093 C51 1.831 . S
C2107 C211 1.733 . S
C2111 C84 1.808 . S
C2125 C244 1.603 . S
C2129 C116 1.603 . S
C2143 C308 1.748 . S
C2147 C276 1.750 . S
C2161 C340 1.949 . S
C2165 C307 1.870 . S
C2179 C339 2.126 . S
C2183 C371 2.148 . S
C2197 C275 1.867 . S
C2201 C372 1.949 . S
C2215 C404 1.924 . S
C2219 C115 1.848 . S
C2233 C243 2.127 . S
C2237 C595 2.141 . S
C2251 C436 1.877 . S
C2255 C147 1.813 . S
C2269 C179 2.095 . S
C2273 C627 2.071 . S
C2287 C52 1.983 . S
C2291 C467 1.907 . S
C2305 C19 1.992 . S
C2309 C531 1.996 . S
C2323 C83 2.042 . S
C2327 C499 2.052 . S
C2341 C564 1.668 . S
C2345 C500 1.670 . S
C2359 C403 1.726 . S
C2363 C596 1.799 . S
C2377 C435 1.850 . S
C2381 C532 1.927 . S
C2395 C468 1.543 . S
C2399 C628 1.544 . S
C2413 C692 1.765 . S
C2417 C660 1.764 . S
C2431 C724 1.931 . S
C2435 C691 1.851 . S
C2449 C756 1.964 . S
C2453 C723 1.875 . S
C2467 C755 2.130 . S
C2471 C659 2.119 . S
C2485 C212 1.816 . S
C2489 C563 1.745 . S
