# Generated by pormake.
# Topology zga, (5)-cn, num edge types: 1
# Building blocks:
#     Node 0, Type 0, BuildingBlock: BEQFEK_clean_sbu_0, # of connection points: 5
#     Node 1, Type 0, BuildingBlock: BEQFEK_clean_sbu_0, # of connection points: 5
#     Node 2, Type 0, BuildingBlock: BEQFEK_clean_sbu_0, # of connection points: 5
#     Node 3, Type 0, BuildingBlock: BEQFEK_clean_sbu_0, # of connection points: 5
#     Node 4, Type 0, BuildingBlock: BEQFEK_clean_sbu_0, # of connection points: 5
#     Node 5, Type 0, BuildingBlock: BEQFEK_clean_sbu_0, # of connection points: 5
#     Node 6, Type 0, BuildingBlock: BEQFEK_clean_sbu_0, # of connection points: 5
#     Node 7, Type 0, BuildingBlock: BEQFEK_clean_sbu_0, # of connection points: 5
#     Node 8, Type 0, BuildingBlock: BEQFEK_clean_sbu_0, # of connection points: 5
#     Node 9, Type 0, BuildingBlock: BEQFEK_clean_sbu_0, # of connection points: 5
#     Node 10, Type 0, BuildingBlock: BEQFEK_clean_sbu_0, # of connection points: 5
#     Node 11, Type 0, BuildingBlock: BEQFEK_clean_sbu_0, # of connection points: 5
#     Node 12, Type 0, BuildingBlock: BEQFEK_clean_sbu_0, # of connection points: 5
#     Node 13, Type 0, BuildingBlock: BEQFEK_clean_sbu_0, # of connection points: 5
#     Node 14, Type 0, BuildingBlock: BEQFEK_clean_sbu_0, # of connection points: 5
#     Node 15, Type 0, BuildingBlock: BEQFEK_clean_sbu_0, # of connection points: 5
#     Edge 16, Type (0, 0), BuildingBlock: MIFKUJ_clean_linker_0, # of connection points: 2
#     Edge 17, Type (0, 0), BuildingBlock: MIFKUJ_clean_linker_0, # of connection points: 2
#     Edge 18, Type (0, 0), BuildingBlock: MIFKUJ_clean_linker_0, # of connection points: 2
#     Edge 19, Type (0, 0), BuildingBlock: MIFKUJ_clean_linker_0, # of connection points: 2
#     Edge 20, Type (0, 0), BuildingBlock: MIFKUJ_clean_linker_0, # of connection points: 2
#     Edge 21, Type (0, 0), BuildingBlock: MIFKUJ_clean_linker_0, # of connection points: 2
#     Edge 22, Type (0, 0), BuildingBlock: MIFKUJ_clean_linker_0, # of connection points: 2
#     Edge 23, Type (0, 0), BuildingBlock: MIFKUJ_clean_linker_0, # of connection points: 2
#     Edge 24, Type (0, 0), BuildingBlock: MIFKUJ_clean_linker_0, # of connection points: 2
#     Edge 25, Type (0, 0), BuildingBlock: MIFKUJ_clean_linker_0, # of connection points: 2
#     Edge 26, Type (0, 0), BuildingBlock: MIFKUJ_clean_linker_0, # of connection points: 2
#     Edge 27, Type (0, 0), BuildingBlock: MIFKUJ_clean_linker_0, # of connection points: 2
#     Edge 28, Type (0, 0), BuildingBlock: MIFKUJ_clean_linker_0, # of connection points: 2
#     Edge 29, Type (0, 0), BuildingBlock: MIFKUJ_clean_linker_0, # of connection points: 2
#     Edge 30, Type (0, 0), BuildingBlock: MIFKUJ_clean_linker_0, # of connection points: 2
#     Edge 31, Type (0, 0), BuildingBlock: MIFKUJ_clean_linker_0, # of connection points: 2
#     Edge 32, Type (0, 0), BuildingBlock: MIFKUJ_clean_linker_0, # of connection points: 2
#     Edge 33, Type (0, 0), BuildingBlock: MIFKUJ_clean_linker_0, # of connection points: 2
#     Edge 34, Type (0, 0), BuildingBlock: MIFKUJ_clean_linker_0, # of connection points: 2
#     Edge 35, Type (0, 0), BuildingBlock: MIFKUJ_clean_linker_0, # of connection points: 2
#     Edge 36, Type (0, 0), BuildingBlock: MIFKUJ_clean_linker_0, # of connection points: 2
#     Edge 37, Type (0, 0), BuildingBlock: MIFKUJ_clean_linker_0, # of connection points: 2
#     Edge 38, Type (0, 0), BuildingBlock: MIFKUJ_clean_linker_0, # of connection points: 2
#     Edge 39, Type (0, 0), BuildingBlock: MIFKUJ_clean_linker_0, # of connection points: 2
#     Edge 40, Type (0, 0), BuildingBlock: MIFKUJ_clean_linker_0, # of connection points: 2
#     Edge 41, Type (0, 0), BuildingBlock: MIFKUJ_clean_linker_0, # of connection points: 2
#     Edge 42, Type (0, 0), BuildingBlock: MIFKUJ_clean_linker_0, # of connection points: 2
#     Edge 43, Type (0, 0), BuildingBlock: MIFKUJ_clean_linker_0, # of connection points: 2
#     Edge 44, Type (0, 0), BuildingBlock: MIFKUJ_clean_linker_0, # of connection points: 2
#     Edge 45, Type (0, 0), BuildingBlock: MIFKUJ_clean_linker_0, # of connection points: 2
#     Edge 46, Type (0, 0), BuildingBlock: MIFKUJ_clean_linker_0, # of connection points: 2
#     Edge 47, Type (0, 0), BuildingBlock: MIFKUJ_clean_linker_0, # of connection points: 2
#     Edge 48, Type (0, 0), BuildingBlock: MIFKUJ_clean_linker_0, # of connection points: 2
#     Edge 49, Type (0, 0), BuildingBlock: MIFKUJ_clean_linker_0, # of connection points: 2
#     Edge 50, Type (0, 0), BuildingBlock: MIFKUJ_clean_linker_0, # of connection points: 2
#     Edge 51, Type (0, 0), BuildingBlock: MIFKUJ_clean_linker_0, # of connection points: 2
#     Edge 52, Type (0, 0), BuildingBlock: MIFKUJ_clean_linker_0, # of connection points: 2
#     Edge 53, Type (0, 0), BuildingBlock: MIFKUJ_clean_linker_0, # of connection points: 2
#     Edge 54, Type (0, 0), BuildingBlock: MIFKUJ_clean_linker_0, # of connection points: 2
#     Edge 55, Type (0, 0), BuildingBlock: MIFKUJ_clean_linker_0, # of connection points: 2
# Relax obj value: 0.155
# Max RMSD: 0.221
# Mean RMSD: 0.176
data_MOF--net-zga--node1-BEQFEK_clean_sbu_0--edge1-MIFKUJ_clean_linker_0
_symmetry_space_group_name_H-M    P1
_symmetry_Int_Tables_number       1
_symmetry_cell_setting            triclinic
loop_
_symmetry_equiv_pos_as_xyz
'x, y, z'
_cell_length_a     67.985749
_cell_length_b     115.58509
_cell_length_c     23.324072
_cell_angle_alpha  91.187679
_cell_angle_beta   90.098558
_cell_angle_gamma 101.05371
loop_
_atom_site_label
_atom_site_type_symbol
_atom_site_fract_x
_atom_site_fract_y
_atom_site_fract_z
_atom_type_partial_charge
Co0 Co 0.0854 0.54017 0.0944 0.0
Co1 Co 0.06954 0.53863 0.22027 0.0
C2 C 0.08045 0.56171 0.16162 0.0
O3 O 0.08486 0.55661 0.11595 0.0
O4 O 0.07466 0.55592 0.20639 0.0
C5 C 0.10561 0.54881 0.99086 0.0
O6 O 0.10812 0.55917 0.01702 0.0
C7 C 0.07316 0.54175 0.34444 0.0
C8 C 0.04926 0.52746 0.37462 0.0
C9 C 0.06484 0.53629 0.39351 0.0
N10 N 0.06307 0.53632 0.29879 0.0
N11 N 0.04859 0.52792 0.31708 0.0
C12 C 0.09166 0.55108 0.34007 0.0
H13 H 0.09826 0.5509 0.29664 0.0
H14 H 0.10287 0.54985 0.37292 0.0
H15 H 0.08765 0.55985 0.34761 0.0
C16 C 0.11572 0.52811 0.14478 0.0
N17 N 0.09947 0.53313 0.14923 0.0
N18 N 0.09244 0.53196 0.20176 0.0
C19 C 0.1038 0.52587 0.23214 0.0
C20 C 0.11902 0.52333 0.19721 0.0
C21 C 0.12806 0.52827 0.09163 0.0
H22 H 0.13023 0.53712 0.07248 0.0
H23 H 0.14292 0.52607 0.10072 0.0
H24 H 0.11992 0.52179 0.05989 0.0
O25 O 0.05762 0.53139 0.08635 0.0
O26 O 0.0459 0.53063 0.1751 0.0
H27 H 0.10616 0.51386 0.30069 0.0
H28 H 0.10491 0.52869 0.32305 0.0
C29 C 0.09912 0.52153 0.29156 0.0
H30 H 0.08271 0.51885 0.29691 0.0
H31 H 0.03878 0.52219 0.29017 0.0
O32 O 0.09726 0.53968 0.01732 0.0
C33 C 0.04345 0.52831 0.12168 0.0
Co34 Co 0.13557 0.71062 0.19078 0.0
Co35 Co 0.11981 0.70965 0.0638 0.0
C36 C 0.1162 0.68788 0.13389 0.0
O37 O 0.12419 0.69379 0.17732 0.0
O38 O 0.11377 0.69288 0.08696 0.0
C39 C 0.15325 0.70366 0.29293 0.0
O40 O 0.15328 0.69389 0.26312 0.0
C41 C 0.12261 0.70433 0.94081 0.0
C42 C 0.10451 0.7162 0.90274 0.0
C43 C 0.11661 0.70819 0.88878 0.0
N44 N 0.11481 0.71002 0.98338 0.0
N45 N 0.10379 0.71699 0.96033 0.0
C46 C 0.135 0.69511 0.95026 0.0
H47 H 0.13077 0.69052 0.9909 0.0
H48 H 0.15106 0.69932 0.95351 0.0
H49 H 0.13309 0.6886 0.91408 0.0
C50 C 0.17372 0.72106 0.1337 0.0
N51 N 0.15403 0.71628 0.13252 0.0
N52 N 0.14706 0.71674 0.08007 0.0
C53 C 0.16194 0.72235 0.04679 0.0
C54 C 0.17942 0.72504 0.07924 0.0
C55 C 0.18676 0.72143 0.18569 0.0
H56 H 0.18456 0.72888 0.21421 0.0
H57 H 0.1824 0.71316 0.20962 0.0
H58 H 0.20283 0.72258 0.17405 0.0
O59 O 0.11385 0.71988 0.1929 0.0
O60 O 0.10163 0.71851 0.10406 0.0
H61 H 0.14367 0.72845 0.98291 0.0
H62 H 0.16995 0.73481 0.97909 0.0
C63 C 0.15898 0.72661 0.98772 0.0
H64 H 0.16127 0.71985 0.95541 0.0
H65 H 0.09622 0.72252 0.9839 0.0
O66 O 0.14765 0.71226 0.26879 0.0
C67 C 0.1014 0.72215 0.1559 0.0
Co68 Co 0.81708 0.44799 0.93573 0.0
Co69 Co 0.82945 0.45302 0.80833 0.0
C70 C 0.82893 0.42942 0.85924 0.0
O71 O 0.82324 0.43281 0.90765 0.0
O72 O 0.83165 0.43631 0.81693 0.0
C73 C 0.80133 0.43616 0.03827 0.0
O74 O 0.80225 0.42642 0.00925 0.0
C75 C 0.82574 0.44967 0.68481 0.0
C76 C 0.84183 0.46672 0.65258 0.0
C77 C 0.83096 0.45582 0.63492 0.0
N78 N 0.83315 0.45662 0.72965 0.0
N79 N 0.84293 0.46675 0.71022 0.0
C80 C 0.81216 0.43792 0.69079 0.0
H81 H 0.80502 0.43727 0.73365 0.0
H82 H 0.80038 0.43652 0.657 0.0
H83 H 0.8211 0.43087 0.6864 0.0
C84 C 0.78163 0.45721 0.89787 0.0
N85 N 0.79903 0.45367 0.88704 0.0
N86 N 0.80419 0.4559 0.83348 0.0
C87 C 0.79017 0.46094 0.80836 0.0
C88 C 0.77544 0.46196 0.84835 0.0
C89 C 0.77249 0.45718 0.95622 0.0
H90 H 0.78388 0.46181 0.98722 0.0
H91 H 0.76792 0.44794 0.97024 0.0
H92 H 0.75932 0.46155 0.95693 0.0
O93 O 0.84237 0.45963 0.94232 0.0
O94 O 0.85155 0.46314 0.85208 0.0
H95 H 0.8048 0.47151 0.74085 0.0
H96 H 0.77772 0.4685 0.73524 0.0
C97 C 0.79099 0.46482 0.7474 0.0
H98 H 0.79152 0.45715 0.71863 0.0
H99 H 0.84996 0.47378 0.73635 0.0
O100 O 0.80632 0.44604 0.01419 0.0
C101 C 0.85464 0.46486 0.90574 0.0
Co102 Co 0.91072 0.30173 0.90677 0.0
Co103 Co 0.8945 0.29615 0.78158 0.0
C104 C 0.89959 0.32049 0.83553 0.0
O105 O 0.9067 0.31732 0.8819 0.0
O106 O 0.89442 0.31319 0.79404 0.0
C107 C 0.92644 0.31229 0.01504 0.0
O108 O 0.92365 0.32227 0.99348 0.0
C109 C 0.89692 0.29851 0.65776 0.0
C110 C 0.87677 0.28229 0.62632 0.0
C111 C 0.88972 0.29229 0.60805 0.0
N112 N 0.88867 0.29243 0.70297 0.0
N113 N 0.87645 0.28282 0.684 0.0
C114 C 0.91291 0.30937 0.66321 0.0
H115 H 0.92011 0.30992 0.70618 0.0
H116 H 0.92442 0.30939 0.62951 0.0
H117 H 0.90603 0.31725 0.65821 0.0
C118 C 0.94345 0.29073 0.86119 0.0
N119 N 0.92637 0.29484 0.85422 0.0
N120 N 0.91943 0.29221 0.8019 0.0
C121 C 0.93176 0.28617 0.77411 0.0
C122 C 0.94737 0.28507 0.81071 0.0
C123 C 0.95458 0.29128 0.91687 0.0
H124 H 0.94467 0.28629 0.94937 0.0
H125 H 0.95854 0.30059 0.93231 0.0
H126 H 0.96838 0.28754 0.91272 0.0
O127 O 0.88408 0.29147 0.91578 0.0
O128 O 0.87278 0.28694 0.82724 0.0
H129 H 0.91301 0.27598 0.71006 0.0
H130 H 0.93938 0.27574 0.70179 0.0
C131 C 0.92839 0.28128 0.71418 0.0
H132 H 0.92991 0.28865 0.68396 0.0
H133 H 0.86833 0.27646 0.71045 0.0
O134 O 0.9228 0.30293 0.98422 0.0
C135 C 0.87067 0.28614 0.88131 0.0
Co136 Co 0.08435 0.03863 0.59493 0.0
Co137 Co 0.06962 0.03925 0.72221 0.0
C138 C 0.08383 0.06136 0.65627 0.0
O139 O 0.08802 0.05564 0.61223 0.0
O140 O 0.07637 0.05612 0.70098 0.0
C141 C 0.10788 0.04382 0.49224 0.0
O142 O 0.11747 0.05302 0.52154 0.0
C143 C 0.07442 0.04469 0.84594 0.0
C144 C 0.05247 0.0301 0.88207 0.0
C145 C 0.06749 0.03957 0.89734 0.0
N146 N 0.06441 0.03827 0.80254 0.0
N147 N 0.05104 0.02972 0.82451 0.0
C148 C 0.09002 0.05559 0.83774 0.0
H149 H 0.08523 0.06096 0.80356 0.0
H150 H 0.10428 0.05307 0.82418 0.0
H151 H 0.09254 0.06107 0.87765 0.0
C152 C 0.11228 0.0251 0.64661 0.0
N153 N 0.09728 0.03115 0.65049 0.0
N154 N 0.09097 0.03114 0.70386 0.0
C155 C 0.1017 0.02488 0.73555 0.0
C156 C 0.11553 0.02089 0.7003 0.0
C157 C 0.12271 0.02306 0.59196 0.0
H158 H 0.11142 0.01946 0.55857 0.0
H159 H 0.13121 0.03161 0.57685 0.0
H160 H 0.13313 0.01686 0.5976 0.0
O161 O 0.05559 0.03145 0.59183 0.0
O162 O 0.04472 0.03167 0.68144 0.0
H163 H 0.08344 0.0192 0.80813 0.0
H164 H 0.10902 0.01722 0.81528 0.0
C165 C 0.09927 0.02307 0.79871 0.0
H166 H 0.10329 0.03168 0.82159 0.0
H167 H 0.04151 0.02331 0.80011 0.0
O168 O 0.09431 0.03649 0.51669 0.0
C169 C 0.04159 0.02915 0.6284 0.0
Co170 Co 0.13634 0.21101 0.68982 0.0
Co171 Co 0.12173 0.20956 0.56172 0.0
C172 C 0.12046 0.1879 0.62981 0.0
O173 O 0.12805 0.19395 0.67338 0.0
O174 O 0.11686 0.19277 0.58351 0.0
C175 C 0.15571 0.20496 0.79146 0.0
O176 O 0.1581 0.19568 0.76071 0.0
C177 C 0.12114 0.20337 0.43869 0.0
C178 C 0.10968 0.21824 0.40151 0.0
C179 C 0.11704 0.2082 0.38702 0.0
N180 N 0.11685 0.21042 0.48159 0.0
N181 N 0.10968 0.21917 0.45909 0.0
C182 C 0.12835 0.19208 0.44787 0.0
H183 H 0.14234 0.19382 0.47377 0.0
H184 H 0.1308 0.18756 0.40685 0.0
H185 H 0.11697 0.18609 0.47286 0.0
C186 C 0.17368 0.22369 0.63726 0.0
N187 N 0.15454 0.21792 0.63372 0.0
N188 N 0.14863 0.21723 0.57975 0.0
C189 C 0.16395 0.22254 0.54708 0.0
C190 C 0.18032 0.22682 0.58247 0.0
C191 C 0.18502 0.22648 0.69246 0.0
H192 H 0.17523 0.22951 0.72524 0.0
H193 H 0.18945 0.21834 0.70813 0.0
H194 H 0.19864 0.23338 0.6871 0.0
O195 O 0.11284 0.21874 0.69185 0.0
O196 O 0.10241 0.21777 0.60143 0.0
H197 H 0.15146 0.22763 0.46935 0.0
H198 H 0.17777 0.22704 0.46419 0.0
C199 C 0.16328 0.22284 0.48292 0.0
H200 H 0.15953 0.21372 0.46545 0.0
H201 H 0.10541 0.226 0.48304 0.0
O202 O 0.14789 0.21287 0.76827 0.0
C203 C 0.10074 0.22088 0.6536 0.0
Co204 Co 0.81525 0.94755 0.4397 0.0
Co205 Co 0.8297 0.95342 0.31432 0.0
C206 C 0.82798 0.92937 0.3644 0.0
O207 O 0.8207 0.93228 0.41154 0.0
O208 O 0.83218 0.9367 0.32418 0.0
C209 C 0.79958 0.93612 0.54351 0.0
O210 O 0.80109 0.9263 0.51603 0.0
C211 C 0.82658 0.94996 0.19072 0.0
C212 C 0.8437 0.96675 0.15846 0.0
C213 C 0.8323 0.95599 0.14073 0.0
N214 N 0.83417 0.95685 0.23559 0.0
N215 N 0.8446 0.96682 0.21615 0.0
C216 C 0.81239 0.93844 0.19679 0.0
H217 H 0.80528 0.93794 0.2397 0.0
H218 H 0.8006 0.93727 0.16305 0.0
H219 H 0.82082 0.93115 0.19242 0.0
C220 C 0.78051 0.95714 0.39828 0.0
N221 N 0.79809 0.95366 0.38951 0.0
N222 N 0.80415 0.95619 0.33689 0.0
C223 C 0.79068 0.96146 0.31058 0.0
C224 C 0.77528 0.96225 0.34858 0.0
C225 C 0.77011 0.95659 0.45492 0.0
H226 H 0.78043 0.96156 0.48765 0.0
H227 H 0.76637 0.94728 0.46843 0.0
H228 H 0.75624 0.96031 0.45314 0.0
O229 O 0.84123 0.9586 0.44848 0.0
O230 O 0.85083 0.96378 0.35993 0.0
H231 H 0.80714 0.97215 0.2462 0.0
H232 H 0.78023 0.9702 0.23796 0.0
C233 C 0.79272 0.96586 0.25051 0.0
H234 H 0.79276 0.95832 0.22049 0.0
H235 H 0.85187 0.97377 0.24223 0.0
O236 O 0.80397 0.94586 0.51784 0.0
C237 C 0.85348 0.96454 0.41399 0.0
Co238 Co 0.9079 0.79978 0.41388 0.0
Co239 Co 0.89454 0.7966 0.28509 0.0
C240 C 0.89701 0.81962 0.34676 0.0
O241 O 0.90234 0.81545 0.39312 0.0
O242 O 0.89386 0.81334 0.30107 0.0
C243 C 0.92643 0.81069 0.51782 0.0
O244 O 0.92781 0.82059 0.49005 0.0
C245 C 0.89722 0.80056 0.16196 0.0
C246 C 0.88045 0.78368 0.12606 0.0
C247 C 0.89161 0.7945 0.11067 0.0
N248 N 0.88985 0.7936 0.20535 0.0
N249 N 0.87958 0.7836 0.18368 0.0
C250 C 0.91126 0.81216 0.17037 0.0
H251 H 0.9183 0.81277 0.21355 0.0
H252 H 0.92312 0.81333 0.13722 0.0
H253 H 0.90271 0.81938 0.16678 0.0
C254 C 0.94196 0.78992 0.36879 0.0
N255 N 0.92504 0.79415 0.36112 0.0
N256 N 0.91959 0.79283 0.30686 0.0
C257 C 0.9331 0.78785 0.27796 0.0
C258 C 0.94765 0.78575 0.31627 0.0
C259 C 0.95104 0.78874 0.42639 0.0
H260 H 0.93911 0.78484 0.45656 0.0
H261 H 0.95793 0.79763 0.4434 0.0
H262 H 0.96255 0.78312 0.42445 0.0
O263 O 0.88237 0.78842 0.41729 0.0
O264 O 0.87205 0.78668 0.32652 0.0
H265 H 0.91839 0.77868 0.20432 0.0
H266 H 0.94545 0.78192 0.19903 0.0
C267 C 0.93216 0.78524 0.21472 0.0
H268 H 0.93155 0.79343 0.19169 0.0
H269 H 0.87254 0.77657 0.20826 0.0
O270 O 0.91919 0.80098 0.4924 0.0
C271 C 0.86946 0.78413 0.3792 0.0
Co272 Co 0.58391 0.53967 0.61163 0.0
Co273 Co 0.56914 0.53976 0.73863 0.0
C274 C 0.58199 0.56216 0.67426 0.0
O275 O 0.58627 0.55657 0.62993 0.0
O276 O 0.57506 0.55677 0.71915 0.0
C277 C 0.60708 0.54588 0.50956 0.0
O278 O 0.6159 0.55521 0.53936 0.0
C279 C 0.57122 0.54503 0.86302 0.0
C280 C 0.55203 0.52896 0.89618 0.0
C281 C 0.56465 0.53934 0.91339 0.0
N282 N 0.56334 0.53812 0.81836 0.0
N283 N 0.55159 0.52864 0.83852 0.0
C284 C 0.58437 0.55691 0.85689 0.0
H285 H 0.57836 0.56181 0.82289 0.0
H286 H 0.59963 0.55581 0.84415 0.0
H287 H 0.58518 0.56222 0.89726 0.0
C288 C 0.61285 0.52671 0.66256 0.0
N289 N 0.59735 0.53237 0.66671 0.0
N290 N 0.59129 0.53236 0.7203 0.0
C291 C 0.60285 0.52663 0.75207 0.0
C292 C 0.61684 0.52287 0.7165 0.0
C293 C 0.62298 0.52466 0.60741 0.0
H294 H 0.61153 0.52128 0.57413 0.0
H295 H 0.63175 0.53317 0.59267 0.0
H296 H 0.63312 0.51827 0.61226 0.0
O297 O 0.55547 0.53209 0.60699 0.0
O298 O 0.54463 0.53184 0.69657 0.0
H299 H 0.58636 0.51997 0.8262 0.0
H300 H 0.6131 0.52102 0.83334 0.0
C301 C 0.60122 0.5253 0.81567 0.0
H302 H 0.60255 0.53411 0.83649 0.0
H303 H 0.54386 0.52174 0.81285 0.0
O304 O 0.59423 0.53809 0.53371 0.0
C305 C 0.54152 0.52947 0.6434 0.0
Co306 Co 0.63261 0.71012 0.68508 0.0
Co307 Co 0.61982 0.7095 0.55539 0.0
C308 C 0.61361 0.68767 0.6226 0.0
O309 O 0.62031 0.69351 0.66759 0.0
O310 O 0.61305 0.6926 0.57453 0.0
C311 C 0.64974 0.70183 0.78506 0.0
O312 O 0.64976 0.69238 0.75276 0.0
C313 C 0.62098 0.70438 0.43128 0.0
C314 C 0.60992 0.71954 0.39599 0.0
C315 C 0.61764 0.70969 0.38003 0.0
N316 N 0.61582 0.71095 0.475 0.0
N317 N 0.60884 0.71986 0.45353 0.0
C318 C 0.63083 0.69399 0.43947 0.0
H319 H 0.63683 0.69401 0.48376 0.0
H320 H 0.64318 0.69408 0.40833 0.0
H321 H 0.61959 0.68576 0.43234 0.0
C322 C 0.67155 0.72148 0.6365 0.0
N323 N 0.65222 0.71614 0.63056 0.0
N324 N 0.64695 0.71606 0.57616 0.0
C325 C 0.66288 0.72135 0.54566 0.0
C326 C 0.67897 0.72498 0.58291 0.0
C327 C 0.68213 0.72386 0.69307 0.0
H328 H 0.67232 0.72735 0.72429 0.0
H329 H 0.68521 0.71546 0.70973 0.0
H330 H 0.69645 0.73028 0.68939 0.0
O331 O 0.61166 0.71969 0.68627 0.0
O332 O 0.60119 0.71836 0.59563 0.0
H333 H 0.65085 0.72716 0.46878 0.0
H334 H 0.6774 0.72718 0.46514 0.0
C335 C 0.66288 0.72249 0.48179 0.0
H336 H 0.65995 0.71359 0.46166 0.0
H337 H 0.60413 0.72644 0.47827 0.0
O338 O 0.64389 0.71064 0.76374 0.0
C339 C 0.6 0.72202 0.64724 0.0
Co340 Co 0.31577 0.44957 0.44939 0.0
Co341 Co 0.33077 0.45396 0.32367 0.0
C342 C 0.33045 0.4309 0.38278 0.0
O343 O 0.32288 0.43426 0.42857 0.0
O344 O 0.3341 0.43766 0.34014 0.0
C345 C 0.29684 0.43917 0.55169 0.0
O346 O 0.29522 0.4291 0.5232 0.0
C347 C 0.32539 0.44961 0.20059 0.0
C348 C 0.34703 0.46434 0.16438 0.0
C349 C 0.33244 0.45464 0.14923 0.0
N350 N 0.33512 0.45617 0.24388 0.0
N351 N 0.34813 0.46492 0.22202 0.0
C352 C 0.31027 0.43851 0.20887 0.0
H353 H 0.31246 0.43463 0.25084 0.0
H354 H 0.29498 0.44052 0.20828 0.0
H355 H 0.31133 0.43199 0.17392 0.0
C356 C 0.27996 0.45697 0.40108 0.0
N357 N 0.29819 0.45416 0.39539 0.0
N358 N 0.30481 0.45659 0.3432 0.0
C359 C 0.29117 0.46132 0.31438 0.0
C360 C 0.27488 0.46158 0.34985 0.0
C361 C 0.26795 0.45547 0.45504 0.0
H362 H 0.26828 0.44669 0.47296 0.0
H363 H 0.25217 0.45627 0.44729 0.0
H364 H 0.27482 0.46228 0.48712 0.0
O365 O 0.3407 0.46165 0.45571 0.0
O366 O 0.35153 0.4651 0.36682 0.0
H367 H 0.28595 0.47415 0.2527 0.0
H368 H 0.29041 0.46047 0.22264 0.0
C369 C 0.29486 0.46712 0.2575 0.0
H370 H 0.31094 0.47108 0.25292 0.0
H371 H 0.35758 0.47135 0.24645 0.0
O372 O 0.30424 0.44871 0.52706 0.0
C373 C 0.35341 0.46706 0.42067 0.0
Co374 Co 0.41076 0.30096 0.42466 0.0
Co375 Co 0.39795 0.29874 0.29535 0.0
C376 C 0.40023 0.32132 0.36312 0.0
O377 O 0.40561 0.31686 0.40861 0.0
O378 O 0.39714 0.31531 0.31654 0.0
C379 C 0.43196 0.31035 0.52724 0.0
O380 O 0.43665 0.32009 0.49809 0.0
C381 C 0.40465 0.30345 0.17342 0.0
C382 C 0.38273 0.28905 0.13244 0.0
C383 C 0.39778 0.29859 0.12049 0.0
N384 N 0.39438 0.29694 0.21459 0.0
N385 N 0.3812 0.2884 0.18984 0.0
C386 C 0.42022 0.31432 0.18503 0.0
H387 H 0.41793 0.31825 0.22756 0.0
H388 H 0.43529 0.31199 0.18515 0.0
H389 H 0.41981 0.3209 0.15131 0.0
C390 C 0.44516 0.29167 0.37835 0.0
N391 N 0.42828 0.29596 0.37106 0.0
N392 N 0.42246 0.2944 0.31713 0.0
C393 C 0.43525 0.28878 0.28868 0.0
C394 C 0.45012 0.28702 0.32639 0.0
C395 C 0.45496 0.29086 0.43519 0.0
H396 H 0.44405 0.28558 0.46438 0.0
H397 H 0.45942 0.29983 0.45452 0.0
H398 H 0.46838 0.28674 0.43109 0.0
O399 O 0.38491 0.28963 0.42412 0.0
O400 O 0.37509 0.28853 0.33282 0.0
H401 H 0.41646 0.27996 0.22082 0.0
H402 H 0.44206 0.27774 0.21786 0.0
C403 C 0.43235 0.28419 0.2281 0.0
H404 H 0.43623 0.29162 0.19841 0.0
H405 H 0.37134 0.28204 0.21215 0.0
O406 O 0.42161 0.30121 0.50323 0.0
C407 C 0.37218 0.28564 0.38496 0.0
Co408 Co 0.58626 0.04005 0.08704 0.0
Co409 Co 0.57004 0.03884 0.21272 0.0
C410 C 0.58277 0.06186 0.15461 0.0
O411 O 0.58701 0.05666 0.10901 0.0
O412 O 0.57632 0.05611 0.19896 0.0
C413 C 0.60687 0.04833 0.98344 0.0
O414 O 0.60994 0.0587 0.00959 0.0
C415 C 0.57236 0.04214 0.33738 0.0
C416 C 0.54899 0.02739 0.36589 0.0
C417 C 0.56388 0.03651 0.38593 0.0
N418 N 0.56305 0.0365 0.29101 0.0
N419 N 0.54885 0.02784 0.30832 0.0
C420 C 0.59039 0.05184 0.33428 0.0
H421 H 0.59752 0.05179 0.29154 0.0
H422 H 0.60143 0.05092 0.36818 0.0
H423 H 0.58567 0.06044 0.34096 0.0
C424 C 0.61512 0.02702 0.13789 0.0
N425 N 0.59939 0.03249 0.14207 0.0
N426 N 0.59231 0.03157 0.19463 0.0
C427 C 0.60317 0.02523 0.22537 0.0
C428 C 0.61801 0.02221 0.19049 0.0
C429 C 0.62645 0.026 0.08366 0.0
H430 H 0.61585 0.0219 0.04948 0.0
H431 H 0.63344 0.03496 0.06956 0.0
H432 H 0.63819 0.02064 0.08918 0.0
O433 O 0.55814 0.03191 0.07818 0.0
O434 O 0.54621 0.0314 0.16669 0.0
H435 H 0.58366 0.0187 0.29434 0.0
H436 H 0.60876 0.01592 0.30189 0.0
C437 C 0.59974 0.02234 0.28727 0.0
H438 H 0.60409 0.03049 0.31371 0.0
H439 H 0.53964 0.02192 0.28076 0.0
O440 O 0.59818 0.0393 0.01011 0.0
C441 C 0.54378 0.02913 0.11321 0.0
Co442 Co 0.63644 0.21095 0.19603 0.0
Co443 Co 0.62058 0.2104 0.0699 0.0
C444 C 0.61924 0.18824 0.13491 0.0
O445 O 0.62659 0.1941 0.17923 0.0
O446 O 0.61639 0.19335 0.08858 0.0
C447 C 0.65412 0.20407 0.29897 0.0
O448 O 0.6532 0.19393 0.27161 0.0
C449 C 0.62159 0.20665 0.94526 0.0
C450 C 0.60291 0.21902 0.91529 0.0
C451 C 0.61472 0.21122 0.896 0.0
N452 N 0.61436 0.21167 0.99108 0.0
N453 N 0.60294 0.2189 0.97289 0.0
C454 C 0.63623 0.19853 0.94964 0.0
H455 H 0.64304 0.19917 0.99316 0.0
H456 H 0.64815 0.20064 0.91695 0.0
H457 H 0.62822 0.18932 0.94196 0.0
C458 C 0.67384 0.2229 0.14089 0.0
N459 N 0.65436 0.21771 0.13874 0.0
N460 N 0.64748 0.2182 0.08623 0.0
C461 C 0.66226 0.22418 0.05375 0.0
C462 C 0.67954 0.2272 0.08701 0.0
C463 C 0.68684 0.22308 0.19288 0.0
H464 H 0.68303 0.21451 0.21464 0.0
H465 H 0.70297 0.22475 0.1817 0.0
H466 H 0.68395 0.23008 0.22322 0.0
O467 O 0.61353 0.21919 0.20206 0.0
O468 O 0.60155 0.21809 0.11329 0.0
H469 H 0.67044 0.23615 0.98411 0.0
H470 H 0.662 0.22098 0.96307 0.0
C471 C 0.65952 0.22799 0.99376 0.0
H472 H 0.64418 0.22969 0.98773 0.0
H473 H 0.59576 0.22408 -0.00018 0.0
O474 O 0.64892 0.21259 0.27313 0.0
C475 C 0.60073 0.22124 0.16565 0.0
Co476 Co 0.31586 0.94968 0.95132 0.0
Co477 Co 0.32719 0.95253 0.82205 0.0
C478 C 0.32832 0.93016 0.88459 0.0
O479 O 0.32216 0.93411 0.93119 0.0
O480 O 0.33076 0.93639 0.83989 0.0
C481 C 0.29479 0.94054 0.05321 0.0
O482 O 0.28785 0.93104 0.02196 0.0
C483 C 0.32175 0.94748 0.69848 0.0
C484 C 0.33701 0.96436 0.66239 0.0
C485 C 0.32565 0.95343 0.64735 0.0
N486 N 0.3299 0.95473 0.74167 0.0
N487 N 0.33927 0.96472 0.71972 0.0
C488 C 0.31061 0.93513 0.70656 0.0
H489 H 0.3167 0.93114 0.74361 0.0
H490 H 0.29461 0.93525 0.71526 0.0
H491 H 0.31166 0.92957 0.66776 0.0
C492 C 0.27951 0.95764 0.91017 0.0
N493 N 0.29703 0.95412 0.90074 0.0
N494 N 0.30186 0.95551 0.84637 0.0
C495 C 0.28755 0.96004 0.81949 0.0
C496 C 0.27296 0.96151 0.85899 0.0
C497 C 0.27045 0.95847 0.96818 0.0
H498 H 0.282 0.9632 0.99842 0.0
H499 H 0.26518 0.94945 0.98431 0.0
H500 H 0.25764 0.96314 0.96702 0.0
O501 O 0.34095 0.96158 0.95184 0.0
O502 O 0.34918 0.96377 0.86015 0.0
H503 H 0.30211 0.96965 0.74891 0.0
H504 H 0.27504 0.9671 0.74499 0.0
C505 C 0.28812 0.96326 0.75757 0.0
H506 H 0.28796 0.95525 0.73067 0.0
H507 H 0.34667 0.97194 0.74407 0.0
O508 O 0.30619 0.94922 0.03056 0.0
C509 C 0.35269 0.96637 0.91297 0.0
Co510 Co 0.40958 0.80084 0.91643 0.0
Co511 Co 0.39586 0.7992 0.78787 0.0
C512 C 0.40091 0.82188 0.85611 0.0
O513 O 0.40668 0.81714 0.90029 0.0
O514 O 0.39632 0.81597 0.8097 0.0
C515 C 0.43184 0.80914 0.01969 0.0
O516 O 0.43892 0.81868 0.99097 0.0
C517 C 0.39713 0.80405 0.66424 0.0
C518 C 0.38288 0.78665 0.62785 0.0
C519 C 0.39255 0.79784 0.61282 0.0
N520 N 0.391 0.79675 0.70755 0.0
N521 N 0.38217 0.78643 0.68546 0.0
C522 C 0.40681 0.81674 0.67263 0.0
H523 H 0.39846 0.82085 0.70532 0.0
H524 H 0.42238 0.81736 0.68855 0.0
H525 H 0.4069 0.82171 0.63248 0.0
C526 C 0.44194 0.78985 0.8675 0.0
N527 N 0.42567 0.7948 0.86193 0.0
N528 N 0.42046 0.79458 0.80752 0.0
C529 C 0.43368 0.78978 0.77641 0.0
C530 C 0.4476 0.78648 0.81337 0.0
C531 C 0.45051 0.78739 0.92413 0.0
H532 H 0.43822 0.78446 0.95485 0.0
H533 H 0.45991 0.79563 0.9416 0.0
H534 H 0.45977 0.78049 0.9202 0.0
O535 O 0.38272 0.79097 0.91829 0.0
O536 O 0.3729 0.78916 0.82725 0.0
H537 H 0.42079 0.78178 0.69807 0.0
H538 H 0.44765 0.78675 0.69526 0.0
C539 C 0.43346 0.78879 0.71229 0.0
H540 H 0.43144 0.79725 0.69416 0.0
H541 H 0.37631 0.77911 0.70978 0.0
O542 O 0.42017 0.80062 0.99475 0.0
C543 C 0.36974 0.78692 0.88006 0.0
H544 H 0.2606 0.47828 0.41267 0.0
H545 H 0.23292 0.48806 0.3875 0.0
H546 H 0.22229 0.4667 0.23242 0.0
H547 H 0.25013 0.45701 0.25741 0.0
H548 H 0.2229 0.48914 0.2103 0.0
H549 H 0.19054 0.46176 0.348 0.0
H550 H 0.18653 0.45181 0.44091 0.0
H551 H 0.18501 0.4848 0.5272 0.0
H552 H 0.18931 0.49499 0.43486 0.0
H553 H 0.12973 0.50485 0.1388 0.0
H554 H 0.15565 0.4938 0.16535 0.0
H555 H 0.1694 0.51586 0.31725 0.0
H556 H 0.14358 0.52695 0.29054 0.0
H557 H 0.16659 0.49264 0.34044 0.0
H558 H 0.19951 0.51998 0.20244 0.0
H559 H 0.20349 0.52986 0.10935 0.0
H560 H 0.20384 0.49669 0.02331 0.0
H561 H 0.19953 0.48658 0.11585 0.0
C562 C 0.25208 0.47555 0.37379 0.0
C563 C 0.25728 0.46686 0.33713 0.0
C564 C 0.23632 0.48114 0.35938 0.0
C565 C 0.2254 0.47802 0.30834 0.0
C566 C 0.23051 0.46924 0.272 0.0
C567 C 0.24633 0.4637 0.28629 0.0
C568 C 0.20918 0.48425 0.29174 0.0
C569 C 0.21041 0.48974 0.23839 0.0
C570 C 0.19316 0.48527 0.32897 0.0
C571 C 0.19043 0.47915 0.38454 0.0
C572 C 0.1895 0.46691 0.38683 0.0
C573 C 0.18715 0.46122 0.43939 0.0
C574 C 0.18556 0.46767 0.48994 0.0
C575 C 0.18627 0.47982 0.48802 0.0
C576 C 0.18864 0.48555 0.43557 0.0
C577 C 0.13846 0.50739 0.17749 0.0
C578 C 0.13482 0.51676 0.21253 0.0
C579 C 0.15319 0.50107 0.1927 0.0
C580 C 0.16454 0.50408 0.24306 0.0
C581 C 0.16078 0.51339 0.2783 0.0
C582 C 0.14608 0.51971 0.26304 0.0
C583 C 0.18034 0.49751 0.25909 0.0
C584 C 0.17904 0.49198 0.31232 0.0
C585 C 0.19628 0.49642 0.22172 0.0
C586 C 0.19898 0.5025 0.16604 0.0
C587 C 0.20026 0.51477 0.16363 0.0
C588 C 0.2026 0.52042 0.11096 0.0
C589 C 0.20386 0.5139 0.06043 0.0
C590 C 0.20283 0.50173 0.06248 0.0
C591 C 0.20045 0.49603 0.11503 0.0
H592 H 0.20568 0.51829 0.01969 0.0
H593 H 0.18374 0.46325 0.53059 0.0
H594 H 0.06476 0.72189 0.10769 0.0
H595 H 0.0397 0.73327 0.13804 0.0
H596 H 0.07949 0.75008 0.27265 0.0
H597 H 0.10412 0.73819 0.24436 0.0
H598 H 0.04467 0.74548 0.31381 0.0
H599 H 0.07058 0.76415 0.14261 0.0
H600 H 0.08074 0.76575 0.04121 0.0
H601 H 0.02003 0.75227 0.98807 0.0
H602 H 0.00954 0.75043 0.08919 0.0
H603 H 0.98711 0.79244 0.34603 0.0
H604 H 0.01454 0.78203 0.3229 0.0
H605 H 0.97262 0.75456 0.2356 0.0
H606 H 0.94512 0.7646 0.26095 0.0
H607 H 0.01001 0.76616 0.17232 0.0
H608 H 0.98594 0.74712 0.35013 0.0
H609 H 0.97744 0.74733 0.45282 0.0
H610 H 0.03786 0.76421 0.49395 0.0
H611 H 0.04664 0.76427 0.3913 0.0
C612 C 0.06815 0.72803 0.14368 0.0
C613 C 0.08639 0.72919 0.17357 0.0
C614 C 0.05388 0.7346 0.1608 0.0
C615 C 0.05783 0.74275 0.20695 0.0
C616 C 0.07606 0.74388 0.2369 0.0
C617 C 0.09015 0.7371 0.22064 0.0
C618 C 0.04276 0.74987 0.22469 0.0
C619 C 0.03738 0.75015 0.28282 0.0
C620 C 0.03307 0.75596 0.18448 0.0
C621 C 0.03931 0.75705 0.12354 0.0
C622 C 0.05942 0.76144 0.10931 0.0
C623 C 0.06523 0.7624 0.05188 0.0
C624 C 0.05105 0.75908 0.00823 0.0
C625 C 0.03101 0.75482 0.02193 0.0
C626 C 0.02511 0.75383 0.0793 0.0
C627 C 0.98379 0.7841 0.32257 0.0
C628 C 0.96412 0.77937 0.30457 0.0
C629 C -0.00059 0.77822 0.30924 0.0
C630 C 0.99552 0.7676 0.27724 0.0
C631 C 0.97586 0.7628 0.2599 0.0
C632 C 0.96024 0.76855 0.27417 0.0
C633 C 0.01194 0.76155 0.26071 0.0
C634 C 0.01753 0.76153 0.20295 0.0
C635 C 0.02213 0.75595 0.30133 0.0
C636 C 0.01687 0.75583 0.363 0.0
C637 C 0.99736 0.75099 0.38101 0.0
C638 C 0.9925 0.75103 0.43922 0.0
C639 C 0.00708 0.75582 0.47987 0.0
C640 C 0.02657 0.76053 0.4624 0.0
C641 C 0.0315 0.76052 0.40422 0.0
H642 H 0.0033 0.75584 0.52492 0.0
H643 H 0.05558 0.75984 0.96379 0.0
H644 H 0.34248 0.77137 0.81559 0.0
H645 H 0.31041 0.7599 0.8475 0.0
H646 H 0.32094 0.77568 0.0169 0.0
H647 H 0.35321 0.78668 0.9861 0.0
H648 H 0.30659 0.75383 0.02784 0.0
H649 H 0.2881 0.78436 0.91449 0.0
H650 H 0.28713 0.79621 0.82817 0.0
H651 H 0.25962 0.76517 0.73244 0.0
H652 H 0.26066 0.7531 0.81805 0.0
H653 H 0.20594 0.743 0.13138 0.0
H654 H 0.23883 0.75264 0.09584 0.0
H655 H 0.23043 0.72998 0.94498 0.0
H656 H 0.19791 0.72006 0.98121 0.0
H657 H 0.24337 0.75432 0.9222 0.0
H658 H 0.2607 0.72427 0.04221 0.0
H659 H 0.26069 0.71345 0.13221 0.0
H660 H 0.2896 0.74522 0.2199 0.0
H661 H 0.2895 0.75628 0.13057 0.0
C662 C 0.33792 0.77235 0.85963 0.0
C663 C 0.35035 0.77991 0.89833 0.0
C664 C 0.31956 0.76584 0.87777 0.0
C665 C 0.3131 0.76703 0.93448 0.0
C666 C 0.32558 0.77456 0.97305 0.0
C667 C 0.34404 0.78087 0.9553 0.0
C668 C 0.2934 0.76047 0.9542 0.0
C669 C 0.29277 0.75407 0.00495 0.0
C670 C 0.27534 0.76057 0.92398 0.0
C671 C 0.27466 0.76781 0.8725 0.0
C672 C 0.28198 0.78005 0.87491 0.0
C673 C 0.2814 0.78681 0.82614 0.0
C674 C 0.27338 0.78144 0.77481 0.0
C675 C 0.26586 0.76931 0.7722 0.0
C676 C 0.26643 0.76251 0.82084 0.0
C677 C 0.21128 0.73996 0.09113 0.0
C678 C 0.19946 0.73077 0.05909 0.0
C679 C 0.22996 0.74551 0.07074 0.0
C680 C 0.237 0.74198 0.01787 0.0
C681 C 0.22518 0.73284 0.98574 0.0
C682 C 0.20663 0.72722 0.00639 0.0
C683 C 0.25668 0.74788 0.99587 0.0
C684 C 0.25727 0.75411 0.94475 0.0
C685 C 0.27465 0.74779 0.02623 0.0
C686 C 0.27493 0.74112 0.07981 0.0
C687 C 0.26692 0.72897 0.08078 0.0
C688 C 0.26695 0.72279 0.13166 0.0
C689 C 0.2751 0.72865 0.18177 0.0
C690 C 0.28327 0.7407 0.18106 0.0
C691 C 0.28325 0.74692 0.13031 0.0
H692 H 0.27511 0.72385 0.22112 0.0
H693 H 0.27294 0.78669 0.7371 0.0
H694 H 0.8645 0.47227 0.01593 0.0
H695 H 0.89614 0.48395 0.05094 0.0
H696 H 0.91872 0.48673 0.87806 0.0
H697 H 0.88708 0.47498 0.84244 0.0
H698 H 0.94498 0.47979 0.95355 0.0
H699 H 0.90624 0.51026 0.94319 0.0
H700 H 0.87713 0.51963 0.96152 0.0
H701 H 0.8875 0.51886 0.14292 0.0
H702 H 0.91653 0.50933 0.12571 0.0
H703 H 0.03286 0.52211 0.01056 0.0
H704 H 0.00039 0.51191 0.97417 0.0
H705 H 0.97688 0.50997 0.14611 0.0
H706 H 0.00935 0.52034 0.1831 0.0
H707 H 0.95098 0.51665 0.07066 0.0
H708 H 0.98897 0.48592 0.08226 0.0
H709 H 0.01787 0.47629 0.06541 0.0
H710 H 0.00862 0.47721 0.88353 0.0
H711 H 0.97981 0.487 0.89928 0.0
C712 C 0.87611 0.47544 0.98518 0.0
C713 C 0.87327 0.47267 0.92635 0.0
C714 C 0.89416 0.48215 0.0053 0.0
C715 C 0.90971 0.48625 0.96703 0.0
C716 C 0.90687 0.48365 0.90823 0.0
C717 C 0.88876 0.47697 0.88798 0.0
C718 C 0.92925 0.49277 0.98884 0.0
C719 C 0.94636 0.48796 0.97836 0.0
C720 C 0.93088 0.50322 0.02266 0.0
C721 C 0.91345 0.50897 0.03316 0.0
C722 C 0.90221 0.51199 0.98701 0.0
C723 C 0.88575 0.51735 0.99719 0.0
C724 C 0.88044 0.51981 0.05335 0.0
C725 C 0.89162 0.51694 0.09944 0.0
C726 C 0.90809 0.51157 0.0895 0.0
C727 C 0.02083 0.51951 0.0408 0.0
C728 C 0.02375 0.52201 0.09984 0.0
C729 C 0.00228 0.51364 0.01987 0.0
C730 C 0.98631 0.51008 0.05751 0.0
C731 C 0.98905 0.51265 0.11638 0.0
C732 C 0.00763 0.51853 0.13742 0.0
C733 C 0.96672 0.50369 0.03521 0.0
C734 C 0.9496 0.50851 0.0457 0.0
C735 C 0.96505 0.49321 0.00159 0.0
C736 C 0.98235 0.4873 0.99195 0.0
C737 C 0.9932 0.48416 0.03866 0.0
C738 C 0.00954 0.47865 0.02931 0.0
C739 C 0.01511 0.47617 0.97343 0.0
C740 C 0.00431 0.47916 0.92679 0.0
C741 C 0.98796 0.48467 0.9359 0.0
H742 H 0.02777 0.4719 0.96628 0.0
H743 H 0.86769 0.52396 0.06114 0.0
H744 H 0.77695 0.48433 0.81309 0.0
H745 H 0.74884 0.49427 0.79674 0.0
H746 H 0.70771 0.46354 0.85431 0.0
H747 H 0.73593 0.4534 0.86857 0.0
H748 H 0.69414 0.47142 0.75929 0.0
H749 H 0.71919 0.48886 0.93831 0.0
H750 H 0.74459 0.49888 0.00755 0.0
H751 H 0.75732 0.52899 0.89945 0.0
H752 H 0.73218 0.51909 0.82911 0.0
H753 H 0.61192 0.50182 0.76959 0.0
H754 H 0.63812 0.49107 0.79774 0.0
H755 H 0.68313 0.51851 0.7274 0.0
H756 H 0.65692 0.52929 0.69968 0.0
H757 H 0.69317 0.51171 0.83543 0.0
H758 H 0.6691 0.4934 0.65429 0.0
H759 H 0.64328 0.48324 0.58652 0.0
H760 H 0.6281 0.45452 0.70225 0.0
H761 H 0.65364 0.4646 0.77113 0.0
C762 C 0.76188 0.47971 0.82208 0.0
C763 C 0.75847 0.46811 0.8416 0.0
C764 C 0.74586 0.48543 0.81331 0.0
C765 C 0.72617 0.47971 0.82495 0.0
C766 C 0.72278 0.46813 0.84516 0.0
C767 C 0.73884 0.46238 0.85356 0.0
C768 C 0.70915 0.4857 0.81381 0.0
C769 C 0.69374 0.48014 0.77683 0.0
C770 C 0.70881 0.49717 0.83587 0.0
C771 C 0.7239 0.50318 0.87821 0.0
C772 C 0.7275 0.49758 0.92909 0.0
C773 C 0.74184 0.50325 0.96857 0.0
C774 C 0.75259 0.51455 0.95785 0.0
C775 C 0.74899 0.52023 0.90768 0.0
C776 C 0.73468 0.5146 0.86802 0.0
C777 C 0.62744 0.50552 0.76035 0.0
C778 C 0.63254 0.51633 0.73262 0.0
C779 C 0.64233 0.49938 0.77618 0.0
C780 C 0.66253 0.50398 0.76437 0.0
C781 C 0.66763 0.51483 0.7369 0.0
C782 C 0.65271 0.52093 0.72084 0.0
C783 C 0.67838 0.49747 0.78051 0.0
C784 C 0.69353 0.50295 0.8184 0.0
C785 C 0.67841 0.4859 0.75963 0.0
C786 C 0.66313 0.47981 0.71812 0.0
C787 C 0.66014 0.48496 0.6655 0.0
C788 C 0.64558 0.47921 0.62685 0.0
C789 C 0.63402 0.46826 0.64014 0.0
C790 C 0.63704 0.46301 0.69205 0.0
C791 C 0.65156 0.46874 0.7309 0.0
H792 H 0.62276 0.46382 0.61015 0.0
H793 H 0.76369 0.51893 0.98847 0.0
H794 H 0.09463 0.23054 0.75852 0.0
H795 H 0.06824 0.24117 0.78571 0.0
H796 H 0.04377 0.23618 0.61422 0.0
H797 H 0.0704 0.22573 0.58615 0.0
H798 H 0.04435 0.25806 0.65138 0.0
H799 H 0.02173 0.21945 0.72433 0.0
H800 H 0.02429 0.20168 0.77843 0.0
H801 H 0.03306 0.22232 0.93482 0.0
H802 H 0.03082 0.24024 0.88151 0.0
H803 H 0.94234 0.26159 0.78896 0.0
H804 H 0.96826 0.25027 0.76375 0.0
H805 H 0.01364 0.2818 0.78415 0.0
H806 H 0.9876 0.29313 0.80895 0.0
H807 H 0.00111 0.24593 0.81934 0.0
H808 H 0.04794 0.28122 0.67583 0.0
H809 H 0.04289 0.29782 0.61622 0.0
H810 H 0.98115 0.28155 0.59023 0.0
H811 H 0.98591 0.26478 0.64882 0.0
C812 C 0.08363 0.23167 0.72651 0.0
C813 C 0.08459 0.22723 0.67018 0.0
C814 C 0.06851 0.23773 0.74222 0.0
C815 C 0.0539 0.23934 0.70219 0.0
C816 C 0.0549 0.23502 0.6458 0.0
C817 C 0.07009 0.22901 0.62991 0.0
C818 C 0.0376 0.24556 0.71923 0.0
C819 C 0.03492 0.25541 0.68813 0.0
C820 C 0.02505 0.24198 0.76657 0.0
C821 C 0.02628 0.2312 0.79883 0.0
C822 C 0.02434 0.22021 0.7702 0.0
C823 C 0.02572 0.21011 0.80073 0.0
C824 C 0.02888 0.21088 0.86 0.0
C825 C 0.03063 0.22174 0.8889 0.0
C826 C 0.02929 0.23187 0.85855 0.0
C827 C 0.9579 0.26603 0.78833 0.0
C828 C 0.96313 0.27818 0.80022 0.0
C829 C 0.97264 0.25959 0.77422 0.0
C830 C 0.99281 0.26523 0.77151 0.0
C831 C 0.99812 0.27732 0.78538 0.0
C832 C 0.98334 0.28376 0.7997 0.0
C833 C 0.00815 0.25854 0.75216 0.0
C834 C 0.01063 0.2486 0.78277 0.0
C835 C 0.02017 0.26187 0.70355 0.0
C836 C 0.01725 0.27181 0.66727 0.0
C837 C 0.03331 0.28116 0.65718 0.0
C838 C 0.03049 0.2906 0.62358 0.0
C839 C 0.01169 0.29076 0.59962 0.0
C840 C 0.99569 0.28144 0.60898 0.0
C841 C 0.99844 0.27197 0.64242 0.0
H842 H 0.00953 0.29808 0.57371 0.0
H843 H 0.02995 0.20305 0.88356 0.0
H844 H 0.69907 0.22261 0.99008 0.0
H845 H 0.73194 0.23258 0.95746 0.0
H846 H 0.73863 0.25481 0.11002 0.0
H847 H 0.70509 0.2453 0.14103 0.0
H848 H 0.75136 0.26747 0.02123 0.0
H849 H 0.76305 0.23102 0.0938 0.0
H850 H 0.75743 0.20945 0.10425 0.0
H851 H 0.77046 0.20516 0.92586 0.0
H852 H 0.77589 0.2267 0.91415 0.0
H853 H 0.85667 0.28691 0.99078 0.0
H854 H 0.82466 0.27652 0.02791 0.0
H855 H 0.81031 0.25947 0.86287 0.0
H856 H 0.84221 0.26994 0.82486 0.0
H857 H 0.80243 0.24426 0.96129 0.0
H858 H 0.78967 0.28113 0.89047 0.0
H859 H 0.7964 0.30279 0.88326 0.0
H860 H 0.78654 0.30624 0.06409 0.0
H861 H 0.78006 0.28459 0.0725 0.0
C862 C 0.70746 0.22972 0.0163 0.0
C863 C 0.6996 0.23318 0.06812 0.0
C864 C 0.72635 0.23531 0.99801 0.0
C865 C 0.73794 0.2443 0.03182 0.0
C866 C 0.73002 0.24785 0.08341 0.0
C867 C 0.71097 0.24235 0.10135 0.0
C868 C 0.75822 0.25006 0.01287 0.0
C869 C 0.76261 0.26239 0.00902 0.0
C870 C 0.77284 0.24343 0.99605 0.0
C871 C 0.76971 0.23047 0.00301 0.0
C872 C 0.76459 0.22547 0.05671 0.0
C873 C 0.76146 0.21325 0.06287 0.0
C874 C 0.76355 0.20594 0.01572 0.0
C875 C 0.76883 0.21083 0.96233 0.0
C876 C 0.77196 0.22305 0.95592 0.0
C877 C 0.8468 0.28089 0.9624 0.0
C878 C 0.85192 0.27929 0.90474 0.0
C879 C 0.82852 0.27499 0.98371 0.0
C880 C 0.81518 0.26731 0.94795 0.0
C881 C 0.82048 0.26538 0.89099 0.0
C882 C 0.83864 0.2714 0.86936 0.0
C883 C 0.79537 0.26158 0.96954 0.0
C884 C 0.79113 0.24928 0.97385 0.0
C885 C 0.78099 0.26823 0.98733 0.0
C886 C 0.78458 0.28124 0.98221 0.0
C887 C 0.78909 0.28651 0.92877 0.0
C888 C 0.79283 0.29878 0.92445 0.0
C889 C 0.79195 0.30589 0.97321 0.0
C890 C 0.78725 0.30073 0.02636 0.0
C891 C 0.78352 0.28846 0.03093 0.0
H892 H 0.79487 0.31539 0.96978 0.0
H893 H 0.76111 0.19648 0.02058 0.0
H894 H 0.2334 0.95257 0.87512 0.0
H895 H 0.20495 0.96217 0.85437 0.0
H896 H 0.24608 0.99337 0.80219 0.0
H897 H 0.2744 0.98383 0.82352 0.0
H898 H 0.21551 0.99875 0.86736 0.0
H899 H 0.22355 0.97398 0.70327 0.0
H900 H 0.22607 0.95522 0.65416 0.0
H901 H 0.16709 0.93976 0.71171 0.0
H902 H 0.16434 0.95839 0.76188 0.0
H903 H 0.15584 0.02754 0.69251 0.0
H904 H 0.18135 0.0167 0.72519 0.0
H905 H 0.13476 0.98814 0.77817 0.0
H906 H 0.10924 0.99902 0.7454 0.0
H907 H 0.16606 0.98059 0.71892 0.0
H908 H 0.1571 0.00584 0.87768 0.0
H909 H 0.15452 0.02469 0.9257 0.0
H910 H 0.21503 0.0393 0.87795 0.0
H911 H 0.21787 0.02058 0.82891 0.0
C912 C 0.23624 0.96151 0.85968 0.0
C913 C 0.2559 0.96746 0.85011 0.0
C914 C 0.22007 0.96695 0.8477 0.0
C915 C 0.22344 0.97842 0.82611 0.0
C916 C 0.24317 0.98451 0.81868 0.0
C917 C 0.25928 0.97906 0.83051 0.0
C918 C 0.20648 0.98397 0.80908 0.0
C919 C 0.20478 0.99483 0.83464 0.0
C920 C 0.19225 0.9787 0.76729 0.0
C921 C 0.19383 0.96753 0.73684 0.0
C922 C 0.21118 0.96655 0.70583 0.0
C923 C 0.21264 0.95594 0.67774 0.0
C924 C 0.19677 0.94629 0.67995 0.0
C925 C 0.17938 0.94723 0.71012 0.0
C926 C 0.17786 0.95781 0.73836 0.0
C927 C 0.15115 0.01891 0.7108 0.0
C928 C 0.13074 0.01408 0.71695 0.0
C929 C 0.16564 0.01277 0.72963 0.0
C930 C 0.15988 0.00169 0.75464 0.0
C931 C 0.13946 0.9967 0.75917 0.0
C932 C 0.12496 0.00289 0.74069 0.0
C933 C 0.17526 0.99543 0.77668 0.0
C934 C 0.17668 0.98445 0.75206 0.0
C935 C 0.18922 0.00058 0.81932 0.0
C936 C 0.18764 0.01183 0.84919 0.0
C937 C 0.16981 0.0131 0.87704 0.0
C938 C 0.16831 0.02376 0.90451 0.0
C939 C 0.18459 0.0332 0.90476 0.0
C940 C 0.20242 0.03198 0.87768 0.0
C941 C 0.204 0.02135 0.8501 0.0
H942 H 0.18339 0.04144 0.92604 0.0
H943 H 0.19792 0.93809 0.65818 0.0
H944 H 0.21618 0.22129 0.61121 0.0
H945 H 0.24956 0.23076 0.57818 0.0
H946 H 0.22303 0.2551 0.48012 0.0
H947 H 0.18975 0.24599 0.51495 0.0
H948 H 0.25102 0.24257 0.41885 0.0
H949 H 0.24506 0.26566 0.59178 0.0
H950 H 0.23912 0.26805 0.69523 0.0
H951 H 0.28863 0.25135 0.73426 0.0
H952 H 0.29467 0.24869 0.63094 0.0
H953 H 0.33566 0.28415 0.3344 0.0
H954 H 0.30352 0.27323 0.36754 0.0
H955 H 0.33369 0.25876 0.50409 0.0
H956 H 0.36572 0.2703 0.47308 0.0
H957 H 0.30375 0.26512 0.54674 0.0
H958 H 0.31161 0.24236 0.37847 0.0
H959 H 0.31761 0.23831 0.27644 0.0
H960 H 0.26552 0.25194 0.2291 0.0
H961 H 0.25939 0.25625 0.33078 0.0
C962 C 0.21756 0.22877 0.58331 0.0
C963 C 0.20048 0.23288 0.56513 0.0
C964 C 0.23654 0.23411 0.56428 0.0
C965 C 0.23863 0.24355 0.52651 0.0
C966 C 0.22162 0.24776 0.5089 0.0
C967 C 0.2027 0.24255 0.52867 0.0
C968 C 0.25856 0.24899 0.50481 0.0
C969 C 0.26257 0.24762 0.44643 0.0
C970 C 0.27368 0.25516 0.54156 0.0
C971 C 0.27017 0.25686 0.60364 0.0
C972 C 0.25456 0.2624 0.62241 0.0
C973 C 0.2512 0.26382 0.68102 0.0
C974 C 0.26346 0.25982 0.72129 0.0
C975 C 0.27913 0.25443 0.70302 0.0
C976 C 0.28254 0.25297 0.64444 0.0
C977 C 0.33542 0.27852 0.37105 0.0
C978 C 0.35313 0.27805 0.40121 0.0
C979 C 0.31705 0.27222 0.38983 0.0
C980 C 0.31612 0.265 0.43792 0.0
C981 C 0.33395 0.26428 0.46701 0.0
C982 C 0.35226 0.27083 0.44918 0.0
C983 C 0.29649 0.2588 0.46001 0.0
C984 C 0.29242 0.26002 0.5187 0.0
C985 C 0.28144 0.25226 0.4236 0.0
C986 C 0.28516 0.24974 0.36229 0.0
C987 C 0.30153 0.24459 0.34629 0.0
C988 C 0.30494 0.24224 0.2885 0.0
C989 C 0.29199 0.2449 0.2463 0.0
C990 C 0.27557 0.2499 0.26182 0.0
C991 C 0.27211 0.2523 0.31953 0.0
H992 H 0.29465 0.24306 0.2016 0.0
H993 H 0.26083 0.26094 0.76665 0.0
H994 H 0.86499 0.98835 0.40861 0.0
H995 H 0.89546 0.00052 0.45007 0.0
H996 H 0.91393 0.96907 0.50976 0.0
H997 H 0.88276 0.95713 0.4724 0.0
H998 H 0.92322 0.98431 0.58626 0.0
H999 H 0.93296 0.98518 0.3817 0.0
H1000 H 0.92466 0.98871 0.28134 0.0
H1001 H 0.92656 0.0253 0.32242 0.0
H1002 H 0.93464 0.02195 0.4232 0.0
H1003 H 0.03184 0.01748 0.52665 0.0
H1004 H 0.99891 0.00736 0.4937 0.0
H1005 H 0.97262 0.01771 0.65034 0.0
H1006 H 0.00582 0.0275 0.68472 0.0
H1007 H 0.96647 0.014 0.46797 0.0
H1008 H 0.93195 0.99709 0.68479 0.0
H1009 H 0.94287 0.99112 0.77882 0.0
H1010 H 0.99552 0.98227 0.70179 0.0
H1011 H 0.98478 0.98804 0.60725 0.0
C1012 C 0.87562 0.98413 0.43085 0.0
C1013 C 0.8718 0.97189 0.43737 0.0
C1014 C 0.89305 0.99104 0.4542 0.0
C1015 C 0.90727 0.98572 0.48221 0.0
C1016 C 0.90325 0.97343 0.48863 0.0
C1017 C 0.88554 0.96659 0.46703 0.0
C1018 C 0.92644 0.99283 0.50447 0.0
C1019 C 0.93264 0.99081 0.56029 0.0
C1020 C 0.93894 0.00125 0.47066 0.0
C1021 C 0.93419 0.00329 0.41005 0.0
C1022 C 0.93149 0.99396 0.36937 0.0
C1023 C 0.92684 0.99593 0.31242 0.0
C1024 C 0.92503 0.00721 0.29555 0.0
C1025 C 0.92793 0.01656 0.33557 0.0
C1026 C 0.93256 0.01464 0.39259 0.0
C1027 C 0.01907 0.01761 0.5542 0.0
C1028 C 0.02144 0.02325 0.60844 0.0
C1029 C 0.00021 0.01185 0.53517 0.0
C1030 C 0.98327 0.01169 0.56964 0.0
C1031 C 0.98551 0.01753 0.6234 0.0
C1032 C 0.00448 0.02315 0.64293 0.0
C1033 C 0.9634 0.00526 0.5491 0.0
C1034 C 0.957 0.00752 0.4939 0.0
C1035 C 0.95113 0.99669 0.58251 0.0
C1036 C 0.95767 0.99315 0.63914 0.0
C1037 C 0.94583 0.99385 0.68794 0.0
C1038 C 0.95199 0.9905 0.74131 0.0
C1039 C 0.96992 0.98636 0.74631 0.0
C1040 C 0.98168 0.98552 0.69791 0.0
C1041 C 0.97558 0.98885 0.64445 0.0
H1042 H 0.97466 0.98378 0.78767 0.0
H1043 H 0.92143 0.00872 0.25145 0.0
H1044 H 0.6582 0.02999 0.18875 0.0
H1045 H 0.68433 0.01935 0.21829 0.0
H1046 H 0.63894 0.98899 0.25701 0.0
H1047 H 0.61281 -0.00026 0.22816 0.0
H1048 H 0.66664 0.99331 0.34051 0.0
H1049 H 0.6669 0.98957 0.13587 0.0
H1050 H 0.66822 0.99662 0.03664 0.0
H1051 H 0.72688 0.01733 0.06825 0.0
H1052 H 0.72578 0.01055 0.16801 0.0
H1053 H 0.73533 0.95322 0.35562 0.0
H1054 H 0.70756 0.96318 0.33222 0.0
H1055 H 0.75006 0.99509 0.29797 0.0
H1056 H 0.7777 0.98514 0.32143 0.0
H1057 H 0.72293 0.98918 0.21147 0.0
H1058 H 0.72214 0.99304 0.41719 0.0
H1059 H 0.7206 0.98581 0.51611 0.0
H1060 H 0.66268 0.96442 0.48152 0.0
H1061 H 0.66401 0.97139 0.38205 0.0
C1062 C 0.65391 0.02103 0.20331 0.0
C1063 C 0.63365 0.01563 0.20637 0.0
C1064 C 0.66877 0.01495 0.22008 0.0
C1065 C 0.66358 0.00333 0.23937 0.0
C1066 C 0.64327 0.99795 0.24237 0.0
C1067 C 0.62841 0.00405 0.22582 0.0
C1068 C 0.67936 0.99684 0.25663 0.0
C1069 C 0.67879 0.99225 0.31202 0.0
C1070 C 0.69538 0.99563 0.21976 0.0
C1071 C 0.69618 -0.00037 0.15959 0.0
C1072 C 0.68002 0.9957 0.12179 0.0
C1073 C 0.68074 -0.00036 0.06544 0.0
C1074 C 0.6976 0.00744 0.04619 0.0
C1075 C 0.71382 0.0113 0.08324 0.0
C1076 C 0.71316 0.0074 0.13968 0.0
C1077 C 0.73861 0.9624 0.34383 0.0
C1078 C 0.7585 0.96844 0.33977 0.0
C1079 C 0.72282 0.96808 0.33049 0.0
C1080 C 0.72679 0.97987 0.3133 0.0
C1081 C 0.7467 0.98597 0.3108 0.0
C1082 C 0.76242 0.98031 0.32423 0.0
C1083 C 0.71032 0.98577 0.29552 0.0
C1084 C 0.71074 0.99021 0.23991 0.0
C1085 C 0.69415 0.98679 0.3321 0.0
C1086 C 0.69327 0.98264 0.39198 0.0
C1087 C 0.70915 0.98672 0.43052 0.0
C1088 C 0.7083 0.98268 0.48672 0.0
C1089 C 0.69158 0.97464 0.50504 0.0
C1090 C 0.67564 0.97064 0.46724 0.0
C1091 C 0.67643 0.97463 0.41096 0.0
H1092 H 0.69095 0.97153 0.54858 0.0
H1093 H 0.69813 0.01048 0.00254 0.0
H1094 H 0.71461 0.71903 0.61105 0.0
H1095 H 0.74821 0.72863 0.57967 0.0
H1096 H 0.72239 0.75428 0.48893 0.0
H1097 H 0.68899 0.7451 0.52253 0.0
H1098 H 0.74997 0.7397 0.42499 0.0
H1099 H 0.74395 0.7651 0.59113 0.0
H1100 H 0.73822 0.76859 0.69387 0.0
H1101 H 0.78774 0.75228 0.73779 0.0
H1102 H 0.79355 0.74852 0.63523 0.0
H1103 H 0.83259 0.7814 0.32884 0.0
H1104 H 0.80096 0.77036 0.36498 0.0
H1105 H 0.83253 0.75821 0.50562 0.0
H1106 H 0.864 0.76983 0.47136 0.0
H1107 H 0.80222 0.76449 0.54658 0.0
H1108 H 0.81102 0.74011 0.38562 0.0
H1109 H 0.81696 0.73473 0.28518 0.0
H1110 H 0.76342 0.74628 0.23279 0.0
H1111 H 0.75734 0.75194 0.33275 0.0
C1112 C 0.71622 0.72684 0.58529 0.0
C1113 C 0.6993 0.73126 0.56834 0.0
C1114 C 0.73531 0.73226 0.56722 0.0
C1115 C 0.7376 0.74205 0.53163 0.0
C1116 C 0.72079 0.74665 0.51599 0.0
C1117 C 0.7018 0.7414 0.53499 0.0
C1118 C 0.75746 0.7473 0.50894 0.0
C1119 C 0.76142 0.74523 0.45113 0.0
C1120 C 0.77245 0.75408 0.54403 0.0
C1121 C 0.76901 0.75639 0.60559 0.0
C1122 C 0.75347 0.76214 0.62272 0.0
C1123 C 0.75024 0.76419 0.68091 0.0
C1124 C 0.76256 0.76062 0.72235 0.0
C1125 C 0.77818 0.75502 0.70566 0.0
C1126 C 0.78145 0.75293 0.64751 0.0
C1127 C 0.83278 0.77625 0.36707 0.0
C1128 C 0.85071 0.77647 0.39736 0.0
C1129 C 0.81469 0.76988 0.38759 0.0
C1130 C 0.8143 0.76329 0.43775 0.0
C1131 C 0.83237 0.76324 0.467 0.0
C1132 C 0.85036 0.76985 0.4473 0.0
C1133 C 0.79498 0.75706 0.46162 0.0
C1134 C 0.79101 0.75891 0.51993 0.0
C1135 C 0.78012 0.74984 0.42709 0.0
C1136 C 0.78385 0.74657 0.36671 0.0
C1137 C 0.80062 0.74162 0.35263 0.0
C1138 C 0.80399 0.7385 0.29576 0.0
C1139 C 0.79062 0.7402 0.25261 0.0
C1140 C 0.77381 0.745 0.26624 0.0
C1141 C 0.77039 0.74816 0.32301 0.0
H1142 H 0.79324 0.73776 0.20863 0.0
H1143 H 0.76004 0.76222 0.76738 0.0
H1144 H 0.44439 0.76716 0.74279 0.0
H1145 H 0.47074 0.75665 0.71423 0.0
H1146 H 0.51256 0.77945 0.82605 0.0
H1147 H 0.48649 0.79067 0.85081 0.0
H1148 H 0.53064 0.77637 0.73348 0.0
H1149 H 0.49028 0.74976 0.8587 0.0
H1150 H 0.45933 0.7378 0.89702 0.0
H1151 H 0.44996 0.71782 0.73876 0.0
H1152 H 0.48072 0.72977 0.69917 0.0
H1153 H 0.60018 0.73678 0.73996 0.0
H1154 H 0.57454 0.74806 0.76728 0.0
H1155 H 0.53951 0.73429 0.61819 0.0
H1156 H 0.56531 0.72312 0.58973 0.0
H1157 H 0.51876 0.73264 0.73122 0.0
H1158 H 0.56097 0.76037 0.60932 0.0
H1159 H 0.59329 0.77214 0.57888 0.0
H1160 H 0.60068 0.78969 0.74377 0.0
H1161 H 0.56852 0.7779 0.77548 0.0
C1162 C 0.45929 0.77004 0.76064 0.0
C1163 C 0.46347 0.77979 0.79862 0.0
C1164 C 0.47427 0.76389 0.74504 0.0
C1165 C 0.4936 0.76709 0.76878 0.0
C1166 C 0.49777 0.77679 0.80723 0.0
C1167 C 0.48285 0.78312 0.82181 0.0
C1168 C 0.50952 0.76047 0.75231 0.0
C1169 C 0.52808 0.76682 0.7339 0.0
C1170 C 0.50621 0.74797 0.75206 0.0
C1171 C 0.48773 0.74073 0.7758 0.0
C1172 C 0.48155 0.74287 0.83192 0.0
C1173 C 0.46405 0.73608 0.85389 0.0
C1174 C 0.45266 0.72707 0.8203 0.0
C1175 C 0.45878 0.72481 0.76471 0.0
C1176 C 0.47626 0.73158 0.7425 0.0
C1177 C 0.58705 0.73618 0.71283 0.0
C1178 C 0.58473 0.72906 0.6627 0.0
C1179 C 0.57248 0.74265 0.72845 0.0
C1180 C 0.55523 0.74199 0.69466 0.0
C1181 C 0.55278 0.73488 0.6447 0.0
C1182 C 0.56754 0.72856 0.62844 0.0
C1183 C 0.53957 0.74857 0.71229 0.0
C1184 C 0.52116 0.7422 0.73103 0.0
C1185 C 0.54318 0.76102 0.71413 0.0
C1186 C 0.56244 0.76817 0.69495 0.0
C1187 C 0.56957 0.76666 0.63926 0.0
C1188 C 0.58784 0.77335 0.62174 0.0
C1189 C 0.59906 0.78163 0.65942 0.0
C1190 C 0.59199 0.78326 0.71465 0.0
C1191 C 0.57374 0.77659 0.7324 0.0
H1192 H 0.6132 0.78681 0.64577 0.0
H1193 H 0.43911 0.72183 0.83739 0.0
H1194 H 0.52976 0.5235 0.53302 0.0
H1195 H 0.49662 0.51411 0.49844 0.0
H1196 H 0.47423 0.51299 0.67157 0.0
H1197 H 0.50758 0.52229 0.707 0.0
H1198 H 0.46201 0.49218 0.61316 0.0
H1199 H 0.4629 0.53312 0.57997 0.0
H1200 H 0.47718 0.55284 0.54386 0.0
H1201 H 0.47491 0.53874 0.37169 0.0
H1202 H 0.46083 0.5189 0.40685 0.0
H1203 H 0.36081 0.4747 0.53168 0.0
H1204 H 0.3915 0.48666 0.57116 0.0
H1205 H 0.41734 0.4897 0.40206 0.0
H1206 H 0.38649 0.47791 0.36183 0.0
H1207 H 0.42693 0.51025 0.46214 0.0
H1208 H 0.42839 0.46948 0.49358 0.0
H1209 H 0.41528 0.44942 0.5274 0.0
H1210 H 0.41432 0.46282 0.70024 0.0
H1211 H 0.42718 0.48301 0.66729 0.0
C1212 C 0.51784 0.52128 0.56394 0.0
C1213 C 0.52134 0.52369 0.62286 0.0
C1214 C 0.49885 0.51596 0.54397 0.0
C1215 C 0.48291 0.51302 0.58234 0.0
C1216 C 0.48635 0.51526 0.64125 0.0
C1217 C 0.50539 0.52059 0.66138 0.0
C1218 C 0.46279 0.50738 0.56074 0.0
C1219 C 0.45415 0.49622 0.58094 0.0
C1220 C 0.45285 0.51253 0.51755 0.0
C1221 C 0.46094 0.5245 0.49613 0.0
C1222 C 0.46554 0.53421 0.53444 0.0
C1223 C 0.47359 0.54542 0.51413 0.0
C1224 C 0.47699 0.54704 0.45553 0.0
C1225 C 0.47227 0.53747 0.41708 0.0
C1226 C 0.46422 0.52625 0.43716 0.0
C1227 C 0.37292 0.478 0.50269 0.0
C1228 C 0.37126 0.47524 0.44362 0.0
C1229 C 0.39049 0.48481 0.52541 0.0
C1230 C 0.40682 0.48888 0.48969 0.0
C1231 C 0.40492 0.4866 0.4304 0.0
C1232 C 0.38729 0.47984 0.40751 0.0
C1233 C 0.42617 0.49504 0.51452 0.0
C1234 C 0.4347 0.50626 0.4948 0.0
C1235 C 0.43611 0.48991 0.55787 0.0
C1236 C 0.42854 0.47777 0.57788 0.0
C1237 C 0.42525 0.46816 0.53874 0.0
C1238 C 0.41788 0.45677 0.55775 0.0
C1239 C 0.41391 0.45485 0.61591 0.0
C1240 C 0.41737 0.46432 0.65519 0.0
C1241 C 0.42471 0.47574 0.63638 0.0
H1242 H 0.40819 0.44602 0.63055 0.0
H1243 H 0.48327 0.55571 0.4399 0.0
H1244 H 0.49002 0.29492 0.31432 0.0
H1245 H 0.51545 0.28312 0.28983 0.0
H1246 H 0.46992 0.25145 0.29047 0.0
H1247 H 0.44456 0.26328 0.31464 0.0
H1248 H 0.50504 0.24856 0.34349 0.0
H1249 H 0.48329 0.26266 0.16859 0.0
H1250 H 0.47558 0.27747 0.10196 0.0
H1251 H 0.53739 0.29477 0.10363 0.0
H1252 H 0.54541 0.2802 0.17141 0.0
H1253 H 0.56819 0.22461 0.10383 0.0
H1254 H 0.54188 0.23503 0.13424 0.0
H1255 H 0.57101 0.24284 0.29889 0.0
H1256 H 0.59706 0.2321 0.26948 0.0
H1257 H 0.5424 0.25687 0.16164 0.0
H1258 H 0.53713 0.24458 0.40186 0.0
H1259 H 0.54158 0.22809 0.46297 0.0
H1260 H 0.52826 0.20397 0.31943 0.0
H1261 H 0.52353 0.22029 0.25764 0.0
C1262 C 0.48561 0.28543 0.30963 0.0
C1263 C 0.46554 0.27992 0.31585 0.0
C1264 C 0.50003 0.27872 0.29564 0.0
C1265 C 0.49448 0.26644 0.28801 0.0
C1266 C 0.47447 0.26091 0.29628 0.0
C1267 C 0.46005 0.26763 0.30982 0.0
C1268 C 0.50937 0.25941 0.26891 0.0
C1269 C 0.51329 0.25038 0.30387 0.0
C1270 C 0.51965 0.26161 0.21642 0.0
C1271 C 0.51492 0.27041 0.17562 0.0
C1272 C 0.49522 0.26969 0.15524 0.0
C1273 C 0.49079 0.27803 0.11717 0.0
C1274 C 0.50598 0.28706 0.09859 0.0
C1275 C 0.52563 0.28777 0.1181 0.0
C1276 C 0.53013 0.27948 0.15639 0.0
C1277 C 0.56897 0.22849 0.14664 0.0
C1278 C 0.58471 0.22749 0.18429 0.0
C1279 C 0.55393 0.23448 0.16388 0.0
C1280 C 0.55436 0.23964 0.21899 0.0
C1281 C 0.57015 0.23875 0.25652 0.0
C1282 C 0.58509 0.23265 0.23953 0.0
C1283 C 0.53843 0.2461 0.23672 0.0
C1284 C 0.53428 0.25505 0.20145 0.0
C1285 C 0.52752 0.24358 0.28811 0.0
C1286 C 0.53013 0.23368 0.32506 0.0
C1287 C 0.53506 0.23575 0.38343 0.0
C1288 C 0.53763 0.22643 0.41818 0.0
C1289 C 0.53518 0.21499 0.39511 0.0
C1290 C 0.53017 0.21284 0.33723 0.0
C1291 C 0.52758 0.22212 0.30231 0.0
H1292 H 0.53723 0.20779 0.42205 0.0
H1293 H 0.50253 0.29349 0.06899 0.0
H1294 H 0.38495 0.97496 0.8457 0.0
H1295 H 0.41714 0.98676 0.87681 0.0
H1296 H 0.39509 0.98786 0.04972 0.0
H1297 H 0.36287 0.97611 0.01918 0.0
H1298 H 0.41728 0.00937 0.01589 0.0
H1299 H 0.42273 0.9684 0.01582 0.0
H1300 H 0.42048 0.9485 0.973 0.0
H1301 H 0.46383 0.96239 0.84611 0.0
H1302 H 0.46609 0.98242 0.88761 0.0
H1303 H 0.50866 0.02333 0.17267 0.0
H1304 H 0.47588 0.01368 0.1351 0.0
H1305 H 0.50108 0.01192 0.96628 0.0
H1306 H 0.53391 0.02149 0.00332 0.0
H1307 H 0.4774 0.99118 0.99456 0.0
H1308 H 0.47298 0.03198 0.99565 0.0
H1309 H 0.47518 0.05199 0.03713 0.0
H1310 H 0.43012 0.03864 0.16042 0.0
H1311 H 0.42785 0.01851 0.12019 0.0
C1312 C 0.38684 0.97784 0.8902 0.0
C1313 C 0.3714 0.97451 0.93008 0.0
C1314 C 0.40526 0.98453 0.9079 0.0
C1315 C 0.40851 0.98804 0.96565 0.0
C1316 C 0.39286 0.9852 0.00498 0.0
C1317 C 0.37449 0.97845 0.98745 0.0
C1318 C 0.42852 0.99416 0.98576 0.0
C1319 C 0.43041 0.00537 0.01177 0.0
C1320 C 0.44566 0.98899 0.97921 0.0
C1321 C 0.44441 0.97694 0.95443 0.0
C1322 C 0.43165 0.96723 0.97848 0.0
C1323 C 0.4304 0.95592 0.9545 0.0
C1324 C 0.44196 0.95419 0.90676 0.0
C1325 C 0.45485 0.96375 0.88301 0.0
C1326 C 0.45613 0.97509 0.90676 0.0
C1327 C 0.50725 0.0209 0.12754 0.0
C1328 C 0.52391 0.02322 0.09099 0.0
C1329 C 0.48849 0.01543 0.10612 0.0
C1330 C 0.48605 0.0122 0.04781 0.0
C1331 C 0.50266 0.01437 0.01139 0.0
C1332 C 0.5214 0.01987 0.03267 0.0
C1333 C 0.46619 0.00641 0.0249 0.0
C1334 C 0.46432 0.99523 0.99845 0.0
C1335 C 0.44909 0.01163 0.03094 0.0
C1336 C 0.4504 0.02372 0.05527 0.0
C1337 C 0.46366 0.03329 0.03193 0.0
C1338 C 0.4649 0.04466 0.05515 0.0
C1339 C 0.45284 0.04658 0.10148 0.0
C1340 C 0.43947 0.03713 0.12459 0.0
C1341 C 0.4382 0.02575 0.10156 0.0
H1342 H 0.45381 0.05538 0.11938 0.0
H1343 H 0.44099 0.94543 0.88827 0.0
H1344 H 0.06768 0.51939 0.46993 0.0
H1345 H 0.07917 0.52203 0.56942 0.0
H1346 H 0.08964 0.5598 0.55171 0.0
H1347 H 0.07845 0.55718 0.45146 0.0
H1348 H 0.11923 0.55343 0.61302 0.0
H1349 H 0.0475 0.54531 0.61661 0.0
H1350 H 0.01347 0.53439 0.59358 0.0
H1351 H 0.02642 0.50382 0.67616 0.0
H1352 H 0.06064 0.51451 0.69898 0.0
H1353 H 0.11375 0.5668 0.91479 0.0
H1354 H 0.11198 0.56499 0.81025 0.0
H1355 H 0.10285 0.52712 0.82122 0.0
H1356 H 0.1043 0.52883 0.92565 0.0
H1357 H 0.07338 0.53404 0.76267 0.0
H1358 H 0.14541 0.54303 0.76247 0.0
H1359 H 0.17878 0.55466 0.78707 0.0
H1360 H 0.16454 0.58449 0.70079 0.0
H1361 H 0.13096 0.57308 0.67633 0.0
C1362 C 0.07246 0.52826 0.48726 0.0
C1363 C 0.07223 0.53809 0.45312 0.0
C1364 C 0.07903 0.52976 0.54404 0.0
C1365 C 0.08501 0.54111 0.56818 0.0
C1366 C 0.08514 0.55096 0.53384 0.0
C1367 C 0.07877 0.54946 0.47665 0.0
C1368 C 0.09037 0.54264 0.62983 0.0
C1369 C 0.10914 0.54931 0.64589 0.0
C1370 C 0.07729 0.53713 0.67256 0.0
C1371 C 0.05669 0.53068 0.65901 0.0
C1372 C 0.04314 0.53623 0.62947 0.0
C1373 C 0.02381 0.53008 0.61652 0.0
C1374 C 0.01781 0.51841 0.63327 0.0
C1375 C 0.0311 0.51286 0.66314 0.0
C1376 C 0.05046 0.51896 0.67614 0.0
C1377 C 0.11187 0.5581 0.89493 0.0
C1378 C 0.10885 0.54794 0.92845 0.0
C1379 C 0.11092 0.55709 0.83512 0.0
C1380 C 0.10719 0.54592 0.80803 0.0
C1381 C 0.10562 0.53582 0.84136 0.0
C1382 C 0.10647 0.53681 0.90102 0.0
C1383 C 0.1024 0.54465 0.74601 0.0
C1384 C 0.08358 0.5381 0.72988 0.0
C1385 C 0.11537 0.55037 0.70357 0.0
C1386 C 0.13559 0.55723 0.71801 0.0
C1387 C 0.14932 0.5521 0.74914 0.0
C1388 C 0.16829 0.55865 0.76298 0.0
C1389 C 0.17376 0.57032 0.74562 0.0
C1390 C 0.16028 0.57545 0.71425 0.0
C1391 C 0.14128 0.56895 0.70032 0.0
H1392 H 0.18845 0.57537 0.75639 0.0
H1393 H 0.00283 0.51366 0.62321 0.0
H1394 H 0.09419 0.7061 0.79142 0.0
H1395 H 0.10524 0.70362 0.69294 0.0
H1396 H 0.16469 0.70253 0.75474 0.0
H1397 H 0.15386 0.70535 0.85307 0.0
H1398 H 0.16604 0.7171 0.66656 0.0
H1399 H 0.13505 0.67754 0.70424 0.0
H1400 H 0.10846 0.66142 0.73656 0.0
H1401 H 0.0686 0.66978 0.6075 0.0
H1402 H 0.09485 0.68607 0.57493 0.0
H1403 H 0.16143 0.686 0.35993 0.0
H1404 H 0.16119 0.68543 0.46463 0.0
H1405 H 0.15105 0.72114 0.47292 0.0
H1406 H 0.15157 0.72185 0.36849 0.0
H1407 H 0.13011 0.68678 0.53012 0.0
H1408 H 0.1688 0.73458 0.59724 0.0
H1409 H 0.19699 0.74987 0.56613 0.0
H1410 H 0.225 0.72328 0.48778 0.0
H1411 H 0.19713 0.70781 0.51912 0.0
C1412 C 0.10954 0.70518 0.78401 0.0
C1413 C 0.12301 0.70562 0.83007 0.0
C1414 C 0.11583 0.70372 0.7278 0.0
C1415 C 0.13572 0.70272 0.71658 0.0
C1416 C 0.14922 0.70317 0.76251 0.0
C1417 C 0.14292 0.7046 0.8188 0.0
C1418 C 0.14255 0.70177 0.6566 0.0
C1419 C 0.15829 0.71043 0.63674 0.0
C1420 C 0.13274 0.6929 0.61808 0.0
C1421 C 0.11689 0.68309 0.6374 0.0
C1422 C 0.12057 0.676 0.68301 0.0
C1423 C 0.10556 0.66682 0.70134 0.0
C1424 C 0.08685 0.66459 0.67416 0.0
C1425 C 0.08311 0.67152 0.62853 0.0
C1426 C 0.09805 0.68072 0.61006 0.0
C1427 C 0.15958 0.69382 0.38403 0.0
C1428 C 0.15638 0.70395 0.35581 0.0
C1429 C 0.15937 0.69346 0.44389 0.0
C1430 C 0.15611 0.70323 0.47665 0.0
C1431 C 0.15386 0.71354 0.44863 0.0
C1432 C 0.15408 0.71392 0.38882 0.0
C1433 C 0.15318 0.70234 0.53956 0.0
C1434 C 0.13809 0.69335 0.56 0.0
C1435 C 0.16383 0.7108 0.57873 0.0
C1436 C 0.18077 0.72004 0.56021 0.0
C1437 C 0.18102 0.73198 0.57364 0.0
C1438 C 0.19693 0.74069 0.5559 0.0
C1439 C 0.21275 0.73755 0.52488 0.0
C1440 C 0.2127 0.7257 0.51165 0.0
C1441 C 0.19683 0.71696 0.52931 0.0
H1442 H 0.22505 0.7443 0.51116 0.0
H1443 H 0.07525 0.65748 0.68841 0.0
H1444 H 0.82796 0.43395 0.58392 0.0
H1445 H 0.81768 0.42815 0.48538 0.0
H1446 H 0.8118 0.46389 0.45156 0.0
H1447 H 0.82135 0.46965 0.55078 0.0
H1448 H 0.78064 0.44802 0.40602 0.0
H1449 H 0.85291 0.45375 0.40972 0.0
H1450 H 0.88562 0.45037 0.44415 0.0
H1451 H 0.86882 0.41362 0.39823 0.0
H1452 H 0.83589 0.41677 0.36421 0.0
H1453 H 0.79517 0.45432 0.10805 0.0
H1454 H 0.7945 0.45478 0.21253 0.0
H1455 H 0.79839 0.41797 0.21435 0.0
H1456 H 0.79925 0.41744 0.10943 0.0
H1457 H 0.82724 0.4314 0.27916 0.0
H1458 H 0.75644 0.42661 0.26195 0.0
H1459 H 0.72432 0.43052 0.22568 0.0
H1460 H 0.73854 0.46586 0.2949 0.0
H1461 H 0.77089 0.46223 0.33089 0.0
C1462 C 0.82406 0.44051 0.5559 0.0
C1463 C 0.82509 0.4522 0.57528 0.0
C1464 C 0.81841 0.43722 0.49943 0.0
C1465 C 0.814 0.4456 0.46122 0.0
C1466 C 0.81502 0.45728 0.48051 0.0
C1467 C 0.82064 0.46057 0.53697 0.0
C1468 C 0.80897 0.44234 0.40054 0.0
C1469 C 0.79085 0.44445 0.37809 0.0
C1470 C 0.82206 0.43736 0.36473 0.0
C1471 C 0.84185 0.43547 0.38509 0.0
C1472 C 0.85613 0.44493 0.40743 0.0
C1473 C 0.87472 0.44306 0.42677 0.0
C1474 C 0.87927 0.43178 0.42356 0.0
C1475 C 0.86526 0.42235 0.40082 0.0
C1476 C 0.84663 0.42417 0.38147 0.0
C1477 C 0.79551 0.44625 0.13058 0.0
C1478 C 0.79748 0.43587 0.10055 0.0
C1479 C 0.79499 0.44652 0.19034 0.0
C1480 C 0.79634 0.4364 0.22116 0.0
C1481 C 0.79731 0.42586 0.19126 0.0
C1482 C 0.79774 0.42558 0.13136 0.0
C1483 C 0.79904 0.43727 0.28416 0.0
C1484 C 0.8168 0.43476 0.30717 0.0
C1485 C 0.78565 0.44193 0.32029 0.0
C1486 C 0.76617 0.44416 0.29883 0.0
C1487 C 0.7528 0.43525 0.26908 0.0
C1488 C 0.73453 0.43741 0.24863 0.0
C1489 C 0.72941 0.44844 0.2579 0.0
C1490 C 0.74253 0.45732 0.28774 0.0
C1491 C 0.76082 0.45521 0.30826 0.0
H1492 H 0.71525 0.4501 0.24203 0.0
H1493 H 0.89367 0.43035 0.43854 0.0
H1494 H 0.93159 0.29282 0.07305 0.0
H1495 H 0.92993 0.29022 0.17655 0.0
H1496 H 0.92706 0.32691 0.20184 0.0
H1497 H 0.92869 0.32965 0.09802 0.0
H1498 H 0.9497 0.31726 0.28886 0.0
H1499 H 0.88527 0.30929 0.19244 0.0
H1500 H 0.86154 0.2998 0.1176 0.0
H1501 H 0.86656 0.26567 0.17829 0.0
H1502 H 0.89061 0.27496 0.25289 0.0
H1503 H 0.89849 0.31378 0.5561 0.0
H1504 H 0.90898 0.31763 0.45704 0.0
H1505 H 0.90392 0.2803 0.42439 0.0
H1506 H 0.8937 0.2764 0.52368 0.0
H1507 H 0.88644 0.29042 0.34114 0.0
H1508 H 0.94948 0.29782 0.43941 0.0
H1509 H 0.97406 0.30679 0.51315 0.0
H1510 H 0.97252 0.34123 0.44982 0.0
H1511 H 0.94769 0.33247 0.37616 0.0
C1512 C 0.93105 0.30042 0.10056 0.0
C1513 C 0.92986 0.31139 0.07726 0.0
C1514 C 0.93013 0.29891 0.1597 0.0
C1515 C 0.92803 0.30833 0.19651 0.0
C1516 C 0.92862 0.31954 0.17392 0.0
C1517 C 0.92949 0.32107 0.1146 0.0
C1518 C 0.92267 0.30611 0.25718 0.0
C1519 C 0.9358 0.3115 0.30052 0.0
C1520 C 0.90468 0.29841 0.27196 0.0
C1521 C 0.88989 0.29282 0.22788 0.0
C1522 C 0.88142 0.29976 0.18957 0.0
C1523 C 0.8679 0.29442 0.14722 0.0
C1524 C 0.86259 0.28214 0.1431 0.0
C1525 C 0.87072 0.27518 0.18147 0.0
C1526 C 0.88428 0.28048 0.22382 0.0
C1527 C 0.90003 0.30641 0.52825 0.0
C1528 C 0.89573 0.2948 0.54802 0.0
C1529 C 0.90591 0.30862 0.47154 0.0
C1530 C 0.90753 0.29926 0.43366 0.0
C1531 C 0.90286 0.28765 0.45302 0.0
C1532 C 0.89699 0.28544 0.50968 0.0
C1533 C 0.91351 0.30153 0.3733 0.0
C1534 C 0.9004 0.29616 0.3298 0.0
C1535 C 0.93156 0.30919 0.35856 0.0
C1536 C 0.94657 0.31449 0.40262 0.0
C1537 C 0.95425 0.30731 0.4415 0.0
C1538 C 0.96825 0.31236 0.48323 0.0
C1539 C 0.97481 0.32458 0.48627 0.0
C1540 C 0.96741 0.33177 0.44746 0.0
C1541 C 0.95338 0.32677 0.40567 0.0
H1542 H 0.98565 0.32847 0.5186 0.0
H1543 H 0.85214 0.27802 0.11026 0.0
H1544 H 0.13416 0.0583 0.42357 0.0
H1545 H 0.13432 0.05839 0.31858 0.0
H1546 H 0.08666 0.02777 0.31422 0.0
H1547 H 0.08686 0.02738 0.4184 0.0
H1548 H 0.11082 0.0262 0.22928 0.0
H1549 H 0.07791 0.05667 0.30802 0.0
H1550 H 0.0761 0.07449 0.36636 0.0
H1551 H 0.12415 0.09441 0.26943 0.0
H1552 H 0.12639 0.07666 0.21097 0.0
H1553 H 0.04686 0.03656 0.99705 0.0
H1554 H 0.06045 0.03848 0.09483 0.0
H1555 H 0.12 0.04986 0.02873 0.0
H1556 H 0.1068 0.04728 0.93083 0.0
H1557 H 0.09609 0.06254 0.143 0.0
H1558 H 0.12778 0.03044 0.06317 0.0
H1559 H 0.12561 0.01225 0.00431 0.0
H1560 H 0.07585 0.99523 0.10456 0.0
H1561 H 0.07756 0.01342 0.16338 0.0
C1562 C 0.12399 0.05146 0.40017 0.0
C1563 C 0.11031 0.04293 0.42937 0.0
C1564 C 0.12403 0.05155 0.34018 0.0
C1565 C 0.1102 0.04324 0.30853 0.0
C1566 C 0.09742 0.0343 0.33763 0.0
C1567 C 0.09751 0.03413 0.39737 0.0
C1568 C 0.10779 0.04422 0.24566 0.0
C1569 C 0.10782 0.0342 0.21053 0.0
C1570 C 0.1039 0.05465 0.22077 0.0
C1571 C 0.10248 0.06532 0.25564 0.0
C1572 C 0.08817 0.06484 0.29943 0.0
C1573 C 0.08706 0.07492 0.33247 0.0
C1574 C 0.10005 0.08557 0.32174 0.0
C1575 C 0.11413 0.08616 0.27779 0.0
C1576 C 0.11533 0.07609 0.24469 0.0
C1577 C 0.06283 0.0396 0.00332 0.0
C1578 C 0.07564 0.0421 0.95613 0.0
C1579 C 0.07053 0.04071 0.05909 0.0
C1580 C 0.09116 0.04436 0.06861 0.0
C1581 C 0.104 0.04713 0.02195 0.0
C1582 C 0.09635 0.04583 0.96603 0.0
C1583 C 0.09916 0.04457 0.12748 0.0
C1584 C 0.09985 0.05472 0.16177 0.0
C1585 C 0.10352 0.03427 0.15178 0.0
C1586 C 0.10266 0.0233 0.11714 0.0
C1587 C 0.11627 0.02285 0.07225 0.0
C1588 C 0.11514 0.01254 0.03899 0.0
C1589 C 0.10056 0.0026 0.05058 0.0
C1590 C 0.08711 0.00294 0.09557 0.0
C1591 C 0.08816 0.01324 0.12888 0.0
H1592 H 0.09971 0.99462 0.0248 0.0
H1593 H 0.09916 0.09336 0.34736 0.0
H1594 H 0.1522 0.20248 0.35062 0.0
H1595 H 0.16252 0.19992 0.25131 0.0
H1596 H 0.10494 0.20533 0.19157 0.0
H1597 H 0.09445 0.20767 0.29087 0.0
H1598 H 0.11808 0.18783 0.12968 0.0
H1599 H 0.14367 0.22779 0.19775 0.0
H1600 H 0.16298 0.24277 0.26348 0.0
H1601 H 0.21686 0.23016 0.22289 0.0
H1602 H 0.19778 0.21497 0.15752 0.0
H1603 H 0.15311 0.22299 0.8669 0.0
H1604 H 0.15133 0.22204 0.97126 0.0
H1605 H 0.16257 0.18656 0.96331 0.0
H1606 H 0.16424 0.18739 0.85867 0.0
H1607 H 0.17515 0.21768 0.0609 0.0
H1608 H 0.12955 0.17052 0.05711 0.0
H1609 H 0.10866 0.15647 0.99017 0.0
H1610 H 0.09213 0.18524 0.90023 0.0
H1611 H 0.1127 0.19944 0.96706 0.0
C1612 C 0.14151 0.2027 0.31637 0.0
C1613 C 0.12236 0.20502 0.32827 0.0
C1614 C 0.14752 0.20139 0.25969 0.0
C1615 C 0.13452 0.20249 0.21414 0.0
C1616 C 0.11515 0.20439 0.22612 0.0
C1617 C 0.10919 0.20575 0.28271 0.0
C1618 C 0.14142 0.2025 0.15392 0.0
C1619 C 0.13071 0.19426 0.11479 0.0
C1620 C 0.15778 0.21097 0.13442 0.0
C1621 C 0.16927 0.22016 0.1733 0.0
C1622 C 0.15961 0.22815 0.2032 0.0
C1623 C 0.17051 0.23668 0.24033 0.0
C1624 C 0.19112 0.23739 0.2475 0.0
C1625 C 0.20088 0.22958 0.21739 0.0
C1626 C 0.19004 0.22101 0.18029 0.0
C1627 C 0.1556 0.21506 0.88733 0.0
C1628 C 0.15851 0.2052 0.85442 0.0
C1629 C 0.15466 0.21455 0.94704 0.0
C1630 C 0.15652 0.20417 0.97488 0.0
C1631 C 0.16087 0.19461 0.94251 0.0
C1632 C 0.16187 0.19512 0.88272 0.0
C1633 C 0.1518 0.20301 0.03673 0.0
C1634 C 0.16285 0.21106 0.0761 0.0
C1635 C 0.13557 0.19447 0.05639 0.0
C1636 C 0.12284 0.18603 0.01664 0.0
C1637 C 0.12139 0.17384 0.02314 0.0
C1638 C 0.10962 0.16585 0.98522 0.0
C1639 C 0.09913 0.16996 0.94084 0.0
C1640 C 0.10032 0.18207 0.93447 0.0
C1641 C 0.11204 0.19009 0.97233 0.0
H1642 H 0.09006 0.16376 0.91148 0.0
H1643 H 0.19953 0.244 0.27627 0.0
H1644 H 0.82729 0.93398 0.08966 0.0
H1645 H 0.81664 0.92845 0.99113 0.0
H1646 H 0.81444 0.96473 0.95702 0.0
H1647 H 0.82432 0.97023 0.05622 0.0
H1648 H 0.78219 0.94997 0.91167 0.0
H1649 H 0.85401 0.95273 0.91474 0.0
H1650 H 0.8858 0.94794 0.94885 0.0
H1651 H 0.86475 0.91147 0.90346 0.0
H1652 H 0.83271 0.91602 0.86974 0.0
H1653 H 0.79524 0.95483 0.61238 0.0
H1654 H 0.79537 0.95571 0.71682 0.0
H1655 H 0.79634 0.91853 0.72122 0.0
H1656 H 0.79653 0.91759 0.61634 0.0
H1657 H 0.82589 0.93108 0.7847 0.0
H1658 H 0.75551 0.92907 0.76909 0.0
H1659 H 0.72427 0.93428 0.73319 0.0
H1660 H 0.7427 0.96957 0.80031 0.0
H1661 H 0.77419 0.96464 0.83592 0.0
C1662 C 0.82413 0.94074 0.0616 0.0
C1663 C 0.82627 0.95251 0.08096 0.0
C1664 C 0.81827 0.93759 0.00508 0.0
C1665 C 0.81477 0.94619 0.96675 0.0
C1666 C 0.81695 0.95795 0.986 0.0
C1667 C 0.82275 0.96109 0.0425 0.0
C1668 C 0.80939 0.94305 0.90608 0.0
C1669 C 0.79178 0.9459 0.88371 0.0
C1670 C 0.82162 0.93743 0.87019 0.0
C1671 C 0.84088 0.93469 0.89037 0.0
C1672 C 0.8561 0.94367 0.91249 0.0
C1673 C 0.87417 0.94101 0.93166 0.0
C1674 C 0.87727 0.9294 0.9285 0.0
C1675 C 0.86232 0.92045 0.90599 0.0
C1676 C 0.8442 0.92307 0.88682 0.0
C1677 C 0.7951 0.94678 0.63546 0.0
C1678 C 0.79609 0.93616 0.60605 0.0
C1679 C 0.79505 0.94729 0.69526 0.0
C1680 C 0.79581 0.93717 0.72684 0.0
C1681 C 0.79576 0.92643 0.69762 0.0
C1682 C 0.79581 0.92591 0.6377 0.0
C1683 C 0.79882 0.93817 0.78982 0.0
C1684 C 0.81605 0.93495 0.81272 0.0
C1685 C 0.78627 0.94349 0.82604 0.0
C1686 C 0.76729 0.9465 0.80488 0.0
C1687 C 0.75298 0.93797 0.77585 0.0
C1688 C 0.73521 0.94087 0.7556 0.0
C1689 C 0.73152 0.95225 0.76437 0.0
C1690 C 0.74558 0.96076 0.79353 0.0
C1691 C 0.76338 0.95791 0.81384 0.0
H1692 H 0.71775 0.95448 0.74866 0.0
H1693 H 0.89128 0.92736 0.94335 0.0
H1694 H 0.90028 0.78004 0.02531 0.0
H1695 H 0.91141 0.78529 0.92821 0.0
H1696 H 0.90876 0.82167 0.96572 0.0
H1697 H 0.89684 0.81638 0.06241 0.0
H1698 H 0.89221 0.81474 0.86431 0.0
H1699 H 0.95392 0.81294 0.95657 0.0
H1700 H 0.97729 0.80443 0.0162 0.0
H1701 H 0.97293 0.77508 0.89792 0.0
H1702 H 0.94927 0.78331 0.838 0.0
H1703 H 0.93281 0.82983 0.59135 0.0
H1704 H 0.93281 0.82957 0.69623 0.0
H1705 H 0.9279 0.7918 0.69041 0.0
H1706 H 0.92801 0.79197 0.58577 0.0
H1707 H 0.95225 0.80255 0.77989 0.0
H1708 H 0.88654 0.80289 0.69834 0.0
H1709 H 0.86265 0.81111 0.63919 0.0
H1710 H 0.87488 0.84334 0.73912 0.0
H1711 H 0.89907 0.83534 0.79839 0.0
C1712 C 0.90205 0.78916 0.01287 0.0
C1713 C 0.8981 0.79784 0.05186 0.0
C1714 C 0.90862 0.79217 0.95758 0.0
C1715 C 0.9114 0.80392 0.94022 0.0
C1716 C 0.90702 0.81258 0.9786 0.0
C1717 C 0.9004 0.80956 0.034 0.0
C1718 C 0.918 0.80698 0.88102 0.0
C1719 C 0.90561 0.81233 0.84627 0.0
C1720 C 0.93532 0.80367 0.85727 0.0
C1721 C 0.9497 0.79872 0.89295 0.0
C1722 C 0.95783 0.80463 0.94345 0.0
C1723 C 0.97115 0.79986 0.97729 0.0
C1724 C 0.97657 0.78921 0.96091 0.0
C1725 C 0.96871 0.78332 0.91057 0.0
C1726 C 0.95536 0.78805 0.8766 0.0
C1727 C 0.93218 0.8215 0.61237 0.0
C1728 C 0.93009 0.81089 0.58032 0.0
C1729 C 0.93214 0.82137 0.67227 0.0
C1730 C 0.93004 0.81064 0.7009 0.0
C1731 C 0.92948 0.80016 0.66906 0.0
C1732 C 0.92943 0.80027 0.60926 0.0
C1733 C 0.92628 0.81009 0.76333 0.0
C1734 C 0.93914 0.80519 0.79851 0.0
C1735 C 0.9094 0.81381 0.78762 0.0
C1736 C 0.89478 0.81858 0.75229 0.0
C1737 C 0.88424 0.81176 0.70739 0.0
C1738 C 0.87063 0.81637 0.6739 0.0
C1739 C 0.8673 0.82775 0.68527 0.0
C1740 C 0.87752 0.83453 0.73028 0.0
C1741 C 0.89117 0.82997 0.76384 0.0
H1742 H 0.85675 0.83131 0.6593 0.0
H1743 H 0.98689 0.78553 0.98717 0.0
H1744 H 0.60195 0.55028 0.9526 0.0
H1745 H 0.61284 0.55407 0.0518 0.0
H1746 H 0.55416 0.53726 0.1092 0.0
H1747 H 0.54268 0.53439 0.00977 0.0
H1748 H 0.56693 0.55485 0.17653 0.0
H1749 H 0.59578 0.52295 0.09952 0.0
H1750 H 0.61564 0.51333 0.03152 0.0
H1751 H 0.66834 0.53895 0.07525 0.0
H1752 H 0.6487 0.54882 0.14297 0.0
H1753 H 0.58703 0.52915 0.43553 0.0
H1754 H 0.58498 0.53028 0.33159 0.0
H1755 H 0.62892 0.56257 0.33569 0.0
H1756 H 0.63085 0.56171 0.44062 0.0
H1757 H 0.62725 0.53995 0.23831 0.0
H1758 H 0.595 0.5713 0.32045 0.0
H1759 H 0.57317 0.57822 0.3927 0.0
H1760 H 0.52461 0.55034 0.34175 0.0
H1761 H 0.54628 0.54317 0.26973 0.0
C1762 C 0.59107 0.54787 0.98615 0.0
C1763 C 0.57122 0.54238 0.97323 0.0
C1764 C 0.59749 0.54979 0.04305 0.0
C1765 C 0.58442 0.54582 0.0881 0.0
C1766 C 0.56453 0.54045 0.07526 0.0
C1767 C 0.558 0.53875 0.01841 0.0
C1768 C 0.59152 0.54681 0.14854 0.0
C1769 C 0.58017 0.55162 0.18973 0.0
C1770 C 0.60888 0.54267 0.16614 0.0
C1771 C 0.62073 0.5367 0.12578 0.0
C1772 C 0.61157 0.52657 0.09433 0.0
C1773 C 0.62279 0.52107 0.05588 0.0
C1774 C 0.64322 0.52555 0.04894 0.0
C1775 C 0.6525 0.53551 0.08058 0.0
C1776 C 0.64134 0.54106 0.11902 0.0
C1777 C 0.59658 0.5364 0.41452 0.0
C1778 C 0.60892 0.54544 0.44646 0.0
C1779 C 0.59538 0.53701 0.3551 0.0
C1780 C 0.60667 0.54655 0.3265 0.0
C1781 C 0.6201 0.55515 0.35744 0.0
C1782 C 0.62116 0.55464 0.41724 0.0
C1783 C 0.60266 0.54796 0.26525 0.0
C1784 C 0.6144 0.54348 0.22432 0.0
C1785 C 0.58547 0.55217 0.24787 0.0
C1786 C 0.5723 0.55665 0.29012 0.0
C1787 C 0.57972 0.5666 0.32497 0.0
C1788 C 0.56736 0.57058 0.3658 0.0
C1789 C 0.54753 0.5647 0.3719 0.0
C1790 C 0.53998 0.55487 0.33699 0.0
C1791 C 0.55228 0.55086 0.29613 0.0
H1792 H 0.538 0.56777 0.4036 0.0
H1793 H 0.65188 0.52128 0.01914 0.0
H1794 H 0.65457 0.68295 0.84896 0.0
H1795 H 0.65522 0.68197 0.95367 0.0
H1796 H 0.65367 0.71906 0.96692 0.0
H1797 H 0.65311 0.72014 0.86253 0.0
H1798 H 0.67838 0.71182 0.04999 0.0
H1799 H 0.61053 0.69907 0.96921 0.0
H1800 H 0.58673 0.68603 0.9051 0.0
H1801 H 0.59901 0.65568 0.99122 0.0
H1802 H 0.62305 0.66857 0.05544 0.0
H1803 H 0.63032 0.72544 0.29725 0.0
H1804 H 0.64091 0.72167 0.20025 0.0
H1805 H 0.63 0.68432 0.23133 0.0
H1806 H 0.61837 0.68801 0.32811 0.0
H1807 H 0.61627 0.68803 0.12983 0.0
H1808 H 0.67828 0.70037 0.22407 0.0
H1809 H 0.70393 0.71247 0.2863 0.0
H1810 H 0.70558 0.742 0.17653 0.0
H1811 H 0.67968 0.73015 0.1141 0.0
C1812 C 0.65477 0.69095 0.87414 0.0
C1813 C 0.65349 0.7016 0.84749 0.0
C1814 C 0.65512 0.69037 0.93396 0.0
C1815 C 0.65422 0.70041 0.96797 0.0
C1816 C 0.65434 0.71121 0.94143 0.0
C1817 C 0.65392 0.71179 0.88174 0.0
C1818 C 0.65103 0.69958 0.0307 0.0
C1819 C 0.66482 0.70664 0.06767 0.0
C1820 C 0.63371 0.69244 0.05375 0.0
C1821 C 0.61867 0.68476 0.01676 0.0
C1822 C 0.60816 0.68962 0.97438 0.0
C1823 C 0.59465 0.68225 0.93801 0.0
C1824 C 0.59141 0.67003 0.94397 0.0
C1825 C 0.60156 0.66515 0.9866 0.0
C1826 C 0.61511 0.67248 0.02303 0.0
C1827 C 0.63013 0.7164 0.2836 0.0
C1828 C 0.6239 0.70705 0.32104 0.0
C1829 C 0.63643 0.71427 0.22822 0.0
C1830 C 0.63681 0.70274 0.20891 0.0
C1831 C 0.63017 0.69332 0.24563 0.0
C1832 C 0.62373 0.69545 0.30122 0.0
C1833 C 0.6433 0.70065 0.1494 0.0
C1834 C 0.6301 0.69303 0.11283 0.0
C1835 C 0.66137 0.70714 0.12694 0.0
C1836 C 0.67691 0.71437 0.1645 0.0
C1837 C 0.68398 0.70947 0.2134 0.0
C1838 C 0.69859 0.71629 0.2487 0.0
C1839 C 0.70637 0.728 0.2354 0.0
C1840 C 0.69955 0.73292 0.18677 0.0
C1841 C 0.68491 0.72615 0.15136 0.0
H1842 H 0.71771 0.73325 0.26273 0.0
H1843 H 0.58101 0.66434 0.91563 0.0
H1844 H 0.35541 0.45638 0.05374 0.0
H1845 H 0.3445 0.45178 0.95458 0.0
H1846 H 0.28367 0.44033 0.01164 0.0
H1847 H 0.2943 0.44546 0.11033 0.0
H1848 H 0.32766 0.43213 0.89888 0.0
H1849 H 0.25204 0.44767 0.90962 0.0
H1850 H 0.23573 0.46146 0.96595 0.0
H1851 H 0.29317 0.48315 0.00347 0.0
H1852 H 0.30977 0.46957 0.94677 0.0
H1853 H 0.28578 0.42038 0.62229 0.0
H1854 H 0.28565 0.42091 0.72727 0.0
H1855 H 0.30021 0.45892 0.72688 0.0
H1856 H 0.29989 0.45849 0.62251 0.0
H1857 H 0.27607 0.45181 0.81375 0.0
H1858 H 0.33714 0.44254 0.73375 0.0
H1859 H 0.35661 0.43085 0.67476 0.0
H1860 H 0.33359 0.40013 0.77225 0.0
H1861 H 0.31381 0.41163 0.83141 0.0
C1862 C 0.33972 0.45283 0.04513 0.0
C1863 C 0.32581 0.45106 0.09001 0.0
C1864 C 0.33353 0.45014 0.98856 0.0
C1865 C 0.31327 0.44572 0.97574 0.0
C1866 C 0.29937 0.44376 0.02056 0.0
C1867 C 0.30555 0.44652 0.07716 0.0
C1868 C 0.30674 0.44364 0.91517 0.0
C1869 C 0.31623 0.43634 0.88043 0.0
C1870 C 0.29196 0.44921 0.89096 0.0
C1871 C 0.28213 0.45752 0.92458 0.0
C1872 C 0.26117 0.4554 0.92979 0.0
C1873 C 0.25188 0.46318 0.96178 0.0
C1874 C 0.26341 0.47315 0.98847 0.0
C1875 C 0.28425 0.47539 0.98299 0.0
C1876 C 0.29361 0.46765 0.95099 0.0
C1877 C 0.28851 0.42885 0.64458 0.0
C1878 C 0.2932 0.43939 0.61411 0.0
C1879 C 0.28848 0.42914 0.70454 0.0
C1880 C 0.29331 0.43995 0.7348 0.0
C1881 C 0.29651 0.45048 0.70442 0.0
C1882 C 0.29643 0.45021 0.64465 0.0
C1883 C 0.29714 0.4404 0.79742 0.0
C1884 C 0.28715 0.44738 0.83256 0.0
C1885 C 0.31187 0.4348 0.82174 0.0
C1886 C 0.32384 0.4279 0.78651 0.0
C1887 C 0.33614 0.43328 0.74233 0.0
C1888 C 0.34724 0.42669 0.70891 0.0
C1889 C 0.34628 0.41474 0.71963 0.0
C1890 C 0.33428 0.40937 0.76392 0.0
C1891 C 0.32313 0.41592 0.79742 0.0
H1892 H 0.35488 0.40965 0.69371 0.0
H1893 H 0.25619 0.47915 0.01326 0.0
H1894 H 0.3755 0.29744 0.02342 0.0
H1895 H 0.38725 0.30176 0.92583 0.0
H1896 H 0.44797 0.3119 0.98872 0.0
H1897 H 0.43644 0.30707 0.0859 0.0
H1898 H 0.40605 0.32121 0.87441 0.0
H1899 H 0.47909 0.30363 0.88723 0.0
H1900 H 0.49439 0.28991 0.94453 0.0
H1901 H 0.43611 0.26922 0.97684 0.0
H1902 H 0.42051 0.28275 0.91933 0.0
H1903 H 0.44738 0.3292 0.59761 0.0
H1904 H 0.44893 0.32944 0.70253 0.0
H1905 H 0.42743 0.29182 0.7019 0.0
H1906 H 0.42611 0.29146 0.59745 0.0
H1907 H 0.45444 0.29878 0.78839 0.0
H1908 H 0.39461 0.31022 0.70964 0.0
H1909 H 0.37718 0.32267 0.65077 0.0
H1910 H 0.40511 0.35336 0.74838 0.0
H1911 H 0.42291 0.3411 0.80737 0.0
C1912 C 0.39134 0.30067 0.01647 0.0
C1913 C 0.40497 0.30213 0.06252 0.0
C1914 C 0.39802 0.3032 0.9608 0.0
C1915 C 0.41848 0.30714 0.95004 0.0
C1916 C 0.43212 0.30884 0.99608 0.0
C1917 C 0.42544 0.30625 0.05181 0.0
C1918 C 0.42543 0.30888 0.89015 0.0
C1919 C 0.41682 0.31642 0.85581 0.0
C1920 C 0.43945 0.30261 0.86585 0.0
C1921 C 0.44866 0.29426 0.89949 0.0
C1922 C 0.46957 0.29612 0.90641 0.0
C1923 C 0.47829 0.28839 0.93895 0.0
C1924 C 0.46623 0.27871 0.9644 0.0
C1925 C 0.44543 0.27673 0.95724 0.0
C1926 C 0.43664 0.28444 0.92474 0.0
C1927 C 0.44342 0.32095 0.61978 0.0
C1928 C 0.43626 0.31034 0.58934 0.0
C1929 C 0.4443 0.32111 0.67969 0.0
C1930 C 0.438 0.31068 0.70989 0.0
C1931 C 0.43234 0.29997 0.6794 0.0
C1932 C 0.43145 0.2998 0.61967 0.0
C1933 C 0.43482 0.31098 0.77261 0.0
C1934 C 0.4441 0.30382 0.80744 0.0
C1935 C 0.42115 0.31744 0.79726 0.0
C1936 C 0.41024 0.32478 0.76243 0.0
C1937 C 0.39711 0.31964 0.7183 0.0
C1938 C 0.38716 0.32665 0.68495 0.0
C1939 C 0.39008 0.3388 0.69572 0.0
C1940 C 0.4029 0.34395 0.74002 0.0
C1941 C 0.41291 0.33698 0.77343 0.0
H1942 H 0.38238 0.34422 0.66983 0.0
H1943 H 0.473 0.27273 0.98952 0.0
H1944 H 0.56611 0.0196 0.46285 0.0
H1945 H 0.57728 0.02217 0.56257 0.0
H1946 H 0.58807 0.05995 0.5452 0.0
H1947 H 0.57699 0.05741 0.44484 0.0
H1948 H 0.61804 0.05313 0.6051 0.0
H1949 H 0.54637 0.04596 0.61129 0.0
H1950 H 0.51199 0.03546 0.58934 0.0
H1951 H 0.52403 0.00456 0.6709 0.0
H1952 H 0.55859 0.01483 0.69264 0.0
H1953 H 0.61548 0.0663 0.90746 0.0
H1954 H 0.61277 0.06461 0.80306 0.0
H1955 H 0.60148 0.02668 0.81317 0.0
H1956 H 0.60385 0.02828 0.91755 0.0
H1957 H 0.57238 0.03418 0.7562 0.0
H1958 H 0.64435 0.04196 0.75242 0.0
H1959 H 0.67829 0.05298 0.77553 0.0
H1960 H 0.66524 0.08338 0.69163 0.0
H1961 H 0.6311 0.07259 0.66868 0.0
C1962 C 0.57083 0.02846 0.48029 0.0
C1963 C 0.57079 0.0383 0.44607 0.0
C1964 C 0.57723 0.02992 0.53722 0.0
C1965 C 0.58333 0.04126 0.56143 0.0
C1966 C 0.58351 0.05113 0.52721 0.0
C1967 C 0.57723 0.04966 0.46993 0.0
C1968 C 0.58896 0.04272 0.62291 0.0
C1969 C 0.608 0.04912 0.63831 0.0
C1970 C 0.57593 0.03733 0.66603 0.0
C1971 C 0.55513 0.03113 0.65311 0.0
C1972 C 0.54174 0.0369 0.62415 0.0
C1973 C 0.52221 0.03099 0.61181 0.0
C1974 C 0.51585 0.01934 0.62858 0.0
C1975 C 0.52899 0.01358 0.65786 0.0
C1976 C 0.54854 0.01944 0.67025 0.0
C1977 C 0.61292 0.0576 0.88742 0.0
C1978 C 0.60959 0.04742 0.92079 0.0
C1979 C 0.61143 0.05665 0.82767 0.0
C1980 C 0.60683 0.04551 0.80039 0.0
C1981 C 0.60491 0.03536 0.83344 0.0
C1982 C 0.6063 0.03629 0.89309 0.0
C1983 C 0.60163 0.04441 0.73856 0.0
C1984 C 0.58253 0.03814 0.72309 0.0
C1985 C 0.61456 0.05 0.69569 0.0
C1986 C 0.6351 0.05649 0.7093 0.0
C1987 C 0.64866 0.05103 0.73931 0.0
C1988 C 0.66794 0.05723 0.75229 0.0
C1989 C 0.6739 0.06889 0.73518 0.0
C1990 C 0.6606 0.07435 0.70491 0.0
C1991 C 0.64128 0.06819 0.69184 0.0
H1992 H 0.68884 0.07367 0.74528 0.0
H1993 H 0.50072 0.01479 0.619 0.0
H1994 H 0.62276 0.19136 0.84008 0.0
H1995 H 0.63297 0.18967 0.74015 0.0
H1996 H 0.62905 0.22602 0.71473 0.0
H1997 H 0.61921 0.22784 0.81446 0.0
H1998 H 0.6109 0.21198 0.62937 0.0
H1999 H 0.67395 0.21815 0.72986 0.0
H2000 H 0.69803 0.21395 0.80203 0.0
H2001 H 0.69604 0.17964 0.72539 0.0
H2002 H 0.67168 0.18357 0.65325 0.0
H2003 H 0.65746 0.22374 0.36771 0.0
H2004 H 0.65488 0.22439 0.47199 0.0
H2005 H 0.65457 0.18708 0.47707 0.0
H2006 H 0.6573 0.18634 0.37249 0.0
H2007 H 0.67489 0.20042 0.57234 0.0
H2008 H 0.61174 0.19462 0.47116 0.0
H2009 H 0.58903 0.19953 0.39678 0.0
H2010 H 0.59177 0.23373 0.47527 0.0
H2011 H 0.61483 0.2291 0.54958 0.0
C2012 C 0.62447 0.19906 0.81361 0.0
C2013 C 0.62058 0.20981 0.83556 0.0
C2014 C 0.63017 0.19805 0.75638 0.0
C2015 C 0.63198 0.20777 0.72027 0.0
C2016 C 0.62776 0.21842 0.74189 0.0
C2017 C 0.62211 0.21943 0.7989 0.0
C2018 C 0.63792 0.20687 0.65954 0.0
C2019 C 0.62497 0.20955 0.61703 0.0
C2020 C 0.6561 0.20347 0.6434 0.0
C2021 C 0.67081 0.2011 0.68656 0.0
C2022 C 0.6785 0.20967 0.72869 0.0
C2023 C 0.69223 0.20734 0.76955 0.0
C2024 C 0.69852 0.19652 0.7684 0.0
C2025 C 0.69113 0.18801 0.72629 0.0
C2026 C 0.67736 0.19028 0.6854 0.0
C2027 C 0.65733 0.21572 0.39099 0.0
C2028 C 0.65717 0.20494 0.36177 0.0
C2029 C 0.65587 0.21611 0.45058 0.0
C2030 C 0.65412 0.20574 0.48189 0.0
C2031 C 0.6558 0.19516 0.45348 0.0
C2032 C 0.65731 0.19476 0.39372 0.0
C2033 C 0.64801 0.2057 0.54269 0.0
C2034 C 0.66081 0.20279 0.58495 0.0
C2035 C 0.6297 0.20893 0.55881 0.0
C2036 C 0.61518 0.21155 0.51559 0.0
C2037 C 0.60758 0.2032 0.47241 0.0
C2038 C 0.59465 0.20594 0.43026 0.0
C2039 C 0.58906 0.21696 0.43113 0.0
C2040 C 0.59619 0.22521 0.47456 0.0
C2041 C 0.60917 0.22254 0.51673 0.0
H2042 H 0.57923 0.2191 0.39812 0.0
H2043 H 0.70915 0.19474 0.80004 0.0
H2044 H 0.34422 0.9599 0.54715 0.0
H2045 H 0.33105 0.95551 0.44982 0.0
H2046 H 0.27699 0.93471 0.51747 0.0
H2047 H 0.2894 0.93965 0.61496 0.0
H2048 H 0.30378 0.92581 0.41028 0.0
H2049 H 0.26337 0.95361 0.48044 0.0
H2050 H 0.2592 0.97181 0.53215 0.0
H2051 H 0.30086 0.99243 0.41838 0.0
H2052 H 0.30552 0.97432 0.36663 0.0
H2053 H 0.27129 0.92379 0.11838 0.0
H2054 H 0.2681 0.92397 0.22312 0.0
H2055 H 0.30715 0.95814 0.23256 0.0
H2056 H 0.30981 0.95822 0.12892 0.0
H2057 H 0.27918 0.95755 0.30808 0.0
H2058 H 0.32419 0.93143 0.24899 0.0
H2059 H 0.33275 0.91415 0.19811 0.0
H2060 H 0.28678 0.89122 0.28982 0.0
H2061 H 0.27782 0.90841 0.34076 0.0
C2062 C 0.32958 0.95433 0.54137 0.0
C2063 C 0.31815 0.94984 0.58886 0.0
C2064 C 0.32214 0.95181 0.48588 0.0
C2065 C 0.30318 0.94473 0.47695 0.0
C2066 C 0.29178 0.94006 0.52388 0.0
C2067 C 0.29907 0.94276 0.57957 0.0
C2068 C 0.29518 0.94274 0.41819 0.0
C2069 C 0.29785 0.93256 0.38801 0.0
C2070 C 0.28789 0.9517 0.38954 0.0
C2071 C 0.28492 0.96261 0.42004 0.0
C2072 C 0.27178 0.96202 0.46681 0.0
C2073 C 0.2693 0.97232 0.49605 0.0
C2074 C 0.27979 0.98327 0.47864 0.0
C2075 C 0.29275 0.98394 0.43185 0.0
C2076 C 0.2953 0.97367 0.40252 0.0
C2077 C 0.27894 0.9314 0.14287 0.0
C2078 C 0.29099 0.94092 0.11544 0.0
C2079 C 0.27715 0.93147 0.20264 0.0
C2080 C 0.28763 0.94099 0.23571 0.0
C2081 C 0.29889 0.9507 0.20803 0.0
C2082 C 0.3005 0.9507 0.14861 0.0
C2083 C 0.28825 0.94071 0.29913 0.0
C2084 C 0.28436 0.95054 0.33038 0.0
C2085 C 0.29476 0.9315 0.32853 0.0
C2086 C 0.30017 0.92119 0.29806 0.0
C2087 C 0.31583 0.92271 0.25797 0.0
C2088 C 0.32076 0.91293 0.22918 0.0
C2089 C 0.31027 0.9016 0.24057 0.0
C2090 C 0.29486 0.90001 0.28092 0.0
C2091 C 0.28985 0.90976 0.30976 0.0
H2092 H 0.31411 0.89404 0.21825 0.0
H2093 H 0.27786 0.99124 0.50133 0.0
H2094 H 0.41643 0.79136 0.09096 0.0
H2095 H 0.41521 0.79225 0.19525 0.0
H2096 H 0.45163 0.82715 0.19618 0.0
H2097 H 0.45265 0.8265 0.0909 0.0
H2098 H 0.45581 0.80438 0.28833 0.0
H2099 H 0.41704 0.8335 0.21962 0.0
H2100 H 0.39345 0.8394 0.15051 0.0
H2101 H 0.34962 0.80862 0.18954 0.0
H2102 H 0.37311 0.80247 0.25823 0.0
H2103 H 0.42797 0.81145 0.57809 0.0
H2104 H 0.43846 0.81629 0.48016 0.0
H2105 H 0.3828 0.7956 0.41615 0.0
H2106 H 0.37165 0.79142 0.51444 0.0
H2107 H 0.39194 0.81455 0.35629 0.0
H2108 H 0.42764 0.78498 0.42122 0.0
H2109 H 0.44989 0.77662 0.48552 0.0
H2110 H 0.49818 0.80541 0.4508 0.0
H2111 H 0.47612 0.81402 0.38685 0.0
C2112 C 0.42451 0.79917 0.1131 0.0
C2113 C 0.4344 0.80894 0.08256 0.0
C2114 C 0.42382 0.79963 0.17272 0.0
C2115 C 0.43319 0.80978 0.2029 0.0
C2116 C 0.4443 0.81925 0.17319 0.0
C2117 C 0.44484 0.81886 0.1132 0.0
C2118 C 0.4293 0.81077 0.26469 0.0
C2119 C 0.44217 0.80691 0.30378 0.0
C2120 C 0.41114 0.81368 0.28388 0.0
C2121 C 0.39688 0.81748 0.24357 0.0
C2122 C 0.40243 0.82795 0.21308 0.0
C2123 C 0.38907 0.83135 0.17407 0.0
C2124 C 0.37006 0.82437 0.16553 0.0
C2125 C 0.36435 0.81401 0.19614 0.0
C2126 C 0.37767 0.81057 0.23515 0.0
C2127 C 0.41763 0.80832 0.54336 0.0
C2128 C 0.39869 0.80137 0.55401 0.0
C2129 C 0.42383 0.81089 0.48725 0.0
C2130 C 0.4115 0.80623 0.44074 0.0
C2131 C 0.39253 0.79935 0.45136 0.0
C2132 C 0.38621 0.79692 0.50746 0.0
C2133 C 0.41847 0.80815 0.38088 0.0
C2134 C 0.40598 0.81239 0.34175 0.0
C2135 C 0.43687 0.80542 0.36168 0.0
C2136 C 0.45017 0.80022 0.39982 0.0
C2137 C 0.44297 0.78957 0.42764 0.0
C2138 C 0.45555 0.78478 0.46397 0.0
C2139 C 0.47542 0.7905 0.47239 0.0
C2140 C 0.48277 0.801 0.44434 0.0
C2141 C 0.47024 0.80584 0.40803 0.0
H2142 H 0.48514 0.78678 0.50053 0.0
H2143 H 0.35974 0.82701 0.13528 0.0
H2144 H 0.07899 0.57541 0.06917 0.0
H2145 H 0.08285 0.59677 0.06724 0.0
H2146 H 0.08981 0.59872 0.25137 0.0
H2147 H 0.08509 0.57714 0.2538 0.0
H2148 H 0.06805 0.61402 0.21772 0.0
H2149 H 0.1308 0.60456 0.16007 0.0
H2150 H 0.15292 0.59416 0.10346 0.0
H2151 H 0.13465 0.60876 0.94884 0.0
H2152 H 0.11221 0.61913 0.00445 0.0
H2153 H 0.11585 0.6746 0.22958 0.0
H2154 H 0.10761 0.65317 0.23567 0.0
H2155 H 0.09485 0.65032 0.05416 0.0
H2156 H 0.10319 0.67181 0.04741 0.0
H2157 H 0.11963 0.63561 0.08825 0.0
H2158 H 0.05711 0.64539 0.14864 0.0
H2159 H 0.0355 0.65578 0.20721 0.0
H2160 H 0.05458 0.6408 0.35974 0.0
H2161 H 0.07652 0.63044 0.30214 0.0
C2162 C 0.08129 0.58037 0.10934 0.0
C2163 C 0.08198 0.57462 0.16162 0.0
C2164 C 0.08356 0.59259 0.10814 0.0
C2165 C 0.08713 0.59938 0.15899 0.0
C2166 C 0.0872 0.59366 0.21156 0.0
C2167 C 0.08455 0.58135 0.21291 0.0
C2168 C 0.0912 0.61243 0.15673 0.0
C2169 C 0.07952 0.61875 0.19004 0.0
C2170 C 0.10595 0.6186 0.11985 0.0
C2171 C 0.11971 0.61255 0.08639 0.0
C2172 C 0.13143 0.60551 0.11396 0.0
C2173 C 0.14402 0.59962 0.08206 0.0
C2174 C 0.14515 0.60078 0.02258 0.0
C2175 C 0.13374 0.60786 0.99491 0.0
C2176 C 0.1211 0.61376 0.02661 0.0
C2177 C 0.11117 0.66944 0.19092 0.0
C2178 C 0.11019 0.67492 0.13794 0.0
C2179 C 0.10638 0.65719 0.1946 0.0
C2180 C 0.10048 0.65018 0.14546 0.0
C2181 C 0.09933 0.6556 0.09259 0.0
C2182 C 0.10405 0.66787 0.08887 0.0
C2183 C 0.09638 0.63717 0.14886 0.0
C2184 C 0.10815 0.63086 0.11589 0.0
C2185 C 0.08186 0.63105 0.18644 0.0
C2186 C 0.0686 0.63722 0.22111 0.0
C2187 C 0.05682 0.64438 0.19472 0.0
C2188 C 0.04449 0.65025 0.22773 0.0
C2189 C 0.04371 0.64897 0.28717 0.0
C2190 C 0.05521 0.64179 0.3137 0.0
C2191 C 0.06758 0.63591 0.28088 0.0
H2192 H 0.03415 0.65352 0.31266 0.0
H2193 H 0.1549 0.5962 0.99795 0.0
H2194 H 0.83731 0.41537 0.94487 0.0
H2195 H 0.84964 0.3969 0.93484 0.0
H2196 H 0.8446 0.39823 0.75093 0.0
H2197 H 0.83264 0.41688 0.76034 0.0
H2198 H 0.82945 0.37477 0.80883 0.0
H2199 H 0.88714 0.40648 0.7919 0.0
H2200 H 0.90899 0.42506 0.82389 0.0
H2201 H 0.92031 0.40931 0.98274 0.0
H2202 H 0.89825 0.39068 0.95202 0.0
H2203 H 0.88507 0.33065 0.7435 0.0
H2204 H 0.87376 0.34948 0.74237 0.0
H2205 H 0.89243 0.35624 0.91874 0.0
H2206 H 0.9041 0.33757 0.92005 0.0
H2207 H 0.90072 0.37595 0.86029 0.0
H2208 H 0.8437 0.34521 0.88545 0.0
H2209 H 0.82052 0.32648 0.86305 0.0
H2210 H 0.80637 0.33986 0.70079 0.0
H2211 H 0.82966 0.35863 0.72197 0.0
C2212 C 0.83856 0.41167 0.90228 0.0
C2213 C 0.8341 0.41761 0.85334 0.0
C2214 C 0.84565 0.40115 0.89669 0.0
C2215 C 0.84811 0.3963 0.84218 0.0
C2216 C 0.84279 0.40188 0.79331 0.0
C2217 C 0.83602 0.41253 0.79879 0.0
C2218 C 0.85721 0.38573 0.83643 0.0
C2219 C 0.8451 0.37502 0.81905 0.0
C2220 C 0.87745 0.38609 0.85162 0.0
C2221 C 0.89088 0.39723 0.86989 0.0
C2222 C 0.89414 0.40701 0.83386 0.0
C2223 C 0.90659 0.41754 0.85172 0.0
C2224 C 0.91599 0.41837 0.90538 0.0
C2225 C 0.913 0.40866 0.94121 0.0
C2226 C 0.90054 0.39811 0.92358 0.0
C2227 C 0.88703 0.33621 0.78184 0.0
C2228 C 0.89531 0.33254 0.83207 0.0
C2229 C 0.88046 0.34694 0.78119 0.0
C2230 C 0.88189 0.35414 0.83083 0.0
C2231 C 0.8911 0.3508 0.88003 0.0
C2232 C 0.89776 0.3401 0.88068 0.0
C2233 C 0.873 0.36489 0.83243 0.0
C2234 C 0.88511 0.37566 0.84936 0.0
C2235 C 0.85263 0.36453 0.81793 0.0
C2236 C 0.8386 0.35327 0.805 0.0
C2237 C 0.83577 0.34412 0.84478 0.0
C2238 C 0.82259 0.33351 0.83236 0.0
C2239 C 0.81203 0.33197 0.78044 0.0
C2240 C 0.81459 0.34106 0.74094 0.0
C2241 C 0.82776 0.35169 0.75315 0.0
H2242 H 0.80183 0.32375 0.7709 0.0
H2243 H 0.92563 0.42653 0.91913 0.0
H2244 H 0.11136 0.07566 0.59204 0.0
H2245 H 0.11782 0.09716 0.58977 0.0
H2246 H 0.07047 0.09781 0.71236 0.0
H2247 H 0.06481 0.07632 0.71725 0.0
H2248 H 0.09825 0.11204 0.55666 0.0
H2249 H 0.07837 0.12279 0.7918 0.0
H2250 H 0.07956 0.11451 0.88813 0.0
H2251 H 0.12683 0.09695 0.83421 0.0
H2252 H 0.12613 0.10527 0.73787 0.0
H2253 H 0.09176 0.17227 0.57152 0.0
H2254 H 0.08478 0.15077 0.57798 0.0
H2255 H 0.13354 0.15288 0.69912 0.0
H2256 H 0.13964 0.17434 0.69549 0.0
H2257 H 0.1058 0.13726 0.73298 0.0
H2258 H 0.13636 0.14503 0.54993 0.0
H2259 H 0.14079 0.15347 0.45349 0.0
H2260 H 0.08278 0.13412 0.40295 0.0
H2261 H 0.07787 0.1257 0.4994 0.0
C2262 C 0.10243 0.08041 0.61879 0.0
C2263 C 0.08767 0.07435 0.65509 0.0
C2264 C 0.10607 0.09269 0.6173 0.0
C2265 C 0.0948 0.09916 0.65134 0.0
C2266 C 0.07974 0.09307 0.68678 0.0
C2267 C 0.07644 0.08079 0.68937 0.0
C2268 C 0.09872 0.11224 0.64912 0.0
C2269 C 0.09994 0.11755 0.59528 0.0
C2270 C 0.10131 0.11948 0.69936 0.0
C2271 C 0.10203 0.11455 0.75743 0.0
C2272 C 0.08907 0.1172 0.80058 0.0
C2273 C 0.08965 0.1125 0.85517 0.0
C2274 C 0.10321 0.10518 0.86722 0.0
C2275 C 0.11628 0.10259 0.82476 0.0
C2276 C 0.11579 0.10728 0.77015 0.0
C2277 C 0.10092 0.16811 0.59958 0.0
C2278 C 0.11624 0.17494 0.63294 0.0
C2279 C 0.09701 0.15582 0.60304 0.0
C2280 C 0.10886 0.15014 0.6383 0.0
C2281 C 0.12413 0.15701 0.67173 0.0
C2282 C 0.12767 0.16929 0.66949 0.0
C2283 C 0.10545 0.13707 0.64052 0.0
C2284 C 0.10418 0.13176 0.69437 0.0
C2285 C 0.10372 0.12984 0.59025 0.0
C2286 C 0.10667 0.13483 0.53207 0.0
C2287 C 0.12449 0.14264 0.51836 0.0
C2288 C 0.12709 0.14741 0.46369 0.0
C2289 C 0.11205 0.14436 0.42217 0.0
C2290 C 0.0944 0.1365 0.43519 0.0
C2291 C 0.09171 0.13172 0.48984 0.0
H2292 H 0.11409 0.14807 0.37987 0.0
H2293 H 0.10362 0.10153 0.90948 0.0
H2294 H 0.82654 0.91267 0.44642 0.0
H2295 H 0.83885 0.89421 0.43923 0.0
H2296 H 0.85402 0.90085 0.26195 0.0
H2297 H 0.84169 0.91939 0.26852 0.0
H2298 H 0.83599 0.87727 0.28277 0.0
H2299 H 0.88994 0.90703 0.35749 0.0
H2300 H 0.90523 0.92308 0.42423 0.0
H2301 H 0.89321 0.89966 0.56582 0.0
H2302 H 0.87757 0.8835 0.49998 0.0
H2303 H 0.89521 0.83364 0.25476 0.0
H2304 H 0.88489 0.85276 0.25434 0.0
H2305 H 0.87789 0.85167 0.43818 0.0
H2306 H 0.88907 0.83283 0.43913 0.0
H2307 H 0.89259 0.87301 0.41023 0.0
H2308 H 0.83732 0.84364 0.34046 0.0
H2309 H 0.82057 0.82735 0.27712 0.0
H2310 H 0.83318 0.84948 0.13089 0.0
H2311 H 0.85024 0.86586 0.19332 0.0
C2312 C 0.83225 0.91017 0.40563 0.0
C2313 C 0.83328 0.91757 0.35815 0.0
C2314 C 0.83937 0.89963 0.40173 0.0
C2315 C 0.84761 0.89628 0.35033 0.0
C2316 C 0.84779 0.90333 0.30206 0.0
C2317 C 0.84078 0.91393 0.30597 0.0
C2318 C 0.85672 0.88564 0.34778 0.0
C2319 C 0.84855 0.87637 0.31 0.0
C2320 C 0.8728 0.88442 0.38429 0.0
C2321 C 0.88243 0.89409 0.42385 0.0
C2322 C 0.89043 0.90533 0.4029 0.0
C2323 C 0.89918 0.91444 0.44056 0.0
C2324 C 0.90015 0.9124 0.49924 0.0
C2325 C 0.89243 0.90123 0.52036 0.0
C2326 C 0.88364 0.89209 0.48288 0.0
C2327 C 0.89168 0.83755 0.29514 0.0
C2328 C 0.89279 0.83169 0.34693 0.0
C2329 C 0.88566 0.84844 0.29482 0.0
C2330 C 0.8801 0.85353 0.34606 0.0
C2331 C 0.882 0.84791 0.39805 0.0
C2332 C 0.88839 0.83713 0.39854 0.0
C2333 C 0.87176 0.8645 0.34555 0.0
C2334 C 0.88008 0.87387 0.38276 0.0
C2335 C 0.85563 0.86574 0.30901 0.0
C2336 C 0.84522 0.85594 0.27148 0.0
C2337 C 0.83662 0.84501 0.29475 0.0
C2338 C 0.82706 0.83576 0.25902 0.0
C2339 C 0.82586 0.83737 0.2 0.0
C2340 C 0.83415 0.84824 0.1766 0.0
C2341 C 0.84375 0.85751 0.21214 0.0
H2342 H 0.81846 0.83019 0.1724 0.0
H2343 H 0.90692 0.91947 0.52833 0.0
H2344 H 0.59432 0.67567 0.7114 0.0
H2345 H 0.5855 0.6543 0.72147 0.0
H2346 H 0.61057 0.64944 0.55464 0.0
H2347 H 0.61805 0.67084 0.54288 0.0
H2348 H 0.57951 0.63336 0.56726 0.0
H2349 H 0.6367 0.64867 0.6907 0.0
H2350 H 0.65389 0.66166 0.76819 0.0
H2351 H 0.60909 0.64613 0.88789 0.0
H2352 H 0.5915 0.63316 0.81097 0.0
H2353 H 0.60065 0.57661 0.59159 0.0
H2354 H 0.60387 0.59791 0.58603 0.0
H2355 H 0.57246 0.59854 0.74628 0.0
H2356 H 0.56946 0.57716 0.75284 0.0
H2357 H 0.60417 0.61653 0.74134 0.0
H2358 H 0.54833 0.60035 0.61951 0.0
H2359 H 0.53083 0.5875 0.54211 0.0
H2360 H 0.57317 0.6046 0.41963 0.0
H2361 H 0.59107 0.61747 0.49644 0.0
C2362 C 0.59771 0.67 0.67668 0.0
C2363 C 0.60699 0.67483 0.62658 0.0
C2364 C 0.59282 0.65781 0.68261 0.0
C2365 C 0.59794 0.65024 0.6396 0.0
C2366 C 0.60657 0.65509 0.5886 0.0
C2367 C 0.61088 0.66729 0.58189 0.0
C2368 C 0.59491 0.63732 0.64824 0.0
C2369 C 0.58512 0.6297 0.60505 0.0
C2370 C 0.6017 0.6325 0.69835 0.0
C2371 C 0.61271 0.64001 0.74498 0.0
C2372 C 0.63051 0.64805 0.73354 0.0
C2373 C 0.64031 0.65541 0.77735 0.0
C2374 C 0.63256 0.65474 0.83291 0.0
C2375 C 0.61506 0.64665 0.84484 0.0
C2376 C 0.60519 0.63928 0.80118 0.0
C2377 C 0.59445 0.58125 0.62583 0.0
C2378 C 0.58468 0.57516 0.67252 0.0
C2379 C 0.59625 0.59343 0.62243 0.0
C2380 C 0.58808 0.59977 0.6652 0.0
C2381 C 0.57878 0.5938 0.71268 0.0
C2382 C 0.57708 0.58158 0.71633 0.0
C2383 C 0.58917 0.61263 0.65984 0.0
C2384 C 0.59853 0.62022 0.70368 0.0
C2385 C 0.58205 0.61742 0.6103 0.0
C2386 C 0.57112 0.60983 0.56383 0.0
C2387 C 0.55397 0.60133 0.57613 0.0
C2388 C 0.54397 0.59405 0.53235 0.0
C2389 C 0.5509 0.59523 0.47601 0.0
C2390 C 0.56782 0.60371 0.4633 0.0
C2391 C 0.57787 0.61101 0.50692 0.0
H2392 H 0.54313 0.5896 0.44218 0.0
H2393 H 0.64013 0.66046 0.86675 0.0
H2394 H 0.34288 0.41971 0.28904 0.0
H2395 H 0.35493 0.4011 0.2863 0.0
H2396 H 0.34356 0.39708 0.46735 0.0
H2397 H 0.33152 0.4157 0.47069 0.0
H2398 H 0.38135 0.39357 0.43637 0.0
H2399 H 0.31309 0.38038 0.37461 0.0
H2400 H 0.2832 0.38056 0.31484 0.0
H2401 H 0.31557 0.37352 0.16423 0.0
H2402 H 0.34575 0.37346 0.22304 0.0
H2403 H 0.39369 0.33423 0.45814 0.0
H2404 H 0.38254 0.35306 0.46117 0.0
H2405 H 0.38592 0.35458 0.27659 0.0
H2406 H 0.39634 0.33549 0.27313 0.0
H2407 H 0.35223 0.35959 0.3096 0.0
H2408 H 0.42051 0.37281 0.36911 0.0
H2409 H 0.45086 0.37287 0.42726 0.0
H2410 H 0.41952 0.38021 0.57935 0.0
H2411 H 0.3889 0.38005 0.52219 0.0
C2412 C 0.34279 0.41483 0.32824 0.0
C2413 C 0.33625 0.4192 0.38012 0.0
C2414 C 0.34964 0.40419 0.32653 0.0
C2415 C 0.35008 0.39772 0.3766 0.0
C2416 C 0.34336 0.40197 0.42829 0.0
C2417 C 0.33638 0.41258 0.43001 0.0
C2418 C 0.35807 0.38667 0.37522 0.0
C2419 C 0.37486 0.38606 0.40926 0.0
C2420 C 0.3499 0.37705 0.33859 0.0
C2421 C 0.33174 0.37703 0.30318 0.0
C2422 C 0.31388 0.37897 0.32869 0.0
C2423 C 0.29688 0.37903 0.29499 0.0
C2424 C 0.2975 0.37709 0.23575 0.0
C2425 C 0.31511 0.37504 0.21011 0.0
C2426 C 0.33217 0.37498 0.24361 0.0
C2427 C 0.39234 0.33865 0.41822 0.0
C2428 C 0.39586 0.33336 0.36537 0.0
C2429 C 0.38601 0.34945 0.42003 0.0
C2430 C 0.38355 0.35532 0.36913 0.0
C2431 C 0.38765 0.35021 0.31642 0.0
C2432 C 0.39368 0.33932 0.31451 0.0
C2433 C 0.37566 0.36644 0.37061 0.0
C2434 C 0.35884 0.36708 0.33664 0.0
C2435 C 0.38392 0.37613 0.40698 0.0
C2436 C 0.40236 0.37632 0.44141 0.0
C2437 C 0.42005 0.37436 0.41501 0.0
C2438 C 0.43731 0.37442 0.44778 0.0
C2439 C 0.4371 0.37651 0.50698 0.0
C2440 C 0.41965 0.37858 0.5335 0.0
C2441 C 0.40235 0.37852 0.50092 0.0
H2442 H 0.45048 0.37655 0.53229 0.0
H2443 H 0.28432 0.37714 0.20974 0.0
H2444 H 0.60887 0.17214 0.04664 0.0
H2445 H 0.60111 0.15064 0.05281 0.0
H2446 H 0.60961 0.1535 0.23632 0.0
H2447 H 0.61783 0.1749 0.23045 0.0
H2448 H 0.6277 0.13725 0.1948 0.0
H2449 H 0.56244 0.14632 0.17475 0.0
H2450 H 0.53591 0.15517 0.13119 0.0
H2451 H 0.53946 0.13518 0.97561 0.0
H2452 H 0.56623 0.12632 0.01798 0.0
H2453 H 0.58438 0.07691 0.24775 0.0
H2454 H 0.58908 0.09849 0.24718 0.0
H2455 H 0.59102 0.09763 0.06236 0.0
H2456 H 0.5865 0.07618 0.0624 0.0
H2457 H 0.56649 0.11271 0.10857 0.0
H2458 H 0.63312 0.10437 0.13073 0.0
H2459 H 0.65892 0.09541 0.17754 0.0
H2460 H 0.65144 0.11413 0.33449 0.0
H2461 H 0.62535 0.12307 0.28877 0.0
C2462 C 0.609 0.16819 0.08831 0.0
C2463 C 0.61398 0.17524 0.13801 0.0
C2464 C 0.60448 0.1559 0.09183 0.0
C2465 C 0.60457 0.15046 0.14515 0.0
C2466 C 0.60947 0.1575 0.19474 0.0
C2467 C 0.61414 0.16974 0.19124 0.0
C2468 C 0.60013 0.13743 0.14927 0.0
C2469 C 0.61415 0.13192 0.1767 0.0
C2470 C 0.58259 0.13044 0.12501 0.0
C2471 C 0.56648 0.13574 0.09936 0.0
C2472 C 0.55768 0.14388 0.13108 0.0
C2473 C 0.54258 0.14889 0.10664 0.0
C2474 C 0.53604 0.14576 0.05062 0.0
C2475 C 0.54456 0.1376 0.01898 0.0
C2476 C 0.55968 0.13257 0.0432 0.0
C2477 C 0.58574 0.08132 0.20703 0.0
C2478 C 0.58518 0.07485 0.15515 0.0
C2479 C 0.58845 0.09363 0.20679 0.0
C2480 C 0.59045 0.09961 0.1547 0.0
C2481 C 0.58948 0.09316 0.10294 0.0
C2482 C 0.58702 0.0809 0.10313 0.0
C2483 C 0.59408 0.11263 0.15382 0.0
C2484 C 0.57993 0.11811 0.12695 0.0
C2485 C 0.61139 0.11961 0.17911 0.0
C2486 C 0.62713 0.11428 0.20653 0.0
C2487 C 0.63685 0.10649 0.17536 0.0
C2488 C 0.65155 0.10143 0.20167 0.0
C2489 C 0.65677 0.10417 0.259 0.0
C2490 C 0.64735 0.112 0.29011 0.0
C2491 C 0.63261 0.11707 0.26402 0.0
H2492 H 0.66816 0.10024 0.27929 0.0
H2493 H 0.52434 0.14965 0.03177 0.0
H2494 H 0.39966 0.83523 0.95369 0.0
H2495 H 0.38926 0.85429 0.9622 0.0
H2496 H 0.38389 0.85533 0.77827 0.0
H2497 H 0.3941 0.83624 0.76919 0.0
H2498 H 0.40175 0.87754 0.83388 0.0
H2499 H 0.34353 0.84575 0.84736 0.0
H2500 H 0.32488 0.82747 0.88915 0.0
H2501 H 0.32751 0.84459 0.05492 0.0
H2502 H 0.34641 0.86294 0.01416 0.0
H2503 H 0.33922 0.91814 0.79147 0.0
H2504 H 0.35276 0.90007 0.79099 0.0
H2505 H 0.34557 0.89796 0.97445 0.0
H2506 H 0.33153 0.91592 0.97526 0.0
H2507 H 0.33573 0.87669 0.92614 0.0
H2508 H 0.39114 0.90854 0.91723 0.0
H2509 H 0.4112 0.92705 0.88189 0.0
H2510 H 0.41623 0.91054 0.71732 0.0
H2511 H 0.39588 0.89197 0.75141 0.0
C2512 C 0.39661 0.83959 0.91491 0.0
C2513 C 0.39753 0.83414 0.86069 0.0
C2514 C 0.39063 0.85046 0.91994 0.0
C2515 C 0.38563 0.85612 0.87089 0.0
C2516 C 0.38767 0.85107 0.81659 0.0
C2517 C 0.39344 0.84013 0.81153 0.0
C2518 C 0.37684 0.86683 0.87623 0.0
C2519 C 0.38724 0.87737 0.85353 0.0
C2520 C 0.35823 0.86662 0.9036 0.0
C2521 C 0.34653 0.85567 0.92784 0.0
C2522 C 0.34023 0.84559 0.89278 0.0
C2523 C 0.3296 0.83523 0.91626 0.0
C2524 C 0.32505 0.83486 0.97468 0.0
C2525 C 0.33106 0.84488 0.00969 0.0
C2526 C 0.34171 0.85527 0.98641 0.0
C2527 C 0.3403 0.91378 0.83171 0.0
C2528 C 0.33444 0.91854 0.88348 0.0
C2529 C 0.34817 0.90349 0.83138 0.0
C2530 C 0.3506 0.89783 0.88285 0.0
C2531 C 0.34395 0.90224 0.93429 0.0
C2532 C 0.33593 0.91251 0.93463 0.0
C2533 C 0.36047 0.88745 0.8829 0.0
C2534 C 0.35029 0.87695 0.90671 0.0
C2535 C 0.37947 0.88776 0.85746 0.0
C2536 C 0.39182 0.89889 0.83674 0.0
C2537 C 0.39639 0.90888 0.87336 0.0
C2538 C 0.40784 0.91938 0.85358 0.0
C2539 C 0.41496 0.91998 0.79736 0.0
C2540 C 0.41068 0.91007 0.76085 0.0
C2541 C 0.3992 0.89954 0.78039 0.0
H2542 H 0.42382 0.92812 0.78213 0.0
H2543 H 0.31684 0.82683 0.99279 0.0
loop_
_geom_bond_atom_site_label_1
_geom_bond_atom_site_label_2
_geom_bond_distance
_geom_bond_site_symmetry_2
_ccdc_geom_bond_type
Co0 O3 1.970 . S
Co0 N17 1.989 . S
Co0 O25 1.967 . S
Co0 O32 1.920 . S
Co1 O4 1.966 . S
Co1 N10 2.022 . S
Co1 N18 1.993 . S
Co1 O26 1.941 . S
C2 O3 1.258 . S
C2 O4 1.263 . S
O3 Co0 1.970 . S
O3 C2 1.258 . S
O4 Co1 1.966 . S
O4 C2 1.263 . S
C5 O6 1.235 . S
C5 O32 1.289 . S
O6 C5 1.235 . S
C7 C9 1.400 . S
C7 N10 1.351 . S
C7 C12 1.501 . S
C8 C9 1.387 . S
C8 N11 1.341 . S
C9 C7 1.400 . S
C9 C8 1.387 . S
N10 Co1 2.022 . S
N10 C7 1.351 . S
N10 N11 1.365 . S
N11 C8 1.341 . S
N11 N10 1.365 . S
N11 H31 0.862 . S
C12 C7 1.501 . S
C12 H13 0.961 . S
C12 H14 0.961 . S
C12 H15 0.960 . S
H13 C12 0.961 . S
H14 C12 0.961 . S
H15 C12 0.960 . S
C16 N17 1.342 . S
C16 C20 1.401 . S
C16 C21 1.499 . S
N17 Co0 1.989 . S
N17 C16 1.342 . S
N17 N18 1.388 . S
N18 Co1 1.993 . S
N18 N17 1.388 . S
N18 C19 1.346 . S
C19 N18 1.346 . S
C19 C20 1.396 . S
C19 C29 1.510 . S
C20 C16 1.401 . S
C20 C19 1.396 . S
C21 C16 1.499 . S
C21 H22 0.959 . S
C21 H23 0.960 . S
C21 H24 0.961 . S
H22 C21 0.959 . S
H23 C21 0.960 . S
H24 C21 0.961 . S
O25 Co0 1.967 . S
O25 C33 1.258 . S
O26 Co1 1.941 . S
O26 C33 1.266 . S
H27 C29 0.959 . S
H28 C29 0.961 . S
C29 C19 1.510 . S
C29 H27 0.959 . S
C29 H28 0.961 . S
C29 H30 0.960 . S
H30 C29 0.960 . S
H31 N11 0.862 . S
O32 Co0 1.920 . S
O32 C5 1.289 . S
C33 O25 1.258 . S
C33 O26 1.266 . S
Co34 O37 1.970 . S
Co34 N51 1.989 . S
Co34 O59 1.967 . S
Co34 O66 1.920 . S
Co35 O38 1.966 . S
Co35 N44 2.022 1_554 S
Co35 N52 1.993 . S
Co35 O60 1.941 . S
C36 O37 1.258 . S
C36 O38 1.263 . S
O37 Co34 1.970 . S
O37 C36 1.258 . S
O38 Co35 1.966 . S
O38 C36 1.263 . S
C39 O40 1.235 . S
C39 O66 1.289 . S
O40 C39 1.235 . S
C41 C43 1.400 . S
C41 N44 1.351 . S
C41 C46 1.501 . S
C42 C43 1.387 . S
C42 N45 1.341 . S
C43 C41 1.400 . S
C43 C42 1.387 . S
N44 Co35 2.022 1_556 S
N44 C41 1.351 . S
N44 N45 1.365 . S
N45 C42 1.341 . S
N45 N44 1.365 . S
N45 H65 0.862 . S
C46 C41 1.501 . S
C46 H47 0.961 . S
C46 H48 0.961 . S
C46 H49 0.960 . S
H47 C46 0.961 . S
H48 C46 0.961 . S
H49 C46 0.960 . S
C50 N51 1.342 . S
C50 C54 1.401 . S
C50 C55 1.499 . S
N51 Co34 1.989 . S
N51 C50 1.342 . S
N51 N52 1.388 . S
N52 Co35 1.993 . S
N52 N51 1.388 . S
N52 C53 1.346 . S
C53 N52 1.346 . S
C53 C54 1.396 . S
C53 C63 1.510 1_554 S
C54 C50 1.401 . S
C54 C53 1.396 . S
C55 C50 1.499 . S
C55 H56 0.959 . S
C55 H57 0.960 . S
C55 H58 0.961 . S
H56 C55 0.959 . S
H57 C55 0.960 . S
H58 C55 0.961 . S
O59 Co34 1.967 . S
O59 C67 1.258 . S
O60 Co35 1.941 . S
O60 C67 1.266 . S
H61 C63 0.959 . S
H62 C63 0.961 . S
C63 C53 1.510 1_556 S
C63 H61 0.959 . S
C63 H62 0.961 . S
C63 H64 0.960 . S
H64 C63 0.960 . S
H65 N45 0.862 . S
O66 Co34 1.920 . S
O66 C39 1.289 . S
C67 O59 1.258 . S
C67 O60 1.266 . S
Co68 O71 1.970 . S
Co68 N85 1.989 . S
Co68 O93 1.967 . S
Co68 O100 1.920 1_556 S
Co69 O72 1.966 . S
Co69 N78 2.022 . S
Co69 N86 1.993 . S
Co69 O94 1.941 . S
C70 O71 1.258 . S
C70 O72 1.263 . S
O71 Co68 1.970 . S
O71 C70 1.258 . S
O72 Co69 1.966 . S
O72 C70 1.263 . S
C73 O74 1.235 . S
C73 O100 1.289 . S
O74 C73 1.235 . S
C75 C77 1.400 . S
C75 N78 1.351 . S
C75 C80 1.501 . S
C76 C77 1.387 . S
C76 N79 1.341 . S
C77 C75 1.400 . S
C77 C76 1.387 . S
N78 Co69 2.022 . S
N78 C75 1.351 . S
N78 N79 1.365 . S
N79 C76 1.341 . S
N79 N78 1.365 . S
N79 H99 0.862 . S
C80 C75 1.501 . S
C80 H81 0.961 . S
C80 H82 0.961 . S
C80 H83 0.960 . S
H81 C80 0.961 . S
H82 C80 0.961 . S
H83 C80 0.960 . S
C84 N85 1.342 . S
C84 C88 1.401 . S
C84 C89 1.499 . S
N85 Co68 1.989 . S
N85 C84 1.342 . S
N85 N86 1.388 . S
N86 Co69 1.993 . S
N86 N85 1.388 . S
N86 C87 1.346 . S
C87 N86 1.346 . S
C87 C88 1.396 . S
C87 C97 1.510 . S
C88 C84 1.401 . S
C88 C87 1.396 . S
C89 C84 1.499 . S
C89 H90 0.959 . S
C89 H91 0.960 . S
C89 H92 0.961 . S
H90 C89 0.959 . S
H91 C89 0.960 . S
H92 C89 0.961 . S
O93 Co68 1.967 . S
O93 C101 1.258 . S
O94 Co69 1.941 . S
O94 C101 1.266 . S
H95 C97 0.959 . S
H96 C97 0.961 . S
C97 C87 1.510 . S
C97 H95 0.959 . S
C97 H96 0.961 . S
C97 H98 0.960 . S
H98 C97 0.960 . S
H99 N79 0.862 . S
O100 Co68 1.920 1_554 S
O100 C73 1.289 . S
C101 O93 1.258 . S
C101 O94 1.266 . S
Co102 O105 1.970 . S
Co102 N119 1.989 . S
Co102 O127 1.967 . S
Co102 O134 1.920 1_556 S
Co103 O106 1.966 . S
Co103 N112 2.022 . S
Co103 N120 1.993 . S
Co103 O128 1.941 . S
C104 O105 1.258 . S
C104 O106 1.263 . S
O105 Co102 1.970 . S
O105 C104 1.258 . S
O106 Co103 1.966 . S
O106 C104 1.263 . S
C107 O108 1.235 . S
C107 O134 1.289 . S
O108 C107 1.235 . S
C109 C111 1.400 . S
C109 N112 1.351 . S
C109 C114 1.501 . S
C110 C111 1.387 . S
C110 N113 1.341 . S
C111 C109 1.400 . S
C111 C110 1.387 . S
N112 Co103 2.022 . S
N112 C109 1.351 . S
N112 N113 1.365 . S
N113 C110 1.341 . S
N113 N112 1.365 . S
N113 H133 0.862 . S
C114 C109 1.501 . S
C114 H115 0.961 . S
C114 H116 0.961 . S
C114 H117 0.960 . S
H115 C114 0.961 . S
H116 C114 0.961 . S
H117 C114 0.960 . S
C118 N119 1.342 . S
C118 C122 1.401 . S
C118 C123 1.499 . S
N119 Co102 1.989 . S
N119 C118 1.342 . S
N119 N120 1.388 . S
N120 Co103 1.993 . S
N120 N119 1.388 . S
N120 C121 1.346 . S
C121 N120 1.346 . S
C121 C122 1.396 . S
C121 C131 1.510 . S
C122 C118 1.401 . S
C122 C121 1.396 . S
C123 C118 1.499 . S
C123 H124 0.959 . S
C123 H125 0.960 . S
C123 H126 0.961 . S
H124 C123 0.959 . S
H125 C123 0.960 . S
H126 C123 0.961 . S
O127 Co102 1.967 . S
O127 C135 1.258 . S
O128 Co103 1.941 . S
O128 C135 1.266 . S
H129 C131 0.959 . S
H130 C131 0.961 . S
C131 C121 1.510 . S
C131 H129 0.959 . S
C131 H130 0.961 . S
C131 H132 0.960 . S
H132 C131 0.960 . S
H133 N113 0.862 . S
O134 Co102 1.920 1_554 S
O134 C107 1.289 . S
C135 O127 1.258 . S
C135 O128 1.266 . S
Co136 O139 1.970 . S
Co136 N153 1.989 . S
Co136 O161 1.967 . S
Co136 O168 1.920 . S
Co137 O140 1.966 . S
Co137 N146 2.022 . S
Co137 N154 1.993 . S
Co137 O162 1.941 . S
C138 O139 1.258 . S
C138 O140 1.263 . S
O139 Co136 1.970 . S
O139 C138 1.258 . S
O140 Co137 1.966 . S
O140 C138 1.263 . S
C141 O142 1.235 . S
C141 O168 1.289 . S
O142 C141 1.235 . S
C143 C145 1.400 . S
C143 N146 1.351 . S
C143 C148 1.501 . S
C144 C145 1.387 . S
C144 N147 1.341 . S
C145 C143 1.400 . S
C145 C144 1.387 . S
N146 Co137 2.022 . S
N146 C143 1.351 . S
N146 N147 1.365 . S
N147 C144 1.341 . S
N147 N146 1.365 . S
N147 H167 0.862 . S
C148 C143 1.501 . S
C148 H149 0.961 . S
C148 H150 0.961 . S
C148 H151 0.960 . S
H149 C148 0.961 . S
H150 C148 0.961 . S
H151 C148 0.960 . S
C152 N153 1.342 . S
C152 C156 1.401 . S
C152 C157 1.499 . S
N153 Co136 1.989 . S
N153 C152 1.342 . S
N153 N154 1.388 . S
N154 Co137 1.993 . S
N154 N153 1.388 . S
N154 C155 1.346 . S
C155 N154 1.346 . S
C155 C156 1.396 . S
C155 C165 1.510 . S
C156 C152 1.401 . S
C156 C155 1.396 . S
C157 C152 1.499 . S
C157 H158 0.959 . S
C157 H159 0.960 . S
C157 H160 0.961 . S
H158 C157 0.959 . S
H159 C157 0.960 . S
H160 C157 0.961 . S
O161 Co136 1.967 . S
O161 C169 1.258 . S
O162 Co137 1.941 . S
O162 C169 1.266 . S
H163 C165 0.959 . S
H164 C165 0.961 . S
C165 C155 1.510 . S
C165 H163 0.959 . S
C165 H164 0.961 . S
C165 H166 0.960 . S
H166 C165 0.960 . S
H167 N147 0.862 . S
O168 Co136 1.920 . S
O168 C141 1.289 . S
C169 O161 1.258 . S
C169 O162 1.266 . S
Co170 O173 1.970 . S
Co170 N187 1.989 . S
Co170 O195 1.967 . S
Co170 O202 1.920 . S
Co171 O174 1.966 . S
Co171 N180 2.022 . S
Co171 N188 1.993 . S
Co171 O196 1.941 . S
C172 O173 1.258 . S
C172 O174 1.263 . S
O173 Co170 1.970 . S
O173 C172 1.258 . S
O174 Co171 1.966 . S
O174 C172 1.263 . S
C175 O176 1.235 . S
C175 O202 1.289 . S
O176 C175 1.235 . S
C177 C179 1.400 . S
C177 N180 1.351 . S
C177 C182 1.501 . S
C178 C179 1.387 . S
C178 N181 1.341 . S
C179 C177 1.400 . S
C179 C178 1.387 . S
N180 Co171 2.022 . S
N180 C177 1.351 . S
N180 N181 1.365 . S
N181 C178 1.341 . S
N181 N180 1.365 . S
N181 H201 0.862 . S
C182 C177 1.501 . S
C182 H183 0.961 . S
C182 H184 0.961 . S
C182 H185 0.960 . S
H183 C182 0.961 . S
H184 C182 0.961 . S
H185 C182 0.960 . S
C186 N187 1.342 . S
C186 C190 1.401 . S
C186 C191 1.499 . S
N187 Co170 1.989 . S
N187 C186 1.342 . S
N187 N188 1.388 . S
N188 Co171 1.993 . S
N188 N187 1.388 . S
N188 C189 1.346 . S
C189 N188 1.346 . S
C189 C190 1.396 . S
C189 C199 1.510 . S
C190 C186 1.401 . S
C190 C189 1.396 . S
C191 C186 1.499 . S
C191 H192 0.959 . S
C191 H193 0.960 . S
C191 H194 0.961 . S
H192 C191 0.959 . S
H193 C191 0.960 . S
H194 C191 0.961 . S
O195 Co170 1.967 . S
O195 C203 1.258 . S
O196 Co171 1.941 . S
O196 C203 1.266 . S
H197 C199 0.959 . S
H198 C199 0.961 . S
C199 C189 1.510 . S
C199 H197 0.959 . S
C199 H198 0.961 . S
C199 H200 0.960 . S
H200 C199 0.960 . S
H201 N181 0.862 . S
O202 Co170 1.920 . S
O202 C175 1.289 . S
C203 O195 1.258 . S
C203 O196 1.266 . S
Co204 O207 1.970 . S
Co204 N221 1.989 . S
Co204 O229 1.967 . S
Co204 O236 1.920 . S
Co205 O208 1.966 . S
Co205 N214 2.022 . S
Co205 N222 1.993 . S
Co205 O230 1.941 . S
C206 O207 1.258 . S
C206 O208 1.263 . S
O207 Co204 1.970 . S
O207 C206 1.258 . S
O208 Co205 1.966 . S
O208 C206 1.263 . S
C209 O210 1.235 . S
C209 O236 1.289 . S
O210 C209 1.235 . S
C211 C213 1.400 . S
C211 N214 1.351 . S
C211 C216 1.501 . S
C212 C213 1.387 . S
C212 N215 1.341 . S
C213 C211 1.400 . S
C213 C212 1.387 . S
N214 Co205 2.022 . S
N214 C211 1.351 . S
N214 N215 1.365 . S
N215 C212 1.341 . S
N215 N214 1.365 . S
N215 H235 0.862 . S
C216 C211 1.501 . S
C216 H217 0.961 . S
C216 H218 0.961 . S
C216 H219 0.960 . S
H217 C216 0.961 . S
H218 C216 0.961 . S
H219 C216 0.960 . S
C220 N221 1.342 . S
C220 C224 1.401 . S
C220 C225 1.499 . S
N221 Co204 1.989 . S
N221 C220 1.342 . S
N221 N222 1.388 . S
N222 Co205 1.993 . S
N222 N221 1.388 . S
N222 C223 1.346 . S
C223 N222 1.346 . S
C223 C224 1.396 . S
C223 C233 1.510 . S
C224 C220 1.401 . S
C224 C223 1.396 . S
C225 C220 1.499 . S
C225 H226 0.959 . S
C225 H227 0.960 . S
C225 H228 0.961 . S
H226 C225 0.959 . S
H227 C225 0.960 . S
H228 C225 0.961 . S
O229 Co204 1.967 . S
O229 C237 1.258 . S
O230 Co205 1.941 . S
O230 C237 1.266 . S
H231 C233 0.959 . S
H232 C233 0.961 . S
C233 C223 1.510 . S
C233 H231 0.959 . S
C233 H232 0.961 . S
C233 H234 0.960 . S
H234 C233 0.960 . S
H235 N215 0.862 . S
O236 Co204 1.920 . S
O236 C209 1.289 . S
C237 O229 1.258 . S
C237 O230 1.266 . S
Co238 O241 1.970 . S
Co238 N255 1.989 . S
Co238 O263 1.967 . S
Co238 O270 1.920 . S
Co239 O242 1.966 . S
Co239 N248 2.022 . S
Co239 N256 1.993 . S
Co239 O264 1.941 . S
C240 O241 1.258 . S
C240 O242 1.263 . S
O241 Co238 1.970 . S
O241 C240 1.258 . S
O242 Co239 1.966 . S
O242 C240 1.263 . S
C243 O244 1.235 . S
C243 O270 1.289 . S
O244 C243 1.235 . S
C245 C247 1.400 . S
C245 N248 1.351 . S
C245 C250 1.501 . S
C246 C247 1.387 . S
C246 N249 1.341 . S
C247 C245 1.400 . S
C247 C246 1.387 . S
N248 Co239 2.022 . S
N248 C245 1.351 . S
N248 N249 1.365 . S
N249 C246 1.341 . S
N249 N248 1.365 . S
N249 H269 0.862 . S
C250 C245 1.501 . S
C250 H251 0.961 . S
C250 H252 0.961 . S
C250 H253 0.960 . S
H251 C250 0.961 . S
H252 C250 0.961 . S
H253 C250 0.960 . S
C254 N255 1.342 . S
C254 C258 1.401 . S
C254 C259 1.499 . S
N255 Co238 1.989 . S
N255 C254 1.342 . S
N255 N256 1.388 . S
N256 Co239 1.993 . S
N256 N255 1.388 . S
N256 C257 1.346 . S
C257 N256 1.346 . S
C257 C258 1.396 . S
C257 C267 1.510 . S
C258 C254 1.401 . S
C258 C257 1.396 . S
C259 C254 1.499 . S
C259 H260 0.959 . S
C259 H261 0.960 . S
C259 H262 0.961 . S
H260 C259 0.959 . S
H261 C259 0.960 . S
H262 C259 0.961 . S
O263 Co238 1.967 . S
O263 C271 1.258 . S
O264 Co239 1.941 . S
O264 C271 1.266 . S
H265 C267 0.959 . S
H266 C267 0.961 . S
C267 C257 1.510 . S
C267 H265 0.959 . S
C267 H266 0.961 . S
C267 H268 0.960 . S
H268 C267 0.960 . S
H269 N249 0.862 . S
O270 Co238 1.920 . S
O270 C243 1.289 . S
C271 O263 1.258 . S
C271 O264 1.266 . S
Co272 O275 1.970 . S
Co272 N289 1.989 . S
Co272 O297 1.967 . S
Co272 O304 1.920 . S
Co273 O276 1.966 . S
Co273 N282 2.022 . S
Co273 N290 1.993 . S
Co273 O298 1.941 . S
C274 O275 1.258 . S
C274 O276 1.263 . S
O275 Co272 1.970 . S
O275 C274 1.258 . S
O276 Co273 1.966 . S
O276 C274 1.263 . S
C277 O278 1.235 . S
C277 O304 1.289 . S
O278 C277 1.235 . S
C279 C281 1.400 . S
C279 N282 1.351 . S
C279 C284 1.501 . S
C280 C281 1.387 . S
C280 N283 1.341 . S
C281 C279 1.400 . S
C281 C280 1.387 . S
N282 Co273 2.022 . S
N282 C279 1.351 . S
N282 N283 1.365 . S
N283 C280 1.341 . S
N283 N282 1.365 . S
N283 H303 0.862 . S
C284 C279 1.501 . S
C284 H285 0.961 . S
C284 H286 0.961 . S
C284 H287 0.960 . S
H285 C284 0.961 . S
H286 C284 0.961 . S
H287 C284 0.960 . S
C288 N289 1.342 . S
C288 C292 1.401 . S
C288 C293 1.499 . S
N289 Co272 1.989 . S
N289 C288 1.342 . S
N289 N290 1.388 . S
N290 Co273 1.993 . S
N290 N289 1.388 . S
N290 C291 1.346 . S
C291 N290 1.346 . S
C291 C292 1.396 . S
C291 C301 1.510 . S
C292 C288 1.401 . S
C292 C291 1.396 . S
C293 C288 1.499 . S
C293 H294 0.959 . S
C293 H295 0.960 . S
C293 H296 0.961 . S
H294 C293 0.959 . S
H295 C293 0.960 . S
H296 C293 0.961 . S
O297 Co272 1.967 . S
O297 C305 1.258 . S
O298 Co273 1.941 . S
O298 C305 1.266 . S
H299 C301 0.959 . S
H300 C301 0.961 . S
C301 C291 1.510 . S
C301 H299 0.959 . S
C301 H300 0.961 . S
C301 H302 0.960 . S
H302 C301 0.960 . S
H303 N283 0.862 . S
O304 Co272 1.920 . S
O304 C277 1.289 . S
C305 O297 1.258 . S
C305 O298 1.266 . S
Co306 O309 1.970 . S
Co306 N323 1.989 . S
Co306 O331 1.967 . S
Co306 O338 1.920 . S
Co307 O310 1.966 . S
Co307 N316 2.022 . S
Co307 N324 1.993 . S
Co307 O332 1.941 . S
C308 O309 1.258 . S
C308 O310 1.263 . S
O309 Co306 1.970 . S
O309 C308 1.258 . S
O310 Co307 1.966 . S
O310 C308 1.263 . S
C311 O312 1.235 . S
C311 O338 1.289 . S
O312 C311 1.235 . S
C313 C315 1.400 . S
C313 N316 1.351 . S
C313 C318 1.501 . S
C314 C315 1.387 . S
C314 N317 1.341 . S
C315 C313 1.400 . S
C315 C314 1.387 . S
N316 Co307 2.022 . S
N316 C313 1.351 . S
N316 N317 1.365 . S
N317 C314 1.341 . S
N317 N316 1.365 . S
N317 H337 0.862 . S
C318 C313 1.501 . S
C318 H319 0.961 . S
C318 H320 0.961 . S
C318 H321 0.960 . S
H319 C318 0.961 . S
H320 C318 0.961 . S
H321 C318 0.960 . S
C322 N323 1.342 . S
C322 C326 1.401 . S
C322 C327 1.499 . S
N323 Co306 1.989 . S
N323 C322 1.342 . S
N323 N324 1.388 . S
N324 Co307 1.993 . S
N324 N323 1.388 . S
N324 C325 1.346 . S
C325 N324 1.346 . S
C325 C326 1.396 . S
C325 C335 1.510 . S
C326 C322 1.401 . S
C326 C325 1.396 . S
C327 C322 1.499 . S
C327 H328 0.959 . S
C327 H329 0.960 . S
C327 H330 0.961 . S
H328 C327 0.959 . S
H329 C327 0.960 . S
H330 C327 0.961 . S
O331 Co306 1.967 . S
O331 C339 1.258 . S
O332 Co307 1.941 . S
O332 C339 1.266 . S
H333 C335 0.959 . S
H334 C335 0.961 . S
C335 C325 1.510 . S
C335 H333 0.959 . S
C335 H334 0.961 . S
C335 H336 0.960 . S
H336 C335 0.960 . S
H337 N317 0.862 . S
O338 Co306 1.920 . S
O338 C311 1.289 . S
C339 O331 1.258 . S
C339 O332 1.266 . S
Co340 O343 1.970 . S
Co340 N357 1.989 . S
Co340 O365 1.967 . S
Co340 O372 1.920 . S
Co341 O344 1.966 . S
Co341 N350 2.022 . S
Co341 N358 1.993 . S
Co341 O366 1.941 . S
C342 O343 1.258 . S
C342 O344 1.263 . S
O343 Co340 1.970 . S
O343 C342 1.258 . S
O344 Co341 1.966 . S
O344 C342 1.263 . S
C345 O346 1.235 . S
C345 O372 1.289 . S
O346 C345 1.235 . S
C347 C349 1.400 . S
C347 N350 1.351 . S
C347 C352 1.501 . S
C348 C349 1.387 . S
C348 N351 1.341 . S
C349 C347 1.400 . S
C349 C348 1.387 . S
N350 Co341 2.022 . S
N350 C347 1.351 . S
N350 N351 1.365 . S
N351 C348 1.341 . S
N351 N350 1.365 . S
N351 H371 0.862 . S
C352 C347 1.501 . S
C352 H353 0.961 . S
C352 H354 0.961 . S
C352 H355 0.960 . S
H353 C352 0.961 . S
H354 C352 0.961 . S
H355 C352 0.960 . S
C356 N357 1.342 . S
C356 C360 1.401 . S
C356 C361 1.499 . S
N357 Co340 1.989 . S
N357 C356 1.342 . S
N357 N358 1.388 . S
N358 Co341 1.993 . S
N358 N357 1.388 . S
N358 C359 1.346 . S
C359 N358 1.346 . S
C359 C360 1.396 . S
C359 C369 1.510 . S
C360 C356 1.401 . S
C360 C359 1.396 . S
C361 C356 1.499 . S
C361 H362 0.959 . S
C361 H363 0.960 . S
C361 H364 0.961 . S
H362 C361 0.959 . S
H363 C361 0.960 . S
H364 C361 0.961 . S
O365 Co340 1.967 . S
O365 C373 1.258 . S
O366 Co341 1.941 . S
O366 C373 1.266 . S
H367 C369 0.959 . S
H368 C369 0.961 . S
C369 C359 1.510 . S
C369 H367 0.959 . S
C369 H368 0.961 . S
C369 H370 0.960 . S
H370 C369 0.960 . S
H371 N351 0.862 . S
O372 Co340 1.920 . S
O372 C345 1.289 . S
C373 O365 1.258 . S
C373 O366 1.266 . S
Co374 O377 1.970 . S
Co374 N391 1.989 . S
Co374 O399 1.967 . S
Co374 O406 1.920 . S
Co375 O378 1.966 . S
Co375 N384 2.022 . S
Co375 N392 1.993 . S
Co375 O400 1.941 . S
C376 O377 1.258 . S
C376 O378 1.263 . S
O377 Co374 1.970 . S
O377 C376 1.258 . S
O378 Co375 1.966 . S
O378 C376 1.263 . S
C379 O380 1.235 . S
C379 O406 1.289 . S
O380 C379 1.235 . S
C381 C383 1.400 . S
C381 N384 1.351 . S
C381 C386 1.501 . S
C382 C383 1.387 . S
C382 N385 1.341 . S
C383 C381 1.400 . S
C383 C382 1.387 . S
N384 Co375 2.022 . S
N384 C381 1.351 . S
N384 N385 1.365 . S
N385 C382 1.341 . S
N385 N384 1.365 . S
N385 H405 0.862 . S
C386 C381 1.501 . S
C386 H387 0.961 . S
C386 H388 0.961 . S
C386 H389 0.960 . S
H387 C386 0.961 . S
H388 C386 0.961 . S
H389 C386 0.960 . S
C390 N391 1.342 . S
C390 C394 1.401 . S
C390 C395 1.499 . S
N391 Co374 1.989 . S
N391 C390 1.342 . S
N391 N392 1.388 . S
N392 Co375 1.993 . S
N392 N391 1.388 . S
N392 C393 1.346 . S
C393 N392 1.346 . S
C393 C394 1.396 . S
C393 C403 1.510 . S
C394 C390 1.401 . S
C394 C393 1.396 . S
C395 C390 1.499 . S
C395 H396 0.959 . S
C395 H397 0.960 . S
C395 H398 0.961 . S
H396 C395 0.959 . S
H397 C395 0.960 . S
H398 C395 0.961 . S
O399 Co374 1.967 . S
O399 C407 1.258 . S
O400 Co375 1.941 . S
O400 C407 1.266 . S
H401 C403 0.959 . S
H402 C403 0.961 . S
C403 C393 1.510 . S
C403 H401 0.959 . S
C403 H402 0.961 . S
C403 H404 0.960 . S
H404 C403 0.960 . S
H405 N385 0.862 . S
O406 Co374 1.920 . S
O406 C379 1.289 . S
C407 O399 1.258 . S
C407 O400 1.266 . S
Co408 O411 1.970 . S
Co408 N425 1.989 . S
Co408 O433 1.967 . S
Co408 O440 1.920 . S
Co409 O412 1.966 . S
Co409 N418 2.022 . S
Co409 N426 1.993 . S
Co409 O434 1.941 . S
C410 O411 1.258 . S
C410 O412 1.263 . S
O411 Co408 1.970 . S
O411 C410 1.258 . S
O412 Co409 1.966 . S
O412 C410 1.263 . S
C413 O414 1.235 . S
C413 O440 1.289 . S
O414 C413 1.235 . S
C415 C417 1.400 . S
C415 N418 1.351 . S
C415 C420 1.501 . S
C416 C417 1.387 . S
C416 N419 1.341 . S
C417 C415 1.400 . S
C417 C416 1.387 . S
N418 Co409 2.022 . S
N418 C415 1.351 . S
N418 N419 1.365 . S
N419 C416 1.341 . S
N419 N418 1.365 . S
N419 H439 0.862 . S
C420 C415 1.501 . S
C420 H421 0.961 . S
C420 H422 0.961 . S
C420 H423 0.960 . S
H421 C420 0.961 . S
H422 C420 0.961 . S
H423 C420 0.960 . S
C424 N425 1.342 . S
C424 C428 1.401 . S
C424 C429 1.499 . S
N425 Co408 1.989 . S
N425 C424 1.342 . S
N425 N426 1.388 . S
N426 Co409 1.993 . S
N426 N425 1.388 . S
N426 C427 1.346 . S
C427 N426 1.346 . S
C427 C428 1.396 . S
C427 C437 1.510 . S
C428 C424 1.401 . S
C428 C427 1.396 . S
C429 C424 1.499 . S
C429 H430 0.959 . S
C429 H431 0.960 . S
C429 H432 0.961 . S
H430 C429 0.959 . S
H431 C429 0.960 . S
H432 C429 0.961 . S
O433 Co408 1.967 . S
O433 C441 1.258 . S
O434 Co409 1.941 . S
O434 C441 1.266 . S
H435 C437 0.959 . S
H436 C437 0.961 . S
C437 C427 1.510 . S
C437 H435 0.959 . S
C437 H436 0.961 . S
C437 H438 0.960 . S
H438 C437 0.960 . S
H439 N419 0.862 . S
O440 Co408 1.920 . S
O440 C413 1.289 . S
C441 O433 1.258 . S
C441 O434 1.266 . S
Co442 O445 1.970 . S
Co442 N459 1.989 . S
Co442 O467 1.967 . S
Co442 O474 1.920 . S
Co443 O446 1.966 . S
Co443 N452 2.022 1_554 S
Co443 N460 1.993 . S
Co443 O468 1.941 . S
C444 O445 1.258 . S
C444 O446 1.263 . S
O445 Co442 1.970 . S
O445 C444 1.258 . S
O446 Co443 1.966 . S
O446 C444 1.263 . S
C447 O448 1.235 . S
C447 O474 1.289 . S
O448 C447 1.235 . S
C449 C451 1.400 . S
C449 N452 1.351 . S
C449 C454 1.501 . S
C450 C451 1.387 . S
C450 N453 1.341 . S
C451 C449 1.400 . S
C451 C450 1.387 . S
N452 Co443 2.022 1_556 S
N452 C449 1.351 . S
N452 N453 1.365 . S
N453 C450 1.341 . S
N453 N452 1.365 . S
N453 H473 0.862 . S
C454 C449 1.501 . S
C454 H455 0.961 . S
C454 H456 0.961 . S
C454 H457 0.960 . S
H455 C454 0.961 . S
H456 C454 0.961 . S
H457 C454 0.960 . S
C458 N459 1.342 . S
C458 C462 1.401 . S
C458 C463 1.499 . S
N459 Co442 1.989 . S
N459 C458 1.342 . S
N459 N460 1.388 . S
N460 Co443 1.993 . S
N460 N459 1.388 . S
N460 C461 1.346 . S
C461 N460 1.346 . S
C461 C462 1.396 . S
C461 C471 1.510 1_554 S
C462 C458 1.401 . S
C462 C461 1.396 . S
C463 C458 1.499 . S
C463 H464 0.959 . S
C463 H465 0.960 . S
C463 H466 0.961 . S
H464 C463 0.959 . S
H465 C463 0.960 . S
H466 C463 0.961 . S
O467 Co442 1.967 . S
O467 C475 1.258 . S
O468 Co443 1.941 . S
O468 C475 1.266 . S
H469 C471 0.959 . S
H470 C471 0.961 . S
C471 C461 1.510 1_556 S
C471 H469 0.959 . S
C471 H470 0.961 . S
C471 H472 0.960 . S
H472 C471 0.960 . S
H473 N453 0.862 . S
O474 Co442 1.920 . S
O474 C447 1.289 . S
C475 O467 1.258 . S
C475 O468 1.266 . S
Co476 O479 1.970 . S
Co476 N493 1.989 . S
Co476 O501 1.967 . S
Co476 O508 1.920 1_556 S
Co477 O480 1.966 . S
Co477 N486 2.022 . S
Co477 N494 1.993 . S
Co477 O502 1.941 . S
C478 O479 1.258 . S
C478 O480 1.263 . S
O479 Co476 1.970 . S
O479 C478 1.258 . S
O480 Co477 1.966 . S
O480 C478 1.263 . S
C481 O482 1.235 . S
C481 O508 1.289 . S
O482 C481 1.235 . S
C483 C485 1.400 . S
C483 N486 1.351 . S
C483 C488 1.501 . S
C484 C485 1.387 . S
C484 N487 1.341 . S
C485 C483 1.400 . S
C485 C484 1.387 . S
N486 Co477 2.022 . S
N486 C483 1.351 . S
N486 N487 1.365 . S
N487 C484 1.341 . S
N487 N486 1.365 . S
N487 H507 0.862 . S
C488 C483 1.501 . S
C488 H489 0.961 . S
C488 H490 0.961 . S
C488 H491 0.960 . S
H489 C488 0.961 . S
H490 C488 0.961 . S
H491 C488 0.960 . S
C492 N493 1.342 . S
C492 C496 1.401 . S
C492 C497 1.499 . S
N493 Co476 1.989 . S
N493 C492 1.342 . S
N493 N494 1.388 . S
N494 Co477 1.993 . S
N494 N493 1.388 . S
N494 C495 1.346 . S
C495 N494 1.346 . S
C495 C496 1.396 . S
C495 C505 1.510 . S
C496 C492 1.401 . S
C496 C495 1.396 . S
C497 C492 1.499 . S
C497 H498 0.959 . S
C497 H499 0.960 . S
C497 H500 0.961 . S
H498 C497 0.959 . S
H499 C497 0.960 . S
H500 C497 0.961 . S
O501 Co476 1.967 . S
O501 C509 1.258 . S
O502 Co477 1.941 . S
O502 C509 1.266 . S
H503 C505 0.959 . S
H504 C505 0.961 . S
C505 C495 1.510 . S
C505 H503 0.959 . S
C505 H504 0.961 . S
C505 H506 0.960 . S
H506 C505 0.960 . S
H507 N487 0.862 . S
O508 Co476 1.920 1_554 S
O508 C481 1.289 . S
C509 O501 1.258 . S
C509 O502 1.266 . S
Co510 O513 1.970 . S
Co510 N527 1.989 . S
Co510 O535 1.967 . S
Co510 O542 1.920 1_556 S
Co511 O514 1.966 . S
Co511 N520 2.022 . S
Co511 N528 1.993 . S
Co511 O536 1.941 . S
C512 O513 1.258 . S
C512 O514 1.263 . S
O513 Co510 1.970 . S
O513 C512 1.258 . S
O514 Co511 1.966 . S
O514 C512 1.263 . S
C515 O516 1.235 . S
C515 O542 1.289 . S
O516 C515 1.235 . S
C517 C519 1.400 . S
C517 N520 1.351 . S
C517 C522 1.501 . S
C518 C519 1.387 . S
C518 N521 1.341 . S
C519 C517 1.400 . S
C519 C518 1.387 . S
N520 Co511 2.022 . S
N520 C517 1.351 . S
N520 N521 1.365 . S
N521 C518 1.341 . S
N521 N520 1.365 . S
N521 H541 0.862 . S
C522 C517 1.501 . S
C522 H523 0.961 . S
C522 H524 0.961 . S
C522 H525 0.960 . S
H523 C522 0.961 . S
H524 C522 0.961 . S
H525 C522 0.960 . S
C526 N527 1.342 . S
C526 C530 1.401 . S
C526 C531 1.499 . S
N527 Co510 1.989 . S
N527 C526 1.342 . S
N527 N528 1.388 . S
N528 Co511 1.993 . S
N528 N527 1.388 . S
N528 C529 1.346 . S
C529 N528 1.346 . S
C529 C530 1.396 . S
C529 C539 1.510 . S
C530 C526 1.401 . S
C530 C529 1.396 . S
C531 C526 1.499 . S
C531 H532 0.959 . S
C531 H533 0.960 . S
C531 H534 0.961 . S
H532 C531 0.959 . S
H533 C531 0.960 . S
H534 C531 0.961 . S
O535 Co510 1.967 . S
O535 C543 1.258 . S
O536 Co511 1.941 . S
O536 C543 1.266 . S
H537 C539 0.959 . S
H538 C539 0.961 . S
C539 C529 1.510 . S
C539 H537 0.959 . S
C539 H538 0.961 . S
C539 H540 0.960 . S
H540 C539 0.960 . S
H541 N521 0.862 . S
O542 Co510 1.920 1_554 S
O542 C515 1.289 . S
C543 O535 1.258 . S
C543 O536 1.266 . S
H544 C562 0.951 . S
H545 C564 0.951 . S
H546 C566 0.950 . S
H547 C567 0.950 . S
H548 C569 0.950 . S
H549 C572 0.950 . S
H550 C573 0.950 . S
H551 C575 0.950 . S
H552 C576 0.950 . S
H553 C577 0.951 . S
H554 C579 0.951 . S
H555 C581 0.950 . S
H556 C582 0.950 . S
H557 C584 0.950 . S
H558 C587 0.950 . S
H559 C588 0.950 . S
H560 C590 0.950 . S
H561 C591 0.950 . S
C562 H544 0.951 . S
C562 C563 1.366 . S
C562 C564 1.388 . S
C563 C562 1.366 . S
C563 C567 1.385 . S
C564 H545 0.951 . S
C564 C562 1.388 . S
C564 C565 1.366 . S
C565 C564 1.366 . S
C565 C566 1.414 . S
C565 C568 1.499 . S
C566 H546 0.950 . S
C566 C565 1.414 . S
C566 C567 1.374 . S
C567 H547 0.950 . S
C567 C563 1.385 . S
C567 C566 1.374 . S
C568 C565 1.499 . S
C568 C569 1.373 . S
C568 C570 1.389 . S
C569 H548 0.950 . S
C569 C568 1.373 . S
C569 C585 1.377 . S
C570 C568 1.389 . S
C570 C571 1.524 . S
C570 C584 1.377 . S
C571 C570 1.524 . S
C571 C572 1.397 . S
C571 C576 1.363 . S
C572 H549 0.950 . S
C572 C571 1.397 . S
C572 C573 1.334 . S
C573 H550 0.950 . S
C573 C572 1.334 . S
C573 C574 1.287 . S
C574 C573 1.287 . S
C574 C575 1.524 . S
C574 H593 0.913 . S
C575 H551 0.950 . S
C575 C574 1.524 . S
C575 C576 1.415 . S
C576 H552 0.950 . S
C576 C571 1.363 . S
C576 C575 1.415 . S
C577 H553 0.951 . S
C577 C578 1.366 . S
C577 C579 1.388 . S
C578 C577 1.366 . S
C578 C582 1.385 . S
C579 H554 0.951 . S
C579 C577 1.388 . S
C579 C580 1.366 . S
C580 C579 1.366 . S
C580 C581 1.414 . S
C580 C583 1.499 . S
C581 H555 0.950 . S
C581 C580 1.414 . S
C581 C582 1.374 . S
C582 H556 0.950 . S
C582 C578 1.385 . S
C582 C581 1.374 . S
C583 C580 1.499 . S
C583 C584 1.373 . S
C583 C585 1.389 . S
C584 H557 0.950 . S
C584 C570 1.377 . S
C584 C583 1.373 . S
C585 C569 1.377 . S
C585 C583 1.389 . S
C585 C586 1.524 . S
C586 C585 1.524 . S
C586 C587 1.397 . S
C586 C591 1.363 . S
C587 H558 0.950 . S
C587 C586 1.397 . S
C587 C588 1.334 . S
C588 H559 0.950 . S
C588 C587 1.334 . S
C588 C589 1.287 . S
C589 C588 1.287 . S
C589 C590 1.524 . S
C589 H592 0.999 . S
C590 H560 0.950 . S
C590 C589 1.524 . S
C590 C591 1.415 . S
C591 H561 0.950 . S
C591 C586 1.363 . S
C591 C590 1.415 . S
H592 C589 0.999 . S
H593 C574 0.913 . S
H594 C612 0.951 . S
H595 C614 0.951 . S
H596 C616 0.950 . S
H597 C617 0.950 . S
H598 C619 0.950 . S
H599 C622 0.950 . S
H600 C623 0.950 . S
H601 C625 0.959 1_556 S
H602 C626 0.950 1_655 S
H603 C627 0.951 . S
H604 C629 0.951 . S
H605 C631 0.950 . S
H606 C632 0.950 . S
H607 C634 0.950 . S
H608 C637 0.950 1_655 S
H609 C638 0.950 1_655 S
H610 C640 0.950 . S
H611 C641 0.950 . S
C612 H594 0.951 . S
C612 C613 1.366 . S
C612 C614 1.388 . S
C613 C612 1.366 . S
C613 C617 1.385 . S
C614 H595 0.951 . S
C614 C612 1.388 . S
C614 C615 1.366 . S
C615 C614 1.366 . S
C615 C616 1.414 . S
C615 C618 1.499 . S
C616 H596 0.950 . S
C616 C615 1.414 . S
C616 C617 1.374 . S
C617 H597 0.950 . S
C617 C613 1.385 . S
C617 C616 1.374 . S
C618 C615 1.499 . S
C618 C619 1.373 . S
C618 C620 1.389 . S
C619 H598 0.950 . S
C619 C618 1.373 . S
C619 C635 1.377 . S
C620 C618 1.389 . S
C620 C621 1.524 . S
C620 C634 1.377 . S
C621 C620 1.524 . S
C621 C622 1.397 . S
C621 C626 1.363 . S
C622 H599 0.950 . S
C622 C621 1.397 . S
C622 C623 1.334 . S
C623 H600 0.950 . S
C623 C622 1.334 . S
C623 C624 1.287 1_554 S
C624 C623 1.287 1_556 S
C624 C625 1.524 1_556 S
C624 H643 0.913 . S
C625 H601 0.959 1_554 S
C625 C624 1.524 1_554 S
C625 C626 1.415 . S
C626 H602 0.950 1_455 S
C626 C621 1.363 . S
C626 C625 1.415 . S
C627 H603 0.951 . S
C627 C628 1.366 . S
C627 C629 1.388 1_655 S
C628 C627 1.366 . S
C628 C632 1.385 . S
C629 H604 0.951 . S
C629 C627 1.388 1_455 S
C629 C630 1.366 1_455 S
C630 C629 1.366 1_655 S
C630 C631 1.414 . S
C630 C633 1.499 1_655 S
C631 H605 0.950 . S
C631 C630 1.414 . S
C631 C632 1.374 . S
C632 H606 0.950 . S
C632 C628 1.385 . S
C632 C631 1.374 . S
C633 C630 1.499 1_455 S
C633 C634 1.373 . S
C633 C635 1.389 . S
C634 H607 0.950 . S
C634 C620 1.377 . S
C634 C633 1.373 . S
C635 C619 1.377 . S
C635 C633 1.389 . S
C635 C636 1.524 . S
C636 C635 1.524 . S
C636 C637 1.397 . S
C636 C641 1.363 . S
C637 H608 0.950 1_455 S
C637 C636 1.397 . S
C637 C638 1.334 . S
C638 H609 0.950 1_455 S
C638 C637 1.334 . S
C638 C639 1.287 . S
C639 C638 1.287 . S
C639 C640 1.524 . S
C639 H642 0.999 . S
C640 H610 0.950 . S
C640 C639 1.524 . S
C640 C641 1.415 . S
C641 H611 0.950 . S
C641 C636 1.363 . S
C641 C640 1.415 . S
H642 C639 0.999 . S
H643 C624 0.913 . S
H644 C662 0.951 . S
H645 C664 0.951 . S
H646 C666 0.950 . S
H647 C667 0.950 . S
H648 C669 0.950 . S
H649 C672 0.950 . S
H650 C673 0.950 . S
H651 C675 0.950 . S
H652 C676 0.950 . S
H653 C677 0.951 . S
H654 C679 0.951 . S
H655 C681 0.950 1_556 S
H656 C682 0.950 . S
H657 C684 0.950 . S
H658 C687 0.950 . S
H659 C688 0.950 . S
H660 C690 0.950 . S
H661 C691 0.950 . S
C662 H644 0.951 . S
C662 C663 1.366 . S
C662 C664 1.388 . S
C663 C662 1.366 . S
C663 C667 1.385 . S
C664 H645 0.951 . S
C664 C662 1.388 . S
C664 C665 1.366 . S
C665 C664 1.366 . S
C665 C666 1.414 . S
C665 C668 1.499 . S
C666 H646 0.950 . S
C666 C665 1.414 . S
C666 C667 1.374 . S
C667 H647 0.950 . S
C667 C663 1.385 . S
C667 C666 1.374 . S
C668 C665 1.499 . S
C668 C669 1.373 1_556 S
C668 C670 1.389 . S
C669 H648 0.950 . S
C669 C668 1.373 1_554 S
C669 C685 1.377 . S
C670 C668 1.389 . S
C670 C671 1.524 . S
C670 C684 1.377 . S
C671 C670 1.524 . S
C671 C672 1.397 . S
C671 C676 1.363 . S
C672 H649 0.950 . S
C672 C671 1.397 . S
C672 C673 1.334 . S
C673 H650 0.950 . S
C673 C672 1.334 . S
C673 C674 1.287 . S
C674 C673 1.287 . S
C674 C675 1.524 . S
C674 H693 0.913 . S
C675 H651 0.950 . S
C675 C674 1.524 . S
C675 C676 1.415 . S
C676 H652 0.950 . S
C676 C671 1.363 . S
C676 C675 1.415 . S
C677 H653 0.951 . S
C677 C678 1.366 . S
C677 C679 1.388 . S
C678 C677 1.366 . S
C678 C682 1.385 . S
C679 H654 0.951 . S
C679 C677 1.388 . S
C679 C680 1.366 . S
C680 C679 1.366 . S
C680 C681 1.414 . S
C680 C683 1.505 . S
C681 H655 0.950 1_554 S
C681 C680 1.414 . S
C681 C682 1.374 . S
C682 H656 0.950 . S
C682 C678 1.385 . S
C682 C681 1.374 . S
C683 C680 1.505 . S
C683 C684 1.357 1_554 S
C683 C685 1.399 . S
C684 H657 0.950 . S
C684 C670 1.377 . S
C684 C683 1.357 1_556 S
C685 C669 1.377 . S
C685 C683 1.399 . S
C685 C686 1.524 . S
C686 C685 1.524 . S
C686 C687 1.397 . S
C686 C691 1.363 . S
C687 H658 0.950 . S
C687 C686 1.397 . S
C687 C688 1.334 . S
C688 H659 0.950 . S
C688 C687 1.334 . S
C688 C689 1.287 . S
C689 C688 1.287 . S
C689 C690 1.524 . S
C689 H692 0.999 . S
C690 H660 0.950 . S
C690 C689 1.524 . S
C690 C691 1.415 . S
C691 H661 0.950 . S
C691 C686 1.363 . S
C691 C690 1.415 . S
H692 C689 0.999 . S
H693 C674 0.913 . S
H694 C712 0.951 . S
H695 C714 0.951 1_554 S
H696 C716 0.950 . S
H697 C717 0.950 . S
H698 C719 0.950 1_556 S
H699 C722 0.950 . S
H700 C723 0.950 . S
H701 C725 0.950 . S
H702 C726 0.950 . S
H703 C727 0.951 . S
H704 C729 0.951 . S
H705 C731 0.950 . S
H706 C732 0.942 1_655 S
H707 C734 0.950 . S
H708 C737 0.950 . S
H709 C738 0.950 . S
H710 C740 0.950 1_556 S
H711 C741 0.950 1_556 S
C712 H694 0.951 . S
C712 C713 1.366 . S
C712 C714 1.388 . S
C713 C712 1.366 . S
C713 C717 1.385 . S
C714 H695 0.951 1_556 S
C714 C712 1.388 . S
C714 C715 1.366 . S
C715 C714 1.366 . S
C715 C716 1.414 . S
C715 C718 1.499 1_556 S
C716 H696 0.950 . S
C716 C715 1.414 . S
C716 C717 1.374 . S
C717 H697 0.950 . S
C717 C713 1.385 . S
C717 C716 1.374 . S
C718 C715 1.499 1_554 S
C718 C719 1.373 . S
C718 C720 1.389 . S
C719 H698 0.950 1_554 S
C719 C718 1.373 . S
C719 C735 1.377 . S
C720 C718 1.389 . S
C720 C721 1.524 . S
C720 C734 1.377 . S
C721 C720 1.524 . S
C721 C722 1.397 1_554 S
C721 C726 1.363 . S
C722 H699 0.950 . S
C722 C721 1.397 1_556 S
C722 C723 1.334 . S
C723 H700 0.950 . S
C723 C722 1.334 . S
C723 C724 1.287 . S
C724 C723 1.287 . S
C724 C725 1.524 1_556 S
C724 H743 0.913 . S
C725 H701 0.950 . S
C725 C724 1.524 1_554 S
C725 C726 1.415 . S
C726 H702 0.950 . S
C726 C721 1.363 . S
C726 C725 1.415 . S
C727 H703 0.951 . S
C727 C728 1.366 . S
C727 C729 1.388 . S
C728 C727 1.366 . S
C728 C732 1.396 . S
C729 H704 0.951 . S
C729 C727 1.388 . S
C729 C730 1.366 1_455 S
C730 C729 1.366 1_655 S
C730 C731 1.414 . S
C730 C733 1.499 . S
C731 H705 0.950 . S
C731 C730 1.414 . S
C731 C732 1.365 1_655 S
C732 H706 0.942 1_455 S
C732 C728 1.396 . S
C732 C731 1.365 1_455 S
C733 C730 1.499 . S
C733 C734 1.373 . S
C733 C735 1.389 . S
C734 H707 0.950 . S
C734 C720 1.377 . S
C734 C733 1.373 . S
C735 C719 1.377 . S
C735 C733 1.389 . S
C735 C736 1.524 . S
C736 C735 1.524 . S
C736 C737 1.397 . S
C736 C741 1.363 . S
C737 H708 0.950 . S
C737 C736 1.397 . S
C737 C738 1.334 1_655 S
C738 H709 0.950 . S
C738 C737 1.334 1_455 S
C738 C739 1.287 . S
C739 C738 1.287 . S
C739 C740 1.524 . S
C739 H742 0.999 . S
C740 H710 0.950 1_554 S
C740 C739 1.524 . S
C740 C741 1.415 1_455 S
C741 H711 0.950 1_554 S
C741 C736 1.363 . S
C741 C740 1.415 1_655 S
H742 C739 0.999 . S
H743 C724 0.913 . S
H744 C762 0.951 . S
H745 C764 0.951 . S
H746 C766 0.950 . S
H747 C767 0.950 . S
H748 C769 0.950 . S
H749 C772 0.950 . S
H750 C773 0.950 . S
H751 C775 0.950 . S
H752 C776 0.950 . S
H753 C777 0.951 . S
H754 C779 0.951 . S
H755 C781 0.950 . S
H756 C782 0.950 . S
H757 C784 0.950 . S
H758 C787 0.950 . S
H759 C788 0.950 . S
H760 C790 0.950 . S
H761 C791 0.950 . S
C762 H744 0.951 . S
C762 C763 1.366 . S
C762 C764 1.388 . S
C763 C762 1.366 . S
C763 C767 1.385 . S
C764 H745 0.951 . S
C764 C762 1.388 . S
C764 C765 1.366 . S
C765 C764 1.366 . S
C765 C766 1.414 . S
C765 C768 1.499 . S
C766 H746 0.950 . S
C766 C765 1.414 . S
C766 C767 1.374 . S
C767 H747 0.950 . S
C767 C763 1.385 . S
C767 C766 1.374 . S
C768 C765 1.499 . S
C768 C769 1.373 . S
C768 C770 1.389 . S
C769 H748 0.950 . S
C769 C768 1.373 . S
C769 C785 1.377 . S
C770 C768 1.389 . S
C770 C771 1.524 . S
C770 C784 1.377 . S
C771 C770 1.524 . S
C771 C772 1.397 . S
C771 C776 1.363 . S
C772 H749 0.950 . S
C772 C771 1.397 . S
C772 C773 1.334 . S
C773 H750 0.950 . S
C773 C772 1.334 . S
C773 C774 1.287 . S
C774 C773 1.287 . S
C774 C775 1.524 . S
C774 H793 0.913 . S
C775 H751 0.950 . S
C775 C774 1.524 . S
C775 C776 1.415 . S
C776 H752 0.950 . S
C776 C771 1.363 . S
C776 C775 1.415 . S
C777 H753 0.951 . S
C777 C778 1.366 . S
C777 C779 1.388 . S
C778 C777 1.366 . S
C778 C782 1.385 . S
C779 H754 0.951 . S
C779 C777 1.388 . S
C779 C780 1.366 . S
C780 C779 1.366 . S
C780 C781 1.414 . S
C780 C783 1.499 . S
C781 H755 0.950 . S
C781 C780 1.414 . S
C781 C782 1.374 . S
C782 H756 0.950 . S
C782 C778 1.385 . S
C782 C781 1.374 . S
C783 C780 1.499 . S
C783 C784 1.373 . S
C783 C785 1.389 . S
C784 H757 0.950 . S
C784 C770 1.377 . S
C784 C783 1.373 . S
C785 C769 1.377 . S
C785 C783 1.389 . S
C785 C786 1.524 . S
C786 C785 1.524 . S
C786 C787 1.397 . S
C786 C791 1.363 . S
C787 H758 0.950 . S
C787 C786 1.397 . S
C787 C788 1.334 . S
C788 H759 0.950 . S
C788 C787 1.334 . S
C788 C789 1.287 . S
C789 C788 1.287 . S
C789 C790 1.524 . S
C789 H792 0.999 . S
C790 H760 0.950 . S
C790 C789 1.524 . S
C790 C791 1.415 . S
C791 H761 0.950 . S
C791 C786 1.363 . S
C791 C790 1.415 . S
H792 C789 0.999 . S
H793 C774 0.913 . S
H794 C812 0.951 . S
H795 C814 0.951 . S
H796 C816 0.950 . S
H797 C817 0.950 . S
H798 C819 0.950 . S
H799 C822 0.950 . S
H800 C823 0.950 . S
H801 C825 0.950 . S
H802 C826 0.950 . S
H803 C827 0.951 . S
H804 C829 0.951 . S
H805 C831 0.921 1_455 S
H806 C832 0.950 . S
H807 C834 0.950 . S
H808 C837 0.950 . S
H809 C838 0.950 . S
H810 C840 0.950 . S
H811 C841 0.950 . S
C812 H794 0.951 . S
C812 C813 1.366 . S
C812 C814 1.388 . S
C813 C812 1.366 . S
C813 C817 1.385 . S
C814 H795 0.951 . S
C814 C812 1.388 . S
C814 C815 1.366 . S
C815 C814 1.366 . S
C815 C816 1.414 . S
C815 C818 1.499 . S
C816 H796 0.950 . S
C816 C815 1.414 . S
C816 C817 1.374 . S
C817 H797 0.950 . S
C817 C813 1.385 . S
C817 C816 1.374 . S
C818 C815 1.499 . S
C818 C819 1.373 . S
C818 C820 1.389 . S
C819 H798 0.950 . S
C819 C818 1.373 . S
C819 C835 1.377 . S
C820 C818 1.389 . S
C820 C821 1.524 . S
C820 C834 1.377 . S
C821 C820 1.524 . S
C821 C822 1.397 . S
C821 C826 1.363 . S
C822 H799 0.950 . S
C822 C821 1.397 . S
C822 C823 1.334 . S
C823 H800 0.950 . S
C823 C822 1.334 . S
C823 C824 1.287 . S
C824 C823 1.287 . S
C824 C825 1.524 . S
C824 H843 0.913 . S
C825 H801 0.950 . S
C825 C824 1.524 . S
C825 C826 1.415 . S
C826 H802 0.950 . S
C826 C821 1.363 . S
C826 C825 1.415 . S
C827 H803 0.951 . S
C827 C828 1.366 . S
C827 C829 1.388 . S
C828 C827 1.366 . S
C828 C832 1.385 . S
C829 H804 0.951 . S
C829 C827 1.388 . S
C829 C830 1.366 . S
C830 C829 1.366 . S
C830 C831 1.415 . S
C830 C833 1.499 1_655 S
C831 H805 0.921 1_655 S
C831 C830 1.415 . S
C831 C832 1.403 . S
C832 H806 0.950 . S
C832 C828 1.385 . S
C832 C831 1.403 . S
C833 C830 1.499 1_455 S
C833 C834 1.373 . S
C833 C835 1.389 . S
C834 H807 0.950 . S
C834 C820 1.377 . S
C834 C833 1.373 . S
C835 C819 1.377 . S
C835 C833 1.389 . S
C835 C836 1.524 . S
C836 C835 1.524 . S
C836 C837 1.397 . S
C836 C841 1.363 . S
C837 H808 0.950 . S
C837 C836 1.397 . S
C837 C838 1.334 . S
C838 H809 0.950 . S
C838 C837 1.334 . S
C838 C839 1.287 . S
C839 C838 1.287 . S
C839 C840 1.524 . S
C839 H842 0.999 . S
C840 H810 0.950 . S
C840 C839 1.524 . S
C840 C841 1.415 . S
C841 H811 0.950 . S
C841 C836 1.363 . S
C841 C840 1.415 . S
H842 C839 0.999 . S
H843 C824 0.913 . S
H844 C862 0.951 1_556 S
H845 C864 0.951 . S
H846 C866 0.950 . S
H847 C867 0.950 . S
H848 C869 0.950 1_554 S
H849 C872 0.950 . S
H850 C873 0.950 . S
H851 C875 0.950 . S
H852 C876 0.950 . S
H853 C877 0.951 . S
H854 C879 0.949 . S
H855 C881 0.950 . S
H856 C882 0.950 . S
H857 C884 0.950 . S
H858 C887 0.950 . S
H859 C888 0.950 . S
H860 C890 0.963 . S
H861 C891 0.950 . S
C862 H844 0.951 1_554 S
C862 C863 1.366 . S
C862 C864 1.388 1_554 S
C863 C862 1.366 . S
C863 C867 1.385 . S
C864 H845 0.951 . S
C864 C862 1.388 1_556 S
C864 C865 1.366 1_556 S
C865 C864 1.366 1_554 S
C865 C866 1.414 . S
C865 C868 1.499 . S
C866 H846 0.950 . S
C866 C865 1.414 . S
C866 C867 1.374 . S
C867 H847 0.950 . S
C867 C863 1.385 . S
C867 C866 1.374 . S
C868 C865 1.499 . S
C868 C869 1.373 1_554 S
C868 C870 1.389 1_554 S
C869 H848 0.950 1_556 S
C869 C868 1.373 1_556 S
C869 C885 1.377 . S
C870 C868 1.389 1_556 S
C870 C871 1.524 . S
C870 C884 1.377 . S
C871 C870 1.524 . S
C871 C872 1.397 1_556 S
C871 C876 1.363 . S
C872 H849 0.950 . S
C872 C871 1.397 1_554 S
C872 C873 1.334 . S
C873 H850 0.950 . S
C873 C872 1.334 . S
C873 C874 1.287 . S
C874 C873 1.287 . S
C874 C875 1.524 1_554 S
C874 H893 0.913 . S
C875 H851 0.950 . S
C875 C874 1.524 1_556 S
C875 C876 1.415 . S
C876 H852 0.950 . S
C876 C871 1.363 . S
C876 C875 1.415 . S
C877 H853 0.951 . S
C877 C878 1.366 . S
C877 C879 1.388 . S
C878 C877 1.366 . S
C878 C882 1.385 . S
C879 H854 0.949 . S
C879 C877 1.388 . S
C879 C880 1.366 . S
C880 C879 1.366 . S
C880 C881 1.414 . S
C880 C883 1.499 . S
C881 H855 0.950 . S
C881 C880 1.414 . S
C881 C882 1.374 . S
C882 H856 0.950 . S
C882 C878 1.385 . S
C882 C881 1.374 . S
C883 C880 1.499 . S
C883 C884 1.373 . S
C883 C885 1.389 . S
C884 H857 0.950 . S
C884 C870 1.377 . S
C884 C883 1.373 . S
C885 C869 1.377 . S
C885 C883 1.389 . S
C885 C886 1.524 . S
C886 C885 1.524 . S
C886 C887 1.397 . S
C886 C891 1.363 1_556 S
C887 H858 0.950 . S
C887 C886 1.397 . S
C887 C888 1.334 . S
C888 H859 0.950 . S
C888 C887 1.334 . S
C888 C889 1.287 . S
C889 C888 1.287 . S
C889 C890 1.506 1_556 S
C889 H892 0.999 . S
C890 H860 0.963 . S
C890 C889 1.506 1_554 S
C890 C891 1.418 . S
C891 H861 0.950 . S
C891 C886 1.363 1_554 S
C891 C890 1.418 . S
H892 C889 0.999 . S
H893 C874 0.913 . S
H894 C912 0.951 . S
H895 C914 0.951 . S
H896 C916 0.950 . S
H897 C917 0.950 . S
H898 C919 0.922 1_545 S
H899 C922 0.950 . S
H900 C923 0.950 . S
H901 C925 0.950 . S
H902 C926 0.950 . S
H903 C927 0.951 . S
H904 C929 0.951 . S
H905 C931 0.927 1_565 S
H906 C932 0.950 . S
H907 C934 0.950 . S
H908 C937 0.950 . S
H909 C938 0.950 . S
H910 C940 0.950 . S
H911 C941 0.950 . S
C912 H894 0.951 . S
C912 C913 1.366 . S
C912 C914 1.388 . S
C913 C912 1.366 . S
C913 C917 1.385 . S
C914 H895 0.951 . S
C914 C912 1.388 . S
C914 C915 1.366 . S
C915 C914 1.366 . S
C915 C916 1.414 . S
C915 C918 1.499 . S
C916 H896 0.950 . S
C916 C915 1.414 . S
C916 C917 1.374 . S
C917 H897 0.950 . S
C917 C913 1.385 . S
C917 C916 1.374 . S
C918 C915 1.499 . S
C918 C919 1.455 . S
C918 C920 1.389 . S
C919 H898 0.922 1_565 S
C919 C918 1.455 . S
C919 C935 1.328 1_565 S
C920 C918 1.389 . S
C920 C921 1.524 . S
C920 C934 1.377 . S
C921 C920 1.524 . S
C921 C922 1.397 . S
C921 C926 1.363 . S
C922 H899 0.950 . S
C922 C921 1.397 . S
C922 C923 1.334 . S
C923 H900 0.950 . S
C923 C922 1.334 . S
C923 C924 1.287 . S
C924 C923 1.287 . S
C924 C925 1.524 . S
C924 H943 0.913 . S
C925 H901 0.950 . S
C925 C924 1.524 . S
C925 C926 1.415 . S
C926 H902 0.950 . S
C926 C921 1.363 . S
C926 C925 1.415 . S
C927 H903 0.951 . S
C927 C928 1.366 . S
C927 C929 1.388 . S
C928 C927 1.366 . S
C928 C932 1.385 . S
C929 H904 0.951 . S
C929 C927 1.388 . S
C929 C930 1.366 . S
C930 C929 1.366 . S
C930 C931 1.419 . S
C930 C933 1.499 1_545 S
C931 H905 0.927 1_545 S
C931 C930 1.419 . S
C931 C932 1.394 . S
C932 H906 0.950 . S
C932 C928 1.385 . S
C932 C931 1.394 . S
C933 C930 1.499 1_565 S
C933 C934 1.373 . S
C933 C935 1.389 1_565 S
C934 H907 0.950 . S
C934 C920 1.377 . S
C934 C933 1.373 . S
C935 C919 1.328 1_545 S
C935 C933 1.389 1_545 S
C935 C936 1.524 . S
C936 C935 1.524 . S
C936 C937 1.397 . S
C936 C941 1.363 . S
C937 H908 0.950 . S
C937 C936 1.397 . S
C937 C938 1.334 . S
C938 H909 0.950 . S
C938 C937 1.334 . S
C938 C939 1.287 . S
C939 C938 1.287 . S
C939 C940 1.524 . S
C939 H942 0.999 . S
C940 H910 0.950 . S
C940 C939 1.524 . S
C940 C941 1.415 . S
C941 H911 0.950 . S
C941 C936 1.363 . S
C941 C940 1.415 . S
H942 C939 0.999 . S
H943 C924 0.913 . S
H944 C962 0.951 . S
H945 C964 0.951 . S
H946 C966 0.950 . S
H947 C967 0.950 . S
H948 C969 0.950 . S
H949 C972 0.950 . S
H950 C973 0.950 . S
H951 C975 0.950 . S
H952 C976 0.950 . S
H953 C977 0.951 . S
H954 C979 0.951 . S
H955 C981 0.950 . S
H956 C982 0.950 . S
H957 C984 0.950 . S
H958 C987 0.950 . S
H959 C988 0.950 . S
H960 C990 0.950 . S
H961 C991 0.950 . S
C962 H944 0.951 . S
C962 C963 1.366 . S
C962 C964 1.388 . S
C963 C962 1.366 . S
C963 C967 1.385 . S
C964 H945 0.951 . S
C964 C962 1.388 . S
C964 C965 1.366 . S
C965 C964 1.366 . S
C965 C966 1.414 . S
C965 C968 1.499 . S
C966 H946 0.950 . S
C966 C965 1.414 . S
C966 C967 1.374 . S
C967 H947 0.950 . S
C967 C963 1.385 . S
C967 C966 1.374 . S
C968 C965 1.499 . S
C968 C969 1.373 . S
C968 C970 1.389 . S
C969 H948 0.950 . S
C969 C968 1.373 . S
C969 C985 1.377 . S
C970 C968 1.389 . S
C970 C971 1.524 . S
C970 C984 1.377 . S
C971 C970 1.524 . S
C971 C972 1.397 . S
C971 C976 1.363 . S
C972 H949 0.950 . S
C972 C971 1.397 . S
C972 C973 1.334 . S
C973 H950 0.950 . S
C973 C972 1.334 . S
C973 C974 1.287 . S
C974 C973 1.287 . S
C974 C975 1.524 . S
C974 H993 0.913 . S
C975 H951 0.950 . S
C975 C974 1.524 . S
C975 C976 1.415 . S
C976 H952 0.950 . S
C976 C971 1.363 . S
C976 C975 1.415 . S
C977 H953 0.951 . S
C977 C978 1.366 . S
C977 C979 1.388 . S
C978 C977 1.366 . S
C978 C982 1.385 . S
C979 H954 0.951 . S
C979 C977 1.388 . S
C979 C980 1.366 . S
C980 C979 1.366 . S
C980 C981 1.414 . S
C980 C983 1.499 . S
C981 H955 0.950 . S
C981 C980 1.414 . S
C981 C982 1.374 . S
C982 H956 0.950 . S
C982 C978 1.385 . S
C982 C981 1.374 . S
C983 C980 1.499 . S
C983 C984 1.373 . S
C983 C985 1.389 . S
C984 H957 0.950 . S
C984 C970 1.377 . S
C984 C983 1.373 . S
C985 C969 1.377 . S
C985 C983 1.389 . S
C985 C986 1.524 . S
C986 C985 1.524 . S
C986 C987 1.397 . S
C986 C991 1.363 . S
C987 H958 0.950 . S
C987 C986 1.397 . S
C987 C988 1.334 . S
C988 H959 0.950 . S
C988 C987 1.334 . S
C988 C989 1.287 . S
C989 C988 1.287 . S
C989 C990 1.524 . S
C989 H992 0.999 . S
C990 H960 0.950 . S
C990 C989 1.524 . S
C990 C991 1.415 . S
C991 H961 0.950 . S
C991 C986 1.363 . S
C991 C990 1.415 . S
H992 C989 0.999 . S
H993 C974 0.913 . S
H994 C1012 0.951 . S
H995 C1014 0.951 . S
H996 C1016 0.950 . S
H997 C1017 0.950 . S
H998 C1019 0.950 . S
H999 C1022 0.979 . S
H1000 C1023 0.950 1_565 S
H1001 C1025 0.950 . S
H1002 C1026 0.950 . S
H1003 C1027 0.951 . S
H1004 C1029 0.956 1_665 S
H1005 C1031 0.950 . S
H1006 C1032 0.950 . S
H1007 C1034 0.950 . S
H1008 C1037 0.950 1_545 S
H1009 C1038 0.950 . S
H1010 C1040 0.950 . S
H1011 C1041 0.950 . S
C1012 H994 0.951 . S
C1012 C1013 1.366 . S
C1012 C1014 1.388 . S
C1013 C1012 1.366 . S
C1013 C1017 1.385 . S
C1014 H995 0.951 . S
C1014 C1012 1.388 . S
C1014 C1015 1.366 . S
C1015 C1014 1.366 . S
C1015 C1016 1.414 . S
C1015 C1018 1.499 . S
C1016 H996 0.950 . S
C1016 C1015 1.414 . S
C1016 C1017 1.374 . S
C1017 H997 0.950 . S
C1017 C1013 1.385 . S
C1017 C1016 1.374 . S
C1018 C1015 1.499 . S
C1018 C1019 1.373 . S
C1018 C1020 1.389 1_565 S
C1019 H998 0.950 . S
C1019 C1018 1.373 . S
C1019 C1035 1.377 . S
C1020 C1018 1.389 1_545 S
C1020 C1021 1.524 . S
C1020 C1034 1.377 . S
C1021 C1020 1.524 . S
C1021 C1022 1.379 1_545 S
C1021 C1026 1.363 . S
C1022 H999 0.979 . S
C1022 C1021 1.379 1_565 S
C1022 C1023 1.322 1_565 S
C1023 H1000 0.950 1_545 S
C1023 C1022 1.322 1_545 S
C1023 C1024 1.287 . S
C1024 C1023 1.287 . S
C1024 C1025 1.524 . S
C1024 H1043 0.913 . S
C1025 H1001 0.950 . S
C1025 C1024 1.524 . S
C1025 C1026 1.415 . S
C1026 H1002 0.950 . S
C1026 C1021 1.363 . S
C1026 C1025 1.415 . S
C1027 H1003 0.951 . S
C1027 C1028 1.366 . S
C1027 C1029 1.396 . S
C1028 C1027 1.366 . S
C1028 C1032 1.385 . S
C1029 H1004 0.956 1_445 S
C1029 C1027 1.396 . S
C1029 C1030 1.356 1_455 S
C1030 C1029 1.356 1_655 S
C1030 C1031 1.414 . S
C1030 C1033 1.499 . S
C1031 H1005 0.950 . S
C1031 C1030 1.414 . S
C1031 C1032 1.374 1_655 S
C1032 H1006 0.950 . S
C1032 C1028 1.385 . S
C1032 C1031 1.374 1_455 S
C1033 C1030 1.499 . S
C1033 C1034 1.373 . S
C1033 C1035 1.389 1_545 S
C1034 H1007 0.950 . S
C1034 C1020 1.377 . S
C1034 C1033 1.373 . S
C1035 C1019 1.377 . S
C1035 C1033 1.389 1_565 S
C1035 C1036 1.524 . S
C1036 C1035 1.524 . S
C1036 C1037 1.397 . S
C1036 C1041 1.363 . S
C1037 H1008 0.950 1_565 S
C1037 C1036 1.397 . S
C1037 C1038 1.334 . S
C1038 H1009 0.950 . S
C1038 C1037 1.334 . S
C1038 C1039 1.287 . S
C1039 C1038 1.287 . S
C1039 C1040 1.524 . S
C1039 H1042 0.999 . S
C1040 H1010 0.950 . S
C1040 C1039 1.524 . S
C1040 C1041 1.415 . S
C1041 H1011 0.950 . S
C1041 C1036 1.363 . S
C1041 C1040 1.415 . S
H1042 C1039 0.999 . S
H1043 C1024 0.913 . S
H1044 C1062 0.951 . S
H1045 C1064 0.951 . S
H1046 C1066 0.950 . S
H1047 C1067 0.950 1_565 S
H1048 C1069 0.950 . S
H1049 C1072 0.950 . S
H1050 C1073 0.945 1_565 S
H1051 C1075 0.950 . S
H1052 C1076 0.950 . S
H1053 C1077 0.951 . S
H1054 C1079 0.951 . S
H1055 C1081 0.950 . S
H1056 C1082 0.950 . S
H1057 C1084 0.950 . S
H1058 C1087 0.950 . S
H1059 C1088 0.950 . S
H1060 C1090 0.950 . S
H1061 C1091 0.950 . S
C1062 H1044 0.951 . S
C1062 C1063 1.366 . S
C1062 C1064 1.388 . S
C1063 C1062 1.366 . S
C1063 C1067 1.385 . S
C1064 H1045 0.951 . S
C1064 C1062 1.388 . S
C1064 C1065 1.366 . S
C1065 C1064 1.366 . S
C1065 C1066 1.414 1_545 S
C1065 C1068 1.499 1_545 S
C1066 H1046 0.950 . S
C1066 C1065 1.414 1_565 S
C1066 C1067 1.374 1_565 S
C1067 H1047 0.950 1_545 S
C1067 C1063 1.385 . S
C1067 C1066 1.374 1_545 S
C1068 C1065 1.499 1_565 S
C1068 C1069 1.373 . S
C1068 C1070 1.389 . S
C1069 H1048 0.950 . S
C1069 C1068 1.373 . S
C1069 C1085 1.377 . S
C1070 C1068 1.389 . S
C1070 C1071 1.524 1_565 S
C1070 C1084 1.377 . S
C1071 C1070 1.524 1_545 S
C1071 C1072 1.397 1_545 S
C1071 C1076 1.363 . S
C1072 H1049 0.950 . S
C1072 C1071 1.397 1_565 S
C1072 C1073 1.334 1_565 S
C1073 H1050 0.945 1_545 S
C1073 C1072 1.334 1_545 S
C1073 C1074 1.287 . S
C1074 C1073 1.287 . S
C1074 C1075 1.524 . S
C1074 H1093 0.913 . S
C1075 H1051 0.950 . S
C1075 C1074 1.524 . S
C1075 C1076 1.415 . S
C1076 H1052 0.950 . S
C1076 C1071 1.363 . S
C1076 C1075 1.415 . S
C1077 H1053 0.951 . S
C1077 C1078 1.366 . S
C1077 C1079 1.388 . S
C1078 C1077 1.366 . S
C1078 C1082 1.385 . S
C1079 H1054 0.951 . S
C1079 C1077 1.388 . S
C1079 C1080 1.366 . S
C1080 C1079 1.366 . S
C1080 C1081 1.414 . S
C1080 C1083 1.499 . S
C1081 H1055 0.950 . S
C1081 C1080 1.414 . S
C1081 C1082 1.374 . S
C1082 H1056 0.950 . S
C1082 C1078 1.385 . S
C1082 C1081 1.374 . S
C1083 C1080 1.499 . S
C1083 C1084 1.373 . S
C1083 C1085 1.389 . S
C1084 H1057 0.950 . S
C1084 C1070 1.377 . S
C1084 C1083 1.373 . S
C1085 C1069 1.377 . S
C1085 C1083 1.389 . S
C1085 C1086 1.524 . S
C1086 C1085 1.524 . S
C1086 C1087 1.397 . S
C1086 C1091 1.363 . S
C1087 H1058 0.950 . S
C1087 C1086 1.397 . S
C1087 C1088 1.334 . S
C1088 H1059 0.950 . S
C1088 C1087 1.334 . S
C1088 C1089 1.287 . S
C1089 C1088 1.287 . S
C1089 C1090 1.524 . S
C1089 H1092 0.999 . S
C1090 H1060 0.950 . S
C1090 C1089 1.524 . S
C1090 C1091 1.415 . S
C1091 H1061 0.950 . S
C1091 C1086 1.363 . S
C1091 C1090 1.415 . S
H1092 C1089 0.999 . S
H1093 C1074 0.913 . S
H1094 C1112 0.951 . S
H1095 C1114 0.951 . S
H1096 C1116 0.950 . S
H1097 C1117 0.950 . S
H1098 C1119 0.950 . S
H1099 C1122 0.950 . S
H1100 C1123 0.950 . S
H1101 C1125 0.950 . S
H1102 C1126 0.950 . S
H1103 C1127 0.951 . S
H1104 C1129 0.951 . S
H1105 C1131 0.950 . S
H1106 C1132 0.950 . S
H1107 C1134 0.950 . S
H1108 C1137 0.950 . S
H1109 C1138 0.950 . S
H1110 C1140 0.950 . S
H1111 C1141 0.950 . S
C1112 H1094 0.951 . S
C1112 C1113 1.366 . S
C1112 C1114 1.388 . S
C1113 C1112 1.366 . S
C1113 C1117 1.385 . S
C1114 H1095 0.951 . S
C1114 C1112 1.388 . S
C1114 C1115 1.366 . S
C1115 C1114 1.366 . S
C1115 C1116 1.414 . S
C1115 C1118 1.499 . S
C1116 H1096 0.950 . S
C1116 C1115 1.414 . S
C1116 C1117 1.374 . S
C1117 H1097 0.950 . S
C1117 C1113 1.385 . S
C1117 C1116 1.374 . S
C1118 C1115 1.499 . S
C1118 C1119 1.373 . S
C1118 C1120 1.389 . S
C1119 H1098 0.950 . S
C1119 C1118 1.373 . S
C1119 C1135 1.377 . S
C1120 C1118 1.389 . S
C1120 C1121 1.524 . S
C1120 C1134 1.377 . S
C1121 C1120 1.524 . S
C1121 C1122 1.397 . S
C1121 C1126 1.363 . S
C1122 H1099 0.950 . S
C1122 C1121 1.397 . S
C1122 C1123 1.334 . S
C1123 H1100 0.950 . S
C1123 C1122 1.334 . S
C1123 C1124 1.287 . S
C1124 C1123 1.287 . S
C1124 C1125 1.524 . S
C1124 H1143 0.913 . S
C1125 H1101 0.950 . S
C1125 C1124 1.524 . S
C1125 C1126 1.415 . S
C1126 H1102 0.950 . S
C1126 C1121 1.363 . S
C1126 C1125 1.415 . S
C1127 H1103 0.951 . S
C1127 C1128 1.366 . S
C1127 C1129 1.388 . S
C1128 C1127 1.366 . S
C1128 C1132 1.385 . S
C1129 H1104 0.951 . S
C1129 C1127 1.388 . S
C1129 C1130 1.366 . S
C1130 C1129 1.366 . S
C1130 C1131 1.414 . S
C1130 C1133 1.499 . S
C1131 H1105 0.950 . S
C1131 C1130 1.414 . S
C1131 C1132 1.374 . S
C1132 H1106 0.950 . S
C1132 C1128 1.385 . S
C1132 C1131 1.374 . S
C1133 C1130 1.499 . S
C1133 C1134 1.373 . S
C1133 C1135 1.389 . S
C1134 H1107 0.950 . S
C1134 C1120 1.377 . S
C1134 C1133 1.373 . S
C1135 C1119 1.377 . S
C1135 C1133 1.389 . S
C1135 C1136 1.524 . S
C1136 C1135 1.524 . S
C1136 C1137 1.397 . S
C1136 C1141 1.363 . S
C1137 H1108 0.950 . S
C1137 C1136 1.397 . S
C1137 C1138 1.334 . S
C1138 H1109 0.950 . S
C1138 C1137 1.334 . S
C1138 C1139 1.287 . S
C1139 C1138 1.287 . S
C1139 C1140 1.524 . S
C1139 H1142 0.999 . S
C1140 H1110 0.950 . S
C1140 C1139 1.524 . S
C1140 C1141 1.415 . S
C1141 H1111 0.950 . S
C1141 C1136 1.363 . S
C1141 C1140 1.415 . S
H1142 C1139 0.999 . S
H1143 C1124 0.913 . S
H1144 C1162 0.951 . S
H1145 C1164 0.951 . S
H1146 C1166 0.950 . S
H1147 C1167 0.950 . S
H1148 C1169 0.950 . S
H1149 C1172 0.950 . S
H1150 C1173 0.950 . S
H1151 C1175 0.950 . S
H1152 C1176 0.950 . S
H1153 C1177 0.951 . S
H1154 C1179 0.951 . S
H1155 C1181 0.950 . S
H1156 C1182 0.950 . S
H1157 C1184 0.950 . S
H1158 C1187 0.950 . S
H1159 C1188 0.950 . S
H1160 C1190 0.950 . S
H1161 C1191 0.950 . S
C1162 H1144 0.951 . S
C1162 C1163 1.366 . S
C1162 C1164 1.388 . S
C1163 C1162 1.366 . S
C1163 C1167 1.385 . S
C1164 H1145 0.951 . S
C1164 C1162 1.388 . S
C1164 C1165 1.366 . S
C1165 C1164 1.366 . S
C1165 C1166 1.414 . S
C1165 C1168 1.499 . S
C1166 H1146 0.950 . S
C1166 C1165 1.414 . S
C1166 C1167 1.374 . S
C1167 H1147 0.950 . S
C1167 C1163 1.385 . S
C1167 C1166 1.374 . S
C1168 C1165 1.499 . S
C1168 C1169 1.373 . S
C1168 C1170 1.389 . S
C1169 H1148 0.950 . S
C1169 C1168 1.373 . S
C1169 C1185 1.377 . S
C1170 C1168 1.389 . S
C1170 C1171 1.524 . S
C1170 C1184 1.377 . S
C1171 C1170 1.524 . S
C1171 C1172 1.397 . S
C1171 C1176 1.363 . S
C1172 H1149 0.950 . S
C1172 C1171 1.397 . S
C1172 C1173 1.334 . S
C1173 H1150 0.950 . S
C1173 C1172 1.334 . S
C1173 C1174 1.287 . S
C1174 C1173 1.287 . S
C1174 C1175 1.524 . S
C1174 H1193 0.913 . S
C1175 H1151 0.950 . S
C1175 C1174 1.524 . S
C1175 C1176 1.415 . S
C1176 H1152 0.950 . S
C1176 C1171 1.363 . S
C1176 C1175 1.415 . S
C1177 H1153 0.951 . S
C1177 C1178 1.366 . S
C1177 C1179 1.388 . S
C1178 C1177 1.366 . S
C1178 C1182 1.385 . S
C1179 H1154 0.951 . S
C1179 C1177 1.388 . S
C1179 C1180 1.366 . S
C1180 C1179 1.366 . S
C1180 C1181 1.414 . S
C1180 C1183 1.499 . S
C1181 H1155 0.950 . S
C1181 C1180 1.414 . S
C1181 C1182 1.374 . S
C1182 H1156 0.950 . S
C1182 C1178 1.385 . S
C1182 C1181 1.374 . S
C1183 C1180 1.499 . S
C1183 C1184 1.373 . S
C1183 C1185 1.389 . S
C1184 H1157 0.950 . S
C1184 C1170 1.377 . S
C1184 C1183 1.373 . S
C1185 C1169 1.377 . S
C1185 C1183 1.389 . S
C1185 C1186 1.524 . S
C1186 C1185 1.524 . S
C1186 C1187 1.397 . S
C1186 C1191 1.363 . S
C1187 H1158 0.950 . S
C1187 C1186 1.397 . S
C1187 C1188 1.334 . S
C1188 H1159 0.950 . S
C1188 C1187 1.334 . S
C1188 C1189 1.287 . S
C1189 C1188 1.287 . S
C1189 C1190 1.524 . S
C1189 H1192 0.999 . S
C1190 H1160 0.950 . S
C1190 C1189 1.524 . S
C1190 C1191 1.415 . S
C1191 H1161 0.950 . S
C1191 C1186 1.363 . S
C1191 C1190 1.415 . S
H1192 C1189 0.999 . S
H1193 C1174 0.913 . S
H1194 C1212 0.951 . S
H1195 C1214 0.951 . S
H1196 C1216 0.950 . S
H1197 C1217 0.950 . S
H1198 C1219 0.950 . S
H1199 C1222 0.950 . S
H1200 C1223 0.950 . S
H1201 C1225 0.950 . S
H1202 C1226 0.950 . S
H1203 C1227 0.951 . S
H1204 C1229 0.951 . S
H1205 C1231 0.950 . S
H1206 C1232 0.950 . S
H1207 C1234 0.950 . S
H1208 C1237 0.950 . S
H1209 C1238 0.950 . S
H1210 C1240 0.950 . S
H1211 C1241 0.950 . S
C1212 H1194 0.951 . S
C1212 C1213 1.366 . S
C1212 C1214 1.388 . S
C1213 C1212 1.366 . S
C1213 C1217 1.385 . S
C1214 H1195 0.951 . S
C1214 C1212 1.388 . S
C1214 C1215 1.366 . S
C1215 C1214 1.366 . S
C1215 C1216 1.414 . S
C1215 C1218 1.499 . S
C1216 H1196 0.950 . S
C1216 C1215 1.414 . S
C1216 C1217 1.374 . S
C1217 H1197 0.950 . S
C1217 C1213 1.385 . S
C1217 C1216 1.374 . S
C1218 C1215 1.499 . S
C1218 C1219 1.373 . S
C1218 C1220 1.389 . S
C1219 H1198 0.950 . S
C1219 C1218 1.373 . S
C1219 C1235 1.377 . S
C1220 C1218 1.389 . S
C1220 C1221 1.524 . S
C1220 C1234 1.377 . S
C1221 C1220 1.524 . S
C1221 C1222 1.397 . S
C1221 C1226 1.363 . S
C1222 H1199 0.950 . S
C1222 C1221 1.397 . S
C1222 C1223 1.334 . S
C1223 H1200 0.950 . S
C1223 C1222 1.334 . S
C1223 C1224 1.287 . S
C1224 C1223 1.287 . S
C1224 C1225 1.524 . S
C1224 H1243 0.913 . S
C1225 H1201 0.950 . S
C1225 C1224 1.524 . S
C1225 C1226 1.415 . S
C1226 H1202 0.950 . S
C1226 C1221 1.363 . S
C1226 C1225 1.415 . S
C1227 H1203 0.951 . S
C1227 C1228 1.366 . S
C1227 C1229 1.388 . S
C1228 C1227 1.366 . S
C1228 C1232 1.385 . S
C1229 H1204 0.951 . S
C1229 C1227 1.388 . S
C1229 C1230 1.366 . S
C1230 C1229 1.366 . S
C1230 C1231 1.414 . S
C1230 C1233 1.499 . S
C1231 H1205 0.950 . S
C1231 C1230 1.414 . S
C1231 C1232 1.374 . S
C1232 H1206 0.950 . S
C1232 C1228 1.385 . S
C1232 C1231 1.374 . S
C1233 C1230 1.499 . S
C1233 C1234 1.373 . S
C1233 C1235 1.389 . S
C1234 H1207 0.950 . S
C1234 C1220 1.377 . S
C1234 C1233 1.373 . S
C1235 C1219 1.377 . S
C1235 C1233 1.389 . S
C1235 C1236 1.524 . S
C1236 C1235 1.524 . S
C1236 C1237 1.397 . S
C1236 C1241 1.363 . S
C1237 H1208 0.950 . S
C1237 C1236 1.397 . S
C1237 C1238 1.334 . S
C1238 H1209 0.950 . S
C1238 C1237 1.334 . S
C1238 C1239 1.287 . S
C1239 C1238 1.287 . S
C1239 C1240 1.524 . S
C1239 H1242 0.999 . S
C1240 H1210 0.950 . S
C1240 C1239 1.524 . S
C1240 C1241 1.415 . S
C1241 H1211 0.950 . S
C1241 C1236 1.363 . S
C1241 C1240 1.415 . S
H1242 C1239 0.999 . S
H1243 C1224 0.913 . S
H1244 C1262 0.951 . S
H1245 C1264 0.951 . S
H1246 C1266 0.950 . S
H1247 C1267 0.950 . S
H1248 C1269 0.950 . S
H1249 C1272 0.950 . S
H1250 C1273 0.950 . S
H1251 C1275 0.950 . S
H1252 C1276 0.950 . S
H1253 C1277 0.951 . S
H1254 C1279 0.951 . S
H1255 C1281 0.950 . S
H1256 C1282 0.950 . S
H1257 C1284 0.950 . S
H1258 C1287 0.950 . S
H1259 C1288 0.950 . S
H1260 C1290 0.950 . S
H1261 C1291 0.950 . S
C1262 H1244 0.951 . S
C1262 C1263 1.366 . S
C1262 C1264 1.388 . S
C1263 C1262 1.366 . S
C1263 C1267 1.385 . S
C1264 H1245 0.951 . S
C1264 C1262 1.388 . S
C1264 C1265 1.366 . S
C1265 C1264 1.366 . S
C1265 C1266 1.414 . S
C1265 C1268 1.499 . S
C1266 H1246 0.950 . S
C1266 C1265 1.414 . S
C1266 C1267 1.374 . S
C1267 H1247 0.950 . S
C1267 C1263 1.385 . S
C1267 C1266 1.374 . S
C1268 C1265 1.499 . S
C1268 C1269 1.373 . S
C1268 C1270 1.389 . S
C1269 H1248 0.950 . S
C1269 C1268 1.373 . S
C1269 C1285 1.377 . S
C1270 C1268 1.389 . S
C1270 C1271 1.524 . S
C1270 C1284 1.377 . S
C1271 C1270 1.524 . S
C1271 C1272 1.397 . S
C1271 C1276 1.363 . S
C1272 H1249 0.950 . S
C1272 C1271 1.397 . S
C1272 C1273 1.334 . S
C1273 H1250 0.950 . S
C1273 C1272 1.334 . S
C1273 C1274 1.287 . S
C1274 C1273 1.287 . S
C1274 C1275 1.524 . S
C1274 H1293 0.913 . S
C1275 H1251 0.950 . S
C1275 C1274 1.524 . S
C1275 C1276 1.415 . S
C1276 H1252 0.950 . S
C1276 C1271 1.363 . S
C1276 C1275 1.415 . S
C1277 H1253 0.951 . S
C1277 C1278 1.366 . S
C1277 C1279 1.388 . S
C1278 C1277 1.366 . S
C1278 C1282 1.385 . S
C1279 H1254 0.951 . S
C1279 C1277 1.388 . S
C1279 C1280 1.366 . S
C1280 C1279 1.366 . S
C1280 C1281 1.414 . S
C1280 C1283 1.499 . S
C1281 H1255 0.950 . S
C1281 C1280 1.414 . S
C1281 C1282 1.374 . S
C1282 H1256 0.950 . S
C1282 C1278 1.385 . S
C1282 C1281 1.374 . S
C1283 C1280 1.499 . S
C1283 C1284 1.373 . S
C1283 C1285 1.389 . S
C1284 H1257 0.950 . S
C1284 C1270 1.377 . S
C1284 C1283 1.373 . S
C1285 C1269 1.377 . S
C1285 C1283 1.389 . S
C1285 C1286 1.524 . S
C1286 C1285 1.524 . S
C1286 C1287 1.397 . S
C1286 C1291 1.363 . S
C1287 H1258 0.950 . S
C1287 C1286 1.397 . S
C1287 C1288 1.334 . S
C1288 H1259 0.950 . S
C1288 C1287 1.334 . S
C1288 C1289 1.287 . S
C1289 C1288 1.287 . S
C1289 C1290 1.524 . S
C1289 H1292 0.999 . S
C1290 H1260 0.950 . S
C1290 C1289 1.524 . S
C1290 C1291 1.415 . S
C1291 H1261 0.950 . S
C1291 C1286 1.363 . S
C1291 C1290 1.415 . S
H1292 C1289 0.999 . S
H1293 C1274 0.913 . S
H1294 C1312 0.951 . S
H1295 C1314 0.951 . S
H1296 C1316 0.950 . S
H1297 C1317 0.950 . S
H1298 C1319 0.950 . S
H1299 C1322 0.950 . S
H1300 C1323 0.950 . S
H1301 C1325 0.950 . S
H1302 C1326 0.950 . S
H1303 C1327 0.951 . S
H1304 C1329 0.951 . S
H1305 C1331 0.950 1_565 S
H1306 C1332 0.950 . S
H1307 C1334 0.950 . S
H1308 C1337 0.950 . S
H1309 C1338 0.950 . S
H1310 C1340 0.950 . S
H1311 C1341 0.956 . S
C1312 H1294 0.951 . S
C1312 C1313 1.366 . S
C1312 C1314 1.388 . S
C1313 C1312 1.366 . S
C1313 C1317 1.385 . S
C1314 H1295 0.951 . S
C1314 C1312 1.388 . S
C1314 C1315 1.366 . S
C1315 C1314 1.366 . S
C1315 C1316 1.414 . S
C1315 C1318 1.499 1_556 S
C1316 H1296 0.950 . S
C1316 C1315 1.414 . S
C1316 C1317 1.374 . S
C1317 H1297 0.950 . S
C1317 C1313 1.385 . S
C1317 C1316 1.374 . S
C1318 C1315 1.499 1_554 S
C1318 C1319 1.373 1_564 S
C1318 C1320 1.389 . S
C1319 H1298 0.950 . S
C1319 C1318 1.373 1_546 S
C1319 C1335 1.377 1_556 S
C1320 C1318 1.389 . S
C1320 C1321 1.524 . S
C1320 C1334 1.377 . S
C1321 C1320 1.524 . S
C1321 C1322 1.397 . S
C1321 C1326 1.363 . S
C1322 H1299 0.950 . S
C1322 C1321 1.397 . S
C1322 C1323 1.334 . S
C1323 H1300 0.950 . S
C1323 C1322 1.334 . S
C1323 C1324 1.287 . S
C1324 C1323 1.287 . S
C1324 C1325 1.524 . S
C1324 H1343 0.913 . S
C1325 H1301 0.950 . S
C1325 C1324 1.524 . S
C1325 C1326 1.415 . S
C1326 H1302 0.950 . S
C1326 C1321 1.363 . S
C1326 C1325 1.415 . S
C1327 H1303 0.951 . S
C1327 C1328 1.366 . S
C1327 C1329 1.388 . S
C1328 C1327 1.366 . S
C1328 C1332 1.385 . S
C1329 H1304 0.951 . S
C1329 C1327 1.388 . S
C1329 C1330 1.366 . S
C1330 C1329 1.366 . S
C1330 C1331 1.414 . S
C1330 C1333 1.499 . S
C1331 H1305 0.950 1_545 S
C1331 C1330 1.414 . S
C1331 C1332 1.374 . S
C1332 H1306 0.950 . S
C1332 C1328 1.385 . S
C1332 C1331 1.374 . S
C1333 C1330 1.499 . S
C1333 C1334 1.373 1_545 S
C1333 C1335 1.389 . S
C1334 H1307 0.950 . S
C1334 C1320 1.377 . S
C1334 C1333 1.373 1_565 S
C1335 C1319 1.377 1_554 S
C1335 C1333 1.389 . S
C1335 C1336 1.524 1_554 S
C1336 C1335 1.524 1_556 S
C1336 C1337 1.397 . S
C1336 C1341 1.363 . S
C1337 H1308 0.950 . S
C1337 C1336 1.397 . S
C1337 C1338 1.334 . S
C1338 H1309 0.950 . S
C1338 C1337 1.334 . S
C1338 C1339 1.287 . S
C1339 C1338 1.287 . S
C1339 C1340 1.524 . S
C1339 H1342 0.999 . S
C1340 H1310 0.950 . S
C1340 C1339 1.524 . S
C1340 C1341 1.415 . S
C1341 H1311 0.956 . S
C1341 C1336 1.363 . S
C1341 C1340 1.415 . S
H1342 C1339 0.999 . S
H1343 C1324 0.913 . S
H1344 C1362 0.951 . S
H1345 C1364 0.951 . S
H1346 C1366 0.950 . S
H1347 C1367 0.950 . S
H1348 C1369 0.950 . S
H1349 C1372 0.950 . S
H1350 C1373 0.950 . S
H1351 C1375 0.950 . S
H1352 C1376 0.950 . S
H1353 C1377 0.951 . S
H1354 C1379 0.951 . S
H1355 C1381 0.950 . S
H1356 C1382 0.950 . S
H1357 C1384 0.950 . S
H1358 C1387 0.950 . S
H1359 C1388 0.950 . S
H1360 C1390 0.950 . S
H1361 C1391 0.950 . S
C1362 H1344 0.951 . S
C1362 C1363 1.366 . S
C1362 C1364 1.388 . S
C1363 C1362 1.366 . S
C1363 C1367 1.385 . S
C1364 H1345 0.951 . S
C1364 C1362 1.388 . S
C1364 C1365 1.366 . S
C1365 C1364 1.366 . S
C1365 C1366 1.414 . S
C1365 C1368 1.499 . S
C1366 H1346 0.950 . S
C1366 C1365 1.414 . S
C1366 C1367 1.374 . S
C1367 H1347 0.950 . S
C1367 C1363 1.385 . S
C1367 C1366 1.374 . S
C1368 C1365 1.499 . S
C1368 C1369 1.373 . S
C1368 C1370 1.389 . S
C1369 H1348 0.950 . S
C1369 C1368 1.373 . S
C1369 C1385 1.377 . S
C1370 C1368 1.389 . S
C1370 C1371 1.524 . S
C1370 C1384 1.377 . S
C1371 C1370 1.524 . S
C1371 C1372 1.397 . S
C1371 C1376 1.363 . S
C1372 H1349 0.950 . S
C1372 C1371 1.397 . S
C1372 C1373 1.334 . S
C1373 H1350 0.950 . S
C1373 C1372 1.334 . S
C1373 C1374 1.287 . S
C1374 C1373 1.287 . S
C1374 C1375 1.524 . S
C1374 H1393 0.913 . S
C1375 H1351 0.950 . S
C1375 C1374 1.524 . S
C1375 C1376 1.415 . S
C1376 H1352 0.950 . S
C1376 C1371 1.363 . S
C1376 C1375 1.415 . S
C1377 H1353 0.951 . S
C1377 C1378 1.366 . S
C1377 C1379 1.388 . S
C1378 C1377 1.366 . S
C1378 C1382 1.385 . S
C1379 H1354 0.951 . S
C1379 C1377 1.388 . S
C1379 C1380 1.366 . S
C1380 C1379 1.366 . S
C1380 C1381 1.414 . S
C1380 C1383 1.499 . S
C1381 H1355 0.950 . S
C1381 C1380 1.414 . S
C1381 C1382 1.374 . S
C1382 H1356 0.950 . S
C1382 C1378 1.385 . S
C1382 C1381 1.374 . S
C1383 C1380 1.499 . S
C1383 C1384 1.373 . S
C1383 C1385 1.389 . S
C1384 H1357 0.950 . S
C1384 C1370 1.377 . S
C1384 C1383 1.373 . S
C1385 C1369 1.377 . S
C1385 C1383 1.389 . S
C1385 C1386 1.524 . S
C1386 C1385 1.524 . S
C1386 C1387 1.397 . S
C1386 C1391 1.363 . S
C1387 H1358 0.950 . S
C1387 C1386 1.397 . S
C1387 C1388 1.334 . S
C1388 H1359 0.950 . S
C1388 C1387 1.334 . S
C1388 C1389 1.287 . S
C1389 C1388 1.287 . S
C1389 C1390 1.524 . S
C1389 H1392 0.999 . S
C1390 H1360 0.950 . S
C1390 C1389 1.524 . S
C1390 C1391 1.415 . S
C1391 H1361 0.950 . S
C1391 C1386 1.363 . S
C1391 C1390 1.415 . S
H1392 C1389 0.999 . S
H1393 C1374 0.913 . S
H1394 C1412 0.951 . S
H1395 C1414 0.951 . S
H1396 C1416 0.950 . S
H1397 C1417 0.950 . S
H1398 C1419 0.950 . S
H1399 C1422 0.950 . S
H1400 C1423 0.950 . S
H1401 C1425 0.950 . S
H1402 C1426 0.950 . S
H1403 C1427 0.951 . S
H1404 C1429 0.951 . S
H1405 C1431 0.950 . S
H1406 C1432 0.950 . S
H1407 C1434 0.950 . S
H1408 C1437 0.950 . S
H1409 C1438 0.950 . S
H1410 C1440 0.950 . S
H1411 C1441 0.950 . S
C1412 H1394 0.951 . S
C1412 C1413 1.366 . S
C1412 C1414 1.388 . S
C1413 C1412 1.366 . S
C1413 C1417 1.385 . S
C1414 H1395 0.951 . S
C1414 C1412 1.388 . S
C1414 C1415 1.366 . S
C1415 C1414 1.366 . S
C1415 C1416 1.414 . S
C1415 C1418 1.499 . S
C1416 H1396 0.950 . S
C1416 C1415 1.414 . S
C1416 C1417 1.374 . S
C1417 H1397 0.950 . S
C1417 C1413 1.385 . S
C1417 C1416 1.374 . S
C1418 C1415 1.499 . S
C1418 C1419 1.373 . S
C1418 C1420 1.389 . S
C1419 H1398 0.950 . S
C1419 C1418 1.373 . S
C1419 C1435 1.377 . S
C1420 C1418 1.389 . S
C1420 C1421 1.524 . S
C1420 C1434 1.377 . S
C1421 C1420 1.524 . S
C1421 C1422 1.397 . S
C1421 C1426 1.363 . S
C1422 H1399 0.950 . S
C1422 C1421 1.397 . S
C1422 C1423 1.334 . S
C1423 H1400 0.950 . S
C1423 C1422 1.334 . S
C1423 C1424 1.287 . S
C1424 C1423 1.287 . S
C1424 C1425 1.524 . S
C1424 H1443 0.913 . S
C1425 H1401 0.950 . S
C1425 C1424 1.524 . S
C1425 C1426 1.415 . S
C1426 H1402 0.950 . S
C1426 C1421 1.363 . S
C1426 C1425 1.415 . S
C1427 H1403 0.951 . S
C1427 C1428 1.366 . S
C1427 C1429 1.388 . S
C1428 C1427 1.366 . S
C1428 C1432 1.385 . S
C1429 H1404 0.951 . S
C1429 C1427 1.388 . S
C1429 C1430 1.366 . S
C1430 C1429 1.366 . S
C1430 C1431 1.414 . S
C1430 C1433 1.499 . S
C1431 H1405 0.950 . S
C1431 C1430 1.414 . S
C1431 C1432 1.374 . S
C1432 H1406 0.950 . S
C1432 C1428 1.385 . S
C1432 C1431 1.374 . S
C1433 C1430 1.499 . S
C1433 C1434 1.373 . S
C1433 C1435 1.389 . S
C1434 H1407 0.950 . S
C1434 C1420 1.377 . S
C1434 C1433 1.373 . S
C1435 C1419 1.377 . S
C1435 C1433 1.389 . S
C1435 C1436 1.524 . S
C1436 C1435 1.524 . S
C1436 C1437 1.397 . S
C1436 C1441 1.363 . S
C1437 H1408 0.950 . S
C1437 C1436 1.397 . S
C1437 C1438 1.334 . S
C1438 H1409 0.950 . S
C1438 C1437 1.334 . S
C1438 C1439 1.287 . S
C1439 C1438 1.287 . S
C1439 C1440 1.524 . S
C1439 H1442 0.999 . S
C1440 H1410 0.950 . S
C1440 C1439 1.524 . S
C1440 C1441 1.415 . S
C1441 H1411 0.950 . S
C1441 C1436 1.363 . S
C1441 C1440 1.415 . S
H1442 C1439 0.999 . S
H1443 C1424 0.913 . S
H1444 C1462 0.951 . S
H1445 C1464 0.951 . S
H1446 C1466 0.950 . S
H1447 C1467 0.950 . S
H1448 C1469 0.950 . S
H1449 C1472 0.950 . S
H1450 C1473 0.950 . S
H1451 C1475 0.950 . S
H1452 C1476 0.950 . S
H1453 C1477 0.951 . S
H1454 C1479 0.951 . S
H1455 C1481 0.950 . S
H1456 C1482 0.950 . S
H1457 C1484 0.950 . S
H1458 C1487 0.950 . S
H1459 C1488 0.950 . S
H1460 C1490 0.950 . S
H1461 C1491 0.950 . S
C1462 H1444 0.951 . S
C1462 C1463 1.366 . S
C1462 C1464 1.388 . S
C1463 C1462 1.366 . S
C1463 C1467 1.385 . S
C1464 H1445 0.951 . S
C1464 C1462 1.388 . S
C1464 C1465 1.366 . S
C1465 C1464 1.366 . S
C1465 C1466 1.414 . S
C1465 C1468 1.499 . S
C1466 H1446 0.950 . S
C1466 C1465 1.414 . S
C1466 C1467 1.374 . S
C1467 H1447 0.950 . S
C1467 C1463 1.385 . S
C1467 C1466 1.374 . S
C1468 C1465 1.499 . S
C1468 C1469 1.373 . S
C1468 C1470 1.389 . S
C1469 H1448 0.950 . S
C1469 C1468 1.373 . S
C1469 C1485 1.377 . S
C1470 C1468 1.389 . S
C1470 C1471 1.524 . S
C1470 C1484 1.377 . S
C1471 C1470 1.524 . S
C1471 C1472 1.397 . S
C1471 C1476 1.363 . S
C1472 H1449 0.950 . S
C1472 C1471 1.397 . S
C1472 C1473 1.334 . S
C1473 H1450 0.950 . S
C1473 C1472 1.334 . S
C1473 C1474 1.287 . S
C1474 C1473 1.287 . S
C1474 C1475 1.524 . S
C1474 H1493 0.913 . S
C1475 H1451 0.950 . S
C1475 C1474 1.524 . S
C1475 C1476 1.415 . S
C1476 H1452 0.950 . S
C1476 C1471 1.363 . S
C1476 C1475 1.415 . S
C1477 H1453 0.951 . S
C1477 C1478 1.366 . S
C1477 C1479 1.388 . S
C1478 C1477 1.366 . S
C1478 C1482 1.385 . S
C1479 H1454 0.951 . S
C1479 C1477 1.388 . S
C1479 C1480 1.366 . S
C1480 C1479 1.366 . S
C1480 C1481 1.414 . S
C1480 C1483 1.499 . S
C1481 H1455 0.950 . S
C1481 C1480 1.414 . S
C1481 C1482 1.374 . S
C1482 H1456 0.950 . S
C1482 C1478 1.385 . S
C1482 C1481 1.374 . S
C1483 C1480 1.499 . S
C1483 C1484 1.373 . S
C1483 C1485 1.389 . S
C1484 H1457 0.950 . S
C1484 C1470 1.377 . S
C1484 C1483 1.373 . S
C1485 C1469 1.377 . S
C1485 C1483 1.389 . S
C1485 C1486 1.524 . S
C1486 C1485 1.524 . S
C1486 C1487 1.397 . S
C1486 C1491 1.363 . S
C1487 H1458 0.950 . S
C1487 C1486 1.397 . S
C1487 C1488 1.334 . S
C1488 H1459 0.950 . S
C1488 C1487 1.334 . S
C1488 C1489 1.287 . S
C1489 C1488 1.287 . S
C1489 C1490 1.524 . S
C1489 H1492 0.999 . S
C1490 H1460 0.950 . S
C1490 C1489 1.524 . S
C1490 C1491 1.415 . S
C1491 H1461 0.950 . S
C1491 C1486 1.363 . S
C1491 C1490 1.415 . S
H1492 C1489 0.999 . S
H1493 C1474 0.913 . S
H1494 C1512 0.951 . S
H1495 C1514 0.951 . S
H1496 C1516 0.950 . S
H1497 C1517 0.950 . S
H1498 C1519 0.950 . S
H1499 C1522 0.950 . S
H1500 C1523 0.950 . S
H1501 C1525 0.950 . S
H1502 C1526 0.950 . S
H1503 C1527 0.951 . S
H1504 C1529 0.951 . S
H1505 C1531 0.950 . S
H1506 C1532 0.950 . S
H1507 C1534 0.950 . S
H1508 C1537 0.950 . S
H1509 C1538 0.950 . S
H1510 C1540 0.950 . S
H1511 C1541 0.950 . S
C1512 H1494 0.951 . S
C1512 C1513 1.366 . S
C1512 C1514 1.388 . S
C1513 C1512 1.366 . S
C1513 C1517 1.385 . S
C1514 H1495 0.951 . S
C1514 C1512 1.388 . S
C1514 C1515 1.366 . S
C1515 C1514 1.366 . S
C1515 C1516 1.414 . S
C1515 C1518 1.499 . S
C1516 H1496 0.950 . S
C1516 C1515 1.414 . S
C1516 C1517 1.374 . S
C1517 H1497 0.950 . S
C1517 C1513 1.385 . S
C1517 C1516 1.374 . S
C1518 C1515 1.499 . S
C1518 C1519 1.373 . S
C1518 C1520 1.389 . S
C1519 H1498 0.950 . S
C1519 C1518 1.373 . S
C1519 C1535 1.377 . S
C1520 C1518 1.389 . S
C1520 C1521 1.524 . S
C1520 C1534 1.377 . S
C1521 C1520 1.524 . S
C1521 C1522 1.397 . S
C1521 C1526 1.363 . S
C1522 H1499 0.950 . S
C1522 C1521 1.397 . S
C1522 C1523 1.334 . S
C1523 H1500 0.950 . S
C1523 C1522 1.334 . S
C1523 C1524 1.287 . S
C1524 C1523 1.287 . S
C1524 C1525 1.524 . S
C1524 H1543 0.913 . S
C1525 H1501 0.950 . S
C1525 C1524 1.524 . S
C1525 C1526 1.415 . S
C1526 H1502 0.950 . S
C1526 C1521 1.363 . S
C1526 C1525 1.415 . S
C1527 H1503 0.951 . S
C1527 C1528 1.366 . S
C1527 C1529 1.388 . S
C1528 C1527 1.366 . S
C1528 C1532 1.385 . S
C1529 H1504 0.951 . S
C1529 C1527 1.388 . S
C1529 C1530 1.366 . S
C1530 C1529 1.366 . S
C1530 C1531 1.414 . S
C1530 C1533 1.499 . S
C1531 H1505 0.950 . S
C1531 C1530 1.414 . S
C1531 C1532 1.374 . S
C1532 H1506 0.950 . S
C1532 C1528 1.385 . S
C1532 C1531 1.374 . S
C1533 C1530 1.499 . S
C1533 C1534 1.373 . S
C1533 C1535 1.389 . S
C1534 H1507 0.950 . S
C1534 C1520 1.377 . S
C1534 C1533 1.373 . S
C1535 C1519 1.377 . S
C1535 C1533 1.389 . S
C1535 C1536 1.524 . S
C1536 C1535 1.524 . S
C1536 C1537 1.397 . S
C1536 C1541 1.363 . S
C1537 H1508 0.950 . S
C1537 C1536 1.397 . S
C1537 C1538 1.334 . S
C1538 H1509 0.950 . S
C1538 C1537 1.334 . S
C1538 C1539 1.287 . S
C1539 C1538 1.287 . S
C1539 C1540 1.524 . S
C1539 H1542 1.003 1_655 S
C1540 H1510 0.950 . S
C1540 C1539 1.524 . S
C1540 C1541 1.415 . S
C1541 H1511 0.950 . S
C1541 C1536 1.363 . S
C1541 C1540 1.415 . S
H1542 C1539 1.003 1_455 S
H1543 C1524 0.913 . S
H1544 C1562 0.951 . S
H1545 C1564 0.951 . S
H1546 C1566 0.950 . S
H1547 C1567 0.950 . S
H1548 C1569 0.950 . S
H1549 C1572 0.950 . S
H1550 C1573 0.950 . S
H1551 C1575 0.950 . S
H1552 C1576 0.950 . S
H1553 C1577 0.951 1_556 S
H1554 C1579 0.951 . S
H1555 C1581 0.950 . S
H1556 C1582 0.950 . S
H1557 C1584 0.950 . S
H1558 C1587 0.950 . S
H1559 C1588 0.950 . S
H1560 C1590 0.934 1_565 S
H1561 C1591 0.950 . S
C1562 H1544 0.951 . S
C1562 C1563 1.366 . S
C1562 C1564 1.388 . S
C1563 C1562 1.366 . S
C1563 C1567 1.385 . S
C1564 H1545 0.951 . S
C1564 C1562 1.388 . S
C1564 C1565 1.366 . S
C1565 C1564 1.366 . S
C1565 C1566 1.414 . S
C1565 C1568 1.499 . S
C1566 H1546 0.950 . S
C1566 C1565 1.414 . S
C1566 C1567 1.374 . S
C1567 H1547 0.950 . S
C1567 C1563 1.385 . S
C1567 C1566 1.374 . S
C1568 C1565 1.499 . S
C1568 C1569 1.373 . S
C1568 C1570 1.389 . S
C1569 H1548 0.950 . S
C1569 C1568 1.373 . S
C1569 C1585 1.377 . S
C1570 C1568 1.389 . S
C1570 C1571 1.524 . S
C1570 C1584 1.377 . S
C1571 C1570 1.524 . S
C1571 C1572 1.397 . S
C1571 C1576 1.363 . S
C1572 H1549 0.950 . S
C1572 C1571 1.397 . S
C1572 C1573 1.334 . S
C1573 H1550 0.950 . S
C1573 C1572 1.334 . S
C1573 C1574 1.287 . S
C1574 C1573 1.287 . S
C1574 C1575 1.524 . S
C1574 H1593 0.913 . S
C1575 H1551 0.950 . S
C1575 C1574 1.524 . S
C1575 C1576 1.415 . S
C1576 H1552 0.950 . S
C1576 C1571 1.363 . S
C1576 C1575 1.415 . S
C1577 H1553 0.951 1_554 S
C1577 C1578 1.366 1_554 S
C1577 C1579 1.388 . S
C1578 C1577 1.366 1_556 S
C1578 C1582 1.385 . S
C1579 H1554 0.951 . S
C1579 C1577 1.388 . S
C1579 C1580 1.366 . S
C1580 C1579 1.366 . S
C1580 C1581 1.414 . S
C1580 C1583 1.499 . S
C1581 H1555 0.950 . S
C1581 C1580 1.414 . S
C1581 C1582 1.374 1_554 S
C1582 H1556 0.950 . S
C1582 C1578 1.385 . S
C1582 C1581 1.374 1_556 S
C1583 C1580 1.499 . S
C1583 C1584 1.373 . S
C1583 C1585 1.389 . S
C1584 H1557 0.950 . S
C1584 C1570 1.377 . S
C1584 C1583 1.373 . S
C1585 C1569 1.377 . S
C1585 C1583 1.389 . S
C1585 C1586 1.524 . S
C1586 C1585 1.524 . S
C1586 C1587 1.397 . S
C1586 C1591 1.363 . S
C1587 H1558 0.950 . S
C1587 C1586 1.397 . S
C1587 C1588 1.334 . S
C1588 H1559 0.950 . S
C1588 C1587 1.334 . S
C1588 C1589 1.287 . S
C1589 C1588 1.287 . S
C1589 C1590 1.524 . S
C1589 H1592 0.999 1_545 S
C1590 H1560 0.934 1_545 S
C1590 C1589 1.524 . S
C1590 C1591 1.415 . S
C1591 H1561 0.950 . S
C1591 C1586 1.363 . S
C1591 C1590 1.415 . S
H1592 C1589 0.999 1_565 S
H1593 C1574 0.913 . S
H1594 C1612 0.951 . S
H1595 C1614 0.951 . S
H1596 C1616 0.950 . S
H1597 C1617 0.950 . S
H1598 C1619 0.950 . S
H1599 C1622 0.950 . S
H1600 C1623 0.950 . S
H1601 C1625 0.950 . S
H1602 C1626 0.950 . S
H1603 C1627 0.951 . S
H1604 C1629 0.951 . S
H1605 C1631 0.950 . S
H1606 C1632 0.950 . S
H1607 C1634 0.950 . S
H1608 C1637 0.950 . S
H1609 C1638 0.950 . S
H1610 C1640 0.950 . S
H1611 C1641 0.950 . S
C1612 H1594 0.951 . S
C1612 C1613 1.366 . S
C1612 C1614 1.388 . S
C1613 C1612 1.366 . S
C1613 C1617 1.385 . S
C1614 H1595 0.951 . S
C1614 C1612 1.388 . S
C1614 C1615 1.366 . S
C1615 C1614 1.366 . S
C1615 C1616 1.414 . S
C1615 C1618 1.499 . S
C1616 H1596 0.950 . S
C1616 C1615 1.414 . S
C1616 C1617 1.374 . S
C1617 H1597 0.950 . S
C1617 C1613 1.385 . S
C1617 C1616 1.374 . S
C1618 C1615 1.499 . S
C1618 C1619 1.373 . S
C1618 C1620 1.389 . S
C1619 H1598 0.950 . S
C1619 C1618 1.373 . S
C1619 C1635 1.377 . S
C1620 C1618 1.389 . S
C1620 C1621 1.524 . S
C1620 C1634 1.377 . S
C1621 C1620 1.524 . S
C1621 C1622 1.397 . S
C1621 C1626 1.363 . S
C1622 H1599 0.950 . S
C1622 C1621 1.397 . S
C1622 C1623 1.334 . S
C1623 H1600 0.950 . S
C1623 C1622 1.334 . S
C1623 C1624 1.287 . S
C1624 C1623 1.287 . S
C1624 C1625 1.524 . S
C1624 H1643 0.913 . S
C1625 H1601 0.950 . S
C1625 C1624 1.524 . S
C1625 C1626 1.415 . S
C1626 H1602 0.950 . S
C1626 C1621 1.363 . S
C1626 C1625 1.415 . S
C1627 H1603 0.951 . S
C1627 C1628 1.366 . S
C1627 C1629 1.388 . S
C1628 C1627 1.366 . S
C1628 C1632 1.385 . S
C1629 H1604 0.951 . S
C1629 C1627 1.388 . S
C1629 C1630 1.366 . S
C1630 C1629 1.366 . S
C1630 C1631 1.414 . S
C1630 C1633 1.499 1_556 S
C1631 H1605 0.950 . S
C1631 C1630 1.414 . S
C1631 C1632 1.374 . S
C1632 H1606 0.950 . S
C1632 C1628 1.385 . S
C1632 C1631 1.374 . S
C1633 C1630 1.499 1_554 S
C1633 C1634 1.373 . S
C1633 C1635 1.389 . S
C1634 H1607 0.950 . S
C1634 C1620 1.377 . S
C1634 C1633 1.373 . S
C1635 C1619 1.377 . S
C1635 C1633 1.389 . S
C1635 C1636 1.524 . S
C1636 C1635 1.524 . S
C1636 C1637 1.397 1_554 S
C1636 C1641 1.363 . S
C1637 H1608 0.950 . S
C1637 C1636 1.397 1_556 S
C1637 C1638 1.334 . S
C1638 H1609 0.950 . S
C1638 C1637 1.334 . S
C1638 C1639 1.287 . S
C1639 C1638 1.287 . S
C1639 C1640 1.524 . S
C1639 H1642 0.999 . S
C1640 H1610 0.950 . S
C1640 C1639 1.524 . S
C1640 C1641 1.415 1_556 S
C1641 H1611 0.950 . S
C1641 C1636 1.363 . S
C1641 C1640 1.415 1_554 S
H1642 C1639 0.999 . S
H1643 C1624 0.913 . S
H1644 C1662 0.951 . S
H1645 C1664 0.951 . S
H1646 C1666 0.948 1_556 S
H1647 C1667 0.950 . S
H1648 C1669 0.950 . S
H1649 C1672 0.950 . S
H1650 C1673 0.950 . S
H1651 C1675 0.950 . S
H1652 C1676 0.950 . S
H1653 C1677 0.951 . S
H1654 C1679 0.951 . S
H1655 C1681 0.950 . S
H1656 C1682 0.950 . S
H1657 C1684 0.950 . S
H1658 C1687 0.950 . S
H1659 C1688 0.950 . S
H1660 C1690 0.950 . S
H1661 C1691 0.950 . S
C1662 H1644 0.951 . S
C1662 C1663 1.366 . S
C1662 C1664 1.388 1_554 S
C1663 C1662 1.366 . S
C1663 C1667 1.385 . S
C1664 H1645 0.951 . S
C1664 C1662 1.388 1_556 S
C1664 C1665 1.366 . S
C1665 C1664 1.366 . S
C1665 C1666 1.411 1_556 S
C1665 C1668 1.499 . S
C1666 H1646 0.948 1_554 S
C1666 C1665 1.411 1_554 S
C1666 C1667 1.379 . S
C1667 H1647 0.950 . S
C1667 C1663 1.385 . S
C1667 C1666 1.379 . S
C1668 C1665 1.499 . S
C1668 C1669 1.373 . S
C1668 C1670 1.389 . S
C1669 H1648 0.950 . S
C1669 C1668 1.373 . S
C1669 C1685 1.377 . S
C1670 C1668 1.389 . S
C1670 C1671 1.524 . S
C1670 C1684 1.377 . S
C1671 C1670 1.524 . S
C1671 C1672 1.397 . S
C1671 C1676 1.363 . S
C1672 H1649 0.950 . S
C1672 C1671 1.397 . S
C1672 C1673 1.334 . S
C1673 H1650 0.950 . S
C1673 C1672 1.334 . S
C1673 C1674 1.287 . S
C1674 C1673 1.287 . S
C1674 C1675 1.524 . S
C1674 H1693 0.913 . S
C1675 H1651 0.950 . S
C1675 C1674 1.524 . S
C1675 C1676 1.415 . S
C1676 H1652 0.950 . S
C1676 C1671 1.363 . S
C1676 C1675 1.415 . S
C1677 H1653 0.951 . S
C1677 C1678 1.366 . S
C1677 C1679 1.388 . S
C1678 C1677 1.366 . S
C1678 C1682 1.385 . S
C1679 H1654 0.951 . S
C1679 C1677 1.388 . S
C1679 C1680 1.366 . S
C1680 C1679 1.366 . S
C1680 C1681 1.414 . S
C1680 C1683 1.499 . S
C1681 H1655 0.950 . S
C1681 C1680 1.414 . S
C1681 C1682 1.374 . S
C1682 H1656 0.950 . S
C1682 C1678 1.385 . S
C1682 C1681 1.374 . S
C1683 C1680 1.499 . S
C1683 C1684 1.373 . S
C1683 C1685 1.389 . S
C1684 H1657 0.950 . S
C1684 C1670 1.377 . S
C1684 C1683 1.373 . S
C1685 C1669 1.377 . S
C1685 C1683 1.389 . S
C1685 C1686 1.524 . S
C1686 C1685 1.524 . S
C1686 C1687 1.397 . S
C1686 C1691 1.363 . S
C1687 H1658 0.950 . S
C1687 C1686 1.397 . S
C1687 C1688 1.334 . S
C1688 H1659 0.950 . S
C1688 C1687 1.334 . S
C1688 C1689 1.287 . S
C1689 C1688 1.287 . S
C1689 C1690 1.524 . S
C1689 H1692 0.999 . S
C1690 H1660 0.950 . S
C1690 C1689 1.524 . S
C1690 C1691 1.415 . S
C1691 H1661 0.950 . S
C1691 C1686 1.363 . S
C1691 C1690 1.415 . S
H1692 C1689 0.999 . S
H1693 C1674 0.913 . S
H1694 C1712 0.951 . S
H1695 C1714 0.951 . S
H1696 C1716 0.950 . S
H1697 C1717 0.950 . S
H1698 C1719 0.950 . S
H1699 C1722 0.950 . S
H1700 C1723 0.950 . S
H1701 C1725 0.950 . S
H1702 C1726 0.950 . S
H1703 C1727 0.951 . S
H1704 C1729 0.951 . S
H1705 C1731 0.950 . S
H1706 C1732 0.950 . S
H1707 C1734 0.950 . S
H1708 C1737 0.950 . S
H1709 C1738 0.950 . S
H1710 C1740 0.950 . S
H1711 C1741 0.950 . S
C1712 H1694 0.951 . S
C1712 C1713 1.366 . S
C1712 C1714 1.388 1_554 S
C1713 C1712 1.366 . S
C1713 C1717 1.385 . S
C1714 H1695 0.951 . S
C1714 C1712 1.388 1_556 S
C1714 C1715 1.366 . S
C1715 C1714 1.366 . S
C1715 C1716 1.414 . S
C1715 C1718 1.499 . S
C1716 H1696 0.950 . S
C1716 C1715 1.414 . S
C1716 C1717 1.374 1_556 S
C1717 H1697 0.950 . S
C1717 C1713 1.385 . S
C1717 C1716 1.374 1_554 S
C1718 C1715 1.499 . S
C1718 C1719 1.373 . S
C1718 C1720 1.389 . S
C1719 H1698 0.950 . S
C1719 C1718 1.373 . S
C1719 C1735 1.377 . S
C1720 C1718 1.389 . S
C1720 C1721 1.524 . S
C1720 C1734 1.377 . S
C1721 C1720 1.524 . S
C1721 C1722 1.397 . S
C1721 C1726 1.363 . S
C1722 H1699 0.950 . S
C1722 C1721 1.397 . S
C1722 C1723 1.334 . S
C1723 H1700 0.950 . S
C1723 C1722 1.334 . S
C1723 C1724 1.287 . S
C1724 C1723 1.287 . S
C1724 C1725 1.524 . S
C1724 H1743 0.913 1_655 S
C1725 H1701 0.950 . S
C1725 C1724 1.524 . S
C1725 C1726 1.415 . S
C1726 H1702 0.950 . S
C1726 C1721 1.363 . S
C1726 C1725 1.415 . S
C1727 H1703 0.951 . S
C1727 C1728 1.366 . S
C1727 C1729 1.388 . S
C1728 C1727 1.366 . S
C1728 C1732 1.385 . S
C1729 H1704 0.951 . S
C1729 C1727 1.388 . S
C1729 C1730 1.366 . S
C1730 C1729 1.366 . S
C1730 C1731 1.414 . S
C1730 C1733 1.499 . S
C1731 H1705 0.950 . S
C1731 C1730 1.414 . S
C1731 C1732 1.374 . S
C1732 H1706 0.950 . S
C1732 C1728 1.385 . S
C1732 C1731 1.374 . S
C1733 C1730 1.499 . S
C1733 C1734 1.373 . S
C1733 C1735 1.389 . S
C1734 H1707 0.950 . S
C1734 C1720 1.377 . S
C1734 C1733 1.373 . S
C1735 C1719 1.377 . S
C1735 C1733 1.389 . S
C1735 C1736 1.524 . S
C1736 C1735 1.524 . S
C1736 C1737 1.397 . S
C1736 C1741 1.363 . S
C1737 H1708 0.950 . S
C1737 C1736 1.397 . S
C1737 C1738 1.334 . S
C1738 H1709 0.950 . S
C1738 C1737 1.334 . S
C1738 C1739 1.287 . S
C1739 C1738 1.287 . S
C1739 C1740 1.524 . S
C1739 H1742 0.999 . S
C1740 H1710 0.950 . S
C1740 C1739 1.524 . S
C1740 C1741 1.415 . S
C1741 H1711 0.950 . S
C1741 C1736 1.363 . S
C1741 C1740 1.415 . S
H1742 C1739 0.999 . S
H1743 C1724 0.913 1_455 S
H1744 C1762 0.958 . S
H1745 C1764 0.951 . S
H1746 C1766 0.950 . S
H1747 C1767 0.950 1_556 S
H1748 C1769 0.950 . S
H1749 C1772 0.950 . S
H1750 C1773 0.950 . S
H1751 C1775 0.950 . S
H1752 C1776 0.950 . S
H1753 C1777 0.951 . S
H1754 C1779 0.951 . S
H1755 C1781 0.950 . S
H1756 C1782 0.950 . S
H1757 C1784 0.950 . S
H1758 C1787 0.950 . S
H1759 C1788 0.950 . S
H1760 C1790 0.950 . S
H1761 C1791 0.950 . S
C1762 H1744 0.958 . S
C1762 C1763 1.372 . S
C1762 C1764 1.375 1_556 S
C1763 C1762 1.372 . S
C1763 C1767 1.385 1_556 S
C1764 H1745 0.951 . S
C1764 C1762 1.375 1_554 S
C1764 C1765 1.366 . S
C1765 C1764 1.366 . S
C1765 C1766 1.414 . S
C1765 C1768 1.499 . S
C1766 H1746 0.950 . S
C1766 C1765 1.414 . S
C1766 C1767 1.374 . S
C1767 H1747 0.950 1_554 S
C1767 C1763 1.385 1_554 S
C1767 C1766 1.374 . S
C1768 C1765 1.499 . S
C1768 C1769 1.373 . S
C1768 C1770 1.389 . S
C1769 H1748 0.950 . S
C1769 C1768 1.373 . S
C1769 C1785 1.377 . S
C1770 C1768 1.389 . S
C1770 C1771 1.524 . S
C1770 C1784 1.377 . S
C1771 C1770 1.524 . S
C1771 C1772 1.397 . S
C1771 C1776 1.363 . S
C1772 H1749 0.950 . S
C1772 C1771 1.397 . S
C1772 C1773 1.334 . S
C1773 H1750 0.950 . S
C1773 C1772 1.334 . S
C1773 C1774 1.287 . S
C1774 C1773 1.287 . S
C1774 C1775 1.524 . S
C1774 H1793 0.913 . S
C1775 H1751 0.950 . S
C1775 C1774 1.524 . S
C1775 C1776 1.415 . S
C1776 H1752 0.950 . S
C1776 C1771 1.363 . S
C1776 C1775 1.415 . S
C1777 H1753 0.951 . S
C1777 C1778 1.366 . S
C1777 C1779 1.388 . S
C1778 C1777 1.366 . S
C1778 C1782 1.385 . S
C1779 H1754 0.951 . S
C1779 C1777 1.388 . S
C1779 C1780 1.366 . S
C1780 C1779 1.366 . S
C1780 C1781 1.414 . S
C1780 C1783 1.499 . S
C1781 H1755 0.950 . S
C1781 C1780 1.414 . S
C1781 C1782 1.374 . S
C1782 H1756 0.950 . S
C1782 C1778 1.385 . S
C1782 C1781 1.374 . S
C1783 C1780 1.499 . S
C1783 C1784 1.373 . S
C1783 C1785 1.389 . S
C1784 H1757 0.950 . S
C1784 C1770 1.377 . S
C1784 C1783 1.373 . S
C1785 C1769 1.377 . S
C1785 C1783 1.389 . S
C1785 C1786 1.524 . S
C1786 C1785 1.524 . S
C1786 C1787 1.397 . S
C1786 C1791 1.363 . S
C1787 H1758 0.950 . S
C1787 C1786 1.397 . S
C1787 C1788 1.334 . S
C1788 H1759 0.950 . S
C1788 C1787 1.334 . S
C1788 C1789 1.287 . S
C1789 C1788 1.287 . S
C1789 C1790 1.524 . S
C1789 H1792 0.999 . S
C1790 H1760 0.950 . S
C1790 C1789 1.524 . S
C1790 C1791 1.415 . S
C1791 H1761 0.950 . S
C1791 C1786 1.363 . S
C1791 C1790 1.415 . S
H1792 C1789 0.999 . S
H1793 C1774 0.913 . S
H1794 C1812 0.951 . S
H1795 C1814 0.951 . S
H1796 C1816 0.950 . S
H1797 C1817 0.950 . S
H1798 C1819 0.950 . S
H1799 C1822 0.950 . S
H1800 C1823 0.950 . S
H1801 C1825 0.950 . S
H1802 C1826 0.950 . S
H1803 C1827 0.951 . S
H1804 C1829 0.951 . S
H1805 C1831 0.950 . S
H1806 C1832 0.950 . S
H1807 C1834 0.950 . S
H1808 C1837 0.950 . S
H1809 C1838 0.950 . S
H1810 C1840 0.950 . S
H1811 C1841 0.950 . S
C1812 H1794 0.951 . S
C1812 C1813 1.366 . S
C1812 C1814 1.388 . S
C1813 C1812 1.366 . S
C1813 C1817 1.385 . S
C1814 H1795 0.951 . S
C1814 C1812 1.388 . S
C1814 C1815 1.366 . S
C1815 C1814 1.366 . S
C1815 C1816 1.414 . S
C1815 C1818 1.499 1_556 S
C1816 H1796 0.950 . S
C1816 C1815 1.414 . S
C1816 C1817 1.374 . S
C1817 H1797 0.950 . S
C1817 C1813 1.385 . S
C1817 C1816 1.374 . S
C1818 C1815 1.499 1_554 S
C1818 C1819 1.373 . S
C1818 C1820 1.389 . S
C1819 H1798 0.950 . S
C1819 C1818 1.373 . S
C1819 C1835 1.377 . S
C1820 C1818 1.389 . S
C1820 C1821 1.524 . S
C1820 C1834 1.377 . S
C1821 C1820 1.524 . S
C1821 C1822 1.397 1_554 S
C1821 C1826 1.363 . S
C1822 H1799 0.950 . S
C1822 C1821 1.397 1_556 S
C1822 C1823 1.334 . S
C1823 H1800 0.950 . S
C1823 C1822 1.334 . S
C1823 C1824 1.287 . S
C1824 C1823 1.287 . S
C1824 C1825 1.524 . S
C1824 H1843 0.913 . S
C1825 H1801 0.950 . S
C1825 C1824 1.524 . S
C1825 C1826 1.415 1_556 S
C1826 H1802 0.950 . S
C1826 C1821 1.363 . S
C1826 C1825 1.415 1_554 S
C1827 H1803 0.951 . S
C1827 C1828 1.366 . S
C1827 C1829 1.388 . S
C1828 C1827 1.366 . S
C1828 C1832 1.385 . S
C1829 H1804 0.951 . S
C1829 C1827 1.388 . S
C1829 C1830 1.366 . S
C1830 C1829 1.366 . S
C1830 C1831 1.414 . S
C1830 C1833 1.499 . S
C1831 H1805 0.950 . S
C1831 C1830 1.414 . S
C1831 C1832 1.374 . S
C1832 H1806 0.950 . S
C1832 C1828 1.385 . S
C1832 C1831 1.374 . S
C1833 C1830 1.499 . S
C1833 C1834 1.373 . S
C1833 C1835 1.389 . S
C1834 H1807 0.950 . S
C1834 C1820 1.377 . S
C1834 C1833 1.373 . S
C1835 C1819 1.377 . S
C1835 C1833 1.389 . S
C1835 C1836 1.524 . S
C1836 C1835 1.524 . S
C1836 C1837 1.397 . S
C1836 C1841 1.363 . S
C1837 H1808 0.950 . S
C1837 C1836 1.397 . S
C1837 C1838 1.334 . S
C1838 H1809 0.950 . S
C1838 C1837 1.334 . S
C1838 C1839 1.287 . S
C1839 C1838 1.287 . S
C1839 C1840 1.524 . S
C1839 H1842 0.999 . S
C1840 H1810 0.950 . S
C1840 C1839 1.524 . S
C1840 C1841 1.415 . S
C1841 H1811 0.950 . S
C1841 C1836 1.363 . S
C1841 C1840 1.415 . S
H1842 C1839 0.999 . S
H1843 C1824 0.913 . S
H1844 C1862 0.951 . S
H1845 C1864 0.951 . S
H1846 C1866 0.950 1_556 S
H1847 C1867 0.950 . S
H1848 C1869 0.950 . S
H1849 C1872 0.950 . S
H1850 C1873 0.950 . S
H1851 C1875 0.950 . S
H1852 C1876 0.950 . S
H1853 C1877 0.951 . S
H1854 C1879 0.951 . S
H1855 C1881 0.950 . S
H1856 C1882 0.950 . S
H1857 C1884 0.950 . S
H1858 C1887 0.950 . S
H1859 C1888 0.950 . S
H1860 C1890 0.950 . S
H1861 C1891 0.950 . S
C1862 H1844 0.951 . S
C1862 C1863 1.366 . S
C1862 C1864 1.388 1_554 S
C1863 C1862 1.366 . S
C1863 C1867 1.385 . S
C1864 H1845 0.951 . S
C1864 C1862 1.388 1_556 S
C1864 C1865 1.366 . S
C1865 C1864 1.366 . S
C1865 C1866 1.414 1_556 S
C1865 C1868 1.499 . S
C1866 H1846 0.950 1_554 S
C1866 C1865 1.414 1_554 S
C1866 C1867 1.374 . S
C1867 H1847 0.950 . S
C1867 C1863 1.385 . S
C1867 C1866 1.374 . S
C1868 C1865 1.499 . S
C1868 C1869 1.373 . S
C1868 C1870 1.389 . S
C1869 H1848 0.950 . S
C1869 C1868 1.373 . S
C1869 C1885 1.377 . S
C1870 C1868 1.389 . S
C1870 C1871 1.524 . S
C1870 C1884 1.377 . S
C1871 C1870 1.524 . S
C1871 C1872 1.397 . S
C1871 C1876 1.363 . S
C1872 H1849 0.950 . S
C1872 C1871 1.397 . S
C1872 C1873 1.334 . S
C1873 H1850 0.950 . S
C1873 C1872 1.334 . S
C1873 C1874 1.287 . S
C1874 C1873 1.287 . S
C1874 C1875 1.524 . S
C1874 H1893 0.913 . S
C1875 H1851 0.950 . S
C1875 C1874 1.524 . S
C1875 C1876 1.415 . S
C1876 H1852 0.950 . S
C1876 C1871 1.363 . S
C1876 C1875 1.415 . S
C1877 H1853 0.951 . S
C1877 C1878 1.366 . S
C1877 C1879 1.388 . S
C1878 C1877 1.366 . S
C1878 C1882 1.385 . S
C1879 H1854 0.951 . S
C1879 C1877 1.388 . S
C1879 C1880 1.366 . S
C1880 C1879 1.366 . S
C1880 C1881 1.414 . S
C1880 C1883 1.499 . S
C1881 H1855 0.950 . S
C1881 C1880 1.414 . S
C1881 C1882 1.374 . S
C1882 H1856 0.950 . S
C1882 C1878 1.385 . S
C1882 C1881 1.374 . S
C1883 C1880 1.499 . S
C1883 C1884 1.373 . S
C1883 C1885 1.389 . S
C1884 H1857 0.950 . S
C1884 C1870 1.377 . S
C1884 C1883 1.373 . S
C1885 C1869 1.377 . S
C1885 C1883 1.389 . S
C1885 C1886 1.524 . S
C1886 C1885 1.524 . S
C1886 C1887 1.397 . S
C1886 C1891 1.363 . S
C1887 H1858 0.950 . S
C1887 C1886 1.397 . S
C1887 C1888 1.334 . S
C1888 H1859 0.950 . S
C1888 C1887 1.334 . S
C1888 C1889 1.287 . S
C1889 C1888 1.287 . S
C1889 C1890 1.524 . S
C1889 H1892 0.999 . S
C1890 H1860 0.950 . S
C1890 C1889 1.524 . S
C1890 C1891 1.415 . S
C1891 H1861 0.950 . S
C1891 C1886 1.363 . S
C1891 C1890 1.415 . S
H1892 C1889 0.999 . S
H1893 C1874 0.913 . S
H1894 C1912 0.951 . S
H1895 C1914 0.951 . S
H1896 C1916 0.950 . S
H1897 C1917 0.950 . S
H1898 C1919 0.950 . S
H1899 C1922 0.950 . S
H1900 C1923 0.950 . S
H1901 C1925 0.950 . S
H1902 C1926 0.950 . S
H1903 C1927 0.951 . S
H1904 C1929 0.951 . S
H1905 C1931 0.950 . S
H1906 C1932 0.950 . S
H1907 C1934 0.950 . S
H1908 C1937 0.950 . S
H1909 C1938 0.950 . S
H1910 C1940 0.950 . S
H1911 C1941 0.950 . S
C1912 H1894 0.951 . S
C1912 C1913 1.366 . S
C1912 C1914 1.388 1_554 S
C1913 C1912 1.366 . S
C1913 C1917 1.385 . S
C1914 H1895 0.951 . S
C1914 C1912 1.388 1_556 S
C1914 C1915 1.366 . S
C1915 C1914 1.366 . S
C1915 C1916 1.414 . S
C1915 C1918 1.499 . S
C1916 H1896 0.950 . S
C1916 C1915 1.414 . S
C1916 C1917 1.374 1_556 S
C1917 H1897 0.950 . S
C1917 C1913 1.385 . S
C1917 C1916 1.374 1_554 S
C1918 C1915 1.499 . S
C1918 C1919 1.373 . S
C1918 C1920 1.389 . S
C1919 H1898 0.950 . S
C1919 C1918 1.373 . S
C1919 C1935 1.377 . S
C1920 C1918 1.389 . S
C1920 C1921 1.524 . S
C1920 C1934 1.377 . S
C1921 C1920 1.524 . S
C1921 C1922 1.397 . S
C1921 C1926 1.363 . S
C1922 H1899 0.950 . S
C1922 C1921 1.397 . S
C1922 C1923 1.334 . S
C1923 H1900 0.950 . S
C1923 C1922 1.334 . S
C1923 C1924 1.287 . S
C1924 C1923 1.287 . S
C1924 C1925 1.524 . S
C1924 H1943 0.913 . S
C1925 H1901 0.950 . S
C1925 C1924 1.524 . S
C1925 C1926 1.415 . S
C1926 H1902 0.950 . S
C1926 C1921 1.363 . S
C1926 C1925 1.415 . S
C1927 H1903 0.951 . S
C1927 C1928 1.366 . S
C1927 C1929 1.388 . S
C1928 C1927 1.366 . S
C1928 C1932 1.385 . S
C1929 H1904 0.951 . S
C1929 C1927 1.388 . S
C1929 C1930 1.366 . S
C1930 C1929 1.366 . S
C1930 C1931 1.414 . S
C1930 C1933 1.499 . S
C1931 H1905 0.950 . S
C1931 C1930 1.414 . S
C1931 C1932 1.374 . S
C1932 H1906 0.950 . S
C1932 C1928 1.385 . S
C1932 C1931 1.374 . S
C1933 C1930 1.499 . S
C1933 C1934 1.373 . S
C1933 C1935 1.389 . S
C1934 H1907 0.950 . S
C1934 C1920 1.377 . S
C1934 C1933 1.373 . S
C1935 C1919 1.377 . S
C1935 C1933 1.389 . S
C1935 C1936 1.524 . S
C1936 C1935 1.524 . S
C1936 C1937 1.397 . S
C1936 C1941 1.363 . S
C1937 H1908 0.950 . S
C1937 C1936 1.397 . S
C1937 C1938 1.334 . S
C1938 H1909 0.950 . S
C1938 C1937 1.334 . S
C1938 C1939 1.287 . S
C1939 C1938 1.287 . S
C1939 C1940 1.524 . S
C1939 H1942 0.999 . S
C1940 H1910 0.950 . S
C1940 C1939 1.524 . S
C1940 C1941 1.415 . S
C1941 H1911 0.950 . S
C1941 C1936 1.363 . S
C1941 C1940 1.415 . S
H1942 C1939 0.999 . S
H1943 C1924 0.913 . S
H1944 C1962 0.951 . S
H1945 C1964 0.951 . S
H1946 C1966 0.950 . S
H1947 C1967 0.950 . S
H1948 C1969 0.950 . S
H1949 C1972 0.950 . S
H1950 C1973 0.950 . S
H1951 C1975 0.950 1_565 S
H1952 C1976 0.950 . S
H1953 C1977 0.951 . S
H1954 C1979 0.951 . S
H1955 C1981 0.950 . S
H1956 C1982 0.950 . S
H1957 C1984 0.950 . S
H1958 C1987 0.950 . S
H1959 C1988 0.950 . S
H1960 C1990 0.950 . S
H1961 C1991 0.950 . S
C1962 H1944 0.951 . S
C1962 C1963 1.366 . S
C1962 C1964 1.388 . S
C1963 C1962 1.366 . S
C1963 C1967 1.385 . S
C1964 H1945 0.951 . S
C1964 C1962 1.388 . S
C1964 C1965 1.366 . S
C1965 C1964 1.366 . S
C1965 C1966 1.414 . S
C1965 C1968 1.499 . S
C1966 H1946 0.950 . S
C1966 C1965 1.414 . S
C1966 C1967 1.374 . S
C1967 H1947 0.950 . S
C1967 C1963 1.385 . S
C1967 C1966 1.374 . S
C1968 C1965 1.499 . S
C1968 C1969 1.373 . S
C1968 C1970 1.389 . S
C1969 H1948 0.950 . S
C1969 C1968 1.373 . S
C1969 C1985 1.377 . S
C1970 C1968 1.389 . S
C1970 C1971 1.524 . S
C1970 C1984 1.377 . S
C1971 C1970 1.524 . S
C1971 C1972 1.397 . S
C1971 C1976 1.363 . S
C1972 H1949 0.950 . S
C1972 C1971 1.397 . S
C1972 C1973 1.334 . S
C1973 H1950 0.950 . S
C1973 C1972 1.334 . S
C1973 C1974 1.287 . S
C1974 C1973 1.287 . S
C1974 C1975 1.524 . S
C1974 H1993 0.913 . S
C1975 H1951 0.950 1_545 S
C1975 C1974 1.524 . S
C1975 C1976 1.415 . S
C1976 H1952 0.950 . S
C1976 C1971 1.363 . S
C1976 C1975 1.415 . S
C1977 H1953 0.951 . S
C1977 C1978 1.366 . S
C1977 C1979 1.388 . S
C1978 C1977 1.366 . S
C1978 C1982 1.385 . S
C1979 H1954 0.951 . S
C1979 C1977 1.388 . S
C1979 C1980 1.366 . S
C1980 C1979 1.366 . S
C1980 C1981 1.414 . S
C1980 C1983 1.499 . S
C1981 H1955 0.950 . S
C1981 C1980 1.414 . S
C1981 C1982 1.374 . S
C1982 H1956 0.950 . S
C1982 C1978 1.385 . S
C1982 C1981 1.374 . S
C1983 C1980 1.499 . S
C1983 C1984 1.373 . S
C1983 C1985 1.389 . S
C1984 H1957 0.950 . S
C1984 C1970 1.377 . S
C1984 C1983 1.373 . S
C1985 C1969 1.377 . S
C1985 C1983 1.389 . S
C1985 C1986 1.524 . S
C1986 C1985 1.524 . S
C1986 C1987 1.397 . S
C1986 C1991 1.363 . S
C1987 H1958 0.950 . S
C1987 C1986 1.397 . S
C1987 C1988 1.334 . S
C1988 H1959 0.950 . S
C1988 C1987 1.334 . S
C1988 C1989 1.287 . S
C1989 C1988 1.287 . S
C1989 C1990 1.524 . S
C1989 H1992 0.999 . S
C1990 H1960 0.950 . S
C1990 C1989 1.524 . S
C1990 C1991 1.415 . S
C1991 H1961 0.950 . S
C1991 C1986 1.363 . S
C1991 C1990 1.415 . S
H1992 C1989 0.999 . S
H1993 C1974 0.913 . S
H1994 C2012 0.951 . S
H1995 C2014 0.951 . S
H1996 C2016 0.950 . S
H1997 C2017 0.950 . S
H1998 C2019 0.950 . S
H1999 C2022 0.950 . S
H2000 C2023 0.950 . S
H2001 C2025 0.950 . S
H2002 C2026 0.950 . S
H2003 C2027 0.951 . S
H2004 C2029 0.951 . S
H2005 C2031 0.950 . S
H2006 C2032 0.950 . S
H2007 C2034 0.950 . S
H2008 C2037 0.950 . S
H2009 C2038 0.950 . S
H2010 C2040 0.950 . S
H2011 C2041 0.950 . S
C2012 H1994 0.951 . S
C2012 C2013 1.366 . S
C2012 C2014 1.388 . S
C2013 C2012 1.366 . S
C2013 C2017 1.385 . S
C2014 H1995 0.951 . S
C2014 C2012 1.388 . S
C2014 C2015 1.366 . S
C2015 C2014 1.366 . S
C2015 C2016 1.414 . S
C2015 C2018 1.499 . S
C2016 H1996 0.950 . S
C2016 C2015 1.414 . S
C2016 C2017 1.374 . S
C2017 H1997 0.950 . S
C2017 C2013 1.385 . S
C2017 C2016 1.374 . S
C2018 C2015 1.499 . S
C2018 C2019 1.373 . S
C2018 C2020 1.389 . S
C2019 H1998 0.950 . S
C2019 C2018 1.373 . S
C2019 C2035 1.377 . S
C2020 C2018 1.389 . S
C2020 C2021 1.524 . S
C2020 C2034 1.377 . S
C2021 C2020 1.524 . S
C2021 C2022 1.397 . S
C2021 C2026 1.363 . S
C2022 H1999 0.950 . S
C2022 C2021 1.397 . S
C2022 C2023 1.334 . S
C2023 H2000 0.950 . S
C2023 C2022 1.334 . S
C2023 C2024 1.287 . S
C2024 C2023 1.287 . S
C2024 C2025 1.524 . S
C2024 H2043 0.913 . S
C2025 H2001 0.950 . S
C2025 C2024 1.524 . S
C2025 C2026 1.415 . S
C2026 H2002 0.950 . S
C2026 C2021 1.363 . S
C2026 C2025 1.415 . S
C2027 H2003 0.951 . S
C2027 C2028 1.366 . S
C2027 C2029 1.388 . S
C2028 C2027 1.366 . S
C2028 C2032 1.385 . S
C2029 H2004 0.951 . S
C2029 C2027 1.388 . S
C2029 C2030 1.366 . S
C2030 C2029 1.366 . S
C2030 C2031 1.414 . S
C2030 C2033 1.499 . S
C2031 H2005 0.950 . S
C2031 C2030 1.414 . S
C2031 C2032 1.374 . S
C2032 H2006 0.950 . S
C2032 C2028 1.385 . S
C2032 C2031 1.374 . S
C2033 C2030 1.499 . S
C2033 C2034 1.373 . S
C2033 C2035 1.389 . S
C2034 H2007 0.950 . S
C2034 C2020 1.377 . S
C2034 C2033 1.373 . S
C2035 C2019 1.377 . S
C2035 C2033 1.389 . S
C2035 C2036 1.524 . S
C2036 C2035 1.524 . S
C2036 C2037 1.397 . S
C2036 C2041 1.363 . S
C2037 H2008 0.950 . S
C2037 C2036 1.397 . S
C2037 C2038 1.334 . S
C2038 H2009 0.950 . S
C2038 C2037 1.334 . S
C2038 C2039 1.287 . S
C2039 C2038 1.287 . S
C2039 C2040 1.524 . S
C2039 H2042 0.999 . S
C2040 H2010 0.950 . S
C2040 C2039 1.524 . S
C2040 C2041 1.415 . S
C2041 H2011 0.950 . S
C2041 C2036 1.363 . S
C2041 C2040 1.415 . S
H2042 C2039 0.999 . S
H2043 C2024 0.913 . S
H2044 C2062 0.951 . S
H2045 C2064 0.951 . S
H2046 C2066 0.950 . S
H2047 C2067 0.950 . S
H2048 C2069 0.950 . S
H2049 C2072 0.950 . S
H2050 C2073 0.950 . S
H2051 C2075 0.950 . S
H2052 C2076 0.950 . S
H2053 C2077 0.951 . S
H2054 C2079 0.951 . S
H2055 C2081 0.950 . S
H2056 C2082 0.950 . S
H2057 C2084 0.950 . S
H2058 C2087 0.950 . S
H2059 C2088 0.950 . S
H2060 C2090 0.950 . S
H2061 C2091 0.950 . S
C2062 H2044 0.951 . S
C2062 C2063 1.366 . S
C2062 C2064 1.388 . S
C2063 C2062 1.366 . S
C2063 C2067 1.385 . S
C2064 H2045 0.951 . S
C2064 C2062 1.388 . S
C2064 C2065 1.366 . S
C2065 C2064 1.366 . S
C2065 C2066 1.414 . S
C2065 C2068 1.499 . S
C2066 H2046 0.950 . S
C2066 C2065 1.414 . S
C2066 C2067 1.374 . S
C2067 H2047 0.950 . S
C2067 C2063 1.385 . S
C2067 C2066 1.374 . S
C2068 C2065 1.499 . S
C2068 C2069 1.373 . S
C2068 C2070 1.389 . S
C2069 H2048 0.950 . S
C2069 C2068 1.373 . S
C2069 C2085 1.377 . S
C2070 C2068 1.389 . S
C2070 C2071 1.524 . S
C2070 C2084 1.377 . S
C2071 C2070 1.524 . S
C2071 C2072 1.397 . S
C2071 C2076 1.363 . S
C2072 H2049 0.950 . S
C2072 C2071 1.397 . S
C2072 C2073 1.334 . S
C2073 H2050 0.950 . S
C2073 C2072 1.334 . S
C2073 C2074 1.287 . S
C2074 C2073 1.287 . S
C2074 C2075 1.524 . S
C2074 H2093 0.913 . S
C2075 H2051 0.950 . S
C2075 C2074 1.524 . S
C2075 C2076 1.415 . S
C2076 H2052 0.950 . S
C2076 C2071 1.363 . S
C2076 C2075 1.415 . S
C2077 H2053 0.951 . S
C2077 C2078 1.366 . S
C2077 C2079 1.388 . S
C2078 C2077 1.366 . S
C2078 C2082 1.385 . S
C2079 H2054 0.951 . S
C2079 C2077 1.388 . S
C2079 C2080 1.366 . S
C2080 C2079 1.366 . S
C2080 C2081 1.414 . S
C2080 C2083 1.499 . S
C2081 H2055 0.950 . S
C2081 C2080 1.414 . S
C2081 C2082 1.374 . S
C2082 H2056 0.950 . S
C2082 C2078 1.385 . S
C2082 C2081 1.374 . S
C2083 C2080 1.499 . S
C2083 C2084 1.373 . S
C2083 C2085 1.389 . S
C2084 H2057 0.950 . S
C2084 C2070 1.377 . S
C2084 C2083 1.373 . S
C2085 C2069 1.377 . S
C2085 C2083 1.389 . S
C2085 C2086 1.524 . S
C2086 C2085 1.524 . S
C2086 C2087 1.397 . S
C2086 C2091 1.363 . S
C2087 H2058 0.950 . S
C2087 C2086 1.397 . S
C2087 C2088 1.334 . S
C2088 H2059 0.950 . S
C2088 C2087 1.334 . S
C2088 C2089 1.287 . S
C2089 C2088 1.287 . S
C2089 C2090 1.524 . S
C2089 H2092 0.999 . S
C2090 H2060 0.950 . S
C2090 C2089 1.524 . S
C2090 C2091 1.415 . S
C2091 H2061 0.950 . S
C2091 C2086 1.363 . S
C2091 C2090 1.415 . S
H2092 C2089 0.999 . S
H2093 C2074 0.913 . S
H2094 C2112 0.951 . S
H2095 C2114 0.951 . S
H2096 C2116 0.950 . S
H2097 C2117 0.950 . S
H2098 C2119 0.950 . S
H2099 C2122 0.950 . S
H2100 C2123 0.950 . S
H2101 C2125 0.950 . S
H2102 C2126 0.950 . S
H2103 C2127 0.951 . S
H2104 C2129 0.951 . S
H2105 C2131 0.950 . S
H2106 C2132 0.950 . S
H2107 C2134 0.950 . S
H2108 C2137 0.950 . S
H2109 C2138 0.950 . S
H2110 C2140 0.950 . S
H2111 C2141 0.950 . S
C2112 H2094 0.951 . S
C2112 C2113 1.366 . S
C2112 C2114 1.388 . S
C2113 C2112 1.366 . S
C2113 C2117 1.385 . S
C2114 H2095 0.951 . S
C2114 C2112 1.388 . S
C2114 C2115 1.366 . S
C2115 C2114 1.366 . S
C2115 C2116 1.414 . S
C2115 C2118 1.499 . S
C2116 H2096 0.950 . S
C2116 C2115 1.414 . S
C2116 C2117 1.374 . S
C2117 H2097 0.950 . S
C2117 C2113 1.385 . S
C2117 C2116 1.374 . S
C2118 C2115 1.499 . S
C2118 C2119 1.373 . S
C2118 C2120 1.389 . S
C2119 H2098 0.950 . S
C2119 C2118 1.373 . S
C2119 C2135 1.377 . S
C2120 C2118 1.389 . S
C2120 C2121 1.524 . S
C2120 C2134 1.377 . S
C2121 C2120 1.524 . S
C2121 C2122 1.397 . S
C2121 C2126 1.363 . S
C2122 H2099 0.950 . S
C2122 C2121 1.397 . S
C2122 C2123 1.334 . S
C2123 H2100 0.950 . S
C2123 C2122 1.334 . S
C2123 C2124 1.287 . S
C2124 C2123 1.287 . S
C2124 C2125 1.524 . S
C2124 H2143 0.913 . S
C2125 H2101 0.950 . S
C2125 C2124 1.524 . S
C2125 C2126 1.415 . S
C2126 H2102 0.950 . S
C2126 C2121 1.363 . S
C2126 C2125 1.415 . S
C2127 H2103 0.951 . S
C2127 C2128 1.366 . S
C2127 C2129 1.388 . S
C2128 C2127 1.366 . S
C2128 C2132 1.385 . S
C2129 H2104 0.951 . S
C2129 C2127 1.388 . S
C2129 C2130 1.366 . S
C2130 C2129 1.366 . S
C2130 C2131 1.414 . S
C2130 C2133 1.499 . S
C2131 H2105 0.950 . S
C2131 C2130 1.414 . S
C2131 C2132 1.374 . S
C2132 H2106 0.950 . S
C2132 C2128 1.385 . S
C2132 C2131 1.374 . S
C2133 C2130 1.499 . S
C2133 C2134 1.373 . S
C2133 C2135 1.389 . S
C2134 H2107 0.950 . S
C2134 C2120 1.377 . S
C2134 C2133 1.373 . S
C2135 C2119 1.377 . S
C2135 C2133 1.389 . S
C2135 C2136 1.524 . S
C2136 C2135 1.524 . S
C2136 C2137 1.397 . S
C2136 C2141 1.363 . S
C2137 H2108 0.950 . S
C2137 C2136 1.397 . S
C2137 C2138 1.334 . S
C2138 H2109 0.950 . S
C2138 C2137 1.334 . S
C2138 C2139 1.287 . S
C2139 C2138 1.287 . S
C2139 C2140 1.524 . S
C2139 H2142 0.999 . S
C2140 H2110 0.950 . S
C2140 C2139 1.524 . S
C2140 C2141 1.415 . S
C2141 H2111 0.950 . S
C2141 C2136 1.363 . S
C2141 C2140 1.415 . S
H2142 C2139 0.999 . S
H2143 C2124 0.913 . S
H2144 C2162 0.951 . S
H2145 C2164 0.951 . S
H2146 C2166 0.950 . S
H2147 C2167 0.950 . S
H2148 C2169 0.950 . S
H2149 C2172 0.950 . S
H2150 C2173 0.950 . S
H2151 C2175 0.950 . S
H2152 C2176 0.950 1_556 S
H2153 C2177 0.951 . S
H2154 C2179 0.951 . S
H2155 C2181 0.950 . S
H2156 C2182 0.950 . S
H2157 C2184 0.950 . S
H2158 C2187 0.950 . S
H2159 C2188 0.950 . S
H2160 C2190 0.950 . S
H2161 C2191 0.950 . S
C2162 H2144 0.951 . S
C2162 C2163 1.366 . S
C2162 C2164 1.388 . S
C2163 C2162 1.366 . S
C2163 C2167 1.385 . S
C2164 H2145 0.951 . S
C2164 C2162 1.388 . S
C2164 C2165 1.366 . S
C2165 C2164 1.366 . S
C2165 C2166 1.414 . S
C2165 C2168 1.499 . S
C2166 H2146 0.950 . S
C2166 C2165 1.414 . S
C2166 C2167 1.374 . S
C2167 H2147 0.950 . S
C2167 C2163 1.385 . S
C2167 C2166 1.374 . S
C2168 C2165 1.499 . S
C2168 C2169 1.373 . S
C2168 C2170 1.389 . S
C2169 H2148 0.950 . S
C2169 C2168 1.373 . S
C2169 C2185 1.377 . S
C2170 C2168 1.389 . S
C2170 C2171 1.524 . S
C2170 C2184 1.377 . S
C2171 C2170 1.524 . S
C2171 C2172 1.397 . S
C2171 C2176 1.363 . S
C2172 H2149 0.950 . S
C2172 C2171 1.397 . S
C2172 C2173 1.334 . S
C2173 H2150 0.950 . S
C2173 C2172 1.334 . S
C2173 C2174 1.287 . S
C2174 C2173 1.287 . S
C2174 C2175 1.524 1_554 S
C2174 H2193 0.913 1_554 S
C2175 H2151 0.950 . S
C2175 C2174 1.524 1_556 S
C2175 C2176 1.415 1_556 S
C2176 H2152 0.950 1_554 S
C2176 C2171 1.363 . S
C2176 C2175 1.415 1_554 S
C2177 H2153 0.951 . S
C2177 C2178 1.366 . S
C2177 C2179 1.388 . S
C2178 C2177 1.366 . S
C2178 C2182 1.385 . S
C2179 H2154 0.951 . S
C2179 C2177 1.388 . S
C2179 C2180 1.366 . S
C2180 C2179 1.366 . S
C2180 C2181 1.414 . S
C2180 C2183 1.499 . S
C2181 H2155 0.950 . S
C2181 C2180 1.414 . S
C2181 C2182 1.374 . S
C2182 H2156 0.950 . S
C2182 C2178 1.385 . S
C2182 C2181 1.374 . S
C2183 C2180 1.499 . S
C2183 C2184 1.373 . S
C2183 C2185 1.389 . S
C2184 H2157 0.950 . S
C2184 C2170 1.377 . S
C2184 C2183 1.373 . S
C2185 C2169 1.377 . S
C2185 C2183 1.389 . S
C2185 C2186 1.524 . S
C2186 C2185 1.524 . S
C2186 C2187 1.397 . S
C2186 C2191 1.363 . S
C2187 H2158 0.950 . S
C2187 C2186 1.397 . S
C2187 C2188 1.334 . S
C2188 H2159 0.950 . S
C2188 C2187 1.334 . S
C2188 C2189 1.287 . S
C2189 C2188 1.287 . S
C2189 C2190 1.524 . S
C2189 H2192 0.999 . S
C2190 H2160 0.950 . S
C2190 C2189 1.524 . S
C2190 C2191 1.415 . S
C2191 H2161 0.950 . S
C2191 C2186 1.363 . S
C2191 C2190 1.415 . S
H2192 C2189 0.999 . S
H2193 C2174 0.913 1_556 S
H2194 C2212 0.951 . S
H2195 C2214 0.951 . S
H2196 C2216 0.950 . S
H2197 C2217 0.950 . S
H2198 C2219 0.950 . S
H2199 C2222 0.950 . S
H2200 C2223 0.950 . S
H2201 C2225 0.950 . S
H2202 C2226 0.950 . S
H2203 C2227 0.951 . S
H2204 C2229 0.951 . S
H2205 C2231 0.950 . S
H2206 C2232 0.950 . S
H2207 C2234 0.950 . S
H2208 C2237 0.950 . S
H2209 C2238 0.950 . S
H2210 C2240 0.950 . S
H2211 C2241 0.950 . S
C2212 H2194 0.951 . S
C2212 C2213 1.366 . S
C2212 C2214 1.388 . S
C2213 C2212 1.366 . S
C2213 C2217 1.385 . S
C2214 H2195 0.951 . S
C2214 C2212 1.388 . S
C2214 C2215 1.366 . S
C2215 C2214 1.366 . S
C2215 C2216 1.414 . S
C2215 C2218 1.499 . S
C2216 H2196 0.950 . S
C2216 C2215 1.414 . S
C2216 C2217 1.374 . S
C2217 H2197 0.950 . S
C2217 C2213 1.385 . S
C2217 C2216 1.374 . S
C2218 C2215 1.499 . S
C2218 C2219 1.373 . S
C2218 C2220 1.389 . S
C2219 H2198 0.950 . S
C2219 C2218 1.373 . S
C2219 C2235 1.377 . S
C2220 C2218 1.389 . S
C2220 C2221 1.524 . S
C2220 C2234 1.377 . S
C2221 C2220 1.524 . S
C2221 C2222 1.397 . S
C2221 C2226 1.363 . S
C2222 H2199 0.950 . S
C2222 C2221 1.397 . S
C2222 C2223 1.334 . S
C2223 H2200 0.950 . S
C2223 C2222 1.334 . S
C2223 C2224 1.287 . S
C2224 C2223 1.287 . S
C2224 C2225 1.524 . S
C2224 H2243 0.913 . S
C2225 H2201 0.950 . S
C2225 C2224 1.524 . S
C2225 C2226 1.415 . S
C2226 H2202 0.950 . S
C2226 C2221 1.363 . S
C2226 C2225 1.415 . S
C2227 H2203 0.951 . S
C2227 C2228 1.366 . S
C2227 C2229 1.388 . S
C2228 C2227 1.366 . S
C2228 C2232 1.385 . S
C2229 H2204 0.951 . S
C2229 C2227 1.388 . S
C2229 C2230 1.366 . S
C2230 C2229 1.366 . S
C2230 C2231 1.414 . S
C2230 C2233 1.499 . S
C2231 H2205 0.950 . S
C2231 C2230 1.414 . S
C2231 C2232 1.374 . S
C2232 H2206 0.950 . S
C2232 C2228 1.385 . S
C2232 C2231 1.374 . S
C2233 C2230 1.499 . S
C2233 C2234 1.373 . S
C2233 C2235 1.389 . S
C2234 H2207 0.950 . S
C2234 C2220 1.377 . S
C2234 C2233 1.373 . S
C2235 C2219 1.377 . S
C2235 C2233 1.389 . S
C2235 C2236 1.524 . S
C2236 C2235 1.524 . S
C2236 C2237 1.397 . S
C2236 C2241 1.363 . S
C2237 H2208 0.950 . S
C2237 C2236 1.397 . S
C2237 C2238 1.334 . S
C2238 H2209 0.950 . S
C2238 C2237 1.334 . S
C2238 C2239 1.287 . S
C2239 C2238 1.287 . S
C2239 C2240 1.524 . S
C2239 H2242 0.999 . S
C2240 H2210 0.950 . S
C2240 C2239 1.524 . S
C2240 C2241 1.415 . S
C2241 H2211 0.950 . S
C2241 C2236 1.363 . S
C2241 C2240 1.415 . S
H2242 C2239 0.999 . S
H2243 C2224 0.913 . S
H2244 C2262 0.951 . S
H2245 C2264 0.951 . S
H2246 C2266 0.950 . S
H2247 C2267 0.950 . S
H2248 C2269 0.950 . S
H2249 C2272 0.950 . S
H2250 C2273 0.950 . S
H2251 C2275 0.950 . S
H2252 C2276 0.950 . S
H2253 C2277 0.951 . S
H2254 C2279 0.951 . S
H2255 C2281 0.950 . S
H2256 C2282 0.950 . S
H2257 C2284 0.950 . S
H2258 C2287 0.950 . S
H2259 C2288 0.950 . S
H2260 C2290 0.950 . S
H2261 C2291 0.950 . S
C2262 H2244 0.951 . S
C2262 C2263 1.366 . S
C2262 C2264 1.388 . S
C2263 C2262 1.366 . S
C2263 C2267 1.385 . S
C2264 H2245 0.951 . S
C2264 C2262 1.388 . S
C2264 C2265 1.366 . S
C2265 C2264 1.366 . S
C2265 C2266 1.414 . S
C2265 C2268 1.499 . S
C2266 H2246 0.950 . S
C2266 C2265 1.414 . S
C2266 C2267 1.374 . S
C2267 H2247 0.950 . S
C2267 C2263 1.385 . S
C2267 C2266 1.374 . S
C2268 C2265 1.499 . S
C2268 C2269 1.373 . S
C2268 C2270 1.389 . S
C2269 H2248 0.950 . S
C2269 C2268 1.373 . S
C2269 C2285 1.377 . S
C2270 C2268 1.389 . S
C2270 C2271 1.524 . S
C2270 C2284 1.377 . S
C2271 C2270 1.524 . S
C2271 C2272 1.397 . S
C2271 C2276 1.363 . S
C2272 H2249 0.950 . S
C2272 C2271 1.397 . S
C2272 C2273 1.334 . S
C2273 H2250 0.950 . S
C2273 C2272 1.334 . S
C2273 C2274 1.287 . S
C2274 C2273 1.287 . S
C2274 C2275 1.524 . S
C2274 H2293 0.913 . S
C2275 H2251 0.950 . S
C2275 C2274 1.524 . S
C2275 C2276 1.415 . S
C2276 H2252 0.950 . S
C2276 C2271 1.363 . S
C2276 C2275 1.415 . S
C2277 H2253 0.951 . S
C2277 C2278 1.366 . S
C2277 C2279 1.388 . S
C2278 C2277 1.366 . S
C2278 C2282 1.385 . S
C2279 H2254 0.951 . S
C2279 C2277 1.388 . S
C2279 C2280 1.366 . S
C2280 C2279 1.366 . S
C2280 C2281 1.414 . S
C2280 C2283 1.499 . S
C2281 H2255 0.950 . S
C2281 C2280 1.414 . S
C2281 C2282 1.374 . S
C2282 H2256 0.950 . S
C2282 C2278 1.385 . S
C2282 C2281 1.374 . S
C2283 C2280 1.499 . S
C2283 C2284 1.373 . S
C2283 C2285 1.389 . S
C2284 H2257 0.950 . S
C2284 C2270 1.377 . S
C2284 C2283 1.373 . S
C2285 C2269 1.377 . S
C2285 C2283 1.389 . S
C2285 C2286 1.524 . S
C2286 C2285 1.524 . S
C2286 C2287 1.397 . S
C2286 C2291 1.363 . S
C2287 H2258 0.950 . S
C2287 C2286 1.397 . S
C2287 C2288 1.334 . S
C2288 H2259 0.950 . S
C2288 C2287 1.334 . S
C2288 C2289 1.287 . S
C2289 C2288 1.287 . S
C2289 C2290 1.524 . S
C2289 H2292 0.999 . S
C2290 H2260 0.950 . S
C2290 C2289 1.524 . S
C2290 C2291 1.415 . S
C2291 H2261 0.950 . S
C2291 C2286 1.363 . S
C2291 C2290 1.415 . S
H2292 C2289 0.999 . S
H2293 C2274 0.913 . S
H2294 C2312 0.951 . S
H2295 C2314 0.951 . S
H2296 C2316 0.950 . S
H2297 C2317 0.950 . S
H2298 C2319 0.950 . S
H2299 C2322 0.950 . S
H2300 C2323 0.950 . S
H2301 C2325 0.950 . S
H2302 C2326 0.950 . S
H2303 C2327 0.951 . S
H2304 C2329 0.951 . S
H2305 C2331 0.950 . S
H2306 C2332 0.950 . S
H2307 C2334 0.950 . S
H2308 C2337 0.950 . S
H2309 C2338 0.950 . S
H2310 C2340 0.950 . S
H2311 C2341 0.950 . S
C2312 H2294 0.951 . S
C2312 C2313 1.366 . S
C2312 C2314 1.388 . S
C2313 C2312 1.366 . S
C2313 C2317 1.385 . S
C2314 H2295 0.951 . S
C2314 C2312 1.388 . S
C2314 C2315 1.366 . S
C2315 C2314 1.366 . S
C2315 C2316 1.414 . S
C2315 C2318 1.499 . S
C2316 H2296 0.950 . S
C2316 C2315 1.414 . S
C2316 C2317 1.374 . S
C2317 H2297 0.950 . S
C2317 C2313 1.385 . S
C2317 C2316 1.374 . S
C2318 C2315 1.499 . S
C2318 C2319 1.373 . S
C2318 C2320 1.389 . S
C2319 H2298 0.950 . S
C2319 C2318 1.373 . S
C2319 C2335 1.377 . S
C2320 C2318 1.389 . S
C2320 C2321 1.524 . S
C2320 C2334 1.377 . S
C2321 C2320 1.524 . S
C2321 C2322 1.397 . S
C2321 C2326 1.363 . S
C2322 H2299 0.950 . S
C2322 C2321 1.397 . S
C2322 C2323 1.334 . S
C2323 H2300 0.950 . S
C2323 C2322 1.334 . S
C2323 C2324 1.287 . S
C2324 C2323 1.287 . S
C2324 C2325 1.524 . S
C2324 H2343 0.913 . S
C2325 H2301 0.950 . S
C2325 C2324 1.524 . S
C2325 C2326 1.415 . S
C2326 H2302 0.950 . S
C2326 C2321 1.363 . S
C2326 C2325 1.415 . S
C2327 H2303 0.951 . S
C2327 C2328 1.366 . S
C2327 C2329 1.388 . S
C2328 C2327 1.366 . S
C2328 C2332 1.385 . S
C2329 H2304 0.951 . S
C2329 C2327 1.388 . S
C2329 C2330 1.366 . S
C2330 C2329 1.366 . S
C2330 C2331 1.414 . S
C2330 C2333 1.499 . S
C2331 H2305 0.950 . S
C2331 C2330 1.414 . S
C2331 C2332 1.374 . S
C2332 H2306 0.950 . S
C2332 C2328 1.385 . S
C2332 C2331 1.374 . S
C2333 C2330 1.499 . S
C2333 C2334 1.373 . S
C2333 C2335 1.389 . S
C2334 H2307 0.950 . S
C2334 C2320 1.377 . S
C2334 C2333 1.373 . S
C2335 C2319 1.377 . S
C2335 C2333 1.389 . S
C2335 C2336 1.524 . S
C2336 C2335 1.524 . S
C2336 C2337 1.397 . S
C2336 C2341 1.363 . S
C2337 H2308 0.950 . S
C2337 C2336 1.397 . S
C2337 C2338 1.334 . S
C2338 H2309 0.950 . S
C2338 C2337 1.334 . S
C2338 C2339 1.287 . S
C2339 C2338 1.287 . S
C2339 C2340 1.524 . S
C2339 H2342 0.999 . S
C2340 H2310 0.950 . S
C2340 C2339 1.524 . S
C2340 C2341 1.415 . S
C2341 H2311 0.950 . S
C2341 C2336 1.363 . S
C2341 C2340 1.415 . S
H2342 C2339 0.999 . S
H2343 C2324 0.913 . S
H2344 C2362 0.951 . S
H2345 C2364 0.951 . S
H2346 C2366 0.950 . S
H2347 C2367 0.950 . S
H2348 C2369 0.950 . S
H2349 C2372 0.950 . S
H2350 C2373 0.950 . S
H2351 C2375 0.950 . S
H2352 C2376 0.950 . S
H2353 C2377 0.951 . S
H2354 C2379 0.951 . S
H2355 C2381 0.950 . S
H2356 C2382 0.950 . S
H2357 C2384 0.950 . S
H2358 C2387 0.950 . S
H2359 C2388 0.950 . S
H2360 C2390 0.950 . S
H2361 C2391 0.950 . S
C2362 H2344 0.951 . S
C2362 C2363 1.366 . S
C2362 C2364 1.388 . S
C2363 C2362 1.366 . S
C2363 C2367 1.385 . S
C2364 H2345 0.951 . S
C2364 C2362 1.388 . S
C2364 C2365 1.366 . S
C2365 C2364 1.366 . S
C2365 C2366 1.414 . S
C2365 C2368 1.499 . S
C2366 H2346 0.950 . S
C2366 C2365 1.414 . S
C2366 C2367 1.374 . S
C2367 H2347 0.950 . S
C2367 C2363 1.385 . S
C2367 C2366 1.374 . S
C2368 C2365 1.499 . S
C2368 C2369 1.373 . S
C2368 C2370 1.389 . S
C2369 H2348 0.950 . S
C2369 C2368 1.373 . S
C2369 C2385 1.377 . S
C2370 C2368 1.389 . S
C2370 C2371 1.524 . S
C2370 C2384 1.377 . S
C2371 C2370 1.524 . S
C2371 C2372 1.397 . S
C2371 C2376 1.363 . S
C2372 H2349 0.950 . S
C2372 C2371 1.397 . S
C2372 C2373 1.334 . S
C2373 H2350 0.950 . S
C2373 C2372 1.334 . S
C2373 C2374 1.287 . S
C2374 C2373 1.287 . S
C2374 C2375 1.524 . S
C2374 H2393 0.913 . S
C2375 H2351 0.950 . S
C2375 C2374 1.524 . S
C2375 C2376 1.415 . S
C2376 H2352 0.950 . S
C2376 C2371 1.363 . S
C2376 C2375 1.415 . S
C2377 H2353 0.951 . S
C2377 C2378 1.366 . S
C2377 C2379 1.388 . S
C2378 C2377 1.366 . S
C2378 C2382 1.385 . S
C2379 H2354 0.951 . S
C2379 C2377 1.388 . S
C2379 C2380 1.366 . S
C2380 C2379 1.366 . S
C2380 C2381 1.414 . S
C2380 C2383 1.499 . S
C2381 H2355 0.950 . S
C2381 C2380 1.414 . S
C2381 C2382 1.374 . S
C2382 H2356 0.950 . S
C2382 C2378 1.385 . S
C2382 C2381 1.374 . S
C2383 C2380 1.499 . S
C2383 C2384 1.373 . S
C2383 C2385 1.389 . S
C2384 H2357 0.950 . S
C2384 C2370 1.377 . S
C2384 C2383 1.373 . S
C2385 C2369 1.377 . S
C2385 C2383 1.389 . S
C2385 C2386 1.524 . S
C2386 C2385 1.524 . S
C2386 C2387 1.397 . S
C2386 C2391 1.363 . S
C2387 H2358 0.950 . S
C2387 C2386 1.397 . S
C2387 C2388 1.334 . S
C2388 H2359 0.950 . S
C2388 C2387 1.334 . S
C2388 C2389 1.287 . S
C2389 C2388 1.287 . S
C2389 C2390 1.524 . S
C2389 H2392 0.999 . S
C2390 H2360 0.950 . S
C2390 C2389 1.524 . S
C2390 C2391 1.415 . S
C2391 H2361 0.950 . S
C2391 C2386 1.363 . S
C2391 C2390 1.415 . S
H2392 C2389 0.999 . S
H2393 C2374 0.913 . S
H2394 C2412 0.951 . S
H2395 C2414 0.951 . S
H2396 C2416 0.950 . S
H2397 C2417 0.950 . S
H2398 C2419 0.950 . S
H2399 C2422 0.950 . S
H2400 C2423 0.950 . S
H2401 C2425 0.950 . S
H2402 C2426 0.950 . S
H2403 C2427 0.951 . S
H2404 C2429 0.951 . S
H2405 C2431 0.950 . S
H2406 C2432 0.950 . S
H2407 C2434 0.950 . S
H2408 C2437 0.950 . S
H2409 C2438 0.950 . S
H2410 C2440 0.950 . S
H2411 C2441 0.950 . S
C2412 H2394 0.951 . S
C2412 C2413 1.366 . S
C2412 C2414 1.388 . S
C2413 C2412 1.366 . S
C2413 C2417 1.385 . S
C2414 H2395 0.951 . S
C2414 C2412 1.388 . S
C2414 C2415 1.366 . S
C2415 C2414 1.366 . S
C2415 C2416 1.414 . S
C2415 C2418 1.499 . S
C2416 H2396 0.950 . S
C2416 C2415 1.414 . S
C2416 C2417 1.374 . S
C2417 H2397 0.950 . S
C2417 C2413 1.385 . S
C2417 C2416 1.374 . S
C2418 C2415 1.499 . S
C2418 C2419 1.373 . S
C2418 C2420 1.389 . S
C2419 H2398 0.950 . S
C2419 C2418 1.373 . S
C2419 C2435 1.377 . S
C2420 C2418 1.389 . S
C2420 C2421 1.524 . S
C2420 C2434 1.377 . S
C2421 C2420 1.524 . S
C2421 C2422 1.397 . S
C2421 C2426 1.363 . S
C2422 H2399 0.950 . S
C2422 C2421 1.397 . S
C2422 C2423 1.334 . S
C2423 H2400 0.950 . S
C2423 C2422 1.334 . S
C2423 C2424 1.287 . S
C2424 C2423 1.287 . S
C2424 C2425 1.524 . S
C2424 H2443 0.913 . S
C2425 H2401 0.950 . S
C2425 C2424 1.524 . S
C2425 C2426 1.415 . S
C2426 H2402 0.950 . S
C2426 C2421 1.363 . S
C2426 C2425 1.415 . S
C2427 H2403 0.951 . S
C2427 C2428 1.366 . S
C2427 C2429 1.388 . S
C2428 C2427 1.366 . S
C2428 C2432 1.385 . S
C2429 H2404 0.951 . S
C2429 C2427 1.388 . S
C2429 C2430 1.366 . S
C2430 C2429 1.366 . S
C2430 C2431 1.414 . S
C2430 C2433 1.499 . S
C2431 H2405 0.950 . S
C2431 C2430 1.414 . S
C2431 C2432 1.374 . S
C2432 H2406 0.950 . S
C2432 C2428 1.385 . S
C2432 C2431 1.374 . S
C2433 C2430 1.499 . S
C2433 C2434 1.373 . S
C2433 C2435 1.389 . S
C2434 H2407 0.950 . S
C2434 C2420 1.377 . S
C2434 C2433 1.373 . S
C2435 C2419 1.377 . S
C2435 C2433 1.389 . S
C2435 C2436 1.524 . S
C2436 C2435 1.524 . S
C2436 C2437 1.397 . S
C2436 C2441 1.363 . S
C2437 H2408 0.950 . S
C2437 C2436 1.397 . S
C2437 C2438 1.334 . S
C2438 H2409 0.950 . S
C2438 C2437 1.334 . S
C2438 C2439 1.287 . S
C2439 C2438 1.287 . S
C2439 C2440 1.524 . S
C2439 H2442 0.999 . S
C2440 H2410 0.950 . S
C2440 C2439 1.524 . S
C2440 C2441 1.415 . S
C2441 H2411 0.950 . S
C2441 C2436 1.363 . S
C2441 C2440 1.415 . S
H2442 C2439 0.999 . S
H2443 C2424 0.913 . S
H2444 C2462 0.951 . S
H2445 C2464 0.951 . S
H2446 C2466 0.950 . S
H2447 C2467 0.950 . S
H2448 C2469 0.950 . S
H2449 C2472 0.950 . S
H2450 C2473 0.950 . S
H2451 C2475 0.950 . S
H2452 C2476 0.950 . S
H2453 C2477 0.951 . S
H2454 C2479 0.951 . S
H2455 C2481 0.950 . S
H2456 C2482 0.950 . S
H2457 C2484 0.950 . S
H2458 C2487 0.950 . S
H2459 C2488 0.950 . S
H2460 C2490 0.950 . S
H2461 C2491 0.950 . S
C2462 H2444 0.951 . S
C2462 C2463 1.366 . S
C2462 C2464 1.388 . S
C2463 C2462 1.366 . S
C2463 C2467 1.385 . S
C2464 H2445 0.951 . S
C2464 C2462 1.388 . S
C2464 C2465 1.366 . S
C2465 C2464 1.366 . S
C2465 C2466 1.414 . S
C2465 C2468 1.499 . S
C2466 H2446 0.950 . S
C2466 C2465 1.414 . S
C2466 C2467 1.374 . S
C2467 H2447 0.950 . S
C2467 C2463 1.385 . S
C2467 C2466 1.374 . S
C2468 C2465 1.499 . S
C2468 C2469 1.373 . S
C2468 C2470 1.389 . S
C2469 H2448 0.950 . S
C2469 C2468 1.373 . S
C2469 C2485 1.377 . S
C2470 C2468 1.389 . S
C2470 C2471 1.524 . S
C2470 C2484 1.377 . S
C2471 C2470 1.524 . S
C2471 C2472 1.397 . S
C2471 C2476 1.363 . S
C2472 H2449 0.950 . S
C2472 C2471 1.397 . S
C2472 C2473 1.334 . S
C2473 H2450 0.950 . S
C2473 C2472 1.334 . S
C2473 C2474 1.287 . S
C2474 C2473 1.287 . S
C2474 C2475 1.524 . S
C2474 H2493 0.913 . S
C2475 H2451 0.950 . S
C2475 C2474 1.524 . S
C2475 C2476 1.415 . S
C2476 H2452 0.950 . S
C2476 C2471 1.363 . S
C2476 C2475 1.415 . S
C2477 H2453 0.951 . S
C2477 C2478 1.366 . S
C2477 C2479 1.388 . S
C2478 C2477 1.366 . S
C2478 C2482 1.385 . S
C2479 H2454 0.951 . S
C2479 C2477 1.388 . S
C2479 C2480 1.366 . S
C2480 C2479 1.366 . S
C2480 C2481 1.414 . S
C2480 C2483 1.499 . S
C2481 H2455 0.950 . S
C2481 C2480 1.414 . S
C2481 C2482 1.374 . S
C2482 H2456 0.950 . S
C2482 C2478 1.385 . S
C2482 C2481 1.374 . S
C2483 C2480 1.499 . S
C2483 C2484 1.373 . S
C2483 C2485 1.389 . S
C2484 H2457 0.950 . S
C2484 C2470 1.377 . S
C2484 C2483 1.373 . S
C2485 C2469 1.377 . S
C2485 C2483 1.389 . S
C2485 C2486 1.524 . S
C2486 C2485 1.524 . S
C2486 C2487 1.397 . S
C2486 C2491 1.363 . S
C2487 H2458 0.950 . S
C2487 C2486 1.397 . S
C2487 C2488 1.334 . S
C2488 H2459 0.950 . S
C2488 C2487 1.334 . S
C2488 C2489 1.287 . S
C2489 C2488 1.287 . S
C2489 C2490 1.524 . S
C2489 H2492 0.999 . S
C2490 H2460 0.950 . S
C2490 C2489 1.524 . S
C2490 C2491 1.415 . S
C2491 H2461 0.950 . S
C2491 C2486 1.363 . S
C2491 C2490 1.415 . S
H2492 C2489 0.999 . S
H2493 C2474 0.913 . S
H2494 C2512 0.951 . S
H2495 C2514 0.951 . S
H2496 C2516 0.950 . S
H2497 C2517 0.950 . S
H2498 C2519 0.950 . S
H2499 C2522 0.950 . S
H2500 C2523 0.950 . S
H2501 C2525 0.950 1_554 S
H2502 C2526 0.950 . S
H2503 C2527 0.951 . S
H2504 C2529 0.951 . S
H2505 C2531 0.950 . S
H2506 C2532 0.950 . S
H2507 C2534 0.950 . S
H2508 C2537 0.950 . S
H2509 C2538 0.950 . S
H2510 C2540 0.950 . S
H2511 C2541 0.950 . S
C2512 H2494 0.951 . S
C2512 C2513 1.366 . S
C2512 C2514 1.388 . S
C2513 C2512 1.366 . S
C2513 C2517 1.385 . S
C2514 H2495 0.951 . S
C2514 C2512 1.388 . S
C2514 C2515 1.366 . S
C2515 C2514 1.366 . S
C2515 C2516 1.414 . S
C2515 C2518 1.499 . S
C2516 H2496 0.950 . S
C2516 C2515 1.414 . S
C2516 C2517 1.374 . S
C2517 H2497 0.950 . S
C2517 C2513 1.385 . S
C2517 C2516 1.374 . S
C2518 C2515 1.499 . S
C2518 C2519 1.373 . S
C2518 C2520 1.389 . S
C2519 H2498 0.950 . S
C2519 C2518 1.373 . S
C2519 C2535 1.377 . S
C2520 C2518 1.389 . S
C2520 C2521 1.524 . S
C2520 C2534 1.377 . S
C2521 C2520 1.524 . S
C2521 C2522 1.397 . S
C2521 C2526 1.363 . S
C2522 H2499 0.950 . S
C2522 C2521 1.397 . S
C2522 C2523 1.334 . S
C2523 H2500 0.950 . S
C2523 C2522 1.334 . S
C2523 C2524 1.287 . S
C2524 C2523 1.287 . S
C2524 C2525 1.524 . S
C2524 H2543 0.913 . S
C2525 H2501 0.950 1_556 S
C2525 C2524 1.524 . S
C2525 C2526 1.415 . S
C2526 H2502 0.950 . S
C2526 C2521 1.363 . S
C2526 C2525 1.415 . S
C2527 H2503 0.951 . S
C2527 C2528 1.366 . S
C2527 C2529 1.388 . S
C2528 C2527 1.366 . S
C2528 C2532 1.385 . S
C2529 H2504 0.951 . S
C2529 C2527 1.388 . S
C2529 C2530 1.366 . S
C2530 C2529 1.366 . S
C2530 C2531 1.414 . S
C2530 C2533 1.499 . S
C2531 H2505 0.950 . S
C2531 C2530 1.414 . S
C2531 C2532 1.374 . S
C2532 H2506 0.950 . S
C2532 C2528 1.385 . S
C2532 C2531 1.374 . S
C2533 C2530 1.499 . S
C2533 C2534 1.373 . S
C2533 C2535 1.389 . S
C2534 H2507 0.950 . S
C2534 C2520 1.377 . S
C2534 C2533 1.373 . S
C2535 C2519 1.377 . S
C2535 C2533 1.389 . S
C2535 C2536 1.524 . S
C2536 C2535 1.524 . S
C2536 C2537 1.397 . S
C2536 C2541 1.363 . S
C2537 H2508 0.950 . S
C2537 C2536 1.397 . S
C2537 C2538 1.334 . S
C2538 H2509 0.950 . S
C2538 C2537 1.334 . S
C2538 C2539 1.287 . S
C2539 C2538 1.287 . S
C2539 C2540 1.524 . S
C2539 H2542 0.999 . S
C2540 H2510 0.950 . S
C2540 C2539 1.524 . S
C2540 C2541 1.415 . S
C2541 H2511 0.950 . S
C2541 C2536 1.363 . S
C2541 C2540 1.415 . S
H2542 C2539 0.999 . S
H2543 C2524 0.913 . S
C563 C360 1.554 . S
C578 C20 1.545 . S
C613 C67 1.570 . S
C628 C258 1.566 . S
C663 C543 1.528 . S
C678 C54 1.515 . S
C713 C101 1.552 . S
C728 C33 1.547 . S
C763 C88 1.555 . S
C778 C292 1.545 . S
C813 C203 1.570 . S
C828 C122 1.567 . S
C863 C462 1.515 . S
C878 C135 1.528 . S
C913 C496 1.554 . S
C928 C156 1.545 . S
C963 C190 1.515 . S
C978 C407 1.528 . S
C1013 C237 1.552 . S
C1028 C169 1.546 . S
C1063 C428 1.545 . S
C1078 C224 1.554 . S
C1113 C326 1.515 . S
C1128 C271 1.528 . S
C1163 C530 1.567 . S
C1178 C339 1.570 . S
C1213 C305 1.546 . S
C1228 C373 1.552 . S
C1263 C394 1.567 . S
C1278 C475 1.570 . S
C1313 C509 1.552 . S
C1328 C441 1.547 . S
C1363 C9 1.134 . S
C1378 C5 1.178 1_556 S
C1413 C43 1.138 . S
C1428 C39 1.189 . S
C1463 C77 1.134 . S
C1478 C73 1.169 . S
C1513 C107 1.161 . S
C1528 C111 1.121 . S
C1563 C141 1.178 . S
C1578 C145 1.134 . S
C1613 C179 1.140 . S
C1628 C175 1.189 . S
C1663 C213 1.134 . S
C1678 C209 1.169 . S
C1713 C247 1.121 . S
C1728 C243 1.161 . S
C1763 C281 1.134 . S
C1778 C277 1.178 . S
C1813 C311 1.189 . S
C1828 C315 1.138 . S
C1863 C349 1.134 . S
C1878 C345 1.169 . S
C1913 C383 1.121 . S
C1928 C379 1.162 . S
C1963 C417 1.134 . S
C1978 C413 1.178 1_556 S
C2013 C451 1.139 . S
C2028 C447 1.189 . S
C2063 C485 1.135 . S
C2078 C481 1.169 . S
C2113 C515 1.162 . S
C2128 C519 1.121 . S
C2163 C2 1.555 . S
C2178 C36 1.559 . S
C2213 C70 1.524 . S
C2228 C104 1.524 . S
C2263 C138 1.555 . S
C2278 C172 1.559 . S
C2313 C206 1.524 . S
C2328 C240 1.524 . S
C2363 C308 1.559 . S
C2378 C274 1.555 . S
C2413 C342 1.524 . S
C2428 C376 1.524 . S
C2463 C444 1.559 . S
C2478 C410 1.556 . S
C2513 C512 1.524 . S
C2528 C478 1.524 . S
