# Generated by pormake.
# Topology wif, (6)-cn, num edge types: 1
# Building blocks:
#     Node 0, Type 0, BuildingBlock: IZENUY_clean_sbu_0, # of connection points: 6
#     Node 1, Type 0, BuildingBlock: IZENUY_clean_sbu_0, # of connection points: 6
#     Node 2, Type 0, BuildingBlock: IZENUY_clean_sbu_0, # of connection points: 6
#     Node 3, Type 0, BuildingBlock: IZENUY_clean_sbu_0, # of connection points: 6
#     Node 4, Type 0, BuildingBlock: IZENUY_clean_sbu_0, # of connection points: 6
#     Node 5, Type 0, BuildingBlock: IZENUY_clean_sbu_0, # of connection points: 6
#     Node 6, Type 0, BuildingBlock: IZENUY_clean_sbu_0, # of connection points: 6
#     Node 7, Type 0, BuildingBlock: IZENUY_clean_sbu_0, # of connection points: 6
#     Node 8, Type 0, BuildingBlock: IZENUY_clean_sbu_0, # of connection points: 6
#     Node 9, Type 0, BuildingBlock: IZENUY_clean_sbu_0, # of connection points: 6
#     Node 10, Type 0, BuildingBlock: IZENUY_clean_sbu_0, # of connection points: 6
#     Node 11, Type 0, BuildingBlock: IZENUY_clean_sbu_0, # of connection points: 6
#     Node 12, Type 0, BuildingBlock: IZENUY_clean_sbu_0, # of connection points: 6
#     Node 13, Type 0, BuildingBlock: IZENUY_clean_sbu_0, # of connection points: 6
#     Node 14, Type 0, BuildingBlock: IZENUY_clean_sbu_0, # of connection points: 6
#     Node 15, Type 0, BuildingBlock: IZENUY_clean_sbu_0, # of connection points: 6
#     Edge 16, Type (0, 0), BuildingBlock: OJICUG_clean_linker_0, # of connection points: 2
#     Edge 17, Type (0, 0), BuildingBlock: OJICUG_clean_linker_0, # of connection points: 2
#     Edge 18, Type (0, 0), BuildingBlock: OJICUG_clean_linker_0, # of connection points: 2
#     Edge 19, Type (0, 0), BuildingBlock: OJICUG_clean_linker_0, # of connection points: 2
#     Edge 20, Type (0, 0), BuildingBlock: OJICUG_clean_linker_0, # of connection points: 2
#     Edge 21, Type (0, 0), BuildingBlock: OJICUG_clean_linker_0, # of connection points: 2
#     Edge 22, Type (0, 0), BuildingBlock: OJICUG_clean_linker_0, # of connection points: 2
#     Edge 23, Type (0, 0), BuildingBlock: OJICUG_clean_linker_0, # of connection points: 2
#     Edge 24, Type (0, 0), BuildingBlock: OJICUG_clean_linker_0, # of connection points: 2
#     Edge 25, Type (0, 0), BuildingBlock: OJICUG_clean_linker_0, # of connection points: 2
#     Edge 26, Type (0, 0), BuildingBlock: OJICUG_clean_linker_0, # of connection points: 2
#     Edge 27, Type (0, 0), BuildingBlock: OJICUG_clean_linker_0, # of connection points: 2
#     Edge 28, Type (0, 0), BuildingBlock: OJICUG_clean_linker_0, # of connection points: 2
#     Edge 29, Type (0, 0), BuildingBlock: OJICUG_clean_linker_0, # of connection points: 2
#     Edge 30, Type (0, 0), BuildingBlock: OJICUG_clean_linker_0, # of connection points: 2
#     Edge 31, Type (0, 0), BuildingBlock: OJICUG_clean_linker_0, # of connection points: 2
#     Edge 32, Type (0, 0), BuildingBlock: OJICUG_clean_linker_0, # of connection points: 2
#     Edge 33, Type (0, 0), BuildingBlock: OJICUG_clean_linker_0, # of connection points: 2
#     Edge 34, Type (0, 0), BuildingBlock: OJICUG_clean_linker_0, # of connection points: 2
#     Edge 35, Type (0, 0), BuildingBlock: OJICUG_clean_linker_0, # of connection points: 2
#     Edge 36, Type (0, 0), BuildingBlock: OJICUG_clean_linker_0, # of connection points: 2
#     Edge 37, Type (0, 0), BuildingBlock: OJICUG_clean_linker_0, # of connection points: 2
#     Edge 38, Type (0, 0), BuildingBlock: OJICUG_clean_linker_0, # of connection points: 2
#     Edge 39, Type (0, 0), BuildingBlock: OJICUG_clean_linker_0, # of connection points: 2
#     Edge 40, Type (0, 0), BuildingBlock: OJICUG_clean_linker_0, # of connection points: 2
#     Edge 41, Type (0, 0), BuildingBlock: OJICUG_clean_linker_0, # of connection points: 2
#     Edge 42, Type (0, 0), BuildingBlock: OJICUG_clean_linker_0, # of connection points: 2
#     Edge 43, Type (0, 0), BuildingBlock: OJICUG_clean_linker_0, # of connection points: 2
#     Edge 44, Type (0, 0), BuildingBlock: OJICUG_clean_linker_0, # of connection points: 2
#     Edge 45, Type (0, 0), BuildingBlock: OJICUG_clean_linker_0, # of connection points: 2
#     Edge 46, Type (0, 0), BuildingBlock: OJICUG_clean_linker_0, # of connection points: 2
#     Edge 47, Type (0, 0), BuildingBlock: OJICUG_clean_linker_0, # of connection points: 2
#     Edge 48, Type (0, 0), BuildingBlock: OJICUG_clean_linker_0, # of connection points: 2
#     Edge 49, Type (0, 0), BuildingBlock: OJICUG_clean_linker_0, # of connection points: 2
#     Edge 50, Type (0, 0), BuildingBlock: OJICUG_clean_linker_0, # of connection points: 2
#     Edge 51, Type (0, 0), BuildingBlock: OJICUG_clean_linker_0, # of connection points: 2
#     Edge 52, Type (0, 0), BuildingBlock: OJICUG_clean_linker_0, # of connection points: 2
#     Edge 53, Type (0, 0), BuildingBlock: OJICUG_clean_linker_0, # of connection points: 2
#     Edge 54, Type (0, 0), BuildingBlock: OJICUG_clean_linker_0, # of connection points: 2
#     Edge 55, Type (0, 0), BuildingBlock: OJICUG_clean_linker_0, # of connection points: 2
#     Edge 56, Type (0, 0), BuildingBlock: OJICUG_clean_linker_0, # of connection points: 2
#     Edge 57, Type (0, 0), BuildingBlock: OJICUG_clean_linker_0, # of connection points: 2
#     Edge 58, Type (0, 0), BuildingBlock: OJICUG_clean_linker_0, # of connection points: 2
#     Edge 59, Type (0, 0), BuildingBlock: OJICUG_clean_linker_0, # of connection points: 2
#     Edge 60, Type (0, 0), BuildingBlock: OJICUG_clean_linker_0, # of connection points: 2
#     Edge 61, Type (0, 0), BuildingBlock: OJICUG_clean_linker_0, # of connection points: 2
#     Edge 62, Type (0, 0), BuildingBlock: OJICUG_clean_linker_0, # of connection points: 2
#     Edge 63, Type (0, 0), BuildingBlock: OJICUG_clean_linker_0, # of connection points: 2
# Relax obj value: 0.830
# Max RMSD: 0.281
# Mean RMSD: 0.280
data_MOF--net-wif--node1-IZENUY_clean_sbu_0--edge1-OJICUG_clean_linker_0
_symmetry_space_group_name_H-M    P1
_symmetry_Int_Tables_number       1
_symmetry_cell_setting            triclinic
loop_
_symmetry_equiv_pos_as_xyz
'x, y, z'
_cell_length_a     24.632321
_cell_length_b     24.618667
_cell_length_c     20.906723
_cell_angle_alpha  90.002111
_cell_angle_beta   89.997499
_cell_angle_gamma 90.001629
loop_
_atom_site_label
_atom_site_type_symbol
_atom_site_fract_x
_atom_site_fract_y
_atom_site_fract_z
_atom_type_partial_charge
Fe0 Fe 0.26898 0.09277 0.15457 0.0
Fe1 Fe 0.32139 1.02371 0.04731 0.0
O2 O 0.31188 0.08755 0.0866 0.0
Fe3 Fe 0.34648 0.14578 0.05841 0.0
O4 O 0.3796 0.15691 0.13319 0.0
O5 O 0.30897 0.14606 0.19569 0.0
O6 O 0.30966 0.04393 0.19714 0.0
C7 C 0.31992 0.99635 0.17847 0.0
C8 C 0.2432 0.18807 0.09731 0.0
O9 O 0.31361 0.98285 0.1205 0.0
C10 C 0.33532 0.10225 0.94474 0.0
O11 O 0.22175 0.03951 0.12748 0.0
O12 O 0.24822 1.01643 0.03035 0.0
O13 O 0.29189 0.19319 0.07885 0.0
O14 O 0.22567 0.14283 0.11675 0.0
C15 C 0.42505 0.06221 0.05141 0.0
O16 O 0.33715 0.05354 0.96583 0.0
O17 O 0.31615 0.13782 0.98115 0.0
C18 C 0.21321 1.01405 0.07563 0.0
O19 O 0.39269 1.0245 0.06516 0.0
O20 O 0.40834 0.10898 0.03607 0.0
C21 C 0.3569 0.16294 0.18631 0.0
Fe22 Fe 1.02255 0.75658 1.0077 0.0
Fe23 Fe 0.09164 0.80921 0.90061 0.0
O24 O 0.0864 0.76621 0.96853 0.0
Fe25 Fe 0.1446 0.73161 0.99676 0.0
O26 O 0.10785 0.66966 1.01895 0.0
O27 O 1.02344 0.68526 0.98975 0.0
O28 O 0.98179 0.76438 0.93448 0.0
C29 C 0.99531 0.75819 0.87651 0.0
C30 C 0.10095 0.74259 0.11039 0.0
O31 O 0.04286 0.76854 0.8579 0.0
C32 C 0.18689 0.83497 0.95794 0.0
O33 O 1.01516 0.82975 1.02474 0.0
O34 O 0.03836 0.85641 0.92772 0.0
O35 O 0.13654 0.76184 0.07408 0.0
O36 O 0.0523 0.74076 0.0892 0.0
C37 C 0.16189 0.72135 0.86887 0.0
O38 O 0.14167 0.85253 0.93851 0.0
O39 O 0.19197 0.78628 0.97646 0.0
C40 C 1.01274 0.8648 0.97949 0.0
O41 O 0.14493 0.76927 0.8595 0.0
O42 O 0.15583 0.69857 0.92194 0.0
C43 C 0.06113 0.6529 1.00355 0.0
Fe44 Fe 0.80861 0.98607 0.15579 0.0
Fe45 Fe 0.7561 0.05488 0.04836 0.0
O46 O 0.76564 0.99112 0.08783 0.0
Fe47 Fe 0.73102 0.93282 0.05985 0.0
O48 O 0.698 0.92182 0.13473 0.0
O49 O 0.76863 0.93293 0.19716 0.0
O50 O 0.76801 1.03507 0.19826 0.0
C51 C 0.75778 0.0826 0.17941 0.0
C52 C 0.83432 0.89058 0.09883 0.0
O53 O 0.76395 0.09591 0.12137 0.0
C54 C 0.74198 0.97614 0.94602 0.0
O55 O 0.85584 1.03924 0.12843 0.0
O56 O 0.82924 0.06213 0.03129 0.0
O57 O 0.78564 0.88547 0.08033 0.0
O58 O 0.85187 0.93586 0.11811 0.0
C59 C 0.65243 1.0164 0.05263 0.0
O60 O 0.74027 1.02489 0.96699 0.0
O61 O 0.76119 0.94061 0.98245 0.0
C62 C 0.86429 0.06465 0.07652 0.0
O63 O 0.68479 0.05413 0.06628 0.0
O64 O 0.66914 0.96957 0.03753 0.0
C65 C 0.72076 0.91588 0.18782 0.0
Fe66 Fe 0.05362 0.32167 1.00769 0.0
Fe67 Fe 0.98498 0.2692 0.90008 0.0
O68 O 0.98996 0.31218 0.96806 0.0
Fe69 Fe 0.9317 0.34688 0.9959 0.0
O70 O 0.96846 0.40874 1.01835 0.0
O71 O 0.05299 0.393 0.98974 0.0
O72 O 0.09477 0.31375 0.93478 0.0
C73 C 0.08157 0.31998 0.87671 0.0
C74 C 0.97473 0.33581 0.10983 0.0
O75 O 1.03409 0.30977 0.85775 0.0
C76 C 0.88942 0.24357 0.95684 0.0
O77 O 0.06073 0.24848 1.02479 0.0
O78 O 1.03799 0.22189 0.92758 0.0
O79 O 0.9393 0.31663 0.07326 0.0
O80 O 1.02349 0.33756 0.08898 0.0
C81 C 0.91501 0.35719 0.8679 0.0
O82 O 0.93468 0.22596 0.9376 0.0
O83 O 0.88434 0.29229 0.97529 0.0
C84 C 0.06326 0.21341 0.97958 0.0
O85 O 0.93199 0.30926 0.8586 0.0
O86 O 0.92089 0.37994 0.92102 0.0
C87 C 1.01529 0.42542 1.00329 0.0
Fe88 Fe 0.3457 0.43282 0.24581 0.0
Fe89 Fe 0.26813 0.48621 0.14998 0.0
O90 O 0.31104 0.49115 0.218 0.0
Fe91 Fe 0.3205 0.55483 0.2577 0.0
O92 O 0.39182 0.5542 0.23983 0.0
O93 O 0.40753 0.46958 0.2683 0.0
O94 O 0.37878 0.42203 0.17093 0.0
C95 C 0.35606 0.41617 0.11779 0.0
C96 C 0.33464 0.47586 0.35977 0.0
O97 O 0.30818 0.43319 0.10847 0.0
C98 C 0.2123 0.56448 0.22949 0.0
O99 O 0.29112 0.38547 0.22513 0.0
O100 O 0.22488 0.4359 0.18744 0.0
O101 O 0.33632 0.52466 0.33897 0.0
O102 O 0.31548 0.4404 0.3232 0.0
C103 C 0.31888 0.58286 0.12674 0.0
O104 O 0.22084 0.53926 0.17748 0.0
O105 O 0.24733 0.56194 0.27473 0.0
C106 C 0.24244 0.3906 0.20665 0.0
O107 O 0.30872 0.53536 0.10773 0.0
O108 O 0.31264 0.59603 0.18482 0.0
C109 C 0.42421 0.51645 0.25334 0.0
Fe110 Fe 0.48477 0.80974 0.90579 0.0
Fe111 Fe 0.43164 0.73212 0.80975 0.0
O112 O 0.4899 0.76671 0.83787 0.0
Fe113 Fe 0.55369 0.75703 0.79859 0.0
O114 O 0.59457 0.76488 0.8717 0.0
O115 O 0.53362 0.76908 0.94842 0.0
O116 O 0.43155 0.76981 0.94704 0.0
C117 C 0.41447 0.72193 0.93768 0.0
C118 C 0.56359 0.86526 0.8267 0.0
O119 O 0.42046 0.69913 0.8846 0.0
C120 C 0.47517 0.74299 0.69604 0.0
O121 O 0.43469 0.85306 0.86798 0.0
O122 O 0.38433 0.78683 0.83009 0.0
O123 O 0.56108 0.83019 0.78148 0.0
O124 O 0.53802 0.85692 0.87853 0.0
C125 C 0.51508 0.65337 0.80282 0.0
O126 O 0.43962 0.76228 0.73238 0.0
O127 O 0.52384 0.74118 0.71715 0.0
C128 C 0.38944 0.83551 0.84864 0.0
O129 O 0.46833 0.67015 0.78755 0.0
O130 O 0.55279 0.68571 0.81658 0.0
C131 C 0.58114 0.75874 0.92971 0.0
Fe132 Fe 0.73026 0.64572 0.24708 0.0
Fe133 Fe 0.80772 0.59275 0.15081 0.0
O134 O 0.7648 0.58749 0.21878 0.0
Fe135 Fe 0.75522 0.52361 0.25794 0.0
O136 O 0.68392 0.5245 0.24009 0.0
O137 O 0.66836 0.60896 0.26933 0.0
O138 O 0.69717 0.65699 0.17232 0.0
C139 C 0.71988 0.66307 0.11921 0.0
C140 C 0.74134 0.60202 0.36067 0.0
O141 O 0.76777 0.64611 0.10979 0.0
C142 C 0.86338 0.51383 0.2296 0.0
O143 O 0.78489 0.69311 0.22673 0.0
O144 O 0.85106 0.64275 0.18871 0.0
O145 O 0.73949 0.55334 0.33948 0.0
O146 O 0.76056 0.63762 0.32434 0.0
C147 C 0.7567 0.4964 0.12674 0.0
O148 O 0.8549 0.53942 0.17781 0.0
O149 O 0.82837 0.51621 0.27488 0.0
C150 C 0.83356 0.68799 0.2082 0.0
O151 O 0.76701 0.54398 0.10814 0.0
O152 O 0.76295 0.48285 0.18469 0.0
C153 C 0.6516 0.56222 0.25393 0.0
Fe154 Fe 0.59142 0.26971 0.90476 0.0
Fe155 Fe 0.64453 0.3474 0.80885 0.0
O156 O 0.58632 0.31267 0.83679 0.0
Fe157 Fe 0.52261 0.32212 0.79726 0.0
O158 O 0.48156 0.31422 0.87027 0.0
O159 O 0.54237 0.31029 0.94717 0.0
O160 O 0.64447 0.30979 0.94612 0.0
C161 C 0.66133 0.35776 0.93681 0.0
C162 C 0.51306 0.21385 0.82544 0.0
O163 O 0.65538 0.3805 0.8837 0.0
C164 C 0.60138 0.33623 0.69499 0.0
O165 O 0.64167 0.22649 0.86714 0.0
O166 O 0.69195 0.29285 0.8294 0.0
O167 O 0.51551 0.24891 0.78021 0.0
O168 O 0.53838 0.22238 0.87739 0.0
C169 C 0.56091 0.42589 0.80161 0.0
O170 O 0.63685 0.31709 0.73153 0.0
O171 O 0.55264 0.338 0.71591 0.0
C172 C 0.68689 0.24412 0.84781 0.0
O173 O 0.60772 0.40923 0.78642 0.0
O174 O 0.52323 0.39345 0.81519 0.0
C175 C 0.49486 0.32049 0.92831 0.0
Fe176 Fe 0.82121 0.52368 0.54724 0.0
Fe177 Fe 0.84643 0.6457 0.55868 0.0
O178 O 0.81175 0.58746 0.58669 0.0
Fe179 Fe 0.76882 0.59259 0.65467 0.0
O180 O 0.80942 0.54359 0.69714 0.0
O181 O 0.81338 0.4827 0.6203 0.0
O182 O 0.89252 0.52436 0.5651 0.0
C183 C 0.92492 0.56207 0.55148 0.0
C184 C 0.71301 0.51407 0.57551 0.0
O185 O 0.90824 0.60889 0.53628 0.0
C186 C 0.74318 0.68803 0.59762 0.0
O187 O 0.83702 0.55365 0.46584 0.0
O188 O 0.81615 0.63793 0.48136 0.0
O189 O 0.72155 0.53945 0.62741 0.0
O190 O 0.74804 0.5165 0.53025 0.0
C191 C 0.85679 0.66263 0.68663 0.0
O192 O 0.79187 0.69312 0.5792 0.0
O193 O 0.72559 0.64279 0.61698 0.0
C194 C 0.83528 0.6024 0.44488 0.0
O195 O 0.87951 0.65665 0.63352 0.0
O196 O 0.80885 0.64575 0.69595 0.0
C197 C 0.81963 0.49605 0.67832 0.0
Fe198 Fe 0.52278 0.25661 0.50744 0.0
Fe199 Fe 0.59187 0.30933 0.40042 0.0
O200 O 0.58663 0.2663 0.46832 0.0
Fe201 Fe 0.64485 0.23174 0.49659 0.0
O202 O 0.60814 0.16976 0.51873 0.0
O203 O 0.52374 0.18529 0.48946 0.0
O204 O 0.48204 0.26441 0.43421 0.0
C205 C 0.49558 0.25827 0.37624 0.0
C206 C 0.60113 0.24265 0.61019 0.0
O207 O 0.54313 0.26863 0.35766 0.0
C208 C 0.68708 0.33514 0.45781 0.0
O209 O 0.51532 0.32976 0.52452 0.0
O210 O 0.53854 0.35648 0.42752 0.0
O211 O 0.63672 0.26195 0.57391 0.0
O212 O 0.55249 0.24079 0.58896 0.0
C213 C 0.66223 0.22153 0.36871 0.0
O214 O 0.64185 0.35267 0.43837 0.0
O215 O 0.69219 0.28645 0.47634 0.0
C216 C 0.51288 0.36482 0.47929 0.0
O217 O 0.6452 0.26943 0.35932 0.0
O218 O 0.65615 0.19874 0.42177 0.0
C219 C 0.56144 0.15297 0.50332 0.0
Fe220 Fe 0.3084 0.48604 0.65575 0.0
Fe221 Fe 0.25593 0.5549 0.54835 0.0
O222 O 0.2655 0.49111 0.58774 0.0
Fe223 Fe 0.23097 0.4328 0.55962 0.0
O224 O 0.19789 0.42167 0.63443 0.0
O225 O 0.26843 0.43281 0.69698 0.0
O226 O 0.2677 0.53495 0.69823 0.0
C227 C 0.25746 0.58249 0.67944 0.0
C228 C 0.33428 0.39064 0.59871 0.0
O229 O 0.2637 0.59587 0.62143 0.0
C230 C 0.24197 0.47626 0.4459 0.0
O231 O 0.3556 0.53928 0.62852 0.0
O232 O 0.32908 0.56223 0.53137 0.0
O233 O 0.28563 0.38548 0.58011 0.0
O234 O 0.35175 0.43593 0.61806 0.0
C235 C 0.1523 0.5163 0.55247 0.0
O236 O 0.24018 0.52498 0.46693 0.0
O237 O 0.26123 0.44073 0.4823 0.0
C238 C 0.36408 0.56472 0.57663 0.0
O239 O 0.18462 0.55406 0.56621 0.0
O240 O 0.16907 0.46951 0.53729 0.0
C241 C 0.22058 0.41572 0.68756 0.0
Fe242 Fe 0.55387 0.82172 0.50804 0.0
Fe243 Fe 0.48519 0.76944 0.40032 0.0
O244 O 0.49021 0.81233 0.46837 0.0
Fe245 Fe 0.43197 0.84705 0.49624 0.0
O246 O 0.46878 0.90885 0.5188 0.0
O247 O 0.55331 0.89307 0.4902 0.0
O248 O 0.59503 0.81386 0.43512 0.0
C249 C 0.58183 0.82016 0.37706 0.0
C250 C 0.47494 0.83583 0.61016 0.0
O251 O 0.53434 0.81002 0.35807 0.0
C252 C 0.38961 0.74383 0.45701 0.0
O253 O 0.5609 0.7485 0.52502 0.0
O254 O 0.53816 0.72205 0.42776 0.0
O255 O 0.43953 0.81669 0.57355 0.0
O256 O 0.52372 0.83756 0.58935 0.0
C257 C 0.41536 0.85756 0.36825 0.0
O258 O 0.43485 0.7262 0.43775 0.0
O259 O 0.38456 0.79253 0.47551 0.0
C260 C 0.56341 0.71348 0.47975 0.0
O261 O 0.43224 0.80961 0.35889 0.0
O262 O 0.42124 0.88022 0.42142 0.0
C263 C 0.51562 0.9255 0.50376 0.0
Fe264 Fe 0.76825 0.98617 0.65002 0.0
Fe265 Fe 0.82062 0.05487 0.75765 0.0
O266 O 0.81114 0.99115 0.71804 0.0
Fe267 Fe 0.84576 0.93284 0.74596 0.0
O268 O 0.87886 0.92195 0.67111 0.0
O269 O 0.80829 0.93308 0.60861 0.0
O270 O 0.80888 1.03524 0.60771 0.0
C271 C 0.81906 0.08275 0.62665 0.0
C272 C 0.7425 0.89062 0.70682 0.0
O273 O 0.8128 0.096 0.6847 0.0
C274 C 0.83466 0.97599 0.85984 0.0
O275 O 0.72098 1.03926 0.67741 0.0
O276 O 0.74745 0.06203 0.77465 0.0
O277 O 0.79117 0.88549 0.72532 0.0
O278 O 0.72496 0.93591 0.68754 0.0
C279 C 0.9243 1.01644 0.75339 0.0
O280 O 0.8364 1.02476 0.83898 0.0
O281 O 0.81548 0.94052 0.8233 0.0
C282 C 0.71243 0.06455 0.72939 0.0
O283 O 0.89194 0.05418 0.73981 0.0
O284 O 0.9076 0.96959 0.76843 0.0
C285 C 0.85617 0.91607 0.61796 0.0
Fe286 Fe 0.05386 0.25702 0.29837 0.0
Fe287 Fe 0.98494 0.30964 0.40562 0.0
O288 O 0.99007 0.26665 0.33767 0.0
Fe289 Fe 0.93182 0.23207 0.30952 0.0
O290 O 0.96853 0.17012 0.28729 0.0
O291 O 0.05299 0.1857 0.31631 0.0
O292 O 0.09475 0.26485 0.37149 0.0
C293 C 0.08133 0.25867 0.42949 0.0
C294 C 0.97534 0.243 0.19582 0.0
O295 O 1.0338 0.26897 0.44821 0.0
C296 C 0.88961 0.33544 0.34848 0.0
O297 O 0.06122 0.33019 0.2813 0.0
O298 O 1.03817 0.35685 0.37839 0.0
O299 O 0.9398 0.26228 0.23218 0.0
O300 O 1.02401 0.2412 0.21693 0.0
C301 C 0.91467 0.22179 0.43746 0.0
O302 O 0.93485 0.35297 0.36785 0.0
O303 O 0.8845 0.28676 0.32991 0.0
C304 C 0.0637 0.36524 0.32654 0.0
O305 O 0.93172 0.26968 0.44685 0.0
O306 O 0.92065 0.19904 0.38436 0.0
C307 C 1.01528 0.15336 0.30255 0.0
Fe308 Fe 0.30789 0.09281 0.65082 0.0
Fe309 Fe 0.25533 1.02367 0.75793 0.0
O310 O 0.26491 0.08755 0.71875 0.0
Fe311 Fe 0.23031 0.14577 0.74697 0.0
O312 O 0.19727 0.15698 0.67215 0.0
O313 O 0.26795 0.14612 0.60971 0.0
O314 O 0.26724 0.04399 0.60813 0.0
C315 C 0.25693 0.99642 0.62675 0.0
C316 C 0.33361 0.18809 0.70817 0.0
O317 O 0.26314 0.98289 0.68472 0.0
C318 C 0.24133 0.10212 0.8606 0.0
O319 O 0.35508 0.0395 0.67791 0.0
O320 O 0.32848 1.01632 0.77495 0.0
O321 O 0.28493 0.19318 0.72664 0.0
O322 O 0.35116 0.14285 0.68874 0.0
C323 C 0.15169 0.06222 0.7538 0.0
O324 O 0.23954 0.05344 0.83943 0.0
O325 O 0.26053 0.13774 0.82428 0.0
C326 C 0.36352 1.01393 0.72971 0.0
O327 O 0.18404 1.02452 0.74002 0.0
O328 O 0.16842 0.10898 0.76918 0.0
C329 C 0.22003 0.16305 0.61907 0.0
Fe330 Fe 0.1447 0.84737 0.30895 0.0
Fe331 Fe 1.02277 0.82213 0.2974 0.0
O332 O 0.08648 0.81267 0.33691 0.0
Fe333 Fe 0.09158 0.76971 0.40489 0.0
O334 O 0.14464 0.8098 0.44623 0.0
O335 O 0.15556 0.88049 0.38379 0.0
O336 O 0.1079 0.90921 0.2865 0.0
C337 C 0.0611 0.92588 0.30168 0.0
C338 C 0.18705 0.7441 0.34796 0.0
O339 O 1.02342 0.89347 0.3153 0.0
C340 C 1.01316 0.71388 0.32562 0.0
O341 O 0.13701 0.81704 0.23165 0.0
O342 O 0.0528 0.83798 0.21603 0.0
O343 O 0.14183 0.72647 0.36728 0.0
O344 O 0.19211 0.79282 0.32953 0.0
C345 C 0.99504 0.82052 0.42845 0.0
O346 O 1.01563 0.74893 0.28037 0.0
O347 O 0.03851 0.72239 0.37754 0.0
C348 C 0.10154 0.8362 0.19511 0.0
O349 O 0.98173 0.81427 0.37042 0.0
O350 O 0.04254 0.81031 0.44731 0.0
C351 C 0.16152 0.85776 0.43691 0.0
C352 C 0.09476 0.92543 0.13179 0.0
C353 C 0.12195 0.87613 0.14526 0.0
H354 H 0.10191 1.00833 0.09853 0.0
C355 C 0.17583 0.87131 0.12308 0.0
H356 H 0.05389 0.93185 0.14931 0.0
C357 C 0.20265 0.9147 0.09311 0.0
C358 C 0.1773 0.96501 0.08345 0.0
H359 H 0.19934 0.83535 0.13389 0.0
H360 H 0.24557 0.91094 0.08448 0.0
C361 C 0.12236 0.96952 0.10233 0.0
C362 C 0.92384 0.983 0.92315 0.0
C363 C 0.87465 0.95565 0.90967 0.0
H364 H 1.0067 0.97611 0.95646 0.0
C365 C 0.86999 0.90174 0.93188 0.0
H366 H 0.93014 1.02391 0.90563 0.0
C367 C 0.91339 0.87506 0.96198 0.0
C368 C 0.96361 0.90057 0.97162 0.0
H369 H 0.83413 0.8781 0.92105 0.0
H370 H 0.9097 0.83213 0.9707 0.0
C371 C 0.96797 0.95554 0.95267 0.0
C372 C 0.95495 0.10939 0.10344 0.0
C373 C 0.90008 0.11379 0.08425 0.0
H374 H 1.02321 0.14726 0.15058 0.0
C375 C 0.87466 0.16412 0.0935 0.0
H376 H 0.97545 0.07058 0.09991 0.0
C377 C 0.90128 0.20757 0.1236 0.0
C378 C 0.95509 0.20289 0.14605 0.0
H379 H 0.83179 0.16785 0.0845 0.0
H380 H 0.87766 0.24349 0.13423 0.0
C381 C 0.98239 0.15359 0.13286 0.0
C382 C 0.10778 0.1226 0.95276 0.0
C383 C 0.11228 0.17746 0.97209 0.0
H384 H 0.14555 0.05429 0.90556 0.0
C385 C 0.16268 0.20277 0.96312 0.0
H386 H 0.06893 0.1022 0.95608 0.0
C387 C 0.20613 0.17606 0.93314 0.0
C388 C 0.20133 0.12229 0.91048 0.0
H389 H 0.16648 0.24563 0.97227 0.0
H390 H 0.24215 0.1996 0.92268 0.0
C391 C 0.15195 0.09507 0.92344 0.0
C392 C 0.20164 0.66393 0.21287 0.0
C393 C 0.17634 0.61351 0.22196 0.0
H394 H 0.19849 0.74335 0.17227 0.0
C395 C 0.12151 0.60899 0.20265 0.0
H396 H 0.24449 0.66774 0.22196 0.0
C397 C 0.09399 0.65316 0.17327 0.0
C398 C 0.12118 0.70254 0.16022 0.0
H399 H 0.10111 0.57012 0.20605 0.0
H400 H 0.05321 0.64674 0.15545 0.0
C401 C 0.17494 0.70736 0.18282 0.0
C402 C 0.60844 0.9559 0.85364 0.0
C403 C 0.61276 0.90099 0.83446 0.0
H404 H 0.64638 1.02416 0.90075 0.0
C405 C 0.66303 0.87548 0.84371 0.0
H406 H 0.56968 0.97647 0.8501 0.0
C407 C 0.7065 0.90207 0.87379 0.0
C408 C 0.70189 0.95592 0.89624 0.0
H409 H 0.6667 0.83258 0.83472 0.0
H410 H 0.74238 0.87841 0.88441 0.0
C411 C 0.65265 0.9833 0.88304 0.0
C412 C 0.8737 0.41447 0.21183 0.0
C413 C 0.89916 0.46471 0.22163 0.0
H414 H 0.87682 0.33521 0.17084 0.0
C415 C 0.95412 0.46912 0.20278 0.0
H416 H 0.83076 0.41079 0.2204 0.0
C417 C 0.98163 0.42501 0.17324 0.0
C418 C 0.95433 0.37579 0.15965 0.0
H419 H 0.97466 0.50788 0.2067 0.0
H420 H 1.02253 0.43136 0.15579 0.0
C421 C 0.90042 0.37108 0.18176 0.0
C422 C 0.42455 0.09534 0.88157 0.0
C423 C 0.37522 0.12253 0.89481 0.0
H424 H 0.50748 0.10253 0.84858 0.0
C425 C 0.37036 0.17635 0.87237 0.0
H426 H 0.43099 0.05452 0.89929 0.0
C427 C 0.41373 0.20314 0.84236 0.0
C428 C 0.46409 0.17785 0.83303 0.0
H429 H 0.33437 0.19986 0.88303 0.0
H430 H 0.40992 0.24604 0.83348 0.0
C431 C 0.46864 0.12294 0.85214 0.0
C432 C 0.62216 0.46954 0.60216 0.0
C433 C 0.67711 0.46502 0.58327 0.0
H434 H 0.5537 0.43189 0.64916 0.0
C435 C 0.70244 0.41471 0.59292 0.0
H436 H 0.60172 0.50836 0.59836 0.0
C437 C 0.67564 0.37134 0.62293 0.0
C438 C 0.62176 0.37615 0.64512 0.0
H439 H 0.74535 0.41094 0.58426 0.0
H440 H 0.69916 0.3354 0.63378 0.0
C441 C 0.59457 0.42546 0.63164 0.0
C442 C 0.46801 0.45549 0.45247 0.0
C443 C 0.4637 0.40052 0.4714 0.0
H444 H 0.43012 0.52384 0.40549 0.0
C445 C 0.41349 0.37497 0.46182 0.0
H446 H 0.50673 0.47609 0.45625 0.0
C447 C 0.37004 0.40162 0.43177 0.0
C448 C 0.37466 0.45554 0.40956 0.0
H449 H 0.40984 0.33203 0.47056 0.0
H450 H 0.3342 0.37796 0.42096 0.0
C451 C 0.42384 0.48293 0.42301 0.0
C452 C 0.3745 0.66417 0.59362 0.0
C453 C 0.39991 0.61383 0.58439 0.0
H454 H 0.37752 0.74354 0.63434 0.0
C455 C 0.45476 0.6094 0.60365 0.0
H456 H 0.33163 0.66791 0.58459 0.0
C457 C 0.4822 0.65359 0.6331 0.0
C458 C 0.45492 0.7029 0.64625 0.0
H459 H 0.47525 0.57059 0.60014 0.0
H460 H 0.52301 0.64724 0.65085 0.0
C461 C 0.40113 0.70761 0.62373 0.0
C462 C 0.60784 0.62262 0.45292 0.0
C463 C 0.61239 0.67748 0.47221 0.0
H464 H 0.64553 0.55427 0.40573 0.0
C465 C 0.6628 0.70275 0.46317 0.0
H466 H 0.56897 0.60224 0.45629 0.0
C467 C 0.70621 0.676 0.43317 0.0
C468 C 0.70136 0.62222 0.41056 0.0
H469 H 0.66663 0.74562 0.47227 0.0
H470 H 0.74222 0.69952 0.42266 0.0
C471 C 0.65198 0.59505 0.42357 0.0
C472 C 0.70181 0.16398 0.71265 0.0
C473 C 0.6765 0.11358 0.72178 0.0
H474 H 0.69867 0.24341 0.67207 0.0
C475 C 0.62166 0.10908 0.70249 0.0
H476 H 0.74467 0.16777 0.72171 0.0
C477 C 0.59415 0.15324 0.67309 0.0
C478 C 0.62136 0.20261 0.66002 0.0
H479 H 0.60125 0.07021 0.70591 0.0
H480 H 0.55337 0.14683 0.65527 0.0
C481 C 0.67512 0.20742 0.68261 0.0
C482 C 0.20656 0.40215 0.3737 0.0
C483 C 0.20191 0.45601 0.39611 0.0
H484 H 0.16683 0.33262 0.33468 0.0
C485 C 0.15267 0.48336 0.38286 0.0
H486 H 0.24244 0.3785 0.38437 0.0
C487 C 0.10848 0.45592 0.35344 0.0
C488 C 0.11284 0.40101 0.3343 0.0
H489 H 0.14638 0.52423 0.40053 0.0
H490 H 0.06972 0.47648 0.34986 0.0
C491 C 0.16312 0.37553 0.3436 0.0
C492 C 0.48181 0.92507 0.67352 0.0
C493 C 0.45452 0.87584 0.65994 0.0
H494 H 0.47483 1.00796 0.70689 0.0
C495 C 0.40059 0.87115 0.682 0.0
H496 H 0.52273 0.93139 0.6561 0.0
C497 C 0.37385 0.91456 0.71203 0.0
C498 C 0.39931 0.9648 0.7218 0.0
H499 H 0.377 0.83527 0.6711 0.0
H500 H 0.33092 0.91086 0.7206 0.0
C501 C 0.45428 0.9692 0.703 0.0
C502 C 0.92452 0.59545 0.38174 0.0
C503 C 0.8752 0.62267 0.39497 0.0
H504 H 1.00746 0.60258 0.34878 0.0
C505 C 0.8704 0.67651 0.37255 0.0
H506 H 0.93092 0.55462 0.39944 0.0
C507 C 0.91381 0.70327 0.34257 0.0
C508 C 0.96414 0.67793 0.33324 0.0
H509 H 0.83441 0.70004 0.3832 0.0
H510 H 0.91003 0.74618 0.33368 0.0
C511 C 0.96864 0.62302 0.35234 0.0
C512 C 0.21393 0.33623 0.11411 0.0
C513 C 0.21753 0.34089 0.18095 0.0
H514 H 0.22626 0.28362 0.03462 0.0
C515 C 0.21616 0.29351 0.21817 0.0
H516 H 0.21731 0.37192 0.08403 0.0
C517 C 0.21312 0.24254 0.18915 0.0
C518 C 0.21805 0.23788 0.12243 0.0
H519 H 0.22391 0.29516 0.26892 0.0
H520 H 0.21592 0.20686 0.21934 0.0
C521 C 0.2175 0.28527 0.08518 0.0
C522 C 0.28405 0.8607 0.96995 0.0
C523 C 0.23669 0.86006 0.93271 0.0
H524 H 0.37063 0.86102 0.97119 0.0
C525 C 0.24138 0.86475 0.86596 0.0
H526 H 0.28239 0.85198 1.0205 0.0
C527 C 0.29234 0.8616 0.837 0.0
C528 C 0.3397 0.86046 0.87423 0.0
H529 H 0.20573 0.86185 0.83579 0.0
H530 H 0.29398 0.85355 0.78631 0.0
C531 C 0.33499 0.8643 0.94105 0.0
C532 C 0.86351 0.74247 0.1163 0.0
C533 C 0.85867 0.73781 0.18303 0.0
H534 H 0.85256 0.79506 0.03657 0.0
C535 C 0.85923 0.78521 0.22026 0.0
H536 H 0.86067 0.70678 0.08614 0.0
C537 C 0.86287 0.83617 0.19133 0.0
C538 C 0.8592 0.84083 0.12449 0.0
H539 H 0.85045 0.78357 0.27081 0.0
H540 H 0.85954 0.87185 0.22144 0.0
C541 C 0.86046 0.79344 0.08729 0.0
C542 C 0.79239 0.21737 0.96861 0.0
C543 C 0.8397 0.21859 0.93131 0.0
H544 H 0.70579 0.2172 0.96994 0.0
C545 C 0.83496 0.21477 0.86449 0.0
H546 H 0.79411 0.22531 1.01933 0.0
C547 C 0.78398 0.21829 0.83564 0.0
C548 C 0.73667 0.21898 0.87297 0.0
H549 H 0.87058 0.21806 0.83433 0.0
H550 H 0.78227 0.22692 0.78506 0.0
C551 C 0.74141 0.21427 0.9397 0.0
C552 C 0.71627 0.79354 0.71845 0.0
C553 C 0.71757 0.84089 0.68119 0.0
H554 H 0.71608 0.70689 0.71971 0.0
C555 C 0.71388 0.83619 0.61436 0.0
H556 H 0.72409 0.79524 0.76919 0.0
C557 C 0.71745 0.7852 0.58548 0.0
C558 C 0.71806 0.73784 0.62277 0.0
H559 H 0.71721 0.87185 0.58423 0.0
H560 H 0.72616 0.78352 0.53491 0.0
C561 C 0.71322 0.74255 0.68949 0.0
C562 C 0.83519 0.36439 0.44082 0.0
C563 C 0.83986 0.36042 0.37401 0.0
H564 H 0.78262 0.35229 0.52034 0.0
C565 C 0.79249 0.3615 0.3368 0.0
H566 H 0.87085 0.36116 0.47093 0.0
C567 C 0.74155 0.36477 0.36578 0.0
C568 C 0.73687 0.36023 0.43254 0.0
H569 H 0.79412 0.35331 0.28614 0.0
H570 H 0.70589 0.36182 0.33561 0.0
C571 C 0.78424 0.36092 0.46976 0.0
C572 C 0.36357 0.24255 0.61626 0.0
C573 C 0.3587 0.23791 0.68299 0.0
H574 H 0.35263 0.29511 0.53649 0.0
C575 C 0.35922 0.28533 0.7202 0.0
H576 H 0.36077 0.20685 0.58612 0.0
C577 C 0.36283 0.33628 0.69124 0.0
C578 C 0.35918 0.34091 0.6244 0.0
H579 H 0.35043 0.2837 0.77074 0.0
H580 H 0.35947 0.37196 0.72133 0.0
C581 C 0.36049 0.29351 0.58722 0.0
C582 C 0.28415 0.71826 0.33587 0.0
C583 C 0.23683 0.71902 0.3732 0.0
H584 H 0.37074 0.71812 0.33453 0.0
C585 C 0.24158 0.7145 0.43995 0.0
H586 H 0.28242 0.72673 0.28526 0.0
C587 C 0.29256 0.7177 0.46885 0.0
C588 C 0.33987 0.71884 0.43153 0.0
H589 H 0.20595 0.71747 0.47016 0.0
H590 H 0.29428 0.72575 0.51954 0.0
C591 C 0.33513 0.71486 0.36473 0.0
C592 C 0.3655 0.90825 0.20723 0.0
C593 C 0.33834 0.95604 0.22585 0.0
H594 H 0.41174 0.83893 0.23812 0.0
C595 C 0.33209 0.9674 0.29113 0.0
H596 H 0.3706 0.89841 0.15709 0.0
C597 C 0.35522 0.93374 0.33682 0.0
C598 C 0.3855 0.88786 0.31856 0.0
H599 H 0.31051 1.00326 0.30713 0.0
H600 H 0.35053 0.94475 0.38671 0.0
C601 C 0.38902 0.87429 0.25343 0.0
C602 C 0.93267 0.72313 0.71809 0.0
C603 C 0.88697 0.69259 0.73633 0.0
H604 H 1.00202 0.76808 0.74785 0.0
C605 C 0.87351 0.68882 0.80146 0.0
H606 H 0.94357 0.72801 0.66819 0.0
C607 C 0.90742 0.71236 0.84769 0.0
C608 C 0.95504 0.73978 0.82909 0.0
H609 H 0.8383 0.66588 0.81675 0.0
H610 H 0.89767 0.70705 0.89783 0.0
C611 C 0.96628 0.74629 0.76382 0.0
C612 C 0.74649 0.11233 0.29192 0.0
C613 C 0.73952 0.12312 0.22662 0.0
H614 H 0.72853 0.13552 0.38749 0.0
C615 C 0.71174 0.17048 0.20781 0.0
H616 H 0.7686 0.07682 0.30801 0.0
C617 C 0.68822 0.20452 0.25391 0.0
C618 C 0.69237 0.19144 0.31912 0.0
H619 H 0.7061 0.17988 0.15763 0.0
H620 H 0.66493 0.23947 0.2385 0.0
C621 C 0.72335 0.14608 0.33753 0.0
C622 C 0.11142 0.33134 0.76425 0.0
C623 C 0.12212 0.33829 0.82957 0.0
H624 H 0.13465 0.34934 0.66871 0.0
C625 C 0.16942 0.36615 0.84844 0.0
H626 H 0.07596 0.30918 0.7481 0.0
C627 C 0.20346 0.38973 0.80238 0.0
C628 C 0.19045 0.38558 0.73715 0.0
H629 H 0.17875 0.3718 0.89864 0.0
H630 H 0.23836 0.41306 0.81784 0.0
C631 C 0.14517 0.35454 0.71868 0.0
C632 C 0.38872 0.70474 0.05252 0.0
C633 C 0.38429 0.69188 0.98727 0.0
H634 H 0.37105 0.67984 0.14877 0.0
C635 C 0.353 0.64676 0.96879 0.0
H636 H 0.41224 0.73952 0.06798 0.0
C637 C 0.32984 0.61298 1.01435 0.0
C638 C 0.3371 0.62349 0.07967 0.0
H639 H 0.3476 0.6364 0.9188 0.0
H640 H 0.3075 0.57763 0.9982 0.0
C641 C 0.36517 0.67067 0.09857 0.0
C642 C 0.6441 0.72377 0.08798 0.0
C643 C 0.6897 0.69314 0.06962 0.0
H644 H 0.57474 0.76879 0.05838 0.0
C645 C 0.70303 0.68933 1.00445 0.0
H646 H 0.63331 0.72867 0.13791 0.0
C647 C 0.66905 0.71288 0.95832 0.0
C648 C 0.6215 0.74036 0.97703 0.0
H649 H 0.73816 0.66632 0.98908 0.0
H650 H 0.67868 0.70752 0.90815 0.0
C651 C 0.61042 0.74694 0.04233 0.0
C652 C 0.68747 0.37449 0.05166 0.0
C653 C 0.69122 0.38798 0.98653 0.0
H654 H 0.70567 0.39866 0.14803 0.0
C655 C 0.7217 0.43374 0.96831 0.0
H656 H 0.66458 0.33923 0.06692 0.0
C657 C 0.74481 0.46738 1.01405 0.0
C658 C 0.73832 0.45611 0.07931 0.0
H659 H 0.72657 0.44466 0.91842 0.0
H660 H 0.76656 0.50316 0.9981 0.0
C661 C 0.71096 0.40843 0.09789 0.0
C662 C 0.40705 0.36668 0.95676 0.0
C663 C 0.45439 0.33885 0.97553 0.0
H664 H 0.33812 0.41354 0.98752 0.0
C665 C 0.46522 0.33195 0.04083 0.0
H666 H 0.39762 0.37229 0.90658 0.0
C667 C 0.43155 0.35514 0.08647 0.0
C668 C 0.38619 0.38613 0.06811 0.0
H669 H 0.50072 0.30982 0.0569 0.0
H670 H 0.44215 0.34997 0.13641 0.0
C671 C 0.37307 0.39026 1.0029 0.0
C672 C 0.83098 0.46645 0.79086 0.0
C673 C 0.83792 0.45558 0.72557 0.0
H674 H 0.84889 0.44337 0.88646 0.0
C675 C 0.8657 0.40818 0.70684 0.0
H676 H 0.80889 0.50199 0.8069 0.0
C677 C 0.8892 0.37418 0.75301 0.0
C678 C 0.88504 0.38733 0.8182 0.0
H679 H 0.87133 0.39872 0.65667 0.0
H680 H 0.91245 0.33918 0.73766 0.0
C681 C 0.85409 0.43274 0.83653 0.0
C682 C 0.37361 0.18922 0.30112 0.0
C683 C 0.38715 0.19286 0.23599 0.0
H684 H 0.39774 0.20748 0.39748 0.0
C685 C 0.43298 0.2232 0.21777 0.0
H686 H 0.3383 0.16644 0.31639 0.0
C687 C 0.46664 0.24628 0.26351 0.0
C688 C 0.45531 0.2399 0.32877 0.0
H689 H 0.44396 0.22797 0.16788 0.0
H690 H 0.50248 0.26792 0.24755 0.0
C691 C 0.40757 0.21268 0.34735 0.0
C692 C 0.22278 0.64572 0.83764 0.0
C693 C 0.19198 0.69121 0.81926 0.0
H694 H 0.26791 0.5764 0.80806 0.0
C695 C 0.18798 0.70441 0.75407 0.0
H696 H 0.22784 0.63505 0.88758 0.0
C697 C 0.2115 0.6704 0.70795 0.0
C698 C 0.23914 0.62293 0.7267 0.0
H699 H 0.16482 0.73946 0.73869 0.0
H700 H 0.20599 0.67991 0.65777 0.0
C701 C 0.24593 0.612 0.792 0.0
C702 C 0.64551 0.85453 0.21903 0.0
C703 C 0.69069 0.88574 0.23746 0.0
H704 H 0.5764 0.80904 0.24849 0.0
C705 C 0.70363 0.89006 0.3027 0.0
H706 H 0.63506 0.84921 0.16906 0.0
C707 C 0.66961 0.86647 0.34879 0.0
C708 C 0.62241 0.83846 0.32993 0.0
H709 H 0.73845 0.91351 0.31813 0.0
H710 H 0.67887 0.87225 0.39898 0.0
C711 C 0.61179 0.83133 0.26462 0.0
C712 C 0.88875 0.20469 0.55228 0.0
C713 C 0.88455 0.19168 0.48706 0.0
H714 H 0.87089 0.17997 0.64855 0.0
C715 C 0.85349 0.14638 0.46861 0.0
H716 H 0.91208 0.2396 0.56772 0.0
C717 C 0.83034 0.11262 0.51419 0.0
C718 C 0.83735 0.12332 0.57951 0.0
H719 H 0.84827 0.13587 0.41864 0.0
H720 H 0.80817 0.07715 0.49806 0.0
C721 C 0.8652 0.17064 0.59836 0.0
C722 C 0.11066 0.24699 0.54211 0.0
C723 C 0.1217 0.24031 0.47682 0.0
H724 H 0.13358 0.22882 0.6377 0.0
C725 C 0.16922 0.21276 0.45812 0.0
H726 H 0.07502 0.26891 0.55814 0.0
C727 C 0.20318 0.18922 0.50427 0.0
C728 C 0.18989 0.19312 0.56944 0.0
H729 H 0.17881 0.20732 0.40795 0.0
H730 H 0.23828 0.16614 0.48891 0.0
C731 C 0.14434 0.22384 0.58778 0.0
C732 C 0.22189 0.93374 0.46835 0.0
C733 C 0.19143 0.88798 0.48659 0.0
H734 H 0.26674 1.00318 0.49811 0.0
C735 C 0.18773 0.87448 0.55173 0.0
H736 H 0.22672 0.94468 0.41846 0.0
C737 C 0.21123 0.90842 0.59794 0.0
C738 C 0.23856 0.95611 0.57934 0.0
H739 H 0.16486 0.83921 0.56701 0.0
H740 H 0.20597 0.89864 0.64808 0.0
C741 C 0.24501 0.96739 0.51408 0.0
C742 C 0.96545 0.832 0.54099 0.0
C743 C 0.95457 0.83886 0.47569 0.0
H744 H 0.94239 0.85003 0.63658 0.0
C745 C 0.90718 0.8666 0.45694 0.0
H746 H 1.00099 0.80994 0.55706 0.0
C747 C 0.87318 0.89014 0.50308 0.0
C748 C 0.88634 0.88606 0.56829 0.0
H749 H 0.89771 0.87217 0.40676 0.0
H750 H 0.83818 0.91336 0.48771 0.0
C751 C 0.93175 0.85516 0.58664 0.0
C752 C 0.55673 0.98542 0.04806 0.0
C753 C 0.59436 1.02815 0.04946 0.0
H754 H 0.47315 0.96284 0.0479 0.0
C755 C 0.57605 0.08214 0.04887 0.0
H756 H 0.5699 0.94342 0.04825 0.0
C757 C 0.52077 0.09324 0.04811 0.0
C758 C 0.48314 0.05051 0.04873 0.0
H759 H 0.60436 0.11583 0.04929 0.0
H760 H 0.50758 0.13524 0.04842 0.0
C761 C 0.50145 0.99653 0.04808 0.0
C762 C 0.99546 0.57648 1.00689 0.0
C763 C 0.04942 0.5948 1.0064 0.0
H764 H 0.94237 0.508 1.00686 0.0
C765 C 0.09212 0.55713 1.00746 0.0
H766 H 0.96179 0.60481 1.00673 0.0
C767 C 0.08101 0.50182 1.00699 0.0
C768 C 1.02704 0.48352 1.00625 0.0
H769 H 0.13409 0.57033 1.0073 0.0
H770 H 0.11467 0.47349 1.00691 0.0
C771 C 0.98434 0.52118 1.00721 0.0
C772 C 0.5006 0.58218 0.25721 0.0
C773 C 0.48228 0.52819 0.25639 0.0
H774 H 0.56909 0.63526 0.25767 0.0
C775 C 0.5199 0.48546 0.25738 0.0
H776 H 0.4723 0.61587 0.25711 0.0
C777 C 0.57518 0.49655 0.25717 0.0
C778 C 0.59351 0.55053 0.25675 0.0
H779 H 0.50672 0.44346 0.25699 0.0
H780 H 0.60347 0.46285 0.25703 0.0
C781 C 0.55589 0.59327 0.25778 0.0
C782 C 0.49521 0.5023 0.79831 0.0
C783 C 0.54917 0.48399 0.79896 0.0
H784 H 0.44212 0.5708 0.79846 0.0
C785 C 0.59187 0.52166 0.79837 0.0
H786 H 0.46155 0.47397 0.79812 0.0
C787 C 0.58076 0.57696 0.79912 0.0
C788 C 0.5268 0.59527 0.79968 0.0
H789 H 0.63385 0.50848 0.79868 0.0
H790 H 0.61443 0.60528 0.79954 0.0
C791 C 0.4841 0.55761 0.79827 0.0
C792 C 0.0566 0.48527 0.54807 0.0
C793 C 0.09423 0.52801 0.54933 0.0
H794 H 0.97302 0.46267 0.5481 0.0
C795 C 0.07591 0.58199 0.54867 0.0
H796 H 0.0698 0.44328 0.54833 0.0
C797 C 1.02063 0.59308 0.54799 0.0
C798 C 0.983 0.55035 0.54875 0.0
H799 H 0.1042 0.61569 0.54897 0.0
H800 H 1.00743 0.63508 0.54823 0.0
C801 C 1.00132 0.49636 0.54817 0.0
C802 C 0.49577 0.07656 0.5068 0.0
C803 C 0.54974 0.09487 0.50634 0.0
H804 H 0.44269 1.00808 0.50694 0.0
C805 C 0.59244 0.05722 0.50766 0.0
H806 H 0.4621 0.10487 0.50646 0.0
C807 C 0.58133 1.00191 0.5074 0.0
C808 C 0.52737 0.9836 0.50662 0.0
H809 H 0.63441 0.07041 0.50754 0.0
H810 H 0.61499 0.97358 0.50751 0.0
C811 C 0.48467 1.02126 0.50733 0.0
C812 C 0.07528 0.99653 0.75704 0.0
C813 C 0.09361 0.05051 0.75663 0.0
H814 H 1.00682 0.94343 0.75691 0.0
C815 C 0.05598 0.09325 0.75773 0.0
H816 H 0.10358 0.96283 0.75685 0.0
C817 C 1.00069 0.08215 0.75722 0.0
C818 C 0.98238 1.02816 0.7564 0.0
H819 H 0.06917 0.13524 0.75764 0.0
H820 H 0.97239 0.11584 0.75718 0.0
C821 C 1.02001 0.98543 0.75732 0.0
C822 C 0.08096 0.07695 0.29886 0.0
C823 C 1.027 0.09526 0.29944 0.0
H824 H 0.13404 1.00846 0.2985 0.0
C825 C 0.9843 0.0576 0.29814 0.0
H826 H 0.11463 0.10527 0.29919 0.0
C827 C 0.99541 1.00229 0.29827 0.0
C828 C 0.04937 0.98399 0.29892 0.0
H829 H 0.94232 0.07079 0.29835 0.0
H830 H 0.96174 0.97397 0.29818 0.0
C831 C 0.09207 1.02165 0.2982 0.0
loop_
_geom_bond_atom_site_label_1
_geom_bond_atom_site_label_2
_geom_bond_distance
_geom_bond_site_symmetry_2
_ccdc_geom_bond_type
Fe0 O2 1.918 . S
Fe0 O5 1.997 . S
Fe0 O6 2.002 1_545 S
Fe0 O11 1.976 . S
Fe0 O14 1.996 . S
Fe1 O2 1.918 1_565 S
Fe1 O9 1.997 . S
Fe1 O12 1.996 . S
Fe1 O16 1.976 1_564 S
Fe1 O19 2.002 1_554 S
O2 Fe0 1.918 . S
O2 Fe1 1.918 1_545 S
O2 Fe3 1.918 . S
Fe3 O2 1.918 . S
Fe3 O4 2.002 . S
Fe3 O13 1.976 . S
Fe3 O17 1.996 1_554 S
Fe3 O20 1.997 . S
O4 Fe3 2.002 . S
O4 C21 1.295 . S
O5 Fe0 1.997 . S
O5 C21 1.235 . S
O6 Fe0 2.002 1_565 S
O6 C7 1.295 . S
C7 O6 1.295 . S
C7 O9 1.235 . S
C8 O13 1.287 . S
C8 O14 1.255 . S
O9 Fe1 1.997 . S
O9 C7 1.235 . S
C10 O16 1.287 . S
C10 O17 1.255 . S
O11 Fe0 1.976 . S
O11 C18 1.287 . S
O12 Fe1 1.996 . S
O12 C18 1.255 1_565 S
O13 Fe3 1.976 . S
O13 C8 1.287 . S
O14 Fe0 1.996 . S
O14 C8 1.255 . S
C15 O19 1.295 1_544 S
C15 O20 1.235 . S
O16 Fe1 1.976 1_546 S
O16 C10 1.287 . S
O17 Fe3 1.996 1_556 S
O17 C10 1.255 . S
C18 O11 1.287 . S
C18 O12 1.255 1_545 S
O19 Fe1 2.002 1_556 S
O19 C15 1.295 1_566 S
O20 Fe3 1.997 . S
O20 C15 1.235 . S
C21 O4 1.295 . S
C21 O5 1.235 . S
Fe22 O24 1.918 1_655 S
Fe22 O27 1.997 1_556 S
Fe22 O28 2.002 . S
Fe22 O33 1.976 . S
Fe22 O36 1.996 1_656 S
Fe23 O24 1.918 . S
Fe23 O31 1.997 1_455 S
Fe23 O34 1.996 . S
Fe23 O38 1.976 . S
Fe23 O41 2.002 . S
O24 Fe22 1.918 1_455 S
O24 Fe23 1.918 . S
O24 Fe25 1.918 . S
Fe25 O24 1.918 . S
Fe25 O26 2.002 . S
Fe25 O35 1.976 1_556 S
Fe25 O39 1.996 . S
Fe25 O42 1.997 . S
O26 Fe25 2.002 . S
O26 C43 1.295 . S
O27 Fe22 1.997 1_554 S
O27 C43 1.235 1_654 S
O28 Fe22 2.002 . S
O28 C29 1.295 . S
C29 O28 1.295 . S
C29 O31 1.235 . S
C30 O35 1.287 . S
C30 O36 1.255 . S
O31 Fe23 1.997 1_655 S
O31 C29 1.235 . S
C32 O38 1.287 . S
C32 O39 1.255 . S
O33 Fe22 1.976 . S
O33 C40 1.287 1_655 S
O34 Fe23 1.996 . S
O34 C40 1.255 . S
O35 Fe25 1.976 1_554 S
O35 C30 1.287 . S
O36 Fe22 1.996 1_454 S
O36 C30 1.255 . S
C37 O41 1.295 . S
C37 O42 1.235 . S
O38 Fe23 1.976 . S
O38 C32 1.287 . S
O39 Fe25 1.996 . S
O39 C32 1.255 . S
C40 O33 1.287 1_455 S
C40 O34 1.255 . S
O41 Fe23 2.002 . S
O41 C37 1.295 . S
O42 Fe25 1.997 . S
O42 C37 1.235 . S
C43 O26 1.295 . S
C43 O27 1.235 1_456 S
Fe44 O46 1.918 . S
Fe44 O49 1.997 . S
Fe44 O50 2.002 1_565 S
Fe44 O55 1.976 . S
Fe44 O58 1.996 . S
Fe45 O46 1.918 1_545 S
Fe45 O53 1.997 . S
Fe45 O56 1.996 . S
Fe45 O60 1.976 1_544 S
Fe45 O63 2.002 1_554 S
O46 Fe44 1.918 . S
O46 Fe45 1.918 1_565 S
O46 Fe47 1.918 . S
Fe47 O46 1.918 . S
Fe47 O48 2.002 . S
Fe47 O57 1.976 . S
Fe47 O61 1.996 1_554 S
Fe47 O64 1.997 . S
O48 Fe47 2.002 . S
O48 C65 1.295 . S
O49 Fe44 1.997 . S
O49 C65 1.235 . S
O50 Fe44 2.002 1_545 S
O50 C51 1.295 . S
C51 O50 1.295 . S
C51 O53 1.235 . S
C52 O57 1.287 . S
C52 O58 1.255 . S
O53 Fe45 1.997 . S
O53 C51 1.235 . S
C54 O60 1.287 . S
C54 O61 1.255 . S
O55 Fe44 1.976 . S
O55 C62 1.287 . S
O56 Fe45 1.996 . S
O56 C62 1.255 1_545 S
O57 Fe47 1.976 . S
O57 C52 1.287 . S
O58 Fe44 1.996 . S
O58 C52 1.255 . S
C59 O63 1.295 1_564 S
C59 O64 1.235 . S
O60 Fe45 1.976 1_566 S
O60 C54 1.287 . S
O61 Fe47 1.996 1_556 S
O61 C54 1.255 . S
C62 O55 1.287 . S
C62 O56 1.255 1_565 S
O63 Fe45 2.002 1_556 S
O63 C59 1.295 1_546 S
O64 Fe47 1.997 . S
O64 C59 1.235 . S
C65 O48 1.295 . S
C65 O49 1.235 . S
Fe66 O68 1.918 1_455 S
Fe66 O71 1.997 1_556 S
Fe66 O72 2.002 . S
Fe66 O77 1.976 . S
Fe66 O80 1.996 1_456 S
Fe67 O68 1.918 . S
Fe67 O75 1.997 1_655 S
Fe67 O78 1.996 . S
Fe67 O82 1.976 . S
Fe67 O85 2.002 . S
O68 Fe66 1.918 1_655 S
O68 Fe67 1.918 . S
O68 Fe69 1.918 . S
Fe69 O68 1.918 . S
Fe69 O70 2.002 . S
Fe69 O79 1.976 1_556 S
Fe69 O83 1.996 . S
Fe69 O86 1.997 . S
O70 Fe69 2.002 . S
O70 C87 1.295 . S
O71 Fe66 1.997 1_554 S
O71 C87 1.235 1_454 S
O72 Fe66 2.002 . S
O72 C73 1.295 . S
C73 O72 1.295 . S
C73 O75 1.235 . S
C74 O79 1.287 . S
C74 O80 1.255 . S
O75 Fe67 1.997 1_455 S
O75 C73 1.235 . S
C76 O82 1.287 . S
C76 O83 1.255 . S
O77 Fe66 1.976 . S
O77 C84 1.287 1_455 S
O78 Fe67 1.996 . S
O78 C84 1.255 . S
O79 Fe69 1.976 1_554 S
O79 C74 1.287 . S
O80 Fe66 1.996 1_654 S
O80 C74 1.255 . S
C81 O85 1.295 . S
C81 O86 1.235 . S
O82 Fe67 1.976 . S
O82 C76 1.287 . S
O83 Fe69 1.996 . S
O83 C76 1.255 . S
C84 O77 1.287 1_655 S
C84 O78 1.255 . S
O85 Fe67 2.002 . S
O85 C81 1.295 . S
O86 Fe69 1.997 . S
O86 C81 1.235 . S
C87 O70 1.295 . S
C87 O71 1.235 1_656 S
Fe88 O90 1.918 . S
Fe88 O93 1.997 . S
Fe88 O94 2.002 . S
Fe88 O99 1.976 . S
Fe88 O102 1.996 . S
Fe89 O90 1.918 . S
Fe89 O97 1.997 . S
Fe89 O100 1.996 . S
Fe89 O104 1.976 . S
Fe89 O107 2.002 . S
O90 Fe88 1.918 . S
O90 Fe89 1.918 . S
O90 Fe91 1.918 . S
Fe91 O90 1.918 . S
Fe91 O92 2.002 . S
Fe91 O101 1.976 . S
Fe91 O105 1.996 . S
Fe91 O108 1.997 . S
O92 Fe91 2.002 . S
O92 C109 1.295 . S
O93 Fe88 1.997 . S
O93 C109 1.235 . S
O94 Fe88 2.002 . S
O94 C95 1.295 . S
C95 O94 1.295 . S
C95 O97 1.235 . S
C96 O101 1.287 . S
C96 O102 1.255 . S
O97 Fe89 1.997 . S
O97 C95 1.235 . S
C98 O104 1.287 . S
C98 O105 1.255 . S
O99 Fe88 1.976 . S
O99 C106 1.287 . S
O100 Fe89 1.996 . S
O100 C106 1.255 . S
O101 Fe91 1.976 . S
O101 C96 1.287 . S
O102 Fe88 1.996 . S
O102 C96 1.255 . S
C103 O107 1.295 . S
C103 O108 1.235 . S
O104 Fe89 1.976 . S
O104 C98 1.287 . S
O105 Fe91 1.996 . S
O105 C98 1.255 . S
C106 O99 1.287 . S
C106 O100 1.255 . S
O107 Fe89 2.002 . S
O107 C103 1.295 . S
O108 Fe91 1.997 . S
O108 C103 1.235 . S
C109 O92 1.295 . S
C109 O93 1.235 . S
Fe110 O112 1.918 . S
Fe110 O115 1.997 . S
Fe110 O116 2.002 . S
Fe110 O121 1.976 . S
Fe110 O124 1.996 . S
Fe111 O112 1.918 . S
Fe111 O119 1.997 . S
Fe111 O122 1.996 . S
Fe111 O126 1.976 . S
Fe111 O129 2.002 . S
O112 Fe110 1.918 . S
O112 Fe111 1.918 . S
O112 Fe113 1.918 . S
Fe113 O112 1.918 . S
Fe113 O114 2.002 . S
Fe113 O123 1.976 . S
Fe113 O127 1.996 . S
Fe113 O130 1.997 . S
O114 Fe113 2.002 . S
O114 C131 1.295 . S
O115 Fe110 1.997 . S
O115 C131 1.235 . S
O116 Fe110 2.002 . S
O116 C117 1.295 . S
C117 O116 1.295 . S
C117 O119 1.235 . S
C118 O123 1.287 . S
C118 O124 1.255 . S
O119 Fe111 1.997 . S
O119 C117 1.235 . S
C120 O126 1.287 . S
C120 O127 1.255 . S
O121 Fe110 1.976 . S
O121 C128 1.287 . S
O122 Fe111 1.996 . S
O122 C128 1.255 . S
O123 Fe113 1.976 . S
O123 C118 1.287 . S
O124 Fe110 1.996 . S
O124 C118 1.255 . S
C125 O129 1.295 . S
C125 O130 1.235 . S
O126 Fe111 1.976 . S
O126 C120 1.287 . S
O127 Fe113 1.996 . S
O127 C120 1.255 . S
C128 O121 1.287 . S
C128 O122 1.255 . S
O129 Fe111 2.002 . S
O129 C125 1.295 . S
O130 Fe113 1.997 . S
O130 C125 1.235 . S
C131 O114 1.295 . S
C131 O115 1.235 . S
Fe132 O134 1.918 . S
Fe132 O137 1.997 . S
Fe132 O138 2.002 . S
Fe132 O143 1.976 . S
Fe132 O146 1.996 . S
Fe133 O134 1.918 . S
Fe133 O141 1.997 . S
Fe133 O144 1.996 . S
Fe133 O148 1.976 . S
Fe133 O151 2.002 . S
O134 Fe132 1.918 . S
O134 Fe133 1.918 . S
O134 Fe135 1.918 . S
Fe135 O134 1.918 . S
Fe135 O136 2.002 . S
Fe135 O145 1.976 . S
Fe135 O149 1.996 . S
Fe135 O152 1.997 . S
O136 Fe135 2.002 . S
O136 C153 1.295 . S
O137 Fe132 1.997 . S
O137 C153 1.235 . S
O138 Fe132 2.002 . S
O138 C139 1.295 . S
C139 O138 1.295 . S
C139 O141 1.235 . S
C140 O145 1.287 . S
C140 O146 1.255 . S
O141 Fe133 1.997 . S
O141 C139 1.235 . S
C142 O148 1.287 . S
C142 O149 1.255 . S
O143 Fe132 1.976 . S
O143 C150 1.287 . S
O144 Fe133 1.996 . S
O144 C150 1.255 . S
O145 Fe135 1.976 . S
O145 C140 1.287 . S
O146 Fe132 1.996 . S
O146 C140 1.255 . S
C147 O151 1.295 . S
C147 O152 1.235 . S
O148 Fe133 1.976 . S
O148 C142 1.287 . S
O149 Fe135 1.996 . S
O149 C142 1.255 . S
C150 O143 1.287 . S
C150 O144 1.255 . S
O151 Fe133 2.002 . S
O151 C147 1.295 . S
O152 Fe135 1.997 . S
O152 C147 1.235 . S
C153 O136 1.295 . S
C153 O137 1.235 . S
Fe154 O156 1.918 . S
Fe154 O159 1.997 . S
Fe154 O160 2.002 . S
Fe154 O165 1.976 . S
Fe154 O168 1.996 . S
Fe155 O156 1.918 . S
Fe155 O163 1.997 . S
Fe155 O166 1.996 . S
Fe155 O170 1.976 . S
Fe155 O173 2.002 . S
O156 Fe154 1.918 . S
O156 Fe155 1.918 . S
O156 Fe157 1.918 . S
Fe157 O156 1.918 . S
Fe157 O158 2.002 . S
Fe157 O167 1.976 . S
Fe157 O171 1.996 . S
Fe157 O174 1.997 . S
O158 Fe157 2.002 . S
O158 C175 1.295 . S
O159 Fe154 1.997 . S
O159 C175 1.235 . S
O160 Fe154 2.002 . S
O160 C161 1.295 . S
C161 O160 1.295 . S
C161 O163 1.235 . S
C162 O167 1.287 . S
C162 O168 1.255 . S
O163 Fe155 1.997 . S
O163 C161 1.235 . S
C164 O170 1.287 . S
C164 O171 1.255 . S
O165 Fe154 1.976 . S
O165 C172 1.287 . S
O166 Fe155 1.996 . S
O166 C172 1.255 . S
O167 Fe157 1.976 . S
O167 C162 1.287 . S
O168 Fe154 1.996 . S
O168 C162 1.255 . S
C169 O173 1.295 . S
C169 O174 1.235 . S
O170 Fe155 1.976 . S
O170 C164 1.287 . S
O171 Fe157 1.996 . S
O171 C164 1.255 . S
C172 O165 1.287 . S
C172 O166 1.255 . S
O173 Fe155 2.002 . S
O173 C169 1.295 . S
O174 Fe157 1.997 . S
O174 C169 1.235 . S
C175 O158 1.295 . S
C175 O159 1.235 . S
Fe176 O178 1.918 . S
Fe176 O181 1.997 . S
Fe176 O182 2.002 . S
Fe176 O187 1.976 . S
Fe176 O190 1.996 . S
Fe177 O178 1.918 . S
Fe177 O185 1.997 . S
Fe177 O188 1.996 . S
Fe177 O192 1.976 . S
Fe177 O195 2.002 . S
O178 Fe176 1.918 . S
O178 Fe177 1.918 . S
O178 Fe179 1.918 . S
Fe179 O178 1.918 . S
Fe179 O180 2.002 . S
Fe179 O189 1.976 . S
Fe179 O193 1.996 . S
Fe179 O196 1.997 . S
O180 Fe179 2.002 . S
O180 C197 1.295 . S
O181 Fe176 1.997 . S
O181 C197 1.235 . S
O182 Fe176 2.002 . S
O182 C183 1.295 . S
C183 O182 1.295 . S
C183 O185 1.235 . S
C184 O189 1.287 . S
C184 O190 1.255 . S
O185 Fe177 1.997 . S
O185 C183 1.235 . S
C186 O192 1.287 . S
C186 O193 1.255 . S
O187 Fe176 1.976 . S
O187 C194 1.287 . S
O188 Fe177 1.996 . S
O188 C194 1.255 . S
O189 Fe179 1.976 . S
O189 C184 1.287 . S
O190 Fe176 1.996 . S
O190 C184 1.255 . S
C191 O195 1.295 . S
C191 O196 1.235 . S
O192 Fe177 1.976 . S
O192 C186 1.287 . S
O193 Fe179 1.996 . S
O193 C186 1.255 . S
C194 O187 1.287 . S
C194 O188 1.255 . S
O195 Fe177 2.002 . S
O195 C191 1.295 . S
O196 Fe179 1.997 . S
O196 C191 1.235 . S
C197 O180 1.295 . S
C197 O181 1.235 . S
Fe198 O200 1.918 . S
Fe198 O203 1.997 . S
Fe198 O204 2.002 . S
Fe198 O209 1.976 . S
Fe198 O212 1.996 . S
Fe199 O200 1.918 . S
Fe199 O207 1.997 . S
Fe199 O210 1.996 . S
Fe199 O214 1.976 . S
Fe199 O217 2.002 . S
O200 Fe198 1.918 . S
O200 Fe199 1.918 . S
O200 Fe201 1.918 . S
Fe201 O200 1.918 . S
Fe201 O202 2.002 . S
Fe201 O211 1.976 . S
Fe201 O215 1.996 . S
Fe201 O218 1.997 . S
O202 Fe201 2.002 . S
O202 C219 1.295 . S
O203 Fe198 1.997 . S
O203 C219 1.235 . S
O204 Fe198 2.002 . S
O204 C205 1.295 . S
C205 O204 1.295 . S
C205 O207 1.235 . S
C206 O211 1.287 . S
C206 O212 1.255 . S
O207 Fe199 1.997 . S
O207 C205 1.235 . S
C208 O214 1.287 . S
C208 O215 1.255 . S
O209 Fe198 1.976 . S
O209 C216 1.287 . S
O210 Fe199 1.996 . S
O210 C216 1.255 . S
O211 Fe201 1.976 . S
O211 C206 1.287 . S
O212 Fe198 1.996 . S
O212 C206 1.255 . S
C213 O217 1.295 . S
C213 O218 1.235 . S
O214 Fe199 1.976 . S
O214 C208 1.287 . S
O215 Fe201 1.996 . S
O215 C208 1.255 . S
C216 O209 1.287 . S
C216 O210 1.255 . S
O217 Fe199 2.002 . S
O217 C213 1.295 . S
O218 Fe201 1.997 . S
O218 C213 1.235 . S
C219 O202 1.295 . S
C219 O203 1.235 . S
Fe220 O222 1.918 . S
Fe220 O225 1.997 . S
Fe220 O226 2.002 . S
Fe220 O231 1.976 . S
Fe220 O234 1.996 . S
Fe221 O222 1.918 . S
Fe221 O229 1.997 . S
Fe221 O232 1.996 . S
Fe221 O236 1.976 . S
Fe221 O239 2.002 . S
O222 Fe220 1.918 . S
O222 Fe221 1.918 . S
O222 Fe223 1.918 . S
Fe223 O222 1.918 . S
Fe223 O224 2.002 . S
Fe223 O233 1.976 . S
Fe223 O237 1.996 . S
Fe223 O240 1.997 . S
O224 Fe223 2.002 . S
O224 C241 1.295 . S
O225 Fe220 1.997 . S
O225 C241 1.235 . S
O226 Fe220 2.002 . S
O226 C227 1.295 . S
C227 O226 1.295 . S
C227 O229 1.235 . S
C228 O233 1.287 . S
C228 O234 1.255 . S
O229 Fe221 1.997 . S
O229 C227 1.235 . S
C230 O236 1.287 . S
C230 O237 1.255 . S
O231 Fe220 1.976 . S
O231 C238 1.287 . S
O232 Fe221 1.996 . S
O232 C238 1.255 . S
O233 Fe223 1.976 . S
O233 C228 1.287 . S
O234 Fe220 1.996 . S
O234 C228 1.255 . S
C235 O239 1.295 . S
C235 O240 1.235 . S
O236 Fe221 1.976 . S
O236 C230 1.287 . S
O237 Fe223 1.996 . S
O237 C230 1.255 . S
C238 O231 1.287 . S
C238 O232 1.255 . S
O239 Fe221 2.002 . S
O239 C235 1.295 . S
O240 Fe223 1.997 . S
O240 C235 1.235 . S
C241 O224 1.295 . S
C241 O225 1.235 . S
Fe242 O244 1.918 . S
Fe242 O247 1.997 . S
Fe242 O248 2.002 . S
Fe242 O253 1.976 . S
Fe242 O256 1.996 . S
Fe243 O244 1.918 . S
Fe243 O251 1.997 . S
Fe243 O254 1.996 . S
Fe243 O258 1.976 . S
Fe243 O261 2.002 . S
O244 Fe242 1.918 . S
O244 Fe243 1.918 . S
O244 Fe245 1.918 . S
Fe245 O244 1.918 . S
Fe245 O246 2.002 . S
Fe245 O255 1.976 . S
Fe245 O259 1.996 . S
Fe245 O262 1.997 . S
O246 Fe245 2.002 . S
O246 C263 1.295 . S
O247 Fe242 1.997 . S
O247 C263 1.235 . S
O248 Fe242 2.002 . S
O248 C249 1.295 . S
C249 O248 1.295 . S
C249 O251 1.235 . S
C250 O255 1.287 . S
C250 O256 1.255 . S
O251 Fe243 1.997 . S
O251 C249 1.235 . S
C252 O258 1.287 . S
C252 O259 1.255 . S
O253 Fe242 1.976 . S
O253 C260 1.287 . S
O254 Fe243 1.996 . S
O254 C260 1.255 . S
O255 Fe245 1.976 . S
O255 C250 1.287 . S
O256 Fe242 1.996 . S
O256 C250 1.255 . S
C257 O261 1.295 . S
C257 O262 1.235 . S
O258 Fe243 1.976 . S
O258 C252 1.287 . S
O259 Fe245 1.996 . S
O259 C252 1.255 . S
C260 O253 1.287 . S
C260 O254 1.255 . S
O261 Fe243 2.002 . S
O261 C257 1.295 . S
O262 Fe245 1.997 . S
O262 C257 1.235 . S
C263 O246 1.295 . S
C263 O247 1.235 . S
Fe264 O266 1.918 . S
Fe264 O269 1.997 . S
Fe264 O270 2.002 1_565 S
Fe264 O275 1.976 . S
Fe264 O278 1.996 . S
Fe265 O266 1.918 1_545 S
Fe265 O273 1.997 . S
Fe265 O276 1.996 . S
Fe265 O280 1.976 1_545 S
Fe265 O283 2.002 . S
O266 Fe264 1.918 . S
O266 Fe265 1.918 1_565 S
O266 Fe267 1.918 . S
Fe267 O266 1.918 . S
Fe267 O268 2.002 . S
Fe267 O277 1.976 . S
Fe267 O281 1.996 . S
Fe267 O284 1.997 . S
O268 Fe267 2.002 . S
O268 C285 1.295 . S
O269 Fe264 1.997 . S
O269 C285 1.235 . S
O270 Fe264 2.002 1_545 S
O270 C271 1.295 . S
C271 O270 1.295 . S
C271 O273 1.235 . S
C272 O277 1.287 . S
C272 O278 1.255 . S
O273 Fe265 1.997 . S
O273 C271 1.235 . S
C274 O280 1.287 . S
C274 O281 1.255 . S
O275 Fe264 1.976 . S
O275 C282 1.287 . S
O276 Fe265 1.996 . S
O276 C282 1.255 1_545 S
O277 Fe267 1.976 . S
O277 C272 1.287 . S
O278 Fe264 1.996 . S
O278 C272 1.255 . S
C279 O283 1.295 1_565 S
C279 O284 1.235 . S
O280 Fe265 1.976 1_565 S
O280 C274 1.287 . S
O281 Fe267 1.996 . S
O281 C274 1.255 . S
C282 O275 1.287 . S
C282 O276 1.255 1_565 S
O283 Fe265 2.002 . S
O283 C279 1.295 1_545 S
O284 Fe267 1.997 . S
O284 C279 1.235 . S
C285 O268 1.295 . S
C285 O269 1.235 . S
Fe286 O288 1.918 1_455 S
Fe286 O291 1.997 . S
Fe286 O292 2.002 . S
Fe286 O297 1.976 . S
Fe286 O300 1.996 1_455 S
Fe287 O288 1.918 . S
Fe287 O295 1.997 1_655 S
Fe287 O298 1.996 . S
Fe287 O302 1.976 . S
Fe287 O305 2.002 . S
O288 Fe286 1.918 1_655 S
O288 Fe287 1.918 . S
O288 Fe289 1.918 . S
Fe289 O288 1.918 . S
Fe289 O290 2.002 . S
Fe289 O299 1.976 . S
Fe289 O303 1.996 . S
Fe289 O306 1.997 . S
O290 Fe289 2.002 . S
O290 C307 1.295 . S
O291 Fe286 1.997 . S
O291 C307 1.235 1_455 S
O292 Fe286 2.002 . S
O292 C293 1.295 . S
C293 O292 1.295 . S
C293 O295 1.235 . S
C294 O299 1.287 . S
C294 O300 1.255 . S
O295 Fe287 1.997 1_455 S
O295 C293 1.235 . S
C296 O302 1.287 . S
C296 O303 1.255 . S
O297 Fe286 1.976 . S
O297 C304 1.287 1_455 S
O298 Fe287 1.996 . S
O298 C304 1.255 . S
O299 Fe289 1.976 . S
O299 C294 1.287 . S
O300 Fe286 1.996 1_655 S
O300 C294 1.255 . S
C301 O305 1.295 . S
C301 O306 1.235 . S
O302 Fe287 1.976 . S
O302 C296 1.287 . S
O303 Fe289 1.996 . S
O303 C296 1.255 . S
C304 O297 1.287 1_655 S
C304 O298 1.255 . S
O305 Fe287 2.002 . S
O305 C301 1.295 . S
O306 Fe289 1.997 . S
O306 C301 1.235 . S
C307 O290 1.295 . S
C307 O291 1.235 1_655 S
Fe308 O310 1.918 . S
Fe308 O313 1.997 . S
Fe308 O314 2.002 1_545 S
Fe308 O319 1.976 . S
Fe308 O322 1.996 . S
Fe309 O310 1.918 1_565 S
Fe309 O317 1.997 . S
Fe309 O320 1.996 . S
Fe309 O324 1.976 1_565 S
Fe309 O327 2.002 . S
O310 Fe308 1.918 . S
O310 Fe309 1.918 1_545 S
O310 Fe311 1.918 . S
Fe311 O310 1.918 . S
Fe311 O312 2.002 . S
Fe311 O321 1.976 . S
Fe311 O325 1.996 . S
Fe311 O328 1.997 . S
O312 Fe311 2.002 . S
O312 C329 1.295 . S
O313 Fe308 1.997 . S
O313 C329 1.235 . S
O314 Fe308 2.002 1_565 S
O314 C315 1.295 . S
C315 O314 1.295 . S
C315 O317 1.235 . S
C316 O321 1.287 . S
C316 O322 1.255 . S
O317 Fe309 1.997 . S
O317 C315 1.235 . S
C318 O324 1.287 . S
C318 O325 1.255 . S
O319 Fe308 1.976 . S
O319 C326 1.287 . S
O320 Fe309 1.996 . S
O320 C326 1.255 1_565 S
O321 Fe311 1.976 . S
O321 C316 1.287 . S
O322 Fe308 1.996 . S
O322 C316 1.255 . S
C323 O327 1.295 1_545 S
C323 O328 1.235 . S
O324 Fe309 1.976 1_545 S
O324 C318 1.287 . S
O325 Fe311 1.996 . S
O325 C318 1.255 . S
C326 O319 1.287 . S
C326 O320 1.255 1_545 S
O327 Fe309 2.002 . S
O327 C323 1.295 1_565 S
O328 Fe311 1.997 . S
O328 C323 1.235 . S
C329 O312 1.295 . S
C329 O313 1.235 . S
Fe330 O332 1.918 . S
Fe330 O335 1.997 . S
Fe330 O336 2.002 . S
Fe330 O341 1.976 . S
Fe330 O344 1.996 . S
Fe331 O332 1.918 1_655 S
Fe331 O339 1.997 . S
Fe331 O342 1.996 1_655 S
Fe331 O346 1.976 . S
Fe331 O349 2.002 . S
O332 Fe330 1.918 . S
O332 Fe331 1.918 1_455 S
O332 Fe333 1.918 . S
Fe333 O332 1.918 . S
Fe333 O334 2.002 . S
Fe333 O343 1.976 . S
Fe333 O347 1.996 . S
Fe333 O350 1.997 1_455 S
O334 Fe333 2.002 . S
O334 C351 1.295 . S
O335 Fe330 1.997 . S
O335 C351 1.235 . S
O336 Fe330 2.002 . S
O336 C337 1.295 . S
C337 O336 1.295 . S
C337 O339 1.235 1_455 S
C338 O343 1.287 . S
C338 O344 1.255 . S
O339 Fe331 1.997 . S
O339 C337 1.235 1_655 S
C340 O346 1.287 1_455 S
C340 O347 1.255 . S
O341 Fe330 1.976 . S
O341 C348 1.287 . S
O342 Fe331 1.996 1_455 S
O342 C348 1.255 . S
O343 Fe333 1.976 . S
O343 C338 1.287 . S
O344 Fe330 1.996 . S
O344 C338 1.255 . S
C345 O349 1.295 . S
C345 O350 1.235 . S
O346 Fe331 1.976 . S
O346 C340 1.287 1_655 S
O347 Fe333 1.996 . S
O347 C340 1.255 . S
C348 O341 1.287 . S
C348 O342 1.255 . S
O349 Fe331 2.002 . S
O349 C345 1.295 . S
O350 Fe333 1.997 1_655 S
O350 C345 1.235 . S
C351 O334 1.295 . S
C351 O335 1.235 . S
C352 C353 1.387 . S
C352 H356 0.950 . S
C352 C361 1.390 . S
C353 C352 1.387 . S
C353 C355 1.387 . S
H354 C361 0.950 . S
C355 C353 1.387 . S
C355 C357 1.390 . S
C355 H359 0.950 . S
H356 C352 0.950 . S
C357 C355 1.390 . S
C357 C358 1.387 . S
C357 H360 0.953 . S
C358 C357 1.387 . S
C358 C361 1.387 . S
H359 C355 0.950 . S
H360 C357 0.953 . S
C361 C352 1.390 . S
C361 H354 0.950 . S
C361 C358 1.387 . S
C362 C363 1.387 . S
C362 H366 0.950 . S
C362 C371 1.390 . S
C363 C362 1.387 . S
C363 C365 1.387 . S
H364 C371 0.950 . S
C365 C363 1.387 . S
C365 C367 1.390 . S
C365 H369 0.950 . S
H366 C362 0.950 . S
C367 C365 1.390 . S
C367 C368 1.387 . S
C367 H370 0.950 . S
C368 C367 1.387 . S
C368 C371 1.387 . S
H369 C365 0.950 . S
H370 C367 0.950 . S
C371 C362 1.390 . S
C371 H364 0.950 . S
C371 C368 1.387 . S
C372 C373 1.387 . S
C372 H376 0.950 . S
C372 C381 1.390 . S
C373 C372 1.387 . S
C373 C375 1.387 . S
H374 C381 0.950 . S
C375 C373 1.387 . S
C375 C377 1.390 . S
C375 H379 0.950 . S
H376 C372 0.950 . S
C377 C375 1.390 . S
C377 C378 1.387 . S
C377 H380 0.950 . S
C378 C377 1.387 . S
C378 C381 1.387 . S
H379 C375 0.950 . S
H380 C377 0.950 . S
C381 C372 1.390 . S
C381 H374 0.950 . S
C381 C378 1.387 . S
C382 C383 1.387 . S
C382 H386 0.950 1_556 S
C382 C391 1.390 . S
C383 C382 1.387 . S
C383 C385 1.387 . S
H384 C391 0.950 . S
C385 C383 1.387 . S
C385 C387 1.390 . S
C385 H389 0.950 . S
H386 C382 0.950 1_554 S
C387 C385 1.390 . S
C387 C388 1.387 . S
C387 H390 0.950 . S
C388 C387 1.387 . S
C388 C391 1.387 . S
H389 C385 0.950 . S
H390 C387 0.950 . S
C391 C382 1.390 . S
C391 H384 0.950 . S
C391 C388 1.387 . S
C392 C393 1.387 . S
C392 H396 0.950 . S
C392 C401 1.390 . S
C393 C392 1.387 . S
C393 C395 1.387 . S
H394 C401 0.950 . S
C395 C393 1.387 . S
C395 C397 1.390 . S
C395 H399 0.950 . S
H396 C392 0.950 . S
C397 C395 1.390 . S
C397 C398 1.387 . S
C397 H400 0.950 . S
C398 C397 1.387 . S
C398 C401 1.387 . S
H399 C395 0.950 . S
H400 C397 0.950 . S
C401 C392 1.390 . S
C401 H394 0.950 . S
C401 C398 1.387 . S
C402 C403 1.387 . S
C402 H406 0.950 . S
C402 C411 1.390 . S
C403 C402 1.387 . S
C403 C405 1.387 . S
H404 C411 0.950 . S
C405 C403 1.387 . S
C405 C407 1.390 . S
C405 H409 0.950 . S
H406 C402 0.950 . S
C407 C405 1.390 . S
C407 C408 1.387 . S
C407 H410 0.950 . S
C408 C407 1.387 . S
C408 C411 1.387 . S
H409 C405 0.950 . S
H410 C407 0.950 . S
C411 C402 1.390 . S
C411 H404 0.950 . S
C411 C408 1.387 . S
C412 C413 1.387 . S
C412 H416 0.950 . S
C412 C421 1.390 . S
C413 C412 1.387 . S
C413 C415 1.387 . S
H414 C421 0.950 . S
C415 C413 1.387 . S
C415 C417 1.390 . S
C415 H419 0.950 . S
H416 C412 0.950 . S
C417 C415 1.390 . S
C417 C418 1.387 . S
C417 H420 0.950 . S
C418 C417 1.387 . S
C418 C421 1.387 . S
H419 C415 0.950 . S
H420 C417 0.950 . S
C421 C412 1.390 . S
C421 H414 0.950 . S
C421 C418 1.387 . S
C422 C423 1.387 . S
C422 H426 0.950 . S
C422 C431 1.390 . S
C423 C422 1.387 . S
C423 C425 1.387 . S
H424 C431 0.950 . S
C425 C423 1.387 . S
C425 C427 1.390 . S
C425 H429 0.950 . S
H426 C422 0.950 . S
C427 C425 1.390 . S
C427 C428 1.387 . S
C427 H430 0.950 . S
C428 C427 1.387 . S
C428 C431 1.387 . S
H429 C425 0.950 . S
H430 C427 0.950 . S
C431 C422 1.390 . S
C431 H424 0.950 . S
C431 C428 1.387 . S
C432 C433 1.387 . S
C432 H436 0.950 . S
C432 C441 1.390 . S
C433 C432 1.387 . S
C433 C435 1.387 . S
H434 C441 0.950 . S
C435 C433 1.387 . S
C435 C437 1.390 . S
C435 H439 0.950 . S
H436 C432 0.950 . S
C437 C435 1.390 . S
C437 C438 1.387 . S
C437 H440 0.950 . S
C438 C437 1.387 . S
C438 C441 1.387 . S
H439 C435 0.950 . S
H440 C437 0.950 . S
C441 C432 1.390 . S
C441 H434 0.950 . S
C441 C438 1.387 . S
C442 C443 1.387 . S
C442 H446 0.950 . S
C442 C451 1.390 . S
C443 C442 1.387 . S
C443 C445 1.387 . S
H444 C451 0.950 . S
C445 C443 1.387 . S
C445 C447 1.390 . S
C445 H449 0.950 . S
H446 C442 0.950 . S
C447 C445 1.390 . S
C447 C448 1.387 . S
C447 H450 0.950 . S
C448 C447 1.387 . S
C448 C451 1.387 . S
H449 C445 0.950 . S
H450 C447 0.950 . S
C451 C442 1.390 . S
C451 H444 0.950 . S
C451 C448 1.387 . S
C452 C453 1.387 . S
C452 H456 0.950 . S
C452 C461 1.390 . S
C453 C452 1.387 . S
C453 C455 1.387 . S
H454 C461 0.950 . S
C455 C453 1.387 . S
C455 C457 1.390 . S
C455 H459 0.950 . S
H456 C452 0.950 . S
C457 C455 1.390 . S
C457 C458 1.387 . S
C457 H460 0.950 . S
C458 C457 1.387 . S
C458 C461 1.387 . S
H459 C455 0.950 . S
H460 C457 0.950 . S
C461 C452 1.390 . S
C461 H454 0.950 . S
C461 C458 1.387 . S
C462 C463 1.387 . S
C462 H466 0.950 . S
C462 C471 1.390 . S
C463 C462 1.387 . S
C463 C465 1.387 . S
H464 C471 0.950 . S
C465 C463 1.387 . S
C465 C467 1.390 . S
C465 H469 0.950 . S
H466 C462 0.950 . S
C467 C465 1.390 . S
C467 C468 1.387 . S
C467 H470 0.950 . S
C468 C467 1.387 . S
C468 C471 1.387 . S
H469 C465 0.950 . S
H470 C467 0.950 . S
C471 C462 1.390 . S
C471 H464 0.950 . S
C471 C468 1.387 . S
C472 C473 1.387 . S
C472 H476 0.950 . S
C472 C481 1.390 . S
C473 C472 1.387 . S
C473 C475 1.387 . S
H474 C481 0.950 . S
C475 C473 1.387 . S
C475 C477 1.390 . S
C475 H479 0.950 . S
H476 C472 0.950 . S
C477 C475 1.390 . S
C477 C478 1.387 . S
C477 H480 0.950 . S
C478 C477 1.387 . S
C478 C481 1.387 . S
H479 C475 0.950 . S
H480 C477 0.950 . S
C481 C472 1.390 . S
C481 H474 0.950 . S
C481 C478 1.387 . S
C482 C483 1.387 . S
C482 H486 0.950 . S
C482 C491 1.390 . S
C483 C482 1.387 . S
C483 C485 1.387 . S
H484 C491 0.950 . S
C485 C483 1.387 . S
C485 C487 1.390 . S
C485 H489 0.950 . S
H486 C482 0.950 . S
C487 C485 1.390 . S
C487 C488 1.387 . S
C487 H490 0.950 . S
C488 C487 1.387 . S
C488 C491 1.387 . S
H489 C485 0.950 . S
H490 C487 0.950 . S
C491 C482 1.390 . S
C491 H484 0.950 . S
C491 C488 1.387 . S
C492 C493 1.387 . S
C492 H496 0.950 . S
C492 C501 1.390 . S
C493 C492 1.387 . S
C493 C495 1.387 . S
H494 C501 0.950 . S
C495 C493 1.387 . S
C495 C497 1.390 . S
C495 H499 0.950 . S
H496 C492 0.950 . S
C497 C495 1.390 . S
C497 C498 1.387 . S
C497 H500 0.950 . S
C498 C497 1.387 . S
C498 C501 1.387 . S
H499 C495 0.950 . S
H500 C497 0.950 . S
C501 C492 1.390 . S
C501 H494 0.950 . S
C501 C498 1.387 . S
C502 C503 1.387 . S
C502 H506 0.950 . S
C502 C511 1.390 . S
C503 C502 1.387 . S
C503 C505 1.387 . S
H504 C511 0.950 . S
C505 C503 1.387 . S
C505 C507 1.390 . S
C505 H509 0.950 . S
H506 C502 0.950 . S
C507 C505 1.390 . S
C507 C508 1.387 . S
C507 H510 0.950 . S
C508 C507 1.387 . S
C508 C511 1.387 . S
H509 C505 0.950 . S
H510 C507 0.950 . S
C511 C502 1.390 . S
C511 H504 0.950 . S
C511 C508 1.387 . S
C512 C513 1.387 . S
C512 H516 0.950 . S
C512 C521 1.390 . S
C513 C512 1.387 . S
C513 C515 1.387 . S
H514 C521 0.950 . S
C515 C513 1.387 . S
C515 C517 1.390 . S
C515 H519 0.950 . S
H516 C512 0.950 . S
C517 C515 1.390 . S
C517 C518 1.387 . S
C517 H520 0.950 . S
C518 C517 1.387 . S
C518 C521 1.387 . S
H519 C515 0.950 . S
H520 C517 0.950 . S
C521 C512 1.390 . S
C521 H514 0.950 . S
C521 C518 1.387 . S
C522 C523 1.387 . S
C522 H526 0.950 . S
C522 C531 1.390 . S
C523 C522 1.387 . S
C523 C525 1.387 . S
H524 C531 0.950 . S
C525 C523 1.387 . S
C525 C527 1.390 . S
C525 H529 0.950 . S
H526 C522 0.950 . S
C527 C525 1.390 . S
C527 C528 1.387 . S
C527 H530 0.950 . S
C528 C527 1.387 . S
C528 C531 1.387 . S
H529 C525 0.950 . S
H530 C527 0.950 . S
C531 C522 1.390 . S
C531 H524 0.950 . S
C531 C528 1.387 . S
C532 C533 1.387 . S
C532 H536 0.950 . S
C532 C541 1.390 . S
C533 C532 1.387 . S
C533 C535 1.387 . S
H534 C541 0.950 . S
C535 C533 1.387 . S
C535 C537 1.390 . S
C535 H539 0.950 . S
H536 C532 0.950 . S
C537 C535 1.390 . S
C537 C538 1.387 . S
C537 H540 0.950 . S
C538 C537 1.387 . S
C538 C541 1.387 . S
H539 C535 0.950 . S
H540 C537 0.950 . S
C541 C532 1.390 . S
C541 H534 0.950 . S
C541 C538 1.387 . S
C542 C543 1.387 . S
C542 H546 0.950 . S
C542 C551 1.390 . S
C543 C542 1.387 . S
C543 C545 1.387 . S
H544 C551 0.950 . S
C545 C543 1.387 . S
C545 C547 1.390 . S
C545 H549 0.950 . S
H546 C542 0.950 . S
C547 C545 1.390 . S
C547 C548 1.387 . S
C547 H550 0.950 . S
C548 C547 1.387 . S
C548 C551 1.387 . S
H549 C545 0.950 . S
H550 C547 0.950 . S
C551 C542 1.390 . S
C551 H544 0.950 . S
C551 C548 1.387 . S
C552 C553 1.387 . S
C552 H556 0.950 . S
C552 C561 1.390 . S
C553 C552 1.387 . S
C553 C555 1.387 . S
H554 C561 0.950 . S
C555 C553 1.387 . S
C555 C557 1.390 . S
C555 H559 0.950 . S
H556 C552 0.950 . S
C557 C555 1.390 . S
C557 C558 1.387 . S
C557 H560 0.950 . S
C558 C557 1.387 . S
C558 C561 1.387 . S
H559 C555 0.950 . S
H560 C557 0.950 . S
C561 C552 1.390 . S
C561 H554 0.950 . S
C561 C558 1.387 . S
C562 C563 1.387 . S
C562 H566 0.950 . S
C562 C571 1.390 . S
C563 C562 1.387 . S
C563 C565 1.387 . S
H564 C571 0.950 . S
C565 C563 1.387 . S
C565 C567 1.390 . S
C565 H569 0.950 . S
H566 C562 0.950 . S
C567 C565 1.390 . S
C567 C568 1.387 . S
C567 H570 0.950 . S
C568 C567 1.387 . S
C568 C571 1.387 . S
H569 C565 0.950 . S
H570 C567 0.950 . S
C571 C562 1.390 . S
C571 H564 0.950 . S
C571 C568 1.387 . S
C572 C573 1.387 . S
C572 H576 0.950 . S
C572 C581 1.390 . S
C573 C572 1.387 . S
C573 C575 1.387 . S
H574 C581 0.950 . S
C575 C573 1.387 . S
C575 C577 1.390 . S
C575 H579 0.950 . S
H576 C572 0.950 . S
C577 C575 1.390 . S
C577 C578 1.387 . S
C577 H580 0.950 . S
C578 C577 1.387 . S
C578 C581 1.387 . S
H579 C575 0.950 . S
H580 C577 0.950 . S
C581 C572 1.390 . S
C581 H574 0.950 . S
C581 C578 1.387 . S
C582 C583 1.387 . S
C582 H586 0.950 . S
C582 C591 1.390 . S
C583 C582 1.387 . S
C583 C585 1.387 . S
H584 C591 0.950 . S
C585 C583 1.387 . S
C585 C587 1.390 . S
C585 H589 0.950 . S
H586 C582 0.950 . S
C587 C585 1.390 . S
C587 C588 1.387 . S
C587 H590 0.950 . S
C588 C587 1.387 . S
C588 C591 1.387 . S
H589 C585 0.950 . S
H590 C587 0.950 . S
C591 C582 1.390 . S
C591 H584 0.950 . S
C591 C588 1.387 . S
C592 C593 1.387 . S
C592 H596 0.950 . S
C592 C601 1.390 . S
C593 C592 1.387 . S
C593 C595 1.387 . S
H594 C601 0.950 . S
C595 C593 1.387 . S
C595 C597 1.390 . S
C595 H599 0.950 . S
H596 C592 0.950 . S
C597 C595 1.390 . S
C597 C598 1.387 . S
C597 H600 0.950 . S
C598 C597 1.387 . S
C598 C601 1.387 . S
H599 C595 0.950 . S
H600 C597 0.950 . S
C601 C592 1.390 . S
C601 H594 0.950 . S
C601 C598 1.387 . S
C602 C603 1.387 . S
C602 H606 0.950 . S
C602 C611 1.390 . S
C603 C602 1.387 . S
C603 C605 1.387 . S
H604 C611 0.950 . S
C605 C603 1.387 . S
C605 C607 1.390 . S
C605 H609 0.950 . S
H606 C602 0.950 . S
C607 C605 1.390 . S
C607 C608 1.387 . S
C607 H610 0.950 . S
C608 C607 1.387 . S
C608 C611 1.387 . S
H609 C605 0.950 . S
H610 C607 0.950 . S
C611 C602 1.390 . S
C611 H604 0.950 . S
C611 C608 1.387 . S
C612 C613 1.387 . S
C612 H616 0.950 . S
C612 C621 1.390 . S
C613 C612 1.387 . S
C613 C615 1.387 . S
H614 C621 0.950 . S
C615 C613 1.387 . S
C615 C617 1.390 . S
C615 H619 0.950 . S
H616 C612 0.950 . S
C617 C615 1.390 . S
C617 C618 1.387 . S
C617 H620 0.950 . S
C618 C617 1.387 . S
C618 C621 1.387 . S
H619 C615 0.950 . S
H620 C617 0.950 . S
C621 C612 1.390 . S
C621 H614 0.950 . S
C621 C618 1.387 . S
C622 C623 1.387 . S
C622 H626 0.950 . S
C622 C631 1.390 . S
C623 C622 1.387 . S
C623 C625 1.387 . S
H624 C631 0.950 . S
C625 C623 1.387 . S
C625 C627 1.390 . S
C625 H629 0.950 . S
H626 C622 0.950 . S
C627 C625 1.390 . S
C627 C628 1.387 . S
C627 H630 0.950 . S
C628 C627 1.387 . S
C628 C631 1.387 . S
H629 C625 0.950 . S
H630 C627 0.950 . S
C631 C622 1.390 . S
C631 H624 0.950 . S
C631 C628 1.387 . S
C632 C633 1.387 1_554 S
C632 H636 0.950 . S
C632 C641 1.390 . S
C633 C632 1.387 1_556 S
C633 C635 1.387 . S
H634 C641 0.950 . S
C635 C633 1.387 . S
C635 C637 1.390 1_556 S
C635 H639 0.950 . S
H636 C632 0.950 . S
C637 C635 1.390 1_554 S
C637 C638 1.387 . S
C637 H640 0.950 . S
C638 C637 1.387 . S
C638 C641 1.387 . S
H639 C635 0.950 . S
H640 C637 0.950 . S
C641 C632 1.390 . S
C641 H634 0.950 . S
C641 C638 1.387 . S
C642 C643 1.387 . S
C642 H646 0.950 . S
C642 C651 1.390 1_554 S
C643 C642 1.387 . S
C643 C645 1.387 1_554 S
H644 C651 0.950 . S
C645 C643 1.387 1_556 S
C645 C647 1.390 . S
C645 H649 0.950 . S
H646 C642 0.950 . S
C647 C645 1.390 . S
C647 C648 1.387 . S
C647 H650 0.950 . S
C648 C647 1.387 . S
C648 C651 1.387 . S
H649 C645 0.950 . S
H650 C647 0.950 . S
C651 C642 1.390 1_556 S
C651 H644 0.950 . S
C651 C648 1.387 . S
C652 C653 1.387 1_554 S
C652 H656 0.950 1_554 S
C652 C661 1.390 . S
C653 C652 1.387 1_556 S
C653 C655 1.387 . S
H654 C661 0.950 . S
C655 C653 1.387 . S
C655 C657 1.390 1_556 S
C655 H659 0.950 . S
H656 C652 0.950 1_556 S
C657 C655 1.390 1_554 S
C657 C658 1.387 . S
C657 H660 0.950 . S
C658 C657 1.387 . S
C658 C661 1.387 . S
H659 C655 0.950 . S
H660 C657 0.950 . S
C661 C652 1.390 . S
C661 H654 0.950 . S
C661 C658 1.387 . S
C662 C663 1.387 . S
C662 H666 0.950 . S
C662 C671 1.390 . S
C663 C662 1.387 . S
C663 C665 1.387 . S
H664 C671 0.950 . S
C665 C663 1.387 . S
C665 C667 1.390 1_556 S
C665 H669 0.950 . S
H666 C662 0.950 . S
C667 C665 1.390 1_554 S
C667 C668 1.387 . S
C667 H670 0.950 . S
C668 C667 1.387 . S
C668 C671 1.387 1_554 S
H669 C665 0.950 . S
H670 C667 0.950 . S
C671 C662 1.390 . S
C671 H664 0.950 . S
C671 C668 1.387 1_556 S
C672 C673 1.387 . S
C672 H676 0.950 . S
C672 C681 1.390 . S
C673 C672 1.387 . S
C673 C675 1.387 . S
H674 C681 0.950 . S
C675 C673 1.387 . S
C675 C677 1.390 . S
C675 H679 0.950 . S
H676 C672 0.950 . S
C677 C675 1.390 . S
C677 C678 1.387 . S
C677 H680 0.950 . S
C678 C677 1.387 . S
C678 C681 1.387 . S
H679 C675 0.950 . S
H680 C677 0.950 . S
C681 C672 1.390 . S
C681 H674 0.950 . S
C681 C678 1.387 . S
C682 C683 1.387 . S
C682 H686 0.950 . S
C682 C691 1.390 . S
C683 C682 1.387 . S
C683 C685 1.387 . S
H684 C691 0.950 . S
C685 C683 1.387 . S
C685 C687 1.390 . S
C685 H689 0.950 . S
H686 C682 0.950 . S
C687 C685 1.390 . S
C687 C688 1.387 . S
C687 H690 0.950 . S
C688 C687 1.387 . S
C688 C691 1.387 . S
H689 C685 0.950 . S
H690 C687 0.950 . S
C691 C682 1.390 . S
C691 H684 0.950 . S
C691 C688 1.387 . S
C692 C693 1.387 . S
C692 H696 0.950 . S
C692 C701 1.390 . S
C693 C692 1.387 . S
C693 C695 1.387 . S
H694 C701 0.950 . S
C695 C693 1.387 . S
C695 C697 1.390 . S
C695 H699 0.950 . S
H696 C692 0.950 . S
C697 C695 1.390 . S
C697 C698 1.387 . S
C697 H700 0.950 . S
C698 C697 1.387 . S
C698 C701 1.387 . S
H699 C695 0.950 . S
H700 C697 0.950 . S
C701 C692 1.390 . S
C701 H694 0.950 . S
C701 C698 1.387 . S
C702 C703 1.387 . S
C702 H706 0.950 . S
C702 C711 1.390 . S
C703 C702 1.387 . S
C703 C705 1.387 . S
H704 C711 0.950 . S
C705 C703 1.387 . S
C705 C707 1.390 . S
C705 H709 0.950 . S
H706 C702 0.950 . S
C707 C705 1.390 . S
C707 C708 1.387 . S
C707 H710 0.950 . S
C708 C707 1.387 . S
C708 C711 1.387 . S
H709 C705 0.950 . S
H710 C707 0.950 . S
C711 C702 1.390 . S
C711 H704 0.950 . S
C711 C708 1.387 . S
C712 C713 1.387 . S
C712 H716 0.950 . S
C712 C721 1.390 . S
C713 C712 1.387 . S
C713 C715 1.387 . S
H714 C721 0.950 . S
C715 C713 1.387 . S
C715 C717 1.390 . S
C715 H719 0.950 . S
H716 C712 0.950 . S
C717 C715 1.390 . S
C717 C718 1.387 . S
C717 H720 0.950 . S
C718 C717 1.387 . S
C718 C721 1.387 . S
H719 C715 0.950 . S
H720 C717 0.950 . S
C721 C712 1.390 . S
C721 H714 0.950 . S
C721 C718 1.387 . S
C722 C723 1.387 . S
C722 H726 0.950 . S
C722 C731 1.390 . S
C723 C722 1.387 . S
C723 C725 1.387 . S
H724 C731 0.950 . S
C725 C723 1.387 . S
C725 C727 1.390 . S
C725 H729 0.950 . S
H726 C722 0.950 . S
C727 C725 1.390 . S
C727 C728 1.387 . S
C727 H730 0.950 . S
C728 C727 1.387 . S
C728 C731 1.387 . S
H729 C725 0.950 . S
H730 C727 0.950 . S
C731 C722 1.390 . S
C731 H724 0.950 . S
C731 C728 1.387 . S
C732 C733 1.387 . S
C732 H736 0.950 . S
C732 C741 1.390 . S
C733 C732 1.387 . S
C733 C735 1.387 . S
H734 C741 0.950 . S
C735 C733 1.387 . S
C735 C737 1.390 . S
C735 H739 0.950 . S
H736 C732 0.950 . S
C737 C735 1.390 . S
C737 C738 1.387 . S
C737 H740 0.950 . S
C738 C737 1.387 . S
C738 C741 1.387 . S
H739 C735 0.950 . S
H740 C737 0.950 . S
C741 C732 1.390 . S
C741 H734 0.950 . S
C741 C738 1.387 . S
C742 C743 1.387 . S
C742 H746 0.950 . S
C742 C751 1.390 . S
C743 C742 1.387 . S
C743 C745 1.387 . S
H744 C751 0.950 . S
C745 C743 1.387 . S
C745 C747 1.390 . S
C745 H749 0.950 . S
H746 C742 0.950 . S
C747 C745 1.390 . S
C747 C748 1.387 . S
C747 H750 0.950 . S
C748 C747 1.387 . S
C748 C751 1.387 . S
H749 C745 0.950 . S
H750 C747 0.950 . S
C751 C742 1.390 . S
C751 H744 0.950 . S
C751 C748 1.387 . S
C752 C753 1.388 . S
C752 H756 0.950 . S
C752 C761 1.389 1_565 S
C753 C752 1.388 . S
C753 C755 1.388 1_554 S
H754 C761 0.950 . S
C755 C753 1.388 1_556 S
C755 C757 1.389 1_565 S
C755 H759 0.950 . S
H756 C752 0.950 . S
C757 C755 1.389 1_545 S
C757 C758 1.388 1_556 S
C757 H760 0.950 . S
C758 C757 1.388 1_554 S
C758 C761 1.388 . S
H759 C755 0.950 . S
H760 C757 0.950 . S
C761 C752 1.389 1_545 S
C761 H754 0.950 . S
C761 C758 1.388 . S
C762 C763 1.387 1_554 S
C762 H766 0.950 . S
C762 C771 1.390 1_455 S
C763 C762 1.387 1_556 S
C763 C765 1.387 . S
H764 C771 0.950 . S
C765 C763 1.387 . S
C765 C767 1.390 1_455 S
C765 H769 0.950 . S
H766 C762 0.950 . S
C767 C765 1.390 1_655 S
C767 C768 1.387 . S
C767 H770 0.950 . S
C768 C767 1.387 . S
C768 C771 1.387 1_556 S
H769 C765 0.950 . S
H770 C767 0.950 . S
C771 C762 1.390 1_655 S
C771 H764 0.950 . S
C771 C768 1.387 1_554 S
C772 C773 1.387 . S
C772 H776 0.950 . S
C772 C781 1.390 . S
C773 C772 1.387 . S
C773 C775 1.387 . S
H774 C781 0.950 . S
C775 C773 1.387 . S
C775 C777 1.390 . S
C775 H779 0.950 . S
H776 C772 0.950 . S
C777 C775 1.390 . S
C777 C778 1.387 . S
C777 H780 0.950 . S
C778 C777 1.387 . S
C778 C781 1.387 . S
H779 C775 0.950 . S
H780 C777 0.950 . S
C781 C772 1.390 . S
C781 H774 0.950 . S
C781 C778 1.387 . S
C782 C783 1.387 . S
C782 H786 0.950 . S
C782 C791 1.390 . S
C783 C782 1.387 . S
C783 C785 1.387 . S
H784 C791 0.950 . S
C785 C783 1.387 . S
C785 C787 1.390 . S
C785 H789 0.950 . S
H786 C782 0.950 . S
C787 C785 1.390 . S
C787 C788 1.387 . S
C787 H790 0.950 . S
C788 C787 1.387 . S
C788 C791 1.387 . S
H789 C785 0.950 . S
H790 C787 0.950 . S
C791 C782 1.390 . S
C791 H784 0.950 . S
C791 C788 1.387 . S
C792 C793 1.387 . S
C792 H796 0.950 . S
C792 C801 1.390 1_455 S
C793 C792 1.387 . S
C793 C795 1.387 . S
H794 C801 0.950 . S
C795 C793 1.387 . S
C795 C797 1.390 1_455 S
C795 H799 0.950 . S
H796 C792 0.950 . S
C797 C795 1.390 1_655 S
C797 C798 1.387 . S
C797 H800 0.950 . S
C798 C797 1.387 . S
C798 C801 1.387 . S
H799 C795 0.950 . S
H800 C797 0.950 . S
C801 C792 1.390 1_655 S
C801 H794 0.950 . S
C801 C798 1.387 . S
C802 C803 1.387 . S
C802 H806 0.950 . S
C802 C811 1.390 1_545 S
C803 C802 1.387 . S
C803 C805 1.387 . S
H804 C811 0.950 . S
C805 C803 1.387 . S
C805 C807 1.390 1_545 S
C805 H809 0.950 . S
H806 C802 0.950 . S
C807 C805 1.390 1_565 S
C807 C808 1.387 . S
C807 H810 0.950 . S
C808 C807 1.387 . S
C808 C811 1.387 . S
H809 C805 0.950 . S
H810 C807 0.950 . S
C811 C802 1.390 1_565 S
C811 H804 0.950 . S
C811 C808 1.387 . S
C812 C813 1.388 . S
C812 H816 0.950 . S
C812 C821 1.389 1_445 S
C813 C812 1.388 . S
C813 C815 1.388 . S
H814 C821 0.950 . S
C815 C813 1.388 . S
C815 C817 1.389 1_445 S
C815 H819 0.950 . S
H816 C812 0.950 . S
C817 C815 1.389 1_665 S
C817 C818 1.388 . S
C817 H820 0.950 . S
C818 C817 1.388 . S
C818 C821 1.388 . S
H819 C815 0.950 . S
H820 C817 0.950 . S
C821 C812 1.389 1_665 S
C821 H814 0.950 . S
C821 C818 1.388 . S
C822 C823 1.387 . S
C822 H826 0.950 . S
C822 C831 1.390 1_645 S
C823 C822 1.387 . S
C823 C825 1.387 . S
H824 C831 0.950 . S
C825 C823 1.387 . S
C825 C827 1.390 1_645 S
C825 H829 0.950 . S
H826 C822 0.950 . S
C827 C825 1.390 1_465 S
C827 C828 1.387 . S
C827 H830 0.950 . S
C828 C827 1.387 . S
C828 C831 1.387 . S
H829 C825 0.950 . S
H830 C827 0.950 . S
C831 C822 1.390 1_465 S
C831 H824 0.950 . S
C831 C828 1.387 . S
C353 C348 1.918 . S
C358 C18 2.036 1_565 S
C363 C274 1.876 . S
C368 C40 2.027 1_655 S
C373 C62 2.037 1_545 S
C378 C294 1.919 . S
C383 C84 2.026 1_455 S
C388 C318 1.877 . S
C393 C98 2.036 . S
C398 C30 1.916 . S
C403 C118 2.027 . S
C408 C54 1.876 . S
C413 C142 2.036 . S
C418 C74 1.916 . S
C423 C10 1.877 . S
C428 C162 2.026 . S
C433 C184 2.039 . S
C438 C164 1.918 . S
C443 C216 2.026 . S
C448 C96 1.877 . S
C453 C238 2.036 . S
C458 C120 1.916 . S
C463 C260 2.029 . S
C468 C140 1.878 . S
C473 C282 2.039 1_545 S
C478 C206 1.917 . S
C483 C230 1.880 . S
C488 C304 2.029 1_455 S
C493 C250 1.919 . S
C498 C326 2.037 1_565 S
C503 C194 1.877 . S
C508 C340 2.027 1_655 S
C513 C106 1.237 . S
C518 C8 1.237 . S
C523 C32 1.223 . S
C528 C128 1.223 . S
C533 C150 1.235 . S
C538 C52 1.235 . S
C543 C76 1.226 . S
C548 C172 1.226 . S
C553 C272 1.237 . S
C558 C186 1.237 . S
C563 C296 1.223 . S
C568 C208 1.223 . S
C573 C316 1.235 . S
C578 C228 1.235 . S
C583 C338 1.226 . S
C588 C252 1.226 . S
C593 C7 1.257 . S
C598 C257 1.297 . S
C603 C191 1.307 . S
C608 C29 1.272 . S
C613 C51 1.256 . S
C618 C213 1.295 . S
C623 C73 1.272 . S
C628 C241 1.307 . S
C633 C117 1.298 . S
C638 C103 1.259 . S
C643 C139 1.307 . S
C648 C131 1.272 . S
C653 C161 1.297 . S
C658 C147 1.257 . S
C663 C175 1.268 . S
C668 C95 1.304 . S
C673 C197 1.255 . S
C678 C81 1.295 . S
C683 C21 1.305 . S
C688 C205 1.270 . S
C693 C37 1.295 . S
C698 C227 1.256 . S
C703 C65 1.307 . S
C708 C249 1.272 . S
C713 C301 1.297 . S
C718 C271 1.257 . S
C723 C293 1.271 . S
C728 C329 1.307 . S
C733 C351 1.295 . S
C738 C315 1.256 . S
C743 C345 1.272 . S
C748 C285 1.307 . S
C753 C59 0.688 . S
C758 C15 0.688 . S
C763 C43 0.680 . S
C768 C87 0.680 . S
C773 C109 0.688 . S
C778 C153 0.688 . S
C783 C169 0.680 . S
C788 C125 0.680 . S
C793 C235 0.692 . S
C798 C183 0.692 . S
C803 C219 0.680 . S
C808 C263 0.680 . S
C813 C323 0.688 . S
C818 C279 0.688 . S
C823 C307 0.685 . S
C828 C337 0.685 . S
