# Generated by pormake.
# Topology kag, (6)-cn, num edge types: 1
# Building blocks:
#     Node 0, Type 0, BuildingBlock: KUMBOL_clean_sbu_0, # of connection points: 6
#     Node 1, Type 0, BuildingBlock: KUMBOL_clean_sbu_0, # of connection points: 6
#     Node 2, Type 0, BuildingBlock: KUMBOL_clean_sbu_0, # of connection points: 6
#     Edge 3, Type (0, 0), BuildingBlock: XUDNAN_clean_linker_2, # of connection points: 2
#     Edge 4, Type (0, 0), BuildingBlock: XUDNAN_clean_linker_2, # of connection points: 2
#     Edge 5, Type (0, 0), BuildingBlock: XUDNAN_clean_linker_2, # of connection points: 2
#     Edge 6, Type (0, 0), BuildingBlock: XUDNAN_clean_linker_2, # of connection points: 2
#     Edge 7, Type (0, 0), BuildingBlock: XUDNAN_clean_linker_2, # of connection points: 2
#     Edge 8, Type (0, 0), BuildingBlock: XUDNAN_clean_linker_2, # of connection points: 2
#     Edge 9, Type (0, 0), BuildingBlock: XUDNAN_clean_linker_2, # of connection points: 2
#     Edge 10, Type (0, 0), BuildingBlock: XUDNAN_clean_linker_2, # of connection points: 2
#     Edge 11, Type (0, 0), BuildingBlock: XUDNAN_clean_linker_2, # of connection points: 2
# Relax obj value: 0.071
# Max RMSD: 0.190
# Mean RMSD: 0.141
data_MOF--net-kag--node1-KUMBOL_clean_sbu_0--edge1-XUDNAN_clean_linker_2
_symmetry_space_group_name_H-M    P1
_symmetry_Int_Tables_number       1
_symmetry_cell_setting            triclinic
loop_
_symmetry_equiv_pos_as_xyz
'x, y, z'
_cell_length_a     39.878068
_cell_length_b     30.798032
_cell_length_c     15.23346
_cell_angle_alpha  94.194115
_cell_angle_beta   114.02153
_cell_angle_gamma 99.001699
loop_
_atom_site_label
_atom_site_type_symbol
_atom_site_fract_x
_atom_site_fract_y
_atom_site_fract_z
_atom_type_partial_charge
Gd0 Gd 0.03043 0.59661 0.04872 0.0
Gd1 Gd 1.00791 0.47613 0.01532 0.0
C2 C 0.09483 0.39733 0.01078 0.0
C3 C 0.06577 0.35924 0.84403 0.0
C4 C 0.03362 0.40771 0.90018 0.0
C5 C 0.06358 0.41736 0.99127 0.0
C6 C 0.03412 0.37803 0.82599 0.0
C7 C 0.09599 0.36875 0.93631 0.0
C8 C 0.12354 0.40576 0.10521 0.0
C9 C 0.11999 0.43224 0.17813 0.0
N10 N 0.06139 0.44466 0.06203 0.0
C11 C 0.08827 0.45103 0.15543 0.0
H12 H 0.08585 0.47161 0.21216 0.0
C13 C 0.97149 0.41383 0.80037 0.0
N14 N 1.00334 0.42612 0.88523 0.0
C15 C 0.97081 0.38489 0.72423 0.0
C16 C 1.00243 0.36732 0.73666 0.0
H17 H 0.94711 0.4276 0.79061 0.0
H18 H 0.1199 0.35332 0.94974 0.0
H19 H 0.94904 0.60189 0.86302 0.0
H20 H 0.14811 0.39118 0.12303 0.0
H21 H 0.14172 0.4383 0.25176 0.0
H22 H 0.06682 0.33661 0.78773 0.0
H23 H 0.09609 0.6446 0.26964 0.0
H24 H 0.89484 0.68881 0.96608 0.0
H25 H 0.8959 0.63894 0.83281 0.0
H26 H 0.9842 0.74413 0.29434 0.0
H27 H 0.94594 0.37616 0.65608 0.0
H28 H 1.00178 0.34479 0.67767 0.0
H29 H 0.92783 0.72751 0.13878 0.0
H30 H 0.1026 0.69854 0.40634 0.0
N31 N 0.97805 0.62997 0.01266 0.0
C32 C 0.91838 0.67264 0.97991 0.0
C33 C 0.91886 0.64452 0.90453 0.0
C34 C 0.94887 0.68072 0.07136 0.0
C35 C 0.97889 0.65898 0.08534 0.0
C36 C 0.94915 0.62355 0.92208 0.0
N37 N 0.03956 0.64833 0.18195 0.0
C38 C 1.0107 0.66867 0.17247 0.0
C39 C 0.07653 0.69027 0.34116 0.0
C40 C 0.04654 0.71013 0.33411 0.0
C41 C 0.07273 0.6597 0.2635 0.0
C42 C 0.01326 0.69987 0.24861 0.0
H43 H 0.0496 0.73388 0.39432 0.0
O44 O 0.08178 0.6377 0.06021 0.0
O45 O 0.05154 0.53496 0.03284 0.0
O46 O 0.0297 0.50499 0.17799 0.0
O47 O 0.02305 0.57894 0.17931 0.0
O48 O 0.08804 0.58466 0.14234 0.0
O49 O 0.02837 0.6429 0.94643 0.0
O50 O 0.95554 0.43256 0.98813 0.0
O51 O 0.98735 0.53754 0.03141 0.0
O52 O 1.00163 0.56566 0.88966 0.0
O53 O 0.01529 0.49537 0.88289 0.0
O54 O 0.94946 0.4885 0.92532 0.0
O55 O 1.00678 0.42777 0.11173 0.0
C56 C 0.0849 0.54599 0.09785 0.0
C57 C 0.98286 0.7203 0.23644 0.0
C58 C 0.95074 0.71077 0.14794 0.0
C59 C 0.06428 0.65949 0.99129 0.0
C60 C 0.07657 0.70816 0.01408 0.0
C61 C 0.05236 0.73636 0.01641 0.0
C62 C 0.11403 0.72654 0.03642 0.0
C63 C 0.12761 0.77269 0.06063 0.0
C64 C 0.06561 0.78243 0.03951 0.0
C65 C 0.10301 0.80064 0.06104 0.0
C66 C 0.02715 0.54285 0.22111 0.0
C67 C 0.95317 0.5272 0.97113 0.0
C68 C 0.97094 0.41172 0.06108 0.0
C69 C 0.95748 0.36338 0.04269 0.0
C70 C 0.97823 0.33335 0.02702 0.0
C71 C 0.9219 0.3474 0.03819 0.0
C72 C 0.90645 0.30165 0.01765 0.0
C73 C 0.96333 0.28759 0.008 0.0
C74 C 0.92767 0.2717 0.00354 0.0
C75 C 1.00644 0.53097 0.84272 0.0
H76 H 0.02339 0.72292 0.00061 0.0
H77 H 0.13265 0.70472 0.03413 0.0
H78 H 0.04687 0.80409 0.04098 0.0
H79 H 0.11282 0.83637 0.0792 0.0
H80 H 1.00565 0.34518 0.02923 0.0
H81 H 0.90624 0.37093 0.05129 0.0
H82 H 0.97936 0.26438 -0.00395 0.0
H83 H 0.91649 0.23621 0.98759 0.0
Gd84 Gd 0.46146 1.02253 0.92022 0.0
Gd85 Gd 0.5603 0.04808 0.03435 0.0
C86 C 0.60087 0.92867 0.94354 0.0
C87 C 0.60655 0.88487 0.07304 0.0
C88 C 0.58521 0.9549 0.07358 0.0
C89 C 0.58825 0.9608 0.98713 0.0
C90 C 0.59505 0.91717 0.11795 0.0
C91 C 0.60925 0.89049 0.98588 0.0
C92 C 0.60554 0.93616 0.85954 0.0
C93 C 0.59994 0.97601 0.82407 0.0
N94 N 0.57999 0.99816 0.94716 0.0
C95 C 0.58837 1.00728 0.87062 0.0
H96 H 0.58771 0.03921 0.84612 0.0
C97 C 0.57193 0.98212 0.20258 0.0
N98 N 0.57259 0.98569 0.11426 0.0
C99 C 0.58155 0.94552 0.24899 0.0
C100 C 0.59302 0.91281 0.2064 0.0
H101 H 0.5654 1.0079 0.2404 0.0
H102 H 0.61854 0.86543 0.95263 0.0
H103 H 0.46187 0.09697 0.09624 0.0
H104 H 0.615 0.91223 0.82394 0.0
H105 H 0.60552 0.98326 0.76225 0.0
H106 H 0.61365 0.8555 0.10551 0.0
H107 H 0.41669 0.98363 0.67946 0.0
H108 H 0.41544 0.20449 0.9683 0.0
H109 H 0.4452 0.16908 0.1134 0.0
H110 H 0.37258 0.15754 0.62733 0.0
H111 H 0.58073 0.94298 0.31862 0.0
H112 H 0.60085 0.88472 0.2432 0.0
H113 H 0.38886 0.20014 0.78715 0.0
H114 H 0.38241 1.01091 0.52603 0.0
N115 N 0.44437 0.09143 0.94307 0.0
C116 C 0.42301 0.17263 0.96024 0.0
C117 C 0.4399 0.15282 0.04222 0.0
C118 C 0.41523 0.1505 0.86858 0.0
C119 C 0.42607 0.10923 0.86218 0.0
C120 C 0.44988 0.11181 0.03211 0.0
N121 N 0.42544 0.04457 0.76935 0.0
C122 C 0.41681 0.08532 0.77255 0.0
C123 C 0.39216 1.03237 0.59476 0.0
C124 C 0.38518 0.0753 0.59693 0.0
C125 C 0.41162 1.01711 0.68194 0.0
C126 C 0.39669 0.10198 0.6865 0.0
H127 H 0.36982 0.08695 0.52931 0.0
O128 O 0.40694 0.9785 0.84167 0.0
O129 O 0.51093 0.98811 -0.00529 0.0
O130 O 0.54246 0.06307 0.88196 0.0
O131 O 0.48204 1.02164 0.80208 0.0
O132 O 0.47059 0.95833 0.85881 0.0
O133 O 0.42706 0.99964 -0.00512 0.0
O134 O 0.60558 0.07468 0.17628 0.0
O135 O 0.5102 0.0815 0.97786 0.0
O136 O 0.48064 1.0258 0.08349 0.0
O137 O 0.54205 0.06525 0.15004 0.0
O138 O 0.56124 0.12308 0.03331 0.0
O139 O 0.61632 0.07389 0.04783 0.0
C140 C 0.49987 0.95215 0.93106 0.0
C141 C 0.38761 0.144 0.69256 0.0
C142 C 0.39677 0.16818 0.78348 0.0
C143 C 0.40164 0.97305 0.91892 0.0
C144 C 0.39135 0.92679 0.93269 0.0
C145 C 0.40533 0.89256 0.90143 0.0
C146 C 0.36731 0.91665 0.97797 0.0
C147 C 0.35754 0.87277 0.9928 0.0
C148 C 0.39613 0.84918 0.91703 0.0
C149 C 0.37253 0.83924 0.96285 0.0
C150 C 0.51233 0.04562 0.80189 0.0
C151 C 0.52594 0.12372 -0.00508 0.0
C152 C 0.62909 0.08896 0.14013 0.0
C153 C 0.648 0.13635 0.16961 0.0
C154 C 0.6369 0.16611 0.22209 0.0
C155 C 0.67543 0.1528 0.13802 0.0
C156 C 0.69058 0.19859 0.15517 0.0
C157 C 0.65242 0.21153 0.2407 0.0
C158 C 0.67887 0.22782 0.20676 0.0
C159 C 0.51104 0.04887 0.1574 0.0
H160 H 0.42299 0.89894 0.86396 0.0
H161 H 0.35621 0.94287 0.00156 0.0
H162 H 0.4069 0.82308 0.89209 0.0
H163 H 0.36509 0.80508 0.97215 0.0
H164 H 0.61565 0.15456 0.24686 0.0
H165 H 0.6838 0.13022 0.09645 0.0
H166 H 0.64347 0.23427 0.28023 0.0
H167 H 0.69022 0.26325 0.22082 0.0
Gd168 Gd 0.55769 0.54762 0.02333 0.0
Gd169 Gd 0.45599 0.5237 0.92528 0.0
C170 C 0.41038 0.37388 0.83977 0.0
C171 C 0.38106 0.36543 0.66346 0.0
C172 C 0.41117 0.43888 0.75931 0.0
C173 C 0.42155 0.42012 0.84395 0.0
C174 C 0.38967 0.41178 0.66825 0.0
C175 C 0.39128 0.34652 0.74912 0.0
C176 C 0.41784 0.35668 0.92683 0.0
C177 C 0.43471 0.38558 0.01486 0.0
N178 N 0.43999 0.4474 0.93055 0.0
C179 C 0.4452 0.43114 0.01529 0.0
H180 H 0.45807 0.45302 0.08383 0.0
C181 C 0.40154 0.50384 0.68696 0.0
N182 N 0.41851 0.48389 0.76674 0.0
C183 C 0.381 0.47845 0.59491 0.0
C184 C 0.37565 0.43219 0.58522 0.0
H185 H 0.40528 0.53971 0.69415 0.0
H186 H 0.38319 0.31086 0.74454 0.0
H187 H 0.56182 0.58448 0.82463 0.0
H188 H 0.40988 0.32138 0.9267 0.0
H189 H 0.43985 0.37278 0.08248 0.0
H190 H 0.36505 0.34408 0.59409 0.0
H191 H 0.59509 0.57471 0.27283 0.0
H192 H 0.59664 0.7255 0.88326 0.0
H193 H 0.57763 0.65471 0.77182 0.0
H194 H 0.61682 0.76143 0.21343 0.0
H195 H 0.36905 0.49457 0.53168 0.0
H196 H 0.35918 0.41253 0.51401 0.0
H197 H 0.6092 0.76512 0.04609 0.0
H198 H 0.61453 0.64124 0.39283 0.0
N199 N 0.56813 0.61427 0.96281 0.0
C200 C 0.58902 0.69455 0.90661 0.0
C201 C 0.57802 0.65474 0.84329 0.0
C202 C 0.59068 0.69389 -6e-05 0.0
C203 C 0.58079 0.65256 0.0273 0.0
C204 C 0.56797 0.61478 0.87293 0.0
N205 N 0.58095 0.60959 0.14987 0.0
C206 C 0.58606 0.65028 0.12246 0.0
C207 C 0.60582 0.64434 0.31674 0.0
C208 C 0.60817 0.68622 0.28837 0.0
C209 C 0.59349 0.60636 0.24702 0.0
C210 C 0.59977 0.68964 0.19106 0.0
H211 H 0.61855 0.71562 0.34294 0.0
O212 O 0.61746 0.54999 0.11238 0.0
O213 O 0.50697 0.48925 0.95726 0.0
O214 O 0.4807 0.53359 0.08973 0.0
O215 O 0.54388 0.53045 0.14692 0.0
O216 O 0.5541 0.47856 0.07043 0.0
O217 O 0.59455 0.52925 0.95906 0.0
O218 O 0.40145 0.54279 0.86873 0.0
O219 O 0.50667 0.58109 0.97554 0.0
O220 O 0.53284 0.5195 0.86521 0.0
O221 O 0.47233 0.53257 0.7996 0.0
O222 O 0.45523 0.59723 0.91319 0.0
O223 O 0.42181 0.52018 0.00778 0.0
C224 C 0.52085 0.45835 0.00705 0.0
C225 C 0.60665 0.731 0.16183 0.0
C226 C 0.60247 0.7331 0.06672 0.0
C227 C 0.62501 0.53825 0.0396 0.0
C228 C 0.65925 0.56457 0.03542 0.0
C229 C 0.66207 0.61025 0.03164 0.0
C230 C 0.68884 0.54463 0.03237 0.0
C231 C 0.71963 0.57029 0.02164 0.0
C232 C 0.69181 0.63526 0.0198 0.0
C233 C 0.72009 0.61548 0.0139 0.0
C234 C 0.5131 0.53072 0.15947 0.0
C235 C 0.49042 0.61528 0.95486 0.0
C236 C 0.3937 0.5327 0.94108 0.0
C237 C 0.35498 0.50697 0.91589 0.0
C238 C 0.34049 0.46866 0.84595 0.0
C239 C 0.33169 0.52091 0.95835 0.0
C240 C 0.29423 0.49683 0.92953 0.0
C241 C 0.30421 0.44466 0.81836 0.0
C242 C 0.28136 0.45846 0.85933 0.0
C243 C 0.5018 0.52224 0.79038 0.0
H244 H 0.64131 0.62689 0.0381 0.0
H245 H 0.68784 0.50961 0.03769 0.0
H246 H 0.69311 0.67042 0.01607 0.0
H247 H 0.74318 0.63601 0.00641 0.0
H248 H 0.35711 0.45732 0.81174 0.0
H249 H 0.34243 0.55064 0.01201 0.0
H250 H 0.29366 0.41503 0.76453 0.0
H251 H 0.2536 0.43834 0.83686 0.0
H252 H 0.02976 0.47862 0.73015 0.0
H253 H 0.97505 0.59036 0.7289 0.0
H254 H 0.97408 0.60234 0.5711 0.0
H255 H 0.08849 0.52547 0.6228 0.0
H256 H 0.08381 0.47488 0.54775 0.0
H257 H 0.07864 0.4723 0.65941 0.0
H258 H 0.01308 0.42123 0.56482 0.0
H259 H 0.01818 0.42375 0.45287 0.0
H260 H 0.97815 0.43938 0.46363 0.0
H261 H 0.98324 0.60793 0.42598 0.0
H262 H 0.99644 0.60321 0.28436 0.0
H263 H 0.0437 0.48596 0.3636 0.0
C264 C 0.01696 0.50502 0.69555 0.0
C265 C 1.00255 0.53367 0.74245 0.0
C266 C 0.98645 0.56813 0.6953 0.0
C267 C 0.9857 0.57524 0.60531 0.0
C268 C 1.00089 0.54745 0.56237 0.0
C269 C 0.01578 0.51262 0.60435 0.0
C270 C 0.03064 0.48862 0.54089 0.0
C271 C 0.07292 0.49044 0.59609 0.0
C272 C 1.0087 0.44037 0.50331 0.0
C273 C 0.02257 0.51643 0.45854 0.0
C274 C 1.00545 0.55006 0.47388 0.0
C275 C 0.99637 0.58158 0.41249 0.0
C276 C 1.00458 0.57875 0.33224 0.0
C277 C 0.02167 0.54444 0.31226 0.0
C278 C 0.03067 0.51256 0.37651 0.0
H279 H 0.47111 0.99753 0.23857 0.0
H280 H 0.55162 0.12044 0.29481 0.0
H281 H 0.55674 0.13466 0.46114 0.0
H282 H 0.42509 0.03689 0.38944 0.0
H283 H 0.4203 0.98435 0.43263 0.0
H284 H 0.4197 0.98601 0.31398 0.0
H285 H 0.47419 0.94328 0.36209 0.0
H286 H 0.47514 0.94227 0.48111 0.0
H287 H 0.5171 0.96567 0.46892 0.0
H288 H 0.5575 0.13358 0.6228 0.0
H289 H 0.55342 0.11752 0.7743 0.0
H290 H 0.47279 0.99504 0.61955 0.0
C291 C 0.48918 1.02781 0.28554 0.0
C292 C 0.51095 0.05795 0.2539 0.0
C293 C 0.53486 0.0968 0.31776 0.0
C294 C 0.53784 0.10531 0.41225 0.0
C295 C 0.51675 0.07464 0.44217 0.0
C296 C 0.49278 0.03671 0.38114 0.0
C297 C 0.47536 1.00798 0.43484 0.0
C298 C 0.43256 1.00357 0.39002 0.0
C299 C 0.4861 0.96209 0.43685 0.0
C300 C 0.49377 0.0355 0.53553 0.0
C301 C 0.51734 0.07391 0.53738 0.0
C302 C 0.5389 0.10384 0.6223 0.0
C303 C 0.53654 0.09427 0.7081 0.0
C304 C 0.51279 0.05507 0.70867 0.0
C305 C 0.4908 1.02553 0.6209 0.0
H306 H 0.46176 0.55311 0.61787 0.0
H307 H 0.54268 0.47027 0.74472 0.0
H308 H 0.55216 0.4621 0.59581 0.0
H309 H 0.42189 0.49107 0.36436 0.0
H310 H 0.41601 0.541 0.3099 0.0
H311 H 0.41269 0.53753 0.42385 0.0
H312 H 0.46423 0.60911 0.50207 0.0
H313 H 0.46814 0.61246 0.38897 0.0
H314 H 0.50903 0.61119 0.4982 0.0
H315 H 0.55938 0.46952 0.44507 0.0
H316 H 0.55812 0.48501 0.28764 0.0
H317 H 0.47044 0.55959 0.24782 0.0
C318 C 0.48067 0.53235 0.61299 0.0
C319 C 0.50167 0.51263 0.69344 0.0
C320 C 0.52656 0.48618 0.68473 0.0
C321 C 0.53215 0.48118 0.60022 0.0
C322 C 0.51232 0.50232 0.52383 0.0
C323 C 0.48653 0.5267 0.528 0.0
C324 C 0.46998 0.54686 0.43528 0.0
C325 C 0.42762 0.52799 0.38006 0.0
C326 C 0.47836 0.59793 0.4575 0.0
C327 C 0.49133 0.53089 0.38035 0.0
C328 C 0.51564 0.50537 0.43347 0.0
C329 C 0.54006 0.48888 0.40183 0.0
C330 C 0.53938 0.4982 0.3127 0.0
C331 C 0.51421 0.52344 0.2555 0.0
C332 C 0.48975 0.53986 0.28974 0.0
H333 H 0.09391 0.51263 0.93435 0.0
H334 H 0.15391 0.55609 0.24506 0.0
H335 H 0.21352 0.54915 0.23696 0.0
H336 H 0.15249 0.43308 0.91386 0.0
H337 H 0.14907 0.44791 0.79874 0.0
H338 H 0.11171 0.45223 0.8346 0.0
H339 H 0.119 0.53571 0.8093 0.0
H340 H 0.15681 0.53017 0.77591 0.0
H341 H 0.16414 0.57239 0.87397 0.0
H342 H 0.26807 0.54176 0.19367 0.0
H343 H 0.31159 0.52906 0.12051 0.0
H344 H 0.21715 0.49249 0.83681 0.0
C345 C 0.11945 0.51952 0.00098 0.0
C346 C 0.11898 0.53419 0.09097 0.0
C347 C 0.15338 0.54427 0.17567 0.0
C348 C 0.1875 0.54058 0.17169 0.0
C349 C 0.18728 0.52714 0.08196 0.0
C350 C 0.15409 0.5164 -0.00186 0.0
C351 C 0.16199 0.50476 0.91045 0.0
C352 C 0.14264 0.45663 0.86148 0.0
C353 C 0.14976 0.53771 0.83808 0.0
C354 C 0.2046 0.51023 0.95806 0.0
C355 C 0.21867 0.52342 0.05704 0.0
C356 C 0.25724 0.53121 0.11616 0.0
C357 C 0.28194 0.52432 0.07372 0.0
C358 C 0.26829 0.50952 0.97268 0.0
C359 C 0.22888 0.50317 0.91449 0.0
H360 H 0.7562 0.17291 0.1795 0.0
H361 H 0.6852 0.26416 0.04271 0.0
H362 H 0.73018 0.29508 0.97847 0.0
H363 H 0.84198 0.24976 0.25768 0.0
H364 H 0.86772 0.20993 0.23746 0.0
H365 H 0.82819 0.19189 0.26409 0.0
H366 H 0.79741 0.13472 0.10574 0.0
H367 H 0.83684 0.1528 0.07836 0.0
H368 H 0.79002 0.15349 0.99114 0.0
H369 H 0.78351 0.31816 0.93549 0.0
H370 H 0.84438 0.33647 0.92676 0.0
H371 H 0.88264 0.23254 0.09731 0.0
C372 C 0.74999 0.19894 0.13478 0.0
C373 C 0.71729 0.21614 0.11542 0.0
C374 C 0.71024 0.25076 0.05838 0.0
C375 C 0.73544 0.26823 0.02109 0.0
C376 C 0.76759 0.25081 0.04195 0.0
C377 C 0.77513 0.21717 0.09799 0.0
C378 C 0.81316 0.20692 0.11589 0.0
C379 C 0.8393 0.21514 0.22526 0.0
C380 C 0.8091 0.15914 0.07003 0.0
C381 C 0.82611 0.24068 0.06279 0.0
C382 C 0.79907 0.26508 0.01936 0.0
C383 C 0.80488 0.29924 0.969 0.0
C384 C 0.83961 0.30952 0.9649 0.0
C385 C 0.86834 0.28614 0.01196 0.0
C386 C 0.86109 0.2506 0.05964 0.0
H387 H 0.50219 0.88941 0.07204 0.0
H388 H 0.50922 0.89847 0.7975 0.0
H389 H 0.51108 0.81886 0.77949 0.0
H390 H 0.5645 0.80719 0.15083 0.0
H391 H 0.53779 0.77472 0.20311 0.0
H392 H 0.53726 0.83308 0.20094 0.0
H393 H 0.46507 0.81715 0.10709 0.0
H394 H 0.46566 0.75923 0.11693 0.0
H395 H 0.44284 0.77573 -0.00042 0.0
H396 H 0.50584 0.73283 0.78015 0.0
H397 H 0.49929 0.65431 0.80683 0.0
H398 H 0.49985 0.69424 0.08532 0.0
C399 C 0.50521 0.87514 0.00929 0.0
C400 C 0.50697 0.90302 0.93757 0.0
C401 C 0.50887 0.8802 0.85535 0.0
C402 C 0.50975 0.83405 0.84401 0.0
C403 C 0.5082 0.80802 0.9147 0.0
C404 C 0.50621 0.82783 -0.00342 0.0
C405 C 0.50411 0.79096 0.06008 0.0
C406 C 0.53794 0.80219 0.15974 0.0
C407 C 0.46724 0.78551 0.07168 0.0
C408 C 0.50534 0.74799 0.00177 0.0
C409 C 0.50727 0.75892 0.91738 0.0
C410 C 0.50571 0.72488 0.84803 0.0
C411 C 0.50254 0.67957 0.86461 0.0
C412 C 0.50256 0.66625 0.95225 0.0
C413 C 0.50282 0.70207 0.02044 0.0
H414 H 0.88291 0.54188 0.85059 0.0
H415 H 0.9507 0.52656 0.14719 0.0
H416 H 0.89766 0.53069 0.18899 0.0
H417 H 0.83432 0.62208 0.91399 0.0
H418 H 0.79005 0.6005 0.81088 0.0
H419 H 0.83312 0.59593 0.80254 0.0
H420 H 0.81049 0.51108 0.75243 0.0
H421 H 0.76705 0.51481 0.75991 0.0
H422 H 0.79569 0.47852 0.82879 0.0
H423 H 0.83492 0.53165 0.19638 0.0
H424 H 0.77203 0.5427 0.17598 0.0
H425 H 0.74512 0.56289 0.87839 0.0
C426 C 0.88675 0.54032 0.92477 0.0
C427 C 0.92183 0.53555 -0.00331 0.0
C428 C 0.9251 0.5324 0.09206 0.0
C429 C 0.89467 0.53387 0.11602 0.0
C430 C 0.8606 0.53865 0.04385 0.0
C431 C 0.85667 0.54286 0.95054 0.0
C432 C 0.81729 0.54938 0.8877 0.0
C433 C 0.81881 0.59469 0.85172 0.0
C434 C 0.7964 0.51117 0.80213 0.0
C435 C 0.79974 0.54797 0.95991 0.0
C436 C 0.82499 0.5408 0.04909 0.0
C437 C 0.81505 0.53747 0.12684 0.0
C438 C 0.77903 0.54323 0.11436 0.0
C439 C 0.75327 0.55288 0.0253 0.0
C440 C 0.76387 0.55473 0.94688 0.0
H441 H 0.15491 0.83944 0.98351 0.0
H442 H 0.18935 0.74545 0.18498 0.0
H443 H 0.25464 0.76827 0.20562 0.0
H444 H 0.20802 0.81854 0.86198 0.0
H445 H 0.22029 0.87494 0.84368 0.0
H446 H 0.17777 0.85701 0.85721 0.0
H447 H 0.19895 0.92091 0.00084 0.0
H448 H 0.24157 0.93924 0.98736 0.0
H449 H 0.24382 0.92654 0.10302 0.0
H450 H 0.31369 0.79362 0.18781 0.0
H451 H 0.36271 0.82024 0.13321 0.0
H452 H 0.29008 0.89764 0.94288 0.0
C453 C 0.17649 0.82484 0.03442 0.0
C454 C 0.1673 0.79096 0.08318 0.0
C455 C 0.19596 0.77151 0.14702 0.0
C456 C 0.2331 0.78442 0.15958 0.0
C457 C 0.24112 0.817 0.10823 0.0
C458 C 0.21371 0.83723 0.04741 0.0
C459 C 0.22898 0.86805 0.99329 0.0
C460 C 0.20749 0.85375 0.88252 0.0
C461 C 0.22829 0.91657 0.02293 0.0
C462 C 0.26879 0.86066 0.03033 0.0
C463 C 0.27538 0.83161 0.09767 0.0
C464 C 0.30912 0.81702 0.13649 0.0
C465 C 0.33667 0.83206 0.10468 0.0
C466 C 0.33022 0.8612 0.03446 0.0
C467 C 0.29608 0.87623 -0.00163 0.0
H468 H 0.53732 0.39271 0.13073 0.0
H469 H 0.48858 0.40221 0.82396 0.0
H470 H 0.48044 0.3202 0.78607 0.0
H471 H 0.58918 0.30759 0.11833 0.0
H472 H 0.58166 0.27954 0.21051 0.0
H473 H 0.58161 0.33809 0.21198 0.0
H474 H 0.51569 0.32419 0.21011 0.0
H475 H 0.51553 0.26552 0.20827 0.0
H476 H 0.47807 0.28433 0.11502 0.0
H477 H 0.48044 0.23027 0.78324 0.0
H478 H 0.4896 0.15404 0.81614 0.0
H479 H 0.53866 0.20153 0.12453 0.0
C480 C 0.52431 0.37771 0.05506 0.0
C481 C 0.5123 0.40591 0.98078 0.0
C482 C 0.49685 0.38314 0.88352 0.0
C483 C 0.49239 0.33571 0.86122 0.0
C484 C 0.50391 0.30922 0.93608 0.0
C485 C 0.5197 0.33004 0.03158 0.0
C486 C 0.53089 0.29477 0.09966 0.0
C487 C 0.57335 0.30566 0.16396 0.0
C488 C 0.50875 0.29206 0.16203 0.0
C489 C 0.51962 0.25087 0.02905 0.0
C490 C 0.50379 0.25966 0.93451 0.0
C491 C 0.4923 0.22403 0.85769 0.0
C492 C 0.49715 0.1798 0.87711 0.0
C493 C 0.51275 0.16901 0.97327 0.0
C494 C 0.5247 0.20652 0.0496 0.0
loop_
_geom_bond_atom_site_label_1
_geom_bond_atom_site_label_2
_geom_bond_distance
_geom_bond_site_symmetry_2
_ccdc_geom_bond_type
Gd0 N31 2.661 1_454 S
Gd0 N37 2.601 . S
Gd0 O44 2.545 . S
Gd0 O45 2.606 . S
Gd0 O47 2.429 . S
Gd0 O48 2.545 . S
Gd0 O49 2.412 1_554 S
Gd0 O51 2.362 1_454 S
Gd0 O52 2.320 1_554 S
Gd0 C59 2.828 . S
Gd1 N10 2.661 1_656 S
Gd1 N14 2.601 . S
Gd1 O45 2.362 1_656 S
Gd1 O46 2.321 1_556 S
Gd1 O50 2.545 . S
Gd1 O51 2.606 . S
Gd1 O53 2.429 . S
Gd1 O54 2.545 . S
Gd1 O55 2.412 1_556 S
Gd1 C68 2.828 . S
C2 C5 1.416 1_554 S
C2 C7 1.431 1_554 S
C2 C8 1.412 . S
C3 C6 1.437 . S
C3 C7 1.317 . S
C3 H22 0.929 . S
C4 C5 1.429 . S
C4 C6 1.413 . S
C4 N14 1.359 1_455 S
C5 C2 1.416 1_556 S
C5 C4 1.429 . S
C5 N10 1.349 1_556 S
C6 C3 1.437 . S
C6 C4 1.413 . S
C6 C16 1.391 1_455 S
C7 C2 1.431 1_556 S
C7 C3 1.317 . S
C7 H18 0.930 1_556 S
C8 C2 1.412 . S
C8 C9 1.355 . S
C8 H20 0.930 . S
C9 C8 1.355 . S
C9 C11 1.402 . S
C9 H21 0.930 . S
N10 Gd1 2.661 1_454 S
N10 C5 1.349 1_554 S
N10 C11 1.307 . S
C11 C9 1.402 . S
C11 N10 1.307 . S
C11 H12 0.930 . S
H12 C11 0.930 . S
C13 N14 1.334 . S
C13 C15 1.394 . S
C13 H17 0.930 . S
N14 Gd1 2.601 . S
N14 C4 1.359 1_655 S
N14 C13 1.334 . S
C15 C13 1.394 . S
C15 C16 1.359 . S
C15 H27 0.930 . S
C16 C6 1.391 1_655 S
C16 C15 1.359 . S
C16 H28 0.933 . S
H17 C13 0.930 . S
H18 C7 0.930 1_554 S
H19 C36 0.930 . S
H20 C8 0.930 . S
H21 C9 0.930 . S
H22 C3 0.929 . S
H23 C41 0.930 . S
H24 C32 0.930 . S
H25 C33 0.930 . S
H26 C57 0.929 . S
H27 C15 0.930 . S
H28 C16 0.933 . S
H29 C58 0.930 1_556 S
H30 C39 0.930 . S
N31 Gd0 2.661 1_656 S
N31 C35 1.347 1_556 S
N31 C36 1.307 . S
C32 H24 0.930 . S
C32 C33 1.355 . S
C32 C34 1.412 . S
C33 H25 0.930 . S
C33 C32 1.355 . S
C33 C36 1.402 . S
C34 C32 1.412 . S
C34 C35 1.416 1_556 S
C34 C58 1.431 1_556 S
C35 N31 1.347 1_554 S
C35 C34 1.416 1_554 S
C35 C38 1.431 . S
C36 H19 0.930 . S
C36 N31 1.307 . S
C36 C33 1.402 . S
N37 Gd0 2.601 . S
N37 C38 1.359 1_455 S
N37 C41 1.334 . S
C38 C35 1.431 . S
C38 N37 1.359 1_655 S
C38 C42 1.413 . S
C39 H30 0.930 . S
C39 C40 1.359 . S
C39 C41 1.394 . S
C40 C39 1.359 . S
C40 C42 1.391 1_455 S
C40 H43 0.937 . S
C41 H23 0.930 . S
C41 N37 1.334 . S
C41 C39 1.394 . S
C42 C38 1.413 . S
C42 C40 1.391 1_655 S
C42 C57 1.437 . S
H43 C40 0.937 . S
O44 Gd0 2.545 . S
O44 C59 1.258 . S
O45 Gd0 2.606 . S
O45 Gd1 2.362 1_454 S
O45 C56 1.284 . S
O46 Gd1 2.321 1_554 S
O46 C66 1.256 1_655 S
O47 Gd0 2.429 . S
O47 C66 1.268 . S
O48 Gd0 2.545 . S
O48 C56 1.250 . S
O49 Gd0 2.412 1_556 S
O49 C59 1.252 1_556 S
O50 Gd1 2.545 . S
O50 C68 1.258 . S
O51 Gd0 2.362 1_656 S
O51 Gd1 2.606 . S
O51 C67 1.284 . S
O52 Gd0 2.320 1_556 S
O52 C75 1.257 1_455 S
O53 Gd1 2.429 . S
O53 C75 1.268 . S
O54 Gd1 2.545 . S
O54 C67 1.250 . S
O55 Gd1 2.412 1_554 S
O55 C68 1.252 1_554 S
C56 O45 1.284 . S
C56 O48 1.250 . S
C57 H26 0.929 . S
C57 C42 1.437 . S
C57 C58 1.317 . S
C58 H29 0.930 1_554 S
C58 C34 1.431 1_554 S
C58 C57 1.317 . S
C59 Gd0 2.828 . S
C59 O44 1.258 . S
C59 O49 1.252 1_554 S
C59 C60 1.497 . S
C60 C59 1.497 . S
C60 C61 1.395 . S
C60 C62 1.381 . S
C61 C60 1.395 . S
C61 C64 1.398 . S
C61 H76 0.930 . S
C62 C60 1.381 . S
C62 C63 1.391 . S
C62 H77 0.930 1_554 S
C63 C62 1.391 . S
C63 C65 1.387 . S
C64 C61 1.398 . S
C64 C65 1.380 . S
C64 H78 0.930 . S
C65 C63 1.387 . S
C65 C64 1.380 . S
C65 H79 0.930 . S
C66 O46 1.256 1_455 S
C66 O47 1.268 . S
C67 O51 1.284 . S
C67 O54 1.250 . S
C68 Gd1 2.828 . S
C68 O50 1.258 . S
C68 O55 1.252 1_556 S
C68 C69 1.497 . S
C69 C68 1.497 . S
C69 C70 1.395 . S
C69 C71 1.381 1_556 S
C70 C69 1.395 . S
C70 C73 1.398 . S
C70 H80 0.930 . S
C71 C69 1.381 1_554 S
C71 C72 1.391 1_554 S
C71 H81 0.930 . S
C72 C71 1.391 1_556 S
C72 C74 1.387 . S
C73 C70 1.398 . S
C73 C74 1.380 . S
C73 H82 0.930 . S
C74 C72 1.387 . S
C74 C73 1.380 . S
C74 H83 0.930 . S
C75 O52 1.257 1_655 S
C75 O53 1.268 . S
H76 C61 0.930 . S
H77 C62 0.930 1_556 S
H78 C64 0.930 . S
H79 C65 0.930 . S
H80 C70 0.930 . S
H81 C71 0.930 . S
H82 C73 0.930 . S
H83 C74 0.930 . S
Gd84 N115 2.661 1_565 S
Gd84 N121 2.601 1_565 S
Gd84 O128 2.545 . S
Gd84 O129 2.606 1_556 S
Gd84 O131 2.429 . S
Gd84 O132 2.545 . S
Gd84 O133 2.412 . S
Gd84 O135 2.362 1_565 S
Gd84 O136 2.324 1_556 S
Gd84 C143 2.828 . S
Gd85 N94 2.661 1_545 S
Gd85 N98 2.601 1_545 S
Gd85 O129 2.362 1_545 S
Gd85 O130 2.324 1_554 S
Gd85 O134 2.545 . S
Gd85 O135 2.606 1_554 S
Gd85 O137 2.429 . S
Gd85 O138 2.545 . S
Gd85 O139 2.412 . S
Gd85 C152 2.828 . S
C86 C89 1.417 . S
C86 C91 1.431 . S
C86 C92 1.412 1_554 S
C87 C90 1.437 . S
C87 C91 1.317 . S
C87 H106 0.929 . S
C88 C89 1.426 . S
C88 C90 1.413 . S
C88 N98 1.359 . S
C89 C86 1.417 . S
C89 C88 1.426 . S
C89 N94 1.350 . S
C90 C87 1.437 . S
C90 C88 1.413 . S
C90 C100 1.391 . S
C91 C86 1.431 . S
C91 C87 1.317 . S
C91 H102 0.930 . S
C92 C86 1.412 1_556 S
C92 C93 1.355 . S
C92 H104 0.930 . S
C93 C92 1.355 . S
C93 C95 1.402 . S
C93 H105 0.930 . S
N94 Gd85 2.661 1_565 S
N94 C89 1.350 . S
N94 C95 1.307 1_554 S
C95 C93 1.402 . S
C95 N94 1.307 1_556 S
C95 H96 0.930 . S
H96 C95 0.930 . S
C97 N98 1.334 1_545 S
C97 C99 1.385 1_545 S
C97 H101 0.930 . S
N98 Gd85 2.601 1_565 S
N98 C88 1.359 . S
N98 C97 1.334 1_565 S
C99 C97 1.385 1_565 S
C99 C100 1.377 . S
C99 H111 0.922 1_565 S
C100 C90 1.391 . S
C100 C99 1.377 . S
C100 H112 0.929 . S
H101 C97 0.930 . S
H102 C91 0.930 . S
H103 C120 0.930 . S
H104 C92 0.930 . S
H105 C93 0.930 . S
H106 C87 0.929 . S
H107 C125 0.930 . S
H108 C116 0.930 . S
H109 C117 0.930 . S
H110 C141 0.929 . S
H111 C99 0.922 1_545 S
H112 C100 0.929 . S
H113 C142 0.930 . S
H114 C123 0.920 1_565 S
N115 Gd84 2.661 1_545 S
N115 C119 1.350 . S
N115 C120 1.307 1_556 S
C116 H108 0.930 . S
C116 C117 1.355 . S
C116 C118 1.412 1_554 S
C117 H109 0.930 . S
C117 C116 1.355 . S
C117 C120 1.402 . S
C118 C116 1.412 1_556 S
C118 C119 1.417 . S
C118 C142 1.431 . S
C119 N115 1.350 . S
C119 C118 1.417 . S
C119 C122 1.426 . S
C120 H103 0.930 . S
C120 N115 1.307 1_554 S
C120 C117 1.402 . S
N121 Gd84 2.601 1_545 S
N121 C122 1.359 . S
N121 C125 1.334 1_545 S
C122 C119 1.426 . S
C122 N121 1.359 . S
C122 C126 1.413 . S
C123 H114 0.920 1_545 S
C123 C124 1.382 . S
C123 C125 1.382 1_545 S
C124 C123 1.382 . S
C124 C126 1.391 . S
C124 H127 0.929 . S
C125 H107 0.930 . S
C125 N121 1.334 1_565 S
C125 C123 1.382 1_565 S
C126 C122 1.413 . S
C126 C124 1.391 . S
C126 C141 1.437 . S
H127 C124 0.929 . S
O128 Gd84 2.545 . S
O128 C143 1.258 . S
O129 Gd84 2.606 1_554 S
O129 Gd85 2.362 1_565 S
O129 C140 1.284 . S
O130 Gd85 2.324 1_556 S
O130 C150 1.253 . S
O131 Gd84 2.429 . S
O131 C150 1.265 1_565 S
O132 Gd84 2.545 . S
O132 C140 1.250 1_556 S
O133 Gd84 2.412 . S
O133 C143 1.252 . S
O134 Gd85 2.545 . S
O134 C152 1.258 . S
O135 Gd84 2.362 1_545 S
O135 Gd85 2.606 1_556 S
O135 C151 1.284 . S
O136 Gd84 2.324 1_554 S
O136 C159 1.253 . S
O137 Gd85 2.429 . S
O137 C159 1.267 1_545 S
O138 Gd85 2.545 . S
O138 C151 1.250 1_554 S
O139 Gd85 2.412 . S
O139 C152 1.252 . S
C140 O129 1.284 . S
C140 O132 1.250 1_554 S
C141 H110 0.929 . S
C141 C126 1.437 . S
C141 C142 1.317 . S
C142 H113 0.930 . S
C142 C118 1.431 . S
C142 C141 1.317 . S
C143 Gd84 2.828 . S
C143 O128 1.258 . S
C143 O133 1.252 . S
C143 C144 1.497 . S
C144 C143 1.497 . S
C144 C145 1.395 . S
C144 C146 1.380 . S
C145 C144 1.395 . S
C145 C148 1.398 . S
C145 H160 0.930 . S
C146 C144 1.380 . S
C146 C147 1.391 . S
C146 H161 0.930 1_556 S
C147 C146 1.391 . S
C147 C149 1.387 . S
C148 C145 1.398 . S
C148 C149 1.380 . S
C148 H162 0.930 . S
C149 C147 1.387 . S
C149 C148 1.380 . S
C149 H163 0.930 . S
C150 O130 1.253 . S
C150 O131 1.265 1_545 S
C151 O135 1.284 . S
C151 O138 1.250 1_556 S
C152 Gd85 2.828 . S
C152 O134 1.258 . S
C152 O139 1.252 . S
C152 C153 1.497 . S
C153 C152 1.497 . S
C153 C154 1.395 . S
C153 C155 1.380 . S
C154 C153 1.395 . S
C154 C157 1.398 . S
C154 H164 0.930 . S
C155 C153 1.380 . S
C155 C156 1.391 . S
C155 H165 0.930 1_554 S
C156 C155 1.391 . S
C156 C158 1.387 . S
C157 C154 1.398 . S
C157 C158 1.380 . S
C157 H166 0.930 . S
C158 C156 1.387 . S
C158 C157 1.380 . S
C158 H167 0.930 . S
C159 O136 1.253 . S
C159 O137 1.267 1_565 S
H160 C145 0.930 . S
H161 C146 0.930 1_554 S
H162 C148 0.930 . S
H163 C149 0.930 . S
H164 C154 0.930 . S
H165 C155 0.930 1_556 S
H166 C157 0.930 . S
H167 C158 0.930 . S
Gd168 N199 2.661 . S
Gd168 N205 2.601 . S
Gd168 O212 2.545 . S
Gd168 O213 2.606 1_554 S
Gd168 O215 2.429 . S
Gd168 O216 2.545 . S
Gd168 O217 2.412 . S
Gd168 O219 2.362 . S
Gd168 O220 2.324 1_554 S
Gd168 C227 2.828 . S
Gd169 N178 2.661 . S
Gd169 N182 2.601 . S
Gd169 O213 2.362 . S
Gd169 O214 2.324 1_556 S
Gd169 O218 2.545 . S
Gd169 O219 2.606 1_556 S
Gd169 O221 2.429 . S
Gd169 O222 2.545 . S
Gd169 O223 2.412 . S
Gd169 C236 2.828 . S
C170 C173 1.417 . S
C170 C175 1.431 . S
C170 C176 1.412 1_556 S
C171 C174 1.437 . S
C171 C175 1.317 . S
C171 H190 0.929 . S
C172 C173 1.426 . S
C172 C174 1.413 . S
C172 N182 1.359 . S
C173 C170 1.417 . S
C173 C172 1.426 . S
C173 N178 1.350 . S
C174 C171 1.437 . S
C174 C172 1.413 . S
C174 C184 1.391 . S
C175 C170 1.431 . S
C175 C171 1.317 . S
C175 H186 0.930 . S
C176 C170 1.412 1_554 S
C176 C177 1.355 . S
C176 H188 0.930 . S
C177 C176 1.355 . S
C177 C179 1.402 . S
C177 H189 0.930 . S
N178 Gd169 2.661 . S
N178 C173 1.350 . S
N178 C179 1.307 1_556 S
C179 C177 1.402 . S
C179 N178 1.307 1_554 S
C179 H180 0.930 . S
H180 C179 0.930 . S
C181 N182 1.334 . S
C181 C183 1.394 . S
C181 H185 0.930 . S
N182 Gd169 2.601 . S
N182 C172 1.359 . S
N182 C181 1.334 . S
C183 C181 1.394 . S
C183 C184 1.359 . S
C183 H195 0.930 . S
C184 C174 1.391 . S
C184 C183 1.359 . S
C184 H196 0.929 . S
H185 C181 0.930 . S
H186 C175 0.930 . S
H187 C204 0.930 . S
H188 C176 0.930 . S
H189 C177 0.930 . S
H190 C171 0.929 . S
H191 C209 0.930 . S
H192 C200 0.930 . S
H193 C201 0.930 . S
H194 C225 0.929 . S
H195 C183 0.930 . S
H196 C184 0.929 . S
H197 C226 0.930 . S
H198 C207 0.930 . S
N199 Gd168 2.661 . S
N199 C203 1.350 . S
N199 C204 1.307 1_554 S
C200 H192 0.930 . S
C200 C201 1.355 . S
C200 C202 1.412 1_556 S
C201 H193 0.930 . S
C201 C200 1.355 . S
C201 C204 1.402 . S
C202 C200 1.412 1_554 S
C202 C203 1.417 . S
C202 C226 1.431 . S
C203 N199 1.350 . S
C203 C202 1.417 . S
C203 C206 1.426 . S
C204 H187 0.930 . S
C204 N199 1.307 1_556 S
C204 C201 1.402 . S
N205 Gd168 2.601 . S
N205 C206 1.359 . S
N205 C209 1.334 . S
C206 C203 1.426 . S
C206 N205 1.359 . S
C206 C210 1.413 . S
C207 H198 0.930 . S
C207 C208 1.359 . S
C207 C209 1.394 . S
C208 C207 1.359 . S
C208 C210 1.391 . S
C208 H211 0.929 . S
C209 H191 0.930 . S
C209 N205 1.334 . S
C209 C207 1.394 . S
C210 C206 1.413 . S
C210 C208 1.391 . S
C210 C225 1.437 . S
H211 C208 0.929 . S
O212 Gd168 2.545 . S
O212 C227 1.258 . S
O213 Gd168 2.606 1_556 S
O213 Gd169 2.362 . S
O213 C224 1.284 . S
O214 Gd169 2.324 1_554 S
O214 C234 1.254 . S
O215 Gd168 2.429 . S
O215 C234 1.268 . S
O216 Gd168 2.545 . S
O216 C224 1.250 1_554 S
O217 Gd168 2.412 . S
O217 C227 1.252 . S
O218 Gd169 2.545 . S
O218 C236 1.258 . S
O219 Gd168 2.362 . S
O219 Gd169 2.606 1_554 S
O219 C235 1.284 . S
O220 Gd168 2.324 1_556 S
O220 C243 1.254 . S
O221 Gd169 2.429 . S
O221 C243 1.268 . S
O222 Gd169 2.545 . S
O222 C235 1.250 1_556 S
O223 Gd169 2.412 . S
O223 C236 1.252 . S
C224 O213 1.284 . S
C224 O216 1.250 1_556 S
C225 H194 0.929 . S
C225 C210 1.437 . S
C225 C226 1.317 . S
C226 H197 0.930 . S
C226 C202 1.431 . S
C226 C225 1.317 . S
C227 Gd168 2.828 . S
C227 O212 1.258 . S
C227 O217 1.252 . S
C227 C228 1.497 . S
C228 C227 1.497 . S
C228 C229 1.395 . S
C228 C230 1.380 . S
C229 C228 1.395 . S
C229 C232 1.398 . S
C229 H244 0.930 . S
C230 C228 1.380 . S
C230 C231 1.391 . S
C230 H245 0.930 1_554 S
C231 C230 1.391 . S
C231 C233 1.387 . S
C232 C229 1.398 . S
C232 C233 1.380 . S
C232 H246 0.930 . S
C233 C231 1.387 . S
C233 C232 1.380 . S
C233 H247 0.930 . S
C234 O214 1.254 . S
C234 O215 1.268 . S
C235 O219 1.284 . S
C235 O222 1.250 1_554 S
C236 Gd169 2.828 . S
C236 O218 1.258 . S
C236 O223 1.252 . S
C236 C237 1.497 . S
C237 C236 1.497 . S
C237 C238 1.395 . S
C237 C239 1.380 . S
C238 C237 1.395 . S
C238 C241 1.398 . S
C238 H248 0.930 . S
C239 C237 1.380 . S
C239 C240 1.391 . S
C239 H249 0.930 1_556 S
C240 C239 1.391 . S
C240 C242 1.387 . S
C241 C238 1.398 . S
C241 C242 1.380 . S
C241 H250 0.930 . S
C242 C240 1.387 . S
C242 C241 1.380 . S
C242 H251 0.930 . S
C243 O220 1.254 . S
C243 O221 1.268 . S
H244 C229 0.930 . S
H245 C230 0.930 1_556 S
H246 C232 0.930 . S
H247 C233 0.930 . S
H248 C238 0.930 . S
H249 C239 0.930 1_554 S
H250 C241 0.930 . S
H251 C242 0.930 . S
H252 C264 0.928 1_455 S
H253 C266 0.930 . S
H254 C267 0.930 . S
H255 C271 0.959 . S
H256 C271 0.959 . S
H257 C271 0.961 . S
H258 C272 0.960 . S
H259 C272 0.961 . S
H260 C272 0.959 . S
H261 C275 0.929 . S
H262 C276 0.931 . S
H263 C278 0.930 . S
C264 H252 0.928 1_655 S
C264 C265 1.399 . S
C264 C269 1.399 . S
C265 C264 1.399 . S
C265 C266 1.376 . S
C266 H253 0.930 . S
C266 C265 1.376 . S
C266 C267 1.388 . S
C267 H254 0.930 . S
C267 C266 1.388 . S
C267 C268 1.390 . S
C268 C267 1.390 . S
C268 C269 1.394 . S
C268 C274 1.465 . S
C269 C264 1.399 . S
C269 C268 1.394 . S
C269 C270 1.516 . S
C270 C269 1.516 . S
C270 C271 1.502 1_655 S
C270 C272 1.561 . S
C270 C273 1.526 . S
C271 H255 0.959 . S
C271 H256 0.959 . S
C271 H257 0.961 . S
C271 C270 1.502 1_455 S
C272 H258 0.960 . S
C272 H259 0.961 . S
C272 H260 0.959 . S
C272 C270 1.561 . S
C273 C270 1.526 . S
C273 C274 1.396 . S
C273 C278 1.390 1_655 S
C274 C268 1.465 . S
C274 C273 1.396 . S
C274 C275 1.399 . S
C275 H261 0.929 . S
C275 C274 1.399 . S
C275 C276 1.385 . S
C276 H262 0.931 . S
C276 C275 1.385 . S
C276 C277 1.389 1_655 S
C277 C276 1.389 1_455 S
C277 C278 1.387 . S
C278 H263 0.930 . S
C278 C273 1.390 1_455 S
C278 C277 1.387 . S
H279 C291 0.930 . S
H280 C293 0.930 . S
H281 C294 0.930 . S
H282 C298 0.959 . S
H283 C298 0.959 . S
H284 C298 0.961 . S
H285 C299 0.960 . S
H286 C299 0.961 . S
H287 C299 0.959 . S
H288 C302 0.929 . S
H289 C303 0.931 . S
H290 C305 0.930 . S
C291 H279 0.930 . S
C291 C292 1.399 . S
C291 C296 1.399 . S
C292 C291 1.399 . S
C292 C293 1.376 1_565 S
C293 H280 0.930 . S
C293 C292 1.376 1_545 S
C293 C294 1.388 . S
C294 H281 0.930 . S
C294 C293 1.388 . S
C294 C295 1.390 . S
C295 C294 1.390 . S
C295 C296 1.394 1_545 S
C295 C301 1.465 . S
C296 C291 1.399 . S
C296 C295 1.394 1_565 S
C296 C297 1.516 . S
C297 C296 1.516 . S
C297 C298 1.502 . S
C297 C299 1.561 . S
C297 C300 1.526 . S
C298 H282 0.959 . S
C298 H283 0.959 . S
C298 H284 0.961 . S
C298 C297 1.502 . S
C299 H285 0.960 . S
C299 H286 0.961 . S
C299 H287 0.959 . S
C299 C297 1.561 . S
C300 C297 1.526 . S
C300 C301 1.396 1_565 S
C300 C305 1.390 . S
C301 C295 1.465 . S
C301 C300 1.396 1_545 S
C301 C302 1.399 . S
C302 H288 0.929 . S
C302 C301 1.399 . S
C302 C303 1.385 . S
C303 H289 0.931 . S
C303 C302 1.385 . S
C303 C304 1.389 . S
C304 C303 1.389 . S
C304 C305 1.387 1_545 S
C305 H290 0.930 . S
C305 C300 1.390 . S
C305 C304 1.387 1_565 S
H306 C318 0.930 . S
H307 C320 0.930 . S
H308 C321 0.930 . S
H309 C325 0.959 . S
H310 C325 0.959 . S
H311 C325 0.961 . S
H312 C326 0.960 . S
H313 C326 0.961 . S
H314 C326 0.959 . S
H315 C329 0.929 . S
H316 C330 0.931 . S
H317 C332 0.930 . S
C318 H306 0.930 . S
C318 C319 1.399 . S
C318 C323 1.399 . S
C319 C318 1.399 . S
C319 C320 1.376 . S
C320 H307 0.930 . S
C320 C319 1.376 . S
C320 C321 1.388 . S
C321 H308 0.930 . S
C321 C320 1.388 . S
C321 C322 1.390 . S
C322 C321 1.390 . S
C322 C323 1.394 . S
C322 C328 1.465 . S
C323 C318 1.399 . S
C323 C322 1.394 . S
C323 C324 1.516 . S
C324 C323 1.516 . S
C324 C325 1.502 . S
C324 C326 1.561 . S
C324 C327 1.526 . S
C325 H309 0.959 . S
C325 H310 0.959 . S
C325 H311 0.961 . S
C325 C324 1.502 . S
C326 H312 0.960 . S
C326 H313 0.961 . S
C326 H314 0.959 . S
C326 C324 1.561 . S
C327 C324 1.526 . S
C327 C328 1.396 . S
C327 C332 1.390 . S
C328 C322 1.465 . S
C328 C327 1.396 . S
C328 C329 1.399 . S
C329 H315 0.929 . S
C329 C328 1.399 . S
C329 C330 1.385 . S
C330 H316 0.931 . S
C330 C329 1.385 . S
C330 C331 1.389 . S
C331 C330 1.389 . S
C331 C332 1.387 . S
C332 H317 0.930 . S
C332 C327 1.390 . S
C332 C331 1.387 . S
H333 C345 0.930 . S
H334 C347 0.930 . S
H335 C348 0.930 . S
H336 C352 0.959 . S
H337 C352 0.959 . S
H338 C352 0.961 . S
H339 C353 0.960 . S
H340 C353 0.961 . S
H341 C353 0.959 . S
H342 C356 0.929 . S
H343 C357 0.931 . S
H344 C359 0.930 . S
C345 H333 0.930 . S
C345 C346 1.399 1_556 S
C345 C350 1.399 . S
C346 C345 1.399 1_554 S
C346 C347 1.376 . S
C347 H334 0.930 . S
C347 C346 1.376 . S
C347 C348 1.388 . S
C348 H335 0.930 . S
C348 C347 1.388 . S
C348 C349 1.390 . S
C349 C348 1.390 . S
C349 C350 1.394 1_554 S
C349 C355 1.465 . S
C350 C345 1.399 . S
C350 C349 1.394 1_556 S
C350 C351 1.516 . S
C351 C350 1.516 . S
C351 C352 1.502 . S
C351 C353 1.561 . S
C351 C354 1.526 . S
C352 H336 0.959 . S
C352 H337 0.959 . S
C352 H338 0.961 . S
C352 C351 1.502 . S
C353 H339 0.960 . S
C353 H340 0.961 . S
C353 H341 0.959 . S
C353 C351 1.561 . S
C354 C351 1.526 . S
C354 C355 1.396 1_556 S
C354 C359 1.390 . S
C355 C349 1.465 . S
C355 C354 1.396 1_554 S
C355 C356 1.399 . S
C356 H342 0.929 . S
C356 C355 1.399 . S
C356 C357 1.385 . S
C357 H343 0.931 . S
C357 C356 1.385 . S
C357 C358 1.389 . S
C358 C357 1.389 . S
C358 C359 1.387 1_554 S
C359 H344 0.930 . S
C359 C354 1.390 . S
C359 C358 1.387 1_556 S
H360 C372 0.930 . S
H361 C374 0.930 . S
H362 C375 0.930 . S
H363 C379 0.959 1_554 S
H364 C379 0.959 . S
H365 C379 0.961 . S
H366 C380 0.960 . S
H367 C380 0.961 . S
H368 C380 0.959 . S
H369 C383 0.929 . S
H370 C384 0.931 . S
H371 C386 0.930 . S
C372 H360 0.930 . S
C372 C373 1.399 1_556 S
C372 C377 1.399 . S
C373 C372 1.399 1_554 S
C373 C374 1.376 . S
C374 H361 0.930 . S
C374 C373 1.376 . S
C374 C375 1.388 . S
C375 H362 0.930 . S
C375 C374 1.388 . S
C375 C376 1.390 . S
C376 C375 1.390 . S
C376 C377 1.394 1_554 S
C376 C382 1.465 . S
C377 C372 1.399 . S
C377 C376 1.394 1_556 S
C377 C378 1.516 . S
C378 C377 1.516 . S
C378 C379 1.502 . S
C378 C380 1.561 . S
C378 C381 1.526 . S
C379 H363 0.959 1_556 S
C379 H364 0.959 . S
C379 H365 0.961 . S
C379 C378 1.502 . S
C380 H366 0.960 . S
C380 H367 0.961 . S
C380 H368 0.959 . S
C380 C378 1.561 . S
C381 C378 1.526 . S
C381 C382 1.396 1_556 S
C381 C386 1.390 . S
C382 C376 1.465 . S
C382 C381 1.396 1_554 S
C382 C383 1.399 . S
C383 H369 0.929 . S
C383 C382 1.399 . S
C383 C384 1.385 . S
C384 H370 0.931 . S
C384 C383 1.385 . S
C384 C385 1.389 . S
C385 C384 1.389 . S
C385 C386 1.387 1_554 S
C386 H371 0.930 . S
C386 C381 1.390 . S
C386 C385 1.387 1_556 S
H387 C399 0.930 . S
H388 C401 0.930 . S
H389 C402 0.930 . S
H390 C406 0.959 . S
H391 C406 0.959 . S
H392 C406 0.961 . S
H393 C407 0.960 . S
H394 C407 0.961 . S
H395 C407 0.959 . S
H396 C410 0.929 . S
H397 C411 0.931 . S
H398 C413 0.930 . S
C399 H387 0.930 . S
C399 C400 1.399 . S
C399 C404 1.399 . S
C400 C399 1.399 . S
C400 C401 1.376 1_554 S
C401 H388 0.930 . S
C401 C400 1.376 1_556 S
C401 C402 1.388 . S
C402 H389 0.930 . S
C402 C401 1.388 . S
C402 C403 1.390 . S
C403 C402 1.390 . S
C403 C404 1.394 1_556 S
C403 C409 1.465 . S
C404 C399 1.399 . S
C404 C403 1.394 1_554 S
C404 C405 1.516 . S
C405 C404 1.516 . S
C405 C406 1.502 . S
C405 C407 1.561 . S
C405 C408 1.526 . S
C406 H390 0.959 . S
C406 H391 0.959 . S
C406 H392 0.961 . S
C406 C405 1.502 . S
C407 H393 0.960 . S
C407 H394 0.961 . S
C407 H395 0.959 . S
C407 C405 1.561 . S
C408 C405 1.526 . S
C408 C409 1.396 1_554 S
C408 C413 1.390 . S
C409 C403 1.465 . S
C409 C408 1.396 1_556 S
C409 C410 1.399 . S
C410 H396 0.929 . S
C410 C409 1.399 . S
C410 C411 1.385 . S
C411 H397 0.931 . S
C411 C410 1.385 . S
C411 C412 1.389 1_556 S
C412 C411 1.389 1_554 S
C412 C413 1.387 . S
C413 H398 0.930 . S
C413 C408 1.390 . S
C413 C412 1.387 . S
H414 C426 0.930 . S
H415 C428 0.930 . S
H416 C429 0.930 . S
H417 C433 0.959 1_554 S
H418 C433 0.959 . S
H419 C433 0.961 . S
H420 C434 0.960 . S
H421 C434 0.961 . S
H422 C434 0.959 . S
H423 C437 0.929 . S
H424 C438 0.931 . S
H425 C440 0.930 . S
C426 H414 0.930 . S
C426 C427 1.399 . S
C426 C431 1.399 . S
C427 C426 1.399 . S
C427 C428 1.376 1_556 S
C428 H415 0.930 . S
C428 C427 1.376 1_554 S
C428 C429 1.388 . S
C429 H416 0.930 . S
C429 C428 1.388 . S
C429 C430 1.390 . S
C430 C429 1.390 . S
C430 C431 1.394 1_554 S
C430 C436 1.465 . S
C431 C426 1.399 . S
C431 C430 1.394 1_556 S
C431 C432 1.516 . S
C432 C431 1.516 . S
C432 C433 1.502 . S
C432 C434 1.561 . S
C432 C435 1.526 . S
C433 H417 0.959 1_556 S
C433 H418 0.959 . S
C433 H419 0.961 . S
C433 C432 1.502 . S
C434 H420 0.960 . S
C434 H421 0.961 . S
C434 H422 0.959 . S
C434 C432 1.561 . S
C435 C432 1.526 . S
C435 C436 1.396 1_556 S
C435 C440 1.390 . S
C436 C430 1.465 . S
C436 C435 1.396 1_554 S
C436 C437 1.399 . S
C437 H423 0.929 . S
C437 C436 1.399 . S
C437 C438 1.385 . S
C438 H424 0.931 . S
C438 C437 1.385 . S
C438 C439 1.389 . S
C439 C438 1.389 . S
C439 C440 1.387 1_554 S
C440 H425 0.930 . S
C440 C435 1.390 . S
C440 C439 1.387 1_556 S
H441 C453 0.930 . S
H442 C455 0.930 . S
H443 C456 0.930 . S
H444 C460 0.959 . S
H445 C460 0.959 . S
H446 C460 0.961 . S
H447 C461 0.960 . S
H448 C461 0.961 . S
H449 C461 0.959 . S
H450 C464 0.929 . S
H451 C465 0.931 . S
H452 C467 0.930 . S
C453 H441 0.930 . S
C453 C454 1.399 . S
C453 C458 1.399 . S
C454 C453 1.399 . S
C454 C455 1.376 . S
C455 H442 0.930 . S
C455 C454 1.376 . S
C455 C456 1.388 . S
C456 H443 0.930 . S
C456 C455 1.388 . S
C456 C457 1.390 . S
C457 C456 1.390 . S
C457 C458 1.394 . S
C457 C463 1.465 . S
C458 C453 1.399 . S
C458 C457 1.394 . S
C458 C459 1.516 . S
C459 C458 1.516 . S
C459 C460 1.502 . S
C459 C461 1.561 1_556 S
C459 C462 1.526 . S
C460 H444 0.959 . S
C460 H445 0.959 . S
C460 H446 0.961 . S
C460 C459 1.502 . S
C461 H447 0.960 . S
C461 H448 0.961 . S
C461 H449 0.959 . S
C461 C459 1.561 1_554 S
C462 C459 1.526 . S
C462 C463 1.396 . S
C462 C467 1.390 . S
C463 C457 1.465 . S
C463 C462 1.396 . S
C463 C464 1.399 . S
C464 H450 0.929 . S
C464 C463 1.399 . S
C464 C465 1.385 . S
C465 H451 0.931 . S
C465 C464 1.385 . S
C465 C466 1.389 . S
C466 C465 1.389 . S
C466 C467 1.387 . S
C467 H452 0.930 . S
C467 C462 1.390 . S
C467 C466 1.387 . S
H468 C480 0.930 . S
H469 C482 0.930 . S
H470 C483 0.930 . S
H471 C487 0.959 . S
H472 C487 0.959 . S
H473 C487 0.961 . S
H474 C488 0.960 . S
H475 C488 0.961 . S
H476 C488 0.959 . S
H477 C491 0.929 . S
H478 C492 0.931 . S
H479 C494 0.930 . S
C480 H468 0.930 . S
C480 C481 1.399 1_554 S
C480 C485 1.399 . S
C481 C480 1.399 1_556 S
C481 C482 1.376 . S
C482 H469 0.930 . S
C482 C481 1.376 . S
C482 C483 1.388 . S
C483 H470 0.930 . S
C483 C482 1.388 . S
C483 C484 1.390 . S
C484 C483 1.390 . S
C484 C485 1.394 1_556 S
C484 C490 1.465 . S
C485 C480 1.399 . S
C485 C484 1.394 1_554 S
C485 C486 1.516 . S
C486 C485 1.516 . S
C486 C487 1.502 . S
C486 C488 1.561 . S
C486 C489 1.526 . S
C487 H471 0.959 . S
C487 H472 0.959 . S
C487 H473 0.961 . S
C487 C486 1.502 . S
C488 H474 0.960 . S
C488 H475 0.961 . S
C488 H476 0.959 . S
C488 C486 1.561 . S
C489 C486 1.526 . S
C489 C490 1.396 1_554 S
C489 C494 1.390 . S
C490 C484 1.465 . S
C490 C489 1.396 1_556 S
C490 C491 1.399 . S
C491 H477 0.929 . S
C491 C490 1.399 . S
C491 C492 1.385 . S
C492 H478 0.931 . S
C492 C491 1.385 . S
C492 C493 1.389 . S
C493 C492 1.389 . S
C493 C494 1.387 1_556 S
C494 H479 0.930 . S
C494 C489 1.390 . S
C494 C493 1.387 1_554 S
C265 C75 1.469 . S
C277 C66 1.485 . S
C292 C159 1.447 . S
C304 C150 1.502 . S
C319 C243 1.526 . S
C331 C234 1.438 . S
C346 C56 1.556 . S
C358 C240 1.518 1_554 S
C373 C156 0.806 . S
C385 C72 0.887 1_554 S
C400 C140 2.268 . S
C412 C235 2.340 . S
C427 C67 1.509 . S
C439 C231 1.494 . S
C454 C63 0.802 1_556 S
C466 C147 0.845 . S
C481 C224 2.382 . S
C493 C151 2.319 . S
