# Generated by pormake.
# Topology dia, (4)-cn, num edge types: 1
# Building blocks:
#     Node 0, Type 0, BuildingBlock: UXUYUI_clean_sbu_0, # of connection points: 4
#     Node 1, Type 0, BuildingBlock: UXUYUI_clean_sbu_0, # of connection points: 4
#     Node 2, Type 0, BuildingBlock: UXUYUI_clean_sbu_0, # of connection points: 4
#     Node 3, Type 0, BuildingBlock: UXUYUI_clean_sbu_0, # of connection points: 4
#     Node 4, Type 0, BuildingBlock: UXUYUI_clean_sbu_0, # of connection points: 4
#     Node 5, Type 0, BuildingBlock: UXUYUI_clean_sbu_0, # of connection points: 4
#     Node 6, Type 0, BuildingBlock: UXUYUI_clean_sbu_0, # of connection points: 4
#     Node 7, Type 0, BuildingBlock: UXUYUI_clean_sbu_0, # of connection points: 4
#     Edge 8, Type (0, 0), BuildingBlock: CIFDUS_clean_linker_0, # of connection points: 2
#     Edge 9, Type (0, 0), BuildingBlock: CIFDUS_clean_linker_0, # of connection points: 2
#     Edge 10, Type (0, 0), BuildingBlock: CIFDUS_clean_linker_0, # of connection points: 2
#     Edge 11, Type (0, 0), BuildingBlock: CIFDUS_clean_linker_0, # of connection points: 2
#     Edge 12, Type (0, 0), BuildingBlock: CIFDUS_clean_linker_0, # of connection points: 2
#     Edge 13, Type (0, 0), BuildingBlock: CIFDUS_clean_linker_0, # of connection points: 2
#     Edge 14, Type (0, 0), BuildingBlock: CIFDUS_clean_linker_0, # of connection points: 2
#     Edge 15, Type (0, 0), BuildingBlock: CIFDUS_clean_linker_0, # of connection points: 2
#     Edge 16, Type (0, 0), BuildingBlock: CIFDUS_clean_linker_0, # of connection points: 2
#     Edge 17, Type (0, 0), BuildingBlock: CIFDUS_clean_linker_0, # of connection points: 2
#     Edge 18, Type (0, 0), BuildingBlock: CIFDUS_clean_linker_0, # of connection points: 2
#     Edge 19, Type (0, 0), BuildingBlock: CIFDUS_clean_linker_0, # of connection points: 2
#     Edge 20, Type (0, 0), BuildingBlock: CIFDUS_clean_linker_0, # of connection points: 2
#     Edge 21, Type (0, 0), BuildingBlock: CIFDUS_clean_linker_0, # of connection points: 2
#     Edge 22, Type (0, 0), BuildingBlock: CIFDUS_clean_linker_0, # of connection points: 2
#     Edge 23, Type (0, 0), BuildingBlock: CIFDUS_clean_linker_0, # of connection points: 2
# Relax obj value: 0.000
# Max RMSD: 0.003
# Mean RMSD: 0.003
data_MOF--net-dia--node1-UXUYUI_clean_sbu_0--edge1-CIFDUS_clean_linker_0
_symmetry_space_group_name_H-M    P1
_symmetry_Int_Tables_number       1
_symmetry_cell_setting            triclinic
loop_
_symmetry_equiv_pos_as_xyz
'x, y, z'
_cell_length_a     47.015733
_cell_length_b     47.075946
_cell_length_c     47.108304
_cell_angle_alpha  89.955573
_cell_angle_beta   89.959189
_cell_angle_gamma 89.979266
loop_
_atom_site_label
_atom_site_type_symbol
_atom_site_fract_x
_atom_site_fract_y
_atom_site_fract_z
_atom_type_partial_charge
Li0 Li 0.12696 0.1597 0.65668 0.0
Li1 Li 0.16049 0.12302 0.65566 0.0
Li2 Li 0.16234 0.16091 0.61903 0.0
Li3 Li 0.12298 0.1219 0.62016 0.0
C4 C 0.17408 0.18479 0.67907 0.0
N5 N 0.18431 0.2276 0.71782 0.0
C6 C 0.17026 0.17984 0.70808 0.0
C7 C 0.1835 0.21139 0.66979 0.0
C8 C 0.17541 0.2018 0.72733 0.0
C9 C 0.18846 0.23279 0.68971 0.0
C10 C 0.11571 0.09802 0.68128 0.0
C11 C 0.10459 0.04956 0.69361 0.0
N12 N 0.10994 0.05554 0.72134 0.0
C13 C 0.12079 0.10378 0.70992 0.0
C14 C 0.1073 0.07078 0.67303 0.0
C15 C 0.11789 0.08198 0.72984 0.0
C16 C 0.08235 0.17213 0.69541 0.0
N17 N 0.10426 0.18397 0.68071 0.0
C18 C 0.09381 0.22963 0.70046 0.0
C19 C 0.10985 0.21227 0.68255 0.0
C20 C 0.07134 0.2179 0.71617 0.0
C21 C 0.06543 0.18882 0.71325 0.0
H22 H 0.07796 0.14969 0.69327 0.0
H23 H 0.12663 0.22151 0.66996 0.0
C24 C 0.20667 0.11147 0.69241 0.0
N25 N 0.18487 0.09894 0.67819 0.0
C26 C 0.22543 0.09514 0.70863 0.0
C27 C 0.19927 0.05317 0.69509 0.0
C28 C 0.18102 0.07031 0.67915 0.0
C29 C 0.22187 0.06554 0.71015 0.0
H30 H 0.20966 0.13417 0.69102 0.0
H31 H 0.16407 0.06062 0.66716 0.0
C32 C 0.09906 0.18416 0.61516 0.0
N33 N 0.05631 0.22434 0.61798 0.0
C34 C 0.07082 0.17571 0.61889 0.0
C35 C 0.10557 0.21304 0.61278 0.0
C36 C 0.0495 0.19635 0.62031 0.0
C37 C 0.08364 0.23302 0.61425 0.0
C38 C 0.18455 0.09736 0.61203 0.0
C39 C 0.21344 0.10383 0.61446 0.0
C40 C 0.17605 0.06908 0.60892 0.0
C41 C 0.2334 0.08185 0.61387 0.0
C42 C 0.19667 0.0477 0.60836 0.0
N43 N 0.22467 0.05447 0.61086 0.0
C44 C 0.21307 0.1872 0.59922 0.0
C45 C 0.17155 0.19741 0.57253 0.0
C46 C 0.22934 0.20469 0.58155 0.0
N47 N 0.18473 0.18396 0.59443 0.0
C48 C 0.18687 0.21556 0.55473 0.0
C49 C 0.21613 0.21932 0.55918 0.0
H50 H 0.22293 0.17654 0.61701 0.0
H51 H 0.14906 0.19422 0.56903 0.0
C52 C 0.07239 0.0924 0.60429 0.0
N53 N 0.09954 0.09884 0.59664 0.0
C54 C 0.05595 0.07437 0.58734 0.0
C55 C 0.09579 0.06984 0.55517 0.0
C56 C 0.11123 0.08836 0.57241 0.0
C57 C 0.06783 0.06258 0.56266 0.0
H58 H 0.06369 0.10089 0.62378 0.0
H59 H 0.13279 0.09403 0.56672 0.0
O60 O 0.16922 0.16356 0.65989 0.0
O61 O 0.11843 0.11908 0.66146 0.0
O62 O 0.12027 0.16428 0.61446 0.0
O63 O 0.16466 0.11855 0.61317 0.0
H64 H 0.16339 0.15928 0.71564 0.0
H65 H 0.1866 0.21558 0.64742 0.0
H66 H 0.17238 0.19832 0.74982 0.0
H67 H 0.19555 0.25354 0.68281 0.0
H68 H 0.09831 0.02832 0.68752 0.0
H69 H 0.12688 0.12485 0.71668 0.0
H70 H 0.10328 0.06597 0.65095 0.0
H71 H 0.1219 0.08609 0.75207 0.0
H72 H 0.0987 0.25207 0.70173 0.0
H73 H 0.04823 0.17902 0.72502 0.0
H74 H 0.24242 0.10566 0.72003 0.0
H75 H 0.19601 0.0304 0.69516 0.0
H76 H 0.06546 0.15348 0.62099 0.0
H77 H 0.12737 0.21999 0.61035 0.0
H78 H 0.02757 0.19012 0.62334 0.0
H79 H 0.08839 0.25545 0.61262 0.0
H80 H 0.22036 0.12556 0.61712 0.0
H81 H 0.15376 0.0636 0.60752 0.0
H82 H 0.25583 0.08654 0.6159 0.0
H83 H 0.19038 0.02571 0.60615 0.0
H84 H 0.25185 0.20728 0.58568 0.0
H85 H 0.17606 0.22637 0.53754 0.0
H86 H 0.03448 0.0691 0.59383 0.0
H87 H 0.10554 0.06134 0.53615 0.0
Li88 Li 0.86986 0.40421 0.86748 0.0
Li89 Li 0.90687 0.40378 0.90296 0.0
Li90 Li 0.90473 0.36659 0.86725 0.0
Li91 Li 0.86956 0.36842 0.90463 0.0
C92 C 0.91878 0.43533 0.85502 0.0
N93 N 0.93341 0.49084 0.84267 0.0
C94 C 0.9033 0.45782 0.86673 0.0
C95 C 0.94166 0.4411 0.83696 0.0
C96 C 0.91104 0.48572 0.86025 0.0
C97 C 0.94874 0.4693 0.83099 0.0
C98 C 0.8597 0.41634 0.93677 0.0
C99 C 0.86996 0.41098 0.98666 0.0
N100 N 0.848 0.42871 0.99291 0.0
C101 C 0.83727 0.43454 0.94369 0.0
C102 C 0.87623 0.40448 0.95841 0.0
C103 C 0.83168 0.44053 0.9722 0.0
C104 C 0.82033 0.43553 0.85577 0.0
N105 N 0.84592 0.42787 0.84472 0.0
C106 C 0.83706 0.45533 0.80291 0.0
C107 C 0.85448 0.43726 0.81877 0.0
C108 C 0.81066 0.46395 0.81395 0.0
C109 C 0.80232 0.4537 0.84072 0.0
H110 H 0.81402 0.42762 0.87639 0.0
H111 H 0.87502 0.43105 0.81052 0.0
C112 C 0.95866 0.41688 0.9302 0.0
N113 N 0.93208 0.42691 0.92491 0.0
C114 C 0.97788 0.43298 0.9461 0.0
C115 C 0.94207 0.46952 0.95067 0.0
C116 C 0.92353 0.45269 0.93477 0.0
C117 C 0.96969 0.45974 0.95658 0.0
H118 H 0.9649 0.39633 0.92206 0.0
H119 H 0.90232 0.46028 0.93024 0.0
C120 C 0.85531 0.35694 0.83599 0.0
N121 N 0.8402 0.34503 0.78058 0.0
C122 C 0.83154 0.34007 0.83032 0.0
C123 C 0.87144 0.36769 0.81348 0.0
C124 C 0.82423 0.3343 0.80216 0.0
C125 C 0.86345 0.36145 0.78563 0.0
C126 C 0.91766 0.3345 0.91481 0.0
C127 C 0.89995 0.31266 0.9053 0.0
C128 C 0.94197 0.32789 0.93053 0.0
C129 C 0.9069 0.28451 0.91162 0.0
C130 C 0.94821 0.29947 0.93642 0.0
N131 N 0.93069 0.27855 0.92692 0.0
C132 C 0.95255 0.35127 0.83412 0.0
C133 C 0.91682 0.3159 0.83641 0.0
C134 C 0.96905 0.3342 0.81625 0.0
N135 N 0.92695 0.34194 0.84371 0.0
C136 C 0.93274 0.298 0.81892 0.0
C137 C 0.95924 0.30708 0.80838 0.0
H138 H 0.96004 0.37212 0.84016 0.0
H139 H 0.89627 0.30902 0.84405 0.0
C140 C 0.81827 0.34155 0.91906 0.0
N141 N 0.84503 0.34664 0.92864 0.0
C142 C 0.7993 0.32544 0.93525 0.0
C143 C 0.8357 0.32033 0.9711 0.0
C144 C 0.854 0.33646 0.95414 0.0
C145 C 0.80791 0.31454 0.9617 0.0
H146 H 0.81172 0.34992 0.8987 0.0
H147 H 0.87539 0.3408 0.96132 0.0
O148 O 0.9117 0.40776 0.861 0.0
O149 O 0.86532 0.41033 0.9089 0.0
O150 O 0.86266 0.36265 0.86351 0.0
O151 O 0.91139 0.36227 0.90892 0.0
H152 H 0.88544 0.45385 0.88062 0.0
H153 H 0.95382 0.42396 0.82763 0.0
H154 H 0.89923 0.5033 0.86919 0.0
H155 H 0.96641 0.47407 0.81707 0.0
H156 H 0.88258 0.40194 1.0036 0.0
H157 H 0.82432 0.44398 0.9272 0.0
H158 H 0.89376 0.39046 0.95353 0.0
H159 H 0.81436 0.45457 0.97786 0.0
H160 H 0.84446 0.46298 0.78252 0.0
H161 H 0.782 0.45954 0.84986 0.0
H162 H 0.99881 0.42439 0.95039 0.0
H163 H 0.93492 0.49015 0.95791 0.0
H164 H 0.81888 0.33149 0.8475 0.0
H165 H 0.88999 0.38065 0.8174 0.0
H166 H 0.80588 0.32129 0.79746 0.0
H167 H 0.87574 0.36965 0.76802 0.0
H168 H 0.881 0.31733 0.89317 0.0
H169 H 0.95587 0.34455 0.93811 0.0
H170 H 0.89338 0.26741 0.90437 0.0
H171 H 0.96697 0.29404 0.94855 0.0
H172 H 0.98904 0.34243 0.80835 0.0
H173 H 0.92439 0.27718 0.8139 0.0
H174 H 0.77826 0.32124 0.92693 0.0
H175 H 0.84317 0.31274 0.99147 0.0
Li176 Li 0.62341 0.15096 0.15359 0.0
Li177 Li 0.65866 0.11221 0.15372 0.0
Li178 Li 0.65946 0.14993 0.11527 0.0
Li179 Li 0.62305 0.11235 0.11619 0.0
C180 C 0.6744 0.17581 0.1734 0.0
N181 N 0.69253 0.22058 0.20669 0.0
C182 C 0.6847 0.17081 0.20078 0.0
C183 C 0.67383 0.20352 0.16278 0.0
C184 C 0.69361 0.19374 0.21734 0.0
C185 C 0.68296 0.22589 0.17997 0.0
C186 C 0.61159 0.08955 0.1783 0.0
C187 C 0.61328 0.04099 0.19462 0.0
N188 N 0.60242 0.04931 0.22006 0.0
C189 C 0.6002 0.09758 0.20451 0.0
C190 C 0.61795 0.061 0.1732 0.0
C191 C 0.5958 0.07693 0.22538 0.0
C192 C 0.57634 0.18628 0.16728 0.0
N193 N 0.60067 0.17452 0.17752 0.0
C194 C 0.59221 0.19483 0.22325 0.0
C195 C 0.60867 0.17827 0.20498 0.0
C196 C 0.56701 0.20743 0.2133 0.0
C197 C 0.55916 0.20299 0.18484 0.0
H198 H 0.57005 0.1824 0.14556 0.0
H199 H 0.62757 0.16795 0.2129 0.0
C200 C 0.70257 0.07292 0.16669 0.0
N201 N 0.68135 0.08896 0.17801 0.0
C202 C 0.71873 0.05502 0.18405 0.0
C203 C 0.69084 0.07044 0.22432 0.0
C204 C 0.67567 0.08848 0.20632 0.0
C205 C 0.7126 0.0534 0.21316 0.0
H206 H 0.70684 0.07392 0.14415 0.0
H207 H 0.65918 0.10195 0.21492 0.0
C208 C 0.60947 0.17653 0.09515 0.0
N209 N 0.59375 0.22197 0.06146 0.0
C210 C 0.59817 0.17186 0.06812 0.0
C211 C 0.61234 0.2043 0.10521 0.0
C212 C 0.59047 0.19512 0.05135 0.0
C213 C 0.60439 0.22699 0.08782 0.0
C214 C 0.66857 0.08895 0.0906 0.0
C215 C 0.67521 0.09841 0.06326 0.0
C216 C 0.6654 0.05989 0.09575 0.0
C217 C 0.67811 0.0786 0.04137 0.0
C218 C 0.66842 0.04075 0.07329 0.0
N219 N 0.67463 0.05043 0.04679 0.0
C220 C 0.70986 0.17966 0.1031 0.0
C221 C 0.67613 0.18162 0.06582 0.0
C222 C 0.72886 0.19633 0.08751 0.0
N223 N 0.68397 0.17286 0.09221 0.0
C224 C 0.6944 0.19845 0.04954 0.0
C225 C 0.72118 0.20604 0.06036 0.0
H226 H 0.71575 0.17213 0.12397 0.0
H227 H 0.65589 0.17522 0.05717 0.0
C228 C 0.57982 0.07182 0.10697 0.0
N229 N 0.59907 0.08859 0.09346 0.0
C230 C 0.56242 0.05343 0.09155 0.0
C231 C 0.58433 0.07044 0.04836 0.0
C232 C 0.60135 0.08849 0.06467 0.0
C233 C 0.56466 0.05241 0.06183 0.0
H234 H 0.57785 0.07273 0.12978 0.0
H235 H 0.61647 0.10234 0.05433 0.0
O236 O 0.66555 0.15357 0.15693 0.0
O237 O 0.61636 0.10954 0.15774 0.0
O238 O 0.61724 0.15398 0.11177 0.0
O239 O 0.66541 0.10805 0.11223 0.0
H240 H 0.6856 0.14947 0.20924 0.0
H241 H 0.66673 0.20772 0.14138 0.0
H242 H 0.70141 0.1902 0.23865 0.0
H243 H 0.68255 0.24745 0.17203 0.0
H244 H 0.61829 0.01886 0.19101 0.0
H245 H 0.59488 0.11951 0.20874 0.0
H246 H 0.62653 0.0544 0.15298 0.0
H247 H 0.58714 0.08286 0.24581 0.0
H248 H 0.59922 0.19776 0.24494 0.0
H249 H 0.53966 0.21181 0.17638 0.0
H250 H 0.73542 0.04215 0.17477 0.0
H251 H 0.6858 0.06999 0.24676 0.0
H252 H 0.59552 0.15052 0.06009 0.0
H253 H 0.62032 0.20829 0.12633 0.0
H254 H 0.58188 0.19181 0.03032 0.0
H255 H 0.60657 0.24859 0.09533 0.0
H256 H 0.67788 0.1208 0.05892 0.0
H257 H 0.66066 0.05218 0.11684 0.0
H258 H 0.68306 0.08563 0.02007 0.0
H259 H 0.66587 0.01821 0.07695 0.0
H260 H 0.74922 0.20179 0.09673 0.0
H261 H 0.68786 0.20499 0.02849 0.0
H262 H 0.54715 0.04037 0.10278 0.0
H263 H 0.58686 0.07028 0.02552 0.0
Li264 Li 0.90974 0.90853 0.40873 0.0
Li265 Li 0.87408 0.90523 0.36893 0.0
Li266 Li 0.87533 0.86983 0.40656 0.0
Li267 Li 0.91115 0.86987 0.37074 0.0
C268 C 0.84218 0.91174 0.42375 0.0
N269 N 0.79031 0.90937 0.4513 0.0
C270 C 0.81725 0.90683 0.40837 0.0
C271 C 0.84072 0.91538 0.45317 0.0
C272 C 0.79124 0.90574 0.42268 0.0
C273 C 0.81429 0.91412 0.4667 0.0
C274 C 0.91912 0.93444 0.34895 0.0
C275 C 0.91716 0.955 0.30206 0.0
N276 N 0.92388 0.98078 0.31319 0.0
C277 C 0.92617 0.96112 0.3599 0.0
C278 C 0.91476 0.9313 0.31976 0.0
C279 C 0.92844 0.98429 0.34148 0.0
C280 C 0.95999 0.93401 0.43003 0.0
N281 N 0.93116 0.93365 0.432 0.0
C282 C 0.93212 0.97019 0.46717 0.0
C283 C 0.9171 0.95136 0.44991 0.0
C284 C 0.962 0.9713 0.46562 0.0
C285 C 0.97589 0.95285 0.44659 0.0
H286 H 0.97058 0.91987 0.41534 0.0
H287 H 0.89416 0.95101 0.45068 0.0
C288 C 0.83303 0.91638 0.32571 0.0
N289 N 0.85093 0.92846 0.34489 0.0
C290 C 0.81692 0.93342 0.30748 0.0
C291 C 0.8377 0.97496 0.32931 0.0
C292 C 0.85289 0.95716 0.34752 0.0
C293 C 0.81957 0.96307 0.3089 0.0
H294 H 0.83125 0.89353 0.32455 0.0
H295 H 0.86654 0.96623 0.36357 0.0
C296 C 0.92086 0.8488 0.43458 0.0
N297 N 0.92782 0.81178 0.47957 0.0
C298 C 0.91364 0.82016 0.43161 0.0
C299 C 0.93181 0.85859 0.46036 0.0
C300 C 0.91723 0.80179 0.45464 0.0
C301 C 0.93514 0.83953 0.48287 0.0
C302 C 0.87048 0.84295 0.34516 0.0
C303 C 0.86761 0.81437 0.35271 0.0
C304 C 0.8751 0.8502 0.31674 0.0
C305 C 0.86951 0.79351 0.33171 0.0
C306 C 0.87694 0.82873 0.29638 0.0
N307 N 0.87413 0.80106 0.30422 0.0
C308 C 0.82952 0.83241 0.41962 0.0
C309 C 0.85548 0.84819 0.45968 0.0
C310 C 0.81129 0.81666 0.43701 0.0
N311 N 0.85138 0.84742 0.4311 0.0
C312 C 0.83775 0.83284 0.47784 0.0
C313 C 0.81533 0.81672 0.46657 0.0
H314 H 0.82591 0.83307 0.39698 0.0
H315 H 0.87229 0.86109 0.46846 0.0
C316 C 0.95336 0.86111 0.32854 0.0
N317 N 0.93685 0.8476 0.34804 0.0
C318 C 0.97165 0.84564 0.31098 0.0
C319 C 0.95591 0.80258 0.33404 0.0
C320 C 0.93818 0.81892 0.35135 0.0
C321 C 0.9729 0.81593 0.31346 0.0
H322 H 0.95233 0.88393 0.32654 0.0
H323 H 0.92528 0.80861 0.36725 0.0
O324 O 0.86794 0.91191 0.41017 0.0
O325 O 0.91645 0.91157 0.36672 0.0
O326 O 0.91747 0.8672 0.41237 0.0
O327 O 0.86912 0.8637 0.36547 0.0
H328 H 0.81799 0.90342 0.3857 0.0
H329 H 0.85981 0.91848 0.46557 0.0
H330 H 0.7718 0.90185 0.41104 0.0
H331 H 0.81288 0.91671 0.48947 0.0
H332 H 0.91364 0.9529 0.27946 0.0
H333 H 0.92959 0.96401 0.3824 0.0
H334 H 0.90935 0.91085 0.31088 0.0
H335 H 0.93373 1.00507 0.3497 0.0
H336 H 0.92036 0.98357 0.4817 0.0
H337 H 0.99878 0.95321 0.44412 0.0
H338 H 0.80298 0.92355 0.29207 0.0
H339 H 0.83989 0.99778 0.33129 0.0
H340 H 0.90475 0.81232 0.41198 0.0
H341 H 0.93756 0.88069 0.46299 0.0
H342 H 0.91149 0.77963 0.45273 0.0
H343 H 0.9435 0.84682 0.50297 0.0
H344 H 0.86449 0.80824 0.37462 0.0
H345 H 0.87745 0.87216 0.31049 0.0
H346 H 0.86751 0.77131 0.3373 0.0
H347 H 0.88065 0.83406 0.27435 0.0
H348 H 0.79387 0.80505 0.42747 0.0
H349 H 0.84168 0.8335 0.50048 0.0
H350 H 0.98434 0.85677 0.29533 0.0
H351 H 0.95656 0.77976 0.33693 0.0
Li352 Li 0.11551 0.65382 0.15339 0.0
Li353 Li 0.15557 0.61606 0.1539 0.0
Li354 Li 0.15351 0.65432 0.11804 0.0
Li355 Li 0.1195 0.61722 0.11678 0.0
C356 C 0.17623 0.68 0.16148 0.0
N357 N 0.21479 0.72423 0.16106 0.0
C358 C 0.20539 0.67437 0.16064 0.0
C359 C 0.16664 0.70809 0.16226 0.0
C360 C 0.22456 0.69704 0.16039 0.0
C361 C 0.18649 0.73017 0.16202 0.0
C362 C 0.09364 0.5906 0.15804 0.0
C363 C 0.08139 0.54095 0.15529 0.0
N364 N 0.05335 0.54805 0.15471 0.0
C365 C 0.06472 0.59742 0.15763 0.0
C366 C 0.10209 0.56216 0.15702 0.0
C367 C 0.04467 0.5756 0.15587 0.0
C368 C 0.0642 0.68178 0.16746 0.0
N369 N 0.09103 0.67601 0.17651 0.0
C370 C 0.08331 0.70242 0.21915 0.0
C371 C 0.10083 0.68589 0.20178 0.0
C372 C 0.05538 0.70858 0.2105 0.0
C373 C 0.04586 0.69799 0.18428 0.0
H374 H 0.05707 0.67374 0.14716 0.0
H375 H 0.12228 0.68092 0.20842 0.0
C376 C 0.20647 0.58885 0.17223 0.0
N377 N 0.1785 0.59323 0.17814 0.0
C378 C 0.22279 0.57095 0.18945 0.0
C379 C 0.18129 0.56283 0.21868 0.0
C380 C 0.16583 0.58089 0.20095 0.0
C381 C 0.21014 0.55746 0.21293 0.0
H382 H 0.21594 0.59881 0.15381 0.0
H383 H 0.14357 0.58489 0.20521 0.0
C384 C 0.1063 0.66745 0.08516 0.0
N385 N 0.0951 0.68574 0.03058 0.0
C386 C 0.11768 0.65289 0.06196 0.0
C387 C 0.08918 0.69129 0.08064 0.0
C388 C 0.11178 0.66246 0.03452 0.0
C389 C 0.08378 0.70022 0.05287 0.0
C390 C 0.17179 0.59153 0.09707 0.0
C391 C 0.1795 0.59556 0.06868 0.0
C392 C 0.17565 0.56489 0.10965 0.0
C393 C 0.19038 0.57272 0.05319 0.0
C394 C 0.18662 0.54258 0.09345 0.0
N395 N 0.19367 0.54692 0.06578 0.0
C396 C 0.20242 0.67042 0.08659 0.0
C397 C 0.16742 0.7064 0.09102 0.0
C398 C 0.21993 0.68866 0.07099 0.0
N399 N 0.17671 0.67953 0.09616 0.0
C400 C 0.18428 0.72537 0.07562 0.0
C401 C 0.21093 0.71658 0.06534 0.0
H402 H 0.20945 0.64907 0.09134 0.0
H403 H 0.14701 0.71318 0.09912 0.0
C404 C 0.0693 0.60451 0.08641 0.0
N405 N 0.09533 0.59379 0.09313 0.0
C406 C 0.05012 0.5886 0.07031 0.0
C407 C 0.08463 0.55067 0.06841 0.0
C408 C 0.10308 0.56727 0.08465 0.0
C409 C 0.05772 0.56127 0.06104 0.0
H410 H 0.06326 0.62536 0.0939 0.0
H411 H 0.12325 0.55857 0.09094 0.0
O412 O 0.15712 0.65814 0.16072 0.0
O413 O 0.11359 0.6117 0.15878 0.0
O414 O 0.11196 0.65862 0.11224 0.0
O415 O 0.16175 0.61386 0.11276 0.0
H416 H 0.21311 0.65273 0.15984 0.0
H417 H 0.1441 0.71279 0.16263 0.0
H418 H 0.2472 0.69302 0.15956 0.0
H419 H 0.17939 0.75203 0.16243 0.0
H420 H 0.08762 0.51885 0.15429 0.0
H421 H 0.05785 0.61934 0.15829 0.0
H422 H 0.1244 0.55654 0.15725 0.0
H423 H 0.02221 0.58056 0.15531 0.0
H424 H 0.09139 0.70993 0.23932 0.0
H425 H 0.02458 0.70249 0.17671 0.0
H426 H 0.24486 0.56719 0.18405 0.0
H427 H 0.17079 0.55324 0.23677 0.0
H428 H 0.13078 0.63433 0.06513 0.0
H429 H 0.08025 0.7028 0.09843 0.0
H430 H 0.12044 0.65137 0.01637 0.0
H431 H 0.0706 0.71867 0.04904 0.0
H432 H 0.17731 0.61616 0.05872 0.0
H433 H 0.16981 0.56127 0.13153 0.0
H434 H 0.19634 0.57553 0.03118 0.0
H435 H 0.18948 0.52181 0.10286 0.0
H436 H 0.24049 0.68113 0.06384 0.0
H437 H 0.17639 0.7466 0.07157 0.0
H438 H 0.02961 0.59766 0.06507 0.0
H439 H 0.09114 0.52948 0.06226 0.0
Li440 Li 0.37432 0.40601 0.36392 0.0
Li441 Li 0.41182 0.40613 0.39979 0.0
Li442 Li 0.41062 0.36998 0.36032 0.0
Li443 Li 0.3766 0.3666 0.40032 0.0
C444 C 0.41672 0.43407 0.33976 0.0
N445 N 0.41655 0.47968 0.30281 0.0
C446 C 0.42393 0.46117 0.34947 0.0
C447 C 0.40976 0.4301 0.31119 0.0
C448 C 0.42366 0.48397 0.33046 0.0
C449 C 0.40968 0.45345 0.29288 0.0
C450 C 0.36159 0.42025 0.43101 0.0
C451 C 0.35575 0.41787 0.48184 0.0
N452 N 0.34445 0.44447 0.48167 0.0
C453 C 0.34953 0.4474 0.4313 0.0
C454 C 0.3644 0.40522 0.45645 0.0
C455 C 0.34117 0.45934 0.45713 0.0
C456 C 0.33296 0.41978 0.32195 0.0
N457 N 0.34988 0.43057 0.34269 0.0
C458 C 0.33501 0.47783 0.33145 0.0
C459 C 0.3509 0.45895 0.34791 0.0
C460 C 0.31772 0.46741 0.30949 0.0
C461 C 0.31661 0.4379 0.30502 0.0
H462 H 0.33248 0.39713 0.31826 0.0
H463 H 0.36456 0.46698 0.3645 0.0
C464 C 0.46317 0.41972 0.42746 0.0
N465 N 0.43635 0.42924 0.42239 0.0
C466 C 0.48197 0.43577 0.44382 0.0
C467 C 0.44568 0.47181 0.44846 0.0
C468 C 0.42747 0.45489 0.43224 0.0
C469 C 0.47336 0.46226 0.4546 0.0
H470 H 0.46998 0.39957 0.41881 0.0
H471 H 0.40645 0.46251 0.42708 0.0
C472 C 0.3654 0.34243 0.34021 0.0
N473 N 0.36035 0.2975 0.30285 0.0
C474 C 0.35861 0.31533 0.35028 0.0
C475 C 0.36935 0.34674 0.31111 0.0
C476 C 0.35619 0.29288 0.33105 0.0
C477 C 0.3668 0.32373 0.29257 0.0
C478 C 0.43303 0.35041 0.42233 0.0
C479 C 0.44837 0.32572 0.4162 0.0
C480 C 0.43253 0.36078 0.45014 0.0
C481 C 0.46263 0.3116 0.43806 0.0
C482 C 0.4471 0.34608 0.4714 0.0
N483 N 0.46169 0.32198 0.46498 0.0
C484 C 0.45082 0.36121 0.31633 0.0
C485 C 0.43239 0.31901 0.33664 0.0
C486 C 0.46763 0.34547 0.2976 0.0
N487 N 0.43355 0.34782 0.33522 0.0
C488 C 0.44872 0.30243 0.31824 0.0
C489 C 0.46669 0.31562 0.29835 0.0
H490 H 0.4517 0.38414 0.31591 0.0
H491 H 0.41872 0.30886 0.35206 0.0
C492 C 0.32625 0.34499 0.42485 0.0
N493 N 0.35487 0.3411 0.42352 0.0
C494 C 0.30932 0.32681 0.44121 0.0
C495 C 0.35168 0.30119 0.45479 0.0
C496 C 0.36767 0.31954 0.43786 0.0
C497 C 0.322 0.30451 0.45661 0.0
H498 H 0.31655 0.36215 0.41302 0.0
H499 H 0.39028 0.31637 0.43621 0.0
O500 O 0.41629 0.41159 0.35818 0.0
O501 O 0.36975 0.40822 0.40583 0.0
O502 O 0.36815 0.36461 0.35875 0.0
O503 O 0.4188 0.36437 0.40114 0.0
H504 H 0.42947 0.46461 0.37147 0.0
H505 H 0.40418 0.40926 0.30333 0.0
H506 H 0.42904 0.50509 0.33772 0.0
H507 H 0.4041 0.45072 0.27077 0.0
H508 H 0.3579 0.40649 0.50168 0.0
H509 H 0.34677 0.45921 0.41181 0.0
H510 H 0.37288 0.38392 0.45664 0.0
H511 H 0.33201 0.48042 0.45766 0.0
H512 H 0.33624 0.50036 0.33591 0.0
H513 H 0.30377 0.42894 0.28818 0.0
H514 H 0.50296 0.42733 0.44813 0.0
H515 H 0.43828 0.49236 0.45564 0.0
H516 H 0.35544 0.3116 0.37272 0.0
H517 H 0.3746 0.36756 0.30295 0.0
H518 H 0.35109 0.27177 0.33856 0.0
H519 H 0.37001 0.32672 0.27003 0.0
H520 H 0.44921 0.31748 0.39482 0.0
H521 H 0.4214 0.38018 0.45522 0.0
H522 H 0.47448 0.29241 0.43362 0.0
H523 H 0.44688 0.3539 0.49299 0.0
H524 H 0.48152 0.35658 0.28299 0.0
H525 H 0.44703 0.27952 0.31942 0.0
H526 H 0.28653 0.33002 0.44141 0.0
H527 H 0.36264 0.28472 0.46652 0.0
Li528 Li 0.36861 0.90189 0.86617 0.0
Li529 Li 0.4045 0.90425 0.904 0.0
Li530 Li 0.40549 0.8653 0.86692 0.0
Li531 Li 0.36979 0.86466 0.9052 0.0
C532 C 0.4146 0.92671 0.84126 0.0
N533 N 0.4221 0.96669 0.79892 0.0
C534 C 0.42243 0.9545 0.84815 0.0
C535 C 0.41106 0.91915 0.8128 0.0
C536 C 0.426 0.97444 0.82645 0.0
C537 C 0.41481 0.93969 0.79171 0.0
C538 C 0.35428 0.92383 0.92949 0.0
C539 C 0.34761 0.93269 0.97949 0.0
N540 N 0.3382 0.95933 0.97338 0.0
C541 C 0.34413 0.95114 0.9237 0.0
C542 C 0.35569 0.91439 0.95759 0.0
C543 C 0.33627 0.96882 0.94618 0.0
C544 C 0.32317 0.91136 0.82779 0.0
N545 N 0.34424 0.92438 0.84264 0.0
C546 C 0.32982 0.96977 0.82485 0.0
C547 C 0.34772 0.95304 0.8416 0.0
C548 C 0.30789 0.95693 0.8092 0.0
C549 C 0.30471 0.92728 0.81083 0.0
H550 H 0.32053 0.88861 0.82929 0.0
H551 H 0.36417 0.96301 0.85411 0.0
C552 C 0.45209 0.91929 0.93765 0.0
N553 N 0.42748 0.92931 0.92626 0.0
C554 C 0.46974 0.9372 0.95341 0.0
C555 C 0.43675 0.97563 0.94496 0.0
C556 C 0.41971 0.95695 0.92945 0.0
C557 C 0.46217 0.96583 0.9572 0.0
H558 H 0.45823 0.89743 0.93419 0.0
H559 H 0.40057 0.9647 0.91947 0.0
C560 C 0.3594 0.83921 0.84377 0.0
N561 N 0.35172 0.79708 0.80368 0.0
C562 C 0.35162 0.81181 0.85219 0.0
C563 C 0.36279 0.84528 0.81493 0.0
C564 C 0.34796 0.79077 0.83161 0.0
C565 C 0.35895 0.82367 0.79499 0.0
C566 C 0.4204 0.84699 0.93143 0.0
C567 C 0.43237 0.8201 0.92744 0.0
C568 C 0.41746 0.85777 0.9589 0.0
C569 C 0.44059 0.80416 0.95108 0.0
C570 C 0.42596 0.8412 0.982 0.0
N571 N 0.43721 0.81494 0.97765 0.0
C572 C 0.45045 0.8531 0.82843 0.0
C573 C 0.4261 0.81277 0.84614 0.0
C574 C 0.46867 0.83579 0.81259 0.0
N575 N 0.42961 0.84139 0.84467 0.0
C576 C 0.44372 0.79468 0.83058 0.0
C577 C 0.46547 0.8061 0.81356 0.0
H578 H 0.45321 0.87589 0.82808 0.0
H579 H 0.40978 0.80393 0.85966 0.0
C580 C 0.32236 0.84982 0.93965 0.0
N581 N 0.34737 0.84021 0.92877 0.0
C582 C 0.30524 0.8319 0.95608 0.0
C583 C 0.33979 0.79447 0.94959 0.0
C584 C 0.35619 0.81308 0.9333 0.0
C585 C 0.31383 0.80374 0.96116 0.0
H586 H 0.31549 0.87129 0.93523 0.0
H587 H 0.37568 0.80563 0.92374 0.0
O588 O 0.41078 0.90696 0.86225 0.0
O589 O 0.36215 0.90626 0.90771 0.0
O590 O 0.36332 0.86002 0.86365 0.0
O591 O 0.41207 0.86281 0.90849 0.0
H592 H 0.42556 0.96068 0.87 0.0
H593 H 0.40561 0.89764 0.80704 0.0
H594 H 0.43186 0.99607 0.8315 0.0
H595 H 0.41199 0.93414 0.76961 0.0
H596 H 0.3487 0.92567 1.00133 0.0
H597 H 0.34254 0.95869 0.90209 0.0
H598 H 0.36262 0.89307 0.96245 0.0
H599 H 0.32863 0.99009 0.94199 0.0
H600 H 0.33275 0.99259 0.82466 0.0
H601 H 0.28821 0.91646 0.799 0.0
H602 H 0.4894 0.92885 0.96201 0.0
H603 H 0.43002 0.99749 0.94739 0.0
H604 H 0.3486 0.80678 0.87436 0.0
H605 H 0.36819 0.86646 0.80799 0.0
H606 H 0.34214 0.76943 0.83785 0.0
H607 H 0.36165 0.82806 0.77261 0.0
H608 H 0.43514 0.81154 0.90634 0.0
H609 H 0.40906 0.87883 0.96235 0.0
H610 H 0.44969 0.78324 0.94831 0.0
H611 H 0.42373 0.84927 1.00338 0.0
H612 H 0.48543 0.84554 0.8002 0.0
H613 H 0.44023 0.77198 0.83182 0.0
H614 H 0.28518 0.83984 0.96413 0.0
H615 H 0.34739 0.77304 0.95305 0.0
Li616 Li 0.62372 0.65812 0.65313 0.0
Li617 Li 0.65815 0.61842 0.65362 0.0
Li618 Li 0.65833 0.65547 0.61466 0.0
Li619 Li 0.62125 0.61891 0.61636 0.0
C620 C 0.67213 0.67875 0.67732 0.0
N621 N 0.68387 0.71659 0.72058 0.0
C622 C 0.68047 0.66877 0.704 0.0
C623 C 0.67018 0.70799 0.67253 0.0
C624 C 0.68623 0.68824 0.72562 0.0
C625 C 0.67606 0.72677 0.69471 0.0
C626 C 0.60805 0.59703 0.67803 0.0
C627 C 0.60139 0.5482 0.69211 0.0
N628 N 0.59229 0.55704 0.71806 0.0
C629 C 0.59835 0.60563 0.70473 0.0
C630 C 0.60933 0.56808 0.67157 0.0
C631 C 0.59058 0.58509 0.72471 0.0
C632 C 0.57948 0.69728 0.66256 0.0
N633 N 0.60107 0.68332 0.67575 0.0
C634 C 0.58907 0.70521 0.72001 0.0
C635 C 0.60595 0.68675 0.704 0.0
C636 C 0.56675 0.72013 0.70689 0.0
C637 C 0.56205 0.71589 0.67774 0.0
H638 H 0.57556 0.69376 0.64025 0.0
H639 H 0.62275 0.67496 0.71423 0.0
C640 C 0.70624 0.58452 0.66422 0.0
N641 N 0.68184 0.5942 0.67633 0.0
C642 C 0.72422 0.56618 0.67913 0.0
C643 C 0.69199 0.56852 0.719 0.0
C644 C 0.67472 0.58693 0.70336 0.0
C645 C 0.71709 0.55771 0.70687 0.0
H646 H 0.71172 0.59101 0.64289 0.0
H647 H 0.65574 0.59548 0.71295 0.0
C648 C 0.61302 0.68167 0.59183 0.0
N649 N 0.60713 0.72414 0.55174 0.0
C650 C 0.6029 0.67526 0.5647 0.0
C651 C 0.61971 0.70975 0.59871 0.0
C652 C 0.60017 0.69701 0.54469 0.0
C653 C 0.61672 0.7309 0.57812 0.0
C654 C 0.66759 0.59006 0.5954 0.0
C655 C 0.67535 0.593 0.5669 0.0
C656 C 0.66491 0.56292 0.60712 0.0
C657 C 0.67965 0.56871 0.55043 0.0
C658 C 0.66942 0.53914 0.58998 0.0
N659 N 0.67659 0.5425 0.56221 0.0
C660 C 0.70283 0.69363 0.60057 0.0
C661 C 0.67726 0.67577 0.56113 0.0
C662 C 0.72019 0.70977 0.58267 0.0
N663 N 0.68179 0.67718 0.58959 0.0
C664 C 0.69407 0.69157 0.54245 0.0
C665 C 0.71593 0.70888 0.55314 0.0
H666 H 0.70629 0.69407 0.62324 0.0
H667 H 0.66053 0.66239 0.5529 0.0
C668 C 0.57404 0.58284 0.60674 0.0
N669 N 0.59639 0.59596 0.59397 0.0
C670 C 0.55543 0.56603 0.59091 0.0
C671 C 0.58263 0.57723 0.54885 0.0
C672 C 0.60086 0.59361 0.56556 0.0
C673 C 0.55953 0.56305 0.56148 0.0
H674 H 0.5705 0.58555 0.62923 0.0
H675 H 0.61833 0.60485 0.55575 0.0
O676 O 0.66633 0.65998 0.65593 0.0
O677 O 0.61588 0.61689 0.65827 0.0
O678 O 0.61625 0.66059 0.61159 0.0
O679 O 0.66309 0.61363 0.6118 0.0
H680 H 0.68233 0.64626 0.70805 0.0
H681 H 0.66423 0.71612 0.65193 0.0
H682 H 0.69253 0.6808 0.74642 0.0
H683 H 0.67447 0.74945 0.69133 0.0
H684 H 0.60236 0.52573 0.6874 0.0
H685 H 0.59693 0.6279 0.71004 0.0
H686 H 0.6161 0.56103 0.65083 0.0
H687 H 0.5832 0.59146 0.74551 0.0
H688 H 0.59362 0.70789 0.74238 0.0
H689 H 0.54475 0.72645 0.66683 0.0
H690 H 0.74362 0.55892 0.66907 0.0
H691 H 0.68548 0.56253 0.74022 0.0
H692 H 0.59732 0.65372 0.55909 0.0
H693 H 0.62713 0.71513 0.61971 0.0
H694 H 0.59254 0.69232 0.52355 0.0
H695 H 0.62199 0.7527 0.58312 0.0
H696 H 0.67785 0.61381 0.55753 0.0
H697 H 0.65967 0.56022 0.62928 0.0
H698 H 0.68544 0.57069 0.52829 0.0
H699 H 0.66732 0.51802 0.59879 0.0
H700 H 0.73707 0.72243 0.59183 0.0
H701 H 0.6898 0.69042 0.5199 0.0
H702 H 0.53813 0.55536 0.60171 0.0
H703 H 0.58634 0.57615 0.52619 0.0
H704 H 0.27402 0.31664 0.48741 0.0
H705 H 0.3305 0.2475 0.46576 0.0
H706 H 0.3036 0.21565 0.49634 0.0
H707 H 0.26383 0.20707 0.52927 0.0
H708 H 0.20516 0.2749 0.54784 0.0
H709 H 0.23273 0.30741 0.51796 0.0
C710 C 0.28028 0.29453 0.48894 0.0
C711 C 0.3046 0.28477 0.47438 0.0
C712 C 0.26424 0.276 0.50603 0.0
C713 C 0.31241 0.256 0.47717 0.0
C714 C 0.29687 0.2376 0.49451 0.0
C715 C 0.2572 0.22901 0.52675 0.0
C716 C 0.23269 0.23872 0.54076 0.0
C717 C 0.27284 0.24738 0.50915 0.0
C718 C 0.22398 0.26702 0.53714 0.0
C719 C 0.23975 0.28559 0.52013 0.0
H720 H 0.73022 0.55892 0.76335 0.0
H721 H 0.74575 0.51127 0.6866 0.0
H722 H 0.77634 0.47856 0.7127 0.0
H723 H 0.79816 0.46292 0.7575 0.0
H724 H 0.78163 0.50984 0.8344 0.0
H725 H 0.75137 0.54289 0.80819 0.0
C726 C 0.74001 0.54121 0.75234 0.0
C727 C 0.73566 0.53771 0.72297 0.0
C728 C 0.75729 0.52219 0.76756 0.0
C729 C 0.74902 0.51485 0.70907 0.0
C730 C 0.76638 0.49597 0.72403 0.0
C731 C 0.78808 0.48049 0.76847 0.0
C732 C 0.79215 0.48388 0.79787 0.0
C733 C 0.77068 0.49943 0.75327 0.0
C734 C 0.7786 0.50654 0.81185 0.0
C735 C 0.76142 0.52555 0.79685 0.0
H736 H 0.53707 0.06303 0.01202 0.0
H737 H 0.55155 0.99725 0.0742 0.0
H738 H 0.52114 0.96483 0.04753 0.0
H739 H 0.49013 0.9552 1.00673 0.0
H740 H 0.47628 0.02066 0.94406 0.0
H741 H 0.5067 0.0531 0.97073 0.0
C742 C 0.53381 0.04151 0.01958 0.0
C743 C 0.54656 0.03264 0.04512 0.0
C744 C 0.5163 0.02293 1.00411 0.0
C745 C 0.54172 1.00478 0.05482 0.0
C746 C 0.52444 0.98617 0.0395 0.0
C747 C 0.49398 0.97648 0.99876 0.0
C748 C 0.48088 0.98546 0.97344 0.0
C749 C 0.51158 0.99502 0.01415 0.0
C750 C 0.48576 0.01328 0.96368 0.0
C751 C 0.5033 0.03182 0.97883 0.0
H752 H 0.96019 0.76718 0.28524 0.0
H753 H 0.02824 0.82685 0.29968 0.0
H754 H 0.05972 0.79901 0.26913 0.0
H755 H 0.06797 0.75757 0.23842 0.0
H756 H 0.99978 0.69814 0.22361 0.0
H757 H 0.96829 0.726 0.25412 0.0
C758 C 0.98197 0.77396 0.28183 0.0
C759 C 0.99189 0.79899 0.29478 0.0
C760 C 0.9999 0.75793 0.26412 0.0
C761 C 0.02003 0.80778 0.28979 0.0
C762 C 0.03807 0.79181 0.27242 0.0
C763 C 0.04626 0.75065 0.24203 0.0
C764 C 0.03626 0.72578 0.22882 0.0
C765 C 0.02825 0.76683 0.25951 0.0
C766 C 1.00793 0.71732 0.23333 0.0
C767 C 0.98996 0.73317 0.25088 0.0
H768 H 0.32101 1.00178 0.77496 0.0
H769 H 0.25019 0.95141 0.80439 0.0
H770 H 0.21752 0.98022 0.77621 0.0
H771 H 0.20887 0.02032 0.74396 0.0
H772 H 0.2797 0.07057 0.71433 0.0
H773 H 0.3124 0.04165 0.74236 0.0
C774 C 0.2984 0.99723 0.77537 0.0
C775 C 0.28812 0.97442 0.79177 0.0
C776 C 0.27968 0.01399 0.75923 0.0
C777 C 0.25878 0.96858 0.79169 0.0
C778 C 0.24003 0.98516 0.77571 0.0
C779 C 0.23149 0.02479 0.7434 0.0
C780 C 0.24175 0.04767 0.72708 0.0
C781 C 0.25023 1.00793 0.75942 0.0
C782 C 0.27112 0.05338 0.727 0.0
C783 C 0.28988 0.03673 0.7429 0.0
H784 H 0.95807 0.49219 1.00318 0.0
H785 H 0.02681 0.46711 0.94779 0.0
H786 H 0.05998 0.49585 0.97532 0.0
H787 H 0.06946 0.52872 0.01471 0.0
H788 H 1.00063 0.55437 0.06964 0.0
H789 H 0.96743 0.5254 0.04225 0.0
C790 C 0.98024 0.49321 0.99692 0.0
C791 C 0.98985 0.47739 0.97342 0.0
C792 C 0.9992 0.51005 0.01267 0.0
C793 C 0.01882 0.47867 0.96599 0.0
C794 C 0.03781 0.49528 0.98162 0.0
C795 C 0.04723 0.52781 0.02081 0.0
C796 C 0.03756 0.54373 0.04419 0.0
C797 C 0.02825 0.51105 1.005 0.0
C798 C 1.00859 0.54262 0.05154 0.0
C799 C 0.98961 0.52592 0.03598 0.0
H800 H 0.4954 0.26673 0.3102 0.0
H801 H 0.47815 0.3258 0.24222 0.0
H802 H 0.50782 0.29786 0.21012 0.0
H803 H 0.53876 0.25668 0.20134 0.0
H804 H 0.55423 0.19665 0.26892 0.0
H805 H 0.52509 0.22493 0.30109 0.0
C806 C 0.49782 0.27335 0.28828 0.0
C807 C 0.48452 0.29838 0.27871 0.0
C808 C 0.51468 0.25705 0.26984 0.0
C809 C 0.48841 0.30686 0.25032 0.0
C810 C 0.50525 0.29079 0.23187 0.0
C811 C 0.53553 0.24961 0.22302 0.0
C812 C 0.54882 0.22459 0.23266 0.0
C813 C 0.51849 0.26585 0.2414 0.0
C814 C 0.54469 0.21603 0.26099 0.0
C815 C 0.52786 0.2321 0.27939 0.0
H816 H 0.79498 0.76311 0.45879 0.0
H817 H 0.79246 0.83365 0.51717 0.0
H818 H 0.76167 0.80661 0.54901 0.0
H819 H 0.73524 0.76303 0.56022 0.0
H820 H 0.7381 0.6923 0.50204 0.0
H821 H 0.76838 0.71956 0.46993 0.0
C822 C 0.78748 0.77266 0.47835 0.0
C823 C 0.79611 0.80034 0.48559 0.0
C824 C 0.76971 0.757 0.49657 0.0
C825 C 0.78648 0.81225 0.51124 0.0
C826 C 0.76874 0.79685 0.52941 0.0
C827 C 0.74268 0.75347 0.54064 0.0
C828 C 0.73434 0.72563 0.53361 0.0
C829 C 0.7603 0.76918 0.52234 0.0
C830 C 0.74383 0.71379 0.50787 0.0
C831 C 0.76131 0.72931 0.48954 0.0
H832 H 0.26458 0.5636 0.23201 0.0
H833 H 0.19288 0.50644 0.2346 0.0
H834 H 0.21961 0.47378 0.26473 0.0
H835 H 0.26329 0.46141 0.2905 0.0
H836 H 0.33537 0.51804 0.28715 0.0
H837 H 0.30856 0.55086 0.25722 0.0
C838 C 0.25489 0.54388 0.23896 0.0
C839 C 0.22672 0.53756 0.23108 0.0
C840 C 0.27042 0.5251 0.25624 0.0
C841 C 0.21437 0.51207 0.24065 0.0
C842 C 0.2297 0.49327 0.25776 0.0
C843 C 0.27323 0.48081 0.28302 0.0
C844 C 0.30129 0.48724 0.29114 0.0
C845 C 0.25773 0.49957 0.26571 0.0
C846 C 0.31367 0.51272 0.28157 0.0
C847 C 0.29841 0.53144 0.2643 0.0
H848 H 0.82017 0.26735 0.99314 0.0
H849 H 0.75079 0.32274 0.96981 0.0
H850 H 0.71794 0.29392 0.99773 0.0
H851 H 0.70887 0.25322 0.02919 0.0
H852 H 0.77837 0.19842 0.05326 0.0
H853 H 0.81127 0.22719 0.02522 0.0
C854 C 0.79794 0.27335 0.9944 0.0
C855 C 0.78804 0.29719 0.97926 0.0
C856 C 0.77916 0.25685 0.01076 0.0
C857 C 0.759 0.30428 0.98084 0.0
C858 C 0.74019 0.2879 0.99697 0.0
C859 C 0.73119 0.24746 0.02814 0.0
C860 C 0.74112 0.22368 0.04331 0.0
C861 C 0.75001 0.2641 0.01196 0.0
C862 C 0.7702 0.21678 0.04205 0.0
C863 C 0.78901 0.23314 0.0259 0.0
H864 H 0.7627 0.96366 0.29946 0.0
H865 H 0.84102 1.00404 0.27434 0.0
H866 H 0.81499 0.03496 0.24155 0.0
H867 H 0.76972 0.05089 0.22047 0.0
H868 H 0.69112 0.01262 0.2479 0.0
H869 H 0.71732 0.98044 0.27932 0.0
C870 C 0.77397 0.97917 0.28666 0.0
C871 C 0.80365 0.98159 0.28911 0.0
C872 C 0.7588 0.99723 0.26836 0.0
C873 C 0.81812 1.00196 0.27279 0.0
C874 C 0.80328 0.01955 0.25404 0.0
C875 C 0.75846 0.03537 0.23326 0.0
C876 C 0.72865 0.03391 0.23188 0.0
C877 C 0.77361 0.01743 0.2517 0.0
C878 C 0.71411 0.01407 0.24877 0.0
C879 C 0.72906 0.99569 0.26666 0.0
H880 H 1.01438 0.96366 0.48987 0.0
H881 H 0.94671 0.02527 0.48177 0.0
H882 H 0.97269 0.05811 0.51206 0.0
H883 H 0.01508 0.06992 0.54041 0.0
H884 H 0.08419 1.00996 0.5454 0.0
H885 H 0.05749 0.97621 0.51627 0.0
C886 C 1.0054 0.9844 0.49431 0.0
C887 C 0.97839 0.99168 0.48356 0.0
C888 C 0.0208 1.0036 0.51117 0.0
C889 C 0.96709 0.01861 0.49015 0.0
C890 C 0.98206 0.03761 0.50732 0.0
C891 C 0.02416 0.0494 0.53516 0.0
C892 C 0.05145 0.04233 0.54504 0.0
C893 C 1.00891 0.03034 0.51799 0.0
C894 C 0.06323 0.01586 0.53787 0.0
C895 C 0.04796 0.99657 0.5213 0.0
H896 H 0.01715 0.30141 0.80601 0.0
H897 H 0.93985 0.2708 0.76709 0.0
H898 H 0.96749 0.2398 0.73623 0.0
H899 H 1.01375 0.22183 0.71946 0.0
H900 H 0.09098 0.25463 0.75621 0.0
H901 H 0.06327 0.28476 0.78823 0.0
C902 C 1.00627 0.28828 0.79056 0.0
C903 C 0.97633 0.28848 0.78917 0.0
C904 C 0.02233 0.27091 0.77233 0.0
C905 C 0.96278 0.2708 0.76921 0.0
C906 C 0.97859 0.25317 0.75131 0.0
C907 C 0.02444 0.23548 0.73461 0.0
C908 C 0.05432 0.23598 0.73557 0.0
C909 C 1.00837 0.25303 0.75268 0.0
C910 C 0.06798 0.25403 0.755 0.0
C911 C 0.05215 0.27119 0.77334 0.0
H912 H 0.54599 0.71244 0.76044 0.0
H913 H 0.54569 0.77187 0.69061 0.0
H914 H 0.51427 0.80343 0.71719 0.0
H915 H 0.48646 0.81399 0.76007 0.0
H916 H 0.48836 0.7554 0.83059 0.0
H917 H 0.51953 0.72376 0.8039 0.0
C918 C 0.53936 0.73245 0.75114 0.0
C919 C 0.5482 0.73967 0.7235 0.0
C920 C 0.52144 0.75064 0.76662 0.0
C921 C 0.53893 0.76552 0.71166 0.0
C922 C 0.52107 0.78369 0.72691 0.0
C923 C 0.49394 0.79447 0.76975 0.0
C924 C 0.4849 0.78711 0.7973 0.0
C925 C 0.51213 0.77644 0.75438 0.0
C926 C 0.49452 0.76145 0.80927 0.0
C927 C 0.51253 0.74339 0.79409 0.0
H928 H 0.24162 0.70529 0.0176 0.0
H929 H 0.22138 0.77266 0.0763 0.0
H930 H 0.25112 0.80554 0.04926 0.0
H931 H 0.28338 0.81505 1.00925 0.0
H932 H 0.30309 0.74769 0.95031 0.0
H933 H 0.27362 0.71485 0.9775 0.0
C934 C 0.24391 0.7271 0.02463 0.0
C935 C 0.22926 0.73647 0.04894 0.0
C936 C 0.2611 0.7459 1.00902 0.0
C937 C 0.23213 0.76495 0.05747 0.0
C938 C 0.24926 0.78375 0.04211 0.0
C939 C 0.28104 0.79326 1.0022 0.0
C940 C 0.29559 0.7839 0.97779 0.0
C941 C 0.26382 0.77447 0.01782 0.0
C942 C 0.29256 0.75542 0.96924 0.0
C943 C 0.27554 0.73663 0.98468 0.0
H944 H 0.4607 0.49532 0.50055 0.0
H945 H 0.53088 0.46898 0.44753 0.0
H946 H 0.56357 0.49698 0.47624 0.0
H947 H 0.57238 0.52892 0.51638 0.0
H948 H 0.50171 0.55792 0.56732 0.0
H949 H 0.4692 0.52892 0.53939 0.0
C950 C 0.48307 0.49595 0.49499 0.0
C951 C 0.4932 0.47986 0.47189 0.0
C952 C 0.50177 0.51253 0.5113 0.0
C953 C 0.52243 0.48065 0.46544 0.0
C954 C 0.54118 0.49686 0.48175 0.0
C955 C 0.54983 0.52923 0.5212 0.0
C956 C 0.53966 0.54559 0.54409 0.0
C957 C 0.53109 0.51288 0.50472 0.0
C958 C 0.51035 0.5452 0.55022 0.0
C959 C 0.49164 0.52876 0.5341 0.0
loop_
_geom_bond_atom_site_label_1
_geom_bond_atom_site_label_2
_geom_bond_distance
_geom_bond_site_symmetry_2
_ccdc_geom_bond_type
Li0 N17 1.990 . S
Li0 O60 1.956 . S
Li0 O61 1.970 . S
Li0 O62 1.961 . S
Li1 N25 1.990 . S
Li1 O60 1.970 . S
Li1 O61 1.956 . S
Li1 O63 1.961 . S
Li2 N47 1.990 . S
Li2 O60 1.961 . S
Li2 O62 1.956 . S
Li2 O63 1.970 . S
Li3 N53 1.990 . S
Li3 O61 1.961 . S
Li3 O62 1.970 . S
Li3 O63 1.956 . S
C4 C6 1.348 . S
C4 C7 1.356 . S
C4 O60 1.325 . S
N5 C8 1.314 . S
N5 C9 1.279 . S
C6 C4 1.348 . S
C6 C8 1.353 . S
C6 H64 0.929 . S
C7 C4 1.356 . S
C7 C9 1.358 . S
C7 H65 0.930 . S
C8 N5 1.314 . S
C8 C6 1.353 . S
C8 H66 0.930 . S
C9 N5 1.279 . S
C9 C7 1.358 . S
C9 H67 0.930 . S
C10 C13 1.348 . S
C10 C14 1.356 . S
C10 O61 1.325 . S
C11 N12 1.279 . S
C11 C14 1.358 . S
C11 H68 0.930 . S
N12 C11 1.279 . S
N12 C15 1.314 . S
C13 C10 1.348 . S
C13 C15 1.353 . S
C13 H69 0.929 . S
C14 C10 1.356 . S
C14 C11 1.358 . S
C14 H70 0.930 . S
C15 N12 1.314 . S
C15 C13 1.353 . S
C15 H71 0.930 . S
C16 N17 1.314 . S
C16 C21 1.353 . S
C16 H22 0.930 . S
N17 Li0 1.990 . S
N17 C16 1.314 . S
N17 C19 1.279 . S
C18 C19 1.358 . S
C18 C20 1.356 . S
C18 H72 0.930 . S
C19 N17 1.279 . S
C19 C18 1.358 . S
C19 H23 0.930 . S
C20 C18 1.356 . S
C20 C21 1.348 . S
C21 C16 1.353 . S
C21 C20 1.348 . S
C21 H73 0.929 . S
H22 C16 0.930 . S
H23 C19 0.930 . S
C24 N25 1.314 . S
C24 C26 1.353 . S
C24 H30 0.930 . S
N25 Li1 1.990 . S
N25 C24 1.314 . S
N25 C28 1.279 . S
C26 C24 1.353 . S
C26 C29 1.348 . S
C26 H74 0.929 . S
C27 C28 1.358 . S
C27 C29 1.356 . S
C27 H75 0.930 . S
C28 N25 1.279 . S
C28 C27 1.358 . S
C28 H31 0.930 . S
C29 C26 1.348 . S
C29 C27 1.356 . S
H30 C24 0.930 . S
H31 C28 0.930 . S
C32 C34 1.348 . S
C32 C35 1.356 . S
C32 O62 1.325 . S
N33 C36 1.314 . S
N33 C37 1.279 . S
C34 C32 1.348 . S
C34 C36 1.353 . S
C34 H76 0.929 . S
C35 C32 1.356 . S
C35 C37 1.358 . S
C35 H77 0.930 . S
C36 N33 1.314 . S
C36 C34 1.353 . S
C36 H78 0.930 . S
C37 N33 1.279 . S
C37 C35 1.358 . S
C37 H79 0.930 . S
C38 C39 1.348 . S
C38 C40 1.356 . S
C38 O63 1.325 . S
C39 C38 1.348 . S
C39 C41 1.353 . S
C39 H80 0.929 . S
C40 C38 1.356 . S
C40 C42 1.358 . S
C40 H81 0.930 . S
C41 C39 1.353 . S
C41 N43 1.314 . S
C41 H82 0.930 . S
C42 C40 1.358 . S
C42 N43 1.279 . S
C42 H83 0.930 . S
N43 C41 1.314 . S
N43 C42 1.279 . S
C44 C46 1.353 . S
C44 N47 1.314 . S
C44 H50 0.930 . S
C45 N47 1.279 . S
C45 C48 1.358 . S
C45 H51 0.930 . S
C46 C44 1.353 . S
C46 C49 1.348 . S
C46 H84 0.929 . S
N47 Li2 1.990 . S
N47 C44 1.314 . S
N47 C45 1.279 . S
C48 C45 1.358 . S
C48 C49 1.356 . S
C48 H85 0.930 . S
C49 C46 1.348 . S
C49 C48 1.356 . S
H50 C44 0.930 . S
H51 C45 0.930 . S
C52 N53 1.314 . S
C52 C54 1.353 . S
C52 H58 0.930 . S
N53 Li3 1.990 . S
N53 C52 1.314 . S
N53 C56 1.279 . S
C54 C52 1.353 . S
C54 C57 1.348 . S
C54 H86 0.929 . S
C55 C56 1.358 . S
C55 C57 1.356 . S
C55 H87 0.930 . S
C56 N53 1.279 . S
C56 C55 1.358 . S
C56 H59 0.930 . S
C57 C54 1.348 . S
C57 C55 1.356 . S
H58 C52 0.930 . S
H59 C56 0.930 . S
O60 Li0 1.956 . S
O60 Li1 1.970 . S
O60 Li2 1.961 . S
O60 C4 1.325 . S
O61 Li0 1.970 . S
O61 Li1 1.956 . S
O61 Li3 1.961 . S
O61 C10 1.325 . S
O62 Li0 1.961 . S
O62 Li2 1.956 . S
O62 Li3 1.970 . S
O62 C32 1.325 . S
O63 Li1 1.961 . S
O63 Li2 1.970 . S
O63 Li3 1.956 . S
O63 C38 1.325 . S
H64 C6 0.929 . S
H65 C7 0.930 . S
H66 C8 0.930 . S
H67 C9 0.930 . S
H68 C11 0.930 . S
H69 C13 0.929 . S
H70 C14 0.930 . S
H71 C15 0.930 . S
H72 C18 0.930 . S
H73 C21 0.929 . S
H74 C26 0.929 . S
H75 C27 0.930 . S
H76 C34 0.929 . S
H77 C35 0.930 . S
H78 C36 0.930 . S
H79 C37 0.930 . S
H80 C39 0.929 . S
H81 C40 0.930 . S
H82 C41 0.930 . S
H83 C42 0.930 . S
H84 C46 0.929 . S
H85 C48 0.930 . S
H86 C54 0.929 . S
H87 C55 0.930 . S
Li88 N105 1.990 . S
Li88 O148 1.956 . S
Li88 O149 1.970 . S
Li88 O150 1.961 . S
Li89 N113 1.990 . S
Li89 O148 1.970 . S
Li89 O149 1.956 . S
Li89 O151 1.961 . S
Li90 N135 1.990 . S
Li90 O148 1.961 . S
Li90 O150 1.956 . S
Li90 O151 1.970 . S
Li91 N141 1.990 . S
Li91 O149 1.961 . S
Li91 O150 1.970 . S
Li91 O151 1.956 . S
C92 C94 1.348 . S
C92 C95 1.356 . S
C92 O148 1.325 . S
N93 C96 1.314 . S
N93 C97 1.279 . S
C94 C92 1.348 . S
C94 C96 1.353 . S
C94 H152 0.929 . S
C95 C92 1.356 . S
C95 C97 1.358 . S
C95 H153 0.930 . S
C96 N93 1.314 . S
C96 C94 1.353 . S
C96 H154 0.930 . S
C97 N93 1.279 . S
C97 C95 1.358 . S
C97 H155 0.930 . S
C98 C101 1.348 . S
C98 C102 1.356 . S
C98 O149 1.325 . S
C99 N100 1.279 . S
C99 C102 1.358 . S
C99 H156 0.930 . S
N100 C99 1.279 . S
N100 C103 1.314 . S
C101 C98 1.348 . S
C101 C103 1.353 . S
C101 H157 0.929 . S
C102 C98 1.356 . S
C102 C99 1.358 . S
C102 H158 0.930 . S
C103 N100 1.314 . S
C103 C101 1.353 . S
C103 H159 0.930 . S
C104 N105 1.314 . S
C104 C109 1.353 . S
C104 H110 0.930 . S
N105 Li88 1.990 . S
N105 C104 1.314 . S
N105 C107 1.279 . S
C106 C107 1.358 . S
C106 C108 1.356 . S
C106 H160 0.930 . S
C107 N105 1.279 . S
C107 C106 1.358 . S
C107 H111 0.930 . S
C108 C106 1.356 . S
C108 C109 1.348 . S
C109 C104 1.353 . S
C109 C108 1.348 . S
C109 H161 0.929 . S
H110 C104 0.930 . S
H111 C107 0.930 . S
C112 N113 1.314 . S
C112 C114 1.353 . S
C112 H118 0.930 . S
N113 Li89 1.990 . S
N113 C112 1.314 . S
N113 C116 1.279 . S
C114 C112 1.353 . S
C114 C117 1.348 . S
C114 H162 0.929 . S
C115 C116 1.358 . S
C115 C117 1.356 . S
C115 H163 0.930 . S
C116 N113 1.279 . S
C116 C115 1.358 . S
C116 H119 0.930 . S
C117 C114 1.348 . S
C117 C115 1.356 . S
H118 C112 0.930 . S
H119 C116 0.930 . S
C120 C122 1.348 . S
C120 C123 1.356 . S
C120 O150 1.325 . S
N121 C124 1.314 . S
N121 C125 1.279 . S
C122 C120 1.348 . S
C122 C124 1.353 . S
C122 H164 0.929 . S
C123 C120 1.356 . S
C123 C125 1.358 . S
C123 H165 0.930 . S
C124 N121 1.314 . S
C124 C122 1.353 . S
C124 H166 0.930 . S
C125 N121 1.279 . S
C125 C123 1.358 . S
C125 H167 0.930 . S
C126 C127 1.348 . S
C126 C128 1.356 . S
C126 O151 1.325 . S
C127 C126 1.348 . S
C127 C129 1.353 . S
C127 H168 0.929 . S
C128 C126 1.356 . S
C128 C130 1.358 . S
C128 H169 0.930 . S
C129 C127 1.353 . S
C129 N131 1.314 . S
C129 H170 0.930 . S
C130 C128 1.358 . S
C130 N131 1.279 . S
C130 H171 0.930 . S
N131 C129 1.314 . S
N131 C130 1.279 . S
C132 C134 1.353 . S
C132 N135 1.314 . S
C132 H138 0.930 . S
C133 N135 1.279 . S
C133 C136 1.358 . S
C133 H139 0.930 . S
C134 C132 1.353 . S
C134 C137 1.348 . S
C134 H172 0.929 . S
N135 Li90 1.990 . S
N135 C132 1.314 . S
N135 C133 1.279 . S
C136 C133 1.358 . S
C136 C137 1.356 . S
C136 H173 0.930 . S
C137 C134 1.348 . S
C137 C136 1.356 . S
H138 C132 0.930 . S
H139 C133 0.930 . S
C140 N141 1.314 . S
C140 C142 1.353 . S
C140 H146 0.930 . S
N141 Li91 1.990 . S
N141 C140 1.314 . S
N141 C144 1.279 . S
C142 C140 1.353 . S
C142 C145 1.348 . S
C142 H174 0.929 . S
C143 C144 1.358 . S
C143 C145 1.356 . S
C143 H175 0.930 . S
C144 N141 1.279 . S
C144 C143 1.358 . S
C144 H147 0.930 . S
C145 C142 1.348 . S
C145 C143 1.356 . S
H146 C140 0.930 . S
H147 C144 0.930 . S
O148 Li88 1.956 . S
O148 Li89 1.970 . S
O148 Li90 1.961 . S
O148 C92 1.325 . S
O149 Li88 1.970 . S
O149 Li89 1.956 . S
O149 Li91 1.961 . S
O149 C98 1.325 . S
O150 Li88 1.961 . S
O150 Li90 1.956 . S
O150 Li91 1.970 . S
O150 C120 1.325 . S
O151 Li89 1.961 . S
O151 Li90 1.970 . S
O151 Li91 1.956 . S
O151 C126 1.325 . S
H152 C94 0.929 . S
H153 C95 0.930 . S
H154 C96 0.930 . S
H155 C97 0.930 . S
H156 C99 0.930 . S
H157 C101 0.929 . S
H158 C102 0.930 . S
H159 C103 0.930 . S
H160 C106 0.930 . S
H161 C109 0.929 . S
H162 C114 0.929 . S
H163 C115 0.930 . S
H164 C122 0.929 . S
H165 C123 0.930 . S
H166 C124 0.930 . S
H167 C125 0.930 . S
H168 C127 0.929 . S
H169 C128 0.930 . S
H170 C129 0.930 . S
H171 C130 0.930 . S
H172 C134 0.929 . S
H173 C136 0.930 . S
H174 C142 0.929 . S
H175 C143 0.930 . S
Li176 N193 1.990 . S
Li176 O236 1.956 . S
Li176 O237 1.970 . S
Li176 O238 1.961 . S
Li177 N201 1.990 . S
Li177 O236 1.970 . S
Li177 O237 1.956 . S
Li177 O239 1.961 . S
Li178 N223 1.990 . S
Li178 O236 1.961 . S
Li178 O238 1.956 . S
Li178 O239 1.970 . S
Li179 N229 1.990 . S
Li179 O237 1.961 . S
Li179 O238 1.970 . S
Li179 O239 1.956 . S
C180 C182 1.348 . S
C180 C183 1.356 . S
C180 O236 1.325 . S
N181 C184 1.314 . S
N181 C185 1.279 . S
C182 C180 1.348 . S
C182 C184 1.353 . S
C182 H240 0.929 . S
C183 C180 1.356 . S
C183 C185 1.358 . S
C183 H241 0.930 . S
C184 N181 1.314 . S
C184 C182 1.353 . S
C184 H242 0.930 . S
C185 N181 1.279 . S
C185 C183 1.358 . S
C185 H243 0.930 . S
C186 C189 1.348 . S
C186 C190 1.356 . S
C186 O237 1.325 . S
C187 N188 1.279 . S
C187 C190 1.358 . S
C187 H244 0.930 . S
N188 C187 1.279 . S
N188 C191 1.314 . S
C189 C186 1.348 . S
C189 C191 1.353 . S
C189 H245 0.929 . S
C190 C186 1.356 . S
C190 C187 1.358 . S
C190 H246 0.930 . S
C191 N188 1.314 . S
C191 C189 1.353 . S
C191 H247 0.930 . S
C192 N193 1.314 . S
C192 C197 1.353 . S
C192 H198 0.930 . S
N193 Li176 1.990 . S
N193 C192 1.314 . S
N193 C195 1.279 . S
C194 C195 1.358 . S
C194 C196 1.356 . S
C194 H248 0.930 . S
C195 N193 1.279 . S
C195 C194 1.358 . S
C195 H199 0.930 . S
C196 C194 1.356 . S
C196 C197 1.348 . S
C197 C192 1.353 . S
C197 C196 1.348 . S
C197 H249 0.929 . S
H198 C192 0.930 . S
H199 C195 0.930 . S
C200 N201 1.314 . S
C200 C202 1.353 . S
C200 H206 0.930 . S
N201 Li177 1.990 . S
N201 C200 1.314 . S
N201 C204 1.279 . S
C202 C200 1.353 . S
C202 C205 1.348 . S
C202 H250 0.929 . S
C203 C204 1.358 . S
C203 C205 1.356 . S
C203 H251 0.930 . S
C204 N201 1.279 . S
C204 C203 1.358 . S
C204 H207 0.930 . S
C205 C202 1.348 . S
C205 C203 1.356 . S
H206 C200 0.930 . S
H207 C204 0.930 . S
C208 C210 1.348 . S
C208 C211 1.356 . S
C208 O238 1.325 . S
N209 C212 1.314 . S
N209 C213 1.279 . S
C210 C208 1.348 . S
C210 C212 1.353 . S
C210 H252 0.929 . S
C211 C208 1.356 . S
C211 C213 1.358 . S
C211 H253 0.930 . S
C212 N209 1.314 . S
C212 C210 1.353 . S
C212 H254 0.930 . S
C213 N209 1.279 . S
C213 C211 1.358 . S
C213 H255 0.930 . S
C214 C215 1.348 . S
C214 C216 1.356 . S
C214 O239 1.325 . S
C215 C214 1.348 . S
C215 C217 1.353 . S
C215 H256 0.929 . S
C216 C214 1.356 . S
C216 C218 1.358 . S
C216 H257 0.930 . S
C217 C215 1.353 . S
C217 N219 1.314 . S
C217 H258 0.930 . S
C218 C216 1.358 . S
C218 N219 1.279 . S
C218 H259 0.930 . S
N219 C217 1.314 . S
N219 C218 1.279 . S
C220 C222 1.353 . S
C220 N223 1.314 . S
C220 H226 0.930 . S
C221 N223 1.279 . S
C221 C224 1.358 . S
C221 H227 0.930 . S
C222 C220 1.353 . S
C222 C225 1.348 . S
C222 H260 0.929 . S
N223 Li178 1.990 . S
N223 C220 1.314 . S
N223 C221 1.279 . S
C224 C221 1.358 . S
C224 C225 1.356 . S
C224 H261 0.930 . S
C225 C222 1.348 . S
C225 C224 1.356 . S
H226 C220 0.930 . S
H227 C221 0.930 . S
C228 N229 1.314 . S
C228 C230 1.353 . S
C228 H234 0.930 . S
N229 Li179 1.990 . S
N229 C228 1.314 . S
N229 C232 1.279 . S
C230 C228 1.353 . S
C230 C233 1.348 . S
C230 H262 0.929 . S
C231 C232 1.358 . S
C231 C233 1.356 . S
C231 H263 0.930 . S
C232 N229 1.279 . S
C232 C231 1.358 . S
C232 H235 0.930 . S
C233 C230 1.348 . S
C233 C231 1.356 . S
H234 C228 0.930 . S
H235 C232 0.930 . S
O236 Li176 1.956 . S
O236 Li177 1.970 . S
O236 Li178 1.961 . S
O236 C180 1.325 . S
O237 Li176 1.970 . S
O237 Li177 1.956 . S
O237 Li179 1.961 . S
O237 C186 1.325 . S
O238 Li176 1.961 . S
O238 Li178 1.956 . S
O238 Li179 1.970 . S
O238 C208 1.325 . S
O239 Li177 1.961 . S
O239 Li178 1.970 . S
O239 Li179 1.956 . S
O239 C214 1.325 . S
H240 C182 0.929 . S
H241 C183 0.930 . S
H242 C184 0.930 . S
H243 C185 0.930 . S
H244 C187 0.930 . S
H245 C189 0.929 . S
H246 C190 0.930 . S
H247 C191 0.930 . S
H248 C194 0.930 . S
H249 C197 0.929 . S
H250 C202 0.929 . S
H251 C203 0.930 . S
H252 C210 0.929 . S
H253 C211 0.930 . S
H254 C212 0.930 . S
H255 C213 0.930 . S
H256 C215 0.929 . S
H257 C216 0.930 . S
H258 C217 0.930 . S
H259 C218 0.930 . S
H260 C222 0.929 . S
H261 C224 0.930 . S
H262 C230 0.929 . S
H263 C231 0.930 . S
Li264 N281 1.990 . S
Li264 O324 1.956 . S
Li264 O325 1.970 . S
Li264 O326 1.961 . S
Li265 N289 1.990 . S
Li265 O324 1.970 . S
Li265 O325 1.956 . S
Li265 O327 1.961 . S
Li266 N311 1.990 . S
Li266 O324 1.961 . S
Li266 O326 1.956 . S
Li266 O327 1.970 . S
Li267 N317 1.990 . S
Li267 O325 1.961 . S
Li267 O326 1.970 . S
Li267 O327 1.956 . S
C268 C270 1.348 . S
C268 C271 1.356 . S
C268 O324 1.325 . S
N269 C272 1.314 . S
N269 C273 1.279 . S
C270 C268 1.348 . S
C270 C272 1.353 . S
C270 H328 0.929 . S
C271 C268 1.356 . S
C271 C273 1.358 . S
C271 H329 0.930 . S
C272 N269 1.314 . S
C272 C270 1.353 . S
C272 H330 0.930 . S
C273 N269 1.279 . S
C273 C271 1.358 . S
C273 H331 0.930 . S
C274 C277 1.348 . S
C274 C278 1.356 . S
C274 O325 1.325 . S
C275 N276 1.279 . S
C275 C278 1.358 . S
C275 H332 0.930 . S
N276 C275 1.279 . S
N276 C279 1.314 . S
C277 C274 1.348 . S
C277 C279 1.353 . S
C277 H333 0.929 . S
C278 C274 1.356 . S
C278 C275 1.358 . S
C278 H334 0.930 . S
C279 N276 1.314 . S
C279 C277 1.353 . S
C279 H335 0.930 . S
C280 N281 1.314 . S
C280 C285 1.353 . S
C280 H286 0.930 . S
N281 Li264 1.990 . S
N281 C280 1.314 . S
N281 C283 1.279 . S
C282 C283 1.358 . S
C282 C284 1.356 . S
C282 H336 0.930 . S
C283 N281 1.279 . S
C283 C282 1.358 . S
C283 H287 0.930 . S
C284 C282 1.356 . S
C284 C285 1.348 . S
C285 C280 1.353 . S
C285 C284 1.348 . S
C285 H337 0.929 . S
H286 C280 0.930 . S
H287 C283 0.930 . S
C288 N289 1.314 . S
C288 C290 1.353 . S
C288 H294 0.930 . S
N289 Li265 1.990 . S
N289 C288 1.314 . S
N289 C292 1.279 . S
C290 C288 1.353 . S
C290 C293 1.348 . S
C290 H338 0.929 . S
C291 C292 1.358 . S
C291 C293 1.356 . S
C291 H339 0.930 . S
C292 N289 1.279 . S
C292 C291 1.358 . S
C292 H295 0.930 . S
C293 C290 1.348 . S
C293 C291 1.356 . S
H294 C288 0.930 . S
H295 C292 0.930 . S
C296 C298 1.348 . S
C296 C299 1.356 . S
C296 O326 1.325 . S
N297 C300 1.314 . S
N297 C301 1.279 . S
C298 C296 1.348 . S
C298 C300 1.353 . S
C298 H340 0.929 . S
C299 C296 1.356 . S
C299 C301 1.358 . S
C299 H341 0.930 . S
C300 N297 1.314 . S
C300 C298 1.353 . S
C300 H342 0.930 . S
C301 N297 1.279 . S
C301 C299 1.358 . S
C301 H343 0.930 . S
C302 C303 1.348 . S
C302 C304 1.356 . S
C302 O327 1.325 . S
C303 C302 1.348 . S
C303 C305 1.353 . S
C303 H344 0.929 . S
C304 C302 1.356 . S
C304 C306 1.358 . S
C304 H345 0.930 . S
C305 C303 1.353 . S
C305 N307 1.314 . S
C305 H346 0.930 . S
C306 C304 1.358 . S
C306 N307 1.279 . S
C306 H347 0.930 . S
N307 C305 1.314 . S
N307 C306 1.279 . S
C308 C310 1.353 . S
C308 N311 1.314 . S
C308 H314 0.930 . S
C309 N311 1.279 . S
C309 C312 1.358 . S
C309 H315 0.930 . S
C310 C308 1.353 . S
C310 C313 1.348 . S
C310 H348 0.929 . S
N311 Li266 1.990 . S
N311 C308 1.314 . S
N311 C309 1.279 . S
C312 C309 1.358 . S
C312 C313 1.356 . S
C312 H349 0.930 . S
C313 C310 1.348 . S
C313 C312 1.356 . S
H314 C308 0.930 . S
H315 C309 0.930 . S
C316 N317 1.314 . S
C316 C318 1.353 . S
C316 H322 0.930 . S
N317 Li267 1.990 . S
N317 C316 1.314 . S
N317 C320 1.279 . S
C318 C316 1.353 . S
C318 C321 1.348 . S
C318 H350 0.929 . S
C319 C320 1.358 . S
C319 C321 1.356 . S
C319 H351 0.930 . S
C320 N317 1.279 . S
C320 C319 1.358 . S
C320 H323 0.930 . S
C321 C318 1.348 . S
C321 C319 1.356 . S
H322 C316 0.930 . S
H323 C320 0.930 . S
O324 Li264 1.956 . S
O324 Li265 1.970 . S
O324 Li266 1.961 . S
O324 C268 1.325 . S
O325 Li264 1.970 . S
O325 Li265 1.956 . S
O325 Li267 1.961 . S
O325 C274 1.325 . S
O326 Li264 1.961 . S
O326 Li266 1.956 . S
O326 Li267 1.970 . S
O326 C296 1.325 . S
O327 Li265 1.961 . S
O327 Li266 1.970 . S
O327 Li267 1.956 . S
O327 C302 1.325 . S
H328 C270 0.929 . S
H329 C271 0.930 . S
H330 C272 0.930 . S
H331 C273 0.930 . S
H332 C275 0.930 . S
H333 C277 0.929 . S
H334 C278 0.930 . S
H335 C279 0.930 . S
H336 C282 0.930 . S
H337 C285 0.929 . S
H338 C290 0.929 . S
H339 C291 0.930 . S
H340 C298 0.929 . S
H341 C299 0.930 . S
H342 C300 0.930 . S
H343 C301 0.930 . S
H344 C303 0.929 . S
H345 C304 0.930 . S
H346 C305 0.930 . S
H347 C306 0.930 . S
H348 C310 0.929 . S
H349 C312 0.930 . S
H350 C318 0.929 . S
H351 C319 0.930 . S
Li352 N369 1.990 . S
Li352 O412 1.956 . S
Li352 O413 1.970 . S
Li352 O414 1.961 . S
Li353 N377 1.990 . S
Li353 O412 1.970 . S
Li353 O413 1.956 . S
Li353 O415 1.961 . S
Li354 N399 1.990 . S
Li354 O412 1.961 . S
Li354 O414 1.956 . S
Li354 O415 1.970 . S
Li355 N405 1.990 . S
Li355 O413 1.961 . S
Li355 O414 1.970 . S
Li355 O415 1.956 . S
C356 C358 1.348 . S
C356 C359 1.356 . S
C356 O412 1.325 . S
N357 C360 1.314 . S
N357 C361 1.279 . S
C358 C356 1.348 . S
C358 C360 1.353 . S
C358 H416 0.929 . S
C359 C356 1.356 . S
C359 C361 1.358 . S
C359 H417 0.930 . S
C360 N357 1.314 . S
C360 C358 1.353 . S
C360 H418 0.930 . S
C361 N357 1.279 . S
C361 C359 1.358 . S
C361 H419 0.930 . S
C362 C365 1.348 . S
C362 C366 1.356 . S
C362 O413 1.325 . S
C363 N364 1.279 . S
C363 C366 1.358 . S
C363 H420 0.930 . S
N364 C363 1.279 . S
N364 C367 1.314 . S
C365 C362 1.348 . S
C365 C367 1.353 . S
C365 H421 0.929 . S
C366 C362 1.356 . S
C366 C363 1.358 . S
C366 H422 0.930 . S
C367 N364 1.314 . S
C367 C365 1.353 . S
C367 H423 0.930 . S
C368 N369 1.314 . S
C368 C373 1.353 . S
C368 H374 0.930 . S
N369 Li352 1.990 . S
N369 C368 1.314 . S
N369 C371 1.279 . S
C370 C371 1.358 . S
C370 C372 1.356 . S
C370 H424 0.930 . S
C371 N369 1.279 . S
C371 C370 1.358 . S
C371 H375 0.930 . S
C372 C370 1.356 . S
C372 C373 1.348 . S
C373 C368 1.353 . S
C373 C372 1.348 . S
C373 H425 0.929 . S
H374 C368 0.930 . S
H375 C371 0.930 . S
C376 N377 1.314 . S
C376 C378 1.353 . S
C376 H382 0.930 . S
N377 Li353 1.990 . S
N377 C376 1.314 . S
N377 C380 1.279 . S
C378 C376 1.353 . S
C378 C381 1.348 . S
C378 H426 0.929 . S
C379 C380 1.358 . S
C379 C381 1.356 . S
C379 H427 0.930 . S
C380 N377 1.279 . S
C380 C379 1.358 . S
C380 H383 0.930 . S
C381 C378 1.348 . S
C381 C379 1.356 . S
H382 C376 0.930 . S
H383 C380 0.930 . S
C384 C386 1.348 . S
C384 C387 1.356 . S
C384 O414 1.325 . S
N385 C388 1.314 . S
N385 C389 1.279 . S
C386 C384 1.348 . S
C386 C388 1.353 . S
C386 H428 0.929 . S
C387 C384 1.356 . S
C387 C389 1.358 . S
C387 H429 0.930 . S
C388 N385 1.314 . S
C388 C386 1.353 . S
C388 H430 0.930 . S
C389 N385 1.279 . S
C389 C387 1.358 . S
C389 H431 0.930 . S
C390 C391 1.348 . S
C390 C392 1.356 . S
C390 O415 1.325 . S
C391 C390 1.348 . S
C391 C393 1.353 . S
C391 H432 0.929 . S
C392 C390 1.356 . S
C392 C394 1.358 . S
C392 H433 0.930 . S
C393 C391 1.353 . S
C393 N395 1.314 . S
C393 H434 0.930 . S
C394 C392 1.358 . S
C394 N395 1.279 . S
C394 H435 0.930 . S
N395 C393 1.314 . S
N395 C394 1.279 . S
C396 C398 1.353 . S
C396 N399 1.314 . S
C396 H402 0.930 . S
C397 N399 1.279 . S
C397 C400 1.358 . S
C397 H403 0.930 . S
C398 C396 1.353 . S
C398 C401 1.348 . S
C398 H436 0.929 . S
N399 Li354 1.990 . S
N399 C396 1.314 . S
N399 C397 1.279 . S
C400 C397 1.358 . S
C400 C401 1.356 . S
C400 H437 0.930 . S
C401 C398 1.348 . S
C401 C400 1.356 . S
H402 C396 0.930 . S
H403 C397 0.930 . S
C404 N405 1.314 . S
C404 C406 1.353 . S
C404 H410 0.930 . S
N405 Li355 1.990 . S
N405 C404 1.314 . S
N405 C408 1.279 . S
C406 C404 1.353 . S
C406 C409 1.348 . S
C406 H438 0.929 . S
C407 C408 1.358 . S
C407 C409 1.356 . S
C407 H439 0.930 . S
C408 N405 1.279 . S
C408 C407 1.358 . S
C408 H411 0.930 . S
C409 C406 1.348 . S
C409 C407 1.356 . S
H410 C404 0.930 . S
H411 C408 0.930 . S
O412 Li352 1.956 . S
O412 Li353 1.970 . S
O412 Li354 1.961 . S
O412 C356 1.325 . S
O413 Li352 1.970 . S
O413 Li353 1.956 . S
O413 Li355 1.961 . S
O413 C362 1.325 . S
O414 Li352 1.961 . S
O414 Li354 1.956 . S
O414 Li355 1.970 . S
O414 C384 1.325 . S
O415 Li353 1.961 . S
O415 Li354 1.970 . S
O415 Li355 1.956 . S
O415 C390 1.325 . S
H416 C358 0.929 . S
H417 C359 0.930 . S
H418 C360 0.930 . S
H419 C361 0.930 . S
H420 C363 0.930 . S
H421 C365 0.929 . S
H422 C366 0.930 . S
H423 C367 0.930 . S
H424 C370 0.930 . S
H425 C373 0.929 . S
H426 C378 0.929 . S
H427 C379 0.930 . S
H428 C386 0.929 . S
H429 C387 0.930 . S
H430 C388 0.930 . S
H431 C389 0.930 . S
H432 C391 0.929 . S
H433 C392 0.930 . S
H434 C393 0.930 . S
H435 C394 0.930 . S
H436 C398 0.929 . S
H437 C400 0.930 . S
H438 C406 0.929 . S
H439 C407 0.930 . S
Li440 N457 1.990 . S
Li440 O500 1.956 . S
Li440 O501 1.970 . S
Li440 O502 1.961 . S
Li441 N465 1.990 . S
Li441 O500 1.970 . S
Li441 O501 1.956 . S
Li441 O503 1.961 . S
Li442 N487 1.990 . S
Li442 O500 1.961 . S
Li442 O502 1.956 . S
Li442 O503 1.970 . S
Li443 N493 1.990 . S
Li443 O501 1.961 . S
Li443 O502 1.970 . S
Li443 O503 1.956 . S
C444 C446 1.348 . S
C444 C447 1.356 . S
C444 O500 1.325 . S
N445 C448 1.314 . S
N445 C449 1.279 . S
C446 C444 1.348 . S
C446 C448 1.353 . S
C446 H504 0.929 . S
C447 C444 1.356 . S
C447 C449 1.358 . S
C447 H505 0.930 . S
C448 N445 1.314 . S
C448 C446 1.353 . S
C448 H506 0.930 . S
C449 N445 1.279 . S
C449 C447 1.358 . S
C449 H507 0.930 . S
C450 C453 1.348 . S
C450 C454 1.356 . S
C450 O501 1.325 . S
C451 N452 1.279 . S
C451 C454 1.358 . S
C451 H508 0.930 . S
N452 C451 1.279 . S
N452 C455 1.314 . S
C453 C450 1.348 . S
C453 C455 1.353 . S
C453 H509 0.929 . S
C454 C450 1.356 . S
C454 C451 1.358 . S
C454 H510 0.930 . S
C455 N452 1.314 . S
C455 C453 1.353 . S
C455 H511 0.930 . S
C456 N457 1.314 . S
C456 C461 1.353 . S
C456 H462 0.930 . S
N457 Li440 1.990 . S
N457 C456 1.314 . S
N457 C459 1.279 . S
C458 C459 1.358 . S
C458 C460 1.356 . S
C458 H512 0.930 . S
C459 N457 1.279 . S
C459 C458 1.358 . S
C459 H463 0.930 . S
C460 C458 1.356 . S
C460 C461 1.348 . S
C461 C456 1.353 . S
C461 C460 1.348 . S
C461 H513 0.929 . S
H462 C456 0.930 . S
H463 C459 0.930 . S
C464 N465 1.314 . S
C464 C466 1.353 . S
C464 H470 0.930 . S
N465 Li441 1.990 . S
N465 C464 1.314 . S
N465 C468 1.279 . S
C466 C464 1.353 . S
C466 C469 1.348 . S
C466 H514 0.929 . S
C467 C468 1.358 . S
C467 C469 1.356 . S
C467 H515 0.930 . S
C468 N465 1.279 . S
C468 C467 1.358 . S
C468 H471 0.930 . S
C469 C466 1.348 . S
C469 C467 1.356 . S
H470 C464 0.930 . S
H471 C468 0.930 . S
C472 C474 1.348 . S
C472 C475 1.356 . S
C472 O502 1.325 . S
N473 C476 1.314 . S
N473 C477 1.279 . S
C474 C472 1.348 . S
C474 C476 1.353 . S
C474 H516 0.929 . S
C475 C472 1.356 . S
C475 C477 1.358 . S
C475 H517 0.930 . S
C476 N473 1.314 . S
C476 C474 1.353 . S
C476 H518 0.930 . S
C477 N473 1.279 . S
C477 C475 1.358 . S
C477 H519 0.930 . S
C478 C479 1.348 . S
C478 C480 1.356 . S
C478 O503 1.325 . S
C479 C478 1.348 . S
C479 C481 1.353 . S
C479 H520 0.929 . S
C480 C478 1.356 . S
C480 C482 1.358 . S
C480 H521 0.930 . S
C481 C479 1.353 . S
C481 N483 1.314 . S
C481 H522 0.930 . S
C482 C480 1.358 . S
C482 N483 1.279 . S
C482 H523 0.930 . S
N483 C481 1.314 . S
N483 C482 1.279 . S
C484 C486 1.353 . S
C484 N487 1.314 . S
C484 H490 0.930 . S
C485 N487 1.279 . S
C485 C488 1.358 . S
C485 H491 0.930 . S
C486 C484 1.353 . S
C486 C489 1.348 . S
C486 H524 0.929 . S
N487 Li442 1.990 . S
N487 C484 1.314 . S
N487 C485 1.279 . S
C488 C485 1.358 . S
C488 C489 1.356 . S
C488 H525 0.930 . S
C489 C486 1.348 . S
C489 C488 1.356 . S
H490 C484 0.930 . S
H491 C485 0.930 . S
C492 N493 1.314 . S
C492 C494 1.353 . S
C492 H498 0.930 . S
N493 Li443 1.990 . S
N493 C492 1.314 . S
N493 C496 1.279 . S
C494 C492 1.353 . S
C494 C497 1.348 . S
C494 H526 0.929 . S
C495 C496 1.358 . S
C495 C497 1.356 . S
C495 H527 0.930 . S
C496 N493 1.279 . S
C496 C495 1.358 . S
C496 H499 0.930 . S
C497 C494 1.348 . S
C497 C495 1.356 . S
H498 C492 0.930 . S
H499 C496 0.930 . S
O500 Li440 1.956 . S
O500 Li441 1.970 . S
O500 Li442 1.961 . S
O500 C444 1.325 . S
O501 Li440 1.970 . S
O501 Li441 1.956 . S
O501 Li443 1.961 . S
O501 C450 1.325 . S
O502 Li440 1.961 . S
O502 Li442 1.956 . S
O502 Li443 1.970 . S
O502 C472 1.325 . S
O503 Li441 1.961 . S
O503 Li442 1.970 . S
O503 Li443 1.956 . S
O503 C478 1.325 . S
H504 C446 0.929 . S
H505 C447 0.930 . S
H506 C448 0.930 . S
H507 C449 0.930 . S
H508 C451 0.930 . S
H509 C453 0.929 . S
H510 C454 0.930 . S
H511 C455 0.930 . S
H512 C458 0.930 . S
H513 C461 0.929 . S
H514 C466 0.929 . S
H515 C467 0.930 . S
H516 C474 0.929 . S
H517 C475 0.930 . S
H518 C476 0.930 . S
H519 C477 0.930 . S
H520 C479 0.929 . S
H521 C480 0.930 . S
H522 C481 0.930 . S
H523 C482 0.930 . S
H524 C486 0.929 . S
H525 C488 0.930 . S
H526 C494 0.929 . S
H527 C495 0.930 . S
Li528 N545 1.990 . S
Li528 O588 1.956 . S
Li528 O589 1.970 . S
Li528 O590 1.961 . S
Li529 N553 1.990 . S
Li529 O588 1.970 . S
Li529 O589 1.956 . S
Li529 O591 1.961 . S
Li530 N575 1.990 . S
Li530 O588 1.961 . S
Li530 O590 1.956 . S
Li530 O591 1.970 . S
Li531 N581 1.990 . S
Li531 O589 1.961 . S
Li531 O590 1.970 . S
Li531 O591 1.956 . S
C532 C534 1.348 . S
C532 C535 1.356 . S
C532 O588 1.325 . S
N533 C536 1.314 . S
N533 C537 1.279 . S
C534 C532 1.348 . S
C534 C536 1.353 . S
C534 H592 0.929 . S
C535 C532 1.356 . S
C535 C537 1.358 . S
C535 H593 0.930 . S
C536 N533 1.314 . S
C536 C534 1.353 . S
C536 H594 0.930 . S
C537 N533 1.279 . S
C537 C535 1.358 . S
C537 H595 0.930 . S
C538 C541 1.348 . S
C538 C542 1.356 . S
C538 O589 1.325 . S
C539 N540 1.279 . S
C539 C542 1.358 . S
C539 H596 0.930 . S
N540 C539 1.279 . S
N540 C543 1.314 . S
C541 C538 1.348 . S
C541 C543 1.353 . S
C541 H597 0.929 . S
C542 C538 1.356 . S
C542 C539 1.358 . S
C542 H598 0.930 . S
C543 N540 1.314 . S
C543 C541 1.353 . S
C543 H599 0.930 . S
C544 N545 1.314 . S
C544 C549 1.353 . S
C544 H550 0.930 . S
N545 Li528 1.990 . S
N545 C544 1.314 . S
N545 C547 1.279 . S
C546 C547 1.358 . S
C546 C548 1.356 . S
C546 H600 0.930 . S
C547 N545 1.279 . S
C547 C546 1.358 . S
C547 H551 0.930 . S
C548 C546 1.356 . S
C548 C549 1.348 . S
C549 C544 1.353 . S
C549 C548 1.348 . S
C549 H601 0.929 . S
H550 C544 0.930 . S
H551 C547 0.930 . S
C552 N553 1.314 . S
C552 C554 1.353 . S
C552 H558 0.930 . S
N553 Li529 1.990 . S
N553 C552 1.314 . S
N553 C556 1.279 . S
C554 C552 1.353 . S
C554 C557 1.348 . S
C554 H602 0.929 . S
C555 C556 1.358 . S
C555 C557 1.356 . S
C555 H603 0.930 . S
C556 N553 1.279 . S
C556 C555 1.358 . S
C556 H559 0.930 . S
C557 C554 1.348 . S
C557 C555 1.356 . S
H558 C552 0.930 . S
H559 C556 0.930 . S
C560 C562 1.348 . S
C560 C563 1.356 . S
C560 O590 1.325 . S
N561 C564 1.314 . S
N561 C565 1.279 . S
C562 C560 1.348 . S
C562 C564 1.353 . S
C562 H604 0.929 . S
C563 C560 1.356 . S
C563 C565 1.358 . S
C563 H605 0.930 . S
C564 N561 1.314 . S
C564 C562 1.353 . S
C564 H606 0.930 . S
C565 N561 1.279 . S
C565 C563 1.358 . S
C565 H607 0.930 . S
C566 C567 1.348 . S
C566 C568 1.356 . S
C566 O591 1.325 . S
C567 C566 1.348 . S
C567 C569 1.353 . S
C567 H608 0.929 . S
C568 C566 1.356 . S
C568 C570 1.358 . S
C568 H609 0.930 . S
C569 C567 1.353 . S
C569 N571 1.314 . S
C569 H610 0.930 . S
C570 C568 1.358 . S
C570 N571 1.279 . S
C570 H611 0.930 . S
N571 C569 1.314 . S
N571 C570 1.279 . S
C572 C574 1.353 . S
C572 N575 1.314 . S
C572 H578 0.930 . S
C573 N575 1.279 . S
C573 C576 1.358 . S
C573 H579 0.930 . S
C574 C572 1.353 . S
C574 C577 1.348 . S
C574 H612 0.929 . S
N575 Li530 1.990 . S
N575 C572 1.314 . S
N575 C573 1.279 . S
C576 C573 1.358 . S
C576 C577 1.356 . S
C576 H613 0.930 . S
C577 C574 1.348 . S
C577 C576 1.356 . S
H578 C572 0.930 . S
H579 C573 0.930 . S
C580 N581 1.314 . S
C580 C582 1.353 . S
C580 H586 0.930 . S
N581 Li531 1.990 . S
N581 C580 1.314 . S
N581 C584 1.279 . S
C582 C580 1.353 . S
C582 C585 1.348 . S
C582 H614 0.929 . S
C583 C584 1.358 . S
C583 C585 1.356 . S
C583 H615 0.930 . S
C584 N581 1.279 . S
C584 C583 1.358 . S
C584 H587 0.930 . S
C585 C582 1.348 . S
C585 C583 1.356 . S
H586 C580 0.930 . S
H587 C584 0.930 . S
O588 Li528 1.956 . S
O588 Li529 1.970 . S
O588 Li530 1.961 . S
O588 C532 1.325 . S
O589 Li528 1.970 . S
O589 Li529 1.956 . S
O589 Li531 1.961 . S
O589 C538 1.325 . S
O590 Li528 1.961 . S
O590 Li530 1.956 . S
O590 Li531 1.970 . S
O590 C560 1.325 . S
O591 Li529 1.961 . S
O591 Li530 1.970 . S
O591 Li531 1.956 . S
O591 C566 1.325 . S
H592 C534 0.929 . S
H593 C535 0.930 . S
H594 C536 0.930 . S
H595 C537 0.930 . S
H596 C539 0.930 . S
H597 C541 0.929 . S
H598 C542 0.930 . S
H599 C543 0.930 . S
H600 C546 0.930 . S
H601 C549 0.929 . S
H602 C554 0.929 . S
H603 C555 0.930 . S
H604 C562 0.929 . S
H605 C563 0.930 . S
H606 C564 0.930 . S
H607 C565 0.930 . S
H608 C567 0.929 . S
H609 C568 0.930 . S
H610 C569 0.930 . S
H611 C570 0.930 . S
H612 C574 0.929 . S
H613 C576 0.930 . S
H614 C582 0.929 . S
H615 C583 0.930 . S
Li616 N633 1.990 . S
Li616 O676 1.956 . S
Li616 O677 1.970 . S
Li616 O678 1.961 . S
Li617 N641 1.990 . S
Li617 O676 1.970 . S
Li617 O677 1.956 . S
Li617 O679 1.961 . S
Li618 N663 1.990 . S
Li618 O676 1.961 . S
Li618 O678 1.956 . S
Li618 O679 1.970 . S
Li619 N669 1.990 . S
Li619 O677 1.961 . S
Li619 O678 1.970 . S
Li619 O679 1.956 . S
C620 C622 1.348 . S
C620 C623 1.356 . S
C620 O676 1.325 . S
N621 C624 1.314 . S
N621 C625 1.279 . S
C622 C620 1.348 . S
C622 C624 1.353 . S
C622 H680 0.929 . S
C623 C620 1.356 . S
C623 C625 1.358 . S
C623 H681 0.930 . S
C624 N621 1.314 . S
C624 C622 1.353 . S
C624 H682 0.930 . S
C625 N621 1.279 . S
C625 C623 1.358 . S
C625 H683 0.930 . S
C626 C629 1.348 . S
C626 C630 1.356 . S
C626 O677 1.325 . S
C627 N628 1.279 . S
C627 C630 1.358 . S
C627 H684 0.930 . S
N628 C627 1.279 . S
N628 C631 1.314 . S
C629 C626 1.348 . S
C629 C631 1.353 . S
C629 H685 0.929 . S
C630 C626 1.356 . S
C630 C627 1.358 . S
C630 H686 0.930 . S
C631 N628 1.314 . S
C631 C629 1.353 . S
C631 H687 0.930 . S
C632 N633 1.314 . S
C632 C637 1.353 . S
C632 H638 0.930 . S
N633 Li616 1.990 . S
N633 C632 1.314 . S
N633 C635 1.279 . S
C634 C635 1.358 . S
C634 C636 1.356 . S
C634 H688 0.930 . S
C635 N633 1.279 . S
C635 C634 1.358 . S
C635 H639 0.930 . S
C636 C634 1.356 . S
C636 C637 1.348 . S
C637 C632 1.353 . S
C637 C636 1.348 . S
C637 H689 0.929 . S
H638 C632 0.930 . S
H639 C635 0.930 . S
C640 N641 1.314 . S
C640 C642 1.353 . S
C640 H646 0.930 . S
N641 Li617 1.990 . S
N641 C640 1.314 . S
N641 C644 1.279 . S
C642 C640 1.353 . S
C642 C645 1.348 . S
C642 H690 0.929 . S
C643 C644 1.358 . S
C643 C645 1.356 . S
C643 H691 0.930 . S
C644 N641 1.279 . S
C644 C643 1.358 . S
C644 H647 0.930 . S
C645 C642 1.348 . S
C645 C643 1.356 . S
H646 C640 0.930 . S
H647 C644 0.930 . S
C648 C650 1.348 . S
C648 C651 1.356 . S
C648 O678 1.325 . S
N649 C652 1.314 . S
N649 C653 1.279 . S
C650 C648 1.348 . S
C650 C652 1.353 . S
C650 H692 0.929 . S
C651 C648 1.356 . S
C651 C653 1.358 . S
C651 H693 0.930 . S
C652 N649 1.314 . S
C652 C650 1.353 . S
C652 H694 0.930 . S
C653 N649 1.279 . S
C653 C651 1.358 . S
C653 H695 0.930 . S
C654 C655 1.348 . S
C654 C656 1.356 . S
C654 O679 1.325 . S
C655 C654 1.348 . S
C655 C657 1.353 . S
C655 H696 0.929 . S
C656 C654 1.356 . S
C656 C658 1.358 . S
C656 H697 0.930 . S
C657 C655 1.353 . S
C657 N659 1.314 . S
C657 H698 0.930 . S
C658 C656 1.358 . S
C658 N659 1.279 . S
C658 H699 0.930 . S
N659 C657 1.314 . S
N659 C658 1.279 . S
C660 C662 1.353 . S
C660 N663 1.314 . S
C660 H666 0.930 . S
C661 N663 1.279 . S
C661 C664 1.358 . S
C661 H667 0.930 . S
C662 C660 1.353 . S
C662 C665 1.348 . S
C662 H700 0.929 . S
N663 Li618 1.990 . S
N663 C660 1.314 . S
N663 C661 1.279 . S
C664 C661 1.358 . S
C664 C665 1.356 . S
C664 H701 0.930 . S
C665 C662 1.348 . S
C665 C664 1.356 . S
H666 C660 0.930 . S
H667 C661 0.930 . S
C668 N669 1.314 . S
C668 C670 1.353 . S
C668 H674 0.930 . S
N669 Li619 1.990 . S
N669 C668 1.314 . S
N669 C672 1.279 . S
C670 C668 1.353 . S
C670 C673 1.348 . S
C670 H702 0.929 . S
C671 C672 1.358 . S
C671 C673 1.356 . S
C671 H703 0.930 . S
C672 N669 1.279 . S
C672 C671 1.358 . S
C672 H675 0.930 . S
C673 C670 1.348 . S
C673 C671 1.356 . S
H674 C668 0.930 . S
H675 C672 0.930 . S
O676 Li616 1.956 . S
O676 Li617 1.970 . S
O676 Li618 1.961 . S
O676 C620 1.325 . S
O677 Li616 1.970 . S
O677 Li617 1.956 . S
O677 Li619 1.961 . S
O677 C626 1.325 . S
O678 Li616 1.961 . S
O678 Li618 1.956 . S
O678 Li619 1.970 . S
O678 C648 1.325 . S
O679 Li617 1.961 . S
O679 Li618 1.970 . S
O679 Li619 1.956 . S
O679 C654 1.325 . S
H680 C622 0.929 . S
H681 C623 0.930 . S
H682 C624 0.930 . S
H683 C625 0.930 . S
H684 C627 0.930 . S
H685 C629 0.929 . S
H686 C630 0.930 . S
H687 C631 0.930 . S
H688 C634 0.930 . S
H689 C637 0.929 . S
H690 C642 0.929 . S
H691 C643 0.930 . S
H692 C650 0.929 . S
H693 C651 0.930 . S
H694 C652 0.930 . S
H695 C653 0.930 . S
H696 C655 0.929 . S
H697 C656 0.930 . S
H698 C657 0.930 . S
H699 C658 0.930 . S
H700 C662 0.929 . S
H701 C664 0.930 . S
H702 C670 0.929 . S
H703 C671 0.930 . S
H704 C710 0.930 . S
H705 C713 0.930 . S
H706 C714 0.930 . S
H707 C715 0.930 . S
H708 C718 0.930 . S
H709 C719 0.930 . S
C710 H704 0.930 . S
C710 C711 1.355 . S
C710 C712 1.415 . S
C711 C710 1.355 . S
C711 C713 1.419 . S
C712 C710 1.415 . S
C712 C717 1.425 . S
C712 C719 1.409 . S
C713 H705 0.930 . S
C713 C711 1.419 . S
C713 C714 1.362 . S
C714 H706 0.930 . S
C714 C713 1.362 . S
C714 C717 1.409 . S
C715 H707 0.930 . S
C715 C716 1.355 . S
C715 C717 1.415 . S
C716 C715 1.355 . S
C716 C718 1.419 . S
C717 C712 1.425 . S
C717 C714 1.409 . S
C717 C715 1.415 . S
C718 H708 0.930 . S
C718 C716 1.419 . S
C718 C719 1.362 . S
C719 H709 0.930 . S
C719 C712 1.409 . S
C719 C718 1.362 . S
H720 C726 0.930 . S
H721 C729 0.930 . S
H722 C730 0.930 . S
H723 C731 0.930 . S
H724 C734 0.930 . S
H725 C735 0.930 . S
C726 H720 0.930 . S
C726 C727 1.355 . S
C726 C728 1.415 . S
C727 C726 1.355 . S
C727 C729 1.419 . S
C728 C726 1.415 . S
C728 C733 1.425 . S
C728 C735 1.409 . S
C729 H721 0.930 . S
C729 C727 1.419 . S
C729 C730 1.362 . S
C730 H722 0.930 . S
C730 C729 1.362 . S
C730 C733 1.409 . S
C731 H723 0.930 . S
C731 C732 1.355 . S
C731 C733 1.415 . S
C732 C731 1.355 . S
C732 C734 1.419 . S
C733 C728 1.425 . S
C733 C730 1.409 . S
C733 C731 1.415 . S
C734 H724 0.930 . S
C734 C732 1.419 . S
C734 C735 1.362 . S
C735 H725 0.930 . S
C735 C728 1.409 . S
C735 C734 1.362 . S
H736 C742 0.930 1_556 S
H737 C745 0.925 1_565 S
H738 C746 0.930 . S
H739 C747 0.920 1_554 S
H740 C750 0.930 1_545 S
H741 C751 0.930 . S
C742 H736 0.930 1_554 S
C742 C743 1.355 . S
C742 C744 1.415 1_554 S
C743 C742 1.355 . S
C743 C745 1.419 . S
C744 C742 1.415 1_556 S
C744 C749 1.425 1_546 S
C744 C751 1.409 . S
C745 H737 0.925 1_545 S
C745 C743 1.419 . S
C745 C746 1.362 1_545 S
C746 H738 0.930 . S
C746 C745 1.362 1_565 S
C746 C749 1.409 . S
C747 H739 0.920 1_556 S
C747 C748 1.355 . S
C747 C749 1.415 1_556 S
C748 C747 1.355 . S
C748 C750 1.419 . S
C749 C744 1.425 1_564 S
C749 C746 1.409 . S
C749 C747 1.415 1_554 S
C750 H740 0.930 1_565 S
C750 C748 1.419 . S
C750 C751 1.362 1_565 S
C751 H741 0.930 . S
C751 C744 1.409 . S
C751 C750 1.362 1_545 S
H752 C758 0.930 . S
H753 C761 0.925 1_455 S
H754 C762 0.930 . S
H755 C763 0.930 . S
H756 C766 0.925 1_655 S
H757 C767 0.930 . S
C758 H752 0.930 . S
C758 C759 1.355 . S
C758 C760 1.415 . S
C759 C758 1.355 . S
C759 C761 1.442 . S
C760 C758 1.415 . S
C760 C765 1.425 1_655 S
C760 C767 1.409 . S
C761 H753 0.925 1_655 S
C761 C759 1.442 . S
C761 C762 1.345 1_655 S
C762 H754 0.930 . S
C762 C761 1.345 1_455 S
C762 C765 1.409 . S
C763 H755 0.930 . S
C763 C764 1.355 . S
C763 C765 1.415 . S
C764 C763 1.355 . S
C764 C766 1.442 . S
C765 C760 1.425 1_455 S
C765 C762 1.409 . S
C765 C763 1.415 . S
C766 H756 0.925 1_455 S
C766 C764 1.442 . S
C766 C767 1.345 1_455 S
C767 H757 0.930 . S
C767 C760 1.409 . S
C767 C766 1.345 1_655 S
H768 C774 0.930 . S
H769 C777 0.930 . S
H770 C778 0.930 . S
H771 C779 0.930 . S
H772 C782 0.930 . S
H773 C783 0.930 . S
C774 H768 0.930 . S
C774 C775 1.355 . S
C774 C776 1.416 1_565 S
C775 C774 1.355 . S
C775 C777 1.419 . S
C776 C774 1.416 1_545 S
C776 C781 1.425 . S
C776 C783 1.408 . S
C777 H769 0.930 . S
C777 C775 1.419 . S
C777 C778 1.362 . S
C778 H770 0.930 . S
C778 C777 1.362 . S
C778 C781 1.396 1_565 S
C779 H771 0.930 . S
C779 C780 1.355 . S
C779 C781 1.428 . S
C780 C779 1.355 . S
C780 C782 1.419 . S
C781 C776 1.425 . S
C781 C778 1.396 1_545 S
C781 C779 1.428 . S
C782 H772 0.930 . S
C782 C780 1.419 . S
C782 C783 1.362 . S
C783 H773 0.930 . S
C783 C776 1.408 . S
C783 C782 1.362 . S
H784 C790 0.930 1_554 S
H785 C793 0.930 . S
H786 C794 0.930 . S
H787 C795 0.930 1_556 S
H788 C798 0.930 . S
H789 C799 0.930 . S
C790 H784 0.930 1_556 S
C790 C791 1.355 . S
C790 C792 1.415 1_556 S
C791 C790 1.355 . S
C791 C793 1.419 . S
C792 C790 1.415 1_554 S
C792 C797 1.425 1_654 S
C792 C799 1.409 . S
C793 H785 0.930 . S
C793 C791 1.419 . S
C793 C794 1.362 1_655 S
C794 H786 0.930 . S
C794 C793 1.362 1_455 S
C794 C797 1.409 . S
C795 H787 0.930 1_554 S
C795 C796 1.355 . S
C795 C797 1.415 1_554 S
C796 C795 1.355 . S
C796 C798 1.419 . S
C797 C792 1.425 1_456 S
C797 C794 1.409 . S
C797 C795 1.415 1_556 S
C798 H788 0.930 . S
C798 C796 1.419 . S
C798 C799 1.362 1_455 S
C799 H789 0.930 . S
C799 C792 1.409 . S
C799 C798 1.362 1_655 S
H800 C806 0.930 . S
H801 C809 0.930 . S
H802 C810 0.930 . S
H803 C811 0.930 . S
H804 C814 0.930 . S
H805 C815 0.930 . S
C806 H800 0.930 . S
C806 C807 1.355 . S
C806 C808 1.415 . S
C807 C806 1.355 . S
C807 C809 1.419 . S
C808 C806 1.415 . S
C808 C813 1.425 . S
C808 C815 1.409 . S
C809 H801 0.930 . S
C809 C807 1.419 . S
C809 C810 1.362 . S
C810 H802 0.930 . S
C810 C809 1.362 . S
C810 C813 1.409 . S
C811 H803 0.930 . S
C811 C812 1.355 . S
C811 C813 1.415 . S
C812 C811 1.355 . S
C812 C814 1.419 . S
C813 C808 1.425 . S
C813 C810 1.409 . S
C813 C811 1.415 . S
C814 H804 0.930 . S
C814 C812 1.419 . S
C814 C815 1.362 . S
C815 H805 0.930 . S
C815 C808 1.409 . S
C815 C814 1.362 . S
H816 C822 0.930 . S
H817 C825 0.930 . S
H818 C826 0.930 . S
H819 C827 0.930 . S
H820 C830 0.930 . S
H821 C831 0.930 . S
C822 H816 0.930 . S
C822 C823 1.355 . S
C822 C824 1.415 . S
C823 C822 1.355 . S
C823 C825 1.419 . S
C824 C822 1.415 . S
C824 C829 1.425 . S
C824 C831 1.409 . S
C825 H817 0.930 . S
C825 C823 1.419 . S
C825 C826 1.362 . S
C826 H818 0.930 . S
C826 C825 1.362 . S
C826 C829 1.409 . S
C827 H819 0.930 . S
C827 C828 1.355 . S
C827 C829 1.415 . S
C828 C827 1.355 . S
C828 C830 1.419 . S
C829 C824 1.425 . S
C829 C826 1.409 . S
C829 C827 1.415 . S
C830 H820 0.930 . S
C830 C828 1.419 . S
C830 C831 1.362 . S
C831 H821 0.930 . S
C831 C824 1.409 . S
C831 C830 1.362 . S
H832 C838 0.930 . S
H833 C841 0.930 . S
H834 C842 0.930 . S
H835 C843 0.930 . S
H836 C846 0.930 . S
H837 C847 0.930 . S
C838 H832 0.930 . S
C838 C839 1.355 . S
C838 C840 1.415 . S
C839 C838 1.355 . S
C839 C841 1.419 . S
C840 C838 1.415 . S
C840 C845 1.425 . S
C840 C847 1.409 . S
C841 H833 0.930 . S
C841 C839 1.419 . S
C841 C842 1.362 . S
C842 H834 0.930 . S
C842 C841 1.362 . S
C842 C845 1.409 . S
C843 H835 0.930 . S
C843 C844 1.355 . S
C843 C845 1.415 . S
C844 C843 1.355 . S
C844 C846 1.419 . S
C845 C840 1.425 . S
C845 C842 1.409 . S
C845 C843 1.415 . S
C846 H836 0.930 . S
C846 C844 1.419 . S
C846 C847 1.362 . S
C847 H837 0.930 . S
C847 C840 1.409 . S
C847 C846 1.362 . S
H848 C854 0.930 . S
H849 C857 0.930 . S
H850 C858 0.930 . S
H851 C859 0.930 . S
H852 C862 0.930 . S
H853 C863 0.930 . S
C854 H848 0.930 . S
C854 C855 1.355 . S
C854 C856 1.415 . S
C855 C854 1.355 . S
C855 C857 1.419 . S
C856 C854 1.415 . S
C856 C861 1.425 1_556 S
C856 C863 1.409 1_556 S
C857 H849 0.930 . S
C857 C855 1.419 . S
C857 C858 1.362 . S
C858 H850 0.930 . S
C858 C857 1.362 . S
C858 C861 1.401 1_556 S
C859 H851 0.930 . S
C859 C860 1.355 . S
C859 C861 1.424 . S
C860 C859 1.355 . S
C860 C862 1.419 . S
C861 C856 1.425 1_554 S
C861 C858 1.401 1_554 S
C861 C859 1.424 . S
C862 H852 0.930 . S
C862 C860 1.419 . S
C862 C863 1.362 . S
C863 H853 0.930 . S
C863 C856 1.409 1_554 S
C863 C862 1.362 . S
H864 C870 0.930 . S
H865 C873 0.930 . S
H866 C874 0.930 . S
H867 C875 0.930 . S
H868 C878 0.930 . S
H869 C879 0.930 . S
C870 H864 0.930 . S
C870 C871 1.355 . S
C870 C872 1.415 . S
C871 C870 1.355 . S
C871 C873 1.419 . S
C872 C870 1.415 . S
C872 C877 1.425 1_565 S
C872 C879 1.409 . S
C873 H865 0.930 . S
C873 C871 1.419 . S
C873 C874 1.362 1_565 S
C874 H866 0.930 . S
C874 C873 1.362 1_545 S
C874 C877 1.409 . S
C875 H867 0.930 . S
C875 C876 1.355 . S
C875 C877 1.415 . S
C876 C875 1.355 . S
C876 C878 1.419 . S
C877 C872 1.425 1_545 S
C877 C874 1.409 . S
C877 C875 1.415 . S
C878 H868 0.930 . S
C878 C876 1.419 . S
C878 C879 1.362 1_545 S
C879 H869 0.930 . S
C879 C872 1.409 . S
C879 C878 1.362 1_565 S
H880 C886 0.930 . S
H881 C889 0.925 1_545 S
H882 C890 0.930 . S
H883 C891 0.930 . S
H884 C894 0.930 1_565 S
H885 C895 0.930 . S
C886 H880 0.930 . S
C886 C887 1.355 . S
C886 C888 1.415 1_655 S
C887 C886 1.355 . S
C887 C889 1.441 . S
C888 C886 1.415 1_455 S
C888 C893 1.425 1_465 S
C888 C895 1.409 . S
C889 H881 0.925 1_565 S
C889 C887 1.441 . S
C889 C890 1.346 1_565 S
C890 H882 0.930 . S
C890 C889 1.346 1_545 S
C890 C893 1.409 . S
C891 H883 0.930 . S
C891 C892 1.355 . S
C891 C893 1.415 1_455 S
C892 C891 1.355 . S
C892 C894 1.419 . S
C893 C888 1.425 1_645 S
C893 C890 1.409 . S
C893 C891 1.415 1_655 S
C894 H884 0.930 1_545 S
C894 C892 1.419 . S
C894 C895 1.362 1_545 S
C895 H885 0.930 . S
C895 C888 1.409 . S
C895 C894 1.362 1_565 S
H896 C902 0.930 1_455 S
H897 C905 0.930 . S
H898 C906 0.930 . S
H899 C907 0.930 1_655 S
H900 C910 0.930 . S
H901 C911 0.930 . S
C902 H896 0.930 1_655 S
C902 C903 1.355 . S
C902 C904 1.415 1_655 S
C903 C902 1.355 . S
C903 C905 1.419 . S
C904 C902 1.415 1_455 S
C904 C909 1.425 1_455 S
C904 C911 1.409 . S
C905 H897 0.930 . S
C905 C903 1.419 . S
C905 C906 1.362 . S
C906 H898 0.930 . S
C906 C905 1.362 . S
C906 C909 1.409 . S
C907 H899 0.930 1_455 S
C907 C908 1.355 . S
C907 C909 1.415 1_455 S
C908 C907 1.355 . S
C908 C910 1.419 . S
C909 C904 1.425 1_655 S
C909 C906 1.409 . S
C909 C907 1.415 1_655 S
C910 H900 0.930 . S
C910 C908 1.419 . S
C910 C911 1.362 . S
C911 H901 0.930 . S
C911 C904 1.409 . S
C911 C910 1.362 . S
H912 C918 0.930 . S
H913 C921 0.930 . S
H914 C922 0.930 . S
H915 C923 0.930 . S
H916 C926 0.930 . S
H917 C927 0.930 . S
C918 H912 0.930 . S
C918 C919 1.355 . S
C918 C920 1.415 . S
C919 C918 1.355 . S
C919 C921 1.419 . S
C920 C918 1.415 . S
C920 C925 1.425 . S
C920 C927 1.409 . S
C921 H913 0.930 . S
C921 C919 1.419 . S
C921 C922 1.362 . S
C922 H914 0.930 . S
C922 C921 1.362 . S
C922 C925 1.409 . S
C923 H915 0.930 . S
C923 C924 1.355 . S
C923 C925 1.415 . S
C924 C923 1.355 . S
C924 C926 1.419 . S
C925 C920 1.425 . S
C925 C922 1.409 . S
C925 C923 1.415 . S
C926 H916 0.930 . S
C926 C924 1.419 . S
C926 C927 1.362 . S
C927 H917 0.930 . S
C927 C920 1.409 . S
C927 C926 1.362 . S
H928 C934 0.930 . S
H929 C937 0.930 . S
H930 C938 0.930 . S
H931 C939 0.930 . S
H932 C942 0.930 . S
H933 C943 0.930 . S
C934 H928 0.930 . S
C934 C935 1.355 . S
C934 C936 1.415 1_554 S
C935 C934 1.355 . S
C935 C937 1.419 . S
C936 C934 1.415 1_556 S
C936 C941 1.425 1_556 S
C936 C943 1.409 . S
C937 H929 0.930 . S
C937 C935 1.419 . S
C937 C938 1.362 . S
C938 H930 0.930 . S
C938 C937 1.362 . S
C938 C941 1.409 . S
C939 H931 0.930 . S
C939 C940 1.355 . S
C939 C941 1.415 1_556 S
C940 C939 1.355 . S
C940 C942 1.419 . S
C941 C936 1.425 1_554 S
C941 C938 1.409 . S
C941 C939 1.415 1_554 S
C942 H932 0.930 . S
C942 C940 1.419 . S
C942 C943 1.362 . S
C943 H933 0.930 . S
C943 C936 1.409 . S
C943 C942 1.362 . S
H944 C950 0.930 . S
H945 C953 0.930 . S
H946 C954 0.930 . S
H947 C955 0.930 . S
H948 C958 0.930 . S
H949 C959 0.930 . S
C950 H944 0.930 . S
C950 C951 1.355 . S
C950 C952 1.415 . S
C951 C950 1.355 . S
C951 C953 1.419 . S
C952 C950 1.415 . S
C952 C957 1.425 . S
C952 C959 1.409 . S
C953 H945 0.930 . S
C953 C951 1.419 . S
C953 C954 1.362 . S
C954 H946 0.930 . S
C954 C953 1.362 . S
C954 C957 1.409 . S
C955 H947 0.930 . S
C955 C956 1.355 . S
C955 C957 1.415 . S
C956 C955 1.355 . S
C956 C958 1.419 . S
C957 C952 1.425 . S
C957 C954 1.409 . S
C957 C955 1.415 . S
C958 H948 0.930 . S
C958 C956 1.419 . S
C958 C959 1.362 . S
C959 H949 0.930 . S
C959 C952 1.409 . S
C959 C958 1.362 . S
C711 C497 1.493 . S
C716 C49 1.491 . S
C727 C645 1.495 . S
C732 C108 1.496 . S
C743 C233 1.492 . S
C748 C557 1.496 . S
C759 C321 1.496 . S
C764 C372 1.495 . S
C775 C548 1.496 . S
C780 C29 1.494 . S
C791 C117 1.496 . S
C796 C409 1.492 . S
C807 C489 1.492 . S
C812 C196 1.496 . S
C823 C313 1.491 . S
C828 C665 1.494 . S
C839 C381 1.491 . S
C844 C460 1.493 . S
C855 C145 1.496 . S
C860 C225 1.496 . S
C871 C293 1.491 . S
C876 C205 1.492 . S
C887 C284 1.492 . S
C892 C57 1.491 . S
C903 C137 1.491 . S
C908 C20 1.493 . S
C919 C636 1.493 . S
C924 C577 1.496 . S
C935 C401 1.491 . S
C940 C585 1.495 . S
C951 C469 1.496 . S
C956 C673 1.494 . S
