# Generated by pormake.
# Topology lon, (4)-cn, num edge types: 1
# Building blocks:
#     Node 0, Type 0, BuildingBlock: KUFVIS_clean_sbu_0, # of connection points: 4
#     Node 1, Type 0, BuildingBlock: KUFVIS_clean_sbu_0, # of connection points: 4
#     Node 2, Type 0, BuildingBlock: KUFVIS_clean_sbu_0, # of connection points: 4
#     Node 3, Type 0, BuildingBlock: KUFVIS_clean_sbu_0, # of connection points: 4
#     Edge 4, Type (0, 0), BuildingBlock: CIFDUS_clean_linker_0, # of connection points: 2
#     Edge 5, Type (0, 0), BuildingBlock: CIFDUS_clean_linker_0, # of connection points: 2
#     Edge 6, Type (0, 0), BuildingBlock: CIFDUS_clean_linker_0, # of connection points: 2
#     Edge 7, Type (0, 0), BuildingBlock: CIFDUS_clean_linker_0, # of connection points: 2
#     Edge 8, Type (0, 0), BuildingBlock: CIFDUS_clean_linker_0, # of connection points: 2
#     Edge 9, Type (0, 0), BuildingBlock: CIFDUS_clean_linker_0, # of connection points: 2
#     Edge 10, Type (0, 0), BuildingBlock: CIFDUS_clean_linker_0, # of connection points: 2
#     Edge 11, Type (0, 0), BuildingBlock: CIFDUS_clean_linker_0, # of connection points: 2
# Relax obj value: 0.047
# Max RMSD: 0.107
# Mean RMSD: 0.088
data_MOF--net-lon--node1-KUFVIS_clean_sbu_0--edge1-CIFDUS_clean_linker_0
_symmetry_space_group_name_H-M    P1
_symmetry_Int_Tables_number       1
_symmetry_cell_setting            triclinic
loop_
_symmetry_equiv_pos_as_xyz
'x, y, z'
_cell_length_a     21.274901
_cell_length_b     20.588971
_cell_length_c     35.409555
_cell_angle_alpha  100.2177
_cell_angle_beta   89.384263
_cell_angle_gamma 121.36164
loop_
_atom_site_label
_atom_site_type_symbol
_atom_site_fract_x
_atom_site_fract_y
_atom_site_fract_z
_atom_type_partial_charge
Mn0 Mn 0.34913 0.70189 0.08403 0.0
Mn1 Mn 0.28014 0.6291 0.99049 0.0
C2 C 0.23113 0.67077 0.06465 0.0
C3 C 0.36697 0.68427 0.14567 0.0
C4 C 0.40148 0.79732 0.0211 0.0
O5 O 0.41475 0.66295 0.06048 0.0
O6 O 0.35121 0.59928 1.00156 0.0
C7 C 0.196 0.46139 0.99244 0.0
N8 N 0.19823 0.52446 0.98399 0.0
C9 C 0.07024 0.44732 0.95856 0.0
C10 C 0.06696 0.38126 0.96638 0.0
C11 C 0.12997 0.38848 0.98372 0.0
C12 C 0.13735 0.51856 0.96837 0.0
H13 H 0.24409 0.46694 1.00598 0.0
C14 C 0.40184 0.61777 0.02777 0.0
O15 O 0.41106 0.74888 0.13456 0.0
O16 O 0.31416 0.62871 0.12058 0.0
N17 N 0.20907 0.65304 0.97619 0.0
C18 C 0.21996 0.72313 0.97301 0.0
C19 C 0.16183 0.72644 0.957 0.0
C20 C 0.09346 0.65769 0.94394 0.0
C21 C 0.08354 0.58622 0.94742 0.0
C22 C 0.14344 0.58653 0.96366 0.0
H23 H 0.27272 0.77609 0.98231 0.0
O24 O 0.26571 0.71951 0.09679 0.0
O25 O 0.26746 0.64447 0.04519 0.0
O26 O 0.39899 0.79372 0.05671 0.0
O27 O 0.36282 0.73814 0.99408 0.0
C28 C 1.01612 0.51484 0.93612 0.0
C29 C 1.0093 0.44551 0.94197 0.0
H30 H 1.01615 0.32492 0.95962 0.0
H31 H 0.12767 0.33795 0.99029 0.0
H32 H 0.16986 0.78185 0.95449 0.0
H33 H 0.0487 0.66051 0.93171 0.0
H34 H 0.9687 0.51283 0.92366 0.0
H35 H 0.95671 0.39126 0.934 0.0
Mn36 Mn 0.75203 0.36947 0.58324 0.0
Mn37 Mn 0.57099 0.30583 0.59279 0.0
C38 C 0.66613 0.23459 0.57647 0.0
C39 C 0.86507 0.41396 0.55355 0.0
C40 C 0.68928 0.38587 0.65991 0.0
O41 O 0.74205 0.46146 0.57433 0.0
O42 O 0.61821 0.40292 0.57387 0.0
C43 C 0.50859 0.2731 0.51254 0.0
N44 N 0.506 0.25074 0.54673 0.0
C45 C 0.3786 0.14797 0.53085 0.0
C46 C 0.37979 0.16942 0.49525 0.0
C47 C 0.44538 0.23169 0.48587 0.0
C48 C 0.44399 0.18982 0.5556 0.0
H49 H 0.55803 0.32291 0.50614 0.0
C50 C 0.68122 0.45938 0.56921 0.0
O51 O 0.86149 0.43487 0.58958 0.0
O52 O 0.80142 0.36804 0.533 0.0
N53 N 0.51456 0.21219 0.61147 0.0
C54 C 0.52473 0.1962 0.6458 0.0
C55 C 0.46579 0.13326 0.65884 0.0
C56 C 0.3963 0.08954 0.63723 0.0
C57 C 0.38686 0.10808 0.60231 0.0
C58 C 0.44821 0.17014 0.59035 0.0
H59 H 0.57707 0.23185 0.66331 0.0
O60 O 0.73621 0.2658 0.58606 0.0
O61 O 0.64674 0.28304 0.57065 0.0
O62 O 0.74088 0.38809 0.64095 0.0
O63 O 0.62582 0.36157 0.644 0.0
C64 C 0.31962 0.06648 0.5784 0.0
C65 C 0.31556 0.08624 0.54264 0.0
H66 H 0.33086 0.13832 0.47487 0.0
H67 H 0.44668 0.24878 0.45855 0.0
H68 H 0.4734 0.1196 0.68592 0.0
H69 H 0.35075 0.04158 0.64758 0.0
H70 H 0.27118 1.01814 0.58683 0.0
H71 H 0.26403 0.05286 0.52418 0.0
Mn72 Mn 0.40613 0.66071 0.44126 0.0
Mn73 Mn 0.31057 0.74953 0.43995 0.0
C74 C 0.46942 0.79699 0.45418 0.0
C75 C 0.46317 0.60502 0.46866 0.0
C76 C 0.33447 0.66503 0.36809 0.0
O77 O 0.29738 0.57578 0.44834 0.0
O78 O 0.24559 0.64896 0.4551 0.0
C79 C 0.29678 0.77909 0.52322 0.0
N80 N 0.31796 0.8061 0.49001 0.0
C81 C 0.37664 0.93806 0.52388 0.0
C82 C 0.35583 0.91204 0.55859 0.0
C83 C 0.31496 0.8321 0.55819 0.0
C84 C 0.35577 0.8828 0.4899 0.0
H85 H 0.26777 0.71771 0.5231 0.0
C86 C 0.24286 0.58558 0.45547 0.0
O87 O 0.44003 0.5863 0.43251 0.0
O88 O 0.44828 0.65259 0.49024 0.0
N89 N 0.36788 0.84793 0.42537 0.0
C90 C 0.39075 0.86397 0.39022 0.0
C91 C 0.43036 0.94133 0.38551 0.0
C92 C 0.44672 1.00138 0.41705 0.0
C93 C 0.42253 0.98319 0.45282 0.0
C94 C 0.38069 0.90488 0.45544 0.0
H95 H 0.37896 0.81831 0.36586 0.0
O96 O 0.5032 0.76127 0.44147 0.0
O97 O 0.39957 0.75177 0.45787 0.0
O98 O 0.37935 0.65346 0.38467 0.0
O99 O 0.30035 0.69433 0.38643 0.0
C100 C 0.44307 0.03968 0.4866 0.0
C101 C 0.42271 1.01656 0.52208 0.0
H102 H 0.37225 0.95281 0.58578 0.0
H103 H 0.29916 0.81151 0.58486 0.0
H104 H 0.44913 0.95469 0.3578 0.0
H105 H 0.47937 0.06123 0.41373 0.0
H106 H 0.4793 0.10069 0.48607 0.0
H107 H 0.4478 0.0588 0.54815 0.0
Mn108 Mn 0.66973 0.34581 0.94291 0.0
Mn109 Mn 0.6625 0.40437 0.03783 0.0
C110 C 0.57415 0.36162 0.96337 0.0
C111 C 0.70641 0.37018 0.88178 0.0
C112 C 0.62904 0.24275 1.0026 0.0
O113 O 0.77608 0.3965 0.96623 0.0
O114 O 0.76621 0.44293 0.02767 0.0
C115 C 0.74307 0.57546 0.04659 0.0
N116 N 0.68038 0.50728 0.04928 0.0
C117 C 0.62246 0.57457 0.07934 0.0
C118 C 0.68649 0.64547 0.07693 0.0
C119 C 0.74686 0.64586 0.06026 0.0
C120 C 0.62178 0.50625 0.06505 0.0
H121 H 0.79001 0.57614 0.03441 0.0
C122 C 0.8036 0.43644 1.00033 0.0
O123 O 0.69157 0.30664 0.89207 0.0
O124 O 0.70202 0.42101 0.90734 0.0
N125 N 0.56399 0.37169 0.05054 0.0
C126 C 0.50498 0.29831 0.04879 0.0
C127 C 0.43861 0.28765 0.06233 0.0
C128 C 0.43386 0.35246 0.07793 0.0
C129 C 0.49544 0.42741 0.07965 0.0
C130 C 0.55993 0.43443 0.06544 0.0
H131 H 0.50843 0.24827 0.03711 0.0
O132 O 0.56476 0.31581 0.93069 0.0
O133 O 0.63757 0.39448 0.9831 0.0
O134 O 0.6349 0.25119 0.96772 0.0
O135 O 0.64177 0.29754 0.03069 0.0
C136 C 0.49511 0.4954 0.09452 0.0
C137 C 0.55868 0.56893 0.09453 0.0
H138 H 0.68956 0.69988 0.08737 0.0
H139 H 0.7964 0.70033 0.05819 0.0
H140 H 0.39129 0.22961 0.06086 0.0
H141 H 0.38256 0.34399 0.08834 0.0
H142 H 0.446 0.4918 0.10566 0.0
H143 H 0.55745 0.62075 0.10562 0.0
H144 H 0.25499 0.61186 0.18942 0.0
H145 H 0.4927 0.74363 0.19279 0.0
H146 H 0.50328 0.74163 0.26136 0.0
H147 H 0.44484 0.71006 0.32141 0.0
H148 H 0.20779 0.59342 0.31981 0.0
H149 H 0.19652 0.58131 0.24968 0.0
C150 C 0.309 0.63903 0.20513 0.0
C151 C 0.37304 0.67707 0.18611 0.0
C152 C 0.31455 0.64064 0.24493 0.0
C153 C 0.44274 0.71375 0.20687 0.0
C154 C 0.44874 0.7127 0.24605 0.0
C155 C 0.39074 0.68085 0.3055 0.0
C156 C 0.32709 0.65152 0.32549 0.0
C157 C 0.38507 0.67735 0.26553 0.0
C158 C 0.25739 0.61582 0.30488 0.0
C159 C 0.25103 0.60909 0.26486 0.0
H160 H 0.76146 0.34825 0.70588 0.0
H161 H 0.63693 0.46003 0.7094 0.0
H162 H 0.63941 0.47403 0.7796 0.0
H163 H 0.66689 0.44327 0.83928 0.0
H164 H 0.77837 0.31755 0.83419 0.0
H165 H 0.79185 0.3207 0.76571 0.0
C166 C 0.73632 0.37718 0.72219 0.0
C167 C 0.69979 0.40389 0.7026 0.0
C168 C 0.7351 0.38181 0.76232 0.0
C169 C 0.6657 0.43941 0.72391 0.0
C170 C 0.66691 0.44716 0.76402 0.0
C171 C 0.6953 0.4179 0.82326 0.0
C172 C 0.72202 0.38064 0.84173 0.0
C173 C 0.69999 0.41702 0.78346 0.0
C174 C 0.7574 0.34656 0.82054 0.0
C175 C 0.765 0.34825 0.78138 0.0
H176 H 0.3503 0.4654 1.01097 0.0
H177 H 0.54958 0.69076 0.02238 0.0
H178 H 0.61864 0.62943 0.99782 0.0
H179 H 0.62224 0.5119 0.97591 0.0
H180 H 0.42435 0.28614 0.96668 0.0
H181 H 0.35301 0.34731 0.98701 0.0
C182 C 0.40893 0.50082 1.00834 0.0
C183 C 0.44555 0.58206 0.01881 0.0
C184 C 0.44764 0.46516 0.99446 0.0
C185 C 0.52124 0.628 1.01521 0.0
C186 C 0.56014 0.59304 1.00071 0.0
C187 C 0.56334 0.47628 0.97829 0.0
C188 C 0.52826 0.39515 0.971 0.0
C189 C 0.52394 0.51178 0.99068 0.0
C190 C 0.45196 0.34885 0.97277 0.0
C191 C 0.41168 0.3838 0.98457 0.0
H192 H 0.20516 0.57481 0.52756 0.0
H193 H 0.1194 0.46872 0.40911 0.0
H194 H 0.99255 0.40262 0.42808 0.0
H195 H 0.90437 0.38699 0.47875 0.0
H196 H 0.99671 0.50253 0.59646 0.0
H197 H 0.12041 0.55241 0.57749 0.0
C198 C 0.15887 0.53464 0.50608 0.0
C199 C 0.17218 0.52463 0.46714 0.0
C200 C 0.08614 0.50003 0.51707 0.0
C201 C 0.11112 0.47508 0.43946 0.0
C202 C 0.03829 0.43851 0.4503 0.0
C203 C 0.95153 0.42274 0.50019 0.0
C204 C 0.93991 0.44114 0.53908 0.0
C205 C 1.0247 0.45249 0.48903 0.0
C206 C 1.00256 0.48742 0.56629 0.0
C207 C 0.07414 0.51609 0.55556 0.0
H208 H 0.56003 0.10258 0.95217 0.0
H209 H 0.63191 0.20643 0.0728 0.0
H210 H 0.57195 0.07811 0.08872 0.0
H211 H 0.49183 0.93694 0.06931 0.0
H212 H 0.41664 0.83223 0.94899 0.0
H213 H 0.48551 0.96011 0.93225 0.0
C214 C 0.56356 0.09723 0.98188 0.0
C215 C 0.60027 0.16443 1.0112 0.0
C216 C 0.52777 0.02294 0.99104 0.0
C217 C 0.60377 0.156 0.04958 0.0
C218 C 0.56933 0.0825 0.05878 0.0
C219 C 0.4908 0.94175 0.03935 0.0
C220 C 0.44844 0.87461 1.01058 0.0
C221 C 0.52991 1.01561 0.02987 0.0
C222 C 0.44841 0.88257 0.97188 0.0
C223 C 0.48777 0.95587 0.96222 0.0
H224 H 0.6463 0.45173 0.49579 0.0
H225 H 0.69406 0.5927 0.60921 0.0
H226 H 0.62989 0.65263 0.5883 0.0
H227 H 0.54484 0.65136 0.53946 0.0
H228 H 0.4888 0.49785 0.42836 0.0
H229 H 0.56851 0.45483 0.44691 0.0
C230 C 0.64529 0.49794 0.51547 0.0
C231 C 0.67692 0.51927 0.55368 0.0
C232 C 0.60344 0.52743 0.50402 0.0
C233 C 0.67281 0.57733 0.57923 0.0
C234 C 0.63425 0.61005 0.56749 0.0
C235 C 0.54995 0.60836 0.51942 0.0
C236 C 0.50978 0.57754 0.48259 0.0
C237 C 0.59652 0.58314 0.53035 0.0
C238 C 0.51815 0.52245 0.45694 0.0
C239 C 0.56439 0.49802 0.4674 0.0
H240 H 0.13387 0.7088 0.0433 0.0
H241 H 0.15004 0.52508 0.07493 0.0
H242 H 1.01768 0.43394 0.05754 0.0
H243 H 0.89859 0.40438 0.02916 0.0
H244 H 0.88408 0.58426 0.99163 0.0
H245 H 1.01387 0.67913 1.01519 0.0
C246 C 0.10765 0.64919 0.04694 0.0
C247 C 0.15053 0.62289 0.05999 0.0
C248 C 0.03215 0.59629 0.03525 0.0
C249 C 0.11711 0.54577 0.06468 0.0
C250 C 0.04181 0.49367 0.05454 0.0
C251 C 0.9247 0.46407 0.02561 0.0
C252 C 0.88348 0.4877 1.00819 0.0
C253 C 0.99924 0.51768 0.03872 0.0
C254 C 0.91617 0.56525 1.00446 0.0
C255 C 0.98981 0.61949 0.0183 0.0
H256 H 0.65326 0.16536 0.50208 0.0
H257 H 0.58933 0.11371 0.6138 0.0
H258 H 0.52631 0.97413 0.58648 0.0
H259 H 0.48341 0.86579 0.52946 0.0
H260 H 0.55687 0.91786 0.41891 0.0
H261 H 0.62313 0.05747 0.44683 0.0
C262 C 0.62441 0.12332 0.52025 0.0
C263 C 0.62172 0.14981 0.55951 0.0
C264 C 0.59114 0.04309 0.5045 0.0
C265 C 0.58826 0.0949 0.58317 0.0
C266 C 0.55363 1.01502 0.56763 0.0
C267 C 0.5141 0.90789 0.51157 0.0
C268 C 0.51258 0.88165 0.47173 0.0
C269 C 0.55344 0.98824 0.52814 0.0
C270 C 0.5553 0.93662 0.4493 0.0
C271 C 0.59341 1.01649 0.46535 0.0
loop_
_geom_bond_atom_site_label_1
_geom_bond_atom_site_label_2
_geom_bond_distance
_geom_bond_site_symmetry_2
_ccdc_geom_bond_type
Mn0 O5 2.095 . S
Mn0 O15 2.162 . S
Mn0 O16 2.297 . S
Mn0 O24 2.385 . S
Mn0 O25 2.209 . S
Mn0 O26 2.094 . S
Mn1 O6 2.121 . S
Mn1 N8 2.257 . S
Mn1 N17 2.282 . S
Mn1 O25 2.215 1_556 S
Mn1 O27 2.117 1_556 S
C2 O24 1.234 . S
C2 O25 1.283 . S
C3 O15 1.281 . S
C3 O16 1.236 . S
C4 O26 1.240 . S
C4 O27 1.264 . S
O5 Mn0 2.095 . S
O5 C14 1.250 . S
O6 Mn1 2.121 . S
O6 C14 1.258 1_556 S
C7 N8 1.326 . S
C7 C11 1.460 . S
C7 H13 0.929 . S
N8 Mn1 2.257 . S
N8 C7 1.326 . S
N8 C12 1.362 . S
C9 C10 1.258 . S
C9 C12 1.431 . S
C9 C29 1.449 . S
C10 C9 1.258 . S
C10 C11 1.477 . S
C10 H30 0.931 . S
C11 C7 1.460 . S
C11 C10 1.477 . S
C11 H31 0.930 . S
C12 N8 1.362 . S
C12 C9 1.431 . S
C12 C22 1.476 . S
H13 C7 0.929 . S
C14 O5 1.250 . S
C14 O6 1.258 1_554 S
O15 Mn0 2.162 . S
O15 C3 1.281 . S
O16 Mn0 2.297 . S
O16 C3 1.236 . S
N17 Mn1 2.282 . S
N17 C18 1.328 . S
N17 C22 1.318 . S
C18 N17 1.328 . S
C18 C19 1.457 . S
C18 H23 0.929 . S
C19 C18 1.457 . S
C19 C20 1.291 . S
C19 H32 0.931 . S
C20 C19 1.291 . S
C20 C21 1.373 . S
C20 H33 0.929 . S
C21 C20 1.373 . S
C21 C22 1.396 . S
C21 C28 1.403 . S
C22 C12 1.476 . S
C22 N17 1.318 . S
C22 C21 1.396 . S
H23 C18 0.929 . S
O24 Mn0 2.385 . S
O24 C2 1.234 . S
O25 Mn0 2.209 . S
O25 Mn1 2.215 1_554 S
O25 C2 1.283 . S
O26 Mn0 2.094 . S
O26 C4 1.240 . S
O27 Mn1 2.117 1_554 S
O27 C4 1.264 . S
C28 C21 1.403 . S
C28 C29 1.399 . S
C28 H34 0.929 1_455 S
C29 C9 1.449 . S
C29 C28 1.399 . S
C29 H35 0.930 1_455 S
H30 C10 0.931 . S
H31 C11 0.930 . S
H32 C19 0.931 . S
H33 C20 0.929 . S
H34 C28 0.929 1_655 S
H35 C29 0.930 1_655 S
Mn36 O41 2.095 . S
Mn36 O51 2.162 . S
Mn36 O52 2.297 . S
Mn36 O60 2.385 . S
Mn36 O61 2.209 . S
Mn36 O62 2.094 . S
Mn37 O42 2.121 . S
Mn37 N44 2.257 . S
Mn37 N53 2.282 . S
Mn37 O61 2.215 . S
Mn37 O63 2.117 . S
C38 O60 1.234 . S
C38 O61 1.283 . S
C39 O51 1.281 . S
C39 O52 1.236 . S
C40 O62 1.240 . S
C40 O63 1.264 . S
O41 Mn36 2.095 . S
O41 C50 1.250 . S
O42 Mn37 2.121 . S
O42 C50 1.258 . S
C43 N44 1.326 . S
C43 C47 1.460 . S
C43 H49 0.929 . S
N44 Mn37 2.257 . S
N44 C43 1.326 . S
N44 C48 1.362 . S
C45 C46 1.258 . S
C45 C48 1.431 . S
C45 C65 1.449 1_545 S
C46 C45 1.258 . S
C46 C47 1.477 . S
C46 H66 0.931 . S
C47 C43 1.460 . S
C47 C46 1.477 . S
C47 H67 0.930 . S
C48 N44 1.362 . S
C48 C45 1.431 . S
C48 C58 1.476 . S
H49 C43 0.929 . S
C50 O41 1.250 . S
C50 O42 1.258 . S
O51 Mn36 2.162 . S
O51 C39 1.281 . S
O52 Mn36 2.297 . S
O52 C39 1.236 . S
N53 Mn37 2.282 . S
N53 C54 1.328 . S
N53 C58 1.318 . S
C54 N53 1.328 . S
C54 C55 1.457 . S
C54 H59 0.929 . S
C55 C54 1.457 . S
C55 C56 1.288 1_545 S
C55 H68 0.931 . S
C56 C55 1.288 1_565 S
C56 C57 1.367 1_565 S
C56 H69 0.938 . S
C57 C56 1.367 1_545 S
C57 C58 1.396 . S
C57 C64 1.403 1_545 S
C58 C48 1.476 . S
C58 N53 1.318 . S
C58 C57 1.396 . S
H59 C54 0.929 . S
O60 Mn36 2.385 . S
O60 C38 1.234 . S
O61 Mn36 2.209 . S
O61 Mn37 2.215 . S
O61 C38 1.283 . S
O62 Mn36 2.094 . S
O62 C40 1.240 . S
O63 Mn37 2.117 . S
O63 C40 1.264 . S
C64 C57 1.403 1_565 S
C64 C65 1.399 . S
C64 H70 0.929 . S
C65 C45 1.449 1_565 S
C65 C64 1.399 . S
C65 H71 0.930 . S
H66 C46 0.931 . S
H67 C47 0.930 . S
H68 C55 0.931 . S
H69 C56 0.938 . S
H70 C64 0.929 . S
H71 C65 0.930 . S
Mn72 O77 2.095 . S
Mn72 O87 2.162 . S
Mn72 O88 2.297 . S
Mn72 O96 2.385 . S
Mn72 O97 2.209 . S
Mn72 O98 2.094 . S
Mn73 O78 2.121 . S
Mn73 N80 2.257 . S
Mn73 N89 2.282 . S
Mn73 O97 2.215 . S
Mn73 O99 2.117 . S
C74 O96 1.234 . S
C74 O97 1.283 . S
C75 O87 1.281 . S
C75 O88 1.236 . S
C76 O98 1.240 . S
C76 O99 1.264 . S
O77 Mn72 2.095 . S
O77 C86 1.250 . S
O78 Mn73 2.121 . S
O78 C86 1.258 . S
C79 N80 1.326 . S
C79 C83 1.460 . S
C79 H85 0.929 . S
N80 Mn73 2.257 . S
N80 C79 1.326 . S
N80 C84 1.362 . S
C81 C82 1.258 . S
C81 C84 1.431 . S
C81 C101 1.449 1_565 S
C82 C81 1.258 . S
C82 C83 1.477 . S
C82 H102 0.931 . S
C83 C79 1.460 . S
C83 C82 1.477 . S
C83 H103 0.930 . S
C84 N80 1.362 . S
C84 C81 1.431 . S
C84 C94 1.476 . S
H85 C79 0.929 . S
C86 O77 1.250 . S
C86 O78 1.258 . S
O87 Mn72 2.162 . S
O87 C75 1.281 . S
O88 Mn72 2.297 . S
O88 C75 1.236 . S
N89 Mn73 2.282 . S
N89 C90 1.328 . S
N89 C94 1.318 . S
C90 N89 1.328 . S
C90 C91 1.457 . S
C90 H95 0.929 . S
C91 C90 1.457 . S
C91 C92 1.283 1_565 S
C91 H104 0.931 . S
C92 C91 1.283 1_545 S
C92 C93 1.372 1_545 S
C92 H105 0.937 . S
C93 C92 1.372 1_565 S
C93 C94 1.396 . S
C93 C100 1.403 1_565 S
C94 C84 1.476 . S
C94 N89 1.318 . S
C94 C93 1.396 . S
H95 C90 0.929 . S
O96 Mn72 2.385 . S
O96 C74 1.234 . S
O97 Mn72 2.209 . S
O97 Mn73 2.215 . S
O97 C74 1.283 . S
O98 Mn72 2.094 . S
O98 C76 1.240 . S
O99 Mn73 2.117 . S
O99 C76 1.264 . S
C100 C93 1.403 1_545 S
C100 C101 1.399 . S
C100 H106 0.929 . S
C101 C81 1.449 1_545 S
C101 C100 1.399 . S
C101 H107 0.930 . S
H102 C82 0.931 . S
H103 C83 0.930 . S
H104 C91 0.931 . S
H105 C92 0.937 . S
H106 C100 0.929 . S
H107 C101 0.930 . S
Mn108 O113 2.095 . S
Mn108 O123 2.162 . S
Mn108 O124 2.297 . S
Mn108 O132 2.385 . S
Mn108 O133 2.209 . S
Mn108 O134 2.094 . S
Mn109 O114 2.121 . S
Mn109 N116 2.257 . S
Mn109 N125 2.282 . S
Mn109 O133 2.215 1_554 S
Mn109 O135 2.117 1_554 S
C110 O132 1.234 . S
C110 O133 1.283 . S
C111 O123 1.281 . S
C111 O124 1.236 . S
C112 O134 1.240 . S
C112 O135 1.264 . S
O113 Mn108 2.095 . S
O113 C122 1.250 . S
O114 Mn109 2.121 . S
O114 C122 1.258 1_554 S
C115 N116 1.326 . S
C115 C119 1.460 . S
C115 H121 0.929 . S
N116 Mn109 2.257 . S
N116 C115 1.326 . S
N116 C120 1.362 . S
C117 C118 1.258 . S
C117 C120 1.431 . S
C117 C137 1.449 . S
C118 C117 1.258 . S
C118 C119 1.477 . S
C118 H138 0.931 . S
C119 C115 1.460 . S
C119 C118 1.477 . S
C119 H139 0.930 . S
C120 N116 1.362 . S
C120 C117 1.431 . S
C120 C130 1.476 . S
H121 C115 0.929 . S
C122 O113 1.250 . S
C122 O114 1.258 1_556 S
O123 Mn108 2.162 . S
O123 C111 1.281 . S
O124 Mn108 2.297 . S
O124 C111 1.236 . S
N125 Mn109 2.282 . S
N125 C126 1.328 . S
N125 C130 1.318 . S
C126 N125 1.328 . S
C126 C127 1.457 . S
C126 H131 0.929 . S
C127 C126 1.457 . S
C127 C128 1.291 . S
C127 H140 0.931 . S
C128 C127 1.291 . S
C128 C129 1.373 . S
C128 H141 0.929 . S
C129 C128 1.373 . S
C129 C130 1.396 . S
C129 C136 1.403 . S
C130 C120 1.476 . S
C130 N125 1.318 . S
C130 C129 1.396 . S
H131 C126 0.929 . S
O132 Mn108 2.385 . S
O132 C110 1.234 . S
O133 Mn108 2.209 . S
O133 Mn109 2.215 1_556 S
O133 C110 1.283 . S
O134 Mn108 2.094 . S
O134 C112 1.240 . S
O135 Mn109 2.117 1_556 S
O135 C112 1.264 . S
C136 C129 1.403 . S
C136 C137 1.399 . S
C136 H142 0.929 . S
C137 C117 1.449 . S
C137 C136 1.399 . S
C137 H143 0.930 . S
H138 C118 0.931 . S
H139 C119 0.930 . S
H140 C127 0.931 . S
H141 C128 0.929 . S
H142 C136 0.929 . S
H143 C137 0.930 . S
H144 C150 0.930 . S
H145 C153 0.930 . S
H146 C154 0.930 . S
H147 C155 0.930 . S
H148 C158 0.930 . S
H149 C159 0.930 . S
C150 H144 0.930 . S
C150 C151 1.355 . S
C150 C152 1.415 . S
C151 C150 1.355 . S
C151 C153 1.419 . S
C152 C150 1.415 . S
C152 C157 1.425 . S
C152 C159 1.409 . S
C153 H145 0.930 . S
C153 C151 1.419 . S
C153 C154 1.362 . S
C154 H146 0.930 . S
C154 C153 1.362 . S
C154 C157 1.409 . S
C155 H147 0.930 . S
C155 C156 1.355 . S
C155 C157 1.415 . S
C156 C155 1.355 . S
C156 C158 1.419 . S
C157 C152 1.425 . S
C157 C154 1.409 . S
C157 C155 1.415 . S
C158 H148 0.930 . S
C158 C156 1.419 . S
C158 C159 1.362 . S
C159 H149 0.930 . S
C159 C152 1.409 . S
C159 C158 1.362 . S
H160 C166 0.930 . S
H161 C169 0.930 . S
H162 C170 0.930 . S
H163 C171 0.930 . S
H164 C174 0.930 . S
H165 C175 0.930 . S
C166 H160 0.930 . S
C166 C167 1.355 . S
C166 C168 1.415 . S
C167 C166 1.355 . S
C167 C169 1.419 . S
C168 C166 1.415 . S
C168 C173 1.425 . S
C168 C175 1.409 . S
C169 H161 0.930 . S
C169 C167 1.419 . S
C169 C170 1.362 . S
C170 H162 0.930 . S
C170 C169 1.362 . S
C170 C173 1.409 . S
C171 H163 0.930 . S
C171 C172 1.355 . S
C171 C173 1.415 . S
C172 C171 1.355 . S
C172 C174 1.419 . S
C173 C168 1.425 . S
C173 C170 1.409 . S
C173 C171 1.415 . S
C174 H164 0.930 . S
C174 C172 1.419 . S
C174 C175 1.362 . S
C175 H165 0.930 . S
C175 C168 1.409 . S
C175 C174 1.362 . S
H176 C182 0.930 . S
H177 C185 0.930 . S
H178 C186 0.930 . S
H179 C187 0.930 . S
H180 C190 0.930 . S
H181 C191 0.930 . S
C182 H176 0.930 . S
C182 C183 1.355 . S
C182 C184 1.415 . S
C183 C182 1.355 . S
C183 C185 1.419 1_554 S
C184 C182 1.415 . S
C184 C189 1.425 1_554 S
C184 C191 1.409 . S
C185 H177 0.930 . S
C185 C183 1.419 1_556 S
C185 C186 1.362 . S
C186 H178 0.930 . S
C186 C185 1.362 . S
C186 C189 1.409 . S
C187 H179 0.930 . S
C187 C188 1.355 . S
C187 C189 1.415 . S
C188 C187 1.355 . S
C188 C190 1.419 1_556 S
C189 C184 1.425 1_556 S
C189 C186 1.409 . S
C189 C187 1.415 . S
C190 H180 0.930 . S
C190 C188 1.419 1_554 S
C190 C191 1.362 . S
C191 H181 0.930 . S
C191 C184 1.409 . S
C191 C190 1.362 . S
H192 C198 0.930 . S
H193 C201 0.930 . S
H194 C202 0.930 1_655 S
H195 C203 0.930 . S
H196 C206 0.930 . S
H197 C207 0.930 . S
C198 H192 0.930 . S
C198 C199 1.355 . S
C198 C200 1.415 . S
C199 C198 1.355 . S
C199 C201 1.419 . S
C200 C198 1.415 . S
C200 C205 1.425 . S
C200 C207 1.409 . S
C201 H193 0.930 . S
C201 C199 1.419 . S
C201 C202 1.362 . S
C202 H194 0.930 1_455 S
C202 C201 1.362 . S
C202 C205 1.409 . S
C203 H195 0.930 . S
C203 C204 1.355 . S
C203 C205 1.415 1_655 S
C204 C203 1.355 . S
C204 C206 1.419 . S
C205 C200 1.425 . S
C205 C202 1.409 . S
C205 C203 1.415 1_455 S
C206 H196 0.930 . S
C206 C204 1.419 . S
C206 C207 1.362 1_655 S
C207 H197 0.930 . S
C207 C200 1.409 . S
C207 C206 1.362 1_455 S
H208 C214 0.930 . S
H209 C217 0.930 . S
H210 C218 0.930 . S
H211 C219 0.930 . S
H212 C222 0.930 . S
H213 C223 0.930 . S
C214 H208 0.930 . S
C214 C215 1.355 . S
C214 C216 1.415 1_545 S
C215 C214 1.355 . S
C215 C217 1.419 1_556 S
C216 C214 1.415 1_565 S
C216 C221 1.425 1_566 S
C216 C223 1.409 . S
C217 H209 0.930 . S
C217 C215 1.419 1_554 S
C217 C218 1.362 . S
C218 H210 0.930 . S
C218 C217 1.362 . S
C218 C221 1.409 . S
C219 H211 0.930 . S
C219 C220 1.355 . S
C219 C221 1.415 1_565 S
C220 C219 1.355 . S
C220 C222 1.419 1_554 S
C221 C216 1.425 1_544 S
C221 C218 1.409 . S
C221 C219 1.415 1_545 S
C222 H212 0.930 . S
C222 C220 1.419 1_556 S
C222 C223 1.362 . S
C223 H213 0.930 . S
C223 C216 1.409 . S
C223 C222 1.362 . S
H224 C230 0.930 . S
H225 C233 0.930 . S
H226 C234 0.930 . S
H227 C235 0.930 . S
H228 C238 0.930 . S
H229 C239 0.930 . S
C230 H224 0.930 . S
C230 C231 1.355 . S
C230 C232 1.415 . S
C231 C230 1.355 . S
C231 C233 1.419 . S
C232 C230 1.415 . S
C232 C237 1.425 . S
C232 C239 1.409 . S
C233 H225 0.930 . S
C233 C231 1.419 . S
C233 C234 1.362 . S
C234 H226 0.930 . S
C234 C233 1.362 . S
C234 C237 1.409 . S
C235 H227 0.930 . S
C235 C236 1.355 . S
C235 C237 1.415 . S
C236 C235 1.355 . S
C236 C238 1.419 . S
C237 C232 1.425 . S
C237 C234 1.409 . S
C237 C235 1.415 . S
C238 H228 0.930 . S
C238 C236 1.419 . S
C238 C239 1.362 . S
C239 H229 0.930 . S
C239 C232 1.409 . S
C239 C238 1.362 . S
H240 C246 0.930 . S
H241 C249 0.930 . S
H242 C250 0.930 . S
H243 C251 0.930 . S
H244 C254 0.930 . S
H245 C255 0.930 . S
C246 H240 0.930 . S
C246 C247 1.355 . S
C246 C248 1.415 1_455 S
C247 C246 1.355 . S
C247 C249 1.419 1_554 S
C248 C246 1.415 1_655 S
C248 C253 1.425 1_554 S
C248 C255 1.409 . S
C249 H241 0.930 . S
C249 C247 1.419 1_556 S
C249 C250 1.362 . S
C250 H242 0.930 . S
C250 C249 1.362 . S
C250 C253 1.409 1_455 S
C251 H243 0.930 . S
C251 C252 1.355 . S
C251 C253 1.415 . S
C252 C251 1.355 . S
C252 C254 1.419 1_556 S
C253 C248 1.425 1_556 S
C253 C250 1.409 1_655 S
C253 C251 1.415 . S
C254 H244 0.930 . S
C254 C252 1.419 1_554 S
C254 C255 1.362 . S
C255 H245 0.930 . S
C255 C248 1.409 . S
C255 C254 1.362 . S
H256 C262 0.930 . S
H257 C265 0.930 . S
H258 C266 0.930 . S
H259 C267 0.930 . S
H260 C270 0.930 . S
H261 C271 0.930 . S
C262 H256 0.930 . S
C262 C263 1.355 . S
C262 C264 1.415 . S
C263 C262 1.355 . S
C263 C265 1.419 . S
C264 C262 1.415 . S
C264 C269 1.425 1_545 S
C264 C271 1.409 1_545 S
C265 H257 0.930 . S
C265 C263 1.419 . S
C265 C266 1.362 . S
C266 H258 0.930 . S
C266 C265 1.362 . S
C266 C269 1.409 1_545 S
C267 H259 0.930 . S
C267 C268 1.355 . S
C267 C269 1.415 . S
C268 C267 1.355 . S
C268 C270 1.419 . S
C269 C264 1.425 1_565 S
C269 C266 1.409 1_565 S
C269 C267 1.415 . S
C270 H260 0.930 . S
C270 C268 1.419 . S
C270 C271 1.362 . S
C271 H261 0.930 . S
C271 C264 1.409 1_565 S
C271 C270 1.362 . S
C151 C3 1.513 . S
C156 C76 1.523 . S
C167 C40 1.512 . S
C172 C111 1.499 . S
C183 C14 1.359 . S
C188 C110 1.429 . S
C199 C86 1.525 . S
C204 C39 1.586 . S
C215 C112 1.635 . S
C220 C4 1.635 . S
C231 C50 1.495 . S
C236 C75 1.586 . S
C247 C2 1.441 . S
C252 C122 1.372 . S
C263 C38 1.365 . S
C268 C74 1.365 . S
