# Generated by pormake.
# Topology vcb, (5)-cn, num edge types: 1
# Building blocks:
#     Node 0, Type 0, BuildingBlock: XOMCOT_clean_sbu_1, # of connection points: 5
#     Node 1, Type 0, BuildingBlock: XOMCOT_clean_sbu_1, # of connection points: 5
#     Node 2, Type 0, BuildingBlock: XOMCOT_clean_sbu_1, # of connection points: 5
#     Node 3, Type 0, BuildingBlock: XOMCOT_clean_sbu_1, # of connection points: 5
#     Node 4, Type 0, BuildingBlock: XOMCOT_clean_sbu_1, # of connection points: 5
#     Node 5, Type 0, BuildingBlock: XOMCOT_clean_sbu_1, # of connection points: 5
#     Node 6, Type 0, BuildingBlock: XOMCOT_clean_sbu_1, # of connection points: 5
#     Node 7, Type 0, BuildingBlock: XOMCOT_clean_sbu_1, # of connection points: 5
#     Node 8, Type 0, BuildingBlock: XOMCOT_clean_sbu_1, # of connection points: 5
#     Node 9, Type 0, BuildingBlock: XOMCOT_clean_sbu_1, # of connection points: 5
#     Node 10, Type 0, BuildingBlock: XOMCOT_clean_sbu_1, # of connection points: 5
#     Node 11, Type 0, BuildingBlock: XOMCOT_clean_sbu_1, # of connection points: 5
#     Node 12, Type 0, BuildingBlock: XOMCOT_clean_sbu_1, # of connection points: 5
#     Node 13, Type 0, BuildingBlock: XOMCOT_clean_sbu_1, # of connection points: 5
#     Node 14, Type 0, BuildingBlock: XOMCOT_clean_sbu_1, # of connection points: 5
#     Node 15, Type 0, BuildingBlock: XOMCOT_clean_sbu_1, # of connection points: 5
#     Node 16, Type 0, BuildingBlock: XOMCOT_clean_sbu_1, # of connection points: 5
#     Node 17, Type 0, BuildingBlock: XOMCOT_clean_sbu_1, # of connection points: 5
#     Node 18, Type 0, BuildingBlock: XOMCOT_clean_sbu_1, # of connection points: 5
#     Node 19, Type 0, BuildingBlock: XOMCOT_clean_sbu_1, # of connection points: 5
#     Node 20, Type 0, BuildingBlock: XOMCOT_clean_sbu_1, # of connection points: 5
#     Node 21, Type 0, BuildingBlock: XOMCOT_clean_sbu_1, # of connection points: 5
#     Node 22, Type 0, BuildingBlock: XOMCOT_clean_sbu_1, # of connection points: 5
#     Node 23, Type 0, BuildingBlock: XOMCOT_clean_sbu_1, # of connection points: 5
#     Node 24, Type 0, BuildingBlock: XOMCOT_clean_sbu_1, # of connection points: 5
#     Node 25, Type 0, BuildingBlock: XOMCOT_clean_sbu_1, # of connection points: 5
#     Node 26, Type 0, BuildingBlock: XOMCOT_clean_sbu_1, # of connection points: 5
#     Node 27, Type 0, BuildingBlock: XOMCOT_clean_sbu_1, # of connection points: 5
#     Node 28, Type 0, BuildingBlock: XOMCOT_clean_sbu_1, # of connection points: 5
#     Node 29, Type 0, BuildingBlock: XOMCOT_clean_sbu_1, # of connection points: 5
#     Node 30, Type 0, BuildingBlock: XOMCOT_clean_sbu_1, # of connection points: 5
#     Node 31, Type 0, BuildingBlock: XOMCOT_clean_sbu_1, # of connection points: 5
#     Edge 32, Type (0, 0), BuildingBlock: ZUJKAS_clean_linker_0, # of connection points: 2
#     Edge 33, Type (0, 0), BuildingBlock: ZUJKAS_clean_linker_0, # of connection points: 2
#     Edge 34, Type (0, 0), BuildingBlock: ZUJKAS_clean_linker_0, # of connection points: 2
#     Edge 35, Type (0, 0), BuildingBlock: ZUJKAS_clean_linker_0, # of connection points: 2
#     Edge 36, Type (0, 0), BuildingBlock: ZUJKAS_clean_linker_0, # of connection points: 2
#     Edge 37, Type (0, 0), BuildingBlock: ZUJKAS_clean_linker_0, # of connection points: 2
#     Edge 38, Type (0, 0), BuildingBlock: ZUJKAS_clean_linker_0, # of connection points: 2
#     Edge 39, Type (0, 0), BuildingBlock: ZUJKAS_clean_linker_0, # of connection points: 2
#     Edge 40, Type (0, 0), BuildingBlock: ZUJKAS_clean_linker_0, # of connection points: 2
#     Edge 41, Type (0, 0), BuildingBlock: ZUJKAS_clean_linker_0, # of connection points: 2
#     Edge 42, Type (0, 0), BuildingBlock: ZUJKAS_clean_linker_0, # of connection points: 2
#     Edge 43, Type (0, 0), BuildingBlock: ZUJKAS_clean_linker_0, # of connection points: 2
#     Edge 44, Type (0, 0), BuildingBlock: ZUJKAS_clean_linker_0, # of connection points: 2
#     Edge 45, Type (0, 0), BuildingBlock: ZUJKAS_clean_linker_0, # of connection points: 2
#     Edge 46, Type (0, 0), BuildingBlock: ZUJKAS_clean_linker_0, # of connection points: 2
#     Edge 47, Type (0, 0), BuildingBlock: ZUJKAS_clean_linker_0, # of connection points: 2
#     Edge 48, Type (0, 0), BuildingBlock: ZUJKAS_clean_linker_0, # of connection points: 2
#     Edge 49, Type (0, 0), BuildingBlock: ZUJKAS_clean_linker_0, # of connection points: 2
#     Edge 50, Type (0, 0), BuildingBlock: ZUJKAS_clean_linker_0, # of connection points: 2
#     Edge 51, Type (0, 0), BuildingBlock: ZUJKAS_clean_linker_0, # of connection points: 2
#     Edge 52, Type (0, 0), BuildingBlock: ZUJKAS_clean_linker_0, # of connection points: 2
#     Edge 53, Type (0, 0), BuildingBlock: ZUJKAS_clean_linker_0, # of connection points: 2
#     Edge 54, Type (0, 0), BuildingBlock: ZUJKAS_clean_linker_0, # of connection points: 2
#     Edge 55, Type (0, 0), BuildingBlock: ZUJKAS_clean_linker_0, # of connection points: 2
#     Edge 56, Type (0, 0), BuildingBlock: ZUJKAS_clean_linker_0, # of connection points: 2
#     Edge 57, Type (0, 0), BuildingBlock: ZUJKAS_clean_linker_0, # of connection points: 2
#     Edge 58, Type (0, 0), BuildingBlock: ZUJKAS_clean_linker_0, # of connection points: 2
#     Edge 59, Type (0, 0), BuildingBlock: ZUJKAS_clean_linker_0, # of connection points: 2
#     Edge 60, Type (0, 0), BuildingBlock: ZUJKAS_clean_linker_0, # of connection points: 2
#     Edge 61, Type (0, 0), BuildingBlock: ZUJKAS_clean_linker_0, # of connection points: 2
#     Edge 62, Type (0, 0), BuildingBlock: ZUJKAS_clean_linker_0, # of connection points: 2
#     Edge 63, Type (0, 0), BuildingBlock: ZUJKAS_clean_linker_0, # of connection points: 2
#     Edge 64, Type (0, 0), BuildingBlock: ZUJKAS_clean_linker_0, # of connection points: 2
#     Edge 65, Type (0, 0), BuildingBlock: ZUJKAS_clean_linker_0, # of connection points: 2
#     Edge 66, Type (0, 0), BuildingBlock: ZUJKAS_clean_linker_0, # of connection points: 2
#     Edge 67, Type (0, 0), BuildingBlock: ZUJKAS_clean_linker_0, # of connection points: 2
#     Edge 68, Type (0, 0), BuildingBlock: ZUJKAS_clean_linker_0, # of connection points: 2
#     Edge 69, Type (0, 0), BuildingBlock: ZUJKAS_clean_linker_0, # of connection points: 2
#     Edge 70, Type (0, 0), BuildingBlock: ZUJKAS_clean_linker_0, # of connection points: 2
#     Edge 71, Type (0, 0), BuildingBlock: ZUJKAS_clean_linker_0, # of connection points: 2
#     Edge 72, Type (0, 0), BuildingBlock: ZUJKAS_clean_linker_0, # of connection points: 2
#     Edge 73, Type (0, 0), BuildingBlock: ZUJKAS_clean_linker_0, # of connection points: 2
#     Edge 74, Type (0, 0), BuildingBlock: ZUJKAS_clean_linker_0, # of connection points: 2
#     Edge 75, Type (0, 0), BuildingBlock: ZUJKAS_clean_linker_0, # of connection points: 2
#     Edge 76, Type (0, 0), BuildingBlock: ZUJKAS_clean_linker_0, # of connection points: 2
#     Edge 77, Type (0, 0), BuildingBlock: ZUJKAS_clean_linker_0, # of connection points: 2
#     Edge 78, Type (0, 0), BuildingBlock: ZUJKAS_clean_linker_0, # of connection points: 2
#     Edge 79, Type (0, 0), BuildingBlock: ZUJKAS_clean_linker_0, # of connection points: 2
#     Edge 80, Type (0, 0), BuildingBlock: ZUJKAS_clean_linker_0, # of connection points: 2
#     Edge 81, Type (0, 0), BuildingBlock: ZUJKAS_clean_linker_0, # of connection points: 2
#     Edge 82, Type (0, 0), BuildingBlock: ZUJKAS_clean_linker_0, # of connection points: 2
#     Edge 83, Type (0, 0), BuildingBlock: ZUJKAS_clean_linker_0, # of connection points: 2
#     Edge 84, Type (0, 0), BuildingBlock: ZUJKAS_clean_linker_0, # of connection points: 2
#     Edge 85, Type (0, 0), BuildingBlock: ZUJKAS_clean_linker_0, # of connection points: 2
#     Edge 86, Type (0, 0), BuildingBlock: ZUJKAS_clean_linker_0, # of connection points: 2
#     Edge 87, Type (0, 0), BuildingBlock: ZUJKAS_clean_linker_0, # of connection points: 2
#     Edge 88, Type (0, 0), BuildingBlock: ZUJKAS_clean_linker_0, # of connection points: 2
#     Edge 89, Type (0, 0), BuildingBlock: ZUJKAS_clean_linker_0, # of connection points: 2
#     Edge 90, Type (0, 0), BuildingBlock: ZUJKAS_clean_linker_0, # of connection points: 2
#     Edge 91, Type (0, 0), BuildingBlock: ZUJKAS_clean_linker_0, # of connection points: 2
#     Edge 92, Type (0, 0), BuildingBlock: ZUJKAS_clean_linker_0, # of connection points: 2
#     Edge 93, Type (0, 0), BuildingBlock: ZUJKAS_clean_linker_0, # of connection points: 2
#     Edge 94, Type (0, 0), BuildingBlock: ZUJKAS_clean_linker_0, # of connection points: 2
#     Edge 95, Type (0, 0), BuildingBlock: ZUJKAS_clean_linker_0, # of connection points: 2
#     Edge 96, Type (0, 0), BuildingBlock: ZUJKAS_clean_linker_0, # of connection points: 2
#     Edge 97, Type (0, 0), BuildingBlock: ZUJKAS_clean_linker_0, # of connection points: 2
#     Edge 98, Type (0, 0), BuildingBlock: ZUJKAS_clean_linker_0, # of connection points: 2
#     Edge 99, Type (0, 0), BuildingBlock: ZUJKAS_clean_linker_0, # of connection points: 2
#     Edge 100, Type (0, 0), BuildingBlock: ZUJKAS_clean_linker_0, # of connection points: 2
#     Edge 101, Type (0, 0), BuildingBlock: ZUJKAS_clean_linker_0, # of connection points: 2
#     Edge 102, Type (0, 0), BuildingBlock: ZUJKAS_clean_linker_0, # of connection points: 2
#     Edge 103, Type (0, 0), BuildingBlock: ZUJKAS_clean_linker_0, # of connection points: 2
#     Edge 104, Type (0, 0), BuildingBlock: ZUJKAS_clean_linker_0, # of connection points: 2
#     Edge 105, Type (0, 0), BuildingBlock: ZUJKAS_clean_linker_0, # of connection points: 2
#     Edge 106, Type (0, 0), BuildingBlock: ZUJKAS_clean_linker_0, # of connection points: 2
#     Edge 107, Type (0, 0), BuildingBlock: ZUJKAS_clean_linker_0, # of connection points: 2
#     Edge 108, Type (0, 0), BuildingBlock: ZUJKAS_clean_linker_0, # of connection points: 2
#     Edge 109, Type (0, 0), BuildingBlock: ZUJKAS_clean_linker_0, # of connection points: 2
#     Edge 110, Type (0, 0), BuildingBlock: ZUJKAS_clean_linker_0, # of connection points: 2
#     Edge 111, Type (0, 0), BuildingBlock: ZUJKAS_clean_linker_0, # of connection points: 2
# Relax obj value: 0.117
# Max RMSD: 0.140
# Mean RMSD: 0.140
data_MOF--net-vcb--node1-XOMCOT_clean_sbu_1--edge1-ZUJKAS_clean_linker_0
_symmetry_space_group_name_H-M    P1
_symmetry_Int_Tables_number       1
_symmetry_cell_setting            triclinic
loop_
_symmetry_equiv_pos_as_xyz
'x, y, z'
_cell_length_a     85.293118
_cell_length_b     118.6137
_cell_length_c     34.643539
_cell_angle_alpha  89.975458
_cell_angle_beta   90.013672
_cell_angle_gamma 89.959245
loop_
_atom_site_label
_atom_site_type_symbol
_atom_site_fract_x
_atom_site_fract_y
_atom_site_fract_z
_atom_type_partial_charge
C0 C 1.00513 0.07555 0.34105 0.0
C1 C 0.98936 0.07379 0.33523 0.0
N2 N 0.98139 0.08229 0.35202 0.0
N3 N 1.00712 0.08509 0.36153 0.0
C4 C 0.99246 0.08907 0.36751 0.0
H5 H 1.01457 0.07009 0.33178 0.0
Co6 Co 0.02637 0.09036 0.37931 0.0
C7 C 1.01771 0.11038 0.42355 0.0
O8 O 0.0274 0.11641 0.4025 0.0
N9 N 0.0459 0.09559 0.39751 0.0
C10 C 0.065 0.10033 0.43805 0.0
C11 C 0.04976 0.09674 0.43511 0.0
C12 C 0.05908 0.09849 0.37814 0.0
N13 N 0.0709 0.10142 0.40219 0.0
O14 O 0.02584 0.10172 0.3407 0.0
H15 H 0.04197 0.09501 0.45902 0.0
H16 H 0.06017 0.09824 0.34708 0.0
O17 O 1.01594 0.09992 0.41644 0.0
C18 C 0.03159 0.09759 0.3099 0.0
O19 O 0.03732 0.08729 0.31095 0.0
N20 N 0.02711 0.07852 0.41419 0.0
C21 C 0.02753 0.05792 0.45237 0.0
C22 C 1.01618 0.06608 0.4615 0.0
C23 C 1.01615 0.07638 0.44192 0.0
C24 C 0.03848 0.07085 0.40582 0.0
C25 C 0.039 0.06053 0.4248 0.0
H26 H 1.00684 0.08235 0.44757 0.0
H27 H 0.04675 0.07258 0.38289 0.0
H28 H 0.98988 0.09655 0.38416 0.0
H29 H 0.98419 0.06673 0.3201 0.0
H30 H 0.0712 0.10209 0.46463 0.0
H31 H 1.00711 0.06435 0.48256 0.0
H32 H 0.04775 0.0544 0.41623 0.0
C33 C 0.28977 0.17163 0.3316 0.0
C34 C 0.30549 0.17363 0.32583 0.0
N35 N 0.31372 0.1653 0.34295 0.0
N36 N 0.28806 0.16211 0.35234 0.0
C37 C 0.30284 0.15838 0.35856 0.0
H38 H 0.28019 0.17693 0.32212 0.0
Co39 Co 0.26896 0.15654 0.37041 0.0
C40 C 0.27838 0.13743 0.41831 0.0
O41 O 0.26926 0.13086 0.39764 0.0
N42 N 0.24967 0.15098 0.38908 0.0
C43 C 0.23115 0.14571 0.43049 0.0
C44 C 0.24578 0.15038 0.42682 0.0
C45 C 0.23704 0.14675 0.3703 0.0
N46 N 0.22565 0.14339 0.39495 0.0
O47 O 0.27015 0.14472 0.33324 0.0
H48 H 0.2532 0.15311 0.45036 0.0
H49 H 0.23628 0.14593 0.33929 0.0
O50 O 0.27972 0.14781 0.40948 0.0
C51 C 0.26465 0.14892 0.30216 0.0
O52 O 0.25893 0.15921 0.30343 0.0
N53 N 0.26741 0.16883 0.40321 0.0
C54 C 0.26601 0.19024 0.43547 0.0
C55 C 0.27778 0.18262 0.44672 0.0
C56 C 0.27832 0.17189 0.43004 0.0
C57 C 0.25551 0.17591 0.39335 0.0
C58 C 0.25447 0.18661 0.40949 0.0
H59 H 0.28802 0.16637 0.43676 0.0
H60 H 0.24721 0.17342 0.37135 0.0
H61 H 0.30561 0.15097 0.37542 0.0
H62 H 0.31045 0.18072 0.31043 0.0
H63 H 0.22498 0.14424 0.45732 0.0
H64 H 0.28702 0.18515 0.46634 0.0
H65 H 0.24506 0.19215 0.40046 0.0
C66 C 1.00293 0.16587 0.91941 0.0
C67 C 0.98709 0.16707 0.92581 0.0
N68 N 0.97935 0.16131 0.89825 0.0
N69 N 1.00519 0.15931 0.88816 0.0
C70 C 0.99059 0.15668 0.87582 0.0
H71 H 1.01222 0.16968 0.93614 0.0
Co72 Co 0.02476 0.15552 0.86794 0.0
C73 C 1.01767 0.13688 0.81605 0.0
O74 O 0.02776 0.13064 0.8352 0.0
N75 N 0.04462 0.1518 0.84723 0.0
C76 C 0.0637 0.14926 0.80429 0.0
C77 C 0.04836 0.15243 0.8094 0.0
C78 C 0.058 0.14826 0.86452 0.0
N79 N 0.06979 0.14664 0.83901 0.0
O80 O 0.02526 0.14281 0.90136 0.0
H81 H 0.04037 0.15499 0.78677 0.0
H82 H 0.05923 0.14702 0.89524 0.0
O83 O 1.01498 0.14696 0.82693 0.0
C84 C 0.03159 0.14577 0.93303 0.0
O85 O 0.03735 0.15601 0.93594 0.0
N86 N 0.02444 0.16859 0.83882 0.0
C87 C 0.02374 0.19038 0.80956 0.0
C88 C 1.01344 0.18213 0.79528 0.0
C89 C 1.01391 0.17122 0.81056 0.0
C90 C 0.0348 0.17638 0.85216 0.0
C91 C 0.03475 0.18731 0.83771 0.0
H92 H 1.0054 0.1651 0.80092 0.0
H93 H 0.04282 0.17414 0.87511 0.0
H94 H 0.98818 0.15149 0.85088 0.0
H95 H 0.98169 0.17205 0.94836 0.0
H96 H 0.06979 0.14877 0.77695 0.0
H97 H 1.00465 0.18422 0.77387 0.0
H98 H 0.04303 0.19336 0.84913 0.0
C99 C 0.28949 0.07619 0.89211 0.0
C100 C 0.3052 0.0741 0.89771 0.0
N101 N 0.31343 0.0827 0.88234 0.0
N102 N 0.28779 0.08604 0.8732 0.0
C103 C 0.30257 0.08986 0.86793 0.0
H104 H 0.2799 0.07072 0.9003 0.0
Co105 Co 0.26873 0.09178 0.85568 0.0
C106 C 0.27793 0.112 0.81289 0.0
O107 O 0.2683 0.11805 0.83405 0.0
N108 N 0.24945 0.09749 0.8376 0.0
C109 C 0.23105 0.10345 0.79696 0.0
C110 C 0.24576 0.09887 0.79997 0.0
C111 C 0.23663 0.10117 0.85693 0.0
N112 N 0.2253 0.10493 0.83278 0.0
O113 O 0.26937 0.10278 0.89571 0.0
H114 H 0.25338 0.09675 0.77609 0.0
H115 H 0.23569 0.1013 0.88804 0.0
O116 O 0.27955 0.10151 0.8197 0.0
C117 C 0.26398 0.09815 0.92613 0.0
O118 O 0.25846 0.08783 0.92343 0.0
N119 N 0.26782 0.08029 0.81947 0.0
C120 C 0.26712 0.06006 0.77907 0.0
C121 C 0.27863 0.06819 0.77097 0.0
C122 C 0.27882 0.0783 0.79168 0.0
C123 C 0.25627 0.07268 0.82679 0.0
C124 C 0.25562 0.06255 0.80671 0.0
H125 H 0.28826 0.0842 0.78683 0.0
H126 H 0.24797 0.07428 0.84975 0.0
H127 H 0.30537 0.09751 0.85242 0.0
H128 H 0.31016 0.06675 0.91163 0.0
H129 H 0.225 0.10545 0.77035 0.0
H130 H 0.28773 0.06657 0.74988 0.0
H131 H 0.24674 0.05643 0.81451 0.0
C132 C 0.04098 0.92153 0.64958 0.0
C133 C 0.05683 0.92297 0.65493 0.0
N134 N 0.06441 0.91438 0.63754 0.0
N135 N 0.0385 0.91209 0.62886 0.0
C136 C 0.053 0.90785 0.62218 0.0
H137 H 0.03182 0.92717 0.65923 0.0
Co138 Co 1.01878 0.90752 0.61124 0.0
C139 C 0.02589 0.88757 0.56498 0.0
O140 O 1.01621 0.88166 0.58643 0.0
N141 N 0.99882 0.90302 0.5931 0.0
C142 C 0.97951 0.89884 0.55242 0.0
C143 C 0.99482 0.90225 0.55548 0.0
C144 C 0.98559 0.90012 0.61237 0.0
N145 N 0.97362 0.89751 0.58823 0.0
O146 O 1.01858 0.89593 0.64927 0.0
H147 H 1.00262 0.904 0.53161 0.0
H148 H 0.98468 0.90004 0.64348 0.0
O149 O 0.02843 0.89788 0.57308 0.0
C150 C 1.01346 0.90038 0.68028 0.0
O151 O 1.00911 0.91102 0.67928 0.0
N152 N 1.01865 0.91957 0.57714 0.0
C153 C 1.01892 0.94027 0.53956 0.0
C154 C 0.02994 0.93192 0.53003 0.0
C155 C 0.02963 0.92156 0.54929 0.0
C156 C 1.00767 0.92747 0.58607 0.0
C157 C 1.00748 0.93784 0.56738 0.0
H158 H 0.03864 0.9154 0.54322 0.0
H159 H 0.9994 0.92585 0.60909 0.0
H160 H 0.05521 0.9004 0.60506 0.0
H161 H 0.06234 0.92988 0.67011 0.0
H162 H 0.97333 0.89727 0.52569 0.0
H163 H 0.03899 0.93351 0.50879 0.0
H164 H 0.999 0.94412 0.57627 0.0
C165 C 0.75144 0.83693 0.69038 0.0
C166 C 0.73538 0.83755 0.69107 0.0
N167 N 0.73026 0.83979 0.65506 0.0
N168 N 0.75656 0.83883 0.6542 0.0
C169 C 0.74338 0.84048 0.63312 0.0
H170 H 0.75896 0.83509 0.71471 0.0
Co171 Co 0.77776 0.83853 0.6417 0.0
C172 C 0.78098 0.8473 0.56218 0.0
O173 O 0.79276 0.84033 0.55697 0.0
N174 N 0.79977 0.83816 0.63058 0.0
C175 C 0.82421 0.8326 0.61779 0.0
C176 C 0.809 0.82915 0.62284 0.0
C177 C 0.8099 0.84701 0.63031 0.0
N178 N 0.82481 0.84383 0.6226 0.0
O179 O 0.78045 0.85192 0.67122 0.0
H180 H 0.8052 0.82052 0.62074 0.0
H181 H 0.8064 0.85565 0.63539 0.0
O182 O 0.77371 0.84738 0.59454 0.0
C183 C 0.78671 0.84958 0.70364 0.0
O184 O 0.79202 0.8393 0.70938 0.0
N185 N 0.77447 0.82475 0.61716 0.0
C186 C 0.76971 0.8025 0.59457 0.0
C187 C 0.76585 0.81143 0.5697 0.0
C188 C 0.76804 0.82256 0.58185 0.0
C189 C 0.77722 0.81621 0.64255 0.0
C190 C 0.77524 0.80503 0.63166 0.0
H191 H 0.76416 0.82926 0.56317 0.0
H192 H 0.78146 0.81816 0.67121 0.0
H193 H 0.74338 0.84215 0.60242 0.0
H194 H 0.72801 0.83618 0.71607 0.0
H195 H 0.83416 0.82719 0.61191 0.0
H196 H 0.76093 0.80985 0.5414 0.0
H197 H 0.77834 0.79844 0.65192 0.0
C198 C 0.036 0.82923 0.07696 0.0
C199 C 0.05181 0.8284 0.06962 0.0
N200 N 0.05929 0.83637 0.09037 0.0
N201 N 0.03346 0.8377 0.10206 0.0
C202 C 0.04787 0.8419 0.1097 0.0
H203 H 0.02694 0.82381 0.06548 0.0
Co204 Co 1.01388 0.84147 0.12223 0.0
C205 C 1.02002 0.86188 0.1671 0.0
O206 O 1.00905 0.8672 0.14763 0.0
N207 N 0.99404 0.84516 0.143 0.0
C208 C 0.97541 0.84843 0.1865 0.0
C209 C 0.99072 0.84528 0.18112 0.0
C210 C 0.98043 0.84829 0.12578 0.0
N211 N 0.96889 0.85032 0.1517 0.0
O212 O 1.01196 0.85288 0.08389 0.0
H213 H 0.99903 0.84338 0.2038 0.0
H214 H 0.97894 0.84903 0.09492 0.0
O215 O 0.02346 0.85174 0.15847 0.0
C216 C 1.0063 0.84838 0.05355 0.0
O217 O 1.00172 0.83781 0.05536 0.0
N218 N 1.01568 0.82959 0.15673 0.0
C219 C 1.01865 0.8093 0.19637 0.0
C220 C 0.02807 0.81859 0.20608 0.0
C221 C 0.0265 0.82868 0.18561 0.0
C222 C 1.00622 0.82078 0.14747 0.0
C223 C 1.00747 0.81056 0.16695 0.0
H224 H 0.03434 0.83556 0.19211 0.0
H225 H 0.99803 0.8216 0.12376 0.0
H226 H 0.05 0.84883 0.12927 0.0
H227 H 0.0574 0.82216 0.05146 0.0
H228 H 0.96967 0.84954 0.2141 0.0
H229 H 0.03681 0.818 0.22866 0.0
H230 H 1.00021 0.80358 0.15773 0.0
C231 C 0.74912 0.92472 0.1118 0.0
C232 C 0.73363 0.92593 0.10156 0.0
N233 N 0.72657 0.9158 0.10445 0.0
N234 N 0.75185 0.91391 0.12185 0.0
C235 C 0.73803 0.90862 0.11561 0.0
H236 H 0.75771 0.93141 0.11297 0.0
Co237 Co 0.77077 0.90778 0.14042 0.0
C238 C 0.74752 0.89992 0.20301 0.0
O239 O 0.73598 0.90686 0.19484 0.0
N240 N 0.78973 0.90162 0.15883 0.0
C241 C 0.80807 0.89595 0.20011 0.0
C242 C 0.79346 0.90066 0.19656 0.0
C243 C 0.80245 0.89755 0.13994 0.0
N244 N 0.81376 0.89395 0.1645 0.0
O245 O 0.76787 0.89515 0.1073 0.0
H246 H 0.78609 0.90339 0.22019 0.0
H247 H 0.80344 0.89717 0.10886 0.0
O248 O 0.7602 0.90013 0.18331 0.0
C249 C 0.77386 0.8984 0.07548 0.0
O250 O 0.78018 0.9085 0.07389 0.0
N251 N 0.77458 0.9208 0.16918 0.0
C252 C 0.78061 0.94276 0.1932 0.0
C253 C 0.7689 0.93631 0.21122 0.0
C254 C 0.76605 0.9253 0.19873 0.0
C255 C 0.78657 0.92673 0.153 0.0
C256 C 0.78986 0.93768 0.16471 0.0
H257 H 0.7565 0.92076 0.2115 0.0
H258 H 0.79314 0.9231 0.12938 0.0
H259 H 0.73629 0.89971 0.1208 0.0
H260 H 0.72787 0.9338 0.09452 0.0
H261 H 0.81419 0.89437 0.22695 0.0
H262 H 0.76141 0.93994 0.23318 0.0
H263 H 0.7992 0.94227 0.15051 0.0
C264 C 0.99994 0.58533 0.80375 0.0
C265 C 0.98388 0.58574 0.80098 0.0
N266 N 0.97799 0.58839 0.83592 0.0
N267 N 1.00427 0.58777 0.84017 0.0
C268 C 0.99063 0.58956 0.85926 0.0
H269 H 1.008 0.58328 0.7807 0.0
Co270 Co 0.02523 0.58799 0.85537 0.0
C271 C 0.02537 0.59398 0.93765 0.0
O272 O 0.03583 0.58601 0.94283 0.0
N273 N 0.04712 0.58829 0.86985 0.0
C274 C 0.07141 0.58373 0.88862 0.0
C275 C 0.05651 0.57979 0.88228 0.0
C276 C 0.0569 0.59734 0.869 0.0
N277 N 0.07169 0.59476 0.88003 0.0
O278 O 0.02742 0.60199 0.829 0.0
H279 H 0.05297 0.57122 0.88769 0.0
H280 H 0.0533 0.60575 0.86074 0.0
O281 O 1.01976 0.59574 0.90387 0.0
C282 C 0.03406 0.60017 0.79664 0.0
O283 O 0.03984 0.59009 0.78984 0.0
N284 N 0.02244 0.5736 0.87604 0.0
C285 C 1.01838 0.55088 0.89275 0.0
C286 C 1.01116 0.55913 0.91563 0.0
C287 C 1.01315 0.57052 0.90641 0.0
C288 C 0.02831 0.56562 0.85171 0.0
C289 C 0.02684 0.55421 0.86013 0.0
H290 H 1.00695 0.57675 0.92315 0.0
H291 H 0.03456 0.56821 0.82602 0.0
H292 H 0.98995 0.59171 0.88956 0.0
H293 H 0.97706 0.58395 0.77537 0.0
H294 H 0.08136 0.57881 0.89822 0.0
H295 H 1.00412 0.55681 0.9404 0.0
H296 H 0.03212 0.54804 0.84108 0.0
C297 C 0.29041 0.66131 0.80856 0.0
C298 C 0.30648 0.66146 0.80833 0.0
N299 N 0.31162 0.66026 0.84487 0.0
N300 N 0.28526 0.65991 0.845 0.0
C301 C 0.29848 0.65928 0.86666 0.0
H302 H 0.28293 0.66245 0.78368 0.0
Co303 Co 0.26397 0.66045 0.85741 0.0
C304 C 0.25965 0.64879 0.93317 0.0
O305 O 0.24647 0.65426 0.9387 0.0
N306 N 0.24201 0.66123 0.86808 0.0
C307 C 0.21798 0.66744 0.88214 0.0
C308 C 0.23346 0.6704 0.87801 0.0
C309 C 0.23121 0.65284 0.86557 0.0
N310 N 0.21657 0.65639 0.87428 0.0
O311 O 0.26057 0.64767 0.82495 0.0
H312 H 0.23801 0.6788 0.88209 0.0
H313 H 0.23408 0.6442 0.85842 0.0
O314 O 0.2678 0.65064 0.90273 0.0
C315 C 0.25455 0.65091 0.79311 0.0
O316 O 0.2507 0.66159 0.78934 0.0
N317 N 0.26768 0.67365 0.8851 0.0
C318 C 0.27167 0.69546 0.91278 0.0
C319 C 0.27247 0.68621 0.93796 0.0
C320 C 0.27066 0.67529 0.92342 0.0
C321 C 0.26758 0.68251 0.86012 0.0
C322 C 0.26947 0.69349 0.87331 0.0
H323 H 0.27172 0.66833 0.94312 0.0
H324 H 0.26552 0.68101 0.82974 0.0
H325 H 0.29846 0.65862 0.89781 0.0
H326 H 0.3138 0.66248 0.78307 0.0
H327 H 0.20845 0.67304 0.88973 0.0
H328 H 0.2745 0.68741 0.96855 0.0
H329 H 0.2687 0.70039 0.85291 0.0
C330 C 1.00339 0.67548 0.38733 0.0
C331 C 0.98806 0.67717 0.39808 0.0
N332 N 0.98033 0.6673 0.39514 0.0
N333 N 1.00536 0.66463 0.37678 0.0
C334 C 0.9913 0.65976 0.3837 0.0
H335 H 1.01244 0.68186 0.38633 0.0
Co336 Co 0.02408 0.65833 0.35782 0.0
C337 C 1.00043 0.64927 0.29722 0.0
O338 O 0.9883 0.65554 0.30625 0.0
N339 N 0.04298 0.65205 0.33947 0.0
C340 C 0.06177 0.64688 0.29866 0.0
C341 C 0.04678 0.65098 0.30183 0.0
C342 C 0.05596 0.64856 0.35868 0.0
N343 N 0.0676 0.64539 0.33443 0.0
O344 O 0.02149 0.64606 0.39272 0.0
H345 H 0.03929 0.65338 0.27802 0.0
H346 H 0.05711 0.64873 0.38975 0.0
O347 O 1.01331 0.65018 0.31598 0.0
C348 C 0.02741 0.64959 0.42427 0.0
O349 O 0.03383 0.65967 0.42472 0.0
N350 N 0.02742 0.67104 0.32681 0.0
C351 C 0.03229 0.69271 0.29802 0.0
C352 C 1.01945 0.68624 0.28563 0.0
C353 C 1.01723 0.6754 0.30034 0.0
C354 C 0.04033 0.67699 0.33778 0.0
C355 C 0.04312 0.68776 0.32331 0.0
H356 H 1.00675 0.67097 0.29252 0.0
H357 H 0.04813 0.67358 0.35945 0.0
H358 H 0.98896 0.65093 0.3783 0.0
H359 H 0.98297 0.68516 0.40653 0.0
H360 H 0.06793 0.64522 0.27196 0.0
H361 H 1.0106 0.68975 0.2667 0.0
H362 H 0.05336 0.69231 0.33319 0.0
C363 C 0.2872 0.57416 0.38877 0.0
C364 C 0.30296 0.57223 0.39408 0.0
N365 N 0.31096 0.58112 0.37997 0.0
N366 N 0.28522 0.5842 0.37126 0.0
C367 C 0.2999 0.5883 0.36657 0.0
H368 H 0.27776 0.56849 0.39634 0.0
Co369 Co 0.26596 0.59004 0.35495 0.0
C370 C 0.27569 0.60977 0.30988 0.0
O371 O 0.26743 0.6163 0.33278 0.0
N372 N 0.24657 0.5959 0.33805 0.0
C373 C 0.22785 0.6019 0.29835 0.0
C374 C 0.24252 0.5972 0.30062 0.0
C375 C 0.234 0.59975 0.35804 0.0
N376 N 0.22248 0.60354 0.33445 0.0
O377 O 0.26737 0.60134 0.39394 0.0
H378 H 0.24984 0.59492 0.27636 0.0
H379 H 0.23338 0.59997 0.3892 0.0
O380 O 0.27648 0.59923 0.31675 0.0
C381 C 0.26248 0.5966 0.42472 0.0
O382 O 0.25729 0.58618 0.42231 0.0
N383 N 0.26414 0.57822 0.3202 0.0
C384 C 0.26234 0.5574 0.2838 0.0
C385 C 0.27404 0.56516 0.27345 0.0
C386 C 0.27481 0.57557 0.29227 0.0
C387 C 0.25231 0.571 0.3293 0.0
C388 C 0.25109 0.56059 0.31118 0.0
H389 H 0.2845 0.58115 0.28619 0.0
H390 H 0.24421 0.57315 0.35218 0.0
H391 H 0.30247 0.5962 0.35234 0.0
H392 H 0.30811 0.5648 0.40707 0.0
H393 H 0.22156 0.60384 0.27204 0.0
H394 H 0.28307 0.56294 0.25283 0.0
H395 H 0.24177 0.5549 0.31967 0.0
C396 C 0.04168 0.41839 0.15583 0.0
C397 C 0.05761 0.41944 0.16083 0.0
N398 N 0.06482 0.41226 0.13648 0.0
N399 N 0.0388 0.4105 0.12872 0.0
C400 C 0.05315 0.40695 0.11735 0.0
H401 H 0.03275 0.42325 0.17046 0.0
Co402 Co 1.0189 0.4065 0.11108 0.0
C403 C 0.02456 0.38589 0.06695 0.0
O404 O 1.01401 0.38062 0.08787 0.0
N405 N 0.99875 0.40258 0.09275 0.0
C406 C 0.97943 0.39892 0.05149 0.0
C407 C 0.99476 0.40219 0.05503 0.0
C408 C 0.98551 0.39949 0.1116 0.0
N409 N 0.97356 0.39722 0.08708 0.0
O410 O 1.01783 0.39527 0.15034 0.0
H411 H 1.00263 0.40394 0.03131 0.0
H412 H 0.98455 0.39891 0.14263 0.0
O413 O 0.02797 0.39611 0.07447 0.0
C414 C 1.01242 0.39999 0.18057 0.0
O415 O 1.00766 0.41051 0.17798 0.0
N416 N 1.01977 0.41824 0.07595 0.0
C417 C 1.01988 0.43814 0.03399 0.0
C418 C 0.0282 0.42873 0.02059 0.0
C419 C 0.0282 0.41881 0.04248 0.0
C420 C 1.01147 0.42727 0.08891 0.0
C421 C 1.0114 0.43733 0.06843 0.0
H422 H 0.03511 0.41173 0.03276 0.0
H423 H 1.00507 0.42665 0.11579 0.0
H424 H 0.05509 0.40063 0.09538 0.0
H425 H 0.06344 0.42529 0.18 0.0
H426 H 0.97323 0.39758 0.02462 0.0
H427 H 0.03498 0.42916 -0.0058 0.0
H428 H 1.00482 0.44445 0.07949 0.0
C429 C 0.75461 0.32514 0.14162 0.0
C430 C 0.73886 0.32315 0.14684 0.0
N431 N 0.73078 0.33181 0.13132 0.0
N432 N 0.75648 0.33499 0.12283 0.0
C433 C 0.74176 0.33891 0.11721 0.0
H434 H 0.7641 0.3196 0.14992 0.0
Co435 Co 0.7757 0.34054 0.10559 0.0
C436 C 0.76723 0.36124 0.0647 0.0
O437 O 0.77695 0.36692 0.08675 0.0
N438 N 0.79512 0.34605 0.08771 0.0
C439 C 0.81351 0.35186 0.04686 0.0
C440 C 0.79874 0.34742 0.05005 0.0
C441 C 0.80804 0.34962 0.1069 0.0
N442 N 0.81937 0.3533 0.0826 0.0
O443 O 0.77551 0.35122 0.14666 0.0
H444 H 0.79103 0.34541 0.02624 0.0
H445 H 0.80905 0.34975 0.138 0.0
O446 O 0.76517 0.35074 0.07057 0.0
C447 C 0.78083 0.34619 0.17643 0.0
O448 O 0.78615 0.33585 0.17234 0.0
N449 N 0.77614 0.3293 0.06838 0.0
C450 C 0.77607 0.30937 0.02625 0.0
C451 C 0.76487 0.31778 0.01885 0.0
C452 C 0.76507 0.32774 0.04042 0.0
C453 C 0.78739 0.3214 0.07504 0.0
C454 C 0.78766 0.31141 0.0541 0.0
H455 H 0.75586 0.33387 0.03606 0.0
H456 H 0.79575 0.32267 0.09811 0.0
H457 H 0.73909 0.34657 0.10158 0.0
H458 H 0.73378 0.31582 0.16056 0.0
H459 H 0.81951 0.35378 0.02014 0.0
H460 H 0.75572 0.31651 -0.00237 0.0
H461 H 0.7963 0.30506 0.06139 0.0
C462 C 0.03953 0.3259 0.57992 0.0
C463 C 0.05536 0.32436 0.57457 0.0
N464 N 0.06306 0.33251 0.59395 0.0
N465 N 0.0372 0.33497 0.60263 0.0
C466 C 0.05175 0.33888 0.61049 0.0
H467 H 0.03028 0.32056 0.56892 0.0
Co468 Co 1.01765 0.3395 0.62109 0.0
C469 C 0.02506 0.35886 0.66963 0.0
O470 O 1.01537 0.365 0.64891 0.0
N471 N 0.99786 0.34395 0.64014 0.0
C472 C 0.97874 0.34764 0.68186 0.0
C473 C 0.99392 0.34401 0.67788 0.0
C474 C 0.98477 0.34755 0.62169 0.0
N475 N 0.97294 0.34986 0.64651 0.0
O476 O 1.01761 0.35151 0.5847 0.0
H477 H 1.00167 0.34165 0.70124 0.0
H478 H 0.98384 0.34838 0.59072 0.0
O479 O 0.02751 0.34861 0.66048 0.0
C480 C 1.01222 0.3475 0.5533 0.0
O481 O 1.00736 0.33698 0.55316 0.0
N482 N 1.0174 0.32703 0.65329 0.0
C483 C 1.01762 0.30577 0.68679 0.0
C484 C 0.02835 0.31403 0.69882 0.0
C485 C 0.02812 0.32467 0.68141 0.0
C486 C 1.00657 0.31926 0.64231 0.0
C487 C 1.00637 0.3086 0.65892 0.0
H488 H 0.03703 0.33074 0.68907 0.0
H489 H 0.99842 0.32124 0.61936 0.0
H490 H 0.05408 0.34596 0.62929 0.0
H491 H 0.06078 0.31767 0.55806 0.0
H492 H 0.9726 0.34878 0.7089 0.0
H493 H 0.03733 0.3121 0.71993 0.0
H494 H 0.99777 0.30252 0.64918 0.0
C495 C 0.75315 0.41859 0.56787 0.0
C496 C 0.73729 0.41977 0.56197 0.0
N497 N 0.72968 0.4129 0.58672 0.0
N498 N 0.75563 0.41099 0.59607 0.0
C499 C 0.74113 0.40764 0.60694 0.0
H500 H 0.76232 0.42314 0.55297 0.0
Co501 Co 0.77532 0.40714 0.61549 0.0
C502 C 0.76875 0.38835 0.66728 0.0
O503 O 0.77869 0.38219 0.64741 0.0
N504 N 0.79527 0.40334 0.63553 0.0
C505 C 0.81421 0.40029 0.67845 0.0
C506 C 0.79922 0.40419 0.67319 0.0
C507 C 0.80822 0.39899 0.61842 0.0
N508 N 0.81988 0.39697 0.64402 0.0
O509 O 0.77579 0.39457 0.58126 0.0
H510 H 0.79155 0.40727 0.69569 0.0
H511 H 0.80902 0.39702 0.58804 0.0
O512 O 0.76581 0.39841 0.65658 0.0
C513 C 0.78153 0.39805 0.54946 0.0
O514 O 0.78665 0.4085 0.5477 0.0
N515 N 0.77507 0.42011 0.64528 0.0
C516 C 0.77447 0.44174 0.67595 0.0
C517 C 0.764 0.43348 0.68933 0.0
C518 C 0.76442 0.42265 0.67336 0.0
C519 C 0.78555 0.42792 0.63272 0.0
C520 C 0.78556 0.43876 0.64791 0.0
H521 H 0.75579 0.41652 0.68232 0.0
H522 H 0.79366 0.42578 0.60985 0.0
H523 H 0.73898 0.40173 0.63008 0.0
H524 H 0.73185 0.42529 0.54103 0.0
H525 H 0.82045 0.39996 0.70563 0.0
H526 H 0.75512 0.43549 0.71059 0.0
H527 H 0.79398 0.44483 0.63714 0.0
C528 C 0.50437 0.07572 0.83518 0.0
C529 C 0.48862 0.07397 0.82915 0.0
N530 N 0.48059 0.08224 0.84713 0.0
N531 N 0.5063 0.08503 0.85692 0.0
C532 C 0.49162 0.08888 0.86351 0.0
H533 H 0.51384 0.07039 0.8252 0.0
Co534 Co 0.52557 0.09008 0.8754 0.0
C535 C 0.5171 0.10952 0.92267 0.0
O536 O 0.52666 0.11574 0.9019 0.0
N537 N 0.54509 0.09506 0.89438 0.0
C538 C 0.56407 0.09937 0.93578 0.0
C539 C 0.54893 0.09565 0.93214 0.0
C540 C 0.5582 0.09842 0.87559 0.0
N541 N 0.56996 0.10109 0.9002 0.0
O542 O 0.52512 0.10192 0.83824 0.0
H543 H 0.54115 0.0935 0.95569 0.0
H544 H 0.55925 0.09871 0.84452 0.0
O545 O 0.51516 0.09917 0.91417 0.0
C546 C 0.53059 0.09785 0.80697 0.0
O547 O 0.53593 0.08745 0.80741 0.0
N548 N 0.52633 0.07777 0.90834 0.0
C549 C 0.52646 0.05641 0.94123 0.0
C550 C 0.51526 0.06445 0.95257 0.0
C551 C 0.51534 0.07515 0.93552 0.0
C552 C 0.53768 0.07026 0.89835 0.0
C553 C 0.53807 0.05957 0.91474 0.0
H554 H 0.50605 0.08101 0.94237 0.0
H555 H 0.54604 0.07243 0.87608 0.0
H556 H 0.489 0.09615 0.88118 0.0
H557 H 0.4835 0.06709 0.81302 0.0
H558 H 0.57018 0.10082 0.9627 0.0
H559 H 0.50599 0.06229 0.97259 0.0
H560 H 0.54704 0.05368 0.90561 0.0
C561 C 0.78954 0.17027 0.82904 0.0
C562 C 0.80543 0.17132 0.82304 0.0
N563 N 0.81286 0.16387 0.84605 0.0
N564 N 0.78694 0.16216 0.85551 0.0
C565 C 0.80138 0.15841 0.86532 0.0
H566 H 0.78045 0.17526 0.81552 0.0
Co567 Co 0.76727 0.15798 0.87411 0.0
C568 C 0.77424 0.13882 0.92442 0.0
O569 O 0.76431 0.13265 0.90455 0.0
N570 N 0.74735 0.1538 0.89323 0.0
C571 C 0.72828 0.14994 0.93498 0.0
C572 C 0.74319 0.15409 0.93085 0.0
C573 C 0.7346 0.14956 0.875 0.0
N574 N 0.72288 0.14705 0.89984 0.0
O575 O 0.76712 0.14574 0.83846 0.0
H576 H 0.75069 0.15693 0.95407 0.0
H577 H 0.73401 0.14799 0.84432 0.0
O578 O 0.77687 0.14897 0.91428 0.0
C579 C 0.76167 0.14957 0.8068 0.0
O580 O 0.7566 0.16004 0.80608 0.0
N581 N 0.76721 0.17062 0.90551 0.0
C582 C 0.76746 0.19188 0.93919 0.0
C583 C 0.77835 0.18364 0.95065 0.0
C584 C 0.77805 0.173 0.93332 0.0
C585 C 0.7564 0.17843 0.89458 0.0
C586 C 0.75621 0.18908 0.91128 0.0
H587 H 0.78694 0.1669 0.94098 0.0
H588 H 0.74824 0.17647 0.87163 0.0
H589 H 0.80351 0.15182 0.88627 0.0
H590 H 0.81109 0.17733 0.80413 0.0
H591 H 0.72192 0.14908 0.96186 0.0
H592 H 0.78724 0.1855 0.97203 0.0
H593 H 0.74783 0.19525 0.90096 0.0
C594 C 0.50441 0.17179 0.39909 0.0
C595 C 0.48863 0.17379 0.4038 0.0
N596 N 0.48062 0.16524 0.38744 0.0
N597 N 0.50637 0.16204 0.37976 0.0
C598 C 0.49168 0.15819 0.37335 0.0
H599 H 0.51387 0.17724 0.40823 0.0
Co600 Co 0.52564 0.15634 0.36314 0.0
C601 C 0.51665 0.13684 0.31669 0.0
O602 O 0.52572 0.13047 0.33826 0.0
N603 N 0.54508 0.15066 0.34592 0.0
C604 C 0.56391 0.14509 0.30584 0.0
C605 C 0.54925 0.14977 0.30843 0.0
C606 C 0.55759 0.14659 0.36564 0.0
N607 N 0.56916 0.14305 0.34181 0.0
O608 O 0.52422 0.14484 0.40146 0.0
H609 H 0.54199 0.1523 0.28432 0.0
H610 H 0.55812 0.14602 0.39676 0.0
O611 O 0.51519 0.14729 0.32445 0.0
C612 C 0.52928 0.1494 0.43236 0.0
O613 O 0.5349 0.15971 0.43016 0.0
N614 N 0.52741 0.16837 0.32925 0.0
C615 C 0.52881 0.18965 0.29592 0.0
C616 C 0.51719 0.18193 0.28458 0.0
C617 C 0.51665 0.17127 0.30181 0.0
C618 C 0.5392 0.17553 0.33908 0.0
C619 C 0.54025 0.18615 0.32241 0.0
H620 H 0.50702 0.16568 0.29509 0.0
H621 H 0.54738 0.17318 0.36156 0.0
H622 H 0.4891 0.15059 0.35733 0.0
H623 H 0.48348 0.18105 0.41784 0.0
H624 H 0.57028 0.14342 0.27943 0.0
H625 H 0.50804 0.18435 0.26454 0.0
H626 H 0.54954 0.19178 0.33152 0.0
C627 C 0.79059 0.07718 0.40108 0.0
C628 C 0.80635 0.07532 0.40646 0.0
N629 N 0.81435 0.08373 0.38922 0.0
N630 N 0.78859 0.08672 0.38057 0.0
C631 C 0.80328 0.09058 0.37398 0.0
H632 H 0.78117 0.07173 0.41047 0.0
Co633 Co 0.76917 0.09176 0.36279 0.0
C634 C 0.77685 0.11223 0.31967 0.0
O635 O 0.76687 0.11792 0.34098 0.0
N636 N 0.7495 0.09669 0.34459 0.0
C637 C 0.73028 0.10122 0.30408 0.0
C638 C 0.74561 0.09783 0.30699 0.0
C639 C 0.73624 0.09941 0.36399 0.0
N640 N 0.72435 0.1022 0.33994 0.0
O641 O 0.76894 0.1028 0.40277 0.0
H642 H 0.75346 0.09626 0.28307 0.0
H643 H 0.73518 0.09915 0.39506 0.0
O644 O 0.77929 0.10183 0.32668 0.0
C645 C 0.76373 0.0979 0.43289 0.0
O646 O 0.75884 0.08743 0.42965 0.0
N647 N 0.76917 0.08019 0.32683 0.0
C648 C 0.77093 0.05948 0.28983 0.0
C649 C 0.78153 0.06812 0.28054 0.0
C650 C 0.7805 0.07847 0.29962 0.0
C651 C 0.75828 0.07214 0.33458 0.0
C652 C 0.75884 0.06175 0.31611 0.0
H653 H 0.78942 0.08476 0.29447 0.0
H654 H 0.74963 0.07358 0.35687 0.0
H655 H 0.80586 0.09798 0.35689 0.0
H656 H 0.8115 0.06823 0.4215 0.0
H657 H 0.72404 0.10295 0.27751 0.0
H658 H 0.79114 0.06664 0.26073 0.0
H659 H 0.75031 0.05536 0.32369 0.0
C660 C 0.53549 0.91762 0.15535 0.0
C661 C 0.55125 0.91934 0.16155 0.0
N662 N 0.55939 0.9124 0.13812 0.0
N663 N 0.53364 0.90963 0.12816 0.0
C664 C 0.54839 0.90656 0.11836 0.0
H665 H 0.52596 0.92208 0.16917 0.0
Co666 Co 0.51436 0.90513 0.1078 0.0
C667 C 0.52287 0.88617 0.05855 0.0
O668 O 0.51304 0.87984 0.07816 0.0
N669 N 0.49485 0.90066 0.08671 0.0
C670 C 0.47666 0.89689 0.04251 0.0
C671 C 0.49159 0.90079 0.04854 0.0
C672 C 0.48152 0.89676 0.10334 0.0
N673 N 0.4703 0.89432 0.07696 0.0
O674 O 0.51432 0.89277 0.1428 0.0
H675 H 0.49964 0.9035 0.0263 0.0
H676 H 0.48008 0.89552 0.13403 0.0
O677 O 0.52486 0.89644 0.06815 0.0
C678 C 0.50786 0.896 0.17402 0.0
O679 O 0.50162 0.90614 0.17524 0.0
N680 N 0.5142 0.91792 0.07714 0.0
C681 C 0.51483 0.93973 0.04789 0.0
C682 C 0.52575 0.93166 0.03523 0.0
C683 C 0.52529 0.92074 0.05045 0.0
C684 C 0.50314 0.92549 0.08847 0.0
C685 C 0.50313 0.93641 0.07392 0.0
H686 H 0.53434 0.9148 0.04249 0.0
H687 H 0.49468 0.92314 0.1103 0.0
H688 H 0.55108 0.90046 0.09613 0.0
H689 H 0.55628 0.92531 0.18165 0.0
H690 H 0.47087 0.89613 0.01483 0.0
H691 H 0.53508 0.93393 0.0155 0.0
H692 H 0.49435 0.94232 0.08401 0.0
C693 C 0.24713 0.83785 0.18206 0.0
C694 C 0.23108 0.83823 0.18497 0.0
N695 N 0.22509 0.84042 0.14974 0.0
N696 N 0.25133 0.83986 0.14522 0.0
C697 C 0.23765 0.84133 0.12609 0.0
H698 H 0.25524 0.83606 0.20525 0.0
Co699 Co 0.27196 0.8399 0.12774 0.0
C700 C 0.26837 0.86127 0.083 0.0
O701 O 0.27553 0.86755 0.10874 0.0
N702 N 0.29303 0.83985 0.11071 0.0
C703 C 0.31666 0.8338 0.09279 0.0
C704 C 0.30141 0.83071 0.09992 0.0
C705 C 0.30361 0.84837 0.11057 0.0
N706 N 0.31807 0.84492 0.09973 0.0
O707 O 0.27662 0.85128 0.16456 0.0
H708 H 0.29693 0.8222 0.09861 0.0
H709 H 0.30095 0.85688 0.11946 0.0
O710 O 0.2665 0.85076 0.08871 0.0
C711 C 0.28456 0.84782 0.19332 0.0
O712 O 0.29003 0.83746 0.19296 0.0
N713 N 0.26724 0.82816 0.0941 0.0
C714 C 0.26273 0.80855 0.05152 0.0
C715 C 0.26555 0.81886 0.03284 0.0
C716 C 0.26781 0.82862 0.05473 0.0
C717 C 0.26422 0.81828 0.11265 0.0
C718 C 0.26188 0.80839 0.09195 0.0
H719 H 0.27063 0.83639 0.04003 0.0
H720 H 0.26417 0.81805 0.14386 0.0
H721 H 0.23694 0.843 0.09544 0.0
H722 H 0.22434 0.83671 0.21092 0.0
H723 H 0.32615 0.82819 0.08492 0.0
H724 H 0.2663 0.81934 0.00167 0.0
H725 H 0.26011 0.80059 0.10764 0.0
C726 C 0.54192 0.82704 0.57203 0.0
C727 C 0.55777 0.82625 0.56508 0.0
N728 N 0.5652 0.83396 0.58706 0.0
N729 N 0.5393 0.83522 0.59819 0.0
C730 C 0.5537 0.83931 0.60676 0.0
H731 H 0.53286 0.82184 0.55938 0.0
Co732 Co 0.51959 0.83897 0.61766 0.0
C733 C 0.52578 0.8583 0.66706 0.0
O734 O 0.51538 0.86404 0.64712 0.0
N735 N 0.49953 0.8427 0.63777 0.0
C736 C 0.48014 0.84471 0.68029 0.0
C737 C 0.49543 0.84144 0.67524 0.0
C738 C 0.48646 0.84694 0.62075 0.0
N739 N 0.47451 0.84818 0.64605 0.0
O740 O 0.51874 0.8512 0.58212 0.0
H741 H 0.50315 0.83842 0.69775 0.0
H742 H 0.48557 0.84903 0.59048 0.0
O743 O 0.52903 0.84819 0.65742 0.0
C744 C 0.51269 0.8475 0.55099 0.0
O745 O 0.50738 0.8371 0.55034 0.0
N746 N 0.52032 0.82628 0.64896 0.0
C747 C 0.52076 0.8053 0.68477 0.0
C748 C 0.53155 0.81368 0.69546 0.0
C749 C 0.53115 0.82418 0.67705 0.0
C750 C 0.50979 0.81825 0.63825 0.0
C751 C 0.5097 0.80774 0.65602 0.0
H752 H 0.53983 0.83045 0.68449 0.0
H753 H 0.50164 0.81998 0.61507 0.0
H754 H 0.55574 0.84606 0.62713 0.0
H755 H 0.56339 0.82022 0.54617 0.0
H756 H 0.47374 0.84478 0.70728 0.0
H757 H 0.54032 0.81208 0.71741 0.0
H758 H 0.50143 0.80144 0.64622 0.0
C759 C 0.25513 0.92038 0.58892 0.0
C760 C 0.2393 0.92171 0.58307 0.0
N761 N 0.23163 0.91403 0.6047 0.0
N762 N 0.25753 0.91192 0.61415 0.0
C763 C 0.24299 0.90814 0.6231 0.0
H764 H 0.26435 0.92542 0.57624 0.0
Co765 Co 0.27736 0.908 0.63257 0.0
C766 C 0.27154 0.88905 0.68374 0.0
O767 O 0.28151 0.8831 0.6632 0.0
N768 N 0.29758 0.90417 0.65141 0.0
C769 C 0.31763 0.90219 0.69211 0.0
C770 C 0.30223 0.90539 0.68851 0.0
C771 C 0.31044 0.90005 0.63315 0.0
N772 N 0.32277 0.89881 0.6573 0.0
O773 O 0.27759 0.8956 0.59785 0.0
H774 H 0.29484 0.90842 0.71166 0.0
H775 H 0.31095 0.89811 0.60272 0.0
O776 O 0.2682 0.89909 0.6735 0.0
C777 C 0.28339 0.89909 0.56619 0.0
O778 O 0.28862 0.90951 0.56436 0.0
N779 N 0.27724 0.92082 0.66316 0.0
C780 C 0.27653 0.94226 0.69534 0.0
C781 C 0.26593 0.93395 0.70767 0.0
C782 C 0.26646 0.92321 0.69108 0.0
C783 C 0.28778 0.9287 0.65139 0.0
C784 C 0.28774 0.93945 0.66736 0.0
H785 H 0.25778 0.91704 0.69937 0.0
H786 H 0.29589 0.92673 0.62835 0.0
H787 H 0.24074 0.90148 0.6437 0.0
H788 H 0.23386 0.9279 0.5644 0.0
H789 H 0.32448 0.90217 0.71843 0.0
H790 H 0.25707 0.93582 0.72912 0.0
H791 H 0.29589 0.94567 0.65639 0.0
C792 C 0.50238 0.57724 0.33828 0.0
C793 C 0.48665 0.57544 0.33213 0.0
N794 N 0.47849 0.58315 0.3525 0.0
N795 N 0.50419 0.58602 0.36248 0.0
C796 C 0.48944 0.58951 0.37046 0.0
H797 H 0.51193 0.57232 0.32652 0.0
Co798 Co 0.52355 0.59084 0.38118 0.0
C799 C 0.5156 0.60988 0.43054 0.0
O800 O 0.52544 0.61612 0.41067 0.0
N801 N 0.54326 0.59558 0.40034 0.0
C802 C 0.56281 0.59845 0.4418 0.0
C803 C 0.54752 0.59505 0.4379 0.0
C804 C 0.55621 0.59949 0.38203 0.0
N805 N 0.56826 0.60125 0.40668 0.0
O806 O 0.52292 0.603 0.3455 0.0
H807 H 0.53998 0.59225 0.4611 0.0
H808 H 0.55702 0.60081 0.35123 0.0
O809 O 0.51336 0.59964 0.42093 0.0
C810 C 0.52885 0.59959 0.31389 0.0
O811 O 0.53507 0.58945 0.31273 0.0
N812 N 0.52429 0.57825 0.41283 0.0
C813 C 0.52522 0.55708 0.44713 0.0
C814 C 0.51395 0.56505 0.45851 0.0
C815 C 0.51365 0.57565 0.44084 0.0
C816 C 0.53547 0.5707 0.40195 0.0
C817 C 0.53624 0.5601 0.41896 0.0
H818 H 0.50447 0.58153 0.44844 0.0
H819 H 0.54347 0.57282 0.37885 0.0
H820 H 0.48672 0.59634 0.39005 0.0
H821 H 0.48163 0.56892 0.31413 0.0
H822 H 0.56939 0.59892 0.46847 0.0
H823 H 0.50521 0.56301 0.48009 0.0
H824 H 0.5449 0.55413 0.40867 0.0
C825 C 0.79034 0.66911 0.34105 0.0
C826 C 0.80623 0.6706 0.33704 0.0
N827 N 0.81365 0.66307 0.35977 0.0
N828 N 0.78765 0.66063 0.36606 0.0
C829 C 0.80209 0.65708 0.3769 0.0
H830 H 0.78129 0.6741 0.32742 0.0
Co831 Co 0.76768 0.65652 0.38309 0.0
C832 C 0.77333 0.63644 0.42987 0.0
O833 O 0.76285 0.63093 0.40948 0.0
N834 N 0.74741 0.65254 0.40075 0.0
C835 C 0.72728 0.65013 0.44082 0.0
C836 C 0.7428 0.65304 0.43805 0.0
C837 C 0.73443 0.6491 0.38144 0.0
N838 N 0.72205 0.64763 0.40526 0.0
O839 O 0.76716 0.64496 0.34501 0.0
H840 H 0.75026 0.65541 0.46194 0.0
H841 H 0.73387 0.64786 0.35057 0.0
O842 O 0.77667 0.64659 0.42126 0.0
C843 C 0.762 0.64947 0.31412 0.0
O844 O 0.75732 0.66002 0.31556 0.0
N845 N 0.76803 0.66858 0.41701 0.0
C846 C 0.76829 0.68898 0.45615 0.0
C847 C 0.77788 0.68005 0.46842 0.0
C848 C 0.77771 0.66988 0.44807 0.0
C849 C 0.75843 0.67707 0.40527 0.0
C850 C 0.75831 0.68733 0.42453 0.0
H851 H 0.78569 0.66324 0.45652 0.0
H852 H 0.75108 0.6759 0.38013 0.0
H853 H 0.80411 0.65054 0.3981 0.0
H854 H 0.81184 0.67685 0.31897 0.0
H855 H 0.72038 0.64974 0.46702 0.0
H856 H 0.78588 0.68109 0.49245 0.0
H857 H 0.75065 0.694 0.41439 0.0
C858 C 0.50112 0.67018 0.91176 0.0
C859 C 0.48542 0.67151 0.9198 0.0
N860 N 0.47738 0.66332 0.90149 0.0
N861 N 0.50303 0.66119 0.88852 0.0
C862 C 0.48837 0.65716 0.88279 0.0
H863 H 0.51056 0.6755 0.92187 0.0
Co864 Co 0.52236 0.6562 0.86988 0.0
C865 C 0.5139 0.63666 0.82317 0.0
O866 O 0.52356 0.63049 0.84388 0.0
N867 N 0.54199 0.65121 0.85083 0.0
C868 C 0.56093 0.64696 0.80913 0.0
C869 C 0.54573 0.65059 0.81302 0.0
C870 C 0.55525 0.64795 0.86939 0.0
N871 N 0.56698 0.64531 0.84461 0.0
O872 O 0.52189 0.64439 0.90691 0.0
H873 H 0.53787 0.65266 0.78956 0.0
H874 H 0.55643 0.6477 0.90043 0.0
O875 O 0.51196 0.64704 0.83142 0.0
C876 C 0.52783 0.64808 0.93816 0.0
O877 O 0.53389 0.65827 0.93841 0.0
N878 N 0.52301 0.66846 0.83664 0.0
C879 C 0.52412 0.68913 0.79884 0.0
C880 C 0.51262 0.68113 0.78922 0.0
C881 C 0.51223 0.6708 0.80864 0.0
C882 C 0.53436 0.67604 0.84593 0.0
C883 C 0.53522 0.68639 0.82719 0.0
H884 H 0.50291 0.66491 0.80228 0.0
H885 H 0.54248 0.67415 0.86905 0.0
H886 H 0.48578 0.64981 0.86547 0.0
H887 H 0.48031 0.67816 0.93708 0.0
H888 H 0.56697 0.64553 0.78211 0.0
H889 H 0.50382 0.68295 0.76755 0.0
H890 H 0.54405 0.6924 0.83617 0.0
C891 C 0.78872 0.57672 0.91363 0.0
C892 C 0.80463 0.5756 0.91931 0.0
N893 N 0.812 0.58378 0.89929 0.0
N894 N 0.78601 0.58558 0.89023 0.0
C895 C 0.80041 0.58974 0.88206 0.0
H896 H 0.77969 0.57126 0.92509 0.0
Co897 Co 0.76624 0.59009 0.87239 0.0
C898 C 0.77354 0.60956 0.82404 0.0
O899 O 0.7638 0.6157 0.84458 0.0
N900 N 0.74628 0.59462 0.85385 0.0
C901 C 0.72736 0.59891 0.81211 0.0
C902 C 0.74222 0.59465 0.81616 0.0
C903 C 0.7335 0.59881 0.87223 0.0
N904 N 0.72186 0.60158 0.84735 0.0
O905 O 0.76632 0.60198 0.90924 0.0
H906 H 0.74974 0.59192 0.79282 0.0
H907 H 0.73284 0.60013 0.90305 0.0
O908 O 0.77591 0.59929 0.83308 0.0
C909 C 0.76099 0.59762 0.94021 0.0
O910 O 0.75599 0.58714 0.93896 0.0
N911 N 0.7659 0.57769 0.83987 0.0
C912 C 0.76584 0.55653 0.80552 0.0
C913 C 0.77671 0.56476 0.79392 0.0
C914 C 0.77661 0.57534 0.81174 0.0
C915 C 0.75499 0.56994 0.85055 0.0
C916 C 0.75464 0.55935 0.83349 0.0
H917 H 0.78559 0.58139 0.80434 0.0
H918 H 0.74684 0.5719 0.87353 0.0
H919 H 0.80241 0.59696 0.86366 0.0
H920 H 0.81032 0.56903 0.93585 0.0
H921 H 0.72109 0.59995 0.78518 0.0
H922 H 0.78568 0.56286 0.77278 0.0
H923 H 0.74593 0.5533 0.84291 0.0
C924 C 0.5397 0.41903 0.65738 0.0
C925 C 0.55552 0.42031 0.66365 0.0
N926 N 0.5633 0.41301 0.64071 0.0
N927 N 0.53741 0.41093 0.63077 0.0
C928 C 0.55199 0.4074 0.62121 0.0
H929 H 0.53044 0.42386 0.67084 0.0
Co930 Co 0.51786 0.40681 0.61119 0.0
C931 C 0.52465 0.38687 0.56471 0.0
O932 O 0.51429 0.38121 0.58499 0.0
N933 N 0.49806 0.40276 0.59099 0.0
C934 C 0.47931 0.39937 0.54793 0.0
C935 C 0.49456 0.40269 0.55297 0.0
C936 C 0.48462 0.39944 0.60852 0.0
N937 N 0.47301 0.39733 0.58287 0.0
O938 O 0.51681 0.39507 0.64862 0.0
H939 H 0.50268 0.40481 0.53012 0.0
H940 H 0.48328 0.39865 0.63941 0.0
O941 O 0.52765 0.39709 0.57335 0.0
C942 C 0.511 0.39922 0.67937 0.0
O943 O 0.50598 0.4097 0.67848 0.0
N944 N 0.51866 0.41902 0.57785 0.0
C945 C 0.51963 0.43967 0.54004 0.0
C946 C 0.53029 0.43108 0.53039 0.0
C947 C 0.52963 0.42076 0.54979 0.0
C948 C 0.50811 0.42718 0.58717 0.0
C949 C 0.50829 0.43753 0.5684 0.0
H950 H 0.53827 0.41437 0.54332 0.0
H951 H 0.49983 0.42572 0.61027 0.0
H952 H 0.55429 0.40111 0.59939 0.0
H953 H 0.56082 0.42622 0.68352 0.0
H954 H 0.47344 0.39829 0.52048 0.0
H955 H 0.53925 0.43244 0.50874 0.0
H956 H 0.5001 0.444 0.5774 0.0
C957 C 0.25397 0.32634 0.64452 0.0
C958 C 0.23829 0.32445 0.65125 0.0
N959 N 0.22999 0.33268 0.63375 0.0
N960 N 0.25559 0.33567 0.62274 0.0
C961 C 0.24079 0.33941 0.61691 0.0
H962 H 0.2636 0.3211 0.6541 0.0
Co963 Co 0.27459 0.341 0.60354 0.0
C964 C 0.26522 0.3603 0.55693 0.0
O965 O 0.27452 0.36664 0.57798 0.0
N966 N 0.29386 0.34632 0.58376 0.0
C967 C 0.31218 0.3512 0.54127 0.0
C968 C 0.29741 0.34684 0.54581 0.0
C969 C 0.30683 0.35031 0.60175 0.0
N970 N 0.31813 0.35341 0.57647 0.0
O971 O 0.2739 0.35283 0.64044 0.0
H972 H 0.28968 0.34423 0.52273 0.0
H973 H 0.30796 0.35109 0.6327 0.0
O974 O 0.26371 0.34987 0.56497 0.0
C975 C 0.2802 0.34903 0.67112 0.0
O976 O 0.28634 0.33886 0.67044 0.0
N977 N 0.27558 0.32866 0.57085 0.0
C978 C 0.27604 0.30714 0.53939 0.0
C979 C 0.26445 0.31492 0.5283 0.0
C980 C 0.26438 0.32571 0.5446 0.0
C981 C 0.28732 0.32142 0.58043 0.0
C982 C 0.28789 0.31066 0.56469 0.0
H983 H 0.25481 0.33137 0.53811 0.0
H984 H 0.29585 0.32384 0.602 0.0
H985 H 0.23793 0.3467 0.59952 0.0
H986 H 0.2334 0.31752 0.6676 0.0
H987 H 0.31816 0.35247 0.51407 0.0
H988 H 0.255 0.31248 0.50918 0.0
H989 H 0.29717 0.30498 0.57356 0.0
C990 C 0.53993 0.32514 0.08226 0.0
C991 C 0.55567 0.32335 0.07627 0.0
N992 N 0.56372 0.33172 0.0936 0.0
N993 N 0.53801 0.33459 0.10332 0.0
C994 C 0.5527 0.33846 0.10954 0.0
H995 H 0.53046 0.31975 0.07276 0.0
Co996 Co 0.51878 0.33979 0.12174 0.0
C997 C 0.52742 0.35942 0.16775 0.0
O998 O 0.5181 0.36561 0.14619 0.0
N999 N 0.49935 0.34497 0.14077 0.0
C1000 C 0.48092 0.35024 0.18245 0.0
C1001 C 0.49566 0.34576 0.17861 0.0
C1002 C 0.48647 0.34886 0.12214 0.0
N1003 N 0.47514 0.35221 0.14693 0.0
O1004 O 0.51915 0.35142 0.08374 0.0
H1005 H 0.50333 0.34334 0.20208 0.0
H1006 H 0.4855 0.34948 0.0911 0.0
O1007 O 0.52928 0.34901 0.1599 0.0
C1008 C 0.51367 0.34699 0.05305 0.0
O1009 O 0.50841 0.33659 0.05495 0.0
N1010 N 0.51805 0.32765 0.15537 0.0
C1011 C 0.5182 0.30629 0.18817 0.0
C1012 C 0.52948 0.31431 0.19903 0.0
C1013 C 0.52924 0.32502 0.18205 0.0
C1014 C 0.50658 0.32018 0.14605 0.0
C1015 C 0.50632 0.30949 0.16244 0.0
H1016 H 0.53861 0.33086 0.18836 0.0
H1017 H 0.49805 0.32234 0.12415 0.0
H1018 H 0.55532 0.34584 0.12671 0.0
H1019 H 0.56078 0.31636 0.06063 0.0
H1020 H 0.47487 0.35185 0.20935 0.0
H1021 H 0.53894 0.31212 0.21849 0.0
H1022 H 0.49727 0.30361 0.15373 0.0
C1023 C 0.25467 0.41646 0.061 0.0
C1024 C 0.23883 0.41744 0.05408 0.0
N1025 N 0.23111 0.41167 0.08165 0.0
N1026 N 0.25694 0.41003 0.09258 0.0
C1027 C 0.24235 0.40725 0.10457 0.0
H1028 H 0.26395 0.4203 0.04432 0.0
Co1029 Co 0.27646 0.40638 0.11339 0.0
C1030 C 0.26954 0.38767 0.16506 0.0
O1031 O 0.27993 0.3816 0.14628 0.0
N1032 N 0.29627 0.40276 0.13471 0.0
C1033 C 0.31502 0.39993 0.17836 0.0
C1034 C 0.30001 0.40374 0.17246 0.0
C1035 C 0.30934 0.39841 0.11824 0.0
N1036 N 0.32089 0.39654 0.14422 0.0
O1037 O 0.27723 0.3937 0.07989 0.0
H1038 H 0.29218 0.40687 0.19457 0.0
H1039 H 0.31033 0.39631 0.08803 0.0
O1040 O 0.26663 0.39772 0.15414 0.0
C1041 C 0.2836 0.39674 0.04834 0.0
O1042 O 0.28955 0.40694 0.04594 0.0
N1043 N 0.27578 0.41946 0.14251 0.0
C1044 C 0.27382 0.44142 0.16994 0.0
C1045 C 0.26365 0.43305 0.18398 0.0
C1046 C 0.26478 0.42206 0.16967 0.0
C1047 C 0.2861 0.42735 0.1297 0.0
C1048 C 0.28544 0.43836 0.14329 0.0
H1049 H 0.25631 0.41585 0.17888 0.0
H1050 H 0.29451 0.42515 0.10757 0.0
H1051 H 0.23994 0.40208 0.12957 0.0
H1052 H 0.2334 0.42226 0.03114 0.0
H1053 H 0.32113 0.39969 0.20573 0.0
H1054 H 0.25441 0.4351 0.20423 0.0
H1055 H 0.29367 0.44451 0.13216 0.0
H1056 H 0.99214 0.10327 0.46417 0.0
H1057 H 0.98467 0.10879 0.52974 0.0
H1058 H 0.02331 0.13227 0.53283 0.0
H1059 H 0.03017 0.12727 0.46685 0.0
H1060 H 0.99977 0.10529 0.59091 0.0
H1061 H 0.99199 0.15122 0.58439 0.0
H1062 H 0.99324 0.14278 0.54121 0.0
H1063 H 1.01079 0.14787 0.56458 0.0
C1064 C 0.99872 0.10986 0.47854 0.0
C1065 C 1.01167 0.1149 0.46036 0.0
C1066 C 0.99448 0.11299 0.51605 0.0
C1067 C 1.00326 0.12109 0.5363 0.0
C1068 C 1.01596 0.12631 0.51761 0.0
H1069 H 0.03004 0.12049 0.77035 0.0
H1070 H 0.02326 0.11624 0.70374 0.0
C1071 C 1.01997 0.12338 0.47984 0.0
C1072 C 1.00045 0.1231 0.57816 0.0
H1073 H 1.00085 0.14377 0.64661 0.0
C1074 C 0.99964 0.11373 0.60294 0.0
C1075 C 0.99983 0.13407 0.59424 0.0
C1076 C 0.99882 0.14452 0.56954 0.0
C1077 C 0.99935 0.11502 0.64319 0.0
C1078 C 1.00061 0.12595 0.65926 0.0
C1079 C 1.00026 0.13534 0.63452 0.0
C1080 C 1.00362 0.12782 0.7011 0.0
C1081 C 0.99781 0.1046 0.6679 0.0
C1082 C 0.9951 0.13595 0.72191 0.0
C1083 C 0.99926 0.13861 0.75991 0.0
C1084 C 1.01191 0.13312 0.77792 0.0
C1085 C 1.02006 0.12473 0.75755 0.0
C1086 C 1.01611 0.12223 0.7194 0.0
H1087 H 0.99067 0.09808 0.65305 0.0
H1088 H 1.00961 0.10094 0.67294 0.0
H1089 H 0.99231 0.1065 0.69621 0.0
H1090 H 0.98547 0.14043 0.70845 0.0
H1091 H 0.99278 0.14514 0.7749 0.0
H1092 H 0.30268 0.14602 0.46045 0.0
H1093 H 0.30961 0.14143 0.52726 0.0
H1094 H 0.27273 0.11653 0.53 0.0
H1095 H 0.26644 0.12063 0.46294 0.0
H1096 H 0.29371 0.14462 0.58774 0.0
H1097 H 0.3051 0.09904 0.58383 0.0
H1098 H 0.30355 0.10727 0.54022 0.0
H1099 H 0.28623 0.1016 0.56307 0.0
C1100 C 0.29638 0.13934 0.47507 0.0
C1101 C 0.28412 0.13361 0.45638 0.0
C1102 C 0.3003 0.13675 0.5133 0.0
C1103 C 0.29189 0.12848 0.53375 0.0
C1104 C 0.27982 0.12263 0.51471 0.0
H1105 H 0.26496 0.12857 0.76896 0.0
H1106 H 0.27144 0.13331 0.70249 0.0
C1107 C 0.27615 0.12504 0.47628 0.0
C1108 C 0.29451 0.12677 0.57587 0.0
H1109 H 0.29558 0.10639 0.64529 0.0
C1110 C 0.29447 0.13625 0.60022 0.0
C1111 C 0.29595 0.11592 0.59252 0.0
C1112 C 0.29791 0.10542 0.56839 0.0
C1113 C 0.29478 0.13514 0.64057 0.0
C1114 C 0.29442 0.12423 0.65719 0.0
C1115 C 0.29552 0.11478 0.63285 0.0
C1116 C 0.29174 0.12235 0.69922 0.0
C1117 C 0.29547 0.1457 0.66476 0.0
C1118 C 0.30079 0.11445 0.71978 0.0
C1119 C 0.29679 0.11147 0.7576 0.0
C1120 C 0.28381 0.11647 0.77581 0.0
C1121 C 0.27522 0.12475 0.75598 0.0
C1122 C 0.27899 0.12752 0.7179 0.0
H1123 H 0.30209 0.15245 0.6496 0.0
H1124 H 0.28339 0.14889 0.66956 0.0
H1125 H 0.3011 0.14415 0.69317 0.0
H1126 H 0.31065 0.1103 0.70612 0.0
H1127 H 0.30356 0.10502 0.7722 0.0
H1128 H 0.05021 0.89479 0.51997 0.0
H1129 H 0.0548 0.89027 0.45191 0.0
H1130 H 1.01569 0.86721 0.45405 0.0
H1131 H 1.01159 0.87126 0.52231 0.0
H1132 H 0.03777 0.85908 0.41008 0.0
H1133 H 0.02828 0.90386 0.36961 0.0
H1134 H 0.04479 0.90174 0.40083 0.0
H1135 H 0.02531 0.89879 0.41805 0.0
C1136 C 0.04281 0.88859 0.50603 0.0
C1137 C 0.03048 0.88343 0.52637 0.0
C1138 C 0.04532 0.8861 0.46704 0.0
C1139 C 0.03527 0.87868 0.44744 0.0
C1140 C 0.02355 0.87304 0.46838 0.0
H1141 H 1.00525 0.87717 0.21311 0.0
H1142 H 1.01136 0.88158 0.28022 0.0
C1143 C 0.02123 0.87533 0.50751 0.0
C1144 C 0.03628 0.87713 0.40489 0.0
H1145 H 0.03382 0.89124 0.31906 0.0
C1146 C 0.03699 0.86612 0.39015 0.0
C1147 C 0.03506 0.88632 0.37885 0.0
C1148 C 0.03316 0.89833 0.39255 0.0
C1149 C 0.03602 0.86399 0.35035 0.0
C1150 C 0.03498 0.87318 0.32428 0.0
C1151 C 0.03477 0.88421 0.33897 0.0
C1152 C 0.03256 0.87151 0.28213 0.0
C1153 C 0.03523 0.85188 0.33697 0.0
C1154 C 0.04278 0.86478 0.2602 0.0
C1155 C 0.03913 0.86208 0.22193 0.0
C1156 C 0.02545 0.86635 0.20459 0.0
C1157 C 1.01592 0.8738 0.22559 0.0
C1158 C 1.01939 0.8763 0.26406 0.0
H1159 H 0.03201 0.84607 0.36086 0.0
H1160 H 0.02653 0.85085 0.31338 0.0
H1161 H 0.04689 0.84927 0.32601 0.0
H1162 H 0.0533 0.86131 0.27303 0.0
H1163 H 0.04677 0.8564 0.20626 0.0
H1164 H 0.7535 0.85946 0.55542 0.0
H1165 H 0.74306 0.86835 0.49651 0.0
H1166 H 0.78442 0.85814 0.43411 0.0
H1167 H 0.79489 0.84937 0.49209 0.0
H1168 H 0.75811 0.88551 0.44567 0.0
H1169 H 0.74663 0.8449 0.3718 0.0
H1170 H 0.74889 0.84602 0.42354 0.0
H1171 H 0.76585 0.84587 0.39273 0.0
C1172 C 0.7604 0.85921 0.5292 0.0
C1173 C 0.77496 0.85362 0.52839 0.0
C1174 C 0.75441 0.86425 0.49562 0.0
C1175 C 0.76286 0.86368 0.46087 0.0
C1176 C 0.77759 0.85847 0.46045 0.0
H1177 H 0.76892 0.88448 0.22894 0.0
H1178 H 0.76995 0.87561 0.29251 0.0
C1179 C 0.78357 0.85349 0.49376 0.0
C1180 C 0.75658 0.8685 0.42458 0.0
H1181 H 0.74816 0.86129 0.33146 0.0
C1182 C 0.75558 0.88024 0.42084 0.0
C1183 C 0.75333 0.86157 0.39235 0.0
C1184 C 0.75357 0.84888 0.39527 0.0
C1185 C 0.75237 0.88528 0.38495 0.0
C1186 C 0.74989 0.87834 0.35226 0.0
C1187 C 0.75014 0.86658 0.35652 0.0
C1188 C 0.74836 0.88311 0.31289 0.0
C1189 C 0.75255 0.89797 0.38178 0.0
C1190 C 0.73562 0.88999 0.30288 0.0
C1191 C 0.73498 0.8951 0.2665 0.0
C1192 C 0.7471 0.89341 0.23951 0.0
C1193 C 0.75947 0.88607 0.24911 0.0
C1194 C 0.76007 0.88097 0.28542 0.0
H1195 H 0.75731 0.90203 0.4082 0.0
H1196 H 0.75969 0.90067 0.35663 0.0
H1197 H 0.74041 0.90107 0.37732 0.0
H1198 H 0.72631 0.89158 0.32344 0.0
H1199 H 0.72524 0.90065 0.26001 0.0
H1200 H 0.02358 0.63584 0.26705 0.0
H1201 H 0.02432 0.62725 0.20296 0.0
H1202 H 0.9774 0.63906 0.18055 0.0
H1203 H 0.9766 0.64788 0.24438 0.0
H1204 H 0.98496 0.61516 0.15897 0.0
H1205 H 0.02628 0.64718 0.10099 0.0
H1206 H 0.03174 0.64096 0.14644 0.0
H1207 H 1.01447 0.64959 0.14351 0.0
C1208 C 1.0134 0.63663 0.24861 0.0
C1209 C 1.00015 0.64275 0.26068 0.0
C1210 C 1.01385 0.6317 0.21197 0.0
C1211 C 1.00103 0.63271 0.18687 0.0
C1212 C 0.98747 0.63829 0.19945 0.0
H1213 H 1.0086 0.61385 0.94061 0.0
H1214 H 1.00009 0.624 -0.00093 0.0
C1215 C 0.98704 0.6433 0.236 0.0
C1216 C 1.00196 0.62811 0.14722 0.0
H1217 H 0.02195 0.63089 0.06236 0.0
C1218 C 0.9929 0.61866 0.13765 0.0
C1219 C 1.01214 0.63283 0.11934 0.0
C1220 C 0.02164 0.64326 0.12779 0.0
C1221 C 0.99439 0.61343 0.10146 0.0
C1222 C 1.00521 0.61778 0.07437 0.0
C1223 C 1.01366 0.62758 0.08323 0.0
C1224 C 1.00928 0.61154 0.03875 0.0
C1225 C 0.98467 0.60313 0.09274 0.0
C1226 C 1.01731 0.60129 0.04188 0.0
C1227 C 0.0223 0.59561 0.00892 0.0
C1228 C 1.01934 0.60004 0.97194 0.0
C1229 C 1.01102 0.61024 0.96869 0.0
C1230 C 1.00617 0.61602 0.00197 0.0
H1231 H 0.97421 0.60259 0.11176 0.0
H1232 H 0.98076 0.60313 0.06215 0.0
H1233 H 0.9919 0.59547 0.09754 0.0
H1234 H 1.02001 0.59777 0.06999 0.0
H1235 H 0.0286 0.58774 0.01254 0.0
H1236 H 0.24288 0.6392 0.99055 0.0
H1237 H 0.25262 0.63092 0.05014 0.0
H1238 H 0.3002 0.63491 0.01019 0.0
H1239 H 0.29042 0.64344 0.94998 0.0
H1240 H 0.27153 0.61236 0.0661 0.0
H1241 H 0.2992 0.65266 0.11278 0.0
H1242 H 0.2857 0.65202 0.07273 0.0
H1243 H 0.30532 0.64678 0.06735 0.0
C1244 C 0.25543 0.63821 -0.00588 0.0
C1245 C 0.26589 0.64208 0.96573 0.0
C1246 C 0.26098 0.63345 0.02822 0.0
C1247 C 0.27713 0.63246 0.03492 0.0
C1248 C 0.28768 0.63576 0.00583 0.0
H1249 H 0.29541 0.59941 0.25856 0.0
H1250 H 0.29996 0.60467 0.19116 0.0
C1251 C 0.28209 0.64052 0.97134 0.0
C1252 C 0.28248 0.62854 0.07344 0.0
H1253 H 0.29731 0.63825 0.15882 0.0
C1254 C 0.27748 0.61791 0.08622 0.0
C1255 C 0.29008 0.63587 0.09966 0.0
C1256 C 0.29534 0.64751 0.08775 0.0
C1257 C 0.27905 0.61464 0.12499 0.0
C1258 C 0.28617 0.62213 0.15158 0.0
C1259 C 0.29193 0.63252 0.13835 0.0
C1260 C 0.28596 0.61987 0.19377 0.0
C1261 C 0.27206 0.60353 0.13758 0.0
C1262 C 0.27742 0.62704 0.21827 0.0
C1263 C 0.27497 0.62414 0.25692 0.0
C1264 C 0.28095 0.61397 0.27173 0.0
C1265 C 0.29044 0.60721 0.24786 0.0
C1266 C 0.293 0.61018 0.20928 0.0
H1267 H 0.26433 0.59983 0.11509 0.0
H1268 H 0.28164 0.59744 0.14346 0.0
H1269 H 0.26513 0.60458 0.16447 0.0
H1270 H 0.27194 0.6346 0.20698 0.0
H1271 H 0.26764 0.62955 0.27448 0.0
H1272 H 0.05079 0.39109 0.02537 0.0
H1273 H 0.05648 0.38573 0.95855 0.0
H1274 H 1.0144 0.36555 0.95595 0.0
H1275 H 1.00917 0.37037 0.02317 0.0
H1276 H 0.03618 0.35562 0.91588 0.0
H1277 H 0.03422 0.40058 0.87158 0.0
H1278 H 0.04956 0.39748 0.90533 0.0
H1279 H 0.02938 0.39608 0.91976 0.0
C1280 C 0.04295 0.38532 0.01071 0.0
C1281 C 0.02949 0.3812 0.02937 0.0
C1282 C 0.04611 0.38237 0.9724 0.0
C1283 C 0.03559 0.37554 0.95172 0.0
C1284 C 0.02265 0.3709 0.97113 0.0
H1285 H 1.01146 0.37521 0.7135 0.0
H1286 H 1.01646 0.37926 0.78137 0.0
C1287 C 1.01968 0.37364 0.00965 0.0
C1288 C 0.03745 0.37364 0.90951 0.0
H1289 H 0.03921 0.38729 0.82274 0.0
C1290 C 0.03692 0.36254 0.8955 0.0
C1291 C 0.03823 0.3827 0.88284 0.0
C1292 C 0.03773 0.39487 0.89553 0.0
C1293 C 0.03662 0.36024 0.85574 0.0
C1294 C 0.03756 0.36929 0.82908 0.0
C1295 C 0.03863 0.38036 0.84312 0.0
C1296 C 0.03586 0.36756 0.78673 0.0
C1297 C 0.03439 0.34818 0.84292 0.0
C1298 C 0.04547 0.35995 0.76655 0.0
C1299 C 0.04242 0.35746 0.72778 0.0
C1300 C 0.03001 0.36279 0.70824 0.0
C1301 C 0.02116 0.371 0.72768 0.0
C1302 C 0.02399 0.37331 0.76658 0.0
H1303 H 0.02977 0.34279 0.86658 0.0
H1304 H 0.02617 0.34765 0.81813 0.0
H1305 H 0.04585 0.34464 0.83387 0.0
H1306 H 0.05505 0.3557 0.78101 0.0
H1307 H 0.04952 0.35116 0.71337 0.0
H1308 H 0.74172 0.35524 0.02168 0.0
H1309 H 0.73616 0.36069 0.95482 0.0
H1310 H 0.77663 0.38252 0.95546 0.0
H1311 H 0.78162 0.37763 0.02273 0.0
H1312 H 0.75486 0.39169 0.91399 0.0
H1313 H 0.7601 0.34694 0.86897 0.0
H1314 H 0.74418 0.34944 0.90162 0.0
H1315 H 0.76408 0.35146 0.91758 0.0
C1316 C 0.74919 0.3614 0.00772 0.0
C1317 C 0.76213 0.36598 0.02731 0.0
C1318 C 0.74612 0.36441 0.96938 0.0
C1319 C 0.75628 0.37172 0.94956 0.0
C1320 C 0.76866 0.3768 0.96993 0.0
H1321 H 0.78282 0.37266 0.71298 0.0
H1322 H 0.77744 0.36872 0.78071 0.0
C1323 C 0.77149 0.37402 0.0085 0.0
C1324 C 0.75475 0.37365 0.90724 0.0
H1325 H 0.75479 0.36015 0.82013 0.0
C1326 C 0.75478 0.38479 0.89344 0.0
C1327 C 0.75483 0.36465 0.88034 0.0
C1328 C 0.75595 0.35246 0.89278 0.0
C1329 C 0.75544 0.38719 0.85375 0.0
C1330 C 0.75536 0.37818 0.82686 0.0
C1331 C 0.75474 0.36705 0.84066 0.0
C1332 C 0.75752 0.38001 0.78466 0.0
C1333 C 0.75714 0.39933 0.84133 0.0
C1334 C 0.74783 0.38741 0.76371 0.0
C1335 C 0.75111 0.38985 0.72499 0.0
C1336 C 0.76384 0.38468 0.70623 0.0
C1337 C 0.77287 0.37674 0.72651 0.0
C1338 C 0.76981 0.3745 0.76535 0.0
H1339 H 0.76118 0.40479 0.86542 0.0
H1340 H 0.7656 0.40015 0.81713 0.0
H1341 H 0.74559 0.40256 0.83158 0.0
H1342 H 0.73795 0.39148 0.77747 0.0
H1343 H 0.74387 0.39594 0.70994 0.0
H1344 H 0.4921 0.14475 0.2738 0.0
H1345 H 0.48526 0.13951 0.2075 0.0
H1346 H 0.52297 0.11521 0.20688 0.0
H1347 H 0.52916 0.11993 0.27352 0.0
H1348 H 0.50078 0.1425 0.14673 0.0
H1349 H 0.49138 0.09675 0.15464 0.0
H1350 H 0.49268 0.1053 0.19753 0.0
H1351 H 0.51018 0.09982 0.17494 0.0
C1352 C 0.49861 0.13806 0.25977 0.0
C1353 C 0.51105 0.13267 0.27893 0.0
C1354 C 0.49474 0.1351 0.22183 0.0
C1355 C 0.5034 0.12681 0.20211 0.0
C1356 C 0.51568 0.12132 0.22163 0.0
H1357 H 0.52979 0.1262 0.9665 0.0
H1358 H 0.52346 0.1309 0.03303 0.0
C1359 C 0.5193 0.12408 0.2598 0.0
C1360 C 0.5008 0.12473 0.16016 0.0
H1361 H 0.50056 0.10385 0.09246 0.0
C1362 C 0.50039 0.13403 0.13499 0.0
C1363 C 0.49983 0.11373 0.14443 0.0
C1364 C 0.49835 0.10337 0.16946 0.0
C1365 C 0.50006 0.13262 0.09476 0.0
C1366 C 0.50091 0.12161 0.07905 0.0
C1367 C 0.50026 0.11232 0.1042 0.0
C1368 C 0.50365 0.11952 0.03717 0.0
C1369 C 0.49883 0.14299 0.0697 0.0
C1370 C 0.4949 0.11135 0.01713 0.0
C1371 C 0.49884 0.1084 0.97923 0.0
C1372 C 0.51146 0.11368 0.96043 0.0
C1373 C 0.51981 0.12214 0.97991 0.0
C1374 C 0.51611 0.1249 0.01803 0.0
H1375 H 0.49192 0.14968 0.08437 0.0
H1376 H 0.51074 0.14643 0.06448 0.0
H1377 H 0.49323 0.14111 0.0415 0.0
H1378 H 0.48528 0.10703 0.03118 0.0
H1379 H 0.49225 0.10181 0.96493 0.0
H1380 H 0.80202 0.10555 0.27663 0.0
H1381 H 0.80809 0.111 0.21012 0.0
H1382 H 0.76869 0.13386 0.21054 0.0
H1383 H 0.76315 0.12889 0.27734 0.0
H1384 H 0.79174 0.10715 0.15048 0.0
H1385 H 0.79882 0.1532 0.15592 0.0
H1386 H 0.79848 0.14474 0.19916 0.0
H1387 H 0.78044 0.14955 0.17741 0.0
C1388 C 0.79497 0.11199 0.26282 0.0
C1389 C 0.78218 0.11685 0.28227 0.0
C1390 C 0.7984 0.11507 0.22475 0.0
C1391 C 0.78899 0.12297 0.20521 0.0
C1392 C 0.77648 0.12804 0.22512 0.0
H1393 H 0.76143 0.12246 0.96968 0.0
H1394 H 0.76778 0.11818 0.03662 0.0
C1395 C 0.77326 0.12515 0.2634 0.0
C1396 C 0.79107 0.12496 0.16305 0.0
H1397 H 0.79001 0.14557 0.09434 0.0
C1398 C 0.79169 0.11558 0.13831 0.0
C1399 C 0.79139 0.13592 0.1468 0.0
C1400 C 0.79244 0.14639 0.17135 0.0
C1401 C 0.79167 0.11683 0.09801 0.0
C1402 C 0.79034 0.12776 0.08184 0.0
C1403 C 0.7907 0.13716 0.10652 0.0
C1404 C 0.78752 0.12963 0.03989 0.0
C1405 C 0.79306 0.10639 0.07336 0.0
C1406 C 0.79627 0.13767 0.01928 0.0
C1407 C 0.79238 0.14034 0.9811 0.0
C1408 C 0.77976 0.13494 0.96266 0.0
C1409 C 0.77139 0.12662 0.98281 0.0
C1410 C 0.77508 0.12411 0.02116 0.0
H1411 H 0.80006 0.09979 0.08825 0.0
H1412 H 0.7812 0.10287 0.06819 0.0
H1413 H 0.79864 0.10824 0.0451 0.0
H1414 H 0.80588 0.14208 0.03303 0.0
H1415 H 0.79902 0.14681 0.9663 0.0
H1416 H 0.51146 0.86917 0.014 0.0
H1417 H 0.51887 0.86452 0.94813 0.0
H1418 H 0.55579 0.88936 0.95226 0.0
H1419 H 0.5478 0.89449 0.01788 0.0
H1420 H 0.54079 0.89208 0.8899 0.0
H1421 H 0.55214 0.84658 0.89937 0.0
H1422 H 0.533 0.84925 0.91843 0.0
H1423 H 0.55 0.85518 0.94198 0.0
C1424 C 0.52139 0.87347 0.00126 0.0
C1425 C 0.52908 0.88217 0.02116 0.0
C1426 C 0.52572 0.87074 0.96355 0.0
C1427 C 0.53814 0.8764 0.94526 0.0
C1428 C 0.54623 0.88482 0.96571 0.0
H1429 H 0.55123 0.85133 0.70888 0.0
H1430 H 0.55818 0.85686 0.77483 0.0
C1431 C 0.54169 0.88773 0.00323 0.0
C1432 C 0.54141 0.87434 0.90364 0.0
H1433 H 0.54302 0.85335 0.83648 0.0
C1434 C 0.54164 0.8836 0.87835 0.0
C1435 C 0.54301 0.86334 0.88824 0.0
C1436 C 0.54472 0.85306 0.9136 0.0
C1437 C 0.54224 0.88213 0.83817 0.0
C1438 C 0.54191 0.87108 0.82272 0.0
C1439 C 0.54289 0.86184 0.84805 0.0
C1440 C 0.53918 0.86886 0.78096 0.0
C1441 C 0.54308 0.89247 0.81288 0.0
C1442 C 0.52635 0.87385 0.76207 0.0
C1443 C 0.5226 0.8709 0.72419 0.0
C1444 C 0.53131 0.86262 0.70469 0.0
C1445 C 0.54432 0.85775 0.72321 0.0
C1446 C 0.54828 0.86089 0.76092 0.0
H1447 H 0.5497 0.89932 0.82746 0.0
H1448 H 0.54879 0.89064 0.78477 0.0
H1449 H 0.53105 0.89566 0.80748 0.0
H1450 H 0.51876 0.8797 0.77714 0.0
H1451 H 0.51234 0.87467 0.71098 0.0
H1452 H 0.24695 0.89626 0.7281 0.0
H1453 H 0.2419 0.89163 0.79591 0.0
H1454 H 0.28189 0.86931 0.79601 0.0
H1455 H 0.28642 0.87341 0.72803 0.0
H1456 H 0.25985 0.8604 0.83641 0.0
H1457 H 0.26584 0.90494 0.88286 0.0
H1458 H 0.24997 0.90275 0.84977 0.0
H1459 H 0.26987 0.90048 0.83416 0.0
C1460 C 0.25449 0.89023 0.74253 0.0
C1461 C 0.26711 0.88523 0.72283 0.0
C1462 C 0.25171 0.88769 0.7814 0.0
C1463 C 0.2618 0.88038 0.80151 0.0
C1464 C 0.27398 0.87503 0.78129 0.0
H1465 H 0.28408 0.87751 0.04301 0.0
H1466 H 0.28063 0.88246 0.97494 0.0
C1467 C 0.27655 0.87736 0.74231 0.0
C1468 C 0.26008 0.87842 0.84372 0.0
H1469 H 0.25953 0.8917 0.93125 0.0
C1470 C 0.25974 0.86725 0.85714 0.0
C1471 C 0.26016 0.88736 0.87087 0.0
C1472 C 0.26164 0.89955 0.85878 0.0
C1473 C 0.25991 0.86474 0.89672 0.0
C1474 C 0.25962 0.87368 0.92389 0.0
C1475 C 0.25958 0.88485 0.91049 0.0
C1476 C 0.2605 0.87161 0.96619 0.0
C1477 C 0.26124 0.85253 0.90875 0.0
C1478 C 0.24997 0.86423 0.98446 0.0
C1479 C 0.25218 0.8612 0.02305 0.0
C1480 C 0.2646 0.86582 0.04449 0.0
C1481 C 0.27437 0.87387 0.02716 0.0
C1482 C 0.27241 0.87668 0.98824 0.0
H1483 H 0.26593 0.84719 0.88507 0.0
H1484 H 0.26901 0.85156 0.93425 0.0
H1485 H 0.24944 0.84928 0.91628 0.0
H1486 H 0.24033 0.86054 0.96857 0.0
H1487 H 0.24439 0.85504 0.0359 0.0
H1488 H 0.4889 0.64434 0.78133 0.0
H1489 H 0.4818 0.63909 0.71521 0.0
H1490 H 0.51987 0.61509 0.71321 0.0
H1491 H 0.52636 0.61983 0.77961 0.0
H1492 H 0.49728 0.64233 0.65425 0.0
H1493 H 0.48824 0.59654 0.66113 0.0
H1494 H 0.48949 0.60502 0.70422 0.0
H1495 H 0.50703 0.59963 0.68151 0.0
C1496 C 0.49544 0.63771 0.76705 0.0
C1497 C 0.50811 0.63243 0.7857 0.0
C1498 C 0.49141 0.63474 0.72923 0.0
C1499 C 0.50012 0.62654 0.70918 0.0
C1500 C 0.51257 0.62112 0.72825 0.0
H1501 H 0.52787 0.62644 0.47561 0.0
H1502 H 0.52084 0.63101 0.54182 0.0
C1503 C 0.51636 0.6239 0.76628 0.0
C1504 C 0.49745 0.62454 0.66725 0.0
H1505 H 0.49764 0.60378 0.59915 0.0
C1506 C 0.49699 0.63388 0.64231 0.0
C1507 C 0.4966 0.61356 0.6513 0.0
C1508 C 0.49517 0.60316 0.67611 0.0
C1509 C 0.49685 0.63255 0.60206 0.0
C1510 C 0.49791 0.62157 0.58618 0.0
C1511 C 0.4972 0.61223 0.61107 0.0
C1512 C 0.50104 0.61958 0.54444 0.0
C1513 C 0.49567 0.64296 0.57716 0.0
C1514 C 0.49252 0.61144 0.52373 0.0
C1515 C 0.49685 0.60857 0.48602 0.0
C1516 C 0.50965 0.61389 0.46816 0.0
C1517 C 0.51778 0.62233 0.48832 0.0
C1518 C 0.51367 0.62502 0.52622 0.0
H1519 H 0.48859 0.64958 0.59169 0.0
H1520 H 0.50757 0.64647 0.57251 0.0
H1521 H 0.49029 0.64109 0.5487 0.0
H1522 H 0.48277 0.60708 0.5371 0.0
H1523 H 0.4904 0.60201 0.47117 0.0
H1524 H 0.79815 0.60161 0.78155 0.0
H1525 H 0.80477 0.60649 0.71483 0.0
H1526 H 0.76709 0.63079 0.71322 0.0
H1527 H 0.76096 0.62634 0.78016 0.0
H1528 H 0.78815 0.60316 0.65451 0.0
H1529 H 0.79937 0.6488 0.65993 0.0
H1530 H 0.79818 0.64036 0.70316 0.0
H1531 H 0.78065 0.64597 0.68112 0.0
C1532 C 0.79157 0.60821 0.7672 0.0
C1533 C 0.77909 0.61364 0.78612 0.0
C1534 C 0.79533 0.61097 0.72905 0.0
C1535 C 0.78659 0.61913 0.70897 0.0
C1536 C 0.77437 0.62474 0.72828 0.0
H1537 H 0.75933 0.62029 0.47387 0.0
H1538 H 0.76553 0.61531 0.54036 0.0
C1539 C 0.7708 0.62214 0.7666 0.0
C1540 C 0.78907 0.62097 0.66692 0.0
H1541 H 0.79018 0.64155 0.5982 0.0
C1542 C 0.78892 0.61156 0.64227 0.0
C1543 C 0.79048 0.63187 0.65068 0.0
C1544 C 0.79237 0.64229 0.67525 0.0
C1545 C 0.78915 0.61279 0.60197 0.0
C1546 C 0.7889 0.62375 0.58577 0.0
C1547 C 0.79006 0.63313 0.61041 0.0
C1548 C 0.78632 0.62576 0.54384 0.0
C1549 C 0.7896 0.60231 0.57735 0.0
C1550 C 0.79578 0.63342 0.52347 0.0
C1551 C 0.792 0.6365 0.48562 0.0
C1552 C 0.77878 0.63189 0.46727 0.0
C1553 C 0.76974 0.62385 0.48699 0.0
C1554 C 0.77334 0.62094 0.52506 0.0
H1555 H 0.79594 0.59539 0.59232 0.0
H1556 H 0.77744 0.59936 0.57208 0.0
H1557 H 0.79537 0.60388 0.54914 0.0
H1558 H 0.80582 0.63729 0.53727 0.0
H1559 H 0.79917 0.64273 0.47112 0.0
H1560 H 0.55181 0.35192 0.21216 0.0
H1561 H 0.55721 0.35681 0.27961 0.0
H1562 H 0.51861 0.38036 0.27812 0.0
H1563 H 0.51382 0.37601 0.21041 0.0
H1564 H 0.54084 0.38856 0.31991 0.0
H1565 H 0.532 0.34412 0.36513 0.0
H1566 H 0.54824 0.34598 0.33292 0.0
H1567 H 0.52859 0.34876 0.31637 0.0
C1568 C 0.5447 0.35831 0.22612 0.0
C1569 C 0.53235 0.36355 0.2061 0.0
C1570 C 0.54767 0.36099 0.26479 0.0
C1571 C 0.538 0.36868 0.28445 0.0
C1572 C 0.5262 0.37434 0.26378 0.0
H1573 H 0.51009 0.37123 0.51986 0.0
H1574 H 0.51583 0.36665 0.45276 0.0
C1575 C 0.52348 0.37187 0.22495 0.0
C1576 C 0.53952 0.37055 0.32681 0.0
H1577 H 0.53799 0.35714 0.41406 0.0
C1578 C 0.54029 0.38168 0.34051 0.0
C1579 C 0.53862 0.36158 0.35378 0.0
C1580 C 0.53667 0.34945 0.3414 0.0
C1581 C 0.53958 0.38414 0.38014 0.0
C1582 C 0.53883 0.37516 0.40712 0.0
C1583 C 0.53868 0.36401 0.39346 0.0
C1584 C 0.53658 0.37714 0.44921 0.0
C1585 C 0.53869 0.39635 0.39232 0.0
C1586 C 0.54663 0.38423 0.47025 0.0
C1587 C 0.54315 0.38706 0.50853 0.0
C1588 C 0.52985 0.38255 0.52682 0.0
C1589 C 0.52048 0.3748 0.50666 0.0
C1590 C 0.52374 0.37219 0.46819 0.0
H1591 H 0.53518 0.40192 0.36802 0.0
H1592 H 0.53017 0.39752 0.4162 0.0
H1593 H 0.5504 0.39914 0.40242 0.0
H1594 H 0.55692 0.38784 0.45679 0.0
H1595 H 0.55065 0.39299 0.52354 0.0
H1596 H 0.27698 0.37765 0.51462 0.0
H1597 H 0.27075 0.38244 0.44815 0.0
H1598 H 0.23412 0.35734 0.44734 0.0
H1599 H 0.24101 0.35205 0.51359 0.0
H1600 H 0.25023 0.35474 0.3872 0.0
H1601 H 0.23865 0.40022 0.39467 0.0
H1602 H 0.25739 0.39763 0.41611 0.0
H1603 H 0.23998 0.39168 0.43764 0.0
C1604 C 0.26734 0.37333 0.50067 0.0
C1605 C 0.25945 0.36449 0.51936 0.0
C1606 C 0.26368 0.37615 0.46259 0.0
C1607 C 0.25172 0.37044 0.4427 0.0
C1608 C 0.24335 0.36192 0.462 0.0
H1609 H 0.24364 0.39512 0.20415 0.0
H1610 H 0.23551 0.38992 0.26961 0.0
C1611 C 0.24725 0.35892 0.49989 0.0
C1612 C 0.24933 0.37249 0.40069 0.0
H1613 H 0.24927 0.39343 0.33316 0.0
C1614 C 0.24965 0.36321 0.37548 0.0
C1615 C 0.2481 0.38348 0.38497 0.0
C1616 C 0.24582 0.39378 0.40992 0.0
C1617 C 0.24993 0.36466 0.33528 0.0
C1618 C 0.25065 0.37569 0.31978 0.0
C1619 C 0.24913 0.38495 0.34483 0.0
C1620 C 0.25427 0.37786 0.27839 0.0
C1621 C 0.24958 0.35429 0.31004 0.0
C1622 C 0.26741 0.37277 0.26121 0.0
C1623 C 0.27183 0.37553 0.22359 0.0
C1624 C 0.2635 0.38371 0.20266 0.0
C1625 C 0.25025 0.38875 0.21958 0.0
C1626 C 0.24563 0.3858 0.25701 0.0
H1627 H 0.24263 0.34747 0.32382 0.0
H1628 H 0.24449 0.35611 0.2812 0.0
H1629 H 0.2617 0.35107 0.30627 0.0
H1630 H 0.27468 0.36696 0.27739 0.0
H1631 H 0.28225 0.37164 0.21166 0.0
H1632 H 0.09711 0.09857 0.44513 0.0
H1633 H 0.12343 0.10537 0.4307 0.0
H1634 H 0.10714 0.11863 0.32195 0.0
H1635 H 0.08051 0.11205 0.33671 0.0
H1636 H 0.14323 0.10036 0.36704 0.0
H1637 H 0.12814 0.14601 0.37495 0.0
H1638 H 0.11533 0.13521 0.39369 0.0
H1639 H 0.11677 0.13744 0.34258 0.0
C1640 C 0.09904 0.103 0.41825 0.0
C1641 C 0.08663 0.10488 0.3923 0.0
C1642 C 0.11415 0.10681 0.4099 0.0
C1643 C 0.11721 0.11263 0.37549 0.0
C1644 C 0.10498 0.1143 0.34894 0.0
H1645 H 0.20759 0.14679 0.33127 0.0
H1646 H 0.18147 0.1388 0.31882 0.0
C1647 C 0.0898 0.11044 0.35725 0.0
C1648 C 0.13325 0.11703 0.36832 0.0
H1649 H 0.15467 0.14136 0.36649 0.0
C1650 C 0.14572 0.10932 0.36639 0.0
C1651 C 0.13647 0.12873 0.36722 0.0
C1652 C 0.12353 0.13738 0.36994 0.0
C1653 C 0.16135 0.113 0.36482 0.0
C1654 C 0.16462 0.12468 0.36588 0.0
C1655 C 0.15213 0.1324 0.36573 0.0
C1656 C 0.1808 0.129 0.3715 0.0
C1657 C 0.17426 0.10432 0.36281 0.0
C1658 C 0.18903 0.12618 0.40519 0.0
C1659 C 0.20383 0.13072 0.41233 0.0
C1660 C 0.21076 0.13825 0.38602 0.0
C1661 C 0.20263 0.14095 0.35189 0.0
C1662 C 0.18769 0.13643 0.34485 0.0
H1663 H 0.17003 0.09632 0.3498 0.0
H1664 H 0.18438 0.10745 0.34573 0.0
H1665 H 0.1784 0.10241 0.39248 0.0
H1666 H 0.18384 0.12063 0.42649 0.0
H1667 H 0.20984 0.12836 0.43864 0.0
H1668 H 0.09579 0.15112 0.79683 0.0
H1669 H 0.12222 0.14393 0.80753 0.0
H1670 H 0.10652 0.12669 0.91004 0.0
H1671 H 0.0798 0.13359 0.89885 0.0
H1672 H 0.14226 0.14672 0.87122 0.0
H1673 H 0.12763 0.10153 0.8469 0.0
H1674 H 0.11449 0.11279 0.83338 0.0
H1675 H 0.1164 0.10877 0.88313 0.0
C1676 C 0.09787 0.14572 0.82148 0.0
C1677 C 0.08558 0.14284 0.84672 0.0
C1678 C 0.11304 0.14168 0.82773 0.0
C1679 C 0.11631 0.13465 0.85927 0.0
C1680 C 0.10421 0.13196 0.88515 0.0
H1681 H 0.20696 0.09997 0.89468 0.0
H1682 H 0.18065 0.10749 0.90831 0.0
C1683 C 0.08897 0.13601 0.87893 0.0
C1684 C 0.13242 0.13013 0.86434 0.0
H1685 H 0.15408 0.10594 0.85841 0.0
C1686 C 0.14483 0.13779 0.86886 0.0
C1687 C 0.13576 0.11846 0.86148 0.0
C1688 C 0.12293 0.10988 0.85569 0.0
C1689 C 0.16049 0.13414 0.86938 0.0
C1690 C 0.16386 0.12255 0.86467 0.0
C1691 C 0.15145 0.11482 0.86201 0.0
C1692 C 0.1801 0.11844 0.85836 0.0
C1693 C 0.17333 0.14277 0.8743 0.0
C1694 C 0.18845 0.12207 0.82579 0.0
C1695 C 0.20336 0.1178 0.81797 0.0
C1696 C 0.21027 0.10975 0.84247 0.0
C1697 C 0.202 0.10623 0.87549 0.0
C1698 C 0.18697 0.11048 0.88319 0.0
H1699 H 0.16897 0.15043 0.8893 0.0
H1700 H 0.18334 0.13924 0.89088 0.0
H1701 H 0.17766 0.14536 0.84544 0.0
H1702 H 0.18329 0.12807 0.80589 0.0
H1703 H 0.20947 0.12078 0.79258 0.0
H1704 H 0.85011 0.84072 0.57704 0.0
H1705 H 0.87469 0.85125 0.57831 0.0
H1706 H 0.85603 0.87299 0.66689 0.0
H1707 H 0.83118 0.86251 0.66523 0.0
H1708 H 0.87246 0.88486 0.61362 0.0
H1709 H 0.90787 0.84831 0.66053 0.0
H1710 H 0.89728 0.8453 0.61705 0.0
H1711 H 0.88672 0.84815 0.66101 0.0
C1712 C 0.85124 0.84773 0.59686 0.0
C1713 C 0.83877 0.8507 0.62136 0.0
C1714 C 0.86533 0.85371 0.5977 0.0
C1715 C 0.86742 0.86271 0.6235 0.0
C1716 C 0.85477 0.866 0.64701 0.0
H1717 H 0.96376 0.88759 0.65501 0.0
H1718 H 0.93748 0.88037 0.66907 0.0
C1719 C 0.84056 0.86005 0.64593 0.0
C1720 C 0.88278 0.86865 0.62548 0.0
H1721 H 0.92216 0.86392 0.63391 0.0
C1722 C 0.88331 0.88031 0.61852 0.0
C1723 C 0.89696 0.8628 0.63285 0.0
C1724 C 0.89719 0.85048 0.64371 0.0
C1725 C 0.89766 0.88613 0.61672 0.0
C1726 C 0.9119 0.8801 0.62106 0.0
C1727 C 0.91131 0.86856 0.63002 0.0
C1728 C 0.92752 0.88538 0.61419 0.0
C1729 C 0.89736 0.89871 0.61019 0.0
C1730 C 0.93074 0.89062 0.57876 0.0
C1731 C 0.94567 0.89486 0.57084 0.0
C1732 C 0.95792 0.89381 0.59788 0.0
C1733 C 0.95464 0.88867 0.63362 0.0
C1734 C 0.93961 0.88447 0.64162 0.0
H1735 H 0.88633 0.90249 0.62131 0.0
H1736 H 0.90745 0.90293 0.62438 0.0
H1737 H 0.89791 0.90043 0.57873 0.0
H1738 H 0.92179 0.89119 0.55667 0.0
H1739 H 0.9476 0.89888 0.54324 0.0
H1740 H 0.94348 0.84662 0.19667 0.0
H1741 H 0.91733 0.85459 0.18887 0.0
H1742 H 0.93175 0.87066 0.08309 0.0
H1743 H 0.95822 0.8628 0.09101 0.0
H1744 H 0.91175 0.87875 0.18363 0.0
H1745 H 0.8887 0.85495 0.05713 0.0
H1746 H 0.90466 0.84967 0.08633 0.0
H1747 H 0.90794 0.86112 0.05351 0.0
C1748 C 0.94116 0.85184 0.17169 0.0
C1749 C 0.95305 0.85416 0.14469 0.0
C1750 C 0.92614 0.85633 0.16716 0.0
C1751 C 0.92257 0.86318 0.13537 0.0
C1752 C 0.93421 0.86527 0.1076 0.0
H1753 H 0.83168 0.89779 0.10068 0.0
H1754 H 0.85846 0.89086 0.08914 0.0
C1755 C 0.94933 0.86076 0.11215 0.0
C1756 C 0.90695 0.86868 0.13333 0.0
H1757 H 0.87158 0.86794 0.08687 0.0
C1758 C 0.90302 0.87646 0.16224 0.0
C1759 C 0.89564 0.86577 0.10519 0.0
C1760 C 0.8993 0.85738 0.07377 0.0
C1761 C 0.88796 0.88116 0.1645 0.0
C1762 C 0.87638 0.87783 0.13759 0.0
C1763 C 0.88046 0.87043 0.10758 0.0
C1764 C 0.85976 0.88133 0.14229 0.0
C1765 C 0.88449 0.88956 0.19609 0.0
C1766 C 0.85147 0.87797 0.17529 0.0
C1767 C 0.83627 0.88188 0.18188 0.0
C1768 C 0.82893 0.88921 0.15554 0.0
C1769 C 0.83698 0.89215 0.12151 0.0
C1770 C 0.85229 0.88823 0.11493 0.0
H1771 H 0.89538 0.8936 0.20699 0.0
H1772 H 0.87638 0.89625 0.1858 0.0
H1773 H 0.87884 0.88514 0.22064 0.0
H1774 H 0.85688 0.87245 0.19636 0.0
H1775 H 0.8303 0.8792 0.20787 0.0
H1776 H 0.19211 0.6591 0.92293 0.0
H1777 H 0.16747 0.64859 0.92331 0.0
H1778 H 0.1836 0.62876 0.82677 0.0
H1779 H 0.20852 0.63907 0.82719 0.0
H1780 H 0.1451 0.64702 0.8718 0.0
H1781 H 0.169 0.6042 0.89667 0.0
H1782 H 0.18088 0.61669 0.90109 0.0
H1783 H 0.17694 0.61073 0.85429 0.0
C1784 C 0.19042 0.65246 0.9019 0.0
C1785 C 0.20228 0.64988 0.87512 0.0
C1786 C 0.17633 0.64645 0.90213 0.0
C1787 C 0.17367 0.63775 0.87542 0.0
C1788 C 0.18547 0.6352 0.8484 0.0
H1789 H 0.07929 0.61112 0.82876 0.0
H1790 H 0.10381 0.62191 0.82652 0.0
C1791 C 0.1997 0.64112 0.84854 0.0
C1792 C 0.15839 0.63161 0.8755 0.0
H1793 H 0.142 0.60537 0.8805 0.0
C1794 C 0.14443 0.63791 0.87384 0.0
C1795 C 0.15745 0.61972 0.87864 0.0
C1796 C 0.17185 0.61245 0.88318 0.0
C1797 C 0.12963 0.6327 0.87526 0.0
C1798 C 0.12869 0.62078 0.87715 0.0
C1799 C 0.14265 0.61449 0.87875 0.0
C1800 C 0.11342 0.61464 0.87883 0.0
C1801 C 0.1152 0.64006 0.87599 0.0
C1802 C 0.11068 0.60679 0.90846 0.0
C1803 C 0.09683 0.60049 0.90928 0.0
C1804 C 0.08531 0.60196 0.88072 0.0
C1805 C 0.08785 0.60997 0.8515 0.0
C1806 C 0.10186 0.61616 0.8503 0.0
H1807 H 0.11795 0.64871 0.88622 0.0
H1808 H 0.1104 0.64077 0.84632 0.0
H1809 H 0.10599 0.63645 0.89495 0.0
H1810 H 0.11935 0.60545 0.93087 0.0
H1811 H 0.09514 0.59442 0.93223 0.0
H1812 H 0.09386 0.64839 0.29187 0.0
H1813 H 0.12011 0.64135 0.30574 0.0
H1814 H 0.10366 0.62722 0.413 0.0
H1815 H 0.07706 0.6341 0.39883 0.0
H1816 H 0.13977 0.64582 0.37105 0.0
H1817 H 0.1249 0.60027 0.35651 0.0
H1818 H 0.11221 0.61124 0.33833 0.0
H1819 H 0.11331 0.60859 0.38924 0.0
C1820 C 0.09573 0.64371 0.31829 0.0
C1821 C 0.08328 0.64169 0.344 0.0
C1822 C 0.1108 0.63976 0.32633 0.0
C1823 C 0.11382 0.63364 0.36016 0.0
C1824 C 0.10154 0.6318 0.38645 0.0
H1825 H 0.20458 0.59897 0.3976 0.0
H1826 H 0.1784 0.60663 0.41196 0.0
C1827 C 0.08639 0.63581 0.37848 0.0
C1828 C 0.12987 0.62917 0.36699 0.0
H1829 H 0.15144 0.60488 0.36472 0.0
C1830 C 0.1423 0.63686 0.37025 0.0
C1831 C 0.13316 0.61747 0.36622 0.0
C1832 C 0.12026 0.60886 0.36218 0.0
C1833 C 0.15796 0.63319 0.37122 0.0
C1834 C 0.16131 0.62154 0.3681 0.0
C1835 C 0.14886 0.61381 0.36702 0.0
C1836 C 0.17753 0.61736 0.36146 0.0
C1837 C 0.17081 0.64187 0.37477 0.0
C1838 C 0.18569 0.62081 0.32836 0.0
C1839 C 0.20052 0.61646 0.32015 0.0
C1840 C 0.20758 0.60849 0.34474 0.0
C1841 C 0.19952 0.60516 0.3783 0.0
C1842 C 0.18455 0.60949 0.38642 0.0
H1843 H 0.16654 0.64961 0.38947 0.0
H1844 H 0.181 0.63848 0.39101 0.0
H1845 H 0.17483 0.64431 0.34547 0.0
H1846 H 0.18042 0.62671 0.30829 0.0
H1847 H 0.20646 0.61931 0.29433 0.0
H1848 H 0.9473 0.40069 0.04507 0.0
H1849 H 0.9215 0.39245 0.05577 0.0
H1850 H 0.93819 0.37661 0.15997 0.0
H1851 H 0.96432 0.38476 0.14912 0.0
H1852 H 0.9171 0.36791 0.06234 0.0
H1853 H 0.89487 0.39202 0.18917 0.0
H1854 H 0.90997 0.39758 0.15794 0.0
H1855 H 0.91448 0.38636 0.19077 0.0
C1856 C 0.94554 0.39548 0.07033 0.0
C1857 C 0.95795 0.39329 0.09599 0.0
C1858 C 0.93074 0.39083 0.07652 0.0
C1859 C 0.92793 0.38394 0.10866 0.0
C1860 C 0.94009 0.38201 0.1352 0.0
H1861 H 0.83755 0.34864 0.14533 0.0
H1862 H 0.86442 0.35539 0.15712 0.0
C1863 C 0.95499 0.38668 0.12898 0.0
C1864 C 0.91254 0.37822 0.11222 0.0
H1865 H 0.87752 0.37908 0.16012 0.0
C1866 C 0.90852 0.37025 0.08404 0.0
C1867 C 0.90144 0.38121 0.14074 0.0
C1868 C 0.90526 0.38979 0.17142 0.0
C1869 C 0.89349 0.36549 0.08269 0.0
C1870 C 0.88208 0.36894 0.10984 0.0
C1871 C 0.8863 0.37649 0.13928 0.0
C1872 C 0.86543 0.36558 0.1054 0.0
C1873 C 0.8898 0.357 0.05155 0.0
C1874 C 0.85701 0.36936 0.07316 0.0
C1875 C 0.84178 0.36557 0.06645 0.0
C1876 C 0.83457 0.35792 0.09188 0.0
C1877 C 0.84277 0.35453 0.12523 0.0
C1878 C 0.85811 0.35835 0.13195 0.0
H1879 H 0.90061 0.35303 0.03994 0.0
H1880 H 0.88192 0.35029 0.06262 0.0
H1881 H 0.88374 0.36133 0.02735 0.0
H1882 H 0.86236 0.3751 0.05271 0.0
H1883 H 0.83569 0.36858 0.04106 0.0
H1884 H 0.96389 0.36251 0.58465 0.0
H1885 H 0.93796 0.37103 0.57404 0.0
H1886 H 0.92109 0.35559 0.67867 0.0
H1887 H 0.94665 0.34689 0.68905 0.0
H1888 H 0.90454 0.35916 0.57614 0.0
H1889 H 0.91636 0.39182 0.68743 0.0
H1890 H 0.93184 0.38453 0.66201 0.0
H1891 H 0.92146 0.37758 0.70027 0.0
C1892 C 0.95459 0.36077 0.60502 0.0
C1893 C 0.95744 0.35413 0.63801 0.0
C1894 C 0.93981 0.36567 0.59896 0.0
C1895 C 0.92771 0.36401 0.62582 0.0
C1896 C 0.93034 0.35705 0.65784 0.0
H1897 H 0.83707 0.38457 0.69404 0.0
H1898 H 0.86335 0.37705 0.68416 0.0
C1899 C 0.94502 0.35216 0.66385 0.0
C1900 C 0.91249 0.36993 0.62207 0.0
H1901 H 0.88999 0.3898 0.66685 0.0
C1902 C 0.90137 0.36599 0.59544 0.0
C1903 C 0.90847 0.37882 0.64734 0.0
C1904 C 0.92016 0.38354 0.67575 0.0
C1905 C 0.88601 0.37035 0.59485 0.0
C1906 C 0.88182 0.37895 0.62127 0.0
C1907 C 0.89319 0.38318 0.64671 0.0
C1908 C 0.86546 0.38308 0.62546 0.0
C1909 C 0.87417 0.36536 0.56742 0.0
C1910 C 0.85782 0.38892 0.59559 0.0
C1911 C 0.8427 0.39329 0.60124 0.0
C1912 C 0.83506 0.39198 0.63698 0.0
C1913 C 0.8427 0.38594 0.66645 0.0
C1914 C 0.85771 0.38157 0.66077 0.0
H1915 H 0.8785 0.35747 0.55384 0.0
H1916 H 0.863 0.36353 0.58267 0.0
H1917 H 0.87162 0.37153 0.54415 0.0
H1918 H 0.86368 0.39034 0.5683 0.0
H1919 H 0.83719 0.39798 0.5781 0.0
H1920 H 0.59611 0.09843 0.94355 0.0
H1921 H 0.62209 0.10607 0.93097 0.0
H1922 H 0.6058 0.11988 0.82301 0.0
H1923 H 0.57943 0.11253 0.8361 0.0
H1924 H 0.6427 0.10225 0.87042 0.0
H1925 H 0.62484 0.14739 0.87699 0.0
H1926 H 0.61223 0.13616 0.89347 0.0
H1927 H 0.61462 0.13871 0.84272 0.0
C1928 C 0.59794 0.10317 0.91726 0.0
C1929 C 0.58558 0.105 0.89112 0.0
C1930 C 0.61288 0.10746 0.90995 0.0
C1931 C 0.61585 0.1137 0.87635 0.0
C1932 C 0.6037 0.11526 0.84948 0.0
H1933 H 0.70548 0.14922 0.83452 0.0
H1934 H 0.67968 0.14075 0.82179 0.0
C1935 C 0.58868 0.11096 0.85681 0.0
C1936 C 0.63169 0.1186 0.87037 0.0
H1937 H 0.65169 0.14357 0.8694 0.0
C1938 C 0.64465 0.11129 0.8697 0.0
C1939 C 0.63423 0.13039 0.86926 0.0
C1940 C 0.6208 0.13866 0.8709 0.0
C1941 C 0.66005 0.11544 0.86938 0.0
C1942 C 0.66259 0.12721 0.87017 0.0
C1943 C 0.64968 0.13454 0.86881 0.0
C1944 C 0.67843 0.13202 0.87655 0.0
C1945 C 0.67352 0.10719 0.86908 0.0
C1946 C 0.68618 0.12998 0.91156 0.0
C1947 C 0.70078 0.13482 0.91891 0.0
C1948 C 0.70799 0.14183 0.8914 0.0
C1949 C 0.70029 0.14379 0.8561 0.0
C1950 C 0.68554 0.139 0.84888 0.0
H1951 H 0.6699 0.09886 0.85742 0.0
H1952 H 0.68346 0.11044 0.85163 0.0
H1953 H 0.67771 0.1059 0.89909 0.0
H1954 H 0.68081 0.12475 0.93352 0.0
H1955 H 0.70647 0.13303 0.94616 0.0
H1956 H 0.6982 0.09892 0.29724 0.0
H1957 H 0.67175 0.10553 0.31134 0.0
H1958 H 0.68776 0.11934 0.41948 0.0
H1959 H 0.71453 0.11292 0.40505 0.0
H1960 H 0.65198 0.10066 0.37558 0.0
H1961 H 0.66641 0.14636 0.36446 0.0
H1962 H 0.67934 0.13555 0.34624 0.0
H1963 H 0.67793 0.13799 0.39723 0.0
C1964 C 0.69617 0.10342 0.32392 0.0
C1965 C 0.70855 0.10551 0.34979 0.0
C1966 C 0.681 0.10712 0.33209 0.0
C1967 C 0.67781 0.11305 0.36621 0.0
C1968 C 0.69001 0.11491 0.39271 0.0
H1969 H 0.58686 0.14704 0.40568 0.0
H1970 H 0.61301 0.13927 0.41967 0.0
C1971 C 0.70526 0.11116 0.3846 0.0
C1972 C 0.66171 0.11738 0.37306 0.0
H1973 H 0.63993 0.14157 0.37261 0.0
C1974 C 0.64935 0.10961 0.3755 0.0
C1975 C 0.65832 0.12906 0.37319 0.0
C1976 C 0.67113 0.13777 0.36992 0.0
C1977 C 0.63366 0.11318 0.37659 0.0
C1978 C 0.63022 0.12484 0.37448 0.0
C1979 C 0.6426 0.13264 0.37418 0.0
C1980 C 0.614 0.12901 0.3681 0.0
C1981 C 0.62088 0.10443 0.37917 0.0
C1982 C 0.60594 0.12584 0.33453 0.0
C1983 C 0.59113 0.13026 0.32653 0.0
C1984 C 0.58402 0.138 0.35181 0.0
C1985 C 0.59197 0.14103 0.38585 0.0
C1986 C 0.60692 0.13664 0.39376 0.0
H1987 H 0.6252 0.09658 0.39311 0.0
H1988 H 0.61065 0.10763 0.39568 0.0
H1989 H 0.6169 0.10224 0.34962 0.0
H1990 H 0.61127 0.12013 0.31395 0.0
H1991 H 0.58526 0.12765 0.30031 0.0
H1992 H 0.34265 0.84193 0.0517 0.0
H1993 H 0.36772 0.85198 0.05276 0.0
H1994 H 0.35127 0.87251 0.14707 0.0
H1995 H 0.32611 0.86243 0.14626 0.0
H1996 H 0.37207 0.87764 0.04837 0.0
H1997 H 0.3947 0.85698 0.18179 0.0
H1998 H 0.37974 0.8505 0.15227 0.0
H1999 H 0.37498 0.86246 0.18162 0.0
C2000 C 0.34437 0.84857 0.07268 0.0
C2001 C 0.33242 0.85136 0.09896 0.0
C2002 C 0.35866 0.85433 0.07316 0.0
C2003 C 0.36138 0.8629 0.10021 0.0
C2004 C 0.34942 0.86586 0.12614 0.0
H2005 H 0.4515 0.89752 0.13948 0.0
H2006 H 0.42446 0.89075 0.1476 0.0
C2007 C 0.33502 0.86016 0.12543 0.0
C2008 C 0.37681 0.86865 0.10103 0.0
H2009 H 0.41173 0.86937 0.14936 0.0
C2010 C 0.38071 0.87592 0.0706 0.0
C2011 C 0.38797 0.86646 0.13028 0.0
C2012 C 0.38428 0.85865 0.1634 0.0
C2013 C 0.39561 0.8809 0.0682 0.0
C2014 C 0.40709 0.87828 0.09641 0.0
C2015 C 0.40298 0.87132 0.12764 0.0
C2016 C 0.42362 0.88213 0.09257 0.0
C2017 C 0.39889 0.88894 0.03542 0.0
C2018 C 0.43229 0.87925 0.05961 0.0
C2019 C 0.44763 0.8831 0.05493 0.0
C2020 C 0.45478 0.88983 0.08333 0.0
C2021 C 0.44633 0.89234 0.11713 0.0
C2022 C 0.43087 0.88852 0.1217 0.0
H2023 H 0.38792 0.89286 0.02446 0.0
H2024 H 0.40705 0.89574 0.04443 0.0
H2025 H 0.40433 0.88423 0.0112 0.0
H2026 H 0.42716 0.87401 0.03733 0.0
H2027 H 0.45393 0.88077 0.02903 0.0
H2028 H 0.46665 0.86598 0.60086 0.0
H2029 H 0.44073 0.87501 0.59665 0.0
H2030 H 0.42152 0.84924 0.67071 0.0
H2031 H 0.44743 0.84053 0.67604 0.0
H2032 H 0.41172 0.86915 0.57322 0.0
H2033 H 0.41053 0.87697 0.73057 0.0
H2034 H 0.42785 0.872 0.70612 0.0
H2035 H 0.41262 0.86227 0.71988 0.0
C2036 C 0.45682 0.86221 0.61583 0.0
C2037 C 0.45905 0.85267 0.63924 0.0
C2038 C 0.44203 0.86737 0.61351 0.0
C2039 C 0.42924 0.863 0.63428 0.0
C2040 C 0.43129 0.85301 0.65551 0.0
H2041 H 0.33026 0.88126 0.61089 0.0
H2042 H 0.35636 0.87292 0.60212 0.0
C2043 C 0.44607 0.848 0.65839 0.0
C2044 C 0.41391 0.86903 0.63514 0.0
H2045 H 0.38649 0.87968 0.69702 0.0
C2046 C 0.40623 0.87153 0.60026 0.0
C2047 C 0.40686 0.87237 0.67036 0.0
C2048 C 0.41497 0.87088 0.7088 0.0
C2049 C 0.39158 0.87702 0.59971 0.0
C2050 C 0.38417 0.87981 0.63508 0.0
C2051 C 0.39202 0.87747 0.66984 0.0
C2052 C 0.36843 0.88529 0.63726 0.0
C2053 C 0.3844 0.87998 0.56121 0.0
C2054 C 0.36635 0.89492 0.66036 0.0
C2055 C 0.35142 0.89947 0.66615 0.0
C2056 C 0.33822 0.89462 0.64856 0.0
C2057 C 0.34029 0.88523 0.62435 0.0
C2058 C 0.35523 0.88052 0.61917 0.0
H2059 H 0.39349 0.8807 0.53836 0.0
H2060 H 0.37618 0.8732 0.5525 0.0
H2061 H 0.37783 0.88805 0.56266 0.0
H2062 H 0.37627 0.8988 0.67462 0.0
H2063 H 0.35014 0.90676 0.6847 0.0
H2064 H 0.59528 0.59349 0.43672 0.0
H2065 H 0.62148 0.60145 0.42811 0.0
H2066 H 0.60264 0.62636 0.35003 0.0
H2067 H 0.57638 0.61803 0.35752 0.0
H2068 H 0.63127 0.61945 0.32644 0.0
H2069 H 0.63394 0.62991 0.48187 0.0
H2070 H 0.63118 0.6151 0.47429 0.0
H2071 H 0.61625 0.62492 0.45917 0.0
C2072 C 0.59678 0.60061 0.4175 0.0
C2073 C 0.58382 0.60526 0.39819 0.0
C2074 C 0.61173 0.60519 0.41272 0.0
C2075 C 0.61399 0.61474 0.38939 0.0
C2076 C 0.60118 0.61906 0.36848 0.0
H2077 H 0.69526 0.65702 0.43013 0.0
H2078 H 0.66865 0.64986 0.4208 0.0
C2079 C 0.58621 0.61431 0.3727 0.0
C2080 C 0.62954 0.62044 0.38836 0.0
H2081 H 0.65783 0.63144 0.44694 0.0
C2082 C 0.63705 0.62216 0.35274 0.0
C2083 C 0.63698 0.6242 0.42257 0.0
C2084 C 0.6291 0.62356 0.46155 0.0
C2085 C 0.65193 0.62729 0.35052 0.0
C2086 C 0.6597 0.6305 0.38498 0.0
C2087 C 0.65202 0.62892 0.42045 0.0
C2088 C 0.67568 0.63563 0.38556 0.0
C2089 C 0.65895 0.62942 0.31124 0.0
C2090 C 0.68857 0.63025 0.36809 0.0
C2091 C 0.70378 0.63454 0.3727 0.0
C2092 C 0.70639 0.6441 0.39573 0.0
C2093 C 0.6935 0.64961 0.41238 0.0
C2094 C 0.67832 0.6455 0.40707 0.0
H2095 H 0.64973 0.62999 0.28864 0.0
H2096 H 0.66591 0.63732 0.31084 0.0
H2097 H 0.66679 0.6223 0.30356 0.0
H2098 H 0.687 0.62247 0.35226 0.0
H2099 H 0.7136 0.63008 0.36005 0.0
H2100 H 0.59294 0.64822 0.8007 0.0
H2101 H 0.61919 0.64096 0.81292 0.0
H2102 H 0.60361 0.627 0.92123 0.0
H2103 H 0.577 0.634 0.90857 0.0
H2104 H 0.63982 0.64521 0.87337 0.0
H2105 H 0.62374 0.59976 0.86758 0.0
H2106 H 0.61071 0.61072 0.85083 0.0
H2107 H 0.61314 0.60828 0.90163 0.0
C2108 C 0.59499 0.64352 0.82699 0.0
C2109 C 0.58274 0.64158 0.85338 0.0
C2110 C 0.61008 0.63944 0.83409 0.0
C2111 C 0.61336 0.63328 0.8677 0.0
C2112 C 0.60131 0.63156 0.89475 0.0
H2113 H 0.70396 0.59894 0.91178 0.0
H2114 H 0.67779 0.60703 0.92348 0.0
C2115 C 0.58613 0.63567 0.88766 0.0
C2116 C 0.62943 0.62867 0.87366 0.0
H2117 H 0.65042 0.60409 0.87581 0.0
C2118 C 0.64211 0.63622 0.87435 0.0
C2119 C 0.63245 0.61693 0.87513 0.0
C2120 C 0.61935 0.60841 0.8735 0.0
C2121 C 0.65769 0.63236 0.87524 0.0
C2122 C 0.66073 0.62063 0.8749 0.0
C2123 C 0.64807 0.61308 0.87607 0.0
C2124 C 0.67684 0.6161 0.86932 0.0
C2125 C 0.6708 0.64089 0.87587 0.0
C2126 C 0.68493 0.61846 0.83503 0.0
C2127 C 0.69975 0.61385 0.8283 0.0
C2128 C 0.70687 0.60673 0.85566 0.0
C2129 C 0.69885 0.60447 0.89031 0.0
C2130 C 0.68389 0.60904 0.89693 0.0
H2131 H 0.66681 0.6491 0.88781 0.0
H2132 H 0.68088 0.63781 0.89325 0.0
H2133 H 0.67493 0.64237 0.84593 0.0
H2134 H 0.67965 0.62374 0.81305 0.0
H2135 H 0.70565 0.61588 0.80153 0.0
H2136 H 0.46286 0.38467 0.64361 0.0
H2137 H 0.43654 0.3766 0.65209 0.0
H2138 H 0.42133 0.39283 0.54723 0.0
H2139 H 0.44731 0.40103 0.5389 0.0
H2140 H 0.40444 0.38803 0.65194 0.0
H2141 H 0.41434 0.35779 0.53212 0.0
H2142 H 0.43022 0.36469 0.55726 0.0
H2143 H 0.41927 0.37217 0.52106 0.0
C2144 C 0.45384 0.38666 0.62273 0.0
C2145 C 0.45728 0.39337 0.59024 0.0
C2146 C 0.43884 0.38202 0.62755 0.0
C2147 C 0.4271 0.38399 0.59995 0.0
C2148 C 0.43031 0.39106 0.56852 0.0
H2149 H 0.33497 0.36732 0.53061 0.0
H2150 H 0.3615 0.37422 0.54161 0.0
C2151 C 0.44521 0.39569 0.56371 0.0
C2152 C 0.41162 0.37836 0.60246 0.0
H2153 H 0.38798 0.36022 0.55295 0.0
C2154 C 0.40086 0.38181 0.63077 0.0
C2155 C 0.40706 0.37023 0.57484 0.0
C2156 C 0.41835 0.3659 0.54476 0.0
C2157 C 0.38533 0.37777 0.63079 0.0
C2158 C 0.3806 0.37001 0.60204 0.0
C2159 C 0.3916 0.36622 0.57484 0.0
C2160 C 0.36407 0.36631 0.59751 0.0
C2161 C 0.37391 0.38222 0.6603 0.0
C2162 C 0.35661 0.35962 0.62548 0.0
C2163 C 0.34136 0.35559 0.61915 0.0
C2164 C 0.33339 0.35812 0.5846 0.0
C2165 C 0.34084 0.36503 0.55717 0.0
C2166 C 0.35599 0.36904 0.56352 0.0
H2167 H 0.37871 0.38953 0.67643 0.0
H2168 H 0.36277 0.38479 0.64617 0.0
H2169 H 0.37114 0.37545 0.68134 0.0
H2170 H 0.36272 0.35727 0.65168 0.0
H2171 H 0.33602 0.35022 0.64069 0.0
H2172 H 0.3381 0.39734 0.07825 0.0
H2173 H 0.3642 0.38917 0.06772 0.0
H2174 H 0.36437 0.37656 0.18445 0.0
H2175 H 0.33831 0.38446 0.19491 0.0
H2176 H 0.39193 0.39408 0.10976 0.0
H2177 H 0.37662 0.34878 0.11991 0.0
H2178 H 0.36212 0.35964 0.11169 0.0
H2179 H 0.36935 0.35699 0.15962 0.0
C2180 C 0.34362 0.3927 0.10148 0.0
C2181 C 0.33611 0.39157 0.13745 0.0
C2182 C 0.35855 0.38808 0.09547 0.0
C2183 C 0.36613 0.38213 0.12513 0.0
C2184 C 0.35863 0.38095 0.16094 0.0
H2185 H 0.45974 0.36795 0.18843 0.0
H2186 H 0.43349 0.3754 0.17638 0.0
C2187 C 0.34379 0.3856 0.16702 0.0
C2188 C 0.38219 0.37758 0.11965 0.0
H2189 H 0.40383 0.35344 0.12751 0.0
C2190 C 0.39452 0.38517 0.11302 0.0
C2191 C 0.38553 0.36595 0.12345 0.0
C2192 C 0.37269 0.35734 0.12868 0.0
C2193 C 0.41018 0.3815 0.11225 0.0
C2194 C 0.41357 0.36997 0.1185 0.0
C2195 C 0.4012 0.3623 0.12299 0.0
C2196 C 0.42986 0.36589 0.12389 0.0
C2197 C 0.42302 0.39002 0.10556 0.0
C2198 C 0.43651 0.358 0.09846 0.0
C2199 C 0.45159 0.35372 0.10529 0.0
C2200 C 0.46009 0.35711 0.13808 0.0
C2201 C 0.45341 0.36509 0.16318 0.0
C2202 C 0.43847 0.36944 0.15613 0.0
H2203 H 0.4185 0.39772 0.09104 0.0
H2204 H 0.42806 0.39256 0.13378 0.0
H2205 H 0.43258 0.38637 0.08775 0.0
H2206 H 0.42998 0.35509 0.07356 0.0
H2207 H 0.4564 0.34752 0.08568 0.0
H2208 H 0.04539 0.95294 0.531 0.0
H2209 H 0.04689 0.97304 0.51557 0.0
H2210 H 0.99681 0.97398 0.49874 0.0
H2211 H 0.9952 0.95386 0.51397 0.0
H2212 H 0.03672 0.98596 0.45054 0.0
H2213 H 1.00501 0.99728 0.58522 0.0
H2214 H 1.01315 0.98343 0.57705 0.0
H2215 H 0.99499 0.98743 0.55457 0.0
C2216 C 0.03475 0.95736 0.52311 0.0
C2217 C 1.02015 0.95186 0.52398 0.0
C2218 C 0.03561 0.96885 0.51459 0.0
C2219 C 0.02192 0.975 0.50692 0.0
C2220 C 1.00746 0.9694 0.50549 0.0
H2221 H 1.00135 0.04494 0.46081 0.0
H2222 H 1.00026 0.02485 0.47649 0.0
C2223 C 1.00657 0.95793 0.51405 0.0
C2224 C 0.02269 0.98735 0.50191 0.0
H2225 H 1.01067 0.0122 0.54192 0.0
C2226 C 0.03109 0.99172 0.47054 0.0
C2227 C 1.01534 0.99479 0.52824 0.0
C2228 C 1.00672 0.99054 0.56338 0.0
C2229 C 0.03208 0.00338 0.46427 0.0
C2230 C 0.0247 0.01081 0.49053 0.0
C2231 C 1.01633 0.00645 0.52196 0.0
C2232 C 0.02526 0.02316 0.48524 0.0
C2233 C 0.04069 0.00764 0.42912 0.0
C2234 C 0.03961 0.0289 0.48659 0.0
C2235 C 0.04027 0.04038 0.47792 0.0
C2236 C 0.02656 0.0463 0.46792 0.0
C2237 C 1.01209 0.04064 0.46878 0.0
C2238 C 1.01145 0.02915 0.47744 0.0
H2239 H 0.04256 0.00086 0.40744 0.0
H2240 H 0.03416 0.01465 0.41524 0.0
H2241 H 0.05235 0.01087 0.43799 0.0
H2242 H 0.05035 0.02444 0.49343 0.0
H2243 H 0.05155 0.04457 0.47801 0.0
H2244 H 0.27271 0.19885 0.50724 0.0
H2245 H 0.27395 0.21881 0.52582 0.0
H2246 H 0.262 0.2285 0.40948 0.0
H2247 H 0.2609 0.20873 0.39064 0.0
H2248 H 0.2934 0.23582 0.49278 0.0
H2249 H 0.2302 0.24595 0.47594 0.0
H2250 H 0.23738 0.23166 0.47962 0.0
H2251 H 0.23885 0.23919 0.43473 0.0
C2252 C 0.27033 0.20525 0.48571 0.0
C2253 C 0.26648 0.20222 0.44764 0.0
C2254 C 0.27099 0.21662 0.49635 0.0
C2255 C 0.26775 0.22508 0.46914 0.0
C2256 C 0.26411 0.22207 0.43111 0.0
H2257 H 0.2688 0.29839 0.46814 0.0
H2258 H 0.26709 0.27838 0.45032 0.0
C2259 C 0.26346 0.21077 0.42046 0.0
C2260 C 0.26878 0.2371 0.47984 0.0
H2261 H 0.24754 0.26147 0.48384 0.0
C2262 C 0.28337 0.24142 0.49114 0.0
C2263 C 0.25566 0.24437 0.47729 0.0
C2264 C 0.2396 0.24006 0.46657 0.0
C2265 C 0.28527 0.25291 0.49936 0.0
C2266 C 0.27216 0.26018 0.49678 0.0
C2267 C 0.25756 0.25586 0.48552 0.0
C2268 C 0.27324 0.27223 0.50717 0.0
C2269 C 0.30134 0.25722 0.51002 0.0
C2270 C 0.27698 0.27531 0.54507 0.0
C2271 C 0.27792 0.28664 0.55527 0.0
C2272 C 0.27509 0.29514 0.52777 0.0
C2273 C 0.27106 0.29203 0.4899 0.0
C2274 C 0.27012 0.28064 0.47969 0.0
H2275 H 0.31073 0.25131 0.50077 0.0
H2276 H 0.30358 0.2656 0.49681 0.0
H2277 H 0.30209 0.25814 0.54184 0.0
H2278 H 0.27901 0.26893 0.5669 0.0
H2279 H 0.28062 0.28875 0.58496 0.0
H2280 H 0.0221 0.29837 0.76101 0.0
H2281 H 0.02377 0.27872 0.78322 0.0
H2282 H 1.01718 0.26715 0.66633 0.0
H2283 H 1.01587 0.28662 0.64391 0.0
H2284 H 1.00026 0.26156 0.77299 0.0
H2285 H 0.05673 0.25024 0.70327 0.0
H2286 H 0.05066 0.26467 0.71072 0.0
H2287 H 0.04268 0.25663 0.6714 0.0
C2288 C 0.02117 0.29162 0.7401 0.0
C2289 C 1.01877 0.29401 0.7008 0.0
C2290 C 0.02205 0.28044 0.75279 0.0
C2291 C 1.02077 0.27154 0.72628 0.0
C2292 C 1.01842 0.27392 0.68711 0.0
H2293 H 1.01978 0.19854 0.73615 0.0
H2294 H 1.01829 0.21837 0.71617 0.0
C2295 C 1.01749 0.28504 0.67445 0.0
C2296 C 0.02135 0.25972 0.73944 0.0
H2297 H 0.04158 0.23511 0.72848 0.0
C2298 C 1.00935 0.25578 0.76359 0.0
C2299 C 0.03318 0.25223 0.72678 0.0
C2300 C 0.04663 0.25615 0.70188 0.0
C2301 C 1.00868 0.24443 0.77481 0.0
C2302 C 1.02047 0.23693 0.76198 0.0
C2303 C 0.03252 0.24089 0.73801 0.0
C2304 C 1.02079 0.225 0.77403 0.0
C2305 C 0.99518 0.24051 0.79955 0.0
C2306 C 0.02276 0.22224 0.81304 0.0
C2307 C 0.02356 0.21099 0.82447 0.0
C2308 C 0.02254 0.20228 0.79703 0.0
C2309 C 1.02049 0.20507 0.75792 0.0
C2310 C 1.01971 0.21636 0.74648 0.0
H2311 H 0.98515 0.24648 0.79838 0.0
H2312 H 0.99106 0.23204 0.79039 0.0
H2313 H 0.99913 0.23991 0.83001 0.0
H2314 H 0.02386 0.2288 0.83463 0.0
H2315 H 0.02492 0.20911 0.85488 0.0
H2316 H 0.24982 0.95473 0.70328 0.0
H2317 H 0.2479 0.97498 0.71612 0.0
H2318 H 0.29813 0.97678 0.72909 0.0
H2319 H 0.30015 0.95654 0.71637 0.0
H2320 H 0.25807 0.98834 0.77889 0.0
H2321 H 0.28858 -0.00038 0.64261 0.0
H2322 H 0.28108 0.98565 0.65192 0.0
H2323 H 0.29927 0.9901 0.67319 0.0
C2324 C 0.26042 0.9594 0.70965 0.0
C2325 C 0.27515 0.95408 0.70856 0.0
C2326 C 0.25931 0.97096 0.71668 0.0
C2327 C 0.2729 0.97738 0.72262 0.0
C2328 C 0.28754 0.972 0.72359 0.0
H2329 H 0.2932 0.04702 0.76958 0.0
H2330 H 0.29413 0.02703 0.75256 0.0
C2331 C 0.28867 0.96045 0.71648 0.0
C2332 C 0.2718 0.98974 0.72701 0.0
H2333 H 0.2833 0.0146 0.68619 0.0
C2334 C 0.26349 0.9941 0.75855 0.0
C2335 C 0.27887 0.99718 0.70025 0.0
C2336 C 0.28734 0.99294 0.66487 0.0
C2337 C 0.26239 0.00576 0.76465 0.0
C2338 C 0.26958 0.0132 0.73809 0.0
C2339 C 0.27779 0.00884 0.70639 0.0
C2340 C 0.26912 0.02553 0.74362 0.0
C2341 C 0.25392 0.01002 0.8 0.0
C2342 C 0.25482 0.03136 0.74257 0.0
C2343 C 0.25425 0.04279 0.75199 0.0
C2344 C 0.268 0.04857 0.76249 0.0
C2345 C 0.28243 0.04284 0.76123 0.0
C2346 C 0.28298 0.03141 0.7518 0.0
H2347 H 0.25199 0.00323 0.82159 0.0
H2348 H 0.2606 0.01695 0.81391 0.0
H2349 H 0.2423 0.01339 0.79135 0.0
H2350 H 0.24405 0.02698 0.73552 0.0
H2351 H 0.243 0.04703 0.75218 0.0
H2352 H 0.76781 0.69397 0.53334 0.0
H2353 H 0.76821 0.71283 0.5629 0.0
H2354 H 0.77121 0.72793 0.44991 0.0
H2355 H 0.77087 0.70923 0.42031 0.0
H2356 H 0.79409 0.73539 0.51541 0.0
H2357 H 0.73001 0.73687 0.54721 0.0
H2358 H 0.74101 0.72431 0.55859 0.0
H2359 H 0.73782 0.7281 0.50915 0.0
C2360 C 0.76866 0.70133 0.51495 0.0
C2361 C 0.76916 0.70019 0.47459 0.0
C2362 C 0.76882 0.71205 0.53179 0.0
C2363 C 0.76962 0.72169 0.50841 0.0
C2364 C 0.7705 0.72055 0.46826 0.0
H2365 H 0.77709 0.79363 0.52404 0.0
H2366 H 0.77674 0.7738 0.50496 0.0
C2367 C 0.77023 0.70989 0.45146 0.0
C2368 C 0.76941 0.73306 0.52537 0.0
H2369 H 0.74464 0.75326 0.55977 0.0
C2370 C 0.78334 0.7393 0.52548 0.0
C2371 C 0.75534 0.73802 0.53847 0.0
C2372 C 0.74012 0.73156 0.5384 0.0
C2373 C 0.78354 0.75053 0.53801 0.0
C2374 C 0.76933 0.75568 0.54962 0.0
C2375 C 0.75548 0.7493 0.55054 0.0
C2376 C 0.76858 0.76772 0.56035 0.0
C2377 C 0.79897 0.75674 0.53885 0.0
C2378 C 0.76335 0.77089 0.59713 0.0
C2379 C 0.76324 0.78223 0.60786 0.0
C2380 C 0.76836 0.79059 0.58196 0.0
C2381 C 0.77302 0.78741 0.5446 0.0
C2382 C 0.77304 0.77607 0.53384 0.0
H2383 H 0.80906 0.75082 0.54028 0.0
H2384 H 0.80019 0.76178 0.51203 0.0
H2385 H 0.79961 0.76256 0.56389 0.0
H2386 H 0.75966 0.76457 0.6178 0.0
H2387 H 0.75928 0.78443 0.63658 0.0
H2388 H 0.04235 0.71004 0.344 0.0
H2389 H 0.04241 0.7301 0.32945 0.0
H2390 H 0.02382 0.72326 0.21609 0.0
H2391 H 0.02469 0.70303 0.22938 0.0
H2392 H 0.04589 0.73951 0.21413 0.0
H2393 H 1.00299 0.74877 0.33018 0.0
H2394 H 1.02053 0.74214 0.34755 0.0
H2395 H 1.0077 0.73459 0.31545 0.0
C2396 C 0.03863 0.71272 0.31557 0.0
C2397 C 0.03346 0.70486 0.28788 0.0
C2398 C 0.03842 0.72424 0.30759 0.0
C2399 C 0.03272 0.72818 0.27212 0.0
C2400 C 0.0281 0.72039 0.24385 0.0
H2401 H 0.99648 0.7937 0.21661 0.0
H2402 H 1.00087 0.77423 0.23665 0.0
C2403 C 0.02849 0.70883 0.25161 0.0
C2404 C 0.0313 0.74043 0.26471 0.0
H2405 H 1.01407 0.76451 0.29809 0.0
C2406 C 0.03894 0.74499 0.23245 0.0
C2407 C 0.02205 0.74751 0.28844 0.0
C2408 C 1.01272 0.743 0.32211 0.0
C2409 C 0.03755 0.75645 0.22313 0.0
C2410 C 0.02865 0.7636 0.24746 0.0
C2411 C 0.02106 0.75904 0.27981 0.0
C2412 C 0.02616 0.77566 0.23837 0.0
C2413 C 0.04517 0.76069 0.18656 0.0
C2414 C 0.03889 0.78304 0.234 0.0
C2415 C 0.03644 0.79412 0.22179 0.0
C2416 C 0.02117 0.79808 0.21435 0.0
C2417 C 1.0084 0.79085 0.22121 0.0
C2418 C 1.01088 0.77975 0.23296 0.0
H2419 H 0.04795 0.75369 0.16639 0.0
H2420 H 0.03748 0.76682 0.1714 0.0
H2421 H 0.05632 0.76499 0.19393 0.0
H2422 H 0.05076 0.78014 0.23906 0.0
H2423 H 0.04655 0.79943 0.21666 0.0
H2424 H 0.78512 0.9597 0.14121 0.0
H2425 H 0.78658 0.97991 0.15367 0.0
H2426 H 0.78028 0.9738 0.27541 0.0
H2427 H 0.77934 0.95346 0.26336 0.0
H2428 H 0.76309 0.99278 0.18617 0.0
H2429 H 0.81762 0.99548 0.27284 0.0
H2430 H 0.81272 0.98327 0.24414 0.0
H2431 H 0.80388 0.98528 0.29077 0.0
C2432 C 0.78443 0.96262 0.17078 0.0
C2433 C 0.78227 0.95497 0.20139 0.0
C2434 C 0.78515 0.97418 0.17777 0.0
C2435 C 0.78376 0.97832 0.21546 0.0
C2436 C 0.78169 0.97073 0.24617 0.0
H2437 H 0.76932 0.04016 0.33171 0.0
H2438 H 0.77331 0.02088 0.30953 0.0
C2439 C 0.78098 0.95914 0.23922 0.0
C2440 C 0.78342 0.99061 0.22231 0.0
H2441 H 0.80085 0.01165 0.27378 0.0
C2442 C 0.77146 0.99696 0.2049 0.0
C2443 C 0.79442 0.99599 0.24657 0.0
C2444 C 0.80798 0.98968 0.26438 0.0
C2445 C 0.76976 0.0085 0.21258 0.0
C2446 C 0.78043 0.01379 0.23792 0.0
C2447 C 0.79269 0.00752 0.25436 0.0
C2448 C 0.77825 0.02557 0.25045 0.0
C2449 C 0.75618 0.01483 0.19495 0.0
C2450 C 0.77982 0.03459 0.22448 0.0
C2451 C 0.77741 0.04567 0.23702 0.0
C2452 C 0.77337 0.04783 0.27566 0.0
C2453 C 0.77205 0.03875 0.30155 0.0
C2454 C 0.77448 0.02774 0.28906 0.0
H2455 H 0.74759 0.00909 0.18096 0.0
H2456 H 0.75 0.01987 0.21729 0.0
H2457 H 0.76066 0.02075 0.17275 0.0
H2458 H 0.78292 0.03305 0.19462 0.0
H2459 H 0.77856 0.05252 0.21652 0.0
H2460 H 0.02942 0.45821 0.06231 0.0
H2461 H 0.0276 0.47665 0.03114 0.0
H2462 H 1.00878 0.46101 0.92867 0.0
H2463 H 1.01116 0.44239 0.95956 0.0
H2464 H 0.02904 0.47756 0.91072 0.0
H2465 H 0.9869 0.49337 0.0189 0.0
H2466 H 1.00453 0.48856 0.04173 0.0
H2467 H 0.99235 0.4787 0.01588 0.0
C2468 C 0.02503 0.45873 0.03301 0.0
C2469 C 1.02028 0.44898 0.01331 0.0
C2470 C 0.02386 0.46924 0.01537 0.0
C2471 C 1.01757 0.47022 0.9781 0.0
C2472 C 1.01348 0.46043 0.95765 0.0
H2473 H 0.99186 0.53868 0.90687 0.0
H2474 H 0.99015 0.5185 0.92194 0.0
C2475 C 1.01488 0.44984 0.97516 0.0
C2476 C 1.01523 0.48153 0.96097 0.0
H2477 H 1.00017 0.50749 0.98118 0.0
C2478 C 0.02255 0.48408 0.9258 0.0
C2479 C 1.00635 0.48993 0.98005 0.0
C2480 C 0.99694 0.48746 0.01598 0.0
C2481 C 0.022 0.49501 0.91035 0.0
C2482 C 1.01435 0.50366 0.93136 0.0
C2483 C 1.00628 0.50093 0.96538 0.0
C2484 C 1.01524 0.51568 0.91988 0.0
C2485 C 0.02962 0.49714 0.87173 0.0
C2486 C 0.02988 0.52081 0.91423 0.0
C2487 C 0.03084 0.53224 0.90515 0.0
C2488 C 1.01719 0.53881 0.90255 0.0
C2489 C 1.00254 0.53376 0.90891 0.0
C2490 C 1.00156 0.52226 0.91733 0.0
H2491 H 0.02954 0.48941 0.85363 0.0
H2492 H 0.02362 0.504 0.85567 0.0
H2493 H 0.04204 0.49957 0.87627 0.0
H2494 H 0.04062 0.51603 0.91749 0.0
H2495 H 0.04227 0.53601 0.90086 0.0
H2496 H 0.28822 0.71314 0.88295 0.0
H2497 H 0.28693 0.73294 0.90282 0.0
H2498 H 0.25522 0.72405 -0.00515 0.0
H2499 H 0.25629 0.70425 0.97488 0.0
H2500 H 0.24539 0.74243 0.94191 0.0
H2501 H 0.30529 0.74793 0.00302 0.0
H2502 H 0.30389 0.74126 0.95651 0.0
H2503 H 0.29616 0.73426 -0.00171 0.0
C2504 C 0.28108 0.7154 0.90761 0.0
C2505 C 0.27235 0.70717 0.92739 0.0
C2506 C 0.28042 0.72668 0.91901 0.0
C2507 C 0.27103 0.72989 0.95032 0.0
C2508 C 0.26257 0.72168 0.97066 0.0
H2509 H 0.24286 0.79082 0.06356 0.0
H2510 H 0.24434 0.77211 0.03461 0.0
C2511 C 0.26329 0.71039 0.95943 0.0
C2512 C 0.26944 0.74189 0.96074 0.0
H2513 H 0.28926 0.76409 -0.00041 0.0
C2514 C 0.25496 0.7472 0.95451 0.0
C2515 C 0.28202 0.74805 0.97667 0.0
C2516 C 0.29772 0.74262 0.98433 0.0
C2517 C 0.2527 0.75858 0.96399 0.0
C2518 C 0.26516 0.76468 0.98094 0.0
C2519 C 0.27973 0.75939 0.9865 0.0
C2520 C 0.26316 0.77633 -0.00473 0.0
C2521 C 0.23706 0.76397 0.95537 0.0
C2522 C 0.27328 0.78492 0.98285 0.0
C2523 C 0.27263 0.79559 -0.00018 0.0
C2524 C 0.26189 0.79783 0.02965 0.0
C2525 C 0.25136 0.78933 0.0409 0.0
C2526 C 0.25206 0.77866 0.02405 0.0
H2527 H 0.23086 0.75951 0.93167 0.0
H2528 H 0.22955 0.76351 0.98148 0.0
H2529 H 0.23842 0.77297 0.94723 0.0
H2530 H 0.282 0.78326 0.96082 0.0
H2531 H 0.28105 0.80191 0.99086 0.0
H2532 H 0.25815 0.53817 0.32531 0.0
H2533 H 0.25933 0.51875 0.30255 0.0
H2534 H 0.26873 0.5305 0.187 0.0
H2535 H 0.26757 0.55009 0.20969 0.0
H2536 H 0.24136 0.50799 0.24653 0.0
H2537 H 0.30466 0.50835 0.20802 0.0
H2538 H 0.29574 0.51925 0.23695 0.0
H2539 H 0.29303 0.51914 0.18552 0.0
C2540 C 0.26029 0.53665 0.29494 0.0
C2541 C 0.26268 0.54566 0.2692 0.0
C2542 C 0.26103 0.52555 0.28205 0.0
C2543 C 0.26427 0.52321 0.24324 0.0
C2544 C 0.26649 0.53215 0.21725 0.0
H2545 H 0.27527 0.45976 0.12263 0.0
H2546 H 0.27236 0.47958 0.14009 0.0
C2547 C 0.2658 0.54331 0.23018 0.0
C2548 C 0.2653 0.51135 0.23041 0.0
H2549 H 0.29057 0.49168 0.19444 0.0
C2550 C 0.25211 0.50441 0.23508 0.0
C2551 C 0.27936 0.50674 0.21563 0.0
C2552 C 0.29406 0.5137 0.21147 0.0
C2553 C 0.25258 0.49295 0.22518 0.0
C2554 C 0.26667 0.48833 0.21076 0.0
C2555 C 0.2798 0.49529 0.20563 0.0
C2556 C 0.26806 0.47628 0.20056 0.0
C2557 C 0.23796 0.48592 0.22979 0.0
C2558 C 0.26669 0.46789 0.22893 0.0
C2559 C 0.26847 0.45653 0.21912 0.0
C2560 C 0.27176 0.45342 0.18083 0.0
C2561 C 0.27305 0.46188 0.15253 0.0
C2562 C 0.27128 0.47321 0.16236 0.0
H2563 H 0.22729 0.49124 0.2325 0.0
H2564 H 0.23646 0.48013 0.2049 0.0
H2565 H 0.239 0.48073 0.25633 0.0
H2566 H 0.26447 0.47014 0.25873 0.0
H2567 H 0.26755 0.4502 0.24157 0.0
H2568 H 0.79383 0.20467 0.9476 0.0
H2569 H 0.79526 0.2248 0.96271 0.0
H2570 H 0.74498 0.22591 0.97537 0.0
H2571 H 0.74348 0.20574 0.96126 0.0
H2572 H 0.78025 0.24171 0.91847 0.0
H2573 H 0.76095 0.2426 0.07154 0.0
H2574 H 0.76766 0.22987 0.04816 0.0
H2575 H 0.74812 0.235 0.03971 0.0
C2576 C 0.78313 0.20913 0.95466 0.0
C2577 C 0.76854 0.20363 0.95333 0.0
C2578 C 0.78395 0.22064 0.96292 0.0
C2579 C 0.77024 0.22679 0.97034 0.0
C2580 C 0.75572 0.22126 0.97024 0.0
H2581 H 0.74951 0.29692 0.01584 0.0
H2582 H 0.74782 0.27709 -0.00273 0.0
C2583 C 0.75487 0.20977 0.96192 0.0
C2584 C 0.77099 0.23914 0.97564 0.0
H2585 H 0.76269 0.26021 0.03934 0.0
C2586 C 0.7765 0.24577 0.94495 0.0
C2587 C 0.76598 0.24437 0.01013 0.0
C2588 C 0.76047 0.23761 0.04443 0.0
C2589 C 0.77692 0.25757 0.94763 0.0
C2590 C 0.77192 0.2628 0.98214 0.0
C2591 C 0.76641 0.25616 0.01282 0.0
C2592 C 0.77274 0.27514 0.98775 0.0
C2593 C 0.78242 0.26433 0.91332 0.0
C2594 C 0.78728 0.28065 0.98762 0.0
C2595 C 0.78827 0.29201 -0.00215 0.0
C2596 C 0.77475 0.29801 0.0087 0.0
C2597 C 0.76011 0.29259 0.0071 0.0
C2598 C 0.75913 0.28123 -0.00316 0.0
H2599 H 0.78169 0.25939 0.88615 0.0
H2600 H 0.77541 0.27216 0.90995 0.0
H2601 H 0.79486 0.26676 0.91771 0.0
H2602 H 0.79794 0.27605 0.98127 0.0
H2603 H 0.79969 0.29599 -0.00138 0.0
H2604 H 0.77077 0.54946 0.73103 0.0
H2605 H 0.7719 0.52994 0.70757 0.0
H2606 H 0.76438 0.51779 0.82344 0.0
H2607 H 0.76335 0.53714 0.84704 0.0
H2608 H 0.79244 0.51235 0.7312 0.0
H2609 H 0.73021 0.50169 0.76054 0.0
H2610 H 0.73726 0.51604 0.75902 0.0
H2611 H 0.74043 0.50751 0.80123 0.0
C2612 C 0.76939 0.54261 0.75144 0.0
C2613 C 0.76674 0.54482 0.79076 0.0
C2614 C 0.76998 0.5315 0.73802 0.0
C2615 C 0.76789 0.52247 0.76371 0.0
C2616 C 0.76559 0.52466 0.80303 0.0
H2617 H 0.76977 0.4495 0.74967 0.0
H2618 H 0.76832 0.46921 0.77092 0.0
C2619 C 0.76499 0.53572 0.81643 0.0
C2620 C 0.76848 0.5107 0.74984 0.0
H2621 H 0.74716 0.4864 0.74515 0.0
C2622 C 0.78252 0.50669 0.73392 0.0
C2623 C 0.75551 0.50336 0.7537 0.0
C2624 C 0.73995 0.50737 0.76922 0.0
C2625 C 0.78406 0.4954 0.72247 0.0
C2626 C 0.77113 0.48804 0.72657 0.0
C2627 C 0.75706 0.49208 0.7423 0.0
C2628 C 0.77187 0.47618 0.71386 0.0
C2629 C 0.79961 0.49138 0.70688 0.0
C2630 C 0.77403 0.47364 0.67474 0.0
C2631 C 0.77479 0.46246 0.66256 0.0
C2632 C 0.77336 0.45359 0.6893 0.0
C2633 C 0.77087 0.45615 0.72843 0.0
C2634 C 0.7701 0.46738 0.7406 0.0
H2635 H 0.80931 0.49722 0.71455 0.0
H2636 H 0.80248 0.48284 0.71801 0.0
H2637 H 0.79895 0.4909 0.67494 0.0
H2638 H 0.77502 0.48033 0.65356 0.0
H2639 H 0.77632 0.46077 0.63208 0.0
H2640 H 0.5298 0.03762 0.89703 0.0
H2641 H 0.5279 0.01797 0.91711 0.0
H2642 H 0.51833 0.02851 0.03389 0.0
H2643 H 0.52029 0.04833 0.01397 0.0
H2644 H 0.5458 0.00664 0.97291 0.0
H2645 H 0.48226 0.00664 0.00884 0.0
H2646 H 0.49132 0.01774 0.98105 0.0
H2647 H 0.49372 0.01729 0.03254 0.0
C2648 C 0.52745 0.03578 0.9271 0.0
C2649 C 0.52531 0.04452 0.95403 0.0
C2650 C 0.52628 0.02455 0.93844 0.0
C2651 C 0.52285 0.02181 0.97684 0.0
C2652 C 0.52074 0.03048 0.00395 0.0
H2653 H 0.51184 0.9581 0.09442 0.0
H2654 H 0.5141 0.97794 0.07667 0.0
C2655 C 0.52188 0.04177 0.99258 0.0
C2656 C 0.52174 0.00983 0.98824 0.0
H2657 H 0.49637 0.9899 0.02183 0.0
C2658 C 0.535 0.00296 0.98359 0.0
C2659 C 0.50761 0.0051 0.00204 0.0
C2660 C 0.49285 0.01202 0.00617 0.0
C2661 C 0.53457 0.99145 0.9928 0.0
C2662 C 0.52042 0.98671 0.00639 0.0
C2663 C 0.50718 0.99359 0.01126 0.0
C2664 C 0.51917 0.97464 0.01657 0.0
C2665 C 0.54931 0.98452 0.98858 0.0
C2666 C 0.52117 0.96623 0.98848 0.0
C2667 C 0.51981 0.95485 -0.00152 0.0
C2668 C 0.51627 0.95174 0.03665 0.0
C2669 C 0.51427 0.96022 0.0646 0.0
C2670 C 0.51565 0.97156 0.0546 0.0
H2671 H 0.55993 0.98991 0.98662 0.0
H2672 H 0.55071 0.97864 0.01329 0.0
H2673 H 0.54855 0.97944 0.96177 0.0
H2674 H 0.52363 0.96848 0.95879 0.0
H2675 H 0.52128 0.94851 0.9763 0.0
H2676 H 0.52253 0.1981 0.22364 0.0
H2677 H 0.52096 0.21802 0.20469 0.0
H2678 H 0.53213 0.22796 0.32122 0.0
H2679 H 0.53326 0.20823 0.34057 0.0
H2680 H 0.50637 0.23932 0.28966 0.0
H2681 H 0.55791 0.24014 0.19147 0.0
H2682 H 0.54365 0.22939 0.1813 0.0
H2683 H 0.55458 0.22888 0.22559 0.0
C2684 C 0.52464 0.20454 0.24514 0.0
C2685 C 0.52822 0.20159 0.28345 0.0
C2686 C 0.52388 0.21589 0.23424 0.0
C2687 C 0.52667 0.22442 0.26149 0.0
C2688 C 0.53008 0.22149 0.29973 0.0
H2689 H 0.52537 0.29799 0.26011 0.0
H2690 H 0.52775 0.27811 0.27907 0.0
C2691 C 0.53085 0.2102 0.31062 0.0
C2692 C 0.52564 0.23645 0.25073 0.0
H2693 H 0.54246 0.25671 0.19447 0.0
C2694 C 0.51427 0.24315 0.26892 0.0
C2695 C 0.53602 0.24137 0.22379 0.0
C2696 C 0.54883 0.23462 0.20458 0.0
C2697 C 0.51282 0.25466 0.26038 0.0
C2698 C 0.52319 0.25958 0.23342 0.0
C2699 C 0.53457 0.25288 0.21524 0.0
C2700 C 0.52202 0.27158 0.22244 0.0
C2701 C 0.49998 0.26139 0.27956 0.0
C2702 C 0.51839 0.27443 0.18425 0.0
C2703 C 0.51715 0.2857 0.17337 0.0
C2704 C 0.51953 0.29436 0.20048 0.0
C2705 C 0.52343 0.29149 0.23866 0.0
C2706 C 0.52467 0.28017 0.24956 0.0
H2707 H 0.49095 0.25587 0.29283 0.0
H2708 H 0.50516 0.26668 0.3027 0.0
H2709 H 0.49418 0.26708 0.25847 0.0
H2710 H 0.51644 0.26792 0.16287 0.0
H2711 H 0.5145 0.28763 0.1435 0.0
H2712 H 0.54911 0.70168 0.77432 0.0
H2713 H 0.54901 0.72148 0.75444 0.0
H2714 H 0.49868 0.72242 0.76583 0.0
H2715 H 0.49867 0.70265 0.78603 0.0
H2716 H 0.51065 0.73314 0.69818 0.0
H2717 H 0.54087 0.7474 0.83171 0.0
H2718 H 0.55073 0.73644 0.80538 0.0
H2719 H 0.53207 0.73362 0.82736 0.0
C2720 C 0.53802 0.7061 0.77246 0.0
C2721 C 0.52391 0.70063 0.78202 0.0
C2722 C 0.53799 0.7174 0.7612 0.0
C2723 C 0.52387 0.72344 0.75947 0.0
C2724 C 0.50971 0.71789 0.76724 0.0
H2725 H 0.49638 0.79212 0.70866 0.0
H2726 H 0.49735 0.77229 0.72791 0.0
C2727 C 0.50971 0.70658 0.7785 0.0
C2728 C 0.52389 0.73562 0.75037 0.0
H2729 H 0.53628 0.7612 0.78366 0.0
C2730 C 0.51622 0.73929 0.71686 0.0
C2731 C 0.53118 0.74358 0.77489 0.0
C2732 C 0.53908 0.74011 0.81204 0.0
C2733 C 0.51581 0.75074 0.70687 0.0
C2734 C 0.52301 0.75872 0.73152 0.0
C2735 C 0.53076 0.75504 0.76492 0.0
C2736 C 0.52257 0.77093 0.72301 0.0
C2737 C 0.50791 0.75419 0.6697 0.0
C2738 C 0.53649 0.77683 0.71566 0.0
C2739 C 0.53599 0.78818 0.70482 0.0
C2740 C 0.52153 0.79378 0.70127 0.0
C2741 C 0.50766 0.78797 0.71052 0.0
C2742 C 0.50819 0.77665 0.72141 0.0
H2743 H 0.50651 0.74695 0.64967 0.0
H2744 H 0.49607 0.75756 0.67625 0.0
H2745 H 0.51468 0.7609 0.65483 0.0
H2746 H 0.54771 0.77255 0.71702 0.0
H2747 H 0.54684 0.79241 0.69759 0.0
H2748 H 0.54991 0.54382 0.46896 0.0
H2749 H 0.54938 0.52361 0.48344 0.0
H2750 H 0.49901 0.52361 0.47248 0.0
H2751 H 0.49946 0.54373 0.45698 0.0
H2752 H 0.53327 0.5112 0.54158 0.0
H2753 H 0.5139 0.49974 0.39355 0.0
H2754 H 0.52159 0.51349 0.40538 0.0
H2755 H 0.50173 0.50992 0.4176 0.0
C2756 C 0.53872 0.53951 0.46982 0.0
C2757 C 0.52474 0.54533 0.46154 0.0
C2758 C 0.53844 0.528 0.47819 0.0
C2759 C 0.52419 0.52212 0.47821 0.0
C2760 C 0.51015 0.52799 0.47187 0.0
H2761 H 0.49601 0.45339 0.51493 0.0
H2762 H 0.49793 0.47336 0.49789 0.0
C2763 C 0.51041 0.5395 0.46353 0.0
C2764 C 0.52408 0.50979 0.48394 0.0
H2765 H 0.51483 0.48497 0.43963 0.0
C2766 C 0.52932 0.50544 0.51929 0.0
C2767 C 0.51897 0.50235 0.45462 0.0
C2768 C 0.51385 0.50657 0.4155 0.0
C2769 C 0.5292 0.49381 0.52654 0.0
C2770 C 0.52398 0.48637 0.49732 0.0
C2771 C 0.51886 0.49072 0.46185 0.0
C2772 C 0.52316 0.47408 0.50373 0.0
C2773 C 0.53423 0.4896 0.56576 0.0
C2774 C 0.53679 0.46781 0.51116 0.0
C2775 C 0.53572 0.45642 0.52104 0.0
C2776 C 0.52101 0.45113 0.52348 0.0
C2777 C 0.50748 0.45729 0.51379 0.0
C2778 C 0.50855 0.46867 0.50394 0.0
H2779 H 0.53454 0.49649 0.58748 0.0
H2780 H 0.52621 0.48289 0.57623 0.0
H2781 H 0.54619 0.48596 0.56363 0.0
H2782 H 0.54819 0.47182 0.51043 0.0
H2783 H 0.54634 0.45191 0.52856 0.0
H2784 H 0.96463 0.10167 0.35915 0.0
H2785 H 0.93612 0.10341 0.3667 0.0
H2786 H 0.93154 0.06728 0.35963 0.0
H2787 H 0.95992 0.06545 0.35265 0.0
H2788 H 0.9114 0.09476 0.31473 0.0
H2789 H 0.90904 0.07649 0.46221 0.0
H2790 H 0.92688 0.08201 0.4414 0.0
H2791 H 0.91988 0.06831 0.4276 0.0
C2792 C 0.95756 0.0941 0.35943 0.0
C2793 C 0.96458 0.08342 0.35537 0.0
C2794 C 0.94127 0.09511 0.36353 0.0
C2795 C 0.93176 0.08547 0.36413 0.0
C2796 C 0.9387 0.07482 0.35965 0.0
H2797 H 0.83543 0.06664 0.38851 0.0
H2798 H 0.86383 0.06809 0.38241 0.0
C2799 C 0.95492 0.0738 0.3553 0.0
C2800 C 0.91455 0.08643 0.36936 0.0
H2801 H 0.88475 0.07875 0.42962 0.0
C2802 C 0.90554 0.09137 0.33999 0.0
C2803 C 0.90699 0.08201 0.40237 0.0
C2804 C 0.91617 0.07699 0.43541 0.0
C2805 C 0.88906 0.09159 0.34201 0.0
C2806 C 0.88147 0.08694 0.37471 0.0
C2807 C 0.89056 0.08228 0.40452 0.0
C2808 C 0.86411 0.08628 0.37787 0.0
C2809 C 0.87994 0.09636 0.30844 0.0
C2810 C 0.85475 0.09604 0.3776 0.0
C2811 C 0.83842 0.09523 0.38109 0.0
C2812 C 0.83116 0.08465 0.3854 0.0
C2813 C 0.84061 0.07492 0.38585 0.0
C2814 C 0.85687 0.07574 0.38217 0.0
H2815 H 0.88727 0.09706 0.28204 0.0
H2816 H 0.86958 0.09103 0.3018 0.0
H2817 H 0.8757 0.10492 0.31599 0.0
H2818 H 0.86009 0.10429 0.37519 0.0
H2819 H 0.83151 0.10288 0.38112 0.0
H2820 H 0.45955 0.18234 0.38409 0.0
H2821 H 0.43118 0.18083 0.376 0.0
H2822 H 0.435 0.14461 0.37184 0.0
H2823 H 0.46347 0.14604 0.38061 0.0
H2824 H 0.41514 0.1699 0.31219 0.0
H2825 H 0.40052 0.151 0.45482 0.0
H2826 H 0.4188 0.15824 0.44601 0.0
H2827 H 0.41582 0.14429 0.42744 0.0
C2828 C 0.45438 0.17404 0.38202 0.0
C2829 C 0.46381 0.16431 0.38325 0.0
C2830 C 0.43815 0.1732 0.37712 0.0
C2831 C 0.43097 0.16261 0.37369 0.0
C2832 C 0.44029 0.15286 0.3749 0.0
H2833 H 0.33103 0.14622 0.35198 0.0
H2834 H 0.35962 0.14488 0.3577 0.0
C2835 C 0.45657 0.1537 0.37959 0.0
C2836 C 0.41376 0.16189 0.36783 0.0
H2837 H 0.37959 0.15398 0.41154 0.0
C2838 C 0.40736 0.16639 0.33384 0.0
C2839 C 0.40367 0.15722 0.39598 0.0
C2840 C 0.40995 0.15246 0.43329 0.0
C2841 C 0.3911 0.16641 0.3273 0.0
C2842 C 0.38093 0.16208 0.356 0.0
C2843 C 0.38738 0.15733 0.38962 0.0
C2844 C 0.36359 0.16283 0.35234 0.0
C2845 C 0.38501 0.17098 0.2895 0.0
C2846 C 0.35628 0.17336 0.34806 0.0
C2847 C 0.33999 0.17415 0.34475 0.0
C2848 C 0.33057 0.16442 0.34608 0.0
C2849 C 0.3379 0.15388 0.35102 0.0
C2850 C 0.35425 0.1531 0.35417 0.0
H2851 H 0.3941 0.1706 0.26655 0.0
H2852 H 0.37453 0.16624 0.2796 0.0
H2853 H 0.38166 0.17995 0.29333 0.0
H2854 H 0.36318 0.18102 0.34772 0.0
H2855 H 0.33476 0.18242 0.3419 0.0
H2856 H 0.96352 0.15958 0.83063 0.0
H2857 H 0.93503 0.15942 0.82183 0.0
H2858 H 0.92872 0.16119 0.94521 0.0
H2859 H 0.95717 0.16158 0.95404 0.0
H2860 H 0.91238 0.14519 0.84551 0.0
H2861 H 0.90209 0.18724 0.91053 0.0
H2862 H 0.92146 0.18219 0.89878 0.0
H2863 H 0.91199 0.17776 0.94268 0.0
C2864 C 0.95605 0.15987 0.85587 0.0
C2865 C 0.96259 0.1607 0.89303 0.0
C2866 C 0.93977 0.15982 0.85081 0.0
C2867 C 0.9297 0.16055 0.8828 0.0
C2868 C 0.93622 0.16098 0.92 0.0
H2869 H 0.82845 0.15792 0.91117 0.0
H2870 H 0.85693 0.1565 0.91956 0.0
C2871 C 0.95249 0.16116 0.92504 0.0
C2872 C 0.9124 0.16081 0.87725 0.0
H2873 H 0.87945 0.17613 0.8977 0.0
C2874 C 0.90521 0.15199 0.85676 0.0
C2875 C 0.90301 0.16972 0.89175 0.0
C2876 C 0.91004 0.17982 0.91181 0.0
C2877 C 0.8889 0.15175 0.85099 0.0
C2878 C 0.87956 0.16054 0.86609 0.0
C2879 C 0.88669 0.16936 0.88647 0.0
C2880 C 0.86235 0.16085 0.86044 0.0
C2881 C 0.88166 0.14206 0.82918 0.0
C2882 C 0.85603 0.16377 0.82443 0.0
C2883 C 0.83979 0.16464 0.8196 0.0
C2884 C 0.82957 0.16254 0.85066 0.0
C2885 C 0.83598 0.15945 0.88658 0.0
C2886 C 0.85223 0.15869 0.89148 0.0
H2887 H 0.8902 0.13517 0.82373 0.0
H2888 H 0.87153 0.1386 0.84547 0.0
H2889 H 0.8772 0.14515 0.80098 0.0
H2890 H 0.86368 0.16553 0.80021 0.0
H2891 H 0.8352 0.16695 0.79155 0.0
H2892 H 0.3308 0.10185 0.87815 0.0
H2893 H 0.35936 0.10319 0.87079 0.0
H2894 H 0.36277 0.06693 0.87217 0.0
H2895 H 0.33434 0.06552 0.87891 0.0
H2896 H 0.38367 0.09351 0.92129 0.0
H2897 H 0.38577 0.07698 0.77146 0.0
H2898 H 0.36805 0.0825 0.7929 0.0
H2899 H 0.37468 0.06854 0.8048 0.0
C2900 C 0.33763 0.09417 0.87665 0.0
C2901 C 0.33026 0.08358 0.87907 0.0
C2902 C 0.35394 0.09495 0.87265 0.0
C2903 C 0.36314 0.08516 0.8705 0.0
C2904 C 0.35586 0.07459 0.87332 0.0
H2905 H 0.45921 0.06536 0.84461 0.0
H2906 H 0.4308 0.06702 0.85029 0.0
C2907 C 0.3396 0.0738 0.87756 0.0
C2908 C 0.38038 0.08589 0.86555 0.0
H2909 H 0.41006 0.07846 0.80455 0.0
C2910 C 0.38948 0.09034 0.89565 0.0
C2911 C 0.38787 0.08174 0.83204 0.0
C2912 C 0.37862 0.07725 0.79826 0.0
C2913 C 0.40595 0.09032 0.89379 0.0
C2914 C 0.41347 0.08596 0.86054 0.0
C2915 C 0.40431 0.08177 0.83007 0.0
C2916 C 0.43082 0.08515 0.85736 0.0
C2917 C 0.41515 0.09455 0.92807 0.0
C2918 C 0.44033 0.0948 0.85908 0.0
C2919 C 0.45666 0.09386 0.85584 0.0
C2920 C 0.46377 0.08327 0.85035 0.0
C2921 C 0.45416 0.07366 0.84827 0.0
C2922 C 0.43789 0.07459 0.85171 0.0
H2923 H 0.40781 0.095 0.95452 0.0
H2924 H 0.42539 0.08903 0.93397 0.0
H2925 H 0.41955 0.10316 0.92181 0.0
H2926 H 0.43513 0.10307 0.86252 0.0
H2927 H 0.46369 0.10145 0.85701 0.0
H2928 H 0.21514 0.895 0.6212 0.0
H2929 H 0.1865 0.89313 0.62523 0.0
H2930 H 0.1815 0.92866 0.6019 0.0
H2931 H 0.20989 0.93054 0.59751 0.0
H2932 H 0.16475 0.90298 0.67238 0.0
H2933 H 0.15284 0.9154 0.52132 0.0
H2934 H 0.17229 0.91196 0.53818 0.0
H2935 H 0.16423 0.92581 0.54617 0.0
C2936 C 0.20792 0.9024 0.61701 0.0
C2937 C 0.21483 0.91288 0.60845 0.0
C2938 C 0.19155 0.90132 0.6192 0.0
C2939 C 0.18179 0.9107 0.61288 0.0
C2940 C 0.18871 0.92122 0.60559 0.0
H2941 H 0.08624 0.93095 0.63552 0.0
H2942 H 0.11462 0.92878 0.62951 0.0
C2943 C 0.20499 0.92229 0.60315 0.0
C2944 C 0.16439 0.90965 0.61457 0.0
H2945 H 0.13092 0.91607 0.56476 0.0
C2946 C 0.15735 0.90567 0.64864 0.0
C2947 C 0.15469 0.91309 0.58347 0.0
C2948 C 0.1614 0.91669 0.54509 0.0
C2949 C 0.14094 0.90557 0.65306 0.0
C2950 C 0.13134 0.9095 0.62263 0.0
C2951 C 0.13832 0.91313 0.58816 0.0
C2952 C 0.11407 0.91058 0.62681 0.0
C2953 C 0.13394 0.90167 0.69072 0.0
C2954 C 0.10431 0.90105 0.62699 0.0
C2955 C 0.088 0.90226 0.63032 0.0
C2956 C 0.08119 0.91303 0.63384 0.0
C2957 C 0.09107 0.92253 0.63354 0.0
C2958 C 0.10731 0.92131 0.62986 0.0
H2959 H 0.14303 0.89993 0.71291 0.0
H2960 H 0.12572 0.90814 0.70204 0.0
H2961 H 0.12712 0.89383 0.6858 0.0
H2962 H 0.10931 0.89269 0.62433 0.0
H2963 H 0.08074 0.89478 0.63063 0.0
H2964 H 0.71772 0.83459 0.58508 0.0
H2965 H 0.68983 0.835 0.56734 0.0
H2966 H 0.67827 0.84732 0.68091 0.0
H2967 H 0.70596 0.84716 0.69839 0.0
H2968 H 0.66576 0.82286 0.60398 0.0
H2969 H 0.65379 0.86872 0.61094 0.0
H2970 H 0.67342 0.86306 0.60819 0.0
H2971 H 0.66315 0.86334 0.65354 0.0
C2972 C 0.70926 0.83759 0.60596 0.0
C2973 C 0.71408 0.8408 0.6432 0.0
C2974 C 0.69332 0.83776 0.59588 0.0
C2975 C 0.68196 0.84132 0.62265 0.0
C2976 C 0.68681 0.84473 0.65953 0.0
H2977 H 0.58134 0.84221 0.64859 0.0
H2978 H 0.60979 0.8442 0.65461 0.0
C2979 C 0.70266 0.84451 0.66964 0.0
C2980 C 0.66496 0.84079 0.61326 0.0
H2981 H 0.63142 0.85657 0.61111 0.0
C2982 C 0.65827 0.83025 0.605 0.0
C2983 C 0.65518 0.85043 0.61486 0.0
C2984 C 0.66175 0.86205 0.622 0.0
C2985 C 0.64202 0.82902 0.59969 0.0
C2986 C 0.6322 0.83863 0.60196 0.0
C2987 C 0.63893 0.84921 0.6095 0.0
C2988 C 0.61488 0.83783 0.59745 0.0
C2989 C 0.63544 0.81736 0.5932 0.0
C2990 C 0.60824 0.83383 0.56302 0.0
C2991 C 0.59197 0.8327 0.55947 0.0
C2992 C 0.58195 0.83564 0.59017 0.0
C2993 C 0.58864 0.83995 0.62425 0.0
C2994 C 0.60493 0.84105 0.6278 0.0
H2995 H 0.64389 0.81068 0.60179 0.0
H2996 H 0.6244 0.81615 0.60967 0.0
H2997 H 0.63279 0.81626 0.56208 0.0
H2998 H 0.61564 0.83156 0.53886 0.0
H2999 H 0.58724 0.82957 0.53255 0.0
H3000 H 0.20126 0.84675 0.19668 0.0
H3001 H 0.1733 0.84688 0.18158 0.0
H3002 H 0.18346 0.8364 0.0651 0.0
H3003 H 0.21153 0.83596 0.08029 0.0
H3004 H 0.15647 0.85895 0.12463 0.0
H3005 H 0.15195 0.81259 0.10363 0.0
H3006 H 0.16865 0.8191 0.12654 0.0
H3007 H 0.16657 0.81958 0.07497 0.0
C3008 C 0.19758 0.84439 0.1679 0.0
C3009 C 0.20866 0.84121 0.13985 0.0
C3010 C 0.18158 0.84456 0.15925 0.0
C3011 C 0.17627 0.84149 0.12241 0.0
C3012 C 0.18729 0.83862 0.09392 0.0
H3013 H 0.08112 0.83167 0.0358 0.0
H3014 H 0.10957 0.83361 0.0416 0.0
C3015 C 0.20334 0.83848 0.10254 0.0
C3016 C 0.15918 0.84116 0.11433 0.0
H3017 H 0.12902 0.82326 0.09323 0.0
C3018 C 0.15046 0.85116 0.11764 0.0
C3019 C 0.15137 0.83099 0.10523 0.0
C3020 C 0.16004 0.81992 0.10265 0.0
C3021 C 0.13413 0.85127 0.11197 0.0
C3022 C 0.12628 0.84105 0.10355 0.0
C3023 C 0.13505 0.83108 0.09968 0.0
C3024 C 0.10894 0.84042 0.09951 0.0
C3025 C 0.1255 0.86234 0.11459 0.0
C3026 C 0.09909 0.84355 0.13017 0.0
C3027 C 0.0828 0.84244 0.12693 0.0
C3028 C 0.07603 0.83805 0.09308 0.0
C3029 C 0.08594 0.83496 0.06238 0.0
C3030 C 0.10221 0.83612 0.0656 0.0
H3031 H 0.13348 0.86961 0.10974 0.0
H3032 H 0.11581 0.86277 0.09323 0.0
H3033 H 0.1204 0.86322 0.1439 0.0
H3034 H 0.10401 0.84661 0.15701 0.0
H3035 H 0.07557 0.84471 0.15139 0.0
H3036 H 0.70474 0.9276 0.06407 0.0
H3037 H 0.67626 0.92557 0.06796 0.0
H3038 H 0.68184 0.89701 0.1437 0.0
H3039 H 0.71028 0.89919 0.14103 0.0
H3040 H 0.65561 0.9079 0.05108 0.0
H3041 H 0.65464 0.9186 0.20716 0.0
H3042 H 0.67173 0.92074 0.17735 0.0
H3043 H 0.667 0.90688 0.19481 0.0
C3044 C 0.69994 0.92088 0.08155 0.0
C3045 C 0.70988 0.91366 0.10261 0.0
C3046 C 0.68363 0.91969 0.08355 0.0
C3047 C 0.6769 0.91128 0.10672 0.0
C3048 C 0.68676 0.9037 0.12622 0.0
H3049 H 0.57661 0.89467 0.11181 0.0
H3050 H 0.60507 0.8939 0.10328 0.0
C3051 C 0.70308 0.90488 0.12428 0.0
C3052 C 0.65959 0.91077 0.11163 0.0
H3053 H 0.63049 0.91352 0.17878 0.0
C3054 C 0.6501 0.90909 0.079 0.0
C3055 C 0.65241 0.91248 0.14801 0.0
C3056 C 0.66192 0.91488 0.18383 0.0
C3057 C 0.63364 0.90904 0.08179 0.0
C3058 C 0.62648 0.91057 0.11829 0.0
C3059 C 0.63598 0.91226 0.15088 0.0
C3060 C 0.60916 0.91094 0.12317 0.0
C3061 C 0.62405 0.90767 0.04549 0.0
C3062 C 0.60199 0.92067 0.13799 0.0
C3063 C 0.58573 0.92113 0.14298 0.0
C3064 C 0.57623 0.91184 0.13343 0.0
C3065 C 0.58349 0.90205 0.11889 0.0
C3066 C 0.59978 0.90159 0.11395 0.0
H3067 H 0.63113 0.90927 0.01913 0.0
H3068 H 0.61955 0.89891 0.04395 0.0
H3069 H 0.61384 0.91348 0.04553 0.0
H3070 H 0.60898 0.92798 0.14535 0.0
H3071 H 0.58061 0.92885 0.15375 0.0
H3072 H 0.95443 0.59511 0.78899 0.0
H3073 H 0.92641 0.59529 0.80336 0.0
H3074 H 0.93602 0.58374 0.91903 0.0
H3075 H 0.9642 0.58365 0.9048 0.0
H3076 H 0.90834 0.57748 0.82246 0.0
H3077 H 0.90566 0.60931 0.93962 0.0
H3078 H 0.92272 0.60755 0.90937 0.0
H3079 H 0.91916 0.59799 0.94871 0.0
C3080 C 0.95061 0.59266 0.81756 0.0
C3081 C 0.96157 0.58933 0.8457 0.0
C3082 C 0.93457 0.5928 0.82579 0.0
C3083 C 0.92905 0.58963 0.86238 0.0
C3084 C 0.93997 0.58647 0.89084 0.0
H3085 H 0.83464 0.57791 0.95064 0.0
H3086 H 0.86306 0.57946 0.94208 0.0
C3087 C 0.95609 0.5864 0.88267 0.0
C3088 C 0.91183 0.58903 0.86963 0.0
H3089 H 0.88232 0.59899 0.92717 0.0
C3090 C 0.90266 0.58223 0.84527 0.0
C3091 C 0.90439 0.59519 0.89948 0.0
C3092 C 0.91344 0.603 0.9256 0.0
C3093 C 0.88635 0.58136 0.85004 0.0
C3094 C 0.8789 0.58755 0.87972 0.0
C3095 C 0.88804 0.59427 0.90438 0.0
C3096 C 0.86163 0.58711 0.88552 0.0
C3097 C 0.87723 0.57365 0.82365 0.0
C3098 C 0.85136 0.59109 0.85689 0.0
C3099 C 0.8351 0.59019 0.86166 0.0
C3100 C 0.82875 0.58529 0.89521 0.0
C3101 C 0.8391 0.58157 0.92423 0.0
C3102 C 0.85536 0.58252 0.9195 0.0
H3103 H 0.885 0.56755 0.80859 0.0
H3104 H 0.86821 0.56889 0.84002 0.0
H3105 H 0.87115 0.57878 0.80142 0.0
H3106 H 0.85593 0.5948 0.83064 0.0
H3107 H 0.82754 0.59308 0.8386 0.0
H3108 H 0.32473 0.64979 0.90701 0.0
H3109 H 0.35266 0.64975 0.92508 0.0
H3110 H 0.36301 0.67125 0.82801 0.0
H3111 H 0.33538 0.67154 0.81052 0.0
H3112 H 0.37855 0.64239 0.88012 0.0
H3113 H 0.38435 0.68754 0.91764 0.0
H3114 H 0.36557 0.68063 0.91373 0.0
H3115 H 0.37562 0.68541 0.87109 0.0
C3116 C 0.33296 0.65463 0.88993 0.0
C3117 C 0.32781 0.66062 0.85721 0.0
C3118 C 0.34891 0.65455 0.90011 0.0
C3119 C 0.35992 0.6606 0.87811 0.0
C3120 C 0.35474 0.66666 0.84578 0.0
H3121 H 0.45975 0.65389 0.84465 0.0
H3122 H 0.43116 0.6524 0.84249 0.0
C3123 C 0.33891 0.6667 0.83555 0.0
C3124 C 0.37693 0.66037 0.88766 0.0
H3125 H 0.40824 0.67761 0.90471 0.0
C3126 C 0.38503 0.65007 0.88601 0.0
C3127 C 0.38538 0.67036 0.89577 0.0
C3128 C 0.37727 0.6816 0.90007 0.0
C3129 C 0.40142 0.64956 0.89066 0.0
C3130 C 0.40997 0.65965 0.89651 0.0
C3131 C 0.40176 0.66988 0.89976 0.0
C3132 C 0.42743 0.65988 0.89875 0.0
C3133 C 0.40939 0.63821 0.88933 0.0
C3134 C 0.43492 0.66474 0.93075 0.0
C3135 C 0.45128 0.66568 0.93191 0.0
C3136 C 0.46055 0.6618 0.90103 0.0
C3137 C 0.45302 0.6568 0.86919 0.0
C3138 C 0.43664 0.65592 0.86797 0.0
H3139 H 0.40112 0.63129 0.8966 0.0
H3140 H 0.41382 0.63668 0.85967 0.0
H3141 H 0.41947 0.63786 0.90957 0.0
H3142 H 0.4281 0.66789 0.95482 0.0
H3143 H 0.45665 0.66945 0.95707 0.0
H3144 H 0.9645 0.6477 0.40844 0.0
H3145 H 0.93601 0.64484 0.40461 0.0
H3146 H 0.92957 0.68024 0.38165 0.0
H3147 H 0.95775 0.68316 0.38456 0.0
H3148 H 0.91007 0.65636 0.44707 0.0
H3149 H 0.90875 0.66338 0.28875 0.0
H3150 H 0.92653 0.65993 0.31453 0.0
H3151 H 0.91898 0.67408 0.31545 0.0
C3152 C 0.95702 0.65488 0.40264 0.0
C3153 C 0.96353 0.66566 0.39671 0.0
C3154 C 0.94074 0.65323 0.40065 0.0
C3155 C 0.93072 0.6623 0.39234 0.0
C3156 C 0.93711 0.6731 0.38768 0.0
H3157 H 0.83536 0.67959 0.35125 0.0
H3158 H 0.8636 0.67807 0.36023 0.0
C3159 C 0.95329 0.67476 0.38977 0.0
C3160 C 0.91359 0.66061 0.38733 0.0
H3161 H 0.88419 0.66384 0.32134 0.0
C3162 C 0.90438 0.65783 0.41952 0.0
C3163 C 0.90624 0.6625 0.35131 0.0
C3164 C 0.91562 0.66504 0.31541 0.0
C3165 C 0.8879 0.65746 0.41701 0.0
C3166 C 0.88053 0.65977 0.38123 0.0
C3167 C 0.88983 0.66213 0.3488 0.0
C3168 C 0.8632 0.66051 0.37707 0.0
C3169 C 0.87849 0.65512 0.453 0.0
C3170 C 0.8535 0.65112 0.38344 0.0
C3171 C 0.83723 0.65195 0.37814 0.0
C3172 C 0.83038 0.66216 0.36604 0.0
C3173 C 0.84018 0.67153 0.35989 0.0
C3174 C 0.85637 0.6707 0.36525 0.0
H3175 H 0.88574 0.65579 0.47954 0.0
H3176 H 0.86848 0.66107 0.45536 0.0
H3177 H 0.87368 0.64644 0.45151 0.0
H3178 H 0.85853 0.6431 0.39187 0.0
H3179 H 0.83008 0.64454 0.38271 0.0
H3180 H 0.32782 0.60057 0.37947 0.0
H3181 H 0.35641 0.60241 0.37395 0.0
H3182 H 0.36084 0.56624 0.36935 0.0
H3183 H 0.3324 0.56433 0.37434 0.0
H3184 H 0.38057 0.59216 0.4245 0.0
H3185 H 0.38454 0.57822 0.27184 0.0
H3186 H 0.36651 0.58324 0.29314 0.0
H3187 H 0.37326 0.56917 0.30281 0.0
C3188 C 0.33488 0.59302 0.37702 0.0
C3189 C 0.32779 0.5823 0.37732 0.0
C3190 C 0.3512 0.59408 0.37409 0.0
C3191 C 0.36071 0.58447 0.37086 0.0
C3192 C 0.3537 0.57378 0.37141 0.0
H3193 H 0.45744 0.56617 0.34556 0.0
H3194 H 0.42897 0.56745 0.3505 0.0
C3195 C 0.33743 0.5727 0.37463 0.0
C3196 C 0.378 0.58549 0.36713 0.0
H3197 H 0.40846 0.57944 0.30664 0.0
C3198 C 0.3867 0.5895 0.39864 0.0
C3199 C 0.38592 0.58201 0.33335 0.0
C3200 C 0.37711 0.578 0.29817 0.0
C3201 C 0.4032 0.58968 0.39784 0.0
C3202 C 0.41117 0.58598 0.36426 0.0
C3203 C 0.40238 0.58225 0.33242 0.0
C3204 C 0.42858 0.58538 0.36199 0.0
C3205 C 0.41195 0.59338 0.43351 0.0
C3206 C 0.43792 0.59505 0.36656 0.0
C3207 C 0.45429 0.59433 0.3638 0.0
C3208 C 0.46163 0.58395 0.35588 0.0
C3209 C 0.45221 0.57432 0.35112 0.0
C3210 C 0.4359 0.57503 0.35412 0.0
H3211 H 0.40434 0.59324 0.45954 0.0
H3212 H 0.42228 0.5879 0.43885 0.0
H3213 H 0.41617 0.60214 0.42941 0.0
H3214 H 0.43255 0.60318 0.37175 0.0
H3215 H 0.46118 0.60192 0.36709 0.0
H3216 H 0.07985 0.40689 0.06999 0.0
H3217 H 0.10826 0.40562 0.06001 0.0
H3218 H 0.11599 0.41367 0.17982 0.0
H3219 H 0.08762 0.4149 0.19007 0.0
H3220 H 0.13064 0.42454 0.07927 0.0
H3221 H 0.14282 0.38426 0.15602 0.0
H3222 H 0.12368 0.3877 0.13693 0.0
H3223 H 0.13049 0.39432 0.18036 0.0
C3224 C 0.08759 0.40823 0.09432 0.0
C3225 C 0.08148 0.411 0.13084 0.0
C3226 C 0.1038 0.40756 0.08852 0.0
C3227 C 0.11418 0.40947 0.11925 0.0
C3228 C 0.10815 0.41207 0.15583 0.0
H3229 H 0.21508 0.41021 0.14895 0.0
H3230 H 0.18658 0.40957 0.15708 0.0
C3231 C 0.09195 0.41285 0.16157 0.0
C3232 C 0.13134 0.40928 0.11275 0.0
H3233 H 0.16473 0.39472 0.13461 0.0
C3234 C 0.13812 0.41799 0.09111 0.0
C3235 C 0.14101 0.40079 0.12862 0.0
C3236 C 0.1342 0.39117 0.15162 0.0
C3237 C 0.15441 0.41859 0.08556 0.0
C3238 C 0.16414 0.41002 0.1011 0.0
C3239 C 0.1573 0.40127 0.12261 0.0
C3240 C 0.18146 0.4101 0.09589 0.0
C3241 C 0.16104 0.42861 0.06423 0.0
C3242 C 0.18811 0.41037 0.05881 0.0
C3243 C 0.20438 0.41085 0.05415 0.0
C3244 C 0.21436 0.41083 0.08646 0.0
C3245 C 0.20771 0.41017 0.12352 0.0
C3246 C 0.19142 0.40984 0.12818 0.0
H3247 H 0.1528 0.43587 0.0645 0.0
H3248 H 0.17235 0.43137 0.07699 0.0
H3249 H 0.16311 0.42626 0.03366 0.0
H3250 H 0.18071 0.41022 0.03341 0.0
H3251 H 0.20919 0.41114 0.02525 0.0
H3252 H 0.58513 0.31482 0.09166 0.0
H3253 H 0.61353 0.31648 0.09746 0.0
H3254 H 0.60917 0.35256 0.10853 0.0
H3255 H 0.58062 0.35095 0.10282 0.0
H3256 H 0.63435 0.32789 0.05147 0.0
H3257 H 0.63629 0.34459 0.20128 0.0
H3258 H 0.61878 0.33855 0.18064 0.0
H3259 H 0.62456 0.35266 0.16827 0.0
C3260 C 0.59017 0.32313 0.09507 0.0
C3261 C 0.58055 0.33275 0.09677 0.0
C3262 C 0.60643 0.32406 0.09858 0.0
C3263 C 0.61349 0.33462 0.10397 0.0
C3264 C 0.60397 0.34428 0.10529 0.0
H3265 H 0.71355 0.35104 0.12677 0.0
H3266 H 0.68502 0.35251 0.11871 0.0
C3267 C 0.58765 0.34336 0.10194 0.0
C3268 C 0.63083 0.33542 0.10735 0.0
H3269 H 0.6605 0.34296 0.16851 0.0
C3270 C 0.64006 0.33121 0.07704 0.0
C3271 C 0.63828 0.3398 0.14067 0.0
C3272 C 0.62901 0.34408 0.17475 0.0
C3273 C 0.65649 0.33115 0.07927 0.0
C3274 C 0.66391 0.3353 0.11287 0.0
C3275 C 0.65475 0.33979 0.14279 0.0
C3276 C 0.68114 0.3345 0.11816 0.0
C3277 C 0.66581 0.32663 0.04564 0.0
C3278 C 0.68834 0.3239 0.12106 0.0
C3279 C 0.70457 0.32303 0.1257 0.0
C3280 C 0.71397 0.33276 0.12755 0.0
C3281 C 0.70668 0.34339 0.12502 0.0
C3282 C 0.69039 0.34425 0.12062 0.0
H3283 H 0.65874 0.32641 0.01871 0.0
H3284 H 0.67644 0.33182 0.04052 0.0
H3285 H 0.66966 0.3179 0.05221 0.0
H3286 H 0.68138 0.31627 0.11969 0.0
H3287 H 0.70977 0.31472 0.12712 0.0
H3288 H 0.21279 0.35181 0.6251 0.0
H3289 H 0.18416 0.35327 0.62097 0.0
H3290 H 0.18039 0.31716 0.632 0.0
H3291 H 0.20885 0.31566 0.63642 0.0
H3292 H 0.16368 0.34444 0.56889 0.0
H3293 H 0.15012 0.32757 0.714 0.0
H3294 H 0.16966 0.33175 0.70009 0.0
H3295 H 0.16217 0.31812 0.68659 0.0
C3296 C 0.20585 0.34418 0.62666 0.0
C3297 C 0.21313 0.33362 0.6315 0.0
C3298 C 0.18949 0.34503 0.62442 0.0
C3299 C 0.18008 0.33535 0.62701 0.0
C3300 C 0.18734 0.32479 0.63114 0.0
H3301 H 0.08457 0.3157 0.5928 0.0
H3302 H 0.11292 0.31745 0.60101 0.0
C3303 C 0.20365 0.32394 0.63362 0.0
C3304 C 0.1627 0.33616 0.62418 0.0
H3305 H 0.12877 0.32819 0.669 0.0
C3306 C 0.15604 0.34103 0.59102 0.0
C3307 C 0.15271 0.33177 0.65317 0.0
C3308 C 0.15903 0.32712 0.69064 0.0
C3309 C 0.13971 0.34118 0.58536 0.0
C3310 C 0.12981 0.33639 0.61365 0.0
C3311 C 0.13642 0.3318 0.64724 0.0
C3312 C 0.11261 0.33555 0.60812 0.0
C3313 C 0.13313 0.3461 0.54861 0.0
C3314 C 0.10303 0.34516 0.60961 0.0
C3315 C 0.08676 0.3442 0.60497 0.0
C3316 C 0.07982 0.3336 0.59852 0.0
C3317 C 0.08952 0.32401 0.59707 0.0
C3318 C 0.10573 0.32497 0.60202 0.0
H3319 H 0.14246 0.34816 0.52737 0.0
H3320 H 0.12477 0.3401 0.53513 0.0
H3321 H 0.12659 0.35394 0.55541 0.0
H3322 H 0.10812 0.3534 0.61463 0.0
H3323 H 0.07963 0.35174 0.60605 0.0
H3324 H 0.57948 0.39514 0.61119 0.0
H3325 H 0.60785 0.3936 0.60267 0.0
H3326 H 0.61389 0.42664 0.6521 0.0
H3327 H 0.58563 0.42841 0.66 0.0
H3328 H 0.6279 0.40841 0.55967 0.0
H3329 H 0.64442 0.40638 0.71447 0.0
H3330 H 0.62472 0.4037 0.69768 0.0
H3331 H 0.6317 0.41792 0.70224 0.0
C3332 C 0.58677 0.40212 0.62012 0.0
C3333 C 0.58012 0.4119 0.63645 0.0
C3334 C 0.60303 0.40119 0.61539 0.0
C3335 C 0.61299 0.40993 0.62726 0.0
C3336 C 0.60644 0.41968 0.64348 0.0
H3337 H 0.70716 0.42788 0.56488 0.0
H3338 H 0.67893 0.42614 0.57358 0.0
C3339 C 0.59022 0.42066 0.64804 0.0
C3340 C 0.6302 0.40908 0.62151 0.0
H3341 H 0.66516 0.40951 0.66963 0.0
C3342 C 0.63605 0.40856 0.5837 0.0
C3343 C 0.6408 0.40915 0.65292 0.0
C3344 C 0.63514 0.40921 0.69416 0.0
C3345 C 0.65226 0.40849 0.57642 0.0
C3346 C 0.66287 0.40906 0.60777 0.0
C3347 C 0.65701 0.40918 0.64563 0.0
C3348 C 0.68006 0.4099 0.6018 0.0
C3349 C 0.65793 0.40784 0.53523 0.0
C3350 C 0.69013 0.40141 0.61532 0.0
C3351 C 0.70637 0.40233 0.61015 0.0
C3352 C 0.71288 0.41182 0.59168 0.0
C3353 C 0.70267 0.42034 0.57851 0.0
C3354 C 0.68647 0.41938 0.58352 0.0
H3355 H 0.64868 0.40461 0.51557 0.0
H3356 H 0.66127 0.41641 0.52531 0.0
H3357 H 0.6684 0.40232 0.53289 0.0
H3358 H 0.68541 0.39404 0.62964 0.0
H3359 H 0.71375 0.39554 0.62036 0.0
H3360 H 0.051 0.09439 0.24935 0.0
H3361 H 0.04898 0.10255 0.185 0.0
H3362 H 1.00887 0.12206 0.22129 0.0
H3363 H 1.01117 0.11411 0.28656 0.0
H3364 H 0.0248 0.10039 0.13533 0.0
H3365 H 0.03541 0.14563 0.16804 0.0
H3366 H 0.03925 0.1346 0.20264 0.0
H3367 H 1.01951 0.13934 0.19428 0.0
C3368 C 0.04188 0.10055 0.2438 0.0
C3369 C 0.03126 0.10365 0.27286 0.0
C3370 C 0.0407 0.10516 0.20698 0.0
C3371 C 0.0288 0.11292 0.19833 0.0
C3372 C 1.01831 0.11623 0.22752 0.0
H3373 H 1.00907 0.13078 0.95591 0.0
H3374 H 1.00696 0.12197 0.01993 0.0
C3375 C 1.01963 0.1117 0.26473 0.0
C3376 C 0.02731 0.11717 0.15831 0.0
H3377 H 0.02967 0.14097 0.10349 0.0
C3378 C 0.0258 0.10927 0.12829 0.0
C3379 C 0.02866 0.12875 0.14932 0.0
C3380 C 0.03093 0.13758 0.18017 0.0
C3381 C 0.02612 0.1126 0.08943 0.0
C3382 C 0.0276 0.12417 0.08047 0.0
C3383 C 0.02856 0.1321 0.11051 0.0
C3384 C 0.02931 0.12828 0.04033 0.0
C3385 C 0.02556 0.10367 0.05844 0.0
C3386 C 0.04261 0.13459 0.03048 0.0
C3387 C 0.0437 0.13971 -0.00556 0.0
C3388 C 0.03159 0.13851 0.96736 0.0
C3389 C 1.01865 0.13167 0.9762 0.0
C3390 C 1.01744 0.12666 0.01271 0.0
H3391 H 0.02816 0.09515 0.07013 0.0
H3392 H 1.01364 0.10347 0.04564 0.0
H3393 H 0.03405 0.10556 0.03503 0.0
H3394 H 0.05195 0.13588 0.05124 0.0
H3395 H 0.0538 0.14494 0.9882 0.0
H3396 H 0.25259 0.08986 0.99343 0.0
H3397 H 0.25356 0.09838 0.05716 0.0
H3398 H 0.2769 0.12752 0.00996 0.0
H3399 H 0.27618 0.11891 0.94534 0.0
H3400 H 0.29048 0.11856 0.08021 0.0
H3401 H 0.22623 0.12504 0.09241 0.0
H3402 H 0.23175 0.11092 0.07963 0.0
H3403 H 0.23581 0.12231 0.0469 0.0
C3404 C 0.2579 0.09811 -0.00366 0.0
C3405 C 0.26424 0.10375 0.96421 0.0
C3406 C 0.25839 0.10297 0.03288 0.0
C3407 C 0.26512 0.11361 0.03814 0.0
C3408 C 0.2716 0.11929 0.00633 0.0
H3409 H 0.25319 0.15647 0.23406 0.0
H3410 H 0.25425 0.14741 0.17138 0.0
C3411 C 0.27112 0.11441 0.9695 0.0
C3412 C 0.26528 0.11869 0.07711 0.0
H3413 H 0.24112 0.12731 0.14977 0.0
C3414 C 0.27972 0.12055 0.09544 0.0
C3415 C 0.25119 0.12126 0.09674 0.0
C3416 C 0.23536 0.11989 0.07784 0.0
C3417 C 0.28044 0.12485 0.1332 0.0
C3418 C 0.26633 0.12718 0.15311 0.0
C3419 C 0.25191 0.12537 0.1346 0.0
C3420 C 0.26614 0.13245 0.19183 0.0
C3421 C 0.29624 0.1271 0.15115 0.0
C3422 C 0.27238 0.12698 0.22442 0.0
C3423 C 0.27183 0.13219 0.26075 0.0
C3424 C 0.26496 0.1429 0.26482 0.0
C3425 C 0.25859 0.14822 0.23209 0.0
C3426 C 0.25918 0.14306 0.1961 0.0
H3427 H 0.3058 0.12698 0.12938 0.0
H3428 H 0.29631 0.1354 0.16599 0.0
H3429 H 0.29877 0.1205 0.173 0.0
H3430 H 0.27756 0.11868 0.2218 0.0
H3431 H 0.27681 0.12789 0.28547 0.0
H3432 H 0.99302 0.84094 0.98719 0.0
H3433 H 0.9945 0.84939 0.92334 0.0
H3434 H 1.02012 0.87758 0.9702 0.0
H3435 H 1.01896 0.869 0.03472 0.0
H3436 H 0.98364 0.86956 0.89672 0.0
H3437 H 0.04838 0.86676 0.88184 0.0
H3438 H 0.03772 0.85944 0.91924 0.0
H3439 H 0.04178 0.87424 0.92389 0.0
C3440 C 0.99895 0.84896 0.98411 0.0
C3441 C 1.00598 0.85427 0.016 0.0
C3442 C 0.99977 0.85377 0.94751 0.0
C3443 C 1.00767 0.86399 0.94191 0.0
C3444 C 1.01427 0.86955 0.97383 0.0
H3445 H 1.00101 0.90795 0.74736 0.0
H3446 H 0.99966 0.8983 0.80911 0.0
C3447 C 1.01346 0.86471 0.01068 0.0
C3448 C 1.00876 0.86874 0.9025 0.0
H3449 H 0.03467 0.87641 0.83207 0.0
C3450 C 0.9948 0.87104 0.88256 0.0
C3451 C 0.02333 0.87042 0.88382 0.0
C3452 C 0.03867 0.86749 0.90308 0.0
C3453 C 0.995 0.87521 0.84473 0.0
C3454 C 1.00956 0.87733 0.82664 0.0
C3455 C 0.02353 0.8748 0.84615 0.0
C3456 C 1.01045 0.88294 0.78859 0.0
C3457 C 0.97962 0.87729 0.82439 0.0
C3458 C 1.01727 0.87754 0.75663 0.0
C3459 C 1.01813 0.88307 0.72092 0.0
C3460 C 1.0123 0.89411 0.717 0.0
C3461 C 1.00557 0.89944 0.74925 0.0
C3462 C 1.0047 0.89393 0.78463 0.0
H3463 H 0.96997 0.87227 0.83735 0.0
H3464 H 0.97648 0.88634 0.82702 0.0
H3465 H 0.98047 0.8752 0.79322 0.0
H3466 H 0.02186 0.86906 0.75931 0.0
H3467 H 0.02345 0.87879 0.69663 0.0
H3468 H 0.76338 0.86476 0.71903 0.0
H3469 H 0.75794 0.87346 0.78194 0.0
H3470 H 0.80098 0.85955 0.82697 0.0
H3471 H 0.80626 0.8507 0.76472 0.0
H3472 H 0.77471 0.85409 0.87075 0.0
H3473 H 0.7774 0.90013 0.83995 0.0
H3474 H 0.76474 0.8919 0.8095 0.0
H3475 H 0.78556 0.88975 0.80758 0.0
C3476 C 0.77191 0.8639 0.74203 0.0
C3477 C 0.78527 0.85711 0.73715 0.0
C3478 C 0.76875 0.86881 0.77797 0.0
C3479 C 0.77904 0.8671 0.80911 0.0
C3480 C 0.79284 0.86089 0.80339 0.0
H3481 H 0.79635 0.89808 0.02139 0.0
H3482 H 0.79517 0.88956 0.95755 0.0
C3483 C 0.7959 0.85592 0.76778 0.0
C3484 C 0.77516 0.87105 0.84847 0.0
H3485 H 0.77166 0.8947 0.90368 0.0
C3486 C 0.77388 0.86297 0.878 0.0
C3487 C 0.77401 0.88262 0.85762 0.0
C3488 C 0.77559 0.89164 0.82715 0.0
C3489 C 0.77224 0.86617 0.91678 0.0
C3490 C 0.77162 0.87775 0.92605 0.0
C3491 C 0.77212 0.88581 0.89633 0.0
C3492 C 0.77252 0.88178 0.96639 0.0
C3493 C 0.77203 0.8572 0.94766 0.0
C3494 C 0.76037 0.87989 0.99307 0.0
C3495 C 0.76113 0.88467 0.03009 0.0
C3496 C 0.77394 0.89147 0.04034 0.0
C3497 C 0.78631 0.89291 0.01408 0.0
C3498 C 0.78562 0.8881 0.97756 0.0
H3499 H 0.77489 0.84872 0.93598 0.0
H3500 H 0.78054 0.85927 0.97086 0.0
H3501 H 0.76019 0.85683 0.96085 0.0
H3502 H 0.7501 0.87511 0.98482 0.0
H3503 H 0.75138 0.88357 0.04977 0.0
H3504 H 0.05532 0.60309 0.74003 0.0
H3505 H 0.05105 0.61234 0.67796 0.0
H3506 H 1.00551 0.62357 0.71622 0.0
H3507 H 1.00993 0.61447 0.77905 0.0
H3508 H 0.02665 0.60573 0.62964 0.0
H3509 H 0.02365 0.65162 0.66272 0.0
H3510 H 0.03208 0.64154 0.69585 0.0
H3511 H 1.01119 0.64253 0.69073 0.0
C3512 C 0.04461 0.60785 0.73563 0.0
C3513 C 0.03299 0.60814 0.76425 0.0
C3514 C 0.04213 0.61305 0.7001 0.0
C3515 C 0.02794 0.61858 0.69241 0.0
C3516 C 1.01662 0.61946 0.72174 0.0
H3517 H 1.00564 0.63384 0.44739 0.0
H3518 H 1.0032 0.62561 0.51246 0.0
C3519 C 1.01919 0.61433 0.75765 0.0
C3520 C 0.02475 0.62255 0.65264 0.0
H3521 H 1.02031 0.64623 0.59789 0.0
C3522 C 0.02511 0.61458 0.62263 0.0
C3523 C 0.02266 0.63407 0.64377 0.0
C3524 C 0.02246 0.64298 0.67482 0.0
C3525 C 0.02419 0.61788 0.58379 0.0
C3526 C 0.02261 0.62944 0.57485 0.0
C3527 C 0.02149 0.63736 0.60493 0.0
C3528 C 0.02408 0.63369 0.53482 0.0
C3529 C 0.02579 0.60906 0.55266 0.0
C3530 C 0.03666 0.6408 0.52586 0.0
C3531 C 0.03801 0.64548 0.48921 0.0
C3532 C 0.02682 0.64313 0.46057 0.0
C3533 C 1.01451 0.63566 0.46888 0.0
C3534 C 1.01308 0.63101 0.50598 0.0
H3535 H 0.02947 0.60076 0.56446 0.0
H3536 H 1.01433 0.60796 0.53798 0.0
H3537 H 0.03447 0.61176 0.53064 0.0
H3538 H 0.04535 0.64289 0.54753 0.0
H3539 H 0.04768 0.65117 0.48354 0.0
H3540 H 0.27048 0.63115 0.77943 0.0
H3541 H 0.27195 0.62097 0.71771 0.0
H3542 H 0.23874 0.64424 0.66788 0.0
H3543 H 0.23703 0.65425 0.72908 0.0
H3544 H 0.23312 0.62219 0.64727 0.0
H3545 H 0.29548 0.63401 0.62387 0.0
H3546 H 0.29149 0.62661 0.66807 0.0
H3547 H 0.28349 0.64046 0.6607 0.0
C3548 C 0.26328 0.63393 0.75548 0.0
C3549 C 0.25374 0.64354 0.75891 0.0
C3550 C 0.26427 0.6282 0.72018 0.0
C3551 C 0.25572 0.63203 0.68805 0.0
C3552 C 0.24554 0.64122 0.69221 0.0
H3553 H 0.26861 0.6189 0.44171 0.0
H3554 H 0.26722 0.62788 0.50574 0.0
C3555 C 0.24458 0.64693 0.72723 0.0
C3556 C 0.25752 0.62677 0.64958 0.0
H3557 H 0.28365 0.6225 0.57628 0.0
C3558 C 0.24417 0.62222 0.63179 0.0
C3559 C 0.27189 0.62707 0.62918 0.0
C3560 C 0.2864 0.63238 0.64617 0.0
C3561 C 0.24483 0.61785 0.59426 0.0
C3562 C 0.25929 0.61785 0.57426 0.0
C3563 C 0.27261 0.6225 0.59181 0.0
C3564 C 0.26086 0.61255 0.53583 0.0
C3565 C 0.22997 0.61341 0.57612 0.0
C3566 C 0.2581 0.60098 0.53193 0.0
C3567 C 0.2588 0.59591 0.49579 0.0
C3568 C 0.26243 0.60226 0.46268 0.0
C3569 C 0.26571 0.61382 0.46668 0.0
C3570 C 0.26494 0.61893 0.50314 0.0
H3571 H 0.21935 0.61683 0.59052 0.0
H3572 H 0.22944 0.61554 0.54493 0.0
H3573 H 0.22971 0.60409 0.57897 0.0
H3574 H 0.25527 0.59588 0.55691 0.0
H3575 H 0.25642 0.58696 0.49391 0.0
H3576 H 0.0251 0.36832 0.53795 0.0
H3577 H 0.02505 0.37827 0.47556 0.0
H3578 H 0.9984 0.35116 0.42495 0.0
H3579 H 0.99821 0.34132 0.48646 0.0
H3580 H 0.03692 0.36995 0.40335 0.0
H3581 H 0.97335 0.37946 0.39576 0.0
H3582 H 0.98303 0.37561 0.44021 0.0
H3583 H 0.97747 0.36493 0.40604 0.0
C3584 C 1.01909 0.36458 0.51358 0.0
C3585 C 1.01163 0.35406 0.51713 0.0
C3586 C 1.01912 0.37023 0.47803 0.0
C3587 C 1.01156 0.36548 0.44588 0.0
C3588 C 1.00406 0.35505 0.44957 0.0
H3589 H 0.02296 0.37874 0.19974 0.0
H3590 H 0.02318 0.37017 0.2644 0.0
C3591 C 1.00405 0.34942 0.4848 0.0
C3592 C 1.01179 0.37112 0.40785 0.0
H3593 H 0.9877 0.38097 0.33686 0.0
C3594 C 0.0262 0.37248 0.38887 0.0
C3595 C 0.99778 0.37442 0.38923 0.0
C3596 C 0.98204 0.37364 0.40897 0.0
C3597 C 0.02692 0.37685 0.35123 0.0
C3598 C 1.01283 0.37973 0.33204 0.0
C3599 C 0.99847 0.37858 0.35142 0.0
C3600 C 1.01269 0.3846 0.29272 0.0
C3601 C 0.04273 0.37849 0.33254 0.0
C3602 C 1.0063 0.39535 0.28716 0.0
C3603 C 1.00599 0.40016 0.25053 0.0
C3604 C 1.01206 0.39432 0.21852 0.0
C3605 C 1.01823 0.38344 0.22388 0.0
C3606 C 1.01849 0.37859 0.26079 0.0
H3607 H 0.05237 0.37839 0.35412 0.0
H3608 H 0.04485 0.37154 0.31173 0.0
H3609 H 0.04316 0.38658 0.31647 0.0
H3610 H 1.00169 0.40011 0.31134 0.0
H3611 H 1.00112 0.40855 0.2475 0.0
H3612 H 0.78942 0.33622 0.24359 0.0
H3613 H 0.78849 0.34398 0.30839 0.0
H3614 H 0.77095 0.37545 0.26315 0.0
H3615 H 0.77151 0.36758 0.19751 0.0
H3616 H 0.80429 0.36177 0.33684 0.0
H3617 H 0.74015 0.36868 0.35039 0.0
H3618 H 0.74864 0.36027 0.31231 0.0
H3619 H 0.74884 0.3754 0.30913 0.0
C3620 C 0.78531 0.3448 0.2472 0.0
C3621 C 0.78052 0.35129 0.21533 0.0
C3622 C 0.78478 0.34921 0.28439 0.0
C3623 C 0.77946 0.36022 0.29069 0.0
C3624 C 0.77478 0.36683 0.25898 0.0
H3625 H 0.79773 0.40243 0.48406 0.0
H3626 H 0.79712 0.39214 0.42346 0.0
C3627 C 0.77523 0.36237 0.22151 0.0
C3628 C 0.77951 0.36481 0.33046 0.0
H3629 H 0.7562 0.37621 0.40045 0.0
C3630 C 0.79375 0.36487 0.3508 0.0
C3631 C 0.7657 0.36863 0.34889 0.0
C3632 C 0.74993 0.36816 0.32926 0.0
C3633 C 0.79464 0.36893 0.3887 0.0
C3634 C 0.78099 0.37325 0.40647 0.0
C3635 C 0.76665 0.37291 0.38664 0.0
C3636 C 0.78168 0.37902 0.44426 0.0
C3637 C 0.81021 0.36857 0.40938 0.0
C3638 C 0.77306 0.37509 0.4761 0.0
C3639 C 0.77336 0.38101 0.51113 0.0
C3640 C 0.78213 0.39099 0.51442 0.0
C3641 C 0.79086 0.39477 0.48253 0.0
C3642 C 0.7906 0.38887 0.44784 0.0
H3643 H 0.81808 0.36204 0.39695 0.0
H3644 H 0.81611 0.37685 0.40629 0.0
H3645 H 0.80864 0.36682 0.44064 0.0
H3646 H 0.76604 0.36752 0.47372 0.0
H3647 H 0.76644 0.37796 0.53516 0.0
H3648 H 0.54492 0.09177 0.74046 0.0
H3649 H 0.54377 0.10109 0.67806 0.0
H3650 H 0.51504 0.12743 0.72665 0.0
H3651 H 0.51598 0.11799 0.78995 0.0
H3652 H 0.50397 0.11788 0.65402 0.0
H3653 H 0.56654 0.1305 0.64817 0.0
H3654 H 0.56358 0.11589 0.65966 0.0
H3655 H 0.55691 0.12658 0.6926 0.0
C3656 C 0.53841 0.09958 0.73815 0.0
C3657 C 0.53057 0.10417 0.77022 0.0
C3658 C 0.53782 0.10491 0.7024 0.0
C3659 C 0.52946 0.11498 0.69788 0.0
C3660 C 0.52161 0.11966 0.72973 0.0
H3661 H 0.53733 0.15851 0.50115 0.0
H3662 H 0.5362 0.14993 0.56463 0.0
C3663 C 0.52223 0.11431 0.76582 0.0
C3664 C 0.52886 0.1204 0.65947 0.0
H3665 H 0.55229 0.13142 0.58924 0.0
C3666 C 0.51448 0.12094 0.63987 0.0
C3667 C 0.54261 0.12437 0.64126 0.0
C3668 C 0.55827 0.12442 0.66159 0.0
C3669 C 0.51354 0.12522 0.6021 0.0
C3670 C 0.52739 0.12888 0.58349 0.0
C3671 C 0.54172 0.12846 0.6034 0.0
C3672 C 0.52727 0.13393 0.5444 0.0
C3673 C 0.49775 0.12597 0.58268 0.0
C3674 C 0.52263 0.12775 0.5117 0.0
C3675 C 0.52321 0.13268 0.4749 0.0
C3676 C 0.52856 0.14381 0.47045 0.0
C3677 C 0.53319 0.1499 0.50337 0.0
C3678 C 0.53255 0.14502 0.53984 0.0
H3679 H 0.48797 0.12512 0.60368 0.0
H3680 H 0.49646 0.13411 0.56715 0.0
H3681 H 0.49668 0.11907 0.56122 0.0
H3682 H 0.51878 0.11909 0.51458 0.0
H3683 H 0.51959 0.12779 0.45005 0.0
H3684 H 0.74657 0.15494 0.7406 0.0
H3685 H 0.74733 0.1451 0.67915 0.0
H3686 H 0.77663 0.11929 0.72911 0.0
H3687 H 0.7761 0.12927 0.79144 0.0
H3688 H 0.78747 0.12821 0.65663 0.0
H3689 H 0.72493 0.11568 0.65015 0.0
H3690 H 0.72768 0.13037 0.66052 0.0
H3691 H 0.73437 0.11994 0.69447 0.0
C3692 C 0.7531 0.14712 0.73881 0.0
C3693 C 0.76127 0.14287 0.77093 0.0
C3694 C 0.75344 0.14148 0.70362 0.0
C3695 C 0.76188 0.13143 0.69973 0.0
C3696 C 0.76998 0.12704 0.73172 0.0
H3697 H 0.75418 0.08852 0.50019 0.0
H3698 H 0.75472 0.09667 0.56442 0.0
C3699 C 0.76961 0.1327 0.76725 0.0
C3700 C 0.76253 0.12584 0.66163 0.0
H3701 H 0.73918 0.115 0.5909 0.0
C3702 C 0.77696 0.1252 0.64232 0.0
C3703 C 0.74879 0.1219 0.64321 0.0
C3704 C 0.73309 0.1219 0.66327 0.0
C3705 C 0.77796 0.12095 0.60456 0.0
C3706 C 0.76411 0.11744 0.58558 0.0
C3707 C 0.74975 0.11786 0.6053 0.0
C3708 C 0.76427 0.11268 0.54607 0.0
C3709 C 0.79382 0.12011 0.5855 0.0
C3710 C 0.76935 0.11904 0.51416 0.0
C3711 C 0.76911 0.11436 0.47699 0.0
C3712 C 0.76368 0.1033 0.47133 0.0
C3713 C 0.75844 0.09707 0.50339 0.0
C3714 C 0.75874 0.1017 0.54026 0.0
H3715 H 0.8035 0.1206 0.6069 0.0
H3716 H 0.79495 0.11211 0.56913 0.0
H3717 H 0.79522 0.12721 0.5649 0.0
H3718 H 0.77336 0.12762 0.51796 0.0
H3719 H 0.77318 0.11936 0.45284 0.0
H3720 H 0.53308 0.86396 0.52722 0.0
H3721 H 0.53433 0.87246 0.46255 0.0
H3722 H 0.49244 0.85442 0.42994 0.0
H3723 H 0.49146 0.84572 0.49363 0.0
H3724 H 0.51561 0.85152 0.37803 0.0
H3725 H 0.5086 0.89705 0.41188 0.0
H3726 H 0.52444 0.89015 0.43656 0.0
H3727 H 0.50455 0.88614 0.44677 0.0
C3728 C 0.52398 0.86204 0.50642 0.0
C3729 C 0.51218 0.8542 0.51525 0.0
C3730 C 0.5247 0.86688 0.46953 0.0
C3731 C 0.51345 0.86408 0.44143 0.0
C3732 C 0.5013 0.85664 0.45104 0.0
H3733 H 0.48705 0.89658 0.23263 0.0
H3734 H 0.4897 0.88801 0.29628 0.0
C3735 C 0.50071 0.85171 0.48749 0.0
C3736 C 0.51455 0.86834 0.4013 0.0
H3737 H 0.51299 0.89225 0.34674 0.0
C3738 C 0.5151 0.86043 0.37113 0.0
C3739 C 0.51387 0.87996 0.39246 0.0
C3740 C 0.5127 0.88883 0.42354 0.0
C3741 C 0.51444 0.86379 0.33233 0.0
C3742 C 0.51363 0.87541 0.32348 0.0
C3743 C 0.51362 0.88334 0.35364 0.0
C3744 C 0.51159 0.87957 0.28344 0.0
C3745 C 0.51391 0.85486 0.30133 0.0
C3746 C 0.5228 0.8774 0.25463 0.0
C3747 C 0.52114 0.88214 0.21779 0.0
C3748 C 0.5084 0.88927 0.20969 0.0
C3749 C 0.497 0.89112 0.23818 0.0
C3750 C 0.49854 0.88628 0.27461 0.0
H3751 H 0.51087 0.84645 0.31326 0.0
H3752 H 0.50524 0.85707 0.27865 0.0
H3753 H 0.52562 0.8542 0.28754 0.0
H3754 H 0.53311 0.87239 0.26099 0.0
H3755 H 0.53021 0.88073 0.19644 0.0
H3756 H 0.3052 0.90003 0.50998 0.0
H3757 H 0.30447 0.89075 0.44721 0.0
H3758 H 0.26201 0.87345 0.4799 0.0
H3759 H 0.263 0.8825 0.54375 0.0
H3760 H 0.2816 0.86001 0.43815 0.0
H3761 H 0.27439 0.90102 0.3643 0.0
H3762 H 0.29174 0.90077 0.39352 0.0
H3763 H 0.27276 0.89953 0.41597 0.0
C3764 C 0.29581 0.89413 0.50396 0.0
C3765 C 0.28405 0.89204 0.53138 0.0
C3766 C 0.29534 0.88891 0.46802 0.0
C3767 C 0.28289 0.88173 0.45846 0.0
C3768 C 0.2716 0.87909 0.48661 0.0
H3769 H 0.26441 0.86425 0.21756 0.0
H3770 H 0.26306 0.87252 0.28228 0.0
C3771 C 0.27221 0.8842 0.52303 0.0
C3772 C 0.28162 0.87726 0.41873 0.0
H3773 H 0.2818 0.88542 0.32425 0.0
C3774 C 0.28148 0.86555 0.41322 0.0
C3775 C 0.28107 0.88451 0.38627 0.0
C3776 C 0.27982 0.89715 0.39029 0.0
C3777 C 0.28151 0.8609 0.376 0.0
C3778 C 0.28219 0.86816 0.34357 0.0
C3779 C 0.28162 0.87986 0.34912 0.0
C3780 C 0.28361 0.8638 0.3037 0.0
C3781 C 0.28068 0.84824 0.37189 0.0
C3782 C 0.296 0.85656 0.29382 0.0
C3783 C 0.29671 0.85178 0.25711 0.0
C3784 C 0.28525 0.85435 0.22937 0.0
C3785 C 0.27345 0.86218 0.23839 0.0
C3786 C 0.2726 0.86684 0.27538 0.0
H3787 H 0.27517 0.84428 0.39759 0.0
H3788 H 0.27392 0.84577 0.34586 0.0
H3789 H 0.29274 0.8448 0.36926 0.0
H3790 H 0.30494 0.85443 0.31478 0.0
H3791 H 0.30603 0.84585 0.25073 0.0
H3792 H 0.50617 0.63218 0.9595 0.0
H3793 H 0.50267 0.62416 0.02442 0.0
H3794 H 0.54405 0.64173 0.06326 0.0
H3795 H 0.54728 0.64996 -0.0007 0.0
H3796 H 0.52046 0.61108 0.07028 0.0
H3797 H 0.51222 0.65234 0.14098 0.0
H3798 H 0.51191 0.6507 0.08919 0.0
H3799 H 0.53027 0.65207 0.11454 0.0
C3800 C 0.51458 0.63419 0.98188 0.0
C3801 C 0.52689 0.64176 0.97465 0.0
C3802 C 0.51252 0.62969 0.01892 0.0
C3803 C 0.5228 0.63267 0.04896 0.0
C3804 C 0.53563 0.63966 0.04093 0.0
H3805 H 0.54855 0.5985 0.25306 0.0
H3806 H 0.54499 0.60691 0.18945 0.0
C3807 C 0.53757 0.64426 0.00427 0.0
C3808 C 0.52043 0.62842 0.08872 0.0
H3809 H 0.52007 0.63698 0.1828 0.0
C3810 C 0.52011 0.61674 0.09485 0.0
C3811 C 0.51952 0.6358 0.12077 0.0
C3812 C 0.51831 0.64842 0.116 0.0
C3813 C 0.52 0.61225 0.1323 0.0
C3814 C 0.5207 0.61965 0.16434 0.0
C3815 C 0.5199 0.63132 0.15823 0.0
C3816 C 0.52333 0.61543 0.20404 0.0
C3817 C 0.51932 0.59961 0.13709 0.0
C3818 C 0.51292 0.61808 0.23415 0.0
C3819 C 0.51515 0.61347 0.271 0.0
C3820 C 0.52778 0.60614 0.27793 0.0
C3821 C 0.5386 0.60402 0.2483 0.0
C3822 C 0.53649 0.60872 0.21185 0.0
H3823 H 0.51337 0.59557 0.11214 0.0
H3824 H 0.53143 0.59621 0.13852 0.0
H3825 H 0.51304 0.59721 0.16393 0.0
H3826 H 0.50281 0.62339 0.22881 0.0
H3827 H 0.50661 0.61519 0.29339 0.0
H3828 H 0.74993 0.65723 0.24685 0.0
H3829 H 0.75007 0.64814 0.18407 0.0
H3830 H 0.77309 0.61908 0.23302 0.0
H3831 H 0.77321 0.62827 0.29673 0.0
H3832 H 0.78655 0.62737 0.16223 0.0
H3833 H 0.72218 0.62167 0.15085 0.0
H3834 H 0.72792 0.63581 0.16261 0.0
H3835 H 0.73187 0.62457 0.19609 0.0
C3836 C 0.75496 0.64887 0.24456 0.0
C3837 C 0.76151 0.64344 0.27687 0.0
C3838 C 0.75497 0.64368 0.20857 0.0
C3839 C 0.7614 0.63291 0.20406 0.0
C3840 C 0.768 0.6274 0.23611 0.0
H3841 H 0.74853 0.59019 0.00738 0.0
H3842 H 0.74938 0.59913 0.07032 0.0
C3843 C 0.768 0.63262 0.27241 0.0
C3844 C 0.76135 0.6276 0.16548 0.0
H3845 H 0.73687 0.6193 0.09305 0.0
C3846 C 0.77572 0.62551 0.14712 0.0
C3847 C 0.74718 0.6252 0.14601 0.0
C3848 C 0.73141 0.62682 0.16499 0.0
C3849 C 0.77628 0.62118 0.1094 0.0
C3850 C 0.76208 0.61909 0.08955 0.0
C3851 C 0.74774 0.62108 0.10816 0.0
C3852 C 0.76174 0.61397 0.05064 0.0
C3853 C 0.79201 0.61868 0.09141 0.0
C3854 C 0.76823 0.61945 0.01839 0.0
C3855 C 0.7678 0.61431 0.98196 0.0
C3856 C 0.76082 0.60366 0.97746 0.0
C3857 C 0.75407 0.59838 0.00976 0.0
C3858 C 0.75452 0.60347 0.04588 0.0
H3859 H 0.80155 0.61852 0.11324 0.0
H3860 H 0.79179 0.61045 0.07616 0.0
H3861 H 0.7948 0.62533 0.06993 0.0
H3862 H 0.7736 0.62767 0.02141 0.0
H3863 H 0.77307 0.61858 0.95756 0.0
H3864 H 0.50279 0.3388 0.98525 0.0
H3865 H 0.50301 0.34774 0.92228 0.0
H3866 H 0.52402 0.3775 0.97163 0.0
H3867 H 0.52413 0.36842 0.03555 0.0
H3868 H 0.48829 0.36705 0.8997 0.0
H3869 H 0.55281 0.37031 0.87966 0.0
H3870 H 0.54406 0.36166 0.91673 0.0
H3871 H 0.54529 0.37666 0.92299 0.0
C3872 C 0.5075 0.34725 0.98297 0.0
C3873 C 0.51349 0.3529 0.01548 0.0
C3874 C 0.50761 0.35234 0.94682 0.0
C3875 C 0.5137 0.36321 0.94217 0.0
C3876 C 0.51953 0.369 0.97454 0.0
H3877 H 0.49692 0.40583 0.74572 0.0
H3878 H 0.49766 0.39663 0.80839 0.0
C3879 C 0.51947 0.36386 0.01101 0.0
C3880 C 0.51344 0.3684 0.9033 0.0
H3881 H 0.53681 0.37831 0.83083 0.0
C3882 C 0.4989 0.36952 0.88466 0.0
C3883 C 0.52732 0.37142 0.88352 0.0
C3884 C 0.54329 0.36988 0.9015 0.0
C3885 C 0.49785 0.37366 0.84686 0.0
C3886 C 0.51168 0.37697 0.82746 0.0
C3887 C 0.52624 0.37576 0.84587 0.0
C3888 C 0.51112 0.38227 0.78883 0.0
C3889 C 0.48195 0.3743 0.82785 0.0
C3890 C 0.51864 0.3773 0.75701 0.0
C3891 C 0.5183 0.38258 0.72082 0.0
C3892 C 0.51054 0.39296 0.71621 0.0
C3893 C 0.50296 0.39782 0.74818 0.0
C3894 C 0.5033 0.39256 0.78409 0.0
H3895 H 0.47341 0.36852 0.8418 0.0
H3896 H 0.47733 0.38302 0.8305 0.0
H3897 H 0.48269 0.37218 0.79669 0.0
H3898 H 0.5248 0.36936 0.76024 0.0
H3899 H 0.52433 0.37868 0.69678 0.0
H3900 H 0.25916 0.36499 0.69568 0.0
H3901 H 0.25739 0.37305 0.76094 0.0
H3902 H 0.2994 0.35513 0.79368 0.0
H3903 H 0.30094 0.34689 0.72941 0.0
H3904 H 0.27578 0.35194 0.84505 0.0
H3905 H 0.28316 0.39756 0.81253 0.0
H3906 H 0.26749 0.39067 0.78718 0.0
H3907 H 0.28745 0.38671 0.77759 0.0
C3908 C 0.26814 0.36298 0.7167 0.0
C3909 C 0.28017 0.35533 0.70767 0.0
C3910 C 0.26712 0.36756 0.75389 0.0
C3911 C 0.27828 0.36469 0.78212 0.0
C3912 C 0.2906 0.35739 0.77246 0.0
H3913 H 0.30494 0.39658 0.99096 0.0
H3914 H 0.30239 0.38777 0.92766 0.0
C3915 C 0.29151 0.35273 0.73568 0.0
C3916 C 0.27704 0.36883 0.8223 0.0
H3917 H 0.27892 0.39257 0.87749 0.0
C3918 C 0.27638 0.36083 0.85222 0.0
C3919 C 0.27787 0.38041 0.83144 0.0
C3920 C 0.27916 0.38936 0.80059 0.0
C3921 C 0.27707 0.36409 0.89111 0.0
C3922 C 0.27808 0.37567 0.90023 0.0
C3923 C 0.27817 0.38368 0.87033 0.0
C3924 C 0.28021 0.37972 0.94029 0.0
C3925 C 0.27744 0.35509 0.92192 0.0
C3926 C 0.26884 0.37778 0.96889 0.0
C3927 C 0.27044 0.38265 0.00551 0.0
C3928 C 0.28328 0.38967 0.01353 0.0
C3929 C 0.29492 0.39121 0.9854 0.0
C3930 C 0.29343 0.38624 0.9492 0.0
H3931 H 0.2802 0.34665 0.90978 0.0
H3932 H 0.28625 0.35713 0.94446 0.0
H3933 H 0.26577 0.3546 0.93596 0.0
H3934 H 0.25843 0.37291 0.96243 0.0
H3935 H 0.26121 0.38149 0.02661 0.0
loop_
_geom_bond_atom_site_label_1
_geom_bond_atom_site_label_2
_geom_bond_distance
_geom_bond_site_symmetry_2
_ccdc_geom_bond_type
C0 C1 1.351 . S
C0 N3 1.368 . S
C0 H5 0.931 . S
C1 C0 1.351 . S
C1 N2 1.373 . S
C1 H29 0.930 . S
N2 C1 1.373 . S
N2 C4 1.340 . S
N3 C0 1.368 . S
N3 C4 1.321 . S
N3 Co6 2.195 . S
C4 N2 1.340 . S
C4 N3 1.321 . S
C4 H28 0.930 . S
H5 C0 0.931 . S
Co6 N3 2.195 . S
Co6 N9 2.060 1_655 S
Co6 O14 2.054 . S
Co6 O17 2.049 . S
Co6 N20 2.136 1_655 S
C7 O8 1.227 . S
C7 O17 1.265 . S
O8 C7 1.227 . S
N9 Co6 2.060 1_455 S
N9 C11 1.375 . S
N9 C12 1.313 . S
C10 C11 1.338 . S
C10 N13 1.377 . S
C10 H30 0.930 . S
C11 N9 1.375 . S
C11 C10 1.338 . S
C11 H15 0.931 . S
C12 N9 1.313 . S
C12 N13 1.344 . S
C12 H16 0.930 . S
N13 C10 1.377 . S
N13 C12 1.344 . S
O14 Co6 2.054 . S
O14 C18 1.249 1_655 S
H15 C11 0.931 . S
H16 C12 0.930 . S
O17 Co6 2.049 . S
O17 C7 1.265 . S
C18 O14 1.249 1_455 S
C18 O19 1.227 . S
O19 C18 1.227 . S
N20 Co6 2.136 1_455 S
N20 C23 1.346 1_455 S
N20 C24 1.345 . S
C21 C22 1.387 1_455 S
C21 C25 1.391 . S
C22 C21 1.387 1_655 S
C22 C23 1.369 . S
C22 H31 0.929 . S
C23 N20 1.346 1_655 S
C23 C22 1.369 . S
C23 H26 0.928 . S
C24 N20 1.345 . S
C24 C25 1.371 . S
C24 H27 0.931 . S
C25 C21 1.391 . S
C25 C24 1.371 . S
C25 H32 0.930 . S
H26 C23 0.928 . S
H27 C24 0.931 . S
H28 C4 0.930 . S
H29 C1 0.930 . S
H30 C10 0.930 . S
H31 C22 0.929 . S
H32 C25 0.930 . S
C33 C34 1.351 . S
C33 N36 1.368 . S
C33 H38 0.931 . S
C34 C33 1.351 . S
C34 N35 1.373 . S
C34 H62 0.930 . S
N35 C34 1.373 . S
N35 C37 1.340 . S
N36 C33 1.368 . S
N36 C37 1.321 . S
N36 Co39 2.135 . S
C37 N35 1.340 . S
C37 N36 1.321 . S
C37 H61 0.930 . S
H38 C33 0.931 . S
Co39 N36 2.135 . S
Co39 N42 2.121 . S
Co39 O47 2.055 . S
Co39 O50 2.039 . S
Co39 N53 2.140 . S
C40 O41 1.227 . S
C40 O50 1.265 . S
O41 C40 1.227 . S
N42 Co39 2.121 . S
N42 C44 1.375 . S
N42 C45 1.313 . S
C43 C44 1.338 . S
C43 N46 1.377 . S
C43 H63 0.930 . S
C44 N42 1.375 . S
C44 C43 1.338 . S
C44 H48 0.931 . S
C45 N42 1.313 . S
C45 N46 1.344 . S
C45 H49 0.930 . S
N46 C43 1.377 . S
N46 C45 1.344 . S
O47 Co39 2.055 . S
O47 C51 1.253 . S
H48 C44 0.931 . S
H49 C45 0.930 . S
O50 Co39 2.039 . S
O50 C40 1.265 . S
C51 O47 1.253 . S
C51 O52 1.227 . S
O52 C51 1.227 . S
N53 Co39 2.140 . S
N53 C56 1.346 . S
N53 C57 1.345 . S
C54 C55 1.387 . S
C54 C58 1.391 . S
C55 C54 1.387 . S
C55 C56 1.369 . S
C55 H64 0.929 . S
C56 N53 1.346 . S
C56 C55 1.369 . S
C56 H59 0.928 . S
C57 N53 1.345 . S
C57 C58 1.371 . S
C57 H60 0.931 . S
C58 C54 1.391 . S
C58 C57 1.371 . S
C58 H65 0.930 . S
H59 C56 0.928 . S
H60 C57 0.931 . S
H61 C37 0.930 . S
H62 C34 0.930 . S
H63 C43 0.930 . S
H64 C55 0.929 . S
H65 C58 0.930 . S
C66 C67 1.351 . S
C66 N69 1.368 . S
C66 H71 0.931 . S
C67 C66 1.351 . S
C67 N68 1.373 . S
C67 H95 0.930 . S
N68 C67 1.373 . S
N68 C70 1.340 . S
N69 C66 1.368 . S
N69 C70 1.321 . S
N69 Co72 2.195 . S
C70 N68 1.340 . S
C70 N69 1.321 . S
C70 H94 0.930 . S
H71 C66 0.931 . S
Co72 N69 2.195 . S
Co72 N75 2.060 1_655 S
Co72 O80 2.054 . S
Co72 O83 2.049 . S
Co72 N86 2.136 1_655 S
C73 O74 1.227 . S
C73 O83 1.265 . S
O74 C73 1.227 . S
N75 Co72 2.060 1_455 S
N75 C77 1.375 . S
N75 C78 1.313 . S
C76 C77 1.338 . S
C76 N79 1.377 . S
C76 H96 0.930 . S
C77 N75 1.375 . S
C77 C76 1.338 . S
C77 H81 0.931 . S
C78 N75 1.313 . S
C78 N79 1.344 . S
C78 H82 0.930 . S
N79 C76 1.377 . S
N79 C78 1.344 . S
O80 Co72 2.054 . S
O80 C84 1.249 1_655 S
H81 C77 0.931 . S
H82 C78 0.930 . S
O83 Co72 2.049 . S
O83 C73 1.265 . S
C84 O80 1.249 1_455 S
C84 O85 1.227 . S
O85 C84 1.227 . S
N86 Co72 2.136 1_455 S
N86 C89 1.346 1_455 S
N86 C90 1.345 . S
C87 C88 1.387 1_455 S
C87 C91 1.391 . S
C88 C87 1.387 1_655 S
C88 C89 1.369 . S
C88 H97 0.929 . S
C89 N86 1.346 1_655 S
C89 C88 1.369 . S
C89 H92 0.928 . S
C90 N86 1.345 . S
C90 C91 1.371 . S
C90 H93 0.931 . S
C91 C87 1.391 . S
C91 C90 1.371 . S
C91 H98 0.930 . S
H92 C89 0.928 . S
H93 C90 0.931 . S
H94 C70 0.930 . S
H95 C67 0.930 . S
H96 C76 0.930 . S
H97 C88 0.929 . S
H98 C91 0.930 . S
C99 C100 1.351 . S
C99 N102 1.368 . S
C99 H104 0.931 . S
C100 C99 1.351 . S
C100 N101 1.373 . S
C100 H128 0.930 . S
N101 C100 1.373 . S
N101 C103 1.340 . S
N102 C99 1.368 . S
N102 C103 1.321 . S
N102 Co105 2.135 . S
C103 N101 1.340 . S
C103 N102 1.321 . S
C103 H127 0.930 . S
H104 C99 0.931 . S
Co105 N102 2.135 . S
Co105 N108 2.121 . S
Co105 O113 2.055 . S
Co105 O116 2.039 . S
Co105 N119 2.140 . S
C106 O107 1.227 . S
C106 O116 1.265 . S
O107 C106 1.227 . S
N108 Co105 2.121 . S
N108 C110 1.375 . S
N108 C111 1.313 . S
C109 C110 1.338 . S
C109 N112 1.377 . S
C109 H129 0.930 . S
C110 N108 1.375 . S
C110 C109 1.338 . S
C110 H114 0.931 . S
C111 N108 1.313 . S
C111 N112 1.344 . S
C111 H115 0.930 . S
N112 C109 1.377 . S
N112 C111 1.344 . S
O113 Co105 2.055 . S
O113 C117 1.253 . S
H114 C110 0.931 . S
H115 C111 0.930 . S
O116 Co105 2.039 . S
O116 C106 1.265 . S
C117 O113 1.253 . S
C117 O118 1.227 . S
O118 C117 1.227 . S
N119 Co105 2.140 . S
N119 C122 1.346 . S
N119 C123 1.345 . S
C120 C121 1.387 . S
C120 C124 1.391 . S
C121 C120 1.387 . S
C121 C122 1.369 . S
C121 H130 0.929 . S
C122 N119 1.346 . S
C122 C121 1.369 . S
C122 H125 0.928 . S
C123 N119 1.345 . S
C123 C124 1.371 . S
C123 H126 0.931 . S
C124 C120 1.391 . S
C124 C123 1.371 . S
C124 H131 0.930 . S
H125 C122 0.928 . S
H126 C123 0.931 . S
H127 C103 0.930 . S
H128 C100 0.930 . S
H129 C109 0.930 . S
H130 C121 0.929 . S
H131 C124 0.930 . S
C132 C133 1.351 . S
C132 N135 1.368 . S
C132 H137 0.931 . S
C133 C132 1.351 . S
C133 N134 1.373 . S
C133 H161 0.930 . S
N134 C133 1.373 . S
N134 C136 1.340 . S
N135 C132 1.368 . S
N135 C136 1.321 . S
N135 Co138 2.195 . S
C136 N134 1.340 . S
C136 N135 1.321 . S
C136 H160 0.930 . S
H137 C132 0.931 . S
Co138 N135 2.195 . S
Co138 N141 2.060 1_455 S
Co138 O146 2.054 . S
Co138 O149 2.049 . S
Co138 N152 2.136 1_455 S
C139 O140 1.227 . S
C139 O149 1.265 . S
O140 C139 1.227 . S
N141 Co138 2.060 1_655 S
N141 C143 1.375 . S
N141 C144 1.313 . S
C142 C143 1.338 . S
C142 N145 1.377 . S
C142 H162 0.930 . S
C143 N141 1.375 . S
C143 C142 1.338 . S
C143 H147 0.931 . S
C144 N141 1.313 . S
C144 N145 1.344 . S
C144 H148 0.930 . S
N145 C142 1.377 . S
N145 C144 1.344 . S
O146 Co138 2.054 . S
O146 C150 1.249 1_455 S
H147 C143 0.931 . S
H148 C144 0.930 . S
O149 Co138 2.049 . S
O149 C139 1.265 . S
C150 O146 1.249 1_655 S
C150 O151 1.227 . S
O151 C150 1.227 . S
N152 Co138 2.136 1_655 S
N152 C155 1.346 1_655 S
N152 C156 1.345 . S
C153 C154 1.387 1_655 S
C153 C157 1.391 . S
C154 C153 1.387 1_455 S
C154 C155 1.369 . S
C154 H163 0.929 . S
C155 N152 1.346 1_455 S
C155 C154 1.369 . S
C155 H158 0.928 . S
C156 N152 1.345 . S
C156 C157 1.371 . S
C156 H159 0.931 . S
C157 C153 1.391 . S
C157 C156 1.371 . S
C157 H164 0.930 . S
H158 C155 0.928 . S
H159 C156 0.931 . S
H160 C136 0.930 . S
H161 C133 0.930 . S
H162 C142 0.930 . S
H163 C154 0.929 . S
H164 C157 0.930 . S
C165 C166 1.351 . S
C165 N168 1.368 . S
C165 H170 0.931 . S
C166 C165 1.351 . S
C166 N167 1.373 . S
C166 H194 0.930 . S
N167 C166 1.373 . S
N167 C169 1.340 . S
N168 C165 1.368 . S
N168 C169 1.321 . S
N168 Co171 2.135 . S
C169 N167 1.340 . S
C169 N168 1.321 . S
C169 H193 0.930 . S
H170 C165 0.931 . S
Co171 N168 2.135 . S
Co171 N174 2.121 . S
Co171 O179 2.055 . S
Co171 O182 2.039 . S
Co171 N185 2.140 . S
C172 O173 1.227 . S
C172 O182 1.265 . S
O173 C172 1.227 . S
N174 Co171 2.121 . S
N174 C176 1.375 . S
N174 C177 1.313 . S
C175 C176 1.338 . S
C175 N178 1.377 . S
C175 H195 0.930 . S
C176 N174 1.375 . S
C176 C175 1.338 . S
C176 H180 0.931 . S
C177 N174 1.313 . S
C177 N178 1.344 . S
C177 H181 0.930 . S
N178 C175 1.377 . S
N178 C177 1.344 . S
O179 Co171 2.055 . S
O179 C183 1.253 . S
H180 C176 0.931 . S
H181 C177 0.930 . S
O182 Co171 2.039 . S
O182 C172 1.265 . S
C183 O179 1.253 . S
C183 O184 1.227 . S
O184 C183 1.227 . S
N185 Co171 2.140 . S
N185 C188 1.346 . S
N185 C189 1.345 . S
C186 C187 1.387 . S
C186 C190 1.391 . S
C187 C186 1.387 . S
C187 C188 1.369 . S
C187 H196 0.929 . S
C188 N185 1.346 . S
C188 C187 1.369 . S
C188 H191 0.928 . S
C189 N185 1.345 . S
C189 C190 1.371 . S
C189 H192 0.931 . S
C190 C186 1.391 . S
C190 C189 1.371 . S
C190 H197 0.930 . S
H191 C188 0.928 . S
H192 C189 0.931 . S
H193 C169 0.930 . S
H194 C166 0.930 . S
H195 C175 0.930 . S
H196 C187 0.929 . S
H197 C190 0.930 . S
C198 C199 1.351 . S
C198 N201 1.368 . S
C198 H203 0.931 . S
C199 C198 1.351 . S
C199 N200 1.373 . S
C199 H227 0.930 . S
N200 C199 1.373 . S
N200 C202 1.340 . S
N201 C198 1.368 . S
N201 C202 1.321 . S
N201 Co204 2.195 . S
C202 N200 1.340 . S
C202 N201 1.321 . S
C202 H226 0.930 . S
H203 C198 0.931 . S
Co204 N201 2.195 . S
Co204 N207 2.060 1_455 S
Co204 O212 2.054 . S
Co204 O215 2.049 . S
Co204 N218 2.136 1_455 S
C205 O206 1.227 . S
C205 O215 1.265 . S
O206 C205 1.227 . S
N207 Co204 2.060 1_655 S
N207 C209 1.375 . S
N207 C210 1.313 . S
C208 C209 1.338 . S
C208 N211 1.377 . S
C208 H228 0.930 . S
C209 N207 1.375 . S
C209 C208 1.338 . S
C209 H213 0.931 . S
C210 N207 1.313 . S
C210 N211 1.344 . S
C210 H214 0.930 . S
N211 C208 1.377 . S
N211 C210 1.344 . S
O212 Co204 2.054 . S
O212 C216 1.249 1_455 S
H213 C209 0.931 . S
H214 C210 0.930 . S
O215 Co204 2.049 . S
O215 C205 1.265 . S
C216 O212 1.249 1_655 S
C216 O217 1.227 . S
O217 C216 1.227 . S
N218 Co204 2.136 1_655 S
N218 C221 1.346 1_655 S
N218 C222 1.345 . S
C219 C220 1.387 1_655 S
C219 C223 1.391 . S
C220 C219 1.387 1_455 S
C220 C221 1.369 . S
C220 H229 0.929 . S
C221 N218 1.346 1_455 S
C221 C220 1.369 . S
C221 H224 0.928 . S
C222 N218 1.345 . S
C222 C223 1.371 . S
C222 H225 0.931 . S
C223 C219 1.391 . S
C223 C222 1.371 . S
C223 H230 0.930 . S
H224 C221 0.928 . S
H225 C222 0.931 . S
H226 C202 0.930 . S
H227 C199 0.930 . S
H228 C208 0.930 . S
H229 C220 0.929 . S
H230 C223 0.930 . S
C231 C232 1.351 . S
C231 N234 1.368 . S
C231 H236 0.931 . S
C232 C231 1.351 . S
C232 N233 1.373 . S
C232 H260 0.930 . S
N233 C232 1.373 . S
N233 C235 1.340 . S
N234 C231 1.368 . S
N234 C235 1.321 . S
N234 Co237 2.135 . S
C235 N233 1.340 . S
C235 N234 1.321 . S
C235 H259 0.930 . S
H236 C231 0.931 . S
Co237 N234 2.135 . S
Co237 N240 2.121 . S
Co237 O245 2.055 . S
Co237 O248 2.039 . S
Co237 N251 2.140 . S
C238 O239 1.227 . S
C238 O248 1.265 . S
O239 C238 1.227 . S
N240 Co237 2.121 . S
N240 C242 1.375 . S
N240 C243 1.313 . S
C241 C242 1.338 . S
C241 N244 1.377 . S
C241 H261 0.930 . S
C242 N240 1.375 . S
C242 C241 1.338 . S
C242 H246 0.931 . S
C243 N240 1.313 . S
C243 N244 1.344 . S
C243 H247 0.930 . S
N244 C241 1.377 . S
N244 C243 1.344 . S
O245 Co237 2.055 . S
O245 C249 1.253 . S
H246 C242 0.931 . S
H247 C243 0.930 . S
O248 Co237 2.039 . S
O248 C238 1.265 . S
C249 O245 1.253 . S
C249 O250 1.227 . S
O250 C249 1.227 . S
N251 Co237 2.140 . S
N251 C254 1.346 . S
N251 C255 1.345 . S
C252 C253 1.387 . S
C252 C256 1.391 . S
C253 C252 1.387 . S
C253 C254 1.369 . S
C253 H262 0.929 . S
C254 N251 1.346 . S
C254 C253 1.369 . S
C254 H257 0.928 . S
C255 N251 1.345 . S
C255 C256 1.371 . S
C255 H258 0.931 . S
C256 C252 1.391 . S
C256 C255 1.371 . S
C256 H263 0.930 . S
H257 C254 0.928 . S
H258 C255 0.931 . S
H259 C235 0.930 . S
H260 C232 0.930 . S
H261 C241 0.930 . S
H262 C253 0.929 . S
H263 C256 0.930 . S
C264 C265 1.351 . S
C264 N267 1.368 . S
C264 H269 0.931 . S
C265 C264 1.351 . S
C265 N266 1.373 . S
C265 H293 0.930 . S
N266 C265 1.373 . S
N266 C268 1.340 . S
N267 C264 1.368 . S
N267 C268 1.321 . S
N267 Co270 2.195 . S
C268 N266 1.340 . S
C268 N267 1.321 . S
C268 H292 0.930 . S
H269 C264 0.931 . S
Co270 N267 2.195 . S
Co270 N273 2.060 1_655 S
Co270 O278 2.054 . S
Co270 O281 2.049 . S
Co270 N284 2.136 1_655 S
C271 O272 1.227 . S
C271 O281 1.265 . S
O272 C271 1.227 . S
N273 Co270 2.060 1_455 S
N273 C275 1.375 . S
N273 C276 1.313 . S
C274 C275 1.338 . S
C274 N277 1.377 . S
C274 H294 0.930 . S
C275 N273 1.375 . S
C275 C274 1.338 . S
C275 H279 0.931 . S
C276 N273 1.313 . S
C276 N277 1.344 . S
C276 H280 0.930 . S
N277 C274 1.377 . S
N277 C276 1.344 . S
O278 Co270 2.054 . S
O278 C282 1.249 1_655 S
H279 C275 0.931 . S
H280 C276 0.930 . S
O281 Co270 2.049 . S
O281 C271 1.265 . S
C282 O278 1.249 1_455 S
C282 O283 1.227 . S
O283 C282 1.227 . S
N284 Co270 2.136 1_455 S
N284 C287 1.346 1_455 S
N284 C288 1.345 . S
C285 C286 1.387 1_455 S
C285 C289 1.391 . S
C286 C285 1.387 1_655 S
C286 C287 1.369 . S
C286 H295 0.929 . S
C287 N284 1.346 1_655 S
C287 C286 1.369 . S
C287 H290 0.928 . S
C288 N284 1.345 . S
C288 C289 1.371 . S
C288 H291 0.931 . S
C289 C285 1.391 . S
C289 C288 1.371 . S
C289 H296 0.930 . S
H290 C287 0.928 . S
H291 C288 0.931 . S
H292 C268 0.930 . S
H293 C265 0.930 . S
H294 C274 0.930 . S
H295 C286 0.929 . S
H296 C289 0.930 . S
C297 C298 1.351 . S
C297 N300 1.368 . S
C297 H302 0.931 . S
C298 C297 1.351 . S
C298 N299 1.373 . S
C298 H326 0.930 . S
N299 C298 1.373 . S
N299 C301 1.340 . S
N300 C297 1.368 . S
N300 C301 1.321 . S
N300 Co303 2.135 . S
C301 N299 1.340 . S
C301 N300 1.321 . S
C301 H325 0.930 . S
H302 C297 0.931 . S
Co303 N300 2.135 . S
Co303 N306 2.121 . S
Co303 O311 2.055 . S
Co303 O314 2.039 . S
Co303 N317 2.140 . S
C304 O305 1.227 . S
C304 O314 1.265 . S
O305 C304 1.227 . S
N306 Co303 2.121 . S
N306 C308 1.375 . S
N306 C309 1.313 . S
C307 C308 1.338 . S
C307 N310 1.377 . S
C307 H327 0.930 . S
C308 N306 1.375 . S
C308 C307 1.338 . S
C308 H312 0.931 . S
C309 N306 1.313 . S
C309 N310 1.344 . S
C309 H313 0.930 . S
N310 C307 1.377 . S
N310 C309 1.344 . S
O311 Co303 2.055 . S
O311 C315 1.253 . S
H312 C308 0.931 . S
H313 C309 0.930 . S
O314 Co303 2.039 . S
O314 C304 1.265 . S
C315 O311 1.253 . S
C315 O316 1.227 . S
O316 C315 1.227 . S
N317 Co303 2.140 . S
N317 C320 1.346 . S
N317 C321 1.345 . S
C318 C319 1.387 . S
C318 C322 1.391 . S
C319 C318 1.387 . S
C319 C320 1.369 . S
C319 H328 0.929 . S
C320 N317 1.346 . S
C320 C319 1.369 . S
C320 H323 0.928 . S
C321 N317 1.345 . S
C321 C322 1.371 . S
C321 H324 0.931 . S
C322 C318 1.391 . S
C322 C321 1.371 . S
C322 H329 0.930 . S
H323 C320 0.928 . S
H324 C321 0.931 . S
H325 C301 0.930 . S
H326 C298 0.930 . S
H327 C307 0.930 . S
H328 C319 0.929 . S
H329 C322 0.930 . S
C330 C331 1.351 . S
C330 N333 1.368 . S
C330 H335 0.931 . S
C331 C330 1.351 . S
C331 N332 1.373 . S
C331 H359 0.930 . S
N332 C331 1.373 . S
N332 C334 1.340 . S
N333 C330 1.368 . S
N333 C334 1.321 . S
N333 Co336 2.195 . S
C334 N332 1.340 . S
C334 N333 1.321 . S
C334 H358 0.930 . S
H335 C330 0.931 . S
Co336 N333 2.195 . S
Co336 N339 2.060 1_655 S
Co336 O344 2.054 . S
Co336 O347 2.049 . S
Co336 N350 2.136 1_655 S
C337 O338 1.227 . S
C337 O347 1.265 . S
O338 C337 1.227 . S
N339 Co336 2.060 1_455 S
N339 C341 1.375 . S
N339 C342 1.313 . S
C340 C341 1.338 . S
C340 N343 1.377 . S
C340 H360 0.930 . S
C341 N339 1.375 . S
C341 C340 1.338 . S
C341 H345 0.931 . S
C342 N339 1.313 . S
C342 N343 1.344 . S
C342 H346 0.930 . S
N343 C340 1.377 . S
N343 C342 1.344 . S
O344 Co336 2.054 . S
O344 C348 1.249 1_655 S
H345 C341 0.931 . S
H346 C342 0.930 . S
O347 Co336 2.049 . S
O347 C337 1.265 . S
C348 O344 1.249 1_455 S
C348 O349 1.227 . S
O349 C348 1.227 . S
N350 Co336 2.136 1_455 S
N350 C353 1.346 1_455 S
N350 C354 1.345 . S
C351 C352 1.387 1_455 S
C351 C355 1.391 . S
C352 C351 1.387 1_655 S
C352 C353 1.369 . S
C352 H361 0.929 . S
C353 N350 1.346 1_655 S
C353 C352 1.369 . S
C353 H356 0.928 . S
C354 N350 1.345 . S
C354 C355 1.371 . S
C354 H357 0.931 . S
C355 C351 1.391 . S
C355 C354 1.371 . S
C355 H362 0.930 . S
H356 C353 0.928 . S
H357 C354 0.931 . S
H358 C334 0.930 . S
H359 C331 0.930 . S
H360 C340 0.930 . S
H361 C352 0.929 . S
H362 C355 0.930 . S
C363 C364 1.351 . S
C363 N366 1.368 . S
C363 H368 0.931 . S
C364 C363 1.351 . S
C364 N365 1.373 . S
C364 H392 0.930 . S
N365 C364 1.373 . S
N365 C367 1.340 . S
N366 C363 1.368 . S
N366 C367 1.321 . S
N366 Co369 2.135 . S
C367 N365 1.340 . S
C367 N366 1.321 . S
C367 H391 0.930 . S
H368 C363 0.931 . S
Co369 N366 2.135 . S
Co369 N372 2.121 . S
Co369 O377 2.055 . S
Co369 O380 2.039 . S
Co369 N383 2.140 . S
C370 O371 1.227 . S
C370 O380 1.265 . S
O371 C370 1.227 . S
N372 Co369 2.121 . S
N372 C374 1.375 . S
N372 C375 1.313 . S
C373 C374 1.338 . S
C373 N376 1.377 . S
C373 H393 0.930 . S
C374 N372 1.375 . S
C374 C373 1.338 . S
C374 H378 0.931 . S
C375 N372 1.313 . S
C375 N376 1.344 . S
C375 H379 0.930 . S
N376 C373 1.377 . S
N376 C375 1.344 . S
O377 Co369 2.055 . S
O377 C381 1.253 . S
H378 C374 0.931 . S
H379 C375 0.930 . S
O380 Co369 2.039 . S
O380 C370 1.265 . S
C381 O377 1.253 . S
C381 O382 1.227 . S
O382 C381 1.227 . S
N383 Co369 2.140 . S
N383 C386 1.346 . S
N383 C387 1.345 . S
C384 C385 1.387 . S
C384 C388 1.391 . S
C385 C384 1.387 . S
C385 C386 1.369 . S
C385 H394 0.929 . S
C386 N383 1.346 . S
C386 C385 1.369 . S
C386 H389 0.928 . S
C387 N383 1.345 . S
C387 C388 1.371 . S
C387 H390 0.931 . S
C388 C384 1.391 . S
C388 C387 1.371 . S
C388 H395 0.930 . S
H389 C386 0.928 . S
H390 C387 0.931 . S
H391 C367 0.930 . S
H392 C364 0.930 . S
H393 C373 0.930 . S
H394 C385 0.929 . S
H395 C388 0.930 . S
C396 C397 1.351 . S
C396 N399 1.368 . S
C396 H401 0.931 . S
C397 C396 1.351 . S
C397 N398 1.373 . S
C397 H425 0.930 . S
N398 C397 1.373 . S
N398 C400 1.340 . S
N399 C396 1.368 . S
N399 C400 1.321 . S
N399 Co402 2.195 . S
C400 N398 1.340 . S
C400 N399 1.321 . S
C400 H424 0.930 . S
H401 C396 0.931 . S
Co402 N399 2.195 . S
Co402 N405 2.060 1_455 S
Co402 O410 2.054 . S
Co402 O413 2.049 . S
Co402 N416 2.136 1_455 S
C403 O404 1.227 . S
C403 O413 1.265 . S
O404 C403 1.227 . S
N405 Co402 2.060 1_655 S
N405 C407 1.375 . S
N405 C408 1.313 . S
C406 C407 1.338 . S
C406 N409 1.377 . S
C406 H426 0.930 . S
C407 N405 1.375 . S
C407 C406 1.338 . S
C407 H411 0.931 . S
C408 N405 1.313 . S
C408 N409 1.344 . S
C408 H412 0.930 . S
N409 C406 1.377 . S
N409 C408 1.344 . S
O410 Co402 2.054 . S
O410 C414 1.249 1_455 S
H411 C407 0.931 . S
H412 C408 0.930 . S
O413 Co402 2.049 . S
O413 C403 1.265 . S
C414 O410 1.249 1_655 S
C414 O415 1.227 . S
O415 C414 1.227 . S
N416 Co402 2.136 1_655 S
N416 C419 1.346 1_655 S
N416 C420 1.345 . S
C417 C418 1.387 1_655 S
C417 C421 1.391 . S
C418 C417 1.387 1_455 S
C418 C419 1.369 . S
C418 H427 0.929 . S
C419 N416 1.346 1_455 S
C419 C418 1.369 . S
C419 H422 0.928 . S
C420 N416 1.345 . S
C420 C421 1.371 . S
C420 H423 0.931 . S
C421 C417 1.391 . S
C421 C420 1.371 . S
C421 H428 0.930 . S
H422 C419 0.928 . S
H423 C420 0.931 . S
H424 C400 0.930 . S
H425 C397 0.930 . S
H426 C406 0.930 . S
H427 C418 0.929 . S
H428 C421 0.930 . S
C429 C430 1.351 . S
C429 N432 1.368 . S
C429 H434 0.931 . S
C430 C429 1.351 . S
C430 N431 1.373 . S
C430 H458 0.930 . S
N431 C430 1.373 . S
N431 C433 1.340 . S
N432 C429 1.368 . S
N432 C433 1.321 . S
N432 Co435 2.135 . S
C433 N431 1.340 . S
C433 N432 1.321 . S
C433 H457 0.930 . S
H434 C429 0.931 . S
Co435 N432 2.135 . S
Co435 N438 2.121 . S
Co435 O443 2.055 . S
Co435 O446 2.039 . S
Co435 N449 2.140 . S
C436 O437 1.227 . S
C436 O446 1.265 . S
O437 C436 1.227 . S
N438 Co435 2.121 . S
N438 C440 1.375 . S
N438 C441 1.313 . S
C439 C440 1.338 . S
C439 N442 1.377 . S
C439 H459 0.930 . S
C440 N438 1.375 . S
C440 C439 1.338 . S
C440 H444 0.931 . S
C441 N438 1.313 . S
C441 N442 1.344 . S
C441 H445 0.930 . S
N442 C439 1.377 . S
N442 C441 1.344 . S
O443 Co435 2.055 . S
O443 C447 1.253 . S
H444 C440 0.931 . S
H445 C441 0.930 . S
O446 Co435 2.039 . S
O446 C436 1.265 . S
C447 O443 1.253 . S
C447 O448 1.227 . S
O448 C447 1.227 . S
N449 Co435 2.140 . S
N449 C452 1.346 . S
N449 C453 1.345 . S
C450 C451 1.387 . S
C450 C454 1.391 . S
C451 C450 1.387 . S
C451 C452 1.369 . S
C451 H460 0.929 . S
C452 N449 1.346 . S
C452 C451 1.369 . S
C452 H455 0.928 . S
C453 N449 1.345 . S
C453 C454 1.371 . S
C453 H456 0.931 . S
C454 C450 1.391 . S
C454 C453 1.371 . S
C454 H461 0.930 . S
H455 C452 0.928 . S
H456 C453 0.931 . S
H457 C433 0.930 . S
H458 C430 0.930 . S
H459 C439 0.930 . S
H460 C451 0.929 . S
H461 C454 0.930 . S
C462 C463 1.351 . S
C462 N465 1.368 . S
C462 H467 0.931 . S
C463 C462 1.351 . S
C463 N464 1.373 . S
C463 H491 0.930 . S
N464 C463 1.373 . S
N464 C466 1.340 . S
N465 C462 1.368 . S
N465 C466 1.321 . S
N465 Co468 2.195 . S
C466 N464 1.340 . S
C466 N465 1.321 . S
C466 H490 0.930 . S
H467 C462 0.931 . S
Co468 N465 2.195 . S
Co468 N471 2.060 1_455 S
Co468 O476 2.054 . S
Co468 O479 2.049 . S
Co468 N482 2.136 1_455 S
C469 O470 1.227 . S
C469 O479 1.265 . S
O470 C469 1.227 . S
N471 Co468 2.060 1_655 S
N471 C473 1.375 . S
N471 C474 1.313 . S
C472 C473 1.338 . S
C472 N475 1.377 . S
C472 H492 0.930 . S
C473 N471 1.375 . S
C473 C472 1.338 . S
C473 H477 0.931 . S
C474 N471 1.313 . S
C474 N475 1.344 . S
C474 H478 0.930 . S
N475 C472 1.377 . S
N475 C474 1.344 . S
O476 Co468 2.054 . S
O476 C480 1.249 1_455 S
H477 C473 0.931 . S
H478 C474 0.930 . S
O479 Co468 2.049 . S
O479 C469 1.265 . S
C480 O476 1.249 1_655 S
C480 O481 1.227 . S
O481 C480 1.227 . S
N482 Co468 2.136 1_655 S
N482 C485 1.346 1_655 S
N482 C486 1.345 . S
C483 C484 1.387 1_655 S
C483 C487 1.391 . S
C484 C483 1.387 1_455 S
C484 C485 1.369 . S
C484 H493 0.929 . S
C485 N482 1.346 1_455 S
C485 C484 1.369 . S
C485 H488 0.928 . S
C486 N482 1.345 . S
C486 C487 1.371 . S
C486 H489 0.931 . S
C487 C483 1.391 . S
C487 C486 1.371 . S
C487 H494 0.930 . S
H488 C485 0.928 . S
H489 C486 0.931 . S
H490 C466 0.930 . S
H491 C463 0.930 . S
H492 C472 0.930 . S
H493 C484 0.929 . S
H494 C487 0.930 . S
C495 C496 1.351 . S
C495 N498 1.368 . S
C495 H500 0.931 . S
C496 C495 1.351 . S
C496 N497 1.373 . S
C496 H524 0.930 . S
N497 C496 1.373 . S
N497 C499 1.340 . S
N498 C495 1.368 . S
N498 C499 1.321 . S
N498 Co501 2.135 . S
C499 N497 1.340 . S
C499 N498 1.321 . S
C499 H523 0.930 . S
H500 C495 0.931 . S
Co501 N498 2.135 . S
Co501 N504 2.121 . S
Co501 O509 2.055 . S
Co501 O512 2.039 . S
Co501 N515 2.140 . S
C502 O503 1.227 . S
C502 O512 1.265 . S
O503 C502 1.227 . S
N504 Co501 2.121 . S
N504 C506 1.375 . S
N504 C507 1.313 . S
C505 C506 1.338 . S
C505 N508 1.377 . S
C505 H525 0.930 . S
C506 N504 1.375 . S
C506 C505 1.338 . S
C506 H510 0.931 . S
C507 N504 1.313 . S
C507 N508 1.344 . S
C507 H511 0.930 . S
N508 C505 1.377 . S
N508 C507 1.344 . S
O509 Co501 2.055 . S
O509 C513 1.253 . S
H510 C506 0.931 . S
H511 C507 0.930 . S
O512 Co501 2.039 . S
O512 C502 1.265 . S
C513 O509 1.253 . S
C513 O514 1.227 . S
O514 C513 1.227 . S
N515 Co501 2.140 . S
N515 C518 1.346 . S
N515 C519 1.345 . S
C516 C517 1.387 . S
C516 C520 1.391 . S
C517 C516 1.387 . S
C517 C518 1.369 . S
C517 H526 0.929 . S
C518 N515 1.346 . S
C518 C517 1.369 . S
C518 H521 0.928 . S
C519 N515 1.345 . S
C519 C520 1.371 . S
C519 H522 0.931 . S
C520 C516 1.391 . S
C520 C519 1.371 . S
C520 H527 0.930 . S
H521 C518 0.928 . S
H522 C519 0.931 . S
H523 C499 0.930 . S
H524 C496 0.930 . S
H525 C505 0.930 . S
H526 C517 0.929 . S
H527 C520 0.930 . S
C528 C529 1.351 . S
C528 N531 1.368 . S
C528 H533 0.931 . S
C529 C528 1.351 . S
C529 N530 1.373 . S
C529 H557 0.930 . S
N530 C529 1.373 . S
N530 C532 1.340 . S
N531 C528 1.368 . S
N531 C532 1.321 . S
N531 Co534 2.135 . S
C532 N530 1.340 . S
C532 N531 1.321 . S
C532 H556 0.930 . S
H533 C528 0.931 . S
Co534 N531 2.135 . S
Co534 N537 2.121 . S
Co534 O542 2.055 . S
Co534 O545 2.039 . S
Co534 N548 2.140 . S
C535 O536 1.227 . S
C535 O545 1.265 . S
O536 C535 1.227 . S
N537 Co534 2.121 . S
N537 C539 1.375 . S
N537 C540 1.313 . S
C538 C539 1.338 . S
C538 N541 1.377 . S
C538 H558 0.930 . S
C539 N537 1.375 . S
C539 C538 1.338 . S
C539 H543 0.931 . S
C540 N537 1.313 . S
C540 N541 1.344 . S
C540 H544 0.930 . S
N541 C538 1.377 . S
N541 C540 1.344 . S
O542 Co534 2.055 . S
O542 C546 1.253 . S
H543 C539 0.931 . S
H544 C540 0.930 . S
O545 Co534 2.039 . S
O545 C535 1.265 . S
C546 O542 1.253 . S
C546 O547 1.227 . S
O547 C546 1.227 . S
N548 Co534 2.140 . S
N548 C551 1.346 . S
N548 C552 1.345 . S
C549 C550 1.387 . S
C549 C553 1.391 . S
C550 C549 1.387 . S
C550 C551 1.369 . S
C550 H559 0.929 . S
C551 N548 1.346 . S
C551 C550 1.369 . S
C551 H554 0.928 . S
C552 N548 1.345 . S
C552 C553 1.371 . S
C552 H555 0.931 . S
C553 C549 1.391 . S
C553 C552 1.371 . S
C553 H560 0.930 . S
H554 C551 0.928 . S
H555 C552 0.931 . S
H556 C532 0.930 . S
H557 C529 0.930 . S
H558 C538 0.930 . S
H559 C550 0.929 . S
H560 C553 0.930 . S
C561 C562 1.351 . S
C561 N564 1.368 . S
C561 H566 0.931 . S
C562 C561 1.351 . S
C562 N563 1.373 . S
C562 H590 0.930 . S
N563 C562 1.373 . S
N563 C565 1.340 . S
N564 C561 1.368 . S
N564 C565 1.321 . S
N564 Co567 2.135 . S
C565 N563 1.340 . S
C565 N564 1.321 . S
C565 H589 0.930 . S
H566 C561 0.931 . S
Co567 N564 2.135 . S
Co567 N570 2.121 . S
Co567 O575 2.055 . S
Co567 O578 2.039 . S
Co567 N581 2.140 . S
C568 O569 1.227 . S
C568 O578 1.265 . S
O569 C568 1.227 . S
N570 Co567 2.121 . S
N570 C572 1.375 . S
N570 C573 1.313 . S
C571 C572 1.338 . S
C571 N574 1.377 . S
C571 H591 0.930 . S
C572 N570 1.375 . S
C572 C571 1.338 . S
C572 H576 0.931 . S
C573 N570 1.313 . S
C573 N574 1.344 . S
C573 H577 0.930 . S
N574 C571 1.377 . S
N574 C573 1.344 . S
O575 Co567 2.055 . S
O575 C579 1.253 . S
H576 C572 0.931 . S
H577 C573 0.930 . S
O578 Co567 2.039 . S
O578 C568 1.265 . S
C579 O575 1.253 . S
C579 O580 1.227 . S
O580 C579 1.227 . S
N581 Co567 2.140 . S
N581 C584 1.346 . S
N581 C585 1.345 . S
C582 C583 1.387 . S
C582 C586 1.391 . S
C583 C582 1.387 . S
C583 C584 1.369 . S
C583 H592 0.929 . S
C584 N581 1.346 . S
C584 C583 1.369 . S
C584 H587 0.928 . S
C585 N581 1.345 . S
C585 C586 1.371 . S
C585 H588 0.931 . S
C586 C582 1.391 . S
C586 C585 1.371 . S
C586 H593 0.930 . S
H587 C584 0.928 . S
H588 C585 0.931 . S
H589 C565 0.930 . S
H590 C562 0.930 . S
H591 C571 0.930 . S
H592 C583 0.929 . S
H593 C586 0.930 . S
C594 C595 1.351 . S
C594 N597 1.368 . S
C594 H599 0.931 . S
C595 C594 1.351 . S
C595 N596 1.373 . S
C595 H623 0.930 . S
N596 C595 1.373 . S
N596 C598 1.340 . S
N597 C594 1.368 . S
N597 C598 1.321 . S
N597 Co600 2.135 . S
C598 N596 1.340 . S
C598 N597 1.321 . S
C598 H622 0.930 . S
H599 C594 0.931 . S
Co600 N597 2.135 . S
Co600 N603 2.121 . S
Co600 O608 2.055 . S
Co600 O611 2.039 . S
Co600 N614 2.140 . S
C601 O602 1.227 . S
C601 O611 1.265 . S
O602 C601 1.227 . S
N603 Co600 2.121 . S
N603 C605 1.375 . S
N603 C606 1.313 . S
C604 C605 1.338 . S
C604 N607 1.377 . S
C604 H624 0.930 . S
C605 N603 1.375 . S
C605 C604 1.338 . S
C605 H609 0.931 . S
C606 N603 1.313 . S
C606 N607 1.344 . S
C606 H610 0.930 . S
N607 C604 1.377 . S
N607 C606 1.344 . S
O608 Co600 2.055 . S
O608 C612 1.253 . S
H609 C605 0.931 . S
H610 C606 0.930 . S
O611 Co600 2.039 . S
O611 C601 1.265 . S
C612 O608 1.253 . S
C612 O613 1.227 . S
O613 C612 1.227 . S
N614 Co600 2.140 . S
N614 C617 1.346 . S
N614 C618 1.345 . S
C615 C616 1.387 . S
C615 C619 1.391 . S
C616 C615 1.387 . S
C616 C617 1.369 . S
C616 H625 0.929 . S
C617 N614 1.346 . S
C617 C616 1.369 . S
C617 H620 0.928 . S
C618 N614 1.345 . S
C618 C619 1.371 . S
C618 H621 0.931 . S
C619 C615 1.391 . S
C619 C618 1.371 . S
C619 H626 0.930 . S
H620 C617 0.928 . S
H621 C618 0.931 . S
H622 C598 0.930 . S
H623 C595 0.930 . S
H624 C604 0.930 . S
H625 C616 0.929 . S
H626 C619 0.930 . S
C627 C628 1.351 . S
C627 N630 1.368 . S
C627 H632 0.931 . S
C628 C627 1.351 . S
C628 N629 1.373 . S
C628 H656 0.930 . S
N629 C628 1.373 . S
N629 C631 1.340 . S
N630 C627 1.368 . S
N630 C631 1.321 . S
N630 Co633 2.135 . S
C631 N629 1.340 . S
C631 N630 1.321 . S
C631 H655 0.930 . S
H632 C627 0.931 . S
Co633 N630 2.135 . S
Co633 N636 2.121 . S
Co633 O641 2.055 . S
Co633 O644 2.039 . S
Co633 N647 2.140 . S
C634 O635 1.227 . S
C634 O644 1.265 . S
O635 C634 1.227 . S
N636 Co633 2.121 . S
N636 C638 1.375 . S
N636 C639 1.313 . S
C637 C638 1.338 . S
C637 N640 1.377 . S
C637 H657 0.930 . S
C638 N636 1.375 . S
C638 C637 1.338 . S
C638 H642 0.931 . S
C639 N636 1.313 . S
C639 N640 1.344 . S
C639 H643 0.930 . S
N640 C637 1.377 . S
N640 C639 1.344 . S
O641 Co633 2.055 . S
O641 C645 1.253 . S
H642 C638 0.931 . S
H643 C639 0.930 . S
O644 Co633 2.039 . S
O644 C634 1.265 . S
C645 O641 1.253 . S
C645 O646 1.227 . S
O646 C645 1.227 . S
N647 Co633 2.140 . S
N647 C650 1.346 . S
N647 C651 1.345 . S
C648 C649 1.387 . S
C648 C652 1.391 . S
C649 C648 1.387 . S
C649 C650 1.369 . S
C649 H658 0.929 . S
C650 N647 1.346 . S
C650 C649 1.369 . S
C650 H653 0.928 . S
C651 N647 1.345 . S
C651 C652 1.371 . S
C651 H654 0.931 . S
C652 C648 1.391 . S
C652 C651 1.371 . S
C652 H659 0.930 . S
H653 C650 0.928 . S
H654 C651 0.931 . S
H655 C631 0.930 . S
H656 C628 0.930 . S
H657 C637 0.930 . S
H658 C649 0.929 . S
H659 C652 0.930 . S
C660 C661 1.351 . S
C660 N663 1.368 . S
C660 H665 0.931 . S
C661 C660 1.351 . S
C661 N662 1.373 . S
C661 H689 0.930 . S
N662 C661 1.373 . S
N662 C664 1.340 . S
N663 C660 1.368 . S
N663 C664 1.321 . S
N663 Co666 2.135 . S
C664 N662 1.340 . S
C664 N663 1.321 . S
C664 H688 0.930 . S
H665 C660 0.931 . S
Co666 N663 2.135 . S
Co666 N669 2.121 . S
Co666 O674 2.055 . S
Co666 O677 2.039 . S
Co666 N680 2.140 . S
C667 O668 1.227 . S
C667 O677 1.265 . S
O668 C667 1.227 . S
N669 Co666 2.121 . S
N669 C671 1.375 . S
N669 C672 1.313 . S
C670 C671 1.338 . S
C670 N673 1.377 . S
C670 H690 0.930 . S
C671 N669 1.375 . S
C671 C670 1.338 . S
C671 H675 0.931 . S
C672 N669 1.313 . S
C672 N673 1.344 . S
C672 H676 0.930 . S
N673 C670 1.377 . S
N673 C672 1.344 . S
O674 Co666 2.055 . S
O674 C678 1.253 . S
H675 C671 0.931 . S
H676 C672 0.930 . S
O677 Co666 2.039 . S
O677 C667 1.265 . S
C678 O674 1.253 . S
C678 O679 1.227 . S
O679 C678 1.227 . S
N680 Co666 2.140 . S
N680 C683 1.346 . S
N680 C684 1.345 . S
C681 C682 1.387 . S
C681 C685 1.391 . S
C682 C681 1.387 . S
C682 C683 1.369 . S
C682 H691 0.929 . S
C683 N680 1.346 . S
C683 C682 1.369 . S
C683 H686 0.928 . S
C684 N680 1.345 . S
C684 C685 1.371 . S
C684 H687 0.931 . S
C685 C681 1.391 . S
C685 C684 1.371 . S
C685 H692 0.930 . S
H686 C683 0.928 . S
H687 C684 0.931 . S
H688 C664 0.930 . S
H689 C661 0.930 . S
H690 C670 0.930 . S
H691 C682 0.929 . S
H692 C685 0.930 . S
C693 C694 1.351 . S
C693 N696 1.368 . S
C693 H698 0.931 . S
C694 C693 1.351 . S
C694 N695 1.373 . S
C694 H722 0.930 . S
N695 C694 1.373 . S
N695 C697 1.340 . S
N696 C693 1.368 . S
N696 C697 1.321 . S
N696 Co699 2.135 . S
C697 N695 1.340 . S
C697 N696 1.321 . S
C697 H721 0.930 . S
H698 C693 0.931 . S
Co699 N696 2.135 . S
Co699 N702 2.121 . S
Co699 O707 2.055 . S
Co699 O710 2.039 . S
Co699 N713 2.140 . S
C700 O701 1.227 . S
C700 O710 1.265 . S
O701 C700 1.227 . S
N702 Co699 2.121 . S
N702 C704 1.375 . S
N702 C705 1.313 . S
C703 C704 1.338 . S
C703 N706 1.377 . S
C703 H723 0.930 . S
C704 N702 1.375 . S
C704 C703 1.338 . S
C704 H708 0.931 . S
C705 N702 1.313 . S
C705 N706 1.344 . S
C705 H709 0.930 . S
N706 C703 1.377 . S
N706 C705 1.344 . S
O707 Co699 2.055 . S
O707 C711 1.253 . S
H708 C704 0.931 . S
H709 C705 0.930 . S
O710 Co699 2.039 . S
O710 C700 1.265 . S
C711 O707 1.253 . S
C711 O712 1.227 . S
O712 C711 1.227 . S
N713 Co699 2.140 . S
N713 C716 1.346 . S
N713 C717 1.345 . S
C714 C715 1.387 . S
C714 C718 1.391 . S
C715 C714 1.387 . S
C715 C716 1.369 . S
C715 H724 0.929 . S
C716 N713 1.346 . S
C716 C715 1.369 . S
C716 H719 0.928 . S
C717 N713 1.345 . S
C717 C718 1.371 . S
C717 H720 0.931 . S
C718 C714 1.391 . S
C718 C717 1.371 . S
C718 H725 0.930 . S
H719 C716 0.928 . S
H720 C717 0.931 . S
H721 C697 0.930 . S
H722 C694 0.930 . S
H723 C703 0.930 . S
H724 C715 0.929 . S
H725 C718 0.930 . S
C726 C727 1.351 . S
C726 N729 1.368 . S
C726 H731 0.931 . S
C727 C726 1.351 . S
C727 N728 1.373 . S
C727 H755 0.930 . S
N728 C727 1.373 . S
N728 C730 1.340 . S
N729 C726 1.368 . S
N729 C730 1.321 . S
N729 Co732 2.135 . S
C730 N728 1.340 . S
C730 N729 1.321 . S
C730 H754 0.930 . S
H731 C726 0.931 . S
Co732 N729 2.135 . S
Co732 N735 2.121 . S
Co732 O740 2.055 . S
Co732 O743 2.039 . S
Co732 N746 2.140 . S
C733 O734 1.227 . S
C733 O743 1.265 . S
O734 C733 1.227 . S
N735 Co732 2.121 . S
N735 C737 1.375 . S
N735 C738 1.313 . S
C736 C737 1.338 . S
C736 N739 1.377 . S
C736 H756 0.930 . S
C737 N735 1.375 . S
C737 C736 1.338 . S
C737 H741 0.931 . S
C738 N735 1.313 . S
C738 N739 1.344 . S
C738 H742 0.930 . S
N739 C736 1.377 . S
N739 C738 1.344 . S
O740 Co732 2.055 . S
O740 C744 1.253 . S
H741 C737 0.931 . S
H742 C738 0.930 . S
O743 Co732 2.039 . S
O743 C733 1.265 . S
C744 O740 1.253 . S
C744 O745 1.227 . S
O745 C744 1.227 . S
N746 Co732 2.140 . S
N746 C749 1.346 . S
N746 C750 1.345 . S
C747 C748 1.387 . S
C747 C751 1.391 . S
C748 C747 1.387 . S
C748 C749 1.369 . S
C748 H757 0.929 . S
C749 N746 1.346 . S
C749 C748 1.369 . S
C749 H752 0.928 . S
C750 N746 1.345 . S
C750 C751 1.371 . S
C750 H753 0.931 . S
C751 C747 1.391 . S
C751 C750 1.371 . S
C751 H758 0.930 . S
H752 C749 0.928 . S
H753 C750 0.931 . S
H754 C730 0.930 . S
H755 C727 0.930 . S
H756 C736 0.930 . S
H757 C748 0.929 . S
H758 C751 0.930 . S
C759 C760 1.351 . S
C759 N762 1.368 . S
C759 H764 0.931 . S
C760 C759 1.351 . S
C760 N761 1.373 . S
C760 H788 0.930 . S
N761 C760 1.373 . S
N761 C763 1.340 . S
N762 C759 1.368 . S
N762 C763 1.321 . S
N762 Co765 2.135 . S
C763 N761 1.340 . S
C763 N762 1.321 . S
C763 H787 0.930 . S
H764 C759 0.931 . S
Co765 N762 2.135 . S
Co765 N768 2.121 . S
Co765 O773 2.055 . S
Co765 O776 2.039 . S
Co765 N779 2.140 . S
C766 O767 1.227 . S
C766 O776 1.265 . S
O767 C766 1.227 . S
N768 Co765 2.121 . S
N768 C770 1.375 . S
N768 C771 1.313 . S
C769 C770 1.338 . S
C769 N772 1.377 . S
C769 H789 0.930 . S
C770 N768 1.375 . S
C770 C769 1.338 . S
C770 H774 0.931 . S
C771 N768 1.313 . S
C771 N772 1.344 . S
C771 H775 0.930 . S
N772 C769 1.377 . S
N772 C771 1.344 . S
O773 Co765 2.055 . S
O773 C777 1.253 . S
H774 C770 0.931 . S
H775 C771 0.930 . S
O776 Co765 2.039 . S
O776 C766 1.265 . S
C777 O773 1.253 . S
C777 O778 1.227 . S
O778 C777 1.227 . S
N779 Co765 2.140 . S
N779 C782 1.346 . S
N779 C783 1.345 . S
C780 C781 1.387 . S
C780 C784 1.391 . S
C781 C780 1.387 . S
C781 C782 1.369 . S
C781 H790 0.929 . S
C782 N779 1.346 . S
C782 C781 1.369 . S
C782 H785 0.928 . S
C783 N779 1.345 . S
C783 C784 1.371 . S
C783 H786 0.931 . S
C784 C780 1.391 . S
C784 C783 1.371 . S
C784 H791 0.930 . S
H785 C782 0.928 . S
H786 C783 0.931 . S
H787 C763 0.930 . S
H788 C760 0.930 . S
H789 C769 0.930 . S
H790 C781 0.929 . S
H791 C784 0.930 . S
C792 C793 1.351 . S
C792 N795 1.368 . S
C792 H797 0.931 . S
C793 C792 1.351 . S
C793 N794 1.373 . S
C793 H821 0.930 . S
N794 C793 1.373 . S
N794 C796 1.340 . S
N795 C792 1.368 . S
N795 C796 1.321 . S
N795 Co798 2.135 . S
C796 N794 1.340 . S
C796 N795 1.321 . S
C796 H820 0.930 . S
H797 C792 0.931 . S
Co798 N795 2.135 . S
Co798 N801 2.121 . S
Co798 O806 2.055 . S
Co798 O809 2.039 . S
Co798 N812 2.140 . S
C799 O800 1.227 . S
C799 O809 1.265 . S
O800 C799 1.227 . S
N801 Co798 2.121 . S
N801 C803 1.375 . S
N801 C804 1.313 . S
C802 C803 1.338 . S
C802 N805 1.377 . S
C802 H822 0.930 . S
C803 N801 1.375 . S
C803 C802 1.338 . S
C803 H807 0.931 . S
C804 N801 1.313 . S
C804 N805 1.344 . S
C804 H808 0.930 . S
N805 C802 1.377 . S
N805 C804 1.344 . S
O806 Co798 2.055 . S
O806 C810 1.253 . S
H807 C803 0.931 . S
H808 C804 0.930 . S
O809 Co798 2.039 . S
O809 C799 1.265 . S
C810 O806 1.253 . S
C810 O811 1.227 . S
O811 C810 1.227 . S
N812 Co798 2.140 . S
N812 C815 1.346 . S
N812 C816 1.345 . S
C813 C814 1.387 . S
C813 C817 1.391 . S
C814 C813 1.387 . S
C814 C815 1.369 . S
C814 H823 0.929 . S
C815 N812 1.346 . S
C815 C814 1.369 . S
C815 H818 0.928 . S
C816 N812 1.345 . S
C816 C817 1.371 . S
C816 H819 0.931 . S
C817 C813 1.391 . S
C817 C816 1.371 . S
C817 H824 0.930 . S
H818 C815 0.928 . S
H819 C816 0.931 . S
H820 C796 0.930 . S
H821 C793 0.930 . S
H822 C802 0.930 . S
H823 C814 0.929 . S
H824 C817 0.930 . S
C825 C826 1.351 . S
C825 N828 1.368 . S
C825 H830 0.931 . S
C826 C825 1.351 . S
C826 N827 1.373 . S
C826 H854 0.930 . S
N827 C826 1.373 . S
N827 C829 1.340 . S
N828 C825 1.368 . S
N828 C829 1.321 . S
N828 Co831 2.135 . S
C829 N827 1.340 . S
C829 N828 1.321 . S
C829 H853 0.930 . S
H830 C825 0.931 . S
Co831 N828 2.135 . S
Co831 N834 2.121 . S
Co831 O839 2.055 . S
Co831 O842 2.039 . S
Co831 N845 2.140 . S
C832 O833 1.227 . S
C832 O842 1.265 . S
O833 C832 1.227 . S
N834 Co831 2.121 . S
N834 C836 1.375 . S
N834 C837 1.313 . S
C835 C836 1.338 . S
C835 N838 1.377 . S
C835 H855 0.930 . S
C836 N834 1.375 . S
C836 C835 1.338 . S
C836 H840 0.931 . S
C837 N834 1.313 . S
C837 N838 1.344 . S
C837 H841 0.930 . S
N838 C835 1.377 . S
N838 C837 1.344 . S
O839 Co831 2.055 . S
O839 C843 1.253 . S
H840 C836 0.931 . S
H841 C837 0.930 . S
O842 Co831 2.039 . S
O842 C832 1.265 . S
C843 O839 1.253 . S
C843 O844 1.227 . S
O844 C843 1.227 . S
N845 Co831 2.140 . S
N845 C848 1.346 . S
N845 C849 1.345 . S
C846 C847 1.387 . S
C846 C850 1.391 . S
C847 C846 1.387 . S
C847 C848 1.369 . S
C847 H856 0.929 . S
C848 N845 1.346 . S
C848 C847 1.369 . S
C848 H851 0.928 . S
C849 N845 1.345 . S
C849 C850 1.371 . S
C849 H852 0.931 . S
C850 C846 1.391 . S
C850 C849 1.371 . S
C850 H857 0.930 . S
H851 C848 0.928 . S
H852 C849 0.931 . S
H853 C829 0.930 . S
H854 C826 0.930 . S
H855 C835 0.930 . S
H856 C847 0.929 . S
H857 C850 0.930 . S
C858 C859 1.351 . S
C858 N861 1.368 . S
C858 H863 0.931 . S
C859 C858 1.351 . S
C859 N860 1.373 . S
C859 H887 0.930 . S
N860 C859 1.373 . S
N860 C862 1.340 . S
N861 C858 1.368 . S
N861 C862 1.321 . S
N861 Co864 2.135 . S
C862 N860 1.340 . S
C862 N861 1.321 . S
C862 H886 0.930 . S
H863 C858 0.931 . S
Co864 N861 2.135 . S
Co864 N867 2.121 . S
Co864 O872 2.055 . S
Co864 O875 2.039 . S
Co864 N878 2.140 . S
C865 O866 1.227 . S
C865 O875 1.265 . S
O866 C865 1.227 . S
N867 Co864 2.121 . S
N867 C869 1.375 . S
N867 C870 1.313 . S
C868 C869 1.338 . S
C868 N871 1.377 . S
C868 H888 0.930 . S
C869 N867 1.375 . S
C869 C868 1.338 . S
C869 H873 0.931 . S
C870 N867 1.313 . S
C870 N871 1.344 . S
C870 H874 0.930 . S
N871 C868 1.377 . S
N871 C870 1.344 . S
O872 Co864 2.055 . S
O872 C876 1.253 . S
H873 C869 0.931 . S
H874 C870 0.930 . S
O875 Co864 2.039 . S
O875 C865 1.265 . S
C876 O872 1.253 . S
C876 O877 1.227 . S
O877 C876 1.227 . S
N878 Co864 2.140 . S
N878 C881 1.346 . S
N878 C882 1.345 . S
C879 C880 1.387 . S
C879 C883 1.391 . S
C880 C879 1.387 . S
C880 C881 1.369 . S
C880 H889 0.929 . S
C881 N878 1.346 . S
C881 C880 1.369 . S
C881 H884 0.928 . S
C882 N878 1.345 . S
C882 C883 1.371 . S
C882 H885 0.931 . S
C883 C879 1.391 . S
C883 C882 1.371 . S
C883 H890 0.930 . S
H884 C881 0.928 . S
H885 C882 0.931 . S
H886 C862 0.930 . S
H887 C859 0.930 . S
H888 C868 0.930 . S
H889 C880 0.929 . S
H890 C883 0.930 . S
C891 C892 1.351 . S
C891 N894 1.368 . S
C891 H896 0.931 . S
C892 C891 1.351 . S
C892 N893 1.373 . S
C892 H920 0.930 . S
N893 C892 1.373 . S
N893 C895 1.340 . S
N894 C891 1.368 . S
N894 C895 1.321 . S
N894 Co897 2.135 . S
C895 N893 1.340 . S
C895 N894 1.321 . S
C895 H919 0.930 . S
H896 C891 0.931 . S
Co897 N894 2.135 . S
Co897 N900 2.121 . S
Co897 O905 2.055 . S
Co897 O908 2.039 . S
Co897 N911 2.140 . S
C898 O899 1.227 . S
C898 O908 1.265 . S
O899 C898 1.227 . S
N900 Co897 2.121 . S
N900 C902 1.375 . S
N900 C903 1.313 . S
C901 C902 1.338 . S
C901 N904 1.377 . S
C901 H921 0.930 . S
C902 N900 1.375 . S
C902 C901 1.338 . S
C902 H906 0.931 . S
C903 N900 1.313 . S
C903 N904 1.344 . S
C903 H907 0.930 . S
N904 C901 1.377 . S
N904 C903 1.344 . S
O905 Co897 2.055 . S
O905 C909 1.253 . S
H906 C902 0.931 . S
H907 C903 0.930 . S
O908 Co897 2.039 . S
O908 C898 1.265 . S
C909 O905 1.253 . S
C909 O910 1.227 . S
O910 C909 1.227 . S
N911 Co897 2.140 . S
N911 C914 1.346 . S
N911 C915 1.345 . S
C912 C913 1.387 . S
C912 C916 1.391 . S
C913 C912 1.387 . S
C913 C914 1.369 . S
C913 H922 0.929 . S
C914 N911 1.346 . S
C914 C913 1.369 . S
C914 H917 0.928 . S
C915 N911 1.345 . S
C915 C916 1.371 . S
C915 H918 0.931 . S
C916 C912 1.391 . S
C916 C915 1.371 . S
C916 H923 0.930 . S
H917 C914 0.928 . S
H918 C915 0.931 . S
H919 C895 0.930 . S
H920 C892 0.930 . S
H921 C901 0.930 . S
H922 C913 0.929 . S
H923 C916 0.930 . S
C924 C925 1.351 . S
C924 N927 1.368 . S
C924 H929 0.931 . S
C925 C924 1.351 . S
C925 N926 1.373 . S
C925 H953 0.930 . S
N926 C925 1.373 . S
N926 C928 1.340 . S
N927 C924 1.368 . S
N927 C928 1.321 . S
N927 Co930 2.135 . S
C928 N926 1.340 . S
C928 N927 1.321 . S
C928 H952 0.930 . S
H929 C924 0.931 . S
Co930 N927 2.135 . S
Co930 N933 2.121 . S
Co930 O938 2.055 . S
Co930 O941 2.039 . S
Co930 N944 2.140 . S
C931 O932 1.227 . S
C931 O941 1.265 . S
O932 C931 1.227 . S
N933 Co930 2.121 . S
N933 C935 1.375 . S
N933 C936 1.313 . S
C934 C935 1.338 . S
C934 N937 1.377 . S
C934 H954 0.930 . S
C935 N933 1.375 . S
C935 C934 1.338 . S
C935 H939 0.931 . S
C936 N933 1.313 . S
C936 N937 1.344 . S
C936 H940 0.930 . S
N937 C934 1.377 . S
N937 C936 1.344 . S
O938 Co930 2.055 . S
O938 C942 1.253 . S
H939 C935 0.931 . S
H940 C936 0.930 . S
O941 Co930 2.039 . S
O941 C931 1.265 . S
C942 O938 1.253 . S
C942 O943 1.227 . S
O943 C942 1.227 . S
N944 Co930 2.140 . S
N944 C947 1.346 . S
N944 C948 1.345 . S
C945 C946 1.387 . S
C945 C949 1.391 . S
C946 C945 1.387 . S
C946 C947 1.369 . S
C946 H955 0.929 . S
C947 N944 1.346 . S
C947 C946 1.369 . S
C947 H950 0.928 . S
C948 N944 1.345 . S
C948 C949 1.371 . S
C948 H951 0.931 . S
C949 C945 1.391 . S
C949 C948 1.371 . S
C949 H956 0.930 . S
H950 C947 0.928 . S
H951 C948 0.931 . S
H952 C928 0.930 . S
H953 C925 0.930 . S
H954 C934 0.930 . S
H955 C946 0.929 . S
H956 C949 0.930 . S
C957 C958 1.351 . S
C957 N960 1.368 . S
C957 H962 0.931 . S
C958 C957 1.351 . S
C958 N959 1.373 . S
C958 H986 0.930 . S
N959 C958 1.373 . S
N959 C961 1.340 . S
N960 C957 1.368 . S
N960 C961 1.321 . S
N960 Co963 2.135 . S
C961 N959 1.340 . S
C961 N960 1.321 . S
C961 H985 0.930 . S
H962 C957 0.931 . S
Co963 N960 2.135 . S
Co963 N966 2.121 . S
Co963 O971 2.055 . S
Co963 O974 2.039 . S
Co963 N977 2.140 . S
C964 O965 1.227 . S
C964 O974 1.265 . S
O965 C964 1.227 . S
N966 Co963 2.121 . S
N966 C968 1.375 . S
N966 C969 1.313 . S
C967 C968 1.338 . S
C967 N970 1.377 . S
C967 H987 0.930 . S
C968 N966 1.375 . S
C968 C967 1.338 . S
C968 H972 0.931 . S
C969 N966 1.313 . S
C969 N970 1.344 . S
C969 H973 0.930 . S
N970 C967 1.377 . S
N970 C969 1.344 . S
O971 Co963 2.055 . S
O971 C975 1.253 . S
H972 C968 0.931 . S
H973 C969 0.930 . S
O974 Co963 2.039 . S
O974 C964 1.265 . S
C975 O971 1.253 . S
C975 O976 1.227 . S
O976 C975 1.227 . S
N977 Co963 2.140 . S
N977 C980 1.346 . S
N977 C981 1.345 . S
C978 C979 1.387 . S
C978 C982 1.391 . S
C979 C978 1.387 . S
C979 C980 1.369 . S
C979 H988 0.929 . S
C980 N977 1.346 . S
C980 C979 1.369 . S
C980 H983 0.928 . S
C981 N977 1.345 . S
C981 C982 1.371 . S
C981 H984 0.931 . S
C982 C978 1.391 . S
C982 C981 1.371 . S
C982 H989 0.930 . S
H983 C980 0.928 . S
H984 C981 0.931 . S
H985 C961 0.930 . S
H986 C958 0.930 . S
H987 C967 0.930 . S
H988 C979 0.929 . S
H989 C982 0.930 . S
C990 C991 1.351 . S
C990 N993 1.368 . S
C990 H995 0.931 . S
C991 C990 1.351 . S
C991 N992 1.373 . S
C991 H1019 0.930 . S
N992 C991 1.373 . S
N992 C994 1.340 . S
N993 C990 1.368 . S
N993 C994 1.321 . S
N993 Co996 2.135 . S
C994 N992 1.340 . S
C994 N993 1.321 . S
C994 H1018 0.930 . S
H995 C990 0.931 . S
Co996 N993 2.135 . S
Co996 N999 2.121 . S
Co996 O1004 2.055 . S
Co996 O1007 2.039 . S
Co996 N1010 2.140 . S
C997 O998 1.227 . S
C997 O1007 1.265 . S
O998 C997 1.227 . S
N999 Co996 2.121 . S
N999 C1001 1.375 . S
N999 C1002 1.313 . S
C1000 C1001 1.338 . S
C1000 N1003 1.377 . S
C1000 H1020 0.930 . S
C1001 N999 1.375 . S
C1001 C1000 1.338 . S
C1001 H1005 0.931 . S
C1002 N999 1.313 . S
C1002 N1003 1.344 . S
C1002 H1006 0.930 . S
N1003 C1000 1.377 . S
N1003 C1002 1.344 . S
O1004 Co996 2.055 . S
O1004 C1008 1.253 . S
H1005 C1001 0.931 . S
H1006 C1002 0.930 . S
O1007 Co996 2.039 . S
O1007 C997 1.265 . S
C1008 O1004 1.253 . S
C1008 O1009 1.227 . S
O1009 C1008 1.227 . S
N1010 Co996 2.140 . S
N1010 C1013 1.346 . S
N1010 C1014 1.345 . S
C1011 C1012 1.387 . S
C1011 C1015 1.391 . S
C1012 C1011 1.387 . S
C1012 C1013 1.369 . S
C1012 H1021 0.929 . S
C1013 N1010 1.346 . S
C1013 C1012 1.369 . S
C1013 H1016 0.928 . S
C1014 N1010 1.345 . S
C1014 C1015 1.371 . S
C1014 H1017 0.931 . S
C1015 C1011 1.391 . S
C1015 C1014 1.371 . S
C1015 H1022 0.930 . S
H1016 C1013 0.928 . S
H1017 C1014 0.931 . S
H1018 C994 0.930 . S
H1019 C991 0.930 . S
H1020 C1000 0.930 . S
H1021 C1012 0.929 . S
H1022 C1015 0.930 . S
C1023 C1024 1.351 . S
C1023 N1026 1.368 . S
C1023 H1028 0.931 . S
C1024 C1023 1.351 . S
C1024 N1025 1.373 . S
C1024 H1052 0.930 . S
N1025 C1024 1.373 . S
N1025 C1027 1.340 . S
N1026 C1023 1.368 . S
N1026 C1027 1.321 . S
N1026 Co1029 2.135 . S
C1027 N1025 1.340 . S
C1027 N1026 1.321 . S
C1027 H1051 0.930 . S
H1028 C1023 0.931 . S
Co1029 N1026 2.135 . S
Co1029 N1032 2.121 . S
Co1029 O1037 2.055 . S
Co1029 O1040 2.039 . S
Co1029 N1043 2.140 . S
C1030 O1031 1.227 . S
C1030 O1040 1.265 . S
O1031 C1030 1.227 . S
N1032 Co1029 2.121 . S
N1032 C1034 1.375 . S
N1032 C1035 1.313 . S
C1033 C1034 1.338 . S
C1033 N1036 1.377 . S
C1033 H1053 0.930 . S
C1034 N1032 1.375 . S
C1034 C1033 1.338 . S
C1034 H1038 0.931 . S
C1035 N1032 1.313 . S
C1035 N1036 1.344 . S
C1035 H1039 0.930 . S
N1036 C1033 1.377 . S
N1036 C1035 1.344 . S
O1037 Co1029 2.055 . S
O1037 C1041 1.253 . S
H1038 C1034 0.931 . S
H1039 C1035 0.930 . S
O1040 Co1029 2.039 . S
O1040 C1030 1.265 . S
C1041 O1037 1.253 . S
C1041 O1042 1.227 . S
O1042 C1041 1.227 . S
N1043 Co1029 2.140 . S
N1043 C1046 1.346 . S
N1043 C1047 1.345 . S
C1044 C1045 1.387 . S
C1044 C1048 1.391 . S
C1045 C1044 1.387 . S
C1045 C1046 1.369 . S
C1045 H1054 0.929 . S
C1046 N1043 1.346 . S
C1046 C1045 1.369 . S
C1046 H1049 0.928 . S
C1047 N1043 1.345 . S
C1047 C1048 1.371 . S
C1047 H1050 0.931 . S
C1048 C1044 1.391 . S
C1048 C1047 1.371 . S
C1048 H1055 0.930 . S
H1049 C1046 0.928 . S
H1050 C1047 0.931 . S
H1051 C1027 0.930 . S
H1052 C1024 0.930 . S
H1053 C1033 0.930 . S
H1054 C1045 0.929 . S
H1055 C1048 0.930 . S
H1056 C1064 0.929 . S
H1057 C1066 0.930 . S
H1058 C1068 0.930 . S
H1059 C1071 0.929 . S
H1060 C1074 0.948 . S
H1061 C1076 0.960 . S
H1062 C1076 0.960 . S
H1063 C1076 0.960 . S
C1064 H1056 0.929 . S
C1064 C1065 1.377 . S
C1064 C1066 1.384 . S
C1065 C1064 1.377 . S
C1065 C1071 1.390 1_655 S
C1066 H1057 0.930 . S
C1066 C1064 1.384 . S
C1066 C1067 1.372 . S
C1067 C1066 1.372 . S
C1067 C1068 1.400 1_655 S
C1067 C1072 1.490 . S
C1068 H1058 0.930 . S
C1068 C1067 1.400 1_455 S
C1068 C1071 1.386 . S
H1069 C1085 0.930 . S
H1070 C1086 0.931 . S
C1071 H1059 0.929 . S
C1071 C1065 1.390 1_455 S
C1071 C1068 1.386 . S
C1072 C1067 1.490 . S
C1072 C1074 1.395 . S
C1072 C1075 1.403 . S
H1073 C1079 0.930 . S
C1074 H1060 0.948 . S
C1074 C1072 1.395 . S
C1074 C1077 1.403 . S
C1075 C1072 1.403 . S
C1075 C1076 1.524 . S
C1075 C1079 1.400 . S
C1076 H1061 0.960 . S
C1076 H1062 0.960 . S
C1076 H1063 0.960 . S
C1076 C1075 1.524 . S
C1077 C1074 1.403 . S
C1077 C1078 1.392 . S
C1077 C1081 1.495 1_655 S
C1078 C1077 1.392 . S
C1078 C1079 1.385 . S
C1078 C1080 1.478 . S
C1079 H1073 0.930 . S
C1079 C1075 1.400 . S
C1079 C1078 1.385 . S
C1080 C1078 1.478 . S
C1080 C1082 1.381 . S
C1080 C1086 1.383 1_655 S
C1081 C1077 1.495 1_455 S
C1081 H1087 0.959 . S
C1081 H1088 0.961 . S
C1081 H1089 0.960 1_455 S
C1082 C1080 1.381 . S
C1082 C1083 1.394 . S
C1082 H1090 0.930 . S
C1083 C1082 1.394 . S
C1083 C1084 1.383 . S
C1083 H1091 0.929 . S
C1084 C1083 1.383 . S
C1084 C1085 1.377 1_655 S
C1085 H1069 0.930 . S
C1085 C1084 1.377 1_455 S
C1085 C1086 1.379 . S
C1086 H1070 0.931 . S
C1086 C1080 1.383 1_455 S
C1086 C1085 1.379 . S
H1087 C1081 0.959 . S
H1088 C1081 0.961 . S
H1089 C1081 0.960 1_655 S
H1090 C1082 0.930 . S
H1091 C1083 0.929 . S
H1092 C1100 0.929 . S
H1093 C1102 0.930 . S
H1094 C1104 0.930 . S
H1095 C1107 0.929 . S
H1096 C1110 0.930 . S
H1097 C1112 0.960 . S
H1098 C1112 0.960 . S
H1099 C1112 0.960 . S
C1100 H1092 0.929 . S
C1100 C1101 1.377 . S
C1100 C1102 1.384 . S
C1101 C1100 1.377 . S
C1101 C1107 1.390 . S
C1102 H1093 0.930 . S
C1102 C1100 1.384 . S
C1102 C1103 1.372 . S
C1103 C1102 1.372 . S
C1103 C1104 1.400 . S
C1103 C1108 1.490 . S
C1104 H1094 0.930 . S
C1104 C1103 1.400 . S
C1104 C1107 1.386 . S
H1105 C1121 0.930 . S
H1106 C1122 0.931 . S
C1107 H1095 0.929 . S
C1107 C1101 1.390 . S
C1107 C1104 1.386 . S
C1108 C1103 1.490 . S
C1108 C1110 1.395 . S
C1108 C1111 1.403 . S
H1109 C1115 0.930 . S
C1110 H1096 0.930 . S
C1110 C1108 1.395 . S
C1110 C1113 1.403 . S
C1111 C1108 1.403 . S
C1111 C1112 1.524 . S
C1111 C1115 1.400 . S
C1112 H1097 0.960 . S
C1112 H1098 0.960 . S
C1112 H1099 0.960 . S
C1112 C1111 1.524 . S
C1113 C1110 1.403 . S
C1113 C1114 1.392 . S
C1113 C1117 1.495 . S
C1114 C1113 1.392 . S
C1114 C1115 1.385 . S
C1114 C1116 1.478 . S
C1115 H1109 0.930 . S
C1115 C1111 1.400 . S
C1115 C1114 1.385 . S
C1116 C1114 1.478 . S
C1116 C1118 1.381 . S
C1116 C1122 1.383 . S
C1117 C1113 1.495 . S
C1117 H1123 0.959 . S
C1117 H1124 0.961 . S
C1117 H1125 0.960 . S
C1118 C1116 1.381 . S
C1118 C1119 1.394 . S
C1118 H1126 0.930 . S
C1119 C1118 1.394 . S
C1119 C1120 1.383 . S
C1119 H1127 0.929 . S
C1120 C1119 1.383 . S
C1120 C1121 1.377 . S
C1121 H1105 0.930 . S
C1121 C1120 1.377 . S
C1121 C1122 1.379 . S
C1122 H1106 0.931 . S
C1122 C1116 1.383 . S
C1122 C1121 1.379 . S
H1123 C1117 0.959 . S
H1124 C1117 0.961 . S
H1125 C1117 0.960 . S
H1126 C1118 0.930 . S
H1127 C1119 0.929 . S
H1128 C1136 0.929 . S
H1129 C1138 0.930 . S
H1130 C1140 0.930 . S
H1131 C1143 0.929 . S
H1132 C1146 0.930 . S
H1133 C1148 0.960 . S
H1134 C1148 0.960 . S
H1135 C1148 0.960 . S
C1136 H1128 0.929 . S
C1136 C1137 1.377 . S
C1136 C1138 1.384 . S
C1137 C1136 1.377 . S
C1137 C1143 1.390 1_455 S
C1138 H1129 0.930 . S
C1138 C1136 1.384 . S
C1138 C1139 1.372 . S
C1139 C1138 1.372 . S
C1139 C1140 1.400 1_455 S
C1139 C1144 1.490 . S
C1140 H1130 0.930 . S
C1140 C1139 1.400 1_655 S
C1140 C1143 1.386 . S
H1141 C1157 0.930 . S
H1142 C1158 0.931 . S
C1143 H1131 0.929 . S
C1143 C1137 1.390 1_655 S
C1143 C1140 1.386 . S
C1144 C1139 1.490 . S
C1144 C1146 1.395 . S
C1144 C1147 1.403 1_455 S
H1145 C1151 0.951 . S
C1146 H1132 0.930 . S
C1146 C1144 1.395 . S
C1146 C1149 1.403 . S
C1147 C1144 1.403 1_655 S
C1147 C1148 1.524 . S
C1147 C1151 1.402 . S
C1148 H1133 0.960 . S
C1148 H1134 0.960 . S
C1148 H1135 0.960 . S
C1148 C1147 1.524 . S
C1149 C1146 1.403 . S
C1149 C1150 1.392 . S
C1149 C1153 1.495 . S
C1150 C1149 1.392 . S
C1150 C1151 1.364 1_455 S
C1150 C1152 1.478 . S
C1151 H1145 0.951 . S
C1151 C1147 1.402 . S
C1151 C1150 1.364 1_655 S
C1152 C1150 1.478 . S
C1152 C1154 1.381 . S
C1152 C1158 1.383 1_455 S
C1153 C1149 1.495 . S
C1153 H1159 0.959 . S
C1153 H1160 0.961 . S
C1153 H1161 0.960 . S
C1154 C1152 1.381 . S
C1154 C1155 1.394 . S
C1154 H1162 0.930 . S
C1155 C1154 1.394 . S
C1155 C1156 1.383 . S
C1155 H1163 0.929 . S
C1156 C1155 1.383 . S
C1156 C1157 1.377 1_455 S
C1157 H1141 0.930 . S
C1157 C1156 1.377 1_655 S
C1157 C1158 1.379 . S
C1158 H1142 0.931 . S
C1158 C1152 1.383 1_655 S
C1158 C1157 1.379 . S
H1159 C1153 0.959 . S
H1160 C1153 0.961 . S
H1161 C1153 0.960 . S
H1162 C1154 0.930 . S
H1163 C1155 0.929 . S
H1164 C1172 0.929 . S
H1165 C1174 0.930 . S
H1166 C1176 0.930 . S
H1167 C1179 0.929 . S
H1168 C1182 0.930 . S
H1169 C1184 0.960 . S
H1170 C1184 0.960 . S
H1171 C1184 0.960 . S
C1172 H1164 0.929 . S
C1172 C1173 1.377 . S
C1172 C1174 1.384 . S
C1173 C1172 1.377 . S
C1173 C1179 1.390 . S
C1174 H1165 0.930 . S
C1174 C1172 1.384 . S
C1174 C1175 1.372 . S
C1175 C1174 1.372 . S
C1175 C1176 1.400 . S
C1175 C1180 1.490 . S
C1176 H1166 0.930 . S
C1176 C1175 1.400 . S
C1176 C1179 1.386 . S
H1177 C1193 0.930 . S
H1178 C1194 0.931 . S
C1179 H1167 0.929 . S
C1179 C1173 1.390 . S
C1179 C1176 1.386 . S
C1180 C1175 1.490 . S
C1180 C1182 1.395 . S
C1180 C1183 1.403 . S
H1181 C1187 0.930 . S
C1182 H1168 0.930 . S
C1182 C1180 1.395 . S
C1182 C1185 1.403 . S
C1183 C1180 1.403 . S
C1183 C1184 1.524 . S
C1183 C1187 1.400 . S
C1184 H1169 0.960 . S
C1184 H1170 0.960 . S
C1184 H1171 0.960 . S
C1184 C1183 1.524 . S
C1185 C1182 1.403 . S
C1185 C1186 1.392 . S
C1185 C1189 1.495 . S
C1186 C1185 1.392 . S
C1186 C1187 1.385 . S
C1186 C1188 1.478 . S
C1187 H1181 0.930 . S
C1187 C1183 1.400 . S
C1187 C1186 1.385 . S
C1188 C1186 1.478 . S
C1188 C1190 1.381 . S
C1188 C1194 1.383 . S
C1189 C1185 1.495 . S
C1189 H1195 0.959 . S
C1189 H1196 0.961 . S
C1189 H1197 0.960 . S
C1190 C1188 1.381 . S
C1190 C1191 1.394 . S
C1190 H1198 0.930 . S
C1191 C1190 1.394 . S
C1191 C1192 1.383 . S
C1191 H1199 0.929 . S
C1192 C1191 1.383 . S
C1192 C1193 1.377 . S
C1193 H1177 0.930 . S
C1193 C1192 1.377 . S
C1193 C1194 1.379 . S
C1194 H1178 0.931 . S
C1194 C1188 1.383 . S
C1194 C1193 1.379 . S
H1195 C1189 0.959 . S
H1196 C1189 0.961 . S
H1197 C1189 0.960 . S
H1198 C1190 0.930 . S
H1199 C1191 0.929 . S
H1200 C1208 0.929 . S
H1201 C1210 0.930 . S
H1202 C1212 0.930 . S
H1203 C1215 0.929 . S
H1204 C1218 0.930 . S
H1205 C1220 0.960 . S
H1206 C1220 0.960 . S
H1207 C1220 0.960 . S
C1208 H1200 0.929 . S
C1208 C1209 1.377 . S
C1208 C1210 1.384 . S
C1209 C1208 1.377 . S
C1209 C1215 1.390 . S
C1210 H1201 0.930 . S
C1210 C1208 1.384 . S
C1210 C1211 1.372 . S
C1211 C1210 1.372 . S
C1211 C1212 1.400 . S
C1211 C1216 1.490 . S
C1212 H1202 0.930 . S
C1212 C1211 1.400 . S
C1212 C1215 1.386 . S
H1213 C1229 0.930 . S
H1214 C1230 0.931 . S
C1215 H1203 0.929 . S
C1215 C1209 1.390 . S
C1215 C1212 1.386 . S
C1216 C1211 1.490 . S
C1216 C1218 1.395 . S
C1216 C1219 1.403 1_655 S
H1217 C1223 0.930 . S
C1218 H1204 0.930 . S
C1218 C1216 1.395 . S
C1218 C1221 1.403 . S
C1219 C1216 1.403 1_455 S
C1219 C1220 1.524 . S
C1219 C1223 1.400 . S
C1220 H1205 0.960 . S
C1220 H1206 0.960 . S
C1220 H1207 0.960 . S
C1220 C1219 1.524 . S
C1221 C1218 1.403 . S
C1221 C1222 1.392 . S
C1221 C1225 1.495 . S
C1222 C1221 1.392 . S
C1222 C1223 1.385 1_655 S
C1222 C1224 1.478 . S
C1223 H1217 0.930 . S
C1223 C1219 1.400 . S
C1223 C1222 1.385 1_455 S
C1224 C1222 1.478 . S
C1224 C1226 1.381 . S
C1224 C1230 1.383 . S
C1225 C1221 1.495 . S
C1225 H1231 0.959 . S
C1225 H1232 0.961 . S
C1225 H1233 0.960 . S
C1226 C1224 1.381 . S
C1226 C1227 1.394 . S
C1226 H1234 0.930 . S
C1227 C1226 1.394 . S
C1227 C1228 1.383 1_554 S
C1227 H1235 0.929 1_554 S
C1228 C1227 1.383 1_556 S
C1228 C1229 1.377 . S
C1229 H1213 0.930 . S
C1229 C1228 1.377 . S
C1229 C1230 1.379 1_556 S
C1230 H1214 0.931 . S
C1230 C1224 1.383 . S
C1230 C1229 1.379 1_554 S
H1231 C1225 0.959 . S
H1232 C1225 0.961 . S
H1233 C1225 0.960 . S
H1234 C1226 0.930 . S
H1235 C1227 0.929 1_556 S
H1236 C1244 0.929 1_556 S
H1237 C1246 0.930 . S
H1238 C1248 0.930 . S
H1239 C1251 0.929 . S
H1240 C1254 0.930 . S
H1241 C1256 0.960 . S
H1242 C1256 0.960 . S
H1243 C1256 0.960 . S
C1244 H1236 0.929 1_554 S
C1244 C1245 1.377 1_554 S
C1244 C1246 1.384 . S
C1245 C1244 1.377 1_556 S
C1245 C1251 1.390 . S
C1246 H1237 0.930 . S
C1246 C1244 1.384 . S
C1246 C1247 1.372 . S
C1247 C1246 1.372 . S
C1247 C1248 1.400 . S
C1247 C1252 1.490 . S
C1248 H1238 0.930 . S
C1248 C1247 1.400 . S
C1248 C1251 1.386 1_554 S
H1249 C1265 0.930 . S
H1250 C1266 0.931 . S
C1251 H1239 0.929 . S
C1251 C1245 1.390 . S
C1251 C1248 1.386 1_556 S
C1252 C1247 1.490 . S
C1252 C1254 1.395 . S
C1252 C1255 1.403 . S
H1253 C1259 0.930 . S
C1254 H1240 0.930 . S
C1254 C1252 1.395 . S
C1254 C1257 1.403 . S
C1255 C1252 1.403 . S
C1255 C1256 1.524 . S
C1255 C1259 1.400 . S
C1256 H1241 0.960 . S
C1256 H1242 0.960 . S
C1256 H1243 0.960 . S
C1256 C1255 1.524 . S
C1257 C1254 1.403 . S
C1257 C1258 1.392 . S
C1257 C1261 1.495 . S
C1258 C1257 1.392 . S
C1258 C1259 1.385 . S
C1258 C1260 1.478 . S
C1259 H1253 0.930 . S
C1259 C1255 1.400 . S
C1259 C1258 1.385 . S
C1260 C1258 1.478 . S
C1260 C1262 1.381 . S
C1260 C1266 1.383 . S
C1261 C1257 1.495 . S
C1261 H1267 0.959 . S
C1261 H1268 0.961 . S
C1261 H1269 0.960 . S
C1262 C1260 1.381 . S
C1262 C1263 1.394 . S
C1262 H1270 0.930 . S
C1263 C1262 1.394 . S
C1263 C1264 1.383 . S
C1263 H1271 0.929 . S
C1264 C1263 1.383 . S
C1264 C1265 1.377 . S
C1265 H1249 0.930 . S
C1265 C1264 1.377 . S
C1265 C1266 1.379 . S
C1266 H1250 0.931 . S
C1266 C1260 1.383 . S
C1266 C1265 1.379 . S
H1267 C1261 0.959 . S
H1268 C1261 0.961 . S
H1269 C1261 0.960 . S
H1270 C1262 0.930 . S
H1271 C1263 0.929 . S
H1272 C1280 0.929 . S
H1273 C1282 0.930 . S
H1274 C1284 0.930 . S
H1275 C1287 0.931 . S
H1276 C1290 0.930 . S
H1277 C1292 0.960 . S
H1278 C1292 0.960 . S
H1279 C1292 0.960 . S
C1280 H1272 0.929 . S
C1280 C1281 1.377 . S
C1280 C1282 1.384 1_554 S
C1281 C1280 1.377 . S
C1281 C1287 1.395 1_455 S
C1282 H1273 0.930 . S
C1282 C1280 1.384 1_556 S
C1282 C1283 1.372 . S
C1283 C1282 1.372 . S
C1283 C1284 1.400 1_455 S
C1283 C1288 1.490 . S
C1284 H1274 0.930 . S
C1284 C1283 1.400 1_655 S
C1284 C1287 1.378 1_556 S
H1285 C1301 0.930 . S
H1286 C1302 0.931 . S
C1287 H1275 0.931 . S
C1287 C1281 1.395 1_655 S
C1287 C1284 1.378 1_554 S
C1288 C1283 1.490 . S
C1288 C1290 1.395 . S
C1288 C1291 1.403 . S
H1289 C1295 0.930 . S
C1290 H1276 0.930 . S
C1290 C1288 1.395 . S
C1290 C1293 1.403 . S
C1291 C1288 1.403 . S
C1291 C1292 1.524 . S
C1291 C1295 1.400 . S
C1292 H1277 0.960 . S
C1292 H1278 0.960 . S
C1292 H1279 0.960 . S
C1292 C1291 1.524 . S
C1293 C1290 1.403 . S
C1293 C1294 1.392 . S
C1293 C1297 1.482 1_455 S
C1294 C1293 1.392 . S
C1294 C1295 1.385 . S
C1294 C1296 1.478 . S
C1295 H1289 0.930 . S
C1295 C1291 1.400 . S
C1295 C1294 1.385 . S
C1296 C1294 1.478 . S
C1296 C1298 1.381 . S
C1296 C1302 1.383 1_455 S
C1297 C1293 1.482 1_655 S
C1297 H1303 0.970 . S
C1297 H1304 1.014 . S
C1297 H1305 0.913 1_655 S
C1298 C1296 1.381 . S
C1298 C1299 1.394 . S
C1298 H1306 0.930 . S
C1299 C1298 1.394 . S
C1299 C1300 1.383 . S
C1299 H1307 0.929 . S
C1300 C1299 1.383 . S
C1300 C1301 1.377 1_455 S
C1301 H1285 0.930 . S
C1301 C1300 1.377 1_655 S
C1301 C1302 1.379 . S
C1302 H1286 0.931 . S
C1302 C1296 1.383 1_655 S
C1302 C1301 1.379 . S
H1303 C1297 0.970 . S
H1304 C1297 1.014 . S
H1305 C1297 0.913 1_455 S
H1306 C1298 0.930 . S
H1307 C1299 0.929 . S
H1308 C1316 0.929 . S
H1309 C1318 0.930 . S
H1310 C1320 0.930 . S
H1311 C1323 0.929 . S
H1312 C1326 0.930 . S
H1313 C1328 0.960 . S
H1314 C1328 0.960 . S
H1315 C1328 0.960 . S
C1316 H1308 0.929 . S
C1316 C1317 1.377 . S
C1316 C1318 1.384 1_554 S
C1317 C1316 1.377 . S
C1317 C1323 1.390 . S
C1318 H1309 0.930 . S
C1318 C1316 1.384 1_556 S
C1318 C1319 1.372 . S
C1319 C1318 1.372 . S
C1319 C1320 1.400 . S
C1319 C1324 1.490 . S
C1320 H1310 0.930 . S
C1320 C1319 1.400 . S
C1320 C1323 1.386 1_556 S
H1321 C1337 0.930 . S
H1322 C1338 0.931 . S
C1323 H1311 0.929 . S
C1323 C1317 1.390 . S
C1323 C1320 1.386 1_554 S
C1324 C1319 1.490 . S
C1324 C1326 1.395 . S
C1324 C1327 1.403 . S
H1325 C1331 0.930 . S
C1326 H1312 0.930 . S
C1326 C1324 1.395 . S
C1326 C1329 1.403 . S
C1327 C1324 1.403 . S
C1327 C1328 1.524 . S
C1327 C1331 1.400 . S
C1328 H1313 0.960 . S
C1328 H1314 0.960 . S
C1328 H1315 0.960 . S
C1328 C1327 1.524 . S
C1329 C1326 1.403 . S
C1329 C1330 1.392 . S
C1329 C1333 1.495 . S
C1330 C1329 1.392 . S
C1330 C1331 1.385 . S
C1330 C1332 1.478 . S
C1331 H1325 0.930 . S
C1331 C1327 1.400 . S
C1331 C1330 1.385 . S
C1332 C1330 1.478 . S
C1332 C1334 1.381 . S
C1332 C1338 1.383 . S
C1333 C1329 1.495 . S
C1333 H1339 0.959 . S
C1333 H1340 0.961 . S
C1333 H1341 0.960 . S
C1334 C1332 1.381 . S
C1334 C1335 1.394 . S
C1334 H1342 0.930 . S
C1335 C1334 1.394 . S
C1335 C1336 1.383 . S
C1335 H1343 0.929 . S
C1336 C1335 1.383 . S
C1336 C1337 1.377 . S
C1337 H1321 0.930 . S
C1337 C1336 1.377 . S
C1337 C1338 1.379 . S
C1338 H1322 0.931 . S
C1338 C1332 1.383 . S
C1338 C1337 1.379 . S
H1339 C1333 0.959 . S
H1340 C1333 0.961 . S
H1341 C1333 0.960 . S
H1342 C1334 0.930 . S
H1343 C1335 0.929 . S
H1344 C1352 0.929 . S
H1345 C1354 0.930 . S
H1346 C1356 0.930 . S
H1347 C1359 0.929 . S
H1348 C1362 0.930 . S
H1349 C1364 0.960 . S
H1350 C1364 0.960 . S
H1351 C1364 0.960 . S
C1352 H1344 0.929 . S
C1352 C1353 1.377 . S
C1352 C1354 1.384 . S
C1353 C1352 1.377 . S
C1353 C1359 1.390 . S
C1354 H1345 0.930 . S
C1354 C1352 1.384 . S
C1354 C1355 1.372 . S
C1355 C1354 1.372 . S
C1355 C1356 1.400 . S
C1355 C1360 1.490 . S
C1356 H1346 0.930 . S
C1356 C1355 1.400 . S
C1356 C1359 1.386 . S
H1357 C1373 0.930 . S
H1358 C1374 0.931 . S
C1359 H1347 0.929 . S
C1359 C1353 1.390 . S
C1359 C1356 1.386 . S
C1360 C1355 1.490 . S
C1360 C1362 1.395 . S
C1360 C1363 1.403 . S
H1361 C1367 0.930 . S
C1362 H1348 0.930 . S
C1362 C1360 1.395 . S
C1362 C1365 1.403 . S
C1363 C1360 1.403 . S
C1363 C1364 1.524 . S
C1363 C1367 1.400 . S
C1364 H1349 0.960 . S
C1364 H1350 0.960 . S
C1364 H1351 0.960 . S
C1364 C1363 1.524 . S
C1365 C1362 1.403 . S
C1365 C1366 1.392 . S
C1365 C1369 1.495 . S
C1366 C1365 1.392 . S
C1366 C1367 1.385 . S
C1366 C1368 1.478 . S
C1367 H1361 0.930 . S
C1367 C1363 1.400 . S
C1367 C1366 1.385 . S
C1368 C1366 1.478 . S
C1368 C1370 1.381 . S
C1368 C1374 1.383 . S
C1369 C1365 1.495 . S
C1369 H1375 0.959 . S
C1369 H1376 0.961 . S
C1369 H1377 0.960 . S
C1370 C1368 1.381 . S
C1370 C1371 1.394 1_554 S
C1370 H1378 0.930 . S
C1371 C1370 1.394 1_556 S
C1371 C1372 1.383 . S
C1371 H1379 0.929 . S
C1372 C1371 1.383 . S
C1372 C1373 1.377 . S
C1373 H1357 0.930 . S
C1373 C1372 1.377 . S
C1373 C1374 1.379 1_556 S
C1374 H1358 0.931 . S
C1374 C1368 1.383 . S
C1374 C1373 1.379 1_554 S
H1375 C1369 0.959 . S
H1376 C1369 0.961 . S
H1377 C1369 0.960 . S
H1378 C1370 0.930 . S
H1379 C1371 0.929 . S
H1380 C1388 0.929 . S
H1381 C1390 0.930 . S
H1382 C1392 0.930 . S
H1383 C1395 0.929 . S
H1384 C1398 0.930 . S
H1385 C1400 0.960 . S
H1386 C1400 0.960 . S
H1387 C1400 0.960 . S
C1388 H1380 0.929 . S
C1388 C1389 1.377 . S
C1388 C1390 1.384 . S
C1389 C1388 1.377 . S
C1389 C1395 1.390 . S
C1390 H1381 0.930 . S
C1390 C1388 1.384 . S
C1390 C1391 1.372 . S
C1391 C1390 1.372 . S
C1391 C1392 1.400 . S
C1391 C1396 1.490 . S
C1392 H1382 0.930 . S
C1392 C1391 1.400 . S
C1392 C1395 1.386 . S
H1393 C1409 0.930 . S
H1394 C1410 0.931 . S
C1395 H1383 0.929 . S
C1395 C1389 1.390 . S
C1395 C1392 1.386 . S
C1396 C1391 1.490 . S
C1396 C1398 1.395 . S
C1396 C1399 1.403 . S
H1397 C1403 0.930 . S
C1398 H1384 0.930 . S
C1398 C1396 1.395 . S
C1398 C1401 1.403 . S
C1399 C1396 1.403 . S
C1399 C1400 1.524 . S
C1399 C1403 1.400 . S
C1400 H1385 0.960 . S
C1400 H1386 0.960 . S
C1400 H1387 0.960 . S
C1400 C1399 1.524 . S
C1401 C1398 1.403 . S
C1401 C1402 1.392 . S
C1401 C1405 1.495 . S
C1402 C1401 1.392 . S
C1402 C1403 1.385 . S
C1402 C1404 1.478 . S
C1403 H1397 0.930 . S
C1403 C1399 1.400 . S
C1403 C1402 1.385 . S
C1404 C1402 1.478 . S
C1404 C1406 1.381 . S
C1404 C1410 1.383 . S
C1405 C1401 1.495 . S
C1405 H1411 0.959 . S
C1405 H1412 0.961 . S
C1405 H1413 0.960 . S
C1406 C1404 1.381 . S
C1406 C1407 1.394 1_554 S
C1406 H1414 0.930 . S
C1407 C1406 1.394 1_556 S
C1407 C1408 1.383 . S
C1407 H1415 0.929 . S
C1408 C1407 1.383 . S
C1408 C1409 1.377 . S
C1409 H1393 0.930 . S
C1409 C1408 1.377 . S
C1409 C1410 1.379 1_556 S
C1410 H1394 0.931 . S
C1410 C1404 1.383 . S
C1410 C1409 1.379 1_554 S
H1411 C1405 0.959 . S
H1412 C1405 0.961 . S
H1413 C1405 0.960 . S
H1414 C1406 0.930 . S
H1415 C1407 0.929 . S
H1416 C1424 0.929 . S
H1417 C1426 0.930 . S
H1418 C1428 0.930 . S
H1419 C1431 0.929 . S
H1420 C1434 0.930 . S
H1421 C1436 0.960 . S
H1422 C1436 0.960 . S
H1423 C1436 0.960 . S
C1424 H1416 0.929 . S
C1424 C1425 1.377 . S
C1424 C1426 1.384 1_554 S
C1425 C1424 1.377 . S
C1425 C1431 1.390 . S
C1426 H1417 0.930 . S
C1426 C1424 1.384 1_556 S
C1426 C1427 1.372 . S
C1427 C1426 1.372 . S
C1427 C1428 1.400 . S
C1427 C1432 1.490 . S
C1428 H1418 0.930 . S
C1428 C1427 1.400 . S
C1428 C1431 1.386 1_556 S
H1429 C1445 0.930 . S
H1430 C1446 0.931 . S
C1431 H1419 0.929 . S
C1431 C1425 1.390 . S
C1431 C1428 1.386 1_554 S
C1432 C1427 1.490 . S
C1432 C1434 1.395 . S
C1432 C1435 1.403 . S
H1433 C1439 0.930 . S
C1434 H1420 0.930 . S
C1434 C1432 1.395 . S
C1434 C1437 1.403 . S
C1435 C1432 1.403 . S
C1435 C1436 1.524 . S
C1435 C1439 1.400 . S
C1436 H1421 0.960 . S
C1436 H1422 0.960 . S
C1436 H1423 0.960 . S
C1436 C1435 1.524 . S
C1437 C1434 1.403 . S
C1437 C1438 1.392 . S
C1437 C1441 1.495 . S
C1438 C1437 1.392 . S
C1438 C1439 1.385 . S
C1438 C1440 1.478 . S
C1439 H1433 0.930 . S
C1439 C1435 1.400 . S
C1439 C1438 1.385 . S
C1440 C1438 1.478 . S
C1440 C1442 1.381 . S
C1440 C1446 1.383 . S
C1441 C1437 1.495 . S
C1441 H1447 0.959 . S
C1441 H1448 0.961 . S
C1441 H1449 0.960 . S
C1442 C1440 1.381 . S
C1442 C1443 1.394 . S
C1442 H1450 0.930 . S
C1443 C1442 1.394 . S
C1443 C1444 1.383 . S
C1443 H1451 0.929 . S
C1444 C1443 1.383 . S
C1444 C1445 1.377 . S
C1445 H1429 0.930 . S
C1445 C1444 1.377 . S
C1445 C1446 1.379 . S
C1446 H1430 0.931 . S
C1446 C1440 1.383 . S
C1446 C1445 1.379 . S
H1447 C1441 0.959 . S
H1448 C1441 0.961 . S
H1449 C1441 0.960 . S
H1450 C1442 0.930 . S
H1451 C1443 0.929 . S
H1452 C1460 0.929 . S
H1453 C1462 0.930 . S
H1454 C1464 0.930 . S
H1455 C1467 0.929 . S
H1456 C1470 0.930 . S
H1457 C1472 0.960 . S
H1458 C1472 0.960 . S
H1459 C1472 0.960 . S
C1460 H1452 0.929 . S
C1460 C1461 1.377 . S
C1460 C1462 1.384 . S
C1461 C1460 1.377 . S
C1461 C1467 1.390 . S
C1462 H1453 0.930 . S
C1462 C1460 1.384 . S
C1462 C1463 1.372 . S
C1463 C1462 1.372 . S
C1463 C1464 1.400 . S
C1463 C1468 1.490 . S
C1464 H1454 0.930 . S
C1464 C1463 1.400 . S
C1464 C1467 1.386 . S
H1465 C1481 0.934 . S
H1466 C1482 0.931 . S
C1467 H1455 0.929 . S
C1467 C1461 1.390 . S
C1467 C1464 1.386 . S
C1468 C1463 1.490 . S
C1468 C1470 1.395 . S
C1468 C1471 1.403 . S
H1469 C1475 0.930 . S
C1470 H1456 0.930 . S
C1470 C1468 1.395 . S
C1470 C1473 1.403 . S
C1471 C1468 1.403 . S
C1471 C1472 1.524 . S
C1471 C1475 1.400 . S
C1472 H1457 0.960 . S
C1472 H1458 0.960 . S
C1472 H1459 0.960 . S
C1472 C1471 1.524 . S
C1473 C1470 1.403 . S
C1473 C1474 1.392 . S
C1473 C1477 1.495 . S
C1474 C1473 1.392 . S
C1474 C1475 1.385 . S
C1474 C1476 1.478 . S
C1475 H1469 0.930 . S
C1475 C1471 1.400 . S
C1475 C1474 1.385 . S
C1476 C1474 1.478 . S
C1476 C1478 1.381 . S
C1476 C1482 1.383 . S
C1477 C1473 1.495 . S
C1477 H1483 0.959 . S
C1477 H1484 0.961 . S
C1477 H1485 0.960 . S
C1478 C1476 1.381 . S
C1478 C1479 1.394 1_556 S
C1478 H1486 0.930 . S
C1479 C1478 1.394 1_554 S
C1479 C1480 1.383 . S
C1479 H1487 0.929 . S
C1480 C1479 1.383 . S
C1480 C1481 1.389 . S
C1481 H1465 0.934 . S
C1481 C1480 1.389 . S
C1481 C1482 1.364 1_554 S
C1482 H1466 0.931 . S
C1482 C1476 1.383 . S
C1482 C1481 1.364 1_556 S
H1483 C1477 0.959 . S
H1484 C1477 0.961 . S
H1485 C1477 0.960 . S
H1486 C1478 0.930 . S
H1487 C1479 0.929 . S
H1488 C1496 0.929 . S
H1489 C1498 0.930 . S
H1490 C1500 0.930 . S
H1491 C1503 0.929 . S
H1492 C1506 0.930 . S
H1493 C1508 0.960 . S
H1494 C1508 0.960 . S
H1495 C1508 0.960 . S
C1496 H1488 0.929 . S
C1496 C1497 1.377 . S
C1496 C1498 1.384 . S
C1497 C1496 1.377 . S
C1497 C1503 1.390 . S
C1498 H1489 0.930 . S
C1498 C1496 1.384 . S
C1498 C1499 1.372 . S
C1499 C1498 1.372 . S
C1499 C1500 1.400 . S
C1499 C1504 1.490 . S
C1500 H1490 0.930 . S
C1500 C1499 1.400 . S
C1500 C1503 1.386 . S
H1501 C1517 0.930 . S
H1502 C1518 0.931 . S
C1503 H1491 0.929 . S
C1503 C1497 1.390 . S
C1503 C1500 1.386 . S
C1504 C1499 1.490 . S
C1504 C1506 1.395 . S
C1504 C1507 1.403 . S
H1505 C1511 0.930 . S
C1506 H1492 0.930 . S
C1506 C1504 1.395 . S
C1506 C1509 1.403 . S
C1507 C1504 1.403 . S
C1507 C1508 1.524 . S
C1507 C1511 1.400 . S
C1508 H1493 0.960 . S
C1508 H1494 0.960 . S
C1508 H1495 0.960 . S
C1508 C1507 1.524 . S
C1509 C1506 1.403 . S
C1509 C1510 1.392 . S
C1509 C1513 1.495 . S
C1510 C1509 1.392 . S
C1510 C1511 1.385 . S
C1510 C1512 1.478 . S
C1511 H1505 0.930 . S
C1511 C1507 1.400 . S
C1511 C1510 1.385 . S
C1512 C1510 1.478 . S
C1512 C1514 1.381 . S
C1512 C1518 1.383 . S
C1513 C1509 1.495 . S
C1513 H1519 0.959 . S
C1513 H1520 0.961 . S
C1513 H1521 0.960 . S
C1514 C1512 1.381 . S
C1514 C1515 1.394 . S
C1514 H1522 0.930 . S
C1515 C1514 1.394 . S
C1515 C1516 1.383 . S
C1515 H1523 0.929 . S
C1516 C1515 1.383 . S
C1516 C1517 1.377 . S
C1517 H1501 0.930 . S
C1517 C1516 1.377 . S
C1517 C1518 1.379 . S
C1518 H1502 0.931 . S
C1518 C1512 1.383 . S
C1518 C1517 1.379 . S
H1519 C1513 0.959 . S
H1520 C1513 0.961 . S
H1521 C1513 0.960 . S
H1522 C1514 0.930 . S
H1523 C1515 0.929 . S
H1524 C1532 0.929 . S
H1525 C1534 0.930 . S
H1526 C1536 0.930 . S
H1527 C1539 0.929 . S
H1528 C1542 0.930 . S
H1529 C1544 0.960 . S
H1530 C1544 0.960 . S
H1531 C1544 0.960 . S
C1532 H1524 0.929 . S
C1532 C1533 1.377 . S
C1532 C1534 1.384 . S
C1533 C1532 1.377 . S
C1533 C1539 1.390 . S
C1534 H1525 0.930 . S
C1534 C1532 1.384 . S
C1534 C1535 1.372 . S
C1535 C1534 1.372 . S
C1535 C1536 1.400 . S
C1535 C1540 1.490 . S
C1536 H1526 0.930 . S
C1536 C1535 1.400 . S
C1536 C1539 1.386 . S
H1537 C1553 0.930 . S
H1538 C1554 0.931 . S
C1539 H1527 0.929 . S
C1539 C1533 1.390 . S
C1539 C1536 1.386 . S
C1540 C1535 1.490 . S
C1540 C1542 1.395 . S
C1540 C1543 1.403 . S
H1541 C1547 0.930 . S
C1542 H1528 0.930 . S
C1542 C1540 1.395 . S
C1542 C1545 1.403 . S
C1543 C1540 1.403 . S
C1543 C1544 1.524 . S
C1543 C1547 1.400 . S
C1544 H1529 0.960 . S
C1544 H1530 0.960 . S
C1544 H1531 0.960 . S
C1544 C1543 1.524 . S
C1545 C1542 1.403 . S
C1545 C1546 1.392 . S
C1545 C1549 1.495 . S
C1546 C1545 1.392 . S
C1546 C1547 1.385 . S
C1546 C1548 1.478 . S
C1547 H1541 0.930 . S
C1547 C1543 1.400 . S
C1547 C1546 1.385 . S
C1548 C1546 1.478 . S
C1548 C1550 1.381 . S
C1548 C1554 1.383 . S
C1549 C1545 1.495 . S
C1549 H1555 0.959 . S
C1549 H1556 0.961 . S
C1549 H1557 0.960 . S
C1550 C1548 1.381 . S
C1550 C1551 1.394 . S
C1550 H1558 0.930 . S
C1551 C1550 1.394 . S
C1551 C1552 1.383 . S
C1551 H1559 0.929 . S
C1552 C1551 1.383 . S
C1552 C1553 1.377 . S
C1553 H1537 0.930 . S
C1553 C1552 1.377 . S
C1553 C1554 1.379 . S
C1554 H1538 0.931 . S
C1554 C1548 1.383 . S
C1554 C1553 1.379 . S
H1555 C1549 0.959 . S
H1556 C1549 0.961 . S
H1557 C1549 0.960 . S
H1558 C1550 0.930 . S
H1559 C1551 0.929 . S
H1560 C1568 0.929 . S
H1561 C1570 0.930 . S
H1562 C1572 0.930 . S
H1563 C1575 0.929 . S
H1564 C1578 0.930 . S
H1565 C1580 0.960 . S
H1566 C1580 0.960 . S
H1567 C1580 0.960 . S
C1568 H1560 0.929 . S
C1568 C1569 1.377 . S
C1568 C1570 1.384 . S
C1569 C1568 1.377 . S
C1569 C1575 1.390 . S
C1570 H1561 0.930 . S
C1570 C1568 1.384 . S
C1570 C1571 1.372 . S
C1571 C1570 1.372 . S
C1571 C1572 1.400 . S
C1571 C1576 1.490 . S
C1572 H1562 0.930 . S
C1572 C1571 1.400 . S
C1572 C1575 1.386 . S
H1573 C1589 0.930 . S
H1574 C1590 0.931 . S
C1575 H1563 0.929 . S
C1575 C1569 1.390 . S
C1575 C1572 1.386 . S
C1576 C1571 1.490 . S
C1576 C1578 1.395 . S
C1576 C1579 1.403 . S
H1577 C1583 0.930 . S
C1578 H1564 0.930 . S
C1578 C1576 1.395 . S
C1578 C1581 1.403 . S
C1579 C1576 1.403 . S
C1579 C1580 1.524 . S
C1579 C1583 1.400 . S
C1580 H1565 0.960 . S
C1580 H1566 0.960 . S
C1580 H1567 0.960 . S
C1580 C1579 1.524 . S
C1581 C1578 1.403 . S
C1581 C1582 1.392 . S
C1581 C1585 1.495 . S
C1582 C1581 1.392 . S
C1582 C1583 1.385 . S
C1582 C1584 1.478 . S
C1583 H1577 0.930 . S
C1583 C1579 1.400 . S
C1583 C1582 1.385 . S
C1584 C1582 1.478 . S
C1584 C1586 1.381 . S
C1584 C1590 1.383 . S
C1585 C1581 1.495 . S
C1585 H1591 0.959 . S
C1585 H1592 0.961 . S
C1585 H1593 0.960 . S
C1586 C1584 1.381 . S
C1586 C1587 1.394 . S
C1586 H1594 0.930 . S
C1587 C1586 1.394 . S
C1587 C1588 1.383 . S
C1587 H1595 0.929 . S
C1588 C1587 1.383 . S
C1588 C1589 1.377 . S
C1589 H1573 0.930 . S
C1589 C1588 1.377 . S
C1589 C1590 1.379 . S
C1590 H1574 0.931 . S
C1590 C1584 1.383 . S
C1590 C1589 1.379 . S
H1591 C1585 0.959 . S
H1592 C1585 0.961 . S
H1593 C1585 0.960 . S
H1594 C1586 0.930 . S
H1595 C1587 0.929 . S
H1596 C1604 0.929 . S
H1597 C1606 0.930 . S
H1598 C1608 0.930 . S
H1599 C1611 0.929 . S
H1600 C1614 0.930 . S
H1601 C1616 0.960 . S
H1602 C1616 0.960 . S
H1603 C1616 0.960 . S
C1604 H1596 0.929 . S
C1604 C1605 1.377 . S
C1604 C1606 1.384 . S
C1605 C1604 1.377 . S
C1605 C1611 1.390 . S
C1606 H1597 0.930 . S
C1606 C1604 1.384 . S
C1606 C1607 1.372 . S
C1607 C1606 1.372 . S
C1607 C1608 1.400 . S
C1607 C1612 1.490 . S
C1608 H1598 0.930 . S
C1608 C1607 1.400 . S
C1608 C1611 1.386 . S
H1609 C1625 0.930 . S
H1610 C1626 0.931 . S
C1611 H1599 0.929 . S
C1611 C1605 1.390 . S
C1611 C1608 1.386 . S
C1612 C1607 1.490 . S
C1612 C1614 1.395 . S
C1612 C1615 1.403 . S
H1613 C1619 0.930 . S
C1614 H1600 0.930 . S
C1614 C1612 1.395 . S
C1614 C1617 1.403 . S
C1615 C1612 1.403 . S
C1615 C1616 1.524 . S
C1615 C1619 1.400 . S
C1616 H1601 0.960 . S
C1616 H1602 0.960 . S
C1616 H1603 0.960 . S
C1616 C1615 1.524 . S
C1617 C1614 1.403 . S
C1617 C1618 1.392 . S
C1617 C1621 1.495 . S
C1618 C1617 1.392 . S
C1618 C1619 1.385 . S
C1618 C1620 1.478 . S
C1619 H1613 0.930 . S
C1619 C1615 1.400 . S
C1619 C1618 1.385 . S
C1620 C1618 1.478 . S
C1620 C1622 1.381 . S
C1620 C1626 1.383 . S
C1621 C1617 1.495 . S
C1621 H1627 0.959 . S
C1621 H1628 0.961 . S
C1621 H1629 0.960 . S
C1622 C1620 1.381 . S
C1622 C1623 1.394 . S
C1622 H1630 0.930 . S
C1623 C1622 1.394 . S
C1623 C1624 1.383 . S
C1623 H1631 0.929 . S
C1624 C1623 1.383 . S
C1624 C1625 1.377 . S
C1625 H1609 0.930 . S
C1625 C1624 1.377 . S
C1625 C1626 1.379 . S
C1626 H1610 0.931 . S
C1626 C1620 1.383 . S
C1626 C1625 1.379 . S
H1627 C1621 0.959 . S
H1628 C1621 0.961 . S
H1629 C1621 0.960 . S
H1630 C1622 0.930 . S
H1631 C1623 0.929 . S
H1632 C1640 0.929 . S
H1633 C1642 0.930 . S
H1634 C1644 0.930 . S
H1635 C1647 0.929 . S
H1636 C1650 0.930 . S
H1637 C1652 0.960 . S
H1638 C1652 0.960 . S
H1639 C1652 0.960 . S
C1640 H1632 0.929 . S
C1640 C1641 1.377 . S
C1640 C1642 1.384 . S
C1641 C1640 1.377 . S
C1641 C1647 1.390 . S
C1642 H1633 0.930 . S
C1642 C1640 1.384 . S
C1642 C1643 1.372 . S
C1643 C1642 1.372 . S
C1643 C1644 1.400 . S
C1643 C1648 1.490 . S
C1644 H1634 0.930 . S
C1644 C1643 1.400 . S
C1644 C1647 1.386 . S
H1645 C1661 0.930 . S
H1646 C1662 0.931 . S
C1647 H1635 0.929 . S
C1647 C1641 1.390 . S
C1647 C1644 1.386 . S
C1648 C1643 1.490 . S
C1648 C1650 1.395 . S
C1648 C1651 1.403 . S
H1649 C1655 0.930 . S
C1650 H1636 0.930 . S
C1650 C1648 1.395 . S
C1650 C1653 1.403 . S
C1651 C1648 1.403 . S
C1651 C1652 1.524 . S
C1651 C1655 1.400 . S
C1652 H1637 0.960 . S
C1652 H1638 0.960 . S
C1652 H1639 0.960 . S
C1652 C1651 1.524 . S
C1653 C1650 1.403 . S
C1653 C1654 1.392 . S
C1653 C1657 1.495 . S
C1654 C1653 1.392 . S
C1654 C1655 1.385 . S
C1654 C1656 1.478 . S
C1655 H1649 0.930 . S
C1655 C1651 1.400 . S
C1655 C1654 1.385 . S
C1656 C1654 1.478 . S
C1656 C1658 1.381 . S
C1656 C1662 1.383 . S
C1657 C1653 1.495 . S
C1657 H1663 0.959 . S
C1657 H1664 0.961 . S
C1657 H1665 0.960 . S
C1658 C1656 1.381 . S
C1658 C1659 1.394 . S
C1658 H1666 0.930 . S
C1659 C1658 1.394 . S
C1659 C1660 1.383 . S
C1659 H1667 0.929 . S
C1660 C1659 1.383 . S
C1660 C1661 1.377 . S
C1661 H1645 0.930 . S
C1661 C1660 1.377 . S
C1661 C1662 1.379 . S
C1662 H1646 0.931 . S
C1662 C1656 1.383 . S
C1662 C1661 1.379 . S
H1663 C1657 0.959 . S
H1664 C1657 0.961 . S
H1665 C1657 0.960 . S
H1666 C1658 0.930 . S
H1667 C1659 0.929 . S
H1668 C1676 0.929 . S
H1669 C1678 0.930 . S
H1670 C1680 0.930 . S
H1671 C1683 0.929 . S
H1672 C1686 0.930 . S
H1673 C1688 0.960 . S
H1674 C1688 0.960 . S
H1675 C1688 0.960 . S
C1676 H1668 0.929 . S
C1676 C1677 1.377 . S
C1676 C1678 1.384 . S
C1677 C1676 1.377 . S
C1677 C1683 1.390 . S
C1678 H1669 0.930 . S
C1678 C1676 1.384 . S
C1678 C1679 1.372 . S
C1679 C1678 1.372 . S
C1679 C1680 1.400 . S
C1679 C1684 1.490 . S
C1680 H1670 0.930 . S
C1680 C1679 1.400 . S
C1680 C1683 1.386 . S
H1681 C1697 0.930 . S
H1682 C1698 0.931 . S
C1683 H1671 0.929 . S
C1683 C1677 1.390 . S
C1683 C1680 1.386 . S
C1684 C1679 1.490 . S
C1684 C1686 1.395 . S
C1684 C1687 1.403 . S
H1685 C1691 0.930 . S
C1686 H1672 0.930 . S
C1686 C1684 1.395 . S
C1686 C1689 1.403 . S
C1687 C1684 1.403 . S
C1687 C1688 1.524 . S
C1687 C1691 1.400 . S
C1688 H1673 0.960 . S
C1688 H1674 0.960 . S
C1688 H1675 0.960 . S
C1688 C1687 1.524 . S
C1689 C1686 1.403 . S
C1689 C1690 1.392 . S
C1689 C1693 1.495 . S
C1690 C1689 1.392 . S
C1690 C1691 1.385 . S
C1690 C1692 1.478 . S
C1691 H1685 0.930 . S
C1691 C1687 1.400 . S
C1691 C1690 1.385 . S
C1692 C1690 1.478 . S
C1692 C1694 1.381 . S
C1692 C1698 1.383 . S
C1693 C1689 1.495 . S
C1693 H1699 0.959 . S
C1693 H1700 0.961 . S
C1693 H1701 0.960 . S
C1694 C1692 1.381 . S
C1694 C1695 1.394 . S
C1694 H1702 0.930 . S
C1695 C1694 1.394 . S
C1695 C1696 1.383 . S
C1695 H1703 0.929 . S
C1696 C1695 1.383 . S
C1696 C1697 1.377 . S
C1697 H1681 0.930 . S
C1697 C1696 1.377 . S
C1697 C1698 1.379 . S
C1698 H1682 0.931 . S
C1698 C1692 1.383 . S
C1698 C1697 1.379 . S
H1699 C1693 0.959 . S
H1700 C1693 0.961 . S
H1701 C1693 0.960 . S
H1702 C1694 0.930 . S
H1703 C1695 0.929 . S
H1704 C1712 0.929 . S
H1705 C1714 0.930 . S
H1706 C1716 0.930 . S
H1707 C1719 0.929 . S
H1708 C1722 0.930 . S
H1709 C1724 0.960 . S
H1710 C1724 0.960 . S
H1711 C1724 0.960 . S
C1712 H1704 0.929 . S
C1712 C1713 1.377 . S
C1712 C1714 1.384 . S
C1713 C1712 1.377 . S
C1713 C1719 1.390 . S
C1714 H1705 0.930 . S
C1714 C1712 1.384 . S
C1714 C1715 1.372 . S
C1715 C1714 1.372 . S
C1715 C1716 1.400 . S
C1715 C1720 1.490 . S
C1716 H1706 0.930 . S
C1716 C1715 1.400 . S
C1716 C1719 1.386 . S
H1717 C1733 0.930 . S
H1718 C1734 0.931 . S
C1719 H1707 0.929 . S
C1719 C1713 1.390 . S
C1719 C1716 1.386 . S
C1720 C1715 1.490 . S
C1720 C1722 1.395 . S
C1720 C1723 1.403 . S
H1721 C1727 0.930 . S
C1722 H1708 0.930 . S
C1722 C1720 1.395 . S
C1722 C1725 1.403 . S
C1723 C1720 1.403 . S
C1723 C1724 1.524 . S
C1723 C1727 1.400 . S
C1724 H1709 0.960 . S
C1724 H1710 0.960 . S
C1724 H1711 0.960 . S
C1724 C1723 1.524 . S
C1725 C1722 1.403 . S
C1725 C1726 1.392 . S
C1725 C1729 1.495 . S
C1726 C1725 1.392 . S
C1726 C1727 1.385 . S
C1726 C1728 1.478 . S
C1727 H1721 0.930 . S
C1727 C1723 1.400 . S
C1727 C1726 1.385 . S
C1728 C1726 1.478 . S
C1728 C1730 1.381 . S
C1728 C1734 1.383 . S
C1729 C1725 1.495 . S
C1729 H1735 0.959 . S
C1729 H1736 0.961 . S
C1729 H1737 0.960 . S
C1730 C1728 1.381 . S
C1730 C1731 1.394 . S
C1730 H1738 0.930 . S
C1731 C1730 1.394 . S
C1731 C1732 1.383 . S
C1731 H1739 0.929 . S
C1732 C1731 1.383 . S
C1732 C1733 1.377 . S
C1733 H1717 0.930 . S
C1733 C1732 1.377 . S
C1733 C1734 1.379 . S
C1734 H1718 0.931 . S
C1734 C1728 1.383 . S
C1734 C1733 1.379 . S
H1735 C1729 0.959 . S
H1736 C1729 0.961 . S
H1737 C1729 0.960 . S
H1738 C1730 0.930 . S
H1739 C1731 0.929 . S
H1740 C1748 0.929 . S
H1741 C1750 0.930 . S
H1742 C1752 0.930 . S
H1743 C1755 0.929 . S
H1744 C1758 0.930 . S
H1745 C1760 0.960 . S
H1746 C1760 0.960 . S
H1747 C1760 0.960 . S
C1748 H1740 0.929 . S
C1748 C1749 1.377 . S
C1748 C1750 1.384 . S
C1749 C1748 1.377 . S
C1749 C1755 1.390 . S
C1750 H1741 0.930 . S
C1750 C1748 1.384 . S
C1750 C1751 1.372 . S
C1751 C1750 1.372 . S
C1751 C1752 1.400 . S
C1751 C1756 1.490 . S
C1752 H1742 0.930 . S
C1752 C1751 1.400 . S
C1752 C1755 1.386 . S
H1753 C1769 0.930 . S
H1754 C1770 0.931 . S
C1755 H1743 0.929 . S
C1755 C1749 1.390 . S
C1755 C1752 1.386 . S
C1756 C1751 1.490 . S
C1756 C1758 1.395 . S
C1756 C1759 1.403 . S
H1757 C1763 0.930 . S
C1758 H1744 0.930 . S
C1758 C1756 1.395 . S
C1758 C1761 1.403 . S
C1759 C1756 1.403 . S
C1759 C1760 1.524 . S
C1759 C1763 1.400 . S
C1760 H1745 0.960 . S
C1760 H1746 0.960 . S
C1760 H1747 0.960 . S
C1760 C1759 1.524 . S
C1761 C1758 1.403 . S
C1761 C1762 1.392 . S
C1761 C1765 1.495 . S
C1762 C1761 1.392 . S
C1762 C1763 1.385 . S
C1762 C1764 1.478 . S
C1763 H1757 0.930 . S
C1763 C1759 1.400 . S
C1763 C1762 1.385 . S
C1764 C1762 1.478 . S
C1764 C1766 1.381 . S
C1764 C1770 1.383 . S
C1765 C1761 1.495 . S
C1765 H1771 0.959 . S
C1765 H1772 0.961 . S
C1765 H1773 0.960 . S
C1766 C1764 1.381 . S
C1766 C1767 1.394 . S
C1766 H1774 0.930 . S
C1767 C1766 1.394 . S
C1767 C1768 1.383 . S
C1767 H1775 0.929 . S
C1768 C1767 1.383 . S
C1768 C1769 1.377 . S
C1769 H1753 0.930 . S
C1769 C1768 1.377 . S
C1769 C1770 1.379 . S
C1770 H1754 0.931 . S
C1770 C1764 1.383 . S
C1770 C1769 1.379 . S
H1771 C1765 0.959 . S
H1772 C1765 0.961 . S
H1773 C1765 0.960 . S
H1774 C1766 0.930 . S
H1775 C1767 0.929 . S
H1776 C1784 0.929 . S
H1777 C1786 0.930 . S
H1778 C1788 0.930 . S
H1779 C1791 0.929 . S
H1780 C1794 0.930 . S
H1781 C1796 0.960 . S
H1782 C1796 0.960 . S
H1783 C1796 0.960 . S
C1784 H1776 0.929 . S
C1784 C1785 1.377 . S
C1784 C1786 1.384 . S
C1785 C1784 1.377 . S
C1785 C1791 1.390 . S
C1786 H1777 0.930 . S
C1786 C1784 1.384 . S
C1786 C1787 1.372 . S
C1787 C1786 1.372 . S
C1787 C1788 1.400 . S
C1787 C1792 1.490 . S
C1788 H1778 0.930 . S
C1788 C1787 1.400 . S
C1788 C1791 1.386 . S
H1789 C1805 0.930 . S
H1790 C1806 0.931 . S
C1791 H1779 0.929 . S
C1791 C1785 1.390 . S
C1791 C1788 1.386 . S
C1792 C1787 1.490 . S
C1792 C1794 1.395 . S
C1792 C1795 1.403 . S
H1793 C1799 0.930 . S
C1794 H1780 0.930 . S
C1794 C1792 1.395 . S
C1794 C1797 1.403 . S
C1795 C1792 1.403 . S
C1795 C1796 1.524 . S
C1795 C1799 1.400 . S
C1796 H1781 0.960 . S
C1796 H1782 0.960 . S
C1796 H1783 0.960 . S
C1796 C1795 1.524 . S
C1797 C1794 1.403 . S
C1797 C1798 1.392 . S
C1797 C1801 1.495 . S
C1798 C1797 1.392 . S
C1798 C1799 1.385 . S
C1798 C1800 1.478 . S
C1799 H1793 0.930 . S
C1799 C1795 1.400 . S
C1799 C1798 1.385 . S
C1800 C1798 1.478 . S
C1800 C1802 1.381 . S
C1800 C1806 1.383 . S
C1801 C1797 1.495 . S
C1801 H1807 0.959 . S
C1801 H1808 0.961 . S
C1801 H1809 0.960 . S
C1802 C1800 1.381 . S
C1802 C1803 1.394 . S
C1802 H1810 0.930 . S
C1803 C1802 1.394 . S
C1803 C1804 1.383 . S
C1803 H1811 0.929 . S
C1804 C1803 1.383 . S
C1804 C1805 1.377 . S
C1805 H1789 0.930 . S
C1805 C1804 1.377 . S
C1805 C1806 1.379 . S
C1806 H1790 0.931 . S
C1806 C1800 1.383 . S
C1806 C1805 1.379 . S
H1807 C1801 0.959 . S
H1808 C1801 0.961 . S
H1809 C1801 0.960 . S
H1810 C1802 0.930 . S
H1811 C1803 0.929 . S
H1812 C1820 0.929 . S
H1813 C1822 0.930 . S
H1814 C1824 0.930 . S
H1815 C1827 0.929 . S
H1816 C1830 0.930 . S
H1817 C1832 0.960 . S
H1818 C1832 0.960 . S
H1819 C1832 0.960 . S
C1820 H1812 0.929 . S
C1820 C1821 1.377 . S
C1820 C1822 1.384 . S
C1821 C1820 1.377 . S
C1821 C1827 1.390 . S
C1822 H1813 0.930 . S
C1822 C1820 1.384 . S
C1822 C1823 1.372 . S
C1823 C1822 1.372 . S
C1823 C1824 1.400 . S
C1823 C1828 1.490 . S
C1824 H1814 0.930 . S
C1824 C1823 1.400 . S
C1824 C1827 1.386 . S
H1825 C1841 0.930 . S
H1826 C1842 0.931 . S
C1827 H1815 0.929 . S
C1827 C1821 1.390 . S
C1827 C1824 1.386 . S
C1828 C1823 1.490 . S
C1828 C1830 1.395 . S
C1828 C1831 1.403 . S
H1829 C1835 0.930 . S
C1830 H1816 0.930 . S
C1830 C1828 1.395 . S
C1830 C1833 1.403 . S
C1831 C1828 1.403 . S
C1831 C1832 1.524 . S
C1831 C1835 1.400 . S
C1832 H1817 0.960 . S
C1832 H1818 0.960 . S
C1832 H1819 0.960 . S
C1832 C1831 1.524 . S
C1833 C1830 1.403 . S
C1833 C1834 1.392 . S
C1833 C1837 1.495 . S
C1834 C1833 1.392 . S
C1834 C1835 1.385 . S
C1834 C1836 1.478 . S
C1835 H1829 0.930 . S
C1835 C1831 1.400 . S
C1835 C1834 1.385 . S
C1836 C1834 1.478 . S
C1836 C1838 1.381 . S
C1836 C1842 1.383 . S
C1837 C1833 1.495 . S
C1837 H1843 0.959 . S
C1837 H1844 0.961 . S
C1837 H1845 0.960 . S
C1838 C1836 1.381 . S
C1838 C1839 1.394 . S
C1838 H1846 0.930 . S
C1839 C1838 1.394 . S
C1839 C1840 1.383 . S
C1839 H1847 0.929 . S
C1840 C1839 1.383 . S
C1840 C1841 1.377 . S
C1841 H1825 0.930 . S
C1841 C1840 1.377 . S
C1841 C1842 1.379 . S
C1842 H1826 0.931 . S
C1842 C1836 1.383 . S
C1842 C1841 1.379 . S
H1843 C1837 0.959 . S
H1844 C1837 0.961 . S
H1845 C1837 0.960 . S
H1846 C1838 0.930 . S
H1847 C1839 0.929 . S
H1848 C1856 0.929 . S
H1849 C1858 0.930 . S
H1850 C1860 0.930 . S
H1851 C1863 0.929 . S
H1852 C1866 0.930 . S
H1853 C1868 0.960 . S
H1854 C1868 0.960 . S
H1855 C1868 0.960 . S
C1856 H1848 0.929 . S
C1856 C1857 1.377 . S
C1856 C1858 1.384 . S
C1857 C1856 1.377 . S
C1857 C1863 1.390 . S
C1858 H1849 0.930 . S
C1858 C1856 1.384 . S
C1858 C1859 1.372 . S
C1859 C1858 1.372 . S
C1859 C1860 1.400 . S
C1859 C1864 1.490 . S
C1860 H1850 0.930 . S
C1860 C1859 1.400 . S
C1860 C1863 1.386 . S
H1861 C1877 0.930 . S
H1862 C1878 0.931 . S
C1863 H1851 0.929 . S
C1863 C1857 1.390 . S
C1863 C1860 1.386 . S
C1864 C1859 1.490 . S
C1864 C1866 1.395 . S
C1864 C1867 1.403 . S
H1865 C1871 0.930 . S
C1866 H1852 0.930 . S
C1866 C1864 1.395 . S
C1866 C1869 1.403 . S
C1867 C1864 1.403 . S
C1867 C1868 1.524 . S
C1867 C1871 1.400 . S
C1868 H1853 0.960 . S
C1868 H1854 0.960 . S
C1868 H1855 0.960 . S
C1868 C1867 1.524 . S
C1869 C1866 1.403 . S
C1869 C1870 1.392 . S
C1869 C1873 1.495 . S
C1870 C1869 1.392 . S
C1870 C1871 1.385 . S
C1870 C1872 1.478 . S
C1871 H1865 0.930 . S
C1871 C1867 1.400 . S
C1871 C1870 1.385 . S
C1872 C1870 1.478 . S
C1872 C1874 1.381 . S
C1872 C1878 1.383 . S
C1873 C1869 1.495 . S
C1873 H1879 0.959 . S
C1873 H1880 0.961 . S
C1873 H1881 0.960 . S
C1874 C1872 1.381 . S
C1874 C1875 1.394 . S
C1874 H1882 0.930 . S
C1875 C1874 1.394 . S
C1875 C1876 1.383 . S
C1875 H1883 0.929 . S
C1876 C1875 1.383 . S
C1876 C1877 1.377 . S
C1877 H1861 0.930 . S
C1877 C1876 1.377 . S
C1877 C1878 1.379 . S
C1878 H1862 0.931 . S
C1878 C1872 1.383 . S
C1878 C1877 1.379 . S
H1879 C1873 0.959 . S
H1880 C1873 0.961 . S
H1881 C1873 0.960 . S
H1882 C1874 0.930 . S
H1883 C1875 0.929 . S
H1884 C1892 0.929 . S
H1885 C1894 0.930 . S
H1886 C1896 0.930 . S
H1887 C1899 0.929 . S
H1888 C1902 0.930 . S
H1889 C1904 0.960 . S
H1890 C1904 0.960 . S
H1891 C1904 0.960 . S
C1892 H1884 0.929 . S
C1892 C1893 1.377 . S
C1892 C1894 1.384 . S
C1893 C1892 1.377 . S
C1893 C1899 1.390 . S
C1894 H1885 0.930 . S
C1894 C1892 1.384 . S
C1894 C1895 1.372 . S
C1895 C1894 1.372 . S
C1895 C1896 1.400 . S
C1895 C1900 1.490 . S
C1896 H1886 0.930 . S
C1896 C1895 1.400 . S
C1896 C1899 1.386 . S
H1897 C1913 0.930 . S
H1898 C1914 0.931 . S
C1899 H1887 0.929 . S
C1899 C1893 1.390 . S
C1899 C1896 1.386 . S
C1900 C1895 1.490 . S
C1900 C1902 1.395 . S
C1900 C1903 1.403 . S
H1901 C1907 0.930 . S
C1902 H1888 0.930 . S
C1902 C1900 1.395 . S
C1902 C1905 1.403 . S
C1903 C1900 1.403 . S
C1903 C1904 1.524 . S
C1903 C1907 1.400 . S
C1904 H1889 0.960 . S
C1904 H1890 0.960 . S
C1904 H1891 0.960 . S
C1904 C1903 1.524 . S
C1905 C1902 1.403 . S
C1905 C1906 1.392 . S
C1905 C1909 1.495 . S
C1906 C1905 1.392 . S
C1906 C1907 1.385 . S
C1906 C1908 1.478 . S
C1907 H1901 0.930 . S
C1907 C1903 1.400 . S
C1907 C1906 1.385 . S
C1908 C1906 1.478 . S
C1908 C1910 1.381 . S
C1908 C1914 1.383 . S
C1909 C1905 1.495 . S
C1909 H1915 0.959 . S
C1909 H1916 0.961 . S
C1909 H1917 0.960 . S
C1910 C1908 1.381 . S
C1910 C1911 1.394 . S
C1910 H1918 0.930 . S
C1911 C1910 1.394 . S
C1911 C1912 1.383 . S
C1911 H1919 0.929 . S
C1912 C1911 1.383 . S
C1912 C1913 1.377 . S
C1913 H1897 0.930 . S
C1913 C1912 1.377 . S
C1913 C1914 1.379 . S
C1914 H1898 0.931 . S
C1914 C1908 1.383 . S
C1914 C1913 1.379 . S
H1915 C1909 0.959 . S
H1916 C1909 0.961 . S
H1917 C1909 0.960 . S
H1918 C1910 0.930 . S
H1919 C1911 0.929 . S
H1920 C1928 0.929 . S
H1921 C1930 0.930 . S
H1922 C1932 0.930 . S
H1923 C1935 0.929 . S
H1924 C1938 0.930 . S
H1925 C1940 0.960 . S
H1926 C1940 0.960 . S
H1927 C1940 0.960 . S
C1928 H1920 0.929 . S
C1928 C1929 1.377 . S
C1928 C1930 1.384 . S
C1929 C1928 1.377 . S
C1929 C1935 1.390 . S
C1930 H1921 0.930 . S
C1930 C1928 1.384 . S
C1930 C1931 1.372 . S
C1931 C1930 1.372 . S
C1931 C1932 1.400 . S
C1931 C1936 1.490 . S
C1932 H1922 0.930 . S
C1932 C1931 1.400 . S
C1932 C1935 1.386 . S
H1933 C1949 0.930 . S
H1934 C1950 0.931 . S
C1935 H1923 0.929 . S
C1935 C1929 1.390 . S
C1935 C1932 1.386 . S
C1936 C1931 1.490 . S
C1936 C1938 1.395 . S
C1936 C1939 1.403 . S
H1937 C1943 0.930 . S
C1938 H1924 0.930 . S
C1938 C1936 1.395 . S
C1938 C1941 1.403 . S
C1939 C1936 1.403 . S
C1939 C1940 1.524 . S
C1939 C1943 1.400 . S
C1940 H1925 0.960 . S
C1940 H1926 0.960 . S
C1940 H1927 0.960 . S
C1940 C1939 1.524 . S
C1941 C1938 1.403 . S
C1941 C1942 1.392 . S
C1941 C1945 1.495 . S
C1942 C1941 1.392 . S
C1942 C1943 1.385 . S
C1942 C1944 1.478 . S
C1943 H1937 0.930 . S
C1943 C1939 1.400 . S
C1943 C1942 1.385 . S
C1944 C1942 1.478 . S
C1944 C1946 1.381 . S
C1944 C1950 1.383 . S
C1945 C1941 1.495 . S
C1945 H1951 0.959 . S
C1945 H1952 0.961 . S
C1945 H1953 0.960 . S
C1946 C1944 1.381 . S
C1946 C1947 1.394 . S
C1946 H1954 0.930 . S
C1947 C1946 1.394 . S
C1947 C1948 1.383 . S
C1947 H1955 0.929 . S
C1948 C1947 1.383 . S
C1948 C1949 1.377 . S
C1949 H1933 0.930 . S
C1949 C1948 1.377 . S
C1949 C1950 1.379 . S
C1950 H1934 0.931 . S
C1950 C1944 1.383 . S
C1950 C1949 1.379 . S
H1951 C1945 0.959 . S
H1952 C1945 0.961 . S
H1953 C1945 0.960 . S
H1954 C1946 0.930 . S
H1955 C1947 0.929 . S
H1956 C1964 0.929 . S
H1957 C1966 0.930 . S
H1958 C1968 0.930 . S
H1959 C1971 0.929 . S
H1960 C1974 0.930 . S
H1961 C1976 0.960 . S
H1962 C1976 0.960 . S
H1963 C1976 0.960 . S
C1964 H1956 0.929 . S
C1964 C1965 1.377 . S
C1964 C1966 1.384 . S
C1965 C1964 1.377 . S
C1965 C1971 1.390 . S
C1966 H1957 0.930 . S
C1966 C1964 1.384 . S
C1966 C1967 1.372 . S
C1967 C1966 1.372 . S
C1967 C1968 1.400 . S
C1967 C1972 1.490 . S
C1968 H1958 0.930 . S
C1968 C1967 1.400 . S
C1968 C1971 1.386 . S
H1969 C1985 0.930 . S
H1970 C1986 0.931 . S
C1971 H1959 0.929 . S
C1971 C1965 1.390 . S
C1971 C1968 1.386 . S
C1972 C1967 1.490 . S
C1972 C1974 1.395 . S
C1972 C1975 1.403 . S
H1973 C1979 0.930 . S
C1974 H1960 0.930 . S
C1974 C1972 1.395 . S
C1974 C1977 1.403 . S
C1975 C1972 1.403 . S
C1975 C1976 1.524 . S
C1975 C1979 1.400 . S
C1976 H1961 0.960 . S
C1976 H1962 0.960 . S
C1976 H1963 0.960 . S
C1976 C1975 1.524 . S
C1977 C1974 1.403 . S
C1977 C1978 1.392 . S
C1977 C1981 1.495 . S
C1978 C1977 1.392 . S
C1978 C1979 1.385 . S
C1978 C1980 1.478 . S
C1979 H1973 0.930 . S
C1979 C1975 1.400 . S
C1979 C1978 1.385 . S
C1980 C1978 1.478 . S
C1980 C1982 1.381 . S
C1980 C1986 1.383 . S
C1981 C1977 1.495 . S
C1981 H1987 0.959 . S
C1981 H1988 0.961 . S
C1981 H1989 0.960 . S
C1982 C1980 1.381 . S
C1982 C1983 1.394 . S
C1982 H1990 0.930 . S
C1983 C1982 1.394 . S
C1983 C1984 1.383 . S
C1983 H1991 0.929 . S
C1984 C1983 1.383 . S
C1984 C1985 1.377 . S
C1985 H1969 0.930 . S
C1985 C1984 1.377 . S
C1985 C1986 1.379 . S
C1986 H1970 0.931 . S
C1986 C1980 1.383 . S
C1986 C1985 1.379 . S
H1987 C1981 0.959 . S
H1988 C1981 0.961 . S
H1989 C1981 0.960 . S
H1990 C1982 0.930 . S
H1991 C1983 0.929 . S
H1992 C2000 0.929 . S
H1993 C2002 0.930 . S
H1994 C2004 0.930 . S
H1995 C2007 0.929 . S
H1996 C2010 0.930 . S
H1997 C2012 0.960 . S
H1998 C2012 0.960 . S
H1999 C2012 0.960 . S
C2000 H1992 0.929 . S
C2000 C2001 1.377 . S
C2000 C2002 1.384 . S
C2001 C2000 1.377 . S
C2001 C2007 1.390 . S
C2002 H1993 0.930 . S
C2002 C2000 1.384 . S
C2002 C2003 1.372 . S
C2003 C2002 1.372 . S
C2003 C2004 1.400 . S
C2003 C2008 1.490 . S
C2004 H1994 0.930 . S
C2004 C2003 1.400 . S
C2004 C2007 1.386 . S
H2005 C2021 0.930 . S
H2006 C2022 0.931 . S
C2007 H1995 0.929 . S
C2007 C2001 1.390 . S
C2007 C2004 1.386 . S
C2008 C2003 1.490 . S
C2008 C2010 1.395 . S
C2008 C2011 1.403 . S
H2009 C2015 0.930 . S
C2010 H1996 0.930 . S
C2010 C2008 1.395 . S
C2010 C2013 1.403 . S
C2011 C2008 1.403 . S
C2011 C2012 1.524 . S
C2011 C2015 1.400 . S
C2012 H1997 0.960 . S
C2012 H1998 0.960 . S
C2012 H1999 0.960 . S
C2012 C2011 1.524 . S
C2013 C2010 1.403 . S
C2013 C2014 1.392 . S
C2013 C2017 1.495 . S
C2014 C2013 1.392 . S
C2014 C2015 1.385 . S
C2014 C2016 1.478 . S
C2015 H2009 0.930 . S
C2015 C2011 1.400 . S
C2015 C2014 1.385 . S
C2016 C2014 1.478 . S
C2016 C2018 1.381 . S
C2016 C2022 1.383 . S
C2017 C2013 1.495 . S
C2017 H2023 0.959 . S
C2017 H2024 0.961 . S
C2017 H2025 0.960 . S
C2018 C2016 1.381 . S
C2018 C2019 1.394 . S
C2018 H2026 0.930 . S
C2019 C2018 1.394 . S
C2019 C2020 1.383 . S
C2019 H2027 0.929 . S
C2020 C2019 1.383 . S
C2020 C2021 1.377 . S
C2021 H2005 0.930 . S
C2021 C2020 1.377 . S
C2021 C2022 1.379 . S
C2022 H2006 0.931 . S
C2022 C2016 1.383 . S
C2022 C2021 1.379 . S
H2023 C2017 0.959 . S
H2024 C2017 0.961 . S
H2025 C2017 0.960 . S
H2026 C2018 0.930 . S
H2027 C2019 0.929 . S
H2028 C2036 0.929 . S
H2029 C2038 0.930 . S
H2030 C2040 0.930 . S
H2031 C2043 0.929 . S
H2032 C2046 0.930 . S
H2033 C2048 0.960 . S
H2034 C2048 0.960 . S
H2035 C2048 0.960 . S
C2036 H2028 0.929 . S
C2036 C2037 1.377 . S
C2036 C2038 1.384 . S
C2037 C2036 1.377 . S
C2037 C2043 1.390 . S
C2038 H2029 0.930 . S
C2038 C2036 1.384 . S
C2038 C2039 1.372 . S
C2039 C2038 1.372 . S
C2039 C2040 1.400 . S
C2039 C2044 1.490 . S
C2040 H2030 0.930 . S
C2040 C2039 1.400 . S
C2040 C2043 1.386 . S
H2041 C2057 0.930 . S
H2042 C2058 0.931 . S
C2043 H2031 0.929 . S
C2043 C2037 1.390 . S
C2043 C2040 1.386 . S
C2044 C2039 1.490 . S
C2044 C2046 1.395 . S
C2044 C2047 1.403 . S
H2045 C2051 0.930 . S
C2046 H2032 0.930 . S
C2046 C2044 1.395 . S
C2046 C2049 1.403 . S
C2047 C2044 1.403 . S
C2047 C2048 1.524 . S
C2047 C2051 1.400 . S
C2048 H2033 0.960 . S
C2048 H2034 0.960 . S
C2048 H2035 0.960 . S
C2048 C2047 1.524 . S
C2049 C2046 1.403 . S
C2049 C2050 1.392 . S
C2049 C2053 1.495 . S
C2050 C2049 1.392 . S
C2050 C2051 1.385 . S
C2050 C2052 1.478 . S
C2051 H2045 0.930 . S
C2051 C2047 1.400 . S
C2051 C2050 1.385 . S
C2052 C2050 1.478 . S
C2052 C2054 1.381 . S
C2052 C2058 1.383 . S
C2053 C2049 1.495 . S
C2053 H2059 0.959 . S
C2053 H2060 0.961 . S
C2053 H2061 0.960 . S
C2054 C2052 1.381 . S
C2054 C2055 1.394 . S
C2054 H2062 0.930 . S
C2055 C2054 1.394 . S
C2055 C2056 1.383 . S
C2055 H2063 0.929 . S
C2056 C2055 1.383 . S
C2056 C2057 1.377 . S
C2057 H2041 0.930 . S
C2057 C2056 1.377 . S
C2057 C2058 1.379 . S
C2058 H2042 0.931 . S
C2058 C2052 1.383 . S
C2058 C2057 1.379 . S
H2059 C2053 0.959 . S
H2060 C2053 0.961 . S
H2061 C2053 0.960 . S
H2062 C2054 0.930 . S
H2063 C2055 0.929 . S
H2064 C2072 0.929 . S
H2065 C2074 0.930 . S
H2066 C2076 0.930 . S
H2067 C2079 0.929 . S
H2068 C2082 0.930 . S
H2069 C2084 0.960 . S
H2070 C2084 0.960 . S
H2071 C2084 0.960 . S
C2072 H2064 0.929 . S
C2072 C2073 1.377 . S
C2072 C2074 1.384 . S
C2073 C2072 1.377 . S
C2073 C2079 1.390 . S
C2074 H2065 0.930 . S
C2074 C2072 1.384 . S
C2074 C2075 1.372 . S
C2075 C2074 1.372 . S
C2075 C2076 1.400 . S
C2075 C2080 1.490 . S
C2076 H2066 0.930 . S
C2076 C2075 1.400 . S
C2076 C2079 1.386 . S
H2077 C2093 0.930 . S
H2078 C2094 0.931 . S
C2079 H2067 0.929 . S
C2079 C2073 1.390 . S
C2079 C2076 1.386 . S
C2080 C2075 1.490 . S
C2080 C2082 1.395 . S
C2080 C2083 1.403 . S
H2081 C2087 0.930 . S
C2082 H2068 0.930 . S
C2082 C2080 1.395 . S
C2082 C2085 1.403 . S
C2083 C2080 1.403 . S
C2083 C2084 1.524 . S
C2083 C2087 1.400 . S
C2084 H2069 0.960 . S
C2084 H2070 0.960 . S
C2084 H2071 0.960 . S
C2084 C2083 1.524 . S
C2085 C2082 1.403 . S
C2085 C2086 1.392 . S
C2085 C2089 1.495 . S
C2086 C2085 1.392 . S
C2086 C2087 1.385 . S
C2086 C2088 1.478 . S
C2087 H2081 0.930 . S
C2087 C2083 1.400 . S
C2087 C2086 1.385 . S
C2088 C2086 1.478 . S
C2088 C2090 1.381 . S
C2088 C2094 1.383 . S
C2089 C2085 1.495 . S
C2089 H2095 0.959 . S
C2089 H2096 0.961 . S
C2089 H2097 0.960 . S
C2090 C2088 1.381 . S
C2090 C2091 1.394 . S
C2090 H2098 0.930 . S
C2091 C2090 1.394 . S
C2091 C2092 1.383 . S
C2091 H2099 0.929 . S
C2092 C2091 1.383 . S
C2092 C2093 1.377 . S
C2093 H2077 0.930 . S
C2093 C2092 1.377 . S
C2093 C2094 1.379 . S
C2094 H2078 0.931 . S
C2094 C2088 1.383 . S
C2094 C2093 1.379 . S
H2095 C2089 0.959 . S
H2096 C2089 0.961 . S
H2097 C2089 0.960 . S
H2098 C2090 0.930 . S
H2099 C2091 0.929 . S
H2100 C2108 0.929 . S
H2101 C2110 0.930 . S
H2102 C2112 0.930 . S
H2103 C2115 0.929 . S
H2104 C2118 0.930 . S
H2105 C2120 0.960 . S
H2106 C2120 0.960 . S
H2107 C2120 0.960 . S
C2108 H2100 0.929 . S
C2108 C2109 1.377 . S
C2108 C2110 1.384 . S
C2109 C2108 1.377 . S
C2109 C2115 1.390 . S
C2110 H2101 0.930 . S
C2110 C2108 1.384 . S
C2110 C2111 1.372 . S
C2111 C2110 1.372 . S
C2111 C2112 1.400 . S
C2111 C2116 1.490 . S
C2112 H2102 0.930 . S
C2112 C2111 1.400 . S
C2112 C2115 1.386 . S
H2113 C2129 0.930 . S
H2114 C2130 0.931 . S
C2115 H2103 0.929 . S
C2115 C2109 1.390 . S
C2115 C2112 1.386 . S
C2116 C2111 1.490 . S
C2116 C2118 1.395 . S
C2116 C2119 1.403 . S
H2117 C2123 0.930 . S
C2118 H2104 0.930 . S
C2118 C2116 1.395 . S
C2118 C2121 1.403 . S
C2119 C2116 1.403 . S
C2119 C2120 1.524 . S
C2119 C2123 1.400 . S
C2120 H2105 0.960 . S
C2120 H2106 0.960 . S
C2120 H2107 0.960 . S
C2120 C2119 1.524 . S
C2121 C2118 1.403 . S
C2121 C2122 1.392 . S
C2121 C2125 1.495 . S
C2122 C2121 1.392 . S
C2122 C2123 1.385 . S
C2122 C2124 1.478 . S
C2123 H2117 0.930 . S
C2123 C2119 1.400 . S
C2123 C2122 1.385 . S
C2124 C2122 1.478 . S
C2124 C2126 1.381 . S
C2124 C2130 1.383 . S
C2125 C2121 1.495 . S
C2125 H2131 0.959 . S
C2125 H2132 0.961 . S
C2125 H2133 0.960 . S
C2126 C2124 1.381 . S
C2126 C2127 1.394 . S
C2126 H2134 0.930 . S
C2127 C2126 1.394 . S
C2127 C2128 1.383 . S
C2127 H2135 0.929 . S
C2128 C2127 1.383 . S
C2128 C2129 1.377 . S
C2129 H2113 0.930 . S
C2129 C2128 1.377 . S
C2129 C2130 1.379 . S
C2130 H2114 0.931 . S
C2130 C2124 1.383 . S
C2130 C2129 1.379 . S
H2131 C2125 0.959 . S
H2132 C2125 0.961 . S
H2133 C2125 0.960 . S
H2134 C2126 0.930 . S
H2135 C2127 0.929 . S
H2136 C2144 0.929 . S
H2137 C2146 0.930 . S
H2138 C2148 0.930 . S
H2139 C2151 0.929 . S
H2140 C2154 0.930 . S
H2141 C2156 0.960 . S
H2142 C2156 0.960 . S
H2143 C2156 0.960 . S
C2144 H2136 0.929 . S
C2144 C2145 1.377 . S
C2144 C2146 1.384 . S
C2145 C2144 1.377 . S
C2145 C2151 1.390 . S
C2146 H2137 0.930 . S
C2146 C2144 1.384 . S
C2146 C2147 1.372 . S
C2147 C2146 1.372 . S
C2147 C2148 1.400 . S
C2147 C2152 1.490 . S
C2148 H2138 0.930 . S
C2148 C2147 1.400 . S
C2148 C2151 1.386 . S
H2149 C2165 0.930 . S
H2150 C2166 0.931 . S
C2151 H2139 0.929 . S
C2151 C2145 1.390 . S
C2151 C2148 1.386 . S
C2152 C2147 1.490 . S
C2152 C2154 1.395 . S
C2152 C2155 1.403 . S
H2153 C2159 0.930 . S
C2154 H2140 0.930 . S
C2154 C2152 1.395 . S
C2154 C2157 1.403 . S
C2155 C2152 1.403 . S
C2155 C2156 1.524 . S
C2155 C2159 1.400 . S
C2156 H2141 0.960 . S
C2156 H2142 0.960 . S
C2156 H2143 0.960 . S
C2156 C2155 1.524 . S
C2157 C2154 1.403 . S
C2157 C2158 1.392 . S
C2157 C2161 1.495 . S
C2158 C2157 1.392 . S
C2158 C2159 1.385 . S
C2158 C2160 1.478 . S
C2159 H2153 0.930 . S
C2159 C2155 1.400 . S
C2159 C2158 1.385 . S
C2160 C2158 1.478 . S
C2160 C2162 1.381 . S
C2160 C2166 1.383 . S
C2161 C2157 1.495 . S
C2161 H2167 0.959 . S
C2161 H2168 0.961 . S
C2161 H2169 0.960 . S
C2162 C2160 1.381 . S
C2162 C2163 1.394 . S
C2162 H2170 0.930 . S
C2163 C2162 1.394 . S
C2163 C2164 1.383 . S
C2163 H2171 0.929 . S
C2164 C2163 1.383 . S
C2164 C2165 1.377 . S
C2165 H2149 0.930 . S
C2165 C2164 1.377 . S
C2165 C2166 1.379 . S
C2166 H2150 0.931 . S
C2166 C2160 1.383 . S
C2166 C2165 1.379 . S
H2167 C2161 0.959 . S
H2168 C2161 0.961 . S
H2169 C2161 0.960 . S
H2170 C2162 0.930 . S
H2171 C2163 0.929 . S
H2172 C2180 0.929 . S
H2173 C2182 0.930 . S
H2174 C2184 0.930 . S
H2175 C2187 0.929 . S
H2176 C2190 0.930 . S
H2177 C2192 0.960 . S
H2178 C2192 0.960 . S
H2179 C2192 0.960 . S
C2180 H2172 0.929 . S
C2180 C2181 1.377 . S
C2180 C2182 1.384 . S
C2181 C2180 1.377 . S
C2181 C2187 1.390 . S
C2182 H2173 0.930 . S
C2182 C2180 1.384 . S
C2182 C2183 1.372 . S
C2183 C2182 1.372 . S
C2183 C2184 1.400 . S
C2183 C2188 1.490 . S
C2184 H2174 0.930 . S
C2184 C2183 1.400 . S
C2184 C2187 1.386 . S
H2185 C2201 0.930 . S
H2186 C2202 0.931 . S
C2187 H2175 0.929 . S
C2187 C2181 1.390 . S
C2187 C2184 1.386 . S
C2188 C2183 1.490 . S
C2188 C2190 1.395 . S
C2188 C2191 1.403 . S
H2189 C2195 0.930 . S
C2190 H2176 0.930 . S
C2190 C2188 1.395 . S
C2190 C2193 1.403 . S
C2191 C2188 1.403 . S
C2191 C2192 1.524 . S
C2191 C2195 1.400 . S
C2192 H2177 0.960 . S
C2192 H2178 0.960 . S
C2192 H2179 0.960 . S
C2192 C2191 1.524 . S
C2193 C2190 1.403 . S
C2193 C2194 1.392 . S
C2193 C2197 1.495 . S
C2194 C2193 1.392 . S
C2194 C2195 1.385 . S
C2194 C2196 1.478 . S
C2195 H2189 0.930 . S
C2195 C2191 1.400 . S
C2195 C2194 1.385 . S
C2196 C2194 1.478 . S
C2196 C2198 1.381 . S
C2196 C2202 1.383 . S
C2197 C2193 1.495 . S
C2197 H2203 0.959 . S
C2197 H2204 0.961 . S
C2197 H2205 0.960 . S
C2198 C2196 1.381 . S
C2198 C2199 1.394 . S
C2198 H2206 0.930 . S
C2199 C2198 1.394 . S
C2199 C2200 1.383 . S
C2199 H2207 0.929 . S
C2200 C2199 1.383 . S
C2200 C2201 1.377 . S
C2201 H2185 0.930 . S
C2201 C2200 1.377 . S
C2201 C2202 1.379 . S
C2202 H2186 0.931 . S
C2202 C2196 1.383 . S
C2202 C2201 1.379 . S
H2203 C2197 0.959 . S
H2204 C2197 0.961 . S
H2205 C2197 0.960 . S
H2206 C2198 0.930 . S
H2207 C2199 0.929 . S
H2208 C2216 0.929 . S
H2209 C2218 0.930 . S
H2210 C2220 0.930 . S
H2211 C2223 0.929 . S
H2212 C2226 0.930 . S
H2213 C2228 0.997 . S
H2214 C2228 0.948 1_565 S
H2215 C2228 0.939 1_565 S
C2216 H2208 0.929 . S
C2216 C2217 1.377 1_455 S
C2216 C2218 1.384 . S
C2217 C2216 1.377 1_655 S
C2217 C2223 1.390 . S
C2218 H2209 0.930 . S
C2218 C2216 1.384 . S
C2218 C2219 1.372 1_455 S
C2219 C2218 1.372 1_655 S
C2219 C2220 1.400 . S
C2219 C2224 1.490 . S
C2220 H2210 0.930 . S
C2220 C2219 1.400 . S
C2220 C2223 1.386 . S
H2221 C2237 0.930 . S
H2222 C2238 0.931 . S
C2223 H2211 0.929 . S
C2223 C2217 1.390 . S
C2223 C2220 1.386 . S
C2224 C2219 1.490 . S
C2224 C2226 1.394 1_655 S
C2224 C2227 1.429 . S
H2225 C2231 0.930 . S
C2226 H2212 0.930 . S
C2226 C2224 1.394 1_455 S
C2226 C2229 1.445 . S
C2227 C2224 1.429 . S
C2227 C2228 1.521 1_565 S
C2227 C2231 1.374 1_565 S
C2228 H2213 0.997 . S
C2228 H2214 0.948 1_545 S
C2228 H2215 0.939 1_545 S
C2228 C2227 1.521 1_545 S
C2229 C2226 1.445 . S
C2229 C2230 1.351 1_565 S
C2229 C2233 1.498 . S
C2230 C2229 1.351 1_545 S
C2230 C2231 1.385 1_455 S
C2230 C2232 1.478 . S
C2231 H2225 0.930 . S
C2231 C2227 1.374 1_545 S
C2231 C2230 1.385 1_655 S
C2232 C2230 1.478 . S
C2232 C2234 1.381 . S
C2232 C2238 1.383 1_455 S
C2233 C2229 1.498 . S
C2233 H2239 0.959 . S
C2233 H2240 0.961 1_565 S
C2233 H2241 0.960 1_565 S
C2234 C2232 1.381 . S
C2234 C2235 1.394 . S
C2234 H2242 0.930 . S
C2235 C2234 1.394 . S
C2235 C2236 1.383 . S
C2235 H2243 0.929 . S
C2236 C2235 1.383 . S
C2236 C2237 1.377 1_455 S
C2237 H2221 0.930 . S
C2237 C2236 1.377 1_655 S
C2237 C2238 1.379 . S
C2238 H2222 0.931 . S
C2238 C2232 1.383 1_655 S
C2238 C2237 1.379 . S
H2239 C2233 0.959 . S
H2240 C2233 0.961 1_545 S
H2241 C2233 0.960 1_545 S
H2242 C2234 0.930 . S
H2243 C2235 0.929 . S
H2244 C2252 0.929 . S
H2245 C2254 0.930 . S
H2246 C2256 0.930 . S
H2247 C2259 0.929 . S
H2248 C2262 0.930 . S
H2249 C2264 0.960 . S
H2250 C2264 0.960 . S
H2251 C2264 0.960 . S
C2252 H2244 0.929 . S
C2252 C2253 1.377 . S
C2252 C2254 1.384 . S
C2253 C2252 1.377 . S
C2253 C2259 1.390 . S
C2254 H2245 0.930 . S
C2254 C2252 1.384 . S
C2254 C2255 1.372 . S
C2255 C2254 1.372 . S
C2255 C2256 1.400 . S
C2255 C2260 1.490 . S
C2256 H2246 0.930 . S
C2256 C2255 1.400 . S
C2256 C2259 1.386 . S
H2257 C2273 0.930 . S
H2258 C2274 0.931 . S
C2259 H2247 0.929 . S
C2259 C2253 1.390 . S
C2259 C2256 1.386 . S
C2260 C2255 1.490 . S
C2260 C2262 1.395 . S
C2260 C2263 1.403 . S
H2261 C2267 0.930 . S
C2262 H2248 0.930 . S
C2262 C2260 1.395 . S
C2262 C2265 1.403 . S
C2263 C2260 1.403 . S
C2263 C2264 1.524 . S
C2263 C2267 1.400 . S
C2264 H2249 0.960 . S
C2264 H2250 0.960 . S
C2264 H2251 0.960 . S
C2264 C2263 1.524 . S
C2265 C2262 1.403 . S
C2265 C2266 1.392 . S
C2265 C2269 1.495 . S
C2266 C2265 1.392 . S
C2266 C2267 1.385 . S
C2266 C2268 1.478 . S
C2267 H2261 0.930 . S
C2267 C2263 1.400 . S
C2267 C2266 1.385 . S
C2268 C2266 1.478 . S
C2268 C2270 1.381 . S
C2268 C2274 1.383 . S
C2269 C2265 1.495 . S
C2269 H2275 0.959 . S
C2269 H2276 0.961 . S
C2269 H2277 0.960 . S
C2270 C2268 1.381 . S
C2270 C2271 1.394 . S
C2270 H2278 0.930 . S
C2271 C2270 1.394 . S
C2271 C2272 1.383 . S
C2271 H2279 0.929 . S
C2272 C2271 1.383 . S
C2272 C2273 1.377 . S
C2273 H2257 0.930 . S
C2273 C2272 1.377 . S
C2273 C2274 1.379 . S
C2274 H2258 0.931 . S
C2274 C2268 1.383 . S
C2274 C2273 1.379 . S
H2275 C2269 0.959 . S
H2276 C2269 0.961 . S
H2277 C2269 0.960 . S
H2278 C2270 0.930 . S
H2279 C2271 0.929 . S
H2280 C2288 0.929 . S
H2281 C2290 0.930 . S
H2282 C2292 0.930 1_455 S
H2283 C2295 0.929 1_455 S
H2284 C2298 0.930 . S
H2285 C2300 0.960 . S
H2286 C2300 0.960 . S
H2287 C2300 0.960 . S
C2288 H2280 0.929 . S
C2288 C2289 1.377 . S
C2288 C2290 1.384 . S
C2289 C2288 1.377 . S
C2289 C2295 1.390 . S
C2290 H2281 0.930 . S
C2290 C2288 1.384 . S
C2290 C2291 1.372 . S
C2291 C2290 1.372 . S
C2291 C2292 1.399 . S
C2291 C2296 1.490 . S
C2292 H2282 0.930 1_655 S
C2292 C2291 1.399 . S
C2292 C2295 1.385 . S
H2293 C2309 0.930 . S
H2294 C2310 0.931 . S
C2295 H2283 0.929 1_655 S
C2295 C2289 1.390 . S
C2295 C2292 1.385 . S
C2296 C2291 1.490 . S
C2296 C2298 1.395 . S
C2296 C2299 1.403 1_655 S
H2297 C2303 0.930 . S
C2298 H2284 0.930 . S
C2298 C2296 1.395 . S
C2298 C2301 1.403 . S
C2299 C2296 1.403 1_455 S
C2299 C2300 1.524 . S
C2299 C2303 1.400 . S
C2300 H2285 0.960 . S
C2300 H2286 0.960 . S
C2300 H2287 0.960 . S
C2300 C2299 1.524 . S
C2301 C2298 1.403 . S
C2301 C2302 1.392 . S
C2301 C2305 1.495 . S
C2302 C2301 1.392 . S
C2302 C2303 1.385 1_655 S
C2302 C2304 1.483 . S
C2303 H2297 0.930 . S
C2303 C2299 1.400 . S
C2303 C2302 1.385 1_455 S
C2304 C2302 1.483 . S
C2304 C2306 1.381 . S
C2304 C2310 1.376 1_655 S
C2305 C2301 1.495 . S
C2305 H2311 0.959 . S
C2305 H2312 0.961 . S
C2305 H2313 0.960 . S
C2306 C2304 1.381 . S
C2306 C2307 1.387 1_655 S
C2306 H2314 0.942 . S
C2307 C2306 1.387 1_455 S
C2307 C2308 1.383 . S
C2307 H2315 0.929 . S
C2308 C2307 1.383 . S
C2308 C2309 1.377 . S
C2309 H2293 0.930 . S
C2309 C2308 1.377 . S
C2309 C2310 1.379 . S
C2310 H2294 0.931 . S
C2310 C2304 1.376 1_455 S
C2310 C2309 1.379 . S
H2311 C2305 0.959 . S
H2312 C2305 0.961 . S
H2313 C2305 0.960 . S
H2314 C2306 0.942 . S
H2315 C2307 0.929 . S
H2316 C2324 0.929 . S
H2317 C2326 0.930 . S
H2318 C2328 0.930 . S
H2319 C2331 0.929 . S
H2320 C2334 0.930 . S
H2321 C2336 0.909 1_545 S
H2322 C2336 0.974 . S
H2323 C2336 0.999 . S
C2324 H2316 0.929 . S
C2324 C2325 1.377 . S
C2324 C2326 1.384 . S
C2325 C2324 1.377 . S
C2325 C2331 1.390 . S
C2326 H2317 0.930 . S
C2326 C2324 1.384 . S
C2326 C2327 1.372 . S
C2327 C2326 1.372 . S
C2327 C2328 1.400 . S
C2327 C2332 1.490 . S
C2328 H2318 0.930 . S
C2328 C2327 1.400 . S
C2328 C2331 1.386 . S
H2329 C2345 0.930 . S
H2330 C2346 0.931 . S
C2331 H2319 0.929 . S
C2331 C2325 1.390 . S
C2331 C2328 1.386 . S
C2332 C2327 1.490 . S
C2332 C2334 1.395 . S
C2332 C2335 1.470 . S
H2333 C2339 0.930 . S
C2334 H2320 0.930 . S
C2334 C2332 1.395 . S
C2334 C2337 1.391 1_565 S
C2335 C2332 1.470 . S
C2335 C2336 1.523 . S
C2335 C2339 1.332 1_565 S
C2336 H2321 0.909 1_565 S
C2336 H2322 0.974 . S
C2336 H2323 0.999 . S
C2336 C2335 1.523 . S
C2337 C2334 1.391 1_545 S
C2337 C2338 1.404 . S
C2337 C2341 1.495 . S
C2338 C2337 1.404 . S
C2338 C2339 1.385 . S
C2338 C2340 1.478 . S
C2339 H2333 0.930 . S
C2339 C2335 1.332 1_545 S
C2339 C2338 1.385 . S
C2340 C2338 1.478 . S
C2340 C2342 1.381 . S
C2340 C2346 1.383 . S
C2341 C2337 1.495 . S
C2341 H2347 0.936 1_545 S
C2341 H2348 0.968 . S
C2341 H2349 0.977 . S
C2342 C2340 1.381 . S
C2342 C2343 1.394 . S
C2342 H2350 0.930 . S
C2343 C2342 1.394 . S
C2343 C2344 1.383 . S
C2343 H2351 0.929 . S
C2344 C2343 1.383 . S
C2344 C2345 1.377 . S
C2345 H2329 0.930 . S
C2345 C2344 1.377 . S
C2345 C2346 1.379 . S
C2346 H2330 0.931 . S
C2346 C2340 1.383 . S
C2346 C2345 1.379 . S
H2347 C2341 0.936 1_565 S
H2348 C2341 0.968 . S
H2349 C2341 0.977 . S
H2350 C2342 0.930 . S
H2351 C2343 0.929 . S
H2352 C2360 0.929 . S
H2353 C2362 0.930 . S
H2354 C2364 0.930 . S
H2355 C2367 0.929 . S
H2356 C2370 0.930 . S
H2357 C2372 0.960 . S
H2358 C2372 0.960 . S
H2359 C2372 0.960 . S
C2360 H2352 0.929 . S
C2360 C2361 1.377 . S
C2360 C2362 1.384 . S
C2361 C2360 1.377 . S
C2361 C2367 1.390 . S
C2362 H2353 0.930 . S
C2362 C2360 1.384 . S
C2362 C2363 1.372 . S
C2363 C2362 1.372 . S
C2363 C2364 1.400 . S
C2363 C2368 1.490 . S
C2364 H2354 0.930 . S
C2364 C2363 1.400 . S
C2364 C2367 1.386 . S
H2365 C2381 0.930 . S
H2366 C2382 0.931 . S
C2367 H2355 0.929 . S
C2367 C2361 1.390 . S
C2367 C2364 1.386 . S
C2368 C2363 1.490 . S
C2368 C2370 1.395 . S
C2368 C2371 1.403 . S
H2369 C2375 0.930 . S
C2370 H2356 0.930 . S
C2370 C2368 1.395 . S
C2370 C2373 1.403 . S
C2371 C2368 1.403 . S
C2371 C2372 1.524 . S
C2371 C2375 1.400 . S
C2372 H2357 0.960 . S
C2372 H2358 0.960 . S
C2372 H2359 0.960 . S
C2372 C2371 1.524 . S
C2373 C2370 1.403 . S
C2373 C2374 1.392 . S
C2373 C2377 1.495 . S
C2374 C2373 1.392 . S
C2374 C2375 1.385 . S
C2374 C2376 1.478 . S
C2375 H2369 0.930 . S
C2375 C2371 1.400 . S
C2375 C2374 1.385 . S
C2376 C2374 1.478 . S
C2376 C2378 1.381 . S
C2376 C2382 1.383 . S
C2377 C2373 1.495 . S
C2377 H2383 0.959 . S
C2377 H2384 0.961 . S
C2377 H2385 0.960 . S
C2378 C2376 1.381 . S
C2378 C2379 1.394 . S
C2378 H2386 0.930 . S
C2379 C2378 1.394 . S
C2379 C2380 1.383 . S
C2379 H2387 0.929 . S
C2380 C2379 1.383 . S
C2380 C2381 1.377 . S
C2381 H2365 0.930 . S
C2381 C2380 1.377 . S
C2381 C2382 1.379 . S
C2382 H2366 0.931 . S
C2382 C2376 1.383 . S
C2382 C2381 1.379 . S
H2383 C2377 0.959 . S
H2384 C2377 0.961 . S
H2385 C2377 0.960 . S
H2386 C2378 0.930 . S
H2387 C2379 0.929 . S
H2388 C2396 0.929 . S
H2389 C2398 0.930 . S
H2390 C2400 0.930 . S
H2391 C2403 0.929 . S
H2392 C2406 0.930 . S
H2393 C2408 0.960 . S
H2394 C2408 0.960 . S
H2395 C2408 0.960 . S
C2396 H2388 0.929 . S
C2396 C2397 1.377 . S
C2396 C2398 1.384 . S
C2397 C2396 1.377 . S
C2397 C2403 1.390 1_455 S
C2398 H2389 0.930 . S
C2398 C2396 1.384 . S
C2398 C2399 1.372 . S
C2399 C2398 1.372 . S
C2399 C2400 1.400 1_455 S
C2399 C2404 1.490 . S
C2400 H2390 0.930 . S
C2400 C2399 1.400 1_655 S
C2400 C2403 1.386 . S
H2401 C2417 0.930 . S
H2402 C2418 0.931 . S
C2403 H2391 0.929 . S
C2403 C2397 1.390 1_655 S
C2403 C2400 1.386 . S
C2404 C2399 1.490 . S
C2404 C2406 1.395 . S
C2404 C2407 1.403 1_455 S
H2405 C2411 0.930 . S
C2406 H2392 0.930 . S
C2406 C2404 1.395 . S
C2406 C2409 1.403 . S
C2407 C2404 1.403 1_655 S
C2407 C2408 1.524 . S
C2407 C2411 1.400 . S
C2408 H2393 0.960 . S
C2408 H2394 0.960 . S
C2408 H2395 0.960 . S
C2408 C2407 1.524 . S
C2409 C2406 1.403 . S
C2409 C2410 1.392 . S
C2409 C2413 1.495 . S
C2410 C2409 1.392 . S
C2410 C2411 1.385 1_455 S
C2410 C2412 1.481 . S
C2411 H2405 0.930 . S
C2411 C2407 1.400 . S
C2411 C2410 1.385 1_655 S
C2412 C2410 1.481 . S
C2412 C2414 1.404 . S
C2412 C2418 1.356 1_455 S
C2413 C2409 1.495 . S
C2413 H2419 0.959 . S
C2413 H2420 0.961 . S
C2413 H2421 0.960 . S
C2414 C2412 1.404 . S
C2414 C2415 1.394 . S
C2414 H2422 0.930 . S
C2415 C2414 1.394 . S
C2415 C2416 1.383 1_455 S
C2415 H2423 0.929 . S
C2416 C2415 1.383 1_655 S
C2416 C2417 1.377 . S
C2417 H2401 0.930 . S
C2417 C2416 1.377 . S
C2417 C2418 1.379 . S
C2418 H2402 0.931 . S
C2418 C2412 1.356 1_655 S
C2418 C2417 1.379 . S
H2419 C2413 0.959 . S
H2420 C2413 0.961 . S
H2421 C2413 0.960 . S
H2422 C2414 0.930 . S
H2423 C2415 0.929 . S
H2424 C2432 0.929 . S
H2425 C2434 0.930 . S
H2426 C2436 0.930 . S
H2427 C2439 0.929 . S
H2428 C2442 0.930 . S
H2429 C2444 0.960 . S
H2430 C2444 0.960 . S
H2431 C2444 0.960 . S
C2432 H2424 0.929 . S
C2432 C2433 1.377 . S
C2432 C2434 1.384 . S
C2433 C2432 1.377 . S
C2433 C2439 1.390 . S
C2434 H2425 0.930 . S
C2434 C2432 1.384 . S
C2434 C2435 1.372 . S
C2435 C2434 1.372 . S
C2435 C2436 1.400 . S
C2435 C2440 1.490 . S
C2436 H2426 0.930 . S
C2436 C2435 1.400 . S
C2436 C2439 1.386 . S
H2437 C2453 0.930 . S
H2438 C2454 0.931 . S
C2439 H2427 0.929 . S
C2439 C2433 1.390 . S
C2439 C2436 1.386 . S
C2440 C2435 1.490 . S
C2440 C2442 1.395 . S
C2440 C2443 1.403 . S
H2441 C2447 0.930 . S
C2442 H2428 0.930 . S
C2442 C2440 1.395 . S
C2442 C2445 1.403 1_565 S
C2443 C2440 1.403 . S
C2443 C2444 1.524 . S
C2443 C2447 1.400 1_565 S
C2444 H2429 0.960 . S
C2444 H2430 0.960 . S
C2444 H2431 0.960 . S
C2444 C2443 1.524 . S
C2445 C2442 1.403 1_545 S
C2445 C2446 1.392 . S
C2445 C2449 1.495 . S
C2446 C2445 1.392 . S
C2446 C2447 1.385 . S
C2446 C2448 1.478 . S
C2447 H2441 0.930 . S
C2447 C2443 1.400 1_545 S
C2447 C2446 1.385 . S
C2448 C2446 1.478 . S
C2448 C2450 1.381 . S
C2448 C2454 1.383 . S
C2449 C2445 1.495 . S
C2449 H2455 0.959 . S
C2449 H2456 0.961 . S
C2449 H2457 0.960 . S
C2450 C2448 1.381 . S
C2450 C2451 1.394 . S
C2450 H2458 0.930 . S
C2451 C2450 1.394 . S
C2451 C2452 1.383 . S
C2451 H2459 0.929 . S
C2452 C2451 1.383 . S
C2452 C2453 1.377 . S
C2453 H2437 0.930 . S
C2453 C2452 1.377 . S
C2453 C2454 1.379 . S
C2454 H2438 0.931 . S
C2454 C2448 1.383 . S
C2454 C2453 1.379 . S
H2455 C2449 0.959 . S
H2456 C2449 0.961 . S
H2457 C2449 0.960 . S
H2458 C2450 0.930 . S
H2459 C2451 0.929 . S
H2460 C2468 0.929 . S
H2461 C2470 0.930 . S
H2462 C2472 0.930 . S
H2463 C2475 0.929 . S
H2464 C2478 0.930 . S
H2465 C2480 0.960 . S
H2466 C2480 0.960 . S
H2467 C2480 0.960 . S
C2468 H2460 0.929 . S
C2468 C2469 1.377 1_455 S
C2468 C2470 1.384 . S
C2469 C2468 1.377 1_655 S
C2469 C2475 1.390 . S
C2470 H2461 0.930 . S
C2470 C2468 1.384 . S
C2470 C2471 1.372 1_455 S
C2471 C2470 1.372 1_655 S
C2471 C2472 1.400 . S
C2471 C2476 1.491 . S
C2472 H2462 0.930 . S
C2472 C2471 1.400 . S
C2472 C2475 1.386 . S
H2473 C2489 0.930 . S
H2474 C2490 0.931 . S
C2475 H2463 0.929 . S
C2475 C2469 1.390 . S
C2475 C2472 1.386 . S
C2476 C2471 1.491 . S
C2476 C2478 1.388 1_655 S
C2476 C2479 1.408 . S
H2477 C2483 0.930 . S
C2478 H2464 0.930 . S
C2478 C2476 1.388 1_455 S
C2478 C2481 1.403 1_554 S
C2479 C2476 1.408 . S
C2479 C2480 1.524 . S
C2479 C2483 1.400 1_554 S
C2480 H2465 0.960 . S
C2480 H2466 0.960 . S
C2480 H2467 0.960 . S
C2480 C2479 1.524 . S
C2481 C2478 1.403 1_556 S
C2481 C2482 1.392 . S
C2481 C2485 1.495 . S
C2482 C2481 1.392 . S
C2482 C2483 1.385 1_455 S
C2482 C2484 1.478 . S
C2483 H2477 0.930 . S
C2483 C2479 1.400 1_556 S
C2483 C2482 1.385 1_655 S
C2484 C2482 1.478 . S
C2484 C2486 1.381 . S
C2484 C2490 1.383 1_455 S
C2485 C2481 1.495 . S
C2485 H2491 0.959 . S
C2485 H2492 0.961 . S
C2485 H2493 0.960 . S
C2486 C2484 1.381 . S
C2486 C2487 1.394 . S
C2486 H2494 0.930 1_556 S
C2487 C2486 1.394 . S
C2487 C2488 1.383 . S
C2487 H2495 0.929 . S
C2488 C2487 1.383 . S
C2488 C2489 1.377 1_455 S
C2489 H2473 0.930 . S
C2489 C2488 1.377 1_655 S
C2489 C2490 1.379 . S
C2490 H2474 0.931 . S
C2490 C2484 1.383 1_655 S
C2490 C2489 1.379 . S
H2491 C2485 0.959 . S
H2492 C2485 0.961 . S
H2493 C2485 0.960 . S
H2494 C2486 0.930 1_554 S
H2495 C2487 0.929 . S
H2496 C2504 0.929 . S
H2497 C2506 0.930 . S
H2498 C2508 0.930 . S
H2499 C2511 0.929 . S
H2500 C2514 0.930 . S
H2501 C2516 0.960 . S
H2502 C2516 0.960 . S
H2503 C2516 0.960 . S
C2504 H2496 0.929 . S
C2504 C2505 1.377 . S
C2504 C2506 1.384 . S
C2505 C2504 1.377 . S
C2505 C2511 1.390 . S
C2506 H2497 0.930 . S
C2506 C2504 1.384 . S
C2506 C2507 1.372 . S
C2507 C2506 1.372 . S
C2507 C2508 1.400 . S
C2507 C2512 1.490 . S
C2508 H2498 0.930 . S
C2508 C2507 1.400 . S
C2508 C2511 1.386 . S
H2509 C2525 0.930 . S
H2510 C2526 0.931 . S
C2511 H2499 0.929 . S
C2511 C2505 1.390 . S
C2511 C2508 1.386 . S
C2512 C2507 1.490 . S
C2512 C2514 1.395 1_556 S
C2512 C2515 1.403 . S
H2513 C2519 0.930 . S
C2514 H2500 0.930 . S
C2514 C2512 1.395 1_554 S
C2514 C2517 1.403 . S
C2515 C2512 1.403 . S
C2515 C2516 1.524 . S
C2515 C2519 1.400 . S
C2516 H2501 0.960 . S
C2516 H2502 0.960 . S
C2516 H2503 0.960 . S
C2516 C2515 1.524 . S
C2517 C2514 1.403 . S
C2517 C2518 1.392 . S
C2517 C2521 1.495 . S
C2518 C2517 1.392 . S
C2518 C2519 1.385 1_554 S
C2518 C2520 1.478 . S
C2519 H2513 0.930 . S
C2519 C2515 1.400 . S
C2519 C2518 1.385 1_556 S
C2520 C2518 1.478 . S
C2520 C2522 1.381 . S
C2520 C2526 1.383 . S
C2521 C2517 1.495 . S
C2521 H2527 0.959 . S
C2521 H2528 0.961 . S
C2521 H2529 0.960 . S
C2522 C2520 1.381 . S
C2522 C2523 1.394 . S
C2522 H2530 0.930 . S
C2523 C2522 1.394 . S
C2523 C2524 1.383 . S
C2523 H2531 0.929 . S
C2524 C2523 1.383 . S
C2524 C2525 1.377 . S
C2525 H2509 0.930 . S
C2525 C2524 1.377 . S
C2525 C2526 1.379 . S
C2526 H2510 0.931 . S
C2526 C2520 1.383 . S
C2526 C2525 1.379 . S
H2527 C2521 0.959 . S
H2528 C2521 0.961 . S
H2529 C2521 0.960 . S
H2530 C2522 0.930 . S
H2531 C2523 0.929 . S
H2532 C2540 0.929 . S
H2533 C2542 0.930 . S
H2534 C2544 0.930 . S
H2535 C2547 0.929 . S
H2536 C2550 0.930 . S
H2537 C2552 0.960 . S
H2538 C2552 0.960 . S
H2539 C2552 0.960 . S
C2540 H2532 0.929 . S
C2540 C2541 1.377 . S
C2540 C2542 1.384 . S
C2541 C2540 1.377 . S
C2541 C2547 1.390 . S
C2542 H2533 0.930 . S
C2542 C2540 1.384 . S
C2542 C2543 1.372 . S
C2543 C2542 1.372 . S
C2543 C2544 1.400 . S
C2543 C2548 1.490 . S
C2544 H2534 0.930 . S
C2544 C2543 1.400 . S
C2544 C2547 1.386 . S
H2545 C2561 0.930 . S
H2546 C2562 0.931 . S
C2547 H2535 0.929 . S
C2547 C2541 1.390 . S
C2547 C2544 1.386 . S
C2548 C2543 1.490 . S
C2548 C2550 1.395 . S
C2548 C2551 1.403 . S
H2549 C2555 0.930 . S
C2550 H2536 0.930 . S
C2550 C2548 1.395 . S
C2550 C2553 1.403 . S
C2551 C2548 1.403 . S
C2551 C2552 1.524 . S
C2551 C2555 1.400 . S
C2552 H2537 0.960 . S
C2552 H2538 0.960 . S
C2552 H2539 0.960 . S
C2552 C2551 1.524 . S
C2553 C2550 1.403 . S
C2553 C2554 1.392 . S
C2553 C2557 1.495 . S
C2554 C2553 1.392 . S
C2554 C2555 1.385 . S
C2554 C2556 1.478 . S
C2555 H2549 0.930 . S
C2555 C2551 1.400 . S
C2555 C2554 1.385 . S
C2556 C2554 1.478 . S
C2556 C2558 1.381 . S
C2556 C2562 1.383 . S
C2557 C2553 1.495 . S
C2557 H2563 0.959 . S
C2557 H2564 0.961 . S
C2557 H2565 0.960 . S
C2558 C2556 1.381 . S
C2558 C2559 1.394 . S
C2558 H2566 0.930 . S
C2559 C2558 1.394 . S
C2559 C2560 1.383 . S
C2559 H2567 0.929 . S
C2560 C2559 1.383 . S
C2560 C2561 1.377 . S
C2561 H2545 0.930 . S
C2561 C2560 1.377 . S
C2561 C2562 1.379 . S
C2562 H2546 0.931 . S
C2562 C2556 1.383 . S
C2562 C2561 1.379 . S
H2563 C2557 0.959 . S
H2564 C2557 0.961 . S
H2565 C2557 0.960 . S
H2566 C2558 0.930 . S
H2567 C2559 0.929 . S
H2568 C2576 0.929 . S
H2569 C2578 0.930 . S
H2570 C2580 0.930 . S
H2571 C2583 0.929 . S
H2572 C2586 0.930 . S
H2573 C2588 0.960 . S
H2574 C2588 0.960 . S
H2575 C2588 0.960 . S
C2576 H2568 0.929 . S
C2576 C2577 1.377 . S
C2576 C2578 1.384 . S
C2577 C2576 1.377 . S
C2577 C2583 1.390 . S
C2578 H2569 0.930 . S
C2578 C2576 1.384 . S
C2578 C2579 1.372 . S
C2579 C2578 1.372 . S
C2579 C2580 1.400 . S
C2579 C2584 1.490 . S
C2580 H2570 0.930 . S
C2580 C2579 1.400 . S
C2580 C2583 1.386 . S
H2581 C2597 0.930 . S
H2582 C2598 0.931 . S
C2583 H2571 0.929 . S
C2583 C2577 1.390 . S
C2583 C2580 1.386 . S
C2584 C2579 1.490 . S
C2584 C2586 1.395 . S
C2584 C2587 1.403 1_556 S
H2585 C2591 0.930 . S
C2586 H2572 0.930 . S
C2586 C2584 1.395 . S
C2586 C2589 1.403 . S
C2587 C2584 1.403 1_554 S
C2587 C2588 1.524 . S
C2587 C2591 1.400 . S
C2588 H2573 0.960 . S
C2588 H2574 0.960 . S
C2588 H2575 0.960 . S
C2588 C2587 1.524 . S
C2589 C2586 1.403 . S
C2589 C2590 1.392 1_556 S
C2589 C2593 1.495 . S
C2590 C2589 1.392 1_554 S
C2590 C2591 1.385 . S
C2590 C2592 1.478 . S
C2591 H2585 0.930 . S
C2591 C2587 1.400 . S
C2591 C2590 1.385 . S
C2592 C2590 1.478 . S
C2592 C2594 1.381 . S
C2592 C2598 1.383 . S
C2593 C2589 1.495 . S
C2593 H2599 0.959 . S
C2593 H2600 0.961 . S
C2593 H2601 0.960 . S
C2594 C2592 1.381 . S
C2594 C2595 1.394 . S
C2594 H2602 0.930 . S
C2595 C2594 1.394 . S
C2595 C2596 1.383 . S
C2595 H2603 0.929 . S
C2596 C2595 1.383 . S
C2596 C2597 1.377 . S
C2597 H2581 0.930 . S
C2597 C2596 1.377 . S
C2597 C2598 1.379 . S
C2598 H2582 0.931 . S
C2598 C2592 1.383 . S
C2598 C2597 1.379 . S
H2599 C2593 0.959 . S
H2600 C2593 0.961 . S
H2601 C2593 0.960 . S
H2602 C2594 0.930 . S
H2603 C2595 0.929 . S
H2604 C2612 0.929 . S
H2605 C2614 0.930 . S
H2606 C2616 0.930 . S
H2607 C2619 0.929 . S
H2608 C2622 0.930 . S
H2609 C2624 0.960 . S
H2610 C2624 0.960 . S
H2611 C2624 0.960 . S
C2612 H2604 0.929 . S
C2612 C2613 1.377 . S
C2612 C2614 1.384 . S
C2613 C2612 1.377 . S
C2613 C2619 1.390 . S
C2614 H2605 0.930 . S
C2614 C2612 1.384 . S
C2614 C2615 1.372 . S
C2615 C2614 1.372 . S
C2615 C2616 1.400 . S
C2615 C2620 1.490 . S
C2616 H2606 0.930 . S
C2616 C2615 1.400 . S
C2616 C2619 1.386 . S
H2617 C2633 0.930 . S
H2618 C2634 0.931 . S
C2619 H2607 0.929 . S
C2619 C2613 1.390 . S
C2619 C2616 1.386 . S
C2620 C2615 1.490 . S
C2620 C2622 1.395 . S
C2620 C2623 1.403 . S
H2621 C2627 0.930 . S
C2622 H2608 0.930 . S
C2622 C2620 1.395 . S
C2622 C2625 1.403 . S
C2623 C2620 1.403 . S
C2623 C2624 1.524 . S
C2623 C2627 1.400 . S
C2624 H2609 0.960 . S
C2624 H2610 0.960 . S
C2624 H2611 0.960 . S
C2624 C2623 1.524 . S
C2625 C2622 1.403 . S
C2625 C2626 1.392 . S
C2625 C2629 1.495 . S
C2626 C2625 1.392 . S
C2626 C2627 1.385 . S
C2626 C2628 1.478 . S
C2627 H2621 0.930 . S
C2627 C2623 1.400 . S
C2627 C2626 1.385 . S
C2628 C2626 1.478 . S
C2628 C2630 1.381 . S
C2628 C2634 1.383 . S
C2629 C2625 1.495 . S
C2629 H2635 0.959 . S
C2629 H2636 0.961 . S
C2629 H2637 0.960 . S
C2630 C2628 1.381 . S
C2630 C2631 1.394 . S
C2630 H2638 0.930 . S
C2631 C2630 1.394 . S
C2631 C2632 1.383 . S
C2631 H2639 0.929 . S
C2632 C2631 1.383 . S
C2632 C2633 1.377 . S
C2633 H2617 0.930 . S
C2633 C2632 1.377 . S
C2633 C2634 1.379 . S
C2634 H2618 0.931 . S
C2634 C2628 1.383 . S
C2634 C2633 1.379 . S
H2635 C2629 0.959 . S
H2636 C2629 0.961 . S
H2637 C2629 0.960 . S
H2638 C2630 0.930 . S
H2639 C2631 0.929 . S
H2640 C2648 0.929 . S
H2641 C2650 0.930 . S
H2642 C2652 0.930 1_554 S
H2643 C2655 0.929 . S
H2644 C2658 0.930 . S
H2645 C2660 0.960 . S
H2646 C2660 0.960 1_556 S
H2647 C2660 0.960 . S
C2648 H2640 0.929 . S
C2648 C2649 1.377 . S
C2648 C2650 1.384 . S
C2649 C2648 1.377 . S
C2649 C2655 1.390 . S
C2650 H2641 0.930 . S
C2650 C2648 1.384 . S
C2650 C2651 1.372 . S
C2651 C2650 1.372 . S
C2651 C2652 1.400 . S
C2651 C2656 1.490 . S
C2652 H2642 0.930 1_556 S
C2652 C2651 1.400 . S
C2652 C2655 1.386 . S
H2653 C2669 0.930 . S
H2654 C2670 0.931 . S
C2655 H2643 0.929 . S
C2655 C2649 1.390 . S
C2655 C2652 1.386 . S
C2656 C2651 1.490 . S
C2656 C2658 1.395 . S
C2656 C2659 1.403 1_556 S
H2657 C2663 0.930 . S
C2658 H2644 0.930 . S
C2658 C2656 1.395 . S
C2658 C2661 1.403 1_545 S
C2659 C2656 1.403 1_554 S
C2659 C2660 1.524 . S
C2659 C2663 1.400 1_545 S
C2660 H2645 0.960 . S
C2660 H2646 0.960 1_554 S
C2660 H2647 0.960 . S
C2660 C2659 1.524 . S
C2661 C2658 1.403 1_565 S
C2661 C2662 1.392 1_556 S
C2661 C2665 1.495 . S
C2662 C2661 1.392 1_554 S
C2662 C2663 1.385 . S
C2662 C2664 1.478 . S
C2663 H2657 0.930 . S
C2663 C2659 1.400 1_565 S
C2663 C2662 1.385 . S
C2664 C2662 1.478 . S
C2664 C2666 1.381 . S
C2664 C2670 1.383 . S
C2665 C2661 1.495 . S
C2665 H2671 0.959 . S
C2665 H2672 0.961 . S
C2665 H2673 0.960 . S
C2666 C2664 1.381 . S
C2666 C2667 1.394 . S
C2666 H2674 0.930 1_554 S
C2667 C2666 1.394 . S
C2667 C2668 1.383 . S
C2667 H2675 0.929 . S
C2668 C2667 1.383 . S
C2668 C2669 1.377 . S
C2669 H2653 0.930 . S
C2669 C2668 1.377 . S
C2669 C2670 1.379 . S
C2670 H2654 0.931 . S
C2670 C2664 1.383 . S
C2670 C2669 1.379 . S
H2671 C2665 0.959 . S
H2672 C2665 0.961 . S
H2673 C2665 0.960 . S
H2674 C2666 0.930 1_556 S
H2675 C2667 0.929 . S
H2676 C2684 0.929 . S
H2677 C2686 0.930 . S
H2678 C2688 0.930 . S
H2679 C2691 0.929 . S
H2680 C2694 0.930 . S
H2681 C2696 0.960 . S
H2682 C2696 0.960 . S
H2683 C2696 0.960 . S
C2684 H2676 0.929 . S
C2684 C2685 1.377 . S
C2684 C2686 1.384 . S
C2685 C2684 1.377 . S
C2685 C2691 1.390 . S
C2686 H2677 0.930 . S
C2686 C2684 1.384 . S
C2686 C2687 1.372 . S
C2687 C2686 1.372 . S
C2687 C2688 1.400 . S
C2687 C2692 1.490 . S
C2688 H2678 0.930 . S
C2688 C2687 1.400 . S
C2688 C2691 1.386 . S
H2689 C2705 0.930 . S
H2690 C2706 0.931 . S
C2691 H2679 0.929 . S
C2691 C2685 1.390 . S
C2691 C2688 1.386 . S
C2692 C2687 1.490 . S
C2692 C2694 1.395 . S
C2692 C2695 1.403 . S
H2693 C2699 0.930 . S
C2694 H2680 0.930 . S
C2694 C2692 1.395 . S
C2694 C2697 1.403 . S
C2695 C2692 1.403 . S
C2695 C2696 1.524 . S
C2695 C2699 1.400 . S
C2696 H2681 0.960 . S
C2696 H2682 0.960 . S
C2696 H2683 0.960 . S
C2696 C2695 1.524 . S
C2697 C2694 1.403 . S
C2697 C2698 1.392 . S
C2697 C2701 1.495 . S
C2698 C2697 1.392 . S
C2698 C2699 1.385 . S
C2698 C2700 1.478 . S
C2699 H2693 0.930 . S
C2699 C2695 1.400 . S
C2699 C2698 1.385 . S
C2700 C2698 1.478 . S
C2700 C2702 1.381 . S
C2700 C2706 1.383 . S
C2701 C2697 1.495 . S
C2701 H2707 0.959 . S
C2701 H2708 0.961 . S
C2701 H2709 0.960 . S
C2702 C2700 1.381 . S
C2702 C2703 1.394 . S
C2702 H2710 0.930 . S
C2703 C2702 1.394 . S
C2703 C2704 1.383 . S
C2703 H2711 0.929 . S
C2704 C2703 1.383 . S
C2704 C2705 1.377 . S
C2705 H2689 0.930 . S
C2705 C2704 1.377 . S
C2705 C2706 1.379 . S
C2706 H2690 0.931 . S
C2706 C2700 1.383 . S
C2706 C2705 1.379 . S
H2707 C2701 0.959 . S
H2708 C2701 0.961 . S
H2709 C2701 0.960 . S
H2710 C2702 0.930 . S
H2711 C2703 0.929 . S
H2712 C2720 0.929 . S
H2713 C2722 0.930 . S
H2714 C2724 0.930 . S
H2715 C2727 0.929 . S
H2716 C2730 0.930 . S
H2717 C2732 0.960 . S
H2718 C2732 0.960 . S
H2719 C2732 0.960 . S
C2720 H2712 0.929 . S
C2720 C2721 1.377 . S
C2720 C2722 1.384 . S
C2721 C2720 1.377 . S
C2721 C2727 1.390 . S
C2722 H2713 0.930 . S
C2722 C2720 1.384 . S
C2722 C2723 1.372 . S
C2723 C2722 1.372 . S
C2723 C2724 1.400 . S
C2723 C2728 1.490 . S
C2724 H2714 0.930 . S
C2724 C2723 1.400 . S
C2724 C2727 1.386 . S
H2725 C2741 0.930 . S
H2726 C2742 0.931 . S
C2727 H2715 0.929 . S
C2727 C2721 1.390 . S
C2727 C2724 1.386 . S
C2728 C2723 1.490 . S
C2728 C2730 1.395 . S
C2728 C2731 1.403 . S
H2729 C2735 0.930 . S
C2730 H2716 0.930 . S
C2730 C2728 1.395 . S
C2730 C2733 1.403 . S
C2731 C2728 1.403 . S
C2731 C2732 1.524 . S
C2731 C2735 1.400 . S
C2732 H2717 0.960 . S
C2732 H2718 0.960 . S
C2732 H2719 0.960 . S
C2732 C2731 1.524 . S
C2733 C2730 1.403 . S
C2733 C2734 1.392 . S
C2733 C2737 1.495 . S
C2734 C2733 1.392 . S
C2734 C2735 1.385 . S
C2734 C2736 1.478 . S
C2735 H2729 0.930 . S
C2735 C2731 1.400 . S
C2735 C2734 1.385 . S
C2736 C2734 1.478 . S
C2736 C2738 1.381 . S
C2736 C2742 1.383 . S
C2737 C2733 1.495 . S
C2737 H2743 0.959 . S
C2737 H2744 0.961 . S
C2737 H2745 0.960 . S
C2738 C2736 1.381 . S
C2738 C2739 1.394 . S
C2738 H2746 0.930 . S
C2739 C2738 1.394 . S
C2739 C2740 1.383 . S
C2739 H2747 0.929 . S
C2740 C2739 1.383 . S
C2740 C2741 1.377 . S
C2741 H2725 0.930 . S
C2741 C2740 1.377 . S
C2741 C2742 1.379 . S
C2742 H2726 0.931 . S
C2742 C2736 1.383 . S
C2742 C2741 1.379 . S
H2743 C2737 0.959 . S
H2744 C2737 0.961 . S
H2745 C2737 0.960 . S
H2746 C2738 0.930 . S
H2747 C2739 0.929 . S
H2748 C2756 0.929 . S
H2749 C2758 0.930 . S
H2750 C2760 0.930 . S
H2751 C2763 0.929 . S
H2752 C2766 0.930 . S
H2753 C2768 0.960 . S
H2754 C2768 0.960 . S
H2755 C2768 0.960 . S
C2756 H2748 0.929 . S
C2756 C2757 1.377 . S
C2756 C2758 1.384 . S
C2757 C2756 1.377 . S
C2757 C2763 1.390 . S
C2758 H2749 0.930 . S
C2758 C2756 1.384 . S
C2758 C2759 1.372 . S
C2759 C2758 1.372 . S
C2759 C2760 1.400 . S
C2759 C2764 1.490 . S
C2760 H2750 0.930 . S
C2760 C2759 1.400 . S
C2760 C2763 1.386 . S
H2761 C2777 0.930 . S
H2762 C2778 0.931 . S
C2763 H2751 0.929 . S
C2763 C2757 1.390 . S
C2763 C2760 1.386 . S
C2764 C2759 1.490 . S
C2764 C2766 1.395 . S
C2764 C2767 1.403 . S
H2765 C2771 0.930 . S
C2766 H2752 0.930 . S
C2766 C2764 1.395 . S
C2766 C2769 1.403 . S
C2767 C2764 1.403 . S
C2767 C2768 1.524 . S
C2767 C2771 1.400 . S
C2768 H2753 0.960 . S
C2768 H2754 0.960 . S
C2768 H2755 0.960 . S
C2768 C2767 1.524 . S
C2769 C2766 1.403 . S
C2769 C2770 1.392 . S
C2769 C2773 1.495 . S
C2770 C2769 1.392 . S
C2770 C2771 1.385 . S
C2770 C2772 1.478 . S
C2771 H2765 0.930 . S
C2771 C2767 1.400 . S
C2771 C2770 1.385 . S
C2772 C2770 1.478 . S
C2772 C2774 1.381 . S
C2772 C2778 1.383 . S
C2773 C2769 1.495 . S
C2773 H2779 0.959 . S
C2773 H2780 0.961 . S
C2773 H2781 0.960 . S
C2774 C2772 1.381 . S
C2774 C2775 1.394 . S
C2774 H2782 0.930 . S
C2775 C2774 1.394 . S
C2775 C2776 1.383 . S
C2775 H2783 0.929 . S
C2776 C2775 1.383 . S
C2776 C2777 1.377 . S
C2777 H2761 0.930 . S
C2777 C2776 1.377 . S
C2777 C2778 1.379 . S
C2778 H2762 0.931 . S
C2778 C2772 1.383 . S
C2778 C2777 1.379 . S
H2779 C2773 0.959 . S
H2780 C2773 0.961 . S
H2781 C2773 0.960 . S
H2782 C2774 0.930 . S
H2783 C2775 0.929 . S
H2784 C2792 0.929 . S
H2785 C2794 0.930 . S
H2786 C2796 0.930 . S
H2787 C2799 0.929 . S
H2788 C2802 0.930 . S
H2789 C2804 0.960 . S
H2790 C2804 0.960 . S
H2791 C2804 0.960 . S
C2792 H2784 0.929 . S
C2792 C2793 1.377 . S
C2792 C2794 1.384 . S
C2793 C2792 1.377 . S
C2793 C2799 1.390 . S
C2794 H2785 0.930 . S
C2794 C2792 1.384 . S
C2794 C2795 1.372 . S
C2795 C2794 1.372 . S
C2795 C2796 1.400 . S
C2795 C2800 1.490 . S
C2796 H2786 0.930 . S
C2796 C2795 1.400 . S
C2796 C2799 1.386 . S
H2797 C2813 0.930 . S
H2798 C2814 0.931 . S
C2799 H2787 0.929 . S
C2799 C2793 1.390 . S
C2799 C2796 1.386 . S
C2800 C2795 1.490 . S
C2800 C2802 1.395 . S
C2800 C2803 1.403 . S
H2801 C2807 0.930 . S
C2802 H2788 0.930 . S
C2802 C2800 1.395 . S
C2802 C2805 1.403 . S
C2803 C2800 1.403 . S
C2803 C2804 1.524 . S
C2803 C2807 1.400 . S
C2804 H2789 0.960 . S
C2804 H2790 0.960 . S
C2804 H2791 0.960 . S
C2804 C2803 1.524 . S
C2805 C2802 1.403 . S
C2805 C2806 1.392 . S
C2805 C2809 1.495 . S
C2806 C2805 1.392 . S
C2806 C2807 1.385 . S
C2806 C2808 1.478 . S
C2807 H2801 0.930 . S
C2807 C2803 1.400 . S
C2807 C2806 1.385 . S
C2808 C2806 1.478 . S
C2808 C2810 1.381 . S
C2808 C2814 1.383 . S
C2809 C2805 1.495 . S
C2809 H2815 0.959 . S
C2809 H2816 0.961 . S
C2809 H2817 0.960 . S
C2810 C2808 1.381 . S
C2810 C2811 1.394 . S
C2810 H2818 0.930 . S
C2811 C2810 1.394 . S
C2811 C2812 1.383 . S
C2811 H2819 0.929 . S
C2812 C2811 1.383 . S
C2812 C2813 1.377 . S
C2813 H2797 0.930 . S
C2813 C2812 1.377 . S
C2813 C2814 1.379 . S
C2814 H2798 0.931 . S
C2814 C2808 1.383 . S
C2814 C2813 1.379 . S
H2815 C2809 0.959 . S
H2816 C2809 0.961 . S
H2817 C2809 0.960 . S
H2818 C2810 0.930 . S
H2819 C2811 0.929 . S
H2820 C2828 0.929 . S
H2821 C2830 0.930 . S
H2822 C2832 0.930 . S
H2823 C2835 0.929 . S
H2824 C2838 0.930 . S
H2825 C2840 0.960 . S
H2826 C2840 0.960 . S
H2827 C2840 0.960 . S
C2828 H2820 0.929 . S
C2828 C2829 1.377 . S
C2828 C2830 1.384 . S
C2829 C2828 1.377 . S
C2829 C2835 1.390 . S
C2830 H2821 0.930 . S
C2830 C2828 1.384 . S
C2830 C2831 1.372 . S
C2831 C2830 1.372 . S
C2831 C2832 1.400 . S
C2831 C2836 1.490 . S
C2832 H2822 0.930 . S
C2832 C2831 1.400 . S
C2832 C2835 1.386 . S
H2833 C2849 0.930 . S
H2834 C2850 0.931 . S
C2835 H2823 0.929 . S
C2835 C2829 1.390 . S
C2835 C2832 1.386 . S
C2836 C2831 1.490 . S
C2836 C2838 1.395 . S
C2836 C2839 1.403 . S
H2837 C2843 0.930 . S
C2838 H2824 0.930 . S
C2838 C2836 1.395 . S
C2838 C2841 1.403 . S
C2839 C2836 1.403 . S
C2839 C2840 1.524 . S
C2839 C2843 1.400 . S
C2840 H2825 0.960 . S
C2840 H2826 0.960 . S
C2840 H2827 0.960 . S
C2840 C2839 1.524 . S
C2841 C2838 1.403 . S
C2841 C2842 1.392 . S
C2841 C2845 1.495 . S
C2842 C2841 1.392 . S
C2842 C2843 1.385 . S
C2842 C2844 1.478 . S
C2843 H2837 0.930 . S
C2843 C2839 1.400 . S
C2843 C2842 1.385 . S
C2844 C2842 1.478 . S
C2844 C2846 1.381 . S
C2844 C2850 1.383 . S
C2845 C2841 1.495 . S
C2845 H2851 0.959 . S
C2845 H2852 0.961 . S
C2845 H2853 0.960 . S
C2846 C2844 1.381 . S
C2846 C2847 1.394 . S
C2846 H2854 0.930 . S
C2847 C2846 1.394 . S
C2847 C2848 1.383 . S
C2847 H2855 0.929 . S
C2848 C2847 1.383 . S
C2848 C2849 1.377 . S
C2849 H2833 0.930 . S
C2849 C2848 1.377 . S
C2849 C2850 1.379 . S
C2850 H2834 0.931 . S
C2850 C2844 1.383 . S
C2850 C2849 1.379 . S
H2851 C2845 0.959 . S
H2852 C2845 0.961 . S
H2853 C2845 0.960 . S
H2854 C2846 0.930 . S
H2855 C2847 0.929 . S
H2856 C2864 0.929 . S
H2857 C2866 0.930 . S
H2858 C2868 0.930 . S
H2859 C2871 0.929 . S
H2860 C2874 0.930 . S
H2861 C2876 0.960 . S
H2862 C2876 0.960 . S
H2863 C2876 0.960 . S
C2864 H2856 0.929 . S
C2864 C2865 1.377 . S
C2864 C2866 1.384 . S
C2865 C2864 1.377 . S
C2865 C2871 1.390 . S
C2866 H2857 0.930 . S
C2866 C2864 1.384 . S
C2866 C2867 1.372 . S
C2867 C2866 1.372 . S
C2867 C2868 1.400 . S
C2867 C2872 1.490 . S
C2868 H2858 0.930 . S
C2868 C2867 1.400 . S
C2868 C2871 1.386 . S
H2869 C2885 0.930 . S
H2870 C2886 0.931 . S
C2871 H2859 0.929 . S
C2871 C2865 1.390 . S
C2871 C2868 1.386 . S
C2872 C2867 1.490 . S
C2872 C2874 1.395 . S
C2872 C2875 1.403 . S
H2873 C2879 0.930 . S
C2874 H2860 0.930 . S
C2874 C2872 1.395 . S
C2874 C2877 1.403 . S
C2875 C2872 1.403 . S
C2875 C2876 1.524 . S
C2875 C2879 1.400 . S
C2876 H2861 0.960 . S
C2876 H2862 0.960 . S
C2876 H2863 0.960 . S
C2876 C2875 1.524 . S
C2877 C2874 1.403 . S
C2877 C2878 1.392 . S
C2877 C2881 1.495 . S
C2878 C2877 1.392 . S
C2878 C2879 1.385 . S
C2878 C2880 1.478 . S
C2879 H2873 0.930 . S
C2879 C2875 1.400 . S
C2879 C2878 1.385 . S
C2880 C2878 1.478 . S
C2880 C2882 1.381 . S
C2880 C2886 1.383 . S
C2881 C2877 1.495 . S
C2881 H2887 0.959 . S
C2881 H2888 0.961 . S
C2881 H2889 0.960 . S
C2882 C2880 1.381 . S
C2882 C2883 1.394 . S
C2882 H2890 0.930 . S
C2883 C2882 1.394 . S
C2883 C2884 1.383 . S
C2883 H2891 0.929 . S
C2884 C2883 1.383 . S
C2884 C2885 1.377 . S
C2885 H2869 0.930 . S
C2885 C2884 1.377 . S
C2885 C2886 1.379 . S
C2886 H2870 0.931 . S
C2886 C2880 1.383 . S
C2886 C2885 1.379 . S
H2887 C2881 0.959 . S
H2888 C2881 0.961 . S
H2889 C2881 0.960 . S
H2890 C2882 0.930 . S
H2891 C2883 0.929 . S
H2892 C2900 0.929 . S
H2893 C2902 0.930 . S
H2894 C2904 0.930 . S
H2895 C2907 0.929 . S
H2896 C2910 0.930 . S
H2897 C2912 0.960 . S
H2898 C2912 0.960 . S
H2899 C2912 0.960 . S
C2900 H2892 0.929 . S
C2900 C2901 1.377 . S
C2900 C2902 1.384 . S
C2901 C2900 1.377 . S
C2901 C2907 1.390 . S
C2902 H2893 0.930 . S
C2902 C2900 1.384 . S
C2902 C2903 1.372 . S
C2903 C2902 1.372 . S
C2903 C2904 1.400 . S
C2903 C2908 1.490 . S
C2904 H2894 0.930 . S
C2904 C2903 1.400 . S
C2904 C2907 1.386 . S
H2905 C2921 0.930 . S
H2906 C2922 0.931 . S
C2907 H2895 0.929 . S
C2907 C2901 1.390 . S
C2907 C2904 1.386 . S
C2908 C2903 1.490 . S
C2908 C2910 1.395 . S
C2908 C2911 1.403 . S
H2909 C2915 0.930 . S
C2910 H2896 0.930 . S
C2910 C2908 1.395 . S
C2910 C2913 1.403 . S
C2911 C2908 1.403 . S
C2911 C2912 1.524 . S
C2911 C2915 1.400 . S
C2912 H2897 0.960 . S
C2912 H2898 0.960 . S
C2912 H2899 0.960 . S
C2912 C2911 1.524 . S
C2913 C2910 1.403 . S
C2913 C2914 1.392 . S
C2913 C2917 1.495 . S
C2914 C2913 1.392 . S
C2914 C2915 1.385 . S
C2914 C2916 1.478 . S
C2915 H2909 0.930 . S
C2915 C2911 1.400 . S
C2915 C2914 1.385 . S
C2916 C2914 1.478 . S
C2916 C2918 1.381 . S
C2916 C2922 1.383 . S
C2917 C2913 1.495 . S
C2917 H2923 0.959 . S
C2917 H2924 0.961 . S
C2917 H2925 0.960 . S
C2918 C2916 1.381 . S
C2918 C2919 1.394 . S
C2918 H2926 0.930 . S
C2919 C2918 1.394 . S
C2919 C2920 1.383 . S
C2919 H2927 0.929 . S
C2920 C2919 1.383 . S
C2920 C2921 1.377 . S
C2921 H2905 0.930 . S
C2921 C2920 1.377 . S
C2921 C2922 1.379 . S
C2922 H2906 0.931 . S
C2922 C2916 1.383 . S
C2922 C2921 1.379 . S
H2923 C2917 0.959 . S
H2924 C2917 0.961 . S
H2925 C2917 0.960 . S
H2926 C2918 0.930 . S
H2927 C2919 0.929 . S
H2928 C2936 0.929 . S
H2929 C2938 0.930 . S
H2930 C2940 0.930 . S
H2931 C2943 0.929 . S
H2932 C2946 0.930 . S
H2933 C2948 0.960 . S
H2934 C2948 0.960 . S
H2935 C2948 0.960 . S
C2936 H2928 0.929 . S
C2936 C2937 1.377 . S
C2936 C2938 1.384 . S
C2937 C2936 1.377 . S
C2937 C2943 1.390 . S
C2938 H2929 0.930 . S
C2938 C2936 1.384 . S
C2938 C2939 1.372 . S
C2939 C2938 1.372 . S
C2939 C2940 1.400 . S
C2939 C2944 1.490 . S
C2940 H2930 0.930 . S
C2940 C2939 1.400 . S
C2940 C2943 1.386 . S
H2941 C2957 0.930 . S
H2942 C2958 0.931 . S
C2943 H2931 0.929 . S
C2943 C2937 1.390 . S
C2943 C2940 1.386 . S
C2944 C2939 1.490 . S
C2944 C2946 1.395 . S
C2944 C2947 1.403 . S
H2945 C2951 0.930 . S
C2946 H2932 0.930 . S
C2946 C2944 1.395 . S
C2946 C2949 1.403 . S
C2947 C2944 1.403 . S
C2947 C2948 1.524 . S
C2947 C2951 1.400 . S
C2948 H2933 0.960 . S
C2948 H2934 0.960 . S
C2948 H2935 0.960 . S
C2948 C2947 1.524 . S
C2949 C2946 1.403 . S
C2949 C2950 1.392 . S
C2949 C2953 1.495 . S
C2950 C2949 1.392 . S
C2950 C2951 1.385 . S
C2950 C2952 1.478 . S
C2951 H2945 0.930 . S
C2951 C2947 1.400 . S
C2951 C2950 1.385 . S
C2952 C2950 1.478 . S
C2952 C2954 1.381 . S
C2952 C2958 1.383 . S
C2953 C2949 1.495 . S
C2953 H2959 0.959 . S
C2953 H2960 0.961 . S
C2953 H2961 0.960 . S
C2954 C2952 1.381 . S
C2954 C2955 1.394 . S
C2954 H2962 0.930 . S
C2955 C2954 1.394 . S
C2955 C2956 1.383 . S
C2955 H2963 0.929 . S
C2956 C2955 1.383 . S
C2956 C2957 1.377 . S
C2957 H2941 0.930 . S
C2957 C2956 1.377 . S
C2957 C2958 1.379 . S
C2958 H2942 0.931 . S
C2958 C2952 1.383 . S
C2958 C2957 1.379 . S
H2959 C2953 0.959 . S
H2960 C2953 0.961 . S
H2961 C2953 0.960 . S
H2962 C2954 0.930 . S
H2963 C2955 0.929 . S
H2964 C2972 0.929 . S
H2965 C2974 0.930 . S
H2966 C2976 0.930 . S
H2967 C2979 0.929 . S
H2968 C2982 0.930 . S
H2969 C2984 0.960 . S
H2970 C2984 0.960 . S
H2971 C2984 0.960 . S
C2972 H2964 0.929 . S
C2972 C2973 1.377 . S
C2972 C2974 1.384 . S
C2973 C2972 1.377 . S
C2973 C2979 1.390 . S
C2974 H2965 0.930 . S
C2974 C2972 1.384 . S
C2974 C2975 1.372 . S
C2975 C2974 1.372 . S
C2975 C2976 1.400 . S
C2975 C2980 1.490 . S
C2976 H2966 0.930 . S
C2976 C2975 1.400 . S
C2976 C2979 1.386 . S
H2977 C2993 0.930 . S
H2978 C2994 0.931 . S
C2979 H2967 0.929 . S
C2979 C2973 1.390 . S
C2979 C2976 1.386 . S
C2980 C2975 1.490 . S
C2980 C2982 1.395 . S
C2980 C2983 1.403 . S
H2981 C2987 0.930 . S
C2982 H2968 0.930 . S
C2982 C2980 1.395 . S
C2982 C2985 1.403 . S
C2983 C2980 1.403 . S
C2983 C2984 1.524 . S
C2983 C2987 1.400 . S
C2984 H2969 0.960 . S
C2984 H2970 0.960 . S
C2984 H2971 0.960 . S
C2984 C2983 1.524 . S
C2985 C2982 1.403 . S
C2985 C2986 1.392 . S
C2985 C2989 1.495 . S
C2986 C2985 1.392 . S
C2986 C2987 1.385 . S
C2986 C2988 1.478 . S
C2987 H2981 0.930 . S
C2987 C2983 1.400 . S
C2987 C2986 1.385 . S
C2988 C2986 1.478 . S
C2988 C2990 1.381 . S
C2988 C2994 1.383 . S
C2989 C2985 1.495 . S
C2989 H2995 0.959 . S
C2989 H2996 0.961 . S
C2989 H2997 0.960 . S
C2990 C2988 1.381 . S
C2990 C2991 1.394 . S
C2990 H2998 0.930 . S
C2991 C2990 1.394 . S
C2991 C2992 1.383 . S
C2991 H2999 0.929 . S
C2992 C2991 1.383 . S
C2992 C2993 1.377 . S
C2993 H2977 0.930 . S
C2993 C2992 1.377 . S
C2993 C2994 1.379 . S
C2994 H2978 0.931 . S
C2994 C2988 1.383 . S
C2994 C2993 1.379 . S
H2995 C2989 0.959 . S
H2996 C2989 0.961 . S
H2997 C2989 0.960 . S
H2998 C2990 0.930 . S
H2999 C2991 0.929 . S
H3000 C3008 0.929 . S
H3001 C3010 0.930 . S
H3002 C3012 0.930 . S
H3003 C3015 0.929 . S
H3004 C3018 0.930 . S
H3005 C3020 0.960 . S
H3006 C3020 0.960 . S
H3007 C3020 0.960 . S
C3008 H3000 0.929 . S
C3008 C3009 1.377 . S
C3008 C3010 1.384 . S
C3009 C3008 1.377 . S
C3009 C3015 1.390 . S
C3010 H3001 0.930 . S
C3010 C3008 1.384 . S
C3010 C3011 1.372 . S
C3011 C3010 1.372 . S
C3011 C3012 1.400 . S
C3011 C3016 1.490 . S
C3012 H3002 0.930 . S
C3012 C3011 1.400 . S
C3012 C3015 1.386 . S
H3013 C3029 0.930 . S
H3014 C3030 0.931 . S
C3015 H3003 0.929 . S
C3015 C3009 1.390 . S
C3015 C3012 1.386 . S
C3016 C3011 1.490 . S
C3016 C3018 1.395 . S
C3016 C3019 1.403 . S
H3017 C3023 0.930 . S
C3018 H3004 0.930 . S
C3018 C3016 1.395 . S
C3018 C3021 1.403 . S
C3019 C3016 1.403 . S
C3019 C3020 1.524 . S
C3019 C3023 1.400 . S
C3020 H3005 0.960 . S
C3020 H3006 0.960 . S
C3020 H3007 0.960 . S
C3020 C3019 1.524 . S
C3021 C3018 1.403 . S
C3021 C3022 1.392 . S
C3021 C3025 1.495 . S
C3022 C3021 1.392 . S
C3022 C3023 1.385 . S
C3022 C3024 1.478 . S
C3023 H3017 0.930 . S
C3023 C3019 1.400 . S
C3023 C3022 1.385 . S
C3024 C3022 1.478 . S
C3024 C3026 1.381 . S
C3024 C3030 1.383 . S
C3025 C3021 1.495 . S
C3025 H3031 0.959 . S
C3025 H3032 0.961 . S
C3025 H3033 0.960 . S
C3026 C3024 1.381 . S
C3026 C3027 1.394 . S
C3026 H3034 0.930 . S
C3027 C3026 1.394 . S
C3027 C3028 1.383 . S
C3027 H3035 0.929 . S
C3028 C3027 1.383 . S
C3028 C3029 1.377 . S
C3029 H3013 0.930 . S
C3029 C3028 1.377 . S
C3029 C3030 1.379 . S
C3030 H3014 0.931 . S
C3030 C3024 1.383 . S
C3030 C3029 1.379 . S
H3031 C3025 0.959 . S
H3032 C3025 0.961 . S
H3033 C3025 0.960 . S
H3034 C3026 0.930 . S
H3035 C3027 0.929 . S
H3036 C3044 0.929 . S
H3037 C3046 0.930 . S
H3038 C3048 0.930 . S
H3039 C3051 0.929 . S
H3040 C3054 0.930 . S
H3041 C3056 0.960 . S
H3042 C3056 0.960 . S
H3043 C3056 0.960 . S
C3044 H3036 0.929 . S
C3044 C3045 1.377 . S
C3044 C3046 1.384 . S
C3045 C3044 1.377 . S
C3045 C3051 1.390 . S
C3046 H3037 0.930 . S
C3046 C3044 1.384 . S
C3046 C3047 1.372 . S
C3047 C3046 1.372 . S
C3047 C3048 1.400 . S
C3047 C3052 1.490 . S
C3048 H3038 0.930 . S
C3048 C3047 1.400 . S
C3048 C3051 1.386 . S
H3049 C3065 0.930 . S
H3050 C3066 0.931 . S
C3051 H3039 0.929 . S
C3051 C3045 1.390 . S
C3051 C3048 1.386 . S
C3052 C3047 1.490 . S
C3052 C3054 1.395 . S
C3052 C3055 1.403 . S
H3053 C3059 0.930 . S
C3054 H3040 0.930 . S
C3054 C3052 1.395 . S
C3054 C3057 1.403 . S
C3055 C3052 1.403 . S
C3055 C3056 1.524 . S
C3055 C3059 1.400 . S
C3056 H3041 0.960 . S
C3056 H3042 0.960 . S
C3056 H3043 0.960 . S
C3056 C3055 1.524 . S
C3057 C3054 1.403 . S
C3057 C3058 1.392 . S
C3057 C3061 1.495 . S
C3058 C3057 1.392 . S
C3058 C3059 1.385 . S
C3058 C3060 1.478 . S
C3059 H3053 0.930 . S
C3059 C3055 1.400 . S
C3059 C3058 1.385 . S
C3060 C3058 1.478 . S
C3060 C3062 1.381 . S
C3060 C3066 1.383 . S
C3061 C3057 1.495 . S
C3061 H3067 0.959 . S
C3061 H3068 0.961 . S
C3061 H3069 0.960 . S
C3062 C3060 1.381 . S
C3062 C3063 1.394 . S
C3062 H3070 0.930 . S
C3063 C3062 1.394 . S
C3063 C3064 1.383 . S
C3063 H3071 0.929 . S
C3064 C3063 1.383 . S
C3064 C3065 1.377 . S
C3065 H3049 0.930 . S
C3065 C3064 1.377 . S
C3065 C3066 1.379 . S
C3066 H3050 0.931 . S
C3066 C3060 1.383 . S
C3066 C3065 1.379 . S
H3067 C3061 0.959 . S
H3068 C3061 0.961 . S
H3069 C3061 0.960 . S
H3070 C3062 0.930 . S
H3071 C3063 0.929 . S
H3072 C3080 0.929 . S
H3073 C3082 0.930 . S
H3074 C3084 0.930 . S
H3075 C3087 0.929 . S
H3076 C3090 0.930 . S
H3077 C3092 0.960 . S
H3078 C3092 0.960 . S
H3079 C3092 0.960 . S
C3080 H3072 0.929 . S
C3080 C3081 1.377 . S
C3080 C3082 1.384 . S
C3081 C3080 1.377 . S
C3081 C3087 1.390 . S
C3082 H3073 0.930 . S
C3082 C3080 1.384 . S
C3082 C3083 1.372 . S
C3083 C3082 1.372 . S
C3083 C3084 1.400 . S
C3083 C3088 1.490 . S
C3084 H3074 0.930 . S
C3084 C3083 1.400 . S
C3084 C3087 1.386 . S
H3085 C3101 0.930 . S
H3086 C3102 0.931 . S
C3087 H3075 0.929 . S
C3087 C3081 1.390 . S
C3087 C3084 1.386 . S
C3088 C3083 1.490 . S
C3088 C3090 1.395 . S
C3088 C3091 1.403 . S
H3089 C3095 0.930 . S
C3090 H3076 0.930 . S
C3090 C3088 1.395 . S
C3090 C3093 1.403 . S
C3091 C3088 1.403 . S
C3091 C3092 1.524 . S
C3091 C3095 1.400 . S
C3092 H3077 0.960 . S
C3092 H3078 0.960 . S
C3092 H3079 0.960 . S
C3092 C3091 1.524 . S
C3093 C3090 1.403 . S
C3093 C3094 1.392 . S
C3093 C3097 1.495 . S
C3094 C3093 1.392 . S
C3094 C3095 1.385 . S
C3094 C3096 1.478 . S
C3095 H3089 0.930 . S
C3095 C3091 1.400 . S
C3095 C3094 1.385 . S
C3096 C3094 1.478 . S
C3096 C3098 1.381 . S
C3096 C3102 1.383 . S
C3097 C3093 1.495 . S
C3097 H3103 0.959 . S
C3097 H3104 0.961 . S
C3097 H3105 0.960 . S
C3098 C3096 1.381 . S
C3098 C3099 1.394 . S
C3098 H3106 0.930 . S
C3099 C3098 1.394 . S
C3099 C3100 1.383 . S
C3099 H3107 0.929 . S
C3100 C3099 1.383 . S
C3100 C3101 1.377 . S
C3101 H3085 0.930 . S
C3101 C3100 1.377 . S
C3101 C3102 1.379 . S
C3102 H3086 0.931 . S
C3102 C3096 1.383 . S
C3102 C3101 1.379 . S
H3103 C3097 0.959 . S
H3104 C3097 0.961 . S
H3105 C3097 0.960 . S
H3106 C3098 0.930 . S
H3107 C3099 0.929 . S
H3108 C3116 0.929 . S
H3109 C3118 0.930 . S
H3110 C3120 0.930 . S
H3111 C3123 0.929 . S
H3112 C3126 0.930 . S
H3113 C3128 0.960 . S
H3114 C3128 0.960 . S
H3115 C3128 0.960 . S
C3116 H3108 0.929 . S
C3116 C3117 1.377 . S
C3116 C3118 1.384 . S
C3117 C3116 1.377 . S
C3117 C3123 1.390 . S
C3118 H3109 0.930 . S
C3118 C3116 1.384 . S
C3118 C3119 1.372 . S
C3119 C3118 1.372 . S
C3119 C3120 1.400 . S
C3119 C3124 1.490 . S
C3120 H3110 0.930 . S
C3120 C3119 1.400 . S
C3120 C3123 1.386 . S
H3121 C3137 0.930 . S
H3122 C3138 0.931 . S
C3123 H3111 0.929 . S
C3123 C3117 1.390 . S
C3123 C3120 1.386 . S
C3124 C3119 1.490 . S
C3124 C3126 1.395 . S
C3124 C3127 1.403 . S
H3125 C3131 0.930 . S
C3126 H3112 0.930 . S
C3126 C3124 1.395 . S
C3126 C3129 1.403 . S
C3127 C3124 1.403 . S
C3127 C3128 1.524 . S
C3127 C3131 1.400 . S
C3128 H3113 0.960 . S
C3128 H3114 0.960 . S
C3128 H3115 0.960 . S
C3128 C3127 1.524 . S
C3129 C3126 1.403 . S
C3129 C3130 1.392 . S
C3129 C3133 1.495 . S
C3130 C3129 1.392 . S
C3130 C3131 1.385 . S
C3130 C3132 1.478 . S
C3131 H3125 0.930 . S
C3131 C3127 1.400 . S
C3131 C3130 1.385 . S
C3132 C3130 1.478 . S
C3132 C3134 1.381 . S
C3132 C3138 1.383 . S
C3133 C3129 1.495 . S
C3133 H3139 0.959 . S
C3133 H3140 0.961 . S
C3133 H3141 0.960 . S
C3134 C3132 1.381 . S
C3134 C3135 1.394 . S
C3134 H3142 0.930 . S
C3135 C3134 1.394 . S
C3135 C3136 1.383 . S
C3135 H3143 0.929 . S
C3136 C3135 1.383 . S
C3136 C3137 1.377 . S
C3137 H3121 0.930 . S
C3137 C3136 1.377 . S
C3137 C3138 1.379 . S
C3138 H3122 0.931 . S
C3138 C3132 1.383 . S
C3138 C3137 1.379 . S
H3139 C3133 0.959 . S
H3140 C3133 0.961 . S
H3141 C3133 0.960 . S
H3142 C3134 0.930 . S
H3143 C3135 0.929 . S
H3144 C3152 0.929 . S
H3145 C3154 0.930 . S
H3146 C3156 0.930 . S
H3147 C3159 0.929 . S
H3148 C3162 0.930 . S
H3149 C3164 0.960 . S
H3150 C3164 0.960 . S
H3151 C3164 0.960 . S
C3152 H3144 0.929 . S
C3152 C3153 1.377 . S
C3152 C3154 1.384 . S
C3153 C3152 1.377 . S
C3153 C3159 1.390 . S
C3154 H3145 0.930 . S
C3154 C3152 1.384 . S
C3154 C3155 1.372 . S
C3155 C3154 1.372 . S
C3155 C3156 1.400 . S
C3155 C3160 1.490 . S
C3156 H3146 0.930 . S
C3156 C3155 1.400 . S
C3156 C3159 1.386 . S
H3157 C3173 0.930 . S
H3158 C3174 0.931 . S
C3159 H3147 0.929 . S
C3159 C3153 1.390 . S
C3159 C3156 1.386 . S
C3160 C3155 1.490 . S
C3160 C3162 1.395 . S
C3160 C3163 1.403 . S
H3161 C3167 0.930 . S
C3162 H3148 0.930 . S
C3162 C3160 1.395 . S
C3162 C3165 1.403 . S
C3163 C3160 1.403 . S
C3163 C3164 1.524 . S
C3163 C3167 1.400 . S
C3164 H3149 0.960 . S
C3164 H3150 0.960 . S
C3164 H3151 0.960 . S
C3164 C3163 1.524 . S
C3165 C3162 1.403 . S
C3165 C3166 1.392 . S
C3165 C3169 1.495 . S
C3166 C3165 1.392 . S
C3166 C3167 1.385 . S
C3166 C3168 1.478 . S
C3167 H3161 0.930 . S
C3167 C3163 1.400 . S
C3167 C3166 1.385 . S
C3168 C3166 1.478 . S
C3168 C3170 1.381 . S
C3168 C3174 1.383 . S
C3169 C3165 1.495 . S
C3169 H3175 0.959 . S
C3169 H3176 0.961 . S
C3169 H3177 0.960 . S
C3170 C3168 1.381 . S
C3170 C3171 1.394 . S
C3170 H3178 0.930 . S
C3171 C3170 1.394 . S
C3171 C3172 1.383 . S
C3171 H3179 0.929 . S
C3172 C3171 1.383 . S
C3172 C3173 1.377 . S
C3173 H3157 0.930 . S
C3173 C3172 1.377 . S
C3173 C3174 1.379 . S
C3174 H3158 0.931 . S
C3174 C3168 1.383 . S
C3174 C3173 1.379 . S
H3175 C3169 0.959 . S
H3176 C3169 0.961 . S
H3177 C3169 0.960 . S
H3178 C3170 0.930 . S
H3179 C3171 0.929 . S
H3180 C3188 0.929 . S
H3181 C3190 0.930 . S
H3182 C3192 0.930 . S
H3183 C3195 0.929 . S
H3184 C3198 0.930 . S
H3185 C3200 0.960 . S
H3186 C3200 0.960 . S
H3187 C3200 0.960 . S
C3188 H3180 0.929 . S
C3188 C3189 1.377 . S
C3188 C3190 1.384 . S
C3189 C3188 1.377 . S
C3189 C3195 1.390 . S
C3190 H3181 0.930 . S
C3190 C3188 1.384 . S
C3190 C3191 1.372 . S
C3191 C3190 1.372 . S
C3191 C3192 1.400 . S
C3191 C3196 1.490 . S
C3192 H3182 0.930 . S
C3192 C3191 1.400 . S
C3192 C3195 1.386 . S
H3193 C3209 0.930 . S
H3194 C3210 0.931 . S
C3195 H3183 0.929 . S
C3195 C3189 1.390 . S
C3195 C3192 1.386 . S
C3196 C3191 1.490 . S
C3196 C3198 1.395 . S
C3196 C3199 1.403 . S
H3197 C3203 0.930 . S
C3198 H3184 0.930 . S
C3198 C3196 1.395 . S
C3198 C3201 1.403 . S
C3199 C3196 1.403 . S
C3199 C3200 1.524 . S
C3199 C3203 1.400 . S
C3200 H3185 0.960 . S
C3200 H3186 0.960 . S
C3200 H3187 0.960 . S
C3200 C3199 1.524 . S
C3201 C3198 1.403 . S
C3201 C3202 1.392 . S
C3201 C3205 1.495 . S
C3202 C3201 1.392 . S
C3202 C3203 1.385 . S
C3202 C3204 1.478 . S
C3203 H3197 0.930 . S
C3203 C3199 1.400 . S
C3203 C3202 1.385 . S
C3204 C3202 1.478 . S
C3204 C3206 1.381 . S
C3204 C3210 1.383 . S
C3205 C3201 1.495 . S
C3205 H3211 0.959 . S
C3205 H3212 0.961 . S
C3205 H3213 0.960 . S
C3206 C3204 1.381 . S
C3206 C3207 1.394 . S
C3206 H3214 0.930 . S
C3207 C3206 1.394 . S
C3207 C3208 1.383 . S
C3207 H3215 0.929 . S
C3208 C3207 1.383 . S
C3208 C3209 1.377 . S
C3209 H3193 0.930 . S
C3209 C3208 1.377 . S
C3209 C3210 1.379 . S
C3210 H3194 0.931 . S
C3210 C3204 1.383 . S
C3210 C3209 1.379 . S
H3211 C3205 0.959 . S
H3212 C3205 0.961 . S
H3213 C3205 0.960 . S
H3214 C3206 0.930 . S
H3215 C3207 0.929 . S
H3216 C3224 0.929 . S
H3217 C3226 0.930 . S
H3218 C3228 0.930 . S
H3219 C3231 0.929 . S
H3220 C3234 0.930 . S
H3221 C3236 0.960 . S
H3222 C3236 0.960 . S
H3223 C3236 0.960 . S
C3224 H3216 0.929 . S
C3224 C3225 1.377 . S
C3224 C3226 1.384 . S
C3225 C3224 1.377 . S
C3225 C3231 1.390 . S
C3226 H3217 0.930 . S
C3226 C3224 1.384 . S
C3226 C3227 1.372 . S
C3227 C3226 1.372 . S
C3227 C3228 1.400 . S
C3227 C3232 1.490 . S
C3228 H3218 0.930 . S
C3228 C3227 1.400 . S
C3228 C3231 1.386 . S
H3229 C3245 0.930 . S
H3230 C3246 0.931 . S
C3231 H3219 0.929 . S
C3231 C3225 1.390 . S
C3231 C3228 1.386 . S
C3232 C3227 1.490 . S
C3232 C3234 1.395 . S
C3232 C3235 1.403 . S
H3233 C3239 0.930 . S
C3234 H3220 0.930 . S
C3234 C3232 1.395 . S
C3234 C3237 1.403 . S
C3235 C3232 1.403 . S
C3235 C3236 1.524 . S
C3235 C3239 1.400 . S
C3236 H3221 0.960 . S
C3236 H3222 0.960 . S
C3236 H3223 0.960 . S
C3236 C3235 1.524 . S
C3237 C3234 1.403 . S
C3237 C3238 1.392 . S
C3237 C3241 1.495 . S
C3238 C3237 1.392 . S
C3238 C3239 1.385 . S
C3238 C3240 1.478 . S
C3239 H3233 0.930 . S
C3239 C3235 1.400 . S
C3239 C3238 1.385 . S
C3240 C3238 1.478 . S
C3240 C3242 1.381 . S
C3240 C3246 1.383 . S
C3241 C3237 1.495 . S
C3241 H3247 0.959 . S
C3241 H3248 0.961 . S
C3241 H3249 0.960 . S
C3242 C3240 1.381 . S
C3242 C3243 1.394 . S
C3242 H3250 0.930 . S
C3243 C3242 1.394 . S
C3243 C3244 1.383 . S
C3243 H3251 0.929 . S
C3244 C3243 1.383 . S
C3244 C3245 1.377 . S
C3245 H3229 0.930 . S
C3245 C3244 1.377 . S
C3245 C3246 1.379 . S
C3246 H3230 0.931 . S
C3246 C3240 1.383 . S
C3246 C3245 1.379 . S
H3247 C3241 0.959 . S
H3248 C3241 0.961 . S
H3249 C3241 0.960 . S
H3250 C3242 0.930 . S
H3251 C3243 0.929 . S
H3252 C3260 0.929 . S
H3253 C3262 0.930 . S
H3254 C3264 0.930 . S
H3255 C3267 0.929 . S
H3256 C3270 0.930 . S
H3257 C3272 0.960 . S
H3258 C3272 0.960 . S
H3259 C3272 0.960 . S
C3260 H3252 0.929 . S
C3260 C3261 1.377 . S
C3260 C3262 1.384 . S
C3261 C3260 1.377 . S
C3261 C3267 1.390 . S
C3262 H3253 0.930 . S
C3262 C3260 1.384 . S
C3262 C3263 1.372 . S
C3263 C3262 1.372 . S
C3263 C3264 1.400 . S
C3263 C3268 1.490 . S
C3264 H3254 0.930 . S
C3264 C3263 1.400 . S
C3264 C3267 1.386 . S
H3265 C3281 0.930 . S
H3266 C3282 0.931 . S
C3267 H3255 0.929 . S
C3267 C3261 1.390 . S
C3267 C3264 1.386 . S
C3268 C3263 1.490 . S
C3268 C3270 1.395 . S
C3268 C3271 1.403 . S
H3269 C3275 0.930 . S
C3270 H3256 0.930 . S
C3270 C3268 1.395 . S
C3270 C3273 1.403 . S
C3271 C3268 1.403 . S
C3271 C3272 1.524 . S
C3271 C3275 1.400 . S
C3272 H3257 0.960 . S
C3272 H3258 0.960 . S
C3272 H3259 0.960 . S
C3272 C3271 1.524 . S
C3273 C3270 1.403 . S
C3273 C3274 1.392 . S
C3273 C3277 1.495 . S
C3274 C3273 1.392 . S
C3274 C3275 1.385 . S
C3274 C3276 1.478 . S
C3275 H3269 0.930 . S
C3275 C3271 1.400 . S
C3275 C3274 1.385 . S
C3276 C3274 1.478 . S
C3276 C3278 1.381 . S
C3276 C3282 1.383 . S
C3277 C3273 1.495 . S
C3277 H3283 0.959 . S
C3277 H3284 0.961 . S
C3277 H3285 0.960 . S
C3278 C3276 1.381 . S
C3278 C3279 1.394 . S
C3278 H3286 0.930 . S
C3279 C3278 1.394 . S
C3279 C3280 1.383 . S
C3279 H3287 0.929 . S
C3280 C3279 1.383 . S
C3280 C3281 1.377 . S
C3281 H3265 0.930 . S
C3281 C3280 1.377 . S
C3281 C3282 1.379 . S
C3282 H3266 0.931 . S
C3282 C3276 1.383 . S
C3282 C3281 1.379 . S
H3283 C3277 0.959 . S
H3284 C3277 0.961 . S
H3285 C3277 0.960 . S
H3286 C3278 0.930 . S
H3287 C3279 0.929 . S
H3288 C3296 0.929 . S
H3289 C3298 0.930 . S
H3290 C3300 0.930 . S
H3291 C3303 0.929 . S
H3292 C3306 0.930 . S
H3293 C3308 0.960 . S
H3294 C3308 0.960 . S
H3295 C3308 0.960 . S
C3296 H3288 0.929 . S
C3296 C3297 1.377 . S
C3296 C3298 1.384 . S
C3297 C3296 1.377 . S
C3297 C3303 1.390 . S
C3298 H3289 0.930 . S
C3298 C3296 1.384 . S
C3298 C3299 1.372 . S
C3299 C3298 1.372 . S
C3299 C3300 1.400 . S
C3299 C3304 1.490 . S
C3300 H3290 0.930 . S
C3300 C3299 1.400 . S
C3300 C3303 1.386 . S
H3301 C3317 0.930 . S
H3302 C3318 0.931 . S
C3303 H3291 0.929 . S
C3303 C3297 1.390 . S
C3303 C3300 1.386 . S
C3304 C3299 1.490 . S
C3304 C3306 1.395 . S
C3304 C3307 1.403 . S
H3305 C3311 0.930 . S
C3306 H3292 0.930 . S
C3306 C3304 1.395 . S
C3306 C3309 1.403 . S
C3307 C3304 1.403 . S
C3307 C3308 1.524 . S
C3307 C3311 1.400 . S
C3308 H3293 0.960 . S
C3308 H3294 0.960 . S
C3308 H3295 0.960 . S
C3308 C3307 1.524 . S
C3309 C3306 1.403 . S
C3309 C3310 1.392 . S
C3309 C3313 1.495 . S
C3310 C3309 1.392 . S
C3310 C3311 1.385 . S
C3310 C3312 1.478 . S
C3311 H3305 0.930 . S
C3311 C3307 1.400 . S
C3311 C3310 1.385 . S
C3312 C3310 1.478 . S
C3312 C3314 1.381 . S
C3312 C3318 1.383 . S
C3313 C3309 1.495 . S
C3313 H3319 0.959 . S
C3313 H3320 0.961 . S
C3313 H3321 0.960 . S
C3314 C3312 1.381 . S
C3314 C3315 1.394 . S
C3314 H3322 0.930 . S
C3315 C3314 1.394 . S
C3315 C3316 1.383 . S
C3315 H3323 0.929 . S
C3316 C3315 1.383 . S
C3316 C3317 1.377 . S
C3317 H3301 0.930 . S
C3317 C3316 1.377 . S
C3317 C3318 1.379 . S
C3318 H3302 0.931 . S
C3318 C3312 1.383 . S
C3318 C3317 1.379 . S
H3319 C3313 0.959 . S
H3320 C3313 0.961 . S
H3321 C3313 0.960 . S
H3322 C3314 0.930 . S
H3323 C3315 0.929 . S
H3324 C3332 0.929 . S
H3325 C3334 0.930 . S
H3326 C3336 0.930 . S
H3327 C3339 0.929 . S
H3328 C3342 0.930 . S
H3329 C3344 0.960 . S
H3330 C3344 0.960 . S
H3331 C3344 0.960 . S
C3332 H3324 0.929 . S
C3332 C3333 1.377 . S
C3332 C3334 1.384 . S
C3333 C3332 1.377 . S
C3333 C3339 1.390 . S
C3334 H3325 0.930 . S
C3334 C3332 1.384 . S
C3334 C3335 1.372 . S
C3335 C3334 1.372 . S
C3335 C3336 1.400 . S
C3335 C3340 1.490 . S
C3336 H3326 0.930 . S
C3336 C3335 1.400 . S
C3336 C3339 1.386 . S
H3337 C3353 0.930 . S
H3338 C3354 0.931 . S
C3339 H3327 0.929 . S
C3339 C3333 1.390 . S
C3339 C3336 1.386 . S
C3340 C3335 1.490 . S
C3340 C3342 1.395 . S
C3340 C3343 1.403 . S
H3341 C3347 0.930 . S
C3342 H3328 0.930 . S
C3342 C3340 1.395 . S
C3342 C3345 1.403 . S
C3343 C3340 1.403 . S
C3343 C3344 1.524 . S
C3343 C3347 1.400 . S
C3344 H3329 0.960 . S
C3344 H3330 0.960 . S
C3344 H3331 0.960 . S
C3344 C3343 1.524 . S
C3345 C3342 1.403 . S
C3345 C3346 1.392 . S
C3345 C3349 1.495 . S
C3346 C3345 1.392 . S
C3346 C3347 1.385 . S
C3346 C3348 1.478 . S
C3347 H3341 0.930 . S
C3347 C3343 1.400 . S
C3347 C3346 1.385 . S
C3348 C3346 1.478 . S
C3348 C3350 1.381 . S
C3348 C3354 1.383 . S
C3349 C3345 1.495 . S
C3349 H3355 0.959 . S
C3349 H3356 0.961 . S
C3349 H3357 0.960 . S
C3350 C3348 1.381 . S
C3350 C3351 1.394 . S
C3350 H3358 0.930 . S
C3351 C3350 1.394 . S
C3351 C3352 1.383 . S
C3351 H3359 0.929 . S
C3352 C3351 1.383 . S
C3352 C3353 1.377 . S
C3353 H3337 0.930 . S
C3353 C3352 1.377 . S
C3353 C3354 1.379 . S
C3354 H3338 0.931 . S
C3354 C3348 1.383 . S
C3354 C3353 1.379 . S
H3355 C3349 0.959 . S
H3356 C3349 0.961 . S
H3357 C3349 0.960 . S
H3358 C3350 0.930 . S
H3359 C3351 0.929 . S
H3360 C3368 0.929 . S
H3361 C3370 0.930 . S
H3362 C3372 0.930 . S
H3363 C3375 0.929 . S
H3364 C3378 0.930 . S
H3365 C3380 0.960 . S
H3366 C3380 0.960 1_455 S
H3367 C3380 0.960 . S
C3368 H3360 0.929 . S
C3368 C3369 1.377 . S
C3368 C3370 1.384 . S
C3369 C3368 1.377 . S
C3369 C3375 1.390 1_455 S
C3370 H3361 0.930 . S
C3370 C3368 1.384 . S
C3370 C3371 1.372 . S
C3371 C3370 1.372 . S
C3371 C3372 1.400 1_455 S
C3371 C3376 1.490 . S
C3372 H3362 0.930 . S
C3372 C3371 1.400 1_655 S
C3372 C3375 1.386 . S
H3373 C3389 0.930 . S
H3374 C3390 0.931 . S
C3375 H3363 0.929 . S
C3375 C3369 1.390 1_655 S
C3375 C3372 1.386 . S
C3376 C3371 1.490 . S
C3376 C3378 1.395 . S
C3376 C3379 1.396 1_455 S
H3377 C3383 0.932 . S
C3378 H3364 0.930 . S
C3378 C3376 1.395 . S
C3378 C3381 1.403 . S
C3379 C3376 1.396 1_655 S
C3379 C3380 1.531 . S
C3379 C3383 1.400 . S
C3380 H3365 0.960 . S
C3380 H3366 0.960 1_655 S
C3380 H3367 0.960 . S
C3380 C3379 1.531 . S
C3381 C3378 1.403 . S
C3381 C3382 1.392 . S
C3381 C3385 1.495 . S
C3382 C3381 1.392 . S
C3382 C3383 1.383 1_455 S
C3382 C3384 1.478 . S
C3383 H3377 0.932 . S
C3383 C3379 1.400 . S
C3383 C3382 1.383 1_655 S
C3384 C3382 1.478 . S
C3384 C3386 1.381 . S
C3384 C3390 1.383 1_455 S
C3385 C3381 1.495 . S
C3385 H3391 0.959 . S
C3385 H3392 0.961 . S
C3385 H3393 0.960 . S
C3386 C3384 1.381 . S
C3386 C3387 1.394 1_554 S
C3386 H3394 0.930 . S
C3387 C3386 1.394 1_556 S
C3387 C3388 1.383 . S
C3387 H3395 0.929 . S
C3388 C3387 1.383 . S
C3388 C3389 1.377 1_455 S
C3389 H3373 0.930 . S
C3389 C3388 1.377 1_655 S
C3389 C3390 1.379 1_556 S
C3390 H3374 0.931 . S
C3390 C3384 1.383 1_655 S
C3390 C3389 1.379 1_554 S
H3391 C3385 0.959 . S
H3392 C3385 0.961 . S
H3393 C3385 0.960 . S
H3394 C3386 0.930 . S
H3395 C3387 0.929 . S
H3396 C3404 0.929 . S
H3397 C3406 0.930 . S
H3398 C3408 0.930 . S
H3399 C3411 0.929 . S
H3400 C3414 0.930 . S
H3401 C3416 0.960 . S
H3402 C3416 0.960 . S
H3403 C3416 0.960 . S
C3404 H3396 0.929 . S
C3404 C3405 1.377 1_554 S
C3404 C3406 1.384 . S
C3405 C3404 1.377 1_556 S
C3405 C3411 1.390 . S
C3406 H3397 0.930 . S
C3406 C3404 1.384 . S
C3406 C3407 1.372 . S
C3407 C3406 1.372 . S
C3407 C3408 1.400 . S
C3407 C3412 1.490 . S
C3408 H3398 0.930 . S
C3408 C3407 1.400 . S
C3408 C3411 1.386 1_554 S
H3409 C3425 0.930 . S
H3410 C3426 0.931 . S
C3411 H3399 0.929 . S
C3411 C3405 1.390 . S
C3411 C3408 1.386 1_556 S
C3412 C3407 1.490 . S
C3412 C3414 1.395 . S
C3412 C3415 1.403 . S
H3413 C3419 0.930 . S
C3414 H3400 0.930 . S
C3414 C3412 1.395 . S
C3414 C3417 1.403 . S
C3415 C3412 1.403 . S
C3415 C3416 1.524 . S
C3415 C3419 1.400 . S
C3416 H3401 0.960 . S
C3416 H3402 0.960 . S
C3416 H3403 0.960 . S
C3416 C3415 1.524 . S
C3417 C3414 1.403 . S
C3417 C3418 1.392 . S
C3417 C3421 1.495 . S
C3418 C3417 1.392 . S
C3418 C3419 1.385 . S
C3418 C3420 1.478 . S
C3419 H3413 0.930 . S
C3419 C3415 1.400 . S
C3419 C3418 1.385 . S
C3420 C3418 1.478 . S
C3420 C3422 1.381 . S
C3420 C3426 1.383 . S
C3421 C3417 1.495 . S
C3421 H3427 0.959 . S
C3421 H3428 0.961 . S
C3421 H3429 0.960 . S
C3422 C3420 1.381 . S
C3422 C3423 1.394 . S
C3422 H3430 0.930 . S
C3423 C3422 1.394 . S
C3423 C3424 1.383 . S
C3423 H3431 0.929 . S
C3424 C3423 1.383 . S
C3424 C3425 1.377 . S
C3425 H3409 0.930 . S
C3425 C3424 1.377 . S
C3425 C3426 1.379 . S
C3426 H3410 0.931 . S
C3426 C3420 1.383 . S
C3426 C3425 1.379 . S
H3427 C3421 0.959 . S
H3428 C3421 0.961 . S
H3429 C3421 0.960 . S
H3430 C3422 0.930 . S
H3431 C3423 0.929 . S
H3432 C3440 0.929 . S
H3433 C3442 0.930 . S
H3434 C3444 0.930 . S
H3435 C3447 0.929 . S
H3436 C3450 0.930 . S
H3437 C3452 0.960 . S
H3438 C3452 0.960 . S
H3439 C3452 0.960 . S
C3440 H3432 0.929 . S
C3440 C3441 1.377 1_556 S
C3440 C3442 1.384 . S
C3441 C3440 1.377 1_554 S
C3441 C3447 1.390 . S
C3442 H3433 0.930 . S
C3442 C3440 1.384 . S
C3442 C3443 1.372 . S
C3443 C3442 1.372 . S
C3443 C3444 1.400 . S
C3443 C3448 1.490 . S
C3444 H3434 0.930 . S
C3444 C3443 1.400 . S
C3444 C3447 1.386 1_556 S
H3445 C3461 0.930 . S
H3446 C3462 0.931 . S
C3447 H3435 0.929 . S
C3447 C3441 1.390 . S
C3447 C3444 1.386 1_554 S
C3448 C3443 1.490 . S
C3448 C3450 1.395 . S
C3448 C3451 1.403 1_655 S
H3449 C3455 0.930 . S
C3450 H3436 0.930 . S
C3450 C3448 1.395 . S
C3450 C3453 1.403 . S
C3451 C3448 1.403 1_455 S
C3451 C3452 1.524 . S
C3451 C3455 1.400 . S
C3452 H3437 0.960 . S
C3452 H3438 0.960 . S
C3452 H3439 0.960 . S
C3452 C3451 1.524 . S
C3453 C3450 1.403 . S
C3453 C3454 1.392 . S
C3453 C3457 1.495 . S
C3454 C3453 1.392 . S
C3454 C3455 1.385 1_655 S
C3454 C3456 1.478 . S
C3455 H3449 0.930 . S
C3455 C3451 1.400 . S
C3455 C3454 1.385 1_455 S
C3456 C3454 1.478 . S
C3456 C3458 1.381 . S
C3456 C3462 1.383 . S
C3457 C3453 1.495 . S
C3457 H3463 0.959 . S
C3457 H3464 0.961 . S
C3457 H3465 0.960 . S
C3458 C3456 1.381 . S
C3458 C3459 1.394 . S
C3458 H3466 0.930 . S
C3459 C3458 1.394 . S
C3459 C3460 1.383 . S
C3459 H3467 0.929 . S
C3460 C3459 1.383 . S
C3460 C3461 1.377 . S
C3461 H3445 0.930 . S
C3461 C3460 1.377 . S
C3461 C3462 1.379 . S
C3462 H3446 0.931 . S
C3462 C3456 1.383 . S
C3462 C3461 1.379 . S
H3463 C3457 0.959 . S
H3464 C3457 0.961 . S
H3465 C3457 0.960 . S
H3466 C3458 0.930 . S
H3467 C3459 0.929 . S
H3468 C3476 0.929 . S
H3469 C3478 0.930 . S
H3470 C3480 0.930 . S
H3471 C3483 0.929 . S
H3472 C3486 0.930 . S
H3473 C3488 0.960 . S
H3474 C3488 0.960 . S
H3475 C3488 0.960 . S
C3476 H3468 0.929 . S
C3476 C3477 1.377 . S
C3476 C3478 1.384 . S
C3477 C3476 1.377 . S
C3477 C3483 1.390 . S
C3478 H3469 0.930 . S
C3478 C3476 1.384 . S
C3478 C3479 1.372 . S
C3479 C3478 1.372 . S
C3479 C3480 1.400 . S
C3479 C3484 1.490 . S
C3480 H3470 0.930 . S
C3480 C3479 1.400 . S
C3480 C3483 1.386 . S
H3481 C3497 0.930 . S
H3482 C3498 0.931 . S
C3483 H3471 0.929 . S
C3483 C3477 1.390 . S
C3483 C3480 1.386 . S
C3484 C3479 1.490 . S
C3484 C3486 1.395 . S
C3484 C3487 1.403 . S
H3485 C3491 0.930 . S
C3486 H3472 0.930 . S
C3486 C3484 1.395 . S
C3486 C3489 1.403 . S
C3487 C3484 1.403 . S
C3487 C3488 1.524 . S
C3487 C3491 1.400 . S
C3488 H3473 0.960 . S
C3488 H3474 0.960 . S
C3488 H3475 0.960 . S
C3488 C3487 1.524 . S
C3489 C3486 1.403 . S
C3489 C3490 1.392 . S
C3489 C3493 1.495 . S
C3490 C3489 1.392 . S
C3490 C3491 1.385 . S
C3490 C3492 1.478 . S
C3491 H3485 0.930 . S
C3491 C3487 1.400 . S
C3491 C3490 1.385 . S
C3492 C3490 1.478 . S
C3492 C3494 1.381 . S
C3492 C3498 1.383 . S
C3493 C3489 1.495 . S
C3493 H3499 0.959 . S
C3493 H3500 0.961 . S
C3493 H3501 0.960 . S
C3494 C3492 1.381 . S
C3494 C3495 1.394 1_556 S
C3494 H3502 0.930 . S
C3495 C3494 1.394 1_554 S
C3495 C3496 1.383 . S
C3495 H3503 0.929 . S
C3496 C3495 1.383 . S
C3496 C3497 1.377 . S
C3497 H3481 0.930 . S
C3497 C3496 1.377 . S
C3497 C3498 1.379 1_554 S
C3498 H3482 0.931 . S
C3498 C3492 1.383 . S
C3498 C3497 1.379 1_556 S
H3499 C3493 0.959 . S
H3500 C3493 0.961 . S
H3501 C3493 0.960 . S
H3502 C3494 0.930 . S
H3503 C3495 0.929 . S
H3504 C3512 0.929 . S
H3505 C3514 0.930 . S
H3506 C3516 0.930 . S
H3507 C3519 0.929 . S
H3508 C3522 0.930 . S
H3509 C3524 0.960 . S
H3510 C3524 0.960 . S
H3511 C3524 0.960 . S
C3512 H3504 0.929 . S
C3512 C3513 1.377 . S
C3512 C3514 1.384 . S
C3513 C3512 1.377 . S
C3513 C3519 1.390 1_455 S
C3514 H3505 0.930 . S
C3514 C3512 1.384 . S
C3514 C3515 1.372 . S
C3515 C3514 1.372 . S
C3515 C3516 1.400 1_455 S
C3515 C3520 1.490 . S
C3516 H3506 0.930 . S
C3516 C3515 1.400 1_655 S
C3516 C3519 1.386 . S
H3517 C3533 0.930 . S
H3518 C3534 0.931 . S
C3519 H3507 0.929 . S
C3519 C3513 1.390 1_655 S
C3519 C3516 1.386 . S
C3520 C3515 1.490 . S
C3520 C3522 1.395 . S
C3520 C3523 1.403 1_455 S
H3521 C3527 0.930 . S
C3522 H3508 0.930 . S
C3522 C3520 1.395 . S
C3522 C3525 1.403 . S
C3523 C3520 1.403 1_655 S
C3523 C3524 1.524 . S
C3523 C3527 1.400 . S
C3524 H3509 0.960 . S
C3524 H3510 0.960 . S
C3524 H3511 0.960 . S
C3524 C3523 1.524 . S
C3525 C3522 1.403 . S
C3525 C3526 1.392 . S
C3525 C3529 1.495 . S
C3526 C3525 1.392 . S
C3526 C3527 1.385 1_455 S
C3526 C3528 1.478 . S
C3527 H3521 0.930 . S
C3527 C3523 1.400 . S
C3527 C3526 1.385 1_655 S
C3528 C3526 1.478 . S
C3528 C3530 1.381 . S
C3528 C3534 1.383 1_455 S
C3529 C3525 1.495 . S
C3529 H3535 0.959 . S
C3529 H3536 0.961 . S
C3529 H3537 0.960 . S
C3530 C3528 1.381 . S
C3530 C3531 1.394 . S
C3530 H3538 0.930 . S
C3531 C3530 1.394 . S
C3531 C3532 1.383 . S
C3531 H3539 0.929 . S
C3532 C3531 1.383 . S
C3532 C3533 1.377 1_455 S
C3533 H3517 0.930 . S
C3533 C3532 1.377 1_655 S
C3533 C3534 1.379 . S
C3534 H3518 0.931 . S
C3534 C3528 1.383 1_655 S
C3534 C3533 1.379 . S
H3535 C3529 0.959 . S
H3536 C3529 0.961 . S
H3537 C3529 0.960 . S
H3538 C3530 0.930 . S
H3539 C3531 0.929 . S
H3540 C3548 0.929 . S
H3541 C3550 0.930 . S
H3542 C3552 0.930 . S
H3543 C3555 0.929 . S
H3544 C3558 0.930 . S
H3545 C3560 0.960 . S
H3546 C3560 0.960 . S
H3547 C3560 0.960 . S
C3548 H3540 0.929 . S
C3548 C3549 1.377 . S
C3548 C3550 1.384 . S
C3549 C3548 1.377 . S
C3549 C3555 1.390 . S
C3550 H3541 0.930 . S
C3550 C3548 1.384 . S
C3550 C3551 1.372 . S
C3551 C3550 1.372 . S
C3551 C3552 1.400 . S
C3551 C3556 1.490 . S
C3552 H3542 0.930 . S
C3552 C3551 1.400 . S
C3552 C3555 1.386 . S
H3553 C3569 0.930 . S
H3554 C3570 0.931 . S
C3555 H3543 0.929 . S
C3555 C3549 1.390 . S
C3555 C3552 1.386 . S
C3556 C3551 1.490 . S
C3556 C3558 1.395 . S
C3556 C3559 1.403 . S
H3557 C3563 0.930 . S
C3558 H3544 0.930 . S
C3558 C3556 1.395 . S
C3558 C3561 1.403 . S
C3559 C3556 1.403 . S
C3559 C3560 1.524 . S
C3559 C3563 1.400 . S
C3560 H3545 0.960 . S
C3560 H3546 0.960 . S
C3560 H3547 0.960 . S
C3560 C3559 1.524 . S
C3561 C3558 1.403 . S
C3561 C3562 1.392 . S
C3561 C3565 1.495 . S
C3562 C3561 1.392 . S
C3562 C3563 1.385 . S
C3562 C3564 1.478 . S
C3563 H3557 0.930 . S
C3563 C3559 1.400 . S
C3563 C3562 1.385 . S
C3564 C3562 1.478 . S
C3564 C3566 1.381 . S
C3564 C3570 1.383 . S
C3565 C3561 1.495 . S
C3565 H3571 0.959 . S
C3565 H3572 0.961 . S
C3565 H3573 0.960 . S
C3566 C3564 1.381 . S
C3566 C3567 1.394 . S
C3566 H3574 0.930 . S
C3567 C3566 1.394 . S
C3567 C3568 1.383 . S
C3567 H3575 0.929 . S
C3568 C3567 1.383 . S
C3568 C3569 1.377 . S
C3569 H3553 0.930 . S
C3569 C3568 1.377 . S
C3569 C3570 1.379 . S
C3570 H3554 0.931 . S
C3570 C3564 1.383 . S
C3570 C3569 1.379 . S
H3571 C3565 0.959 . S
H3572 C3565 0.961 . S
H3573 C3565 0.960 . S
H3574 C3566 0.930 . S
H3575 C3567 0.929 . S
H3576 C3584 0.926 1_455 S
H3577 C3586 0.929 1_455 S
H3578 C3588 0.930 . S
H3579 C3591 0.929 . S
H3580 C3594 0.930 . S
H3581 C3596 0.960 . S
H3582 C3596 0.960 . S
H3583 C3596 0.960 . S
C3584 H3576 0.926 1_655 S
C3584 C3585 1.382 . S
C3584 C3586 1.384 . S
C3585 C3584 1.382 . S
C3585 C3591 1.390 . S
C3586 H3577 0.929 1_655 S
C3586 C3584 1.384 . S
C3586 C3587 1.373 . S
C3587 C3586 1.373 . S
C3587 C3588 1.400 . S
C3587 C3592 1.490 . S
C3588 H3578 0.930 . S
C3588 C3587 1.400 . S
C3588 C3591 1.386 . S
H3589 C3605 0.930 . S
H3590 C3606 0.931 . S
C3591 H3579 0.929 . S
C3591 C3585 1.390 . S
C3591 C3588 1.386 . S
C3592 C3587 1.490 . S
C3592 C3594 1.395 1_655 S
C3592 C3595 1.403 . S
H3593 C3599 0.930 . S
C3594 H3580 0.930 . S
C3594 C3592 1.395 1_455 S
C3594 C3597 1.403 . S
C3595 C3592 1.403 . S
C3595 C3596 1.524 . S
C3595 C3599 1.400 . S
C3596 H3581 0.960 . S
C3596 H3582 0.960 . S
C3596 H3583 0.960 . S
C3596 C3595 1.524 . S
C3597 C3594 1.403 . S
C3597 C3598 1.383 1_455 S
C3597 C3601 1.495 . S
C3598 C3597 1.383 1_655 S
C3598 C3599 1.395 . S
C3598 C3600 1.477 . S
C3599 H3593 0.930 . S
C3599 C3595 1.400 . S
C3599 C3598 1.395 . S
C3600 C3598 1.477 . S
C3600 C3602 1.378 1_655 S
C3600 C3606 1.382 . S
C3601 C3597 1.495 . S
C3601 H3607 0.959 . S
C3601 H3608 0.961 . S
C3601 H3609 0.960 . S
C3602 C3600 1.378 1_455 S
C3602 C3603 1.391 1_455 S
C3602 H3610 0.943 . S
C3603 C3602 1.391 1_655 S
C3603 C3604 1.383 . S
C3603 H3611 0.928 1_655 S
C3604 C3603 1.383 . S
C3604 C3605 1.377 . S
C3605 H3589 0.930 . S
C3605 C3604 1.377 . S
C3605 C3606 1.379 . S
C3606 H3590 0.931 . S
C3606 C3600 1.382 . S
C3606 C3605 1.379 . S
H3607 C3601 0.959 . S
H3608 C3601 0.961 . S
H3609 C3601 0.960 . S
H3610 C3602 0.943 . S
H3611 C3603 0.928 1_455 S
H3612 C3620 0.929 . S
H3613 C3622 0.930 . S
H3614 C3624 0.930 . S
H3615 C3627 0.929 . S
H3616 C3630 0.930 . S
H3617 C3632 0.960 . S
H3618 C3632 0.960 . S
H3619 C3632 0.960 . S
C3620 H3612 0.929 . S
C3620 C3621 1.377 . S
C3620 C3622 1.384 . S
C3621 C3620 1.377 . S
C3621 C3627 1.390 . S
C3622 H3613 0.930 . S
C3622 C3620 1.384 . S
C3622 C3623 1.372 . S
C3623 C3622 1.372 . S
C3623 C3624 1.400 . S
C3623 C3628 1.490 . S
C3624 H3614 0.930 . S
C3624 C3623 1.400 . S
C3624 C3627 1.386 . S
H3625 C3641 0.930 . S
H3626 C3642 0.931 . S
C3627 H3615 0.929 . S
C3627 C3621 1.390 . S
C3627 C3624 1.386 . S
C3628 C3623 1.490 . S
C3628 C3630 1.395 . S
C3628 C3631 1.403 . S
H3629 C3635 0.930 . S
C3630 H3616 0.930 . S
C3630 C3628 1.395 . S
C3630 C3633 1.403 . S
C3631 C3628 1.403 . S
C3631 C3632 1.524 . S
C3631 C3635 1.400 . S
C3632 H3617 0.960 . S
C3632 H3618 0.960 . S
C3632 H3619 0.960 . S
C3632 C3631 1.524 . S
C3633 C3630 1.403 . S
C3633 C3634 1.392 . S
C3633 C3637 1.495 . S
C3634 C3633 1.392 . S
C3634 C3635 1.385 . S
C3634 C3636 1.478 . S
C3635 H3629 0.930 . S
C3635 C3631 1.400 . S
C3635 C3634 1.385 . S
C3636 C3634 1.478 . S
C3636 C3638 1.381 . S
C3636 C3642 1.383 . S
C3637 C3633 1.495 . S
C3637 H3643 0.959 . S
C3637 H3644 0.961 . S
C3637 H3645 0.960 . S
C3638 C3636 1.381 . S
C3638 C3639 1.394 . S
C3638 H3646 0.930 . S
C3639 C3638 1.394 . S
C3639 C3640 1.383 . S
C3639 H3647 0.929 . S
C3640 C3639 1.383 . S
C3640 C3641 1.377 . S
C3641 H3625 0.930 . S
C3641 C3640 1.377 . S
C3641 C3642 1.379 . S
C3642 H3626 0.931 . S
C3642 C3636 1.383 . S
C3642 C3641 1.379 . S
H3643 C3637 0.959 . S
H3644 C3637 0.961 . S
H3645 C3637 0.960 . S
H3646 C3638 0.930 . S
H3647 C3639 0.929 . S
H3648 C3656 0.929 . S
H3649 C3658 0.930 . S
H3650 C3660 0.930 . S
H3651 C3663 0.929 . S
H3652 C3666 0.930 . S
H3653 C3668 0.960 . S
H3654 C3668 0.960 . S
H3655 C3668 0.960 . S
C3656 H3648 0.929 . S
C3656 C3657 1.377 . S
C3656 C3658 1.384 . S
C3657 C3656 1.377 . S
C3657 C3663 1.390 . S
C3658 H3649 0.930 . S
C3658 C3656 1.384 . S
C3658 C3659 1.372 . S
C3659 C3658 1.372 . S
C3659 C3660 1.400 . S
C3659 C3664 1.490 . S
C3660 H3650 0.930 . S
C3660 C3659 1.400 . S
C3660 C3663 1.386 . S
H3661 C3677 0.930 . S
H3662 C3678 0.931 . S
C3663 H3651 0.929 . S
C3663 C3657 1.390 . S
C3663 C3660 1.386 . S
C3664 C3659 1.490 . S
C3664 C3666 1.395 . S
C3664 C3667 1.403 . S
H3665 C3671 0.930 . S
C3666 H3652 0.930 . S
C3666 C3664 1.395 . S
C3666 C3669 1.403 . S
C3667 C3664 1.403 . S
C3667 C3668 1.524 . S
C3667 C3671 1.400 . S
C3668 H3653 0.960 . S
C3668 H3654 0.960 . S
C3668 H3655 0.960 . S
C3668 C3667 1.524 . S
C3669 C3666 1.403 . S
C3669 C3670 1.392 . S
C3669 C3673 1.495 . S
C3670 C3669 1.392 . S
C3670 C3671 1.385 . S
C3670 C3672 1.478 . S
C3671 H3665 0.930 . S
C3671 C3667 1.400 . S
C3671 C3670 1.385 . S
C3672 C3670 1.478 . S
C3672 C3674 1.381 . S
C3672 C3678 1.383 . S
C3673 C3669 1.495 . S
C3673 H3679 0.959 . S
C3673 H3680 0.961 . S
C3673 H3681 0.960 . S
C3674 C3672 1.381 . S
C3674 C3675 1.394 . S
C3674 H3682 0.930 . S
C3675 C3674 1.394 . S
C3675 C3676 1.383 . S
C3675 H3683 0.929 . S
C3676 C3675 1.383 . S
C3676 C3677 1.377 . S
C3677 H3661 0.930 . S
C3677 C3676 1.377 . S
C3677 C3678 1.379 . S
C3678 H3662 0.931 . S
C3678 C3672 1.383 . S
C3678 C3677 1.379 . S
H3679 C3673 0.959 . S
H3680 C3673 0.961 . S
H3681 C3673 0.960 . S
H3682 C3674 0.930 . S
H3683 C3675 0.929 . S
H3684 C3692 0.929 . S
H3685 C3694 0.930 . S
H3686 C3696 0.930 . S
H3687 C3699 0.929 . S
H3688 C3702 0.930 . S
H3689 C3704 0.960 . S
H3690 C3704 0.960 . S
H3691 C3704 0.960 . S
C3692 H3684 0.929 . S
C3692 C3693 1.377 . S
C3692 C3694 1.384 . S
C3693 C3692 1.377 . S
C3693 C3699 1.390 . S
C3694 H3685 0.930 . S
C3694 C3692 1.384 . S
C3694 C3695 1.372 . S
C3695 C3694 1.372 . S
C3695 C3696 1.400 . S
C3695 C3700 1.490 . S
C3696 H3686 0.930 . S
C3696 C3695 1.400 . S
C3696 C3699 1.386 . S
H3697 C3713 0.930 . S
H3698 C3714 0.931 . S
C3699 H3687 0.929 . S
C3699 C3693 1.390 . S
C3699 C3696 1.386 . S
C3700 C3695 1.490 . S
C3700 C3702 1.395 . S
C3700 C3703 1.403 . S
H3701 C3707 0.930 . S
C3702 H3688 0.930 . S
C3702 C3700 1.395 . S
C3702 C3705 1.403 . S
C3703 C3700 1.403 . S
C3703 C3704 1.524 . S
C3703 C3707 1.400 . S
C3704 H3689 0.960 . S
C3704 H3690 0.960 . S
C3704 H3691 0.960 . S
C3704 C3703 1.524 . S
C3705 C3702 1.403 . S
C3705 C3706 1.392 . S
C3705 C3709 1.495 . S
C3706 C3705 1.392 . S
C3706 C3707 1.385 . S
C3706 C3708 1.478 . S
C3707 H3701 0.930 . S
C3707 C3703 1.400 . S
C3707 C3706 1.385 . S
C3708 C3706 1.478 . S
C3708 C3710 1.381 . S
C3708 C3714 1.383 . S
C3709 C3705 1.495 . S
C3709 H3715 0.959 . S
C3709 H3716 0.961 . S
C3709 H3717 0.960 . S
C3710 C3708 1.381 . S
C3710 C3711 1.394 . S
C3710 H3718 0.930 . S
C3711 C3710 1.394 . S
C3711 C3712 1.383 . S
C3711 H3719 0.929 . S
C3712 C3711 1.383 . S
C3712 C3713 1.377 . S
C3713 H3697 0.930 . S
C3713 C3712 1.377 . S
C3713 C3714 1.379 . S
C3714 H3698 0.931 . S
C3714 C3708 1.383 . S
C3714 C3713 1.379 . S
H3715 C3709 0.959 . S
H3716 C3709 0.961 . S
H3717 C3709 0.960 . S
H3718 C3710 0.930 . S
H3719 C3711 0.929 . S
H3720 C3728 0.929 . S
H3721 C3730 0.930 . S
H3722 C3732 0.930 . S
H3723 C3735 0.929 . S
H3724 C3738 0.930 . S
H3725 C3740 0.960 . S
H3726 C3740 0.960 . S
H3727 C3740 0.960 . S
C3728 H3720 0.929 . S
C3728 C3729 1.377 . S
C3728 C3730 1.384 . S
C3729 C3728 1.377 . S
C3729 C3735 1.390 . S
C3730 H3721 0.930 . S
C3730 C3728 1.384 . S
C3730 C3731 1.372 . S
C3731 C3730 1.372 . S
C3731 C3732 1.400 . S
C3731 C3736 1.490 . S
C3732 H3722 0.930 . S
C3732 C3731 1.400 . S
C3732 C3735 1.386 . S
H3733 C3749 0.930 . S
H3734 C3750 0.931 . S
C3735 H3723 0.929 . S
C3735 C3729 1.390 . S
C3735 C3732 1.386 . S
C3736 C3731 1.490 . S
C3736 C3738 1.395 . S
C3736 C3739 1.403 . S
H3737 C3743 0.930 . S
C3738 H3724 0.930 . S
C3738 C3736 1.395 . S
C3738 C3741 1.403 . S
C3739 C3736 1.403 . S
C3739 C3740 1.524 . S
C3739 C3743 1.400 . S
C3740 H3725 0.960 . S
C3740 H3726 0.960 . S
C3740 H3727 0.960 . S
C3740 C3739 1.524 . S
C3741 C3738 1.403 . S
C3741 C3742 1.392 . S
C3741 C3745 1.495 . S
C3742 C3741 1.392 . S
C3742 C3743 1.385 . S
C3742 C3744 1.478 . S
C3743 H3737 0.930 . S
C3743 C3739 1.400 . S
C3743 C3742 1.385 . S
C3744 C3742 1.478 . S
C3744 C3746 1.381 . S
C3744 C3750 1.383 . S
C3745 C3741 1.495 . S
C3745 H3751 0.959 . S
C3745 H3752 0.961 . S
C3745 H3753 0.960 . S
C3746 C3744 1.381 . S
C3746 C3747 1.394 . S
C3746 H3754 0.930 . S
C3747 C3746 1.394 . S
C3747 C3748 1.383 . S
C3747 H3755 0.929 . S
C3748 C3747 1.383 . S
C3748 C3749 1.377 . S
C3749 H3733 0.930 . S
C3749 C3748 1.377 . S
C3749 C3750 1.379 . S
C3750 H3734 0.931 . S
C3750 C3744 1.383 . S
C3750 C3749 1.379 . S
H3751 C3745 0.959 . S
H3752 C3745 0.961 . S
H3753 C3745 0.960 . S
H3754 C3746 0.930 . S
H3755 C3747 0.929 . S
H3756 C3764 0.929 . S
H3757 C3766 0.930 . S
H3758 C3768 0.930 . S
H3759 C3771 0.929 . S
H3760 C3774 0.930 . S
H3761 C3776 0.960 . S
H3762 C3776 0.960 . S
H3763 C3776 0.960 . S
C3764 H3756 0.929 . S
C3764 C3765 1.377 . S
C3764 C3766 1.384 . S
C3765 C3764 1.377 . S
C3765 C3771 1.390 . S
C3766 H3757 0.930 . S
C3766 C3764 1.384 . S
C3766 C3767 1.372 . S
C3767 C3766 1.372 . S
C3767 C3768 1.400 . S
C3767 C3772 1.490 . S
C3768 H3758 0.930 . S
C3768 C3767 1.400 . S
C3768 C3771 1.386 . S
H3769 C3785 0.930 . S
H3770 C3786 0.931 . S
C3771 H3759 0.929 . S
C3771 C3765 1.390 . S
C3771 C3768 1.386 . S
C3772 C3767 1.490 . S
C3772 C3774 1.395 . S
C3772 C3775 1.403 . S
H3773 C3779 0.930 . S
C3774 H3760 0.930 . S
C3774 C3772 1.395 . S
C3774 C3777 1.403 . S
C3775 C3772 1.403 . S
C3775 C3776 1.524 . S
C3775 C3779 1.400 . S
C3776 H3761 0.960 . S
C3776 H3762 0.960 . S
C3776 H3763 0.960 . S
C3776 C3775 1.524 . S
C3777 C3774 1.403 . S
C3777 C3778 1.392 . S
C3777 C3781 1.495 . S
C3778 C3777 1.392 . S
C3778 C3779 1.385 . S
C3778 C3780 1.478 . S
C3779 H3773 0.930 . S
C3779 C3775 1.400 . S
C3779 C3778 1.385 . S
C3780 C3778 1.478 . S
C3780 C3782 1.381 . S
C3780 C3786 1.383 . S
C3781 C3777 1.495 . S
C3781 H3787 0.959 . S
C3781 H3788 0.961 . S
C3781 H3789 0.960 . S
C3782 C3780 1.381 . S
C3782 C3783 1.394 . S
C3782 H3790 0.930 . S
C3783 C3782 1.394 . S
C3783 C3784 1.383 . S
C3783 H3791 0.929 . S
C3784 C3783 1.383 . S
C3784 C3785 1.377 . S
C3785 H3769 0.930 . S
C3785 C3784 1.377 . S
C3785 C3786 1.379 . S
C3786 H3770 0.931 . S
C3786 C3780 1.383 . S
C3786 C3785 1.379 . S
H3787 C3781 0.959 . S
H3788 C3781 0.961 . S
H3789 C3781 0.960 . S
H3790 C3782 0.930 . S
H3791 C3783 0.929 . S
H3792 C3800 0.929 . S
H3793 C3802 0.930 . S
H3794 C3804 0.930 . S
H3795 C3807 0.929 . S
H3796 C3810 0.930 . S
H3797 C3812 0.960 . S
H3798 C3812 0.960 . S
H3799 C3812 0.960 . S
C3800 H3792 0.929 . S
C3800 C3801 1.377 . S
C3800 C3802 1.384 1_556 S
C3801 C3800 1.377 . S
C3801 C3807 1.390 . S
C3802 H3793 0.930 . S
C3802 C3800 1.384 1_554 S
C3802 C3803 1.372 . S
C3803 C3802 1.372 . S
C3803 C3804 1.400 . S
C3803 C3808 1.490 . S
C3804 H3794 0.930 . S
C3804 C3803 1.400 . S
C3804 C3807 1.386 1_554 S
H3805 C3821 0.930 . S
H3806 C3822 0.931 . S
C3807 H3795 0.929 . S
C3807 C3801 1.390 . S
C3807 C3804 1.386 1_556 S
C3808 C3803 1.490 . S
C3808 C3810 1.395 . S
C3808 C3811 1.403 . S
H3809 C3815 0.930 . S
C3810 H3796 0.930 . S
C3810 C3808 1.395 . S
C3810 C3813 1.403 . S
C3811 C3808 1.403 . S
C3811 C3812 1.524 . S
C3811 C3815 1.400 . S
C3812 H3797 0.960 . S
C3812 H3798 0.960 . S
C3812 H3799 0.960 . S
C3812 C3811 1.524 . S
C3813 C3810 1.403 . S
C3813 C3814 1.392 . S
C3813 C3817 1.495 . S
C3814 C3813 1.392 . S
C3814 C3815 1.385 . S
C3814 C3816 1.478 . S
C3815 H3809 0.930 . S
C3815 C3811 1.400 . S
C3815 C3814 1.385 . S
C3816 C3814 1.478 . S
C3816 C3818 1.381 . S
C3816 C3822 1.383 . S
C3817 C3813 1.495 . S
C3817 H3823 0.959 . S
C3817 H3824 0.961 . S
C3817 H3825 0.960 . S
C3818 C3816 1.381 . S
C3818 C3819 1.394 . S
C3818 H3826 0.930 . S
C3819 C3818 1.394 . S
C3819 C3820 1.383 . S
C3819 H3827 0.929 . S
C3820 C3819 1.383 . S
C3820 C3821 1.377 . S
C3821 H3805 0.930 . S
C3821 C3820 1.377 . S
C3821 C3822 1.379 . S
C3822 H3806 0.931 . S
C3822 C3816 1.383 . S
C3822 C3821 1.379 . S
H3823 C3817 0.959 . S
H3824 C3817 0.961 . S
H3825 C3817 0.960 . S
H3826 C3818 0.930 . S
H3827 C3819 0.929 . S
H3828 C3836 0.929 . S
H3829 C3838 0.930 . S
H3830 C3840 0.930 . S
H3831 C3843 0.929 . S
H3832 C3846 0.930 . S
H3833 C3848 0.960 . S
H3834 C3848 0.960 . S
H3835 C3848 0.960 . S
C3836 H3828 0.929 . S
C3836 C3837 1.377 . S
C3836 C3838 1.384 . S
C3837 C3836 1.377 . S
C3837 C3843 1.390 . S
C3838 H3829 0.930 . S
C3838 C3836 1.384 . S
C3838 C3839 1.372 . S
C3839 C3838 1.372 . S
C3839 C3840 1.400 . S
C3839 C3844 1.490 . S
C3840 H3830 0.930 . S
C3840 C3839 1.400 . S
C3840 C3843 1.386 . S
H3841 C3857 0.930 . S
H3842 C3858 0.931 . S
C3843 H3831 0.929 . S
C3843 C3837 1.390 . S
C3843 C3840 1.386 . S
C3844 C3839 1.490 . S
C3844 C3846 1.395 . S
C3844 C3847 1.403 . S
H3845 C3851 0.930 . S
C3846 H3832 0.930 . S
C3846 C3844 1.395 . S
C3846 C3849 1.403 . S
C3847 C3844 1.403 . S
C3847 C3848 1.524 . S
C3847 C3851 1.400 . S
C3848 H3833 0.960 . S
C3848 H3834 0.960 . S
C3848 H3835 0.960 . S
C3848 C3847 1.524 . S
C3849 C3846 1.403 . S
C3849 C3850 1.392 . S
C3849 C3853 1.495 . S
C3850 C3849 1.392 . S
C3850 C3851 1.385 . S
C3850 C3852 1.478 . S
C3851 H3845 0.930 . S
C3851 C3847 1.400 . S
C3851 C3850 1.385 . S
C3852 C3850 1.478 . S
C3852 C3854 1.381 . S
C3852 C3858 1.383 . S
C3853 C3849 1.495 . S
C3853 H3859 0.959 . S
C3853 H3860 0.961 . S
C3853 H3861 0.960 . S
C3854 C3852 1.381 . S
C3854 C3855 1.394 1_554 S
C3854 H3862 0.930 . S
C3855 C3854 1.394 1_556 S
C3855 C3856 1.383 . S
C3855 H3863 0.929 . S
C3856 C3855 1.383 . S
C3856 C3857 1.377 1_556 S
C3857 H3841 0.930 . S
C3857 C3856 1.377 1_554 S
C3857 C3858 1.379 . S
C3858 H3842 0.931 . S
C3858 C3852 1.383 . S
C3858 C3857 1.379 . S
H3859 C3853 0.959 . S
H3860 C3853 0.961 . S
H3861 C3853 0.960 . S
H3862 C3854 0.930 . S
H3863 C3855 0.929 . S
H3864 C3872 0.929 1_554 S
H3865 C3874 0.930 . S
H3866 C3876 0.930 . S
H3867 C3879 0.929 . S
H3868 C3882 0.930 . S
H3869 C3884 0.960 . S
H3870 C3884 0.960 . S
H3871 C3884 0.960 . S
C3872 H3864 0.929 1_556 S
C3872 C3873 1.377 1_556 S
C3872 C3874 1.384 . S
C3873 C3872 1.377 1_554 S
C3873 C3879 1.390 . S
C3874 H3865 0.930 . S
C3874 C3872 1.384 . S
C3874 C3875 1.372 . S
C3875 C3874 1.372 . S
C3875 C3876 1.400 . S
C3875 C3880 1.490 . S
C3876 H3866 0.930 . S
C3876 C3875 1.400 . S
C3876 C3879 1.386 1_556 S
H3877 C3893 0.930 . S
H3878 C3894 0.931 . S
C3879 H3867 0.929 . S
C3879 C3873 1.390 . S
C3879 C3876 1.386 1_554 S
C3880 C3875 1.490 . S
C3880 C3882 1.395 . S
C3880 C3883 1.403 . S
H3881 C3887 0.930 . S
C3882 H3868 0.930 . S
C3882 C3880 1.395 . S
C3882 C3885 1.403 . S
C3883 C3880 1.403 . S
C3883 C3884 1.524 . S
C3883 C3887 1.400 . S
C3884 H3869 0.960 . S
C3884 H3870 0.960 . S
C3884 H3871 0.960 . S
C3884 C3883 1.524 . S
C3885 C3882 1.403 . S
C3885 C3886 1.392 . S
C3885 C3889 1.495 . S
C3886 C3885 1.392 . S
C3886 C3887 1.385 . S
C3886 C3888 1.478 . S
C3887 H3881 0.930 . S
C3887 C3883 1.400 . S
C3887 C3886 1.385 . S
C3888 C3886 1.478 . S
C3888 C3890 1.381 . S
C3888 C3894 1.383 . S
C3889 C3885 1.495 . S
C3889 H3895 0.959 . S
C3889 H3896 0.961 . S
C3889 H3897 0.960 . S
C3890 C3888 1.381 . S
C3890 C3891 1.394 . S
C3890 H3898 0.930 . S
C3891 C3890 1.394 . S
C3891 C3892 1.383 . S
C3891 H3899 0.929 . S
C3892 C3891 1.383 . S
C3892 C3893 1.377 . S
C3893 H3877 0.930 . S
C3893 C3892 1.377 . S
C3893 C3894 1.379 . S
C3894 H3878 0.931 . S
C3894 C3888 1.383 . S
C3894 C3893 1.379 . S
H3895 C3889 0.959 . S
H3896 C3889 0.961 . S
H3897 C3889 0.960 . S
H3898 C3890 0.930 . S
H3899 C3891 0.929 . S
H3900 C3908 0.929 . S
H3901 C3910 0.930 . S
H3902 C3912 0.930 . S
H3903 C3915 0.929 . S
H3904 C3918 0.930 . S
H3905 C3920 0.960 . S
H3906 C3920 0.960 . S
H3907 C3920 0.960 . S
C3908 H3900 0.929 . S
C3908 C3909 1.377 . S
C3908 C3910 1.384 . S
C3909 C3908 1.377 . S
C3909 C3915 1.390 . S
C3910 H3901 0.930 . S
C3910 C3908 1.384 . S
C3910 C3911 1.372 . S
C3911 C3910 1.372 . S
C3911 C3912 1.400 . S
C3911 C3916 1.490 . S
C3912 H3902 0.930 . S
C3912 C3911 1.400 . S
C3912 C3915 1.386 . S
H3913 C3929 0.930 . S
H3914 C3930 0.931 . S
C3915 H3903 0.929 . S
C3915 C3909 1.390 . S
C3915 C3912 1.386 . S
C3916 C3911 1.490 . S
C3916 C3918 1.395 . S
C3916 C3919 1.403 . S
H3917 C3923 0.930 . S
C3918 H3904 0.930 . S
C3918 C3916 1.395 . S
C3918 C3921 1.403 . S
C3919 C3916 1.403 . S
C3919 C3920 1.524 . S
C3919 C3923 1.400 . S
C3920 H3905 0.960 . S
C3920 H3906 0.960 . S
C3920 H3907 0.960 . S
C3920 C3919 1.524 . S
C3921 C3918 1.403 . S
C3921 C3922 1.392 . S
C3921 C3925 1.495 . S
C3922 C3921 1.392 . S
C3922 C3923 1.385 . S
C3922 C3924 1.478 . S
C3923 H3917 0.930 . S
C3923 C3919 1.400 . S
C3923 C3922 1.385 . S
C3924 C3922 1.478 . S
C3924 C3926 1.381 . S
C3924 C3930 1.383 . S
C3925 C3921 1.495 . S
C3925 H3931 0.959 . S
C3925 H3932 0.961 . S
C3925 H3933 0.960 . S
C3926 C3924 1.381 . S
C3926 C3927 1.394 1_556 S
C3926 H3934 0.930 . S
C3927 C3926 1.394 1_554 S
C3927 C3928 1.383 . S
C3927 H3935 0.929 . S
C3928 C3927 1.383 . S
C3928 C3929 1.377 . S
C3929 H3913 0.930 . S
C3929 C3928 1.377 . S
C3929 C3930 1.379 1_554 S
C3930 H3914 0.931 . S
C3930 C3924 1.383 . S
C3930 C3929 1.379 1_556 S
H3931 C3925 0.959 . S
H3932 C3925 0.961 . S
H3933 C3925 0.960 . S
H3934 C3926 0.930 . S
H3935 C3927 0.929 . S
C1065 C7 0.523 . S
C1084 C73 0.565 . S
C1101 C40 0.522 . S
C1120 C106 0.564 . S
C1137 C139 0.513 . S
C1156 C205 0.488 . S
C1173 C172 0.527 . S
C1192 C238 0.511 . S
C1209 C337 0.528 . S
C1228 C271 0.508 . S
C1245 C304 0.515 . S
C1264 C370 0.546 . S
C1281 C403 0.520 . S
C1300 C469 0.482 . S
C1317 C436 0.516 . S
C1336 C502 0.478 . S
C1353 C601 0.529 . S
C1372 C535 0.560 . S
C1389 C634 0.527 . S
C1408 C568 0.563 . S
C1425 C667 0.523 . S
C1444 C733 0.564 . S
C1461 C766 0.511 . S
C1480 C700 0.497 . S
C1497 C865 0.527 . S
C1516 C799 0.566 . S
C1533 C898 0.526 . S
C1552 C832 0.565 . S
C1569 C997 0.514 . S
C1588 C931 0.482 . S
C1605 C964 0.527 . S
C1624 C1030 0.563 . S
C1641 N13 1.904 . S
C1660 N46 1.899 . S
C1677 N79 1.903 . S
C1696 N112 1.885 . S
C1713 N178 1.905 . S
C1732 N145 1.907 . S
C1749 N211 1.906 . S
C1768 N244 1.899 . S
C1785 N310 1.903 . S
C1804 N277 1.877 . S
C1821 N343 1.903 . S
C1840 N376 1.896 . S
C1857 N409 1.908 . S
C1876 N442 1.889 . S
C1893 N475 1.906 . S
C1912 N508 1.899 . S
C1929 N541 1.905 . S
C1948 N574 1.899 . S
C1965 N640 1.905 . S
C1984 N607 1.900 . S
C2001 N706 1.910 . S
C2020 N673 1.903 . S
C2037 N739 1.905 . S
C2056 N772 1.926 . S
C2073 N805 1.907 . S
C2092 N838 1.916 . S
C2109 N871 1.905 . S
C2128 N904 1.891 . S
C2145 N937 1.908 . S
C2164 N970 1.914 . S
C2181 N1036 1.906 . S
C2200 N1003 1.922 . S
C2217 C153 1.626 . S
C2236 C21 1.637 . S
C2253 C54 1.627 . S
C2272 C978 1.638 . S
C2289 C483 1.622 . S
C2308 C87 1.619 . S
C2325 C780 1.628 . S
C2344 C120 1.639 . S
C2361 C846 1.624 . S
C2380 C186 1.628 . S
C2397 C351 1.629 . S
C2416 C219 1.627 . S
C2433 C252 1.628 . S
C2452 C648 1.615 . S
C2469 C417 1.629 . S
C2488 C285 1.632 . S
C2505 C318 1.629 . S
C2524 C714 1.623 . S
C2541 C384 1.628 . S
C2560 C1044 1.613 . S
C2577 C582 1.624 . S
C2596 C450 1.608 . S
C2613 C912 1.627 . S
C2632 C516 1.638 . S
C2649 C549 1.626 . S
C2668 C681 1.608 . S
C2685 C615 1.622 . S
C2704 C1011 1.622 . S
C2721 C879 1.628 . S
C2740 C747 1.637 . S
C2757 C813 1.628 . S
C2776 C945 1.636 . S
C2793 N2 1.172 . S
C2812 N629 1.203 . S
C2829 N596 1.157 . S
C2848 N35 1.151 . S
C2865 N68 1.169 . S
C2884 N563 1.138 . S
C2901 N101 1.169 . S
C2920 N530 1.196 . S
C2937 N761 1.159 . S
C2956 N134 1.140 . S
C2973 N167 1.171 . S
C2992 N728 1.177 . S
C3009 N695 1.160 . S
C3028 N200 1.156 . S
C3045 N233 1.171 . S
C3064 N662 1.200 . S
C3081 N266 1.162 . S
C3100 N893 1.199 . S
C3117 N299 1.172 . S
C3136 N860 1.173 . S
C3153 N332 1.168 . S
C3172 N827 1.210 . S
C3189 N365 1.166 . S
C3208 N794 1.200 . S
C3225 N398 1.164 . S
C3244 N1025 1.141 . S
C3261 N992 1.172 . S
C3280 N431 1.182 . S
C3297 N959 1.159 . S
C3316 N464 1.140 . S
C3333 N926 1.162 . S
C3352 N497 1.130 . S
C3369 C18 1.211 . S
C3388 C84 1.207 . S
C3405 C117 1.211 . S
C3424 C51 1.206 . S
C3441 C216 1.211 . S
C3460 C150 1.209 . S
C3477 C183 1.210 . S
C3496 C249 1.206 . S
C3513 C282 1.211 . S
C3532 C348 1.207 . S
C3549 C315 1.210 . S
C3568 C381 1.211 . S
C3585 C480 1.211 . S
C3604 C414 1.208 . S
C3621 C447 1.211 . S
C3640 C513 1.209 . S
C3657 C546 1.211 . S
C3676 C612 1.206 . S
C3693 C579 1.211 . S
C3712 C645 1.206 . S
C3729 C744 1.210 . S
C3748 C678 1.206 . S
C3765 C777 1.211 . S
C3784 C711 1.210 . S
C3801 C876 1.211 . S
C3820 C810 1.210 . S
C3837 C843 1.211 . S
C3856 C909 1.206 . S
C3873 C1008 1.210 . S
C3892 C942 1.206 . S
C3909 C975 1.210 . S
C3928 C1041 1.206 . S
